# Generated by pormake.
# Topology ptr, (4,4)-cn, num edge types: 1
# Building blocks:
#     Node 0, Type 0, BuildingBlock: UXUYUI_clean_sbu_0, # of connection points: 4
#     Node 1, Type 0, BuildingBlock: UXUYUI_clean_sbu_0, # of connection points: 4
#     Node 2, Type 0, BuildingBlock: UXUYUI_clean_sbu_0, # of connection points: 4
#     Node 3, Type 0, BuildingBlock: UXUYUI_clean_sbu_0, # of connection points: 4
#     Node 4, Type 0, BuildingBlock: UXUYUI_clean_sbu_0, # of connection points: 4
#     Node 5, Type 0, BuildingBlock: UXUYUI_clean_sbu_0, # of connection points: 4
#     Node 6, Type 0, BuildingBlock: UXUYUI_clean_sbu_0, # of connection points: 4
#     Node 7, Type 0, BuildingBlock: UXUYUI_clean_sbu_0, # of connection points: 4
#     Node 8, Type 0, BuildingBlock: UXUYUI_clean_sbu_0, # of connection points: 4
#     Node 9, Type 0, BuildingBlock: UXUYUI_clean_sbu_0, # of connection points: 4
#     Node 10, Type 0, BuildingBlock: UXUYUI_clean_sbu_0, # of connection points: 4
#     Node 11, Type 0, BuildingBlock: UXUYUI_clean_sbu_0, # of connection points: 4
#     Node 12, Type 0, BuildingBlock: UXUYUI_clean_sbu_0, # of connection points: 4
#     Node 13, Type 0, BuildingBlock: UXUYUI_clean_sbu_0, # of connection points: 4
#     Node 14, Type 0, BuildingBlock: UXUYUI_clean_sbu_0, # of connection points: 4
#     Node 15, Type 0, BuildingBlock: UXUYUI_clean_sbu_0, # of connection points: 4
#     Node 16, Type 0, BuildingBlock: UXUYUI_clean_sbu_0, # of connection points: 4
#     Node 17, Type 0, BuildingBlock: UXUYUI_clean_sbu_0, # of connection points: 4
#     Node 18, Type 1, BuildingBlock: NAHDIM_clean_linker_0, # of connection points: 4
#     Node 19, Type 1, BuildingBlock: NAHDIM_clean_linker_0, # of connection points: 4
#     Node 20, Type 1, BuildingBlock: NAHDIM_clean_linker_0, # of connection points: 4
#     Node 21, Type 1, BuildingBlock: NAHDIM_clean_linker_0, # of connection points: 4
#     Node 22, Type 1, BuildingBlock: NAHDIM_clean_linker_0, # of connection points: 4
#     Node 23, Type 1, BuildingBlock: NAHDIM_clean_linker_0, # of connection points: 4
#     Node 24, Type 1, BuildingBlock: NAHDIM_clean_linker_0, # of connection points: 4
#     Node 25, Type 1, BuildingBlock: NAHDIM_clean_linker_0, # of connection points: 4
#     Node 26, Type 1, BuildingBlock: NAHDIM_clean_linker_0, # of connection points: 4
#     Node 27, Type 1, BuildingBlock: NAHDIM_clean_linker_0, # of connection points: 4
#     Node 28, Type 1, BuildingBlock: NAHDIM_clean_linker_0, # of connection points: 4
#     Node 29, Type 1, BuildingBlock: NAHDIM_clean_linker_0, # of connection points: 4
#     Node 30, Type 1, BuildingBlock: NAHDIM_clean_linker_0, # of connection points: 4
#     Node 31, Type 1, BuildingBlock: NAHDIM_clean_linker_0, # of connection points: 4
#     Node 32, Type 1, BuildingBlock: NAHDIM_clean_linker_0, # of connection points: 4
#     Node 33, Type 1, BuildingBlock: NAHDIM_clean_linker_0, # of connection points: 4
#     Node 34, Type 1, BuildingBlock: NAHDIM_clean_linker_0, # of connection points: 4
#     Node 35, Type 1, BuildingBlock: NAHDIM_clean_linker_0, # of connection points: 4
#     Edge 36, Type (0, 1), BuildingBlock: XUDNAN_clean_linker_2, # of connection points: 2
#     Edge 37, Type (0, 1), BuildingBlock: XUDNAN_clean_linker_2, # of connection points: 2
#     Edge 38, Type (0, 1), BuildingBlock: XUDNAN_clean_linker_2, # of connection points: 2
#     Edge 39, Type (0, 1), BuildingBlock: XUDNAN_clean_linker_2, # of connection points: 2
#     Edge 40, Type (0, 1), BuildingBlock: XUDNAN_clean_linker_2, # of connection points: 2
#     Edge 41, Type (0, 1), BuildingBlock: XUDNAN_clean_linker_2, # of connection points: 2
#     Edge 42, Type (0, 1), BuildingBlock: XUDNAN_clean_linker_2, # of connection points: 2
#     Edge 43, Type (0, 1), BuildingBlock: XUDNAN_clean_linker_2, # of connection points: 2
#     Edge 44, Type (0, 1), BuildingBlock: XUDNAN_clean_linker_2, # of connection points: 2
#     Edge 45, Type (0, 1), BuildingBlock: XUDNAN_clean_linker_2, # of connection points: 2
#     Edge 46, Type (0, 1), BuildingBlock: XUDNAN_clean_linker_2, # of connection points: 2
#     Edge 47, Type (0, 1), BuildingBlock: XUDNAN_clean_linker_2, # of connection points: 2
#     Edge 48, Type (0, 1), BuildingBlock: XUDNAN_clean_linker_2, # of connection points: 2
#     Edge 49, Type (0, 1), BuildingBlock: XUDNAN_clean_linker_2, # of connection points: 2
#     Edge 50, Type (0, 1), BuildingBlock: XUDNAN_clean_linker_2, # of connection points: 2
#     Edge 51, Type (0, 1), BuildingBlock: XUDNAN_clean_linker_2, # of connection points: 2
#     Edge 52, Type (0, 1), BuildingBlock: XUDNAN_clean_linker_2, # of connection points: 2
#     Edge 53, Type (0, 1), BuildingBlock: XUDNAN_clean_linker_2, # of connection points: 2
#     Edge 54, Type (0, 1), BuildingBlock: XUDNAN_clean_linker_2, # of connection points: 2
#     Edge 55, Type (0, 1), BuildingBlock: XUDNAN_clean_linker_2, # of connection points: 2
#     Edge 56, Type (0, 1), BuildingBlock: XUDNAN_clean_linker_2, # of connection points: 2
#     Edge 57, Type (0, 1), BuildingBlock: XUDNAN_clean_linker_2, # of connection points: 2
#     Edge 58, Type (0, 1), BuildingBlock: XUDNAN_clean_linker_2, # of connection points: 2
#     Edge 59, Type (0, 1), BuildingBlock: XUDNAN_clean_linker_2, # of connection points: 2
#     Edge 60, Type (0, 1), BuildingBlock: XUDNAN_clean_linker_2, # of connection points: 2
#     Edge 61, Type (0, 1), BuildingBlock: XUDNAN_clean_linker_2, # of connection points: 2
#     Edge 62, Type (0, 1), BuildingBlock: XUDNAN_clean_linker_2, # of connection points: 2
#     Edge 63, Type (0, 1), BuildingBlock: XUDNAN_clean_linker_2, # of connection points: 2
#     Edge 64, Type (0, 1), BuildingBlock: XUDNAN_clean_linker_2, # of connection points: 2
#     Edge 65, Type (0, 1), BuildingBlock: XUDNAN_clean_linker_2, # of connection points: 2
#     Edge 66, Type (0, 1), BuildingBlock: XUDNAN_clean_linker_2, # of connection points: 2
#     Edge 67, Type (0, 1), BuildingBlock: XUDNAN_clean_linker_2, # of connection points: 2
#     Edge 68, Type (0, 1), BuildingBlock: XUDNAN_clean_linker_2, # of connection points: 2
#     Edge 69, Type (0, 1), BuildingBlock: XUDNAN_clean_linker_2, # of connection points: 2
#     Edge 70, Type (0, 1), BuildingBlock: XUDNAN_clean_linker_2, # of connection points: 2
#     Edge 71, Type (0, 1), BuildingBlock: XUDNAN_clean_linker_2, # of connection points: 2
#     Edge 72, Type (0, 1), BuildingBlock: XUDNAN_clean_linker_2, # of connection points: 2
#     Edge 73, Type (0, 1), BuildingBlock: XUDNAN_clean_linker_2, # of connection points: 2
#     Edge 74, Type (0, 1), BuildingBlock: XUDNAN_clean_linker_2, # of connection points: 2
#     Edge 75, Type (0, 1), BuildingBlock: XUDNAN_clean_linker_2, # of connection points: 2
#     Edge 76, Type (0, 1), BuildingBlock: XUDNAN_clean_linker_2, # of connection points: 2
#     Edge 77, Type (0, 1), BuildingBlock: XUDNAN_clean_linker_2, # of connection points: 2
#     Edge 78, Type (0, 1), BuildingBlock: XUDNAN_clean_linker_2, # of connection points: 2
#     Edge 79, Type (0, 1), BuildingBlock: XUDNAN_clean_linker_2, # of connection points: 2
#     Edge 80, Type (0, 1), BuildingBlock: XUDNAN_clean_linker_2, # of connection points: 2
#     Edge 81, Type (0, 1), BuildingBlock: XUDNAN_clean_linker_2, # of connection points: 2
#     Edge 82, Type (0, 1), BuildingBlock: XUDNAN_clean_linker_2, # of connection points: 2
#     Edge 83, Type (0, 1), BuildingBlock: XUDNAN_clean_linker_2, # of connection points: 2
#     Edge 84, Type (0, 1), BuildingBlock: XUDNAN_clean_linker_2, # of connection points: 2
#     Edge 85, Type (0, 1), BuildingBlock: XUDNAN_clean_linker_2, # of connection points: 2
#     Edge 86, Type (0, 1), BuildingBlock: XUDNAN_clean_linker_2, # of connection points: 2
#     Edge 87, Type (0, 1), BuildingBlock: XUDNAN_clean_linker_2, # of connection points: 2
#     Edge 88, Type (0, 1), BuildingBlock: XUDNAN_clean_linker_2, # of connection points: 2
#     Edge 89, Type (0, 1), BuildingBlock: XUDNAN_clean_linker_2, # of connection points: 2
#     Edge 90, Type (0, 1), BuildingBlock: XUDNAN_clean_linker_2, # of connection points: 2
#     Edge 91, Type (0, 1), BuildingBlock: XUDNAN_clean_linker_2, # of connection points: 2
#     Edge 92, Type (0, 1), BuildingBlock: XUDNAN_clean_linker_2, # of connection points: 2
#     Edge 93, Type (0, 1), BuildingBlock: XUDNAN_clean_linker_2, # of connection points: 2
#     Edge 94, Type (0, 1), BuildingBlock: XUDNAN_clean_linker_2, # of connection points: 2
#     Edge 95, Type (0, 1), BuildingBlock: XUDNAN_clean_linker_2, # of connection points: 2
#     Edge 96, Type (0, 1), BuildingBlock: XUDNAN_clean_linker_2, # of connection points: 2
#     Edge 97, Type (0, 1), BuildingBlock: XUDNAN_clean_linker_2, # of connection points: 2
#     Edge 98, Type (0, 1), BuildingBlock: XUDNAN_clean_linker_2, # of connection points: 2
#     Edge 99, Type (0, 1), BuildingBlock: XUDNAN_clean_linker_2, # of connection points: 2
#     Edge 100, Type (0, 1), BuildingBlock: XUDNAN_clean_linker_2, # of connection points: 2
#     Edge 101, Type (0, 1), BuildingBlock: XUDNAN_clean_linker_2, # of connection points: 2
#     Edge 102, Type (0, 1), BuildingBlock: XUDNAN_clean_linker_2, # of connection points: 2
#     Edge 103, Type (0, 1), BuildingBlock: XUDNAN_clean_linker_2, # of connection points: 2
#     Edge 104, Type (0, 1), BuildingBlock: XUDNAN_clean_linker_2, # of connection points: 2
#     Edge 105, Type (0, 1), BuildingBlock: XUDNAN_clean_linker_2, # of connection points: 2
#     Edge 106, Type (0, 1), BuildingBlock: XUDNAN_clean_linker_2, # of connection points: 2
#     Edge 107, Type (0, 1), BuildingBlock: XUDNAN_clean_linker_2, # of connection points: 2
# Relax obj value: 0.120
# Max RMSD: 0.338
# Mean RMSD: 0.137
data_MOF--net-ptr--node1-UXUYUI_clean_sbu_0--node2-NAHDIM_clean_linker_0--edge1-XUDNAN_clean_linker_2
_symmetry_space_group_name_H-M    P1
_symmetry_Int_Tables_number       1
_symmetry_cell_setting            triclinic
loop_
_symmetry_equiv_pos_as_xyz
'x, y, z'
_cell_length_a     110.97824
_cell_length_b     110.78399
_cell_length_c     91.034308
_cell_angle_alpha  90.829275
_cell_angle_beta   90.242929
_cell_angle_gamma 120.43308
loop_
_atom_site_label
_atom_site_type_symbol
_atom_site_fract_x
_atom_site_fract_y
_atom_site_fract_z
_atom_type_partial_charge
Li0 Li 0.99123 0.3266 0.99787 0.0
Li1 Li 0.01664 0.34146 0.00549 0.0
Li2 Li 0.99922 0.34847 0.01232 0.0
Li3 Li 0.00582 0.34915 0.98755 0.0
C4 C 0.99749 0.32455 0.03059 0.0
N5 N 0.99283 0.3099 0.05629 0.0
C6 C 0.00412 0.31688 0.03312 0.0
C7 C 0.98844 0.32471 0.04113 0.0
C8 C 0.00165 0.30956 0.04618 0.0
C9 C 0.98623 0.31725 0.05405 0.0
C10 C 0.01411 0.33493 0.97252 0.0
C11 C 0.03421 0.34621 0.95689 0.0
N12 N 0.02568 0.34071 0.94488 0.0
C13 C 0.00555 0.32935 0.96003 0.0
C14 C 0.02856 0.34342 0.97097 0.0
C15 C 0.0116 0.33241 0.94615 0.0
C16 C 0.97027 0.30382 0.98108 0.0
N17 N 0.97716 0.30752 0.99424 0.0
C18 C 0.96654 0.28353 0.00092 0.0
C19 C 0.97523 0.29773 0.00424 0.0
C20 C 0.95989 0.27931 0.98709 0.0
C21 C 0.96153 0.28969 0.97724 0.0
H22 H 0.97196 0.31184 0.97335 0.0
H23 H 0.98076 0.30087 0.01462 0.0
C24 C 0.03931 0.34731 0.02455 0.0
N25 N 0.032 0.34004 0.01234 0.0
C26 C 0.04921 0.34463 0.03085 0.0
C27 C 0.04407 0.32731 0.01165 0.0
C28 C 0.03431 0.33034 0.00573 0.0
C29 C 0.05153 0.33432 0.02453 0.0
H30 H 0.03708 0.35482 0.02968 0.0
H31 H 0.02809 0.32448 0.99623 0.0
C32 C 0.97299 0.33687 0.99862 0.0
N33 N 0.94578 0.3278 0.00673 0.0
C34 C 0.96532 0.34201 0.9916 0.0
C35 C 0.9668 0.32709 0.00973 0.0
C36 C 0.95158 0.33731 0.99587 0.0
C37 C 0.95304 0.32263 0.01367 0.0
C38 C 0.0221 0.37388 0.00469 0.0
C39 C 0.01293 0.378 0.99932 0.0
C40 C 0.03499 0.38392 0.01076 0.0
C41 C 0.01683 0.39212 1.00011 0.0
C42 C 0.03851 0.39794 0.01135 0.0
N43 N 0.02943 0.40172 0.00606 0.0
C44 C 0.00222 0.36063 0.04043 0.0
C45 C 0.98797 0.3645 0.02395 0.0
C46 C 0.00167 0.36972 0.05085 0.0
N47 N 0.99551 0.3583 0.02726 0.0
C48 C 0.98733 0.37382 0.03393 0.0
C49 C 0.99444 0.3767 0.04746 0.0
H50 H 0.00848 0.35588 0.04259 0.0
H51 H 0.98308 0.36283 0.01325 0.0
C52 C 0.99731 0.35687 0.96225 0.0
N53 N 0.00888 0.3596 0.97012 0.0
C54 C 0.99838 0.36531 0.95054 0.0
C55 C 0.02337 0.37885 0.95479 0.0
C56 C 0.02179 0.3702 0.96654 0.0
C57 C 0.0115 0.37663 0.94685 0.0
H58 H 0.98719 0.34835 0.96535 0.0
H59 H 0.03079 0.37221 0.97311 0.0
O60 O 0.99988 0.33189 0.01791 0.0
O61 O 0.00837 0.33239 0.98619 0.0
O62 O 0.98648 0.3415 0.99457 0.0
O63 O 0.01848 0.3601 0.00423 0.0
H64 H 0.01099 0.31644 0.02502 0.0
H65 H 0.98316 0.33053 0.03939 0.0
H66 H 0.00672 0.30358 0.04826 0.0
H67 H 0.97926 0.3173 0.06229 0.0
H68 H 0.04537 0.35282 0.95552 0.0
H69 H 0.99435 0.32284 0.96104 0.0
H70 H 0.03531 0.34796 0.98052 0.0
H71 H 0.0051 0.32822 0.93638 0.0
H72 H 0.96533 0.27593 0.009 0.0
H73 H 0.95666 0.28693 0.96644 0.0
H74 H 0.05479 0.35035 0.04071 0.0
H75 H 0.04526 0.31909 0.00655 0.0
H76 H 0.96997 0.34963 0.98301 0.0
H77 H 0.9725 0.32291 0.0152 0.0
H78 H 0.94555 0.34124 0.99057 0.0
H79 H 0.94813 0.31506 0.02225 0.0
H80 H 0.00288 0.37037 0.99466 0.0
H81 H 0.04218 0.38088 0.015 0.0
H82 H 0.00983 0.39544 0.99602 0.0
H83 H 0.04845 0.40582 0.01603 0.0
H84 H 0.00746 0.37184 0.06109 0.0
H85 H 0.98168 0.37905 0.03094 0.0
H86 H 0.98902 0.36313 0.94455 0.0
H87 H 0.03365 0.38752 0.95234 0.0
Li88 Li 0.66814 0.65477 0.00845 0.0
Li89 Li 0.6542 0.66321 0.02258 0.0
Li90 Li 0.64862 0.63966 0.02342 0.0
Li91 Li 0.64277 0.64682 0.0012 0.0
C92 C 0.66891 0.65116 0.04218 0.0
N93 N 0.673 0.63956 0.06698 0.0
C94 C 0.66314 0.65191 0.05553 0.0
C95 C 0.67682 0.64458 0.04143 0.0
C96 C 0.6653 0.64595 0.06795 0.0
C97 C 0.67877 0.63877 0.0541 0.0
C98 C 0.6659 0.67902 0.9955 0.0
C99 C 0.66514 0.69626 0.98022 0.0
N100 N 0.67891 0.70529 0.98324 0.0
C101 C 0.68005 0.68846 0.99838 0.0
C102 C 0.65839 0.68293 0.98627 0.0
C103 C 0.68643 0.70169 0.99212 0.0
C104 C 0.68799 0.65902 0.98657 0.0
N105 N 0.68624 0.66092 0.00103 0.0
C106 C 0.71081 0.67609 0.00453 0.0
C107 C 0.69731 0.6689 0.01011 0.0
C108 C 0.71289 0.6749 0.98951 0.0
C109 C 0.70137 0.66588 0.98055 0.0
H110 H 0.67894 0.65276 0.97958 0.0
H111 H 0.69557 0.67037 0.02151 0.0
C112 C 0.64545 0.67528 0.04426 0.0
N113 N 0.65567 0.67843 0.03431 0.0
C114 C 0.64607 0.68562 0.05367 0.0
C115 C 0.66811 0.70225 0.04299 0.0
C116 C 0.66695 0.69159 0.0336 0.0
C117 C 0.65757 0.69933 0.05325 0.0
H118 H 0.63685 0.66466 0.04509 0.0
H119 H 0.67524 0.69376 0.02607 0.0
C120 C 0.64969 0.6225 0.00255 0.0
N121 N 0.64401 0.59518 0.00192 0.0
C122 C 0.63586 0.61143 0.00226 0.0
C123 C 0.66064 0.61971 0.00235 0.0
C124 C 0.63321 0.59768 0.00201 0.0
C125 C 0.65755 0.60581 0.00205 0.0
C126 C 0.62524 0.65009 0.01971 0.0
C127 C 0.61177 0.6414 0.02502 0.0
C128 C 0.62838 0.66252 0.01281 0.0
C129 C 0.6017 0.64533 0.02335 0.0
C130 C 0.61804 0.66609 0.01137 0.0
N131 N 0.60502 0.65749 0.01662 0.0
C132 C 0.62995 0.62291 0.04442 0.0
C133 C 0.64508 0.61453 0.03792 0.0
C134 C 0.62203 0.61127 0.05302 0.0
N135 N 0.64089 0.6241 0.03662 0.0
C136 C 0.63744 0.60266 0.04649 0.0
C137 C 0.62548 0.60074 0.05377 0.0
H138 H 0.62717 0.63092 0.04375 0.0
H139 H 0.65408 0.61586 0.03203 0.0
C140 C 0.63257 0.64646 0.97192 0.0
N141 N 0.62941 0.64105 0.98562 0.0
C142 C 0.62199 0.64218 0.96122 0.0
C143 C 0.60531 0.62673 0.97892 0.0
C144 C 0.61618 0.63111 0.98912 0.0
C145 C 0.60814 0.63239 0.96484 0.0
H146 H 0.64323 0.65419 0.96935 0.0
H147 H 0.61403 0.62667 0.99995 0.0
O148 O 0.66664 0.65664 0.02984 0.0
O149 O 0.65952 0.66588 0.00125 0.0
O150 O 0.65254 0.63602 0.00274 0.0
O151 O 0.63513 0.6462 0.02103 0.0
H152 H 0.65694 0.65692 0.05625 0.0
H153 H 0.68126 0.64383 0.03113 0.0
H154 H 0.66084 0.64638 0.07835 0.0
H155 H 0.6848 0.63358 0.05368 0.0
H156 H 0.65945 0.69942 0.9731 0.0
H157 H 0.686 0.6857 0.00557 0.0
H158 H 0.64746 0.67575 0.98379 0.0
H159 H 0.69736 0.7091 0.99434 0.0
H160 H 0.71947 0.68292 0.01177 0.0
H161 H 0.70259 0.66482 0.96889 0.0
H162 H 0.63758 0.68282 0.06122 0.0
H163 H 0.67733 0.71256 0.04245 0.0
H164 H 0.62729 0.61345 0.00239 0.0
H165 H 0.67141 0.6282 0.00249 0.0
H166 H 0.62256 0.589 0.00191 0.0
H167 H 0.66591 0.60348 0.00196 0.0
H168 H 0.60904 0.63164 0.03022 0.0
H169 H 0.63871 0.66942 0.00875 0.0
H170 H 0.59124 0.63868 0.02737 0.0
H171 H 0.62038 0.67571 0.00609 0.0
H172 H 0.61312 0.61038 0.05881 0.0
H173 H 0.64051 0.59481 0.04691 0.0
H174 H 0.62453 0.64671 0.95041 0.0
H175 H 0.59479 0.61899 0.98201 0.0
Li176 Li 0.34682 0.99415 0.99549 0.0
Li177 Li 0.35435 0.00703 0.01926 0.0
Li178 Li 0.33008 0.98792 0.01501 0.0
Li179 Li 0.33865 0.01025 0.00279 0.0
C180 C 0.34347 0.97476 0.02196 0.0
N181 N 0.33448 0.94994 0.03641 0.0
C182 C 0.34793 0.97493 0.03638 0.0
C183 C 0.33456 0.96199 0.01483 0.0
C184 C 0.34323 0.96226 0.04351 0.0
C185 C 0.33009 0.94955 0.02234 0.0
C186 C 0.37104 0.02614 0.99893 0.0
C187 C 0.38786 0.04943 0.00759 0.0
N188 N 0.39787 0.04897 0.99943 0.0
C189 C 0.38148 0.02589 0.99063 0.0
C190 C 0.37423 0.03799 0.00747 0.0
C191 C 0.39498 0.03754 0.99103 0.0
C192 C 0.35677 0.99494 0.9667 0.0
N193 N 0.35438 0.98856 0.97989 0.0
C194 C 0.36889 0.97914 0.97359 0.0
C195 C 0.35993 0.98046 0.98332 0.0
C196 C 0.37219 0.98626 0.96025 0.0
C197 C 0.36558 0.99379 0.95657 0.0
H198 H 0.35274 0.00181 0.9645 0.0
H199 H 0.35819 0.97582 0.99403 0.0
C200 C 0.36578 0.01555 0.04783 0.0
N201 N 0.36902 0.01479 0.03358 0.0
C202 C 0.376 0.01978 0.05887 0.0
C203 C 0.39276 0.02272 0.04031 0.0
C204 C 0.38215 0.01807 0.0297 0.0
C205 C 0.38967 0.02346 0.05509 0.0
H206 H 0.35516 0.0125 0.05064 0.0
H207 H 0.38433 0.01677 0.01843 0.0
C208 C 0.32326 0.98574 0.98037 0.0
N209 N 0.31538 0.97532 0.95203 0.0
C210 C 0.32495 0.99474 0.96895 0.0
C211 C 0.31747 0.97144 0.97742 0.0
C212 C 0.32092 0.98927 0.95468 0.0
C213 C 0.31359 0.96637 0.963 0.0
C214 C 0.33131 0.0141 0.02958 0.0
C215 C 0.3168 0.00813 0.02967 0.0
C216 C 0.3399 0.02786 0.0347 0.0
C217 C 0.31111 0.01613 0.03472 0.0
C218 C 0.3338 0.03551 0.03966 0.0
N219 N 0.31965 0.02954 0.03955 0.0
C220 C 0.31625 0.9745 0.04023 0.0
C221 C 0.30143 0.96726 0.01916 0.0
C222 C 0.30478 0.96762 0.04939 0.0
N223 N 0.31437 0.97442 0.02547 0.0
C224 C 0.2896 0.96031 0.02796 0.0
C225 C 0.2912 0.96088 0.04334 0.0
H226 H 0.32662 0.98068 0.04498 0.0
H227 H 0.30023 0.96775 0.00743 0.0
C228 C 0.34149 0.03619 0.99289 0.0
N229 N 0.33258 0.02255 0.99609 0.0
C230 C 0.33628 0.04463 0.98808 0.0
C231 C 0.31287 0.02475 0.98976 0.0
C232 C 0.31852 0.01673 0.9945 0.0
C233 C 0.32176 0.03893 0.98654 0.0
H234 H 0.35263 0.04054 0.99405 0.0
H235 H 0.31169 0.00579 0.99693 0.0
O236 O 0.34779 0.98705 0.01485 0.0
O237 O 0.35779 0.01478 0.99877 0.0
O238 O 0.32718 0.99089 0.9944 0.0
O239 O 0.3371 0.00655 0.02442 0.0
H240 H 0.35486 0.98474 0.04202 0.0
H241 H 0.3311 0.9617 0.00364 0.0
H242 H 0.34654 0.96222 0.0547 0.0
H243 H 0.32314 0.93958 0.01699 0.0
H244 H 0.39049 0.05866 0.01419 0.0
H245 H 0.37923 0.01676 0.98404 0.0
H246 H 0.3663 0.03831 0.01403 0.0
H247 H 0.40318 0.03749 0.98469 0.0
H248 H 0.37376 0.97321 0.9768 0.0
H249 H 0.36804 0.99962 0.9465 0.0
H250 H 0.37329 0.02018 0.07021 0.0
H251 H 0.40317 0.02529 0.03709 0.0
H252 H 0.32947 0.00586 0.97103 0.0
H253 H 0.31598 0.96432 0.98617 0.0
H254 H 0.32224 0.99612 0.94571 0.0
H255 H 0.30913 0.95533 0.96054 0.0
H256 H 0.31 0.99751 0.02572 0.0
H257 H 0.35115 0.03257 0.03484 0.0
H258 H 0.29989 0.01168 0.03475 0.0
H259 H 0.34032 0.04619 0.0436 0.0
H260 H 0.30652 0.96818 0.06116 0.0
H261 H 0.27933 0.9554 0.02284 0.0
H262 H 0.34352 0.05553 0.98581 0.0
H263 H 0.30164 0.01983 0.98847 0.0
Li264 Li 0.00732 0.67359 0.01639 0.0
Li265 Li 0.99027 0.64828 0.0218 0.0
Li266 Li 0.00253 0.65473 0.99954 0.0
Li267 Li 0.98487 0.66061 0.00263 0.0
C268 C 0.02046 0.65415 0.0173 0.0
N269 N 0.03965 0.646 0.01101 0.0
C270 C 0.01678 0.64015 0.01866 0.0
C271 C 0.0339 0.66403 0.01284 0.0
C272 C 0.02664 0.63624 0.0154 0.0
C273 C 0.04345 0.6597 0.00969 0.0
C274 C 0.98395 0.66858 0.03634 0.0
C275 C 0.96704 0.67144 0.05016 0.0
N276 N 0.97616 0.67668 0.06173 0.0
C277 C 0.99318 0.67405 0.04834 0.0
C278 C 0.97079 0.66733 0.03721 0.0
C279 C 0.98904 0.67806 0.06109 0.0
C280 C 0.01336 0.70001 0.0238 0.0
N281 N 0.0189 0.69159 0.02492 0.0
C282 C 0.0377 0.70871 0.03996 0.0
C283 C 0.03089 0.69564 0.03268 0.0
C284 C 0.03187 0.71738 0.0394 0.0
C285 C 0.01965 0.71297 0.03103 0.0
H286 H 0.00376 0.69642 0.01762 0.0
H287 H 0.03494 0.68861 0.03357 0.0
C288 C 0.97621 0.62089 0.03377 0.0
N289 N 0.98376 0.63483 0.03709 0.0
C290 C 0.97279 0.61104 0.04475 0.0
C291 C 0.98523 0.63002 0.06235 0.0
C292 C 0.9883 0.6395 0.05105 0.0
C293 C 0.97749 0.61558 0.05922 0.0
H294 H 0.97329 0.61734 0.02252 0.0
H295 H 0.99478 0.65057 0.05333 0.0
C296 C 0.00327 0.67437 0.98011 0.0
N297 N 0.00164 0.67747 0.95023 0.0
C298 C 0.99433 0.66283 0.9712 0.0
C299 C 0.01137 0.68749 0.97382 0.0
C300 C 0.99366 0.66461 0.95612 0.0
C301 C 0.0104 0.68884 0.95869 0.0
C302 C 0.96823 0.63187 0.00225 0.0
C303 C 0.9621 0.62079 0.99201 0.0
C304 C 0.95994 0.6332 0.01293 0.0
C305 C 0.94777 0.6112 0.99266 0.0
C306 C 0.94566 0.62339 0.01322 0.0
N307 N 0.93991 0.61268 0.00316 0.0
C308 C 0.00305 0.6337 0.98327 0.0
C309 C 0.02196 0.65622 0.9777 0.0
C310 C 0.00731 0.62749 0.97269 0.0
N311 N 0.01028 0.64781 0.98545 0.0
C312 C 0.02671 0.6504 0.96707 0.0
C313 C 0.0192 0.63587 0.96435 0.0
H314 H 0.99389 0.62727 0.98971 0.0
H315 H 0.02748 0.66742 0.97967 0.0
C316 C 0.97228 0.67629 0.99803 0.0
N317 N 0.9713 0.66398 0.99395 0.0
C318 C 0.96334 0.68027 0.99184 0.0
C319 C 0.95246 0.65878 0.97736 0.0
C320 C 0.96169 0.65524 0.98378 0.0
C321 C 0.95329 0.67149 0.98133 0.0
H322 H 0.9801 0.68305 0.00605 0.0
H323 H 0.96132 0.64565 0.98049 0.0
O324 O 0.01084 0.65811 0.02006 0.0
O325 O 0.9879 0.6649 0.02361 0.0
O326 O 0.00416 0.67296 0.99491 0.0
O327 O 0.98222 0.64142 0.00152 0.0
H328 H 0.00639 0.63238 0.02204 0.0
H329 H 0.03684 0.67489 0.01163 0.0
H330 H 0.02392 0.62542 0.01631 0.0
H331 H 0.05387 0.66721 0.00614 0.0
H332 H 0.95688 0.67051 0.05099 0.0
H333 H 0.00344 0.67518 0.04783 0.0
H334 H 0.96356 0.66324 0.02797 0.0
H335 H 0.99608 0.68229 0.07046 0.0
H336 H 0.04711 0.71178 0.04635 0.0
H337 H 0.01495 0.71944 0.0302 0.0
H338 H 0.96709 0.59999 0.04183 0.0
H339 H 0.98909 0.63395 0.07336 0.0
H340 H 0.98799 0.65259 0.97583 0.0
H341 H 0.01834 0.69652 0.98057 0.0
H342 H 0.98679 0.65576 0.94911 0.0
H343 H 0.01661 0.69893 0.95367 0.0
H344 H 0.96834 0.61966 0.9836 0.0
H345 H 0.96446 0.64163 0.02098 0.0
H346 H 0.94289 0.60258 0.98479 0.0
H347 H 0.93914 0.62429 0.02145 0.0
H348 H 0.00136 0.61623 0.97105 0.0
H349 H 0.0359 0.6572 0.96079 0.0
H350 H 0.96422 0.69007 0.99536 0.0
H351 H 0.94494 0.65179 0.96919 0.0
Li352 Li 0.33729 0.35101 0.01356 0.0
Li353 Li 0.36109 0.35737 0.02057 0.0
Li354 Li 0.35556 0.36298 0.99568 0.0
Li355 Li 0.34814 0.33884 0.00187 0.0
C356 C 0.34892 0.37794 0.02106 0.0
N357 N 0.33811 0.39359 0.03265 0.0
C358 C 0.35068 0.38156 0.036 0.0
C359 C 0.34184 0.38242 0.01197 0.0
C360 C 0.34509 0.38944 0.04167 0.0
C361 C 0.3364 0.39029 0.01804 0.0
C362 C 0.34637 0.33027 0.03073 0.0
C363 C 0.36102 0.32052 0.03589 0.0
N364 N 0.35171 0.31211 0.04606 0.0
C365 C 0.33695 0.32152 0.04121 0.0
C366 C 0.3585 0.32977 0.02802 0.0
C367 C 0.33984 0.31241 0.04886 0.0
C368 C 0.30853 0.34131 0.01196 0.0
N369 N 0.31991 0.34771 0.02101 0.0
C370 C 0.30565 0.3463 0.04128 0.0
C371 C 0.31874 0.35025 0.03544 0.0
C372 C 0.29362 0.33939 0.03225 0.0
C373 C 0.29525 0.33707 0.01735 0.0
H374 H 0.30966 0.33894 0.00068 0.0
H375 H 0.32789 0.35493 0.04252 0.0
C376 C 0.38803 0.37189 0.03403 0.0
N377 N 0.37409 0.36387 0.03647 0.0
C378 C 0.39749 0.37714 0.04587 0.0
C379 C 0.37803 0.36569 0.06242 0.0
C380 C 0.36898 0.36069 0.05028 0.0
C381 C 0.39251 0.37414 0.06032 0.0
H382 H 0.39176 0.37438 0.02291 0.0
H383 H 0.35782 0.35437 0.05188 0.0
C384 C 0.33171 0.34564 0.97902 0.0
N385 N 0.32116 0.34493 0.95127 0.0
C386 C 0.33204 0.33686 0.96804 0.0
C387 C 0.32587 0.35394 0.97594 0.0
C388 C 0.32669 0.33668 0.95407 0.0
C389 C 0.32063 0.35347 0.96183 0.0
C390 C 0.37561 0.35313 0.99072 0.0
C391 C 0.37156 0.35102 0.97593 0.0
C392 C 0.38776 0.35323 0.99504 0.0
C393 C 0.37978 0.34912 0.96564 0.0
C394 C 0.39571 0.35128 0.98442 0.0
N395 N 0.39159 0.34929 0.97006 0.0
C396 C 0.37072 0.39065 0.98682 0.0
C397 C 0.36019 0.37497 0.96659 0.0
C398 C 0.37624 0.4021 0.97752 0.0
N399 N 0.36276 0.37741 0.98128 0.0
C400 C 0.3655 0.38612 0.95689 0.0
C401 C 0.3736 0.39992 0.96233 0.0
H402 H 0.37275 0.39233 0.99852 0.0
H403 H 0.35395 0.36443 0.96229 0.0
C404 C 0.32937 0.31123 0.99836 0.0
N405 N 0.34292 0.32046 0.99517 0.0
C406 C 0.32326 0.29722 0.99403 0.0
C407 C 0.34513 0.30239 0.98305 0.0
C408 C 0.35093 0.31634 0.98783 0.0
C409 C 0.33111 0.29267 0.98617 0.0
H410 H 0.32328 0.31484 0.00418 0.0
H411 H 0.36172 0.32378 0.98559 0.0
O412 O 0.35417 0.37009 0.01535 0.0
O413 O 0.34361 0.33918 0.02313 0.0
O414 O 0.33684 0.3459 0.99278 0.0
O415 O 0.36772 0.355 0.00099 0.0
H416 H 0.35619 0.37821 0.04317 0.0
H417 H 0.34056 0.37985 0.00035 0.0
H418 H 0.34628 0.39225 0.05323 0.0
H419 H 0.33084 0.39378 0.01115 0.0
H420 H 0.37036 0.32003 0.0339 0.0
H421 H 0.3275 0.32178 0.04341 0.0
H422 H 0.3659 0.33643 0.01993 0.0
H423 H 0.33264 0.30559 0.05701 0.0
H424 H 0.30495 0.34839 0.0528 0.0
H425 H 0.28631 0.33148 0.01003 0.0
H426 H 0.40854 0.38372 0.04375 0.0
H427 H 0.37373 0.36293 0.07332 0.0
H428 H 0.33643 0.33029 0.97024 0.0
H429 H 0.32539 0.36067 0.98434 0.0
H430 H 0.32693 0.32999 0.94544 0.0
H431 H 0.31614 0.35988 0.95927 0.0
H432 H 0.36204 0.35058 0.97248 0.0
H433 H 0.39099 0.35475 0.00648 0.0
H434 H 0.37674 0.34743 0.95415 0.0
H435 H 0.40513 0.35133 0.98761 0.0
H436 H 0.3826 0.41254 0.98219 0.0
H437 H 0.36308 0.38394 0.94527 0.0
H438 H 0.31238 0.29009 0.99649 0.0
H439 H 0.35152 0.29921 0.97708 0.0
Li440 Li 0.66188 0.98977 0.01392 0.0
Li441 Li 0.65677 0.00818 0.01932 0.0
Li442 Li 0.65082 0.99669 0.99444 0.0
Li443 Li 0.67513 0.01329 0.00195 0.0
C444 C 0.63222 0.97463 0.01421 0.0
N445 N 0.61014 0.94732 0.01465 0.0
C446 C 0.62371 0.96968 0.02655 0.0
C447 C 0.62929 0.96574 0.00199 0.0
C448 C 0.61266 0.95583 0.02659 0.0
C449 C 0.61815 0.95197 0.00245 0.0
C450 C 0.67776 0.01363 0.03706 0.0
C451 C 0.68823 0.03304 0.05437 0.0
N452 N 0.68343 0.02389 0.06563 0.0
C453 C 0.67303 0.00441 0.04879 0.0
C454 C 0.68551 0.02806 0.03984 0.0
C455 C 0.67596 0.0098 0.06316 0.0
C456 C 0.67663 0.97599 0.0185 0.0
N457 N 0.66447 0.97544 0.02197 0.0
C458 C 0.65798 0.9558 0.03732 0.0
C459 C 0.65521 0.96568 0.03126 0.0
C460 C 0.67047 0.95608 0.0339 0.0
C461 C 0.67984 0.96635 0.02433 0.0
H462 H 0.68387 0.98398 0.01121 0.0
H463 H 0.64581 0.96569 0.0342 0.0
C464 C 0.64976 0.0272 0.03289 0.0
N465 N 0.64985 0.01507 0.03442 0.0
C466 C 0.6429 0.03107 0.04312 0.0
C467 C 0.6366 0.01001 0.05643 0.0
C468 C 0.6437 0.00664 0.04604 0.0
C469 C 0.63587 0.02224 0.05491 0.0
H470 H 0.6546 0.03366 0.02348 0.0
H471 H 0.6439 0.99704 0.04696 0.0
C472 C 0.66786 0.98558 0.98261 0.0
N473 N 0.66949 0.96806 0.96176 0.0
C474 C 0.676 0.99114 0.97012 0.0
C475 C 0.66076 0.9711 0.9846 0.0
C476 C 0.67663 0.98212 0.95967 0.0
C477 C 0.66166 0.96242 0.97392 0.0
C478 C 0.66507 0.0296 0.99344 0.0
C479 C 0.66098 0.03072 0.97921 0.0
C480 C 0.67513 0.04161 0.001 0.0
C481 C 0.6672 0.04384 0.97271 0.0
C482 C 0.6811 0.05454 0.99411 0.0
N483 N 0.67705 0.05537 0.98022 0.0
C484 C 0.6251 0.98865 0.97995 0.0
C485 C 0.64389 0.99323 0.96427 0.0
C486 C 0.61663 0.98723 0.96786 0.0
N487 N 0.6385 0.99175 0.97793 0.0
C488 C 0.63582 0.99192 0.95191 0.0
C489 C 0.62209 0.98921 0.95363 0.0
H490 H 0.62119 0.98784 0.99097 0.0
H491 H 0.65468 0.99613 0.96297 0.0
C492 C 0.70478 0.03057 0.00133 0.0
N493 N 0.69268 0.02614 0.99365 0.0
C494 C 0.71765 0.03793 0.99428 0.0
C495 C 0.70532 0.03647 0.97177 0.0
C496 C 0.69274 0.02919 0.97923 0.0
C497 C 0.71797 0.0406 0.97919 0.0
H498 H 0.70442 0.02779 0.01273 0.0
H499 H 0.68297 0.02529 0.9733 0.0
O500 O 0.64307 0.98819 0.014 0.0
O501 O 0.67481 0.00856 0.02292 0.0
O502 O 0.66733 0.99432 0.99309 0.0
O503 O 0.65922 0.01682 0.99992 0.0
H504 H 0.62564 0.97641 0.03604 0.0
H505 H 0.63544 0.96946 0.99219 0.0
H506 H 0.60608 0.95185 0.03612 0.0
H507 H 0.61582 0.94498 0.99307 0.0
H508 H 0.69418 0.04419 0.0567 0.0
H509 H 0.66702 0.99322 0.04682 0.0
H510 H 0.68941 0.03533 0.03089 0.0
H511 H 0.67228 0.00279 0.07235 0.0
H512 H 0.65057 0.9482 0.04483 0.0
H513 H 0.68951 0.96687 0.02127 0.0
H514 H 0.64288 0.04073 0.04161 0.0
H515 H 0.63123 0.00274 0.06516 0.0
H516 H 0.68172 0.00229 0.96841 0.0
H517 H 0.65474 0.96655 0.99435 0.0
H518 H 0.68281 0.9863 0.9499 0.0
H519 H 0.65618 0.9512 0.97533 0.0
H520 H 0.65313 0.02156 0.97324 0.0
H521 H 0.67836 0.04093 0.01202 0.0
H522 H 0.66418 0.04485 0.96168 0.0
H523 H 0.68896 0.06391 0.99981 0.0
H524 H 0.60616 0.98529 0.9697 0.0
H525 H 0.64041 0.99339 0.94114 0.0
H526 H 0.72716 0.04081 0.00038 0.0
H527 H 0.7051 0.03843 0.96017 0.0
Li528 Li 0.65783 0.67262 0.33001 0.0
Li529 Li 0.67867 0.68181 0.34627 0.0
Li530 Li 0.66218 0.6904 0.34971 0.0
Li531 Li 0.6773 0.69621 0.32814 0.0
C532 C 0.6517 0.659 0.35916 0.0
N533 N 0.63786 0.63425 0.37434 0.0
C534 C 0.65683 0.64978 0.35924 0.0
C535 C 0.63954 0.65562 0.36685 0.0
C536 C 0.64968 0.63733 0.36697 0.0
C537 C 0.63269 0.64306 0.37443 0.0
C538 C 0.68457 0.68215 0.31193 0.0
C539 C 0.70634 0.69403 0.29892 0.0
N540 N 0.69911 0.69073 0.28597 0.0
C541 C 0.67736 0.67885 0.29849 0.0
C542 C 0.69918 0.68978 0.31216 0.0
C543 C 0.6849 0.68329 0.28548 0.0
C544 C 0.63788 0.65839 0.30705 0.0
N545 N 0.64396 0.65653 0.31914 0.0
C546 C 0.63168 0.63177 0.31474 0.0
C547 C 0.64107 0.64355 0.32304 0.0
C548 C 0.62537 0.63334 0.30206 0.0
C549 C 0.62853 0.6469 0.29832 0.0
H550 H 0.6406 0.66884 0.30391 0.0
H551 H 0.64628 0.6423 0.33239 0.0
C552 C 0.68874 0.67534 0.37181 0.0
N553 N 0.68981 0.67621 0.35694 0.0
C554 C 0.69578 0.67005 0.37977 0.0
C555 C 0.70509 0.66692 0.35701 0.0
C556 C 0.69781 0.67218 0.34948 0.0
C557 C 0.70398 0.66563 0.37234 0.0
H558 H 0.68212 0.67842 0.37742 0.0
H559 H 0.69819 0.67264 0.33764 0.0
C560 C 0.64353 0.68728 0.32757 0.0
N561 N 0.61633 0.6818 0.32604 0.0
C562 C 0.64027 0.6958 0.31931 0.0
C563 C 0.63296 0.676 0.33509 0.0
C564 C 0.62645 0.69286 0.31867 0.0
C565 C 0.61928 0.67338 0.33417 0.0
C566 C 0.6932 0.70626 0.35948 0.0
C567 C 0.6905 0.70883 0.37382 0.0
C568 C 0.70639 0.70835 0.35609 0.0
C569 C 0.701 0.71329 0.38457 0.0
C570 C 0.7166 0.71279 0.36715 0.0
N571 N 0.71372 0.71514 0.38104 0.0
C572 C 0.651 0.69296 0.3771 0.0
C573 C 0.65299 0.70849 0.35836 0.0
C574 C 0.64659 0.69963 0.38706 0.0
N575 N 0.65422 0.69759 0.36311 0.0
C576 C 0.64858 0.71539 0.3679 0.0
C577 C 0.64557 0.71117 0.38256 0.0
H578 H 0.65241 0.68449 0.38068 0.0
H579 H 0.65582 0.71208 0.34724 0.0
C580 C 0.67987 0.71233 0.30345 0.0
N581 N 0.68717 0.71108 0.31476 0.0
C582 C 0.68624 0.72391 0.29432 0.0
C583 C 0.70769 0.73235 0.30827 0.0
C584 C 0.70085 0.72072 0.31723 0.0
C585 C 0.7003 0.73426 0.29681 0.0
H586 H 0.66898 0.70451 0.30176 0.0
H587 H 0.70641 0.7195 0.32631 0.0
O588 O 0.65872 0.67143 0.35196 0.0
O589 O 0.67734 0.67824 0.32479 0.0
O590 O 0.65705 0.69015 0.32839 0.0
O591 O 0.68298 0.70169 0.34885 0.0
H592 H 0.66609 0.65207 0.35319 0.0
H593 H 0.63542 0.66262 0.36697 0.0
H594 H 0.65352 0.63009 0.36706 0.0
H595 H 0.62327 0.64033 0.38041 0.0
H596 H 0.71764 0.70002 0.29895 0.0
H597 H 0.66608 0.67302 0.29809 0.0
H598 H 0.70494 0.69259 0.32245 0.0
H599 H 0.67946 0.68085 0.27501 0.0
H600 H 0.62949 0.62155 0.3182 0.0
H601 H 0.62417 0.64871 0.2885 0.0
H602 H 0.6947 0.6693 0.39159 0.0
H603 H 0.7111 0.66339 0.35083 0.0
H604 H 0.64834 0.70464 0.3135 0.0
H605 H 0.63526 0.66926 0.34147 0.0
H606 H 0.62378 0.69937 0.31232 0.0
H607 H 0.611 0.66466 0.3399 0.0
H608 H 0.68042 0.70739 0.37665 0.0
H609 H 0.70864 0.70627 0.34511 0.0
H610 H 0.69903 0.71527 0.39572 0.0
H611 H 0.7268 0.7143 0.3647 0.0
H612 H 0.64458 0.69615 0.39831 0.0
H613 H 0.64776 0.72411 0.36389 0.0
H614 H 0.68003 0.72494 0.28577 0.0
H615 H 0.71862 0.73985 0.31044 0.0
Li616 Li 0.2992 0.975 0.34668 0.0
Li617 Li 0.30786 0.96953 0.3691 0.0
Li618 Li 0.31545 0.99373 0.36175 0.0
Li619 Li 0.32395 0.98087 0.34791 0.0
C620 C 0.28269 0.97464 0.36714 0.0
N621 N 0.2545 0.96566 0.36549 0.0
C622 C 0.27302 0.96256 0.37437 0.0
C623 C 0.27803 0.98226 0.35923 0.0
C624 C 0.25881 0.95817 0.37337 0.0
C625 C 0.26373 0.97752 0.35848 0.0
C626 C 0.30404 0.95073 0.34104 0.0
C627 C 0.30234 0.92817 0.33893 0.0
N628 N 0.2983 0.92717 0.32462 0.0
C629 C 0.29986 0.94945 0.32631 0.0
C630 C 0.30526 0.93998 0.34741 0.0
C631 C 0.29701 0.93747 0.3182 0.0
C632 C 0.28267 0.9738 0.32198 0.0
N633 N 0.2833 0.96692 0.33393 0.0
C634 C 0.26262 0.94598 0.32615 0.0
C635 C 0.27338 0.95339 0.33637 0.0
C636 C 0.26202 0.95261 0.31337 0.0
C637 C 0.27196 0.96682 0.31153 0.0
H638 H 0.29082 0.9845 0.32023 0.0
H639 H 0.27426 0.94816 0.34591 0.0
C640 C 0.31009 0.96009 0.3974 0.0
N641 N 0.30292 0.95639 0.3844 0.0
C642 C 0.3065 0.95023 0.40842 0.0
C643 C 0.28784 0.93312 0.3927 0.0
C644 C 0.29195 0.94324 0.3819 0.0
C645 C 0.29523 0.93657 0.40611 0.0
H646 H 0.3186 0.97069 0.39925 0.0
H647 H 0.28637 0.94063 0.3715 0.0
C648 C 0.3222 0.00589 0.33673 0.0
N649 N 0.33474 0.03421 0.33149 0.0
C650 C 0.3367 0.01398 0.33531 0.0
C651 C 0.31406 0.01217 0.33534 0.0
C652 C 0.34284 0.02828 0.33269 0.0
C653 C 0.32061 0.02651 0.33274 0.0
C654 C 0.33653 0.98304 0.37549 0.0
C655 C 0.34628 0.9921 0.38597 0.0
C656 C 0.33614 0.97059 0.37159 0.0
C657 C 0.35547 0.98853 0.39243 0.0
C658 C 0.3455 0.9674 0.37829 0.0
N659 N 0.35489 0.97636 0.38848 0.0
C660 C 0.31184 0.01552 0.37387 0.0
C661 C 0.33528 0.02073 0.3719 0.0
C662 C 0.31626 0.02856 0.38053 0.0
N663 N 0.32134 0.01186 0.36978 0.0
C664 C 0.34016 0.03387 0.37851 0.0
C665 C 0.33059 0.03788 0.38307 0.0
H666 H 0.30081 0.0082 0.37224 0.0
H667 H 0.34259 0.0175 0.36858 0.0
C668 C 0.33622 0.97455 0.32404 0.0
N669 N 0.33911 0.9817 0.33706 0.0
C670 C 0.34685 0.97444 0.31603 0.0
C671 C 0.36348 0.98976 0.33451 0.0
C672 C 0.35248 0.98947 0.34223 0.0
C673 C 0.36068 0.98201 0.32132 0.0
H674 H 0.32567 0.96899 0.31978 0.0
H675 H 0.35464 0.99546 0.35236 0.0
O676 O 0.29663 0.97897 0.36778 0.0
O677 O 0.30656 0.96224 0.3493 0.0
O678 O 0.31604 0.99194 0.3397 0.0
O679 O 0.32742 0.98638 0.36917 0.0
H680 H 0.27643 0.95663 0.3807 0.0
H681 H 0.28535 0.9916 0.35354 0.0
H682 H 0.25121 0.9488 0.37887 0.0
H683 H 0.25998 0.98325 0.35228 0.0
H684 H 0.30325 0.91979 0.34373 0.0
H685 H 0.29899 0.95769 0.32111 0.0
H686 H 0.30842 0.94071 0.3588 0.0
H687 H 0.2938 0.93638 0.30679 0.0
H688 H 0.25509 0.93505 0.32797 0.0
H689 H 0.2719 0.97223 0.30174 0.0
H690 H 0.31233 0.9533 0.4187 0.0
H691 H 0.27912 0.92267 0.39052 0.0
H692 H 0.34315 0.0093 0.33639 0.0
H693 H 0.30284 0.00607 0.3364 0.0
H694 H 0.35406 0.03469 0.33166 0.0
H695 H 0.31445 0.03153 0.33175 0.0
H696 H 0.3467 0.00177 0.38911 0.0
H697 H 0.32875 0.96353 0.36343 0.0
H698 H 0.36306 0.99544 0.40057 0.0
H699 H 0.34531 0.95781 0.37536 0.0
H700 H 0.3085 0.03112 0.38406 0.0
H701 H 0.35131 0.04078 0.38011 0.0
H702 H 0.3443 0.96862 0.30571 0.0
H703 H 0.37402 0.99577 0.33895 0.0
Li704 Li 0.02335 0.32114 0.3377 0.0
Li705 Li 0.03091 0.33651 0.35954 0.0
Li706 Li 0.00617 0.32089 0.35373 0.0
Li707 Li 0.02055 0.34154 0.33887 0.0
C708 C 0.01368 0.3057 0.36863 0.0
N709 N 0.99893 0.28564 0.38933 0.0
C710 C 0.01696 0.30879 0.38357 0.0
C711 C 0.00294 0.29239 0.36422 0.0
C712 C 0.00938 0.2985 0.39386 0.0
C713 C 0.99559 0.2824 0.37486 0.0
C714 C 0.05214 0.3481 0.34194 0.0
C715 C 0.07326 0.36852 0.35088 0.0
N716 N 0.08038 0.36163 0.34878 0.0
C717 C 0.05967 0.34121 0.33996 0.0
C718 C 0.059 0.36187 0.3475 0.0
C719 C 0.07394 0.34825 0.34343 0.0
C720 C 0.03592 0.31743 0.31276 0.0
N721 N 0.02822 0.3107 0.32466 0.0
C722 C 0.02893 0.29012 0.31811 0.0
C723 C 0.02459 0.29727 0.32743 0.0
C724 C 0.03732 0.29694 0.30595 0.0
C725 C 0.04068 0.31078 0.30329 0.0
H726 H 0.0387 0.32815 0.31087 0.0
H727 H 0.01844 0.29215 0.33696 0.0
C728 C 0.04593 0.35588 0.38256 0.0
N729 N 0.04465 0.3447 0.37484 0.0
C730 C 0.05711 0.36331 0.39233 0.0
C731 C 0.06499 0.34705 0.38672 0.0
C732 C 0.05368 0.33997 0.37699 0.0
C733 C 0.06698 0.35908 0.39428 0.0
H734 H 0.03847 0.35926 0.38084 0.0
H735 H 0.05236 0.331 0.37072 0.0
C736 C 0.00355 0.31554 0.31891 0.0
N737 N 0.9988 0.30187 0.29204 0.0
C738 C 0.00847 0.32322 0.30607 0.0
C739 C 0.99616 0.30091 0.3181 0.0
C740 C 0.00596 0.31611 0.29258 0.0
C741 C 0.99389 0.2942 0.30441 0.0
C742 C 0.01164 0.35052 0.36047 0.0
C743 C 0.9974 0.34614 0.35991 0.0
C744 C 0.02152 0.36485 0.36073 0.0
C745 C 0.9933 0.35615 0.35964 0.0
C746 C 0.01699 0.37453 0.36039 0.0
N747 N 0.00309 0.37002 0.35987 0.0
C748 C 0.98807 0.31272 0.37744 0.0
C749 C 0.97663 0.30153 0.35504 0.0
C750 C 0.9754 0.30636 0.38481 0.0
N751 N 0.98845 0.31031 0.36282 0.0
C752 C 0.96368 0.29493 0.36199 0.0
C753 C 0.96294 0.29752 0.37704 0.0
H754 H 0.99763 0.31989 0.3833 0.0
H755 H 0.9772 0.29997 0.34337 0.0
C756 C 0.03312 0.36781 0.32537 0.0
N757 N 0.02062 0.35616 0.32799 0.0
C758 C 0.03363 0.37953 0.31933 0.0
C759 C 0.00839 0.36671 0.31766 0.0
C760 C 0.00836 0.35526 0.32399 0.0
C761 C 0.02115 0.37913 0.31565 0.0
H762 H 0.04269 0.36814 0.32832 0.0
H763 H 0.99856 0.34583 0.32616 0.0
O764 O 0.02084 0.31571 0.3584 0.0
O765 O 0.03809 0.3413 0.33885 0.0
O766 O 0.00624 0.32231 0.33225 0.0
O767 O 0.01589 0.34087 0.36036 0.0
H768 H 0.02518 0.31905 0.38719 0.0
H769 H 1.00014 0.28989 0.35273 0.0
H770 H 0.01177 0.30076 0.40546 0.0
H771 H 0.98718 0.2721 0.37161 0.0
H772 H 0.07865 0.37911 0.3553 0.0
H773 H 0.05456 0.33049 0.33602 0.0
H774 H 0.05331 0.36724 0.34959 0.0
H775 H 0.07987 0.34302 0.34197 0.0
H776 H 0.02579 0.27938 0.32047 0.0
H777 H 0.04729 0.31661 0.29426 0.0
H778 H 0.05811 0.37237 0.39818 0.0
H779 H 0.0724 0.34347 0.38788 0.0
H780 H 0.0143 0.33455 0.30652 0.0
H781 H 0.99242 0.29482 0.32796 0.0
H782 H 0.00976 0.32192 0.28256 0.0
H783 H 0.98828 0.28288 0.30362 0.0
H784 H 0.98958 0.33513 0.35949 0.0
H785 H 0.03258 0.36847 0.36081 0.0
H786 H 0.98232 0.35289 0.35916 0.0
H787 H 0.02453 0.38563 0.36044 0.0
H788 H 0.97534 0.30852 0.39644 0.0
H789 H 0.95431 0.28833 0.35554 0.0
H790 H 0.04367 0.38888 0.31769 0.0
H791 H 0.99857 0.36607 0.31491 0.0
Li792 Li 0.67891 0.98753 0.3491 0.0
Li793 Li 0.66327 0.96362 0.35582 0.0
Li794 Li 0.67695 0.96957 0.33303 0.0
Li795 Li 0.65756 0.97393 0.33435 0.0
C796 C 0.69493 0.97934 0.36309 0.0
N797 N 0.71752 0.99228 0.38226 0.0
C798 C 0.69346 0.97535 0.37777 0.0
C799 C 0.70791 0.98981 0.35812 0.0
C800 C 0.705 0.98205 0.3873 0.0
C801 C 0.7192 0.99626 0.368 0.0
C802 C 0.66048 0.98755 0.36747 0.0
C803 C 0.65938 0.00715 0.37778 0.0
N804 N 0.66432 0.00545 0.39081 0.0
C805 C 0.66554 0.98601 0.38098 0.0
C806 C 0.65734 0.99819 0.36586 0.0
C807 C 0.6674 0.99514 0.39265 0.0
C808 C 0.69157 0.01629 0.34643 0.0
N809 N 0.69063 0.00655 0.356 0.0
C810 C 0.70415 0.02449 0.37394 0.0
C811 C 0.69667 0.01037 0.36961 0.0
C812 C 0.70527 0.03478 0.36425 0.0
C813 C 0.69885 0.03047 0.35033 0.0
H814 H 0.68636 0.01301 0.33585 0.0
H815 H 0.69549 0.0025 0.37725 0.0
C816 C 0.65853 0.93955 0.37029 0.0
N817 N 0.65512 0.94973 0.37044 0.0
C818 C 0.65231 0.92853 0.38012 0.0
C819 C 0.63936 0.93882 0.39021 0.0
C820 C 0.64565 0.94951 0.38002 0.0
C821 C 0.64261 0.9281 0.39025 0.0
H822 H 0.66594 0.93991 0.36238 0.0
H823 H 0.64281 0.9575 0.37961 0.0
C824 C 0.68339 0.98949 0.31467 0.0
N825 N 0.69729 0.99437 0.28838 0.0
C826 C 0.67589 0.98368 0.3016 0.0
C827 C 0.69794 0.99788 0.31439 0.0
C828 C 0.68311 0.98624 0.28841 0.0
C829 C 0.70478 0.0002 0.30098 0.0
C830 C 0.64346 0.94452 0.33597 0.0
C831 C 0.64005 0.93166 0.32947 0.0
C832 C 0.6332 0.94591 0.3434 0.0
C833 C 0.62639 0.92038 0.33044 0.0
C834 C 0.61967 0.93438 0.34414 0.0
N835 N 0.61657 0.92197 0.33769 0.0
C836 C 0.6999 0.9681 0.32121 0.0
C837 C 0.67837 0.95483 0.30832 0.0
C838 C 0.70661 0.96404 0.31103 0.0
N839 N 0.68605 0.96353 0.31963 0.0
C840 C 0.68464 0.95049 0.2979 0.0
C841 C 0.69899 0.95514 0.29914 0.0
H842 H 0.70577 0.97502 0.33027 0.0
H843 H 0.66737 0.95139 0.30733 0.0
C844 C 0.64433 0.98764 0.32339 0.0
N845 N 0.64389 0.97517 0.3228 0.0
C846 C 0.6355 0.98995 0.31444 0.0
C847 C 0.62606 0.96661 0.30416 0.0
C848 C 0.63506 0.96472 0.31338 0.0
C849 C 0.62627 0.97941 0.30454 0.0
H850 H 0.65184 0.99594 0.33054 0.0
H851 H 0.63527 0.95509 0.31267 0.0
O852 O 0.68378 0.97276 0.35358 0.0
O853 O 0.6589 0.97887 0.35583 0.0
O854 O 0.67656 0.98672 0.32774 0.0
O855 O 0.65685 0.95557 0.33531 0.0
H856 H 0.68353 0.96716 0.38177 0.0
H857 H 0.70921 0.99312 0.34684 0.0
H858 H 0.704 0.9791 0.3987 0.0
H859 H 0.72927 0.00446 0.36433 0.0
H860 H 0.65704 0.01546 0.37666 0.0
H861 H 0.66825 0.97799 0.38238 0.0
H862 H 0.65341 0.99957 0.35554 0.0
H863 H 0.67138 0.9941 0.40312 0.0
H864 H 0.70896 0.02729 0.38477 0.0
H865 H 0.69908 0.03793 0.34261 0.0
H866 H 0.65507 0.92045 0.37983 0.0
H867 H 0.63175 0.9387 0.3977 0.0
H868 H 0.66462 0.9771 0.30165 0.0
H869 H 0.70388 0.00245 0.32444 0.0
H870 H 0.67746 0.98173 0.27821 0.0
H871 H 0.71604 0.0066 0.3006 0.0
H872 H 0.6479 0.9304 0.32377 0.0
H873 H 0.63564 0.95576 0.34855 0.0
H874 H 0.6236 0.91037 0.32545 0.0
H875 H 0.61164 0.93531 0.34984 0.0
H876 H 0.71772 0.96807 0.31232 0.0
H877 H 0.67831 0.9435 0.28902 0.0
H878 H 0.63599 0.99996 0.31518 0.0
H879 H 0.61935 0.9583 0.29649 0.0
Li880 Li 0.0299 0.69581 0.35511 0.0
Li881 Li 0.00542 0.68902 0.35073 0.0
Li882 Li 0.01696 0.67983 0.33451 0.0
Li883 Li 0.02331 0.70429 0.33349 0.0
C884 C 0.01266 0.66777 0.3657 0.0
N885 N 0.01162 0.64907 0.38615 0.0
C886 C 0.00603 0.66636 0.37911 0.0
C887 C 0.01852 0.65944 0.36258 0.0
C888 C 0.00569 0.65692 0.38934 0.0
C889 C 0.01795 0.65011 0.37309 0.0
C890 C 0.01716 0.71767 0.35565 0.0
C891 C 0.00133 0.72543 0.34827 0.0
N892 N 0.00817 0.73677 0.35744 0.0
C893 C 0.02403 0.72938 0.365 0.0
C894 C 0.00571 0.71565 0.34721 0.0
C895 C 0.01933 0.73893 0.36576 0.0
C896 C 0.05764 0.70917 0.36602 0.0
N897 N 0.04405 0.70095 0.36988 0.0
C898 C 0.05089 0.70051 0.39472 0.0
C899 C 0.04052 0.69681 0.38397 0.0
C900 C 0.06505 0.7087 0.39098 0.0
C901 C 0.06835 0.71311 0.37641 0.0
H902 H 0.06018 0.71271 0.35485 0.0
H903 H 0.02967 0.6907 0.3869 0.0
C904 C 0.97622 0.67447 0.35314 0.0
N905 N 0.98829 0.68373 0.36023 0.0
C906 C 0.96346 0.66896 0.36032 0.0
C907 C 0.97579 0.68275 0.38192 0.0
C908 C 0.98831 0.68813 0.37426 0.0
C909 C 0.96317 0.67288 0.375 0.0
H910 H 0.97657 0.671 0.34207 0.0
H911 H 0.99812 0.69542 0.37965 0.0
C912 C 0.04598 0.6936 0.33039 0.0
N913 N 0.06603 0.68725 0.32183 0.0
C914 C 0.05321 0.69884 0.3173 0.0
C915 C 0.04906 0.68525 0.33917 0.0
C916 C 0.06327 0.69547 0.31314 0.0
C917 C 0.0592 0.68213 0.33465 0.0
C918 C 0.00222 0.68576 0.31392 0.0
C919 C 0.01322 0.68927 0.30425 0.0
C920 C 0.98869 0.68053 0.30834 0.0
C921 C 0.01049 0.68745 0.28914 0.0
C922 C 0.98637 0.67885 0.29315 0.0
N923 N 0.99723 0.68231 0.28395 0.0
C924 C 0.00256 0.65104 0.32761 0.0
C925 C 0.02124 0.66447 0.31156 0.0
C926 C 0.99918 0.63876 0.31977 0.0
N927 N 0.01348 0.66354 0.32347 0.0
C928 C 0.01824 0.65249 0.30341 0.0
C929 C 0.00709 0.6394 0.30749 0.0
H930 H 0.99644 0.65062 0.33702 0.0
H931 H 0.0296 0.67451 0.30816 0.0
C932 C 0.044 0.72712 0.31868 0.0
N933 N 0.02993 0.71964 0.32048 0.0
C934 C 0.04973 0.73686 0.30751 0.0
C935 C 0.02647 0.73176 0.30088 0.0
C936 C 0.02116 0.722 0.31214 0.0
C937 C 0.0409 0.739 0.29818 0.0
H938 H 0.05072 0.72506 0.32552 0.0
H939 H 0.01 0.71583 0.31372 0.0
O940 O 0.01293 0.67685 0.35549 0.0
O941 O 0.02171 0.70827 0.35482 0.0
O942 O 0.03601 0.69672 0.33454 0.0
O943 O 0.00462 0.68749 0.32877 0.0
H944 H 0.00131 0.6726 0.38166 0.0
H945 H 0.02332 0.66005 0.3521 0.0
H946 H 0.0007 0.65583 0.39981 0.0
H947 H 0.02249 0.64365 0.37083 0.0
H948 H 0.99248 0.724 0.3418 0.0
H949 H 0.03291 0.73108 0.37161 0.0
H950 H 1.00023 0.70664 0.33993 0.0
H951 H 0.02455 0.74805 0.37295 0.0
H952 H 0.04784 0.69683 0.4058 0.0
H953 H 0.07909 0.71969 0.37309 0.0
H954 H 0.954 0.66123 0.35466 0.0
H955 H 0.976 0.68609 0.39321 0.0
H956 H 0.05095 0.70531 0.31033 0.0
H957 H 0.04379 0.68136 0.34946 0.0
H958 H 0.06887 0.69938 0.303 0.0
H959 H 0.06167 0.67567 0.34135 0.0
H960 H 0.02377 0.69344 0.30833 0.0
H961 H 0.98006 0.67782 0.31566 0.0
H962 H 0.01891 0.69014 0.28154 0.0
H963 H 0.97595 0.6748 0.28869 0.0
H964 H 0.99054 0.62889 0.32334 0.0
H965 H 0.02443 0.65351 0.29383 0.0
H966 H 0.06093 0.74236 0.30589 0.0
H967 H 0.01931 0.73303 0.29385 0.0
Li968 Li 0.31453 0.34065 0.35945 0.0
Li969 Li 0.32029 0.32213 0.35265 0.0
Li970 Li 0.33142 0.34417 0.3402 0.0
Li971 Li 0.30754 0.32769 0.33484 0.0
C972 C 0.34567 0.35025 0.36528 0.0
N973 N 0.37329 0.36963 0.37162 0.0
C974 C 0.35604 0.34688 0.36275 0.0
C975 C 0.3493 0.36341 0.37114 0.0
C976 C 0.36997 0.35685 0.36599 0.0
C977 C 0.36334 0.37307 0.37426 0.0
C978 C 0.29431 0.30767 0.36172 0.0
C979 C 0.2845 0.28265 0.36158 0.0
N980 N 0.28071 0.28235 0.37582 0.0
C981 C 0.29028 0.30713 0.37633 0.0
C982 C 0.29136 0.29535 0.35424 0.0
C983 C 0.28343 0.29422 0.38327 0.0
C984 C 0.30009 0.35275 0.37324 0.0
N985 N 0.30894 0.34781 0.37535 0.0
C986 C 0.30887 0.35112 0.40131 0.0
C987 C 0.31343 0.34699 0.38899 0.0
C988 C 0.29961 0.35615 0.39954 0.0
C989 C 0.29535 0.35712 0.38526 0.0
H990 H 0.29656 0.35311 0.36224 0.0
H991 H 0.32038 0.34289 0.39031 0.0
C992 C 0.33069 0.30345 0.35394 0.0
N993 N 0.32433 0.30919 0.36172 0.0
C994 C 0.33612 0.29615 0.36113 0.0
C995 C 0.32819 0.30062 0.38415 0.0
C996 C 0.32291 0.30783 0.37652 0.0
C997 C 0.33519 0.29494 0.37649 0.0
H998 H 0.33227 0.30524 0.34229 0.0
H999 H 0.31829 0.31294 0.38251 0.0
C1000 C 0.32185 0.36158 0.33458 0.0
N1001 N 0.33379 0.38869 0.32473 0.0
C1002 C 0.32401 0.36426 0.31957 0.0
C1003 C 0.32564 0.37267 0.34456 0.0
C1004 C 0.33011 0.37804 0.31482 0.0
C1005 C 0.33168 0.38631 0.33937 0.0
C1006 C 0.32134 0.31961 0.31766 0.0
C1007 C 0.32389 0.32818 0.30557 0.0
C1008 C 0.3161 0.30528 0.31542 0.0
C1009 C 0.32104 0.32225 0.29143 0.0
C1010 C 0.31341 0.29975 0.3011 0.0
N1011 N 0.3159 0.30827 0.28951 0.0
C1012 C 0.35542 0.35144 0.32404 0.0
C1013 C 0.35618 0.3713 0.33508 0.0
C1014 C 0.36874 0.35974 0.31837 0.0
N1015 N 0.34933 0.35728 0.33212 0.0
C1016 C 0.3696 0.38002 0.32966 0.0
C1017 C 0.37604 0.37423 0.32117 0.0
H1018 H 0.35009 0.34024 0.32231 0.0
H1019 H 0.35146 0.37572 0.34198 0.0
C1020 C 0.29012 0.33078 0.31499 0.0
N1021 N 0.29325 0.32116 0.31989 0.0
C1022 C 0.28076 0.32755 0.30329 0.0
C1023 C 0.27748 0.30427 0.30218 0.0
C1024 C 0.28685 0.30794 0.31404 0.0
C1025 C 0.27453 0.31424 0.29647 0.0
H1026 H 0.29502 0.34109 0.32005 0.0
H1027 H 0.28921 0.30033 0.31832 0.0
O1028 O 0.33205 0.34081 0.36177 0.0
O1029 O 0.30124 0.32023 0.35481 0.0
O1030 O 0.31576 0.34814 0.33944 0.0
O1031 O 0.32398 0.32523 0.3316 0.0
H1032 H 0.35337 0.33674 0.35817 0.0
H1033 H 0.34137 0.36618 0.37309 0.0
H1034 H 0.37813 0.35444 0.36399 0.0
H1035 H 0.36633 0.38334 0.37871 0.0
H1036 H 0.28223 0.27304 0.35596 0.0
H1037 H 0.29249 0.31659 0.38226 0.0
H1038 H 0.29451 0.29563 0.34297 0.0
H1039 H 0.28029 0.29364 0.3946 0.0
H1040 H 0.31254 0.35035 0.41211 0.0
H1041 H 0.28812 0.36082 0.38344 0.0
H1042 H 0.3417 0.29221 0.35482 0.0
H1043 H 0.32721 0.29991 0.39598 0.0
H1044 H 0.32096 0.3558 0.31167 0.0
H1045 H 0.3241 0.37082 0.35621 0.0
H1046 H 0.33189 0.38027 0.30324 0.0
H1047 H 0.33473 0.395 0.34697 0.0
H1048 H 0.32805 0.33929 0.30711 0.0
H1049 H 0.31392 0.29845 0.32464 0.0
H1050 H 0.32293 0.32876 0.28198 0.0
H1051 H 0.30927 0.28866 0.29921 0.0
H1052 H 0.37344 0.35477 0.31221 0.0
H1053 H 0.37488 0.39114 0.33214 0.0
H1054 H 0.27851 0.33545 0.29958 0.0
H1055 H 0.27296 0.29389 0.29729 0.0
Li1056 Li 0.3284 0.00651 0.66203 0.0
Li1057 Li 0.35033 0.01904 0.67447 0.0
Li1058 Li 0.33182 0.02261 0.68264 0.0
Li1059 Li 0.34399 0.03226 0.65863 0.0
C1060 C 0.321 0.99453 0.68991 0.0
N1061 N 0.29781 0.9733 0.70335 0.0
C1062 C 0.32212 0.98444 0.69787 0.0
C1063 C 0.30812 0.99387 0.68885 0.0
C1064 C 0.31026 0.97377 0.70457 0.0
C1065 C 0.29651 0.98305 0.69571 0.0
C1066 C 0.3502 0.00713 0.64699 0.0
C1067 C 0.35832 0.99867 0.62703 0.0
N1068 N 0.35583 0.98744 0.63514 0.0
C1069 C 0.34772 0.9955 0.65514 0.0
C1070 C 0.35554 0.00874 0.63283 0.0
C1071 C 0.35063 0.98566 0.64895 0.0
C1072 C 0.31045 0.99125 0.63851 0.0
N1073 N 0.31544 0.9898 0.65161 0.0
C1074 C 0.30256 0.96488 0.64879 0.0
C1075 C 0.3118 0.97696 0.65679 0.0
C1076 C 0.29715 0.96601 0.63523 0.0
C1077 C 0.30122 0.97945 0.63011 0.0
H1078 H 0.31373 0.00161 0.63454 0.0
H1079 H 0.31617 0.97605 0.66704 0.0
C1080 C 0.36583 0.01384 0.69544 0.0
N1081 N 0.36598 0.018 0.68143 0.0
C1082 C 0.37719 0.01313 0.70104 0.0
C1083 C 0.3885 0.02075 0.67758 0.0
C1084 C 0.37703 0.02152 0.67252 0.0
C1085 C 0.38866 0.01652 0.69202 0.0
H1086 H 0.3569 0.01117 0.70229 0.0
H1087 H 0.37695 0.02497 0.66149 0.0
C1088 C 0.31265 0.0231 0.65942 0.0
N1089 N 0.29045 0.02671 0.65231 0.0
C1090 C 0.31487 0.03651 0.65701 0.0
C1091 C 0.29914 0.01151 0.65804 0.0
C1092 C 0.30351 0.03812 0.65349 0.0
C1093 C 0.28806 0.01356 0.65448 0.0
C1094 C 0.36392 0.0442 0.68599 0.0
C1095 C 0.36474 0.04352 0.70125 0.0
C1096 C 0.37614 0.05167 0.67792 0.0
C1097 C 0.37785 0.05025 0.70819 0.0
C1098 C 0.38905 0.05825 0.68527 0.0
N1099 N 0.38963 0.05739 0.70013 0.0
C1100 C 0.32406 0.02171 0.71235 0.0
C1101 C 0.3192 0.036 0.69722 0.0
C1102 C 0.31931 0.02562 0.72469 0.0
N1103 N 0.32391 0.02693 0.69896 0.0
C1104 C 0.31432 0.04016 0.70925 0.0
C1105 C 0.31446 0.03506 0.72325 0.0
H1106 H 0.32815 0.01475 0.71349 0.0
H1107 H 0.31961 0.04036 0.6866 0.0
C1108 C 0.34889 0.04595 0.63113 0.0
N1109 N 0.34974 0.04759 0.64599 0.0
C1110 C 0.35229 0.0574 0.62221 0.0
C1111 C 0.35747 0.07191 0.64411 0.0
C1112 C 0.35411 0.06025 0.65257 0.0
C1113 C 0.35642 0.07053 0.62874 0.0
H1114 H 0.34531 0.03571 0.62623 0.0
H1115 H 0.35464 0.0612 0.66443 0.0
O1116 O 0.33254 0.00496 0.68324 0.0
O1117 O 0.34734 0.01688 0.65273 0.0
O1118 O 0.32371 0.0213 0.66263 0.0
O1119 O 0.35123 0.03732 0.67894 0.0
H1120 H 0.33204 0.98483 0.69879 0.0
H1121 H 0.30713 0.0017 0.68295 0.0
H1122 H 0.31096 0.96587 0.71072 0.0
H1123 H 0.28648 0.98243 0.69499 0.0
H1124 H 0.36246 0.99979 0.61608 0.0
H1125 H 0.3436 0.99406 0.66612 0.0
H1126 H 0.35749 0.01768 0.62639 0.0
H1127 H 0.34876 0.97661 0.65512 0.0
H1128 H 0.29965 0.95476 0.65324 0.0
H1129 H 0.29754 0.98085 0.6196 0.0
H1130 H 0.37692 0.00978 0.71221 0.0
H1131 H 0.39725 0.02362 0.67037 0.0
H1132 H 0.32523 0.0456 0.658 0.0
H1133 H 0.2972 0.00102 0.65962 0.0
H1134 H 0.30508 0.04845 0.65169 0.0
H1135 H 0.27755 0.00469 0.65341 0.0
H1136 H 0.35537 0.03773 0.70762 0.0
H1137 H 0.37565 0.05222 0.66608 0.0
H1138 H 0.37867 0.04974 0.71999 0.0
H1139 H 0.39861 0.06399 0.67917 0.0
H1140 H 0.31955 0.02139 0.73527 0.0
H1141 H 0.31095 0.04768 0.70769 0.0
H1142 H 0.35129 0.05593 0.61038 0.0
H1143 H 0.36078 0.08188 0.64956 0.0
Li1144 Li 0.00033 0.3168 0.67115 0.0
Li1145 Li 0.98675 0.32419 0.68507 0.0
Li1146 Li 0.98167 0.30004 0.68799 0.0
Li1147 Li 0.97521 0.30745 0.66578 0.0
C1148 C 0.00869 0.32895 0.70161 0.0
N1149 N 0.02675 0.3517 0.7191 0.0
C1150 C 0.01866 0.34143 0.69522 0.0
C1151 C 0.00787 0.32806 0.71691 0.0
C1152 C 0.02769 0.35281 0.70424 0.0
C1153 C 0.01711 0.33967 0.72556 0.0
C1154 C 0.99491 0.34004 0.66004 0.0
C1155 C 0.9893 0.35812 0.65596 0.0
N1156 N 0.00287 0.36715 0.65261 0.0
C1157 C 0.00879 0.34948 0.65646 0.0
C1158 C 0.98505 0.34435 0.65969 0.0
C1159 C 0.01261 0.36315 0.65276 0.0
C1160 C 0.01661 0.31937 0.64709 0.0
N1161 N 0.01735 0.32117 0.66193 0.0
C1162 C 0.04163 0.32844 0.66207 0.0
C1163 C 0.02947 0.32543 0.66954 0.0
C1164 C 0.04114 0.32665 0.64674 0.0
C1165 C 0.02843 0.32198 0.63923 0.0
H1166 H 0.00677 0.31583 0.64139 0.0
H1167 H 0.02969 0.32639 0.68137 0.0
C1168 C 0.9779 0.33526 0.70738 0.0
N1169 N 0.98725 0.33923 0.6963 0.0
C1170 C 0.97754 0.34527 0.71654 0.0
C1171 C 0.99649 0.36337 0.7028 0.0
C1172 C 0.99659 0.35299 0.69401 0.0
C1173 C 0.98688 0.35958 0.71429 0.0
H1174 H 0.97081 0.32425 0.70922 0.0
H1175 H 0.00425 0.35598 0.68548 0.0
C1176 C 0.99107 0.2887 0.66615 0.0
N1177 N 0.00326 0.27237 0.66354 0.0
C1178 C 0.98793 0.27968 0.65402 0.0
C1179 C 0.00042 0.28945 0.67695 0.0
C1180 C 0.99419 0.2715 0.65291 0.0
C1181 C 0.00647 0.2811 0.67543 0.0
C1182 C 0.95481 0.30256 0.68313 0.0
C1183 C 0.94486 0.28828 0.68254 0.0
C1184 C 0.95074 0.31237 0.68042 0.0
C1185 C 0.93098 0.28404 0.67905 0.0
C1186 C 0.93676 0.30772 0.67697 0.0
N1187 N 0.92726 0.29377 0.67634 0.0
C1188 C 0.97624 0.28518 0.71499 0.0
C1189 C 0.9668 0.27149 0.6932 0.0
C1190 C 0.96914 0.27324 0.72357 0.0
N1191 N 0.97479 0.28409 0.70011 0.0
C1192 C 0.95948 0.25935 0.70131 0.0
C1193 C 0.96034 0.26018 0.71671 0.0
H1194 H 0.98238 0.29534 0.72023 0.0
H1195 H 0.96561 0.27096 0.68137 0.0
C1196 C 0.95869 0.30821 0.64182 0.0
N1197 N 0.96156 0.30006 0.65048 0.0
C1198 C 0.9491 0.3022 0.63016 0.0
C1199 C 0.94553 0.27955 0.63673 0.0
C1200 C 0.95512 0.28598 0.64825 0.0
C1201 C 0.94256 0.28771 0.62737 0.0
H1202 H 0.96403 0.31939 0.64376 0.0
H1203 H 0.95759 0.27977 0.65536 0.0
O1204 O 0.99969 0.31774 0.69291 0.0
O1205 O 0.99097 0.32659 0.66355 0.0
O1206 O 0.98512 0.29688 0.66727 0.0
O1207 O 0.96851 0.30691 0.68617 0.0
H1208 H 0.0193 0.34239 0.68342 0.0
H1209 H 1.00021 0.31854 0.72207 0.0
H1210 H 0.03542 0.36254 0.69942 0.0
H1211 H 0.01662 0.33911 0.73741 0.0
H1212 H 0.9818 0.36162 0.65575 0.0
H1213 H 0.01653 0.34629 0.65653 0.0
H1214 H 0.97429 0.33721 0.66244 0.0
H1215 H 0.02332 0.37058 0.65001 0.0
H1216 H 0.05124 0.33185 0.66821 0.0
H1217 H 0.02769 0.3205 0.62741 0.0
H1218 H 0.97017 0.3418 0.72546 0.0
H1219 H 0.00385 0.37424 0.70054 0.0
H1220 H 0.98074 0.27903 0.64554 0.0
H1221 H 0.00302 0.29639 0.6864 0.0
H1222 H 0.99185 0.26446 0.64358 0.0
H1223 H 0.01374 0.28157 0.6837 0.0
H1224 H 0.94783 0.28055 0.68461 0.0
H1225 H 0.95829 0.32346 0.68097 0.0
H1226 H 0.92318 0.27302 0.67845 0.0
H1227 H 0.93347 0.3152 0.67479 0.0
H1228 H 0.96995 0.27433 0.73543 0.0
H1229 H 0.95289 0.24946 0.6956 0.0
H1230 H 0.94718 0.30886 0.62312 0.0
H1231 H 0.94057 0.26832 0.6351 0.0
Li1232 Li 0.67958 0.6769 0.6675 0.0
Li1233 Li 0.67002 0.65531 0.67982 0.0
Li1234 Li 0.69405 0.67395 0.68506 0.0
Li1235 Li 0.68776 0.66134 0.66116 0.0
C1236 C 0.66528 0.67472 0.69373 0.0
N1237 N 0.64214 0.67548 0.70354 0.0
C1238 C 0.65363 0.67026 0.68449 0.0
C1239 C 0.66515 0.67953 0.70797 0.0
C1240 C 0.64204 0.67073 0.68965 0.0
C1241 C 0.65336 0.67985 0.71272 0.0
C1242 C 0.66057 0.64525 0.65145 0.0
C1243 C 0.65279 0.62065 0.64897 0.0
N1244 N 0.64443 0.61957 0.63745 0.0
C1245 C 0.65191 0.64389 0.63959 0.0
C1246 C 0.66102 0.63353 0.6562 0.0
C1247 C 0.64383 0.63083 0.63266 0.0
C1248 C 0.67542 0.69026 0.64395 0.0
N1249 N 0.67575 0.69023 0.65887 0.0
C1250 C 0.67132 0.7092 0.66021 0.0
C1251 C 0.67393 0.69954 0.66707 0.0
C1252 C 0.67098 0.70948 0.64482 0.0
C1253 C 0.67316 0.69995 0.63664 0.0
H1254 H 0.67707 0.68283 0.63774 0.0
H1255 H 0.67464 0.6996 0.67891 0.0
C1256 C 0.65633 0.63777 0.70306 0.0
N1257 N 0.65407 0.64112 0.68943 0.0
C1258 C 0.64508 0.62887 0.71178 0.0
C1259 C 0.62935 0.62683 0.69217 0.0
C1260 C 0.64093 0.63576 0.6838 0.0
C1261 C 0.63135 0.62345 0.70645 0.0
H1262 H 0.6669 0.64246 0.70734 0.0
H1263 H 0.6394 0.63881 0.67304 0.0
C1264 C 0.70559 0.69581 0.66282 0.0
N1265 N 0.71697 0.72405 0.65776 0.0
C1266 C 0.71099 0.70121 0.64905 0.0
C1267 C 0.70604 0.7048 0.67404 0.0
C1268 C 0.71668 0.71552 0.64671 0.0
C1269 C 0.71183 0.71904 0.67126 0.0
C1270 C 0.69702 0.65068 0.68456 0.0
C1271 C 0.71046 0.65874 0.67895 0.0
C1272 C 0.69416 0.63987 0.6942 0.0
C1273 C 0.72084 0.6558 0.68304 0.0
C1274 C 0.70483 0.63726 0.69802 0.0
N1275 N 0.71783 0.64521 0.69241 0.0
C1276 C 0.7051 0.67464 0.71292 0.0
C1277 C 0.72156 0.69119 0.69655 0.0
C1278 C 0.71567 0.67767 0.72321 0.0
N1279 N 0.70825 0.68123 0.69982 0.0
C1280 C 0.73241 0.69471 0.70662 0.0
C1281 C 0.72955 0.68767 0.71998 0.0
H1282 H 0.69446 0.66653 0.71504 0.0
H1283 H 0.72388 0.69589 0.68586 0.0
C1284 C 0.69949 0.66252 0.63373 0.0
N1285 N 0.69459 0.65454 0.64586 0.0
C1286 C 0.70672 0.65956 0.62313 0.0
C1287 C 0.70274 0.63951 0.63712 0.0
C1288 C 0.69561 0.6429 0.64748 0.0
C1289 C 0.7088 0.64818 0.625 0.0
H1290 H 0.69813 0.67144 0.63252 0.0
H1291 H 0.69141 0.63656 0.65711 0.0
O1292 O 0.67667 0.67411 0.68907 0.0
O1293 O 0.66848 0.65803 0.65828 0.0
O1294 O 0.69953 0.68176 0.66527 0.0
O1295 O 0.6868 0.65366 0.68113 0.0
H1296 H 0.65351 0.66646 0.67345 0.0
H1297 H 0.67406 0.68294 0.71527 0.0
H1298 H 0.63296 0.66731 0.68262 0.0
H1299 H 0.65311 0.68355 0.72371 0.0
H1300 H 0.65303 0.6115 0.65254 0.0
H1301 H 0.65144 0.65287 0.63579 0.0
H1302 H 0.66757 0.6343 0.66539 0.0
H1303 H 0.63707 0.62963 0.62347 0.0
H1304 H 0.66985 0.71654 0.66684 0.0
H1305 H 0.67295 0.69989 0.62474 0.0
H1306 H 0.64711 0.62674 0.72281 0.0
H1307 H 0.61895 0.6228 0.68759 0.0
H1308 H 0.71079 0.69448 0.64024 0.0
H1309 H 0.70178 0.70078 0.68472 0.0
H1310 H 0.72086 0.71983 0.63609 0.0
H1311 H 0.71217 0.72608 0.67982 0.0
H1312 H 0.71289 0.66724 0.67159 0.0
H1313 H 0.68383 0.63361 0.69872 0.0
H1314 H 0.73129 0.66196 0.6788 0.0
H1315 H 0.70278 0.62893 0.70547 0.0
H1316 H 0.7131 0.67201 0.7334 0.0
H1317 H 0.74303 0.7023 0.70365 0.0
H1318 H 0.71097 0.66632 0.61378 0.0
H1319 H 0.7041 0.63064 0.63898 0.0
Li1320 Li 0.34897 0.3318 0.69118 0.0
Li1321 Li 0.33007 0.30688 0.69461 0.0
Li1322 Li 0.34465 0.31514 0.67155 0.0
Li1323 Li 0.32769 0.3219 0.67678 0.0
C1324 C 0.36222 0.31979 0.70108 0.0
N1325 N 0.3854 0.33081 0.71945 0.0
C1326 C 0.36073 0.31625 0.71589 0.0
C1327 C 0.3755 0.32884 0.69557 0.0
C1328 C 0.37258 0.32195 0.72501 0.0
C1329 C 0.38709 0.33433 0.70504 0.0
C1330 C 0.32012 0.3276 0.70228 0.0
C1331 C 0.29615 0.32101 0.70653 0.0
N1332 N 0.30018 0.33475 0.70848 0.0
C1333 C 0.32405 0.34165 0.70443 0.0
C1334 C 0.30609 0.31718 0.70341 0.0
C1335 C 0.3138 0.34505 0.70752 0.0
C1336 C 0.36937 0.36036 0.69402 0.0
N1337 N 0.36176 0.34842 0.70164 0.0
C1338 C 0.36891 0.36122 0.72445 0.0
C1339 C 0.36151 0.34857 0.71657 0.0
C1340 C 0.37645 0.37383 0.71686 0.0
C1341 C 0.37687 0.37323 0.70143 0.0
H1342 H 0.36903 0.35999 0.68216 0.0
H1343 H 0.35505 0.33895 0.72232 0.0
C1344 C 0.31831 0.27932 0.70566 0.0
N1345 N 0.32176 0.29273 0.70881 0.0
C1346 C 0.31343 0.26936 0.71673 0.0
C1347 C 0.31568 0.28726 0.73394 0.0
C1348 C 0.32039 0.2968 0.72254 0.0
C1349 C 0.31232 0.27338 0.73115 0.0
H1350 H 0.31965 0.27644 0.69464 0.0
H1351 H 0.32334 0.30759 0.72472 0.0
C1352 C 0.35313 0.33866 0.65691 0.0
N1353 N 0.36563 0.34782 0.62999 0.0
C1354 C 0.34512 0.3379 0.64466 0.0
C1355 C 0.36751 0.34414 0.65548 0.0
C1356 C 0.35164 0.34259 0.63114 0.0
C1357 C 0.37363 0.34869 0.64177 0.0
C1358 C 0.31129 0.29499 0.66672 0.0
C1359 C 0.31007 0.29628 0.65161 0.0
C1360 C 0.29948 0.28588 0.67469 0.0
C1361 C 0.29699 0.28846 0.64473 0.0
C1362 C 0.28659 0.27823 0.6674 0.0
N1363 N 0.28562 0.27967 0.6527 0.0
C1364 C 0.36227 0.30539 0.66121 0.0
C1365 C 0.34983 0.30921 0.64243 0.0
C1366 C 0.36864 0.30109 0.65083 0.0
N1367 N 0.35312 0.30942 0.65686 0.0
C1368 C 0.35609 0.3052 0.63167 0.0
C1369 C 0.36564 0.30102 0.63579 0.0
H1370 H 0.36454 0.3054 0.67277 0.0
H1371 H 0.3424 0.31225 0.6392 0.0
C1372 C 0.32231 0.34225 0.66822 0.0
N1373 N 0.31558 0.32807 0.66913 0.0
C1374 C 0.31519 0.3489 0.66365 0.0
C1375 C 0.29423 0.32625 0.66078 0.0
C1376 C 0.30172 0.32002 0.66574 0.0
C1377 C 0.301 0.34088 0.65981 0.0
H1378 H 0.33325 0.34844 0.67129 0.0
H1379 H 0.29636 0.30885 0.6671 0.0
O1380 O 0.35073 0.31457 0.69204 0.0
O1381 O 0.32993 0.32409 0.69875 0.0
O1382 O 0.34696 0.33412 0.67025 0.0
O1383 O 0.32404 0.30233 0.67361 0.0
H1384 H 0.35053 0.30924 0.72032 0.0
H1385 H 0.37682 0.33165 0.68412 0.0
H1386 H 0.37158 0.31935 0.73652 0.0
H1387 H 0.39743 0.34141 0.70095 0.0
H1388 H 0.28524 0.31307 0.70734 0.0
H1389 H 0.33488 0.34983 0.70354 0.0
H1390 H 0.30291 0.30627 0.70173 0.0
H1391 H 0.31665 0.35588 0.7091 0.0
H1392 H 0.36837 0.36116 0.73632 0.0
H1393 H 0.38226 0.38266 0.69508 0.0
H1394 H 0.31103 0.25879 0.71417 0.0
H1395 H 0.31481 0.29073 0.74486 0.0
H1396 H 0.33396 0.33355 0.64549 0.0
H1397 H 0.37387 0.34482 0.66484 0.0
H1398 H 0.34556 0.34199 0.62155 0.0
H1399 H 0.38473 0.3529 0.6405 0.0
H1400 H 0.31907 0.30335 0.6453 0.0
H1401 H 0.30023 0.28475 0.68639 0.0
H1402 H 0.29588 0.2894 0.63306 0.0
H1403 H 0.27735 0.27116 0.67344 0.0
H1404 H 0.3757 0.2977 0.6546 0.0
H1405 H 0.35357 0.30555 0.62025 0.0
H1406 H 0.32075 0.36021 0.66301 0.0
H1407 H 0.28322 0.31978 0.65807 0.0
Li1408 Li 0.68146 0.02409 0.67331 0.0
Li1409 Li 0.70388 0.02802 0.67726 0.0
Li1410 Li 0.69827 0.03413 0.65347 0.0
Li1411 Li 0.68829 0.00836 0.66133 0.0
C1412 C 0.69511 0.05159 0.67782 0.0
N1413 N 0.68687 0.06991 0.68794 0.0
C1414 C 0.69318 0.05269 0.69284 0.0
C1415 C 0.69296 0.0599 0.66795 0.0
C1416 C 0.68897 0.06198 0.69773 0.0
C1417 C 0.68878 0.06908 0.67329 0.0
C1418 C 0.68934 0.00728 0.69543 0.0
C1419 C 0.69567 0.99299 0.7095 0.0
N1420 N 0.69634 0.00034 0.72188 0.0
C1421 C 0.69 0.01463 0.70832 0.0
C1422 C 0.69215 0.99634 0.69602 0.0
C1423 C 0.69361 0.011 0.72157 0.0
C1424 C 0.65925 0.01498 0.69333 0.0
N1425 N 0.66554 0.02378 0.68199 0.0
C1426 C 0.64932 0.03192 0.68358 0.0
C1427 C 0.66065 0.03201 0.6769 0.0
C1428 C 0.64282 0.02317 0.69553 0.0
C1429 C 0.64785 0.01452 0.70031 0.0
H1430 H 0.66308 0.00829 0.69699 0.0
H1431 H 0.66554 0.03865 0.66764 0.0
C1432 C 0.72377 0.04825 0.69657 0.0
N1433 N 0.71884 0.03488 0.6917 0.0
C1434 C 0.73309 0.05368 0.70845 0.0
C1435 C 0.73299 0.03187 0.70954 0.0
C1436 C 0.72367 0.02686 0.69756 0.0
C1437 C 0.73746 0.04531 0.71542 0.0
H1438 H 0.72019 0.05463 0.6915 0.0
H1439 H 0.7199 0.01638 0.69335 0.0
C1440 C 0.66545 0.01416 0.64918 0.0
N1441 N 0.63802 0.00676 0.64378 0.0
C1442 C 0.65456 0.00143 0.65415 0.0
C1443 C 0.66242 0.0231 0.64137 0.0
C1444 C 0.64075 0.99789 0.65134 0.0
C1445 C 0.64848 0.01917 0.63877 0.0
C1446 C 0.72032 0.02384 0.65967 0.0
C1447 C 0.73272 0.03679 0.65967 0.0
C1448 C 0.72071 0.01167 0.66241 0.0
C1449 C 0.74537 0.03735 0.66259 0.0
C1450 C 0.73358 0.01267 0.66524 0.0
N1451 N 0.74553 0.02539 0.66529 0.0
C1452 C 0.71549 0.05945 0.63882 0.0
C1453 C 0.69864 0.0408 0.62378 0.0
C1454 C 0.72024 0.06833 0.62681 0.0
N1455 N 0.70479 0.04603 0.6371 0.0
C1456 C 0.70312 0.04927 0.61146 0.0
C1457 C 0.71403 0.06325 0.61289 0.0
H1458 H 0.72025 0.06327 0.64956 0.0
H1459 H 0.6902 0.03005 0.62276 0.0
C1460 C 0.67238 0.9787 0.66114 0.0
N1461 N 0.68139 0.99009 0.65336 0.0
C1462 C 0.66594 0.96536 0.65459 0.0
C1463 C 0.67811 0.97574 0.63212 0.0
C1464 C 0.68446 0.98886 0.63917 0.0
C1465 C 0.6686 0.9638 0.63981 0.0
H1466 H 0.66978 0.98003 0.67225 0.0
H1467 H 0.69148 0.99816 0.6332 0.0
O1468 O 0.69925 0.04256 0.67282 0.0
O1469 O 0.68584 0.01071 0.68235 0.0
O1470 O 0.67901 0.01795 0.65211 0.0
O1471 O 0.70783 0.02307 0.65705 0.0
H1472 H 0.69488 0.04641 0.70063 0.0
H1473 H 0.69428 0.05912 0.65629 0.0
H1474 H 0.68737 0.06288 0.70932 0.0
H1475 H 0.68698 0.0755 0.66577 0.0
H1476 H 0.69796 0.98461 0.7101 0.0
H1477 H 0.68783 0.0231 0.70807 0.0
H1478 H 0.69186 0.99065 0.68615 0.0
H1479 H 0.69424 0.01665 0.7316 0.0
H1480 H 0.64559 0.03853 0.67931 0.0
H1481 H 0.64318 0.00763 0.7095 0.0
H1482 H 0.73657 0.06424 0.71236 0.0
H1483 H 0.73612 0.02506 0.71455 0.0
H1484 H 0.65675 0.99444 0.66028 0.0
H1485 H 0.67075 0.03304 0.63754 0.0
H1486 H 0.63221 0.98811 0.65521 0.0
H1487 H 0.64596 0.02601 0.63283 0.0
H1488 H 0.73255 0.04629 0.65758 0.0
H1489 H 0.71117 0.00157 0.66246 0.0
H1490 H 0.75506 0.0473 0.66271 0.0
H1491 H 0.73405 0.00335 0.66745 0.0
H1492 H 0.72877 0.079 0.62834 0.0
H1493 H 0.69795 0.04498 0.60097 0.0
H1494 H 0.65848 0.95644 0.66081 0.0
H1495 H 0.68044 0.97496 0.62073 0.0
Li1496 Li 0.97428 0.67599 0.68918 0.0
Li1497 Li 0.97829 0.65662 0.68364 0.0
Li1498 Li 0.99214 0.6797 0.67095 0.0
Li1499 Li 0.96772 0.66383 0.66422 0.0
C1500 C 0.9991 0.68344 0.70402 0.0
N1501 N 0.0137 0.69974 0.72825 0.0
C1502 C 0.00038 0.67718 0.7167 0.0
C1503 C 0.00545 0.69801 0.7036 0.0
C1504 C 0.00774 0.68559 0.72886 0.0
C1505 C 0.01273 0.70606 0.71597 0.0
C1506 C 0.94961 0.6436 0.68872 0.0
C1507 C 0.93197 0.61945 0.68411 0.0
N1508 N 0.9283 0.61821 0.69848 0.0
C1509 C 0.9455 0.64214 0.70338 0.0
C1510 C 0.94265 0.63221 0.67895 0.0
C1511 C 0.93478 0.6292 0.70813 0.0
C1512 C 0.96286 0.69156 0.70264 0.0
N1513 N 0.96852 0.68334 0.70493 0.0
C1514 C 0.9641 0.68273 0.73064 0.0
C1515 C 0.96924 0.67895 0.71859 0.0
C1516 C 0.95794 0.69098 0.72865 0.0
C1517 C 0.95755 0.6956 0.71444 0.0
H1518 H 0.96212 0.69466 0.69161 0.0
H1519 H 0.97339 0.67208 0.72006 0.0
C1520 C 0.98644 0.63616 0.68646 0.0
N1521 N 0.97964 0.64208 0.69303 0.0
C1522 C 0.98895 0.6268 0.69413 0.0
C1523 C 0.97753 0.62988 0.71519 0.0
C1524 C 0.97513 0.63907 0.70708 0.0
C1525 C 0.98469 0.62376 0.70878 0.0
H1526 H 0.99043 0.63913 0.67549 0.0
H1527 H 0.97027 0.64434 0.71225 0.0
C1528 C 0.98257 0.69739 0.66378 0.0
N1529 N 0.99411 0.72399 0.65256 0.0
C1530 C 0.98226 0.69921 0.64865 0.0
C1531 C 0.98848 0.7091 0.67322 0.0
C1532 C 0.98823 0.71274 0.64318 0.0
C1533 C 0.99433 0.72246 0.66734 0.0
C1534 C 0.98119 0.65078 0.65166 0.0
C1535 C 0.98877 0.65502 0.63866 0.0
C1536 C 0.97124 0.63665 0.65344 0.0
C1537 C 0.98603 0.64512 0.62752 0.0
C1538 C 0.96881 0.62706 0.64207 0.0
N1539 N 0.97618 0.63145 0.62943 0.0
C1540 C 0.02185 0.69684 0.67052 0.0
C1541 C 0.01016 0.69418 0.64782 0.0
C1542 C 0.03483 0.70419 0.66374 0.0
N1543 N 0.00986 0.69196 0.66249 0.0
C1544 C 0.0229 0.70138 0.64058 0.0
C1545 C 0.03545 0.7063 0.64852 0.0
H1546 H 0.02137 0.6945 0.68205 0.0
H1547 H 0.0005 0.68982 0.64159 0.0
C1548 C 0.94108 0.65244 0.64985 0.0
N1549 N 0.95508 0.65828 0.64793 0.0
C1550 C 0.93212 0.64909 0.63769 0.0
C1551 C 0.95219 0.65807 0.6219 0.0
C1552 C 0.96072 0.66118 0.63432 0.0
C1553 C 0.93769 0.65202 0.62348 0.0
H1554 H 0.93689 0.65057 0.66082 0.0
H1555 H 0.9719 0.66619 0.63311 0.0
O1556 O 0.99177 0.67534 0.69207 0.0
O1557 O 0.96007 0.65624 0.68387 0.0
O1558 O 0.97679 0.68421 0.66933 0.0
O1559 O 0.98366 0.66037 0.66265 0.0
H1560 H 0.99568 0.66594 0.71719 0.0
H1561 H 0.00491 0.70304 0.69376 0.0
H1562 H 0.00872 0.68087 0.73877 0.0
H1563 H 0.01767 0.71735 0.71579 0.0
H1564 H 0.92654 0.61054 0.67666 0.0
H1565 H 0.95058 0.65087 0.71107 0.0
H1566 H 0.94533 0.63322 0.66747 0.0
H1567 H 0.93159 0.62791 0.71949 0.0
H1568 H 0.96481 0.67907 0.7414 0.0
H1569 H 0.95276 0.70186 0.71239 0.0
H1570 H 0.99476 0.62253 0.68888 0.0
H1571 H 0.9741 0.62783 0.72648 0.0
H1572 H 0.97754 0.69028 0.64119 0.0
H1573 H 0.98843 0.70791 0.68498 0.0
H1574 H 0.98817 0.71429 0.63148 0.0
H1575 H 0.99899 0.73161 0.67453 0.0
H1576 H 0.99664 0.66586 0.63713 0.0
H1577 H 0.96563 0.6331 0.6636 0.0
H1578 H 0.99176 0.64829 0.61736 0.0
H1579 H 0.96112 0.6161 0.64332 0.0
H1580 H 0.04425 0.70757 0.67022 0.0
H1581 H 0.02291 0.70279 0.62883 0.0
H1582 H 0.92102 0.64459 0.6394 0.0
H1583 H 0.95693 0.66039 0.61116 0.0
C1584 C 0.20497 0.27428 0.08946 0.0
C1585 C 0.20458 0.2873 0.0846 0.0
C1586 C 0.19396 0.2939 0.1045 0.0
C1587 C 0.19628 0.3048 0.11417 0.0
C1588 C 0.18539 0.30421 0.12249 0.0
C1589 C 0.17189 0.29216 0.12146 0.0
C1590 C 0.16948 0.28099 0.11182 0.0
C1591 C 0.18048 0.28204 0.10331 0.0
C1592 C 0.18832 0.3165 0.13235 0.0
C1593 C 0.15526 0.26793 0.11044 0.0
C1594 C 0.07632 0.28062 0.0959 0.0
C1595 C 0.08985 0.2906 0.08788 0.0
C1596 C 0.10902 0.29761 0.10584 0.0
C1597 C 0.108 0.28443 0.10664 0.0
C1598 C 0.11757 0.28263 0.11506 0.0
C1599 C 0.12852 0.29424 0.12272 0.0
C1600 C 0.12958 0.30749 0.12201 0.0
C1601 C 0.11973 0.30896 0.11367 0.0
C1602 C 0.11603 0.26831 0.11573 0.0
C1603 C 0.14116 0.32009 0.13 0.0
C1604 C 0.09887 0.27586 0.21663 0.0
C1605 C 0.09856 0.26404 0.21029 0.0
C1606 C 0.10992 0.26539 0.20222 0.0
C1607 C 0.12189 0.27878 0.20056 0.0
C1608 C 0.12231 0.29067 0.20702 0.0
C1609 C 0.11074 0.28905 0.21489 0.0
C1610 C 0.10907 0.2525 0.19533 0.0
C1611 C 0.13494 0.30509 0.20551 0.0
C1612 C 0.21194 0.26345 0.20686 0.0
C1613 C 0.20893 0.27482 0.21219 0.0
C1614 C 0.18551 0.27142 0.21183 0.0
C1615 C 0.17201 0.26032 0.20894 0.0
C1616 C 0.16188 0.26261 0.2024 0.0
C1617 C 0.16527 0.27644 0.19916 0.0
C1618 C 0.17868 0.28782 0.20301 0.0
C1619 C 0.18872 0.28517 0.20915 0.0
C1620 C 0.14767 0.25021 0.19865 0.0
C1621 C 0.18252 0.30276 0.20035 0.0
C1622 C 0.16029 0.29122 0.13041 0.0
C1623 C 0.1504 0.29353 0.12347 0.0
C1624 C 0.13905 0.29253 0.13113 0.0
C1625 C 0.13763 0.28944 0.14627 0.0
C1626 C 0.12638 0.28842 0.15433 0.0
C1627 C 0.1251 0.28542 0.16923 0.0
C1628 C 0.13502 0.28332 0.17665 0.0
C1629 C 0.13385 0.28031 0.19181 0.0
C1630 C 0.14392 0.27832 0.19885 0.0
C1631 C 0.15507 0.27894 0.19109 0.0
C1632 C 0.15628 0.28171 0.17586 0.0
C1633 C 0.16708 0.28196 0.16759 0.0
C1634 C 0.16837 0.28499 0.1527 0.0
C1635 C 0.1589 0.28786 0.14548 0.0
C1636 C 0.14765 0.28719 0.15348 0.0
C1637 C 0.14634 0.28412 0.16869 0.0
C1638 C 0.06499 0.25749 0.21625 0.0
C1639 C 0.076 0.26313 0.22868 0.0
O1640 O 0.20499 0.29523 0.09671 0.0
O1641 O 0.19527 0.26856 0.21701 0.0
O1642 O 0.08801 0.27511 0.22433 0.0
O1643 O 0.09997 0.29984 0.09779 0.0
H1644 H 0.19472 0.28367 0.07819 0.0
H1645 H 0.19521 0.26695 0.09517 0.0
H1646 H 0.21382 0.27714 0.09718 0.0
H1647 H 0.20596 0.26866 0.07975 0.0
H1648 H 0.20669 0.3139 0.11502 0.0
H1649 H 0.17843 0.27347 0.09592 0.0
H1650 H 0.18023 0.31944 0.13067 0.0
H1651 H 0.19877 0.32578 0.13036 0.0
H1652 H 0.18791 0.31353 0.14401 0.0
H1653 H 0.15563 0.25936 0.10434 0.0
H1654 H 0.14808 0.27042 0.10446 0.0
H1655 H 0.15083 0.26413 0.12147 0.0
H1656 H 0.09355 0.28414 0.08218 0.0
H1657 H 0.06788 0.27404 0.08783 0.0
H1658 H 0.07795 0.27353 0.10304 0.0
H1659 H 0.07284 0.28649 0.10298 0.0
H1660 H 0.09977 0.27545 0.1008 0.0
H1661 H 0.12045 0.31907 0.11306 0.0
H1662 H 0.12518 0.26858 0.11054 0.0
H1663 H 0.10639 0.26014 0.11003 0.0
H1664 H 0.1158 0.2653 0.12735 0.0
H1665 H 0.14071 0.32974 0.12812 0.0
H1666 H 0.15145 0.32186 0.12634 0.0
H1667 H 0.14047 0.31814 0.14198 0.0
H1668 H 0.07844 0.25484 0.23141 0.0
H1669 H 0.08949 0.25374 0.2114 0.0
H1670 H 0.11091 0.29812 0.21977 0.0
H1671 H 0.11085 0.25393 0.18332 0.0
H1672 H 0.09881 0.2429 0.19712 0.0
H1673 H 0.11741 0.25095 0.20004 0.0
H1674 H 0.13393 0.31319 0.21183 0.0
H1675 H 0.13642 0.30797 0.19375 0.0
H1676 H 0.14445 0.30512 0.20938 0.0
H1677 H 0.21038 0.28139 0.20245 0.0
H1678 H 0.22294 0.26825 0.20317 0.0
H1679 H 0.20493 0.25757 0.19742 0.0
H1680 H 0.21013 0.25593 0.2157 0.0
H1681 H 0.1696 0.24976 0.21128 0.0
H1682 H 0.19908 0.29381 0.21186 0.0
H1683 H 0.14487 0.25062 0.18701 0.0
H1684 H 0.13971 0.25059 0.20565 0.0
H1685 H 0.14721 0.24008 0.2004 0.0
H1686 H 0.19229 0.31038 0.20629 0.0
H1687 H 0.17395 0.30451 0.20387 0.0
H1688 H 0.18409 0.30487 0.18843 0.0
H1689 H 0.15144 0.29595 0.11187 0.0
H1690 H 0.11845 0.28997 0.14922 0.0
H1691 H 0.11624 0.2848 0.17487 0.0
H1692 H 0.14297 0.27609 0.21049 0.0
H1693 H 0.1747 0.27985 0.17252 0.0
H1694 H 0.17692 0.28506 0.14694 0.0
H1695 H 0.06289 0.26571 0.21235 0.0
H1696 H 0.05507 0.24843 0.22009 0.0
H1697 H 0.06865 0.25389 0.20674 0.0
C1698 C 0.72236 0.90408 0.05471 0.0
C1699 C 0.71197 0.90084 0.06714 0.0
C1700 C 0.7183 0.89795 0.09174 0.0
C1701 C 0.70529 0.88808 0.09733 0.0
C1702 C 0.70433 0.87895 0.10839 0.0
C1703 C 0.71665 0.87955 0.11373 0.0
C1704 C 0.72983 0.88983 0.10837 0.0
C1705 C 0.73048 0.89911 0.09763 0.0
C1706 C 0.69012 0.8684 0.11406 0.0
C1707 C 0.74319 0.89066 0.11352 0.0
C1708 C 0.67365 0.76391 0.10424 0.0
C1709 C 0.67643 0.77756 0.11039 0.0
C1710 C 0.69285 0.80255 0.10918 0.0
C1711 C 0.70673 0.81263 0.10642 0.0
C1712 C 0.71248 0.82647 0.11174 0.0
C1713 C 0.70398 0.83031 0.11974 0.0
C1714 C 0.68972 0.82033 0.12188 0.0
C1715 C 0.68433 0.80655 0.1167 0.0
C1716 C 0.7277 0.83687 0.10919 0.0
C1717 C 0.68022 0.82417 0.12992 0.0
C1718 C 0.72436 0.82242 0.21272 0.0
C1719 C 0.73676 0.83297 0.20644 0.0
C1720 C 0.73684 0.84369 0.19831 0.0
C1721 C 0.72434 0.844 0.19653 0.0
C1722 C 0.71193 0.83364 0.20314 0.0
C1723 C 0.71211 0.82295 0.21108 0.0
C1724 C 0.75026 0.85456 0.19139 0.0
C1725 C 0.69843 0.83371 0.20154 0.0
C1726 C 0.75073 0.95479 0.20682 0.0
C1727 C 0.7405 0.93962 0.21085 0.0
C1728 C 0.74247 0.91905 0.2046 0.0
C1729 C 0.75214 0.91534 0.19991 0.0
C1730 C 0.74776 0.90215 0.19348 0.0
C1731 C 0.7333 0.89233 0.19199 0.0
C1732 C 0.72344 0.89582 0.19724 0.0
C1733 C 0.72812 0.90918 0.20348 0.0
C1734 C 0.75859 0.89876 0.18815 0.0
C1735 C 0.70796 0.88546 0.19614 0.0
C1736 C 0.71561 0.86865 0.12384 0.0
C1737 C 0.71122 0.85534 0.11781 0.0
C1738 C 0.71005 0.84452 0.12649 0.0
C1739 C 0.71376 0.84707 0.14156 0.0
C1740 C 0.7133 0.83657 0.15045 0.0
C1741 C 0.71674 0.83906 0.16532 0.0
C1742 C 0.72066 0.85212 0.17192 0.0
C1743 C 0.72411 0.85471 0.18706 0.0
C1744 C 0.72794 0.86779 0.1933 0.0
C1745 C 0.72856 0.8785 0.18477 0.0
C1746 C 0.72523 0.87613 0.16958 0.0
C1747 C 0.72585 0.88668 0.16063 0.0
C1748 C 0.72262 0.88425 0.14567 0.0
C1749 C 0.71877 0.87122 0.13906 0.0
C1750 C 0.71796 0.8604 0.14791 0.0
C1751 C 0.72125 0.86288 0.16316 0.0
C1752 C 0.7377 0.80269 0.20998 0.0
C1753 C 0.73451 0.80915 0.22339 0.0
O1754 O 0.71927 0.90609 0.0803 0.0
O1755 O 0.74746 0.93218 0.21023 0.0
O1756 O 0.72365 0.81152 0.22021 0.0
O1757 O 0.68807 0.78909 0.10471 0.0
H1758 H 0.7054 0.88919 0.0674 0.0
H1759 H 0.72841 0.89876 0.05671 0.0
H1760 H 0.72984 0.91551 0.05407 0.0
H1761 H 0.71672 0.9002 0.04401 0.0
H1762 H 0.6959 0.88744 0.09291 0.0
H1763 H 0.74047 0.90687 0.09326 0.0
H1764 H 0.68701 0.85788 0.10943 0.0
H1765 H 0.68201 0.87097 0.1109 0.0
H1766 H 0.69042 0.86783 0.12622 0.0
H1767 H 0.75238 0.89826 0.10715 0.0
H1768 H 0.74224 0.88021 0.11254 0.0
H1769 H 0.74513 0.89393 0.12527 0.0
H1770 H 0.67586 0.77806 0.12261 0.0
H1771 H 0.68351 0.76593 0.09857 0.0
H1772 H 0.65408 0.75588 0.09294 0.0
H1773 H 0.67512 0.7584 0.11378 0.0
H1774 H 0.71319 0.80951 0.10049 0.0
H1775 H 0.67347 0.79894 0.11862 0.0
H1776 H 0.72866 0.84581 0.10288 0.0
H1777 H 0.733 0.83216 0.10308 0.0
H1778 H 0.73319 0.84112 0.1199 0.0
H1779 H 0.66906 0.81577 0.12903 0.0
H1780 H 0.68132 0.83397 0.12552 0.0
H1781 H 0.68325 0.82608 0.14173 0.0
H1782 H 0.74415 0.81923 0.22625 0.0
H1783 H 0.74641 0.83289 0.2076 0.0
H1784 H 0.7026 0.81484 0.21598 0.0
H1785 H 0.74873 0.85457 0.17933 0.0
H1786 H 0.75906 0.85271 0.19351 0.0
H1787 H 0.75318 0.8651 0.19578 0.0
H1788 H 0.68993 0.82554 0.20821 0.0
H1789 H 0.69504 0.83189 0.18983 0.0
H1790 H 0.70006 0.84412 0.20492 0.0
H1791 H 0.73187 0.93543 0.20252 0.0
H1792 H 0.74541 0.961 0.20686 0.0
H1793 H 0.75483 0.95512 0.19563 0.0
H1794 H 0.75968 0.95967 0.21473 0.0
H1795 H 0.76319 0.92296 0.20102 0.0
H1796 H 0.72056 0.9118 0.20756 0.0
H1797 H 0.75655 0.89533 0.17642 0.0
H1798 H 0.75787 0.88997 0.19454 0.0
H1799 H 0.76939 0.90785 0.18929 0.0
H1800 H 0.70165 0.88945 0.20152 0.0
H1801 H 0.70558 0.87548 0.20131 0.0
H1802 H 0.70474 0.88311 0.1844 0.0
H1803 H 0.70848 0.85332 0.10622 0.0
H1804 H 0.71033 0.8263 0.146 0.0
H1805 H 0.71623 0.83058 0.17157 0.0
H1806 H 0.73067 0.86974 0.2049 0.0
H1807 H 0.72883 0.89694 0.16508 0.0
H1808 H 0.72319 0.89272 0.13935 0.0
H1809 H 0.72806 0.79346 0.20552 0.0
H1810 H 0.74538 0.79948 0.213 0.0
H1811 H 0.74228 0.81042 0.20108 0.0
C1812 C 0.18998 0.92027 0.07673 0.0
C1813 C 0.19896 0.92065 0.08981 0.0
C1814 C 0.18356 0.89887 0.10285 0.0
C1815 C 0.17429 0.903 0.10826 0.0
C1816 C 0.1626 0.89381 0.11647 0.0
C1817 C 0.16013 0.88026 0.11943 0.0
C1818 C 0.16959 0.87617 0.11433 0.0
C1819 C 0.18117 0.88554 0.10608 0.0
C1820 C 0.15267 0.89847 0.1217 0.0
C1821 C 0.1673 0.86181 0.11735 0.0
C1822 C 0.07989 0.822 0.05413 0.0
C1823 C 0.08363 0.81645 0.06763 0.0
C1824 C 0.09098 0.82858 0.09149 0.0
C1825 C 0.10011 0.82393 0.0957 0.0
C1826 C 0.11013 0.83095 0.10689 0.0
C1827 C 0.11103 0.84286 0.11394 0.0
C1828 C 0.10141 0.84717 0.11015 0.0
C1829 C 0.09136 0.83981 0.09909 0.0
C1830 C 0.12001 0.82589 0.11091 0.0
C1831 C 0.10209 0.85985 0.11738 0.0
C1832 C 0.07929 0.81846 0.20644 0.0
C1833 C 0.08914 0.81464 0.20242 0.0
C1834 C 0.10182 0.82435 0.19599 0.0
C1835 C 0.10471 0.83814 0.19354 0.0
C1836 C 0.09503 0.84215 0.19804 0.0
C1837 C 0.08248 0.83226 0.20456 0.0
C1838 C 0.1121 0.81984 0.19171 0.0
C1839 C 0.09786 0.85681 0.19575 0.0
C1840 C 0.20365 0.92297 0.21676 0.0
C1841 C 0.19543 0.91417 0.22989 0.0
C1842 C 0.17734 0.89242 0.21745 0.0
C1843 C 0.17384 0.87875 0.21371 0.0
C1844 C 0.16239 0.87029 0.20446 0.0
C1845 C 0.15412 0.87563 0.19895 0.0
C1846 C 0.1574 0.88937 0.20292 0.0
C1847 C 0.16903 0.89768 0.21208 0.0
C1848 C 0.15921 0.85569 0.20046 0.0
C1849 C 0.14866 0.89529 0.19737 0.0
C1850 C 0.14714 0.87003 0.12694 0.0
C1851 C 0.13556 0.86122 0.11811 0.0
C1852 C 0.1228 0.85155 0.12424 0.0
C1853 C 0.12147 0.85059 0.13968 0.0
C1854 C 0.1088 0.84096 0.14624 0.0
C1855 C 0.10756 0.84024 0.16146 0.0
C1856 C 0.11897 0.84904 0.17071 0.0
C1857 C 0.11784 0.84834 0.18619 0.0
C1858 C 0.12939 0.85726 0.19504 0.0
C1859 C 0.14217 0.86686 0.18887 0.0
C1860 C 0.14354 0.86768 0.17342 0.0
C1861 C 0.15629 0.87712 0.16684 0.0
C1862 C 0.15751 0.8779 0.15163 0.0
C1863 C 0.14605 0.86924 0.14241 0.0
C1864 C 0.13313 0.85952 0.14879 0.0
C1865 C 0.13187 0.85876 0.16432 0.0
C1866 C 0.04418 0.7907 0.20461 0.0
C1867 C 0.05912 0.79489 0.20916 0.0
O1868 O 0.19473 0.9072 0.09434 0.0
O1869 O 0.18881 0.90004 0.22618 0.0
O1870 O 0.06668 0.80917 0.21216 0.0
O1871 O 0.08176 0.8226 0.08012 0.0
H1872 H 0.19777 0.92673 0.09895 0.0
H1873 H 0.19394 0.93102 0.07261 0.0
H1874 H 0.19007 0.91353 0.06764 0.0
H1875 H 0.17898 0.91603 0.08007 0.0
H1876 H 0.17592 0.91326 0.10599 0.0
H1877 H 0.18835 0.88243 0.10194 0.0
H1878 H 0.14208 0.89141 0.11696 0.0
H1879 H 0.15608 0.90939 0.11857 0.0
H1880 H 0.15182 0.89774 0.13383 0.0
H1881 H 0.17618 0.86062 0.11366 0.0
H1882 H 0.15764 0.85378 0.11158 0.0
H1883 H 0.16579 0.85973 0.1293 0.0
H1884 H 0.09482 0.81951 0.06652 0.0
H1885 H 0.08148 0.81741 0.04391 0.0
H1886 H 0.08671 0.83357 0.05378 0.0
H1887 H 0.06882 0.8194 0.05452 0.0
H1888 H 0.09949 0.81489 0.09021 0.0
H1889 H 0.0841 0.84316 0.09589 0.0
H1890 H 0.12055 0.82518 0.12302 0.0
H1891 H 0.13067 0.83354 0.10713 0.0
H1892 H 0.11682 0.8155 0.10583 0.0
H1893 H 0.09404 0.862 0.11294 0.0
H1894 H 0.11258 0.8692 0.11576 0.0
H1895 H 0.10058 0.85826 0.12939 0.0
H1896 H 0.06343 0.79219 0.19944 0.0
H1897 H 0.08702 0.80414 0.20436 0.0
H1898 H 0.07491 0.83517 0.2079 0.0
H1899 H 0.11349 0.82051 0.17962 0.0
H1900 H 0.10863 0.80896 0.19503 0.0
H1901 H 0.12246 0.82701 0.19689 0.0
H1902 H 0.08912 0.8582 0.19955 0.0
H1903 H 0.0996 0.85935 0.18391 0.0
H1904 H 0.10754 0.86442 0.20181 0.0
H1905 H 0.18756 0.91702 0.23329 0.0
H1906 H 0.20901 0.9343 0.21969 0.0
H1907 H 0.19652 0.92106 0.20731 0.0
H1908 H 0.21159 0.92024 0.2133 0.0
H1909 H 0.18028 0.87477 0.21796 0.0
H1910 H 0.17153 0.90821 0.21495 0.0
H1911 H 0.15893 0.85437 0.18832 0.0
H1912 H 0.14873 0.84793 0.20458 0.0
H1913 H 0.16703 0.85332 0.20513 0.0
H1914 H 0.15203 0.90582 0.20218 0.0
H1915 H 0.1375 0.88813 0.20001 0.0
H1916 H 0.14941 0.89611 0.18523 0.0
H1917 H 0.13646 0.86198 0.10625 0.0
H1918 H 0.09969 0.83391 0.13965 0.0
H1919 H 0.09752 0.83268 0.16588 0.0
H1920 H 0.12846 0.85662 0.2069 0.0
H1921 H 0.16547 0.88405 0.17339 0.0
H1922 H 0.16756 0.88538 0.14717 0.0
H1923 H 0.03772 0.77916 0.20292 0.0
H1924 H 0.04435 0.79577 0.19411 0.0
H1925 H 0.03922 0.79409 0.21301 0.0
C1926 C 0.3079 0.11938 0.95135 0.0
C1927 C 0.29768 0.10547 0.94363 0.0
C1928 C 0.29742 0.11264 0.91865 0.0
C1929 C 0.2837 0.10999 0.91713 0.0
C1930 C 0.28049 0.11755 0.90718 0.0
C1931 C 0.29124 0.128 0.89864 0.0
C1932 C 0.30498 0.1303 0.89975 0.0
C1933 C 0.30784 0.12241 0.90962 0.0
C1934 C 0.26565 0.11457 0.90602 0.0
C1935 C 0.31672 0.14139 0.89087 0.0
C1936 C 0.2698 0.20685 0.92161 0.0
C1937 C 0.2802 0.20421 0.93005 0.0
C1938 C 0.28805 0.19243 0.91266 0.0
C1939 C 0.29958 0.19393 0.90498 0.0
C1940 C 0.29889 0.18271 0.89692 0.0
C1941 C 0.28626 0.16966 0.89644 0.0
C1942 C 0.27445 0.1681 0.90397 0.0
C1943 C 0.27544 0.17949 0.91201 0.0
C1944 C 0.3117 0.18474 0.88902 0.0
C1945 C 0.26079 0.15435 0.90354 0.0
C1946 C 0.26671 0.17708 0.80317 0.0
C1947 C 0.28046 0.18177 0.80782 0.0
C1948 C 0.2839 0.17271 0.81488 0.0
C1949 C 0.27321 0.15882 0.8178 0.0
C1950 C 0.25941 0.15397 0.81264 0.0
C1951 C 0.25641 0.16314 0.80512 0.0
C1952 C 0.29888 0.1781 0.81949 0.0
C1953 C 0.24774 0.13924 0.81538 0.0
C1954 C 0.26929 0.06419 0.80886 0.0
C1955 C 0.27684 0.07381 0.79595 0.0
C1956 C 0.28457 0.09738 0.80638 0.0
C1957 C 0.29631 0.10999 0.81082 0.0
C1958 C 0.29501 0.12087 0.81716 0.0
C1959 C 0.28154 0.11892 0.81948 0.0
C1960 C 0.26958 0.10633 0.81461 0.0
C1961 C 0.27122 0.09575 0.80792 0.0
C1962 C 0.30805 0.13433 0.8217 0.0
C1963 C 0.25506 0.10394 0.81675 0.0
C1964 C 0.28829 0.13715 0.88936 0.0
C1965 C 0.28827 0.14848 0.89628 0.0
C1966 C 0.28555 0.15758 0.88838 0.0
C1967 C 0.28269 0.15534 0.87312 0.0
C1968 C 0.27949 0.16404 0.86494 0.0
C1969 C 0.27706 0.16198 0.84985 0.0
C1970 C 0.27804 0.15134 0.84231 0.0
C1971 C 0.27628 0.14959 0.82685 0.0
C1972 C 0.27741 0.13892 0.81975 0.0
C1973 C 0.27999 0.12973 0.82769 0.0
C1974 C 0.2815 0.13115 0.84317 0.0
C1975 C 0.28369 0.12184 0.85156 0.0
C1976 C 0.28573 0.12365 0.86671 0.0
C1977 C 0.28571 0.13488 0.87405 0.0
C1978 C 0.28303 0.14411 0.86589 0.0
C1979 C 0.28083 0.14218 0.85045 0.0
C1980 C 0.25276 0.19902 0.8053 0.0
C1981 C 0.26627 0.19868 0.80332 0.0
O1982 O 0.3009 0.10607 0.92885 0.0
O1983 O 0.2867 0.08711 0.80097 0.0
O1984 O 0.2631 0.18591 0.79707 0.0
O1985 O 0.28961 0.20373 0.92045 0.0
H1986 H 0.28695 0.10371 0.94494 0.0
H1987 H 0.30694 0.12801 0.94651 0.0
H1988 H 0.31884 0.12177 0.95007 0.0
H1989 H 0.30552 0.11895 0.96324 0.0
H1990 H 0.2755 0.10203 0.92371 0.0
H1991 H 0.31836 0.12423 0.91076 0.0
H1992 H 0.26512 0.12362 0.91063 0.0
H1993 H 0.25823 0.10505 0.91205 0.0
H1994 H 0.26228 0.11322 0.89431 0.0
H1995 H 0.32693 0.14224 0.89342 0.0
H1996 H 0.31763 0.15171 0.89303 0.0
H1997 H 0.31438 0.1389 0.87897 0.0
H1998 H 0.27434 0.19412 0.93588 0.0
H1999 H 0.26235 0.20739 0.92933 0.0
H2000 H 0.2637 0.19821 0.91355 0.0
H2001 H 0.27535 0.21681 0.91555 0.0
H2002 H 0.30923 0.20396 0.90546 0.0
H2003 H 0.26631 0.17814 0.91767 0.0
H2004 H 0.30942 0.18286 0.87705 0.0
H2005 H 0.31451 0.177 0.89286 0.0
H2006 H 0.32083 0.19544 0.89078 0.0
H2007 H 0.25232 0.15502 0.90927 0.0
H2008 H 0.26222 0.14619 0.90883 0.0
H2009 H 0.25747 0.15093 0.89197 0.0
H2010 H 0.27087 0.19989 0.81455 0.0
H2011 H 0.28848 0.19253 0.80593 0.0
H2012 H 0.24586 0.15962 0.8013 0.0
H2013 H 0.30007 0.18047 0.83147 0.0
H2014 H 0.30622 0.18783 0.8137 0.0
H2015 H 0.30187 0.17008 0.8173 0.0
H2016 H 0.23735 0.13762 0.81216 0.0
H2017 H 0.24754 0.13673 0.82718 0.0
H2018 H 0.24959 0.13176 0.80894 0.0
H2019 H 0.26903 0.07442 0.78877 0.0
H2020 H 0.26188 0.0534 0.80473 0.0
H2021 H 0.26321 0.06793 0.8151 0.0
H2022 H 0.27688 0.06383 0.81657 0.0
H2023 H 0.30657 0.11123 0.80941 0.0
H2024 H 0.26202 0.08621 0.80419 0.0
H2025 H 0.30918 0.13485 0.83385 0.0
H2026 H 0.3073 0.14351 0.81827 0.0
H2027 H 0.31761 0.13511 0.81691 0.0
H2028 H 0.24681 0.09312 0.81358 0.0
H2029 H 0.25368 0.1114 0.80997 0.0
H2030 H 0.25362 0.10595 0.82842 0.0
H2031 H 0.29047 0.15029 0.90799 0.0
H2032 H 0.27884 0.17255 0.8701 0.0
H2033 H 0.27458 0.16898 0.84417 0.0
H2034 H 0.2763 0.13779 0.80788 0.0
H2035 H 0.28393 0.11306 0.8465 0.0
H2036 H 0.28747 0.11623 0.87257 0.0
H2037 H 0.24726 0.19744 0.7946 0.0
H2038 H 0.25507 0.20921 0.81027 0.0
H2039 H 0.24569 0.19054 0.81275 0.0
C2040 C 0.8204 0.07669 0.95721 0.0
C2041 C 0.81511 0.08328 0.94616 0.0
C2042 C 0.8256 0.09192 0.92225 0.0
C2043 C 0.82195 0.10221 0.92032 0.0
C2044 C 0.82902 0.11292 0.91016 0.0
C2045 C 0.84012 0.11346 0.90199 0.0
C2046 C 0.84365 0.10293 0.90381 0.0
C2047 C 0.83608 0.0921 0.91367 0.0
C2048 C 0.82478 0.12378 0.90835 0.0
C2049 C 0.85567 0.10331 0.89569 0.0
C2050 C 0.92203 0.20636 0.94792 0.0
C2051 C 0.91247 0.19332 0.93957 0.0
C2052 C 0.8976 0.18479 0.91785 0.0
C2053 C 0.90053 0.17448 0.91299 0.0
C2054 C 0.89102 0.16329 0.90394 0.0
C2055 C 0.87833 0.16242 0.89964 0.0
C2056 C 0.87561 0.17311 0.90403 0.0
C2057 C 0.8854 0.18428 0.91296 0.0
C2058 C 0.89441 0.15224 0.89917 0.0
C2059 C 0.86221 0.17251 0.89959 0.0
C2060 C 0.89159 0.18112 0.80177 0.0
C2061 C 0.89691 0.17338 0.80843 0.0
C2062 C 0.88837 0.1619 0.81725 0.0
C2063 C 0.87439 0.15838 0.8198 0.0
C2064 C 0.86911 0.16631 0.81328 0.0
C2065 C 0.87776 0.17749 0.80424 0.0
C2066 C 0.89426 0.15349 0.82377 0.0
C2067 C 0.85431 0.16296 0.81584 0.0
C2068 C 0.79174 0.04729 0.8076 0.0
C2069 C 0.79508 0.06221 0.80451 0.0
C2070 C 0.81805 0.08319 0.80784 0.0
C2071 C 0.83197 0.08696 0.81017 0.0
C2072 C 0.8414 0.09961 0.81739 0.0
C2073 C 0.8368 0.10883 0.82206 0.0
C2074 C 0.82288 0.10539 0.81907 0.0
C2075 C 0.81362 0.09257 0.81204 0.0
C2076 C 0.8562 0.103 0.82026 0.0
C2077 C 0.81777 0.11521 0.82343 0.0
C2078 C 0.84874 0.1256 0.89248 0.0
C2079 C 0.85857 0.13815 0.89942 0.0
C2080 C 0.86762 0.14988 0.89134 0.0
C2081 C 0.86687 0.1492 0.87583 0.0
C2082 C 0.87579 0.16082 0.86736 0.0
C2083 C 0.87513 0.15998 0.85208 0.0
C2084 C 0.86569 0.14741 0.84468 0.0
C2085 C 0.8652 0.14634 0.82916 0.0
C2086 C 0.85569 0.13367 0.82217 0.0
C2087 C 0.84651 0.12197 0.83025 0.0
C2088 C 0.84678 0.12286 0.84579 0.0
C2089 C 0.83765 0.11134 0.85428 0.0
C2090 C 0.83807 0.11228 0.86956 0.0
C2091 C 0.84784 0.1247 0.87695 0.0
C2092 C 0.85701 0.13652 0.86861 0.0
C2093 C 0.85647 0.1356 0.85301 0.0
C2094 C 0.91737 0.20655 0.7762 0.0
C2095 C 0.91334 0.19784 0.78954 0.0
O2096 O 0.81922 0.08168 0.93225 0.0
O2097 O 0.80919 0.07047 0.80156 0.0
O2098 O 0.89928 0.19199 0.79274 0.0
O2099 O 0.90632 0.19529 0.92723 0.0
H2100 H 0.82005 0.0946 0.94922 0.0
H2101 H 0.83194 0.08171 0.95649 0.0
H2102 H 0.81564 0.06529 0.95487 0.0
H2103 H 0.81782 0.07825 0.96861 0.0
H2104 H 0.81355 0.10183 0.9267 0.0
H2105 H 0.83869 0.084 0.91518 0.0
H2106 H 0.8329 0.13385 0.91343 0.0
H2107 H 0.81463 0.12067 0.91363 0.0
H2108 H 0.82398 0.12561 0.89651 0.0
H2109 H 0.85831 0.09557 0.89994 0.0
H2110 H 0.86511 0.1139 0.89658 0.0
H2111 H 0.85288 0.10091 0.88387 0.0
H2112 H 0.91654 0.18606 0.93784 0.0
H2113 H 0.93263 0.20736 0.94716 0.0
H2114 H 0.91175 0.20399 0.96838 0.0
H2115 H 0.9247 0.21529 0.9403 0.0
H2116 H 0.91026 0.17515 0.91616 0.0
H2117 H 0.88334 0.19242 0.9166 0.0
H2118 H 0.88682 0.14208 0.90407 0.0
H2119 H 0.90513 0.15495 0.90255 0.0
H2120 H 0.89339 0.15081 0.88704 0.0
H2121 H 0.86173 0.18174 0.90372 0.0
H2122 H 0.85316 0.16287 0.90391 0.0
H2123 H 0.86117 0.17196 0.88743 0.0
H2124 H 0.92036 0.20258 0.79933 0.0
H2125 H 0.90763 0.17613 0.80668 0.0
H2126 H 0.87376 0.18353 0.79905 0.0
H2127 H 0.89506 0.15496 0.83589 0.0
H2128 H 0.90479 0.15664 0.8195 0.0
H2129 H 0.88715 0.14216 0.82135 0.0
H2130 H 0.85222 0.17093 0.81114 0.0
H2131 H 0.85217 0.16225 0.8278 0.0
H2132 H 0.8469 0.15262 0.81072 0.0
H2133 H 0.79246 0.06592 0.8148 0.0
H2134 H 0.78037 0.04038 0.80952 0.0
H2135 H 0.79752 0.04734 0.81761 0.0
H2136 H 0.79489 0.04291 0.79833 0.0
H2137 H 0.83534 0.07975 0.80669 0.0
H2138 H 0.80297 0.08994 0.80978 0.0
H2139 H 0.85865 0.10489 0.83221 0.0
H2140 H 0.86358 0.11276 0.81455 0.0
H2141 H 0.85799 0.09447 0.81645 0.0
H2142 H 0.80701 0.11154 0.81928 0.0
H2143 H 0.8249 0.12582 0.81913 0.0
H2144 H 0.81785 0.11617 0.83559 0.0
H2145 H 0.85939 0.1387 0.91133 0.0
H2146 H 0.88338 0.17071 0.87246 0.0
H2147 H 0.88223 0.16928 0.84615 0.0
H2148 H 0.8554 0.13291 0.81026 0.0
H2149 H 0.83005 0.10144 0.84921 0.0
H2150 H 0.83074 0.10311 0.87552 0.0
H2151 H 0.92307 0.19553 0.76087 0.0
H2152 H 0.92496 0.21749 0.78034 0.0
H2153 H 0.90877 0.20887 0.77387 0.0
C2154 C 0.81479 0.72199 0.9536 0.0
C2155 C 0.80486 0.72203 0.94185 0.0
C2156 C 0.81394 0.71554 0.92049 0.0
C2157 C 0.82543 0.72893 0.91785 0.0
C2158 C 0.83629 0.73062 0.90868 0.0
C2159 C 0.83577 0.71871 0.90214 0.0
C2160 C 0.82402 0.70527 0.90437 0.0
C2161 C 0.81315 0.7039 0.91336 0.0
C2162 C 0.84853 0.74515 0.90632 0.0
C2163 C 0.82318 0.69231 0.8977 0.0
C2164 C 0.90907 0.73076 0.96572 0.0
C2165 C 0.90427 0.72043 0.95266 0.0
C2166 C 0.90111 0.72645 0.92803 0.0
C2167 C 0.8905 0.71328 0.92294 0.0
C2168 C 0.88125 0.71213 0.91173 0.0
C2169 C 0.88257 0.72442 0.90564 0.0
C2170 C 0.89371 0.7377 0.91027 0.0
C2171 C 0.90302 0.73852 0.92126 0.0
C2172 C 0.86974 0.69779 0.9068 0.0
C2173 C 0.89535 0.75103 0.90413 0.0
C2174 C 0.91362 0.73467 0.81301 0.0
C2175 C 0.90396 0.72087 0.81694 0.0
C2176 C 0.89116 0.71758 0.82329 0.0
C2177 C 0.88807 0.72835 0.8259 0.0
C2178 C 0.89758 0.74215 0.82143 0.0
C2179 C 0.91016 0.74508 0.81484 0.0
C2180 C 0.88104 0.70265 0.82741 0.0
C2181 C 0.89457 0.75387 0.8239 0.0
C2182 C 0.78895 0.70747 0.7779 0.0
C2183 C 0.80162 0.71561 0.78727 0.0
C2184 C 0.81517 0.71107 0.8054 0.0
C2185 C 0.81599 0.70049 0.81262 0.0
C2186 C 0.82786 0.70341 0.82094 0.0
C2187 C 0.83901 0.71742 0.82245 0.0
C2188 C 0.83827 0.72823 0.81515 0.0
C2189 C 0.8264 0.72493 0.80656 0.0
C2190 C 0.8284 0.69152 0.82818 0.0
C2191 C 0.84994 0.74327 0.81654 0.0
C2192 C 0.84806 0.72027 0.89406 0.0
C2193 C 0.85924 0.72154 0.9024 0.0
C2194 C 0.87138 0.72338 0.89578 0.0
C2195 C 0.87248 0.724 0.88031 0.0
C2196 C 0.88459 0.72601 0.87327 0.0
C2197 C 0.88559 0.72669 0.85803 0.0
C2198 C 0.87435 0.72498 0.84923 0.0
C2199 C 0.87512 0.72533 0.8337 0.0
C2200 C 0.86353 0.72299 0.8253 0.0
C2201 C 0.85124 0.72072 0.83198 0.0
C2202 C 0.85053 0.72105 0.84749 0.0
C2203 C 0.83863 0.71958 0.85457 0.0
C2204 C 0.83785 0.71949 0.86982 0.0
C2205 C 0.84889 0.72073 0.87857 0.0
C2206 C 0.86114 0.72255 0.87168 0.0
C2207 C 0.86201 0.72287 0.85612 0.0
C2208 C 0.94919 0.74463 0.81587 0.0
C2209 C 0.93449 0.73269 0.81179 0.0
O2210 O 0.80365 0.71338 0.93005 0.0
O2211 O 0.80337 0.70746 0.79751 0.0
O2212 O 0.92635 0.73829 0.80752 0.0
O2213 O 0.90928 0.7278 0.93979 0.0
H2214 H 0.80898 0.73289 0.93801 0.0
H2215 H 0.82544 0.72616 0.94912 0.0
H2216 H 0.81096 0.71117 0.95742 0.0
H2217 H 0.81562 0.72873 0.96316 0.0
H2218 H 0.82612 0.73812 0.92298 0.0
H2219 H 0.80421 0.69363 0.91534 0.0
H2220 H 0.85789 0.74632 0.91213 0.0
H2221 H 0.84652 0.75344 0.91048 0.0
H2222 H 0.85099 0.74679 0.89444 0.0
H2223 H 0.81355 0.68258 0.90091 0.0
H2224 H 0.83242 0.69165 0.90119 0.0
H2225 H 0.82335 0.69294 0.88554 0.0
H2226 H 0.89262 0.71479 0.95272 0.0
H2227 H 0.90543 0.72502 0.97618 0.0
H2228 H 0.90455 0.73766 0.96467 0.0
H2229 H 0.92063 0.73747 0.96613 0.0
H2230 H 0.88932 0.70392 0.92792 0.0
H2231 H 0.91136 0.74862 0.9252 0.0
H2232 H 0.869 0.69705 0.89461 0.0
H2233 H 0.85959 0.69603 0.91095 0.0
H2234 H 0.87139 0.68934 0.91093 0.0
H2235 H 0.90444 0.76053 0.90908 0.0
H2236 H 0.88574 0.75151 0.90617 0.0
H2237 H 0.89675 0.75113 0.89206 0.0
H2238 H 0.93034 0.72657 0.82202 0.0
H2239 H 0.90639 0.71267 0.81504 0.0
H2240 H 0.91761 0.75564 0.81156 0.0
H2241 H 0.88031 0.70193 0.83955 0.0
H2242 H 0.88429 0.69528 0.82324 0.0
H2243 H 0.87044 0.69934 0.823 0.0
H2244 H 0.90334 0.76415 0.82043 0.0
H2245 H 0.89254 0.75462 0.83571 0.0
H2246 H 0.88503 0.75157 0.81762 0.0
H2247 H 0.80319 0.7257 0.79186 0.0
H2248 H 0.78219 0.71211 0.78046 0.0
H2249 H 0.78199 0.69739 0.78374 0.0
H2250 H 0.797 0.70795 0.7565 0.0
H2251 H 0.80731 0.68983 0.81158 0.0
H2252 H 0.82588 0.73322 0.801 0.0
H2253 H 0.82714 0.69208 0.84021 0.0
H2254 H 0.83868 0.69236 0.82633 0.0
H2255 H 0.82001 0.68113 0.82401 0.0
H2256 H 0.84713 0.75061 0.8115 0.0
H2257 H 0.85936 0.74445 0.81102 0.0
H2258 H 0.85271 0.74628 0.82829 0.0
H2259 H 0.8585 0.72113 0.91429 0.0
H2260 H 0.89347 0.72716 0.87949 0.0
H2261 H 0.89523 0.7284 0.85324 0.0
H2262 H 0.86406 0.72288 0.8134 0.0
H2263 H 0.82976 0.71849 0.84839 0.0
H2264 H 0.82843 0.71831 0.87467 0.0
H2265 H 0.95602 0.74037 0.81888 0.0
H2266 H 0.94866 0.75063 0.82548 0.0
H2267 H 0.95396 0.75196 0.80664 0.0
C2268 C 0.861 0.60434 0.39412 0.0
C2269 C 0.86547 0.61643 0.40519 0.0
C2270 C 0.85169 0.61232 0.42728 0.0
C2271 C 0.8527 0.62536 0.42936 0.0
C2272 C 0.84293 0.62665 0.43799 0.0
C2273 C 0.83182 0.61459 0.44444 0.0
C2274 C 0.83086 0.60143 0.44235 0.0
C2275 C 0.84102 0.60055 0.43405 0.0
C2276 C 0.84444 0.64088 0.44015 0.0
C2277 C 0.81901 0.58827 0.44872 0.0
C2278 C 0.75629 0.61311 0.392 0.0
C2279 C 0.7593 0.62381 0.40436 0.0
C2280 C 0.76809 0.61783 0.42607 0.0
C2281 C 0.76572 0.60551 0.4326 0.0
C2282 C 0.77611 0.60524 0.44119 0.0
C2283 C 0.78903 0.61777 0.44363 0.0
C2284 C 0.79133 0.63039 0.43741 0.0
C2285 C 0.78082 0.63029 0.42868 0.0
C2286 C 0.77329 0.59158 0.4476 0.0
C2287 C 0.80486 0.64397 0.44007 0.0
C2288 C 0.77224 0.62809 0.5391 0.0
C2289 C 0.76989 0.61441 0.53782 0.0
C2290 C 0.77911 0.61165 0.5299 0.0
C2291 C 0.791 0.62284 0.52334 0.0
C2292 C 0.79346 0.63665 0.52479 0.0
C2293 C 0.78393 0.63904 0.5325 0.0
C2294 C 0.77612 0.5968 0.52851 0.0
C2295 C 0.80615 0.6489 0.51821 0.0
C2296 C 0.87507 0.59829 0.53615 0.0
C2297 C 0.87255 0.61038 0.53969 0.0
C2298 C 0.84968 0.6083 0.53828 0.0
C2299 C 0.83579 0.59771 0.53627 0.0
C2300 C 0.82614 0.6003 0.5291 0.0
C2301 C 0.83046 0.61397 0.52423 0.0
C2302 C 0.8443 0.62497 0.52715 0.0
C2303 C 0.85382 0.62199 0.53405 0.0
C2304 C 0.81143 0.58835 0.52634 0.0
C2305 C 0.84911 0.63976 0.52264 0.0
C2306 C 0.82107 0.61572 0.45305 0.0
C2307 C 0.81054 0.6164 0.4453 0.0
C2308 C 0.80014 0.61761 0.45262 0.0
C2309 C 0.80027 0.61832 0.46815 0.0
C2310 C 0.79017 0.61987 0.47586 0.0
C2311 C 0.79032 0.62045 0.49114 0.0
C2312 C 0.80057 0.61949 0.49932 0.0
C2313 C 0.80085 0.62015 0.51487 0.0
C2314 C 0.81083 0.61854 0.52266 0.0
C2315 C 0.82073 0.61651 0.51534 0.0
C2316 C 0.82098 0.61644 0.49979 0.0
C2317 C 0.83114 0.61497 0.49206 0.0
C2318 C 0.83138 0.61503 0.47679 0.0
C2319 C 0.82116 0.61604 0.4686 0.0
C2320 C 0.81074 0.6174 0.47616 0.0
C2321 C 0.81078 0.61781 0.49177 0.0
C2322 C 0.74863 0.63033 0.56594 0.0
C2323 C 0.75311 0.62256 0.5561 0.0
O2324 O 0.861 0.61084 0.41899 0.0
O2325 O 0.85886 0.60496 0.54412 0.0
O2326 O 0.76359 0.63123 0.5466 0.0
O2327 O 0.7577 0.61742 0.41777 0.0
H2328 H 0.86037 0.62241 0.40173 0.0
H2329 H 0.84948 0.59729 0.3944 0.0
H2330 H 0.86606 0.59817 0.39683 0.0
H2331 H 0.86388 0.60833 0.38279 0.0
H2332 H 0.86121 0.63453 0.4244 0.0
H2333 H 0.84045 0.59056 0.43244 0.0
H2334 H 0.83583 0.64115 0.4342 0.0
H2335 H 0.85455 0.64942 0.436 0.0
H2336 H 0.84362 0.64292 0.45198 0.0
H2337 H 0.81879 0.57869 0.44453 0.0
H2338 H 0.80884 0.58745 0.44608 0.0
H2339 H 0.82015 0.58869 0.46086 0.0
H2340 H 0.77018 0.63262 0.40304 0.0
H2341 H 0.76368 0.60916 0.39285 0.0
H2342 H 0.75765 0.61802 0.38111 0.0
H2343 H 0.74545 0.60409 0.39274 0.0
H2344 H 0.75576 0.596 0.4307 0.0
H2345 H 0.78246 0.64 0.42418 0.0
H2346 H 0.7733 0.59232 0.45978 0.0
H2347 H 0.78172 0.58945 0.4445 0.0
H2348 H 0.76309 0.58261 0.44384 0.0
H2349 H 0.80465 0.65306 0.43537 0.0
H2350 H 0.81357 0.64325 0.43505 0.0
H2351 H 0.80709 0.64587 0.45205 0.0
H2352 H 0.74452 0.61291 0.55069 0.0
H2353 H 0.76084 0.60583 0.54286 0.0
H2354 H 0.78565 0.64956 0.53358 0.0
H2355 H 0.77673 0.59411 0.51684 0.0
H2356 H 0.76566 0.58911 0.53276 0.0
H2357 H 0.78416 0.59581 0.53481 0.0
H2358 H 0.80741 0.6591 0.52181 0.0
H2359 H 0.80519 0.64812 0.50605 0.0
H2360 H 0.81574 0.6487 0.5213 0.0
H2361 H 0.8744 0.6162 0.52926 0.0
H2362 H 0.88606 0.60241 0.53275 0.0
H2363 H 0.86805 0.59178 0.52697 0.0
H2364 H 0.8729 0.59151 0.54582 0.0
H2365 H 0.83267 0.58723 0.53981 0.0
H2366 H 0.86448 0.63032 0.53609 0.0
H2367 H 0.8089 0.58732 0.5144 0.0
H2368 H 0.80394 0.59058 0.53206 0.0
H2369 H 0.8099 0.57822 0.53024 0.0
H2370 H 0.85955 0.64738 0.52737 0.0
H2371 H 0.84146 0.64284 0.52617 0.0
H2372 H 0.84973 0.64037 0.51048 0.0
H2373 H 0.81038 0.61591 0.43338 0.0
H2374 H 0.78203 0.62069 0.47015 0.0
H2375 H 0.78224 0.62161 0.49646 0.0
H2376 H 0.81086 0.61883 0.53458 0.0
H2377 H 0.83913 0.61389 0.49773 0.0
H2378 H 0.83958 0.6141 0.47147 0.0
H2379 H 0.73732 0.62618 0.5629 0.0
H2380 H 0.75237 0.64086 0.56088 0.0
H2381 H 0.75516 0.62808 0.58734 0.0
C2382 C 0.40291 0.26056 0.39228 0.0
C2383 C 0.39152 0.25325 0.40373 0.0
C2384 C 0.39411 0.24394 0.4269 0.0
C2385 C 0.38008 0.23367 0.42898 0.0
C2386 C 0.37652 0.2227 0.43875 0.0
C2387 C 0.38723 0.22187 0.44636 0.0
C2388 C 0.40138 0.23236 0.44441 0.0
C2389 C 0.40458 0.24344 0.43494 0.0
C2390 C 0.36132 0.21188 0.44075 0.0
C2391 C 0.41314 0.23171 0.45203 0.0
C2392 C 0.3552 0.11352 0.41367 0.0
C2393 C 0.35536 0.12669 0.4174 0.0
C2394 C 0.36954 0.14823 0.43192 0.0
C2395 C 0.38265 0.1571 0.4383 0.0
C2396 C 0.38539 0.16919 0.44625 0.0
C2397 C 0.37461 0.17235 0.44803 0.0
C2398 C 0.36128 0.16341 0.44161 0.0
C2399 C 0.3589 0.1515 0.43352 0.0
C2400 C 0.3998 0.1786 0.45274 0.0
C2401 C 0.34956 0.16646 0.4433 0.0
C2402 C 0.36787 0.15197 0.54525 0.0
C2403 C 0.38104 0.1594 0.53865 0.0
C2404 C 0.38455 0.17118 0.53012 0.0
C2405 C 0.37456 0.17534 0.52779 0.0
C2406 C 0.36125 0.16776 0.53429 0.0
C2407 C 0.35815 0.15624 0.54304 0.0
C2408 C 0.39896 0.1792 0.52363 0.0
C2409 C 0.35029 0.17181 0.532 0.0
C2410 C 0.40501 0.28506 0.53835 0.0
C2411 C 0.39557 0.27186 0.54699 0.0
C2412 C 0.3973 0.25111 0.541 0.0
C2413 C 0.40732 0.24777 0.53661 0.0
C2414 C 0.40344 0.2351 0.5292 0.0
C2415 C 0.38914 0.22549 0.52624 0.0
C2416 C 0.37889 0.22856 0.53116 0.0
C2417 C 0.38306 0.2413 0.53861 0.0
C2418 C 0.41463 0.23204 0.52436 0.0
C2419 C 0.36353 0.2184 0.52847 0.0
C2420 C 0.38369 0.2096 0.45565 0.0
C2421 C 0.38065 0.19709 0.44851 0.0
C2422 C 0.37735 0.18511 0.45641 0.0
C2423 C 0.37706 0.18553 0.47193 0.0
C2424 C 0.37347 0.17359 0.48022 0.0
C2425 C 0.37358 0.17419 0.4955 0.0
C2426 C 0.37741 0.18681 0.50309 0.0
C2427 C 0.378 0.18765 0.51863 0.0
C2428 C 0.38182 0.20036 0.5258 0.0
C2429 C 0.38493 0.2123 0.51789 0.0
C2430 C 0.38428 0.21163 0.50236 0.0
C2431 C 0.38711 0.22338 0.49405 0.0
C2432 C 0.38668 0.22268 0.47876 0.0
C2433 C 0.38363 0.21029 0.47118 0.0
C2434 C 0.38043 0.19823 0.47934 0.0
C2435 C 0.38069 0.19889 0.49494 0.0
C2436 C 0.36677 0.12515 0.56976 0.0
C2437 C 0.37189 0.13439 0.55682 0.0
O2438 O 0.39789 0.25443 0.41723 0.0
O2439 O 0.40179 0.26373 0.54776 0.0
O2440 O 0.36416 0.14077 0.55394 0.0
O2441 O 0.36759 0.13666 0.42442 0.0
H2442 H 0.38516 0.24203 0.40022 0.0
H2443 H 0.40957 0.25573 0.39188 0.0
H2444 H 0.40962 0.27187 0.39511 0.0
H2445 H 0.39818 0.25945 0.38119 0.0
H2446 H 0.37193 0.23426 0.42303 0.0
H2447 H 0.41536 0.25152 0.43332 0.0
H2448 H 0.35904 0.20194 0.43521 0.0
H2449 H 0.35425 0.21523 0.436 0.0
H2450 H 0.35898 0.20974 0.45259 0.0
H2451 H 0.42355 0.23969 0.44793 0.0
H2452 H 0.41189 0.22118 0.45044 0.0
H2453 H 0.41286 0.23352 0.46401 0.0
H2454 H 0.35186 0.13105 0.40847 0.0
H2455 H 0.3547 0.11285 0.4013 0.0
H2456 H 0.33909 0.09824 0.42711 0.0
H2457 H 0.36637 0.11597 0.41435 0.0
H2458 H 0.3908 0.15451 0.43699 0.0
H2459 H 0.34871 0.14478 0.42855 0.0
H2460 H 0.39924 0.17845 0.46491 0.0
H2461 H 0.40385 0.18956 0.44933 0.0
H2462 H 0.40732 0.1753 0.44934 0.0
H2463 H 0.33946 0.15782 0.43886 0.0
H2464 H 0.35221 0.17618 0.43739 0.0
H2465 H 0.34826 0.16826 0.45507 0.0
H2466 H 0.37404 0.1299 0.54682 0.0
H2467 H 0.38866 0.15617 0.54021 0.0
H2468 H 0.34804 0.15045 0.54819 0.0
H2469 H 0.39817 0.17778 0.5115 0.0
H2470 H 0.40604 0.17566 0.52787 0.0
H2471 H 0.40371 0.19057 0.5261 0.0
H2472 H 0.34001 0.16398 0.53649 0.0
H2473 H 0.34898 0.17301 0.52011 0.0
H2474 H 0.35375 0.18207 0.53753 0.0
H2475 H 0.38546 0.26634 0.54086 0.0
H2476 H 0.40032 0.29184 0.53776 0.0
H2477 H 0.40621 0.28209 0.52698 0.0
H2478 H 0.41555 0.2911 0.54357 0.0
H2479 H 0.41825 0.25528 0.53878 0.0
H2480 H 0.37516 0.24343 0.54267 0.0
H2481 H 0.41441 0.23105 0.51219 0.0
H2482 H 0.41252 0.2219 0.52887 0.0
H2483 H 0.42525 0.24036 0.52797 0.0
H2484 H 0.35685 0.22244 0.53272 0.0
H2485 H 0.3605 0.20834 0.53386 0.0
H2486 H 0.36145 0.21616 0.5165 0.0
H2487 H 0.38093 0.1967 0.4366 0.0
H2488 H 0.37058 0.16363 0.47498 0.0
H2489 H 0.37075 0.16467 0.50129 0.0
H2490 H 0.38236 0.20097 0.53772 0.0
H2491 H 0.38969 0.23326 0.49929 0.0
H2492 H 0.38892 0.23204 0.47295 0.0
H2493 H 0.38351 0.13518 0.58547 0.0
H2494 H 0.36305 0.11431 0.56513 0.0
H2495 H 0.35589 0.12305 0.57203 0.0
C2496 C 0.85726 0.24414 0.39496 0.0
C2497 C 0.86508 0.24687 0.40969 0.0
C2498 C 0.8511 0.22554 0.42396 0.0
C2499 C 0.83988 0.22775 0.42669 0.0
C2500 C 0.82856 0.21843 0.43525 0.0
C2501 C 0.82837 0.20661 0.44117 0.0
C2502 C 0.83955 0.20426 0.43836 0.0
C2503 C 0.85078 0.21378 0.4298 0.0
C2504 C 0.81675 0.22119 0.43799 0.0
C2505 C 0.83963 0.19171 0.44446 0.0
C2506 C 0.72735 0.12783 0.41557 0.0
C2507 C 0.74054 0.12836 0.40967 0.0
C2508 C 0.75954 0.14071 0.42793 0.0
C2509 C 0.76896 0.13918 0.43678 0.0
C2510 C 0.78007 0.15072 0.44406 0.0
C2511 C 0.78152 0.16412 0.4428 0.0
C2512 C 0.77195 0.16576 0.43396 0.0
C2513 C 0.76111 0.15407 0.42652 0.0
C2514 C 0.79024 0.14856 0.4531 0.0
C2515 C 0.7731 0.17986 0.4325 0.0
C2516 C 0.75496 0.15488 0.53617 0.0
C2517 C 0.76378 0.15023 0.53088 0.0
C2518 C 0.77626 0.15943 0.52378 0.0
C2519 C 0.7797 0.17345 0.52151 0.0
C2520 C 0.77103 0.17826 0.52733 0.0
C2521 C 0.75887 0.16893 0.53483 0.0
C2522 C 0.78559 0.15406 0.51847 0.0
C2523 C 0.7744 0.19314 0.52529 0.0
C2524 C 0.87759 0.26278 0.53441 0.0
C2525 C 0.87188 0.25296 0.54749 0.0
C2526 C 0.85394 0.23058 0.53591 0.0
C2527 C 0.85118 0.21724 0.53171 0.0
C2528 C 0.83881 0.20781 0.5242 0.0
C2529 C 0.82896 0.21188 0.52075 0.0
C2530 C 0.83154 0.22529 0.52517 0.0
C2531 C 0.84401 0.23453 0.53275 0.0
C2532 C 0.83636 0.19354 0.51978 0.0
C2533 C 0.82118 0.22989 0.52168 0.0
C2534 C 0.81642 0.19673 0.45026 0.0
C2535 C 0.80488 0.18558 0.44311 0.0
C2536 C 0.79298 0.17632 0.45088 0.0
C2537 C 0.79239 0.17837 0.46618 0.0
C2538 C 0.78026 0.16981 0.47418 0.0
C2539 C 0.77998 0.17152 0.48932 0.0
C2540 C 0.79192 0.18165 0.49709 0.0
C2541 C 0.79204 0.18291 0.51261 0.0
C2542 C 0.80414 0.19306 0.51995 0.0
C2543 C 0.81614 0.20216 0.51221 0.0
C2544 C 0.81615 0.20122 0.4967 0.0
C2545 C 0.82796 0.21038 0.48857 0.0
C2546 C 0.82801 0.20909 0.47334 0.0
C2547 C 0.81633 0.19844 0.46568 0.0
C2548 C 0.80425 0.18922 0.47365 0.0
C2549 C 0.80408 0.19075 0.48915 0.0
C2550 C 0.7186 0.13102 0.53612 0.0
C2551 C 0.73313 0.1327 0.53704 0.0
O2552 O 0.86235 0.23434 0.41577 0.0
O2553 O 0.86635 0.23917 0.54282 0.0
O2554 O 0.74255 0.14601 0.54243 0.0
O2555 O 0.74907 0.12902 0.42119 0.0
H2556 H 0.86153 0.25241 0.41721 0.0
H2557 H 0.8458 0.23804 0.39662 0.0
H2558 H 0.86006 0.2381 0.38726 0.0
H2559 H 0.85984 0.25422 0.38987 0.0
H2560 H 0.83976 0.23666 0.42218 0.0
H2561 H 0.85941 0.21209 0.42762 0.0
H2562 H 0.80679 0.21225 0.43368 0.0
H2563 H 0.81848 0.23092 0.43272 0.0
H2564 H 0.81555 0.2221 0.44999 0.0
H2565 H 0.84903 0.19127 0.44115 0.0
H2566 H 0.83015 0.18195 0.44059 0.0
H2567 H 0.8393 0.19202 0.45664 0.0
H2568 H 0.74617 0.1378 0.40277 0.0
H2569 H 0.72022 0.12661 0.40633 0.0
H2570 H 0.73014 0.13767 0.42165 0.0
H2571 H 0.72172 0.11901 0.4232 0.0
H2572 H 0.76766 0.12885 0.43782 0.0
H2573 H 0.75385 0.15545 0.41983 0.0
H2574 H 0.78863 0.14972 0.46494 0.0
H2575 H 0.80116 0.15659 0.45051 0.0
H2576 H 0.78888 0.13801 0.4512 0.0
H2577 H 0.76406 0.17917 0.42642 0.0
H2578 H 0.7828 0.187 0.42656 0.0
H2579 H 0.77383 0.1846 0.44354 0.0
H2580 H 0.73589 0.13135 0.5256 0.0
H2581 H 0.76092 0.13941 0.53233 0.0
H2582 H 0.75205 0.17243 0.53916 0.0
H2583 H 0.78424 0.15219 0.50641 0.0
H2584 H 0.78304 0.14406 0.52372 0.0
H2585 H 0.79674 0.1619 0.52076 0.0
H2586 H 0.76596 0.19488 0.52934 0.0
H2587 H 0.77613 0.19585 0.51349 0.0
H2588 H 0.78421 0.2004 0.53137 0.0
H2589 H 0.86367 0.25425 0.55303 0.0
H2590 H 0.88217 0.27384 0.53819 0.0
H2591 H 0.86911 0.26042 0.52636 0.0
H2592 H 0.88577 0.26155 0.52874 0.0
H2593 H 0.85887 0.21428 0.53425 0.0
H2594 H 0.84594 0.24479 0.53603 0.0
H2595 H 0.83598 0.19251 0.50761 0.0
H2596 H 0.82612 0.18526 0.52393 0.0
H2597 H 0.84467 0.19169 0.52403 0.0
H2598 H 0.82476 0.24071 0.52575 0.0
H2599 H 0.81098 0.22262 0.52672 0.0
H2600 H 0.81945 0.22941 0.50961 0.0
H2601 H 0.80519 0.18408 0.43134 0.0
H2602 H 0.77083 0.16168 0.46882 0.0
H2603 H 0.77034 0.16463 0.49486 0.0
H2604 H 0.80429 0.19375 0.53186 0.0
H2605 H 0.83732 0.21866 0.49389 0.0
H2606 H 0.83741 0.21641 0.46766 0.0
H2607 H 0.71521 0.13257 0.5471 0.0
H2608 H 0.71086 0.12043 0.53176 0.0
H2609 H 0.71879 0.13892 0.52858 0.0
C2610 C 0.03555 0.4556 0.24552 0.0
C2611 C 0.02679 0.45606 0.25828 0.0
C2612 C 0.0097 0.46101 0.2467 0.0
C2613 C 0.99556 0.45547 0.24323 0.0
C2614 C 0.99083 0.46357 0.23628 0.0
C2615 C 0.00057 0.47754 0.23256 0.0
C2616 C 0.0149 0.48325 0.23605 0.0
C2617 C 0.01931 0.47497 0.24312 0.0
C2618 C 0.97547 0.45719 0.2328 0.0
C2619 C 0.02558 0.49811 0.23223 0.0
C2620 C 0.99881 0.57155 0.27012 0.0
C2621 C 0.00242 0.56195 0.26236 0.0
C2622 C 0.99154 0.53799 0.25267 0.0
C2623 C 0.00321 0.54034 0.24443 0.0
C2624 C 0.00294 0.52957 0.2359 0.0
C2625 C 0.99071 0.51617 0.23545 0.0
C2626 C 0.97894 0.51375 0.24369 0.0
C2627 C 0.97953 0.52471 0.25223 0.0
C2628 C 0.01574 0.53254 0.2273 0.0
C2629 C 0.96574 0.49961 0.24337 0.0
C2630 C 0.97883 0.5344 0.14271 0.0
C2631 C 0.99185 0.53832 0.14925 0.0
C2632 C 0.99421 0.52836 0.15592 0.0
C2633 C 0.98321 0.51426 0.15654 0.0
C2634 C 0.97014 0.51025 0.14989 0.0
C2635 C 0.96819 0.52037 0.14291 0.0
C2636 C 0.00849 0.53298 0.16241 0.0
C2637 C 0.95818 0.49532 0.15032 0.0
C2638 C 0.01701 0.44117 0.13805 0.0
C2639 C 0.00487 0.44051 0.12928 0.0
C2640 C 0.00345 0.46128 0.13577 0.0
C2641 C 0.01294 0.47541 0.13874 0.0
C2642 C 0.00925 0.48349 0.14754 0.0
C2643 C 0.99555 0.47731 0.15315 0.0
C2644 C 0.98571 0.46313 0.14971 0.0
C2645 C 0.98978 0.45522 0.14107 0.0
C2646 C 0.02002 0.49859 0.15093 0.0
C2647 C 0.9709 0.45637 0.15513 0.0
C2648 C 0.99587 0.48614 0.22478 0.0
C2649 C 0.9939 0.49572 0.23307 0.0
C2650 C 0.99039 0.5048 0.22632 0.0
C2651 C 0.98823 0.50398 0.21093 0.0
C2652 C 0.98418 0.51259 0.20387 0.0
C2653 C 0.98286 0.51228 0.18865 0.0
C2654 C 0.98575 0.50351 0.17989 0.0
C2655 C 0.98539 0.50383 0.16437 0.0
C2656 C 0.98819 0.49487 0.15601 0.0
C2657 C 0.99163 0.48572 0.16271 0.0
C2658 C 0.99226 0.4854 0.17822 0.0
C2659 C 0.99604 0.47659 0.18532 0.0
C2660 C 0.99702 0.47665 0.20057 0.0
C2661 C 0.99438 0.48561 0.2093 0.0
C2662 C 0.99048 0.49453 0.20237 0.0
C2663 C 0.98935 0.49437 0.18682 0.0
C2664 C 0.98188 0.56343 0.15196 0.0
C2665 C 0.98392 0.55821 0.13702 0.0
O2666 O 0.01354 0.4525 0.25333 0.0
O2667 O 0.00769 0.45406 0.12717 0.0
O2668 O 0.97603 0.5437 0.13616 0.0
O2669 O 0.99148 0.54822 0.26108 0.0
H2670 H 0.03215 0.46683 0.26315 0.0
H2671 H 0.03709 0.46342 0.23716 0.0
H2672 H 0.03031 0.44509 0.24006 0.0
H2673 H 0.04602 0.45805 0.24961 0.0
H2674 H 0.9882 0.44472 0.24601 0.0
H2675 H 0.03031 0.47951 0.24566 0.0
H2676 H 0.97163 0.46399 0.2373 0.0
H2677 H 0.96911 0.44654 0.23734 0.0
H2678 H 0.97385 0.4565 0.2207 0.0
H2679 H 0.03646 0.5006 0.23448 0.0
H2680 H 0.02362 0.50546 0.23879 0.0
H2681 H 0.02459 0.49995 0.22044 0.0
H2682 H 0.01249 0.56287 0.26592 0.0
H2683 H 0.00562 0.57512 0.28032 0.0
H2684 H 0.98886 0.56473 0.27624 0.0
H2685 H 0.00028 0.58564 0.25351 0.0
H2686 H 0.01259 0.55055 0.24459 0.0
H2687 H 0.97057 0.52297 0.25858 0.0
H2688 H 0.01337 0.53184 0.21536 0.0
H2689 H 0.01874 0.5246 0.22969 0.0
H2690 H 0.02482 0.54311 0.22986 0.0
H2691 H 0.95727 0.49957 0.24988 0.0
H2692 H 0.96796 0.49165 0.24783 0.0
H2693 H 0.96201 0.49646 0.23184 0.0
H2694 H 0.99517 0.56175 0.13559 0.0
H2695 H 0.00028 0.54908 0.14922 0.0
H2696 H 0.95821 0.5174 0.13779 0.0
H2697 H 0.00801 0.53332 0.17458 0.0
H2698 H 0.0165 0.54355 0.15871 0.0
H2699 H 0.0119 0.52543 0.15937 0.0
H2700 H 0.94836 0.49412 0.14565 0.0
H2701 H 0.95631 0.49166 0.16183 0.0
H2702 H 0.96093 0.48845 0.14396 0.0
H2703 H 0.99516 0.43436 0.13565 0.0
H2704 H 0.01493 0.43048 0.14044 0.0
H2705 H 0.01834 0.44677 0.1487 0.0
H2706 H 0.0269 0.44686 0.13185 0.0
H2707 H 0.02339 0.48003 0.13434 0.0
H2708 H 0.98219 0.44445 0.13822 0.0
H2709 H 0.02088 0.50059 0.16299 0.0
H2710 H 0.01667 0.50551 0.14591 0.0
H2711 H 0.03049 0.50148 0.14668 0.0
H2712 H 0.96422 0.44559 0.15057 0.0
H2713 H 0.96621 0.4628 0.1521 0.0
H2714 H 0.97092 0.45588 0.1673 0.0
H2715 H 0.99565 0.49648 0.24486 0.0
H2716 H 0.98205 0.51971 0.21004 0.0
H2717 H 0.97974 0.51918 0.18382 0.0
H2718 H 0.9881 0.49533 0.14411 0.0
H2719 H 0.99837 0.46959 0.17918 0.0
H2720 H 1.00006 0.4697 0.2054 0.0
H2721 H 0.97068 0.55999 0.15358 0.0
H2722 H 0.98815 0.57505 0.15269 0.0
H2723 H 0.98539 0.55922 0.16096 0.0
C2724 C 0.46757 0.40199 0.26725 0.0
C2725 C 0.46646 0.41496 0.2709 0.0
C2726 C 0.47519 0.43089 0.25 0.0
C2727 C 0.47145 0.43793 0.24003 0.0
C2728 C 0.48153 0.44876 0.23149 0.0
C2729 C 0.49568 0.45229 0.2326 0.0
C2730 C 0.49952 0.445 0.24244 0.0
C2731 C 0.48927 0.43447 0.25114 0.0
C2732 C 0.47703 0.45653 0.22144 0.0
C2733 C 0.51447 0.44834 0.24378 0.0
C2734 C 0.576 0.56046 0.2653 0.0
C2735 C 0.57045 0.546 0.25945 0.0
C2736 C 0.54915 0.52706 0.24785 0.0
C2737 C 0.55481 0.51854 0.24437 0.0
C2738 C 0.54692 0.5059 0.23643 0.0
C2739 C 0.53321 0.50185 0.23162 0.0
C2740 C 0.52754 0.51045 0.23502 0.0
C2741 C 0.53557 0.52289 0.2432 0.0
C2742 C 0.55318 0.49683 0.23325 0.0
C2743 C 0.513 0.50651 0.23 0.0
C2744 C 0.557 0.51883 0.13547 0.0
C2745 C 0.56173 0.51033 0.14149 0.0
C2746 C 0.55286 0.49878 0.15007 0.0
C2747 C 0.53905 0.49575 0.15272 0.0
C2748 C 0.53431 0.50435 0.14674 0.0
C2749 C 0.54338 0.51578 0.13819 0.0
C2750 C 0.5582 0.48981 0.15633 0.0
C2751 C 0.51968 0.50146 0.1494 0.0
C2752 C 0.46104 0.38304 0.14049 0.0
C2753 C 0.4626 0.39749 0.13879 0.0
C2754 C 0.48447 0.41974 0.14004 0.0
C2755 C 0.49869 0.42445 0.14173 0.0
C2756 C 0.50771 0.43727 0.1489 0.0
C2757 C 0.50238 0.44575 0.15405 0.0
C2758 C 0.48814 0.44142 0.15149 0.0
C2759 C 0.47929 0.42837 0.14468 0.0
C2760 C 0.52284 0.44157 0.15128 0.0
C2761 C 0.48218 0.45047 0.15611 0.0
C2762 C 0.50651 0.46392 0.22383 0.0
C2763 C 0.51487 0.47685 0.23094 0.0
C2764 C 0.52472 0.48849 0.22325 0.0
C2765 C 0.52616 0.48734 0.20794 0.0
C2766 C 0.53559 0.49896 0.19976 0.0
C2767 C 0.53681 0.49775 0.18467 0.0
C2768 C 0.5286 0.48489 0.17717 0.0
C2769 C 0.52954 0.48362 0.16179 0.0
C2770 C 0.52099 0.47075 0.15463 0.0
C2771 C 0.51157 0.45895 0.16244 0.0
C2772 C 0.5107 0.45995 0.17788 0.0
C2773 C 0.50163 0.44822 0.18616 0.0
C2774 C 0.50036 0.44945 0.20124 0.0
C2775 C 0.50816 0.46243 0.20863 0.0
C2776 C 0.51785 0.47425 0.20062 0.0
C2777 C 0.51909 0.47301 0.18522 0.0
C2778 C 0.58272 0.544 0.10974 0.0
C2779 C 0.57858 0.53436 0.12231 0.0
O2780 O 0.4649 0.42073 0.25814 0.0
O2781 O 0.47598 0.40681 0.13405 0.0
O2782 O 0.56511 0.52996 0.12693 0.0
O2783 O 0.55638 0.53928 0.25564 0.0
H2784 H 0.47618 0.4227 0.27688 0.0
H2785 H 0.47714 0.40495 0.26089 0.0
H2786 H 0.45845 0.39421 0.26056 0.0
H2787 H 0.46814 0.397 0.27753 0.0
H2788 H 0.46058 0.43508 0.23918 0.0
H2789 H 0.49236 0.42905 0.25869 0.0
H2790 H 0.48402 0.46801 0.22294 0.0
H2791 H 0.46609 0.45388 0.22342 0.0
H2792 H 0.47779 0.45381 0.20984 0.0
H2793 H 0.51546 0.44055 0.25043 0.0
H2794 H 0.52091 0.45883 0.24908 0.0
H2795 H 0.51882 0.44872 0.23271 0.0
H2796 H 0.57344 0.53941 0.26589 0.0
H2797 H 0.57929 0.56018 0.27697 0.0
H2798 H 0.56668 0.56134 0.2686 0.0
H2799 H 0.5904 0.57337 0.24903 0.0
H2800 H 0.56531 0.5216 0.24791 0.0
H2801 H 0.5313 0.52953 0.24593 0.0
H2802 H 0.54603 0.48599 0.23695 0.0
H2803 H 0.56352 0.50089 0.23874 0.0
H2804 H 0.5545 0.4963 0.22122 0.0
H2805 H 0.51057 0.5149 0.23244 0.0
H2806 H 0.50523 0.49684 0.23559 0.0
H2807 H 0.51179 0.50422 0.21799 0.0
H2808 H 0.58636 0.53768 0.13149 0.0
H2809 H 0.5723 0.51263 0.13952 0.0
H2810 H 0.53984 0.52241 0.13351 0.0
H2811 H 0.55757 0.48984 0.1685 0.0
H2812 H 0.56919 0.4935 0.15322 0.0
H2813 H 0.55151 0.47882 0.15237 0.0
H2814 H 0.5176 0.50915 0.14396 0.0
H2815 H 0.51801 0.50177 0.16139 0.0
H2816 H 0.51197 0.49079 0.14523 0.0
H2817 H 0.46098 0.40066 0.14996 0.0
H2818 H 0.45031 0.37535 0.1441 0.0
H2819 H 0.4686 0.38364 0.14893 0.0
H2820 H 0.46316 0.37927 0.12999 0.0
H2821 H 0.50261 0.41778 0.13791 0.0
H2822 H 0.46835 0.42492 0.14295 0.0
H2823 H 0.52578 0.44422 0.16307 0.0
H2824 H 0.52957 0.45109 0.1449 0.0
H2825 H 0.52504 0.43323 0.14782 0.0
H2826 H 0.47181 0.4469 0.15092 0.0
H2827 H 0.48939 0.46155 0.15319 0.0
H2828 H 0.48093 0.45008 0.16821 0.0
H2829 H 0.5136 0.4779 0.24261 0.0
H2830 H 0.5421 0.50915 0.20491 0.0
H2831 H 0.54422 0.50707 0.17894 0.0
H2832 H 0.52156 0.46995 0.14279 0.0
H2833 H 0.49531 0.43797 0.18107 0.0
H2834 H 0.49312 0.44009 0.20702 0.0
H2835 H 0.59167 0.55421 0.11413 0.0
H2836 H 0.57518 0.54799 0.10928 0.0
H2837 H 0.58498 0.53249 0.09196 0.0
C2838 C 0.45638 0.99918 0.28546 0.0
C2839 C 0.44705 0.99904 0.27291 0.0
C2840 C 0.45742 0.99338 0.25193 0.0
C2841 C 0.46949 0.00667 0.25086 0.0
C2842 C 0.48033 0.00881 0.24141 0.0
C2843 C 0.47914 0.99744 0.23293 0.0
C2844 C 0.46692 0.98413 0.23377 0.0
C2845 C 0.45615 0.98232 0.24317 0.0
C2846 C 0.49318 0.02319 0.24064 0.0
C2847 C 0.46534 0.97178 0.22493 0.0
C2848 C 0.56944 0.98808 0.26436 0.0
C2849 C 0.55591 0.98499 0.25773 0.0
C2850 C 0.54516 0.99742 0.24681 0.0
C2851 C 0.53396 0.98549 0.24003 0.0
C2852 C 0.52367 0.98648 0.23201 0.0
C2853 C 0.52456 0.99962 0.23081 0.0
C2854 C 0.53582 0.01164 0.23761 0.0
C2855 C 0.54601 0.01037 0.24547 0.0
C2856 C 0.51181 0.97348 0.22484 0.0
C2857 C 0.53702 0.02579 0.23664 0.0
C2858 C 0.55593 0.02713 0.13892 0.0
C2859 C 0.54587 0.01296 0.14055 0.0
C2860 C 0.5334 0.00902 0.14805 0.0
C2861 C 0.53113 0.01949 0.15426 0.0
C2862 C 0.54123 0.0338 0.15242 0.0
C2863 C 0.5534 0.03741 0.14454 0.0
C2864 C 0.52264 0.99368 0.14931 0.0
C2865 C 0.53924 0.04529 0.15886 0.0
C2866 C 0.44461 0.03288 0.15086 0.0
C2867 C 0.45299 0.03422 0.13701 0.0
C2868 C 0.46507 0.02125 0.14251 0.0
C2869 C 0.46517 0.00885 0.13976 0.0
C2870 C 0.47505 0.00632 0.14656 0.0
C2871 C 0.48521 0.01656 0.15624 0.0
C2872 C 0.48534 0.02924 0.15891 0.0
C2873 C 0.47518 0.03138 0.1522 0.0
C2874 C 0.47457 0.99266 0.14351 0.0
C2875 C 0.49619 0.04054 0.16895 0.0
C2876 C 0.49097 0.9994 0.2237 0.0
C2877 C 0.50172 0.99837 0.23049 0.0
C2878 C 0.51353 0.00074 0.22273 0.0
C2879 C 0.51475 0.00428 0.20773 0.0
C2880 C 0.52663 0.00703 0.19968 0.0
C2881 C 0.52785 0.01078 0.185 0.0
C2882 C 0.51714 0.01169 0.17773 0.0
C2883 C 0.51832 0.01558 0.16283 0.0
C2884 C 0.50756 0.01662 0.15604 0.0
C2885 C 0.49562 0.01401 0.16375 0.0
C2886 C 0.49419 0.00995 0.1786 0.0
C2887 C 0.48228 0.00715 0.18667 0.0
C2888 C 0.4812 0.0037 0.20143 0.0
C2889 C 0.49188 0.00271 0.20865 0.0
C2890 C 0.50385 0.00521 0.20066 0.0
C2891 C 0.50501 0.00886 0.18562 0.0
C2892 C 0.58715 0.03512 0.14646 0.0
C2893 C 0.57716 0.02648 0.13381 0.0
O2894 O 0.44685 0.99068 0.26129 0.0
O2895 O 0.45508 0.02292 0.13565 0.0
O2896 O 0.56791 0.03123 0.13147 0.0
O2897 O 0.55532 0.99691 0.2547 0.0
H2898 H 0.45103 0.0099 0.2691 0.0
H2899 H 0.46732 0.00366 0.28178 0.0
H2900 H 0.45259 0.98837 0.2893 0.0
H2901 H 0.4564 0.00572 0.29484 0.0
H2902 H 0.47062 0.01541 0.2574 0.0
H2903 H 0.44679 0.97213 0.24399 0.0
H2904 H 0.50234 0.02286 0.24507 0.0
H2905 H 0.49204 0.03119 0.247 0.0
H2906 H 0.49538 0.02648 0.22903 0.0
H2907 H 0.45526 0.96205 0.22698 0.0
H2908 H 0.47404 0.96994 0.22767 0.0
H2909 H 0.46598 0.97407 0.21303 0.0
H2910 H 0.54638 0.97671 0.2632 0.0
H2911 H 0.56671 0.98351 0.27567 0.0
H2912 H 0.5748 0.99928 0.26853 0.0
H2913 H 0.57835 0.98099 0.24805 0.0
H2914 H 0.53318 0.97538 0.24095 0.0
H2915 H 0.55469 0.0195 0.25072 0.0
H2916 H 0.51137 0.97517 0.2129 0.0
H2917 H 0.50174 0.97136 0.2296 0.0
H2918 H 0.51288 0.96413 0.22631 0.0
H2919 H 0.54632 0.03409 0.24272 0.0
H2920 H 0.5275 0.02528 0.24118 0.0
H2921 H 0.53774 0.02879 0.22496 0.0
H2922 H 0.57147 0.01528 0.13692 0.0
H2923 H 0.54759 0.00499 0.1357 0.0
H2924 H 0.56116 0.04832 0.14298 0.0
H2925 H 0.52204 0.99052 0.16092 0.0
H2926 H 0.52519 0.98694 0.1424 0.0
H2927 H 0.51216 0.99177 0.14601 0.0
H2928 H 0.5487 0.0558 0.1578 0.0
H2929 H 0.53657 0.04339 0.17067 0.0
H2930 H 0.53039 0.04529 0.15313 0.0
H2931 H 0.46322 0.04414 0.13791 0.0
H2932 H 0.44254 0.04168 0.15169 0.0
H2933 H 0.45058 0.03321 0.16081 0.0
H2934 H 0.43449 0.02282 0.15069 0.0
H2935 H 0.45736 0.00107 0.13232 0.0
H2936 H 0.47529 0.04099 0.1547 0.0
H2937 H 0.47401 0.98743 0.15401 0.0
H2938 H 0.48431 0.99474 0.13796 0.0
H2939 H 0.46549 0.98541 0.13644 0.0
H2940 H 0.49607 0.05049 0.16831 0.0
H2941 H 0.5068 0.04264 0.16614 0.0
H2942 H 0.49416 0.03697 0.18047 0.0
H2943 H 0.50095 0.99583 0.24205 0.0
H2944 H 0.53518 0.00643 0.20467 0.0
H2945 H 0.53732 0.01295 0.17944 0.0
H2946 H 0.50866 0.01989 0.1447 0.0
H2947 H 0.4737 0.00769 0.18168 0.0
H2948 H 0.47187 0.00181 0.20712 0.0
H2949 H 0.59349 0.04632 0.14345 0.0
H2950 H 0.59426 0.03117 0.14928 0.0
H2951 H 0.58107 0.03436 0.15642 0.0
C2952 C 0.54287 0.99387 0.72387 0.0
C2953 C 0.55265 0.00291 0.73644 0.0
C2954 C 0.54234 0.99587 0.76037 0.0
C2955 C 0.54645 0.00876 0.76734 0.0
C2956 C 0.53806 0.0099 0.7781 0.0
C2957 C 0.52526 0.9979 0.78184 0.0
C2958 C 0.52147 0.98474 0.77534 0.0
C2959 C 0.53022 0.98386 0.7648 0.0
C2960 C 0.54259 0.02404 0.78506 0.0
C2961 C 0.50788 0.97175 0.77899 0.0
C2962 C 0.48367 0.04185 0.73734 0.0
C2963 C 0.47264 0.02687 0.7412 0.0
C2964 C 0.47577 0.02109 0.76572 0.0
C2965 C 0.47135 0.00682 0.76559 0.0
C2966 C 0.47783 0.00163 0.77475 0.0
C2967 C 0.48913 0.01103 0.78399 0.0
C2968 C 0.49339 0.02545 0.78432 0.0
C2969 C 0.48646 0.03026 0.77532 0.0
C2970 C 0.47287 0.98619 0.77423 0.0
C2971 C 0.5056 0.03585 0.79374 0.0
C2972 C 0.46355 0.00278 0.87939 0.0
C2973 C 0.4587 0.99002 0.87175 0.0
C2974 C 0.46788 0.98757 0.86335 0.0
C2975 C 0.48212 0.99815 0.86252 0.0
C2976 C 0.48704 0.01092 0.87041 0.0
C2977 C 0.4777 0.01298 0.87891 0.0
C2978 C 0.46238 0.97367 0.85543 0.0
C2979 C 0.50215 0.02243 0.86979 0.0
C2980 C 0.55337 0.95903 0.86652 0.0
C2981 C 0.55539 0.9727 0.87318 0.0
C2982 C 0.53494 0.97521 0.87362 0.0
C2983 C 0.52077 0.96589 0.87085 0.0
C2984 C 0.51238 0.97039 0.86404 0.0
C2985 C 0.5183 0.98466 0.86037 0.0
C2986 C 0.53247 0.9943 0.86404 0.0
C2987 C 0.54069 0.98942 0.87048 0.0
C2988 C 0.4973 0.95983 0.86045 0.0
C2989 C 0.53899 0.00969 0.86097 0.0
C2990 C 0.51517 0.99947 0.79117 0.0
C2991 C 0.50693 0.00402 0.78434 0.0
C2992 C 0.49727 0.00599 0.79222 0.0
C2993 C 0.49572 0.00333 0.80744 0.0
C2994 C 0.48606 0.00513 0.81572 0.0
C2995 C 0.48483 0.00278 0.83075 0.0
C2996 C 0.49306 0.99832 0.83806 0.0
C2997 C 0.49188 0.99591 0.85334 0.0
C2998 C 0.50025 0.99153 0.86026 0.0
C2999 C 0.50979 0.98939 0.85232 0.0
C3000 C 0.51109 0.9917 0.837 0.0
C3001 C 0.5205 0.98958 0.82861 0.0
C3002 C 0.52193 0.99219 0.81362 0.0
C3003 C 0.51381 0.99678 0.80638 0.0
C3004 C 0.50407 0.99877 0.81455 0.0
C3005 C 0.50273 0.99625 0.82988 0.0
C3006 C 0.44236 0.01463 0.87634 0.0
C3007 C 0.44158 0.00224 0.88445 0.0
O3008 O 0.54965 0.99493 0.74895 0.0
O3009 O 0.5429 0.97024 0.87921 0.0
O3010 O 0.45508 0.00539 0.88789 0.0
O3011 O 0.47016 0.0262 0.75616 0.0
H3012 H 0.55057 0.01166 0.73824 0.0
H3013 H 0.53188 0.99036 0.72677 0.0
H3014 H 0.54374 0.98443 0.7218 0.0
H3015 H 0.54539 1.0 0.71364 0.0
H3016 H 0.55607 0.01796 0.76411 0.0
H3017 H 0.52726 0.97394 0.75942 0.0
H3018 H 0.5358 0.02795 0.78089 0.0
H3019 H 0.55362 0.03186 0.78256 0.0
H3020 H 0.54139 0.02314 0.79717 0.0
H3021 H 0.50648 0.96231 0.77301 0.0
H3022 H 0.49899 0.97326 0.77616 0.0
H3023 H 0.50748 0.96989 0.79097 0.0
H3024 H 0.47684 0.01994 0.73808 0.0
H3025 H 0.48581 0.04258 0.72537 0.0
H3026 H 0.49357 0.04497 0.74338 0.0
H3027 H 0.48011 0.04928 0.7404 0.0
H3028 H 0.46296 0.99982 0.75815 0.0
H3029 H 0.48974 0.04129 0.77526 0.0
H3030 H 0.47171 0.98213 0.78553 0.0
H3031 H 0.48076 0.98451 0.76859 0.0
H3032 H 0.46273 0.98004 0.76824 0.0
H3033 H 0.50822 0.0468 0.79192 0.0
H3034 H 0.51495 0.03499 0.79137 0.0
H3035 H 0.50312 0.03346 0.80551 0.0
H3036 H 0.43619 0.99281 0.87715 0.0
H3037 H 0.44789 0.98182 0.87261 0.0
H3038 H 0.48136 0.02269 0.88507 0.0
H3039 H 0.46323 0.97529 0.84339 0.0
H3040 H 0.45129 0.96616 0.85803 0.0
H3041 H 0.46881 0.96896 0.85842 0.0
H3042 H 0.50414 0.03204 0.87588 0.0
H3043 H 0.50526 0.02512 0.85818 0.0
H3044 H 0.50889 0.01871 0.87457 0.0
H3045 H 0.55848 0.98021 0.86399 0.0
H3046 H 0.56329 0.96076 0.86169 0.0
H3047 H 0.54529 0.9552 0.85766 0.0
H3048 H 0.5499 0.95083 0.87498 0.0
H3049 H 0.51642 0.95497 0.87353 0.0
H3050 H 0.5516 0.99667 0.87308 0.0
H3051 H 0.49511 0.96029 0.84862 0.0
H3052 H 0.4904 0.96242 0.86687 0.0
H3053 H 0.4946 0.94897 0.86299 0.0
H3054 H 0.5493 0.01605 0.86657 0.0
H3055 H 0.53197 0.01357 0.86457 0.0
H3056 H 0.5405 0.01133 0.84896 0.0
H3057 H 0.50809 0.00614 0.77266 0.0
H3058 H 0.47941 0.00847 0.81067 0.0
H3059 H 0.47732 0.00449 0.83658 0.0
H3060 H 0.49934 0.98978 0.872 0.0
H3061 H 0.52696 0.98595 0.83355 0.0
H3062 H 0.52945 0.99053 0.80776 0.0
H3063 H 0.43178 0.01231 0.87287 0.0
H3064 H 0.44876 0.01675 0.86632 0.0
H3065 H 0.44725 0.02419 0.8835 0.0
C3066 C 0.03022 0.56699 0.73402 0.0
C3067 C 0.01828 0.56279 0.74482 0.0
C3068 C 0.01909 0.55243 0.768 0.0
C3069 C 0.00489 0.5426 0.76979 0.0
C3070 C 0.00071 0.53119 0.77911 0.0
C3071 C 0.01098 0.52953 0.7866 0.0
C3072 C 0.02532 0.5396 0.78492 0.0
C3073 C 0.02914 0.5511 0.77589 0.0
C3074 C 0.98534 0.52083 0.78083 0.0
C3075 C 0.03665 0.53807 0.79237 0.0
C3076 C 0.99456 0.42627 0.75267 0.0
C3077 C 0.0009 0.44051 0.75937 0.0
C3078 C 0.99398 0.4565 0.76982 0.0
C3079 C 0.00725 0.46599 0.7758 0.0
C3080 C 0.00948 0.47775 0.78404 0.0
C3081 C 0.99819 0.48 0.78653 0.0
C3082 C 0.98482 0.47049 0.78055 0.0
C3083 C 0.98292 0.45887 0.7722 0.0
C3084 C 0.02394 0.4878 0.79008 0.0
C3085 C 0.97256 0.47257 0.78305 0.0
C3086 C 0.99929 0.45719 0.87806 0.0
C3087 C 0.0122 0.46673 0.87198 0.0
C3088 C 0.01435 0.47921 0.86585 0.0
C3089 C 0.00331 0.48212 0.86575 0.0
C3090 C 0.99055 0.47288 0.87263 0.0
C3091 C 0.98876 0.46056 0.87887 0.0
C3092 C 0.02826 0.48906 0.85907 0.0
C3093 C 0.97864 0.47576 0.87288 0.0
C3094 C 0.03356 0.58888 0.86934 0.0
C3095 C 0.02555 0.58024 0.88261 0.0
C3096 C 0.02516 0.5581 0.88004 0.0
C3097 C 0.03472 0.55401 0.87601 0.0
C3098 C 0.03024 0.54104 0.86897 0.0
C3099 C 0.01581 0.53187 0.86619 0.0
C3100 C 0.00602 0.53562 0.87099 0.0
C3101 C 0.0108 0.54871 0.8779 0.0
C3102 C 0.04095 0.53729 0.86416 0.0
C3103 C 0.99054 0.52589 0.86858 0.0
C3104 C 0.00682 0.51687 0.79544 0.0
C3105 C 0.00343 0.50447 0.78786 0.0
C3106 C 0.00046 0.49237 0.79535 0.0
C3107 C 0.00076 0.49253 0.81087 0.0
C3108 C 0.99778 0.48052 0.81873 0.0
C3109 C 0.99883 0.48097 0.83398 0.0
C3110 C 0.00294 0.49347 0.84196 0.0
C3111 C 0.00477 0.49421 0.85741 0.0
C3112 C 0.00874 0.50676 0.86502 0.0
C3113 C 0.01104 0.5187 0.85758 0.0
C3114 C 0.00938 0.51818 0.84212 0.0
C3115 C 0.01172 0.53001 0.83426 0.0
C3116 C 0.01056 0.52953 0.81901 0.0
C3117 C 0.00721 0.51726 0.81099 0.0
C3118 C 0.00435 0.50508 0.81871 0.0
C3119 C 0.00545 0.50554 0.83429 0.0
C3120 C 0.98558 0.42447 0.86738 0.0
C3121 C 0.99912 0.4353 0.87518 0.0
O3122 O 0.02343 0.5634 0.75889 0.0
O3123 O 0.03013 0.57107 0.88612 0.0
O3124 O 0.99673 0.44466 0.88312 0.0
O3125 O 0.99144 0.44499 0.76176 0.0
H3126 H 0.00995 0.5519 0.74181 0.0
H3127 H 0.03457 0.55995 0.73516 0.0
H3128 H 0.03872 0.57794 0.73626 0.0
H3129 H 0.02644 0.56607 0.72251 0.0
H3130 H 0.99709 0.54391 0.764 0.0
H3131 H 0.04007 0.55887 0.77452 0.0
H3132 H 0.98272 0.51078 0.77529 0.0
H3133 H 0.97868 0.52462 0.77598 0.0
H3134 H 0.98279 0.51869 0.79264 0.0
H3135 H 0.0472 0.54561 0.78821 0.0
H3136 H 0.03474 0.52728 0.79069 0.0
H3137 H 0.0366 0.53994 0.80437 0.0
H3138 H 0.01082 0.44855 0.75427 0.0
H3139 H 0.99971 0.42786 0.74166 0.0
H3140 H 0.98414 0.42375 0.74786 0.0
H3141 H 0.99655 0.4141 0.76948 0.0
H3142 H 0.01594 0.46432 0.77406 0.0
H3143 H 0.97272 0.45151 0.76757 0.0
H3144 H 0.02378 0.48761 0.80227 0.0
H3145 H 0.02725 0.49865 0.78678 0.0
H3146 H 0.03183 0.48516 0.78623 0.0
H3147 H 0.96269 0.46387 0.77826 0.0
H3148 H 0.97467 0.48253 0.77805 0.0
H3149 H 0.97117 0.47343 0.79502 0.0
H3150 H 0.007 0.44078 0.8665 0.0
H3151 H 0.02055 0.46438 0.87194 0.0
H3152 H 0.97893 0.45322 0.88385 0.0
H3153 H 0.02702 0.48869 0.84694 0.0
H3154 H 0.03632 0.48629 0.86182 0.0
H3155 H 0.03204 0.49999 0.86286 0.0
H3156 H 0.9694 0.46755 0.87871 0.0
H3157 H 0.97548 0.47637 0.86145 0.0
H3158 H 0.98212 0.48604 0.87838 0.0
H3159 H 0.0143 0.57445 0.87945 0.0
H3160 H 0.03027 0.59655 0.8667 0.0
H3161 H 0.0313 0.58184 0.85962 0.0
H3162 H 0.04502 0.59458 0.87151 0.0
H3163 H 0.04576 0.56123 0.87799 0.0
H3164 H 0.00328 0.55149 0.8817 0.0
H3165 H 0.04024 0.53556 0.85206 0.0
H3166 H 0.03874 0.52736 0.8693 0.0
H3167 H 0.05178 0.54557 0.86716 0.0
H3168 H 0.98422 0.52991 0.87386 0.0
H3169 H 0.98736 0.51542 0.87303 0.0
H3170 H 0.98813 0.52449 0.85661 0.0
H3171 H 0.00351 0.50433 0.77594 0.0
H3172 H 0.99472 0.47065 0.81317 0.0
H3173 H 0.99652 0.47142 0.83941 0.0
H3174 H 0.01027 0.50731 0.87685 0.0
H3175 H 0.01458 0.53983 0.83981 0.0
H3176 H 0.01252 0.53896 0.81354 0.0
H3177 H 0.97711 0.4188 0.87542 0.0
H3178 H 0.98726 0.41679 0.86109 0.0
H3179 H 0.98217 0.4298 0.85956 0.0
C3180 C 0.56031 0.57758 0.74527 0.0
C3181 C 0.54602 0.57235 0.75093 0.0
C3182 C 0.52836 0.55248 0.76478 0.0
C3183 C 0.51994 0.55834 0.76774 0.0
C3184 C 0.5078 0.55111 0.77614 0.0
C3185 C 0.5041 0.53784 0.78175 0.0
C3186 C 0.51262 0.53199 0.77886 0.0
C3187 C 0.52462 0.53939 0.77037 0.0
C3188 C 0.4989 0.55759 0.77901 0.0
C3189 C 0.50899 0.51788 0.78471 0.0
C3190 C 0.41255 0.47722 0.72768 0.0
C3191 C 0.4202 0.47386 0.73948 0.0
C3192 C 0.43075 0.48708 0.7622 0.0
C3193 C 0.44068 0.48299 0.76449 0.0
C3194 C 0.4521 0.49069 0.77408 0.0
C3195 C 0.45375 0.50286 0.78129 0.0
C3196 C 0.44358 0.50684 0.77916 0.0
C3197 C 0.43204 0.49867 0.76988 0.0
C3198 C 0.46253 0.48593 0.7763 0.0
C3199 C 0.44507 0.51993 0.7863 0.0
C3200 C 0.42864 0.48892 0.87592 0.0
C3201 C 0.43855 0.48491 0.87297 0.0
C3202 C 0.4509 0.49389 0.86554 0.0
C3203 C 0.45338 0.50712 0.86103 0.0
C3204 C 0.44366 0.51138 0.86449 0.0
C3205 C 0.43146 0.50224 0.87205 0.0
C3206 C 0.46126 0.4892 0.86238 0.0
C3207 C 0.44604 0.52547 0.85999 0.0
C3208 C 0.54498 0.60408 0.87126 0.0
C3209 C 0.53778 0.59516 0.88469 0.0
C3210 C 0.52398 0.57086 0.87525 0.0
C3211 C 0.52292 0.55773 0.87502 0.0
C3212 C 0.5118 0.54619 0.86767 0.0
C3213 C 0.50148 0.54786 0.86038 0.0
C3214 C 0.5024 0.56108 0.86064 0.0
C3215 C 0.51366 0.57244 0.86799 0.0
C3216 C 0.51115 0.53226 0.86753 0.0
C3217 C 0.49153 0.56322 0.85303 0.0
C3218 C 0.49118 0.52987 0.79038 0.0
C3219 C 0.47891 0.52045 0.78281 0.0
C3220 C 0.46651 0.51195 0.79026 0.0
C3221 C 0.46637 0.51265 0.80579 0.0
C3222 C 0.45433 0.50373 0.81372 0.0
C3223 C 0.45419 0.50482 0.82897 0.0
C3224 C 0.46608 0.5149 0.83686 0.0
C3225 C 0.46595 0.51634 0.85232 0.0
C3226 C 0.47776 0.52689 0.85973 0.0
C3227 C 0.48987 0.53596 0.85212 0.0
C3228 C 0.49043 0.53425 0.83676 0.0
C3229 C 0.50266 0.54276 0.82888 0.0
C3230 C 0.50301 0.5412 0.81372 0.0
C3231 C 0.49105 0.53129 0.80583 0.0
C3232 C 0.47861 0.52258 0.81356 0.0
C3233 C 0.4784 0.52386 0.82908 0.0
C3234 C 0.39507 0.46303 0.8717 0.0
C3235 C 0.40807 0.46603 0.88055 0.0
O3236 O 0.54012 0.55903 0.75662 0.0
O3237 O 0.53512 0.58161 0.88247 0.0
O3238 O 0.41645 0.48038 0.88278 0.0
O3239 O 0.41987 0.48016 0.75262 0.0
H3240 H 0.53882 0.57381 0.74358 0.0
H3241 H 0.56161 0.56818 0.74374 0.0
H3242 H 0.57338 0.5947 0.75975 0.0
H3243 H 0.5594 0.57889 0.73313 0.0
H3244 H 0.52273 0.56848 0.76348 0.0
H3245 H 0.5312 0.53498 0.76805 0.0
H3246 H 0.48813 0.55051 0.77472 0.0
H3247 H 0.50315 0.56796 0.77381 0.0
H3248 H 0.49817 0.5589 0.79102 0.0
H3249 H 0.51691 0.51495 0.78183 0.0
H3250 H 0.49869 0.50972 0.78018 0.0
H3251 H 0.5081 0.51794 0.79685 0.0
H3252 H 0.43121 0.47836 0.73579 0.0
H3253 H 0.4129 0.47256 0.7169 0.0
H3254 H 0.41766 0.48874 0.72649 0.0
H3255 H 0.40146 0.47307 0.73071 0.0
H3256 H 0.43949 0.47377 0.75883 0.0
H3257 H 0.42422 0.50164 0.76811 0.0
H3258 H 0.46532 0.48652 0.78813 0.0
H3259 H 0.47224 0.49296 0.77031 0.0
H3260 H 0.45848 0.47505 0.77215 0.0
H3261 H 0.43746 0.52265 0.78175 0.0
H3262 H 0.4558 0.52894 0.7848 0.0
H3263 H 0.44329 0.51834 0.79827 0.0
H3264 H 0.41354 0.46174 0.874 0.0
H3265 H 0.43676 0.47488 0.87661 0.0
H3266 H 0.42386 0.50533 0.87465 0.0
H3267 H 0.46201 0.48814 0.85032 0.0
H3268 H 0.45827 0.47902 0.86746 0.0
H3269 H 0.4718 0.49722 0.86653 0.0
H3270 H 0.43723 0.52702 0.86309 0.0
H3271 H 0.44744 0.52657 0.84792 0.0
H3272 H 0.45577 0.53389 0.8653 0.0
H3273 H 0.52781 0.59505 0.88639 0.0
H3274 H 0.54761 0.61507 0.87331 0.0
H3275 H 0.53794 0.59995 0.86149 0.0
H3276 H 0.5547 0.60397 0.86868 0.0
H3277 H 0.53091 0.55656 0.8806 0.0
H3278 H 0.51429 0.5825 0.86784 0.0
H3279 H 0.51107 0.52878 0.85601 0.0
H3280 H 0.50128 0.52426 0.87263 0.0
H3281 H 0.52011 0.5327 0.87354 0.0
H3282 H 0.49319 0.57387 0.85509 0.0
H3283 H 0.48093 0.55538 0.85679 0.0
H3284 H 0.49184 0.56163 0.841 0.0
H3285 H 0.47902 0.51973 0.77091 0.0
H3286 H 0.44486 0.49583 0.80822 0.0
H3287 H 0.44458 0.49773 0.83447 0.0
H3288 H 0.47743 0.52822 0.87152 0.0
H3289 H 0.51213 0.55069 0.83435 0.0
H3290 H 0.51272 0.54802 0.80823 0.0
H3291 H 0.38818 0.45157 0.86975 0.0
H3292 H 0.39821 0.46816 0.86088 0.0
H3293 H 0.38909 0.46713 0.87761 0.0
C3294 C 0.63851 0.77958 0.6202 0.0
C3295 C 0.63739 0.77023 0.60705 0.0
C3296 C 0.63759 0.78483 0.58675 0.0
C3297 C 0.62341 0.78095 0.58716 0.0
C3298 C 0.61835 0.78802 0.57876 0.0
C3299 C 0.6277 0.79939 0.57006 0.0
C3300 C 0.642 0.80337 0.56971 0.0
C3301 C 0.64667 0.79583 0.57785 0.0
C3302 C 0.60301 0.78335 0.57924 0.0
C3303 C 0.6524 0.81569 0.56092 0.0
C3304 C 0.5991 0.86003 0.62527 0.0
C3305 C 0.61041 0.86399 0.61372 0.0
C3306 C 0.60708 0.85103 0.59077 0.0
C3307 C 0.62095 0.85492 0.58776 0.0
C3308 C 0.62396 0.84686 0.57806 0.0
C3309 C 0.61285 0.83448 0.57154 0.0
C3310 C 0.59884 0.8306 0.57457 0.0
C3311 C 0.59617 0.83917 0.58386 0.0
C3312 C 0.63902 0.85151 0.5749 0.0
C3313 C 0.58666 0.81725 0.56834 0.0
C3314 C 0.59269 0.84333 0.47761 0.0
C3315 C 0.60703 0.84931 0.48066 0.0
C3316 C 0.61213 0.8416 0.48782 0.0
C3317 C 0.60265 0.82774 0.49216 0.0
C3318 C 0.58825 0.82162 0.48878 0.0
C3319 C 0.5835 0.82946 0.48137 0.0
C3320 C 0.62761 0.84828 0.49082 0.0
C3321 C 0.57783 0.80685 0.49314 0.0
C3322 C 0.61073 0.73906 0.47549 0.0
C3323 C 0.6141 0.7494 0.46293 0.0
C3324 C 0.6205 0.77187 0.47542 0.0
C3325 C 0.63159 0.78539 0.4784 0.0
C3326 C 0.62956 0.79525 0.48612 0.0
C3327 C 0.61606 0.79141 0.4911 0.0
C3328 C 0.60471 0.77778 0.48804 0.0
C3329 C 0.60703 0.76813 0.4802 0.0
C3330 C 0.64189 0.80971 0.48914 0.0
C3331 C 0.59019 0.77335 0.49327 0.0
C3332 C 0.62263 0.8074 0.56167 0.0
C3333 C 0.62028 0.81696 0.56944 0.0
C3334 C 0.61586 0.82516 0.56229 0.0
C3335 C 0.61399 0.82402 0.54684 0.0
C3336 C 0.61002 0.83242 0.53919 0.0
C3337 C 0.60787 0.83096 0.52404 0.0
C3338 C 0.60985 0.82123 0.51589 0.0
C3339 C 0.60769 0.81967 0.50048 0.0
C3340 C 0.60983 0.80992 0.49274 0.0
C3341 C 0.61392 0.80151 0.49999 0.0
C3342 C 0.61599 0.80282 0.51541 0.0
C3343 C 0.61991 0.79438 0.52307 0.0
C3344 C 0.622 0.79579 0.53822 0.0
C3345 C 0.62032 0.80574 0.5463 0.0
C3346 C 0.61613 0.81419 0.53884 0.0
C3347 C 0.61402 0.81277 0.52337 0.0
C3348 C 0.58082 0.86773 0.47278 0.0
C3349 C 0.59285 0.86484 0.47121 0.0
O3350 O 0.64301 0.77836 0.59472 0.0
O3351 O 0.6234 0.76281 0.4682 0.0
O3352 O 0.5873 0.85047 0.47093 0.0
O3353 O 0.60389 0.85853 0.60024 0.0
H3354 H 0.62625 0.76221 0.60494 0.0
H3355 H 0.63271 0.78508 0.61786 0.0
H3356 H 0.64963 0.78753 0.62255 0.0
H3357 H 0.63392 0.77321 0.63014 0.0
H3358 H 0.61619 0.77239 0.59389 0.0
H3359 H 0.65757 0.79874 0.5776 0.0
H3360 H 0.60165 0.7914 0.58518 0.0
H3361 H 0.59681 0.77323 0.5849 0.0
H3362 H 0.59874 0.78226 0.56793 0.0
H3363 H 0.66336 0.81858 0.56343 0.0
H3364 H 0.65124 0.82493 0.56315 0.0
H3365 H 0.65037 0.81306 0.54902 0.0
H3366 H 0.61672 0.85919 0.61703 0.0
H3367 H 0.60386 0.86368 0.63639 0.0
H3368 H 0.59223 0.84846 0.62544 0.0
H3369 H 0.59258 0.86474 0.62269 0.0
H3370 H 0.62939 0.86431 0.59291 0.0
H3371 H 0.5855 0.83635 0.58622 0.0
H3372 H 0.64047 0.85072 0.56293 0.0
H3373 H 0.64193 0.84452 0.58056 0.0
H3374 H 0.64625 0.86244 0.57876 0.0
H3375 H 0.57668 0.8146 0.57374 0.0
H3376 H 0.58851 0.80836 0.5696 0.0
H3377 H 0.58549 0.81845 0.55643 0.0
H3378 H 0.59981 0.86966 0.48102 0.0
H3379 H 0.61427 0.85991 0.47734 0.0
H3380 H 0.57248 0.8249 0.47877 0.0
H3381 H 0.62963 0.84981 0.50285 0.0
H3382 H 0.63373 0.85859 0.4855 0.0
H3383 H 0.63139 0.84127 0.48684 0.0
H3384 H 0.56688 0.80402 0.49072 0.0
H3385 H 0.5789 0.80555 0.50506 0.0
H3386 H 0.58002 0.79941 0.48709 0.0
H3387 H 0.60431 0.74874 0.45892 0.0
H3388 H 0.60151 0.7287 0.47262 0.0
H3389 H 0.60812 0.7429 0.48562 0.0
H3390 H 0.61985 0.73782 0.47799 0.0
H3391 H 0.64194 0.78817 0.47468 0.0
H3392 H 0.59832 0.75768 0.4781 0.0
H3393 H 0.64384 0.8114 0.50117 0.0
H3394 H 0.63953 0.81773 0.48517 0.0
H3395 H 0.65156 0.81131 0.4838 0.0
H3396 H 0.5825 0.76229 0.49023 0.0
H3397 H 0.58666 0.7802 0.48843 0.0
H3398 H 0.59032 0.77463 0.5054 0.0
H3399 H 0.62184 0.81798 0.58127 0.0
H3400 H 0.60848 0.84018 0.54485 0.0
H3401 H 0.60467 0.83762 0.51878 0.0
H3402 H 0.60818 0.80879 0.48092 0.0
H3403 H 0.6214 0.78656 0.51745 0.0
H3404 H 0.62496 0.78897 0.54352 0.0
H3405 H 0.57355 0.86332 0.46318 0.0
H3406 H 0.58485 0.87917 0.47366 0.0
H3407 H 0.5749 0.8628 0.4829 0.0
C3408 C 0.13918 0.74568 0.63397 0.0
C3409 C 0.13437 0.75188 0.62197 0.0
C3410 C 0.14644 0.76063 0.59879 0.0
C3411 C 0.14261 0.77063 0.59583 0.0
C3412 C 0.15016 0.78131 0.58577 0.0
C3413 C 0.16193 0.78213 0.57879 0.0
C3414 C 0.1657 0.77192 0.58169 0.0
C3415 C 0.15765 0.7611 0.59139 0.0
C3416 C 0.14565 0.79181 0.58278 0.0
C3417 C 0.1784 0.77258 0.57487 0.0
C3418 C 0.24458 0.89164 0.60478 0.0
C3419 C 0.23801 0.87659 0.60063 0.0
C3420 C 0.21582 0.85776 0.5904 0.0
C3421 C 0.22071 0.84853 0.5872 0.0
C3422 C 0.21206 0.83564 0.57998 0.0
C3423 C 0.19832 0.83199 0.57572 0.0
C3424 C 0.19337 0.84123 0.57898 0.0
C3425 C 0.20218 0.85397 0.58636 0.0
C3426 C 0.2176 0.82594 0.57683 0.0
C3427 C 0.1788 0.83768 0.57458 0.0
C3428 C 0.22689 0.84524 0.48334 0.0
C3429 C 0.22918 0.83632 0.49227 0.0
C3430 C 0.21804 0.82505 0.49934 0.0
C3431 C 0.20436 0.82282 0.49775 0.0
C3432 C 0.20194 0.8315 0.48841 0.0
C3433 C 0.21324 0.8425 0.48119 0.0
C3434 C 0.22098 0.8157 0.50877 0.0
C3435 C 0.18749 0.82939 0.48641 0.0
C3436 C 0.11811 0.7131 0.48558 0.0
C3437 C 0.12327 0.7278 0.47982 0.0
C3438 C 0.14622 0.74814 0.48607 0.0
C3439 C 0.15946 0.75145 0.49113 0.0
C3440 C 0.16848 0.76441 0.49799 0.0
C3441 C 0.16419 0.7744 0.49959 0.0
C3442 C 0.15104 0.77137 0.4939 0.0
C3443 C 0.14217 0.75826 0.48716 0.0
C3444 C 0.1825 0.76736 0.50376 0.0
C3445 C 0.14632 0.78194 0.49511 0.0
C3446 C 0.1708 0.79408 0.56915 0.0
C3447 C 0.17985 0.80703 0.57593 0.0
C3448 C 0.18915 0.81856 0.56774 0.0
C3449 C 0.18972 0.81715 0.55234 0.0
C3450 C 0.1992 0.82844 0.54382 0.0
C3451 C 0.20011 0.82679 0.52876 0.0
C3452 C 0.19147 0.81381 0.52162 0.0
C3453 C 0.19279 0.81185 0.50645 0.0
C3454 C 0.18365 0.799 0.49957 0.0
C3455 C 0.17333 0.78787 0.50752 0.0
C3456 C 0.17223 0.78946 0.52282 0.0
C3457 C 0.16231 0.77835 0.53127 0.0
C3458 C 0.16166 0.77989 0.54641 0.0
C3459 C 0.17092 0.79258 0.55369 0.0
C3460 C 0.18062 0.80409 0.54531 0.0
C3461 C 0.18137 0.80248 0.52989 0.0
C3462 C 0.25344 0.87137 0.49576 0.0
C3463 C 0.25148 0.86374 0.48096 0.0
O3464 O 0.13954 0.75037 0.60866 0.0
O3465 O 0.13776 0.73517 0.48012 0.0
O3466 O 0.23747 0.85663 0.47678 0.0
O3467 O 0.22387 0.87037 0.59727 0.0
H3468 H 0.1388 0.76318 0.62483 0.0
H3469 H 0.15078 0.75105 0.63421 0.0
H3470 H 0.13493 0.73432 0.63184 0.0
H3471 H 0.13568 0.74715 0.64493 0.0
H3472 H 0.13367 0.77002 0.60129 0.0
H3473 H 0.16042 0.75322 0.5937 0.0
H3474 H 0.15311 0.80194 0.58825 0.0
H3475 H 0.13502 0.78834 0.58697 0.0
H3476 H 0.14579 0.79365 0.5708 0.0
H3477 H 0.18119 0.76533 0.58017 0.0
H3478 H 0.18753 0.78338 0.57571 0.0
H3479 H 0.17628 0.76964 0.56305 0.0
H3480 H 0.2406 0.87022 0.60795 0.0
H3481 H 0.2481 0.8923 0.61655 0.0
H3482 H 0.23581 0.89359 0.60763 0.0
H3483 H 0.25881 0.90217 0.58741 0.0
H3484 H 0.23124 0.85131 0.59033 0.0
H3485 H 0.19851 0.86114 0.58889 0.0
H3486 H 0.21036 0.8154 0.5812 0.0
H3487 H 0.22816 0.82987 0.58172 0.0
H3488 H 0.21818 0.82473 0.56477 0.0
H3489 H 0.17672 0.84625 0.57737 0.0
H3490 H 0.17103 0.82805 0.58022 0.0
H3491 H 0.17722 0.83548 0.56256 0.0
H3492 H 0.25529 0.85624 0.48191 0.0
H3493 H 0.2396 0.83807 0.49386 0.0
H3494 H 0.21154 0.84933 0.47417 0.0
H3495 H 0.22027 0.81801 0.52053 0.0
H3496 H 0.23156 0.81728 0.50686 0.0
H3497 H 0.2131 0.80452 0.50656 0.0
H3498 H 0.18746 0.83746 0.47934 0.0
H3499 H 0.18312 0.82969 0.49727 0.0
H3500 H 0.18048 0.81891 0.48134 0.0
H3501 H 0.11908 0.73276 0.48736 0.0
H3502 H 0.1065 0.70697 0.48561 0.0
H3503 H 0.12198 0.71382 0.49702 0.0
H3504 H 0.12201 0.70747 0.47867 0.0
H3505 H 0.16257 0.74365 0.49 0.0
H3506 H 0.13218 0.75602 0.48269 0.0
H3507 H 0.18329 0.76962 0.51576 0.0
H3508 H 0.19097 0.77679 0.49844 0.0
H3509 H 0.18425 0.75845 0.50174 0.0
H3510 H 0.13607 0.77825 0.48957 0.0
H3511 H 0.15422 0.79195 0.49016 0.0
H3512 H 0.14545 0.78414 0.50687 0.0
H3513 H 0.17975 0.80812 0.58779 0.0
H3514 H 0.20618 0.83864 0.54871 0.0
H3515 H 0.20772 0.83581 0.5228 0.0
H3516 H 0.18474 0.79755 0.48794 0.0
H3517 H 0.15503 0.76827 0.52629 0.0
H3518 H 0.15387 0.77096 0.55236 0.0
H3519 H 0.24959 0.87887 0.495 0.0
H3520 H 0.26465 0.87719 0.49909 0.0
H3521 H 0.24756 0.86376 0.50447 0.0
C3522 C 0.14272 0.36133 0.6155 0.0
C3523 C 0.13392 0.36235 0.60304 0.0
C3524 C 0.14756 0.36176 0.58202 0.0
C3525 C 0.15865 0.37568 0.58323 0.0
C3526 C 0.17087 0.38022 0.57508 0.0
C3527 C 0.17209 0.37062 0.56567 0.0
C3528 C 0.16083 0.35668 0.56422 0.0
C3529 C 0.14863 0.35251 0.57227 0.0
C3530 C 0.18259 0.39522 0.57671 0.0
C3531 C 0.16181 0.34608 0.55447 0.0
C3532 C 0.27298 0.39647 0.59388 0.0
C3533 C 0.26062 0.3871 0.60369 0.0
C3534 C 0.24024 0.37764 0.58687 0.0
C3535 C 0.23041 0.36568 0.57908 0.0
C3536 C 0.22021 0.36588 0.57011 0.0
C3537 C 0.21984 0.3784 0.56896 0.0
C3538 C 0.22972 0.39057 0.57681 0.0
C3539 C 0.23985 0.39009 0.58567 0.0
C3540 C 0.20983 0.35272 0.56185 0.0
C3541 C 0.22954 0.40407 0.57583 0.0
C3542 C 0.25612 0.40305 0.47945 0.0
C3543 C 0.24635 0.38901 0.48226 0.0
C3544 C 0.23325 0.38524 0.48813 0.0
C3545 C 0.23009 0.39582 0.49169 0.0
C3546 C 0.23978 0.40994 0.48838 0.0
C3547 C 0.2526 0.41332 0.48203 0.0
C3548 C 0.22293 0.36999 0.49075 0.0
C3549 C 0.23679 0.42152 0.49189 0.0
C3550 C 0.13873 0.39846 0.48019 0.0
C3551 C 0.14548 0.39848 0.46552 0.0
C3552 C 0.16072 0.38933 0.47284 0.0
C3553 C 0.16183 0.37732 0.47294 0.0
C3554 C 0.17259 0.37704 0.48079 0.0
C3555 C 0.18255 0.38916 0.48865 0.0
C3556 C 0.18177 0.40151 0.48826 0.0
C3557 C 0.17086 0.40147 0.48039 0.0
C3558 C 0.17316 0.36373 0.48095 0.0
C3559 C 0.19235 0.41466 0.49641 0.0
C3560 C 0.18543 0.37494 0.55802 0.0
C3561 C 0.1962 0.37503 0.56611 0.0
C3562 C 0.20899 0.37871 0.55967 0.0
C3563 C 0.21116 0.38238 0.54471 0.0
C3564 C 0.22393 0.38621 0.53793 0.0
C3565 C 0.22591 0.38963 0.52314 0.0
C3566 C 0.21513 0.38916 0.51451 0.0
C3567 C 0.21689 0.39221 0.49935 0.0
C3568 C 0.20605 0.39195 0.49121 0.0
C3569 C 0.19345 0.38878 0.4978 0.0
C3570 C 0.19141 0.38548 0.51287 0.0
C3571 C 0.17879 0.38209 0.5198 0.0
C3572 C 0.17684 0.37876 0.53461 0.0
C3573 C 0.1874 0.37861 0.54305 0.0
C3574 C 0.20028 0.38222 0.53634 0.0
C3575 C 0.20227 0.38562 0.52123 0.0
C3576 C 0.2921 0.41427 0.48283 0.0
C3577 C 0.2774 0.40193 0.47963 0.0
O3578 O 0.13574 0.35673 0.59009 0.0
O3579 O 0.14967 0.38862 0.46551 0.0
O3580 O 0.26907 0.40699 0.47443 0.0
O3581 O 0.24983 0.37662 0.5953 0.0
H3582 H 0.13707 0.37349 0.60143 0.0
H3583 H 0.15401 0.36744 0.61291 0.0
H3584 H 0.13976 0.35025 0.61712 0.0
H3585 H 0.14116 0.36566 0.62593 0.0
H3586 H 0.15789 0.38304 0.59055 0.0
H3587 H 0.13999 0.34182 0.57134 0.0
H3588 H 0.19157 0.39554 0.58252 0.0
H3589 H 0.1794 0.40179 0.58302 0.0
H3590 H 0.18623 0.39984 0.56573 0.0
H3591 H 0.15252 0.33542 0.55537 0.0
H3592 H 0.17131 0.34563 0.5574 0.0
H3593 H 0.16279 0.34931 0.54285 0.0
H3594 H 0.25692 0.39355 0.60939 0.0
H3595 H 0.28167 0.40481 0.60061 0.0
H3596 H 0.26983 0.40159 0.58556 0.0
H3597 H 0.27681 0.3902 0.58805 0.0
H3598 H 0.23079 0.35613 0.58005 0.0
H3599 H 0.24738 0.3995 0.59153 0.0
H3600 H 0.21045 0.35477 0.54989 0.0
H3601 H 0.19906 0.34956 0.56534 0.0
H3602 H 0.21166 0.34389 0.56372 0.0
H3603 H 0.23789 0.41262 0.58269 0.0
H3604 H 0.21926 0.40236 0.57944 0.0
H3605 H 0.23092 0.40746 0.56424 0.0
H3606 H 0.27337 0.39665 0.49032 0.0
H3607 H 0.24896 0.38101 0.47984 0.0
H3608 H 0.26018 0.42411 0.47962 0.0
H3609 H 0.22269 0.3679 0.50266 0.0
H3610 H 0.22577 0.36299 0.48475 0.0
H3611 H 0.21223 0.36731 0.48728 0.0
H3612 H 0.246 0.43207 0.4901 0.0
H3613 H 0.23349 0.4209 0.50349 0.0
H3614 H 0.22805 0.42026 0.48478 0.0
H3615 H 0.15467 0.40906 0.46369 0.0
H3616 H 0.13515 0.40618 0.48006 0.0
H3617 H 0.14634 0.40138 0.4894 0.0
H3618 H 0.12963 0.3879 0.4823 0.0
H3619 H 0.15404 0.36803 0.46703 0.0
H3620 H 0.1703 0.41094 0.48033 0.0
H3621 H 0.17222 0.36008 0.49242 0.0
H3622 H 0.18342 0.36578 0.47681 0.0
H3623 H 0.16472 0.35523 0.47413 0.0
H3624 H 0.19076 0.42363 0.49437 0.0
H3625 H 0.20308 0.41756 0.49305 0.0
H3626 H 0.19159 0.41271 0.50839 0.0
H3627 H 0.1946 0.37212 0.57757 0.0
H3628 H 0.23255 0.38661 0.54397 0.0
H3629 H 0.236 0.39257 0.51856 0.0
H3630 H 0.20746 0.39436 0.47961 0.0
H3631 H 0.17024 0.38192 0.51384 0.0
H3632 H 0.16692 0.37623 0.53936 0.0
H3633 H 0.29898 0.41045 0.487 0.0
H3634 H 0.29162 0.42128 0.49136 0.0
H3635 H 0.29675 0.42044 0.47279 0.0
H3636 H 0.98981 0.37534 0.07715 0.0
H3637 H 0.00149 0.4032 0.04018 0.0
H3638 H 0.00459 0.42241 0.05683 0.0
H3639 H 0.97042 0.38924 0.09654 0.0
H3640 H 0.97613 0.38722 0.11443 0.0
H3641 H 0.97434 0.37553 0.09951 0.0
H3642 H 1.00008 0.38196 0.10347 0.0
H3643 H 0.00196 0.3937 0.11836 0.0
H3644 H 0.01376 0.40008 0.10311 0.0
H3645 H 0.00834 0.43898 0.07767 0.0
H3646 H 0.01084 0.45151 0.10103 0.0
H3647 H 0.99524 0.41259 0.12445 0.0
C3648 C 0.99291 0.38546 0.07259 0.0
C3649 C 0.99536 0.38782 0.05741 0.0
C3650 C 0.99939 0.40117 0.05177 0.0
C3651 C 0.00124 0.41214 0.06114 0.0
C3652 C 0.99884 0.40952 0.07607 0.0
C3653 C 0.9946 0.39648 0.08176 0.0
C3654 C 0.99281 0.3965 0.09824 0.0
C3655 C 0.97751 0.38653 0.10242 0.0
C3656 C 0.00275 0.39285 0.10626 0.0
C3657 C 0.99697 0.41166 0.10096 0.0
C3658 C 0.00047 0.41899 0.08804 0.0
C3659 C 0.00539 0.43331 0.08784 0.0
C3660 C 0.00676 0.44034 0.10122 0.0
C3661 C 0.00302 0.43299 0.11464 0.0
C3662 C 0.99801 0.41844 0.11438 0.0
H3663 H 0.63255 0.58668 0.07342 0.0
H3664 H 0.59723 0.58521 0.05118 0.0
H3665 H 0.58111 0.56366 0.06412 0.0
H3666 H 0.62029 0.54996 0.07336 0.0
H3667 H 0.62809 0.55086 0.09107 0.0
H3668 H 0.63578 0.56585 0.07935 0.0
H3669 H 0.63413 0.581 0.10009 0.0
H3670 H 0.62629 0.56615 0.11199 0.0
H3671 H 0.61746 0.57571 0.10829 0.0
H3672 H 0.56436 0.5391 0.07849 0.0
H3673 H 0.55466 0.51685 0.09965 0.0
H3674 H 0.6064 0.53667 0.11486 0.0
C3675 C 0.62141 0.58165 0.0713 0.0
C3676 C 0.61607 0.58756 0.06142 0.0
C3677 C 0.60149 0.58092 0.05887 0.0
C3678 C 0.59226 0.56865 0.06609 0.0
C3679 C 0.5977 0.5631 0.0759 0.0
C3680 C 0.61217 0.56937 0.07871 0.0
C3681 C 0.61659 0.56208 0.09011 0.0
C3682 C 0.62573 0.55688 0.08305 0.0
C3683 C 0.62406 0.57181 0.1034 0.0
C3684 C 0.60284 0.54994 0.09457 0.0
C3685 C 0.58994 0.55089 0.0846 0.0
C3686 C 0.57175 0.53818 0.08546 0.0
C3687 C 0.56569 0.52394 0.09799 0.0
C3688 C 0.57939 0.52578 0.1114 0.0
C3689 C 0.59854 0.53641 0.10757 0.0
H3690 H 0.38995 0.00819 0.07827 0.0
H3691 H 0.41418 0.04823 0.05723 0.0
H3692 H 0.43303 0.05535 0.07587 0.0
H3693 H 0.3997 0.02027 0.11581 0.0
H3694 H 0.40082 0.00528 0.12126 0.0
H3695 H 0.38908 0.00358 0.10659 0.0
H3696 H 0.40078 0.99386 0.08928 0.0
H3697 H 0.41259 0.99559 0.10388 0.0
H3698 H 0.41939 0.00394 0.08659 0.0
H3699 H 0.44893 0.05819 0.09688 0.0
H3700 H 0.4614 0.05638 0.11849 0.0
H3701 H 0.4275 0.01389 0.12511 0.0
C3702 C 0.3992 0.0185 0.07773 0.0
C3703 C 0.40066 0.02778 0.06649 0.0
C3704 C 0.41294 0.04106 0.06585 0.0
C3705 C 0.42365 0.04516 0.07636 0.0
C3706 C 0.42196 0.03575 0.08727 0.0
C3707 C 0.4101 0.02265 0.08798 0.0
C3708 C 0.41115 0.01436 0.10052 0.0
C3709 C 0.3995 0.01066 0.11171 0.0
C3710 C 0.41097 0.00116 0.09472 0.0
C3711 C 0.42537 0.02493 0.10689 0.0
C3712 C 0.43139 0.0372 0.09909 0.0
C3713 C 0.44437 0.0486 0.10303 0.0
C3714 C 0.45137 0.04747 0.1153 0.0
C3715 C 0.44545 0.03499 0.12346 0.0
C3716 C 0.4323 0.02355 0.11907 0.0
H3717 H 0.37278 0.98325 0.9302 0.0
H3718 H 0.39793 0.99236 0.9699 0.0
H3719 H 0.41814 0.99643 0.95503 0.0
H3720 H 0.38823 0.96525 0.91036 0.0
H3721 H 0.38746 0.9723 0.89289 0.0
H3722 H 0.37472 0.96933 0.9067 0.0
H3723 H 0.3812 0.99528 0.90528 0.0
H3724 H 0.39401 0.99835 0.89154 0.0
H3725 H 0.39913 0.00895 0.90814 0.0
H3726 H 0.43612 0.00172 0.93593 0.0
H3727 H 0.45036 0.00607 0.91389 0.0
H3728 H 0.4134 0.99219 0.88636 0.0
C3729 C 0.38251 0.98593 0.93573 0.0
C3730 C 0.38377 0.98737 0.9512 0.0
C3731 C 0.39667 0.99095 0.95808 0.0
C3732 C 0.40823 0.99337 0.94973 0.0
C3733 C 0.40669 0.99202 0.93451 0.0
C3734 C 0.39413 0.98821 0.92756 0.0
C3735 C 0.39539 0.9877 0.91102 0.0
C3736 C 0.38589 0.97275 0.90488 0.0
C3737 C 0.39225 0.9982 0.90356 0.0
C3738 C 0.41069 0.9921 0.90978 0.0
C3739 C 0.41701 0.9946 0.92346 0.0
C3740 C 0.43125 0.99956 0.92514 0.0
C3741 C 0.43927 0.002 0.91249 0.0
C3742 C 0.43299 0.99931 0.89829 0.0
C3743 C 0.41847 0.99421 0.89704 0.0
H3744 H 0.99502 0.38812 0.94282 0.0
H3745 H 0.03058 0.38712 0.92467 0.0
H3746 H 0.03209 0.40303 0.90501 0.0
H3747 H 0.9789 0.38776 0.90895 0.0
H3748 H 0.97321 0.39955 0.91525 0.0
H3749 H 0.97537 0.3886 0.92814 0.0
H3750 H 0.99233 0.41054 0.94377 0.0
H3751 H 0.99024 0.42157 0.9309 0.0
H3752 H 0.00745 0.42469 0.93529 0.0
H3753 H 0.02882 0.41798 0.88662 0.0
H3754 H 0.02133 0.4312 0.87111 0.0
H3755 H 0.98817 0.42271 0.90164 0.0
C3756 C 0.0031 0.39122 0.93468 0.0
C3757 C 0.01265 0.38635 0.93519 0.0
C3758 C 0.02323 0.39081 0.9245 0.0
C3759 C 0.02414 0.3998 0.9133 0.0
C3760 C 0.01449 0.40434 0.91307 0.0
C3761 C 0.00422 0.40026 0.92353 0.0
C3762 C 0.99503 0.40647 0.92075 0.0
C3763 C 0.97973 0.39491 0.91811 0.0
C3764 C 0.99635 0.41641 0.93343 0.0
C3765 C 0.00152 0.41445 0.90688 0.0
C3766 C 0.01278 0.41315 0.90267 0.0
C3767 C 0.02013 0.4192 0.88991 0.0
C3768 C 0.01582 0.4267 0.88119 0.0
C3769 C 0.00431 0.42814 0.8853 0.0
C3770 C 0.99714 0.42196 0.89836 0.0
H3771 H 0.60575 0.62222 0.93664 0.0
H3772 H 0.58424 0.63294 0.96934 0.0
H3773 H 0.56409 0.62493 0.95231 0.0
H3774 H 0.59327 0.63198 0.90445 0.0
H3775 H 0.59132 0.61748 0.89334 0.0
H3776 H 0.60435 0.62474 0.9078 0.0
H3777 H 0.59379 0.60021 0.91926 0.0
H3778 H 0.5807 0.59288 0.90488 0.0
H3779 H 0.57552 0.59072 0.92385 0.0
H3780 H 0.54631 0.61562 0.93198 0.0
H3781 H 0.53167 0.60512 0.9097 0.0
H3782 H 0.56414 0.59926 0.89056 0.0
C3783 C 0.59686 0.62303 0.94009 0.0
C3784 C 0.59651 0.62824 0.95422 0.0
C3785 C 0.58463 0.62894 0.95853 0.0
C3786 C 0.57318 0.62445 0.94894 0.0
C3787 C 0.57375 0.61919 0.93514 0.0
C3788 C 0.58524 0.6184 0.93071 0.0
C3789 C 0.5829 0.61178 0.9155 0.0
C3790 C 0.59359 0.62212 0.90463 0.0
C3791 C 0.58324 0.59809 0.9159 0.0
C3792 C 0.56831 0.60899 0.91209 0.0
C3793 C 0.56328 0.61344 0.92353 0.0
C3794 C 0.55012 0.61209 0.92293 0.0
C3795 C 0.54188 0.6061 0.91025 0.0
C3796 C 0.54679 0.60144 0.89837 0.0
C3797 C 0.56016 0.60282 0.89942 0.0
H3798 H 0.0024 0.61717 0.94318 0.0
H3799 H 0.04532 0.63997 0.95904 0.0
H3800 H 0.05183 0.62818 0.93993 0.0
H3801 H 0.00071 0.58478 0.93507 0.0
H3802 H 0.9901 0.58113 0.91873 0.0
H3803 H 0.98901 0.59152 0.93349 0.0
H3804 H 0.99481 0.61161 0.91548 0.0
H3805 H 0.99586 0.60127 0.90064 0.0
H3806 H 0.01043 0.61853 0.90467 0.0
H3807 H 0.05323 0.61302 0.91955 0.0
H3808 H 0.04977 0.59694 0.89866 0.0
H3809 H 0.00602 0.5848 0.89604 0.0
C3810 C 0.01317 0.61966 0.94265 0.0
C3811 C 0.02337 0.62939 0.9526 0.0
C3812 C 0.03739 0.63257 0.95144 0.0
C3813 C 0.04114 0.62588 0.94069 0.0
C3814 C 0.03076 0.61619 0.93114 0.0
C3815 C 0.01709 0.61321 0.93195 0.0
C3816 C 0.00792 0.60256 0.92031 0.0
C3817 C 0.99625 0.58921 0.92733 0.0
C3818 C 0.00191 0.60887 0.90964 0.0
C3819 C 0.01852 0.59988 0.91289 0.0
C3820 C 0.03163 0.60778 0.9193 0.0
C3821 C 0.04303 0.60686 0.9144 0.0
C3822 C 0.04098 0.59772 0.90256 0.0
C3823 C 0.02765 0.58969 0.89572 0.0
C3824 C 0.01632 0.59082 0.90103 0.0
H3825 H 0.38474 0.40203 0.93491 0.0
H3826 H 0.37474 0.42501 0.96686 0.0
H3827 H 0.38351 0.44489 0.94999 0.0
H3828 H 0.41634 0.43166 0.92143 0.0
H3829 H 0.41303 0.42531 0.90265 0.0
H3830 H 0.40648 0.4131 0.91749 0.0
H3831 H 0.38136 0.40201 0.9067 0.0
H3832 H 0.38783 0.41414 0.89181 0.0
H3833 H 0.37407 0.41302 0.9032 0.0
H3834 H 0.39235 0.46183 0.92916 0.0
H3835 H 0.40081 0.47463 0.90594 0.0
H3836 H 0.40495 0.44057 0.88763 0.0
C3837 C 0.38435 0.41122 0.93836 0.0
C3838 C 0.37909 0.41197 0.95225 0.0
C3839 C 0.37891 0.42427 0.95638 0.0
C3840 C 0.38381 0.43559 0.94684 0.0
C3841 C 0.38887 0.43447 0.93322 0.0
C3842 C 0.38919 0.42261 0.92899 0.0
C3843 C 0.39487 0.42394 0.91363 0.0
C3844 C 0.40849 0.42348 0.91382 0.0
C3845 C 0.38388 0.41261 0.90322 0.0
C3846 C 0.39758 0.43836 0.90984 0.0
C3847 C 0.39409 0.44428 0.92129 0.0
C3848 C 0.39528 0.45737 0.92018 0.0
C3849 C 0.40014 0.46459 0.90699 0.0
C3850 C 0.40386 0.45873 0.89514 0.0
C3851 C 0.40249 0.44542 0.89663 0.0
H3852 H 0.59411 0.97142 0.94724 0.0
H3853 H 0.63157 0.00748 0.93089 0.0
H3854 H 0.61831 0.00785 0.90929 0.0
H3855 H 0.58074 0.95448 0.91255 0.0
H3856 H 0.56271 0.94826 0.91684 0.0
H3857 H 0.57502 0.95108 0.93132 0.0
H3858 H 0.56849 0.96768 0.94484 0.0
H3859 H 0.55618 0.96494 0.93037 0.0
H3860 H 0.56978 0.98245 0.93534 0.0
H3861 H 0.60136 0.00392 0.8891 0.0
H3862 H 0.58176 0.99559 0.87131 0.0
H3863 H 0.55507 0.96243 0.90082 0.0
C3864 C 0.59949 0.97948 0.93919 0.0
C3865 C 0.61392 0.98936 0.94072 0.0
C3866 C 0.62059 0.99964 0.92984 0.0
C3867 C 0.61312 1.00002 0.91759 0.0
C3868 C 0.59895 0.9901 0.91638 0.0
C3869 C 0.59218 0.98002 0.92686 0.0
C3870 C 0.57695 0.97034 0.92266 0.0
C3871 C 0.57367 0.95514 0.92073 0.0
C3872 C 0.56728 0.97143 0.93398 0.0
C3873 C 0.5763 0.97646 0.9081 0.0
C3874 C 0.58909 0.98791 0.90474 0.0
C3875 C 0.59124 0.99505 0.89166 0.0
C3876 C 0.58006 0.99027 0.88164 0.0
C3877 C 0.56688 0.97848 0.88476 0.0
C3878 C 0.56499 0.97159 0.89825 0.0
H3879 H 0.63154 0.01692 0.08458 0.0
H3880 H 0.61994 0.03401 0.0481 0.0
H3881 H 0.60448 0.03784 0.06438 0.0
H3882 H 0.59745 0.99768 0.09933 0.0
H3883 H 0.60334 0.00076 0.11823 0.0
H3884 H 0.61449 0.00051 0.10407 0.0
H3885 H 0.6341 0.02529 0.11235 0.0
H3886 H 0.62301 0.02562 0.12655 0.0
H3887 H 0.63045 0.0394 0.11332 0.0
H3888 H 0.58979 0.03931 0.08446 0.0
H3889 H 0.57655 0.03778 0.10664 0.0
H3890 H 0.5961 0.01779 0.12945 0.0
C3891 C 0.62577 0.02146 0.07995 0.0
C3892 C 0.62713 0.02527 0.06501 0.0
C3893 C 0.61942 0.03131 0.05955 0.0
C3894 C 0.61049 0.03343 0.06869 0.0
C3895 C 0.60929 0.02939 0.08327 0.0
C3896 C 0.61668 0.0235 0.08887 0.0
C3897 C 0.61305 0.01952 0.10477 0.0
C3898 C 0.6067 0.00367 0.1067 0.0
C3899 C 0.62592 0.02796 0.11484 0.0
C3900 C 0.60229 0.0239 0.10716 0.0
C3901 C 0.60042 0.02975 0.09469 0.0
C3902 C 0.59116 0.03474 0.0943 0.0
C3903 C 0.58365 0.03379 0.10701 0.0
C3904 C 0.58528 0.02769 0.11994 0.0
C3905 C 0.59469 0.0226 0.11984 0.0
H3906 H 0.99665 0.61675 0.07897 0.0
H3907 H 0.95327 0.59114 0.06518 0.0
H3908 H 0.94988 0.57363 0.08379 0.0
H3909 H 0.00287 0.58875 0.08462 0.0
H3910 H 0.01415 0.59682 0.10041 0.0
H3911 H 0.01292 0.60756 0.08652 0.0
H3912 H 0.00602 0.62002 0.10624 0.0
H3913 H 0.00732 0.60937 0.12022 0.0
H3914 H 0.99135 0.60971 0.11791 0.0
H3915 H 0.95138 0.55899 0.10409 0.0
H3916 H 0.95785 0.54803 0.12374 0.0
H3917 H 0.00041 0.58308 0.12348 0.0
C3918 C 0.98637 0.60757 0.08003 0.0
C3919 C 0.97518 0.60533 0.07075 0.0
C3920 C 0.96198 0.59302 0.07219 0.0
C3921 C 0.95995 0.58306 0.08275 0.0
C3922 C 0.97126 0.58557 0.09168 0.0
C3923 C 0.98421 0.59751 0.09039 0.0
C3924 C 0.99479 0.59754 0.10094 0.0
C3925 C 0.00689 0.59767 0.09262 0.0
C3926 C 1.00018 0.60989 0.11198 0.0
C3927 C 0.98579 0.58371 0.10835 0.0
C3928 C 0.97223 0.57698 0.10295 0.0
C3929 C 0.962 0.56411 0.1083 0.0
C3930 C 0.96578 0.55793 0.1194 0.0
C3931 C 0.97973 0.56453 0.12482 0.0
C3932 C 0.98975 0.57767 0.1193 0.0
H3933 H 0.41832 0.3765 0.06361 0.0
H3934 H 0.38872 0.3847 0.08616 0.0
H3935 H 0.40419 0.39304 0.10803 0.0
H3936 H 0.42782 0.36377 0.09397 0.0
H3937 H 0.44603 0.37175 0.08934 0.0
H3938 H 0.43309 0.36727 0.07507 0.0
H3939 H 0.44625 0.39292 0.06629 0.0
H3940 H 0.45926 0.39748 0.08053 0.0
H3941 H 0.45005 0.40695 0.07918 0.0
H3942 H 0.42194 0.39889 0.128 0.0
H3943 H 0.44094 0.40198 0.1447 0.0
H3944 H 0.4596 0.39104 0.109 0.0
C3945 C 0.41521 0.3803 0.07304 0.0
C3946 C 0.40225 0.37987 0.07317 0.0
C3947 C 0.39848 0.38471 0.08586 0.0
C3948 C 0.40725 0.38958 0.0983 0.0
C3949 C 0.41984 0.38969 0.09787 0.0
C3950 C 0.42387 0.38525 0.08556 0.0
C3951 C 0.43769 0.38591 0.0882 0.0
C3952 C 0.43605 0.37131 0.08655 0.0
C3953 C 0.44898 0.39644 0.07794 0.0
C3954 C 0.44063 0.39112 0.10402 0.0
C3955 C 0.43024 0.39331 0.10936 0.0
C3956 C 0.43024 0.39739 0.1239 0.0
C3957 C 0.44106 0.39911 0.1333 0.0
C3958 C 0.45175 0.3968 0.12813 0.0
C3959 C 0.45161 0.39297 0.11321 0.0
H3960 H 0.62607 0.70118 0.40462 0.0
H3961 H 0.65773 0.73965 0.3848 0.0
H3962 H 0.65261 0.75338 0.40256 0.0
H3963 H 0.60157 0.71282 0.41271 0.0
H3964 H 0.59645 0.70398 0.43 0.0
H3965 H 0.60223 0.69707 0.41537 0.0
H3966 H 0.62116 0.69774 0.4327 0.0
H3967 H 0.61545 0.70467 0.44737 0.0
H3968 H 0.63347 0.71396 0.44184 0.0
H3969 H 0.64438 0.76301 0.42256 0.0
H3970 H 0.634 0.768 0.44387 0.0
H3971 H 0.60775 0.72328 0.45094 0.0
C3972 C 0.63194 0.71249 0.40403 0.0
C3973 C 0.64222 0.71932 0.39321 0.0
C3974 C 0.64961 0.73415 0.39278 0.0
C3975 C 0.64684 0.74207 0.40288 0.0
C3976 C 0.63666 0.73502 0.41338 0.0
C3977 C 0.62931 0.72058 0.41404 0.0
C3978 C 0.61906 0.71566 0.42659 0.0
C3979 C 0.60393 0.70686 0.42082 0.0
C3980 C 0.6225 0.70753 0.43779 0.0
C3981 C 0.62194 0.72961 0.43296 0.0
C3982 C 0.63209 0.74061 0.42513 0.0
C3983 C 0.63653 0.75447 0.42889 0.0
C3984 C 0.63059 0.75719 0.44113 0.0
C3985 C 0.62046 0.7461 0.44972 0.0
C3986 C 0.61583 0.7321 0.44516 0.0
H3987 H 0.26916 0.91942 0.41711 0.0
H3988 H 0.31236 0.92987 0.42101 0.0
H3989 H 0.30575 0.91193 0.44005 0.0
H3990 H 0.26173 0.91425 0.45567 0.0
H3991 H 0.24406 0.90002 0.45283 0.0
H3992 H 0.25217 0.91337 0.43923 0.0
H3993 H 0.24707 0.89432 0.41935 0.0
H3994 H 0.23899 0.88092 0.43291 0.0
H3995 H 0.2532 0.88224 0.42216 0.0
H3996 H 0.29436 0.8927 0.45835 0.0
H3997 H 0.27924 0.87442 0.47581 0.0
H3998 H 0.24366 0.87735 0.46077 0.0
C3999 C 0.27719 0.91784 0.42193 0.0
C4000 C 0.29126 0.92593 0.41759 0.0
C4001 C 0.30154 0.92378 0.42427 0.0
C4002 C 0.29787 0.91359 0.43501 0.0
C4003 C 0.2839 0.90577 0.43903 0.0
C4004 C 0.27374 0.90786 0.43281 0.0
C4005 C 0.25957 0.8984 0.43947 0.0
C4006 C 0.25407 0.90703 0.44726 0.0
C4007 C 0.24909 0.88837 0.42777 0.0
C4008 C 0.26334 0.8906 0.45037 0.0
C4009 C 0.2774 0.89493 0.44985 0.0
C4010 C 0.28333 0.8892 0.45883 0.0
C4011 C 0.27468 0.87882 0.46866 0.0
C4012 C 0.26025 0.87427 0.46946 0.0
C4013 C 0.25458 0.88038 0.46024 0.0
H4014 H 0.07858 0.34961 0.4145 0.0
H4015 H 0.08375 0.38755 0.39528 0.0
H4016 H 0.10468 0.40171 0.41092 0.0
H4017 H 0.08872 0.36339 0.45113 0.0
H4018 H 0.09773 0.35402 0.45485 0.0
H4019 H 0.08333 0.34687 0.44192 0.0
H4020 H 0.09916 0.34545 0.42194 0.0
H4021 H 0.11363 0.35263 0.43481 0.0
H4022 H 0.11535 0.36099 0.41748 0.0
H4023 H 0.12486 0.41174 0.42881 0.0
H4024 H 0.1427 0.41695 0.4481 0.0
H4025 H 0.12428 0.37251 0.4557 0.0
C4026 C 0.08418 0.36089 0.41351 0.0
C4027 C 0.07953 0.3675 0.40372 0.0
C4028 C 0.08704 0.38229 0.40286 0.0
C4029 C 0.09898 0.39041 0.41162 0.0
C4030 C 0.10326 0.38358 0.42119 0.0
C4031 C 0.09609 0.36916 0.42222 0.0
C4032 C 0.10273 0.36444 0.43362 0.0
C4033 C 0.09252 0.35673 0.44612 0.0
C4034 C 0.10803 0.35534 0.42653 0.0
C4035 C 0.11473 0.37846 0.43885 0.0
C4036 C 0.1149 0.38936 0.43149 0.0
C4037 C 0.1249 0.40329 0.43457 0.0
C4038 C 0.135 0.40615 0.44549 0.0
C4039 C 0.13506 0.39514 0.45314 0.0
C4040 C 0.12469 0.38112 0.44981 0.0
H4041 H 0.04215 0.29974 0.27609 0.0
H4042 H 0.04555 0.27835 0.31415 0.0
H4043 H 0.05525 0.26708 0.29854 0.0
H4044 H 0.03335 0.27237 0.24933 0.0
H4045 H 0.04384 0.28413 0.23514 0.0
H4046 H 0.03646 0.28999 0.24915 0.0
H4047 H 0.06113 0.31075 0.25579 0.0
H4048 H 0.06859 0.30496 0.24179 0.0
H4049 H 0.0749 0.30731 0.26049 0.0
H4050 H 0.06474 0.25819 0.27881 0.0
H4051 H 0.07379 0.25277 0.25646 0.0
H4052 H 0.06604 0.28147 0.23183 0.0
C4053 C 0.04501 0.29278 0.28123 0.0
C4054 C 0.04292 0.2899 0.29641 0.0
C4055 C 0.04668 0.28053 0.30253 0.0
C4056 C 0.05234 0.27415 0.29377 0.0
C4057 C 0.05433 0.27733 0.27892 0.0
C4058 C 0.05086 0.28648 0.27271 0.0
C4059 C 0.05444 0.28845 0.25656 0.0
C4060 C 0.04124 0.28343 0.24698 0.0
C4061 C 0.06542 0.30378 0.25348 0.0
C4062 C 0.06045 0.27894 0.25465 0.0
C4063 C 0.0602 0.27255 0.26765 0.0
C4064 C 0.06499 0.26314 0.26856 0.0
C4065 C 0.07011 0.26013 0.25582 0.0
C4066 C 0.07046 0.26654 0.24235 0.0
C4067 C 0.06572 0.27623 0.24189 0.0
H4068 H 0.69636 0.7371 0.26733 0.0
H4069 H 0.71935 0.761 0.30626 0.0
H4070 H 0.73045 0.78251 0.29182 0.0
H4071 H 0.72311 0.75605 0.24119 0.0
H4072 H 0.71125 0.75536 0.22718 0.0
H4073 H 0.70531 0.74168 0.24048 0.0
H4074 H 0.68527 0.74604 0.24778 0.0
H4075 H 0.69113 0.75972 0.23448 0.0
H4076 H 0.68936 0.76339 0.25345 0.0
H4077 H 0.73927 0.80145 0.27316 0.0
H4078 H 0.74498 0.81653 0.25153 0.0
H4079 H 0.71493 0.78067 0.22528 0.0
C4080 C 0.70363 0.74685 0.27289 0.0
C4081 C 0.70705 0.74724 0.28796 0.0
C4082 C 0.71677 0.76028 0.29468 0.0
C4083 C 0.72305 0.77262 0.2866 0.0
C4084 C 0.71942 0.77183 0.27182 0.0
C4085 C 0.70989 0.75931 0.26504 0.0
C4086 C 0.70769 0.76138 0.24904 0.0
C4087 C 0.71211 0.75313 0.23888 0.0
C4088 C 0.69246 0.7574 0.24602 0.0
C4089 C 0.71755 0.77702 0.24789 0.0
C4090 C 0.72426 0.78283 0.26113 0.0
C4091 C 0.73409 0.79703 0.26272 0.0
C4092 C 0.73727 0.8055 0.25037 0.0
C4093 C 0.73067 0.79977 0.23661 0.0
C4094 C 0.72042 0.78536 0.23552 0.0
H4095 H 0.24477 0.95919 0.298 0.0
H4096 H 0.25675 0.92765 0.30171 0.0
H4097 H 0.24078 0.91419 0.28112 0.0
H4098 H 0.2081 0.93488 0.28931 0.0
H4099 H 0.20675 0.94646 0.27657 0.0
H4100 H 0.219 0.95358 0.29175 0.0
H4101 H 0.23915 0.96752 0.27361 0.0
H4102 H 0.22696 0.96042 0.25839 0.0
H4103 H 0.24204 0.95834 0.2588 0.0
H4104 H 0.22486 0.905 0.25925 0.0
H4105 H 0.20844 0.89956 0.23856 0.0
H4106 H 0.20556 0.93626 0.24966 0.0
C4107 C 0.24396 0.94942 0.29448 0.0
C4108 C 0.25191 0.94439 0.30145 0.0
C4109 C 0.25059 0.93156 0.29662 0.0
C4110 C 0.24162 0.9239 0.28489 0.0
C4111 C 0.23395 0.92914 0.27821 0.0
C4112 C 0.2349 0.94152 0.28289 0.0
C4113 C 0.2254 0.94472 0.27382 0.0
C4114 C 0.21414 0.94492 0.28344 0.0
C4115 C 0.2339 0.95857 0.26567 0.0
C4116 C 0.2191 0.93228 0.26324 0.0
C4117 C 0.22426 0.92348 0.26592 0.0
C4118 C 0.22052 0.91165 0.2572 0.0
C4119 C 0.21113 0.90862 0.24549 0.0
C4120 C 0.20534 0.91724 0.24277 0.0
C4121 C 0.20954 0.92929 0.25173 0.0
H4122 H 0.69472 0.95268 0.26922 0.0
H4123 H 0.71927 0.94829 0.30374 0.0
H4124 H 0.73168 0.94244 0.28508 0.0
H4125 H 0.69119 0.92392 0.24574 0.0
H4126 H 0.69255 0.93305 0.22904 0.0
H4127 H 0.68519 0.93629 0.24518 0.0
H4128 H 0.70328 0.96282 0.24382 0.0
H4129 H 0.71069 0.95968 0.22769 0.0
H4130 H 0.72166 0.96858 0.24348 0.0
H4131 H 0.74251 0.93866 0.26252 0.0
H4132 H 0.75064 0.93688 0.23779 0.0
H4133 H 0.71826 0.9426 0.21814 0.0
C4134 C 0.70251 0.95022 0.27291 0.0
C4135 C 0.70601 0.95096 0.28798 0.0
C4136 C 0.71651 0.94797 0.29226 0.0
C4137 C 0.72355 0.94453 0.28175 0.0
C4138 C 0.7199 0.94401 0.267 0.0
C4139 C 0.70958 0.94671 0.26258 0.0
C4140 C 0.70797 0.94593 0.24601 0.0
C4141 C 0.69336 0.93409 0.24121 0.0
C4142 C 0.71109 0.9601 0.2399 0.0
C4143 C 0.71914 0.94257 0.24178 0.0
C4144 C 0.72589 0.94147 0.25403 0.0
C4145 C 0.73713 0.93923 0.25285 0.0
C4146 C 0.74163 0.93817 0.23876 0.0
C4147 C 0.73479 0.93918 0.22604 0.0
C4148 C 0.72339 0.94138 0.22766 0.0
H4149 H 0.03529 0.75891 0.28778 0.0
H4150 H 0.05902 0.73841 0.27851 0.0
H4151 H 0.06746 0.7516 0.25559 0.0
H4152 H 0.02425 0.75884 0.25137 0.0
H4153 H 0.02592 0.77587 0.25268 0.0
H4154 H 0.02244 0.76553 0.26887 0.0
H4155 H 0.04433 0.78589 0.28177 0.0
H4156 H 0.04786 0.79632 0.26561 0.0
H4157 H 0.06108 0.79318 0.27305 0.0
H4158 H 0.07157 0.76525 0.23269 0.0
H4159 H 0.07195 0.77936 0.21177 0.0
H4160 H 0.04687 0.79229 0.23643 0.0
C4161 C 0.04237 0.75732 0.28097 0.0
C4162 C 0.04658 0.74771 0.28496 0.0
C4163 C 0.05584 0.74589 0.27578 0.0
C4164 C 0.06065 0.75328 0.26271 0.0
C4165 C 0.05622 0.76259 0.25904 0.0
C4166 C 0.04742 0.76477 0.26795 0.0
C4167 C 0.04403 0.77517 0.26125 0.0
C4168 C 0.02822 0.76844 0.25837 0.0
C4169 C 0.04967 0.78843 0.271 0.0
C4170 C 0.052 0.77819 0.24701 0.0
C4171 C 0.05895 0.77082 0.24596 0.0
C4172 C 0.06633 0.77122 0.23345 0.0
C4173 C 0.06648 0.77926 0.22163 0.0
C4174 C 0.05936 0.78685 0.22239 0.0
C4175 C 0.05231 0.78652 0.23543 0.0
H4176 H 0.25046 0.2895 0.2888 0.0
H4177 H 0.27828 0.33173 0.27379 0.0
H4178 H 0.26362 0.3267 0.25161 0.0
H4179 H 0.24469 0.27289 0.25347 0.0
H4180 H 0.22663 0.26012 0.25667 0.0
H4181 H 0.23882 0.26726 0.27188 0.0
H4182 H 0.22299 0.27507 0.28467 0.0
H4183 H 0.21077 0.26799 0.26946 0.0
H4184 H 0.21809 0.28608 0.27503 0.0
H4185 H 0.24674 0.31691 0.2305 0.0
H4186 H 0.22889 0.30271 0.21158 0.0
H4187 H 0.21191 0.26683 0.24005 0.0
C4188 C 0.25348 0.2977 0.28086 0.0
C4189 C 0.26548 0.31108 0.28318 0.0
C4190 C 0.269 0.3215 0.27248 0.0
C4191 C 0.26077 0.31873 0.25978 0.0
C4192 C 0.24904 0.30547 0.25787 0.0
C4193 C 0.24539 0.29511 0.26807 0.0
C4194 C 0.23253 0.28159 0.26305 0.0
C4195 C 0.23587 0.26977 0.26115 0.0
C4196 C 0.22038 0.27744 0.27369 0.0
C4197 C 0.22962 0.28596 0.24837 0.0
C4198 C 0.23925 0.2998 0.24563 0.0
C4199 C 0.23908 0.30609 0.23255 0.0
C4200 C 0.2289 0.29796 0.22189 0.0
C4201 C 0.21903 0.2837 0.22436 0.0
C4202 C 0.2193 0.27772 0.2379 0.0
H4203 H 0.29706 0.37941 0.40353 0.0
H4204 H 0.29013 0.34174 0.42502 0.0
H4205 H 0.28206 0.34854 0.44717 0.0
H4206 H 0.31046 0.4018 0.43472 0.0
H4207 H 0.30233 0.4119 0.43046 0.0
H4208 H 0.30659 0.40359 0.4159 0.0
H4209 H 0.28082 0.39075 0.40677 0.0
H4210 H 0.27647 0.39903 0.42133 0.0
H4211 H 0.26708 0.38021 0.41935 0.0
H4212 H 0.27612 0.36002 0.46741 0.0
H4213 H 0.27307 0.37568 0.48463 0.0
H4214 H 0.28348 0.40578 0.45002 0.0
C4215 C 0.29362 0.37249 0.41281 0.0
C4216 C 0.29424 0.36005 0.41257 0.0
C4217 C 0.28989 0.35139 0.42503 0.0
C4218 C 0.28519 0.35511 0.43762 0.0
C4219 C 0.28486 0.3675 0.43756 0.0
C4220 C 0.28894 0.37607 0.4255 0.0
C4221 C 0.28825 0.38918 0.4286 0.0
C4222 C 0.30277 0.40239 0.42735 0.0
C4223 C 0.27751 0.38982 0.41841 0.0
C4224 C 0.28335 0.38675 0.44436 0.0
C4225 C 0.28136 0.37412 0.44927 0.0
C4226 C 0.27748 0.36985 0.46365 0.0
C4227 C 0.27577 0.3788 0.47334 0.0
C4228 C 0.27791 0.39185 0.4686 0.0
C4229 C 0.28159 0.39577 0.45386 0.0
H4230 H 0.63964 0.92965 0.41993 0.0
H4231 H 0.62968 0.90012 0.38369 0.0
H4232 H 0.61697 0.88043 0.40065 0.0
H4233 H 0.64487 0.90891 0.44749 0.0
H4234 H 0.6373 0.91408 0.46199 0.0
H4235 H 0.64608 0.92576 0.44709 0.0
H4236 H 0.62386 0.92711 0.4416 0.0
H4237 H 0.61502 0.91546 0.45646 0.0
H4238 H 0.60745 0.91117 0.43822 0.0
H4239 H 0.60358 0.86414 0.42117 0.0
H4240 H 0.59164 0.8524 0.44392 0.0
H4241 H 0.61157 0.89252 0.46707 0.0
C4242 C 0.63484 0.91903 0.41561 0.0
C4243 C 0.6356 0.91635 0.40053 0.0
C4244 C 0.62929 0.90234 0.39525 0.0
C4245 C 0.62203 0.89112 0.40478 0.0
C4246 C 0.62138 0.89411 0.41958 0.0
C4247 C 0.62774 0.90772 0.425 0.0
C4248 C 0.62535 0.90811 0.44131 0.0
C4249 C 0.63923 0.9146 0.44998 0.0
C4250 C 0.61745 0.91592 0.44458 0.0
C4251 C 0.61636 0.89261 0.44416 0.0
C4252 C 0.61417 0.8847 0.4315 0.0
C4253 C 0.60545 0.87019 0.43123 0.0
C4254 C 0.59873 0.86361 0.44423 0.0
C4255 C 0.60095 0.87153 0.45739 0.0
C4256 C 0.60996 0.8862 0.45727 0.0
H4257 H 0.06555 0.71659 0.41988 0.0
H4258 H 0.0899 0.70933 0.38748 0.0
H4259 H 0.1083 0.71513 0.4062 0.0
H4260 H 0.09483 0.74547 0.43947 0.0
H4261 H 0.08693 0.73991 0.45721 0.0
H4262 H 0.07607 0.73605 0.44104 0.0
H4263 H 0.06312 0.70963 0.44703 0.0
H4264 H 0.07388 0.71341 0.46324 0.0
H4265 H 0.07305 0.70102 0.44964 0.0
H4266 H 0.12335 0.72024 0.42884 0.0
H4267 H 0.13385 0.72425 0.45374 0.0
H4268 H 0.09968 0.72812 0.4713 0.0
C4269 C 0.07474 0.71621 0.4167 0.0
C4270 C 0.07628 0.71254 0.40217 0.0
C4271 C 0.08856 0.71231 0.39847 0.0
C4272 C 0.09905 0.71554 0.40904 0.0
C4273 C 0.09715 0.71903 0.42326 0.0
C4274 C 0.08531 0.7194 0.4271 0.0
C4275 C 0.08558 0.72299 0.44326 0.0
C4276 C 0.08587 0.73693 0.44536 0.0
C4277 C 0.07317 0.71105 0.45126 0.0
C4278 C 0.09931 0.72434 0.44797 0.0
C4279 C 0.10588 0.72211 0.43626 0.0
C4280 C 0.11841 0.72221 0.43805 0.0
C4281 C 0.12433 0.72456 0.4522 0.0
C4282 C 0.11775 0.72685 0.46436 0.0
C4283 C 0.1051 0.72674 0.46214 0.0
H4284 H 0.29217 0.03928 0.72577 0.0
H4285 H 0.32747 0.04265 0.75019 0.0
H4286 H 0.32129 0.05225 0.7716 0.0
H4287 H 0.29549 0.0712 0.7391 0.0
H4288 H 0.27694 0.06447 0.74002 0.0
H4289 H 0.28368 0.05717 0.72685 0.0
H4290 H 0.26765 0.03243 0.7372 0.0
H4291 H 0.26083 0.03964 0.75038 0.0
H4292 H 0.26845 0.02955 0.75654 0.0
H4293 H 0.31207 0.06257 0.78984 0.0
H4294 H 0.29987 0.07225 0.80409 0.0
H4295 H 0.2705 0.06209 0.76792 0.0
C4296 C 0.29859 0.04201 0.73563 0.0
C4297 C 0.31028 0.04015 0.73633 0.0
C4298 C 0.31834 0.04376 0.74948 0.0
C4299 C 0.31497 0.04931 0.76166 0.0
C4300 C 0.30347 0.05113 0.76055 0.0
C4301 C 0.29535 0.04752 0.74791 0.0
C4302 C 0.28368 0.05075 0.74951 0.0
C4303 C 0.28504 0.06154 0.7382 0.0
C4304 C 0.2693 0.03729 0.74834 0.0
C4305 C 0.28662 0.0569 0.76497 0.0
C4306 C 0.29808 0.05701 0.77113 0.0
C4307 C 0.30303 0.06246 0.78518 0.0
C4308 C 0.29606 0.06794 0.79317 0.0
C4309 C 0.28426 0.06791 0.7871 0.0
C4310 C 0.27948 0.06224 0.77283 0.0
H4311 H 0.96761 0.25057 0.74083 0.0
H4312 H 0.93262 0.24179 0.71235 0.0
H4313 H 0.91717 0.22103 0.72679 0.0
H4314 H 0.95981 0.21576 0.74588 0.0
H4315 H 0.96621 0.219 0.7646 0.0
H4316 H 0.97338 0.23302 0.75164 0.0
H4317 H 0.9674 0.24791 0.7688 0.0
H4318 H 0.96015 0.23404 0.78194 0.0
H4319 H 0.9497 0.24095 0.77488 0.0
H4320 H 0.9014 0.1974 0.74298 0.0
H4321 H 0.89245 0.17686 0.76599 0.0
H4322 H 0.94319 0.20398 0.78636 0.0
C4323 C 0.95667 0.24422 0.73779 0.0
C4324 C 0.95127 0.24767 0.7255 0.0
C4325 C 0.93698 0.23919 0.72162 0.0
C4326 C 0.92811 0.22744 0.72979 0.0
C4327 C 0.93363 0.22421 0.74181 0.0
C4328 C 0.94783 0.23235 0.74597 0.0
C4329 C 0.95251 0.22726 0.75939 0.0
C4330 C 0.96363 0.22355 0.75512 0.0
C4331 C 0.95775 0.23819 0.77199 0.0
C4332 C 0.93925 0.21437 0.76358 0.0
C4333 C 0.92628 0.21261 0.75142 0.0
C4334 C 0.90874 0.1982 0.75132 0.0
C4335 C 0.90328 0.185 0.76503 0.0
C4336 C 0.91638 0.18959 0.78026 0.0
C4337 C 0.93552 0.20211 0.77791 0.0
H4338 H 0.75131 0.71257 0.73013 0.0
H4339 H 0.73392 0.66772 0.73163 0.0
H4340 H 0.75413 0.67124 0.74652 0.0
H4341 H 0.7865 0.7231 0.72614 0.0
H4342 H 0.79274 0.7388 0.73724 0.0
H4343 H 0.7763 0.73157 0.7275 0.0
H4344 H 0.7637 0.73032 0.75166 0.0
H4345 H 0.78005 0.73768 0.76164 0.0
H4346 H 0.76537 0.72119 0.76704 0.0
H4347 H 0.77903 0.67698 0.75983 0.0
H4348 H 0.80594 0.69167 0.77496 0.0
H4349 H 0.80662 0.73783 0.76474 0.0
C4350 C 0.75186 0.70359 0.73376 0.0
C4351 C 0.74116 0.68991 0.72986 0.0
C4352 C 0.74197 0.67828 0.73471 0.0
C4353 C 0.75343 0.68018 0.74307 0.0
C4354 C 0.76393 0.69375 0.74666 0.0
C4355 C 0.76329 0.70557 0.74229 0.0
C4356 C 0.77572 0.72 0.74707 0.0
C4357 C 0.78325 0.72888 0.7337 0.0
C4358 C 0.77092 0.72775 0.75747 0.0
C4359 C 0.78499 0.71608 0.75509 0.0
C4360 C 0.77664 0.69787 0.7547 0.0
C4361 C 0.78447 0.68825 0.7612 0.0
C4362 C 0.80147 0.69729 0.76984 0.0
C4363 C 0.80804 0.71628 0.77388 0.0
C4364 C 0.80193 0.72661 0.76336 0.0
H4365 H 0.70471 0.62353 0.61287 0.0
H4366 H 0.7342 0.66816 0.61518 0.0
H4367 H 0.75071 0.66491 0.60004 0.0
H4368 H 0.72829 0.61156 0.61619 0.0
H4369 H 0.7186 0.59671 0.60394 0.0
H4370 H 0.70964 0.60377 0.61416 0.0
H4371 H 0.69934 0.60713 0.59017 0.0
H4372 H 0.70812 0.59999 0.5797 0.0
H4373 H 0.71087 0.61706 0.57556 0.0
H4374 H 0.76952 0.65931 0.58638 0.0
H4375 H 0.78142 0.64499 0.57046 0.0
H4376 H 0.73423 0.59903 0.57682 0.0
C4377 C 0.71465 0.63254 0.61006 0.0
C4378 C 0.71819 0.64608 0.61508 0.0
C4379 C 0.7312 0.65772 0.61124 0.0
C4380 C 0.74068 0.65597 0.60273 0.0
C4381 C 0.73704 0.64255 0.59801 0.0
C4382 C 0.7241 0.63073 0.60142 0.0
C4383 C 0.72159 0.61646 0.59556 0.0
C4384 C 0.7194 0.60655 0.60821 0.0
C4385 C 0.70925 0.60977 0.5846 0.0
C4386 C 0.73497 0.62048 0.58789 0.0
C4387 C 0.7455 0.6386 0.58968 0.0
C4388 C 0.76332 0.64817 0.58412 0.0
C4389 C 0.77104 0.63929 0.57501 0.0
C4390 C 0.75814 0.62073 0.56949 0.0
C4391 C 0.74109 0.6101 0.57903 0.0
H4392 H 0.3723 0.0799 0.60402 0.0
H4393 H 0.34674 0.08845 0.63328 0.0
H4394 H 0.35175 0.10916 0.61894 0.0
H4395 H 0.39938 0.11433 0.59913 0.0
H4396 H 0.40225 0.11143 0.58025 0.0
H4397 H 0.39529 0.09714 0.59286 0.0
H4398 H 0.37395 0.0827 0.57577 0.0
H4399 H 0.38076 0.0968 0.56291 0.0
H4400 H 0.36342 0.08997 0.57008 0.0
H4401 H 0.36017 0.1333 0.60349 0.0
H4402 H 0.37263 0.15473 0.58139 0.0
H4403 H 0.39504 0.12741 0.5596 0.0
C4404 C 0.36771 0.08614 0.60719 0.0
C4405 C 0.35918 0.08268 0.6197 0.0
C4406 C 0.35342 0.09104 0.6238 0.0
C4407 C 0.35614 0.10276 0.6157 0.0
C4408 C 0.36467 0.10607 0.60351 0.0
C4409 C 0.3706 0.09798 0.59909 0.0
C4410 C 0.38028 0.10324 0.58565 0.0
C4411 C 0.39518 0.10674 0.58972 0.0
C4412 C 0.37424 0.09254 0.57285 0.0
C4413 C 0.38016 0.11627 0.58185 0.0
C4414 C 0.36906 0.11788 0.59417 0.0
C4415 C 0.36658 0.13259 0.595 0.0
C4416 C 0.37489 0.14632 0.5819 0.0
C4417 C 0.38324 0.14205 0.56641 0.0
C4418 C 0.38921 0.12905 0.5681 0.0
H4419 H 0.92177 0.29224 0.61732 0.0
H4420 H 0.94223 0.26842 0.60815 0.0
H4421 H 0.92664 0.25723 0.58668 0.0
H4422 H 0.88711 0.26512 0.60773 0.0
H4423 H 0.88217 0.27667 0.59938 0.0
H4424 H 0.89519 0.28315 0.61385 0.0
H4425 H 0.91271 0.30274 0.59692 0.0
H4426 H 0.89974 0.29634 0.5824 0.0
H4427 H 0.91658 0.29813 0.57922 0.0
H4428 H 0.90932 0.24899 0.56607 0.0
H4429 H 0.89032 0.24313 0.54817 0.0
H4430 H 0.88042 0.27166 0.57093 0.0
C4431 C 0.92302 0.28475 0.61072 0.0
C4432 C 0.93318 0.28115 0.61443 0.0
C4433 C 0.9344 0.27119 0.60562 0.0
C4434 C 0.92566 0.26485 0.59335 0.0
C4435 C 0.91574 0.26858 0.59003 0.0
C4436 C 0.91432 0.27825 0.59845 0.0
C4437 C 0.90259 0.28015 0.59259 0.0
C4438 C 0.89108 0.27602 0.60407 0.0
C4439 C 0.90824 0.29523 0.58748 0.0
C4440 C 0.89754 0.26989 0.57968 0.0
C4441 C 0.9054 0.26347 0.57833 0.0
C4442 C 0.90297 0.25382 0.56709 0.0
C4443 C 0.89212 0.25051 0.55703 0.0
C4444 C 0.8836 0.25661 0.55845 0.0
C4445 C 0.88654 0.2666 0.56981 0.0
H4446 H 0.35422 0.28658 0.60973 0.0
H4447 H 0.3925 0.30572 0.63594 0.0
H4448 H 0.40379 0.29891 0.61691 0.0
H4449 H 0.3568 0.25769 0.5945 0.0
H4450 H 0.35021 0.25862 0.57667 0.0
H4451 H 0.34478 0.26405 0.59286 0.0
H4452 H 0.3532 0.28835 0.58155 0.0
H4453 H 0.3586 0.28298 0.56531 0.0
H4454 H 0.37097 0.29856 0.57538 0.0
H4455 H 0.41124 0.2908 0.59452 0.0
H4456 H 0.41444 0.28277 0.5701 0.0
H4457 H 0.37172 0.2701 0.55816 0.0
C4458 C 0.365 0.28943 0.61151 0.0
C4459 C 0.37241 0.29666 0.62445 0.0
C4460 C 0.38646 0.29995 0.62631 0.0
C4461 C 0.39302 0.2962 0.61551 0.0
C4462 C 0.38542 0.28919 0.60287 0.0
C4463 C 0.37174 0.2859 0.6008 0.0
C4464 C 0.36608 0.27893 0.58593 0.0
C4465 C 0.35374 0.26393 0.5876 0.0
C4466 C 0.36197 0.28773 0.57649 0.0
C4467 C 0.37877 0.27894 0.57989 0.0
C4468 C 0.38978 0.28478 0.58987 0.0
C4469 C 0.40267 0.28616 0.58664 0.0
C4470 C 0.40439 0.28157 0.57279 0.0
C4471 C 0.3933 0.27574 0.56231 0.0
C4472 C 0.38033 0.27438 0.566 0.0
H4473 H 0.71986 0.09042 0.61141 0.0
H4474 H 0.71864 0.05683 0.5851 0.0
H4475 H 0.72526 0.0717 0.56323 0.0
H4476 H 0.70485 0.10163 0.58481 0.0
H4477 H 0.7155 0.12001 0.58935 0.0
H4478 H 0.71183 0.10719 0.60317 0.0
H4479 H 0.73838 0.11778 0.60791 0.0
H4480 H 0.74214 0.13065 0.59407 0.0
H4481 H 0.74956 0.11949 0.59279 0.0
H4482 H 0.73046 0.08954 0.54397 0.0
H4483 H 0.73343 0.10901 0.52853 0.0
H4484 H 0.73149 0.13111 0.56732 0.0
C4485 C 0.72126 0.0863 0.60111 0.0
C4486 C 0.71877 0.07248 0.59996 0.0
C4487 C 0.72039 0.06735 0.58621 0.0
C4488 C 0.72425 0.07575 0.57375 0.0
C4489 C 0.72648 0.08927 0.57523 0.0
C4490 C 0.72506 0.09453 0.58856 0.0
C4491 C 0.72726 0.10911 0.58699 0.0
C4492 C 0.71408 0.1095 0.59133 0.0
C4493 C 0.7401 0.11989 0.59597 0.0
C4494 C 0.72986 0.11111 0.57065 0.0
C4495 C 0.7295 0.09959 0.5641 0.0
C4496 C 0.73095 0.0987 0.549 0.0
C4497 C 0.73265 0.1098 0.54033 0.0
C4498 C 0.7329 0.12163 0.54677 0.0
C4499 C 0.73161 0.1223 0.56216 0.0
H4500 H 0.91221 0.6285 0.6175 0.0
H4501 H 0.94263 0.66863 0.59969 0.0
H4502 H 0.92833 0.66305 0.57707 0.0
H4503 H 0.90495 0.60896 0.58471 0.0
H4504 H 0.88652 0.5978 0.58791 0.0
H4505 H 0.89852 0.60538 0.60323 0.0
H4506 H 0.88433 0.61638 0.61325 0.0
H4507 H 0.87226 0.60878 0.59796 0.0
H4508 H 0.88098 0.62739 0.60157 0.0
H4509 H 0.9118 0.65247 0.55572 0.0
H4510 H 0.89403 0.63749 0.53704 0.0
H4511 H 0.87391 0.60453 0.56886 0.0
C4512 C 0.91571 0.63623 0.60896 0.0
C4513 C 0.92856 0.64899 0.61034 0.0
C4514 C 0.93291 0.65872 0.5988 0.0
C4515 C 0.92481 0.6557 0.58595 0.0
C4516 C 0.91232 0.64294 0.58485 0.0
C4517 C 0.90774 0.63339 0.59606 0.0
C4518 C 0.89428 0.62014 0.59175 0.0
C4519 C 0.89619 0.60732 0.59191 0.0
C4520 C 0.88225 0.61805 0.60173 0.0
C4521 C 0.8922 0.62362 0.57626 0.0
C4522 C 0.90267 0.63687 0.57254 0.0
C4523 C 0.90344 0.64214 0.55855 0.0
C4524 C 0.89332 0.63358 0.54803 0.0
C4525 C 0.88259 0.61991 0.55155 0.0
C4526 C 0.88194 0.61499 0.56593 0.0
H4527 H 0.95929 0.71597 0.73552 0.0
H4528 H 0.94227 0.6734 0.75048 0.0
H4529 H 0.93307 0.67905 0.77246 0.0
H4530 H 0.97026 0.73267 0.77004 0.0
H4531 H 0.96558 0.74578 0.76674 0.0
H4532 H 0.96999 0.73821 0.75158 0.0
H4533 H 0.94623 0.73083 0.73893 0.0
H4534 H 0.94175 0.73844 0.75405 0.0
H4535 H 0.93026 0.72036 0.74877 0.0
H4536 H 0.92742 0.68966 0.7937 0.0
H4537 H 0.92529 0.70459 0.8127 0.0
H4538 H 0.94474 0.73997 0.78358 0.0
C4539 C 0.95339 0.70777 0.74327 0.0
C4540 C 0.95161 0.69427 0.74132 0.0
C4541 C 0.944 0.68389 0.75185 0.0
C4542 C 0.93862 0.68695 0.76432 0.0
C4543 C 0.94078 0.70041 0.76605 0.0
C4544 C 0.94788 0.71064 0.75579 0.0
C4545 C 0.94923 0.72442 0.76064 0.0
C4546 C 0.96468 0.73594 0.76235 0.0
C4547 C 0.9414 0.72877 0.74996 0.0
C4548 C 0.94209 0.72041 0.77539 0.0
C4549 C 0.93724 0.70649 0.77825 0.0
C4550 C 0.93101 0.70054 0.79152 0.0
C4551 C 0.92986 0.70909 0.80225 0.0
C4552 C 0.9349 0.72343 0.79964 0.0
C4553 C 0.94082 0.72905 0.78589 0.0
H4554 H 0.29075 0.24603 0.73161 0.0
H4555 H 0.32459 0.27821 0.7583 0.0
H4556 H 0.31746 0.26202 0.77906 0.0
H4557 H 0.26576 0.23264 0.7599 0.0
H4558 H 0.25781 0.21461 0.75388 0.0
H4559 H 0.26612 0.22838 0.74078 0.0
H4560 H 0.28196 0.21863 0.73265 0.0
H4561 H 0.27369 0.20481 0.74576 0.0
H4562 H 0.2924 0.2162 0.7462 0.0
H4563 H 0.30603 0.24294 0.79726 0.0
H4564 H 0.29062 0.22227 0.81196 0.0
H4565 H 0.26429 0.20223 0.77355 0.0
C4566 C 0.29677 0.24957 0.74176 0.0
C4567 C 0.30821 0.26338 0.74337 0.0
C4568 C 0.3157 0.26773 0.7569 0.0
C4569 C 0.31179 0.25858 0.76871 0.0
C4570 C 0.30039 0.24509 0.76682 0.0
C4571 C 0.29297 0.24058 0.75371 0.0
C4572 C 0.2807 0.22577 0.75484 0.0
C4573 C 0.26678 0.22533 0.7522 0.0
C4574 C 0.28229 0.21576 0.74423 0.0
C4575 C 0.28229 0.22276 0.7707 0.0
C4576 C 0.29378 0.23402 0.77736 0.0
C4577 C 0.29708 0.23399 0.79213 0.0
C4578 C 0.2883 0.22222 0.80039 0.0
C4579 C 0.27637 0.21062 0.79385 0.0
C4580 C 0.27345 0.21088 0.77876 0.0
H4581 H 0.75972 0.04237 0.72406 0.0
H4582 H 0.73372 0.0591 0.7384 0.0
H4583 H 0.74667 0.06663 0.76195 0.0
H4584 H 0.76148 0.02864 0.75847 0.0
H4585 H 0.7794 0.03298 0.75672 0.0
H4586 H 0.76873 0.02969 0.74053 0.0
H4587 H 0.78694 0.05393 0.73054 0.0
H4588 H 0.79769 0.0573 0.74671 0.0
H4589 H 0.79218 0.06946 0.74165 0.0
H4590 H 0.76113 0.07082 0.78454 0.0
H4591 H 0.77656 0.07173 0.80468 0.0
H4592 H 0.79384 0.05306 0.77568 0.0
C4593 C 0.75681 0.04768 0.73213 0.0
C4594 C 0.74578 0.05026 0.72931 0.0
C4595 C 0.7423 0.05725 0.74017 0.0
C4596 C 0.74955 0.06151 0.75362 0.0
C4597 C 0.76032 0.05877 0.75607 0.0
C4598 C 0.76401 0.05209 0.74563 0.0
C4599 C 0.77573 0.05006 0.75127 0.0
C4600 C 0.77105 0.03441 0.75178 0.0
C4601 C 0.78892 0.05818 0.74199 0.0
C4602 C 0.77785 0.05643 0.76659 0.0
C4603 C 0.76885 0.0614 0.76911 0.0
C4604 C 0.76833 0.06709 0.78267 0.0
C4605 C 0.77712 0.06756 0.79404 0.0
C4606 C 0.78635 0.06242 0.79178 0.0
C4607 C 0.78687 0.05704 0.77775 0.0
H4608 H 0.05441 0.33149 0.05408 0.0
H4609 H 0.06937 0.32714 0.01146 0.0
H4610 H 0.08238 0.31722 0.02332 0.0
H4611 H 0.08702 0.34072 0.07498 0.0
H4612 H 0.07736 0.33108 0.09076 0.0
H4613 H 0.07041 0.33916 0.07906 0.0
H4614 H 0.04766 0.31519 0.07535 0.0
H4615 H 0.05457 0.30702 0.08688 0.0
H4616 H 0.0487 0.30041 0.06845 0.0
H4617 H 0.09153 0.30537 0.0394 0.0
H4618 H 0.09688 0.29328 0.0587 0.0
H4619 H 0.07726 0.30672 0.09103 0.0
C4620 C 0.06076 0.32888 0.04726 0.0
C4621 C 0.06083 0.3301 0.03181 0.0
C4622 C 0.06901 0.32617 0.02329 0.0
C4623 C 0.07652 0.32061 0.02994 0.0
C4624 C 0.07592 0.31922 0.04514 0.0
C4625 C 0.06841 0.32342 0.05373 0.0
C4626 C 0.06885 0.32008 0.06973 0.0
C4627 C 0.07636 0.33356 0.07919 0.0
C4628 C 0.05406 0.31008 0.07543 0.0
C4629 C 0.0774 0.31294 0.06873 0.0
C4630 C 0.08143 0.31261 0.05447 0.0
C4631 C 0.08859 0.30573 0.05065 0.0
C4632 C 0.09153 0.29884 0.06167 0.0
C4633 C 0.08729 0.29883 0.07634 0.0
C4634 C 0.08049 0.30636 0.07992 0.0
H4635 H 0.66828 0.72738 0.04823 0.0
H4636 H 0.64935 0.69613 0.08197 0.0
H4637 H 0.64941 0.7137 0.09877 0.0
H4638 H 0.69173 0.75651 0.07227 0.0
H4639 H 0.69024 0.76896 0.061 0.0
H4640 H 0.68848 0.75322 0.0528 0.0
H4641 H 0.66444 0.74695 0.04198 0.0
H4642 H 0.66587 0.76248 0.05026 0.0
H4643 H 0.65098 0.74555 0.05406 0.0
H4644 H 0.64609 0.7331 0.11456 0.0
H4645 H 0.64862 0.75931 0.12448 0.0
H4646 H 0.6742 0.78098 0.07607 0.0
C4647 C 0.66439 0.72436 0.05925 0.0
C4648 C 0.65861 0.71032 0.06368 0.0
C4649 C 0.65348 0.7067 0.07813 0.0
C4650 C 0.65359 0.71664 0.08783 0.0
C4651 C 0.6591 0.73029 0.08314 0.0
C4652 C 0.66469 0.73444 0.06903 0.0
C4653 C 0.67032 0.74997 0.06534 0.0
C4654 C 0.68613 0.75761 0.0627 0.0
C4655 C 0.66243 0.75131 0.05213 0.0
C4656 C 0.66726 0.75553 0.07903 0.0
C4657 C 0.65953 0.74171 0.09123 0.0
C4658 C 0.65156 0.74237 0.10801 0.0
C4659 C 0.65224 0.75828 0.11378 0.0
C4660 C 0.66413 0.7738 0.10258 0.0
C4661 C 0.66878 0.77211 0.08319 0.0
H4662 H 0.26517 0.93694 0.04046 0.0
H4663 H 0.28929 0.97407 0.06801 0.0
H4664 H 0.26885 0.96699 0.08365 0.0
H4665 H 0.23358 0.93769 0.0412 0.0
H4666 H 0.22228 0.91896 0.04177 0.0
H4667 H 0.2391 0.9263 0.03324 0.0
H4668 H 0.24566 0.91195 0.05034 0.0
H4669 H 0.22883 0.90454 0.05891 0.0
H4670 H 0.24457 0.91347 0.06997 0.0
H4671 H 0.24559 0.95701 0.09531 0.0
H4672 H 0.22082 0.94435 0.10251 0.0
H4673 H 0.21159 0.91336 0.06794 0.0
C4674 C 0.26617 0.94352 0.04985 0.0
C4675 C 0.27893 0.95597 0.0531 0.0
C4676 C 0.27977 0.96431 0.06547 0.0
C4677 C 0.26818 0.96043 0.07439 0.0
C4678 C 0.25578 0.94816 0.07085 0.0
C4679 C 0.25468 0.93977 0.05894 0.0
C4680 C 0.23994 0.92737 0.05732 0.0
C4681 C 0.23334 0.9276 0.04251 0.0
C4682 C 0.23975 0.91351 0.05925 0.0
C4683 C 0.23292 0.93026 0.07004 0.0
C4684 C 0.24227 0.9423 0.0777 0.0
C4685 C 0.23817 0.94749 0.08949 0.0
C4686 C 0.22409 0.94024 0.09349 0.0
C4687 C 0.21426 0.92792 0.08574 0.0
C4688 C 0.21885 0.92278 0.07402 0.0
H4689 H 0.33152 0.05887 0.96506 0.0
H4690 H 0.29867 0.03882 0.99719 0.0
H4691 H 0.28847 0.05288 0.98896 0.0
H4692 H 0.33607 0.09328 0.96932 0.0
H4693 H 0.33922 0.09727 0.9501 0.0
H4694 H 0.34374 0.08534 0.95825 0.0
H4695 H 0.32846 0.06639 0.93868 0.0
H4696 H 0.32382 0.07824 0.93053 0.0
H4697 H 0.31032 0.06128 0.93646 0.0
H4698 H 0.28206 0.06935 0.97768 0.0
H4699 H 0.28014 0.08758 0.96434 0.0
H4700 H 0.31729 0.09726 0.93979 0.0
C4701 C 0.32224 0.05751 0.97044 0.0
C4702 C 0.31585 0.04766 0.98172 0.0
C4703 C 0.30362 0.04611 0.98836 0.0
C4704 C 0.29778 0.05409 0.98381 0.0
C4705 C 0.30428 0.06361 0.97262 0.0
C4706 C 0.31626 0.0654 0.96604 0.0
C4707 C 0.32128 0.07651 0.95439 0.0
C4708 C 0.33595 0.08883 0.95825 0.0
C4709 C 0.32094 0.07023 0.93911 0.0
C4710 C 0.31031 0.08076 0.95554 0.0
C4711 C 0.30057 0.07313 0.96608 0.0
C4712 C 0.28956 0.07532 0.96933 0.0
C4713 C 0.28852 0.08564 0.96166 0.0
C4714 C 0.29838 0.0936 0.95082 0.0
C4715 C 0.30944 0.09112 0.94779 0.0
H4716 H 0.93528 0.26494 0.97118 0.0
H4717 H 0.96714 0.25972 0.99292 0.0
H4718 H 0.95457 0.23475 0.98594 0.0
H4719 H 0.90565 0.23299 0.98054 0.0
H4720 H 0.89679 0.23097 0.96324 0.0
H4721 H 0.90913 0.24821 0.97031 0.0
H4722 H 0.92317 0.25379 0.94639 0.0
H4723 H 0.91095 0.23661 0.93905 0.0
H4724 H 0.92933 0.2424 0.94007 0.0
H4725 H 0.93848 0.20666 0.97928 0.0
H4726 H 0.91738 0.18029 0.96609 0.0
H4727 H 0.89362 0.20655 0.94561 0.0
C4728 C 0.93957 0.25847 0.97433 0.0
C4729 C 0.9521 0.26422 0.98272 0.0
C4730 C 0.95742 0.25551 0.98679 0.0
C4731 C 0.95042 0.24133 0.98277 0.0
C4732 C 0.93812 0.2359 0.97457 0.0
C4733 C 0.93251 0.24422 0.97022 0.0
C4734 C 0.91869 0.23666 0.96122 0.0
C4735 C 0.90687 0.23725 0.96931 0.0
C4736 C 0.92065 0.24273 0.94577 0.0
C4737 C 0.9158 0.22192 0.96033 0.0
C4738 C 0.92947 0.22169 0.96953 0.0
C4739 C 0.93003 0.20613 0.97281 0.0
C4740 C 0.91655 0.18959 0.96545 0.0
C4741 C 0.90448 0.19103 0.95214 0.0
C4742 C 0.90154 0.20629 0.95233 0.0
H4743 H 0.72813 0.66753 0.97152 0.0
H4744 H 0.72877 0.70311 0.99287 0.0
H4745 H 0.75174 0.71897 0.98204 0.0
H4746 H 0.76472 0.67991 0.97713 0.0
H4747 H 0.76679 0.67324 0.95973 0.0
H4748 H 0.7501 0.6647 0.96864 0.0
H4749 H 0.73846 0.66761 0.94527 0.0
H4750 H 0.75514 0.67623 0.93632 0.0
H4751 H 0.74506 0.68481 0.93785 0.0
H4752 H 0.77446 0.73094 0.96915 0.0
H4753 H 0.79647 0.73829 0.95602 0.0
H4754 H 0.78183 0.695 0.94371 0.0
C4755 C 0.73313 0.67867 0.97383 0.0
C4756 C 0.72675 0.68414 0.98304 0.0
C4757 C 0.73359 0.69874 0.98595 0.0
C4758 C 0.74657 0.70782 0.97978 0.0
C4759 C 0.75263 0.70213 0.97079 0.0
C4760 C 0.74623 0.6879 0.9679 0.0
C4761 C 0.75535 0.68452 0.95836 0.0
C4762 C 0.75949 0.67503 0.96645 0.0
C4763 C 0.74807 0.6779 0.94358 0.0
C4764 C 0.76784 0.69907 0.95637 0.0
C4765 C 0.76595 0.70906 0.96352 0.0
C4766 C 0.77604 0.72323 0.96343 0.0
C4767 C 0.78846 0.72731 0.9559 0.0
C4768 C 0.79073 0.71728 0.94857 0.0
C4769 C 0.78027 0.70295 0.94891 0.0
H4770 H 0.95989 0.69731 0.97133 0.0
H4771 H 0.92504 0.65509 0.97665 0.0
H4772 H 0.90884 0.66251 0.96749 0.0
H4773 H 0.9431 0.71476 0.98403 0.0
H4774 H 0.95107 0.72888 0.97122 0.0
H4775 H 0.96004 0.71989 0.9766 0.0
H4776 H 0.96193 0.71422 0.94928 0.0
H4777 H 0.95297 0.72323 0.9438 0.0
H4778 H 0.94633 0.7053 0.93801 0.0
H4779 H 0.89626 0.67514 0.96044 0.0
H4780 H 0.8883 0.69188 0.95541 0.0
H4781 H 0.93142 0.72571 0.954 0.0
C4782 C 0.94886 0.68959 0.97043 0.0
C4783 C 0.9437 0.67562 0.9747 0.0
C4784 C 0.92922 0.6658 0.97328 0.0
C4785 C 0.91995 0.66994 0.96812 0.0
C4786 C 0.92535 0.68387 0.96428 0.0
C4787 C 0.93949 0.69351 0.96523 0.0
C4788 C 0.94257 0.70799 0.96114 0.0
C4789 C 0.9496 0.71849 0.97402 0.0
C4790 C 0.95148 0.71297 0.94723 0.0
C4791 C 0.9279 0.70509 0.9582 0.0
C4792 C 0.91812 0.69109 0.95997 0.0
C4793 C 0.90383 0.68608 0.95881 0.0
C4794 C 0.89941 0.69566 0.95598 0.0
C4795 C 0.90924 0.71007 0.95434 0.0
C4796 C 0.92367 0.71474 0.95516 0.0
H4797 H 0.33145 0.28299 0.95841 0.0
H4798 H 0.3152 0.26919 0.00203 0.0
H4799 H 0.30171 0.24474 0.99275 0.0
H4800 H 0.30029 0.26094 0.93941 0.0
H4801 H 0.30823 0.25738 0.92399 0.0
H4802 H 0.31792 0.27355 0.93432 0.0
H4803 H 0.33775 0.26818 0.93915 0.0
H4804 H 0.32816 0.25202 0.92873 0.0
H4805 H 0.33367 0.25184 0.94734 0.0
H4806 H 0.28838 0.22228 0.97839 0.0
H4807 H 0.27644 0.20314 0.95994 0.0
H4808 H 0.30126 0.23146 0.92558 0.0
C4809 C 0.32534 0.27476 0.96606 0.0
C4810 C 0.32441 0.27792 0.98095 0.0
C4811 C 0.31602 0.26695 0.99058 0.0
C4812 C 0.30837 0.25305 0.98543 0.0
C4813 C 0.30924 0.2503 0.97061 0.0
C4814 C 0.31756 0.26083 0.96106 0.0
C4815 C 0.31587 0.25519 0.94546 0.0
C4816 C 0.31024 0.26218 0.9352 0.0
C4817 C 0.32969 0.25691 0.93984 0.0
C4818 C 0.30511 0.23992 0.94769 0.0
C4819 C 0.3015 0.23731 0.96229 0.0
C4820 C 0.29127 0.22414 0.96696 0.0
C4821 C 0.28455 0.21334 0.95641 0.0
C4822 C 0.2881 0.21577 0.94139 0.0
C4823 C 0.29853 0.22926 0.93703 0.0
H4824 H 0.74393 0.06259 0.98729 0.0
H4825 H 0.72204 0.03158 0.95261 0.0
H4826 H 0.74416 0.0402 0.93936 0.0
H4827 H 0.76876 0.09049 0.96344 0.0
H4828 H 0.78298 0.09654 0.97653 0.0
H4829 H 0.76524 0.08857 0.98284 0.0
H4830 H 0.76856 0.07043 0.99727 0.0
H4831 H 0.78628 0.07834 0.99102 0.0
H4832 H 0.77432 0.05993 0.9877 0.0
H4833 H 0.76892 0.05061 0.93106 0.0
H4834 H 0.79445 0.06281 0.92779 0.0
H4835 H 0.80029 0.08774 0.96725 0.0
C4836 C 0.74379 0.0577 0.97685 0.0
C4837 C 0.73123 0.04648 0.97093 0.0
C4838 C 0.73148 0.04035 0.95723 0.0
C4839 C 0.74401 0.04513 0.94965 0.0
C4840 C 0.75621 0.05613 0.95584 0.0
C4841 C 0.7562 0.06242 0.96906 0.0
C4842 C 0.77084 0.07376 0.97352 0.0
C4843 C 0.77202 0.08819 0.97411 0.0
C4844 C 0.77526 0.07041 0.98825 0.0
C4845 C 0.7791 0.07265 0.96089 0.0
C4846 C 0.77046 0.06242 0.9508 0.0
C4847 C 0.77577 0.05885 0.93872 0.0
C4848 C 0.79031 0.06586 0.93694 0.0
C4849 C 0.79936 0.07648 0.94709 0.0
C4850 C 0.79359 0.07991 0.95914 0.0
H4851 H 0.69568 0.96076 0.0447 0.0
H4852 H 0.65259 0.92794 0.03716 0.0
H4853 H 0.65813 0.91053 0.04673 0.0
H4854 H 0.71113 0.94113 0.03325 0.0
H4855 H 0.72496 0.94855 0.04689 0.0
H4856 H 0.71737 0.95856 0.04052 0.0
H4857 H 0.71161 0.96183 0.06732 0.0
H4858 H 0.71917 0.95179 0.07378 0.0
H4859 H 0.70145 0.94666 0.07838 0.0
H4860 H 0.6687 0.89647 0.05532 0.0
H4861 H 0.68357 0.88677 0.06244 0.0
H4862 H 0.71969 0.92874 0.06482 0.0
C4863 C 0.68739 0.94991 0.04509 0.0
C4864 C 0.67368 0.94571 0.0402 0.0
C4865 C 0.66312 0.93144 0.04103 0.0
C4866 C 0.66617 0.92146 0.0464 0.0
C4867 C 0.67982 0.92595 0.05101 0.0
C4868 C 0.69025 0.93984 0.05048 0.0
C4869 C 0.70416 0.94183 0.05561 0.0
C4870 C 0.71504 0.94787 0.04333 0.0
C4871 C 0.7094 0.95108 0.06961 0.0
C4872 C 0.69999 0.92684 0.05877 0.0
C4873 C 0.68589 0.91785 0.05613 0.0
C4874 C 0.67973 0.90342 0.05757 0.0
C4875 C 0.68824 0.89801 0.06162 0.0
C4876 C 0.70276 0.907 0.06417 0.0
C4877 C 0.70862 0.92163 0.06299 0.0
H4878 H 0.05912 0.73887 0.03924 0.0
H4879 H 0.0186 0.72636 0.05773 0.0
H4880 H 0.02823 0.74974 0.06946 0.0
H4881 H 0.08068 0.76218 0.07047 0.0
H4882 H 0.09358 0.77478 0.05835 0.0
H4883 H 0.08404 0.75648 0.05311 0.0
H4884 H 0.07605 0.76256 0.02894 0.0
H4885 H 0.0855 0.78082 0.0341 0.0
H4886 H 0.06709 0.77232 0.02979 0.0
H4887 H 0.04133 0.77503 0.07667 0.0
H4888 H 0.05714 0.80062 0.07895 0.0
H4889 H 0.08927 0.79692 0.05593 0.0
C4890 C 0.05242 0.74098 0.0461 0.0
C4891 C 0.03816 0.73085 0.04766 0.0
C4892 C 0.02956 0.73403 0.0564 0.0
C4893 C 0.03495 0.74724 0.06316 0.0
C4894 C 0.04897 0.75713 0.06111 0.0
C4895 C 0.05763 0.75417 0.05285 0.0
C4896 C 0.07196 0.76706 0.05132 0.0
C4897 C 0.08323 0.765 0.05876 0.0
C4898 C 0.07534 0.77091 0.03507 0.0
C4899 C 0.06987 0.7778 0.05962 0.0
C4900 C 0.05659 0.77181 0.06535 0.0
C4901 C 0.05187 0.7798 0.07254 0.0
C4902 C 0.06091 0.79431 0.07381 0.0
C4903 C 0.07455 0.80067 0.06798 0.0
C4904 C 0.07905 0.79225 0.06087 0.0
H4905 H 0.2843 0.3276 0.05926 0.0
H4906 H 0.2706 0.33817 0.01919 0.0
H4907 H 0.24651 0.32666 0.02849 0.0
H4908 H 0.25503 0.29447 0.06378 0.0
H4909 H 0.25455 0.2958 0.0835 0.0
H4910 H 0.27088 0.30553 0.07411 0.0
H4911 H 0.27473 0.32865 0.08597 0.0
H4912 H 0.25847 0.31897 0.09555 0.0
H4913 H 0.26139 0.33326 0.084 0.0
H4914 H 0.22361 0.31244 0.0414 0.0
H4915 H 0.20384 0.29766 0.05753 0.0
H4916 H 0.23291 0.29797 0.08981 0.0
C4917 C 0.27636 0.32785 0.05256 0.0
C4918 C 0.27941 0.33378 0.03844 0.0
C4919 C 0.26853 0.33352 0.02994 0.0
C4920 C 0.25482 0.32709 0.03517 0.0
C4921 C 0.25216 0.32112 0.049 0.0
C4922 C 0.26266 0.32161 0.05766 0.0
C4923 C 0.25699 0.31412 0.07198 0.0
C4924 C 0.25952 0.30175 0.07341 0.0
C4925 C 0.26327 0.32436 0.08515 0.0
C4926 C 0.24162 0.30911 0.06989 0.0
C4927 C 0.23903 0.31322 0.05656 0.0
C4928 C 0.22553 0.30926 0.05192 0.0
C4929 C 0.21437 0.30082 0.06112 0.0
C4930 C 0.21677 0.2964 0.0748 0.0
C4931 C 0.23065 0.30091 0.07932 0.0
H4932 H 0.73041 0.6699 0.36871 0.0
H4933 H 0.6926 0.64606 0.39382 0.0
H4934 H 0.70311 0.63371 0.40596 0.0
H4935 H 0.73681 0.64221 0.36199 0.0
H4936 H 0.75555 0.65288 0.3637 0.0
H4937 H 0.74547 0.66057 0.35781 0.0
H4938 H 0.75623 0.67901 0.37902 0.0
H4939 H 0.76638 0.67138 0.38496 0.0
H4940 H 0.75499 0.67326 0.39766 0.0
H4941 H 0.71687 0.62246 0.41361 0.0
H4942 H 0.7334 0.61399 0.41723 0.0
H4943 H 0.76248 0.64557 0.38764 0.0
C4944 C 0.72438 0.66215 0.37684 0.0
C4945 C 0.71071 0.65897 0.38037 0.0
C4946 C 0.70318 0.64881 0.39111 0.0
C4947 C 0.70903 0.64169 0.39801 0.0
C4948 C 0.72246 0.64494 0.39413 0.0
C4949 C 0.73009 0.65501 0.38389 0.0
C4950 C 0.74415 0.65624 0.38136 0.0
C4951 C 0.74557 0.65277 0.36526 0.0
C4952 C 0.75614 0.67084 0.38603 0.0
C4953 C 0.74312 0.6451 0.39157 0.0
C4954 C 0.73054 0.63871 0.39885 0.0
C4955 C 0.72688 0.62757 0.40822 0.0
C4956 C 0.73636 0.62287 0.41024 0.0
C4957 C 0.74943 0.62943 0.40307 0.0
C4958 C 0.75275 0.64064 0.39358 0.0
H4959 H 0.32108 0.0562 0.37987 0.0
H4960 H 0.35088 0.04986 0.40445 0.0
H4961 H 0.35821 0.07165 0.41863 0.0
H4962 H 0.34123 0.09386 0.37773 0.0
H4963 H 0.32584 0.09538 0.37899 0.0
H4964 H 0.32467 0.07989 0.37083 0.0
H4965 H 0.30536 0.06453 0.38902 0.0
H4966 H 0.30645 0.07984 0.39748 0.0
H4967 H 0.3087 0.06771 0.4085 0.0
H4968 H 0.36267 0.09417 0.43623 0.0
H4969 H 0.36162 0.11819 0.44787 0.0
H4970 H 0.32502 0.10886 0.40723 0.0
C4971 C 0.32915 0.05949 0.38826 0.0
C4972 C 0.33545 0.05141 0.39105 0.0
C4973 C 0.34607 0.05601 0.40195 0.0
C4974 C 0.35025 0.06833 0.41013 0.0
C4975 C 0.34378 0.07603 0.4073 0.0
C4976 C 0.33325 0.07182 0.39644 0.0
C4977 C 0.32666 0.08112 0.39483 0.0
C4978 C 0.32978 0.08797 0.3797 0.0
C4979 C 0.31086 0.0728 0.39762 0.0
C4980 C 0.33402 0.09197 0.40666 0.0
C4981 C 0.34606 0.08846 0.41498 0.0
C4982 C 0.35606 0.09748 0.43106 0.0
C4983 C 0.35487 0.11183 0.43888 0.0
C4984 C 0.34502 0.11771 0.42704 0.0
C4985 C 0.33161 0.10592 0.41311 0.0
H4986 H 0.93983 0.271 0.37416 0.0
H4987 H 0.95494 0.31117 0.39636 0.0
H4988 H 0.93209 0.30213 0.40817 0.0
H4989 H 0.90554 0.26443 0.36646 0.0
H4990 H 0.89701 0.24587 0.36955 0.0
H4991 H 0.91483 0.25519 0.36345 0.0
H4992 H 0.92241 0.24626 0.38581 0.0
H4993 H 0.9046 0.23692 0.39198 0.0
H4994 H 0.9183 0.24939 0.4041 0.0
H4995 H 0.90734 0.28938 0.41639 0.0
H4996 H 0.88222 0.27351 0.42078 0.0
H4997 H 0.88304 0.24137 0.39373 0.0
C4998 C 0.93834 0.27787 0.38153 0.0
C4999 C 0.94923 0.29177 0.38442 0.0
C5000 C 0.94686 0.30041 0.39418 0.0
C5001 C 0.93389 0.2954 0.40089 0.0
C5002 C 0.92338 0.28169 0.39778 0.0
C5003 C 0.92544 0.27301 0.38839 0.0
C5004 C 0.91225 0.25882 0.38666 0.0
C5005 C 0.90711 0.25591 0.37058 0.0
C5006 C 0.91453 0.24716 0.39249 0.0
C5007 C 0.90241 0.26098 0.39636 0.0
C5008 C 0.90907 0.27424 0.40269 0.0
C5009 C 0.90203 0.27891 0.41161 0.0
C5010 C 0.88777 0.26983 0.41404 0.0
C5011 C 0.88067 0.2562 0.40761 0.0
C5012 C 0.88819 0.25171 0.39881 0.0
H5013 H 0.00955 0.38207 0.29028 0.0
H5014 H 0.0341 0.40486 0.32881 0.0
H5015 H 0.03651 0.42674 0.31925 0.0
H5016 H 0.02988 0.40828 0.26506 0.0
H5017 H 0.01544 0.40539 0.25342 0.0
H5018 H 0.0143 0.39124 0.26397 0.0
H5019 H 0.99156 0.38754 0.27594 0.0
H5020 H 0.9926 0.40166 0.26538 0.0
H5021 H 0.99154 0.40206 0.28512 0.0
H5022 H 0.03791 0.44628 0.30475 0.0
H5023 H 0.03835 0.46244 0.28609 0.0
H5024 H 0.01287 0.42713 0.25682 0.0
C5025 C 0.01518 0.39164 0.29679 0.0
C5026 C 0.02161 0.39187 0.31028 0.0
C5027 C 0.02916 0.40457 0.31842 0.0
C5028 C 0.03052 0.417 0.31312 0.0
C5029 C 0.02429 0.41652 0.29964 0.0
C5030 C 0.01676 0.40419 0.29157 0.0
C5031 C 0.01201 0.40678 0.27693 0.0
C5032 C 0.01828 0.40268 0.26409 0.0
C5033 C 0.99597 0.39905 0.27579 0.0
C5034 C 0.01818 0.4225 0.27798 0.0
C5035 C 0.02515 0.42788 0.29121 0.0
C5036 C 0.03234 0.44219 0.29442 0.0
C5037 C 0.03254 0.45128 0.28376 0.0
C5038 C 0.02557 0.44603 0.27006 0.0
C5039 C 0.01817 0.43141 0.26725 0.0
H5040 H 0.62798 0.61057 0.2955 0.0
H5041 H 0.60166 0.62826 0.28704 0.0
H5042 H 0.58666 0.60819 0.27065 0.0
H5043 H 0.62767 0.59706 0.26069 0.0
H5044 H 0.62774 0.5819 0.26752 0.0
H5045 H 0.63543 0.59785 0.27837 0.0
H5046 H 0.61958 0.58468 0.3001 0.0
H5047 H 0.61179 0.56855 0.28951 0.0
H5048 H 0.6009 0.57465 0.29739 0.0
H5049 H 0.57225 0.58611 0.25048 0.0
H5050 H 0.56215 0.55969 0.23459 0.0
H5051 H 0.60143 0.55549 0.26045 0.0
C5052 C 0.61891 0.61006 0.29037 0.0
C5053 C 0.616 0.62099 0.29254 0.0
C5054 C 0.60424 0.62014 0.28539 0.0
C5055 C 0.5956 0.60873 0.27613 0.0
C5056 C 0.59871 0.59813 0.27417 0.0
C5057 C 0.61024 0.59856 0.28123 0.0
C5058 C 0.61252 0.58613 0.27804 0.0
C5059 C 0.62667 0.59103 0.27073 0.0
C5060 C 0.61112 0.57803 0.29209 0.0
C5061 C 0.60082 0.57732 0.26755 0.0
C5062 C 0.5913 0.58573 0.26505 0.0
C5063 C 0.57721 0.57996 0.25208 0.0
C5064 C 0.57137 0.56403 0.24157 0.0
C5065 C 0.5792 0.55341 0.24787 0.0
C5066 C 0.59632 0.56135 0.25795 0.0
H5067 H 0.38665 0.00419 0.31515 0.0
H5068 H 0.36039 0.95921 0.30902 0.0
H5069 H 0.37931 0.95862 0.29542 0.0
H5070 H 0.40275 0.01096 0.2796 0.0
H5071 H 0.41962 0.02443 0.2864 0.0
H5072 H 0.40399 0.02132 0.29561 0.0
H5073 H 0.41359 0.0176 0.32009 0.0
H5074 H 0.42926 0.02075 0.31097 0.0
H5075 H 0.41896 0.00475 0.32079 0.0
H5076 H 0.40145 0.96281 0.28345 0.0
H5077 H 0.42492 0.97162 0.27309 0.0
H5078 H 0.43647 0.01395 0.28632 0.0
C5079 C 0.38492 0.99421 0.31101 0.0
C5080 C 0.37206 0.98173 0.31313 0.0
C5081 C 0.37012 0.9689 0.30738 0.0
C5082 C 0.38081 0.96846 0.29971 0.0
C5083 C 0.39336 0.98095 0.29779 0.0
C5084 C 0.39544 0.99359 0.30322 0.0
C5085 C 0.40988 0.00551 0.29961 0.0
C5086 C 0.409 0.01618 0.28971 0.0
C5087 C 0.41843 0.01256 0.3137 0.0
C5088 C 0.41562 0.99757 0.29138 0.0
C5089 C 0.40595 0.98342 0.2905 0.0
C5090 C 0.40904 0.9739 0.28387 0.0
C5091 C 0.42237 0.97901 0.27796 0.0
C5092 C 0.43237 0.99354 0.27849 0.0
C5093 C 0.42891 0.00286 0.28541 0.0
H5094 H 0.59914 0.96115 0.2961 0.0
H5095 H 0.6334 0.00343 0.28976 0.0
H5096 H 0.61879 0.0078 0.27275 0.0
H5097 H 0.58669 0.95333 0.25945 0.0
H5098 H 0.56869 0.94269 0.26473 0.0
H5099 H 0.58245 0.94431 0.27665 0.0
H5100 H 0.57316 0.95282 0.29791 0.0
H5101 H 0.55931 0.95132 0.28622 0.0
H5102 H 0.57103 0.96774 0.29542 0.0
H5103 H 0.60178 0.01054 0.25225 0.0
H5104 H 0.57743 0.00513 0.23492 0.0
H5105 H 0.55157 0.95565 0.25703 0.0
C5106 C 0.60351 0.97127 0.29101 0.0
C5107 C 0.61735 0.98197 0.29431 0.0
C5108 C 0.62274 0.99515 0.28762 0.0
C5109 C 0.61456 0.9977 0.27786 0.0
C5110 C 0.60097 0.98702 0.27479 0.0
C5111 C 0.59526 0.97375 0.28118 0.0
C5112 C 0.58012 0.9628 0.27658 0.0
C5113 C 0.57945 0.95003 0.2689 0.0
C5114 C 0.57033 0.95841 0.28981 0.0
C5115 C 0.57654 0.97071 0.26596 0.0
C5116 C 0.59104 0.98752 0.26501 0.0
C5117 C 0.59219 0.00055 0.25281 0.0
C5118 C 0.57744 0.99705 0.24144 0.0
C5119 C 0.56096 0.98051 0.24609 0.0
C5120 C 0.56101 0.96558 0.25537 0.0
H5121 H 0.02532 0.63217 0.2961 0.0
H5122 H 0.98116 0.61783 0.29922 0.0
H5123 H 0.97558 0.59701 0.28394 0.0
H5124 H 0.02601 0.62368 0.25924 0.0
H5125 H 0.03936 0.6192 0.26206 0.0
H5126 H 0.03852 0.63177 0.2741 0.0
H5127 H 0.03696 0.61722 0.29663 0.0
H5128 H 0.03789 0.60453 0.28482 0.0
H5129 H 0.0235 0.59904 0.29724 0.0
H5130 H 0.97127 0.57588 0.26372 0.0
H5131 H 0.97621 0.55762 0.24454 0.0
H5132 H 0.02893 0.58939 0.25635 0.0
C5133 C 0.0145 0.62461 0.29348 0.0
C5134 C 0.00367 0.62657 0.2988 0.0
C5135 C 0.98962 0.61643 0.2954 0.0
C5136 C 0.98635 0.60462 0.28667 0.0
C5137 C 0.99722 0.60299 0.28143 0.0
C5138 C 0.01132 0.61284 0.28472 0.0
C5139 C 0.02236 0.60998 0.27789 0.0
C5140 C 0.03213 0.62186 0.26773 0.0
C5141 C 0.03066 0.60755 0.28985 0.0
C5142 C 0.01353 0.59683 0.2692 0.0
C5143 C 0.99613 0.59198 0.27191 0.0
C5144 C 0.98175 0.5778 0.2622 0.0
C5145 C 0.98477 0.56692 0.24964 0.0
C5146 C 0.00305 0.57012 0.2505 0.0
C5147 C 0.01825 0.58709 0.2571 0.0
H5148 H 0.38606 0.37294 0.29406 0.0
H5149 H 0.39871 0.39527 0.336 0.0
H5150 H 0.42306 0.40883 0.32743 0.0
H5151 H 0.41592 0.36959 0.2895 0.0
H5152 H 0.41679 0.37197 0.26991 0.0
H5153 H 0.40024 0.36467 0.279 0.0
H5154 H 0.3964 0.38403 0.26828 0.0
H5155 H 0.41292 0.39135 0.25909 0.0
H5156 H 0.4095 0.40217 0.27134 0.0
H5157 H 0.44632 0.41877 0.31483 0.0
H5158 H 0.46651 0.42504 0.29878 0.0
H5159 H 0.43847 0.39654 0.26495 0.0
C5160 C 0.39394 0.38072 0.30143 0.0
C5161 C 0.39048 0.38306 0.3157 0.0
C5162 C 0.40108 0.39343 0.32496 0.0
C5163 C 0.41495 0.40112 0.32022 0.0
C5164 C 0.41803 0.39838 0.30616 0.0
C5165 C 0.4078 0.38851 0.29686 0.0
C5166 C 0.41387 0.38732 0.28242 0.0
C5167 C 0.41157 0.37251 0.28008 0.0
C5168 C 0.40781 0.39147 0.26952 0.0
C5169 C 0.42915 0.39797 0.2851 0.0
C5170 C 0.43136 0.40422 0.29886 0.0
C5171 C 0.44471 0.41401 0.30399 0.0
C5172 C 0.4561 0.41748 0.29482 0.0
C5173 C 0.45408 0.4112 0.28067 0.0
C5174 C 0.44036 0.40144 0.27575 0.0
H5175 H 0.33682 0.27163 0.36909 0.0
H5176 H 0.35084 0.30513 0.40177 0.0
H5177 H 0.36504 0.29671 0.4139 0.0
H5178 H 0.33578 0.24497 0.39389 0.0
H5179 H 0.3421 0.23791 0.37995 0.0
H5180 H 0.33182 0.24563 0.37479 0.0
H5181 H 0.35154 0.26253 0.35755 0.0
H5182 H 0.36187 0.25489 0.36267 0.0
H5183 H 0.36897 0.27349 0.36491 0.0
H5184 H 0.37992 0.28647 0.42067 0.0
H5185 H 0.39357 0.27451 0.42212 0.0
H5186 H 0.36953 0.24733 0.38549 0.0
C5187 C 0.34273 0.27708 0.37891 0.0
C5188 C 0.34261 0.28898 0.38454 0.0
C5189 C 0.35052 0.29583 0.39741 0.0
C5190 C 0.35869 0.29116 0.40435 0.0
C5191 C 0.35876 0.27956 0.39837 0.0
C5192 C 0.35089 0.27252 0.38602 0.0
C5193 C 0.3534 0.26081 0.38133 0.0
C5194 C 0.33998 0.24648 0.38257 0.0
C5195 C 0.3593 0.26307 0.36569 0.0
C5196 C 0.36421 0.26263 0.39271 0.0
C5197 C 0.36711 0.27344 0.4025 0.0
C5198 C 0.37751 0.27776 0.4133 0.0
C5199 C 0.38519 0.27088 0.41406 0.0
C5200 C 0.38232 0.25971 0.40418 0.0
C5201 C 0.37164 0.25555 0.39345 0.0
H5202 H 0.70565 0.04632 0.3914 0.0
H5203 H 0.72163 0.05746 0.34716 0.0
H5204 H 0.73248 0.08247 0.35397 0.0
H5205 H 0.69763 0.07301 0.39719 0.0
H5206 H 0.7032 0.07627 0.41618 0.0
H5207 H 0.69695 0.05919 0.40802 0.0
H5208 H 0.72003 0.06023 0.41548 0.0
H5209 H 0.7263 0.07727 0.42379 0.0
H5210 H 0.73649 0.07486 0.40994 0.0
H5211 H 0.74059 0.10625 0.3652 0.0
H5212 H 0.74644 0.12717 0.38051 0.0
H5213 H 0.72644 0.10059 0.41776 0.0
C5214 C 0.71165 0.05399 0.38319 0.0
C5215 C 0.71268 0.04986 0.36869 0.0
C5216 C 0.72044 0.06031 0.35826 0.0
C5217 C 0.72673 0.07456 0.36204 0.0
C5218 C 0.72531 0.07824 0.37635 0.0
C5219 C 0.7181 0.06827 0.38681 0.0
C5220 C 0.71806 0.07502 0.40139 0.0
C5221 C 0.70307 0.07061 0.40595 0.0
C5222 C 0.72568 0.07164 0.41335 0.0
C5223 C 0.72622 0.09033 0.39742 0.0
C5224 C 0.73028 0.09196 0.38292 0.0
C5225 C 0.73756 0.10511 0.3766 0.0
C5226 C 0.7408 0.11692 0.38536 0.0
C5227 C 0.73679 0.1155 0.40028 0.0
C5228 C 0.72952 0.102 0.40636 0.0
H5229 H 0.93734 0.66771 0.36592 0.0
H5230 H 0.959 0.66203 0.40254 0.0
H5231 H 0.93657 0.64847 0.41538 0.0
H5232 H 0.91121 0.67083 0.38803 0.0
H5233 H 0.89752 0.66143 0.37453 0.0
H5234 H 0.91543 0.67168 0.36883 0.0
H5235 H 0.91338 0.64983 0.35557 0.0
H5236 H 0.8955 0.63952 0.36125 0.0
H5237 H 0.90784 0.63407 0.36576 0.0
H5238 H 0.91147 0.63321 0.42283 0.0
H5239 H 0.88585 0.6187 0.42503 0.0
H5240 H 0.88063 0.63529 0.38415 0.0
C5241 C 0.93737 0.66376 0.37673 0.0
C5242 C 0.94991 0.66596 0.38327 0.0
C5243 C 0.94954 0.66064 0.39742 0.0
C5244 C 0.93684 0.65287 0.40477 0.0
C5245 C 0.92463 0.65069 0.3979 0.0
C5246 C 0.92482 0.65613 0.38427 0.0
C5247 C 0.91019 0.65185 0.37904 0.0
C5248 C 0.90849 0.66471 0.37752 0.0
C5249 C 0.90652 0.64331 0.36455 0.0
C5250 C 0.90172 0.64285 0.39167 0.0
C5251 C 0.91023 0.64231 0.40244 0.0
C5252 C 0.90471 0.6338 0.41463 0.0
C5253 C 0.89012 0.6256 0.41579 0.0
C5254 C 0.8812 0.6261 0.40491 0.0
C5255 C 0.88718 0.63495 0.39279 0.0
H5256 H 0.40299 0.02711 0.71802 0.0
H5257 H 0.40167 0.00415 0.67846 0.0
H5258 H 0.4222 0.00314 0.68742 0.0
H5259 H 0.44002 0.04813 0.72039 0.0
H5260 H 0.44083 0.04808 0.74017 0.0
H5261 H 0.42553 0.04624 0.73107 0.0
H5262 H 0.41003 0.02309 0.7447 0.0
H5263 H 0.42529 0.02485 0.75383 0.0
H5264 H 0.41391 0.00915 0.74333 0.0
H5265 H 0.44324 0.0053 0.70024 0.0
H5266 H 0.46392 0.01118 0.71572 0.0
H5267 H 0.45182 0.03307 0.74676 0.0
C5268 C 0.40693 0.02171 0.71136 0.0
C5269 C 0.40075 0.01565 0.69759 0.0
C5270 C 0.40633 0.00892 0.68901 0.0
C5271 C 0.41791 0.00822 0.69404 0.0
C5272 C 0.42382 0.01437 0.70764 0.0
C5273 C 0.41857 0.02104 0.71616 0.0
C5274 C 0.42729 0.02741 0.73 0.0
C5275 C 0.4338 0.04341 0.73042 0.0
C5276 C 0.41861 0.02072 0.74378 0.0
C5277 C 0.43831 0.02334 0.7279 0.0
C5278 C 0.43605 0.01573 0.71498 0.0
C5279 C 0.44505 0.01113 0.71045 0.0
C5280 C 0.45673 0.01448 0.71931 0.0
C5281 C 0.45929 0.02231 0.73256 0.0
C5282 C 0.44994 0.0268 0.73686 0.0
H5283 H 0.00933 0.3842 0.72433 0.0
H5284 H 0.96413 0.35946 0.72622 0.0
H5285 H 0.96398 0.37709 0.7429 0.0
H5286 H 0.01693 0.39634 0.7606 0.0
H5287 H 0.03137 0.41325 0.75585 0.0
H5288 H 0.02669 0.39822 0.74417 0.0
H5289 H 0.024 0.4109 0.72198 0.0
H5290 H 0.02875 0.42612 0.73341 0.0
H5291 H 0.01251 0.41792 0.72313 0.0
H5292 H 0.96578 0.39689 0.76351 0.0
H5293 H 0.97664 0.42258 0.78097 0.0
H5294 H 0.02579 0.43631 0.76212 0.0
C5295 C 0.99942 0.38264 0.72811 0.0
C5296 C 0.98676 0.37043 0.72402 0.0
C5297 C 0.97399 0.3686 0.72939 0.0
C5298 C 0.97379 0.3786 0.7388 0.0
C5299 C 0.98638 0.3905 0.74268 0.0
C5300 C 0.99927 0.39275 0.7374 0.0
C5301 C 0.01245 0.40643 0.74255 0.0
C5302 C 0.02244 0.40337 0.75131 0.0
C5303 C 0.01986 0.4159 0.72949 0.0
C5304 C 0.00647 0.41297 0.75231 0.0
C5305 C 0.9884 0.40186 0.75221 0.0
C5306 C 0.97681 0.40459 0.76351 0.0
C5307 C 0.98353 0.42008 0.77499 0.0
C5308 C 0.00222 0.43347 0.77133 0.0
C5309 C 0.01475 0.4288 0.76309 0.0
H5310 H 0.60782 0.6252 0.70964 0.0
H5311 H 0.62781 0.60272 0.72506 0.0
H5312 H 0.60843 0.58963 0.74216 0.0
H5313 H 0.59541 0.62999 0.74296 0.0
H5314 H 0.57962 0.62813 0.73504 0.0
H5315 H 0.59507 0.63452 0.72409 0.0
H5316 H 0.58145 0.61496 0.70469 0.0
H5317 H 0.56581 0.60843 0.71539 0.0
H5318 H 0.57221 0.59694 0.7102 0.0
H5319 H 0.58726 0.57769 0.76266 0.0
H5320 H 0.56135 0.56906 0.77809 0.0
H5321 H 0.5541 0.60249 0.74497 0.0
C5322 C 0.60791 0.61733 0.71647 0.0
C5323 C 0.61925 0.61493 0.71605 0.0
C5324 C 0.61927 0.60481 0.72532 0.0
C5325 C 0.6083 0.59729 0.73501 0.0
C5326 C 0.59732 0.59994 0.73535 0.0
C5327 C 0.59689 0.60985 0.72617 0.0
C5328 C 0.58422 0.61194 0.72792 0.0
C5329 C 0.58886 0.62703 0.73279 0.0
C5330 C 0.57541 0.60782 0.71371 0.0
C5331 C 0.57623 0.602 0.73985 0.0
C5332 C 0.58539 0.59369 0.74476 0.0
C5333 C 0.58067 0.58188 0.75968 0.0
C5334 C 0.56506 0.57706 0.76984 0.0
C5335 C 0.55358 0.58301 0.76134 0.0
C5336 C 0.56047 0.59833 0.74888 0.0
H5337 H 0.6489 0.71354 0.64852 0.0
H5338 H 0.68721 0.72828 0.62424 0.0
H5339 H 0.68303 0.74563 0.61186 0.0
H5340 H 0.62898 0.71613 0.6186 0.0
H5341 H 0.61941 0.72155 0.63023 0.0
H5342 H 0.62568 0.71064 0.63743 0.0
H5343 H 0.63878 0.72884 0.6584 0.0
H5344 H 0.63256 0.73981 0.65127 0.0
H5345 H 0.65104 0.74675 0.65391 0.0
H5346 H 0.67509 0.76199 0.60306 0.0
H5347 H 0.66317 0.77496 0.59689 0.0
H5348 H 0.62906 0.74824 0.62556 0.0
C5349 C 0.65641 0.72048 0.64063 0.0
C5350 C 0.66841 0.71971 0.63734 0.0
C5351 C 0.67795 0.72876 0.62684 0.0
C5352 C 0.67568 0.73864 0.61981 0.0
C5353 C 0.66372 0.73915 0.6233 0.0
C5354 C 0.65417 0.73021 0.63334 0.0
C5355 C 0.64194 0.73259 0.63478 0.0
C5356 C 0.62819 0.71945 0.62997 0.0
C5357 C 0.64104 0.73728 0.65053 0.0
C5358 C 0.64616 0.74435 0.62407 0.0
C5359 C 0.65881 0.74808 0.61767 0.0
C5360 C 0.66508 0.75903 0.60784 0.0
C5361 C 0.65818 0.76632 0.60437 0.0
C5362 C 0.64499 0.76243 0.61053 0.0
C5363 C 0.63901 0.75131 0.62053 0.0
H5364 H 0.29834 0.94208 0.63131 0.0
H5365 H 0.27407 0.96123 0.61927 0.0
H5366 H 0.25817 0.94028 0.6044 0.0
H5367 H 0.29678 0.9253 0.59784 0.0
H5368 H 0.29599 0.91036 0.60644 0.0
H5369 H 0.3046 0.92717 0.61574 0.0
H5370 H 0.28882 0.91653 0.63819 0.0
H5371 H 0.28005 0.89959 0.62915 0.0
H5372 H 0.27009 0.90725 0.6358 0.0
H5373 H 0.24227 0.91669 0.58658 0.0
H5374 H 0.2302 0.88868 0.57381 0.0
H5375 H 0.26845 0.88417 0.60161 0.0
C5376 C 0.28956 0.94172 0.62566 0.0
C5377 C 0.28744 0.95327 0.62642 0.0
C5378 C 0.27603 0.9526 0.61868 0.0
C5379 C 0.26688 0.94071 0.61029 0.0
C5380 C 0.26918 0.92948 0.60973 0.0
C5381 C 0.2804 0.92976 0.61733 0.0
C5382 C 0.28173 0.91658 0.61571 0.0
C5383 C 0.2956 0.92007 0.60851 0.0
C5384 C 0.28007 0.90958 0.63059 0.0
C5385 C 0.2697 0.90739 0.60572 0.0
C5386 C 0.26107 0.91645 0.60177 0.0
C5387 C 0.24669 0.91021 0.58911 0.0
C5388 C 0.23961 0.89319 0.58051 0.0
C5389 C 0.24658 0.88238 0.58846 0.0
C5390 C 0.26393 0.89033 0.59808 0.0
H5391 H 0.06683 0.35052 0.64765 0.0
H5392 H 0.04376 0.30913 0.62742 0.0
H5393 H 0.06485 0.31371 0.61373 0.0
H5394 H 0.08635 0.36795 0.61534 0.0
H5395 H 0.10205 0.37979 0.62551 0.0
H5396 H 0.08525 0.37314 0.63392 0.0
H5397 H 0.0932 0.36369 0.65551 0.0
H5398 H 0.11004 0.37034 0.64718 0.0
H5399 H 0.09979 0.35209 0.65168 0.0
H5400 H 0.08871 0.32242 0.60324 0.0
H5401 H 0.11325 0.33514 0.59534 0.0
H5402 H 0.1204 0.37152 0.6211 0.0
C5403 C 0.06628 0.34243 0.64038 0.0
C5404 C 0.05376 0.32945 0.6386 0.0
C5405 C 0.0533 0.31915 0.62886 0.0
C5406 C 0.06521 0.32165 0.62109 0.0
C5407 C 0.07741 0.33457 0.62306 0.0
C5408 C 0.078 0.34484 0.63236 0.0
C5409 C 0.09231 0.35794 0.63223 0.0
C5410 C 0.09143 0.37044 0.6264 0.0
C5411 C 0.09924 0.3612 0.64756 0.0
C5412 C 0.09971 0.35338 0.62152 0.0
C5413 C 0.09096 0.33983 0.61644 0.0
C5414 C 0.0956 0.33312 0.60694 0.0
C5415 C 0.10956 0.34047 0.60246 0.0
C5416 C 0.11865 0.35451 0.60725 0.0
C5417 C 0.11359 0.36094 0.61698 0.0
H5418 H 0.28625 0.33621 0.63417 0.0
H5419 H 0.29937 0.36176 0.67404 0.0
H5420 H 0.28878 0.37522 0.66479 0.0
H5421 H 0.29434 0.36378 0.61028 0.0
H5422 H 0.27978 0.35382 0.59786 0.0
H5423 H 0.28685 0.34511 0.6083 0.0
H5424 H 0.26239 0.32851 0.619 0.0
H5425 H 0.25522 0.33715 0.60852 0.0
H5426 H 0.2531 0.33583 0.62816 0.0
H5427 H 0.27845 0.38698 0.65049 0.0
H5428 H 0.26919 0.39643 0.63199 0.0
H5429 H 0.2634 0.36369 0.60108 0.0
C5430 C 0.28656 0.34442 0.64106 0.0
C5431 C 0.29346 0.34792 0.65485 0.0
C5432 C 0.29406 0.35895 0.66345 0.0
C5433 C 0.28805 0.3666 0.65831 0.0
C5434 C 0.28155 0.3631 0.64452 0.0
C5435 C 0.28076 0.35228 0.636 0.0
C5436 C 0.27417 0.35138 0.62112 0.0
C5437 C 0.2844 0.35366 0.60866 0.0
C5438 C 0.2604 0.33738 0.61909 0.0
C5439 C 0.27156 0.36351 0.62253 0.0
C5440 C 0.27576 0.37004 0.63617 0.0
C5441 C 0.27493 0.38184 0.63985 0.0
C5442 C 0.26966 0.38712 0.6293 0.0
C5443 C 0.26528 0.3806 0.61526 0.0
C5444 C 0.26633 0.36867 0.61186 0.0
H5445 H 0.66408 0.93856 0.64963 0.0
H5446 H 0.65521 0.95774 0.61314 0.0
H5447 H 0.64061 0.93442 0.60137 0.0
H5448 H 0.66558 0.91119 0.62766 0.0
H5449 H 0.65747 0.89831 0.64174 0.0
H5450 H 0.66798 0.9166 0.64674 0.0
H5451 H 0.64721 0.91515 0.66117 0.0
H5452 H 0.63665 0.89689 0.6562 0.0
H5453 H 0.63062 0.90881 0.65191 0.0
H5454 H 0.62497 0.9088 0.59498 0.0
H5455 H 0.61067 0.88301 0.5937 0.0
H5456 H 0.63075 0.88061 0.63365 0.0
C5457 C 0.65917 0.93784 0.63909 0.0
C5458 C 0.66079 0.94994 0.63226 0.0
C5459 C 0.65424 0.94861 0.61846 0.0
C5460 C 0.64589 0.93542 0.61172 0.0
C5461 C 0.64436 0.92367 0.61884 0.0
C5462 C 0.65096 0.92478 0.63213 0.0
C5463 C 0.64731 0.91052 0.63768 0.0
C5464 C 0.66036 0.90907 0.6385 0.0
C5465 C 0.64001 0.90768 0.65262 0.0
C5466 C 0.63735 0.9012 0.62564 0.0
C5467 C 0.63577 0.90897 0.61486 0.0
C5468 C 0.62634 0.90261 0.60318 0.0
C5469 C 0.61827 0.88793 0.60254 0.0
C5470 C 0.61983 0.87977 0.61342 0.0
C5471 C 0.62959 0.88658 0.62501 0.0
H5472 H 0.06033 0.72952 0.65689 0.0
H5473 H 0.0413 0.69703 0.62305 0.0
H5474 H 0.06423 0.70628 0.61123 0.0
H5475 H 0.08562 0.75722 0.63294 0.0
H5476 H 0.09911 0.76433 0.64695 0.0
H5477 H 0.08099 0.75585 0.65205 0.0
H5478 H 0.08445 0.73897 0.6686 0.0
H5479 H 0.10255 0.74738 0.66356 0.0
H5480 H 0.09141 0.72876 0.66077 0.0
H5481 H 0.0896 0.71743 0.6047 0.0
H5482 H 0.11534 0.73041 0.60325 0.0
H5483 H 0.11777 0.75627 0.64068 0.0
C5484 C 0.06097 0.72445 0.6469 0.0
C5485 C 0.04902 0.7126 0.64084 0.0
C5486 C 0.05028 0.70626 0.62775 0.0
C5487 C 0.06327 0.7114 0.62099 0.0
C5488 C 0.07488 0.72298 0.62736 0.0
C5489 C 0.07383 0.72952 0.63994 0.0
C5490 C 0.08799 0.74147 0.64488 0.0
C5491 C 0.08845 0.75555 0.64416 0.0
C5492 C 0.09182 0.73899 0.66037 0.0
C5493 C 0.0972 0.7404 0.63333 0.0
C5494 C 0.08944 0.72969 0.62331 0.0
C5495 C 0.09577 0.72605 0.61228 0.0
C5496 C 0.11041 0.73351 0.61152 0.0
C5497 C 0.11855 0.74462 0.62163 0.0
C5498 C 0.11177 0.74809 0.63258 0.0
H5499 H 0.98294 0.59891 0.70082 0.0
H5500 H 0.99582 0.62945 0.73657 0.0
H5501 H 0.00422 0.61622 0.75068 0.0
H5502 H 0.97158 0.56808 0.72401 0.0
H5503 H 0.97796 0.55997 0.71139 0.0
H5504 H 0.97198 0.57126 0.7046 0.0
H5505 H 0.99579 0.58654 0.69198 0.0
H5506 H 0.00185 0.57533 0.69875 0.0
H5507 H 0.01168 0.59387 0.70281 0.0
H5508 H 0.01354 0.60117 0.75967 0.0
H5509 H 0.02191 0.58465 0.76352 0.0
H5510 H 0.00194 0.56315 0.72252 0.0
C5511 C 0.98739 0.60271 0.71169 0.0
C5512 C 0.98867 0.61516 0.71764 0.0
C5513 C 0.99455 0.61982 0.73189 0.0
C5514 C 0.9994 0.61241 0.73997 0.0
C5515 C 0.99815 0.60027 0.7337 0.0
C5516 C 0.99215 0.59536 0.71996 0.0
C5517 C 0.9925 0.58231 0.71553 0.0
C5518 C 0.97762 0.56966 0.71378 0.0
C5519 C 0.00096 0.58466 0.70144 0.0
C5520 C 0.99994 0.58087 0.72877 0.0
C5521 C 0.00311 0.59132 0.73913 0.0
C5522 C 0.01086 0.59275 0.75179 0.0
C5523 C 0.01556 0.58329 0.75389 0.0
C5524 C 0.01234 0.5724 0.74344 0.0
C5525 C 0.00431 0.57118 0.73082 0.0
H5526 H 0.4012 0.39795 0.71107 0.0
H5527 H 0.36557 0.38106 0.74008 0.0
H5528 H 0.37446 0.40451 0.75122 0.0
H5529 H 0.42704 0.42485 0.737 0.0
H5530 H 0.43525 0.43741 0.72266 0.0
H5531 H 0.42723 0.41895 0.71849 0.0
H5532 H 0.41186 0.42112 0.69836 0.0
H5533 H 0.4198 0.43953 0.70249 0.0
H5534 H 0.40108 0.42841 0.70318 0.0
H5535 H 0.3854 0.43021 0.75685 0.0
H5536 H 0.398 0.45608 0.75694 0.0
H5537 H 0.42641 0.45628 0.72428 0.0
C5538 C 0.39537 0.39912 0.71992 0.0
C5539 C 0.38273 0.38759 0.72475 0.0
C5540 C 0.37543 0.38963 0.73637 0.0
C5541 C 0.38036 0.40294 0.74273 0.0
C5542 C 0.39265 0.41413 0.73743 0.0
C5543 C 0.40012 0.41234 0.72636 0.0
C5544 C 0.41239 0.42623 0.72183 0.0
C5545 C 0.4263 0.4269 0.7252 0.0
C5546 C 0.4112 0.42898 0.7055 0.0
C5547 C 0.4104 0.43614 0.73176 0.0
C5548 C 0.39904 0.42896 0.74079 0.0
C5549 C 0.39452 0.43593 0.7501 0.0
C5550 C 0.40175 0.45062 0.7501 0.0
C5551 C 0.41343 0.45817 0.74093 0.0
C5552 C 0.41779 0.45077 0.73172 0.0
H5553 H 0.61864 0.00041 0.70517 0.0
H5554 H 0.63997 0.04571 0.70257 0.0
H5555 H 0.61982 0.04555 0.71416 0.0
H5556 H 0.58481 0.99398 0.69666 0.0
H5557 H 0.57595 0.97971 0.70917 0.0
H5558 H 0.59234 0.98343 0.70141 0.0
H5559 H 0.6027 0.98573 0.72756 0.0
H5560 H 0.58631 0.982 0.73541 0.0
H5561 H 0.60222 0.9978 0.7407 0.0
H5562 H 0.59695 0.04041 0.72479 0.0
H5563 H 0.57275 0.03057 0.73346 0.0
H5564 H 0.56659 0.9887 0.72998 0.0
C5565 C 0.61917 0.01032 0.70726 0.0
C5566 C 0.63088 0.02308 0.70294 0.0
C5567 C 0.63104 0.03579 0.70561 0.0
C5568 C 0.6197 0.03582 0.7123 0.0
C5569 C 0.6083 0.02306 0.71632 0.0
C5570 C 0.60796 0.01054 0.71394 0.0
C5571 C 0.59421 0.99824 0.71876 0.0
C5572 C 0.58637 0.98825 0.70572 0.0
C5573 C 0.5965 0.99049 0.73136 0.0
C5574 C 0.5868 0.00578 0.72403 0.0
C5575 C 0.59514 0.0201 0.72259 0.0
C5576 C 0.59036 0.02922 0.7261 0.0
C5577 C 0.57661 0.02354 0.731 0.0
C5578 C 0.5678 0.00889 0.73236 0.0
C5579 C 0.5731 0.99995 0.72907 0.0
loop_
_geom_bond_atom_site_label_1
_geom_bond_atom_site_label_2
_geom_bond_distance
_geom_bond_site_symmetry_2
_ccdc_geom_bond_type
Li0 N17 1.976 1_554 S
Li0 O60 2.007 . S
Li0 O61 1.946 1_654 S
Li0 O62 1.955 1_554 S
Li1 N25 1.990 . S
Li1 O60 1.970 1_455 S
Li1 O61 1.956 1_554 S
Li1 O63 1.961 . S
Li2 N47 1.990 . S
Li2 O60 1.961 . S
Li2 O62 1.899 1_554 S
Li2 O63 1.970 1_655 S
Li3 N53 1.990 . S
Li3 O61 1.961 . S
Li3 O62 1.989 1_455 S
Li3 O63 1.956 1_556 S
C4 C6 1.326 1_655 S
C4 C7 1.356 . S
C4 O60 1.325 . S
N5 C8 1.314 . S
N5 C9 1.279 . S
C6 C4 1.326 1_455 S
C6 C8 1.351 1_455 S
C6 H64 0.953 . S
C7 C4 1.356 . S
C7 C9 1.358 . S
C7 H65 0.930 . S
C8 N5 1.314 . S
C8 C6 1.351 1_655 S
C8 H66 0.929 . S
C9 N5 1.279 . S
C9 C7 1.358 . S
C9 H67 0.930 . S
C10 C13 1.348 . S
C10 C14 1.356 . S
C10 O61 1.325 . S
C11 N12 1.279 . S
C11 C14 1.358 . S
C11 H68 0.930 . S
N12 C11 1.279 . S
N12 C15 1.314 . S
C13 C10 1.348 . S
C13 C15 1.353 . S
C13 H69 0.938 . S
C14 C10 1.356 . S
C14 C11 1.358 . S
C14 H70 0.930 . S
C15 N12 1.314 . S
C15 C13 1.353 . S
C15 H71 0.930 . S
C16 N17 1.314 . S
C16 C21 1.353 . S
C16 H22 0.930 . S
N17 Li0 1.976 1_556 S
N17 C16 1.314 . S
N17 C19 1.263 1_556 S
C18 C19 1.348 1_556 S
C18 C20 1.356 . S
C18 H72 0.930 1_556 S
C19 N17 1.263 1_554 S
C19 C18 1.348 1_554 S
C19 H23 0.961 . S
C20 C18 1.356 . S
C20 C21 1.348 . S
C21 C16 1.353 . S
C21 C20 1.348 . S
C21 H73 0.929 . S
H22 C16 0.930 . S
H23 C19 0.961 . S
C24 N25 1.314 . S
C24 C26 1.353 . S
C24 H30 0.930 . S
N25 Li1 1.990 . S
N25 C24 1.314 . S
N25 C28 1.279 . S
C26 C24 1.353 . S
C26 C29 1.348 . S
C26 H74 0.929 . S
C27 C28 1.358 . S
C27 C29 1.356 . S
C27 H75 0.930 . S
C28 N25 1.279 . S
C28 C27 1.358 . S
C28 H31 0.930 . S
C29 C26 1.348 . S
C29 C27 1.356 . S
H30 C24 0.930 . S
H31 C28 0.930 . S
C32 C34 1.348 . S
C32 C35 1.356 . S
C32 O62 1.344 . S
N33 C36 1.314 . S
N33 C37 1.279 . S
C34 C32 1.348 . S
C34 C36 1.353 . S
C34 H76 0.929 . S
C35 C32 1.356 . S
C35 C37 1.358 . S
C35 H77 0.930 1_556 S
C36 N33 1.314 . S
C36 C34 1.353 . S
C36 H78 0.930 . S
C37 N33 1.279 . S
C37 C35 1.358 . S
C37 H79 0.930 . S
C38 C39 1.348 . S
C38 C40 1.356 . S
C38 O63 1.325 . S
C39 C38 1.348 . S
C39 C41 1.353 . S
C39 H80 0.929 . S
C40 C38 1.356 . S
C40 C42 1.358 . S
C40 H81 0.930 . S
C41 C39 1.353 . S
C41 N43 1.314 . S
C41 H82 0.930 . S
C42 C40 1.358 . S
C42 N43 1.279 . S
C42 H83 0.930 . S
N43 C41 1.314 . S
N43 C42 1.279 . S
C44 C46 1.353 . S
C44 N47 1.314 . S
C44 H50 0.930 . S
C45 N47 1.279 . S
C45 C48 1.358 . S
C45 H51 0.930 . S
C46 C44 1.353 . S
C46 C49 1.348 . S
C46 H84 0.929 . S
N47 Li2 1.990 . S
N47 C44 1.314 . S
N47 C45 1.279 . S
C48 C45 1.358 . S
C48 C49 1.356 . S
C48 H85 0.930 . S
C49 C46 1.348 . S
C49 C48 1.356 . S
H50 C44 0.930 . S
H51 C45 0.930 . S
C52 N53 1.314 . S
C52 C54 1.353 . S
C52 H58 0.930 . S
N53 Li3 1.990 . S
N53 C52 1.314 . S
N53 C56 1.279 . S
C54 C52 1.353 . S
C54 C57 1.348 . S
C54 H86 0.929 . S
C55 C56 1.358 . S
C55 C57 1.356 . S
C55 H87 0.930 . S
C56 N53 1.279 . S
C56 C55 1.358 . S
C56 H59 0.930 . S
C57 C54 1.348 . S
C57 C55 1.356 . S
H58 C52 0.930 . S
H59 C56 0.930 . S
O60 Li0 2.007 . S
O60 Li1 1.970 1_655 S
O60 Li2 1.961 . S
O60 C4 1.325 . S
O61 Li0 1.946 1_456 S
O61 Li1 1.956 1_556 S
O61 Li3 1.961 . S
O61 C10 1.325 . S
O62 Li0 1.955 1_556 S
O62 Li2 1.899 1_556 S
O62 Li3 1.989 1_655 S
O62 C32 1.344 . S
O63 Li1 1.961 . S
O63 Li2 1.970 1_455 S
O63 Li3 1.956 1_554 S
O63 C38 1.325 . S
H64 C6 0.953 . S
H65 C7 0.930 . S
H66 C8 0.929 . S
H67 C9 0.930 . S
H68 C11 0.930 . S
H69 C13 0.938 . S
H70 C14 0.930 . S
H71 C15 0.930 . S
H72 C18 0.930 1_554 S
H73 C21 0.929 . S
H74 C26 0.929 . S
H75 C27 0.930 . S
H76 C34 0.929 . S
H77 C35 0.930 1_554 S
H78 C36 0.930 . S
H79 C37 0.930 . S
H80 C39 0.929 . S
H81 C40 0.930 . S
H82 C41 0.930 . S
H83 C42 0.930 . S
H84 C46 0.929 . S
H85 C48 0.930 . S
H86 C54 0.929 . S
H87 C55 0.930 . S
Li88 N105 1.972 1_554 S
Li88 O148 1.956 . S
Li88 O149 1.970 . S
Li88 O150 1.961 . S
Li89 N113 1.990 . S
Li89 O148 1.970 . S
Li89 O149 1.956 . S
Li89 O151 1.961 . S
Li90 N135 1.990 . S
Li90 O148 1.961 . S
Li90 O150 1.956 . S
Li90 O151 1.970 . S
Li91 N141 1.990 1_554 S
Li91 O149 1.961 . S
Li91 O150 1.970 . S
Li91 O151 1.956 . S
C92 C94 1.348 . S
C92 C95 1.356 . S
C92 O148 1.325 . S
N93 C96 1.314 . S
N93 C97 1.279 . S
C94 C92 1.348 . S
C94 C96 1.353 . S
C94 H152 0.929 . S
C95 C92 1.356 . S
C95 C97 1.358 . S
C95 H153 0.930 . S
C96 N93 1.314 . S
C96 C94 1.353 . S
C96 H154 0.930 . S
C97 N93 1.279 . S
C97 C95 1.358 . S
C97 H155 0.930 . S
C98 C101 1.348 . S
C98 C102 1.356 . S
C98 O149 1.325 1_556 S
C99 N100 1.279 . S
C99 C102 1.358 . S
C99 H156 0.930 . S
N100 C99 1.279 . S
N100 C103 1.314 . S
C101 C98 1.348 . S
C101 C103 1.353 . S
C101 H157 0.929 . S
C102 C98 1.356 . S
C102 C99 1.358 . S
C102 H158 0.930 . S
C103 N100 1.314 . S
C103 C101 1.353 . S
C103 H159 0.930 . S
C104 N105 1.357 . S
C104 C109 1.353 . S
C104 H110 0.930 . S
N105 Li88 1.972 1_556 S
N105 C104 1.357 . S
N105 C107 1.261 1_556 S
C106 C107 1.358 1_556 S
C106 C108 1.356 . S
C106 H160 0.930 1_556 S
C107 N105 1.261 1_554 S
C107 C106 1.358 1_554 S
C107 H111 0.930 . S
C108 C106 1.356 . S
C108 C109 1.348 . S
C109 C104 1.353 . S
C109 C108 1.348 . S
C109 H161 0.929 . S
H110 C104 0.930 . S
H111 C107 0.930 . S
C112 N113 1.314 . S
C112 C114 1.353 . S
C112 H118 0.930 . S
N113 Li89 1.990 . S
N113 C112 1.314 . S
N113 C116 1.279 . S
C114 C112 1.353 . S
C114 C117 1.348 . S
C114 H162 0.929 . S
C115 C116 1.358 . S
C115 C117 1.356 . S
C115 H163 0.930 . S
C116 N113 1.279 . S
C116 C115 1.358 . S
C116 H119 0.930 . S
C117 C114 1.348 . S
C117 C115 1.356 . S
H118 C112 0.930 . S
H119 C116 0.930 . S
C120 C122 1.346 . S
C120 C123 1.356 1_556 S
C120 O150 1.326 1_556 S
N121 C124 1.314 . S
N121 C125 1.279 . S
C122 C120 1.346 . S
C122 C124 1.353 . S
C122 H164 0.929 . S
C123 C120 1.356 1_554 S
C123 C125 1.358 1_554 S
C123 H165 0.930 . S
C124 N121 1.314 . S
C124 C122 1.353 . S
C124 H166 0.930 . S
C125 N121 1.279 . S
C125 C123 1.358 1_556 S
C125 H167 0.930 . S
C126 C127 1.348 . S
C126 C128 1.356 . S
C126 O151 1.325 . S
C127 C126 1.348 . S
C127 C129 1.353 . S
C127 H168 0.929 . S
C128 C126 1.356 . S
C128 C130 1.358 . S
C128 H169 0.930 . S
C129 C127 1.353 . S
C129 N131 1.314 . S
C129 H170 0.930 . S
C130 C128 1.358 . S
C130 N131 1.279 . S
C130 H171 0.930 . S
N131 C129 1.314 . S
N131 C130 1.279 . S
C132 C134 1.353 . S
C132 N135 1.314 . S
C132 H138 0.930 . S
C133 N135 1.279 . S
C133 C136 1.358 . S
C133 H139 0.930 . S
C134 C132 1.353 . S
C134 C137 1.348 . S
C134 H172 0.929 . S
N135 Li90 1.990 . S
N135 C132 1.314 . S
N135 C133 1.279 . S
C136 C133 1.358 . S
C136 C137 1.356 . S
C136 H173 0.930 . S
C137 C134 1.348 . S
C137 C136 1.356 . S
H138 C132 0.930 . S
H139 C133 0.930 . S
C140 N141 1.314 . S
C140 C142 1.353 . S
C140 H146 0.930 . S
N141 Li91 1.990 1_556 S
N141 C140 1.314 . S
N141 C144 1.279 . S
C142 C140 1.353 . S
C142 C145 1.348 . S
C142 H174 0.929 . S
C143 C144 1.358 . S
C143 C145 1.356 . S
C143 H175 0.930 . S
C144 N141 1.279 . S
C144 C143 1.358 . S
C144 H147 0.925 . S
C145 C142 1.348 . S
C145 C143 1.356 . S
H146 C140 0.930 . S
H147 C144 0.925 . S
O148 Li88 1.956 . S
O148 Li89 1.970 . S
O148 Li90 1.961 . S
O148 C92 1.325 . S
O149 Li88 1.970 . S
O149 Li89 1.956 . S
O149 Li91 1.961 . S
O149 C98 1.325 1_554 S
O150 Li88 1.961 . S
O150 Li90 1.956 . S
O150 Li91 1.970 . S
O150 C120 1.326 1_554 S
O151 Li89 1.961 . S
O151 Li90 1.970 . S
O151 Li91 1.956 . S
O151 C126 1.325 . S
H152 C94 0.929 . S
H153 C95 0.930 . S
H154 C96 0.930 . S
H155 C97 0.930 . S
H156 C99 0.930 . S
H157 C101 0.929 . S
H158 C102 0.930 . S
H159 C103 0.930 . S
H160 C106 0.930 1_554 S
H161 C109 0.929 . S
H162 C114 0.929 . S
H163 C115 0.930 . S
H164 C122 0.929 . S
H165 C123 0.930 . S
H166 C124 0.930 . S
H167 C125 0.930 . S
H168 C127 0.929 . S
H169 C128 0.930 . S
H170 C129 0.930 . S
H171 C130 0.930 . S
H172 C134 0.929 . S
H173 C136 0.930 . S
H174 C142 0.929 . S
H175 C143 0.930 . S
Li176 N193 1.990 . S
Li176 O236 1.956 1_556 S
Li176 O237 1.958 1_566 S
Li176 O238 1.961 . S
Li177 N201 1.990 . S
Li177 O236 1.970 1_545 S
Li177 O237 2.000 . S
Li177 O239 1.961 . S
Li178 N223 1.990 . S
Li178 O236 1.961 . S
Li178 O238 1.956 1_554 S
Li178 O239 1.970 1_565 S
Li179 N229 1.990 1_554 S
Li179 O237 1.965 . S
Li179 O238 1.970 1_544 S
Li179 O239 1.956 . S
C180 C182 1.348 . S
C180 C183 1.356 . S
C180 O236 1.325 . S
N181 C184 1.314 . S
N181 C185 1.279 . S
C182 C180 1.348 . S
C182 C184 1.353 . S
C182 H240 0.929 . S
C183 C180 1.356 . S
C183 C185 1.358 . S
C183 H241 0.930 . S
C184 N181 1.314 . S
C184 C182 1.353 . S
C184 H242 0.930 . S
C185 N181 1.279 . S
C185 C183 1.358 . S
C185 H243 0.930 . S
C186 C189 1.348 . S
C186 C190 1.340 1_556 S
C186 O237 1.312 1_556 S
C187 N188 1.279 . S
C187 C190 1.339 1_556 S
C187 H244 0.951 . S
N188 C187 1.279 . S
N188 C191 1.314 . S
C189 C186 1.348 . S
C189 C191 1.353 . S
C189 H245 0.929 . S
C190 C186 1.340 1_554 S
C190 C187 1.339 1_554 S
C190 H246 0.970 . S
C191 N188 1.314 . S
C191 C189 1.353 . S
C191 H247 0.930 . S
C192 N193 1.314 . S
C192 C197 1.353 . S
C192 H198 0.930 . S
N193 Li176 1.990 . S
N193 C192 1.314 . S
N193 C195 1.279 . S
C194 C195 1.358 . S
C194 C196 1.356 . S
C194 H248 0.930 . S
C195 N193 1.279 . S
C195 C194 1.358 . S
C195 H199 0.930 . S
C196 C194 1.356 . S
C196 C197 1.348 . S
C197 C192 1.353 . S
C197 C196 1.348 . S
C197 H249 0.929 . S
H198 C192 0.930 . S
H199 C195 0.930 . S
C200 N201 1.314 . S
C200 C202 1.353 . S
C200 H206 0.930 . S
N201 Li177 1.990 . S
N201 C200 1.314 . S
N201 C204 1.279 . S
C202 C200 1.353 . S
C202 C205 1.348 . S
C202 H250 0.929 . S
C203 C204 1.358 . S
C203 C205 1.356 . S
C203 H251 0.930 . S
C204 N201 1.279 . S
C204 C203 1.358 . S
C204 H207 0.930 . S
C205 C202 1.348 . S
C205 C203 1.356 . S
H206 C200 0.930 . S
H207 C204 0.930 . S
C208 C210 1.348 . S
C208 C211 1.356 . S
C208 O238 1.325 . S
N209 C212 1.314 . S
N209 C213 1.279 . S
C210 C208 1.348 . S
C210 C212 1.353 . S
C210 H252 0.929 1_565 S
C211 C208 1.356 . S
C211 C213 1.358 . S
C211 H253 0.930 . S
C212 N209 1.314 . S
C212 C210 1.353 . S
C212 H254 0.930 . S
C213 N209 1.279 . S
C213 C211 1.358 . S
C213 H255 0.930 . S
C214 C215 1.348 . S
C214 C216 1.356 . S
C214 O239 1.325 . S
C215 C214 1.348 . S
C215 C217 1.353 . S
C215 H256 0.929 1_545 S
C216 C214 1.356 . S
C216 C218 1.358 . S
C216 H257 0.930 . S
C217 C215 1.353 . S
C217 N219 1.314 . S
C217 H258 0.930 . S
C218 C216 1.358 . S
C218 N219 1.279 . S
C218 H259 0.930 . S
N219 C217 1.314 . S
N219 C218 1.279 . S
C220 C222 1.353 . S
C220 N223 1.314 . S
C220 H226 0.930 . S
C221 N223 1.279 . S
C221 C224 1.358 . S
C221 H227 0.930 . S
C222 C220 1.353 . S
C222 C225 1.348 . S
C222 H260 0.929 . S
N223 Li178 1.990 . S
N223 C220 1.314 . S
N223 C221 1.279 . S
C224 C221 1.358 . S
C224 C225 1.356 . S
C224 H261 0.930 . S
C225 C222 1.348 . S
C225 C224 1.356 . S
H226 C220 0.930 . S
H227 C221 0.930 . S
C228 N229 1.314 . S
C228 C230 1.353 . S
C228 H234 0.930 . S
N229 Li179 1.990 1_556 S
N229 C228 1.314 . S
N229 C232 1.279 1_556 S
C230 C228 1.353 . S
C230 C233 1.348 . S
C230 H262 0.929 . S
C231 C232 1.358 1_556 S
C231 C233 1.356 . S
C231 H263 0.930 1_556 S
C232 N229 1.279 1_554 S
C232 C231 1.358 1_554 S
C232 H235 0.930 . S
C233 C230 1.348 . S
C233 C231 1.356 . S
H234 C228 0.930 . S
H235 C232 0.930 . S
O236 Li176 1.956 1_554 S
O236 Li177 1.970 1_565 S
O236 Li178 1.961 . S
O236 C180 1.325 . S
O237 Li176 1.958 1_544 S
O237 Li177 2.000 . S
O237 Li179 1.965 . S
O237 C186 1.312 1_554 S
O238 Li176 1.961 . S
O238 Li178 1.956 1_556 S
O238 Li179 1.970 1_566 S
O238 C208 1.325 . S
O239 Li177 1.961 . S
O239 Li178 1.970 1_545 S
O239 Li179 1.956 . S
O239 C214 1.325 . S
H240 C182 0.929 . S
H241 C183 0.930 . S
H242 C184 0.930 . S
H243 C185 0.930 . S
H244 C187 0.951 . S
H245 C189 0.929 . S
H246 C190 0.970 . S
H247 C191 0.930 . S
H248 C194 0.930 . S
H249 C197 0.929 . S
H250 C202 0.929 . S
H251 C203 0.930 . S
H252 C210 0.929 1_545 S
H253 C211 0.930 . S
H254 C212 0.930 . S
H255 C213 0.930 . S
H256 C215 0.929 1_565 S
H257 C216 0.930 . S
H258 C217 0.930 . S
H259 C218 0.930 . S
H260 C222 0.929 . S
H261 C224 0.930 . S
H262 C230 0.929 . S
H263 C231 0.930 1_554 S
Li264 N281 1.990 . S
Li264 O324 1.956 . S
Li264 O325 1.970 1_455 S
Li264 O326 1.961 1_554 S
Li265 N289 1.990 . S
Li265 O324 1.970 1_655 S
Li265 O325 1.956 . S
Li265 O327 1.961 . S
Li266 N311 1.990 . S
Li266 O324 1.961 1_556 S
Li266 O326 1.956 . S
Li266 O327 1.970 1_456 S
Li267 N317 1.990 1_554 S
Li267 O325 1.961 . S
Li267 O326 1.970 1_654 S
Li267 O327 1.956 . S
C268 C270 1.348 . S
C268 C271 1.356 . S
C268 O324 1.325 . S
N269 C272 1.314 . S
N269 C273 1.279 . S
C270 C268 1.348 . S
C270 C272 1.353 . S
C270 H328 0.929 . S
C271 C268 1.356 . S
C271 C273 1.358 . S
C271 H329 0.930 . S
C272 N269 1.314 . S
C272 C270 1.353 . S
C272 H330 0.930 . S
C273 N269 1.279 . S
C273 C271 1.358 . S
C273 H331 0.930 . S
C274 C277 1.348 . S
C274 C278 1.356 . S
C274 O325 1.325 . S
C275 N276 1.279 . S
C275 C278 1.358 . S
C275 H332 0.930 . S
N276 C275 1.279 . S
N276 C279 1.314 . S
C277 C274 1.348 . S
C277 C279 1.353 . S
C277 H333 0.929 1_655 S
C278 C274 1.356 . S
C278 C275 1.358 . S
C278 H334 0.930 . S
C279 N276 1.314 . S
C279 C277 1.353 . S
C279 H335 0.930 . S
C280 N281 1.314 . S
C280 C285 1.353 . S
C280 H286 0.930 . S
N281 Li264 1.990 . S
N281 C280 1.314 . S
N281 C283 1.279 . S
C282 C283 1.358 . S
C282 C284 1.356 . S
C282 H336 0.930 . S
C283 N281 1.279 . S
C283 C282 1.358 . S
C283 H287 0.930 . S
C284 C282 1.356 . S
C284 C285 1.348 . S
C285 C280 1.353 . S
C285 C284 1.348 . S
C285 H337 0.929 . S
H286 C280 0.930 . S
H287 C283 0.930 . S
C288 N289 1.314 . S
C288 C290 1.353 . S
C288 H294 0.930 . S
N289 Li265 1.990 . S
N289 C288 1.314 . S
N289 C292 1.279 . S
C290 C288 1.353 . S
C290 C293 1.348 . S
C290 H338 0.929 . S
C291 C292 1.358 . S
C291 C293 1.356 . S
C291 H339 0.930 . S
C292 N289 1.279 . S
C292 C291 1.358 . S
C292 H295 0.930 . S
C293 C290 1.348 . S
C293 C291 1.356 . S
H294 C288 0.930 . S
H295 C292 0.930 . S
C296 C298 1.348 . S
C296 C299 1.356 . S
C296 O326 1.325 . S
N297 C300 1.314 . S
N297 C301 1.279 . S
C298 C296 1.348 . S
C298 C300 1.353 . S
C298 H340 0.929 1_455 S
C299 C296 1.356 . S
C299 C301 1.358 . S
C299 H341 0.930 . S
C300 N297 1.314 . S
C300 C298 1.353 . S
C300 H342 0.930 . S
C301 N297 1.279 . S
C301 C299 1.358 . S
C301 H343 0.930 . S
C302 C303 1.376 . S
C302 C304 1.340 1_556 S
C302 O327 1.315 1_556 S
C303 C302 1.376 . S
C303 C305 1.353 . S
C303 H344 0.929 . S
C304 C302 1.340 1_554 S
C304 C306 1.358 . S
C304 H345 0.930 . S
C305 C303 1.353 . S
C305 N307 1.314 . S
C305 H346 0.930 . S
C306 C304 1.358 . S
C306 N307 1.279 1_554 S
C306 H347 0.930 . S
N307 C305 1.314 . S
N307 C306 1.279 1_556 S
C308 C310 1.353 . S
C308 N311 1.314 . S
C308 H314 0.930 . S
C309 N311 1.279 . S
C309 C312 1.358 . S
C309 H315 0.930 . S
C310 C308 1.353 . S
C310 C313 1.348 . S
C310 H348 0.929 . S
N311 Li266 1.990 . S
N311 C308 1.314 . S
N311 C309 1.279 . S
C312 C309 1.358 . S
C312 C313 1.356 . S
C312 H349 0.930 . S
C313 C310 1.348 . S
C313 C312 1.356 . S
H314 C308 0.930 . S
H315 C309 0.930 . S
C316 N317 1.314 1_554 S
C316 C318 1.353 1_554 S
C316 H322 0.930 . S
N317 Li267 1.990 1_556 S
N317 C316 1.314 1_556 S
N317 C320 1.279 . S
C318 C316 1.353 1_556 S
C318 C321 1.348 . S
C318 H350 0.923 1_556 S
C319 C320 1.358 . S
C319 C321 1.356 . S
C319 H351 0.930 . S
C320 N317 1.279 . S
C320 C319 1.358 . S
C320 H323 0.930 . S
C321 C318 1.348 . S
C321 C319 1.356 . S
H322 C316 0.930 . S
H323 C320 0.930 . S
O324 Li264 1.956 . S
O324 Li265 1.970 1_455 S
O324 Li266 1.961 1_554 S
O324 C268 1.325 . S
O325 Li264 1.970 1_655 S
O325 Li265 1.956 . S
O325 Li267 1.961 . S
O325 C274 1.325 . S
O326 Li264 1.961 1_556 S
O326 Li266 1.956 . S
O326 Li267 1.970 1_456 S
O326 C296 1.325 . S
O327 Li265 1.961 . S
O327 Li266 1.970 1_654 S
O327 Li267 1.956 . S
O327 C302 1.315 1_554 S
H328 C270 0.929 . S
H329 C271 0.930 . S
H330 C272 0.930 . S
H331 C273 0.930 . S
H332 C275 0.930 . S
H333 C277 0.929 1_455 S
H334 C278 0.930 . S
H335 C279 0.930 . S
H336 C282 0.930 . S
H337 C285 0.929 . S
H338 C290 0.929 . S
H339 C291 0.930 . S
H340 C298 0.929 1_655 S
H341 C299 0.930 . S
H342 C300 0.930 . S
H343 C301 0.930 . S
H344 C303 0.929 . S
H345 C304 0.930 . S
H346 C305 0.930 . S
H347 C306 0.930 . S
H348 C310 0.929 . S
H349 C312 0.930 . S
H350 C318 0.923 1_554 S
H351 C319 0.930 . S
Li352 N369 1.990 . S
Li352 O412 1.956 . S
Li352 O413 1.970 . S
Li352 O414 1.961 1_554 S
Li353 N377 1.990 . S
Li353 O412 1.970 . S
Li353 O413 1.956 . S
Li353 O415 1.961 1_554 S
Li354 N399 1.990 . S
Li354 O412 1.961 1_556 S
Li354 O414 1.956 . S
Li354 O415 1.970 . S
Li355 N405 1.990 . S
Li355 O413 1.961 1_556 S
Li355 O414 1.970 . S
Li355 O415 1.956 . S
C356 C358 1.348 . S
C356 C359 1.356 . S
C356 O412 1.325 . S
N357 C360 1.314 . S
N357 C361 1.279 . S
C358 C356 1.348 . S
C358 C360 1.353 . S
C358 H416 0.929 . S
C359 C356 1.356 . S
C359 C361 1.358 . S
C359 H417 0.930 . S
C360 N357 1.314 . S
C360 C358 1.353 . S
C360 H418 0.930 . S
C361 N357 1.279 . S
C361 C359 1.358 . S
C361 H419 0.930 . S
C362 C365 1.348 . S
C362 C366 1.356 . S
C362 O413 1.325 . S
C363 N364 1.279 . S
C363 C366 1.358 . S
C363 H420 0.930 . S
N364 C363 1.279 . S
N364 C367 1.314 . S
C365 C362 1.348 . S
C365 C367 1.353 . S
C365 H421 0.929 . S
C366 C362 1.356 . S
C366 C363 1.358 . S
C366 H422 0.930 . S
C367 N364 1.314 . S
C367 C365 1.353 . S
C367 H423 0.930 . S
C368 N369 1.314 . S
C368 C373 1.353 . S
C368 H374 0.930 . S
N369 Li352 1.990 . S
N369 C368 1.314 . S
N369 C371 1.279 . S
C370 C371 1.358 . S
C370 C372 1.356 . S
C370 H424 0.930 . S
C371 N369 1.279 . S
C371 C370 1.358 . S
C371 H375 0.930 . S
C372 C370 1.356 . S
C372 C373 1.348 . S
C373 C368 1.353 . S
C373 C372 1.348 . S
C373 H425 0.929 . S
H374 C368 0.930 . S
H375 C371 0.930 . S
C376 N377 1.314 . S
C376 C378 1.353 . S
C376 H382 0.930 . S
N377 Li353 1.990 . S
N377 C376 1.314 . S
N377 C380 1.279 . S
C378 C376 1.353 . S
C378 C381 1.348 . S
C378 H426 0.929 . S
C379 C380 1.358 . S
C379 C381 1.356 . S
C379 H427 0.930 . S
C380 N377 1.279 . S
C380 C379 1.358 . S
C380 H383 0.930 . S
C381 C378 1.348 . S
C381 C379 1.356 . S
H382 C376 0.930 . S
H383 C380 0.930 . S
C384 C386 1.348 . S
C384 C387 1.356 . S
C384 O414 1.325 . S
N385 C388 1.314 . S
N385 C389 1.279 . S
C386 C384 1.348 . S
C386 C388 1.353 . S
C386 H428 0.929 . S
C387 C384 1.356 . S
C387 C389 1.358 . S
C387 H429 0.930 . S
C388 N385 1.314 . S
C388 C386 1.353 . S
C388 H430 0.930 . S
C389 N385 1.279 . S
C389 C387 1.358 . S
C389 H431 0.930 . S
C390 C391 1.348 . S
C390 C392 1.356 . S
C390 O415 1.325 . S
C391 C390 1.348 . S
C391 C393 1.353 . S
C391 H432 0.929 . S
C392 C390 1.356 . S
C392 C394 1.358 . S
C392 H433 0.930 1_556 S
C393 C391 1.353 . S
C393 N395 1.314 . S
C393 H434 0.930 . S
C394 C392 1.358 . S
C394 N395 1.279 . S
C394 H435 0.930 . S
N395 C393 1.314 . S
N395 C394 1.279 . S
C396 C398 1.353 . S
C396 N399 1.314 . S
C396 H402 0.930 . S
C397 N399 1.279 . S
C397 C400 1.358 . S
C397 H403 0.930 . S
C398 C396 1.353 . S
C398 C401 1.348 . S
C398 H436 0.929 . S
N399 Li354 1.990 . S
N399 C396 1.314 . S
N399 C397 1.279 . S
C400 C397 1.358 . S
C400 C401 1.356 . S
C400 H437 0.930 . S
C401 C398 1.348 . S
C401 C400 1.356 . S
H402 C396 0.930 . S
H403 C397 0.930 . S
C404 N405 1.314 . S
C404 C406 1.353 . S
C404 H410 0.930 . S
N405 Li355 1.990 . S
N405 C404 1.314 . S
N405 C408 1.279 . S
C406 C404 1.353 . S
C406 C409 1.348 . S
C406 H438 0.929 . S
C407 C408 1.358 . S
C407 C409 1.356 . S
C407 H439 0.930 . S
C408 N405 1.279 . S
C408 C407 1.358 . S
C408 H411 0.930 . S
C409 C406 1.348 . S
C409 C407 1.356 . S
H410 C404 0.930 . S
H411 C408 0.930 . S
O412 Li352 1.956 . S
O412 Li353 1.970 . S
O412 Li354 1.961 1_554 S
O412 C356 1.325 . S
O413 Li352 1.970 . S
O413 Li353 1.956 . S
O413 Li355 1.961 1_554 S
O413 C362 1.325 . S
O414 Li352 1.961 1_556 S
O414 Li354 1.956 . S
O414 Li355 1.970 . S
O414 C384 1.325 . S
O415 Li353 1.961 1_556 S
O415 Li354 1.970 . S
O415 Li355 1.956 . S
O415 C390 1.325 . S
H416 C358 0.929 . S
H417 C359 0.930 . S
H418 C360 0.930 . S
H419 C361 0.930 . S
H420 C363 0.930 . S
H421 C365 0.929 . S
H422 C366 0.930 . S
H423 C367 0.930 . S
H424 C370 0.930 . S
H425 C373 0.929 . S
H426 C378 0.929 . S
H427 C379 0.930 . S
H428 C386 0.929 . S
H429 C387 0.930 . S
H430 C388 0.930 . S
H431 C389 0.930 . S
H432 C391 0.929 . S
H433 C392 0.930 1_554 S
H434 C393 0.930 . S
H435 C394 0.930 . S
H436 C398 0.929 . S
H437 C400 0.930 . S
H438 C406 0.929 . S
H439 C407 0.930 . S
Li440 N457 1.990 . S
Li440 O500 1.956 . S
Li440 O501 1.970 1_565 S
Li440 O502 1.961 1_554 S
Li441 N465 1.990 . S
Li441 O500 1.970 1_545 S
Li441 O501 1.956 . S
Li441 O503 1.961 . S
Li442 N487 1.990 . S
Li442 O500 1.961 1_556 S
Li442 O502 1.956 . S
Li442 O503 1.970 1_566 S
Li443 N493 1.972 1_554 S
Li443 O501 1.961 . S
Li443 O502 1.970 1_544 S
Li443 O503 1.956 . S
C444 C446 1.348 . S
C444 C447 1.356 . S
C444 O500 1.325 . S
N445 C448 1.314 . S
N445 C449 1.279 . S
C446 C444 1.348 . S
C446 C448 1.353 . S
C446 H504 0.929 . S
C447 C444 1.356 . S
C447 C449 1.358 . S
C447 H505 0.930 . S
C448 N445 1.314 . S
C448 C446 1.353 . S
C448 H506 0.930 . S
C449 N445 1.279 . S
C449 C447 1.358 . S
C449 H507 0.930 . S
C450 C453 1.348 . S
C450 C454 1.356 . S
C450 O501 1.325 . S
C451 N452 1.279 . S
C451 C454 1.358 . S
C451 H508 0.930 . S
N452 C451 1.279 . S
N452 C455 1.314 . S
C453 C450 1.348 . S
C453 C455 1.353 . S
C453 H509 0.929 1_545 S
C454 C450 1.356 . S
C454 C451 1.358 . S
C454 H510 0.930 . S
C455 N452 1.314 . S
C455 C453 1.353 . S
C455 H511 0.930 . S
C456 N457 1.314 . S
C456 C461 1.353 . S
C456 H462 0.930 . S
N457 Li440 1.990 . S
N457 C456 1.314 . S
N457 C459 1.279 . S
C458 C459 1.358 . S
C458 C460 1.356 . S
C458 H512 0.930 . S
C459 N457 1.279 . S
C459 C458 1.358 . S
C459 H463 0.930 . S
C460 C458 1.356 . S
C460 C461 1.348 . S
C461 C456 1.353 . S
C461 C460 1.348 . S
C461 H513 0.929 . S
H462 C456 0.930 . S
H463 C459 0.930 . S
C464 N465 1.314 . S
C464 C466 1.353 . S
C464 H470 0.930 . S
N465 Li441 1.990 . S
N465 C464 1.314 . S
N465 C468 1.279 . S
C466 C464 1.353 . S
C466 C469 1.348 . S
C466 H514 0.929 . S
C467 C468 1.358 . S
C467 C469 1.356 . S
C467 H515 0.930 . S
C468 N465 1.279 . S
C468 C467 1.358 . S
C468 H471 0.930 . S
C469 C466 1.348 . S
C469 C467 1.356 . S
H470 C464 0.930 . S
H471 C468 0.930 . S
C472 C474 1.348 . S
C472 C475 1.356 . S
C472 O502 1.325 . S
N473 C476 1.314 . S
N473 C477 1.279 . S
C474 C472 1.348 . S
C474 C476 1.353 . S
C474 H516 0.929 1_565 S
C475 C472 1.356 . S
C475 C477 1.358 . S
C475 H517 0.930 . S
C476 N473 1.314 . S
C476 C474 1.353 . S
C476 H518 0.930 . S
C477 N473 1.279 . S
C477 C475 1.358 . S
C477 H519 0.930 . S
C478 C479 1.333 1_554 S
C478 C480 1.364 . S
C478 O503 1.330 . S
C479 C478 1.333 1_556 S
C479 C481 1.353 . S
C479 H520 0.929 . S
C480 C478 1.364 . S
C480 C482 1.358 . S
C480 H521 0.930 . S
C481 C479 1.353 . S
C481 N483 1.314 . S
C481 H522 0.930 . S
C482 C480 1.358 . S
C482 N483 1.279 1_554 S
C482 H523 0.930 . S
N483 C481 1.314 . S
N483 C482 1.279 1_556 S
C484 C486 1.353 . S
C484 N487 1.314 . S
C484 H490 0.930 . S
C485 N487 1.279 . S
C485 C488 1.358 . S
C485 H491 0.930 . S
C486 C484 1.353 . S
C486 C489 1.348 . S
C486 H524 0.929 . S
N487 Li442 1.990 . S
N487 C484 1.314 . S
N487 C485 1.279 . S
C488 C485 1.358 . S
C488 C489 1.356 . S
C488 H525 0.930 . S
C489 C486 1.348 . S
C489 C488 1.356 . S
H490 C484 0.930 . S
H491 C485 0.930 . S
C492 N493 1.303 1_554 S
C492 C494 1.353 1_554 S
C492 H498 0.930 . S
N493 Li443 1.972 1_556 S
N493 C492 1.303 1_556 S
N493 C496 1.317 . S
C494 C492 1.353 1_556 S
C494 C497 1.348 . S
C494 H526 0.929 1_556 S
C495 C496 1.358 . S
C495 C497 1.356 . S
C495 H527 0.930 . S
C496 N493 1.317 . S
C496 C495 1.358 . S
C496 H499 0.930 . S
C497 C494 1.348 . S
C497 C495 1.356 . S
H498 C492 0.930 . S
H499 C496 0.930 . S
O500 Li440 1.956 . S
O500 Li441 1.970 1_565 S
O500 Li442 1.961 1_554 S
O500 C444 1.325 . S
O501 Li440 1.970 1_545 S
O501 Li441 1.956 . S
O501 Li443 1.961 . S
O501 C450 1.325 . S
O502 Li440 1.961 1_556 S
O502 Li442 1.956 . S
O502 Li443 1.970 1_566 S
O502 C472 1.325 . S
O503 Li441 1.961 . S
O503 Li442 1.970 1_544 S
O503 Li443 1.956 . S
O503 C478 1.330 . S
H504 C446 0.929 . S
H505 C447 0.930 . S
H506 C448 0.930 . S
H507 C449 0.930 . S
H508 C451 0.930 . S
H509 C453 0.929 1_565 S
H510 C454 0.930 . S
H511 C455 0.930 . S
H512 C458 0.930 . S
H513 C461 0.929 . S
H514 C466 0.929 . S
H515 C467 0.930 . S
H516 C474 0.929 1_545 S
H517 C475 0.930 . S
H518 C476 0.930 . S
H519 C477 0.930 . S
H520 C479 0.929 . S
H521 C480 0.930 . S
H522 C481 0.930 . S
H523 C482 0.930 . S
H524 C486 0.929 . S
H525 C488 0.930 . S
H526 C494 0.929 1_554 S
H527 C495 0.930 . S
Li528 N545 1.990 . S
Li528 O588 1.956 . S
Li528 O589 1.970 . S
Li528 O590 1.961 . S
Li529 N553 1.990 . S
Li529 O588 1.970 . S
Li529 O589 1.956 . S
Li529 O591 1.961 . S
Li530 N575 1.990 . S
Li530 O588 1.961 . S
Li530 O590 1.956 . S
Li530 O591 1.970 . S
Li531 N581 1.990 . S
Li531 O589 1.961 . S
Li531 O590 1.970 . S
Li531 O591 1.956 . S
C532 C534 1.348 . S
C532 C535 1.356 . S
C532 O588 1.325 . S
N533 C536 1.314 . S
N533 C537 1.279 . S
C534 C532 1.348 . S
C534 C536 1.353 . S
C534 H592 0.929 . S
C535 C532 1.356 . S
C535 C537 1.358 . S
C535 H593 0.930 . S
C536 N533 1.314 . S
C536 C534 1.353 . S
C536 H594 0.930 . S
C537 N533 1.279 . S
C537 C535 1.358 . S
C537 H595 0.930 . S
C538 C541 1.348 . S
C538 C542 1.356 . S
C538 O589 1.325 . S
C539 N540 1.279 . S
C539 C542 1.358 . S
C539 H596 0.930 . S
N540 C539 1.279 . S
N540 C543 1.314 . S
C541 C538 1.348 . S
C541 C543 1.353 . S
C541 H597 0.929 . S
C542 C538 1.356 . S
C542 C539 1.358 . S
C542 H598 0.930 . S
C543 N540 1.314 . S
C543 C541 1.353 . S
C543 H599 0.930 . S
C544 N545 1.314 . S
C544 C549 1.353 . S
C544 H550 0.930 . S
N545 Li528 1.990 . S
N545 C544 1.314 . S
N545 C547 1.279 . S
C546 C547 1.358 . S
C546 C548 1.356 . S
C546 H600 0.930 . S
C547 N545 1.279 . S
C547 C546 1.358 . S
C547 H551 0.930 . S
C548 C546 1.356 . S
C548 C549 1.348 . S
C549 C544 1.353 . S
C549 C548 1.348 . S
C549 H601 0.929 . S
H550 C544 0.930 . S
H551 C547 0.930 . S
C552 N553 1.314 . S
C552 C554 1.353 . S
C552 H558 0.930 . S
N553 Li529 1.990 . S
N553 C552 1.314 . S
N553 C556 1.279 . S
C554 C552 1.353 . S
C554 C557 1.348 . S
C554 H602 0.929 . S
C555 C556 1.358 . S
C555 C557 1.356 . S
C555 H603 0.930 . S
C556 N553 1.279 . S
C556 C555 1.358 . S
C556 H559 0.930 . S
C557 C554 1.348 . S
C557 C555 1.356 . S
H558 C552 0.930 . S
H559 C556 0.930 . S
C560 C562 1.348 . S
C560 C563 1.356 . S
C560 O590 1.325 . S
N561 C564 1.314 . S
N561 C565 1.279 . S
C562 C560 1.348 . S
C562 C564 1.353 . S
C562 H604 0.929 . S
C563 C560 1.356 . S
C563 C565 1.358 . S
C563 H605 0.930 . S
C564 N561 1.314 . S
C564 C562 1.353 . S
C564 H606 0.930 . S
C565 N561 1.279 . S
C565 C563 1.358 . S
C565 H607 0.930 . S
C566 C567 1.348 . S
C566 C568 1.356 . S
C566 O591 1.325 . S
C567 C566 1.348 . S
C567 C569 1.353 . S
C567 H608 0.929 . S
C568 C566 1.356 . S
C568 C570 1.358 . S
C568 H609 0.930 . S
C569 C567 1.353 . S
C569 N571 1.314 . S
C569 H610 0.930 . S
C570 C568 1.358 . S
C570 N571 1.279 . S
C570 H611 0.930 . S
N571 C569 1.314 . S
N571 C570 1.279 . S
C572 C574 1.353 . S
C572 N575 1.314 . S
C572 H578 0.930 . S
C573 N575 1.279 . S
C573 C576 1.358 . S
C573 H579 0.930 . S
C574 C572 1.353 . S
C574 C577 1.348 . S
C574 H612 0.929 . S
N575 Li530 1.990 . S
N575 C572 1.314 . S
N575 C573 1.279 . S
C576 C573 1.358 . S
C576 C577 1.356 . S
C576 H613 0.930 . S
C577 C574 1.348 . S
C577 C576 1.356 . S
H578 C572 0.930 . S
H579 C573 0.930 . S
C580 N581 1.314 . S
C580 C582 1.353 . S
C580 H586 0.930 . S
N581 Li531 1.990 . S
N581 C580 1.314 . S
N581 C584 1.279 . S
C582 C580 1.353 . S
C582 C585 1.348 . S
C582 H614 0.929 . S
C583 C584 1.358 . S
C583 C585 1.356 . S
C583 H615 0.930 . S
C584 N581 1.279 . S
C584 C583 1.358 . S
C584 H587 0.930 . S
C585 C582 1.348 . S
C585 C583 1.356 . S
H586 C580 0.930 . S
H587 C584 0.930 . S
O588 Li528 1.956 . S
O588 Li529 1.970 . S
O588 Li530 1.961 . S
O588 C532 1.325 . S
O589 Li528 1.970 . S
O589 Li529 1.956 . S
O589 Li531 1.961 . S
O589 C538 1.325 . S
O590 Li528 1.961 . S
O590 Li530 1.956 . S
O590 Li531 1.970 . S
O590 C560 1.325 . S
O591 Li529 1.961 . S
O591 Li530 1.970 . S
O591 Li531 1.956 . S
O591 C566 1.325 . S
H592 C534 0.929 . S
H593 C535 0.930 . S
H594 C536 0.930 . S
H595 C537 0.930 . S
H596 C539 0.930 . S
H597 C541 0.929 . S
H598 C542 0.930 . S
H599 C543 0.930 . S
H600 C546 0.930 . S
H601 C549 0.929 . S
H602 C554 0.929 . S
H603 C555 0.930 . S
H604 C562 0.929 . S
H605 C563 0.930 . S
H606 C564 0.930 . S
H607 C565 0.930 . S
H608 C567 0.929 . S
H609 C568 0.930 . S
H610 C569 0.930 . S
H611 C570 0.930 . S
H612 C574 0.929 . S
H613 C576 0.930 . S
H614 C582 0.929 . S
H615 C583 0.930 . S
Li616 N633 1.990 . S
Li616 O676 1.956 . S
Li616 O677 1.970 . S
Li616 O678 1.961 . S
Li617 N641 1.990 . S
Li617 O676 1.970 . S
Li617 O677 1.956 . S
Li617 O679 1.961 . S
Li618 N663 1.990 1_565 S
Li618 O676 1.961 . S
Li618 O678 1.956 . S
Li618 O679 1.970 . S
Li619 N669 1.990 . S
Li619 O677 1.961 . S
Li619 O678 1.970 . S
Li619 O679 1.956 . S
C620 C622 1.348 . S
C620 C623 1.356 . S
C620 O676 1.325 . S
N621 C624 1.314 . S
N621 C625 1.279 . S
C622 C620 1.348 . S
C622 C624 1.353 . S
C622 H680 0.929 . S
C623 C620 1.356 . S
C623 C625 1.358 . S
C623 H681 0.930 . S
C624 N621 1.314 . S
C624 C622 1.353 . S
C624 H682 0.930 . S
C625 N621 1.279 . S
C625 C623 1.358 . S
C625 H683 0.930 . S
C626 C629 1.348 . S
C626 C630 1.356 . S
C626 O677 1.325 . S
C627 N628 1.279 . S
C627 C630 1.358 . S
C627 H684 0.930 . S
N628 C627 1.279 . S
N628 C631 1.314 . S
C629 C626 1.348 . S
C629 C631 1.353 . S
C629 H685 0.929 . S
C630 C626 1.356 . S
C630 C627 1.358 . S
C630 H686 0.930 . S
C631 N628 1.314 . S
C631 C629 1.353 . S
C631 H687 0.930 . S
C632 N633 1.314 . S
C632 C637 1.353 . S
C632 H638 0.930 . S
N633 Li616 1.990 . S
N633 C632 1.314 . S
N633 C635 1.279 . S
C634 C635 1.358 . S
C634 C636 1.356 . S
C634 H688 0.930 . S
C635 N633 1.279 . S
C635 C634 1.358 . S
C635 H639 0.930 . S
C636 C634 1.356 . S
C636 C637 1.348 . S
C637 C632 1.353 . S
C637 C636 1.348 . S
C637 H689 0.929 . S
H638 C632 0.930 . S
H639 C635 0.930 . S
C640 N641 1.314 . S
C640 C642 1.353 . S
C640 H646 0.930 . S
N641 Li617 1.990 . S
N641 C640 1.314 . S
N641 C644 1.279 . S
C642 C640 1.353 . S
C642 C645 1.348 . S
C642 H690 0.929 . S
C643 C644 1.358 . S
C643 C645 1.356 . S
C643 H691 0.930 . S
C644 N641 1.279 . S
C644 C643 1.358 . S
C644 H647 0.930 . S
C645 C642 1.348 . S
C645 C643 1.356 . S
H646 C640 0.930 . S
H647 C644 0.930 . S
C648 C650 1.348 . S
C648 C651 1.356 . S
C648 O678 1.325 1_545 S
N649 C652 1.314 . S
N649 C653 1.279 . S
C650 C648 1.348 . S
C650 C652 1.353 . S
C650 H692 0.929 . S
C651 C648 1.356 . S
C651 C653 1.358 . S
C651 H693 0.930 . S
C652 N649 1.314 . S
C652 C650 1.353 . S
C652 H694 0.930 . S
C653 N649 1.279 . S
C653 C651 1.358 . S
C653 H695 0.930 . S
C654 C655 1.348 1_565 S
C654 C656 1.356 . S
C654 O679 1.325 . S
C655 C654 1.348 1_545 S
C655 C657 1.353 . S
C655 H696 0.929 . S
C656 C654 1.356 . S
C656 C658 1.358 . S
C656 H697 0.930 . S
C657 C655 1.353 . S
C657 N659 1.314 1_545 S
C657 H698 0.930 . S
C658 C656 1.358 . S
C658 N659 1.279 . S
C658 H699 0.930 . S
N659 C657 1.314 1_565 S
N659 C658 1.279 . S
C660 C662 1.353 . S
C660 N663 1.314 . S
C660 H666 0.930 . S
C661 N663 1.279 . S
C661 C664 1.358 . S
C661 H667 0.930 . S
C662 C660 1.353 . S
C662 C665 1.348 . S
C662 H700 0.929 . S
N663 Li618 1.990 1_545 S
N663 C660 1.314 . S
N663 C661 1.279 . S
C664 C661 1.358 . S
C664 C665 1.356 . S
C664 H701 0.930 . S
C665 C662 1.348 . S
C665 C664 1.356 . S
H666 C660 0.930 . S
H667 C661 0.930 . S
C668 N669 1.314 . S
C668 C670 1.353 . S
C668 H674 0.930 . S
N669 Li619 1.990 . S
N669 C668 1.314 . S
N669 C672 1.279 . S
C670 C668 1.353 . S
C670 C673 1.348 . S
C670 H702 0.929 . S
C671 C672 1.358 . S
C671 C673 1.356 . S
C671 H703 0.930 . S
C672 N669 1.279 . S
C672 C671 1.358 . S
C672 H675 0.930 . S
C673 C670 1.348 . S
C673 C671 1.356 . S
H674 C668 0.930 . S
H675 C672 0.930 . S
O676 Li616 1.956 . S
O676 Li617 1.970 . S
O676 Li618 1.961 . S
O676 C620 1.325 . S
O677 Li616 1.970 . S
O677 Li617 1.956 . S
O677 Li619 1.961 . S
O677 C626 1.325 . S
O678 Li616 1.961 . S
O678 Li618 1.956 . S
O678 Li619 1.970 . S
O678 C648 1.325 1_565 S
O679 Li617 1.961 . S
O679 Li618 1.970 . S
O679 Li619 1.956 . S
O679 C654 1.325 . S
H680 C622 0.929 . S
H681 C623 0.930 . S
H682 C624 0.930 . S
H683 C625 0.930 . S
H684 C627 0.930 . S
H685 C629 0.929 . S
H686 C630 0.930 . S
H687 C631 0.930 . S
H688 C634 0.930 . S
H689 C637 0.929 . S
H690 C642 0.929 . S
H691 C643 0.930 . S
H692 C650 0.929 . S
H693 C651 0.930 . S
H694 C652 0.930 . S
H695 C653 0.930 . S
H696 C655 0.929 . S
H697 C656 0.930 . S
H698 C657 0.930 . S
H699 C658 0.930 . S
H700 C662 0.929 . S
H701 C664 0.930 . S
H702 C670 0.929 . S
H703 C671 0.930 . S
Li704 N721 1.990 . S
Li704 O764 1.956 . S
Li704 O765 1.970 . S
Li704 O766 1.961 . S
Li705 N729 1.990 . S
Li705 O764 1.970 . S
Li705 O765 1.956 . S
Li705 O767 1.961 . S
Li706 N751 1.990 1_455 S
Li706 O764 1.961 . S
Li706 O766 1.956 . S
Li706 O767 1.970 . S
Li707 N757 1.990 . S
Li707 O765 1.961 . S
Li707 O766 1.970 . S
Li707 O767 1.956 . S
C708 C710 1.348 . S
C708 C711 1.356 . S
C708 O764 1.325 . S
N709 C712 1.314 . S
N709 C713 1.279 . S
C710 C708 1.348 . S
C710 C712 1.353 . S
C710 H768 0.929 . S
C711 C708 1.356 . S
C711 C713 1.358 . S
C711 H769 0.930 . S
C712 N709 1.314 . S
C712 C710 1.353 . S
C712 H770 0.930 . S
C713 N709 1.279 . S
C713 C711 1.358 . S
C713 H771 0.930 . S
C714 C717 1.348 . S
C714 C718 1.356 . S
C714 O765 1.325 . S
C715 N716 1.279 . S
C715 C718 1.358 . S
C715 H772 0.930 . S
N716 C715 1.279 . S
N716 C719 1.314 . S
C717 C714 1.348 . S
C717 C719 1.353 . S
C717 H773 0.929 . S
C718 C714 1.356 . S
C718 C715 1.358 . S
C718 H774 0.930 . S
C719 N716 1.314 . S
C719 C717 1.353 . S
C719 H775 0.930 . S
C720 N721 1.314 . S
C720 C725 1.353 . S
C720 H726 0.930 . S
N721 Li704 1.990 . S
N721 C720 1.314 . S
N721 C723 1.279 . S
C722 C723 1.358 . S
C722 C724 1.356 . S
C722 H776 0.930 . S
C723 N721 1.279 . S
C723 C722 1.358 . S
C723 H727 0.930 . S
C724 C722 1.356 . S
C724 C725 1.348 . S
C725 C720 1.353 . S
C725 C724 1.348 . S
C725 H777 0.929 . S
H726 C720 0.930 . S
H727 C723 0.930 . S
C728 N729 1.314 . S
C728 C730 1.353 . S
C728 H734 0.930 . S
N729 Li705 1.990 . S
N729 C728 1.314 . S
N729 C732 1.279 . S
C730 C728 1.353 . S
C730 C733 1.348 . S
C730 H778 0.929 . S
C731 C732 1.358 . S
C731 C733 1.356 . S
C731 H779 0.930 . S
C732 N729 1.279 . S
C732 C731 1.358 . S
C732 H735 0.930 . S
C733 C730 1.348 . S
C733 C731 1.356 . S
H734 C728 0.930 . S
H735 C732 0.930 . S
C736 C738 1.332 1_455 S
C736 C739 1.358 1_455 S
C736 O766 1.337 . S
N737 C740 1.314 . S
N737 C741 1.279 . S
C738 C736 1.332 1_655 S
C738 C740 1.353 . S
C738 H780 0.929 . S
C739 C736 1.358 1_655 S
C739 C741 1.358 . S
C739 H781 0.930 . S
C740 N737 1.314 . S
C740 C738 1.353 . S
C740 H782 0.930 . S
C741 N737 1.279 . S
C741 C739 1.358 . S
C741 H783 0.930 . S
C742 C743 1.348 . S
C742 C744 1.356 . S
C742 O767 1.325 . S
C743 C742 1.348 . S
C743 C745 1.353 1_455 S
C743 H784 0.929 1_455 S
C744 C742 1.356 . S
C744 C746 1.358 . S
C744 H785 0.930 . S
C745 C743 1.353 1_655 S
C745 N747 1.314 1_655 S
C745 H786 0.930 . S
C746 C744 1.358 . S
C746 N747 1.279 . S
C746 H787 0.930 . S
N747 C745 1.314 1_455 S
N747 C746 1.279 . S
C748 C750 1.353 . S
C748 N751 1.314 . S
C748 H754 0.930 . S
C749 N751 1.279 . S
C749 C752 1.358 . S
C749 H755 0.930 . S
C750 C748 1.353 . S
C750 C753 1.348 . S
C750 H788 0.929 . S
N751 Li706 1.990 1_655 S
N751 C748 1.314 . S
N751 C749 1.279 . S
C752 C749 1.358 . S
C752 C753 1.356 . S
C752 H789 0.930 . S
C753 C750 1.348 . S
C753 C752 1.356 . S
H754 C748 0.930 . S
H755 C749 0.930 . S
C756 N757 1.314 . S
C756 C758 1.353 . S
C756 H762 0.930 . S
N757 Li707 1.990 . S
N757 C756 1.314 . S
N757 C760 1.279 . S
C758 C756 1.353 . S
C758 C761 1.348 . S
C758 H790 0.929 . S
C759 C760 1.358 . S
C759 C761 1.356 . S
C759 H791 0.930 . S
C760 N757 1.279 . S
C760 C759 1.358 . S
C760 H763 0.930 . S
C761 C758 1.348 . S
C761 C759 1.356 . S
H762 C756 0.930 . S
H763 C760 0.930 . S
O764 Li704 1.956 . S
O764 Li705 1.970 . S
O764 Li706 1.961 . S
O764 C708 1.325 . S
O765 Li704 1.970 . S
O765 Li705 1.956 . S
O765 Li707 1.961 . S
O765 C714 1.325 . S
O766 Li704 1.961 . S
O766 Li706 1.956 . S
O766 Li707 1.970 . S
O766 C736 1.337 . S
O767 Li705 1.961 . S
O767 Li706 1.970 . S
O767 Li707 1.956 . S
O767 C742 1.325 . S
H768 C710 0.929 . S
H769 C711 0.930 . S
H770 C712 0.930 . S
H771 C713 0.930 . S
H772 C715 0.930 . S
H773 C717 0.929 . S
H774 C718 0.930 . S
H775 C719 0.930 . S
H776 C722 0.930 . S
H777 C725 0.929 . S
H778 C730 0.929 . S
H779 C731 0.930 . S
H780 C738 0.929 . S
H781 C739 0.930 . S
H782 C740 0.930 . S
H783 C741 0.930 . S
H784 C743 0.929 1_655 S
H785 C744 0.930 . S
H786 C745 0.930 . S
H787 C746 0.930 . S
H788 C750 0.929 . S
H789 C752 0.930 . S
H790 C758 0.929 . S
H791 C759 0.930 . S
Li792 N809 1.990 1_565 S
Li792 O852 1.956 . S
Li792 O853 1.970 . S
Li792 O854 1.961 . S
Li793 N817 1.990 . S
Li793 O852 1.970 . S
Li793 O853 1.956 . S
Li793 O855 1.961 . S
Li794 N839 1.990 . S
Li794 O852 1.961 . S
Li794 O854 1.956 . S
Li794 O855 1.970 . S
Li795 N845 1.990 . S
Li795 O853 1.961 . S
Li795 O854 1.970 . S
Li795 O855 1.956 . S
C796 C798 1.348 . S
C796 C799 1.356 . S
C796 O852 1.325 . S
N797 C800 1.314 . S
N797 C801 1.279 . S
C798 C796 1.348 . S
C798 C800 1.353 . S
C798 H856 0.929 . S
C799 C796 1.356 . S
C799 C801 1.358 . S
C799 H857 0.930 . S
C800 N797 1.314 . S
C800 C798 1.353 . S
C800 H858 0.930 . S
C801 N797 1.279 . S
C801 C799 1.358 . S
C801 H859 0.930 . S
C802 C805 1.348 . S
C802 C806 1.356 . S
C802 O853 1.325 . S
C803 N804 1.279 . S
C803 C806 1.358 . S
C803 H860 0.930 . S
N804 C803 1.279 . S
N804 C807 1.325 1_565 S
C805 C802 1.348 . S
C805 C807 1.304 1_565 S
C805 H861 0.929 1_565 S
C806 C802 1.356 . S
C806 C803 1.358 . S
C806 H862 0.930 . S
C807 N804 1.325 1_545 S
C807 C805 1.304 1_545 S
C807 H863 0.984 . S
C808 N809 1.314 . S
C808 C813 1.353 . S
C808 H814 0.930 . S
N809 Li792 1.990 1_545 S
N809 C808 1.314 . S
N809 C811 1.279 . S
C810 C811 1.358 . S
C810 C812 1.356 . S
C810 H864 0.930 . S
C811 N809 1.279 . S
C811 C810 1.358 . S
C811 H815 0.930 . S
C812 C810 1.356 . S
C812 C813 1.348 . S
C813 C808 1.353 . S
C813 C812 1.348 . S
C813 H865 0.929 . S
H814 C808 0.930 . S
H815 C811 0.930 . S
C816 N817 1.314 . S
C816 C818 1.353 . S
C816 H822 0.930 . S
N817 Li793 1.990 . S
N817 C816 1.314 . S
N817 C820 1.279 . S
C818 C816 1.353 . S
C818 C821 1.348 . S
C818 H866 0.929 . S
C819 C820 1.358 . S
C819 C821 1.356 . S
C819 H867 0.930 . S
C820 N817 1.279 . S
C820 C819 1.358 . S
C820 H823 0.930 . S
C821 C818 1.348 . S
C821 C819 1.356 . S
H822 C816 0.930 . S
H823 C820 0.930 . S
C824 C826 1.348 . S
C824 C827 1.356 . S
C824 O854 1.325 1_545 S
N825 C828 1.314 . S
N825 C829 1.279 . S
C826 C824 1.348 . S
C826 C828 1.353 . S
C826 H868 0.929 1_545 S
C827 C824 1.356 . S
C827 C829 1.358 . S
C827 H869 0.930 . S
C828 N825 1.314 . S
C828 C826 1.353 . S
C828 H870 0.930 . S
C829 N825 1.279 . S
C829 C827 1.358 . S
C829 H871 0.930 . S
C830 C831 1.348 . S
C830 C832 1.356 . S
C830 O855 1.325 . S
C831 C830 1.348 . S
C831 C833 1.353 . S
C831 H872 0.929 . S
C832 C830 1.356 . S
C832 C834 1.358 . S
C832 H873 0.930 . S
C833 C831 1.353 . S
C833 N835 1.314 . S
C833 H874 0.930 . S
C834 C832 1.358 . S
C834 N835 1.279 . S
C834 H875 0.930 . S
N835 C833 1.314 . S
N835 C834 1.279 . S
C836 C838 1.353 . S
C836 N839 1.314 . S
C836 H842 0.930 . S
C837 N839 1.279 . S
C837 C840 1.358 . S
C837 H843 0.930 . S
C838 C836 1.353 . S
C838 C841 1.348 . S
C838 H876 0.929 . S
N839 Li794 1.990 . S
N839 C836 1.314 . S
N839 C837 1.279 . S
C840 C837 1.358 . S
C840 C841 1.356 . S
C840 H877 0.930 . S
C841 C838 1.348 . S
C841 C840 1.356 . S
H842 C836 0.930 . S
H843 C837 0.930 . S
C844 N845 1.314 . S
C844 C846 1.353 . S
C844 H850 0.930 . S
N845 Li795 1.990 . S
N845 C844 1.314 . S
N845 C848 1.279 . S
C846 C844 1.353 . S
C846 C849 1.348 . S
C846 H878 0.856 1_565 S
C847 C848 1.358 . S
C847 C849 1.356 . S
C847 H879 0.930 . S
C848 N845 1.279 . S
C848 C847 1.358 . S
C848 H851 0.930 . S
C849 C846 1.348 . S
C849 C847 1.356 . S
H850 C844 0.930 . S
H851 C848 0.930 . S
O852 Li792 1.956 . S
O852 Li793 1.970 . S
O852 Li794 1.961 . S
O852 C796 1.325 . S
O853 Li792 1.970 . S
O853 Li793 1.956 . S
O853 Li795 1.961 . S
O853 C802 1.325 . S
O854 Li792 1.961 . S
O854 Li794 1.956 . S
O854 Li795 1.970 . S
O854 C824 1.325 1_565 S
O855 Li793 1.961 . S
O855 Li794 1.970 . S
O855 Li795 1.956 . S
O855 C830 1.325 . S
H856 C798 0.929 . S
H857 C799 0.930 . S
H858 C800 0.930 . S
H859 C801 0.930 . S
H860 C803 0.930 . S
H861 C805 0.929 1_545 S
H862 C806 0.930 . S
H863 C807 0.984 . S
H864 C810 0.930 . S
H865 C813 0.929 . S
H866 C818 0.929 . S
H867 C819 0.930 . S
H868 C826 0.929 1_565 S
H869 C827 0.930 . S
H870 C828 0.930 . S
H871 C829 0.930 . S
H872 C831 0.929 . S
H873 C832 0.930 . S
H874 C833 0.930 . S
H875 C834 0.930 . S
H876 C838 0.929 . S
H877 C840 0.930 . S
H878 C846 0.856 1_545 S
H879 C847 0.930 . S
Li880 N897 1.990 . S
Li880 O940 1.956 . S
Li880 O941 1.970 . S
Li880 O942 1.961 . S
Li881 N905 1.990 1_455 S
Li881 O940 1.970 . S
Li881 O941 1.956 . S
Li881 O943 1.961 . S
Li882 N927 1.990 . S
Li882 O940 1.961 . S
Li882 O942 1.956 . S
Li882 O943 1.970 . S
Li883 N933 1.990 . S
Li883 O941 1.961 . S
Li883 O942 1.970 . S
Li883 O943 1.956 . S
C884 C886 1.348 . S
C884 C887 1.356 . S
C884 O940 1.325 . S
N885 C888 1.314 1_455 S
N885 C889 1.279 . S
C886 C884 1.348 . S
C886 C888 1.353 1_455 S
C886 H944 0.929 1_455 S
C887 C884 1.356 . S
C887 C889 1.358 . S
C887 H945 0.930 . S
C888 N885 1.314 1_655 S
C888 C886 1.353 1_655 S
C888 H946 0.930 . S
C889 N885 1.279 . S
C889 C887 1.358 . S
C889 H947 0.930 . S
C890 C893 1.348 . S
C890 C894 1.356 . S
C890 O941 1.325 . S
C891 N892 1.279 . S
C891 C894 1.358 . S
C891 H948 0.930 . S
N892 C891 1.279 . S
N892 C895 1.314 . S
C893 C890 1.348 . S
C893 C895 1.353 . S
C893 H949 0.929 . S
C894 C890 1.356 . S
C894 C891 1.358 . S
C894 H950 0.930 . S
C895 N892 1.314 . S
C895 C893 1.353 . S
C895 H951 0.930 . S
C896 N897 1.314 . S
C896 C901 1.353 . S
C896 H902 0.930 . S
N897 Li880 1.990 . S
N897 C896 1.314 . S
N897 C899 1.279 . S
C898 C899 1.358 . S
C898 C900 1.356 . S
C898 H952 0.930 . S
C899 N897 1.279 . S
C899 C898 1.358 . S
C899 H903 0.930 . S
C900 C898 1.356 . S
C900 C901 1.348 . S
C901 C896 1.353 . S
C901 C900 1.348 . S
C901 H953 0.929 . S
H902 C896 0.930 . S
H903 C899 0.930 . S
C904 N905 1.314 . S
C904 C906 1.353 . S
C904 H910 0.930 . S
N905 Li881 1.990 1_655 S
N905 C904 1.314 . S
N905 C908 1.279 . S
C906 C904 1.353 . S
C906 C909 1.348 . S
C906 H954 0.929 . S
C907 C908 1.358 . S
C907 C909 1.356 . S
C907 H955 0.930 . S
C908 N905 1.279 . S
C908 C907 1.358 . S
C908 H911 0.930 . S
C909 C906 1.348 . S
C909 C907 1.356 . S
H910 C904 0.930 . S
H911 C908 0.930 . S
C912 C914 1.348 . S
C912 C915 1.356 . S
C912 O942 1.325 . S
N913 C916 1.314 . S
N913 C917 1.279 . S
C914 C912 1.348 . S
C914 C916 1.353 . S
C914 H956 0.929 . S
C915 C912 1.356 . S
C915 C917 1.358 . S
C915 H957 0.930 . S
C916 N913 1.314 . S
C916 C914 1.353 . S
C916 H958 0.930 . S
C917 N913 1.279 . S
C917 C915 1.358 . S
C917 H959 0.930 . S
C918 C919 1.348 . S
C918 C920 1.356 . S
C918 O943 1.325 1_655 S
C919 C918 1.348 . S
C919 C921 1.353 . S
C919 H960 0.929 1_655 S
C920 C918 1.356 . S
C920 C922 1.358 . S
C920 H961 0.930 . S
C921 C919 1.353 . S
C921 N923 1.314 . S
C921 H962 0.930 . S
C922 C920 1.358 . S
C922 N923 1.279 . S
C922 H963 0.930 . S
N923 C921 1.314 . S
N923 C922 1.279 . S
C924 C926 1.353 . S
C924 N927 1.314 . S
C924 H930 1.002 . S
C925 N927 1.279 . S
C925 C928 1.358 . S
C925 H931 0.930 . S
C926 C924 1.353 . S
C926 C929 1.348 . S
C926 H964 0.929 1_455 S
N927 Li882 1.990 . S
N927 C924 1.314 . S
N927 C925 1.279 . S
C928 C925 1.358 . S
C928 C929 1.356 . S
C928 H965 0.930 . S
C929 C926 1.348 . S
C929 C928 1.356 . S
H930 C924 1.002 . S
H931 C925 0.930 . S
C932 N933 1.314 . S
C932 C934 1.353 . S
C932 H938 0.930 . S
N933 Li883 1.990 . S
N933 C932 1.314 . S
N933 C936 1.279 . S
C934 C932 1.353 . S
C934 C937 1.348 . S
C934 H966 0.929 . S
C935 C936 1.358 . S
C935 C937 1.356 . S
C935 H967 0.930 . S
C936 N933 1.279 . S
C936 C935 1.358 . S
C936 H939 0.930 . S
C937 C934 1.348 . S
C937 C935 1.356 . S
H938 C932 0.930 . S
H939 C936 0.930 . S
O940 Li880 1.956 . S
O940 Li881 1.970 . S
O940 Li882 1.961 . S
O940 C884 1.325 . S
O941 Li880 1.970 . S
O941 Li881 1.956 . S
O941 Li883 1.961 . S
O941 C890 1.325 . S
O942 Li880 1.961 . S
O942 Li882 1.956 . S
O942 Li883 1.970 . S
O942 C912 1.325 . S
O943 Li881 1.961 . S
O943 Li882 1.970 . S
O943 Li883 1.956 . S
O943 C918 1.325 1_455 S
H944 C886 0.929 1_655 S
H945 C887 0.930 . S
H946 C888 0.930 . S
H947 C889 0.930 . S
H948 C891 0.930 . S
H949 C893 0.929 . S
H950 C894 0.930 . S
H951 C895 0.930 . S
H952 C898 0.930 . S
H953 C901 0.929 . S
H954 C906 0.929 . S
H955 C907 0.930 . S
H956 C914 0.929 . S
H957 C915 0.930 . S
H958 C916 0.930 . S
H959 C917 0.930 . S
H960 C919 0.929 1_455 S
H961 C920 0.930 . S
H962 C921 0.930 . S
H963 C922 0.930 . S
H964 C926 0.929 1_655 S
H965 C928 0.930 . S
H966 C934 0.929 . S
H967 C935 0.930 . S
Li968 N985 1.990 . S
Li968 O1028 1.956 . S
Li968 O1029 1.970 . S
Li968 O1030 1.961 . S
Li969 N993 1.990 . S
Li969 O1028 1.970 . S
Li969 O1029 1.956 . S
Li969 O1031 1.961 . S
Li970 N1015 1.990 . S
Li970 O1028 1.961 . S
Li970 O1030 1.956 . S
Li970 O1031 1.970 . S
Li971 N1021 1.990 . S
Li971 O1029 1.961 . S
Li971 O1030 1.970 . S
Li971 O1031 1.956 . S
C972 C974 1.348 . S
C972 C975 1.356 . S
C972 O1028 1.325 . S
N973 C976 1.314 . S
N973 C977 1.279 . S
C974 C972 1.348 . S
C974 C976 1.353 . S
C974 H1032 0.929 . S
C975 C972 1.356 . S
C975 C977 1.358 . S
C975 H1033 0.930 . S
C976 N973 1.314 . S
C976 C974 1.353 . S
C976 H1034 0.930 . S
C977 N973 1.279 . S
C977 C975 1.358 . S
C977 H1035 0.930 . S
C978 C981 1.348 . S
C978 C982 1.356 . S
C978 O1029 1.325 . S
C979 N980 1.279 . S
C979 C982 1.358 . S
C979 H1036 0.930 . S
N980 C979 1.279 . S
N980 C983 1.314 . S
C981 C978 1.348 . S
C981 C983 1.353 . S
C981 H1037 0.929 . S
C982 C978 1.356 . S
C982 C979 1.358 . S
C982 H1038 0.930 . S
C983 N980 1.314 . S
C983 C981 1.353 . S
C983 H1039 0.930 . S
C984 N985 1.314 . S
C984 C989 1.353 . S
C984 H990 0.930 . S
N985 Li968 1.990 . S
N985 C984 1.314 . S
N985 C987 1.279 . S
C986 C987 1.358 . S
C986 C988 1.356 . S
C986 H1040 0.930 . S
C987 N985 1.279 . S
C987 C986 1.358 . S
C987 H991 0.930 . S
C988 C986 1.356 . S
C988 C989 1.348 . S
C989 C984 1.353 . S
C989 C988 1.348 . S
C989 H1041 0.929 . S
H990 C984 0.930 . S
H991 C987 0.930 . S
C992 N993 1.314 . S
C992 C994 1.353 . S
C992 H998 0.930 . S
N993 Li969 1.990 . S
N993 C992 1.314 . S
N993 C996 1.279 . S
C994 C992 1.353 . S
C994 C997 1.348 . S
C994 H1042 0.929 . S
C995 C996 1.358 . S
C995 C997 1.356 . S
C995 H1043 0.930 . S
C996 N993 1.279 . S
C996 C995 1.358 . S
C996 H999 0.930 . S
C997 C994 1.348 . S
C997 C995 1.356 . S
H998 C992 0.930 . S
H999 C996 0.930 . S
C1000 C1002 1.348 . S
C1000 C1003 1.356 . S
C1000 O1030 1.325 . S
N1001 C1004 1.314 . S
N1001 C1005 1.279 . S
C1002 C1000 1.348 . S
C1002 C1004 1.353 . S
C1002 H1044 0.929 . S
C1003 C1000 1.356 . S
C1003 C1005 1.358 . S
C1003 H1045 0.930 . S
C1004 N1001 1.314 . S
C1004 C1002 1.353 . S
C1004 H1046 0.930 . S
C1005 N1001 1.279 . S
C1005 C1003 1.358 . S
C1005 H1047 0.930 . S
C1006 C1007 1.348 . S
C1006 C1008 1.356 . S
C1006 O1031 1.325 . S
C1007 C1006 1.348 . S
C1007 C1009 1.353 . S
C1007 H1048 0.929 . S
C1008 C1006 1.356 . S
C1008 C1010 1.358 . S
C1008 H1049 0.930 . S
C1009 C1007 1.353 . S
C1009 N1011 1.314 . S
C1009 H1050 0.930 . S
C1010 C1008 1.358 . S
C1010 N1011 1.279 . S
C1010 H1051 0.930 . S
N1011 C1009 1.314 . S
N1011 C1010 1.279 . S
C1012 C1014 1.353 . S
C1012 N1015 1.314 . S
C1012 H1018 0.930 . S
C1013 N1015 1.279 . S
C1013 C1016 1.358 . S
C1013 H1019 0.930 . S
C1014 C1012 1.353 . S
C1014 C1017 1.348 . S
C1014 H1052 0.929 . S
N1015 Li970 1.990 . S
N1015 C1012 1.314 . S
N1015 C1013 1.279 . S
C1016 C1013 1.358 . S
C1016 C1017 1.356 . S
C1016 H1053 0.930 . S
C1017 C1014 1.348 . S
C1017 C1016 1.356 . S
H1018 C1012 0.930 . S
H1019 C1013 0.930 . S
C1020 N1021 1.314 . S
C1020 C1022 1.353 . S
C1020 H1026 0.930 . S
N1021 Li971 1.990 . S
N1021 C1020 1.314 . S
N1021 C1024 1.279 . S
C1022 C1020 1.353 . S
C1022 C1025 1.348 . S
C1022 H1054 0.929 . S
C1023 C1024 1.358 . S
C1023 C1025 1.356 . S
C1023 H1055 0.930 . S
C1024 N1021 1.279 . S
C1024 C1023 1.358 . S
C1024 H1027 0.930 . S
C1025 C1022 1.348 . S
C1025 C1023 1.356 . S
H1026 C1020 0.930 . S
H1027 C1024 0.930 . S
O1028 Li968 1.956 . S
O1028 Li969 1.970 . S
O1028 Li970 1.961 . S
O1028 C972 1.325 . S
O1029 Li968 1.970 . S
O1029 Li969 1.956 . S
O1029 Li971 1.961 . S
O1029 C978 1.325 . S
O1030 Li968 1.961 . S
O1030 Li970 1.956 . S
O1030 Li971 1.970 . S
O1030 C1000 1.325 . S
O1031 Li969 1.961 . S
O1031 Li970 1.970 . S
O1031 Li971 1.956 . S
O1031 C1006 1.325 . S
H1032 C974 0.929 . S
H1033 C975 0.930 . S
H1034 C976 0.930 . S
H1035 C977 0.930 . S
H1036 C979 0.930 . S
H1037 C981 0.929 . S
H1038 C982 0.930 . S
H1039 C983 0.930 . S
H1040 C986 0.930 . S
H1041 C989 0.929 . S
H1042 C994 0.929 . S
H1043 C995 0.930 . S
H1044 C1002 0.929 . S
H1045 C1003 0.930 . S
H1046 C1004 0.930 . S
H1047 C1005 0.930 . S
H1048 C1007 0.929 . S
H1049 C1008 0.930 . S
H1050 C1009 0.930 . S
H1051 C1010 0.930 . S
H1052 C1014 0.929 . S
H1053 C1016 0.930 . S
H1054 C1022 0.929 . S
H1055 C1023 0.930 . S
Li1056 N1073 1.990 1_545 S
Li1056 O1116 1.956 . S
Li1056 O1117 1.970 . S
Li1056 O1118 1.961 . S
Li1057 N1081 1.990 . S
Li1057 O1116 1.970 . S
Li1057 O1117 1.956 . S
Li1057 O1119 1.961 . S
Li1058 N1103 1.990 . S
Li1058 O1116 1.961 . S
Li1058 O1118 1.956 . S
Li1058 O1119 1.970 . S
Li1059 N1109 1.990 . S
Li1059 O1117 1.961 . S
Li1059 O1118 1.970 . S
Li1059 O1119 1.956 . S
C1060 C1062 1.348 . S
C1060 C1063 1.356 . S
C1060 O1116 1.325 1_565 S
N1061 C1064 1.314 . S
N1061 C1065 1.279 . S
C1062 C1060 1.348 . S
C1062 C1064 1.353 . S
C1062 H1120 0.929 . S
C1063 C1060 1.356 . S
C1063 C1065 1.358 . S
C1063 H1121 0.930 . S
C1064 N1061 1.314 . S
C1064 C1062 1.353 . S
C1064 H1122 0.930 . S
C1065 N1061 1.279 . S
C1065 C1063 1.358 . S
C1065 H1123 0.930 . S
C1066 C1069 1.348 1_545 S
C1066 C1070 1.356 . S
C1066 O1117 1.325 . S
C1067 N1068 1.279 . S
C1067 C1070 1.358 . S
C1067 H1124 0.930 . S
N1068 C1067 1.279 . S
N1068 C1071 1.314 1_545 S
C1069 C1066 1.348 1_565 S
C1069 C1071 1.353 . S
C1069 H1125 0.929 . S
C1070 C1066 1.356 . S
C1070 C1067 1.358 . S
C1070 H1126 0.930 . S
C1071 N1068 1.314 1_565 S
C1071 C1069 1.353 . S
C1071 H1127 0.930 . S
C1072 N1073 1.314 . S
C1072 C1077 1.353 . S
C1072 H1078 0.930 . S
N1073 Li1056 1.990 1_565 S
N1073 C1072 1.314 . S
N1073 C1075 1.279 . S
C1074 C1075 1.358 . S
C1074 C1076 1.356 . S
C1074 H1128 0.930 . S
C1075 N1073 1.279 . S
C1075 C1074 1.358 . S
C1075 H1079 0.930 . S
C1076 C1074 1.356 . S
C1076 C1077 1.348 . S
C1077 C1072 1.353 . S
C1077 C1076 1.348 . S
C1077 H1129 0.929 . S
H1078 C1072 0.930 . S
H1079 C1075 0.930 . S
C1080 N1081 1.314 . S
C1080 C1082 1.353 . S
C1080 H1086 0.930 . S
N1081 Li1057 1.990 . S
N1081 C1080 1.314 . S
N1081 C1084 1.279 . S
C1082 C1080 1.353 . S
C1082 C1085 1.348 . S
C1082 H1130 0.929 . S
C1083 C1084 1.358 . S
C1083 C1085 1.356 . S
C1083 H1131 0.930 . S
C1084 N1081 1.279 . S
C1084 C1083 1.358 . S
C1084 H1087 0.930 . S
C1085 C1082 1.348 . S
C1085 C1083 1.356 . S
H1086 C1080 0.930 . S
H1087 C1084 0.930 . S
C1088 C1090 1.348 . S
C1088 C1091 1.356 . S
C1088 O1118 1.325 . S
N1089 C1092 1.314 . S
N1089 C1093 1.279 . S
C1090 C1088 1.348 . S
C1090 C1092 1.353 . S
C1090 H1132 0.929 . S
C1091 C1088 1.356 . S
C1091 C1093 1.358 . S
C1091 H1133 0.930 . S
C1092 N1089 1.314 . S
C1092 C1090 1.353 . S
C1092 H1134 0.930 . S
C1093 N1089 1.279 . S
C1093 C1091 1.358 . S
C1093 H1135 0.930 . S
C1094 C1095 1.348 . S
C1094 C1096 1.356 . S
C1094 O1119 1.325 . S
C1095 C1094 1.348 . S
C1095 C1097 1.353 . S
C1095 H1136 0.929 . S
C1096 C1094 1.356 . S
C1096 C1098 1.358 . S
C1096 H1137 0.930 . S
C1097 C1095 1.353 . S
C1097 N1099 1.314 . S
C1097 H1138 0.930 . S
C1098 C1096 1.358 . S
C1098 N1099 1.279 . S
C1098 H1139 0.930 . S
N1099 C1097 1.314 . S
N1099 C1098 1.279 . S
C1100 C1102 1.353 . S
C1100 N1103 1.314 . S
C1100 H1106 0.930 . S
C1101 N1103 1.279 . S
C1101 C1104 1.358 . S
C1101 H1107 0.930 . S
C1102 C1100 1.353 . S
C1102 C1105 1.348 . S
C1102 H1140 0.929 . S
N1103 Li1058 1.990 . S
N1103 C1100 1.314 . S
N1103 C1101 1.279 . S
C1104 C1101 1.358 . S
C1104 C1105 1.356 . S
C1104 H1141 0.930 . S
C1105 C1102 1.348 . S
C1105 C1104 1.356 . S
H1106 C1100 0.930 . S
H1107 C1101 0.930 . S
C1108 N1109 1.314 . S
C1108 C1110 1.353 . S
C1108 H1114 0.930 . S
N1109 Li1059 1.990 . S
N1109 C1108 1.314 . S
N1109 C1112 1.279 . S
C1110 C1108 1.353 . S
C1110 C1113 1.348 . S
C1110 H1142 0.929 . S
C1111 C1112 1.358 . S
C1111 C1113 1.356 . S
C1111 H1143 0.930 . S
C1112 N1109 1.279 . S
C1112 C1111 1.358 . S
C1112 H1115 0.930 . S
C1113 C1110 1.348 . S
C1113 C1111 1.356 . S
H1114 C1108 0.930 . S
H1115 C1112 0.930 . S
O1116 Li1056 1.956 . S
O1116 Li1057 1.970 . S
O1116 Li1058 1.961 . S
O1116 C1060 1.325 1_545 S
O1117 Li1056 1.970 . S
O1117 Li1057 1.956 . S
O1117 Li1059 1.961 . S
O1117 C1066 1.325 . S
O1118 Li1056 1.961 . S
O1118 Li1058 1.956 . S
O1118 Li1059 1.970 . S
O1118 C1088 1.325 . S
O1119 Li1057 1.961 . S
O1119 Li1058 1.970 . S
O1119 Li1059 1.956 . S
O1119 C1094 1.325 . S
H1120 C1062 0.929 . S
H1121 C1063 0.930 . S
H1122 C1064 0.930 . S
H1123 C1065 0.930 . S
H1124 C1067 0.930 . S
H1125 C1069 0.929 . S
H1126 C1070 0.930 . S
H1127 C1071 0.930 . S
H1128 C1074 0.930 . S
H1129 C1077 0.929 . S
H1130 C1082 0.929 . S
H1131 C1083 0.930 . S
H1132 C1090 0.929 . S
H1133 C1091 0.930 . S
H1134 C1092 0.930 . S
H1135 C1093 0.930 . S
H1136 C1095 0.929 . S
H1137 C1096 0.930 . S
H1138 C1097 0.930 . S
H1139 C1098 0.930 . S
H1140 C1102 0.929 . S
H1141 C1104 0.930 . S
H1142 C1110 0.929 . S
H1143 C1111 0.930 . S
Li1144 N1161 1.990 1_655 S
Li1144 O1204 1.956 . S
Li1144 O1205 1.970 . S
Li1144 O1206 1.961 . S
Li1145 N1169 1.990 . S
Li1145 O1204 1.970 . S
Li1145 O1205 1.956 . S
Li1145 O1207 1.961 . S
Li1146 N1191 1.990 . S
Li1146 O1204 1.961 . S
Li1146 O1206 1.956 . S
Li1146 O1207 1.970 . S
Li1147 N1197 1.990 . S
Li1147 O1205 1.961 . S
Li1147 O1206 1.970 . S
Li1147 O1207 1.956 . S
C1148 C1150 1.348 . S
C1148 C1151 1.356 . S
C1148 O1204 1.325 1_455 S
N1149 C1152 1.314 . S
N1149 C1153 1.279 . S
C1150 C1148 1.348 . S
C1150 C1152 1.353 . S
C1150 H1208 0.929 . S
C1151 C1148 1.356 . S
C1151 C1153 1.358 . S
C1151 H1209 0.930 . S
C1152 N1149 1.314 . S
C1152 C1150 1.353 . S
C1152 H1210 0.930 . S
C1153 N1149 1.279 . S
C1153 C1151 1.358 . S
C1153 H1211 0.930 . S
C1154 C1157 1.348 1_655 S
C1154 C1158 1.356 . S
C1154 O1205 1.325 . S
C1155 N1156 1.279 . S
C1155 C1158 1.358 . S
C1155 H1212 0.930 . S
N1156 C1155 1.279 . S
N1156 C1159 1.314 1_655 S
C1157 C1154 1.348 1_455 S
C1157 C1159 1.353 . S
C1157 H1213 0.929 . S
C1158 C1154 1.356 . S
C1158 C1155 1.358 . S
C1158 H1214 0.930 . S
C1159 N1156 1.314 1_455 S
C1159 C1157 1.353 . S
C1159 H1215 0.930 . S
C1160 N1161 1.314 . S
C1160 C1165 1.353 . S
C1160 H1166 0.930 . S
N1161 Li1144 1.990 1_455 S
N1161 C1160 1.314 . S
N1161 C1163 1.279 . S
C1162 C1163 1.358 . S
C1162 C1164 1.356 . S
C1162 H1216 0.930 . S
C1163 N1161 1.279 . S
C1163 C1162 1.358 . S
C1163 H1167 0.930 . S
C1164 C1162 1.356 . S
C1164 C1165 1.348 . S
C1165 C1160 1.353 . S
C1165 C1164 1.348 . S
C1165 H1217 0.929 . S
H1166 C1160 0.930 . S
H1167 C1163 0.930 . S
C1168 N1169 1.314 . S
C1168 C1170 1.353 . S
C1168 H1174 0.930 . S
N1169 Li1145 1.990 . S
N1169 C1168 1.314 . S
N1169 C1172 1.279 . S
C1170 C1168 1.353 . S
C1170 C1173 1.348 . S
C1170 H1218 0.929 . S
C1171 C1172 1.358 . S
C1171 C1173 1.356 . S
C1171 H1219 0.930 . S
C1172 N1169 1.279 . S
C1172 C1171 1.358 . S
C1172 H1175 0.930 . S
C1173 C1170 1.348 . S
C1173 C1171 1.356 . S
H1174 C1168 0.930 . S
H1175 C1172 0.930 . S
C1176 C1178 1.348 . S
C1176 C1179 1.356 . S
C1176 O1206 1.325 . S
N1177 C1180 1.314 . S
N1177 C1181 1.279 . S
C1178 C1176 1.348 . S
C1178 C1180 1.353 . S
C1178 H1220 0.929 . S
C1179 C1176 1.356 . S
C1179 C1181 1.358 . S
C1179 H1221 0.930 . S
C1180 N1177 1.314 . S
C1180 C1178 1.353 . S
C1180 H1222 0.930 . S
C1181 N1177 1.279 . S
C1181 C1179 1.358 . S
C1181 H1223 0.930 . S
C1182 C1183 1.348 . S
C1182 C1184 1.356 . S
C1182 O1207 1.325 . S
C1183 C1182 1.348 . S
C1183 C1185 1.353 . S
C1183 H1224 0.929 . S
C1184 C1182 1.356 . S
C1184 C1186 1.358 . S
C1184 H1225 0.930 . S
C1185 C1183 1.353 . S
C1185 N1187 1.314 . S
C1185 H1226 0.930 . S
C1186 C1184 1.358 . S
C1186 N1187 1.279 . S
C1186 H1227 0.930 . S
N1187 C1185 1.314 . S
N1187 C1186 1.279 . S
C1188 C1190 1.353 . S
C1188 N1191 1.314 . S
C1188 H1194 0.930 . S
C1189 N1191 1.279 . S
C1189 C1192 1.358 . S
C1189 H1195 0.930 . S
C1190 C1188 1.353 . S
C1190 C1193 1.348 . S
C1190 H1228 0.929 . S
N1191 Li1146 1.990 . S
N1191 C1188 1.314 . S
N1191 C1189 1.279 . S
C1192 C1189 1.358 . S
C1192 C1193 1.356 . S
C1192 H1229 0.930 . S
C1193 C1190 1.348 . S
C1193 C1192 1.356 . S
H1194 C1188 0.930 . S
H1195 C1189 0.930 . S
C1196 N1197 1.314 . S
C1196 C1198 1.353 . S
C1196 H1202 0.930 . S
N1197 Li1147 1.990 . S
N1197 C1196 1.314 . S
N1197 C1200 1.279 . S
C1198 C1196 1.353 . S
C1198 C1201 1.348 . S
C1198 H1230 0.929 . S
C1199 C1200 1.358 . S
C1199 C1201 1.356 . S
C1199 H1231 0.930 . S
C1200 N1197 1.279 . S
C1200 C1199 1.358 . S
C1200 H1203 0.930 . S
C1201 C1198 1.348 . S
C1201 C1199 1.356 . S
H1202 C1196 0.930 . S
H1203 C1200 0.930 . S
O1204 Li1144 1.956 . S
O1204 Li1145 1.970 . S
O1204 Li1146 1.961 . S
O1204 C1148 1.325 1_655 S
O1205 Li1144 1.970 . S
O1205 Li1145 1.956 . S
O1205 Li1147 1.961 . S
O1205 C1154 1.325 . S
O1206 Li1144 1.961 . S
O1206 Li1146 1.956 . S
O1206 Li1147 1.970 . S
O1206 C1176 1.325 . S
O1207 Li1145 1.961 . S
O1207 Li1146 1.970 . S
O1207 Li1147 1.956 . S
O1207 C1182 1.325 . S
H1208 C1150 0.929 . S
H1209 C1151 0.930 . S
H1210 C1152 0.930 . S
H1211 C1153 0.930 . S
H1212 C1155 0.930 . S
H1213 C1157 0.929 . S
H1214 C1158 0.930 . S
H1215 C1159 0.930 . S
H1216 C1162 0.930 . S
H1217 C1165 0.929 . S
H1218 C1170 0.929 . S
H1219 C1171 0.930 . S
H1220 C1178 0.929 . S
H1221 C1179 0.930 . S
H1222 C1180 0.930 . S
H1223 C1181 0.930 . S
H1224 C1183 0.929 . S
H1225 C1184 0.930 . S
H1226 C1185 0.930 . S
H1227 C1186 0.930 . S
H1228 C1190 0.929 . S
H1229 C1192 0.930 . S
H1230 C1198 0.929 . S
H1231 C1199 0.930 . S
Li1232 N1249 1.990 . S
Li1232 O1292 1.956 . S
Li1232 O1293 1.970 . S
Li1232 O1294 1.961 . S
Li1233 N1257 1.990 . S
Li1233 O1292 1.970 . S
Li1233 O1293 1.956 . S
Li1233 O1295 1.961 . S
Li1234 N1279 1.990 . S
Li1234 O1292 1.961 . S
Li1234 O1294 1.956 . S
Li1234 O1295 1.970 . S
Li1235 N1285 1.990 . S
Li1235 O1293 1.961 . S
Li1235 O1294 1.970 . S
Li1235 O1295 1.956 . S
C1236 C1238 1.348 . S
C1236 C1239 1.356 . S
C1236 O1292 1.325 . S
N1237 C1240 1.314 . S
N1237 C1241 1.279 . S
C1238 C1236 1.348 . S
C1238 C1240 1.353 . S
C1238 H1296 0.929 . S
C1239 C1236 1.356 . S
C1239 C1241 1.358 . S
C1239 H1297 0.930 . S
C1240 N1237 1.314 . S
C1240 C1238 1.353 . S
C1240 H1298 0.930 . S
C1241 N1237 1.279 . S
C1241 C1239 1.358 . S
C1241 H1299 0.930 . S
C1242 C1245 1.348 . S
C1242 C1246 1.356 . S
C1242 O1293 1.325 . S
C1243 N1244 1.279 . S
C1243 C1246 1.358 . S
C1243 H1300 0.930 . S
N1244 C1243 1.279 . S
N1244 C1247 1.314 . S
C1245 C1242 1.348 . S
C1245 C1247 1.353 . S
C1245 H1301 0.929 . S
C1246 C1242 1.356 . S
C1246 C1243 1.358 . S
C1246 H1302 0.930 . S
C1247 N1244 1.314 . S
C1247 C1245 1.353 . S
C1247 H1303 0.930 . S
C1248 N1249 1.314 . S
C1248 C1253 1.353 . S
C1248 H1254 0.930 . S
N1249 Li1232 1.990 . S
N1249 C1248 1.314 . S
N1249 C1251 1.279 . S
C1250 C1251 1.358 . S
C1250 C1252 1.356 . S
C1250 H1304 0.930 . S
C1251 N1249 1.279 . S
C1251 C1250 1.358 . S
C1251 H1255 0.930 . S
C1252 C1250 1.356 . S
C1252 C1253 1.348 . S
C1253 C1248 1.353 . S
C1253 C1252 1.348 . S
C1253 H1305 0.929 . S
H1254 C1248 0.930 . S
H1255 C1251 0.930 . S
C1256 N1257 1.314 . S
C1256 C1258 1.353 . S
C1256 H1262 0.930 . S
N1257 Li1233 1.990 . S
N1257 C1256 1.314 . S
N1257 C1260 1.279 . S
C1258 C1256 1.353 . S
C1258 C1261 1.348 . S
C1258 H1306 0.929 . S
C1259 C1260 1.358 . S
C1259 C1261 1.356 . S
C1259 H1307 0.930 . S
C1260 N1257 1.279 . S
C1260 C1259 1.358 . S
C1260 H1263 0.930 . S
C1261 C1258 1.348 . S
C1261 C1259 1.356 . S
H1262 C1256 0.930 . S
H1263 C1260 0.930 . S
C1264 C1266 1.348 . S
C1264 C1267 1.356 . S
C1264 O1294 1.325 . S
N1265 C1268 1.314 . S
N1265 C1269 1.279 . S
C1266 C1264 1.348 . S
C1266 C1268 1.353 . S
C1266 H1308 0.929 . S
C1267 C1264 1.356 . S
C1267 C1269 1.358 . S
C1267 H1309 0.930 . S
C1268 N1265 1.314 . S
C1268 C1266 1.353 . S
C1268 H1310 0.930 . S
C1269 N1265 1.279 . S
C1269 C1267 1.358 . S
C1269 H1311 0.930 . S
C1270 C1271 1.348 . S
C1270 C1272 1.356 . S
C1270 O1295 1.325 . S
C1271 C1270 1.348 . S
C1271 C1273 1.353 . S
C1271 H1312 0.929 . S
C1272 C1270 1.356 . S
C1272 C1274 1.358 . S
C1272 H1313 0.930 . S
C1273 C1271 1.353 . S
C1273 N1275 1.314 . S
C1273 H1314 0.930 . S
C1274 C1272 1.358 . S
C1274 N1275 1.279 . S
C1274 H1315 0.930 . S
N1275 C1273 1.314 . S
N1275 C1274 1.279 . S
C1276 C1278 1.353 . S
C1276 N1279 1.314 . S
C1276 H1282 0.930 . S
C1277 N1279 1.279 . S
C1277 C1280 1.358 . S
C1277 H1283 0.930 . S
C1278 C1276 1.353 . S
C1278 C1281 1.348 . S
C1278 H1316 0.929 . S
N1279 Li1234 1.990 . S
N1279 C1276 1.314 . S
N1279 C1277 1.279 . S
C1280 C1277 1.358 . S
C1280 C1281 1.356 . S
C1280 H1317 0.930 . S
C1281 C1278 1.348 . S
C1281 C1280 1.356 . S
H1282 C1276 0.930 . S
H1283 C1277 0.930 . S
C1284 N1285 1.314 . S
C1284 C1286 1.353 . S
C1284 H1290 0.930 . S
N1285 Li1235 1.990 . S
N1285 C1284 1.314 . S
N1285 C1288 1.279 . S
C1286 C1284 1.353 . S
C1286 C1289 1.348 . S
C1286 H1318 0.929 . S
C1287 C1288 1.358 . S
C1287 C1289 1.356 . S
C1287 H1319 0.930 . S
C1288 N1285 1.279 . S
C1288 C1287 1.358 . S
C1288 H1291 0.930 . S
C1289 C1286 1.348 . S
C1289 C1287 1.356 . S
H1290 C1284 0.930 . S
H1291 C1288 0.930 . S
O1292 Li1232 1.956 . S
O1292 Li1233 1.970 . S
O1292 Li1234 1.961 . S
O1292 C1236 1.325 . S
O1293 Li1232 1.970 . S
O1293 Li1233 1.956 . S
O1293 Li1235 1.961 . S
O1293 C1242 1.325 . S
O1294 Li1232 1.961 . S
O1294 Li1234 1.956 . S
O1294 Li1235 1.970 . S
O1294 C1264 1.325 . S
O1295 Li1233 1.961 . S
O1295 Li1234 1.970 . S
O1295 Li1235 1.956 . S
O1295 C1270 1.325 . S
H1296 C1238 0.929 . S
H1297 C1239 0.930 . S
H1298 C1240 0.930 . S
H1299 C1241 0.930 . S
H1300 C1243 0.930 . S
H1301 C1245 0.929 . S
H1302 C1246 0.930 . S
H1303 C1247 0.930 . S
H1304 C1250 0.930 . S
H1305 C1253 0.929 . S
H1306 C1258 0.929 . S
H1307 C1259 0.930 . S
H1308 C1266 0.929 . S
H1309 C1267 0.930 . S
H1310 C1268 0.930 . S
H1311 C1269 0.930 . S
H1312 C1271 0.929 . S
H1313 C1272 0.930 . S
H1314 C1273 0.930 . S
H1315 C1274 0.930 . S
H1316 C1278 0.929 . S
H1317 C1280 0.930 . S
H1318 C1286 0.929 . S
H1319 C1287 0.930 . S
Li1320 N1337 1.990 . S
Li1320 O1380 1.956 . S
Li1320 O1381 1.970 . S
Li1320 O1382 1.961 . S
Li1321 N1345 1.990 . S
Li1321 O1380 1.970 . S
Li1321 O1381 1.956 . S
Li1321 O1383 1.961 . S
Li1322 N1367 1.990 . S
Li1322 O1380 1.961 . S
Li1322 O1382 1.956 . S
Li1322 O1383 1.970 . S
Li1323 N1373 1.990 . S
Li1323 O1381 1.961 . S
Li1323 O1382 1.970 . S
Li1323 O1383 1.956 . S
C1324 C1326 1.348 . S
C1324 C1327 1.356 . S
C1324 O1380 1.325 . S
N1325 C1328 1.314 . S
N1325 C1329 1.279 . S
C1326 C1324 1.348 . S
C1326 C1328 1.353 . S
C1326 H1384 0.929 . S
C1327 C1324 1.356 . S
C1327 C1329 1.358 . S
C1327 H1385 0.930 . S
C1328 N1325 1.314 . S
C1328 C1326 1.353 . S
C1328 H1386 0.930 . S
C1329 N1325 1.279 . S
C1329 C1327 1.358 . S
C1329 H1387 0.930 . S
C1330 C1333 1.348 . S
C1330 C1334 1.356 . S
C1330 O1381 1.325 . S
C1331 N1332 1.279 . S
C1331 C1334 1.358 . S
C1331 H1388 0.930 . S
N1332 C1331 1.279 . S
N1332 C1335 1.314 . S
C1333 C1330 1.348 . S
C1333 C1335 1.353 . S
C1333 H1389 0.929 . S
C1334 C1330 1.356 . S
C1334 C1331 1.358 . S
C1334 H1390 0.930 . S
C1335 N1332 1.314 . S
C1335 C1333 1.353 . S
C1335 H1391 0.930 . S
C1336 N1337 1.314 . S
C1336 C1341 1.353 . S
C1336 H1342 0.930 . S
N1337 Li1320 1.990 . S
N1337 C1336 1.314 . S
N1337 C1339 1.279 . S
C1338 C1339 1.358 . S
C1338 C1340 1.356 . S
C1338 H1392 0.930 . S
C1339 N1337 1.279 . S
C1339 C1338 1.358 . S
C1339 H1343 0.930 . S
C1340 C1338 1.356 . S
C1340 C1341 1.348 . S
C1341 C1336 1.353 . S
C1341 C1340 1.348 . S
C1341 H1393 0.929 . S
H1342 C1336 0.930 . S
H1343 C1339 0.930 . S
C1344 N1345 1.314 . S
C1344 C1346 1.353 . S
C1344 H1350 0.930 . S
N1345 Li1321 1.990 . S
N1345 C1344 1.314 . S
N1345 C1348 1.279 . S
C1346 C1344 1.353 . S
C1346 C1349 1.348 . S
C1346 H1394 0.929 . S
C1347 C1348 1.358 . S
C1347 C1349 1.356 . S
C1347 H1395 0.930 . S
C1348 N1345 1.279 . S
C1348 C1347 1.358 . S
C1348 H1351 0.930 . S
C1349 C1346 1.348 . S
C1349 C1347 1.356 . S
H1350 C1344 0.930 . S
H1351 C1348 0.930 . S
C1352 C1354 1.348 . S
C1352 C1355 1.356 . S
C1352 O1382 1.325 . S
N1353 C1356 1.314 . S
N1353 C1357 1.279 . S
C1354 C1352 1.348 . S
C1354 C1356 1.353 . S
C1354 H1396 0.929 . S
C1355 C1352 1.356 . S
C1355 C1357 1.358 . S
C1355 H1397 0.930 . S
C1356 N1353 1.314 . S
C1356 C1354 1.353 . S
C1356 H1398 0.930 . S
C1357 N1353 1.279 . S
C1357 C1355 1.358 . S
C1357 H1399 0.930 . S
C1358 C1359 1.348 . S
C1358 C1360 1.356 . S
C1358 O1383 1.325 . S
C1359 C1358 1.348 . S
C1359 C1361 1.353 . S
C1359 H1400 0.929 . S
C1360 C1358 1.356 . S
C1360 C1362 1.358 . S
C1360 H1401 0.930 . S
C1361 C1359 1.353 . S
C1361 N1363 1.314 . S
C1361 H1402 0.930 . S
C1362 C1360 1.358 . S
C1362 N1363 1.279 . S
C1362 H1403 0.930 . S
N1363 C1361 1.314 . S
N1363 C1362 1.279 . S
C1364 C1366 1.353 . S
C1364 N1367 1.314 . S
C1364 H1370 0.930 . S
C1365 N1367 1.279 . S
C1365 C1368 1.358 . S
C1365 H1371 0.930 . S
C1366 C1364 1.353 . S
C1366 C1369 1.348 . S
C1366 H1404 0.929 . S
N1367 Li1322 1.990 . S
N1367 C1364 1.314 . S
N1367 C1365 1.279 . S
C1368 C1365 1.358 . S
C1368 C1369 1.356 . S
C1368 H1405 0.930 . S
C1369 C1366 1.348 . S
C1369 C1368 1.356 . S
H1370 C1364 0.930 . S
H1371 C1365 0.930 . S
C1372 N1373 1.314 . S
C1372 C1374 1.353 . S
C1372 H1378 0.930 . S
N1373 Li1323 1.990 . S
N1373 C1372 1.314 . S
N1373 C1376 1.279 . S
C1374 C1372 1.353 . S
C1374 C1377 1.348 . S
C1374 H1406 0.929 . S
C1375 C1376 1.358 . S
C1375 C1377 1.356 . S
C1375 H1407 0.930 . S
C1376 N1373 1.279 . S
C1376 C1375 1.358 . S
C1376 H1379 0.930 . S
C1377 C1374 1.348 . S
C1377 C1375 1.356 . S
H1378 C1372 0.930 . S
H1379 C1376 0.930 . S
O1380 Li1320 1.956 . S
O1380 Li1321 1.970 . S
O1380 Li1322 1.961 . S
O1380 C1324 1.325 . S
O1381 Li1320 1.970 . S
O1381 Li1321 1.956 . S
O1381 Li1323 1.961 . S
O1381 C1330 1.325 . S
O1382 Li1320 1.961 . S
O1382 Li1322 1.956 . S
O1382 Li1323 1.970 . S
O1382 C1352 1.325 . S
O1383 Li1321 1.961 . S
O1383 Li1322 1.970 . S
O1383 Li1323 1.956 . S
O1383 C1358 1.325 . S
H1384 C1326 0.929 . S
H1385 C1327 0.930 . S
H1386 C1328 0.930 . S
H1387 C1329 0.930 . S
H1388 C1331 0.930 . S
H1389 C1333 0.929 . S
H1390 C1334 0.930 . S
H1391 C1335 0.930 . S
H1392 C1338 0.930 . S
H1393 C1341 0.929 . S
H1394 C1346 0.929 . S
H1395 C1347 0.930 . S
H1396 C1354 0.929 . S
H1397 C1355 0.930 . S
H1398 C1356 0.930 . S
H1399 C1357 0.930 . S
H1400 C1359 0.929 . S
H1401 C1360 0.930 . S
H1402 C1361 0.930 . S
H1403 C1362 0.930 . S
H1404 C1366 0.929 . S
H1405 C1368 0.930 . S
H1406 C1374 0.929 . S
H1407 C1375 0.930 . S
Li1408 N1425 1.990 . S
Li1408 O1468 1.956 . S
Li1408 O1469 1.970 . S
Li1408 O1470 1.961 . S
Li1409 N1433 1.990 . S
Li1409 O1468 1.970 . S
Li1409 O1469 1.956 . S
Li1409 O1471 1.961 . S
Li1410 N1455 1.990 . S
Li1410 O1468 1.961 . S
Li1410 O1470 1.956 . S
Li1410 O1471 1.970 . S
Li1411 N1461 1.990 1_545 S
Li1411 O1469 1.961 . S
Li1411 O1470 1.970 . S
Li1411 O1471 1.956 . S
C1412 C1414 1.348 . S
C1412 C1415 1.356 . S
C1412 O1468 1.325 . S
N1413 C1416 1.314 . S
N1413 C1417 1.279 . S
C1414 C1412 1.348 . S
C1414 C1416 1.353 . S
C1414 H1472 0.929 . S
C1415 C1412 1.356 . S
C1415 C1417 1.358 . S
C1415 H1473 0.930 . S
C1416 N1413 1.314 . S
C1416 C1414 1.353 . S
C1416 H1474 0.930 . S
C1417 N1413 1.279 . S
C1417 C1415 1.358 . S
C1417 H1475 0.930 . S
C1418 C1421 1.348 . S
C1418 C1422 1.356 . S
C1418 O1469 1.325 1_565 S
C1419 N1420 1.279 . S
C1419 C1422 1.358 . S
C1419 H1476 0.930 . S
N1420 C1419 1.279 . S
N1420 C1423 1.314 . S
C1421 C1418 1.348 . S
C1421 C1423 1.353 . S
C1421 H1477 0.929 1_565 S
C1422 C1418 1.356 . S
C1422 C1419 1.358 . S
C1422 H1478 0.930 . S
C1423 N1420 1.314 . S
C1423 C1421 1.353 . S
C1423 H1479 0.930 . S
C1424 N1425 1.314 . S
C1424 C1429 1.353 . S
C1424 H1430 0.977 . S
N1425 Li1408 1.990 . S
N1425 C1424 1.314 . S
N1425 C1427 1.279 . S
C1426 C1427 1.358 . S
C1426 C1428 1.356 . S
C1426 H1480 0.930 . S
C1427 N1425 1.279 . S
C1427 C1426 1.358 . S
C1427 H1431 0.930 . S
C1428 C1426 1.356 . S
C1428 C1429 1.348 . S
C1429 C1424 1.353 . S
C1429 C1428 1.348 . S
C1429 H1481 0.929 1_545 S
H1430 C1424 0.977 . S
H1431 C1427 0.930 . S
C1432 N1433 1.314 . S
C1432 C1434 1.353 . S
C1432 H1438 0.930 . S
N1433 Li1409 1.990 . S
N1433 C1432 1.314 . S
N1433 C1436 1.279 . S
C1434 C1432 1.353 . S
C1434 C1437 1.348 . S
C1434 H1482 0.929 . S
C1435 C1436 1.358 . S
C1435 C1437 1.356 . S
C1435 H1483 0.930 . S
C1436 N1433 1.279 . S
C1436 C1435 1.358 . S
C1436 H1439 0.930 . S
C1437 C1434 1.348 . S
C1437 C1435 1.356 . S
H1438 C1432 0.930 . S
H1439 C1436 0.930 . S
C1440 C1442 1.400 . S
C1440 C1443 1.356 . S
C1440 O1470 1.325 . S
N1441 C1444 1.314 1_545 S
N1441 C1445 1.279 . S
C1442 C1440 1.400 . S
C1442 C1444 1.372 1_545 S
C1442 H1484 0.864 1_545 S
C1443 C1440 1.356 . S
C1443 C1445 1.358 . S
C1443 H1485 0.930 . S
C1444 N1441 1.314 1_565 S
C1444 C1442 1.372 1_565 S
C1444 H1486 0.930 . S
C1445 N1441 1.279 . S
C1445 C1443 1.358 . S
C1445 H1487 0.930 . S
C1446 C1447 1.348 . S
C1446 C1448 1.356 . S
C1446 O1471 1.325 . S
C1447 C1446 1.348 . S
C1447 C1449 1.353 . S
C1447 H1488 0.929 . S
C1448 C1446 1.356 . S
C1448 C1450 1.358 . S
C1448 H1489 0.930 . S
C1449 C1447 1.353 . S
C1449 N1451 1.314 . S
C1449 H1490 0.930 . S
C1450 C1448 1.358 . S
C1450 N1451 1.279 . S
C1450 H1491 0.930 . S
N1451 C1449 1.314 . S
N1451 C1450 1.279 . S
C1452 C1454 1.353 . S
C1452 N1455 1.314 . S
C1452 H1458 0.930 . S
C1453 N1455 1.279 . S
C1453 C1456 1.358 . S
C1453 H1459 0.930 . S
C1454 C1452 1.353 . S
C1454 C1457 1.348 . S
C1454 H1492 0.929 . S
N1455 Li1410 1.990 . S
N1455 C1452 1.314 . S
N1455 C1453 1.279 . S
C1456 C1453 1.358 . S
C1456 C1457 1.356 . S
C1456 H1493 0.930 . S
C1457 C1454 1.348 . S
C1457 C1456 1.356 . S
H1458 C1452 0.930 . S
H1459 C1453 0.930 . S
C1460 N1461 1.314 . S
C1460 C1462 1.353 . S
C1460 H1466 0.930 . S
N1461 Li1411 1.990 1_565 S
N1461 C1460 1.314 . S
N1461 C1464 1.279 . S
C1462 C1460 1.353 . S
C1462 C1465 1.348 . S
C1462 H1494 0.929 . S
C1463 C1464 1.358 . S
C1463 C1465 1.356 . S
C1463 H1495 0.930 . S
C1464 N1461 1.279 . S
C1464 C1463 1.358 . S
C1464 H1467 0.930 . S
C1465 C1462 1.348 . S
C1465 C1463 1.356 . S
H1466 C1460 0.930 . S
H1467 C1464 0.930 . S
O1468 Li1408 1.956 . S
O1468 Li1409 1.970 . S
O1468 Li1410 1.961 . S
O1468 C1412 1.325 . S
O1469 Li1408 1.970 . S
O1469 Li1409 1.956 . S
O1469 Li1411 1.961 . S
O1469 C1418 1.325 1_545 S
O1470 Li1408 1.961 . S
O1470 Li1410 1.956 . S
O1470 Li1411 1.970 . S
O1470 C1440 1.325 . S
O1471 Li1409 1.961 . S
O1471 Li1410 1.970 . S
O1471 Li1411 1.956 . S
O1471 C1446 1.325 . S
H1472 C1414 0.929 . S
H1473 C1415 0.930 . S
H1474 C1416 0.930 . S
H1475 C1417 0.930 . S
H1476 C1419 0.930 . S
H1477 C1421 0.929 1_545 S
H1478 C1422 0.930 . S
H1479 C1423 0.930 . S
H1480 C1426 0.930 . S
H1481 C1429 0.929 1_565 S
H1482 C1434 0.929 . S
H1483 C1435 0.930 . S
H1484 C1442 0.864 1_565 S
H1485 C1443 0.930 . S
H1486 C1444 0.930 . S
H1487 C1445 0.930 . S
H1488 C1447 0.929 . S
H1489 C1448 0.930 . S
H1490 C1449 0.930 . S
H1491 C1450 0.930 . S
H1492 C1454 0.929 . S
H1493 C1456 0.930 . S
H1494 C1462 0.929 . S
H1495 C1463 0.930 . S
Li1496 N1513 1.990 . S
Li1496 O1556 1.956 . S
Li1496 O1557 1.970 . S
Li1496 O1558 1.961 . S
Li1497 N1521 1.990 . S
Li1497 O1556 1.970 . S
Li1497 O1557 1.956 . S
Li1497 O1559 1.961 . S
Li1498 N1543 1.990 1_655 S
Li1498 O1556 1.961 . S
Li1498 O1558 1.956 . S
Li1498 O1559 1.970 . S
Li1499 N1549 1.990 . S
Li1499 O1557 1.961 . S
Li1499 O1558 1.970 . S
Li1499 O1559 1.956 . S
C1500 C1502 1.348 . S
C1500 C1503 1.356 . S
C1500 O1556 1.325 1_455 S
N1501 C1504 1.314 . S
N1501 C1505 1.279 . S
C1502 C1500 1.348 . S
C1502 C1504 1.353 . S
C1502 H1560 0.929 1_455 S
C1503 C1500 1.356 . S
C1503 C1505 1.358 . S
C1503 H1561 0.930 . S
C1504 N1501 1.314 . S
C1504 C1502 1.353 . S
C1504 H1562 0.930 . S
C1505 N1501 1.279 . S
C1505 C1503 1.358 . S
C1505 H1563 0.930 . S
C1506 C1509 1.348 . S
C1506 C1510 1.356 . S
C1506 O1557 1.325 . S
C1507 N1508 1.279 . S
C1507 C1510 1.358 . S
C1507 H1564 0.930 . S
N1508 C1507 1.279 . S
N1508 C1511 1.314 . S
C1509 C1506 1.348 . S
C1509 C1511 1.353 . S
C1509 H1565 0.929 . S
C1510 C1506 1.356 . S
C1510 C1507 1.358 . S
C1510 H1566 0.930 . S
C1511 N1508 1.314 . S
C1511 C1509 1.353 . S
C1511 H1567 0.930 . S
C1512 N1513 1.314 . S
C1512 C1517 1.353 . S
C1512 H1518 0.930 . S
N1513 Li1496 1.990 . S
N1513 C1512 1.314 . S
N1513 C1515 1.279 . S
C1514 C1515 1.358 . S
C1514 C1516 1.356 . S
C1514 H1568 0.930 . S
C1515 N1513 1.279 . S
C1515 C1514 1.358 . S
C1515 H1519 0.930 . S
C1516 C1514 1.356 . S
C1516 C1517 1.348 . S
C1517 C1512 1.353 . S
C1517 C1516 1.348 . S
C1517 H1569 0.929 . S
H1518 C1512 0.930 . S
H1519 C1515 0.930 . S
C1520 N1521 1.314 . S
C1520 C1522 1.353 . S
C1520 H1526 0.930 . S
N1521 Li1497 1.990 . S
N1521 C1520 1.314 . S
N1521 C1524 1.279 . S
C1522 C1520 1.353 . S
C1522 C1525 1.348 . S
C1522 H1570 0.922 . S
C1523 C1524 1.358 . S
C1523 C1525 1.356 . S
C1523 H1571 0.930 . S
C1524 N1521 1.279 . S
C1524 C1523 1.358 . S
C1524 H1527 0.930 . S
C1525 C1522 1.348 . S
C1525 C1523 1.356 . S
H1526 C1520 0.930 . S
H1527 C1524 0.930 . S
C1528 C1530 1.348 . S
C1528 C1531 1.356 . S
C1528 O1558 1.325 . S
N1529 C1532 1.314 . S
N1529 C1533 1.279 . S
C1530 C1528 1.348 . S
C1530 C1532 1.353 . S
C1530 H1572 0.929 . S
C1531 C1528 1.356 . S
C1531 C1533 1.358 . S
C1531 H1573 0.930 . S
C1532 N1529 1.314 . S
C1532 C1530 1.353 . S
C1532 H1574 0.930 . S
C1533 N1529 1.279 . S
C1533 C1531 1.358 . S
C1533 H1575 0.930 . S
C1534 C1535 1.348 . S
C1534 C1536 1.356 . S
C1534 O1559 1.325 . S
C1535 C1534 1.348 . S
C1535 C1537 1.374 . S
C1535 H1576 0.929 1_655 S
C1536 C1534 1.356 . S
C1536 C1538 1.358 . S
C1536 H1577 0.930 . S
C1537 C1535 1.374 . S
C1537 N1539 1.312 . S
C1537 H1578 0.910 1_655 S
C1538 C1536 1.358 . S
C1538 N1539 1.279 . S
C1538 H1579 0.930 . S
N1539 C1537 1.312 . S
N1539 C1538 1.279 . S
C1540 C1542 1.353 . S
C1540 N1543 1.314 . S
C1540 H1546 0.930 . S
C1541 N1543 1.279 . S
C1541 C1544 1.358 . S
C1541 H1547 0.930 . S
C1542 C1540 1.353 . S
C1542 C1545 1.348 . S
C1542 H1580 0.929 . S
N1543 Li1498 1.990 1_455 S
N1543 C1540 1.314 . S
N1543 C1541 1.279 . S
C1544 C1541 1.358 . S
C1544 C1545 1.356 . S
C1544 H1581 0.930 . S
C1545 C1542 1.348 . S
C1545 C1544 1.356 . S
H1546 C1540 0.930 . S
H1547 C1541 0.930 . S
C1548 N1549 1.314 . S
C1548 C1550 1.353 . S
C1548 H1554 0.930 . S
N1549 Li1499 1.990 . S
N1549 C1548 1.314 . S
N1549 C1552 1.279 . S
C1550 C1548 1.353 . S
C1550 C1553 1.348 . S
C1550 H1582 0.929 . S
C1551 C1552 1.358 . S
C1551 C1553 1.356 . S
C1551 H1583 0.930 . S
C1552 N1549 1.279 . S
C1552 C1551 1.358 . S
C1552 H1555 0.930 . S
C1553 C1550 1.348 . S
C1553 C1551 1.356 . S
H1554 C1548 0.930 . S
H1555 C1552 0.930 . S
O1556 Li1496 1.956 . S
O1556 Li1497 1.970 . S
O1556 Li1498 1.961 . S
O1556 C1500 1.325 1_655 S
O1557 Li1496 1.970 . S
O1557 Li1497 1.956 . S
O1557 Li1499 1.961 . S
O1557 C1506 1.325 . S
O1558 Li1496 1.961 . S
O1558 Li1498 1.956 . S
O1558 Li1499 1.970 . S
O1558 C1528 1.325 . S
O1559 Li1497 1.961 . S
O1559 Li1498 1.970 . S
O1559 Li1499 1.956 . S
O1559 C1534 1.325 . S
H1560 C1502 0.929 1_655 S
H1561 C1503 0.930 . S
H1562 C1504 0.930 . S
H1563 C1505 0.930 . S
H1564 C1507 0.930 . S
H1565 C1509 0.929 . S
H1566 C1510 0.930 . S
H1567 C1511 0.930 . S
H1568 C1514 0.930 . S
H1569 C1517 0.929 . S
H1570 C1522 0.922 . S
H1571 C1523 0.930 . S
H1572 C1530 0.929 . S
H1573 C1531 0.930 . S
H1574 C1532 0.930 . S
H1575 C1533 0.930 . S
H1576 C1535 0.929 1_455 S
H1577 C1536 0.930 . S
H1578 C1537 0.910 1_455 S
H1579 C1538 0.930 . S
H1580 C1542 0.929 . S
H1581 C1544 0.930 . S
H1582 C1550 0.929 . S
H1583 C1551 0.930 . S
C1584 C1585 1.560 . S
C1584 H1645 0.959 . S
C1584 H1646 0.959 . S
C1584 H1647 0.960 . S
C1585 C1584 1.560 . S
C1585 O1640 1.426 . S
C1585 H1644 0.980 . S
C1586 C1587 1.407 . S
C1586 C1591 1.418 . S
C1586 O1640 1.334 . S
C1587 C1586 1.407 . S
C1587 C1588 1.360 . S
C1587 H1648 0.929 . S
C1588 C1587 1.360 . S
C1588 C1589 1.401 . S
C1588 C1592 1.527 . S
C1589 C1588 1.401 . S
C1589 C1590 1.405 . S
C1589 C1622 1.587 . S
C1590 C1589 1.405 . S
C1590 C1591 1.332 . S
C1590 C1593 1.496 . S
C1591 C1586 1.418 . S
C1591 C1590 1.332 . S
C1591 H1649 0.929 . S
C1592 C1588 1.527 . S
C1592 H1650 0.959 . S
C1592 H1651 0.961 . S
C1592 H1652 0.961 . S
C1593 C1590 1.496 . S
C1593 H1653 0.960 . S
C1593 H1654 0.960 . S
C1593 H1655 0.961 . S
C1594 C1595 1.517 . S
C1594 H1657 0.961 . S
C1594 H1658 0.960 . S
C1594 H1659 0.959 . S
C1595 C1594 1.517 . S
C1595 O1643 1.468 . S
C1595 H1656 0.980 . S
C1596 C1597 1.349 . S
C1596 C1601 1.367 . S
C1596 O1643 1.408 . S
C1597 C1596 1.349 . S
C1597 C1598 1.407 . S
C1597 H1660 0.930 . S
C1598 C1597 1.407 . S
C1598 C1599 1.449 . S
C1598 C1602 1.535 . S
C1599 C1598 1.449 . S
C1599 C1600 1.384 . S
C1599 C1624 1.553 . S
C1600 C1599 1.384 . S
C1600 C1601 1.364 . S
C1600 C1603 1.450 . S
C1601 C1596 1.367 . S
C1601 C1600 1.364 . S
C1601 H1661 0.931 . S
C1602 C1598 1.535 . S
C1602 H1662 0.959 . S
C1602 H1663 0.961 . S
C1602 H1664 0.959 . S
C1603 C1600 1.450 . S
C1603 H1665 0.960 . S
C1603 H1666 0.960 . S
C1603 H1667 0.960 . S
C1604 C1605 1.309 . S
C1604 C1609 1.304 . S
C1604 O1642 1.435 . S
C1605 C1604 1.309 . S
C1605 C1606 1.476 . S
C1605 H1669 0.930 . S
C1606 C1605 1.476 . S
C1606 C1607 1.400 . S
C1606 C1610 1.567 . S
C1607 C1606 1.400 . S
C1607 C1608 1.373 . S
C1607 C1629 1.432 . S
C1608 C1607 1.373 . S
C1608 C1609 1.339 . S
C1608 C1611 1.530 . S
C1609 C1604 1.304 . S
C1609 C1608 1.339 . S
C1609 H1670 0.930 . S
C1610 C1606 1.567 . S
C1610 H1671 0.961 . S
C1610 H1672 0.960 . S
C1610 H1673 0.958 . S
C1611 C1608 1.530 . S
C1611 H1674 0.961 . S
C1611 H1675 0.960 . S
C1611 H1676 0.960 . S
C1612 C1613 1.530 . S
C1612 H1678 0.961 . S
C1612 H1679 0.961 . S
C1612 H1680 0.959 . S
C1613 C1612 1.530 . S
C1613 O1641 1.412 . S
C1613 H1677 0.980 . S
C1614 C1615 1.288 . S
C1614 C1619 1.377 . S
C1614 O1641 1.393 . S
C1615 C1614 1.288 . S
C1615 C1616 1.369 . S
C1615 H1681 0.932 . S
C1616 C1615 1.369 . S
C1616 C1617 1.398 . S
C1616 C1620 1.527 . S
C1617 C1616 1.398 . S
C1617 C1618 1.380 . S
C1617 C1631 1.497 . S
C1618 C1617 1.380 . S
C1618 C1619 1.383 . S
C1618 C1621 1.603 . S
C1619 C1614 1.377 . S
C1619 C1618 1.383 . S
C1619 H1682 0.929 . S
C1620 C1616 1.527 . S
C1620 H1683 0.961 . S
C1620 H1684 0.959 . S
C1620 H1685 0.959 . S
C1621 C1618 1.603 . S
C1621 H1686 0.960 . S
C1621 H1687 0.962 . S
C1621 H1688 0.961 . S
C1622 C1589 1.587 . S
C1622 C1623 1.360 . S
C1622 C1635 1.412 . S
C1623 C1622 1.360 . S
C1623 C1624 1.365 . S
C1623 H1689 0.929 . S
C1624 C1599 1.553 . S
C1624 C1623 1.365 . S
C1624 C1625 1.404 . S
C1625 C1624 1.404 . S
C1625 C1626 1.395 . S
C1625 C1636 1.451 . S
C1626 C1625 1.395 . S
C1626 C1627 1.322 . S
C1626 H1690 0.930 . S
C1627 C1626 1.322 . S
C1627 C1628 1.459 . S
C1627 H1691 0.929 . S
C1628 C1627 1.459 . S
C1628 C1629 1.445 . S
C1628 C1637 1.395 . S
C1629 C1607 1.432 . S
C1629 C1628 1.445 . S
C1629 C1630 1.370 . S
C1630 C1629 1.370 . S
C1630 C1631 1.438 . S
C1630 H1692 0.930 . S
C1631 C1617 1.497 . S
C1631 C1630 1.438 . S
C1631 C1632 1.360 . S
C1632 C1631 1.360 . S
C1632 C1633 1.401 . S
C1632 C1637 1.446 . S
C1633 C1632 1.401 . S
C1633 C1634 1.347 . S
C1633 H1693 0.929 . S
C1634 C1633 1.347 . S
C1634 C1635 1.455 . S
C1634 H1694 0.930 . S
C1635 C1622 1.412 . S
C1635 C1634 1.455 . S
C1635 C1636 1.331 . S
C1636 C1625 1.451 . S
C1636 C1635 1.331 . S
C1636 C1637 1.497 . S
C1637 C1628 1.395 . S
C1637 C1632 1.446 . S
C1637 C1636 1.497 . S
C1638 C1639 1.582 . S
C1638 H1695 0.962 . S
C1638 H1696 0.959 . S
C1638 H1697 0.958 . S
C1639 C1638 1.582 . S
C1639 O1642 1.458 . S
C1639 H1668 0.980 . S
O1640 C1585 1.426 . S
O1640 C1586 1.334 . S
O1641 C1613 1.412 . S
O1641 C1614 1.393 . S
O1642 C1604 1.435 . S
O1642 C1639 1.458 . S
O1643 C1595 1.468 . S
O1643 C1596 1.408 . S
H1644 C1585 0.980 . S
H1645 C1584 0.959 . S
H1646 C1584 0.959 . S
H1647 C1584 0.960 . S
H1648 C1587 0.929 . S
H1649 C1591 0.929 . S
H1650 C1592 0.959 . S
H1651 C1592 0.961 . S
H1652 C1592 0.961 . S
H1653 C1593 0.960 . S
H1654 C1593 0.960 . S
H1655 C1593 0.961 . S
H1656 C1595 0.980 . S
H1657 C1594 0.961 . S
H1658 C1594 0.960 . S
H1659 C1594 0.959 . S
H1660 C1597 0.930 . S
H1661 C1601 0.931 . S
H1662 C1602 0.959 . S
H1663 C1602 0.961 . S
H1664 C1602 0.959 . S
H1665 C1603 0.960 . S
H1666 C1603 0.960 . S
H1667 C1603 0.960 . S
H1668 C1639 0.980 . S
H1669 C1605 0.930 . S
H1670 C1609 0.930 . S
H1671 C1610 0.961 . S
H1672 C1610 0.960 . S
H1673 C1610 0.958 . S
H1674 C1611 0.961 . S
H1675 C1611 0.960 . S
H1676 C1611 0.960 . S
H1677 C1613 0.980 . S
H1678 C1612 0.961 . S
H1679 C1612 0.961 . S
H1680 C1612 0.959 . S
H1681 C1615 0.932 . S
H1682 C1619 0.929 . S
H1683 C1620 0.961 . S
H1684 C1620 0.959 . S
H1685 C1620 0.959 . S
H1686 C1621 0.960 . S
H1687 C1621 0.962 . S
H1688 C1621 0.961 . S
H1689 C1623 0.929 . S
H1690 C1626 0.930 . S
H1691 C1627 0.929 . S
H1692 C1630 0.930 . S
H1693 C1633 0.929 . S
H1694 C1634 0.930 . S
H1695 C1638 0.962 . S
H1696 C1638 0.959 . S
H1697 C1638 0.958 . S
C1698 C1699 1.560 . S
C1698 H1759 0.959 . S
C1698 H1760 0.959 . S
C1698 H1761 0.960 . S
C1699 C1698 1.560 . S
C1699 O1754 1.426 . S
C1699 H1758 0.980 . S
C1700 C1701 1.407 . S
C1700 C1705 1.418 . S
C1700 O1754 1.334 . S
C1701 C1700 1.407 . S
C1701 C1702 1.360 . S
C1701 H1762 0.929 . S
C1702 C1701 1.360 . S
C1702 C1703 1.401 . S
C1702 C1706 1.527 . S
C1703 C1702 1.401 . S
C1703 C1704 1.405 . S
C1703 C1736 1.587 . S
C1704 C1703 1.405 . S
C1704 C1705 1.332 . S
C1704 C1707 1.496 . S
C1705 C1700 1.418 . S
C1705 C1704 1.332 . S
C1705 H1763 0.929 . S
C1706 C1702 1.527 . S
C1706 H1764 0.959 . S
C1706 H1765 0.961 . S
C1706 H1766 0.961 . S
C1707 C1704 1.496 . S
C1707 H1767 0.960 . S
C1707 H1768 0.960 . S
C1707 H1769 0.961 . S
C1708 C1709 1.517 . S
C1708 H1771 0.961 . S
C1708 H1772 0.960 . S
C1708 H1773 0.959 . S
C1709 C1708 1.517 . S
C1709 O1757 1.468 . S
C1709 H1770 0.980 . S
C1710 C1711 1.349 . S
C1710 C1715 1.367 . S
C1710 O1757 1.408 . S
C1711 C1710 1.349 . S
C1711 C1712 1.407 . S
C1711 H1774 0.930 . S
C1712 C1711 1.407 . S
C1712 C1713 1.449 . S
C1712 C1716 1.535 . S
C1713 C1712 1.449 . S
C1713 C1714 1.384 . S
C1713 C1738 1.553 . S
C1714 C1713 1.384 . S
C1714 C1715 1.364 . S
C1714 C1717 1.450 . S
C1715 C1710 1.367 . S
C1715 C1714 1.364 . S
C1715 H1775 0.931 . S
C1716 C1712 1.535 . S
C1716 H1776 0.959 . S
C1716 H1777 0.961 . S
C1716 H1778 0.959 . S
C1717 C1714 1.450 . S
C1717 H1779 0.960 . S
C1717 H1780 0.960 . S
C1717 H1781 0.960 . S
C1718 C1719 1.309 . S
C1718 C1723 1.304 . S
C1718 O1756 1.435 . S
C1719 C1718 1.309 . S
C1719 C1720 1.476 . S
C1719 H1783 0.930 . S
C1720 C1719 1.476 . S
C1720 C1721 1.400 . S
C1720 C1724 1.567 . S
C1721 C1720 1.400 . S
C1721 C1722 1.373 . S
C1721 C1743 1.432 . S
C1722 C1721 1.373 . S
C1722 C1723 1.339 . S
C1722 C1725 1.530 . S
C1723 C1718 1.304 . S
C1723 C1722 1.339 . S
C1723 H1784 0.930 . S
C1724 C1720 1.567 . S
C1724 H1785 0.961 . S
C1724 H1786 0.960 . S
C1724 H1787 0.958 . S
C1725 C1722 1.530 . S
C1725 H1788 0.961 . S
C1725 H1789 0.960 . S
C1725 H1790 0.960 . S
C1726 C1727 1.530 . S
C1726 H1792 0.961 . S
C1726 H1793 0.961 . S
C1726 H1794 0.959 . S
C1727 C1726 1.530 . S
C1727 O1755 1.412 . S
C1727 H1791 0.980 . S
C1728 C1729 1.288 . S
C1728 C1733 1.377 . S
C1728 O1755 1.393 . S
C1729 C1728 1.288 . S
C1729 C1730 1.369 . S
C1729 H1795 0.932 . S
C1730 C1729 1.369 . S
C1730 C1731 1.398 . S
C1730 C1734 1.527 . S
C1731 C1730 1.398 . S
C1731 C1732 1.380 . S
C1731 C1745 1.497 . S
C1732 C1731 1.380 . S
C1732 C1733 1.383 . S
C1732 C1735 1.603 . S
C1733 C1728 1.377 . S
C1733 C1732 1.383 . S
C1733 H1796 0.929 . S
C1734 C1730 1.527 . S
C1734 H1797 0.961 . S
C1734 H1798 0.959 . S
C1734 H1799 0.959 . S
C1735 C1732 1.603 . S
C1735 H1800 0.960 . S
C1735 H1801 0.962 . S
C1735 H1802 0.961 . S
C1736 C1703 1.587 . S
C1736 C1737 1.360 . S
C1736 C1749 1.412 . S
C1737 C1736 1.360 . S
C1737 C1738 1.365 . S
C1737 H1803 0.929 . S
C1738 C1713 1.553 . S
C1738 C1737 1.365 . S
C1738 C1739 1.404 . S
C1739 C1738 1.404 . S
C1739 C1740 1.395 . S
C1739 C1750 1.451 . S
C1740 C1739 1.395 . S
C1740 C1741 1.322 . S
C1740 H1804 0.930 . S
C1741 C1740 1.322 . S
C1741 C1742 1.459 . S
C1741 H1805 0.929 . S
C1742 C1741 1.459 . S
C1742 C1743 1.445 . S
C1742 C1751 1.395 . S
C1743 C1721 1.432 . S
C1743 C1742 1.445 . S
C1743 C1744 1.370 . S
C1744 C1743 1.370 . S
C1744 C1745 1.438 . S
C1744 H1806 0.930 . S
C1745 C1731 1.497 . S
C1745 C1744 1.438 . S
C1745 C1746 1.360 . S
C1746 C1745 1.360 . S
C1746 C1747 1.401 . S
C1746 C1751 1.446 . S
C1747 C1746 1.401 . S
C1747 C1748 1.347 . S
C1747 H1807 0.929 . S
C1748 C1747 1.347 . S
C1748 C1749 1.455 . S
C1748 H1808 0.930 . S
C1749 C1736 1.412 . S
C1749 C1748 1.455 . S
C1749 C1750 1.331 . S
C1750 C1739 1.451 . S
C1750 C1749 1.331 . S
C1750 C1751 1.497 . S
C1751 C1742 1.395 . S
C1751 C1746 1.446 . S
C1751 C1750 1.497 . S
C1752 C1753 1.582 . S
C1752 H1809 0.962 . S
C1752 H1810 0.959 . S
C1752 H1811 0.958 . S
C1753 C1752 1.582 . S
C1753 O1756 1.458 . S
C1753 H1782 0.980 . S
O1754 C1699 1.426 . S
O1754 C1700 1.334 . S
O1755 C1727 1.412 . S
O1755 C1728 1.393 . S
O1756 C1718 1.435 . S
O1756 C1753 1.458 . S
O1757 C1709 1.468 . S
O1757 C1710 1.408 . S
H1758 C1699 0.980 . S
H1759 C1698 0.959 . S
H1760 C1698 0.959 . S
H1761 C1698 0.960 . S
H1762 C1701 0.929 . S
H1763 C1705 0.929 . S
H1764 C1706 0.959 . S
H1765 C1706 0.961 . S
H1766 C1706 0.961 . S
H1767 C1707 0.960 . S
H1768 C1707 0.960 . S
H1769 C1707 0.961 . S
H1770 C1709 0.980 . S
H1771 C1708 0.961 . S
H1772 C1708 0.960 . S
H1773 C1708 0.959 . S
H1774 C1711 0.930 . S
H1775 C1715 0.931 . S
H1776 C1716 0.959 . S
H1777 C1716 0.961 . S
H1778 C1716 0.959 . S
H1779 C1717 0.960 . S
H1780 C1717 0.960 . S
H1781 C1717 0.960 . S
H1782 C1753 0.980 . S
H1783 C1719 0.930 . S
H1784 C1723 0.930 . S
H1785 C1724 0.961 . S
H1786 C1724 0.960 . S
H1787 C1724 0.958 . S
H1788 C1725 0.961 . S
H1789 C1725 0.960 . S
H1790 C1725 0.960 . S
H1791 C1727 0.980 . S
H1792 C1726 0.961 . S
H1793 C1726 0.961 . S
H1794 C1726 0.959 . S
H1795 C1729 0.932 . S
H1796 C1733 0.929 . S
H1797 C1734 0.961 . S
H1798 C1734 0.959 . S
H1799 C1734 0.959 . S
H1800 C1735 0.960 . S
H1801 C1735 0.962 . S
H1802 C1735 0.961 . S
H1803 C1737 0.929 . S
H1804 C1740 0.930 . S
H1805 C1741 0.929 . S
H1806 C1744 0.930 . S
H1807 C1747 0.929 . S
H1808 C1748 0.930 . S
H1809 C1752 0.962 . S
H1810 C1752 0.959 . S
H1811 C1752 0.958 . S
C1812 C1813 1.560 . S
C1812 H1873 0.959 . S
C1812 H1874 0.959 . S
C1812 H1875 0.960 . S
C1813 C1812 1.560 . S
C1813 O1868 1.426 . S
C1813 H1872 0.980 . S
C1814 C1815 1.407 . S
C1814 C1819 1.418 . S
C1814 O1868 1.334 . S
C1815 C1814 1.407 . S
C1815 C1816 1.360 . S
C1815 H1876 0.929 . S
C1816 C1815 1.360 . S
C1816 C1817 1.401 . S
C1816 C1820 1.527 . S
C1817 C1816 1.401 . S
C1817 C1818 1.405 . S
C1817 C1850 1.587 . S
C1818 C1817 1.405 . S
C1818 C1819 1.332 . S
C1818 C1821 1.496 . S
C1819 C1814 1.418 . S
C1819 C1818 1.332 . S
C1819 H1877 0.929 . S
C1820 C1816 1.527 . S
C1820 H1878 0.959 . S
C1820 H1879 0.961 . S
C1820 H1880 0.961 . S
C1821 C1818 1.496 . S
C1821 H1881 0.960 . S
C1821 H1882 0.960 . S
C1821 H1883 0.961 . S
C1822 C1823 1.517 . S
C1822 H1885 0.961 . S
C1822 H1886 0.960 . S
C1822 H1887 0.959 . S
C1823 C1822 1.517 . S
C1823 O1871 1.468 . S
C1823 H1884 0.980 . S
C1824 C1825 1.349 . S
C1824 C1829 1.367 . S
C1824 O1871 1.408 . S
C1825 C1824 1.349 . S
C1825 C1826 1.407 . S
C1825 H1888 0.930 . S
C1826 C1825 1.407 . S
C1826 C1827 1.449 . S
C1826 C1830 1.535 . S
C1827 C1826 1.449 . S
C1827 C1828 1.384 . S
C1827 C1852 1.553 . S
C1828 C1827 1.384 . S
C1828 C1829 1.364 . S
C1828 C1831 1.450 . S
C1829 C1824 1.367 . S
C1829 C1828 1.364 . S
C1829 H1889 0.931 . S
C1830 C1826 1.535 . S
C1830 H1890 0.959 . S
C1830 H1891 0.961 . S
C1830 H1892 0.959 . S
C1831 C1828 1.450 . S
C1831 H1893 0.960 . S
C1831 H1894 0.960 . S
C1831 H1895 0.960 . S
C1832 C1833 1.309 . S
C1832 C1837 1.304 . S
C1832 O1870 1.435 . S
C1833 C1832 1.309 . S
C1833 C1834 1.476 . S
C1833 H1897 0.930 . S
C1834 C1833 1.476 . S
C1834 C1835 1.400 . S
C1834 C1838 1.567 . S
C1835 C1834 1.400 . S
C1835 C1836 1.373 . S
C1835 C1857 1.432 . S
C1836 C1835 1.373 . S
C1836 C1837 1.339 . S
C1836 C1839 1.530 . S
C1837 C1832 1.304 . S
C1837 C1836 1.339 . S
C1837 H1898 0.930 . S
C1838 C1834 1.567 . S
C1838 H1899 0.961 . S
C1838 H1900 0.960 . S
C1838 H1901 0.958 . S
C1839 C1836 1.530 . S
C1839 H1902 0.961 . S
C1839 H1903 0.960 . S
C1839 H1904 0.960 . S
C1840 C1841 1.530 . S
C1840 H1906 0.961 . S
C1840 H1907 0.961 . S
C1840 H1908 0.959 . S
C1841 C1840 1.530 . S
C1841 O1869 1.412 . S
C1841 H1905 0.980 . S
C1842 C1843 1.288 . S
C1842 C1847 1.377 . S
C1842 O1869 1.393 . S
C1843 C1842 1.288 . S
C1843 C1844 1.369 . S
C1843 H1909 0.932 . S
C1844 C1843 1.369 . S
C1844 C1845 1.398 . S
C1844 C1848 1.527 . S
C1845 C1844 1.398 . S
C1845 C1846 1.380 . S
C1845 C1859 1.497 . S
C1846 C1845 1.380 . S
C1846 C1847 1.383 . S
C1846 C1849 1.603 . S
C1847 C1842 1.377 . S
C1847 C1846 1.383 . S
C1847 H1910 0.929 . S
C1848 C1844 1.527 . S
C1848 H1911 0.961 . S
C1848 H1912 0.959 . S
C1848 H1913 0.959 . S
C1849 C1846 1.603 . S
C1849 H1914 0.960 . S
C1849 H1915 0.962 . S
C1849 H1916 0.961 . S
C1850 C1817 1.587 . S
C1850 C1851 1.360 . S
C1850 C1863 1.412 . S
C1851 C1850 1.360 . S
C1851 C1852 1.365 . S
C1851 H1917 0.929 . S
C1852 C1827 1.553 . S
C1852 C1851 1.365 . S
C1852 C1853 1.404 . S
C1853 C1852 1.404 . S
C1853 C1854 1.395 . S
C1853 C1864 1.451 . S
C1854 C1853 1.395 . S
C1854 C1855 1.322 . S
C1854 H1918 0.930 . S
C1855 C1854 1.322 . S
C1855 C1856 1.459 . S
C1855 H1919 0.929 . S
C1856 C1855 1.459 . S
C1856 C1857 1.445 . S
C1856 C1865 1.395 . S
C1857 C1835 1.432 . S
C1857 C1856 1.445 . S
C1857 C1858 1.370 . S
C1858 C1857 1.370 . S
C1858 C1859 1.438 . S
C1858 H1920 0.930 . S
C1859 C1845 1.497 . S
C1859 C1858 1.438 . S
C1859 C1860 1.360 . S
C1860 C1859 1.360 . S
C1860 C1861 1.401 . S
C1860 C1865 1.446 . S
C1861 C1860 1.401 . S
C1861 C1862 1.347 . S
C1861 H1921 0.929 . S
C1862 C1861 1.347 . S
C1862 C1863 1.455 . S
C1862 H1922 0.930 . S
C1863 C1850 1.412 . S
C1863 C1862 1.455 . S
C1863 C1864 1.331 . S
C1864 C1853 1.451 . S
C1864 C1863 1.331 . S
C1864 C1865 1.497 . S
C1865 C1856 1.395 . S
C1865 C1860 1.446 . S
C1865 C1864 1.497 . S
C1866 C1867 1.582 . S
C1866 H1923 0.962 . S
C1866 H1924 0.959 . S
C1866 H1925 0.958 . S
C1867 C1866 1.582 . S
C1867 O1870 1.458 . S
C1867 H1896 0.980 . S
O1868 C1813 1.426 . S
O1868 C1814 1.334 . S
O1869 C1841 1.412 . S
O1869 C1842 1.393 . S
O1870 C1832 1.435 . S
O1870 C1867 1.458 . S
O1871 C1823 1.468 . S
O1871 C1824 1.408 . S
H1872 C1813 0.980 . S
H1873 C1812 0.959 . S
H1874 C1812 0.959 . S
H1875 C1812 0.960 . S
H1876 C1815 0.929 . S
H1877 C1819 0.929 . S
H1878 C1820 0.959 . S
H1879 C1820 0.961 . S
H1880 C1820 0.961 . S
H1881 C1821 0.960 . S
H1882 C1821 0.960 . S
H1883 C1821 0.961 . S
H1884 C1823 0.980 . S
H1885 C1822 0.961 . S
H1886 C1822 0.960 . S
H1887 C1822 0.959 . S
H1888 C1825 0.930 . S
H1889 C1829 0.931 . S
H1890 C1830 0.959 . S
H1891 C1830 0.961 . S
H1892 C1830 0.959 . S
H1893 C1831 0.960 . S
H1894 C1831 0.960 . S
H1895 C1831 0.960 . S
H1896 C1867 0.980 . S
H1897 C1833 0.930 . S
H1898 C1837 0.930 . S
H1899 C1838 0.961 . S
H1900 C1838 0.960 . S
H1901 C1838 0.958 . S
H1902 C1839 0.961 . S
H1903 C1839 0.960 . S
H1904 C1839 0.960 . S
H1905 C1841 0.980 . S
H1906 C1840 0.961 . S
H1907 C1840 0.961 . S
H1908 C1840 0.959 . S
H1909 C1843 0.932 . S
H1910 C1847 0.929 . S
H1911 C1848 0.961 . S
H1912 C1848 0.959 . S
H1913 C1848 0.959 . S
H1914 C1849 0.960 . S
H1915 C1849 0.962 . S
H1916 C1849 0.961 . S
H1917 C1851 0.929 . S
H1918 C1854 0.930 . S
H1919 C1855 0.929 . S
H1920 C1858 0.930 . S
H1921 C1861 0.929 . S
H1922 C1862 0.930 . S
H1923 C1866 0.962 . S
H1924 C1866 0.959 . S
H1925 C1866 0.958 . S
C1926 C1927 1.560 . S
C1926 H1987 0.959 . S
C1926 H1988 0.959 . S
C1926 H1989 0.960 . S
C1927 C1926 1.560 . S
C1927 O1982 1.426 . S
C1927 H1986 0.980 . S
C1928 C1929 1.407 . S
C1928 C1933 1.418 . S
C1928 O1982 1.334 . S
C1929 C1928 1.407 . S
C1929 C1930 1.360 . S
C1929 H1990 0.929 . S
C1930 C1929 1.360 . S
C1930 C1931 1.401 . S
C1930 C1934 1.527 . S
C1931 C1930 1.401 . S
C1931 C1932 1.405 . S
C1931 C1964 1.587 . S
C1932 C1931 1.405 . S
C1932 C1933 1.332 . S
C1932 C1935 1.496 . S
C1933 C1928 1.418 . S
C1933 C1932 1.332 . S
C1933 H1991 0.929 . S
C1934 C1930 1.527 . S
C1934 H1992 0.959 . S
C1934 H1993 0.961 . S
C1934 H1994 0.961 . S
C1935 C1932 1.496 . S
C1935 H1995 0.960 . S
C1935 H1996 0.960 . S
C1935 H1997 0.961 . S
C1936 C1937 1.517 . S
C1936 H1999 0.961 . S
C1936 H2000 0.960 . S
C1936 H2001 0.959 . S
C1937 C1936 1.517 . S
C1937 O1985 1.468 . S
C1937 H1998 0.980 . S
C1938 C1939 1.349 . S
C1938 C1943 1.367 . S
C1938 O1985 1.408 . S
C1939 C1938 1.349 . S
C1939 C1940 1.407 . S
C1939 H2002 0.930 . S
C1940 C1939 1.407 . S
C1940 C1941 1.449 . S
C1940 C1944 1.535 . S
C1941 C1940 1.449 . S
C1941 C1942 1.384 . S
C1941 C1966 1.553 . S
C1942 C1941 1.384 . S
C1942 C1943 1.364 . S
C1942 C1945 1.450 . S
C1943 C1938 1.367 . S
C1943 C1942 1.364 . S
C1943 H2003 0.931 . S
C1944 C1940 1.535 . S
C1944 H2004 0.959 . S
C1944 H2005 0.961 . S
C1944 H2006 0.959 . S
C1945 C1942 1.450 . S
C1945 H2007 0.960 . S
C1945 H2008 0.960 . S
C1945 H2009 0.960 . S
C1946 C1947 1.309 . S
C1946 C1951 1.304 . S
C1946 O1984 1.435 . S
C1947 C1946 1.309 . S
C1947 C1948 1.476 . S
C1947 H2011 0.930 . S
C1948 C1947 1.476 . S
C1948 C1949 1.400 . S
C1948 C1952 1.567 . S
C1949 C1948 1.400 . S
C1949 C1950 1.373 . S
C1949 C1971 1.432 . S
C1950 C1949 1.373 . S
C1950 C1951 1.339 . S
C1950 C1953 1.530 . S
C1951 C1946 1.304 . S
C1951 C1950 1.339 . S
C1951 H2012 0.930 . S
C1952 C1948 1.567 . S
C1952 H2013 0.961 . S
C1952 H2014 0.960 . S
C1952 H2015 0.958 . S
C1953 C1950 1.530 . S
C1953 H2016 0.961 . S
C1953 H2017 0.960 . S
C1953 H2018 0.960 . S
C1954 C1955 1.530 . S
C1954 H2020 0.961 . S
C1954 H2021 0.961 . S
C1954 H2022 0.959 . S
C1955 C1954 1.530 . S
C1955 O1983 1.412 . S
C1955 H2019 0.980 . S
C1956 C1957 1.288 . S
C1956 C1961 1.377 . S
C1956 O1983 1.393 . S
C1957 C1956 1.288 . S
C1957 C1958 1.369 . S
C1957 H2023 0.932 . S
C1958 C1957 1.369 . S
C1958 C1959 1.398 . S
C1958 C1962 1.527 . S
C1959 C1958 1.398 . S
C1959 C1960 1.380 . S
C1959 C1973 1.497 . S
C1960 C1959 1.380 . S
C1960 C1961 1.383 . S
C1960 C1963 1.603 . S
C1961 C1956 1.377 . S
C1961 C1960 1.383 . S
C1961 H2024 0.929 . S
C1962 C1958 1.527 . S
C1962 H2025 0.961 . S
C1962 H2026 0.959 . S
C1962 H2027 0.959 . S
C1963 C1960 1.603 . S
C1963 H2028 0.960 . S
C1963 H2029 0.962 . S
C1963 H2030 0.961 . S
C1964 C1931 1.587 . S
C1964 C1965 1.360 . S
C1964 C1977 1.412 . S
C1965 C1964 1.360 . S
C1965 C1966 1.365 . S
C1965 H2031 0.929 . S
C1966 C1941 1.553 . S
C1966 C1965 1.365 . S
C1966 C1967 1.404 . S
C1967 C1966 1.404 . S
C1967 C1968 1.395 . S
C1967 C1978 1.451 . S
C1968 C1967 1.395 . S
C1968 C1969 1.322 . S
C1968 H2032 0.930 . S
C1969 C1968 1.322 . S
C1969 C1970 1.459 . S
C1969 H2033 0.929 . S
C1970 C1969 1.459 . S
C1970 C1971 1.445 . S
C1970 C1979 1.395 . S
C1971 C1949 1.432 . S
C1971 C1970 1.445 . S
C1971 C1972 1.370 . S
C1972 C1971 1.370 . S
C1972 C1973 1.438 . S
C1972 H2034 0.930 . S
C1973 C1959 1.497 . S
C1973 C1972 1.438 . S
C1973 C1974 1.360 . S
C1974 C1973 1.360 . S
C1974 C1975 1.401 . S
C1974 C1979 1.446 . S
C1975 C1974 1.401 . S
C1975 C1976 1.347 . S
C1975 H2035 0.929 . S
C1976 C1975 1.347 . S
C1976 C1977 1.455 . S
C1976 H2036 0.930 . S
C1977 C1964 1.412 . S
C1977 C1976 1.455 . S
C1977 C1978 1.331 . S
C1978 C1967 1.451 . S
C1978 C1977 1.331 . S
C1978 C1979 1.497 . S
C1979 C1970 1.395 . S
C1979 C1974 1.446 . S
C1979 C1978 1.497 . S
C1980 C1981 1.582 . S
C1980 H2037 0.962 . S
C1980 H2038 0.959 . S
C1980 H2039 0.958 . S
C1981 C1980 1.582 . S
C1981 O1984 1.458 . S
C1981 H2010 0.980 . S
O1982 C1927 1.426 . S
O1982 C1928 1.334 . S
O1983 C1955 1.412 . S
O1983 C1956 1.393 . S
O1984 C1946 1.435 . S
O1984 C1981 1.458 . S
O1985 C1937 1.468 . S
O1985 C1938 1.408 . S
H1986 C1927 0.980 . S
H1987 C1926 0.959 . S
H1988 C1926 0.959 . S
H1989 C1926 0.960 . S
H1990 C1929 0.929 . S
H1991 C1933 0.929 . S
H1992 C1934 0.959 . S
H1993 C1934 0.961 . S
H1994 C1934 0.961 . S
H1995 C1935 0.960 . S
H1996 C1935 0.960 . S
H1997 C1935 0.961 . S
H1998 C1937 0.980 . S
H1999 C1936 0.961 . S
H2000 C1936 0.960 . S
H2001 C1936 0.959 . S
H2002 C1939 0.930 . S
H2003 C1943 0.931 . S
H2004 C1944 0.959 . S
H2005 C1944 0.961 . S
H2006 C1944 0.959 . S
H2007 C1945 0.960 . S
H2008 C1945 0.960 . S
H2009 C1945 0.960 . S
H2010 C1981 0.980 . S
H2011 C1947 0.930 . S
H2012 C1951 0.930 . S
H2013 C1952 0.961 . S
H2014 C1952 0.960 . S
H2015 C1952 0.958 . S
H2016 C1953 0.961 . S
H2017 C1953 0.960 . S
H2018 C1953 0.960 . S
H2019 C1955 0.980 . S
H2020 C1954 0.961 . S
H2021 C1954 0.961 . S
H2022 C1954 0.959 . S
H2023 C1957 0.932 . S
H2024 C1961 0.929 . S
H2025 C1962 0.961 . S
H2026 C1962 0.959 . S
H2027 C1962 0.959 . S
H2028 C1963 0.960 . S
H2029 C1963 0.962 . S
H2030 C1963 0.961 . S
H2031 C1965 0.929 . S
H2032 C1968 0.930 . S
H2033 C1969 0.929 . S
H2034 C1972 0.930 . S
H2035 C1975 0.929 . S
H2036 C1976 0.930 . S
H2037 C1980 0.962 . S
H2038 C1980 0.959 . S
H2039 C1980 0.958 . S
C2040 C2041 1.560 . S
C2040 H2101 0.959 . S
C2040 H2102 0.959 . S
C2040 H2103 0.960 . S
C2041 C2040 1.560 . S
C2041 O2096 1.426 . S
C2041 H2100 0.980 . S
C2042 C2043 1.407 . S
C2042 C2047 1.418 . S
C2042 O2096 1.334 . S
C2043 C2042 1.407 . S
C2043 C2044 1.360 . S
C2043 H2104 0.929 . S
C2044 C2043 1.360 . S
C2044 C2045 1.401 . S
C2044 C2048 1.527 . S
C2045 C2044 1.401 . S
C2045 C2046 1.405 . S
C2045 C2078 1.587 . S
C2046 C2045 1.405 . S
C2046 C2047 1.332 . S
C2046 C2049 1.496 . S
C2047 C2042 1.418 . S
C2047 C2046 1.332 . S
C2047 H2105 0.929 . S
C2048 C2044 1.527 . S
C2048 H2106 0.959 . S
C2048 H2107 0.961 . S
C2048 H2108 0.961 . S
C2049 C2046 1.496 . S
C2049 H2109 0.960 . S
C2049 H2110 0.960 . S
C2049 H2111 0.961 . S
C2050 C2051 1.517 . S
C2050 H2113 0.961 . S
C2050 H2114 0.960 . S
C2050 H2115 0.959 . S
C2051 C2050 1.517 . S
C2051 O2099 1.468 . S
C2051 H2112 0.980 . S
C2052 C2053 1.349 . S
C2052 C2057 1.367 . S
C2052 O2099 1.408 . S
C2053 C2052 1.349 . S
C2053 C2054 1.407 . S
C2053 H2116 0.930 . S
C2054 C2053 1.407 . S
C2054 C2055 1.449 . S
C2054 C2058 1.535 . S
C2055 C2054 1.449 . S
C2055 C2056 1.384 . S
C2055 C2080 1.553 . S
C2056 C2055 1.384 . S
C2056 C2057 1.364 . S
C2056 C2059 1.450 . S
C2057 C2052 1.367 . S
C2057 C2056 1.364 . S
C2057 H2117 0.931 . S
C2058 C2054 1.535 . S
C2058 H2118 0.959 . S
C2058 H2119 0.961 . S
C2058 H2120 0.959 . S
C2059 C2056 1.450 . S
C2059 H2121 0.960 . S
C2059 H2122 0.960 . S
C2059 H2123 0.960 . S
C2060 C2061 1.309 . S
C2060 C2065 1.304 . S
C2060 O2098 1.435 . S
C2061 C2060 1.309 . S
C2061 C2062 1.476 . S
C2061 H2125 0.930 . S
C2062 C2061 1.476 . S
C2062 C2063 1.400 . S
C2062 C2066 1.567 . S
C2063 C2062 1.400 . S
C2063 C2064 1.373 . S
C2063 C2085 1.432 . S
C2064 C2063 1.373 . S
C2064 C2065 1.339 . S
C2064 C2067 1.530 . S
C2065 C2060 1.304 . S
C2065 C2064 1.339 . S
C2065 H2126 0.930 . S
C2066 C2062 1.567 . S
C2066 H2127 0.961 . S
C2066 H2128 0.960 . S
C2066 H2129 0.958 . S
C2067 C2064 1.530 . S
C2067 H2130 0.961 . S
C2067 H2131 0.960 . S
C2067 H2132 0.960 . S
C2068 C2069 1.530 . S
C2068 H2134 0.961 . S
C2068 H2135 0.961 . S
C2068 H2136 0.959 . S
C2069 C2068 1.530 . S
C2069 O2097 1.412 . S
C2069 H2133 0.980 . S
C2070 C2071 1.288 . S
C2070 C2075 1.377 . S
C2070 O2097 1.393 . S
C2071 C2070 1.288 . S
C2071 C2072 1.369 . S
C2071 H2137 0.932 . S
C2072 C2071 1.369 . S
C2072 C2073 1.398 . S
C2072 C2076 1.527 . S
C2073 C2072 1.398 . S
C2073 C2074 1.380 . S
C2073 C2087 1.497 . S
C2074 C2073 1.380 . S
C2074 C2075 1.383 . S
C2074 C2077 1.603 . S
C2075 C2070 1.377 . S
C2075 C2074 1.383 . S
C2075 H2138 0.929 . S
C2076 C2072 1.527 . S
C2076 H2139 0.961 . S
C2076 H2140 0.959 . S
C2076 H2141 0.959 . S
C2077 C2074 1.603 . S
C2077 H2142 0.960 . S
C2077 H2143 0.962 . S
C2077 H2144 0.961 . S
C2078 C2045 1.587 . S
C2078 C2079 1.360 . S
C2078 C2091 1.412 . S
C2079 C2078 1.360 . S
C2079 C2080 1.365 . S
C2079 H2145 0.929 . S
C2080 C2055 1.553 . S
C2080 C2079 1.365 . S
C2080 C2081 1.404 . S
C2081 C2080 1.404 . S
C2081 C2082 1.395 . S
C2081 C2092 1.451 . S
C2082 C2081 1.395 . S
C2082 C2083 1.322 . S
C2082 H2146 0.930 . S
C2083 C2082 1.322 . S
C2083 C2084 1.459 . S
C2083 H2147 0.929 . S
C2084 C2083 1.459 . S
C2084 C2085 1.445 . S
C2084 C2093 1.395 . S
C2085 C2063 1.432 . S
C2085 C2084 1.445 . S
C2085 C2086 1.370 . S
C2086 C2085 1.370 . S
C2086 C2087 1.438 . S
C2086 H2148 0.930 . S
C2087 C2073 1.497 . S
C2087 C2086 1.438 . S
C2087 C2088 1.360 . S
C2088 C2087 1.360 . S
C2088 C2089 1.401 . S
C2088 C2093 1.446 . S
C2089 C2088 1.401 . S
C2089 C2090 1.347 . S
C2089 H2149 0.929 . S
C2090 C2089 1.347 . S
C2090 C2091 1.455 . S
C2090 H2150 0.930 . S
C2091 C2078 1.412 . S
C2091 C2090 1.455 . S
C2091 C2092 1.331 . S
C2092 C2081 1.451 . S
C2092 C2091 1.331 . S
C2092 C2093 1.497 . S
C2093 C2084 1.395 . S
C2093 C2088 1.446 . S
C2093 C2092 1.497 . S
C2094 C2095 1.582 . S
C2094 H2151 0.962 . S
C2094 H2152 0.959 . S
C2094 H2153 0.958 . S
C2095 C2094 1.582 . S
C2095 O2098 1.458 . S
C2095 H2124 0.980 . S
O2096 C2041 1.426 . S
O2096 C2042 1.334 . S
O2097 C2069 1.412 . S
O2097 C2070 1.393 . S
O2098 C2060 1.435 . S
O2098 C2095 1.458 . S
O2099 C2051 1.468 . S
O2099 C2052 1.408 . S
H2100 C2041 0.980 . S
H2101 C2040 0.959 . S
H2102 C2040 0.959 . S
H2103 C2040 0.960 . S
H2104 C2043 0.929 . S
H2105 C2047 0.929 . S
H2106 C2048 0.959 . S
H2107 C2048 0.961 . S
H2108 C2048 0.961 . S
H2109 C2049 0.960 . S
H2110 C2049 0.960 . S
H2111 C2049 0.961 . S
H2112 C2051 0.980 . S
H2113 C2050 0.961 . S
H2114 C2050 0.960 . S
H2115 C2050 0.959 . S
H2116 C2053 0.930 . S
H2117 C2057 0.931 . S
H2118 C2058 0.959 . S
H2119 C2058 0.961 . S
H2120 C2058 0.959 . S
H2121 C2059 0.960 . S
H2122 C2059 0.960 . S
H2123 C2059 0.960 . S
H2124 C2095 0.980 . S
H2125 C2061 0.930 . S
H2126 C2065 0.930 . S
H2127 C2066 0.961 . S
H2128 C2066 0.960 . S
H2129 C2066 0.958 . S
H2130 C2067 0.961 . S
H2131 C2067 0.960 . S
H2132 C2067 0.960 . S
H2133 C2069 0.980 . S
H2134 C2068 0.961 . S
H2135 C2068 0.961 . S
H2136 C2068 0.959 . S
H2137 C2071 0.932 . S
H2138 C2075 0.929 . S
H2139 C2076 0.961 . S
H2140 C2076 0.959 . S
H2141 C2076 0.959 . S
H2142 C2077 0.960 . S
H2143 C2077 0.962 . S
H2144 C2077 0.961 . S
H2145 C2079 0.929 . S
H2146 C2082 0.930 . S
H2147 C2083 0.929 . S
H2148 C2086 0.930 . S
H2149 C2089 0.929 . S
H2150 C2090 0.930 . S
H2151 C2094 0.962 . S
H2152 C2094 0.959 . S
H2153 C2094 0.958 . S
C2154 C2155 1.560 . S
C2154 H2215 0.959 . S
C2154 H2216 0.959 . S
C2154 H2217 0.960 . S
C2155 C2154 1.560 . S
C2155 O2210 1.426 . S
C2155 H2214 0.980 . S
C2156 C2157 1.407 . S
C2156 C2161 1.418 . S
C2156 O2210 1.334 . S
C2157 C2156 1.407 . S
C2157 C2158 1.360 . S
C2157 H2218 0.929 . S
C2158 C2157 1.360 . S
C2158 C2159 1.401 . S
C2158 C2162 1.527 . S
C2159 C2158 1.401 . S
C2159 C2160 1.405 . S
C2159 C2192 1.587 . S
C2160 C2159 1.405 . S
C2160 C2161 1.332 . S
C2160 C2163 1.496 . S
C2161 C2156 1.418 . S
C2161 C2160 1.332 . S
C2161 H2219 0.929 . S
C2162 C2158 1.527 . S
C2162 H2220 0.959 . S
C2162 H2221 0.961 . S
C2162 H2222 0.961 . S
C2163 C2160 1.496 . S
C2163 H2223 0.960 . S
C2163 H2224 0.960 . S
C2163 H2225 0.961 . S
C2164 C2165 1.517 . S
C2164 H2227 0.961 . S
C2164 H2228 0.960 . S
C2164 H2229 0.959 . S
C2165 C2164 1.517 . S
C2165 O2213 1.468 . S
C2165 H2226 0.980 . S
C2166 C2167 1.349 . S
C2166 C2171 1.367 . S
C2166 O2213 1.408 . S
C2167 C2166 1.349 . S
C2167 C2168 1.407 . S
C2167 H2230 0.930 . S
C2168 C2167 1.407 . S
C2168 C2169 1.449 . S
C2168 C2172 1.535 . S
C2169 C2168 1.449 . S
C2169 C2170 1.384 . S
C2169 C2194 1.553 . S
C2170 C2169 1.384 . S
C2170 C2171 1.364 . S
C2170 C2173 1.450 . S
C2171 C2166 1.367 . S
C2171 C2170 1.364 . S
C2171 H2231 0.931 . S
C2172 C2168 1.535 . S
C2172 H2232 0.959 . S
C2172 H2233 0.961 . S
C2172 H2234 0.959 . S
C2173 C2170 1.450 . S
C2173 H2235 0.960 . S
C2173 H2236 0.960 . S
C2173 H2237 0.960 . S
C2174 C2175 1.309 . S
C2174 C2179 1.304 . S
C2174 O2212 1.435 . S
C2175 C2174 1.309 . S
C2175 C2176 1.476 . S
C2175 H2239 0.930 . S
C2176 C2175 1.476 . S
C2176 C2177 1.400 . S
C2176 C2180 1.567 . S
C2177 C2176 1.400 . S
C2177 C2178 1.373 . S
C2177 C2199 1.432 . S
C2178 C2177 1.373 . S
C2178 C2179 1.339 . S
C2178 C2181 1.530 . S
C2179 C2174 1.304 . S
C2179 C2178 1.339 . S
C2179 H2240 0.930 . S
C2180 C2176 1.567 . S
C2180 H2241 0.961 . S
C2180 H2242 0.960 . S
C2180 H2243 0.958 . S
C2181 C2178 1.530 . S
C2181 H2244 0.961 . S
C2181 H2245 0.960 . S
C2181 H2246 0.960 . S
C2182 C2183 1.530 . S
C2182 H2248 0.961 . S
C2182 H2249 0.961 . S
C2182 H2250 0.959 . S
C2183 C2182 1.530 . S
C2183 O2211 1.412 . S
C2183 H2247 0.980 . S
C2184 C2185 1.288 . S
C2184 C2189 1.377 . S
C2184 O2211 1.393 . S
C2185 C2184 1.288 . S
C2185 C2186 1.369 . S
C2185 H2251 0.932 . S
C2186 C2185 1.369 . S
C2186 C2187 1.398 . S
C2186 C2190 1.527 . S
C2187 C2186 1.398 . S
C2187 C2188 1.380 . S
C2187 C2201 1.497 . S
C2188 C2187 1.380 . S
C2188 C2189 1.383 . S
C2188 C2191 1.603 . S
C2189 C2184 1.377 . S
C2189 C2188 1.383 . S
C2189 H2252 0.929 . S
C2190 C2186 1.527 . S
C2190 H2253 0.961 . S
C2190 H2254 0.959 . S
C2190 H2255 0.959 . S
C2191 C2188 1.603 . S
C2191 H2256 0.960 . S
C2191 H2257 0.962 . S
C2191 H2258 0.961 . S
C2192 C2159 1.587 . S
C2192 C2193 1.360 . S
C2192 C2205 1.412 . S
C2193 C2192 1.360 . S
C2193 C2194 1.365 . S
C2193 H2259 0.929 . S
C2194 C2169 1.553 . S
C2194 C2193 1.365 . S
C2194 C2195 1.404 . S
C2195 C2194 1.404 . S
C2195 C2196 1.395 . S
C2195 C2206 1.451 . S
C2196 C2195 1.395 . S
C2196 C2197 1.322 . S
C2196 H2260 0.930 . S
C2197 C2196 1.322 . S
C2197 C2198 1.459 . S
C2197 H2261 0.929 . S
C2198 C2197 1.459 . S
C2198 C2199 1.445 . S
C2198 C2207 1.395 . S
C2199 C2177 1.432 . S
C2199 C2198 1.445 . S
C2199 C2200 1.370 . S
C2200 C2199 1.370 . S
C2200 C2201 1.438 . S
C2200 H2262 0.930 . S
C2201 C2187 1.497 . S
C2201 C2200 1.438 . S
C2201 C2202 1.360 . S
C2202 C2201 1.360 . S
C2202 C2203 1.401 . S
C2202 C2207 1.446 . S
C2203 C2202 1.401 . S
C2203 C2204 1.347 . S
C2203 H2263 0.929 . S
C2204 C2203 1.347 . S
C2204 C2205 1.455 . S
C2204 H2264 0.930 . S
C2205 C2192 1.412 . S
C2205 C2204 1.455 . S
C2205 C2206 1.331 . S
C2206 C2195 1.451 . S
C2206 C2205 1.331 . S
C2206 C2207 1.497 . S
C2207 C2198 1.395 . S
C2207 C2202 1.446 . S
C2207 C2206 1.497 . S
C2208 C2209 1.582 . S
C2208 H2265 0.962 . S
C2208 H2266 0.959 . S
C2208 H2267 0.958 . S
C2209 C2208 1.582 . S
C2209 O2212 1.458 . S
C2209 H2238 0.980 . S
O2210 C2155 1.426 . S
O2210 C2156 1.334 . S
O2211 C2183 1.412 . S
O2211 C2184 1.393 . S
O2212 C2174 1.435 . S
O2212 C2209 1.458 . S
O2213 C2165 1.468 . S
O2213 C2166 1.408 . S
H2214 C2155 0.980 . S
H2215 C2154 0.959 . S
H2216 C2154 0.959 . S
H2217 C2154 0.960 . S
H2218 C2157 0.929 . S
H2219 C2161 0.929 . S
H2220 C2162 0.959 . S
H2221 C2162 0.961 . S
H2222 C2162 0.961 . S
H2223 C2163 0.960 . S
H2224 C2163 0.960 . S
H2225 C2163 0.961 . S
H2226 C2165 0.980 . S
H2227 C2164 0.961 . S
H2228 C2164 0.960 . S
H2229 C2164 0.959 . S
H2230 C2167 0.930 . S
H2231 C2171 0.931 . S
H2232 C2172 0.959 . S
H2233 C2172 0.961 . S
H2234 C2172 0.959 . S
H2235 C2173 0.960 . S
H2236 C2173 0.960 . S
H2237 C2173 0.960 . S
H2238 C2209 0.980 . S
H2239 C2175 0.930 . S
H2240 C2179 0.930 . S
H2241 C2180 0.961 . S
H2242 C2180 0.960 . S
H2243 C2180 0.958 . S
H2244 C2181 0.961 . S
H2245 C2181 0.960 . S
H2246 C2181 0.960 . S
H2247 C2183 0.980 . S
H2248 C2182 0.961 . S
H2249 C2182 0.961 . S
H2250 C2182 0.959 . S
H2251 C2185 0.932 . S
H2252 C2189 0.929 . S
H2253 C2190 0.961 . S
H2254 C2190 0.959 . S
H2255 C2190 0.959 . S
H2256 C2191 0.960 . S
H2257 C2191 0.962 . S
H2258 C2191 0.961 . S
H2259 C2193 0.929 . S
H2260 C2196 0.930 . S
H2261 C2197 0.929 . S
H2262 C2200 0.930 . S
H2263 C2203 0.929 . S
H2264 C2204 0.930 . S
H2265 C2208 0.962 . S
H2266 C2208 0.959 . S
H2267 C2208 0.958 . S
C2268 C2269 1.560 . S
C2268 H2329 0.959 . S
C2268 H2330 0.959 . S
C2268 H2331 0.960 . S
C2269 C2268 1.560 . S
C2269 O2324 1.426 . S
C2269 H2328 0.980 . S
C2270 C2271 1.407 . S
C2270 C2275 1.418 . S
C2270 O2324 1.334 . S
C2271 C2270 1.407 . S
C2271 C2272 1.360 . S
C2271 H2332 0.929 . S
C2272 C2271 1.360 . S
C2272 C2273 1.401 . S
C2272 C2276 1.527 . S
C2273 C2272 1.401 . S
C2273 C2274 1.405 . S
C2273 C2306 1.587 . S
C2274 C2273 1.405 . S
C2274 C2275 1.332 . S
C2274 C2277 1.496 . S
C2275 C2270 1.418 . S
C2275 C2274 1.332 . S
C2275 H2333 0.929 . S
C2276 C2272 1.527 . S
C2276 H2334 0.959 . S
C2276 H2335 0.961 . S
C2276 H2336 0.961 . S
C2277 C2274 1.496 . S
C2277 H2337 0.960 . S
C2277 H2338 0.960 . S
C2277 H2339 0.961 . S
C2278 C2279 1.517 . S
C2278 H2341 0.961 . S
C2278 H2342 0.960 . S
C2278 H2343 0.959 . S
C2279 C2278 1.517 . S
C2279 O2327 1.468 . S
C2279 H2340 0.980 . S
C2280 C2281 1.349 . S
C2280 C2285 1.367 . S
C2280 O2327 1.408 . S
C2281 C2280 1.349 . S
C2281 C2282 1.407 . S
C2281 H2344 0.930 . S
C2282 C2281 1.407 . S
C2282 C2283 1.449 . S
C2282 C2286 1.535 . S
C2283 C2282 1.449 . S
C2283 C2284 1.384 . S
C2283 C2308 1.553 . S
C2284 C2283 1.384 . S
C2284 C2285 1.364 . S
C2284 C2287 1.450 . S
C2285 C2280 1.367 . S
C2285 C2284 1.364 . S
C2285 H2345 0.931 . S
C2286 C2282 1.535 . S
C2286 H2346 0.959 . S
C2286 H2347 0.961 . S
C2286 H2348 0.959 . S
C2287 C2284 1.450 . S
C2287 H2349 0.960 . S
C2287 H2350 0.960 . S
C2287 H2351 0.960 . S
C2288 C2289 1.309 . S
C2288 C2293 1.304 . S
C2288 O2326 1.435 . S
C2289 C2288 1.309 . S
C2289 C2290 1.476 . S
C2289 H2353 0.930 . S
C2290 C2289 1.476 . S
C2290 C2291 1.400 . S
C2290 C2294 1.567 . S
C2291 C2290 1.400 . S
C2291 C2292 1.373 . S
C2291 C2313 1.432 . S
C2292 C2291 1.373 . S
C2292 C2293 1.339 . S
C2292 C2295 1.530 . S
C2293 C2288 1.304 . S
C2293 C2292 1.339 . S
C2293 H2354 0.930 . S
C2294 C2290 1.567 . S
C2294 H2355 0.961 . S
C2294 H2356 0.960 . S
C2294 H2357 0.958 . S
C2295 C2292 1.530 . S
C2295 H2358 0.961 . S
C2295 H2359 0.960 . S
C2295 H2360 0.960 . S
C2296 C2297 1.530 . S
C2296 H2362 0.961 . S
C2296 H2363 0.961 . S
C2296 H2364 0.959 . S
C2297 C2296 1.530 . S
C2297 O2325 1.412 . S
C2297 H2361 0.980 . S
C2298 C2299 1.288 . S
C2298 C2303 1.377 . S
C2298 O2325 1.393 . S
C2299 C2298 1.288 . S
C2299 C2300 1.369 . S
C2299 H2365 0.932 . S
C2300 C2299 1.369 . S
C2300 C2301 1.398 . S
C2300 C2304 1.527 . S
C2301 C2300 1.398 . S
C2301 C2302 1.380 . S
C2301 C2315 1.497 . S
C2302 C2301 1.380 . S
C2302 C2303 1.383 . S
C2302 C2305 1.603 . S
C2303 C2298 1.377 . S
C2303 C2302 1.383 . S
C2303 H2366 0.929 . S
C2304 C2300 1.527 . S
C2304 H2367 0.961 . S
C2304 H2368 0.959 . S
C2304 H2369 0.959 . S
C2305 C2302 1.603 . S
C2305 H2370 0.960 . S
C2305 H2371 0.962 . S
C2305 H2372 0.961 . S
C2306 C2273 1.587 . S
C2306 C2307 1.360 . S
C2306 C2319 1.412 . S
C2307 C2306 1.360 . S
C2307 C2308 1.365 . S
C2307 H2373 0.929 . S
C2308 C2283 1.553 . S
C2308 C2307 1.365 . S
C2308 C2309 1.404 . S
C2309 C2308 1.404 . S
C2309 C2310 1.395 . S
C2309 C2320 1.451 . S
C2310 C2309 1.395 . S
C2310 C2311 1.322 . S
C2310 H2374 0.930 . S
C2311 C2310 1.322 . S
C2311 C2312 1.459 . S
C2311 H2375 0.929 . S
C2312 C2311 1.459 . S
C2312 C2313 1.445 . S
C2312 C2321 1.395 . S
C2313 C2291 1.432 . S
C2313 C2312 1.445 . S
C2313 C2314 1.370 . S
C2314 C2313 1.370 . S
C2314 C2315 1.438 . S
C2314 H2376 0.930 . S
C2315 C2301 1.497 . S
C2315 C2314 1.438 . S
C2315 C2316 1.360 . S
C2316 C2315 1.360 . S
C2316 C2317 1.401 . S
C2316 C2321 1.446 . S
C2317 C2316 1.401 . S
C2317 C2318 1.347 . S
C2317 H2377 0.929 . S
C2318 C2317 1.347 . S
C2318 C2319 1.455 . S
C2318 H2378 0.930 . S
C2319 C2306 1.412 . S
C2319 C2318 1.455 . S
C2319 C2320 1.331 . S
C2320 C2309 1.451 . S
C2320 C2319 1.331 . S
C2320 C2321 1.497 . S
C2321 C2312 1.395 . S
C2321 C2316 1.446 . S
C2321 C2320 1.497 . S
C2322 C2323 1.582 . S
C2322 H2379 0.962 . S
C2322 H2380 0.959 . S
C2322 H2381 0.958 . S
C2323 C2322 1.582 . S
C2323 O2326 1.458 . S
C2323 H2352 0.980 . S
O2324 C2269 1.426 . S
O2324 C2270 1.334 . S
O2325 C2297 1.412 . S
O2325 C2298 1.393 . S
O2326 C2288 1.435 . S
O2326 C2323 1.458 . S
O2327 C2279 1.468 . S
O2327 C2280 1.408 . S
H2328 C2269 0.980 . S
H2329 C2268 0.959 . S
H2330 C2268 0.959 . S
H2331 C2268 0.960 . S
H2332 C2271 0.929 . S
H2333 C2275 0.929 . S
H2334 C2276 0.959 . S
H2335 C2276 0.961 . S
H2336 C2276 0.961 . S
H2337 C2277 0.960 . S
H2338 C2277 0.960 . S
H2339 C2277 0.961 . S
H2340 C2279 0.980 . S
H2341 C2278 0.961 . S
H2342 C2278 0.960 . S
H2343 C2278 0.959 . S
H2344 C2281 0.930 . S
H2345 C2285 0.931 . S
H2346 C2286 0.959 . S
H2347 C2286 0.961 . S
H2348 C2286 0.959 . S
H2349 C2287 0.960 . S
H2350 C2287 0.960 . S
H2351 C2287 0.960 . S
H2352 C2323 0.980 . S
H2353 C2289 0.930 . S
H2354 C2293 0.930 . S
H2355 C2294 0.961 . S
H2356 C2294 0.960 . S
H2357 C2294 0.958 . S
H2358 C2295 0.961 . S
H2359 C2295 0.960 . S
H2360 C2295 0.960 . S
H2361 C2297 0.980 . S
H2362 C2296 0.961 . S
H2363 C2296 0.961 . S
H2364 C2296 0.959 . S
H2365 C2299 0.932 . S
H2366 C2303 0.929 . S
H2367 C2304 0.961 . S
H2368 C2304 0.959 . S
H2369 C2304 0.959 . S
H2370 C2305 0.960 . S
H2371 C2305 0.962 . S
H2372 C2305 0.961 . S
H2373 C2307 0.929 . S
H2374 C2310 0.930 . S
H2375 C2311 0.929 . S
H2376 C2314 0.930 . S
H2377 C2317 0.929 . S
H2378 C2318 0.930 . S
H2379 C2322 0.962 . S
H2380 C2322 0.959 . S
H2381 C2322 0.958 . S
C2382 C2383 1.560 . S
C2382 H2443 0.959 . S
C2382 H2444 0.959 . S
C2382 H2445 0.960 . S
C2383 C2382 1.560 . S
C2383 O2438 1.426 . S
C2383 H2442 0.980 . S
C2384 C2385 1.407 . S
C2384 C2389 1.418 . S
C2384 O2438 1.334 . S
C2385 C2384 1.407 . S
C2385 C2386 1.360 . S
C2385 H2446 0.929 . S
C2386 C2385 1.360 . S
C2386 C2387 1.401 . S
C2386 C2390 1.527 . S
C2387 C2386 1.401 . S
C2387 C2388 1.405 . S
C2387 C2420 1.587 . S
C2388 C2387 1.405 . S
C2388 C2389 1.332 . S
C2388 C2391 1.496 . S
C2389 C2384 1.418 . S
C2389 C2388 1.332 . S
C2389 H2447 0.929 . S
C2390 C2386 1.527 . S
C2390 H2448 0.959 . S
C2390 H2449 0.961 . S
C2390 H2450 0.961 . S
C2391 C2388 1.496 . S
C2391 H2451 0.960 . S
C2391 H2452 0.960 . S
C2391 H2453 0.961 . S
C2392 C2393 1.517 . S
C2392 H2455 0.961 . S
C2392 H2456 0.960 . S
C2392 H2457 0.959 . S
C2393 C2392 1.517 . S
C2393 O2441 1.468 . S
C2393 H2454 0.980 . S
C2394 C2395 1.349 . S
C2394 C2399 1.367 . S
C2394 O2441 1.408 . S
C2395 C2394 1.349 . S
C2395 C2396 1.407 . S
C2395 H2458 0.930 . S
C2396 C2395 1.407 . S
C2396 C2397 1.449 . S
C2396 C2400 1.535 . S
C2397 C2396 1.449 . S
C2397 C2398 1.384 . S
C2397 C2422 1.553 . S
C2398 C2397 1.384 . S
C2398 C2399 1.364 . S
C2398 C2401 1.450 . S
C2399 C2394 1.367 . S
C2399 C2398 1.364 . S
C2399 H2459 0.931 . S
C2400 C2396 1.535 . S
C2400 H2460 0.959 . S
C2400 H2461 0.961 . S
C2400 H2462 0.959 . S
C2401 C2398 1.450 . S
C2401 H2463 0.960 . S
C2401 H2464 0.960 . S
C2401 H2465 0.960 . S
C2402 C2403 1.309 . S
C2402 C2407 1.304 . S
C2402 O2440 1.435 . S
C2403 C2402 1.309 . S
C2403 C2404 1.476 . S
C2403 H2467 0.930 . S
C2404 C2403 1.476 . S
C2404 C2405 1.400 . S
C2404 C2408 1.567 . S
C2405 C2404 1.400 . S
C2405 C2406 1.373 . S
C2405 C2427 1.432 . S
C2406 C2405 1.373 . S
C2406 C2407 1.339 . S
C2406 C2409 1.530 . S
C2407 C2402 1.304 . S
C2407 C2406 1.339 . S
C2407 H2468 0.930 . S
C2408 C2404 1.567 . S
C2408 H2469 0.961 . S
C2408 H2470 0.960 . S
C2408 H2471 0.958 . S
C2409 C2406 1.530 . S
C2409 H2472 0.961 . S
C2409 H2473 0.960 . S
C2409 H2474 0.960 . S
C2410 C2411 1.530 . S
C2410 H2476 0.961 . S
C2410 H2477 0.961 . S
C2410 H2478 0.959 . S
C2411 C2410 1.530 . S
C2411 O2439 1.412 . S
C2411 H2475 0.980 . S
C2412 C2413 1.288 . S
C2412 C2417 1.377 . S
C2412 O2439 1.393 . S
C2413 C2412 1.288 . S
C2413 C2414 1.369 . S
C2413 H2479 0.932 . S
C2414 C2413 1.369 . S
C2414 C2415 1.398 . S
C2414 C2418 1.527 . S
C2415 C2414 1.398 . S
C2415 C2416 1.380 . S
C2415 C2429 1.497 . S
C2416 C2415 1.380 . S
C2416 C2417 1.383 . S
C2416 C2419 1.603 . S
C2417 C2412 1.377 . S
C2417 C2416 1.383 . S
C2417 H2480 0.929 . S
C2418 C2414 1.527 . S
C2418 H2481 0.961 . S
C2418 H2482 0.959 . S
C2418 H2483 0.959 . S
C2419 C2416 1.603 . S
C2419 H2484 0.960 . S
C2419 H2485 0.962 . S
C2419 H2486 0.961 . S
C2420 C2387 1.587 . S
C2420 C2421 1.360 . S
C2420 C2433 1.412 . S
C2421 C2420 1.360 . S
C2421 C2422 1.365 . S
C2421 H2487 0.929 . S
C2422 C2397 1.553 . S
C2422 C2421 1.365 . S
C2422 C2423 1.404 . S
C2423 C2422 1.404 . S
C2423 C2424 1.395 . S
C2423 C2434 1.451 . S
C2424 C2423 1.395 . S
C2424 C2425 1.322 . S
C2424 H2488 0.930 . S
C2425 C2424 1.322 . S
C2425 C2426 1.459 . S
C2425 H2489 0.929 . S
C2426 C2425 1.459 . S
C2426 C2427 1.445 . S
C2426 C2435 1.395 . S
C2427 C2405 1.432 . S
C2427 C2426 1.445 . S
C2427 C2428 1.370 . S
C2428 C2427 1.370 . S
C2428 C2429 1.438 . S
C2428 H2490 0.930 . S
C2429 C2415 1.497 . S
C2429 C2428 1.438 . S
C2429 C2430 1.360 . S
C2430 C2429 1.360 . S
C2430 C2431 1.401 . S
C2430 C2435 1.446 . S
C2431 C2430 1.401 . S
C2431 C2432 1.347 . S
C2431 H2491 0.929 . S
C2432 C2431 1.347 . S
C2432 C2433 1.455 . S
C2432 H2492 0.930 . S
C2433 C2420 1.412 . S
C2433 C2432 1.455 . S
C2433 C2434 1.331 . S
C2434 C2423 1.451 . S
C2434 C2433 1.331 . S
C2434 C2435 1.497 . S
C2435 C2426 1.395 . S
C2435 C2430 1.446 . S
C2435 C2434 1.497 . S
C2436 C2437 1.582 . S
C2436 H2493 0.962 . S
C2436 H2494 0.959 . S
C2436 H2495 0.958 . S
C2437 C2436 1.582 . S
C2437 O2440 1.458 . S
C2437 H2466 0.980 . S
O2438 C2383 1.426 . S
O2438 C2384 1.334 . S
O2439 C2411 1.412 . S
O2439 C2412 1.393 . S
O2440 C2402 1.435 . S
O2440 C2437 1.458 . S
O2441 C2393 1.468 . S
O2441 C2394 1.408 . S
H2442 C2383 0.980 . S
H2443 C2382 0.959 . S
H2444 C2382 0.959 . S
H2445 C2382 0.960 . S
H2446 C2385 0.929 . S
H2447 C2389 0.929 . S
H2448 C2390 0.959 . S
H2449 C2390 0.961 . S
H2450 C2390 0.961 . S
H2451 C2391 0.960 . S
H2452 C2391 0.960 . S
H2453 C2391 0.961 . S
H2454 C2393 0.980 . S
H2455 C2392 0.961 . S
H2456 C2392 0.960 . S
H2457 C2392 0.959 . S
H2458 C2395 0.930 . S
H2459 C2399 0.931 . S
H2460 C2400 0.959 . S
H2461 C2400 0.961 . S
H2462 C2400 0.959 . S
H2463 C2401 0.960 . S
H2464 C2401 0.960 . S
H2465 C2401 0.960 . S
H2466 C2437 0.980 . S
H2467 C2403 0.930 . S
H2468 C2407 0.930 . S
H2469 C2408 0.961 . S
H2470 C2408 0.960 . S
H2471 C2408 0.958 . S
H2472 C2409 0.961 . S
H2473 C2409 0.960 . S
H2474 C2409 0.960 . S
H2475 C2411 0.980 . S
H2476 C2410 0.961 . S
H2477 C2410 0.961 . S
H2478 C2410 0.959 . S
H2479 C2413 0.932 . S
H2480 C2417 0.929 . S
H2481 C2418 0.961 . S
H2482 C2418 0.959 . S
H2483 C2418 0.959 . S
H2484 C2419 0.960 . S
H2485 C2419 0.962 . S
H2486 C2419 0.961 . S
H2487 C2421 0.929 . S
H2488 C2424 0.930 . S
H2489 C2425 0.929 . S
H2490 C2428 0.930 . S
H2491 C2431 0.929 . S
H2492 C2432 0.930 . S
H2493 C2436 0.962 . S
H2494 C2436 0.959 . S
H2495 C2436 0.958 . S
C2496 C2497 1.560 . S
C2496 H2557 0.959 . S
C2496 H2558 0.959 . S
C2496 H2559 0.960 . S
C2497 C2496 1.560 . S
C2497 O2552 1.426 . S
C2497 H2556 0.980 . S
C2498 C2499 1.407 . S
C2498 C2503 1.418 . S
C2498 O2552 1.334 . S
C2499 C2498 1.407 . S
C2499 C2500 1.360 . S
C2499 H2560 0.929 . S
C2500 C2499 1.360 . S
C2500 C2501 1.401 . S
C2500 C2504 1.527 . S
C2501 C2500 1.401 . S
C2501 C2502 1.405 . S
C2501 C2534 1.587 . S
C2502 C2501 1.405 . S
C2502 C2503 1.332 . S
C2502 C2505 1.496 . S
C2503 C2498 1.418 . S
C2503 C2502 1.332 . S
C2503 H2561 0.929 . S
C2504 C2500 1.527 . S
C2504 H2562 0.959 . S
C2504 H2563 0.961 . S
C2504 H2564 0.961 . S
C2505 C2502 1.496 . S
C2505 H2565 0.960 . S
C2505 H2566 0.960 . S
C2505 H2567 0.961 . S
C2506 C2507 1.517 . S
C2506 H2569 0.961 . S
C2506 H2570 0.960 . S
C2506 H2571 0.959 . S
C2507 C2506 1.517 . S
C2507 O2555 1.468 . S
C2507 H2568 0.980 . S
C2508 C2509 1.349 . S
C2508 C2513 1.367 . S
C2508 O2555 1.408 . S
C2509 C2508 1.349 . S
C2509 C2510 1.407 . S
C2509 H2572 0.930 . S
C2510 C2509 1.407 . S
C2510 C2511 1.449 . S
C2510 C2514 1.535 . S
C2511 C2510 1.449 . S
C2511 C2512 1.384 . S
C2511 C2536 1.553 . S
C2512 C2511 1.384 . S
C2512 C2513 1.364 . S
C2512 C2515 1.450 . S
C2513 C2508 1.367 . S
C2513 C2512 1.364 . S
C2513 H2573 0.931 . S
C2514 C2510 1.535 . S
C2514 H2574 0.959 . S
C2514 H2575 0.961 . S
C2514 H2576 0.959 . S
C2515 C2512 1.450 . S
C2515 H2577 0.960 . S
C2515 H2578 0.960 . S
C2515 H2579 0.960 . S
C2516 C2517 1.309 . S
C2516 C2521 1.304 . S
C2516 O2554 1.435 . S
C2517 C2516 1.309 . S
C2517 C2518 1.476 . S
C2517 H2581 0.930 . S
C2518 C2517 1.476 . S
C2518 C2519 1.400 . S
C2518 C2522 1.567 . S
C2519 C2518 1.400 . S
C2519 C2520 1.373 . S
C2519 C2541 1.432 . S
C2520 C2519 1.373 . S
C2520 C2521 1.339 . S
C2520 C2523 1.530 . S
C2521 C2516 1.304 . S
C2521 C2520 1.339 . S
C2521 H2582 0.930 . S
C2522 C2518 1.567 . S
C2522 H2583 0.961 . S
C2522 H2584 0.960 . S
C2522 H2585 0.958 . S
C2523 C2520 1.530 . S
C2523 H2586 0.961 . S
C2523 H2587 0.960 . S
C2523 H2588 0.960 . S
C2524 C2525 1.530 . S
C2524 H2590 0.961 . S
C2524 H2591 0.961 . S
C2524 H2592 0.959 . S
C2525 C2524 1.530 . S
C2525 O2553 1.412 . S
C2525 H2589 0.980 . S
C2526 C2527 1.288 . S
C2526 C2531 1.377 . S
C2526 O2553 1.393 . S
C2527 C2526 1.288 . S
C2527 C2528 1.369 . S
C2527 H2593 0.932 . S
C2528 C2527 1.369 . S
C2528 C2529 1.398 . S
C2528 C2532 1.527 . S
C2529 C2528 1.398 . S
C2529 C2530 1.380 . S
C2529 C2543 1.497 . S
C2530 C2529 1.380 . S
C2530 C2531 1.383 . S
C2530 C2533 1.603 . S
C2531 C2526 1.377 . S
C2531 C2530 1.383 . S
C2531 H2594 0.929 . S
C2532 C2528 1.527 . S
C2532 H2595 0.961 . S
C2532 H2596 0.959 . S
C2532 H2597 0.959 . S
C2533 C2530 1.603 . S
C2533 H2598 0.960 . S
C2533 H2599 0.962 . S
C2533 H2600 0.961 . S
C2534 C2501 1.587 . S
C2534 C2535 1.360 . S
C2534 C2547 1.412 . S
C2535 C2534 1.360 . S
C2535 C2536 1.365 . S
C2535 H2601 0.929 . S
C2536 C2511 1.553 . S
C2536 C2535 1.365 . S
C2536 C2537 1.404 . S
C2537 C2536 1.404 . S
C2537 C2538 1.395 . S
C2537 C2548 1.451 . S
C2538 C2537 1.395 . S
C2538 C2539 1.322 . S
C2538 H2602 0.930 . S
C2539 C2538 1.322 . S
C2539 C2540 1.459 . S
C2539 H2603 0.929 . S
C2540 C2539 1.459 . S
C2540 C2541 1.445 . S
C2540 C2549 1.395 . S
C2541 C2519 1.432 . S
C2541 C2540 1.445 . S
C2541 C2542 1.370 . S
C2542 C2541 1.370 . S
C2542 C2543 1.438 . S
C2542 H2604 0.930 . S
C2543 C2529 1.497 . S
C2543 C2542 1.438 . S
C2543 C2544 1.360 . S
C2544 C2543 1.360 . S
C2544 C2545 1.401 . S
C2544 C2549 1.446 . S
C2545 C2544 1.401 . S
C2545 C2546 1.347 . S
C2545 H2605 0.929 . S
C2546 C2545 1.347 . S
C2546 C2547 1.455 . S
C2546 H2606 0.930 . S
C2547 C2534 1.412 . S
C2547 C2546 1.455 . S
C2547 C2548 1.331 . S
C2548 C2537 1.451 . S
C2548 C2547 1.331 . S
C2548 C2549 1.497 . S
C2549 C2540 1.395 . S
C2549 C2544 1.446 . S
C2549 C2548 1.497 . S
C2550 C2551 1.582 . S
C2550 H2607 0.962 . S
C2550 H2608 0.959 . S
C2550 H2609 0.958 . S
C2551 C2550 1.582 . S
C2551 O2554 1.458 . S
C2551 H2580 0.980 . S
O2552 C2497 1.426 . S
O2552 C2498 1.334 . S
O2553 C2525 1.412 . S
O2553 C2526 1.393 . S
O2554 C2516 1.435 . S
O2554 C2551 1.458 . S
O2555 C2507 1.468 . S
O2555 C2508 1.408 . S
H2556 C2497 0.980 . S
H2557 C2496 0.959 . S
H2558 C2496 0.959 . S
H2559 C2496 0.960 . S
H2560 C2499 0.929 . S
H2561 C2503 0.929 . S
H2562 C2504 0.959 . S
H2563 C2504 0.961 . S
H2564 C2504 0.961 . S
H2565 C2505 0.960 . S
H2566 C2505 0.960 . S
H2567 C2505 0.961 . S
H2568 C2507 0.980 . S
H2569 C2506 0.961 . S
H2570 C2506 0.960 . S
H2571 C2506 0.959 . S
H2572 C2509 0.930 . S
H2573 C2513 0.931 . S
H2574 C2514 0.959 . S
H2575 C2514 0.961 . S
H2576 C2514 0.959 . S
H2577 C2515 0.960 . S
H2578 C2515 0.960 . S
H2579 C2515 0.960 . S
H2580 C2551 0.980 . S
H2581 C2517 0.930 . S
H2582 C2521 0.930 . S
H2583 C2522 0.961 . S
H2584 C2522 0.960 . S
H2585 C2522 0.958 . S
H2586 C2523 0.961 . S
H2587 C2523 0.960 . S
H2588 C2523 0.960 . S
H2589 C2525 0.980 . S
H2590 C2524 0.961 . S
H2591 C2524 0.961 . S
H2592 C2524 0.959 . S
H2593 C2527 0.932 . S
H2594 C2531 0.929 . S
H2595 C2532 0.961 . S
H2596 C2532 0.959 . S
H2597 C2532 0.959 . S
H2598 C2533 0.960 . S
H2599 C2533 0.962 . S
H2600 C2533 0.961 . S
H2601 C2535 0.929 . S
H2602 C2538 0.930 . S
H2603 C2539 0.929 . S
H2604 C2542 0.930 . S
H2605 C2545 0.929 . S
H2606 C2546 0.930 . S
H2607 C2550 0.962 . S
H2608 C2550 0.959 . S
H2609 C2550 0.958 . S
C2610 C2611 1.560 . S
C2610 H2671 0.959 . S
C2610 H2672 0.959 . S
C2610 H2673 0.960 . S
C2611 C2610 1.560 . S
C2611 O2666 1.426 . S
C2611 H2670 0.980 . S
C2612 C2613 1.407 1_455 S
C2612 C2617 1.418 . S
C2612 O2666 1.334 . S
C2613 C2612 1.407 1_655 S
C2613 C2614 1.360 . S
C2613 H2674 0.929 . S
C2614 C2613 1.360 . S
C2614 C2615 1.401 1_655 S
C2614 C2618 1.527 . S
C2615 C2614 1.401 1_455 S
C2615 C2616 1.405 . S
C2615 C2648 1.587 1_455 S
C2616 C2615 1.405 . S
C2616 C2617 1.332 . S
C2616 C2619 1.496 . S
C2617 C2612 1.418 . S
C2617 C2616 1.332 . S
C2617 H2675 0.929 . S
C2618 C2614 1.527 . S
C2618 H2676 0.959 . S
C2618 H2677 0.961 . S
C2618 H2678 0.961 . S
C2619 C2616 1.496 . S
C2619 H2679 0.960 . S
C2619 H2680 0.960 . S
C2619 H2681 0.961 . S
C2620 C2621 1.517 . S
C2620 H2683 0.963 . S
C2620 H2684 0.960 . S
C2620 H2685 0.959 . S
C2621 C2620 1.517 . S
C2621 O2669 1.468 . S
C2621 H2682 0.980 1_655 S
C2622 C2623 1.349 . S
C2622 C2627 1.367 . S
C2622 O2669 1.408 . S
C2623 C2622 1.349 . S
C2623 C2624 1.355 1_655 S
C2623 H2686 0.930 1_655 S
C2624 C2623 1.355 1_455 S
C2624 C2625 1.404 1_455 S
C2624 C2628 1.627 . S
C2625 C2624 1.404 1_655 S
C2625 C2626 1.384 . S
C2625 C2650 1.553 . S
C2626 C2625 1.384 . S
C2626 C2627 1.364 . S
C2626 C2629 1.450 . S
C2627 C2622 1.367 . S
C2627 C2626 1.364 . S
C2627 H2687 0.931 . S
C2628 C2624 1.627 . S
C2628 H2688 0.959 . S
C2628 H2689 0.961 . S
C2628 H2690 0.959 . S
C2629 C2626 1.450 . S
C2629 H2691 0.960 . S
C2629 H2692 0.960 . S
C2629 H2693 0.960 . S
C2630 C2631 1.309 . S
C2630 C2635 1.304 . S
C2630 O2668 1.435 . S
C2631 C2630 1.309 . S
C2631 C2632 1.477 1_655 S
C2631 H2695 0.930 1_655 S
C2632 C2631 1.477 1_455 S
C2632 C2633 1.401 1_455 S
C2632 C2636 1.564 . S
C2633 C2632 1.401 1_655 S
C2633 C2634 1.373 . S
C2633 C2655 1.432 . S
C2634 C2633 1.373 . S
C2634 C2635 1.339 . S
C2634 C2637 1.530 . S
C2635 C2630 1.304 . S
C2635 C2634 1.339 . S
C2635 H2696 0.930 . S
C2636 C2632 1.564 . S
C2636 H2697 0.961 . S
C2636 H2698 0.960 . S
C2636 H2699 0.958 . S
C2637 C2634 1.530 . S
C2637 H2700 0.961 . S
C2637 H2701 0.960 . S
C2637 H2702 0.960 . S
C2638 C2639 1.505 1_455 S
C2638 H2704 0.961 . S
C2638 H2705 0.961 . S
C2638 H2706 0.959 . S
C2639 C2638 1.505 1_655 S
C2639 O2667 1.407 1_655 S
C2639 H2703 0.988 . S
C2640 C2641 1.288 . S
C2640 C2645 1.377 1_455 S
C2640 O2667 1.393 . S
C2641 C2640 1.288 . S
C2641 C2642 1.369 . S
C2641 H2707 0.932 . S
C2642 C2641 1.369 . S
C2642 C2643 1.398 1_455 S
C2642 C2646 1.527 . S
C2643 C2642 1.398 1_655 S
C2643 C2644 1.380 . S
C2643 C2657 1.497 . S
C2644 C2643 1.380 . S
C2644 C2645 1.383 . S
C2644 C2647 1.603 . S
C2645 C2640 1.377 1_655 S
C2645 C2644 1.383 . S
C2645 H2708 0.929 . S
C2646 C2642 1.527 . S
C2646 H2709 0.961 . S
C2646 H2710 0.959 . S
C2646 H2711 0.959 . S
C2647 C2644 1.603 . S
C2647 H2712 0.960 . S
C2647 H2713 0.962 . S
C2647 H2714 0.961 . S
C2648 C2615 1.587 1_655 S
C2648 C2649 1.360 . S
C2648 C2661 1.412 . S
C2649 C2648 1.360 . S
C2649 C2650 1.365 . S
C2649 H2715 0.929 . S
C2650 C2625 1.553 . S
C2650 C2649 1.365 . S
C2650 C2651 1.404 . S
C2651 C2650 1.404 . S
C2651 C2652 1.395 . S
C2651 C2662 1.451 . S
C2652 C2651 1.395 . S
C2652 C2653 1.322 . S
C2652 H2716 0.930 . S
C2653 C2652 1.322 . S
C2653 C2654 1.459 . S
C2653 H2717 0.929 . S
C2654 C2653 1.459 . S
C2654 C2655 1.445 . S
C2654 C2663 1.395 . S
C2655 C2633 1.432 . S
C2655 C2654 1.445 . S
C2655 C2656 1.370 . S
C2656 C2655 1.370 . S
C2656 C2657 1.438 . S
C2656 H2718 0.930 . S
C2657 C2643 1.497 . S
C2657 C2656 1.438 . S
C2657 C2658 1.360 . S
C2658 C2657 1.360 . S
C2658 C2659 1.401 . S
C2658 C2663 1.446 . S
C2659 C2658 1.401 . S
C2659 C2660 1.347 . S
C2659 H2719 0.929 . S
C2660 C2659 1.347 . S
C2660 C2661 1.455 . S
C2660 H2720 0.930 . S
C2661 C2648 1.412 . S
C2661 C2660 1.455 . S
C2661 C2662 1.331 . S
C2662 C2651 1.451 . S
C2662 C2661 1.331 . S
C2662 C2663 1.497 . S
C2663 C2654 1.395 . S
C2663 C2658 1.446 . S
C2663 C2662 1.497 . S
C2664 C2665 1.582 . S
C2664 H2721 0.962 . S
C2664 H2722 0.959 . S
C2664 H2723 0.958 . S
C2665 C2664 1.582 . S
C2665 O2668 1.458 . S
C2665 H2694 0.980 . S
O2666 C2611 1.426 . S
O2666 C2612 1.334 . S
O2667 C2639 1.407 1_455 S
O2667 C2640 1.393 . S
O2668 C2630 1.435 . S
O2668 C2665 1.458 . S
O2669 C2621 1.468 . S
O2669 C2622 1.408 . S
H2670 C2611 0.980 . S
H2671 C2610 0.959 . S
H2672 C2610 0.959 . S
H2673 C2610 0.960 . S
H2674 C2613 0.929 . S
H2675 C2617 0.929 . S
H2676 C2618 0.959 . S
H2677 C2618 0.961 . S
H2678 C2618 0.961 . S
H2679 C2619 0.960 . S
H2680 C2619 0.960 . S
H2681 C2619 0.961 . S
H2682 C2621 0.980 1_455 S
H2683 C2620 0.963 . S
H2684 C2620 0.960 . S
H2685 C2620 0.959 . S
H2686 C2623 0.930 1_455 S
H2687 C2627 0.931 . S
H2688 C2628 0.959 . S
H2689 C2628 0.961 . S
H2690 C2628 0.959 . S
H2691 C2629 0.960 . S
H2692 C2629 0.960 . S
H2693 C2629 0.960 . S
H2694 C2665 0.980 . S
H2695 C2631 0.930 1_455 S
H2696 C2635 0.930 . S
H2697 C2636 0.961 . S
H2698 C2636 0.960 . S
H2699 C2636 0.958 . S
H2700 C2637 0.961 . S
H2701 C2637 0.960 . S
H2702 C2637 0.960 . S
H2703 C2639 0.988 . S
H2704 C2638 0.961 . S
H2705 C2638 0.961 . S
H2706 C2638 0.959 . S
H2707 C2641 0.932 . S
H2708 C2645 0.929 . S
H2709 C2646 0.961 . S
H2710 C2646 0.959 . S
H2711 C2646 0.959 . S
H2712 C2647 0.960 . S
H2713 C2647 0.962 . S
H2714 C2647 0.961 . S
H2715 C2649 0.929 . S
H2716 C2652 0.930 . S
H2717 C2653 0.929 . S
H2718 C2656 0.930 . S
H2719 C2659 0.929 . S
H2720 C2660 0.930 . S
H2721 C2664 0.962 . S
H2722 C2664 0.959 . S
H2723 C2664 0.958 . S
C2724 C2725 1.560 . S
C2724 H2785 0.959 . S
C2724 H2786 0.959 . S
C2724 H2787 0.960 . S
C2725 C2724 1.560 . S
C2725 O2780 1.426 . S
C2725 H2784 0.980 . S
C2726 C2727 1.407 . S
C2726 C2731 1.418 . S
C2726 O2780 1.334 . S
C2727 C2726 1.407 . S
C2727 C2728 1.360 . S
C2727 H2788 0.929 . S
C2728 C2727 1.360 . S
C2728 C2729 1.401 . S
C2728 C2732 1.527 . S
C2729 C2728 1.401 . S
C2729 C2730 1.405 . S
C2729 C2762 1.587 . S
C2730 C2729 1.405 . S
C2730 C2731 1.332 . S
C2730 C2733 1.496 . S
C2731 C2726 1.418 . S
C2731 C2730 1.332 . S
C2731 H2789 0.929 . S
C2732 C2728 1.527 . S
C2732 H2790 0.959 . S
C2732 H2791 0.961 . S
C2732 H2792 0.961 . S
C2733 C2730 1.496 . S
C2733 H2793 0.960 . S
C2733 H2794 0.960 . S
C2733 H2795 0.961 . S
C2734 C2735 1.517 . S
C2734 H2797 0.961 . S
C2734 H2798 0.960 . S
C2734 H2799 0.959 . S
C2735 C2734 1.517 . S
C2735 O2783 1.468 . S
C2735 H2796 0.980 . S
C2736 C2737 1.349 . S
C2736 C2741 1.367 . S
C2736 O2783 1.408 . S
C2737 C2736 1.349 . S
C2737 C2738 1.407 . S
C2737 H2800 0.930 . S
C2738 C2737 1.407 . S
C2738 C2739 1.449 . S
C2738 C2742 1.535 . S
C2739 C2738 1.449 . S
C2739 C2740 1.384 . S
C2739 C2764 1.553 . S
C2740 C2739 1.384 . S
C2740 C2741 1.364 . S
C2740 C2743 1.450 . S
C2741 C2736 1.367 . S
C2741 C2740 1.364 . S
C2741 H2801 0.931 . S
C2742 C2738 1.535 . S
C2742 H2802 0.959 . S
C2742 H2803 0.961 . S
C2742 H2804 0.959 . S
C2743 C2740 1.450 . S
C2743 H2805 0.960 . S
C2743 H2806 0.960 . S
C2743 H2807 0.960 . S
C2744 C2745 1.309 . S
C2744 C2749 1.304 . S
C2744 O2782 1.435 . S
C2745 C2744 1.309 . S
C2745 C2746 1.476 . S
C2745 H2809 0.930 . S
C2746 C2745 1.476 . S
C2746 C2747 1.400 . S
C2746 C2750 1.567 . S
C2747 C2746 1.400 . S
C2747 C2748 1.373 . S
C2747 C2769 1.432 . S
C2748 C2747 1.373 . S
C2748 C2749 1.339 . S
C2748 C2751 1.530 . S
C2749 C2744 1.304 . S
C2749 C2748 1.339 . S
C2749 H2810 0.930 . S
C2750 C2746 1.567 . S
C2750 H2811 0.961 . S
C2750 H2812 0.960 . S
C2750 H2813 0.958 . S
C2751 C2748 1.530 . S
C2751 H2814 0.961 . S
C2751 H2815 0.960 . S
C2751 H2816 0.960 . S
C2752 C2753 1.530 . S
C2752 H2818 0.961 . S
C2752 H2819 0.961 . S
C2752 H2820 0.959 . S
C2753 C2752 1.530 . S
C2753 O2781 1.412 . S
C2753 H2817 0.980 . S
C2754 C2755 1.288 . S
C2754 C2759 1.377 . S
C2754 O2781 1.393 . S
C2755 C2754 1.288 . S
C2755 C2756 1.369 . S
C2755 H2821 0.932 . S
C2756 C2755 1.369 . S
C2756 C2757 1.398 . S
C2756 C2760 1.527 . S
C2757 C2756 1.398 . S
C2757 C2758 1.380 . S
C2757 C2771 1.497 . S
C2758 C2757 1.380 . S
C2758 C2759 1.383 . S
C2758 C2761 1.603 . S
C2759 C2754 1.377 . S
C2759 C2758 1.383 . S
C2759 H2822 0.929 . S
C2760 C2756 1.527 . S
C2760 H2823 0.961 . S
C2760 H2824 0.959 . S
C2760 H2825 0.959 . S
C2761 C2758 1.603 . S
C2761 H2826 0.960 . S
C2761 H2827 0.962 . S
C2761 H2828 0.961 . S
C2762 C2729 1.587 . S
C2762 C2763 1.360 . S
C2762 C2775 1.412 . S
C2763 C2762 1.360 . S
C2763 C2764 1.365 . S
C2763 H2829 0.929 . S
C2764 C2739 1.553 . S
C2764 C2763 1.365 . S
C2764 C2765 1.404 . S
C2765 C2764 1.404 . S
C2765 C2766 1.395 . S
C2765 C2776 1.451 . S
C2766 C2765 1.395 . S
C2766 C2767 1.322 . S
C2766 H2830 0.930 . S
C2767 C2766 1.322 . S
C2767 C2768 1.459 . S
C2767 H2831 0.929 . S
C2768 C2767 1.459 . S
C2768 C2769 1.445 . S
C2768 C2777 1.395 . S
C2769 C2747 1.432 . S
C2769 C2768 1.445 . S
C2769 C2770 1.370 . S
C2770 C2769 1.370 . S
C2770 C2771 1.438 . S
C2770 H2832 0.930 . S
C2771 C2757 1.497 . S
C2771 C2770 1.438 . S
C2771 C2772 1.360 . S
C2772 C2771 1.360 . S
C2772 C2773 1.401 . S
C2772 C2777 1.446 . S
C2773 C2772 1.401 . S
C2773 C2774 1.347 . S
C2773 H2833 0.929 . S
C2774 C2773 1.347 . S
C2774 C2775 1.455 . S
C2774 H2834 0.930 . S
C2775 C2762 1.412 . S
C2775 C2774 1.455 . S
C2775 C2776 1.331 . S
C2776 C2765 1.451 . S
C2776 C2775 1.331 . S
C2776 C2777 1.497 . S
C2777 C2768 1.395 . S
C2777 C2772 1.446 . S
C2777 C2776 1.497 . S
C2778 C2779 1.582 . S
C2778 H2835 0.962 . S
C2778 H2836 0.959 . S
C2778 H2837 0.958 . S
C2779 C2778 1.582 . S
C2779 O2782 1.458 . S
C2779 H2808 0.980 . S
O2780 C2725 1.426 . S
O2780 C2726 1.334 . S
O2781 C2753 1.412 . S
O2781 C2754 1.393 . S
O2782 C2744 1.435 . S
O2782 C2779 1.458 . S
O2783 C2735 1.468 . S
O2783 C2736 1.408 . S
H2784 C2725 0.980 . S
H2785 C2724 0.959 . S
H2786 C2724 0.959 . S
H2787 C2724 0.960 . S
H2788 C2727 0.929 . S
H2789 C2731 0.929 . S
H2790 C2732 0.959 . S
H2791 C2732 0.961 . S
H2792 C2732 0.961 . S
H2793 C2733 0.960 . S
H2794 C2733 0.960 . S
H2795 C2733 0.961 . S
H2796 C2735 0.980 . S
H2797 C2734 0.961 . S
H2798 C2734 0.960 . S
H2799 C2734 0.959 . S
H2800 C2737 0.930 . S
H2801 C2741 0.931 . S
H2802 C2742 0.959 . S
H2803 C2742 0.961 . S
H2804 C2742 0.959 . S
H2805 C2743 0.960 . S
H2806 C2743 0.960 . S
H2807 C2743 0.960 . S
H2808 C2779 0.980 . S
H2809 C2745 0.930 . S
H2810 C2749 0.930 . S
H2811 C2750 0.961 . S
H2812 C2750 0.960 . S
H2813 C2750 0.958 . S
H2814 C2751 0.961 . S
H2815 C2751 0.960 . S
H2816 C2751 0.960 . S
H2817 C2753 0.980 . S
H2818 C2752 0.961 . S
H2819 C2752 0.961 . S
H2820 C2752 0.959 . S
H2821 C2755 0.932 . S
H2822 C2759 0.929 . S
H2823 C2760 0.961 . S
H2824 C2760 0.959 . S
H2825 C2760 0.959 . S
H2826 C2761 0.960 . S
H2827 C2761 0.962 . S
H2828 C2761 0.961 . S
H2829 C2763 0.929 . S
H2830 C2766 0.930 . S
H2831 C2767 0.929 . S
H2832 C2770 0.930 . S
H2833 C2773 0.929 . S
H2834 C2774 0.930 . S
H2835 C2778 0.962 . S
H2836 C2778 0.959 . S
H2837 C2778 0.958 . S
C2838 C2839 1.560 . S
C2838 H2899 0.959 . S
C2838 H2900 0.959 . S
C2838 H2901 0.960 . S
C2839 C2838 1.560 . S
C2839 O2894 1.426 . S
C2839 H2898 0.980 . S
C2840 C2841 1.407 1_565 S
C2840 C2845 1.418 . S
C2840 O2894 1.334 . S
C2841 C2840 1.407 1_545 S
C2841 C2842 1.360 . S
C2841 H2902 0.929 . S
C2842 C2841 1.360 . S
C2842 C2843 1.401 1_545 S
C2842 C2846 1.527 . S
C2843 C2842 1.401 1_565 S
C2843 C2844 1.405 . S
C2843 C2876 1.587 1_565 S
C2844 C2843 1.405 . S
C2844 C2845 1.332 . S
C2844 C2847 1.496 . S
C2845 C2840 1.418 . S
C2845 C2844 1.332 . S
C2845 H2903 0.929 . S
C2846 C2842 1.527 . S
C2846 H2904 0.959 . S
C2846 H2905 0.961 . S
C2846 H2906 0.961 . S
C2847 C2844 1.496 . S
C2847 H2907 0.960 . S
C2847 H2908 0.960 . S
C2847 H2909 0.961 . S
C2848 C2849 1.517 . S
C2848 H2911 0.961 1_545 S
C2848 H2912 0.960 . S
C2848 H2913 0.959 . S
C2849 C2848 1.517 . S
C2849 O2897 1.468 . S
C2849 H2910 0.980 1_545 S
C2850 C2851 1.378 . S
C2850 C2855 1.367 . S
C2850 O2897 1.408 . S
C2851 C2850 1.378 . S
C2851 C2852 1.425 1_545 S
C2851 H2914 0.884 1_545 S
C2852 C2851 1.425 1_565 S
C2852 C2853 1.449 1_565 S
C2852 C2856 1.535 . S
C2853 C2852 1.449 1_545 S
C2853 C2854 1.384 . S
C2853 C2878 1.553 . S
C2854 C2853 1.384 . S
C2854 C2855 1.364 . S
C2854 C2857 1.450 . S
C2855 C2850 1.367 . S
C2855 C2854 1.364 . S
C2855 H2915 0.931 . S
C2856 C2852 1.535 . S
C2856 H2916 0.959 . S
C2856 H2917 0.961 . S
C2856 H2918 0.959 . S
C2857 C2854 1.450 . S
C2857 H2919 0.960 . S
C2857 H2920 0.960 . S
C2857 H2921 0.960 . S
C2858 C2859 1.309 . S
C2858 C2863 1.304 . S
C2858 O2896 1.435 . S
C2859 C2858 1.309 . S
C2859 C2860 1.489 1_545 S
C2859 H2923 0.930 1_545 S
C2860 C2859 1.489 1_565 S
C2860 C2861 1.356 1_565 S
C2860 C2864 1.597 . S
C2861 C2860 1.356 1_545 S
C2861 C2862 1.373 . S
C2861 C2883 1.432 . S
C2862 C2861 1.373 . S
C2862 C2863 1.339 . S
C2862 C2865 1.530 . S
C2863 C2858 1.304 . S
C2863 C2862 1.339 . S
C2863 H2924 0.930 . S
C2864 C2860 1.597 . S
C2864 H2925 0.961 . S
C2864 H2926 0.960 . S
C2864 H2927 0.958 . S
C2865 C2862 1.530 . S
C2865 H2928 0.961 . S
C2865 H2929 0.960 . S
C2865 H2930 0.960 . S
C2866 C2867 1.530 1_565 S
C2866 H2932 0.961 . S
C2866 H2933 0.961 . S
C2866 H2934 0.959 . S
C2867 C2866 1.530 1_545 S
C2867 O2895 1.412 1_545 S
C2867 H2931 0.980 . S
C2868 C2869 1.288 . S
C2868 C2873 1.377 1_565 S
C2868 O2895 1.393 . S
C2869 C2868 1.288 . S
C2869 C2870 1.369 . S
C2869 H2935 0.932 . S
C2870 C2869 1.369 . S
C2870 C2871 1.398 1_565 S
C2870 C2874 1.527 . S
C2871 C2870 1.398 1_545 S
C2871 C2872 1.380 . S
C2871 C2885 1.497 . S
C2872 C2871 1.380 . S
C2872 C2873 1.383 . S
C2872 C2875 1.603 . S
C2873 C2868 1.377 1_545 S
C2873 C2872 1.383 . S
C2873 H2936 0.929 . S
C2874 C2870 1.527 . S
C2874 H2937 0.961 . S
C2874 H2938 0.959 . S
C2874 H2939 0.959 . S
C2875 C2872 1.603 . S
C2875 H2940 0.960 . S
C2875 H2941 0.962 . S
C2875 H2942 0.961 . S
C2876 C2843 1.587 1_545 S
C2876 C2877 1.360 . S
C2876 C2889 1.412 . S
C2877 C2876 1.360 . S
C2877 C2878 1.365 . S
C2877 H2943 0.929 . S
C2878 C2853 1.553 . S
C2878 C2877 1.365 . S
C2878 C2879 1.404 . S
C2879 C2878 1.404 . S
C2879 C2880 1.395 . S
C2879 C2890 1.451 . S
C2880 C2879 1.395 . S
C2880 C2881 1.322 . S
C2880 H2944 0.930 . S
C2881 C2880 1.322 . S
C2881 C2882 1.459 . S
C2881 H2945 0.929 . S
C2882 C2881 1.459 . S
C2882 C2883 1.445 . S
C2882 C2891 1.395 . S
C2883 C2861 1.432 . S
C2883 C2882 1.445 . S
C2883 C2884 1.370 . S
C2884 C2883 1.370 . S
C2884 C2885 1.438 . S
C2884 H2946 0.930 . S
C2885 C2871 1.497 . S
C2885 C2884 1.438 . S
C2885 C2886 1.360 . S
C2886 C2885 1.360 . S
C2886 C2887 1.401 . S
C2886 C2891 1.446 . S
C2887 C2886 1.401 . S
C2887 C2888 1.347 . S
C2887 H2947 0.929 . S
C2888 C2887 1.347 . S
C2888 C2889 1.455 . S
C2888 H2948 0.930 . S
C2889 C2876 1.412 . S
C2889 C2888 1.455 . S
C2889 C2890 1.331 . S
C2890 C2879 1.451 . S
C2890 C2889 1.331 . S
C2890 C2891 1.497 . S
C2891 C2882 1.395 . S
C2891 C2886 1.446 . S
C2891 C2890 1.497 . S
C2892 C2893 1.582 . S
C2892 H2949 0.962 . S
C2892 H2950 0.959 . S
C2892 H2951 0.958 . S
C2893 C2892 1.582 . S
C2893 O2896 1.458 . S
C2893 H2922 0.980 . S
O2894 C2839 1.426 . S
O2894 C2840 1.334 . S
O2895 C2867 1.412 1_565 S
O2895 C2868 1.393 . S
O2896 C2858 1.435 . S
O2896 C2893 1.458 . S
O2897 C2849 1.468 . S
O2897 C2850 1.408 . S
H2898 C2839 0.980 . S
H2899 C2838 0.959 . S
H2900 C2838 0.959 . S
H2901 C2838 0.960 . S
H2902 C2841 0.929 . S
H2903 C2845 0.929 . S
H2904 C2846 0.959 . S
H2905 C2846 0.961 . S
H2906 C2846 0.961 . S
H2907 C2847 0.960 . S
H2908 C2847 0.960 . S
H2909 C2847 0.961 . S
H2910 C2849 0.980 1_565 S
H2911 C2848 0.961 1_565 S
H2912 C2848 0.960 . S
H2913 C2848 0.959 . S
H2914 C2851 0.884 1_565 S
H2915 C2855 0.931 . S
H2916 C2856 0.959 . S
H2917 C2856 0.961 . S
H2918 C2856 0.959 . S
H2919 C2857 0.960 . S
H2920 C2857 0.960 . S
H2921 C2857 0.960 . S
H2922 C2893 0.980 . S
H2923 C2859 0.930 1_565 S
H2924 C2863 0.930 . S
H2925 C2864 0.961 . S
H2926 C2864 0.960 . S
H2927 C2864 0.958 . S
H2928 C2865 0.961 . S
H2929 C2865 0.960 . S
H2930 C2865 0.960 . S
H2931 C2867 0.980 . S
H2932 C2866 0.961 . S
H2933 C2866 0.961 . S
H2934 C2866 0.959 . S
H2935 C2869 0.932 . S
H2936 C2873 0.929 . S
H2937 C2874 0.961 . S
H2938 C2874 0.959 . S
H2939 C2874 0.959 . S
H2940 C2875 0.960 . S
H2941 C2875 0.962 . S
H2942 C2875 0.961 . S
H2943 C2877 0.929 . S
H2944 C2880 0.930 . S
H2945 C2881 0.929 . S
H2946 C2884 0.930 . S
H2947 C2887 0.929 . S
H2948 C2888 0.930 . S
H2949 C2892 0.962 . S
H2950 C2892 0.959 . S
H2951 C2892 0.958 . S
C2952 C2953 1.560 . S
C2952 H3013 0.959 . S
C2952 H3014 0.959 . S
C2952 H3015 0.960 . S
C2953 C2952 1.560 . S
C2953 O3008 1.426 . S
C2953 H3012 0.980 1_565 S
C2954 C2955 1.407 1_565 S
C2954 C2959 1.418 . S
C2954 O3008 1.334 . S
C2955 C2954 1.407 1_545 S
C2955 C2956 1.360 . S
C2955 H3016 0.929 . S
C2956 C2955 1.360 . S
C2956 C2957 1.401 . S
C2956 C2960 1.527 . S
C2957 C2956 1.401 . S
C2957 C2958 1.405 1_545 S
C2957 C2990 1.587 . S
C2958 C2957 1.405 1_565 S
C2958 C2959 1.332 . S
C2958 C2961 1.496 . S
C2959 C2954 1.418 . S
C2959 C2958 1.332 . S
C2959 H3017 0.929 . S
C2960 C2956 1.527 . S
C2960 H3018 0.959 . S
C2960 H3019 0.961 . S
C2960 H3020 0.961 . S
C2961 C2958 1.496 . S
C2961 H3021 0.960 . S
C2961 H3022 0.960 . S
C2961 H3023 0.961 . S
C2962 C2963 1.517 . S
C2962 H3025 0.961 . S
C2962 H3026 0.960 . S
C2962 H3027 0.959 . S
C2963 C2962 1.517 . S
C2963 O3011 1.468 . S
C2963 H3024 0.980 . S
C2964 C2965 1.349 . S
C2964 C2969 1.367 . S
C2964 O3011 1.408 . S
C2965 C2964 1.349 . S
C2965 C2966 1.407 . S
C2965 H3028 0.935 . S
C2966 C2965 1.407 . S
C2966 C2967 1.449 . S
C2966 C2970 1.535 1_545 S
C2967 C2966 1.449 . S
C2967 C2968 1.384 . S
C2967 C2992 1.553 . S
C2968 C2967 1.384 . S
C2968 C2969 1.364 . S
C2968 C2971 1.450 . S
C2969 C2964 1.367 . S
C2969 C2968 1.364 . S
C2969 H3029 0.931 . S
C2970 C2966 1.535 1_565 S
C2970 H3030 0.959 . S
C2970 H3031 0.961 . S
C2970 H3032 0.959 . S
C2971 C2968 1.450 . S
C2971 H3033 0.960 . S
C2971 H3034 0.960 . S
C2971 H3035 0.960 . S
C2972 C2973 1.309 1_545 S
C2972 C2977 1.304 . S
C2972 O3010 1.435 . S
C2973 C2972 1.309 1_565 S
C2973 C2974 1.476 . S
C2973 H3037 0.930 . S
C2974 C2973 1.476 . S
C2974 C2975 1.400 1_565 S
C2974 C2978 1.567 . S
C2975 C2974 1.400 1_545 S
C2975 C2976 1.373 . S
C2975 C2997 1.432 . S
C2976 C2975 1.373 . S
C2976 C2977 1.339 . S
C2976 C2979 1.530 . S
C2977 C2972 1.304 . S
C2977 C2976 1.339 . S
C2977 H3038 0.930 . S
C2978 C2974 1.567 . S
C2978 H3039 0.961 . S
C2978 H3040 0.960 . S
C2978 H3041 0.958 . S
C2979 C2976 1.530 . S
C2979 H3042 0.961 . S
C2979 H3043 0.960 . S
C2979 H3044 0.960 . S
C2980 C2981 1.530 . S
C2980 H3046 0.961 . S
C2980 H3047 0.961 . S
C2980 H3048 0.959 . S
C2981 C2980 1.530 . S
C2981 O3009 1.412 . S
C2981 H3045 1.011 . S
C2982 C2983 1.288 . S
C2982 C2987 1.377 1_565 S
C2982 O3009 1.393 . S
C2983 C2982 1.288 . S
C2983 C2984 1.369 . S
C2983 H3049 0.932 . S
C2984 C2983 1.369 . S
C2984 C2985 1.398 . S
C2984 C2988 1.527 . S
C2985 C2984 1.398 . S
C2985 C2986 1.380 1_565 S
C2985 C2999 1.497 1_565 S
C2986 C2985 1.380 1_545 S
C2986 C2987 1.383 . S
C2986 C2989 1.603 . S
C2987 C2982 1.377 1_545 S
C2987 C2986 1.383 . S
C2987 H3050 0.929 . S
C2988 C2984 1.527 . S
C2988 H3051 0.961 . S
C2988 H3052 0.959 . S
C2988 H3053 0.959 . S
C2989 C2986 1.603 . S
C2989 H3054 0.960 . S
C2989 H3055 0.962 . S
C2989 H3056 0.961 . S
C2990 C2957 1.587 . S
C2990 C2991 1.360 . S
C2990 C3003 1.412 . S
C2991 C2990 1.360 . S
C2991 C2992 1.365 . S
C2991 H3057 0.929 . S
C2992 C2967 1.553 . S
C2992 C2991 1.365 . S
C2992 C2993 1.404 . S
C2993 C2992 1.404 . S
C2993 C2994 1.395 . S
C2993 C3004 1.451 . S
C2994 C2993 1.395 . S
C2994 C2995 1.322 . S
C2994 H3058 0.930 . S
C2995 C2994 1.322 . S
C2995 C2996 1.459 . S
C2995 H3059 0.929 . S
C2996 C2995 1.459 . S
C2996 C2997 1.445 . S
C2996 C3005 1.395 . S
C2997 C2975 1.432 . S
C2997 C2996 1.445 . S
C2997 C2998 1.370 . S
C2998 C2997 1.370 . S
C2998 C2999 1.438 . S
C2998 H3060 0.930 . S
C2999 C2985 1.497 1_545 S
C2999 C2998 1.438 . S
C2999 C3000 1.360 . S
C3000 C2999 1.360 . S
C3000 C3001 1.401 . S
C3000 C3005 1.446 . S
C3001 C3000 1.401 . S
C3001 C3002 1.347 . S
C3001 H3061 0.959 . S
C3002 C3001 1.347 . S
C3002 C3003 1.455 . S
C3002 H3062 0.930 . S
C3003 C2990 1.412 . S
C3003 C3002 1.455 . S
C3003 C3004 1.331 . S
C3004 C2993 1.451 . S
C3004 C3003 1.331 . S
C3004 C3005 1.497 . S
C3005 C2996 1.395 . S
C3005 C3000 1.446 . S
C3005 C3004 1.497 . S
C3006 C3007 1.630 . S
C3006 H3063 0.962 . S
C3006 H3064 0.959 . S
C3006 H3065 0.958 . S
C3007 C3006 1.630 . S
C3007 O3010 1.477 . S
C3007 H3036 0.981 1_545 S
O3008 C2953 1.426 . S
O3008 C2954 1.334 . S
O3009 C2981 1.412 . S
O3009 C2982 1.393 . S
O3010 C2972 1.435 . S
O3010 C3007 1.477 . S
O3011 C2963 1.468 . S
O3011 C2964 1.408 . S
H3012 C2953 0.980 1_545 S
H3013 C2952 0.959 . S
H3014 C2952 0.959 . S
H3015 C2952 0.960 . S
H3016 C2955 0.929 . S
H3017 C2959 0.929 . S
H3018 C2960 0.959 . S
H3019 C2960 0.961 . S
H3020 C2960 0.961 . S
H3021 C2961 0.960 . S
H3022 C2961 0.960 . S
H3023 C2961 0.961 . S
H3024 C2963 0.980 . S
H3025 C2962 0.961 . S
H3026 C2962 0.960 . S
H3027 C2962 0.959 . S
H3028 C2965 0.935 . S
H3029 C2969 0.931 . S
H3030 C2970 0.959 . S
H3031 C2970 0.961 . S
H3032 C2970 0.959 . S
H3033 C2971 0.960 . S
H3034 C2971 0.960 . S
H3035 C2971 0.960 . S
H3036 C3007 0.981 1_565 S
H3037 C2973 0.930 . S
H3038 C2977 0.930 . S
H3039 C2978 0.961 . S
H3040 C2978 0.960 . S
H3041 C2978 0.958 . S
H3042 C2979 0.961 . S
H3043 C2979 0.960 . S
H3044 C2979 0.960 . S
H3045 C2981 1.011 . S
H3046 C2980 0.961 . S
H3047 C2980 0.961 . S
H3048 C2980 0.959 . S
H3049 C2983 0.932 . S
H3050 C2987 0.929 . S
H3051 C2988 0.961 . S
H3052 C2988 0.959 . S
H3053 C2988 0.959 . S
H3054 C2989 0.960 . S
H3055 C2989 0.962 . S
H3056 C2989 0.961 . S
H3057 C2991 0.929 . S
H3058 C2994 0.930 . S
H3059 C2995 0.929 . S
H3060 C2998 0.930 . S
H3061 C3001 0.959 . S
H3062 C3002 0.930 . S
H3063 C3006 0.962 . S
H3064 C3006 0.959 . S
H3065 C3006 0.958 . S
C3066 C3067 1.560 . S
C3066 H3127 0.959 . S
C3066 H3128 0.959 . S
C3066 H3129 0.960 . S
C3067 C3066 1.560 . S
C3067 O3122 1.426 . S
C3067 H3126 0.980 1_455 S
C3068 C3069 1.407 1_455 S
C3068 C3073 1.418 . S
C3068 O3122 1.334 . S
C3069 C3068 1.407 1_655 S
C3069 C3070 1.360 . S
C3069 H3130 0.929 . S
C3070 C3069 1.360 . S
C3070 C3071 1.401 . S
C3070 C3074 1.527 . S
C3071 C3070 1.401 . S
C3071 C3072 1.405 1_655 S
C3071 C3104 1.587 . S
C3072 C3071 1.405 1_455 S
C3072 C3073 1.332 . S
C3072 C3075 1.496 . S
C3073 C3068 1.418 . S
C3073 C3072 1.332 . S
C3073 H3131 0.929 . S
C3074 C3070 1.527 . S
C3074 H3132 0.959 . S
C3074 H3133 0.961 . S
C3074 H3134 0.961 . S
C3075 C3072 1.496 . S
C3075 H3135 0.960 . S
C3075 H3136 0.960 . S
C3075 H3137 0.961 . S
C3076 C3077 1.517 . S
C3076 H3139 0.961 . S
C3076 H3140 0.960 . S
C3076 H3141 0.959 . S
C3077 C3076 1.517 . S
C3077 O3125 1.468 . S
C3077 H3138 0.980 . S
C3078 C3079 1.349 . S
C3078 C3083 1.367 . S
C3078 O3125 1.408 . S
C3079 C3078 1.349 . S
C3079 C3080 1.407 . S
C3079 H3142 0.940 1_655 S
C3080 C3079 1.407 . S
C3080 C3081 1.449 . S
C3080 C3084 1.535 1_655 S
C3081 C3080 1.449 . S
C3081 C3082 1.384 . S
C3081 C3106 1.553 . S
C3082 C3081 1.384 . S
C3082 C3083 1.364 . S
C3082 C3085 1.450 . S
C3083 C3078 1.367 . S
C3083 C3082 1.364 . S
C3083 H3143 0.931 . S
C3084 C3080 1.535 1_455 S
C3084 H3144 0.959 . S
C3084 H3145 0.961 . S
C3084 H3146 0.959 . S
C3085 C3082 1.450 . S
C3085 H3147 0.960 . S
C3085 H3148 0.960 . S
C3085 H3149 0.960 . S
C3086 C3087 1.309 1_655 S
C3086 C3091 1.304 . S
C3086 O3124 1.435 . S
C3087 C3086 1.309 1_455 S
C3087 C3088 1.476 . S
C3087 H3151 0.930 . S
C3088 C3087 1.476 . S
C3088 C3089 1.400 1_455 S
C3088 C3092 1.567 . S
C3089 C3088 1.400 1_655 S
C3089 C3090 1.373 . S
C3089 C3111 1.432 . S
C3090 C3089 1.373 . S
C3090 C3091 1.339 . S
C3090 C3093 1.530 . S
C3091 C3086 1.304 . S
C3091 C3090 1.339 . S
C3091 H3152 0.930 . S
C3092 C3088 1.567 . S
C3092 H3153 0.961 . S
C3092 H3154 0.960 . S
C3092 H3155 0.958 . S
C3093 C3090 1.530 . S
C3093 H3156 0.961 . S
C3093 H3157 0.960 . S
C3093 H3158 0.960 . S
C3094 C3095 1.530 . S
C3094 H3160 0.961 . S
C3094 H3161 0.961 . S
C3094 H3162 0.959 . S
C3095 C3094 1.530 . S
C3095 O3123 1.412 . S
C3095 H3159 0.988 . S
C3096 C3097 1.288 . S
C3096 C3101 1.377 1_455 S
C3096 O3123 1.393 . S
C3097 C3096 1.288 . S
C3097 C3098 1.369 . S
C3097 H3163 0.932 . S
C3098 C3097 1.369 . S
C3098 C3099 1.398 . S
C3098 C3102 1.527 . S
C3099 C3098 1.398 . S
C3099 C3100 1.380 1_455 S
C3099 C3113 1.497 1_455 S
C3100 C3099 1.380 1_655 S
C3100 C3101 1.383 . S
C3100 C3103 1.603 . S
C3101 C3096 1.377 1_655 S
C3101 C3100 1.383 . S
C3101 H3164 0.929 . S
C3102 C3098 1.527 . S
C3102 H3165 0.961 . S
C3102 H3166 0.959 . S
C3102 H3167 0.959 . S
C3103 C3100 1.603 . S
C3103 H3168 0.960 . S
C3103 H3169 0.962 . S
C3103 H3170 0.961 . S
C3104 C3071 1.587 . S
C3104 C3105 1.360 . S
C3104 C3117 1.412 . S
C3105 C3104 1.360 . S
C3105 C3106 1.365 . S
C3105 H3171 0.929 . S
C3106 C3081 1.553 . S
C3106 C3105 1.365 . S
C3106 C3107 1.404 . S
C3107 C3106 1.404 . S
C3107 C3108 1.395 . S
C3107 C3118 1.451 . S
C3108 C3107 1.395 . S
C3108 C3109 1.322 . S
C3108 H3172 0.930 . S
C3109 C3108 1.322 . S
C3109 C3110 1.459 . S
C3109 H3173 0.929 . S
C3110 C3109 1.459 . S
C3110 C3111 1.445 . S
C3110 C3119 1.395 . S
C3111 C3089 1.432 . S
C3111 C3110 1.445 . S
C3111 C3112 1.370 . S
C3112 C3111 1.370 . S
C3112 C3113 1.438 . S
C3112 H3174 0.930 . S
C3113 C3099 1.497 1_655 S
C3113 C3112 1.438 . S
C3113 C3114 1.360 . S
C3114 C3113 1.360 . S
C3114 C3115 1.401 . S
C3114 C3119 1.446 . S
C3115 C3114 1.401 . S
C3115 C3116 1.347 . S
C3115 H3175 0.910 . S
C3116 C3115 1.347 . S
C3116 C3117 1.455 . S
C3116 H3176 0.930 . S
C3117 C3104 1.412 . S
C3117 C3116 1.455 . S
C3117 C3118 1.331 . S
C3118 C3107 1.451 . S
C3118 C3117 1.331 . S
C3118 C3119 1.497 . S
C3119 C3110 1.395 . S
C3119 C3114 1.446 . S
C3119 C3118 1.497 . S
C3120 C3121 1.582 1_655 S
C3120 H3177 0.951 1_655 S
C3120 H3178 0.959 . S
C3120 H3179 0.958 . S
C3121 C3120 1.582 1_455 S
C3121 O3124 1.377 1_455 S
C3121 H3150 1.014 . S
O3122 C3067 1.426 . S
O3122 C3068 1.334 . S
O3123 C3095 1.412 . S
O3123 C3096 1.393 . S
O3124 C3086 1.435 . S
O3124 C3121 1.377 1_655 S
O3125 C3077 1.468 . S
O3125 C3078 1.408 . S
H3126 C3067 0.980 1_655 S
H3127 C3066 0.959 . S
H3128 C3066 0.959 . S
H3129 C3066 0.960 . S
H3130 C3069 0.929 . S
H3131 C3073 0.929 . S
H3132 C3074 0.959 . S
H3133 C3074 0.961 . S
H3134 C3074 0.961 . S
H3135 C3075 0.960 . S
H3136 C3075 0.960 . S
H3137 C3075 0.961 . S
H3138 C3077 0.980 . S
H3139 C3076 0.961 . S
H3140 C3076 0.960 . S
H3141 C3076 0.959 . S
H3142 C3079 0.940 1_455 S
H3143 C3083 0.931 . S
H3144 C3084 0.959 . S
H3145 C3084 0.961 . S
H3146 C3084 0.959 . S
H3147 C3085 0.960 . S
H3148 C3085 0.960 . S
H3149 C3085 0.960 . S
H3150 C3121 1.014 . S
H3151 C3087 0.930 . S
H3152 C3091 0.930 . S
H3153 C3092 0.961 . S
H3154 C3092 0.960 . S
H3155 C3092 0.958 . S
H3156 C3093 0.961 . S
H3157 C3093 0.960 . S
H3158 C3093 0.960 . S
H3159 C3095 0.988 . S
H3160 C3094 0.961 . S
H3161 C3094 0.961 . S
H3162 C3094 0.959 . S
H3163 C3097 0.932 . S
H3164 C3101 0.929 . S
H3165 C3102 0.961 . S
H3166 C3102 0.959 . S
H3167 C3102 0.959 . S
H3168 C3103 0.960 . S
H3169 C3103 0.962 . S
H3170 C3103 0.961 . S
H3171 C3105 0.929 . S
H3172 C3108 0.930 . S
H3173 C3109 0.929 . S
H3174 C3112 0.930 . S
H3175 C3115 0.910 . S
H3176 C3116 0.930 . S
H3177 C3120 0.951 1_455 S
H3178 C3120 0.959 . S
H3179 C3120 0.958 . S
C3180 C3181 1.560 . S
C3180 H3241 0.959 . S
C3180 H3242 0.959 . S
C3180 H3243 0.960 . S
C3181 C3180 1.560 . S
C3181 O3236 1.426 . S
C3181 H3240 0.980 . S
C3182 C3183 1.407 . S
C3182 C3187 1.418 . S
C3182 O3236 1.334 . S
C3183 C3182 1.407 . S
C3183 C3184 1.360 . S
C3183 H3244 0.929 . S
C3184 C3183 1.360 . S
C3184 C3185 1.401 . S
C3184 C3188 1.527 . S
C3185 C3184 1.401 . S
C3185 C3186 1.405 . S
C3185 C3218 1.587 . S
C3186 C3185 1.405 . S
C3186 C3187 1.332 . S
C3186 C3189 1.496 . S
C3187 C3182 1.418 . S
C3187 C3186 1.332 . S
C3187 H3245 0.929 . S
C3188 C3184 1.527 . S
C3188 H3246 0.959 . S
C3188 H3247 0.961 . S
C3188 H3248 0.961 . S
C3189 C3186 1.496 . S
C3189 H3249 0.960 . S
C3189 H3250 0.960 . S
C3189 H3251 0.961 . S
C3190 C3191 1.517 . S
C3190 H3253 0.961 . S
C3190 H3254 0.960 . S
C3190 H3255 0.959 . S
C3191 C3190 1.517 . S
C3191 O3239 1.468 . S
C3191 H3252 0.980 . S
C3192 C3193 1.349 . S
C3192 C3197 1.367 . S
C3192 O3239 1.408 . S
C3193 C3192 1.349 . S
C3193 C3194 1.407 . S
C3193 H3256 0.930 . S
C3194 C3193 1.407 . S
C3194 C3195 1.449 . S
C3194 C3198 1.535 . S
C3195 C3194 1.449 . S
C3195 C3196 1.384 . S
C3195 C3220 1.553 . S
C3196 C3195 1.384 . S
C3196 C3197 1.364 . S
C3196 C3199 1.450 . S
C3197 C3192 1.367 . S
C3197 C3196 1.364 . S
C3197 H3257 0.931 . S
C3198 C3194 1.535 . S
C3198 H3258 0.959 . S
C3198 H3259 0.961 . S
C3198 H3260 0.959 . S
C3199 C3196 1.450 . S
C3199 H3261 0.960 . S
C3199 H3262 0.960 . S
C3199 H3263 0.960 . S
C3200 C3201 1.309 . S
C3200 C3205 1.304 . S
C3200 O3238 1.435 . S
C3201 C3200 1.309 . S
C3201 C3202 1.476 . S
C3201 H3265 0.930 . S
C3202 C3201 1.476 . S
C3202 C3203 1.400 . S
C3202 C3206 1.567 . S
C3203 C3202 1.400 . S
C3203 C3204 1.373 . S
C3203 C3225 1.432 . S
C3204 C3203 1.373 . S
C3204 C3205 1.339 . S
C3204 C3207 1.530 . S
C3205 C3200 1.304 . S
C3205 C3204 1.339 . S
C3205 H3266 0.930 . S
C3206 C3202 1.567 . S
C3206 H3267 0.961 . S
C3206 H3268 0.960 . S
C3206 H3269 0.958 . S
C3207 C3204 1.530 . S
C3207 H3270 0.961 . S
C3207 H3271 0.960 . S
C3207 H3272 0.960 . S
C3208 C3209 1.530 . S
C3208 H3274 0.961 . S
C3208 H3275 0.961 . S
C3208 H3276 0.959 . S
C3209 C3208 1.530 . S
C3209 O3237 1.412 . S
C3209 H3273 0.980 . S
C3210 C3211 1.288 . S
C3210 C3215 1.377 . S
C3210 O3237 1.393 . S
C3211 C3210 1.288 . S
C3211 C3212 1.369 . S
C3211 H3277 0.932 . S
C3212 C3211 1.369 . S
C3212 C3213 1.398 . S
C3212 C3216 1.527 . S
C3213 C3212 1.398 . S
C3213 C3214 1.380 . S
C3213 C3227 1.497 . S
C3214 C3213 1.380 . S
C3214 C3215 1.383 . S
C3214 C3217 1.603 . S
C3215 C3210 1.377 . S
C3215 C3214 1.383 . S
C3215 H3278 0.929 . S
C3216 C3212 1.527 . S
C3216 H3279 0.961 . S
C3216 H3280 0.959 . S
C3216 H3281 0.959 . S
C3217 C3214 1.603 . S
C3217 H3282 0.960 . S
C3217 H3283 0.962 . S
C3217 H3284 0.961 . S
C3218 C3185 1.587 . S
C3218 C3219 1.360 . S
C3218 C3231 1.412 . S
C3219 C3218 1.360 . S
C3219 C3220 1.365 . S
C3219 H3285 0.929 . S
C3220 C3195 1.553 . S
C3220 C3219 1.365 . S
C3220 C3221 1.404 . S
C3221 C3220 1.404 . S
C3221 C3222 1.395 . S
C3221 C3232 1.451 . S
C3222 C3221 1.395 . S
C3222 C3223 1.322 . S
C3222 H3286 0.930 . S
C3223 C3222 1.322 . S
C3223 C3224 1.459 . S
C3223 H3287 0.929 . S
C3224 C3223 1.459 . S
C3224 C3225 1.445 . S
C3224 C3233 1.395 . S
C3225 C3203 1.432 . S
C3225 C3224 1.445 . S
C3225 C3226 1.370 . S
C3226 C3225 1.370 . S
C3226 C3227 1.438 . S
C3226 H3288 0.930 . S
C3227 C3213 1.497 . S
C3227 C3226 1.438 . S
C3227 C3228 1.360 . S
C3228 C3227 1.360 . S
C3228 C3229 1.401 . S
C3228 C3233 1.446 . S
C3229 C3228 1.401 . S
C3229 C3230 1.347 . S
C3229 H3289 0.929 . S
C3230 C3229 1.347 . S
C3230 C3231 1.455 . S
C3230 H3290 0.930 . S
C3231 C3218 1.412 . S
C3231 C3230 1.455 . S
C3231 C3232 1.331 . S
C3232 C3221 1.451 . S
C3232 C3231 1.331 . S
C3232 C3233 1.497 . S
C3233 C3224 1.395 . S
C3233 C3228 1.446 . S
C3233 C3232 1.497 . S
C3234 C3235 1.582 . S
C3234 H3291 0.962 . S
C3234 H3292 0.959 . S
C3234 H3293 0.958 . S
C3235 C3234 1.582 . S
C3235 O3238 1.458 . S
C3235 H3264 0.980 . S
O3236 C3181 1.426 . S
O3236 C3182 1.334 . S
O3237 C3209 1.412 . S
O3237 C3210 1.393 . S
O3238 C3200 1.435 . S
O3238 C3235 1.458 . S
O3239 C3191 1.468 . S
O3239 C3192 1.408 . S
H3240 C3181 0.980 . S
H3241 C3180 0.959 . S
H3242 C3180 0.959 . S
H3243 C3180 0.960 . S
H3244 C3183 0.929 . S
H3245 C3187 0.929 . S
H3246 C3188 0.959 . S
H3247 C3188 0.961 . S
H3248 C3188 0.961 . S
H3249 C3189 0.960 . S
H3250 C3189 0.960 . S
H3251 C3189 0.961 . S
H3252 C3191 0.980 . S
H3253 C3190 0.961 . S
H3254 C3190 0.960 . S
H3255 C3190 0.959 . S
H3256 C3193 0.930 . S
H3257 C3197 0.931 . S
H3258 C3198 0.959 . S
H3259 C3198 0.961 . S
H3260 C3198 0.959 . S
H3261 C3199 0.960 . S
H3262 C3199 0.960 . S
H3263 C3199 0.960 . S
H3264 C3235 0.980 . S
H3265 C3201 0.930 . S
H3266 C3205 0.930 . S
H3267 C3206 0.961 . S
H3268 C3206 0.960 . S
H3269 C3206 0.958 . S
H3270 C3207 0.961 . S
H3271 C3207 0.960 . S
H3272 C3207 0.960 . S
H3273 C3209 0.980 . S
H3274 C3208 0.961 . S
H3275 C3208 0.961 . S
H3276 C3208 0.959 . S
H3277 C3211 0.932 . S
H3278 C3215 0.929 . S
H3279 C3216 0.961 . S
H3280 C3216 0.959 . S
H3281 C3216 0.959 . S
H3282 C3217 0.960 . S
H3283 C3217 0.962 . S
H3284 C3217 0.961 . S
H3285 C3219 0.929 . S
H3286 C3222 0.930 . S
H3287 C3223 0.929 . S
H3288 C3226 0.930 . S
H3289 C3229 0.929 . S
H3290 C3230 0.930 . S
H3291 C3234 0.962 . S
H3292 C3234 0.959 . S
H3293 C3234 0.958 . S
C3294 C3295 1.560 . S
C3294 H3355 0.959 . S
C3294 H3356 0.959 . S
C3294 H3357 0.960 . S
C3295 C3294 1.560 . S
C3295 O3350 1.426 . S
C3295 H3354 0.980 . S
C3296 C3297 1.407 . S
C3296 C3301 1.418 . S
C3296 O3350 1.334 . S
C3297 C3296 1.407 . S
C3297 C3298 1.360 . S
C3297 H3358 0.929 . S
C3298 C3297 1.360 . S
C3298 C3299 1.401 . S
C3298 C3302 1.527 . S
C3299 C3298 1.401 . S
C3299 C3300 1.405 . S
C3299 C3332 1.587 . S
C3300 C3299 1.405 . S
C3300 C3301 1.332 . S
C3300 C3303 1.496 . S
C3301 C3296 1.418 . S
C3301 C3300 1.332 . S
C3301 H3359 0.929 . S
C3302 C3298 1.527 . S
C3302 H3360 0.959 . S
C3302 H3361 0.961 . S
C3302 H3362 0.961 . S
C3303 C3300 1.496 . S
C3303 H3363 0.960 . S
C3303 H3364 0.960 . S
C3303 H3365 0.961 . S
C3304 C3305 1.517 . S
C3304 H3367 0.961 . S
C3304 H3368 0.960 . S
C3304 H3369 0.959 . S
C3305 C3304 1.517 . S
C3305 O3353 1.468 . S
C3305 H3366 0.980 . S
C3306 C3307 1.349 . S
C3306 C3311 1.367 . S
C3306 O3353 1.408 . S
C3307 C3306 1.349 . S
C3307 C3308 1.407 . S
C3307 H3370 0.930 . S
C3308 C3307 1.407 . S
C3308 C3309 1.449 . S
C3308 C3312 1.535 . S
C3309 C3308 1.449 . S
C3309 C3310 1.384 . S
C3309 C3334 1.553 . S
C3310 C3309 1.384 . S
C3310 C3311 1.364 . S
C3310 C3313 1.450 . S
C3311 C3306 1.367 . S
C3311 C3310 1.364 . S
C3311 H3371 0.931 . S
C3312 C3308 1.535 . S
C3312 H3372 0.959 . S
C3312 H3373 0.961 . S
C3312 H3374 0.959 . S
C3313 C3310 1.450 . S
C3313 H3375 0.960 . S
C3313 H3376 0.960 . S
C3313 H3377 0.960 . S
C3314 C3315 1.309 . S
C3314 C3319 1.304 . S
C3314 O3352 1.435 . S
C3315 C3314 1.309 . S
C3315 C3316 1.476 . S
C3315 H3379 0.930 . S
C3316 C3315 1.476 . S
C3316 C3317 1.400 . S
C3316 C3320 1.567 . S
C3317 C3316 1.400 . S
C3317 C3318 1.373 . S
C3317 C3339 1.432 . S
C3318 C3317 1.373 . S
C3318 C3319 1.339 . S
C3318 C3321 1.530 . S
C3319 C3314 1.304 . S
C3319 C3318 1.339 . S
C3319 H3380 0.930 . S
C3320 C3316 1.567 . S
C3320 H3381 0.961 . S
C3320 H3382 0.960 . S
C3320 H3383 0.958 . S
C3321 C3318 1.530 . S
C3321 H3384 0.961 . S
C3321 H3385 0.960 . S
C3321 H3386 0.960 . S
C3322 C3323 1.530 . S
C3322 H3388 0.961 . S
C3322 H3389 0.961 . S
C3322 H3390 0.959 . S
C3323 C3322 1.530 . S
C3323 O3351 1.412 . S
C3323 H3387 0.980 . S
C3324 C3325 1.288 . S
C3324 C3329 1.377 . S
C3324 O3351 1.393 . S
C3325 C3324 1.288 . S
C3325 C3326 1.369 . S
C3325 H3391 0.932 . S
C3326 C3325 1.369 . S
C3326 C3327 1.398 . S
C3326 C3330 1.527 . S
C3327 C3326 1.398 . S
C3327 C3328 1.380 . S
C3327 C3341 1.497 . S
C3328 C3327 1.380 . S
C3328 C3329 1.383 . S
C3328 C3331 1.603 . S
C3329 C3324 1.377 . S
C3329 C3328 1.383 . S
C3329 H3392 0.929 . S
C3330 C3326 1.527 . S
C3330 H3393 0.961 . S
C3330 H3394 0.959 . S
C3330 H3395 0.959 . S
C3331 C3328 1.603 . S
C3331 H3396 0.960 . S
C3331 H3397 0.962 . S
C3331 H3398 0.961 . S
C3332 C3299 1.587 . S
C3332 C3333 1.360 . S
C3332 C3345 1.412 . S
C3333 C3332 1.360 . S
C3333 C3334 1.365 . S
C3333 H3399 0.929 . S
C3334 C3309 1.553 . S
C3334 C3333 1.365 . S
C3334 C3335 1.404 . S
C3335 C3334 1.404 . S
C3335 C3336 1.395 . S
C3335 C3346 1.451 . S
C3336 C3335 1.395 . S
C3336 C3337 1.322 . S
C3336 H3400 0.930 . S
C3337 C3336 1.322 . S
C3337 C3338 1.459 . S
C3337 H3401 0.929 . S
C3338 C3337 1.459 . S
C3338 C3339 1.445 . S
C3338 C3347 1.395 . S
C3339 C3317 1.432 . S
C3339 C3338 1.445 . S
C3339 C3340 1.370 . S
C3340 C3339 1.370 . S
C3340 C3341 1.438 . S
C3340 H3402 0.930 . S
C3341 C3327 1.497 . S
C3341 C3340 1.438 . S
C3341 C3342 1.360 . S
C3342 C3341 1.360 . S
C3342 C3343 1.401 . S
C3342 C3347 1.446 . S
C3343 C3342 1.401 . S
C3343 C3344 1.347 . S
C3343 H3403 0.929 . S
C3344 C3343 1.347 . S
C3344 C3345 1.455 . S
C3344 H3404 0.930 . S
C3345 C3332 1.412 . S
C3345 C3344 1.455 . S
C3345 C3346 1.331 . S
C3346 C3335 1.451 . S
C3346 C3345 1.331 . S
C3346 C3347 1.497 . S
C3347 C3338 1.395 . S
C3347 C3342 1.446 . S
C3347 C3346 1.497 . S
C3348 C3349 1.582 . S
C3348 H3405 0.962 . S
C3348 H3406 0.959 . S
C3348 H3407 0.958 . S
C3349 C3348 1.582 . S
C3349 O3352 1.458 . S
C3349 H3378 0.980 . S
O3350 C3295 1.426 . S
O3350 C3296 1.334 . S
O3351 C3323 1.412 . S
O3351 C3324 1.393 . S
O3352 C3314 1.435 . S
O3352 C3349 1.458 . S
O3353 C3305 1.468 . S
O3353 C3306 1.408 . S
H3354 C3295 0.980 . S
H3355 C3294 0.959 . S
H3356 C3294 0.959 . S
H3357 C3294 0.960 . S
H3358 C3297 0.929 . S
H3359 C3301 0.929 . S
H3360 C3302 0.959 . S
H3361 C3302 0.961 . S
H3362 C3302 0.961 . S
H3363 C3303 0.960 . S
H3364 C3303 0.960 . S
H3365 C3303 0.961 . S
H3366 C3305 0.980 . S
H3367 C3304 0.961 . S
H3368 C3304 0.960 . S
H3369 C3304 0.959 . S
H3370 C3307 0.930 . S
H3371 C3311 0.931 . S
H3372 C3312 0.959 . S
H3373 C3312 0.961 . S
H3374 C3312 0.959 . S
H3375 C3313 0.960 . S
H3376 C3313 0.960 . S
H3377 C3313 0.960 . S
H3378 C3349 0.980 . S
H3379 C3315 0.930 . S
H3380 C3319 0.930 . S
H3381 C3320 0.961 . S
H3382 C3320 0.960 . S
H3383 C3320 0.958 . S
H3384 C3321 0.961 . S
H3385 C3321 0.960 . S
H3386 C3321 0.960 . S
H3387 C3323 0.980 . S
H3388 C3322 0.961 . S
H3389 C3322 0.961 . S
H3390 C3322 0.959 . S
H3391 C3325 0.932 . S
H3392 C3329 0.929 . S
H3393 C3330 0.961 . S
H3394 C3330 0.959 . S
H3395 C3330 0.959 . S
H3396 C3331 0.960 . S
H3397 C3331 0.962 . S
H3398 C3331 0.961 . S
H3399 C3333 0.929 . S
H3400 C3336 0.930 . S
H3401 C3337 0.929 . S
H3402 C3340 0.930 . S
H3403 C3343 0.929 . S
H3404 C3344 0.930 . S
H3405 C3348 0.962 . S
H3406 C3348 0.959 . S
H3407 C3348 0.958 . S
C3408 C3409 1.560 . S
C3408 H3469 0.959 . S
C3408 H3470 0.959 . S
C3408 H3471 0.960 . S
C3409 C3408 1.560 . S
C3409 O3464 1.426 . S
C3409 H3468 0.980 . S
C3410 C3411 1.407 . S
C3410 C3415 1.418 . S
C3410 O3464 1.334 . S
C3411 C3410 1.407 . S
C3411 C3412 1.360 . S
C3411 H3472 0.929 . S
C3412 C3411 1.360 . S
C3412 C3413 1.401 . S
C3412 C3416 1.527 . S
C3413 C3412 1.401 . S
C3413 C3414 1.405 . S
C3413 C3446 1.587 . S
C3414 C3413 1.405 . S
C3414 C3415 1.332 . S
C3414 C3417 1.496 . S
C3415 C3410 1.418 . S
C3415 C3414 1.332 . S
C3415 H3473 0.929 . S
C3416 C3412 1.527 . S
C3416 H3474 0.959 . S
C3416 H3475 0.961 . S
C3416 H3476 0.961 . S
C3417 C3414 1.496 . S
C3417 H3477 0.960 . S
C3417 H3478 0.960 . S
C3417 H3479 0.961 . S
C3418 C3419 1.517 . S
C3418 H3481 0.961 . S
C3418 H3482 0.960 . S
C3418 H3483 0.959 . S
C3419 C3418 1.517 . S
C3419 O3467 1.468 . S
C3419 H3480 0.980 . S
C3420 C3421 1.349 . S
C3420 C3425 1.367 . S
C3420 O3467 1.408 . S
C3421 C3420 1.349 . S
C3421 C3422 1.407 . S
C3421 H3484 0.930 . S
C3422 C3421 1.407 . S
C3422 C3423 1.449 . S
C3422 C3426 1.535 . S
C3423 C3422 1.449 . S
C3423 C3424 1.384 . S
C3423 C3448 1.553 . S
C3424 C3423 1.384 . S
C3424 C3425 1.364 . S
C3424 C3427 1.450 . S
C3425 C3420 1.367 . S
C3425 C3424 1.364 . S
C3425 H3485 0.931 . S
C3426 C3422 1.535 . S
C3426 H3486 0.959 . S
C3426 H3487 0.961 . S
C3426 H3488 0.959 . S
C3427 C3424 1.450 . S
C3427 H3489 0.960 . S
C3427 H3490 0.960 . S
C3427 H3491 0.960 . S
C3428 C3429 1.309 . S
C3428 C3433 1.304 . S
C3428 O3466 1.435 . S
C3429 C3428 1.309 . S
C3429 C3430 1.476 . S
C3429 H3493 0.930 . S
C3430 C3429 1.476 . S
C3430 C3431 1.400 . S
C3430 C3434 1.567 . S
C3431 C3430 1.400 . S
C3431 C3432 1.373 . S
C3431 C3453 1.432 . S
C3432 C3431 1.373 . S
C3432 C3433 1.339 . S
C3432 C3435 1.530 . S
C3433 C3428 1.304 . S
C3433 C3432 1.339 . S
C3433 H3494 0.930 . S
C3434 C3430 1.567 . S
C3434 H3495 0.961 . S
C3434 H3496 0.960 . S
C3434 H3497 0.958 . S
C3435 C3432 1.530 . S
C3435 H3498 0.961 . S
C3435 H3499 0.960 . S
C3435 H3500 0.960 . S
C3436 C3437 1.530 . S
C3436 H3502 0.961 . S
C3436 H3503 0.961 . S
C3436 H3504 0.959 . S
C3437 C3436 1.530 . S
C3437 O3465 1.412 . S
C3437 H3501 0.980 . S
C3438 C3439 1.288 . S
C3438 C3443 1.377 . S
C3438 O3465 1.393 . S
C3439 C3438 1.288 . S
C3439 C3440 1.369 . S
C3439 H3505 0.932 . S
C3440 C3439 1.369 . S
C3440 C3441 1.398 . S
C3440 C3444 1.527 . S
C3441 C3440 1.398 . S
C3441 C3442 1.380 . S
C3441 C3455 1.497 . S
C3442 C3441 1.380 . S
C3442 C3443 1.383 . S
C3442 C3445 1.603 . S
C3443 C3438 1.377 . S
C3443 C3442 1.383 . S
C3443 H3506 0.929 . S
C3444 C3440 1.527 . S
C3444 H3507 0.961 . S
C3444 H3508 0.959 . S
C3444 H3509 0.959 . S
C3445 C3442 1.603 . S
C3445 H3510 0.960 . S
C3445 H3511 0.962 . S
C3445 H3512 0.961 . S
C3446 C3413 1.587 . S
C3446 C3447 1.360 . S
C3446 C3459 1.412 . S
C3447 C3446 1.360 . S
C3447 C3448 1.365 . S
C3447 H3513 0.929 . S
C3448 C3423 1.553 . S
C3448 C3447 1.365 . S
C3448 C3449 1.404 . S
C3449 C3448 1.404 . S
C3449 C3450 1.395 . S
C3449 C3460 1.451 . S
C3450 C3449 1.395 . S
C3450 C3451 1.322 . S
C3450 H3514 0.930 . S
C3451 C3450 1.322 . S
C3451 C3452 1.459 . S
C3451 H3515 0.929 . S
C3452 C3451 1.459 . S
C3452 C3453 1.445 . S
C3452 C3461 1.395 . S
C3453 C3431 1.432 . S
C3453 C3452 1.445 . S
C3453 C3454 1.370 . S
C3454 C3453 1.370 . S
C3454 C3455 1.438 . S
C3454 H3516 0.930 . S
C3455 C3441 1.497 . S
C3455 C3454 1.438 . S
C3455 C3456 1.360 . S
C3456 C3455 1.360 . S
C3456 C3457 1.401 . S
C3456 C3461 1.446 . S
C3457 C3456 1.401 . S
C3457 C3458 1.347 . S
C3457 H3517 0.929 . S
C3458 C3457 1.347 . S
C3458 C3459 1.455 . S
C3458 H3518 0.930 . S
C3459 C3446 1.412 . S
C3459 C3458 1.455 . S
C3459 C3460 1.331 . S
C3460 C3449 1.451 . S
C3460 C3459 1.331 . S
C3460 C3461 1.497 . S
C3461 C3452 1.395 . S
C3461 C3456 1.446 . S
C3461 C3460 1.497 . S
C3462 C3463 1.582 . S
C3462 H3519 0.962 . S
C3462 H3520 0.959 . S
C3462 H3521 0.958 . S
C3463 C3462 1.582 . S
C3463 O3466 1.458 . S
C3463 H3492 0.980 . S
O3464 C3409 1.426 . S
O3464 C3410 1.334 . S
O3465 C3437 1.412 . S
O3465 C3438 1.393 . S
O3466 C3428 1.435 . S
O3466 C3463 1.458 . S
O3467 C3419 1.468 . S
O3467 C3420 1.408 . S
H3468 C3409 0.980 . S
H3469 C3408 0.959 . S
H3470 C3408 0.959 . S
H3471 C3408 0.960 . S
H3472 C3411 0.929 . S
H3473 C3415 0.929 . S
H3474 C3416 0.959 . S
H3475 C3416 0.961 . S
H3476 C3416 0.961 . S
H3477 C3417 0.960 . S
H3478 C3417 0.960 . S
H3479 C3417 0.961 . S
H3480 C3419 0.980 . S
H3481 C3418 0.961 . S
H3482 C3418 0.960 . S
H3483 C3418 0.959 . S
H3484 C3421 0.930 . S
H3485 C3425 0.931 . S
H3486 C3426 0.959 . S
H3487 C3426 0.961 . S
H3488 C3426 0.959 . S
H3489 C3427 0.960 . S
H3490 C3427 0.960 . S
H3491 C3427 0.960 . S
H3492 C3463 0.980 . S
H3493 C3429 0.930 . S
H3494 C3433 0.930 . S
H3495 C3434 0.961 . S
H3496 C3434 0.960 . S
H3497 C3434 0.958 . S
H3498 C3435 0.961 . S
H3499 C3435 0.960 . S
H3500 C3435 0.960 . S
H3501 C3437 0.980 . S
H3502 C3436 0.961 . S
H3503 C3436 0.961 . S
H3504 C3436 0.959 . S
H3505 C3439 0.932 . S
H3506 C3443 0.929 . S
H3507 C3444 0.961 . S
H3508 C3444 0.959 . S
H3509 C3444 0.959 . S
H3510 C3445 0.960 . S
H3511 C3445 0.962 . S
H3512 C3445 0.961 . S
H3513 C3447 0.929 . S
H3514 C3450 0.930 . S
H3515 C3451 0.929 . S
H3516 C3454 0.930 . S
H3517 C3457 0.929 . S
H3518 C3458 0.930 . S
H3519 C3462 0.962 . S
H3520 C3462 0.959 . S
H3521 C3462 0.958 . S
C3522 C3523 1.560 . S
C3522 H3583 0.959 . S
C3522 H3584 0.959 . S
C3522 H3585 0.960 . S
C3523 C3522 1.560 . S
C3523 O3578 1.426 . S
C3523 H3582 0.980 . S
C3524 C3525 1.407 . S
C3524 C3529 1.418 . S
C3524 O3578 1.334 . S
C3525 C3524 1.407 . S
C3525 C3526 1.360 . S
C3525 H3586 0.929 . S
C3526 C3525 1.360 . S
C3526 C3527 1.401 . S
C3526 C3530 1.527 . S
C3527 C3526 1.401 . S
C3527 C3528 1.405 . S
C3527 C3560 1.587 . S
C3528 C3527 1.405 . S
C3528 C3529 1.332 . S
C3528 C3531 1.496 . S
C3529 C3524 1.418 . S
C3529 C3528 1.332 . S
C3529 H3587 0.929 . S
C3530 C3526 1.527 . S
C3530 H3588 0.959 . S
C3530 H3589 0.961 . S
C3530 H3590 0.961 . S
C3531 C3528 1.496 . S
C3531 H3591 0.960 . S
C3531 H3592 0.960 . S
C3531 H3593 0.961 . S
C3532 C3533 1.517 . S
C3532 H3595 0.961 . S
C3532 H3596 0.960 . S
C3532 H3597 0.959 . S
C3533 C3532 1.517 . S
C3533 O3581 1.468 . S
C3533 H3594 0.980 . S
C3534 C3535 1.349 . S
C3534 C3539 1.367 . S
C3534 O3581 1.408 . S
C3535 C3534 1.349 . S
C3535 C3536 1.407 . S
C3535 H3598 0.930 . S
C3536 C3535 1.407 . S
C3536 C3537 1.449 . S
C3536 C3540 1.535 . S
C3537 C3536 1.449 . S
C3537 C3538 1.384 . S
C3537 C3562 1.553 . S
C3538 C3537 1.384 . S
C3538 C3539 1.364 . S
C3538 C3541 1.450 . S
C3539 C3534 1.367 . S
C3539 C3538 1.364 . S
C3539 H3599 0.931 . S
C3540 C3536 1.535 . S
C3540 H3600 0.959 . S
C3540 H3601 0.961 . S
C3540 H3602 0.959 . S
C3541 C3538 1.450 . S
C3541 H3603 0.960 . S
C3541 H3604 0.960 . S
C3541 H3605 0.960 . S
C3542 C3543 1.309 . S
C3542 C3547 1.304 . S
C3542 O3580 1.435 . S
C3543 C3542 1.309 . S
C3543 C3544 1.476 . S
C3543 H3607 0.930 . S
C3544 C3543 1.476 . S
C3544 C3545 1.400 . S
C3544 C3548 1.567 . S
C3545 C3544 1.400 . S
C3545 C3546 1.373 . S
C3545 C3567 1.432 . S
C3546 C3545 1.373 . S
C3546 C3547 1.339 . S
C3546 C3549 1.530 . S
C3547 C3542 1.304 . S
C3547 C3546 1.339 . S
C3547 H3608 0.930 . S
C3548 C3544 1.567 . S
C3548 H3609 0.961 . S
C3548 H3610 0.960 . S
C3548 H3611 0.958 . S
C3549 C3546 1.530 . S
C3549 H3612 0.961 . S
C3549 H3613 0.960 . S
C3549 H3614 0.960 . S
C3550 C3551 1.530 . S
C3550 H3616 0.961 . S
C3550 H3617 0.961 . S
C3550 H3618 0.959 . S
C3551 C3550 1.530 . S
C3551 O3579 1.412 . S
C3551 H3615 0.980 . S
C3552 C3553 1.288 . S
C3552 C3557 1.377 . S
C3552 O3579 1.393 . S
C3553 C3552 1.288 . S
C3553 C3554 1.369 . S
C3553 H3619 0.932 . S
C3554 C3553 1.369 . S
C3554 C3555 1.398 . S
C3554 C3558 1.527 . S
C3555 C3554 1.398 . S
C3555 C3556 1.380 . S
C3555 C3569 1.497 . S
C3556 C3555 1.380 . S
C3556 C3557 1.383 . S
C3556 C3559 1.603 . S
C3557 C3552 1.377 . S
C3557 C3556 1.383 . S
C3557 H3620 0.929 . S
C3558 C3554 1.527 . S
C3558 H3621 0.961 . S
C3558 H3622 0.959 . S
C3558 H3623 0.959 . S
C3559 C3556 1.603 . S
C3559 H3624 0.960 . S
C3559 H3625 0.962 . S
C3559 H3626 0.961 . S
C3560 C3527 1.587 . S
C3560 C3561 1.360 . S
C3560 C3573 1.412 . S
C3561 C3560 1.360 . S
C3561 C3562 1.365 . S
C3561 H3627 0.929 . S
C3562 C3537 1.553 . S
C3562 C3561 1.365 . S
C3562 C3563 1.404 . S
C3563 C3562 1.404 . S
C3563 C3564 1.395 . S
C3563 C3574 1.451 . S
C3564 C3563 1.395 . S
C3564 C3565 1.322 . S
C3564 H3628 0.930 . S
C3565 C3564 1.322 . S
C3565 C3566 1.459 . S
C3565 H3629 0.929 . S
C3566 C3565 1.459 . S
C3566 C3567 1.445 . S
C3566 C3575 1.395 . S
C3567 C3545 1.432 . S
C3567 C3566 1.445 . S
C3567 C3568 1.370 . S
C3568 C3567 1.370 . S
C3568 C3569 1.438 . S
C3568 H3630 0.930 . S
C3569 C3555 1.497 . S
C3569 C3568 1.438 . S
C3569 C3570 1.360 . S
C3570 C3569 1.360 . S
C3570 C3571 1.401 . S
C3570 C3575 1.446 . S
C3571 C3570 1.401 . S
C3571 C3572 1.347 . S
C3571 H3631 0.929 . S
C3572 C3571 1.347 . S
C3572 C3573 1.455 . S
C3572 H3632 0.930 . S
C3573 C3560 1.412 . S
C3573 C3572 1.455 . S
C3573 C3574 1.331 . S
C3574 C3563 1.451 . S
C3574 C3573 1.331 . S
C3574 C3575 1.497 . S
C3575 C3566 1.395 . S
C3575 C3570 1.446 . S
C3575 C3574 1.497 . S
C3576 C3577 1.582 . S
C3576 H3633 0.962 . S
C3576 H3634 0.959 . S
C3576 H3635 0.958 . S
C3577 C3576 1.582 . S
C3577 O3580 1.458 . S
C3577 H3606 0.980 . S
O3578 C3523 1.426 . S
O3578 C3524 1.334 . S
O3579 C3551 1.412 . S
O3579 C3552 1.393 . S
O3580 C3542 1.435 . S
O3580 C3577 1.458 . S
O3581 C3533 1.468 . S
O3581 C3534 1.408 . S
H3582 C3523 0.980 . S
H3583 C3522 0.959 . S
H3584 C3522 0.959 . S
H3585 C3522 0.960 . S
H3586 C3525 0.929 . S
H3587 C3529 0.929 . S
H3588 C3530 0.959 . S
H3589 C3530 0.961 . S
H3590 C3530 0.961 . S
H3591 C3531 0.960 . S
H3592 C3531 0.960 . S
H3593 C3531 0.961 . S
H3594 C3533 0.980 . S
H3595 C3532 0.961 . S
H3596 C3532 0.960 . S
H3597 C3532 0.959 . S
H3598 C3535 0.930 . S
H3599 C3539 0.931 . S
H3600 C3540 0.959 . S
H3601 C3540 0.961 . S
H3602 C3540 0.959 . S
H3603 C3541 0.960 . S
H3604 C3541 0.960 . S
H3605 C3541 0.960 . S
H3606 C3577 0.980 . S
H3607 C3543 0.930 . S
H3608 C3547 0.930 . S
H3609 C3548 0.961 . S
H3610 C3548 0.960 . S
H3611 C3548 0.958 . S
H3612 C3549 0.961 . S
H3613 C3549 0.960 . S
H3614 C3549 0.960 . S
H3615 C3551 0.980 . S
H3616 C3550 0.961 . S
H3617 C3550 0.961 . S
H3618 C3550 0.959 . S
H3619 C3553 0.932 . S
H3620 C3557 0.929 . S
H3621 C3558 0.961 . S
H3622 C3558 0.959 . S
H3623 C3558 0.959 . S
H3624 C3559 0.960 . S
H3625 C3559 0.962 . S
H3626 C3559 0.961 . S
H3627 C3561 0.929 . S
H3628 C3564 0.930 . S
H3629 C3565 0.929 . S
H3630 C3568 0.930 . S
H3631 C3571 0.929 . S
H3632 C3572 0.930 . S
H3633 C3576 0.962 . S
H3634 C3576 0.959 . S
H3635 C3576 0.958 . S
H3636 C3648 0.930 . S
H3637 C3650 0.930 . S
H3638 C3651 0.930 1_455 S
H3639 C3655 0.959 . S
H3640 C3655 0.959 . S
H3641 C3655 0.961 . S
H3642 C3656 0.960 . S
H3643 C3656 0.961 . S
H3644 C3656 0.959 . S
H3645 C3659 0.929 . S
H3646 C3660 0.931 . S
H3647 C3662 0.930 . S
C3648 H3636 0.930 . S
C3648 C3649 1.399 . S
C3648 C3653 1.399 . S
C3649 C3648 1.399 . S
C3649 C3650 1.376 . S
C3650 H3637 0.930 . S
C3650 C3649 1.376 . S
C3650 C3651 1.388 . S
C3651 H3638 0.930 1_655 S
C3651 C3650 1.388 . S
C3651 C3652 1.390 . S
C3652 C3651 1.390 . S
C3652 C3653 1.394 . S
C3652 C3658 1.465 . S
C3653 C3648 1.399 . S
C3653 C3652 1.394 . S
C3653 C3654 1.516 . S
C3654 C3653 1.516 . S
C3654 C3655 1.502 . S
C3654 C3656 1.561 . S
C3654 C3657 1.526 . S
C3655 H3639 0.959 . S
C3655 H3640 0.959 . S
C3655 H3641 0.961 . S
C3655 C3654 1.502 . S
C3656 H3642 0.960 . S
C3656 H3643 0.961 . S
C3656 H3644 0.959 . S
C3656 C3654 1.561 . S
C3657 C3654 1.526 . S
C3657 C3658 1.396 . S
C3657 C3662 1.390 . S
C3658 C3652 1.465 . S
C3658 C3657 1.396 . S
C3658 C3659 1.399 1_655 S
C3659 H3645 0.929 . S
C3659 C3658 1.399 1_455 S
C3659 C3660 1.385 . S
C3660 H3646 0.931 . S
C3660 C3659 1.385 . S
C3660 C3661 1.389 1_455 S
C3661 C3660 1.389 1_655 S
C3661 C3662 1.387 . S
C3662 H3647 0.930 . S
C3662 C3657 1.390 . S
C3662 C3661 1.387 . S
H3663 C3675 0.930 . S
H3664 C3677 0.930 . S
H3665 C3678 0.930 . S
H3666 C3682 0.959 . S
H3667 C3682 0.959 . S
H3668 C3682 0.961 . S
H3669 C3683 0.960 . S
H3670 C3683 0.961 . S
H3671 C3683 0.959 . S
H3672 C3686 0.929 . S
H3673 C3687 0.931 . S
H3674 C3689 0.930 . S
C3675 H3663 0.930 . S
C3675 C3676 1.399 . S
C3675 C3680 1.399 . S
C3676 C3675 1.399 . S
C3676 C3677 1.376 . S
C3677 H3664 0.930 . S
C3677 C3676 1.376 . S
C3677 C3678 1.388 . S
C3678 H3665 0.930 . S
C3678 C3677 1.388 . S
C3678 C3679 1.390 . S
C3679 C3678 1.390 . S
C3679 C3680 1.394 . S
C3679 C3685 1.465 . S
C3680 C3675 1.399 . S
C3680 C3679 1.394 . S
C3680 C3681 1.516 . S
C3681 C3680 1.516 . S
C3681 C3682 1.502 . S
C3681 C3683 1.561 . S
C3681 C3684 1.526 . S
C3682 H3666 0.959 . S
C3682 H3667 0.959 . S
C3682 H3668 0.961 . S
C3682 C3681 1.502 . S
C3683 H3669 0.960 . S
C3683 H3670 0.961 . S
C3683 H3671 0.959 . S
C3683 C3681 1.561 . S
C3684 C3681 1.526 . S
C3684 C3685 1.396 . S
C3684 C3689 1.390 . S
C3685 C3679 1.465 . S
C3685 C3684 1.396 . S
C3685 C3686 1.399 . S
C3686 H3672 0.929 . S
C3686 C3685 1.399 . S
C3686 C3687 1.385 . S
C3687 H3673 0.931 . S
C3687 C3686 1.385 . S
C3687 C3688 1.389 . S
C3688 C3687 1.389 . S
C3688 C3689 1.387 . S
C3689 H3674 0.930 . S
C3689 C3684 1.390 . S
C3689 C3688 1.387 . S
H3690 C3702 0.930 . S
H3691 C3704 0.930 . S
H3692 C3705 0.930 . S
H3693 C3709 0.959 . S
H3694 C3709 0.959 . S
H3695 C3709 0.961 . S
H3696 C3710 0.960 . S
H3697 C3710 0.961 . S
H3698 C3710 0.959 . S
H3699 C3713 0.929 . S
H3700 C3714 0.931 . S
H3701 C3716 0.930 1_565 S
C3702 H3690 0.930 . S
C3702 C3703 1.399 . S
C3702 C3707 1.399 . S
C3703 C3702 1.399 . S
C3703 C3704 1.376 . S
C3704 H3691 0.930 . S
C3704 C3703 1.376 . S
C3704 C3705 1.388 . S
C3705 H3692 0.930 . S
C3705 C3704 1.388 . S
C3705 C3706 1.390 . S
C3706 C3705 1.390 . S
C3706 C3707 1.394 . S
C3706 C3712 1.465 . S
C3707 C3702 1.399 . S
C3707 C3706 1.394 . S
C3707 C3708 1.524 . S
C3708 C3707 1.524 . S
C3708 C3709 1.500 1_545 S
C3708 C3710 1.555 1_545 S
C3708 C3711 1.526 . S
C3709 H3693 0.959 . S
C3709 H3694 0.959 . S
C3709 H3695 0.961 . S
C3709 C3708 1.500 1_565 S
C3710 H3696 0.960 . S
C3710 H3697 0.961 . S
C3710 H3698 0.959 . S
C3710 C3708 1.555 1_565 S
C3711 C3708 1.526 . S
C3711 C3712 1.396 . S
C3711 C3716 1.390 . S
C3712 C3706 1.465 . S
C3712 C3711 1.396 . S
C3712 C3713 1.399 . S
C3713 H3699 0.929 . S
C3713 C3712 1.399 . S
C3713 C3714 1.385 . S
C3714 H3700 0.931 . S
C3714 C3713 1.385 . S
C3714 C3715 1.389 . S
C3715 C3714 1.389 . S
C3715 C3716 1.387 . S
C3716 H3701 0.930 1_545 S
C3716 C3711 1.390 . S
C3716 C3715 1.387 . S
H3717 C3729 0.930 . S
H3718 C3731 0.931 . S
H3719 C3732 0.928 1_545 S
H3720 C3736 0.959 . S
H3721 C3736 0.959 . S
H3722 C3736 0.961 . S
H3723 C3737 0.960 . S
H3724 C3737 0.961 . S
H3725 C3737 0.959 . S
H3726 C3740 0.929 . S
H3727 C3741 0.931 . S
H3728 C3743 0.930 . S
C3729 H3717 0.930 . S
C3729 C3730 1.399 . S
C3729 C3734 1.399 . S
C3730 C3729 1.399 . S
C3730 C3731 1.376 . S
C3731 H3718 0.931 . S
C3731 C3730 1.376 . S
C3731 C3732 1.388 . S
C3732 H3719 0.928 1_565 S
C3732 C3731 1.388 . S
C3732 C3733 1.392 . S
C3733 C3732 1.392 . S
C3733 C3734 1.394 . S
C3733 C3739 1.465 . S
C3734 C3729 1.399 . S
C3734 C3733 1.394 . S
C3734 C3735 1.516 . S
C3735 C3734 1.516 . S
C3735 C3736 1.502 . S
C3735 C3737 1.561 . S
C3735 C3738 1.526 . S
C3736 H3720 0.959 . S
C3736 H3721 0.959 . S
C3736 H3722 0.961 . S
C3736 C3735 1.502 . S
C3737 H3723 0.960 . S
C3737 H3724 0.961 . S
C3737 H3725 0.959 . S
C3737 C3735 1.561 . S
C3738 C3735 1.526 . S
C3738 C3739 1.396 . S
C3738 C3743 1.390 . S
C3739 C3733 1.465 . S
C3739 C3738 1.396 . S
C3739 C3740 1.399 1_565 S
C3740 H3726 0.929 . S
C3740 C3739 1.399 1_545 S
C3740 C3741 1.385 . S
C3741 H3727 0.931 . S
C3741 C3740 1.385 . S
C3741 C3742 1.389 1_545 S
C3742 C3741 1.389 1_565 S
C3742 C3743 1.387 . S
C3743 H3728 0.930 . S
C3743 C3738 1.390 . S
C3743 C3742 1.387 . S
H3744 C3756 0.930 . S
H3745 C3758 0.930 . S
H3746 C3759 0.930 . S
H3747 C3763 0.959 . S
H3748 C3763 0.959 . S
H3749 C3763 0.961 . S
H3750 C3764 0.960 . S
H3751 C3764 0.961 . S
H3752 C3764 0.959 . S
H3753 C3767 0.929 . S
H3754 C3768 0.931 1_655 S
H3755 C3770 0.930 . S
C3756 H3744 0.930 . S
C3756 C3757 1.399 . S
C3756 C3761 1.399 . S
C3757 C3756 1.399 . S
C3757 C3758 1.376 . S
C3758 H3745 0.930 . S
C3758 C3757 1.376 . S
C3758 C3759 1.388 . S
C3759 H3746 0.930 . S
C3759 C3758 1.388 . S
C3759 C3760 1.390 . S
C3760 C3759 1.390 . S
C3760 C3761 1.394 . S
C3760 C3766 1.465 . S
C3761 C3756 1.399 . S
C3761 C3760 1.394 . S
C3761 C3762 1.516 . S
C3762 C3761 1.516 . S
C3762 C3763 1.502 . S
C3762 C3764 1.561 . S
C3762 C3765 1.526 . S
C3763 H3747 0.959 . S
C3763 H3748 0.959 . S
C3763 H3749 0.961 . S
C3763 C3762 1.502 . S
C3764 H3750 0.960 . S
C3764 H3751 0.961 . S
C3764 H3752 0.959 . S
C3764 C3762 1.561 . S
C3765 C3762 1.526 . S
C3765 C3766 1.396 . S
C3765 C3770 1.390 . S
C3766 C3760 1.465 . S
C3766 C3765 1.396 . S
C3766 C3767 1.399 . S
C3767 H3753 0.929 . S
C3767 C3766 1.399 . S
C3767 C3768 1.385 . S
C3768 H3754 0.931 1_455 S
C3768 C3767 1.385 . S
C3768 C3769 1.389 . S
C3769 C3768 1.389 . S
C3769 C3770 1.387 . S
C3770 H3755 0.930 . S
C3770 C3765 1.390 . S
C3770 C3769 1.387 . S
H3771 C3783 0.930 . S
H3772 C3785 0.930 . S
H3773 C3786 0.930 . S
H3774 C3790 0.959 . S
H3775 C3790 0.959 . S
H3776 C3790 0.961 . S
H3777 C3791 0.960 . S
H3778 C3791 0.961 . S
H3779 C3791 0.959 . S
H3780 C3794 0.929 . S
H3781 C3795 0.931 . S
H3782 C3797 0.930 . S
C3783 H3771 0.930 . S
C3783 C3784 1.399 . S
C3783 C3788 1.399 . S
C3784 C3783 1.399 . S
C3784 C3785 1.376 . S
C3785 H3772 0.930 . S
C3785 C3784 1.376 . S
C3785 C3786 1.388 . S
C3786 H3773 0.930 . S
C3786 C3785 1.388 . S
C3786 C3787 1.390 . S
C3787 C3786 1.390 . S
C3787 C3788 1.394 . S
C3787 C3793 1.465 . S
C3788 C3783 1.399 . S
C3788 C3787 1.394 . S
C3788 C3789 1.516 . S
C3789 C3788 1.516 . S
C3789 C3790 1.502 . S
C3789 C3791 1.561 . S
C3789 C3792 1.526 . S
C3790 H3774 0.959 . S
C3790 H3775 0.959 . S
C3790 H3776 0.961 . S
C3790 C3789 1.502 . S
C3791 H3777 0.960 . S
C3791 H3778 0.961 . S
C3791 H3779 0.959 . S
C3791 C3789 1.561 . S
C3792 C3789 1.526 . S
C3792 C3793 1.396 . S
C3792 C3797 1.390 . S
C3793 C3787 1.465 . S
C3793 C3792 1.396 . S
C3793 C3794 1.399 . S
C3794 H3780 0.929 . S
C3794 C3793 1.399 . S
C3794 C3795 1.385 . S
C3795 H3781 0.931 . S
C3795 C3794 1.385 . S
C3795 C3796 1.389 . S
C3796 C3795 1.389 . S
C3796 C3797 1.387 . S
C3797 H3782 0.930 . S
C3797 C3792 1.390 . S
C3797 C3796 1.387 . S
H3798 C3810 0.930 . S
H3799 C3812 0.930 . S
H3800 C3813 0.930 . S
H3801 C3817 0.959 . S
H3802 C3817 0.959 . S
H3803 C3817 0.960 1_455 S
H3804 C3818 0.960 . S
H3805 C3818 0.961 . S
H3806 C3818 0.959 . S
H3807 C3821 0.929 . S
H3808 C3822 0.931 . S
H3809 C3824 0.930 . S
C3810 H3798 0.930 . S
C3810 C3811 1.399 . S
C3810 C3815 1.399 . S
C3811 C3810 1.399 . S
C3811 C3812 1.376 . S
C3812 H3799 0.930 . S
C3812 C3811 1.376 . S
C3812 C3813 1.388 . S
C3813 H3800 0.930 . S
C3813 C3812 1.388 . S
C3813 C3814 1.390 . S
C3814 C3813 1.390 . S
C3814 C3815 1.394 . S
C3814 C3820 1.465 . S
C3815 C3810 1.399 . S
C3815 C3814 1.394 . S
C3815 C3816 1.516 . S
C3816 C3815 1.516 . S
C3816 C3817 1.502 1_455 S
C3816 C3818 1.561 . S
C3816 C3819 1.526 . S
C3817 H3801 0.959 . S
C3817 H3802 0.959 . S
C3817 H3803 0.960 1_655 S
C3817 C3816 1.502 1_655 S
C3818 H3804 0.960 . S
C3818 H3805 0.961 . S
C3818 H3806 0.959 . S
C3818 C3816 1.561 . S
C3819 C3816 1.526 . S
C3819 C3820 1.396 . S
C3819 C3824 1.390 . S
C3820 C3814 1.465 . S
C3820 C3819 1.396 . S
C3820 C3821 1.399 . S
C3821 H3807 0.929 . S
C3821 C3820 1.399 . S
C3821 C3822 1.385 . S
C3822 H3808 0.931 . S
C3822 C3821 1.385 . S
C3822 C3823 1.389 . S
C3823 C3822 1.389 . S
C3823 C3824 1.387 . S
C3824 H3809 0.930 . S
C3824 C3819 1.390 . S
C3824 C3823 1.387 . S
H3825 C3837 0.930 . S
H3826 C3839 0.930 . S
H3827 C3840 0.930 . S
H3828 C3844 0.959 . S
H3829 C3844 0.959 . S
H3830 C3844 0.961 . S
H3831 C3845 0.960 . S
H3832 C3845 0.961 . S
H3833 C3845 0.959 . S
H3834 C3848 0.929 . S
H3835 C3849 0.931 . S
H3836 C3851 0.930 . S
C3837 H3825 0.930 . S
C3837 C3838 1.399 . S
C3837 C3842 1.399 . S
C3838 C3837 1.399 . S
C3838 C3839 1.376 . S
C3839 H3826 0.930 . S
C3839 C3838 1.376 . S
C3839 C3840 1.388 . S
C3840 H3827 0.930 . S
C3840 C3839 1.388 . S
C3840 C3841 1.390 . S
C3841 C3840 1.390 . S
C3841 C3842 1.394 . S
C3841 C3847 1.465 . S
C3842 C3837 1.399 . S
C3842 C3841 1.394 . S
C3842 C3843 1.516 . S
C3843 C3842 1.516 . S
C3843 C3844 1.502 . S
C3843 C3845 1.561 . S
C3843 C3846 1.526 . S
C3844 H3828 0.959 . S
C3844 H3829 0.959 . S
C3844 H3830 0.961 . S
C3844 C3843 1.502 . S
C3845 H3831 0.960 . S
C3845 H3832 0.961 . S
C3845 H3833 0.959 . S
C3845 C3843 1.561 . S
C3846 C3843 1.526 . S
C3846 C3847 1.396 . S
C3846 C3851 1.390 . S
C3847 C3841 1.465 . S
C3847 C3846 1.396 . S
C3847 C3848 1.399 . S
C3848 H3834 0.929 . S
C3848 C3847 1.399 . S
C3848 C3849 1.385 . S
C3849 H3835 0.931 . S
C3849 C3848 1.385 . S
C3849 C3850 1.389 . S
C3850 C3849 1.389 . S
C3850 C3851 1.387 . S
C3851 H3836 0.930 . S
C3851 C3846 1.390 . S
C3851 C3850 1.387 . S
H3852 C3864 0.930 . S
H3853 C3866 0.930 . S
H3854 C3867 0.913 1_545 S
H3855 C3871 0.959 . S
H3856 C3871 0.959 . S
H3857 C3871 0.961 . S
H3858 C3872 0.960 . S
H3859 C3872 0.961 . S
H3860 C3872 0.959 . S
H3861 C3875 0.929 . S
H3862 C3876 0.931 . S
H3863 C3878 0.930 . S
C3864 H3852 0.930 . S
C3864 C3865 1.399 . S
C3864 C3869 1.399 . S
C3865 C3864 1.399 . S
C3865 C3866 1.376 . S
C3866 H3853 0.930 . S
C3866 C3865 1.376 . S
C3866 C3867 1.388 . S
C3867 H3854 0.913 1_565 S
C3867 C3866 1.388 . S
C3867 C3868 1.390 . S
C3868 C3867 1.390 . S
C3868 C3869 1.394 . S
C3868 C3874 1.465 . S
C3869 C3864 1.399 . S
C3869 C3868 1.394 . S
C3869 C3870 1.516 . S
C3870 C3869 1.516 . S
C3870 C3871 1.502 . S
C3870 C3872 1.561 . S
C3870 C3873 1.526 . S
C3871 H3855 0.959 . S
C3871 H3856 0.959 . S
C3871 H3857 0.961 . S
C3871 C3870 1.502 . S
C3872 H3858 0.960 . S
C3872 H3859 0.961 . S
C3872 H3860 0.959 . S
C3872 C3870 1.561 . S
C3873 C3870 1.526 . S
C3873 C3874 1.396 . S
C3873 C3878 1.390 . S
C3874 C3868 1.465 . S
C3874 C3873 1.396 . S
C3874 C3875 1.399 1_565 S
C3875 H3861 0.929 . S
C3875 C3874 1.399 1_545 S
C3875 C3876 1.385 . S
C3876 H3862 0.931 . S
C3876 C3875 1.385 . S
C3876 C3877 1.389 1_545 S
C3877 C3876 1.389 1_565 S
C3877 C3878 1.387 . S
C3878 H3863 0.930 . S
C3878 C3873 1.390 . S
C3878 C3877 1.387 . S
H3879 C3891 0.930 . S
H3880 C3893 0.930 . S
H3881 C3894 0.930 . S
H3882 C3898 0.959 . S
H3883 C3898 0.959 . S
H3884 C3898 0.961 . S
H3885 C3899 0.960 . S
H3886 C3899 0.961 . S
H3887 C3899 0.959 . S
H3888 C3902 0.931 . S
H3889 C3903 0.931 . S
H3890 C3905 0.930 . S
C3891 H3879 0.930 . S
C3891 C3892 1.399 . S
C3891 C3896 1.399 . S
C3892 C3891 1.399 . S
C3892 C3893 1.376 . S
C3893 H3880 0.930 . S
C3893 C3892 1.376 . S
C3893 C3894 1.388 . S
C3894 H3881 0.930 . S
C3894 C3893 1.388 . S
C3894 C3895 1.390 . S
C3895 C3894 1.390 . S
C3895 C3896 1.394 . S
C3895 C3901 1.465 . S
C3896 C3891 1.399 . S
C3896 C3895 1.394 . S
C3896 C3897 1.516 . S
C3897 C3896 1.516 . S
C3897 C3898 1.502 . S
C3897 C3899 1.561 . S
C3897 C3900 1.526 . S
C3898 H3882 0.959 . S
C3898 H3883 0.959 . S
C3898 H3884 0.961 . S
C3898 C3897 1.502 . S
C3899 H3885 0.960 . S
C3899 H3886 0.961 . S
C3899 H3887 0.959 . S
C3899 C3897 1.561 . S
C3900 C3897 1.526 . S
C3900 C3901 1.396 . S
C3900 C3905 1.390 . S
C3901 C3895 1.465 . S
C3901 C3900 1.396 . S
C3901 C3902 1.399 . S
C3902 H3888 0.931 . S
C3902 C3901 1.399 . S
C3902 C3903 1.391 1_545 S
C3903 H3889 0.931 . S
C3903 C3902 1.391 1_565 S
C3903 C3904 1.387 1_565 S
C3904 C3903 1.387 1_545 S
C3904 C3905 1.387 . S
C3905 H3890 0.930 . S
C3905 C3900 1.390 . S
C3905 C3904 1.387 . S
H3906 C3918 0.930 . S
H3907 C3920 0.930 . S
H3908 C3921 0.930 . S
H3909 C3925 0.959 . S
H3910 C3925 0.959 . S
H3911 C3925 0.961 . S
H3912 C3926 0.960 . S
H3913 C3926 0.961 . S
H3914 C3926 0.959 . S
H3915 C3929 0.929 . S
H3916 C3930 0.931 . S
H3917 C3932 0.912 1_455 S
C3918 H3906 0.930 . S
C3918 C3919 1.399 . S
C3918 C3923 1.399 . S
C3919 C3918 1.399 . S
C3919 C3920 1.376 . S
C3920 H3907 0.930 . S
C3920 C3919 1.376 . S
C3920 C3921 1.388 . S
C3921 H3908 0.930 . S
C3921 C3920 1.388 . S
C3921 C3922 1.390 . S
C3922 C3921 1.390 . S
C3922 C3923 1.394 . S
C3922 C3928 1.465 . S
C3923 C3918 1.399 . S
C3923 C3922 1.394 . S
C3923 C3924 1.516 . S
C3924 C3923 1.516 . S
C3924 C3925 1.502 1_655 S
C3924 C3926 1.561 . S
C3924 C3927 1.526 . S
C3925 H3909 0.959 . S
C3925 H3910 0.959 . S
C3925 H3911 0.961 . S
C3925 C3924 1.502 1_455 S
C3926 H3912 0.960 . S
C3926 H3913 0.961 . S
C3926 H3914 0.959 . S
C3926 C3924 1.561 . S
C3927 C3924 1.526 . S
C3927 C3928 1.396 . S
C3927 C3932 1.418 . S
C3928 C3922 1.465 . S
C3928 C3927 1.396 . S
C3928 C3929 1.399 . S
C3929 H3915 0.929 . S
C3929 C3928 1.399 . S
C3929 C3930 1.385 . S
C3930 H3916 0.931 . S
C3930 C3929 1.385 . S
C3930 C3931 1.389 . S
C3931 C3930 1.389 . S
C3931 C3932 1.378 . S
C3932 H3917 0.912 1_655 S
C3932 C3927 1.418 . S
C3932 C3931 1.378 . S
H3933 C3945 0.930 . S
H3934 C3947 0.930 . S
H3935 C3948 0.930 . S
H3936 C3952 0.959 . S
H3937 C3952 0.959 . S
H3938 C3952 0.961 . S
H3939 C3953 0.960 . S
H3940 C3953 0.961 . S
H3941 C3953 0.959 . S
H3942 C3956 0.929 . S
H3943 C3957 0.931 . S
H3944 C3959 0.930 . S
C3945 H3933 0.930 . S
C3945 C3946 1.399 . S
C3945 C3950 1.399 . S
C3946 C3945 1.399 . S
C3946 C3947 1.376 . S
C3947 H3934 0.930 . S
C3947 C3946 1.376 . S
C3947 C3948 1.388 . S
C3948 H3935 0.930 . S
C3948 C3947 1.388 . S
C3948 C3949 1.390 . S
C3949 C3948 1.390 . S
C3949 C3950 1.394 . S
C3949 C3955 1.465 . S
C3950 C3945 1.399 . S
C3950 C3949 1.394 . S
C3950 C3951 1.516 . S
C3951 C3950 1.516 . S
C3951 C3952 1.502 . S
C3951 C3953 1.561 . S
C3951 C3954 1.526 . S
C3952 H3936 0.959 . S
C3952 H3937 0.959 . S
C3952 H3938 0.961 . S
C3952 C3951 1.502 . S
C3953 H3939 0.960 . S
C3953 H3940 0.961 . S
C3953 H3941 0.959 . S
C3953 C3951 1.561 . S
C3954 C3951 1.526 . S
C3954 C3955 1.396 . S
C3954 C3959 1.390 . S
C3955 C3949 1.465 . S
C3955 C3954 1.396 . S
C3955 C3956 1.399 . S
C3956 H3942 0.929 . S
C3956 C3955 1.399 . S
C3956 C3957 1.385 . S
C3957 H3943 0.931 . S
C3957 C3956 1.385 . S
C3957 C3958 1.389 . S
C3958 C3957 1.389 . S
C3958 C3959 1.387 . S
C3959 H3944 0.930 . S
C3959 C3954 1.390 . S
C3959 C3958 1.387 . S
H3960 C3972 0.930 . S
H3961 C3974 0.930 . S
H3962 C3975 0.930 . S
H3963 C3979 0.959 . S
H3964 C3979 0.959 . S
H3965 C3979 0.961 . S
H3966 C3980 0.960 . S
H3967 C3980 0.961 . S
H3968 C3980 0.959 . S
H3969 C3983 0.929 . S
H3970 C3984 0.931 . S
H3971 C3986 0.930 . S
C3972 H3960 0.930 . S
C3972 C3973 1.399 . S
C3972 C3977 1.399 . S
C3973 C3972 1.399 . S
C3973 C3974 1.376 . S
C3974 H3961 0.930 . S
C3974 C3973 1.376 . S
C3974 C3975 1.388 . S
C3975 H3962 0.930 . S
C3975 C3974 1.388 . S
C3975 C3976 1.390 . S
C3976 C3975 1.390 . S
C3976 C3977 1.394 . S
C3976 C3982 1.465 . S
C3977 C3972 1.399 . S
C3977 C3976 1.394 . S
C3977 C3978 1.516 . S
C3978 C3977 1.516 . S
C3978 C3979 1.502 . S
C3978 C3980 1.561 . S
C3978 C3981 1.526 . S
C3979 H3963 0.959 . S
C3979 H3964 0.959 . S
C3979 H3965 0.961 . S
C3979 C3978 1.502 . S
C3980 H3966 0.960 . S
C3980 H3967 0.961 . S
C3980 H3968 0.959 . S
C3980 C3978 1.561 . S
C3981 C3978 1.526 . S
C3981 C3982 1.396 . S
C3981 C3986 1.390 . S
C3982 C3976 1.465 . S
C3982 C3981 1.396 . S
C3982 C3983 1.399 . S
C3983 H3969 0.929 . S
C3983 C3982 1.399 . S
C3983 C3984 1.385 . S
C3984 H3970 0.931 . S
C3984 C3983 1.385 . S
C3984 C3985 1.389 . S
C3985 C3984 1.389 . S
C3985 C3986 1.387 . S
C3986 H3971 0.930 . S
C3986 C3981 1.390 . S
C3986 C3985 1.387 . S
H3987 C3999 0.930 . S
H3988 C4001 0.930 . S
H3989 C4002 0.930 . S
H3990 C4006 0.959 . S
H3991 C4006 0.959 . S
H3992 C4006 0.961 . S
H3993 C4007 0.960 . S
H3994 C4007 0.961 . S
H3995 C4007 0.959 . S
H3996 C4010 0.929 . S
H3997 C4011 0.931 . S
H3998 C4013 0.930 . S
C3999 H3987 0.930 . S
C3999 C4000 1.399 . S
C3999 C4004 1.399 . S
C4000 C3999 1.399 . S
C4000 C4001 1.376 . S
C4001 H3988 0.930 . S
C4001 C4000 1.376 . S
C4001 C4002 1.388 . S
C4002 H3989 0.930 . S
C4002 C4001 1.388 . S
C4002 C4003 1.390 . S
C4003 C4002 1.390 . S
C4003 C4004 1.394 . S
C4003 C4009 1.465 . S
C4004 C3999 1.399 . S
C4004 C4003 1.394 . S
C4004 C4005 1.516 . S
C4005 C4004 1.516 . S
C4005 C4006 1.502 . S
C4005 C4007 1.561 . S
C4005 C4008 1.526 . S
C4006 H3990 0.959 . S
C4006 H3991 0.959 . S
C4006 H3992 0.961 . S
C4006 C4005 1.502 . S
C4007 H3993 0.960 . S
C4007 H3994 0.961 . S
C4007 H3995 0.959 . S
C4007 C4005 1.561 . S
C4008 C4005 1.526 . S
C4008 C4009 1.396 . S
C4008 C4013 1.390 . S
C4009 C4003 1.465 . S
C4009 C4008 1.396 . S
C4009 C4010 1.399 . S
C4010 H3996 0.929 . S
C4010 C4009 1.399 . S
C4010 C4011 1.385 . S
C4011 H3997 0.931 . S
C4011 C4010 1.385 . S
C4011 C4012 1.389 . S
C4012 C4011 1.389 . S
C4012 C4013 1.387 . S
C4013 H3998 0.930 . S
C4013 C4008 1.390 . S
C4013 C4012 1.387 . S
H4014 C4026 0.930 . S
H4015 C4028 0.930 . S
H4016 C4029 0.930 . S
H4017 C4033 0.959 . S
H4018 C4033 0.959 . S
H4019 C4033 0.961 . S
H4020 C4034 0.960 . S
H4021 C4034 0.961 . S
H4022 C4034 0.959 . S
H4023 C4037 0.929 . S
H4024 C4038 0.931 . S
H4025 C4040 0.930 . S
C4026 H4014 0.930 . S
C4026 C4027 1.399 . S
C4026 C4031 1.399 . S
C4027 C4026 1.399 . S
C4027 C4028 1.376 . S
C4028 H4015 0.930 . S
C4028 C4027 1.376 . S
C4028 C4029 1.388 . S
C4029 H4016 0.930 . S
C4029 C4028 1.388 . S
C4029 C4030 1.390 . S
C4030 C4029 1.390 . S
C4030 C4031 1.394 . S
C4030 C4036 1.465 . S
C4031 C4026 1.399 . S
C4031 C4030 1.394 . S
C4031 C4032 1.516 . S
C4032 C4031 1.516 . S
C4032 C4033 1.502 . S
C4032 C4034 1.561 . S
C4032 C4035 1.526 . S
C4033 H4017 0.959 . S
C4033 H4018 0.959 . S
C4033 H4019 0.961 . S
C4033 C4032 1.502 . S
C4034 H4020 0.960 . S
C4034 H4021 0.961 . S
C4034 H4022 0.959 . S
C4034 C4032 1.561 . S
C4035 C4032 1.526 . S
C4035 C4036 1.396 . S
C4035 C4040 1.390 . S
C4036 C4030 1.465 . S
C4036 C4035 1.396 . S
C4036 C4037 1.399 . S
C4037 H4023 0.929 . S
C4037 C4036 1.399 . S
C4037 C4038 1.385 . S
C4038 H4024 0.931 . S
C4038 C4037 1.385 . S
C4038 C4039 1.389 . S
C4039 C4038 1.389 . S
C4039 C4040 1.387 . S
C4040 H4025 0.930 . S
C4040 C4035 1.390 . S
C4040 C4039 1.387 . S
H4041 C4053 0.930 . S
H4042 C4055 0.930 . S
H4043 C4056 0.930 . S
H4044 C4060 0.959 . S
H4045 C4060 0.959 . S
H4046 C4060 0.961 . S
H4047 C4061 0.960 . S
H4048 C4061 0.961 . S
H4049 C4061 0.959 . S
H4050 C4064 0.929 . S
H4051 C4065 0.931 . S
H4052 C4067 0.930 . S
C4053 H4041 0.930 . S
C4053 C4054 1.399 . S
C4053 C4058 1.399 . S
C4054 C4053 1.399 . S
C4054 C4055 1.376 . S
C4055 H4042 0.930 . S
C4055 C4054 1.376 . S
C4055 C4056 1.388 . S
C4056 H4043 0.930 . S
C4056 C4055 1.388 . S
C4056 C4057 1.390 . S
C4057 C4056 1.390 . S
C4057 C4058 1.394 . S
C4057 C4063 1.465 . S
C4058 C4053 1.399 . S
C4058 C4057 1.394 . S
C4058 C4059 1.516 . S
C4059 C4058 1.516 . S
C4059 C4060 1.502 . S
C4059 C4061 1.561 . S
C4059 C4062 1.526 . S
C4060 H4044 0.959 . S
C4060 H4045 0.959 . S
C4060 H4046 0.961 . S
C4060 C4059 1.502 . S
C4061 H4047 0.960 . S
C4061 H4048 0.961 . S
C4061 H4049 0.959 . S
C4061 C4059 1.561 . S
C4062 C4059 1.526 . S
C4062 C4063 1.396 . S
C4062 C4067 1.390 . S
C4063 C4057 1.465 . S
C4063 C4062 1.396 . S
C4063 C4064 1.399 . S
C4064 H4050 0.929 . S
C4064 C4063 1.399 . S
C4064 C4065 1.385 . S
C4065 H4051 0.931 . S
C4065 C4064 1.385 . S
C4065 C4066 1.389 . S
C4066 C4065 1.389 . S
C4066 C4067 1.387 . S
C4067 H4052 0.930 . S
C4067 C4062 1.390 . S
C4067 C4066 1.387 . S
H4068 C4080 0.930 . S
H4069 C4082 0.930 . S
H4070 C4083 0.930 . S
H4071 C4087 0.959 . S
H4072 C4087 0.959 . S
H4073 C4087 0.961 . S
H4074 C4088 0.960 . S
H4075 C4088 0.961 . S
H4076 C4088 0.959 . S
H4077 C4091 0.929 . S
H4078 C4092 0.931 . S
H4079 C4094 0.930 . S
C4080 H4068 0.930 . S
C4080 C4081 1.399 . S
C4080 C4085 1.399 . S
C4081 C4080 1.399 . S
C4081 C4082 1.376 . S
C4082 H4069 0.930 . S
C4082 C4081 1.376 . S
C4082 C4083 1.388 . S
C4083 H4070 0.930 . S
C4083 C4082 1.388 . S
C4083 C4084 1.390 . S
C4084 C4083 1.390 . S
C4084 C4085 1.394 . S
C4084 C4090 1.465 . S
C4085 C4080 1.399 . S
C4085 C4084 1.394 . S
C4085 C4086 1.516 . S
C4086 C4085 1.516 . S
C4086 C4087 1.502 . S
C4086 C4088 1.561 . S
C4086 C4089 1.526 . S
C4087 H4071 0.959 . S
C4087 H4072 0.959 . S
C4087 H4073 0.961 . S
C4087 C4086 1.502 . S
C4088 H4074 0.960 . S
C4088 H4075 0.961 . S
C4088 H4076 0.959 . S
C4088 C4086 1.561 . S
C4089 C4086 1.526 . S
C4089 C4090 1.396 . S
C4089 C4094 1.390 . S
C4090 C4084 1.465 . S
C4090 C4089 1.396 . S
C4090 C4091 1.399 . S
C4091 H4077 0.929 . S
C4091 C4090 1.399 . S
C4091 C4092 1.385 . S
C4092 H4078 0.931 . S
C4092 C4091 1.385 . S
C4092 C4093 1.389 . S
C4093 C4092 1.389 . S
C4093 C4094 1.387 . S
C4094 H4079 0.930 . S
C4094 C4089 1.390 . S
C4094 C4093 1.387 . S
H4095 C4107 0.930 . S
H4096 C4109 0.930 . S
H4097 C4110 0.930 . S
H4098 C4114 0.959 . S
H4099 C4114 0.959 . S
H4100 C4114 0.961 . S
H4101 C4115 0.960 . S
H4102 C4115 0.961 . S
H4103 C4115 0.959 . S
H4104 C4118 0.929 . S
H4105 C4119 0.931 . S
H4106 C4121 0.930 . S
C4107 H4095 0.930 . S
C4107 C4108 1.399 . S
C4107 C4112 1.399 . S
C4108 C4107 1.399 . S
C4108 C4109 1.376 . S
C4109 H4096 0.930 . S
C4109 C4108 1.376 . S
C4109 C4110 1.388 . S
C4110 H4097 0.930 . S
C4110 C4109 1.388 . S
C4110 C4111 1.390 . S
C4111 C4110 1.390 . S
C4111 C4112 1.394 . S
C4111 C4117 1.465 . S
C4112 C4107 1.399 . S
C4112 C4111 1.394 . S
C4112 C4113 1.516 . S
C4113 C4112 1.516 . S
C4113 C4114 1.502 . S
C4113 C4115 1.561 . S
C4113 C4116 1.526 . S
C4114 H4098 0.959 . S
C4114 H4099 0.959 . S
C4114 H4100 0.961 . S
C4114 C4113 1.502 . S
C4115 H4101 0.960 . S
C4115 H4102 0.961 . S
C4115 H4103 0.959 . S
C4115 C4113 1.561 . S
C4116 C4113 1.526 . S
C4116 C4117 1.396 . S
C4116 C4121 1.390 . S
C4117 C4111 1.465 . S
C4117 C4116 1.396 . S
C4117 C4118 1.399 . S
C4118 H4104 0.929 . S
C4118 C4117 1.399 . S
C4118 C4119 1.385 . S
C4119 H4105 0.931 . S
C4119 C4118 1.385 . S
C4119 C4120 1.389 . S
C4120 C4119 1.389 . S
C4120 C4121 1.387 . S
C4121 H4106 0.930 . S
C4121 C4116 1.390 . S
C4121 C4120 1.387 . S
H4122 C4134 0.930 . S
H4123 C4136 0.930 . S
H4124 C4137 0.930 . S
H4125 C4141 0.959 . S
H4126 C4141 0.959 . S
H4127 C4141 0.961 . S
H4128 C4142 0.960 . S
H4129 C4142 0.961 . S
H4130 C4142 0.959 . S
H4131 C4145 0.929 . S
H4132 C4146 0.931 . S
H4133 C4148 0.930 . S
C4134 H4122 0.930 . S
C4134 C4135 1.399 . S
C4134 C4139 1.399 . S
C4135 C4134 1.399 . S
C4135 C4136 1.376 . S
C4136 H4123 0.930 . S
C4136 C4135 1.376 . S
C4136 C4137 1.388 . S
C4137 H4124 0.930 . S
C4137 C4136 1.388 . S
C4137 C4138 1.390 . S
C4138 C4137 1.390 . S
C4138 C4139 1.394 . S
C4138 C4144 1.465 . S
C4139 C4134 1.399 . S
C4139 C4138 1.394 . S
C4139 C4140 1.516 . S
C4140 C4139 1.516 . S
C4140 C4141 1.502 . S
C4140 C4142 1.561 . S
C4140 C4143 1.526 . S
C4141 H4125 0.959 . S
C4141 H4126 0.959 . S
C4141 H4127 0.961 . S
C4141 C4140 1.502 . S
C4142 H4128 0.960 . S
C4142 H4129 0.961 . S
C4142 H4130 0.959 . S
C4142 C4140 1.561 . S
C4143 C4140 1.526 . S
C4143 C4144 1.396 . S
C4143 C4148 1.390 . S
C4144 C4138 1.465 . S
C4144 C4143 1.396 . S
C4144 C4145 1.399 . S
C4145 H4131 0.929 . S
C4145 C4144 1.399 . S
C4145 C4146 1.385 . S
C4146 H4132 0.931 . S
C4146 C4145 1.385 . S
C4146 C4147 1.389 . S
C4147 C4146 1.389 . S
C4147 C4148 1.387 . S
C4148 H4133 0.930 . S
C4148 C4143 1.390 . S
C4148 C4147 1.387 . S
H4149 C4161 0.930 . S
H4150 C4163 0.930 . S
H4151 C4164 0.930 . S
H4152 C4168 0.959 . S
H4153 C4168 0.959 . S
H4154 C4168 0.961 . S
H4155 C4169 0.960 . S
H4156 C4169 0.961 . S
H4157 C4169 0.959 . S
H4158 C4172 0.929 . S
H4159 C4173 0.931 . S
H4160 C4175 0.930 . S
C4161 H4149 0.930 . S
C4161 C4162 1.399 . S
C4161 C4166 1.399 . S
C4162 C4161 1.399 . S
C4162 C4163 1.376 . S
C4163 H4150 0.930 . S
C4163 C4162 1.376 . S
C4163 C4164 1.388 . S
C4164 H4151 0.930 . S
C4164 C4163 1.388 . S
C4164 C4165 1.390 . S
C4165 C4164 1.390 . S
C4165 C4166 1.394 . S
C4165 C4171 1.465 . S
C4166 C4161 1.399 . S
C4166 C4165 1.394 . S
C4166 C4167 1.516 . S
C4167 C4166 1.516 . S
C4167 C4168 1.502 . S
C4167 C4169 1.561 . S
C4167 C4170 1.526 . S
C4168 H4152 0.959 . S
C4168 H4153 0.959 . S
C4168 H4154 0.961 . S
C4168 C4167 1.502 . S
C4169 H4155 0.960 . S
C4169 H4156 0.961 . S
C4169 H4157 0.959 . S
C4169 C4167 1.561 . S
C4170 C4167 1.526 . S
C4170 C4171 1.396 . S
C4170 C4175 1.390 . S
C4171 C4165 1.465 . S
C4171 C4170 1.396 . S
C4171 C4172 1.399 . S
C4172 H4158 0.929 . S
C4172 C4171 1.399 . S
C4172 C4173 1.385 . S
C4173 H4159 0.931 . S
C4173 C4172 1.385 . S
C4173 C4174 1.389 . S
C4174 C4173 1.389 . S
C4174 C4175 1.387 . S
C4175 H4160 0.930 . S
C4175 C4170 1.390 . S
C4175 C4174 1.387 . S
H4176 C4188 0.930 . S
H4177 C4190 0.930 . S
H4178 C4191 0.930 . S
H4179 C4195 0.959 . S
H4180 C4195 0.959 . S
H4181 C4195 0.961 . S
H4182 C4196 0.960 . S
H4183 C4196 0.961 . S
H4184 C4196 0.959 . S
H4185 C4199 0.929 . S
H4186 C4200 0.931 . S
H4187 C4202 0.930 . S
C4188 H4176 0.930 . S
C4188 C4189 1.399 . S
C4188 C4193 1.399 . S
C4189 C4188 1.399 . S
C4189 C4190 1.376 . S
C4190 H4177 0.930 . S
C4190 C4189 1.376 . S
C4190 C4191 1.388 . S
C4191 H4178 0.930 . S
C4191 C4190 1.388 . S
C4191 C4192 1.390 . S
C4192 C4191 1.390 . S
C4192 C4193 1.394 . S
C4192 C4198 1.465 . S
C4193 C4188 1.399 . S
C4193 C4192 1.394 . S
C4193 C4194 1.516 . S
C4194 C4193 1.516 . S
C4194 C4195 1.502 . S
C4194 C4196 1.561 . S
C4194 C4197 1.526 . S
C4195 H4179 0.959 . S
C4195 H4180 0.959 . S
C4195 H4181 0.961 . S
C4195 C4194 1.502 . S
C4196 H4182 0.960 . S
C4196 H4183 0.961 . S
C4196 H4184 0.959 . S
C4196 C4194 1.561 . S
C4197 C4194 1.526 . S
C4197 C4198 1.396 . S
C4197 C4202 1.390 . S
C4198 C4192 1.465 . S
C4198 C4197 1.396 . S
C4198 C4199 1.399 . S
C4199 H4185 0.929 . S
C4199 C4198 1.399 . S
C4199 C4200 1.385 . S
C4200 H4186 0.931 . S
C4200 C4199 1.385 . S
C4200 C4201 1.389 . S
C4201 C4200 1.389 . S
C4201 C4202 1.387 . S
C4202 H4187 0.930 . S
C4202 C4197 1.390 . S
C4202 C4201 1.387 . S
H4203 C4215 0.930 . S
H4204 C4217 0.930 . S
H4205 C4218 0.930 . S
H4206 C4222 0.959 . S
H4207 C4222 0.959 . S
H4208 C4222 0.961 . S
H4209 C4223 0.960 . S
H4210 C4223 0.961 . S
H4211 C4223 0.959 . S
H4212 C4226 0.929 . S
H4213 C4227 0.931 . S
H4214 C4229 0.930 . S
C4215 H4203 0.930 . S
C4215 C4216 1.399 . S
C4215 C4220 1.399 . S
C4216 C4215 1.399 . S
C4216 C4217 1.376 . S
C4217 H4204 0.930 . S
C4217 C4216 1.376 . S
C4217 C4218 1.388 . S
C4218 H4205 0.930 . S
C4218 C4217 1.388 . S
C4218 C4219 1.390 . S
C4219 C4218 1.390 . S
C4219 C4220 1.394 . S
C4219 C4225 1.465 . S
C4220 C4215 1.399 . S
C4220 C4219 1.394 . S
C4220 C4221 1.516 . S
C4221 C4220 1.516 . S
C4221 C4222 1.502 . S
C4221 C4223 1.561 . S
C4221 C4224 1.526 . S
C4222 H4206 0.959 . S
C4222 H4207 0.959 . S
C4222 H4208 0.961 . S
C4222 C4221 1.502 . S
C4223 H4209 0.960 . S
C4223 H4210 0.961 . S
C4223 H4211 0.959 . S
C4223 C4221 1.561 . S
C4224 C4221 1.526 . S
C4224 C4225 1.396 . S
C4224 C4229 1.390 . S
C4225 C4219 1.465 . S
C4225 C4224 1.396 . S
C4225 C4226 1.399 . S
C4226 H4212 0.929 . S
C4226 C4225 1.399 . S
C4226 C4227 1.385 . S
C4227 H4213 0.931 . S
C4227 C4226 1.385 . S
C4227 C4228 1.389 . S
C4228 C4227 1.389 . S
C4228 C4229 1.387 . S
C4229 H4214 0.930 . S
C4229 C4224 1.390 . S
C4229 C4228 1.387 . S
H4230 C4242 0.930 . S
H4231 C4244 0.930 . S
H4232 C4245 0.930 . S
H4233 C4249 0.959 . S
H4234 C4249 0.959 . S
H4235 C4249 0.961 . S
H4236 C4250 0.960 . S
H4237 C4250 0.961 . S
H4238 C4250 0.959 . S
H4239 C4253 0.929 . S
H4240 C4254 0.931 . S
H4241 C4256 0.930 . S
C4242 H4230 0.930 . S
C4242 C4243 1.399 . S
C4242 C4247 1.399 . S
C4243 C4242 1.399 . S
C4243 C4244 1.376 . S
C4244 H4231 0.930 . S
C4244 C4243 1.376 . S
C4244 C4245 1.388 . S
C4245 H4232 0.930 . S
C4245 C4244 1.388 . S
C4245 C4246 1.390 . S
C4246 C4245 1.390 . S
C4246 C4247 1.394 . S
C4246 C4252 1.465 . S
C4247 C4242 1.399 . S
C4247 C4246 1.394 . S
C4247 C4248 1.516 . S
C4248 C4247 1.516 . S
C4248 C4249 1.502 . S
C4248 C4250 1.561 . S
C4248 C4251 1.526 . S
C4249 H4233 0.959 . S
C4249 H4234 0.959 . S
C4249 H4235 0.961 . S
C4249 C4248 1.502 . S
C4250 H4236 0.960 . S
C4250 H4237 0.961 . S
C4250 H4238 0.959 . S
C4250 C4248 1.561 . S
C4251 C4248 1.526 . S
C4251 C4252 1.396 . S
C4251 C4256 1.390 . S
C4252 C4246 1.465 . S
C4252 C4251 1.396 . S
C4252 C4253 1.399 . S
C4253 H4239 0.929 . S
C4253 C4252 1.399 . S
C4253 C4254 1.385 . S
C4254 H4240 0.931 . S
C4254 C4253 1.385 . S
C4254 C4255 1.389 . S
C4255 C4254 1.389 . S
C4255 C4256 1.387 . S
C4256 H4241 0.930 . S
C4256 C4251 1.390 . S
C4256 C4255 1.387 . S
H4257 C4269 0.930 . S
H4258 C4271 0.930 . S
H4259 C4272 0.930 . S
H4260 C4276 0.959 . S
H4261 C4276 0.959 . S
H4262 C4276 0.961 . S
H4263 C4277 0.960 . S
H4264 C4277 0.961 . S
H4265 C4277 0.959 . S
H4266 C4280 0.929 . S
H4267 C4281 0.931 . S
H4268 C4283 0.930 . S
C4269 H4257 0.930 . S
C4269 C4270 1.399 . S
C4269 C4274 1.399 . S
C4270 C4269 1.399 . S
C4270 C4271 1.376 . S
C4271 H4258 0.930 . S
C4271 C4270 1.376 . S
C4271 C4272 1.388 . S
C4272 H4259 0.930 . S
C4272 C4271 1.388 . S
C4272 C4273 1.390 . S
C4273 C4272 1.390 . S
C4273 C4274 1.394 . S
C4273 C4279 1.465 . S
C4274 C4269 1.399 . S
C4274 C4273 1.394 . S
C4274 C4275 1.516 . S
C4275 C4274 1.516 . S
C4275 C4276 1.502 . S
C4275 C4277 1.561 . S
C4275 C4278 1.526 . S
C4276 H4260 0.959 . S
C4276 H4261 0.959 . S
C4276 H4262 0.961 . S
C4276 C4275 1.502 . S
C4277 H4263 0.960 . S
C4277 H4264 0.961 . S
C4277 H4265 0.959 . S
C4277 C4275 1.561 . S
C4278 C4275 1.526 . S
C4278 C4279 1.396 . S
C4278 C4283 1.390 . S
C4279 C4273 1.465 . S
C4279 C4278 1.396 . S
C4279 C4280 1.399 . S
C4280 H4266 0.929 . S
C4280 C4279 1.399 . S
C4280 C4281 1.385 . S
C4281 H4267 0.931 . S
C4281 C4280 1.385 . S
C4281 C4282 1.389 . S
C4282 C4281 1.389 . S
C4282 C4283 1.387 . S
C4283 H4268 0.930 . S
C4283 C4278 1.390 . S
C4283 C4282 1.387 . S
H4284 C4296 0.930 . S
H4285 C4298 0.930 . S
H4286 C4299 0.930 . S
H4287 C4303 0.959 . S
H4288 C4303 0.959 . S
H4289 C4303 0.961 . S
H4290 C4304 0.960 . S
H4291 C4304 0.961 . S
H4292 C4304 0.959 . S
H4293 C4307 0.929 . S
H4294 C4308 0.931 . S
H4295 C4310 0.930 . S
C4296 H4284 0.930 . S
C4296 C4297 1.399 . S
C4296 C4301 1.399 . S
C4297 C4296 1.399 . S
C4297 C4298 1.376 . S
C4298 H4285 0.930 . S
C4298 C4297 1.376 . S
C4298 C4299 1.388 . S
C4299 H4286 0.930 . S
C4299 C4298 1.388 . S
C4299 C4300 1.390 . S
C4300 C4299 1.390 . S
C4300 C4301 1.394 . S
C4300 C4306 1.465 . S
C4301 C4296 1.399 . S
C4301 C4300 1.394 . S
C4301 C4302 1.516 . S
C4302 C4301 1.516 . S
C4302 C4303 1.502 . S
C4302 C4304 1.561 . S
C4302 C4305 1.526 . S
C4303 H4287 0.959 . S
C4303 H4288 0.959 . S
C4303 H4289 0.961 . S
C4303 C4302 1.502 . S
C4304 H4290 0.960 . S
C4304 H4291 0.961 . S
C4304 H4292 0.959 . S
C4304 C4302 1.561 . S
C4305 C4302 1.526 . S
C4305 C4306 1.396 . S
C4305 C4310 1.390 . S
C4306 C4300 1.465 . S
C4306 C4305 1.396 . S
C4306 C4307 1.399 . S
C4307 H4293 0.929 . S
C4307 C4306 1.399 . S
C4307 C4308 1.385 . S
C4308 H4294 0.931 . S
C4308 C4307 1.385 . S
C4308 C4309 1.389 . S
C4309 C4308 1.389 . S
C4309 C4310 1.387 . S
C4310 H4295 0.930 . S
C4310 C4305 1.390 . S
C4310 C4309 1.387 . S
H4311 C4323 0.930 . S
H4312 C4325 0.930 . S
H4313 C4326 0.930 . S
H4314 C4330 0.959 . S
H4315 C4330 0.959 . S
H4316 C4330 0.961 . S
H4317 C4331 0.960 . S
H4318 C4331 0.961 . S
H4319 C4331 0.959 . S
H4320 C4334 0.929 . S
H4321 C4335 0.931 . S
H4322 C4337 0.930 . S
C4323 H4311 0.930 . S
C4323 C4324 1.399 . S
C4323 C4328 1.399 . S
C4324 C4323 1.399 . S
C4324 C4325 1.376 . S
C4325 H4312 0.930 . S
C4325 C4324 1.376 . S
C4325 C4326 1.388 . S
C4326 H4313 0.930 . S
C4326 C4325 1.388 . S
C4326 C4327 1.390 . S
C4327 C4326 1.390 . S
C4327 C4328 1.394 . S
C4327 C4333 1.465 . S
C4328 C4323 1.399 . S
C4328 C4327 1.394 . S
C4328 C4329 1.516 . S
C4329 C4328 1.516 . S
C4329 C4330 1.502 . S
C4329 C4331 1.561 . S
C4329 C4332 1.526 . S
C4330 H4314 0.959 . S
C4330 H4315 0.959 . S
C4330 H4316 0.961 . S
C4330 C4329 1.502 . S
C4331 H4317 0.960 . S
C4331 H4318 0.961 . S
C4331 H4319 0.959 . S
C4331 C4329 1.561 . S
C4332 C4329 1.526 . S
C4332 C4333 1.396 . S
C4332 C4337 1.390 . S
C4333 C4327 1.465 . S
C4333 C4332 1.396 . S
C4333 C4334 1.399 . S
C4334 H4320 0.929 . S
C4334 C4333 1.399 . S
C4334 C4335 1.385 . S
C4335 H4321 0.931 . S
C4335 C4334 1.385 . S
C4335 C4336 1.389 . S
C4336 C4335 1.389 . S
C4336 C4337 1.387 . S
C4337 H4322 0.930 . S
C4337 C4332 1.390 . S
C4337 C4336 1.387 . S
H4338 C4350 0.930 . S
H4339 C4352 0.930 . S
H4340 C4353 0.930 . S
H4341 C4357 0.959 . S
H4342 C4357 0.959 . S
H4343 C4357 0.961 . S
H4344 C4358 0.960 . S
H4345 C4358 0.961 . S
H4346 C4358 0.959 . S
H4347 C4361 0.929 . S
H4348 C4362 0.931 . S
H4349 C4364 0.930 . S
C4350 H4338 0.930 . S
C4350 C4351 1.399 . S
C4350 C4355 1.399 . S
C4351 C4350 1.399 . S
C4351 C4352 1.376 . S
C4352 H4339 0.930 . S
C4352 C4351 1.376 . S
C4352 C4353 1.388 . S
C4353 H4340 0.930 . S
C4353 C4352 1.388 . S
C4353 C4354 1.390 . S
C4354 C4353 1.390 . S
C4354 C4355 1.394 . S
C4354 C4360 1.465 . S
C4355 C4350 1.399 . S
C4355 C4354 1.394 . S
C4355 C4356 1.516 . S
C4356 C4355 1.516 . S
C4356 C4357 1.502 . S
C4356 C4358 1.561 . S
C4356 C4359 1.526 . S
C4357 H4341 0.959 . S
C4357 H4342 0.959 . S
C4357 H4343 0.961 . S
C4357 C4356 1.502 . S
C4358 H4344 0.960 . S
C4358 H4345 0.961 . S
C4358 H4346 0.959 . S
C4358 C4356 1.561 . S
C4359 C4356 1.526 . S
C4359 C4360 1.396 . S
C4359 C4364 1.390 . S
C4360 C4354 1.465 . S
C4360 C4359 1.396 . S
C4360 C4361 1.399 . S
C4361 H4347 0.929 . S
C4361 C4360 1.399 . S
C4361 C4362 1.385 . S
C4362 H4348 0.931 . S
C4362 C4361 1.385 . S
C4362 C4363 1.389 . S
C4363 C4362 1.389 . S
C4363 C4364 1.387 . S
C4364 H4349 0.930 . S
C4364 C4359 1.390 . S
C4364 C4363 1.387 . S
H4365 C4377 0.930 . S
H4366 C4379 0.930 . S
H4367 C4380 0.930 . S
H4368 C4384 0.959 . S
H4369 C4384 0.959 . S
H4370 C4384 0.961 . S
H4371 C4385 0.960 . S
H4372 C4385 0.961 . S
H4373 C4385 0.959 . S
H4374 C4388 0.929 . S
H4375 C4389 0.931 . S
H4376 C4391 0.930 . S
C4377 H4365 0.930 . S
C4377 C4378 1.399 . S
C4377 C4382 1.399 . S
C4378 C4377 1.399 . S
C4378 C4379 1.376 . S
C4379 H4366 0.930 . S
C4379 C4378 1.376 . S
C4379 C4380 1.388 . S
C4380 H4367 0.930 . S
C4380 C4379 1.388 . S
C4380 C4381 1.390 . S
C4381 C4380 1.390 . S
C4381 C4382 1.394 . S
C4381 C4387 1.465 . S
C4382 C4377 1.399 . S
C4382 C4381 1.394 . S
C4382 C4383 1.516 . S
C4383 C4382 1.516 . S
C4383 C4384 1.502 . S
C4383 C4385 1.561 . S
C4383 C4386 1.526 . S
C4384 H4368 0.959 . S
C4384 H4369 0.959 . S
C4384 H4370 0.961 . S
C4384 C4383 1.502 . S
C4385 H4371 0.960 . S
C4385 H4372 0.961 . S
C4385 H4373 0.959 . S
C4385 C4383 1.561 . S
C4386 C4383 1.526 . S
C4386 C4387 1.396 . S
C4386 C4391 1.390 . S
C4387 C4381 1.465 . S
C4387 C4386 1.396 . S
C4387 C4388 1.399 . S
C4388 H4374 0.929 . S
C4388 C4387 1.399 . S
C4388 C4389 1.385 . S
C4389 H4375 0.931 . S
C4389 C4388 1.385 . S
C4389 C4390 1.389 . S
C4390 C4389 1.389 . S
C4390 C4391 1.387 . S
C4391 H4376 0.930 . S
C4391 C4386 1.390 . S
C4391 C4390 1.387 . S
H4392 C4404 0.930 . S
H4393 C4406 0.930 . S
H4394 C4407 0.930 . S
H4395 C4411 0.959 . S
H4396 C4411 0.959 . S
H4397 C4411 0.961 . S
H4398 C4412 0.960 . S
H4399 C4412 0.961 . S
H4400 C4412 0.959 . S
H4401 C4415 0.929 . S
H4402 C4416 0.931 . S
H4403 C4418 0.930 . S
C4404 H4392 0.930 . S
C4404 C4405 1.399 . S
C4404 C4409 1.399 . S
C4405 C4404 1.399 . S
C4405 C4406 1.376 . S
C4406 H4393 0.930 . S
C4406 C4405 1.376 . S
C4406 C4407 1.388 . S
C4407 H4394 0.930 . S
C4407 C4406 1.388 . S
C4407 C4408 1.390 . S
C4408 C4407 1.390 . S
C4408 C4409 1.394 . S
C4408 C4414 1.465 . S
C4409 C4404 1.399 . S
C4409 C4408 1.394 . S
C4409 C4410 1.516 . S
C4410 C4409 1.516 . S
C4410 C4411 1.502 . S
C4410 C4412 1.561 . S
C4410 C4413 1.526 . S
C4411 H4395 0.959 . S
C4411 H4396 0.959 . S
C4411 H4397 0.961 . S
C4411 C4410 1.502 . S
C4412 H4398 0.960 . S
C4412 H4399 0.961 . S
C4412 H4400 0.959 . S
C4412 C4410 1.561 . S
C4413 C4410 1.526 . S
C4413 C4414 1.396 . S
C4413 C4418 1.390 . S
C4414 C4408 1.465 . S
C4414 C4413 1.396 . S
C4414 C4415 1.399 . S
C4415 H4401 0.929 . S
C4415 C4414 1.399 . S
C4415 C4416 1.385 . S
C4416 H4402 0.931 . S
C4416 C4415 1.385 . S
C4416 C4417 1.389 . S
C4417 C4416 1.389 . S
C4417 C4418 1.387 . S
C4418 H4403 0.930 . S
C4418 C4413 1.390 . S
C4418 C4417 1.387 . S
H4419 C4431 0.930 . S
H4420 C4433 0.930 . S
H4421 C4434 0.930 . S
H4422 C4438 0.959 . S
H4423 C4438 0.959 . S
H4424 C4438 0.961 . S
H4425 C4439 0.960 . S
H4426 C4439 0.961 . S
H4427 C4439 0.959 . S
H4428 C4442 0.929 . S
H4429 C4443 0.931 . S
H4430 C4445 0.930 . S
C4431 H4419 0.930 . S
C4431 C4432 1.399 . S
C4431 C4436 1.399 . S
C4432 C4431 1.399 . S
C4432 C4433 1.376 . S
C4433 H4420 0.930 . S
C4433 C4432 1.376 . S
C4433 C4434 1.388 . S
C4434 H4421 0.930 . S
C4434 C4433 1.388 . S
C4434 C4435 1.390 . S
C4435 C4434 1.390 . S
C4435 C4436 1.394 . S
C4435 C4441 1.465 . S
C4436 C4431 1.399 . S
C4436 C4435 1.394 . S
C4436 C4437 1.516 . S
C4437 C4436 1.516 . S
C4437 C4438 1.502 . S
C4437 C4439 1.561 . S
C4437 C4440 1.526 . S
C4438 H4422 0.959 . S
C4438 H4423 0.959 . S
C4438 H4424 0.961 . S
C4438 C4437 1.502 . S
C4439 H4425 0.960 . S
C4439 H4426 0.961 . S
C4439 H4427 0.959 . S
C4439 C4437 1.561 . S
C4440 C4437 1.526 . S
C4440 C4441 1.396 . S
C4440 C4445 1.390 . S
C4441 C4435 1.465 . S
C4441 C4440 1.396 . S
C4441 C4442 1.399 . S
C4442 H4428 0.929 . S
C4442 C4441 1.399 . S
C4442 C4443 1.385 . S
C4443 H4429 0.931 . S
C4443 C4442 1.385 . S
C4443 C4444 1.389 . S
C4444 C4443 1.389 . S
C4444 C4445 1.387 . S
C4445 H4430 0.930 . S
C4445 C4440 1.390 . S
C4445 C4444 1.387 . S
H4446 C4458 0.930 . S
H4447 C4460 0.930 . S
H4448 C4461 0.930 . S
H4449 C4465 0.959 . S
H4450 C4465 0.959 . S
H4451 C4465 0.961 . S
H4452 C4466 0.960 . S
H4453 C4466 0.961 . S
H4454 C4466 0.959 . S
H4455 C4469 0.929 . S
H4456 C4470 0.931 . S
H4457 C4472 0.930 . S
C4458 H4446 0.930 . S
C4458 C4459 1.399 . S
C4458 C4463 1.399 . S
C4459 C4458 1.399 . S
C4459 C4460 1.376 . S
C4460 H4447 0.930 . S
C4460 C4459 1.376 . S
C4460 C4461 1.388 . S
C4461 H4448 0.930 . S
C4461 C4460 1.388 . S
C4461 C4462 1.390 . S
C4462 C4461 1.390 . S
C4462 C4463 1.394 . S
C4462 C4468 1.465 . S
C4463 C4458 1.399 . S
C4463 C4462 1.394 . S
C4463 C4464 1.516 . S
C4464 C4463 1.516 . S
C4464 C4465 1.502 . S
C4464 C4466 1.561 . S
C4464 C4467 1.526 . S
C4465 H4449 0.959 . S
C4465 H4450 0.959 . S
C4465 H4451 0.961 . S
C4465 C4464 1.502 . S
C4466 H4452 0.960 . S
C4466 H4453 0.961 . S
C4466 H4454 0.959 . S
C4466 C4464 1.561 . S
C4467 C4464 1.526 . S
C4467 C4468 1.396 . S
C4467 C4472 1.390 . S
C4468 C4462 1.465 . S
C4468 C4467 1.396 . S
C4468 C4469 1.399 . S
C4469 H4455 0.929 . S
C4469 C4468 1.399 . S
C4469 C4470 1.385 . S
C4470 H4456 0.931 . S
C4470 C4469 1.385 . S
C4470 C4471 1.389 . S
C4471 C4470 1.389 . S
C4471 C4472 1.387 . S
C4472 H4457 0.930 . S
C4472 C4467 1.390 . S
C4472 C4471 1.387 . S
H4473 C4485 0.930 . S
H4474 C4487 0.930 . S
H4475 C4488 0.930 . S
H4476 C4492 0.959 . S
H4477 C4492 0.959 . S
H4478 C4492 0.961 . S
H4479 C4493 0.960 . S
H4480 C4493 0.961 . S
H4481 C4493 0.959 . S
H4482 C4496 0.929 . S
H4483 C4497 0.931 . S
H4484 C4499 0.930 . S
C4485 H4473 0.930 . S
C4485 C4486 1.399 . S
C4485 C4490 1.399 . S
C4486 C4485 1.399 . S
C4486 C4487 1.376 . S
C4487 H4474 0.930 . S
C4487 C4486 1.376 . S
C4487 C4488 1.388 . S
C4488 H4475 0.930 . S
C4488 C4487 1.388 . S
C4488 C4489 1.390 . S
C4489 C4488 1.390 . S
C4489 C4490 1.394 . S
C4489 C4495 1.465 . S
C4490 C4485 1.399 . S
C4490 C4489 1.394 . S
C4490 C4491 1.516 . S
C4491 C4490 1.516 . S
C4491 C4492 1.502 . S
C4491 C4493 1.561 . S
C4491 C4494 1.526 . S
C4492 H4476 0.959 . S
C4492 H4477 0.959 . S
C4492 H4478 0.961 . S
C4492 C4491 1.502 . S
C4493 H4479 0.960 . S
C4493 H4480 0.961 . S
C4493 H4481 0.959 . S
C4493 C4491 1.561 . S
C4494 C4491 1.526 . S
C4494 C4495 1.396 . S
C4494 C4499 1.390 . S
C4495 C4489 1.465 . S
C4495 C4494 1.396 . S
C4495 C4496 1.399 . S
C4496 H4482 0.929 . S
C4496 C4495 1.399 . S
C4496 C4497 1.385 . S
C4497 H4483 0.931 . S
C4497 C4496 1.385 . S
C4497 C4498 1.389 . S
C4498 C4497 1.389 . S
C4498 C4499 1.387 . S
C4499 H4484 0.930 . S
C4499 C4494 1.390 . S
C4499 C4498 1.387 . S
H4500 C4512 0.930 . S
H4501 C4514 0.930 . S
H4502 C4515 0.930 . S
H4503 C4519 0.959 . S
H4504 C4519 0.959 . S
H4505 C4519 0.961 . S
H4506 C4520 0.960 . S
H4507 C4520 0.961 . S
H4508 C4520 0.959 . S
H4509 C4523 0.929 . S
H4510 C4524 0.931 . S
H4511 C4526 0.930 . S
C4512 H4500 0.930 . S
C4512 C4513 1.399 . S
C4512 C4517 1.399 . S
C4513 C4512 1.399 . S
C4513 C4514 1.376 . S
C4514 H4501 0.930 . S
C4514 C4513 1.376 . S
C4514 C4515 1.388 . S
C4515 H4502 0.930 . S
C4515 C4514 1.388 . S
C4515 C4516 1.390 . S
C4516 C4515 1.390 . S
C4516 C4517 1.394 . S
C4516 C4522 1.465 . S
C4517 C4512 1.399 . S
C4517 C4516 1.394 . S
C4517 C4518 1.516 . S
C4518 C4517 1.516 . S
C4518 C4519 1.502 . S
C4518 C4520 1.561 . S
C4518 C4521 1.526 . S
C4519 H4503 0.959 . S
C4519 H4504 0.959 . S
C4519 H4505 0.961 . S
C4519 C4518 1.502 . S
C4520 H4506 0.960 . S
C4520 H4507 0.961 . S
C4520 H4508 0.959 . S
C4520 C4518 1.561 . S
C4521 C4518 1.526 . S
C4521 C4522 1.396 . S
C4521 C4526 1.390 . S
C4522 C4516 1.465 . S
C4522 C4521 1.396 . S
C4522 C4523 1.399 . S
C4523 H4509 0.929 . S
C4523 C4522 1.399 . S
C4523 C4524 1.385 . S
C4524 H4510 0.931 . S
C4524 C4523 1.385 . S
C4524 C4525 1.389 . S
C4525 C4524 1.389 . S
C4525 C4526 1.387 . S
C4526 H4511 0.930 . S
C4526 C4521 1.390 . S
C4526 C4525 1.387 . S
H4527 C4539 0.930 . S
H4528 C4541 0.930 . S
H4529 C4542 0.930 . S
H4530 C4546 0.959 . S
H4531 C4546 0.959 . S
H4532 C4546 0.961 . S
H4533 C4547 0.960 . S
H4534 C4547 0.961 . S
H4535 C4547 0.959 . S
H4536 C4550 0.929 . S
H4537 C4551 0.931 . S
H4538 C4553 0.930 . S
C4539 H4527 0.930 . S
C4539 C4540 1.399 . S
C4539 C4544 1.399 . S
C4540 C4539 1.399 . S
C4540 C4541 1.376 . S
C4541 H4528 0.930 . S
C4541 C4540 1.376 . S
C4541 C4542 1.388 . S
C4542 H4529 0.930 . S
C4542 C4541 1.388 . S
C4542 C4543 1.390 . S
C4543 C4542 1.390 . S
C4543 C4544 1.394 . S
C4543 C4549 1.465 . S
C4544 C4539 1.399 . S
C4544 C4543 1.394 . S
C4544 C4545 1.516 . S
C4545 C4544 1.516 . S
C4545 C4546 1.502 . S
C4545 C4547 1.561 . S
C4545 C4548 1.526 . S
C4546 H4530 0.959 . S
C4546 H4531 0.959 . S
C4546 H4532 0.961 . S
C4546 C4545 1.502 . S
C4547 H4533 0.960 . S
C4547 H4534 0.961 . S
C4547 H4535 0.959 . S
C4547 C4545 1.561 . S
C4548 C4545 1.526 . S
C4548 C4549 1.396 . S
C4548 C4553 1.390 . S
C4549 C4543 1.465 . S
C4549 C4548 1.396 . S
C4549 C4550 1.399 . S
C4550 H4536 0.929 . S
C4550 C4549 1.399 . S
C4550 C4551 1.385 . S
C4551 H4537 0.931 . S
C4551 C4550 1.385 . S
C4551 C4552 1.389 . S
C4552 C4551 1.389 . S
C4552 C4553 1.387 . S
C4553 H4538 0.930 . S
C4553 C4548 1.390 . S
C4553 C4552 1.387 . S
H4554 C4566 0.930 . S
H4555 C4568 0.930 . S
H4556 C4569 0.930 . S
H4557 C4573 0.959 . S
H4558 C4573 0.959 . S
H4559 C4573 0.961 . S
H4560 C4574 0.960 . S
H4561 C4574 0.961 . S
H4562 C4574 0.959 . S
H4563 C4577 0.929 . S
H4564 C4578 0.931 . S
H4565 C4580 0.930 . S
C4566 H4554 0.930 . S
C4566 C4567 1.399 . S
C4566 C4571 1.399 . S
C4567 C4566 1.399 . S
C4567 C4568 1.376 . S
C4568 H4555 0.930 . S
C4568 C4567 1.376 . S
C4568 C4569 1.388 . S
C4569 H4556 0.930 . S
C4569 C4568 1.388 . S
C4569 C4570 1.390 . S
C4570 C4569 1.390 . S
C4570 C4571 1.394 . S
C4570 C4576 1.465 . S
C4571 C4566 1.399 . S
C4571 C4570 1.394 . S
C4571 C4572 1.516 . S
C4572 C4571 1.516 . S
C4572 C4573 1.502 . S
C4572 C4574 1.561 . S
C4572 C4575 1.526 . S
C4573 H4557 0.959 . S
C4573 H4558 0.959 . S
C4573 H4559 0.961 . S
C4573 C4572 1.502 . S
C4574 H4560 0.960 . S
C4574 H4561 0.961 . S
C4574 H4562 0.959 . S
C4574 C4572 1.561 . S
C4575 C4572 1.526 . S
C4575 C4576 1.396 . S
C4575 C4580 1.390 . S
C4576 C4570 1.465 . S
C4576 C4575 1.396 . S
C4576 C4577 1.399 . S
C4577 H4563 0.929 . S
C4577 C4576 1.399 . S
C4577 C4578 1.385 . S
C4578 H4564 0.931 . S
C4578 C4577 1.385 . S
C4578 C4579 1.389 . S
C4579 C4578 1.389 . S
C4579 C4580 1.387 . S
C4580 H4565 0.930 . S
C4580 C4575 1.390 . S
C4580 C4579 1.387 . S
H4581 C4593 0.930 . S
H4582 C4595 0.930 . S
H4583 C4596 0.930 . S
H4584 C4600 0.959 . S
H4585 C4600 0.959 . S
H4586 C4600 0.961 . S
H4587 C4601 0.960 . S
H4588 C4601 0.961 . S
H4589 C4601 0.959 . S
H4590 C4604 0.929 . S
H4591 C4605 0.931 . S
H4592 C4607 0.930 . S
C4593 H4581 0.930 . S
C4593 C4594 1.399 . S
C4593 C4598 1.399 . S
C4594 C4593 1.399 . S
C4594 C4595 1.376 . S
C4595 H4582 0.930 . S
C4595 C4594 1.376 . S
C4595 C4596 1.388 . S
C4596 H4583 0.930 . S
C4596 C4595 1.388 . S
C4596 C4597 1.390 . S
C4597 C4596 1.390 . S
C4597 C4598 1.394 . S
C4597 C4603 1.465 . S
C4598 C4593 1.399 . S
C4598 C4597 1.394 . S
C4598 C4599 1.516 . S
C4599 C4598 1.516 . S
C4599 C4600 1.502 . S
C4599 C4601 1.561 . S
C4599 C4602 1.526 . S
C4600 H4584 0.959 . S
C4600 H4585 0.959 . S
C4600 H4586 0.961 . S
C4600 C4599 1.502 . S
C4601 H4587 0.960 . S
C4601 H4588 0.961 . S
C4601 H4589 0.959 . S
C4601 C4599 1.561 . S
C4602 C4599 1.526 . S
C4602 C4603 1.396 . S
C4602 C4607 1.390 . S
C4603 C4597 1.465 . S
C4603 C4602 1.396 . S
C4603 C4604 1.399 . S
C4604 H4590 0.929 . S
C4604 C4603 1.399 . S
C4604 C4605 1.385 . S
C4605 H4591 0.931 . S
C4605 C4604 1.385 . S
C4605 C4606 1.389 . S
C4606 C4605 1.389 . S
C4606 C4607 1.387 . S
C4607 H4592 0.930 . S
C4607 C4602 1.390 . S
C4607 C4606 1.387 . S
H4608 C4620 0.930 . S
H4609 C4622 0.930 . S
H4610 C4623 0.930 . S
H4611 C4627 0.959 . S
H4612 C4627 0.959 . S
H4613 C4627 0.961 . S
H4614 C4628 0.960 . S
H4615 C4628 0.961 . S
H4616 C4628 0.959 . S
H4617 C4631 0.929 . S
H4618 C4632 0.931 . S
H4619 C4634 0.930 . S
C4620 H4608 0.930 . S
C4620 C4621 1.399 . S
C4620 C4625 1.399 . S
C4621 C4620 1.399 . S
C4621 C4622 1.376 . S
C4622 H4609 0.930 . S
C4622 C4621 1.376 . S
C4622 C4623 1.388 . S
C4623 H4610 0.930 . S
C4623 C4622 1.388 . S
C4623 C4624 1.390 . S
C4624 C4623 1.390 . S
C4624 C4625 1.394 . S
C4624 C4630 1.465 . S
C4625 C4620 1.399 . S
C4625 C4624 1.394 . S
C4625 C4626 1.516 . S
C4626 C4625 1.516 . S
C4626 C4627 1.502 . S
C4626 C4628 1.561 . S
C4626 C4629 1.526 . S
C4627 H4611 0.959 . S
C4627 H4612 0.959 . S
C4627 H4613 0.961 . S
C4627 C4626 1.502 . S
C4628 H4614 0.960 . S
C4628 H4615 0.961 . S
C4628 H4616 0.959 . S
C4628 C4626 1.561 . S
C4629 C4626 1.526 . S
C4629 C4630 1.396 . S
C4629 C4634 1.390 . S
C4630 C4624 1.465 . S
C4630 C4629 1.396 . S
C4630 C4631 1.399 . S
C4631 H4617 0.929 . S
C4631 C4630 1.399 . S
C4631 C4632 1.385 . S
C4632 H4618 0.931 . S
C4632 C4631 1.385 . S
C4632 C4633 1.389 . S
C4633 C4632 1.389 . S
C4633 C4634 1.387 . S
C4634 H4619 0.930 . S
C4634 C4629 1.390 . S
C4634 C4633 1.387 . S
H4635 C4647 0.930 . S
H4636 C4649 0.930 . S
H4637 C4650 0.930 . S
H4638 C4654 0.959 . S
H4639 C4654 0.959 . S
H4640 C4654 0.961 . S
H4641 C4655 0.960 . S
H4642 C4655 0.961 . S
H4643 C4655 0.959 . S
H4644 C4658 0.929 . S
H4645 C4659 0.931 . S
H4646 C4661 0.930 . S
C4647 H4635 0.930 . S
C4647 C4648 1.399 . S
C4647 C4652 1.399 . S
C4648 C4647 1.399 . S
C4648 C4649 1.376 . S
C4649 H4636 0.930 . S
C4649 C4648 1.376 . S
C4649 C4650 1.388 . S
C4650 H4637 0.930 . S
C4650 C4649 1.388 . S
C4650 C4651 1.390 . S
C4651 C4650 1.390 . S
C4651 C4652 1.394 . S
C4651 C4657 1.465 . S
C4652 C4647 1.399 . S
C4652 C4651 1.394 . S
C4652 C4653 1.516 . S
C4653 C4652 1.516 . S
C4653 C4654 1.502 . S
C4653 C4655 1.561 . S
C4653 C4656 1.526 . S
C4654 H4638 0.959 . S
C4654 H4639 0.959 . S
C4654 H4640 0.961 . S
C4654 C4653 1.502 . S
C4655 H4641 0.960 . S
C4655 H4642 0.961 . S
C4655 H4643 0.959 . S
C4655 C4653 1.561 . S
C4656 C4653 1.526 . S
C4656 C4657 1.396 . S
C4656 C4661 1.390 . S
C4657 C4651 1.465 . S
C4657 C4656 1.396 . S
C4657 C4658 1.399 . S
C4658 H4644 0.929 . S
C4658 C4657 1.399 . S
C4658 C4659 1.385 . S
C4659 H4645 0.931 . S
C4659 C4658 1.385 . S
C4659 C4660 1.389 . S
C4660 C4659 1.389 . S
C4660 C4661 1.387 . S
C4661 H4646 0.930 . S
C4661 C4656 1.390 . S
C4661 C4660 1.387 . S
H4662 C4674 0.930 . S
H4663 C4676 0.930 . S
H4664 C4677 0.930 . S
H4665 C4681 0.959 . S
H4666 C4681 0.959 . S
H4667 C4681 0.961 . S
H4668 C4682 0.960 . S
H4669 C4682 0.961 . S
H4670 C4682 0.959 . S
H4671 C4685 0.929 . S
H4672 C4686 0.931 . S
H4673 C4688 0.930 . S
C4674 H4662 0.930 . S
C4674 C4675 1.399 . S
C4674 C4679 1.399 . S
C4675 C4674 1.399 . S
C4675 C4676 1.376 . S
C4676 H4663 0.930 . S
C4676 C4675 1.376 . S
C4676 C4677 1.388 . S
C4677 H4664 0.930 . S
C4677 C4676 1.388 . S
C4677 C4678 1.390 . S
C4678 C4677 1.390 . S
C4678 C4679 1.394 . S
C4678 C4684 1.465 . S
C4679 C4674 1.399 . S
C4679 C4678 1.394 . S
C4679 C4680 1.516 . S
C4680 C4679 1.516 . S
C4680 C4681 1.502 . S
C4680 C4682 1.561 . S
C4680 C4683 1.526 . S
C4681 H4665 0.959 . S
C4681 H4666 0.959 . S
C4681 H4667 0.961 . S
C4681 C4680 1.502 . S
C4682 H4668 0.960 . S
C4682 H4669 0.961 . S
C4682 H4670 0.959 . S
C4682 C4680 1.561 . S
C4683 C4680 1.526 . S
C4683 C4684 1.396 . S
C4683 C4688 1.390 . S
C4684 C4678 1.465 . S
C4684 C4683 1.396 . S
C4684 C4685 1.399 . S
C4685 H4671 0.929 . S
C4685 C4684 1.399 . S
C4685 C4686 1.385 . S
C4686 H4672 0.931 . S
C4686 C4685 1.385 . S
C4686 C4687 1.389 . S
C4687 C4686 1.389 . S
C4687 C4688 1.387 . S
C4688 H4673 0.930 . S
C4688 C4683 1.390 . S
C4688 C4687 1.387 . S
H4689 C4701 0.930 . S
H4690 C4703 0.930 . S
H4691 C4704 0.930 . S
H4692 C4708 0.959 . S
H4693 C4708 0.959 . S
H4694 C4708 0.961 . S
H4695 C4709 0.960 . S
H4696 C4709 0.961 . S
H4697 C4709 0.959 . S
H4698 C4712 0.929 . S
H4699 C4713 0.931 . S
H4700 C4715 0.930 . S
C4701 H4689 0.930 . S
C4701 C4702 1.399 . S
C4701 C4706 1.399 . S
C4702 C4701 1.399 . S
C4702 C4703 1.376 . S
C4703 H4690 0.930 . S
C4703 C4702 1.376 . S
C4703 C4704 1.388 . S
C4704 H4691 0.930 . S
C4704 C4703 1.388 . S
C4704 C4705 1.390 . S
C4705 C4704 1.390 . S
C4705 C4706 1.394 . S
C4705 C4711 1.465 . S
C4706 C4701 1.399 . S
C4706 C4705 1.394 . S
C4706 C4707 1.516 . S
C4707 C4706 1.516 . S
C4707 C4708 1.502 . S
C4707 C4709 1.561 . S
C4707 C4710 1.526 . S
C4708 H4692 0.959 . S
C4708 H4693 0.959 . S
C4708 H4694 0.961 . S
C4708 C4707 1.502 . S
C4709 H4695 0.960 . S
C4709 H4696 0.961 . S
C4709 H4697 0.959 . S
C4709 C4707 1.561 . S
C4710 C4707 1.526 . S
C4710 C4711 1.396 . S
C4710 C4715 1.390 . S
C4711 C4705 1.465 . S
C4711 C4710 1.396 . S
C4711 C4712 1.399 . S
C4712 H4698 0.929 . S
C4712 C4711 1.399 . S
C4712 C4713 1.385 . S
C4713 H4699 0.931 . S
C4713 C4712 1.385 . S
C4713 C4714 1.389 . S
C4714 C4713 1.389 . S
C4714 C4715 1.387 . S
C4715 H4700 0.930 . S
C4715 C4710 1.390 . S
C4715 C4714 1.387 . S
H4716 C4728 0.930 . S
H4717 C4730 0.930 . S
H4718 C4731 0.930 . S
H4719 C4735 0.959 . S
H4720 C4735 0.959 . S
H4721 C4735 0.961 . S
H4722 C4736 0.960 . S
H4723 C4736 0.961 . S
H4724 C4736 0.959 . S
H4725 C4739 0.929 . S
H4726 C4740 0.931 . S
H4727 C4742 0.930 . S
C4728 H4716 0.930 . S
C4728 C4729 1.399 . S
C4728 C4733 1.399 . S
C4729 C4728 1.399 . S
C4729 C4730 1.376 . S
C4730 H4717 0.930 . S
C4730 C4729 1.376 . S
C4730 C4731 1.388 . S
C4731 H4718 0.930 . S
C4731 C4730 1.388 . S
C4731 C4732 1.390 . S
C4732 C4731 1.390 . S
C4732 C4733 1.394 . S
C4732 C4738 1.465 . S
C4733 C4728 1.399 . S
C4733 C4732 1.394 . S
C4733 C4734 1.516 . S
C4734 C4733 1.516 . S
C4734 C4735 1.502 . S
C4734 C4736 1.561 . S
C4734 C4737 1.526 . S
C4735 H4719 0.959 . S
C4735 H4720 0.959 . S
C4735 H4721 0.961 . S
C4735 C4734 1.502 . S
C4736 H4722 0.960 . S
C4736 H4723 0.961 . S
C4736 H4724 0.959 . S
C4736 C4734 1.561 . S
C4737 C4734 1.526 . S
C4737 C4738 1.396 . S
C4737 C4742 1.390 . S
C4738 C4732 1.465 . S
C4738 C4737 1.396 . S
C4738 C4739 1.399 . S
C4739 H4725 0.929 . S
C4739 C4738 1.399 . S
C4739 C4740 1.385 . S
C4740 H4726 0.931 . S
C4740 C4739 1.385 . S
C4740 C4741 1.389 . S
C4741 C4740 1.389 . S
C4741 C4742 1.387 . S
C4742 H4727 0.930 . S
C4742 C4737 1.390 . S
C4742 C4741 1.387 . S
H4743 C4755 0.930 . S
H4744 C4757 0.930 . S
H4745 C4758 0.930 . S
H4746 C4762 0.959 . S
H4747 C4762 0.959 . S
H4748 C4762 0.961 . S
H4749 C4763 0.960 . S
H4750 C4763 0.961 . S
H4751 C4763 0.959 . S
H4752 C4766 0.929 . S
H4753 C4767 0.931 . S
H4754 C4769 0.930 . S
C4755 H4743 0.930 . S
C4755 C4756 1.399 . S
C4755 C4760 1.399 . S
C4756 C4755 1.399 . S
C4756 C4757 1.376 . S
C4757 H4744 0.930 . S
C4757 C4756 1.376 . S
C4757 C4758 1.388 . S
C4758 H4745 0.930 . S
C4758 C4757 1.388 . S
C4758 C4759 1.390 . S
C4759 C4758 1.390 . S
C4759 C4760 1.394 . S
C4759 C4765 1.465 . S
C4760 C4755 1.399 . S
C4760 C4759 1.394 . S
C4760 C4761 1.516 . S
C4761 C4760 1.516 . S
C4761 C4762 1.502 . S
C4761 C4763 1.561 . S
C4761 C4764 1.526 . S
C4762 H4746 0.959 . S
C4762 H4747 0.959 . S
C4762 H4748 0.961 . S
C4762 C4761 1.502 . S
C4763 H4749 0.960 . S
C4763 H4750 0.961 . S
C4763 H4751 0.959 . S
C4763 C4761 1.561 . S
C4764 C4761 1.526 . S
C4764 C4765 1.396 . S
C4764 C4769 1.390 . S
C4765 C4759 1.465 . S
C4765 C4764 1.396 . S
C4765 C4766 1.399 . S
C4766 H4752 0.929 . S
C4766 C4765 1.399 . S
C4766 C4767 1.385 . S
C4767 H4753 0.931 . S
C4767 C4766 1.385 . S
C4767 C4768 1.389 . S
C4768 C4767 1.389 . S
C4768 C4769 1.387 . S
C4769 H4754 0.930 . S
C4769 C4764 1.390 . S
C4769 C4768 1.387 . S
H4770 C4782 0.930 . S
H4771 C4784 0.930 . S
H4772 C4785 0.930 . S
H4773 C4789 0.959 . S
H4774 C4789 0.959 . S
H4775 C4789 0.961 . S
H4776 C4790 0.960 . S
H4777 C4790 0.961 . S
H4778 C4790 0.959 . S
H4779 C4793 0.929 . S
H4780 C4794 0.931 . S
H4781 C4796 0.930 . S
C4782 H4770 0.930 . S
C4782 C4783 1.399 . S
C4782 C4787 1.399 . S
C4783 C4782 1.399 . S
C4783 C4784 1.376 . S
C4784 H4771 0.930 . S
C4784 C4783 1.376 . S
C4784 C4785 1.388 . S
C4785 H4772 0.930 . S
C4785 C4784 1.388 . S
C4785 C4786 1.390 . S
C4786 C4785 1.390 . S
C4786 C4787 1.394 . S
C4786 C4792 1.465 . S
C4787 C4782 1.399 . S
C4787 C4786 1.394 . S
C4787 C4788 1.516 . S
C4788 C4787 1.516 . S
C4788 C4789 1.502 . S
C4788 C4790 1.561 . S
C4788 C4791 1.526 . S
C4789 H4773 0.959 . S
C4789 H4774 0.959 . S
C4789 H4775 0.961 . S
C4789 C4788 1.502 . S
C4790 H4776 0.960 . S
C4790 H4777 0.961 . S
C4790 H4778 0.959 . S
C4790 C4788 1.561 . S
C4791 C4788 1.526 . S
C4791 C4792 1.396 . S
C4791 C4796 1.390 . S
C4792 C4786 1.465 . S
C4792 C4791 1.396 . S
C4792 C4793 1.399 . S
C4793 H4779 0.929 . S
C4793 C4792 1.399 . S
C4793 C4794 1.385 . S
C4794 H4780 0.931 . S
C4794 C4793 1.385 . S
C4794 C4795 1.389 . S
C4795 C4794 1.389 . S
C4795 C4796 1.387 . S
C4796 H4781 0.930 . S
C4796 C4791 1.390 . S
C4796 C4795 1.387 . S
H4797 C4809 0.930 . S
H4798 C4811 0.930 . S
H4799 C4812 0.930 . S
H4800 C4816 0.959 . S
H4801 C4816 0.959 . S
H4802 C4816 0.961 . S
H4803 C4817 0.960 . S
H4804 C4817 0.961 . S
H4805 C4817 0.959 . S
H4806 C4820 0.929 . S
H4807 C4821 0.931 . S
H4808 C4823 0.930 . S
C4809 H4797 0.930 . S
C4809 C4810 1.399 . S
C4809 C4814 1.399 . S
C4810 C4809 1.399 . S
C4810 C4811 1.376 . S
C4811 H4798 0.930 . S
C4811 C4810 1.376 . S
C4811 C4812 1.388 . S
C4812 H4799 0.930 . S
C4812 C4811 1.388 . S
C4812 C4813 1.390 . S
C4813 C4812 1.390 . S
C4813 C4814 1.394 . S
C4813 C4819 1.465 . S
C4814 C4809 1.399 . S
C4814 C4813 1.394 . S
C4814 C4815 1.516 . S
C4815 C4814 1.516 . S
C4815 C4816 1.502 . S
C4815 C4817 1.561 . S
C4815 C4818 1.526 . S
C4816 H4800 0.959 . S
C4816 H4801 0.959 . S
C4816 H4802 0.961 . S
C4816 C4815 1.502 . S
C4817 H4803 0.960 . S
C4817 H4804 0.961 . S
C4817 H4805 0.959 . S
C4817 C4815 1.561 . S
C4818 C4815 1.526 . S
C4818 C4819 1.396 . S
C4818 C4823 1.390 . S
C4819 C4813 1.465 . S
C4819 C4818 1.396 . S
C4819 C4820 1.399 . S
C4820 H4806 0.929 . S
C4820 C4819 1.399 . S
C4820 C4821 1.385 . S
C4821 H4807 0.931 . S
C4821 C4820 1.385 . S
C4821 C4822 1.389 . S
C4822 C4821 1.389 . S
C4822 C4823 1.387 . S
C4823 H4808 0.930 . S
C4823 C4818 1.390 . S
C4823 C4822 1.387 . S
H4824 C4836 0.930 . S
H4825 C4838 0.930 . S
H4826 C4839 0.930 . S
H4827 C4843 0.959 . S
H4828 C4843 0.959 . S
H4829 C4843 0.961 . S
H4830 C4844 0.960 . S
H4831 C4844 0.961 . S
H4832 C4844 0.959 . S
H4833 C4847 0.929 . S
H4834 C4848 0.931 . S
H4835 C4850 0.930 . S
C4836 H4824 0.930 . S
C4836 C4837 1.399 . S
C4836 C4841 1.399 . S
C4837 C4836 1.399 . S
C4837 C4838 1.376 . S
C4838 H4825 0.930 . S
C4838 C4837 1.376 . S
C4838 C4839 1.388 . S
C4839 H4826 0.930 . S
C4839 C4838 1.388 . S
C4839 C4840 1.390 . S
C4840 C4839 1.390 . S
C4840 C4841 1.394 . S
C4840 C4846 1.465 . S
C4841 C4836 1.399 . S
C4841 C4840 1.394 . S
C4841 C4842 1.516 . S
C4842 C4841 1.516 . S
C4842 C4843 1.502 . S
C4842 C4844 1.561 . S
C4842 C4845 1.526 . S
C4843 H4827 0.959 . S
C4843 H4828 0.959 . S
C4843 H4829 0.961 . S
C4843 C4842 1.502 . S
C4844 H4830 0.960 . S
C4844 H4831 0.961 . S
C4844 H4832 0.959 . S
C4844 C4842 1.561 . S
C4845 C4842 1.526 . S
C4845 C4846 1.396 . S
C4845 C4850 1.390 . S
C4846 C4840 1.465 . S
C4846 C4845 1.396 . S
C4846 C4847 1.399 . S
C4847 H4833 0.929 . S
C4847 C4846 1.399 . S
C4847 C4848 1.385 . S
C4848 H4834 0.931 . S
C4848 C4847 1.385 . S
C4848 C4849 1.389 . S
C4849 C4848 1.389 . S
C4849 C4850 1.387 . S
C4850 H4835 0.930 . S
C4850 C4845 1.390 . S
C4850 C4849 1.387 . S
H4851 C4863 0.930 . S
H4852 C4865 0.930 . S
H4853 C4866 0.930 . S
H4854 C4870 0.959 . S
H4855 C4870 0.959 . S
H4856 C4870 0.961 . S
H4857 C4871 0.960 . S
H4858 C4871 0.961 . S
H4859 C4871 0.959 . S
H4860 C4874 0.929 . S
H4861 C4875 0.931 . S
H4862 C4877 0.930 . S
C4863 H4851 0.930 . S
C4863 C4864 1.399 . S
C4863 C4868 1.399 . S
C4864 C4863 1.399 . S
C4864 C4865 1.376 . S
C4865 H4852 0.930 . S
C4865 C4864 1.376 . S
C4865 C4866 1.388 . S
C4866 H4853 0.930 . S
C4866 C4865 1.388 . S
C4866 C4867 1.390 . S
C4867 C4866 1.390 . S
C4867 C4868 1.394 . S
C4867 C4873 1.465 . S
C4868 C4863 1.399 . S
C4868 C4867 1.394 . S
C4868 C4869 1.516 . S
C4869 C4868 1.516 . S
C4869 C4870 1.502 . S
C4869 C4871 1.561 . S
C4869 C4872 1.526 . S
C4870 H4854 0.959 . S
C4870 H4855 0.959 . S
C4870 H4856 0.961 . S
C4870 C4869 1.502 . S
C4871 H4857 0.960 . S
C4871 H4858 0.961 . S
C4871 H4859 0.959 . S
C4871 C4869 1.561 . S
C4872 C4869 1.526 . S
C4872 C4873 1.396 . S
C4872 C4877 1.390 . S
C4873 C4867 1.465 . S
C4873 C4872 1.396 . S
C4873 C4874 1.399 . S
C4874 H4860 0.929 . S
C4874 C4873 1.399 . S
C4874 C4875 1.385 . S
C4875 H4861 0.931 . S
C4875 C4874 1.385 . S
C4875 C4876 1.389 . S
C4876 C4875 1.389 . S
C4876 C4877 1.387 . S
C4877 H4862 0.930 . S
C4877 C4872 1.390 . S
C4877 C4876 1.387 . S
H4878 C4890 0.930 . S
H4879 C4892 0.930 . S
H4880 C4893 0.930 . S
H4881 C4897 0.959 . S
H4882 C4897 0.959 . S
H4883 C4897 0.961 . S
H4884 C4898 0.960 . S
H4885 C4898 0.961 . S
H4886 C4898 0.959 . S
H4887 C4901 0.929 . S
H4888 C4902 0.931 . S
H4889 C4904 0.930 . S
C4890 H4878 0.930 . S
C4890 C4891 1.399 . S
C4890 C4895 1.399 . S
C4891 C4890 1.399 . S
C4891 C4892 1.376 . S
C4892 H4879 0.930 . S
C4892 C4891 1.376 . S
C4892 C4893 1.388 . S
C4893 H4880 0.930 . S
C4893 C4892 1.388 . S
C4893 C4894 1.390 . S
C4894 C4893 1.390 . S
C4894 C4895 1.394 . S
C4894 C4900 1.465 . S
C4895 C4890 1.399 . S
C4895 C4894 1.394 . S
C4895 C4896 1.516 . S
C4896 C4895 1.516 . S
C4896 C4897 1.502 . S
C4896 C4898 1.561 . S
C4896 C4899 1.526 . S
C4897 H4881 0.959 . S
C4897 H4882 0.959 . S
C4897 H4883 0.961 . S
C4897 C4896 1.502 . S
C4898 H4884 0.960 . S
C4898 H4885 0.961 . S
C4898 H4886 0.959 . S
C4898 C4896 1.561 . S
C4899 C4896 1.526 . S
C4899 C4900 1.396 . S
C4899 C4904 1.390 . S
C4900 C4894 1.465 . S
C4900 C4899 1.396 . S
C4900 C4901 1.399 . S
C4901 H4887 0.929 . S
C4901 C4900 1.399 . S
C4901 C4902 1.385 . S
C4902 H4888 0.931 . S
C4902 C4901 1.385 . S
C4902 C4903 1.389 . S
C4903 C4902 1.389 . S
C4903 C4904 1.387 . S
C4904 H4889 0.930 . S
C4904 C4899 1.390 . S
C4904 C4903 1.387 . S
H4905 C4917 0.930 . S
H4906 C4919 0.930 . S
H4907 C4920 0.930 . S
H4908 C4924 0.959 . S
H4909 C4924 0.959 . S
H4910 C4924 0.961 . S
H4911 C4925 0.960 . S
H4912 C4925 0.961 . S
H4913 C4925 0.959 . S
H4914 C4928 0.929 . S
H4915 C4929 0.931 . S
H4916 C4931 0.930 . S
C4917 H4905 0.930 . S
C4917 C4918 1.399 . S
C4917 C4922 1.399 . S
C4918 C4917 1.399 . S
C4918 C4919 1.376 . S
C4919 H4906 0.930 . S
C4919 C4918 1.376 . S
C4919 C4920 1.388 . S
C4920 H4907 0.930 . S
C4920 C4919 1.388 . S
C4920 C4921 1.390 . S
C4921 C4920 1.390 . S
C4921 C4922 1.394 . S
C4921 C4927 1.465 . S
C4922 C4917 1.399 . S
C4922 C4921 1.394 . S
C4922 C4923 1.516 . S
C4923 C4922 1.516 . S
C4923 C4924 1.502 . S
C4923 C4925 1.561 . S
C4923 C4926 1.526 . S
C4924 H4908 0.959 . S
C4924 H4909 0.959 . S
C4924 H4910 0.961 . S
C4924 C4923 1.502 . S
C4925 H4911 0.960 . S
C4925 H4912 0.961 . S
C4925 H4913 0.959 . S
C4925 C4923 1.561 . S
C4926 C4923 1.526 . S
C4926 C4927 1.396 . S
C4926 C4931 1.390 . S
C4927 C4921 1.465 . S
C4927 C4926 1.396 . S
C4927 C4928 1.399 . S
C4928 H4914 0.929 . S
C4928 C4927 1.399 . S
C4928 C4929 1.385 . S
C4929 H4915 0.931 . S
C4929 C4928 1.385 . S
C4929 C4930 1.389 . S
C4930 C4929 1.389 . S
C4930 C4931 1.387 . S
C4931 H4916 0.930 . S
C4931 C4926 1.390 . S
C4931 C4930 1.387 . S
H4932 C4944 0.930 . S
H4933 C4946 0.930 . S
H4934 C4947 0.930 . S
H4935 C4951 0.959 . S
H4936 C4951 0.959 . S
H4937 C4951 0.961 . S
H4938 C4952 0.960 . S
H4939 C4952 0.961 . S
H4940 C4952 0.959 . S
H4941 C4955 0.929 . S
H4942 C4956 0.931 . S
H4943 C4958 0.930 . S
C4944 H4932 0.930 . S
C4944 C4945 1.399 . S
C4944 C4949 1.399 . S
C4945 C4944 1.399 . S
C4945 C4946 1.376 . S
C4946 H4933 0.930 . S
C4946 C4945 1.376 . S
C4946 C4947 1.388 . S
C4947 H4934 0.930 . S
C4947 C4946 1.388 . S
C4947 C4948 1.390 . S
C4948 C4947 1.390 . S
C4948 C4949 1.394 . S
C4948 C4954 1.465 . S
C4949 C4944 1.399 . S
C4949 C4948 1.394 . S
C4949 C4950 1.516 . S
C4950 C4949 1.516 . S
C4950 C4951 1.502 . S
C4950 C4952 1.561 . S
C4950 C4953 1.526 . S
C4951 H4935 0.959 . S
C4951 H4936 0.959 . S
C4951 H4937 0.961 . S
C4951 C4950 1.502 . S
C4952 H4938 0.960 . S
C4952 H4939 0.961 . S
C4952 H4940 0.959 . S
C4952 C4950 1.561 . S
C4953 C4950 1.526 . S
C4953 C4954 1.396 . S
C4953 C4958 1.390 . S
C4954 C4948 1.465 . S
C4954 C4953 1.396 . S
C4954 C4955 1.399 . S
C4955 H4941 0.929 . S
C4955 C4954 1.399 . S
C4955 C4956 1.385 . S
C4956 H4942 0.931 . S
C4956 C4955 1.385 . S
C4956 C4957 1.389 . S
C4957 C4956 1.389 . S
C4957 C4958 1.387 . S
C4958 H4943 0.930 . S
C4958 C4953 1.390 . S
C4958 C4957 1.387 . S
H4959 C4971 0.930 . S
H4960 C4973 0.930 . S
H4961 C4974 0.930 . S
H4962 C4978 0.959 . S
H4963 C4978 0.959 . S
H4964 C4978 0.961 . S
H4965 C4979 0.960 . S
H4966 C4979 0.961 . S
H4967 C4979 0.959 . S
H4968 C4982 0.929 . S
H4969 C4983 0.931 . S
H4970 C4985 0.930 . S
C4971 H4959 0.930 . S
C4971 C4972 1.399 . S
C4971 C4976 1.399 . S
C4972 C4971 1.399 . S
C4972 C4973 1.376 . S
C4973 H4960 0.930 . S
C4973 C4972 1.376 . S
C4973 C4974 1.388 . S
C4974 H4961 0.930 . S
C4974 C4973 1.388 . S
C4974 C4975 1.390 . S
C4975 C4974 1.390 . S
C4975 C4976 1.394 . S
C4975 C4981 1.465 . S
C4976 C4971 1.399 . S
C4976 C4975 1.394 . S
C4976 C4977 1.516 . S
C4977 C4976 1.516 . S
C4977 C4978 1.502 . S
C4977 C4979 1.561 . S
C4977 C4980 1.526 . S
C4978 H4962 0.959 . S
C4978 H4963 0.959 . S
C4978 H4964 0.961 . S
C4978 C4977 1.502 . S
C4979 H4965 0.960 . S
C4979 H4966 0.961 . S
C4979 H4967 0.959 . S
C4979 C4977 1.561 . S
C4980 C4977 1.526 . S
C4980 C4981 1.396 . S
C4980 C4985 1.390 . S
C4981 C4975 1.465 . S
C4981 C4980 1.396 . S
C4981 C4982 1.399 . S
C4982 H4968 0.929 . S
C4982 C4981 1.399 . S
C4982 C4983 1.385 . S
C4983 H4969 0.931 . S
C4983 C4982 1.385 . S
C4983 C4984 1.389 . S
C4984 C4983 1.389 . S
C4984 C4985 1.387 . S
C4985 H4970 0.930 . S
C4985 C4980 1.390 . S
C4985 C4984 1.387 . S
H4986 C4998 0.930 . S
H4987 C5000 0.930 . S
H4988 C5001 0.930 . S
H4989 C5005 0.959 . S
H4990 C5005 0.959 . S
H4991 C5005 0.961 . S
H4992 C5006 0.960 . S
H4993 C5006 0.961 . S
H4994 C5006 0.959 . S
H4995 C5009 0.929 . S
H4996 C5010 0.931 . S
H4997 C5012 0.930 . S
C4998 H4986 0.930 . S
C4998 C4999 1.399 . S
C4998 C5003 1.399 . S
C4999 C4998 1.399 . S
C4999 C5000 1.376 . S
C5000 H4987 0.930 . S
C5000 C4999 1.376 . S
C5000 C5001 1.388 . S
C5001 H4988 0.930 . S
C5001 C5000 1.388 . S
C5001 C5002 1.390 . S
C5002 C5001 1.390 . S
C5002 C5003 1.394 . S
C5002 C5008 1.465 . S
C5003 C4998 1.399 . S
C5003 C5002 1.394 . S
C5003 C5004 1.516 . S
C5004 C5003 1.516 . S
C5004 C5005 1.502 . S
C5004 C5006 1.561 . S
C5004 C5007 1.526 . S
C5005 H4989 0.959 . S
C5005 H4990 0.959 . S
C5005 H4991 0.961 . S
C5005 C5004 1.502 . S
C5006 H4992 0.960 . S
C5006 H4993 0.961 . S
C5006 H4994 0.959 . S
C5006 C5004 1.561 . S
C5007 C5004 1.526 . S
C5007 C5008 1.396 . S
C5007 C5012 1.390 . S
C5008 C5002 1.465 . S
C5008 C5007 1.396 . S
C5008 C5009 1.399 . S
C5009 H4995 0.929 . S
C5009 C5008 1.399 . S
C5009 C5010 1.385 . S
C5010 H4996 0.931 . S
C5010 C5009 1.385 . S
C5010 C5011 1.389 . S
C5011 C5010 1.389 . S
C5011 C5012 1.387 . S
C5012 H4997 0.930 . S
C5012 C5007 1.390 . S
C5012 C5011 1.387 . S
H5013 C5025 0.930 . S
H5014 C5027 0.930 . S
H5015 C5028 0.930 . S
H5016 C5032 0.959 1_455 S
H5017 C5032 0.959 . S
H5018 C5032 0.961 . S
H5019 C5033 0.960 . S
H5020 C5033 0.961 . S
H5021 C5033 0.959 . S
H5022 C5036 0.929 . S
H5023 C5037 0.931 . S
H5024 C5039 0.930 1_655 S
C5025 H5013 0.930 . S
C5025 C5026 1.399 . S
C5025 C5030 1.399 . S
C5026 C5025 1.399 . S
C5026 C5027 1.376 . S
C5027 H5014 0.930 . S
C5027 C5026 1.376 . S
C5027 C5028 1.388 . S
C5028 H5015 0.930 . S
C5028 C5027 1.388 . S
C5028 C5029 1.390 . S
C5029 C5028 1.390 . S
C5029 C5030 1.394 . S
C5029 C5035 1.465 . S
C5030 C5025 1.399 . S
C5030 C5029 1.394 . S
C5030 C5031 1.516 1_455 S
C5031 C5030 1.516 1_655 S
C5031 C5032 1.502 . S
C5031 C5033 1.561 . S
C5031 C5034 1.526 1_655 S
C5032 H5016 0.959 1_655 S
C5032 H5017 0.959 . S
C5032 H5018 0.961 . S
C5032 C5031 1.502 . S
C5033 H5019 0.960 . S
C5033 H5020 0.961 . S
C5033 H5021 0.959 . S
C5033 C5031 1.561 . S
C5034 C5031 1.526 1_455 S
C5034 C5035 1.396 . S
C5034 C5039 1.390 . S
C5035 C5029 1.465 . S
C5035 C5034 1.396 . S
C5035 C5036 1.399 . S
C5036 H5022 0.929 . S
C5036 C5035 1.399 . S
C5036 C5037 1.385 . S
C5037 H5023 0.931 . S
C5037 C5036 1.385 . S
C5037 C5038 1.389 . S
C5038 C5037 1.389 . S
C5038 C5039 1.387 . S
C5039 H5024 0.930 1_455 S
C5039 C5034 1.390 . S
C5039 C5038 1.387 . S
H5040 C5052 0.930 . S
H5041 C5054 0.930 . S
H5042 C5055 0.930 . S
H5043 C5059 0.959 . S
H5044 C5059 0.959 . S
H5045 C5059 0.961 . S
H5046 C5060 0.960 . S
H5047 C5060 0.961 . S
H5048 C5060 0.959 . S
H5049 C5063 0.929 . S
H5050 C5064 0.931 . S
H5051 C5066 0.930 . S
C5052 H5040 0.930 . S
C5052 C5053 1.399 . S
C5052 C5057 1.399 . S
C5053 C5052 1.399 . S
C5053 C5054 1.376 . S
C5054 H5041 0.930 . S
C5054 C5053 1.376 . S
C5054 C5055 1.388 . S
C5055 H5042 0.930 . S
C5055 C5054 1.388 . S
C5055 C5056 1.390 . S
C5056 C5055 1.390 . S
C5056 C5057 1.394 . S
C5056 C5062 1.465 . S
C5057 C5052 1.399 . S
C5057 C5056 1.394 . S
C5057 C5058 1.516 . S
C5058 C5057 1.516 . S
C5058 C5059 1.502 . S
C5058 C5060 1.561 . S
C5058 C5061 1.526 . S
C5059 H5043 0.959 . S
C5059 H5044 0.959 . S
C5059 H5045 0.961 . S
C5059 C5058 1.502 . S
C5060 H5046 0.960 . S
C5060 H5047 0.961 . S
C5060 H5048 0.959 . S
C5060 C5058 1.561 . S
C5061 C5058 1.526 . S
C5061 C5062 1.396 . S
C5061 C5066 1.390 . S
C5062 C5056 1.465 . S
C5062 C5061 1.396 . S
C5062 C5063 1.399 . S
C5063 H5049 0.929 . S
C5063 C5062 1.399 . S
C5063 C5064 1.385 . S
C5064 H5050 0.931 . S
C5064 C5063 1.385 . S
C5064 C5065 1.389 . S
C5065 C5064 1.389 . S
C5065 C5066 1.387 . S
C5066 H5051 0.930 . S
C5066 C5061 1.390 . S
C5066 C5065 1.387 . S
H5067 C5079 0.930 1_545 S
H5068 C5081 0.930 . S
H5069 C5082 0.930 . S
H5070 C5086 0.959 . S
H5071 C5086 0.959 . S
H5072 C5086 0.961 . S
H5073 C5087 0.960 . S
H5074 C5087 0.961 . S
H5075 C5087 0.959 . S
H5076 C5090 0.929 . S
H5077 C5091 0.931 . S
H5078 C5093 1.008 . S
C5079 H5067 0.930 1_565 S
C5079 C5080 1.399 . S
C5079 C5084 1.399 . S
C5080 C5079 1.399 . S
C5080 C5081 1.376 . S
C5081 H5068 0.930 . S
C5081 C5080 1.376 . S
C5081 C5082 1.388 . S
C5082 H5069 0.930 . S
C5082 C5081 1.388 . S
C5082 C5083 1.390 . S
C5083 C5082 1.390 . S
C5083 C5084 1.394 . S
C5083 C5089 1.465 . S
C5084 C5079 1.399 . S
C5084 C5083 1.394 . S
C5084 C5085 1.516 1_565 S
C5085 C5084 1.516 1_545 S
C5085 C5086 1.502 . S
C5085 C5087 1.561 . S
C5085 C5088 1.526 1_545 S
C5086 H5070 0.959 . S
C5086 H5071 0.959 . S
C5086 H5072 0.961 . S
C5086 C5085 1.502 . S
C5087 H5073 0.960 . S
C5087 H5074 0.961 . S
C5087 H5075 0.959 . S
C5087 C5085 1.561 . S
C5088 C5085 1.526 1_565 S
C5088 C5089 1.396 . S
C5088 C5093 1.405 1_565 S
C5089 C5083 1.465 . S
C5089 C5088 1.396 . S
C5089 C5090 1.399 . S
C5090 H5076 0.929 . S
C5090 C5089 1.399 . S
C5090 C5091 1.385 . S
C5091 H5077 0.931 . S
C5091 C5090 1.385 . S
C5091 C5092 1.389 . S
C5092 C5091 1.389 . S
C5092 C5093 1.298 1_565 S
C5093 H5078 1.008 . S
C5093 C5088 1.405 1_545 S
C5093 C5092 1.298 1_545 S
H5094 C5106 0.930 . S
H5095 C5108 0.944 . S
H5096 C5109 0.930 . S
H5097 C5113 0.959 . S
H5098 C5113 0.959 . S
H5099 C5113 0.961 . S
H5100 C5114 0.960 . S
H5101 C5114 0.961 . S
H5102 C5114 0.959 . S
H5103 C5117 0.929 . S
H5104 C5118 0.931 . S
H5105 C5120 0.930 . S
C5106 H5094 0.930 . S
C5106 C5107 1.399 . S
C5106 C5111 1.399 . S
C5107 C5106 1.399 . S
C5107 C5108 1.332 1_565 S
C5108 H5095 0.944 . S
C5108 C5107 1.332 1_545 S
C5108 C5109 1.421 . S
C5109 H5096 0.930 . S
C5109 C5108 1.421 . S
C5109 C5110 1.390 1_545 S
C5110 C5109 1.390 1_565 S
C5110 C5111 1.394 . S
C5110 C5116 1.486 . S
C5111 C5106 1.399 . S
C5111 C5110 1.394 . S
C5111 C5112 1.516 . S
C5112 C5111 1.516 . S
C5112 C5113 1.502 . S
C5112 C5114 1.561 . S
C5112 C5115 1.526 . S
C5113 H5097 0.959 . S
C5113 H5098 0.959 . S
C5113 H5099 0.961 . S
C5113 C5112 1.502 . S
C5114 H5100 0.960 . S
C5114 H5101 0.961 . S
C5114 H5102 0.959 . S
C5114 C5112 1.561 . S
C5115 C5112 1.526 . S
C5115 C5116 1.420 . S
C5115 C5120 1.390 . S
C5116 C5110 1.486 . S
C5116 C5115 1.420 . S
C5116 C5117 1.361 1_565 S
C5117 H5103 0.929 . S
C5117 C5116 1.361 1_545 S
C5117 C5118 1.385 . S
C5118 H5104 0.931 . S
C5118 C5117 1.385 . S
C5118 C5119 1.337 1_545 S
C5119 C5118 1.337 1_565 S
C5119 C5120 1.473 . S
C5120 H5105 0.930 . S
C5120 C5115 1.390 . S
C5120 C5119 1.473 . S
H5121 C5133 0.930 . S
H5122 C5135 0.930 . S
H5123 C5136 0.930 . S
H5124 C5140 0.959 . S
H5125 C5140 0.959 . S
H5126 C5140 0.961 . S
H5127 C5141 0.960 . S
H5128 C5141 0.961 . S
H5129 C5141 0.959 . S
H5130 C5144 0.929 . S
H5131 C5145 0.931 . S
H5132 C5147 0.930 . S
C5133 H5121 0.930 . S
C5133 C5134 1.399 . S
C5133 C5138 1.399 . S
C5134 C5133 1.399 . S
C5134 C5135 1.376 1_455 S
C5135 H5122 0.930 . S
C5135 C5134 1.376 1_655 S
C5135 C5136 1.388 . S
C5136 H5123 0.930 . S
C5136 C5135 1.388 . S
C5136 C5137 1.390 1_655 S
C5137 C5136 1.390 1_455 S
C5137 C5138 1.394 . S
C5137 C5143 1.477 1_455 S
C5138 C5133 1.399 . S
C5138 C5137 1.394 . S
C5138 C5139 1.516 . S
C5139 C5138 1.516 . S
C5139 C5140 1.502 . S
C5139 C5141 1.561 . S
C5139 C5142 1.526 . S
C5140 H5124 0.959 . S
C5140 H5125 0.959 . S
C5140 H5126 0.961 . S
C5140 C5139 1.502 . S
C5141 H5127 0.960 . S
C5141 H5128 0.961 . S
C5141 H5129 0.959 . S
C5141 C5139 1.561 . S
C5142 C5139 1.526 . S
C5142 C5143 1.361 1_455 S
C5142 C5147 1.390 . S
C5143 C5137 1.477 1_655 S
C5143 C5142 1.361 1_655 S
C5143 C5144 1.418 . S
C5144 H5130 0.929 . S
C5144 C5143 1.418 . S
C5144 C5145 1.385 . S
C5145 H5131 0.931 . S
C5145 C5144 1.385 . S
C5145 C5146 1.415 . S
C5146 C5145 1.415 . S
C5146 C5147 1.373 1_655 S
C5147 H5132 0.930 . S
C5147 C5142 1.390 . S
C5147 C5146 1.373 1_455 S
H5148 C5160 0.930 . S
H5149 C5162 0.930 . S
H5150 C5163 0.930 . S
H5151 C5167 0.959 . S
H5152 C5167 0.959 . S
H5153 C5167 0.961 . S
H5154 C5168 0.960 . S
H5155 C5168 0.961 . S
H5156 C5168 0.959 . S
H5157 C5171 0.929 . S
H5158 C5172 0.931 . S
H5159 C5174 0.930 . S
C5160 H5148 0.930 . S
C5160 C5161 1.399 . S
C5160 C5165 1.399 . S
C5161 C5160 1.399 . S
C5161 C5162 1.376 . S
C5162 H5149 0.930 . S
C5162 C5161 1.376 . S
C5162 C5163 1.388 . S
C5163 H5150 0.930 . S
C5163 C5162 1.388 . S
C5163 C5164 1.390 . S
C5164 C5163 1.390 . S
C5164 C5165 1.394 . S
C5164 C5170 1.465 . S
C5165 C5160 1.399 . S
C5165 C5164 1.394 . S
C5165 C5166 1.516 . S
C5166 C5165 1.516 . S
C5166 C5167 1.502 . S
C5166 C5168 1.561 . S
C5166 C5169 1.526 . S
C5167 H5151 0.959 . S
C5167 H5152 0.959 . S
C5167 H5153 0.961 . S
C5167 C5166 1.502 . S
C5168 H5154 0.960 . S
C5168 H5155 0.961 . S
C5168 H5156 0.959 . S
C5168 C5166 1.561 . S
C5169 C5166 1.526 . S
C5169 C5170 1.396 . S
C5169 C5174 1.390 . S
C5170 C5164 1.465 . S
C5170 C5169 1.396 . S
C5170 C5171 1.399 . S
C5171 H5157 0.929 . S
C5171 C5170 1.399 . S
C5171 C5172 1.385 . S
C5172 H5158 0.931 . S
C5172 C5171 1.385 . S
C5172 C5173 1.389 . S
C5173 C5172 1.389 . S
C5173 C5174 1.387 . S
C5174 H5159 0.930 . S
C5174 C5169 1.390 . S
C5174 C5173 1.387 . S
H5175 C5187 0.930 . S
H5176 C5189 0.930 . S
H5177 C5190 0.930 . S
H5178 C5194 0.959 . S
H5179 C5194 0.959 . S
H5180 C5194 0.961 . S
H5181 C5195 0.960 . S
H5182 C5195 0.961 . S
H5183 C5195 0.959 . S
H5184 C5198 0.929 . S
H5185 C5199 0.931 . S
H5186 C5201 0.930 . S
C5187 H5175 0.930 . S
C5187 C5188 1.399 . S
C5187 C5192 1.399 . S
C5188 C5187 1.399 . S
C5188 C5189 1.376 . S
C5189 H5176 0.930 . S
C5189 C5188 1.376 . S
C5189 C5190 1.388 . S
C5190 H5177 0.930 . S
C5190 C5189 1.388 . S
C5190 C5191 1.390 . S
C5191 C5190 1.390 . S
C5191 C5192 1.394 . S
C5191 C5197 1.465 . S
C5192 C5187 1.399 . S
C5192 C5191 1.394 . S
C5192 C5193 1.516 . S
C5193 C5192 1.516 . S
C5193 C5194 1.502 . S
C5193 C5195 1.561 . S
C5193 C5196 1.526 . S
C5194 H5178 0.959 . S
C5194 H5179 0.959 . S
C5194 H5180 0.961 . S
C5194 C5193 1.502 . S
C5195 H5181 0.960 . S
C5195 H5182 0.961 . S
C5195 H5183 0.959 . S
C5195 C5193 1.561 . S
C5196 C5193 1.526 . S
C5196 C5197 1.396 . S
C5196 C5201 1.390 . S
C5197 C5191 1.465 . S
C5197 C5196 1.396 . S
C5197 C5198 1.399 . S
C5198 H5184 0.929 . S
C5198 C5197 1.399 . S
C5198 C5199 1.385 . S
C5199 H5185 0.931 . S
C5199 C5198 1.385 . S
C5199 C5200 1.389 . S
C5200 C5199 1.389 . S
C5200 C5201 1.387 . S
C5201 H5186 0.930 . S
C5201 C5196 1.390 . S
C5201 C5200 1.387 . S
H5202 C5214 0.930 . S
H5203 C5216 0.930 . S
H5204 C5217 0.930 . S
H5205 C5221 0.959 . S
H5206 C5221 0.959 . S
H5207 C5221 0.961 . S
H5208 C5222 0.960 . S
H5209 C5222 0.961 . S
H5210 C5222 0.959 . S
H5211 C5225 0.929 . S
H5212 C5226 0.931 . S
H5213 C5228 0.930 . S
C5214 H5202 0.930 . S
C5214 C5215 1.399 . S
C5214 C5219 1.399 . S
C5215 C5214 1.399 . S
C5215 C5216 1.376 . S
C5216 H5203 0.930 . S
C5216 C5215 1.376 . S
C5216 C5217 1.388 . S
C5217 H5204 0.930 . S
C5217 C5216 1.388 . S
C5217 C5218 1.390 . S
C5218 C5217 1.390 . S
C5218 C5219 1.394 . S
C5218 C5224 1.465 . S
C5219 C5214 1.399 . S
C5219 C5218 1.394 . S
C5219 C5220 1.516 . S
C5220 C5219 1.516 . S
C5220 C5221 1.502 . S
C5220 C5222 1.561 . S
C5220 C5223 1.526 . S
C5221 H5205 0.959 . S
C5221 H5206 0.959 . S
C5221 H5207 0.961 . S
C5221 C5220 1.502 . S
C5222 H5208 0.960 . S
C5222 H5209 0.961 . S
C5222 H5210 0.959 . S
C5222 C5220 1.561 . S
C5223 C5220 1.526 . S
C5223 C5224 1.396 . S
C5223 C5228 1.390 . S
C5224 C5218 1.465 . S
C5224 C5223 1.396 . S
C5224 C5225 1.399 . S
C5225 H5211 0.929 . S
C5225 C5224 1.399 . S
C5225 C5226 1.385 . S
C5226 H5212 0.931 . S
C5226 C5225 1.385 . S
C5226 C5227 1.389 . S
C5227 C5226 1.389 . S
C5227 C5228 1.387 . S
C5228 H5213 0.930 . S
C5228 C5223 1.390 . S
C5228 C5227 1.387 . S
H5229 C5241 0.930 . S
H5230 C5243 0.930 . S
H5231 C5244 0.930 . S
H5232 C5248 0.959 . S
H5233 C5248 0.959 . S
H5234 C5248 0.961 . S
H5235 C5249 0.960 . S
H5236 C5249 0.961 . S
H5237 C5249 0.959 . S
H5238 C5252 0.929 . S
H5239 C5253 0.931 . S
H5240 C5255 0.930 . S
C5241 H5229 0.930 . S
C5241 C5242 1.399 . S
C5241 C5246 1.399 . S
C5242 C5241 1.399 . S
C5242 C5243 1.376 . S
C5243 H5230 0.930 . S
C5243 C5242 1.376 . S
C5243 C5244 1.388 . S
C5244 H5231 0.930 . S
C5244 C5243 1.388 . S
C5244 C5245 1.390 . S
C5245 C5244 1.390 . S
C5245 C5246 1.394 . S
C5245 C5251 1.465 . S
C5246 C5241 1.399 . S
C5246 C5245 1.394 . S
C5246 C5247 1.516 . S
C5247 C5246 1.516 . S
C5247 C5248 1.502 . S
C5247 C5249 1.561 . S
C5247 C5250 1.526 . S
C5248 H5232 0.959 . S
C5248 H5233 0.959 . S
C5248 H5234 0.961 . S
C5248 C5247 1.502 . S
C5249 H5235 0.960 . S
C5249 H5236 0.961 . S
C5249 H5237 0.959 . S
C5249 C5247 1.561 . S
C5250 C5247 1.526 . S
C5250 C5251 1.396 . S
C5250 C5255 1.390 . S
C5251 C5245 1.465 . S
C5251 C5250 1.396 . S
C5251 C5252 1.399 . S
C5252 H5238 0.929 . S
C5252 C5251 1.399 . S
C5252 C5253 1.385 . S
C5253 H5239 0.931 . S
C5253 C5252 1.385 . S
C5253 C5254 1.389 . S
C5254 C5253 1.389 . S
C5254 C5255 1.387 . S
C5255 H5240 0.930 . S
C5255 C5250 1.390 . S
C5255 C5254 1.387 . S
H5256 C5268 0.930 . S
H5257 C5270 0.930 1_565 S
H5258 C5271 0.930 . S
H5259 C5275 0.959 . S
H5260 C5275 0.959 . S
H5261 C5275 0.961 . S
H5262 C5276 0.960 . S
H5263 C5276 0.961 . S
H5264 C5276 0.959 . S
H5265 C5279 0.929 . S
H5266 C5280 0.931 . S
H5267 C5282 0.930 . S
C5268 H5256 0.930 . S
C5268 C5269 1.399 . S
C5268 C5273 1.399 . S
C5269 C5268 1.399 . S
C5269 C5270 1.376 . S
C5270 H5257 0.930 1_545 S
C5270 C5269 1.376 . S
C5270 C5271 1.388 1_545 S
C5271 H5258 0.930 . S
C5271 C5270 1.388 1_565 S
C5271 C5272 1.390 1_565 S
C5272 C5271 1.390 1_545 S
C5272 C5273 1.394 . S
C5272 C5278 1.465 . S
C5273 C5268 1.399 . S
C5273 C5272 1.394 . S
C5273 C5274 1.516 . S
C5274 C5273 1.516 . S
C5274 C5275 1.502 . S
C5274 C5276 1.561 . S
C5274 C5277 1.526 . S
C5275 H5259 0.959 . S
C5275 H5260 0.959 . S
C5275 H5261 0.961 . S
C5275 C5274 1.502 . S
C5276 H5262 0.960 . S
C5276 H5263 0.961 . S
C5276 H5264 0.959 . S
C5276 C5274 1.561 . S
C5277 C5274 1.526 . S
C5277 C5278 1.396 . S
C5277 C5282 1.390 . S
C5278 C5272 1.465 . S
C5278 C5277 1.396 . S
C5278 C5279 1.399 1_545 S
C5279 H5265 0.929 . S
C5279 C5278 1.399 1_565 S
C5279 C5280 1.385 . S
C5280 H5266 0.931 . S
C5280 C5279 1.385 . S
C5280 C5281 1.389 1_565 S
C5281 C5280 1.389 1_545 S
C5281 C5282 1.387 . S
C5282 H5267 0.930 . S
C5282 C5277 1.390 . S
C5282 C5281 1.387 . S
H5283 C5295 0.930 1_455 S
H5284 C5297 0.930 . S
H5285 C5298 0.930 . S
H5286 C5302 0.959 . S
H5287 C5302 0.959 . S
H5288 C5302 0.961 . S
H5289 C5303 0.960 . S
H5290 C5303 0.961 . S
H5291 C5303 0.959 . S
H5292 C5306 0.929 . S
H5293 C5307 0.931 . S
H5294 C5309 0.930 . S
C5295 H5283 0.930 1_655 S
C5295 C5296 1.399 . S
C5295 C5300 1.399 . S
C5296 C5295 1.399 . S
C5296 C5297 1.376 . S
C5297 H5284 0.930 . S
C5297 C5296 1.376 . S
C5297 C5298 1.388 . S
C5298 H5285 0.930 . S
C5298 C5297 1.388 . S
C5298 C5299 1.390 . S
C5299 C5298 1.390 . S
C5299 C5300 1.394 . S
C5299 C5305 1.465 . S
C5300 C5295 1.399 . S
C5300 C5299 1.394 . S
C5300 C5301 1.516 1_655 S
C5301 C5300 1.516 1_455 S
C5301 C5302 1.502 . S
C5301 C5303 1.561 . S
C5301 C5304 1.526 1_455 S
C5302 H5286 0.959 . S
C5302 H5287 0.959 . S
C5302 H5288 0.961 . S
C5302 C5301 1.502 . S
C5303 H5289 0.960 . S
C5303 H5290 0.961 . S
C5303 H5291 0.959 . S
C5303 C5301 1.561 . S
C5304 C5301 1.526 1_655 S
C5304 C5305 1.396 . S
C5304 C5309 1.390 1_655 S
C5305 C5299 1.465 . S
C5305 C5304 1.396 . S
C5305 C5306 1.399 . S
C5306 H5292 0.929 . S
C5306 C5305 1.399 . S
C5306 C5307 1.385 . S
C5307 H5293 0.931 . S
C5307 C5306 1.385 . S
C5307 C5308 1.389 . S
C5308 C5307 1.389 . S
C5308 C5309 1.387 1_655 S
C5309 H5294 0.930 . S
C5309 C5304 1.390 1_455 S
C5309 C5308 1.387 1_455 S
H5310 C5322 0.930 . S
H5311 C5324 0.930 . S
H5312 C5325 0.930 . S
H5313 C5329 0.959 . S
H5314 C5329 0.959 . S
H5315 C5329 0.961 . S
H5316 C5330 0.960 . S
H5317 C5330 0.961 . S
H5318 C5330 0.959 . S
H5319 C5333 0.929 . S
H5320 C5334 0.931 . S
H5321 C5336 0.930 . S
C5322 H5310 0.930 . S
C5322 C5323 1.399 . S
C5322 C5327 1.399 . S
C5323 C5322 1.399 . S
C5323 C5324 1.376 . S
C5324 H5311 0.930 . S
C5324 C5323 1.376 . S
C5324 C5325 1.388 . S
C5325 H5312 0.930 . S
C5325 C5324 1.388 . S
C5325 C5326 1.390 . S
C5326 C5325 1.390 . S
C5326 C5327 1.394 . S
C5326 C5332 1.465 . S
C5327 C5322 1.399 . S
C5327 C5326 1.394 . S
C5327 C5328 1.516 . S
C5328 C5327 1.516 . S
C5328 C5329 1.502 . S
C5328 C5330 1.561 . S
C5328 C5331 1.526 . S
C5329 H5313 0.959 . S
C5329 H5314 0.959 . S
C5329 H5315 0.961 . S
C5329 C5328 1.502 . S
C5330 H5316 0.960 . S
C5330 H5317 0.961 . S
C5330 H5318 0.959 . S
C5330 C5328 1.561 . S
C5331 C5328 1.526 . S
C5331 C5332 1.396 . S
C5331 C5336 1.390 . S
C5332 C5326 1.465 . S
C5332 C5331 1.396 . S
C5332 C5333 1.399 . S
C5333 H5319 0.929 . S
C5333 C5332 1.399 . S
C5333 C5334 1.385 . S
C5334 H5320 0.931 . S
C5334 C5333 1.385 . S
C5334 C5335 1.389 . S
C5335 C5334 1.389 . S
C5335 C5336 1.387 . S
C5336 H5321 0.930 . S
C5336 C5331 1.390 . S
C5336 C5335 1.387 . S
H5337 C5349 0.930 . S
H5338 C5351 0.930 . S
H5339 C5352 0.930 . S
H5340 C5356 0.959 . S
H5341 C5356 0.959 . S
H5342 C5356 0.961 . S
H5343 C5357 0.960 . S
H5344 C5357 0.961 . S
H5345 C5357 0.959 . S
H5346 C5360 0.929 . S
H5347 C5361 0.931 . S
H5348 C5363 0.930 . S
C5349 H5337 0.930 . S
C5349 C5350 1.399 . S
C5349 C5354 1.399 . S
C5350 C5349 1.399 . S
C5350 C5351 1.376 . S
C5351 H5338 0.930 . S
C5351 C5350 1.376 . S
C5351 C5352 1.388 . S
C5352 H5339 0.930 . S
C5352 C5351 1.388 . S
C5352 C5353 1.390 . S
C5353 C5352 1.390 . S
C5353 C5354 1.394 . S
C5353 C5359 1.465 . S
C5354 C5349 1.399 . S
C5354 C5353 1.394 . S
C5354 C5355 1.516 . S
C5355 C5354 1.516 . S
C5355 C5356 1.502 . S
C5355 C5357 1.561 . S
C5355 C5358 1.526 . S
C5356 H5340 0.959 . S
C5356 H5341 0.959 . S
C5356 H5342 0.961 . S
C5356 C5355 1.502 . S
C5357 H5343 0.960 . S
C5357 H5344 0.961 . S
C5357 H5345 0.959 . S
C5357 C5355 1.561 . S
C5358 C5355 1.526 . S
C5358 C5359 1.396 . S
C5358 C5363 1.390 . S
C5359 C5353 1.465 . S
C5359 C5358 1.396 . S
C5359 C5360 1.399 . S
C5360 H5346 0.929 . S
C5360 C5359 1.399 . S
C5360 C5361 1.385 . S
C5361 H5347 0.931 . S
C5361 C5360 1.385 . S
C5361 C5362 1.389 . S
C5362 C5361 1.389 . S
C5362 C5363 1.387 . S
C5363 H5348 0.930 . S
C5363 C5358 1.390 . S
C5363 C5362 1.387 . S
H5364 C5376 0.930 . S
H5365 C5378 0.930 . S
H5366 C5379 0.930 . S
H5367 C5383 0.959 . S
H5368 C5383 0.959 . S
H5369 C5383 0.961 . S
H5370 C5384 0.960 . S
H5371 C5384 0.961 . S
H5372 C5384 0.959 . S
H5373 C5387 0.929 . S
H5374 C5388 0.931 . S
H5375 C5390 0.930 . S
C5376 H5364 0.930 . S
C5376 C5377 1.399 . S
C5376 C5381 1.399 . S
C5377 C5376 1.399 . S
C5377 C5378 1.376 . S
C5378 H5365 0.930 . S
C5378 C5377 1.376 . S
C5378 C5379 1.388 . S
C5379 H5366 0.930 . S
C5379 C5378 1.388 . S
C5379 C5380 1.390 . S
C5380 C5379 1.390 . S
C5380 C5381 1.394 . S
C5380 C5386 1.465 . S
C5381 C5376 1.399 . S
C5381 C5380 1.394 . S
C5381 C5382 1.516 . S
C5382 C5381 1.516 . S
C5382 C5383 1.502 . S
C5382 C5384 1.561 . S
C5382 C5385 1.526 . S
C5383 H5367 0.959 . S
C5383 H5368 0.959 . S
C5383 H5369 0.961 . S
C5383 C5382 1.502 . S
C5384 H5370 0.960 . S
C5384 H5371 0.961 . S
C5384 H5372 0.959 . S
C5384 C5382 1.561 . S
C5385 C5382 1.526 . S
C5385 C5386 1.396 . S
C5385 C5390 1.390 . S
C5386 C5380 1.465 . S
C5386 C5385 1.396 . S
C5386 C5387 1.399 . S
C5387 H5373 0.929 . S
C5387 C5386 1.399 . S
C5387 C5388 1.385 . S
C5388 H5374 0.931 . S
C5388 C5387 1.385 . S
C5388 C5389 1.389 . S
C5389 C5388 1.389 . S
C5389 C5390 1.387 . S
C5390 H5375 0.930 . S
C5390 C5385 1.390 . S
C5390 C5389 1.387 . S
H5391 C5403 0.930 . S
H5392 C5405 0.930 . S
H5393 C5406 0.930 . S
H5394 C5410 0.959 . S
H5395 C5410 0.959 . S
H5396 C5410 0.961 . S
H5397 C5411 0.960 . S
H5398 C5411 0.961 . S
H5399 C5411 0.959 . S
H5400 C5414 0.929 . S
H5401 C5415 0.931 . S
H5402 C5417 0.930 . S
C5403 H5391 0.930 . S
C5403 C5404 1.399 . S
C5403 C5408 1.399 . S
C5404 C5403 1.399 . S
C5404 C5405 1.376 . S
C5405 H5392 0.930 . S
C5405 C5404 1.376 . S
C5405 C5406 1.388 . S
C5406 H5393 0.930 . S
C5406 C5405 1.388 . S
C5406 C5407 1.390 . S
C5407 C5406 1.390 . S
C5407 C5408 1.394 . S
C5407 C5413 1.465 . S
C5408 C5403 1.399 . S
C5408 C5407 1.394 . S
C5408 C5409 1.516 . S
C5409 C5408 1.516 . S
C5409 C5410 1.502 . S
C5409 C5411 1.561 . S
C5409 C5412 1.526 . S
C5410 H5394 0.959 . S
C5410 H5395 0.959 . S
C5410 H5396 0.961 . S
C5410 C5409 1.502 . S
C5411 H5397 0.960 . S
C5411 H5398 0.961 . S
C5411 H5399 0.959 . S
C5411 C5409 1.561 . S
C5412 C5409 1.526 . S
C5412 C5413 1.396 . S
C5412 C5417 1.390 . S
C5413 C5407 1.465 . S
C5413 C5412 1.396 . S
C5413 C5414 1.399 . S
C5414 H5400 0.929 . S
C5414 C5413 1.399 . S
C5414 C5415 1.385 . S
C5415 H5401 0.931 . S
C5415 C5414 1.385 . S
C5415 C5416 1.389 . S
C5416 C5415 1.389 . S
C5416 C5417 1.387 . S
C5417 H5402 0.930 . S
C5417 C5412 1.390 . S
C5417 C5416 1.387 . S
H5418 C5430 0.930 . S
H5419 C5432 0.930 . S
H5420 C5433 0.930 . S
H5421 C5437 0.959 . S
H5422 C5437 0.959 . S
H5423 C5437 0.961 . S
H5424 C5438 0.960 . S
H5425 C5438 0.961 . S
H5426 C5438 0.959 . S
H5427 C5441 0.929 . S
H5428 C5442 0.931 . S
H5429 C5444 0.930 . S
C5430 H5418 0.930 . S
C5430 C5431 1.399 . S
C5430 C5435 1.399 . S
C5431 C5430 1.399 . S
C5431 C5432 1.376 . S
C5432 H5419 0.930 . S
C5432 C5431 1.376 . S
C5432 C5433 1.388 . S
C5433 H5420 0.930 . S
C5433 C5432 1.388 . S
C5433 C5434 1.390 . S
C5434 C5433 1.390 . S
C5434 C5435 1.394 . S
C5434 C5440 1.465 . S
C5435 C5430 1.399 . S
C5435 C5434 1.394 . S
C5435 C5436 1.516 . S
C5436 C5435 1.516 . S
C5436 C5437 1.502 . S
C5436 C5438 1.561 . S
C5436 C5439 1.526 . S
C5437 H5421 0.959 . S
C5437 H5422 0.959 . S
C5437 H5423 0.961 . S
C5437 C5436 1.502 . S
C5438 H5424 0.960 . S
C5438 H5425 0.961 . S
C5438 H5426 0.959 . S
C5438 C5436 1.561 . S
C5439 C5436 1.526 . S
C5439 C5440 1.396 . S
C5439 C5444 1.390 . S
C5440 C5434 1.465 . S
C5440 C5439 1.396 . S
C5440 C5441 1.399 . S
C5441 H5427 0.929 . S
C5441 C5440 1.399 . S
C5441 C5442 1.385 . S
C5442 H5428 0.931 . S
C5442 C5441 1.385 . S
C5442 C5443 1.389 . S
C5443 C5442 1.389 . S
C5443 C5444 1.387 . S
C5444 H5429 0.930 . S
C5444 C5439 1.390 . S
C5444 C5443 1.387 . S
H5445 C5457 0.930 . S
H5446 C5459 0.930 . S
H5447 C5460 0.930 . S
H5448 C5464 0.959 . S
H5449 C5464 0.959 . S
H5450 C5464 0.961 . S
H5451 C5465 0.960 . S
H5452 C5465 0.961 . S
H5453 C5465 0.959 . S
H5454 C5468 0.929 . S
H5455 C5469 0.931 . S
H5456 C5471 0.930 . S
C5457 H5445 0.930 . S
C5457 C5458 1.399 . S
C5457 C5462 1.399 . S
C5458 C5457 1.399 . S
C5458 C5459 1.376 . S
C5459 H5446 0.930 . S
C5459 C5458 1.376 . S
C5459 C5460 1.388 . S
C5460 H5447 0.930 . S
C5460 C5459 1.388 . S
C5460 C5461 1.390 . S
C5461 C5460 1.390 . S
C5461 C5462 1.394 . S
C5461 C5467 1.465 . S
C5462 C5457 1.399 . S
C5462 C5461 1.394 . S
C5462 C5463 1.516 . S
C5463 C5462 1.516 . S
C5463 C5464 1.502 . S
C5463 C5465 1.561 . S
C5463 C5466 1.526 . S
C5464 H5448 0.959 . S
C5464 H5449 0.959 . S
C5464 H5450 0.961 . S
C5464 C5463 1.502 . S
C5465 H5451 0.960 . S
C5465 H5452 0.961 . S
C5465 H5453 0.959 . S
C5465 C5463 1.561 . S
C5466 C5463 1.526 . S
C5466 C5467 1.396 . S
C5466 C5471 1.390 . S
C5467 C5461 1.465 . S
C5467 C5466 1.396 . S
C5467 C5468 1.399 . S
C5468 H5454 0.929 . S
C5468 C5467 1.399 . S
C5468 C5469 1.385 . S
C5469 H5455 0.931 . S
C5469 C5468 1.385 . S
C5469 C5470 1.389 . S
C5470 C5469 1.389 . S
C5470 C5471 1.387 . S
C5471 H5456 0.930 . S
C5471 C5466 1.390 . S
C5471 C5470 1.387 . S
H5472 C5484 0.930 . S
H5473 C5486 0.930 . S
H5474 C5487 0.930 . S
H5475 C5491 0.959 . S
H5476 C5491 0.959 . S
H5477 C5491 0.961 . S
H5478 C5492 0.960 . S
H5479 C5492 0.961 . S
H5480 C5492 0.959 . S
H5481 C5495 0.929 . S
H5482 C5496 0.931 . S
H5483 C5498 0.930 . S
C5484 H5472 0.930 . S
C5484 C5485 1.399 . S
C5484 C5489 1.399 . S
C5485 C5484 1.399 . S
C5485 C5486 1.376 . S
C5486 H5473 0.930 . S
C5486 C5485 1.376 . S
C5486 C5487 1.388 . S
C5487 H5474 0.930 . S
C5487 C5486 1.388 . S
C5487 C5488 1.390 . S
C5488 C5487 1.390 . S
C5488 C5489 1.394 . S
C5488 C5494 1.465 . S
C5489 C5484 1.399 . S
C5489 C5488 1.394 . S
C5489 C5490 1.516 . S
C5490 C5489 1.516 . S
C5490 C5491 1.502 . S
C5490 C5492 1.561 . S
C5490 C5493 1.526 . S
C5491 H5475 0.959 . S
C5491 H5476 0.959 . S
C5491 H5477 0.961 . S
C5491 C5490 1.502 . S
C5492 H5478 0.960 . S
C5492 H5479 0.961 . S
C5492 H5480 0.959 . S
C5492 C5490 1.561 . S
C5493 C5490 1.526 . S
C5493 C5494 1.396 . S
C5493 C5498 1.390 . S
C5494 C5488 1.465 . S
C5494 C5493 1.396 . S
C5494 C5495 1.399 . S
C5495 H5481 0.929 . S
C5495 C5494 1.399 . S
C5495 C5496 1.385 . S
C5496 H5482 0.931 . S
C5496 C5495 1.385 . S
C5496 C5497 1.389 . S
C5497 C5496 1.389 . S
C5497 C5498 1.387 . S
C5498 H5483 0.930 . S
C5498 C5493 1.390 . S
C5498 C5497 1.387 . S
H5499 C5511 0.964 . S
H5500 C5513 0.930 . S
H5501 C5514 0.930 . S
H5502 C5518 0.959 1_655 S
H5503 C5518 0.959 . S
H5504 C5518 0.961 . S
H5505 C5519 0.960 . S
H5506 C5519 0.961 . S
H5507 C5519 0.959 . S
H5508 C5522 0.929 . S
H5509 C5523 0.931 . S
H5510 C5525 0.930 . S
C5511 H5499 0.964 . S
C5511 C5512 1.399 . S
C5511 C5516 1.399 . S
C5512 C5511 1.399 . S
C5512 C5513 1.376 . S
C5513 H5500 0.930 . S
C5513 C5512 1.376 . S
C5513 C5514 1.388 . S
C5514 H5501 0.930 . S
C5514 C5513 1.388 . S
C5514 C5515 1.390 . S
C5515 C5514 1.390 . S
C5515 C5516 1.394 . S
C5515 C5521 1.465 . S
C5516 C5511 1.399 . S
C5516 C5515 1.394 . S
C5516 C5517 1.516 1_655 S
C5517 C5516 1.516 1_455 S
C5517 C5518 1.502 . S
C5517 C5519 1.561 . S
C5517 C5520 1.526 1_455 S
C5518 H5502 0.959 1_455 S
C5518 H5503 0.959 . S
C5518 H5504 0.961 . S
C5518 C5517 1.502 . S
C5519 H5505 0.960 . S
C5519 H5506 0.961 . S
C5519 H5507 0.959 . S
C5519 C5517 1.561 . S
C5520 C5517 1.526 1_655 S
C5520 C5521 1.396 . S
C5520 C5525 1.390 1_655 S
C5521 C5515 1.465 . S
C5521 C5520 1.396 . S
C5521 C5522 1.399 . S
C5522 H5508 0.929 . S
C5522 C5521 1.399 . S
C5522 C5523 1.385 . S
C5523 H5509 0.931 . S
C5523 C5522 1.385 . S
C5523 C5524 1.389 . S
C5524 C5523 1.389 . S
C5524 C5525 1.387 1_655 S
C5525 H5510 0.930 . S
C5525 C5520 1.390 1_455 S
C5525 C5524 1.387 1_455 S
H5526 C5538 0.930 . S
H5527 C5540 0.930 . S
H5528 C5541 0.930 . S
H5529 C5545 0.959 . S
H5530 C5545 0.959 . S
H5531 C5545 0.961 . S
H5532 C5546 0.960 . S
H5533 C5546 0.961 . S
H5534 C5546 0.959 . S
H5535 C5549 0.929 . S
H5536 C5550 0.931 . S
H5537 C5552 0.930 . S
C5538 H5526 0.930 . S
C5538 C5539 1.399 . S
C5538 C5543 1.399 . S
C5539 C5538 1.399 . S
C5539 C5540 1.376 . S
C5540 H5527 0.930 . S
C5540 C5539 1.376 . S
C5540 C5541 1.388 . S
C5541 H5528 0.930 . S
C5541 C5540 1.388 . S
C5541 C5542 1.390 . S
C5542 C5541 1.390 . S
C5542 C5543 1.394 . S
C5542 C5548 1.465 . S
C5543 C5538 1.399 . S
C5543 C5542 1.394 . S
C5543 C5544 1.516 . S
C5544 C5543 1.516 . S
C5544 C5545 1.502 . S
C5544 C5546 1.561 . S
C5544 C5547 1.526 . S
C5545 H5529 0.959 . S
C5545 H5530 0.959 . S
C5545 H5531 0.961 . S
C5545 C5544 1.502 . S
C5546 H5532 0.960 . S
C5546 H5533 0.961 . S
C5546 H5534 0.959 . S
C5546 C5544 1.561 . S
C5547 C5544 1.526 . S
C5547 C5548 1.396 . S
C5547 C5552 1.390 . S
C5548 C5542 1.465 . S
C5548 C5547 1.396 . S
C5548 C5549 1.399 . S
C5549 H5535 0.929 . S
C5549 C5548 1.399 . S
C5549 C5550 1.385 . S
C5550 H5536 0.931 . S
C5550 C5549 1.385 . S
C5550 C5551 1.389 . S
C5551 C5550 1.389 . S
C5551 C5552 1.387 . S
C5552 H5537 0.930 . S
C5552 C5547 1.390 . S
C5552 C5551 1.387 . S
H5553 C5565 0.930 1_565 S
H5554 C5567 0.930 . S
H5555 C5568 0.930 . S
H5556 C5572 0.959 . S
H5557 C5572 0.959 . S
H5558 C5572 0.961 . S
H5559 C5573 0.960 . S
H5560 C5573 0.961 . S
H5561 C5573 0.959 . S
H5562 C5576 0.929 . S
H5563 C5577 0.931 . S
H5564 C5579 0.930 . S
C5565 H5553 0.930 1_545 S
C5565 C5566 1.399 . S
C5565 C5570 1.399 . S
C5566 C5565 1.399 . S
C5566 C5567 1.376 . S
C5567 H5554 0.930 . S
C5567 C5566 1.376 . S
C5567 C5568 1.388 . S
C5568 H5555 0.930 . S
C5568 C5567 1.388 . S
C5568 C5569 1.390 . S
C5569 C5568 1.390 . S
C5569 C5570 1.394 . S
C5569 C5575 1.465 . S
C5570 C5565 1.399 . S
C5570 C5569 1.394 . S
C5570 C5571 1.516 1_545 S
C5571 C5570 1.516 1_565 S
C5571 C5572 1.502 . S
C5571 C5573 1.561 . S
C5571 C5574 1.566 . S
C5572 H5556 0.959 . S
C5572 H5557 0.959 . S
C5572 H5558 0.961 . S
C5572 C5571 1.502 . S
C5573 H5559 0.960 . S
C5573 H5560 0.961 . S
C5573 H5561 0.959 . S
C5573 C5571 1.561 . S
C5574 C5571 1.566 . S
C5574 C5575 1.367 1_565 S
C5574 C5579 1.381 . S
C5575 C5569 1.465 . S
C5575 C5574 1.367 1_545 S
C5575 C5576 1.399 . S
C5576 H5562 0.929 . S
C5576 C5575 1.399 . S
C5576 C5577 1.385 . S
C5577 H5563 0.931 . S
C5577 C5576 1.385 . S
C5577 C5578 1.389 . S
C5578 C5577 1.389 . S
C5578 C5579 1.387 1_545 S
C5579 H5564 0.930 . S
C5579 C5574 1.381 . S
C5579 C5578 1.387 1_565 S
C3649 C49 1.359 . S
C3661 C2639 1.213 . S
C3676 C137 1.676 . S
C3688 C2779 0.988 . S
C3715 C2867 1.351 . S
C3703 C205 1.490 . S
C3730 C196 1.474 . S
C3742 C3007 1.124 1_565 S
C3757 C57 1.513 . S
C3769 C3121 1.210 . S
C3784 C145 1.671 . S
C3796 C3209 1.336 . S
C3811 C313 1.454 . S
C3823 C3095 1.177 . S
C3850 C3235 1.274 . S
C3838 C401 1.600 . S
C3877 C2981 1.195 . S
C3865 C489 1.478 . S
C3892 C469 1.535 . S
C3904 C2893 1.164 . S
C3931 C2665 1.066 . S
C3919 C293 1.559 . S
C3946 C381 1.588 . S
C3958 C2753 1.383 . S
C3973 C577 1.740 . S
C3985 C3323 1.288 . S
C4000 C645 1.770 . S
C4012 C3463 1.081 . S
C4039 C3551 1.299 . S
C4027 C733 1.673 . S
C4054 C724 1.689 . S
C4066 C1639 1.143 . S
C4081 C585 1.777 . S
C4093 C1753 1.229 . S
C4108 C636 1.767 . S
C4120 C1841 1.276 . S
C4135 C841 1.476 . S
C4147 C1727 1.367 . S
C4162 C937 1.683 . S
C4174 C1867 1.488 . S
C4201 C1613 1.515 . S
C4189 C1025 1.655 . S
C4228 C3577 1.535 . S
C4216 C988 1.775 . S
C4255 C3349 1.376 . S
C4243 C821 1.615 . S
C4282 C3437 1.463 . S
C4270 C900 1.674 . S
C4297 C1105 1.576 . S
C4309 C1955 1.084 . S
C4324 C1193 1.777 . S
C4336 C2095 1.203 . S
C4351 C1281 1.751 . S
C4363 C2183 1.235 . S
C4378 C1289 1.862 . S
C4390 C2323 1.163 . S
C4417 C2437 1.172 . S
C4405 C1113 1.706 . S
C4444 C2525 1.267 . S
C4432 C1201 1.770 . S
C4471 C2411 1.494 . S
C4459 C1369 1.661 . S
C4498 C2551 1.384 . S
C4486 C1457 1.668 . S
C4513 C1553 1.569 . S
C4525 C2297 1.432 . S
C4552 C2209 1.407 . S
C4540 C1516 1.597 . S
C4567 C1349 1.704 . S
C4579 C1981 1.395 . S
C4606 C2069 1.555 . S
C4594 C1437 1.671 . S
C4633 C1595 0.948 . S
C4621 C29 1.949 . S
C4648 C117 1.673 . S
C4660 C1709 0.922 . S
C4687 C1813 1.384 . S
C4675 C225 1.869 . S
C4714 C1927 1.182 . S
C4702 C233 1.717 . S
C4741 C2051 1.013 . S
C4729 C20 1.883 . S
C4768 C2155 1.213 . S
C4756 C108 1.669 . S
C4783 C321 2.079 . S
C4795 C2165 1.706 . S
C4810 C409 1.798 . S
C4822 C1937 1.387 . S
C4837 C497 2.033 . S
C4849 C2041 1.908 . S
C4864 C460 1.895 . S
C4876 C1699 1.716 . S
C4903 C1823 1.648 . S
C4891 C284 2.027 . S
C4918 C372 1.855 . S
C4930 C1585 1.615 . S
C4957 C2279 1.004 . S
C4945 C557 1.729 . S
C4972 C665 1.788 . S
C4984 C2393 1.030 . S
C4999 C753 1.763 . S
C5011 C2497 1.357 . S
C5038 C2611 0.705 . S
C5026 C761 0.979 . S
C5053 C548 1.662 . S
C5065 C2735 0.782 . S
C5080 C673 1.117 . S
C5092 C2839 0.793 . S
C5107 C849 1.222 . S
C5119 C2849 0.631 1_565 S
C5134 C929 1.105 . S
C5146 C2621 0.674 . S
C5173 C2725 1.571 . S
C5161 C1017 1.790 . S
C5188 C997 1.671 . S
C5200 C2383 1.587 . S
C5215 C812 1.912 . S
C5227 C2507 1.471 . S
C5254 C2269 1.780 . S
C5242 C909 1.919 . S
C5281 C2963 0.782 . S
C5269 C1085 1.193 . S
C5296 C1173 1.067 . S
C5308 C3077 0.642 . S
C5323 C1261 1.645 . S
C5335 C3181 1.046 . S
C5362 C3295 1.120 . S
C5350 C1252 1.578 . S
C5389 C3419 0.964 . S
C5377 C1076 1.805 . S
C5404 C1164 1.822 . S
C5416 C3523 1.279 . S
C5431 C1377 1.876 . S
C5443 C3533 1.421 . S
C5458 C1465 1.886 . S
C5470 C3305 1.563 . S
C5497 C3409 1.748 . S
C5485 C1545 1.876 . S
C5524 C3067 0.976 1_655 S
C5512 C1525 0.967 . S
C5551 C3191 1.460 . S
C5539 C1340 1.746 . S
C5566 C1428 1.118 . S
C5578 C2953 1.045 1_545 S
