# Generated by pormake.
# Topology zzz, (3,6)-cn, num edge types: 1
# Building blocks:
#     Node 0, Type 0, BuildingBlock: KAKCAD_clean_linker_0, # of connection points: 3
#     Node 1, Type 0, BuildingBlock: KAKCAD_clean_linker_0, # of connection points: 3
#     Node 2, Type 0, BuildingBlock: KAKCAD_clean_linker_0, # of connection points: 3
#     Node 3, Type 0, BuildingBlock: KAKCAD_clean_linker_0, # of connection points: 3
#     Node 4, Type 0, BuildingBlock: KAKCAD_clean_linker_0, # of connection points: 3
#     Node 5, Type 0, BuildingBlock: KAKCAD_clean_linker_0, # of connection points: 3
#     Node 6, Type 0, BuildingBlock: KAKCAD_clean_linker_0, # of connection points: 3
#     Node 7, Type 0, BuildingBlock: KAKCAD_clean_linker_0, # of connection points: 3
#     Node 8, Type 1, BuildingBlock: KUMBOL_clean_sbu_1, # of connection points: 6
#     Node 9, Type 1, BuildingBlock: KUMBOL_clean_sbu_1, # of connection points: 6
#     Node 10, Type 1, BuildingBlock: KUMBOL_clean_sbu_1, # of connection points: 6
#     Node 11, Type 1, BuildingBlock: KUMBOL_clean_sbu_1, # of connection points: 6
#     Edge 12, Type (0, 1), BuildingBlock: OJICUG_clean_linker_0, # of connection points: 2
#     Edge 13, Type (0, 1), BuildingBlock: OJICUG_clean_linker_0, # of connection points: 2
#     Edge 14, Type (0, 1), BuildingBlock: OJICUG_clean_linker_0, # of connection points: 2
#     Edge 15, Type (0, 1), BuildingBlock: OJICUG_clean_linker_0, # of connection points: 2
#     Edge 16, Type (0, 1), BuildingBlock: OJICUG_clean_linker_0, # of connection points: 2
#     Edge 17, Type (0, 1), BuildingBlock: OJICUG_clean_linker_0, # of connection points: 2
#     Edge 18, Type (0, 1), BuildingBlock: OJICUG_clean_linker_0, # of connection points: 2
#     Edge 19, Type (0, 1), BuildingBlock: OJICUG_clean_linker_0, # of connection points: 2
#     Edge 20, Type (0, 1), BuildingBlock: OJICUG_clean_linker_0, # of connection points: 2
#     Edge 21, Type (0, 1), BuildingBlock: OJICUG_clean_linker_0, # of connection points: 2
#     Edge 22, Type (0, 1), BuildingBlock: OJICUG_clean_linker_0, # of connection points: 2
#     Edge 23, Type (0, 1), BuildingBlock: OJICUG_clean_linker_0, # of connection points: 2
#     Edge 24, Type (0, 1), BuildingBlock: OJICUG_clean_linker_0, # of connection points: 2
#     Edge 25, Type (0, 1), BuildingBlock: OJICUG_clean_linker_0, # of connection points: 2
#     Edge 26, Type (0, 1), BuildingBlock: OJICUG_clean_linker_0, # of connection points: 2
#     Edge 27, Type (0, 1), BuildingBlock: OJICUG_clean_linker_0, # of connection points: 2
#     Edge 28, Type (0, 1), BuildingBlock: OJICUG_clean_linker_0, # of connection points: 2
#     Edge 29, Type (0, 1), BuildingBlock: OJICUG_clean_linker_0, # of connection points: 2
#     Edge 30, Type (0, 1), BuildingBlock: OJICUG_clean_linker_0, # of connection points: 2
#     Edge 31, Type (0, 1), BuildingBlock: OJICUG_clean_linker_0, # of connection points: 2
#     Edge 32, Type (0, 1), BuildingBlock: OJICUG_clean_linker_0, # of connection points: 2
#     Edge 33, Type (0, 1), BuildingBlock: OJICUG_clean_linker_0, # of connection points: 2
#     Edge 34, Type (0, 1), BuildingBlock: OJICUG_clean_linker_0, # of connection points: 2
#     Edge 35, Type (0, 1), BuildingBlock: OJICUG_clean_linker_0, # of connection points: 2
# Relax obj value: 0.352
# Max RMSD: 0.205
# Mean RMSD: 0.184
data_MOF--net-zzz--node1-KUMBOL_clean_sbu_1--node2-KAKCAD_clean_linker_0--edge1-OJICUG_clean_linker_0
_symmetry_space_group_name_H-M    P1
_symmetry_Int_Tables_number       1
_symmetry_cell_setting            triclinic
loop_
_symmetry_equiv_pos_as_xyz
'x, y, z'
_cell_length_a     44.501356
_cell_length_b     44.606594
_cell_length_c     16.61519
_cell_angle_alpha  90.026763
_cell_angle_beta   89.961507
_cell_angle_gamma 90.557109
loop_
_atom_site_label
_atom_site_type_symbol
_atom_site_fract_x
_atom_site_fract_y
_atom_site_fract_z
_atom_type_partial_charge
C0 C 0.79547 0.59398 0.89931 0.0
C1 C 0.82427 0.58186 0.89186 0.0
C2 C 0.78187 0.5958 0.97505 0.0
C3 C 0.79626 0.58387 0.04351 0.0
C4 C 0.82685 0.57639 0.03684 0.0
C5 C 0.8408 0.57583 0.96181 0.0
C6 C 0.77832 0.57253 0.11366 0.0
C7 C 0.74913 0.56136 0.10055 0.0
C8 C 0.73394 0.54387 0.15774 0.0
C9 C 0.74899 0.53686 0.23126 0.0
C10 C 0.77832 0.54893 0.24715 0.0
C11 C 0.79188 0.56744 0.18876 0.0
C12 C 0.79747 0.54134 0.3193 0.0
C13 C 0.80624 0.56409 0.37358 0.0
C14 C 0.81346 0.51426 0.32196 0.0
C15 C 0.83805 0.51049 0.37487 0.0
C16 C 0.84773 0.53373 0.42722 0.0
C17 C 0.70362 0.53203 0.13143 0.0
C18 C 0.67762 0.54935 0.14333 0.0
C19 C 0.70237 0.50973 0.07135 0.0
C20 C 0.67686 0.50602 0.0219 0.0
C21 C 0.65144 0.52444 0.03058 0.0
C22 C 0.65183 0.54539 0.0944 0.0
C23 C 0.83061 0.56028 0.42694 0.0
H24 H 0.78245 0.5992 0.84615 0.0
H25 H 0.75893 0.60355 0.97823 0.0
H26 H 0.83923 0.56739 0.08715 0.0
H27 H 0.86315 0.56648 0.95781 0.0
H28 H 0.73842 0.56446 0.04267 0.0
H29 H 0.81413 0.57646 0.20053 0.0
H30 H 0.73828 0.52216 0.2747 0.0
H31 H 0.79506 0.58554 0.37207 0.0
H32 H 0.80819 0.49663 0.27926 0.0
H33 H 0.85043 0.48978 0.37132 0.0
H34 H 0.67803 0.56752 0.18657 0.0
H35 H 0.72218 0.49665 0.0583 0.0
H36 H 0.83638 0.57865 0.46674 0.0
H37 H 0.63296 0.56019 0.10315 0.0
H38 H 0.67753 0.48938 0.97448 0.0
C39 C 0.90628 0.79508 0.92414 0.0
C40 C 0.91921 0.8232 0.90792 0.0
C41 C 0.90871 0.78263 1.00107 0.0
C42 C 0.9255 0.79751 0.06141 0.0
C43 C 0.93407 0.82753 0.04796 0.0
C44 C 0.93055 0.84037 0.97221 0.0
C45 C 0.93984 0.78028 0.12808 0.0
C46 C 0.949 0.75078 0.11366 0.0
C47 C 0.96747 0.73512 0.16711 0.0
C48 C 0.97826 0.75057 0.23713 0.0
C49 C 0.96874 0.78058 0.25369 0.0
C50 C 0.94894 0.79439 0.19968 0.0
C51 C 0.9801 0.80011 0.32176 0.0
C52 C 0.96326 0.80333 0.39309 0.0
C53 C 1.00245 0.82192 0.30612 0.0
C54 C 1.0073 0.84645 0.35846 0.0
C55 C 0.98985 0.85041 0.42883 0.0
C56 C 0.97502 0.70339 0.14175 0.0
C57 C 0.9514 0.68399 0.11796 0.0
C58 C 1.00435 0.695 0.1203 0.0
C59 C 0.00954 0.66916 0.07256 0.0
C60 C 0.98554 0.65102 0.04262 0.0
C61 C 0.95641 0.65874 0.06906 0.0
C62 C 0.96821 0.82781 0.44597 0.0
H63 H 0.89706 0.78157 0.87572 0.0
H64 H 0.90021 0.76008 1.01045 0.0
H65 H 0.94678 0.84014 0.09219 0.0
H66 H 0.9407 0.8622 0.96157 0.0
H67 H 0.94319 0.74007 0.05719 0.0
H68 H 0.94171 0.81706 0.21214 0.0
H69 H 0.99362 0.73953 0.27772 0.0
H70 H 0.94514 0.78767 0.40601 0.0
H71 H 0.01503 0.82102 0.25034 0.0
H72 H 0.02382 0.86317 0.34095 0.0
H73 H 0.92839 0.68973 0.1322 0.0
H74 H 0.02317 0.7094 0.13613 0.0
H75 H 0.95448 0.82928 0.49957 0.0
H76 H 0.93681 0.64644 0.04887 0.0
H77 H 0.03258 0.66419 0.05752 0.0
C78 C 0.67759 0.90545 0.10178 0.0
C79 C 0.6719 0.92472 0.03649 0.0
C80 C 0.70515 0.90707 0.14212 0.0
C81 C 0.72745 0.92746 0.11642 0.0
C82 C 0.72413 0.94124 0.04114 0.0
C83 C 0.69659 0.93995 1.00151 0.0
C84 C 0.74814 0.94168 0.17552 0.0
C85 C 0.77688 0.95142 0.15228 0.0
C86 C 0.79281 0.97301 0.19717 0.0
C87 C 0.77922 0.98495 0.26819 0.0
C88 C 0.75053 0.97404 0.29433 0.0
C89 C 0.73594 0.95212 0.24795 0.0
C90 C 0.73233 0.98655 0.36289 0.0
C91 C 0.72489 0.96798 0.42885 0.0
C92 C 0.7146 0.0121 0.35041 0.0
C93 C 0.68931 0.01791 0.39922 0.0
C94 C 0.68076 0.99834 0.46236 0.0
C95 C 0.82183 0.98417 0.16088 0.0
C96 C 0.84914 0.96967 0.17705 0.0
C97 C 0.82092 1.00355 0.09416 0.0
C98 C 0.84612 1.00771 0.04388 0.0
C99 C 0.87336 0.99251 0.05799 0.0
C100 C 0.87453 0.97392 0.12687 0.0
C101 C 0.69977 0.97391 0.47817 0.0
H102 H 0.65975 0.8919 0.12772 0.0
H103 H 0.70757 0.89526 0.19868 0.0
H104 H 0.74105 0.95672 0.01859 0.0
H105 H 0.69392 0.95454 0.95014 0.0
H106 H 0.78614 0.94353 0.09576 0.0
H107 H 0.71329 0.94539 0.26469 0.0
H108 H 0.79045 1.00266 0.30147 0.0
H109 H 0.73729 0.94754 0.43873 0.0
H110 H 0.7189 0.02638 0.29886 0.0
H111 H 0.67571 0.03721 0.38527 0.0
H112 H 0.85045 0.95385 0.22632 0.0
H113 H 0.79999 0.01419 0.07794 0.0
H114 H 0.69411 0.95808 0.5253 0.0
H115 H 0.89491 0.96203 0.14137 0.0
H116 H 0.84356 0.02176 0.99132 0.0
C117 C 0.51149 0.68804 0.34876 0.0
C118 C 0.52673 0.6837 0.42255 0.0
C119 C 0.51672 0.7139 0.30098 0.0
C120 C 0.53701 0.73656 0.32581 0.0
C121 C 0.55099 0.7329 0.40126 0.0
C122 C 0.54591 0.70713 0.44869 0.0
C123 C 0.55057 0.75835 0.26598 0.0
C124 C 0.53622 0.78428 0.23385 0.0
C125 C 0.55179 0.80325 0.1778 0.0
C126 C 0.58086 0.79526 0.15331 0.0
C127 C 0.59427 0.76875 0.17984 0.0
C128 C 0.57935 0.75124 0.23796 0.0
C129 C 0.61967 0.75532 0.13423 0.0
C130 C 0.61841 0.75537 0.0497 0.0
C131 C 0.639 0.73482 0.17179 0.0
C132 C 0.64959 0.71016 0.12849 0.0
C133 C 0.64007 0.70575 0.0485 0.0
C134 C 0.53877 0.8305 0.13742 0.0
C135 C 0.5178 0.82743 0.07445 0.0
C136 C 0.55321 0.85859 0.14639 0.0
C137 C 0.54774 0.88242 0.09278 0.0
C138 C 0.52785 0.87905 0.02713 0.0
C139 C 0.51241 0.85127 0.02031 0.0
C140 C 0.62909 0.73084 1.00672 0.0
H141 H 0.49672 0.67067 0.32552 0.0
H142 H 0.50638 0.71523 0.24212 0.0
H143 H 0.56737 0.74934 0.42163 0.0
H144 H 0.55776 0.70529 0.50533 0.0
H145 H 0.51363 0.78974 0.2526 0.0
H146 H 0.5892 0.73037 0.25782 0.0
H147 H 0.5924 0.80893 0.10879 0.0
H148 H 0.60489 0.77144 0.01748 0.0
H149 H 0.64208 0.73525 0.23645 0.0
H150 H 0.66015 0.69214 0.16137 0.0
H151 H 0.50689 0.80597 0.06401 0.0
H152 H 0.57016 0.8616 0.19255 0.0
H153 H 0.62304 0.72943 0.94374 0.0
H154 H 0.49658 0.8476 0.9718 0.0
H155 H 0.56045 0.90301 0.10061 0.0
C156 C 0.23381 0.41521 0.42049 0.0
C157 C 0.20436 0.40546 0.40423 0.0
C158 C 0.25347 0.42144 0.35749 0.0
C159 C 0.24438 0.4172 0.27692 0.0
C160 C 0.21766 0.40084 0.2628 0.0
C161 C 0.19771 0.39502 0.32622 0.0
C162 C 0.25876 0.43571 0.21202 0.0
C163 C 0.28837 0.44607 0.22149 0.0
C164 C 0.29898 0.47178 0.18187 0.0
C165 C 0.28026 0.48527 0.12221 0.0
C166 C 0.25148 0.4724 0.10362 0.0
C167 C 0.2411 0.44824 0.15055 0.0
C168 C 0.23013 0.4837 0.03982 0.0
C169 C 0.20948 0.50657 0.05711 0.0
C170 C 0.22484 0.46639 0.97012 0.0
C171 C 0.19958 0.47129 0.92042 0.0
C172 C 0.17817 0.49348 0.93892 0.0
C173 C 0.32803 0.48466 0.21453 0.0
C174 C 0.32726 0.50809 0.27134 0.0
C175 C 0.35451 0.46755 0.21074 0.0
C176 C 0.37866 0.47266 0.26431 0.0
C177 C 0.37725 0.49494 0.32463 0.0
C178 C 0.35139 0.51319 0.32518 0.0
C179 C 0.18411 0.51147 1.00751 0.0
H180 H 0.24022 0.42285 0.47999 0.0
H181 H 0.27394 0.43335 0.37286 0.0
H182 H 0.21061 0.39539 0.20216 0.0
H183 H 0.17556 0.38614 0.31235 0.0
H184 H 0.30269 0.43566 0.26598 0.0
H185 H 0.21817 0.44057 0.14178 0.0
H186 H 0.28796 0.50517 0.0908 0.0
H187 H 0.21201 0.51961 0.11173 0.0
H188 H 0.23963 0.44798 0.95592 0.0
H189 H 0.19663 0.45714 0.86806 0.0
H190 H 0.30694 0.521 0.27853 0.0
H191 H 0.35572 0.44877 0.16955 0.0
H192 H 0.16835 0.52853 0.0256 0.0
H193 H 0.34882 0.5304 0.37051 0.0
H194 H 0.39812 0.45839 0.25977 0.0
C195 C 0.08215 0.23304 0.46649 0.0
C196 C 0.09185 0.20327 0.46075 0.0
C197 C 0.08159 0.25114 0.3986 0.0
C198 C 0.09151 0.24025 0.3236 0.0
C199 C 0.10666 0.21269 0.32195 0.0
C200 C 0.10684 0.1943 0.3902 0.0
C201 C 0.08056 0.25474 0.2482 0.0
C202 C 0.07376 0.28526 0.24864 0.0
C203 C 0.05416 0.29783 0.1924 0.0
C204 C 0.04397 0.27948 0.12667 0.0
C205 C 0.05414 0.24915 0.11911 0.0
C206 C 0.07155 0.23727 0.18192 0.0
C207 C 0.04741 0.22799 0.04954 0.0
C208 C 0.01849 0.21585 0.03558 0.0
C209 C 0.07161 0.21444 1.00887 0.0
C210 C 0.06746 0.18903 0.95942 0.0
C211 C 0.03884 0.17578 0.94826 0.0
C212 C 0.04382 0.32914 0.21311 0.0
C213 C 0.01526 0.33359 0.24737 0.0
C214 C 0.0656 0.3519 0.22573 0.0
C215 C 0.05996 0.37674 0.27596 0.0
C216 C 0.03206 0.38027 0.31545 0.0
C217 C 0.0094 0.35875 0.29688 0.0
C218 C 0.01425 0.19031 0.98544 0.0
H219 H 0.07077 0.24111 0.51975 0.0
H220 H 0.06987 0.27217 0.4041 0.0
H221 H 0.11598 0.20413 0.2664 0.0
H222 H 0.11558 0.17181 0.38484 0.0
H223 H 0.0819 0.29913 0.29774 0.0
H224 H 0.07672 0.2136 0.18057 0.0
H225 H 0.02907 0.28873 0.08183 0.0
H226 H 0.99934 0.22498 0.06715 0.0
H227 H 0.09429 0.22271 0.01862 0.0
H228 H 0.08703 0.17936 0.93117 0.0
H229 H 0.99806 0.3164 0.24112 0.0
H230 H 0.08814 0.34903 0.20247 0.0
H231 H 0.9918 0.18104 0.97925 0.0
H232 H 0.98722 0.36053 0.32293 0.0
H233 H 0.07844 0.39204 0.2876 0.0
C234 C 0.29431 0.14042 0.35146 0.0
C235 C 0.32257 0.14599 0.31626 0.0
C236 C 0.27122 0.12799 0.30494 0.0
C237 C 0.27567 0.1231 0.22199 0.0
C238 C 0.30005 0.13804 0.18497 0.0
C239 C 0.3238 0.14888 0.23197 0.0
C240 C 0.26146 0.09634 0.18224 0.0
C241 C 0.23367 0.08486 0.20866 0.0
C242 C 0.22447 0.05528 0.19123 0.0
C243 C 0.24326 0.03732 0.14109 0.0
C244 C 0.27041 0.04954 0.10846 0.0
C245 C 0.27888 0.07874 0.13009 0.0
C246 C 0.2927 0.03292 0.05705 0.0
C247 C 0.31945 0.02255 0.09228 0.0
C248 C 0.29232 0.03623 0.97267 0.0
C249 C 0.31814 0.03048 0.92559 0.0
C250 C 0.3455 0.02179 0.96144 0.0
C251 C 0.1966 0.04404 0.23401 0.0
C252 C 0.19831 0.02161 0.29334 0.0
C253 C 0.1697 0.06044 0.22918 0.0
C254 C 0.14591 0.05558 0.28384 0.0
C255 C 0.14809 0.03424 0.34621 0.0
C256 C 0.17451 0.01679 0.34845 0.0
C257 C 0.3453 0.01703 0.0455 0.0
H258 H 0.29181 0.14029 0.41633 0.0
H259 H 0.25215 0.11846 0.33655 0.0
H260 H 0.30304 0.13722 0.12032 0.0
H261 H 0.34454 0.15484 0.20164 0.0
H262 H 0.21984 0.09836 0.24796 0.0
H263 H 0.30066 0.08678 0.10994 0.0
H264 H 0.23697 0.01431 0.12817 0.0
H265 H 0.32104 0.02071 0.15715 0.0
H266 H 0.27263 0.04533 0.94358 0.0
H267 H 0.31715 0.03474 0.86151 0.0
H268 H 0.21885 0.00906 0.30051 0.0
H269 H 0.1676 0.07813 0.18494 0.0
H270 H 0.36554 0.00999 0.07593 0.0
H271 H 0.17757 1.00029 0.39539 0.0
H272 H 0.12597 0.06909 0.27788 0.0
C273 C 0.4623 0.33361 0.92929 0.0
C274 C 0.4895 0.35014 0.92556 0.0
C275 C 0.45843 0.30961 0.9837 0.0
C276 C 0.48165 0.30082 0.03608 0.0
C277 C 0.50943 0.31602 0.02923 0.0
C278 C 0.51334 0.34016 0.97481 0.0
C279 C 0.47396 0.28342 0.1114 0.0
C280 C 0.48608 0.25492 0.13322 0.0
C281 C 0.47941 0.24212 0.21018 0.0
C282 C 0.46179 0.25866 0.26393 0.0
C283 C 0.45092 0.28723 0.24503 0.0
C284 C 0.45566 0.29837 0.16709 0.0
C285 C 0.4412 0.30751 0.31175 0.0
C286 C 0.43007 0.29554 0.38465 0.0
C287 C 0.45042 0.33783 0.31097 0.0
C288 C 0.45404 0.3535 0.38287 0.0
C289 C 0.44929 0.33891 0.45656 0.0
C290 C 0.49175 0.21307 0.24303 0.0
C291 C 0.48156 0.1849 0.21504 0.0
C292 C 0.50724 0.21373 0.31727 0.0
C293 C 0.51032 0.18784 0.36474 0.0
C294 C 0.49876 0.16003 0.339 0.0
C295 C 0.48536 0.15865 0.26202 0.0
C296 C 0.43494 0.31081 0.45704 0.0
H297 H 0.44346 0.33977 0.89182 0.0
H298 H 0.43649 0.29901 0.98834 0.0
H299 H 0.52752 0.31071 0.07025 0.0
H300 H 0.53461 0.35213 0.97511 0.0
H301 H 0.50078 0.2433 0.09197 0.0
H302 H 0.44677 0.32011 0.15108 0.0
H303 H 0.45841 0.2497 0.32382 0.0
H304 H 0.42096 0.27297 0.38729 0.0
H305 H 0.45877 0.3485 0.25685 0.0
H306 H 0.46491 0.37535 0.38091 0.0
H307 H 0.46891 0.18345 0.1595 0.0
H308 H 0.51506 0.23494 0.34167 0.0
H309 H 0.43055 0.29936 0.51339 0.0
H310 H 0.47625 0.13757 0.24018 0.0
H311 H 0.52091 0.18977 0.42325 0.0
C312 C 0.10082 0.01793 0.85039 0.0
C313 C 0.08847 0.03321 0.98641 0.0
C314 C 0.08027 0.02 0.91238 0.0
C315 C 0.11757 0.04515 0.99608 0.0
C316 C 0.13039 0.02896 0.86065 0.0
C317 C 0.13849 0.04306 0.93326 0.0
N318 N 0.09233 1.00373 0.78164 0.0
C319 C 0.11309 0.9978 0.72326 0.0
C320 C 0.15117 0.0247 0.79856 0.0
C321 C 0.14257 0.00867 0.73005 0.0
Gd322 Gd 0.98292 0.02859 0.63645 0.0
Gd323 Gd 0.04169 0.98772 0.77385 0.0
N324 N 0.05232 0.00846 0.90078 0.0
C325 C 0.06729 0.0336 0.04876 0.0
C326 C 0.03204 1.00743 0.96249 0.0
C327 C 0.03905 0.02035 0.03698 0.0
H328 H 0.01031 0.997 0.95381 0.0
H329 H 0.02273 0.01999 0.0853 0.0
H330 H 0.02115 0.04733 0.4654 0.0
H331 H 0.10727 0.98413 0.67199 0.0
H332 H 0.0251 0.02914 0.3264 0.0
H333 H 0.07271 0.04353 0.10655 0.0
H334 H 0.12427 0.05557 0.0523 0.0
H335 H 0.92039 0.99791 0.71173 0.0
H336 H 0.17411 0.03281 0.80405 0.0
H337 H 0.15875 1.00427 0.68293 0.0
H338 H 0.94577 0.95626 0.30324 0.0
H339 H 0.16104 0.05183 0.94206 0.0
H340 H 0.88068 0.94196 0.53018 0.0
H341 H 0.87996 0.96305 0.66798 0.0
N342 N 0.94405 0.99545 0.60092 0.0
C343 C 0.94408 0.98544 0.52356 0.0
C344 C 0.92093 0.98853 0.65184 0.0
C345 C 0.89843 0.95719 0.54909 0.0
C346 C 0.89799 0.96898 0.62705 0.0
C347 C 0.9215 0.96556 0.49602 0.0
H348 H 0.90564 0.93922 0.3947 0.0
N349 N 0.98751 0.01543 0.49945 0.0
C350 C 0.96684 0.99513 0.47207 0.0
C351 C 0.98932 0.99668 0.3396 0.0
C352 C 0.96738 0.98504 0.39155 0.0
C353 C 1.00723 0.02867 0.447 0.0
C354 C 0.00897 0.01898 0.36712 0.0
O355 O 0.03008 0.0356 0.81315 0.0
O356 O 0.01732 0.05976 0.69595 0.0
O357 O 0.96189 0.06011 0.55515 0.0
O358 O 0.94896 0.05927 0.68027 0.0
O359 O 0.99204 0.98231 0.80976 0.0
O360 O 0.96951 0.02559 0.76746 0.0
O361 O 0.98236 0.97707 0.6497 0.0
O362 O 0.03198 0.96801 0.65084 0.0
O363 O 0.02563 0.94825 0.83587 0.0
O364 O 0.07175 0.9502 0.79566 0.0
O365 O 0.03194 0.03948 0.60329 0.0
O366 O 0.0562 0.99679 0.64398 0.0
C367 C 0.02536 0.0605 0.77239 0.0
C368 C 0.97096 1.00278 0.81714 0.0
C369 C 0.95729 0.10604 0.62183 0.0
C370 C 0.99697 0.14409 0.61717 0.0
C371 C 0.94761 0.15616 0.67085 0.0
C372 C 0.93765 0.12685 0.65588 0.0
C373 C 0.97707 0.16482 0.65158 0.0
C374 C 0.98686 0.11473 0.60353 0.0
C375 C 0.94872 0.0744 0.61343 0.0
C376 C 0.94553 0.96439 0.36471 0.0
C377 C 0.92261 0.95476 0.41671 0.0
H378 H 0.9905 0.98948 0.27739 0.0
C379 C 1.00494 0.95999 0.62826 0.0
C380 C 0.05479 0.02088 0.59808 0.0
C381 C 0.04373 0.90536 0.77059 0.0
C382 C 1.00692 0.86841 0.72217 0.0
C383 C 0.05719 0.87001 0.66531 0.0
C384 C 0.06486 0.89409 0.71569 0.0
C385 C 0.02835 0.85722 0.66826 0.0
C386 C 0.01516 0.89191 0.77416 0.0
C387 C 0.04952 0.93293 0.81825 0.0
H388 H 0.93244 0.17225 0.69721 0.0
H389 H 0.91493 0.1203 0.67207 0.0
H390 H 0.98396 0.18786 0.66174 0.0
H391 H 1.00231 0.09835 0.57959 0.0
H392 H 0.07354 0.8615 0.62303 0.0
H393 H 0.08704 0.90412 0.71071 0.0
H394 H 0.02278 0.83875 0.62844 0.0
H395 H 0.9991 0.89986 0.81819 0.0
C396 C 0.50973 0.93091 0.51463 0.0
C397 C 0.48507 0.89048 0.58668 0.0
C398 C 0.49096 0.92131 0.57551 0.0
C399 C 0.4995 0.86945 0.53732 0.0
C400 C 0.52333 0.91008 0.46257 0.0
C401 C 0.51861 0.87924 0.47529 0.0
N402 N 0.51324 0.9608 0.50343 0.0
C403 C 0.52882 0.97155 0.43863 0.0
C404 C 0.54054 0.92093 0.39809 0.0
C405 C 0.54301 0.95183 0.38557 0.0
Gd406 Gd 0.52612 0.05056 0.75369 0.0
Gd407 Gd 0.49123 0.99272 0.59885 0.0
N408 N 0.47716 0.9423 0.62099 0.0
C409 C 0.46422 0.88182 0.64557 0.0
C410 C 0.4556 0.93407 0.67558 0.0
C411 C 0.44915 0.90375 0.68951 0.0
H412 H 0.44388 0.9508 0.71002 0.0
H413 H 0.43257 0.89733 0.73412 0.0
H414 H 0.59787 0.05531 0.68241 0.0
H415 H 0.53038 0.99541 0.42802 0.0
H416 H 0.62802 0.08933 0.59831 0.0
H417 H 0.45909 0.85836 0.6562 0.0
H418 H 0.49548 0.84564 0.54535 0.0
H419 H 0.46417 0.08839 0.80396 0.0
H420 H 0.55135 0.90568 0.35662 0.0
H421 H 0.5557 0.96048 0.3349 0.0
H422 H 0.56637 0.17606 0.56931 0.0
H423 H 0.52904 0.86284 0.43638 0.0
H424 H 0.47139 0.17668 0.7049 0.0
H425 H 0.44318 0.13881 0.78402 0.0
N426 N 0.50367 0.09742 0.73551 0.0
C427 C 0.52013 0.11825 0.69449 0.0
C428 C 0.47664 0.10465 0.76896 0.0
C429 C 0.48081 0.15462 0.71373 0.0
C430 C 0.46474 0.13325 0.75813 0.0
C431 C 0.50885 0.1473 0.68133 0.0
H432 H 0.51712 0.19017 0.62375 0.0
N433 N 0.55863 0.08218 0.67904 0.0
C434 C 0.54798 0.11016 0.6637 0.0
C435 C 0.59377 0.12301 0.59272 0.0
C436 C 0.56514 0.13115 0.61914 0.0
C437 C 0.58765 0.0754 0.6601 0.0
C438 C 0.60528 0.09522 0.61468 0.0
O439 O 0.50576 0.96846 0.71258 0.0
O440 O 0.52457 1.00311 0.80503 0.0
O441 O 0.5634 0.06631 0.82703 0.0
O442 O 0.51854 0.06627 0.87575 0.0
O443 O 0.45947 1.00381 0.70341 0.0
O444 O 0.4806 0.0357 0.79914 0.0
O445 O 0.49652 0.06409 0.64648 0.0
O446 O 0.51463 0.03417 0.54995 0.0
O447 O 0.45249 0.02096 0.5808 0.0
O448 O 0.46258 0.98541 0.49508 0.0
O449 O 0.55996 0.01716 0.69999 0.0
O450 O 0.53932 1.00803 0.5758 0.0
C451 C 0.51676 0.97549 0.78401 0.0
C452 C 0.45815 0.01924 0.77146 0.0
C453 C 0.55743 0.05383 0.96345 0.0
C454 C 0.57998 0.0098 0.02595 0.0
C455 C 0.56438 0.05247 0.1077 0.0
C456 C 0.55465 0.0674 0.03892 0.0
C457 C 0.57721 0.0241 0.10146 0.0
C458 C 0.56953 0.02497 0.95738 0.0
C459 C 0.54697 0.06941 0.89117 0.0
C460 C 0.55359 0.1598 0.60404 0.0
C461 C 0.5256 0.16789 0.63535 0.0
H462 H 0.60761 0.13846 0.55826 0.0
C463 C 0.5052 0.06065 0.57135 0.0
C464 C 0.56281 0.00905 0.62378 0.0
C465 C 0.44658 0.03238 0.44369 0.0
C466 C 0.42577 0.07897 0.39085 0.0
C467 C 0.46412 0.05217 0.31575 0.0
C468 C 0.46501 0.03015 0.37529 0.0
C469 C 0.44449 0.07626 0.3229 0.0
C470 C 0.42774 0.05719 0.45197 0.0
C471 C 0.44765 0.00999 0.50897 0.0
H472 H 0.56247 0.06314 0.166 0.0
H473 H 0.54502 0.08952 0.04456 0.0
H474 H 0.58576 0.01399 0.15588 0.0
H475 H 0.57071 0.01452 0.89877 0.0
H476 H 0.47832 0.05029 0.26311 0.0
H477 H 0.48021 0.01157 0.36783 0.0
H478 H 0.44326 0.09202 0.27357 0.0
H479 H 0.41435 0.0592 0.50613 0.0
C480 C 0.4128 0.52962 0.79255 0.0
C481 C 0.40694 0.49722 0.90845 0.0
C482 C 0.42534 0.51221 0.85193 0.0
C483 C 0.37553 0.49882 0.9012 0.0
C484 C 0.38135 0.53246 0.78698 0.0
C485 C 0.36275 0.51639 0.84044 0.0
N486 N 0.4315 0.54538 0.74366 0.0
C487 C 0.4203 0.56572 0.69042 0.0
C488 C 0.36964 0.5521 0.72955 0.0
C489 C 0.38924 0.56907 0.68169 0.0
Gd490 Gd 0.54263 0.50316 0.60557 0.0
Gd491 Gd 0.48327 0.53627 0.75581 0.0
N492 N 0.45567 0.51168 0.85772 0.0
C493 C 0.42068 0.48203 0.97207 0.0
C494 C 0.46916 0.49859 0.92254 0.0
C495 C 0.45194 0.48309 0.97975 0.0
H496 H 0.49332 0.49939 0.92878 0.0
H497 H 0.46277 0.47205 0.02979 0.0
H498 H 0.50602 0.45839 0.47141 0.0
H499 H 0.43533 0.57915 0.65385 0.0
H500 H 0.48847 0.46141 0.33069 0.0
H501 H 0.40736 0.47022 0.01678 0.0
H502 H 0.36098 0.48725 0.94357 0.0
H503 H 0.60466 0.54527 0.61451 0.0
H504 H 0.3456 0.55492 0.72319 0.0
H505 H 0.38046 0.58482 0.63834 0.0
H506 H 0.53548 0.55099 0.22923 0.0
H507 H 0.33851 0.51808 0.83676 0.0
H508 H 0.61198 0.5954 0.39494 0.0
H509 H 0.63124 0.58316 0.53071 0.0
N510 N 0.57075 0.53695 0.52723 0.0
C511 C 0.56096 0.5419 0.45128 0.0
C512 C 0.5964 0.55044 0.55496 0.0
C513 C 0.60035 0.57882 0.43136 0.0
C514 C 0.61138 0.57187 0.50784 0.0
C515 C 0.57523 0.56328 0.40143 0.0
H516 H 0.57525 0.584 0.28342 0.0
N517 N 0.52773 0.50113 0.46901 0.0
C518 C 0.53848 0.52349 0.42125 0.0
C519 C 0.51046 0.50383 0.30817 0.0
C520 C 0.52982 0.52574 0.33984 0.0
C521 C 0.51182 0.47787 0.43574 0.0
C522 C 0.50213 0.47932 0.35574 0.0
O523 O 0.48406 0.48555 0.76783 0.0
O524 O 0.52215 0.46678 0.68679 0.0
O525 O 0.57175 0.47357 0.53716 0.0
O526 O 0.57889 0.47943 0.66428 0.0
O527 O 0.52582 0.51512 0.80854 0.0
O528 O 0.56044 0.52832 0.714 0.0
O529 O 0.54031 0.55419 0.62219 0.0
O530 O 0.49038 0.56255 0.63918 0.0
O531 O 0.51616 0.56982 0.79103 0.0
O532 O 0.47047 0.57071 0.84213 0.0
O533 O 0.49278 0.48994 0.58673 0.0
O534 O 0.4676 0.53182 0.62633 0.0
C535 C 0.50103 0.4634 0.74237 0.0
C536 C 0.55393 0.52121 0.78871 0.0
C537 C 0.58186 0.43076 0.61562 0.0
C538 C 0.54843 0.38701 0.62311 0.0
C539 C 0.59764 0.38628 0.68718 0.0
C540 C 0.60333 0.41564 0.66143 0.0
C541 C 0.57028 0.3721 0.66898 0.0
C542 C 0.55498 0.41606 0.59499 0.0
C543 C 0.58472 0.4632 0.60146 0.0
C544 C 0.54222 0.54859 0.29155 0.0
C545 C 0.56492 0.56736 0.32234 0.0
H546 H 0.50324 0.50473 0.24595 0.0
C547 C 0.51649 0.57074 0.60866 0.0
C548 C 0.46992 0.50842 0.57876 0.0
C549 C 0.50656 0.60804 0.89052 0.0
C550 C 0.54568 0.63559 0.96184 0.0
C551 C 0.49314 0.64773 0.98323 0.0
C552 C 0.48464 0.62538 0.92894 0.0
C553 C 0.52347 0.65269 1.00018 0.0
C554 C 0.53717 0.61357 0.90612 0.0
C555 C 0.4976 0.58209 0.84172 0.0
H556 H 0.61415 0.37477 0.7233 0.0
H557 H 0.62397 0.42684 0.67937 0.0
H558 H 0.56607 0.34981 0.69237 0.0
H559 H 0.53871 0.42781 0.55872 0.0
H560 H 0.47618 0.661 0.01297 0.0
H561 H 0.46094 0.6213 0.91813 0.0
H562 H 0.52964 0.67011 0.04273 0.0
H563 H 0.5543 0.60006 0.87762 0.0
C564 C 0.04077 0.44085 0.85316 0.0
C565 C 0.05105 0.46435 0.98202 0.0
C566 C 0.03651 0.46443 0.90651 0.0
C567 C 0.07054 0.4409 1.0018 0.0
C568 C 0.06 0.41704 0.87328 0.0
C569 C 0.07497 0.4173 0.94762 0.0
N570 N 0.02675 0.44166 0.78047 0.0
C571 C 0.03002 0.41882 0.72662 0.0
C572 C 0.0639 0.39385 0.8176 0.0
C573 C 0.04872 0.39468 0.74413 0.0
Gd574 Gd 0.031 0.54485 0.61813 0.0
Gd575 Gd 0.99589 0.48311 0.7561 0.0
N576 N 0.01769 0.48702 0.88542 0.0
C577 C 0.04507 0.48752 0.03626 0.0
C578 C 0.00988 0.50807 0.94109 0.0
C579 C 0.02396 0.50915 0.01623 0.0
H580 H 0.99194 0.52338 0.92968 0.0
H581 H 0.01799 0.5263 0.05933 0.0
H582 H 1.00094 0.51115 0.45648 0.0
H583 H 0.01805 0.41902 0.67038 0.0
H584 H 0.97024 0.5243 0.33844 0.0
H585 H 0.05576 0.48825 0.09483 0.0
H586 H 0.08201 0.44061 0.0593 0.0
H587 H 0.04745 0.60946 0.71072 0.0
H588 H 0.07849 0.37518 0.83081 0.0
H589 H 0.05136 0.37671 0.701 0.0
H590 H 0.95564 0.63042 0.36473 0.0
H591 H 0.08997 0.39929 0.96391 0.0
H592 H 1.00215 0.68042 0.58872 0.0
H593 H 0.03446 0.66304 0.70024 0.0
N594 N 0.02134 0.59645 0.60956 0.0
C595 C 1.00415 0.60562 0.54699 0.0
C596 C 0.03256 0.61669 0.66356 0.0
C597 C 0.00741 0.65683 0.59389 0.0
C598 C 0.02559 0.6471 0.65701 0.0
C599 C 0.99666 0.63606 0.5374 0.0
H600 H 0.97289 0.66805 0.46331 0.0
N601 N 1.00185 0.55541 0.50362 0.0
C602 C 0.9944 0.58451 0.49169 0.0
C603 C 0.96795 0.5711 0.36973 0.0
C604 C 0.97694 0.59313 0.42494 0.0
C605 C 0.99412 0.53402 0.44841 0.0
C606 C 0.97677 0.54145 0.38126 0.0
O607 O 0.04728 0.48398 0.73809 0.0
O608 O 0.05601 0.53394 0.73346 0.0
O609 O 0.06237 0.53256 0.52535 0.0
O610 O 0.07168 0.5716 0.59881 0.0
O611 O 0.98499 0.5324 0.78839 0.0
O612 O 0.02729 0.55827 0.74932 0.0
O613 O 0.97947 0.54476 0.61809 0.0
O614 O 0.96634 0.49621 0.64997 0.0
O615 O 0.95891 0.47905 0.84057 0.0
O616 O 0.96843 0.44243 0.76031 0.0
O617 O 0.03573 0.49596 0.57478 0.0
O618 O 0.99648 0.46804 0.62605 0.0
C619 C 0.06495 0.50708 0.75373 0.0
C620 C 1.00337 0.55585 0.7955 0.0
C621 C 0.11126 0.53708 0.57752 0.0
C622 C 0.14338 0.49277 0.5796 0.0
C623 C 0.15679 0.53713 0.65786 0.0
C624 C 0.13128 0.55184 0.62978 0.0
C625 C 0.16299 0.50792 0.63267 0.0
C626 C 0.11723 0.50741 0.55451 0.0
C627 C 0.08287 0.55116 0.55174 0.0
C628 C 0.96912 0.62336 0.41545 0.0
C629 C 0.97893 0.64478 0.47161 0.0
H630 H 0.95446 0.57678 0.31776 0.0
C631 C 0.96 0.52226 0.61718 0.0
C632 C 0.01745 0.47243 0.57142 0.0
C633 C 0.91795 0.45716 0.77063 0.0
C634 C 0.87604 0.48892 0.72945 0.0
C635 C 0.87865 0.43723 0.68366 0.0
C636 C 0.90551 0.43337 0.726 0.0
C637 C 0.86398 0.46483 0.68506 0.0
C638 C 0.90277 0.48462 0.77275 0.0
C639 C 0.9484 0.45494 0.80591 0.0
H640 H 0.17208 0.54858 0.69843 0.0
H641 H 0.12702 0.57451 0.64985 0.0
H642 H 0.18367 0.49777 0.65263 0.0
H643 H 0.10135 0.49556 0.51657 0.0
H644 H 0.86933 0.41885 0.64889 0.0
H645 H 0.91692 0.41207 0.72235 0.0
H646 H 0.84337 0.46735 0.65126 0.0
H647 H 0.91182 0.50283 0.8087 0.0
C648 C 0.11706 1.00294 0.44557 0.0
C649 C 0.12354 0.03091 0.40962 0.0
H650 H 0.09062 0.97785 0.53049 0.0
C651 C 0.10652 0.05572 0.43611 0.0
H652 H 0.12891 0.98307 0.42669 0.0
C653 C 0.08423 0.05266 0.49637 0.0
C654 C 0.07815 0.02471 0.53265 0.0
H655 H 0.11078 0.07782 0.41156 0.0
H656 H 0.07202 0.07234 0.5153 0.0
C657 C 0.09487 0.99992 0.50564 0.0
C658 C 0.48247 0.13405 0.46757 0.0
C659 C 0.49908 0.1335 0.39535 0.0
H660 H 0.47011 0.11127 0.5769 0.0
C661 C 0.51684 0.10817 0.38009 0.0
H662 H 0.46834 0.15304 0.48109 0.0
C663 C 0.51865 0.08457 0.43665 0.0
C664 C 0.50247 0.0854 0.50977 0.0
H665 H 0.52991 0.10693 0.3252 0.0
H666 H 0.53307 0.06578 0.42342 0.0
C667 C 0.48377 0.1102 0.52311 0.0
C668 C 0.40878 0.52635 0.42308 0.0
C669 C 0.40176 0.49824 0.38841 0.0
H670 H 0.43525 0.55147 0.50803 0.0
C671 C 0.41791 0.47324 0.41741 0.0
H672 H 0.39754 0.54636 0.40271 0.0
C673 C 0.4399 0.47626 0.47853 0.0
C674 C 0.44675 0.50441 0.5128 0.0
H675 H 0.41312 0.45102 0.39433 0.0
H676 H 0.45121 0.45639 0.49975 0.0
C677 C 0.43069 0.52933 0.48396 0.0
C678 C 0.04489 0.43161 0.37983 0.0
C679 C 0.02743 0.40485 0.37883 0.0
H680 H 0.05585 0.47324 0.43935 0.0
C681 C 1.00626 0.40135 0.4418 0.0
H682 H 0.06108 0.43615 0.33272 0.0
C683 C 1.00284 0.42325 0.50247 0.0
C684 C 0.02081 0.44949 0.5044 0.0
H685 H 0.99253 0.38128 0.446 0.0
H686 H 0.98618 0.41924 0.54886 0.0
C687 C 0.04178 0.45332 0.44143 0.0
C688 C 0.91941 0.97126 0.98452 0.0
C689 C 0.89961 0.99531 0.99938 0.0
H690 H 0.95705 0.95447 0.91675 0.0
C691 C 0.90456 0.02189 0.95503 0.0
H692 H 0.91649 0.95019 0.01594 0.0
C693 C 0.92762 0.02413 0.89721 0.0
C694 C 0.94703 1.00001 0.88145 0.0
H695 H 0.89064 0.0413 0.96494 0.0
H696 H 0.93017 0.04503 0.86466 0.0
C697 C 0.94274 0.97361 0.92683 0.0
C698 C 0.51995 0.89725 0.88238 0.0
C699 C 0.52437 0.90382 0.9648 0.0
H700 H 0.51462 0.91393 0.76182 0.0
C701 C 0.52624 0.93443 0.9864 0.0
H702 H 0.51882 0.8742 0.8621 0.0
C703 C 0.52381 0.95736 0.92831 0.0
C704 C 0.51972 0.95077 0.84596 0.0
H705 H 0.52912 0.94084 0.04878 0.0
H706 H 0.52462 0.9804 0.94849 0.0
C707 C 0.51769 0.92023 0.82423 0.0
C708 C 0.63215 0.52065 0.8866 0.0
C709 C 0.62597 0.52322 0.96965 0.0
H710 H 0.61498 0.51845 0.76591 0.0
C711 C 0.59547 0.52515 0.99262 0.0
H712 H 0.65517 0.51959 0.8657 0.0
C713 C 0.57212 0.52406 0.93473 0.0
C714 C 0.57847 0.52169 0.85169 0.0
H715 H 0.58959 0.52716 0.05563 0.0
H716 H 0.54905 0.52551 0.95506 0.0
C717 C 0.60894 0.52018 0.82888 0.0
C718 C 0.96806 0.60329 0.96563 0.0
C719 C 0.99038 0.62554 0.98156 0.0
H720 H 0.95394 0.56501 0.89525 0.0
C721 C 0.01705 0.62362 0.93552 0.0
H722 H 0.94735 0.60256 0.99948 0.0
C723 C 0.02115 0.60098 0.87732 0.0
C724 C 0.99853 0.57955 0.85992 0.0
H725 H 0.03502 0.63983 0.94283 0.0
H726 H 0.04243 0.60035 0.84599 0.0
C727 C 0.9719 0.58112 0.90555 0.0
C728 C 0.0695 0.18824 0.59382 0.0
C729 C 0.07722 0.18075 0.5141 0.0
H730 H 0.03758 0.18256 0.68954 0.0
C731 C 0.06271 0.15611 0.47778 0.0
H732 H 0.08084 0.20656 0.62445 0.0
C733 C 0.03787 0.14278 0.51432 0.0
C734 C 0.02727 0.15339 0.58871 0.0
H735 H 0.06789 0.14946 0.41667 0.0
H736 H 0.02539 0.12613 0.48022 0.0
C737 C 0.04449 0.17483 0.63062 0.0
C738 C 0.34837 0.11153 0.41098 0.0
C739 C 0.35026 0.13668 0.35992 0.0
H740 H 0.36989 0.0733 0.45793 0.0
C741 C 0.37897 0.14663 0.33545 0.0
H742 H 0.32697 0.10273 0.43156 0.0
C743 C 0.40441 0.12939 0.35201 0.0
C744 C 0.40152 0.10182 0.39281 0.0
H745 H 0.3815 0.16637 0.29806 0.0
H746 H 0.4259 0.13669 0.32826 0.0
C747 C 0.37348 0.09423 0.42636 0.0
C748 C 0.46816 0.37827 0.55096 0.0
C749 C 0.46817 0.3484 0.525 0.0
H750 H 0.49298 0.41364 0.60707 0.0
C751 C 0.49211 0.32981 0.547 0.0
H752 H 0.44993 0.39299 0.5346 0.0
C753 C 0.51748 0.34185 0.58471 0.0
C754 C 0.51908 0.37262 0.60249 0.0
H755 H 0.49278 0.30673 0.52673 0.0
H756 H 0.53674 0.32754 0.59293 0.0
C757 C 0.49319 0.39014 0.5908 0.0
C758 C 0.18444 0.42006 0.54027 0.0
C759 C 0.18007 0.41716 0.45669 0.0
H760 H 0.17579 0.44611 0.646 0.0
C761 C 0.15756 0.4343 0.42012 0.0
H762 H 0.20109 0.40664 0.57074 0.0
C763 C 0.14392 0.45742 0.46212 0.0
C764 C 0.15168 0.46347 0.54272 0.0
H765 H 0.15332 0.43283 0.35605 0.0
H766 H 0.12971 0.47227 0.42796 0.0
C767 C 0.17035 0.44307 0.583 0.0
C768 C 0.92884 0.8604 0.79932 0.0
C769 C 0.93017 0.83066 0.82634 0.0
H770 H 0.95258 0.89595 0.74025 0.0
C771 C 0.95145 0.81137 0.79187 0.0
H772 H 0.91241 0.87559 0.8242 0.0
C773 C 0.97496 0.82314 0.74561 0.0
C774 C 0.97695 0.85416 0.73265 0.0
H775 H 0.95284 0.78822 0.81115 0.0
H776 H 0.99353 0.80868 0.73035 0.0
C777 C 0.95205 0.87206 0.7519 0.0
C778 C 0.62078 0.93932 0.08619 0.0
C779 C 0.64091 0.93611 0.02123 0.0
H780 H 0.58463 0.96397 0.13711 0.0
C781 C 0.63441 0.95137 0.94935 0.0
H782 H 0.62397 0.92748 0.14228 0.0
C783 C 0.61296 0.97399 0.94844 0.0
C784 C 0.59631 0.98074 0.01828 0.0
H785 H 0.6481 0.94825 0.89617 0.0
H786 H 0.61172 0.98768 0.89493 0.0
C787 C 0.59849 0.9611 0.08417 0.0
C788 C 0.61268 0.65852 0.08163 0.0
C789 C 0.62829 0.6757 0.02348 0.0
H790 H 0.57317 0.63247 0.10683 0.0
C791 C 0.62226 0.66988 0.94161 0.0
H792 H 0.61691 0.66133 0.14534 0.0
C793 C 0.59665 0.65332 0.91981 0.0
C794 C 0.57758 0.64179 0.97974 0.0
H795 H 0.63462 0.68165 0.89496 0.0
H796 H 0.58995 0.65264 0.85715 0.0
C797 C 0.58719 0.64209 0.05991 0.0
C798 C 0.81559 0.54185 0.79214 0.0
C799 C 0.83335 0.56634 0.81735 0.0
H800 H 0.81549 0.49736 0.74491 0.0
C801 C 0.86308 0.56872 0.78996 0.0
H802 H 0.79255 0.53948 0.8125 0.0
C803 C 0.87615 0.54472 0.74936 0.0
C804 C 0.85988 0.51775 0.73836 0.0
H805 H 0.87713 0.58751 0.80809 0.0
H806 H 0.89988 0.54604 0.73498 0.0
C807 C 0.82884 0.51754 0.7535 0.0
C808 C 0.05734 0.12382 0.90603 0.0
C809 C 0.03528 0.1464 0.90152 0.0
H810 H 0.07183 0.08 0.86928 0.0
C811 C 0.00996 0.14021 0.85266 0.0
H812 H 0.07702 0.12702 0.94344 0.0
C813 C 1.00701 0.11276 0.81017 0.0
C814 C 0.02911 0.09036 0.81496 0.0
H815 H 0.99238 0.15666 0.84673 0.0
H816 H 0.98691 0.10871 0.77525 0.0
C817 C 0.05424 0.0964 0.86399 0.0
C818 C 0.40202 0.03014 0.94526 0.0
C819 C 0.37447 0.01977 0.91297 0.0
H820 H 0.44919 0.03826 0.92749 0.0
C821 C 0.37502 0.00844 0.83352 0.0
H822 H 0.40283 0.03948 1.00538 0.0
C823 C 0.40201 1.00756 0.78839 0.0
C824 C 0.42941 0.01841 0.82052 0.0
H825 H 0.35455 1.00006 0.80607 0.0
H826 H 0.40125 0.99883 0.72759 0.0
C827 C 0.42882 0.02962 0.89995 0.0
C828 C 0.46747 0.39769 0.86359 0.0
C829 C 0.49224 0.37847 0.8746 0.0
H830 H 0.45061 0.43882 0.81407 0.0
C831 C 0.51973 0.38741 0.83892 0.0
H832 H 0.446 0.39242 0.89103 0.0
C833 C 0.52234 0.41443 0.79494 0.0
C834 C 0.49759 0.43347 0.78411 0.0
H835 H 0.53945 0.37359 0.84513 0.0
H836 H 0.54413 0.42089 0.77145 0.0
C837 C 0.47013 0.42465 0.81958 0.0
C838 C 0.13549 0.52514 0.88011 0.0
C839 C 0.1495 0.49703 0.8891 0.0
H840 H 0.09874 0.55032 0.83149 0.0
C841 C 0.13537 0.47228 0.85074 0.0
H842 H 0.14546 0.54503 0.90667 0.0
C843 C 0.10843 0.47546 0.80643 0.0
C844 C 0.09428 0.50345 0.79903 0.0
H845 H 0.14477 0.45009 0.85595 0.0
H846 H 0.09874 0.45588 0.77763 0.0
C847 C 0.10855 0.52827 0.836 0.0
C848 C 0.0215 0.89352 0.48796 0.0
C849 C 0.99357 0.87833 0.48161 0.0
H850 H 0.04687 0.93035 0.53775 0.0
C851 C 0.96924 0.89064 0.52513 0.0
H852 H 0.04116 0.88497 0.45765 0.0
C853 C 0.97274 0.91689 0.57231 0.0
C854 C 1.00061 0.93201 0.57777 0.0
H855 H 0.94718 0.88031 0.52213 0.0
H856 H 0.95358 0.92517 0.60533 0.0
C857 C 0.02492 0.9197 0.53497 0.0
C858 C 0.64759 0.99553 0.58926 0.0
C859 C 0.651 1.0019 0.50627 0.0
H860 H 0.61772 0.99304 0.69183 0.0
C861 C 0.6251 0.01073 0.46401 0.0
H862 H 0.66684 0.9888 0.62447 0.0
C863 C 0.59703 0.01285 0.50244 0.0
C864 C 0.59349 1.00644 0.58508 0.0
H865 H 0.62628 0.01545 0.40017 0.0
H866 H 0.578 0.01992 0.46689 0.0
C867 C 0.61936 0.99802 0.62818 0.0
C868 C 0.54885 0.64237 0.51082 0.0
C869 C 0.52386 0.65462 0.47034 0.0
H870 H 0.56616 0.60729 0.58606 0.0
C871 C 0.49638 0.63863 0.47619 0.0
H872 H 0.57059 0.6534 0.50758 0.0
C873 C 0.49397 0.61179 0.52122 0.0
C874 C 0.51903 0.59961 0.56119 0.0
H875 H 0.47647 0.64709 0.44687 0.0
H876 H 0.4724 0.60039 0.52411 0.0
C877 C 0.54646 0.61546 0.55524 0.0
C878 C 0.88603 0.50284 0.50715 0.0
C879 C 0.87605 0.53089 0.47868 0.0
H880 H 0.91957 0.47807 0.57151 0.0
C881 C 0.89405 0.55619 0.49844 0.0
H882 H 0.87306 0.48268 0.49528 0.0
C883 C 0.9207 0.55353 0.54399 0.0
C884 C 0.93077 0.52544 0.57123 0.0
H885 H 0.88802 0.57826 0.4773 0.0
H886 H 0.93355 0.57364 0.55741 0.0
C887 C 0.91282 0.50018 0.55211 0.0
loop_
_geom_bond_atom_site_label_1
_geom_bond_atom_site_label_2
_geom_bond_distance
_geom_bond_site_symmetry_2
_ccdc_geom_bond_type
C0 C1 1.386 . S
C0 C2 1.397 . S
C0 H24 0.931 . S
C1 C0 1.386 . S
C1 C5 1.397 . S
C2 C0 1.397 . S
C2 C3 1.384 . S
C2 H25 0.930 . S
C3 C2 1.384 . S
C3 C4 1.377 . S
C3 C6 1.481 . S
C4 C3 1.377 . S
C4 C5 1.389 . S
C4 H26 0.929 . S
C5 C1 1.397 . S
C5 C4 1.389 . S
C5 H27 0.931 . S
C6 C3 1.481 . S
C6 C7 1.387 . S
C6 C11 1.390 . S
C7 C6 1.387 . S
C7 C8 1.401 . S
C7 H28 0.930 . S
C8 C7 1.401 . S
C8 C9 1.376 . S
C8 C17 1.511 . S
C9 C8 1.376 . S
C9 C10 1.392 . S
C9 H30 0.931 . S
C10 C9 1.392 . S
C10 C11 1.361 . S
C10 C12 1.500 . S
C11 C6 1.390 . S
C11 C10 1.361 . S
C11 H29 0.931 . S
C12 C10 1.500 . S
C12 C13 1.371 . S
C12 C14 1.365 . S
C13 C12 1.371 . S
C13 C23 1.386 . S
C13 H31 0.931 . S
C14 C12 1.365 . S
C14 C15 1.409 . S
C14 H32 0.929 . S
C15 C14 1.409 . S
C15 C16 1.380 . S
C15 H33 0.930 . S
C16 C15 1.380 . S
C16 C23 1.357 . S
C17 C8 1.511 . S
C17 C18 1.341 . S
C17 C19 1.371 . S
C18 C17 1.341 . S
C18 C22 1.394 . S
C18 H34 0.930 . S
C19 C17 1.371 . S
C19 C20 1.392 . S
C19 H35 0.931 . S
C20 C19 1.392 . S
C20 C21 1.331 . S
C20 H38 0.932 . S
C21 C20 1.331 . S
C21 C22 1.336 . S
C22 C18 1.394 . S
C22 C21 1.336 . S
C22 H37 0.929 . S
C23 C13 1.386 . S
C23 C16 1.357 . S
C23 H36 0.928 . S
H24 C0 0.931 . S
H25 C2 0.930 . S
H26 C4 0.929 . S
H27 C5 0.931 . S
H28 C7 0.930 . S
H29 C11 0.931 . S
H30 C9 0.931 . S
H31 C13 0.931 . S
H32 C14 0.929 . S
H33 C15 0.930 . S
H34 C18 0.930 . S
H35 C19 0.931 . S
H36 C23 0.928 . S
H37 C22 0.929 . S
H38 C20 0.932 . S
C39 C40 1.386 . S
C39 C41 1.397 . S
C39 H63 0.931 . S
C40 C39 1.386 . S
C40 C44 1.397 . S
C41 C39 1.397 . S
C41 C42 1.384 . S
C41 H64 0.930 . S
C42 C41 1.384 . S
C42 C43 1.377 . S
C42 C45 1.481 . S
C43 C42 1.377 . S
C43 C44 1.389 . S
C43 H65 0.929 1_655 S
C44 C40 1.397 . S
C44 C43 1.389 . S
C44 H66 0.931 1_655 S
C45 C42 1.481 . S
C45 C46 1.387 . S
C45 C50 1.390 . S
C46 C45 1.387 . S
C46 C47 1.401 . S
C46 H67 0.930 . S
C47 C46 1.401 . S
C47 C48 1.376 . S
C47 C56 1.511 . S
C48 C47 1.376 . S
C48 C49 1.392 . S
C48 H69 0.931 . S
C49 C48 1.392 . S
C49 C50 1.361 . S
C49 C51 1.500 . S
C50 C45 1.390 . S
C50 C49 1.361 . S
C50 H68 0.931 . S
C51 C49 1.500 . S
C51 C52 1.371 . S
C51 C53 1.365 . S
C52 C51 1.371 . S
C52 C62 1.386 . S
C52 H70 0.931 . S
C53 C51 1.365 . S
C53 C54 1.409 . S
C53 H71 0.947 . S
C54 C53 1.409 . S
C54 C55 1.380 . S
C54 H72 0.930 . S
C55 C54 1.380 . S
C55 C62 1.357 . S
C56 C47 1.511 . S
C56 C57 1.341 . S
C56 C58 1.371 . S
C57 C56 1.341 . S
C57 C61 1.394 . S
C57 H73 0.930 . S
C58 C56 1.371 . S
C58 C59 1.392 . S
C58 H74 0.931 . S
C59 C58 1.392 . S
C59 C60 1.331 . S
C59 H77 0.932 . S
C60 C59 1.331 . S
C60 C61 1.336 . S
C61 C57 1.394 . S
C61 C60 1.336 . S
C61 H76 0.929 . S
C62 C52 1.386 . S
C62 C55 1.357 . S
C62 H75 0.928 . S
H63 C39 0.931 . S
H64 C41 0.930 . S
H65 C43 0.929 1_455 S
H66 C44 0.931 1_455 S
H67 C46 0.930 . S
H68 C50 0.931 . S
H69 C48 0.931 . S
H70 C52 0.931 . S
H71 C53 0.947 . S
H72 C54 0.930 . S
H73 C57 0.930 . S
H74 C58 0.931 . S
H75 C62 0.928 . S
H76 C61 0.929 . S
H77 C59 0.932 . S
C78 C79 1.386 . S
C78 C80 1.397 . S
C78 H102 0.931 . S
C79 C78 1.386 . S
C79 C83 1.397 . S
C80 C78 1.397 . S
C80 C81 1.384 . S
C80 H103 0.930 . S
C81 C80 1.384 . S
C81 C82 1.377 . S
C81 C84 1.481 . S
C82 C81 1.377 . S
C82 C83 1.389 . S
C82 H104 0.929 1_565 S
C83 C79 1.397 . S
C83 C82 1.389 . S
C83 H105 0.931 1_565 S
C84 C81 1.481 . S
C84 C85 1.387 . S
C84 C89 1.390 . S
C85 C84 1.387 . S
C85 C86 1.401 . S
C85 H106 0.930 . S
C86 C85 1.401 . S
C86 C87 1.376 . S
C86 C95 1.511 . S
C87 C86 1.376 . S
C87 C88 1.392 . S
C87 H108 0.931 . S
C88 C87 1.392 . S
C88 C89 1.361 . S
C88 C90 1.500 . S
C89 C84 1.390 . S
C89 C88 1.361 . S
C89 H107 0.931 . S
C90 C88 1.500 . S
C90 C91 1.371 . S
C90 C92 1.365 . S
C91 C90 1.371 . S
C91 C101 1.386 . S
C91 H109 0.931 . S
C92 C90 1.365 . S
C92 C93 1.409 . S
C92 H110 0.929 . S
C93 C92 1.409 . S
C93 C94 1.380 . S
C93 H111 0.930 . S
C94 C93 1.380 . S
C94 C101 1.357 . S
C95 C86 1.511 . S
C95 C96 1.341 . S
C95 C97 1.371 . S
C96 C95 1.341 . S
C96 C100 1.394 . S
C96 H112 0.930 . S
C97 C95 1.371 . S
C97 C98 1.392 . S
C97 H113 0.931 . S
C98 C97 1.392 . S
C98 C99 1.331 . S
C98 H116 0.932 . S
C99 C98 1.331 . S
C99 C100 1.336 . S
C100 C96 1.394 . S
C100 C99 1.336 . S
C100 H115 0.929 . S
C101 C91 1.386 . S
C101 C94 1.357 . S
C101 H114 0.928 . S
H102 C78 0.931 . S
H103 C80 0.930 . S
H104 C82 0.929 1_545 S
H105 C83 0.931 1_545 S
H106 C85 0.930 . S
H107 C89 0.931 . S
H108 C87 0.931 . S
H109 C91 0.931 . S
H110 C92 0.929 . S
H111 C93 0.930 . S
H112 C96 0.930 . S
H113 C97 0.931 . S
H114 C101 0.928 . S
H115 C100 0.929 . S
H116 C98 0.932 . S
C117 C118 1.386 . S
C117 C119 1.397 . S
C117 H141 0.931 . S
C118 C117 1.386 . S
C118 C122 1.397 . S
C119 C117 1.397 . S
C119 C120 1.384 . S
C119 H142 0.930 . S
C120 C119 1.384 . S
C120 C121 1.377 . S
C120 C123 1.481 . S
C121 C120 1.377 . S
C121 C122 1.389 . S
C121 H143 0.929 . S
C122 C118 1.397 . S
C122 C121 1.389 . S
C122 H144 0.931 . S
C123 C120 1.481 . S
C123 C124 1.387 . S
C123 C128 1.390 . S
C124 C123 1.387 . S
C124 C125 1.401 . S
C124 H145 0.930 . S
C125 C124 1.401 . S
C125 C126 1.376 . S
C125 C134 1.511 . S
C126 C125 1.376 . S
C126 C127 1.392 . S
C126 H147 0.931 . S
C127 C126 1.392 . S
C127 C128 1.361 . S
C127 C129 1.500 . S
C128 C123 1.390 . S
C128 C127 1.361 . S
C128 H146 0.931 . S
C129 C127 1.500 . S
C129 C130 1.371 . S
C129 C131 1.365 . S
C130 C129 1.371 . S
C130 C140 1.386 . S
C130 H148 0.931 . S
C131 C129 1.365 . S
C131 C132 1.409 . S
C131 H149 0.929 . S
C132 C131 1.409 . S
C132 C133 1.380 . S
C132 H150 0.930 . S
C133 C132 1.380 . S
C133 C140 1.357 . S
C134 C125 1.511 . S
C134 C135 1.341 . S
C134 C136 1.371 . S
C135 C134 1.341 . S
C135 C139 1.394 . S
C135 H151 0.930 . S
C136 C134 1.371 . S
C136 C137 1.392 . S
C136 H152 0.931 . S
C137 C136 1.392 . S
C137 C138 1.331 . S
C137 H155 0.932 . S
C138 C137 1.331 . S
C138 C139 1.336 . S
C139 C135 1.394 . S
C139 C138 1.336 . S
C139 H154 0.929 . S
C140 C130 1.386 . S
C140 C133 1.357 . S
C140 H153 0.928 . S
H141 C117 0.931 . S
H142 C119 0.930 . S
H143 C121 0.929 . S
H144 C122 0.931 . S
H145 C124 0.930 . S
H146 C128 0.931 . S
H147 C126 0.931 . S
H148 C130 0.931 . S
H149 C131 0.929 . S
H150 C132 0.930 . S
H151 C135 0.930 . S
H152 C136 0.931 . S
H153 C140 0.928 . S
H154 C139 0.929 . S
H155 C137 0.932 . S
C156 C157 1.386 . S
C156 C158 1.397 . S
C156 H180 0.931 . S
C157 C156 1.386 . S
C157 C161 1.397 . S
C158 C156 1.397 . S
C158 C159 1.384 . S
C158 H181 0.930 . S
C159 C158 1.384 . S
C159 C160 1.377 . S
C159 C162 1.481 . S
C160 C159 1.377 . S
C160 C161 1.389 . S
C160 H182 0.929 . S
C161 C157 1.397 . S
C161 C160 1.389 . S
C161 H183 0.931 . S
C162 C159 1.481 . S
C162 C163 1.387 . S
C162 C167 1.390 . S
C163 C162 1.387 . S
C163 C164 1.401 . S
C163 H184 0.930 . S
C164 C163 1.401 . S
C164 C165 1.376 1_554 S
C164 C173 1.511 . S
C165 C164 1.376 1_556 S
C165 C166 1.392 . S
C165 H186 0.931 . S
C166 C165 1.392 . S
C166 C167 1.361 1_556 S
C166 C168 1.500 . S
C167 C162 1.390 . S
C167 C166 1.361 1_554 S
C167 H185 0.931 . S
C168 C166 1.500 . S
C168 C169 1.371 . S
C168 C170 1.365 . S
C169 C168 1.371 . S
C169 C179 1.386 . S
C169 H187 0.931 . S
C170 C168 1.365 . S
C170 C171 1.409 . S
C170 H188 0.929 . S
C171 C170 1.409 . S
C171 C172 1.380 . S
C171 H189 0.930 . S
C172 C171 1.380 . S
C172 C179 1.357 . S
C173 C164 1.511 . S
C173 C174 1.341 . S
C173 C175 1.371 . S
C174 C173 1.341 . S
C174 C178 1.394 . S
C174 H190 0.930 . S
C175 C173 1.371 . S
C175 C176 1.392 . S
C175 H191 0.931 1_554 S
C176 C175 1.392 . S
C176 C177 1.331 . S
C176 H194 0.932 . S
C177 C176 1.331 . S
C177 C178 1.336 . S
C178 C174 1.394 . S
C178 C177 1.336 . S
C178 H193 0.929 . S
C179 C169 1.386 . S
C179 C172 1.357 . S
C179 H192 0.928 . S
H180 C156 0.931 . S
H181 C158 0.930 . S
H182 C160 0.929 . S
H183 C161 0.931 . S
H184 C163 0.930 . S
H185 C167 0.931 . S
H186 C165 0.931 . S
H187 C169 0.931 . S
H188 C170 0.929 . S
H189 C171 0.930 . S
H190 C174 0.930 . S
H191 C175 0.931 1_556 S
H192 C179 0.928 . S
H193 C178 0.929 . S
H194 C176 0.932 . S
C195 C196 1.386 . S
C195 C197 1.397 . S
C195 H219 0.931 . S
C196 C195 1.386 . S
C196 C200 1.397 . S
C197 C195 1.397 . S
C197 C198 1.384 . S
C197 H220 0.930 . S
C198 C197 1.384 . S
C198 C199 1.377 . S
C198 C201 1.481 . S
C199 C198 1.377 . S
C199 C200 1.389 . S
C199 H221 0.929 . S
C200 C196 1.397 . S
C200 C199 1.389 . S
C200 H222 0.931 . S
C201 C198 1.481 . S
C201 C202 1.387 . S
C201 C206 1.390 . S
C202 C201 1.387 . S
C202 C203 1.401 . S
C202 H223 0.930 . S
C203 C202 1.401 . S
C203 C204 1.376 1_554 S
C203 C212 1.511 . S
C204 C203 1.376 1_556 S
C204 C205 1.392 . S
C204 H225 0.931 . S
C205 C204 1.392 . S
C205 C206 1.361 1_556 S
C205 C207 1.500 . S
C206 C201 1.390 . S
C206 C205 1.361 1_554 S
C206 H224 0.931 . S
C207 C205 1.500 . S
C207 C208 1.371 . S
C207 C209 1.365 . S
C208 C207 1.371 . S
C208 C218 1.386 . S
C208 H226 0.931 . S
C209 C207 1.365 . S
C209 C210 1.409 . S
C209 H227 0.929 . S
C210 C209 1.409 . S
C210 C211 1.380 . S
C210 H228 0.930 . S
C211 C210 1.380 . S
C211 C218 1.357 . S
C212 C203 1.511 . S
C212 C213 1.341 . S
C212 C214 1.371 . S
C213 C212 1.341 . S
C213 C217 1.394 . S
C213 H229 0.930 . S
C214 C212 1.371 . S
C214 C215 1.392 . S
C214 H230 0.931 1_554 S
C215 C214 1.392 . S
C215 C216 1.331 . S
C215 H233 0.932 . S
C216 C215 1.331 . S
C216 C217 1.336 . S
C217 C213 1.394 . S
C217 C216 1.336 . S
C217 H232 0.929 . S
C218 C208 1.386 . S
C218 C211 1.357 . S
C218 H231 0.928 . S
H219 C195 0.931 . S
H220 C197 0.930 . S
H221 C199 0.929 . S
H222 C200 0.931 . S
H223 C202 0.930 . S
H224 C206 0.931 . S
H225 C204 0.931 . S
H226 C208 0.931 . S
H227 C209 0.929 . S
H228 C210 0.930 . S
H229 C213 0.930 . S
H230 C214 0.931 1_556 S
H231 C218 0.928 . S
H232 C217 0.929 . S
H233 C215 0.932 . S
C234 C235 1.386 . S
C234 C236 1.397 . S
C234 H258 0.931 . S
C235 C234 1.386 . S
C235 C239 1.397 . S
C236 C234 1.397 . S
C236 C237 1.384 . S
C236 H259 0.930 . S
C237 C236 1.384 . S
C237 C238 1.377 . S
C237 C240 1.481 . S
C238 C237 1.377 . S
C238 C239 1.389 . S
C238 H260 0.929 . S
C239 C235 1.397 . S
C239 C238 1.389 . S
C239 H261 0.931 . S
C240 C237 1.481 . S
C240 C241 1.387 . S
C240 C245 1.390 . S
C241 C240 1.387 . S
C241 C242 1.401 . S
C241 H262 0.930 . S
C242 C241 1.401 . S
C242 C243 1.376 1_554 S
C242 C251 1.511 . S
C243 C242 1.376 1_556 S
C243 C244 1.392 . S
C243 H264 0.931 . S
C244 C243 1.392 . S
C244 C245 1.361 1_556 S
C244 C246 1.500 . S
C245 C240 1.390 . S
C245 C244 1.361 1_554 S
C245 H263 0.931 . S
C246 C244 1.500 . S
C246 C247 1.371 . S
C246 C248 1.365 . S
C247 C246 1.371 . S
C247 C257 1.386 . S
C247 H265 0.931 . S
C248 C246 1.365 . S
C248 C249 1.409 . S
C248 H266 0.929 . S
C249 C248 1.409 . S
C249 C250 1.380 . S
C249 H267 0.930 . S
C250 C249 1.380 . S
C250 C257 1.357 . S
C251 C242 1.511 . S
C251 C252 1.341 . S
C251 C253 1.371 . S
C252 C251 1.341 . S
C252 C256 1.394 . S
C252 H268 0.930 . S
C253 C251 1.371 . S
C253 C254 1.392 . S
C253 H269 0.931 1_554 S
C254 C253 1.392 . S
C254 C255 1.331 . S
C254 H272 0.932 . S
C255 C254 1.331 . S
C255 C256 1.336 . S
C256 C252 1.394 . S
C256 C255 1.336 . S
C256 H271 0.929 . S
C257 C247 1.386 . S
C257 C250 1.357 . S
C257 H270 0.928 . S
H258 C234 0.931 . S
H259 C236 0.930 . S
H260 C238 0.929 . S
H261 C239 0.931 . S
H262 C241 0.930 . S
H263 C245 0.931 . S
H264 C243 0.931 . S
H265 C247 0.931 . S
H266 C248 0.929 . S
H267 C249 0.930 . S
H268 C252 0.930 . S
H269 C253 0.931 1_556 S
H270 C257 0.928 . S
H271 C256 0.929 . S
H272 C254 0.932 . S
C273 C274 1.386 . S
C273 C275 1.397 . S
C273 H297 0.931 . S
C274 C273 1.386 . S
C274 C278 1.397 . S
C275 C273 1.397 . S
C275 C276 1.384 . S
C275 H298 0.930 . S
C276 C275 1.384 . S
C276 C277 1.377 . S
C276 C279 1.481 . S
C277 C276 1.377 . S
C277 C278 1.389 . S
C277 H299 0.929 . S
C278 C274 1.397 . S
C278 C277 1.389 . S
C278 H300 0.931 . S
C279 C276 1.481 . S
C279 C280 1.387 . S
C279 C284 1.390 1_556 S
C280 C279 1.387 . S
C280 C281 1.401 1_556 S
C280 H301 0.930 . S
C281 C280 1.401 1_554 S
C281 C282 1.376 . S
C281 C290 1.511 . S
C282 C281 1.376 . S
C282 C283 1.392 . S
C282 H303 0.931 . S
C283 C282 1.392 . S
C283 C284 1.361 . S
C283 C285 1.500 . S
C284 C279 1.390 1_554 S
C284 C283 1.361 . S
C284 H302 0.931 . S
C285 C283 1.500 . S
C285 C286 1.371 . S
C285 C287 1.365 . S
C286 C285 1.371 . S
C286 C296 1.386 . S
C286 H304 0.931 . S
C287 C285 1.365 . S
C287 C288 1.409 . S
C287 H305 0.929 . S
C288 C287 1.409 . S
C288 C289 1.380 . S
C288 H306 0.930 . S
C289 C288 1.380 . S
C289 C296 1.357 . S
C290 C281 1.511 . S
C290 C291 1.341 . S
C290 C292 1.371 . S
C291 C290 1.341 . S
C291 C295 1.394 . S
C291 H307 0.930 1_554 S
C292 C290 1.371 . S
C292 C293 1.392 . S
C292 H308 0.931 . S
C293 C292 1.392 . S
C293 C294 1.331 . S
C293 H311 0.932 . S
C294 C293 1.331 . S
C294 C295 1.336 . S
C295 C291 1.394 . S
C295 C294 1.336 . S
C295 H310 0.929 . S
C296 C286 1.386 . S
C296 C289 1.357 . S
C296 H309 0.928 . S
H297 C273 0.931 . S
H298 C275 0.930 . S
H299 C277 0.929 . S
H300 C278 0.931 . S
H301 C280 0.930 . S
H302 C284 0.931 . S
H303 C282 0.931 . S
H304 C286 0.931 . S
H305 C287 0.929 . S
H306 C288 0.930 . S
H307 C291 0.930 1_556 S
H308 C292 0.931 . S
H309 C296 0.928 . S
H310 C295 0.929 . S
H311 C293 0.932 . S
C312 C314 1.422 . S
C312 C316 1.415 . S
C312 N318 1.369 . S
C313 C314 1.421 . S
C313 C315 1.417 1_556 S
C313 C325 1.422 1_556 S
C314 C312 1.422 . S
C314 C313 1.421 . S
C314 N324 1.359 . S
C315 C313 1.417 1_554 S
C315 C317 1.329 1_554 S
C315 H334 0.930 . S
C316 C312 1.415 . S
C316 C317 1.437 . S
C316 C320 1.413 . S
C317 C315 1.329 1_556 S
C317 C316 1.437 . S
C317 H339 0.929 . S
N318 C312 1.369 . S
N318 C319 1.338 1_545 S
N318 Gd323 2.622 1_545 S
C319 N318 1.338 1_565 S
C319 C321 1.378 1_565 S
C319 H331 0.929 . S
C320 C316 1.413 . S
C320 C321 1.348 . S
C320 H336 0.931 . S
C321 C319 1.378 1_545 S
C321 C320 1.348 . S
C321 H337 0.930 . S
Gd322 N342 2.622 . S
Gd322 N349 2.570 . S
Gd322 O356 2.353 1_655 S
Gd322 O357 2.468 . S
Gd322 O358 2.427 . S
Gd322 O360 2.388 . S
Gd322 O361 2.386 1_545 S
Gd322 O365 2.307 1_655 S
Gd322 C375 2.805 . S
Gd323 N318 2.622 1_565 S
Gd323 N324 2.570 1_565 S
Gd323 O355 2.386 1_565 S
Gd323 O359 2.305 1_465 S
Gd323 O362 2.353 . S
Gd323 O363 2.468 . S
Gd323 O364 2.427 . S
Gd323 O366 2.388 . S
Gd323 C387 2.805 . S
N324 C314 1.359 . S
N324 Gd323 2.570 1_545 S
N324 C326 1.343 . S
C325 C313 1.422 1_554 S
C325 C327 1.321 . S
C325 H333 0.931 . S
C326 N324 1.343 . S
C326 C327 1.390 1_556 S
C326 H328 0.931 . S
C327 C325 1.321 . S
C327 C326 1.390 1_554 S
C327 H329 0.930 . S
H328 C326 0.931 . S
H329 C327 0.930 . S
H330 C353 0.931 1_455 S
H331 C319 0.929 . S
H332 C354 0.930 1_455 S
H333 C325 0.931 . S
H334 C315 0.930 . S
H335 C344 0.929 . S
H336 C320 0.931 . S
H337 C321 0.930 . S
H338 C376 0.930 . S
H339 C317 0.929 . S
H340 C345 0.931 . S
H341 C346 0.930 . S
N342 Gd322 2.622 . S
N342 C343 1.358 1_545 S
N342 C344 1.338 . S
C343 N342 1.358 1_565 S
C343 C347 1.424 . S
C343 C350 1.425 . S
C344 H335 0.929 . S
C344 N342 1.338 . S
C344 C346 1.378 . S
C345 H340 0.931 . S
C345 C346 1.348 1_565 S
C345 C347 1.413 . S
C346 H341 0.930 . S
C346 C344 1.378 . S
C346 C345 1.348 1_545 S
C347 C343 1.424 . S
C347 C345 1.413 . S
C347 C377 1.437 . S
H348 C377 0.929 . S
N349 Gd322 2.570 . S
N349 C350 1.359 1_545 S
N349 C353 1.343 . S
C350 C343 1.425 . S
C350 N349 1.359 1_565 S
C350 C352 1.421 . S
C351 C352 1.422 . S
C351 C354 1.321 . S
C351 H378 0.931 . S
C352 C350 1.421 . S
C352 C351 1.422 . S
C352 C376 1.417 . S
C353 H330 0.931 1_655 S
C353 N349 1.343 . S
C353 C354 1.390 1_545 S
C354 H332 0.930 1_655 S
C354 C351 1.321 . S
C354 C353 1.390 1_565 S
O355 Gd323 2.386 1_545 S
O355 C367 1.265 . S
O356 Gd322 2.353 1_455 S
O356 C367 1.242 . S
O357 Gd322 2.468 . S
O357 C375 1.263 . S
O358 Gd322 2.427 . S
O358 C375 1.252 . S
O359 Gd323 2.305 1_645 S
O359 C368 1.263 . S
O360 Gd322 2.388 . S
O360 C368 1.252 . S
O361 Gd322 2.386 1_565 S
O361 C379 1.265 . S
O362 Gd323 2.353 . S
O362 C379 1.242 1_455 S
O363 Gd323 2.468 . S
O363 C387 1.263 . S
O364 Gd323 2.427 . S
O364 C387 1.252 . S
O365 Gd322 2.307 1_455 S
O365 C380 1.261 . S
O366 Gd323 2.388 . S
O366 C380 1.252 1_565 S
C367 O355 1.265 . S
C367 O356 1.242 . S
C368 O359 1.263 . S
C368 O360 1.252 . S
C369 C372 1.394 . S
C369 C374 1.370 . S
C369 C375 1.500 . S
C370 C373 1.383 . S
C370 C374 1.395 . S
C371 C372 1.396 . S
C371 C373 1.365 . S
C371 H388 0.929 . S
C372 C369 1.394 . S
C372 C371 1.396 . S
C372 H389 0.930 . S
C373 C370 1.383 . S
C373 C371 1.365 . S
C373 H390 0.931 . S
C374 C369 1.370 . S
C374 C370 1.395 . S
C374 H391 0.930 1_655 S
C375 Gd322 2.805 . S
C375 O357 1.263 . S
C375 O358 1.252 . S
C375 C369 1.500 . S
C376 H338 0.930 . S
C376 C352 1.417 . S
C376 C377 1.329 . S
C377 C347 1.437 . S
C377 H348 0.929 . S
C377 C376 1.329 . S
H378 C351 0.931 . S
C379 O361 1.265 . S
C379 O362 1.242 1_655 S
C380 O365 1.261 . S
C380 O366 1.252 1_545 S
C381 C384 1.394 . S
C381 C386 1.370 . S
C381 C387 1.500 . S
C382 C385 1.383 . S
C382 C386 1.395 . S
C383 C384 1.396 . S
C383 C385 1.365 . S
C383 H392 0.929 . S
C384 C381 1.394 . S
C384 C383 1.396 . S
C384 H393 0.930 . S
C385 C382 1.383 . S
C385 C383 1.365 . S
C385 H394 0.931 . S
C386 C381 1.370 . S
C386 C382 1.395 . S
C386 H395 0.930 . S
C387 Gd323 2.805 . S
C387 O363 1.263 . S
C387 O364 1.252 . S
C387 C381 1.500 . S
H388 C371 0.929 . S
H389 C372 0.930 . S
H390 C373 0.931 . S
H391 C374 0.930 1_455 S
H392 C383 0.929 . S
H393 C384 0.930 . S
H394 C385 0.931 . S
H395 C386 0.930 . S
C396 C398 1.422 . S
C396 C400 1.415 . S
C396 N402 1.369 . S
C397 C398 1.421 . S
C397 C399 1.417 . S
C397 C409 1.422 . S
C398 C396 1.422 . S
C398 C397 1.421 . S
C398 N408 1.359 . S
C399 C397 1.417 . S
C399 C401 1.329 . S
C399 H418 0.930 . S
C400 C396 1.415 . S
C400 C401 1.437 . S
C400 C404 1.413 . S
C401 C399 1.329 . S
C401 C400 1.437 . S
C401 H423 0.929 . S
N402 C396 1.369 . S
N402 C403 1.338 . S
N402 Gd407 2.622 . S
C403 N402 1.338 . S
C403 C405 1.378 . S
C403 H415 0.929 . S
C404 C400 1.413 . S
C404 C405 1.348 . S
C404 H420 0.931 . S
C405 C403 1.378 . S
C405 C404 1.348 . S
C405 H421 0.930 . S
Gd406 N426 2.622 . S
Gd406 N433 2.570 . S
Gd406 O440 2.353 1_545 S
Gd406 O441 2.468 . S
Gd406 O442 2.427 . S
Gd406 O444 2.388 . S
Gd406 O445 2.386 . S
Gd406 O449 2.307 . S
Gd406 C459 2.805 . S
Gd407 N402 2.622 . S
Gd407 N408 2.570 . S
Gd407 O439 2.386 . S
Gd407 O443 2.307 1_565 S
Gd407 O446 2.353 1_565 S
Gd407 O447 2.468 . S
Gd407 O448 2.427 . S
Gd407 O450 2.388 . S
Gd407 C471 2.805 . S
N408 C398 1.359 . S
N408 Gd407 2.570 . S
N408 C410 1.343 . S
C409 C397 1.422 . S
C409 C411 1.321 . S
C409 H417 0.931 . S
C410 N408 1.343 . S
C410 C411 1.390 . S
C410 H412 0.931 . S
C411 C409 1.321 . S
C411 C410 1.390 . S
C411 H413 0.930 . S
H412 C410 0.931 . S
H413 C411 0.930 . S
H414 C437 0.931 . S
H415 C403 0.929 . S
H416 C438 0.930 . S
H417 C409 0.931 . S
H418 C399 0.930 . S
H419 C428 0.929 . S
H420 C404 0.931 . S
H421 C405 0.930 . S
H422 C460 0.930 . S
H423 C401 0.929 . S
H424 C429 0.931 . S
H425 C430 0.930 . S
N426 Gd406 2.622 . S
N426 C427 1.369 . S
N426 C428 1.338 . S
C427 N426 1.369 . S
C427 C431 1.415 . S
C427 C434 1.422 . S
C428 H419 0.929 . S
C428 N426 1.338 . S
C428 C430 1.378 . S
C429 H424 0.931 . S
C429 C430 1.348 . S
C429 C431 1.413 . S
C430 H425 0.930 . S
C430 C428 1.378 . S
C430 C429 1.348 . S
C431 C427 1.415 . S
C431 C429 1.413 . S
C431 C461 1.437 . S
H432 C461 0.929 . S
N433 Gd406 2.570 . S
N433 C434 1.359 . S
N433 C437 1.343 . S
C434 C427 1.422 . S
C434 N433 1.359 . S
C434 C436 1.421 . S
C435 C436 1.422 . S
C435 C438 1.321 . S
C435 H462 0.931 . S
C436 C434 1.421 . S
C436 C435 1.422 . S
C436 C460 1.417 . S
C437 H414 0.931 . S
C437 N433 1.343 . S
C437 C438 1.390 . S
C438 H416 0.930 . S
C438 C435 1.321 . S
C438 C437 1.390 . S
O439 Gd407 2.386 . S
O439 C451 1.265 . S
O440 Gd406 2.353 1_565 S
O440 C451 1.242 . S
O441 Gd406 2.468 . S
O441 C459 1.263 . S
O442 Gd406 2.427 . S
O442 C459 1.252 . S
O443 Gd407 2.307 1_545 S
O443 C452 1.261 . S
O444 Gd406 2.388 . S
O444 C452 1.252 . S
O445 Gd406 2.386 . S
O445 C463 1.265 . S
O446 Gd407 2.353 1_545 S
O446 C463 1.242 . S
O447 Gd407 2.468 . S
O447 C471 1.263 . S
O448 Gd407 2.427 . S
O448 C471 1.252 . S
O449 Gd406 2.307 . S
O449 C464 1.261 1_545 S
O450 Gd407 2.388 . S
O450 C464 1.252 . S
C451 O439 1.265 . S
C451 O440 1.242 . S
C452 O443 1.261 . S
C452 O444 1.252 . S
C453 C456 1.394 1_556 S
C453 C458 1.370 . S
C453 C459 1.500 . S
C454 C457 1.383 1_556 S
C454 C458 1.395 . S
C455 C456 1.396 . S
C455 C457 1.365 . S
C455 H472 0.929 . S
C456 C453 1.394 1_554 S
C456 C455 1.396 . S
C456 H473 0.930 . S
C457 C454 1.383 1_554 S
C457 C455 1.365 . S
C457 H474 0.931 . S
C458 C453 1.370 . S
C458 C454 1.395 . S
C458 H475 0.930 . S
C459 Gd406 2.805 . S
C459 O441 1.263 . S
C459 O442 1.252 . S
C459 C453 1.500 . S
C460 H422 0.930 . S
C460 C436 1.417 . S
C460 C461 1.329 . S
C461 C431 1.437 . S
C461 H432 0.929 . S
C461 C460 1.329 . S
H462 C435 0.931 . S
C463 O445 1.265 . S
C463 O446 1.242 . S
C464 O449 1.261 1_565 S
C464 O450 1.252 . S
C465 C468 1.394 . S
C465 C470 1.370 . S
C465 C471 1.500 . S
C466 C469 1.383 . S
C466 C470 1.395 . S
C467 C468 1.396 . S
C467 C469 1.365 . S
C467 H476 0.929 . S
C468 C465 1.394 . S
C468 C467 1.396 . S
C468 H477 0.930 . S
C469 C466 1.383 . S
C469 C467 1.365 . S
C469 H478 0.931 . S
C470 C465 1.370 . S
C470 C466 1.395 . S
C470 H479 0.930 . S
C471 Gd407 2.805 . S
C471 O447 1.263 . S
C471 O448 1.252 . S
C471 C465 1.500 . S
H472 C455 0.929 . S
H473 C456 0.930 . S
H474 C457 0.931 . S
H475 C458 0.930 . S
H476 C467 0.929 . S
H477 C468 0.930 . S
H478 C469 0.931 . S
H479 C470 0.930 . S
C480 C482 1.422 . S
C480 C484 1.415 . S
C480 N486 1.369 . S
C481 C482 1.421 . S
C481 C483 1.417 1_556 S
C481 C493 1.422 1_556 S
C482 C480 1.422 . S
C482 C481 1.421 . S
C482 N492 1.359 . S
C483 C481 1.417 1_554 S
C483 C485 1.329 1_554 S
C483 H502 0.930 . S
C484 C480 1.415 . S
C484 C485 1.437 . S
C484 C488 1.413 . S
C485 C483 1.329 1_556 S
C485 C484 1.437 . S
C485 H507 0.929 . S
N486 C480 1.369 . S
N486 C487 1.338 . S
N486 Gd491 2.622 . S
C487 N486 1.338 . S
C487 C489 1.378 . S
C487 H499 0.929 . S
C488 C484 1.413 . S
C488 C489 1.348 . S
C488 H504 0.931 . S
C489 C487 1.378 . S
C489 C488 1.348 . S
C489 H505 0.930 . S
Gd490 N510 2.622 . S
Gd490 N517 2.570 . S
Gd490 O524 2.353 . S
Gd490 O525 2.468 . S
Gd490 O526 2.427 . S
Gd490 O528 2.388 . S
Gd490 O529 2.386 . S
Gd490 O533 2.307 . S
Gd490 C543 2.805 . S
Gd491 N486 2.622 . S
Gd491 N492 2.570 . S
Gd491 O523 2.386 . S
Gd491 O527 2.307 . S
Gd491 O530 2.353 . S
Gd491 O531 2.468 . S
Gd491 O532 2.427 . S
Gd491 O534 2.388 . S
Gd491 C555 2.805 . S
N492 C482 1.359 . S
N492 Gd491 2.570 . S
N492 C494 1.343 . S
C493 C481 1.422 1_554 S
C493 C495 1.321 . S
C493 H501 0.931 . S
C494 N492 1.343 . S
C494 C495 1.390 1_556 S
C494 H496 0.931 . S
C495 C493 1.321 . S
C495 C494 1.390 1_554 S
C495 H497 0.930 . S
H496 C494 0.931 . S
H497 C495 0.930 . S
H498 C521 0.931 . S
H499 C487 0.929 . S
H500 C522 0.930 . S
H501 C493 0.931 . S
H502 C483 0.930 . S
H503 C512 0.929 . S
H504 C488 0.931 . S
H505 C489 0.930 . S
H506 C544 0.930 . S
H507 C485 0.929 . S
H508 C513 0.931 . S
H509 C514 0.930 . S
N510 Gd490 2.622 . S
N510 C511 1.369 . S
N510 C512 1.338 . S
C511 N510 1.369 . S
C511 C515 1.415 . S
C511 C518 1.422 . S
C512 H503 0.929 . S
C512 N510 1.338 . S
C512 C514 1.378 . S
C513 H508 0.931 . S
C513 C514 1.348 . S
C513 C515 1.413 . S
C514 H509 0.930 . S
C514 C512 1.378 . S
C514 C513 1.348 . S
C515 C511 1.415 . S
C515 C513 1.413 . S
C515 C545 1.437 . S
H516 C545 0.929 . S
N517 Gd490 2.570 . S
N517 C518 1.359 . S
N517 C521 1.343 . S
C518 C511 1.422 . S
C518 N517 1.359 . S
C518 C520 1.421 . S
C519 C520 1.422 . S
C519 C522 1.321 . S
C519 H546 0.931 . S
C520 C518 1.421 . S
C520 C519 1.422 . S
C520 C544 1.417 . S
C521 H498 0.931 . S
C521 N517 1.343 . S
C521 C522 1.390 . S
C522 H500 0.930 . S
C522 C519 1.321 . S
C522 C521 1.390 . S
O523 Gd491 2.386 . S
O523 C535 1.265 . S
O524 Gd490 2.353 . S
O524 C535 1.242 . S
O525 Gd490 2.468 . S
O525 C543 1.263 . S
O526 Gd490 2.427 . S
O526 C543 1.252 . S
O527 Gd491 2.307 . S
O527 C536 1.261 . S
O528 Gd490 2.388 . S
O528 C536 1.252 . S
O529 Gd490 2.386 . S
O529 C547 1.265 . S
O530 Gd491 2.353 . S
O530 C547 1.242 . S
O531 Gd491 2.468 . S
O531 C555 1.263 . S
O532 Gd491 2.427 . S
O532 C555 1.252 . S
O533 Gd490 2.307 . S
O533 C548 1.261 . S
O534 Gd491 2.388 . S
O534 C548 1.252 . S
C535 O523 1.265 . S
C535 O524 1.242 . S
C536 O527 1.261 . S
C536 O528 1.252 . S
C537 C540 1.394 . S
C537 C542 1.370 . S
C537 C543 1.500 . S
C538 C541 1.383 . S
C538 C542 1.395 . S
C539 C540 1.396 . S
C539 C541 1.365 . S
C539 H556 0.929 . S
C540 C537 1.394 . S
C540 C539 1.396 . S
C540 H557 0.930 . S
C541 C538 1.383 . S
C541 C539 1.365 . S
C541 H558 0.931 . S
C542 C537 1.370 . S
C542 C538 1.395 . S
C542 H559 0.930 . S
C543 Gd490 2.805 . S
C543 O525 1.263 . S
C543 O526 1.252 . S
C543 C537 1.500 . S
C544 H506 0.930 . S
C544 C520 1.417 . S
C544 C545 1.329 . S
C545 C515 1.437 . S
C545 H516 0.929 . S
C545 C544 1.329 . S
H546 C519 0.931 . S
C547 O529 1.265 . S
C547 O530 1.242 . S
C548 O533 1.261 . S
C548 O534 1.252 . S
C549 C552 1.394 . S
C549 C554 1.370 . S
C549 C555 1.500 . S
C550 C553 1.383 . S
C550 C554 1.395 . S
C551 C552 1.396 . S
C551 C553 1.365 . S
C551 H560 0.929 . S
C552 C549 1.394 . S
C552 C551 1.396 . S
C552 H561 0.930 . S
C553 C550 1.383 . S
C553 C551 1.365 . S
C553 H562 0.931 . S
C554 C549 1.370 . S
C554 C550 1.395 . S
C554 H563 0.930 . S
C555 Gd491 2.805 . S
C555 O531 1.263 . S
C555 O532 1.252 . S
C555 C549 1.500 . S
H556 C539 0.929 . S
H557 C540 0.930 . S
H558 C541 0.931 . S
H559 C542 0.930 . S
H560 C551 0.929 . S
H561 C552 0.930 . S
H562 C553 0.931 . S
H563 C554 0.930 . S
C564 C566 1.422 . S
C564 C568 1.415 . S
C564 N570 1.369 1_455 S
C565 C566 1.421 . S
C565 C567 1.417 1_556 S
C565 C577 1.422 1_556 S
C566 C564 1.422 . S
C566 C565 1.421 . S
C566 N576 1.359 . S
C567 C565 1.417 1_554 S
C567 C569 1.329 1_554 S
C567 H586 0.930 . S
C568 C564 1.415 . S
C568 C569 1.437 . S
C568 C572 1.413 . S
C569 C567 1.329 1_556 S
C569 C568 1.437 . S
C569 H591 0.929 . S
N570 C564 1.369 1_655 S
N570 C571 1.338 . S
N570 Gd575 2.622 . S
C571 N570 1.338 . S
C571 C573 1.378 1_655 S
C571 H583 0.929 . S
C572 C568 1.413 . S
C572 C573 1.348 . S
C572 H588 0.931 . S
C573 C571 1.378 1_455 S
C573 C572 1.348 . S
C573 H589 0.930 . S
Gd574 N594 2.622 . S
Gd574 N601 2.570 . S
Gd574 O608 2.353 . S
Gd574 O609 2.468 . S
Gd574 O610 2.427 . S
Gd574 O612 2.388 . S
Gd574 O613 2.386 1_455 S
Gd574 O617 2.307 . S
Gd574 C627 2.805 . S
Gd575 N570 2.622 . S
Gd575 N576 2.570 1_655 S
Gd575 O607 2.386 1_655 S
Gd575 O611 2.307 . S
Gd575 O614 2.353 . S
Gd575 O615 2.468 . S
Gd575 O616 2.427 . S
Gd575 O618 2.388 . S
Gd575 C639 2.805 . S
N576 C566 1.359 . S
N576 Gd575 2.570 1_455 S
N576 C578 1.343 . S
C577 C565 1.422 1_554 S
C577 C579 1.321 . S
C577 H585 0.931 . S
C578 N576 1.343 . S
C578 C579 1.390 1_556 S
C578 H580 0.929 1_455 S
C579 C577 1.321 . S
C579 C578 1.390 1_554 S
C579 H581 0.930 . S
H580 C578 0.929 1_655 S
H581 C579 0.930 . S
H582 C605 0.931 . S
H583 C571 0.929 . S
H584 C606 0.930 . S
H585 C577 0.931 . S
H586 C567 0.930 . S
H587 C596 0.929 . S
H588 C572 0.931 . S
H589 C573 0.930 . S
H590 C628 0.930 . S
H591 C569 0.929 . S
H592 C597 0.931 . S
H593 C598 0.930 . S
N594 Gd574 2.622 . S
N594 C595 1.360 1_455 S
N594 C596 1.338 . S
C595 N594 1.360 1_655 S
C595 C599 1.423 . S
C595 C602 1.425 . S
C596 H587 0.929 . S
C596 N594 1.338 . S
C596 C598 1.378 . S
C597 H592 0.931 . S
C597 C598 1.348 1_655 S
C597 C599 1.413 . S
C598 H593 0.930 . S
C598 C596 1.378 . S
C598 C597 1.348 1_455 S
C599 C595 1.423 . S
C599 C597 1.413 . S
C599 C629 1.437 . S
H600 C629 0.929 . S
N601 Gd574 2.570 . S
N601 C602 1.359 1_455 S
N601 C605 1.343 . S
C602 C595 1.425 . S
C602 N601 1.359 1_655 S
C602 C604 1.421 . S
C603 C604 1.422 . S
C603 C606 1.321 . S
C603 H630 0.931 . S
C604 C602 1.421 . S
C604 C603 1.422 . S
C604 C628 1.417 . S
C605 H582 0.931 . S
C605 N601 1.343 . S
C605 C606 1.390 1_455 S
C606 H584 0.930 . S
C606 C603 1.321 . S
C606 C605 1.390 1_655 S
O607 Gd575 2.386 1_455 S
O607 C619 1.265 . S
O608 Gd574 2.353 . S
O608 C619 1.242 . S
O609 Gd574 2.468 . S
O609 C627 1.263 . S
O610 Gd574 2.427 . S
O610 C627 1.252 . S
O611 Gd575 2.307 . S
O611 C620 1.261 1_655 S
O612 Gd574 2.388 . S
O612 C620 1.252 . S
O613 Gd574 2.386 1_655 S
O613 C631 1.265 . S
O614 Gd575 2.353 . S
O614 C631 1.242 . S
O615 Gd575 2.468 . S
O615 C639 1.263 . S
O616 Gd575 2.427 . S
O616 C639 1.252 . S
O617 Gd574 2.307 . S
O617 C632 1.261 . S
O618 Gd575 2.388 . S
O618 C632 1.252 1_655 S
C619 O607 1.265 . S
C619 O608 1.242 . S
C620 O611 1.261 1_455 S
C620 O612 1.252 . S
C621 C624 1.394 . S
C621 C626 1.370 . S
C621 C627 1.500 . S
C622 C625 1.383 . S
C622 C626 1.395 . S
C623 C624 1.396 . S
C623 C625 1.365 . S
C623 H640 0.929 . S
C624 C621 1.394 . S
C624 C623 1.396 . S
C624 H641 0.930 . S
C625 C622 1.383 . S
C625 C623 1.365 . S
C625 H642 0.931 . S
C626 C621 1.370 . S
C626 C622 1.395 . S
C626 H643 0.930 . S
C627 Gd574 2.805 . S
C627 O609 1.263 . S
C627 O610 1.252 . S
C627 C621 1.500 . S
C628 H590 0.930 . S
C628 C604 1.417 . S
C628 C629 1.329 . S
C629 C599 1.437 . S
C629 H600 0.929 . S
C629 C628 1.329 . S
H630 C603 0.931 . S
C631 O613 1.265 . S
C631 O614 1.242 . S
C632 O617 1.261 . S
C632 O618 1.252 1_455 S
C633 C636 1.394 . S
C633 C638 1.370 . S
C633 C639 1.500 . S
C634 C637 1.383 . S
C634 C638 1.395 . S
C635 C636 1.396 . S
C635 C637 1.365 . S
C635 H644 0.929 . S
C636 C633 1.394 . S
C636 C635 1.396 . S
C636 H645 0.930 . S
C637 C634 1.383 . S
C637 C635 1.365 . S
C637 H646 0.931 . S
C638 C633 1.370 . S
C638 C634 1.395 . S
C638 H647 0.930 . S
C639 Gd575 2.805 . S
C639 O615 1.263 . S
C639 O616 1.252 . S
C639 C633 1.500 . S
H640 C623 0.929 . S
H641 C624 0.930 . S
H642 C625 0.931 . S
H643 C626 0.930 . S
H644 C635 0.929 . S
H645 C636 0.930 . S
H646 C637 0.931 . S
H647 C638 0.930 . S
C648 C649 1.387 . S
C648 H652 0.950 . S
C648 C657 1.390 . S
C649 C648 1.387 . S
C649 C651 1.387 . S
H650 C657 0.950 . S
C651 C649 1.387 . S
C651 C653 1.390 . S
C651 H655 0.950 . S
H652 C648 0.950 . S
C653 C651 1.390 . S
C653 C654 1.387 . S
C653 H656 0.950 . S
C654 C653 1.387 . S
C654 C657 1.387 . S
H655 C651 0.950 . S
H656 C653 0.950 . S
C657 C648 1.390 . S
C657 H650 0.950 . S
C657 C654 1.387 . S
C658 C659 1.387 . S
C658 H662 0.950 . S
C658 C667 1.390 . S
C659 C658 1.387 . S
C659 C661 1.387 . S
H660 C667 0.950 . S
C661 C659 1.387 . S
C661 C663 1.390 . S
C661 H665 0.950 . S
H662 C658 0.950 . S
C663 C661 1.390 . S
C663 C664 1.387 . S
C663 H666 0.950 . S
C664 C663 1.387 . S
C664 C667 1.387 . S
H665 C661 0.950 . S
H666 C663 0.950 . S
C667 C658 1.390 . S
C667 H660 0.950 . S
C667 C664 1.387 . S
C668 C669 1.387 . S
C668 H672 0.950 . S
C668 C677 1.390 . S
C669 C668 1.387 . S
C669 C671 1.387 . S
H670 C677 0.950 . S
C671 C669 1.387 . S
C671 C673 1.390 . S
C671 H675 0.950 . S
H672 C668 0.950 . S
C673 C671 1.390 . S
C673 C674 1.387 . S
C673 H676 0.950 . S
C674 C673 1.387 . S
C674 C677 1.387 . S
H675 C671 0.950 . S
H676 C673 0.950 . S
C677 C668 1.390 . S
C677 H670 0.950 . S
C677 C674 1.387 . S
C678 C679 1.387 . S
C678 H682 0.950 . S
C678 C687 1.390 . S
C679 C678 1.387 . S
C679 C681 1.387 . S
H680 C687 0.950 . S
C681 C679 1.387 . S
C681 C683 1.390 . S
C681 H685 0.950 . S
H682 C678 0.950 . S
C683 C681 1.390 . S
C683 C684 1.387 . S
C683 H686 0.950 . S
C684 C683 1.387 . S
C684 C687 1.387 . S
H685 C681 0.950 . S
H686 C683 0.950 . S
C687 C678 1.390 . S
C687 H680 0.950 . S
C687 C684 1.387 . S
C688 C689 1.387 . S
C688 H692 0.950 . S
C688 C697 1.390 1_554 S
C689 C688 1.387 . S
C689 C691 1.387 1_565 S
H690 C697 0.950 . S
C691 C689 1.387 1_545 S
C691 C693 1.390 1_554 S
C691 H695 0.950 . S
H692 C688 0.950 . S
C693 C691 1.390 1_556 S
C693 C694 1.387 1_545 S
C693 H696 0.950 . S
C694 C693 1.387 1_565 S
C694 C697 1.387 . S
H695 C691 0.950 . S
H696 C693 0.950 . S
C697 C688 1.390 1_556 S
C697 H690 0.950 . S
C697 C694 1.387 . S
C698 C699 1.387 . S
C698 H702 0.950 . S
C698 C707 1.390 1_554 S
C699 C698 1.387 . S
C699 C701 1.387 . S
H700 C707 0.950 . S
C701 C699 1.387 . S
C701 C703 1.390 1_554 S
C701 H705 0.950 . S
H702 C698 0.950 . S
C703 C701 1.390 1_556 S
C703 C704 1.387 . S
C703 H706 0.950 . S
C704 C703 1.387 . S
C704 C707 1.387 . S
H705 C701 0.950 . S
H706 C703 0.950 . S
C707 C698 1.390 1_556 S
C707 H700 0.950 . S
C707 C704 1.387 . S
C708 C709 1.387 . S
C708 H712 0.950 . S
C708 C717 1.390 1_554 S
C709 C708 1.387 . S
C709 C711 1.387 . S
H710 C717 0.950 . S
C711 C709 1.387 . S
C711 C713 1.390 1_554 S
C711 H715 0.950 . S
H712 C708 0.950 . S
C713 C711 1.390 1_556 S
C713 C714 1.387 . S
C713 H716 0.950 . S
C714 C713 1.387 . S
C714 C717 1.387 . S
H715 C711 0.950 . S
H716 C713 0.950 . S
C717 C708 1.390 1_556 S
C717 H710 0.950 . S
C717 C714 1.387 . S
C718 C719 1.387 . S
C718 H722 0.950 . S
C718 C727 1.390 1_554 S
C719 C718 1.387 . S
C719 C721 1.387 . S
H720 C727 0.950 . S
C721 C719 1.387 . S
C721 C723 1.393 1_554 S
C721 H725 0.950 1_655 S
H722 C718 0.950 . S
C723 C721 1.393 1_556 S
C723 C724 1.394 . S
C723 H726 0.941 1_655 S
C724 C723 1.394 . S
C724 C727 1.387 . S
H725 C721 0.950 1_455 S
H726 C723 0.941 1_455 S
C727 C718 1.390 1_556 S
C727 H720 0.950 . S
C727 C724 1.387 . S
C728 C729 1.387 . S
C728 H732 0.950 . S
C728 C737 1.390 1_455 S
C729 C728 1.387 . S
C729 C731 1.387 . S
H730 C737 0.950 . S
C731 C729 1.387 . S
C731 C733 1.390 . S
C731 H735 0.950 . S
H732 C728 0.950 . S
C733 C731 1.390 . S
C733 C734 1.387 1_455 S
C733 H736 0.950 . S
C734 C733 1.387 1_655 S
C734 C737 1.387 . S
H735 C731 0.950 . S
H736 C733 0.950 . S
C737 C728 1.390 1_655 S
C737 H730 0.950 . S
C737 C734 1.387 . S
C738 C739 1.387 . S
C738 H742 0.950 . S
C738 C747 1.390 1_545 S
C739 C738 1.387 . S
C739 C741 1.387 . S
H740 C747 0.950 . S
C741 C739 1.387 . S
C741 C743 1.390 . S
C741 H745 0.950 . S
H742 C738 0.950 . S
C743 C741 1.390 . S
C743 C744 1.387 1_545 S
C743 H746 0.950 . S
C744 C743 1.387 1_565 S
C744 C747 1.387 . S
H745 C741 0.950 . S
H746 C743 0.950 . S
C747 C738 1.390 1_565 S
C747 H740 0.950 . S
C747 C744 1.387 . S
C748 C749 1.387 . S
C748 H752 0.950 . S
C748 C757 1.390 . S
C749 C748 1.387 . S
C749 C751 1.387 . S
H750 C757 0.950 . S
C751 C749 1.387 . S
C751 C753 1.390 . S
C751 H755 0.950 . S
H752 C748 0.950 . S
C753 C751 1.390 . S
C753 C754 1.387 . S
C753 H756 0.950 . S
C754 C753 1.387 . S
C754 C757 1.387 . S
H755 C751 0.950 . S
H756 C753 0.950 . S
C757 C748 1.390 . S
C757 H750 0.950 . S
C757 C754 1.387 . S
C758 C759 1.387 . S
C758 H762 0.950 . S
C758 C767 1.390 . S
C759 C758 1.387 . S
C759 C761 1.387 . S
H760 C767 0.950 . S
C761 C759 1.387 . S
C761 C763 1.390 . S
C761 H765 0.950 . S
H762 C758 0.950 . S
C763 C761 1.390 . S
C763 C764 1.387 . S
C763 H766 0.950 . S
C764 C763 1.387 . S
C764 C767 1.387 . S
H765 C761 0.950 . S
H766 C763 0.950 . S
C767 C758 1.390 . S
C767 H760 0.950 . S
C767 C764 1.387 . S
C768 C769 1.387 . S
C768 H772 0.950 . S
C768 C777 1.390 1_655 S
C769 C768 1.387 . S
C769 C771 1.387 1_554 S
H770 C777 0.950 . S
C771 C769 1.387 1_556 S
C771 C773 1.390 . S
C771 H775 0.950 . S
H772 C768 0.950 . S
C773 C771 1.390 . S
C773 C774 1.387 1_655 S
C773 H776 0.950 1_655 S
C774 C773 1.387 1_455 S
C774 C777 1.387 1_556 S
H775 C771 0.950 . S
H776 C773 0.950 1_455 S
C777 C768 1.390 1_455 S
C777 H770 0.950 . S
C777 C774 1.387 1_554 S
C778 C779 1.387 . S
C778 H782 0.950 . S
C778 C787 1.390 1_565 S
C779 C778 1.387 . S
C779 C781 1.387 1_554 S
H780 C787 0.950 . S
C781 C779 1.387 1_556 S
C781 C783 1.390 . S
C781 H785 0.950 . S
H782 C778 0.950 . S
C783 C781 1.390 . S
C783 C784 1.387 1_565 S
C783 H786 0.950 . S
C784 C783 1.387 1_545 S
C784 C787 1.387 1_556 S
H785 C781 0.950 . S
H786 C783 0.950 . S
C787 C778 1.390 1_545 S
C787 H780 0.950 . S
C787 C784 1.387 1_554 S
C788 C789 1.387 . S
C788 H792 0.950 . S
C788 C797 1.390 . S
C789 C788 1.387 . S
C789 C791 1.387 1_554 S
H790 C797 0.950 . S
C791 C789 1.387 1_556 S
C791 C793 1.390 . S
C791 H795 0.950 . S
H792 C788 0.950 . S
C793 C791 1.390 . S
C793 C794 1.387 . S
C793 H796 0.950 . S
C794 C793 1.387 . S
C794 C797 1.387 1_556 S
H795 C791 0.950 . S
H796 C793 0.950 . S
C797 C788 1.390 . S
C797 H790 0.950 . S
C797 C794 1.387 1_554 S
C798 C799 1.387 1_556 S
C798 H802 0.950 . S
C798 C807 1.390 . S
C799 C798 1.387 1_554 S
C799 C801 1.387 . S
H800 C807 0.950 . S
C801 C799 1.387 . S
C801 C803 1.390 . S
C801 H805 0.950 . S
H802 C798 0.950 . S
C803 C801 1.390 . S
C803 C804 1.387 1_554 S
C803 H806 0.950 . S
C804 C803 1.387 1_556 S
C804 C807 1.387 . S
H805 C801 0.950 . S
H806 C803 0.950 . S
C807 C798 1.390 . S
C807 H800 0.950 . S
C807 C804 1.387 . S
C808 C809 1.387 . S
C808 H812 0.950 . S
C808 C817 1.390 . S
C809 C808 1.387 . S
C809 C811 1.387 . S
H810 C817 0.950 . S
C811 C809 1.387 . S
C811 C813 1.390 . S
C811 H815 0.950 . S
H812 C808 0.950 . S
C813 C811 1.390 . S
C813 C814 1.387 . S
C813 H816 0.950 1_455 S
C814 C813 1.387 . S
C814 C817 1.387 . S
H815 C811 0.950 . S
H816 C813 0.950 1_655 S
C817 C808 1.390 . S
C817 H810 0.950 . S
C817 C814 1.387 . S
C818 C819 1.387 . S
C818 H822 0.950 . S
C818 C827 1.390 . S
C819 C818 1.387 . S
C819 C821 1.387 . S
H820 C827 0.950 . S
C821 C819 1.387 . S
C821 C823 1.390 . S
C821 H825 0.950 . S
H822 C818 0.950 . S
C823 C821 1.390 . S
C823 C824 1.387 . S
C823 H826 0.950 . S
C824 C823 1.387 . S
C824 C827 1.387 . S
H825 C821 0.950 . S
H826 C823 0.950 . S
C827 C818 1.390 . S
C827 H820 0.950 . S
C827 C824 1.387 . S
C828 C829 1.387 . S
C828 H832 0.950 . S
C828 C837 1.390 . S
C829 C828 1.387 . S
C829 C831 1.387 . S
H830 C837 0.950 . S
C831 C829 1.387 . S
C831 C833 1.390 . S
C831 H835 0.950 . S
H832 C828 0.950 . S
C833 C831 1.390 . S
C833 C834 1.387 . S
C833 H836 0.950 . S
C834 C833 1.387 . S
C834 C837 1.387 . S
H835 C831 0.950 . S
H836 C833 0.950 . S
C837 C828 1.390 . S
C837 H830 0.950 . S
C837 C834 1.387 . S
C838 C839 1.387 . S
C838 H842 0.950 . S
C838 C847 1.390 . S
C839 C838 1.387 . S
C839 C841 1.387 . S
H840 C847 0.950 . S
C841 C839 1.387 . S
C841 C843 1.390 . S
C841 H845 0.950 . S
H842 C838 0.950 . S
C843 C841 1.390 . S
C843 C844 1.387 . S
C843 H846 0.950 . S
C844 C843 1.387 . S
C844 C847 1.387 . S
H845 C841 0.950 . S
H846 C843 0.950 . S
C847 C838 1.390 . S
C847 H840 0.950 . S
C847 C844 1.387 . S
C848 C849 1.402 . S
C848 H852 0.937 1_655 S
C848 C857 1.389 1_655 S
C849 C848 1.402 . S
C849 C851 1.387 . S
H850 C857 0.950 . S
C851 C849 1.387 . S
C851 C853 1.390 . S
C851 H855 0.950 . S
H852 C848 0.937 1_455 S
C853 C851 1.390 . S
C853 C854 1.387 . S
C853 H856 0.950 . S
C854 C853 1.387 . S
C854 C857 1.387 1_655 S
H855 C851 0.950 . S
H856 C853 0.950 . S
C857 C848 1.389 1_455 S
C857 H850 0.950 . S
C857 C854 1.387 1_455 S
C858 C859 1.387 1_545 S
C858 H862 0.950 . S
C858 C867 1.390 . S
C859 C858 1.387 1_565 S
C859 C861 1.387 . S
H860 C867 0.950 . S
C861 C859 1.387 . S
C861 C863 1.390 . S
C861 H865 0.950 . S
H862 C858 0.950 . S
C863 C861 1.390 . S
C863 C864 1.387 . S
C863 H866 0.950 . S
C864 C863 1.387 . S
C864 C867 1.387 1_565 S
H865 C861 0.950 . S
H866 C863 0.950 . S
C867 C858 1.390 . S
C867 H860 0.950 . S
C867 C864 1.387 1_545 S
C868 C869 1.387 . S
C868 H872 0.950 . S
C868 C877 1.390 . S
C869 C868 1.387 . S
C869 C871 1.387 . S
H870 C877 0.950 . S
C871 C869 1.387 . S
C871 C873 1.390 . S
C871 H875 0.950 . S
H872 C868 0.950 . S
C873 C871 1.390 . S
C873 C874 1.387 . S
C873 H876 0.950 . S
C874 C873 1.387 . S
C874 C877 1.387 . S
H875 C871 0.950 . S
H876 C873 0.950 . S
C877 C868 1.390 . S
C877 H870 0.950 . S
C877 C874 1.387 . S
C878 C879 1.387 . S
C878 H882 0.950 . S
C878 C887 1.390 . S
C879 C878 1.387 . S
C879 C881 1.387 . S
H880 C887 0.950 . S
C881 C879 1.387 . S
C881 C883 1.390 . S
C881 H885 0.950 . S
H882 C878 0.950 . S
C883 C881 1.390 . S
C883 C884 1.387 . S
C883 H886 0.950 . S
C884 C883 1.387 . S
C884 C887 1.387 . S
H885 C881 0.950 . S
H886 C883 0.950 . S
C887 C878 1.390 . S
C887 H880 0.950 . S
C887 C884 1.387 . S
C649 C255 2.592 . S
C654 C380 2.847 . S
C664 C463 2.857 . S
C659 C294 2.587 . S
C674 C548 2.853 . S
C669 C177 2.599 . S
C684 C632 2.831 . S
C679 C216 2.580 . S
C694 C368 2.846 1_565 S
C689 C99 2.601 . S
C699 C138 2.578 . S
C704 C451 2.857 . S
C709 C21 2.603 . S
C714 C536 2.852 . S
C719 C60 2.589 . S
C724 C620 2.834 1_655 S
C734 C370 0.777 . S
C729 C196 0.773 . S
C744 C466 0.765 . S
C739 C235 0.766 . S
C754 C538 0.795 . S
C749 C289 0.778 . S
C759 C157 0.767 . S
C764 C622 0.769 . S
C769 C40 0.772 . S
C774 C382 0.774 . S
C784 C454 0.772 . S
C779 C79 0.767 . S
C794 C550 0.794 . S
C789 C133 0.786 . S
C799 C1 0.762 . S
C804 C634 0.771 . S
C809 C211 2.907 . S
C814 C367 3.313 . S
C819 C250 2.903 . S
C824 C452 3.411 . S
C834 C535 3.337 . S
C829 C274 2.935 . S
C844 C619 3.331 . S
C839 C172 2.923 . S
C849 C55 2.906 . S
C854 C379 3.313 . S
C864 C464 3.411 . S
C859 C94 2.902 . S
C874 C547 3.336 . S
C869 C118 2.931 . S
C879 C16 2.923 . S
C884 C631 3.331 . S
