# Generated by pormake.
# Topology dag, (6,3)-cn, num edge types: 1
# Building blocks:
#     Node 0, Type 0, BuildingBlock: MIDCAF_clean_sbu_0, # of connection points: 6
#     Node 1, Type 0, BuildingBlock: MIDCAF_clean_sbu_0, # of connection points: 6
#     Node 2, Type 0, BuildingBlock: MIDCAF_clean_sbu_0, # of connection points: 6
#     Node 3, Type 0, BuildingBlock: MIDCAF_clean_sbu_0, # of connection points: 6
#     Node 4, Type 1, BuildingBlock: MIDCAF_clean_linker_0, # of connection points: 3
#     Node 5, Type 1, BuildingBlock: MIDCAF_clean_linker_0, # of connection points: 3
#     Node 6, Type 1, BuildingBlock: MIDCAF_clean_linker_0, # of connection points: 3
#     Node 7, Type 1, BuildingBlock: MIDCAF_clean_linker_0, # of connection points: 3
#     Node 8, Type 1, BuildingBlock: MIDCAF_clean_linker_0, # of connection points: 3
#     Node 9, Type 1, BuildingBlock: MIDCAF_clean_linker_0, # of connection points: 3
#     Node 10, Type 1, BuildingBlock: MIDCAF_clean_linker_0, # of connection points: 3
#     Node 11, Type 1, BuildingBlock: MIDCAF_clean_linker_0, # of connection points: 3
#     Edge 12, Type (0, 1), BuildingBlock: KIFKEQ_clean_linker_1, # of connection points: 2
#     Edge 13, Type (0, 1), BuildingBlock: KIFKEQ_clean_linker_1, # of connection points: 2
#     Edge 14, Type (0, 1), BuildingBlock: KIFKEQ_clean_linker_1, # of connection points: 2
#     Edge 15, Type (0, 1), BuildingBlock: KIFKEQ_clean_linker_1, # of connection points: 2
#     Edge 16, Type (0, 1), BuildingBlock: KIFKEQ_clean_linker_1, # of connection points: 2
#     Edge 17, Type (0, 1), BuildingBlock: KIFKEQ_clean_linker_1, # of connection points: 2
#     Edge 18, Type (0, 1), BuildingBlock: KIFKEQ_clean_linker_1, # of connection points: 2
#     Edge 19, Type (0, 1), BuildingBlock: KIFKEQ_clean_linker_1, # of connection points: 2
#     Edge 20, Type (0, 1), BuildingBlock: KIFKEQ_clean_linker_1, # of connection points: 2
#     Edge 21, Type (0, 1), BuildingBlock: KIFKEQ_clean_linker_1, # of connection points: 2
#     Edge 22, Type (0, 1), BuildingBlock: KIFKEQ_clean_linker_1, # of connection points: 2
#     Edge 23, Type (0, 1), BuildingBlock: KIFKEQ_clean_linker_1, # of connection points: 2
#     Edge 24, Type (0, 1), BuildingBlock: KIFKEQ_clean_linker_1, # of connection points: 2
#     Edge 25, Type (0, 1), BuildingBlock: KIFKEQ_clean_linker_1, # of connection points: 2
#     Edge 26, Type (0, 1), BuildingBlock: KIFKEQ_clean_linker_1, # of connection points: 2
#     Edge 27, Type (0, 1), BuildingBlock: KIFKEQ_clean_linker_1, # of connection points: 2
#     Edge 28, Type (0, 1), BuildingBlock: KIFKEQ_clean_linker_1, # of connection points: 2
#     Edge 29, Type (0, 1), BuildingBlock: KIFKEQ_clean_linker_1, # of connection points: 2
#     Edge 30, Type (0, 1), BuildingBlock: KIFKEQ_clean_linker_1, # of connection points: 2
#     Edge 31, Type (0, 1), BuildingBlock: KIFKEQ_clean_linker_1, # of connection points: 2
#     Edge 32, Type (0, 1), BuildingBlock: KIFKEQ_clean_linker_1, # of connection points: 2
#     Edge 33, Type (0, 1), BuildingBlock: KIFKEQ_clean_linker_1, # of connection points: 2
#     Edge 34, Type (0, 1), BuildingBlock: KIFKEQ_clean_linker_1, # of connection points: 2
#     Edge 35, Type (0, 1), BuildingBlock: KIFKEQ_clean_linker_1, # of connection points: 2
# Relax obj value: 0.310
# Max RMSD: 0.192
# Mean RMSD: 0.181
data_MOF--net-dag--node1-MIDCAF_clean_sbu_0--node2-MIDCAF_clean_linker_0--edge1-KIFKEQ_clean_linker_1
_symmetry_space_group_name_H-M    P1
_symmetry_Int_Tables_number       1
_symmetry_cell_setting            triclinic
loop_
_symmetry_equiv_pos_as_xyz
'x, y, z'
_cell_length_a     48.666053
_cell_length_b     49.848243
_cell_length_c     37.089226
_cell_angle_alpha  85.806106
_cell_angle_beta   90.039381
_cell_angle_gamma 89.836617
loop_
_atom_site_label
_atom_site_type_symbol
_atom_site_fract_x
_atom_site_fract_y
_atom_site_fract_z
_atom_type_partial_charge
Zn0 Zn 0.20563 0.85105 0.06938 0.0
Zn1 Zn 0.18809 0.8724 0.94943 0.0
Zn2 Zn 0.18898 0.85602 0.00836 0.0
C3 C 0.15721 0.90522 0.98451 0.0
C4 C 0.15667 0.82469 0.95864 0.0
O5 O 0.19771 0.81261 0.0112 0.0
O6 O 0.21553 0.81228 0.06622 0.0
C7 C 0.23602 0.8924 0.02966 0.0
O8 O 0.15288 0.88184 1.00042 0.0
O9 O 0.1787 0.90903 0.9656 0.0
O10 O 0.15485 0.84766 0.9417 0.0
O11 O 0.1764 0.82056 0.98166 0.0
O12 O 0.23355 0.88111 0.06122 0.0
O13 O 0.22137 0.88443 0.00411 0.0
O14 O 0.15117 0.86487 0.03716 0.0
O15 O 0.16885 0.85806 0.09174 0.0
C16 C 0.14825 0.86345 0.07162 0.0
O17 O 0.20729 0.82557 0.974 0.0
O18 O 0.22559 0.85708 0.93709 0.0
C19 C 0.20894 0.79989 0.03894 0.0
C20 C 0.22438 0.83248 0.94843 0.0
Zn21 Zn 0.71024 0.65091 0.49583 0.0
Zn22 Zn 0.67162 0.67084 0.6225 0.0
Zn23 Zn 0.68839 0.66073 0.55979 0.0
C24 C 0.69236 0.61968 0.63106 0.0
C25 C 0.62574 0.67473 0.57834 0.0
O26 O 0.72391 0.68807 0.54731 0.0
O27 O 0.74175 0.67548 0.49625 0.0
C28 C 0.71113 0.60248 0.53795 0.0
O29 O 0.69239 0.62376 0.59631 0.0
O30 O 0.68646 0.63855 0.65059 0.0
O31 O 0.63208 0.67196 0.61139 0.0
O32 O 0.64439 0.67287 0.55395 0.0
O33 O 0.71789 0.61219 0.50687 0.0
O34 O 0.70011 0.61747 0.56096 0.0
O35 O 0.65531 0.66767 0.5196 0.0
O36 O 0.67652 0.66208 0.4678 0.0
C37 C 0.65497 0.66751 0.48486 0.0
O38 O 0.71355 0.69342 0.5813 0.0
O39 O 0.68983 0.70539 0.62833 0.0
C40 C 0.74234 0.69037 0.52229 0.0
C41 C 0.70994 0.70904 0.60717 0.0
Zn42 Zn 0.78407 0.16862 0.01047 0.0
Zn43 Zn 0.84365 0.14849 0.10536 0.0
Zn44 Zn 0.81594 0.16757 0.06143 0.0
C45 C 0.87848 0.16942 0.05811 0.0
C46 C 0.79154 0.13186 0.12048 0.0
O47 O 0.77881 0.18523 0.08434 0.0
O48 O 0.75138 0.18126 0.03741 0.0
C49 C 0.82776 0.20676 0.99498 0.0
O50 O 0.85722 0.1848 0.05549 0.0
O51 O 0.87593 0.14566 0.07214 0.0
O52 O 0.81428 0.12004 0.11623 0.0
O53 O 0.78887 0.15643 0.10767 0.0
O54 O 0.80608 0.19717 0.98213 0.0
O55 O 0.83606 0.19817 0.02656 0.0
O56 O 0.81753 0.12698 0.04591 0.0
O57 O 0.78885 0.12969 1.00006 0.0
C58 C 0.80518 0.11595 0.02059 0.0
O59 O 0.80155 0.18443 0.11168 0.0
O60 O 0.84211 0.18095 0.13754 0.0
C61 C 0.75522 0.18878 0.06885 0.0
C62 C 0.81827 0.19129 0.13648 0.0
Zn63 Zn 0.29982 0.30329 0.61217 0.0
Zn64 Zn 0.32682 0.314 0.47252 0.0
Zn65 Zn 0.3139 0.30982 0.54128 0.0
C66 C 0.37505 0.30065 0.50995 0.0
C67 C 0.30615 0.36352 0.48801 0.0
O68 O 0.28015 0.28022 0.54798 0.0
O69 O 0.27104 0.27583 0.60667 0.0
C70 C 0.3557 0.29202 0.60763 0.0
O71 O 0.35811 0.29912 0.53676 0.0
O72 O 0.3668 0.30846 0.47865 0.0
O73 O 0.3127 0.35078 0.46114 0.0
O74 O 0.30643 0.35185 0.52016 0.0
O75 O 0.33632 0.29114 0.63027 0.0
O76 O 0.35102 0.29859 0.57388 0.0
O77 O 0.29939 0.34926 0.55706 0.0
O78 O 0.28992 0.34216 0.61542 0.0
C79 C 0.2913 0.35794 0.5872 0.0
O80 O 0.2886 0.28108 0.51208 0.0
O81 O 0.30506 0.28403 0.45628 0.0
C82 C 0.26635 0.26949 0.57492 0.0
C83 C 0.28884 0.27345 0.47962 0.0
C84 C 0.09328 0.17268 0.06566 0.0
C85 C 0.07824 0.19356 0.08006 0.0
C86 C 0.09083 0.20834 0.10644 0.0
C87 C 0.11711 0.20147 0.11944 0.0
H88 H 0.16479 0.20511 0.21293 0.0
H89 H 0.1766 0.21526 0.27432 0.0
H90 H 0.23859 0.15287 0.2785 0.0
H91 H 0.22744 0.14326 0.21696 0.0
H92 H 0.24522 0.11847 0.14583 0.0
H93 H 0.26884 0.08087 0.121 0.0
H94 H 0.21143 0.08379 0.03197 0.0
H95 H 0.18799 0.12165 0.05631 0.0
H96 H 0.13017 0.14928 0.06735 0.0
H97 H 0.08426 0.16049 0.04579 0.0
H98 H 0.08019 0.22492 0.11763 0.0
H99 H 0.12585 0.21279 0.14048 0.0
N100 N 0.16524 0.17753 0.1559 0.0
N101 N 0.20443 0.15015 0.15473 0.0
N102 N 0.17436 0.15335 0.10526 0.0
C103 C 0.18838 0.16731 0.17231 0.0
C104 C 0.1977 0.14318 0.12112 0.0
C105 C 0.1581 0.17065 0.12235 0.0
C106 C 0.1953 0.17353 0.20977 0.0
C107 C 0.18094 0.19355 0.22692 0.0
C108 C 0.18754 0.19921 0.2623 0.0
C109 C 0.20857 0.1849 0.28141 0.0
C110 C 0.22259 0.1646 0.26442 0.0
C111 C 0.21613 0.15906 0.22905 0.0
C112 C 0.21433 0.12285 0.10346 0.0
C113 C 0.23782 0.11142 0.12065 0.0
C114 C 0.2514 0.08983 0.10646 0.0
C115 C 0.24185 0.07916 0.07474 0.0
C116 C 0.21946 0.09166 0.0563 0.0
C117 C 0.20585 0.11327 0.07048 0.0
C118 C 0.1316 0.17991 0.10601 0.0
C119 C 0.11967 0.16608 0.07828 0.0
C120 C 0.30797 0.57082 0.58521 0.0
C121 C 0.2869 0.55795 0.60571 0.0
C122 C 0.27304 0.57252 0.63136 0.0
C123 C 0.28079 0.59893 0.63722 0.0
H124 H 0.27548 0.65797 0.7134 0.0
H125 H 0.26206 0.67999 0.76749 0.0
H126 H 0.31519 0.7468 0.73565 0.0
H127 H 0.32892 0.72485 0.68231 0.0
H128 H 0.37193 0.72102 0.6207 0.0
H129 H 0.41743 0.7335 0.59802 0.0
H130 H 0.42127 0.6605 0.54218 0.0
H131 H 0.37562 0.64841 0.56379 0.0
H132 H 0.33235 0.60597 0.57499 0.0
H133 H 0.31948 0.56024 0.56567 0.0
H134 H 0.25642 0.56343 0.64727 0.0
H135 H 0.27009 0.60933 0.6577 0.0
N136 N 0.30243 0.65161 0.65341 0.0
N137 N 0.33458 0.6862 0.64162 0.0
N138 N 0.33399 0.64949 0.60589 0.0
C139 C 0.31325 0.67563 0.6616 0.0
C140 C 0.34504 0.67331 0.61368 0.0
C141 C 0.31266 0.63849 0.62533 0.0
C142 C 0.30345 0.68947 0.69345 0.0
C143 C 0.28422 0.6774 0.71785 0.0
C144 C 0.27647 0.69006 0.74887 0.0
C145 C 0.28779 0.71504 0.75621 0.0
C146 C 0.30653 0.7273 0.73137 0.0
C147 C 0.31425 0.71472 0.70051 0.0
C148 C 0.37029 0.68338 0.5948 0.0
C149 C 0.38221 0.70788 0.60297 0.0
C150 C 0.40836 0.71504 0.59001 0.0
C151 C 0.42326 0.69779 0.56879 0.0
C152 C 0.4104 0.67439 0.55824 0.0
C153 C 0.3842 0.66731 0.57099 0.0
C154 C 0.30248 0.61141 0.61744 0.0
C155 C 0.31556 0.59716 0.59087 0.0
C156 C 0.85138 0.86127 0.42578 0.0
C157 C 0.86464 0.83615 0.42882 0.0
C158 C 0.88783 0.83222 0.40713 0.0
C159 C 0.8966 0.85245 0.38161 0.0
H160 H 0.9564 0.87374 0.30219 0.0
H161 H 0.99248 0.86556 0.25899 0.0
H162 H 0.96031 0.9296 0.18597 0.0
H163 H 0.92479 0.93842 0.22971 0.0
H164 H 0.88834 0.98485 0.27323 0.0
H165 H 0.85704 0.02251 0.26001 0.0
H166 H 0.79465 0.9822 0.32637 0.0
H167 H 0.82606 0.94442 0.34 0.0
H168 H 0.84876 0.9002 0.39815 0.0
H169 H 0.83329 0.86494 0.4417 0.0
H170 H 0.89878 0.81323 0.4092 0.0
H171 H 0.91397 0.84843 0.36455 0.0
N172 N 0.91028 0.89347 0.32426 0.0
N173 N 0.89915 0.93387 0.29084 0.0
N174 N 0.87328 0.91972 0.3419 0.0
C175 C 0.91536 0.91164 0.29581 0.0
C176 C 0.87809 0.93804 0.31385 0.0
C177 C 0.88927 0.89747 0.34751 0.0
C178 C 0.93762 0.90676 0.26957 0.0
C179 C 0.957 0.88613 0.27695 0.0
C180 C 0.97762 0.88129 0.25196 0.0
C181 C 0.97931 0.89678 0.21872 0.0
C182 C 0.95994 0.91746 0.21139 0.0
C183 C 0.93944 0.92245 0.23652 0.0
C184 C 0.85969 0.9616 0.30753 0.0
C185 C 0.86807 0.98408 0.28531 0.0
C186 C 0.85023 0.00576 0.27803 0.0
C187 C 0.82349 0.00531 0.29243 0.0
C188 C 0.81517 0.98304 0.31504 0.0
C189 C 0.83319 0.96149 0.32282 0.0
C190 C 0.88238 0.87706 0.37727 0.0
C191 C 0.86015 0.88147 0.40041 0.0
C192 C 0.64796 0.33197 0.95795 0.0
C193 C 0.6308 0.31168 0.97361 0.0
C194 C 0.60638 0.30565 0.95565 0.0
C195 C 0.60031 0.31814 0.92162 0.0
H196 H 0.55645 0.30223 0.82954 0.0
H197 H 0.52091 0.28372 0.79213 0.0
H198 H 0.54223 0.34143 0.70403 0.0
H199 H 0.57796 0.35935 0.74067 0.0
H200 H 0.62878 0.39272 0.74436 0.0
H201 H 0.65306 0.43072 0.71588 0.0
H202 H 0.68892 0.44695 0.81864 0.0
H203 H 0.66379 0.40883 0.8478 0.0
H204 H 0.65618 0.35921 0.91201 0.0
H205 H 0.66707 0.33695 0.97084 0.0
H206 H 0.5925 0.29043 0.96726 0.0
H207 H 0.58184 0.31219 0.90801 0.0
N208 N 0.59456 0.33607 0.84627 0.0
N209 N 0.6075 0.36429 0.79607 0.0
N210 N 0.63019 0.36736 0.85129 0.0
C211 C 0.59121 0.34444 0.81086 0.0
C212 C 0.62699 0.37588 0.81586 0.0
C213 C 0.614 0.34744 0.8667 0.0
C214 C 0.57004 0.33239 0.78827 0.0
C215 C 0.55366 0.31085 0.8021 0.0
C216 C 0.53324 0.30027 0.78069 0.0
C217 C 0.52872 0.31106 0.74503 0.0
C218 C 0.54543 0.33227 0.7311 0.0
C219 C 0.56583 0.34275 0.75237 0.0
C220 C 0.64403 0.39781 0.79855 0.0
C221 C 0.64194 0.40416 0.76107 0.0
C222 C 0.6562 0.42587 0.74453 0.0
C223 C 0.67306 0.44188 0.7649 0.0
C224 C 0.67592 0.43511 0.80224 0.0
C225 C 0.66159 0.41323 0.8189 0.0
C226 C 0.61845 0.33707 0.9048 0.0
C227 C 0.64183 0.34457 0.92395 0.0
C228 C 0.59205 0.28787 0.53855 0.0
C229 C 0.57847 0.26983 0.51728 0.0
C230 C 0.59372 0.25675 0.49149 0.0
C231 C 0.6214 0.26303 0.48532 0.0
H232 H 0.67861 0.2628 0.4045 0.0
H233 H 0.70049 0.24744 0.35112 0.0
H234 H 0.77669 0.28434 0.38106 0.0
H235 H 0.75418 0.30093 0.43389 0.0
H236 H 0.74514 0.3533 0.48689 0.0
H237 H 0.75665 0.39774 0.50601 0.0
H238 H 0.67821 0.40104 0.56028 0.0
H239 H 0.66747 0.35662 0.54296 0.0
H240 H 0.62904 0.30903 0.54832 0.0
H241 H 0.58094 0.29848 0.55845 0.0
H242 H 0.58397 0.24239 0.47508 0.0
H243 H 0.63216 0.25345 0.46414 0.0
N244 N 0.67623 0.28248 0.46689 0.0
N245 N 0.71052 0.31523 0.47106 0.0
N246 N 0.67243 0.31441 0.50975 0.0
C247 C 0.70051 0.29346 0.45522 0.0
C248 C 0.69649 0.32583 0.49843 0.0
C249 C 0.66217 0.29271 0.49441 0.0
C250 C 0.71463 0.28307 0.42361 0.0
C251 C 0.70008 0.26756 0.3999 0.0
C252 C 0.71276 0.25857 0.36923 0.0
C253 C 0.74053 0.26441 0.36164 0.0
C254 C 0.75519 0.27974 0.3856 0.0
C255 C 0.74234 0.28911 0.41609 0.0
C256 C 0.70528 0.35139 0.51306 0.0
C257 C 0.7306 0.36338 0.50343 0.0
C258 C 0.73711 0.38897 0.51422 0.0
C259 C 0.71831 0.40326 0.53452 0.0
C260 C 0.69352 0.39068 0.54527 0.0
C261 C 0.6872 0.36509 0.53495 0.0
C262 C 0.63443 0.28255 0.50483 0.0
C263 C 0.61968 0.29412 0.53244 0.0
C264 C 0.10747 0.14786 0.66049 0.0
C265 C 0.10079 0.16936 0.63525 0.0
C266 C 0.07423 0.18055 0.63613 0.0
C267 C 0.0554 0.17142 0.66272 0.0
H268 H 0.00718 0.20705 0.75308 0.0
H269 H 0.97436 0.23647 0.78169 0.0
H270 H 0.92463 0.16727 0.8142 0.0
H271 H 0.95739 0.13811 0.78648 0.0
H272 H 0.00806 0.09605 0.83364 0.0
H273 H 0.02337 0.06054 0.87776 0.0
H274 H 0.08783 0.03933 0.80501 0.0
H275 H 0.07302 0.0751 0.76116 0.0
H276 H 0.09484 0.12249 0.7063 0.0
H277 H 0.12781 0.13899 0.66129 0.0
H278 H 0.06814 0.19678 0.61676 0.0
H279 H 0.03539 0.18096 0.66322 0.0
N280 N 0.02277 0.15894 0.72764 0.0
N281 N 0.01143 0.12888 0.77703 0.0
N282 N 0.04865 0.11952 0.74006 0.0
C283 C 0.00641 0.15203 0.75648 0.0
C284 C 0.03254 0.11251 0.76911 0.0
C285 C 0.04378 0.14253 0.719 0.0
C286 C 0.98477 0.17035 0.76776 0.0
C287 C 0.98886 0.19833 0.76563 0.0
C288 C 0.97023 0.21511 0.78208 0.0
C289 C 0.94696 0.20414 0.79997 0.0
C290 C 0.9422 0.17634 0.80016 0.0
C291 C 0.96101 0.15961 0.78451 0.0
C292 C 0.03955 0.08876 0.79395 0.0
C293 C 0.02533 0.08366 0.8268 0.0
C294 C 0.03401 0.0632 0.85212 0.0
C295 C 0.05706 0.04739 0.84513 0.0
C296 C 0.07037 0.05158 0.81155 0.0
C297 C 0.06176 0.07202 0.78629 0.0
C298 C 0.06256 0.15064 0.68874 0.0
C299 C 0.08855 0.13851 0.68668 0.0
C300 C 0.34676 0.6864 0.17869 0.0
C301 C 0.32658 0.67159 0.16178 0.0
C302 C 0.32315 0.64426 0.17252 0.0
C303 C 0.33853 0.63233 0.20124 0.0
H304 H 0.3223 0.57971 0.29079 0.0
H305 H 0.29959 0.54462 0.32909 0.0
H306 H 0.36501 0.54723 0.4075 0.0
H307 H 0.38754 0.58243 0.36976 0.0
H308 H 0.45107 0.60292 0.31826 0.0
H309 H 0.49413 0.61738 0.34456 0.0
H310 H 0.46966 0.70036 0.32413 0.0
H311 H 0.42664 0.68584 0.29639 0.0
H312 H 0.37732 0.68647 0.22029 0.0
H313 H 0.34968 0.70756 0.17079 0.0
H314 H 0.30755 0.63254 0.16002 0.0
H315 H 0.33473 0.61144 0.20991 0.0
N316 N 0.35925 0.6155 0.27276 0.0
N317 N 0.39598 0.61397 0.31352 0.0
N318 N 0.39643 0.64516 0.26294 0.0
C319 C 0.3711 0.60478 0.30367 0.0
C320 C 0.40873 0.63404 0.29341 0.0
C321 C 0.37178 0.63558 0.2522 0.0
C322 C 0.3569 0.58378 0.32698 0.0
C323 C 0.33179 0.57293 0.31628 0.0
C324 C 0.31876 0.55283 0.3382 0.0
C325 C 0.33048 0.54323 0.37133 0.0
C326 C 0.35523 0.55449 0.3824 0.0
C327 C 0.36831 0.57449 0.36048 0.0
C328 C 0.43571 0.64331 0.3053 0.0
C329 C 0.45511 0.62425 0.3188 0.0
C330 C 0.47968 0.63248 0.33374 0.0
C331 C 0.485 0.6599 0.33628 0.0
C332 C 0.46587 0.67909 0.32231 0.0
C333 C 0.44148 0.67083 0.30636 0.0
C334 C 0.35793 0.64742 0.21927 0.0
C335 C 0.36253 0.67434 0.20695 0.0
C336 C 0.86618 0.91233 0.97127 0.0
C337 C 0.83915 0.92232 0.96744 0.0
C338 C 0.81935 0.90633 0.95145 0.0
C339 C 0.82664 0.88166 0.93838 0.0
H340 H 0.81105 0.83546 0.84669 0.0
H341 H 0.79217 0.8229 0.78934 0.0
H342 H 0.86148 0.77005 0.77656 0.0
H343 H 0.8798 0.7818 0.83408 0.0
H344 H 0.91315 0.76205 0.90519 0.0
H345 H 0.95806 0.74254 0.91989 0.0
H346 H 0.97411 0.80653 0.9896 0.0
H347 H 0.92912 0.8255 0.97586 0.0
H348 H 0.89439 0.88064 0.96178 0.0
H349 H 0.88225 0.92409 0.98263 0.0
H350 H 0.79818 0.91285 0.94876 0.0
H351 H 0.81107 0.8701 0.92558 0.0
N352 N 0.84949 0.83893 0.896 0.0
N353 N 0.88014 0.80263 0.8948 0.0
N354 N 0.88374 0.83242 0.94047 0.0
C355 C 0.8586 0.81688 0.87999 0.0
C356 C 0.8927 0.81008 0.92513 0.0
C357 C 0.86201 0.84678 0.92629 0.0
C358 C 0.84679 0.80946 0.84525 0.0
C359 C 0.82222 0.82113 0.83164 0.0
C360 C 0.81153 0.81412 0.79858 0.0
C361 C 0.82529 0.79543 0.7783 0.0
C362 C 0.85008 0.78414 0.79171 0.0
C363 C 0.86061 0.79095 0.82479 0.0
C364 C 0.91773 0.7957 0.93875 0.0
C365 C 0.92605 0.77167 0.92422 0.0
C366 C 0.95183 0.76047 0.93261 0.0
C367 C 0.96992 0.77312 0.95552 0.0
C368 C 0.9607 0.796 0.97213 0.0
C369 C 0.93488 0.80709 0.96396 0.0
C370 C 0.85371 0.87205 0.94185 0.0
C371 C 0.87327 0.8874 0.95902 0.0
H372 H 0.22681 0.93371 0.97877 0.0
H373 H 0.27788 0.90998 0.07089 0.0
H374 H 0.23792 0.98045 0.98511 0.0
H375 H 0.29057 0.9568 0.07599 0.0
H376 H 0.25369 0.06496 0.00609 0.0
H377 H 0.26402 0.01986 0.98786 0.0
H378 H 0.26338 0.98967 0.10021 0.0
H379 H 0.25386 0.03435 0.11804 0.0
C380 C 0.24146 0.93836 0.99937 0.0
C381 C 0.25083 0.91826 0.025 0.0
C382 C 0.24797 0.96532 0.00299 0.0
C383 C 0.26445 0.97261 0.0319 0.0
C384 C 0.27696 0.95203 0.05426 0.0
C385 C 0.26995 0.92514 0.05112 0.0
C386 C 0.25633 0.04868 0.0268 0.0
C387 C 0.25277 0.05319 0.06349 0.0
C388 C 0.26221 0.02283 0.01639 0.0
C389 C 0.26437 0.00092 0.04245 0.0
C390 C 0.26246 0.00593 0.07923 0.0
C391 C 0.25684 0.0317 0.08958 0.0
H392 H 0.60304 0.70849 0.52392 0.0
H393 H 0.58265 0.65177 0.61341 0.0
H394 H 0.55366 0.71854 0.51477 0.0
H395 H 0.53414 0.66228 0.60501 0.0
H396 H 0.4537 0.68886 0.50789 0.0
H397 H 0.50402 0.68603 0.50405 0.0
H398 H 0.51066 0.7124 0.61184 0.0
H399 H 0.46097 0.7148 0.61624 0.0
C400 C 0.58802 0.69792 0.54113 0.0
C401 C 0.59652 0.67924 0.5692 0.0
C402 C 0.55995 0.70373 0.53602 0.0
C403 C 0.54035 0.69136 0.55951 0.0
C404 C 0.54894 0.67225 0.58682 0.0
C405 C 0.57667 0.66625 0.59158 0.0
C406 C 0.46595 0.69459 0.53046 0.0
C407 C 0.45323 0.7018 0.56252 0.0
C408 C 0.49468 0.69318 0.52807 0.0
C409 C 0.51098 0.69883 0.55776 0.0
C410 C 0.49841 0.70794 0.58863 0.0
C411 C 0.46989 0.70947 0.59098 0.0
H412 H 0.76869 0.08289 0.11956 0.0
H413 H 0.77477 0.15157 0.18314 0.0
H414 H 0.76096 0.05394 0.17386 0.0
H415 H 0.76693 0.12262 0.23812 0.0
H416 H 0.83196 0.05929 0.29165 0.0
H417 H 0.80604 0.09406 0.25726 0.0
H418 H 0.74475 0.0355 0.23265 0.0
H419 H 0.77125 0.00047 0.2668 0.0
C420 C 0.7665 0.09202 0.14506 0.0
C421 C 0.77273 0.11926 0.14742 0.0
C422 C 0.7621 0.07541 0.17639 0.0
C423 C 0.76432 0.08584 0.21051 0.0
C424 C 0.7657 0.11393 0.21223 0.0
C425 C 0.76988 0.13061 0.18071 0.0
C426 C 0.81251 0.05404 0.27984 0.0
C427 C 0.80397 0.02715 0.28102 0.0
C428 C 0.79736 0.07405 0.26048 0.0
C429 C 0.77347 0.06749 0.24162 0.0
C430 C 0.76322 0.04111 0.24652 0.0
C431 C 0.77837 0.02107 0.26611 0.0
H432 H 0.37274 0.25603 0.66136 0.0
H433 H 0.40159 0.3201 0.5865 0.0
H434 H 0.4171 0.25494 0.69225 0.0
H435 H 0.44601 0.31912 0.61731 0.0
H436 H 0.47685 0.29749 0.76772 0.0
H437 H 0.4375 0.28735 0.73082 0.0
H438 H 0.48838 0.29397 0.63524 0.0
H439 H 0.52809 0.30367 0.67234 0.0
C440 C 0.38884 0.26946 0.65107 0.0
C441 C 0.3839 0.288 0.62144 0.0
C442 C 0.41415 0.26893 0.66881 0.0
C443 C 0.43495 0.28712 0.65746 0.0
C444 C 0.4305 0.30467 0.62652 0.0
C445 C 0.40511 0.30523 0.60882 0.0
C446 C 0.4799 0.29606 0.739 0.0
C447 C 0.50563 0.30158 0.72302 0.0
C448 C 0.45729 0.29026 0.71779 0.0
C449 C 0.45982 0.2899 0.68006 0.0
C450 C 0.48575 0.29436 0.66418 0.0
C451 C 0.50844 0.30001 0.68545 0.0
H452 H 0.75908 0.57482 0.53732 0.0
H453 H 0.67191 0.56503 0.55325 0.0
H454 H 0.76502 0.52575 0.54217 0.0
H455 H 0.67785 0.51611 0.56001 0.0
H456 H 0.70307 0.42946 0.59437 0.0
H457 H 0.70356 0.47781 0.60086 0.0
H458 H 0.7459 0.49048 0.49897 0.0
H459 H 0.74408 0.44249 0.4911 0.0
C460 C 0.74137 0.56211 0.54308 0.0
C461 C 0.71518 0.57351 0.54647 0.0
C462 C 0.74473 0.53417 0.54575 0.0
C463 C 0.72194 0.51724 0.55195 0.0
C464 C 0.69584 0.52874 0.5561 0.0
C465 C 0.69245 0.55665 0.55267 0.0
C466 C 0.7125 0.44246 0.57326 0.0
C467 C 0.72313 0.43192 0.54188 0.0
C468 C 0.71295 0.47013 0.57722 0.0
C469 C 0.72469 0.48778 0.55039 0.0
C470 C 0.73695 0.47722 0.52022 0.0
C471 C 0.73601 0.44963 0.51586 0.0
H472 H 0.88333 0.21378 0.99803 0.0
H473 H 0.81182 0.23808 0.93522 0.0
H474 H 0.91265 0.22693 0.94715 0.0
H475 H 0.84117 0.25252 0.88433 0.0
H476 H 0.89117 0.20632 0.7997 0.0
H477 H 0.86224 0.22138 0.84742 0.0
H478 H 0.9334 0.25394 0.89861 0.0
H479 H 0.96252 0.23796 0.85087 0.0
C480 C 0.87396 0.22306 0.97394 0.0
C481 C 0.84531 0.22391 0.97028 0.0
C482 C 0.89082 0.23082 0.94455 0.0
C483 C 0.8792 0.23997 0.91108 0.0
C484 C 0.85072 0.24471 0.90933 0.0
C485 C 0.8339 0.23655 0.93858 0.0
C486 C 0.90047 0.21745 0.82055 0.0
C487 C 0.92906 0.22053 0.82202 0.0
C488 C 0.88387 0.22636 0.84787 0.0
C489 C 0.89553 0.23853 0.87735 0.0
C490 C 0.92384 0.24424 0.87664 0.0
C491 C 0.94048 0.23531 0.84915 0.0
H492 H 0.33148 0.4051 0.51759 0.0
H493 H 0.26785 0.38612 0.44275 0.0
H494 H 0.33011 0.45215 0.49397 0.0
H495 H 0.26525 0.43327 0.42021 0.0
H496 H 0.31038 0.49729 0.34643 0.0
H497 H 0.29679 0.45661 0.38132 0.0
H498 H 0.30975 0.49555 0.48036 0.0
H499 H 0.32385 0.5365 0.44495 0.0
C500 C 0.31646 0.41133 0.49706 0.0
C501 C 0.29998 0.39224 0.48157 0.0
C502 C 0.31554 0.43826 0.48357 0.0
C503 C 0.29802 0.44637 0.4545 0.0
C504 C 0.27953 0.42756 0.44184 0.0
C505 C 0.28082 0.40064 0.45488 0.0
C506 C 0.30962 0.49747 0.3756 0.0
C507 C 0.31833 0.52004 0.39292 0.0
C508 C 0.3017 0.4741 0.39575 0.0
C509 C 0.30212 0.47273 0.43379 0.0
C510 C 0.30949 0.49581 0.45115 0.0
C511 C 0.31757 0.51923 0.4309 0.0
H512 H 0.14321 0.78151 0.00491 0.0
H513 H 0.1218 0.82227 0.90193 0.0
H514 H 0.10042 0.75585 0.00415 0.0
H515 H 0.07936 0.79711 0.90122 0.0
H516 H 0.00287 0.75687 0.90144 0.0
H517 H 0.05274 0.7564 0.90065 0.0
H518 H 0.05402 0.7732 0.01326 0.0
H519 H 0.00408 0.77217 0.01465 0.0
C520 C 0.12983 0.78431 0.98156 0.0
C521 C 0.1355 0.8042 0.95376 0.0
C522 C 0.10529 0.76975 0.98124 0.0
C523 C 0.08629 0.77468 0.9529 0.0
C524 C 0.09352 0.79258 0.92338 0.0
C525 C 0.11782 0.80723 0.92388 0.0
C526 C 0.01368 0.75924 0.92652 0.0
C527 C -0.00058 0.7653 0.95792 0.0
C528 C 0.04236 0.75922 0.92593 0.0
C529 C 0.05735 0.76551 0.95656 0.0
C530 C 0.04316 0.76836 0.98909 0.0
C531 C 0.01446 0.76816 0.98978 0.0
H532 H 0.80212 0.0926 0.95699 0.0
H533 H 0.81894 0.07492 0.0705 0.0
H534 H 0.80982 0.04582 0.94601 0.0
H535 H 0.82489 0.02742 0.0602 0.0
H536 H 0.86067 0.94915 0.02354 0.0
H537 H 0.85288 0.99546 0.03672 0.0
H538 H 0.79165 0.00347 0.95202 0.0
H539 H 0.80161 0.95832 0.93626 0.0
C540 C 0.80714 0.07853 0.97971 0.0
C541 C 0.80995 0.08736 0.01457 0.0
C542 C 0.8113 0.05155 0.97353 0.0
C543 C 0.81769 0.03248 0.00223 0.0
C544 C 0.82042 0.04143 0.03725 0.0
C545 C 0.81688 0.06864 0.04327 0.0
C546 C 0.84586 0.96087 0.00726 0.0
C547 C 0.83213 0.9498 0.97839 0.0
C548 C 0.84099 0.98745 0.01532 0.0
C549 C 0.82181 0.00359 0.99526 0.0
C550 C 0.80715 0.99209 0.96754 0.0
C551 C 0.81247 0.96576 0.95894 0.0
H552 H 0.3989 0.26155 0.55618 0.0
H553 H 0.41741 0.32437 0.4735 0.0
H554 H 0.44806 0.24996 0.56061 0.0
H555 H 0.46585 0.31256 0.47727 0.0
H556 H 0.54313 0.26848 0.4605 0.0
H557 H 0.49341 0.27248 0.4613 0.0
H558 H 0.49458 0.27162 0.57771 0.0
H559 H 0.54474 0.26694 0.57718 0.0
C560 C 0.4135 0.27305 0.53937 0.0
C561 C 0.40446 0.29403 0.5148 0.0
C562 C 0.4415 0.26634 0.54173 0.0
C563 C 0.46066 0.28013 0.5189 0.0
C564 C 0.4515 0.30124 0.4947 0.0
C565 C 0.42378 0.30807 0.49265 0.0
C566 C 0.53288 0.26832 0.48642 0.0
C567 C 0.54801 0.26757 0.51877 0.0
C568 C 0.50436 0.27094 0.48682 0.0
C569 C 0.49023 0.27287 0.51953 0.0
C570 C 0.50502 0.2703 0.55213 0.0
C571 C 0.5337 0.2678 0.55175 0.0
H572 H 0.1036 0.9005 0.96556 0.0
H573 H 0.16437 0.95768 0.99519 0.0
H574 H 0.07524 0.93727 0.93861 0.0
H575 H 0.1356 0.99457 0.97015 0.0
H576 H 0.11072 0.0392 0.86309 0.0
H577 H 0.13013 0.00631 0.90718 0.0
H578 H 0.04857 0.97888 0.93731 0.0
H579 H 0.02902 0.0115 0.89157 0.0
C580 C 0.11013 0.92105 0.96801 0.0
C581 C 0.13615 0.92641 0.98205 0.0
C582 C 0.09396 0.94215 0.95247 0.0
C583 C 0.10358 0.96882 0.95121 0.0
C584 C 0.12801 0.97419 0.96962 0.0
C585 C 0.14434 0.95315 0.98442 0.0
C586 C 0.09686 0.02609 0.87891 0.0
C587 C 0.06835 0.02773 0.87343 0.0
C588 C 0.10797 0.0075 0.90479 0.0
C589 C 0.09091 0.99009 0.92621 0.0
C590 C 0.06228 0.99198 0.92125 0.0
C591 C 0.0511 0.01072 0.8952 0.0
H592 H 0.64915 0.69232 0.41762 0.0
H593 H 0.60336 0.65128 0.50452 0.0
H594 H 0.60752 0.69561 0.38049 0.0
H595 H 0.56144 0.65565 0.46806 0.0
H596 H 0.48766 0.68553 0.39841 0.0
H597 H 0.52869 0.69188 0.43548 0.0
H598 H 0.57898 0.65764 0.35454 0.0
H599 H 0.53799 0.65087 0.31805 0.0
C600 C 0.63003 0.68455 0.42904 0.0
C601 C 0.62925 0.67215 0.46427 0.0
C602 C 0.60628 0.68646 0.40784 0.0
C603 C 0.58129 0.67609 0.42155 0.0
C604 C 0.58035 0.66427 0.4571 0.0
C605 C 0.60424 0.66196 0.47807 0.0
C606 C 0.50762 0.67996 0.38835 0.0
C607 C 0.5099 0.66787 0.35545 0.0
C608 C 0.53096 0.68339 0.40957 0.0
C609 C 0.55691 0.67524 0.39779 0.0
C610 C 0.55924 0.66434 0.36404 0.0
C611 C 0.53589 0.66044 0.34322 0.0
H612 H 0.26349 0.39303 0.53982 0.0
H613 H 0.30656 0.38776 0.6417 0.0
H614 H 0.2578 0.44163 0.54357 0.0
H615 H 0.30119 0.43595 0.64566 0.0
H616 H 0.27382 0.51922 0.65923 0.0
H617 H 0.26968 0.47107 0.65452 0.0
H618 H 0.2846 0.48208 0.53958 0.0
H619 H 0.28698 0.53052 0.54386 0.0
C620 C 0.27191 0.40237 0.56282 0.0
C621 C 0.28593 0.38686 0.59007 0.0
C622 C 0.26857 0.43014 0.56512 0.0
C623 C 0.27904 0.44282 0.59494 0.0
C624 C 0.2924 0.42694 0.62261 0.0
C625 C 0.29563 0.3993 0.6203 0.0
C626 C 0.27546 0.51156 0.63275 0.0
C627 C 0.28104 0.52889 0.60201 0.0
C628 C 0.27351 0.4838 0.63013 0.0
C629 C 0.27733 0.47256 0.59677 0.0
C630 C 0.28149 0.48997 0.56571 0.0
C631 C 0.28322 0.51779 0.56827 0.0
H632 H 0.13242 0.844 0.1383 0.0
H633 H 0.10314 0.89201 0.04432 0.0
H634 H 0.08947 0.85152 0.16931 0.0
H635 H 0.05973 0.89988 0.07602 0.0
H636 H 0.00817 0.93338 0.17429 0.0
H637 H 0.04628 0.92454 0.13392 0.0
H638 H 0.03899 0.83947 0.16295 0.0
H639 H 0.00042 0.84803 0.2024 0.0
C640 C 0.11673 0.85615 0.12418 0.0
C641 C 0.12124 0.86751 0.08887 0.0
C642 C 0.09203 0.86029 0.14192 0.0
C643 C 0.07121 0.87619 0.12507 0.0
C644 C 0.0755 0.88755 0.08964 0.0
C645 C 0.10023 0.88297 0.07148 0.0
C646 C 0.01424 0.91272 0.17153 0.0
C647 C 0.00135 0.89145 0.19211 0.0
C648 C 0.0361 0.9077 0.14834 0.0
C649 C 0.0457 0.88135 0.14548 0.0
C650 C 0.03223 0.86003 0.16497 0.0
C651 C 0.01026 0.86499 0.18782 0.0
H652 H 0.66916 0.5735 0.6134 0.0
H653 H 0.72324 0.60601 0.69089 0.0
H654 H 0.67313 0.52895 0.645 0.0
H655 H 0.726 0.56169 0.7243 0.0
H656 H 0.67682 0.49141 0.79187 0.0
H657 H 0.68853 0.53383 0.75866 0.0
H658 H 0.70781 0.49146 0.66447 0.0
H659 H 0.69678 0.44882 0.69784 0.0
C660 C 0.68298 0.57068 0.63615 0.0
C661 C 0.69697 0.59265 0.64862 0.0
C662 C 0.6849 0.54538 0.6547 0.0
C663 C 0.70017 0.54182 0.68687 0.0
C664 C 0.71426 0.56387 0.69943 0.0
C665 C 0.7127 0.58912 0.68039 0.0
C666 C 0.68445 0.49097 0.7645 0.0
C667 C 0.68542 0.46674 0.74734 0.0
C668 C 0.69111 0.51531 0.74546 0.0
C669 C 0.6987 0.51588 0.70888 0.0
C670 C 0.70159 0.49154 0.69249 0.0
C671 C 0.69519 0.46719 0.71159 0.0
H672 H 0.8997 0.21822 0.07159 0.0
H673 H 0.9202 0.14281 0.02798 0.0
H674 H 0.94844 0.23077 0.0703 0.0
H675 H 0.96865 0.15539 0.02618 0.0
H676 H 0.05371 0.18958 0.01364 0.0
H677 H 0.00455 0.18935 1.00038 0.0
H678 H 0.98696 0.20834 0.10965 0.0
H679 H 0.03573 0.20748 0.12355 0.0
C680 C 0.91454 0.20476 0.06067 0.0
C681 C 0.90635 0.17957 0.04991 0.0
C682 C 0.94236 0.21185 0.0601 0.0
C683 C 0.96229 0.19401 0.04825 0.0
C684 C 0.95374 0.16966 0.03511 0.0
C685 C 0.92606 0.16239 0.03627 0.0
C686 C 0.03941 0.19383 0.03485 0.0
C687 C 0.04884 0.19814 0.06987 0.0
C688 C 0.01128 0.1939 0.0271 0.0
C689 C 0.99198 0.19876 0.054 0.0
C690 C 0.00139 0.20489 0.08823 0.0
C691 C 0.02946 0.20443 0.09615 0.0
H692 H 0.18678 0.75831 0.07875 0.0
H693 H 0.25173 0.77949 0.00314 0.0
H694 H 0.21327 0.71931 0.10266 0.0
H695 H 0.2783 0.74032 0.02693 0.0
H696 H 0.31425 0.66048 0.09207 0.0
H697 H 0.28042 0.68413 0.05135 0.0
H698 H 0.26024 0.73631 0.13542 0.0
H699 H 0.29412 0.71346 0.17523 0.0
C700 C 0.20592 0.75356 0.06567 0.0
C701 C 0.21724 0.77165 0.03907 0.0
C702 C 0.22115 0.7314 0.07949 0.0
C703 C 0.2479 0.72717 0.06691 0.0
C704 C 0.25762 0.74311 0.03684 0.0
C705 C 0.24234 0.76539 0.02303 0.0
C706 C 0.3025 0.67705 0.10156 0.0
C707 C 0.30683 0.68544 0.13651 0.0
C708 C 0.28321 0.69041 0.07845 0.0
C709 C 0.26753 0.71164 0.09061 0.0
C710 C 0.27177 0.71967 0.12568 0.0
C711 C 0.29133 0.70685 0.14828 0.0
H712 H 0.70093 0.75744 0.63367 0.0
H713 H 0.76566 0.70425 0.60329 0.0
H714 H 0.73387 0.78291 0.66664 0.0
H715 H 0.79899 0.73015 0.63572 0.0
H716 H 0.82462 0.74474 0.75492 0.0
H717 H 0.80188 0.72941 0.70208 0.0
H718 H 0.77523 0.81063 0.67151 0.0
H719 H 0.79851 0.82623 0.72453 0.0
C720 C 0.72246 0.75191 0.63284 0.0
C721 C 0.73077 0.72883 0.61619 0.0
C722 C 0.74139 0.76657 0.65161 0.0
C723 C 0.76897 0.75825 0.65433 0.0
C724 C 0.77777 0.73677 0.63452 0.0
C725 C 0.75878 0.72213 0.6156 0.0
C726 C 0.8146 0.75954 0.7365 0.0
C727 C 0.81327 0.78672 0.74418 0.0
C728 C 0.80162 0.75072 0.70602 0.0
C729 C 0.78682 0.76881 0.68248 0.0
C730 C 0.78635 0.79619 0.68928 0.0
C731 C 0.79949 0.80507 0.71979 0.0
H732 H 0.84819 0.21271 0.19011 0.0
H733 H 0.76501 0.20261 0.1527 0.0
H734 H 0.83044 0.23212 0.24437 0.0
H735 H 0.74751 0.22157 0.20684 0.0
H736 H 0.73163 0.21682 0.33063 0.0
H737 H 0.75077 0.2022 0.27474 0.0
H738 H 0.79995 0.2741 0.26247 0.0
H739 H 0.77981 0.2897 0.31764 0.0
C740 C 0.82619 0.21493 0.1932 0.0
C741 C 0.80802 0.20602 0.1671 0.0
C742 C 0.81607 0.22607 0.22418 0.0
C743 C 0.78763 0.22807 0.22986 0.0
C744 C 0.76953 0.22001 0.20324 0.0
C745 C 0.77961 0.20935 0.17207 0.0
C746 C 0.74617 0.22984 0.31591 0.0
C747 C 0.75381 0.25469 0.32866 0.0
C748 C 0.75724 0.22133 0.28395 0.0
C749 C 0.77663 0.23714 0.2642 0.0
C750 C 0.78506 0.26152 0.2773 0.0
C751 C 0.77361 0.27033 0.30905 0.0
H752 H 0.22376 0.2752 0.52727 0.0
H753 H 0.25867 0.22137 0.61156 0.0
H754 H 0.18167 0.24796 0.52864 0.0
H755 H 0.21723 0.19391 0.61239 0.0
H756 H 0.14301 0.14409 0.60152 0.0
H757 H 0.18399 0.16528 0.5744 0.0
H758 H 0.1484 0.24357 0.58558 0.0
H759 H 0.10815 0.22277 0.61423 0.0
C760 C 0.22278 0.25697 0.54501 0.0
C761 C 0.24421 0.25027 0.56938 0.0
C762 C 0.19877 0.24152 0.5459 0.0
C763 C 0.19628 0.21888 0.5706 0.0
C764 C 0.21873 0.21106 0.59279 0.0
C765 C 0.24235 0.22681 0.59249 0.0
C766 C 0.14374 0.16582 0.59788 0.0
C767 C 0.12245 0.18167 0.61096 0.0
C768 C 0.16709 0.17789 0.58197 0.0
C769 C 0.16934 0.206 0.5781 0.0
C770 C 0.14703 0.22182 0.58788 0.0
C771 C 0.1239 0.20981 0.60434 0.0
H772 H 0.79627 0.68287 0.50981 0.0
H773 H 0.73713 0.74364 0.53374 0.0
H774 H 0.83083 0.71747 0.49657 0.0
H775 H 0.77141 0.77863 0.51925 0.0
H776 H 0.85941 0.78411 0.41216 0.0
H777 H 0.8337 0.74848 0.44438 0.0
H778 H 0.81529 0.80093 0.52898 0.0
H779 H 0.84137 0.83694 0.49644 0.0
C780 C 0.79091 0.70369 0.51291 0.0
C781 C 0.76412 0.71074 0.52249 0.0
C782 C 0.8106 0.72351 0.50513 0.0
C783 C 0.80372 0.75086 0.50601 0.0
C784 C 0.77745 0.75776 0.51841 0.0
C785 C 0.75777 0.73779 0.52665 0.0
C786 C 0.85064 0.78791 0.43813 0.0
C787 C 0.85244 0.81345 0.45161 0.0
C788 C 0.83581 0.7674 0.45671 0.0
C789 C 0.82238 0.77182 0.48934 0.0
C790 C 0.82513 0.79699 0.50371 0.0
C791 C 0.84006 0.81758 0.48507 0.0
H792 H 0.70253 0.17449 0.08453 0.0
H793 H 0.75939 0.24054 0.08402 0.0
H794 H 0.66411 0.20604 0.08044 0.0
H795 H 0.7216 0.27225 0.07663 0.0
H796 H 0.62754 0.25727 0.98302 0.0
H797 H 0.65196 0.22786 0.02611 0.0
H798 H 0.681 0.29653 0.07998 0.0
H799 H 0.65669 0.32636 0.03536 0.0
C800 C 0.70666 0.1958 0.08513 0.0
C801 C 0.73374 0.20525 0.08401 0.0
C802 C 0.68472 0.21397 0.08211 0.0
C803 C 0.6897 0.24177 0.07608 0.0
C804 C 0.71671 0.25109 0.08072 0.0
C805 C 0.73857 0.23287 0.08504 0.0
C806 C 0.63829 0.26619 0.00474 0.0
C807 C 0.64046 0.29422 0.00535 0.0
C808 C 0.65235 0.24917 0.02989 0.0
C809 C 0.66896 0.25964 0.05662 0.0
C810 C 0.669 0.28769 0.05934 0.0
C811 C 0.65505 0.30482 0.0338 0.0
H812 H 0.29947 0.2209 0.47295 0.0
H813 H 0.23679 0.28173 0.45624 0.0
H814 H 0.27556 0.1928 0.43171 0.0
H815 H 0.21308 0.25419 0.41429 0.0
H816 H 0.17542 0.19877 0.33731 0.0
H817 H 0.1898 0.21383 0.39574 0.0
H818 H 0.2747 0.2021 0.36665 0.0
H819 H 0.26052 0.18745 0.30869 0.0
C820 C 0.27986 0.22763 0.4617 0.0
C821 C 0.26973 0.25322 0.46781 0.0
C822 C 0.26636 0.21178 0.43772 0.0
C823 C 0.24278 0.22155 0.41903 0.0
C824 C 0.23112 0.24598 0.42827 0.0
C825 C 0.2446 0.26175 0.45241 0.0
C826 C 0.19715 0.19931 0.34353 0.0
C827 C 0.21681 0.19197 0.3182 0.0
C828 C 0.20535 0.20779 0.37707 0.0
C829 C 0.23338 0.20898 0.38604 0.0
C830 C 0.25291 0.2008 0.36112 0.0
C831 C 0.24476 0.19246 0.32769 0.0
H832 H 0.2667 0.84 0.90071 0.0
H833 H 0.21187 0.77897 0.94739 0.0
H834 H 0.28345 0.80876 0.85824 0.0
H835 H 0.22895 0.74747 0.90503 0.0
H836 H 0.2369 0.71877 0.78757 0.0
H837 H 0.22423 0.74405 0.83907 0.0
H838 H 0.30896 0.76717 0.85152 0.0
H839 H 0.32165 0.74183 0.80028 0.0
C840 C 0.25864 0.81971 0.90241 0.0
C841 C 0.23792 0.81201 0.92739 0.0
C842 C 0.26832 0.80173 0.87811 0.0
C843 C 0.25741 0.77564 0.87803 0.0
C844 C 0.23754 0.76753 0.9041 0.0
C845 C 0.22797 0.7855 0.92862 0.0
C846 C 0.2529 0.72885 0.80168 0.0
C847 C 0.28024 0.72853 0.78943 0.0
C848 C 0.24565 0.74332 0.83126 0.0
C849 C 0.26556 0.75781 0.84928 0.0
C850 C 0.29304 0.75663 0.83787 0.0
C851 C 0.30029 0.74215 0.8084 0.0
loop_
_geom_bond_atom_site_label_1
_geom_bond_atom_site_label_2
_geom_bond_distance
_geom_bond_site_symmetry_2
_ccdc_geom_bond_type
Zn0 O6 1.920 . S
Zn0 O12 1.898 . S
Zn0 O15 1.905 . S
Zn1 O9 1.905 . S
Zn1 O10 1.898 . S
Zn1 O18 1.920 . S
Zn2 O5 2.080 . S
Zn2 O8 2.114 1_554 S
Zn2 O11 2.120 1_554 S
Zn2 O13 2.120 . S
Zn2 O14 2.114 . S
Zn2 O17 2.080 1_554 S
C3 O8 1.166 . S
C3 O9 1.182 . S
C4 O10 1.167 . S
C4 O11 1.299 . S
O5 Zn2 2.080 . S
O5 C19 1.305 . S
O6 Zn0 1.920 . S
O6 C19 1.234 . S
C7 O12 1.167 . S
C7 O13 1.299 . S
O8 Zn2 2.114 1_556 S
O8 C3 1.166 . S
O9 Zn1 1.905 . S
O9 C3 1.182 . S
O10 Zn1 1.898 . S
O10 C4 1.167 . S
O11 Zn2 2.120 1_556 S
O11 C4 1.299 . S
O12 Zn0 1.898 . S
O12 C7 1.167 . S
O13 Zn2 2.120 . S
O13 C7 1.299 . S
O14 Zn2 2.114 . S
O14 C16 1.166 . S
O15 Zn0 1.905 . S
O15 C16 1.182 . S
C16 O14 1.166 . S
C16 O15 1.182 . S
O17 Zn2 2.080 1_556 S
O17 C20 1.305 . S
O18 Zn1 1.920 . S
O18 C20 1.234 . S
C19 O5 1.305 . S
C19 O6 1.234 . S
C20 O17 1.305 . S
C20 O18 1.234 . S
Zn21 O27 1.920 . S
Zn21 O33 1.898 . S
Zn21 O36 1.905 . S
Zn22 O30 1.905 . S
Zn22 O31 1.898 . S
Zn22 O39 1.920 . S
Zn23 O26 2.080 . S
Zn23 O29 2.114 . S
Zn23 O32 2.120 . S
Zn23 O34 2.120 . S
Zn23 O35 2.114 . S
Zn23 O38 2.080 . S
C24 O29 1.166 . S
C24 O30 1.182 . S
C25 O31 1.167 . S
C25 O32 1.299 . S
O26 Zn23 2.080 . S
O26 C40 1.305 . S
O27 Zn21 1.920 . S
O27 C40 1.234 . S
C28 O33 1.167 . S
C28 O34 1.299 . S
O29 Zn23 2.114 . S
O29 C24 1.166 . S
O30 Zn22 1.905 . S
O30 C24 1.182 . S
O31 Zn22 1.898 . S
O31 C25 1.167 . S
O32 Zn23 2.120 . S
O32 C25 1.299 . S
O33 Zn21 1.898 . S
O33 C28 1.167 . S
O34 Zn23 2.120 . S
O34 C28 1.299 . S
O35 Zn23 2.114 . S
O35 C37 1.166 . S
O36 Zn21 1.905 . S
O36 C37 1.182 . S
C37 O35 1.166 . S
C37 O36 1.182 . S
O38 Zn23 2.080 . S
O38 C41 1.305 . S
O39 Zn22 1.920 . S
O39 C41 1.234 . S
C40 O26 1.305 . S
C40 O27 1.234 . S
C41 O38 1.305 . S
C41 O39 1.234 . S
Zn42 O48 1.920 . S
Zn42 O54 1.898 . S
Zn42 O57 1.905 . S
Zn43 O51 1.905 . S
Zn43 O52 1.898 . S
Zn43 O60 1.920 . S
Zn44 O47 2.080 . S
Zn44 O50 2.114 . S
Zn44 O53 2.120 . S
Zn44 O55 2.120 . S
Zn44 O56 2.114 . S
Zn44 O59 2.080 . S
C45 O50 1.166 . S
C45 O51 1.182 . S
C46 O52 1.167 . S
C46 O53 1.299 . S
O47 Zn44 2.080 . S
O47 C61 1.305 . S
O48 Zn42 1.920 . S
O48 C61 1.234 1_556 S
C49 O54 1.167 . S
C49 O55 1.299 1_556 S
O50 Zn44 2.114 . S
O50 C45 1.166 . S
O51 Zn43 1.905 . S
O51 C45 1.182 . S
O52 Zn43 1.898 . S
O52 C46 1.167 . S
O53 Zn44 2.120 . S
O53 C46 1.299 . S
O54 Zn42 1.898 . S
O54 C49 1.167 . S
O55 Zn44 2.120 . S
O55 C49 1.299 1_554 S
O56 Zn44 2.114 . S
O56 C58 1.166 . S
O57 Zn42 1.905 . S
O57 C58 1.182 1_556 S
C58 O56 1.166 . S
C58 O57 1.182 1_554 S
O59 Zn44 2.080 . S
O59 C62 1.305 . S
O60 Zn43 1.920 . S
O60 C62 1.234 . S
C61 O47 1.305 . S
C61 O48 1.234 1_554 S
C62 O59 1.305 . S
C62 O60 1.234 . S
Zn63 O69 1.920 . S
Zn63 O75 1.898 . S
Zn63 O78 1.905 . S
Zn64 O72 1.905 . S
Zn64 O73 1.898 . S
Zn64 O81 1.920 . S
Zn65 O68 2.080 . S
Zn65 O71 2.114 . S
Zn65 O74 2.120 . S
Zn65 O76 2.120 . S
Zn65 O77 2.114 . S
Zn65 O80 2.080 . S
C66 O71 1.166 . S
C66 O72 1.182 . S
C67 O73 1.167 . S
C67 O74 1.299 . S
O68 Zn65 2.080 . S
O68 C82 1.305 . S
O69 Zn63 1.920 . S
O69 C82 1.234 . S
C70 O75 1.167 . S
C70 O76 1.299 . S
O71 Zn65 2.114 . S
O71 C66 1.166 . S
O72 Zn64 1.905 . S
O72 C66 1.182 . S
O73 Zn64 1.898 . S
O73 C67 1.167 . S
O74 Zn65 2.120 . S
O74 C67 1.299 . S
O75 Zn63 1.898 . S
O75 C70 1.167 . S
O76 Zn65 2.120 . S
O76 C70 1.299 . S
O77 Zn65 2.114 . S
O77 C79 1.166 . S
O78 Zn63 1.905 . S
O78 C79 1.182 . S
C79 O77 1.166 . S
C79 O78 1.182 . S
O80 Zn65 2.080 . S
O80 C83 1.305 . S
O81 Zn64 1.920 . S
O81 C83 1.234 . S
C82 O68 1.305 . S
C82 O69 1.234 . S
C83 O80 1.305 . S
C83 O81 1.234 . S
C84 C85 1.384 . S
C84 H97 0.947 . S
C84 C119 1.382 . S
C85 C84 1.384 . S
C85 C86 1.378 . S
C86 C85 1.378 . S
C86 C87 1.378 . S
C86 H98 0.952 . S
C87 C86 1.378 . S
C87 H99 0.950 . S
C87 C118 1.383 . S
H88 C107 0.947 . S
H89 C108 0.946 . S
H90 C110 0.953 . S
H91 C111 0.945 . S
H92 C113 0.952 . S
H93 C114 0.949 . S
H94 C116 0.950 . S
H95 C117 0.948 . S
H96 C119 0.951 . S
H97 C84 0.947 . S
H98 C86 0.952 . S
H99 C87 0.950 . S
N100 C103 1.382 . S
N100 C105 1.363 . S
N101 C103 1.371 . S
N101 C104 1.372 . S
N102 C104 1.361 . S
N102 C105 1.377 . S
C103 N100 1.382 . S
C103 N101 1.371 . S
C103 C106 1.480 . S
C104 N101 1.372 . S
C104 N102 1.361 . S
C104 C112 1.457 . S
C105 N100 1.363 . S
C105 N102 1.377 . S
C105 C118 1.479 . S
C106 C103 1.480 . S
C106 C107 1.383 . S
C106 C111 1.385 . S
C107 H88 0.947 . S
C107 C106 1.383 . S
C107 C108 1.388 . S
C108 H89 0.946 . S
C108 C107 1.388 . S
C108 C109 1.384 . S
C109 C108 1.384 . S
C109 C110 1.377 . S
C110 H90 0.953 . S
C110 C109 1.377 . S
C110 C111 1.369 . S
C111 H91 0.945 . S
C111 C106 1.385 . S
C111 C110 1.369 . S
C112 C104 1.457 . S
C112 C113 1.372 . S
C112 C117 1.364 . S
C113 H92 0.952 . S
C113 C112 1.372 . S
C113 C114 1.389 . S
C114 H93 0.949 . S
C114 C113 1.389 . S
C114 C115 1.387 . S
C115 C114 1.387 . S
C115 C116 1.372 . S
C116 H94 0.950 . S
C116 C115 1.372 . S
C116 C117 1.379 . S
C117 H95 0.948 . S
C117 C112 1.364 . S
C117 C116 1.379 . S
C118 C87 1.383 . S
C118 C105 1.479 . S
C118 C119 1.398 . S
C119 C84 1.382 . S
C119 H96 0.951 . S
C119 C118 1.398 . S
C120 C121 1.384 . S
C120 H133 0.947 . S
C120 C155 1.382 . S
C121 C120 1.384 . S
C121 C122 1.378 . S
C122 C121 1.378 . S
C122 C123 1.378 . S
C122 H134 0.952 . S
C123 C122 1.378 . S
C123 H135 0.950 . S
C123 C154 1.383 . S
H124 C143 0.947 . S
H125 C144 0.946 . S
H126 C146 0.953 . S
H127 C147 0.945 . S
H128 C149 0.952 . S
H129 C150 0.949 . S
H130 C152 0.950 . S
H131 C153 0.948 . S
H132 C155 0.951 . S
H133 C120 0.947 . S
H134 C122 0.952 . S
H135 C123 0.950 . S
N136 C139 1.382 . S
N136 C141 1.363 . S
N137 C139 1.371 . S
N137 C140 1.372 . S
N138 C140 1.361 . S
N138 C141 1.377 . S
C139 N136 1.382 . S
C139 N137 1.371 . S
C139 C142 1.480 . S
C140 N137 1.372 . S
C140 N138 1.361 . S
C140 C148 1.457 . S
C141 N136 1.363 . S
C141 N138 1.377 . S
C141 C154 1.479 . S
C142 C139 1.480 . S
C142 C143 1.383 . S
C142 C147 1.385 . S
C143 H124 0.947 . S
C143 C142 1.383 . S
C143 C144 1.388 . S
C144 H125 0.946 . S
C144 C143 1.388 . S
C144 C145 1.384 . S
C145 C144 1.384 . S
C145 C146 1.377 . S
C146 H126 0.953 . S
C146 C145 1.377 . S
C146 C147 1.369 . S
C147 H127 0.945 . S
C147 C142 1.385 . S
C147 C146 1.369 . S
C148 C140 1.457 . S
C148 C149 1.372 . S
C148 C153 1.364 . S
C149 H128 0.952 . S
C149 C148 1.372 . S
C149 C150 1.389 . S
C150 H129 0.949 . S
C150 C149 1.389 . S
C150 C151 1.387 . S
C151 C150 1.387 . S
C151 C152 1.372 . S
C152 H130 0.950 . S
C152 C151 1.372 . S
C152 C153 1.379 . S
C153 H131 0.948 . S
C153 C148 1.364 . S
C153 C152 1.379 . S
C154 C123 1.383 . S
C154 C141 1.479 . S
C154 C155 1.398 . S
C155 C120 1.382 . S
C155 H132 0.951 . S
C155 C154 1.398 . S
C156 C157 1.384 . S
C156 H169 0.947 . S
C156 C191 1.382 . S
C157 C156 1.384 . S
C157 C158 1.378 . S
C158 C157 1.378 . S
C158 C159 1.378 . S
C158 H170 0.952 . S
C159 C158 1.378 . S
C159 H171 0.950 . S
C159 C190 1.383 . S
H160 C179 0.947 . S
H161 C180 0.946 . S
H162 C182 0.953 . S
H163 C183 0.945 . S
H164 C185 0.952 . S
H165 C186 0.949 . S
H166 C188 0.950 . S
H167 C189 0.948 . S
H168 C191 0.951 . S
H169 C156 0.947 . S
H170 C158 0.952 . S
H171 C159 0.950 . S
N172 C175 1.382 . S
N172 C177 1.363 . S
N173 C175 1.371 . S
N173 C176 1.372 . S
N174 C176 1.361 . S
N174 C177 1.377 . S
C175 N172 1.382 . S
C175 N173 1.371 . S
C175 C178 1.480 . S
C176 N173 1.372 . S
C176 N174 1.361 . S
C176 C184 1.457 . S
C177 N172 1.363 . S
C177 N174 1.377 . S
C177 C190 1.479 . S
C178 C175 1.480 . S
C178 C179 1.383 . S
C178 C183 1.385 . S
C179 H160 0.947 . S
C179 C178 1.383 . S
C179 C180 1.388 . S
C180 H161 0.946 . S
C180 C179 1.388 . S
C180 C181 1.384 . S
C181 C180 1.384 . S
C181 C182 1.377 . S
C182 H162 0.953 . S
C182 C181 1.377 . S
C182 C183 1.369 . S
C183 H163 0.945 . S
C183 C178 1.385 . S
C183 C182 1.369 . S
C184 C176 1.457 . S
C184 C185 1.372 . S
C184 C189 1.364 . S
C185 H164 0.952 . S
C185 C184 1.372 . S
C185 C186 1.389 . S
C186 H165 0.949 . S
C186 C185 1.389 . S
C186 C187 1.387 . S
C187 C186 1.387 . S
C187 C188 1.372 . S
C188 H166 0.950 . S
C188 C187 1.372 . S
C188 C189 1.379 . S
C189 H167 0.948 . S
C189 C184 1.364 . S
C189 C188 1.379 . S
C190 C159 1.383 . S
C190 C177 1.479 . S
C190 C191 1.398 . S
C191 C156 1.382 . S
C191 H168 0.951 . S
C191 C190 1.398 . S
C192 C193 1.384 . S
C192 H205 0.947 . S
C192 C227 1.382 . S
C193 C192 1.384 . S
C193 C194 1.378 . S
C194 C193 1.378 . S
C194 C195 1.378 . S
C194 H206 0.952 . S
C195 C194 1.378 . S
C195 H207 0.950 . S
C195 C226 1.383 . S
H196 C215 0.947 . S
H197 C216 0.946 . S
H198 C218 0.953 . S
H199 C219 0.945 . S
H200 C221 0.952 . S
H201 C222 0.949 . S
H202 C224 0.950 . S
H203 C225 0.948 . S
H204 C227 0.951 . S
H205 C192 0.947 . S
H206 C194 0.952 . S
H207 C195 0.950 . S
N208 C211 1.382 . S
N208 C213 1.363 . S
N209 C211 1.371 . S
N209 C212 1.372 . S
N210 C212 1.361 . S
N210 C213 1.377 . S
C211 N208 1.382 . S
C211 N209 1.371 . S
C211 C214 1.480 . S
C212 N209 1.372 . S
C212 N210 1.361 . S
C212 C220 1.457 . S
C213 N208 1.363 . S
C213 N210 1.377 . S
C213 C226 1.479 . S
C214 C211 1.480 . S
C214 C215 1.383 . S
C214 C219 1.385 . S
C215 H196 0.947 . S
C215 C214 1.383 . S
C215 C216 1.388 . S
C216 H197 0.946 . S
C216 C215 1.388 . S
C216 C217 1.384 . S
C217 C216 1.384 . S
C217 C218 1.377 . S
C218 H198 0.953 . S
C218 C217 1.377 . S
C218 C219 1.369 . S
C219 H199 0.945 . S
C219 C214 1.385 . S
C219 C218 1.369 . S
C220 C212 1.457 . S
C220 C221 1.372 . S
C220 C225 1.364 . S
C221 H200 0.952 . S
C221 C220 1.372 . S
C221 C222 1.389 . S
C222 H201 0.949 . S
C222 C221 1.389 . S
C222 C223 1.387 . S
C223 C222 1.387 . S
C223 C224 1.372 . S
C224 H202 0.950 . S
C224 C223 1.372 . S
C224 C225 1.379 . S
C225 H203 0.948 . S
C225 C220 1.364 . S
C225 C224 1.379 . S
C226 C195 1.383 . S
C226 C213 1.479 . S
C226 C227 1.398 . S
C227 C192 1.382 . S
C227 H204 0.951 . S
C227 C226 1.398 . S
C228 C229 1.384 . S
C228 H241 0.947 . S
C228 C263 1.382 . S
C229 C228 1.384 . S
C229 C230 1.378 . S
C230 C229 1.378 . S
C230 C231 1.378 . S
C230 H242 0.952 . S
C231 C230 1.378 . S
C231 H243 0.950 . S
C231 C262 1.383 . S
H232 C251 0.947 . S
H233 C252 0.946 . S
H234 C254 0.953 . S
H235 C255 0.945 . S
H236 C257 0.952 . S
H237 C258 0.949 . S
H238 C260 0.950 . S
H239 C261 0.948 . S
H240 C263 0.951 . S
H241 C228 0.947 . S
H242 C230 0.952 . S
H243 C231 0.950 . S
N244 C247 1.382 . S
N244 C249 1.363 . S
N245 C247 1.371 . S
N245 C248 1.372 . S
N246 C248 1.361 . S
N246 C249 1.377 . S
C247 N244 1.382 . S
C247 N245 1.371 . S
C247 C250 1.480 . S
C248 N245 1.372 . S
C248 N246 1.361 . S
C248 C256 1.457 . S
C249 N244 1.363 . S
C249 N246 1.377 . S
C249 C262 1.479 . S
C250 C247 1.480 . S
C250 C251 1.383 . S
C250 C255 1.385 . S
C251 H232 0.947 . S
C251 C250 1.383 . S
C251 C252 1.388 . S
C252 H233 0.946 . S
C252 C251 1.388 . S
C252 C253 1.384 . S
C253 C252 1.384 . S
C253 C254 1.377 . S
C254 H234 0.953 . S
C254 C253 1.377 . S
C254 C255 1.369 . S
C255 H235 0.945 . S
C255 C250 1.385 . S
C255 C254 1.369 . S
C256 C248 1.457 . S
C256 C257 1.372 . S
C256 C261 1.364 . S
C257 H236 0.952 . S
C257 C256 1.372 . S
C257 C258 1.389 . S
C258 H237 0.949 . S
C258 C257 1.389 . S
C258 C259 1.387 . S
C259 C258 1.387 . S
C259 C260 1.372 . S
C260 H238 0.950 . S
C260 C259 1.372 . S
C260 C261 1.379 . S
C261 H239 0.948 . S
C261 C256 1.364 . S
C261 C260 1.379 . S
C262 C231 1.383 . S
C262 C249 1.479 . S
C262 C263 1.398 . S
C263 C228 1.382 . S
C263 H240 0.951 . S
C263 C262 1.398 . S
C264 C265 1.384 . S
C264 H277 0.947 . S
C264 C299 1.382 . S
C265 C264 1.384 . S
C265 C266 1.378 . S
C266 C265 1.378 . S
C266 C267 1.378 . S
C266 H278 0.952 . S
C267 C266 1.378 . S
C267 H279 0.950 . S
C267 C298 1.383 . S
H268 C287 0.947 . S
H269 C288 0.946 . S
H270 C290 0.953 . S
H271 C291 0.945 . S
H272 C293 0.952 . S
H273 C294 0.949 . S
H274 C296 0.950 . S
H275 C297 0.948 . S
H276 C299 0.951 . S
H277 C264 0.947 . S
H278 C266 0.952 . S
H279 C267 0.950 . S
N280 C283 1.382 . S
N280 C285 1.363 . S
N281 C283 1.371 . S
N281 C284 1.372 . S
N282 C284 1.361 . S
N282 C285 1.377 . S
C283 N280 1.382 . S
C283 N281 1.371 . S
C283 C286 1.480 . S
C284 N281 1.372 . S
C284 N282 1.361 . S
C284 C292 1.457 . S
C285 N280 1.363 . S
C285 N282 1.377 . S
C285 C298 1.479 . S
C286 C283 1.480 . S
C286 C287 1.383 . S
C286 C291 1.385 . S
C287 H268 0.947 . S
C287 C286 1.383 . S
C287 C288 1.388 1_455 S
C288 H269 0.946 . S
C288 C287 1.388 1_655 S
C288 C289 1.384 . S
C289 C288 1.384 . S
C289 C290 1.377 . S
C290 H270 0.953 . S
C290 C289 1.377 . S
C290 C291 1.369 1_655 S
C291 H271 0.945 . S
C291 C286 1.385 . S
C291 C290 1.369 1_455 S
C292 C284 1.457 . S
C292 C293 1.372 . S
C292 C297 1.364 . S
C293 H272 0.952 . S
C293 C292 1.372 . S
C293 C294 1.389 . S
C294 H273 0.949 . S
C294 C293 1.389 . S
C294 C295 1.387 . S
C295 C294 1.387 . S
C295 C296 1.372 . S
C296 H274 0.950 . S
C296 C295 1.372 . S
C296 C297 1.379 . S
C297 H275 0.948 . S
C297 C292 1.364 . S
C297 C296 1.379 . S
C298 C267 1.383 . S
C298 C285 1.479 . S
C298 C299 1.398 . S
C299 C264 1.382 . S
C299 H276 0.951 . S
C299 C298 1.398 . S
C300 C301 1.384 . S
C300 H313 0.947 . S
C300 C335 1.382 . S
C301 C300 1.384 . S
C301 C302 1.378 . S
C302 C301 1.378 . S
C302 C303 1.378 . S
C302 H314 0.952 . S
C303 C302 1.378 . S
C303 H315 0.950 . S
C303 C334 1.383 . S
H304 C323 0.947 . S
H305 C324 0.946 . S
H306 C326 0.953 . S
H307 C327 0.945 . S
H308 C329 0.952 . S
H309 C330 0.949 . S
H310 C332 0.950 . S
H311 C333 0.948 . S
H312 C335 0.951 . S
H313 C300 0.947 . S
H314 C302 0.952 . S
H315 C303 0.950 . S
N316 C319 1.382 . S
N316 C321 1.363 . S
N317 C319 1.371 . S
N317 C320 1.372 . S
N318 C320 1.361 . S
N318 C321 1.377 . S
C319 N316 1.382 . S
C319 N317 1.371 . S
C319 C322 1.480 . S
C320 N317 1.372 . S
C320 N318 1.361 . S
C320 C328 1.457 . S
C321 N316 1.363 . S
C321 N318 1.377 . S
C321 C334 1.479 . S
C322 C319 1.480 . S
C322 C323 1.383 . S
C322 C327 1.385 . S
C323 H304 0.947 . S
C323 C322 1.383 . S
C323 C324 1.388 . S
C324 H305 0.946 . S
C324 C323 1.388 . S
C324 C325 1.384 . S
C325 C324 1.384 . S
C325 C326 1.377 . S
C326 H306 0.953 . S
C326 C325 1.377 . S
C326 C327 1.369 . S
C327 H307 0.945 . S
C327 C322 1.385 . S
C327 C326 1.369 . S
C328 C320 1.457 . S
C328 C329 1.372 . S
C328 C333 1.364 . S
C329 H308 0.952 . S
C329 C328 1.372 . S
C329 C330 1.389 . S
C330 H309 0.949 . S
C330 C329 1.389 . S
C330 C331 1.387 . S
C331 C330 1.387 . S
C331 C332 1.372 . S
C332 H310 0.950 . S
C332 C331 1.372 . S
C332 C333 1.379 . S
C333 H311 0.948 . S
C333 C328 1.364 . S
C333 C332 1.379 . S
C334 C303 1.383 . S
C334 C321 1.479 . S
C334 C335 1.398 . S
C335 C300 1.382 . S
C335 H312 0.951 . S
C335 C334 1.398 . S
C336 C337 1.384 . S
C336 H349 0.947 1_556 S
C336 C371 1.382 . S
C337 C336 1.384 . S
C337 C338 1.378 . S
C338 C337 1.378 . S
C338 C339 1.378 . S
C338 H350 0.952 . S
C339 C338 1.378 . S
C339 H351 0.950 . S
C339 C370 1.383 . S
H340 C359 0.947 . S
H341 C360 0.946 . S
H342 C362 0.953 . S
H343 C363 0.945 . S
H344 C365 0.952 . S
H345 C366 0.949 . S
H346 C368 0.950 1_554 S
H347 C369 0.948 . S
H348 C371 0.951 . S
H349 C336 0.947 1_554 S
H350 C338 0.952 . S
H351 C339 0.950 . S
N352 C355 1.382 . S
N352 C357 1.363 . S
N353 C355 1.371 . S
N353 C356 1.372 . S
N354 C356 1.361 . S
N354 C357 1.377 . S
C355 N352 1.382 . S
C355 N353 1.371 . S
C355 C358 1.480 . S
C356 N353 1.372 . S
C356 N354 1.361 . S
C356 C364 1.457 . S
C357 N352 1.363 . S
C357 N354 1.377 . S
C357 C370 1.479 . S
C358 C355 1.480 . S
C358 C359 1.383 . S
C358 C363 1.385 . S
C359 H340 0.947 . S
C359 C358 1.383 . S
C359 C360 1.388 . S
C360 H341 0.946 . S
C360 C359 1.388 . S
C360 C361 1.384 . S
C361 C360 1.384 . S
C361 C362 1.377 . S
C362 H342 0.953 . S
C362 C361 1.377 . S
C362 C363 1.369 . S
C363 H343 0.945 . S
C363 C358 1.385 . S
C363 C362 1.369 . S
C364 C356 1.457 . S
C364 C365 1.372 . S
C364 C369 1.364 . S
C365 H344 0.952 . S
C365 C364 1.372 . S
C365 C366 1.389 . S
C366 H345 0.949 . S
C366 C365 1.389 . S
C366 C367 1.387 . S
C367 C366 1.387 . S
C367 C368 1.372 . S
C368 H346 0.950 1_556 S
C368 C367 1.372 . S
C368 C369 1.379 . S
C369 H347 0.948 . S
C369 C364 1.364 . S
C369 C368 1.379 . S
C370 C339 1.383 . S
C370 C357 1.479 . S
C370 C371 1.398 . S
C371 C336 1.382 . S
C371 H348 0.951 . S
C371 C370 1.398 . S
H372 C380 0.950 . S
H373 C385 0.950 . S
H374 C382 0.950 . S
H375 C384 0.950 . S
H376 C386 0.950 . S
H377 C388 0.950 . S
H378 C390 0.950 . S
H379 C391 0.950 . S
C380 H372 0.950 . S
C380 C381 1.386 . S
C380 C382 1.391 . S
C381 C380 1.386 . S
C381 C385 1.393 . S
C382 H374 0.950 . S
C382 C380 1.391 . S
C382 C383 1.400 . S
C383 C382 1.400 . S
C383 C384 1.398 . S
C383 C389 1.491 . S
C384 H375 0.950 . S
C384 C383 1.398 . S
C384 C385 1.391 . S
C385 H373 0.950 . S
C385 C381 1.393 . S
C385 C384 1.391 . S
C386 H376 0.950 . S
C386 C387 1.386 . S
C386 C388 1.391 1_545 S
C387 C386 1.386 . S
C387 C391 1.393 . S
C388 H377 0.950 . S
C388 C386 1.391 1_565 S
C388 C389 1.400 . S
C389 C383 1.491 . S
C389 C388 1.400 . S
C389 C390 1.398 . S
C390 H378 0.950 . S
C390 C389 1.398 . S
C390 C391 1.391 1_565 S
C391 H379 0.950 . S
C391 C387 1.393 . S
C391 C390 1.391 1_545 S
H392 C400 0.950 . S
H393 C405 0.950 . S
H394 C402 0.950 . S
H395 C404 0.950 . S
H396 C406 0.950 . S
H397 C408 0.950 . S
H398 C410 0.950 . S
H399 C411 0.950 . S
C400 H392 0.950 . S
C400 C401 1.386 . S
C400 C402 1.391 . S
C401 C400 1.386 . S
C401 C405 1.393 . S
C402 H394 0.950 . S
C402 C400 1.391 . S
C402 C403 1.400 . S
C403 C402 1.400 . S
C403 C404 1.398 . S
C403 C409 1.491 . S
C404 H395 0.950 . S
C404 C403 1.398 . S
C404 C405 1.391 . S
C405 H393 0.950 . S
C405 C401 1.393 . S
C405 C404 1.391 . S
C406 H396 0.950 . S
C406 C407 1.386 . S
C406 C408 1.391 . S
C407 C406 1.386 . S
C407 C411 1.393 . S
C408 H397 0.950 . S
C408 C406 1.391 . S
C408 C409 1.400 . S
C409 C403 1.491 . S
C409 C408 1.400 . S
C409 C410 1.398 . S
C410 H398 0.950 . S
C410 C409 1.398 . S
C410 C411 1.391 . S
C411 H399 0.950 . S
C411 C407 1.393 . S
C411 C410 1.391 . S
H412 C420 0.950 . S
H413 C425 0.950 . S
H414 C422 0.950 . S
H415 C424 0.950 . S
H416 C426 0.950 . S
H417 C428 0.950 . S
H418 C430 0.950 . S
H419 C431 0.950 . S
C420 H412 0.950 . S
C420 C421 1.386 . S
C420 C422 1.391 . S
C421 C420 1.386 . S
C421 C425 1.393 . S
C422 H414 0.950 . S
C422 C420 1.391 . S
C422 C423 1.400 . S
C423 C422 1.400 . S
C423 C424 1.398 . S
C423 C429 1.491 . S
C424 H415 0.950 . S
C424 C423 1.398 . S
C424 C425 1.391 . S
C425 H413 0.950 . S
C425 C421 1.393 . S
C425 C424 1.391 . S
C426 H416 0.950 . S
C426 C427 1.386 . S
C426 C428 1.391 . S
C427 C426 1.386 . S
C427 C431 1.393 1_545 S
C428 H417 0.950 . S
C428 C426 1.391 . S
C428 C429 1.400 . S
C429 C423 1.491 . S
C429 C428 1.400 . S
C429 C430 1.398 . S
C430 H418 0.950 . S
C430 C429 1.398 . S
C430 C431 1.391 1_545 S
C431 H419 0.950 . S
C431 C427 1.393 1_565 S
C431 C430 1.391 1_565 S
H432 C440 0.950 . S
H433 C445 0.950 . S
H434 C442 0.950 . S
H435 C444 0.950 . S
H436 C446 0.950 . S
H437 C448 0.950 . S
H438 C450 0.950 . S
H439 C451 0.950 . S
C440 H432 0.950 . S
C440 C441 1.386 . S
C440 C442 1.391 . S
C441 C440 1.386 . S
C441 C445 1.393 . S
C442 H434 0.950 . S
C442 C440 1.391 . S
C442 C443 1.400 . S
C443 C442 1.400 . S
C443 C444 1.398 . S
C443 C449 1.491 . S
C444 H435 0.950 . S
C444 C443 1.398 . S
C444 C445 1.391 . S
C445 H433 0.950 . S
C445 C441 1.393 . S
C445 C444 1.391 . S
C446 H436 0.950 . S
C446 C447 1.386 . S
C446 C448 1.391 . S
C447 C446 1.386 . S
C447 C451 1.393 . S
C448 H437 0.950 . S
C448 C446 1.391 . S
C448 C449 1.400 . S
C449 C443 1.491 . S
C449 C448 1.400 . S
C449 C450 1.398 . S
C450 H438 0.950 . S
C450 C449 1.398 . S
C450 C451 1.391 . S
C451 H439 0.950 . S
C451 C447 1.393 . S
C451 C450 1.391 . S
H452 C460 0.950 . S
H453 C465 0.950 . S
H454 C462 0.950 . S
H455 C464 0.950 . S
H456 C466 0.950 . S
H457 C468 0.950 . S
H458 C470 0.950 . S
H459 C471 0.950 . S
C460 H452 0.950 . S
C460 C461 1.386 . S
C460 C462 1.391 . S
C461 C460 1.386 . S
C461 C465 1.393 . S
C462 H454 0.950 . S
C462 C460 1.391 . S
C462 C463 1.400 . S
C463 C462 1.400 . S
C463 C464 1.398 . S
C463 C469 1.491 . S
C464 H455 0.950 . S
C464 C463 1.398 . S
C464 C465 1.391 . S
C465 H453 0.950 . S
C465 C461 1.393 . S
C465 C464 1.391 . S
C466 H456 0.950 . S
C466 C467 1.386 . S
C466 C468 1.391 . S
C467 C466 1.386 . S
C467 C471 1.393 . S
C468 H457 0.950 . S
C468 C466 1.391 . S
C468 C469 1.400 . S
C469 C463 1.491 . S
C469 C468 1.400 . S
C469 C470 1.398 . S
C470 H458 0.950 . S
C470 C469 1.398 . S
C470 C471 1.391 . S
C471 H459 0.950 . S
C471 C467 1.393 . S
C471 C470 1.391 . S
H472 C480 0.950 . S
H473 C485 0.950 . S
H474 C482 0.950 . S
H475 C484 0.950 . S
H476 C486 0.950 . S
H477 C488 0.950 . S
H478 C490 0.950 . S
H479 C491 0.950 . S
C480 H472 0.950 . S
C480 C481 1.386 . S
C480 C482 1.391 . S
C481 C480 1.386 . S
C481 C485 1.393 . S
C482 H474 0.950 . S
C482 C480 1.391 . S
C482 C483 1.400 . S
C483 C482 1.400 . S
C483 C484 1.398 . S
C483 C489 1.491 . S
C484 H475 0.950 . S
C484 C483 1.398 . S
C484 C485 1.391 . S
C485 H473 0.950 . S
C485 C481 1.393 . S
C485 C484 1.391 . S
C486 H476 0.950 . S
C486 C487 1.386 . S
C486 C488 1.391 . S
C487 C486 1.386 . S
C487 C491 1.393 . S
C488 H477 0.950 . S
C488 C486 1.391 . S
C488 C489 1.400 . S
C489 C483 1.491 . S
C489 C488 1.400 . S
C489 C490 1.398 . S
C490 H478 0.950 . S
C490 C489 1.398 . S
C490 C491 1.391 . S
C491 H479 0.950 . S
C491 C487 1.393 . S
C491 C490 1.391 . S
H492 C500 0.950 . S
H493 C505 0.950 . S
H494 C502 0.950 . S
H495 C504 0.950 . S
H496 C506 0.950 . S
H497 C508 0.950 . S
H498 C510 0.950 . S
H499 C511 0.950 . S
C500 H492 0.950 . S
C500 C501 1.386 . S
C500 C502 1.391 . S
C501 C500 1.386 . S
C501 C505 1.393 . S
C502 H494 0.950 . S
C502 C500 1.391 . S
C502 C503 1.400 . S
C503 C502 1.400 . S
C503 C504 1.398 . S
C503 C509 1.491 . S
C504 H495 0.950 . S
C504 C503 1.398 . S
C504 C505 1.391 . S
C505 H493 0.950 . S
C505 C501 1.393 . S
C505 C504 1.391 . S
C506 H496 0.950 . S
C506 C507 1.386 . S
C506 C508 1.391 . S
C507 C506 1.386 . S
C507 C511 1.393 . S
C508 H497 0.950 . S
C508 C506 1.391 . S
C508 C509 1.400 . S
C509 C503 1.491 . S
C509 C508 1.400 . S
C509 C510 1.398 . S
C510 H498 0.950 . S
C510 C509 1.398 . S
C510 C511 1.391 . S
C511 H499 0.950 . S
C511 C507 1.393 . S
C511 C510 1.391 . S
H512 C520 0.950 . S
H513 C525 0.950 . S
H514 C522 0.950 . S
H515 C524 0.950 . S
H516 C526 0.950 . S
H517 C528 0.942 1_455 S
H518 C530 0.950 . S
H519 C531 0.950 . S
C520 H512 0.950 . S
C520 C521 1.386 1_554 S
C520 C522 1.391 . S
C521 C520 1.386 1_556 S
C521 C525 1.393 . S
C522 H514 0.950 . S
C522 C520 1.391 . S
C522 C523 1.400 1_554 S
C523 C522 1.400 1_556 S
C523 C524 1.398 . S
C523 C529 1.491 . S
C524 H515 0.950 . S
C524 C523 1.398 . S
C524 C525 1.391 . S
C525 H513 0.950 . S
C525 C521 1.393 . S
C525 C524 1.391 . S
C526 H516 0.950 . S
C526 C527 1.386 . S
C526 C528 1.391 . S
C527 C526 1.386 . S
C527 C531 1.393 1_556 S
C528 H517 0.942 1_655 S
C528 C526 1.391 . S
C528 C529 1.400 1_655 S
C529 C523 1.491 . S
C529 C528 1.400 1_455 S
C529 C530 1.398 1_456 S
C530 H518 0.950 . S
C530 C529 1.398 1_654 S
C530 C531 1.391 . S
C531 H519 0.950 . S
C531 C527 1.393 1_554 S
C531 C530 1.391 . S
H532 C540 0.950 . S
H533 C545 0.950 . S
H534 C542 0.950 . S
H535 C544 0.950 . S
H536 C546 0.950 . S
H537 C548 0.950 . S
H538 C550 0.950 . S
H539 C551 0.950 . S
C540 H532 0.950 . S
C540 C541 1.386 1_556 S
C540 C542 1.391 . S
C541 C540 1.386 1_554 S
C541 C545 1.393 . S
C542 H534 0.950 . S
C542 C540 1.391 . S
C542 C543 1.400 1_556 S
C543 C542 1.400 1_554 S
C543 C544 1.398 . S
C543 C549 1.491 1_545 S
C544 H535 0.950 . S
C544 C543 1.398 . S
C544 C545 1.391 . S
C545 H533 0.950 . S
C545 C541 1.393 . S
C545 C544 1.391 . S
C546 H536 0.950 . S
C546 C547 1.386 1_554 S
C546 C548 1.391 . S
C547 C546 1.386 1_556 S
C547 C551 1.393 . S
C548 H537 0.950 . S
C548 C546 1.391 . S
C548 C549 1.400 . S
C549 C543 1.491 1_565 S
C549 C548 1.400 . S
C549 C550 1.398 1_554 S
C550 H538 0.950 . S
C550 C549 1.398 1_556 S
C550 C551 1.391 . S
C551 H539 0.950 . S
C551 C547 1.393 . S
C551 C550 1.391 . S
H552 C560 0.950 . S
H553 C565 0.950 . S
H554 C562 0.950 . S
H555 C564 0.950 . S
H556 C566 0.950 . S
H557 C568 0.950 . S
H558 C570 0.950 . S
H559 C571 0.950 . S
C560 H552 0.950 . S
C560 C561 1.386 . S
C560 C562 1.391 . S
C561 C560 1.386 . S
C561 C565 1.393 . S
C562 H554 0.950 . S
C562 C560 1.391 . S
C562 C563 1.400 . S
C563 C562 1.400 . S
C563 C564 1.398 . S
C563 C569 1.491 . S
C564 H555 0.950 . S
C564 C563 1.398 . S
C564 C565 1.391 . S
C565 H553 0.950 . S
C565 C561 1.393 . S
C565 C564 1.391 . S
C566 H556 0.950 . S
C566 C567 1.386 . S
C566 C568 1.391 . S
C567 C566 1.386 . S
C567 C571 1.393 . S
C568 H557 0.950 . S
C568 C566 1.391 . S
C568 C569 1.400 . S
C569 C563 1.491 . S
C569 C568 1.400 . S
C569 C570 1.398 . S
C570 H558 0.950 . S
C570 C569 1.398 . S
C570 C571 1.391 . S
C571 H559 0.950 . S
C571 C567 1.393 . S
C571 C570 1.391 . S
H572 C580 0.950 . S
H573 C585 0.950 . S
H574 C582 0.950 . S
H575 C584 0.950 . S
H576 C586 0.950 . S
H577 C588 0.950 . S
H578 C590 0.950 . S
H579 C591 0.950 . S
C580 H572 0.950 . S
C580 C581 1.386 . S
C580 C582 1.391 . S
C581 C580 1.386 . S
C581 C585 1.393 . S
C582 H574 0.950 . S
C582 C580 1.391 . S
C582 C583 1.400 . S
C583 C582 1.400 . S
C583 C584 1.398 . S
C583 C589 1.491 . S
C584 H575 0.950 . S
C584 C583 1.398 . S
C584 C585 1.391 . S
C585 H573 0.950 . S
C585 C581 1.393 . S
C585 C584 1.391 . S
C586 H576 0.950 . S
C586 C587 1.386 . S
C586 C588 1.391 . S
C587 C586 1.386 . S
C587 C591 1.393 . S
C588 H577 0.950 . S
C588 C586 1.391 . S
C588 C589 1.400 1_545 S
C589 C583 1.491 . S
C589 C588 1.400 1_565 S
C589 C590 1.398 . S
C590 H578 0.950 . S
C590 C589 1.398 . S
C590 C591 1.391 1_565 S
C591 H579 0.950 . S
C591 C587 1.393 . S
C591 C590 1.391 1_545 S
H592 C600 0.950 . S
H593 C605 0.950 . S
H594 C602 0.950 . S
H595 C604 0.950 . S
H596 C606 0.950 . S
H597 C608 0.950 . S
H598 C610 0.950 . S
H599 C611 0.950 . S
C600 H592 0.950 . S
C600 C601 1.386 . S
C600 C602 1.391 . S
C601 C600 1.386 . S
C601 C605 1.393 . S
C602 H594 0.950 . S
C602 C600 1.391 . S
C602 C603 1.400 . S
C603 C602 1.400 . S
C603 C604 1.398 . S
C603 C609 1.491 . S
C604 H595 0.950 . S
C604 C603 1.398 . S
C604 C605 1.391 . S
C605 H593 0.950 . S
C605 C601 1.393 . S
C605 C604 1.391 . S
C606 H596 0.950 . S
C606 C607 1.386 . S
C606 C608 1.391 . S
C607 C606 1.386 . S
C607 C611 1.393 . S
C608 H597 0.950 . S
C608 C606 1.391 . S
C608 C609 1.400 . S
C609 C603 1.491 . S
C609 C608 1.400 . S
C609 C610 1.398 . S
C610 H598 0.950 . S
C610 C609 1.398 . S
C610 C611 1.391 . S
C611 H599 0.950 . S
C611 C607 1.393 . S
C611 C610 1.391 . S
H612 C620 0.950 . S
H613 C625 0.950 . S
H614 C622 0.950 . S
H615 C624 0.950 . S
H616 C626 0.950 . S
H617 C628 0.950 . S
H618 C630 0.950 . S
H619 C631 0.950 . S
C620 H612 0.950 . S
C620 C621 1.386 . S
C620 C622 1.391 . S
C621 C620 1.386 . S
C621 C625 1.393 . S
C622 H614 0.950 . S
C622 C620 1.391 . S
C622 C623 1.400 . S
C623 C622 1.400 . S
C623 C624 1.398 . S
C623 C629 1.491 . S
C624 H615 0.950 . S
C624 C623 1.398 . S
C624 C625 1.391 . S
C625 H613 0.950 . S
C625 C621 1.393 . S
C625 C624 1.391 . S
C626 H616 0.950 . S
C626 C627 1.386 . S
C626 C628 1.391 . S
C627 C626 1.386 . S
C627 C631 1.393 . S
C628 H617 0.950 . S
C628 C626 1.391 . S
C628 C629 1.400 . S
C629 C623 1.491 . S
C629 C628 1.400 . S
C629 C630 1.398 . S
C630 H618 0.950 . S
C630 C629 1.398 . S
C630 C631 1.391 . S
C631 H619 0.950 . S
C631 C627 1.393 . S
C631 C630 1.391 . S
H632 C640 0.950 . S
H633 C645 0.950 . S
H634 C642 0.950 . S
H635 C644 0.950 . S
H636 C646 0.950 . S
H637 C648 0.950 . S
H638 C650 0.950 . S
H639 C651 0.950 . S
C640 H632 0.950 . S
C640 C641 1.386 . S
C640 C642 1.391 . S
C641 C640 1.386 . S
C641 C645 1.393 . S
C642 H634 0.950 . S
C642 C640 1.391 . S
C642 C643 1.400 . S
C643 C642 1.400 . S
C643 C644 1.398 . S
C643 C649 1.491 . S
C644 H635 0.950 . S
C644 C643 1.398 . S
C644 C645 1.391 . S
C645 H633 0.950 . S
C645 C641 1.393 . S
C645 C644 1.391 . S
C646 H636 0.950 . S
C646 C647 1.357 1_455 S
C646 C648 1.391 . S
C647 C646 1.357 1_655 S
C647 C651 1.399 . S
C648 H637 0.950 . S
C648 C646 1.391 . S
C648 C649 1.400 . S
C649 C643 1.491 . S
C649 C648 1.400 . S
C649 C650 1.398 . S
C650 H638 0.950 . S
C650 C649 1.398 . S
C650 C651 1.391 1_455 S
C651 H639 0.950 . S
C651 C647 1.399 . S
C651 C650 1.391 1_655 S
H652 C660 0.950 . S
H653 C665 0.950 . S
H654 C662 0.950 . S
H655 C664 0.950 . S
H656 C666 0.950 . S
H657 C668 0.950 . S
H658 C670 0.950 . S
H659 C671 0.950 . S
C660 H652 0.950 . S
C660 C661 1.386 . S
C660 C662 1.391 . S
C661 C660 1.386 . S
C661 C665 1.393 . S
C662 H654 0.950 . S
C662 C660 1.391 . S
C662 C663 1.400 . S
C663 C662 1.400 . S
C663 C664 1.398 . S
C663 C669 1.491 . S
C664 H655 0.950 . S
C664 C663 1.398 . S
C664 C665 1.391 . S
C665 H653 0.950 . S
C665 C661 1.393 . S
C665 C664 1.391 . S
C666 H656 0.950 . S
C666 C667 1.386 . S
C666 C668 1.391 . S
C667 C666 1.386 . S
C667 C671 1.393 . S
C668 H657 0.950 . S
C668 C666 1.391 . S
C668 C669 1.400 . S
C669 C663 1.491 . S
C669 C668 1.400 . S
C669 C670 1.398 . S
C670 H658 0.950 . S
C670 C669 1.398 . S
C670 C671 1.391 . S
C671 H659 0.950 . S
C671 C667 1.393 . S
C671 C670 1.391 . S
H672 C680 0.950 . S
H673 C685 0.950 . S
H674 C682 0.950 . S
H675 C684 0.950 1_455 S
H676 C686 0.950 . S
H677 C688 0.950 . S
H678 C690 0.950 . S
H679 C691 0.950 . S
C680 H672 0.950 . S
C680 C681 1.386 . S
C680 C682 1.391 . S
C681 C680 1.386 . S
C681 C685 1.393 . S
C682 H674 0.950 . S
C682 C680 1.391 . S
C682 C683 1.421 . S
C683 C682 1.421 . S
C683 C684 1.410 . S
C683 C689 1.460 1_655 S
C684 H675 0.950 1_655 S
C684 C683 1.410 . S
C684 C685 1.391 . S
C685 H673 0.950 . S
C685 C681 1.393 . S
C685 C684 1.391 . S
C686 H676 0.950 . S
C686 C687 1.386 . S
C686 C688 1.391 . S
C687 C686 1.386 . S
C687 C691 1.393 . S
C688 H677 0.950 . S
C688 C686 1.391 . S
C688 C689 1.400 . S
C689 C683 1.460 1_455 S
C689 C688 1.400 . S
C689 C690 1.398 . S
C690 H678 0.950 . S
C690 C689 1.398 . S
C690 C691 1.391 . S
C691 H679 0.950 . S
C691 C687 1.393 . S
C691 C690 1.391 . S
H692 C700 0.950 . S
H693 C705 0.950 . S
H694 C702 0.950 . S
H695 C704 0.950 . S
H696 C706 0.950 . S
H697 C708 0.950 . S
H698 C710 0.950 . S
H699 C711 0.950 . S
C700 H692 0.950 . S
C700 C701 1.386 . S
C700 C702 1.391 . S
C701 C700 1.386 . S
C701 C705 1.393 . S
C702 H694 0.950 . S
C702 C700 1.391 . S
C702 C703 1.400 . S
C703 C702 1.400 . S
C703 C704 1.398 . S
C703 C709 1.491 . S
C704 H695 0.950 . S
C704 C703 1.398 . S
C704 C705 1.391 . S
C705 H693 0.950 . S
C705 C701 1.393 . S
C705 C704 1.391 . S
C706 H696 0.950 . S
C706 C707 1.386 . S
C706 C708 1.391 . S
C707 C706 1.386 . S
C707 C711 1.393 . S
C708 H697 0.950 . S
C708 C706 1.391 . S
C708 C709 1.400 . S
C709 C703 1.491 . S
C709 C708 1.400 . S
C709 C710 1.398 . S
C710 H698 0.950 . S
C710 C709 1.398 . S
C710 C711 1.391 . S
C711 H699 0.950 . S
C711 C707 1.393 . S
C711 C710 1.391 . S
H712 C720 0.950 . S
H713 C725 0.950 . S
H714 C722 0.950 . S
H715 C724 0.950 . S
H716 C726 0.950 . S
H717 C728 0.950 . S
H718 C730 0.950 . S
H719 C731 0.950 . S
C720 H712 0.950 . S
C720 C721 1.386 . S
C720 C722 1.391 . S
C721 C720 1.386 . S
C721 C725 1.393 . S
C722 H714 0.950 . S
C722 C720 1.391 . S
C722 C723 1.400 . S
C723 C722 1.400 . S
C723 C724 1.398 . S
C723 C729 1.491 . S
C724 H715 0.950 . S
C724 C723 1.398 . S
C724 C725 1.391 . S
C725 H713 0.950 . S
C725 C721 1.393 . S
C725 C724 1.391 . S
C726 H716 0.950 . S
C726 C727 1.386 . S
C726 C728 1.391 . S
C727 C726 1.386 . S
C727 C731 1.393 . S
C728 H717 0.950 . S
C728 C726 1.391 . S
C728 C729 1.400 . S
C729 C723 1.491 . S
C729 C728 1.400 . S
C729 C730 1.398 . S
C730 H718 0.950 . S
C730 C729 1.398 . S
C730 C731 1.391 . S
C731 H719 0.950 . S
C731 C727 1.393 . S
C731 C730 1.391 . S
H732 C740 0.950 . S
H733 C745 0.950 . S
H734 C742 0.950 . S
H735 C744 0.950 . S
H736 C746 0.950 . S
H737 C748 0.950 . S
H738 C750 0.950 . S
H739 C751 0.950 . S
C740 H732 0.950 . S
C740 C741 1.386 . S
C740 C742 1.391 . S
C741 C740 1.386 . S
C741 C745 1.393 . S
C742 H734 0.950 . S
C742 C740 1.391 . S
C742 C743 1.400 . S
C743 C742 1.400 . S
C743 C744 1.398 . S
C743 C749 1.491 . S
C744 H735 0.950 . S
C744 C743 1.398 . S
C744 C745 1.391 . S
C745 H733 0.950 . S
C745 C741 1.393 . S
C745 C744 1.391 . S
C746 H736 0.950 . S
C746 C747 1.386 . S
C746 C748 1.391 . S
C747 C746 1.386 . S
C747 C751 1.393 . S
C748 H737 0.950 . S
C748 C746 1.391 . S
C748 C749 1.400 . S
C749 C743 1.491 . S
C749 C748 1.400 . S
C749 C750 1.398 . S
C750 H738 0.950 . S
C750 C749 1.398 . S
C750 C751 1.391 . S
C751 H739 0.950 . S
C751 C747 1.393 . S
C751 C750 1.391 . S
H752 C760 0.950 . S
H753 C765 0.950 . S
H754 C762 0.950 . S
H755 C764 0.950 . S
H756 C766 0.950 . S
H757 C768 0.950 . S
H758 C770 0.950 . S
H759 C771 0.950 . S
C760 H752 0.950 . S
C760 C761 1.386 . S
C760 C762 1.391 . S
C761 C760 1.386 . S
C761 C765 1.393 . S
C762 H754 0.950 . S
C762 C760 1.391 . S
C762 C763 1.400 . S
C763 C762 1.400 . S
C763 C764 1.398 . S
C763 C769 1.491 . S
C764 H755 0.950 . S
C764 C763 1.398 . S
C764 C765 1.391 . S
C765 H753 0.950 . S
C765 C761 1.393 . S
C765 C764 1.391 . S
C766 H756 0.950 . S
C766 C767 1.386 . S
C766 C768 1.391 . S
C767 C766 1.386 . S
C767 C771 1.393 . S
C768 H757 0.950 . S
C768 C766 1.391 . S
C768 C769 1.400 . S
C769 C763 1.491 . S
C769 C768 1.400 . S
C769 C770 1.398 . S
C770 H758 0.950 . S
C770 C769 1.398 . S
C770 C771 1.391 . S
C771 H759 0.950 . S
C771 C767 1.393 . S
C771 C770 1.391 . S
H772 C780 0.950 . S
H773 C785 0.950 . S
H774 C782 0.950 . S
H775 C784 0.950 . S
H776 C786 0.950 . S
H777 C788 0.950 . S
H778 C790 0.950 . S
H779 C791 0.950 . S
C780 H772 0.950 . S
C780 C781 1.386 . S
C780 C782 1.391 . S
C781 C780 1.386 . S
C781 C785 1.393 . S
C782 H774 0.950 . S
C782 C780 1.391 . S
C782 C783 1.400 . S
C783 C782 1.400 . S
C783 C784 1.398 . S
C783 C789 1.491 . S
C784 H775 0.950 . S
C784 C783 1.398 . S
C784 C785 1.391 . S
C785 H773 0.950 . S
C785 C781 1.393 . S
C785 C784 1.391 . S
C786 H776 0.950 . S
C786 C787 1.386 . S
C786 C788 1.391 . S
C787 C786 1.386 . S
C787 C791 1.393 . S
C788 H777 0.950 . S
C788 C786 1.391 . S
C788 C789 1.400 . S
C789 C783 1.491 . S
C789 C788 1.400 . S
C789 C790 1.398 . S
C790 H778 0.950 . S
C790 C789 1.398 . S
C790 C791 1.391 . S
C791 H779 0.950 . S
C791 C787 1.393 . S
C791 C790 1.391 . S
H792 C800 0.950 . S
H793 C805 0.950 . S
H794 C802 0.950 . S
H795 C804 0.950 . S
H796 C806 0.950 . S
H797 C808 0.950 . S
H798 C810 0.950 . S
H799 C811 0.950 1_554 S
C800 H792 0.950 . S
C800 C801 1.386 . S
C800 C802 1.391 . S
C801 C800 1.386 . S
C801 C805 1.393 1_554 S
C802 H794 0.950 . S
C802 C800 1.391 . S
C802 C803 1.400 . S
C803 C802 1.400 . S
C803 C804 1.398 1_554 S
C803 C809 1.491 1_554 S
C804 H795 0.950 . S
C804 C803 1.398 1_556 S
C804 C805 1.391 . S
C805 H793 0.950 . S
C805 C801 1.393 1_556 S
C805 C804 1.391 . S
C806 H796 0.950 . S
C806 C807 1.386 . S
C806 C808 1.391 . S
C807 C806 1.386 . S
C807 C811 1.393 . S
C808 H797 0.950 . S
C808 C806 1.391 . S
C808 C809 1.400 . S
C809 C803 1.491 1_556 S
C809 C808 1.400 . S
C809 C810 1.398 1_556 S
C810 H798 0.950 . S
C810 C809 1.398 1_554 S
C810 C811 1.391 1_554 S
C811 H799 0.950 1_556 S
C811 C807 1.393 . S
C811 C810 1.391 1_556 S
H812 C820 0.950 . S
H813 C825 0.950 . S
H814 C822 0.950 . S
H815 C824 0.950 . S
H816 C826 0.950 . S
H817 C828 0.950 . S
H818 C830 0.950 . S
H819 C831 0.950 . S
C820 H812 0.950 . S
C820 C821 1.386 . S
C820 C822 1.391 . S
C821 C820 1.386 . S
C821 C825 1.393 . S
C822 H814 0.950 . S
C822 C820 1.391 . S
C822 C823 1.400 . S
C823 C822 1.400 . S
C823 C824 1.398 . S
C823 C829 1.491 . S
C824 H815 0.950 . S
C824 C823 1.398 . S
C824 C825 1.391 . S
C825 H813 0.950 . S
C825 C821 1.393 . S
C825 C824 1.391 . S
C826 H816 0.950 . S
C826 C827 1.386 . S
C826 C828 1.391 . S
C827 C826 1.386 . S
C827 C831 1.393 . S
C828 H817 0.950 . S
C828 C826 1.391 . S
C828 C829 1.400 . S
C829 C823 1.491 . S
C829 C828 1.400 . S
C829 C830 1.398 . S
C830 H818 0.950 . S
C830 C829 1.398 . S
C830 C831 1.391 . S
C831 H819 0.950 . S
C831 C827 1.393 . S
C831 C830 1.391 . S
H832 C840 0.950 . S
H833 C845 0.950 . S
H834 C842 0.950 . S
H835 C844 0.950 . S
H836 C846 0.950 . S
H837 C848 0.950 . S
H838 C850 0.950 . S
H839 C851 0.950 . S
C840 H832 0.950 . S
C840 C841 1.386 . S
C840 C842 1.391 . S
C841 C840 1.386 . S
C841 C845 1.393 . S
C842 H834 0.950 . S
C842 C840 1.391 . S
C842 C843 1.400 . S
C843 C842 1.400 . S
C843 C844 1.398 . S
C843 C849 1.491 . S
C844 H835 0.950 . S
C844 C843 1.398 . S
C844 C845 1.391 . S
C845 H833 0.950 . S
C845 C841 1.393 . S
C845 C844 1.391 . S
C846 H836 0.950 . S
C846 C847 1.386 . S
C846 C848 1.391 . S
C847 C846 1.386 . S
C847 C851 1.393 . S
C848 H837 0.950 . S
C848 C846 1.391 . S
C848 C849 1.400 . S
C849 C843 1.491 . S
C849 C848 1.400 . S
C849 C850 1.398 . S
C850 H838 0.950 . S
C850 C849 1.398 . S
C850 C851 1.391 . S
C851 H839 0.950 . S
C851 C847 1.393 . S
C851 C850 1.391 . S
C381 C7 1.064 . S
C387 C115 1.056 . S
C401 C25 0.986 . S
C407 C151 0.951 . S
C421 C46 0.765 . S
C427 C187 0.819 1_545 S
C447 C217 0.974 . S
C441 C70 0.972 . S
C467 C259 1.065 . S
C461 C28 1.114 . S
C481 C49 0.926 . S
C487 C289 0.949 . S
C501 C67 0.746 . S
C507 C325 0.785 . S
C521 C4 0.952 . S
C527 C367 0.983 . S
C541 C58 1.962 . S
C547 C337 1.988 . S
C567 C229 1.892 . S
C561 C66 1.803 . S
C587 C295 1.874 . S
C581 C3 1.760 . S
C601 C37 1.593 . S
C607 C331 1.660 . S
C627 C121 1.984 . S
C621 C79 1.968 . S
C641 C16 1.564 . S
C647 C181 1.655 . S
C667 C223 1.873 . S
C661 C24 1.758 . S
C687 C85 1.894 . S
C681 C45 1.800 . S
C707 C301 1.128 . S
C701 C19 1.073 . S
C727 C361 1.355 . S
C721 C41 1.136 . S
C741 C62 1.304 . S
C747 C253 1.549 . S
C767 C265 1.313 . S
C761 C82 1.249 . S
C787 C157 1.133 . S
C781 C40 1.047 . S
C801 C61 1.255 . S
C807 C193 1.326 . S
C827 C109 1.528 . S
C821 C83 1.293 . S
C847 C145 1.387 . S
C841 C20 1.202 . S
