# Generated by pormake.
# Topology pyr, (3,6)-cn, num edge types: 1
# Building blocks:
#     Node 0, Type 0, BuildingBlock: BETDAH_clean_linker_0, # of connection points: 3
#     Node 1, Type 0, BuildingBlock: BETDAH_clean_linker_0, # of connection points: 3
#     Node 2, Type 0, BuildingBlock: BETDAH_clean_linker_0, # of connection points: 3
#     Node 3, Type 0, BuildingBlock: BETDAH_clean_linker_0, # of connection points: 3
#     Node 4, Type 0, BuildingBlock: BETDAH_clean_linker_0, # of connection points: 3
#     Node 5, Type 0, BuildingBlock: BETDAH_clean_linker_0, # of connection points: 3
#     Node 6, Type 0, BuildingBlock: BETDAH_clean_linker_0, # of connection points: 3
#     Node 7, Type 0, BuildingBlock: BETDAH_clean_linker_0, # of connection points: 3
#     Node 8, Type 1, BuildingBlock: PAMTOO_clean_sbu_0, # of connection points: 6
#     Node 9, Type 1, BuildingBlock: PAMTOO_clean_sbu_0, # of connection points: 6
#     Node 10, Type 1, BuildingBlock: PAMTOO_clean_sbu_0, # of connection points: 6
#     Node 11, Type 1, BuildingBlock: PAMTOO_clean_sbu_0, # of connection points: 6
#     Edge 12, Type (0, 1), BuildingBlock: UVAHIK_clean_linker_0, # of connection points: 2
#     Edge 13, Type (0, 1), BuildingBlock: UVAHIK_clean_linker_0, # of connection points: 2
#     Edge 14, Type (0, 1), BuildingBlock: UVAHIK_clean_linker_0, # of connection points: 2
#     Edge 15, Type (0, 1), BuildingBlock: UVAHIK_clean_linker_0, # of connection points: 2
#     Edge 16, Type (0, 1), BuildingBlock: UVAHIK_clean_linker_0, # of connection points: 2
#     Edge 17, Type (0, 1), BuildingBlock: UVAHIK_clean_linker_0, # of connection points: 2
#     Edge 18, Type (0, 1), BuildingBlock: UVAHIK_clean_linker_0, # of connection points: 2
#     Edge 19, Type (0, 1), BuildingBlock: UVAHIK_clean_linker_0, # of connection points: 2
#     Edge 20, Type (0, 1), BuildingBlock: UVAHIK_clean_linker_0, # of connection points: 2
#     Edge 21, Type (0, 1), BuildingBlock: UVAHIK_clean_linker_0, # of connection points: 2
#     Edge 22, Type (0, 1), BuildingBlock: UVAHIK_clean_linker_0, # of connection points: 2
#     Edge 23, Type (0, 1), BuildingBlock: UVAHIK_clean_linker_0, # of connection points: 2
#     Edge 24, Type (0, 1), BuildingBlock: UVAHIK_clean_linker_0, # of connection points: 2
#     Edge 25, Type (0, 1), BuildingBlock: UVAHIK_clean_linker_0, # of connection points: 2
#     Edge 26, Type (0, 1), BuildingBlock: UVAHIK_clean_linker_0, # of connection points: 2
#     Edge 27, Type (0, 1), BuildingBlock: UVAHIK_clean_linker_0, # of connection points: 2
#     Edge 28, Type (0, 1), BuildingBlock: UVAHIK_clean_linker_0, # of connection points: 2
#     Edge 29, Type (0, 1), BuildingBlock: UVAHIK_clean_linker_0, # of connection points: 2
#     Edge 30, Type (0, 1), BuildingBlock: UVAHIK_clean_linker_0, # of connection points: 2
#     Edge 31, Type (0, 1), BuildingBlock: UVAHIK_clean_linker_0, # of connection points: 2
#     Edge 32, Type (0, 1), BuildingBlock: UVAHIK_clean_linker_0, # of connection points: 2
#     Edge 33, Type (0, 1), BuildingBlock: UVAHIK_clean_linker_0, # of connection points: 2
#     Edge 34, Type (0, 1), BuildingBlock: UVAHIK_clean_linker_0, # of connection points: 2
#     Edge 35, Type (0, 1), BuildingBlock: UVAHIK_clean_linker_0, # of connection points: 2
# Relax obj value: 0.095
# Max RMSD: 0.187
# Mean RMSD: 0.126
data_MOF--net-pyr--node1-PAMTOO_clean_sbu_0--node2-BETDAH_clean_linker_0--edge1-UVAHIK_clean_linker_0
_symmetry_space_group_name_H-M    P1
_symmetry_Int_Tables_number       1
_symmetry_cell_setting            triclinic
loop_
_symmetry_equiv_pos_as_xyz
'x, y, z'
_cell_length_a     46.407895
_cell_length_b     50.236956
_cell_length_c     52.181807
_cell_angle_alpha  90.405131
_cell_angle_beta   90.584424
_cell_angle_gamma 107.93512
loop_
_atom_site_label
_atom_site_type_symbol
_atom_site_fract_x
_atom_site_fract_y
_atom_site_fract_z
_atom_type_partial_charge
H0 H 0.33945 0.23491 0.23923 0.0
H1 H 0.38186 0.2995 0.18586 0.0
H2 H 0.31271 0.3097 0.2356 0.0
C3 C 0.34188 0.25533 0.23121 0.0
C4 C 0.32368 0.27118 0.24007 0.0
C5 C 0.36263 0.26527 0.21152 0.0
C6 C 0.36594 0.29169 0.20117 0.0
C7 C 0.348 0.30771 0.2097 0.0
C8 C 0.32683 0.29743 0.22916 0.0
N9 N 0.35118 0.33377 0.19794 0.0
C10 C 0.32667 0.34348 0.19346 0.0
H11 H 0.26441 0.79687 0.72995 0.0
H12 H 0.17844 0.812 0.73588 0.0
H13 H 0.19029 0.75238 0.68054 0.0
C14 C 0.24115 0.79278 0.72349 0.0
C15 C 0.22978 0.77335 0.70363 0.0
C16 C 0.22282 0.80666 0.7354 0.0
C17 C 0.19267 0.80105 0.7271 0.0
C18 C 0.18092 0.78144 0.70727 0.0
C19 C 0.1993 0.76715 0.69606 0.0
N20 N 0.15111 0.77672 0.69762 0.0
C21 C 0.13969 0.79883 0.69335 0.0
H22 H 0.69703 0.37158 0.90004 0.0
H23 H 0.6871 0.43501 0.8486 0.0
H24 H 0.61383 0.3588 0.85785 0.0
C25 C 0.6838 0.37852 0.88582 0.0
C26 C 0.6543 0.36149 0.8799 0.0
C27 C 0.69598 0.40501 0.87471 0.0
C28 C 0.67819 0.41452 0.85706 0.0
C29 C 0.64846 0.39766 0.85099 0.0
C30 C 0.63673 0.37151 0.86265 0.0
N31 N 0.62874 0.40679 0.83468 0.0
C32 C 0.63715 0.4241 0.81353 0.0
H33 H 0.83811 0.72049 0.40271 0.0
H34 H 0.92249 0.73062 0.36484 0.0
H35 H 0.84736 0.65648 0.35086 0.0
C36 C 0.85157 0.71287 0.38936 0.0
C37 C 0.8389 0.6866 0.37735 0.0
C38 C 0.88159 0.72912 0.38493 0.0
C39 C 0.899 0.71879 0.36798 0.0
C40 C 0.88673 0.693 0.35528 0.0
C41 C 0.85661 0.6768 0.36001 0.0
N42 N 0.90639 0.68316 0.33977 0.0
C43 C 0.89843 0.66751 0.31721 0.0
H44 H 0.76914 0.79368 0.85805 0.0
H45 H 0.69785 0.76006 0.91182 0.0
H46 H 0.69369 0.82618 0.86136 0.0
C47 C 0.7477 0.79339 0.86627 0.0
C48 C 0.73283 0.81199 0.85716 0.0
C49 C 0.73549 0.77471 0.88607 0.0
C50 C 0.70767 0.77442 0.89657 0.0
C51 C 0.69266 0.79304 0.88794 0.0
C52 C 0.70525 0.81179 0.86815 0.0
N53 N 0.66508 0.79255 0.89968 0.0
C54 C 0.65539 0.81601 0.90171 0.0
H55 H 0.82196 0.22438 0.37577 0.0
H56 H 0.875 0.29438 0.42129 0.0
H57 H 0.79827 0.30056 0.37753 0.0
C58 C 0.82599 0.24555 0.38292 0.0
C59 C 0.80708 0.26099 0.37476 0.0
C60 C 0.85043 0.25725 0.39979 0.0
C61 C 0.85643 0.28511 0.40802 0.0
C62 C 0.83752 0.30071 0.40041 0.0
C63 C 0.81292 0.28861 0.38362 0.0
N64 N 0.84324 0.3282 0.41045 0.0
C65 C 0.82062 0.34083 0.41248 0.0
H66 H 0.35194 0.73373 0.18745 0.0
H67 H 0.34956 0.68303 0.25401 0.0
H68 H 0.41729 0.76351 0.24841 0.0
C69 C 0.36166 0.73064 0.20575 0.0
C70 C 0.38645 0.75183 0.21603 0.0
C71 C 0.3483 0.70581 0.21916 0.0
C72 C 0.35991 0.70203 0.2435 0.0
C73 C 0.38502 0.72303 0.25398 0.0
C74 C 0.39789 0.74766 0.2402 0.0
N75 N 0.39806 0.72091 0.27838 0.0
C76 C 0.39195 0.69752 0.29404 0.0
H77 H 0.19285 0.3685 0.68702 0.0
H78 H 0.19123 0.42425 0.74988 0.0
H79 H 0.12891 0.3406 0.74739 0.0
C80 C 0.18327 0.37261 0.70491 0.0
C81 C 0.1595 0.3514 0.71561 0.0
C82 C 0.19482 0.39905 0.71684 0.0
C83 C 0.18247 0.40407 0.7404 0.0
C84 C 0.1584 0.38284 0.75131 0.0
C85 C 0.14718 0.35684 0.73874 0.0
N86 N 0.14449 0.38613 0.77481 0.0
C87 C 0.15073 0.40978 0.79056 0.0
Dy88 Dy 0.05274 0.05106 0.52754 0.0
Dy89 Dy 0.99016 0.03706 0.56119 0.0
C90 C 0.0447 0.09279 0.57113 0.0
O91 O 0.05517 0.01754 0.55434 0.0
O92 O 0.02255 0.0229 0.58548 0.0
O93 O 0.10122 0.06916 0.52349 0.0
O94 O 0.07387 0.04638 0.49192 0.0
O95 O 0.98915 0.99664 0.54266 0.0
O96 O 0.01726 0.01585 0.50795 0.0
O97 O 0.98092 0.05418 0.52363 0.0
O98 O 0.02916 0.0809 0.51399 0.0
O99 O 0.94187 0.01711 0.56483 0.0
O100 O 0.9674 0.04469 0.59485 0.0
C101 C 0.0441 0.013 0.57755 0.0
O102 O 0.0633 0.08052 0.56122 0.0
O103 O 0.01532 0.0822 0.56783 0.0
C104 C 0.11687 0.08327 0.48143 0.0
C105 C 0.14499 0.1216 0.44333 0.0
C106 C 0.12321 0.12708 0.45934 0.0
C107 C 0.10911 0.10794 0.4782 0.0
C108 C 0.13909 0.07813 0.466 0.0
C109 C 0.15305 0.09711 0.44711 0.0
C110 C 0.10067 0.06175 0.49947 0.0
C111 C 0.99802 0.99444 0.51918 0.0
C112 C 0.99972 0.07501 0.51131 0.0
C113 C 0.92481 0.00739 0.60778 0.0
C114 C 0.89092 0.97204 0.64595 0.0
C115 C 0.88369 0.9662 0.61985 0.0
C116 C 0.90042 0.98374 0.60096 0.0
C117 C 0.93199 0.01318 0.63388 0.0
C118 C 0.91531 0.99569 0.65271 0.0
C119 C 0.94139 0.02698 0.58799 0.0
H120 H 0.11643 0.14569 0.45674 0.0
H121 H 0.09175 0.11207 0.48988 0.0
H122 H 0.14525 0.05914 0.46823 0.0
H123 H 0.17005 0.09253 0.43532 0.0
H124 H 0.86516 0.94803 0.61402 0.0
H125 H 0.89407 0.97892 0.58103 0.0
H126 H 0.95026 0.03149 0.63987 0.0
H127 H 0.92112 1.0011 0.67264 0.0
Dy128 Dy 0.48955 0.04597 0.02756 0.0
Dy129 Dy 0.5527 0.06359 0.06184 0.0
C130 C 0.49949 0.00773 0.07241 0.0
O131 O 0.47833 0.06426 0.06374 0.0
O132 O 0.52602 0.08966 0.07801 0.0
O133 O 0.44151 0.02505 0.02339 0.0
O134 O 0.4664 0.05083 0.99274 0.0
O135 O 0.56116 0.08837 0.02568 0.0
O136 O 0.51351 0.09136 0.02191 0.0
O137 O 0.55779 0.03096 0.03477 0.0
O138 O 0.52188 0.03129 1.00403 0.0
O139 O 0.59486 0.0945 0.07226 0.0
O140 O 0.58293 0.05337 0.08929 0.0
C141 C 0.49643 0.08369 0.07853 0.0
O142 O 0.49097 0.00768 0.04834 0.0
O143 O 0.51786 0.03046 0.08315 0.0
C144 C 0.42361 0.01298 0.98047 0.0
C145 C 0.38905 0.97561 0.94296 0.0
C146 C 0.3909 0.9666 0.9682 0.0
C147 C 0.40807 0.98511 0.98681 0.0
C148 C 0.42164 0.02192 0.95528 0.0
C149 C 0.40466 0.00344 0.93671 0.0
C150 C 0.44057 0.03352 0.99988 0.0
C151 C 0.54246 0.10127 0.01706 0.0
C152 C 0.54537 0.02401 1.01196 0.0
C153 C 0.61001 0.09186 0.11519 0.0
C154 C 0.62891 0.118 0.16304 0.0
C155 C 0.60825 0.12627 0.14763 0.0
C156 C 0.5987 0.11317 0.12396 0.0
C157 C 0.6302 0.08324 0.13073 0.0
C158 C 0.6395 0.09613 0.15452 0.0
C159 C 0.60148 0.07884 0.08975 0.0
H160 H 0.37923 0.94521 0.97349 0.0
H161 H 0.40899 0.97763 1.00612 0.0
H162 H 0.43299 0.04339 0.94999 0.0
H163 H 0.40328 0.01112 0.91754 0.0
H164 H 0.59952 0.14288 0.15387 0.0
H165 H 0.58279 0.11996 0.1124 0.0
H166 H 0.6391 0.0668 0.12431 0.0
H167 H 0.65565 0.08951 0.16593 0.0
Dy168 Dy 0.50883 0.51756 0.53284 0.0
Dy169 Dy 0.52143 0.57919 0.55978 0.0
C170 C 0.54817 0.53431 0.58501 0.0
O171 O 0.46437 0.51626 0.55015 0.0
O172 O 0.48376 0.54956 0.58124 0.0
O173 O 0.49949 0.47272 0.53505 0.0
O174 O 0.50444 0.49281 0.4982 0.0
O175 O 0.48396 0.57478 0.53107 0.0
O176 O 0.49749 0.54534 0.50369 0.0
O177 O 0.55567 0.58502 0.5287 0.0
O178 O 0.55775 0.54013 0.5261 0.0
O179 O 0.52835 0.62354 0.55641 0.0
O180 O 0.52744 0.60511 0.59384 0.0
C181 C 0.46171 0.52838 0.57204 0.0
O182 O 0.5277 0.51475 0.57204 0.0
O183 O 0.55394 0.56092 0.57949 0.0
C184 C 0.52633 0.45718 0.50326 0.0
C185 C 0.57306 0.43735 0.48527 0.0
C186 C 0.5788 0.45778 0.50484 0.0
C187 C 0.55568 0.46763 0.5137 0.0
C188 C 0.52022 0.43636 0.48418 0.0
C189 C 0.54341 0.42642 0.4753 0.0
C190 C 0.50316 0.47006 0.51053 0.0
C191 C 0.48371 0.5641 0.50802 0.0
C192 C 0.569 0.56685 0.52093 0.0
C193 C 0.50329 0.63932 0.5892 0.0
C194 C 0.45749 0.66071 0.60666 0.0
C195 C 0.45044 0.6375 0.58989 0.0
C196 C 0.4731 0.62685 0.58133 0.0
C197 C 0.5106 0.66258 0.60572 0.0
C198 C 0.48787 0.67324 0.61439 0.0
C199 C 0.52662 0.62705 0.58107 0.0
H200 H 0.60126 0.46631 0.5132 0.0
H201 H 0.56087 0.4839 0.52833 0.0
H202 H 0.49776 0.42834 0.47571 0.0
H203 H 0.53834 0.41086 0.46005 0.0
H204 H 0.42739 0.6276 0.58327 0.0
H205 H 0.46703 0.60872 0.56869 0.0
H206 H 0.53377 0.67224 0.61217 0.0
H207 H 0.494 0.69091 0.62755 0.0
Dy208 Dy 0.0282 0.58174 0.03271 0.0
Dy209 Dy 0.01847 0.52054 0.05937 0.0
C210 C 0.99176 0.56556 0.08528 0.0
O211 O 0.07354 0.58525 0.05021 0.0
O212 O 0.05819 0.5501 0.07973 0.0
O213 O 0.03692 0.62655 0.03486 0.0
O214 O 0.02975 0.60536 0.99808 0.0
O215 O 0.0548 0.52476 0.03031 0.0
O216 O 0.04055 0.55435 1.00357 0.0
O217 O 0.98348 0.51374 0.02815 0.0
O218 O 0.97928 0.5579 0.02648 0.0
O219 O 0.01193 0.4762 0.05579 0.0
O220 O 0.01309 0.49518 0.09328 0.0
C221 C 0.07847 0.57253 0.071 0.0
O222 O 0.01095 0.58516 0.07202 0.0
O223 O 0.98665 0.53889 0.07987 0.0
C224 C 0.00887 0.64172 1.00342 0.0
C225 C 0.96243 0.66261 0.9861 0.0
C226 C 0.9574 0.64374 1.00656 0.0
C227 C 0.98039 0.63326 0.01506 0.0
C228 C 0.01423 0.66101 0.98343 0.0
C229 C 0.99119 0.67139 0.97481 0.0
C230 C 0.03193 0.6285 1.01043 0.0
C231 C 0.0547 0.53579 1.00758 0.0
C232 C 0.96883 0.53108 0.02096 0.0
C233 C 0.036 0.45994 0.08925 0.0
C234 C 0.07989 0.43624 0.10729 0.0
C235 C 0.08842 0.46069 0.09253 0.0
C236 C 0.06667 0.47247 0.08365 0.0
C237 C 0.02729 0.43559 0.10391 0.0
C238 C 0.04909 0.42381 0.11292 0.0
C239 C 0.01341 0.47291 0.08048 0.0
H240 H 0.93539 0.63632 0.01541 0.0
H241 H 0.9757 0.61802 0.03029 0.0
H242 H 0.03601 0.66755 0.9741 0.0
H243 H 0.9958 0.68612 0.95918 0.0
H244 H 0.11199 0.471 0.08822 0.0
H245 H 0.07379 0.4915 0.07256 0.0
H246 H 1.00369 0.42577 0.10848 0.0
H247 H 0.04184 0.40486 0.12407 0.0
C248 C 0.2827 0.23173 0.25899 0.0
C249 C 0.30089 0.25983 0.26016 0.0
C250 C 0.26222 0.22047 0.2784 0.0
C251 C 0.249 0.22991 0.34648 0.0
H252 H 0.17154 0.17455 0.33125 0.0
C253 C 0.1695 0.16985 0.42611 0.0
C254 C 0.15868 0.14073 0.42217 0.0
C255 C 0.1837 0.18752 0.40627 0.0
C256 C 0.19311 0.18996 0.33581 0.0
H257 H 0.31141 0.29837 0.28232 0.0
H258 H 0.27534 0.27868 0.31631 0.0
H259 H 0.20211 0.20018 0.29635 0.0
H260 H 0.15306 0.1074 0.39414 0.0
H261 H 0.17798 0.13805 0.35972 0.0
H262 H 0.2403 0.21912 0.3859 0.0
C263 C 0.27716 0.26534 0.30041 0.0
C264 C 0.21063 0.20462 0.31583 0.0
C265 C 0.29762 0.27665 0.28088 0.0
C266 C 0.16154 0.12972 0.39784 0.0
C267 C 0.17548 0.14733 0.37803 0.0
C268 C 0.23143 0.21524 0.36649 0.0
C269 C 0.25942 0.23704 0.29948 0.0
C270 C 0.23912 0.22423 0.32088 0.0
C271 C 0.187 0.17639 0.38206 0.0
C272 C 0.20367 0.19459 0.36129 0.0
H273 H 0.2844 0.21834 0.24309 0.0
H274 H 0.24918 0.19853 0.27722 0.0
H275 H 0.27096 0.24471 0.35099 0.0
H276 H 0.16766 0.17889 0.4447 0.0
H277 H 0.1922 0.20985 0.40988 0.0
C278 C 0.2208 0.82495 0.78002 0.0
C279 C 0.23575 0.82676 0.75652 0.0
C280 C 0.23535 0.84116 0.80109 0.0
C281 C 0.31247 0.87531 0.82543 0.0
H282 H 0.27492 0.91358 0.8732 0.0
C283 C 0.38212 0.95608 0.8983 0.0
C284 C 0.37071 0.95632 0.92309 0.0
C285 C 0.36448 0.93905 0.87913 0.0
C286 C 0.28556 0.90266 0.86021 0.0
H287 H 0.27646 0.84841 0.73595 0.0
H288 H 0.30169 0.87678 0.77251 0.0
H289 H 0.24532 0.88731 0.83699 0.0
H290 H 0.33192 0.93874 0.94732 0.0
H291 H 0.30108 0.90858 0.91373 0.0
H292 H 0.35266 0.89057 0.84842 0.0
C293 C 0.27913 0.86237 0.77494 0.0
C294 C 0.26864 0.88771 0.83947 0.0
C295 C 0.26466 0.84623 0.754 0.0
C296 C 0.34139 0.93882 0.92842 0.0
C297 C 0.32363 0.9218 0.90915 0.0
C298 C 0.3293 0.89016 0.8461 0.0
C299 C 0.26504 0.85941 0.79891 0.0
C300 C 0.28212 0.87429 0.82164 0.0
C301 C 0.33498 0.92183 0.88428 0.0
C302 C 0.31621 0.90437 0.8635 0.0
H303 H 0.19853 0.81001 0.78246 0.0
H304 H 0.22395 0.83846 0.81934 0.0
H305 H 0.32327 0.86459 0.81238 0.0
H306 H 0.40474 0.96915 0.89369 0.0
H307 H 0.37378 0.93979 0.8601 0.0
C308 C 0.64294 0.4676 0.78912 0.0
C309 C 0.63818 0.43867 0.78953 0.0
C310 C 0.63877 0.48065 0.76628 0.0
C311 C 0.62754 0.46879 0.69522 0.0
H312 H 0.58593 0.52467 0.70068 0.0
C313 C 0.56211 0.49768 0.6104 0.0
C314 C 0.56391 0.52592 0.60708 0.0
C315 C 0.57523 0.48927 0.63191 0.0
C316 C 0.59794 0.50939 0.69879 0.0
H317 H 0.62572 0.40061 0.76681 0.0
H318 H 0.6181 0.42302 0.72712 0.0
H319 H 0.60212 0.50623 0.73946 0.0
H320 H 0.58142 0.56752 0.62379 0.0
H321 H 0.60416 0.55276 0.66149 0.0
H322 H 0.62235 0.47132 0.65452 0.0
C323 C 0.62573 0.43601 0.74402 0.0
C324 C 0.60734 0.49882 0.72109 0.0
C325 C 0.63004 0.42308 0.76678 0.0
C326 C 0.57963 0.54562 0.62568 0.0
C327 C 0.5925 0.53713 0.64738 0.0
C328 C 0.61792 0.47919 0.67296 0.0
C329 C 0.62947 0.46493 0.74348 0.0
C330 C 0.62191 0.47805 0.71966 0.0
C331 C 0.5903 0.50881 0.65084 0.0
C332 C 0.60262 0.49935 0.67446 0.0
H333 H 0.64889 0.47995 0.8066 0.0
H334 H 0.64231 0.50298 0.76663 0.0
H335 H 0.63922 0.45328 0.69322 0.0
H336 H 0.55025 0.48191 0.59648 0.0
H337 H 0.57281 0.46726 0.63405 0.0
C338 C 0.89672 0.62625 0.29022 0.0
C339 C 0.89815 0.65448 0.29231 0.0
C340 C 0.9024 0.61519 0.26669 0.0
C341 C 0.94542 0.63862 0.2078 0.0
H342 H 0.90241 0.56471 0.18106 0.0
C343 C 0.97669 0.60202 0.1101 0.0
C344 C 0.97647 0.57409 0.1074 0.0
C345 C 0.96428 0.61081 0.13168 0.0
C346 C 0.91491 0.58529 0.18838 0.0
H347 H 0.90578 0.6932 0.27176 0.0
H348 H 0.91541 0.674 0.23064 0.0
H349 H 0.88515 0.58155 0.22035 0.0
H350 H 0.96233 0.53333 0.12521 0.0
H351 H 0.94131 0.54878 0.16321 0.0
H352 H 0.97568 0.6423 0.17653 0.0
C353 C 0.91006 0.66031 0.24703 0.0
C354 C 0.90491 0.59497 0.21089 0.0
C355 C 0.90423 0.67125 0.27047 0.0
C356 C 0.9628 0.55498 0.12661 0.0
C357 C 0.95062 0.56386 0.1484 0.0
C358 C 0.95553 0.6289 0.18551 0.0
C359 C 0.91001 0.63233 0.24497 0.0
C360 C 0.91998 0.62183 0.22081 0.0
C361 C 0.95157 0.59203 0.15143 0.0
C362 C 0.9404 0.60214 0.17533 0.0
H363 H 0.89255 0.61307 0.30698 0.0
H364 H 0.90238 0.59364 0.26585 0.0
H365 H 0.95802 0.65916 0.21518 0.0
H366 H 0.98666 0.61727 0.09556 0.0
H367 H 0.96479 0.63247 0.13288 0.0
C368 C 0.37539 0.24021 0.17409 0.0
C369 C 0.37891 0.24703 0.20031 0.0
C370 C 0.3889 0.22147 0.16356 0.0
C371 C 0.45151 0.19604 0.16523 0.0
H372 H 0.39838 0.12552 0.1386 0.0
C373 C 0.49926 0.11489 0.11679 0.0
C374 C 0.483 0.10017 0.09554 0.0
C375 C 0.48677 0.13126 0.13226 0.0
C376 C 0.4136 0.14523 0.1456 0.0
H377 H 0.39963 0.24026 0.23604 0.0
H378 H 0.4244 0.20798 0.21721 0.0
H379 H 0.37686 0.15823 0.15996 0.0
H380 H 0.44105 0.09119 0.0737 0.0
H381 H 0.41986 0.1205 0.09977 0.0
H382 H 0.4882 0.18411 0.14968 0.0
C383 C 0.41082 0.21696 0.20506 0.0
C384 C 0.40122 0.16378 0.15803 0.0
C385 C 0.39671 0.23528 0.21576 0.0
C386 C 0.45401 0.10203 0.09012 0.0
C387 C 0.44176 0.11875 0.10525 0.0
C388 C 0.46393 0.17774 0.15232 0.0
C389 C 0.40663 0.20969 0.17897 0.0
C390 C 0.42006 0.18938 0.16768 0.0
C391 C 0.45795 0.13365 0.12653 0.0
C392 C 0.44509 0.15223 0.14201 0.0
H393 H 0.36151 0.24883 0.16191 0.0
H394 H 0.38549 0.21609 0.14337 0.0
H395 H 0.46636 0.21583 0.17246 0.0
H396 H 0.5216 0.11368 0.12155 0.0
H397 H 0.49973 0.14198 0.1487 0.0
C398 C 0.14709 0.84122 0.66816 0.0
C399 C 0.13062 0.82281 0.68657 0.0
C400 C 0.13822 0.86416 0.66065 0.0
C401 C 0.07171 0.88935 0.65789 0.0
H402 H 0.13191 0.95939 0.6406 0.0
C403 C 0.03939 0.98337 0.61682 0.0
C404 C 0.05531 0.99489 0.59469 0.0
C405 C 0.04897 0.9646 0.63182 0.0
C406 C 0.11484 0.93995 0.64534 0.0
H407 H 0.09247 0.81356 0.71209 0.0
H408 H 0.07682 0.85403 0.69916 0.0
H409 H 0.14789 0.92227 0.66028 0.0
H410 H 0.09434 0.99647 0.57147 0.0
H411 H 0.11097 0.96394 0.59758 0.0
H412 H 0.03873 0.90697 0.64252 0.0
C413 C 0.09641 0.85067 0.69026 0.0
C414 C 0.12398 0.91866 0.65656 0.0
C415 C 0.10536 0.82764 0.69775 0.0
C416 C 0.08148 0.98793 0.58834 0.0
C417 C 0.09116 0.96942 0.60342 0.0
C418 C 0.06256 0.91072 0.64676 0.0
C419 C 0.11268 0.86913 0.67151 0.0
C420 C 0.1026 0.89284 0.66239 0.0
C421 C 0.07483 0.95728 0.62513 0.0
C422 C 0.08411 0.936 0.63981 0.0
H423 H 0.16664 0.83767 0.65931 0.0
H424 H 0.15095 0.87761 0.64585 0.0
H425 H 0.05468 0.86965 0.66191 0.0
H426 H 0.01911 0.98827 0.62223 0.0
H427 H 0.03605 0.95569 0.64856 0.0
C428 C 0.7317 0.45024 0.89218 0.0
C429 C 0.72668 0.42267 0.88324 0.0
C430 C 0.75879 0.46455 0.90514 0.0
C431 C 0.81608 0.44823 0.94536 0.0
H432 H 0.86439 0.52566 0.937 0.0
C433 C 0.93149 0.4924 0.99628 0.0
C434 C 0.94052 0.52016 1.00544 0.0
C435 C 0.90548 0.4821 0.98099 0.0
C436 C 0.85091 0.50411 0.93985 0.0
H437 H 0.74708 0.3895 0.87885 0.0
H438 H 0.79406 0.41433 0.90133 0.0
H439 H 0.81953 0.50564 0.9097 0.0
H440 H 0.92901 0.55887 1.00566 0.0
H441 H 0.88306 0.54063 0.97948 0.0
H442 H 0.84664 0.44653 0.97569 0.0
C443 C 0.77694 0.42472 0.89886 0.0
C444 C 0.82529 0.49265 0.92411 0.0
C445 C 0.75009 0.41055 0.88588 0.0
C446 C 0.92272 0.53736 0.99896 0.0
C447 C 0.89647 0.52695 0.98376 0.0
C448 C 0.84138 0.45969 0.96118 0.0
C449 C 0.7812 0.45147 0.90944 0.0
C450 C 0.80788 0.46443 0.92645 0.0
C451 C 0.88747 0.49914 0.97457 0.0
C452 C 0.85949 0.48766 0.95844 0.0
H453 H 0.71401 0.46006 0.89057 0.0
H454 H 0.76145 0.48517 0.91306 0.0
H455 H 0.80271 0.42661 0.94808 0.0
H456 H 0.94476 0.4786 1.0006 0.0
H457 H 0.89977 0.46079 0.97387 0.0
C458 C 0.80227 0.64124 0.39222 0.0
C459 C 0.80793 0.66921 0.38478 0.0
C460 C 0.7748 0.62665 0.40374 0.0
C461 C 0.69677 0.63014 0.41708 0.0
H462 H 0.703 0.58691 0.47699 0.0
C463 C 0.60596 0.60397 0.49543 0.0
C464 C 0.59657 0.57656 0.50496 0.0
C465 C 0.63084 0.61278 0.47919 0.0
C466 C 0.7008 0.59863 0.46014 0.0
H467 H 0.78838 0.70309 0.38196 0.0
H468 H 0.74105 0.67811 0.4023 0.0
H469 H 0.74716 0.60583 0.45004 0.0
H470 H 0.60646 0.53705 0.50512 0.0
H471 H 0.65022 0.55266 0.47703 0.0
H472 H 0.65069 0.62371 0.42774 0.0
C473 C 0.75752 0.66717 0.39921 0.0
C474 C 0.7261 0.6094 0.44457 0.0
C475 C 0.78484 0.68165 0.3877 0.0
C476 C 0.61306 0.55832 0.49819 0.0
C477 C 0.63819 0.56727 0.48213 0.0
C478 C 0.67161 0.6196 0.43276 0.0
C479 C 0.75236 0.6397 0.40803 0.0
C480 C 0.72459 0.62571 0.42304 0.0
C481 C 0.64717 0.59452 0.47222 0.0
C482 C 0.67344 0.60409 0.45469 0.0
H483 H 0.81964 0.6311 0.39036 0.0
H484 H 0.77146 0.60537 0.40985 0.0
H485 H 0.69446 0.64204 0.40039 0.0
H486 H 0.59384 0.6186 0.50017 0.0
H487 H 0.63742 0.63404 0.4722 0.0
C488 C 0.2784 0.35173 0.20397 0.0
C489 C 0.30113 0.35242 0.18632 0.0
C490 C 0.25305 0.35938 0.1964 0.0
C491 C 0.20955 0.36651 0.13859 0.0
H492 H 0.17866 0.41439 0.1818 0.0
C493 C 0.12675 0.42233 0.10085 0.0
C494 C 0.10321 0.424 0.11688 0.0
C495 C 0.14936 0.41178 0.11004 0.0
C496 C 0.18675 0.40068 0.16968 0.0
H497 H 0.31597 0.36148 0.14731 0.0
H498 H 0.27192 0.37518 0.13401 0.0
H499 H 0.22136 0.39967 0.19679 0.0
H500 H 0.08483 0.41578 0.15508 0.0
H501 H 0.12423 0.397 0.17108 0.0
H502 H 0.1752 0.36772 0.11137 0.0
C503 C 0.27325 0.36848 0.15356 0.0
C504 C 0.21121 0.39227 0.17826 0.0
C505 C 0.29854 0.3609 0.16116 0.0
C506 C 0.10256 0.41455 0.14222 0.0
C507 C 0.12527 0.40407 0.15145 0.0
C508 C 0.18513 0.37491 0.13002 0.0
C509 C 0.25012 0.36766 0.17104 0.0
C510 C 0.22312 0.37539 0.16265 0.0
C511 C 0.14899 0.40268 0.13548 0.0
C512 C 0.17369 0.39237 0.14532 0.0
H513 H 0.28008 0.34501 0.22347 0.0
H514 H 0.2355 0.35831 0.21024 0.0
H515 H 0.21781 0.35304 0.12633 0.0
H516 H 0.1277 0.42919 0.08116 0.0
H517 H 0.16749 0.41127 0.09732 0.0
C518 C 0.61175 0.32427 0.90073 0.0
C519 C 0.64187 0.33365 0.89231 0.0
C520 C 0.60063 0.29869 0.91335 0.0
C521 C 0.61667 0.23149 0.92533 0.0
H522 H 0.56317 0.22695 0.98282 0.0
C523 C 0.58444 0.13752 0.99491 0.0
C524 C 0.55394 0.12746 1.00222 0.0
C525 C 0.59507 0.16233 0.98102 0.0
C526 C 0.57787 0.22778 0.96666 0.0
H527 H 0.68359 0.32284 0.89 0.0
H528 H 0.66456 0.27883 0.91259 0.0
H529 H 0.58152 0.27052 0.9593 0.0
H530 H 0.51071 0.1357 1.00057 0.0
H531 H 0.52925 0.17884 0.97646 0.0
H532 H 0.61328 0.18878 0.93302 0.0
C533 C 0.64934 0.29104 0.9092 0.0
C534 C 0.58834 0.25277 0.95309 0.0
C535 C 0.6604 0.31653 0.89651 0.0
C536 C 0.53435 0.1428 0.99531 0.0
C537 C 0.54502 0.16766 0.9816 0.0
C538 C 0.60633 0.20654 0.93901 0.0
C539 C 0.61935 0.28182 0.91796 0.0
C540 C 0.60787 0.25499 0.9322 0.0
C541 C 0.5755 0.17776 0.97429 0.0
C542 C 0.58676 0.20436 0.95982 0.0
H543 H 0.59687 0.33696 0.89807 0.0
H544 H 0.57729 0.29214 0.91946 0.0
H545 H 0.63128 0.23221 0.90913 0.0
H546 H 0.60016 0.12625 0.99992 0.0
H547 H 0.61875 0.16967 0.9759 0.0
C548 C 0.88848 0.75947 0.42456 0.0
C549 C 0.89485 0.75645 0.39859 0.0
C550 C 0.90031 0.78519 0.43729 0.0
C551 C 0.9327 0.86128 0.42563 0.0
H552 H 0.95946 0.86331 0.49646 0.0
C553 C 0.99437 0.96487 0.47948 0.0
C554 C 0.98619 0.96739 0.50506 0.0
C555 C 0.98356 0.9393 0.46627 0.0
C556 C 0.95179 0.86311 0.47677 0.0
H557 H 0.9189 0.77831 0.36573 0.0
H558 H 0.94008 0.82307 0.3881 0.0
H559 H 0.94069 0.81857 0.47386 0.0
H560 H 0.96004 0.94485 0.53674 0.0
H561 H 0.94111 0.90037 0.51368 0.0
H562 H 0.94392 0.90589 0.42858 0.0
C563 C 0.92554 0.80558 0.39853 0.0
C564 C 0.941 0.83742 0.46378 0.0
C565 C 0.91368 0.77981 0.38577 0.0
C566 C 0.96687 0.94371 0.51708 0.0
C567 C 0.95615 0.91812 0.5039 0.0
C568 C 0.94357 0.887 0.43861 0.0
C569 C 0.91894 0.80863 0.42446 0.0
C570 C 0.93117 0.83613 0.43807 0.0
C571 C 0.96439 0.91556 0.47834 0.0
C572 C 0.95313 0.88823 0.46438 0.0
H573 H 0.87444 0.74187 0.43517 0.0
H574 H 0.89444 0.78677 0.45715 0.0
H575 H 0.9249 0.8611 0.40598 0.0
H576 H 0.00926 0.98263 0.46961 0.0
H577 H 0.99063 0.93802 0.44671 0.0
C578 C 0.24292 0.73163 0.68661 0.0
C579 C 0.25056 0.76068 0.69045 0.0
C580 C 0.26415 0.71989 0.67647 0.0
C581 C 0.34689 0.7361 0.66988 0.0
H582 H 0.3263 0.67439 0.62106 0.0
C583 C 0.43796 0.70053 0.61834 0.0
C584 C 0.43316 0.67159 0.61614 0.0
C585 C 0.415 0.71071 0.62713 0.0
C586 C 0.33231 0.69145 0.63489 0.0
H587 H 0.28541 0.80037 0.68518 0.0
H588 H 0.32212 0.78006 0.66721 0.0
H589 H 0.28681 0.69329 0.63624 0.0
H590 H 0.40055 0.63064 0.62188 0.0
H591 H 0.36042 0.64847 0.63705 0.0
H592 H 0.39233 0.73442 0.66849 0.0
C593 C 0.30022 0.76619 0.6727 0.0
C594 C 0.3097 0.70225 0.64358 0.0
C595 C 0.27916 0.77785 0.68289 0.0
C596 C 0.40484 0.65306 0.62294 0.0
C597 C 0.38184 0.66325 0.63164 0.0
C598 C 0.36944 0.72539 0.66115 0.0
C599 C 0.29326 0.73706 0.66991 0.0
C600 C 0.31682 0.72486 0.66101 0.0
C601 C 0.38669 0.69218 0.63388 0.0
C602 C 0.36246 0.70308 0.64344 0.0
H603 H 0.22102 0.71797 0.69235 0.0
H604 H 0.25814 0.69734 0.67463 0.0
H605 H 0.35302 0.7531 0.68377 0.0
H606 H 0.45933 0.71536 0.61289 0.0
H607 H 0.41927 0.73313 0.62831 0.0
C608 C 0.77783 0.84512 0.83624 0.0
C609 C 0.74649 0.83131 0.83609 0.0
C610 C 0.7916 0.8605 0.81512 0.0
C611 C 0.77861 0.89584 0.75681 0.0
H612 H 0.85173 0.88115 0.7343 0.0
C613 C 0.84113 0.94369 0.66436 0.0
C614 C 0.87291 0.95393 0.66621 0.0
C615 C 0.82423 0.92776 0.6841 0.0
C616 C 0.83152 0.88572 0.74045 0.0
H617 H 0.70477 0.82399 0.81421 0.0
H618 H 0.72895 0.85131 0.77719 0.0
H619 H 0.82483 0.85666 0.77122 0.0
H620 H 0.91186 0.95481 0.68991 0.0
H621 H 0.8825 0.9277 0.72447 0.0
H622 H 0.78564 0.92531 0.72623 0.0
C623 C 0.74278 0.85005 0.79371 0.0
C624 C 0.8161 0.87167 0.7616 0.0
C625 C 0.72895 0.8345 0.81489 0.0
C626 C 0.88741 0.94752 0.68801 0.0
C627 C 0.87056 0.93167 0.70771 0.0
C628 C 0.79418 0.91007 0.73567 0.0
C629 C 0.77436 0.86258 0.79339 0.0
C630 C 0.78972 0.87683 0.77022 0.0
C631 C 0.83877 0.9217 0.70606 0.0
C632 C 0.82104 0.90542 0.72746 0.0
H633 H 0.79185 0.84358 0.85254 0.0
H634 H 0.81589 0.87049 0.81566 0.0
H635 H 0.75838 0.90029 0.7631 0.0
H636 H 0.82925 0.94847 0.64792 0.0
H637 H 0.7998 0.92015 0.68212 0.0
C638 C 0.76366 0.2201 0.36007 0.0
C639 C 0.78161 0.24799 0.35673 0.0
C640 C 0.74224 0.20652 0.34151 0.0
C641 C 0.69894 0.21653 0.28459 0.0
H642 H 0.70607 0.14459 0.26377 0.0
C643 C 0.65092 0.16222 0.18844 0.0
C644 C 0.64044 0.13285 0.18747 0.0
C645 C 0.66423 0.17625 0.21086 0.0
C646 C 0.70325 0.16435 0.2696 0.0
H647 H 0.79001 0.28401 0.33201 0.0
H648 H 0.75238 0.26023 0.2995 0.0
H649 H 0.73563 0.16943 0.30008 0.0
H650 H 0.6341 0.09513 0.20947 0.0
H651 H 0.65665 0.11955 0.24884 0.0
H652 H 0.66662 0.21146 0.25391 0.0
C653 C 0.75489 0.24894 0.31655 0.0
C654 C 0.72029 0.17864 0.29042 0.0
C655 C 0.77642 0.26254 0.33515 0.0
C656 C 0.64243 0.11779 0.20961 0.0
C657 C 0.65543 0.1318 0.23211 0.0
C658 C 0.68165 0.20209 0.26381 0.0
C659 C 0.73821 0.22056 0.31923 0.0
C660 C 0.71853 0.20496 0.29803 0.0
C661 C 0.66709 0.16119 0.23286 0.0
C662 C 0.68382 0.17593 0.25592 0.0
H663 H 0.76668 0.20853 0.3768 0.0
H664 H 0.72928 0.1848 0.34432 0.0
H665 H 0.69697 0.2367 0.29017 0.0
H666 H 0.64992 0.17434 0.17155 0.0
H667 H 0.67331 0.19885 0.2106 0.0
C668 C 0.3859 0.68414 0.33941 0.0
C669 C 0.39221 0.67797 0.31425 0.0
C670 C 0.39178 0.66871 0.35999 0.0
C671 C 0.44071 0.62522 0.37702 0.0
H672 H 0.39326 0.61125 0.43903 0.0
C673 C 0.47026 0.5638 0.46123 0.0
C674 C 0.46923 0.57432 0.48616 0.0
C675 C 0.45841 0.57443 0.44028 0.0
C676 C 0.4069 0.61518 0.42193 0.0
H677 H 0.40883 0.6506 0.29049 0.0
H678 H 0.41834 0.62295 0.32627 0.0
H679 H 0.37585 0.63208 0.40216 0.0
H680 H 0.45422 0.604 0.50853 0.0
H681 H 0.43358 0.62261 0.47192 0.0
H682 H 0.47182 0.60851 0.39679 0.0
C683 C 0.40925 0.63994 0.33033 0.0
C684 C 0.3969 0.62713 0.40073 0.0
C685 C 0.40344 0.65548 0.30976 0.0
C686 C 0.45538 0.59535 0.48964 0.0
C687 C 0.44342 0.60595 0.46863 0.0
C688 C 0.45062 0.61319 0.39814 0.0
C689 C 0.40424 0.64679 0.35582 0.0
C690 C 0.41376 0.63249 0.37799 0.0
C691 C 0.44512 0.59587 0.44361 0.0
C692 C 0.43396 0.60812 0.42095 0.0
H693 H 0.37776 0.70177 0.34332 0.0
H694 H 0.38795 0.67493 0.37924 0.0
H695 H 0.45473 0.62953 0.36016 0.0
H696 H 0.4806 0.54753 0.45775 0.0
H697 H 0.4597 0.56582 0.4214 0.0
C698 C 0.13776 0.45086 0.8073 0.0
C699 C 0.15022 0.42908 0.81122 0.0
C700 C 0.13143 0.46573 0.82826 0.0
C701 C 0.14395 0.47775 0.89921 0.0
H702 H 0.06739 0.49355 0.8951 0.0
C703 C 0.08405 0.50574 0.98852 0.0
C704 C 0.06936 0.52622 0.98554 0.0
C705 C 0.09636 0.49591 0.96732 0.0
C706 C 0.08904 0.48964 0.89653 0.0
H707 H 0.16633 0.40586 0.83973 0.0
H708 H 0.15526 0.43151 0.87631 0.0
H709 H 0.08535 0.47404 0.858 0.0
H710 H 0.05678 0.5528 0.95775 0.0
H711 H 0.07821 0.53582 0.92109 0.0
H712 H 0.14715 0.49286 0.93805 0.0
C713 C 0.15086 0.43774 0.85722 0.0
C714 C 0.09945 0.4785 0.87513 0.0
C715 C 0.15726 0.423 0.83625 0.0
C716 C 0.06778 0.53693 0.96088 0.0
C717 C 0.07994 0.52705 0.93974 0.0
C718 C 0.13344 0.48879 0.92069 0.0
C719 C 0.13713 0.45887 0.8536 0.0
C720 C 0.12702 0.47227 0.87613 0.0
C721 C 0.09414 0.50621 0.94257 0.0
C722 C 0.10578 0.49482 0.91966 0.0
H723 H 0.13175 0.45562 0.78814 0.0
H724 H 0.12137 0.48215 0.82461 0.0
H725 H 0.16546 0.47361 0.90071 0.0
H726 H 0.08568 0.49696 1.00718 0.0
H727 H 0.1069 0.47968 0.97022 0.0
C728 C 0.66244 0.86064 0.92411 0.0
C729 C 0.64599 0.84032 0.90656 0.0
C730 C 0.65222 0.88315 0.93071 0.0
C731 C 0.58217 0.90285 0.93323 0.0
H732 H 0.63802 0.97615 0.94959 0.0
C733 C 0.54176 0.993 0.97324 0.0
C734 C 0.55785 0.0065 0.9951 0.0
C735 C 0.55281 0.97498 0.95847 0.0
C736 C 0.62215 0.95578 0.9451 0.0
H737 H 0.60665 0.82734 0.88151 0.0
H738 H 0.58873 0.86703 0.89273 0.0
H739 H 0.65701 0.94053 0.93035 0.0
H740 H 0.59867 0.01234 0.01804 0.0
H741 H 0.61779 0.98107 0.99236 0.0
H742 H 0.54741 0.91801 0.94843 0.0
C743 C 0.60933 0.86553 0.90168 0.0
C744 C 0.63302 0.93535 0.93413 0.0
C745 C 0.6196 0.84296 0.89512 0.0
C746 C 0.58561 1.00223 1.00139 0.0
C747 C 0.59673 0.98445 0.98654 0.0
C748 C 0.57128 0.92334 0.94411 0.0
C749 C 0.62532 0.8857 0.91983 0.0
C750 C 0.61328 0.90842 0.92862 0.0
C751 C 0.58031 0.97035 0.9651 0.0
C752 C 0.59126 0.94982 0.95071 0.0
H753 H 0.68279 0.85875 0.93323 0.0
H754 H 0.66485 0.89799 0.94505 0.0
H755 H 0.56637 0.88226 0.92951 0.0
H756 H 0.52029 0.99582 0.96786 0.0
H757 H 0.53976 0.96454 0.94194 0.0
C758 C 0.85412 0.21207 0.41689 0.0
C759 C 0.86868 0.23972 0.4094 0.0
C760 C 0.87088 0.19501 0.42526 0.0
C761 C 0.94477 0.19653 0.45234 0.0
H762 H 0.91811 0.11831 0.43167 0.0
C763 C 0.00641 0.11843 0.48559 0.0
C764 C 0.9873 0.09318 0.49532 0.0
C765 C 0.9943 0.13664 0.47225 0.0
C766 C 0.92577 0.14008 0.43765 0.0
H767 H 0.91227 0.2713 0.40512 0.0
H768 H 0.94178 0.24132 0.41984 0.0
H769 H 0.89278 0.1501 0.41397 0.0
H770 H 0.94057 0.06688 0.49795 0.0
H771 H 0.91955 0.09857 0.47472 0.0
H772 H 0.97751 0.18631 0.47632 0.0
C773 C 0.9173 0.23296 0.4193 0.0
C774 C 0.91126 0.15829 0.42757 0.0
C775 C 0.90045 0.25012 0.41091 0.0
C776 C 0.95594 0.08616 0.49075 0.0
C777 C 0.94389 0.10425 0.47729 0.0
C778 C 0.95938 0.1783 0.46239 0.0
C779 C 0.90267 0.20513 0.42636 0.0
C780 C 0.92014 0.18658 0.43522 0.0
C781 C 0.96288 0.12985 0.46819 0.0
C782 C 0.9496 0.14977 0.45554 0.0
H783 H 0.82963 0.20365 0.41649 0.0
H784 H 0.85886 0.17392 0.43117 0.0
H785 H 0.952 0.21816 0.45876 0.0
H786 H 0.03069 0.12447 0.48875 0.0
H787 H 0.00949 0.15611 0.46524 0.0
C788 C 0.293 0.67851 0.21832 0.0
C789 C 0.32172 0.68473 0.20724 0.0
C790 C 0.267 0.66352 0.20434 0.0
C791 C 0.24138 0.64744 0.13657 0.0
H792 H 0.16875 0.59878 0.16731 0.0
C793 C 0.12679 0.61108 0.08128 0.0
C794 C 0.10735 0.58395 0.0857 0.0
C795 C 0.15315 0.62215 0.09619 0.0
C796 C 0.18892 0.61207 0.15829 0.0
H797 H 0.3461 0.67882 0.17367 0.0
H798 H 0.30115 0.65168 0.14971 0.0
H799 H 0.21423 0.61803 0.19358 0.0
H800 H 0.10098 0.54691 0.10887 0.0
H801 H 0.14708 0.56586 0.13427 0.0
H802 H 0.21642 0.64098 0.10118 0.0
C803 C 0.29833 0.65906 0.16878 0.0
C804 C 0.21497 0.62342 0.1735 0.0
C805 C 0.32417 0.67427 0.18261 0.0
C806 C 0.11524 0.56799 0.10505 0.0
C807 C 0.14166 0.57896 0.1198 0.0
C808 C 0.21543 0.63598 0.12136 0.0
C809 C 0.26926 0.65429 0.17905 0.0
C810 C 0.24159 0.64133 0.16287 0.0
C811 C 0.16089 0.60629 0.11577 0.0
C812 C 0.18875 0.61822 0.13199 0.0
H813 H 0.29051 0.68671 0.23714 0.0
H814 H 0.24508 0.66047 0.21289 0.0
H815 H 0.26117 0.66152 0.12768 0.0
H816 H 0.12134 0.62402 0.06666 0.0
H817 H 0.1671 0.6434 0.09268 0.0
C818 C 0.24662 0.43514 0.71775 0.0
C819 C 0.2201 0.42053 0.70417 0.0
C820 C 0.27236 0.45111 0.70462 0.0
C821 C 0.29929 0.47951 0.63941 0.0
H822 H 0.37606 0.47355 0.66418 0.0
C823 C 0.40656 0.50056 0.57634 0.0
C824 C 0.43373 0.51781 0.58736 0.0
C825 C 0.38031 0.49109 0.5911 0.0
C826 C 0.35481 0.47557 0.65711 0.0
H827 H 0.19904 0.41314 0.66643 0.0
H828 H 0.24363 0.43983 0.64366 0.0
H829 H 0.33068 0.45455 0.68956 0.0
H830 H 0.4546 0.53837 0.62265 0.0
H831 H 0.40913 0.52135 0.64832 0.0
H832 H 0.32352 0.4995 0.6064 0.0
C833 C 0.24491 0.43944 0.66436 0.0
C834 C 0.32874 0.46487 0.67177 0.0
C835 C 0.21927 0.4238 0.67745 0.0
C836 C 0.43408 0.52517 0.61348 0.0
C837 C 0.40806 0.51533 0.62827 0.0
C838 C 0.32528 0.48978 0.62457 0.0
C839 C 0.27216 0.45274 0.67762 0.0
C840 C 0.30048 0.46643 0.66306 0.0
C841 C 0.38086 0.49825 0.61727 0.0
C842 C 0.35329 0.48776 0.63318 0.0
H843 H 0.24799 0.43307 0.73833 0.0
H844 H 0.29265 0.46155 0.71562 0.0
H845 H 0.27821 0.48175 0.6322 0.0
H846 H 0.40549 0.49458 0.55629 0.0
H847 H 0.35969 0.47779 0.58214 0.0
C848 C 0.7682 0.74374 0.87989 0.0
C849 C 0.75298 0.75687 0.8965 0.0
C850 C 0.78824 0.73042 0.88959 0.0
C851 C 0.8128 0.70197 0.94811 0.0
H852 H 0.89066 0.72266 0.91456 0.0
C853 C 0.91799 0.68037 0.99262 0.0
C854 C 0.93741 0.67225 0.97593 0.0
C855 C 0.89422 0.68911 0.98293 0.0
C856 C 0.86893 0.71629 0.92395 0.0
H857 H 0.74573 0.7651 0.93637 0.0
H858 H 0.78063 0.7416 0.95335 0.0
H859 H 0.85027 0.73908 0.89754 0.0
H860 H 0.94669 0.66621 0.93605 0.0
H861 H 0.90514 0.68117 0.91913 0.0
H862 H 0.83155 0.67919 0.97457 0.0
C863 C 0.77696 0.74157 0.93282 0.0
C864 C 0.84576 0.72572 0.91418 0.0
C865 C 0.75693 0.75498 0.92309 0.0
C866 C 0.93245 0.67285 0.94938 0.0
C867 C 0.90862 0.68142 0.93969 0.0
C868 C 0.83597 0.6924 0.95784 0.0
C869 C 0.79345 0.72984 0.91612 0.0
C870 C 0.81746 0.71873 0.92616 0.0
C871 C 0.88927 0.68977 0.95633 0.0
C872 C 0.86436 0.69952 0.94591 0.0
H873 H 0.76519 0.74439 0.85932 0.0
H874 H 0.80016 0.72105 0.87627 0.0
H875 H 0.79115 0.69608 0.95763 0.0
H876 H 0.92144 0.68035 0.01318 0.0
H877 H 0.88006 0.6958 0.99628 0.0
C878 C 0.41029 0.80432 0.21463 0.0
C879 C 0.39989 0.77835 0.20168 0.0
C880 C 0.42188 0.82921 0.20103 0.0
C881 C 0.41837 0.85979 0.1378 0.0
H882 H 0.49256 0.91629 0.1593 0.0
C883 C 0.47373 0.95601 0.07531 0.0
C884 C 0.48828 0.98173 0.08756 0.0
C885 C 0.4634 0.93141 0.08946 0.0
C886 C 0.47155 0.90097 0.1532 0.0
H887 H 0.39465 0.75846 0.1641 0.0
H888 H 0.41411 0.80187 0.14048 0.0
H889 H 0.47385 0.87325 0.18371 0.0
H890 H 0.50312 1.00173 0.12441 0.0
H891 H 0.48431 0.95905 0.14918 0.0
H892 H 0.41549 0.88753 0.10769 0.0
C893 C 0.41303 0.80291 0.16118 0.0
C894 C 0.46091 0.87623 0.16718 0.0
C895 C 0.40177 0.77802 0.17476 0.0
C896 C 0.49214 0.98226 0.11433 0.0
C897 C 0.4815 0.95768 0.12854 0.0
C898 C 0.42879 0.88463 0.124 0.0
C899 C 0.42308 0.82881 0.17413 0.0
C900 C 0.4343 0.85529 0.15954 0.0
C901 C 0.467 0.93186 0.11631 0.0
C902 C 0.45564 0.90554 0.13138 0.0
H903 H 0.40882 0.80555 0.23527 0.0
H904 H 0.42919 0.84887 0.21154 0.0
H905 H 0.39752 0.84425 0.13166 0.0
H906 H 0.47061 0.95477 0.05469 0.0
H907 H 0.45293 0.91195 0.07922 0.0
C908 C 0.16752 0.31087 0.6913 0.0
C909 C 0.14758 0.32371 0.70236 0.0
C910 C 0.15641 0.28553 0.67783 0.0
C911 C 0.08832 0.24174 0.64312 0.0
H912 H 0.12723 0.18393 0.64942 0.0
C913 C 0.03701 0.13202 0.59739 0.0
C914 C 0.05686 0.11921 0.58613 0.0
C915 C 0.04819 0.15677 0.6117 0.0
C916 C 0.11631 0.19998 0.64719 0.0
H917 H 0.10024 0.31973 0.7081 0.0
H918 H 0.08083 0.27528 0.68488 0.0
H919 H 0.14618 0.22699 0.67465 0.0
H920 H 0.10419 0.12261 0.58108 0.0
H921 H 0.12373 0.166 0.60583 0.0
H922 H 0.05855 0.21485 0.61559 0.0
C923 C 0.1051 0.285 0.68641 0.0
C924 C 0.12716 0.22468 0.6617 0.0
C925 C 0.11623 0.31032 0.69997 0.0
C926 C 0.08823 0.13184 0.58952 0.0
C927 C 0.09944 0.15665 0.60386 0.0
C928 C 0.07751 0.21708 0.62859 0.0
C929 C 0.12506 0.27237 0.67501 0.0
C930 C 0.11328 0.24588 0.65986 0.0
C931 C 0.07955 0.16945 0.61513 0.0
C932 C 0.09133 0.19585 0.63044 0.0
H933 H 0.1918 0.32044 0.69303 0.0
H934 H 0.17245 0.27655 0.66914 0.0
H935 H 0.07741 0.25781 0.64087 0.0
H936 H 0.0127 0.12287 0.5953 0.0
H937 H 0.03218 0.16576 0.6204 0.0
C938 C 0.76623 0.33341 0.41737 0.0
C939 C 0.79573 0.35182 0.41592 0.0
C940 C 0.74206 0.34366 0.42234 0.0
C941 C 0.72563 0.40404 0.45187 0.0
H942 H 0.6468 0.37203 0.41944 0.0
C943 C 0.62668 0.44779 0.47073 0.0
C944 C 0.59819 0.42815 0.47496 0.0
C945 C 0.65065 0.43923 0.46167 0.0
C946 C 0.66862 0.38102 0.42879 0.0
H947 H 0.82367 0.39507 0.4179 0.0
H948 H 0.78132 0.41329 0.42633 0.0
H949 H 0.68916 0.35607 0.40638 0.0
H950 H 0.57245 0.38411 0.47273 0.0
H951 H 0.61438 0.36911 0.45691 0.0
H952 H 0.70509 0.42879 0.47444 0.0
C953 C 0.77676 0.39093 0.42396 0.0
C954 C 0.69289 0.3719 0.42131 0.0
C955 C 0.80093 0.38062 0.41899 0.0
C956 C 0.59405 0.39978 0.46945 0.0
C957 C 0.61806 0.3912 0.46036 0.0
C958 C 0.7014 0.41317 0.45932 0.0
C959 C 0.74707 0.37252 0.42597 0.0
C960 C 0.72162 0.38317 0.43289 0.0
C961 C 0.64669 0.41082 0.45658 0.0
C962 C 0.67258 0.40165 0.44799 0.0
H963 H 0.76195 0.31105 0.41517 0.0
H964 H 0.71959 0.32888 0.42411 0.0
H965 H 0.74731 0.41281 0.4615 0.0
H966 H 0.63044 0.46989 0.47426 0.0
H967 H 0.67227 0.45492 0.45851 0.0
loop_
_geom_bond_atom_site_label_1
_geom_bond_atom_site_label_2
_geom_bond_distance
_geom_bond_site_symmetry_2
_ccdc_geom_bond_type
H0 C3 0.929 . S
H1 C6 0.929 . S
H2 C8 0.930 . S
C3 H0 0.929 . S
C3 C4 1.398 . S
C3 C5 1.396 . S
C4 C3 1.398 . S
C4 C8 1.407 . S
C5 C3 1.396 . S
C5 C6 1.394 . S
C6 H1 0.929 . S
C6 C5 1.394 . S
C6 C7 1.382 . S
C7 C6 1.382 . S
C7 C8 1.392 . S
C7 N9 1.420 . S
C8 H2 0.930 . S
C8 C4 1.407 . S
C8 C7 1.392 . S
N9 C7 1.420 . S
N9 C10 1.244 . S
C10 N9 1.244 . S
H11 C14 0.929 . S
H12 C17 0.929 . S
H13 C19 0.930 . S
C14 H11 0.929 . S
C14 C15 1.398 . S
C14 C16 1.396 . S
C15 C14 1.398 . S
C15 C19 1.407 . S
C16 C14 1.396 . S
C16 C17 1.394 . S
C17 H12 0.929 . S
C17 C16 1.394 . S
C17 C18 1.382 . S
C18 C17 1.382 . S
C18 C19 1.392 . S
C18 N20 1.420 . S
C19 H13 0.930 . S
C19 C15 1.407 . S
C19 C18 1.392 . S
N20 C18 1.420 . S
N20 C21 1.244 . S
C21 N20 1.244 . S
H22 C25 0.929 . S
H23 C28 0.929 . S
H24 C30 0.930 . S
C25 H22 0.929 . S
C25 C26 1.398 . S
C25 C27 1.396 . S
C26 C25 1.398 . S
C26 C30 1.407 . S
C27 C25 1.396 . S
C27 C28 1.394 . S
C28 H23 0.929 . S
C28 C27 1.394 . S
C28 C29 1.382 . S
C29 C28 1.382 . S
C29 C30 1.392 . S
C29 N31 1.420 . S
C30 H24 0.930 . S
C30 C26 1.407 . S
C30 C29 1.392 . S
N31 C29 1.420 . S
N31 C32 1.244 . S
C32 N31 1.244 . S
H33 C36 0.929 . S
H34 C39 0.929 . S
H35 C41 0.930 . S
C36 H33 0.929 . S
C36 C37 1.398 . S
C36 C38 1.396 . S
C37 C36 1.398 . S
C37 C41 1.407 . S
C38 C36 1.396 . S
C38 C39 1.394 . S
C39 H34 0.929 . S
C39 C38 1.394 . S
C39 C40 1.382 . S
C40 C39 1.382 . S
C40 C41 1.392 . S
C40 N42 1.420 . S
C41 H35 0.930 . S
C41 C37 1.407 . S
C41 C40 1.392 . S
N42 C40 1.420 . S
N42 C43 1.244 . S
C43 N42 1.244 . S
H44 C47 0.929 . S
H45 C50 0.929 . S
H46 C52 0.930 . S
C47 H44 0.929 . S
C47 C48 1.398 . S
C47 C49 1.396 . S
C48 C47 1.398 . S
C48 C52 1.407 . S
C49 C47 1.396 . S
C49 C50 1.394 . S
C50 H45 0.929 . S
C50 C49 1.394 . S
C50 C51 1.382 . S
C51 C50 1.382 . S
C51 C52 1.392 . S
C51 N53 1.420 . S
C52 H46 0.930 . S
C52 C48 1.407 . S
C52 C51 1.392 . S
N53 C51 1.420 . S
N53 C54 1.244 . S
C54 N53 1.244 . S
H55 C58 0.929 . S
H56 C61 0.929 . S
H57 C63 0.930 . S
C58 H55 0.929 . S
C58 C59 1.398 . S
C58 C60 1.396 . S
C59 C58 1.398 . S
C59 C63 1.407 . S
C60 C58 1.396 . S
C60 C61 1.394 . S
C61 H56 0.929 . S
C61 C60 1.394 . S
C61 C62 1.382 . S
C62 C61 1.382 . S
C62 C63 1.392 . S
C62 N64 1.420 . S
C63 H57 0.930 . S
C63 C59 1.407 . S
C63 C62 1.392 . S
N64 C62 1.420 . S
N64 C65 1.244 . S
C65 N64 1.244 . S
H66 C69 0.929 . S
H67 C72 0.929 . S
H68 C74 0.930 . S
C69 H66 0.929 . S
C69 C70 1.398 . S
C69 C71 1.396 . S
C70 C69 1.398 . S
C70 C74 1.407 . S
C71 C69 1.396 . S
C71 C72 1.394 . S
C72 H67 0.929 . S
C72 C71 1.394 . S
C72 C73 1.382 . S
C73 C72 1.382 . S
C73 C74 1.392 . S
C73 N75 1.420 . S
C74 H68 0.930 . S
C74 C70 1.407 . S
C74 C73 1.392 . S
N75 C73 1.420 . S
N75 C76 1.244 . S
C76 N75 1.244 . S
H77 C80 0.929 . S
H78 C83 0.929 . S
H79 C85 0.930 . S
C80 H77 0.929 . S
C80 C81 1.398 . S
C80 C82 1.396 . S
C81 C80 1.398 . S
C81 C85 1.407 . S
C82 C80 1.396 . S
C82 C83 1.394 . S
C83 H78 0.929 . S
C83 C82 1.394 . S
C83 C84 1.382 . S
C84 C83 1.382 . S
C84 C85 1.392 . S
C84 N86 1.420 . S
C85 H79 0.930 . S
C85 C81 1.407 . S
C85 C84 1.392 . S
N86 C84 1.420 . S
N86 C87 1.244 . S
C87 N86 1.244 . S
Dy88 O91 2.307 . S
Dy88 O93 2.395 . S
Dy88 O94 2.379 . S
Dy88 O96 2.339 1_545 S
Dy88 O98 2.298 . S
Dy88 O102 2.275 . S
Dy88 C110 2.738 . S
Dy89 O92 2.298 1_655 S
Dy89 O95 2.275 1_545 S
Dy89 O97 2.307 . S
Dy89 O99 2.395 1_545 S
Dy89 O100 2.379 . S
Dy89 O103 2.339 1_655 S
Dy89 C119 2.738 1_545 S
C90 O102 1.254 . S
C90 O103 1.257 . S
O91 Dy88 2.307 . S
O91 C101 1.266 1_545 S
O92 Dy89 2.298 1_455 S
O92 C101 1.236 1_545 S
O93 Dy88 2.395 . S
O93 C110 1.255 . S
O94 Dy88 2.379 . S
O94 C110 1.249 . S
O95 Dy89 2.275 1_565 S
O95 C111 1.254 . S
O96 Dy88 2.339 1_565 S
O96 C111 1.257 1_455 S
O97 Dy89 2.307 . S
O97 C112 1.266 . S
O98 Dy88 2.298 . S
O98 C112 1.236 1_455 S
O99 Dy89 2.395 1_565 S
O99 C119 1.255 . S
O100 Dy89 2.379 . S
O100 C119 1.249 1_545 S
C101 O91 1.266 1_565 S
C101 O92 1.236 1_565 S
O102 Dy88 2.275 . S
O102 C90 1.254 . S
O103 Dy89 2.339 1_455 S
O103 C90 1.257 . S
C104 C107 1.344 . S
C104 C108 1.328 . S
C104 C110 1.516 . S
C105 C106 1.304 . S
C105 C109 1.323 . S
C106 C105 1.304 . S
C106 C107 1.371 . S
C106 H120 0.930 . S
C107 C104 1.344 . S
C107 C106 1.371 . S
C107 H121 0.931 . S
C108 C104 1.328 . S
C108 C109 1.433 . S
C108 H122 0.931 . S
C109 C105 1.323 . S
C109 C108 1.433 . S
C109 H123 0.933 . S
C110 Dy88 2.738 . S
C110 O93 1.255 . S
C110 O94 1.249 . S
C110 C104 1.516 . S
C111 O95 1.254 . S
C111 O96 1.257 1_655 S
C112 O97 1.266 . S
C112 O98 1.236 1_655 S
C113 C116 1.344 . S
C113 C117 1.328 . S
C113 C119 1.516 . S
C114 C115 1.304 . S
C114 C118 1.323 . S
C115 C114 1.304 . S
C115 C116 1.371 . S
C115 H124 0.930 . S
C116 C113 1.344 . S
C116 C115 1.371 . S
C116 H125 0.931 . S
C117 C113 1.328 . S
C117 C118 1.433 . S
C117 H126 0.931 . S
C118 C114 1.323 . S
C118 C117 1.433 . S
C118 H127 0.933 . S
C119 Dy89 2.738 1_565 S
C119 O99 1.255 . S
C119 O100 1.249 1_565 S
C119 C113 1.516 . S
H120 C106 0.930 . S
H121 C107 0.931 . S
H122 C108 0.931 . S
H123 C109 0.933 . S
H124 C115 0.930 . S
H125 C116 0.931 . S
H126 C117 0.931 . S
H127 C118 0.933 . S
Dy128 O131 2.307 . S
Dy128 O133 2.395 1_545 S
Dy128 O134 2.379 1_554 S
Dy128 O136 2.339 . S
Dy128 O138 2.298 . S
Dy128 O142 2.275 1_545 S
Dy128 C150 2.738 1_544 S
Dy129 O132 2.298 . S
Dy129 O135 2.275 . S
Dy129 O137 2.307 . S
Dy129 O139 2.395 . S
Dy129 O140 2.379 . S
Dy129 O143 2.339 1_545 S
Dy129 C159 2.738 . S
C130 O142 1.254 . S
C130 O143 1.257 . S
O131 Dy128 2.307 . S
O131 C141 1.266 . S
O132 Dy129 2.298 . S
O132 C141 1.236 . S
O133 Dy128 2.395 1_565 S
O133 C150 1.255 1_554 S
O134 Dy128 2.379 1_556 S
O134 C150 1.249 1_545 S
O135 Dy129 2.275 . S
O135 C151 1.254 . S
O136 Dy128 2.339 . S
O136 C151 1.257 . S
O137 Dy129 2.307 . S
O137 C152 1.266 1_545 S
O138 Dy128 2.298 . S
O138 C152 1.236 1_545 S
O139 Dy129 2.395 . S
O139 C159 1.255 . S
O140 Dy129 2.379 . S
O140 C159 1.249 . S
C141 O131 1.266 . S
C141 O132 1.236 . S
O142 Dy128 2.275 1_565 S
O142 C130 1.254 . S
O143 Dy129 2.339 1_565 S
O143 C130 1.257 . S
C144 C147 1.344 . S
C144 C148 1.328 . S
C144 C150 1.516 . S
C145 C146 1.304 . S
C145 C149 1.323 . S
C146 C145 1.304 . S
C146 C147 1.371 . S
C146 H160 0.930 . S
C147 C144 1.344 . S
C147 C146 1.371 . S
C147 H161 0.931 . S
C148 C144 1.328 . S
C148 C149 1.433 . S
C148 H162 0.931 . S
C149 C145 1.323 . S
C149 C148 1.433 . S
C149 H163 0.933 . S
C150 Dy128 2.738 1_566 S
C150 O133 1.255 1_556 S
C150 O134 1.249 1_565 S
C150 C144 1.516 . S
C151 O135 1.254 . S
C151 O136 1.257 . S
C152 O137 1.266 1_565 S
C152 O138 1.236 1_565 S
C153 C156 1.344 . S
C153 C157 1.328 . S
C153 C159 1.516 . S
C154 C155 1.304 . S
C154 C158 1.323 . S
C155 C154 1.304 . S
C155 C156 1.371 . S
C155 H164 0.930 . S
C156 C153 1.344 . S
C156 C155 1.371 . S
C156 H165 0.931 . S
C157 C153 1.328 . S
C157 C158 1.433 . S
C157 H166 0.931 . S
C158 C154 1.323 . S
C158 C157 1.433 . S
C158 H167 0.933 . S
C159 Dy129 2.738 . S
C159 O139 1.255 . S
C159 O140 1.249 . S
C159 C153 1.516 . S
H160 C146 0.930 . S
H161 C147 0.931 . S
H162 C148 0.931 . S
H163 C149 0.933 . S
H164 C155 0.930 . S
H165 C156 0.931 . S
H166 C157 0.931 . S
H167 C158 0.933 . S
Dy168 O171 2.307 . S
Dy168 O173 2.395 . S
Dy168 O174 2.379 . S
Dy168 O176 2.339 . S
Dy168 O178 2.298 . S
Dy168 O182 2.275 . S
Dy168 C190 2.738 . S
Dy169 O172 2.298 . S
Dy169 O175 2.275 . S
Dy169 O177 2.307 . S
Dy169 O179 2.395 . S
Dy169 O180 2.379 . S
Dy169 O183 2.339 . S
Dy169 C199 2.738 . S
C170 O182 1.254 . S
C170 O183 1.257 . S
O171 Dy168 2.307 . S
O171 C181 1.266 . S
O172 Dy169 2.298 . S
O172 C181 1.236 . S
O173 Dy168 2.395 . S
O173 C190 1.255 . S
O174 Dy168 2.379 . S
O174 C190 1.249 . S
O175 Dy169 2.275 . S
O175 C191 1.254 . S
O176 Dy168 2.339 . S
O176 C191 1.257 . S
O177 Dy169 2.307 . S
O177 C192 1.266 . S
O178 Dy168 2.298 . S
O178 C192 1.236 . S
O179 Dy169 2.395 . S
O179 C199 1.255 . S
O180 Dy169 2.379 . S
O180 C199 1.249 . S
C181 O171 1.266 . S
C181 O172 1.236 . S
O182 Dy168 2.275 . S
O182 C170 1.254 . S
O183 Dy169 2.339 . S
O183 C170 1.257 . S
C184 C187 1.344 . S
C184 C188 1.328 . S
C184 C190 1.516 . S
C185 C186 1.304 . S
C185 C189 1.323 . S
C186 C185 1.304 . S
C186 C187 1.371 . S
C186 H200 0.930 . S
C187 C184 1.344 . S
C187 C186 1.371 . S
C187 H201 0.931 . S
C188 C184 1.328 . S
C188 C189 1.433 . S
C188 H202 0.931 . S
C189 C185 1.323 . S
C189 C188 1.433 . S
C189 H203 0.933 . S
C190 Dy168 2.738 . S
C190 O173 1.255 . S
C190 O174 1.249 . S
C190 C184 1.516 . S
C191 O175 1.254 . S
C191 O176 1.257 . S
C192 O177 1.266 . S
C192 O178 1.236 . S
C193 C196 1.344 . S
C193 C197 1.328 . S
C193 C199 1.516 . S
C194 C195 1.304 . S
C194 C198 1.323 . S
C195 C194 1.304 . S
C195 C196 1.371 . S
C195 H204 0.930 . S
C196 C193 1.344 . S
C196 C195 1.371 . S
C196 H205 0.931 . S
C197 C193 1.328 . S
C197 C198 1.433 . S
C197 H206 0.931 . S
C198 C194 1.323 . S
C198 C197 1.433 . S
C198 H207 0.933 . S
C199 Dy169 2.738 . S
C199 O179 1.255 . S
C199 O180 1.249 . S
C199 C193 1.516 . S
H200 C186 0.930 . S
H201 C187 0.931 . S
H202 C188 0.931 . S
H203 C189 0.933 . S
H204 C195 0.930 . S
H205 C196 0.931 . S
H206 C197 0.931 . S
H207 C198 0.933 . S
Dy208 O211 2.307 1_556 S
Dy208 O213 2.395 1_455 S
Dy208 O214 2.379 . S
Dy208 O216 2.339 . S
Dy208 O218 2.298 1_455 S
Dy208 O222 2.275 1_556 S
Dy208 C230 2.738 1_455 S
Dy209 O212 2.298 . S
Dy209 O215 2.275 1_554 S
Dy209 O217 2.307 1_455 S
Dy209 O219 2.395 . S
Dy209 O220 2.379 . S
Dy209 O223 2.339 . S
Dy209 C239 2.738 . S
C210 O222 1.254 . S
C210 O223 1.257 . S
O211 Dy208 2.307 1_554 S
O211 C221 1.266 . S
O212 Dy209 2.298 . S
O212 C221 1.236 . S
O213 Dy208 2.395 1_655 S
O213 C230 1.255 . S
O214 Dy208 2.379 . S
O214 C230 1.249 1_455 S
O215 Dy209 2.275 1_556 S
O215 C231 1.254 . S
O216 Dy208 2.339 . S
O216 C231 1.257 . S
O217 Dy209 2.307 1_655 S
O217 C232 1.266 1_554 S
O218 Dy208 2.298 1_655 S
O218 C232 1.236 . S
O219 Dy209 2.395 . S
O219 C239 1.255 . S
O220 Dy209 2.379 . S
O220 C239 1.249 . S
C221 O211 1.266 . S
C221 O212 1.236 . S
O222 Dy208 2.275 1_554 S
O222 C210 1.254 . S
O223 Dy209 2.339 . S
O223 C210 1.257 . S
C224 C227 1.344 . S
C224 C228 1.328 . S
C224 C230 1.516 . S
C225 C226 1.304 . S
C225 C229 1.323 . S
C226 C225 1.304 . S
C226 C227 1.371 . S
C226 H240 0.930 . S
C227 C224 1.344 . S
C227 C226 1.371 . S
C227 H241 0.931 . S
C228 C224 1.328 . S
C228 C229 1.433 . S
C228 H242 0.931 . S
C229 C225 1.323 . S
C229 C228 1.433 . S
C229 H243 0.933 . S
C230 Dy208 2.738 1_655 S
C230 O213 1.255 . S
C230 O214 1.249 1_655 S
C230 C224 1.516 . S
C231 O215 1.254 . S
C231 O216 1.257 . S
C232 O217 1.266 1_556 S
C232 O218 1.236 . S
C233 C236 1.344 . S
C233 C237 1.328 . S
C233 C239 1.516 . S
C234 C235 1.304 . S
C234 C238 1.323 . S
C235 C234 1.304 . S
C235 C236 1.371 . S
C235 H244 0.930 . S
C236 C233 1.344 . S
C236 C235 1.371 . S
C236 H245 0.931 . S
C237 C233 1.328 . S
C237 C238 1.433 . S
C237 H246 0.931 . S
C238 C234 1.323 . S
C238 C237 1.433 . S
C238 H247 0.933 . S
C239 Dy209 2.738 . S
C239 O219 1.255 . S
C239 O220 1.249 . S
C239 C233 1.516 . S
H240 C226 0.930 . S
H241 C227 0.931 . S
H242 C228 0.931 . S
H243 C229 0.933 . S
H244 C235 0.930 . S
H245 C236 0.931 . S
H246 C237 0.931 . S
H247 C238 0.933 . S
C248 C249 1.349 . S
C248 C250 1.327 . S
C248 H273 0.950 . S
C249 C248 1.349 . S
C249 C265 1.349 . S
C250 C248 1.327 . S
C250 C269 1.429 . S
C250 H274 0.950 . S
C251 C268 1.574 . S
C251 C270 1.368 . S
C251 H275 0.949 . S
H252 C256 0.949 . S
C253 C254 1.349 . S
C253 C255 1.327 . S
C253 H276 0.950 . S
C254 C253 1.349 . S
C254 C266 1.349 . S
C255 C253 1.327 . S
C255 C271 1.429 . S
C255 H277 0.950 . S
C256 H252 0.949 . S
C256 C264 1.574 . S
C256 C272 1.368 . S
H257 C265 0.950 . S
H258 C263 0.950 . S
H259 C264 0.949 . S
H260 C266 0.950 . S
H261 C267 0.950 . S
H262 C268 0.949 . S
C263 H258 0.950 . S
C263 C265 1.327 . S
C263 C269 1.429 . S
C264 C256 1.574 . S
C264 H259 0.949 . S
C264 C270 1.368 . S
C265 C249 1.349 . S
C265 H257 0.950 . S
C265 C263 1.327 . S
C266 C254 1.349 . S
C266 H260 0.950 . S
C266 C267 1.327 . S
C267 H261 0.950 . S
C267 C266 1.327 . S
C267 C271 1.429 . S
C268 C251 1.574 . S
C268 H262 0.949 . S
C268 C272 1.368 . S
C269 C250 1.429 . S
C269 C263 1.429 . S
C269 C270 1.523 . S
C270 C251 1.368 . S
C270 C264 1.368 . S
C270 C269 1.523 . S
C271 C255 1.429 . S
C271 C267 1.429 . S
C271 C272 1.523 . S
C272 C256 1.368 . S
C272 C268 1.368 . S
C272 C271 1.523 . S
H273 C248 0.950 . S
H274 C250 0.950 . S
H275 C251 0.949 . S
H276 C253 0.950 . S
H277 C255 0.950 . S
C278 C279 1.349 . S
C278 C280 1.327 . S
C278 H303 0.950 . S
C279 C278 1.349 . S
C279 C295 1.349 . S
C280 C278 1.327 . S
C280 C299 1.429 . S
C280 H304 0.950 . S
C281 C298 1.574 . S
C281 C300 1.368 . S
C281 H305 0.949 . S
H282 C286 0.949 . S
C283 C284 1.349 . S
C283 C285 1.327 . S
C283 H306 0.950 . S
C284 C283 1.349 . S
C284 C296 1.349 . S
C285 C283 1.327 . S
C285 C301 1.429 . S
C285 H307 0.950 . S
C286 H282 0.949 . S
C286 C294 1.574 . S
C286 C302 1.368 . S
H287 C295 0.950 . S
H288 C293 0.950 . S
H289 C294 0.949 . S
H290 C296 0.950 . S
H291 C297 0.950 . S
H292 C298 0.949 . S
C293 H288 0.950 . S
C293 C295 1.327 . S
C293 C299 1.429 . S
C294 C286 1.574 . S
C294 H289 0.949 . S
C294 C300 1.368 . S
C295 C279 1.349 . S
C295 H287 0.950 . S
C295 C293 1.327 . S
C296 C284 1.349 . S
C296 H290 0.950 . S
C296 C297 1.327 . S
C297 H291 0.950 . S
C297 C296 1.327 . S
C297 C301 1.429 . S
C298 C281 1.574 . S
C298 H292 0.949 . S
C298 C302 1.368 . S
C299 C280 1.429 . S
C299 C293 1.429 . S
C299 C300 1.523 . S
C300 C281 1.368 . S
C300 C294 1.368 . S
C300 C299 1.523 . S
C301 C285 1.429 . S
C301 C297 1.429 . S
C301 C302 1.523 . S
C302 C286 1.368 . S
C302 C298 1.368 . S
C302 C301 1.523 . S
H303 C278 0.950 . S
H304 C280 0.950 . S
H305 C281 0.949 . S
H306 C283 0.950 . S
H307 C285 0.950 . S
C308 C309 1.349 . S
C308 C310 1.327 . S
C308 H333 0.950 . S
C309 C308 1.349 . S
C309 C325 1.349 . S
C310 C308 1.327 . S
C310 C329 1.429 . S
C310 H334 0.950 . S
C311 C328 1.574 . S
C311 C330 1.368 . S
C311 H335 0.949 . S
H312 C316 0.949 . S
C313 C314 1.349 . S
C313 C315 1.327 . S
C313 H336 0.950 . S
C314 C313 1.349 . S
C314 C326 1.349 . S
C315 C313 1.327 . S
C315 C331 1.429 . S
C315 H337 0.950 . S
C316 H312 0.949 . S
C316 C324 1.574 . S
C316 C332 1.368 . S
H317 C325 0.950 . S
H318 C323 0.950 . S
H319 C324 0.949 . S
H320 C326 0.950 . S
H321 C327 0.950 . S
H322 C328 0.949 . S
C323 H318 0.950 . S
C323 C325 1.327 . S
C323 C329 1.429 . S
C324 C316 1.574 . S
C324 H319 0.949 . S
C324 C330 1.368 . S
C325 C309 1.349 . S
C325 H317 0.950 . S
C325 C323 1.327 . S
C326 C314 1.349 . S
C326 H320 0.950 . S
C326 C327 1.327 . S
C327 H321 0.950 . S
C327 C326 1.327 . S
C327 C331 1.429 . S
C328 C311 1.574 . S
C328 H322 0.949 . S
C328 C332 1.368 . S
C329 C310 1.429 . S
C329 C323 1.429 . S
C329 C330 1.523 . S
C330 C311 1.368 . S
C330 C324 1.368 . S
C330 C329 1.523 . S
C331 C315 1.429 . S
C331 C327 1.429 . S
C331 C332 1.523 . S
C332 C316 1.368 . S
C332 C328 1.368 . S
C332 C331 1.523 . S
H333 C308 0.950 . S
H334 C310 0.950 . S
H335 C311 0.949 . S
H336 C313 0.950 . S
H337 C315 0.950 . S
C338 C339 1.349 . S
C338 C340 1.327 . S
C338 H363 0.950 . S
C339 C338 1.349 . S
C339 C355 1.349 . S
C340 C338 1.327 . S
C340 C359 1.429 . S
C340 H364 0.950 . S
C341 C358 1.574 . S
C341 C360 1.368 . S
C341 H365 0.949 . S
H342 C346 0.949 . S
C343 C344 1.349 1_455 S
C343 C345 1.327 1_455 S
C343 H366 0.950 . S
C344 C343 1.349 1_655 S
C344 C356 1.349 . S
C345 C343 1.327 1_655 S
C345 C361 1.429 . S
C345 H367 0.950 1_655 S
C346 H342 0.949 . S
C346 C354 1.574 . S
C346 C362 1.368 . S
H347 C355 0.950 . S
H348 C353 0.950 . S
H349 C354 0.949 . S
H350 C356 0.950 . S
H351 C357 0.950 . S
H352 C358 0.949 . S
C353 H348 0.950 . S
C353 C355 1.327 . S
C353 C359 1.429 . S
C354 C346 1.574 . S
C354 H349 0.949 . S
C354 C360 1.368 . S
C355 C339 1.349 . S
C355 H347 0.950 . S
C355 C353 1.327 . S
C356 C344 1.349 . S
C356 H350 0.950 . S
C356 C357 1.327 . S
C357 H351 0.950 . S
C357 C356 1.327 . S
C357 C361 1.429 . S
C358 C341 1.574 . S
C358 H352 0.949 . S
C358 C362 1.368 . S
C359 C340 1.429 . S
C359 C353 1.429 . S
C359 C360 1.523 . S
C360 C341 1.368 . S
C360 C354 1.368 . S
C360 C359 1.523 . S
C361 C345 1.429 . S
C361 C357 1.429 . S
C361 C362 1.523 . S
C362 C346 1.368 . S
C362 C358 1.368 . S
C362 C361 1.523 . S
H363 C338 0.950 . S
H364 C340 0.950 . S
H365 C341 0.949 . S
H366 C343 0.950 . S
H367 C345 0.950 1_455 S
C368 C369 1.349 . S
C368 C370 1.327 . S
C368 H393 0.950 . S
C369 C368 1.349 . S
C369 C385 1.349 . S
C370 C368 1.327 . S
C370 C389 1.429 . S
C370 H394 0.950 . S
C371 C388 1.574 . S
C371 C390 1.368 . S
C371 H395 0.949 . S
H372 C376 0.949 . S
C373 C374 1.349 . S
C373 C375 1.327 . S
C373 H396 0.950 . S
C374 C373 1.349 . S
C374 C386 1.349 . S
C375 C373 1.327 . S
C375 C391 1.429 . S
C375 H397 0.950 . S
C376 H372 0.949 . S
C376 C384 1.574 . S
C376 C392 1.368 . S
H377 C385 0.950 . S
H378 C383 0.950 . S
H379 C384 0.949 . S
H380 C386 0.950 . S
H381 C387 0.950 . S
H382 C388 0.949 . S
C383 H378 0.950 . S
C383 C385 1.327 . S
C383 C389 1.429 . S
C384 C376 1.574 . S
C384 H379 0.949 . S
C384 C390 1.368 . S
C385 C369 1.349 . S
C385 H377 0.950 . S
C385 C383 1.327 . S
C386 C374 1.349 . S
C386 H380 0.950 . S
C386 C387 1.327 . S
C387 H381 0.950 . S
C387 C386 1.327 . S
C387 C391 1.429 . S
C388 C371 1.574 . S
C388 H382 0.949 . S
C388 C392 1.368 . S
C389 C370 1.429 . S
C389 C383 1.429 . S
C389 C390 1.523 . S
C390 C371 1.368 . S
C390 C384 1.368 . S
C390 C389 1.523 . S
C391 C375 1.429 . S
C391 C387 1.429 . S
C391 C392 1.523 . S
C392 C376 1.368 . S
C392 C388 1.368 . S
C392 C391 1.523 . S
H393 C368 0.950 . S
H394 C370 0.950 . S
H395 C371 0.949 . S
H396 C373 0.950 . S
H397 C375 0.950 . S
C398 C399 1.349 . S
C398 C400 1.327 . S
C398 H423 0.950 . S
C399 C398 1.349 . S
C399 C415 1.349 . S
C400 C398 1.327 . S
C400 C419 1.429 . S
C400 H424 0.950 . S
C401 C418 1.574 . S
C401 C420 1.368 . S
C401 H425 0.949 . S
H402 C406 0.949 . S
C403 C404 1.349 . S
C403 C405 1.327 . S
C403 H426 0.950 . S
C404 C403 1.349 . S
C404 C416 1.349 . S
C405 C403 1.327 . S
C405 C421 1.429 . S
C405 H427 0.950 . S
C406 H402 0.949 . S
C406 C414 1.574 . S
C406 C422 1.368 . S
H407 C415 0.950 . S
H408 C413 0.950 . S
H409 C414 0.949 . S
H410 C416 0.950 . S
H411 C417 0.950 . S
H412 C418 0.949 . S
C413 H408 0.950 . S
C413 C415 1.327 . S
C413 C419 1.429 . S
C414 C406 1.574 . S
C414 H409 0.949 . S
C414 C420 1.368 . S
C415 C399 1.349 . S
C415 H407 0.950 . S
C415 C413 1.327 . S
C416 C404 1.349 . S
C416 H410 0.950 . S
C416 C417 1.327 . S
C417 H411 0.950 . S
C417 C416 1.327 . S
C417 C421 1.429 . S
C418 C401 1.574 . S
C418 H412 0.949 . S
C418 C422 1.368 . S
C419 C400 1.429 . S
C419 C413 1.429 . S
C419 C420 1.523 . S
C420 C401 1.368 . S
C420 C414 1.368 . S
C420 C419 1.523 . S
C421 C405 1.429 . S
C421 C417 1.429 . S
C421 C422 1.523 . S
C422 C406 1.368 . S
C422 C418 1.368 . S
C422 C421 1.523 . S
H423 C398 0.950 . S
H424 C400 0.950 . S
H425 C401 0.949 . S
H426 C403 0.950 . S
H427 C405 0.950 . S
C428 C429 1.349 . S
C428 C430 1.327 . S
C428 H453 0.950 . S
C429 C428 1.349 . S
C429 C445 1.349 . S
C430 C428 1.327 . S
C430 C449 1.429 . S
C430 H454 0.950 . S
C431 C448 1.574 . S
C431 C450 1.368 . S
C431 H455 0.949 . S
H432 C436 0.949 . S
C433 C434 1.349 . S
C433 C435 1.327 . S
C433 H456 0.950 . S
C434 C433 1.349 . S
C434 C446 1.349 . S
C435 C433 1.327 . S
C435 C451 1.429 . S
C435 H457 0.950 . S
C436 H432 0.949 . S
C436 C444 1.574 . S
C436 C452 1.368 . S
H437 C445 0.950 . S
H438 C443 0.950 . S
H439 C444 0.949 . S
H440 C446 0.950 . S
H441 C447 0.950 . S
H442 C448 0.949 . S
C443 H438 0.950 . S
C443 C445 1.327 . S
C443 C449 1.429 . S
C444 C436 1.574 . S
C444 H439 0.949 . S
C444 C450 1.368 . S
C445 C429 1.349 . S
C445 H437 0.950 . S
C445 C443 1.327 . S
C446 C434 1.349 . S
C446 H440 0.950 . S
C446 C447 1.327 . S
C447 H441 0.950 . S
C447 C446 1.327 . S
C447 C451 1.429 . S
C448 C431 1.574 . S
C448 H442 0.949 . S
C448 C452 1.368 . S
C449 C430 1.429 . S
C449 C443 1.429 . S
C449 C450 1.523 . S
C450 C431 1.368 . S
C450 C444 1.368 . S
C450 C449 1.523 . S
C451 C435 1.429 . S
C451 C447 1.429 . S
C451 C452 1.523 . S
C452 C436 1.368 . S
C452 C448 1.368 . S
C452 C451 1.523 . S
H453 C428 0.950 . S
H454 C430 0.950 . S
H455 C431 0.949 . S
H456 C433 0.950 . S
H457 C435 0.950 . S
C458 C459 1.349 . S
C458 C460 1.327 . S
C458 H483 0.950 . S
C459 C458 1.349 . S
C459 C475 1.349 . S
C460 C458 1.327 . S
C460 C479 1.429 . S
C460 H484 0.950 . S
C461 C478 1.574 . S
C461 C480 1.368 . S
C461 H485 0.949 . S
H462 C466 0.949 . S
C463 C464 1.349 . S
C463 C465 1.327 . S
C463 H486 0.950 . S
C464 C463 1.349 . S
C464 C476 1.349 . S
C465 C463 1.327 . S
C465 C481 1.429 . S
C465 H487 0.950 . S
C466 H462 0.949 . S
C466 C474 1.574 . S
C466 C482 1.368 . S
H467 C475 0.950 . S
H468 C473 0.950 . S
H469 C474 0.949 . S
H470 C476 0.950 . S
H471 C477 0.950 . S
H472 C478 0.949 . S
C473 H468 0.950 . S
C473 C475 1.327 . S
C473 C479 1.429 . S
C474 C466 1.574 . S
C474 H469 0.949 . S
C474 C480 1.368 . S
C475 C459 1.349 . S
C475 H467 0.950 . S
C475 C473 1.327 . S
C476 C464 1.349 . S
C476 H470 0.950 . S
C476 C477 1.327 . S
C477 H471 0.950 . S
C477 C476 1.327 . S
C477 C481 1.429 . S
C478 C461 1.574 . S
C478 H472 0.949 . S
C478 C482 1.368 . S
C479 C460 1.429 . S
C479 C473 1.429 . S
C479 C480 1.523 . S
C480 C461 1.368 . S
C480 C474 1.368 . S
C480 C479 1.523 . S
C481 C465 1.429 . S
C481 C477 1.429 . S
C481 C482 1.523 . S
C482 C466 1.368 . S
C482 C478 1.368 . S
C482 C481 1.523 . S
H483 C458 0.950 . S
H484 C460 0.950 . S
H485 C461 0.949 . S
H486 C463 0.950 . S
H487 C465 0.950 . S
C488 C489 1.349 . S
C488 C490 1.327 . S
C488 H513 0.950 . S
C489 C488 1.349 . S
C489 C505 1.349 . S
C490 C488 1.327 . S
C490 C509 1.429 . S
C490 H514 0.950 . S
C491 C508 1.574 . S
C491 C510 1.368 . S
C491 H515 0.949 . S
H492 C496 0.949 . S
C493 C494 1.349 . S
C493 C495 1.327 . S
C493 H516 0.950 . S
C494 C493 1.349 . S
C494 C506 1.349 . S
C495 C493 1.327 . S
C495 C511 1.429 . S
C495 H517 0.950 . S
C496 H492 0.949 . S
C496 C504 1.574 . S
C496 C512 1.368 . S
H497 C505 0.950 . S
H498 C503 0.950 . S
H499 C504 0.949 . S
H500 C506 0.950 . S
H501 C507 0.950 . S
H502 C508 0.949 . S
C503 H498 0.950 . S
C503 C505 1.327 . S
C503 C509 1.429 . S
C504 C496 1.574 . S
C504 H499 0.949 . S
C504 C510 1.368 . S
C505 C489 1.349 . S
C505 H497 0.950 . S
C505 C503 1.327 . S
C506 C494 1.349 . S
C506 H500 0.950 . S
C506 C507 1.327 . S
C507 H501 0.950 . S
C507 C506 1.327 . S
C507 C511 1.429 . S
C508 C491 1.574 . S
C508 H502 0.949 . S
C508 C512 1.368 . S
C509 C490 1.429 . S
C509 C503 1.429 . S
C509 C510 1.523 . S
C510 C491 1.368 . S
C510 C504 1.368 . S
C510 C509 1.523 . S
C511 C495 1.429 . S
C511 C507 1.429 . S
C511 C512 1.523 . S
C512 C496 1.368 . S
C512 C508 1.368 . S
C512 C511 1.523 . S
H513 C488 0.950 . S
H514 C490 0.950 . S
H515 C491 0.949 . S
H516 C493 0.950 . S
H517 C495 0.950 . S
C518 C519 1.349 . S
C518 C520 1.327 . S
C518 H543 0.950 . S
C519 C518 1.349 . S
C519 C535 1.349 . S
C520 C518 1.327 . S
C520 C539 1.429 . S
C520 H544 0.950 . S
C521 C538 1.574 . S
C521 C540 1.368 . S
C521 H545 0.949 . S
H522 C526 0.949 . S
C523 C524 1.349 1_556 S
C523 C525 1.327 . S
C523 H546 0.950 . S
C524 C523 1.349 1_554 S
C524 C536 1.349 . S
C525 C523 1.327 . S
C525 C541 1.429 . S
C525 H547 0.950 . S
C526 H522 0.949 . S
C526 C534 1.574 . S
C526 C542 1.368 . S
H527 C535 0.950 . S
H528 C533 0.950 . S
H529 C534 0.949 . S
H530 C536 0.950 . S
H531 C537 0.950 1_554 S
H532 C538 0.949 . S
C533 H528 0.950 . S
C533 C535 1.327 . S
C533 C539 1.429 . S
C534 C526 1.574 . S
C534 H529 0.949 . S
C534 C540 1.368 . S
C535 C519 1.349 . S
C535 H527 0.950 . S
C535 C533 1.327 . S
C536 C524 1.349 . S
C536 H530 0.950 . S
C536 C537 1.327 1_554 S
C537 H531 0.950 1_556 S
C537 C536 1.327 1_556 S
C537 C541 1.429 . S
C538 C521 1.574 . S
C538 H532 0.949 . S
C538 C542 1.368 . S
C539 C520 1.429 . S
C539 C533 1.429 . S
C539 C540 1.523 . S
C540 C521 1.368 . S
C540 C534 1.368 . S
C540 C539 1.523 . S
C541 C525 1.429 . S
C541 C537 1.429 . S
C541 C542 1.523 . S
C542 C526 1.368 . S
C542 C538 1.368 . S
C542 C541 1.523 . S
H543 C518 0.950 . S
H544 C520 0.950 . S
H545 C521 0.949 . S
H546 C523 0.950 . S
H547 C525 0.950 . S
C548 C549 1.349 . S
C548 C550 1.327 . S
C548 H573 0.950 . S
C549 C548 1.349 . S
C549 C565 1.349 . S
C550 C548 1.327 . S
C550 C569 1.429 . S
C550 H574 0.950 . S
C551 C568 1.574 . S
C551 C570 1.368 . S
C551 H575 0.949 . S
H552 C556 0.949 . S
C553 C554 1.349 . S
C553 C555 1.327 . S
C553 H576 0.950 . S
C554 C553 1.349 . S
C554 C566 1.349 . S
C555 C553 1.327 . S
C555 C571 1.429 . S
C555 H577 0.950 . S
C556 H552 0.949 . S
C556 C564 1.574 . S
C556 C572 1.368 . S
H557 C565 0.950 . S
H558 C563 0.950 . S
H559 C564 0.949 . S
H560 C566 0.950 . S
H561 C567 0.950 . S
H562 C568 0.949 . S
C563 H558 0.950 . S
C563 C565 1.327 . S
C563 C569 1.429 . S
C564 C556 1.574 . S
C564 H559 0.949 . S
C564 C570 1.368 . S
C565 C549 1.349 . S
C565 H557 0.950 . S
C565 C563 1.327 . S
C566 C554 1.349 . S
C566 H560 0.950 . S
C566 C567 1.327 . S
C567 H561 0.950 . S
C567 C566 1.327 . S
C567 C571 1.429 . S
C568 C551 1.574 . S
C568 H562 0.949 . S
C568 C572 1.368 . S
C569 C550 1.429 . S
C569 C563 1.429 . S
C569 C570 1.523 . S
C570 C551 1.368 . S
C570 C564 1.368 . S
C570 C569 1.523 . S
C571 C555 1.429 . S
C571 C567 1.429 . S
C571 C572 1.523 . S
C572 C556 1.368 . S
C572 C568 1.368 . S
C572 C571 1.523 . S
H573 C548 0.950 . S
H574 C550 0.950 . S
H575 C551 0.949 . S
H576 C553 0.950 . S
H577 C555 0.950 . S
C578 C579 1.349 . S
C578 C580 1.327 . S
C578 H603 0.950 . S
C579 C578 1.349 . S
C579 C595 1.349 . S
C580 C578 1.327 . S
C580 C599 1.429 . S
C580 H604 0.950 . S
C581 C598 1.574 . S
C581 C600 1.368 . S
C581 H605 0.949 . S
H582 C586 0.949 . S
C583 C584 1.349 . S
C583 C585 1.327 . S
C583 H606 0.950 . S
C584 C583 1.349 . S
C584 C596 1.349 . S
C585 C583 1.327 . S
C585 C601 1.429 . S
C585 H607 0.950 . S
C586 H582 0.949 . S
C586 C594 1.574 . S
C586 C602 1.368 . S
H587 C595 0.950 . S
H588 C593 0.950 . S
H589 C594 0.949 . S
H590 C596 0.950 . S
H591 C597 0.950 . S
H592 C598 0.949 . S
C593 H588 0.950 . S
C593 C595 1.327 . S
C593 C599 1.429 . S
C594 C586 1.574 . S
C594 H589 0.949 . S
C594 C600 1.368 . S
C595 C579 1.349 . S
C595 H587 0.950 . S
C595 C593 1.327 . S
C596 C584 1.349 . S
C596 H590 0.950 . S
C596 C597 1.327 . S
C597 H591 0.950 . S
C597 C596 1.327 . S
C597 C601 1.429 . S
C598 C581 1.574 . S
C598 H592 0.949 . S
C598 C602 1.368 . S
C599 C580 1.429 . S
C599 C593 1.429 . S
C599 C600 1.523 . S
C600 C581 1.368 . S
C600 C594 1.368 . S
C600 C599 1.523 . S
C601 C585 1.429 . S
C601 C597 1.429 . S
C601 C602 1.523 . S
C602 C586 1.368 . S
C602 C598 1.368 . S
C602 C601 1.523 . S
H603 C578 0.950 . S
H604 C580 0.950 . S
H605 C581 0.949 . S
H606 C583 0.950 . S
H607 C585 0.950 . S
C608 C609 1.349 . S
C608 C610 1.327 . S
C608 H633 0.950 . S
C609 C608 1.349 . S
C609 C625 1.349 . S
C610 C608 1.327 . S
C610 C629 1.429 . S
C610 H634 0.950 . S
C611 C628 1.574 . S
C611 C630 1.368 . S
C611 H635 0.949 . S
H612 C616 0.949 . S
C613 C614 1.349 . S
C613 C615 1.327 . S
C613 H636 0.950 . S
C614 C613 1.349 . S
C614 C626 1.349 . S
C615 C613 1.327 . S
C615 C631 1.429 . S
C615 H637 0.950 . S
C616 H612 0.949 . S
C616 C624 1.574 . S
C616 C632 1.368 . S
H617 C625 0.950 . S
H618 C623 0.950 . S
H619 C624 0.949 . S
H620 C626 0.950 . S
H621 C627 0.950 . S
H622 C628 0.949 . S
C623 H618 0.950 . S
C623 C625 1.327 . S
C623 C629 1.429 . S
C624 C616 1.574 . S
C624 H619 0.949 . S
C624 C630 1.368 . S
C625 C609 1.349 . S
C625 H617 0.950 . S
C625 C623 1.327 . S
C626 C614 1.349 . S
C626 H620 0.950 . S
C626 C627 1.327 . S
C627 H621 0.950 . S
C627 C626 1.327 . S
C627 C631 1.429 . S
C628 C611 1.574 . S
C628 H622 0.949 . S
C628 C632 1.368 . S
C629 C610 1.429 . S
C629 C623 1.429 . S
C629 C630 1.523 . S
C630 C611 1.368 . S
C630 C624 1.368 . S
C630 C629 1.523 . S
C631 C615 1.429 . S
C631 C627 1.429 . S
C631 C632 1.523 . S
C632 C616 1.368 . S
C632 C628 1.368 . S
C632 C631 1.523 . S
H633 C608 0.950 . S
H634 C610 0.950 . S
H635 C611 0.949 . S
H636 C613 0.950 . S
H637 C615 0.950 . S
C638 C639 1.349 . S
C638 C640 1.327 . S
C638 H663 0.950 . S
C639 C638 1.349 . S
C639 C655 1.349 . S
C640 C638 1.327 . S
C640 C659 1.429 . S
C640 H664 0.950 . S
C641 C658 1.574 . S
C641 C660 1.368 . S
C641 H665 0.949 . S
H642 C646 0.949 . S
C643 C644 1.349 . S
C643 C645 1.327 . S
C643 H666 0.950 . S
C644 C643 1.349 . S
C644 C656 1.349 . S
C645 C643 1.327 . S
C645 C661 1.429 . S
C645 H667 0.950 . S
C646 H642 0.949 . S
C646 C654 1.574 . S
C646 C662 1.368 . S
H647 C655 0.950 . S
H648 C653 0.950 . S
H649 C654 0.949 . S
H650 C656 0.950 . S
H651 C657 0.950 . S
H652 C658 0.949 . S
C653 H648 0.950 . S
C653 C655 1.327 . S
C653 C659 1.429 . S
C654 C646 1.574 . S
C654 H649 0.949 . S
C654 C660 1.368 . S
C655 C639 1.349 . S
C655 H647 0.950 . S
C655 C653 1.327 . S
C656 C644 1.349 . S
C656 H650 0.950 . S
C656 C657 1.327 . S
C657 H651 0.950 . S
C657 C656 1.327 . S
C657 C661 1.429 . S
C658 C641 1.574 . S
C658 H652 0.949 . S
C658 C662 1.368 . S
C659 C640 1.429 . S
C659 C653 1.429 . S
C659 C660 1.523 . S
C660 C641 1.368 . S
C660 C654 1.368 . S
C660 C659 1.523 . S
C661 C645 1.429 . S
C661 C657 1.429 . S
C661 C662 1.523 . S
C662 C646 1.368 . S
C662 C658 1.368 . S
C662 C661 1.523 . S
H663 C638 0.950 . S
H664 C640 0.950 . S
H665 C641 0.949 . S
H666 C643 0.950 . S
H667 C645 0.950 . S
C668 C669 1.349 . S
C668 C670 1.327 . S
C668 H693 0.950 . S
C669 C668 1.349 . S
C669 C685 1.349 . S
C670 C668 1.327 . S
C670 C689 1.429 . S
C670 H694 0.950 . S
C671 C688 1.574 . S
C671 C690 1.368 . S
C671 H695 0.949 . S
H672 C676 0.949 . S
C673 C674 1.349 . S
C673 C675 1.327 . S
C673 H696 0.950 . S
C674 C673 1.349 . S
C674 C686 1.349 . S
C675 C673 1.327 . S
C675 C691 1.429 . S
C675 H697 0.950 . S
C676 H672 0.949 . S
C676 C684 1.574 . S
C676 C692 1.368 . S
H677 C685 0.950 . S
H678 C683 0.950 . S
H679 C684 0.949 . S
H680 C686 0.950 . S
H681 C687 0.950 . S
H682 C688 0.949 . S
C683 H678 0.950 . S
C683 C685 1.327 . S
C683 C689 1.429 . S
C684 C676 1.574 . S
C684 H679 0.949 . S
C684 C690 1.368 . S
C685 C669 1.349 . S
C685 H677 0.950 . S
C685 C683 1.327 . S
C686 C674 1.349 . S
C686 H680 0.950 . S
C686 C687 1.327 . S
C687 H681 0.950 . S
C687 C686 1.327 . S
C687 C691 1.429 . S
C688 C671 1.574 . S
C688 H682 0.949 . S
C688 C692 1.368 . S
C689 C670 1.429 . S
C689 C683 1.429 . S
C689 C690 1.523 . S
C690 C671 1.368 . S
C690 C684 1.368 . S
C690 C689 1.523 . S
C691 C675 1.429 . S
C691 C687 1.429 . S
C691 C692 1.523 . S
C692 C676 1.368 . S
C692 C688 1.368 . S
C692 C691 1.523 . S
H693 C668 0.950 . S
H694 C670 0.950 . S
H695 C671 0.949 . S
H696 C673 0.950 . S
H697 C675 0.950 . S
C698 C699 1.349 . S
C698 C700 1.327 . S
C698 H723 0.950 . S
C699 C698 1.349 . S
C699 C715 1.349 . S
C700 C698 1.327 . S
C700 C719 1.429 . S
C700 H724 0.950 . S
C701 C718 1.574 . S
C701 C720 1.368 . S
C701 H725 0.949 . S
H702 C706 0.949 . S
C703 C704 1.349 . S
C703 C705 1.327 . S
C703 H726 0.950 . S
C704 C703 1.349 . S
C704 C716 1.349 . S
C705 C703 1.327 . S
C705 C721 1.429 . S
C705 H727 0.950 . S
C706 H702 0.949 . S
C706 C714 1.574 . S
C706 C722 1.368 . S
H707 C715 0.950 . S
H708 C713 0.950 . S
H709 C714 0.949 . S
H710 C716 0.950 . S
H711 C717 0.950 . S
H712 C718 0.949 . S
C713 H708 0.950 . S
C713 C715 1.327 . S
C713 C719 1.429 . S
C714 C706 1.574 . S
C714 H709 0.949 . S
C714 C720 1.368 . S
C715 C699 1.349 . S
C715 H707 0.950 . S
C715 C713 1.327 . S
C716 C704 1.349 . S
C716 H710 0.950 . S
C716 C717 1.327 . S
C717 H711 0.950 . S
C717 C716 1.327 . S
C717 C721 1.429 . S
C718 C701 1.574 . S
C718 H712 0.949 . S
C718 C722 1.368 . S
C719 C700 1.429 . S
C719 C713 1.429 . S
C719 C720 1.523 . S
C720 C701 1.368 . S
C720 C714 1.368 . S
C720 C719 1.523 . S
C721 C705 1.429 . S
C721 C717 1.429 . S
C721 C722 1.523 . S
C722 C706 1.368 . S
C722 C718 1.368 . S
C722 C721 1.523 . S
H723 C698 0.950 . S
H724 C700 0.950 . S
H725 C701 0.949 . S
H726 C703 0.950 . S
H727 C705 0.950 . S
C728 C729 1.349 . S
C728 C730 1.327 . S
C728 H753 0.950 . S
C729 C728 1.349 . S
C729 C745 1.349 . S
C730 C728 1.327 . S
C730 C749 1.429 . S
C730 H754 0.950 . S
C731 C748 1.574 . S
C731 C750 1.368 . S
C731 H755 0.949 . S
H732 C736 0.949 . S
C733 C734 1.349 1_556 S
C733 C735 1.327 . S
C733 H756 0.950 . S
C734 C733 1.349 1_554 S
C734 C746 1.349 . S
C735 C733 1.327 . S
C735 C751 1.429 . S
C735 H757 0.950 . S
C736 H732 0.949 . S
C736 C744 1.574 . S
C736 C752 1.368 . S
H737 C745 0.950 . S
H738 C743 0.950 . S
H739 C744 0.949 . S
H740 C746 0.950 . S
H741 C747 0.961 . S
H742 C748 0.949 . S
C743 H738 0.950 . S
C743 C745 1.327 . S
C743 C749 1.429 . S
C744 C736 1.574 . S
C744 H739 0.949 . S
C744 C750 1.368 . S
C745 C729 1.349 . S
C745 H737 0.950 . S
C745 C743 1.327 . S
C746 C734 1.349 . S
C746 H740 0.950 . S
C746 C747 1.342 . S
C747 H741 0.961 . S
C747 C746 1.342 . S
C747 C751 1.404 1_554 S
C748 C731 1.574 . S
C748 H742 0.949 . S
C748 C752 1.368 . S
C749 C730 1.429 . S
C749 C743 1.429 . S
C749 C750 1.523 . S
C750 C731 1.368 . S
C750 C744 1.368 . S
C750 C749 1.523 . S
C751 C735 1.429 . S
C751 C747 1.404 1_556 S
C751 C752 1.523 . S
C752 C736 1.368 . S
C752 C748 1.368 . S
C752 C751 1.523 . S
H753 C728 0.950 . S
H754 C730 0.950 . S
H755 C731 0.949 . S
H756 C733 0.950 . S
H757 C735 0.950 . S
C758 C759 1.349 . S
C758 C760 1.327 . S
C758 H783 0.950 . S
C759 C758 1.349 . S
C759 C775 1.349 . S
C760 C758 1.327 . S
C760 C779 1.429 . S
C760 H784 0.950 . S
C761 C778 1.574 . S
C761 C780 1.368 . S
C761 H785 0.949 . S
H762 C766 0.949 . S
C763 C764 1.349 . S
C763 C765 1.327 . S
C763 H786 0.950 . S
C764 C763 1.349 . S
C764 C776 1.349 . S
C765 C763 1.327 . S
C765 C781 1.429 . S
C765 H787 0.950 . S
C766 H762 0.949 . S
C766 C774 1.574 . S
C766 C782 1.368 . S
H767 C775 0.950 . S
H768 C773 0.950 . S
H769 C774 0.949 . S
H770 C776 0.950 . S
H771 C777 0.950 . S
H772 C778 0.949 . S
C773 H768 0.950 . S
C773 C775 1.327 . S
C773 C779 1.429 . S
C774 C766 1.574 . S
C774 H769 0.949 . S
C774 C780 1.368 . S
C775 C759 1.349 . S
C775 H767 0.950 . S
C775 C773 1.327 . S
C776 C764 1.349 . S
C776 H770 0.950 . S
C776 C777 1.327 . S
C777 H771 0.950 . S
C777 C776 1.327 . S
C777 C781 1.429 . S
C778 C761 1.574 . S
C778 H772 0.949 . S
C778 C782 1.368 . S
C779 C760 1.429 . S
C779 C773 1.429 . S
C779 C780 1.523 . S
C780 C761 1.368 . S
C780 C774 1.368 . S
C780 C779 1.523 . S
C781 C765 1.429 . S
C781 C777 1.429 . S
C781 C782 1.523 . S
C782 C766 1.368 . S
C782 C778 1.368 . S
C782 C781 1.523 . S
H783 C758 0.950 . S
H784 C760 0.950 . S
H785 C761 0.949 . S
H786 C763 0.950 . S
H787 C765 0.950 . S
C788 C789 1.349 . S
C788 C790 1.327 . S
C788 H813 0.950 . S
C789 C788 1.349 . S
C789 C805 1.349 . S
C790 C788 1.327 . S
C790 C809 1.429 . S
C790 H814 0.950 . S
C791 C808 1.574 . S
C791 C810 1.368 . S
C791 H815 0.949 . S
H792 C796 0.949 . S
C793 C794 1.349 . S
C793 C795 1.327 . S
C793 H816 0.950 . S
C794 C793 1.349 . S
C794 C806 1.349 . S
C795 C793 1.327 . S
C795 C811 1.429 . S
C795 H817 0.950 . S
C796 H792 0.949 . S
C796 C804 1.574 . S
C796 C812 1.368 . S
H797 C805 0.950 . S
H798 C803 0.950 . S
H799 C804 0.949 . S
H800 C806 0.950 . S
H801 C807 0.950 . S
H802 C808 0.949 . S
C803 H798 0.950 . S
C803 C805 1.327 . S
C803 C809 1.429 . S
C804 C796 1.574 . S
C804 H799 0.949 . S
C804 C810 1.368 . S
C805 C789 1.349 . S
C805 H797 0.950 . S
C805 C803 1.327 . S
C806 C794 1.349 . S
C806 H800 0.950 . S
C806 C807 1.327 . S
C807 H801 0.950 . S
C807 C806 1.327 . S
C807 C811 1.429 . S
C808 C791 1.574 . S
C808 H802 0.949 . S
C808 C812 1.368 . S
C809 C790 1.429 . S
C809 C803 1.429 . S
C809 C810 1.523 . S
C810 C791 1.368 . S
C810 C804 1.368 . S
C810 C809 1.523 . S
C811 C795 1.429 . S
C811 C807 1.429 . S
C811 C812 1.523 . S
C812 C796 1.368 . S
C812 C808 1.368 . S
C812 C811 1.523 . S
H813 C788 0.950 . S
H814 C790 0.950 . S
H815 C791 0.949 . S
H816 C793 0.950 . S
H817 C795 0.950 . S
C818 C819 1.349 . S
C818 C820 1.327 . S
C818 H843 0.950 . S
C819 C818 1.349 . S
C819 C835 1.349 . S
C820 C818 1.327 . S
C820 C839 1.429 . S
C820 H844 0.950 . S
C821 C838 1.574 . S
C821 C840 1.368 . S
C821 H845 0.949 . S
H822 C826 0.949 . S
C823 C824 1.349 . S
C823 C825 1.327 . S
C823 H846 0.950 . S
C824 C823 1.349 . S
C824 C836 1.349 . S
C825 C823 1.327 . S
C825 C841 1.429 . S
C825 H847 0.950 . S
C826 H822 0.949 . S
C826 C834 1.574 . S
C826 C842 1.368 . S
H827 C835 0.950 . S
H828 C833 0.950 . S
H829 C834 0.949 . S
H830 C836 0.950 . S
H831 C837 0.950 . S
H832 C838 0.949 . S
C833 H828 0.950 . S
C833 C835 1.327 . S
C833 C839 1.429 . S
C834 C826 1.574 . S
C834 H829 0.949 . S
C834 C840 1.368 . S
C835 C819 1.349 . S
C835 H827 0.950 . S
C835 C833 1.327 . S
C836 C824 1.349 . S
C836 H830 0.950 . S
C836 C837 1.327 . S
C837 H831 0.950 . S
C837 C836 1.327 . S
C837 C841 1.429 . S
C838 C821 1.574 . S
C838 H832 0.949 . S
C838 C842 1.368 . S
C839 C820 1.429 . S
C839 C833 1.429 . S
C839 C840 1.523 . S
C840 C821 1.368 . S
C840 C834 1.368 . S
C840 C839 1.523 . S
C841 C825 1.429 . S
C841 C837 1.429 . S
C841 C842 1.523 . S
C842 C826 1.368 . S
C842 C838 1.368 . S
C842 C841 1.523 . S
H843 C818 0.950 . S
H844 C820 0.950 . S
H845 C821 0.949 . S
H846 C823 0.950 . S
H847 C825 0.950 . S
C848 C849 1.349 . S
C848 C850 1.327 . S
C848 H873 0.950 . S
C849 C848 1.349 . S
C849 C865 1.349 . S
C850 C848 1.327 . S
C850 C869 1.429 . S
C850 H874 0.950 . S
C851 C868 1.574 . S
C851 C870 1.368 . S
C851 H875 0.949 . S
H852 C856 0.949 . S
C853 C854 1.349 . S
C853 C855 1.327 . S
C853 H876 0.950 . S
C854 C853 1.349 . S
C854 C866 1.349 . S
C855 C853 1.327 . S
C855 C871 1.429 . S
C855 H877 0.950 . S
C856 H852 0.949 . S
C856 C864 1.574 . S
C856 C872 1.368 . S
H857 C865 0.950 . S
H858 C863 0.950 . S
H859 C864 0.949 . S
H860 C866 0.950 . S
H861 C867 0.950 . S
H862 C868 0.949 . S
C863 H858 0.950 . S
C863 C865 1.327 . S
C863 C869 1.429 . S
C864 C856 1.574 . S
C864 H859 0.949 . S
C864 C870 1.368 . S
C865 C849 1.349 . S
C865 H857 0.950 . S
C865 C863 1.327 . S
C866 C854 1.349 . S
C866 H860 0.950 . S
C866 C867 1.327 . S
C867 H861 0.950 . S
C867 C866 1.327 . S
C867 C871 1.429 . S
C868 C851 1.574 . S
C868 H862 0.949 . S
C868 C872 1.368 . S
C869 C850 1.429 . S
C869 C863 1.429 . S
C869 C870 1.523 . S
C870 C851 1.368 . S
C870 C864 1.368 . S
C870 C869 1.523 . S
C871 C855 1.429 . S
C871 C867 1.429 . S
C871 C872 1.523 . S
C872 C856 1.368 . S
C872 C868 1.368 . S
C872 C871 1.523 . S
H873 C848 0.950 . S
H874 C850 0.950 . S
H875 C851 0.949 . S
H876 C853 0.950 . S
H877 C855 0.950 . S
C878 C879 1.349 . S
C878 C880 1.327 . S
C878 H903 0.950 . S
C879 C878 1.349 . S
C879 C895 1.349 . S
C880 C878 1.327 . S
C880 C899 1.429 . S
C880 H904 0.950 . S
C881 C898 1.574 . S
C881 C900 1.368 . S
C881 H905 0.949 . S
H882 C886 0.949 . S
C883 C884 1.349 . S
C883 C885 1.327 . S
C883 H906 0.950 . S
C884 C883 1.349 . S
C884 C896 1.349 . S
C885 C883 1.327 . S
C885 C901 1.429 . S
C885 H907 0.950 . S
C886 H882 0.949 . S
C886 C894 1.574 . S
C886 C902 1.368 . S
H887 C895 0.950 . S
H888 C893 0.950 . S
H889 C894 0.949 . S
H890 C896 0.950 . S
H891 C897 0.950 . S
H892 C898 0.949 . S
C893 H888 0.950 . S
C893 C895 1.327 . S
C893 C899 1.429 . S
C894 C886 1.574 . S
C894 H889 0.949 . S
C894 C900 1.368 . S
C895 C879 1.349 . S
C895 H887 0.950 . S
C895 C893 1.327 . S
C896 C884 1.349 . S
C896 H890 0.950 . S
C896 C897 1.327 . S
C897 H891 0.950 . S
C897 C896 1.327 . S
C897 C901 1.429 . S
C898 C881 1.574 . S
C898 H892 0.949 . S
C898 C902 1.368 . S
C899 C880 1.429 . S
C899 C893 1.429 . S
C899 C900 1.523 . S
C900 C881 1.368 . S
C900 C894 1.368 . S
C900 C899 1.523 . S
C901 C885 1.429 . S
C901 C897 1.429 . S
C901 C902 1.523 . S
C902 C886 1.368 . S
C902 C898 1.368 . S
C902 C901 1.523 . S
H903 C878 0.950 . S
H904 C880 0.950 . S
H905 C881 0.949 . S
H906 C883 0.950 . S
H907 C885 0.950 . S
C908 C909 1.349 . S
C908 C910 1.327 . S
C908 H933 0.950 . S
C909 C908 1.349 . S
C909 C925 1.349 . S
C910 C908 1.327 . S
C910 C929 1.429 . S
C910 H934 0.950 . S
C911 C928 1.574 . S
C911 C930 1.368 . S
C911 H935 0.949 . S
H912 C916 0.949 . S
C913 C914 1.349 . S
C913 C915 1.327 . S
C913 H936 0.950 . S
C914 C913 1.349 . S
C914 C926 1.349 . S
C915 C913 1.327 . S
C915 C931 1.429 . S
C915 H937 0.950 . S
C916 H912 0.949 . S
C916 C924 1.574 . S
C916 C932 1.368 . S
H917 C925 0.950 . S
H918 C923 0.950 . S
H919 C924 0.949 . S
H920 C926 0.950 . S
H921 C927 0.950 . S
H922 C928 0.949 . S
C923 H918 0.950 . S
C923 C925 1.327 . S
C923 C929 1.429 . S
C924 C916 1.574 . S
C924 H919 0.949 . S
C924 C930 1.368 . S
C925 C909 1.349 . S
C925 H917 0.950 . S
C925 C923 1.327 . S
C926 C914 1.349 . S
C926 H920 0.950 . S
C926 C927 1.327 . S
C927 H921 0.950 . S
C927 C926 1.327 . S
C927 C931 1.429 . S
C928 C911 1.574 . S
C928 H922 0.949 . S
C928 C932 1.368 . S
C929 C910 1.429 . S
C929 C923 1.429 . S
C929 C930 1.523 . S
C930 C911 1.368 . S
C930 C924 1.368 . S
C930 C929 1.523 . S
C931 C915 1.429 . S
C931 C927 1.429 . S
C931 C932 1.523 . S
C932 C916 1.368 . S
C932 C928 1.368 . S
C932 C931 1.523 . S
H933 C908 0.950 . S
H934 C910 0.950 . S
H935 C911 0.949 . S
H936 C913 0.950 . S
H937 C915 0.950 . S
C938 C939 1.349 . S
C938 C940 1.327 . S
C938 H963 0.950 . S
C939 C938 1.349 . S
C939 C955 1.349 . S
C940 C938 1.327 . S
C940 C959 1.429 . S
C940 H964 0.950 . S
C941 C958 1.574 . S
C941 C960 1.368 . S
C941 H965 0.949 . S
H942 C946 0.949 . S
C943 C944 1.349 . S
C943 C945 1.327 . S
C943 H966 0.950 . S
C944 C943 1.349 . S
C944 C956 1.349 . S
C945 C943 1.327 . S
C945 C961 1.429 . S
C945 H967 0.950 . S
C946 H942 0.949 . S
C946 C954 1.574 . S
C946 C962 1.368 . S
H947 C955 0.950 . S
H948 C953 0.950 . S
H949 C954 0.949 . S
H950 C956 0.950 . S
H951 C957 0.950 . S
H952 C958 0.949 . S
C953 H948 0.950 . S
C953 C955 1.327 . S
C953 C959 1.429 . S
C954 C946 1.574 . S
C954 H949 0.949 . S
C954 C960 1.368 . S
C955 C939 1.349 . S
C955 H947 0.950 . S
C955 C953 1.327 . S
C956 C944 1.349 . S
C956 H950 0.950 . S
C956 C957 1.327 . S
C957 H951 0.950 . S
C957 C956 1.327 . S
C957 C961 1.429 . S
C958 C941 1.574 . S
C958 H952 0.949 . S
C958 C962 1.368 . S
C959 C940 1.429 . S
C959 C953 1.429 . S
C959 C960 1.523 . S
C960 C941 1.368 . S
C960 C954 1.368 . S
C960 C959 1.523 . S
C961 C945 1.429 . S
C961 C957 1.429 . S
C961 C962 1.523 . S
C962 C946 1.368 . S
C962 C958 1.368 . S
C962 C961 1.523 . S
H963 C938 0.950 . S
H964 C940 0.950 . S
H965 C941 0.949 . S
H966 C943 0.950 . S
H967 C945 0.950 . S
C249 C4 1.088 . S
C254 C105 1.107 . S
C279 C16 1.311 . S
C284 C145 1.349 . S
C314 C170 1.868 . S
C309 C32 1.895 . S
C339 C43 2.265 . S
C344 C210 2.215 1_655 S
C374 C141 2.277 . S
C369 C5 2.219 . S
C404 C101 1.396 . S
C399 C21 1.357 . S
C434 C232 1.508 . S
C429 C27 1.514 . S
C464 C192 1.439 . S
C459 C37 1.470 . S
C489 C10 1.140 . S
C494 C234 1.144 . S
C524 C151 2.348 . S
C519 C26 2.388 . S
C549 C38 1.807 . S
C554 C111 1.787 . S
C579 C15 1.431 . S
C584 C194 1.446 . S
C614 C114 1.313 . S
C609 C48 1.288 . S
C639 C59 1.034 . S
C644 C154 1.043 . S
C669 C76 2.280 . S
C674 C191 2.222 . S
C699 C87 2.007 . S
C704 C231 1.981 . S
C729 C54 1.434 . S
C734 C152 1.466 . S
C764 C112 2.236 . S
C759 C60 2.188 . S
C794 C221 1.421 . S
C789 C71 1.423 . S
C824 C181 1.502 . S
C819 C82 1.507 . S
C849 C49 1.519 . S
C854 C225 1.554 . S
C884 C130 1.723 . S
C879 C70 1.759 . S
C914 C90 2.310 . S
C909 C81 2.354 . S
C939 C65 1.134 . S
C944 C185 1.146 . S
