# Generated by pormake.
# Topology dag, (6,3)-cn, num edge types: 1
# Building blocks:
#     Node 0, Type 0, BuildingBlock: OJICUG_clean_sbu_0, # of connection points: 6
#     Node 1, Type 0, BuildingBlock: OJICUG_clean_sbu_0, # of connection points: 6
#     Node 2, Type 0, BuildingBlock: OJICUG_clean_sbu_0, # of connection points: 6
#     Node 3, Type 0, BuildingBlock: OJICUG_clean_sbu_0, # of connection points: 6
#     Node 4, Type 1, BuildingBlock: BELTOD_clean_linker_0, # of connection points: 3
#     Node 5, Type 1, BuildingBlock: BELTOD_clean_linker_0, # of connection points: 3
#     Node 6, Type 1, BuildingBlock: BELTOD_clean_linker_0, # of connection points: 3
#     Node 7, Type 1, BuildingBlock: BELTOD_clean_linker_0, # of connection points: 3
#     Node 8, Type 1, BuildingBlock: BELTOD_clean_linker_0, # of connection points: 3
#     Node 9, Type 1, BuildingBlock: BELTOD_clean_linker_0, # of connection points: 3
#     Node 10, Type 1, BuildingBlock: BELTOD_clean_linker_0, # of connection points: 3
#     Node 11, Type 1, BuildingBlock: BELTOD_clean_linker_0, # of connection points: 3
#     Edge 12, Type (0, 1), BuildingBlock: OJICUG_clean_linker_0, # of connection points: 2
#     Edge 13, Type (0, 1), BuildingBlock: OJICUG_clean_linker_0, # of connection points: 2
#     Edge 14, Type (0, 1), BuildingBlock: OJICUG_clean_linker_0, # of connection points: 2
#     Edge 15, Type (0, 1), BuildingBlock: OJICUG_clean_linker_0, # of connection points: 2
#     Edge 16, Type (0, 1), BuildingBlock: OJICUG_clean_linker_0, # of connection points: 2
#     Edge 17, Type (0, 1), BuildingBlock: OJICUG_clean_linker_0, # of connection points: 2
#     Edge 18, Type (0, 1), BuildingBlock: OJICUG_clean_linker_0, # of connection points: 2
#     Edge 19, Type (0, 1), BuildingBlock: OJICUG_clean_linker_0, # of connection points: 2
#     Edge 20, Type (0, 1), BuildingBlock: OJICUG_clean_linker_0, # of connection points: 2
#     Edge 21, Type (0, 1), BuildingBlock: OJICUG_clean_linker_0, # of connection points: 2
#     Edge 22, Type (0, 1), BuildingBlock: OJICUG_clean_linker_0, # of connection points: 2
#     Edge 23, Type (0, 1), BuildingBlock: OJICUG_clean_linker_0, # of connection points: 2
#     Edge 24, Type (0, 1), BuildingBlock: OJICUG_clean_linker_0, # of connection points: 2
#     Edge 25, Type (0, 1), BuildingBlock: OJICUG_clean_linker_0, # of connection points: 2
#     Edge 26, Type (0, 1), BuildingBlock: OJICUG_clean_linker_0, # of connection points: 2
#     Edge 27, Type (0, 1), BuildingBlock: OJICUG_clean_linker_0, # of connection points: 2
#     Edge 28, Type (0, 1), BuildingBlock: OJICUG_clean_linker_0, # of connection points: 2
#     Edge 29, Type (0, 1), BuildingBlock: OJICUG_clean_linker_0, # of connection points: 2
#     Edge 30, Type (0, 1), BuildingBlock: OJICUG_clean_linker_0, # of connection points: 2
#     Edge 31, Type (0, 1), BuildingBlock: OJICUG_clean_linker_0, # of connection points: 2
#     Edge 32, Type (0, 1), BuildingBlock: OJICUG_clean_linker_0, # of connection points: 2
#     Edge 33, Type (0, 1), BuildingBlock: OJICUG_clean_linker_0, # of connection points: 2
#     Edge 34, Type (0, 1), BuildingBlock: OJICUG_clean_linker_0, # of connection points: 2
#     Edge 35, Type (0, 1), BuildingBlock: OJICUG_clean_linker_0, # of connection points: 2
# Relax obj value: 0.237
# Max RMSD: 0.193
# Mean RMSD: 0.160
data_MOF--net-dag--node1-OJICUG_clean_sbu_0--node2-BELTOD_clean_linker_0--edge1-OJICUG_clean_linker_0
_symmetry_space_group_name_H-M    P1
_symmetry_Int_Tables_number       1
_symmetry_cell_setting            triclinic
loop_
_symmetry_equiv_pos_as_xyz
'x, y, z'
_cell_length_a     30.760155
_cell_length_b     33.195725
_cell_length_c     32.090172
_cell_angle_alpha  95.152419
_cell_angle_beta   90.269232
_cell_angle_gamma 90.268554
loop_
_atom_site_label
_atom_site_type_symbol
_atom_site_fract_x
_atom_site_fract_y
_atom_site_fract_z
_atom_type_partial_charge
Sc0 Sc 0.1167 0.87919 0.03817 0.0
Sc1 Sc 0.12434 0.77485 0.04302 0.0
Sc2 Sc 0.20111 0.84061 0.097 0.0
O3 O 0.14766 0.83151 0.0594 0.0
C4 C 0.21533 0.9084 0.03424 0.0
C5 C 0.11039 0.81707 0.95817 0.0
C6 C 0.22695 0.76542 0.0321 0.0
C7 C 0.03754 0.82307 0.06219 0.0
C8 C 0.13637 0.90956 0.13369 0.0
C9 C 0.15529 0.76712 0.13702 0.0
O10 O 0.17565 0.90891 0.02357 0.0
O11 O 0.10918 0.78643 0.97923 0.0
O12 O 0.2366 0.7945 0.05939 0.0
O13 O 0.05334 0.85543 0.05005 0.0
O14 O 0.16929 0.88698 0.13737 0.0
O15 O 0.13495 0.7548 0.10383 0.0
O16 O 0.11458 0.9099 0.09993 0.0
O17 O 0.05964 0.79102 0.06411 0.0
O18 O 0.17995 0.79799 0.13945 0.0
O19 O 0.11612 0.85277 0.97494 0.0
O20 O 0.23001 0.88558 0.06069 0.0
O21 O 0.18795 0.75527 0.02217 0.0
Sc22 Sc 0.68173 0.64653 0.44784 0.0
Sc23 Sc 0.6084 0.71709 0.49838 0.0
Sc24 Sc 0.59713 0.61392 0.51004 0.0
O25 O 0.62929 0.65926 0.48534 0.0
C26 C 0.61371 0.57813 0.41556 0.0
C27 C 0.64017 0.71986 0.40407 0.0
C28 C 0.51961 0.67023 0.48307 0.0
C29 C 0.71168 0.72371 0.50832 0.0
C30 C 0.69437 0.5825 0.51506 0.0
C31 C 0.5942 0.68033 0.58637 0.0
O32 O 0.64676 0.6001 0.40953 0.0
O33 O 0.61928 0.73365 0.43617 0.0
O34 O 0.5345 0.63826 0.49673 0.0
O35 O 0.71981 0.69229 0.48374 0.0
O36 O 0.65518 0.58423 0.52695 0.0
O37 O 0.59374 0.70974 0.56354 0.0
O38 O 0.70886 0.60236 0.48608 0.0
O39 O 0.67328 0.73611 0.517 0.0
O40 O 0.59828 0.64386 0.57167 0.0
O41 O 0.66338 0.68835 0.40354 0.0
O42 O 0.59351 0.57969 0.45017 0.0
O43 O 0.54276 0.70143 0.47897 0.0
Sc44 Sc 0.88466 0.24695 0.01487 0.0
Sc45 Sc 0.80988 0.1814 0.95785 0.0
Sc46 Sc 0.90647 0.1425 0.99576 0.0
O47 O 0.8671 0.19039 0.98948 0.0
C48 C 0.97617 0.21147 0.98228 0.0
C49 C 0.84592 0.26319 0.92541 0.0
C50 C 0.87242 0.12211 0.90233 0.0
C51 C 0.78206 0.24596 0.03203 0.0
C52 C 0.91237 0.19159 0.08658 0.0
C53 C 0.81255 0.10425 0.00928 0.0
O54 O 0.95177 0.24081 0.99511 0.0
O55 O 0.82189 0.23182 0.92227 0.0
O56 O 0.9009 0.11998 0.93087 0.0
O57 O 0.81995 0.26058 0.03947 0.0
O58 O 0.91581 0.15975 0.06157 0.0
O59 O 0.79161 0.13062 0.9912 0.0
O60 O 0.90114 0.22568 0.07478 0.0
O61 O 0.77458 0.21783 0.00359 0.0
O62 O 0.85375 0.10435 0.01241 0.0
O63 O 0.87098 0.27282 0.95649 0.0
O64 O 0.96367 0.17483 0.97977 0.0
O65 O 0.8379 0.14269 0.90784 0.0
Sc66 Sc 0.40995 0.3501 0.55516 0.0
Sc67 Sc 0.31516 0.32115 0.60506 0.0
Sc68 Sc 0.3861 0.24667 0.5569 0.0
O69 O 0.37043 0.30584 0.57253 0.0
C70 C 0.41012 0.28662 0.47371 0.0
C71 C 0.31621 0.3855 0.53746 0.0
C72 C 0.28251 0.24693 0.54302 0.0
C73 C 0.38245 0.38602 0.64705 0.0
C74 C 0.47932 0.28589 0.58036 0.0
C75 C 0.35104 0.24567 0.64995 0.0
O76 O 0.41714 0.32111 0.49315 0.0
O77 O 0.29665 0.36713 0.56499 0.0
O78 O 0.31982 0.23062 0.53874 0.0
O79 O 0.40677 0.38437 0.61507 0.0
O80 O 0.45452 0.25537 0.57217 0.0
O81 O 0.32657 0.27617 0.64782 0.0
O82 O 0.46708 0.322 0.57743 0.0
O83 O 0.34824 0.36456 0.6487 0.0
O84 O 0.376 0.23199 0.62052 0.0
O85 O 0.35669 0.38198 0.5306 0.0
O86 O 0.39792 0.25601 0.49191 0.0
O87 O 0.27623 0.27996 0.56525 0.0
P88 P 0.02437 0.11569 0.36815 0.0
H89 H 0.98758 0.03875 0.33317 0.0
H90 H 0.01469 0.98678 0.28078 0.0
H91 H 0.1369 0.05104 0.27761 0.0
H92 H 0.1096 0.10286 0.32954 0.0
H93 H 0.05098 0.20111 0.38827 0.0
H94 H 0.11156 0.23178 0.42986 0.0
H95 H 0.15017 0.11338 0.46203 0.0
H96 H 0.0903 0.08306 0.41984 0.0
H97 H 0.93473 0.12185 0.34025 0.0
H98 H 0.05952 0.17125 0.31055 0.0
O99 O 0.98677 0.09875 0.39968 0.0
H100 H 0.90376 0.14583 0.27683 0.0
H101 H 0.0284 0.19589 0.2472 0.0
C102 C 0.04702 0.07395 0.33612 0.0
C103 C 0.02059 0.04103 0.32198 0.0
C104 C 0.03596 0.0116 0.29185 0.0
C105 C 0.07797 0.01484 0.27534 0.0
C106 C 0.10472 0.04739 0.29036 0.0
C107 C 0.08915 0.07696 0.32014 0.0
C108 C 0.06695 0.13975 0.40013 0.0
C109 C 0.07267 0.1818 0.40405 0.0
C110 C 0.1071 0.19929 0.42812 0.0
C111 C 0.13602 0.17493 0.44884 0.0
C112 C 0.12913 0.1329 0.44575 0.0
C113 C 0.09478 0.11557 0.42183 0.0
C114 C 0.99921 0.14564 0.33076 0.0
C115 C 0.95506 0.13939 0.32109 0.0
C116 C 0.93744 0.15278 0.28463 0.0
C117 C 0.96372 0.17263 0.25712 0.0
C118 C 0.00729 0.18117 0.26817 0.0
C119 C 0.02503 0.16731 0.30449 0.0
P120 P 0.47669 0.61712 0.86478 0.0
H121 H 0.56086 0.65682 0.85323 0.0
H122 H 0.59366 0.68412 0.79211 0.0
H123 H 0.47241 0.66551 0.72472 0.0
H124 H 0.4404 0.637 0.78483 0.0
H125 H 0.45349 0.62115 0.9531 0.0
H126 H 0.39518 0.65555 0.99377 0.0
H127 H 0.34839 0.70554 0.88238 0.0
H128 H 0.40673 0.67175 0.84212 0.0
H129 H 0.52037 0.54255 0.83606 0.0
H130 H 0.38988 0.58935 0.83484 0.0
O131 O 0.51708 0.60712 0.89717 0.0
H132 H 0.49755 0.48378 0.78979 0.0
H133 H 0.36703 0.53117 0.78777 0.0
C134 C 0.49804 0.64509 0.82377 0.0
C135 C 0.54105 0.65942 0.82565 0.0
C136 C 0.55976 0.67508 0.7908 0.0
C137 C 0.53542 0.67722 0.75389 0.0
C138 C 0.49165 0.66499 0.75304 0.0
C139 C 0.4733 0.64866 0.78749 0.0
C140 C 0.43492 0.64422 0.89461 0.0
C141 C 0.431 0.63988 0.9375 0.0
C142 C 0.39772 0.65951 0.96072 0.0
C143 C 0.36734 0.68314 0.94116 0.0
C144 C 0.37122 0.68725 0.89816 0.0
C145 C 0.40482 0.66807 0.87513 0.0
C146 C 0.45677 0.57006 0.83939 0.0
C147 C 0.48654 0.53968 0.8267 0.0
C148 C 0.47354 0.50631 0.79988 0.0
C149 C 0.43055 0.50298 0.78478 0.0
C150 C 0.40025 0.53257 0.79918 0.0
C151 C 0.41333 0.56595 0.82612 0.0
P152 P 0.76647 0.92324 0.22519 0.0
H153 H 0.73858 0.00714 0.2223 0.0
H154 H 0.73339 0.04715 0.16244 0.0
H155 H 0.73693 0.93779 0.07886 0.0
H156 H 0.74189 0.89778 0.13898 0.0
H157 H 0.72791 0.92374 0.3076 0.0
H158 H 0.68514 0.87434 0.34113 0.0
H159 H 0.67927 0.79809 0.22477 0.0
H160 H 0.72203 0.84853 0.19084 0.0
H161 H 0.83811 0.9566 0.18246 0.0
H162 H 0.79962 0.83822 0.2148 0.0
O163 O 0.78437 0.95699 0.26318 0.0
H164 H 0.89804 0.92688 0.14154 0.0
H165 H 0.85906 0.80795 0.17241 0.0
C166 C 0.74155 0.94962 0.18496 0.0
C167 C 0.73613 0.99158 0.19125 0.0
C168 C 0.73301 0.01447 0.15693 0.0
C169 C 0.73565 0.99552 0.11607 0.0
C170 C 0.73525 0.95307 0.11009 0.0
C171 C 0.73786 0.93021 0.14445 0.0
C172 C 0.72917 0.88922 0.24706 0.0
C173 C 0.71693 0.89678 0.28896 0.0
C174 C 0.69202 0.86863 0.30805 0.0
C175 C 0.67901 0.83227 0.28557 0.0
C176 C 0.68914 0.82579 0.24283 0.0
C177 C 0.71359 0.85446 0.22351 0.0
C178 C 0.81375 0.89967 0.20094 0.0
C179 C 0.8426 0.92414 0.1808 0.0
C180 C 0.87656 0.90702 0.15695 0.0
C181 C 0.88251 0.8649 0.1527 0.0
C182 C 0.85494 0.84045 0.17471 0.0
C183 C 0.82074 0.85776 0.19876 0.0
P184 P 0.80298 0.3219 0.62593 0.0
H185 H 0.85498 0.37829 0.5803 0.0
H186 H 0.83886 0.44547 0.55756 0.0
H187 H 0.71209 0.44109 0.6147 0.0
H188 H 0.72865 0.37553 0.63784 0.0
H189 H 0.86276 0.2716 0.66935 0.0
H190 H 0.8798 0.26895 0.74368 0.0
H191 H 0.80202 0.3754 0.77369 0.0
H192 H 0.78566 0.3784 0.69956 0.0
H193 H 0.75276 0.28673 0.55442 0.0
H194 H 0.73862 0.30129 0.68863 0.0
O195 O 0.83879 0.29805 0.59366 0.0
H196 H 0.67565 0.26857 0.54709 0.0
H197 H 0.66183 0.28385 0.68132 0.0
C198 C 0.79277 0.37167 0.61017 0.0
C199 C 0.82387 0.39208 0.588 0.0
C200 C 0.81461 0.43035 0.57501 0.0
C201 C 0.7743 0.44877 0.58453 0.0
C202 C 0.74379 0.4283 0.6075 0.0
C203 C 0.75302 0.39035 0.62032 0.0
C204 C 0.82326 0.32534 0.67883 0.0
C205 C 0.85057 0.29514 0.69176 0.0
C206 C 0.8604 0.29374 0.73418 0.0
C207 C 0.84228 0.32209 0.76428 0.0
C208 C 0.81651 0.35334 0.75104 0.0
C209 C 0.80724 0.35506 0.70862 0.0
C210 C 0.75166 0.29527 0.622 0.0
C211 C 0.73358 0.28449 0.58234 0.0
C212 C 0.6895 0.27419 0.57818 0.0
C213 C 0.6628 0.27515 0.61366 0.0
C214 C 0.6817 0.28309 0.65348 0.0
C215 C 0.72579 0.29295 0.65763 0.0
P216 P 0.50801 0.34992 0.19607 0.0
H217 H 0.54207 0.43029 0.18321 0.0
H218 H 0.56649 0.48737 0.23204 0.0
H219 H 0.53641 0.41811 0.33602 0.0
H220 H 0.51176 0.36256 0.28826 0.0
H221 H 0.52283 0.31524 0.11075 0.0
H222 H 0.58829 0.29221 0.0734 0.0
H223 H 0.66366 0.31609 0.18706 0.0
H224 H 0.59789 0.33994 0.22409 0.0
H225 H 0.41722 0.34176 0.21788 0.0
H226 H 0.53776 0.28203 0.2418 0.0
O227 O 0.47404 0.36645 0.16073 0.0
H228 H 0.38502 0.31497 0.2789 0.0
H229 H 0.50604 0.25607 0.30377 0.0
C230 C 0.52434 0.39229 0.23183 0.0
C231 C 0.54042 0.42772 0.21657 0.0
C232 C 0.55463 0.4601 0.2444 0.0
C233 C 0.55284 0.45731 0.28782 0.0
C234 C 0.53727 0.42154 0.30277 0.0
C235 C 0.52322 0.38944 0.27515 0.0
C236 C 0.55564 0.32956 0.16999 0.0
C237 C 0.55339 0.31539 0.12766 0.0
C238 C 0.59086 0.30213 0.10641 0.0
C239 C 0.63125 0.30246 0.12726 0.0
C240 C 0.6332 0.31607 0.16999 0.0
C241 C 0.5956 0.32938 0.19123 0.0
C242 C 0.47995 0.31411 0.22539 0.0
C243 C 0.43614 0.32122 0.235 0.0
C244 C 0.41786 0.3062 0.27021 0.0
C245 C 0.4434 0.28437 0.29673 0.0
C246 C 0.48554 0.27279 0.28396 0.0
C247 C 0.50373 0.2876 0.24838 0.0
P248 P 0.30331 0.18568 0.95116 0.0
H249 H 0.36094 0.12935 0.99057 0.0
H250 H 0.35122 0.05862 0.0062 0.0
H251 H 0.22137 0.05913 0.95416 0.0
H252 H 0.23143 0.12845 0.93826 0.0
H253 H 0.36168 0.24069 0.91167 0.0
H254 H 0.37974 0.24676 0.83809 0.0
H255 H 0.30683 0.13772 0.80211 0.0
H256 H 0.28959 0.13122 0.87531 0.0
H257 H 0.24838 0.21334 0.02165 0.0
H258 H 0.2404 0.20694 0.88693 0.0
O259 O 0.33699 0.21058 0.98543 0.0
H260 H 0.17064 0.22884 0.026 0.0
H261 H 0.16311 0.22187 0.8912 0.0
C262 C 0.29663 0.13436 0.964 0.0
C263 C 0.33043 0.11407 0.9827 0.0
C264 C 0.32489 0.07375 0.99152 0.0
C265 C 0.28572 0.05317 0.98102 0.0
C266 C 0.25229 0.07375 0.9619 0.0
C267 C 0.25778 0.11376 0.95335 0.0
C268 C 0.32467 0.18533 0.89905 0.0
C269 C 0.35084 0.21737 0.88811 0.0
C270 C 0.36122 0.22076 0.84617 0.0
C271 C 0.34471 0.19259 0.81471 0.0
C272 C 0.32009 0.15963 0.82593 0.0
C273 C 0.31035 0.15591 0.86781 0.0
C274 C 0.25041 0.20904 0.95407 0.0
C275 C 0.23034 0.21664 0.99311 0.0
C276 C 0.18592 0.22546 0.99555 0.0
C277 C 0.16084 0.22623 0.95889 0.0
C278 C 0.18163 0.22116 0.91992 0.0
C279 C 0.22603 0.21272 0.91753 0.0
P280 P 0.24572 0.56295 0.32603 0.0
H281 H 0.21979 0.47789 0.31748 0.0
H282 H 0.22049 0.43059 0.37127 0.0
H283 H 0.2192 0.53054 0.46701 0.0
H284 H 0.21745 0.57791 0.41293 0.0
H285 H 0.20103 0.55855 0.24612 0.0
H286 H 0.16516 0.60979 0.2092 0.0
H287 H 0.17062 0.69261 0.32107 0.0
H288 H 0.20637 0.64028 0.35836 0.0
H289 H 0.3095 0.53472 0.38296 0.0
H290 H 0.28365 0.64596 0.32758 0.0
O291 O 0.26765 0.53355 0.28678 0.0
H292 H 0.36918 0.56704 0.42285 0.0
H293 H 0.34258 0.67928 0.36912 0.0
C294 C 0.2203 0.53128 0.36142 0.0
C295 C 0.21722 0.48969 0.34993 0.0
C296 C 0.21764 0.46263 0.38073 0.0
C297 C 0.22142 0.4771 0.42311 0.0
C298 C 0.21659 0.51866 0.43453 0.0
C299 C 0.21565 0.54576 0.40359 0.0
C300 C 0.20797 0.59641 0.3043 0.0
C301 C 0.19356 0.58732 0.26312 0.0
C302 C 0.17263 0.61663 0.24211 0.0
C303 C 0.16584 0.65551 0.26205 0.0
C304 C 0.17615 0.66307 0.3048 0.0
C305 C 0.19655 0.63331 0.32605 0.0
C306 C 0.29051 0.58838 0.35389 0.0
C307 C 0.316 0.56645 0.38008 0.0
C308 C 0.35006 0.58512 0.40316 0.0
C309 C 0.35979 0.62621 0.40033 0.0
C310 C 0.33548 0.64777 0.37253 0.0
C311 C 0.30136 0.62883 0.34912 0.0
P312 P 0.89116 0.85545 0.74313 0.0
H313 H 0.81849 0.90443 0.77673 0.0
H314 H 0.81411 0.976 0.80032 0.0
H315 H 0.93832 -0.00337 0.74341 0.0
H316 H 0.94229 0.92448 0.71937 0.0
H317 H 0.87863 0.77209 0.70996 0.0
H318 H 0.84672 0.7424 0.64466 0.0
H319 H 0.84584 0.85996 0.59689 0.0
H320 H 0.87856 0.88953 0.66216 0.0
H321 H 0.94463 0.90195 0.80502 0.0
H322 H 0.9532 0.78736 0.73041 0.0
O323 O 0.85615 0.83434 0.77438 0.0
H324 H 0.01021 0.8871 0.84174 0.0
H325 H 0.01875 0.77125 0.76957 0.0
C326 C 0.88133 0.9091 0.74748 0.0
C327 C 0.84416 0.92446 0.76812 0.0
C328 C 0.84156 0.96555 0.78137 0.0
C329 C 0.87626 0.99177 0.77429 0.0
C330 C 0.91139 0.97695 0.7497 0.0
C331 C 0.91363 0.93586 0.7359 0.0
C332 C 0.88085 0.83299 0.69104 0.0
C333 C 0.87336 0.79123 0.68482 0.0
C334 C 0.85507 0.77427 0.64742 0.0
C335 C 0.84346 0.79899 0.61589 0.0
C336 C 0.85419 0.84034 0.6209 0.0
C337 C 0.87296 0.85722 0.65822 0.0
C338 C 0.94452 0.84653 0.7636 0.0
C339 C 0.96146 0.87422 0.79513 0.0
C340 C 0.99915 0.86559 0.81646 0.0
C341 C 0.02006 0.82832 0.80797 0.0
C342 C 0.00354 0.80048 0.77617 0.0
C343 C 0.96609 0.8097 0.75387 0.0
C344 C 0.14895 0.94464 0.20544 0.0
C345 C 0.12164 0.93588 0.17051 0.0
H346 H 0.15644 0.97656 0.26622 0.0
C347 C 0.07953 0.95223 0.17109 0.0
H348 H 0.18152 0.93244 0.206 0.0
C349 C 0.06515 0.97703 0.20558 0.0
C350 C 0.09264 0.98634 0.24016 0.0
H351 H 0.05748 0.94585 0.14487 0.0
H352 H 0.0328 0.98971 0.20476 0.0
C353 C 0.13467 0.9699 0.23984 0.0
C354 C 0.60716 0.66358 0.65927 0.0
C355 C 0.58594 0.6875 0.63159 0.0
H356 H 0.60825 0.64252 0.72031 0.0
C357 C 0.55218 0.71311 0.64653 0.0
H358 H 0.63331 0.64359 0.6484 0.0
C359 C 0.5373 0.71197 0.68758 0.0
C360 C 0.55671 0.68594 0.7144 0.0
H361 H 0.53512 0.73156 0.62563 0.0
H362 H 0.50927 0.72983 0.69771 0.0
C363 C 0.59297 0.66312 0.70044 0.0
C364 C 0.74809 0.08307 0.04941 0.0
C365 C 0.78817 0.07355 0.03016 0.0
H366 H 0.69954 0.0654 0.09218 0.0
C367 C 0.807 0.03578 0.03464 0.0
H368 H 0.73299 0.11211 0.04652 0.0
C369 C 0.7875 0.00893 0.05989 0.0
C370 C 0.74917 0.01961 0.08175 0.0
H371 H 0.83774 0.02763 0.01992 0.0
H372 H 0.80417 0.98101 0.06466 0.0
C373 C 0.72897 0.05645 0.07547 0.0
C374 C 0.54598 0.30906 0.61994 0.0
C375 C 0.52498 0.27972 0.5926 0.0
H376 H 0.60584 0.33001 0.64844 0.0
C377 C 0.54897 0.24666 0.57469 0.0
H378 H 0.52824 0.33479 0.63426 0.0
C379 C 0.59377 0.24426 0.58233 0.0
C380 C 0.61487 0.27428 0.60886 0.0
H381 H 0.53357 0.22378 0.55328 0.0
H382 H 0.61207 0.21944 0.56694 0.0
C383 C 0.59032 0.30617 0.62827 0.0
C384 C 0.55723 0.52977 0.38524 0.0
C385 C 0.59738 0.54937 0.38106 0.0
H386 H 0.51136 0.4863 0.35861 0.0
C387 C 0.62142 0.54071 0.34416 0.0
H388 H 0.5374 0.53616 0.41282 0.0
C389 C 0.60634 0.51177 0.31293 0.0
C390 C 0.56702 0.49113 0.31812 0.0
H391 H 0.65233 0.55549 0.33986 0.0
H392 H 0.62615 0.50452 0.28549 0.0
C393 C 0.54223 0.50112 0.35414 0.0
C394 C 0.04399 0.19277 0.94311 0.0
C395 C 0.02209 0.21943 0.97222 0.0
H396 H 0.10484 0.17453 0.91583 0.0
C397 C 0.0456 0.25093 0.99441 0.0
H398 H 0.02669 0.16826 0.92552 0.0
C399 C 0.09067 0.25419 0.98926 0.0
C400 C 0.11269 0.22659 0.96114 0.0
H401 H 0.02956 0.27174 0.01726 0.0
H402 H 0.10846 0.27767 0.0079 0.0
C403 C 0.0887 0.19651 0.9374 0.0
C404 C 0.30613 0.41261 0.46862 0.0
C405 C 0.29058 0.40891 0.50914 0.0
H406 H 0.29588 0.43636 0.40992 0.0
C407 C 0.25038 0.42637 0.52105 0.0
H408 H 0.33669 0.39914 0.45827 0.0
C409 C 0.22682 0.44812 0.49303 0.0
C410 C 0.24262 0.45147 0.45248 0.0
H411 H 0.23763 0.42383 0.55211 0.0
H412 H 0.19653 0.46236 0.50296 0.0
C413 C 0.28238 0.4334 0.44064 0.0
C414 C 0.10845 0.84356 0.88799 0.0
C415 C 0.09855 0.8124 0.91334 0.0
H416 H 0.09195 0.87221 0.833 0.0
C417 C 0.07086 0.78078 0.89753 0.0
H418 H 0.1304 0.8679 0.89897 0.0
C419 C 0.0488 0.78333 0.85964 0.0
C420 C 0.05443 0.81739 0.83719 0.0
H421 H 0.06287 0.75621 0.91623 0.0
H422 H 0.02406 0.76093 0.85035 0.0
C423 C 0.08666 0.84595 0.85013 0.0
C424 C 0.84101 0.08792 0.83607 0.0
C425 C 0.87696 0.09549 0.86301 0.0
H426 H 0.8128 0.04917 0.78602 0.0
C427 C 0.91528 0.07334 0.85483 0.0
H428 H 0.81107 0.10465 0.84114 0.0
C429 C 0.91627 0.0418 0.82301 0.0
C430 C 0.87888 0.03165 0.79889 0.0
H431 H 0.94373 0.07869 0.87463 0.0
H432 H 0.94518 0.02331 0.81964 0.0
C433 C 0.84191 0.05614 0.80446 0.0
C434 C 0.4286 0.2476 0.40495 0.0
C435 C 0.41487 0.28343 0.42771 0.0
H436 H 0.44877 0.2196 0.34508 0.0
C437 C 0.40721 0.31782 0.40635 0.0
H438 H 0.43474 0.22066 0.42071 0.0
C439 C 0.41446 0.31704 0.36356 0.0
C440 C 0.42996 0.28193 0.34083 0.0
H441 H 0.39622 0.34579 0.42291 0.0
H442 H 0.4098 0.34473 0.34864 0.0
C443 C 0.43664 0.24701 0.36183 0.0
C444 C 0.27112 0.96333 0.04439 0.0
C445 C 0.24379 0.93879 0.01756 0.0
H446 H 0.30581 0.01964 0.05383 0.0
C447 C 0.23738 0.9485 0.97635 0.0
H448 H 0.27627 0.95651 0.07642 0.0
C449 C 0.25464 0.98409 0.96328 0.0
C450 C 0.27789 0.0111 0.99145 0.0
H451 H 0.21674 0.92977 0.955 0.0
H452 H 0.24737 0.99173 0.93188 0.0
C453 C 0.28795 -0.00055 0.03145 0.0
C454 C 0.46498 0.68259 0.42801 0.0
C455 C 0.4748 0.66817 0.46676 0.0
H456 H 0.42096 0.67991 0.37592 0.0
C457 C 0.44365 0.64531 0.48617 0.0
H458 H 0.48872 0.70001 0.41229 0.0
C459 C 0.40471 0.63435 0.46579 0.0
C460 C 0.39655 0.64525 0.42514 0.0
H461 H 0.45037 0.63416 0.51625 0.0
H462 H 0.38193 0.61559 0.48107 0.0
C463 C 0.4262 0.671 0.40718 0.0
C464 C 0.43537 0.4344 0.68413 0.0
C465 C 0.39488 0.41448 0.68354 0.0
H466 H 0.47801 0.4778 0.71611 0.0
C467 C 0.36663 0.42271 0.71759 0.0
H468 H 0.45809 0.42881 0.65861 0.0
C469 C 0.37832 0.45091 0.75094 0.0
C470 C 0.41862 0.47114 0.75108 0.0
H471 H 0.33525 0.40786 0.71821 0.0
H472 H 0.35581 0.45696 0.77657 0.0
C473 C 0.44705 0.46229 0.71741 0.0
C474 C 0.96358 0.85281 0.06466 0.0
C475 C 0.99329 0.82554 0.07968 0.0
H476 H 0.90456 0.8856 0.07539 0.0
C477 C 0.98303 0.80653 0.11582 0.0
H478 H 0.97049 0.86758 0.03663 0.0
C479 C 0.94552 0.8175 0.13863 0.0
C480 C 0.91772 0.8474 0.12536 0.0
H481 H 0.00558 0.78559 0.12821 0.0
H482 H 0.93988 0.80458 0.16795 0.0
C483 C 0.92607 0.86339 0.08708 0.0
C484 C 0.71716 0.54808 0.57699 0.0
C485 C 0.72289 0.55404 0.53465 0.0
H486 H 0.73074 0.51115 0.62654 0.0
C487 C 0.75152 0.52892 0.51045 0.0
H488 H 0.69572 0.56748 0.59645 0.0
C489 C 0.7709 0.49592 0.52744 0.0
C490 C 0.76223 0.48802 0.56897 0.0
H491 H 0.75634 0.53293 0.47765 0.0
H492 H 0.79012 0.47513 0.50724 0.0
C493 C 0.73702 0.51571 0.5941 0.0
C494 C 0.94015 0.22125 0.15662 0.0
C495 C 0.92253 0.18834 0.13128 0.0
H496 H 0.96765 0.24198 0.21653 0.0
C497 C 0.91651 0.15127 0.14844 0.0
H498 H 0.94534 0.25013 0.14413 0.0
C499 C 0.92849 0.14689 0.18976 0.0
C500 C 0.94745 0.17928 0.21473 0.0
H501 H 0.90283 0.12542 0.12976 0.0
H502 H 0.92428 0.11765 0.20177 0.0
C503 C 0.95304 0.21659 0.19789 0.0
C504 C 0.12336 0.70962 0.17222 0.0
C505 C 0.15199 0.74289 0.17339 0.0
H506 H 0.10426 0.65632 0.20045 0.0
C507 C 0.17953 0.75083 0.20827 0.0
H508 H 0.10105 0.70306 0.14626 0.0
C509 C 0.18117 0.72404 0.23938 0.0
C510 C 0.15526 0.6889 0.2362 0.0
H511 H 0.20163 0.77643 0.21042 0.0
H512 H 0.20509 0.72931 0.26418 0.0
C513 C 0.12499 0.68291 0.20334 0.0
C514 C 0.74273 0.78487 0.5491 0.0
C515 C 0.74844 0.74548 0.53007 0.0
H516 H 0.76886 0.83288 0.59068 0.0
C517 C 0.78842 0.72601 0.53495 0.0
H518 H 0.71247 0.80083 0.5456 0.0
C519 C 0.82078 0.74443 0.56088 0.0
C520 C 0.81395 0.78284 0.58184 0.0
H521 H 0.79386 0.69567 0.52059 0.0
H522 H 0.85043 0.72801 0.56591 0.0
C523 C 0.77524 0.80343 0.57456 0.0
C524 C 0.70442 0.24012 0.05281 0.0
C525 C 0.74443 0.26085 0.05764 0.0
H526 H 0.63818 0.23637 0.07144 0.0
C527 C 0.74744 0.29497 0.08682 0.0
H528 H 0.70081 0.21333 0.03116 0.0
C529 C 0.71088 0.3084 0.10999 0.0
C530 C 0.6708 0.2879 0.10436 0.0
H531 H 0.77776 0.31153 0.09141 0.0
H532 H 0.71376 0.33526 0.13163 0.0
C533 C 0.66824 0.25339 0.07587 0.0
C534 C 0.31045 0.21841 0.70773 0.0
C535 C 0.35047 0.22625 0.68928 0.0
H536 H 0.27764 0.20063 0.76181 0.0
C537 C 0.38922 0.21978 0.71094 0.0
H538 H 0.28021 0.2234 0.69155 0.0
C539 C 0.38774 0.2077 0.75163 0.0
C540 C 0.34754 0.20087 0.77041 0.0
H541 H 0.4204 0.22615 0.69734 0.0
H542 H 0.41779 0.20453 0.76874 0.0
C543 C 0.30901 0.20534 0.74775 0.0
C544 C 0.66973 0.73359 0.33402 0.0
C545 C 0.6418 0.74437 0.36774 0.0
H546 H 0.70314 0.75321 0.28106 0.0
C547 C 0.61974 0.78148 0.36897 0.0
H548 H 0.68687 0.70506 0.33178 0.0
C549 C 0.62894 0.80893 0.33971 0.0
C550 C 0.66019 0.79975 0.3086 0.0
H551 H 0.59742 0.79052 0.39405 0.0
H552 H 0.61362 0.83836 0.34297 0.0
C553 C 0.67884 0.76107 0.30469 0.0
C554 C 0.80681 0.29739 0.87106 0.0
C555 C 0.84637 0.2873 0.88924 0.0
H556 H 0.77485 0.3173 0.81735 0.0
C557 C 0.88543 0.29371 0.86832 0.0
H558 H 0.77631 0.29227 0.88658 0.0
C559 C 0.88458 0.30713 0.82818 0.0
C560 C 0.84473 0.31521 0.8091 0.0
H561 H 0.91623 0.28547 0.88161 0.0
H562 H 0.91479 0.30958 0.81137 0.0
C563 C 0.80602 0.31171 0.83155 0.0
C564 C 0.20362 0.24603 0.52254 0.0
C565 C 0.24481 0.22762 0.51994 0.0
H566 H 0.13712 0.24377 0.50248 0.0
C567 C 0.24972 0.19151 0.494 0.0
H568 H 0.19851 0.27386 0.54217 0.0
C569 C 0.21442 0.17442 0.47105 0.0
C570 C 0.17341 0.19305 0.47344 0.0
H571 H 0.28093 0.17659 0.49103 0.0
H572 H 0.21946 0.14693 0.45085 0.0
C573 C 0.1684 0.22898 0.49953 0.0
C574 C 0.30557 0.74602 0.02547 0.0
C575 C 0.26277 0.74314 0.00982 0.0
H576 H 0.37222 0.72899 0.01607 0.0
C577 C 0.25462 0.71959 0.97191 0.0
H578 H 0.31294 0.76381 0.05463 0.0
C579 C 0.28859 0.70003 0.94977 0.0
C580 C 0.33133 0.70316 0.96529 0.0
H581 H 0.22209 0.71682 0.95887 0.0
H582 H 0.2814 0.68231 0.92052 0.0
C583 C 0.33948 0.72596 0.00355 0.0
loop_
_geom_bond_atom_site_label_1
_geom_bond_atom_site_label_2
_geom_bond_distance
_geom_bond_site_symmetry_2
_ccdc_geom_bond_type
Sc0 O3 2.025 . S
Sc0 O10 2.105 . S
Sc0 O13 2.105 . S
Sc0 O16 2.105 . S
Sc0 O19 2.105 1_554 S
Sc1 O3 2.025 . S
Sc1 O11 2.105 1_554 S
Sc1 O15 2.105 . S
Sc1 O17 2.105 . S
Sc1 O21 2.105 . S
Sc2 O3 2.025 . S
Sc2 O12 2.105 . S
Sc2 O14 2.105 . S
Sc2 O18 2.105 . S
Sc2 O20 2.105 . S
O3 Sc0 2.025 . S
O3 Sc1 2.025 . S
O3 Sc2 2.025 . S
C4 O10 1.268 . S
C4 O20 1.268 . S
C5 O11 1.268 . S
C5 O19 1.268 . S
C6 O12 1.268 . S
C6 O21 1.268 . S
C7 O13 1.268 . S
C7 O17 1.268 . S
C8 O14 1.268 . S
C8 O16 1.268 . S
C9 O15 1.268 . S
C9 O18 1.268 . S
O10 Sc0 2.105 . S
O10 C4 1.268 . S
O11 Sc1 2.105 1_556 S
O11 C5 1.268 . S
O12 Sc2 2.105 . S
O12 C6 1.268 . S
O13 Sc0 2.105 . S
O13 C7 1.268 . S
O14 Sc2 2.105 . S
O14 C8 1.268 . S
O15 Sc1 2.105 . S
O15 C9 1.268 . S
O16 Sc0 2.105 . S
O16 C8 1.268 . S
O17 Sc1 2.105 . S
O17 C7 1.268 . S
O18 Sc2 2.105 . S
O18 C9 1.268 . S
O19 Sc0 2.105 1_556 S
O19 C5 1.268 . S
O20 Sc2 2.105 . S
O20 C4 1.268 . S
O21 Sc1 2.105 . S
O21 C6 1.268 . S
Sc22 O25 2.025 . S
Sc22 O32 2.105 . S
Sc22 O35 2.105 . S
Sc22 O38 2.105 . S
Sc22 O41 2.105 . S
Sc23 O25 2.025 . S
Sc23 O33 2.105 . S
Sc23 O37 2.105 . S
Sc23 O39 2.105 . S
Sc23 O43 2.105 . S
Sc24 O25 2.025 . S
Sc24 O34 2.105 . S
Sc24 O36 2.105 . S
Sc24 O40 2.105 . S
Sc24 O42 2.105 . S
O25 Sc22 2.025 . S
O25 Sc23 2.025 . S
O25 Sc24 2.025 . S
C26 O32 1.268 . S
C26 O42 1.268 . S
C27 O33 1.268 . S
C27 O41 1.268 . S
C28 O34 1.268 . S
C28 O43 1.268 . S
C29 O35 1.268 . S
C29 O39 1.268 . S
C30 O36 1.268 . S
C30 O38 1.268 . S
C31 O37 1.268 . S
C31 O40 1.268 . S
O32 Sc22 2.105 . S
O32 C26 1.268 . S
O33 Sc23 2.105 . S
O33 C27 1.268 . S
O34 Sc24 2.105 . S
O34 C28 1.268 . S
O35 Sc22 2.105 . S
O35 C29 1.268 . S
O36 Sc24 2.105 . S
O36 C30 1.268 . S
O37 Sc23 2.105 . S
O37 C31 1.268 . S
O38 Sc22 2.105 . S
O38 C30 1.268 . S
O39 Sc23 2.105 . S
O39 C29 1.268 . S
O40 Sc24 2.105 . S
O40 C31 1.268 . S
O41 Sc22 2.105 . S
O41 C27 1.268 . S
O42 Sc24 2.105 . S
O42 C26 1.268 . S
O43 Sc23 2.105 . S
O43 C28 1.268 . S
Sc44 O47 2.025 . S
Sc44 O54 2.105 1_554 S
Sc44 O57 2.105 . S
Sc44 O60 2.105 . S
Sc44 O63 2.105 1_554 S
Sc45 O47 2.025 1_556 S
Sc45 O55 2.105 . S
Sc45 O59 2.105 1_556 S
Sc45 O61 2.105 1_556 S
Sc45 O65 2.105 . S
Sc46 O47 2.025 . S
Sc46 O56 2.105 1_554 S
Sc46 O58 2.105 . S
Sc46 O62 2.105 . S
Sc46 O64 2.105 1_554 S
O47 Sc44 2.025 . S
O47 Sc45 2.025 1_554 S
O47 Sc46 2.025 . S
C48 O54 1.268 . S
C48 O64 1.268 . S
C49 O55 1.268 . S
C49 O63 1.268 . S
C50 O56 1.268 . S
C50 O65 1.268 . S
C51 O57 1.268 . S
C51 O61 1.268 . S
C52 O58 1.268 . S
C52 O60 1.268 . S
C53 O59 1.268 . S
C53 O62 1.268 . S
O54 Sc44 2.105 1_556 S
O54 C48 1.268 . S
O55 Sc45 2.105 . S
O55 C49 1.268 . S
O56 Sc46 2.105 1_556 S
O56 C50 1.268 . S
O57 Sc44 2.105 . S
O57 C51 1.268 . S
O58 Sc46 2.105 . S
O58 C52 1.268 . S
O59 Sc45 2.105 1_554 S
O59 C53 1.268 . S
O60 Sc44 2.105 . S
O60 C52 1.268 . S
O61 Sc45 2.105 1_554 S
O61 C51 1.268 . S
O62 Sc46 2.105 . S
O62 C53 1.268 . S
O63 Sc44 2.105 1_556 S
O63 C49 1.268 . S
O64 Sc46 2.105 1_556 S
O64 C48 1.268 . S
O65 Sc45 2.105 . S
O65 C50 1.268 . S
Sc66 O69 2.025 . S
Sc66 O76 2.105 . S
Sc66 O79 2.105 . S
Sc66 O82 2.105 . S
Sc66 O85 2.105 . S
Sc67 O69 2.025 . S
Sc67 O77 2.105 . S
Sc67 O81 2.105 . S
Sc67 O83 2.105 . S
Sc67 O87 2.105 . S
Sc68 O69 2.025 . S
Sc68 O78 2.105 . S
Sc68 O80 2.105 . S
Sc68 O84 2.105 . S
Sc68 O86 2.105 . S
O69 Sc66 2.025 . S
O69 Sc67 2.025 . S
O69 Sc68 2.025 . S
C70 O76 1.268 . S
C70 O86 1.268 . S
C71 O77 1.268 . S
C71 O85 1.268 . S
C72 O78 1.268 . S
C72 O87 1.268 . S
C73 O79 1.268 . S
C73 O83 1.268 . S
C74 O80 1.268 . S
C74 O82 1.268 . S
C75 O81 1.268 . S
C75 O84 1.268 . S
O76 Sc66 2.105 . S
O76 C70 1.268 . S
O77 Sc67 2.105 . S
O77 C71 1.268 . S
O78 Sc68 2.105 . S
O78 C72 1.268 . S
O79 Sc66 2.105 . S
O79 C73 1.268 . S
O80 Sc68 2.105 . S
O80 C74 1.268 . S
O81 Sc67 2.105 . S
O81 C75 1.268 . S
O82 Sc66 2.105 . S
O82 C74 1.268 . S
O83 Sc67 2.105 . S
O83 C73 1.268 . S
O84 Sc68 2.105 . S
O84 C75 1.268 . S
O85 Sc66 2.105 . S
O85 C71 1.268 . S
O86 Sc68 2.105 . S
O86 C70 1.268 . S
O87 Sc67 2.105 . S
O87 C72 1.268 . S
P88 O99 1.490 1_455 S
P88 C102 1.812 . S
P88 C108 1.803 . S
P88 C114 1.819 1_455 S
H89 C103 0.941 . S
H90 C104 0.939 . S
H91 C106 0.940 . S
H92 C107 0.940 . S
H93 C109 0.939 . S
H94 C110 0.942 . S
H95 C112 0.940 . S
H96 C113 0.939 . S
H97 C115 0.941 . S
H98 C119 0.939 . S
O99 P88 1.490 1_655 S
H100 C116 0.939 . S
H101 C118 0.940 . S
C102 P88 1.812 . S
C102 C103 1.389 . S
C102 C107 1.391 . S
C103 H89 0.941 . S
C103 C102 1.389 . S
C103 C104 1.397 1_545 S
C104 H90 0.939 . S
C104 C103 1.397 1_565 S
C104 C105 1.378 . S
C105 C104 1.378 . S
C105 C106 1.378 1_565 S
C106 H91 0.940 . S
C106 C105 1.378 1_545 S
C106 C107 1.396 . S
C107 H92 0.940 . S
C107 C102 1.391 . S
C107 C106 1.396 . S
C108 P88 1.803 . S
C108 C109 1.378 . S
C108 C113 1.400 . S
C109 H93 0.939 . S
C109 C108 1.378 . S
C109 C110 1.361 . S
C110 H94 0.942 . S
C110 C109 1.361 . S
C110 C111 1.369 . S
C111 C110 1.369 . S
C111 C112 1.404 . S
C112 H95 0.940 . S
C112 C111 1.404 . S
C112 C113 1.389 . S
C113 H96 0.939 . S
C113 C108 1.400 . S
C113 C112 1.389 . S
C114 P88 1.819 1_655 S
C114 C115 1.391 . S
C114 C119 1.391 1_655 S
C115 H97 0.941 . S
C115 C114 1.391 . S
C115 C116 1.396 . S
C116 H100 0.939 . S
C116 C115 1.396 . S
C116 C117 1.397 . S
C117 C116 1.397 . S
C117 C118 1.385 . S
C118 H101 0.940 . S
C118 C117 1.385 . S
C118 C119 1.388 1_655 S
C119 H98 0.939 . S
C119 C114 1.391 1_455 S
C119 C118 1.388 1_455 S
P120 O131 1.490 . S
P120 C134 1.812 . S
P120 C140 1.803 . S
P120 C146 1.819 . S
H121 C135 0.941 . S
H122 C136 0.939 . S
H123 C138 0.940 . S
H124 C139 0.940 . S
H125 C141 0.939 . S
H126 C142 0.942 . S
H127 C144 0.940 . S
H128 C145 0.939 . S
H129 C147 0.941 . S
H130 C151 0.939 . S
O131 P120 1.490 . S
H132 C148 0.939 . S
H133 C150 0.940 . S
C134 P120 1.812 . S
C134 C135 1.389 . S
C134 C139 1.391 . S
C135 H121 0.941 . S
C135 C134 1.389 . S
C135 C136 1.397 . S
C136 H122 0.939 . S
C136 C135 1.397 . S
C136 C137 1.378 . S
C137 C136 1.378 . S
C137 C138 1.378 . S
C138 H123 0.940 . S
C138 C137 1.378 . S
C138 C139 1.396 . S
C139 H124 0.940 . S
C139 C134 1.391 . S
C139 C138 1.396 . S
C140 P120 1.803 . S
C140 C141 1.378 . S
C140 C145 1.400 . S
C141 H125 0.939 . S
C141 C140 1.378 . S
C141 C142 1.361 . S
C142 H126 0.942 . S
C142 C141 1.361 . S
C142 C143 1.369 . S
C143 C142 1.369 . S
C143 C144 1.404 . S
C144 H127 0.940 . S
C144 C143 1.404 . S
C144 C145 1.389 . S
C145 H128 0.939 . S
C145 C140 1.400 . S
C145 C144 1.389 . S
C146 P120 1.819 . S
C146 C147 1.391 . S
C146 C151 1.391 . S
C147 H129 0.941 . S
C147 C146 1.391 . S
C147 C148 1.396 . S
C148 H132 0.939 . S
C148 C147 1.396 . S
C148 C149 1.397 . S
C149 C148 1.397 . S
C149 C150 1.385 . S
C150 H133 0.940 . S
C150 C149 1.385 . S
C150 C151 1.388 . S
C151 H130 0.939 . S
C151 C146 1.391 . S
C151 C150 1.388 . S
P152 O163 1.490 . S
P152 C166 1.812 . S
P152 C172 1.803 . S
P152 C178 1.819 . S
H153 C167 0.941 . S
H154 C168 0.939 . S
H155 C170 0.940 . S
H156 C171 0.940 . S
H157 C173 0.939 . S
H158 C174 0.942 . S
H159 C176 0.940 . S
H160 C177 0.939 . S
H161 C179 0.941 . S
H162 C183 0.939 . S
O163 P152 1.490 . S
H164 C180 0.939 . S
H165 C182 0.940 . S
C166 P152 1.812 . S
C166 C167 1.389 . S
C166 C171 1.391 . S
C167 H153 0.941 . S
C167 C166 1.389 . S
C167 C168 1.397 . S
C168 H154 0.939 . S
C168 C167 1.397 . S
C168 C169 1.378 . S
C169 C168 1.378 . S
C169 C170 1.378 . S
C170 H155 0.940 . S
C170 C169 1.378 . S
C170 C171 1.396 . S
C171 H156 0.940 . S
C171 C166 1.391 . S
C171 C170 1.396 . S
C172 P152 1.803 . S
C172 C173 1.378 . S
C172 C177 1.400 . S
C173 H157 0.939 . S
C173 C172 1.378 . S
C173 C174 1.361 . S
C174 H158 0.942 . S
C174 C173 1.361 . S
C174 C175 1.369 . S
C175 C174 1.369 . S
C175 C176 1.404 . S
C176 H159 0.940 . S
C176 C175 1.404 . S
C176 C177 1.389 . S
C177 H160 0.939 . S
C177 C172 1.400 . S
C177 C176 1.389 . S
C178 P152 1.819 . S
C178 C179 1.391 . S
C178 C183 1.391 . S
C179 H161 0.941 . S
C179 C178 1.391 . S
C179 C180 1.396 . S
C180 H164 0.939 . S
C180 C179 1.396 . S
C180 C181 1.397 . S
C181 C180 1.397 . S
C181 C182 1.385 . S
C182 H165 0.940 . S
C182 C181 1.385 . S
C182 C183 1.388 . S
C183 H162 0.939 . S
C183 C178 1.391 . S
C183 C182 1.388 . S
P184 O195 1.490 . S
P184 C198 1.812 . S
P184 C204 1.803 . S
P184 C210 1.819 . S
H185 C199 0.941 . S
H186 C200 0.939 . S
H187 C202 0.940 . S
H188 C203 0.940 . S
H189 C205 0.939 . S
H190 C206 0.942 . S
H191 C208 0.940 . S
H192 C209 0.939 . S
H193 C211 0.941 . S
H194 C215 0.939 . S
O195 P184 1.490 . S
H196 C212 0.939 . S
H197 C214 0.940 . S
C198 P184 1.812 . S
C198 C199 1.389 . S
C198 C203 1.391 . S
C199 H185 0.941 . S
C199 C198 1.389 . S
C199 C200 1.397 . S
C200 H186 0.939 . S
C200 C199 1.397 . S
C200 C201 1.378 . S
C201 C200 1.378 . S
C201 C202 1.378 . S
C202 H187 0.940 . S
C202 C201 1.378 . S
C202 C203 1.396 . S
C203 H188 0.940 . S
C203 C198 1.391 . S
C203 C202 1.396 . S
C204 P184 1.803 . S
C204 C205 1.378 . S
C204 C209 1.400 . S
C205 H189 0.939 . S
C205 C204 1.378 . S
C205 C206 1.361 . S
C206 H190 0.942 . S
C206 C205 1.361 . S
C206 C207 1.369 . S
C207 C206 1.369 . S
C207 C208 1.404 . S
C208 H191 0.940 . S
C208 C207 1.404 . S
C208 C209 1.389 . S
C209 H192 0.939 . S
C209 C204 1.400 . S
C209 C208 1.389 . S
C210 P184 1.819 . S
C210 C211 1.391 . S
C210 C215 1.391 . S
C211 H193 0.941 . S
C211 C210 1.391 . S
C211 C212 1.396 . S
C212 H196 0.939 . S
C212 C211 1.396 . S
C212 C213 1.397 . S
C213 C212 1.397 . S
C213 C214 1.385 . S
C214 H197 0.940 . S
C214 C213 1.385 . S
C214 C215 1.388 . S
C215 H194 0.939 . S
C215 C210 1.391 . S
C215 C214 1.388 . S
P216 O227 1.490 . S
P216 C230 1.812 . S
P216 C236 1.803 . S
P216 C242 1.819 . S
H217 C231 0.941 . S
H218 C232 0.939 . S
H219 C234 0.940 . S
H220 C235 0.940 . S
H221 C237 0.939 . S
H222 C238 0.942 . S
H223 C240 0.940 . S
H224 C241 0.939 . S
H225 C243 0.941 . S
H226 C247 0.939 . S
O227 P216 1.490 . S
H228 C244 0.939 . S
H229 C246 0.940 . S
C230 P216 1.812 . S
C230 C231 1.389 . S
C230 C235 1.391 . S
C231 H217 0.941 . S
C231 C230 1.389 . S
C231 C232 1.397 . S
C232 H218 0.939 . S
C232 C231 1.397 . S
C232 C233 1.378 . S
C233 C232 1.378 . S
C233 C234 1.378 . S
C234 H219 0.940 . S
C234 C233 1.378 . S
C234 C235 1.396 . S
C235 H220 0.940 . S
C235 C230 1.391 . S
C235 C234 1.396 . S
C236 P216 1.803 . S
C236 C237 1.378 . S
C236 C241 1.400 . S
C237 H221 0.939 . S
C237 C236 1.378 . S
C237 C238 1.361 . S
C238 H222 0.942 . S
C238 C237 1.361 . S
C238 C239 1.369 . S
C239 C238 1.369 . S
C239 C240 1.404 . S
C240 H223 0.940 . S
C240 C239 1.404 . S
C240 C241 1.389 . S
C241 H224 0.939 . S
C241 C236 1.400 . S
C241 C240 1.389 . S
C242 P216 1.819 . S
C242 C243 1.391 . S
C242 C247 1.391 . S
C243 H225 0.941 . S
C243 C242 1.391 . S
C243 C244 1.396 . S
C244 H228 0.939 . S
C244 C243 1.396 . S
C244 C245 1.397 . S
C245 C244 1.397 . S
C245 C246 1.385 . S
C246 H229 0.940 . S
C246 C245 1.385 . S
C246 C247 1.388 . S
C247 H226 0.939 . S
C247 C242 1.391 . S
C247 C246 1.388 . S
P248 O259 1.490 . S
P248 C262 1.812 . S
P248 C268 1.803 . S
P248 C274 1.819 . S
H249 C263 0.941 . S
H250 C264 0.939 . S
H251 C266 0.940 . S
H252 C267 0.940 . S
H253 C269 0.939 . S
H254 C270 0.942 . S
H255 C272 0.940 . S
H256 C273 0.939 . S
H257 C275 0.941 1_554 S
H258 C279 0.939 . S
O259 P248 1.490 . S
H260 C276 0.939 1_554 S
H261 C278 0.940 . S
C262 P248 1.812 . S
C262 C263 1.389 . S
C262 C267 1.391 . S
C263 H249 0.941 . S
C263 C262 1.389 . S
C263 C264 1.397 . S
C264 H250 0.939 . S
C264 C263 1.397 . S
C264 C265 1.378 . S
C265 C264 1.378 . S
C265 C266 1.378 . S
C266 H251 0.940 . S
C266 C265 1.378 . S
C266 C267 1.396 . S
C267 H252 0.940 . S
C267 C262 1.391 . S
C267 C266 1.396 . S
C268 P248 1.803 . S
C268 C269 1.378 . S
C268 C273 1.400 . S
C269 H253 0.939 . S
C269 C268 1.378 . S
C269 C270 1.361 . S
C270 H254 0.942 . S
C270 C269 1.361 . S
C270 C271 1.369 . S
C271 C270 1.369 . S
C271 C272 1.404 . S
C272 H255 0.940 . S
C272 C271 1.404 . S
C272 C273 1.389 . S
C273 H256 0.939 . S
C273 C268 1.400 . S
C273 C272 1.389 . S
C274 P248 1.819 . S
C274 C275 1.391 . S
C274 C279 1.391 . S
C275 H257 0.941 1_556 S
C275 C274 1.391 . S
C275 C276 1.396 . S
C276 H260 0.939 1_556 S
C276 C275 1.396 . S
C276 C277 1.397 . S
C277 C276 1.397 . S
C277 C278 1.385 . S
C278 H261 0.940 . S
C278 C277 1.385 . S
C278 C279 1.388 . S
C279 H258 0.939 . S
C279 C274 1.391 . S
C279 C278 1.388 . S
P280 O291 1.490 . S
P280 C294 1.812 . S
P280 C300 1.803 . S
P280 C306 1.819 . S
H281 C295 0.941 . S
H282 C296 0.939 . S
H283 C298 0.940 . S
H284 C299 0.940 . S
H285 C301 0.939 . S
H286 C302 0.942 . S
H287 C304 0.940 . S
H288 C305 0.939 . S
H289 C307 0.941 . S
H290 C311 0.939 . S
O291 P280 1.490 . S
H292 C308 0.939 . S
H293 C310 0.940 . S
C294 P280 1.812 . S
C294 C295 1.389 . S
C294 C299 1.391 . S
C295 H281 0.941 . S
C295 C294 1.389 . S
C295 C296 1.397 . S
C296 H282 0.939 . S
C296 C295 1.397 . S
C296 C297 1.378 . S
C297 C296 1.378 . S
C297 C298 1.378 . S
C298 H283 0.940 . S
C298 C297 1.378 . S
C298 C299 1.396 . S
C299 H284 0.940 . S
C299 C294 1.391 . S
C299 C298 1.396 . S
C300 P280 1.803 . S
C300 C301 1.378 . S
C300 C305 1.400 . S
C301 H285 0.939 . S
C301 C300 1.378 . S
C301 C302 1.361 . S
C302 H286 0.942 . S
C302 C301 1.361 . S
C302 C303 1.369 . S
C303 C302 1.369 . S
C303 C304 1.404 . S
C304 H287 0.940 . S
C304 C303 1.404 . S
C304 C305 1.389 . S
C305 H288 0.939 . S
C305 C300 1.400 . S
C305 C304 1.389 . S
C306 P280 1.819 . S
C306 C307 1.391 . S
C306 C311 1.391 . S
C307 H289 0.941 . S
C307 C306 1.391 . S
C307 C308 1.396 . S
C308 H292 0.939 . S
C308 C307 1.396 . S
C308 C309 1.397 . S
C309 C308 1.397 . S
C309 C310 1.385 . S
C310 H293 0.940 . S
C310 C309 1.385 . S
C310 C311 1.388 . S
C311 H290 0.939 . S
C311 C306 1.391 . S
C311 C310 1.388 . S
P312 O323 1.490 . S
P312 C326 1.812 . S
P312 C332 1.803 . S
P312 C338 1.819 . S
H313 C327 0.941 . S
H314 C328 0.939 . S
H315 C330 0.940 . S
H316 C331 0.940 . S
H317 C333 0.939 . S
H318 C334 0.942 . S
H319 C336 0.940 . S
H320 C337 0.939 . S
H321 C339 0.941 . S
H322 C343 0.939 . S
O323 P312 1.490 . S
H324 C340 0.939 . S
H325 C342 0.940 . S
C326 P312 1.812 . S
C326 C327 1.389 . S
C326 C331 1.391 . S
C327 H313 0.941 . S
C327 C326 1.389 . S
C327 C328 1.397 . S
C328 H314 0.939 . S
C328 C327 1.397 . S
C328 C329 1.375 1_565 S
C329 C328 1.375 1_545 S
C329 C330 1.375 1_545 S
C330 H315 0.940 . S
C330 C329 1.375 1_565 S
C330 C331 1.396 . S
C331 H316 0.940 . S
C331 C326 1.391 . S
C331 C330 1.396 . S
C332 P312 1.803 . S
C332 C333 1.378 . S
C332 C337 1.400 . S
C333 H317 0.939 . S
C333 C332 1.378 . S
C333 C334 1.361 . S
C334 H318 0.942 . S
C334 C333 1.361 . S
C334 C335 1.369 . S
C335 C334 1.369 . S
C335 C336 1.404 . S
C336 H319 0.940 . S
C336 C335 1.404 . S
C336 C337 1.389 . S
C337 H320 0.939 . S
C337 C332 1.400 . S
C337 C336 1.389 . S
C338 P312 1.819 . S
C338 C339 1.391 . S
C338 C343 1.391 . S
C339 H321 0.941 . S
C339 C338 1.391 . S
C339 C340 1.396 1_655 S
C340 H324 0.939 . S
C340 C339 1.396 1_455 S
C340 C341 1.397 . S
C341 C340 1.397 . S
C341 C342 1.385 . S
C342 H325 0.940 . S
C342 C341 1.385 . S
C342 C343 1.388 1_455 S
C343 H322 0.939 . S
C343 C338 1.391 . S
C343 C342 1.388 1_655 S
C344 C345 1.387 . S
C344 H348 0.950 . S
C344 C353 1.390 . S
C345 C344 1.387 . S
C345 C347 1.387 . S
H346 C353 0.950 1_545 S
C347 C345 1.387 . S
C347 C349 1.390 . S
C347 H351 0.950 . S
H348 C344 0.950 . S
C349 C347 1.390 . S
C349 C350 1.387 . S
C349 H352 0.950 . S
C350 C349 1.387 . S
C350 C353 1.387 . S
H351 C347 0.950 . S
H352 C349 0.950 . S
C353 C344 1.390 . S
C353 H346 0.950 1_565 S
C353 C350 1.387 . S
C354 C355 1.387 . S
C354 H358 0.950 . S
C354 C363 1.390 . S
C355 C354 1.387 . S
C355 C357 1.387 . S
H356 C363 0.950 . S
C357 C355 1.387 . S
C357 C359 1.390 . S
C357 H361 0.950 . S
H358 C354 0.950 . S
C359 C357 1.390 . S
C359 C360 1.387 . S
C359 H362 0.950 . S
C360 C359 1.387 . S
C360 C363 1.387 . S
H361 C357 0.950 . S
H362 C359 0.950 . S
C363 C354 1.390 . S
C363 H356 0.950 . S
C363 C360 1.387 . S
C364 C365 1.387 . S
C364 H368 0.950 . S
C364 C373 1.390 . S
C365 C364 1.387 . S
C365 C367 1.387 . S
H366 C373 0.950 . S
C367 C365 1.387 . S
C367 C369 1.390 1_545 S
C367 H371 0.950 . S
H368 C364 0.950 . S
C369 C367 1.390 1_565 S
C369 C370 1.387 . S
C369 H372 0.950 . S
C370 C369 1.387 . S
C370 C373 1.387 1_565 S
H371 C367 0.950 . S
H372 C369 0.950 . S
C373 C364 1.390 . S
C373 H366 0.950 . S
C373 C370 1.387 1_545 S
C374 C375 1.387 . S
C374 H378 0.950 . S
C374 C383 1.390 . S
C375 C374 1.387 . S
C375 C377 1.387 . S
H376 C383 0.950 . S
C377 C375 1.387 . S
C377 C379 1.390 . S
C377 H381 0.950 . S
H378 C374 0.950 . S
C379 C377 1.390 . S
C379 C380 1.387 . S
C379 H382 0.950 . S
C380 C379 1.387 . S
C380 C383 1.387 . S
H381 C377 0.950 . S
H382 C379 0.950 . S
C383 C374 1.390 . S
C383 H376 0.950 . S
C383 C380 1.387 . S
C384 C385 1.387 . S
C384 H388 0.950 . S
C384 C393 1.390 . S
C385 C384 1.387 . S
C385 C387 1.387 . S
H386 C393 0.950 . S
C387 C385 1.387 . S
C387 C389 1.390 . S
C387 H391 0.950 . S
H388 C384 0.950 . S
C389 C387 1.390 . S
C389 C390 1.387 . S
C389 H392 0.950 . S
C390 C389 1.387 . S
C390 C393 1.387 . S
H391 C387 0.950 . S
H392 C389 0.950 . S
C393 C384 1.390 . S
C393 H386 0.950 . S
C393 C390 1.387 . S
C394 C395 1.387 1_455 S
C394 H398 0.950 . S
C394 C403 1.390 . S
C395 C394 1.387 1_655 S
C395 C397 1.387 1_655 S
H396 C403 0.950 . S
C397 C395 1.387 1_455 S
C397 C399 1.390 . S
C397 H401 0.950 1_556 S
H398 C394 0.950 . S
C399 C397 1.390 . S
C399 C400 1.387 . S
C399 H402 0.939 1_556 S
C400 C399 1.387 . S
C400 C403 1.387 . S
H401 C397 0.950 1_554 S
H402 C399 0.939 1_554 S
C403 C394 1.390 . S
C403 H396 0.950 . S
C403 C400 1.387 . S
C404 C405 1.387 . S
C404 H408 0.950 . S
C404 C413 1.390 . S
C405 C404 1.387 . S
C405 C407 1.387 . S
H406 C413 0.950 . S
C407 C405 1.387 . S
C407 C409 1.390 . S
C407 H411 0.950 . S
H408 C404 0.950 . S
C409 C407 1.390 . S
C409 C410 1.387 . S
C409 H412 0.950 . S
C410 C409 1.387 . S
C410 C413 1.387 . S
H411 C407 0.950 . S
H412 C409 0.950 . S
C413 C404 1.390 . S
C413 H406 0.950 . S
C413 C410 1.387 . S
C414 C415 1.387 . S
C414 H418 0.950 . S
C414 C423 1.390 . S
C415 C414 1.387 . S
C415 C417 1.387 . S
H416 C423 0.950 . S
C417 C415 1.387 . S
C417 C419 1.390 . S
C417 H421 0.950 . S
H418 C414 0.950 . S
C419 C417 1.390 . S
C419 C420 1.387 . S
C419 H422 0.950 . S
C420 C419 1.387 . S
C420 C423 1.387 . S
H421 C417 0.950 . S
H422 C419 0.950 . S
C423 C414 1.390 . S
C423 H416 0.950 . S
C423 C420 1.387 . S
C424 C425 1.387 . S
C424 H428 0.950 . S
C424 C433 1.390 . S
C425 C424 1.387 . S
C425 C427 1.387 . S
H426 C433 0.950 . S
C427 C425 1.387 . S
C427 C429 1.390 . S
C427 H431 0.950 . S
H428 C424 0.950 . S
C429 C427 1.390 . S
C429 C430 1.387 . S
C429 H432 0.950 1_545 S
C430 C429 1.387 . S
C430 C433 1.387 . S
H431 C427 0.950 . S
H432 C429 0.950 1_565 S
C433 C424 1.390 . S
C433 H426 0.950 . S
C433 C430 1.387 . S
C434 C435 1.387 . S
C434 H438 0.950 . S
C434 C443 1.390 . S
C435 C434 1.387 . S
C435 C437 1.387 . S
H436 C443 0.950 . S
C437 C435 1.387 . S
C437 C439 1.390 . S
C437 H441 0.950 . S
H438 C434 0.950 . S
C439 C437 1.390 . S
C439 C440 1.387 . S
C439 H442 0.950 . S
C440 C439 1.387 . S
C440 C443 1.387 . S
H441 C437 0.950 . S
H442 C439 0.950 . S
C443 C434 1.390 . S
C443 H436 0.950 . S
C443 C440 1.387 . S
C444 C445 1.387 1_554 S
C444 H448 0.950 . S
C444 C453 1.390 . S
C445 C444 1.387 1_556 S
C445 C447 1.387 . S
H446 C453 0.950 1_545 S
C447 C445 1.387 . S
C447 C449 1.390 . S
C447 H451 0.950 . S
H448 C444 0.950 . S
C449 C447 1.390 . S
C449 C450 1.387 1_565 S
C449 H452 0.950 . S
C450 C449 1.387 1_545 S
C450 C453 1.387 1_546 S
H451 C447 0.950 . S
H452 C449 0.950 . S
C453 C444 1.390 . S
C453 H446 0.950 1_565 S
C453 C450 1.387 1_564 S
C454 C455 1.387 . S
C454 H458 0.950 . S
C454 C463 1.390 . S
C455 C454 1.387 . S
C455 C457 1.387 . S
H456 C463 0.950 . S
C457 C455 1.387 . S
C457 C459 1.390 . S
C457 H461 0.950 . S
H458 C454 0.950 . S
C459 C457 1.390 . S
C459 C460 1.387 . S
C459 H462 0.950 . S
C460 C459 1.387 . S
C460 C463 1.387 . S
H461 C457 0.950 . S
H462 C459 0.950 . S
C463 C454 1.390 . S
C463 H456 0.950 . S
C463 C460 1.387 . S
C464 C465 1.387 . S
C464 H468 0.950 . S
C464 C473 1.390 . S
C465 C464 1.387 . S
C465 C467 1.387 . S
H466 C473 0.950 . S
C467 C465 1.387 . S
C467 C469 1.390 . S
C467 H471 0.950 . S
H468 C464 0.950 . S
C469 C467 1.390 . S
C469 C470 1.387 . S
C469 H472 0.950 . S
C470 C469 1.387 . S
C470 C473 1.387 . S
H471 C467 0.950 . S
H472 C469 0.950 . S
C473 C464 1.390 . S
C473 H466 0.950 . S
C473 C470 1.387 . S
C474 C475 1.376 1_655 S
C474 H478 0.950 . S
C474 C483 1.390 . S
C475 C474 1.376 1_455 S
C475 C477 1.375 1_455 S
H476 C483 0.950 . S
C477 C475 1.375 1_655 S
C477 C479 1.390 . S
C477 H481 0.950 . S
H478 C474 0.950 . S
C479 C477 1.390 . S
C479 C480 1.387 . S
C479 H482 0.950 . S
C480 C479 1.387 . S
C480 C483 1.387 . S
H481 C477 0.950 . S
H482 C479 0.950 . S
C483 C474 1.390 . S
C483 H476 0.950 . S
C483 C480 1.387 . S
C484 C485 1.387 . S
C484 H488 0.950 . S
C484 C493 1.390 . S
C485 C484 1.387 . S
C485 C487 1.387 . S
H486 C493 0.950 . S
C487 C485 1.387 . S
C487 C489 1.390 . S
C487 H491 0.950 . S
H488 C484 0.950 . S
C489 C487 1.390 . S
C489 C490 1.387 . S
C489 H492 0.950 . S
C490 C489 1.387 . S
C490 C493 1.387 . S
H491 C487 0.950 . S
H492 C489 0.950 . S
C493 C484 1.390 . S
C493 H486 0.950 . S
C493 C490 1.387 . S
C494 C495 1.387 . S
C494 H498 0.950 . S
C494 C503 1.390 . S
C495 C494 1.387 . S
C495 C497 1.387 . S
H496 C503 0.950 . S
C497 C495 1.387 . S
C497 C499 1.390 . S
C497 H501 0.950 . S
H498 C494 0.950 . S
C499 C497 1.390 . S
C499 C500 1.387 . S
C499 H502 0.950 . S
C500 C499 1.387 . S
C500 C503 1.387 . S
H501 C497 0.950 . S
H502 C499 0.950 . S
C503 C494 1.390 . S
C503 H496 0.950 . S
C503 C500 1.387 . S
C504 C505 1.387 . S
C504 H508 0.950 . S
C504 C513 1.390 . S
C505 C504 1.387 . S
C505 C507 1.387 . S
H506 C513 0.950 . S
C507 C505 1.387 . S
C507 C509 1.390 . S
C507 H511 0.950 . S
H508 C504 0.950 . S
C509 C507 1.390 . S
C509 C510 1.387 . S
C509 H512 0.950 . S
C510 C509 1.387 . S
C510 C513 1.387 . S
H511 C507 0.950 . S
H512 C509 0.950 . S
C513 C504 1.390 . S
C513 H506 0.950 . S
C513 C510 1.387 . S
C514 C515 1.387 . S
C514 H518 0.950 . S
C514 C523 1.390 . S
C515 C514 1.387 . S
C515 C517 1.387 . S
H516 C523 0.950 . S
C517 C515 1.387 . S
C517 C519 1.390 . S
C517 H521 0.950 . S
H518 C514 0.950 . S
C519 C517 1.390 . S
C519 C520 1.387 . S
C519 H522 0.950 . S
C520 C519 1.387 . S
C520 C523 1.387 . S
H521 C517 0.950 . S
H522 C519 0.950 . S
C523 C514 1.390 . S
C523 H516 0.950 . S
C523 C520 1.387 . S
C524 C525 1.387 . S
C524 H528 0.950 . S
C524 C533 1.390 . S
C525 C524 1.387 . S
C525 C527 1.387 . S
H526 C533 0.950 . S
C527 C525 1.387 . S
C527 C529 1.390 . S
C527 H531 0.950 . S
H528 C524 0.950 . S
C529 C527 1.390 . S
C529 C530 1.387 . S
C529 H532 0.950 . S
C530 C529 1.387 . S
C530 C533 1.387 . S
H531 C527 0.950 . S
H532 C529 0.950 . S
C533 C524 1.390 . S
C533 H526 0.950 . S
C533 C530 1.387 . S
C534 C535 1.387 . S
C534 H538 0.950 . S
C534 C543 1.390 . S
C535 C534 1.387 . S
C535 C537 1.387 . S
H536 C543 0.950 . S
C537 C535 1.387 . S
C537 C539 1.390 . S
C537 H541 0.950 . S
H538 C534 0.950 . S
C539 C537 1.390 . S
C539 C540 1.387 . S
C539 H542 0.950 . S
C540 C539 1.387 . S
C540 C543 1.387 . S
H541 C537 0.950 . S
H542 C539 0.950 . S
C543 C534 1.390 . S
C543 H536 0.950 . S
C543 C540 1.387 . S
C544 C545 1.387 . S
C544 H548 0.950 . S
C544 C553 1.390 . S
C545 C544 1.387 . S
C545 C547 1.387 . S
H546 C553 0.950 . S
C547 C545 1.387 . S
C547 C549 1.390 . S
C547 H551 0.950 . S
H548 C544 0.950 . S
C549 C547 1.390 . S
C549 C550 1.387 . S
C549 H552 0.950 . S
C550 C549 1.387 . S
C550 C553 1.387 . S
H551 C547 0.950 . S
H552 C549 0.950 . S
C553 C544 1.390 . S
C553 H546 0.950 . S
C553 C550 1.387 . S
C554 C555 1.387 . S
C554 H558 0.950 . S
C554 C563 1.390 . S
C555 C554 1.387 . S
C555 C557 1.387 . S
H556 C563 0.950 . S
C557 C555 1.387 . S
C557 C559 1.390 . S
C557 H561 0.950 . S
H558 C554 0.950 . S
C559 C557 1.390 . S
C559 C560 1.387 . S
C559 H562 0.950 . S
C560 C559 1.387 . S
C560 C563 1.387 . S
H561 C557 0.950 . S
H562 C559 0.950 . S
C563 C554 1.390 . S
C563 H556 0.950 . S
C563 C560 1.387 . S
C564 C565 1.387 . S
C564 H568 0.950 . S
C564 C573 1.390 . S
C565 C564 1.387 . S
C565 C567 1.387 . S
H566 C573 0.950 . S
C567 C565 1.387 . S
C567 C569 1.390 . S
C567 H571 0.950 . S
H568 C564 0.950 . S
C569 C567 1.390 . S
C569 C570 1.387 . S
C569 H572 0.950 . S
C570 C569 1.387 . S
C570 C573 1.387 . S
H571 C567 0.950 . S
H572 C569 0.950 . S
C573 C564 1.390 . S
C573 H566 0.950 . S
C573 C570 1.387 . S
C574 C575 1.387 1_554 S
C574 H578 0.950 . S
C574 C583 1.390 1_554 S
C575 C574 1.387 1_556 S
C575 C577 1.387 . S
H576 C583 0.950 1_554 S
C577 C575 1.387 . S
C577 C579 1.390 . S
C577 H581 0.950 . S
H578 C574 0.950 . S
C579 C577 1.390 . S
C579 C580 1.387 . S
C579 H582 0.950 . S
C580 C579 1.387 . S
C580 C583 1.387 . S
H581 C577 0.950 . S
H582 C579 0.950 . S
C583 C574 1.390 1_556 S
C583 H576 0.950 1_556 S
C583 C580 1.387 . S
C345 C8 1.648 . S
C350 C105 1.619 . S
C355 C31 1.570 . S
C360 C137 1.518 . S
C365 C53 1.778 . S
C370 C169 1.583 . S
C380 C213 1.522 . S
C375 C74 1.474 . S
C390 C233 1.579 . S
C385 C26 1.601 . S
C395 C48 1.489 . S
C400 C277 1.536 . S
C405 C71 1.762 . S
C410 C297 1.569 . S
C415 C5 1.597 . S
C420 C341 1.360 . S
C425 C50 1.641 . S
C430 C329 1.455 . S
C440 C245 1.575 . S
C435 C70 1.627 . S
C450 C265 1.737 . S
C445 C4 1.786 1_556 S
C455 C28 1.481 . S
C460 C309 1.389 . S
C470 C149 1.639 . S
C465 C73 1.660 . S
C475 C7 1.507 . S
C480 C181 1.384 . S
C490 C201 1.710 . S
C485 C30 1.769 . S
C500 C117 1.555 . S
C495 C52 1.601 . S
C510 C303 1.431 . S
C505 C9 1.640 . S
C520 C335 1.322 . S
C515 C29 1.446 . S
C525 C51 1.452 . S
C530 C239 1.473 . S
C540 C271 1.647 . S
C535 C75 1.665 . S
C550 C175 1.444 . S
C545 C27 1.660 . S
C555 C49 1.645 . S
C560 C207 1.627 . S
C570 C111 1.488 . S
C565 C72 1.460 . S
C580 C143 1.472 . S
C575 C6 1.436 1_556 S
