# Generated by pormake.
# Topology zzz, (3,6)-cn, num edge types: 1
# Building blocks:
#     Node 0, Type 0, BuildingBlock: BETDIP_clean_linker_0, # of connection points: 3
#     Node 1, Type 0, BuildingBlock: BETDIP_clean_linker_0, # of connection points: 3
#     Node 2, Type 0, BuildingBlock: BETDIP_clean_linker_0, # of connection points: 3
#     Node 3, Type 0, BuildingBlock: BETDIP_clean_linker_0, # of connection points: 3
#     Node 4, Type 0, BuildingBlock: BETDIP_clean_linker_0, # of connection points: 3
#     Node 5, Type 0, BuildingBlock: BETDIP_clean_linker_0, # of connection points: 3
#     Node 6, Type 0, BuildingBlock: BETDIP_clean_linker_0, # of connection points: 3
#     Node 7, Type 0, BuildingBlock: BETDIP_clean_linker_0, # of connection points: 3
#     Node 8, Type 1, BuildingBlock: KUMJIN_clean_sbu_1, # of connection points: 6
#     Node 9, Type 1, BuildingBlock: KUMJIN_clean_sbu_1, # of connection points: 6
#     Node 10, Type 1, BuildingBlock: KUMJIN_clean_sbu_1, # of connection points: 6
#     Node 11, Type 1, BuildingBlock: KUMJIN_clean_sbu_1, # of connection points: 6
#     Edge 12, Type (0, 1), BuildingBlock: OJICUG_clean_linker_0, # of connection points: 2
#     Edge 13, Type (0, 1), BuildingBlock: OJICUG_clean_linker_0, # of connection points: 2
#     Edge 14, Type (0, 1), BuildingBlock: OJICUG_clean_linker_0, # of connection points: 2
#     Edge 15, Type (0, 1), BuildingBlock: OJICUG_clean_linker_0, # of connection points: 2
#     Edge 16, Type (0, 1), BuildingBlock: OJICUG_clean_linker_0, # of connection points: 2
#     Edge 17, Type (0, 1), BuildingBlock: OJICUG_clean_linker_0, # of connection points: 2
#     Edge 18, Type (0, 1), BuildingBlock: OJICUG_clean_linker_0, # of connection points: 2
#     Edge 19, Type (0, 1), BuildingBlock: OJICUG_clean_linker_0, # of connection points: 2
#     Edge 20, Type (0, 1), BuildingBlock: OJICUG_clean_linker_0, # of connection points: 2
#     Edge 21, Type (0, 1), BuildingBlock: OJICUG_clean_linker_0, # of connection points: 2
#     Edge 22, Type (0, 1), BuildingBlock: OJICUG_clean_linker_0, # of connection points: 2
#     Edge 23, Type (0, 1), BuildingBlock: OJICUG_clean_linker_0, # of connection points: 2
#     Edge 24, Type (0, 1), BuildingBlock: OJICUG_clean_linker_0, # of connection points: 2
#     Edge 25, Type (0, 1), BuildingBlock: OJICUG_clean_linker_0, # of connection points: 2
#     Edge 26, Type (0, 1), BuildingBlock: OJICUG_clean_linker_0, # of connection points: 2
#     Edge 27, Type (0, 1), BuildingBlock: OJICUG_clean_linker_0, # of connection points: 2
#     Edge 28, Type (0, 1), BuildingBlock: OJICUG_clean_linker_0, # of connection points: 2
#     Edge 29, Type (0, 1), BuildingBlock: OJICUG_clean_linker_0, # of connection points: 2
#     Edge 30, Type (0, 1), BuildingBlock: OJICUG_clean_linker_0, # of connection points: 2
#     Edge 31, Type (0, 1), BuildingBlock: OJICUG_clean_linker_0, # of connection points: 2
#     Edge 32, Type (0, 1), BuildingBlock: OJICUG_clean_linker_0, # of connection points: 2
#     Edge 33, Type (0, 1), BuildingBlock: OJICUG_clean_linker_0, # of connection points: 2
#     Edge 34, Type (0, 1), BuildingBlock: OJICUG_clean_linker_0, # of connection points: 2
#     Edge 35, Type (0, 1), BuildingBlock: OJICUG_clean_linker_0, # of connection points: 2
# Relax obj value: 0.247
# Max RMSD: 0.125
# Mean RMSD: 0.084
data_MOF--net-zzz--node1-KUMJIN_clean_sbu_1--node2-BETDIP_clean_linker_0--edge1-OJICUG_clean_linker_0
_symmetry_space_group_name_H-M    P1
_symmetry_Int_Tables_number       1
_symmetry_cell_setting            triclinic
loop_
_symmetry_equiv_pos_as_xyz
'x, y, z'
_cell_length_a     35.891157
_cell_length_b     35.951184
_cell_length_c     11.262183
_cell_angle_alpha  89.589676
_cell_angle_beta   90.687462
_cell_angle_gamma 89.748345
loop_
_atom_site_label
_atom_site_type_symbol
_atom_site_fract_x
_atom_site_fract_y
_atom_site_fract_z
_atom_type_partial_charge
H0 H 0.7808 0.57033 0.5693 0.0
H1 H 0.75534 0.57465 0.19354 0.0
H2 H 0.86782 0.55749 0.31069 0.0
H3 H 0.71253 0.62986 0.30845 0.0
C4 C 0.70111 0.60252 0.32707 0.0
C5 C 0.78997 0.57013 0.47809 0.0
C6 C 0.82873 0.56447 0.45274 0.0
C7 C 0.76315 0.57486 0.38311 0.0
C8 C 0.77543 0.57323 0.26619 0.0
C9 C 0.81261 0.56667 0.24072 0.0
C10 C 0.83903 0.56324 0.33285 0.0
N11 N 0.72359 0.57798 0.40053 0.0
H12 H 0.03849 0.79641 0.52597 0.0
H13 H 1.01768 0.76806 0.15929 0.0
H14 H 0.03428 0.88171 0.25425 0.0
H15 H 0.97448 0.71853 0.31468 0.0
C16 C 1.00401 0.71217 0.30783 0.0
C17 C 0.03363 0.80491 0.43468 0.0
C18 C 0.03489 0.84378 0.40323 0.0
C19 C 1.02675 0.77715 0.34533 0.0
C20 C 1.02123 0.7887 0.22825 0.0
C21 C 1.02484 0.82574 0.19545 0.0
C22 C 0.03073 0.85304 0.28225 0.0
N23 N 1.02916 0.73763 0.36625 0.0
H24 H 0.79981 0.07915 0.42702 0.0
H25 H 0.82168 0.98958 0.1817 0.0
H26 H 0.72396 0.98776 0.39588 0.0
H27 H 0.88374 1.00005 0.27811 0.0
C28 C 0.88325 1.02815 0.24164 0.0
C29 C 0.79255 0.05248 0.38943 0.0
C30 C 0.75858 0.03477 0.4224 0.0
C31 C 0.81704 0.03496 0.30663 0.0
C32 C 0.80555 1.00153 0.25278 0.0
C33 C 0.77231 0.9844 0.28504 0.0
C34 C 0.75029 1.00047 0.37286 0.0
N35 N 0.85186 0.05126 0.27111 0.0
H36 H 0.56757 0.79034 0.50048 0.0
H37 H 0.50378 0.82164 0.18781 0.0
H38 H 0.46982 0.72833 0.39555 0.0
H39 H 0.58798 0.8225 0.14647 0.0
C40 C 0.57609 0.84595 0.19333 0.0
C41 C 0.54394 0.78589 0.44172 0.0
C42 C 0.51855 0.75615 0.46519 0.0
C43 C 0.53877 0.80949 0.33969 0.0
C44 C 0.50813 0.80372 0.26463 0.0
C45 C 0.48289 0.7754 0.28728 0.0
C46 C 0.48839 0.75179 0.38555 0.0
N47 N 0.56305 0.83979 0.31203 0.0
H48 H 0.29642 0.52621 0.0321 0.0
H49 H 0.32756 0.58879 0.34354 0.0
H50 H 0.22236 0.60954 0.17219 0.0
H51 H 0.34349 0.49966 0.35176 0.0
C52 C 0.36319 0.51864 0.31137 0.0
C53 C 0.29009 0.54743 0.0966 0.0
C54 C 0.25558 0.56759 0.08782 0.0
C55 C 0.31627 0.55505 0.19075 0.0
C56 C 0.30778 0.58265 0.27292 0.0
C57 C 0.27461 0.60284 0.26423 0.0
C58 C 0.2489 0.595 0.17325 0.0
N59 N 0.35185 0.53688 0.20266 0.0
H60 H 0.07722 0.31179 0.9928 0.0
H61 H 1.00179 0.3378 0.2776 0.0
H62 H 0.98625 0.23836 0.0781 0.0
H63 H 1.01108 0.40002 0.14439 0.0
C64 C 0.03795 0.39782 0.18967 0.0
C65 C 0.0529 0.30517 0.04466 0.0
C66 C 0.03214 0.27187 1.0197 0.0
C67 C 0.04088 0.33035 0.13582 0.0
C68 C 1.01007 0.32039 0.20416 0.0
C69 C 0.99067 0.28761 0.18294 0.0
C70 C 1.00118 0.26427 0.09037 0.0
N71 N 0.05946 0.36482 0.16444 0.0
H72 H 0.30483 0.10548 0.05638 0.0
H73 H 0.26213 1.012 0.25574 0.0
H74 H 0.3687 1.00428 0.09009 0.0
H75 H 0.20652 0.03788 0.12665 0.0
C76 C 0.20929 0.06191 0.18421 0.0
C77 C 0.30753 0.07707 0.08797 0.0
C78 C 0.34025 0.05609 0.06199 0.0
C79 C 0.27815 0.06059 0.15469 0.0
C80 C 0.28299 1.02411 0.19857 0.0
C81 C 0.31538 1.0038 0.17533 0.0
C82 C 0.34309 1.01965 0.10503 0.0
N83 N 0.24464 0.08051 0.18405 0.0
H84 H 0.53778 0.29506 0.05115 0.0
H85 H 0.5063 0.26527 0.40692 0.0
H86 H 0.51377 0.38016 0.30604 0.0
H87 H 0.58438 0.24301 0.33079 0.0
C88 C 0.56234 0.2239 0.30513 0.0
C89 C 0.52789 0.30308 0.1377 0.0
C90 C 0.52247 0.34157 0.16401 0.0
C91 C 0.523 0.27548 0.22818 0.0
C92 C 0.51022 0.28636 0.33884 0.0
C93 C 0.5088 0.32369 0.36971 0.0
C94 C 0.51379 0.35108 0.28146 0.0
N95 N 0.53586 0.23784 0.21867 0.0
Eu96 Eu 1.00307 0.0636 0.60767 0.0
C97 C 0.15759 0.10144 0.8852 0.0
N98 N 0.14819 0.07732 0.79735 0.0
C99 C 0.20725 0.08713 0.7048 0.0
C100 C 0.19222 0.11988 0.88477 0.0
C101 C 0.17275 0.06932 0.70925 0.0
C102 C 0.21699 0.11262 0.79265 0.0
C103 C 0.14138 0.13285 0.06787 0.0
C104 C 0.13267 0.1075 0.97671 0.0
C105 C 0.17576 0.15132 0.06732 0.0
C106 C 0.20116 0.14474 0.97633 0.0
Eu107 Eu 0.09019 0.04707 0.81775 0.0
N108 N 0.09926 0.08975 0.97406 0.0
C109 C 0.11502 0.1393 0.15607 0.0
C110 C 0.07394 0.09513 0.06185 0.0
C111 C 0.08126 0.12023 0.15331 0.0
H112 H 0.16639 0.04835 0.6441 0.0
H113 H 0.06085 0.1249 0.22162 0.0
H114 H 0.93931 1.02034 0.77577 0.0
H115 H 0.05797 1.02418 0.17176 0.0
H116 H 0.04783 0.08053 0.06081 0.0
H117 H 0.12054 0.15883 0.22692 0.0
H118 H 0.04586 0.06699 0.33617 0.0
H119 H 0.22652 0.0808 0.63448 0.0
H120 H 0.18297 0.17074 0.13693 0.0
H121 H 0.22766 0.15906 0.97752 0.0
H122 H 0.89943 0.96461 0.76624 0.0
H123 H 0.24387 0.12618 0.78937 0.0
H124 H 1.02682 0.9633 0.16455 0.0
N125 N 0.96624 1.00921 0.61272 0.0
C126 C 0.9677 0.98734 0.51459 0.0
C127 C 0.9187 0.97051 0.69545 0.0
C128 C 0.94554 0.95511 0.50602 0.0
C129 C 0.94156 1.00181 0.70129 0.0
C130 C 0.92078 0.94698 0.59768 0.0
N131 N 1.01313 1.02821 0.43319 0.0
C132 C 0.03382 0.03965 0.33889 0.0
C133 C 0.99701 0.97206 0.32797 0.0
C134 C 0.99286 0.99622 0.42533 0.0
C135 C 1.02218 0.98153 0.23924 0.0
C136 C 0.03985 1.01591 0.24307 0.0
H137 H 0.9033 0.9225 0.5941 0.0
H138 H 0.93288 0.90646 0.40076 0.0
H139 H 0.97805 0.92114 0.24569 0.0
O140 O 0.97472 0.09413 0.46247 0.0
O141 O 1.01868 1.00496 0.68255 0.0
O142 O 0.08097 1.00474 0.66841 0.0
O143 O 0.944 0.07651 0.61596 0.0
O144 O 0.05882 0.08607 0.53258 0.0
O145 O 0.09916 0.04452 0.61994 0.0
O146 O 0.08728 1.00209 0.94733 0.0
O147 O 0.07352 0.10875 0.81257 0.0
O148 O 1.02113 0.11924 0.69269 0.0
O149 O 0.14073 1.01784 0.87681 0.0
O150 O 0.03188 0.03536 0.8958 0.0
O151 O 0.99216 0.07651 0.80074 0.0
C152 C 0.04939 0.98684 0.65603 0.0
C153 C 0.91815 0.12657 0.50966 0.0
C154 C 0.90716 0.19187 0.4638 0.0
C155 C 0.86924 0.18752 0.48874 0.0
C156 C 0.88015 0.12255 0.53539 0.0
C157 C 0.85591 0.15297 0.52583 0.0
C158 C 0.93161 0.16142 0.47563 0.0
C159 C 0.09243 0.0707 0.54114 0.0
C160 C 0.94242 0.09355 0.5145 0.0
C161 C 0.94946 0.93147 0.40838 0.0
C162 C 0.97546 0.93964 0.32061 0.0
C163 C 0.04786 0.1311 0.76587 0.0
C164 C 0.12564 0.9542 0.87692 0.0
C165 C 0.09462 0.89532 0.84027 0.0
C166 C 0.11921 0.88776 0.74765 0.0
C167 C 0.15004 0.94672 0.78285 0.0
C168 C 0.09927 0.92765 0.90732 0.0
C169 C 0.14706 0.91339 0.71979 0.0
C170 C 1.0005 0.05496 0.89159 0.0
C171 C 0.12162 0.9917 0.92755 0.0
H172 H 0.85001 0.21064 0.47785 0.0
H173 H 0.86914 0.09571 0.56141 0.0
H174 H 0.82662 0.14954 0.54479 0.0
H175 H 0.96074 0.16454 0.45321 0.0
H176 H 0.11671 0.86239 0.69696 0.0
H177 H 0.1705 0.96699 0.75542 0.0
H178 H 0.08125 0.93297 0.98207 0.0
H179 H 0.16574 0.90788 0.64721 0.0
Eu180 Eu 0.57932 0.06906 0.91788 0.0
C181 C 0.5676 0.92495 0.70624 0.0
N182 N 0.57904 0.95787 0.65811 0.0
C183 C 0.63525 0.92834 0.59196 0.0
C184 C 0.59059 0.89297 0.70355 0.0
C185 C 0.61129 0.95903 0.59462 0.0
C186 C 0.62516 0.89533 0.64827 0.0
C187 C 0.51914 0.88863 0.80161 0.0
C188 C 0.5321 0.92258 0.75439 0.0
C189 C 0.54248 0.85722 0.80209 0.0
C190 C 0.57808 0.85939 0.75324 0.0
Eu191 Eu 0.53489 1.00755 0.66774 0.0
N192 N 0.51024 0.95352 0.75563 0.0
C193 C 0.48295 0.8872 0.84656 0.0
C194 C 0.47438 0.95198 0.79439 0.0
C195 C 0.46036 0.91893 0.84192 0.0
H196 H 0.6183 0.98276 0.54086 0.0
H197 H 0.43216 0.91793 0.87471 0.0
H198 H 0.51388 0.13575 0.94813 0.0
H199 H 0.73042 0.08094 0.95589 0.0
H200 H 0.45684 0.97648 0.78976 0.0
H201 H 0.47205 0.86164 0.88374 0.0
H202 H 0.66983 0.04855 0.95116 0.0
H203 H 0.66108 0.9299 0.54359 0.0
H204 H 0.5331 0.831 0.83888 0.0
H205 H 0.59552 0.83471 0.75253 0.0
H206 H 0.50999 0.20419 0.95511 0.0
H207 H 0.64359 0.87143 0.64445 0.0
H208 H 0.7323 0.14971 0.94424 0.0
N209 N 0.57286 0.13453 0.93091 0.0
C210 C 0.60475 0.15466 0.92955 0.0
C211 C 0.53681 0.19061 0.9472 0.0
C212 C 0.60385 0.19385 0.93398 0.0
C213 C 0.53914 0.15178 0.94329 0.0
C214 C 0.56927 0.21177 0.94113 0.0
N215 N 0.63813 0.09818 0.93063 0.0
C216 C 0.6705 0.07848 0.94359 0.0
C217 C 0.67227 0.15567 0.93324 0.0
C218 C 0.63844 0.13588 0.92887 0.0
C219 C 0.70573 0.13556 0.94061 0.0
C220 C 0.70479 0.09677 0.94725 0.0
H221 H 0.56741 0.24182 0.94439 0.0
H222 H 0.63727 0.24393 0.93638 0.0
H223 H 0.69726 0.21046 0.93596 0.0
O224 O 0.54953 0.04748 0.07176 0.0
O225 O 0.5603 0.10482 0.75679 0.0
O226 O 0.54213 0.06683 0.59915 0.0
O227 O 0.60274 0.07468 0.09707 0.0
O228 O 0.6196 0.03843 0.79748 0.0
O229 O 0.59012 0.03647 0.61672 0.0
O230 O 0.48259 1.00648 0.56408 0.0
O231 O 0.5351 0.99366 0.86572 0.0
O232 O 0.59431 1.00766 0.9032 0.0
O233 O 0.53158 0.97935 0.49982 0.0
O234 O 0.48905 0.042 0.75016 0.0
O235 O 0.51508 0.06824 0.92006 0.0
C236 C 0.54942 0.09984 0.64481 0.0
C237 C 0.59217 1.01818 0.20252 0.0
C238 C 0.63948 0.9685 0.21684 0.0
C239 C 0.61428 0.94702 0.28217 0.0
C240 C 0.56749 0.99561 0.26524 0.0
C241 C 0.5787 0.96036 0.30498 0.0
C242 C 0.62838 1.00475 0.18095 0.0
C243 C 0.62065 0.04201 0.6814 0.0
C244 C 0.57804 0.05242 0.14301 0.0
C245 C 0.63741 0.21381 0.93378 0.0
C246 C 0.67157 0.19475 0.93345 0.0
C247 C 0.56658 0.98473 0.918 0.0
C248 C 0.47421 0.94888 0.46679 0.0
C249 C 0.41473 0.92042 0.41526 0.0
C250 C 0.43105 0.88501 0.42387 0.0
C251 C 0.49028 0.91315 0.4766 0.0
C252 C 0.43647 0.95211 0.43695 0.0
C253 C 0.46866 0.88147 0.45612 0.0
C254 C 0.48604 0.05966 0.85183 0.0
C255 C 0.49586 0.98316 0.48746 0.0
H256 H 0.62098 0.91903 0.31099 0.0
H257 H 0.53899 1.00457 0.27815 0.0
H258 H 0.55918 0.94202 0.34767 0.0
H259 H 0.64757 1.02246 0.13418 0.0
H260 H 0.41488 0.86035 0.40483 0.0
H261 H 0.51944 0.90956 0.4995 0.0
H262 H 0.42419 0.97961 0.42675 0.0
H263 H 0.4812 0.85413 0.46398 0.0
Eu264 Eu 0.57602 0.54254 0.73968 0.0
C265 C 0.45178 0.48222 0.0342 0.0
N266 N 0.45013 0.5027 0.9321 0.0
C267 C 0.40291 0.46257 0.85281 0.0
C268 C 0.4294 0.4503 0.04768 0.0
C269 C 0.42565 0.49383 0.84285 0.0
C270 C 0.40483 0.44066 0.95552 0.0
C271 C 0.48041 0.47013 0.22708 0.0
C272 C 0.47702 0.49235 0.12345 0.0
C273 C 0.45811 0.43844 0.24039 0.0
C274 C 0.43261 0.42864 0.15136 0.0
Eu275 Eu 0.48669 0.55717 0.92916 0.0
N276 N 0.49793 0.52376 0.10984 0.0
C277 C 0.50577 0.48063 0.31556 0.0
C278 C 0.51936 0.53611 0.20259 0.0
C279 C 0.52495 0.51398 0.30383 0.0
H280 H 0.42331 0.51137 0.76502 0.0
H281 H 0.54351 0.52297 0.37406 0.0
H282 H 0.65157 0.54864 0.91885 0.0
H283 H 0.53916 0.6231 0.34021 0.0
H284 H 0.53167 0.56332 0.20166 0.0
H285 H 0.5097 0.46391 0.39524 0.0
H286 H 0.53069 0.57543 0.49409 0.0
H287 H 0.38373 0.45555 0.78164 0.0
H288 H 0.45998 0.42157 0.32024 0.0
H289 H 0.41566 0.40405 0.16321 0.0
H290 H 0.70895 0.58581 0.93486 0.0
H291 H 0.38725 0.41635 0.96277 0.0
H292 H 0.59553 0.66224 0.34247 0.0
N293 N 0.63199 0.57631 0.76246 0.0
C294 C 0.63935 0.60186 0.67634 0.0
C295 C 0.6895 0.59079 0.8622 0.0
C296 C 0.67203 0.6235 0.68151 0.0
C297 C 0.65666 0.57018 0.85388 0.0
C298 C 0.69719 0.61764 0.77582 0.0
N299 N 0.58172 0.58681 0.58397 0.0
C300 C 0.55555 0.59182 0.49634 0.0
C301 C 0.61972 0.63472 0.49693 0.0
C302 C 0.61371 0.60704 0.58404 0.0
C303 C 0.59232 0.64072 0.40935 0.0
C304 C 0.56033 0.61889 0.40831 0.0
H305 H 0.72263 0.63364 0.78269 0.0
H306 H 0.70328 0.66747 0.59628 0.0
H307 H 0.65716 0.67776 0.43611 0.0
O308 O 0.57901 0.49987 0.60408 0.0
O309 O 0.56134 0.60428 0.76422 0.0
O310 O 0.49848 0.60717 0.80665 0.0
O311 O 0.62868 0.51424 0.70292 0.0
O312 O 0.5196 0.5272 0.64842 0.0
O313 O 0.4747 0.56474 0.73197 0.0
O314 O 0.46144 0.59445 0.05985 0.0
O315 O 0.50309 0.49845 0.86495 0.0
O316 O 0.56535 0.50016 0.88797 0.0
O317 O 0.4268 0.56623 0.93275 0.0
O318 O 0.54199 0.58237 1.00417 0.0
O319 O 0.58343 0.53883 0.93943 0.0
C320 C 0.52941 0.62256 0.76661 0.0
C321 C 0.61366 0.45076 0.69065 0.0
C322 C 0.57889 0.39377 0.72606 0.0
C323 C 0.6031 0.38452 0.82055 0.0
C324 C 0.63776 0.44133 0.78591 0.0
C325 C 0.63265 0.40816 0.84949 0.0
C326 C 0.58549 0.426 0.65905 0.0
C327 C 0.48642 0.54369 0.64494 0.0
C328 C 0.612 0.48885 0.6407 0.0
C329 C 0.67836 0.65057 0.59363 0.0
C330 C 0.65214 0.65638 0.50223 0.0
C331 C 0.5342 0.48146 0.89585 0.0
C332 C 0.40307 0.62249 1.0018 0.0
C333 C 0.39192 0.68911 1.01316 0.0
C334 C 0.3541 0.68365 0.98649 0.0
C335 C 0.36517 0.61728 0.97364 0.0
C336 C 0.41631 0.6585 1.01925 0.0
C337 C 0.34091 0.64777 0.96514 0.0
C338 C 0.57511 0.56583 1.0119 0.0
C339 C 0.42768 0.58992 1.01825 0.0
H340 H 0.59909 0.35928 0.87179 0.0
H341 H 0.65962 0.4601 0.81401 0.0
H342 H 0.65106 0.40123 0.92324 0.0
H343 H 0.56778 0.43255 0.58296 0.0
H344 H 0.33483 0.70693 0.9848 0.0
H345 H 0.35424 0.58957 0.96 0.0
H346 H 0.44528 0.66266 0.04414 0.0
H347 H 0.31168 0.64344 0.94506 0.0
Eu348 Eu 0.04812 0.59381 0.66276 0.0
C349 C 0.09834 0.44873 0.94357 0.0
N350 N 0.07386 0.45442 0.85195 0.0
C351 C 0.09343 0.39743 0.76175 0.0
C352 C 0.12178 0.41709 0.94641 0.0
C353 C 0.07086 0.42919 0.7622 0.0
C354 C 0.11901 0.39134 0.85416 0.0
C355 C 0.12703 0.47046 0.12669 0.0
C356 C 0.10067 0.47508 0.03356 0.0
C357 C 0.15017 0.43889 0.12978 0.0
C358 C 0.14743 0.41222 0.04032 0.0
Eu359 Eu 0.03499 0.50737 0.86677 0.0
N360 N 0.07839 0.50588 1.02751 0.0
C361 C 0.12978 0.49795 0.21347 0.0
C362 C 0.08027 0.5321 0.11445 0.0
C363 C 0.10623 0.52882 0.20741 0.0
H364 H 0.05012 0.43266 0.69294 0.0
H365 H 0.1079 0.55002 0.27496 0.0
H366 H 1.01054 0.66336 0.82013 0.0
H367 H 1.00534 0.54036 0.22481 0.0
H368 H 0.06173 0.5555 0.11458 0.0
H369 H 0.14978 0.49547 0.28596 0.0
H370 H 0.04945 0.55183 0.38862 0.0
H371 H 0.09079 0.37746 0.69071 0.0
H372 H 0.17042 0.4349 0.20094 0.0
H373 H 0.16557 0.38805 0.04394 0.0
H374 H 0.95598 0.70541 0.80918 0.0
H375 H 0.13643 0.36665 0.85356 0.0
H376 H 0.94453 0.57259 0.21871 0.0
N377 N 0.99677 0.63532 0.66007 0.0
C378 C 0.97328 0.63318 0.56455 0.0
C379 C 0.96042 0.68512 0.74021 0.0
C380 C 0.94159 0.65646 0.55549 0.0
C381 C 0.9911 0.66109 0.74672 0.0
C382 C 0.93548 0.68271 0.64448 0.0
N383 N 1.01165 0.58522 0.48677 0.0
C384 C 1.02215 0.56421 0.39218 0.0
C385 C 0.95499 0.60252 0.38181 0.0
C386 C 0.98018 0.60657 0.47815 0.0
C387 C 0.96336 0.57687 0.29329 0.0
C388 C 0.99764 0.55856 0.29657 0.0
H389 H 0.91147 0.70107 0.64052 0.0
H390 H 0.89176 0.66945 0.45255 0.0
H391 H 0.90327 0.622 0.30139 0.0
O392 O 0.09283 0.61078 0.54298 0.0
O393 O 0.98916 0.58131 0.7335 0.0
O394 O 0.98852 0.5186 0.72852 0.0
O395 O 0.05918 0.65231 0.6269 0.0
O396 O 0.06751 0.53683 0.5848 0.0
O397 O 1.02649 0.49649 0.67022 0.0
O398 O 0.99401 0.50032 1.00631 0.0
O399 O 0.09636 0.52011 0.82431 0.0
O400 O 0.09626 0.58329 0.79526 0.0
O401 O 1.01135 0.45276 0.90547 0.0
O402 O 1.01897 0.56461 0.9492 0.0
O403 O 0.05644 0.608 0.85804 0.0
C404 C 0.97069 0.55038 0.71504 0.0
C405 C 0.12313 0.66477 0.61327 0.0
C406 C 0.18923 0.67685 0.59089 0.0
C407 C 0.1907 0.69284 0.70385 0.0
C408 C 0.12459 0.68148 0.72608 0.0
C409 C 0.1582 0.6957 0.77037 0.0
C410 C 0.15537 0.66336 0.54561 0.0
C411 C 0.04998 0.50439 0.58548 0.0
C412 C 0.08938 0.64589 0.56902 0.0
C413 C 0.91646 0.65212 0.46021 0.0
C414 C 0.92286 0.62488 0.37465 0.0
C415 C 0.11385 0.55227 0.82586 0.0
C416 C 0.94705 0.46144 0.92804 0.0
C417 C 0.88578 0.48965 0.89925 0.0
C418 C 0.87732 0.46365 0.81084 0.0
C419 C 0.93838 0.4354 0.83912 0.0
C420 C 0.92002 0.48736 0.95987 0.0
C421 C 0.90356 0.43642 0.78166 0.0
C422 C 0.03524 0.59779 0.94686 0.0
C423 C 0.98561 0.46671 0.97179 0.0
H424 H 0.21689 0.70254 0.74072 0.0
H425 H 0.10013 0.68276 0.78134 0.0
H426 H 0.15924 0.70798 0.8578 0.0
H427 H 0.15459 0.64976 0.45984 0.0
H428 H 0.85066 0.46444 0.76478 0.0
H429 H 0.95881 0.4151 0.81131 0.0
H430 H 0.92611 0.50664 0.03113 0.0
H431 H 0.89719 0.41652 0.71276 0.0
C432 C 0.17476 0.09912 0.34498 0.0
C433 C 0.17876 0.06738 0.2732 0.0
H434 H 0.14305 0.12611 0.4826 0.0
C435 C 0.15262 0.03863 0.28632 0.0
H436 H 0.19442 0.12175 0.33793 0.0
C437 C 0.12425 0.0407 0.37033 0.0
C438 C 0.11925 0.07253 0.44 0.0
H439 H 0.15491 1.01355 0.23406 0.0
H440 H 0.10669 1.01664 0.38314 0.0
C441 C 0.14502 0.10182 0.42666 0.0
C442 C 0.571 0.19507 0.50736 0.0
C443 C 0.55515 0.19285 0.39239 0.0
H444 H 0.5811 0.16874 0.67626 0.0
C445 C 0.53537 0.16044 0.3631 0.0
H446 H 0.58647 0.21958 0.53331 0.0
C447 C 0.53275 0.13066 0.44554 0.0
C448 C 0.54921 0.13273 0.56036 0.0
H449 H 0.52307 0.15756 0.27537 0.0
H450 H 0.51824 0.10571 0.41846 0.0
C451 C 0.5678 0.16581 0.59011 0.0
C452 C 0.41574 0.56006 0.38985 0.0
C453 C 0.39951 0.52466 0.37753 0.0
H454 H 0.45533 0.59403 0.48565 0.0
C455 C 0.41487 0.49521 0.44592 0.0
H456 H 0.40436 0.58355 0.34058 0.0
C457 C 0.44486 0.5009 0.52573 0.0
C458 C 0.45959 0.53661 0.54367 0.0
H459 H 0.40291 0.46766 0.43999 0.0
H460 H 0.45513 0.47763 0.57851 0.0
C461 C 0.44488 0.56607 0.47353 0.0
C462 C 1.01348 0.44736 0.324 0.0
C463 C 0.04405 0.42518 0.29033 0.0
H464 H 0.99127 0.48815 0.44236 0.0
C465 C 0.07797 0.4304 0.35284 0.0
H466 H 0.98679 0.44437 0.27913 0.0
C467 C 0.08094 0.4574 0.4447 0.0
C468 C 0.04983 0.47905 0.47853 0.0
H469 H 0.10214 0.41387 0.33064 0.0
H470 H 0.10724 0.4605 0.49163 0.0
C471 C 1.01606 0.47293 0.41753 0.0
C472 C 0.91842 0.07268 0.1023 0.0
C473 C 0.91319 0.03724 0.15326 0.0
H474 H 0.95014 0.10618 0.98005 0.0
C475 C 0.93717 1.00833 0.11776 0.0
H476 H 0.90044 0.0956 0.12646 0.0
C477 C 0.96581 1.01439 0.03599 0.0
C478 C 0.9714 0.04963 0.9853 0.0
H479 H 0.93336 0.98044 0.15216 0.0
H480 H 0.98294 0.99107 1.00956 0.0
C481 C 0.94702 0.0787 1.01862 0.0
C482 C 0.60372 0.8941 0.0569 0.0
C483 C 0.57386 0.88249 0.12828 0.0
H484 H 0.62567 0.93607 0.93958 0.0
C485 C 0.54123 0.90429 0.12716 0.0
H486 H 0.62887 0.87742 0.05313 0.0
C487 C 0.53897 0.93729 0.05873 0.0
C488 C 0.56961 0.94995 0.99233 0.0
H489 H 0.51731 0.89563 0.17798 0.0
H490 H 0.51334 0.9533 0.05926 0.0
C491 C 0.60196 0.92777 0.992 0.0
C492 C 0.64677 0.6203 0.19417 0.0
C493 C 0.66623 0.59217 0.25807 0.0
H494 H 0.60219 0.63462 0.07188 0.0
C495 C 0.65335 0.55545 0.24662 0.0
H496 H 0.65595 0.64891 0.19973 0.0
C497 C 0.6228 0.54721 0.17051 0.0
C498 C 0.60357 0.57549 0.10625 0.0
H499 H 0.66764 0.53295 0.2928 0.0
H500 H 0.6146 0.51845 0.15995 0.0
C501 C 0.61564 0.61224 0.12125 0.0
C502 C 0.05083 0.67435 0.18257 0.0
C503 C 1.01426 0.68186 0.22035 0.0
H504 H 0.08612 0.64243 0.06627 0.0
C505 C 0.98527 0.66087 0.16809 0.0
H506 H 0.07393 0.69007 0.21871 0.0
C507 C 0.99226 0.63299 0.08364 0.0
C508 C 1.02855 0.62557 0.04489 0.0
H509 H 0.95664 0.66635 0.19177 0.0
H510 H 0.96893 0.61795 0.04575 0.0
C511 C 0.05777 0.64696 0.09491 0.0
C512 C 0.92848 0.26075 0.22615 0.0
C513 C 0.96287 0.27413 0.2677 0.0
H514 H 0.88284 0.22422 0.25978 0.0
C515 C 0.97402 0.26706 0.3856 0.0
H516 H 0.91951 0.26598 0.13532 0.0
C517 C 0.95335 0.24297 0.45608 0.0
C518 C 0.92113 0.22626 0.40965 0.0
H519 H 1.0006 0.27695 0.41898 0.0
H520 H 0.96422 0.23482 0.54269 0.0
C521 C 0.90752 0.23707 0.29729 0.0
C522 C 0.32665 0.97161 0.36712 0.0
C523 C 0.32487 0.96955 0.24275 0.0
H524 H 0.35751 0.95578 0.52318 0.0
C525 C 0.34358 0.94039 0.18557 0.0
H526 H 0.31234 0.99365 0.4136 0.0
C527 C 0.36955 0.91873 0.24859 0.0
C528 C 0.37663 0.92613 0.36878 0.0
H529 H 0.34216 0.93797 0.08977 0.0
H530 H 0.38771 0.90032 0.1998 0.0
C531 C 0.35259 0.94996 0.43002 0.0
C532 C 0.54102 0.31437 0.56398 0.0
C533 C 0.51353 0.33342 0.49632 0.0
H534 H 0.58351 0.31912 0.69666 0.0
C535 C 0.49868 0.36662 0.54012 0.0
H536 H 0.55284 0.28834 0.5342 0.0
C537 C 0.51619 0.38401 0.63564 0.0
C538 C 0.54915 0.36866 0.68493 0.0
H539 H 0.47668 0.38122 0.4922 0.0
H540 H 0.50754 0.41201 0.65773 0.0
C541 C 0.55873 0.33196 0.65837 0.0
C542 C 0.26602 0.6192 0.4769 0.0
C543 C 0.26437 0.62982 0.35663 0.0
H544 H 0.24331 0.62756 0.64969 0.0
C545 C 0.24639 0.66322 0.32417 0.0
H546 H 0.27977 0.5936 0.50423 0.0
C547 C 0.22557 0.68253 0.40732 0.0
C548 C 0.22297 0.66881 0.5237 0.0
H549 H 0.24543 0.67233 0.23225 0.0
H550 H 0.20826 0.70565 0.37772 0.0
C551 C 0.24538 0.63873 0.56035 0.0
C552 C 0.06071 0.81633 1.01197 0.0
C553 C 0.03144 0.83468 0.06996 0.0
H554 H 0.10405 0.82173 0.88505 0.0
C555 C 1.01509 0.86622 1.01756 0.0
H556 H 0.07348 0.79156 0.05015 0.0
C557 C 0.032 0.88279 0.92027 0.0
C558 C 0.0662 0.86875 0.87939 0.0
H559 H 0.99202 0.88026 0.05959 0.0
H560 H 1.02198 0.90986 0.89126 0.0
C561 C 0.07809 0.83338 0.91634 0.0
C562 C 0.73495 0.92805 0.27224 0.0
C563 C 0.75441 0.95576 0.21038 0.0
H564 H 0.68137 0.91357 0.33525 0.0
C565 C 0.73749 0.97025 0.10702 0.0
H566 H 0.74829 0.91387 0.3467 0.0
C567 C 0.69864 0.97012 0.09801 0.0
C568 C 0.6776 0.95409 0.18993 0.0
H569 H 0.75272 0.98893 0.04952 0.0
H570 H 0.68546 0.98622 1.02761 0.0
C571 C 0.696 0.92875 0.26727 0.0
C572 C 0.41739 0.75786 0.23963 0.0
C573 C 0.45324 0.7668 0.20031 0.0
H574 H 0.36811 0.7264 0.20496 0.0
C575 C 0.46276 0.75996 0.08189 0.0
H576 H 0.40936 0.76353 0.33018 0.0
C577 C 0.43912 0.73897 1.01018 0.0
C578 C 0.40588 0.72487 0.05664 0.0
H579 H 0.4902 0.76684 0.04941 0.0
H580 H 0.44894 0.72975 0.92457 0.0
C581 C 0.39364 0.73707 0.16757 0.0
C582 C 0.85388 0.57155 0.06561 0.0
C583 C 0.82281 0.55578 0.11997 0.0
H584 H 0.8975 0.56325 0.94148 0.0
C585 C 0.80609 0.52409 0.0705 0.0
H586 H 0.86675 0.59632 0.1016 0.0
C587 C 0.82401 0.50476 0.98082 0.0
C588 C 0.85852 0.51727 0.94031 0.0
H589 H 0.78183 0.5117 0.11093 0.0
H590 H 0.81351 0.47769 0.95566 0.0
C591 C 0.87122 0.55273 0.97382 0.0
C592 C 1.01237 0.22858 0.85306 0.0
C593 C 0.04118 0.2423 0.92783 0.0
H594 H 0.99142 0.1839 0.74509 0.0
C595 C 0.07426 0.22113 0.93433 0.0
H596 H 0.98624 0.24367 0.84577 0.0
C597 C 0.07727 0.18653 0.87521 0.0
C598 C 0.04717 0.17126 0.8093 0.0
H599 H 0.09697 0.23004 0.9914 0.0
H600 H 0.10298 0.17113 0.88469 0.0
C601 C 1.01523 0.19386 0.79537 0.0
C602 C 0.3794 0.0583 0.87873 0.0
C603 C 0.37375 0.06998 0.99627 0.0
H604 H 0.41835 0.04616 0.74103 0.0
C605 C 0.40514 0.08246 0.06087 0.0
H606 H 0.35628 0.04714 0.82775 0.0
C607 C 0.44119 0.08136 1.01191 0.0
C608 C 0.44717 0.06733 0.89688 0.0
H609 H 0.40222 0.09025 0.15305 0.0
H610 H 0.46463 0.08942 0.06729 0.0
C611 C 0.41536 0.05716 0.82969 0.0
C612 C 0.50357 0.38264 0.98765 0.0
C613 C 0.52948 0.37327 0.07809 0.0
H614 H 0.48445 0.42376 0.86027 0.0
C615 C 0.55817 0.39899 0.10206 0.0
H616 H 0.48053 0.36419 0.96858 0.0
C617 C 0.56044 0.43314 0.04007 0.0
C618 C 0.53365 0.44327 0.95321 0.0
H619 H 0.57818 0.39324 0.17266 0.0
H620 H 0.58241 0.45235 0.06391 0.0
C621 C 0.50558 0.41712 0.9265 0.0
C622 C 0.20594 0.59252 0.94542 0.0
C623 C 0.22457 0.5614 0.99648 0.0
H624 H 0.15746 0.61434 0.85561 0.0
C625 C 0.20839 0.52626 0.9769 0.0
H626 H 0.21741 0.62013 0.95638 0.0
C627 C 0.17373 0.52287 0.91563 0.0
C628 C 0.1535 0.55452 0.87499 0.0
H629 H 0.22144 0.50154 1.01429 0.0
H630 H 0.16231 0.49541 0.9035 0.0
C631 C 0.17115 0.58922 0.88728 0.0
C632 C 0.07194 0.90116 0.46397 0.0
C633 C 0.04266 0.87601 0.48799 0.0
H634 H 0.09726 0.95442 0.49691 0.0
C635 C 1.01713 0.88681 0.57586 0.0
H636 H 0.09199 0.8945 0.39615 0.0
C637 C 1.01984 0.92197 0.63261 0.0
C638 C 0.04823 0.94766 0.60443 0.0
H639 H 0.9937 0.86906 0.59577 0.0
H640 H 0.99887 0.92955 0.69636 0.0
C641 C 0.07485 0.93594 0.5215 0.0
C642 C 0.6946 0.06213 0.44446 0.0
C643 C 0.72814 0.05002 0.49973 0.0
H644 H 0.63502 0.06862 0.45587 0.0
C645 C 0.72604 0.03798 0.61881 0.0
H646 H 0.69452 0.06981 0.35124 0.0
C647 C 0.69163 0.03653 0.67842 0.0
C648 C 0.65787 0.04681 0.62105 0.0
H649 H 0.75059 1.02654 0.66272 0.0
H650 H 0.69131 1.02491 0.76719 0.0
C651 C 0.66014 0.06049 0.50376 0.0
C652 C 0.5576 0.7121 0.59885 0.0
C653 C 0.52281 0.72734 0.56469 0.0
H654 H 0.58713 0.66908 0.69551 0.0
C655 C 0.49082 0.71088 0.6154 0.0
H656 H 0.58305 0.72381 0.56435 0.0
C657 C 0.49308 0.67817 0.68475 0.0
C658 C 0.52757 0.66099 0.71001 0.0
H659 H 0.4634 0.72234 0.5969 0.0
H660 H 0.46744 0.66559 0.71463 0.0
C661 C 0.55988 0.67989 0.67204 0.0
C662 C 0.87199 0.5852 0.62311 0.0
C663 C 0.8598 0.55749 0.54377 0.0
H664 H 0.91575 0.60464 0.74029 0.0
C665 C 0.8829 0.52572 0.53289 0.0
H666 H 0.85562 0.61032 0.63321 0.0
C667 C 0.91762 0.52272 0.59269 0.0
C668 C 0.93111 0.55156 0.66514 0.0
H669 H 0.87491 0.50378 0.47242 0.0
H670 H 0.93476 0.49841 0.57721 0.0
C671 C 0.90698 0.58221 0.68293 0.0
loop_
_geom_bond_atom_site_label_1
_geom_bond_atom_site_label_2
_geom_bond_distance
_geom_bond_site_symmetry_2
_ccdc_geom_bond_type
H0 C5 0.930 . S
H1 C8 0.930 . S
H2 C10 0.930 . S
H3 C4 1.016 . S
C4 H3 1.016 . S
C4 N11 1.286 . S
C5 H0 0.930 . S
C5 C6 1.397 . S
C5 C7 1.361 . S
C6 C5 1.397 . S
C6 C10 1.390 . S
C7 C5 1.361 . S
C7 C8 1.393 . S
C7 N11 1.413 . S
C8 H1 0.930 . S
C8 C7 1.393 . S
C8 C9 1.399 . S
C9 C8 1.399 . S
C9 C10 1.381 . S
C10 H2 0.930 . S
C10 C6 1.390 . S
C10 C9 1.381 . S
N11 C4 1.286 . S
N11 C7 1.413 . S
H12 C17 0.930 . S
H13 C20 0.930 . S
H14 C22 0.930 . S
H15 C16 1.016 . S
C16 H15 1.016 . S
C16 N23 1.276 1_655 S
C17 H12 0.930 . S
C17 C18 1.397 . S
C17 C19 1.361 . S
C18 C17 1.397 . S
C18 C22 1.390 . S
C19 C17 1.361 . S
C19 C20 1.393 . S
C19 N23 1.410 1_655 S
C20 H13 0.930 . S
C20 C19 1.393 . S
C20 C21 1.399 . S
C21 C20 1.399 . S
C21 C22 1.381 . S
C22 H14 0.930 . S
C22 C18 1.390 . S
C22 C21 1.381 . S
N23 C16 1.276 1_455 S
N23 C19 1.410 1_455 S
H24 C29 0.930 1_545 S
H25 C32 0.930 . S
H26 C34 0.930 . S
H27 C28 1.016 . S
C28 H27 1.016 . S
C28 N35 1.286 1_565 S
C29 H24 0.930 1_565 S
C29 C30 1.397 . S
C29 C31 1.361 . S
C30 C29 1.397 . S
C30 C34 1.390 . S
C31 C29 1.361 . S
C31 C32 1.393 . S
C31 N35 1.413 1_565 S
C32 H25 0.930 . S
C32 C31 1.393 . S
C32 C33 1.399 . S
C33 C32 1.399 . S
C33 C34 1.381 . S
C34 H26 0.930 . S
C34 C30 1.390 . S
C34 C33 1.381 . S
N35 C28 1.286 1_545 S
N35 C31 1.413 1_545 S
H36 C41 0.930 . S
H37 C44 0.930 . S
H38 C46 0.930 . S
H39 C40 1.016 . S
C40 H39 1.016 . S
C40 N47 1.286 . S
C41 H36 0.930 . S
C41 C42 1.397 . S
C41 C43 1.361 . S
C42 C41 1.397 . S
C42 C46 1.390 . S
C43 C41 1.361 . S
C43 C44 1.393 . S
C43 N47 1.413 . S
C44 H37 0.930 . S
C44 C43 1.393 . S
C44 C45 1.399 . S
C45 C44 1.399 . S
C45 C46 1.381 . S
C46 H38 0.930 . S
C46 C42 1.390 . S
C46 C45 1.381 . S
N47 C40 1.286 . S
N47 C43 1.413 . S
H48 C53 0.930 . S
H49 C56 0.930 . S
H50 C58 0.930 . S
H51 C52 1.016 . S
C52 H51 1.016 . S
C52 N59 1.286 . S
C53 H48 0.930 . S
C53 C54 1.397 . S
C53 C55 1.361 1_556 S
C54 C53 1.397 . S
C54 C58 1.390 1_556 S
C55 C53 1.361 1_554 S
C55 C56 1.393 . S
C55 N59 1.413 . S
C56 H49 0.930 . S
C56 C55 1.393 . S
C56 C57 1.399 . S
C57 C56 1.399 . S
C57 C58 1.381 . S
C58 H50 0.930 . S
C58 C54 1.390 1_554 S
C58 C57 1.381 . S
N59 C52 1.286 . S
N59 C55 1.413 . S
H60 C65 0.930 . S
H61 C68 0.930 . S
H62 C70 0.930 . S
H63 C64 1.016 . S
C64 H63 1.016 . S
C64 N71 1.286 . S
C65 H60 0.930 . S
C65 C66 1.397 . S
C65 C67 1.361 1_556 S
C66 C65 1.397 . S
C66 C70 1.390 1_556 S
C67 C65 1.361 1_554 S
C67 C68 1.393 . S
C67 N71 1.413 . S
C68 H61 0.930 . S
C68 C67 1.393 . S
C68 C69 1.399 . S
C69 C68 1.399 . S
C69 C70 1.381 . S
C70 H62 0.930 . S
C70 C66 1.390 1_554 S
C70 C69 1.381 . S
N71 C64 1.286 . S
N71 C67 1.413 . S
H72 C77 0.930 . S
H73 C80 0.930 . S
H74 C82 0.930 . S
H75 C76 1.016 . S
C76 H75 1.016 . S
C76 N83 1.286 . S
C77 H72 0.930 . S
C77 C78 1.397 . S
C77 C79 1.361 1_556 S
C78 C77 1.397 . S
C78 C82 1.390 1_556 S
C79 C77 1.361 1_554 S
C79 C80 1.393 . S
C79 N83 1.413 . S
C80 H73 0.930 . S
C80 C79 1.393 . S
C80 C81 1.399 . S
C81 C80 1.399 . S
C81 C82 1.381 . S
C82 H74 0.930 . S
C82 C78 1.390 1_554 S
C82 C81 1.381 . S
N83 C76 1.286 . S
N83 C79 1.413 . S
H84 C89 0.930 . S
H85 C92 0.930 . S
H86 C94 0.930 . S
H87 C88 1.016 . S
C88 H87 1.016 . S
C88 N95 1.286 . S
C89 H84 0.930 . S
C89 C90 1.397 . S
C89 C91 1.361 1_556 S
C90 C89 1.397 . S
C90 C94 1.390 1_556 S
C91 C89 1.361 1_554 S
C91 C92 1.393 . S
C91 N95 1.413 . S
C92 H85 0.930 . S
C92 C91 1.393 . S
C92 C93 1.399 . S
C93 C92 1.399 . S
C93 C94 1.381 . S
C94 H86 0.930 . S
C94 C90 1.390 1_554 S
C94 C93 1.381 . S
N95 C88 1.286 . S
N95 C91 1.413 . S
Eu96 N125 2.600 . S
Eu96 N131 2.562 . S
Eu96 O140 2.462 . S
Eu96 O141 2.373 1_545 S
Eu96 O143 2.432 . S
Eu96 O144 2.291 1_655 S
Eu96 O148 2.335 1_655 S
Eu96 O151 2.372 . S
Eu96 C160 2.787 . S
C97 N98 1.365 1_554 S
C97 C100 1.405 . S
C97 C104 1.448 . S
N98 C97 1.365 1_556 S
N98 C101 1.319 . S
N98 Eu107 2.600 1_545 S
C99 C101 1.397 . S
C99 C102 1.367 . S
C99 H119 0.931 . S
C100 C97 1.405 . S
C100 C102 1.403 1_554 S
C100 C106 1.439 . S
C101 N98 1.319 . S
C101 C99 1.397 . S
C101 H112 0.930 1_545 S
C102 C99 1.367 . S
C102 C100 1.403 1_556 S
C102 H123 0.929 1_556 S
C103 C104 1.430 . S
C103 C105 1.387 . S
C103 C109 1.404 . S
C104 C97 1.448 . S
C104 C103 1.430 . S
C104 N108 1.351 . S
C105 C103 1.387 . S
C105 C106 1.374 . S
C105 H120 0.931 . S
C106 C100 1.439 . S
C106 C105 1.374 . S
C106 H121 0.931 . S
Eu107 N98 2.600 1_565 S
Eu107 N108 2.562 1_566 S
Eu107 O142 2.335 . S
Eu107 O145 2.372 . S
Eu107 O146 2.462 . S
Eu107 O147 2.373 1_565 S
Eu107 O149 2.432 . S
Eu107 O150 2.291 1_465 S
Eu107 C171 2.787 . S
N108 C104 1.351 . S
N108 Eu107 2.562 1_544 S
N108 C110 1.325 . S
C109 C103 1.404 . S
C109 C111 1.366 . S
C109 H117 0.930 . S
C110 N108 1.325 . S
C110 C111 1.416 . S
C110 H116 0.955 . S
C111 C109 1.366 . S
C111 C110 1.416 . S
C111 H113 0.930 . S
H112 C101 0.930 1_565 S
H113 C111 0.930 . S
H114 C129 0.930 . S
H115 C136 0.930 1_455 S
H116 C110 0.955 . S
H117 C109 0.930 . S
H118 C132 0.929 1_455 S
H119 C99 0.931 . S
H120 C105 0.931 . S
H121 C106 0.931 . S
H122 C127 0.931 . S
H123 C102 0.929 1_554 S
H124 C135 0.930 . S
N125 Eu96 2.600 . S
N125 C126 1.365 1_545 S
N125 C129 1.319 . S
C126 N125 1.365 1_565 S
C126 C128 1.405 . S
C126 C134 1.448 . S
C127 H122 0.931 . S
C127 C129 1.397 . S
C127 C130 1.367 1_545 S
C128 C126 1.405 . S
C128 C130 1.403 . S
C128 C161 1.439 . S
C129 H114 0.930 . S
C129 N125 1.319 . S
C129 C127 1.397 . S
C130 C127 1.367 1_565 S
C130 C128 1.403 . S
C130 H137 0.929 . S
N131 Eu96 2.562 . S
N131 C132 1.325 . S
N131 C134 1.351 1_545 S
C132 H118 0.929 1_655 S
C132 N131 1.325 . S
C132 C136 1.416 1_545 S
C133 C134 1.430 . S
C133 C135 1.404 . S
C133 C162 1.387 . S
C134 C126 1.448 . S
C134 N131 1.351 1_565 S
C134 C133 1.430 . S
C135 H124 0.930 . S
C135 C133 1.404 . S
C135 C136 1.366 . S
C136 H115 0.930 1_655 S
C136 C132 1.416 1_565 S
C136 C135 1.366 . S
H137 C130 0.929 . S
H138 C161 0.931 . S
H139 C162 0.931 . S
O140 Eu96 2.462 . S
O140 C160 1.252 . S
O141 Eu96 2.373 1_565 S
O141 C152 1.249 . S
O142 Eu107 2.335 . S
O142 C152 1.264 1_455 S
O143 Eu96 2.432 . S
O143 C160 1.268 . S
O144 Eu96 2.291 1_455 S
O144 C159 1.255 . S
O145 Eu107 2.372 . S
O145 C159 1.257 1_565 S
O146 Eu107 2.462 . S
O146 C171 1.252 . S
O147 Eu107 2.373 1_545 S
O147 C163 1.249 . S
O148 Eu96 2.335 1_455 S
O148 C163 1.264 . S
O149 Eu107 2.432 . S
O149 C171 1.268 . S
O150 Eu107 2.291 1_645 S
O150 C170 1.255 . S
O151 Eu96 2.372 . S
O151 C170 1.257 . S
C152 O141 1.249 . S
C152 O142 1.264 1_655 S
C153 C156 1.382 . S
C153 C158 1.390 . S
C153 C160 1.506 . S
C154 C155 1.398 . S
C154 C158 1.392 . S
C155 C154 1.398 . S
C155 C157 1.372 . S
C155 H172 0.931 . S
C156 C153 1.382 . S
C156 C157 1.390 . S
C156 H173 0.931 . S
C157 C155 1.372 . S
C157 C156 1.390 . S
C157 H174 0.929 . S
C158 C153 1.390 . S
C158 C154 1.392 . S
C158 H175 0.930 1_655 S
C159 O144 1.255 . S
C159 O145 1.257 1_545 S
C160 Eu96 2.787 . S
C160 O140 1.252 . S
C160 O143 1.268 . S
C160 C153 1.506 . S
C161 C128 1.439 . S
C161 H138 0.931 . S
C161 C162 1.374 . S
C162 C133 1.387 . S
C162 H139 0.931 . S
C162 C161 1.374 . S
C163 O147 1.249 . S
C163 O148 1.264 . S
C164 C167 1.382 . S
C164 C168 1.390 . S
C164 C171 1.506 1_554 S
C165 C166 1.398 . S
C165 C168 1.392 . S
C166 C165 1.398 . S
C166 C169 1.372 . S
C166 H176 0.931 . S
C167 C164 1.382 . S
C167 C169 1.390 . S
C167 H177 0.931 1_554 S
C168 C164 1.390 . S
C168 C165 1.392 . S
C168 H178 0.930 . S
C169 C166 1.372 . S
C169 C167 1.390 . S
C169 H179 0.929 . S
C170 O150 1.255 . S
C170 O151 1.257 . S
C171 Eu107 2.787 . S
C171 O146 1.252 . S
C171 O149 1.268 . S
C171 C164 1.506 1_556 S
H172 C155 0.931 . S
H173 C156 0.931 . S
H174 C157 0.929 . S
H175 C158 0.930 1_455 S
H176 C166 0.931 . S
H177 C167 0.931 1_556 S
H178 C168 0.930 . S
H179 C169 0.929 . S
Eu180 N209 2.600 . S
Eu180 N215 2.562 . S
Eu180 O224 2.462 . S
Eu180 O225 2.373 . S
Eu180 O227 2.432 1_556 S
Eu180 O228 2.291 . S
Eu180 O232 2.335 1_545 S
Eu180 O235 2.372 . S
Eu180 C244 2.787 1_556 S
C181 N182 1.365 . S
C181 C184 1.405 . S
C181 C188 1.448 . S
N182 C181 1.365 . S
N182 C185 1.319 . S
N182 Eu191 2.600 . S
C183 C185 1.397 . S
C183 C186 1.367 . S
C183 H203 0.931 . S
C184 C181 1.405 . S
C184 C186 1.403 . S
C184 C190 1.439 . S
C185 N182 1.319 . S
C185 C183 1.397 . S
C185 H196 0.930 . S
C186 C183 1.367 . S
C186 C184 1.403 . S
C186 H207 0.929 . S
C187 C188 1.430 . S
C187 C189 1.387 . S
C187 C193 1.404 . S
C188 C181 1.448 . S
C188 C187 1.430 . S
C188 N192 1.351 . S
C189 C187 1.387 . S
C189 C190 1.374 . S
C189 H204 0.931 . S
C190 C184 1.439 . S
C190 C189 1.374 . S
C190 H205 0.931 . S
Eu191 N182 2.600 . S
Eu191 N192 2.562 . S
Eu191 O226 2.335 1_565 S
Eu191 O229 2.372 . S
Eu191 O230 2.462 . S
Eu191 O231 2.373 . S
Eu191 O233 2.432 . S
Eu191 O234 2.291 1_565 S
Eu191 C255 2.787 . S
N192 C188 1.351 . S
N192 Eu191 2.562 . S
N192 C194 1.325 . S
C193 C187 1.404 . S
C193 C195 1.366 . S
C193 H201 0.930 . S
C194 N192 1.325 . S
C194 C195 1.416 . S
C194 H200 0.929 . S
C195 C193 1.366 . S
C195 C194 1.416 . S
C195 H197 0.930 . S
H196 C185 0.930 . S
H197 C195 0.930 . S
H198 C213 0.930 . S
H199 C220 0.930 . S
H200 C194 0.929 . S
H201 C193 0.930 . S
H202 C216 0.929 . S
H203 C183 0.931 . S
H204 C189 0.931 . S
H205 C190 0.931 . S
H206 C211 0.931 . S
H207 C186 0.929 . S
H208 C219 0.930 . S
N209 Eu180 2.600 . S
N209 C210 1.365 . S
N209 C213 1.319 1_556 S
C210 N209 1.365 . S
C210 C212 1.405 . S
C210 C218 1.448 . S
C211 H206 0.931 . S
C211 C213 1.397 . S
C211 C214 1.370 . S
C212 C210 1.405 . S
C212 C214 1.398 1_556 S
C212 C245 1.439 . S
C213 H198 0.930 . S
C213 N209 1.319 1_554 S
C213 C211 1.397 . S
C214 C211 1.370 . S
C214 C212 1.398 1_554 S
C214 H221 0.932 . S
N215 Eu180 2.562 . S
N215 C216 1.325 . S
N215 C218 1.351 . S
C216 H202 0.929 . S
C216 N215 1.325 . S
C216 C220 1.416 . S
C217 C218 1.430 . S
C217 C219 1.404 . S
C217 C246 1.387 . S
C218 C210 1.448 . S
C218 N215 1.351 . S
C218 C217 1.430 . S
C219 H208 0.930 . S
C219 C217 1.404 . S
C219 C220 1.366 . S
C220 H199 0.930 . S
C220 C216 1.416 . S
C220 C219 1.366 . S
H221 C214 0.932 . S
H222 C245 0.931 . S
H223 C246 0.931 . S
O224 Eu180 2.462 . S
O224 C244 1.252 1_556 S
O225 Eu180 2.373 . S
O225 C236 1.249 . S
O226 Eu191 2.335 1_545 S
O226 C236 1.264 . S
O227 Eu180 2.432 1_554 S
O227 C244 1.268 . S
O228 Eu180 2.291 . S
O228 C243 1.270 . S
O229 Eu191 2.372 . S
O229 C243 1.247 1_565 S
O230 Eu191 2.462 . S
O230 C255 1.252 . S
O231 Eu191 2.373 . S
O231 C247 1.249 . S
O232 Eu180 2.335 1_565 S
O232 C247 1.264 . S
O233 Eu191 2.432 . S
O233 C255 1.268 . S
O234 Eu191 2.291 1_545 S
O234 C254 1.255 . S
O235 Eu180 2.372 . S
O235 C254 1.257 . S
C236 O225 1.249 . S
C236 O226 1.264 . S
C237 C240 1.382 . S
C237 C242 1.390 . S
C237 C244 1.506 . S
C238 C239 1.398 . S
C238 C242 1.392 . S
C239 C238 1.398 . S
C239 C241 1.372 . S
C239 H256 0.931 . S
C240 C237 1.382 . S
C240 C241 1.390 . S
C240 H257 0.931 . S
C241 C239 1.372 . S
C241 C240 1.390 . S
C241 H258 0.929 . S
C242 C237 1.390 . S
C242 C238 1.392 . S
C242 H259 0.930 . S
C243 O228 1.270 . S
C243 O229 1.247 1_545 S
C244 Eu180 2.787 1_554 S
C244 O224 1.252 1_554 S
C244 O227 1.268 . S
C244 C237 1.506 . S
C245 C212 1.439 . S
C245 H222 0.931 . S
C245 C246 1.374 . S
C246 C217 1.387 . S
C246 H223 0.931 . S
C246 C245 1.374 . S
C247 O231 1.249 . S
C247 O232 1.264 . S
C248 C251 1.382 . S
C248 C252 1.390 . S
C248 C255 1.506 . S
C249 C250 1.398 . S
C249 C252 1.392 . S
C250 C249 1.398 . S
C250 C253 1.372 . S
C250 H260 0.931 . S
C251 C248 1.382 . S
C251 C253 1.390 . S
C251 H261 0.931 . S
C252 C248 1.390 . S
C252 C249 1.392 . S
C252 H262 0.930 1_565 S
C253 C250 1.372 . S
C253 C251 1.390 . S
C253 H263 0.929 . S
C254 O234 1.255 . S
C254 O235 1.257 . S
C255 Eu191 2.787 . S
C255 O230 1.252 . S
C255 O233 1.268 . S
C255 C248 1.506 . S
H256 C239 0.931 . S
H257 C240 0.931 . S
H258 C241 0.929 . S
H259 C242 0.930 . S
H260 C250 0.931 . S
H261 C251 0.931 . S
H262 C252 0.930 1_545 S
H263 C253 0.929 . S
Eu264 N293 2.600 . S
Eu264 N299 2.562 . S
Eu264 O308 2.462 . S
Eu264 O309 2.373 . S
Eu264 O311 2.432 . S
Eu264 O312 2.291 . S
Eu264 O316 2.335 . S
Eu264 O319 2.372 . S
Eu264 C328 2.787 . S
C265 N266 1.365 1_554 S
C265 C268 1.405 . S
C265 C272 1.448 . S
N266 C265 1.365 1_556 S
N266 C269 1.319 . S
N266 Eu275 2.600 . S
C267 C269 1.397 . S
C267 C270 1.367 . S
C267 H287 0.931 . S
C268 C265 1.405 . S
C268 C270 1.403 1_554 S
C268 C274 1.439 . S
C269 N266 1.319 . S
C269 C267 1.397 . S
C269 H280 0.930 . S
C270 C267 1.367 . S
C270 C268 1.403 1_556 S
C270 H291 0.927 1_556 S
C271 C272 1.430 . S
C271 C273 1.387 . S
C271 C277 1.404 . S
C272 C265 1.448 . S
C272 C271 1.430 . S
C272 N276 1.351 . S
C273 C271 1.387 . S
C273 C274 1.374 . S
C273 H288 0.931 . S
C274 C268 1.439 . S
C274 C273 1.374 . S
C274 H289 0.931 . S
Eu275 N266 2.600 . S
Eu275 N276 2.562 1_556 S
Eu275 O310 2.335 . S
Eu275 O313 2.372 . S
Eu275 O314 2.462 . S
Eu275 O315 2.373 . S
Eu275 O317 2.432 . S
Eu275 O318 2.291 . S
Eu275 C339 2.787 . S
N276 C272 1.351 . S
N276 Eu275 2.562 1_554 S
N276 C278 1.325 . S
C277 C271 1.404 . S
C277 C279 1.366 . S
C277 H285 0.930 . S
C278 N276 1.325 . S
C278 C279 1.416 . S
C278 H284 0.929 . S
C279 C277 1.366 . S
C279 C278 1.416 . S
C279 H281 0.930 . S
H280 C269 0.930 . S
H281 C279 0.930 . S
H282 C297 0.930 . S
H283 C304 0.930 . S
H284 C278 0.929 . S
H285 C277 0.930 . S
H286 C300 0.929 . S
H287 C267 0.931 . S
H288 C273 0.931 . S
H289 C274 0.931 . S
H290 C295 0.931 . S
H291 C270 0.927 1_554 S
H292 C303 0.930 . S
N293 Eu264 2.600 . S
N293 C294 1.365 . S
N293 C297 1.319 . S
C294 N293 1.365 . S
C294 C296 1.405 . S
C294 C302 1.448 . S
C295 H290 0.931 . S
C295 C297 1.397 . S
C295 C298 1.367 . S
C296 C294 1.405 . S
C296 C298 1.403 . S
C296 C329 1.439 . S
C297 H282 0.930 . S
C297 N293 1.319 . S
C297 C295 1.397 . S
C298 C295 1.367 . S
C298 C296 1.403 . S
C298 H305 0.929 . S
N299 Eu264 2.562 . S
N299 C300 1.325 . S
N299 C302 1.351 . S
C300 H286 0.929 . S
C300 N299 1.325 . S
C300 C304 1.416 . S
C301 C302 1.430 . S
C301 C303 1.404 . S
C301 C330 1.387 . S
C302 C294 1.448 . S
C302 N299 1.351 . S
C302 C301 1.430 . S
C303 H292 0.930 . S
C303 C301 1.404 . S
C303 C304 1.366 . S
C304 H283 0.930 . S
C304 C300 1.416 . S
C304 C303 1.366 . S
H305 C298 0.929 . S
H306 C329 0.931 . S
H307 C330 0.931 . S
O308 Eu264 2.462 . S
O308 C328 1.252 . S
O309 Eu264 2.373 . S
O309 C320 1.249 . S
O310 Eu275 2.335 . S
O310 C320 1.264 . S
O311 Eu264 2.432 . S
O311 C328 1.268 . S
O312 Eu264 2.291 . S
O312 C327 1.255 . S
O313 Eu275 2.372 . S
O313 C327 1.257 . S
O314 Eu275 2.462 . S
O314 C339 1.252 . S
O315 Eu275 2.373 . S
O315 C331 1.249 . S
O316 Eu264 2.335 . S
O316 C331 1.264 . S
O317 Eu275 2.432 . S
O317 C339 1.268 . S
O318 Eu275 2.291 . S
O318 C338 1.255 . S
O319 Eu264 2.372 . S
O319 C338 1.257 . S
C320 O309 1.249 . S
C320 O310 1.264 . S
C321 C324 1.382 . S
C321 C326 1.390 . S
C321 C328 1.506 . S
C322 C323 1.398 . S
C322 C326 1.392 . S
C323 C322 1.398 . S
C323 C325 1.372 . S
C323 H340 0.931 . S
C324 C321 1.382 . S
C324 C325 1.390 . S
C324 H341 0.931 . S
C325 C323 1.372 . S
C325 C324 1.390 . S
C325 H342 0.929 . S
C326 C321 1.390 . S
C326 C322 1.392 . S
C326 H343 0.930 . S
C327 O312 1.255 . S
C327 O313 1.257 . S
C328 Eu264 2.787 . S
C328 O308 1.252 . S
C328 O311 1.268 . S
C328 C321 1.506 . S
C329 C296 1.439 . S
C329 H306 0.931 . S
C329 C330 1.374 . S
C330 C301 1.387 . S
C330 H307 0.931 . S
C330 C329 1.374 . S
C331 O315 1.249 . S
C331 O316 1.264 . S
C332 C335 1.382 . S
C332 C336 1.390 . S
C332 C339 1.506 1_554 S
C333 C334 1.398 . S
C333 C336 1.392 . S
C334 C333 1.398 . S
C334 C337 1.372 . S
C334 H344 0.931 . S
C335 C332 1.382 . S
C335 C337 1.390 . S
C335 H345 0.931 1_554 S
C336 C332 1.390 . S
C336 C333 1.392 . S
C336 H346 0.930 . S
C337 C334 1.372 . S
C337 C335 1.390 . S
C337 H347 0.929 . S
C338 O318 1.255 . S
C338 O319 1.257 . S
C339 Eu275 2.787 . S
C339 O314 1.252 . S
C339 O317 1.268 . S
C339 C332 1.506 1_556 S
H340 C323 0.931 . S
H341 C324 0.931 . S
H342 C325 0.929 . S
H343 C326 0.930 . S
H344 C334 0.931 . S
H345 C335 0.931 1_556 S
H346 C336 0.930 . S
H347 C337 0.929 . S
Eu348 N377 2.600 . S
Eu348 N383 2.562 . S
Eu348 O392 2.462 . S
Eu348 O393 2.373 1_455 S
Eu348 O395 2.432 . S
Eu348 O396 2.291 . S
Eu348 O400 2.335 . S
Eu348 O403 2.372 . S
Eu348 C412 2.787 . S
C349 N350 1.365 1_554 S
C349 C352 1.405 . S
C349 C356 1.448 . S
N350 C349 1.365 1_556 S
N350 C353 1.321 . S
N350 Eu359 2.600 1_455 S
C351 C353 1.404 . S
C351 C354 1.367 . S
C351 H371 0.931 . S
C352 C349 1.405 . S
C352 C354 1.403 1_554 S
C352 C358 1.439 . S
C353 N350 1.321 . S
C353 C351 1.404 . S
C353 H364 0.920 1_455 S
C354 C351 1.367 . S
C354 C352 1.403 1_556 S
C354 H375 0.928 1_556 S
C355 C356 1.430 . S
C355 C357 1.387 . S
C355 C361 1.404 . S
C356 C349 1.448 . S
C356 C355 1.430 . S
C356 N360 1.351 . S
C357 C355 1.387 . S
C357 C358 1.374 . S
C357 H372 0.931 . S
C358 C352 1.439 . S
C358 C357 1.374 . S
C358 H373 0.931 . S
Eu359 N350 2.600 1_655 S
Eu359 N360 2.562 1_656 S
Eu359 O394 2.335 . S
Eu359 O397 2.372 . S
Eu359 O398 2.462 . S
Eu359 O399 2.373 1_655 S
Eu359 O401 2.432 . S
Eu359 O402 2.291 1_655 S
Eu359 C423 2.787 . S
N360 C356 1.351 . S
N360 Eu359 2.562 1_454 S
N360 C362 1.325 . S
C361 C355 1.404 . S
C361 C363 1.366 . S
C361 H369 0.930 . S
C362 N360 1.325 . S
C362 C363 1.416 . S
C362 H368 0.929 . S
C363 C361 1.366 . S
C363 C362 1.416 . S
C363 H365 0.930 . S
H364 C353 0.920 1_655 S
H365 C363 0.930 . S
H366 C381 0.930 . S
H367 C388 0.930 . S
H368 C362 0.929 . S
H369 C361 0.930 . S
H370 C384 0.929 . S
H371 C351 0.931 . S
H372 C357 0.931 . S
H373 C358 0.931 . S
H374 C379 0.931 . S
H375 C354 0.928 1_554 S
H376 C387 0.930 . S
N377 Eu348 2.600 . S
N377 C378 1.365 1_455 S
N377 C381 1.319 . S
C378 N377 1.365 1_655 S
C378 C380 1.405 . S
C378 C386 1.448 . S
C379 H374 0.931 . S
C379 C381 1.397 . S
C379 C382 1.367 1_455 S
C380 C378 1.405 . S
C380 C382 1.403 . S
C380 C413 1.439 . S
C381 H366 0.930 . S
C381 N377 1.319 . S
C381 C379 1.397 . S
C382 C379 1.367 1_655 S
C382 C380 1.403 . S
C382 H389 0.929 . S
N383 Eu348 2.562 . S
N383 C384 1.325 . S
N383 C386 1.351 1_455 S
C384 H370 0.929 . S
C384 N383 1.325 . S
C384 C388 1.416 1_455 S
C385 C386 1.430 . S
C385 C387 1.404 . S
C385 C414 1.387 . S
C386 C378 1.448 . S
C386 N383 1.351 1_655 S
C386 C385 1.430 . S
C387 H376 0.930 . S
C387 C385 1.404 . S
C387 C388 1.366 . S
C388 H367 0.930 . S
C388 C384 1.416 1_655 S
C388 C387 1.366 . S
H389 C382 0.929 . S
H390 C413 0.931 . S
H391 C414 0.931 . S
O392 Eu348 2.462 . S
O392 C412 1.252 . S
O393 Eu348 2.373 1_655 S
O393 C404 1.249 . S
O394 Eu359 2.335 . S
O394 C404 1.264 . S
O395 Eu348 2.432 . S
O395 C412 1.268 . S
O396 Eu348 2.291 . S
O396 C411 1.255 . S
O397 Eu359 2.372 . S
O397 C411 1.257 1_655 S
O398 Eu359 2.462 . S
O398 C423 1.252 . S
O399 Eu359 2.373 1_455 S
O399 C415 1.249 . S
O400 Eu348 2.335 . S
O400 C415 1.264 . S
O401 Eu359 2.432 . S
O401 C423 1.268 . S
O402 Eu359 2.291 1_455 S
O402 C422 1.255 . S
O403 Eu348 2.372 . S
O403 C422 1.257 . S
C404 O393 1.249 . S
C404 O394 1.264 . S
C405 C408 1.382 . S
C405 C410 1.390 . S
C405 C412 1.506 . S
C406 C407 1.398 . S
C406 C410 1.392 . S
C407 C406 1.398 . S
C407 C409 1.372 . S
C407 H424 0.931 . S
C408 C405 1.382 . S
C408 C409 1.390 . S
C408 H425 0.931 . S
C409 C407 1.372 . S
C409 C408 1.390 . S
C409 H426 0.929 . S
C410 C405 1.390 . S
C410 C406 1.392 . S
C410 H427 0.930 . S
C411 O396 1.255 . S
C411 O397 1.257 1_455 S
C412 Eu348 2.787 . S
C412 O392 1.252 . S
C412 O395 1.268 . S
C412 C405 1.506 . S
C413 C380 1.439 . S
C413 H390 0.931 . S
C413 C414 1.374 . S
C414 C385 1.387 . S
C414 H391 0.931 . S
C414 C413 1.374 . S
C415 O399 1.249 . S
C415 O400 1.264 . S
C416 C419 1.382 . S
C416 C420 1.390 . S
C416 C423 1.506 1_554 S
C417 C418 1.398 . S
C417 C420 1.392 . S
C418 C417 1.398 . S
C418 C421 1.372 . S
C418 H428 0.931 . S
C419 C416 1.382 . S
C419 C421 1.390 . S
C419 H429 0.931 1_554 S
C420 C416 1.390 . S
C420 C417 1.392 . S
C420 H430 0.930 . S
C421 C418 1.372 . S
C421 C419 1.390 . S
C421 H431 0.929 . S
C422 O402 1.255 . S
C422 O403 1.257 . S
C423 Eu359 2.787 . S
C423 O398 1.252 . S
C423 O401 1.268 . S
C423 C416 1.506 1_556 S
H424 C407 0.931 . S
H425 C408 0.931 . S
H426 C409 0.929 . S
H427 C410 0.930 . S
H428 C418 0.931 . S
H429 C419 0.931 1_556 S
H430 C420 0.930 . S
H431 C421 0.929 . S
C432 C433 1.387 . S
C432 H436 0.950 . S
C432 C441 1.390 . S
C433 C432 1.387 . S
C433 C435 1.374 1_545 S
H434 C441 0.950 . S
C435 C433 1.374 1_565 S
C435 C437 1.392 . S
C435 H439 0.961 . S
H436 C432 0.950 . S
C437 C435 1.392 . S
C437 C438 1.387 1_565 S
C437 H440 0.950 . S
C438 C437 1.387 1_545 S
C438 C441 1.387 . S
H439 C435 0.961 . S
H440 C437 0.950 . S
C441 C432 1.390 . S
C441 H434 0.950 . S
C441 C438 1.387 . S
C442 C443 1.387 . S
C442 H446 0.950 . S
C442 C451 1.390 . S
C443 C442 1.387 . S
C443 C445 1.387 . S
H444 C451 0.950 . S
C445 C443 1.387 . S
C445 C447 1.390 . S
C445 H449 0.950 . S
H446 C442 0.950 . S
C447 C445 1.390 . S
C447 C448 1.387 . S
C447 H450 0.950 . S
C448 C447 1.387 . S
C448 C451 1.387 . S
H449 C445 0.950 . S
H450 C447 0.950 . S
C451 C442 1.390 . S
C451 H444 0.950 . S
C451 C448 1.387 . S
C452 C453 1.387 . S
C452 H456 0.950 . S
C452 C461 1.390 . S
C453 C452 1.387 . S
C453 C455 1.387 . S
H454 C461 0.950 . S
C455 C453 1.387 . S
C455 C457 1.390 . S
C455 H459 0.950 . S
H456 C452 0.950 . S
C457 C455 1.390 . S
C457 C458 1.387 . S
C457 H460 0.950 . S
C458 C457 1.387 . S
C458 C461 1.387 . S
H459 C455 0.950 . S
H460 C457 0.950 . S
C461 C452 1.390 . S
C461 H454 0.950 . S
C461 C458 1.387 . S
C462 C463 1.387 1_655 S
C462 H466 0.950 . S
C462 C471 1.390 . S
C463 C462 1.387 1_455 S
C463 C465 1.387 . S
H464 C471 0.950 . S
C465 C463 1.387 . S
C465 C467 1.390 . S
C465 H469 0.950 . S
H466 C462 0.950 . S
C467 C465 1.390 . S
C467 C468 1.387 . S
C467 H470 0.950 . S
C468 C467 1.387 . S
C468 C471 1.387 1_455 S
H469 C465 0.950 . S
H470 C467 0.950 . S
C471 C462 1.390 . S
C471 H464 0.950 . S
C471 C468 1.387 1_655 S
C472 C473 1.387 1_545 S
C472 H476 0.950 . S
C472 C481 1.390 . S
C473 C472 1.387 1_565 S
C473 C475 1.387 . S
H474 C481 0.950 . S
C475 C473 1.387 . S
C475 C477 1.390 . S
C475 H479 0.950 . S
H476 C472 0.950 . S
C477 C475 1.390 . S
C477 C478 1.397 . S
C477 H480 0.950 . S
C478 C477 1.397 . S
C478 C481 1.379 1_565 S
H479 C475 0.950 . S
H480 C477 0.950 . S
C481 C472 1.390 . S
C481 H474 0.950 . S
C481 C478 1.379 1_545 S
C482 C483 1.387 . S
C482 H486 0.950 . S
C482 C491 1.390 . S
C483 C482 1.387 . S
C483 C485 1.387 . S
H484 C491 0.950 . S
C485 C483 1.387 . S
C485 C487 1.390 . S
C485 H489 0.950 . S
H486 C482 0.950 . S
C487 C485 1.390 . S
C487 C488 1.387 . S
C487 H490 0.950 . S
C488 C487 1.387 . S
C488 C491 1.387 . S
H489 C485 0.950 . S
H490 C487 0.950 . S
C491 C482 1.390 . S
C491 H484 0.950 . S
C491 C488 1.387 . S
C492 C493 1.387 . S
C492 H496 0.950 . S
C492 C501 1.390 . S
C493 C492 1.387 . S
C493 C495 1.387 . S
H494 C501 0.950 . S
C495 C493 1.387 . S
C495 C497 1.390 . S
C495 H499 0.950 . S
H496 C492 0.950 . S
C497 C495 1.390 . S
C497 C498 1.387 . S
C497 H500 0.950 . S
C498 C497 1.387 . S
C498 C501 1.387 . S
H499 C495 0.950 . S
H500 C497 0.950 . S
C501 C492 1.390 . S
C501 H494 0.950 . S
C501 C498 1.387 . S
C502 C503 1.387 1_455 S
C502 H506 0.950 . S
C502 C511 1.390 . S
C503 C502 1.387 1_655 S
C503 C505 1.387 . S
H504 C511 0.950 . S
C505 C503 1.387 . S
C505 C507 1.390 . S
C505 H509 0.950 . S
H506 C502 0.950 . S
C507 C505 1.390 . S
C507 C508 1.387 . S
C507 H510 0.950 1_554 S
C508 C507 1.387 . S
C508 C511 1.387 1_655 S
H509 C505 0.950 . S
H510 C507 0.950 1_556 S
C511 C502 1.390 . S
C511 H504 0.950 . S
C511 C508 1.387 1_455 S
C512 C513 1.387 . S
C512 H516 0.950 . S
C512 C521 1.390 . S
C513 C512 1.387 . S
C513 C515 1.387 . S
H514 C521 0.950 . S
C515 C513 1.387 . S
C515 C517 1.383 1_455 S
C515 H519 0.950 . S
H516 C512 0.950 . S
C517 C515 1.383 1_655 S
C517 C518 1.388 . S
C517 H520 0.956 . S
C518 C517 1.388 . S
C518 C521 1.387 1_655 S
H519 C515 0.950 . S
H520 C517 0.956 . S
C521 C512 1.390 . S
C521 H514 0.950 . S
C521 C518 1.387 1_455 S
C522 C523 1.387 . S
C522 H526 0.950 . S
C522 C531 1.390 . S
C523 C522 1.387 . S
C523 C525 1.387 . S
H524 C531 0.950 . S
C525 C523 1.387 . S
C525 C527 1.390 1_545 S
C525 H529 0.950 1_545 S
H526 C522 0.950 . S
C527 C525 1.390 1_565 S
C527 C528 1.387 1_565 S
C527 H530 0.950 . S
C528 C527 1.387 1_545 S
C528 C531 1.387 . S
H529 C525 0.950 1_565 S
H530 C527 0.950 . S
C531 C522 1.390 . S
C531 H524 0.950 . S
C531 C528 1.387 . S
C532 C533 1.387 . S
C532 H536 0.950 . S
C532 C541 1.390 . S
C533 C532 1.387 . S
C533 C535 1.387 . S
H534 C541 0.950 . S
C535 C533 1.387 . S
C535 C537 1.390 . S
C535 H539 0.950 . S
H536 C532 0.950 . S
C537 C535 1.390 . S
C537 C538 1.387 . S
C537 H540 0.950 . S
C538 C537 1.387 . S
C538 C541 1.387 . S
H539 C535 0.950 . S
H540 C537 0.950 . S
C541 C532 1.390 . S
C541 H534 0.950 . S
C541 C538 1.387 . S
C542 C543 1.387 . S
C542 H546 0.950 . S
C542 C551 1.390 . S
C543 C542 1.387 . S
C543 C545 1.387 . S
H544 C551 0.950 . S
C545 C543 1.387 . S
C545 C547 1.390 . S
C545 H549 0.950 . S
H546 C542 0.950 . S
C547 C545 1.390 . S
C547 C548 1.387 . S
C547 H550 0.950 . S
C548 C547 1.387 . S
C548 C551 1.387 . S
H549 C545 0.950 . S
H550 C547 0.950 . S
C551 C542 1.390 . S
C551 H544 0.950 . S
C551 C548 1.387 . S
C552 C553 1.387 1_455 S
C552 H556 0.950 . S
C552 C561 1.390 . S
C553 C552 1.387 1_655 S
C553 C555 1.387 . S
H554 C561 0.950 . S
C555 C553 1.387 . S
C555 C557 1.390 . S
C555 H559 0.950 . S
H556 C552 0.950 . S
C557 C555 1.390 . S
C557 C558 1.387 1_655 S
C557 H560 0.950 . S
C558 C557 1.387 1_455 S
C558 C561 1.387 . S
H559 C555 0.950 . S
H560 C557 0.950 . S
C561 C552 1.390 . S
C561 H554 0.950 . S
C561 C558 1.387 . S
C562 C563 1.387 . S
C562 H566 0.950 . S
C562 C571 1.390 . S
C563 C562 1.387 . S
C563 C565 1.387 1_565 S
H564 C571 0.950 . S
C565 C563 1.387 1_545 S
C565 C567 1.390 . S
C565 H569 0.950 . S
H566 C562 0.950 . S
C567 C565 1.390 . S
C567 C568 1.387 . S
C567 H570 0.950 . S
C568 C567 1.387 . S
C568 C571 1.387 1_545 S
H569 C565 0.950 . S
H570 C567 0.950 . S
C571 C562 1.390 . S
C571 H564 0.950 . S
C571 C568 1.387 1_565 S
C572 C573 1.387 . S
C572 H576 0.950 . S
C572 C581 1.390 . S
C573 C572 1.387 . S
C573 C575 1.387 . S
H574 C581 0.950 . S
C575 C573 1.387 . S
C575 C577 1.390 . S
C575 H579 0.950 . S
H576 C572 0.950 . S
C577 C575 1.390 . S
C577 C578 1.387 . S
C577 H580 0.950 . S
C578 C577 1.387 . S
C578 C581 1.387 . S
H579 C575 0.950 . S
H580 C577 0.950 . S
C581 C572 1.390 . S
C581 H574 0.950 . S
C581 C578 1.387 . S
C582 C583 1.387 . S
C582 H586 0.950 . S
C582 C591 1.390 . S
C583 C582 1.387 . S
C583 C585 1.387 . S
H584 C591 0.950 . S
C585 C583 1.387 . S
C585 C587 1.390 . S
C585 H589 0.950 . S
H586 C582 0.950 . S
C587 C585 1.390 . S
C587 C588 1.387 . S
C587 H590 0.950 . S
C588 C587 1.387 . S
C588 C591 1.387 . S
H589 C585 0.950 . S
H590 C587 0.950 . S
C591 C582 1.390 . S
C591 H584 0.950 . S
C591 C588 1.387 . S
C592 C593 1.387 . S
C592 H596 0.950 1_455 S
C592 C601 1.390 . S
C593 C592 1.387 . S
C593 C595 1.387 . S
H594 C601 0.951 1_655 S
C595 C593 1.387 . S
C595 C597 1.390 . S
C595 H599 0.950 . S
H596 C592 0.950 1_655 S
C597 C595 1.390 . S
C597 C598 1.387 . S
C597 H600 0.950 . S
C598 C597 1.387 . S
C598 C601 1.387 . S
H599 C595 0.950 . S
H600 C597 0.950 . S
C601 C592 1.390 . S
C601 H594 0.951 1_455 S
C601 C598 1.387 . S
C602 C603 1.387 . S
C602 H606 0.950 1_556 S
C602 C611 1.390 . S
C603 C602 1.387 . S
C603 C605 1.387 . S
H604 C611 0.956 . S
C605 C603 1.387 . S
C605 C607 1.390 . S
C605 H609 0.950 . S
H606 C602 0.950 1_554 S
C607 C605 1.390 . S
C607 C608 1.387 . S
C607 H610 0.950 . S
C608 C607 1.387 . S
C608 C611 1.387 . S
H609 C605 0.950 . S
H610 C607 0.950 . S
C611 C602 1.390 . S
C611 H604 0.956 . S
C611 C608 1.387 . S
C612 C613 1.387 . S
C612 H616 0.950 1_556 S
C612 C621 1.390 . S
C613 C612 1.387 . S
C613 C615 1.387 . S
H614 C621 0.950 1_554 S
C615 C613 1.387 . S
C615 C617 1.390 . S
C615 H619 0.950 . S
H616 C612 0.950 1_554 S
C617 C615 1.390 . S
C617 C618 1.387 . S
C617 H620 0.950 . S
C618 C617 1.387 . S
C618 C621 1.387 . S
H619 C615 0.950 . S
H620 C617 0.950 . S
C621 C612 1.390 . S
C621 H614 0.950 1_556 S
C621 C618 1.387 . S
C622 C623 1.387 . S
C622 H626 0.950 1_556 S
C622 C631 1.390 . S
C623 C622 1.387 . S
C623 C625 1.387 . S
H624 C631 0.950 1_554 S
C625 C623 1.387 . S
C625 C627 1.390 . S
C625 H629 0.950 . S
H626 C622 0.950 1_554 S
C627 C625 1.390 . S
C627 C628 1.387 . S
C627 H630 0.950 . S
C628 C627 1.387 . S
C628 C631 1.387 . S
H629 C625 0.950 . S
H630 C627 0.950 . S
C631 C622 1.390 . S
C631 H624 0.950 1_556 S
C631 C628 1.387 . S
C632 C633 1.387 1_455 S
C632 H636 0.950 . S
C632 C641 1.390 . S
C633 C632 1.387 1_655 S
C633 C635 1.387 . S
H634 C641 0.950 . S
C635 C633 1.387 . S
C635 C637 1.390 . S
C635 H639 0.950 . S
H636 C632 0.950 . S
C637 C635 1.390 . S
C637 C638 1.387 . S
C637 H640 0.950 . S
C638 C637 1.387 . S
C638 C641 1.387 1_655 S
H639 C635 0.950 . S
H640 C637 0.950 . S
C641 C632 1.390 . S
C641 H634 0.950 . S
C641 C638 1.387 1_455 S
C642 C643 1.387 1_545 S
C642 H646 0.950 . S
C642 C651 1.390 . S
C643 C642 1.387 1_565 S
C643 C645 1.387 . S
H644 C651 0.950 . S
C645 C643 1.387 . S
C645 C647 1.390 . S
C645 H649 0.950 . S
H646 C642 0.950 . S
C647 C645 1.390 . S
C647 C648 1.387 . S
C647 H650 0.950 . S
C648 C647 1.387 . S
C648 C651 1.387 1_565 S
H649 C645 0.950 . S
H650 C647 0.950 . S
C651 C642 1.390 . S
C651 H644 0.950 . S
C651 C648 1.387 1_545 S
C652 C653 1.387 . S
C652 H656 0.950 . S
C652 C661 1.390 . S
C653 C652 1.387 . S
C653 C655 1.387 . S
H654 C661 0.950 . S
C655 C653 1.387 . S
C655 C657 1.390 . S
C655 H659 0.950 . S
H656 C652 0.950 . S
C657 C655 1.390 . S
C657 C658 1.387 . S
C657 H660 0.950 . S
C658 C657 1.387 . S
C658 C661 1.387 . S
H659 C655 0.950 . S
H660 C657 0.950 . S
C661 C652 1.390 . S
C661 H654 0.950 . S
C661 C658 1.387 . S
C662 C663 1.387 . S
C662 H666 0.950 . S
C662 C671 1.390 . S
C663 C662 1.387 . S
C663 C665 1.387 . S
H664 C671 0.950 . S
C665 C663 1.387 . S
C665 C667 1.390 . S
C665 H669 0.950 . S
H666 C662 0.950 . S
C667 C665 1.390 . S
C667 C668 1.387 . S
C667 H670 0.950 . S
C668 C667 1.387 . S
C668 C671 1.387 . S
H669 C665 0.950 . S
H670 C667 0.950 . S
C671 C662 1.390 . S
C671 H664 0.950 . S
C671 C668 1.387 . S
C433 C76 1.954 . S
C438 C159 2.194 . S
C448 C236 2.197 . S
C443 C88 1.950 . S
C458 C327 2.196 . S
C453 C52 1.957 . S
C468 C411 2.184 . S
C463 C64 1.949 . S
C478 C170 2.192 1_564 S
C473 C28 1.961 . S
C483 C40 1.960 . S
C488 C247 2.199 1_554 S
C493 C4 1.963 . S
C498 C338 2.195 1_554 S
C503 C16 1.952 . S
C508 C422 2.184 1_654 S
C518 C154 0.758 . S
C513 C69 0.762 . S
C528 C249 0.750 1_545 S
C523 C81 0.745 . S
C538 C322 0.764 . S
C533 C93 0.767 . S
C543 C57 0.747 . S
C548 C406 0.744 . S
C553 C21 0.755 . S
C558 C165 0.761 . S
C568 C238 0.745 . S
C563 C33 0.748 . S
C578 C333 0.763 . S
C573 C45 0.765 . S
C583 C9 0.750 . S
C588 C417 0.749 . S
C593 C66 2.042 . S
C598 C163 2.303 . S
C603 C78 2.054 . S
C608 C254 2.354 . S
C618 C331 2.317 . S
C613 C90 2.055 . S
C628 C415 2.321 . S
C623 C54 2.060 . S
C633 C18 2.042 . S
C638 C152 2.304 . S
C648 C243 2.352 1_565 S
C643 C30 2.051 . S
C658 C320 2.317 . S
C653 C42 2.051 . S
C663 C6 2.056 . S
C668 C404 2.321 . S
