# Generated by pormake.
# Topology ctn, (3,4)-cn, num edge types: 1
# Building blocks:
#     Node 0, Type 0, BuildingBlock: PAMTOO_clean_linker_0, # of connection points: 3
#     Node 1, Type 0, BuildingBlock: PAMTOO_clean_linker_0, # of connection points: 3
#     Node 2, Type 0, BuildingBlock: PAMTOO_clean_linker_0, # of connection points: 3
#     Node 3, Type 0, BuildingBlock: PAMTOO_clean_linker_0, # of connection points: 3
#     Node 4, Type 0, BuildingBlock: PAMTOO_clean_linker_0, # of connection points: 3
#     Node 5, Type 0, BuildingBlock: PAMTOO_clean_linker_0, # of connection points: 3
#     Node 6, Type 0, BuildingBlock: PAMTOO_clean_linker_0, # of connection points: 3
#     Node 7, Type 0, BuildingBlock: PAMTOO_clean_linker_0, # of connection points: 3
#     Node 8, Type 0, BuildingBlock: PAMTOO_clean_linker_0, # of connection points: 3
#     Node 9, Type 0, BuildingBlock: PAMTOO_clean_linker_0, # of connection points: 3
#     Node 10, Type 0, BuildingBlock: PAMTOO_clean_linker_0, # of connection points: 3
#     Node 11, Type 0, BuildingBlock: PAMTOO_clean_linker_0, # of connection points: 3
#     Node 12, Type 0, BuildingBlock: PAMTOO_clean_linker_0, # of connection points: 3
#     Node 13, Type 0, BuildingBlock: PAMTOO_clean_linker_0, # of connection points: 3
#     Node 14, Type 0, BuildingBlock: PAMTOO_clean_linker_0, # of connection points: 3
#     Node 15, Type 0, BuildingBlock: PAMTOO_clean_linker_0, # of connection points: 3
#     Node 16, Type 1, BuildingBlock: KUFVIS_clean_sbu_0, # of connection points: 4
#     Node 17, Type 1, BuildingBlock: KUFVIS_clean_sbu_0, # of connection points: 4
#     Node 18, Type 1, BuildingBlock: KUFVIS_clean_sbu_0, # of connection points: 4
#     Node 19, Type 1, BuildingBlock: KUFVIS_clean_sbu_0, # of connection points: 4
#     Node 20, Type 1, BuildingBlock: KUFVIS_clean_sbu_0, # of connection points: 4
#     Node 21, Type 1, BuildingBlock: KUFVIS_clean_sbu_0, # of connection points: 4
#     Node 22, Type 1, BuildingBlock: KUFVIS_clean_sbu_0, # of connection points: 4
#     Node 23, Type 1, BuildingBlock: KUFVIS_clean_sbu_0, # of connection points: 4
#     Node 24, Type 1, BuildingBlock: KUFVIS_clean_sbu_0, # of connection points: 4
#     Node 25, Type 1, BuildingBlock: KUFVIS_clean_sbu_0, # of connection points: 4
#     Node 26, Type 1, BuildingBlock: KUFVIS_clean_sbu_0, # of connection points: 4
#     Node 27, Type 1, BuildingBlock: KUFVIS_clean_sbu_0, # of connection points: 4
#     Edge 28, Type (0, 1), BuildingBlock: XUDNAN_clean_linker_2, # of connection points: 2
#     Edge 29, Type (0, 1), BuildingBlock: XUDNAN_clean_linker_2, # of connection points: 2
#     Edge 30, Type (0, 1), BuildingBlock: XUDNAN_clean_linker_2, # of connection points: 2
#     Edge 31, Type (0, 1), BuildingBlock: XUDNAN_clean_linker_2, # of connection points: 2
#     Edge 32, Type (0, 1), BuildingBlock: XUDNAN_clean_linker_2, # of connection points: 2
#     Edge 33, Type (0, 1), BuildingBlock: XUDNAN_clean_linker_2, # of connection points: 2
#     Edge 34, Type (0, 1), BuildingBlock: XUDNAN_clean_linker_2, # of connection points: 2
#     Edge 35, Type (0, 1), BuildingBlock: XUDNAN_clean_linker_2, # of connection points: 2
#     Edge 36, Type (0, 1), BuildingBlock: XUDNAN_clean_linker_2, # of connection points: 2
#     Edge 37, Type (0, 1), BuildingBlock: XUDNAN_clean_linker_2, # of connection points: 2
#     Edge 38, Type (0, 1), BuildingBlock: XUDNAN_clean_linker_2, # of connection points: 2
#     Edge 39, Type (0, 1), BuildingBlock: XUDNAN_clean_linker_2, # of connection points: 2
#     Edge 40, Type (0, 1), BuildingBlock: XUDNAN_clean_linker_2, # of connection points: 2
#     Edge 41, Type (0, 1), BuildingBlock: XUDNAN_clean_linker_2, # of connection points: 2
#     Edge 42, Type (0, 1), BuildingBlock: XUDNAN_clean_linker_2, # of connection points: 2
#     Edge 43, Type (0, 1), BuildingBlock: XUDNAN_clean_linker_2, # of connection points: 2
#     Edge 44, Type (0, 1), BuildingBlock: XUDNAN_clean_linker_2, # of connection points: 2
#     Edge 45, Type (0, 1), BuildingBlock: XUDNAN_clean_linker_2, # of connection points: 2
#     Edge 46, Type (0, 1), BuildingBlock: XUDNAN_clean_linker_2, # of connection points: 2
#     Edge 47, Type (0, 1), BuildingBlock: XUDNAN_clean_linker_2, # of connection points: 2
#     Edge 48, Type (0, 1), BuildingBlock: XUDNAN_clean_linker_2, # of connection points: 2
#     Edge 49, Type (0, 1), BuildingBlock: XUDNAN_clean_linker_2, # of connection points: 2
#     Edge 50, Type (0, 1), BuildingBlock: XUDNAN_clean_linker_2, # of connection points: 2
#     Edge 51, Type (0, 1), BuildingBlock: XUDNAN_clean_linker_2, # of connection points: 2
#     Edge 52, Type (0, 1), BuildingBlock: XUDNAN_clean_linker_2, # of connection points: 2
#     Edge 53, Type (0, 1), BuildingBlock: XUDNAN_clean_linker_2, # of connection points: 2
#     Edge 54, Type (0, 1), BuildingBlock: XUDNAN_clean_linker_2, # of connection points: 2
#     Edge 55, Type (0, 1), BuildingBlock: XUDNAN_clean_linker_2, # of connection points: 2
#     Edge 56, Type (0, 1), BuildingBlock: XUDNAN_clean_linker_2, # of connection points: 2
#     Edge 57, Type (0, 1), BuildingBlock: XUDNAN_clean_linker_2, # of connection points: 2
#     Edge 58, Type (0, 1), BuildingBlock: XUDNAN_clean_linker_2, # of connection points: 2
#     Edge 59, Type (0, 1), BuildingBlock: XUDNAN_clean_linker_2, # of connection points: 2
#     Edge 60, Type (0, 1), BuildingBlock: XUDNAN_clean_linker_2, # of connection points: 2
#     Edge 61, Type (0, 1), BuildingBlock: XUDNAN_clean_linker_2, # of connection points: 2
#     Edge 62, Type (0, 1), BuildingBlock: XUDNAN_clean_linker_2, # of connection points: 2
#     Edge 63, Type (0, 1), BuildingBlock: XUDNAN_clean_linker_2, # of connection points: 2
#     Edge 64, Type (0, 1), BuildingBlock: XUDNAN_clean_linker_2, # of connection points: 2
#     Edge 65, Type (0, 1), BuildingBlock: XUDNAN_clean_linker_2, # of connection points: 2
#     Edge 66, Type (0, 1), BuildingBlock: XUDNAN_clean_linker_2, # of connection points: 2
#     Edge 67, Type (0, 1), BuildingBlock: XUDNAN_clean_linker_2, # of connection points: 2
#     Edge 68, Type (0, 1), BuildingBlock: XUDNAN_clean_linker_2, # of connection points: 2
#     Edge 69, Type (0, 1), BuildingBlock: XUDNAN_clean_linker_2, # of connection points: 2
#     Edge 70, Type (0, 1), BuildingBlock: XUDNAN_clean_linker_2, # of connection points: 2
#     Edge 71, Type (0, 1), BuildingBlock: XUDNAN_clean_linker_2, # of connection points: 2
#     Edge 72, Type (0, 1), BuildingBlock: XUDNAN_clean_linker_2, # of connection points: 2
#     Edge 73, Type (0, 1), BuildingBlock: XUDNAN_clean_linker_2, # of connection points: 2
#     Edge 74, Type (0, 1), BuildingBlock: XUDNAN_clean_linker_2, # of connection points: 2
#     Edge 75, Type (0, 1), BuildingBlock: XUDNAN_clean_linker_2, # of connection points: 2
# Relax obj value: 0.075
# Max RMSD: 0.178
# Mean RMSD: 0.121
data_MOF--net-ctn--node1-KUFVIS_clean_sbu_0--node2-PAMTOO_clean_linker_0--edge1-XUDNAN_clean_linker_2
_symmetry_space_group_name_H-M    P1
_symmetry_Int_Tables_number       1
_symmetry_cell_setting            triclinic
loop_
_symmetry_equiv_pos_as_xyz
'x, y, z'
_cell_length_a     52.672723
_cell_length_b     52.841618
_cell_length_c     54.052939
_cell_angle_alpha  85.927959
_cell_angle_beta   92.422139
_cell_angle_gamma 98.800976
loop_
_atom_site_label
_atom_site_type_symbol
_atom_site_fract_x
_atom_site_fract_y
_atom_site_fract_z
_atom_type_partial_charge
H0 H 0.00917 0.08141 0.05721 0.0
H1 H 0.04872 0.02031 0.08828 0.0
H2 H 0.07576 0.06372 0.02228 0.0
H3 H 0.06538 1.00235 0.02835 0.0
C4 C 0.0799 1.00272 0.04397 0.0
O5 O 0.08345 0.02627 0.0543 0.0
H6 H 0.07237 0.98763 0.05832 0.0
C7 C 0.02455 0.07008 0.05669 0.0
C8 C 0.04181 0.07509 0.03711 0.0
C9 C 0.0266 0.05039 0.07539 0.0
C10 C 0.04679 0.03583 0.07447 0.0
C11 C 0.06424 0.04058 0.05517 0.0
C12 C 0.06181 0.06017 0.03674 0.0
H13 H 0.33467 0.67173 0.25872 0.0
H14 H 0.29508 0.69727 0.19255 0.0
H15 H 0.37058 0.73549 0.21211 0.0
H16 H 0.33833 0.77067 0.19224 0.0
C17 C 0.32408 0.75827 0.18089 0.0
O18 O 0.33198 0.73461 0.17967 0.0
H19 H 0.30516 0.75564 0.18994 0.0
C20 C 0.33435 0.68448 0.24211 0.0
C21 C 0.35546 0.70363 0.23735 0.0
C22 C 0.31244 0.682 0.22624 0.0
C23 C 0.31193 0.69872 0.20488 0.0
C24 C 0.33285 0.71808 0.1999 0.0
C25 C 0.35456 0.72047 0.2161 0.0
H26 H 0.97571 0.51998 0.08857 0.0
H27 H 0.95643 0.48182 0.0205 0.0
H28 H 0.01115 0.45496 0.07219 0.0
H29 H 0.02356 0.46396 0.01789 0.0
C30 C 1.00555 0.45231 0.01098 0.0
O31 O 0.98769 0.44826 0.02946 0.0
H32 H 0.99782 0.46331 0.99484 0.0
C33 C 0.97794 0.50521 0.0763 0.0
C34 C 0.9946 0.48725 0.08369 0.0
C35 C 0.96407 0.5039 0.05325 0.0
C36 C 0.9673 0.48413 0.03785 0.0
C37 C 0.98445 0.46686 0.04462 0.0
C38 C 0.99795 0.4685 0.06735 0.0
H39 H 0.70346 0.85677 0.25921 0.0
H40 H 0.67599 0.79168 0.21668 0.0
H41 H 0.75216 0.83289 0.20613 0.0
H42 H 0.72589 0.81589 0.1615 0.0
C43 C 0.71611 0.79657 0.16813 0.0
O44 O 0.71933 0.7931 0.19356 0.0
H45 H 0.69522 0.7953 0.16333 0.0
C46 C 0.7065 0.84395 0.24516 0.0
C47 C 0.72991 0.84759 0.23303 0.0
C48 C 0.68686 0.82408 0.23924 0.0
C49 C 0.69083 0.80745 0.22106 0.0
C50 C 0.7145 0.81052 0.20927 0.0
C51 C 0.73385 0.83077 0.21508 0.0
H52 H 0.10731 0.97739 0.52979 0.0
H53 H 0.03285 0.96238 0.49288 0.0
H54 H 0.09039 0.02117 0.46243 0.0
H55 H 0.03777 0.03312 0.46699 0.0
C56 C 0.02733 0.016 0.45806 0.0
O57 O 0.04354 0.99791 0.45672 0.0
H58 H 0.01071 0.00767 0.46955 0.0
C59 C 0.09399 0.98177 0.51483 0.0
C60 C 0.10211 1.00096 0.49627 0.0
C61 C 0.06906 0.96758 0.51379 0.0
C62 C 0.05216 0.97293 0.49392 0.0
C63 C 0.0599 0.99241 0.47562 0.0
C64 C 0.08478 1.00616 0.47673 0.0
H65 H 0.18209 0.74537 0.82634 0.0
H66 H 0.21979 0.69197 0.79061 0.0
H67 H 0.24571 0.71387 0.86337 0.0
H68 H 0.28852 0.70737 0.83025 0.0
C69 C 0.27729 0.69366 0.81775 0.0
O70 O 0.25303 0.68579 0.82695 0.0
H71 H 0.2756 0.70359 0.79902 0.0
C72 C 0.19647 0.73269 0.827 0.0
C73 C 0.2134 0.73147 0.84783 0.0
C74 C 0.19855 0.71855 0.80633 0.0
C75 C 0.21797 0.70307 0.80638 0.0
C76 C 0.235 0.70155 0.82685 0.0
C77 C 0.23266 0.71562 0.84753 0.0
H78 H 0.96035 0.58192 0.52825 0.0
H79 H 0.9692 0.54 0.46411 0.0
H80 H 0.03057 0.59633 0.48832 0.0
H81 H 0.0209 0.52519 0.4694 0.0
C82 C 0.03108 0.54231 0.45877 0.0
O83 O 0.01594 0.56161 0.45609 0.0
H84 H 0.04903 0.54938 0.46935 0.0
C85 C 0.97138 0.57812 0.51284 0.0
C86 C 0.99622 0.59199 0.50984 0.0
C87 C 0.96124 0.55886 0.49678 0.0
C88 C 0.97652 0.55397 0.47737 0.0
C89 C 1.00154 0.56705 0.47465 0.0
C90 C 0.01134 0.58603 0.49084 0.0
H91 H 0.79211 0.82107 0.86389 0.0
H92 H 0.86417 0.80634 0.8367 0.0
H93 H 0.82492 0.86354 0.79909 0.0
H94 H 0.84933 0.83633 0.76262 0.0
C95 C 0.86 0.82513 0.77654 0.0
O96 O 0.86392 0.83808 0.79809 0.0
H97 H 0.84794 0.80608 0.7802 0.0
C98 C 0.80758 0.82514 0.85098 0.0
C99 C 0.80634 0.8446 0.83186 0.0
C100 C 0.82834 0.8109 0.85331 0.0
C101 C 0.84769 0.81637 0.83559 0.0
C102 C 0.84615 0.83484 0.81594 0.0
C103 C 0.82587 0.8493 0.81441 0.0
H104 H 0.29004 0.34008 0.37185 0.0
H105 H 0.35485 0.31346 0.34164 0.0
H106 H 0.31436 0.36657 0.29808 0.0
H107 H 0.33356 0.33141 0.26604 0.0
C108 C 0.34647 0.32299 0.28005 0.0
O109 O 0.35248 0.33953 0.29888 0.0
H110 H 0.33599 0.30432 0.28765 0.0
C111 C 0.30316 0.34031 0.35687 0.0
C112 C 0.29968 0.35525 0.33468 0.0
C113 C 0.32311 0.32527 0.35968 0.0
C114 C 0.33953 0.32508 0.33989 0.0
C115 C 0.33651 0.34007 0.31781 0.0
C116 C 0.31683 0.35537 0.31537 0.0
H117 H 0.48635 0.02496 0.60264 0.0
H118 H 0.45231 0.99342 0.53512 0.0
H119 H 0.51494 0.96222 0.57226 0.0
H120 H 0.51471 0.97934 0.5155 0.0
C121 C 0.49709 0.96522 0.51219 0.0
O122 O 0.48358 0.95956 0.53379 0.0
H123 H 0.48491 0.97426 0.49791 0.0
C124 C 0.48536 0.01145 0.58839 0.0
C125 C 0.50237 0.99319 0.59043 0.0
C126 C 0.4668 0.01195 0.56865 0.0
C127 C 0.46645 0.99416 0.55026 0.0
C128 C 0.48407 0.97662 0.55149 0.0
C129 C 0.50174 0.97611 0.57152 0.0
H130 H 0.20644 0.36065 0.75515 0.0
H131 H 0.17184 0.2935 0.71878 0.0
H132 H 0.24429 0.33502 0.69478 0.0
H133 H 0.20894 0.31738 0.65479 0.0
C134 C 0.20275 0.2974 0.66252 0.0
O135 O 0.20917 0.29518 0.68758 0.0
H136 H 0.18153 0.29269 0.66002 0.0
C137 C 0.20642 0.34769 0.74044 0.0
C138 C 0.22754 0.35063 0.72503 0.0
C139 C 0.18653 0.32693 0.73886 0.0
C140 C 0.1866 0.31013 0.71981 0.0
C141 C 0.20722 0.31341 0.70351 0.0
C142 C 0.2277 0.3336 0.70627 0.0
H143 H 0.8459 0.16529 0.74333 0.0
H144 H 0.80469 0.18264 0.67492 0.0
H145 H 0.85837 0.2411 0.70656 0.0
H146 H 0.8007 0.24632 0.69153 0.0
C147 C 0.80334 0.24207 0.67197 0.0
O148 O 0.82502 0.23053 0.67051 0.0
H149 H 0.78615 0.22859 0.66615 0.0
C150 C 0.84205 0.1785 0.72789 0.0
C151 C 0.85438 0.20418 0.72753 0.0
C152 C 0.82403 0.17016 0.70894 0.0
C153 C 0.81913 0.18791 0.68924 0.0
C154 C 0.83141 0.21332 0.68859 0.0
C155 C 0.84909 0.2213 0.70747 0.0
H156 H 0.51351 0.5873 0.55867 0.0
H157 H 0.56062 0.52988 0.58341 0.0
H158 H 0.58207 0.57984 0.52001 0.0
H159 H 0.5738 0.52034 0.51798 0.0
C160 C 0.58724 0.51769 0.5341 0.0
O161 O 0.59217 0.5398 0.54688 0.0
H162 H 0.57765 0.50177 0.54661 0.0
C163 C 0.53064 0.5786 0.55699 0.0
C164 C 0.54718 0.58666 0.53704 0.0
C165 C 0.53523 0.55802 0.57385 0.0
C166 C 0.55683 0.54589 0.57085 0.0
C167 C 0.57311 0.55341 0.55109 0.0
C168 C 0.5687 0.57406 0.53476 0.0
H169 H 0.59458 0.4617 0.03951 0.0
H170 H 0.53711 0.44503 0.98107 0.0
H171 H 0.59585 0.51018 0.97206 0.0
H172 H 0.54606 0.52124 0.95705 0.0
C173 C 0.53681 0.50257 0.95021 0.0
O174 O 0.55412 0.48524 0.95227 0.0
H175 H 0.52004 0.49504 0.96186 0.0
C176 C 0.58649 0.46591 0.0212 0.0
C177 C 0.5982 0.48739 1.00672 0.0
C178 C 0.56446 0.45009 0.01226 0.0
C179 C 0.5539 0.45673 0.98867 0.0
C180 C 0.56504 0.47849 0.97442 0.0
C181 C 0.58741 0.4934 0.98323 0.0
H182 H 0.67931 0.25589 0.33206 0.0
H183 H 0.69281 0.19218 0.29165 0.0
H184 H 0.74831 0.22154 0.34661 0.0
H185 H 0.76185 0.21198 0.29107 0.0
C186 C 0.7538 0.19126 0.29405 0.0
O187 O 0.73738 0.18757 0.31369 0.0
H188 H 0.74278 0.18551 0.27684 0.0
C189 C 0.69126 0.24161 0.32869 0.0
C190 C 0.715 0.24135 0.34177 0.0
C191 C 0.6832 0.22404 0.31049 0.0
C192 C 0.69887 0.2059 0.30551 0.0
C193 C 0.72235 0.20519 0.31851 0.0
C194 C 0.73026 0.22274 0.33656 0.0
H195 H 0.44897 0.0578 0.02245 0.0
H196 H 0.48658 0.02182 0.96853 0.0
H197 H 0.52724 0.08729 1.00305 0.0
H198 H 0.54108 0.08552 0.94919 0.0
C199 C 0.53184 0.06536 0.94716 0.0
O200 O 0.52976 0.05289 0.97058 0.0
H201 H 0.51247 0.06578 0.93819 0.0
C202 C 0.46602 0.0567 0.0123 0.0
C203 C 0.48828 0.07504 0.01534 0.0
C204 C 0.46501 0.03776 0.99517 0.0
C205 C 0.48704 0.0362 0.98195 0.0
C206 C 0.50943 0.05384 0.98492 0.0
C207 C 0.5101 0.07319 1.00162 0.0
Mn208 Mn 0.25943 0.88605 1.001 0.0
Mn209 Mn 0.25042 0.90901 0.942 0.0
C210 C 0.2353 0.86035 0.97247 0.0
C211 C 0.28225 0.86462 0.03182 0.0
C212 C 0.2239 0.9255 0.98575 0.0
O213 O 0.28844 0.91692 0.99714 0.0
O214 O 0.28277 0.9273 0.95624 0.0
C215 C 0.29423 0.89376 0.91718 0.0
N216 N 0.26841 0.89266 0.9193 0.0
C217 C 0.25969 0.86925 0.88254 0.0
C218 C 0.28621 0.87038 0.8798 0.0
C219 C 0.30354 0.88246 0.89734 0.0
C220 C 0.25156 0.88065 0.90279 0.0
H221 H 0.30762 0.90342 0.93038 0.0
C222 C 0.29545 0.92985 0.97693 0.0
O223 O 0.26702 0.8804 0.03722 0.0
O224 O 0.28512 0.86211 0.00843 0.0
N225 N 0.21975 0.89221 0.92637 0.0
C226 C 0.19479 0.89293 0.93159 0.0
C227 C 0.175 0.88067 0.91644 0.0
C228 C 0.18108 0.86815 0.8959 0.0
C229 C 0.20691 0.86798 0.89071 0.0
C230 C 0.22579 0.88028 0.90662 0.0
H231 H 0.18998 0.90273 0.9472 0.0
O232 O 0.23209 0.85555 0.9961 0.0
O233 O 0.25214 0.8801 0.96636 0.0
O234 O 0.23211 0.90989 1.00211 0.0
O235 O 0.23054 0.92728 0.9632 0.0
C236 C 0.21465 0.85628 0.87025 0.0
C237 C 0.24101 0.85719 0.866 0.0
H238 H 0.29347 0.8618 0.86446 0.0
H239 H 0.32402 0.88327 0.89544 0.0
H240 H 0.15512 0.88097 0.92053 0.0
H241 H 0.16577 0.8588 0.8842 0.0
H242 H 0.20049 0.84666 0.85759 0.0
H243 H 0.24673 0.84824 0.85013 0.0
Mn244 Mn 0.14788 0.50082 0.27218 0.0
Mn245 Mn 0.12489 0.55753 0.2679 0.0
C246 C 0.17219 0.53802 0.25507 0.0
C247 C 0.17087 0.46968 0.2916 0.0
C248 C 0.10605 0.515 0.23409 0.0
O249 O 0.12027 0.4952 0.29854 0.0
O250 O 0.106 0.53361 0.29323 0.0
C251 C 0.14134 0.57475 0.31788 0.0
N252 N 0.14164 0.57886 0.29272 0.0
C253 C 0.16783 0.62011 0.29582 0.0
C254 C 0.16775 0.61631 0.32176 0.0
C255 C 0.15448 0.59351 0.33283 0.0
C256 C 0.15435 0.60074 0.28188 0.0
H257 H 0.13118 0.5573 0.3265 0.0
C258 C 0.10557 0.51111 0.3039 0.0
O259 O 0.15256 0.46396 0.27526 0.0
O260 O 0.17546 0.49341 0.29743 0.0
N261 N 0.14206 0.58251 0.24444 0.0
C262 C 0.14157 0.58251 0.21922 0.0
C263 C 0.15418 0.60386 0.20532 0.0
C264 C 0.16711 0.62495 0.21748 0.0
C265 C 0.1677 0.62434 0.24345 0.0
C266 C 0.1545 0.6027 0.25632 0.0
H267 H 0.13156 0.56638 0.20978 0.0
O268 O 0.17591 0.51567 0.2486 0.0
O269 O 0.15371 0.53778 0.27018 0.0
O270 O 0.12013 0.49931 0.24421 0.0
O271 O 0.10653 0.5376 0.24115 0.0
C272 C 0.18106 0.64426 0.25708 0.0
C273 C 0.1812 0.64211 0.28325 0.0
H274 H 0.17797 0.63069 0.33336 0.0
H275 H 0.15437 0.5904 0.35283 0.0
H276 H 0.15385 0.60411 0.18527 0.0
H277 H 0.17658 0.6415 0.2067 0.0
H278 H 0.19158 0.66116 0.24763 0.0
H279 H 0.19185 0.65738 0.29354 0.0
Mn280 Mn 0.79357 0.63733 0.03012 0.0
Mn281 Mn 0.74061 0.65956 1.0046 0.0
C282 C 0.75327 0.6124 0.03333 0.0
C283 C 0.8291 0.61549 0.02782 0.0
C284 C 0.7655 0.67654 0.05341 0.0
O285 O 0.809 0.66676 1.00588 0.0
O286 O 0.77223 0.67946 0.99036 0.0
C287 C 0.74463 0.645 0.9532 0.0
N288 N 0.73093 0.64391 0.97416 0.0
C289 C 0.69291 0.62278 0.95374 0.0
C290 C 0.70659 0.62364 0.93191 0.0
C291 C 0.73264 0.63457 0.93173 0.0
C292 C 0.70612 0.63267 0.97479 0.0
H293 H 0.76447 0.65399 0.95281 0.0
C294 C 0.79674 0.68133 0.99153 0.0
O295 O 0.82829 0.6319 0.04441 0.0
O296 O 0.80966 0.6122 0.01221 0.0
N297 N 0.70818 0.64254 0.01617 0.0
C298 C 0.69751 0.64383 0.0385 0.0
C299 C 0.67179 0.63294 0.04204 0.0
C300 C 0.657 0.62175 0.02231 0.0
C301 C 0.6681 0.62156 0.99921 0.0
C302 C 0.69405 0.63199 0.99701 0.0
H303 H 0.70859 0.65297 0.05356 0.0
O304 O 0.77199 0.60834 0.04875 0.0
O305 O 0.7586 0.63067 0.01607 0.0
O306 O 0.78384 0.66316 0.05387 0.0
O307 O 0.74856 0.67642 0.03583 0.0
C308 C 0.65424 0.61212 0.9781 0.0
C309 C 0.66661 0.61283 0.95534 0.0
H310 H 0.69727 0.61605 0.91519 0.0
H311 H 0.74332 0.63535 0.91495 0.0
H312 H 0.66327 0.63349 0.05983 0.0
H313 H 0.63705 0.61372 0.02499 0.0
H314 H 0.63407 0.60417 0.97916 0.0
H315 H 0.65579 0.60532 0.93929 0.0
Mn316 Mn 0.88975 0.03423 0.26458 0.0
Mn317 Mn 0.91272 0.97756 0.26887 0.0
C318 C 0.86339 0.9967 0.2545 0.0
C319 C 0.87074 0.0665 0.28062 0.0
C320 C 0.92559 0.01824 0.22719 0.0
O321 O 0.92168 0.04123 0.28767 0.0
O322 O 0.93362 1.00192 0.2905 0.0
C323 C 0.90139 0.96145 0.32139 0.0
N324 N 0.89876 0.95672 0.29689 0.0
C325 C 0.87403 0.9152 0.30627 0.0
C326 C 0.87655 0.9196 0.3316 0.0
C327 C 0.89025 0.94286 0.33917 0.0
C328 C 0.88557 0.93444 0.2894 0.0
H329 H 0.91189 0.97928 0.32733 0.0
C330 C 0.93598 0.0251 0.29678 0.0
O331 O 0.88575 0.0711 0.26195 0.0
O332 O 0.867 0.04315 0.29053 0.0
N333 N 0.89366 0.95196 0.24925 0.0
C334 C 0.89192 0.95122 0.22408 0.0
C335 C 0.87876 0.92925 0.21347 0.0
C336 C 0.86761 0.90829 0.22884 0.0
C337 C 0.86933 0.90963 0.25465 0.0
C338 C 0.883 0.93186 0.26418 0.0
H339 H 0.90066 0.96718 0.21219 0.0
O340 O 0.8582 0.01885 0.24545 0.0
O341 O 0.88386 0.99726 0.26879 0.0
O342 O 0.91166 0.03379 0.23439 0.0
O343 O 0.92819 0.997 0.23905 0.0
C344 C 0.8579 0.88983 0.27129 0.0
C345 C 0.86016 0.89265 0.29708 0.0
H346 H 0.86791 0.90533 0.34537 0.0
H347 H 0.89223 0.94643 0.35868 0.0
H348 H 0.87731 0.92842 0.19351 0.0
H349 H 0.85769 0.89127 0.22063 0.0
H350 H 0.84707 0.87248 0.26444 0.0
H351 H 0.851 0.87745 0.30968 0.0
Mn352 Mn 0.29913 0.14799 0.5297 0.0
Mn353 Mn 0.24945 0.16712 0.49498 0.0
C354 C 0.26067 0.12015 0.52456 0.0
C355 C 0.33664 0.12898 0.53683 0.0
C356 C 0.26391 0.18444 0.54666 0.0
O357 O 0.3168 0.17951 0.50892 0.0
O358 O 0.28216 0.18889 0.48584 0.0
C359 C 0.26396 0.15321 0.44592 0.0
N360 N 0.24641 0.15141 0.46398 0.0
C361 C 0.21495 0.12497 0.43968 0.0
C362 C 0.23263 0.12673 0.42072 0.0
C363 C 0.25728 0.14084 0.42391 0.0
C364 C 0.22273 0.13771 0.4612 0.0
H365 H 0.28291 0.16393 0.44835 0.0
C366 C 0.30615 0.19276 0.4918 0.0
O367 O 0.33028 0.14546 0.55114 0.0
O368 O 0.32202 0.12456 0.51712 0.0
N369 N 0.2165 0.14755 0.50158 0.0
C370 C 0.20211 0.14689 0.52204 0.0
C371 C 0.17696 0.13349 0.52193 0.0
C372 C 0.16686 0.12092 0.50082 0.0
C373 C 0.18203 0.12182 0.48002 0.0
C374 C 0.2068 0.13585 0.48104 0.0
H375 H 0.2097 0.15668 0.53824 0.0
O376 O 0.27591 0.11684 0.54362 0.0
O377 O 0.26815 0.1397 0.50929 0.0
O378 O 0.28238 0.17151 0.55027 0.0
O379 O 0.25021 0.18432 0.52659 0.0
C380 C 0.17359 0.10923 0.45837 0.0
C381 C 0.19009 0.11071 0.43825 0.0
H382 H 0.22757 0.11716 0.40374 0.0
H383 H 0.27109 0.14218 0.40943 0.0
H384 H 0.16536 0.13288 0.53807 0.0
H385 H 0.14747 0.11053 0.50081 0.0
H386 H 0.15458 0.09809 0.45713 0.0
H387 H 0.18354 0.10064 0.42185 0.0
Mn388 Mn 0.39736 0.52801 0.76029 0.0
Mn389 Mn 0.4176 0.47006 0.76527 0.0
C390 C 0.3697 0.4913 0.75007 0.0
C391 C 0.37804 0.55925 0.77825 0.0
C392 C 0.43162 0.50973 0.72255 0.0
O393 O 0.42933 0.53425 0.78321 0.0
O394 O 0.4406 0.49458 0.78539 0.0
C395 C 0.40771 0.45672 0.81852 0.0
N396 N 0.40412 0.45083 0.79436 0.0
C397 C 0.37838 0.41041 0.80598 0.0
C398 C 0.38194 0.41598 0.83099 0.0
C399 C 0.39662 0.43927 0.83727 0.0
C400 C 0.39 0.4285 0.78811 0.0
H401 H 0.41893 0.4746 0.82345 0.0
C402 C 0.44378 0.51791 0.79126 0.0
O403 O 0.39234 0.56509 0.75904 0.0
O404 O 0.37557 0.53564 0.78718 0.0
N405 N 0.39689 0.4441 0.74721 0.0
C406 C 0.39349 0.44261 0.7222 0.0
C407 C 0.3788 0.42072 0.7128 0.0
C408 C 0.36766 0.40066 0.72919 0.0
C409 C 0.37117 0.40275 0.75485 0.0
C410 C 0.38633 0.42485 0.76313 0.0
H411 H 0.40167 0.45811 0.70955 0.0
O412 O 0.36549 0.51374 0.74104 0.0
O413 O 0.38998 0.49103 0.76456 0.0
O414 O 0.41982 0.52723 0.72977 0.0
O415 O 0.43186 0.48807 0.73462 0.0
C416 C 0.35975 0.38402 0.77251 0.0
C417 C 0.36331 0.38787 0.79806 0.0
H418 H 0.3733 0.40262 0.8455 0.0
H419 H 0.39937 0.44378 0.85651 0.0
H420 H 0.37594 0.41939 0.69297 0.0
H421 H 0.35617 0.38389 0.72189 0.0
H422 H 0.34783 0.36679 0.76664 0.0
H423 H 0.35408 0.37354 0.81145 0.0
Mn424 Mn 0.76019 0.39252 0.50333 0.0
Mn425 Mn 0.7677 0.42073 0.44572 0.0
C426 C 0.74691 0.36901 0.46894 0.0
C427 C 0.77584 0.37097 0.53857 0.0
C428 C 0.72861 0.43269 0.4815 0.0
O429 O 0.78687 0.42459 0.50808 0.0
O430 O 0.79508 0.43775 0.46802 0.0
C431 C 0.81757 0.40692 0.43245 0.0
N432 N 0.79191 0.40638 0.42771 0.0
C433 C 0.79363 0.38393 0.39073 0.0
C434 C 0.8201 0.3843 0.3952 0.0
C435 C 0.83211 0.39581 0.41617 0.0
C436 C 0.78017 0.39541 0.40755 0.0
H437 H 0.82685 0.4157 0.44855 0.0
C438 C 0.79972 0.43894 0.49142 0.0
O439 O 0.75791 0.38509 0.53975 0.0
O440 O 0.78501 0.36943 0.51689 0.0
N441 N 0.7424 0.40527 0.42269 0.0
C442 C 0.71648 0.40502 0.42197 0.0
C443 C 0.70149 0.39372 0.40243 0.0
C444 C 0.7133 0.38282 0.38385 0.0
C445 C 0.73995 0.38295 0.38518 0.0
C446 C 0.75394 0.39478 0.40492 0.0
H447 H 0.7073 0.41349 0.43611 0.0
O448 O 0.73721 0.36174 0.49047 0.0
O449 O 0.76356 0.38983 0.4684 0.0
O450 O 0.73176 0.41477 0.4978 0.0
O451 O 0.74194 0.43728 0.46204 0.0
C452 C 0.75315 0.37159 0.36783 0.0
C453 C 0.77996 0.37205 0.37062 0.0
H454 H 0.83134 0.37559 0.38279 0.0
H455 H 0.85251 0.39608 0.4198 0.0
H456 H 0.6809 0.3935 0.40162 0.0
H457 H 0.7017 0.37434 0.36869 0.0
H458 H 0.74281 0.36217 0.35245 0.0
H459 H 0.78984 0.36291 0.35738 0.0
Mn460 Mn 0.66219 0.99763 0.7752 0.0
Mn461 Mn 0.64818 0.05787 0.76387 0.0
C462 C 0.68845 0.02795 0.75064 0.0
C463 C 0.68234 0.96557 0.79681 0.0
C464 C 0.62047 0.01249 0.7375 0.0
O465 O 0.63784 1.00033 0.80338 0.0
O466 O 0.62992 0.04056 0.79329 0.0
C467 C 0.67128 0.08156 0.80922 0.0
N468 N 0.66961 0.08128 0.78402 0.0
C469 C 0.69495 0.12314 0.77931 0.0
C470 C 0.69693 0.1239 0.80521 0.0
C471 C 0.68528 0.10289 0.82023 0.0
C472 C 0.68148 0.10102 0.76943 0.0
H473 H 0.66171 0.06581 0.82083 0.0
C474 C 0.62712 0.01981 0.80735 0.0
O475 O 0.6617 0.96015 0.78312 0.0
O476 O 0.69067 0.98976 0.79915 0.0
N477 N 0.66484 0.07722 0.73627 0.0
C478 C 0.66116 0.07345 0.71161 0.0
C479 C 0.67299 0.09197 0.69412 0.0
C480 C 0.68769 0.11456 0.70211 0.0
C481 C 0.6906 0.11832 0.72755 0.0
C482 C 0.67912 0.09879 0.74415 0.0
H483 H 0.6494 0.0564 0.70534 0.0
O484 O 0.6877 1.00359 0.74816 0.0
O485 O 0.67364 0.03407 0.76715 0.0
O486 O 0.63226 0.99579 0.7493 0.0
O487 O 0.62503 0.03624 0.74154 0.0
C488 C 0.70386 0.14096 0.73706 0.0
C489 C 0.70564 0.14354 0.76291 0.0
H490 H 0.70734 0.14051 0.81376 0.0
H491 H 0.68668 0.10334 0.84023 0.0
H492 H 0.67045 0.08902 0.6745 0.0
H493 H 0.6964 0.12901 0.68854 0.0
H494 H 0.71266 0.15655 0.72467 0.0
H495 H 0.71591 0.16103 0.77001 0.0
Mn496 Mn 0.01903 0.2629 0.88489 0.0
Mn497 Mn 0.96057 0.25363 0.91027 0.0
C498 C 0.98303 0.24541 0.8622 0.0
C499 C 0.05321 0.28594 0.86296 0.0
C500 C 1.00129 0.21998 0.9242 0.0
O501 O 0.02383 0.28718 0.91341 0.0
O502 O 0.98336 0.28108 0.9273 0.0
C503 C 0.94374 0.30373 0.89562 0.0
N504 N 0.93983 0.27765 0.89538 0.0
C505 C 0.90003 0.27809 0.87187 0.0
C506 C 0.90355 0.30492 0.87205 0.0
C507 C 0.92552 0.31779 0.88394 0.0
C508 C 0.91872 0.26508 0.88403 0.0
H509 H 0.96067 0.31375 0.90456 0.0
C510 C 1.00665 0.2926 0.92748 0.0
O511 O 0.0563 0.26765 0.87948 0.0
O512 O 0.03016 0.29184 0.85956 0.0
N513 N 0.93672 0.22806 0.89467 0.0
C514 C 0.93728 0.20238 0.89439 0.0
C515 C 0.91716 0.18683 0.88237 0.0
C516 C 0.89669 0.19782 0.87083 0.0
C517 C 0.89665 0.22431 0.87115 0.0
C518 C 0.9171 0.23881 0.88362 0.0
H519 H 0.95299 0.19384 0.90318 0.0
O520 O 1.00569 0.24085 0.85698 0.0
O521 O 0.98217 0.25943 0.88085 0.0
O522 O 0.01741 0.23138 0.90883 0.0
O523 O 0.97961 0.22711 0.92718 0.0
C524 C 0.87738 0.23694 0.85919 0.0
C525 C 0.87907 0.26382 0.85955 0.0
H526 H 0.88966 0.31586 0.86287 0.0
H527 H 0.92846 0.33851 0.88403 0.0
H528 H 0.91743 0.16643 0.88199 0.0
H529 H 0.88119 0.18576 0.8616 0.0
H530 H 0.86139 0.22623 0.84933 0.0
H531 H 0.86435 0.27336 0.84995 0.0
Mn532 Mn 0.51968 0.77624 0.38645 0.0
Mn533 Mn 0.46241 0.76342 0.41409 0.0
C534 C 0.48558 0.75072 0.36792 0.0
C535 C 0.5493 0.7995 0.35927 0.0
C536 C 0.50748 0.73615 0.42996 0.0
O537 O 0.52262 0.80411 0.41132 0.0
O538 O 0.48357 0.79404 0.42804 0.0
C539 C 0.44096 0.81012 0.39547 0.0
N540 N 0.43922 0.78407 0.39757 0.0
C541 C 0.39779 0.77904 0.37649 0.0
C542 C 0.39907 0.8058 0.37423 0.0
C543 C 0.42083 0.8214 0.38363 0.0
C544 C 0.4186 0.7689 0.38816 0.0
H545 H 0.45754 0.82222 0.40282 0.0
C546 C 0.50555 0.80822 0.42611 0.0
O547 O 0.55646 0.78507 0.37787 0.0
O548 O 0.52513 0.80207 0.35761 0.0
N549 N 0.43977 0.73475 0.40202 0.0
C550 C 0.44161 0.70927 0.40546 0.0
C551 C 0.4218 0.69113 0.39628 0.0
C552 C 0.40011 0.6993 0.38412 0.0
C553 C 0.3984 0.72557 0.38128 0.0
C554 C 0.41888 0.7428 0.39053 0.0
H555 H 0.45814 0.70283 0.41496 0.0
O556 O 0.50907 0.74917 0.36272 0.0
O557 O 0.48256 0.76731 0.38384 0.0
O558 O 0.52277 0.74849 0.41418 0.0
O559 O 0.48451 0.74044 0.43215 0.0
C560 C 0.37706 0.73533 0.36984 0.0
C561 C 0.37669 0.76203 0.36761 0.0
H562 H 0.38351 0.81456 0.36523 0.0
H563 H 0.42201 0.84208 0.3819 0.0
H564 H 0.42321 0.67087 0.39866 0.0
H565 H 0.38482 0.68524 0.37715 0.0
H566 H 0.36088 0.72247 0.36262 0.0
H567 H 0.36024 0.76931 0.35865 0.0
Mn568 Mn 0.0334 0.7705 0.64286 0.0
Mn569 Mn 1.00376 0.71482 0.67017 0.0
C570 C 0.03048 0.73303 0.62224 0.0
C571 C 0.03356 0.81038 0.62123 0.0
C572 C 0.0578 0.73896 0.68443 0.0
O573 O 0.01351 0.78204 0.67066 0.0
O574 O 0.99152 0.74425 0.6846 0.0
C575 C 0.95026 0.71736 0.65229 0.0
N576 N 0.97109 0.70484 0.6542 0.0
C577 C 0.94725 0.66795 0.63585 0.0
C578 C 0.92552 0.68042 0.63368 0.0
C579 C 0.9271 0.70533 0.64174 0.0
C580 C 0.96998 0.68118 0.64586 0.0
H581 H 0.95126 0.7363 0.65893 0.0
C582 C 0.99659 0.76875 0.68441 0.0
O583 O 0.05156 0.80583 0.63719 0.0
O584 O 0.01517 0.79152 0.61725 0.0
N585 N 0.01316 0.68441 0.65824 0.0
C586 C 0.0357 0.6748 0.66205 0.0
C587 C 0.03754 0.65035 0.65432 0.0
C588 C 0.01597 0.63567 0.64353 0.0
C589 C 0.99274 0.64558 0.6406 0.0
C590 C 0.99222 0.67032 0.64808 0.0
H591 H 0.05221 0.68574 0.67082 0.0
O592 O 0.04733 0.75288 0.61612 0.0
O593 O 0.01499 0.73593 0.63969 0.0
O594 O 0.05917 0.75722 0.6677 0.0
O595 O 0.03751 0.72275 0.6881 0.0
C596 C 0.96992 0.63165 0.63106 0.0
C597 C 0.94717 0.6428 0.62874 0.0
H598 H 0.90752 0.67104 0.6259 0.0
H599 H 0.91042 0.71508 0.64016 0.0
H600 H 0.05547 0.64273 0.65693 0.0
H601 H 0.01738 0.61669 0.63786 0.0
H602 H 0.96967 0.61238 0.62532 0.0
H603 H 0.92979 0.63197 0.62118 0.0
Mn604 Mn 0.51669 0.25546 0.14732 0.0
Mn605 Mn 0.48152 0.203 0.17443 0.0
C606 C 0.51185 0.21655 0.12847 0.0
C607 C 0.51891 0.29309 0.12132 0.0
C608 C 0.53466 0.22601 0.19356 0.0
O609 O 0.49554 0.27001 0.17258 0.0
O610 O 0.46923 0.23405 0.18528 0.0
C611 C 0.43041 0.20635 0.1506 0.0
N612 N 0.45048 0.19313 0.15565 0.0
C613 C 0.42927 0.15731 0.13376 0.0
C614 C 0.40833 0.17051 0.12839 0.0
C615 C 0.40893 0.19515 0.13681 0.0
C616 C 0.4501 0.16941 0.14765 0.0
H617 H 0.43083 0.22531 0.15703 0.0
C618 C 0.47636 0.25841 0.18482 0.0
O619 O 0.53645 0.29008 0.13842 0.0
O620 O 0.49999 0.27439 0.11949 0.0
N621 N 0.49148 0.17175 0.1651 0.0
C622 C 0.51387 0.16231 0.17053 0.0
C623 C 0.51657 0.13797 0.16309 0.0
C624 C 0.49623 0.1236 0.15021 0.0
C625 C 0.47351 0.13386 0.14452 0.0
C626 C 0.47179 0.15806 0.15271 0.0
H627 H 0.5295 0.17322 0.18056 0.0
O628 O 0.5308 0.23453 0.12287 0.0
O629 O 0.4965 0.22207 0.14482 0.0
O630 O 0.53987 0.24256 0.17545 0.0
O631 O 0.51314 0.2112 0.19533 0.0
C632 C 0.45262 0.12113 0.13085 0.0
C633 C 0.43053 0.13287 0.12542 0.0
H634 H 0.39179 0.162 0.11763 0.0
H635 H 0.39289 0.2055 0.13266 0.0
H636 H 0.53424 0.13024 0.16736 0.0
H637 H 0.49828 0.10472 0.14471 0.0
H638 H 0.45346 0.10244 0.12416 0.0
H639 H 0.41474 0.12306 0.11459 0.0
H640 H 0.25237 0.75579 0.87765 0.0
H641 H 0.1693 0.74348 0.86683 0.0
H642 H 0.16583 0.77409 0.89833 0.0
H643 H 0.24887 0.76288 0.94757 0.0
H644 H 0.27827 0.78539 0.94713 0.0
H645 H 0.27345 0.75978 0.92629 0.0
H646 H 0.28433 0.79333 0.89148 0.0
H647 H 0.2852 0.82083 0.90947 0.0
H648 H 0.26331 0.81624 0.88292 0.0
H649 H 0.17127 0.80677 0.93075 0.0
H650 H 0.18581 0.84069 0.95992 0.0
H651 H 0.26505 0.83371 0.9475 0.0
C652 C 0.23336 0.75888 0.88233 0.0
C653 C 0.21117 0.74736 0.86928 0.0
C654 C 0.18673 0.75245 0.87594 0.0
C655 C 0.18448 0.76962 0.89409 0.0
C656 C 0.20677 0.78121 0.90596 0.0
C657 C 0.2307 0.77564 0.90075 0.0
C658 C 0.25169 0.79128 0.91573 0.0
C659 C 0.26378 0.77379 0.93534 0.0
C660 C 0.27234 0.80641 0.89895 0.0
C661 C 0.23603 0.80844 0.92807 0.0
C662 C 0.21003 0.80132 0.92328 0.0
C663 C 0.19158 0.81273 0.93442 0.0
C664 C 0.19993 0.83198 0.95085 0.0
C665 C 0.22642 0.84036 0.95504 0.0
C666 C 0.24466 0.82825 0.94373 0.0
H667 H 0.07838 0.53709 0.44128 0.0
H668 H 0.99736 0.52822 0.42027 0.0
H669 H 1.00699 0.51369 0.37953 0.0
H670 H 0.10191 0.56162 0.38221 0.0
H671 H 0.12956 0.54519 0.38474 0.0
H672 H 0.11578 0.55371 0.41231 0.0
H673 H 0.11075 0.5061 0.4293 0.0
H674 H 0.12412 0.49742 0.40151 0.0
H675 H 0.09297 0.48162 0.41109 0.0
H676 H 0.02617 0.50397 0.33973 0.0
H677 H 0.05339 0.50067 0.30413 0.0
H678 H 0.12143 0.51298 0.35202 0.0
C679 C 0.06269 0.53207 0.42808 0.0
C680 C 0.03715 0.53415 0.43369 0.0
C681 C 0.01708 0.52711 0.4161 0.0
C682 C 0.02237 0.51868 0.39304 0.0
C683 C 0.04781 0.51698 0.38801 0.0
C684 C 0.06764 0.52347 0.40506 0.0
C685 C 0.09339 0.52088 0.39477 0.0
C686 C 0.1112 0.54689 0.39342 0.0
C687 C 0.10605 0.50027 0.41008 0.0
C688 C 0.08505 0.51235 0.36911 0.0
C689 C 0.05866 0.51013 0.36556 0.0
C690 C 0.04676 0.50498 0.34251 0.0
C691 C 0.06228 0.50289 0.32244 0.0
C692 C 0.0893 0.50549 0.32568 0.0
C693 C 0.10071 0.50967 0.34942 0.0
H694 H 0.80731 0.80624 0.90022 0.0
H695 H 0.85137 0.76701 0.85292 0.0
H696 H 0.85378 0.73336 0.88615 0.0
H697 H 0.83574 0.78828 0.95992 0.0
H698 H 0.80539 0.78262 0.97512 0.0
H699 H 0.8103 0.80599 0.94914 0.0
H700 H 0.77019 0.78273 0.92612 0.0
H701 H 0.76498 0.7596 0.95215 0.0
H702 H 0.76803 0.74898 0.92161 0.0
H703 H 0.85011 0.70241 0.92432 0.0
H704 H 0.83462 0.67409 0.96088 0.0
H705 H 0.78865 0.73055 0.98053 0.0
C706 C 0.81744 0.79067 0.89652 0.0
C707 C 0.82962 0.79009 0.87368 0.0
C708 C 0.84268 0.76898 0.87032 0.0
C709 C 0.84405 0.74944 0.88914 0.0
C710 C 0.83185 0.75076 0.91125 0.0
C711 C 0.81835 0.77059 0.9148 0.0
C712 C 0.80443 0.76604 0.93906 0.0
C713 C 0.81458 0.78698 0.95686 0.0
C714 C 0.77518 0.76422 0.93445 0.0
C715 C 0.81188 0.74037 0.94839 0.0
C716 C 0.82829 0.73217 0.93244 0.0
C717 C 0.83735 0.70871 0.93699 0.0
C718 C 0.82866 0.69284 0.95788 0.0
C719 C 0.81069 0.70029 0.97357 0.0
C720 C 0.80266 0.72457 0.96896 0.0
H721 H 0.01541 0.98667 0.41754 0.0
H722 H 0.01488 0.063 0.44181 0.0
H723 H 0.9951 0.0757 0.40132 0.0
H724 H 0.02981 1.00631 0.3523 0.0
H725 H 0.00919 0.97879 0.34107 0.0
H726 H 0.02499 0.97656 0.3712 0.0
H727 H 0.9809 0.96135 0.39125 0.0
H728 H 0.96503 0.96349 0.36122 0.0
H729 H 0.95562 0.98077 0.38602 0.0
H730 H 0.97165 0.07858 0.35909 0.0
H731 H 0.94675 0.07104 0.31966 0.0
H732 H 0.96531 0.99353 0.32306 0.0
C733 C 0.01173 1.00624 0.41411 0.0
C734 C 0.01734 0.0241 0.43254 0.0
C735 C 0.01129 0.04924 0.42768 0.0
C736 C 1.00005 0.0566 0.40476 0.0
C737 C 0.99499 0.03859 0.38687 0.0
C738 C 1.00078 0.01395 0.3913 0.0
C739 C 0.99227 0.99777 0.36963 0.0
C740 C 0.01545 0.98937 0.35785 0.0
C741 C 0.97227 0.97449 0.37751 0.0
C742 C 0.98035 0.01694 0.35251 0.0
C743 C 0.98207 0.04042 0.36263 0.0
C744 C 0.97057 0.06037 0.35081 0.0
C745 C 0.95651 0.05596 0.32836 0.0
C746 C 0.95413 0.03178 0.31799 0.0
C747 C 0.96689 0.01241 0.3301 0.0
H748 H 0.18544 0.27299 0.62018 0.0
H749 H 0.25064 0.28303 0.67218 0.0
H750 H 0.27258 0.25479 0.64869 0.0
H751 H 0.18709 0.20639 0.60921 0.0
H752 H 0.17896 0.21014 0.57657 0.0
H753 H 0.16788 0.23048 0.59788 0.0
H754 H 0.18911 0.27074 0.57204 0.0
H755 H 0.20024 0.25053 0.55065 0.0
H756 H 0.22284 0.2742 0.5657 0.0
H757 H 0.28725 0.22511 0.62007 0.0
H758 H 0.29495 0.19784 0.58694 0.0
H759 H 0.22108 0.20803 0.55197 0.0
C760 C 0.20421 0.26896 0.62674 0.0
C761 C 0.21595 0.27952 0.64851 0.0
C762 C 0.24092 0.27455 0.65603 0.0
C763 C 0.25358 0.25861 0.64274 0.0
C764 C 0.24128 0.24813 0.62165 0.0
C765 C 0.21725 0.25323 0.61353 0.0
C766 C 0.20875 0.24019 0.58975 0.0
C767 C 0.18422 0.22064 0.59359 0.0
C768 C 0.20502 0.26011 0.56827 0.0
C769 C 0.23173 0.22691 0.58584 0.0
C770 C 0.25017 0.23166 0.60457 0.0
C771 C 0.27297 0.2213 0.60527 0.0
C772 C 0.27712 0.20575 0.58633 0.0
C773 C 0.25867 0.20072 0.5667 0.0
C774 C 0.23565 0.21155 0.56657 0.0
H775 H 0.51195 0.58365 0.60783 0.0
H776 H 0.5163 0.5078 0.58375 0.0
H777 H 0.489 0.48831 0.61787 0.0
H778 H 0.51477 0.56724 0.67248 0.0
H779 H 0.49185 0.58699 0.68083 0.0
H780 H 0.51039 0.59578 0.65346 0.0
H781 H 0.46853 0.59644 0.62672 0.0
H782 H 0.44984 0.5878 0.65405 0.0
H783 H 0.44414 0.56848 0.62763 0.0
H784 H 0.46554 0.47646 0.65592 0.0
H785 H 0.44349 0.47228 0.69516 0.0
H786 H 0.45065 0.55533 0.69545 0.0
C787 C 0.50674 0.56299 0.60956 0.0
C788 C 0.51658 0.54722 0.59327 0.0
C789 C 0.50945 0.52025 0.59623 0.0
C790 C 0.49381 0.50897 0.61549 0.0
C791 C 0.48506 0.52487 0.63161 0.0
C792 C 0.49089 0.55128 0.62883 0.0
C793 C 0.47926 0.56355 0.64949 0.0
C794 C 0.50033 0.57932 0.66498 0.0
C795 C 0.45925 0.58005 0.63883 0.0
C796 C 0.46657 0.53982 0.66448 0.0
C797 C 0.47031 0.51784 0.65363 0.0
C798 C 0.46203 0.49349 0.66439 0.0
C799 C 0.44948 0.49138 0.68684 0.0
C800 C 0.44484 0.51344 0.69843 0.0
C801 C 0.45345 0.53808 0.68692 0.0
H802 H 0.80603 0.24729 0.62104 0.0
H803 H 0.80307 0.29115 0.68537 0.0
H804 H 0.79982 0.33 0.65793 0.0
H805 H 0.84332 0.30025 0.58183 0.0
H806 H 0.82567 0.2906 0.55389 0.0
H807 H 0.8307 0.26692 0.57858 0.0
H808 H 0.78155 0.25202 0.57991 0.0
H809 H 0.77636 0.2757 0.55539 0.0
H810 H 0.76057 0.27514 0.5844 0.0
H811 H 0.79078 0.36216 0.62401 0.0
H812 H 0.77961 0.38665 0.58549 0.0
H813 H 0.79082 0.32327 0.54249 0.0
C814 C 0.80539 0.26528 0.62924 0.0
C815 C 0.80498 0.26634 0.65527 0.0
C816 C 0.8036 0.29001 0.66547 0.0
C817 C 0.80175 0.31216 0.65003 0.0
C818 C 0.8016 0.3104 0.62443 0.0
C819 C 0.80374 0.28768 0.61405 0.0
C820 C 0.80164 0.29072 0.58593 0.0
C821 C 0.82683 0.2869 0.57438 0.0
C822 C 0.77866 0.2723 0.57583 0.0
C823 C 0.79716 0.31845 0.58218 0.0
C824 C 0.79725 0.32941 0.60468 0.0
C825 C 0.79125 0.35401 0.60626 0.0
C826 C 0.78483 0.36773 0.58432 0.0
C827 C 0.78478 0.35698 0.56108 0.0
C828 C 0.7914 0.33217 0.55999 0.0
H829 H 0.53015 0.03221 0.61659 0.0
H830 H 0.51394 0.9492 0.61553 0.0
H831 H 0.54187 0.94508 0.65289 0.0
H832 H 0.5964 0.03616 0.63741 0.0
H833 H 0.59522 0.06214 0.65701 0.0
H834 H 0.57428 0.05865 0.62986 0.0
H835 H 0.53473 0.05764 0.65704 0.0
H836 H 0.55556 0.06109 0.68428 0.0
H837 H 0.52979 0.03443 0.68315 0.0
H838 H 0.57164 0.94985 0.69069 0.0
H839 H 0.60126 0.96329 0.72559 0.0
H840 H 0.59708 0.04312 0.70294 0.0
C841 C 0.53231 0.01314 0.62425 0.0
C842 C 0.51984 0.99103 0.61284 0.0
C843 C 0.52358 0.96648 0.62349 0.0
C844 C 0.53927 0.96391 0.6449 0.0
C845 C 0.55115 0.98605 0.65566 0.0
C846 C 0.54788 0.0102 0.64571 0.0
C847 C 0.56283 0.0309 0.66095 0.0
C848 C 0.5834 0.04796 0.64538 0.0
C849 C 0.54464 0.04696 0.67201 0.0
C850 C 0.57497 0.0146 0.68101 0.0
C851 C 0.56802 0.98878 0.67761 0.0
C852 C 0.57716 0.97004 0.69356 0.0
C853 C 0.594 0.97788 0.71339 0.0
C854 C 0.60153 1.00428 0.71724 0.0
C855 C 0.59163 0.02277 0.70078 0.0
H856 H 0.89055 0.17994 0.75508 0.0
H857 H 0.85648 0.2501 0.74842 0.0
H858 H 0.88551 0.26746 0.78194 0.0
H859 H 0.89734 0.177 0.82172 0.0
H860 H 0.92795 0.16556 0.82374 0.0
H861 H 0.90569 0.15753 0.79824 0.0
H862 H 0.93893 0.17674 0.76605 0.0
H863 H 0.9623 0.18396 0.79083 0.0
H864 H 0.95535 0.20906 0.76836 0.0
H865 H 0.92002 0.27891 0.81331 0.0
H866 H 0.95525 0.28198 0.8449 0.0
H867 H 0.96521 0.20345 0.83505 0.0
C868 C 0.88903 0.19885 0.76082 0.0
C869 C 0.87146 0.2138 0.74867 0.0
C870 C 0.87021 0.2385 0.75681 0.0
C871 C 0.8865 0.24851 0.77601 0.0
C872 C 0.90383 0.23352 0.78722 0.0
C873 C 0.9051 0.20914 0.7802 0.0
C874 C 0.9255 0.19716 0.79567 0.0
C875 C 0.91342 0.17287 0.81076 0.0
C876 C 0.94678 0.1914 0.77924 0.0
C877 C 0.93547 0.21871 0.81236 0.0
C878 C 0.92281 0.23957 0.80683 0.0
C879 C 0.9296 0.26248 0.81831 0.0
C880 C 0.94949 0.26398 0.83634 0.0
C881 C 0.96192 0.24254 0.84329 0.0
C882 C 0.95529 0.21979 0.83069 0.0
H883 H 0.46499 0.92138 0.49957 0.0
H884 H 0.54521 0.95555 0.50157 0.0
H885 H 0.55664 0.91831 0.48161 0.0
H886 H 0.47601 0.85435 0.5117 0.0
H887 H 0.44997 0.84218 0.49099 0.0
H888 H 0.44844 0.87077 0.50682 0.0
H889 H 0.44152 0.89556 0.46457 0.0
H890 H 0.44319 0.86712 0.44863 0.0
H891 H 0.46453 0.89633 0.44066 0.0
H892 H 0.55881 0.87867 0.4583 0.0
H893 H 0.55166 0.83914 0.43537 0.0
H894 H 0.47021 0.83025 0.44985 0.0
C895 C 0.485 0.92071 0.49621 0.0
C896 C 0.50426 0.94119 0.50238 0.0
C897 C 0.53019 0.93994 0.49726 0.0
C898 C 0.53685 0.91888 0.48588 0.0
C899 C 0.51739 0.89911 0.47978 0.0
C900 C 0.492 0.89974 0.48497 0.0
C901 C 0.47467 0.87641 0.47585 0.0
C902 C 0.4615 0.85995 0.49764 0.0
C903 C 0.45481 0.88434 0.45627 0.0
C904 C 0.49419 0.86279 0.46441 0.0
C905 C 0.51873 0.87616 0.46682 0.0
C906 C 0.5397 0.86788 0.45659 0.0
C907 C 0.53545 0.84542 0.44353 0.0
C908 C 0.51043 0.83133 0.44091 0.0
C909 C 0.48967 0.84022 0.45174 0.0
H910 H 0.13293 0.31778 0.73857 0.0
H911 H 0.20099 0.32238 0.78718 0.0
H912 H 0.17392 0.31645 0.82366 0.0
H913 H 0.09555 0.35119 0.77682 0.0
H914 H 0.06547 0.33085 0.77099 0.0
H915 H 0.08987 0.33571 0.74801 0.0
H916 H 0.0893 0.28662 0.74796 0.0
H917 H 0.06462 0.28162 0.77062 0.0
H918 H 0.09401 0.26843 0.77684 0.0
H919 H 0.14078 0.30966 0.85478 0.0
H920 H 0.10208 0.29825 0.87965 0.0
H921 H 0.05405 0.29823 0.81246 0.0
C922 C 0.14197 0.31735 0.75692 0.0
C923 C 0.16908 0.32089 0.76007 0.0
C924 C 0.18029 0.32012 0.78436 0.0
C925 C 0.1651 0.31681 0.80522 0.0
C926 C 0.13858 0.31416 0.80162 0.0
C927 C 0.12695 0.31406 0.77821 0.0
C928 C 0.09784 0.31 0.78002 0.0
C929 C 0.08652 0.33333 0.76826 0.0
C930 C 0.08573 0.28519 0.76816 0.0
C931 C 0.09514 0.30763 0.80805 0.0
C932 C 0.11902 0.31031 0.82 0.0
C933 C 0.12194 0.30772 0.84572 0.0
C934 C 0.09987 0.30136 0.85969 0.0
C935 C 0.07518 0.29784 0.848 0.0
C936 C 0.07271 0.30158 0.82186 0.0
H937 H 0.52406 0.63024 0.54194 0.0
H938 H 0.55634 0.58868 0.48726 0.0
H939 H 0.55094 0.62298 0.45558 0.0
H940 H 0.47479 0.65155 0.49846 0.0
H941 H 0.47621 0.68215 0.51164 0.0
H942 H 0.48332 0.65467 0.53087 0.0
H943 H 0.52749 0.67997 0.54344 0.0
H944 H 0.52062 0.70743 0.52407 0.0
H945 H 0.54934 0.69384 0.51963 0.0
H946 H 0.54531 0.6624 0.4303 0.0
H947 H 0.53345 0.70255 0.41065 0.0
H948 H 0.49944 0.7174 0.47892 0.0
C949 C 0.52977 0.62816 0.52328 0.0
C950 C 0.54157 0.60692 0.51759 0.0
C951 C 0.54845 0.60512 0.49271 0.0
C952 C 0.5452 0.62445 0.47435 0.0
C953 C 0.53429 0.64531 0.48074 0.0
C954 C 0.52605 0.64711 0.50437 0.0
C955 C 0.51386 0.6713 0.50567 0.0
C956 C 0.48535 0.66451 0.51203 0.0
C957 C 0.52872 0.68919 0.52431 0.0
C958 C 0.51695 0.68284 0.47917 0.0
C959 C 0.52916 0.66755 0.46534 0.0
C960 C 0.53546 0.67442 0.4408 0.0
C961 C 0.52882 0.69737 0.42987 0.0
C962 C 0.51558 0.71309 0.44325 0.0
C963 C 0.50945 0.70566 0.46825 0.0
H964 H 0.87631 0.78008 0.76586 0.0
H965 H 0.89971 0.86247 0.76178 0.0
H966 H 0.93891 0.85719 0.73996 0.0
H967 H 0.94095 0.76197 0.77477 0.0
H968 H 0.93323 0.73498 0.75577 0.0
H969 H 0.90846 0.74532 0.77287 0.0
H970 H 0.88132 0.74994 0.73213 0.0
H971 H 0.90604 0.73977 0.71491 0.0
H972 H 0.89518 0.77 0.70626 0.0
H973 H 0.97399 0.84268 0.71567 0.0
H974 H 1.00193 0.82049 0.69175 0.0
H975 H 0.95509 0.74756 0.71208 0.0
C976 C 0.88997 0.79696 0.76083 0.0
C977 C 0.88523 0.8217 0.7658 0.0
C978 C 0.90325 0.84337 0.75845 0.0
C979 C 0.92548 0.84051 0.74601 0.0
C980 C 0.92942 0.81584 0.74109 0.0
C981 C 0.91218 0.79444 0.74841 0.0
C982 C 0.92009 0.77017 0.73985 0.0
C983 C 0.92604 0.75204 0.76215 0.0
C984 C 0.89943 0.75669 0.72224 0.0
C985 C 0.94425 0.78123 0.72622 0.0
C986 C 0.94943 0.80758 0.7272 0.0
C987 C 0.97023 0.82202 0.71503 0.0
C988 C 0.986 0.80922 0.70145 0.0
C989 C 0.98094 0.7822 0.70007 0.0
C990 C 0.95982 0.76817 0.71289 0.0
H991 H 0.04499 0.91789 0.50891 0.0
H992 H 0.07513 0.97186 0.56365 0.0
H993 H 0.06459 0.93813 0.59712 0.0
H994 H 0.99221 0.88176 0.54677 0.0
H995 H 0.99642 0.85131 0.53575 0.0
H996 H 1.0037 0.8803 0.51604 0.0
H997 H 0.04971 0.87028 0.51076 0.0
H998 H 0.04258 0.84132 0.53042 0.0
H999 H 0.06974 0.86497 0.53794 0.0
H1000 H 0.05515 0.89847 0.62409 0.0
H1001 H 0.04765 0.85449 0.64349 0.0
H1002 H 0.02245 0.82507 0.57223 0.0
C1003 C 0.04881 0.92268 0.52799 0.0
C1004 C 0.06085 0.94751 0.53373 0.0
C1005 C 0.06609 0.95294 0.55886 0.0
C1006 C 0.06 0.93396 0.57799 0.0
C1007 C 0.04858 0.9096 0.57175 0.0
C1008 C 0.04294 0.90383 0.54741 0.0
C1009 C 0.03236 0.87552 0.54586 0.0
C1010 C 1.00451 0.87203 0.53549 0.0
C1011 C 0.04963 0.86225 0.53033 0.0
C1012 C 0.03359 0.86622 0.57307 0.0
C1013 C 0.04279 0.88637 0.5876 0.0
C1014 C 0.04754 0.88261 0.61301 0.0
C1015 C 0.04327 0.85756 0.62384 0.0
C1016 C 0.03419 0.83652 0.6094 0.0
C1017 C 0.02877 0.84093 0.58375 0.0
H1018 H 0.1458 0.71291 0.80542 0.0
H1019 H 0.21146 0.72933 0.75798 0.0
H1020 H 0.18237 0.73535 0.72161 0.0
H1021 H 0.10298 0.67716 0.76073 0.0
H1022 H 0.07488 0.68932 0.76991 0.0
H1023 H 0.10081 0.6859 0.79213 0.0
H1024 H 0.10422 0.73389 0.80091 0.0
H1025 H 0.07836 0.73748 0.77868 0.0
H1026 H 0.10887 0.75798 0.77551 0.0
H1027 H 0.1467 0.74275 0.69121 0.0
H1028 H 0.10634 0.74745 0.6677 0.0
H1029 H 0.06305 0.72341 0.73401 0.0
C1030 C 0.15397 0.71765 0.78732 0.0
C1031 C 0.18086 0.72071 0.78443 0.0
C1032 C 0.19091 0.72674 0.7605 0.0
C1033 C 0.17455 0.73029 0.7398 0.0
C1034 C 0.14816 0.72735 0.7433 0.0
C1035 C 0.13786 0.72082 0.76638 0.0
C1036 C 0.10876 0.71864 0.76494 0.0
C1037 C 0.09612 0.69112 0.77236 0.0
C1038 C 0.09952 0.73816 0.78096 0.0
C1039 C 0.10434 0.72537 0.73751 0.0
C1040 C 0.1274 0.73051 0.72546 0.0
C1041 C 0.12852 0.73847 0.70037 0.0
C1042 C 0.10551 0.74121 0.68722 0.0
C1043 C 0.08161 0.73568 0.69902 0.0
C1044 C 0.08103 0.72744 0.72447 0.0
H1045 H 0.97251 0.63144 0.52371 0.0
H1046 H 0.04283 0.59824 0.53481 0.0
H1047 H 0.05892 0.63047 0.56504 0.0
H1048 H 1.00498 0.69923 0.52977 0.0
H1049 H 0.97747 0.7076 0.54426 0.0
H1050 H 0.97317 0.68342 0.52193 0.0
H1051 H 0.94768 0.6543 0.55377 0.0
H1052 H 0.9545 0.67467 0.5793 0.0
H1053 H 0.96321 0.64272 0.58142 0.0
H1054 H 0.06782 0.66707 0.59307 0.0
H1055 H 0.06807 0.70405 0.61878 0.0
H1056 H 0.9905 0.71126 0.59262 0.0
C1057 C 0.99136 0.63108 0.53242 0.0
C1058 C 1.00642 0.61228 0.52698 0.0
C1059 C 0.03107 0.61256 0.53857 0.0
C1060 C 0.04033 0.63076 0.55579 0.0
C1061 C 0.02487 0.64881 0.56097 0.0
C1062 C 1.00108 0.64937 0.54935 0.0
C1063 C 0.98823 0.67071 0.55838 0.0
C1064 C 0.98583 0.69147 0.53733 0.0
C1065 C 0.96185 0.66004 0.56893 0.0
C1066 C 1.00772 0.68088 0.57822 0.0
C1067 C 0.02916 0.66862 0.57862 0.0
C1068 C 0.05096 0.67645 0.59329 0.0
C1069 C 0.05094 0.69739 0.60785 0.0
C1070 C 0.02892 0.7096 0.6085 0.0
C1071 C 1.00708 0.70134 0.59336 0.0
H1072 H 0.75546 0.8869 0.20322 0.0
H1073 H 0.75028 0.85486 0.27929 0.0
H1074 H 0.78328 0.8901 0.29258 0.0
H1075 H 0.82099 0.90714 0.20244 0.0
H1076 H 0.82178 0.93821 0.18609 0.0
H1077 H 0.79576 0.91271 0.18039 0.0
H1078 H 0.76094 0.93781 0.19152 0.0
H1079 H 0.78533 0.96534 0.195 0.0
H1080 H 0.76387 0.95414 0.2199 0.0
H1081 H 0.8145 0.92915 0.29815 0.0
H1082 H 0.84656 0.96833 0.29537 0.0
H1083 H 0.83368 0.97535 0.2156 0.0
C1084 C 0.76149 0.88732 0.22261 0.0
C1085 C 0.75051 0.86823 0.2403 0.0
C1086 C 0.7585 0.86942 0.26556 0.0
C1087 C 0.77713 0.88934 0.27325 0.0
C1088 C 0.78735 0.90807 0.25548 0.0
C1089 C 0.77987 0.90738 0.2307 0.0
C1090 C 0.79385 0.93029 0.21562 0.0
C1091 C 0.80905 0.92162 0.19493 0.0
C1092 C 0.77487 0.94794 0.20488 0.0
C1093 C 0.8113 0.94314 0.23566 0.0
C1094 C 0.80653 0.9303 0.25858 0.0
C1095 C 0.81879 0.93912 0.28028 0.0
C1096 C 0.83704 0.96126 0.27851 0.0
C1097 C 0.84333 0.974 0.25519 0.0
C1098 C 0.82974 0.96535 0.23353 0.0
H1099 H 0.75076 0.1386 0.29551 0.0
H1100 H 0.80528 0.20832 0.30158 0.0
H1101 H 0.84115 0.18302 0.3034 0.0
H1102 H 0.78783 0.0963 0.33673 0.0
H1103 H 0.77883 0.06935 0.31789 0.0
H1104 H 0.75733 0.09254 0.31992 0.0
H1105 H 0.75615 0.09996 0.27203 0.0
H1106 H 0.77766 0.07692 0.26986 0.0
H1107 H 0.78588 0.10906 0.25609 0.0
H1108 H 0.87094 0.15142 0.29818 0.0
H1109 H 0.89275 0.11498 0.28921 0.0
H1110 H 0.81959 0.06476 0.28934 0.0
C1111 C 0.77025 0.14835 0.29786 0.0
C1112 C 0.77531 0.17538 0.29845 0.0
C1113 C 0.80102 0.18764 0.30116 0.0
C1114 C 0.8215 0.17342 0.30223 0.0
C1115 C 0.81596 0.14688 0.30094 0.0
C1116 C 0.79096 0.13437 0.29917 0.0
C1117 C 0.79041 0.10584 0.29668 0.0
C1118 C 0.77786 0.09008 0.31915 0.0
C1119 C 0.77672 0.09747 0.27221 0.0
C1120 C 0.81897 0.10441 0.29649 0.0
C1121 C 0.83334 0.12834 0.29901 0.0
C1122 C 0.85996 0.13248 0.29686 0.0
C1123 C 0.87219 0.11173 0.29174 0.0
C1124 C 0.8579 0.08707 0.28923 0.0
C1125 C 0.83101 0.08328 0.29206 0.0
H1126 H 0.42928 0.00911 0.0264 0.0
H1127 H 0.44433 0.03128 0.94891 0.0
H1128 H 0.40259 0.00694 0.93673 0.0
H1129 H 0.39779 0.94421 0.01617 0.0
H1130 H 0.37439 0.94369 0.03966 0.0
H1131 H 0.40548 0.96308 0.04273 0.0
H1132 H 0.38359 1.00321 0.04666 0.0
H1133 H 0.35243 0.98396 0.04349 0.0
H1134 H 0.36104 0.0119 0.02271 0.0
H1135 H 0.35964 0.98205 0.93256 0.0
H1136 H 0.31809 0.95455 0.93578 0.0
H1137 H 0.3295 0.94574 0.01596 0.0
C1138 C 0.42371 0.00872 1.0069 0.0
C1139 C 0.44014 0.02194 0.98855 0.0
C1140 C 0.43227 0.021 0.96322 0.0
C1141 C 0.40851 0.00738 0.95613 0.0
C1142 C 0.39279 0.99461 0.97456 0.0
C1143 C 0.40001 0.99484 0.99941 0.0
C1144 C 0.37939 0.97881 0.01518 0.0
C1145 C 0.38989 0.9561 0.02927 0.0
C1146 C 0.36847 0.99547 0.03307 0.0
C1147 C 0.35949 0.9697 0.99524 0.0
C1148 C 0.36774 0.97936 0.97204 0.0
C1149 C 0.35298 0.97423 0.9506 0.0
C1150 C 0.32923 0.95854 0.95273 0.0
C1151 C 0.32025 0.94775 0.97617 0.0
C1152 C 0.33569 0.95358 0.99778 0.0
H1153 H 0.29893 0.4065 0.32065 0.0
H1154 H 0.2494 0.33525 0.34051 0.0
H1155 H 0.21125 0.35718 0.33339 0.0
H1156 H 0.26104 0.44781 0.35039 0.0
H1157 H 0.26686 0.47367 0.32676 0.0
H1158 H 0.29037 0.45248 0.33351 0.0
H1159 H 0.28878 0.44198 0.28734 0.0
H1160 H 0.26533 0.46318 0.28045 0.0
H1161 H 0.25833 0.43018 0.27262 0.0
H1162 H 0.17838 0.38588 0.32077 0.0
H1163 H 0.15306 0.42028 0.30665 0.0
H1164 H 0.2234 0.47426 0.29859 0.0
C1165 C 0.28003 0.39562 0.32357 0.0
C1166 C 0.27708 0.36914 0.33112 0.0
C1167 C 0.25207 0.35555 0.33489 0.0
C1168 C 0.2303 0.36784 0.33083 0.0
C1169 C 0.2338 0.39391 0.3234 0.0
C1170 C 0.25803 0.40777 0.32011 0.0
C1171 C 0.25635 0.43569 0.31229 0.0
C1172 C 0.26943 0.45346 0.33191 0.0
C1173 C 0.26788 0.44319 0.28665 0.0
C1174 C 0.2274 0.43525 0.31127 0.0
C1175 C 0.21479 0.41086 0.31755 0.0
C1176 C 0.18804 0.40514 0.31628 0.0
C1177 C 0.17381 0.42477 0.30824 0.0
C1178 C 0.18624 0.44997 0.30208 0.0
C1179 C 0.21339 0.45531 0.30389 0.0
H1180 H 0.12973 0.02155 0.53654 0.0
H1181 H 0.1344 0.01344 0.45757 0.0
H1182 H 0.17727 0.03977 0.45776 0.0
H1183 H 0.15421 0.08256 0.53809 0.0
H1184 H 0.17562 0.08325 0.56506 0.0
H1185 H 0.14799 0.0587 0.56316 0.0
H1186 H 0.173 0.02142 0.56834 0.0
H1187 H 0.20154 0.04412 0.57397 0.0
H1188 H 0.20113 0.02147 0.55049 0.0
H1189 H 0.21897 0.06703 0.46597 0.0
H1190 H 0.25445 0.09928 0.48028 0.0
H1191 H 0.22228 0.09279 0.55334 0.0
C1192 C 0.14006 0.02481 0.51943 0.0
C1193 C 0.12867 0.01542 0.49701 0.0
C1194 C 0.14259 0.02061 0.4749 0.0
C1195 C 0.16709 0.03529 0.47487 0.0
C1196 C 0.1776 0.04448 0.49716 0.0
C1197 C 0.16464 0.03946 0.51908 0.0
C1198 C 0.17968 0.0533 0.54004 0.0
C1199 C 0.16348 0.07053 0.55228 0.0
C1200 C 0.18942 0.03392 0.55935 0.0
C1201 C 0.20196 0.06859 0.52592 0.0
C1202 C 0.20095 0.06208 0.50152 0.0
C1203 C 0.21981 0.07256 0.48492 0.0
C1204 C 0.23974 0.09098 0.49313 0.0
C1205 C 0.24026 0.09933 0.51744 0.0
C1206 C 0.22174 0.08726 0.53439 0.0
H1207 H 0.80675 0.14066 0.75099 0.0
H1208 H 0.80521 0.14001 0.67059 0.0
H1209 H 0.77209 0.10176 0.6728 0.0
H1210 H 0.79373 0.06545 0.75987 0.0
H1211 H 0.7766 0.06794 0.78756 0.0
H1212 H 0.80394 0.09158 0.77942 0.0
H1213 H 0.77561 0.12487 0.78412 0.0
H1214 H 0.7455 0.10383 0.78708 0.0
H1215 H 0.75009 0.12847 0.76194 0.0
H1216 H 0.7361 0.06603 0.68338 0.0
H1217 H 0.70035 0.03547 0.70188 0.0
H1218 H 0.72438 0.06077 0.77485 0.0
C1219 C 0.80046 0.13194 0.73384 0.0
C1220 C 0.80843 0.14393 0.71058 0.0
C1221 C 0.79898 0.13186 0.68867 0.0
C1222 C 0.78037 0.10982 0.6897 0.0
C1223 C 0.772 0.09937 0.71284 0.0
C1224 C 0.78242 0.10946 0.73457 0.0
C1225 C 0.76896 0.09546 0.75697 0.0
C1226 C 0.78687 0.07914 0.77183 0.0
C1227 C 0.75935 0.11419 0.77355 0.0
C1228 C 0.74726 0.07837 0.74422 0.0
C1229 C 0.75029 0.07982 0.71886 0.0
C1230 C 0.73353 0.06473 0.70321 0.0
C1231 C 0.71326 0.04757 0.71378 0.0
C1232 C 0.70927 0.04656 0.73953 0.0
C1233 C 0.7266 0.06197 0.75495 0.0
H1234 H 0.44113 0.03334 0.52758 0.0
H1235 H 0.44685 0.03188 0.60826 0.0
H1236 H 0.41717 0.06318 0.60769 0.0
H1237 H 0.43376 0.09954 0.51513 0.0
H1238 H 0.40953 0.09363 0.49081 0.0
H1239 H 0.43297 0.07224 0.49676 0.0
H1240 H 0.39652 0.03369 0.50268 0.0
H1241 H 0.37296 0.05492 0.49655 0.0
H1242 H 0.37219 0.03472 0.52491 0.0
H1243 H 0.38813 0.09561 0.59911 0.0
H1244 H 0.35646 0.12293 0.58348 0.0
H1245 H 0.36378 0.10021 0.50876 0.0
C1246 C 0.43612 0.03931 0.54524 0.0
C1247 C 0.44746 0.03035 0.56795 0.0
C1248 C 0.43986 0.03901 0.59042 0.0
C1249 C 0.42259 0.05672 0.59039 0.0
C1250 C 0.41226 0.06532 0.5678 0.0
C1251 C 0.41822 0.05656 0.54565 0.0
C1252 C 0.40288 0.06784 0.52418 0.0
C1253 C 0.42086 0.08429 0.50563 0.0
C1254 C 0.38508 0.04652 0.51132 0.0
C1255 C 0.38753 0.08438 0.53784 0.0
C1256 C 0.39372 0.08285 0.56295 0.0
C1257 C 0.38294 0.0968 0.57952 0.0
C1258 C 0.36501 0.11242 0.57037 0.0
C1259 C 0.35749 0.11378 0.54487 0.0
C1260 C 0.36903 0.09955 0.52835 0.0
H1261 H 0.61252 0.47713 0.55006 0.0
H1262 H 0.61626 0.54218 0.49613 0.0
H1263 H 0.65339 0.52817 0.47705 0.0
H1264 H 0.68213 0.47667 0.55724 0.0
H1265 H 0.67856 0.44213 0.56024 0.0
H1266 H 0.65357 0.45838 0.5704 0.0
H1267 H 0.62049 0.4317 0.54198 0.0
H1268 H 0.6454 0.41557 0.53153 0.0
H1269 H 0.62621 0.43211 0.50929 0.0
H1270 H 0.68814 0.50507 0.46217 0.0
H1271 H 0.71958 0.47661 0.45428 0.0
H1272 H 0.69318 0.42678 0.51839 0.0
C1273 C 0.62146 0.48863 0.53449 0.0
C1274 C 0.61164 0.51076 0.52451 0.0
C1275 C 0.62366 0.52524 0.50403 0.0
C1276 C 0.64465 0.51736 0.49307 0.0
C1277 C 0.65347 0.49505 0.50295 0.0
C1278 C 0.64243 0.48106 0.52338 0.0
C1279 C 0.65509 0.45746 0.53004 0.0
C1280 C 0.66811 0.45875 0.55602 0.0
C1281 C 0.63563 0.43276 0.52809 0.0
C1282 C 0.67477 0.46016 0.50999 0.0
C1283 C 0.67354 0.48194 0.49454 0.0
C1284 C 0.68941 0.48808 0.4743 0.0
C1285 C 0.70716 0.4717 0.46991 0.0
C1286 C 0.70903 0.4494 0.48571 0.0
C1287 C 0.69244 0.44367 0.50597 0.0
H1288 H 0.68653 0.2632 0.37449 0.0
H1289 H 0.76457 0.26439 0.35075 0.0
H1290 H 0.78047 0.29562 0.38148 0.0
H1291 H 0.6928 0.32952 0.38089 0.0
H1292 H 0.67444 0.32882 0.40844 0.0
H1293 H 0.66707 0.30368 0.38724 0.0
H1294 H 0.67322 0.26813 0.42043 0.0
H1295 H 0.67854 0.29185 0.4432 0.0
H1296 H 0.70198 0.27086 0.43996 0.0
H1297 H 0.78854 0.32469 0.41597 0.0
H1298 H 0.78784 0.35487 0.44857 0.0
H1299 H 0.70461 0.33941 0.44764 0.0
C1300 C 0.70696 0.27006 0.37561 0.0
C1301 C 0.72427 0.26077 0.36029 0.0
C1302 C 0.75087 0.27041 0.36262 0.0
C1303 C 0.76014 0.28835 0.37996 0.0
C1304 C 0.74264 0.29683 0.39482 0.0
C1305 C 0.71659 0.28826 0.39273 0.0
C1306 C 0.70192 0.30147 0.41036 0.0
C1307 C 0.68293 0.31682 0.3959 0.0
C1308 C 0.6881 0.28191 0.42963 0.0
C1309 C 0.72383 0.31899 0.42245 0.0
C1310 C 0.74716 0.31547 0.41349 0.0
C1311 C 0.77037 0.32808 0.42271 0.0
C1312 C 0.76978 0.34531 0.44109 0.0
C1313 C 0.74618 0.35039 0.44965 0.0
C1314 C 0.72288 0.33651 0.44073 0.0
H1315 H 0.55726 0.08747 0.90657 0.0
H1316 H 0.53932 0.01401 0.94782 0.0
H1317 H 0.56192 0.99371 0.91698 0.0
H1318 H 0.54681 0.06344 0.84673 0.0
H1319 H 0.57234 0.08587 0.83282 0.0
H1320 H 0.55618 0.09448 0.85896 0.0
H1321 H 0.59983 0.10409 0.88305 0.0
H1322 H 0.61615 0.09566 0.8569 0.0
H1323 H 0.62041 0.0797 0.88704 0.0
H1324 H 0.58718 0.98173 0.88024 0.0
H1325 H 0.61086 0.97954 0.84183 0.0
H1326 H 0.60959 0.06091 0.82498 0.0
C1327 C 0.55852 0.06719 0.90937 0.0
C1328 C 0.54731 0.05253 0.93005 0.0
C1329 C 0.54846 0.02582 0.93254 0.0
C1330 C 0.56115 0.01411 0.91502 0.0
C1331 C 0.57219 0.02926 0.89486 0.0
C1332 C 0.57084 0.05526 0.89202 0.0
C1333 C 0.58321 0.06733 0.86842 0.0
C1334 C 0.56345 0.07842 0.85069 0.0
C1335 C 0.60627 0.0879 0.87421 0.0
C1336 C 0.5918 0.04416 0.85832 0.0
C1337 C 0.5855 0.02232 0.87374 0.0
C1338 C 0.59208 0.99877 0.86804 0.0
C1339 C 0.60551 0.99767 0.84616 0.0
C1340 C 0.61202 0.01994 0.83011 0.0
C1341 C 0.60482 0.04334 0.8365 0.0
H1342 H 0.32566 0.27374 0.36526 0.0
H1343 H 0.32748 0.34107 0.40697 0.0
H1344 H 0.3318 0.3146 0.44618 0.0
H1345 H 0.28603 0.23244 0.40574 0.0
H1346 H 0.30111 0.20462 0.40193 0.0
H1347 H 0.30198 0.22956 0.37743 0.0
H1348 H 0.35172 0.23402 0.37805 0.0
H1349 H 0.35095 0.20928 0.40289 0.0
H1350 H 0.36975 0.24035 0.40662 0.0
H1351 H 0.33203 0.28009 0.48098 0.0
H1352 H 0.32245 0.24015 0.50798 0.0
H1353 H 0.31979 0.19529 0.44377 0.0
C1354 C 0.32754 0.28295 0.38266 0.0
C1355 C 0.32656 0.30949 0.38314 0.0
C1356 C 0.32828 0.32078 0.40625 0.0
C1357 C 0.33096 0.30593 0.42857 0.0
C1358 C 0.33177 0.27975 0.42751 0.0
C1359 C 0.32983 0.26832 0.40512 0.0
C1360 C 0.32817 0.23943 0.40913 0.0
C1361 C 0.30282 0.22572 0.3979 0.0
C1362 C 0.35154 0.23024 0.39854 0.0
C1363 C 0.32877 0.2363 0.43724 0.0
C1364 C 0.33146 0.25981 0.44755 0.0
C1365 C 0.33044 0.26162 0.47314 0.0
C1366 C 0.32532 0.23885 0.48841 0.0
C1367 C 0.32113 0.21471 0.47801 0.0
C1368 C 0.32373 0.21349 0.45225 0.0
H1369 H 0.48808 0.50756 0.93229 0.0
H1370 H 0.56588 0.50954 0.9083 0.0
H1371 H 0.55141 0.5187 0.86479 0.0
H1372 H 0.4561 0.47648 0.88076 0.0
H1373 H 0.42966 0.49455 0.87956 0.0
H1374 H 0.44663 0.48902 0.90856 0.0
H1375 H 0.45556 0.53811 0.91337 0.0
H1376 H 0.43895 0.54376 0.88413 0.0
H1377 H 0.47161 0.559 0.88914 0.0
H1378 H 0.52741 0.52384 0.82351 0.0
H1379 H 0.49586 0.52439 0.78815 0.0
H1380 H 0.43453 0.52215 0.8394 0.0
C1381 C 0.50203 0.50983 0.91783 0.0
C1382 C 0.52798 0.5072 0.92352 0.0
C1383 C 0.5458 0.51089 0.90422 0.0
C1384 C 0.53779 0.51629 0.87952 0.0
C1385 C 0.51198 0.51848 0.87451 0.0
C1386 C 0.49439 0.51542 0.89316 0.0
C1387 C 0.46764 0.51802 0.88285 0.0
C1388 C 0.44892 0.49304 0.88825 0.0
C1389 C 0.45787 0.5411 0.89298 0.0
C1390 C 0.47279 0.52263 0.85542 0.0
C1391 C 0.4985 0.52286 0.85094 0.0
C1392 C 0.50738 0.52435 0.82683 0.0
C1393 C 0.48944 0.52487 0.80686 0.0
C1394 C 0.46308 0.52439 0.81116 0.0
C1395 C 0.4548 0.52379 0.83569 0.0
H1396 H 0.69606 0.76993 0.12817 0.0
H1397 H 0.76282 0.77978 0.17815 0.0
H1398 H 0.78264 0.74906 0.15536 0.0
H1399 H 0.69457 0.70198 0.12008 0.0
H1400 H 0.68501 0.7049 0.08771 0.0
H1401 H 0.67581 0.72649 0.10887 0.0
H1402 H 0.69699 0.76538 0.0811 0.0
H1403 H 0.70629 0.74392 0.05991 0.0
H1404 H 0.73026 0.76748 0.07342 0.0
H1405 H 0.79532 0.71734 0.12596 0.0
H1406 H 0.80004 0.68902 0.09231 0.0
H1407 H 0.72509 0.70151 0.06163 0.0
C1408 C 0.71467 0.76529 0.13455 0.0
C1409 C 0.72762 0.77666 0.15532 0.0
C1410 C 0.75232 0.77075 0.16264 0.0
C1411 C 0.76373 0.75341 0.14976 0.0
C1412 C 0.75033 0.74236 0.12942 0.0
C1413 C 0.72634 0.74816 0.12186 0.0
C1414 C 0.71628 0.73459 0.09891 0.0
C1415 C 0.69145 0.71588 0.10422 0.0
C1416 C 0.71223 0.754 0.07705 0.0
C1417 C 0.73837 0.72035 0.09459 0.0
C1418 C 0.75781 0.72486 0.11239 0.0
C1419 C 0.78017 0.71369 0.11195 0.0
C1420 C 0.78268 0.6976 0.09276 0.0
C1421 C 0.76303 0.69299 0.07418 0.0
C1422 C 0.74062 0.70458 0.07537 0.0
H1423 H 0.0338 0.03361 0.12484 0.0
H1424 H 0.97499 0.05409 0.07145 0.0
H1425 H 0.94386 0.04894 0.10457 0.0
H1426 H 0.99005 0.9834 0.15863 0.0
H1427 H 1.00565 0.98989 0.18832 0.0
H1428 H 0.02388 0.99577 0.16048 0.0
H1429 H 0.03846 0.04284 0.17137 0.0
H1430 H 0.0201 0.03719 0.19911 0.0
H1431 H 0.01458 0.06278 0.17662 0.0
H1432 H 0.91977 0.04484 0.14356 0.0
H1433 H 0.90236 0.03628 0.18551 0.0
H1434 H 0.97437 0.01317 0.21332 0.0
C1435 C 0.01432 0.03668 0.11993 0.0
C1436 C 1.00729 0.04502 0.0954 0.0
C1437 C 0.98142 0.04876 0.0901 0.0
C1438 C 0.96339 0.04561 0.10879 0.0
C1439 C 0.97115 0.03802 0.13273 0.0
C1440 C 0.99579 0.03302 0.13831 0.0
C1441 C 0.99872 0.02426 0.16554 0.0
C1442 C 1.00494 0.99669 0.16841 0.0
C1443 C 0.01918 0.04288 0.17894 0.0
C1444 C 0.97197 0.02553 0.17437 0.0
C1445 C 0.95654 0.03385 0.15511 0.0
C1446 C 0.93152 0.03797 0.15873 0.0
C1447 C 0.92186 0.03321 0.18263 0.0
C1448 C 0.93699 0.02399 0.20254 0.0
C1449 C 0.96234 0.01996 0.19832 0.0
H1450 H 0.29363 0.79449 0.16667 0.0
H1451 H 0.35045 0.75369 0.13827 0.0
H1452 H 0.34705 0.7774 0.0974 0.0
H1453 H 0.2536 0.7965 0.11142 0.0
H1454 H 0.24676 0.82836 0.11527 0.0
H1455 H 0.25375 0.80801 0.14204 0.0
H1456 H 0.29052 0.84317 0.15565 0.0
H1457 H 0.28376 0.86357 0.12881 0.0
H1458 H 0.31564 0.85553 0.13442 0.0
H1459 H 0.33616 0.80489 0.05902 0.0
H1460 H 0.31931 0.83421 0.02681 0.0
H1461 H 0.27102 0.85818 0.08109 0.0
C1462 C 0.30516 0.7904 0.15174 0.0
C1463 C 0.32169 0.77169 0.15542 0.0
C1464 C 0.33711 0.76741 0.1357 0.0
C1465 C 0.33542 0.78091 0.11246 0.0
C1466 C 0.31861 0.79898 0.10938 0.0
C1467 C 0.30386 0.80382 0.12855 0.0
C1468 C 0.28746 0.82433 0.12059 0.0
C1469 C 0.25869 0.81365 0.12243 0.0
C1470 C 0.29479 0.84805 0.13577 0.0
C1471 C 0.29505 0.83011 0.09383 0.0
C1472 C 0.31304 0.81532 0.08768 0.0
C1473 C 0.32223 0.81671 0.06371 0.0
C1474 C 0.31257 0.83343 0.04554 0.0
C1475 C 0.29402 0.84865 0.05146 0.0
C1476 C 0.28544 0.84708 0.07603 0.0
H1477 H 0.0193 0.52865 0.10902 0.0
H1478 H 1.00084 0.44553 0.11485 0.0
H1479 H 0.02658 0.44396 0.15379 0.0
H1480 H 0.08375 0.53277 0.13214 0.0
H1481 H 0.0832 0.56041 0.14971 0.0
H1482 H 0.06243 0.55553 0.12259 0.0
H1483 H 0.02275 0.55761 0.14865 0.0
H1484 H 0.04343 0.56271 0.17582 0.0
H1485 H 0.01711 0.53652 0.17621 0.0
H1486 H 0.0567 0.45067 0.19027 0.0
H1487 H 0.08675 0.46566 0.22421 0.0
H1488 H 0.08446 0.54463 0.197 0.0
C1489 C 0.02032 0.51017 0.11871 0.0
C1490 C 1.00826 0.48717 0.10854 0.0
C1491 C 0.01031 0.46339 0.12184 0.0
C1492 C 0.02479 0.46228 0.14411 0.0
C1493 C 0.03697 0.48513 0.15325 0.0
C1494 C 0.03466 0.50869 0.14123 0.0
C1495 C 0.05005 0.53028 0.15516 0.0
C1496 C 0.0711 0.54565 0.13893 0.0
C1497 C 0.03227 0.54782 0.16452 0.0
C1498 C 0.06159 0.51509 0.17659 0.0
C1499 C 0.05382 0.48907 0.17499 0.0
C1500 C 0.06271 0.47102 0.1919 0.0
C1501 C 0.0799 0.47974 0.21107 0.0
C1502 C 0.08794 0.50632 0.21343 0.0
C1503 C 0.0785 0.52419 0.19592 0.0
H1504 H 0.38038 0.74771 0.25713 0.0
H1505 H 0.3799 0.66541 0.25918 0.0
H1506 H 0.41201 0.66844 0.29384 0.0
H1507 H 0.45065 0.76393 0.27335 0.0
H1508 H 0.44521 0.79004 0.2912 0.0
H1509 H 0.42437 0.78134 0.26488 0.0
H1510 H 0.38634 0.77759 0.29311 0.0
H1511 H 0.40588 0.78299 0.32093 0.0
H1512 H 0.38307 0.75387 0.31868 0.0
H1513 H 0.44394 0.68018 0.32819 0.0
H1514 H 0.47434 0.70022 0.35989 0.0
H1515 H 0.45191 0.7743 0.33807 0.0
C1516 C 0.38755 0.73045 0.26445 0.0
C1517 C 0.37758 0.70629 0.2555 0.0
C1518 C 0.38711 0.68407 0.2659 0.0
C1519 C 0.40538 0.6856 0.28555 0.0
C1520 C 0.4141 0.70953 0.29455 0.0
C1521 C 0.40588 0.73164 0.28412 0.0
C1522 C 0.41785 0.75483 0.29782 0.0
C1523 C 0.43558 0.77364 0.2808 0.0
C1524 C 0.39708 0.76812 0.30832 0.0
C1525 C 0.43326 0.74213 0.31819 0.0
C1526 C 0.43127 0.71606 0.31554 0.0
C1527 C 0.44538 0.70048 0.33071 0.0
C1528 C 0.46245 0.71194 0.34871 0.0
C1529 C 0.46457 0.73847 0.35197 0.0
C1530 C 0.44968 0.75374 0.33662 0.0
H1531 H 0.97153 0.40935 0.99877 0.0
H1532 H 0.05277 0.43953 1.00205 0.0
H1533 H 0.06258 0.40071 0.98369 0.0
H1534 H 0.97859 0.34136 0.01311 0.0
H1535 H 0.9526 0.33003 0.99199 0.0
H1536 H 0.95228 0.35933 1.00703 0.0
H1537 H 0.94772 0.38369 0.96412 0.0
H1538 H 0.94814 0.35452 0.94897 0.0
H1539 H 0.97107 0.38256 0.94094 0.0
H1540 H 0.0631 0.3599 0.96151 0.0
H1541 H 0.05418 0.32039 0.93856 0.0
H1542 H 0.97278 0.3163 0.9514 0.0
C1543 C 0.9914 0.40745 0.99616 0.0
C1544 C 0.01144 0.4272 1.00238 0.0
C1545 C 0.03717 0.42441 0.99791 0.0
C1546 C 0.04292 0.40244 0.98743 0.0
C1547 C 0.02273 0.38333 0.98147 0.0
C1548 C 0.99749 0.38554 0.98584 0.0
C1549 C 0.97926 0.36278 0.97681 0.0
C1550 C 0.96484 0.34747 0.99853 0.0
C1551 C 0.96045 0.37141 0.95651 0.0
C1552 C 0.99811 0.34766 0.96631 0.0
C1553 C 0.02311 0.35977 0.96914 0.0
C1554 C 0.04361 0.35007 0.95952 0.0
C1555 C 0.03837 0.32759 0.94649 0.0
C1556 C 0.01283 0.31492 0.94328 0.0
C1557 C 0.99261 0.32511 0.95373 0.0
H1558 H 0.6809 0.81161 0.28858 0.0
H1559 H 0.63883 0.82967 0.22068 0.0
H1560 H 0.59937 0.82857 0.24459 0.0
H1561 H 0.62891 0.76672 0.31585 0.0
H1562 H 0.63731 0.77592 0.34697 0.0
H1563 H 0.66182 0.77862 0.3243 0.0
H1564 H 0.67472 0.82671 0.33245 0.0
H1565 H 0.64993 0.82426 0.35483 0.0
H1566 H 0.65077 0.84781 0.32895 0.0
H1567 H 0.56501 0.82691 0.27657 0.0
H1568 H 0.53694 0.81884 0.31269 0.0
H1569 H 0.60142 0.80001 0.35931 0.0
C1570 C 0.66327 0.81511 0.2788 0.0
C1571 C 0.66269 0.82068 0.25288 0.0
C1572 C 0.63943 0.82516 0.24055 0.0
C1573 C 0.61708 0.82479 0.254 0.0
C1574 C 0.61836 0.81964 0.27968 0.0
C1575 C 0.64077 0.8144 0.29187 0.0
C1576 C 0.63687 0.80833 0.31938 0.0
C1577 C 0.64149 0.78076 0.32707 0.0
C1578 C 0.6541 0.82795 0.3348 0.0
C1579 C 0.60879 0.81108 0.32087 0.0
C1580 C 0.59852 0.81794 0.29785 0.0
C1581 C 0.57286 0.82147 0.29465 0.0
C1582 C 0.5571 0.81703 0.31534 0.0
C1583 C 0.56698 0.80886 0.33886 0.0
C1584 C 0.59331 0.80637 0.34163 0.0
H1585 H 0.02281 0.12116 0.03989 0.0
H1586 H 0.05196 0.07461 0.98755 0.0
H1587 H 0.04497 0.10668 0.95376 0.0
H1588 H 0.97149 0.13883 0.99898 0.0
H1589 H 0.97391 0.1707 0.00963 0.0
H1590 H 0.9827 0.14494 0.03028 0.0
H1591 H 0.02773 0.17118 0.03787 0.0
H1592 H 0.01908 0.19704 0.01728 0.0
H1593 H 0.0473 0.18307 0.01175 0.0
H1594 H 0.03547 0.14379 0.92558 0.0
H1595 H 0.02246 0.18292 0.90445 0.0
H1596 H 0.99513 0.20361 0.97374 0.0
C1597 C 0.02753 0.1174 0.02135 0.0
C1598 C 0.03821 0.09514 0.0167 0.0
C1599 C 0.04443 0.09161 0.99201 0.0
C1600 C 0.04026 0.10965 0.97252 0.0
C1601 C 0.02947 0.13105 0.9778 0.0
C1602 C 0.02299 0.13495 1.00155 0.0
C1603 C 0.01089 0.15925 1.00199 0.0
C1604 C 0.9831 0.15305 0.01074 0.0
C1605 C 0.02723 0.17879 0.01818 0.0
C1606 C 0.01168 0.16845 0.97474 0.0
C1607 C 0.02272 0.15195 0.96123 0.0
C1608 C 0.02662 0.15673 0.93592 0.0
C1609 C 0.0192 0.17902 0.9241 0.0
C1610 C 1.00764 0.19614 0.93743 0.0
C1611 C 1.00357 0.19063 0.96306 0.0
H1612 H 0.36014 0.27711 0.26857 0.0
H1613 H 0.38566 0.35914 0.26151 0.0
H1614 H 0.42278 0.352 0.23747 0.0
H1615 H 0.42356 0.25728 0.27465 0.0
H1616 H 0.41404 0.22973 0.25669 0.0
H1617 H 0.39068 0.24153 0.27447 0.0
H1618 H 0.36189 0.24572 0.23474 0.0
H1619 H 0.38521 0.23409 0.21684 0.0
H1620 H 0.37502 0.26456 0.20786 0.0
H1621 H 0.45641 0.33531 0.21245 0.0
H1622 H 0.48302 0.31092 0.18918 0.0
H1623 H 0.43444 0.24008 0.21285 0.0
C1624 C 0.3738 0.29354 0.26235 0.0
C1625 C 0.37038 0.31867 0.26736 0.0
C1626 C 0.38828 0.33972 0.2583 0.0
C1627 C 0.40933 0.33582 0.24458 0.0
C1628 C 0.41212 0.31075 0.23992 0.0
C1629 C 0.39481 0.28999 0.24863 0.0
C1630 C 0.40141 0.26504 0.24041 0.0
C1631 C 0.40781 0.24736 0.2629 0.0
C1632 C 0.37959 0.25157 0.22399 0.0
C1633 C 0.42503 0.27494 0.22556 0.0
C1634 C 0.43104 0.30131 0.22549 0.0
C1635 C 0.4519 0.31462 0.21252 0.0
C1636 C 0.46692 0.3006 0.19933 0.0
C1637 C 0.461 0.2735 0.19912 0.0
C1638 C 0.43973 0.26072 0.21257 0.0
H1639 H 0.5885 0.41744 0.04455 0.0
H1640 H 0.51302 0.42998 0.01513 0.0
H1641 H 0.49344 0.39125 0.03939 0.0
H1642 H 0.57811 0.34922 0.04665 0.0
H1643 H 0.59566 0.34531 0.07568 0.0
H1644 H 0.60396 0.37372 0.05548 0.0
H1645 H 0.5977 0.40216 0.0912 0.0
H1646 H 0.58946 0.37384 0.11155 0.0
H1647 H 0.56763 0.39702 0.10689 0.0
H1648 H 0.48205 0.35011 0.0659 0.0
H1649 H 0.47961 0.31129 0.0946 0.0
H1650 H 0.56184 0.32767 0.10956 0.0
C1651 C 0.56781 0.41239 0.04337 0.0
C1652 C 0.55246 0.42691 0.02755 0.0
C1653 C 0.52544 0.41905 0.02649 0.0
C1654 C 0.51404 0.39712 0.04042 0.0
C1655 C 0.52977 0.38333 0.05569 0.0
C1656 C 0.55604 0.39081 0.05746 0.0
C1657 C 0.56857 0.3729 0.07565 0.0
C1658 C 0.5877 0.35949 0.06258 0.0
C1659 C 0.5816 0.38735 0.09762 0.0
C1660 C 0.54525 0.35407 0.08371 0.0
C1661 C 0.52307 0.36031 0.07182 0.0
C1662 C 0.49926 0.34519 0.0755 0.0
C1663 C 0.49806 0.32315 0.09178 0.0
C1664 C 0.52047 0.3166 0.10446 0.0
C1665 C 0.54432 0.33239 0.1004 0.0
H1666 H 0.67438 0.23122 0.26025 0.0
H1667 H 0.63582 0.21751 0.33026 0.0
H1668 H 0.59366 0.21606 0.30784 0.0
H1669 H 0.6314 0.27341 0.23161 0.0
H1670 H 0.63264 0.26195 0.20113 0.0
H1671 H 0.65966 0.26138 0.22263 0.0
H1672 H 0.65768 0.21266 0.21792 0.0
H1673 H 0.6306 0.21307 0.19648 0.0
H1674 H 0.62811 0.19135 0.22384 0.0
H1675 H 0.55587 0.21358 0.27775 0.0
H1676 H 0.52476 0.21492 0.24241 0.0
H1677 H 0.58764 0.23386 0.19177 0.0
C1678 C 0.65699 0.22795 0.27076 0.0
C1679 C 0.65817 0.22431 0.29693 0.0
C1680 C 0.63518 0.22036 0.31021 0.0
C1681 C 0.61122 0.21942 0.29763 0.0
C1682 C 0.61065 0.22292 0.2718 0.0
C1683 C 0.63292 0.22752 0.25851 0.0
C1684 C 0.6269 0.23151 0.23091 0.0
C1685 C 0.63833 0.25868 0.22099 0.0
C1686 C 0.63639 0.21092 0.21644 0.0
C1687 C 0.59776 0.22815 0.23073 0.0
C1688 C 0.58882 0.22288 0.25451 0.0
C1689 C 0.56265 0.21795 0.25908 0.0
C1690 C 0.54513 0.21864 0.23887 0.0
C1691 C 0.55377 0.22463 0.21437 0.0
C1692 C 0.58049 0.22951 0.21032 0.0
H1693 H 0.52732 0.09941 0.04563 0.0
H1694 H 0.4481 0.10145 0.02058 0.0
H1695 H 0.44589 0.13666 0.04729 0.0
H1696 H 0.52089 0.11181 0.1071 0.0
H1697 H 0.55009 0.13399 0.11163 0.0
H1698 H 0.54858 0.10981 0.08949 0.0
H1699 H 0.56075 0.14221 0.05314 0.0
H1700 H 0.56519 0.1673 0.07452 0.0
H1701 H 0.54411 0.16955 0.04755 0.0
H1702 H 0.45194 0.17227 0.07541 0.0
H1703 H 0.4659 0.20583 0.10466 0.0
H1704 H 0.54104 0.18182 0.11257 0.0
C1705 C 0.50956 0.10738 0.04559 0.0
C1706 C 0.48772 0.09707 0.03122 0.0
C1707 C 0.4649 0.10822 0.03188 0.0
C1708 C 0.46349 0.12851 0.04683 0.0
C1709 C 0.48515 0.13791 0.06091 0.0
C1710 C 0.50785 0.12795 0.06032 0.0
C1711 C 0.5283 0.14195 0.07728 0.0
C1712 C 0.53752 0.12332 0.09762 0.0
C1713 C 0.55093 0.15609 0.06222 0.0
C1714 C 0.51326 0.16085 0.08789 0.0
C1715 C 0.4885 0.15831 0.07783 0.0
C1716 C 0.47115 0.17421 0.08368 0.0
C1717 C 0.47916 0.19308 0.10046 0.0
C1718 C 0.50409 0.19563 0.11164 0.0
C1719 C 0.52158 0.17968 0.10485 0.0
H1720 H 0.25582 0.389 0.69531 0.0
H1721 H 0.25134 0.3533 0.77016 0.0
H1722 H 0.2867 0.38568 0.78403 0.0
H1723 H 0.32446 0.40507 0.69527 0.0
H1724 H 0.326 0.43632 0.67916 0.0
H1725 H 0.29937 0.4115 0.67325 0.0
H1726 H 0.26618 0.43899 0.68437 0.0
H1727 H 0.29175 0.46523 0.68898 0.0
H1728 H 0.26954 0.45431 0.71333 0.0
H1729 H 0.31829 0.42374 0.79123 0.0
H1730 H 0.35152 0.46202 0.79 0.0
H1731 H 0.33944 0.47257 0.71034 0.0
C1732 C 0.2626 0.38792 0.71449 0.0
C1733 C 0.25067 0.36888 0.73177 0.0
C1734 C 0.25997 0.368 0.75675 0.0
C1735 C 0.28001 0.38628 0.76482 0.0
C1736 C 0.29076 0.40531 0.74767 0.0
C1737 C 0.2828 0.40617 0.72296 0.0
C1738 C 0.29802 0.42892 0.70864 0.0
C1739 C 0.31288 0.41994 0.68787 0.0
C1740 C 0.28031 0.44799 0.69822 0.0
C1741 C 0.31593 0.4403 0.72916 0.0
C1742 C 0.3108 0.42659 0.75158 0.0
C1743 C 0.32309 0.43421 0.7737 0.0
C1744 C 0.342 0.45586 0.77282 0.0
C1745 C 0.34893 0.46921 0.74995 0.0
C1746 C 0.33511 0.46196 0.72792 0.0
H1747 H 0.30685 0.68295 0.77984 0.0
H1748 H 0.28068 0.654 0.85291 0.0
H1749 H 0.30472 0.61743 0.85122 0.0
H1750 H 0.30373 0.62185 0.75361 0.0
H1751 H 0.33243 0.63113 0.7361 0.0
H1752 H 0.31325 0.65497 0.74314 0.0
H1753 H 0.35321 0.68121 0.76365 0.0
H1754 H 0.37249 0.65736 0.75679 0.0
H1755 H 0.37092 0.66609 0.78826 0.0
H1756 H 0.33041 0.58345 0.84106 0.0
H1757 H 0.35643 0.55446 0.82353 0.0
H1758 H 0.36742 0.60596 0.75738 0.0
C1759 C 0.30607 0.66879 0.7954 0.0
C1760 C 0.2914 0.67093 0.8163 0.0
C1761 C 0.29134 0.65239 0.83654 0.0
C1762 C 0.30503 0.63166 0.83577 0.0
C1763 C 0.31904 0.62994 0.81478 0.0
C1764 C 0.31977 0.64804 0.79499 0.0
C1765 C 0.33641 0.6417 0.77468 0.0
C1766 C 0.3205 0.63713 0.75045 0.0
C1767 C 0.35963 0.66285 0.77062 0.0
C1768 C 0.34471 0.61704 0.78604 0.0
C1769 C 0.33446 0.61065 0.80919 0.0
C1770 C 0.33867 0.58835 0.82303 0.0
C1771 C 0.35349 0.57199 0.81289 0.0
C1772 C 0.36412 0.57798 0.78915 0.0
C1773 C 0.35985 0.60101 0.7757 0.0
H1774 H 0.94396 0.50854 0.48603 0.0
H1775 H 0.91834 0.57455 0.51539 0.0
H1776 H 0.87551 0.54931 0.52151 0.0
H1777 H 0.88656 0.49112 0.45013 0.0
H1778 H 0.88751 0.45715 0.45464 0.0
H1779 H 0.91692 0.47951 0.45527 0.0
H1780 H 0.92864 0.46006 0.49888 0.0
H1781 H 0.89911 0.43778 0.49848 0.0
H1782 H 0.90644 0.45865 0.52361 0.0
H1783 H 0.83455 0.51677 0.52351 0.0
H1784 H 0.79837 0.48161 0.51665 0.0
H1785 H 0.84997 0.43923 0.48224 0.0
C1786 C 0.92946 0.51799 0.49356 0.0
C1787 C 0.93501 0.5437 0.50041 0.0
C1788 C 0.91514 0.55477 0.51056 0.0
C1789 C 0.89057 0.5406 0.514 0.0
C1790 C 0.88588 0.51542 0.50693 0.0
C1791 C 0.90471 0.50437 0.49659 0.0
C1792 C 0.89433 0.47773 0.48868 0.0
C1793 C 0.89645 0.47631 0.46051 0.0
C1794 C 0.90794 0.45736 0.50329 0.0
C1795 C 0.86661 0.47559 0.49594 0.0
C1796 C 0.86217 0.49729 0.50691 0.0
C1797 C 0.83785 0.49969 0.51498 0.0
C1798 C 0.81748 0.47965 0.51117 0.0
C1799 C 0.82159 0.45786 0.49907 0.0
C1800 C 0.84647 0.45572 0.49164 0.0
H1801 H 0.80707 0.89681 0.82234 0.0
H1802 H 0.75519 0.82549 0.83582 0.0
H1803 H 0.71816 0.8492 0.83134 0.0
H1804 H 0.77078 0.93689 0.85524 0.0
H1805 H 0.77756 0.9642 0.83332 0.0
H1806 H 0.80017 0.94184 0.83846 0.0
H1807 H 0.79845 0.93471 0.79146 0.0
H1808 H 0.77597 0.95714 0.78618 0.0
H1809 H 0.76782 0.92505 0.77606 0.0
H1810 H 0.68654 0.88007 0.82236 0.0
H1811 H 0.66268 0.9161 0.81045 0.0
H1812 H 0.73464 0.96805 0.80461 0.0
C1813 C 0.78791 0.8862 0.82439 0.0
C1814 C 0.7841 0.85923 0.82956 0.0
C1815 C 0.75869 0.84613 0.83222 0.0
C1816 C 0.7375 0.85944 0.82962 0.0
C1817 C 0.74192 0.88596 0.82456 0.0
C1818 C 0.7665 0.89926 0.8221 0.0
C1819 C 0.76586 0.92772 0.81623 0.0
C1820 C 0.7794 0.9436 0.83706 0.0
C1821 C 0.77772 0.93667 0.79098 0.0
C1822 C 0.73708 0.92828 0.81536 0.0
C1823 C 0.72365 0.90394 0.8202 0.0
C1824 C 0.69686 0.89925 0.81891 0.0
C1825 C 0.68346 0.91984 0.81216 0.0
C1826 C 0.69675 0.94493 0.80705 0.0
C1827 C 0.72394 0.94921 0.80907 0.0
H1828 H 0.64348 0.50486 0.98352 0.0
H1829 H 0.60406 0.5084 0.05172 0.0
H1830 H 0.64037 0.53959 0.06666 0.0
H1831 H 0.71046 0.51297 0.01471 0.0
H1832 H 0.72398 0.53066 0.98739 0.0
H1833 H 0.69677 0.5057 0.98446 0.0
H1834 H 0.67512 0.53803 0.95873 0.0
H1835 H 0.69802 0.56617 0.96435 0.0
H1836 H 0.66485 0.56409 0.97288 0.0
H1837 H 0.68092 0.57055 0.07398 0.0
H1838 H 0.72121 0.60163 0.07186 0.0
H1839 H 0.73198 0.58141 0.99718 0.0
C1840 C 0.64274 0.51192 1.00177 0.0
C1841 C 0.62102 0.50426 0.01651 0.0
C1842 C 0.62065 0.51386 0.04027 0.0
C1843 C 0.64118 0.53155 0.04889 0.0
C1844 C 0.66211 0.53909 0.03371 0.0
C1845 C 0.66326 0.52925 0.01083 0.0
C1846 C 0.68748 0.54134 0.99772 0.0
C1847 C 0.70575 0.52149 0.99598 0.0
C1848 C 0.68109 0.55322 0.9719 0.0
C1849 C 0.69846 0.5613 0.01573 0.0
C1850 C 0.68426 0.55867 0.03695 0.0
C1851 C 0.69197 0.57307 0.05733 0.0
C1852 C 0.71477 0.59067 0.05597 0.0
C1853 C 0.72885 0.5946 0.034 0.0
C1854 C 0.72076 0.57954 0.01373 0.0
H1855 H 0.28375 0.64539 0.1979 0.0
H1856 H 0.29022 0.67553 0.27093 0.0
H1857 H 0.25571 0.64161 0.28539 0.0
H1858 H 0.21574 0.6288 0.19579 0.0
H1859 H 0.21348 0.5985 0.18182 0.0
H1860 H 0.24 0.62364 0.17518 0.0
H1861 H 0.27385 0.59583 0.18981 0.0
H1862 H 0.2486 0.56905 0.1949 0.0
H1863 H 0.27138 0.57831 0.21967 0.0
H1864 H 0.22487 0.60281 0.29359 0.0
H1865 H 0.19207 0.56444 0.29356 0.0
H1866 H 0.20117 0.55973 0.21471 0.0
C1867 C 0.27759 0.64495 0.2168 0.0
C1868 C 0.28981 0.66292 0.23341 0.0
C1869 C 0.28137 0.66173 0.25805 0.0
C1870 C 0.26182 0.64255 0.26644 0.0
C1871 C 0.25074 0.62468 0.24996 0.0
C1872 C 0.25793 0.62575 0.22559 0.0
C1873 C 0.24249 0.60388 0.21199 0.0
C1874 C 0.22696 0.61429 0.18989 0.0
C1875 C 0.26014 0.5857 0.2036 0.0
C1876 C 0.22521 0.59082 0.2325 0.0
C1877 C 0.231 0.60292 0.25433 0.0
C1878 C 0.21956 0.59358 0.27648 0.0
C1879 C 0.20088 0.57184 0.27625 0.0
C1880 C 0.19318 0.56001 0.25392 0.0
C1881 C 0.20609 0.56906 0.23184 0.0
H1882 H 0.93386 0.52887 0.08198 0.0
H1883 H 0.95364 0.52261 1.00559 0.0
H1884 H 0.92187 0.55029 0.99126 0.0
H1885 H 0.86722 0.52981 0.07179 0.0
H1886 H 0.86503 0.55382 0.09336 0.0
H1887 H 0.88943 0.53336 0.09806 0.0
H1888 H 0.92469 0.57326 0.09878 0.0
H1889 H 0.90037 0.59387 0.09423 0.0
H1890 H 0.92646 0.59715 0.07314 0.0
H1891 H 0.88527 0.57568 0.98461 0.0
H1892 H 0.84981 0.60119 0.98665 0.0
H1893 H 0.85687 0.5958 0.06698 0.0
C1894 C 0.93194 0.53358 0.06225 0.0
C1895 C 0.94615 0.52275 0.04502 0.0
C1896 C 0.94257 0.52961 0.01933 0.0
C1897 C 0.92466 0.54565 0.01091 0.0
C1898 C 0.91068 0.55541 0.02831 0.0
C1899 C 0.91445 0.55009 0.05347 0.0
C1900 C 0.8971 0.56354 0.0682 0.0
C1901 C 0.8786 0.54396 0.08377 0.0
C1902 C 0.91311 0.58312 0.08455 0.0
C1903 C 0.88276 0.57685 0.04735 0.0
C1904 C 0.89075 0.57165 0.02448 0.0
C1905 C 0.87919 0.58029 1.00242 0.0
C1906 C 0.85902 0.59469 1.00373 0.0
C1907 C 0.85089 0.60081 0.0269 0.0
C1908 C 0.86309 0.59189 0.04898 0.0
H1909 H 0.10776 0.96371 0.05939 0.0
H1910 H 0.10734 0.02861 1.00573 0.0
H1911 H 0.1457 0.01739 0.9865 0.0
H1912 H 0.17824 0.96758 0.06617 0.0
H1913 H 0.17687 0.9332 0.06881 0.0
H1914 H 0.1507 0.94751 0.07942 0.0
H1915 H 0.11886 0.91949 0.051 0.0
H1916 H 0.14491 0.9052 0.04022 0.0
H1917 H 0.12451 0.92058 0.01825 0.0
H1918 H 0.18159 0.99698 0.97108 0.0
H1919 H 0.21367 0.97006 0.96131 0.0
H1920 H 0.19167 0.91858 0.02559 0.0
C1921 C 0.11606 0.9758 0.04387 0.0
C1922 C 0.10476 0.99717 0.03407 0.0
C1923 C 0.1159 0.01233 0.01356 0.0
C1924 C 0.13762 1.00605 1.00254 0.0
C1925 C 0.14806 0.98462 0.01237 0.0
C1926 C 0.1378 0.96983 0.0327 0.0
C1927 C 0.1521 0.94721 0.03901 0.0
C1928 C 0.16526 0.94899 0.06489 0.0
C1929 C 0.13402 0.92161 0.03699 0.0
C1930 C 0.17172 0.95132 0.01878 0.0
C1931 C 0.16904 0.97303 1.00366 0.0
C1932 C 0.18405 0.98012 0.98298 0.0
C1933 C 0.2022 0.96461 0.97754 0.0
C1934 C 0.20539 0.94224 0.99275 0.0
C1935 C 0.19002 0.93573 0.0138 0.0
loop_
_geom_bond_atom_site_label_1
_geom_bond_atom_site_label_2
_geom_bond_distance
_geom_bond_site_symmetry_2
_ccdc_geom_bond_type
H0 C7 0.929 1_655 S
H1 C10 0.930 . S
H2 C12 0.929 1_556 S
H3 C4 0.969 . S
C4 H3 0.969 . S
C4 O5 1.550 1_565 S
C4 H6 0.973 . S
O5 C4 1.550 1_545 S
O5 C11 1.412 . S
H6 C4 0.973 . S
C7 H0 0.929 1_455 S
C7 C8 1.400 . S
C7 C9 1.364 . S
C8 C7 1.400 . S
C8 C12 1.377 . S
C9 C7 1.364 . S
C9 C10 1.374 . S
C10 H1 0.930 . S
C10 C9 1.374 . S
C10 C11 1.383 . S
C11 O5 1.412 . S
C11 C10 1.383 . S
C11 C12 1.394 . S
C12 H2 0.929 1_554 S
C12 C8 1.377 . S
C12 C11 1.394 . S
H13 C20 0.929 . S
H14 C23 0.930 . S
H15 C25 0.929 . S
H16 C17 0.969 . S
C17 H16 0.969 . S
C17 O18 1.550 . S
C17 H19 0.973 . S
O18 C17 1.550 . S
O18 C24 1.412 . S
H19 C17 0.973 . S
C20 H13 0.929 . S
C20 C21 1.400 . S
C20 C22 1.364 . S
C21 C20 1.400 . S
C21 C25 1.377 . S
C22 C20 1.364 . S
C22 C23 1.374 . S
C23 H14 0.930 . S
C23 C22 1.374 . S
C23 C24 1.383 . S
C24 O18 1.412 . S
C24 C23 1.383 . S
C24 C25 1.394 . S
C25 H15 0.929 . S
C25 C21 1.377 . S
C25 C24 1.394 . S
H26 C33 0.929 . S
H27 C36 0.930 . S
H28 C38 0.921 1_455 S
H29 C30 0.983 . S
C30 H29 0.983 . S
C30 O31 1.550 . S
C30 H32 0.973 . S
O31 C30 1.550 . S
O31 C37 1.412 . S
H32 C30 0.973 . S
C33 H26 0.929 . S
C33 C34 1.400 . S
C33 C35 1.364 . S
C34 C33 1.400 . S
C34 C38 1.380 . S
C35 C33 1.364 . S
C35 C36 1.374 . S
C36 H27 0.930 . S
C36 C35 1.374 . S
C36 C37 1.383 . S
C37 O31 1.412 . S
C37 C36 1.383 . S
C37 C38 1.399 . S
C38 H28 0.921 1_655 S
C38 C34 1.380 . S
C38 C37 1.399 . S
H39 C46 0.929 . S
H40 C49 0.930 . S
H41 C51 0.929 . S
H42 C43 0.969 . S
C43 H42 0.969 . S
C43 O44 1.550 . S
C43 H45 0.973 . S
O44 C43 1.550 . S
O44 C50 1.412 . S
H45 C43 0.973 . S
C46 H39 0.929 . S
C46 C47 1.400 . S
C46 C48 1.364 . S
C47 C46 1.400 . S
C47 C51 1.377 . S
C48 C46 1.364 . S
C48 C49 1.374 . S
C49 H40 0.930 . S
C49 C48 1.374 . S
C49 C50 1.383 . S
C50 O44 1.412 . S
C50 C49 1.383 . S
C50 C51 1.394 . S
C51 H41 0.929 . S
C51 C47 1.377 . S
C51 C50 1.394 . S
H52 C59 0.929 . S
H53 C62 0.930 . S
H54 C64 0.929 . S
H55 C56 0.969 1_655 S
C56 H55 0.969 1_455 S
C56 O57 1.550 . S
C56 H58 0.973 . S
O57 C56 1.550 . S
O57 C63 1.412 . S
H58 C56 0.973 . S
C59 H52 0.929 . S
C59 C60 1.400 . S
C59 C61 1.364 . S
C60 C59 1.400 . S
C60 C64 1.377 1_565 S
C61 C59 1.364 . S
C61 C62 1.374 . S
C62 H53 0.930 . S
C62 C61 1.374 . S
C62 C63 1.383 . S
C63 O57 1.412 . S
C63 C62 1.383 . S
C63 C64 1.394 1_565 S
C64 H54 0.929 . S
C64 C60 1.377 1_545 S
C64 C63 1.394 1_545 S
H65 C72 0.929 . S
H66 C75 0.930 . S
H67 C77 0.929 . S
H68 C69 0.969 . S
C69 H68 0.969 . S
C69 O70 1.550 . S
C69 H71 0.973 . S
O70 C69 1.550 . S
O70 C76 1.412 . S
H71 C69 0.973 . S
C72 H65 0.929 . S
C72 C73 1.400 . S
C72 C74 1.364 . S
C73 C72 1.400 . S
C73 C77 1.377 . S
C74 C72 1.364 . S
C74 C75 1.374 . S
C75 H66 0.930 . S
C75 C74 1.374 . S
C75 C76 1.383 . S
C76 O70 1.412 . S
C76 C75 1.383 . S
C76 C77 1.394 . S
C77 H67 0.929 . S
C77 C73 1.377 . S
C77 C76 1.394 . S
H78 C85 0.929 . S
H79 C88 0.930 . S
H80 C90 0.929 . S
H81 C82 0.969 . S
C82 H81 0.969 . S
C82 O83 1.550 . S
C82 H84 0.973 . S
O83 C82 1.550 . S
O83 C89 1.412 . S
H84 C82 0.973 . S
C85 H78 0.929 . S
C85 C86 1.400 . S
C85 C87 1.364 . S
C86 C85 1.400 . S
C86 C90 1.377 1_655 S
C87 C85 1.364 . S
C87 C88 1.374 . S
C88 H79 0.930 . S
C88 C87 1.374 . S
C88 C89 1.383 1_655 S
C89 O83 1.412 . S
C89 C88 1.383 1_455 S
C89 C90 1.394 . S
C90 H80 0.929 . S
C90 C86 1.377 1_455 S
C90 C89 1.394 . S
H91 C98 0.929 . S
H92 C101 0.930 . S
H93 C103 0.929 . S
H94 C95 0.969 . S
C95 H94 0.969 . S
C95 O96 1.550 . S
C95 H97 0.973 . S
O96 C95 1.550 . S
O96 C102 1.412 . S
H97 C95 0.973 . S
C98 H91 0.929 . S
C98 C99 1.400 . S
C98 C100 1.364 . S
C99 C98 1.400 . S
C99 C103 1.377 . S
C100 C98 1.364 . S
C100 C101 1.374 . S
C101 H92 0.930 . S
C101 C100 1.374 . S
C101 C102 1.383 . S
C102 O96 1.412 . S
C102 C101 1.383 . S
C102 C103 1.394 . S
C103 H93 0.929 . S
C103 C99 1.377 . S
C103 C102 1.394 . S
H104 C111 0.929 . S
H105 C114 0.930 . S
H106 C116 0.929 . S
H107 C108 0.969 . S
C108 H107 0.969 . S
C108 O109 1.550 . S
C108 H110 0.973 . S
O109 C108 1.550 . S
O109 C115 1.412 . S
H110 C108 0.973 . S
C111 H104 0.929 . S
C111 C112 1.400 . S
C111 C113 1.364 . S
C112 C111 1.400 . S
C112 C116 1.377 . S
C113 C111 1.364 . S
C113 C114 1.374 . S
C114 H105 0.930 . S
C114 C113 1.374 . S
C114 C115 1.383 . S
C115 O109 1.412 . S
C115 C114 1.383 . S
C115 C116 1.394 . S
C116 H106 0.929 . S
C116 C112 1.377 . S
C116 C115 1.394 . S
H117 C124 0.894 1_545 S
H118 C127 0.930 . S
H119 C129 0.929 . S
H120 C121 0.969 . S
C121 H120 0.969 . S
C121 O122 1.550 . S
C121 H123 0.973 . S
O122 C121 1.550 . S
O122 C128 1.412 . S
H123 C121 0.973 . S
C124 H117 0.894 1_565 S
C124 C125 1.400 . S
C124 C126 1.364 . S
C125 C124 1.400 . S
C125 C129 1.377 . S
C126 C124 1.364 . S
C126 C127 1.374 . S
C127 H118 0.930 . S
C127 C126 1.374 . S
C127 C128 1.383 . S
C128 O122 1.412 . S
C128 C127 1.383 . S
C128 C129 1.394 . S
C129 H119 0.929 . S
C129 C125 1.377 . S
C129 C128 1.394 . S
H130 C137 0.929 . S
H131 C140 0.930 . S
H132 C142 0.929 . S
H133 C134 0.969 . S
C134 H133 0.969 . S
C134 O135 1.550 . S
C134 H136 0.973 . S
O135 C134 1.550 . S
O135 C141 1.412 . S
H136 C134 0.973 . S
C137 H130 0.929 . S
C137 C138 1.400 . S
C137 C139 1.364 . S
C138 C137 1.400 . S
C138 C142 1.377 . S
C139 C137 1.364 . S
C139 C140 1.374 . S
C140 H131 0.930 . S
C140 C139 1.374 . S
C140 C141 1.383 . S
C141 O135 1.412 . S
C141 C140 1.383 . S
C141 C142 1.394 . S
C142 H132 0.929 . S
C142 C138 1.377 . S
C142 C141 1.394 . S
H143 C150 0.929 . S
H144 C153 0.930 . S
H145 C155 0.929 . S
H146 C147 0.969 . S
C147 H146 0.969 . S
C147 O148 1.550 . S
C147 H149 0.973 . S
O148 C147 1.550 . S
O148 C154 1.412 . S
H149 C147 0.973 . S
C150 H143 0.929 . S
C150 C151 1.400 . S
C150 C152 1.364 . S
C151 C150 1.400 . S
C151 C155 1.377 . S
C152 C150 1.364 . S
C152 C153 1.374 . S
C153 H144 0.930 . S
C153 C152 1.374 . S
C153 C154 1.383 . S
C154 O148 1.412 . S
C154 C153 1.383 . S
C154 C155 1.394 . S
C155 H145 0.929 . S
C155 C151 1.377 . S
C155 C154 1.394 . S
H156 C163 0.929 . S
H157 C166 0.930 . S
H158 C168 0.929 . S
H159 C160 0.969 . S
C160 H159 0.969 . S
C160 O161 1.550 . S
C160 H162 0.973 . S
O161 C160 1.550 . S
O161 C167 1.412 . S
H162 C160 0.973 . S
C163 H156 0.929 . S
C163 C164 1.400 . S
C163 C165 1.364 . S
C164 C163 1.400 . S
C164 C168 1.377 . S
C165 C163 1.364 . S
C165 C166 1.374 . S
C166 H157 0.930 . S
C166 C165 1.374 . S
C166 C167 1.383 . S
C167 O161 1.412 . S
C167 C166 1.383 . S
C167 C168 1.394 . S
C168 H158 0.929 . S
C168 C164 1.377 . S
C168 C167 1.394 . S
H169 C176 0.929 1_554 S
H170 C179 0.930 . S
H171 C181 0.929 . S
H172 C173 0.969 . S
C173 H172 0.969 . S
C173 O174 1.550 . S
C173 H175 0.973 . S
O174 C173 1.550 . S
O174 C180 1.412 . S
H175 C173 0.973 . S
C176 H169 0.929 1_556 S
C176 C177 1.400 . S
C176 C178 1.364 . S
C177 C176 1.400 . S
C177 C181 1.377 . S
C178 C176 1.364 . S
C178 C179 1.374 . S
C179 H170 0.930 . S
C179 C178 1.374 . S
C179 C180 1.383 . S
C180 O174 1.412 . S
C180 C179 1.383 . S
C180 C181 1.394 . S
C181 H171 0.929 . S
C181 C177 1.377 . S
C181 C180 1.394 . S
H182 C189 0.929 . S
H183 C192 0.930 . S
H184 C194 0.929 . S
H185 C186 0.969 . S
C186 H185 0.969 . S
C186 O187 1.550 . S
C186 H188 0.973 . S
O187 C186 1.550 . S
O187 C193 1.412 . S
H188 C186 0.973 . S
C189 H182 0.929 . S
C189 C190 1.400 . S
C189 C191 1.364 . S
C190 C189 1.400 . S
C190 C194 1.377 . S
C191 C189 1.364 . S
C191 C192 1.374 . S
C192 H183 0.930 . S
C192 C191 1.374 . S
C192 C193 1.383 . S
C193 O187 1.412 . S
C193 C192 1.383 . S
C193 C194 1.394 . S
C194 H184 0.929 . S
C194 C190 1.377 . S
C194 C193 1.394 . S
H195 C202 0.929 . S
H196 C205 0.930 . S
H197 C207 0.929 . S
H198 C199 0.969 . S
C199 H198 0.969 . S
C199 O200 1.550 . S
C199 H201 0.973 . S
O200 C199 1.550 . S
O200 C206 1.412 . S
H201 C199 0.973 . S
C202 H195 0.929 . S
C202 C203 1.400 . S
C202 C204 1.364 1_554 S
C203 C202 1.400 . S
C203 C207 1.377 1_554 S
C204 C202 1.364 1_556 S
C204 C205 1.374 . S
C205 H196 0.930 . S
C205 C204 1.374 . S
C205 C206 1.383 . S
C206 O200 1.412 . S
C206 C205 1.383 . S
C206 C207 1.394 . S
C207 H197 0.929 . S
C207 C203 1.377 1_556 S
C207 C206 1.394 . S
Mn208 O213 2.095 . S
Mn208 O223 2.162 . S
Mn208 O224 2.297 . S
Mn208 O232 2.385 1_554 S
Mn208 O233 2.209 1_554 S
Mn208 O234 2.094 . S
Mn209 O214 2.121 . S
Mn209 N216 2.257 . S
Mn209 N225 2.282 . S
Mn209 O233 2.215 . S
Mn209 O235 2.117 . S
C210 O232 1.234 . S
C210 O233 1.283 . S
C211 O223 1.281 . S
C211 O224 1.236 . S
C212 O234 1.240 1_556 S
C212 O235 1.264 . S
O213 Mn208 2.095 . S
O213 C222 1.250 1_554 S
O214 Mn209 2.121 . S
O214 C222 1.258 . S
C215 N216 1.326 . S
C215 C219 1.460 . S
C215 H221 0.929 . S
N216 Mn209 2.257 . S
N216 C215 1.326 . S
N216 C220 1.362 . S
C217 C218 1.258 . S
C217 C220 1.431 . S
C217 C237 1.449 . S
C218 C217 1.258 . S
C218 C219 1.477 . S
C218 H238 0.931 . S
C219 C215 1.460 . S
C219 C218 1.477 . S
C219 H239 0.930 . S
C220 N216 1.362 . S
C220 C217 1.431 . S
C220 C230 1.476 . S
H221 C215 0.929 . S
C222 O213 1.250 1_556 S
C222 O214 1.258 . S
O223 Mn208 2.162 . S
O223 C211 1.281 . S
O224 Mn208 2.297 . S
O224 C211 1.236 . S
N225 Mn209 2.282 . S
N225 C226 1.328 . S
N225 C230 1.318 . S
C226 N225 1.328 . S
C226 C227 1.457 . S
C226 H231 0.929 . S
C227 C226 1.457 . S
C227 C228 1.291 . S
C227 H240 0.931 . S
C228 C227 1.291 . S
C228 C229 1.373 . S
C228 H241 0.929 . S
C229 C228 1.373 . S
C229 C230 1.396 . S
C229 C236 1.403 . S
C230 C220 1.476 . S
C230 N225 1.318 . S
C230 C229 1.396 . S
H231 C226 0.929 . S
O232 Mn208 2.385 1_556 S
O232 C210 1.234 . S
O233 Mn208 2.209 1_556 S
O233 Mn209 2.215 . S
O233 C210 1.283 . S
O234 Mn208 2.094 . S
O234 C212 1.240 1_554 S
O235 Mn209 2.117 . S
O235 C212 1.264 . S
C236 C229 1.403 . S
C236 C237 1.399 . S
C236 H242 0.929 . S
C237 C217 1.449 . S
C237 C236 1.399 . S
C237 H243 0.930 . S
H238 C218 0.931 . S
H239 C219 0.930 . S
H240 C227 0.931 . S
H241 C228 0.929 . S
H242 C236 0.929 . S
H243 C237 0.930 . S
Mn244 O249 2.095 . S
Mn244 O259 2.162 . S
Mn244 O260 2.297 . S
Mn244 O268 2.385 . S
Mn244 O269 2.209 . S
Mn244 O270 2.094 . S
Mn245 O250 2.121 . S
Mn245 N252 2.257 . S
Mn245 N261 2.282 . S
Mn245 O269 2.215 . S
Mn245 O271 2.117 . S
C246 O268 1.234 . S
C246 O269 1.283 . S
C247 O259 1.281 . S
C247 O260 1.236 . S
C248 O270 1.240 . S
C248 O271 1.264 . S
O249 Mn244 2.095 . S
O249 C258 1.250 . S
O250 Mn245 2.121 . S
O250 C258 1.258 . S
C251 N252 1.326 . S
C251 C255 1.460 . S
C251 H257 0.929 . S
N252 Mn245 2.257 . S
N252 C251 1.326 . S
N252 C256 1.362 . S
C253 C254 1.258 . S
C253 C256 1.431 . S
C253 C273 1.449 . S
C254 C253 1.258 . S
C254 C255 1.477 . S
C254 H274 0.931 . S
C255 C251 1.460 . S
C255 C254 1.477 . S
C255 H275 0.930 . S
C256 N252 1.362 . S
C256 C253 1.431 . S
C256 C266 1.476 . S
H257 C251 0.929 . S
C258 O249 1.250 . S
C258 O250 1.258 . S
O259 Mn244 2.162 . S
O259 C247 1.281 . S
O260 Mn244 2.297 . S
O260 C247 1.236 . S
N261 Mn245 2.282 . S
N261 C262 1.328 . S
N261 C266 1.318 . S
C262 N261 1.328 . S
C262 C263 1.457 . S
C262 H267 0.929 . S
C263 C262 1.457 . S
C263 C264 1.291 . S
C263 H276 0.931 . S
C264 C263 1.291 . S
C264 C265 1.373 . S
C264 H277 0.929 . S
C265 C264 1.373 . S
C265 C266 1.396 . S
C265 C272 1.403 . S
C266 C256 1.476 . S
C266 N261 1.318 . S
C266 C265 1.396 . S
H267 C262 0.929 . S
O268 Mn244 2.385 . S
O268 C246 1.234 . S
O269 Mn244 2.209 . S
O269 Mn245 2.215 . S
O269 C246 1.283 . S
O270 Mn244 2.094 . S
O270 C248 1.240 . S
O271 Mn245 2.117 . S
O271 C248 1.264 . S
C272 C265 1.403 . S
C272 C273 1.399 . S
C272 H278 0.929 . S
C273 C253 1.449 . S
C273 C272 1.399 . S
C273 H279 0.930 . S
H274 C254 0.931 . S
H275 C255 0.930 . S
H276 C263 0.931 . S
H277 C264 0.929 . S
H278 C272 0.929 . S
H279 C273 0.930 . S
Mn280 O285 2.095 . S
Mn280 O295 2.162 . S
Mn280 O296 2.297 . S
Mn280 O304 2.385 . S
Mn280 O305 2.209 . S
Mn280 O306 2.094 . S
Mn281 O286 2.121 1_554 S
Mn281 N288 2.257 1_554 S
Mn281 N297 2.282 . S
Mn281 O305 2.215 . S
Mn281 O307 2.117 . S
C282 O304 1.234 . S
C282 O305 1.283 . S
C283 O295 1.281 . S
C283 O296 1.236 . S
C284 O306 1.240 . S
C284 O307 1.264 . S
O285 Mn280 2.095 . S
O285 C294 1.250 1_554 S
O286 Mn281 2.121 1_556 S
O286 C294 1.258 . S
C287 N288 1.326 . S
C287 C291 1.460 . S
C287 H293 0.929 . S
N288 Mn281 2.257 1_556 S
N288 C287 1.326 . S
N288 C292 1.362 . S
C289 C290 1.258 . S
C289 C292 1.431 . S
C289 C309 1.449 . S
C290 C289 1.258 . S
C290 C291 1.477 . S
C290 H310 0.931 . S
C291 C287 1.460 . S
C291 C290 1.477 . S
C291 H311 0.930 . S
C292 N288 1.362 . S
C292 C289 1.431 . S
C292 C302 1.476 1_556 S
H293 C287 0.929 . S
C294 O285 1.250 1_556 S
C294 O286 1.258 . S
O295 Mn280 2.162 . S
O295 C283 1.281 . S
O296 Mn280 2.297 . S
O296 C283 1.236 . S
N297 Mn281 2.282 . S
N297 C298 1.328 . S
N297 C302 1.318 . S
C298 N297 1.328 . S
C298 C299 1.457 . S
C298 H303 0.929 . S
C299 C298 1.457 . S
C299 C300 1.291 . S
C299 H312 0.931 . S
C300 C299 1.291 . S
C300 C301 1.373 . S
C300 H313 0.929 . S
C301 C300 1.373 . S
C301 C302 1.396 . S
C301 C308 1.403 1_554 S
C302 C292 1.476 1_554 S
C302 N297 1.318 . S
C302 C301 1.396 . S
H303 C298 0.929 . S
O304 Mn280 2.385 . S
O304 C282 1.234 . S
O305 Mn280 2.209 . S
O305 Mn281 2.215 . S
O305 C282 1.283 . S
O306 Mn280 2.094 . S
O306 C284 1.240 . S
O307 Mn281 2.117 . S
O307 C284 1.264 . S
C308 C301 1.403 1_556 S
C308 C309 1.399 . S
C308 H314 0.929 . S
C309 C289 1.449 . S
C309 C308 1.399 . S
C309 H315 0.930 . S
H310 C290 0.931 . S
H311 C291 0.930 . S
H312 C299 0.931 . S
H313 C300 0.929 . S
H314 C308 0.929 . S
H315 C309 0.930 . S
Mn316 O321 2.095 . S
Mn316 O331 2.162 . S
Mn316 O332 2.297 . S
Mn316 O340 2.385 . S
Mn316 O341 2.209 1_545 S
Mn316 O342 2.094 . S
Mn317 O322 2.121 . S
Mn317 N324 2.257 . S
Mn317 N333 2.282 . S
Mn317 O341 2.215 . S
Mn317 O343 2.117 1_565 S
C318 O340 1.234 1_565 S
C318 O341 1.283 . S
C319 O331 1.281 . S
C319 O332 1.236 . S
C320 O342 1.240 . S
C320 O343 1.264 . S
O321 Mn316 2.095 . S
O321 C330 1.250 . S
O322 Mn317 2.121 . S
O322 C330 1.258 1_565 S
C323 N324 1.326 . S
C323 C327 1.460 . S
C323 H329 0.929 . S
N324 Mn317 2.257 . S
N324 C323 1.326 . S
N324 C328 1.362 . S
C325 C326 1.258 . S
C325 C328 1.431 . S
C325 C345 1.449 . S
C326 C325 1.258 . S
C326 C327 1.477 . S
C326 H346 0.931 . S
C327 C323 1.460 . S
C327 C326 1.477 . S
C327 H347 0.930 . S
C328 N324 1.362 . S
C328 C325 1.431 . S
C328 C338 1.476 . S
H329 C323 0.929 . S
C330 O321 1.250 . S
C330 O322 1.258 1_545 S
O331 Mn316 2.162 . S
O331 C319 1.281 . S
O332 Mn316 2.297 . S
O332 C319 1.236 . S
N333 Mn317 2.282 . S
N333 C334 1.328 . S
N333 C338 1.318 . S
C334 N333 1.328 . S
C334 C335 1.457 . S
C334 H339 0.929 . S
C335 C334 1.457 . S
C335 C336 1.291 . S
C335 H348 0.931 . S
C336 C335 1.291 . S
C336 C337 1.373 . S
C336 H349 0.929 . S
C337 C336 1.373 . S
C337 C338 1.396 . S
C337 C344 1.403 . S
C338 C328 1.476 . S
C338 N333 1.318 . S
C338 C337 1.396 . S
H339 C334 0.929 . S
O340 Mn316 2.385 . S
O340 C318 1.234 1_545 S
O341 Mn316 2.209 1_565 S
O341 Mn317 2.215 . S
O341 C318 1.283 . S
O342 Mn316 2.094 . S
O342 C320 1.240 . S
O343 Mn317 2.117 1_545 S
O343 C320 1.264 . S
C344 C337 1.403 . S
C344 C345 1.399 . S
C344 H350 0.929 . S
C345 C325 1.449 . S
C345 C344 1.399 . S
C345 H351 0.930 . S
H346 C326 0.931 . S
H347 C327 0.930 . S
H348 C335 0.931 . S
H349 C336 0.929 . S
H350 C344 0.929 . S
H351 C345 0.930 . S
Mn352 O357 2.095 . S
Mn352 O367 2.162 . S
Mn352 O368 2.297 . S
Mn352 O376 2.385 . S
Mn352 O377 2.209 . S
Mn352 O378 2.094 . S
Mn353 O358 2.121 . S
Mn353 N360 2.257 . S
Mn353 N369 2.282 . S
Mn353 O377 2.215 . S
Mn353 O379 2.117 . S
C354 O376 1.234 . S
C354 O377 1.283 . S
C355 O367 1.281 . S
C355 O368 1.236 . S
C356 O378 1.240 . S
C356 O379 1.264 . S
O357 Mn352 2.095 . S
O357 C366 1.250 . S
O358 Mn353 2.121 . S
O358 C366 1.258 . S
C359 N360 1.326 . S
C359 C363 1.460 . S
C359 H365 0.929 . S
N360 Mn353 2.257 . S
N360 C359 1.326 . S
N360 C364 1.362 . S
C361 C362 1.258 . S
C361 C364 1.431 . S
C361 C381 1.449 . S
C362 C361 1.258 . S
C362 C363 1.477 . S
C362 H382 0.931 . S
C363 C359 1.460 . S
C363 C362 1.477 . S
C363 H383 0.930 . S
C364 N360 1.362 . S
C364 C361 1.431 . S
C364 C374 1.476 . S
H365 C359 0.929 . S
C366 O357 1.250 . S
C366 O358 1.258 . S
O367 Mn352 2.162 . S
O367 C355 1.281 . S
O368 Mn352 2.297 . S
O368 C355 1.236 . S
N369 Mn353 2.282 . S
N369 C370 1.328 . S
N369 C374 1.318 . S
C370 N369 1.328 . S
C370 C371 1.457 . S
C370 H375 0.929 . S
C371 C370 1.457 . S
C371 C372 1.291 . S
C371 H384 0.931 . S
C372 C371 1.291 . S
C372 C373 1.373 . S
C372 H385 0.929 . S
C373 C372 1.373 . S
C373 C374 1.396 . S
C373 C380 1.403 . S
C374 C364 1.476 . S
C374 N369 1.318 . S
C374 C373 1.396 . S
H375 C370 0.929 . S
O376 Mn352 2.385 . S
O376 C354 1.234 . S
O377 Mn352 2.209 . S
O377 Mn353 2.215 . S
O377 C354 1.283 . S
O378 Mn352 2.094 . S
O378 C356 1.240 . S
O379 Mn353 2.117 . S
O379 C356 1.264 . S
C380 C373 1.403 . S
C380 C381 1.399 . S
C380 H386 0.929 . S
C381 C361 1.449 . S
C381 C380 1.399 . S
C381 H387 0.930 . S
H382 C362 0.931 . S
H383 C363 0.930 . S
H384 C371 0.931 . S
H385 C372 0.929 . S
H386 C380 0.929 . S
H387 C381 0.930 . S
Mn388 O393 2.095 . S
Mn388 O403 2.162 . S
Mn388 O404 2.297 . S
Mn388 O412 2.385 . S
Mn388 O413 2.209 . S
Mn388 O414 2.094 . S
Mn389 O394 2.121 . S
Mn389 N396 2.257 . S
Mn389 N405 2.282 . S
Mn389 O413 2.215 . S
Mn389 O415 2.117 . S
C390 O412 1.234 . S
C390 O413 1.283 . S
C391 O403 1.281 . S
C391 O404 1.236 . S
C392 O414 1.240 . S
C392 O415 1.264 . S
O393 Mn388 2.095 . S
O393 C402 1.250 . S
O394 Mn389 2.121 . S
O394 C402 1.258 . S
C395 N396 1.326 . S
C395 C399 1.460 . S
C395 H401 0.929 . S
N396 Mn389 2.257 . S
N396 C395 1.326 . S
N396 C400 1.362 . S
C397 C398 1.258 . S
C397 C400 1.431 . S
C397 C417 1.449 . S
C398 C397 1.258 . S
C398 C399 1.477 . S
C398 H418 0.931 . S
C399 C395 1.460 . S
C399 C398 1.477 . S
C399 H419 0.930 . S
C400 N396 1.362 . S
C400 C397 1.431 . S
C400 C410 1.476 . S
H401 C395 0.929 . S
C402 O393 1.250 . S
C402 O394 1.258 . S
O403 Mn388 2.162 . S
O403 C391 1.281 . S
O404 Mn388 2.297 . S
O404 C391 1.236 . S
N405 Mn389 2.282 . S
N405 C406 1.328 . S
N405 C410 1.318 . S
C406 N405 1.328 . S
C406 C407 1.457 . S
C406 H411 0.929 . S
C407 C406 1.457 . S
C407 C408 1.291 . S
C407 H420 0.931 . S
C408 C407 1.291 . S
C408 C409 1.373 . S
C408 H421 0.929 . S
C409 C408 1.373 . S
C409 C410 1.396 . S
C409 C416 1.403 . S
C410 C400 1.476 . S
C410 N405 1.318 . S
C410 C409 1.396 . S
H411 C406 0.929 . S
O412 Mn388 2.385 . S
O412 C390 1.234 . S
O413 Mn388 2.209 . S
O413 Mn389 2.215 . S
O413 C390 1.283 . S
O414 Mn388 2.094 . S
O414 C392 1.240 . S
O415 Mn389 2.117 . S
O415 C392 1.264 . S
C416 C409 1.403 . S
C416 C417 1.399 . S
C416 H422 0.929 . S
C417 C397 1.449 . S
C417 C416 1.399 . S
C417 H423 0.930 . S
H418 C398 0.931 . S
H419 C399 0.930 . S
H420 C407 0.931 . S
H421 C408 0.929 . S
H422 C416 0.929 . S
H423 C417 0.930 . S
Mn424 O429 2.095 . S
Mn424 O439 2.162 . S
Mn424 O440 2.297 . S
Mn424 O448 2.385 . S
Mn424 O449 2.209 . S
Mn424 O450 2.094 . S
Mn425 O430 2.121 . S
Mn425 N432 2.257 . S
Mn425 N441 2.282 . S
Mn425 O449 2.215 . S
Mn425 O451 2.117 . S
C426 O448 1.234 . S
C426 O449 1.283 . S
C427 O439 1.281 . S
C427 O440 1.236 . S
C428 O450 1.240 . S
C428 O451 1.264 . S
O429 Mn424 2.095 . S
O429 C438 1.250 . S
O430 Mn425 2.121 . S
O430 C438 1.258 . S
C431 N432 1.326 . S
C431 C435 1.460 . S
C431 H437 0.929 . S
N432 Mn425 2.257 . S
N432 C431 1.326 . S
N432 C436 1.362 . S
C433 C434 1.258 . S
C433 C436 1.431 . S
C433 C453 1.449 . S
C434 C433 1.258 . S
C434 C435 1.477 . S
C434 H454 0.931 . S
C435 C431 1.460 . S
C435 C434 1.477 . S
C435 H455 0.930 . S
C436 N432 1.362 . S
C436 C433 1.431 . S
C436 C446 1.476 . S
H437 C431 0.929 . S
C438 O429 1.250 . S
C438 O430 1.258 . S
O439 Mn424 2.162 . S
O439 C427 1.281 . S
O440 Mn424 2.297 . S
O440 C427 1.236 . S
N441 Mn425 2.282 . S
N441 C442 1.328 . S
N441 C446 1.318 . S
C442 N441 1.328 . S
C442 C443 1.457 . S
C442 H447 0.929 . S
C443 C442 1.457 . S
C443 C444 1.291 . S
C443 H456 0.931 . S
C444 C443 1.291 . S
C444 C445 1.373 . S
C444 H457 0.929 . S
C445 C444 1.373 . S
C445 C446 1.396 . S
C445 C452 1.403 . S
C446 C436 1.476 . S
C446 N441 1.318 . S
C446 C445 1.396 . S
H447 C442 0.929 . S
O448 Mn424 2.385 . S
O448 C426 1.234 . S
O449 Mn424 2.209 . S
O449 Mn425 2.215 . S
O449 C426 1.283 . S
O450 Mn424 2.094 . S
O450 C428 1.240 . S
O451 Mn425 2.117 . S
O451 C428 1.264 . S
C452 C445 1.403 . S
C452 C453 1.399 . S
C452 H458 0.929 . S
C453 C433 1.449 . S
C453 C452 1.399 . S
C453 H459 0.930 . S
H454 C434 0.931 . S
H455 C435 0.930 . S
H456 C443 0.931 . S
H457 C444 0.929 . S
H458 C452 0.929 . S
H459 C453 0.930 . S
Mn460 O465 2.095 . S
Mn460 O475 2.162 . S
Mn460 O476 2.297 . S
Mn460 O484 2.385 1_565 S
Mn460 O485 2.209 1_565 S
Mn460 O486 2.094 . S
Mn461 O466 2.121 . S
Mn461 N468 2.257 . S
Mn461 N477 2.282 . S
Mn461 O485 2.215 . S
Mn461 O487 2.117 . S
C462 O484 1.234 . S
C462 O485 1.283 . S
C463 O475 1.281 . S
C463 O476 1.236 . S
C464 O486 1.240 . S
C464 O487 1.264 1_565 S
O465 Mn460 2.095 . S
O465 C474 1.250 1_565 S
O466 Mn461 2.121 . S
O466 C474 1.258 . S
C467 N468 1.326 . S
C467 C471 1.460 . S
C467 H473 0.929 . S
N468 Mn461 2.257 . S
N468 C467 1.326 . S
N468 C472 1.362 . S
C469 C470 1.258 . S
C469 C472 1.431 . S
C469 C489 1.449 . S
C470 C469 1.258 . S
C470 C471 1.477 . S
C470 H490 0.931 . S
C471 C467 1.460 . S
C471 C470 1.477 . S
C471 H491 0.930 . S
C472 N468 1.362 . S
C472 C469 1.431 . S
C472 C482 1.476 . S
H473 C467 0.929 . S
C474 O465 1.250 1_545 S
C474 O466 1.258 . S
O475 Mn460 2.162 . S
O475 C463 1.281 . S
O476 Mn460 2.297 . S
O476 C463 1.236 . S
N477 Mn461 2.282 . S
N477 C478 1.328 . S
N477 C482 1.318 . S
C478 N477 1.328 . S
C478 C479 1.457 . S
C478 H483 0.929 . S
C479 C478 1.457 . S
C479 C480 1.291 . S
C479 H492 0.931 . S
C480 C479 1.291 . S
C480 C481 1.373 . S
C480 H493 0.929 . S
C481 C480 1.373 . S
C481 C482 1.396 . S
C481 C488 1.403 . S
C482 C472 1.476 . S
C482 N477 1.318 . S
C482 C481 1.396 . S
H483 C478 0.929 . S
O484 Mn460 2.385 1_545 S
O484 C462 1.234 . S
O485 Mn460 2.209 1_545 S
O485 Mn461 2.215 . S
O485 C462 1.283 . S
O486 Mn460 2.094 . S
O486 C464 1.240 . S
O487 Mn461 2.117 . S
O487 C464 1.264 1_545 S
C488 C481 1.403 . S
C488 C489 1.399 . S
C488 H494 0.929 . S
C489 C469 1.449 . S
C489 C488 1.399 . S
C489 H495 0.930 . S
H490 C470 0.931 . S
H491 C471 0.930 . S
H492 C479 0.931 . S
H493 C480 0.929 . S
H494 C488 0.929 . S
H495 C489 0.930 . S
Mn496 O501 2.095 . S
Mn496 O511 2.162 . S
Mn496 O512 2.297 . S
Mn496 O520 2.385 1_455 S
Mn496 O521 2.209 1_455 S
Mn496 O522 2.094 . S
Mn497 O502 2.121 . S
Mn497 N504 2.257 . S
Mn497 N513 2.282 . S
Mn497 O521 2.215 . S
Mn497 O523 2.117 . S
C498 O520 1.234 . S
C498 O521 1.283 . S
C499 O511 1.281 . S
C499 O512 1.236 . S
C500 O522 1.240 1_655 S
C500 O523 1.264 . S
O501 Mn496 2.095 . S
O501 C510 1.250 1_455 S
O502 Mn497 2.121 . S
O502 C510 1.258 . S
C503 N504 1.326 . S
C503 C507 1.460 . S
C503 H509 0.929 . S
N504 Mn497 2.257 . S
N504 C503 1.326 . S
N504 C508 1.362 . S
C505 C506 1.258 . S
C505 C508 1.431 . S
C505 C525 1.449 . S
C506 C505 1.258 . S
C506 C507 1.477 . S
C506 H526 0.931 . S
C507 C503 1.460 . S
C507 C506 1.477 . S
C507 H527 0.930 . S
C508 N504 1.362 . S
C508 C505 1.431 . S
C508 C518 1.476 . S
H509 C503 0.929 . S
C510 O501 1.250 1_655 S
C510 O502 1.258 . S
O511 Mn496 2.162 . S
O511 C499 1.281 . S
O512 Mn496 2.297 . S
O512 C499 1.236 . S
N513 Mn497 2.282 . S
N513 C514 1.328 . S
N513 C518 1.318 . S
C514 N513 1.328 . S
C514 C515 1.457 . S
C514 H519 0.929 . S
C515 C514 1.457 . S
C515 C516 1.291 . S
C515 H528 0.931 . S
C516 C515 1.291 . S
C516 C517 1.373 . S
C516 H529 0.929 . S
C517 C516 1.373 . S
C517 C518 1.396 . S
C517 C524 1.403 . S
C518 C508 1.476 . S
C518 N513 1.318 . S
C518 C517 1.396 . S
H519 C514 0.929 . S
O520 Mn496 2.385 1_655 S
O520 C498 1.234 . S
O521 Mn496 2.209 1_655 S
O521 Mn497 2.215 . S
O521 C498 1.283 . S
O522 Mn496 2.094 . S
O522 C500 1.240 1_455 S
O523 Mn497 2.117 . S
O523 C500 1.264 . S
C524 C517 1.403 . S
C524 C525 1.399 . S
C524 H530 0.929 . S
C525 C505 1.449 . S
C525 C524 1.399 . S
C525 H531 0.930 . S
H526 C506 0.931 . S
H527 C507 0.930 . S
H528 C515 0.931 . S
H529 C516 0.929 . S
H530 C524 0.929 . S
H531 C525 0.930 . S
Mn532 O537 2.095 . S
Mn532 O547 2.162 . S
Mn532 O548 2.297 . S
Mn532 O556 2.385 . S
Mn532 O557 2.209 . S
Mn532 O558 2.094 . S
Mn533 O538 2.121 . S
Mn533 N540 2.257 . S
Mn533 N549 2.282 . S
Mn533 O557 2.215 . S
Mn533 O559 2.117 . S
C534 O556 1.234 . S
C534 O557 1.283 . S
C535 O547 1.281 . S
C535 O548 1.236 . S
C536 O558 1.240 . S
C536 O559 1.264 . S
O537 Mn532 2.095 . S
O537 C546 1.250 . S
O538 Mn533 2.121 . S
O538 C546 1.258 . S
C539 N540 1.326 . S
C539 C543 1.460 . S
C539 H545 0.929 . S
N540 Mn533 2.257 . S
N540 C539 1.326 . S
N540 C544 1.362 . S
C541 C542 1.258 . S
C541 C544 1.431 . S
C541 C561 1.449 . S
C542 C541 1.258 . S
C542 C543 1.477 . S
C542 H562 0.931 . S
C543 C539 1.460 . S
C543 C542 1.477 . S
C543 H563 0.930 . S
C544 N540 1.362 . S
C544 C541 1.431 . S
C544 C554 1.476 . S
H545 C539 0.929 . S
C546 O537 1.250 . S
C546 O538 1.258 . S
O547 Mn532 2.162 . S
O547 C535 1.281 . S
O548 Mn532 2.297 . S
O548 C535 1.236 . S
N549 Mn533 2.282 . S
N549 C550 1.328 . S
N549 C554 1.318 . S
C550 N549 1.328 . S
C550 C551 1.457 . S
C550 H555 0.929 . S
C551 C550 1.457 . S
C551 C552 1.291 . S
C551 H564 0.931 . S
C552 C551 1.291 . S
C552 C553 1.373 . S
C552 H565 0.929 . S
C553 C552 1.373 . S
C553 C554 1.396 . S
C553 C560 1.403 . S
C554 C544 1.476 . S
C554 N549 1.318 . S
C554 C553 1.396 . S
H555 C550 0.929 . S
O556 Mn532 2.385 . S
O556 C534 1.234 . S
O557 Mn532 2.209 . S
O557 Mn533 2.215 . S
O557 C534 1.283 . S
O558 Mn532 2.094 . S
O558 C536 1.240 . S
O559 Mn533 2.117 . S
O559 C536 1.264 . S
C560 C553 1.403 . S
C560 C561 1.399 . S
C560 H566 0.929 . S
C561 C541 1.449 . S
C561 C560 1.399 . S
C561 H567 0.930 . S
H562 C542 0.931 . S
H563 C543 0.930 . S
H564 C551 0.931 . S
H565 C552 0.929 . S
H566 C560 0.929 . S
H567 C561 0.930 . S
Mn568 O573 2.095 . S
Mn568 O583 2.162 . S
Mn568 O584 2.297 . S
Mn568 O592 2.385 . S
Mn568 O593 2.209 . S
Mn568 O594 2.094 . S
Mn569 O574 2.121 1_455 S
Mn569 N576 2.257 1_455 S
Mn569 N585 2.282 . S
Mn569 O593 2.215 . S
Mn569 O595 2.117 . S
C570 O592 1.234 . S
C570 O593 1.283 . S
C571 O583 1.281 . S
C571 O584 1.236 . S
C572 O594 1.240 . S
C572 O595 1.264 . S
O573 Mn568 2.095 . S
O573 C582 1.250 1_455 S
O574 Mn569 2.121 1_655 S
O574 C582 1.258 . S
C575 N576 1.326 . S
C575 C579 1.460 . S
C575 H581 0.929 . S
N576 Mn569 2.257 1_655 S
N576 C575 1.326 . S
N576 C580 1.362 . S
C577 C578 1.258 . S
C577 C580 1.431 . S
C577 C597 1.449 . S
C578 C577 1.258 . S
C578 C579 1.477 . S
C578 H598 0.931 . S
C579 C575 1.460 . S
C579 C578 1.477 . S
C579 H599 0.930 . S
C580 N576 1.362 . S
C580 C577 1.431 . S
C580 C590 1.476 . S
H581 C575 0.929 . S
C582 O573 1.250 1_655 S
C582 O574 1.258 . S
O583 Mn568 2.162 . S
O583 C571 1.281 . S
O584 Mn568 2.297 . S
O584 C571 1.236 . S
N585 Mn569 2.282 . S
N585 C586 1.328 . S
N585 C590 1.318 1_455 S
C586 N585 1.328 . S
C586 C587 1.457 . S
C586 H591 0.929 . S
C587 C586 1.457 . S
C587 C588 1.291 . S
C587 H600 0.931 . S
C588 C587 1.291 . S
C588 C589 1.373 . S
C588 H601 0.929 . S
C589 C588 1.373 . S
C589 C590 1.396 1_455 S
C589 C596 1.403 1_455 S
C590 C580 1.476 . S
C590 N585 1.318 1_655 S
C590 C589 1.396 1_655 S
H591 C586 0.929 . S
O592 Mn568 2.385 . S
O592 C570 1.234 . S
O593 Mn568 2.209 . S
O593 Mn569 2.215 . S
O593 C570 1.283 . S
O594 Mn568 2.094 . S
O594 C572 1.240 . S
O595 Mn569 2.117 . S
O595 C572 1.264 . S
C596 C589 1.403 1_655 S
C596 C597 1.399 . S
C596 H602 0.929 . S
C597 C577 1.449 . S
C597 C596 1.399 . S
C597 H603 0.930 . S
H598 C578 0.931 . S
H599 C579 0.930 . S
H600 C587 0.931 . S
H601 C588 0.929 . S
H602 C596 0.929 . S
H603 C597 0.930 . S
Mn604 O609 2.095 . S
Mn604 O619 2.162 . S
Mn604 O620 2.297 . S
Mn604 O628 2.385 . S
Mn604 O629 2.209 . S
Mn604 O630 2.094 . S
Mn605 O610 2.121 . S
Mn605 N612 2.257 . S
Mn605 N621 2.282 . S
Mn605 O629 2.215 . S
Mn605 O631 2.117 . S
C606 O628 1.234 . S
C606 O629 1.283 . S
C607 O619 1.281 . S
C607 O620 1.236 . S
C608 O630 1.240 . S
C608 O631 1.264 . S
O609 Mn604 2.095 . S
O609 C618 1.250 . S
O610 Mn605 2.121 . S
O610 C618 1.258 . S
C611 N612 1.326 . S
C611 C615 1.460 . S
C611 H617 0.929 . S
N612 Mn605 2.257 . S
N612 C611 1.326 . S
N612 C616 1.362 . S
C613 C614 1.258 . S
C613 C616 1.431 . S
C613 C633 1.449 . S
C614 C613 1.258 . S
C614 C615 1.477 . S
C614 H634 0.931 . S
C615 C611 1.460 . S
C615 C614 1.477 . S
C615 H635 0.930 . S
C616 N612 1.362 . S
C616 C613 1.431 . S
C616 C626 1.476 . S
H617 C611 0.929 . S
C618 O609 1.250 . S
C618 O610 1.258 . S
O619 Mn604 2.162 . S
O619 C607 1.281 . S
O620 Mn604 2.297 . S
O620 C607 1.236 . S
N621 Mn605 2.282 . S
N621 C622 1.328 . S
N621 C626 1.318 . S
C622 N621 1.328 . S
C622 C623 1.457 . S
C622 H627 0.929 . S
C623 C622 1.457 . S
C623 C624 1.291 . S
C623 H636 0.931 . S
C624 C623 1.291 . S
C624 C625 1.373 . S
C624 H637 0.929 . S
C625 C624 1.373 . S
C625 C626 1.396 . S
C625 C632 1.403 . S
C626 C616 1.476 . S
C626 N621 1.318 . S
C626 C625 1.396 . S
H627 C622 0.929 . S
O628 Mn604 2.385 . S
O628 C606 1.234 . S
O629 Mn604 2.209 . S
O629 Mn605 2.215 . S
O629 C606 1.283 . S
O630 Mn604 2.094 . S
O630 C608 1.240 . S
O631 Mn605 2.117 . S
O631 C608 1.264 . S
C632 C625 1.403 . S
C632 C633 1.399 . S
C632 H638 0.929 . S
C633 C613 1.449 . S
C633 C632 1.399 . S
C633 H639 0.930 . S
H634 C614 0.931 . S
H635 C615 0.930 . S
H636 C623 0.931 . S
H637 C624 0.929 . S
H638 C632 0.929 . S
H639 C633 0.930 . S
H640 C652 0.930 . S
H641 C654 0.930 . S
H642 C655 0.930 . S
H643 C659 0.959 . S
H644 C659 0.959 . S
H645 C659 0.961 . S
H646 C660 0.960 . S
H647 C660 0.961 . S
H648 C660 0.959 . S
H649 C663 0.929 . S
H650 C664 0.931 . S
H651 C666 0.930 . S
C652 H640 0.930 . S
C652 C653 1.399 . S
C652 C657 1.399 . S
C653 C652 1.399 . S
C653 C654 1.376 . S
C654 H641 0.930 . S
C654 C653 1.376 . S
C654 C655 1.388 . S
C655 H642 0.930 . S
C655 C654 1.388 . S
C655 C656 1.390 . S
C656 C655 1.390 . S
C656 C657 1.394 . S
C656 C662 1.465 . S
C657 C652 1.399 . S
C657 C656 1.394 . S
C657 C658 1.516 . S
C658 C657 1.516 . S
C658 C659 1.502 . S
C658 C660 1.561 . S
C658 C661 1.526 . S
C659 H643 0.959 . S
C659 H644 0.959 . S
C659 H645 0.961 . S
C659 C658 1.502 . S
C660 H646 0.960 . S
C660 H647 0.961 . S
C660 H648 0.959 . S
C660 C658 1.561 . S
C661 C658 1.526 . S
C661 C662 1.396 . S
C661 C666 1.390 . S
C662 C656 1.465 . S
C662 C661 1.396 . S
C662 C663 1.399 . S
C663 H649 0.929 . S
C663 C662 1.399 . S
C663 C664 1.385 . S
C664 H650 0.931 . S
C664 C663 1.385 . S
C664 C665 1.389 . S
C665 C664 1.389 . S
C665 C666 1.387 . S
C666 H651 0.930 . S
C666 C661 1.390 . S
C666 C665 1.387 . S
H667 C679 0.930 . S
H668 C681 0.930 . S
H669 C682 0.930 . S
H670 C686 0.959 . S
H671 C686 0.959 . S
H672 C686 0.961 . S
H673 C687 0.960 . S
H674 C687 0.961 . S
H675 C687 0.959 . S
H676 C690 0.929 . S
H677 C691 0.931 . S
H678 C693 0.930 . S
C679 H667 0.930 . S
C679 C680 1.399 . S
C679 C684 1.399 . S
C680 C679 1.399 . S
C680 C681 1.376 . S
C681 H668 0.930 . S
C681 C680 1.376 . S
C681 C682 1.388 . S
C682 H669 0.930 . S
C682 C681 1.388 . S
C682 C683 1.390 . S
C683 C682 1.390 . S
C683 C684 1.394 . S
C683 C689 1.465 . S
C684 C679 1.399 . S
C684 C683 1.394 . S
C684 C685 1.516 . S
C685 C684 1.516 . S
C685 C686 1.502 . S
C685 C687 1.561 . S
C685 C688 1.526 . S
C686 H670 0.959 . S
C686 H671 0.959 . S
C686 H672 0.961 . S
C686 C685 1.502 . S
C687 H673 0.960 . S
C687 H674 0.961 . S
C687 H675 0.959 . S
C687 C685 1.561 . S
C688 C685 1.526 . S
C688 C689 1.396 . S
C688 C693 1.390 . S
C689 C683 1.465 . S
C689 C688 1.396 . S
C689 C690 1.399 . S
C690 H676 0.929 . S
C690 C689 1.399 . S
C690 C691 1.385 . S
C691 H677 0.931 . S
C691 C690 1.385 . S
C691 C692 1.389 . S
C692 C691 1.389 . S
C692 C693 1.387 . S
C693 H678 0.930 . S
C693 C688 1.390 . S
C693 C692 1.387 . S
H694 C706 0.930 . S
H695 C708 0.930 . S
H696 C709 0.930 . S
H697 C713 0.959 . S
H698 C713 0.959 . S
H699 C713 0.961 . S
H700 C714 0.960 . S
H701 C714 0.961 . S
H702 C714 0.959 . S
H703 C717 0.929 . S
H704 C718 0.931 . S
H705 C720 0.930 . S
C706 H694 0.930 . S
C706 C707 1.399 . S
C706 C711 1.399 . S
C707 C706 1.399 . S
C707 C708 1.376 . S
C708 H695 0.930 . S
C708 C707 1.376 . S
C708 C709 1.388 . S
C709 H696 0.930 . S
C709 C708 1.388 . S
C709 C710 1.390 . S
C710 C709 1.390 . S
C710 C711 1.394 . S
C710 C716 1.465 . S
C711 C706 1.399 . S
C711 C710 1.394 . S
C711 C712 1.516 . S
C712 C711 1.516 . S
C712 C713 1.502 . S
C712 C714 1.561 . S
C712 C715 1.526 . S
C713 H697 0.959 . S
C713 H698 0.959 . S
C713 H699 0.961 . S
C713 C712 1.502 . S
C714 H700 0.960 . S
C714 H701 0.961 . S
C714 H702 0.959 . S
C714 C712 1.561 . S
C715 C712 1.526 . S
C715 C716 1.396 . S
C715 C720 1.390 . S
C716 C710 1.465 . S
C716 C715 1.396 . S
C716 C717 1.399 . S
C717 H703 0.929 . S
C717 C716 1.399 . S
C717 C718 1.385 . S
C718 H704 0.931 . S
C718 C717 1.385 . S
C718 C719 1.389 . S
C719 C718 1.389 . S
C719 C720 1.387 . S
C720 H705 0.930 . S
C720 C715 1.390 . S
C720 C719 1.387 . S
H721 C733 0.943 1_545 S
H722 C735 0.930 . S
H723 C736 0.930 . S
H724 C740 0.959 . S
H725 C740 0.963 . S
H726 C740 0.961 1_455 S
H727 C741 0.960 1_455 S
H728 C741 0.961 1_545 S
H729 C741 0.959 . S
H730 C744 0.929 . S
H731 C745 0.931 1_565 S
H732 C747 0.930 . S
C733 H721 0.943 1_565 S
C733 C734 1.396 1_455 S
C733 C738 1.382 1_465 S
C734 C733 1.396 1_655 S
C734 C735 1.376 . S
C735 H722 0.930 . S
C735 C734 1.376 . S
C735 C736 1.388 . S
C736 H723 0.930 . S
C736 C735 1.388 . S
C736 C737 1.390 . S
C737 C736 1.390 . S
C737 C738 1.386 1_565 S
C737 C743 1.465 . S
C738 C733 1.382 1_645 S
C738 C737 1.386 1_545 S
C738 C739 1.531 . S
C739 C738 1.531 . S
C739 C740 1.502 . S
C739 C741 1.561 1_545 S
C739 C742 1.526 . S
C740 H724 0.959 . S
C740 H725 0.963 . S
C740 H726 0.961 1_655 S
C740 C739 1.502 . S
C741 H727 0.960 1_655 S
C741 H728 0.961 1_565 S
C741 H729 0.959 . S
C741 C739 1.561 1_565 S
C742 C739 1.526 . S
C742 C743 1.396 1_545 S
C742 C747 1.390 . S
C743 C737 1.465 . S
C743 C742 1.396 1_565 S
C743 C744 1.399 . S
C744 H730 0.929 . S
C744 C743 1.399 . S
C744 C745 1.385 1_565 S
C745 H731 0.931 1_545 S
C745 C744 1.385 1_545 S
C745 C746 1.389 . S
C746 C745 1.389 . S
C746 C747 1.387 . S
C747 H732 0.930 . S
C747 C742 1.390 . S
C747 C746 1.387 . S
H748 C760 0.930 . S
H749 C762 0.930 . S
H750 C763 0.930 . S
H751 C767 0.959 . S
H752 C767 0.959 . S
H753 C767 0.961 . S
H754 C768 0.960 . S
H755 C768 0.961 . S
H756 C768 0.959 . S
H757 C771 0.929 . S
H758 C772 0.931 . S
H759 C774 0.930 . S
C760 H748 0.930 . S
C760 C761 1.399 . S
C760 C765 1.399 . S
C761 C760 1.399 . S
C761 C762 1.376 . S
C762 H749 0.930 . S
C762 C761 1.376 . S
C762 C763 1.388 . S
C763 H750 0.930 . S
C763 C762 1.388 . S
C763 C764 1.390 . S
C764 C763 1.390 . S
C764 C765 1.394 . S
C764 C770 1.465 . S
C765 C760 1.399 . S
C765 C764 1.394 . S
C765 C766 1.516 . S
C766 C765 1.516 . S
C766 C767 1.502 . S
C766 C768 1.561 . S
C766 C769 1.526 . S
C767 H751 0.959 . S
C767 H752 0.959 . S
C767 H753 0.961 . S
C767 C766 1.502 . S
C768 H754 0.960 . S
C768 H755 0.961 . S
C768 H756 0.959 . S
C768 C766 1.561 . S
C769 C766 1.526 . S
C769 C770 1.396 . S
C769 C774 1.390 . S
C770 C764 1.465 . S
C770 C769 1.396 . S
C770 C771 1.399 . S
C771 H757 0.929 . S
C771 C770 1.399 . S
C771 C772 1.385 . S
C772 H758 0.931 . S
C772 C771 1.385 . S
C772 C773 1.389 . S
C773 C772 1.389 . S
C773 C774 1.387 . S
C774 H759 0.930 . S
C774 C769 1.390 . S
C774 C773 1.387 . S
H775 C787 0.930 . S
H776 C789 0.930 . S
H777 C790 0.930 . S
H778 C794 0.959 . S
H779 C794 0.959 . S
H780 C794 0.961 . S
H781 C795 0.960 . S
H782 C795 0.961 . S
H783 C795 0.959 . S
H784 C798 0.929 . S
H785 C799 0.931 . S
H786 C801 0.930 . S
C787 H775 0.930 . S
C787 C788 1.399 . S
C787 C792 1.399 . S
C788 C787 1.399 . S
C788 C789 1.376 . S
C789 H776 0.930 . S
C789 C788 1.376 . S
C789 C790 1.388 . S
C790 H777 0.930 . S
C790 C789 1.388 . S
C790 C791 1.390 . S
C791 C790 1.390 . S
C791 C792 1.394 . S
C791 C797 1.465 . S
C792 C787 1.399 . S
C792 C791 1.394 . S
C792 C793 1.516 . S
C793 C792 1.516 . S
C793 C794 1.502 . S
C793 C795 1.561 . S
C793 C796 1.526 . S
C794 H778 0.959 . S
C794 H779 0.959 . S
C794 H780 0.961 . S
C794 C793 1.502 . S
C795 H781 0.960 . S
C795 H782 0.961 . S
C795 H783 0.959 . S
C795 C793 1.561 . S
C796 C793 1.526 . S
C796 C797 1.396 . S
C796 C801 1.390 . S
C797 C791 1.465 . S
C797 C796 1.396 . S
C797 C798 1.399 . S
C798 H784 0.929 . S
C798 C797 1.399 . S
C798 C799 1.385 . S
C799 H785 0.931 . S
C799 C798 1.385 . S
C799 C800 1.389 . S
C800 C799 1.389 . S
C800 C801 1.387 . S
C801 H786 0.930 . S
C801 C796 1.390 . S
C801 C800 1.387 . S
H802 C814 0.930 . S
H803 C816 0.930 . S
H804 C817 0.930 . S
H805 C821 0.959 . S
H806 C821 0.959 . S
H807 C821 0.961 . S
H808 C822 0.960 . S
H809 C822 0.961 . S
H810 C822 0.959 . S
H811 C825 0.929 . S
H812 C826 0.931 . S
H813 C828 0.930 . S
C814 H802 0.930 . S
C814 C815 1.399 . S
C814 C819 1.399 . S
C815 C814 1.399 . S
C815 C816 1.376 . S
C816 H803 0.930 . S
C816 C815 1.376 . S
C816 C817 1.388 . S
C817 H804 0.930 . S
C817 C816 1.388 . S
C817 C818 1.390 . S
C818 C817 1.390 . S
C818 C819 1.394 . S
C818 C824 1.465 . S
C819 C814 1.399 . S
C819 C818 1.394 . S
C819 C820 1.516 . S
C820 C819 1.516 . S
C820 C821 1.502 . S
C820 C822 1.561 . S
C820 C823 1.526 . S
C821 H805 0.959 . S
C821 H806 0.959 . S
C821 H807 0.961 . S
C821 C820 1.502 . S
C822 H808 0.960 . S
C822 H809 0.961 . S
C822 H810 0.959 . S
C822 C820 1.561 . S
C823 C820 1.526 . S
C823 C824 1.396 . S
C823 C828 1.390 . S
C824 C818 1.465 . S
C824 C823 1.396 . S
C824 C825 1.399 . S
C825 H811 0.929 . S
C825 C824 1.399 . S
C825 C826 1.385 . S
C826 H812 0.931 . S
C826 C825 1.385 . S
C826 C827 1.389 . S
C827 C826 1.389 . S
C827 C828 1.387 . S
C828 H813 0.930 . S
C828 C823 1.390 . S
C828 C827 1.387 . S
H829 C841 0.930 1_545 S
H830 C843 0.930 . S
H831 C844 0.930 . S
H832 C848 0.959 . S
H833 C848 0.959 . S
H834 C848 0.961 . S
H835 C849 0.960 . S
H836 C849 0.961 . S
H837 C849 0.959 . S
H838 C852 0.929 . S
H839 C853 0.931 . S
H840 C855 0.930 . S
C841 H829 0.930 1_565 S
C841 C842 1.399 . S
C841 C846 1.399 . S
C842 C841 1.399 . S
C842 C843 1.376 . S
C843 H830 0.930 . S
C843 C842 1.376 . S
C843 C844 1.388 . S
C844 H831 0.930 . S
C844 C843 1.388 . S
C844 C845 1.390 . S
C845 C844 1.390 . S
C845 C846 1.394 . S
C845 C851 1.465 . S
C846 C841 1.399 . S
C846 C845 1.394 . S
C846 C847 1.516 1_565 S
C847 C846 1.516 1_545 S
C847 C848 1.502 . S
C847 C849 1.561 . S
C847 C850 1.526 1_545 S
C848 H832 0.959 . S
C848 H833 0.959 . S
C848 H834 0.961 . S
C848 C847 1.502 . S
C849 H835 0.960 . S
C849 H836 0.961 . S
C849 H837 0.959 . S
C849 C847 1.561 . S
C850 C847 1.526 1_565 S
C850 C851 1.396 . S
C850 C855 1.390 1_565 S
C851 C845 1.465 . S
C851 C850 1.396 . S
C851 C852 1.399 . S
C852 H838 0.929 . S
C852 C851 1.399 . S
C852 C853 1.385 . S
C853 H839 0.931 . S
C853 C852 1.385 . S
C853 C854 1.389 . S
C854 C853 1.389 . S
C854 C855 1.387 1_565 S
C855 H840 0.930 . S
C855 C850 1.390 1_545 S
C855 C854 1.387 1_545 S
H856 C868 0.930 . S
H857 C870 0.930 . S
H858 C871 0.930 . S
H859 C875 0.959 . S
H860 C875 0.959 . S
H861 C875 0.961 . S
H862 C876 0.960 . S
H863 C876 0.961 . S
H864 C876 0.959 . S
H865 C879 0.929 . S
H866 C880 0.931 . S
H867 C882 0.930 . S
C868 H856 0.930 . S
C868 C869 1.399 . S
C868 C873 1.399 . S
C869 C868 1.399 . S
C869 C870 1.376 . S
C870 H857 0.930 . S
C870 C869 1.376 . S
C870 C871 1.388 . S
C871 H858 0.930 . S
C871 C870 1.388 . S
C871 C872 1.390 . S
C872 C871 1.390 . S
C872 C873 1.394 . S
C872 C878 1.465 . S
C873 C868 1.399 . S
C873 C872 1.394 . S
C873 C874 1.516 . S
C874 C873 1.516 . S
C874 C875 1.502 . S
C874 C876 1.561 . S
C874 C877 1.526 . S
C875 H859 0.959 . S
C875 H860 0.959 . S
C875 H861 0.961 . S
C875 C874 1.502 . S
C876 H862 0.960 . S
C876 H863 0.961 . S
C876 H864 0.959 . S
C876 C874 1.561 . S
C877 C874 1.526 . S
C877 C878 1.396 . S
C877 C882 1.390 . S
C878 C872 1.465 . S
C878 C877 1.396 . S
C878 C879 1.399 . S
C879 H865 0.929 . S
C879 C878 1.399 . S
C879 C880 1.385 . S
C880 H866 0.931 . S
C880 C879 1.385 . S
C880 C881 1.389 . S
C881 C880 1.389 . S
C881 C882 1.387 . S
C882 H867 0.930 . S
C882 C877 1.390 . S
C882 C881 1.387 . S
H883 C895 0.930 . S
H884 C897 0.930 . S
H885 C898 0.930 . S
H886 C902 0.959 . S
H887 C902 0.959 . S
H888 C902 0.961 . S
H889 C903 0.960 . S
H890 C903 0.961 . S
H891 C903 0.959 . S
H892 C906 0.929 . S
H893 C907 0.931 . S
H894 C909 0.930 . S
C895 H883 0.930 . S
C895 C896 1.399 . S
C895 C900 1.399 . S
C896 C895 1.399 . S
C896 C897 1.376 . S
C897 H884 0.930 . S
C897 C896 1.376 . S
C897 C898 1.388 . S
C898 H885 0.930 . S
C898 C897 1.388 . S
C898 C899 1.390 . S
C899 C898 1.390 . S
C899 C900 1.394 . S
C899 C905 1.465 . S
C900 C895 1.399 . S
C900 C899 1.394 . S
C900 C901 1.516 . S
C901 C900 1.516 . S
C901 C902 1.502 . S
C901 C903 1.561 . S
C901 C904 1.526 . S
C902 H886 0.959 . S
C902 H887 0.959 . S
C902 H888 0.961 . S
C902 C901 1.502 . S
C903 H889 0.960 . S
C903 H890 0.961 . S
C903 H891 0.959 . S
C903 C901 1.561 . S
C904 C901 1.526 . S
C904 C905 1.396 . S
C904 C909 1.390 . S
C905 C899 1.465 . S
C905 C904 1.396 . S
C905 C906 1.399 . S
C906 H892 0.929 . S
C906 C905 1.399 . S
C906 C907 1.385 . S
C907 H893 0.931 . S
C907 C906 1.385 . S
C907 C908 1.389 . S
C908 C907 1.389 . S
C908 C909 1.387 . S
C909 H894 0.930 . S
C909 C904 1.390 . S
C909 C908 1.387 . S
H910 C922 0.930 . S
H911 C924 0.930 . S
H912 C925 0.930 . S
H913 C929 0.959 . S
H914 C929 0.959 . S
H915 C929 0.961 . S
H916 C930 0.960 . S
H917 C930 0.961 . S
H918 C930 0.959 . S
H919 C933 0.929 . S
H920 C934 0.931 . S
H921 C936 0.930 . S
C922 H910 0.930 . S
C922 C923 1.399 . S
C922 C927 1.399 . S
C923 C922 1.399 . S
C923 C924 1.376 . S
C924 H911 0.930 . S
C924 C923 1.376 . S
C924 C925 1.388 . S
C925 H912 0.930 . S
C925 C924 1.388 . S
C925 C926 1.390 . S
C926 C925 1.390 . S
C926 C927 1.394 . S
C926 C932 1.465 . S
C927 C922 1.399 . S
C927 C926 1.394 . S
C927 C928 1.516 . S
C928 C927 1.516 . S
C928 C929 1.502 . S
C928 C930 1.561 . S
C928 C931 1.526 . S
C929 H913 0.959 . S
C929 H914 0.959 . S
C929 H915 0.961 . S
C929 C928 1.502 . S
C930 H916 0.960 . S
C930 H917 0.961 . S
C930 H918 0.959 . S
C930 C928 1.561 . S
C931 C928 1.526 . S
C931 C932 1.396 . S
C931 C936 1.390 . S
C932 C926 1.465 . S
C932 C931 1.396 . S
C932 C933 1.399 . S
C933 H919 0.929 . S
C933 C932 1.399 . S
C933 C934 1.385 . S
C934 H920 0.931 . S
C934 C933 1.385 . S
C934 C935 1.389 . S
C935 C934 1.389 . S
C935 C936 1.387 . S
C936 H921 0.930 . S
C936 C931 1.390 . S
C936 C935 1.387 . S
H937 C949 0.930 . S
H938 C951 0.930 . S
H939 C952 0.930 . S
H940 C956 0.959 . S
H941 C956 0.959 . S
H942 C956 0.961 . S
H943 C957 0.960 . S
H944 C957 0.961 . S
H945 C957 0.959 . S
H946 C960 0.929 . S
H947 C961 0.931 . S
H948 C963 0.930 . S
C949 H937 0.930 . S
C949 C950 1.399 . S
C949 C954 1.399 . S
C950 C949 1.399 . S
C950 C951 1.376 . S
C951 H938 0.930 . S
C951 C950 1.376 . S
C951 C952 1.388 . S
C952 H939 0.930 . S
C952 C951 1.388 . S
C952 C953 1.390 . S
C953 C952 1.390 . S
C953 C954 1.394 . S
C953 C959 1.465 . S
C954 C949 1.399 . S
C954 C953 1.394 . S
C954 C955 1.516 . S
C955 C954 1.516 . S
C955 C956 1.502 . S
C955 C957 1.561 . S
C955 C958 1.526 . S
C956 H940 0.959 . S
C956 H941 0.959 . S
C956 H942 0.961 . S
C956 C955 1.502 . S
C957 H943 0.960 . S
C957 H944 0.961 . S
C957 H945 0.959 . S
C957 C955 1.561 . S
C958 C955 1.526 . S
C958 C959 1.396 . S
C958 C963 1.390 . S
C959 C953 1.465 . S
C959 C958 1.396 . S
C959 C960 1.399 . S
C960 H946 0.929 . S
C960 C959 1.399 . S
C960 C961 1.385 . S
C961 H947 0.931 . S
C961 C960 1.385 . S
C961 C962 1.389 . S
C962 C961 1.389 . S
C962 C963 1.387 . S
C963 H948 0.930 . S
C963 C958 1.390 . S
C963 C962 1.387 . S
H964 C976 0.930 . S
H965 C978 0.930 . S
H966 C979 0.930 . S
H967 C983 0.959 . S
H968 C983 0.959 . S
H969 C983 0.961 . S
H970 C984 0.960 . S
H971 C984 0.961 . S
H972 C984 0.959 . S
H973 C987 0.929 . S
H974 C988 0.931 . S
H975 C990 0.930 . S
C976 H964 0.930 . S
C976 C977 1.399 . S
C976 C981 1.399 . S
C977 C976 1.399 . S
C977 C978 1.376 . S
C978 H965 0.930 . S
C978 C977 1.376 . S
C978 C979 1.388 . S
C979 H966 0.930 . S
C979 C978 1.388 . S
C979 C980 1.390 . S
C980 C979 1.390 . S
C980 C981 1.394 . S
C980 C986 1.465 . S
C981 C976 1.399 . S
C981 C980 1.394 . S
C981 C982 1.516 . S
C982 C981 1.516 . S
C982 C983 1.502 . S
C982 C984 1.561 . S
C982 C985 1.526 . S
C983 H967 0.959 . S
C983 H968 0.959 . S
C983 H969 0.961 . S
C983 C982 1.502 . S
C984 H970 0.960 . S
C984 H971 0.961 . S
C984 H972 0.959 . S
C984 C982 1.561 . S
C985 C982 1.526 . S
C985 C986 1.396 . S
C985 C990 1.390 . S
C986 C980 1.465 . S
C986 C985 1.396 . S
C986 C987 1.399 . S
C987 H973 0.929 . S
C987 C986 1.399 . S
C987 C988 1.385 . S
C988 H974 0.931 . S
C988 C987 1.385 . S
C988 C989 1.389 . S
C989 C988 1.389 . S
C989 C990 1.387 . S
C990 H975 0.930 . S
C990 C985 1.390 . S
C990 C989 1.387 . S
H991 C1003 0.930 . S
H992 C1005 0.930 . S
H993 C1006 0.930 . S
H994 C1010 0.959 1_655 S
H995 C1010 0.959 . S
H996 C1010 0.961 . S
H997 C1011 0.960 . S
H998 C1011 0.961 . S
H999 C1011 0.959 . S
H1000 C1014 0.929 . S
H1001 C1015 0.931 . S
H1002 C1017 0.930 . S
C1003 H991 0.930 . S
C1003 C1004 1.399 . S
C1003 C1008 1.399 . S
C1004 C1003 1.399 . S
C1004 C1005 1.376 . S
C1005 H992 0.930 . S
C1005 C1004 1.376 . S
C1005 C1006 1.388 . S
C1006 H993 0.930 . S
C1006 C1005 1.388 . S
C1006 C1007 1.390 . S
C1007 C1006 1.390 . S
C1007 C1008 1.394 . S
C1007 C1013 1.465 . S
C1008 C1003 1.399 . S
C1008 C1007 1.394 . S
C1008 C1009 1.516 . S
C1009 C1008 1.516 . S
C1009 C1010 1.502 . S
C1009 C1011 1.561 . S
C1009 C1012 1.526 . S
C1010 H994 0.959 1_455 S
C1010 H995 0.959 . S
C1010 H996 0.961 . S
C1010 C1009 1.502 . S
C1011 H997 0.960 . S
C1011 H998 0.961 . S
C1011 H999 0.959 . S
C1011 C1009 1.561 . S
C1012 C1009 1.526 . S
C1012 C1013 1.396 . S
C1012 C1017 1.390 . S
C1013 C1007 1.465 . S
C1013 C1012 1.396 . S
C1013 C1014 1.399 . S
C1014 H1000 0.929 . S
C1014 C1013 1.399 . S
C1014 C1015 1.385 . S
C1015 H1001 0.931 . S
C1015 C1014 1.385 . S
C1015 C1016 1.389 . S
C1016 C1015 1.389 . S
C1016 C1017 1.387 . S
C1017 H1002 0.930 . S
C1017 C1012 1.390 . S
C1017 C1016 1.387 . S
H1018 C1030 0.930 . S
H1019 C1032 0.930 . S
H1020 C1033 0.930 . S
H1021 C1037 0.959 . S
H1022 C1037 0.959 . S
H1023 C1037 0.961 . S
H1024 C1038 0.960 . S
H1025 C1038 0.961 . S
H1026 C1038 0.959 . S
H1027 C1041 0.929 . S
H1028 C1042 0.931 . S
H1029 C1044 0.930 . S
C1030 H1018 0.930 . S
C1030 C1031 1.399 . S
C1030 C1035 1.399 . S
C1031 C1030 1.399 . S
C1031 C1032 1.376 . S
C1032 H1019 0.930 . S
C1032 C1031 1.376 . S
C1032 C1033 1.388 . S
C1033 H1020 0.930 . S
C1033 C1032 1.388 . S
C1033 C1034 1.390 . S
C1034 C1033 1.390 . S
C1034 C1035 1.394 . S
C1034 C1040 1.465 . S
C1035 C1030 1.399 . S
C1035 C1034 1.394 . S
C1035 C1036 1.516 . S
C1036 C1035 1.516 . S
C1036 C1037 1.502 . S
C1036 C1038 1.561 . S
C1036 C1039 1.526 . S
C1037 H1021 0.959 . S
C1037 H1022 0.959 . S
C1037 H1023 0.961 . S
C1037 C1036 1.502 . S
C1038 H1024 0.960 . S
C1038 H1025 0.961 . S
C1038 H1026 0.959 . S
C1038 C1036 1.561 . S
C1039 C1036 1.526 . S
C1039 C1040 1.396 . S
C1039 C1044 1.390 . S
C1040 C1034 1.465 . S
C1040 C1039 1.396 . S
C1040 C1041 1.399 . S
C1041 H1027 0.929 . S
C1041 C1040 1.399 . S
C1041 C1042 1.385 . S
C1042 H1028 0.931 . S
C1042 C1041 1.385 . S
C1042 C1043 1.389 . S
C1043 C1042 1.389 . S
C1043 C1044 1.387 . S
C1044 H1029 0.930 . S
C1044 C1039 1.390 . S
C1044 C1043 1.387 . S
H1045 C1057 0.930 . S
H1046 C1059 0.930 . S
H1047 C1060 0.930 . S
H1048 C1064 0.959 1_455 S
H1049 C1064 0.959 . S
H1050 C1064 0.961 . S
H1051 C1065 0.960 . S
H1052 C1065 0.961 . S
H1053 C1065 0.959 . S
H1054 C1068 0.929 . S
H1055 C1069 0.931 . S
H1056 C1071 0.930 . S
C1057 H1045 0.930 . S
C1057 C1058 1.399 . S
C1057 C1062 1.399 . S
C1058 C1057 1.399 . S
C1058 C1059 1.376 1_655 S
C1059 H1046 0.930 . S
C1059 C1058 1.376 1_455 S
C1059 C1060 1.388 . S
C1060 H1047 0.930 . S
C1060 C1059 1.388 . S
C1060 C1061 1.390 . S
C1061 C1060 1.390 . S
C1061 C1062 1.394 1_455 S
C1061 C1067 1.465 . S
C1062 C1057 1.399 . S
C1062 C1061 1.394 1_655 S
C1062 C1063 1.516 . S
C1063 C1062 1.516 . S
C1063 C1064 1.502 . S
C1063 C1065 1.561 . S
C1063 C1066 1.526 . S
C1064 H1048 0.959 1_655 S
C1064 H1049 0.959 . S
C1064 H1050 0.961 . S
C1064 C1063 1.502 . S
C1065 H1051 0.960 . S
C1065 H1052 0.961 . S
C1065 H1053 0.959 . S
C1065 C1063 1.561 . S
C1066 C1063 1.526 . S
C1066 C1067 1.396 1_655 S
C1066 C1071 1.390 . S
C1067 C1061 1.465 . S
C1067 C1066 1.396 1_455 S
C1067 C1068 1.399 . S
C1068 H1054 0.929 . S
C1068 C1067 1.399 . S
C1068 C1069 1.385 . S
C1069 H1055 0.931 . S
C1069 C1068 1.385 . S
C1069 C1070 1.389 . S
C1070 C1069 1.389 . S
C1070 C1071 1.387 1_455 S
C1071 H1056 0.930 . S
C1071 C1066 1.390 . S
C1071 C1070 1.387 1_655 S
H1072 C1084 0.930 . S
H1073 C1086 0.930 . S
H1074 C1087 0.930 . S
H1075 C1091 0.959 . S
H1076 C1091 0.959 . S
H1077 C1091 0.961 . S
H1078 C1092 0.960 . S
H1079 C1092 0.961 . S
H1080 C1092 0.959 . S
H1081 C1095 0.929 . S
H1082 C1096 0.931 . S
H1083 C1098 0.930 . S
C1084 H1072 0.930 . S
C1084 C1085 1.399 . S
C1084 C1089 1.399 . S
C1085 C1084 1.399 . S
C1085 C1086 1.376 . S
C1086 H1073 0.930 . S
C1086 C1085 1.376 . S
C1086 C1087 1.388 . S
C1087 H1074 0.930 . S
C1087 C1086 1.388 . S
C1087 C1088 1.390 . S
C1088 C1087 1.390 . S
C1088 C1089 1.394 . S
C1088 C1094 1.465 . S
C1089 C1084 1.399 . S
C1089 C1088 1.394 . S
C1089 C1090 1.516 . S
C1090 C1089 1.516 . S
C1090 C1091 1.502 . S
C1090 C1092 1.561 . S
C1090 C1093 1.526 . S
C1091 H1075 0.959 . S
C1091 H1076 0.959 . S
C1091 H1077 0.961 . S
C1091 C1090 1.502 . S
C1092 H1078 0.960 . S
C1092 H1079 0.961 . S
C1092 H1080 0.959 . S
C1092 C1090 1.561 . S
C1093 C1090 1.526 . S
C1093 C1094 1.396 . S
C1093 C1098 1.390 . S
C1094 C1088 1.465 . S
C1094 C1093 1.396 . S
C1094 C1095 1.399 . S
C1095 H1081 0.929 . S
C1095 C1094 1.399 . S
C1095 C1096 1.385 . S
C1096 H1082 0.931 . S
C1096 C1095 1.385 . S
C1096 C1097 1.389 . S
C1097 C1096 1.389 . S
C1097 C1098 1.387 . S
C1098 H1083 0.930 . S
C1098 C1093 1.390 . S
C1098 C1097 1.387 . S
H1099 C1111 0.930 . S
H1100 C1113 0.930 . S
H1101 C1114 0.930 . S
H1102 C1118 0.959 . S
H1103 C1118 0.959 . S
H1104 C1118 0.961 . S
H1105 C1119 0.960 . S
H1106 C1119 0.961 . S
H1107 C1119 0.959 . S
H1108 C1122 0.929 . S
H1109 C1123 0.931 . S
H1110 C1125 0.930 . S
C1111 H1099 0.930 . S
C1111 C1112 1.399 . S
C1111 C1116 1.399 . S
C1112 C1111 1.399 . S
C1112 C1113 1.376 . S
C1113 H1100 0.930 . S
C1113 C1112 1.376 . S
C1113 C1114 1.388 . S
C1114 H1101 0.930 . S
C1114 C1113 1.388 . S
C1114 C1115 1.390 . S
C1115 C1114 1.390 . S
C1115 C1116 1.394 . S
C1115 C1121 1.465 . S
C1116 C1111 1.399 . S
C1116 C1115 1.394 . S
C1116 C1117 1.516 . S
C1117 C1116 1.516 . S
C1117 C1118 1.502 . S
C1117 C1119 1.561 . S
C1117 C1120 1.526 . S
C1118 H1102 0.959 . S
C1118 H1103 0.959 . S
C1118 H1104 0.961 . S
C1118 C1117 1.502 . S
C1119 H1105 0.960 . S
C1119 H1106 0.961 . S
C1119 H1107 0.959 . S
C1119 C1117 1.561 . S
C1120 C1117 1.526 . S
C1120 C1121 1.396 . S
C1120 C1125 1.390 . S
C1121 C1115 1.465 . S
C1121 C1120 1.396 . S
C1121 C1122 1.399 . S
C1122 H1108 0.929 . S
C1122 C1121 1.399 . S
C1122 C1123 1.385 . S
C1123 H1109 0.931 . S
C1123 C1122 1.385 . S
C1123 C1124 1.389 . S
C1124 C1123 1.389 . S
C1124 C1125 1.387 . S
C1125 H1110 0.930 . S
C1125 C1120 1.390 . S
C1125 C1124 1.387 . S
H1126 C1138 0.930 . S
H1127 C1140 0.930 . S
H1128 C1141 0.930 . S
H1129 C1145 0.959 . S
H1130 C1145 0.959 . S
H1131 C1145 0.961 . S
H1132 C1146 0.965 . S
H1133 C1146 0.961 . S
H1134 C1146 0.959 1_545 S
H1135 C1149 0.929 . S
H1136 C1150 0.931 . S
H1137 C1152 0.930 . S
C1138 H1126 0.930 . S
C1138 C1139 1.399 1_554 S
C1138 C1143 1.399 1_545 S
C1139 C1138 1.399 1_556 S
C1139 C1140 1.376 . S
C1140 H1127 0.930 . S
C1140 C1139 1.376 . S
C1140 C1141 1.388 . S
C1141 H1128 0.930 . S
C1141 C1140 1.388 . S
C1141 C1142 1.390 1_545 S
C1142 C1141 1.390 1_565 S
C1142 C1143 1.394 1_556 S
C1142 C1148 1.465 . S
C1143 C1138 1.399 1_565 S
C1143 C1142 1.394 1_554 S
C1143 C1144 1.516 . S
C1144 C1143 1.516 . S
C1144 C1145 1.502 . S
C1144 C1146 1.561 . S
C1144 C1147 1.526 . S
C1145 H1129 0.959 . S
C1145 H1130 0.959 . S
C1145 H1131 0.961 . S
C1145 C1144 1.502 . S
C1146 H1132 0.965 . S
C1146 H1133 0.961 . S
C1146 H1134 0.959 1_565 S
C1146 C1144 1.561 . S
C1147 C1144 1.526 . S
C1147 C1148 1.396 1_554 S
C1147 C1152 1.390 . S
C1148 C1142 1.465 . S
C1148 C1147 1.396 1_556 S
C1148 C1149 1.399 . S
C1149 H1135 0.929 . S
C1149 C1148 1.399 . S
C1149 C1150 1.385 . S
C1150 H1136 0.931 . S
C1150 C1149 1.385 . S
C1150 C1151 1.389 . S
C1151 C1150 1.389 . S
C1151 C1152 1.387 1_556 S
C1152 H1137 0.930 . S
C1152 C1147 1.390 . S
C1152 C1151 1.387 1_554 S
H1153 C1165 0.930 . S
H1154 C1167 0.930 . S
H1155 C1168 0.930 . S
H1156 C1172 0.959 . S
H1157 C1172 0.959 . S
H1158 C1172 0.961 . S
H1159 C1173 0.960 . S
H1160 C1173 0.961 . S
H1161 C1173 0.959 . S
H1162 C1176 0.929 . S
H1163 C1177 0.931 . S
H1164 C1179 0.930 . S
C1165 H1153 0.930 . S
C1165 C1166 1.399 . S
C1165 C1170 1.399 . S
C1166 C1165 1.399 . S
C1166 C1167 1.376 . S
C1167 H1154 0.930 . S
C1167 C1166 1.376 . S
C1167 C1168 1.388 . S
C1168 H1155 0.930 . S
C1168 C1167 1.388 . S
C1168 C1169 1.390 . S
C1169 C1168 1.390 . S
C1169 C1170 1.394 . S
C1169 C1175 1.465 . S
C1170 C1165 1.399 . S
C1170 C1169 1.394 . S
C1170 C1171 1.516 . S
C1171 C1170 1.516 . S
C1171 C1172 1.502 . S
C1171 C1173 1.561 . S
C1171 C1174 1.526 . S
C1172 H1156 0.959 . S
C1172 H1157 0.959 . S
C1172 H1158 0.961 . S
C1172 C1171 1.502 . S
C1173 H1159 0.960 . S
C1173 H1160 0.961 . S
C1173 H1161 0.959 . S
C1173 C1171 1.561 . S
C1174 C1171 1.526 . S
C1174 C1175 1.396 . S
C1174 C1179 1.390 . S
C1175 C1169 1.465 . S
C1175 C1174 1.396 . S
C1175 C1176 1.399 . S
C1176 H1162 0.929 . S
C1176 C1175 1.399 . S
C1176 C1177 1.385 . S
C1177 H1163 0.931 . S
C1177 C1176 1.385 . S
C1177 C1178 1.389 . S
C1178 C1177 1.389 . S
C1178 C1179 1.387 . S
C1179 H1164 0.930 . S
C1179 C1174 1.390 . S
C1179 C1178 1.387 . S
H1180 C1192 0.930 . S
H1181 C1194 0.930 . S
H1182 C1195 0.930 . S
H1183 C1199 0.959 . S
H1184 C1199 0.959 . S
H1185 C1199 0.961 . S
H1186 C1200 0.960 . S
H1187 C1200 0.961 . S
H1188 C1200 0.959 . S
H1189 C1203 0.929 . S
H1190 C1204 0.931 . S
H1191 C1206 0.930 . S
C1192 H1180 0.930 . S
C1192 C1193 1.399 . S
C1192 C1197 1.399 . S
C1193 C1192 1.399 . S
C1193 C1194 1.376 . S
C1194 H1181 0.930 . S
C1194 C1193 1.376 . S
C1194 C1195 1.388 . S
C1195 H1182 0.930 . S
C1195 C1194 1.388 . S
C1195 C1196 1.390 . S
C1196 C1195 1.390 . S
C1196 C1197 1.394 . S
C1196 C1202 1.465 . S
C1197 C1192 1.399 . S
C1197 C1196 1.394 . S
C1197 C1198 1.516 . S
C1198 C1197 1.516 . S
C1198 C1199 1.502 . S
C1198 C1200 1.561 . S
C1198 C1201 1.526 . S
C1199 H1183 0.959 . S
C1199 H1184 0.959 . S
C1199 H1185 0.961 . S
C1199 C1198 1.502 . S
C1200 H1186 0.960 . S
C1200 H1187 0.961 . S
C1200 H1188 0.959 . S
C1200 C1198 1.561 . S
C1201 C1198 1.526 . S
C1201 C1202 1.396 . S
C1201 C1206 1.390 . S
C1202 C1196 1.465 . S
C1202 C1201 1.396 . S
C1202 C1203 1.399 . S
C1203 H1189 0.929 . S
C1203 C1202 1.399 . S
C1203 C1204 1.385 . S
C1204 H1190 0.931 . S
C1204 C1203 1.385 . S
C1204 C1205 1.389 . S
C1205 C1204 1.389 . S
C1205 C1206 1.387 . S
C1206 H1191 0.930 . S
C1206 C1201 1.390 . S
C1206 C1205 1.387 . S
H1207 C1219 0.930 . S
H1208 C1221 0.930 . S
H1209 C1222 0.930 . S
H1210 C1226 0.959 . S
H1211 C1226 0.959 . S
H1212 C1226 0.961 . S
H1213 C1227 0.960 . S
H1214 C1227 0.961 . S
H1215 C1227 0.959 . S
H1216 C1230 0.929 . S
H1217 C1231 0.931 . S
H1218 C1233 0.930 . S
C1219 H1207 0.930 . S
C1219 C1220 1.399 . S
C1219 C1224 1.399 . S
C1220 C1219 1.399 . S
C1220 C1221 1.376 . S
C1221 H1208 0.930 . S
C1221 C1220 1.376 . S
C1221 C1222 1.388 . S
C1222 H1209 0.930 . S
C1222 C1221 1.388 . S
C1222 C1223 1.390 . S
C1223 C1222 1.390 . S
C1223 C1224 1.394 . S
C1223 C1229 1.465 . S
C1224 C1219 1.399 . S
C1224 C1223 1.394 . S
C1224 C1225 1.516 . S
C1225 C1224 1.516 . S
C1225 C1226 1.502 . S
C1225 C1227 1.561 . S
C1225 C1228 1.526 . S
C1226 H1210 0.959 . S
C1226 H1211 0.959 . S
C1226 H1212 0.961 . S
C1226 C1225 1.502 . S
C1227 H1213 0.960 . S
C1227 H1214 0.961 . S
C1227 H1215 0.959 . S
C1227 C1225 1.561 . S
C1228 C1225 1.526 . S
C1228 C1229 1.396 . S
C1228 C1233 1.390 . S
C1229 C1223 1.465 . S
C1229 C1228 1.396 . S
C1229 C1230 1.399 . S
C1230 H1216 0.929 . S
C1230 C1229 1.399 . S
C1230 C1231 1.385 . S
C1231 H1217 0.931 . S
C1231 C1230 1.385 . S
C1231 C1232 1.389 . S
C1232 C1231 1.389 . S
C1232 C1233 1.387 . S
C1233 H1218 0.930 . S
C1233 C1228 1.390 . S
C1233 C1232 1.387 . S
H1234 C1246 0.930 . S
H1235 C1248 0.930 . S
H1236 C1249 0.930 . S
H1237 C1253 0.959 . S
H1238 C1253 0.959 . S
H1239 C1253 0.961 . S
H1240 C1254 0.960 . S
H1241 C1254 0.961 . S
H1242 C1254 0.959 . S
H1243 C1257 0.929 . S
H1244 C1258 0.931 . S
H1245 C1260 0.930 . S
C1246 H1234 0.930 . S
C1246 C1247 1.399 . S
C1246 C1251 1.399 . S
C1247 C1246 1.399 . S
C1247 C1248 1.376 1_545 S
C1248 H1235 0.930 . S
C1248 C1247 1.376 1_565 S
C1248 C1249 1.388 1_565 S
C1249 H1236 0.930 . S
C1249 C1248 1.388 1_545 S
C1249 C1250 1.390 . S
C1250 C1249 1.390 . S
C1250 C1251 1.394 . S
C1250 C1256 1.465 . S
C1251 C1246 1.399 . S
C1251 C1250 1.394 . S
C1251 C1252 1.516 . S
C1252 C1251 1.516 . S
C1252 C1253 1.502 . S
C1252 C1254 1.561 . S
C1252 C1255 1.526 . S
C1253 H1237 0.959 . S
C1253 H1238 0.959 . S
C1253 H1239 0.961 . S
C1253 C1252 1.502 . S
C1254 H1240 0.960 . S
C1254 H1241 0.961 . S
C1254 H1242 0.959 . S
C1254 C1252 1.561 . S
C1255 C1252 1.526 . S
C1255 C1256 1.396 . S
C1255 C1260 1.390 . S
C1256 C1250 1.465 . S
C1256 C1255 1.396 . S
C1256 C1257 1.399 . S
C1257 H1243 0.929 . S
C1257 C1256 1.399 . S
C1257 C1258 1.385 . S
C1258 H1244 0.931 . S
C1258 C1257 1.385 . S
C1258 C1259 1.389 . S
C1259 C1258 1.389 . S
C1259 C1260 1.387 . S
C1260 H1245 0.930 . S
C1260 C1255 1.390 . S
C1260 C1259 1.387 . S
H1261 C1273 0.930 . S
H1262 C1275 0.930 . S
H1263 C1276 0.930 . S
H1264 C1280 0.959 . S
H1265 C1280 0.959 . S
H1266 C1280 0.961 . S
H1267 C1281 0.960 . S
H1268 C1281 0.961 . S
H1269 C1281 0.959 . S
H1270 C1284 0.929 . S
H1271 C1285 0.931 . S
H1272 C1287 0.930 . S
C1273 H1261 0.930 . S
C1273 C1274 1.399 . S
C1273 C1278 1.399 . S
C1274 C1273 1.399 . S
C1274 C1275 1.376 . S
C1275 H1262 0.930 . S
C1275 C1274 1.376 . S
C1275 C1276 1.388 . S
C1276 H1263 0.930 . S
C1276 C1275 1.388 . S
C1276 C1277 1.390 . S
C1277 C1276 1.390 . S
C1277 C1278 1.394 . S
C1277 C1283 1.465 . S
C1278 C1273 1.399 . S
C1278 C1277 1.394 . S
C1278 C1279 1.516 . S
C1279 C1278 1.516 . S
C1279 C1280 1.502 . S
C1279 C1281 1.561 . S
C1279 C1282 1.526 . S
C1280 H1264 0.959 . S
C1280 H1265 0.959 . S
C1280 H1266 0.961 . S
C1280 C1279 1.502 . S
C1281 H1267 0.960 . S
C1281 H1268 0.961 . S
C1281 H1269 0.959 . S
C1281 C1279 1.561 . S
C1282 C1279 1.526 . S
C1282 C1283 1.396 . S
C1282 C1287 1.390 . S
C1283 C1277 1.465 . S
C1283 C1282 1.396 . S
C1283 C1284 1.399 . S
C1284 H1270 0.929 . S
C1284 C1283 1.399 . S
C1284 C1285 1.385 . S
C1285 H1271 0.931 . S
C1285 C1284 1.385 . S
C1285 C1286 1.389 . S
C1286 C1285 1.389 . S
C1286 C1287 1.387 . S
C1287 H1272 0.930 . S
C1287 C1282 1.390 . S
C1287 C1286 1.387 . S
H1288 C1300 0.930 . S
H1289 C1302 0.930 . S
H1290 C1303 0.930 . S
H1291 C1307 0.959 . S
H1292 C1307 0.959 . S
H1293 C1307 0.961 . S
H1294 C1308 0.960 . S
H1295 C1308 0.961 . S
H1296 C1308 0.959 . S
H1297 C1311 0.929 . S
H1298 C1312 0.931 . S
H1299 C1314 0.930 . S
C1300 H1288 0.930 . S
C1300 C1301 1.399 . S
C1300 C1305 1.399 . S
C1301 C1300 1.399 . S
C1301 C1302 1.376 . S
C1302 H1289 0.930 . S
C1302 C1301 1.376 . S
C1302 C1303 1.388 . S
C1303 H1290 0.930 . S
C1303 C1302 1.388 . S
C1303 C1304 1.390 . S
C1304 C1303 1.390 . S
C1304 C1305 1.394 . S
C1304 C1310 1.465 . S
C1305 C1300 1.399 . S
C1305 C1304 1.394 . S
C1305 C1306 1.516 . S
C1306 C1305 1.516 . S
C1306 C1307 1.502 . S
C1306 C1308 1.561 . S
C1306 C1309 1.526 . S
C1307 H1291 0.959 . S
C1307 H1292 0.959 . S
C1307 H1293 0.961 . S
C1307 C1306 1.502 . S
C1308 H1294 0.960 . S
C1308 H1295 0.961 . S
C1308 H1296 0.959 . S
C1308 C1306 1.561 . S
C1309 C1306 1.526 . S
C1309 C1310 1.396 . S
C1309 C1314 1.390 . S
C1310 C1304 1.465 . S
C1310 C1309 1.396 . S
C1310 C1311 1.399 . S
C1311 H1297 0.929 . S
C1311 C1310 1.399 . S
C1311 C1312 1.385 . S
C1312 H1298 0.931 . S
C1312 C1311 1.385 . S
C1312 C1313 1.389 . S
C1313 C1312 1.389 . S
C1313 C1314 1.387 . S
C1314 H1299 0.930 . S
C1314 C1309 1.390 . S
C1314 C1313 1.387 . S
H1315 C1327 0.930 . S
H1316 C1329 0.930 . S
H1317 C1330 0.930 1_565 S
H1318 C1334 0.959 . S
H1319 C1334 0.959 . S
H1320 C1334 0.961 . S
H1321 C1335 0.960 . S
H1322 C1335 0.961 . S
H1323 C1335 0.959 . S
H1324 C1338 0.929 . S
H1325 C1339 0.931 . S
H1326 C1341 0.930 . S
C1327 H1315 0.930 . S
C1327 C1328 1.399 . S
C1327 C1332 1.399 . S
C1328 C1327 1.399 . S
C1328 C1329 1.376 . S
C1329 H1316 0.930 . S
C1329 C1328 1.376 . S
C1329 C1330 1.388 . S
C1330 H1317 0.930 1_545 S
C1330 C1329 1.388 . S
C1330 C1331 1.390 . S
C1331 C1330 1.390 . S
C1331 C1332 1.394 . S
C1331 C1337 1.465 . S
C1332 C1327 1.399 . S
C1332 C1331 1.394 . S
C1332 C1333 1.516 . S
C1333 C1332 1.516 . S
C1333 C1334 1.502 . S
C1333 C1335 1.561 . S
C1333 C1336 1.526 . S
C1334 H1318 0.959 . S
C1334 H1319 0.959 . S
C1334 H1320 0.961 . S
C1334 C1333 1.502 . S
C1335 H1321 0.960 . S
C1335 H1322 0.961 . S
C1335 H1323 0.959 . S
C1335 C1333 1.561 . S
C1336 C1333 1.526 . S
C1336 C1337 1.396 . S
C1336 C1341 1.390 . S
C1337 C1331 1.465 . S
C1337 C1336 1.396 . S
C1337 C1338 1.399 1_545 S
C1338 H1324 0.929 . S
C1338 C1337 1.399 1_565 S
C1338 C1339 1.385 . S
C1339 H1325 0.931 . S
C1339 C1338 1.385 . S
C1339 C1340 1.389 1_565 S
C1340 C1339 1.389 1_545 S
C1340 C1341 1.387 . S
C1341 H1326 0.930 . S
C1341 C1336 1.390 . S
C1341 C1340 1.387 . S
H1342 C1354 0.930 . S
H1343 C1356 0.930 . S
H1344 C1357 0.930 . S
H1345 C1361 0.959 . S
H1346 C1361 0.959 . S
H1347 C1361 0.961 . S
H1348 C1362 0.960 . S
H1349 C1362 0.961 . S
H1350 C1362 0.959 . S
H1351 C1365 0.929 . S
H1352 C1366 0.931 . S
H1353 C1368 0.930 . S
C1354 H1342 0.930 . S
C1354 C1355 1.399 . S
C1354 C1359 1.399 . S
C1355 C1354 1.399 . S
C1355 C1356 1.376 . S
C1356 H1343 0.930 . S
C1356 C1355 1.376 . S
C1356 C1357 1.388 . S
C1357 H1344 0.930 . S
C1357 C1356 1.388 . S
C1357 C1358 1.390 . S
C1358 C1357 1.390 . S
C1358 C1359 1.394 . S
C1358 C1364 1.465 . S
C1359 C1354 1.399 . S
C1359 C1358 1.394 . S
C1359 C1360 1.516 . S
C1360 C1359 1.516 . S
C1360 C1361 1.502 . S
C1360 C1362 1.561 . S
C1360 C1363 1.526 . S
C1361 H1345 0.959 . S
C1361 H1346 0.959 . S
C1361 H1347 0.961 . S
C1361 C1360 1.502 . S
C1362 H1348 0.960 . S
C1362 H1349 0.961 . S
C1362 H1350 0.959 . S
C1362 C1360 1.561 . S
C1363 C1360 1.526 . S
C1363 C1364 1.396 . S
C1363 C1368 1.390 . S
C1364 C1358 1.465 . S
C1364 C1363 1.396 . S
C1364 C1365 1.399 . S
C1365 H1351 0.929 . S
C1365 C1364 1.399 . S
C1365 C1366 1.385 . S
C1366 H1352 0.931 . S
C1366 C1365 1.385 . S
C1366 C1367 1.389 . S
C1367 C1366 1.389 . S
C1367 C1368 1.387 . S
C1368 H1353 0.930 . S
C1368 C1363 1.390 . S
C1368 C1367 1.387 . S
H1369 C1381 0.930 . S
H1370 C1383 0.930 . S
H1371 C1384 0.930 . S
H1372 C1388 0.959 . S
H1373 C1388 0.959 . S
H1374 C1388 0.961 . S
H1375 C1389 0.960 . S
H1376 C1389 0.961 . S
H1377 C1389 0.959 . S
H1378 C1392 0.929 . S
H1379 C1393 0.931 . S
H1380 C1395 0.930 . S
C1381 H1369 0.930 . S
C1381 C1382 1.399 . S
C1381 C1386 1.399 . S
C1382 C1381 1.399 . S
C1382 C1383 1.376 . S
C1383 H1370 0.930 . S
C1383 C1382 1.376 . S
C1383 C1384 1.388 . S
C1384 H1371 0.930 . S
C1384 C1383 1.388 . S
C1384 C1385 1.390 . S
C1385 C1384 1.390 . S
C1385 C1386 1.394 . S
C1385 C1391 1.465 . S
C1386 C1381 1.399 . S
C1386 C1385 1.394 . S
C1386 C1387 1.516 . S
C1387 C1386 1.516 . S
C1387 C1388 1.502 . S
C1387 C1389 1.561 . S
C1387 C1390 1.526 . S
C1388 H1372 0.959 . S
C1388 H1373 0.959 . S
C1388 H1374 0.961 . S
C1388 C1387 1.502 . S
C1389 H1375 0.960 . S
C1389 H1376 0.961 . S
C1389 H1377 0.959 . S
C1389 C1387 1.561 . S
C1390 C1387 1.526 . S
C1390 C1391 1.396 . S
C1390 C1395 1.390 . S
C1391 C1385 1.465 . S
C1391 C1390 1.396 . S
C1391 C1392 1.399 . S
C1392 H1378 0.929 . S
C1392 C1391 1.399 . S
C1392 C1393 1.385 . S
C1393 H1379 0.931 . S
C1393 C1392 1.385 . S
C1393 C1394 1.389 . S
C1394 C1393 1.389 . S
C1394 C1395 1.387 . S
C1395 H1380 0.930 . S
C1395 C1390 1.390 . S
C1395 C1394 1.387 . S
H1396 C1408 0.930 . S
H1397 C1410 0.930 . S
H1398 C1411 0.930 . S
H1399 C1415 0.959 . S
H1400 C1415 0.959 . S
H1401 C1415 0.961 . S
H1402 C1416 0.960 . S
H1403 C1416 0.961 . S
H1404 C1416 0.959 . S
H1405 C1419 0.929 . S
H1406 C1420 0.931 . S
H1407 C1422 0.930 . S
C1408 H1396 0.930 . S
C1408 C1409 1.399 . S
C1408 C1413 1.399 . S
C1409 C1408 1.399 . S
C1409 C1410 1.376 . S
C1410 H1397 0.930 . S
C1410 C1409 1.376 . S
C1410 C1411 1.388 . S
C1411 H1398 0.930 . S
C1411 C1410 1.388 . S
C1411 C1412 1.390 . S
C1412 C1411 1.390 . S
C1412 C1413 1.394 . S
C1412 C1418 1.465 . S
C1413 C1408 1.399 . S
C1413 C1412 1.394 . S
C1413 C1414 1.516 . S
C1414 C1413 1.516 . S
C1414 C1415 1.502 . S
C1414 C1416 1.561 . S
C1414 C1417 1.526 . S
C1415 H1399 0.959 . S
C1415 H1400 0.959 . S
C1415 H1401 0.961 . S
C1415 C1414 1.502 . S
C1416 H1402 0.960 . S
C1416 H1403 0.961 . S
C1416 H1404 0.959 . S
C1416 C1414 1.561 . S
C1417 C1414 1.526 . S
C1417 C1418 1.396 . S
C1417 C1422 1.390 . S
C1418 C1412 1.465 . S
C1418 C1417 1.396 . S
C1418 C1419 1.399 . S
C1419 H1405 0.929 . S
C1419 C1418 1.399 . S
C1419 C1420 1.385 . S
C1420 H1406 0.931 . S
C1420 C1419 1.385 . S
C1420 C1421 1.389 . S
C1421 C1420 1.389 . S
C1421 C1422 1.387 . S
C1422 H1407 0.930 . S
C1422 C1417 1.390 . S
C1422 C1421 1.387 . S
H1423 C1435 0.930 1_455 S
H1424 C1437 0.930 . S
H1425 C1438 0.930 . S
H1426 C1442 0.959 1_655 S
H1427 C1442 0.959 . S
H1428 C1442 0.961 . S
H1429 C1443 0.960 1_455 S
H1430 C1443 0.961 . S
H1431 C1443 0.959 . S
H1432 C1446 0.929 . S
H1433 C1447 0.931 . S
H1434 C1449 0.930 . S
C1435 H1423 0.930 1_655 S
C1435 C1436 1.399 . S
C1435 C1440 1.399 . S
C1436 C1435 1.399 . S
C1436 C1437 1.376 . S
C1437 H1424 0.930 . S
C1437 C1436 1.376 . S
C1437 C1438 1.388 . S
C1438 H1425 0.930 . S
C1438 C1437 1.388 . S
C1438 C1439 1.390 . S
C1439 C1438 1.390 . S
C1439 C1440 1.394 . S
C1439 C1445 1.465 . S
C1440 C1435 1.399 . S
C1440 C1439 1.394 . S
C1440 C1441 1.516 . S
C1441 C1440 1.516 . S
C1441 C1442 1.502 1_655 S
C1441 C1443 1.561 . S
C1441 C1444 1.526 . S
C1442 H1426 0.959 1_455 S
C1442 H1427 0.959 . S
C1442 H1428 0.961 . S
C1442 C1441 1.502 1_455 S
C1443 H1429 0.960 1_655 S
C1443 H1430 0.961 . S
C1443 H1431 0.959 . S
C1443 C1441 1.561 . S
C1444 C1441 1.526 . S
C1444 C1445 1.396 . S
C1444 C1449 1.390 . S
C1445 C1439 1.465 . S
C1445 C1444 1.396 . S
C1445 C1446 1.399 . S
C1446 H1432 0.929 . S
C1446 C1445 1.399 . S
C1446 C1447 1.385 . S
C1447 H1433 0.931 . S
C1447 C1446 1.385 . S
C1447 C1448 1.389 . S
C1448 C1447 1.389 . S
C1448 C1449 1.387 . S
C1449 H1434 0.930 . S
C1449 C1444 1.390 . S
C1449 C1448 1.387 . S
H1450 C1462 0.930 . S
H1451 C1464 0.930 . S
H1452 C1465 0.930 . S
H1453 C1469 0.959 . S
H1454 C1469 0.959 . S
H1455 C1469 0.961 . S
H1456 C1470 0.960 . S
H1457 C1470 0.961 . S
H1458 C1470 0.959 . S
H1459 C1473 0.929 . S
H1460 C1474 0.931 . S
H1461 C1476 0.930 . S
C1462 H1450 0.930 . S
C1462 C1463 1.399 . S
C1462 C1467 1.399 . S
C1463 C1462 1.399 . S
C1463 C1464 1.376 . S
C1464 H1451 0.930 . S
C1464 C1463 1.376 . S
C1464 C1465 1.388 . S
C1465 H1452 0.930 . S
C1465 C1464 1.388 . S
C1465 C1466 1.390 . S
C1466 C1465 1.390 . S
C1466 C1467 1.394 . S
C1466 C1472 1.465 . S
C1467 C1462 1.399 . S
C1467 C1466 1.394 . S
C1467 C1468 1.516 . S
C1468 C1467 1.516 . S
C1468 C1469 1.502 . S
C1468 C1470 1.561 . S
C1468 C1471 1.526 . S
C1469 H1453 0.959 . S
C1469 H1454 0.959 . S
C1469 H1455 0.961 . S
C1469 C1468 1.502 . S
C1470 H1456 0.960 . S
C1470 H1457 0.961 . S
C1470 H1458 0.959 . S
C1470 C1468 1.561 . S
C1471 C1468 1.526 . S
C1471 C1472 1.396 . S
C1471 C1476 1.390 . S
C1472 C1466 1.465 . S
C1472 C1471 1.396 . S
C1472 C1473 1.399 . S
C1473 H1459 0.929 . S
C1473 C1472 1.399 . S
C1473 C1474 1.385 . S
C1474 H1460 0.931 . S
C1474 C1473 1.385 . S
C1474 C1475 1.389 . S
C1475 C1474 1.389 . S
C1475 C1476 1.387 . S
C1476 H1461 0.930 . S
C1476 C1471 1.390 . S
C1476 C1475 1.387 . S
H1477 C1489 0.930 . S
H1478 C1491 0.930 1_655 S
H1479 C1492 0.930 . S
H1480 C1496 0.959 . S
H1481 C1496 0.959 . S
H1482 C1496 0.961 . S
H1483 C1497 0.960 . S
H1484 C1497 0.961 . S
H1485 C1497 0.959 . S
H1486 C1500 0.929 . S
H1487 C1501 0.931 . S
H1488 C1503 0.930 . S
C1489 H1477 0.930 . S
C1489 C1490 1.399 . S
C1489 C1494 1.399 . S
C1490 C1489 1.399 . S
C1490 C1491 1.376 . S
C1491 H1478 0.930 1_455 S
C1491 C1490 1.376 . S
C1491 C1492 1.388 . S
C1492 H1479 0.930 . S
C1492 C1491 1.388 . S
C1492 C1493 1.390 . S
C1493 C1492 1.390 . S
C1493 C1494 1.394 . S
C1493 C1499 1.465 . S
C1494 C1489 1.399 . S
C1494 C1493 1.394 . S
C1494 C1495 1.516 . S
C1495 C1494 1.516 . S
C1495 C1496 1.502 . S
C1495 C1497 1.561 . S
C1495 C1498 1.526 . S
C1496 H1480 0.959 . S
C1496 H1481 0.959 . S
C1496 H1482 0.961 . S
C1496 C1495 1.502 . S
C1497 H1483 0.960 . S
C1497 H1484 0.961 . S
C1497 H1485 0.959 . S
C1497 C1495 1.561 . S
C1498 C1495 1.526 . S
C1498 C1499 1.396 . S
C1498 C1503 1.390 . S
C1499 C1493 1.465 . S
C1499 C1498 1.396 . S
C1499 C1500 1.399 . S
C1500 H1486 0.929 . S
C1500 C1499 1.399 . S
C1500 C1501 1.385 . S
C1501 H1487 0.931 . S
C1501 C1500 1.385 . S
C1501 C1502 1.389 . S
C1502 C1501 1.389 . S
C1502 C1503 1.387 . S
C1503 H1488 0.930 . S
C1503 C1498 1.390 . S
C1503 C1502 1.387 . S
H1504 C1516 0.930 . S
H1505 C1518 0.930 . S
H1506 C1519 0.930 . S
H1507 C1523 0.959 . S
H1508 C1523 0.959 . S
H1509 C1523 0.961 . S
H1510 C1524 0.960 . S
H1511 C1524 0.961 . S
H1512 C1524 0.959 . S
H1513 C1527 0.929 . S
H1514 C1528 0.931 . S
H1515 C1530 0.930 . S
C1516 H1504 0.930 . S
C1516 C1517 1.399 . S
C1516 C1521 1.399 . S
C1517 C1516 1.399 . S
C1517 C1518 1.376 . S
C1518 H1505 0.930 . S
C1518 C1517 1.376 . S
C1518 C1519 1.388 . S
C1519 H1506 0.930 . S
C1519 C1518 1.388 . S
C1519 C1520 1.390 . S
C1520 C1519 1.390 . S
C1520 C1521 1.394 . S
C1520 C1526 1.465 . S
C1521 C1516 1.399 . S
C1521 C1520 1.394 . S
C1521 C1522 1.516 . S
C1522 C1521 1.516 . S
C1522 C1523 1.502 . S
C1522 C1524 1.561 . S
C1522 C1525 1.526 . S
C1523 H1507 0.959 . S
C1523 H1508 0.959 . S
C1523 H1509 0.961 . S
C1523 C1522 1.502 . S
C1524 H1510 0.960 . S
C1524 H1511 0.961 . S
C1524 H1512 0.959 . S
C1524 C1522 1.561 . S
C1525 C1522 1.526 . S
C1525 C1526 1.396 . S
C1525 C1530 1.390 . S
C1526 C1520 1.465 . S
C1526 C1525 1.396 . S
C1526 C1527 1.399 . S
C1527 H1513 0.929 . S
C1527 C1526 1.399 . S
C1527 C1528 1.385 . S
C1528 H1514 0.931 . S
C1528 C1527 1.385 . S
C1528 C1529 1.389 . S
C1529 C1528 1.389 . S
C1529 C1530 1.387 . S
C1530 H1515 0.930 . S
C1530 C1525 1.390 . S
C1530 C1529 1.387 . S
H1531 C1543 0.930 1_454 S
H1532 C1545 0.930 . S
H1533 C1546 0.930 . S
H1534 C1550 0.959 . S
H1535 C1550 0.959 . S
H1536 C1550 0.961 . S
H1537 C1551 0.960 . S
H1538 C1551 0.960 . S
H1539 C1551 0.959 1_655 S
H1540 C1554 0.929 . S
H1541 C1555 0.931 . S
H1542 C1557 0.930 . S
C1543 H1531 0.930 1_656 S
C1543 C1544 1.399 . S
C1543 C1548 1.399 . S
C1544 C1543 1.399 . S
C1544 C1545 1.376 . S
C1545 H1532 0.930 . S
C1545 C1544 1.376 . S
C1545 C1546 1.388 . S
C1546 H1533 0.930 . S
C1546 C1545 1.388 . S
C1546 C1547 1.390 . S
C1547 C1546 1.390 . S
C1547 C1548 1.394 . S
C1547 C1553 1.465 . S
C1548 C1543 1.399 . S
C1548 C1547 1.394 . S
C1548 C1549 1.516 1_655 S
C1549 C1548 1.516 1_455 S
C1549 C1550 1.502 . S
C1549 C1551 1.561 1_556 S
C1549 C1552 1.526 . S
C1550 H1534 0.959 . S
C1550 H1535 0.959 . S
C1550 H1536 0.961 . S
C1550 C1549 1.502 . S
C1551 H1537 0.960 . S
C1551 H1538 0.960 . S
C1551 H1539 0.959 1_455 S
C1551 C1549 1.561 1_554 S
C1552 C1549 1.526 . S
C1552 C1553 1.396 1_455 S
C1552 C1557 1.390 . S
C1553 C1547 1.465 . S
C1553 C1552 1.396 1_655 S
C1553 C1554 1.399 . S
C1554 H1540 0.929 . S
C1554 C1553 1.399 . S
C1554 C1555 1.385 . S
C1555 H1541 0.931 . S
C1555 C1554 1.385 . S
C1555 C1556 1.389 . S
C1556 C1555 1.389 . S
C1556 C1557 1.387 1_655 S
C1557 H1542 0.930 . S
C1557 C1552 1.390 . S
C1557 C1556 1.387 1_455 S
H1558 C1570 0.930 . S
H1559 C1572 0.930 . S
H1560 C1573 0.930 . S
H1561 C1577 0.959 . S
H1562 C1577 0.959 . S
H1563 C1577 0.961 . S
H1564 C1578 0.960 . S
H1565 C1578 0.961 . S
H1566 C1578 0.959 . S
H1567 C1581 0.929 . S
H1568 C1582 0.931 . S
H1569 C1584 0.930 . S
C1570 H1558 0.930 . S
C1570 C1571 1.399 . S
C1570 C1575 1.399 . S
C1571 C1570 1.399 . S
C1571 C1572 1.376 . S
C1572 H1559 0.930 . S
C1572 C1571 1.376 . S
C1572 C1573 1.388 . S
C1573 H1560 0.930 . S
C1573 C1572 1.388 . S
C1573 C1574 1.390 . S
C1574 C1573 1.390 . S
C1574 C1575 1.394 . S
C1574 C1580 1.465 . S
C1575 C1570 1.399 . S
C1575 C1574 1.394 . S
C1575 C1576 1.516 . S
C1576 C1575 1.516 . S
C1576 C1577 1.502 . S
C1576 C1578 1.561 . S
C1576 C1579 1.526 . S
C1577 H1561 0.959 . S
C1577 H1562 0.959 . S
C1577 H1563 0.961 . S
C1577 C1576 1.502 . S
C1578 H1564 0.960 . S
C1578 H1565 0.961 . S
C1578 H1566 0.959 . S
C1578 C1576 1.561 . S
C1579 C1576 1.526 . S
C1579 C1580 1.396 . S
C1579 C1584 1.390 . S
C1580 C1574 1.465 . S
C1580 C1579 1.396 . S
C1580 C1581 1.399 . S
C1581 H1567 0.929 . S
C1581 C1580 1.399 . S
C1581 C1582 1.385 . S
C1582 H1568 0.931 . S
C1582 C1581 1.385 . S
C1582 C1583 1.389 . S
C1583 C1582 1.389 . S
C1583 C1584 1.387 . S
C1584 H1569 0.930 . S
C1584 C1579 1.390 . S
C1584 C1583 1.387 . S
H1585 C1597 0.930 . S
H1586 C1599 0.930 . S
H1587 C1600 0.930 . S
H1588 C1604 0.959 . S
H1589 C1604 0.955 1_554 S
H1590 C1604 0.961 1_554 S
H1591 C1605 0.960 . S
H1592 C1605 0.961 . S
H1593 C1605 0.959 1_556 S
H1594 C1608 0.929 . S
H1595 C1609 0.931 . S
H1596 C1611 0.940 . S
C1597 H1585 0.930 . S
C1597 C1598 1.399 1_554 S
C1597 C1602 1.399 1_554 S
C1598 C1597 1.399 1_556 S
C1598 C1599 1.376 . S
C1599 H1586 0.930 . S
C1599 C1598 1.376 . S
C1599 C1600 1.388 . S
C1600 H1587 0.930 . S
C1600 C1599 1.388 . S
C1600 C1601 1.390 . S
C1601 C1600 1.390 . S
C1601 C1602 1.394 . S
C1601 C1607 1.465 . S
C1602 C1597 1.399 1_556 S
C1602 C1601 1.394 . S
C1602 C1603 1.516 . S
C1603 C1602 1.516 . S
C1603 C1604 1.502 1_455 S
C1603 C1605 1.561 1_556 S
C1603 C1606 1.526 . S
C1604 H1588 0.959 . S
C1604 H1589 0.955 1_556 S
C1604 H1590 0.961 1_556 S
C1604 C1603 1.502 1_655 S
C1605 H1591 0.960 . S
C1605 H1592 0.961 . S
C1605 H1593 0.959 1_554 S
C1605 C1603 1.561 1_554 S
C1606 C1603 1.526 . S
C1606 C1607 1.396 . S
C1606 C1611 1.382 1_455 S
C1607 C1601 1.465 . S
C1607 C1606 1.396 . S
C1607 C1608 1.399 . S
C1608 H1594 0.929 . S
C1608 C1607 1.399 . S
C1608 C1609 1.385 . S
C1609 H1595 0.931 . S
C1609 C1608 1.385 . S
C1609 C1610 1.389 . S
C1610 C1609 1.389 . S
C1610 C1611 1.385 1_455 S
C1611 H1596 0.940 . S
C1611 C1606 1.382 1_655 S
C1611 C1610 1.385 1_655 S
H1612 C1624 0.930 . S
H1613 C1626 0.930 . S
H1614 C1627 0.930 . S
H1615 C1631 0.959 . S
H1616 C1631 0.959 . S
H1617 C1631 0.961 . S
H1618 C1632 0.960 . S
H1619 C1632 0.961 . S
H1620 C1632 0.959 . S
H1621 C1635 0.929 . S
H1622 C1636 0.931 . S
H1623 C1638 0.930 . S
C1624 H1612 0.930 . S
C1624 C1625 1.399 . S
C1624 C1629 1.399 . S
C1625 C1624 1.399 . S
C1625 C1626 1.376 . S
C1626 H1613 0.930 . S
C1626 C1625 1.376 . S
C1626 C1627 1.388 . S
C1627 H1614 0.930 . S
C1627 C1626 1.388 . S
C1627 C1628 1.390 . S
C1628 C1627 1.390 . S
C1628 C1629 1.394 . S
C1628 C1634 1.465 . S
C1629 C1624 1.399 . S
C1629 C1628 1.394 . S
C1629 C1630 1.516 . S
C1630 C1629 1.516 . S
C1630 C1631 1.502 . S
C1630 C1632 1.561 . S
C1630 C1633 1.526 . S
C1631 H1615 0.959 . S
C1631 H1616 0.959 . S
C1631 H1617 0.961 . S
C1631 C1630 1.502 . S
C1632 H1618 0.960 . S
C1632 H1619 0.961 . S
C1632 H1620 0.959 . S
C1632 C1630 1.561 . S
C1633 C1630 1.526 . S
C1633 C1634 1.396 . S
C1633 C1638 1.390 . S
C1634 C1628 1.465 . S
C1634 C1633 1.396 . S
C1634 C1635 1.399 . S
C1635 H1621 0.929 . S
C1635 C1634 1.399 . S
C1635 C1636 1.385 . S
C1636 H1622 0.931 . S
C1636 C1635 1.385 . S
C1636 C1637 1.389 . S
C1637 C1636 1.389 . S
C1637 C1638 1.387 . S
C1638 H1623 0.930 . S
C1638 C1633 1.390 . S
C1638 C1637 1.387 . S
H1639 C1651 0.930 . S
H1640 C1653 0.930 1_556 S
H1641 C1654 0.930 . S
H1642 C1658 0.959 . S
H1643 C1658 0.959 . S
H1644 C1658 0.961 . S
H1645 C1659 0.960 . S
H1646 C1659 0.961 . S
H1647 C1659 0.959 . S
H1648 C1662 0.929 . S
H1649 C1663 0.931 . S
H1650 C1665 0.930 . S
C1651 H1639 0.930 . S
C1651 C1652 1.399 . S
C1651 C1656 1.399 . S
C1652 C1651 1.399 . S
C1652 C1653 1.376 . S
C1653 H1640 0.930 1_554 S
C1653 C1652 1.376 . S
C1653 C1654 1.388 . S
C1654 H1641 0.930 . S
C1654 C1653 1.388 . S
C1654 C1655 1.390 . S
C1655 C1654 1.390 . S
C1655 C1656 1.394 . S
C1655 C1661 1.465 . S
C1656 C1651 1.399 . S
C1656 C1655 1.394 . S
C1656 C1657 1.516 . S
C1657 C1656 1.516 . S
C1657 C1658 1.502 . S
C1657 C1659 1.561 . S
C1657 C1660 1.526 . S
C1658 H1642 0.959 . S
C1658 H1643 0.959 . S
C1658 H1644 0.961 . S
C1658 C1657 1.502 . S
C1659 H1645 0.960 . S
C1659 H1646 0.961 . S
C1659 H1647 0.959 . S
C1659 C1657 1.561 . S
C1660 C1657 1.526 . S
C1660 C1661 1.396 . S
C1660 C1665 1.390 . S
C1661 C1655 1.465 . S
C1661 C1660 1.396 . S
C1661 C1662 1.399 . S
C1662 H1648 0.929 . S
C1662 C1661 1.399 . S
C1662 C1663 1.385 . S
C1663 H1649 0.931 . S
C1663 C1662 1.385 . S
C1663 C1664 1.389 . S
C1664 C1663 1.389 . S
C1664 C1665 1.387 . S
C1665 H1650 0.930 . S
C1665 C1660 1.390 . S
C1665 C1664 1.387 . S
H1666 C1678 0.930 . S
H1667 C1680 0.930 . S
H1668 C1681 0.930 . S
H1669 C1685 0.959 . S
H1670 C1685 0.959 . S
H1671 C1685 0.961 . S
H1672 C1686 0.960 . S
H1673 C1686 0.961 . S
H1674 C1686 0.959 . S
H1675 C1689 0.929 . S
H1676 C1690 0.931 . S
H1677 C1692 0.930 . S
C1678 H1666 0.930 . S
C1678 C1679 1.399 . S
C1678 C1683 1.399 . S
C1679 C1678 1.399 . S
C1679 C1680 1.376 . S
C1680 H1667 0.930 . S
C1680 C1679 1.376 . S
C1680 C1681 1.388 . S
C1681 H1668 0.930 . S
C1681 C1680 1.388 . S
C1681 C1682 1.390 . S
C1682 C1681 1.390 . S
C1682 C1683 1.394 . S
C1682 C1688 1.465 . S
C1683 C1678 1.399 . S
C1683 C1682 1.394 . S
C1683 C1684 1.516 . S
C1684 C1683 1.516 . S
C1684 C1685 1.502 . S
C1684 C1686 1.561 . S
C1684 C1687 1.526 . S
C1685 H1669 0.959 . S
C1685 H1670 0.959 . S
C1685 H1671 0.961 . S
C1685 C1684 1.502 . S
C1686 H1672 0.960 . S
C1686 H1673 0.961 . S
C1686 H1674 0.959 . S
C1686 C1684 1.561 . S
C1687 C1684 1.526 . S
C1687 C1688 1.396 . S
C1687 C1692 1.390 . S
C1688 C1682 1.465 . S
C1688 C1687 1.396 . S
C1688 C1689 1.399 . S
C1689 H1675 0.929 . S
C1689 C1688 1.399 . S
C1689 C1690 1.385 . S
C1690 H1676 0.931 . S
C1690 C1689 1.385 . S
C1690 C1691 1.389 . S
C1691 C1690 1.389 . S
C1691 C1692 1.387 . S
C1692 H1677 0.930 . S
C1692 C1687 1.390 . S
C1692 C1691 1.387 . S
H1693 C1705 0.930 . S
H1694 C1707 0.930 . S
H1695 C1708 0.930 . S
H1696 C1712 0.959 . S
H1697 C1712 0.959 . S
H1698 C1712 0.961 . S
H1699 C1713 0.960 . S
H1700 C1713 0.961 . S
H1701 C1713 0.959 . S
H1702 C1716 0.929 . S
H1703 C1717 0.931 . S
H1704 C1719 0.930 . S
C1705 H1693 0.930 . S
C1705 C1706 1.399 . S
C1705 C1710 1.399 . S
C1706 C1705 1.399 . S
C1706 C1707 1.376 . S
C1707 H1694 0.930 . S
C1707 C1706 1.376 . S
C1707 C1708 1.388 . S
C1708 H1695 0.930 . S
C1708 C1707 1.388 . S
C1708 C1709 1.390 . S
C1709 C1708 1.390 . S
C1709 C1710 1.394 . S
C1709 C1715 1.465 . S
C1710 C1705 1.399 . S
C1710 C1709 1.394 . S
C1710 C1711 1.516 . S
C1711 C1710 1.516 . S
C1711 C1712 1.502 . S
C1711 C1713 1.561 . S
C1711 C1714 1.526 . S
C1712 H1696 0.959 . S
C1712 H1697 0.959 . S
C1712 H1698 0.961 . S
C1712 C1711 1.502 . S
C1713 H1699 0.960 . S
C1713 H1700 0.961 . S
C1713 H1701 0.959 . S
C1713 C1711 1.561 . S
C1714 C1711 1.526 . S
C1714 C1715 1.396 . S
C1714 C1719 1.390 . S
C1715 C1709 1.465 . S
C1715 C1714 1.396 . S
C1715 C1716 1.399 . S
C1716 H1702 0.929 . S
C1716 C1715 1.399 . S
C1716 C1717 1.385 . S
C1717 H1703 0.931 . S
C1717 C1716 1.385 . S
C1717 C1718 1.389 . S
C1718 C1717 1.389 . S
C1718 C1719 1.387 . S
C1719 H1704 0.930 . S
C1719 C1714 1.390 . S
C1719 C1718 1.387 . S
H1720 C1732 0.930 . S
H1721 C1734 0.930 . S
H1722 C1735 0.930 . S
H1723 C1739 0.959 . S
H1724 C1739 0.959 . S
H1725 C1739 0.961 . S
H1726 C1740 0.960 . S
H1727 C1740 0.961 . S
H1728 C1740 0.959 . S
H1729 C1743 0.929 . S
H1730 C1744 0.931 . S
H1731 C1746 0.930 . S
C1732 H1720 0.930 . S
C1732 C1733 1.399 . S
C1732 C1737 1.399 . S
C1733 C1732 1.399 . S
C1733 C1734 1.376 . S
C1734 H1721 0.930 . S
C1734 C1733 1.376 . S
C1734 C1735 1.388 . S
C1735 H1722 0.930 . S
C1735 C1734 1.388 . S
C1735 C1736 1.390 . S
C1736 C1735 1.390 . S
C1736 C1737 1.394 . S
C1736 C1742 1.465 . S
C1737 C1732 1.399 . S
C1737 C1736 1.394 . S
C1737 C1738 1.516 . S
C1738 C1737 1.516 . S
C1738 C1739 1.502 . S
C1738 C1740 1.561 . S
C1738 C1741 1.526 . S
C1739 H1723 0.959 . S
C1739 H1724 0.959 . S
C1739 H1725 0.961 . S
C1739 C1738 1.502 . S
C1740 H1726 0.960 . S
C1740 H1727 0.961 . S
C1740 H1728 0.959 . S
C1740 C1738 1.561 . S
C1741 C1738 1.526 . S
C1741 C1742 1.396 . S
C1741 C1746 1.390 . S
C1742 C1736 1.465 . S
C1742 C1741 1.396 . S
C1742 C1743 1.399 . S
C1743 H1729 0.929 . S
C1743 C1742 1.399 . S
C1743 C1744 1.385 . S
C1744 H1730 0.931 . S
C1744 C1743 1.385 . S
C1744 C1745 1.389 . S
C1745 C1744 1.389 . S
C1745 C1746 1.387 . S
C1746 H1731 0.930 . S
C1746 C1741 1.390 . S
C1746 C1745 1.387 . S
H1747 C1759 0.930 . S
H1748 C1761 0.930 . S
H1749 C1762 0.930 . S
H1750 C1766 0.959 . S
H1751 C1766 0.959 . S
H1752 C1766 0.961 . S
H1753 C1767 0.960 . S
H1754 C1767 0.961 . S
H1755 C1767 0.959 . S
H1756 C1770 0.929 . S
H1757 C1771 0.931 . S
H1758 C1773 0.930 . S
C1759 H1747 0.930 . S
C1759 C1760 1.399 . S
C1759 C1764 1.399 . S
C1760 C1759 1.399 . S
C1760 C1761 1.376 . S
C1761 H1748 0.930 . S
C1761 C1760 1.376 . S
C1761 C1762 1.388 . S
C1762 H1749 0.930 . S
C1762 C1761 1.388 . S
C1762 C1763 1.390 . S
C1763 C1762 1.390 . S
C1763 C1764 1.394 . S
C1763 C1769 1.465 . S
C1764 C1759 1.399 . S
C1764 C1763 1.394 . S
C1764 C1765 1.516 . S
C1765 C1764 1.516 . S
C1765 C1766 1.502 . S
C1765 C1767 1.561 . S
C1765 C1768 1.526 . S
C1766 H1750 0.959 . S
C1766 H1751 0.959 . S
C1766 H1752 0.961 . S
C1766 C1765 1.502 . S
C1767 H1753 0.960 . S
C1767 H1754 0.961 . S
C1767 H1755 0.959 . S
C1767 C1765 1.561 . S
C1768 C1765 1.526 . S
C1768 C1769 1.396 . S
C1768 C1773 1.390 . S
C1769 C1763 1.465 . S
C1769 C1768 1.396 . S
C1769 C1770 1.399 . S
C1770 H1756 0.929 . S
C1770 C1769 1.399 . S
C1770 C1771 1.385 . S
C1771 H1757 0.931 . S
C1771 C1770 1.385 . S
C1771 C1772 1.389 . S
C1772 C1771 1.389 . S
C1772 C1773 1.387 . S
C1773 H1758 0.930 . S
C1773 C1768 1.390 . S
C1773 C1772 1.387 . S
H1774 C1786 0.930 . S
H1775 C1788 0.930 . S
H1776 C1789 0.930 . S
H1777 C1793 0.959 . S
H1778 C1793 0.959 . S
H1779 C1793 0.961 . S
H1780 C1794 0.960 . S
H1781 C1794 0.961 . S
H1782 C1794 0.959 . S
H1783 C1797 0.929 . S
H1784 C1798 0.931 . S
H1785 C1800 0.930 . S
C1786 H1774 0.930 . S
C1786 C1787 1.399 . S
C1786 C1791 1.399 . S
C1787 C1786 1.399 . S
C1787 C1788 1.376 . S
C1788 H1775 0.930 . S
C1788 C1787 1.376 . S
C1788 C1789 1.388 . S
C1789 H1776 0.930 . S
C1789 C1788 1.388 . S
C1789 C1790 1.390 . S
C1790 C1789 1.390 . S
C1790 C1791 1.394 . S
C1790 C1796 1.465 . S
C1791 C1786 1.399 . S
C1791 C1790 1.394 . S
C1791 C1792 1.516 . S
C1792 C1791 1.516 . S
C1792 C1793 1.502 . S
C1792 C1794 1.561 . S
C1792 C1795 1.526 . S
C1793 H1777 0.959 . S
C1793 H1778 0.959 . S
C1793 H1779 0.961 . S
C1793 C1792 1.502 . S
C1794 H1780 0.960 . S
C1794 H1781 0.961 . S
C1794 H1782 0.959 . S
C1794 C1792 1.561 . S
C1795 C1792 1.526 . S
C1795 C1796 1.396 . S
C1795 C1800 1.390 . S
C1796 C1790 1.465 . S
C1796 C1795 1.396 . S
C1796 C1797 1.399 . S
C1797 H1783 0.929 . S
C1797 C1796 1.399 . S
C1797 C1798 1.385 . S
C1798 H1784 0.931 . S
C1798 C1797 1.385 . S
C1798 C1799 1.389 . S
C1799 C1798 1.389 . S
C1799 C1800 1.387 . S
C1800 H1785 0.930 . S
C1800 C1795 1.390 . S
C1800 C1799 1.387 . S
H1801 C1813 0.930 . S
H1802 C1815 0.930 . S
H1803 C1816 0.930 . S
H1804 C1820 0.959 . S
H1805 C1820 0.959 . S
H1806 C1820 0.961 . S
H1807 C1821 0.960 . S
H1808 C1821 0.961 . S
H1809 C1821 0.959 . S
H1810 C1824 0.929 . S
H1811 C1825 0.931 . S
H1812 C1827 0.930 . S
C1813 H1801 0.930 . S
C1813 C1814 1.399 . S
C1813 C1818 1.399 . S
C1814 C1813 1.399 . S
C1814 C1815 1.376 . S
C1815 H1802 0.930 . S
C1815 C1814 1.376 . S
C1815 C1816 1.388 . S
C1816 H1803 0.930 . S
C1816 C1815 1.388 . S
C1816 C1817 1.390 . S
C1817 C1816 1.390 . S
C1817 C1818 1.394 . S
C1817 C1823 1.465 . S
C1818 C1813 1.399 . S
C1818 C1817 1.394 . S
C1818 C1819 1.516 . S
C1819 C1818 1.516 . S
C1819 C1820 1.502 . S
C1819 C1821 1.561 . S
C1819 C1822 1.526 . S
C1820 H1804 0.959 . S
C1820 H1805 0.959 . S
C1820 H1806 0.961 . S
C1820 C1819 1.502 . S
C1821 H1807 0.960 . S
C1821 H1808 0.961 . S
C1821 H1809 0.959 . S
C1821 C1819 1.561 . S
C1822 C1819 1.526 . S
C1822 C1823 1.396 . S
C1822 C1827 1.390 . S
C1823 C1817 1.465 . S
C1823 C1822 1.396 . S
C1823 C1824 1.399 . S
C1824 H1810 0.929 . S
C1824 C1823 1.399 . S
C1824 C1825 1.385 . S
C1825 H1811 0.931 . S
C1825 C1824 1.385 . S
C1825 C1826 1.389 . S
C1826 C1825 1.389 . S
C1826 C1827 1.387 . S
C1827 H1812 0.930 . S
C1827 C1822 1.390 . S
C1827 C1826 1.387 . S
H1828 C1840 0.930 . S
H1829 C1842 0.930 . S
H1830 C1843 0.930 . S
H1831 C1847 0.959 . S
H1832 C1847 0.959 . S
H1833 C1847 0.961 . S
H1834 C1848 0.960 . S
H1835 C1848 0.961 . S
H1836 C1848 0.959 . S
H1837 C1851 0.929 . S
H1838 C1852 0.931 . S
H1839 C1854 0.930 . S
C1840 H1828 0.930 . S
C1840 C1841 1.399 . S
C1840 C1845 1.399 . S
C1841 C1840 1.399 . S
C1841 C1842 1.376 . S
C1842 H1829 0.930 . S
C1842 C1841 1.376 . S
C1842 C1843 1.388 1_556 S
C1843 H1830 0.930 . S
C1843 C1842 1.388 1_554 S
C1843 C1844 1.390 . S
C1844 C1843 1.390 . S
C1844 C1845 1.394 1_554 S
C1844 C1850 1.465 . S
C1845 C1840 1.399 . S
C1845 C1844 1.394 1_556 S
C1845 C1846 1.516 . S
C1846 C1845 1.516 . S
C1846 C1847 1.502 . S
C1846 C1848 1.561 1_556 S
C1846 C1849 1.526 1_556 S
C1847 H1831 0.959 . S
C1847 H1832 0.959 . S
C1847 H1833 0.961 . S
C1847 C1846 1.502 . S
C1848 H1834 0.960 . S
C1848 H1835 0.961 . S
C1848 H1836 0.959 . S
C1848 C1846 1.561 1_554 S
C1849 C1846 1.526 1_554 S
C1849 C1850 1.396 . S
C1849 C1854 1.390 . S
C1850 C1844 1.465 . S
C1850 C1849 1.396 . S
C1850 C1851 1.399 . S
C1851 H1837 0.929 . S
C1851 C1850 1.399 . S
C1851 C1852 1.385 . S
C1852 H1838 0.931 . S
C1852 C1851 1.385 . S
C1852 C1853 1.389 . S
C1853 C1852 1.389 . S
C1853 C1854 1.387 . S
C1854 H1839 0.930 . S
C1854 C1849 1.390 . S
C1854 C1853 1.387 . S
H1855 C1867 0.930 . S
H1856 C1869 0.930 . S
H1857 C1870 0.930 . S
H1858 C1874 0.959 . S
H1859 C1874 0.959 . S
H1860 C1874 0.961 . S
H1861 C1875 0.960 . S
H1862 C1875 0.961 . S
H1863 C1875 0.959 . S
H1864 C1878 0.929 . S
H1865 C1879 0.931 . S
H1866 C1881 0.930 . S
C1867 H1855 0.930 . S
C1867 C1868 1.399 . S
C1867 C1872 1.399 . S
C1868 C1867 1.399 . S
C1868 C1869 1.376 . S
C1869 H1856 0.930 . S
C1869 C1868 1.376 . S
C1869 C1870 1.388 . S
C1870 H1857 0.930 . S
C1870 C1869 1.388 . S
C1870 C1871 1.390 . S
C1871 C1870 1.390 . S
C1871 C1872 1.394 . S
C1871 C1877 1.465 . S
C1872 C1867 1.399 . S
C1872 C1871 1.394 . S
C1872 C1873 1.516 . S
C1873 C1872 1.516 . S
C1873 C1874 1.502 . S
C1873 C1875 1.561 . S
C1873 C1876 1.526 . S
C1874 H1858 0.959 . S
C1874 H1859 0.959 . S
C1874 H1860 0.961 . S
C1874 C1873 1.502 . S
C1875 H1861 0.960 . S
C1875 H1862 0.961 . S
C1875 H1863 0.959 . S
C1875 C1873 1.561 . S
C1876 C1873 1.526 . S
C1876 C1877 1.396 . S
C1876 C1881 1.390 . S
C1877 C1871 1.465 . S
C1877 C1876 1.396 . S
C1877 C1878 1.399 . S
C1878 H1864 0.929 . S
C1878 C1877 1.399 . S
C1878 C1879 1.385 . S
C1879 H1865 0.931 . S
C1879 C1878 1.385 . S
C1879 C1880 1.389 . S
C1880 C1879 1.389 . S
C1880 C1881 1.387 . S
C1881 H1866 0.930 . S
C1881 C1876 1.390 . S
C1881 C1880 1.387 . S
H1882 C1894 0.930 . S
H1883 C1896 0.930 . S
H1884 C1897 0.930 . S
H1885 C1901 0.959 . S
H1886 C1901 0.959 . S
H1887 C1901 0.961 . S
H1888 C1902 0.960 . S
H1889 C1902 0.961 . S
H1890 C1902 0.959 . S
H1891 C1905 0.929 . S
H1892 C1906 0.931 . S
H1893 C1908 0.930 . S
C1894 H1882 0.930 . S
C1894 C1895 1.399 . S
C1894 C1899 1.399 . S
C1895 C1894 1.399 . S
C1895 C1896 1.376 . S
C1896 H1883 0.930 . S
C1896 C1895 1.376 . S
C1896 C1897 1.388 . S
C1897 H1884 0.930 . S
C1897 C1896 1.388 . S
C1897 C1898 1.390 . S
C1898 C1897 1.390 . S
C1898 C1899 1.394 . S
C1898 C1904 1.465 . S
C1899 C1894 1.399 . S
C1899 C1898 1.394 . S
C1899 C1900 1.516 . S
C1900 C1899 1.516 . S
C1900 C1901 1.502 . S
C1900 C1902 1.561 . S
C1900 C1903 1.526 . S
C1901 H1885 0.959 . S
C1901 H1886 0.959 . S
C1901 H1887 0.961 . S
C1901 C1900 1.502 . S
C1902 H1888 0.960 . S
C1902 H1889 0.961 . S
C1902 H1890 0.959 . S
C1902 C1900 1.561 . S
C1903 C1900 1.526 . S
C1903 C1904 1.396 . S
C1903 C1908 1.390 . S
C1904 C1898 1.465 . S
C1904 C1903 1.396 . S
C1904 C1905 1.399 . S
C1905 H1891 0.929 . S
C1905 C1904 1.399 . S
C1905 C1906 1.385 . S
C1906 H1892 0.931 . S
C1906 C1905 1.385 . S
C1906 C1907 1.389 . S
C1907 C1906 1.389 . S
C1907 C1908 1.387 . S
C1908 H1893 0.930 . S
C1908 C1903 1.390 . S
C1908 C1907 1.387 . S
H1909 C1921 0.930 . S
H1910 C1923 0.911 1_546 S
H1911 C1924 0.930 1_545 S
H1912 C1928 0.959 . S
H1913 C1928 0.959 . S
H1914 C1928 0.961 . S
H1915 C1929 0.960 . S
H1916 C1929 0.961 . S
H1917 C1929 0.959 . S
H1918 C1932 0.929 . S
H1919 C1933 0.931 . S
H1920 C1935 0.930 . S
C1921 H1909 0.930 . S
C1921 C1922 1.399 . S
C1921 C1926 1.399 . S
C1922 C1921 1.399 . S
C1922 C1923 1.386 . S
C1923 H1910 0.911 1_564 S
C1923 C1922 1.386 . S
C1923 C1924 1.399 1_554 S
C1924 H1911 0.930 1_565 S
C1924 C1923 1.399 1_556 S
C1924 C1925 1.390 1_556 S
C1925 C1924 1.390 1_554 S
C1925 C1926 1.394 . S
C1925 C1931 1.466 1_554 S
C1926 C1921 1.399 . S
C1926 C1925 1.394 . S
C1926 C1927 1.516 . S
C1927 C1926 1.516 . S
C1927 C1928 1.502 . S
C1927 C1929 1.561 . S
C1927 C1930 1.526 . S
C1928 H1912 0.959 . S
C1928 H1913 0.959 . S
C1928 H1914 0.961 . S
C1928 C1927 1.502 . S
C1929 H1915 0.960 . S
C1929 H1916 0.961 . S
C1929 H1917 0.959 . S
C1929 C1927 1.561 . S
C1930 C1927 1.526 . S
C1930 C1931 1.398 1_554 S
C1930 C1935 1.390 . S
C1931 C1925 1.466 1_556 S
C1931 C1930 1.398 1_556 S
C1931 C1932 1.397 . S
C1932 H1918 0.929 . S
C1932 C1931 1.397 . S
C1932 C1933 1.385 . S
C1933 H1919 0.931 . S
C1933 C1932 1.385 . S
C1933 C1934 1.390 1_556 S
C1934 C1933 1.390 1_554 S
C1934 C1935 1.386 . S
C1935 H1920 0.930 . S
C1935 C1930 1.390 . S
C1935 C1934 1.386 . S
C665 C210 1.648 . S
C653 C73 1.667 . S
C692 C258 1.316 . S
C680 C82 1.315 . S
C707 C100 1.767 . S
C719 C294 1.669 . S
C746 C330 1.384 . S
C734 C56 1.375 1_655 S
C773 C356 1.373 . S
C761 C134 1.359 . S
C800 C392 1.696 . S
C788 C165 1.726 . S
C815 C147 1.124 . S
C827 C427 1.228 . S
C854 C464 1.900 . S
C842 C125 1.896 . S
C869 C151 1.327 . S
C881 C498 1.292 . S
C908 C546 1.493 . S
C896 C121 1.510 . S
C923 C139 1.669 . S
C935 C499 1.705 . S
C962 C536 1.444 . S
C950 C164 1.451 . S
C977 C95 1.308 . S
C989 C582 1.374 . S
C1004 C61 1.534 . S
C1016 C571 1.547 . S
C1031 C74 1.361 . S
C1043 C572 1.360 . S
C1058 C86 1.844 . S
C1070 C570 1.823 . S
C1085 C47 1.302 . S
C1097 C318 1.323 . S
C1112 C186 1.127 . S
C1124 C319 1.251 . S
C1151 C222 1.595 . S
C1139 C204 1.641 . S
C1178 C247 1.843 . S
C1166 C112 1.847 . S
C1193 C60 1.516 1_545 S
C1205 C354 1.519 . S
C1232 C462 1.350 . S
C1220 C152 1.375 . S
C1259 C355 1.913 . S
C1247 C126 1.904 1_545 S
C1286 C428 1.394 . S
C1274 C160 1.389 . S
C1313 C426 1.672 . S
C1301 C190 1.652 . S
C1328 C199 1.390 . S
C1340 C474 1.404 . S
C1355 C113 1.788 . S
C1367 C366 1.668 . S
C1394 C402 1.366 . S
C1382 C173 1.439 . S
C1409 C43 1.342 . S
C1421 C284 1.312 . S
C1448 C320 1.705 . S
C1436 C9 1.713 1_655 S
C1475 C211 1.221 . S
C1463 C17 1.208 . S
C1502 C248 1.900 . S
C1490 C34 1.896 1_455 S
C1517 C21 1.317 . S
C1529 C534 1.293 . S
C1544 C30 1.486 1_556 S
C1556 C510 1.453 . S
C1571 C48 1.670 . S
C1583 C535 1.707 . S
C1598 C8 1.451 1_556 S
C1610 C500 1.445 1_455 S
C1637 C618 1.297 . S
C1625 C108 1.332 . S
C1664 C607 1.560 . S
C1652 C178 1.557 1_554 S
C1691 C608 1.342 . S
C1679 C191 1.373 . S
C1706 C203 1.839 . S
C1718 C606 1.839 . S
C1733 C138 1.321 . S
C1745 C390 1.308 . S
C1772 C391 1.247 . S
C1760 C69 1.229 . S
C1799 C438 1.595 . S
C1787 C87 1.641 . S
C1826 C463 1.858 . S
C1814 C99 1.848 . S
C1841 C177 1.509 . S
C1853 C282 1.513 . S
C1880 C246 1.376 . S
C1868 C22 1.345 . S
C1895 C35 1.907 . S
C1907 C283 1.904 . S
C1934 C212 1.397 1_554 S
C1922 C4 1.394 . S
