# Generated by pormake.
# Topology tbo, (3,4)-cn, num edge types: 1
# Building blocks:
#     Node 0, Type 0, BuildingBlock: WUSLED_clean_sbu_0, # of connection points: 3
#     Node 1, Type 0, BuildingBlock: WUSLED_clean_sbu_0, # of connection points: 3
#     Node 2, Type 0, BuildingBlock: WUSLED_clean_sbu_0, # of connection points: 3
#     Node 3, Type 0, BuildingBlock: WUSLED_clean_sbu_0, # of connection points: 3
#     Node 4, Type 0, BuildingBlock: WUSLED_clean_sbu_0, # of connection points: 3
#     Node 5, Type 0, BuildingBlock: WUSLED_clean_sbu_0, # of connection points: 3
#     Node 6, Type 0, BuildingBlock: WUSLED_clean_sbu_0, # of connection points: 3
#     Node 7, Type 0, BuildingBlock: WUSLED_clean_sbu_0, # of connection points: 3
#     Node 8, Type 0, BuildingBlock: WUSLED_clean_sbu_0, # of connection points: 3
#     Node 9, Type 0, BuildingBlock: WUSLED_clean_sbu_0, # of connection points: 3
#     Node 10, Type 0, BuildingBlock: WUSLED_clean_sbu_0, # of connection points: 3
#     Node 11, Type 0, BuildingBlock: WUSLED_clean_sbu_0, # of connection points: 3
#     Node 12, Type 0, BuildingBlock: WUSLED_clean_sbu_0, # of connection points: 3
#     Node 13, Type 0, BuildingBlock: WUSLED_clean_sbu_0, # of connection points: 3
#     Node 14, Type 0, BuildingBlock: WUSLED_clean_sbu_0, # of connection points: 3
#     Node 15, Type 0, BuildingBlock: WUSLED_clean_sbu_0, # of connection points: 3
#     Node 16, Type 0, BuildingBlock: WUSLED_clean_sbu_0, # of connection points: 3
#     Node 17, Type 0, BuildingBlock: WUSLED_clean_sbu_0, # of connection points: 3
#     Node 18, Type 0, BuildingBlock: WUSLED_clean_sbu_0, # of connection points: 3
#     Node 19, Type 0, BuildingBlock: WUSLED_clean_sbu_0, # of connection points: 3
#     Node 20, Type 0, BuildingBlock: WUSLED_clean_sbu_0, # of connection points: 3
#     Node 21, Type 0, BuildingBlock: WUSLED_clean_sbu_0, # of connection points: 3
#     Node 22, Type 0, BuildingBlock: WUSLED_clean_sbu_0, # of connection points: 3
#     Node 23, Type 0, BuildingBlock: WUSLED_clean_sbu_0, # of connection points: 3
#     Node 24, Type 0, BuildingBlock: WUSLED_clean_sbu_0, # of connection points: 3
#     Node 25, Type 0, BuildingBlock: WUSLED_clean_sbu_0, # of connection points: 3
#     Node 26, Type 0, BuildingBlock: WUSLED_clean_sbu_0, # of connection points: 3
#     Node 27, Type 0, BuildingBlock: WUSLED_clean_sbu_0, # of connection points: 3
#     Node 28, Type 0, BuildingBlock: WUSLED_clean_sbu_0, # of connection points: 3
#     Node 29, Type 0, BuildingBlock: WUSLED_clean_sbu_0, # of connection points: 3
#     Node 30, Type 0, BuildingBlock: WUSLED_clean_sbu_0, # of connection points: 3
#     Node 31, Type 0, BuildingBlock: WUSLED_clean_sbu_0, # of connection points: 3
#     Node 32, Type 1, BuildingBlock: MIFKUJ_clean_linker_1, # of connection points: 4
#     Node 33, Type 1, BuildingBlock: MIFKUJ_clean_linker_1, # of connection points: 4
#     Node 34, Type 1, BuildingBlock: MIFKUJ_clean_linker_1, # of connection points: 4
#     Node 35, Type 1, BuildingBlock: MIFKUJ_clean_linker_1, # of connection points: 4
#     Node 36, Type 1, BuildingBlock: MIFKUJ_clean_linker_1, # of connection points: 4
#     Node 37, Type 1, BuildingBlock: MIFKUJ_clean_linker_1, # of connection points: 4
#     Node 38, Type 1, BuildingBlock: MIFKUJ_clean_linker_1, # of connection points: 4
#     Node 39, Type 1, BuildingBlock: MIFKUJ_clean_linker_1, # of connection points: 4
#     Node 40, Type 1, BuildingBlock: MIFKUJ_clean_linker_1, # of connection points: 4
#     Node 41, Type 1, BuildingBlock: MIFKUJ_clean_linker_1, # of connection points: 4
#     Node 42, Type 1, BuildingBlock: MIFKUJ_clean_linker_1, # of connection points: 4
#     Node 43, Type 1, BuildingBlock: MIFKUJ_clean_linker_1, # of connection points: 4
#     Node 44, Type 1, BuildingBlock: MIFKUJ_clean_linker_1, # of connection points: 4
#     Node 45, Type 1, BuildingBlock: MIFKUJ_clean_linker_1, # of connection points: 4
#     Node 46, Type 1, BuildingBlock: MIFKUJ_clean_linker_1, # of connection points: 4
#     Node 47, Type 1, BuildingBlock: MIFKUJ_clean_linker_1, # of connection points: 4
#     Node 48, Type 1, BuildingBlock: MIFKUJ_clean_linker_1, # of connection points: 4
#     Node 49, Type 1, BuildingBlock: MIFKUJ_clean_linker_1, # of connection points: 4
#     Node 50, Type 1, BuildingBlock: MIFKUJ_clean_linker_1, # of connection points: 4
#     Node 51, Type 1, BuildingBlock: MIFKUJ_clean_linker_1, # of connection points: 4
#     Node 52, Type 1, BuildingBlock: MIFKUJ_clean_linker_1, # of connection points: 4
#     Node 53, Type 1, BuildingBlock: MIFKUJ_clean_linker_1, # of connection points: 4
#     Node 54, Type 1, BuildingBlock: MIFKUJ_clean_linker_1, # of connection points: 4
#     Node 55, Type 1, BuildingBlock: MIFKUJ_clean_linker_1, # of connection points: 4
#     Edge 56, Type (0, 1), BuildingBlock: UVAHIK_clean_linker_0, # of connection points: 2
#     Edge 57, Type (0, 1), BuildingBlock: UVAHIK_clean_linker_0, # of connection points: 2
#     Edge 58, Type (0, 1), BuildingBlock: UVAHIK_clean_linker_0, # of connection points: 2
#     Edge 59, Type (0, 1), BuildingBlock: UVAHIK_clean_linker_0, # of connection points: 2
#     Edge 60, Type (0, 1), BuildingBlock: UVAHIK_clean_linker_0, # of connection points: 2
#     Edge 61, Type (0, 1), BuildingBlock: UVAHIK_clean_linker_0, # of connection points: 2
#     Edge 62, Type (0, 1), BuildingBlock: UVAHIK_clean_linker_0, # of connection points: 2
#     Edge 63, Type (0, 1), BuildingBlock: UVAHIK_clean_linker_0, # of connection points: 2
#     Edge 64, Type (0, 1), BuildingBlock: UVAHIK_clean_linker_0, # of connection points: 2
#     Edge 65, Type (0, 1), BuildingBlock: UVAHIK_clean_linker_0, # of connection points: 2
#     Edge 66, Type (0, 1), BuildingBlock: UVAHIK_clean_linker_0, # of connection points: 2
#     Edge 67, Type (0, 1), BuildingBlock: UVAHIK_clean_linker_0, # of connection points: 2
#     Edge 68, Type (0, 1), BuildingBlock: UVAHIK_clean_linker_0, # of connection points: 2
#     Edge 69, Type (0, 1), BuildingBlock: UVAHIK_clean_linker_0, # of connection points: 2
#     Edge 70, Type (0, 1), BuildingBlock: UVAHIK_clean_linker_0, # of connection points: 2
#     Edge 71, Type (0, 1), BuildingBlock: UVAHIK_clean_linker_0, # of connection points: 2
#     Edge 72, Type (0, 1), BuildingBlock: UVAHIK_clean_linker_0, # of connection points: 2
#     Edge 73, Type (0, 1), BuildingBlock: UVAHIK_clean_linker_0, # of connection points: 2
#     Edge 74, Type (0, 1), BuildingBlock: UVAHIK_clean_linker_0, # of connection points: 2
#     Edge 75, Type (0, 1), BuildingBlock: UVAHIK_clean_linker_0, # of connection points: 2
#     Edge 76, Type (0, 1), BuildingBlock: UVAHIK_clean_linker_0, # of connection points: 2
#     Edge 77, Type (0, 1), BuildingBlock: UVAHIK_clean_linker_0, # of connection points: 2
#     Edge 78, Type (0, 1), BuildingBlock: UVAHIK_clean_linker_0, # of connection points: 2
#     Edge 79, Type (0, 1), BuildingBlock: UVAHIK_clean_linker_0, # of connection points: 2
#     Edge 80, Type (0, 1), BuildingBlock: UVAHIK_clean_linker_0, # of connection points: 2
#     Edge 81, Type (0, 1), BuildingBlock: UVAHIK_clean_linker_0, # of connection points: 2
#     Edge 82, Type (0, 1), BuildingBlock: UVAHIK_clean_linker_0, # of connection points: 2
#     Edge 83, Type (0, 1), BuildingBlock: UVAHIK_clean_linker_0, # of connection points: 2
#     Edge 84, Type (0, 1), BuildingBlock: UVAHIK_clean_linker_0, # of connection points: 2
#     Edge 85, Type (0, 1), BuildingBlock: UVAHIK_clean_linker_0, # of connection points: 2
#     Edge 86, Type (0, 1), BuildingBlock: UVAHIK_clean_linker_0, # of connection points: 2
#     Edge 87, Type (0, 1), BuildingBlock: UVAHIK_clean_linker_0, # of connection points: 2
#     Edge 88, Type (0, 1), BuildingBlock: UVAHIK_clean_linker_0, # of connection points: 2
#     Edge 89, Type (0, 1), BuildingBlock: UVAHIK_clean_linker_0, # of connection points: 2
#     Edge 90, Type (0, 1), BuildingBlock: UVAHIK_clean_linker_0, # of connection points: 2
#     Edge 91, Type (0, 1), BuildingBlock: UVAHIK_clean_linker_0, # of connection points: 2
#     Edge 92, Type (0, 1), BuildingBlock: UVAHIK_clean_linker_0, # of connection points: 2
#     Edge 93, Type (0, 1), BuildingBlock: UVAHIK_clean_linker_0, # of connection points: 2
#     Edge 94, Type (0, 1), BuildingBlock: UVAHIK_clean_linker_0, # of connection points: 2
#     Edge 95, Type (0, 1), BuildingBlock: UVAHIK_clean_linker_0, # of connection points: 2
#     Edge 96, Type (0, 1), BuildingBlock: UVAHIK_clean_linker_0, # of connection points: 2
#     Edge 97, Type (0, 1), BuildingBlock: UVAHIK_clean_linker_0, # of connection points: 2
#     Edge 98, Type (0, 1), BuildingBlock: UVAHIK_clean_linker_0, # of connection points: 2
#     Edge 99, Type (0, 1), BuildingBlock: UVAHIK_clean_linker_0, # of connection points: 2
#     Edge 100, Type (0, 1), BuildingBlock: UVAHIK_clean_linker_0, # of connection points: 2
#     Edge 101, Type (0, 1), BuildingBlock: UVAHIK_clean_linker_0, # of connection points: 2
#     Edge 102, Type (0, 1), BuildingBlock: UVAHIK_clean_linker_0, # of connection points: 2
#     Edge 103, Type (0, 1), BuildingBlock: UVAHIK_clean_linker_0, # of connection points: 2
#     Edge 104, Type (0, 1), BuildingBlock: UVAHIK_clean_linker_0, # of connection points: 2
#     Edge 105, Type (0, 1), BuildingBlock: UVAHIK_clean_linker_0, # of connection points: 2
#     Edge 106, Type (0, 1), BuildingBlock: UVAHIK_clean_linker_0, # of connection points: 2
#     Edge 107, Type (0, 1), BuildingBlock: UVAHIK_clean_linker_0, # of connection points: 2
#     Edge 108, Type (0, 1), BuildingBlock: UVAHIK_clean_linker_0, # of connection points: 2
#     Edge 109, Type (0, 1), BuildingBlock: UVAHIK_clean_linker_0, # of connection points: 2
#     Edge 110, Type (0, 1), BuildingBlock: UVAHIK_clean_linker_0, # of connection points: 2
#     Edge 111, Type (0, 1), BuildingBlock: UVAHIK_clean_linker_0, # of connection points: 2
#     Edge 112, Type (0, 1), BuildingBlock: UVAHIK_clean_linker_0, # of connection points: 2
#     Edge 113, Type (0, 1), BuildingBlock: UVAHIK_clean_linker_0, # of connection points: 2
#     Edge 114, Type (0, 1), BuildingBlock: UVAHIK_clean_linker_0, # of connection points: 2
#     Edge 115, Type (0, 1), BuildingBlock: UVAHIK_clean_linker_0, # of connection points: 2
#     Edge 116, Type (0, 1), BuildingBlock: UVAHIK_clean_linker_0, # of connection points: 2
#     Edge 117, Type (0, 1), BuildingBlock: UVAHIK_clean_linker_0, # of connection points: 2
#     Edge 118, Type (0, 1), BuildingBlock: UVAHIK_clean_linker_0, # of connection points: 2
#     Edge 119, Type (0, 1), BuildingBlock: UVAHIK_clean_linker_0, # of connection points: 2
#     Edge 120, Type (0, 1), BuildingBlock: UVAHIK_clean_linker_0, # of connection points: 2
#     Edge 121, Type (0, 1), BuildingBlock: UVAHIK_clean_linker_0, # of connection points: 2
#     Edge 122, Type (0, 1), BuildingBlock: UVAHIK_clean_linker_0, # of connection points: 2
#     Edge 123, Type (0, 1), BuildingBlock: UVAHIK_clean_linker_0, # of connection points: 2
#     Edge 124, Type (0, 1), BuildingBlock: UVAHIK_clean_linker_0, # of connection points: 2
#     Edge 125, Type (0, 1), BuildingBlock: UVAHIK_clean_linker_0, # of connection points: 2
#     Edge 126, Type (0, 1), BuildingBlock: UVAHIK_clean_linker_0, # of connection points: 2
#     Edge 127, Type (0, 1), BuildingBlock: UVAHIK_clean_linker_0, # of connection points: 2
#     Edge 128, Type (0, 1), BuildingBlock: UVAHIK_clean_linker_0, # of connection points: 2
#     Edge 129, Type (0, 1), BuildingBlock: UVAHIK_clean_linker_0, # of connection points: 2
#     Edge 130, Type (0, 1), BuildingBlock: UVAHIK_clean_linker_0, # of connection points: 2
#     Edge 131, Type (0, 1), BuildingBlock: UVAHIK_clean_linker_0, # of connection points: 2
#     Edge 132, Type (0, 1), BuildingBlock: UVAHIK_clean_linker_0, # of connection points: 2
#     Edge 133, Type (0, 1), BuildingBlock: UVAHIK_clean_linker_0, # of connection points: 2
#     Edge 134, Type (0, 1), BuildingBlock: UVAHIK_clean_linker_0, # of connection points: 2
#     Edge 135, Type (0, 1), BuildingBlock: UVAHIK_clean_linker_0, # of connection points: 2
#     Edge 136, Type (0, 1), BuildingBlock: UVAHIK_clean_linker_0, # of connection points: 2
#     Edge 137, Type (0, 1), BuildingBlock: UVAHIK_clean_linker_0, # of connection points: 2
#     Edge 138, Type (0, 1), BuildingBlock: UVAHIK_clean_linker_0, # of connection points: 2
#     Edge 139, Type (0, 1), BuildingBlock: UVAHIK_clean_linker_0, # of connection points: 2
#     Edge 140, Type (0, 1), BuildingBlock: UVAHIK_clean_linker_0, # of connection points: 2
#     Edge 141, Type (0, 1), BuildingBlock: UVAHIK_clean_linker_0, # of connection points: 2
#     Edge 142, Type (0, 1), BuildingBlock: UVAHIK_clean_linker_0, # of connection points: 2
#     Edge 143, Type (0, 1), BuildingBlock: UVAHIK_clean_linker_0, # of connection points: 2
#     Edge 144, Type (0, 1), BuildingBlock: UVAHIK_clean_linker_0, # of connection points: 2
#     Edge 145, Type (0, 1), BuildingBlock: UVAHIK_clean_linker_0, # of connection points: 2
#     Edge 146, Type (0, 1), BuildingBlock: UVAHIK_clean_linker_0, # of connection points: 2
#     Edge 147, Type (0, 1), BuildingBlock: UVAHIK_clean_linker_0, # of connection points: 2
#     Edge 148, Type (0, 1), BuildingBlock: UVAHIK_clean_linker_0, # of connection points: 2
#     Edge 149, Type (0, 1), BuildingBlock: UVAHIK_clean_linker_0, # of connection points: 2
#     Edge 150, Type (0, 1), BuildingBlock: UVAHIK_clean_linker_0, # of connection points: 2
#     Edge 151, Type (0, 1), BuildingBlock: UVAHIK_clean_linker_0, # of connection points: 2
# Relax obj value: 0.000
# Max RMSD: 0.012
# Mean RMSD: 0.007
data_MOF--net-tbo--node1-WUSLED_clean_sbu_0--node2-MIFKUJ_clean_linker_1--edge1-UVAHIK_clean_linker_0
_symmetry_space_group_name_H-M    P1
_symmetry_Int_Tables_number       1
_symmetry_cell_setting            triclinic
loop_
_symmetry_equiv_pos_as_xyz
'x, y, z'
_cell_length_a     129.78938
_cell_length_b     130.29485
_cell_length_c     130.08054
_cell_angle_alpha  89.673341
_cell_angle_beta   90.284845
_cell_angle_gamma 90.675463
loop_
_atom_site_label
_atom_site_type_symbol
_atom_site_fract_x
_atom_site_fract_y
_atom_site_fract_z
_atom_type_partial_charge
C0 C 0.18054 0.15401 0.19625 0.0
C1 C 0.19094 0.15255 0.19382 0.0
C2 C 0.19098 0.13645 0.20351 0.0
C3 C 0.19612 0.14386 0.19743 0.0
C4 C 0.1805 0.13791 0.20576 0.0
C5 C 0.17535 0.1466 0.20219 0.0
U6 U 0.1766 0.17679 0.17788 0.0
O7 O 0.1622 0.18303 0.17153 0.0
O8 O 0.17218 0.19266 0.18124 0.0
C9 C 0.16331 0.19179 0.17639 0.0
C10 C 0.17496 0.1632 0.19279 0.0
C11 C 0.15424 0.19523 0.18212 0.0
C12 C 0.14292 0.19423 0.19694 0.0
C13 C 0.15149 0.19071 0.19155 0.0
C14 C 0.13976 0.20676 0.1835 0.0
C15 C 0.13697 0.20235 0.193 0.0
C16 C 0.14831 0.20324 0.17813 0.0
C17 C 0.19505 0.18106 0.15528 0.0
C18 C 0.19252 0.1941 0.14208 0.0
C19 C 0.2079 0.18376 0.142 0.0
C20 C 0.20447 0.17856 0.1508 0.0
C21 C 0.20195 0.19156 0.13749 0.0
C22 C 0.1891 0.1889 0.15091 0.0
C23 C 0.19154 0.17535 0.16443 0.0
O24 O 0.17992 0.172 0.19378 0.0
O25 O 0.17003 0.16234 0.18398 0.0
O26 O 0.18264 0.17051 0.16349 0.0
O27 O 0.19258 0.18016 0.17323 0.0
H28 H 0.19508 0.15818 0.1892 0.0
H29 H 0.2042 0.14305 0.19561 0.0
H30 H 0.17622 0.13228 0.21024 0.0
H31 H 0.1673 0.14755 0.20408 0.0
H32 H 0.14106 0.19072 0.20428 0.0
H33 H 0.156 0.18451 0.19475 0.0
H34 H 0.13526 0.21289 0.18014 0.0
H35 H 0.1503 0.20679 0.17084 0.0
H36 H 0.18769 0.19999 0.13877 0.0
H37 H 0.21528 0.18171 0.13879 0.0
H38 H 0.20919 0.17257 0.1541 0.0
H39 H 0.18178 0.19092 0.15428 0.0
C40 C 0.81884 0.18247 0.15828 0.0
C41 C 0.82207 0.19261 0.15631 0.0
C42 C 0.81177 0.19291 0.14059 0.0
C43 C 0.81854 0.19779 0.14755 0.0
C44 C 0.80866 0.18271 0.14259 0.0
C45 C 0.81216 0.17756 0.15136 0.0
U46 U 0.83761 0.17903 0.18068 0.0
O47 O 0.83466 0.17432 0.19668 0.0
O48 O 0.84456 0.16499 0.1869 0.0
C49 C 0.83969 0.16569 0.1957 0.0
C50 C 0.82243 0.17689 0.16744 0.0
C51 C 0.83404 0.15641 0.19901 0.0
C52 C 0.82205 0.14239 0.1955 0.0
C53 C 0.82737 0.15121 0.19224 0.0
C54 C 0.82989 0.14399 0.21238 0.0
C55 C 0.82325 0.13868 0.20562 0.0
C56 C 0.83525 0.15277 0.20909 0.0
C57 C 0.86003 0.19785 0.1846 0.0
C58 C 0.87632 0.19434 0.19315 0.0
C59 C 0.87037 0.21184 0.19162 0.0
C60 C 0.86153 0.20835 0.18646 0.0
C61 C 0.8779 0.20487 0.19494 0.0
C62 C 0.86744 0.19085 0.18808 0.0
C63 C 0.85075 0.19437 0.17895 0.0
O64 O 0.83132 0.17229 0.16646 0.0
O65 O 0.82151 0.18174 0.17622 0.0
O66 O 0.84201 0.19508 0.18393 0.0
O67 O 0.8516 0.18574 0.17384 0.0
H68 H 0.82727 0.19651 0.16157 0.0
H69 H 0.82101 0.20567 0.14631 0.0
H70 H 0.80361 0.17864 0.13731 0.0
H71 H 0.80966 0.1697 0.15273 0.0
H72 H 0.8169 0.13854 0.19016 0.0
H73 H 0.82627 0.15398 0.18444 0.0
H74 H 0.83106 0.14127 0.22018 0.0
H75 H 0.84035 0.15671 0.21441 0.0
H76 H 0.88194 0.18879 0.19573 0.0
H77 H 0.87141 0.22 0.19283 0.0
H78 H 0.8559 0.21387 0.18385 0.0
H79 H 0.86641 0.18268 0.18685 0.0
C80 C 0.82216 0.83611 0.15479 0.0
C81 C 0.82488 0.82584 0.15327 0.0
C82 C 0.81516 0.82549 0.13715 0.0
C83 C 0.82139 0.82056 0.14453 0.0
C84 C 0.81263 0.83585 0.13867 0.0
C85 C 0.81609 0.84108 0.14741 0.0
U86 U 0.84012 0.84041 0.17794 0.0
O87 O 0.84621 0.85483 0.1844 0.0
O88 O 0.83631 0.84479 0.1938 0.0
C89 C 0.84109 0.8537 0.19304 0.0
C90 C 0.82542 0.84175 0.16406 0.0
C91 C 0.83518 0.86265 0.1964 0.0
C92 C 0.82366 0.87685 0.19285 0.0
C93 C 0.82908 0.86828 0.18948 0.0
C94 C 0.83023 0.87415 0.21011 0.0
C95 C 0.82418 0.8799 0.20322 0.0
C96 C 0.83568 0.86563 0.20672 0.0
C97 C 0.8629 0.82249 0.18263 0.0
C98 C 0.87582 0.82535 0.19595 0.0
C99 C 0.87634 0.80998 0.18557 0.0
C100 C 0.86758 0.81319 0.18021 0.0
C101 C 0.88062 0.81604 0.19347 0.0
C102 C 0.86703 0.82854 0.19057 0.0
C103 C 0.8538 0.82577 0.17673 0.0
O104 O 0.82433 0.83681 0.17284 0.0
O105 O 0.83422 0.8468 0.16337 0.0
O106 O 0.85473 0.83463 0.17192 0.0
O107 O 0.8449 0.82459 0.18138 0.0
H108 H 0.8296 0.82187 0.15888 0.0
H109 H 0.82342 0.81258 0.14367 0.0
H110 H 0.80803 0.83996 0.13308 0.0
H111 H 0.81397 0.84903 0.14843 0.0
H112 H 0.81898 0.88104 0.18738 0.0
H113 H 0.82853 0.86605 0.18148 0.0
H114 H 0.83091 0.87635 0.2181 0.0
H115 H 0.84035 0.86139 0.21217 0.0
H116 H 0.87895 0.83025 0.20191 0.0
H117 H 0.87971 0.8027 0.18357 0.0
H118 H 0.86446 0.8084 0.17413 0.0
H119 H 0.8635 0.83576 0.19255 0.0
C120 C 0.15619 0.82014 0.18403 0.0
C121 C 0.15097 0.8269 0.1905 0.0
C122 C 0.13883 0.81328 0.19525 0.0
C123 C 0.14234 0.82351 0.19603 0.0
C124 C 0.14418 0.80652 0.18884 0.0
C125 C 0.15276 0.80993 0.18328 0.0
U126 U 0.17837 0.83898 0.1788 0.0
O127 O 0.19425 0.83611 0.17384 0.0
O128 O 0.18401 0.84536 0.16414 0.0
C129 C 0.19296 0.84081 0.16497 0.0
C130 C 0.16515 0.82359 0.17798 0.0
C131 C 0.19631 0.83519 0.15581 0.0
C132 C 0.19693 0.81968 0.14553 0.0
C133 C 0.1936 0.82484 0.15431 0.0
C134 C 0.20559 0.83519 0.13965 0.0
C135 C 0.20296 0.82481 0.13809 0.0
C136 C 0.2023 0.84032 0.14843 0.0
C137 C 0.18253 0.86208 0.19648 0.0
C138 C 0.19804 0.87273 0.1968 0.0
C139 C 0.18267 0.87834 0.20551 0.0
C140 C 0.17749 0.86941 0.2024 0.0
C141 C 0.19302 0.8801 0.20278 0.0
C142 C 0.19282 0.86381 0.19363 0.0
C143 C 0.17692 0.85268 0.19343 0.0
O144 O 0.16398 0.8322 0.17281 0.0
O145 O 0.17411 0.82301 0.18268 0.0
O146 O 0.18198 0.84405 0.19451 0.0
O147 O 0.17177 0.85326 0.18473 0.0
H148 H 0.15356 0.8348 0.19123 0.0
H149 H 0.13847 0.82887 0.20099 0.0
H150 H 0.14162 0.79863 0.18798 0.0
H151 H 0.1567 0.80461 0.17832 0.0
H152 H 0.19469 0.81171 0.14451 0.0
H153 H 0.18891 0.82077 0.1599 0.0
H154 H 0.21032 0.83933 0.13414 0.0
H155 H 0.20446 0.8483 0.14946 0.0
H156 H 0.20597 0.8739 0.19447 0.0
H157 H 0.17861 0.8838 0.21022 0.0
H158 H 0.16954 0.8682 0.20467 0.0
H159 H 0.19683 0.85826 0.18899 0.0
C160 C 0.15673 0.81963 0.83722 0.0
C161 C 0.15503 0.82262 0.82697 0.0
C162 C 0.13891 0.81286 0.82666 0.0
C163 C 0.14621 0.81922 0.82172 0.0
C164 C 0.14066 0.80992 0.83694 0.0
C165 C 0.14951 0.81327 0.84216 0.0
U166 U 0.17921 0.83836 0.8406 0.0
O167 O 0.18532 0.84564 0.85463 0.0
O168 O 0.19522 0.83575 0.84543 0.0
C169 C 0.19418 0.84091 0.854 0.0
C170 C 0.16587 0.82324 0.84291 0.0
C171 C 0.19753 0.83559 0.86341 0.0
C172 C 0.19777 0.82046 0.87441 0.0
C173 C 0.19442 0.82544 0.86547 0.0
C174 C 0.20722 0.8358 0.87942 0.0
C175 C 0.20421 0.82559 0.88149 0.0
C176 C 0.20391 0.84074 0.87045 0.0
C177 C 0.18315 0.86009 0.82121 0.0
C178 C 0.19487 0.87447 0.82415 0.0
C179 C 0.18722 0.87193 0.80731 0.0
C180 C 0.182 0.86321 0.81096 0.0
C181 C 0.19367 0.87771 0.81387 0.0
C182 C 0.18967 0.86571 0.82778 0.0
C183 C 0.17747 0.85099 0.82493 0.0
O184 O 0.17473 0.82222 0.83818 0.0
O185 O 0.16491 0.83219 0.84739 0.0
O186 O 0.17249 0.85215 0.83361 0.0
O187 O 0.18247 0.84229 0.82445 0.0
H188 H 0.1605 0.82761 0.82307 0.0
H189 H 0.14501 0.82171 0.81385 0.0
H190 H 0.13525 0.80493 0.84092 0.0
H191 H 0.1507 0.81091 0.85008 0.0
H192 H 0.19523 0.81263 0.87585 0.0
H193 H 0.18941 0.82136 0.86014 0.0
H194 H 0.21226 0.83992 0.88466 0.0
H195 H 0.20638 0.84859 0.86898 0.0
H196 H 0.19968 0.87879 0.82944 0.0
H197 H 0.18626 0.87408 0.79931 0.0
H198 H 0.17705 0.85891 0.80577 0.0
H199 H 0.19067 0.86338 0.83572 0.0
C200 C 0.15451 0.17977 0.82234 0.0
C201 C 0.14915 0.18605 0.82917 0.0
C202 C 0.1369 0.19052 0.8156 0.0
C203 C 0.14041 0.19136 0.82583 0.0
C204 C 0.14244 0.18433 0.80878 0.0
C205 C 0.15114 0.17901 0.81213 0.0
U206 U 0.17701 0.17483 0.84083 0.0
O207 O 0.18275 0.16022 0.8471 0.0
O208 O 0.19283 0.16997 0.83759 0.0
C209 C 0.1916 0.16109 0.8423 0.0
C210 C 0.16354 0.17387 0.82572 0.0
C211 C 0.19481 0.15197 0.83655 0.0
C212 C 0.19539 0.14195 0.82084 0.0
C213 C 0.19215 0.15065 0.82616 0.0
C214 C 0.20383 0.13574 0.83628 0.0
C215 C 0.20127 0.13438 0.82585 0.0
C216 C 0.20063 0.14445 0.84156 0.0
C217 C 0.18144 0.19285 0.86377 0.0
C218 C 0.19711 0.19397 0.87406 0.0
C219 C 0.18162 0.20237 0.87978 0.0
C220 C 0.17637 0.1988 0.87107 0.0
C221 C 0.19209 0.2001 0.88135 0.0
C222 C 0.19183 0.19037 0.86536 0.0
C223 C 0.17578 0.18952 0.85451 0.0
O224 O 0.17249 0.17863 0.82492 0.0
O225 O 0.16249 0.16877 0.83441 0.0
O226 O 0.1707 0.18077 0.8553 0.0
O227 O 0.18071 0.19056 0.84575 0.0
H228 H 0.15166 0.18677 0.83709 0.0
H229 H 0.1363 0.19597 0.83133 0.0
H230 H 0.1401 0.18364 0.80081 0.0
H231 H 0.15523 0.17425 0.80673 0.0
H232 H 0.1932 0.14108 0.81285 0.0
H233 H 0.18759 0.15634 0.82216 0.0
H234 H 0.20844 0.13014 0.84034 0.0
H235 H 0.20276 0.14534 0.84958 0.0
H236 H 0.20518 0.19214 0.87497 0.0
H237 H 0.17744 0.20688 0.8853 0.0
H238 H 0.16834 0.20073 0.87001 0.0
H239 H 0.19587 0.18575 0.85982 0.0
C240 C 0.82002 0.15575 0.83738 0.0
C241 C 0.82676 0.15039 0.83101 0.0
C242 C 0.81313 0.13798 0.82693 0.0
C243 C 0.82335 0.14156 0.82584 0.0
C244 C 0.8064 0.14351 0.83323 0.0
C245 C 0.80983 0.15229 0.83841 0.0
U246 U 0.83845 0.17856 0.84149 0.0
O247 O 0.83502 0.19444 0.84594 0.0
O248 O 0.84485 0.18493 0.85582 0.0
C249 C 0.83989 0.19362 0.85478 0.0
C250 C 0.82345 0.16494 0.84303 0.0
C251 C 0.83412 0.197 0.86384 0.0
C252 C 0.82235 0.1936 0.87798 0.0
C253 C 0.82768 0.19021 0.86932 0.0
C254 C 0.82972 0.21062 0.87565 0.0
C255 C 0.82331 0.20385 0.88125 0.0
C256 C 0.83508 0.20722 0.86704 0.0
C257 C 0.86103 0.18316 0.82314 0.0
C258 C 0.87536 0.19486 0.82654 0.0
C259 C 0.8728 0.18799 0.80944 0.0
C260 C 0.86414 0.18251 0.81287 0.0
C261 C 0.87854 0.19421 0.81623 0.0
C262 C 0.86665 0.18942 0.82996 0.0
C263 C 0.85191 0.17726 0.82657 0.0
O264 O 0.83226 0.16417 0.848 0.0
O265 O 0.82249 0.1737 0.83809 0.0
O266 O 0.84305 0.18195 0.82555 0.0
O267 O 0.85286 0.17237 0.83539 0.0
H268 H 0.83467 0.15297 0.83009 0.0
H269 H 0.82878 0.13746 0.82114 0.0
H270 H 0.79843 0.14111 0.83411 0.0
H271 H 0.8045 0.15639 0.84324 0.0
H272 H 0.8174 0.18823 0.88205 0.0
H273 H 0.82679 0.1823 0.86691 0.0
H274 H 0.83073 0.21852 0.87803 0.0
H275 H 0.84001 0.21256 0.8629 0.0
H276 H 0.87955 0.19967 0.83193 0.0
H277 H 0.8751 0.18722 0.80149 0.0
H278 H 0.85989 0.17772 0.80751 0.0
H279 H 0.86432 0.19008 0.83791 0.0
C280 C 0.83642 0.86325 0.82193 0.0
C281 C 0.82604 0.86447 0.82461 0.0
C282 C 0.82564 0.88092 0.81557 0.0
C283 C 0.82068 0.87321 0.82141 0.0
C284 C 0.83607 0.87967 0.81299 0.0
C285 C 0.84138 0.87092 0.81613 0.0
U286 U 0.8411 0.84027 0.83984 0.0
O287 O 0.84597 0.82459 0.83623 0.0
O288 O 0.85572 0.83438 0.84604 0.0
C289 C 0.85485 0.82567 0.84104 0.0
C290 C 0.84223 0.85411 0.82511 0.0
C291 C 0.86406 0.82253 0.83534 0.0
C292 C 0.8742 0.82186 0.81968 0.0
C293 C 0.8654 0.82506 0.82492 0.0
C294 C 0.88046 0.81373 0.83526 0.0
C295 C 0.88184 0.81616 0.8248 0.0
C296 C 0.87165 0.81687 0.84046 0.0
C297 C 0.82318 0.83539 0.86279 0.0
C298 C 0.82253 0.81967 0.87297 0.0
C299 C 0.81424 0.83499 0.87915 0.0
C300 C 0.81742 0.84032 0.87034 0.0
C301 C 0.81673 0.8246 0.88057 0.0
C302 C 0.82577 0.82504 0.86417 0.0
C303 C 0.82638 0.84122 0.85358 0.0
O304 O 0.84729 0.85492 0.83384 0.0
O305 O 0.83743 0.84523 0.82406 0.0
O306 O 0.82531 0.83648 0.84474 0.0
O307 O 0.83515 0.8463 0.85441 0.0
H308 H 0.82208 0.85866 0.82915 0.0
H309 H 0.8127 0.87399 0.82363 0.0
H310 H 0.84008 0.88539 0.8084 0.0
H311 H 0.84939 0.87011 0.81399 0.0
H312 H 0.87509 0.82395 0.81166 0.0
H313 H 0.85966 0.82949 0.82084 0.0
H314 H 0.88611 0.80924 0.8394 0.0
H315 H 0.87075 0.81484 0.8485 0.0
H316 H 0.82467 0.81171 0.87388 0.0
H317 H 0.80967 0.83898 0.88478 0.0
H318 H 0.81535 0.84831 0.86941 0.0
H319 H 0.83028 0.82112 0.85845 0.0
C320 C 0.18083 0.65341 0.69648 0.0
C321 C 0.19124 0.65212 0.69401 0.0
C322 C 0.19159 0.63609 0.70382 0.0
C323 C 0.19658 0.64354 0.69766 0.0
C324 C 0.1811 0.63739 0.70612 0.0
C325 C 0.17579 0.64597 0.7025 0.0
U326 U 0.17667 0.67618 0.67814 0.0
O327 O 0.16221 0.68199 0.67146 0.0
O328 O 0.17167 0.69187 0.68144 0.0
C329 C 0.16292 0.69073 0.67641 0.0
C330 C 0.17507 0.66246 0.69294 0.0
C331 C 0.15359 0.69389 0.68191 0.0
C332 C 0.14319 0.69461 0.6974 0.0
C333 C 0.152 0.69127 0.69227 0.0
C334 C 0.13738 0.70303 0.6818 0.0
C335 C 0.13578 0.70055 0.69222 0.0
C336 C 0.14621 0.69974 0.67671 0.0
C337 C 0.19556 0.68108 0.65596 0.0
C338 C 0.19237 0.69219 0.64121 0.0
C339 C 0.2095 0.68566 0.64435 0.0
C340 C 0.20593 0.6805 0.65311 0.0
C341 C 0.20275 0.69149 0.63822 0.0
C342 C 0.18881 0.68704 0.65002 0.0
C343 C 0.19196 0.67527 0.66503 0.0
O344 O 0.17976 0.67139 0.69408 0.0
O345 O 0.17038 0.66151 0.68402 0.0
O346 O 0.18326 0.67014 0.6639 0.0
O347 O 0.19265 0.68009 0.67387 0.0
H348 H 0.19526 0.65777 0.68934 0.0
H349 H 0.20467 0.64285 0.69581 0.0
H350 H 0.17694 0.63173 0.71066 0.0
H351 H 0.16773 0.6468 0.70442 0.0
H352 H 0.14213 0.69247 0.70538 0.0
H353 H 0.15759 0.68669 0.69641 0.0
H354 H 0.13191 0.7077 0.67762 0.0
H355 H 0.14731 0.70185 0.66872 0.0
H356 H 0.18693 0.69653 0.63664 0.0
H357 H 0.21758 0.6851 0.64241 0.0
H358 H 0.21127 0.67599 0.65764 0.0
H359 H 0.18077 0.68761 0.65212 0.0
C360 C 0.81965 0.68217 0.6578 0.0
C361 C 0.82291 0.69229 0.65577 0.0
C362 C 0.81262 0.69254 0.64005 0.0
C363 C 0.8194 0.69744 0.64699 0.0
C364 C 0.8095 0.68235 0.64208 0.0
C365 C 0.81298 0.67723 0.65089 0.0
U366 U 0.83828 0.67894 0.68031 0.0
O367 O 0.83518 0.67479 0.69644 0.0
O368 O 0.84495 0.66498 0.68701 0.0
C369 C 0.84004 0.66603 0.69575 0.0
C370 C 0.82311 0.6767 0.66707 0.0
C371 C 0.83421 0.65695 0.69927 0.0
C372 C 0.82209 0.64297 0.69603 0.0
C373 C 0.82751 0.65167 0.69259 0.0
C374 C 0.82987 0.64487 0.7129 0.0
C375 C 0.82322 0.63947 0.70622 0.0
C376 C 0.83533 0.65353 0.70944 0.0
C377 C 0.86093 0.69751 0.68361 0.0
C378 C 0.87164 0.69784 0.69898 0.0
C379 C 0.87704 0.70716 0.68372 0.0
C380 C 0.86813 0.70386 0.6786 0.0
C381 C 0.87891 0.70419 0.69397 0.0
C382 C 0.86275 0.69449 0.69383 0.0
C383 C 0.85169 0.69399 0.67803 0.0
O384 O 0.83193 0.67193 0.66624 0.0
O385 O 0.82224 0.68174 0.67574 0.0
O386 O 0.84291 0.695 0.6829 0.0
O387 O 0.85254 0.68509 0.67343 0.0
H388 H 0.8281 0.69622 0.66103 0.0
H389 H 0.82188 0.70531 0.64572 0.0
H390 H 0.80444 0.67827 0.63683 0.0
H391 H 0.81045 0.66939 0.6523 0.0
H392 H 0.81694 0.63905 0.69074 0.0
H393 H 0.82649 0.65426 0.68473 0.0
H394 H 0.83098 0.64231 0.72076 0.0
H395 H 0.84046 0.65753 0.7147 0.0
H396 H 0.87292 0.69533 0.70684 0.0
H397 H 0.88243 0.71214 0.67969 0.0
H398 H 0.86685 0.70625 0.67071 0.0
H399 H 0.85731 0.68951 0.69779 0.0
C400 C 0.82193 0.33403 0.6556 0.0
C401 C 0.82888 0.33205 0.64761 0.0
C402 C 0.81543 0.32298 0.63801 0.0
C403 C 0.82565 0.32661 0.63889 0.0
C404 C 0.80855 0.32484 0.64609 0.0
C405 C 0.81176 0.33034 0.65476 0.0
U406 U 0.83958 0.33994 0.67873 0.0
O407 O 0.84517 0.35475 0.6847 0.0
O408 O 0.83549 0.34476 0.69438 0.0
C409 C 0.84007 0.35376 0.69336 0.0
C410 C 0.82496 0.34015 0.66469 0.0
C411 C 0.834 0.36267 0.69653 0.0
C412 C 0.82263 0.37692 0.69268 0.0
C413 C 0.82813 0.36834 0.68945 0.0
C414 C 0.82867 0.37415 0.71012 0.0
C415 C 0.82285 0.37994 0.70307 0.0
C416 C 0.83419 0.36562 0.70687 0.0
C417 C 0.86282 0.32272 0.68449 0.0
C418 C 0.8796 0.32655 0.69212 0.0
C419 C 0.87235 0.30939 0.69348 0.0
C420 C 0.86365 0.31255 0.68798 0.0
C421 C 0.88047 0.31633 0.69554 0.0
C422 C 0.87085 0.32973 0.68668 0.0
C423 C 0.8537 0.32568 0.67834 0.0
O424 O 0.82391 0.33555 0.67366 0.0
O425 O 0.83351 0.34563 0.66398 0.0
O426 O 0.85439 0.3343 0.67306 0.0
O427 O 0.84473 0.32439 0.68284 0.0
H428 H 0.8368 0.33474 0.64805 0.0
H429 H 0.83116 0.3252 0.63285 0.0
H430 H 0.8006 0.32225 0.64561 0.0
H431 H 0.80625 0.33181 0.66079 0.0
H432 H 0.81814 0.38115 0.68708 0.0
H433 H 0.82782 0.36614 0.68143 0.0
H434 H 0.82912 0.37632 0.71813 0.0
H435 H 0.83869 0.36135 0.71245 0.0
H436 H 0.88568 0.3321 0.69368 0.0
H437 H 0.87283 0.30144 0.6959 0.0
H438 H 0.85759 0.30699 0.68634 0.0
H439 H 0.87042 0.33764 0.68414 0.0
C440 C 0.15564 0.32104 0.68289 0.0
C441 C 0.15429 0.32381 0.69321 0.0
C442 C 0.13793 0.31444 0.69369 0.0
C443 C 0.14553 0.3205 0.69858 0.0
C444 C 0.13931 0.31176 0.68333 0.0
C445 C 0.14809 0.31502 0.67799 0.0
U446 U 0.17845 0.33935 0.6787 0.0
O447 O 0.19439 0.33623 0.67415 0.0
O448 O 0.18466 0.34591 0.66434 0.0
C449 C 0.19347 0.34113 0.66533 0.0
C450 C 0.16482 0.32439 0.67711 0.0
C451 C 0.19695 0.33558 0.65618 0.0
C452 C 0.19773 0.32013 0.64582 0.0
C453 C 0.19413 0.32529 0.65448 0.0
C454 C 0.20685 0.33554 0.64039 0.0
C455 C 0.20419 0.32518 0.63868 0.0
C456 C 0.20327 0.34067 0.64906 0.0
C457 C 0.18267 0.36182 0.69719 0.0
C458 C 0.19831 0.37225 0.69794 0.0
C459 C 0.18309 0.37754 0.70713 0.0
C460 C 0.17777 0.36887 0.70355 0.0
C461 C 0.19346 0.37932 0.70444 0.0
C462 C 0.19295 0.36359 0.69433 0.0
C463 C 0.17693 0.35268 0.69367 0.0
O464 O 0.16397 0.33318 0.6722 0.0
O465 O 0.17369 0.32341 0.68192 0.0
O466 O 0.18172 0.34389 0.69465 0.0
O467 O 0.17209 0.35366 0.68483 0.0
H468 H 0.16 0.32854 0.6971 0.0
H469 H 0.14463 0.32279 0.70651 0.0
H470 H 0.13366 0.30701 0.67938 0.0
H471 H 0.149 0.31282 0.67003 0.0
H472 H 0.1956 0.31214 0.64481 0.0
H473 H 0.18921 0.32124 0.65989 0.0
H474 H 0.21163 0.33974 0.63497 0.0
H475 H 0.20547 0.34863 0.65021 0.0
H476 H 0.2063 0.37332 0.69579 0.0
H477 H 0.17904 0.38289 0.71195 0.0
H478 H 0.16981 0.36766 0.70577 0.0
H479 H 0.19686 0.35824 0.68938 0.0
C480 C 0.15614 0.32047 0.33727 0.0
C481 C 0.15435 0.32356 0.32707 0.0
C482 C 0.13813 0.31397 0.32686 0.0
C483 C 0.14543 0.3203 0.32189 0.0
C484 C 0.13993 0.311 0.33713 0.0
C485 C 0.14887 0.31421 0.34227 0.0
U486 U 0.17918 0.33856 0.34061 0.0
O487 O 0.18614 0.34508 0.35457 0.0
O488 O 0.19529 0.33514 0.34466 0.0
C489 C 0.19475 0.34 0.35346 0.0
C490 C 0.16554 0.3237 0.34278 0.0
C491 C 0.19827 0.33418 0.36253 0.0
C492 C 0.1947 0.32404 0.37788 0.0
C493 C 0.19121 0.32935 0.36918 0.0
C494 C 0.21234 0.32809 0.37322 0.0
C495 C 0.20531 0.32337 0.38 0.0
C496 C 0.20884 0.33347 0.36458 0.0
C497 C 0.18289 0.36118 0.32216 0.0
C498 C 0.19892 0.37072 0.31977 0.0
C499 C 0.18272 0.37823 0.31453 0.0
C500 C 0.17747 0.3694 0.31784 0.0
C501 C 0.1935 0.37898 0.31543 0.0
C502 C 0.19365 0.36191 0.32317 0.0
C503 C 0.17715 0.35202 0.32569 0.0
O504 O 0.17419 0.32267 0.33769 0.0
O505 O 0.16495 0.33247 0.34766 0.0
O506 O 0.1726 0.35291 0.33463 0.0
O507 O 0.18177 0.34317 0.32454 0.0
H508 H 0.15985 0.32847 0.32311 0.0
H509 H 0.14421 0.32281 0.31403 0.0
H510 H 0.1345 0.30604 0.34113 0.0
H511 H 0.15013 0.31177 0.35015 0.0
H512 H 0.1891 0.32038 0.38289 0.0
H513 H 0.183 0.3297 0.36768 0.0
H514 H 0.22055 0.32778 0.37471 0.0
H515 H 0.2144 0.33714 0.35953 0.0
H516 H 0.20722 0.37112 0.32066 0.0
H517 H 0.17834 0.38442 0.31112 0.0
H518 H 0.16916 0.36898 0.31703 0.0
H519 H 0.19798 0.3557 0.32659 0.0
C520 C 0.15309 0.67933 0.32307 0.0
C521 C 0.15171 0.6896 0.32592 0.0
C522 C 0.13526 0.68994 0.31678 0.0
C523 C 0.14289 0.69487 0.32276 0.0
C524 C 0.13664 0.67961 0.31408 0.0
C525 C 0.14548 0.67437 0.31718 0.0
U526 U 0.17654 0.6751 0.34053 0.0
O527 O 0.18324 0.66078 0.34636 0.0
O528 O 0.19243 0.67102 0.33645 0.0
C529 C 0.19181 0.66206 0.34113 0.0
C530 C 0.16244 0.6737 0.32603 0.0
C531 C 0.1953 0.65317 0.33516 0.0
C532 C 0.19185 0.63754 0.32552 0.0
C533 C 0.18829 0.64617 0.33074 0.0
C534 C 0.20946 0.64296 0.32883 0.0
C535 C 0.20249 0.63577 0.32457 0.0
C536 C 0.20589 0.65153 0.33409 0.0
C537 C 0.18116 0.69301 0.3635 0.0
C538 C 0.19708 0.69424 0.37338 0.0
C539 C 0.18166 0.70241 0.37957 0.0
C540 C 0.17622 0.69885 0.37098 0.0
C541 C 0.19219 0.70023 0.38086 0.0
C542 C 0.19161 0.69064 0.36479 0.0
C543 C 0.17526 0.68957 0.35443 0.0
O544 O 0.17121 0.67873 0.32488 0.0
O545 O 0.16192 0.66853 0.33472 0.0
O546 O 0.1706 0.68061 0.35532 0.0
O547 O 0.17978 0.69092 0.34548 0.0
H548 H 0.15748 0.69355 0.33053 0.0
H549 H 0.14201 0.70279 0.32507 0.0
H550 H 0.13099 0.67562 0.30938 0.0
H551 H 0.14642 0.66645 0.31491 0.0
H552 H 0.18626 0.63213 0.32243 0.0
H553 H 0.18007 0.64729 0.33143 0.0
H554 H 0.2177 0.64198 0.32809 0.0
H555 H 0.21143 0.65688 0.33739 0.0
H556 H 0.20519 0.69248 0.37407 0.0
H557 H 0.17758 0.70683 0.38525 0.0
H558 H 0.16814 0.70069 0.37015 0.0
H559 H 0.19555 0.6861 0.35911 0.0
C560 C 0.82015 0.65542 0.33781 0.0
C561 C 0.82626 0.65129 0.33002 0.0
C562 C 0.81363 0.63753 0.32735 0.0
C563 C 0.82304 0.64242 0.32484 0.0
C564 C 0.80753 0.64178 0.33513 0.0
C565 C 0.81077 0.65063 0.34031 0.0
U566 U 0.83835 0.67837 0.34168 0.0
O567 O 0.8348 0.69431 0.3458 0.0
O568 O 0.84462 0.68503 0.35591 0.0
C569 C 0.83959 0.69366 0.3547 0.0
C570 C 0.8234 0.66471 0.34337 0.0
C571 C 0.83371 0.69708 0.36367 0.0
C572 C 0.82187 0.69363 0.37774 0.0
C573 C 0.82721 0.69028 0.36908 0.0
C574 C 0.8293 0.71064 0.37555 0.0
C575 C 0.82287 0.70385 0.38109 0.0
C576 C 0.83467 0.70727 0.36693 0.0
C577 C 0.86118 0.68245 0.32349 0.0
C578 C 0.87155 0.6981 0.32269 0.0
C579 C 0.87701 0.68294 0.31361 0.0
C580 C 0.86833 0.67759 0.31719 0.0
C581 C 0.8787 0.69329 0.31625 0.0
C582 C 0.86287 0.69272 0.3263 0.0
C583 C 0.85202 0.67669 0.32698 0.0
O584 O 0.83217 0.66407 0.34842 0.0
O585 O 0.82246 0.67337 0.33823 0.0
O586 O 0.84316 0.68133 0.32575 0.0
O587 O 0.8529 0.67208 0.33595 0.0
H588 H 0.83354 0.65491 0.32799 0.0
H589 H 0.82798 0.63931 0.31897 0.0
H590 H 0.80018 0.63833 0.33715 0.0
H591 H 0.80593 0.65375 0.34626 0.0
H592 H 0.81689 0.68824 0.38177 0.0
H593 H 0.82632 0.68238 0.36663 0.0
H594 H 0.83033 0.71852 0.37798 0.0
H595 H 0.83965 0.71262 0.36285 0.0
H596 H 0.87255 0.70608 0.32481 0.0
H597 H 0.88244 0.67893 0.30883 0.0
H598 H 0.86719 0.66965 0.315 0.0
H599 H 0.85744 0.69659 0.3312 0.0
C600 C 0.83687 0.36298 0.32196 0.0
C601 C 0.82648 0.3643 0.32456 0.0
C602 C 0.82634 0.3808 0.31559 0.0
C603 C 0.82125 0.37312 0.32137 0.0
C604 C 0.83677 0.37943 0.31308 0.0
C605 C 0.84196 0.37061 0.31623 0.0
U606 U 0.84117 0.3399 0.33982 0.0
O607 O 0.84565 0.32412 0.33619 0.0
O608 O 0.85569 0.33368 0.34593 0.0
C609 C 0.85459 0.32499 0.34094 0.0
C610 C 0.84253 0.35374 0.32511 0.0
C611 C 0.86365 0.32165 0.33512 0.0
C612 C 0.87374 0.32113 0.31942 0.0
C613 C 0.86516 0.32461 0.32484 0.0
C614 C 0.87946 0.31188 0.33457 0.0
C615 C 0.88097 0.31466 0.32421 0.0
C616 C 0.87088 0.31533 0.33995 0.0
C617 C 0.82302 0.33537 0.3627 0.0
C618 C 0.82184 0.31964 0.37281 0.0
C619 C 0.81349 0.33503 0.37872 0.0
C620 C 0.81707 0.34035 0.37007 0.0
C621 C 0.81574 0.32458 0.38018 0.0
C622 C 0.82546 0.32499 0.36415 0.0
C623 C 0.82646 0.34115 0.35355 0.0
O624 O 0.84763 0.35445 0.33384 0.0
O625 O 0.83759 0.34494 0.32406 0.0
O626 O 0.82529 0.33647 0.34468 0.0
O627 O 0.83537 0.34597 0.35444 0.0
H628 H 0.82242 0.35852 0.32906 0.0
H629 H 0.81325 0.37398 0.32352 0.0
H630 H 0.84088 0.38513 0.30854 0.0
H631 H 0.84997 0.36972 0.31414 0.0
H632 H 0.8746 0.32336 0.31144 0.0
H633 H 0.85967 0.32953 0.32098 0.0
H634 H 0.88495 0.30709 0.33858 0.0
H635 H 0.86988 0.31303 0.34791 0.0
H636 H 0.82367 0.31158 0.37363 0.0
H637 H 0.809 0.33915 0.38431 0.0
H638 H 0.81517 0.34838 0.36911 0.0
H639 H 0.83008 0.32102 0.35855 0.0
C640 C 0.68056 0.15341 0.69555 0.0
C641 C 0.69099 0.15212 0.69308 0.0
C642 C 0.69113 0.13574 0.70226 0.0
C643 C 0.69624 0.14338 0.69644 0.0
C644 C 0.68066 0.13706 0.70461 0.0
C645 C 0.67545 0.14581 0.7013 0.0
U646 U 0.67649 0.17648 0.6776 0.0
O647 O 0.66206 0.18262 0.67119 0.0
O648 O 0.67181 0.19222 0.68117 0.0
C649 C 0.66298 0.19128 0.67625 0.0
C650 C 0.67489 0.1626 0.69225 0.0
C651 C 0.65377 0.19447 0.68193 0.0
C652 C 0.64352 0.19494 0.69753 0.0
C653 C 0.65225 0.19164 0.69225 0.0
C654 C 0.63765 0.20376 0.68218 0.0
C655 C 0.63611 0.20104 0.69255 0.0
C656 C 0.6464 0.20051 0.67694 0.0
C657 C 0.69512 0.18127 0.65522 0.0
C658 C 0.6943 0.19618 0.64392 0.0
C659 C 0.70666 0.18281 0.64064 0.0
C660 C 0.70308 0.17736 0.64922 0.0
C661 C 0.70235 0.19231 0.63789 0.0
C662 C 0.69072 0.1907 0.65251 0.0
C663 C 0.69156 0.1754 0.66424 0.0
O664 O 0.67973 0.17144 0.69344 0.0
O665 O 0.67003 0.16186 0.6834 0.0
O666 O 0.68271 0.17051 0.66313 0.0
O667 O 0.69246 0.18008 0.67313 0.0
H668 H 0.69506 0.15788 0.68857 0.0
H669 H 0.70427 0.14255 0.6944 0.0
H670 H 0.67653 0.1314 0.70918 0.0
H671 H 0.6674 0.14668 0.70328 0.0
H672 H 0.64251 0.19262 0.70547 0.0
H673 H 0.65783 0.18691 0.69623 0.0
H674 H 0.63217 0.20855 0.67815 0.0
H675 H 0.64744 0.20278 0.66898 0.0
H676 H 0.69087 0.2035 0.64209 0.0
H677 H 0.71274 0.1795 0.63609 0.0
H678 H 0.70653 0.17007 0.65117 0.0
H679 H 0.68455 0.19383 0.65707 0.0
C680 C 0.31993 0.18229 0.65788 0.0
C681 C 0.3231 0.19248 0.65606 0.0
C682 C 0.31356 0.19264 0.63989 0.0
C683 C 0.3199 0.19763 0.64715 0.0
C684 C 0.31047 0.18241 0.64174 0.0
C685 C 0.31362 0.1773 0.65066 0.0
U686 U 0.33799 0.17907 0.68083 0.0
O687 O 0.3346 0.17455 0.6968 0.0
O688 O 0.3448 0.16513 0.68742 0.0
C689 C 0.33969 0.16592 0.69608 0.0
C690 C 0.3232 0.17675 0.66718 0.0
C691 C 0.334 0.15667 0.69936 0.0
C692 C 0.32209 0.1426 0.69577 0.0
C693 C 0.32744 0.15141 0.69253 0.0
C694 C 0.32968 0.14431 0.71274 0.0
C695 C 0.32315 0.13895 0.70591 0.0
C696 C 0.33507 0.15309 0.70947 0.0
C697 C 0.36017 0.19806 0.68508 0.0
C698 C 0.37557 0.19466 0.69521 0.0
C699 C 0.37095 0.21218 0.6911 0.0
C700 C 0.36226 0.20861 0.68575 0.0
C701 C 0.37774 0.20524 0.69582 0.0
C702 C 0.36682 0.1911 0.68995 0.0
C703 C 0.3511 0.19446 0.67924 0.0
O704 O 0.33213 0.17215 0.66652 0.0
O705 O 0.32201 0.18166 0.67589 0.0
O706 O 0.34222 0.19518 0.68398 0.0
O707 O 0.35216 0.18574 0.67433 0.0
H708 H 0.32805 0.19643 0.66152 0.0
H709 H 0.3225 0.20546 0.64589 0.0
H710 H 0.30549 0.1784 0.63635 0.0
H711 H 0.31111 0.16943 0.65195 0.0
H712 H 0.31703 0.13871 0.69037 0.0
H713 H 0.32645 0.15413 0.6847 0.0
H714 H 0.33075 0.14163 0.72057 0.0
H715 H 0.34009 0.15706 0.71485 0.0
H716 H 0.38059 0.18915 0.69888 0.0
H717 H 0.37247 0.22037 0.69136 0.0
H718 H 0.35721 0.21409 0.68206 0.0
H719 H 0.3653 0.18291 0.68963 0.0
C720 C 0.32295 0.83504 0.65462 0.0
C721 C 0.32144 0.82434 0.65498 0.0
C722 C 0.31656 0.82422 0.63685 0.0
C723 C 0.31824 0.819 0.64619 0.0
C724 C 0.31824 0.8349 0.63648 0.0
C725 C 0.32136 0.84025 0.64528 0.0
U726 U 0.34007 0.84009 0.6783 0.0
O727 O 0.34591 0.85468 0.6846 0.0
O728 O 0.33579 0.84478 0.69393 0.0
C729 C 0.3406 0.85368 0.69314 0.0
C730 C 0.32587 0.84097 0.66387 0.0
C731 C 0.33466 0.86268 0.69633 0.0
C732 C 0.32345 0.87706 0.6925 0.0
C733 C 0.3289 0.86845 0.68924 0.0
C734 C 0.32934 0.8741 0.70996 0.0
C735 C 0.3236 0.87998 0.70291 0.0
C736 C 0.33481 0.86555 0.70669 0.0
C737 C 0.36266 0.82221 0.68419 0.0
C738 C 0.37668 0.82601 0.6961 0.0
C739 C 0.37441 0.80878 0.68949 0.0
C740 C 0.36585 0.81199 0.6838 0.0
C741 C 0.37996 0.81575 0.69568 0.0
C742 C 0.36808 0.8292 0.69044 0.0
C743 C 0.35376 0.82542 0.67792 0.0
O744 O 0.32442 0.83642 0.67281 0.0
O745 O 0.33464 0.8461 0.66336 0.0
O746 O 0.35486 0.83415 0.67291 0.0
O747 O 0.3447 0.82434 0.68226 0.0
H748 H 0.32267 0.82009 0.66205 0.0
H749 H 0.31712 0.81076 0.64669 0.0
H750 H 0.31692 0.83917 0.62944 0.0
H751 H 0.32243 0.8485 0.64482 0.0
H752 H 0.31903 0.88136 0.6869 0.0
H753 H 0.32863 0.86631 0.68121 0.0
H754 H 0.32974 0.8762 0.71799 0.0
H755 H 0.33922 0.8612 0.71226 0.0
H756 H 0.38072 0.83154 0.70088 0.0
H757 H 0.37679 0.80087 0.68889 0.0
H758 H 0.36177 0.80649 0.67901 0.0
H759 H 0.36568 0.83712 0.69089 0.0
C760 C 0.6563 0.82024 0.68408 0.0
C761 C 0.65109 0.82701 0.69054 0.0
C762 C 0.63897 0.81338 0.69534 0.0
C763 C 0.64247 0.82362 0.69609 0.0
C764 C 0.64431 0.80662 0.68893 0.0
C765 C 0.65289 0.81003 0.68335 0.0
U766 U 0.67851 0.83904 0.67882 0.0
O767 O 0.69438 0.83614 0.67385 0.0
O768 O 0.68414 0.8454 0.66414 0.0
C769 C 0.69308 0.84081 0.66496 0.0
C770 C 0.66525 0.82369 0.67801 0.0
C771 C 0.69636 0.83513 0.65582 0.0
C772 C 0.6968 0.81955 0.64562 0.0
C773 C 0.69353 0.8248 0.65437 0.0
C774 C 0.70561 0.83495 0.63964 0.0
C775 C 0.70287 0.82458 0.63814 0.0
C776 C 0.70239 0.84015 0.6484 0.0
C777 C 0.68282 0.8621 0.69649 0.0
C778 C 0.69841 0.87264 0.69672 0.0
C779 C 0.68313 0.87836 0.70554 0.0
C780 C 0.67787 0.86946 0.70245 0.0
C781 C 0.69348 0.88004 0.70275 0.0
C782 C 0.69311 0.86376 0.69359 0.0
C783 C 0.67714 0.85274 0.69346 0.0
O784 O 0.66409 0.83231 0.67286 0.0
O785 O 0.67422 0.82308 0.68269 0.0
O786 O 0.68215 0.84408 0.69453 0.0
O787 O 0.67198 0.85335 0.68477 0.0
H788 H 0.65366 0.83492 0.69126 0.0
H789 H 0.6386 0.82899 0.70105 0.0
H790 H 0.64176 0.79873 0.68808 0.0
H791 H 0.65682 0.8047 0.6784 0.0
H792 H 0.69446 0.81161 0.64464 0.0
H793 H 0.68881 0.82081 0.65999 0.0
H794 H 0.71037 0.839 0.6341 0.0
H795 H 0.70464 0.84812 0.64939 0.0
H796 H 0.70633 0.87376 0.69435 0.0
H797 H 0.67914 0.88384 0.71026 0.0
H798 H 0.66993 0.86831 0.70477 0.0
H799 H 0.69705 0.85819 0.68892 0.0
C800 C 0.65669 0.81977 0.33738 0.0
C801 C 0.65489 0.82283 0.32717 0.0
C802 C 0.63876 0.81307 0.32696 0.0
C803 C 0.64601 0.81947 0.32198 0.0
C804 C 0.64061 0.81008 0.33721 0.0
C805 C 0.64951 0.8134 0.34236 0.0
U806 U 0.67939 0.83827 0.34057 0.0
O807 O 0.68586 0.84533 0.35455 0.0
O808 O 0.69545 0.83543 0.34505 0.0
C809 C 0.69466 0.84054 0.35369 0.0
C810 C 0.66594 0.82327 0.34296 0.0
C811 C 0.69814 0.83506 0.36294 0.0
C812 C 0.69724 0.82038 0.37451 0.0
C813 C 0.69374 0.82558 0.36575 0.0
C814 C 0.70949 0.83417 0.37779 0.0
C815 C 0.70519 0.82461 0.38062 0.0
C816 C 0.706 0.83934 0.36902 0.0
C817 C 0.68341 0.86012 0.32141 0.0
C818 C 0.69553 0.87414 0.32446 0.0
C819 C 0.6878 0.87195 0.3076 0.0
C820 C 0.68232 0.86337 0.31119 0.0
C821 C 0.69444 0.87746 0.31421 0.0
C822 C 0.69009 0.8655 0.32802 0.0
C823 C 0.67758 0.85108 0.32506 0.0
O824 O 0.67471 0.82221 0.3381 0.0
O825 O 0.66513 0.8322 0.34752 0.0
O826 O 0.67274 0.85222 0.33383 0.0
O827 O 0.6824 0.8423 0.32439 0.0
H828 H 0.66032 0.82783 0.32323 0.0
H829 H 0.64475 0.822 0.31414 0.0
H830 H 0.63523 0.80507 0.34121 0.0
H831 H 0.65078 0.81098 0.35024 0.0
H832 H 0.69383 0.81299 0.37641 0.0
H833 H 0.68764 0.82217 0.36112 0.0
H834 H 0.7155 0.83773 0.3824 0.0
H835 H 0.70944 0.84668 0.36698 0.0
H836 H 0.70068 0.87814 0.32969 0.0
H837 H 0.68672 0.87438 0.2997 0.0
H838 H 0.6772 0.85928 0.30599 0.0
H839 H 0.69109 0.86304 0.33593 0.0
C840 C 0.65338 0.17936 0.32297 0.0
C841 C 0.65231 0.18977 0.32546 0.0
C842 C 0.63568 0.19018 0.31663 0.0
C843 C 0.64356 0.19514 0.32228 0.0
C844 C 0.63679 0.17973 0.31425 0.0
C845 C 0.64556 0.17439 0.31738 0.0
U846 U 0.67683 0.17496 0.34044 0.0
O847 O 0.68276 0.16051 0.34691 0.0
O848 O 0.69241 0.16986 0.33658 0.0
C849 C 0.69138 0.16116 0.34166 0.0
C850 C 0.66254 0.17354 0.32613 0.0
C851 C 0.69432 0.15182 0.33611 0.0
C852 C 0.69497 0.14158 0.32055 0.0
C853 C 0.69179 0.1504 0.3257 0.0
C854 C 0.70305 0.13542 0.3362 0.0
C855 C 0.70066 0.13399 0.32573 0.0
C856 C 0.69992 0.14425 0.34131 0.0
C857 C 0.68273 0.19362 0.36247 0.0
C858 C 0.69448 0.19022 0.37668 0.0
C859 C 0.6881 0.20741 0.37386 0.0
C860 C 0.68244 0.20395 0.36536 0.0
C861 C 0.69415 0.20059 0.37966 0.0
C862 C 0.68884 0.18677 0.36813 0.0
C863 C 0.6765 0.19016 0.35361 0.0
O864 O 0.67149 0.17814 0.32468 0.0
O865 O 0.66188 0.16882 0.33506 0.0
O866 O 0.67131 0.18153 0.3549 0.0
O867 O 0.68101 0.19085 0.34461 0.0
H868 H 0.65824 0.19373 0.32984 0.0
H869 H 0.64289 0.20315 0.32433 0.0
H870 H 0.63095 0.1757 0.30981 0.0
H871 H 0.64625 0.16636 0.31539 0.0
H872 H 0.6929 0.14065 0.31252 0.0
H873 H 0.68741 0.15613 0.32155 0.0
H874 H 0.70752 0.1298 0.34039 0.0
H875 H 0.70196 0.14522 0.34934 0.0
H876 H 0.69915 0.18479 0.38091 0.0
H877 H 0.68757 0.21541 0.37601 0.0
H878 H 0.67775 0.20934 0.36109 0.0
H879 H 0.68922 0.17877 0.36597 0.0
C880 C 0.31979 0.15552 0.33782 0.0
C881 C 0.32653 0.15014 0.33145 0.0
C882 C 0.31287 0.13779 0.3273 0.0
C883 C 0.32311 0.14134 0.32625 0.0
C884 C 0.30614 0.14332 0.33361 0.0
C885 C 0.30958 0.15207 0.33882 0.0
U886 U 0.33839 0.17815 0.34186 0.0
O887 O 0.3351 0.19414 0.34609 0.0
O888 O 0.34478 0.18463 0.35612 0.0
C889 C 0.33995 0.19337 0.35495 0.0
C890 C 0.32323 0.16472 0.34344 0.0
C891 C 0.33426 0.19699 0.36397 0.0
C892 C 0.32288 0.19388 0.37849 0.0
C893 C 0.32793 0.19033 0.36973 0.0
C894 C 0.33027 0.21082 0.37568 0.0
C895 C 0.32404 0.20417 0.38162 0.0
C896 C 0.33533 0.20725 0.36697 0.0
C897 C 0.36122 0.18212 0.32369 0.0
C898 C 0.37159 0.19776 0.32286 0.0
C899 C 0.37713 0.18253 0.31395 0.0
C900 C 0.36842 0.17721 0.31749 0.0
C901 C 0.3788 0.19291 0.31652 0.0
C902 C 0.36289 0.19241 0.32643 0.0
C903 C 0.352 0.1764 0.32712 0.0
O904 O 0.33197 0.16392 0.34851 0.0
O905 O 0.3224 0.17344 0.33839 0.0
O906 O 0.34319 0.18115 0.32594 0.0
O907 O 0.35284 0.1717 0.33605 0.0
H908 H 0.33445 0.15272 0.33055 0.0
H909 H 0.32853 0.13724 0.32155 0.0
H910 H 0.29817 0.14094 0.33446 0.0
H911 H 0.30425 0.15617 0.34365 0.0
H912 H 0.31823 0.18852 0.38291 0.0
H913 H 0.32698 0.18237 0.36752 0.0
H914 H 0.33119 0.21882 0.37773 0.0
H915 H 0.34014 0.21252 0.36258 0.0
H916 H 0.37257 0.20576 0.32492 0.0
H917 H 0.3826 0.17848 0.30926 0.0
H918 H 0.36729 0.16925 0.31536 0.0
H919 H 0.35741 0.19632 0.33125 0.0
C920 C 0.33527 0.86263 0.3218 0.0
C921 C 0.33303 0.8706 0.32867 0.0
C922 C 0.32446 0.88016 0.31499 0.0
C923 C 0.32772 0.87929 0.32528 0.0
C924 C 0.32655 0.8721 0.30818 0.0
C925 C 0.33194 0.86346 0.31155 0.0
U926 U 0.34037 0.83967 0.33971 0.0
O927 O 0.34545 0.82407 0.3361 0.0
O928 O 0.35501 0.83392 0.34602 0.0
C929 C 0.35425 0.8252 0.34103 0.0
C930 C 0.34129 0.85358 0.32504 0.0
C931 C 0.36354 0.82202 0.33548 0.0
C932 C 0.37385 0.82111 0.31994 0.0
C933 C 0.36509 0.82457 0.32509 0.0
C934 C 0.37967 0.81274 0.33556 0.0
C935 C 0.38121 0.81507 0.32509 0.0
C936 C 0.37092 0.81617 0.34068 0.0
C937 C 0.32193 0.83437 0.36222 0.0
C938 C 0.32536 0.82323 0.37689 0.0
C939 C 0.30807 0.82936 0.37376 0.0
C940 C 0.31154 0.83468 0.36506 0.0
C941 C 0.31495 0.82364 0.37986 0.0
C942 C 0.32882 0.82854 0.36813 0.0
C943 C 0.32536 0.8403 0.35316 0.0
O944 O 0.34643 0.85435 0.33374 0.0
O945 O 0.3367 0.8446 0.32387 0.0
O946 O 0.32452 0.83557 0.34429 0.0
O947 O 0.33406 0.84548 0.35418 0.0
H948 H 0.33544 0.87017 0.33664 0.0
H949 H 0.32612 0.8853 0.33073 0.0
H950 H 0.32423 0.87258 0.30019 0.0
H951 H 0.3336 0.85745 0.3061 0.0
H952 H 0.37473 0.82299 0.31187 0.0
H953 H 0.35949 0.82911 0.32095 0.0
H954 H 0.38525 0.8083 0.33983 0.0
H955 H 0.36989 0.81419 0.34871 0.0
H956 H 0.33088 0.81897 0.38143 0.0
H957 H 0.29998 0.8297 0.37568 0.0
H958 H 0.30609 0.83908 0.36055 0.0
H959 H 0.33687 0.82817 0.36604 0.0
C960 C 0.68216 0.65445 0.1966 0.0
C961 C 0.68671 0.64776 0.18955 0.0
C962 C 0.69325 0.63722 0.20364 0.0
C963 C 0.69216 0.6392 0.19305 0.0
C964 C 0.68881 0.64404 0.21065 0.0
C965 C 0.6833 0.65255 0.20716 0.0
U966 U 0.67668 0.67659 0.17786 0.0
O967 O 0.66189 0.68207 0.17168 0.0
O968 O 0.67166 0.69233 0.18096 0.0
C969 C 0.66273 0.69098 0.17632 0.0
C970 C 0.67608 0.66334 0.19315 0.0
C971 C 0.65357 0.69427 0.18202 0.0
C972 C 0.64345 0.69511 0.19768 0.0
C973 C 0.6522 0.69177 0.19244 0.0
C974 C 0.63733 0.70333 0.18209 0.0
C975 C 0.6359 0.70093 0.19256 0.0
C976 C 0.64607 0.70004 0.17689 0.0
C977 C 0.69434 0.68097 0.15462 0.0
C978 C 0.69492 0.69648 0.14412 0.0
C979 C 0.70346 0.68114 0.13835 0.0
C980 C 0.70023 0.67595 0.14722 0.0
C981 C 0.7009 0.69148 0.13671 0.0
C982 C 0.69163 0.69126 0.15299 0.0
C983 C 0.69126 0.67537 0.164 0.0
O984 O 0.68074 0.67233 0.19379 0.0
O985 O 0.67081 0.66216 0.18457 0.0
O986 O 0.68254 0.67017 0.16341 0.0
O987 O 0.69236 0.68039 0.17268 0.0
H988 H 0.68601 0.64913 0.18136 0.0
H989 H 0.69559 0.63416 0.18746 0.0
H990 H 0.68941 0.64268 0.21886 0.0
H991 H 0.67984 0.65761 0.21272 0.0
H992 H 0.64254 0.69305 0.2057 0.0
H993 H 0.65788 0.68726 0.19652 0.0
H994 H 0.63175 0.70791 0.17795 0.0
H995 H 0.64701 0.70204 0.16885 0.0
H996 H 0.69271 0.7044 0.14303 0.0
H997 H 0.70815 0.67709 0.13287 0.0
H998 H 0.7024 0.66802 0.14836 0.0
H999 H 0.68703 0.69525 0.15858 0.0
C1000 C 0.31998 0.68207 0.15763 0.0
C1001 C 0.3232 0.69221 0.15562 0.0
C1002 C 0.31348 0.69219 0.13955 0.0
C1003 C 0.31994 0.69724 0.14667 0.0
C1004 C 0.31035 0.682 0.14159 0.0
C1005 C 0.31357 0.677 0.15056 0.0
U1006 U 0.33818 0.6793 0.18049 0.0
O1007 O 0.33488 0.67524 0.19661 0.0
O1008 O 0.345 0.66554 0.18744 0.0
C1009 C 0.33991 0.66657 0.19608 0.0
C1010 C 0.32328 0.67669 0.16702 0.0
C1011 C 0.33418 0.6574 0.19954 0.0
C1012 C 0.32225 0.64329 0.19615 0.0
C1013 C 0.32755 0.65209 0.19281 0.0
C1014 C 0.32998 0.64514 0.21305 0.0
C1015 C 0.32343 0.6397 0.20631 0.0
C1016 C 0.33532 0.6539 0.20968 0.0
C1017 C 0.36045 0.69844 0.18374 0.0
C1018 C 0.37125 0.69916 0.19905 0.0
C1019 C 0.37606 0.70887 0.18383 0.0
C1020 C 0.3673 0.70516 0.17874 0.0
C1021 C 0.37814 0.70595 0.19407 0.0
C1022 C 0.36249 0.69541 0.19392 0.0
C1023 C 0.35133 0.69458 0.17819 0.0
O1024 O 0.33218 0.67203 0.16641 0.0
O1025 O 0.32216 0.6818 0.17563 0.0
O1026 O 0.3425 0.69546 0.18299 0.0
O1027 O 0.35243 0.68563 0.17375 0.0
H1028 H 0.32823 0.69621 0.16097 0.0
H1029 H 0.32257 0.70504 0.14526 0.0
H1030 H 0.30529 0.67794 0.13632 0.0
H1031 H 0.31102 0.66918 0.152 0.0
H1032 H 0.31717 0.63935 0.19082 0.0
H1033 H 0.32651 0.65475 0.18497 0.0
H1034 H 0.33113 0.64251 0.22088 0.0
H1035 H 0.3404 0.65792 0.21498 0.0
H1036 H 0.37255 0.69683 0.20695 0.0
H1037 H 0.38129 0.71393 0.1797 0.0
H1038 H 0.36588 0.7075 0.17086 0.0
H1039 H 0.35729 0.69019 0.19789 0.0
C1040 C 0.32187 0.33563 0.15517 0.0
C1041 C 0.32874 0.32931 0.14991 0.0
C1042 C 0.31538 0.32504 0.13732 0.0
C1043 C 0.32553 0.32407 0.14106 0.0
C1044 C 0.30851 0.33129 0.14274 0.0
C1045 C 0.31174 0.33653 0.15155 0.0
U1046 U 0.33988 0.34026 0.17819 0.0
O1047 O 0.34597 0.35474 0.18451 0.0
O1048 O 0.3361 0.34477 0.19401 0.0
C1049 C 0.34088 0.35368 0.19317 0.0
C1050 C 0.3251 0.34139 0.16437 0.0
C1051 C 0.335 0.36266 0.1965 0.0
C1052 C 0.32367 0.377 0.19291 0.0
C1053 C 0.32903 0.36838 0.18955 0.0
C1054 C 0.33003 0.37416 0.21021 0.0
C1055 C 0.32411 0.38 0.20329 0.0
C1056 C 0.33542 0.36559 0.20684 0.0
C1057 C 0.36262 0.32219 0.18295 0.0
C1058 C 0.37718 0.32561 0.19434 0.0
C1059 C 0.37437 0.30852 0.18757 0.0
C1060 C 0.36564 0.31193 0.1823 0.0
C1061 C 0.38032 0.31533 0.1936 0.0
C1062 C 0.3684 0.32901 0.18908 0.0
C1063 C 0.35352 0.32558 0.17709 0.0
O1064 O 0.32405 0.3365 0.17317 0.0
O1065 O 0.33386 0.34651 0.16364 0.0
O1066 O 0.35447 0.3344 0.17219 0.0
O1067 O 0.34462 0.32445 0.18176 0.0
H1068 H 0.3366 0.32849 0.15261 0.0
H1069 H 0.33106 0.31942 0.13704 0.0
H1070 H 0.30059 0.33207 0.14022 0.0
H1071 H 0.30631 0.34132 0.15555 0.0
H1072 H 0.31909 0.38126 0.1874 0.0
H1073 H 0.32854 0.3662 0.18154 0.0
H1074 H 0.33065 0.37632 0.21822 0.0
H1075 H 0.33999 0.36128 0.21232 0.0
H1076 H 0.38161 0.33109 0.19883 0.0
H1077 H 0.37642 0.30051 0.18698 0.0
H1078 H 0.36123 0.30654 0.17767 0.0
H1079 H 0.36617 0.33697 0.18971 0.0
C1080 C 0.65616 0.31999 0.18424 0.0
C1081 C 0.65097 0.32672 0.19076 0.0
C1082 C 0.63884 0.31307 0.19548 0.0
C1083 C 0.64235 0.3233 0.1963 0.0
C1084 C 0.64417 0.30634 0.18903 0.0
C1085 C 0.65274 0.30978 0.18345 0.0
U1086 U 0.67866 0.33853 0.1792 0.0
O1087 O 0.69436 0.33549 0.17387 0.0
O1088 O 0.68417 0.34524 0.16462 0.0
C1089 C 0.69302 0.34047 0.16515 0.0
C1090 C 0.66508 0.32347 0.17814 0.0
C1091 C 0.69609 0.33502 0.1558 0.0
C1092 C 0.69652 0.31964 0.1453 0.0
C1093 C 0.69329 0.32471 0.15417 0.0
C1094 C 0.7052 0.33518 0.13953 0.0
C1095 C 0.70252 0.32482 0.13788 0.0
C1096 C 0.70202 0.34021 0.14841 0.0
C1097 C 0.6839 0.36082 0.19767 0.0
C1098 C 0.69363 0.37645 0.19386 0.0
C1099 C 0.69071 0.37135 0.21155 0.0
C1100 C 0.68523 0.36268 0.2082 0.0
C1101 C 0.69493 0.37836 0.20443 0.0
C1102 C 0.68821 0.36772 0.19051 0.0
C1103 C 0.67795 0.35169 0.19438 0.0
O1104 O 0.664 0.33228 0.1733 0.0
O1105 O 0.67412 0.32253 0.18262 0.0
O1106 O 0.68282 0.34293 0.19504 0.0
O1107 O 0.67254 0.35266 0.18586 0.0
H1108 H 0.65355 0.33462 0.19153 0.0
H1109 H 0.63849 0.32864 0.20129 0.0
H1110 H 0.64161 0.29846 0.18813 0.0
H1111 H 0.65666 0.30448 0.17846 0.0
H1112 H 0.69423 0.3117 0.14421 0.0
H1113 H 0.68865 0.32059 0.15977 0.0
H1114 H 0.70992 0.33936 0.13404 0.0
H1115 H 0.70426 0.34817 0.14954 0.0
H1116 H 0.69689 0.38165 0.18819 0.0
H1117 H 0.69148 0.37265 0.21974 0.0
H1118 H 0.68197 0.35745 0.21385 0.0
H1119 H 0.68737 0.3664 0.18233 0.0
C1120 C 0.65666 0.32042 0.83735 0.0
C1121 C 0.655 0.32342 0.8271 0.0
C1122 C 0.63888 0.31366 0.82671 0.0
C1123 C 0.6462 0.32003 0.8218 0.0
C1124 C 0.64058 0.31073 0.837 0.0
C1125 C 0.6494 0.31408 0.84226 0.0
U1126 U 0.67935 0.3389 0.84074 0.0
O1127 O 0.68551 0.34613 0.85478 0.0
O1128 O 0.69531 0.33609 0.84562 0.0
C1129 C 0.69432 0.34129 0.85418 0.0
C1130 C 0.66581 0.32397 0.84306 0.0
C1131 C 0.6976 0.33596 0.86361 0.0
C1132 C 0.69781 0.32079 0.87456 0.0
C1133 C 0.69449 0.32579 0.86562 0.0
C1134 C 0.70721 0.33614 0.87966 0.0
C1135 C 0.70422 0.32591 0.88168 0.0
C1136 C 0.70394 0.3411 0.87069 0.0
C1137 C 0.68381 0.36051 0.82141 0.0
C1138 C 0.69599 0.37447 0.8245 0.0
C1139 C 0.68831 0.37233 0.80762 0.0
C1140 C 0.68278 0.36377 0.81118 0.0
C1141 C 0.69494 0.3778 0.81425 0.0
C1142 C 0.69049 0.36586 0.82804 0.0
C1143 C 0.67789 0.35152 0.82503 0.0
O1144 O 0.67468 0.32281 0.83837 0.0
O1145 O 0.66494 0.33295 0.84748 0.0
O1146 O 0.67287 0.35277 0.83368 0.0
O1147 O 0.68272 0.34273 0.82459 0.0
H1148 H 0.6605 0.3284 0.82321 0.0
H1149 H 0.64506 0.32251 0.81392 0.0
H1150 H 0.63514 0.30574 0.84095 0.0
H1151 H 0.65056 0.31171 0.85018 0.0
H1152 H 0.69528 0.31296 0.87596 0.0
H1153 H 0.68952 0.32172 0.86026 0.0
H1154 H 0.71223 0.34025 0.88493 0.0
H1155 H 0.7064 0.34895 0.86925 0.0
H1156 H 0.70113 0.37845 0.82976 0.0
H1157 H 0.68726 0.37477 0.79971 0.0
H1158 H 0.67765 0.35971 0.80596 0.0
H1159 H 0.69144 0.36339 0.83596 0.0
C1160 C 0.65363 0.67941 0.82313 0.0
C1161 C 0.65239 0.68974 0.82584 0.0
C1162 C 0.63596 0.69018 0.81667 0.0
C1163 C 0.64365 0.69509 0.82259 0.0
C1164 C 0.63723 0.67981 0.81406 0.0
C1165 C 0.64598 0.67449 0.81725 0.0
U1166 U 0.6768 0.67503 0.84092 0.0
O1167 O 0.68273 0.66057 0.84738 0.0
O1168 O 0.6925 0.67007 0.8373 0.0
C1169 C 0.69142 0.66131 0.84227 0.0
C1170 C 0.66277 0.67361 0.82637 0.0
C1171 C 0.69444 0.65206 0.83661 0.0
C1172 C 0.69483 0.64189 0.821 0.0
C1173 C 0.69164 0.65063 0.82627 0.0
C1174 C 0.70347 0.63583 0.83639 0.0
C1175 C 0.7008 0.63439 0.826 0.0
C1176 C 0.70033 0.64459 0.84163 0.0
C1177 C 0.68212 0.69357 0.8632 0.0
C1178 C 0.6938 0.69022 0.87747 0.0
C1179 C 0.68671 0.70719 0.8751 0.0
C1180 C 0.68135 0.70378 0.8664 0.0
C1181 C 0.69294 0.70044 0.88082 0.0
C1182 C 0.68845 0.68682 0.86873 0.0
C1183 C 0.67612 0.69013 0.85419 0.0
O1184 O 0.67171 0.67829 0.8251 0.0
O1185 O 0.662 0.66881 0.83524 0.0
O1186 O 0.67097 0.68144 0.85533 0.0
O1187 O 0.68081 0.69091 0.84529 0.0
H1188 H 0.65818 0.69365 0.83044 0.0
H1189 H 0.64285 0.70304 0.82482 0.0
H1190 H 0.63153 0.67583 0.8094 0.0
H1191 H 0.64681 0.66652 0.81509 0.0
H1192 H 0.69255 0.64095 0.81303 0.0
H1193 H 0.68703 0.65629 0.82228 0.0
H1194 H 0.70815 0.63028 0.84043 0.0
H1195 H 0.70257 0.64557 0.8496 0.0
H1196 H 0.69844 0.68478 0.88173 0.0
H1197 H 0.68601 0.71515 0.87732 0.0
H1198 H 0.67655 0.70911 0.86219 0.0
H1199 H 0.68916 0.67891 0.86635 0.0
C1200 C 0.31988 0.65581 0.8373 0.0
C1201 C 0.32667 0.65056 0.83088 0.0
C1202 C 0.31301 0.63839 0.82628 0.0
C1203 C 0.32328 0.64189 0.82545 0.0
C1204 C 0.30623 0.64375 0.83267 0.0
C1205 C 0.30965 0.65237 0.83813 0.0
U1206 U 0.33856 0.67822 0.84181 0.0
O1207 O 0.33546 0.69414 0.84635 0.0
O1208 O 0.34503 0.68435 0.8562 0.0
C1209 C 0.3403 0.69317 0.8552 0.0
C1210 C 0.3233 0.66488 0.84314 0.0
C1211 C 0.33462 0.69658 0.86428 0.0
C1212 C 0.32142 0.69391 0.87726 0.0
C1213 C 0.32659 0.69061 0.86847 0.0
C1214 C 0.33219 0.70922 0.87768 0.0
C1215 C 0.32419 0.70324 0.88201 0.0
C1216 C 0.33735 0.70591 0.86891 0.0
C1217 C 0.36142 0.68214 0.82359 0.0
C1218 C 0.37204 0.69762 0.82274 0.0
C1219 C 0.37729 0.68231 0.81379 0.0
C1220 C 0.36852 0.67712 0.81735 0.0
C1221 C 0.37914 0.69265 0.81636 0.0
C1222 C 0.36326 0.6924 0.82634 0.0
C1223 C 0.35212 0.67656 0.82702 0.0
O1224 O 0.33202 0.66394 0.84823 0.0
O1225 O 0.32254 0.6737 0.83827 0.0
O1226 O 0.34338 0.68146 0.82594 0.0
O1227 O 0.35293 0.67171 0.83587 0.0
H1228 H 0.33459 0.65315 0.83008 0.0
H1229 H 0.32866 0.63801 0.82051 0.0
H1230 H 0.29832 0.64119 0.83357 0.0
H1231 H 0.30429 0.65633 0.84304 0.0
H1232 H 0.31537 0.68907 0.88043 0.0
H1233 H 0.32438 0.68337 0.86498 0.0
H1234 H 0.33442 0.71651 0.88101 0.0
H1235 H 0.3435 0.71063 0.86575 0.0
H1236 H 0.37316 0.7056 0.8248 0.0
H1237 H 0.38267 0.67817 0.80906 0.0
H1238 H 0.36725 0.66918 0.81521 0.0
H1239 H 0.35787 0.6964 0.83118 0.0
C1240 C 0.33678 0.36276 0.82188 0.0
C1241 C 0.32643 0.36414 0.82458 0.0
C1242 C 0.326 0.38017 0.81478 0.0
C1243 C 0.32108 0.37276 0.82105 0.0
C1244 C 0.33643 0.37878 0.81225 0.0
C1245 C 0.34174 0.37016 0.81575 0.0
U1246 U 0.34116 0.33985 0.84004 0.0
O1247 O 0.34612 0.32419 0.83655 0.0
O1248 O 0.35572 0.33401 0.84645 0.0
C1249 C 0.35494 0.32529 0.84146 0.0
C1250 C 0.34255 0.35368 0.82531 0.0
C1251 C 0.36418 0.32215 0.83582 0.0
C1252 C 0.37438 0.32154 0.82019 0.0
C1253 C 0.3657 0.32494 0.82549 0.0
C1254 C 0.38021 0.31273 0.83556 0.0
C1255 C 0.38172 0.31532 0.82515 0.0
C1256 C 0.37153 0.3161 0.84082 0.0
C1257 C 0.32266 0.33467 0.86244 0.0
C1258 C 0.32614 0.32314 0.87679 0.0
C1259 C 0.30904 0.33005 0.8744 0.0
C1260 C 0.31241 0.33536 0.86565 0.0
C1261 C 0.31587 0.32394 0.88015 0.0
C1262 C 0.32949 0.32845 0.868 0.0
C1263 C 0.32606 0.34061 0.85338 0.0
O1264 O 0.34736 0.35456 0.83418 0.0
O1265 O 0.33783 0.34477 0.82418 0.0
O1266 O 0.32525 0.33589 0.8445 0.0
O1267 O 0.33477 0.34576 0.85443 0.0
H1268 H 0.32248 0.35851 0.82935 0.0
H1269 H 0.31305 0.37352 0.82308 0.0
H1270 H 0.34053 0.3844 0.80762 0.0
H1271 H 0.34975 0.36926 0.81365 0.0
H1272 H 0.37523 0.32361 0.81217 0.0
H1273 H 0.36011 0.32964 0.82149 0.0
H1274 H 0.38578 0.30812 0.83969 0.0
H1275 H 0.37052 0.31392 0.84881 0.0
H1276 H 0.33164 0.3186 0.88106 0.0
H1277 H 0.30105 0.3307 0.87663 0.0
H1278 H 0.30701 0.34007 0.86142 0.0
H1279 H 0.33744 0.32779 0.86561 0.0
H1280 H 0.23592 0.25418 0.99349 0.0
H1281 H 0.22823 0.2472 0.97778 0.0
H1282 H 0.25812 0.23663 0.96826 0.0
H1283 H 0.26573 0.24343 0.98412 0.0
H1284 H 0.24549 0.24476 0.00908 0.0
H1285 H 0.25411 0.27091 0.98455 0.0
H1286 H 0.2611 0.27843 0.96877 0.0
H1287 H 0.29145 0.26793 0.97727 0.0
H1288 H 0.28434 0.2602 0.99295 0.0
H1289 H 0.28433 0.26037 0.02533 0.0
H1290 H 0.2914 0.26826 0.04093 0.0
H1291 H 0.26104 0.27884 0.04884 0.0
H1292 H 0.25408 0.27114 0.03314 0.0
H1293 H 0.27497 0.26933 0.00899 0.0
H1294 H 0.26588 0.24369 0.03419 0.0
H1295 H 0.25836 0.23649 0.04988 0.0
H1296 H 0.22836 0.24703 0.04023 0.0
H1297 H 0.23592 0.25408 0.0245 0.0
C1298 C 0.25142 0.24941 0.98996 0.0
C1299 C 0.24082 0.25035 0.98802 0.0
C1300 C 0.23645 0.24642 0.979 0.0
C1301 C 0.24256 0.24139 0.97174 0.0
C1302 C 0.25317 0.2404 0.97372 0.0
C1303 C 0.25755 0.24436 0.98274 0.0
C1304 C 0.25598 0.25353 0.99962 0.0
C1305 C 0.25185 0.25022 0.00906 0.0
C1306 C 0.26445 0.26049 0.99959 0.0
C1307 C 0.26868 0.2649 0.9899 0.0
C1308 C 0.26225 0.27012 0.98297 0.0
C1309 C 0.26628 0.2745 0.97398 0.0
C1310 C 0.27684 0.27379 0.97175 0.0
C1311 C 0.28326 0.26852 0.97869 0.0
C1312 C 0.27923 0.26416 0.98769 0.0
C1313 C 0.26866 0.26508 0.0281 0.0
C1314 C 0.2792 0.26438 0.03044 0.0
C1315 C 0.28321 0.26883 0.03939 0.0
C1316 C 0.27678 0.27418 0.04614 0.0
C1317 C 0.26622 0.27486 0.04377 0.0
C1318 C 0.26221 0.27037 0.03484 0.0
C1319 C 0.26444 0.26058 0.01845 0.0
C1320 C 0.26864 0.26381 0.00901 0.0
C1321 C 0.25598 0.25361 0.01848 0.0
C1322 C 0.25148 0.24949 0.02818 0.0
C1323 C 0.2577 0.24453 0.0355 0.0
C1324 C 0.25338 0.24044 0.04449 0.0
C1325 C 0.24274 0.24117 0.04635 0.0
C1326 C 0.23655 0.24618 0.039 0.0
C1327 C 0.24087 0.25026 0.03001 0.0
H1328 H 0.76211 0.23546 0.99435 0.0
H1329 H 0.7691 0.22838 0.9785 0.0
H1330 H 0.78121 0.25836 0.97033 0.0
H1331 H 0.77412 0.26538 0.98612 0.0
H1332 H 0.77142 0.24447 0.01054 0.0
H1333 H 0.74596 0.25425 0.98551 0.0
H1334 H 0.73904 0.26195 0.96978 0.0
H1335 H 0.75147 0.29145 0.97895 0.0
H1336 H 0.75823 0.28372 0.99471 0.0
H1337 H 0.75781 0.2835 0.02608 0.0
H1338 H 0.75077 0.29104 0.04166 0.0
H1339 H 0.73836 0.26139 0.05057 0.0
H1340 H 0.7455 0.25389 0.035 0.0
H1341 H 0.74814 0.27439 0.01026 0.0
H1342 H 0.77379 0.2646 0.03517 0.0
H1343 H 0.78009 0.25705 0.05126 0.0
H1344 H 0.7675 0.22759 0.04223 0.0
H1345 H 0.76104 0.23523 0.02626 0.0
C1346 C 0.76748 0.25097 0.99138 0.0
C1347 C 0.76628 0.2405 0.98914 0.0
C1348 C 0.77032 0.23646 0.98009 0.0
C1349 C 0.7757 0.2428 0.97311 0.0
C1350 C 0.77695 0.25328 0.97542 0.0
C1351 C 0.77291 0.25731 0.98447 0.0
C1352 C 0.76322 0.25525 1.00102 0.0
C1353 C 0.76621 0.25092 0.01047 0.0
C1354 C 0.75661 0.26382 1.00096 0.0
C1355 C 0.75266 0.2684 0.99126 0.0
C1356 C 0.74726 0.26236 0.98408 0.0
C1357 C 0.74333 0.26677 0.97508 0.0
C1358 C 0.74469 0.27733 0.9731 0.0
C1359 C 0.75015 0.28334 0.9803 0.0
C1360 C 0.75405 0.27892 0.9893 0.0
C1361 C 0.75226 0.26811 0.0294 0.0
C1362 C 0.75357 0.27862 0.03139 0.0
C1363 C 0.74951 0.28293 0.04029 0.0
C1364 C 0.74397 0.27683 0.04738 0.0
C1365 C 0.7427 0.26629 0.04537 0.0
C1366 C 0.74677 0.26198 0.03646 0.0
C1367 C 0.75638 0.26365 0.01978 0.0
C1368 C 0.75335 0.26794 0.01033 0.0
C1369 C 0.76295 0.25506 0.01985 0.0
C1370 C 0.76686 0.25049 0.02957 0.0
C1371 C 0.77233 0.25653 0.0367 0.0
C1372 C 0.776 0.25219 0.04584 0.0
C1373 C 0.77427 0.24173 0.04803 0.0
C1374 C 0.76884 0.2357 0.04084 0.0
C1375 C 0.76521 0.24003 0.03167 0.0
H1376 H 0.7628 0.78114 0.0242 0.0
H1377 H 0.76952 0.78895 0.03995 0.0
H1378 H 0.78073 0.75942 0.04996 0.0
H1379 H 0.7742 0.75171 0.03406 0.0
H1380 H 0.77263 0.77178 0.00885 0.0
H1381 H 0.74646 0.76256 0.0333 0.0
H1382 H 0.73895 0.75521 0.04893 0.0
H1383 H 0.75038 0.72539 0.04057 0.0
H1384 H 0.75778 0.73279 0.02491 0.0
H1385 H 0.75757 0.73282 0.99284 0.0
H1386 H 0.74976 0.72564 0.97725 0.0
H1387 H 0.73888 0.75574 0.96873 0.0
H1388 H 0.74647 0.76281 0.98444 0.0
H1389 H 0.74843 0.74203 0.00888 0.0
H1390 H 0.77411 0.75144 0.98393 0.0
H1391 H 0.7808 0.75896 0.96799 0.0
H1392 H 0.77016 0.78875 0.97742 0.0
H1393 H 0.76325 0.78113 0.9932 0.0
C1394 C 0.76792 0.76582 0.02797 0.0
C1395 C 0.76672 0.77635 0.02978 0.0
C1396 C 0.77049 0.78079 0.03883 0.0
C1397 C 0.77563 0.7748 0.04624 0.0
C1398 C 0.77688 0.76426 0.04438 0.0
C1399 C 0.77307 0.75982 0.03533 0.0
C1400 C 0.76393 0.76119 0.01829 0.0
C1401 C 0.76724 0.76535 0.00885 0.0
C1402 C 0.75709 0.75264 0.0183 0.0
C1403 C 0.75277 0.74825 0.02796 0.0
C1404 C 0.74745 0.75446 0.03489 0.0
C1405 C 0.74316 0.75024 0.04384 0.0
C1406 C 0.74405 0.73969 0.04603 0.0
C1407 C 0.74941 0.7335 0.03907 0.0
C1408 C 0.75369 0.73773 0.03013 0.0
C1409 C 0.75268 0.74837 0.98978 0.0
C1410 C 0.75351 0.73787 0.9876 0.0
C1411 C 0.74911 0.73379 0.97865 0.0
C1412 C 0.7437 0.74011 0.97173 0.0
C1413 C 0.74291 0.75063 0.97393 0.0
C1414 C 0.74733 0.75471 0.98287 0.0
C1415 C 0.7571 0.75264 0.99944 0.0
C1416 C 0.75387 0.74842 0.00887 0.0
C1417 C 0.76398 0.76116 0.99943 0.0
C1418 C 0.76808 0.7657 0.98973 0.0
C1419 C 0.77313 0.75957 0.98252 0.0
C1420 C 0.77704 0.7639 0.97345 0.0
C1421 C 0.776 0.77446 0.97141 0.0
C1422 C 0.77097 0.78057 0.97867 0.0
C1423 C 0.76709 0.77624 0.98774 0.0
H1424 H 0.26142 0.73501 0.99445 0.0
H1425 H 0.26846 0.72774 0.97872 0.0
H1426 H 0.28069 0.75759 0.97024 0.0
H1427 H 0.27355 0.76481 0.98593 0.0
H1428 H 0.2709 0.744 0.01045 0.0
H1429 H 0.24537 0.75396 0.98556 0.0
H1430 H 0.23849 0.7617 0.96984 0.0
H1431 H 0.25119 0.79111 0.97895 0.0
H1432 H 0.2579 0.78334 0.99472 0.0
H1433 H 0.25755 0.78313 0.02607 0.0
H1434 H 0.25066 0.7907 0.04171 0.0
H1435 H 0.23829 0.76107 0.05075 0.0
H1436 H 0.24529 0.75355 0.03513 0.0
H1437 H 0.24783 0.77408 0.01033 0.0
H1438 H 0.27347 0.76413 0.03514 0.0
H1439 H 0.28035 0.75641 0.05088 0.0
H1440 H 0.26749 0.72703 0.0419 0.0
H1441 H 0.26077 0.73477 0.02613 0.0
C1442 C 0.26686 0.75048 0.99133 0.0
C1443 C 0.26561 0.73998 0.98919 0.0
C1444 C 0.26968 0.73583 0.98021 0.0
C1445 C 0.27514 0.74207 0.97319 0.0
C1446 C 0.27638 0.75259 0.97537 0.0
C1447 C 0.27231 0.75673 0.98436 0.0
C1448 C 0.2627 0.75482 1.00098 0.0
C1449 C 0.26573 0.75049 0.01042 0.0
C1450 C 0.25616 0.76344 1.00096 0.0
C1451 C 0.2522 0.76806 0.99129 0.0
C1452 C 0.24674 0.76206 0.98412 0.0
C1453 C 0.24283 0.76649 0.97512 0.0
C1454 C 0.24428 0.77704 0.97312 0.0
C1455 C 0.24979 0.78301 0.98031 0.0
C1456 C 0.25367 0.77857 0.98931 0.0
C1457 C 0.25202 0.76776 0.02945 0.0
C1458 C 0.25336 0.77827 0.03143 0.0
C1459 C 0.24938 0.78259 0.04036 0.0
C1460 C 0.2439 0.7765 0.0475 0.0
C1461 C 0.24259 0.76596 0.04551 0.0
C1462 C 0.24658 0.76164 0.03656 0.0
C1463 C 0.25605 0.76328 0.0198 0.0
C1464 C 0.25299 0.76759 0.01036 0.0
C1465 C 0.26256 0.75464 0.01982 0.0
C1466 C 0.26654 0.75004 0.0295 0.0
C1467 C 0.27206 0.75604 0.03662 0.0
C1468 C 0.27598 0.75162 0.04562 0.0
C1469 C 0.27449 0.74109 0.04766 0.0
C1470 C 0.26892 0.73512 0.04051 0.0
C1471 C 0.26503 0.73954 0.03151 0.0
H1472 H 0.02505 0.25647 0.23463 0.0
H1473 H 0.0407 0.24929 0.22733 0.0
H1474 H 0.04935 0.23775 0.25733 0.0
H1475 H 0.03373 0.24504 0.26458 0.0
H1476 H 0.00903 0.24716 0.24395 0.0
H1477 H 0.0345 0.2728 0.25343 0.0
H1478 H 0.05028 0.27968 0.26126 0.0
H1479 H 0.04059 0.26775 0.29079 0.0
H1480 H 0.02478 0.26105 0.28293 0.0
H1481 H 0.99337 0.26208 0.28253 0.0
H1482 H 0.97759 0.26911 0.28972 0.0
H1483 H 0.96895 0.28044 0.25965 0.0
H1484 H 0.98487 0.27357 0.25255 0.0
H1485 H 0.00949 0.2713 0.27329 0.0
H1486 H 0.98364 0.24667 0.26434 0.0
H1487 H 0.96756 0.24003 0.25691 0.0
H1488 H 0.97798 0.24897 0.22665 0.0
H1489 H 0.99395 0.25585 0.23412 0.0
C1490 C 0.02825 0.25138 0.25017 0.0
C1491 C 0.03032 0.25239 0.23963 0.0
C1492 C 0.03926 0.24824 0.23546 0.0
C1493 C 0.0463 0.24292 0.24173 0.0
C1494 C 0.04419 0.24192 0.2523 0.0
C1495 C 0.03525 0.24608 0.25646 0.0
C1496 C 0.01863 0.25567 0.25451 0.0
C1497 C 0.00912 0.25257 0.25026 0.0
C1498 C 0.01874 0.26247 0.26296 0.0
C1499 C 0.02849 0.26636 0.26759 0.0
C1500 C 0.03583 0.2716 0.26157 0.0
C1501 C 0.04486 0.27551 0.26606 0.0
C1502 C 0.0467 0.27429 0.27667 0.0
C1503 C 0.03935 0.26898 0.28264 0.0
C1504 C 0.03032 0.2651 0.27815 0.0
C1505 C 0.99027 0.26722 0.26699 0.0
C1506 C 0.98809 0.26611 0.2775 0.0
C1507 C 0.97903 0.27006 0.28158 0.0
C1508 C 0.97198 0.27529 0.27525 0.0
C1509 C 0.97425 0.27651 0.26475 0.0
C1510 C 0.9833 0.27252 0.26066 0.0
C1511 C 0.99987 0.26287 0.26268 0.0
C1512 C 0.00937 0.26593 0.26695 0.0
C1513 C 0.99974 0.25599 0.25429 0.0
C1514 C 0.98996 0.25192 0.24981 0.0
C1515 C 0.98241 0.24736 0.25612 0.0
C1516 C 0.97323 0.24354 0.25187 0.0
C1517 C 0.97152 0.24401 0.24121 0.0
C1518 C 0.97913 0.24844 0.23489 0.0
C1519 C 0.98825 0.25238 0.23915 0.0
H1520 H 0.76136 0.02431 0.23555 0.0
H1521 H 0.76826 0.04046 0.22863 0.0
H1522 H 0.77977 0.04845 0.25882 0.0
H1523 H 0.77269 0.03238 0.2657 0.0
H1524 H 0.77138 0.00842 0.24483 0.0
H1525 H 0.74495 0.03241 0.25383 0.0
H1526 H 0.73758 0.04776 0.26146 0.0
H1527 H 0.74853 0.03807 0.29137 0.0
H1528 H 0.75578 0.0227 0.2837 0.0
H1529 H 0.7561 0.99116 0.28303 0.0
H1530 H 0.74878 0.97509 0.28978 0.0
H1531 H 0.73837 0.96703 0.25924 0.0
H1532 H 0.74551 0.98318 0.25259 0.0
H1533 H 0.7466 0.00709 0.27374 0.0
H1534 H 0.7731 0.98355 0.26532 0.0
H1535 H 0.78056 0.96796 0.25831 0.0
H1536 H 0.77044 0.97688 0.22788 0.0
H1537 H 0.76275 0.99235 0.235 0.0
C1538 C 0.76644 0.02718 0.25115 0.0
C1539 C 0.76537 0.02956 0.24067 0.0
C1540 C 0.76935 0.03877 0.23672 0.0
C1541 C 0.77457 0.04577 0.24317 0.0
C1542 C 0.77565 0.04334 0.25367 0.0
C1543 C 0.77163 0.03413 0.25762 0.0
C1544 C 0.76232 0.01734 0.25528 0.0
C1545 C 0.76584 0.00812 0.25105 0.0
C1546 C 0.75533 0.01697 0.26361 0.0
C1547 C 0.751 0.02643 0.26818 0.0
C1548 C 0.74584 0.03364 0.26202 0.0
C1549 C 0.74164 0.04243 0.2664 0.0
C1550 C 0.74245 0.04417 0.27704 0.0
C1551 C 0.74762 0.03692 0.28317 0.0
C1552 C 0.75182 0.02814 0.27879 0.0
C1553 C 0.75141 0.98834 0.2673 0.0
C1554 C 0.75224 0.98592 0.2778 0.0
C1555 C 0.74812 0.97671 0.28163 0.0
C1556 C 0.74301 0.96979 0.27504 0.0
C1557 C 0.74218 0.97224 0.26453 0.0
C1558 C 0.74634 0.98143 0.2607 0.0
C1559 C 0.75563 0.99819 0.26327 0.0
C1560 C 0.75213 0.00739 0.26751 0.0
C1561 C 0.76269 0.99855 0.25501 0.0
C1562 C 0.76727 0.98908 0.25071 0.0
C1563 C 0.7724 0.98211 0.25715 0.0
C1564 C 0.77675 0.97324 0.25311 0.0
C1565 C 0.7761 0.97116 0.24253 0.0
C1566 C 0.77098 0.97818 0.23608 0.0
C1567 C 0.76665 0.98707 0.24013 0.0
H1568 H 0.02316 0.73496 0.26341 0.0
H1569 H 0.03872 0.72698 0.27029 0.0
H1570 H 0.04934 0.75649 0.28135 0.0
H1571 H 0.03363 0.76438 0.27466 0.0
H1572 H 0.00791 0.74469 0.273 0.0
H1573 H 0.03255 0.75307 0.24693 0.0
H1574 H 0.04858 0.75979 0.23962 0.0
H1575 H 0.04141 0.78997 0.25101 0.0
H1576 H 0.02532 0.78319 0.2582 0.0
H1577 H 0.99307 0.78392 0.25806 0.0
H1578 H 0.97745 0.79141 0.25074 0.0
H1579 H 0.9681 0.76156 0.23947 0.0
H1580 H 0.98366 0.75414 0.24689 0.0
H1581 H 0.00884 0.7743 0.24886 0.0
H1582 H 0.98366 0.76547 0.27465 0.0
H1583 H 0.96748 0.75829 0.28128 0.0
H1584 H 0.97589 0.7284 0.27006 0.0
H1585 H 0.99193 0.73567 0.26326 0.0
C1586 C 0.02725 0.75028 0.26845 0.0
C1587 C 0.02883 0.73971 0.26733 0.0
C1588 C 0.03778 0.73517 0.2712 0.0
C1589 C 0.0453 0.7411 0.27634 0.0
C1590 C 0.04366 0.75169 0.2775 0.0
C1591 C 0.03473 0.75623 0.2736 0.0
C1592 C 0.01769 0.75503 0.26437 0.0
C1593 C 0.00812 0.75109 0.26763 0.0
C1594 C 0.01795 0.76353 0.25752 0.0
C1595 C 0.02777 0.7676 0.25321 0.0
C1596 C 0.03448 0.76112 0.24794 0.0
C1597 C 0.04366 0.76497 0.24378 0.0
C1598 C 0.04633 0.77543 0.24475 0.0
C1599 C 0.03956 0.78191 0.25 0.0
C1600 C 0.03037 0.77804 0.25416 0.0
C1601 C 0.9895 0.76845 0.25313 0.0
C1602 C 0.98765 0.779 0.25402 0.0
C1603 C 0.97872 0.78327 0.24979 0.0
C1604 C 0.97148 0.77709 0.24453 0.0
C1605 C 0.97339 0.76652 0.24363 0.0
C1606 C 0.98231 0.76226 0.24786 0.0
C1607 C 0.99907 0.76394 0.25748 0.0
C1608 C 0.00864 0.76794 0.25428 0.0
C1609 C 0.99881 0.75545 0.26433 0.0
C1610 C 0.98897 0.75113 0.26837 0.0
C1611 C 0.98197 0.75739 0.27355 0.0
C1612 C 0.97277 0.75326 0.27741 0.0
C1613 C 0.97038 0.74277 0.27618 0.0
C1614 C 0.97743 0.73652 0.27102 0.0
C1615 C 0.98664 0.74065 0.2672 0.0
H1616 H 0.23446 0.02379 0.25642 0.0
H1617 H 0.22664 0.0394 0.24956 0.0
H1618 H 0.25654 0.05007 0.23933 0.0
H1619 H 0.26428 0.03432 0.24601 0.0
H1620 H 0.24443 0.00872 0.2469 0.0
H1621 H 0.25219 0.03282 0.27348 0.0
H1622 H 0.25872 0.04869 0.28117 0.0
H1623 H 0.28938 0.04162 0.27075 0.0
H1624 H 0.28273 0.02585 0.26284 0.0
H1625 H 0.28363 0.99423 0.26301 0.0
H1626 H 0.29119 0.97857 0.27007 0.0
H1627 H 0.26095 0.96786 0.27916 0.0
H1628 H 0.25343 0.98358 0.27224 0.0
H1629 H 0.27357 0.00928 0.27171 0.0
H1630 H 0.26512 0.98442 0.24536 0.0
H1631 H 0.25786 0.96839 0.23856 0.0
H1632 H 0.22777 0.97696 0.24942 0.0
H1633 H 0.23511 0.99283 0.25639 0.0
C1634 C 0.24997 0.0279 0.25181 0.0
C1635 C 0.23933 0.02948 0.25268 0.0
C1636 C 0.23488 0.03845 0.24883 0.0
C1637 C 0.24097 0.04601 0.24393 0.0
C1638 C 0.25162 0.04438 0.24299 0.0
C1639 C 0.25607 0.03542 0.24689 0.0
C1640 C 0.25463 0.01832 0.25587 0.0
C1641 C 0.25073 0.00884 0.25241 0.0
C1642 C 0.26298 0.01847 0.26292 0.0
C1643 C 0.26694 0.02819 0.26749 0.0
C1644 C 0.26029 0.03474 0.27275 0.0
C1645 C 0.26406 0.04377 0.27723 0.0
C1646 C 0.27458 0.04643 0.27658 0.0
C1647 C 0.28122 0.03986 0.27129 0.0
C1648 C 0.27745 0.0308 0.26683 0.0
C1649 C 0.26793 0.99005 0.26695 0.0
C1650 C 0.27862 0.98852 0.26655 0.0
C1651 C 0.28294 0.97958 0.27061 0.0
C1652 C 0.27667 0.97195 0.27515 0.0
C1653 C 0.26597 0.97351 0.27558 0.0
C1654 C 0.26167 0.9825 0.2716 0.0
C1655 C 0.2634 0.99965 0.26272 0.0
C1656 C 0.26732 0.00915 0.26614 0.0
C1657 C 0.25502 0.99951 0.25569 0.0
C1658 C 0.25067 0.98979 0.25147 0.0
C1659 C 0.25697 0.9828 0.24634 0.0
C1660 C 0.2528 0.97368 0.24238 0.0
C1661 C 0.24224 0.97138 0.24347 0.0
C1662 C 0.23596 0.97843 0.24857 0.0
C1663 C 0.24012 0.98755 0.25249 0.0
H1664 H 0.02516 0.76091 0.78276 0.0
H1665 H 0.04104 0.76751 0.79055 0.0
H1666 H 0.05046 0.77982 0.76109 0.0
H1667 H 0.03459 0.77306 0.75332 0.0
H1668 H 0.00978 0.77119 0.77353 0.0
H1669 H 0.03393 0.74521 0.76398 0.0
H1670 H 0.04936 0.73788 0.75636 0.0
H1671 H 0.04028 0.74985 0.72666 0.0
H1672 H 0.02484 0.75707 0.73432 0.0
H1673 H 0.99312 0.75749 0.73453 0.0
H1674 H 0.97711 0.75058 0.72723 0.0
H1675 H 0.96861 0.73862 0.75711 0.0
H1676 H 0.98458 0.74567 0.76437 0.0
H1677 H 0.00895 0.74771 0.74366 0.0
H1678 H 0.98466 0.77343 0.75309 0.0
H1679 H 0.96912 0.7806 0.76063 0.0
H1680 H 0.97842 0.76917 0.79048 0.0
H1681 H 0.99397 0.76209 0.7829 0.0
C1682 C 0.02871 0.76643 0.76745 0.0
C1683 C 0.03065 0.76502 0.77798 0.0
C1684 C 0.03972 0.76884 0.78243 0.0
C1685 C 0.04702 0.77423 0.77646 0.0
C1686 C 0.04507 0.77559 0.76589 0.0
C1687 C 0.036 0.77175 0.76144 0.0
C1688 C 0.01891 0.76261 0.76287 0.0
C1689 C 0.00959 0.76594 0.76708 0.0
C1690 C 0.0187 0.75599 0.75428 0.0
C1691 C 0.02825 0.75177 0.74974 0.0
C1692 C 0.03532 0.74635 0.75585 0.0
C1693 C 0.04415 0.74216 0.75148 0.0
C1694 C 0.04607 0.74325 0.74088 0.0
C1695 C 0.03898 0.74872 0.7348 0.0
C1696 C 0.03016 0.7529 0.73918 0.0
C1697 C 0.99001 0.75217 0.75 0.0
C1698 C 0.9878 0.75338 0.7395 0.0
C1699 C 0.97866 0.74939 0.73534 0.0
C1700 C 0.97157 0.74403 0.74158 0.0
C1701 C 0.97381 0.74284 0.75211 0.0
C1702 C 0.98295 0.74685 0.75627 0.0
C1703 C 0.99981 0.75625 0.75435 0.0
C1704 C 0.00914 0.75297 0.75009 0.0
C1705 C 1.00003 0.76293 0.76289 0.0
C1706 C 0.99046 0.76714 0.76741 0.0
C1707 C 0.9833 0.77238 0.76124 0.0
C1708 C 0.9744 0.77647 0.76557 0.0
C1709 C 0.9725 0.77547 0.77617 0.0
C1710 C 0.9797 0.77022 0.78232 0.0
C1711 C 0.98858 0.76612 0.77799 0.0
H1712 H 0.26147 0.02443 0.7357 0.0
H1713 H 0.26836 0.04058 0.7288 0.0
H1714 H 0.27968 0.04865 0.75904 0.0
H1715 H 0.27262 0.03257 0.7659 0.0
H1716 H 0.2714 0.00857 0.74502 0.0
H1717 H 0.24488 0.03245 0.75385 0.0
H1718 H 0.23752 0.04787 0.76134 0.0
H1719 H 0.24845 0.03843 0.79134 0.0
H1720 H 0.25569 0.02298 0.7838 0.0
H1721 H 0.25586 0.99126 0.78314 0.0
H1722 H 0.24841 0.97522 0.78981 0.0
H1723 H 0.2382 0.96725 0.75918 0.0
H1724 H 0.24545 0.98339 0.75261 0.0
H1725 H 0.24651 0.00725 0.77383 0.0
H1726 H 0.27286 0.9835 0.76538 0.0
H1727 H 0.28023 0.96792 0.75826 0.0
H1728 H 0.27043 0.97725 0.72785 0.0
H1729 H 0.2628 0.99269 0.73508 0.0
C1730 C 0.26645 0.02733 0.75133 0.0
C1731 C 0.26543 0.0297 0.74084 0.0
C1732 C 0.26942 0.03892 0.7369 0.0
C1733 C 0.27458 0.04593 0.74336 0.0
C1734 C 0.2756 0.04352 0.75387 0.0
C1735 C 0.27159 0.03431 0.75781 0.0
C1736 C 0.26232 0.01748 0.75545 0.0
C1737 C 0.26585 0.00827 0.75122 0.0
C1738 C 0.2553 0.01713 0.76374 0.0
C1739 C 0.25092 0.02659 0.76825 0.0
C1740 C 0.24577 0.03375 0.76203 0.0
C1741 C 0.24157 0.04258 0.76633 0.0
C1742 C 0.24239 0.04442 0.77696 0.0
C1743 C 0.24754 0.03721 0.78316 0.0
C1744 C 0.25173 0.02838 0.77885 0.0
C1745 C 0.25128 0.98849 0.76737 0.0
C1746 C 0.25202 0.98605 0.77787 0.0
C1747 C 0.24783 0.97685 0.78165 0.0
C1748 C 0.24273 0.96996 0.77502 0.0
C1749 C 0.242 0.97244 0.7645 0.0
C1750 C 0.24622 0.98161 0.76072 0.0
C1751 C 0.25556 0.99834 0.76338 0.0
C1752 C 0.25207 0.00755 0.76763 0.0
C1753 C 0.26265 0.99869 0.75514 0.0
C1754 C 0.26717 0.98923 0.75079 0.0
C1755 C 0.27221 0.98214 0.75719 0.0
C1756 C 0.27651 0.97328 0.75309 0.0
C1757 C 0.27593 0.97132 0.74248 0.0
C1758 C 0.27091 0.97845 0.73607 0.0
C1759 C 0.26662 0.98733 0.74018 0.0
H1760 H 0.99394 0.26351 0.73682 0.0
H1761 H 0.97837 0.27086 0.72929 0.0
H1762 H 0.96809 0.27943 0.75955 0.0
H1763 H 0.98375 0.27218 0.76705 0.0
H1764 H 0.00927 0.27178 0.74679 0.0
H1765 H 0.98431 0.2456 0.75468 0.0
H1766 H 0.96827 0.23827 0.76143 0.0
H1767 H 0.97691 0.24817 0.79196 0.0
H1768 H 0.99283 0.25572 0.7851 0.0
H1769 H 0.02527 0.25541 0.78512 0.0
H1770 H 0.04082 0.24738 0.79202 0.0
H1771 H 0.04864 0.23714 0.76154 0.0
H1772 H 0.03298 0.24496 0.75474 0.0
H1773 H 0.00877 0.24663 0.77554 0.0
H1774 H 0.03449 0.27233 0.76689 0.0
H1775 H 0.05031 0.27934 0.75935 0.0
H1776 H 0.04028 0.26887 0.72941 0.0
H1777 H 0.02443 0.26205 0.73699 0.0
C1778 C 0.99 0.26719 0.75252 0.0
C1779 C 0.98835 0.267 0.74184 0.0
C1780 C 0.97946 0.27122 0.73754 0.0
C1781 C 0.97199 0.27573 0.74382 0.0
C1782 C 0.97363 0.27589 0.75451 0.0
C1783 C 0.98258 0.27174 0.75881 0.0
C1784 C 0.99962 0.26288 0.757 0.0
C1785 C 0.00914 0.26618 0.75299 0.0
C1786 C 0.99949 0.25573 0.76526 0.0
C1787 C 0.98973 0.25131 0.76936 0.0
C1788 C 0.9827 0.24628 0.76281 0.0
C1789 C 0.97358 0.242 0.7667 0.0
C1790 C 0.97131 0.24263 0.77724 0.0
C1791 C 0.97837 0.24766 0.78378 0.0
C1792 C 0.98751 0.25191 0.77989 0.0
C1793 C 0.02799 0.25087 0.7694 0.0
C1794 C 0.03034 0.25144 0.77993 0.0
C1795 C 0.03927 0.24691 0.78385 0.0
C1796 C 0.04599 0.24163 0.77733 0.0
C1797 C 0.0436 0.24107 0.76679 0.0
C1798 C 0.03469 0.24562 0.76287 0.0
C1799 C 0.01839 0.2555 0.76527 0.0
C1800 C 0.00888 0.25226 0.76937 0.0
C1801 C 0.01852 0.26261 0.757 0.0
C1802 C 0.02828 0.26662 0.75252 0.0
C1803 C 0.03574 0.27148 0.75872 0.0
C1804 C 0.0448 0.27546 0.75439 0.0
C1805 C 0.04658 0.2747 0.74375 0.0
C1806 C 0.0391 0.26976 0.73759 0.0
C1807 C 0.03005 0.26581 0.74192 0.0
H1808 H 0.73446 0.02385 0.7567 0.0
H1809 H 0.72673 0.03943 0.74969 0.0
H1810 H 0.75672 0.04992 0.73953 0.0
H1811 H 0.76436 0.03419 0.74634 0.0
H1812 H 0.74433 0.0087 0.74731 0.0
H1813 H 0.75229 0.0328 0.7738 0.0
H1814 H 0.75891 0.04867 0.78144 0.0
H1815 H 0.7895 0.04146 0.77094 0.0
H1816 H 0.78277 0.0257 0.76309 0.0
H1817 H 0.78342 0.99374 0.7625 0.0
H1818 H 0.79096 0.97807 0.76951 0.0
H1819 H 0.76095 0.9683 0.78033 0.0
H1820 H 0.75346 0.98394 0.77319 0.0
H1821 H 0.77362 0.00917 0.77195 0.0
H1822 H 0.76507 0.98443 0.74571 0.0
H1823 H 0.75781 0.96867 0.73841 0.0
H1824 H 0.72771 0.97695 0.74953 0.0
H1825 H 0.73502 0.99274 0.75669 0.0
C1826 C 0.75 0.02787 0.75212 0.0
C1827 C 0.73937 0.0295 0.75295 0.0
C1828 C 0.73497 0.03846 0.74901 0.0
C1829 C 0.74111 0.04595 0.74407 0.0
C1830 C 0.75176 0.04427 0.74321 0.0
C1831 C 0.75616 0.03533 0.74719 0.0
C1832 C 0.7546 0.01827 0.75623 0.0
C1833 C 0.75065 0.0088 0.7528 0.0
C1834 C 0.76299 0.0184 0.76323 0.0
C1835 C 0.76701 0.0281 0.76778 0.0
C1836 C 0.7604 0.03469 0.77305 0.0
C1837 C 0.76422 0.04371 0.7775 0.0
C1838 C 0.77474 0.04633 0.77681 0.0
C1839 C 0.78134 0.03973 0.77151 0.0
C1840 C 0.77752 0.03068 0.76708 0.0
C1841 C 0.76786 0.98998 0.76723 0.0
C1842 C 0.77847 0.98822 0.76639 0.0
C1843 C 0.78277 0.97926 0.77044 0.0
C1844 C 0.77657 0.9719 0.7755 0.0
C1845 C 0.76594 0.97371 0.77634 0.0
C1846 C 0.76164 0.98267 0.77228 0.0
C1847 C 0.76335 0.99959 0.76302 0.0
C1848 C 0.76732 0.00907 0.76643 0.0
C1849 C 0.75493 0.99946 0.75606 0.0
C1850 C 0.7506 0.98975 0.75181 0.0
C1851 C 0.75693 0.9828 0.74665 0.0
C1852 C 0.75276 0.97378 0.74249 0.0
C1853 C 0.74216 0.97153 0.74336 0.0
C1854 C 0.73587 0.9785 0.74857 0.0
C1855 C 0.74004 0.98752 0.75271 0.0
H1856 H 0.2835 0.76076 0.49291 0.0
H1857 H 0.29037 0.76844 0.47711 0.0
H1858 H 0.25971 0.77781 0.46839 0.0
H1859 H 0.25295 0.77039 0.48432 0.0
H1860 H 0.27389 0.76964 0.5088 0.0
H1861 H 0.26535 0.74335 0.48414 0.0
H1862 H 0.25795 0.73644 0.46824 0.0
H1863 H 0.22778 0.74623 0.47773 0.0
H1864 H 0.23527 0.75332 0.49349 0.0
H1865 H 0.23561 0.75301 0.52487 0.0
H1866 H 0.22856 0.74544 0.54062 0.0
H1867 H 0.25911 0.73604 0.54972 0.0
H1868 H 0.26607 0.7434 0.53383 0.0
H1869 H 0.24524 0.74411 0.50914 0.0
H1870 H 0.25343 0.76977 0.53402 0.0
H1871 H 0.26064 0.77734 0.54968 0.0
H1872 H 0.29122 0.76925 0.53989 0.0
H1873 H 0.28397 0.76158 0.52429 0.0
C1874 C 0.26769 0.76491 0.48977 0.0
C1875 C 0.27826 0.76448 0.48759 0.0
C1876 C 0.28217 0.7688 0.47852 0.0
C1877 C 0.27559 0.77373 0.47147 0.0
C1878 C 0.26501 0.77416 0.47369 0.0
C1879 C 0.26111 0.76983 0.48275 0.0
C1880 C 0.26359 0.76047 0.49951 0.0
C1881 C 0.26774 0.76392 0.50889 0.0
C1882 C 0.25536 0.75324 0.49961 0.0
C1883 C 0.25088 0.74895 0.48997 0.0
C1884 C 0.25716 0.74407 0.48276 0.0
C1885 C 0.2529 0.74004 0.47372 0.0
C1886 C 0.24227 0.7408 0.4717 0.0
C1887 C 0.23601 0.74564 0.47898 0.0
C1888 C 0.24026 0.74963 0.48803 0.0
C1889 C 0.25138 0.74884 0.52818 0.0
C1890 C 0.24079 0.74931 0.53025 0.0
C1891 C 0.23678 0.74506 0.53931 0.0
C1892 C 0.24327 0.74015 0.54645 0.0
C1893 C 0.25388 0.73968 0.54434 0.0
C1894 C 0.25789 0.74396 0.5353 0.0
C1895 C 0.25557 0.75324 0.51846 0.0
C1896 C 0.25143 0.74978 0.50908 0.0
C1897 C 0.2638 0.76049 0.51838 0.0
C1898 C 0.26814 0.76497 0.528 0.0
C1899 C 0.26168 0.76948 0.5353 0.0
C1900 C 0.26581 0.77382 0.54425 0.0
C1901 C 0.2765 0.77388 0.54604 0.0
C1902 C 0.28296 0.76942 0.5387 0.0
C1903 C 0.27882 0.76501 0.52978 0.0
H1904 H 0.7623 0.73548 0.49458 0.0
H1905 H 0.76926 0.72832 0.47876 0.0
H1906 H 0.78114 0.75831 0.47028 0.0
H1907 H 0.77405 0.76541 0.48604 0.0
H1908 H 0.77167 0.74469 0.51064 0.0
H1909 H 0.74602 0.75383 0.48573 0.0
H1910 H 0.73908 0.76114 0.46983 0.0
H1911 H 0.75096 0.791 0.47855 0.0
H1912 H 0.75777 0.78365 0.49448 0.0
H1913 H 0.75752 0.78356 0.52617 0.0
H1914 H 0.75042 0.79093 0.54183 0.0
H1915 H 0.73836 0.76109 0.55056 0.0
H1916 H 0.74556 0.75377 0.53494 0.0
H1917 H 0.74798 0.7743 0.51025 0.0
H1918 H 0.77376 0.76484 0.53528 0.0
H1919 H 0.78011 0.75733 0.55137 0.0
H1920 H 0.76779 0.72777 0.54228 0.0
H1921 H 0.7613 0.73537 0.5263 0.0
C1922 C 0.76756 0.751 0.49146 0.0
C1923 C 0.76641 0.7405 0.48931 0.0
C1924 C 0.77043 0.73641 0.48027 0.0
C1925 C 0.77575 0.74273 0.47321 0.0
C1926 C 0.77693 0.75324 0.47543 0.0
C1927 C 0.7729 0.75732 0.48446 0.0
C1928 C 0.7633 0.75531 0.50108 0.0
C1929 C 0.76638 0.75108 0.51055 0.0
C1930 C 0.75657 0.76378 0.50098 0.0
C1931 C 0.75248 0.76818 0.49126 0.0
C1932 C 0.7472 0.76194 0.48417 0.0
C1933 C 0.74325 0.76613 0.47507 0.0
C1934 C 0.74446 0.77666 0.4729 0.0
C1935 C 0.74976 0.78289 0.48004 0.0
C1936 C 0.75369 0.77869 0.48913 0.0
C1937 C 0.75216 0.7681 0.52942 0.0
C1938 C 0.75334 0.77861 0.53147 0.0
C1939 C 0.74925 0.78281 0.54041 0.0
C1940 C 0.74381 0.7766 0.54747 0.0
C1941 C 0.74263 0.76607 0.54538 0.0
C1942 C 0.74674 0.76187 0.53644 0.0
C1943 C 0.75637 0.76371 0.51981 0.0
C1944 C 0.75328 0.76792 0.51034 0.0
C1945 C 0.76306 0.75521 0.51991 0.0
C1946 C 0.76698 0.75068 0.52964 0.0
C1947 C 0.77237 0.75676 0.53679 0.0
C1948 C 0.77606 0.75244 0.54594 0.0
C1949 C 0.77442 0.74196 0.5481 0.0
C1950 C 0.76906 0.73589 0.5409 0.0
C1951 C 0.76542 0.7402 0.53173 0.0
H1952 H 0.76367 0.28146 0.5238 0.0
H1953 H 0.77075 0.28898 0.53954 0.0
H1954 H 0.77964 0.25884 0.55007 0.0
H1955 H 0.77267 0.25137 0.53425 0.0
H1956 H 0.7723 0.27169 0.50871 0.0
H1957 H 0.7459 0.2632 0.53319 0.0
H1958 H 0.73844 0.25609 0.54895 0.0
H1959 H 0.74905 0.22597 0.54055 0.0
H1960 H 0.75637 0.23313 0.52475 0.0
H1961 H 0.7564 0.23312 0.49283 0.0
H1962 H 0.74879 0.22601 0.47711 0.0
H1963 H 0.73861 0.25628 0.46828 0.0
H1964 H 0.74598 0.26327 0.48412 0.0
H1965 H 0.74731 0.24261 0.50873 0.0
H1966 H 0.77339 0.25155 0.48378 0.0
H1967 H 0.7801 0.25905 0.46782 0.0
H1968 H 0.76969 0.2889 0.47733 0.0
H1969 H 0.7628 0.28131 0.49313 0.0
C1970 C 0.76752 0.26583 0.52785 0.0
C1971 C 0.76717 0.27647 0.52948 0.0
C1972 C 0.77124 0.28076 0.53847 0.0
C1973 C 0.77574 0.2745 0.54607 0.0
C1974 C 0.77609 0.26385 0.54444 0.0
C1975 C 0.77209 0.25957 0.5354 0.0
C1976 C 0.76332 0.26135 0.51817 0.0
C1977 C 0.76674 0.26542 0.50873 0.0
C1978 C 0.75622 0.253 0.51816 0.0
C1979 C 0.75178 0.24872 0.52782 0.0
C1980 C 0.74668 0.25508 0.53478 0.0
C1981 C 0.74244 0.251 0.54381 0.0
C1982 C 0.74314 0.24044 0.54605 0.0
C1983 C 0.74823 0.23409 0.53902 0.0
C1984 C 0.75246 0.23818 0.53 0.0
C1985 C 0.75185 0.24874 0.48962 0.0
C1986 C 0.75252 0.23822 0.4875 0.0
C1987 C 0.74824 0.23418 0.47847 0.0
C1988 C 0.7431 0.24058 0.47141 0.0
C1989 C 0.74242 0.25112 0.47358 0.0
C1990 C 0.74672 0.25515 0.4826 0.0
C1991 C 0.75627 0.25298 0.4993 0.0
C1992 C 0.7529 0.24886 0.50873 0.0
C1993 C 0.76335 0.26134 0.4993 0.0
C1994 C 0.7675 0.26585 0.48962 0.0
C1995 C 0.77248 0.25969 0.48238 0.0
C1996 C 0.77639 0.26401 0.4733 0.0
C1997 C 0.77541 0.27457 0.47128 0.0
C1998 C 0.77046 0.28071 0.47857 0.0
C1999 C 0.76658 0.2764 0.48765 0.0
H2000 H 0.26277 0.2352 0.4946 0.0
H2001 H 0.27042 0.22837 0.47893 0.0
H2002 H 0.2812 0.25883 0.47074 0.0
H2003 H 0.27377 0.26555 0.48653 0.0
H2004 H 0.27155 0.24455 0.51088 0.0
H2005 H 0.2468 0.25311 0.48517 0.0
H2006 H 0.24045 0.26031 0.46902 0.0
H2007 H 0.24913 0.29072 0.47932 0.0
H2008 H 0.25597 0.28339 0.49521 0.0
H2009 H 0.25709 0.28312 0.52612 0.0
H2010 H 0.25028 0.29065 0.54183 0.0
H2011 H 0.23849 0.26089 0.55116 0.0
H2012 H 0.24511 0.25345 0.53531 0.0
H2013 H 0.2472 0.27361 0.51038 0.0
H2014 H 0.27326 0.26466 0.53542 0.0
H2015 H 0.2798 0.25726 0.55149 0.0
H2016 H 0.26786 0.22753 0.54248 0.0
H2017 H 0.26116 0.23502 0.52655 0.0
C2018 C 0.26761 0.2509 0.49171 0.0
C2019 C 0.2668 0.2404 0.48943 0.0
C2020 C 0.27111 0.23652 0.48043 0.0
C2021 C 0.27641 0.24306 0.47356 0.0
C2022 C 0.27726 0.25357 0.4759 0.0
C2023 C 0.27293 0.25744 0.48489 0.0
C2024 C 0.26304 0.255 0.50127 0.0
C2025 C 0.26611 0.25081 0.51076 0.0
C2026 C 0.25607 0.2633 0.50113 0.0
C2027 C 0.25201 0.26768 0.49136 0.0
C2028 C 0.24747 0.26132 0.48389 0.0
C2029 C 0.24371 0.26547 0.4747 0.0
C2030 C 0.24429 0.27611 0.47283 0.0
C2031 C 0.24871 0.28248 0.4804 0.0
C2032 C 0.25254 0.27831 0.48955 0.0
C2033 C 0.25169 0.26771 0.52957 0.0
C2034 C 0.25302 0.27822 0.53154 0.0
C2035 C 0.24919 0.2825 0.54057 0.0
C2036 C 0.24388 0.27636 0.54778 0.0
C2037 C 0.24248 0.26584 0.54574 0.0
C2038 C 0.24634 0.26156 0.53672 0.0
C2039 C 0.25581 0.26323 0.51996 0.0
C2040 C 0.25263 0.26735 0.51048 0.0
C2041 C 0.26265 0.25485 0.5201 0.0
C2042 C 0.26663 0.25041 0.52984 0.0
C2043 C 0.27198 0.25657 0.53696 0.0
C2044 C 0.27579 0.25232 0.54609 0.0
C2045 C 0.27432 0.24182 0.54827 0.0
C2046 C 0.26899 0.23567 0.5411 0.0
C2047 C 0.26523 0.23992 0.53196 0.0
H2048 H 0.75578 0.52334 0.78376 0.0
H2049 H 0.7485 0.53875 0.79134 0.0
H2050 H 0.73742 0.54817 0.76139 0.0
H2051 H 0.74483 0.53279 0.75386 0.0
H2052 H 0.74666 0.5076 0.77387 0.0
H2053 H 0.77262 0.53282 0.76596 0.0
H2054 H 0.77963 0.549 0.75931 0.0
H2055 H 0.76838 0.54128 0.72895 0.0
H2056 H 0.76152 0.52502 0.73566 0.0
H2057 H 0.7624 0.49303 0.73498 0.0
H2058 H 0.76953 0.47737 0.72771 0.0
H2059 H 0.78032 0.46836 0.75788 0.0
H2060 H 0.77312 0.48397 0.76509 0.0
H2061 H 0.77129 0.509 0.74483 0.0
H2062 H 0.74544 0.48357 0.75292 0.0
H2063 H 0.73852 0.46743 0.75977 0.0
H2064 H 0.74979 0.47558 0.79001 0.0
H2065 H 0.75655 0.49179 0.7831 0.0
C2066 C 0.75094 0.52694 0.76823 0.0
C2067 C 0.75177 0.52872 0.77883 0.0
C2068 C 0.74757 0.53753 0.78316 0.0
C2069 C 0.74236 0.54472 0.77698 0.0
C2070 C 0.74151 0.54289 0.76635 0.0
C2071 C 0.74574 0.53409 0.76203 0.0
C2072 C 0.75532 0.5175 0.76369 0.0
C2073 C 0.75216 0.50791 0.76761 0.0
C2074 C 0.7623 0.51788 0.75536 0.0
C2075 C 0.76647 0.52775 0.75132 0.0
C2076 C 0.7716 0.53465 0.75789 0.0
C2077 C 0.77558 0.54392 0.75407 0.0
C2078 C 0.77454 0.54647 0.74359 0.0
C2079 C 0.76943 0.53951 0.73703 0.0
C2080 C 0.76547 0.53023 0.74086 0.0
C2081 C 0.76711 0.48963 0.7506 0.0
C2082 C 0.76633 0.48769 0.74002 0.0
C2083 C 0.77044 0.47874 0.73587 0.0
C2084 C 0.77547 0.47156 0.74221 0.0
C2085 C 0.77633 0.47361 0.7528 0.0
C2086 C 0.77224 0.48255 0.75693 0.0
C2087 C 0.76265 0.49909 0.75502 0.0
C2088 C 0.76579 0.50868 0.75107 0.0
C2089 C 0.75566 0.49872 0.76334 0.0
C2090 C 0.75157 0.48885 0.76749 0.0
C2091 C 0.74648 0.48184 0.76101 0.0
C2092 C 0.74256 0.4726 0.76494 0.0
C2093 C 0.74362 0.47018 0.77545 0.0
C2094 C 0.74872 0.47725 0.78192 0.0
C2095 C 0.75262 0.4865 0.77798 0.0
H2096 H 0.28302 0.52547 0.76337 0.0
H2097 H 0.28972 0.54132 0.77109 0.0
H2098 H 0.25913 0.54853 0.78159 0.0
H2099 H 0.25254 0.53258 0.77409 0.0
H2100 H 0.27392 0.50895 0.77229 0.0
H2101 H 0.26463 0.53377 0.74655 0.0
H2102 H 0.25707 0.54955 0.73976 0.0
H2103 H 0.22707 0.53933 0.75013 0.0
H2104 H 0.23472 0.52367 0.7571 0.0
H2105 H 0.23531 0.49232 0.75748 0.0
H2106 H 0.22805 0.47635 0.75059 0.0
H2107 H 0.25809 0.46813 0.73932 0.0
H2108 H 0.26526 0.48422 0.74604 0.0
H2109 H 0.24453 0.50836 0.74776 0.0
H2110 H 0.25383 0.4838 0.77387 0.0
H2111 H 0.2613 0.46794 0.78057 0.0
H2112 H 0.29121 0.47766 0.76949 0.0
H2113 H 0.28364 0.4934 0.7626 0.0
C2114 C 0.26726 0.52788 0.76807 0.0
C2115 C 0.27776 0.53047 0.76734 0.0
C2116 C 0.28157 0.53957 0.77169 0.0
C2117 C 0.27496 0.5462 0.77694 0.0
C2118 C 0.26444 0.54355 0.77768 0.0
C2119 C 0.26065 0.53448 0.77331 0.0
C2120 C 0.26324 0.51815 0.76358 0.0
C2121 C 0.2676 0.50883 0.7668 0.0
C2122 C 0.25484 0.51798 0.75659 0.0
C2123 C 0.25026 0.52757 0.75243 0.0
C2124 C 0.25644 0.53497 0.74743 0.0
C2125 C 0.25209 0.54395 0.74347 0.0
C2126 C 0.24147 0.54572 0.74441 0.0
C2127 C 0.2353 0.53827 0.74939 0.0
C2128 C 0.23964 0.52928 0.75331 0.0
C2129 C 0.25084 0.48943 0.75235 0.0
C2130 C 0.24033 0.48708 0.75351 0.0
C2131 C 0.23621 0.47792 0.74963 0.0
C2132 C 0.2425 0.47094 0.74444 0.0
C2133 C 0.25302 0.47336 0.74321 0.0
C2134 C 0.25714 0.48252 0.74713 0.0
C2135 C 0.25516 0.49918 0.75651 0.0
C2136 C 0.25087 0.50849 0.75322 0.0
C2137 C 0.26361 0.49934 0.76344 0.0
C2138 C 0.26815 0.48975 0.76763 0.0
C2139 C 0.26198 0.48248 0.77282 0.0
C2140 C 0.26628 0.47346 0.77673 0.0
C2141 C 0.27685 0.47151 0.77555 0.0
C2142 C 0.28302 0.47885 0.77041 0.0
C2143 C 0.27872 0.48789 0.76654 0.0
H2144 H 0.26215 0.52486 0.23523 0.0
H2145 H 0.26921 0.54104 0.22856 0.0
H2146 H 0.27999 0.54887 0.25906 0.0
H2147 H 0.27274 0.53276 0.26568 0.0
H2148 H 0.2719 0.50889 0.24476 0.0
H2149 H 0.24581 0.53338 0.25304 0.0
H2150 H 0.23854 0.54884 0.26058 0.0
H2151 H 0.24728 0.5381 0.29084 0.0
H2152 H 0.25463 0.52273 0.28325 0.0
H2153 H 0.25479 0.49235 0.28272 0.0
H2154 H 0.24731 0.47648 0.28959 0.0
H2155 H 0.23969 0.46675 0.25872 0.0
H2156 H 0.24669 0.48288 0.25196 0.0
H2157 H 0.24622 0.50758 0.27286 0.0
H2158 H 0.27316 0.48399 0.26516 0.0
H2159 H 0.28069 0.46838 0.25824 0.0
H2160 H 0.27113 0.4774 0.22767 0.0
H2161 H 0.26338 0.49288 0.23468 0.0
C2162 C 0.26685 0.52765 0.25096 0.0
C2163 C 0.26604 0.53008 0.24047 0.0
C2164 C 0.27011 0.53932 0.23667 0.0
C2165 C 0.27517 0.54628 0.24328 0.0
C2166 C 0.27599 0.54378 0.25379 0.0
C2167 C 0.27189 0.53456 0.25758 0.0
C2168 C 0.26255 0.51781 0.25495 0.0
C2169 C 0.26618 0.5086 0.25081 0.0
C2170 C 0.2553 0.51746 0.26304 0.0
C2171 C 0.25089 0.52692 0.26756 0.0
C2172 C 0.24628 0.53441 0.26128 0.0
C2173 C 0.24211 0.54324 0.26561 0.0
C2174 C 0.24233 0.54471 0.27631 0.0
C2175 C 0.24687 0.53716 0.28258 0.0
C2176 C 0.2511 0.52837 0.27825 0.0
C2177 C 0.2514 0.48879 0.26681 0.0
C2178 C 0.25148 0.48681 0.27743 0.0
C2179 C 0.24729 0.47767 0.28134 0.0
C2180 C 0.24292 0.4703 0.27472 0.0
C2181 C 0.24288 0.47229 0.26407 0.0
C2182 C 0.24701 0.48147 0.26017 0.0
C2183 C 0.25562 0.49865 0.26273 0.0
C2184 C 0.25196 0.50787 0.26682 0.0
C2185 C 0.26292 0.49901 0.25468 0.0
C2186 C 0.26761 0.48957 0.25046 0.0
C2187 C 0.27262 0.48257 0.25697 0.0
C2188 C 0.277 0.47369 0.25299 0.0
C2189 C 0.27651 0.47162 0.24239 0.0
C2190 C 0.27154 0.47868 0.23588 0.0
C2191 C 0.26718 0.48758 0.23986 0.0
H2192 H 0.73475 0.5234 0.25586 0.0
H2193 H 0.72713 0.53897 0.24877 0.0
H2194 H 0.75745 0.55007 0.24026 0.0
H2195 H 0.76494 0.53426 0.24691 0.0
H2196 H 0.7448 0.50846 0.24728 0.0
H2197 H 0.75283 0.53298 0.27367 0.0
H2198 H 0.75977 0.54873 0.28128 0.0
H2199 H 0.79017 0.54095 0.27063 0.0
H2200 H 0.78319 0.52515 0.26314 0.0
H2201 H 0.78369 0.49369 0.26277 0.0
H2202 H 0.79135 0.47811 0.26982 0.0
H2203 H 0.76143 0.46812 0.28067 0.0
H2204 H 0.7538 0.48369 0.27349 0.0
H2205 H 0.77382 0.509 0.27221 0.0
H2206 H 0.76551 0.48371 0.24667 0.0
H2207 H 0.75833 0.46762 0.24007 0.0
H2208 H 0.72787 0.47711 0.24902 0.0
H2209 H 0.73518 0.49293 0.25607 0.0
C2210 C 0.75044 0.52767 0.25204 0.0
C2211 C 0.73975 0.52917 0.25242 0.0
C2212 C 0.73541 0.53814 0.24845 0.0
C2213 C 0.74166 0.54584 0.24398 0.0
C2214 C 0.75237 0.54429 0.24355 0.0
C2215 C 0.7567 0.53528 0.24748 0.0
C2216 C 0.75499 0.51807 0.25624 0.0
C2217 C 0.75105 0.50858 0.25284 0.0
C2218 C 0.76332 0.51821 0.26333 0.0
C2219 C 0.76747 0.52791 0.26776 0.0
C2220 C 0.76097 0.53471 0.27289 0.0
C2221 C 0.76495 0.54374 0.27723 0.0
C2222 C 0.77554 0.54613 0.27657 0.0
C2223 C 0.78201 0.53929 0.27141 0.0
C2224 C 0.77803 0.53027 0.26709 0.0
C2225 C 0.76816 0.48983 0.26752 0.0
C2226 C 0.77878 0.48814 0.26668 0.0
C2227 C 0.78315 0.47924 0.27076 0.0
C2228 C 0.77702 0.47184 0.27584 0.0
C2229 C 0.76636 0.47356 0.27668 0.0
C2230 C 0.76199 0.48248 0.27259 0.0
C2231 C 0.76361 0.49939 0.26326 0.0
C2232 C 0.76756 0.50888 0.26665 0.0
C2233 C 0.75525 0.49923 0.25621 0.0
C2234 C 0.75091 0.48949 0.25202 0.0
C2235 C 0.7573 0.48227 0.24734 0.0
C2236 C 0.75316 0.47311 0.24344 0.0
C2237 C 0.74251 0.47103 0.24403 0.0
C2238 C 0.73612 0.47835 0.2486 0.0
C2239 C 0.74028 0.48747 0.25254 0.0
H2240 H 0.52506 0.25683 0.73457 0.0
H2241 H 0.54053 0.24949 0.72707 0.0
H2242 H 0.54939 0.23776 0.75694 0.0
H2243 H 0.53395 0.24522 0.7644 0.0
H2244 H 0.50903 0.24761 0.74414 0.0
H2245 H 0.53484 0.27307 0.75318 0.0
H2246 H 0.55103 0.27942 0.76066 0.0
H2247 H 0.54162 0.26785 0.7904 0.0
H2248 H 0.52556 0.26134 0.78284 0.0
H2249 H 0.49415 0.26273 0.78298 0.0
H2250 H 0.4785 0.26982 0.79039 0.0
H2251 H 0.46939 0.28101 0.76041 0.0
H2252 H 0.48518 0.27411 0.75309 0.0
H2253 H 0.51017 0.27177 0.77346 0.0
H2254 H 0.48412 0.24716 0.76497 0.0
H2255 H 0.46781 0.24081 0.75795 0.0
H2256 H 0.47769 0.24966 0.72743 0.0
H2257 H 0.49374 0.25652 0.7346 0.0
C2258 C 0.52837 0.25167 0.75007 0.0
C2259 C 0.53034 0.25267 0.7395 0.0
C2260 C 0.53917 0.24843 0.73522 0.0
C2261 C 0.54622 0.24302 0.74139 0.0
C2262 C 0.54423 0.24201 0.75198 0.0
C2263 C 0.53538 0.24627 0.75626 0.0
C2264 C 0.51887 0.25605 0.75453 0.0
C2265 C 0.50927 0.25302 0.75044 0.0
C2266 C 0.51917 0.26286 0.76297 0.0
C2267 C 0.52903 0.26666 0.76743 0.0
C2268 C 0.53631 0.27183 0.76129 0.0
C2269 C 0.54552 0.27552 0.76559 0.0
C2270 C 0.54762 0.27411 0.77612 0.0
C2271 C 0.5403 0.26893 0.78224 0.0
C2272 C 0.53109 0.26528 0.77795 0.0
C2273 C 0.49081 0.26781 0.76746 0.0
C2274 C 0.4888 0.26675 0.77801 0.0
C2275 C 0.47981 0.27073 0.78222 0.0
C2276 C 0.47266 0.27594 0.77599 0.0
C2277 C 0.47476 0.27711 0.76544 0.0
C2278 C 0.48375 0.27309 0.76123 0.0
C2279 C 0.50031 0.2634 0.76301 0.0
C2280 C 0.5099 0.26639 0.76712 0.0
C2281 C 0.49999 0.25651 0.75463 0.0
C2282 C 0.49011 0.25248 0.75034 0.0
C2283 C 0.48271 0.24788 0.75679 0.0
C2284 C 0.47343 0.24412 0.75273 0.0
C2285 C 0.47139 0.24473 0.74211 0.0
C2286 C 0.47889 0.24922 0.73566 0.0
C2287 C 0.48814 0.25306 0.73974 0.0
H2288 H 0.52366 0.73488 0.76364 0.0
H2289 H 0.53929 0.727 0.77047 0.0
H2290 H 0.54978 0.75658 0.78145 0.0
H2291 H 0.534 0.76437 0.77483 0.0
H2292 H 0.50839 0.7445 0.77321 0.0
H2293 H 0.53287 0.75303 0.74711 0.0
H2294 H 0.54887 0.7598 0.73979 0.0
H2295 H 0.54163 0.78995 0.7512 0.0
H2296 H 0.52556 0.78312 0.7584 0.0
H2297 H 0.49324 0.78364 0.75843 0.0
H2298 H 0.47751 0.79103 0.75127 0.0
H2299 H 0.46836 0.76118 0.73984 0.0
H2300 H 0.48404 0.75385 0.74712 0.0
H2301 H 0.50908 0.77416 0.74913 0.0
H2302 H 0.48389 0.765 0.7749 0.0
H2303 H 0.46778 0.75759 0.78145 0.0
H2304 H 0.47658 0.72787 0.7701 0.0
H2305 H 0.49255 0.73537 0.76337 0.0
C2306 C 0.52767 0.75023 0.76865 0.0
C2307 C 0.52932 0.73967 0.76754 0.0
C2308 C 0.5383 0.73519 0.77137 0.0
C2309 C 0.54581 0.74117 0.77648 0.0
C2310 C 0.54412 0.75174 0.77763 0.0
C2311 C 0.53514 0.75623 0.77377 0.0
C2312 C 0.51807 0.75493 0.76459 0.0
C2313 C 0.50854 0.75091 0.76785 0.0
C2314 C 0.51827 0.76343 0.75775 0.0
C2315 C 0.52806 0.76754 0.7534 0.0
C2316 C 0.53478 0.76108 0.74812 0.0
C2317 C 0.54394 0.76497 0.74395 0.0
C2318 C 0.54658 0.77543 0.74493 0.0
C2319 C 0.5398 0.78189 0.75019 0.0
C2320 C 0.53062 0.77799 0.75435 0.0
C2321 C 0.48978 0.76817 0.75343 0.0
C2322 C 0.48784 0.7787 0.75439 0.0
C2323 C 0.47885 0.78292 0.75025 0.0
C2324 C 0.47163 0.77671 0.74499 0.0
C2325 C 0.47364 0.76617 0.744 0.0
C2326 C 0.48262 0.76196 0.74814 0.0
C2327 C 0.49938 0.76372 0.75774 0.0
C2328 C 0.50893 0.76778 0.75453 0.0
C2329 C 0.49919 0.7552 0.76456 0.0
C2330 C 0.4894 0.75076 0.76856 0.0
C2331 C 0.48231 0.7569 0.77375 0.0
C2332 C 0.47314 0.75264 0.77757 0.0
C2333 C 0.47088 0.74214 0.77628 0.0
C2334 C 0.47802 0.736 0.7711 0.0
C2335 C 0.48719 0.74026 0.76733 0.0
H2336 H 0.52482 0.75703 0.23471 0.0
H2337 H 0.54029 0.74982 0.22708 0.0
H2338 H 0.54929 0.73782 0.25679 0.0
H2339 H 0.53384 0.74512 0.26438 0.0
H2340 H 0.50888 0.74779 0.24392 0.0
H2341 H 0.53449 0.77301 0.25382 0.0
H2342 H 0.55035 0.77975 0.26162 0.0
H2343 H 0.54096 0.76726 0.29102 0.0
H2344 H 0.52508 0.76068 0.28319 0.0
H2345 H 0.49372 0.76169 0.2832 0.0
H2346 H 0.47812 0.76869 0.29077 0.0
H2347 H 0.46897 0.78042 0.261 0.0
H2348 H 0.48475 0.77366 0.25354 0.0
H2349 H 0.50968 0.771 0.27401 0.0
H2350 H 0.48444 0.74555 0.26441 0.0
H2351 H 0.46823 0.73914 0.25705 0.0
H2352 H 0.477 0.75145 0.2274 0.0
H2353 H 0.49311 0.75802 0.23486 0.0
C2354 C 0.52819 0.75171 0.25014 0.0
C2355 C 0.53013 0.75285 0.23958 0.0
C2356 C 0.53896 0.74868 0.23522 0.0
C2357 C 0.54605 0.74322 0.24131 0.0
C2358 C 0.5441 0.74211 0.2519 0.0
C2359 C 0.53525 0.74627 0.25625 0.0
C2360 C 0.51863 0.75593 0.25466 0.0
C2361 C 0.50907 0.75298 0.25041 0.0
C2362 C 0.51883 0.76248 0.26331 0.0
C2363 C 0.52863 0.76629 0.26791 0.0
C2364 C 0.5359 0.77165 0.26192 0.0
C2365 C 0.54497 0.77548 0.26639 0.0
C2366 C 0.54692 0.77407 0.27696 0.0
C2367 C 0.53964 0.76864 0.2829 0.0
C2368 C 0.53057 0.76483 0.27844 0.0
C2369 C 0.49038 0.76706 0.26778 0.0
C2370 C 0.48837 0.76579 0.27831 0.0
C2371 C 0.47939 0.76973 0.28261 0.0
C2372 C 0.47225 0.77508 0.27649 0.0
C2373 C 0.47433 0.77641 0.26596 0.0
C2374 C 0.48331 0.77246 0.26166 0.0
C2375 C 0.49996 0.76287 0.26327 0.0
C2376 C 0.5095 0.76581 0.26752 0.0
C2377 C 0.49975 0.75628 0.25465 0.0
C2378 C 0.48993 0.75235 0.2502 0.0
C2379 C 0.48283 0.74694 0.25634 0.0
C2380 C 0.47361 0.7432 0.25211 0.0
C2381 C 0.47132 0.74481 0.24165 0.0
C2382 C 0.47848 0.75021 0.23551 0.0
C2383 C 0.48772 0.7539 0.23974 0.0
H2384 H 0.52301 0.23482 0.26421 0.0
H2385 H 0.53854 0.22687 0.27111 0.0
H2386 H 0.54933 0.25649 0.28176 0.0
H2387 H 0.5338 0.2644 0.27472 0.0
H2388 H 0.50792 0.24475 0.27358 0.0
H2389 H 0.53246 0.25264 0.24729 0.0
H2390 H 0.54853 0.2592 0.23988 0.0
H2391 H 0.5413 0.28965 0.25046 0.0
H2392 H 0.52535 0.28297 0.25808 0.0
H2393 H 0.49276 0.28355 0.25761 0.0
H2394 H 0.47721 0.29066 0.2497 0.0
H2395 H 0.46827 0.26034 0.23944 0.0
H2396 H 0.48393 0.25336 0.24711 0.0
H2397 H 0.50881 0.27387 0.24885 0.0
H2398 H 0.48346 0.26539 0.27462 0.0
H2399 H 0.46729 0.25818 0.28125 0.0
H2400 H 0.47608 0.22815 0.27073 0.0
H2401 H 0.49212 0.23544 0.26393 0.0
C2402 C 0.52725 0.25022 0.26888 0.0
C2403 C 0.52872 0.2396 0.26804 0.0
C2404 C 0.5376 0.23506 0.27203 0.0
C2405 C 0.5452 0.24102 0.27702 0.0
C2406 C 0.54372 0.25168 0.27784 0.0
C2407 C 0.53482 0.25621 0.27383 0.0
C2408 C 0.51769 0.25494 0.26476 0.0
C2409 C 0.50812 0.25105 0.26808 0.0
C2410 C 0.51794 0.26331 0.25776 0.0
C2411 C 0.52775 0.26729 0.25334 0.0
C2412 C 0.53439 0.26071 0.24811 0.0
C2413 C 0.54353 0.26449 0.24378 0.0
C2414 C 0.5462 0.27495 0.24457 0.0
C2415 C 0.53953 0.28153 0.24982 0.0
C2416 C 0.53038 0.27774 0.25412 0.0
C2417 C 0.48948 0.26791 0.25305 0.0
C2418 C 0.48745 0.27845 0.25366 0.0
C2419 C 0.47852 0.28248 0.24919 0.0
C2420 C 0.47148 0.27607 0.24394 0.0
C2421 C 0.47357 0.26551 0.24333 0.0
C2422 C 0.48247 0.26149 0.24781 0.0
C2423 C 0.49905 0.26364 0.25763 0.0
C2424 C 0.50862 0.26762 0.2544 0.0
C2425 C 0.49881 0.25529 0.26465 0.0
C2426 C 0.48897 0.25097 0.2687 0.0
C2427 C 0.48187 0.25727 0.27367 0.0
C2428 C 0.47266 0.25313 0.27754 0.0
C2429 C 0.47038 0.2426 0.2765 0.0
C2430 C 0.47754 0.23631 0.27154 0.0
C2431 C 0.48675 0.24045 0.26772 0.0
C2432 C 0.20434 0.20758 0.12674 0.0
C2433 C 0.20558 0.19694 0.128 0.0
C2434 C 0.20795 0.21262 0.1179 0.0
C2435 C 0.21598 0.20786 0.09099 0.0
H2436 H 0.22945 0.23445 0.09349 0.0
C2437 C 0.22849 0.23144 0.05533 0.0
C2438 C 0.23809 0.23656 0.05579 0.0
C2439 C 0.22421 0.22693 0.06413 0.0
C2440 C 0.22577 0.227 0.09266 0.0
H2441 H 0.21142 0.18323 0.12077 0.0
H2442 H 0.2179 0.19201 0.10552 0.0
H2443 H 0.22268 0.22587 0.10879 0.0
H2444 H 0.2506 0.24107 0.06598 0.0
H2445 H 0.24325 0.233 0.08127 0.0
H2446 H 0.21931 0.20883 0.07493 0.0
C2447 C 0.21404 0.19648 0.11131 0.0
C2448 C 0.22177 0.22213 0.10142 0.0
C2449 C 0.21044 0.19145 0.12014 0.0
C2450 C 0.24325 0.2371 0.06531 0.0
C2451 C 0.23897 0.23258 0.07412 0.0
C2452 C 0.21998 0.21271 0.08224 0.0
C2453 C 0.21287 0.20713 0.11008 0.0
C2454 C 0.21687 0.21247 0.10071 0.0
C2455 C 0.22941 0.22739 0.07364 0.0
C2456 C 0.22497 0.22233 0.08296 0.0
H2457 H 0.20071 0.21207 0.13267 0.0
H2458 H 0.20681 0.22081 0.11717 0.0
H2459 H 0.21215 0.20048 0.09012 0.0
H2460 H 0.22434 0.23077 0.04812 0.0
H2461 H 0.21678 0.22311 0.06349 0.0
C2462 C 0.7977 0.19703 0.12793 0.0
C2463 C 0.80794 0.19839 0.13127 0.0
C2464 C 0.79414 0.20195 0.11905 0.0
C2465 C 0.79941 0.22373 0.10158 0.0
H2466 H 0.7827 0.20803 0.08236 0.0
C2467 C 0.78811 0.23941 0.06139 0.0
C2468 C 0.77814 0.2371 0.05775 0.0
C2469 C 0.79181 0.23487 0.07043 0.0
C2470 C 0.78724 0.21258 0.0877 0.0
H2471 H 0.82248 0.20603 0.12784 0.0
H2472 H 0.81623 0.21469 0.11237 0.0
H2473 H 0.789 0.19986 0.09802 0.0
H2474 H 0.76414 0.22843 0.06088 0.0
H2475 H 0.77053 0.22059 0.07669 0.0
H2476 H 0.79758 0.23648 0.0913 0.0
C2477 C 0.81093 0.20987 0.1167 0.0
C2478 C 0.79087 0.20788 0.09667 0.0
C2479 C 0.81451 0.20491 0.12557 0.0
C2480 C 0.77191 0.23024 0.0634 0.0
C2481 C 0.77559 0.22573 0.07245 0.0
C2482 C 0.79574 0.22845 0.09262 0.0
C2483 C 0.80073 0.20838 0.1133 0.0
C2484 C 0.79697 0.2134 0.10373 0.0
C2485 C 0.78561 0.22794 0.07605 0.0
C2486 C 0.78959 0.22294 0.08558 0.0
H2487 H 0.79237 0.19224 0.13224 0.0
H2488 H 0.78619 0.20078 0.11673 0.0
H2489 H 0.804 0.22822 0.10693 0.0
H2490 H 0.79313 0.24457 0.05714 0.0
H2491 H 0.79961 0.23663 0.07289 0.0
C2492 C 0.80113 0.82156 0.12429 0.0
C2493 C 0.81119 0.81987 0.12796 0.0
C2494 C 0.79743 0.81649 0.11556 0.0
C2495 C 0.80158 0.79382 0.09921 0.0
H2496 H 0.78589 0.80933 0.07914 0.0
C2497 C 0.7895 0.77703 0.05968 0.0
C2498 C 0.7797 0.77958 0.05583 0.0
C2499 C 0.79343 0.78175 0.06854 0.0
C2500 C 0.79014 0.80484 0.08472 0.0
H2501 H 0.82522 0.81143 0.12525 0.0
H2502 H 0.81871 0.8025 0.11005 0.0
H2503 H 0.79257 0.81786 0.09443 0.0
H2504 H 0.76624 0.78887 0.05849 0.0
H2505 H 0.77303 0.79703 0.07395 0.0
H2506 H 0.79909 0.78078 0.08952 0.0
C2507 C 0.81367 0.80772 0.114 0.0
C2508 C 0.79398 0.80974 0.09349 0.0
C2509 C 0.8174 0.81284 0.12273 0.0
C2510 C 0.77388 0.78686 0.06114 0.0
C2511 C 0.77779 0.79155 0.07 0.0
C2512 C 0.7977 0.7889 0.09044 0.0
C2513 C 0.80366 0.80954 0.11027 0.0
C2514 C 0.79972 0.8043 0.10087 0.0
C2515 C 0.78765 0.78912 0.07379 0.0
C2516 C 0.79189 0.79434 0.0831 0.0
H2517 H 0.79605 0.82675 0.12823 0.0
H2518 H 0.78962 0.81792 0.11301 0.0
H2519 H 0.80587 0.78937 0.1048 0.0
H2520 H 0.79424 0.77155 0.05571 0.0
H2521 H 0.8011 0.77978 0.07114 0.0
C2522 C 0.21044 0.80938 0.12941 0.0
C2523 C 0.20656 0.81939 0.12875 0.0
C2524 C 0.21424 0.80449 0.12067 0.0
C2525 C 0.22442 0.81024 0.09467 0.0
H2526 H 0.21959 0.78121 0.09002 0.0
C2527 C 0.23485 0.7909 0.05639 0.0
C2528 C 0.23945 0.78118 0.05689 0.0
C2529 C 0.23074 0.79536 0.06519 0.0
C2530 C 0.22109 0.7893 0.09126 0.0
H2531 H 0.20328 0.83196 0.11829 0.0
H2532 H 0.20981 0.82344 0.10307 0.0
H2533 H 0.21246 0.7893 0.10525 0.0
H2534 H 0.24334 0.76857 0.06709 0.0
H2535 H 0.23613 0.77636 0.08245 0.0
H2536 H 0.23302 0.81025 0.08068 0.0
C2537 C 0.21015 0.81944 0.11038 0.0
C2538 C 0.21701 0.79394 0.1 0.0
C2539 C 0.20639 0.82432 0.11911 0.0
C2540 C 0.23974 0.77601 0.0664 0.0
C2541 C 0.23561 0.78047 0.07521 0.0
C2542 C 0.22848 0.8056 0.08594 0.0
C2543 C 0.21423 0.8095 0.11106 0.0
C2544 C 0.21859 0.80448 0.1018 0.0
C2545 C 0.2311 0.79022 0.07472 0.0
C2546 C 0.22684 0.79509 0.0841 0.0
H2547 H 0.21079 0.80541 0.13674 0.0
H2548 H 0.21743 0.79689 0.12151 0.0
H2549 H 0.22598 0.81832 0.0959 0.0
H2550 H 0.23431 0.79502 0.04916 0.0
H2551 H 0.22716 0.8028 0.0645 0.0
C2552 C 0.21139 0.81016 0.89059 0.0
C2553 C 0.20787 0.82031 0.89096 0.0
C2554 C 0.21513 0.80533 0.89946 0.0
C2555 C 0.22567 0.8111 0.92533 0.0
H2556 H 0.21985 0.78229 0.9306 0.0
C2557 C 0.23552 0.79162 0.96402 0.0
C2558 C 0.23995 0.78183 0.96365 0.0
C2559 C 0.23151 0.79618 0.95513 0.0
C2560 C 0.22162 0.79032 0.92918 0.0
H2561 H 0.2052 0.83323 0.901 0.0
H2562 H 0.2116 0.82477 0.91648 0.0
H2563 H 0.21287 0.79048 0.91519 0.0
H2564 H 0.24367 0.76919 0.95359 0.0
H2565 H 0.23659 0.77713 0.9381 0.0
H2566 H 0.23435 0.81095 0.93936 0.0
C2567 C 0.21171 0.82061 0.9093 0.0
C2568 C 0.21763 0.79502 0.92034 0.0
C2569 C 0.20802 0.82546 0.90043 0.0
C2570 C 0.24019 0.77668 0.95418 0.0
C2571 C 0.23614 0.78123 0.9453 0.0
C2572 C 0.22961 0.80642 0.93418 0.0
C2573 C 0.21539 0.81051 0.90891 0.0
C2574 C 0.2196 0.80547 0.91832 0.0
C2575 C 0.2318 0.79105 0.94567 0.0
C2576 C 0.22763 0.79598 0.93622 0.0
H2577 H 0.21149 0.80604 0.88339 0.0
H2578 H 0.21803 0.7976 0.89884 0.0
H2579 H 0.22751 0.81911 0.92393 0.0
H2580 H 0.23502 0.79573 0.97121 0.0
H2581 H 0.22806 0.80368 0.95571 0.0
C2582 C 0.20497 0.19826 0.89583 0.0
C2583 C 0.19773 0.20424 0.89048 0.0
C2584 C 0.21009 0.20215 0.90451 0.0
C2585 C 0.20773 0.22186 0.92466 0.0
H2586 H 0.23694 0.21748 0.92887 0.0
C2587 C 0.23039 0.24271 0.95671 0.0
C2588 C 0.23784 0.23713 0.96219 0.0
C2589 C 0.22574 0.23863 0.94789 0.0
C2590 C 0.22875 0.21867 0.92788 0.0
H2591 H 0.19049 0.21916 0.88991 0.0
H2592 H 0.19931 0.22588 0.90504 0.0
H2593 H 0.22839 0.2104 0.91368 0.0
H2594 H 0.24624 0.22285 0.96266 0.0
H2595 H 0.23808 0.21569 0.94731 0.0
H2596 H 0.20803 0.23005 0.93885 0.0
C2597 C 0.20091 0.21811 0.90263 0.0
C2598 C 0.22385 0.21461 0.91916 0.0
C2599 C 0.19584 0.21425 0.89396 0.0
C2600 C 0.24062 0.22741 0.95856 0.0
C2601 C 0.23594 0.2233 0.94975 0.0
C2602 C 0.21261 0.22588 0.93338 0.0
C2603 C 0.20806 0.2121 0.90805 0.0
C2604 C 0.21329 0.21621 0.91742 0.0
C2605 C 0.22839 0.22884 0.94433 0.0
C2606 C 0.2232 0.2244 0.93508 0.0
H2607 H 0.20655 0.19049 0.89345 0.0
H2608 H 0.21548 0.19728 0.90857 0.0
H2609 H 0.19954 0.22307 0.92365 0.0
H2610 H 0.2282 0.2503 0.95919 0.0
H2611 H 0.22012 0.24321 0.94381 0.0
C2612 C 0.81302 0.21715 0.89046 0.0
C2613 C 0.81775 0.2075 0.89049 0.0
C2614 C 0.80809 0.22075 0.89924 0.0
C2615 C 0.79703 0.21232 0.92423 0.0
H2616 H 0.80055 0.24104 0.93124 0.0
C2617 C 0.78478 0.22884 0.96352 0.0
C2618 C 0.78008 0.23851 0.96349 0.0
C2619 C 0.78908 0.22491 0.95454 0.0
C2620 C 0.79939 0.23302 0.92933 0.0
H2621 H 0.82098 0.19406 0.8998 0.0
H2622 H 0.81246 0.20037 0.91516 0.0
H2623 H 0.80855 0.23443 0.91577 0.0
H2624 H 0.77599 0.25151 0.95387 0.0
H2625 H 0.78353 0.24469 0.93824 0.0
H2626 H 0.78794 0.21091 0.93788 0.0
C2627 C 0.81241 0.20509 0.90829 0.0
C2628 C 0.80397 0.22923 0.92045 0.0
C2629 C 0.81731 0.20147 0.89948 0.0
C2630 C 0.77971 0.24412 0.95423 0.0
C2631 C 0.78402 0.2402 0.94525 0.0
C2632 C 0.79247 0.21611 0.93314 0.0
C2633 C 0.8078 0.21482 0.9083 0.0
C2634 C 0.80285 0.21883 0.91776 0.0
C2635 C 0.7888 0.23057 0.94531 0.0
C2636 C 0.79359 0.22651 0.9358 0.0
H2637 H 0.81306 0.22191 0.8836 0.0
H2638 H 0.80445 0.22818 0.89889 0.0
H2639 H 0.79588 0.2043 0.92233 0.0
H2640 H 0.78535 0.22437 0.97055 0.0
H2641 H 0.79281 0.21753 0.95488 0.0
C2642 C 0.8136 0.82368 0.89961 0.0
C2643 C 0.81319 0.81896 0.88992 0.0
C2644 C 0.80988 0.81858 0.90835 0.0
C2645 C 0.80261 0.79283 0.91856 0.0
H2646 H 0.78732 0.80871 0.93832 0.0
C2647 C 0.78992 0.77629 0.95808 0.0
C2648 C 0.7802 0.77912 0.96179 0.0
C2649 C 0.79398 0.78089 0.9492 0.0
C2650 C 0.79149 0.80413 0.93285 0.0
H2651 H 0.80861 0.80511 0.88186 0.0
H2652 H 0.80204 0.79623 0.8971 0.0
H2653 H 0.7943 0.81711 0.92308 0.0
H2654 H 0.76701 0.78879 0.95888 0.0
H2655 H 0.77404 0.79676 0.9434 0.0
H2656 H 0.79957 0.77979 0.92824 0.0
C2657 C 0.80538 0.80383 0.89797 0.0
C2658 C 0.79562 0.80898 0.92416 0.0
C2659 C 0.80914 0.80893 0.88922 0.0
C2660 C 0.77459 0.78656 0.95634 0.0
C2661 C 0.77864 0.79114 0.94746 0.0
C2662 C 0.79846 0.78796 0.92726 0.0
C2663 C 0.80561 0.80864 0.90763 0.0
C2664 C 0.80125 0.80341 0.9169 0.0
C2665 C 0.78842 0.78842 0.94381 0.0
C2666 C 0.79284 0.79355 0.93452 0.0
H2667 H 0.81685 0.83133 0.90046 0.0
H2668 H 0.81039 0.82244 0.91569 0.0
H2669 H 0.80698 0.7883 0.91319 0.0
H2670 H 0.7945 0.77068 0.96216 0.0
H2671 H 0.80159 0.77871 0.9467 0.0
C2672 C 0.12113 0.19944 0.20384 0.0
C2673 C 0.12791 0.20624 0.19875 0.0
C2674 C 0.11249 0.20313 0.20901 0.0
C2675 C 0.10157 0.22683 0.22014 0.0
H2676 H 0.07561 0.212 0.21768 0.0
C2677 C 0.06522 0.2388 0.24254 0.0
C2678 C 0.05575 0.23838 0.23724 0.0
C2679 C 0.0741 0.2346 0.23827 0.0
C2680 C 0.08278 0.21628 0.2184 0.0
H2681 H 0.13103 0.2223 0.19537 0.0
H2682 H 0.1159 0.22868 0.20415 0.0
H2683 H 0.09093 0.20535 0.20941 0.0
H2684 H 0.04821 0.233 0.22333 0.0
H2685 H 0.06369 0.22591 0.21578 0.0
H2686 H 0.09336 0.23792 0.22887 0.0
C2687 C 0.11729 0.2205 0.20424 0.0
C2688 C 0.09161 0.21239 0.21376 0.0
C2689 C 0.1259 0.21682 0.19908 0.0
C2690 C 0.05539 0.23359 0.22758 0.0
C2691 C 0.06425 0.22939 0.22331 0.0
C2692 C 0.09274 0.23073 0.22478 0.0
C2693 C 0.11044 0.2137 0.20924 0.0
C2694 C 0.10111 0.21765 0.21451 0.0
C2695 C 0.07373 0.22986 0.22858 0.0
C2696 C 0.08321 0.22554 0.22391 0.0
H2697 H 0.12238 0.19124 0.20368 0.0
H2698 H 0.10745 0.19768 0.21287 0.0
H2699 H 0.10877 0.23103 0.22099 0.0
H2700 H 0.06582 0.24251 0.24995 0.0
H2701 H 0.08123 0.23501 0.2426 0.0
C2702 C 0.8171 0.12057 0.20278 0.0
C2703 C 0.81767 0.12928 0.20909 0.0
C2704 C 0.81209 0.11162 0.20617 0.0
C2705 C 0.79288 0.10199 0.22478 0.0
H2706 H 0.80622 0.07586 0.22076 0.0
C2707 C 0.77862 0.06465 0.24455 0.0
C2708 C 0.77904 0.05547 0.23893 0.0
C2709 C 0.78303 0.0737 0.24067 0.0
C2710 C 0.80231 0.08307 0.22182 0.0
H2711 H 0.81322 0.1355 0.22382 0.0
H2712 H 0.80452 0.11987 0.22976 0.0
H2713 H 0.81437 0.09156 0.21434 0.0
H2714 H 0.78444 0.04867 0.22479 0.0
H2715 H 0.79185 0.0645 0.21789 0.0
H2716 H 0.78079 0.09352 0.23223 0.0
C2717 C 0.80792 0.11997 0.22218 0.0
C2718 C 0.80699 0.09207 0.21815 0.0
C2719 C 0.813 0.12889 0.21882 0.0
C2720 C 0.78387 0.05561 0.22928 0.0
C2721 C 0.78825 0.06467 0.22538 0.0
C2722 C 0.78816 0.09298 0.22841 0.0
C2723 C 0.80747 0.11121 0.21592 0.0
C2724 C 0.80235 0.10164 0.21962 0.0
C2725 C 0.78794 0.07382 0.23105 0.0
C2726 C 0.79284 0.08341 0.22701 0.0
H2727 H 0.8207 0.1206 0.19528 0.0
H2728 H 0.81179 0.10504 0.20113 0.0
H2729 H 0.78904 0.10923 0.22592 0.0
H2730 H 0.77485 0.06485 0.25195 0.0
H2731 H 0.78273 0.08057 0.24529 0.0
C2732 C 0.89815 0.80799 0.19367 0.0
C2733 C 0.89009 0.81266 0.19903 0.0
C2734 C 0.90695 0.80463 0.19886 0.0
C2735 C 0.91645 0.79723 0.22472 0.0
H2736 H 0.94325 0.80018 0.21192 0.0
C2737 C 0.95255 0.77639 0.24017 0.0
C2738 C 0.96207 0.78166 0.23984 0.0
C2739 C 0.94378 0.78055 0.23553 0.0
C2740 C 0.93585 0.79938 0.21567 0.0
H2741 H 0.88502 0.81747 0.2141 0.0
H2742 H 0.90049 0.81179 0.22313 0.0
H2743 H 0.92809 0.80701 0.2033 0.0
H2744 H 0.96976 0.7955 0.23435 0.0
H2745 H 0.95443 0.80285 0.22649 0.0
H2746 H 0.92425 0.78974 0.23716 0.0
C2747 C 0.89993 0.81061 0.21491 0.0
C2748 C 0.92712 0.80318 0.21065 0.0
C2749 C 0.89111 0.81398 0.20971 0.0
C2750 C 0.96255 0.79126 0.23485 0.0
C2751 C 0.95377 0.79543 0.23022 0.0
C2752 C 0.92519 0.79342 0.22974 0.0
C2753 C 0.90796 0.80586 0.20956 0.0
C2754 C 0.9173 0.8021 0.21508 0.0
C2755 C 0.94428 0.7901 0.23045 0.0
C2756 C 0.935 0.7944 0.22525 0.0
H2757 H 0.8977 0.80697 0.18543 0.0
H2758 H 0.91291 0.80091 0.19449 0.0
H2759 H 0.90901 0.79617 0.22832 0.0
H2760 H 0.95186 0.76904 0.24404 0.0
H2761 H 0.93663 0.77618 0.23578 0.0
C2762 C 0.19361 0.89908 0.20608 0.0
C2763 C 0.19854 0.88953 0.2063 0.0
C2764 C 0.19862 0.90788 0.20977 0.0
C2765 C 0.22441 0.91859 0.21659 0.0
H2766 H 0.20835 0.93777 0.23239 0.0
C2767 C 0.24055 0.95819 0.22947 0.0
C2768 C 0.23774 0.96171 0.23926 0.0
C2769 C 0.23604 0.94929 0.22539 0.0
C2770 C 0.21299 0.93246 0.22808 0.0
H2771 H 0.21264 0.88177 0.21052 0.0
H2772 H 0.22136 0.89711 0.21704 0.0
H2773 H 0.20007 0.92247 0.22542 0.0
H2774 H 0.22824 0.95841 0.25256 0.0
H2775 H 0.22043 0.94287 0.24549 0.0
H2776 H 0.23738 0.92848 0.21949 0.0
C2777 C 0.21367 0.89784 0.21387 0.0
C2778 C 0.20819 0.92374 0.22395 0.0
C2779 C 0.20867 0.88903 0.21014 0.0
C2780 C 0.23044 0.95601 0.24492 0.0
C2781 C 0.22595 0.94711 0.24086 0.0
C2782 C 0.22921 0.92732 0.22074 0.0
C2783 C 0.20868 0.90737 0.21381 0.0
C2784 C 0.21383 0.91669 0.21814 0.0
C2785 C 0.22862 0.94367 0.231 0.0
C2786 C 0.22356 0.93436 0.22656 0.0
H2787 H 0.18588 0.89976 0.20301 0.0
H2788 H 0.19462 0.91512 0.20941 0.0
H2789 H 0.22897 0.91338 0.21209 0.0
H2790 H 0.24607 0.96246 0.22486 0.0
H2791 H 0.23819 0.94695 0.21773 0.0
C2792 C 0.11987 0.80931 0.82611 0.0
C2793 C 0.12947 0.80931 0.82116 0.0
C2794 C 0.11101 0.80577 0.82104 0.0
C2795 C 0.10034 0.80001 0.79517 0.0
H2796 H 0.08058 0.78373 0.81071 0.0
C2797 C 0.06607 0.77814 0.77621 0.0
C2798 C 0.05654 0.77853 0.78129 0.0
C2799 C 0.07502 0.78206 0.78087 0.0
C2800 C 0.08597 0.78835 0.80628 0.0
H2801 H 0.1373 0.80557 0.80701 0.0
H2802 H 0.12185 0.79927 0.79819 0.0
H2803 H 0.09607 0.79025 0.81918 0.0
H2804 H 0.04893 0.78365 0.79513 0.0
H2805 H 0.06452 0.79039 0.80326 0.0
H2806 H 0.09023 0.798 0.78224 0.0
C2807 C 0.12113 0.80218 0.80593 0.0
C2808 C 0.09485 0.79211 0.81114 0.0
C2809 C 0.12999 0.80577 0.81099 0.0
C2810 C 0.05616 0.78303 0.79108 0.0
C2811 C 0.0651 0.78691 0.79574 0.0
C2812 C 0.09146 0.79621 0.79029 0.0
C2813 C 0.11154 0.80208 0.81092 0.0
C2814 C 0.10213 0.79803 0.80567 0.0
C2815 C 0.07464 0.78643 0.79071 0.0
C2816 C 0.08415 0.79038 0.79581 0.0
H2817 H 0.11918 0.81216 0.83388 0.0
H2818 H 0.10372 0.80601 0.82505 0.0
H2819 H 0.10571 0.80465 0.79075 0.0
H2820 H 0.06667 0.77462 0.76872 0.0
H2821 H 0.08227 0.78148 0.77684 0.0
C2822 C 0.20879 0.126 0.81024 0.0
C2823 C 0.20481 0.12514 0.82025 0.0
C2824 C 0.21247 0.11736 0.80514 0.0
C2825 C 0.21117 0.08894 0.80519 0.0
H2826 H 0.23707 0.09112 0.79058 0.0
C2827 C 0.23282 0.05321 0.79115 0.0
C2828 C 0.23781 0.05376 0.78158 0.0
C2829 C 0.22855 0.06196 0.79551 0.0
C2830 C 0.22976 0.0904 0.7945 0.0
H2831 H 0.20134 0.11446 0.83262 0.0
H2832 H 0.20783 0.09942 0.82379 0.0
H2833 H 0.22994 0.10627 0.79869 0.0
H2834 H 0.24223 0.06404 0.76914 0.0
H2835 H 0.23457 0.07925 0.77664 0.0
H2836 H 0.21097 0.07308 0.80101 0.0
C2837 C 0.20808 0.10676 0.81985 0.0
C2838 C 0.22567 0.0991 0.79916 0.0
C2839 C 0.20445 0.11541 0.82496 0.0
C2840 C 0.23836 0.0633 0.77647 0.0
C2841 C 0.23407 0.07206 0.78084 0.0
C2842 C 0.21524 0.08025 0.8005 0.0
C2843 C 0.2122 0.10764 0.8099 0.0
C2844 C 0.21636 0.09846 0.80462 0.0
C2845 C 0.22911 0.07151 0.79043 0.0
C2846 C 0.22462 0.08084 0.79515 0.0
H2847 H 0.20925 0.13339 0.80641 0.0
H2848 H 0.21551 0.11828 0.79744 0.0
H2849 H 0.2039 0.08822 0.8092 0.0
H2850 H 0.23213 0.04598 0.79525 0.0
H2851 H 0.22491 0.06126 0.80296 0.0
C2852 C 0.89693 0.20013 0.81851 0.0
C2853 C 0.88785 0.19988 0.81256 0.0
C2854 C 0.9058 0.20511 0.81485 0.0
C2855 C 0.91791 0.21419 0.79065 0.0
H2856 H 0.9361 0.2292 0.80907 0.0
C2857 C 0.95826 0.22824 0.77802 0.0
C2858 C 0.96166 0.23794 0.78139 0.0
C2859 C 0.94921 0.22381 0.78192 0.0
C2860 C 0.93106 0.22512 0.8038 0.0
H2861 H 0.88089 0.20499 0.79827 0.0
H2862 H 0.8963 0.21377 0.79194 0.0
H2863 H 0.92027 0.22145 0.8157 0.0
H2864 H 0.95814 0.25064 0.79144 0.0
H2865 H 0.94231 0.24295 0.79818 0.0
H2866 H 0.92857 0.21803 0.77871 0.0
C2867 C 0.89665 0.20991 0.79933 0.0
C2868 C 0.92204 0.22056 0.80763 0.0
C2869 C 0.8878 0.20489 0.80296 0.0
C2870 C 0.9558 0.2431 0.78877 0.0
C2871 C 0.94673 0.23868 0.79265 0.0
C2872 C 0.92691 0.21876 0.78682 0.0
C2873 C 0.9058 0.21001 0.80518 0.0
C2874 C 0.91535 0.21501 0.80111 0.0
C2875 C 0.94331 0.22897 0.78926 0.0
C2876 C 0.93364 0.22425 0.79335 0.0
H2877 H 0.89725 0.19624 0.82588 0.0
H2878 H 0.91274 0.2049 0.81951 0.0
H2879 H 0.91302 0.20988 0.78542 0.0
H2880 H 0.96268 0.22399 0.77247 0.0
H2881 H 0.94693 0.21625 0.77927 0.0
C2882 C 0.82476 0.89997 0.81255 0.0
C2883 C 0.82001 0.89023 0.81212 0.0
C2884 C 0.81962 0.90869 0.80903 0.0
C2885 C 0.79869 0.91677 0.79161 0.0
H2886 H 0.80081 0.94238 0.80654 0.0
C2887 C 0.77602 0.9529 0.7793 0.0
C2888 C 0.78119 0.96243 0.77996 0.0
C2889 C 0.78038 0.94403 0.78349 0.0
C2890 C 0.80022 0.93533 0.8022 0.0
H2891 H 0.80607 0.88204 0.80765 0.0
H2892 H 0.79704 0.89729 0.80156 0.0
H2893 H 0.80902 0.92707 0.81343 0.0
H2894 H 0.79499 0.97005 0.78571 0.0
H2895 H 0.8027 0.95458 0.79276 0.0
H2896 H 0.79001 0.92504 0.78032 0.0
C2897 C 0.80479 0.89816 0.80458 0.0
C2898 C 0.80493 0.92654 0.80617 0.0
C2899 C 0.80992 0.88944 0.80816 0.0
C2900 C 0.79083 0.96284 0.78494 0.0
C2901 C 0.7952 0.95397 0.78911 0.0
C2902 C 0.79401 0.92557 0.78762 0.0
C2903 C 0.80959 0.90789 0.80493 0.0
C2904 C 0.80427 0.91716 0.80089 0.0
C2905 C 0.79004 0.94444 0.78845 0.0
C2906 C 0.79477 0.93499 0.79283 0.0
H2907 H 0.83248 0.90087 0.81565 0.0
H2908 H 0.82358 0.91605 0.80933 0.0
H2909 H 0.79815 0.90971 0.78727 0.0
H2910 H 0.76863 0.95227 0.77544 0.0
H2911 H 0.77614 0.93685 0.78292 0.0
C2912 C 0.20377 0.12215 0.20156 0.0
C2913 C 0.19649 0.12728 0.20758 0.0
C2914 C 0.20879 0.11345 0.20538 0.0
C2915 C 0.20615 0.09284 0.22485 0.0
H2916 H 0.23542 0.08923 0.22058 0.0
C2917 C 0.2286 0.06063 0.24535 0.0
C2918 C 0.23619 0.05551 0.23975 0.0
C2919 C 0.22395 0.06944 0.24137 0.0
C2920 C 0.22722 0.09004 0.22173 0.0
H2921 H 0.18905 0.12741 0.22249 0.0
H2922 H 0.19771 0.11224 0.22907 0.0
H2923 H 0.22697 0.10443 0.21365 0.0
H2924 H 0.24479 0.05562 0.22551 0.0
H2925 H 0.23663 0.07093 0.21851 0.0
H2926 H 0.20635 0.07846 0.23285 0.0
C2927 C 0.19942 0.11484 0.22133 0.0
C2928 C 0.22237 0.09877 0.21777 0.0
C2929 C 0.19444 0.12354 0.21754 0.0
C2930 C 0.23907 0.05946 0.23009 0.0
C2931 C 0.23439 0.06825 0.22607 0.0
C2932 C 0.21098 0.08411 0.22878 0.0
C2933 C 0.20663 0.10966 0.21529 0.0
C2934 C 0.21179 0.1003 0.21933 0.0
C2935 C 0.22673 0.07334 0.23164 0.0
C2936 C 0.22159 0.08261 0.22732 0.0
H2937 H 0.20545 0.12472 0.19381 0.0
H2938 H 0.21422 0.10958 0.20048 0.0
H2939 H 0.19795 0.09369 0.22604 0.0
H2940 H 0.22632 0.0579 0.2529 0.0
H2941 H 0.21823 0.07326 0.24597 0.0
C2942 C 0.20918 0.8895 0.81309 0.0
C2943 C 0.19902 0.88713 0.81001 0.0
C2944 C 0.21418 0.89834 0.80939 0.0
C2945 C 0.21359 0.91701 0.788 0.0
H2946 H 0.22935 0.93445 0.80649 0.0
C2947 C 0.22818 0.95713 0.77572 0.0
C2948 C 0.23801 0.96032 0.77906 0.0
C2949 C 0.22369 0.9481 0.77953 0.0
C2950 C 0.2251 0.92959 0.80119 0.0
H2951 H 0.1861 0.89238 0.80081 0.0
H2952 H 0.19487 0.90769 0.79429 0.0
H2953 H 0.22109 0.91884 0.81309 0.0
H2954 H 0.2509 0.95644 0.78895 0.0
H2955 H 0.2431 0.94059 0.79555 0.0
H2956 H 0.21762 0.92768 0.7761 0.0
C2957 C 0.19901 0.90264 0.79945 0.0
C2958 C 0.22035 0.92066 0.80498 0.0
C2959 C 0.19399 0.89384 0.80318 0.0
C2960 C 0.24326 0.95425 0.78631 0.0
C2961 C 0.23878 0.94518 0.7901 0.0
C2962 C 0.21837 0.9259 0.78421 0.0
C2963 C 0.20917 0.90497 0.80249 0.0
C2964 C 0.21448 0.91431 0.79844 0.0
C2965 C 0.22894 0.94199 0.78675 0.0
C2966 C 0.22412 0.93235 0.79077 0.0
H2967 H 0.21334 0.88444 0.81823 0.0
H2968 H 0.22205 0.89987 0.81179 0.0
H2969 H 0.20927 0.91218 0.78273 0.0
H2970 H 0.22386 0.96173 0.77027 0.0
H2971 H 0.21602 0.94599 0.77692 0.0
C2972 C 0.12048 0.19113 0.80525 0.0
C2973 C 0.12745 0.19593 0.81206 0.0
C2974 C 0.11165 0.19619 0.80184 0.0
C2975 C 0.10041 0.2221 0.79901 0.0
H2976 H 0.07489 0.20671 0.79554 0.0
C2977 C 0.06158 0.24147 0.78894 0.0
C2978 C 0.05535 0.23656 0.78153 0.0
C2979 C 0.07035 0.23666 0.7929 0.0
C2980 C 0.08198 0.2111 0.79638 0.0
H2981 H 0.13053 0.20991 0.82058 0.0
H2982 H 0.115 0.21864 0.81482 0.0
H2983 H 0.09013 0.19809 0.80213 0.0
H2984 H 0.0534 0.22267 0.7726 0.0
H2985 H 0.06872 0.21433 0.77942 0.0
H2986 H 0.0922 0.23513 0.79328 0.0
C2987 C 0.11645 0.21099 0.81201 0.0
C2988 C 0.09074 0.20615 0.80015 0.0
C2989 C 0.1253 0.20593 0.81541 0.0
C2990 C 0.05808 0.22671 0.77821 0.0
C2991 C 0.06681 0.22188 0.78221 0.0
C2992 C 0.09163 0.22706 0.79527 0.0
C2993 C 0.10951 0.20619 0.80517 0.0
C2994 C 0.1001 0.21156 0.80145 0.0
C2995 C 0.07305 0.22679 0.7896 0.0
C2996 C 0.08233 0.2216 0.79384 0.0
H2997 H 0.12179 0.18339 0.80261 0.0
H2998 H 0.10657 0.19228 0.79647 0.0
H2999 H 0.10751 0.22649 0.79977 0.0
H3000 H 0.05974 0.24909 0.7916 0.0
H3001 H 0.07494 0.24062 0.79864 0.0
C3002 C 0.80271 0.12158 0.82654 0.0
C3003 C 0.80947 0.12851 0.82159 0.0
C3004 C 0.79909 0.11279 0.8215 0.0
C3005 C 0.80472 0.09528 0.80011 0.0
H3006 H 0.77586 0.08773 0.80272 0.0
C3007 C 0.78607 0.06215 0.77668 0.0
C3008 C 0.77882 0.05584 0.78174 0.0
C3009 C 0.78987 0.0711 0.78134 0.0
C3010 C 0.78396 0.08964 0.802 0.0
H3011 H 0.81772 0.13155 0.80741 0.0
H3012 H 0.81146 0.11614 0.79866 0.0
H3013 H 0.78243 0.10308 0.81123 0.0
H3014 H 0.77006 0.05388 0.79578 0.0
H3015 H 0.77672 0.06939 0.80393 0.0
H3016 H 0.80627 0.08178 0.79096 0.0
C3017 C 0.80903 0.1175 0.80648 0.0
C3018 C 0.78773 0.09846 0.80688 0.0
C3019 C 0.81262 0.12633 0.81151 0.0
C3020 C 0.7755 0.05866 0.79159 0.0
C3021 C 0.77932 0.06757 0.79626 0.0
C3022 C 0.80096 0.08642 0.79526 0.0
C3023 C 0.80216 0.11066 0.8114 0.0
C3024 C 0.79816 0.10137 0.80603 0.0
C3025 C 0.78653 0.07393 0.79119 0.0
C3026 C 0.79053 0.08346 0.79618 0.0
H3027 H 0.80028 0.12288 0.83437 0.0
H3028 H 0.79396 0.10759 0.82558 0.0
H3029 H 0.81282 0.09723 0.7994 0.0
H3030 H 0.78869 0.06027 0.76904 0.0
H3031 H 0.7953 0.07588 0.77714 0.0
C3032 C 0.90092 0.81316 0.82411 0.0
C3033 C 0.8912 0.81267 0.8193 0.0
C3034 C 0.90966 0.80946 0.81917 0.0
C3035 C 0.91987 0.80214 0.79364 0.0
H3036 H 0.93958 0.78696 0.81008 0.0
C3037 C 0.95354 0.77948 0.77576 0.0
C3038 C 0.96313 0.77999 0.78084 0.0
C3039 C 0.94474 0.78364 0.78023 0.0
C3040 C 0.93422 0.79128 0.80539 0.0
H3041 H 0.88309 0.80797 0.80547 0.0
H3042 H 0.89834 0.80146 0.79686 0.0
H3043 H 0.92435 0.79396 0.81819 0.0
H3044 H 0.97098 0.78554 0.79452 0.0
H3045 H 0.95566 0.79273 0.80231 0.0
H3046 H 0.92976 0.79938 0.78082 0.0
C3047 C 0.89923 0.80484 0.80441 0.0
C3048 C 0.92548 0.79531 0.81005 0.0
C3049 C 0.89048 0.80856 0.80934 0.0
C3050 C 0.9637 0.78483 0.79047 0.0
C3051 C 0.95491 0.78897 0.79494 0.0
C3052 C 0.92862 0.79808 0.78897 0.0
C3053 C 0.90892 0.80515 0.8093 0.0
C3054 C 0.9182 0.80083 0.80425 0.0
C3055 C 0.9453 0.78839 0.7899 0.0
C3056 C 0.93592 0.79263 0.7948 0.0
H3057 H 0.90179 0.81644 0.8317 0.0
H3058 H 0.91703 0.81004 0.82309 0.0
H3059 H 0.91451 0.80645 0.78896 0.0
H3060 H 0.95279 0.7757 0.7684 0.0
H3061 H 0.93745 0.78294 0.77619 0.0
C3062 C 0.81342 0.88889 0.21635 0.0
C3063 C 0.81854 0.88908 0.20685 0.0
C3064 C 0.80847 0.89762 0.21998 0.0
C3065 C 0.79816 0.92288 0.21175 0.0
H3066 H 0.80059 0.92911 0.24078 0.0
C3067 C 0.77566 0.95593 0.23068 0.0
C3068 C 0.78082 0.96175 0.23823 0.0
C3069 C 0.78008 0.94704 0.22673 0.0
C3070 C 0.79989 0.92754 0.23264 0.0
H3071 H 0.82242 0.89862 0.19369 0.0
H3072 H 0.81385 0.91388 0.20005 0.0
H3073 H 0.80864 0.91379 0.23405 0.0
H3074 H 0.79481 0.96288 0.24736 0.0
H3075 H 0.80254 0.94745 0.24045 0.0
H3076 H 0.78963 0.93679 0.21031 0.0
C3077 C 0.81352 0.90693 0.20463 0.0
C3078 C 0.8044 0.91866 0.22879 0.0
C3079 C 0.81845 0.89817 0.20099 0.0
C3080 C 0.79054 0.95849 0.24168 0.0
C3081 C 0.79497 0.94963 0.23772 0.0
C3082 C 0.79365 0.93177 0.2156 0.0
C3083 C 0.80854 0.90679 0.21422 0.0
C3084 C 0.80361 0.91621 0.2183 0.0
C3085 C 0.78979 0.94376 0.23021 0.0
C3086 C 0.79448 0.93423 0.22609 0.0
H3087 H 0.8132 0.88195 0.22098 0.0
H3088 H 0.80454 0.89715 0.22729 0.0
H3089 H 0.79729 0.92119 0.20365 0.0
H3090 H 0.76811 0.95815 0.22794 0.0
H3091 H 0.7758 0.94264 0.22107 0.0
C3092 C 0.12072 0.81576 0.2015 0.0
C3093 C 0.12957 0.80966 0.20099 0.0
C3094 C 0.11189 0.81221 0.20659 0.0
C3095 C 0.0992 0.78819 0.21566 0.0
H3096 H 0.08252 0.80673 0.23157 0.0
C3097 C 0.06516 0.77381 0.24058 0.0
C3098 C 0.05605 0.77955 0.24019 0.0
C3099 C 0.07423 0.77758 0.2361 0.0
C3100 C 0.08704 0.80148 0.22708 0.0
H3101 H 0.13616 0.79516 0.20572 0.0
H3102 H 0.12082 0.789 0.21469 0.0
H3103 H 0.09817 0.81314 0.22331 0.0
H3104 H 0.04939 0.79378 0.23471 0.0
H3105 H 0.06522 0.80037 0.22696 0.0
H3106 H 0.08807 0.77653 0.21945 0.0
C3107 C 0.12061 0.79645 0.21096 0.0
C3108 C 0.09602 0.80515 0.22233 0.0
C3109 C 0.12942 0.79999 0.20583 0.0
C3110 C 0.05629 0.78921 0.23529 0.0
C3111 C 0.06537 0.79299 0.23084 0.0
C3112 C 0.09024 0.78451 0.22043 0.0
C3113 C 0.1117 0.80248 0.21134 0.0
C3114 C 0.10221 0.79856 0.21654 0.0
C3115 C 0.07444 0.7872 0.23114 0.0
C3116 C 0.08404 0.79111 0.22618 0.0
H3117 H 0.12053 0.8232 0.19774 0.0
H3118 H 0.10513 0.817 0.2066 0.0
H3119 H 0.10365 0.78293 0.21111 0.0
H3120 H 0.06532 0.76643 0.24444 0.0
H3121 H 0.08112 0.77299 0.23661 0.0
C3122 C 0.88703 0.21598 0.20789 0.0
C3123 C 0.88746 0.20861 0.20006 0.0
C3124 C 0.89608 0.21961 0.21258 0.0
C3125 C 0.92372 0.22307 0.20801 0.0
H3126 H 0.92584 0.22521 0.23767 0.0
C3127 C 0.96217 0.23352 0.22795 0.0
C3128 C 0.96185 0.23982 0.23667 0.0
C3129 C 0.95307 0.22957 0.22365 0.0
C3130 C 0.92534 0.22481 0.22937 0.0
H3131 H 0.89768 0.1993 0.19097 0.0
H3132 H 0.91348 0.20568 0.19913 0.0
H3133 H 0.90995 0.21868 0.22987 0.0
H3134 H 0.95179 0.247 0.24767 0.0
H3135 H 0.93588 0.24033 0.24003 0.0
H3136 H 0.93897 0.22939 0.20742 0.0
C3137 C 0.90615 0.20864 0.20164 0.0
C3138 C 0.91624 0.22103 0.22492 0.0
C3139 C 0.89711 0.20492 0.19703 0.0
C3140 C 0.95226 0.24208 0.24101 0.0
C3141 C 0.94315 0.23822 0.23664 0.0
C3142 C 0.93278 0.22695 0.21245 0.0
C3143 C 0.90573 0.21603 0.20944 0.0
C3144 C 0.91535 0.22008 0.2142 0.0
C3145 C 0.94343 0.23191 0.2279 0.0
C3146 C 0.93373 0.22784 0.22319 0.0
H3147 H 0.8797 0.2189 0.21042 0.0
H3148 H 0.89553 0.22535 0.21853 0.0
H3149 H 0.9232 0.22257 0.19972 0.0
H3150 H 0.96947 0.23153 0.22453 0.0
H3151 H 0.95363 0.22458 0.21706 0.0
C3152 C 0.20312 0.7065 0.62586 0.0
C3153 C 0.20654 0.69667 0.62867 0.0
C3154 C 0.20677 0.71134 0.61693 0.0
C3155 C 0.2196 0.7059 0.59209 0.0
H3156 H 0.22612 0.73501 0.59235 0.0
C3157 C 0.24234 0.72571 0.55934 0.0
C3158 C 0.23896 0.73538 0.55596 0.0
C3159 C 0.23816 0.72113 0.56816 0.0
C3160 C 0.22423 0.7269 0.59212 0.0
H3161 H 0.21638 0.68415 0.6241 0.0
H3162 H 0.22292 0.69266 0.60875 0.0
H3163 H 0.21917 0.72677 0.60776 0.0
H3164 H 0.22864 0.74788 0.55933 0.0
H3165 H 0.22129 0.73983 0.57468 0.0
H3166 H 0.22475 0.70601 0.57648 0.0
C3167 C 0.21732 0.69661 0.61337 0.0
C3168 C 0.22023 0.72217 0.60095 0.0
C3169 C 0.21367 0.69178 0.62228 0.0
C3170 C 0.23135 0.74038 0.56167 0.0
C3171 C 0.22721 0.73582 0.57052 0.0
C3172 C 0.22363 0.71061 0.58328 0.0
C3173 C 0.21393 0.70646 0.61057 0.0
C3174 C 0.21791 0.71159 0.60108 0.0
C3175 C 0.23053 0.72611 0.57385 0.0
C3176 C 0.22605 0.72116 0.58319 0.0
H3177 H 0.19771 0.71054 0.63064 0.0
H3178 H 0.2039 0.71887 0.61496 0.0
H3179 H 0.21772 0.69778 0.59182 0.0
H3180 H 0.24811 0.7216 0.55508 0.0
H3181 H 0.24098 0.7137 0.57057 0.0
C3182 C 0.81525 0.7046 0.62505 0.0
C3183 C 0.80874 0.69803 0.63076 0.0
C3184 C 0.81161 0.70962 0.61625 0.0
C3185 C 0.79139 0.70781 0.59637 0.0
H3186 H 0.79798 0.73649 0.59128 0.0
C3187 C 0.77216 0.73042 0.56345 0.0
C3188 C 0.77833 0.73734 0.55781 0.0
C3189 C 0.77589 0.72587 0.57245 0.0
C3190 C 0.79617 0.72845 0.59252 0.0
H3191 H 0.79317 0.69185 0.63179 0.0
H3192 H 0.78688 0.7005 0.61639 0.0
H3193 H 0.80454 0.72807 0.60676 0.0
H3194 H 0.79329 0.74489 0.5572 0.0
H3195 H 0.79987 0.73687 0.57286 0.0
H3196 H 0.78311 0.70811 0.58212 0.0
C3197 C 0.79485 0.70166 0.61866 0.0
C3198 C 0.79992 0.72363 0.6014 0.0
C3199 C 0.79847 0.69668 0.62748 0.0
C3200 C 0.7883 0.73968 0.56144 0.0
C3201 C 0.79206 0.73509 0.57043 0.0
C3202 C 0.78768 0.7126 0.58748 0.0
C3203 C 0.80138 0.70815 0.61292 0.0
C3204 C 0.79753 0.71327 0.60344 0.0
C3205 C 0.78592 0.72808 0.57602 0.0
C3206 C 0.78998 0.72299 0.58546 0.0
H3207 H 0.82324 0.70571 0.62727 0.0
H3208 H 0.81686 0.71449 0.61192 0.0
H3209 H 0.78955 0.69977 0.59764 0.0
H3210 H 0.76438 0.72859 0.56094 0.0
H3211 H 0.77087 0.72067 0.57667 0.0
C3212 C 0.80552 0.30868 0.62942 0.0
C3213 C 0.81188 0.31745 0.62863 0.0
C3214 C 0.80194 0.30366 0.62059 0.0
C3215 C 0.80664 0.30129 0.59248 0.0
H3216 H 0.7786 0.29068 0.59211 0.0
C3217 C 0.7861 0.28817 0.55514 0.0
C3218 C 0.78014 0.2791 0.55561 0.0
C3219 C 0.7902 0.29253 0.56409 0.0
C3220 C 0.78648 0.2935 0.59213 0.0
H3221 H 0.81942 0.32786 0.61792 0.0
H3222 H 0.81307 0.31922 0.60253 0.0
H3223 H 0.78534 0.29887 0.60758 0.0
H3224 H 0.77374 0.26755 0.56588 0.0
H3225 H 0.78093 0.27515 0.58153 0.0
H3226 H 0.80769 0.29605 0.57694 0.0
C3227 C 0.81101 0.31606 0.60997 0.0
C3228 C 0.79037 0.29819 0.60101 0.0
C3229 C 0.81464 0.32104 0.6188 0.0
C3230 C 0.77837 0.27449 0.56525 0.0
C3231 C 0.78241 0.2789 0.57422 0.0
C3232 C 0.80273 0.29666 0.58357 0.0
C3233 C 0.80457 0.30733 0.61074 0.0
C3234 C 0.8005 0.30216 0.60131 0.0
C3235 C 0.78837 0.28797 0.57374 0.0
C3236 C 0.7926 0.29273 0.58328 0.0
H3237 H 0.80337 0.30563 0.63688 0.0
H3238 H 0.79716 0.29685 0.62151 0.0
H3239 H 0.81453 0.30409 0.59247 0.0
H3240 H 0.78769 0.29186 0.54782 0.0
H3241 H 0.79468 0.29957 0.56346 0.0
C3242 C 0.20196 0.31273 0.62403 0.0
C3243 C 0.20821 0.31971 0.62953 0.0
C3244 C 0.20573 0.30778 0.61532 0.0
C3245 C 0.22569 0.3103 0.59531 0.0
H3246 H 0.22017 0.28138 0.5907 0.0
C3247 C 0.2457 0.28817 0.56291 0.0
C3248 C 0.23979 0.28096 0.55736 0.0
C3249 C 0.24179 0.29267 0.57179 0.0
C3250 C 0.22168 0.28949 0.5918 0.0
H3251 H 0.22347 0.32666 0.6303 0.0
H3252 H 0.22998 0.31812 0.6151 0.0
H3253 H 0.21338 0.28964 0.60601 0.0
H3254 H 0.22512 0.27285 0.55681 0.0
H3255 H 0.21826 0.28076 0.57226 0.0
H3256 H 0.23392 0.31022 0.58111 0.0
C3257 C 0.22211 0.3166 0.61743 0.0
C3258 C 0.21779 0.29422 0.60059 0.0
C3259 C 0.21836 0.32151 0.62615 0.0
C3260 C 0.22992 0.27829 0.56097 0.0
C3261 C 0.22599 0.28282 0.56984 0.0
C3262 C 0.22954 0.30559 0.58652 0.0
C3263 C 0.21583 0.30971 0.61187 0.0
C3264 C 0.2198 0.30467 0.60247 0.0
C3265 C 0.23186 0.29011 0.57534 0.0
C3266 C 0.22764 0.29512 0.58467 0.0
H3267 H 0.19407 0.31125 0.62633 0.0
H3268 H 0.20066 0.3026 0.61115 0.0
H3269 H 0.22723 0.31841 0.59643 0.0
H3270 H 0.2534 0.29027 0.56044 0.0
H3271 H 0.24662 0.29809 0.57593 0.0
C3272 C 0.20432 0.31949 0.39888 0.0
C3273 C 0.20903 0.31791 0.38933 0.0
C3274 C 0.20801 0.3146 0.40773 0.0
C3275 C 0.2312 0.3017 0.41813 0.0
H3276 H 0.21228 0.29253 0.43934 0.0
C3277 C 0.24542 0.28878 0.4582 0.0
C3278 C 0.24024 0.28056 0.46306 0.0
C3279 C 0.24157 0.29304 0.4491 0.0
C3280 C 0.21768 0.29493 0.43345 0.0
H3281 H 0.22111 0.30975 0.3815 0.0
H3282 H 0.22744 0.30105 0.39689 0.0
H3283 H 0.20556 0.3001 0.42357 0.0
H3284 H 0.22689 0.27042 0.4621 0.0
H3285 H 0.22039 0.27761 0.44606 0.0
H3286 H 0.24331 0.29626 0.42787 0.0
C3287 C 0.22106 0.30626 0.39762 0.0
C3288 C 0.21382 0.29942 0.42445 0.0
C3289 C 0.21742 0.31122 0.38878 0.0
C3290 C 0.23115 0.27666 0.45852 0.0
C3291 C 0.22734 0.28089 0.44938 0.0
C3292 C 0.23505 0.29716 0.42709 0.0
C3293 C 0.21645 0.30794 0.40722 0.0
C3294 C 0.22053 0.30291 0.4167 0.0
C3295 C 0.23248 0.28916 0.44456 0.0
C3296 C 0.22835 0.29377 0.4349 0.0
H3297 H 0.19792 0.3247 0.39956 0.0
H3298 H 0.20438 0.31622 0.41501 0.0
H3299 H 0.23662 0.3044 0.41239 0.0
H3300 H 0.25251 0.29189 0.46138 0.0
H3301 H 0.24568 0.29949 0.44569 0.0
C3302 C 0.19613 0.71426 0.39354 0.0
C3303 C 0.198 0.70431 0.3899 0.0
C3304 C 0.20142 0.71808 0.40212 0.0
C3305 C 0.21622 0.70979 0.42508 0.0
H3306 H 0.22456 0.73846 0.42582 0.0
C3307 C 0.24074 0.72695 0.45833 0.0
C3308 C 0.23771 0.73657 0.46206 0.0
C3309 C 0.23632 0.72292 0.44936 0.0
C3310 C 0.22221 0.73045 0.42577 0.0
H3311 H 0.20698 0.69059 0.3925 0.0
H3312 H 0.21638 0.69734 0.40733 0.0
H3313 H 0.21623 0.73159 0.41046 0.0
H3314 H 0.22779 0.74955 0.45916 0.0
H3315 H 0.22002 0.74248 0.44359 0.0
H3316 H 0.22222 0.70868 0.44042 0.0
C3317 C 0.2107 0.70215 0.40361 0.0
C3318 C 0.21741 0.72651 0.41696 0.0
C3319 C 0.20539 0.69832 0.39503 0.0
C3320 C 0.23022 0.74208 0.45656 0.0
C3321 C 0.22585 0.73807 0.44757 0.0
C3322 C 0.22105 0.71373 0.43389 0.0
C3323 C 0.20877 0.71208 0.40729 0.0
C3324 C 0.21427 0.71615 0.41653 0.0
C3325 C 0.22882 0.72843 0.44387 0.0
C3326 C 0.22402 0.72413 0.43437 0.0
H3327 H 0.1906 0.71916 0.38972 0.0
H3328 H 0.19962 0.7257 0.40479 0.0
H3329 H 0.21378 0.70181 0.42509 0.0
H3330 H 0.24643 0.72247 0.46243 0.0
H3331 H 0.23885 0.71551 0.44668 0.0
C3332 C 0.817 0.70127 0.39933 0.0
C3333 C 0.81738 0.70741 0.39041 0.0
C3334 C 0.81215 0.70477 0.40821 0.0
C3335 C 0.79317 0.72355 0.4174 0.0
H3336 H 0.80686 0.71976 0.44369 0.0
C3337 C 0.77972 0.74389 0.45431 0.0
C3338 C 0.78013 0.73838 0.46363 0.0
C3339 C 0.78398 0.73987 0.44535 0.0
C3340 C 0.80285 0.72076 0.43644 0.0
H3341 H 0.81272 0.72194 0.38376 0.0
H3342 H 0.80434 0.72808 0.39927 0.0
H3343 H 0.81468 0.71309 0.42813 0.0
H3344 H 0.78541 0.7243 0.4708 0.0
H3345 H 0.7926 0.71719 0.45515 0.0
H3346 H 0.78134 0.7312 0.4257 0.0
C3347 C 0.80776 0.72054 0.39939 0.0
C3348 C 0.80735 0.71694 0.42751 0.0
C3349 C 0.81266 0.71706 0.39053 0.0
C3350 C 0.78485 0.72871 0.46374 0.0
C3351 C 0.7891 0.72469 0.45479 0.0
C3352 C 0.78866 0.72733 0.42634 0.0
C3353 C 0.80751 0.71447 0.40836 0.0
C3354 C 0.80258 0.71832 0.41788 0.0
C3355 C 0.78876 0.73023 0.44548 0.0
C3356 C 0.79346 0.72603 0.43597 0.0
H3357 H 0.82063 0.69383 0.39952 0.0
H3358 H 0.812 0.69986 0.41495 0.0
H3359 H 0.78923 0.72461 0.41012 0.0
H3360 H 0.77604 0.75129 0.4539 0.0
H3361 H 0.78367 0.74441 0.43836 0.0
C3362 C 0.8177 0.31165 0.39457 0.0
C3363 C 0.81165 0.3189 0.38931 0.0
C3364 C 0.81389 0.30655 0.40329 0.0
C3365 C 0.79441 0.309 0.42372 0.0
H3366 H 0.79879 0.2799 0.42799 0.0
C3367 C 0.7739 0.28663 0.45621 0.0
C3368 C 0.77956 0.27922 0.46164 0.0
C3369 C 0.77788 0.29121 0.4473 0.0
C3370 C 0.7976 0.28806 0.42698 0.0
H3371 H 0.79668 0.32614 0.38893 0.0
H3372 H 0.79011 0.31733 0.40413 0.0
H3373 H 0.80569 0.28835 0.41265 0.0
H3374 H 0.79387 0.2708 0.46193 0.0
H3375 H 0.80086 0.27883 0.44643 0.0
H3376 H 0.7864 0.30878 0.43805 0.0
C3377 C 0.79787 0.31572 0.40163 0.0
C3378 C 0.80155 0.2929 0.41818 0.0
C3379 C 0.80165 0.32079 0.39291 0.0
C3380 C 0.78926 0.2764 0.45787 0.0
C3381 C 0.79326 0.281 0.44897 0.0
C3382 C 0.79049 0.30419 0.43253 0.0
C3383 C 0.80395 0.30859 0.40697 0.0
C3384 C 0.79995 0.30342 0.41642 0.0
C3385 C 0.78765 0.28852 0.4436 0.0
C3386 C 0.79198 0.29364 0.43426 0.0
H3387 H 0.82547 0.31008 0.3921 0.0
H3388 H 0.81881 0.30117 0.40729 0.0
H3389 H 0.7932 0.31716 0.4227 0.0
H3390 H 0.76633 0.28885 0.45879 0.0
H3391 H 0.77324 0.2968 0.44326 0.0
C3392 C 0.1168 0.70417 0.69273 0.0
C3393 C 0.12648 0.70429 0.69764 0.0
C3394 C 0.10813 0.70807 0.69763 0.0
C3395 C 0.09795 0.71536 0.72319 0.0
H3396 H 0.07878 0.7313 0.70685 0.0
C3397 C 0.06493 0.73879 0.74124 0.0
C3398 C 0.05534 0.73859 0.73614 0.0
C3399 C 0.07362 0.73445 0.73673 0.0
C3400 C 0.08399 0.72677 0.71151 0.0
H3401 H 0.13459 0.70859 0.7116 0.0
H3402 H 0.11948 0.71546 0.72014 0.0
H3403 H 0.09383 0.72395 0.69872 0.0
H3404 H 0.04737 0.73341 0.72239 0.0
H3405 H 0.0625 0.72592 0.71452 0.0
H3406 H 0.0881 0.71827 0.736 0.0
C3407 C 0.11855 0.71221 0.71255 0.0
C3408 C 0.09263 0.72254 0.70684 0.0
C3409 C 0.12723 0.70827 0.70765 0.0
C3410 C 0.05466 0.73389 0.72645 0.0
C3411 C 0.06334 0.72957 0.72194 0.0
C3412 C 0.08931 0.71962 0.72787 0.0
C3413 C 0.1089 0.71224 0.70757 0.0
C3414 C 0.09971 0.71675 0.71261 0.0
C3415 C 0.07294 0.72983 0.727 0.0
C3416 C 0.0822 0.72536 0.72208 0.0
H3417 H 0.11591 0.701 0.6851 0.0
H3418 H 0.10079 0.70776 0.69364 0.0
H3419 H 0.10316 0.71084 0.72785 0.0
H3420 H 0.06577 0.74246 0.74865 0.0
H3421 H 0.08092 0.7349 0.74078 0.0
C3422 C 0.81697 0.62134 0.70371 0.0
C3423 C 0.81758 0.63016 0.70986 0.0
C3424 C 0.81189 0.61249 0.70724 0.0
C3425 C 0.80307 0.59977 0.73123 0.0
H3426 H 0.7869 0.58291 0.71254 0.0
C3427 C 0.77834 0.56537 0.74528 0.0
C3428 C 0.77891 0.55629 0.73952 0.0
C3429 C 0.78268 0.57453 0.74158 0.0
C3430 C 0.79145 0.5875 0.71784 0.0
H3431 H 0.81308 0.63671 0.72442 0.0
H3432 H 0.80412 0.62132 0.73055 0.0
H3433 H 0.79507 0.59867 0.70624 0.0
H3434 H 0.78455 0.54976 0.72534 0.0
H3435 H 0.79203 0.56576 0.71885 0.0
H3436 H 0.79941 0.58861 0.74283 0.0
C3437 C 0.80776 0.62115 0.72309 0.0
C3438 C 0.79616 0.59653 0.71422 0.0
C3439 C 0.81288 0.62998 0.71957 0.0
C3440 C 0.78382 0.55663 0.72991 0.0
C3441 C 0.78813 0.56581 0.72619 0.0
C3442 C 0.79833 0.59078 0.73485 0.0
C3443 C 0.80725 0.61226 0.717 0.0
C3444 C 0.80206 0.60276 0.72087 0.0
C3445 C 0.78766 0.57484 0.73201 0.0
C3446 C 0.7925 0.58452 0.72818 0.0
H3447 H 0.82063 0.6212 0.69625 0.0
H3448 H 0.8118 0.60575 0.70241 0.0
H3449 H 0.8077 0.60428 0.73653 0.0
H3450 H 0.77445 0.56543 0.75263 0.0
H3451 H 0.78205 0.5814 0.74617 0.0
C3452 C 0.89974 0.31573 0.69747 0.0
C3453 C 0.88991 0.31282 0.70102 0.0
C3454 C 0.90862 0.31207 0.70233 0.0
C3455 C 0.91825 0.30085 0.72663 0.0
H3456 H 0.94028 0.29071 0.70956 0.0
C3457 C 0.95285 0.27862 0.74361 0.0
C3458 C 0.96259 0.28032 0.73919 0.0
C3459 C 0.944 0.2828 0.73913 0.0
C3460 C 0.93428 0.29364 0.71446 0.0
H3461 H 0.88171 0.304 0.71262 0.0
H3462 H 0.89722 0.2976 0.7211 0.0
H3463 H 0.92492 0.29779 0.70153 0.0
H3464 H 0.97069 0.28799 0.72675 0.0
H3465 H 0.95533 0.2954 0.71901 0.0
H3466 H 0.92764 0.29678 0.73957 0.0
C3467 C 0.89805 0.30272 0.71456 0.0
C3468 C 0.92546 0.29769 0.70984 0.0
C3469 C 0.88917 0.30631 0.70965 0.0
C3470 C 0.96328 0.2864 0.73025 0.0
C3471 C 0.95446 0.29063 0.7258 0.0
C3472 C 0.92711 0.29685 0.73126 0.0
C3473 C 0.90788 0.30548 0.7109 0.0
C3474 C 0.91733 0.30132 0.71586 0.0
C3475 C 0.94468 0.28884 0.73014 0.0
C3476 C 0.93525 0.29318 0.72524 0.0
H3477 H 0.90057 0.32066 0.69079 0.0
H3478 H 0.91608 0.31442 0.69938 0.0
H3479 H 0.91217 0.30369 0.73148 0.0
H3480 H 0.95204 0.27388 0.75043 0.0
H3481 H 0.93661 0.28113 0.7426 0.0
C3482 C 0.20608 0.39401 0.70222 0.0
C3483 C 0.19916 0.38846 0.70847 0.0
C3484 C 0.21129 0.40268 0.706 0.0
C3485 C 0.21871 0.41567 0.73036 0.0
H3486 H 0.22193 0.43964 0.71281 0.0
C3487 C 0.23101 0.45536 0.74608 0.0
C3488 C 0.23808 0.46122 0.74028 0.0
C3489 C 0.22674 0.4463 0.74214 0.0
C3490 C 0.2212 0.43297 0.71777 0.0
H3491 H 0.19248 0.38759 0.72372 0.0
H3492 H 0.20131 0.40282 0.7302 0.0
H3493 H 0.21363 0.42419 0.70604 0.0
H3494 H 0.24616 0.46214 0.72575 0.0
H3495 H 0.23875 0.44625 0.71889 0.0
H3496 H 0.22616 0.42452 0.74213 0.0
C3497 C 0.20283 0.40042 0.7224 0.0
C3498 C 0.21645 0.4241 0.71389 0.0
C3499 C 0.19764 0.39175 0.71863 0.0
C3500 C 0.2408 0.45776 0.73045 0.0
C3501 C 0.23648 0.44872 0.72648 0.0
C3502 C 0.22342 0.42455 0.73425 0.0
C3503 C 0.20971 0.40602 0.71613 0.0
C3504 C 0.21509 0.41535 0.72015 0.0
C3505 C 0.22939 0.44288 0.73228 0.0
C3506 C 0.22467 0.43333 0.72803 0.0
H3507 H 0.20738 0.39176 0.69433 0.0
H3508 H 0.21662 0.40673 0.70099 0.0
H3509 H 0.21797 0.40903 0.73535 0.0
H3510 H 0.22883 0.45776 0.75372 0.0
H3511 H 0.22123 0.44204 0.74677 0.0
C3512 C 0.11909 0.31038 0.32631 0.0
C3513 C 0.1287 0.31039 0.32137 0.0
C3514 C 0.11026 0.30675 0.32126 0.0
C3515 C 0.09969 0.30067 0.29541 0.0
H3516 H 0.08001 0.28438 0.31104 0.0
C3517 C 0.06574 0.27826 0.27654 0.0
C3518 C 0.05617 0.27867 0.28154 0.0
C3519 C 0.07463 0.28229 0.28121 0.0
C3520 C 0.08538 0.289 0.30659 0.0
H3521 H 0.13656 0.30659 0.30726 0.0
H3522 H 0.12117 0.30014 0.29847 0.0
H3523 H 0.09541 0.29113 0.31951 0.0
H3524 H 0.04842 0.28392 0.29525 0.0
H3525 H 0.06391 0.29084 0.30341 0.0
H3526 H 0.08965 0.29841 0.28246 0.0
C3527 C 0.12042 0.30311 0.30619 0.0
C3528 C 0.0942 0.29289 0.31145 0.0
C3529 C 0.12925 0.30679 0.31123 0.0
C3530 C 0.05569 0.28328 0.29127 0.0
C3531 C 0.06457 0.28727 0.29595 0.0
C3532 C 0.09087 0.29673 0.29054 0.0
C3533 C 0.11082 0.30298 0.31117 0.0
C3534 C 0.10145 0.29881 0.30593 0.0
C3535 C 0.07415 0.28679 0.29099 0.0
C3536 C 0.0836 0.29088 0.29609 0.0
H3537 H 0.11839 0.31326 0.33407 0.0
H3538 H 0.10297 0.30696 0.32526 0.0
H3539 H 0.10503 0.30531 0.29096 0.0
H3540 H 0.06641 0.27464 0.2691 0.0
H3541 H 0.08192 0.2817 0.27725 0.0
C3542 C 0.21499 0.62121 0.32326 0.0
C3543 C 0.20634 0.62638 0.31937 0.0
C3544 C 0.21863 0.6124 0.31845 0.0
C3545 C 0.21765 0.59816 0.29381 0.0
H3546 H 0.22812 0.57594 0.31067 0.0
C3547 C 0.23945 0.56378 0.27654 0.0
C3548 C 0.23779 0.55403 0.28096 0.0
C3549 C 0.23535 0.57255 0.28106 0.0
C3550 C 0.22513 0.58201 0.30583 0.0
H3551 H 0.19479 0.62631 0.30726 0.0
H3552 H 0.20096 0.61078 0.29904 0.0
H3553 H 0.22125 0.59111 0.31884 0.0
H3554 H 0.23025 0.54584 0.29343 0.0
H3555 H 0.22301 0.56108 0.30124 0.0
H3556 H 0.22131 0.58891 0.2808 0.0
C3557 C 0.20503 0.61364 0.30574 0.0
C3558 C 0.22131 0.5908 0.31053 0.0
C3559 C 0.20141 0.62248 0.31054 0.0
C3560 C 0.23182 0.55325 0.28993 0.0
C3561 C 0.22768 0.56201 0.29441 0.0
C3562 C 0.22144 0.58934 0.28911 0.0
C3563 C 0.21369 0.60847 0.30964 0.0
C3564 C 0.21756 0.59902 0.30459 0.0
C3565 C 0.22944 0.57179 0.29008 0.0
C3566 C 0.22527 0.58115 0.29506 0.0
H3567 H 0.21892 0.62388 0.33012 0.0
H3568 H 0.22539 0.60873 0.32161 0.0
H3569 H 0.21493 0.60436 0.28898 0.0
H3570 H 0.24411 0.56465 0.2697 0.0
H3571 H 0.237 0.57996 0.27758 0.0
C3572 C 0.8912 0.6975 0.30207 0.0
C3573 C 0.88785 0.69902 0.31222 0.0
C3574 C 0.89986 0.70273 0.29829 0.0
C3575 C 0.9235 0.71654 0.30676 0.0
H3576 H 0.92386 0.72614 0.27849 0.0
C3577 C 0.95712 0.74103 0.29015 0.0
C3578 C 0.96062 0.73833 0.28033 0.0
C3579 C 0.94807 0.73666 0.29413 0.0
C3580 C 0.92392 0.72343 0.28638 0.0
H3581 H 0.89106 0.70729 0.32632 0.0
H3582 H 0.90604 0.71659 0.31965 0.0
H3583 H 0.90838 0.71786 0.28529 0.0
H3584 H 0.95723 0.72908 0.2669 0.0
H3585 H 0.94149 0.72141 0.27386 0.0
H3586 H 0.93906 0.72213 0.30783 0.0
C3587 C 0.90203 0.71124 0.31466 0.0
C3588 C 0.91504 0.71867 0.29028 0.0
C3589 C 0.89336 0.70599 0.31845 0.0
C3590 C 0.9548 0.73125 0.27453 0.0
C3591 C 0.94572 0.72693 0.27848 0.0
C3592 C 0.93237 0.72134 0.30287 0.0
C3593 C 0.90541 0.70965 0.30453 0.0
C3594 C 0.91474 0.71508 0.3005 0.0
C3595 C 0.94226 0.72955 0.28834 0.0
C3596 C 0.93271 0.72477 0.2926 0.0
H3597 H 0.88708 0.69231 0.297 0.0
H3598 H 0.9023 0.70121 0.2905 0.0
H3599 H 0.92361 0.71374 0.31462 0.0
H3600 H 0.96147 0.74639 0.29485 0.0
H3601 H 0.94557 0.73891 0.30171 0.0
C3602 C 0.8257 0.39985 0.31259 0.0
C3603 C 0.82083 0.39017 0.31211 0.0
C3604 C 0.82071 0.40863 0.30898 0.0
C3605 C 0.79498 0.41883 0.30196 0.0
H3606 H 0.81117 0.43905 0.28692 0.0
C3607 C 0.77669 0.45283 0.27965 0.0
C3608 C 0.78174 0.46243 0.28031 0.0
C3609 C 0.78124 0.44399 0.28371 0.0
C3610 C 0.80655 0.43353 0.2912 0.0
H3611 H 0.80685 0.38215 0.3075 0.0
H3612 H 0.79816 0.39745 0.30112 0.0
H3613 H 0.81944 0.42374 0.29368 0.0
H3614 H 0.79544 0.47023 0.28606 0.0
H3615 H 0.80338 0.45483 0.29306 0.0
H3616 H 0.78206 0.42864 0.29937 0.0
C3617 C 0.80579 0.39829 0.30443 0.0
C3618 C 0.8113 0.42475 0.29509 0.0
C3619 C 0.81077 0.38951 0.30808 0.0
C3620 C 0.79141 0.46295 0.28522 0.0
C3621 C 0.79597 0.45412 0.28925 0.0
C3622 C 0.79022 0.42762 0.29802 0.0
C3623 C 0.81073 0.40796 0.30476 0.0
C3624 C 0.80559 0.41729 0.30057 0.0
C3625 C 0.79096 0.44452 0.28851 0.0
C3626 C 0.79596 0.4351 0.29263 0.0
H3627 H 0.83338 0.40067 0.31582 0.0
H3628 H 0.82468 0.41596 0.30957 0.0
H3629 H 0.79036 0.41332 0.30624 0.0
H3630 H 0.7693 0.45211 0.27581 0.0
H3631 H 0.77723 0.4367 0.2829 0.0
C3632 C 0.19537 0.62336 0.71793 0.0
C3633 C 0.19727 0.62704 0.70792 0.0
C3634 C 0.20055 0.61479 0.72177 0.0
C3635 C 0.21509 0.59197 0.71348 0.0
H3636 H 0.22356 0.59117 0.7421 0.0
C3637 C 0.23974 0.55911 0.7305 0.0
C3638 C 0.23681 0.55526 0.74019 0.0
C3639 C 0.23525 0.568 0.72648 0.0
C3640 C 0.22116 0.59123 0.73411 0.0
H3641 H 0.20615 0.62451 0.6941 0.0
H3642 H 0.21538 0.60971 0.70089 0.0
H3643 H 0.21526 0.60645 0.73523 0.0
H3644 H 0.22698 0.55786 0.75332 0.0
H3645 H 0.21909 0.5733 0.74629 0.0
H3646 H 0.22102 0.57674 0.71238 0.0
C3647 C 0.20976 0.61338 0.70573 0.0
C3648 C 0.21639 0.6 0.73017 0.0
C3649 C 0.20456 0.62196 0.70188 0.0
C3650 C 0.22934 0.56056 0.7458 0.0
C3651 C 0.2249 0.56947 0.74181 0.0
C3652 C 0.2199 0.58322 0.71742 0.0
C3653 C 0.20781 0.60967 0.71572 0.0
C3654 C 0.21322 0.60046 0.71982 0.0
C3655 C 0.22778 0.57329 0.73209 0.0
C3656 C 0.22293 0.58271 0.72781 0.0
H3657 H 0.18992 0.62714 0.72287 0.0
H3658 H 0.19874 0.6121 0.72944 0.0
H3659 H 0.21262 0.59198 0.70552 0.0
H3660 H 0.24541 0.55516 0.72594 0.0
H3661 H 0.23771 0.57078 0.71901 0.0
C3662 C 0.19526 0.39812 0.31402 0.0
C3663 C 0.19905 0.38833 0.31179 0.0
C3664 C 0.20029 0.40693 0.31034 0.0
C3665 C 0.22509 0.4163 0.29936 0.0
H3666 H 0.2083 0.43889 0.28982 0.0
C3667 C 0.2427 0.45555 0.28732 0.0
C3668 C 0.23821 0.46068 0.27891 0.0
C3669 C 0.23811 0.44668 0.29142 0.0
C3670 C 0.21312 0.43262 0.29235 0.0
H3671 H 0.21107 0.38009 0.30394 0.0
H3672 H 0.21976 0.39546 0.29736 0.0
H3673 H 0.20004 0.4235 0.29669 0.0
H3674 H 0.2253 0.46044 0.26824 0.0
H3675 H 0.21751 0.44482 0.27513 0.0
H3676 H 0.23816 0.42531 0.29469 0.0
C3677 C 0.21303 0.39636 0.30213 0.0
C3678 C 0.20837 0.42384 0.29644 0.0
C3679 C 0.20804 0.38754 0.30588 0.0
C3680 C 0.22906 0.45664 0.27464 0.0
C3681 C 0.2245 0.44775 0.27869 0.0
C3682 C 0.22984 0.42507 0.29521 0.0
C3683 C 0.20918 0.40617 0.30426 0.0
C3684 C 0.21429 0.41556 0.3 0.0
C3685 C 0.22893 0.44268 0.28718 0.0
C3686 C 0.22391 0.43334 0.29164 0.0
H3687 H 0.18844 0.39897 0.31869 0.0
H3688 H 0.19723 0.41436 0.31232 0.0
H3689 H 0.2299 0.41013 0.30212 0.0
H3690 H 0.24981 0.45837 0.29073 0.0
H3691 H 0.24169 0.44305 0.29802 0.0
C3692 C 0.11619 0.69078 0.31337 0.0
C3693 C 0.12596 0.69556 0.31321 0.0
C3694 C 0.10751 0.6959 0.30968 0.0
C3695 C 0.0977 0.72181 0.303 0.0
H3696 H 0.07752 0.70626 0.28726 0.0
C3697 C 0.05858 0.73888 0.29033 0.0
C3698 C 0.05476 0.73623 0.28055 0.0
C3699 C 0.06732 0.7341 0.29438 0.0
C3700 C 0.08312 0.71075 0.29156 0.0
H3701 H 0.13423 0.70951 0.30904 0.0
H3702 H 0.1191 0.71843 0.30252 0.0
H3703 H 0.09264 0.69769 0.29413 0.0
H3704 H 0.05734 0.72666 0.26725 0.0
H3705 H 0.07261 0.71839 0.27425 0.0
H3706 H 0.0883 0.73493 0.30019 0.0
C3707 C 0.11811 0.71077 0.30566 0.0
C3708 C 0.09173 0.70579 0.29563 0.0
C3709 C 0.1268 0.70565 0.3094 0.0
C3710 C 0.05997 0.72876 0.27487 0.0
C3711 C 0.06873 0.72401 0.2789 0.0
C3712 C 0.08909 0.72677 0.29891 0.0
C3713 C 0.10836 0.70593 0.30569 0.0
C3714 C 0.09915 0.71125 0.30141 0.0
C3715 C 0.07249 0.72657 0.28874 0.0
C3716 C 0.08168 0.72131 0.29312 0.0
H3717 H 0.11525 0.68307 0.31642 0.0
H3718 H 0.1001 0.69201 0.31002 0.0
H3719 H 0.10319 0.72624 0.3075 0.0
H3720 H 0.05467 0.7445 0.29496 0.0
H3721 H 0.0699 0.73616 0.30203 0.0
C3722 C 0.80536 0.61998 0.32735 0.0
C3723 C 0.81018 0.62805 0.32191 0.0
C3724 C 0.80194 0.61114 0.32225 0.0
C3725 C 0.79471 0.60147 0.29647 0.0
H3726 H 0.7976 0.57485 0.30958 0.0
C3727 C 0.77438 0.56488 0.28096 0.0
C3728 C 0.77982 0.55562 0.28139 0.0
C3729 C 0.77833 0.57374 0.28565 0.0
C3730 C 0.79681 0.5822 0.30576 0.0
H3731 H 0.81515 0.63312 0.3068 0.0
H3732 H 0.80939 0.61761 0.29795 0.0
H3733 H 0.80429 0.59013 0.31812 0.0
H3734 H 0.79371 0.54844 0.28716 0.0
H3735 H 0.80071 0.56391 0.29512 0.0
H3736 H 0.78738 0.5935 0.28401 0.0
C3737 C 0.80814 0.61818 0.30615 0.0
C3738 C 0.80054 0.59099 0.31072 0.0
C3739 C 0.81156 0.62702 0.31125 0.0
C3740 C 0.78936 0.55546 0.28657 0.0
C3741 C 0.79331 0.56431 0.29126 0.0
C3742 C 0.79098 0.59267 0.2915 0.0
C3743 C 0.80326 0.61013 0.31158 0.0
C3744 C 0.7995 0.60075 0.30617 0.0
C3745 C 0.78784 0.57356 0.2909 0.0
C3746 C 0.79195 0.58292 0.29609 0.0
H3747 H 0.80427 0.62044 0.33558 0.0
H3748 H 0.79812 0.60516 0.32667 0.0
H3749 H 0.79368 0.60885 0.29278 0.0
H3750 H 0.76707 0.56532 0.27694 0.0
H3751 H 0.77385 0.58069 0.2853 0.0
C3752 C 0.89541 0.31706 0.31146 0.0
C3753 C 0.89001 0.31074 0.31845 0.0
C3754 C 0.90399 0.31337 0.30621 0.0
C3755 C 0.91691 0.28916 0.29887 0.0
H3756 H 0.9409 0.30684 0.29539 0.0
C3757 C 0.95651 0.27364 0.28673 0.0
C3758 C 0.9623 0.27944 0.27962 0.0
C3759 C 0.94749 0.27756 0.29094 0.0
C3760 C 0.93422 0.30184 0.29619 0.0
H3761 H 0.88934 0.29547 0.32518 0.0
H3762 H 0.9044 0.28917 0.31629 0.0
H3763 H 0.92555 0.31349 0.30366 0.0
H3764 H 0.96315 0.29396 0.27142 0.0
H3765 H 0.94735 0.30077 0.27872 0.0
H3766 H 0.92565 0.27747 0.29154 0.0
C3767 C 0.90195 0.29694 0.31475 0.0
C3768 C 0.9254 0.30566 0.30092 0.0
C3769 C 0.89337 0.30062 0.31998 0.0
C3770 C 0.95883 0.28926 0.27681 0.0
C3771 C 0.94982 0.2932 0.28107 0.0
C3772 C 0.92574 0.28534 0.29418 0.0
C3773 C 0.9074 0.30327 0.30781 0.0
C3774 C 0.91666 0.29935 0.3024 0.0
C3775 C 0.94405 0.2874 0.28819 0.0
C3776 C 0.93453 0.2916 0.29285 0.0
H3777 H 0.8931 0.32492 0.31014 0.0
H3778 H 0.90793 0.31843 0.30084 0.0
H3779 H 0.91026 0.28413 0.29969 0.0
H3780 H 0.95891 0.26602 0.28898 0.0
H3781 H 0.94328 0.27292 0.29648 0.0
C3782 C 0.81731 0.39827 0.70074 0.0
C3783 C 0.81717 0.38914 0.70657 0.0
C3784 C 0.81241 0.40707 0.70432 0.0
C3785 C 0.803 0.41878 0.72836 0.0
H3786 H 0.78846 0.43704 0.70981 0.0
C3787 C 0.77901 0.45263 0.74319 0.0
C3788 C 0.77983 0.46201 0.73783 0.0
C3789 C 0.78328 0.4437 0.7392 0.0
C3790 C 0.79258 0.43207 0.71508 0.0
H3791 H 0.81142 0.38201 0.72054 0.0
H3792 H 0.80282 0.39729 0.72673 0.0
H3793 H 0.79631 0.42152 0.70313 0.0
H3794 H 0.78584 0.46931 0.72404 0.0
H3795 H 0.79325 0.45372 0.71707 0.0
H3796 H 0.79929 0.42932 0.74031 0.0
C3797 C 0.80691 0.39774 0.7195 0.0
C3798 C 0.79708 0.42317 0.71124 0.0
C3799 C 0.81183 0.38897 0.71594 0.0
C3800 C 0.78494 0.4622 0.72832 0.0
C3801 C 0.78919 0.45325 0.72431 0.0
C3802 C 0.79849 0.42766 0.73219 0.0
C3803 C 0.80723 0.40694 0.7138 0.0
C3804 C 0.80235 0.4164 0.71784 0.0
C3805 C 0.78847 0.4439 0.72973 0.0
C3806 C 0.79322 0.43442 0.72561 0.0
H3807 H 0.82145 0.3987 0.69354 0.0
H3808 H 0.81292 0.41404 0.69978 0.0
H3809 H 0.80716 0.41387 0.73364 0.0
H3810 H 0.77497 0.45216 0.75045 0.0
H3811 H 0.78242 0.4366 0.74349 0.0
C3812 C 0.11883 0.31117 0.69465 0.0
C3813 C 0.1286 0.31089 0.69936 0.0
C3814 C 0.11008 0.30765 0.69988 0.0
C3815 C 0.10193 0.29049 0.72099 0.0
H3816 H 0.07638 0.30554 0.71918 0.0
C3817 C 0.06569 0.27842 0.74411 0.0
C3818 C 0.05611 0.27914 0.73906 0.0
C3819 C 0.07461 0.28257 0.73964 0.0
C3820 C 0.08342 0.30117 0.71968 0.0
H3821 H 0.13682 0.30665 0.71326 0.0
H3822 H 0.12152 0.30054 0.72243 0.0
H3823 H 0.09176 0.31228 0.7107 0.0
H3824 H 0.04843 0.28497 0.72541 0.0
H3825 H 0.06399 0.2919 0.71751 0.0
H3826 H 0.09357 0.2793 0.72983 0.0
C3827 C 0.12065 0.30346 0.71466 0.0
C3828 C 0.09224 0.30506 0.71482 0.0
C3829 C 0.1294 0.30704 0.70945 0.0
C3830 C 0.05569 0.28414 0.72946 0.0
C3831 C 0.06461 0.28826 0.72499 0.0
C3832 C 0.09309 0.28658 0.7258 0.0
C3833 C 0.11089 0.3037 0.70993 0.0
C3834 C 0.10159 0.29973 0.71537 0.0
C3835 C 0.07419 0.28753 0.73001 0.0
C3836 C 0.0837 0.29184 0.72516 0.0
H3837 H 0.11794 0.31418 0.68692 0.0
H3838 H 0.1027 0.30787 0.69598 0.0
H3839 H 0.10898 0.28614 0.72145 0.0
H3840 H 0.06632 0.27454 0.75146 0.0
H3841 H 0.08184 0.28195 0.74379 0.0
C3842 C 0.89796 0.70769 0.69436 0.0
C3843 C 0.8884 0.70773 0.69939 0.0
C3844 C 0.90687 0.71119 0.69936 0.0
C3845 C 0.91562 0.72795 0.72039 0.0
H3846 H 0.9413 0.71334 0.7176 0.0
C3847 C 0.95258 0.73998 0.74249 0.0
C3848 C 0.96194 0.7396 0.7371 0.0
C3849 C 0.94355 0.7358 0.73826 0.0
C3850 C 0.93422 0.71758 0.71837 0.0
H3851 H 0.8807 0.71146 0.71361 0.0
H3852 H 0.89629 0.71753 0.72238 0.0
H3853 H 0.92567 0.70653 0.70956 0.0
H3854 H 0.96913 0.73436 0.72309 0.0
H3855 H 0.95335 0.72734 0.7156 0.0
H3856 H 0.92419 0.73909 0.72906 0.0
C3857 C 0.89687 0.71484 0.71455 0.0
C3858 C 0.92526 0.71366 0.71377 0.0
C3859 C 0.88796 0.71127 0.70956 0.0
C3860 C 0.96204 0.73491 0.7274 0.0
C3861 C 0.95301 0.73075 0.72316 0.0
C3862 C 0.9246 0.7319 0.72495 0.0
C3863 C 0.90642 0.71486 0.70949 0.0
C3864 C 0.91587 0.71883 0.71468 0.0
C3865 C 0.94365 0.73114 0.72853 0.0
C3866 C 0.93403 0.72679 0.72394 0.0
H3867 H 0.89857 0.70491 0.68656 0.0
H3868 H 0.91409 0.71119 0.69523 0.0
H3869 H 0.90854 0.73219 0.72111 0.0
H3870 H 0.9522 0.74362 0.74994 0.0
H3871 H 0.9365 0.73615 0.74266 0.0
C3872 C 0.71688 0.19844 0.62659 0.0
C3873 C 0.70628 0.1981 0.62876 0.0
C3874 C 0.72057 0.20358 0.61786 0.0
C3875 C 0.71232 0.21299 0.59225 0.0
H3876 H 0.73829 0.22797 0.59329 0.0
C3877 C 0.73349 0.22645 0.5555 0.0
C3878 C 0.73856 0.23605 0.55562 0.0
C3879 C 0.72927 0.22227 0.56449 0.0
C3880 C 0.73097 0.22391 0.59287 0.0
H3881 H 0.69125 0.20301 0.62344 0.0
H3882 H 0.69771 0.21218 0.60833 0.0
H3883 H 0.73137 0.22023 0.60892 0.0
H3884 H 0.74315 0.24876 0.56539 0.0
H3885 H 0.7356 0.24158 0.58101 0.0
H3886 H 0.71184 0.21681 0.57623 0.0
C3887 C 0.70317 0.20833 0.61332 0.0
C3888 C 0.72706 0.21936 0.60183 0.0
C3889 C 0.69947 0.20318 0.62205 0.0
C3890 C 0.73923 0.2414 0.56498 0.0
C3891 C 0.735 0.23722 0.57397 0.0
C3892 C 0.71622 0.21755 0.5833 0.0
C3893 C 0.71377 0.20856 0.61108 0.0
C3894 C 0.71772 0.21377 0.60162 0.0
C3895 C 0.72998 0.22758 0.57386 0.0
C3896 C 0.72564 0.22301 0.58347 0.0
H3897 H 0.72237 0.19474 0.63165 0.0
H3898 H 0.72877 0.20349 0.61635 0.0
H3899 H 0.70515 0.20867 0.59178 0.0
H3900 H 0.73271 0.22217 0.54842 0.0
H3901 H 0.72558 0.21478 0.56412 0.0
C3902 C 0.30661 0.20823 0.63088 0.0
C3903 C 0.3101 0.19807 0.63043 0.0
C3904 C 0.30301 0.2132 0.62203 0.0
C3905 C 0.29264 0.20773 0.59605 0.0
H3906 H 0.29829 0.23664 0.59126 0.0
C3907 C 0.27244 0.23015 0.56358 0.0
C3908 C 0.2784 0.23724 0.55793 0.0
C3909 C 0.27636 0.22564 0.57252 0.0
C3910 C 0.29671 0.22854 0.59244 0.0
H3911 H 0.31289 0.18529 0.62026 0.0
H3912 H 0.30672 0.19397 0.6048 0.0
H3913 H 0.30543 0.22822 0.60645 0.0
H3914 H 0.29319 0.24513 0.55723 0.0
H3915 H 0.30008 0.23718 0.57279 0.0
H3916 H 0.28415 0.20797 0.58194 0.0
C3917 C 0.30653 0.19803 0.61204 0.0
C3918 C 0.3007 0.22374 0.60122 0.0
C3919 C 0.31008 0.19306 0.62089 0.0
C3920 C 0.28835 0.23979 0.56148 0.0
C3921 C 0.29229 0.23524 0.57041 0.0
C3922 C 0.28868 0.21252 0.58728 0.0
C3923 C 0.30286 0.20813 0.61251 0.0
C3924 C 0.29871 0.21327 0.60314 0.0
C3925 C 0.28636 0.22806 0.57601 0.0
C3926 C 0.29064 0.22299 0.58537 0.0
H3927 H 0.30642 0.21226 0.63814 0.0
H3928 H 0.30012 0.22093 0.62271 0.0
H3929 H 0.29084 0.19969 0.59734 0.0
H3930 H 0.26468 0.22816 0.56114 0.0
H3931 H 0.2715 0.22029 0.57675 0.0
C3932 C 0.30496 0.81121 0.62831 0.0
C3933 C 0.31289 0.81861 0.62756 0.0
C3934 C 0.30126 0.80617 0.61953 0.0
C3935 C 0.30047 0.80852 0.59104 0.0
H3936 H 0.29208 0.77989 0.59244 0.0
C3937 C 0.28976 0.78505 0.55483 0.0
C3938 C 0.28092 0.77873 0.55544 0.0
C3939 C 0.29381 0.78976 0.56363 0.0
C3940 C 0.29431 0.78791 0.59194 0.0
H3941 H 0.32336 0.82631 0.61705 0.0
H3942 H 0.31707 0.81742 0.60177 0.0
H3943 H 0.29902 0.78829 0.60773 0.0
H3944 H 0.26952 0.77227 0.56583 0.0
H3945 H 0.27658 0.78052 0.58119 0.0
H3946 H 0.29585 0.80809 0.57522 0.0
C3947 C 0.3135 0.81567 0.60909 0.0
C3948 C 0.29828 0.79275 0.60072 0.0
C3949 C 0.31714 0.82076 0.61786 0.0
C3950 C 0.27629 0.77716 0.56508 0.0
C3951 C 0.28039 0.78181 0.5739 0.0
C3952 C 0.29657 0.80367 0.58225 0.0
C3953 C 0.30546 0.80835 0.60979 0.0
C3954 C 0.30138 0.80313 0.6004 0.0
C3955 C 0.28917 0.7882 0.57327 0.0
C3956 C 0.29342 0.79332 0.5826 0.0
H3957 H 0.30142 0.80949 0.63565 0.0
H3958 H 0.29496 0.80072 0.62037 0.0
H3959 H 0.30259 0.81657 0.59052 0.0
H3960 H 0.29346 0.78649 0.54751 0.0
H3961 H 0.30063 0.79457 0.56289 0.0
C3962 C 0.70621 0.8239 0.61915 0.0
C3963 C 0.7064 0.81906 0.62884 0.0
C3964 C 0.70982 0.81887 0.61044 0.0
C3965 C 0.72708 0.79811 0.60253 0.0
H3966 H 0.71265 0.8005 0.57647 0.0
C3967 C 0.7396 0.77584 0.56635 0.0
C3968 C 0.73928 0.78113 0.55689 0.0
C3969 C 0.73533 0.78012 0.57518 0.0
C3970 C 0.71684 0.79984 0.58366 0.0
H3971 H 0.7105 0.8051 0.63694 0.0
H3972 H 0.71672 0.79626 0.6217 0.0
H3973 H 0.70559 0.80852 0.59174 0.0
H3974 H 0.73405 0.79502 0.54934 0.0
H3975 H 0.72684 0.80256 0.56475 0.0
H3976 H 0.7384 0.78953 0.59444 0.0
C3977 C 0.71384 0.80399 0.62087 0.0
C3978 C 0.71278 0.80443 0.59242 0.0
C3979 C 0.71018 0.80901 0.62958 0.0
C3980 C 0.73455 0.79079 0.5565 0.0
C3981 C 0.73029 0.79505 0.56533 0.0
C3982 C 0.73116 0.79354 0.59376 0.0
C3983 C 0.71374 0.80888 0.6112 0.0
C3984 C 0.71788 0.80367 0.60195 0.0
C3985 C 0.73062 0.78978 0.57479 0.0
C3986 C 0.72613 0.79439 0.5842 0.0
H3987 H 0.70325 0.8316 0.61829 0.0
H3988 H 0.70972 0.82289 0.60313 0.0
H3989 H 0.73128 0.79749 0.60972 0.0
H3990 H 0.74326 0.76844 0.56696 0.0
H3991 H 0.73564 0.77579 0.58231 0.0
C3992 C 0.70213 0.81392 0.39652 0.0
C3993 C 0.70901 0.81907 0.3899 0.0
C3994 C 0.70573 0.80886 0.40532 0.0
C3995 C 0.72941 0.79816 0.41708 0.0
H3996 H 0.71408 0.80047 0.44246 0.0
C3997 C 0.74073 0.77586 0.45392 0.0
C3998 C 0.74015 0.78116 0.46329 0.0
C3999 C 0.7367 0.78011 0.44489 0.0
C4000 C 0.71849 0.7998 0.43545 0.0
H4001 H 0.72513 0.82276 0.38726 0.0
H4002 H 0.73138 0.81418 0.40271 0.0
H4003 H 0.70763 0.80866 0.42687 0.0
H4004 H 0.73471 0.79504 0.47049 0.0
H4005 H 0.72792 0.80257 0.45472 0.0
H4006 H 0.74043 0.78956 0.42574 0.0
C4007 C 0.7232 0.81394 0.40105 0.0
C4008 C 0.71472 0.80439 0.42648 0.0
C4009 C 0.7196 0.81898 0.39226 0.0
C4010 C 0.73541 0.7908 0.4634 0.0
C4011 C 0.73138 0.79506 0.45437 0.0
C4012 C 0.73319 0.79358 0.42607 0.0
C4013 C 0.71631 0.80884 0.40771 0.0
C4014 C 0.72016 0.80368 0.41719 0.0
C4015 C 0.73198 0.78978 0.445 0.0
C4016 C 0.72781 0.7944 0.43538 0.0
H4017 H 0.69392 0.81391 0.39499 0.0
H4018 H 0.70023 0.80492 0.41022 0.0
H4019 H 0.73373 0.79734 0.41004 0.0
H4020 H 0.74442 0.76846 0.45354 0.0
H4021 H 0.7372 0.77579 0.43783 0.0
C4022 C 0.70009 0.19848 0.398 0.0
C4023 C 0.69996 0.20428 0.38885 0.0
C4024 C 0.70514 0.2022 0.40678 0.0
C4025 C 0.71453 0.22645 0.41848 0.0
H4026 H 0.72933 0.20825 0.43686 0.0
C4027 C 0.72863 0.23957 0.45851 0.0
C4028 C 0.73836 0.23627 0.46189 0.0
C4029 C 0.72416 0.23556 0.44957 0.0
C4030 C 0.7253 0.21346 0.43177 0.0
H4031 H 0.70537 0.21839 0.38168 0.0
H4032 H 0.71425 0.22483 0.39693 0.0
H4033 H 0.72152 0.20144 0.42119 0.0
H4034 H 0.75104 0.22619 0.45843 0.0
H4035 H 0.74327 0.21922 0.4428 0.0
H4036 H 0.71847 0.23851 0.42893 0.0
C4037 C 0.71025 0.2175 0.3974 0.0
C4038 C 0.72071 0.20953 0.42283 0.0
C4039 C 0.70517 0.2138 0.38864 0.0
C4040 C 0.74349 0.22881 0.45612 0.0
C4041 C 0.73902 0.22481 0.44716 0.0
C4042 C 0.71912 0.23038 0.42739 0.0
C4043 C 0.71021 0.2118 0.40662 0.0
C4044 C 0.71525 0.21597 0.41607 0.0
C4045 C 0.7293 0.22814 0.44376 0.0
C4046 C 0.72454 0.22394 0.43418 0.0
H4047 H 0.69604 0.19117 0.39846 0.0
H4048 H 0.70483 0.19765 0.41377 0.0
H4049 H 0.71028 0.23163 0.41353 0.0
H4050 H 0.72439 0.24517 0.46286 0.0
H4051 H 0.71659 0.23817 0.4473 0.0
C4052 C 0.32408 0.21487 0.39766 0.0
C4053 C 0.31892 0.20795 0.39109 0.0
C4054 C 0.31928 0.21856 0.40647 0.0
C4055 C 0.2983 0.21291 0.42478 0.0
H4056 H 0.3013 0.24176 0.43147 0.0
C4057 C 0.27581 0.23162 0.45803 0.0
C4058 C 0.2811 0.23893 0.46404 0.0
C4059 C 0.28022 0.22779 0.44906 0.0
C4060 C 0.30048 0.23366 0.42979 0.0
H4061 H 0.30461 0.1995 0.38871 0.0
H4062 H 0.29627 0.20588 0.40415 0.0
H4063 H 0.30936 0.23513 0.41603 0.0
H4064 H 0.29529 0.24778 0.46543 0.0
H4065 H 0.30301 0.24106 0.44986 0.0
H4066 H 0.28949 0.21141 0.4386 0.0
C4067 C 0.30407 0.20839 0.4025 0.0
C4068 C 0.3051 0.22986 0.42092 0.0
C4069 C 0.30887 0.20472 0.39364 0.0
C4070 C 0.29093 0.24228 0.46089 0.0
C4071 C 0.29535 0.23843 0.45194 0.0
C4072 C 0.29371 0.2167 0.43368 0.0
C4073 C 0.30921 0.21539 0.40898 0.0
C4074 C 0.3041 0.21943 0.41833 0.0
C4075 C 0.29005 0.23116 0.44589 0.0
C4076 C 0.29478 0.22712 0.43633 0.0
H4077 H 0.3319 0.21737 0.39606 0.0
H4078 H 0.32352 0.2238 0.41139 0.0
H4079 H 0.29749 0.20481 0.42307 0.0
H4080 H 0.26817 0.22898 0.46017 0.0
H4081 H 0.27585 0.22231 0.44452 0.0
C4082 C 0.31486 0.80845 0.39201 0.0
C4083 C 0.31123 0.81825 0.38932 0.0
C4084 C 0.31118 0.80337 0.4008 0.0
C4085 C 0.28909 0.80287 0.41868 0.0
H4086 H 0.30769 0.78834 0.4369 0.0
C4087 C 0.27619 0.78815 0.45854 0.0
C4088 C 0.27977 0.77855 0.46192 0.0
C4089 C 0.28011 0.79272 0.4496 0.0
C4090 C 0.30236 0.79225 0.43183 0.0
H4091 H 0.30111 0.83049 0.39402 0.0
H4092 H 0.29467 0.82162 0.40923 0.0
H4093 H 0.31442 0.79676 0.42148 0.0
H4094 H 0.29022 0.76619 0.45844 0.0
H4095 H 0.29702 0.77415 0.44281 0.0
H4096 H 0.27703 0.79837 0.42897 0.0
C4097 C 0.30022 0.81778 0.40445 0.0
C4098 C 0.30623 0.79708 0.42298 0.0
C4099 C 0.30392 0.82287 0.39571 0.0
C4100 C 0.28738 0.77365 0.45613 0.0
C4101 C 0.29129 0.77822 0.44717 0.0
C4102 C 0.28523 0.79802 0.42749 0.0
C4103 C 0.30376 0.80795 0.40709 0.0
C4104 C 0.29965 0.80252 0.41634 0.0
C4105 C 0.2877 0.78781 0.44378 0.0
C4106 C 0.29181 0.79271 0.43423 0.0
H4107 H 0.32039 0.80461 0.38721 0.0
H4108 H 0.31399 0.79576 0.40255 0.0
H4109 H 0.28378 0.80683 0.41363 0.0
H4110 H 0.27047 0.79223 0.4629 0.0
H4111 H 0.27729 0.80019 0.44735 0.0
C4112 C 0.61713 0.20463 0.69331 0.0
C4113 C 0.62685 0.20467 0.69813 0.0
C4114 C 0.60848 0.20833 0.69841 0.0
C4115 C 0.60096 0.22561 0.71938 0.0
H4116 H 0.57455 0.21158 0.71701 0.0
C4117 C 0.56508 0.23858 0.74199 0.0
C4118 C 0.55555 0.23834 0.73678 0.0
C4119 C 0.57382 0.2342 0.73762 0.0
C4120 C 0.58184 0.21566 0.71766 0.0
H4121 H 0.63509 0.20865 0.71212 0.0
H4122 H 0.61997 0.21504 0.72106 0.0
H4123 H 0.58967 0.20437 0.70881 0.0
H4124 H 0.54777 0.23314 0.72292 0.0
H4125 H 0.56302 0.22576 0.71521 0.0
H4126 H 0.59312 0.23697 0.72812 0.0
C4127 C 0.61906 0.21219 0.7133 0.0
C4128 C 0.59052 0.21152 0.71297 0.0
C4129 C 0.6277 0.20843 0.70822 0.0
C4130 C 0.555 0.23359 0.72711 0.0
C4131 C 0.56373 0.22922 0.72274 0.0
C4132 C 0.59228 0.22978 0.72405 0.0
C4133 C 0.60935 0.21223 0.70844 0.0
C4134 C 0.60018 0.21646 0.71372 0.0
C4135 C 0.57326 0.22947 0.72793 0.0
C4136 C 0.58258 0.22489 0.7232 0.0
H4137 H 0.61619 0.20169 0.68559 0.0
H4138 H 0.60115 0.20833 0.69441 0.0
H4139 H 0.60825 0.2297 0.71999 0.0
H4140 H 0.56582 0.24225 0.7494 0.0
H4141 H 0.581 0.23445 0.74189 0.0
C4142 C 0.3171 0.1208 0.70308 0.0
C4143 C 0.31756 0.12954 0.70936 0.0
C4144 C 0.31209 0.11185 0.70645 0.0
C4145 C 0.29275 0.10219 0.72494 0.0
H4146 H 0.30626 0.07612 0.72111 0.0
C4147 C 0.27854 0.06483 0.74473 0.0
C4148 C 0.27903 0.05565 0.73914 0.0
C4149 C 0.28293 0.0739 0.74086 0.0
C4150 C 0.3023 0.08331 0.72212 0.0
H4151 H 0.31291 0.13581 0.72401 0.0
H4152 H 0.30422 0.12016 0.72993 0.0
H4153 H 0.31438 0.09183 0.7147 0.0
H4154 H 0.28456 0.04884 0.72504 0.0
H4155 H 0.29194 0.06469 0.71816 0.0
H4156 H 0.28065 0.09368 0.73233 0.0
C4157 C 0.30771 0.12024 0.72238 0.0
C4158 C 0.30697 0.09232 0.71845 0.0
C4159 C 0.31278 0.12917 0.71903 0.0
C4160 C 0.28393 0.05579 0.72952 0.0
C4161 C 0.2883 0.06486 0.72563 0.0
C4162 C 0.28805 0.09317 0.72857 0.0
C4163 C 0.30737 0.11146 0.71616 0.0
C4164 C 0.30227 0.10187 0.71986 0.0
C4165 C 0.2879 0.07402 0.73127 0.0
C4166 C 0.29279 0.08362 0.72724 0.0
H4167 H 0.32077 0.12082 0.69563 0.0
H4168 H 0.31187 0.10524 0.70144 0.0
H4169 H 0.28887 0.10942 0.72602 0.0
H4170 H 0.27472 0.06503 0.75211 0.0
H4171 H 0.28257 0.08078 0.74546 0.0
C4172 C 0.39823 0.81846 0.70178 0.0
C4173 C 0.38923 0.81234 0.70151 0.0
C4174 C 0.40707 0.81504 0.70689 0.0
C4175 C 0.41605 0.79653 0.72662 0.0
H4176 H 0.44247 0.79997 0.71318 0.0
C4177 C 0.45266 0.77583 0.74089 0.0
C4178 C 0.46211 0.7812 0.74046 0.0
C4179 C 0.44376 0.77996 0.73647 0.0
C4180 C 0.43518 0.79907 0.71712 0.0
H4181 H 0.38241 0.79795 0.70666 0.0
H4182 H 0.39785 0.79194 0.71549 0.0
H4183 H 0.42699 0.80667 0.70501 0.0
H4184 H 0.46957 0.79517 0.73499 0.0
H4185 H 0.45402 0.80247 0.7275 0.0
H4186 H 0.42423 0.78892 0.73873 0.0
C4187 C 0.39806 0.79941 0.71178 0.0
C4188 C 0.4263 0.80291 0.71242 0.0
C4189 C 0.38924 0.8028 0.70662 0.0
C4190 C 0.46241 0.79086 0.73556 0.0
C4191 C 0.45351 0.79499 0.73115 0.0
C4192 C 0.42494 0.79271 0.73133 0.0
C4193 C 0.40711 0.80544 0.71191 0.0
C4194 C 0.41661 0.80164 0.71708 0.0
C4195 C 0.44407 0.78958 0.73151 0.0
C4196 C 0.43462 0.79388 0.72662 0.0
H4197 H 0.39851 0.8258 0.69785 0.0
H4198 H 0.41388 0.81992 0.70693 0.0
H4199 H 0.40873 0.79555 0.73049 0.0
H4200 H 0.4521 0.76843 0.7447 0.0
H4201 H 0.43666 0.77551 0.73681 0.0
C4202 C 0.69425 0.89903 0.70596 0.0
C4203 C 0.69909 0.88944 0.70621 0.0
C4204 C 0.69939 0.90783 0.7095 0.0
C4205 C 0.72046 0.91613 0.72673 0.0
H4206 H 0.71811 0.94198 0.71203 0.0
C4207 C 0.74294 0.95267 0.73926 0.0
C4208 C 0.73765 0.96203 0.73876 0.0
C4209 C 0.73865 0.94376 0.73497 0.0
C4210 C 0.71876 0.93485 0.7163 0.0
H4211 H 0.71314 0.88157 0.71038 0.0
H4212 H 0.72216 0.89695 0.7165 0.0
H4213 H 0.7099 0.92657 0.70508 0.0
H4214 H 0.72375 0.96933 0.73318 0.0
H4215 H 0.71617 0.95378 0.72597 0.0
H4216 H 0.72919 0.92442 0.73802 0.0
C4217 C 0.71436 0.89765 0.7136 0.0
C4218 C 0.71406 0.92601 0.7123 0.0
C4219 C 0.70923 0.88886 0.71 0.0
C4220 C 0.72799 0.96224 0.73383 0.0
C4221 C 0.72369 0.95334 0.72956 0.0
C4222 C 0.72513 0.92498 0.73075 0.0
C4223 C 0.70948 0.90723 0.71343 0.0
C4224 C 0.7148 0.91656 0.71749 0.0
C4225 C 0.72896 0.94397 0.73008 0.0
C4226 C 0.72428 0.93447 0.72562 0.0
H4227 H 0.68648 0.89976 0.70299 0.0
H4228 H 0.69538 0.91507 0.70933 0.0
H4229 H 0.72107 0.909 0.73099 0.0
H4230 H 0.75035 0.95219 0.74308 0.0
H4231 H 0.74297 0.93671 0.73542 0.0
C4232 C 0.61974 0.80943 0.3265 0.0
C4233 C 0.62931 0.8095 0.3215 0.0
C4234 C 0.61087 0.80586 0.32148 0.0
C4235 C 0.6001 0.80012 0.29563 0.0
H4236 H 0.58052 0.78364 0.3112 0.0
C4237 C 0.56596 0.77805 0.27672 0.0
C4238 C 0.55643 0.77837 0.28181 0.0
C4239 C 0.57489 0.78201 0.28137 0.0
C4240 C 0.58586 0.78832 0.30677 0.0
H4241 H 0.63708 0.80585 0.30729 0.0
H4242 H 0.62162 0.7995 0.29854 0.0
H4243 H 0.596 0.79025 0.31963 0.0
H4244 H 0.54881 0.78339 0.29569 0.0
H4245 H 0.56438 0.79018 0.30381 0.0
H4246 H 0.58995 0.79807 0.28274 0.0
C4247 C 0.62093 0.80238 0.30629 0.0
C4248 C 0.59473 0.79213 0.31161 0.0
C4249 C 0.62979 0.806 0.31131 0.0
C4250 C 0.55605 0.78282 0.29163 0.0
C4251 C 0.56497 0.78673 0.29628 0.0
C4252 C 0.59123 0.79627 0.29078 0.0
C4253 C 0.61136 0.80221 0.31134 0.0
C4254 C 0.60195 0.79811 0.30612 0.0
C4255 C 0.5745 0.78634 0.29123 0.0
C4256 C 0.584 0.79035 0.29631 0.0
H4257 H 0.61908 0.81224 0.33429 0.0
H4258 H 0.6036 0.80603 0.32553 0.0
H4259 H 0.60542 0.80481 0.29121 0.0
H4260 H 0.56656 0.77457 0.26921 0.0
H4261 H 0.58214 0.78149 0.27733 0.0
C4262 C 0.70843 0.12542 0.31035 0.0
C4263 C 0.70424 0.12467 0.32028 0.0
C4264 C 0.71225 0.11673 0.30544 0.0
C4265 C 0.72188 0.0906 0.31111 0.0
H4266 H 0.71812 0.0865 0.28182 0.0
C4267 C 0.73284 0.05274 0.29133 0.0
C4268 C 0.73782 0.05344 0.28177 0.0
C4269 C 0.72859 0.06143 0.29584 0.0
C4270 C 0.71933 0.08759 0.28999 0.0
H4271 H 0.70043 0.11411 0.33266 0.0
H4272 H 0.70699 0.09897 0.3241 0.0
H4273 H 0.71084 0.10159 0.28997 0.0
H4274 H 0.74226 0.0639 0.26949 0.0
H4275 H 0.7348 0.07905 0.27735 0.0
H4276 H 0.73034 0.0766 0.31113 0.0
C4277 C 0.70756 0.1063 0.32018 0.0
C4278 C 0.71515 0.09624 0.29467 0.0
C4279 C 0.70378 0.11499 0.32509 0.0
C4280 C 0.73836 0.06305 0.27679 0.0
C4281 C 0.73409 0.07174 0.2813 0.0
C4282 C 0.72602 0.08195 0.30644 0.0
C4283 C 0.71195 0.10707 0.31033 0.0
C4284 C 0.71636 0.09785 0.3053 0.0
C4285 C 0.72919 0.07105 0.2909 0.0
C4286 C 0.72479 0.08031 0.29582 0.0
H4287 H 0.70902 0.13278 0.30647 0.0
H4288 H 0.71569 0.11764 0.29792 0.0
H4289 H 0.72315 0.09168 0.31926 0.0
H4290 H 0.73209 0.04544 0.29529 0.0
H4291 H 0.72471 0.06058 0.30315 0.0
C4292 C 0.3914 0.19701 0.3024 0.0
C4293 C 0.38797 0.19862 0.3125 0.0
C4294 C 0.40006 0.20225 0.29863 0.0
C4295 C 0.42353 0.21637 0.3071 0.0
H4296 H 0.42399 0.22563 0.27871 0.0
C4297 C 0.45702 0.24097 0.29038 0.0
C4298 C 0.46063 0.23814 0.28063 0.0
C4299 C 0.44798 0.23658 0.29435 0.0
C4300 C 0.42401 0.22302 0.28663 0.0
H4301 H 0.39104 0.20705 0.32654 0.0
H4302 H 0.40599 0.21638 0.31987 0.0
H4303 H 0.40854 0.21729 0.28551 0.0
H4304 H 0.45743 0.22865 0.26733 0.0
H4305 H 0.44171 0.22094 0.27429 0.0
H4306 H 0.43902 0.22213 0.30819 0.0
C4307 C 0.40205 0.21094 0.31491 0.0
C4308 C 0.41515 0.21822 0.29054 0.0
C4309 C 0.39339 0.20568 0.3187 0.0
C4310 C 0.45492 0.23092 0.27491 0.0
C4311 C 0.44585 0.22658 0.27885 0.0
C4312 C 0.43237 0.22121 0.3032 0.0
C4313 C 0.40551 0.20928 0.30483 0.0
C4314 C 0.41482 0.21475 0.3008 0.0
C4315 C 0.44229 0.22932 0.28864 0.0
C4316 C 0.43275 0.22452 0.2929 0.0
H4317 H 0.38734 0.19174 0.29735 0.0
H4318 H 0.40256 0.20067 0.29087 0.0
H4319 H 0.42361 0.21367 0.31498 0.0
H4320 H 0.46129 0.24645 0.29502 0.0
H4321 H 0.4454 0.23893 0.30188 0.0
C4322 C 0.31045 0.88873 0.30475 0.0
C4323 C 0.31907 0.88952 0.31129 0.0
C4324 C 0.30553 0.89754 0.3011 0.0
C4325 C 0.30311 0.92559 0.30591 0.0
H4326 H 0.29295 0.92606 0.27783 0.0
C4327 C 0.29033 0.96292 0.28542 0.0
C4328 C 0.28127 0.96243 0.27947 0.0
C4329 C 0.29467 0.95398 0.28949 0.0
C4330 C 0.29565 0.92602 0.28572 0.0
H4331 H 0.32933 0.90021 0.31907 0.0
H4332 H 0.32089 0.91557 0.3126 0.0
H4333 H 0.30103 0.91061 0.28457 0.0
H4334 H 0.2697 0.95214 0.27306 0.0
H4335 H 0.27727 0.93653 0.28017 0.0
H4336 H 0.29788 0.94109 0.30696 0.0
C4337 C 0.31776 0.90815 0.31045 0.0
C4338 C 0.30027 0.91714 0.28961 0.0
C4339 C 0.32262 0.89933 0.31415 0.0
C4340 C 0.27665 0.95279 0.27767 0.0
C4341 C 0.28103 0.94384 0.28167 0.0
C4342 C 0.29856 0.93449 0.302 0.0
C4343 C 0.30915 0.90738 0.30385 0.0
C4344 C 0.30408 0.9168 0.29976 0.0
C4345 C 0.29009 0.94433 0.28763 0.0
C4346 C 0.29479 0.93482 0.29185 0.0
H4347 H 0.30744 0.88128 0.30251 0.0
H4348 H 0.29882 0.89662 0.2962 0.0
H4349 H 0.30577 0.92558 0.31382 0.0
H4350 H 0.29403 0.97024 0.28702 0.0
H4351 H 0.3017 0.95462 0.29398 0.0
C4352 C 0.70668 0.12733 0.71012 0.0
C4353 C 0.69668 0.12648 0.70598 0.0
C4354 C 0.71171 0.11867 0.714 0.0
C4355 C 0.7064 0.09236 0.72383 0.0
H4356 H 0.73578 0.08892 0.7202 0.0
C4357 C 0.72873 0.0606 0.74521 0.0
C4358 C 0.73638 0.05541 0.73975 0.0
C4359 C 0.72411 0.06936 0.74106 0.0
C4360 C 0.72756 0.08972 0.72122 0.0
H4361 H 0.68429 0.1158 0.70233 0.0
H4362 H 0.69306 0.10071 0.70899 0.0
H4363 H 0.72731 0.1038 0.71265 0.0
H4364 H 0.74513 0.05536 0.7256 0.0
H4365 H 0.73704 0.07059 0.71833 0.0
H4366 H 0.70658 0.07818 0.73218 0.0
C4367 C 0.69695 0.10809 0.70947 0.0
C4368 C 0.72271 0.09832 0.71699 0.0
C4369 C 0.69191 0.11675 0.70563 0.0
C4370 C 0.73936 0.05925 0.73007 0.0
C4371 C 0.73472 0.06799 0.72591 0.0
C4372 C 0.71123 0.08376 0.72804 0.0
C4373 C 0.70687 0.10894 0.7138 0.0
C4374 C 0.71207 0.09976 0.71824 0.0
C4375 C 0.727 0.07314 0.73133 0.0
C4376 C 0.72188 0.08232 0.72681 0.0
H4377 H 0.71053 0.13473 0.71062 0.0
H4378 H 0.71929 0.11965 0.7174 0.0
H4379 H 0.69821 0.09326 0.72506 0.0
H4380 H 0.72636 0.05796 0.75276 0.0
H4381 H 0.71833 0.07322 0.74555 0.0
C4382 C 0.7007 0.89563 0.31638 0.0
C4383 C 0.70012 0.88668 0.31041 0.0
C4384 C 0.70575 0.90442 0.31266 0.0
C4385 C 0.71439 0.91664 0.28838 0.0
H4386 H 0.73028 0.93419 0.30665 0.0
C4387 C 0.72853 0.95689 0.27592 0.0
C4388 C 0.73839 0.96012 0.27913 0.0
C4389 C 0.72413 0.94784 0.27978 0.0
C4390 C 0.72596 0.92933 0.30142 0.0
H4391 H 0.70467 0.87983 0.29601 0.0
H4392 H 0.7136 0.89511 0.28956 0.0
H4393 H 0.72247 0.91841 0.3133 0.0
H4394 H 0.75143 0.9563 0.28885 0.0
H4395 H 0.7438 0.94042 0.29553 0.0
H4396 H 0.71806 0.92741 0.27645 0.0
C4397 C 0.70995 0.89543 0.29702 0.0
C4398 C 0.72136 0.92034 0.30526 0.0
C4399 C 0.70485 0.88666 0.30072 0.0
C4400 C 0.74376 0.95408 0.28631 0.0
C4401 C 0.73938 0.94499 0.29015 0.0
C4402 C 0.719 0.9256 0.28453 0.0
C4403 C 0.71039 0.90445 0.3029 0.0
C4404 C 0.71549 0.9139 0.2988 0.0
C4405 C 0.7295 0.94175 0.28693 0.0
C4406 C 0.7248 0.93209 0.29101 0.0
H4407 H 0.69702 0.89593 0.32382 0.0
H4408 H 0.7058 0.91127 0.31733 0.0
H4409 H 0.70982 0.91194 0.2832 0.0
H4410 H 0.72412 0.96147 0.27052 0.0
H4411 H 0.71643 0.94569 0.27728 0.0
C4412 C 0.61655 0.1912 0.31376 0.0
C4413 C 0.62637 0.19583 0.31317 0.0
C4414 C 0.60784 0.19633 0.31015 0.0
C4415 C 0.59813 0.22212 0.30294 0.0
H4416 H 0.57741 0.20631 0.28815 0.0
C4417 C 0.5643 0.24093 0.28068 0.0
C4418 C 0.55457 0.23612 0.28144 0.0
C4419 C 0.5731 0.23622 0.28472 0.0
C4420 C 0.58306 0.21082 0.29236 0.0
H4421 H 0.6347 0.20954 0.30834 0.0
H4422 H 0.6195 0.21847 0.30197 0.0
H4423 H 0.59262 0.19779 0.29491 0.0
H4424 H 0.54647 0.22267 0.28732 0.0
H4425 H 0.56177 0.21446 0.29428 0.0
H4426 H 0.58855 0.23518 0.30029 0.0
C4427 C 0.61851 0.21092 0.30537 0.0
C4428 C 0.59179 0.20593 0.29626 0.0
C4429 C 0.62724 0.2058 0.30902 0.0
C4430 C 0.55385 0.22652 0.28641 0.0
C4431 C 0.56264 0.22181 0.29042 0.0
C4432 C 0.58939 0.22702 0.29901 0.0
C4433 C 0.6087 0.20622 0.30582 0.0
C4434 C 0.59943 0.2115 0.30164 0.0
C4435 C 0.57238 0.22657 0.28959 0.0
C4436 C 0.58174 0.22142 0.2937 0.0
H4437 H 0.61559 0.18361 0.31707 0.0
H4438 H 0.60039 0.19254 0.31083 0.0
H4439 H 0.60377 0.22663 0.30716 0.0
H4440 H 0.56517 0.24826 0.27679 0.0
H4441 H 0.58049 0.24005 0.28384 0.0
C4442 C 0.30238 0.12144 0.32676 0.0
C4443 C 0.30919 0.12837 0.32189 0.0
C4444 C 0.29875 0.11269 0.32166 0.0
C4445 C 0.30444 0.09528 0.30019 0.0
H4446 H 0.27556 0.08775 0.30265 0.0
C4447 C 0.28588 0.06227 0.27654 0.0
C4448 C 0.27862 0.05593 0.28155 0.0
C4449 C 0.28965 0.0712 0.28125 0.0
C4450 C 0.28367 0.08966 0.30197 0.0
H4451 H 0.3175 0.13147 0.30775 0.0
H4452 H 0.31123 0.11614 0.29889 0.0
H4453 H 0.28212 0.10305 0.31127 0.0
H4454 H 0.2698 0.05391 0.29555 0.0
H4455 H 0.27641 0.0694 0.30377 0.0
H4456 H 0.30602 0.08183 0.29098 0.0
C4457 C 0.30877 0.11746 0.30671 0.0
C4458 C 0.28743 0.09845 0.30691 0.0
C4459 C 0.31237 0.12624 0.3118 0.0
C4460 C 0.27525 0.05871 0.2914 0.0
C4461 C 0.27904 0.06761 0.29611 0.0
C4462 C 0.30069 0.08645 0.29528 0.0
C4463 C 0.30186 0.11061 0.31156 0.0
C4464 C 0.29786 0.10135 0.30612 0.0
C4465 C 0.28627 0.074 0.29109 0.0
C4466 C 0.29026 0.0835 0.29614 0.0
H4467 H 0.29992 0.1227 0.3346 0.0
H4468 H 0.29358 0.10748 0.32569 0.0
H4469 H 0.31254 0.09723 0.29953 0.0
H4470 H 0.28854 0.06041 0.2689 0.0
H4471 H 0.2951 0.076 0.27709 0.0
C4472 C 0.39395 0.80112 0.32166 0.0
C4473 C 0.39039 0.81109 0.31962 0.0
C4474 C 0.40271 0.79742 0.31677 0.0
C4475 C 0.41948 0.80138 0.29417 0.0
H4476 H 0.43908 0.78589 0.31042 0.0
C4477 C 0.45917 0.78908 0.27831 0.0
C4478 C 0.46271 0.77929 0.28111 0.0
C4479 C 0.45032 0.7931 0.28282 0.0
C4480 C 0.43364 0.79009 0.30573 0.0
H4481 H 0.39331 0.82494 0.31072 0.0
H4482 H 0.40858 0.81844 0.30213 0.0
H4483 H 0.42375 0.79264 0.31855 0.0
H4484 H 0.45952 0.76592 0.29063 0.0
H4485 H 0.4441 0.77288 0.29844 0.0
H4486 H 0.42937 0.79877 0.28132 0.0
C4487 C 0.40452 0.81347 0.30748 0.0
C4488 C 0.42484 0.79397 0.3104 0.0
C4489 C 0.39575 0.8172 0.3124 0.0
C4490 C 0.45712 0.77357 0.28843 0.0
C4491 C 0.44827 0.77756 0.29292 0.0
C4492 C 0.42829 0.79747 0.28948 0.0
C4493 C 0.40815 0.80356 0.30967 0.0
C4494 C 0.41762 0.79962 0.30468 0.0
C4495 C 0.44478 0.78741 0.29022 0.0
C4496 C 0.43546 0.79172 0.29519 0.0
H4497 H 0.38991 0.79611 0.32699 0.0
H4498 H 0.40516 0.78968 0.31849 0.0
H4499 H 0.41402 0.8056 0.28951 0.0
H4500 H 0.46336 0.79375 0.27279 0.0
H4501 H 0.44794 0.80075 0.28065 0.0
C4502 C 0.31251 0.88893 0.71578 0.0
C4503 C 0.31793 0.88918 0.70645 0.0
C4504 C 0.30759 0.89768 0.71939 0.0
C4505 C 0.29794 0.92324 0.71134 0.0
H4506 H 0.29986 0.92899 0.7405 0.0
C4507 C 0.2755 0.95627 0.7304 0.0
C4508 C 0.28061 0.96192 0.73811 0.0
C4509 C 0.27989 0.9474 0.72637 0.0
C4510 C 0.29931 0.92756 0.73232 0.0
H4511 H 0.32235 0.89885 0.69356 0.0
H4512 H 0.31382 0.91416 0.69987 0.0
H4513 H 0.3078 0.91364 0.7337 0.0
H4514 H 0.29448 0.96277 0.74744 0.0
H4515 H 0.30213 0.94735 0.74042 0.0
H4516 H 0.28966 0.93731 0.70994 0.0
C4517 C 0.31325 0.90714 0.70434 0.0
C4518 C 0.30375 0.91867 0.72844 0.0
C4519 C 0.31814 0.89836 0.70072 0.0
C4520 C 0.29025 0.95851 0.74164 0.0
C4521 C 0.29464 0.94965 0.73761 0.0
C4522 C 0.29349 0.93215 0.71523 0.0
C4523 C 0.30799 0.90694 0.71378 0.0
C4524 C 0.30314 0.91639 0.71789 0.0
C4525 C 0.2895 0.94395 0.72995 0.0
C4526 C 0.29414 0.93443 0.72577 0.0
H4527 H 0.31203 0.88193 0.7203 0.0
H4528 H 0.30344 0.89718 0.72658 0.0
H4529 H 0.29723 0.92169 0.70319 0.0
H4530 H 0.26801 0.9586 0.72759 0.0
H4531 H 0.27564 0.94313 0.72059 0.0
C4532 C 0.62087 0.81585 0.7016 0.0
C4533 C 0.62972 0.80977 0.7011 0.0
C4534 C 0.61205 0.81229 0.70671 0.0
C4535 C 0.59941 0.78827 0.71583 0.0
H4536 H 0.58271 0.8068 0.73173 0.0
C4537 C 0.56542 0.77386 0.74077 0.0
C4538 C 0.5563 0.77958 0.74038 0.0
C4539 C 0.57448 0.77764 0.73629 0.0
C4540 C 0.58724 0.80155 0.72724 0.0
H4541 H 0.63635 0.79529 0.70586 0.0
H4542 H 0.62103 0.78912 0.71485 0.0
H4543 H 0.59835 0.81323 0.72345 0.0
H4544 H 0.5496 0.79378 0.73488 0.0
H4545 H 0.56542 0.8004 0.72713 0.0
H4546 H 0.58831 0.77659 0.71964 0.0
C4547 C 0.62081 0.79656 0.71111 0.0
C4548 C 0.59621 0.80523 0.72248 0.0
C4549 C 0.6296 0.8001 0.70596 0.0
C4550 C 0.55651 0.78923 0.73547 0.0
C4551 C 0.56558 0.79303 0.73102 0.0
C4552 C 0.59047 0.78458 0.72061 0.0
C4553 C 0.61188 0.80257 0.71149 0.0
C4554 C 0.6024 0.79865 0.71669 0.0
C4555 C 0.57467 0.78726 0.73132 0.0
C4556 C 0.58426 0.79118 0.72636 0.0
H4557 H 0.62066 0.82328 0.69783 0.0
H4558 H 0.60528 0.81707 0.70672 0.0
H4559 H 0.60388 0.78301 0.71128 0.0
H4560 H 0.56559 0.76648 0.74464 0.0
H4561 H 0.58138 0.77307 0.73681 0.0
C4562 C 0.38669 0.21745 0.70786 0.0
C4563 C 0.38715 0.20903 0.70118 0.0
C4564 C 0.39561 0.22115 0.71273 0.0
C4565 C 0.42256 0.21408 0.71929 0.0
H4566 H 0.42609 0.24348 0.72245 0.0
C4567 C 0.45703 0.23157 0.74166 0.0
C4568 C 0.46154 0.24065 0.73776 0.0
C4569 C 0.44781 0.22772 0.73754 0.0
C4570 C 0.42529 0.23525 0.72155 0.0
H4571 H 0.3973 0.19795 0.69429 0.0
H4572 H 0.41288 0.20451 0.7026 0.0
H4573 H 0.41047 0.23671 0.71447 0.0
H4574 H 0.45972 0.25285 0.7265 0.0
H4575 H 0.4439 0.24595 0.71906 0.0
H4576 H 0.43755 0.21265 0.726 0.0
C4577 C 0.40562 0.20812 0.7043 0.0
C4578 C 0.41624 0.23135 0.7171 0.0
C4579 C 0.39669 0.20437 0.69951 0.0
C4580 C 0.45657 0.24577 0.72962 0.0
C4581 C 0.44739 0.24188 0.72545 0.0
C4582 C 0.43164 0.21798 0.72367 0.0
C4583 C 0.4052 0.21658 0.71096 0.0
C4584 C 0.41476 0.22071 0.71589 0.0
C4585 C 0.44288 0.2328 0.72935 0.0
C4586 C 0.43314 0.22863 0.72484 0.0
H4587 H 0.37942 0.22111 0.7094 0.0
H4588 H 0.39495 0.22755 0.71795 0.0
H4589 H 0.42165 0.20584 0.71861 0.0
H4590 H 0.46069 0.22734 0.74784 0.0
H4591 H 0.44452 0.22078 0.74083 0.0
C4592 C 0.70443 0.69218 0.11772 0.0
C4593 C 0.70459 0.69703 0.12735 0.0
C4594 C 0.70824 0.69723 0.10899 0.0
C4595 C 0.72602 0.71809 0.10108 0.0
H4596 H 0.71199 0.71557 0.07482 0.0
C4597 C 0.73957 0.74041 0.06485 0.0
C4598 C 0.73928 0.73514 0.05544 0.0
C4599 C 0.73508 0.73611 0.07366 0.0
C4600 C 0.71608 0.71626 0.08207 0.0
H4601 H 0.70885 0.71102 0.13533 0.0
H4602 H 0.71542 0.71988 0.12007 0.0
H4603 H 0.70454 0.70751 0.09007 0.0
H4604 H 0.73387 0.72124 0.04794 0.0
H4605 H 0.72628 0.71365 0.06332 0.0
H4606 H 0.73762 0.72673 0.09307 0.0
C4607 C 0.71241 0.71213 0.11929 0.0
C4608 C 0.71179 0.71165 0.09082 0.0
C4609 C 0.70854 0.7071 0.12802 0.0
C4610 C 0.73436 0.72547 0.05507 0.0
C4611 C 0.72988 0.72117 0.06388 0.0
C4612 C 0.73033 0.72268 0.09232 0.0
C4613 C 0.71235 0.70724 0.10967 0.0
C4614 C 0.71674 0.71245 0.10043 0.0
C4615 C 0.73017 0.72643 0.07329 0.0
C4616 C 0.72544 0.72178 0.08268 0.0
H4617 H 0.70134 0.68447 0.11691 0.0
H4618 H 0.70816 0.6932 0.10173 0.0
H4619 H 0.73011 0.71874 0.10833 0.0
H4620 H 0.74338 0.74782 0.06544 0.0
H4621 H 0.73536 0.74043 0.08074 0.0
C4622 C 0.30654 0.7077 0.13041 0.0
C4623 C 0.30995 0.69751 0.13006 0.0
C4624 C 0.30294 0.71259 0.12152 0.0
C4625 C 0.29256 0.70695 0.09555 0.0
H4626 H 0.29875 0.7357 0.09034 0.0
C4627 C 0.28317 0.72649 0.05681 0.0
C4628 C 0.2788 0.73631 0.05715 0.0
C4629 C 0.28711 0.72192 0.06571 0.0
C4630 C 0.29688 0.72769 0.09174 0.0
H4631 H 0.31256 0.68458 0.12003 0.0
H4632 H 0.3064 0.69312 0.10451 0.0
H4633 H 0.3055 0.72743 0.10581 0.0
H4634 H 0.27515 0.749 0.06717 0.0
H4635 H 0.28211 0.74104 0.0827 0.0
H4636 H 0.28399 0.7072 0.08146 0.0
C4637 C 0.30627 0.69727 0.11169 0.0
C4638 C 0.30073 0.72295 0.10061 0.0
C4639 C 0.30982 0.69237 0.12059 0.0
C4640 C 0.27857 0.74149 0.0666 0.0
C4641 C 0.28256 0.73693 0.07551 0.0
C4642 C 0.28874 0.71168 0.08668 0.0
C4643 C 0.30271 0.70742 0.11205 0.0
C4644 C 0.29863 0.71251 0.10262 0.0
C4645 C 0.28682 0.72707 0.07517 0.0
C4646 C 0.29087 0.72209 0.08466 0.0
H4647 H 0.30643 0.71182 0.13762 0.0
H4648 H 0.30012 0.72036 0.12211 0.0
H4649 H 0.29061 0.69896 0.09695 0.0
H4650 H 0.28366 0.72237 0.04963 0.0
H4651 H 0.2905 0.71439 0.06517 0.0
C4652 C 0.31516 0.30962 0.12565 0.0
C4653 C 0.31195 0.31967 0.12777 0.0
C4654 C 0.3118 0.30458 0.11674 0.0
C4655 C 0.30031 0.30945 0.09094 0.0
H4656 H 0.2928 0.28058 0.0923 0.0
C4657 C 0.27796 0.28911 0.05826 0.0
C4658 C 0.28109 0.27921 0.0555 0.0
C4659 C 0.28207 0.2939 0.06698 0.0
C4660 C 0.29498 0.28862 0.09176 0.0
H4661 H 0.30281 0.33232 0.122 0.0
H4662 H 0.29675 0.32345 0.10669 0.0
H4663 H 0.29938 0.2892 0.10764 0.0
H4664 H 0.29092 0.26654 0.05984 0.0
H4665 H 0.29814 0.27495 0.07505 0.0
H4666 H 0.29578 0.30889 0.0751 0.0
C4667 C 0.30197 0.3195 0.11183 0.0
C4668 C 0.29877 0.29356 0.10056 0.0
C4669 C 0.30535 0.32454 0.12071 0.0
C4670 C 0.28841 0.2742 0.06171 0.0
C4671 C 0.29247 0.27898 0.07048 0.0
C4672 C 0.29649 0.30452 0.08217 0.0
C4673 C 0.30514 0.30944 0.10972 0.0
C4674 C 0.30142 0.30406 0.10028 0.0
C4675 C 0.28937 0.28891 0.0732 0.0
C4676 C 0.29371 0.29406 0.08249 0.0
H4677 H 0.32017 0.30559 0.13095 0.0
H4678 H 0.3145 0.29688 0.11532 0.0
H4679 H 0.30247 0.31748 0.09037 0.0
H4680 H 0.27243 0.29322 0.0536 0.0
H4681 H 0.27943 0.30151 0.06892 0.0
C4682 C 0.70597 0.32445 0.11889 0.0
C4683 C 0.70612 0.31946 0.1285 0.0
C4684 C 0.70975 0.31961 0.11015 0.0
C4685 C 0.71662 0.29416 0.09966 0.0
H4686 H 0.73278 0.31053 0.08051 0.0
C4687 C 0.73965 0.27631 0.06624 0.0
C4688 C 0.73944 0.2815 0.05673 0.0
C4689 C 0.73544 0.28076 0.07502 0.0
C4690 C 0.72819 0.30586 0.08572 0.0
H4691 H 0.71031 0.30543 0.13643 0.0
H4692 H 0.71697 0.29699 0.12117 0.0
H4693 H 0.72563 0.31855 0.09571 0.0
H4694 H 0.73435 0.29534 0.04897 0.0
H4695 H 0.72706 0.30309 0.06426 0.0
H4696 H 0.71927 0.28145 0.08966 0.0
C4697 C 0.7138 0.3046 0.12037 0.0
C4698 C 0.72407 0.31047 0.09444 0.0
C4699 C 0.70998 0.30944 0.12912 0.0
C4700 C 0.73484 0.29121 0.05621 0.0
C4701 C 0.73064 0.29565 0.06497 0.0
C4702 C 0.72077 0.28954 0.09094 0.0
C4703 C 0.71381 0.30966 0.11078 0.0
C4704 C 0.7182 0.30469 0.10151 0.0
C4705 C 0.73092 0.29051 0.0745 0.0
C4706 C 0.72658 0.29535 0.08384 0.0
H4707 H 0.70288 0.3321 0.11812 0.0
H4708 H 0.70944 0.32366 0.10286 0.0
H4709 H 0.71204 0.2895 0.10487 0.0
H4710 H 0.74325 0.26888 0.06696 0.0
H4711 H 0.73589 0.27664 0.08226 0.0
C4712 C 0.70798 0.32571 0.90062 0.0
C4713 C 0.70787 0.32061 0.89114 0.0
C4714 C 0.71169 0.32085 0.90947 0.0
C4715 C 0.71781 0.29525 0.92042 0.0
H4716 H 0.73444 0.31124 0.93946 0.0
C4717 C 0.74058 0.27698 0.95416 0.0
C4718 C 0.7403 0.28211 0.96365 0.0
C4719 C 0.73647 0.28152 0.9453 0.0
C4720 C 0.72973 0.30669 0.93427 0.0
H4721 H 0.71157 0.30639 0.8835 0.0
H4722 H 0.71816 0.29792 0.89892 0.0
H4723 H 0.72752 0.3194 0.92407 0.0
H4724 H 0.73525 0.29593 0.97125 0.0
H4725 H 0.7282 0.30387 0.95579 0.0
H4726 H 0.72013 0.28251 0.93062 0.0
C4727 C 0.71521 0.30562 0.89957 0.0
C4728 C 0.72574 0.31138 0.92545 0.0
C4729 C 0.71145 0.31048 0.89072 0.0
C4730 C 0.73578 0.29185 0.96405 0.0
C4731 C 0.73172 0.2964 0.95519 0.0
C4732 C 0.72184 0.29055 0.92923 0.0
C4733 C 0.71543 0.31077 0.90905 0.0
C4734 C 0.71969 0.30573 0.91842 0.0
C4735 C 0.73204 0.2913 0.9457 0.0
C4736 C 0.72782 0.29623 0.93627 0.0
H4737 H 0.70512 0.33346 0.90123 0.0
H4738 H 0.71155 0.32497 0.91668 0.0
H4739 H 0.71307 0.2907 0.91525 0.0
H4740 H 0.74412 0.26953 0.95355 0.0
H4741 H 0.73695 0.27746 0.93808 0.0
C4742 C 0.70841 0.70083 0.89265 0.0
C4743 C 0.69835 0.70404 0.8903 0.0
C4744 C 0.71346 0.70431 0.90153 0.0
C4745 C 0.70852 0.71613 0.92694 0.0
H4746 H 0.73749 0.72362 0.92582 0.0
C4747 C 0.72877 0.73877 0.95942 0.0
C4748 C 0.73871 0.73572 0.96238 0.0
C4749 C 0.724 0.73459 0.95071 0.0
C4750 C 0.72943 0.72145 0.92629 0.0
H4751 H 0.68568 0.71331 0.89563 0.0
H4752 H 0.69456 0.71957 0.91089 0.0
H4753 H 0.7289 0.71685 0.91051 0.0
H4754 H 0.75148 0.72595 0.95841 0.0
H4755 H 0.74311 0.71858 0.94324 0.0
H4756 H 0.70901 0.72084 0.94268 0.0
C4757 C 0.69852 0.71427 0.90594 0.0
C4758 C 0.7245 0.71756 0.91752 0.0
C4759 C 0.69347 0.71078 0.89709 0.0
C4760 C 0.74378 0.72841 0.95639 0.0
C4761 C 0.73903 0.72425 0.94764 0.0
C4762 C 0.71343 0.72006 0.93569 0.0
C4763 C 0.70859 0.71109 0.90829 0.0
C4764 C 0.71395 0.71491 0.91771 0.0
C4765 C 0.72906 0.72727 0.94472 0.0
C4766 C 0.72393 0.72283 0.93546 0.0
H4767 H 0.71244 0.69572 0.88756 0.0
H4768 H 0.72117 0.70162 0.90314 0.0
H4769 H 0.70045 0.71399 0.92745 0.0
H4770 H 0.72459 0.74431 0.96391 0.0
H4771 H 0.71636 0.73717 0.94862 0.0
C4772 C 0.32448 0.71139 0.89949 0.0
C4773 C 0.31886 0.70672 0.89147 0.0
C4774 C 0.3195 0.71481 0.90832 0.0
C4775 C 0.29395 0.7224 0.91799 0.0
H4776 H 0.30704 0.71917 0.94465 0.0
C4777 C 0.27943 0.74304 0.95435 0.0
C4778 C 0.27967 0.73762 0.96373 0.0
C4779 C 0.2839 0.73895 0.94552 0.0
C4780 C 0.30322 0.72005 0.93728 0.0
H4781 H 0.30356 0.70202 0.88649 0.0
H4782 H 0.2949 0.7078 0.90198 0.0
H4783 H 0.31531 0.71237 0.92941 0.0
H4784 H 0.28485 0.72363 0.97115 0.0
H4785 H 0.29243 0.71642 0.95573 0.0
H4786 H 0.28177 0.72994 0.9259 0.0
C4787 C 0.30315 0.70892 0.90138 0.0
C4788 C 0.30803 0.71626 0.92852 0.0
C4789 C 0.30814 0.70549 0.89254 0.0
C4790 C 0.28442 0.72797 0.96404 0.0
C4791 C 0.28888 0.72389 0.95521 0.0
C4792 C 0.28913 0.7262 0.92676 0.0
C4793 C 0.30877 0.71364 0.90938 0.0
C4794 C 0.30349 0.71743 0.91874 0.0
C4795 C 0.28873 0.72934 0.94585 0.0
C4796 C 0.29373 0.72511 0.93652 0.0
H4797 H 0.33276 0.71234 0.89899 0.0
H4798 H 0.32406 0.71851 0.91426 0.0
H4799 H 0.29027 0.72353 0.91058 0.0
H4800 H 0.27575 0.75043 0.9538 0.0
H4801 H 0.28372 0.74342 0.93848 0.0
C4802 C 0.31565 0.30862 0.89212 0.0
C4803 C 0.31231 0.31858 0.88969 0.0
C4804 C 0.31221 0.30362 0.90105 0.0
C4805 C 0.30036 0.30866 0.92646 0.0
H4806 H 0.29321 0.27969 0.92569 0.0
C4807 C 0.27799 0.28856 0.95927 0.0
C4808 C 0.28117 0.27872 0.96232 0.0
C4809 C 0.28211 0.29327 0.95049 0.0
C4810 C 0.29528 0.28776 0.92607 0.0
H4811 H 0.30287 0.33114 0.89491 0.0
H4812 H 0.2967 0.32236 0.91027 0.0
H4813 H 0.29985 0.28817 0.91027 0.0
H4814 H 0.2911 0.26607 0.95844 0.0
H4815 H 0.29836 0.27432 0.94315 0.0
H4816 H 0.29569 0.30827 0.94222 0.0
C4817 C 0.30207 0.31843 0.90535 0.0
C4818 C 0.2991 0.29262 0.91722 0.0
C4819 C 0.3055 0.32342 0.89645 0.0
C4820 C 0.28855 0.27368 0.95635 0.0
C4821 C 0.29263 0.27838 0.94753 0.0
C4822 C 0.29651 0.3038 0.93528 0.0
C4823 C 0.30537 0.30846 0.90779 0.0
C4824 C 0.30162 0.30316 0.91728 0.0
C4825 C 0.28949 0.28824 0.94451 0.0
C4826 C 0.29386 0.29331 0.93518 0.0
H4827 H 0.32081 0.30461 0.88706 0.0
H4828 H 0.315 0.29599 0.90273 0.0
H4829 H 0.30241 0.31673 0.92687 0.0
H4830 H 0.2724 0.2927 0.96374 0.0
H4831 H 0.27943 0.30082 0.94833 0.0
C4832 C 0.6274 0.70865 0.20803 0.0
C4833 C 0.62661 0.70459 0.19806 0.0
C4834 C 0.61873 0.71255 0.21296 0.0
C4835 C 0.5927 0.72265 0.20733 0.0
H4836 H 0.58828 0.71851 0.23653 0.0
C4837 C 0.55469 0.73386 0.22692 0.0
C4838 C 0.55534 0.73858 0.2366 0.0
C4839 C 0.5634 0.72958 0.22242 0.0
C4840 C 0.58946 0.71983 0.22839 0.0
H4841 H 0.61596 0.70107 0.18564 0.0
H4842 H 0.60085 0.70776 0.19424 0.0
H4843 H 0.60339 0.71115 0.22837 0.0
H4844 H 0.56574 0.74252 0.24911 0.0
H4845 H 0.58093 0.73503 0.24127 0.0
H4846 H 0.57879 0.7313 0.20732 0.0
C4847 C 0.60822 0.70817 0.19817 0.0
C4848 C 0.59813 0.71561 0.22371 0.0
C4849 C 0.61689 0.70432 0.19324 0.0
C4850 C 0.56492 0.73883 0.24171 0.0
C4851 C 0.57364 0.73453 0.23721 0.0
C4852 C 0.58405 0.72684 0.212 0.0
C4853 C 0.60904 0.71244 0.20806 0.0
C4854 C 0.59984 0.71694 0.21311 0.0
C4855 C 0.573 0.72989 0.22749 0.0
C4856 C 0.58229 0.72547 0.22258 0.0
H4857 H 0.63479 0.70909 0.21191 0.0
H4858 H 0.61967 0.71588 0.22052 0.0
H4859 H 0.59387 0.72401 0.1992 0.0
H4860 H 0.54741 0.73334 0.22285 0.0
H4861 H 0.56258 0.7259 0.21501 0.0
C4862 C 0.31323 0.62985 0.21953 0.0
C4863 C 0.31795 0.63025 0.20983 0.0
C4864 C 0.30826 0.62088 0.22291 0.0
C4865 C 0.30767 0.59295 0.21899 0.0
H4866 H 0.2813 0.59413 0.23278 0.0
C4867 C 0.28471 0.55626 0.22965 0.0
C4868 C 0.27969 0.55603 0.2392 0.0
C4869 C 0.28909 0.56537 0.22588 0.0
C4870 C 0.28872 0.59367 0.22905 0.0
H4871 H 0.32117 0.62153 0.19608 0.0
H4872 H 0.31243 0.60589 0.20197 0.0
H4873 H 0.28947 0.60993 0.22657 0.0
H4874 H 0.2752 0.5653 0.2522 0.0
H4875 H 0.2831 0.58112 0.24578 0.0
H4876 H 0.30703 0.57673 0.22157 0.0
C4877 C 0.31262 0.61251 0.20697 0.0
C4878 C 0.29339 0.60273 0.22548 0.0
C4879 C 0.31753 0.6215 0.20356 0.0
C4880 C 0.27911 0.56517 0.24487 0.0
C4881 C 0.28353 0.57427 0.24112 0.0
C4882 C 0.30303 0.5839 0.2226 0.0
C4883 C 0.30795 0.61209 0.2167 0.0
C4884 C 0.30292 0.60247 0.22041 0.0
C4885 C 0.28861 0.57449 0.23159 0.0
C4886 C 0.2935 0.58414 0.22768 0.0
H4887 H 0.31335 0.6365 0.22449 0.0
H4888 H 0.3048 0.62078 0.23047 0.0
H4889 H 0.31509 0.59251 0.21525 0.0
H4890 H 0.2854 0.54936 0.22512 0.0
H4891 H 0.29282 0.56527 0.21845 0.0
C4892 C 0.39635 0.30465 0.19419 0.0
C4893 C 0.38979 0.31168 0.19897 0.0
C4894 C 0.4051 0.301 0.19926 0.0
C4895 C 0.42334 0.30675 0.2204 0.0
H4896 H 0.42955 0.2778 0.21839 0.0
C4897 C 0.45621 0.28784 0.24395 0.0
C4898 C 0.46209 0.28036 0.23898 0.0
C4899 C 0.44734 0.29178 0.23928 0.0
C4900 C 0.42801 0.28593 0.21894 0.0
H4901 H 0.38741 0.3204 0.2129 0.0
H4902 H 0.40276 0.31409 0.22172 0.0
H4903 H 0.41428 0.2845 0.20986 0.0
H4904 H 0.46336 0.27137 0.22507 0.0
H4905 H 0.44797 0.27826 0.21693 0.0
H4906 H 0.43714 0.30819 0.22941 0.0
C4907 C 0.40113 0.31146 0.21399 0.0
C4908 C 0.41924 0.28977 0.21405 0.0
C4909 C 0.39233 0.31509 0.20892 0.0
C4910 C 0.45892 0.27698 0.2292 0.0
C4911 C 0.45007 0.28094 0.22453 0.0
C4912 C 0.43216 0.30291 0.22526 0.0
C4913 C 0.40758 0.30431 0.20924 0.0
C4914 C 0.41682 0.30024 0.21467 0.0
C4915 C 0.44413 0.28836 0.22952 0.0
C4916 C 0.43464 0.29246 0.22455 0.0
H4917 H 0.39477 0.30202 0.18645 0.0
H4918 H 0.41 0.29566 0.1953 0.0
H4919 H 0.42177 0.31488 0.22094 0.0
H4920 H 0.45837 0.29052 0.25153 0.0
H4921 H 0.44289 0.29738 0.24342 0.0
C4922 C 0.69867 0.39732 0.20349 0.0
C4923 C 0.70053 0.3877 0.20804 0.0
C4924 C 0.70362 0.40617 0.20717 0.0
C4925 C 0.71715 0.41627 0.23027 0.0
H4926 H 0.7255 0.43813 0.21165 0.0
C4927 C 0.72999 0.45615 0.245 0.0
C4928 C 0.73806 0.46129 0.23986 0.0
C4929 C 0.72571 0.44709 0.24104 0.0
C4930 C 0.72332 0.43206 0.21696 0.0
H4931 H 0.7093 0.3798 0.21982 0.0
H4932 H 0.71806 0.39518 0.22615 0.0
H4933 H 0.71788 0.42242 0.20477 0.0
H4934 H 0.74791 0.46087 0.22644 0.0
H4935 H 0.74067 0.44493 0.21971 0.0
H4936 H 0.72282 0.42578 0.24244 0.0
C4937 C 0.71259 0.39595 0.21989 0.0
C4938 C 0.71881 0.42309 0.21302 0.0
C4939 C 0.70759 0.38712 0.21625 0.0
C4940 C 0.74178 0.45708 0.23068 0.0
C4941 C 0.73753 0.44799 0.22674 0.0
C4942 C 0.72169 0.42521 0.23421 0.0
C4943 C 0.7106 0.40561 0.21547 0.0
C4944 C 0.71562 0.41509 0.21962 0.0
C4945 C 0.72941 0.44289 0.23185 0.0
C4946 C 0.72479 0.43326 0.22761 0.0
H4947 H 0.69318 0.39804 0.19723 0.0
H4948 H 0.70176 0.41348 0.20367 0.0
H4949 H 0.71468 0.41034 0.23561 0.0
H4950 H 0.727 0.45907 0.25215 0.0
H4951 H 0.71939 0.44346 0.24513 0.0
C4952 C 0.61986 0.30999 0.826 0.0
C4953 C 0.62951 0.31005 0.82113 0.0
C4954 C 0.61108 0.30635 0.82087 0.0
C4955 C 0.6007 0.30035 0.79494 0.0
H4956 H 0.58101 0.28391 0.8104 0.0
C4957 C 0.56103 0.28801 0.77826 0.0
C4958 C 0.55732 0.27814 0.78077 0.0
C4959 C 0.56996 0.29193 0.78293 0.0
C4960 C 0.58647 0.28841 0.80593 0.0
H4961 H 0.63749 0.30634 0.80706 0.0
H4962 H 0.62218 0.29988 0.79814 0.0
H4963 H 0.59634 0.29064 0.81895 0.0
H4964 H 0.56028 0.2645 0.78989 0.0
H4965 H 0.5759 0.27127 0.79796 0.0
H4966 H 0.59093 0.29788 0.78185 0.0
C4967 C 0.62137 0.30281 0.80586 0.0
C4968 C 0.5952 0.2924 0.81088 0.0
C4969 C 0.63015 0.3065 0.81098 0.0
C4970 C 0.56284 0.2722 0.78792 0.0
C4971 C 0.57179 0.2761 0.79256 0.0
C4972 C 0.59196 0.29634 0.78998 0.0
C4973 C 0.61173 0.30263 0.81077 0.0
C4974 C 0.60242 0.29843 0.80546 0.0
C4975 C 0.57541 0.28605 0.79019 0.0
C4976 C 0.58474 0.29031 0.79542 0.0
H4977 H 0.61909 0.31284 0.83376 0.0
H4978 H 0.60376 0.30652 0.82482 0.0
H4979 H 0.60604 0.30505 0.79055 0.0
H4980 H 0.55688 0.29282 0.77287 0.0
H4981 H 0.57245 0.29967 0.78102 0.0
C4982 C 0.70827 0.62602 0.81036 0.0
C4983 C 0.70437 0.62516 0.8204 0.0
C4984 C 0.71199 0.61739 0.80527 0.0
C4985 C 0.71094 0.58899 0.80538 0.0
H4986 H 0.73676 0.59137 0.79065 0.0
C4987 C 0.73279 0.55343 0.79122 0.0
C4988 C 0.73773 0.55402 0.78163 0.0
C4989 C 0.72847 0.56215 0.79561 0.0
C4990 C 0.72947 0.59059 0.7946 0.0
H4991 H 0.70108 0.61449 0.83284 0.0
H4992 H 0.70765 0.59948 0.824 0.0
H4993 H 0.72954 0.60647 0.79878 0.0
H4994 H 0.74204 0.56434 0.76919 0.0
H4995 H 0.7343 0.57949 0.77673 0.0
H4996 H 0.71085 0.57313 0.80121 0.0
C4997 C 0.7078 0.60681 0.82005 0.0
C4998 C 0.72533 0.59925 0.79928 0.0
C4999 C 0.70413 0.61544 0.82516 0.0
C5000 C 0.7382 0.56357 0.77653 0.0
C5001 C 0.73387 0.57229 0.78092 0.0
C5002 C 0.71506 0.58033 0.80068 0.0
C5003 C 0.71184 0.60769 0.81007 0.0
C5004 C 0.71605 0.59855 0.80478 0.0
C5005 C 0.72895 0.5717 0.79053 0.0
C5006 C 0.72442 0.581 0.79528 0.0
H5007 H 0.70864 0.6334 0.80651 0.0
H5008 H 0.71496 0.61832 0.79755 0.0
H5009 H 0.7037 0.58821 0.80943 0.0
H5010 H 0.73216 0.54619 0.79531 0.0
H5011 H 0.72487 0.56141 0.80307 0.0
C5012 C 0.39398 0.70515 0.81848 0.0
C5013 C 0.38838 0.69821 0.8123 0.0
C5014 C 0.40277 0.71019 0.81467 0.0
C5015 C 0.42277 0.70795 0.79475 0.0
H5016 H 0.42775 0.73685 0.79999 0.0
C5017 C 0.45549 0.73038 0.77455 0.0
C5018 C 0.46117 0.73754 0.78038 0.0
C5019 C 0.44652 0.72583 0.77848 0.0
C5020 C 0.42654 0.72875 0.79856 0.0
H5021 H 0.3875 0.6914 0.79712 0.0
H5022 H 0.40284 0.70008 0.79055 0.0
H5023 H 0.41232 0.72845 0.80687 0.0
H5024 H 0.46186 0.74553 0.79494 0.0
H5025 H 0.44625 0.73754 0.80185 0.0
H5026 H 0.43699 0.70817 0.78652 0.0
C5027 C 0.40053 0.70151 0.7984 0.0
C5028 C 0.41769 0.72394 0.8025 0.0
C5029 C 0.39174 0.69652 0.80218 0.0
C5030 C 0.4576 0.74013 0.7902 0.0
C5031 C 0.44864 0.73556 0.79416 0.0
C5032 C 0.43162 0.71274 0.79085 0.0
C5033 C 0.40619 0.70837 0.80461 0.0
C5034 C 0.41567 0.71349 0.80059 0.0
C5035 C 0.44301 0.7283 0.78837 0.0
C5036 C 0.43361 0.72321 0.79265 0.0
H5037 H 0.3917 0.70655 0.82634 0.0
H5038 H 0.40702 0.71534 0.81968 0.0
H5039 H 0.42155 0.69985 0.79329 0.0
H5040 H 0.45794 0.72834 0.76688 0.0
H5041 H 0.44229 0.72044 0.77372 0.0
C5042 C 0.31324 0.39444 0.81704 0.0
C5043 C 0.32032 0.38928 0.81082 0.0
C5044 C 0.30808 0.4031 0.81334 0.0
C5045 C 0.30112 0.4167 0.7891 0.0
H5046 H 0.29737 0.43998 0.80707 0.0
C5047 C 0.28866 0.45645 0.77389 0.0
C5048 C 0.28143 0.46189 0.77967 0.0
C5049 C 0.29301 0.44744 0.77776 0.0
C5050 C 0.29825 0.4335 0.80198 0.0
H5051 H 0.3273 0.3891 0.7957 0.0
H5052 H 0.31855 0.40429 0.78937 0.0
H5053 H 0.3056 0.42455 0.81369 0.0
H5054 H 0.27316 0.46212 0.79411 0.0
H5055 H 0.28069 0.44634 0.80083 0.0
H5056 H 0.29388 0.42572 0.77736 0.0
C5057 C 0.31688 0.4016 0.79708 0.0
C5058 C 0.30296 0.42464 0.80579 0.0
C5059 C 0.32202 0.39295 0.80077 0.0
C5060 C 0.27864 0.45808 0.78942 0.0
C5061 C 0.28303 0.44909 0.79331 0.0
C5062 C 0.29645 0.42557 0.78529 0.0
C5063 C 0.30986 0.40681 0.80331 0.0
C5064 C 0.30452 0.41614 0.79937 0.0
C5065 C 0.29027 0.44365 0.78753 0.0
C5066 C 0.295 0.43411 0.79167 0.0
H5067 H 0.3118 0.3919 0.82485 0.0
H5068 H 0.30264 0.40684 0.81832 0.0
H5069 H 0.30201 0.41025 0.78398 0.0
H5070 H 0.29091 0.45912 0.76631 0.0
H5071 H 0.29863 0.4435 0.77314 0.0
C5072 C 0.70565 0.6287 0.21581 0.0
C5073 C 0.69883 0.628 0.2074 0.0
C5074 C 0.71065 0.61998 0.21956 0.0
C5075 C 0.71744 0.59319 0.2127 0.0
H5076 H 0.72086 0.59015 0.24218 0.0
C5077 C 0.74079 0.55994 0.23065 0.0
C5078 C 0.73702 0.55542 0.23975 0.0
C5079 C 0.73638 0.56888 0.22666 0.0
C5080 C 0.7199 0.59082 0.23393 0.0
H5081 H 0.6919 0.61757 0.19637 0.0
H5082 H 0.70049 0.60234 0.20298 0.0
H5083 H 0.7126 0.60538 0.23526 0.0
H5084 H 0.7257 0.55692 0.25185 0.0
H5085 H 0.71783 0.57227 0.24475 0.0
H5086 H 0.72443 0.57847 0.2114 0.0
C5087 C 0.70216 0.60966 0.20656 0.0
C5088 C 0.71528 0.59964 0.22994 0.0
C5089 C 0.69721 0.61839 0.20277 0.0
C5090 C 0.72874 0.56009 0.24476 0.0
C5091 C 0.7243 0.569 0.24076 0.0
C5092 C 0.72202 0.58434 0.21669 0.0
C5093 C 0.70891 0.61032 0.21505 0.0
C5094 C 0.71397 0.60095 0.21927 0.0
C5095 C 0.72806 0.57353 0.23165 0.0
C5096 C 0.7233 0.58302 0.22737 0.0
H5097 H 0.70718 0.63602 0.21946 0.0
H5098 H 0.71594 0.62084 0.22597 0.0
H5099 H 0.71668 0.59397 0.20444 0.0
H5100 H 0.74708 0.55651 0.2265 0.0
H5101 H 0.73957 0.5722 0.2197 0.0
C5102 C 0.7054 0.38702 0.8008 0.0
C5103 C 0.70066 0.38702 0.81049 0.0
C5104 C 0.71056 0.39577 0.79715 0.0
C5105 C 0.72217 0.42053 0.8056 0.0
H5106 H 0.71891 0.42798 0.77687 0.0
C5107 C 0.73439 0.4602 0.78928 0.0
C5108 C 0.73929 0.46041 0.77966 0.0
C5109 C 0.73012 0.45107 0.79315 0.0
C5110 C 0.72 0.42594 0.78488 0.0
H5111 H 0.69759 0.39623 0.82393 0.0
H5112 H 0.70648 0.41154 0.81753 0.0
H5113 H 0.71064 0.41241 0.78343 0.0
H5114 H 0.74377 0.4511 0.76669 0.0
H5115 H 0.73623 0.4352 0.7734 0.0
H5116 H 0.73141 0.43418 0.80706 0.0
C5117 C 0.70639 0.40472 0.81282 0.0
C5118 C 0.71526 0.417 0.78865 0.0
C5119 C 0.70128 0.39594 0.81649 0.0
C5120 C 0.73989 0.45125 0.77404 0.0
C5121 C 0.73559 0.44213 0.77789 0.0
C5122 C 0.72686 0.4295 0.80184 0.0
C5123 C 0.71106 0.40476 0.80308 0.0
C5124 C 0.71627 0.41419 0.79906 0.0
C5125 C 0.73062 0.44195 0.78747 0.0
C5126 C 0.72581 0.43232 0.79144 0.0
H5127 H 0.7052 0.38021 0.79606 0.0
H5128 H 0.71423 0.39547 0.7897 0.0
H5129 H 0.72325 0.41852 0.81362 0.0
H5130 H 0.73364 0.46714 0.79375 0.0
H5131 H 0.72622 0.45121 0.80049 0.0
C5132 C 0.61688 0.69109 0.81339 0.0
C5133 C 0.62667 0.69583 0.81312 0.0
C5134 C 0.6082 0.69623 0.80971 0.0
C5135 C 0.59842 0.72209 0.80291 0.0
H5136 H 0.57815 0.70647 0.78735 0.0
C5137 C 0.55918 0.73904 0.7904 0.0
C5138 C 0.55532 0.73635 0.78065 0.0
C5139 C 0.56796 0.73431 0.79441 0.0
C5140 C 0.58377 0.71098 0.7916 0.0
H5141 H 0.63497 0.70971 0.8088 0.0
H5142 H 0.61983 0.71865 0.80231 0.0
H5143 H 0.5933 0.69793 0.79419 0.0
H5144 H 0.55787 0.72676 0.76735 0.0
H5145 H 0.5732 0.71857 0.7743 0.0
H5146 H 0.58899 0.7352 0.80008 0.0
C5147 C 0.61884 0.71102 0.80551 0.0
C5148 C 0.5924 0.70604 0.79565 0.0
C5149 C 0.62753 0.70589 0.80923 0.0
C5150 C 0.56053 0.7289 0.77496 0.0
C5151 C 0.56932 0.72419 0.77895 0.0
C5152 C 0.58978 0.72704 0.79884 0.0
C5153 C 0.60907 0.70622 0.80564 0.0
C5154 C 0.59985 0.71153 0.80137 0.0
C5155 C 0.57312 0.72678 0.78876 0.0
C5156 C 0.58234 0.72155 0.79311 0.0
H5157 H 0.61592 0.68342 0.8165 0.0
H5158 H 0.60077 0.69237 0.81013 0.0
H5159 H 0.60394 0.72655 0.80735 0.0
H5160 H 0.55527 0.74465 0.79504 0.0
H5161 H 0.57057 0.7364 0.80205 0.0
C5162 C 0.29967 0.62899 0.81575 0.0
C5163 C 0.30937 0.62914 0.8206 0.0
C5164 C 0.2961 0.6202 0.81067 0.0
C5165 C 0.30476 0.5956 0.79947 0.0
H5166 H 0.27595 0.58795 0.80229 0.0
C5167 C 0.28623 0.56206 0.77659 0.0
C5168 C 0.27901 0.55578 0.78175 0.0
C5169 C 0.28999 0.57108 0.78112 0.0
C5170 C 0.28403 0.58992 0.80148 0.0
H5171 H 0.32294 0.62013 0.82391 0.0
H5172 H 0.31669 0.60476 0.81513 0.0
H5173 H 0.28247 0.60339 0.81062 0.0
H5174 H 0.27029 0.55397 0.79582 0.0
H5175 H 0.27689 0.56963 0.80375 0.0
H5176 H 0.30636 0.58195 0.79056 0.0
C5177 C 0.3119 0.6115 0.8151 0.0
C5178 C 0.28775 0.59887 0.80615 0.0
C5179 C 0.31548 0.62031 0.82014 0.0
C5180 C 0.2757 0.55872 0.79156 0.0
C5181 C 0.27949 0.56771 0.7961 0.0
C5182 C 0.30103 0.58663 0.79481 0.0
C5183 C 0.30213 0.61131 0.81034 0.0
C5184 C 0.29817 0.60183 0.80523 0.0
C5185 C 0.28666 0.57403 0.79094 0.0
C5186 C 0.29063 0.58365 0.79578 0.0
H5187 H 0.29484 0.63572 0.81582 0.0
H5188 H 0.28863 0.62041 0.80694 0.0
H5189 H 0.31279 0.59769 0.7985 0.0
H5190 H 0.28884 0.56008 0.76897 0.0
H5191 H 0.29539 0.57583 0.77685 0.0
C5192 C 0.39613 0.31764 0.81235 0.0
C5193 C 0.39083 0.3114 0.81949 0.0
C5194 C 0.40474 0.31394 0.80715 0.0
C5195 C 0.41783 0.28973 0.8002 0.0
H5196 H 0.44162 0.30755 0.79618 0.0
C5197 C 0.45738 0.27433 0.78773 0.0
C5198 C 0.46304 0.28009 0.78048 0.0
C5199 C 0.4484 0.27824 0.79203 0.0
C5200 C 0.435 0.30251 0.79713 0.0
H5201 H 0.39037 0.29628 0.82656 0.0
H5202 H 0.40548 0.28996 0.81774 0.0
H5203 H 0.42629 0.31421 0.80448 0.0
H5204 H 0.46369 0.29453 0.77212 0.0
H5205 H 0.44794 0.30133 0.77957 0.0
H5206 H 0.42659 0.27799 0.79296 0.0
C5207 C 0.40293 0.29768 0.81605 0.0
C5208 C 0.42619 0.30633 0.80188 0.0
C5209 C 0.39433 0.30136 0.82123 0.0
C5210 C 0.45947 0.28986 0.77762 0.0
C5211 C 0.4505 0.2938 0.78197 0.0
C5212 C 0.42664 0.2859 0.79548 0.0
C5213 C 0.40826 0.30391 0.80895 0.0
C5214 C 0.41752 0.29997 0.80354 0.0
C5215 C 0.44486 0.28803 0.78923 0.0
C5216 C 0.43536 0.29222 0.79395 0.0
H5217 H 0.39372 0.32544 0.81087 0.0
H5218 H 0.40858 0.31893 0.80166 0.0
H5219 H 0.41124 0.28466 0.80116 0.0
H5220 H 0.45985 0.26674 0.79003 0.0
H5221 H 0.4443 0.27364 0.79767 0.0
C5222 C 0.31862 0.39836 0.20107 0.0
C5223 C 0.31855 0.38923 0.2069 0.0
C5224 C 0.31378 0.40716 0.20471 0.0
C5225 C 0.30454 0.41891 0.22882 0.0
H5226 H 0.29016 0.43727 0.21026 0.0
C5227 C 0.29084 0.45881 0.24174 0.0
C5228 C 0.28121 0.46217 0.23816 0.0
C5229 C 0.29525 0.44992 0.2378 0.0
C5230 C 0.29407 0.43218 0.21557 0.0
H5231 H 0.31299 0.38212 0.22095 0.0
H5232 H 0.30446 0.3974 0.22724 0.0
H5233 H 0.29774 0.42162 0.20362 0.0
H5234 H 0.26861 0.45871 0.22769 0.0
H5235 H 0.27626 0.44317 0.22086 0.0
H5236 H 0.3007 0.42934 0.24082 0.0
C5237 C 0.30847 0.39785 0.21997 0.0
C5238 C 0.29853 0.42326 0.21174 0.0
C5239 C 0.31335 0.38907 0.21635 0.0
C5240 C 0.2761 0.45642 0.23052 0.0
C5241 C 0.2805 0.44751 0.22659 0.0
C5242 C 0.30008 0.42782 0.23266 0.0
C5243 C 0.3087 0.40705 0.21425 0.0
C5244 C 0.30384 0.41651 0.21831 0.0
C5245 C 0.29013 0.44413 0.23019 0.0
C5246 C 0.2948 0.43459 0.22609 0.0
H5247 H 0.32267 0.39878 0.19382 0.0
H5248 H 0.31424 0.41413 0.20015 0.0
H5249 H 0.30867 0.41397 0.23411 0.0
H5250 H 0.29507 0.46315 0.24749 0.0
H5251 H 0.30276 0.44767 0.24063 0.0
C5252 C 0.62943 0.29975 0.206 0.0
C5253 C 0.62957 0.30943 0.20119 0.0
C5254 C 0.6206 0.29617 0.21108 0.0
C5255 C 0.59588 0.30472 0.22229 0.0
H5256 H 0.5882 0.27604 0.21932 0.0
C5257 C 0.56214 0.28615 0.24502 0.0
C5258 C 0.55585 0.279 0.23981 0.0
C5259 C 0.57121 0.28992 0.24052 0.0
C5260 C 0.59018 0.28409 0.22017 0.0
H5261 H 0.62052 0.32296 0.19794 0.0
H5262 H 0.60509 0.3167 0.2067 0.0
H5263 H 0.60373 0.28259 0.21105 0.0
H5264 H 0.55407 0.27038 0.22569 0.0
H5265 H 0.56982 0.27698 0.21783 0.0
H5266 H 0.58215 0.30627 0.23118 0.0
C5267 C 0.61186 0.31192 0.20672 0.0
C5268 C 0.59918 0.28782 0.21553 0.0
C5269 C 0.62071 0.31552 0.20168 0.0
C5270 C 0.55882 0.27575 0.22999 0.0
C5271 C 0.56787 0.27953 0.22548 0.0
C5272 C 0.58686 0.30099 0.22692 0.0
C5273 C 0.61167 0.30217 0.21143 0.0
C5274 C 0.60214 0.29819 0.21652 0.0
C5275 C 0.5742 0.28665 0.2307 0.0
C5276 C 0.58388 0.29063 0.2259 0.0
H5277 H 0.63618 0.29494 0.20591 0.0
H5278 H 0.62081 0.28871 0.21478 0.0
H5279 H 0.59797 0.31272 0.22331 0.0
H5280 H 0.56013 0.28872 0.25265 0.0
H5281 H 0.57597 0.29527 0.24483 0.0
C5282 C 0.39075 0.7202 0.198 0.0
C5283 C 0.38748 0.70997 0.19946 0.0
C5284 C 0.39968 0.72392 0.2028 0.0
C5285 C 0.41746 0.71917 0.22444 0.0
H5286 H 0.43649 0.73579 0.20835 0.0
C5287 C 0.45792 0.73091 0.23953 0.0
C5288 C 0.46154 0.74084 0.23712 0.0
C5289 C 0.44881 0.72711 0.23511 0.0
C5290 C 0.4312 0.73128 0.21301 0.0
H5291 H 0.39109 0.69563 0.20718 0.0
H5292 H 0.40663 0.70218 0.21565 0.0
H5293 H 0.42071 0.72927 0.20042 0.0
H5294 H 0.4583 0.75466 0.2284 0.0
H5295 H 0.44237 0.74809 0.22078 0.0
H5296 H 0.42792 0.72124 0.23706 0.0
C5297 C 0.40221 0.70733 0.21083 0.0
C5298 C 0.42216 0.72752 0.20844 0.0
C5299 C 0.3933 0.70359 0.20599 0.0
C5300 C 0.4558 0.74692 0.23028 0.0
C5301 C 0.44667 0.74314 0.2259 0.0
C5302 C 0.4265 0.72297 0.22903 0.0
C5303 C 0.40555 0.71752 0.20922 0.0
C5304 C 0.41518 0.72144 0.21411 0.0
C5305 C 0.44309 0.73316 0.22821 0.0
C5306 C 0.43347 0.72908 0.22337 0.0
H5307 H 0.38636 0.72539 0.1932 0.0
H5308 H 0.40195 0.73186 0.20155 0.0
H5309 H 0.41218 0.7146 0.22904 0.0
H5310 H 0.46224 0.72598 0.24468 0.0
H5311 H 0.44636 0.71934 0.23695 0.0
loop_
_geom_bond_atom_site_label_1
_geom_bond_atom_site_label_2
_geom_bond_distance
_geom_bond_site_symmetry_2
_ccdc_geom_bond_type
C0 C1 1.264 . S
C0 C5 1.479 . S
C0 C10 1.465 . S
C1 C0 1.264 . S
C1 C3 1.339 . S
C1 H28 0.931 . S
C2 C3 1.395 . S
C2 C4 1.320 . S
C3 C1 1.339 . S
C3 C2 1.395 . S
C3 H29 0.929 . S
C4 C2 1.320 . S
C4 C5 1.405 . S
C4 H30 0.930 . S
C5 C0 1.479 . S
C5 C4 1.405 . S
C5 H31 0.931 . S
U6 O7 2.454 . S
U6 O8 2.458 . S
U6 C9 2.984 . S
U6 C10 2.847 . S
U6 C23 2.882 . S
U6 O24 2.441 . S
U6 O25 2.420 . S
U6 O26 2.455 . S
U6 O27 2.449 . S
O7 U6 2.454 . S
O7 C9 1.353 . S
O8 U6 2.458 . S
O8 C9 1.286 . S
C9 U6 2.984 . S
C9 O7 1.353 . S
C9 O8 1.286 . S
C9 C11 1.363 . S
C10 C0 1.465 . S
C10 U6 2.847 . S
C10 O24 1.249 . S
C10 O25 1.202 . S
C11 C9 1.363 . S
C11 C13 1.408 . S
C11 C16 1.342 . S
C12 C13 1.310 . S
C12 C15 1.461 . S
C12 H32 0.932 . S
C13 C11 1.408 . S
C13 C12 1.310 . S
C13 H33 0.930 . S
C14 C15 1.474 . S
C14 C16 1.285 . S
C14 H34 0.929 . S
C15 C12 1.461 . S
C15 C14 1.474 . S
C16 C11 1.342 . S
C16 C14 1.285 . S
C16 H35 0.930 . S
C17 C20 1.424 . S
C17 C22 1.245 . S
C17 C23 1.428 . S
C18 C21 1.260 . S
C18 C22 1.477 . S
C18 H36 0.932 . S
C19 C20 1.384 . S
C19 C21 1.479 . S
C19 H37 0.929 . S
C20 C17 1.424 . S
C20 C19 1.384 . S
C20 H38 0.928 . S
C21 C18 1.260 . S
C21 C19 1.479 . S
C22 C17 1.245 . S
C22 C18 1.477 . S
C22 H39 0.932 . S
C23 U6 2.882 . S
C23 C17 1.428 . S
C23 O26 1.301 . S
C23 O27 1.282 . S
O24 U6 2.441 . S
O24 C10 1.249 . S
O25 U6 2.420 . S
O25 C10 1.202 . S
O26 U6 2.455 . S
O26 C23 1.301 . S
O27 U6 2.449 . S
O27 C23 1.282 . S
H28 C1 0.931 . S
H29 C3 0.929 . S
H30 C4 0.930 . S
H31 C5 0.931 . S
H32 C12 0.932 . S
H33 C13 0.930 . S
H34 C14 0.929 . S
H35 C16 0.930 . S
H36 C18 0.932 . S
H37 C19 0.929 . S
H38 C20 0.928 . S
H39 C22 0.932 . S
C40 C41 1.264 . S
C40 C45 1.479 . S
C40 C50 1.465 . S
C41 C40 1.264 . S
C41 C43 1.339 . S
C41 H68 0.931 . S
C42 C43 1.395 . S
C42 C44 1.320 . S
C43 C41 1.339 . S
C43 C42 1.395 . S
C43 H69 0.929 . S
C44 C42 1.320 . S
C44 C45 1.405 . S
C44 H70 0.930 . S
C45 C40 1.479 . S
C45 C44 1.405 . S
C45 H71 0.931 . S
U46 O47 2.454 . S
U46 O48 2.458 . S
U46 C49 2.984 . S
U46 C50 2.847 . S
U46 C63 2.882 . S
U46 O64 2.441 . S
U46 O65 2.420 . S
U46 O66 2.455 . S
U46 O67 2.449 . S
O47 U46 2.454 . S
O47 C49 1.353 . S
O48 U46 2.458 . S
O48 C49 1.286 . S
C49 U46 2.984 . S
C49 O47 1.353 . S
C49 O48 1.286 . S
C49 C51 1.363 . S
C50 C40 1.465 . S
C50 U46 2.847 . S
C50 O64 1.249 . S
C50 O65 1.202 . S
C51 C49 1.363 . S
C51 C53 1.408 . S
C51 C56 1.342 . S
C52 C53 1.310 . S
C52 C55 1.461 . S
C52 H72 0.932 . S
C53 C51 1.408 . S
C53 C52 1.310 . S
C53 H73 0.930 . S
C54 C55 1.474 . S
C54 C56 1.285 . S
C54 H74 0.929 . S
C55 C52 1.461 . S
C55 C54 1.474 . S
C56 C51 1.342 . S
C56 C54 1.285 . S
C56 H75 0.930 . S
C57 C60 1.424 . S
C57 C62 1.245 . S
C57 C63 1.428 . S
C58 C61 1.260 . S
C58 C62 1.477 . S
C58 H76 0.932 . S
C59 C60 1.384 . S
C59 C61 1.479 . S
C59 H77 0.929 . S
C60 C57 1.424 . S
C60 C59 1.384 . S
C60 H78 0.928 . S
C61 C58 1.260 . S
C61 C59 1.479 . S
C62 C57 1.245 . S
C62 C58 1.477 . S
C62 H79 0.932 . S
C63 U46 2.882 . S
C63 C57 1.428 . S
C63 O66 1.301 . S
C63 O67 1.282 . S
O64 U46 2.441 . S
O64 C50 1.249 . S
O65 U46 2.420 . S
O65 C50 1.202 . S
O66 U46 2.455 . S
O66 C63 1.301 . S
O67 U46 2.449 . S
O67 C63 1.282 . S
H68 C41 0.931 . S
H69 C43 0.929 . S
H70 C44 0.930 . S
H71 C45 0.931 . S
H72 C52 0.932 . S
H73 C53 0.930 . S
H74 C54 0.929 . S
H75 C56 0.930 . S
H76 C58 0.932 . S
H77 C59 0.929 . S
H78 C60 0.928 . S
H79 C62 0.932 . S
C80 C81 1.264 . S
C80 C85 1.479 . S
C80 C90 1.465 . S
C81 C80 1.264 . S
C81 C83 1.339 . S
C81 H108 0.931 . S
C82 C83 1.395 . S
C82 C84 1.320 . S
C83 C81 1.339 . S
C83 C82 1.395 . S
C83 H109 0.929 . S
C84 C82 1.320 . S
C84 C85 1.405 . S
C84 H110 0.930 . S
C85 C80 1.479 . S
C85 C84 1.405 . S
C85 H111 0.931 . S
U86 O87 2.454 . S
U86 O88 2.458 . S
U86 C89 2.984 . S
U86 C90 2.847 . S
U86 C103 2.882 . S
U86 O104 2.441 . S
U86 O105 2.420 . S
U86 O106 2.455 . S
U86 O107 2.449 . S
O87 U86 2.454 . S
O87 C89 1.353 . S
O88 U86 2.458 . S
O88 C89 1.286 . S
C89 U86 2.984 . S
C89 O87 1.353 . S
C89 O88 1.286 . S
C89 C91 1.363 . S
C90 C80 1.465 . S
C90 U86 2.847 . S
C90 O104 1.249 . S
C90 O105 1.202 . S
C91 C89 1.363 . S
C91 C93 1.408 . S
C91 C96 1.342 . S
C92 C93 1.310 . S
C92 C95 1.461 . S
C92 H112 0.932 . S
C93 C91 1.408 . S
C93 C92 1.310 . S
C93 H113 0.930 . S
C94 C95 1.474 . S
C94 C96 1.285 . S
C94 H114 0.929 . S
C95 C92 1.461 . S
C95 C94 1.474 . S
C96 C91 1.342 . S
C96 C94 1.285 . S
C96 H115 0.930 . S
C97 C100 1.424 . S
C97 C102 1.245 . S
C97 C103 1.428 . S
C98 C101 1.260 . S
C98 C102 1.477 . S
C98 H116 0.932 . S
C99 C100 1.384 . S
C99 C101 1.479 . S
C99 H117 0.929 . S
C100 C97 1.424 . S
C100 C99 1.384 . S
C100 H118 0.928 . S
C101 C98 1.260 . S
C101 C99 1.479 . S
C102 C97 1.245 . S
C102 C98 1.477 . S
C102 H119 0.932 . S
C103 U86 2.882 . S
C103 C97 1.428 . S
C103 O106 1.301 . S
C103 O107 1.282 . S
O104 U86 2.441 . S
O104 C90 1.249 . S
O105 U86 2.420 . S
O105 C90 1.202 . S
O106 U86 2.455 . S
O106 C103 1.301 . S
O107 U86 2.449 . S
O107 C103 1.282 . S
H108 C81 0.931 . S
H109 C83 0.929 . S
H110 C84 0.930 . S
H111 C85 0.931 . S
H112 C92 0.932 . S
H113 C93 0.930 . S
H114 C94 0.929 . S
H115 C96 0.930 . S
H116 C98 0.932 . S
H117 C99 0.929 . S
H118 C100 0.928 . S
H119 C102 0.932 . S
C120 C121 1.264 . S
C120 C125 1.479 . S
C120 C130 1.465 . S
C121 C120 1.264 . S
C121 C123 1.339 . S
C121 H148 0.931 . S
C122 C123 1.395 . S
C122 C124 1.320 . S
C123 C121 1.339 . S
C123 C122 1.395 . S
C123 H149 0.929 . S
C124 C122 1.320 . S
C124 C125 1.405 . S
C124 H150 0.930 . S
C125 C120 1.479 . S
C125 C124 1.405 . S
C125 H151 0.931 . S
U126 O127 2.454 . S
U126 O128 2.458 . S
U126 C129 2.984 . S
U126 C130 2.847 . S
U126 C143 2.882 . S
U126 O144 2.441 . S
U126 O145 2.420 . S
U126 O146 2.455 . S
U126 O147 2.449 . S
O127 U126 2.454 . S
O127 C129 1.353 . S
O128 U126 2.458 . S
O128 C129 1.286 . S
C129 U126 2.984 . S
C129 O127 1.353 . S
C129 O128 1.286 . S
C129 C131 1.363 . S
C130 C120 1.465 . S
C130 U126 2.847 . S
C130 O144 1.249 . S
C130 O145 1.202 . S
C131 C129 1.363 . S
C131 C133 1.408 . S
C131 C136 1.342 . S
C132 C133 1.310 . S
C132 C135 1.461 . S
C132 H152 0.932 . S
C133 C131 1.408 . S
C133 C132 1.310 . S
C133 H153 0.930 . S
C134 C135 1.474 . S
C134 C136 1.285 . S
C134 H154 0.929 . S
C135 C132 1.461 . S
C135 C134 1.474 . S
C136 C131 1.342 . S
C136 C134 1.285 . S
C136 H155 0.930 . S
C137 C140 1.424 . S
C137 C142 1.245 . S
C137 C143 1.428 . S
C138 C141 1.260 . S
C138 C142 1.477 . S
C138 H156 0.932 . S
C139 C140 1.384 . S
C139 C141 1.479 . S
C139 H157 0.929 . S
C140 C137 1.424 . S
C140 C139 1.384 . S
C140 H158 0.928 . S
C141 C138 1.260 . S
C141 C139 1.479 . S
C142 C137 1.245 . S
C142 C138 1.477 . S
C142 H159 0.932 . S
C143 U126 2.882 . S
C143 C137 1.428 . S
C143 O146 1.301 . S
C143 O147 1.282 . S
O144 U126 2.441 . S
O144 C130 1.249 . S
O145 U126 2.420 . S
O145 C130 1.202 . S
O146 U126 2.455 . S
O146 C143 1.301 . S
O147 U126 2.449 . S
O147 C143 1.282 . S
H148 C121 0.931 . S
H149 C123 0.929 . S
H150 C124 0.930 . S
H151 C125 0.931 . S
H152 C132 0.932 . S
H153 C133 0.930 . S
H154 C134 0.929 . S
H155 C136 0.930 . S
H156 C138 0.932 . S
H157 C139 0.929 . S
H158 C140 0.928 . S
H159 C142 0.932 . S
C160 C161 1.264 . S
C160 C165 1.479 . S
C160 C170 1.465 . S
C161 C160 1.264 . S
C161 C163 1.339 . S
C161 H188 0.931 . S
C162 C163 1.395 . S
C162 C164 1.320 . S
C163 C161 1.339 . S
C163 C162 1.395 . S
C163 H189 0.929 . S
C164 C162 1.320 . S
C164 C165 1.405 . S
C164 H190 0.930 . S
C165 C160 1.479 . S
C165 C164 1.405 . S
C165 H191 0.931 . S
U166 O167 2.454 . S
U166 O168 2.458 . S
U166 C169 2.984 . S
U166 C170 2.847 . S
U166 C183 2.882 . S
U166 O184 2.441 . S
U166 O185 2.420 . S
U166 O186 2.455 . S
U166 O187 2.449 . S
O167 U166 2.454 . S
O167 C169 1.353 . S
O168 U166 2.458 . S
O168 C169 1.286 . S
C169 U166 2.984 . S
C169 O167 1.353 . S
C169 O168 1.286 . S
C169 C171 1.363 . S
C170 C160 1.465 . S
C170 U166 2.847 . S
C170 O184 1.249 . S
C170 O185 1.202 . S
C171 C169 1.363 . S
C171 C173 1.408 . S
C171 C176 1.342 . S
C172 C173 1.310 . S
C172 C175 1.461 . S
C172 H192 0.932 . S
C173 C171 1.408 . S
C173 C172 1.310 . S
C173 H193 0.930 . S
C174 C175 1.474 . S
C174 C176 1.285 . S
C174 H194 0.929 . S
C175 C172 1.461 . S
C175 C174 1.474 . S
C176 C171 1.342 . S
C176 C174 1.285 . S
C176 H195 0.930 . S
C177 C180 1.424 . S
C177 C182 1.245 . S
C177 C183 1.428 . S
C178 C181 1.260 . S
C178 C182 1.477 . S
C178 H196 0.932 . S
C179 C180 1.384 . S
C179 C181 1.479 . S
C179 H197 0.929 . S
C180 C177 1.424 . S
C180 C179 1.384 . S
C180 H198 0.928 . S
C181 C178 1.260 . S
C181 C179 1.479 . S
C182 C177 1.245 . S
C182 C178 1.477 . S
C182 H199 0.932 . S
C183 U166 2.882 . S
C183 C177 1.428 . S
C183 O186 1.301 . S
C183 O187 1.282 . S
O184 U166 2.441 . S
O184 C170 1.249 . S
O185 U166 2.420 . S
O185 C170 1.202 . S
O186 U166 2.455 . S
O186 C183 1.301 . S
O187 U166 2.449 . S
O187 C183 1.282 . S
H188 C161 0.931 . S
H189 C163 0.929 . S
H190 C164 0.930 . S
H191 C165 0.931 . S
H192 C172 0.932 . S
H193 C173 0.930 . S
H194 C174 0.929 . S
H195 C176 0.930 . S
H196 C178 0.932 . S
H197 C179 0.929 . S
H198 C180 0.928 . S
H199 C182 0.932 . S
C200 C201 1.264 . S
C200 C205 1.479 . S
C200 C210 1.465 . S
C201 C200 1.264 . S
C201 C203 1.339 . S
C201 H228 0.931 . S
C202 C203 1.395 . S
C202 C204 1.320 . S
C203 C201 1.339 . S
C203 C202 1.395 . S
C203 H229 0.929 . S
C204 C202 1.320 . S
C204 C205 1.405 . S
C204 H230 0.930 . S
C205 C200 1.479 . S
C205 C204 1.405 . S
C205 H231 0.931 . S
U206 O207 2.454 . S
U206 O208 2.458 . S
U206 C209 2.984 . S
U206 C210 2.847 . S
U206 C223 2.882 . S
U206 O224 2.441 . S
U206 O225 2.420 . S
U206 O226 2.455 . S
U206 O227 2.449 . S
O207 U206 2.454 . S
O207 C209 1.353 . S
O208 U206 2.458 . S
O208 C209 1.286 . S
C209 U206 2.984 . S
C209 O207 1.353 . S
C209 O208 1.286 . S
C209 C211 1.363 . S
C210 C200 1.465 . S
C210 U206 2.847 . S
C210 O224 1.249 . S
C210 O225 1.202 . S
C211 C209 1.363 . S
C211 C213 1.408 . S
C211 C216 1.342 . S
C212 C213 1.310 . S
C212 C215 1.461 . S
C212 H232 0.932 . S
C213 C211 1.408 . S
C213 C212 1.310 . S
C213 H233 0.930 . S
C214 C215 1.474 . S
C214 C216 1.285 . S
C214 H234 0.929 . S
C215 C212 1.461 . S
C215 C214 1.474 . S
C216 C211 1.342 . S
C216 C214 1.285 . S
C216 H235 0.930 . S
C217 C220 1.424 . S
C217 C222 1.245 . S
C217 C223 1.428 . S
C218 C221 1.260 . S
C218 C222 1.477 . S
C218 H236 0.932 . S
C219 C220 1.384 . S
C219 C221 1.479 . S
C219 H237 0.929 . S
C220 C217 1.424 . S
C220 C219 1.384 . S
C220 H238 0.928 . S
C221 C218 1.260 . S
C221 C219 1.479 . S
C222 C217 1.245 . S
C222 C218 1.477 . S
C222 H239 0.932 . S
C223 U206 2.882 . S
C223 C217 1.428 . S
C223 O226 1.301 . S
C223 O227 1.282 . S
O224 U206 2.441 . S
O224 C210 1.249 . S
O225 U206 2.420 . S
O225 C210 1.202 . S
O226 U206 2.455 . S
O226 C223 1.301 . S
O227 U206 2.449 . S
O227 C223 1.282 . S
H228 C201 0.931 . S
H229 C203 0.929 . S
H230 C204 0.930 . S
H231 C205 0.931 . S
H232 C212 0.932 . S
H233 C213 0.930 . S
H234 C214 0.929 . S
H235 C216 0.930 . S
H236 C218 0.932 . S
H237 C219 0.929 . S
H238 C220 0.928 . S
H239 C222 0.932 . S
C240 C241 1.264 . S
C240 C245 1.479 . S
C240 C250 1.465 . S
C241 C240 1.264 . S
C241 C243 1.339 . S
C241 H268 0.931 . S
C242 C243 1.395 . S
C242 C244 1.320 . S
C243 C241 1.339 . S
C243 C242 1.395 . S
C243 H269 0.929 . S
C244 C242 1.320 . S
C244 C245 1.405 . S
C244 H270 0.930 . S
C245 C240 1.479 . S
C245 C244 1.405 . S
C245 H271 0.931 . S
U246 O247 2.454 . S
U246 O248 2.458 . S
U246 C249 2.984 . S
U246 C250 2.847 . S
U246 C263 2.882 . S
U246 O264 2.441 . S
U246 O265 2.420 . S
U246 O266 2.455 . S
U246 O267 2.449 . S
O247 U246 2.454 . S
O247 C249 1.353 . S
O248 U246 2.458 . S
O248 C249 1.286 . S
C249 U246 2.984 . S
C249 O247 1.353 . S
C249 O248 1.286 . S
C249 C251 1.363 . S
C250 C240 1.465 . S
C250 U246 2.847 . S
C250 O264 1.249 . S
C250 O265 1.202 . S
C251 C249 1.363 . S
C251 C253 1.408 . S
C251 C256 1.342 . S
C252 C253 1.310 . S
C252 C255 1.461 . S
C252 H272 0.932 . S
C253 C251 1.408 . S
C253 C252 1.310 . S
C253 H273 0.930 . S
C254 C255 1.474 . S
C254 C256 1.285 . S
C254 H274 0.929 . S
C255 C252 1.461 . S
C255 C254 1.474 . S
C256 C251 1.342 . S
C256 C254 1.285 . S
C256 H275 0.930 . S
C257 C260 1.424 . S
C257 C262 1.245 . S
C257 C263 1.428 . S
C258 C261 1.260 . S
C258 C262 1.477 . S
C258 H276 0.932 . S
C259 C260 1.384 . S
C259 C261 1.479 . S
C259 H277 0.929 . S
C260 C257 1.424 . S
C260 C259 1.384 . S
C260 H278 0.928 . S
C261 C258 1.260 . S
C261 C259 1.479 . S
C262 C257 1.245 . S
C262 C258 1.477 . S
C262 H279 0.932 . S
C263 U246 2.882 . S
C263 C257 1.428 . S
C263 O266 1.301 . S
C263 O267 1.282 . S
O264 U246 2.441 . S
O264 C250 1.249 . S
O265 U246 2.420 . S
O265 C250 1.202 . S
O266 U246 2.455 . S
O266 C263 1.301 . S
O267 U246 2.449 . S
O267 C263 1.282 . S
H268 C241 0.931 . S
H269 C243 0.929 . S
H270 C244 0.930 . S
H271 C245 0.931 . S
H272 C252 0.932 . S
H273 C253 0.930 . S
H274 C254 0.929 . S
H275 C256 0.930 . S
H276 C258 0.932 . S
H277 C259 0.929 . S
H278 C260 0.928 . S
H279 C262 0.932 . S
C280 C281 1.264 . S
C280 C285 1.479 . S
C280 C290 1.465 . S
C281 C280 1.264 . S
C281 C283 1.339 . S
C281 H308 0.931 . S
C282 C283 1.395 . S
C282 C284 1.320 . S
C283 C281 1.339 . S
C283 C282 1.395 . S
C283 H309 0.929 . S
C284 C282 1.320 . S
C284 C285 1.405 . S
C284 H310 0.930 . S
C285 C280 1.479 . S
C285 C284 1.405 . S
C285 H311 0.931 . S
U286 O287 2.454 . S
U286 O288 2.458 . S
U286 C289 2.984 . S
U286 C290 2.847 . S
U286 C303 2.882 . S
U286 O304 2.441 . S
U286 O305 2.420 . S
U286 O306 2.455 . S
U286 O307 2.449 . S
O287 U286 2.454 . S
O287 C289 1.353 . S
O288 U286 2.458 . S
O288 C289 1.286 . S
C289 U286 2.984 . S
C289 O287 1.353 . S
C289 O288 1.286 . S
C289 C291 1.363 . S
C290 C280 1.465 . S
C290 U286 2.847 . S
C290 O304 1.249 . S
C290 O305 1.202 . S
C291 C289 1.363 . S
C291 C293 1.408 . S
C291 C296 1.342 . S
C292 C293 1.310 . S
C292 C295 1.461 . S
C292 H312 0.932 . S
C293 C291 1.408 . S
C293 C292 1.310 . S
C293 H313 0.930 . S
C294 C295 1.474 . S
C294 C296 1.285 . S
C294 H314 0.929 . S
C295 C292 1.461 . S
C295 C294 1.474 . S
C296 C291 1.342 . S
C296 C294 1.285 . S
C296 H315 0.930 . S
C297 C300 1.424 . S
C297 C302 1.245 . S
C297 C303 1.428 . S
C298 C301 1.260 . S
C298 C302 1.477 . S
C298 H316 0.932 . S
C299 C300 1.384 . S
C299 C301 1.479 . S
C299 H317 0.929 . S
C300 C297 1.424 . S
C300 C299 1.384 . S
C300 H318 0.928 . S
C301 C298 1.260 . S
C301 C299 1.479 . S
C302 C297 1.245 . S
C302 C298 1.477 . S
C302 H319 0.932 . S
C303 U286 2.882 . S
C303 C297 1.428 . S
C303 O306 1.301 . S
C303 O307 1.282 . S
O304 U286 2.441 . S
O304 C290 1.249 . S
O305 U286 2.420 . S
O305 C290 1.202 . S
O306 U286 2.455 . S
O306 C303 1.301 . S
O307 U286 2.449 . S
O307 C303 1.282 . S
H308 C281 0.931 . S
H309 C283 0.929 . S
H310 C284 0.930 . S
H311 C285 0.931 . S
H312 C292 0.932 . S
H313 C293 0.930 . S
H314 C294 0.929 . S
H315 C296 0.930 . S
H316 C298 0.932 . S
H317 C299 0.929 . S
H318 C300 0.928 . S
H319 C302 0.932 . S
C320 C321 1.264 . S
C320 C325 1.479 . S
C320 C330 1.465 . S
C321 C320 1.264 . S
C321 C323 1.339 . S
C321 H348 0.931 . S
C322 C323 1.395 . S
C322 C324 1.320 . S
C323 C321 1.339 . S
C323 C322 1.395 . S
C323 H349 0.929 . S
C324 C322 1.320 . S
C324 C325 1.405 . S
C324 H350 0.930 . S
C325 C320 1.479 . S
C325 C324 1.405 . S
C325 H351 0.931 . S
U326 O327 2.454 . S
U326 O328 2.458 . S
U326 C329 2.984 . S
U326 C330 2.847 . S
U326 C343 2.882 . S
U326 O344 2.441 . S
U326 O345 2.420 . S
U326 O346 2.455 . S
U326 O347 2.449 . S
O327 U326 2.454 . S
O327 C329 1.353 . S
O328 U326 2.458 . S
O328 C329 1.286 . S
C329 U326 2.984 . S
C329 O327 1.353 . S
C329 O328 1.286 . S
C329 C331 1.363 . S
C330 C320 1.465 . S
C330 U326 2.847 . S
C330 O344 1.249 . S
C330 O345 1.202 . S
C331 C329 1.363 . S
C331 C333 1.408 . S
C331 C336 1.342 . S
C332 C333 1.310 . S
C332 C335 1.461 . S
C332 H352 0.932 . S
C333 C331 1.408 . S
C333 C332 1.310 . S
C333 H353 0.930 . S
C334 C335 1.474 . S
C334 C336 1.285 . S
C334 H354 0.929 . S
C335 C332 1.461 . S
C335 C334 1.474 . S
C336 C331 1.342 . S
C336 C334 1.285 . S
C336 H355 0.930 . S
C337 C340 1.424 . S
C337 C342 1.245 . S
C337 C343 1.428 . S
C338 C341 1.260 . S
C338 C342 1.477 . S
C338 H356 0.932 . S
C339 C340 1.384 . S
C339 C341 1.479 . S
C339 H357 0.929 . S
C340 C337 1.424 . S
C340 C339 1.384 . S
C340 H358 0.928 . S
C341 C338 1.260 . S
C341 C339 1.479 . S
C342 C337 1.245 . S
C342 C338 1.477 . S
C342 H359 0.932 . S
C343 U326 2.882 . S
C343 C337 1.428 . S
C343 O346 1.301 . S
C343 O347 1.282 . S
O344 U326 2.441 . S
O344 C330 1.249 . S
O345 U326 2.420 . S
O345 C330 1.202 . S
O346 U326 2.455 . S
O346 C343 1.301 . S
O347 U326 2.449 . S
O347 C343 1.282 . S
H348 C321 0.931 . S
H349 C323 0.929 . S
H350 C324 0.930 . S
H351 C325 0.931 . S
H352 C332 0.932 . S
H353 C333 0.930 . S
H354 C334 0.929 . S
H355 C336 0.930 . S
H356 C338 0.932 . S
H357 C339 0.929 . S
H358 C340 0.928 . S
H359 C342 0.932 . S
C360 C361 1.264 . S
C360 C365 1.479 . S
C360 C370 1.465 . S
C361 C360 1.264 . S
C361 C363 1.339 . S
C361 H388 0.931 . S
C362 C363 1.395 . S
C362 C364 1.320 . S
C363 C361 1.339 . S
C363 C362 1.395 . S
C363 H389 0.929 . S
C364 C362 1.320 . S
C364 C365 1.405 . S
C364 H390 0.930 . S
C365 C360 1.479 . S
C365 C364 1.405 . S
C365 H391 0.931 . S
U366 O367 2.454 . S
U366 O368 2.458 . S
U366 C369 2.984 . S
U366 C370 2.847 . S
U366 C383 2.882 . S
U366 O384 2.441 . S
U366 O385 2.420 . S
U366 O386 2.455 . S
U366 O387 2.449 . S
O367 U366 2.454 . S
O367 C369 1.353 . S
O368 U366 2.458 . S
O368 C369 1.286 . S
C369 U366 2.984 . S
C369 O367 1.353 . S
C369 O368 1.286 . S
C369 C371 1.363 . S
C370 C360 1.465 . S
C370 U366 2.847 . S
C370 O384 1.249 . S
C370 O385 1.202 . S
C371 C369 1.363 . S
C371 C373 1.408 . S
C371 C376 1.342 . S
C372 C373 1.310 . S
C372 C375 1.461 . S
C372 H392 0.932 . S
C373 C371 1.408 . S
C373 C372 1.310 . S
C373 H393 0.930 . S
C374 C375 1.474 . S
C374 C376 1.285 . S
C374 H394 0.929 . S
C375 C372 1.461 . S
C375 C374 1.474 . S
C376 C371 1.342 . S
C376 C374 1.285 . S
C376 H395 0.930 . S
C377 C380 1.424 . S
C377 C382 1.245 . S
C377 C383 1.428 . S
C378 C381 1.260 . S
C378 C382 1.477 . S
C378 H396 0.932 . S
C379 C380 1.384 . S
C379 C381 1.479 . S
C379 H397 0.929 . S
C380 C377 1.424 . S
C380 C379 1.384 . S
C380 H398 0.928 . S
C381 C378 1.260 . S
C381 C379 1.479 . S
C382 C377 1.245 . S
C382 C378 1.477 . S
C382 H399 0.932 . S
C383 U366 2.882 . S
C383 C377 1.428 . S
C383 O386 1.301 . S
C383 O387 1.282 . S
O384 U366 2.441 . S
O384 C370 1.249 . S
O385 U366 2.420 . S
O385 C370 1.202 . S
O386 U366 2.455 . S
O386 C383 1.301 . S
O387 U366 2.449 . S
O387 C383 1.282 . S
H388 C361 0.931 . S
H389 C363 0.929 . S
H390 C364 0.930 . S
H391 C365 0.931 . S
H392 C372 0.932 . S
H393 C373 0.930 . S
H394 C374 0.929 . S
H395 C376 0.930 . S
H396 C378 0.932 . S
H397 C379 0.929 . S
H398 C380 0.928 . S
H399 C382 0.932 . S
C400 C401 1.264 . S
C400 C405 1.479 . S
C400 C410 1.465 . S
C401 C400 1.264 . S
C401 C403 1.339 . S
C401 H428 0.931 . S
C402 C403 1.395 . S
C402 C404 1.320 . S
C403 C401 1.339 . S
C403 C402 1.395 . S
C403 H429 0.929 . S
C404 C402 1.320 . S
C404 C405 1.405 . S
C404 H430 0.930 . S
C405 C400 1.479 . S
C405 C404 1.405 . S
C405 H431 0.931 . S
U406 O407 2.454 . S
U406 O408 2.458 . S
U406 C409 2.984 . S
U406 C410 2.847 . S
U406 C423 2.882 . S
U406 O424 2.441 . S
U406 O425 2.420 . S
U406 O426 2.455 . S
U406 O427 2.449 . S
O407 U406 2.454 . S
O407 C409 1.353 . S
O408 U406 2.458 . S
O408 C409 1.286 . S
C409 U406 2.984 . S
C409 O407 1.353 . S
C409 O408 1.286 . S
C409 C411 1.363 . S
C410 C400 1.465 . S
C410 U406 2.847 . S
C410 O424 1.249 . S
C410 O425 1.202 . S
C411 C409 1.363 . S
C411 C413 1.408 . S
C411 C416 1.342 . S
C412 C413 1.310 . S
C412 C415 1.461 . S
C412 H432 0.932 . S
C413 C411 1.408 . S
C413 C412 1.310 . S
C413 H433 0.930 . S
C414 C415 1.474 . S
C414 C416 1.285 . S
C414 H434 0.929 . S
C415 C412 1.461 . S
C415 C414 1.474 . S
C416 C411 1.342 . S
C416 C414 1.285 . S
C416 H435 0.930 . S
C417 C420 1.424 . S
C417 C422 1.245 . S
C417 C423 1.428 . S
C418 C421 1.260 . S
C418 C422 1.477 . S
C418 H436 0.932 . S
C419 C420 1.384 . S
C419 C421 1.479 . S
C419 H437 0.929 . S
C420 C417 1.424 . S
C420 C419 1.384 . S
C420 H438 0.928 . S
C421 C418 1.260 . S
C421 C419 1.479 . S
C422 C417 1.245 . S
C422 C418 1.477 . S
C422 H439 0.932 . S
C423 U406 2.882 . S
C423 C417 1.428 . S
C423 O426 1.301 . S
C423 O427 1.282 . S
O424 U406 2.441 . S
O424 C410 1.249 . S
O425 U406 2.420 . S
O425 C410 1.202 . S
O426 U406 2.455 . S
O426 C423 1.301 . S
O427 U406 2.449 . S
O427 C423 1.282 . S
H428 C401 0.931 . S
H429 C403 0.929 . S
H430 C404 0.930 . S
H431 C405 0.931 . S
H432 C412 0.932 . S
H433 C413 0.930 . S
H434 C414 0.929 . S
H435 C416 0.930 . S
H436 C418 0.932 . S
H437 C419 0.929 . S
H438 C420 0.928 . S
H439 C422 0.932 . S
C440 C441 1.264 . S
C440 C445 1.479 . S
C440 C450 1.465 . S
C441 C440 1.264 . S
C441 C443 1.339 . S
C441 H468 0.931 . S
C442 C443 1.395 . S
C442 C444 1.320 . S
C443 C441 1.339 . S
C443 C442 1.395 . S
C443 H469 0.929 . S
C444 C442 1.320 . S
C444 C445 1.405 . S
C444 H470 0.930 . S
C445 C440 1.479 . S
C445 C444 1.405 . S
C445 H471 0.931 . S
U446 O447 2.454 . S
U446 O448 2.458 . S
U446 C449 2.984 . S
U446 C450 2.847 . S
U446 C463 2.882 . S
U446 O464 2.441 . S
U446 O465 2.420 . S
U446 O466 2.455 . S
U446 O467 2.449 . S
O447 U446 2.454 . S
O447 C449 1.353 . S
O448 U446 2.458 . S
O448 C449 1.286 . S
C449 U446 2.984 . S
C449 O447 1.353 . S
C449 O448 1.286 . S
C449 C451 1.363 . S
C450 C440 1.465 . S
C450 U446 2.847 . S
C450 O464 1.249 . S
C450 O465 1.202 . S
C451 C449 1.363 . S
C451 C453 1.408 . S
C451 C456 1.342 . S
C452 C453 1.310 . S
C452 C455 1.461 . S
C452 H472 0.932 . S
C453 C451 1.408 . S
C453 C452 1.310 . S
C453 H473 0.930 . S
C454 C455 1.474 . S
C454 C456 1.285 . S
C454 H474 0.929 . S
C455 C452 1.461 . S
C455 C454 1.474 . S
C456 C451 1.342 . S
C456 C454 1.285 . S
C456 H475 0.930 . S
C457 C460 1.424 . S
C457 C462 1.245 . S
C457 C463 1.428 . S
C458 C461 1.260 . S
C458 C462 1.477 . S
C458 H476 0.932 . S
C459 C460 1.384 . S
C459 C461 1.479 . S
C459 H477 0.929 . S
C460 C457 1.424 . S
C460 C459 1.384 . S
C460 H478 0.928 . S
C461 C458 1.260 . S
C461 C459 1.479 . S
C462 C457 1.245 . S
C462 C458 1.477 . S
C462 H479 0.932 . S
C463 U446 2.882 . S
C463 C457 1.428 . S
C463 O466 1.301 . S
C463 O467 1.282 . S
O464 U446 2.441 . S
O464 C450 1.249 . S
O465 U446 2.420 . S
O465 C450 1.202 . S
O466 U446 2.455 . S
O466 C463 1.301 . S
O467 U446 2.449 . S
O467 C463 1.282 . S
H468 C441 0.931 . S
H469 C443 0.929 . S
H470 C444 0.930 . S
H471 C445 0.931 . S
H472 C452 0.932 . S
H473 C453 0.930 . S
H474 C454 0.929 . S
H475 C456 0.930 . S
H476 C458 0.932 . S
H477 C459 0.929 . S
H478 C460 0.928 . S
H479 C462 0.932 . S
C480 C481 1.264 . S
C480 C485 1.479 . S
C480 C490 1.465 . S
C481 C480 1.264 . S
C481 C483 1.339 . S
C481 H508 0.931 . S
C482 C483 1.395 . S
C482 C484 1.320 . S
C483 C481 1.339 . S
C483 C482 1.395 . S
C483 H509 0.929 . S
C484 C482 1.320 . S
C484 C485 1.405 . S
C484 H510 0.930 . S
C485 C480 1.479 . S
C485 C484 1.405 . S
C485 H511 0.931 . S
U486 O487 2.454 . S
U486 O488 2.458 . S
U486 C489 2.984 . S
U486 C490 2.847 . S
U486 C503 2.882 . S
U486 O504 2.441 . S
U486 O505 2.420 . S
U486 O506 2.455 . S
U486 O507 2.449 . S
O487 U486 2.454 . S
O487 C489 1.353 . S
O488 U486 2.458 . S
O488 C489 1.286 . S
C489 U486 2.984 . S
C489 O487 1.353 . S
C489 O488 1.286 . S
C489 C491 1.363 . S
C490 C480 1.465 . S
C490 U486 2.847 . S
C490 O504 1.249 . S
C490 O505 1.202 . S
C491 C489 1.363 . S
C491 C493 1.408 . S
C491 C496 1.342 . S
C492 C493 1.310 . S
C492 C495 1.461 . S
C492 H512 0.932 . S
C493 C491 1.408 . S
C493 C492 1.310 . S
C493 H513 0.930 . S
C494 C495 1.474 . S
C494 C496 1.285 . S
C494 H514 0.929 . S
C495 C492 1.461 . S
C495 C494 1.474 . S
C496 C491 1.342 . S
C496 C494 1.285 . S
C496 H515 0.930 . S
C497 C500 1.424 . S
C497 C502 1.245 . S
C497 C503 1.428 . S
C498 C501 1.260 . S
C498 C502 1.477 . S
C498 H516 0.932 . S
C499 C500 1.384 . S
C499 C501 1.479 . S
C499 H517 0.929 . S
C500 C497 1.424 . S
C500 C499 1.384 . S
C500 H518 0.928 . S
C501 C498 1.260 . S
C501 C499 1.479 . S
C502 C497 1.245 . S
C502 C498 1.477 . S
C502 H519 0.932 . S
C503 U486 2.882 . S
C503 C497 1.428 . S
C503 O506 1.301 . S
C503 O507 1.282 . S
O504 U486 2.441 . S
O504 C490 1.249 . S
O505 U486 2.420 . S
O505 C490 1.202 . S
O506 U486 2.455 . S
O506 C503 1.301 . S
O507 U486 2.449 . S
O507 C503 1.282 . S
H508 C481 0.931 . S
H509 C483 0.929 . S
H510 C484 0.930 . S
H511 C485 0.931 . S
H512 C492 0.932 . S
H513 C493 0.930 . S
H514 C494 0.929 . S
H515 C496 0.930 . S
H516 C498 0.932 . S
H517 C499 0.929 . S
H518 C500 0.928 . S
H519 C502 0.932 . S
C520 C521 1.264 . S
C520 C525 1.479 . S
C520 C530 1.465 . S
C521 C520 1.264 . S
C521 C523 1.339 . S
C521 H548 0.931 . S
C522 C523 1.395 . S
C522 C524 1.320 . S
C523 C521 1.339 . S
C523 C522 1.395 . S
C523 H549 0.929 . S
C524 C522 1.320 . S
C524 C525 1.405 . S
C524 H550 0.930 . S
C525 C520 1.479 . S
C525 C524 1.405 . S
C525 H551 0.931 . S
U526 O527 2.454 . S
U526 O528 2.458 . S
U526 C529 2.984 . S
U526 C530 2.847 . S
U526 C543 2.882 . S
U526 O544 2.441 . S
U526 O545 2.420 . S
U526 O546 2.455 . S
U526 O547 2.449 . S
O527 U526 2.454 . S
O527 C529 1.353 . S
O528 U526 2.458 . S
O528 C529 1.286 . S
C529 U526 2.984 . S
C529 O527 1.353 . S
C529 O528 1.286 . S
C529 C531 1.363 . S
C530 C520 1.465 . S
C530 U526 2.847 . S
C530 O544 1.249 . S
C530 O545 1.202 . S
C531 C529 1.363 . S
C531 C533 1.408 . S
C531 C536 1.342 . S
C532 C533 1.310 . S
C532 C535 1.461 . S
C532 H552 0.932 . S
C533 C531 1.408 . S
C533 C532 1.310 . S
C533 H553 0.930 . S
C534 C535 1.474 . S
C534 C536 1.285 . S
C534 H554 0.929 . S
C535 C532 1.461 . S
C535 C534 1.474 . S
C536 C531 1.342 . S
C536 C534 1.285 . S
C536 H555 0.930 . S
C537 C540 1.424 . S
C537 C542 1.245 . S
C537 C543 1.428 . S
C538 C541 1.260 . S
C538 C542 1.477 . S
C538 H556 0.932 . S
C539 C540 1.384 . S
C539 C541 1.479 . S
C539 H557 0.929 . S
C540 C537 1.424 . S
C540 C539 1.384 . S
C540 H558 0.928 . S
C541 C538 1.260 . S
C541 C539 1.479 . S
C542 C537 1.245 . S
C542 C538 1.477 . S
C542 H559 0.932 . S
C543 U526 2.882 . S
C543 C537 1.428 . S
C543 O546 1.301 . S
C543 O547 1.282 . S
O544 U526 2.441 . S
O544 C530 1.249 . S
O545 U526 2.420 . S
O545 C530 1.202 . S
O546 U526 2.455 . S
O546 C543 1.301 . S
O547 U526 2.449 . S
O547 C543 1.282 . S
H548 C521 0.931 . S
H549 C523 0.929 . S
H550 C524 0.930 . S
H551 C525 0.931 . S
H552 C532 0.932 . S
H553 C533 0.930 . S
H554 C534 0.929 . S
H555 C536 0.930 . S
H556 C538 0.932 . S
H557 C539 0.929 . S
H558 C540 0.928 . S
H559 C542 0.932 . S
C560 C561 1.264 . S
C560 C565 1.479 . S
C560 C570 1.465 . S
C561 C560 1.264 . S
C561 C563 1.339 . S
C561 H588 0.931 . S
C562 C563 1.395 . S
C562 C564 1.320 . S
C563 C561 1.339 . S
C563 C562 1.395 . S
C563 H589 0.929 . S
C564 C562 1.320 . S
C564 C565 1.405 . S
C564 H590 0.930 . S
C565 C560 1.479 . S
C565 C564 1.405 . S
C565 H591 0.931 . S
U566 O567 2.454 . S
U566 O568 2.458 . S
U566 C569 2.984 . S
U566 C570 2.847 . S
U566 C583 2.882 . S
U566 O584 2.441 . S
U566 O585 2.420 . S
U566 O586 2.455 . S
U566 O587 2.449 . S
O567 U566 2.454 . S
O567 C569 1.353 . S
O568 U566 2.458 . S
O568 C569 1.286 . S
C569 U566 2.984 . S
C569 O567 1.353 . S
C569 O568 1.286 . S
C569 C571 1.363 . S
C570 C560 1.465 . S
C570 U566 2.847 . S
C570 O584 1.249 . S
C570 O585 1.202 . S
C571 C569 1.363 . S
C571 C573 1.408 . S
C571 C576 1.342 . S
C572 C573 1.310 . S
C572 C575 1.461 . S
C572 H592 0.932 . S
C573 C571 1.408 . S
C573 C572 1.310 . S
C573 H593 0.930 . S
C574 C575 1.474 . S
C574 C576 1.285 . S
C574 H594 0.929 . S
C575 C572 1.461 . S
C575 C574 1.474 . S
C576 C571 1.342 . S
C576 C574 1.285 . S
C576 H595 0.930 . S
C577 C580 1.424 . S
C577 C582 1.245 . S
C577 C583 1.428 . S
C578 C581 1.260 . S
C578 C582 1.477 . S
C578 H596 0.932 . S
C579 C580 1.384 . S
C579 C581 1.479 . S
C579 H597 0.929 . S
C580 C577 1.424 . S
C580 C579 1.384 . S
C580 H598 0.928 . S
C581 C578 1.260 . S
C581 C579 1.479 . S
C582 C577 1.245 . S
C582 C578 1.477 . S
C582 H599 0.932 . S
C583 U566 2.882 . S
C583 C577 1.428 . S
C583 O586 1.301 . S
C583 O587 1.282 . S
O584 U566 2.441 . S
O584 C570 1.249 . S
O585 U566 2.420 . S
O585 C570 1.202 . S
O586 U566 2.455 . S
O586 C583 1.301 . S
O587 U566 2.449 . S
O587 C583 1.282 . S
H588 C561 0.931 . S
H589 C563 0.929 . S
H590 C564 0.930 . S
H591 C565 0.931 . S
H592 C572 0.932 . S
H593 C573 0.930 . S
H594 C574 0.929 . S
H595 C576 0.930 . S
H596 C578 0.932 . S
H597 C579 0.929 . S
H598 C580 0.928 . S
H599 C582 0.932 . S
C600 C601 1.264 . S
C600 C605 1.479 . S
C600 C610 1.465 . S
C601 C600 1.264 . S
C601 C603 1.339 . S
C601 H628 0.931 . S
C602 C603 1.395 . S
C602 C604 1.320 . S
C603 C601 1.339 . S
C603 C602 1.395 . S
C603 H629 0.929 . S
C604 C602 1.320 . S
C604 C605 1.405 . S
C604 H630 0.930 . S
C605 C600 1.479 . S
C605 C604 1.405 . S
C605 H631 0.931 . S
U606 O607 2.454 . S
U606 O608 2.458 . S
U606 C609 2.984 . S
U606 C610 2.847 . S
U606 C623 2.882 . S
U606 O624 2.441 . S
U606 O625 2.420 . S
U606 O626 2.455 . S
U606 O627 2.449 . S
O607 U606 2.454 . S
O607 C609 1.353 . S
O608 U606 2.458 . S
O608 C609 1.286 . S
C609 U606 2.984 . S
C609 O607 1.353 . S
C609 O608 1.286 . S
C609 C611 1.363 . S
C610 C600 1.465 . S
C610 U606 2.847 . S
C610 O624 1.249 . S
C610 O625 1.202 . S
C611 C609 1.363 . S
C611 C613 1.408 . S
C611 C616 1.342 . S
C612 C613 1.310 . S
C612 C615 1.461 . S
C612 H632 0.932 . S
C613 C611 1.408 . S
C613 C612 1.310 . S
C613 H633 0.930 . S
C614 C615 1.474 . S
C614 C616 1.285 . S
C614 H634 0.929 . S
C615 C612 1.461 . S
C615 C614 1.474 . S
C616 C611 1.342 . S
C616 C614 1.285 . S
C616 H635 0.930 . S
C617 C620 1.424 . S
C617 C622 1.245 . S
C617 C623 1.428 . S
C618 C621 1.260 . S
C618 C622 1.477 . S
C618 H636 0.932 . S
C619 C620 1.384 . S
C619 C621 1.479 . S
C619 H637 0.929 . S
C620 C617 1.424 . S
C620 C619 1.384 . S
C620 H638 0.928 . S
C621 C618 1.260 . S
C621 C619 1.479 . S
C622 C617 1.245 . S
C622 C618 1.477 . S
C622 H639 0.932 . S
C623 U606 2.882 . S
C623 C617 1.428 . S
C623 O626 1.301 . S
C623 O627 1.282 . S
O624 U606 2.441 . S
O624 C610 1.249 . S
O625 U606 2.420 . S
O625 C610 1.202 . S
O626 U606 2.455 . S
O626 C623 1.301 . S
O627 U606 2.449 . S
O627 C623 1.282 . S
H628 C601 0.931 . S
H629 C603 0.929 . S
H630 C604 0.930 . S
H631 C605 0.931 . S
H632 C612 0.932 . S
H633 C613 0.930 . S
H634 C614 0.929 . S
H635 C616 0.930 . S
H636 C618 0.932 . S
H637 C619 0.929 . S
H638 C620 0.928 . S
H639 C622 0.932 . S
C640 C641 1.264 . S
C640 C645 1.479 . S
C640 C650 1.465 . S
C641 C640 1.264 . S
C641 C643 1.339 . S
C641 H668 0.931 . S
C642 C643 1.395 . S
C642 C644 1.320 . S
C643 C641 1.339 . S
C643 C642 1.395 . S
C643 H669 0.929 . S
C644 C642 1.320 . S
C644 C645 1.405 . S
C644 H670 0.930 . S
C645 C640 1.479 . S
C645 C644 1.405 . S
C645 H671 0.931 . S
U646 O647 2.454 . S
U646 O648 2.458 . S
U646 C649 2.984 . S
U646 C650 2.847 . S
U646 C663 2.882 . S
U646 O664 2.441 . S
U646 O665 2.420 . S
U646 O666 2.455 . S
U646 O667 2.449 . S
O647 U646 2.454 . S
O647 C649 1.353 . S
O648 U646 2.458 . S
O648 C649 1.286 . S
C649 U646 2.984 . S
C649 O647 1.353 . S
C649 O648 1.286 . S
C649 C651 1.363 . S
C650 C640 1.465 . S
C650 U646 2.847 . S
C650 O664 1.249 . S
C650 O665 1.202 . S
C651 C649 1.363 . S
C651 C653 1.408 . S
C651 C656 1.342 . S
C652 C653 1.310 . S
C652 C655 1.461 . S
C652 H672 0.932 . S
C653 C651 1.408 . S
C653 C652 1.310 . S
C653 H673 0.930 . S
C654 C655 1.474 . S
C654 C656 1.285 . S
C654 H674 0.929 . S
C655 C652 1.461 . S
C655 C654 1.474 . S
C656 C651 1.342 . S
C656 C654 1.285 . S
C656 H675 0.930 . S
C657 C660 1.424 . S
C657 C662 1.245 . S
C657 C663 1.428 . S
C658 C661 1.260 . S
C658 C662 1.477 . S
C658 H676 0.932 . S
C659 C660 1.384 . S
C659 C661 1.479 . S
C659 H677 0.929 . S
C660 C657 1.424 . S
C660 C659 1.384 . S
C660 H678 0.928 . S
C661 C658 1.260 . S
C661 C659 1.479 . S
C662 C657 1.245 . S
C662 C658 1.477 . S
C662 H679 0.932 . S
C663 U646 2.882 . S
C663 C657 1.428 . S
C663 O666 1.301 . S
C663 O667 1.282 . S
O664 U646 2.441 . S
O664 C650 1.249 . S
O665 U646 2.420 . S
O665 C650 1.202 . S
O666 U646 2.455 . S
O666 C663 1.301 . S
O667 U646 2.449 . S
O667 C663 1.282 . S
H668 C641 0.931 . S
H669 C643 0.929 . S
H670 C644 0.930 . S
H671 C645 0.931 . S
H672 C652 0.932 . S
H673 C653 0.930 . S
H674 C654 0.929 . S
H675 C656 0.930 . S
H676 C658 0.932 . S
H677 C659 0.929 . S
H678 C660 0.928 . S
H679 C662 0.932 . S
C680 C681 1.264 . S
C680 C685 1.479 . S
C680 C690 1.465 . S
C681 C680 1.264 . S
C681 C683 1.339 . S
C681 H708 0.931 . S
C682 C683 1.395 . S
C682 C684 1.320 . S
C683 C681 1.339 . S
C683 C682 1.395 . S
C683 H709 0.929 . S
C684 C682 1.320 . S
C684 C685 1.405 . S
C684 H710 0.930 . S
C685 C680 1.479 . S
C685 C684 1.405 . S
C685 H711 0.931 . S
U686 O687 2.454 . S
U686 O688 2.458 . S
U686 C689 2.984 . S
U686 C690 2.847 . S
U686 C703 2.882 . S
U686 O704 2.441 . S
U686 O705 2.420 . S
U686 O706 2.455 . S
U686 O707 2.449 . S
O687 U686 2.454 . S
O687 C689 1.353 . S
O688 U686 2.458 . S
O688 C689 1.286 . S
C689 U686 2.984 . S
C689 O687 1.353 . S
C689 O688 1.286 . S
C689 C691 1.363 . S
C690 C680 1.465 . S
C690 U686 2.847 . S
C690 O704 1.249 . S
C690 O705 1.202 . S
C691 C689 1.363 . S
C691 C693 1.408 . S
C691 C696 1.342 . S
C692 C693 1.310 . S
C692 C695 1.461 . S
C692 H712 0.932 . S
C693 C691 1.408 . S
C693 C692 1.310 . S
C693 H713 0.930 . S
C694 C695 1.474 . S
C694 C696 1.285 . S
C694 H714 0.929 . S
C695 C692 1.461 . S
C695 C694 1.474 . S
C696 C691 1.342 . S
C696 C694 1.285 . S
C696 H715 0.930 . S
C697 C700 1.424 . S
C697 C702 1.245 . S
C697 C703 1.428 . S
C698 C701 1.260 . S
C698 C702 1.477 . S
C698 H716 0.932 . S
C699 C700 1.384 . S
C699 C701 1.479 . S
C699 H717 0.929 . S
C700 C697 1.424 . S
C700 C699 1.384 . S
C700 H718 0.928 . S
C701 C698 1.260 . S
C701 C699 1.479 . S
C702 C697 1.245 . S
C702 C698 1.477 . S
C702 H719 0.932 . S
C703 U686 2.882 . S
C703 C697 1.428 . S
C703 O706 1.301 . S
C703 O707 1.282 . S
O704 U686 2.441 . S
O704 C690 1.249 . S
O705 U686 2.420 . S
O705 C690 1.202 . S
O706 U686 2.455 . S
O706 C703 1.301 . S
O707 U686 2.449 . S
O707 C703 1.282 . S
H708 C681 0.931 . S
H709 C683 0.929 . S
H710 C684 0.930 . S
H711 C685 0.931 . S
H712 C692 0.932 . S
H713 C693 0.930 . S
H714 C694 0.929 . S
H715 C696 0.930 . S
H716 C698 0.932 . S
H717 C699 0.929 . S
H718 C700 0.928 . S
H719 C702 0.932 . S
C720 C721 1.264 . S
C720 C725 1.479 . S
C720 C730 1.465 . S
C721 C720 1.264 . S
C721 C723 1.339 . S
C721 H748 0.931 . S
C722 C723 1.395 . S
C722 C724 1.320 . S
C723 C721 1.339 . S
C723 C722 1.395 . S
C723 H749 0.929 . S
C724 C722 1.320 . S
C724 C725 1.405 . S
C724 H750 0.930 . S
C725 C720 1.479 . S
C725 C724 1.405 . S
C725 H751 0.931 . S
U726 O727 2.454 . S
U726 O728 2.458 . S
U726 C729 2.984 . S
U726 C730 2.847 . S
U726 C743 2.882 . S
U726 O744 2.441 . S
U726 O745 2.420 . S
U726 O746 2.455 . S
U726 O747 2.449 . S
O727 U726 2.454 . S
O727 C729 1.353 . S
O728 U726 2.458 . S
O728 C729 1.286 . S
C729 U726 2.984 . S
C729 O727 1.353 . S
C729 O728 1.286 . S
C729 C731 1.363 . S
C730 C720 1.465 . S
C730 U726 2.847 . S
C730 O744 1.249 . S
C730 O745 1.202 . S
C731 C729 1.363 . S
C731 C733 1.408 . S
C731 C736 1.342 . S
C732 C733 1.310 . S
C732 C735 1.461 . S
C732 H752 0.932 . S
C733 C731 1.408 . S
C733 C732 1.310 . S
C733 H753 0.930 . S
C734 C735 1.474 . S
C734 C736 1.285 . S
C734 H754 0.929 . S
C735 C732 1.461 . S
C735 C734 1.474 . S
C736 C731 1.342 . S
C736 C734 1.285 . S
C736 H755 0.930 . S
C737 C740 1.424 . S
C737 C742 1.245 . S
C737 C743 1.428 . S
C738 C741 1.260 . S
C738 C742 1.477 . S
C738 H756 0.932 . S
C739 C740 1.384 . S
C739 C741 1.479 . S
C739 H757 0.929 . S
C740 C737 1.424 . S
C740 C739 1.384 . S
C740 H758 0.928 . S
C741 C738 1.260 . S
C741 C739 1.479 . S
C742 C737 1.245 . S
C742 C738 1.477 . S
C742 H759 0.932 . S
C743 U726 2.882 . S
C743 C737 1.428 . S
C743 O746 1.301 . S
C743 O747 1.282 . S
O744 U726 2.441 . S
O744 C730 1.249 . S
O745 U726 2.420 . S
O745 C730 1.202 . S
O746 U726 2.455 . S
O746 C743 1.301 . S
O747 U726 2.449 . S
O747 C743 1.282 . S
H748 C721 0.931 . S
H749 C723 0.929 . S
H750 C724 0.930 . S
H751 C725 0.931 . S
H752 C732 0.932 . S
H753 C733 0.930 . S
H754 C734 0.929 . S
H755 C736 0.930 . S
H756 C738 0.932 . S
H757 C739 0.929 . S
H758 C740 0.928 . S
H759 C742 0.932 . S
C760 C761 1.264 . S
C760 C765 1.479 . S
C760 C770 1.465 . S
C761 C760 1.264 . S
C761 C763 1.339 . S
C761 H788 0.931 . S
C762 C763 1.395 . S
C762 C764 1.320 . S
C763 C761 1.339 . S
C763 C762 1.395 . S
C763 H789 0.929 . S
C764 C762 1.320 . S
C764 C765 1.405 . S
C764 H790 0.930 . S
C765 C760 1.479 . S
C765 C764 1.405 . S
C765 H791 0.931 . S
U766 O767 2.454 . S
U766 O768 2.458 . S
U766 C769 2.984 . S
U766 C770 2.847 . S
U766 C783 2.882 . S
U766 O784 2.441 . S
U766 O785 2.420 . S
U766 O786 2.455 . S
U766 O787 2.449 . S
O767 U766 2.454 . S
O767 C769 1.353 . S
O768 U766 2.458 . S
O768 C769 1.286 . S
C769 U766 2.984 . S
C769 O767 1.353 . S
C769 O768 1.286 . S
C769 C771 1.363 . S
C770 C760 1.465 . S
C770 U766 2.847 . S
C770 O784 1.249 . S
C770 O785 1.202 . S
C771 C769 1.363 . S
C771 C773 1.408 . S
C771 C776 1.342 . S
C772 C773 1.310 . S
C772 C775 1.461 . S
C772 H792 0.932 . S
C773 C771 1.408 . S
C773 C772 1.310 . S
C773 H793 0.930 . S
C774 C775 1.474 . S
C774 C776 1.285 . S
C774 H794 0.929 . S
C775 C772 1.461 . S
C775 C774 1.474 . S
C776 C771 1.342 . S
C776 C774 1.285 . S
C776 H795 0.930 . S
C777 C780 1.424 . S
C777 C782 1.245 . S
C777 C783 1.428 . S
C778 C781 1.260 . S
C778 C782 1.477 . S
C778 H796 0.932 . S
C779 C780 1.384 . S
C779 C781 1.479 . S
C779 H797 0.929 . S
C780 C777 1.424 . S
C780 C779 1.384 . S
C780 H798 0.928 . S
C781 C778 1.260 . S
C781 C779 1.479 . S
C782 C777 1.245 . S
C782 C778 1.477 . S
C782 H799 0.932 . S
C783 U766 2.882 . S
C783 C777 1.428 . S
C783 O786 1.301 . S
C783 O787 1.282 . S
O784 U766 2.441 . S
O784 C770 1.249 . S
O785 U766 2.420 . S
O785 C770 1.202 . S
O786 U766 2.455 . S
O786 C783 1.301 . S
O787 U766 2.449 . S
O787 C783 1.282 . S
H788 C761 0.931 . S
H789 C763 0.929 . S
H790 C764 0.930 . S
H791 C765 0.931 . S
H792 C772 0.932 . S
H793 C773 0.930 . S
H794 C774 0.929 . S
H795 C776 0.930 . S
H796 C778 0.932 . S
H797 C779 0.929 . S
H798 C780 0.928 . S
H799 C782 0.932 . S
C800 C801 1.264 . S
C800 C805 1.479 . S
C800 C810 1.465 . S
C801 C800 1.264 . S
C801 C803 1.339 . S
C801 H828 0.931 . S
C802 C803 1.395 . S
C802 C804 1.320 . S
C803 C801 1.339 . S
C803 C802 1.395 . S
C803 H829 0.929 . S
C804 C802 1.320 . S
C804 C805 1.405 . S
C804 H830 0.930 . S
C805 C800 1.479 . S
C805 C804 1.405 . S
C805 H831 0.931 . S
U806 O807 2.454 . S
U806 O808 2.458 . S
U806 C809 2.984 . S
U806 C810 2.847 . S
U806 C823 2.882 . S
U806 O824 2.441 . S
U806 O825 2.420 . S
U806 O826 2.455 . S
U806 O827 2.449 . S
O807 U806 2.454 . S
O807 C809 1.353 . S
O808 U806 2.458 . S
O808 C809 1.286 . S
C809 U806 2.984 . S
C809 O807 1.353 . S
C809 O808 1.286 . S
C809 C811 1.363 . S
C810 C800 1.465 . S
C810 U806 2.847 . S
C810 O824 1.249 . S
C810 O825 1.202 . S
C811 C809 1.363 . S
C811 C813 1.408 . S
C811 C816 1.342 . S
C812 C813 1.310 . S
C812 C815 1.461 . S
C812 H832 0.932 . S
C813 C811 1.408 . S
C813 C812 1.310 . S
C813 H833 0.930 . S
C814 C815 1.474 . S
C814 C816 1.285 . S
C814 H834 0.929 . S
C815 C812 1.461 . S
C815 C814 1.474 . S
C816 C811 1.342 . S
C816 C814 1.285 . S
C816 H835 0.930 . S
C817 C820 1.424 . S
C817 C822 1.245 . S
C817 C823 1.428 . S
C818 C821 1.260 . S
C818 C822 1.477 . S
C818 H836 0.932 . S
C819 C820 1.384 . S
C819 C821 1.479 . S
C819 H837 0.929 . S
C820 C817 1.424 . S
C820 C819 1.384 . S
C820 H838 0.928 . S
C821 C818 1.260 . S
C821 C819 1.479 . S
C822 C817 1.245 . S
C822 C818 1.477 . S
C822 H839 0.932 . S
C823 U806 2.882 . S
C823 C817 1.428 . S
C823 O826 1.301 . S
C823 O827 1.282 . S
O824 U806 2.441 . S
O824 C810 1.249 . S
O825 U806 2.420 . S
O825 C810 1.202 . S
O826 U806 2.455 . S
O826 C823 1.301 . S
O827 U806 2.449 . S
O827 C823 1.282 . S
H828 C801 0.931 . S
H829 C803 0.929 . S
H830 C804 0.930 . S
H831 C805 0.931 . S
H832 C812 0.932 . S
H833 C813 0.930 . S
H834 C814 0.929 . S
H835 C816 0.930 . S
H836 C818 0.932 . S
H837 C819 0.929 . S
H838 C820 0.928 . S
H839 C822 0.932 . S
C840 C841 1.264 . S
C840 C845 1.479 . S
C840 C850 1.465 . S
C841 C840 1.264 . S
C841 C843 1.339 . S
C841 H868 0.931 . S
C842 C843 1.395 . S
C842 C844 1.320 . S
C843 C841 1.339 . S
C843 C842 1.395 . S
C843 H869 0.929 . S
C844 C842 1.320 . S
C844 C845 1.405 . S
C844 H870 0.930 . S
C845 C840 1.479 . S
C845 C844 1.405 . S
C845 H871 0.931 . S
U846 O847 2.454 . S
U846 O848 2.458 . S
U846 C849 2.984 . S
U846 C850 2.847 . S
U846 C863 2.882 . S
U846 O864 2.441 . S
U846 O865 2.420 . S
U846 O866 2.455 . S
U846 O867 2.449 . S
O847 U846 2.454 . S
O847 C849 1.353 . S
O848 U846 2.458 . S
O848 C849 1.286 . S
C849 U846 2.984 . S
C849 O847 1.353 . S
C849 O848 1.286 . S
C849 C851 1.363 . S
C850 C840 1.465 . S
C850 U846 2.847 . S
C850 O864 1.249 . S
C850 O865 1.202 . S
C851 C849 1.363 . S
C851 C853 1.408 . S
C851 C856 1.342 . S
C852 C853 1.310 . S
C852 C855 1.461 . S
C852 H872 0.932 . S
C853 C851 1.408 . S
C853 C852 1.310 . S
C853 H873 0.930 . S
C854 C855 1.474 . S
C854 C856 1.285 . S
C854 H874 0.929 . S
C855 C852 1.461 . S
C855 C854 1.474 . S
C856 C851 1.342 . S
C856 C854 1.285 . S
C856 H875 0.930 . S
C857 C860 1.424 . S
C857 C862 1.245 . S
C857 C863 1.428 . S
C858 C861 1.260 . S
C858 C862 1.477 . S
C858 H876 0.932 . S
C859 C860 1.384 . S
C859 C861 1.479 . S
C859 H877 0.929 . S
C860 C857 1.424 . S
C860 C859 1.384 . S
C860 H878 0.928 . S
C861 C858 1.260 . S
C861 C859 1.479 . S
C862 C857 1.245 . S
C862 C858 1.477 . S
C862 H879 0.932 . S
C863 U846 2.882 . S
C863 C857 1.428 . S
C863 O866 1.301 . S
C863 O867 1.282 . S
O864 U846 2.441 . S
O864 C850 1.249 . S
O865 U846 2.420 . S
O865 C850 1.202 . S
O866 U846 2.455 . S
O866 C863 1.301 . S
O867 U846 2.449 . S
O867 C863 1.282 . S
H868 C841 0.931 . S
H869 C843 0.929 . S
H870 C844 0.930 . S
H871 C845 0.931 . S
H872 C852 0.932 . S
H873 C853 0.930 . S
H874 C854 0.929 . S
H875 C856 0.930 . S
H876 C858 0.932 . S
H877 C859 0.929 . S
H878 C860 0.928 . S
H879 C862 0.932 . S
C880 C881 1.264 . S
C880 C885 1.479 . S
C880 C890 1.465 . S
C881 C880 1.264 . S
C881 C883 1.339 . S
C881 H908 0.931 . S
C882 C883 1.395 . S
C882 C884 1.320 . S
C883 C881 1.339 . S
C883 C882 1.395 . S
C883 H909 0.929 . S
C884 C882 1.320 . S
C884 C885 1.405 . S
C884 H910 0.930 . S
C885 C880 1.479 . S
C885 C884 1.405 . S
C885 H911 0.931 . S
U886 O887 2.454 . S
U886 O888 2.458 . S
U886 C889 2.984 . S
U886 C890 2.847 . S
U886 C903 2.882 . S
U886 O904 2.441 . S
U886 O905 2.420 . S
U886 O906 2.455 . S
U886 O907 2.449 . S
O887 U886 2.454 . S
O887 C889 1.353 . S
O888 U886 2.458 . S
O888 C889 1.286 . S
C889 U886 2.984 . S
C889 O887 1.353 . S
C889 O888 1.286 . S
C889 C891 1.363 . S
C890 C880 1.465 . S
C890 U886 2.847 . S
C890 O904 1.249 . S
C890 O905 1.202 . S
C891 C889 1.363 . S
C891 C893 1.408 . S
C891 C896 1.342 . S
C892 C893 1.310 . S
C892 C895 1.461 . S
C892 H912 0.932 . S
C893 C891 1.408 . S
C893 C892 1.310 . S
C893 H913 0.930 . S
C894 C895 1.474 . S
C894 C896 1.285 . S
C894 H914 0.929 . S
C895 C892 1.461 . S
C895 C894 1.474 . S
C896 C891 1.342 . S
C896 C894 1.285 . S
C896 H915 0.930 . S
C897 C900 1.424 . S
C897 C902 1.245 . S
C897 C903 1.428 . S
C898 C901 1.260 . S
C898 C902 1.477 . S
C898 H916 0.932 . S
C899 C900 1.384 . S
C899 C901 1.479 . S
C899 H917 0.929 . S
C900 C897 1.424 . S
C900 C899 1.384 . S
C900 H918 0.928 . S
C901 C898 1.260 . S
C901 C899 1.479 . S
C902 C897 1.245 . S
C902 C898 1.477 . S
C902 H919 0.932 . S
C903 U886 2.882 . S
C903 C897 1.428 . S
C903 O906 1.301 . S
C903 O907 1.282 . S
O904 U886 2.441 . S
O904 C890 1.249 . S
O905 U886 2.420 . S
O905 C890 1.202 . S
O906 U886 2.455 . S
O906 C903 1.301 . S
O907 U886 2.449 . S
O907 C903 1.282 . S
H908 C881 0.931 . S
H909 C883 0.929 . S
H910 C884 0.930 . S
H911 C885 0.931 . S
H912 C892 0.932 . S
H913 C893 0.930 . S
H914 C894 0.929 . S
H915 C896 0.930 . S
H916 C898 0.932 . S
H917 C899 0.929 . S
H918 C900 0.928 . S
H919 C902 0.932 . S
C920 C921 1.264 . S
C920 C925 1.479 . S
C920 C930 1.465 . S
C921 C920 1.264 . S
C921 C923 1.339 . S
C921 H948 0.931 . S
C922 C923 1.395 . S
C922 C924 1.320 . S
C923 C921 1.339 . S
C923 C922 1.395 . S
C923 H949 0.929 . S
C924 C922 1.320 . S
C924 C925 1.405 . S
C924 H950 0.930 . S
C925 C920 1.479 . S
C925 C924 1.405 . S
C925 H951 0.931 . S
U926 O927 2.454 . S
U926 O928 2.458 . S
U926 C929 2.984 . S
U926 C930 2.847 . S
U926 C943 2.882 . S
U926 O944 2.441 . S
U926 O945 2.420 . S
U926 O946 2.455 . S
U926 O947 2.449 . S
O927 U926 2.454 . S
O927 C929 1.353 . S
O928 U926 2.458 . S
O928 C929 1.286 . S
C929 U926 2.984 . S
C929 O927 1.353 . S
C929 O928 1.286 . S
C929 C931 1.363 . S
C930 C920 1.465 . S
C930 U926 2.847 . S
C930 O944 1.249 . S
C930 O945 1.202 . S
C931 C929 1.363 . S
C931 C933 1.408 . S
C931 C936 1.342 . S
C932 C933 1.310 . S
C932 C935 1.461 . S
C932 H952 0.932 . S
C933 C931 1.408 . S
C933 C932 1.310 . S
C933 H953 0.930 . S
C934 C935 1.474 . S
C934 C936 1.285 . S
C934 H954 0.929 . S
C935 C932 1.461 . S
C935 C934 1.474 . S
C936 C931 1.342 . S
C936 C934 1.285 . S
C936 H955 0.930 . S
C937 C940 1.424 . S
C937 C942 1.245 . S
C937 C943 1.428 . S
C938 C941 1.260 . S
C938 C942 1.477 . S
C938 H956 0.932 . S
C939 C940 1.384 . S
C939 C941 1.479 . S
C939 H957 0.929 . S
C940 C937 1.424 . S
C940 C939 1.384 . S
C940 H958 0.928 . S
C941 C938 1.260 . S
C941 C939 1.479 . S
C942 C937 1.245 . S
C942 C938 1.477 . S
C942 H959 0.932 . S
C943 U926 2.882 . S
C943 C937 1.428 . S
C943 O946 1.301 . S
C943 O947 1.282 . S
O944 U926 2.441 . S
O944 C930 1.249 . S
O945 U926 2.420 . S
O945 C930 1.202 . S
O946 U926 2.455 . S
O946 C943 1.301 . S
O947 U926 2.449 . S
O947 C943 1.282 . S
H948 C921 0.931 . S
H949 C923 0.929 . S
H950 C924 0.930 . S
H951 C925 0.931 . S
H952 C932 0.932 . S
H953 C933 0.930 . S
H954 C934 0.929 . S
H955 C936 0.930 . S
H956 C938 0.932 . S
H957 C939 0.929 . S
H958 C940 0.928 . S
H959 C942 0.932 . S
C960 C961 1.264 . S
C960 C965 1.479 . S
C960 C970 1.465 . S
C961 C960 1.264 . S
C961 C963 1.339 . S
C961 H988 0.931 . S
C962 C963 1.395 . S
C962 C964 1.320 . S
C963 C961 1.339 . S
C963 C962 1.395 . S
C963 H989 0.929 . S
C964 C962 1.320 . S
C964 C965 1.405 . S
C964 H990 0.930 . S
C965 C960 1.479 . S
C965 C964 1.405 . S
C965 H991 0.931 . S
U966 O967 2.454 . S
U966 O968 2.458 . S
U966 C969 2.984 . S
U966 C970 2.847 . S
U966 C983 2.882 . S
U966 O984 2.441 . S
U966 O985 2.420 . S
U966 O986 2.455 . S
U966 O987 2.449 . S
O967 U966 2.454 . S
O967 C969 1.353 . S
O968 U966 2.458 . S
O968 C969 1.286 . S
C969 U966 2.984 . S
C969 O967 1.353 . S
C969 O968 1.286 . S
C969 C971 1.363 . S
C970 C960 1.465 . S
C970 U966 2.847 . S
C970 O984 1.249 . S
C970 O985 1.202 . S
C971 C969 1.363 . S
C971 C973 1.408 . S
C971 C976 1.342 . S
C972 C973 1.310 . S
C972 C975 1.461 . S
C972 H992 0.932 . S
C973 C971 1.408 . S
C973 C972 1.310 . S
C973 H993 0.930 . S
C974 C975 1.474 . S
C974 C976 1.285 . S
C974 H994 0.929 . S
C975 C972 1.461 . S
C975 C974 1.474 . S
C976 C971 1.342 . S
C976 C974 1.285 . S
C976 H995 0.930 . S
C977 C980 1.424 . S
C977 C982 1.245 . S
C977 C983 1.428 . S
C978 C981 1.260 . S
C978 C982 1.477 . S
C978 H996 0.932 . S
C979 C980 1.384 . S
C979 C981 1.479 . S
C979 H997 0.929 . S
C980 C977 1.424 . S
C980 C979 1.384 . S
C980 H998 0.928 . S
C981 C978 1.260 . S
C981 C979 1.479 . S
C982 C977 1.245 . S
C982 C978 1.477 . S
C982 H999 0.932 . S
C983 U966 2.882 . S
C983 C977 1.428 . S
C983 O986 1.301 . S
C983 O987 1.282 . S
O984 U966 2.441 . S
O984 C970 1.249 . S
O985 U966 2.420 . S
O985 C970 1.202 . S
O986 U966 2.455 . S
O986 C983 1.301 . S
O987 U966 2.449 . S
O987 C983 1.282 . S
H988 C961 0.931 . S
H989 C963 0.929 . S
H990 C964 0.930 . S
H991 C965 0.931 . S
H992 C972 0.932 . S
H993 C973 0.930 . S
H994 C974 0.929 . S
H995 C976 0.930 . S
H996 C978 0.932 . S
H997 C979 0.929 . S
H998 C980 0.928 . S
H999 C982 0.932 . S
C1000 C1001 1.264 . S
C1000 C1005 1.479 . S
C1000 C1010 1.465 . S
C1001 C1000 1.264 . S
C1001 C1003 1.339 . S
C1001 H1028 0.931 . S
C1002 C1003 1.395 . S
C1002 C1004 1.320 . S
C1003 C1001 1.339 . S
C1003 C1002 1.395 . S
C1003 H1029 0.929 . S
C1004 C1002 1.320 . S
C1004 C1005 1.405 . S
C1004 H1030 0.930 . S
C1005 C1000 1.479 . S
C1005 C1004 1.405 . S
C1005 H1031 0.931 . S
U1006 O1007 2.454 . S
U1006 O1008 2.458 . S
U1006 C1009 2.984 . S
U1006 C1010 2.847 . S
U1006 C1023 2.882 . S
U1006 O1024 2.441 . S
U1006 O1025 2.420 . S
U1006 O1026 2.455 . S
U1006 O1027 2.449 . S
O1007 U1006 2.454 . S
O1007 C1009 1.353 . S
O1008 U1006 2.458 . S
O1008 C1009 1.286 . S
C1009 U1006 2.984 . S
C1009 O1007 1.353 . S
C1009 O1008 1.286 . S
C1009 C1011 1.363 . S
C1010 C1000 1.465 . S
C1010 U1006 2.847 . S
C1010 O1024 1.249 . S
C1010 O1025 1.202 . S
C1011 C1009 1.363 . S
C1011 C1013 1.408 . S
C1011 C1016 1.342 . S
C1012 C1013 1.310 . S
C1012 C1015 1.461 . S
C1012 H1032 0.932 . S
C1013 C1011 1.408 . S
C1013 C1012 1.310 . S
C1013 H1033 0.930 . S
C1014 C1015 1.474 . S
C1014 C1016 1.285 . S
C1014 H1034 0.929 . S
C1015 C1012 1.461 . S
C1015 C1014 1.474 . S
C1016 C1011 1.342 . S
C1016 C1014 1.285 . S
C1016 H1035 0.930 . S
C1017 C1020 1.424 . S
C1017 C1022 1.245 . S
C1017 C1023 1.428 . S
C1018 C1021 1.260 . S
C1018 C1022 1.477 . S
C1018 H1036 0.932 . S
C1019 C1020 1.384 . S
C1019 C1021 1.479 . S
C1019 H1037 0.929 . S
C1020 C1017 1.424 . S
C1020 C1019 1.384 . S
C1020 H1038 0.928 . S
C1021 C1018 1.260 . S
C1021 C1019 1.479 . S
C1022 C1017 1.245 . S
C1022 C1018 1.477 . S
C1022 H1039 0.932 . S
C1023 U1006 2.882 . S
C1023 C1017 1.428 . S
C1023 O1026 1.301 . S
C1023 O1027 1.282 . S
O1024 U1006 2.441 . S
O1024 C1010 1.249 . S
O1025 U1006 2.420 . S
O1025 C1010 1.202 . S
O1026 U1006 2.455 . S
O1026 C1023 1.301 . S
O1027 U1006 2.449 . S
O1027 C1023 1.282 . S
H1028 C1001 0.931 . S
H1029 C1003 0.929 . S
H1030 C1004 0.930 . S
H1031 C1005 0.931 . S
H1032 C1012 0.932 . S
H1033 C1013 0.930 . S
H1034 C1014 0.929 . S
H1035 C1016 0.930 . S
H1036 C1018 0.932 . S
H1037 C1019 0.929 . S
H1038 C1020 0.928 . S
H1039 C1022 0.932 . S
C1040 C1041 1.264 . S
C1040 C1045 1.479 . S
C1040 C1050 1.465 . S
C1041 C1040 1.264 . S
C1041 C1043 1.339 . S
C1041 H1068 0.931 . S
C1042 C1043 1.395 . S
C1042 C1044 1.320 . S
C1043 C1041 1.339 . S
C1043 C1042 1.395 . S
C1043 H1069 0.929 . S
C1044 C1042 1.320 . S
C1044 C1045 1.405 . S
C1044 H1070 0.930 . S
C1045 C1040 1.479 . S
C1045 C1044 1.405 . S
C1045 H1071 0.931 . S
U1046 O1047 2.454 . S
U1046 O1048 2.458 . S
U1046 C1049 2.984 . S
U1046 C1050 2.847 . S
U1046 C1063 2.882 . S
U1046 O1064 2.441 . S
U1046 O1065 2.420 . S
U1046 O1066 2.455 . S
U1046 O1067 2.449 . S
O1047 U1046 2.454 . S
O1047 C1049 1.353 . S
O1048 U1046 2.458 . S
O1048 C1049 1.286 . S
C1049 U1046 2.984 . S
C1049 O1047 1.353 . S
C1049 O1048 1.286 . S
C1049 C1051 1.363 . S
C1050 C1040 1.465 . S
C1050 U1046 2.847 . S
C1050 O1064 1.249 . S
C1050 O1065 1.202 . S
C1051 C1049 1.363 . S
C1051 C1053 1.408 . S
C1051 C1056 1.342 . S
C1052 C1053 1.310 . S
C1052 C1055 1.461 . S
C1052 H1072 0.932 . S
C1053 C1051 1.408 . S
C1053 C1052 1.310 . S
C1053 H1073 0.930 . S
C1054 C1055 1.474 . S
C1054 C1056 1.285 . S
C1054 H1074 0.929 . S
C1055 C1052 1.461 . S
C1055 C1054 1.474 . S
C1056 C1051 1.342 . S
C1056 C1054 1.285 . S
C1056 H1075 0.930 . S
C1057 C1060 1.424 . S
C1057 C1062 1.245 . S
C1057 C1063 1.428 . S
C1058 C1061 1.260 . S
C1058 C1062 1.477 . S
C1058 H1076 0.932 . S
C1059 C1060 1.384 . S
C1059 C1061 1.479 . S
C1059 H1077 0.929 . S
C1060 C1057 1.424 . S
C1060 C1059 1.384 . S
C1060 H1078 0.928 . S
C1061 C1058 1.260 . S
C1061 C1059 1.479 . S
C1062 C1057 1.245 . S
C1062 C1058 1.477 . S
C1062 H1079 0.932 . S
C1063 U1046 2.882 . S
C1063 C1057 1.428 . S
C1063 O1066 1.301 . S
C1063 O1067 1.282 . S
O1064 U1046 2.441 . S
O1064 C1050 1.249 . S
O1065 U1046 2.420 . S
O1065 C1050 1.202 . S
O1066 U1046 2.455 . S
O1066 C1063 1.301 . S
O1067 U1046 2.449 . S
O1067 C1063 1.282 . S
H1068 C1041 0.931 . S
H1069 C1043 0.929 . S
H1070 C1044 0.930 . S
H1071 C1045 0.931 . S
H1072 C1052 0.932 . S
H1073 C1053 0.930 . S
H1074 C1054 0.929 . S
H1075 C1056 0.930 . S
H1076 C1058 0.932 . S
H1077 C1059 0.929 . S
H1078 C1060 0.928 . S
H1079 C1062 0.932 . S
C1080 C1081 1.264 . S
C1080 C1085 1.479 . S
C1080 C1090 1.465 . S
C1081 C1080 1.264 . S
C1081 C1083 1.339 . S
C1081 H1108 0.931 . S
C1082 C1083 1.395 . S
C1082 C1084 1.320 . S
C1083 C1081 1.339 . S
C1083 C1082 1.395 . S
C1083 H1109 0.929 . S
C1084 C1082 1.320 . S
C1084 C1085 1.405 . S
C1084 H1110 0.930 . S
C1085 C1080 1.479 . S
C1085 C1084 1.405 . S
C1085 H1111 0.931 . S
U1086 O1087 2.454 . S
U1086 O1088 2.458 . S
U1086 C1089 2.984 . S
U1086 C1090 2.847 . S
U1086 C1103 2.882 . S
U1086 O1104 2.441 . S
U1086 O1105 2.420 . S
U1086 O1106 2.455 . S
U1086 O1107 2.449 . S
O1087 U1086 2.454 . S
O1087 C1089 1.353 . S
O1088 U1086 2.458 . S
O1088 C1089 1.286 . S
C1089 U1086 2.984 . S
C1089 O1087 1.353 . S
C1089 O1088 1.286 . S
C1089 C1091 1.363 . S
C1090 C1080 1.465 . S
C1090 U1086 2.847 . S
C1090 O1104 1.249 . S
C1090 O1105 1.202 . S
C1091 C1089 1.363 . S
C1091 C1093 1.408 . S
C1091 C1096 1.342 . S
C1092 C1093 1.310 . S
C1092 C1095 1.461 . S
C1092 H1112 0.932 . S
C1093 C1091 1.408 . S
C1093 C1092 1.310 . S
C1093 H1113 0.930 . S
C1094 C1095 1.474 . S
C1094 C1096 1.285 . S
C1094 H1114 0.929 . S
C1095 C1092 1.461 . S
C1095 C1094 1.474 . S
C1096 C1091 1.342 . S
C1096 C1094 1.285 . S
C1096 H1115 0.930 . S
C1097 C1100 1.424 . S
C1097 C1102 1.245 . S
C1097 C1103 1.428 . S
C1098 C1101 1.260 . S
C1098 C1102 1.477 . S
C1098 H1116 0.932 . S
C1099 C1100 1.384 . S
C1099 C1101 1.479 . S
C1099 H1117 0.929 . S
C1100 C1097 1.424 . S
C1100 C1099 1.384 . S
C1100 H1118 0.928 . S
C1101 C1098 1.260 . S
C1101 C1099 1.479 . S
C1102 C1097 1.245 . S
C1102 C1098 1.477 . S
C1102 H1119 0.932 . S
C1103 U1086 2.882 . S
C1103 C1097 1.428 . S
C1103 O1106 1.301 . S
C1103 O1107 1.282 . S
O1104 U1086 2.441 . S
O1104 C1090 1.249 . S
O1105 U1086 2.420 . S
O1105 C1090 1.202 . S
O1106 U1086 2.455 . S
O1106 C1103 1.301 . S
O1107 U1086 2.449 . S
O1107 C1103 1.282 . S
H1108 C1081 0.931 . S
H1109 C1083 0.929 . S
H1110 C1084 0.930 . S
H1111 C1085 0.931 . S
H1112 C1092 0.932 . S
H1113 C1093 0.930 . S
H1114 C1094 0.929 . S
H1115 C1096 0.930 . S
H1116 C1098 0.932 . S
H1117 C1099 0.929 . S
H1118 C1100 0.928 . S
H1119 C1102 0.932 . S
C1120 C1121 1.264 . S
C1120 C1125 1.479 . S
C1120 C1130 1.465 . S
C1121 C1120 1.264 . S
C1121 C1123 1.339 . S
C1121 H1148 0.931 . S
C1122 C1123 1.395 . S
C1122 C1124 1.320 . S
C1123 C1121 1.339 . S
C1123 C1122 1.395 . S
C1123 H1149 0.929 . S
C1124 C1122 1.320 . S
C1124 C1125 1.405 . S
C1124 H1150 0.930 . S
C1125 C1120 1.479 . S
C1125 C1124 1.405 . S
C1125 H1151 0.931 . S
U1126 O1127 2.454 . S
U1126 O1128 2.458 . S
U1126 C1129 2.984 . S
U1126 C1130 2.847 . S
U1126 C1143 2.882 . S
U1126 O1144 2.441 . S
U1126 O1145 2.420 . S
U1126 O1146 2.455 . S
U1126 O1147 2.449 . S
O1127 U1126 2.454 . S
O1127 C1129 1.353 . S
O1128 U1126 2.458 . S
O1128 C1129 1.286 . S
C1129 U1126 2.984 . S
C1129 O1127 1.353 . S
C1129 O1128 1.286 . S
C1129 C1131 1.363 . S
C1130 C1120 1.465 . S
C1130 U1126 2.847 . S
C1130 O1144 1.249 . S
C1130 O1145 1.202 . S
C1131 C1129 1.363 . S
C1131 C1133 1.408 . S
C1131 C1136 1.342 . S
C1132 C1133 1.310 . S
C1132 C1135 1.461 . S
C1132 H1152 0.932 . S
C1133 C1131 1.408 . S
C1133 C1132 1.310 . S
C1133 H1153 0.930 . S
C1134 C1135 1.474 . S
C1134 C1136 1.285 . S
C1134 H1154 0.929 . S
C1135 C1132 1.461 . S
C1135 C1134 1.474 . S
C1136 C1131 1.342 . S
C1136 C1134 1.285 . S
C1136 H1155 0.930 . S
C1137 C1140 1.424 . S
C1137 C1142 1.245 . S
C1137 C1143 1.428 . S
C1138 C1141 1.260 . S
C1138 C1142 1.477 . S
C1138 H1156 0.932 . S
C1139 C1140 1.384 . S
C1139 C1141 1.479 . S
C1139 H1157 0.929 . S
C1140 C1137 1.424 . S
C1140 C1139 1.384 . S
C1140 H1158 0.928 . S
C1141 C1138 1.260 . S
C1141 C1139 1.479 . S
C1142 C1137 1.245 . S
C1142 C1138 1.477 . S
C1142 H1159 0.932 . S
C1143 U1126 2.882 . S
C1143 C1137 1.428 . S
C1143 O1146 1.301 . S
C1143 O1147 1.282 . S
O1144 U1126 2.441 . S
O1144 C1130 1.249 . S
O1145 U1126 2.420 . S
O1145 C1130 1.202 . S
O1146 U1126 2.455 . S
O1146 C1143 1.301 . S
O1147 U1126 2.449 . S
O1147 C1143 1.282 . S
H1148 C1121 0.931 . S
H1149 C1123 0.929 . S
H1150 C1124 0.930 . S
H1151 C1125 0.931 . S
H1152 C1132 0.932 . S
H1153 C1133 0.930 . S
H1154 C1134 0.929 . S
H1155 C1136 0.930 . S
H1156 C1138 0.932 . S
H1157 C1139 0.929 . S
H1158 C1140 0.928 . S
H1159 C1142 0.932 . S
C1160 C1161 1.264 . S
C1160 C1165 1.479 . S
C1160 C1170 1.465 . S
C1161 C1160 1.264 . S
C1161 C1163 1.339 . S
C1161 H1188 0.931 . S
C1162 C1163 1.395 . S
C1162 C1164 1.320 . S
C1163 C1161 1.339 . S
C1163 C1162 1.395 . S
C1163 H1189 0.929 . S
C1164 C1162 1.320 . S
C1164 C1165 1.405 . S
C1164 H1190 0.930 . S
C1165 C1160 1.479 . S
C1165 C1164 1.405 . S
C1165 H1191 0.931 . S
U1166 O1167 2.454 . S
U1166 O1168 2.458 . S
U1166 C1169 2.984 . S
U1166 C1170 2.847 . S
U1166 C1183 2.882 . S
U1166 O1184 2.441 . S
U1166 O1185 2.420 . S
U1166 O1186 2.455 . S
U1166 O1187 2.449 . S
O1167 U1166 2.454 . S
O1167 C1169 1.353 . S
O1168 U1166 2.458 . S
O1168 C1169 1.286 . S
C1169 U1166 2.984 . S
C1169 O1167 1.353 . S
C1169 O1168 1.286 . S
C1169 C1171 1.363 . S
C1170 C1160 1.465 . S
C1170 U1166 2.847 . S
C1170 O1184 1.249 . S
C1170 O1185 1.202 . S
C1171 C1169 1.363 . S
C1171 C1173 1.408 . S
C1171 C1176 1.342 . S
C1172 C1173 1.310 . S
C1172 C1175 1.461 . S
C1172 H1192 0.932 . S
C1173 C1171 1.408 . S
C1173 C1172 1.310 . S
C1173 H1193 0.930 . S
C1174 C1175 1.474 . S
C1174 C1176 1.285 . S
C1174 H1194 0.929 . S
C1175 C1172 1.461 . S
C1175 C1174 1.474 . S
C1176 C1171 1.342 . S
C1176 C1174 1.285 . S
C1176 H1195 0.930 . S
C1177 C1180 1.424 . S
C1177 C1182 1.245 . S
C1177 C1183 1.428 . S
C1178 C1181 1.260 . S
C1178 C1182 1.477 . S
C1178 H1196 0.932 . S
C1179 C1180 1.384 . S
C1179 C1181 1.479 . S
C1179 H1197 0.929 . S
C1180 C1177 1.424 . S
C1180 C1179 1.384 . S
C1180 H1198 0.928 . S
C1181 C1178 1.260 . S
C1181 C1179 1.479 . S
C1182 C1177 1.245 . S
C1182 C1178 1.477 . S
C1182 H1199 0.932 . S
C1183 U1166 2.882 . S
C1183 C1177 1.428 . S
C1183 O1186 1.301 . S
C1183 O1187 1.282 . S
O1184 U1166 2.441 . S
O1184 C1170 1.249 . S
O1185 U1166 2.420 . S
O1185 C1170 1.202 . S
O1186 U1166 2.455 . S
O1186 C1183 1.301 . S
O1187 U1166 2.449 . S
O1187 C1183 1.282 . S
H1188 C1161 0.931 . S
H1189 C1163 0.929 . S
H1190 C1164 0.930 . S
H1191 C1165 0.931 . S
H1192 C1172 0.932 . S
H1193 C1173 0.930 . S
H1194 C1174 0.929 . S
H1195 C1176 0.930 . S
H1196 C1178 0.932 . S
H1197 C1179 0.929 . S
H1198 C1180 0.928 . S
H1199 C1182 0.932 . S
C1200 C1201 1.264 . S
C1200 C1205 1.479 . S
C1200 C1210 1.465 . S
C1201 C1200 1.264 . S
C1201 C1203 1.339 . S
C1201 H1228 0.931 . S
C1202 C1203 1.395 . S
C1202 C1204 1.320 . S
C1203 C1201 1.339 . S
C1203 C1202 1.395 . S
C1203 H1229 0.929 . S
C1204 C1202 1.320 . S
C1204 C1205 1.405 . S
C1204 H1230 0.930 . S
C1205 C1200 1.479 . S
C1205 C1204 1.405 . S
C1205 H1231 0.931 . S
U1206 O1207 2.454 . S
U1206 O1208 2.458 . S
U1206 C1209 2.984 . S
U1206 C1210 2.847 . S
U1206 C1223 2.882 . S
U1206 O1224 2.441 . S
U1206 O1225 2.420 . S
U1206 O1226 2.455 . S
U1206 O1227 2.449 . S
O1207 U1206 2.454 . S
O1207 C1209 1.353 . S
O1208 U1206 2.458 . S
O1208 C1209 1.286 . S
C1209 U1206 2.984 . S
C1209 O1207 1.353 . S
C1209 O1208 1.286 . S
C1209 C1211 1.363 . S
C1210 C1200 1.465 . S
C1210 U1206 2.847 . S
C1210 O1224 1.249 . S
C1210 O1225 1.202 . S
C1211 C1209 1.363 . S
C1211 C1213 1.408 . S
C1211 C1216 1.342 . S
C1212 C1213 1.310 . S
C1212 C1215 1.461 . S
C1212 H1232 0.932 . S
C1213 C1211 1.408 . S
C1213 C1212 1.310 . S
C1213 H1233 0.930 . S
C1214 C1215 1.474 . S
C1214 C1216 1.285 . S
C1214 H1234 0.929 . S
C1215 C1212 1.461 . S
C1215 C1214 1.474 . S
C1216 C1211 1.342 . S
C1216 C1214 1.285 . S
C1216 H1235 0.930 . S
C1217 C1220 1.424 . S
C1217 C1222 1.245 . S
C1217 C1223 1.428 . S
C1218 C1221 1.260 . S
C1218 C1222 1.477 . S
C1218 H1236 0.932 . S
C1219 C1220 1.384 . S
C1219 C1221 1.479 . S
C1219 H1237 0.929 . S
C1220 C1217 1.424 . S
C1220 C1219 1.384 . S
C1220 H1238 0.928 . S
C1221 C1218 1.260 . S
C1221 C1219 1.479 . S
C1222 C1217 1.245 . S
C1222 C1218 1.477 . S
C1222 H1239 0.932 . S
C1223 U1206 2.882 . S
C1223 C1217 1.428 . S
C1223 O1226 1.301 . S
C1223 O1227 1.282 . S
O1224 U1206 2.441 . S
O1224 C1210 1.249 . S
O1225 U1206 2.420 . S
O1225 C1210 1.202 . S
O1226 U1206 2.455 . S
O1226 C1223 1.301 . S
O1227 U1206 2.449 . S
O1227 C1223 1.282 . S
H1228 C1201 0.931 . S
H1229 C1203 0.929 . S
H1230 C1204 0.930 . S
H1231 C1205 0.931 . S
H1232 C1212 0.932 . S
H1233 C1213 0.930 . S
H1234 C1214 0.929 . S
H1235 C1216 0.930 . S
H1236 C1218 0.932 . S
H1237 C1219 0.929 . S
H1238 C1220 0.928 . S
H1239 C1222 0.932 . S
C1240 C1241 1.264 . S
C1240 C1245 1.479 . S
C1240 C1250 1.465 . S
C1241 C1240 1.264 . S
C1241 C1243 1.339 . S
C1241 H1268 0.931 . S
C1242 C1243 1.395 . S
C1242 C1244 1.320 . S
C1243 C1241 1.339 . S
C1243 C1242 1.395 . S
C1243 H1269 0.929 . S
C1244 C1242 1.320 . S
C1244 C1245 1.405 . S
C1244 H1270 0.930 . S
C1245 C1240 1.479 . S
C1245 C1244 1.405 . S
C1245 H1271 0.931 . S
U1246 O1247 2.454 . S
U1246 O1248 2.458 . S
U1246 C1249 2.984 . S
U1246 C1250 2.847 . S
U1246 C1263 2.882 . S
U1246 O1264 2.441 . S
U1246 O1265 2.420 . S
U1246 O1266 2.455 . S
U1246 O1267 2.449 . S
O1247 U1246 2.454 . S
O1247 C1249 1.353 . S
O1248 U1246 2.458 . S
O1248 C1249 1.286 . S
C1249 U1246 2.984 . S
C1249 O1247 1.353 . S
C1249 O1248 1.286 . S
C1249 C1251 1.363 . S
C1250 C1240 1.465 . S
C1250 U1246 2.847 . S
C1250 O1264 1.249 . S
C1250 O1265 1.202 . S
C1251 C1249 1.363 . S
C1251 C1253 1.408 . S
C1251 C1256 1.342 . S
C1252 C1253 1.310 . S
C1252 C1255 1.461 . S
C1252 H1272 0.932 . S
C1253 C1251 1.408 . S
C1253 C1252 1.310 . S
C1253 H1273 0.930 . S
C1254 C1255 1.474 . S
C1254 C1256 1.285 . S
C1254 H1274 0.929 . S
C1255 C1252 1.461 . S
C1255 C1254 1.474 . S
C1256 C1251 1.342 . S
C1256 C1254 1.285 . S
C1256 H1275 0.930 . S
C1257 C1260 1.424 . S
C1257 C1262 1.245 . S
C1257 C1263 1.428 . S
C1258 C1261 1.260 . S
C1258 C1262 1.477 . S
C1258 H1276 0.932 . S
C1259 C1260 1.384 . S
C1259 C1261 1.479 . S
C1259 H1277 0.929 . S
C1260 C1257 1.424 . S
C1260 C1259 1.384 . S
C1260 H1278 0.928 . S
C1261 C1258 1.260 . S
C1261 C1259 1.479 . S
C1262 C1257 1.245 . S
C1262 C1258 1.477 . S
C1262 H1279 0.932 . S
C1263 U1246 2.882 . S
C1263 C1257 1.428 . S
C1263 O1266 1.301 . S
C1263 O1267 1.282 . S
O1264 U1246 2.441 . S
O1264 C1250 1.249 . S
O1265 U1246 2.420 . S
O1265 C1250 1.202 . S
O1266 U1246 2.455 . S
O1266 C1263 1.301 . S
O1267 U1246 2.449 . S
O1267 C1263 1.282 . S
H1268 C1241 0.931 . S
H1269 C1243 0.929 . S
H1270 C1244 0.930 . S
H1271 C1245 0.931 . S
H1272 C1252 0.932 . S
H1273 C1253 0.930 . S
H1274 C1254 0.929 . S
H1275 C1256 0.930 . S
H1276 C1258 0.932 . S
H1277 C1259 0.929 . S
H1278 C1260 0.928 . S
H1279 C1262 0.932 . S
H1280 C1299 0.949 . S
H1281 C1300 0.950 . S
H1282 C1302 0.950 . S
H1283 C1303 0.950 . S
H1284 C1305 0.950 . S
H1285 C1308 0.950 . S
H1286 C1309 0.950 . S
H1287 C1311 0.951 . S
H1288 C1312 0.949 . S
H1289 C1314 0.949 . S
H1290 C1315 0.950 . S
H1291 C1317 0.950 . S
H1292 C1318 0.950 . S
H1293 C1320 0.950 . S
H1294 C1323 0.950 . S
H1295 C1324 0.950 . S
H1296 C1326 0.951 . S
H1297 C1327 0.949 . S
C1298 C1299 1.376 . S
C1298 C1303 1.386 . S
C1298 C1304 1.483 . S
C1299 H1280 0.949 . S
C1299 C1298 1.376 . S
C1299 C1300 1.397 . S
C1300 H1281 0.950 . S
C1300 C1299 1.397 . S
C1300 C1301 1.391 . S
C1301 C1300 1.391 . S
C1301 C1302 1.405 . S
C1302 H1282 0.950 . S
C1302 C1301 1.405 . S
C1302 C1303 1.367 . S
C1303 H1283 0.950 . S
C1303 C1298 1.386 . S
C1303 C1302 1.367 . S
C1304 C1298 1.483 . S
C1304 C1305 1.382 1_556 S
C1304 C1306 1.403 . S
C1305 H1284 0.950 . S
C1305 C1304 1.382 1_554 S
C1305 C1321 1.411 . S
C1306 C1304 1.403 . S
C1306 C1307 1.489 . S
C1306 C1320 1.411 1_556 S
C1307 C1306 1.489 . S
C1307 C1308 1.383 . S
C1307 C1312 1.382 . S
C1308 H1285 0.950 . S
C1308 C1307 1.383 . S
C1308 C1309 1.395 . S
C1309 H1286 0.950 . S
C1309 C1308 1.395 . S
C1309 C1310 1.288 . S
C1310 C1309 1.288 . S
C1310 C1311 1.392 . S
C1311 H1287 0.951 . S
C1311 C1310 1.392 . S
C1311 C1312 1.392 . S
C1312 H1288 0.949 . S
C1312 C1307 1.382 . S
C1312 C1311 1.392 . S
C1313 C1314 1.376 . S
C1313 C1318 1.386 . S
C1313 C1319 1.483 . S
C1314 H1289 0.949 . S
C1314 C1313 1.376 . S
C1314 C1315 1.397 . S
C1315 H1290 0.950 . S
C1315 C1314 1.397 . S
C1315 C1316 1.391 . S
C1316 C1315 1.391 . S
C1316 C1317 1.405 . S
C1317 H1291 0.950 . S
C1317 C1316 1.405 . S
C1317 C1318 1.367 . S
C1318 H1292 0.950 . S
C1318 C1313 1.386 . S
C1318 C1317 1.367 . S
C1319 C1313 1.483 . S
C1319 C1320 1.382 . S
C1319 C1321 1.403 . S
C1320 H1293 0.950 . S
C1320 C1306 1.411 1_554 S
C1320 C1319 1.382 . S
C1321 C1305 1.411 . S
C1321 C1319 1.403 . S
C1321 C1322 1.489 . S
C1322 C1321 1.489 . S
C1322 C1323 1.383 . S
C1322 C1327 1.382 . S
C1323 H1294 0.950 . S
C1323 C1322 1.383 . S
C1323 C1324 1.395 . S
C1324 H1295 0.950 . S
C1324 C1323 1.395 . S
C1324 C1325 1.288 . S
C1325 C1324 1.288 . S
C1325 C1326 1.392 . S
C1326 H1296 0.951 . S
C1326 C1325 1.392 . S
C1326 C1327 1.392 . S
C1327 H1297 0.949 . S
C1327 C1322 1.382 . S
C1327 C1326 1.392 . S
H1328 C1347 0.949 . S
H1329 C1348 0.950 . S
H1330 C1350 0.950 . S
H1331 C1351 0.950 . S
H1332 C1353 0.950 . S
H1333 C1356 0.950 . S
H1334 C1357 0.950 . S
H1335 C1359 0.951 . S
H1336 C1360 0.949 . S
H1337 C1362 0.949 . S
H1338 C1363 0.950 . S
H1339 C1365 0.950 . S
H1340 C1366 0.950 . S
H1341 C1368 0.950 . S
H1342 C1371 0.950 . S
H1343 C1372 0.950 . S
H1344 C1374 0.951 . S
H1345 C1375 0.949 . S
C1346 C1347 1.376 . S
C1346 C1351 1.386 . S
C1346 C1352 1.483 . S
C1347 H1328 0.949 . S
C1347 C1346 1.376 . S
C1347 C1348 1.397 . S
C1348 H1329 0.950 . S
C1348 C1347 1.397 . S
C1348 C1349 1.391 . S
C1349 C1348 1.391 . S
C1349 C1350 1.405 . S
C1350 H1330 0.950 . S
C1350 C1349 1.405 . S
C1350 C1351 1.367 . S
C1351 H1331 0.950 . S
C1351 C1346 1.386 . S
C1351 C1350 1.367 . S
C1352 C1346 1.483 . S
C1352 C1353 1.382 1_556 S
C1352 C1354 1.403 . S
C1353 H1332 0.950 . S
C1353 C1352 1.382 1_554 S
C1353 C1369 1.411 . S
C1354 C1352 1.403 . S
C1354 C1355 1.489 . S
C1354 C1368 1.411 1_556 S
C1355 C1354 1.489 . S
C1355 C1356 1.383 . S
C1355 C1360 1.382 . S
C1356 H1333 0.950 . S
C1356 C1355 1.383 . S
C1356 C1357 1.395 . S
C1357 H1334 0.950 . S
C1357 C1356 1.395 . S
C1357 C1358 1.288 . S
C1358 C1357 1.288 . S
C1358 C1359 1.392 . S
C1359 H1335 0.951 . S
C1359 C1358 1.392 . S
C1359 C1360 1.392 . S
C1360 H1336 0.949 . S
C1360 C1355 1.382 . S
C1360 C1359 1.392 . S
C1361 C1362 1.376 . S
C1361 C1366 1.386 . S
C1361 C1367 1.483 . S
C1362 H1337 0.949 . S
C1362 C1361 1.376 . S
C1362 C1363 1.397 . S
C1363 H1338 0.950 . S
C1363 C1362 1.397 . S
C1363 C1364 1.391 . S
C1364 C1363 1.391 . S
C1364 C1365 1.405 . S
C1365 H1339 0.950 . S
C1365 C1364 1.405 . S
C1365 C1366 1.367 . S
C1366 H1340 0.950 . S
C1366 C1361 1.386 . S
C1366 C1365 1.367 . S
C1367 C1361 1.483 . S
C1367 C1368 1.382 . S
C1367 C1369 1.403 . S
C1368 H1341 0.950 . S
C1368 C1354 1.411 1_554 S
C1368 C1367 1.382 . S
C1369 C1353 1.411 . S
C1369 C1367 1.403 . S
C1369 C1370 1.489 . S
C1370 C1369 1.489 . S
C1370 C1371 1.383 . S
C1370 C1375 1.382 . S
C1371 H1342 0.950 . S
C1371 C1370 1.383 . S
C1371 C1372 1.395 . S
C1372 H1343 0.950 . S
C1372 C1371 1.395 . S
C1372 C1373 1.288 . S
C1373 C1372 1.288 . S
C1373 C1374 1.392 . S
C1374 H1344 0.951 . S
C1374 C1373 1.392 . S
C1374 C1375 1.392 . S
C1375 H1345 0.949 . S
C1375 C1370 1.382 . S
C1375 C1374 1.392 . S
H1376 C1395 0.949 . S
H1377 C1396 0.950 . S
H1378 C1398 0.950 . S
H1379 C1399 0.950 . S
H1380 C1401 0.950 . S
H1381 C1404 0.950 . S
H1382 C1405 0.950 . S
H1383 C1407 0.951 . S
H1384 C1408 0.949 . S
H1385 C1410 0.949 . S
H1386 C1411 0.950 . S
H1387 C1413 0.950 . S
H1388 C1414 0.950 . S
H1389 C1416 0.950 . S
H1390 C1419 0.950 . S
H1391 C1420 0.950 . S
H1392 C1422 0.951 . S
H1393 C1423 0.949 . S
C1394 C1395 1.376 . S
C1394 C1399 1.386 . S
C1394 C1400 1.483 . S
C1395 H1376 0.949 . S
C1395 C1394 1.376 . S
C1395 C1396 1.397 . S
C1396 H1377 0.950 . S
C1396 C1395 1.397 . S
C1396 C1397 1.391 . S
C1397 C1396 1.391 . S
C1397 C1398 1.405 . S
C1398 H1378 0.950 . S
C1398 C1397 1.405 . S
C1398 C1399 1.367 . S
C1399 H1379 0.950 . S
C1399 C1394 1.386 . S
C1399 C1398 1.367 . S
C1400 C1394 1.483 . S
C1400 C1401 1.382 . S
C1400 C1402 1.403 . S
C1401 H1380 0.950 . S
C1401 C1400 1.382 . S
C1401 C1417 1.411 1_554 S
C1402 C1400 1.403 . S
C1402 C1403 1.489 . S
C1402 C1416 1.411 . S
C1403 C1402 1.489 . S
C1403 C1404 1.383 . S
C1403 C1408 1.382 . S
C1404 H1381 0.950 . S
C1404 C1403 1.383 . S
C1404 C1405 1.395 . S
C1405 H1382 0.950 . S
C1405 C1404 1.395 . S
C1405 C1406 1.288 . S
C1406 C1405 1.288 . S
C1406 C1407 1.392 . S
C1407 H1383 0.951 . S
C1407 C1406 1.392 . S
C1407 C1408 1.392 . S
C1408 H1384 0.949 . S
C1408 C1403 1.382 . S
C1408 C1407 1.392 . S
C1409 C1410 1.376 . S
C1409 C1414 1.386 . S
C1409 C1415 1.483 . S
C1410 H1385 0.949 . S
C1410 C1409 1.376 . S
C1410 C1411 1.397 . S
C1411 H1386 0.950 . S
C1411 C1410 1.397 . S
C1411 C1412 1.391 . S
C1412 C1411 1.391 . S
C1412 C1413 1.405 . S
C1413 H1387 0.950 . S
C1413 C1412 1.405 . S
C1413 C1414 1.367 . S
C1414 H1388 0.950 . S
C1414 C1409 1.386 . S
C1414 C1413 1.367 . S
C1415 C1409 1.483 . S
C1415 C1416 1.382 1_556 S
C1415 C1417 1.403 . S
C1416 H1389 0.950 . S
C1416 C1402 1.411 . S
C1416 C1415 1.382 1_554 S
C1417 C1401 1.411 1_556 S
C1417 C1415 1.403 . S
C1417 C1418 1.489 . S
C1418 C1417 1.489 . S
C1418 C1419 1.383 . S
C1418 C1423 1.382 . S
C1419 H1390 0.950 . S
C1419 C1418 1.383 . S
C1419 C1420 1.395 . S
C1420 H1391 0.950 . S
C1420 C1419 1.395 . S
C1420 C1421 1.288 . S
C1421 C1420 1.288 . S
C1421 C1422 1.392 . S
C1422 H1392 0.951 . S
C1422 C1421 1.392 . S
C1422 C1423 1.392 . S
C1423 H1393 0.949 . S
C1423 C1418 1.382 . S
C1423 C1422 1.392 . S
H1424 C1443 0.949 . S
H1425 C1444 0.950 . S
H1426 C1446 0.950 . S
H1427 C1447 0.950 . S
H1428 C1449 0.950 . S
H1429 C1452 0.950 . S
H1430 C1453 0.950 . S
H1431 C1455 0.951 . S
H1432 C1456 0.949 . S
H1433 C1458 0.949 . S
H1434 C1459 0.950 . S
H1435 C1461 0.950 . S
H1436 C1462 0.950 . S
H1437 C1464 0.950 . S
H1438 C1467 0.950 . S
H1439 C1468 0.950 . S
H1440 C1470 0.951 . S
H1441 C1471 0.949 . S
C1442 C1443 1.376 . S
C1442 C1447 1.386 . S
C1442 C1448 1.483 . S
C1443 H1424 0.949 . S
C1443 C1442 1.376 . S
C1443 C1444 1.397 . S
C1444 H1425 0.950 . S
C1444 C1443 1.397 . S
C1444 C1445 1.391 . S
C1445 C1444 1.391 . S
C1445 C1446 1.405 . S
C1446 H1426 0.950 . S
C1446 C1445 1.405 . S
C1446 C1447 1.367 . S
C1447 H1427 0.950 . S
C1447 C1442 1.386 . S
C1447 C1446 1.367 . S
C1448 C1442 1.483 . S
C1448 C1449 1.382 1_556 S
C1448 C1450 1.403 . S
C1449 H1428 0.950 . S
C1449 C1448 1.382 1_554 S
C1449 C1465 1.411 . S
C1450 C1448 1.403 . S
C1450 C1451 1.489 . S
C1450 C1464 1.411 1_556 S
C1451 C1450 1.489 . S
C1451 C1452 1.383 . S
C1451 C1456 1.382 . S
C1452 H1429 0.950 . S
C1452 C1451 1.383 . S
C1452 C1453 1.395 . S
C1453 H1430 0.950 . S
C1453 C1452 1.395 . S
C1453 C1454 1.288 . S
C1454 C1453 1.288 . S
C1454 C1455 1.392 . S
C1455 H1431 0.951 . S
C1455 C1454 1.392 . S
C1455 C1456 1.392 . S
C1456 H1432 0.949 . S
C1456 C1451 1.382 . S
C1456 C1455 1.392 . S
C1457 C1458 1.376 . S
C1457 C1462 1.386 . S
C1457 C1463 1.483 . S
C1458 H1433 0.949 . S
C1458 C1457 1.376 . S
C1458 C1459 1.397 . S
C1459 H1434 0.950 . S
C1459 C1458 1.397 . S
C1459 C1460 1.391 . S
C1460 C1459 1.391 . S
C1460 C1461 1.405 . S
C1461 H1435 0.950 . S
C1461 C1460 1.405 . S
C1461 C1462 1.367 . S
C1462 H1436 0.950 . S
C1462 C1457 1.386 . S
C1462 C1461 1.367 . S
C1463 C1457 1.483 . S
C1463 C1464 1.382 . S
C1463 C1465 1.403 . S
C1464 H1437 0.950 . S
C1464 C1450 1.411 1_554 S
C1464 C1463 1.382 . S
C1465 C1449 1.411 . S
C1465 C1463 1.403 . S
C1465 C1466 1.489 . S
C1466 C1465 1.489 . S
C1466 C1467 1.383 . S
C1466 C1471 1.382 . S
C1467 H1438 0.950 . S
C1467 C1466 1.383 . S
C1467 C1468 1.395 . S
C1468 H1439 0.950 . S
C1468 C1467 1.395 . S
C1468 C1469 1.288 . S
C1469 C1468 1.288 . S
C1469 C1470 1.392 . S
C1470 H1440 0.951 . S
C1470 C1469 1.392 . S
C1470 C1471 1.392 . S
C1471 H1441 0.949 . S
C1471 C1466 1.382 . S
C1471 C1470 1.392 . S
H1472 C1491 0.949 . S
H1473 C1492 0.950 . S
H1474 C1494 0.950 . S
H1475 C1495 0.950 . S
H1476 C1497 0.950 . S
H1477 C1500 0.950 . S
H1478 C1501 0.950 . S
H1479 C1503 0.951 . S
H1480 C1504 0.949 . S
H1481 C1506 0.949 . S
H1482 C1507 0.950 . S
H1483 C1509 0.950 . S
H1484 C1510 0.950 . S
H1485 C1512 0.950 . S
H1486 C1515 0.950 . S
H1487 C1516 0.950 . S
H1488 C1518 0.951 . S
H1489 C1519 0.949 . S
C1490 C1491 1.376 . S
C1490 C1495 1.386 . S
C1490 C1496 1.483 . S
C1491 H1472 0.949 . S
C1491 C1490 1.376 . S
C1491 C1492 1.397 . S
C1492 H1473 0.950 . S
C1492 C1491 1.397 . S
C1492 C1493 1.391 . S
C1493 C1492 1.391 . S
C1493 C1494 1.405 . S
C1494 H1474 0.950 . S
C1494 C1493 1.405 . S
C1494 C1495 1.367 . S
C1495 H1475 0.950 . S
C1495 C1490 1.386 . S
C1495 C1494 1.367 . S
C1496 C1490 1.483 . S
C1496 C1497 1.382 . S
C1496 C1498 1.403 . S
C1497 H1476 0.950 . S
C1497 C1496 1.382 . S
C1497 C1513 1.411 1_455 S
C1498 C1496 1.403 . S
C1498 C1499 1.489 . S
C1498 C1512 1.411 . S
C1499 C1498 1.489 . S
C1499 C1500 1.383 . S
C1499 C1504 1.382 . S
C1500 H1477 0.950 . S
C1500 C1499 1.383 . S
C1500 C1501 1.395 . S
C1501 H1478 0.950 . S
C1501 C1500 1.395 . S
C1501 C1502 1.288 . S
C1502 C1501 1.288 . S
C1502 C1503 1.392 . S
C1503 H1479 0.951 . S
C1503 C1502 1.392 . S
C1503 C1504 1.392 . S
C1504 H1480 0.949 . S
C1504 C1499 1.382 . S
C1504 C1503 1.392 . S
C1505 C1506 1.376 . S
C1505 C1510 1.386 . S
C1505 C1511 1.483 . S
C1506 H1481 0.949 . S
C1506 C1505 1.376 . S
C1506 C1507 1.397 . S
C1507 H1482 0.950 . S
C1507 C1506 1.397 . S
C1507 C1508 1.391 . S
C1508 C1507 1.391 . S
C1508 C1509 1.405 . S
C1509 H1483 0.950 . S
C1509 C1508 1.405 . S
C1509 C1510 1.367 . S
C1510 H1484 0.950 . S
C1510 C1505 1.386 . S
C1510 C1509 1.367 . S
C1511 C1505 1.483 . S
C1511 C1512 1.382 1_655 S
C1511 C1513 1.403 . S
C1512 H1485 0.950 . S
C1512 C1498 1.411 . S
C1512 C1511 1.382 1_455 S
C1513 C1497 1.411 1_655 S
C1513 C1511 1.403 . S
C1513 C1514 1.489 . S
C1514 C1513 1.489 . S
C1514 C1515 1.383 . S
C1514 C1519 1.382 . S
C1515 H1486 0.950 . S
C1515 C1514 1.383 . S
C1515 C1516 1.395 . S
C1516 H1487 0.950 . S
C1516 C1515 1.395 . S
C1516 C1517 1.288 . S
C1517 C1516 1.288 . S
C1517 C1518 1.392 . S
C1518 H1488 0.951 . S
C1518 C1517 1.392 . S
C1518 C1519 1.392 . S
C1519 H1489 0.949 . S
C1519 C1514 1.382 . S
C1519 C1518 1.392 . S
H1520 C1539 0.949 . S
H1521 C1540 0.950 . S
H1522 C1542 0.950 . S
H1523 C1543 0.950 . S
H1524 C1545 0.950 . S
H1525 C1548 0.950 . S
H1526 C1549 0.950 . S
H1527 C1551 0.951 . S
H1528 C1552 0.949 . S
H1529 C1554 0.949 . S
H1530 C1555 0.950 . S
H1531 C1557 0.950 . S
H1532 C1558 0.950 . S
H1533 C1560 0.950 1_565 S
H1534 C1563 0.950 . S
H1535 C1564 0.950 . S
H1536 C1566 0.951 . S
H1537 C1567 0.949 . S
C1538 C1539 1.376 . S
C1538 C1543 1.386 . S
C1538 C1544 1.483 . S
C1539 H1520 0.949 . S
C1539 C1538 1.376 . S
C1539 C1540 1.397 . S
C1540 H1521 0.950 . S
C1540 C1539 1.397 . S
C1540 C1541 1.391 . S
C1541 C1540 1.391 . S
C1541 C1542 1.405 . S
C1542 H1522 0.950 . S
C1542 C1541 1.405 . S
C1542 C1543 1.367 . S
C1543 H1523 0.950 . S
C1543 C1538 1.386 . S
C1543 C1542 1.367 . S
C1544 C1538 1.483 . S
C1544 C1545 1.382 . S
C1544 C1546 1.403 . S
C1545 H1524 0.950 . S
C1545 C1544 1.382 . S
C1545 C1561 1.411 1_545 S
C1546 C1544 1.403 . S
C1546 C1547 1.489 . S
C1546 C1560 1.435 . S
C1547 C1546 1.489 . S
C1547 C1548 1.383 . S
C1547 C1552 1.382 . S
C1548 H1525 0.950 . S
C1548 C1547 1.383 . S
C1548 C1549 1.395 . S
C1549 H1526 0.950 . S
C1549 C1548 1.395 . S
C1549 C1550 1.288 . S
C1550 C1549 1.288 . S
C1550 C1551 1.392 . S
C1551 H1527 0.951 . S
C1551 C1550 1.392 . S
C1551 C1552 1.392 . S
C1552 H1528 0.949 . S
C1552 C1547 1.382 . S
C1552 C1551 1.392 . S
C1553 C1554 1.376 . S
C1553 C1558 1.386 . S
C1553 C1559 1.483 . S
C1554 H1529 0.949 . S
C1554 C1553 1.376 . S
C1554 C1555 1.397 . S
C1555 H1530 0.950 . S
C1555 C1554 1.397 . S
C1555 C1556 1.391 . S
C1556 C1555 1.391 . S
C1556 C1557 1.405 . S
C1557 H1531 0.950 . S
C1557 C1556 1.405 . S
C1557 C1558 1.367 . S
C1558 H1532 0.950 . S
C1558 C1553 1.386 . S
C1558 C1557 1.367 . S
C1559 C1553 1.483 . S
C1559 C1560 1.358 1_565 S
C1559 C1561 1.403 . S
C1560 H1533 0.950 1_545 S
C1560 C1546 1.435 . S
C1560 C1559 1.358 1_545 S
C1561 C1545 1.411 1_565 S
C1561 C1559 1.403 . S
C1561 C1562 1.489 . S
C1562 C1561 1.489 . S
C1562 C1563 1.383 . S
C1562 C1567 1.382 . S
C1563 H1534 0.950 . S
C1563 C1562 1.383 . S
C1563 C1564 1.395 . S
C1564 H1535 0.950 . S
C1564 C1563 1.395 . S
C1564 C1565 1.288 . S
C1565 C1564 1.288 . S
C1565 C1566 1.392 . S
C1566 H1536 0.951 . S
C1566 C1565 1.392 . S
C1566 C1567 1.392 . S
C1567 H1537 0.949 . S
C1567 C1562 1.382 . S
C1567 C1566 1.392 . S
H1568 C1587 0.949 . S
H1569 C1588 0.950 . S
H1570 C1590 0.950 . S
H1571 C1591 0.950 . S
H1572 C1593 0.950 . S
H1573 C1596 0.950 . S
H1574 C1597 0.950 . S
H1575 C1599 0.951 . S
H1576 C1600 0.949 . S
H1577 C1602 0.949 . S
H1578 C1603 0.950 . S
H1579 C1605 0.950 . S
H1580 C1606 0.950 . S
H1581 C1608 0.950 . S
H1582 C1611 0.950 . S
H1583 C1612 0.950 . S
H1584 C1614 0.951 . S
H1585 C1615 0.949 . S
C1586 C1587 1.376 . S
C1586 C1591 1.386 . S
C1586 C1592 1.483 . S
C1587 H1568 0.949 . S
C1587 C1586 1.376 . S
C1587 C1588 1.397 . S
C1588 H1569 0.950 . S
C1588 C1587 1.397 . S
C1588 C1589 1.391 . S
C1589 C1588 1.391 . S
C1589 C1590 1.405 . S
C1590 H1570 0.950 . S
C1590 C1589 1.405 . S
C1590 C1591 1.367 . S
C1591 H1571 0.950 . S
C1591 C1586 1.386 . S
C1591 C1590 1.367 . S
C1592 C1586 1.483 . S
C1592 C1593 1.382 . S
C1592 C1594 1.403 . S
C1593 H1572 0.950 . S
C1593 C1592 1.382 . S
C1593 C1609 1.411 1_455 S
C1594 C1592 1.403 . S
C1594 C1595 1.489 . S
C1594 C1608 1.471 . S
C1595 C1594 1.489 . S
C1595 C1596 1.383 . S
C1595 C1600 1.382 . S
C1596 H1573 0.950 . S
C1596 C1595 1.383 . S
C1596 C1597 1.395 . S
C1597 H1574 0.950 . S
C1597 C1596 1.395 . S
C1597 C1598 1.288 . S
C1598 C1597 1.288 . S
C1598 C1599 1.392 . S
C1599 H1575 0.951 . S
C1599 C1598 1.392 . S
C1599 C1600 1.392 . S
C1600 H1576 0.949 . S
C1600 C1595 1.382 . S
C1600 C1599 1.392 . S
C1601 C1602 1.376 . S
C1601 C1606 1.386 . S
C1601 C1607 1.483 . S
C1602 H1577 0.949 . S
C1602 C1601 1.376 . S
C1602 C1603 1.397 . S
C1603 H1578 0.950 . S
C1603 C1602 1.397 . S
C1603 C1604 1.391 . S
C1604 C1603 1.391 . S
C1604 C1605 1.405 . S
C1605 H1579 0.950 . S
C1605 C1604 1.405 . S
C1605 C1606 1.367 . S
C1606 H1580 0.950 . S
C1606 C1601 1.386 . S
C1606 C1605 1.367 . S
C1607 C1601 1.483 . S
C1607 C1608 1.324 1_655 S
C1607 C1609 1.403 . S
C1608 H1581 0.950 . S
C1608 C1594 1.471 . S
C1608 C1607 1.324 1_455 S
C1609 C1593 1.411 1_655 S
C1609 C1607 1.403 . S
C1609 C1610 1.489 . S
C1610 C1609 1.489 . S
C1610 C1611 1.383 . S
C1610 C1615 1.382 . S
C1611 H1582 0.950 . S
C1611 C1610 1.383 . S
C1611 C1612 1.395 . S
C1612 H1583 0.950 . S
C1612 C1611 1.395 . S
C1612 C1613 1.288 . S
C1613 C1612 1.288 . S
C1613 C1614 1.392 . S
C1614 H1584 0.951 . S
C1614 C1613 1.392 . S
C1614 C1615 1.392 . S
C1615 H1585 0.949 . S
C1615 C1610 1.382 . S
C1615 C1614 1.392 . S
H1616 C1635 0.949 . S
H1617 C1636 0.950 . S
H1618 C1638 0.950 . S
H1619 C1639 0.950 . S
H1620 C1641 0.950 . S
H1621 C1644 0.950 . S
H1622 C1645 0.950 . S
H1623 C1647 0.951 . S
H1624 C1648 0.949 . S
H1625 C1650 0.949 . S
H1626 C1651 0.950 . S
H1627 C1653 0.950 . S
H1628 C1654 0.950 . S
H1629 C1656 0.950 . S
H1630 C1659 0.950 . S
H1631 C1660 0.950 . S
H1632 C1662 0.951 . S
H1633 C1663 0.949 . S
C1634 C1635 1.376 . S
C1634 C1639 1.386 . S
C1634 C1640 1.483 . S
C1635 H1616 0.949 . S
C1635 C1634 1.376 . S
C1635 C1636 1.397 . S
C1636 H1617 0.950 . S
C1636 C1635 1.397 . S
C1636 C1637 1.391 . S
C1637 C1636 1.391 . S
C1637 C1638 1.405 . S
C1638 H1618 0.950 . S
C1638 C1637 1.405 . S
C1638 C1639 1.367 . S
C1639 H1619 0.950 . S
C1639 C1634 1.386 . S
C1639 C1638 1.367 . S
C1640 C1634 1.483 . S
C1640 C1641 1.382 . S
C1640 C1642 1.403 . S
C1641 H1620 0.950 . S
C1641 C1640 1.382 . S
C1641 C1657 1.411 1_545 S
C1642 C1640 1.403 . S
C1642 C1643 1.489 . S
C1642 C1656 1.411 . S
C1643 C1642 1.489 . S
C1643 C1644 1.383 . S
C1643 C1648 1.382 . S
C1644 H1621 0.950 . S
C1644 C1643 1.383 . S
C1644 C1645 1.395 . S
C1645 H1622 0.950 . S
C1645 C1644 1.395 . S
C1645 C1646 1.288 . S
C1646 C1645 1.288 . S
C1646 C1647 1.392 . S
C1647 H1623 0.951 . S
C1647 C1646 1.392 . S
C1647 C1648 1.392 . S
C1648 H1624 0.949 . S
C1648 C1643 1.382 . S
C1648 C1647 1.392 . S
C1649 C1650 1.376 . S
C1649 C1654 1.386 . S
C1649 C1655 1.483 . S
C1650 H1625 0.949 . S
C1650 C1649 1.376 . S
C1650 C1651 1.397 . S
C1651 H1626 0.950 . S
C1651 C1650 1.397 . S
C1651 C1652 1.391 . S
C1652 C1651 1.391 . S
C1652 C1653 1.405 . S
C1653 H1627 0.950 . S
C1653 C1652 1.405 . S
C1653 C1654 1.367 . S
C1654 H1628 0.950 . S
C1654 C1649 1.386 . S
C1654 C1653 1.367 . S
C1655 C1649 1.483 . S
C1655 C1656 1.382 1_565 S
C1655 C1657 1.403 . S
C1656 H1629 0.950 . S
C1656 C1642 1.411 . S
C1656 C1655 1.382 1_545 S
C1657 C1641 1.411 1_565 S
C1657 C1655 1.403 . S
C1657 C1658 1.489 . S
C1658 C1657 1.489 . S
C1658 C1659 1.383 . S
C1658 C1663 1.382 . S
C1659 H1630 0.950 . S
C1659 C1658 1.383 . S
C1659 C1660 1.395 . S
C1660 H1631 0.950 . S
C1660 C1659 1.395 . S
C1660 C1661 1.288 . S
C1661 C1660 1.288 . S
C1661 C1662 1.392 . S
C1662 H1632 0.951 . S
C1662 C1661 1.392 . S
C1662 C1663 1.392 . S
C1663 H1633 0.949 . S
C1663 C1658 1.382 . S
C1663 C1662 1.392 . S
H1664 C1683 0.949 . S
H1665 C1684 0.950 . S
H1666 C1686 0.950 . S
H1667 C1687 0.950 . S
H1668 C1689 0.950 . S
H1669 C1692 0.950 . S
H1670 C1693 0.950 . S
H1671 C1695 0.951 . S
H1672 C1696 0.949 . S
H1673 C1698 0.949 . S
H1674 C1699 0.950 . S
H1675 C1701 0.950 . S
H1676 C1702 0.950 . S
H1677 C1704 0.950 . S
H1678 C1707 0.950 . S
H1679 C1708 0.950 . S
H1680 C1710 0.951 . S
H1681 C1711 0.949 . S
C1682 C1683 1.376 . S
C1682 C1687 1.386 . S
C1682 C1688 1.483 . S
C1683 H1664 0.949 . S
C1683 C1682 1.376 . S
C1683 C1684 1.397 . S
C1684 H1665 0.950 . S
C1684 C1683 1.397 . S
C1684 C1685 1.391 . S
C1685 C1684 1.391 . S
C1685 C1686 1.405 . S
C1686 H1666 0.950 . S
C1686 C1685 1.405 . S
C1686 C1687 1.367 . S
C1687 H1667 0.950 . S
C1687 C1682 1.386 . S
C1687 C1686 1.367 . S
C1688 C1682 1.483 . S
C1688 C1689 1.382 . S
C1688 C1690 1.403 . S
C1689 H1668 0.950 . S
C1689 C1688 1.382 . S
C1689 C1705 1.411 1_455 S
C1690 C1688 1.403 . S
C1690 C1691 1.489 . S
C1690 C1704 1.411 . S
C1691 C1690 1.489 . S
C1691 C1692 1.383 . S
C1691 C1696 1.382 . S
C1692 H1669 0.950 . S
C1692 C1691 1.383 . S
C1692 C1693 1.395 . S
C1693 H1670 0.950 . S
C1693 C1692 1.395 . S
C1693 C1694 1.288 . S
C1694 C1693 1.288 . S
C1694 C1695 1.392 . S
C1695 H1671 0.951 . S
C1695 C1694 1.392 . S
C1695 C1696 1.392 . S
C1696 H1672 0.949 . S
C1696 C1691 1.382 . S
C1696 C1695 1.392 . S
C1697 C1698 1.376 . S
C1697 C1702 1.386 . S
C1697 C1703 1.483 . S
C1698 H1673 0.949 . S
C1698 C1697 1.376 . S
C1698 C1699 1.397 . S
C1699 H1674 0.950 . S
C1699 C1698 1.397 . S
C1699 C1700 1.391 . S
C1700 C1699 1.391 . S
C1700 C1701 1.405 . S
C1701 H1675 0.950 . S
C1701 C1700 1.405 . S
C1701 C1702 1.367 . S
C1702 H1676 0.950 . S
C1702 C1697 1.386 . S
C1702 C1701 1.367 . S
C1703 C1697 1.483 . S
C1703 C1704 1.382 1_655 S
C1703 C1705 1.403 . S
C1704 H1677 0.950 . S
C1704 C1690 1.411 . S
C1704 C1703 1.382 1_455 S
C1705 C1689 1.411 1_655 S
C1705 C1703 1.403 . S
C1705 C1706 1.489 . S
C1706 C1705 1.489 . S
C1706 C1707 1.383 . S
C1706 C1711 1.382 . S
C1707 H1678 0.950 . S
C1707 C1706 1.383 . S
C1707 C1708 1.395 . S
C1708 H1679 0.950 . S
C1708 C1707 1.395 . S
C1708 C1709 1.288 . S
C1709 C1708 1.288 . S
C1709 C1710 1.392 . S
C1710 H1680 0.951 . S
C1710 C1709 1.392 . S
C1710 C1711 1.392 . S
C1711 H1681 0.949 . S
C1711 C1706 1.382 . S
C1711 C1710 1.392 . S
H1712 C1731 0.949 . S
H1713 C1732 0.950 . S
H1714 C1734 0.950 . S
H1715 C1735 0.950 . S
H1716 C1737 0.950 . S
H1717 C1740 0.950 . S
H1718 C1741 0.950 . S
H1719 C1743 0.951 . S
H1720 C1744 0.949 . S
H1721 C1746 0.949 . S
H1722 C1747 0.950 . S
H1723 C1749 0.950 . S
H1724 C1750 0.950 . S
H1725 C1752 0.950 1_565 S
H1726 C1755 0.950 . S
H1727 C1756 0.950 . S
H1728 C1758 0.951 . S
H1729 C1759 0.949 . S
C1730 C1731 1.376 . S
C1730 C1735 1.386 . S
C1730 C1736 1.483 . S
C1731 H1712 0.949 . S
C1731 C1730 1.376 . S
C1731 C1732 1.397 . S
C1732 H1713 0.950 . S
C1732 C1731 1.397 . S
C1732 C1733 1.391 . S
C1733 C1732 1.391 . S
C1733 C1734 1.405 . S
C1734 H1714 0.950 . S
C1734 C1733 1.405 . S
C1734 C1735 1.367 . S
C1735 H1715 0.950 . S
C1735 C1730 1.386 . S
C1735 C1734 1.367 . S
C1736 C1730 1.483 . S
C1736 C1737 1.382 . S
C1736 C1738 1.403 . S
C1737 H1716 0.950 . S
C1737 C1736 1.382 . S
C1737 C1753 1.411 1_545 S
C1738 C1736 1.403 . S
C1738 C1739 1.489 . S
C1738 C1752 1.434 . S
C1739 C1738 1.489 . S
C1739 C1740 1.383 . S
C1739 C1744 1.382 . S
C1740 H1717 0.950 . S
C1740 C1739 1.383 . S
C1740 C1741 1.395 . S
C1741 H1718 0.950 . S
C1741 C1740 1.395 . S
C1741 C1742 1.288 . S
C1742 C1741 1.288 . S
C1742 C1743 1.392 . S
C1743 H1719 0.951 . S
C1743 C1742 1.392 . S
C1743 C1744 1.392 . S
C1744 H1720 0.949 . S
C1744 C1739 1.382 . S
C1744 C1743 1.392 . S
C1745 C1746 1.376 . S
C1745 C1750 1.386 . S
C1745 C1751 1.483 . S
C1746 H1721 0.949 . S
C1746 C1745 1.376 . S
C1746 C1747 1.397 . S
C1747 H1722 0.950 . S
C1747 C1746 1.397 . S
C1747 C1748 1.391 . S
C1748 C1747 1.391 . S
C1748 C1749 1.405 . S
C1749 H1723 0.950 . S
C1749 C1748 1.405 . S
C1749 C1750 1.367 . S
C1750 H1724 0.950 . S
C1750 C1745 1.386 . S
C1750 C1749 1.367 . S
C1751 C1745 1.483 . S
C1751 C1752 1.360 1_565 S
C1751 C1753 1.403 . S
C1752 H1725 0.950 1_545 S
C1752 C1738 1.434 . S
C1752 C1751 1.360 1_545 S
C1753 C1737 1.411 1_565 S
C1753 C1751 1.403 . S
C1753 C1754 1.489 . S
C1754 C1753 1.489 . S
C1754 C1755 1.383 . S
C1754 C1759 1.382 . S
C1755 H1726 0.950 . S
C1755 C1754 1.383 . S
C1755 C1756 1.395 . S
C1756 H1727 0.950 . S
C1756 C1755 1.395 . S
C1756 C1757 1.288 . S
C1757 C1756 1.288 . S
C1757 C1758 1.392 . S
C1758 H1728 0.951 . S
C1758 C1757 1.392 . S
C1758 C1759 1.392 . S
C1759 H1729 0.949 . S
C1759 C1754 1.382 . S
C1759 C1758 1.392 . S
H1760 C1779 0.949 . S
H1761 C1780 0.950 . S
H1762 C1782 0.950 . S
H1763 C1783 0.950 . S
H1764 C1785 0.950 . S
H1765 C1788 0.950 . S
H1766 C1789 0.950 . S
H1767 C1791 0.951 . S
H1768 C1792 0.949 . S
H1769 C1794 0.949 . S
H1770 C1795 0.950 . S
H1771 C1797 0.950 . S
H1772 C1798 0.950 . S
H1773 C1800 0.950 . S
H1774 C1803 0.950 . S
H1775 C1804 0.950 . S
H1776 C1806 0.951 . S
H1777 C1807 0.949 . S
C1778 C1779 1.376 . S
C1778 C1783 1.386 . S
C1778 C1784 1.483 . S
C1779 H1760 0.949 . S
C1779 C1778 1.376 . S
C1779 C1780 1.397 . S
C1780 H1761 0.950 . S
C1780 C1779 1.397 . S
C1780 C1781 1.391 . S
C1781 C1780 1.391 . S
C1781 C1782 1.405 . S
C1782 H1762 0.950 . S
C1782 C1781 1.405 . S
C1782 C1783 1.367 . S
C1783 H1763 0.950 . S
C1783 C1778 1.386 . S
C1783 C1782 1.367 . S
C1784 C1778 1.483 . S
C1784 C1785 1.330 1_655 S
C1784 C1786 1.403 . S
C1785 H1764 0.950 . S
C1785 C1784 1.330 1_455 S
C1785 C1801 1.464 . S
C1786 C1784 1.403 . S
C1786 C1787 1.489 . S
C1786 C1800 1.411 1_655 S
C1787 C1786 1.489 . S
C1787 C1788 1.383 . S
C1787 C1792 1.382 . S
C1788 H1765 0.950 . S
C1788 C1787 1.383 . S
C1788 C1789 1.395 . S
C1789 H1766 0.950 . S
C1789 C1788 1.395 . S
C1789 C1790 1.288 . S
C1790 C1789 1.288 . S
C1790 C1791 1.392 . S
C1791 H1767 0.951 . S
C1791 C1790 1.392 . S
C1791 C1792 1.392 . S
C1792 H1768 0.949 . S
C1792 C1787 1.382 . S
C1792 C1791 1.392 . S
C1793 C1794 1.376 . S
C1793 C1798 1.386 . S
C1793 C1799 1.483 . S
C1794 H1769 0.949 . S
C1794 C1793 1.376 . S
C1794 C1795 1.397 . S
C1795 H1770 0.950 . S
C1795 C1794 1.397 . S
C1795 C1796 1.391 . S
C1796 C1795 1.391 . S
C1796 C1797 1.405 . S
C1797 H1771 0.950 . S
C1797 C1796 1.405 . S
C1797 C1798 1.367 . S
C1798 H1772 0.950 . S
C1798 C1793 1.386 . S
C1798 C1797 1.367 . S
C1799 C1793 1.483 . S
C1799 C1800 1.382 . S
C1799 C1801 1.403 . S
C1800 H1773 0.950 . S
C1800 C1786 1.411 1_455 S
C1800 C1799 1.382 . S
C1801 C1785 1.464 . S
C1801 C1799 1.403 . S
C1801 C1802 1.489 . S
C1802 C1801 1.489 . S
C1802 C1803 1.383 . S
C1802 C1807 1.382 . S
C1803 H1774 0.950 . S
C1803 C1802 1.383 . S
C1803 C1804 1.395 . S
C1804 H1775 0.950 . S
C1804 C1803 1.395 . S
C1804 C1805 1.288 . S
C1805 C1804 1.288 . S
C1805 C1806 1.392 . S
C1806 H1776 0.951 . S
C1806 C1805 1.392 . S
C1806 C1807 1.392 . S
C1807 H1777 0.949 . S
C1807 C1802 1.382 . S
C1807 C1806 1.392 . S
H1808 C1827 0.949 . S
H1809 C1828 0.950 . S
H1810 C1830 0.950 . S
H1811 C1831 0.950 . S
H1812 C1833 0.950 . S
H1813 C1836 0.950 . S
H1814 C1837 0.950 . S
H1815 C1839 0.951 . S
H1816 C1840 0.949 . S
H1817 C1842 0.949 . S
H1818 C1843 0.950 . S
H1819 C1845 0.950 . S
H1820 C1846 0.950 . S
H1821 C1848 0.950 . S
H1822 C1851 0.950 . S
H1823 C1852 0.950 . S
H1824 C1854 0.951 . S
H1825 C1855 0.949 . S
C1826 C1827 1.376 . S
C1826 C1831 1.386 . S
C1826 C1832 1.483 . S
C1827 H1808 0.949 . S
C1827 C1826 1.376 . S
C1827 C1828 1.397 . S
C1828 H1809 0.950 . S
C1828 C1827 1.397 . S
C1828 C1829 1.391 . S
C1829 C1828 1.391 . S
C1829 C1830 1.405 . S
C1830 H1810 0.950 . S
C1830 C1829 1.405 . S
C1830 C1831 1.367 . S
C1831 H1811 0.950 . S
C1831 C1826 1.386 . S
C1831 C1830 1.367 . S
C1832 C1826 1.483 . S
C1832 C1833 1.382 . S
C1832 C1834 1.403 . S
C1833 H1812 0.950 . S
C1833 C1832 1.382 . S
C1833 C1849 1.411 1_545 S
C1834 C1832 1.403 . S
C1834 C1835 1.489 . S
C1834 C1848 1.411 . S
C1835 C1834 1.489 . S
C1835 C1836 1.383 . S
C1835 C1840 1.382 . S
C1836 H1813 0.950 . S
C1836 C1835 1.383 . S
C1836 C1837 1.395 . S
C1837 H1814 0.950 . S
C1837 C1836 1.395 . S
C1837 C1838 1.288 . S
C1838 C1837 1.288 . S
C1838 C1839 1.392 . S
C1839 H1815 0.951 . S
C1839 C1838 1.392 . S
C1839 C1840 1.392 . S
C1840 H1816 0.949 . S
C1840 C1835 1.382 . S
C1840 C1839 1.392 . S
C1841 C1842 1.376 . S
C1841 C1846 1.386 . S
C1841 C1847 1.483 . S
C1842 H1817 0.949 . S
C1842 C1841 1.376 . S
C1842 C1843 1.397 . S
C1843 H1818 0.950 . S
C1843 C1842 1.397 . S
C1843 C1844 1.391 . S
C1844 C1843 1.391 . S
C1844 C1845 1.405 . S
C1845 H1819 0.950 . S
C1845 C1844 1.405 . S
C1845 C1846 1.367 . S
C1846 H1820 0.950 . S
C1846 C1841 1.386 . S
C1846 C1845 1.367 . S
C1847 C1841 1.483 . S
C1847 C1848 1.382 1_565 S
C1847 C1849 1.403 . S
C1848 H1821 0.950 . S
C1848 C1834 1.411 . S
C1848 C1847 1.382 1_545 S
C1849 C1833 1.411 1_565 S
C1849 C1847 1.403 . S
C1849 C1850 1.489 . S
C1850 C1849 1.489 . S
C1850 C1851 1.383 . S
C1850 C1855 1.382 . S
C1851 H1822 0.950 . S
C1851 C1850 1.383 . S
C1851 C1852 1.395 . S
C1852 H1823 0.950 . S
C1852 C1851 1.395 . S
C1852 C1853 1.288 . S
C1853 C1852 1.288 . S
C1853 C1854 1.392 . S
C1854 H1824 0.951 . S
C1854 C1853 1.392 . S
C1854 C1855 1.392 . S
C1855 H1825 0.949 . S
C1855 C1850 1.382 . S
C1855 C1854 1.392 . S
H1856 C1875 0.949 . S
H1857 C1876 0.950 . S
H1858 C1878 0.950 . S
H1859 C1879 0.950 . S
H1860 C1881 0.950 . S
H1861 C1884 0.950 . S
H1862 C1885 0.950 . S
H1863 C1887 0.951 . S
H1864 C1888 0.949 . S
H1865 C1890 0.949 . S
H1866 C1891 0.950 . S
H1867 C1893 0.950 . S
H1868 C1894 0.950 . S
H1869 C1896 0.950 . S
H1870 C1899 0.950 . S
H1871 C1900 0.950 . S
H1872 C1902 0.951 . S
H1873 C1903 0.949 . S
C1874 C1875 1.376 . S
C1874 C1879 1.386 . S
C1874 C1880 1.483 . S
C1875 H1856 0.949 . S
C1875 C1874 1.376 . S
C1875 C1876 1.397 . S
C1876 H1857 0.950 . S
C1876 C1875 1.397 . S
C1876 C1877 1.391 . S
C1877 C1876 1.391 . S
C1877 C1878 1.405 . S
C1878 H1858 0.950 . S
C1878 C1877 1.405 . S
C1878 C1879 1.367 . S
C1879 H1859 0.950 . S
C1879 C1874 1.386 . S
C1879 C1878 1.367 . S
C1880 C1874 1.483 . S
C1880 C1881 1.382 . S
C1880 C1882 1.403 . S
C1881 H1860 0.950 . S
C1881 C1880 1.382 . S
C1881 C1897 1.411 . S
C1882 C1880 1.403 . S
C1882 C1883 1.489 . S
C1882 C1896 1.411 . S
C1883 C1882 1.489 . S
C1883 C1884 1.383 . S
C1883 C1888 1.382 . S
C1884 H1861 0.950 . S
C1884 C1883 1.383 . S
C1884 C1885 1.395 . S
C1885 H1862 0.950 . S
C1885 C1884 1.395 . S
C1885 C1886 1.288 . S
C1886 C1885 1.288 . S
C1886 C1887 1.392 . S
C1887 H1863 0.951 . S
C1887 C1886 1.392 . S
C1887 C1888 1.392 . S
C1888 H1864 0.949 . S
C1888 C1883 1.382 . S
C1888 C1887 1.392 . S
C1889 C1890 1.376 . S
C1889 C1894 1.386 . S
C1889 C1895 1.483 . S
C1890 H1865 0.949 . S
C1890 C1889 1.376 . S
C1890 C1891 1.397 . S
C1891 H1866 0.950 . S
C1891 C1890 1.397 . S
C1891 C1892 1.391 . S
C1892 C1891 1.391 . S
C1892 C1893 1.405 . S
C1893 H1867 0.950 . S
C1893 C1892 1.405 . S
C1893 C1894 1.367 . S
C1894 H1868 0.950 . S
C1894 C1889 1.386 . S
C1894 C1893 1.367 . S
C1895 C1889 1.483 . S
C1895 C1896 1.382 . S
C1895 C1897 1.403 . S
C1896 H1869 0.950 . S
C1896 C1882 1.411 . S
C1896 C1895 1.382 . S
C1897 C1881 1.411 . S
C1897 C1895 1.403 . S
C1897 C1898 1.489 . S
C1898 C1897 1.489 . S
C1898 C1899 1.383 . S
C1898 C1903 1.382 . S
C1899 H1870 0.950 . S
C1899 C1898 1.383 . S
C1899 C1900 1.395 . S
C1900 H1871 0.950 . S
C1900 C1899 1.395 . S
C1900 C1901 1.288 . S
C1901 C1900 1.288 . S
C1901 C1902 1.392 . S
C1902 H1872 0.951 . S
C1902 C1901 1.392 . S
C1902 C1903 1.392 . S
C1903 H1873 0.949 . S
C1903 C1898 1.382 . S
C1903 C1902 1.392 . S
H1904 C1923 0.949 . S
H1905 C1924 0.950 . S
H1906 C1926 0.950 . S
H1907 C1927 0.950 . S
H1908 C1929 0.950 . S
H1909 C1932 0.950 . S
H1910 C1933 0.950 . S
H1911 C1935 0.951 . S
H1912 C1936 0.949 . S
H1913 C1938 0.949 . S
H1914 C1939 0.950 . S
H1915 C1941 0.950 . S
H1916 C1942 0.950 . S
H1917 C1944 0.950 . S
H1918 C1947 0.950 . S
H1919 C1948 0.950 . S
H1920 C1950 0.951 . S
H1921 C1951 0.949 . S
C1922 C1923 1.376 . S
C1922 C1927 1.386 . S
C1922 C1928 1.483 . S
C1923 H1904 0.949 . S
C1923 C1922 1.376 . S
C1923 C1924 1.397 . S
C1924 H1905 0.950 . S
C1924 C1923 1.397 . S
C1924 C1925 1.391 . S
C1925 C1924 1.391 . S
C1925 C1926 1.405 . S
C1926 H1906 0.950 . S
C1926 C1925 1.405 . S
C1926 C1927 1.367 . S
C1927 H1907 0.950 . S
C1927 C1922 1.386 . S
C1927 C1926 1.367 . S
C1928 C1922 1.483 . S
C1928 C1929 1.382 . S
C1928 C1930 1.403 . S
C1929 H1908 0.950 . S
C1929 C1928 1.382 . S
C1929 C1945 1.411 . S
C1930 C1928 1.403 . S
C1930 C1931 1.489 . S
C1930 C1944 1.411 . S
C1931 C1930 1.489 . S
C1931 C1932 1.383 . S
C1931 C1936 1.382 . S
C1932 H1909 0.950 . S
C1932 C1931 1.383 . S
C1932 C1933 1.395 . S
C1933 H1910 0.950 . S
C1933 C1932 1.395 . S
C1933 C1934 1.288 . S
C1934 C1933 1.288 . S
C1934 C1935 1.392 . S
C1935 H1911 0.951 . S
C1935 C1934 1.392 . S
C1935 C1936 1.392 . S
C1936 H1912 0.949 . S
C1936 C1931 1.382 . S
C1936 C1935 1.392 . S
C1937 C1938 1.376 . S
C1937 C1942 1.386 . S
C1937 C1943 1.483 . S
C1938 H1913 0.949 . S
C1938 C1937 1.376 . S
C1938 C1939 1.397 . S
C1939 H1914 0.950 . S
C1939 C1938 1.397 . S
C1939 C1940 1.391 . S
C1940 C1939 1.391 . S
C1940 C1941 1.405 . S
C1941 H1915 0.950 . S
C1941 C1940 1.405 . S
C1941 C1942 1.367 . S
C1942 H1916 0.950 . S
C1942 C1937 1.386 . S
C1942 C1941 1.367 . S
C1943 C1937 1.483 . S
C1943 C1944 1.382 . S
C1943 C1945 1.403 . S
C1944 H1917 0.950 . S
C1944 C1930 1.411 . S
C1944 C1943 1.382 . S
C1945 C1929 1.411 . S
C1945 C1943 1.403 . S
C1945 C1946 1.489 . S
C1946 C1945 1.489 . S
C1946 C1947 1.383 . S
C1946 C1951 1.382 . S
C1947 H1918 0.950 . S
C1947 C1946 1.383 . S
C1947 C1948 1.395 . S
C1948 H1919 0.950 . S
C1948 C1947 1.395 . S
C1948 C1949 1.288 . S
C1949 C1948 1.288 . S
C1949 C1950 1.392 . S
C1950 H1920 0.951 . S
C1950 C1949 1.392 . S
C1950 C1951 1.392 . S
C1951 H1921 0.949 . S
C1951 C1946 1.382 . S
C1951 C1950 1.392 . S
H1952 C1971 0.949 . S
H1953 C1972 0.950 . S
H1954 C1974 0.950 . S
H1955 C1975 0.950 . S
H1956 C1977 0.950 . S
H1957 C1980 0.950 . S
H1958 C1981 0.950 . S
H1959 C1983 0.951 . S
H1960 C1984 0.949 . S
H1961 C1986 0.949 . S
H1962 C1987 0.950 . S
H1963 C1989 0.950 . S
H1964 C1990 0.950 . S
H1965 C1992 0.950 . S
H1966 C1995 0.950 . S
H1967 C1996 0.950 . S
H1968 C1998 0.951 . S
H1969 C1999 0.949 . S
C1970 C1971 1.376 . S
C1970 C1975 1.386 . S
C1970 C1976 1.483 . S
C1971 H1952 0.949 . S
C1971 C1970 1.376 . S
C1971 C1972 1.397 . S
C1972 H1953 0.950 . S
C1972 C1971 1.397 . S
C1972 C1973 1.391 . S
C1973 C1972 1.391 . S
C1973 C1974 1.405 . S
C1974 H1954 0.950 . S
C1974 C1973 1.405 . S
C1974 C1975 1.367 . S
C1975 H1955 0.950 . S
C1975 C1970 1.386 . S
C1975 C1974 1.367 . S
C1976 C1970 1.483 . S
C1976 C1977 1.382 . S
C1976 C1978 1.403 . S
C1977 H1956 0.950 . S
C1977 C1976 1.382 . S
C1977 C1993 1.411 . S
C1978 C1976 1.403 . S
C1978 C1979 1.489 . S
C1978 C1992 1.411 . S
C1979 C1978 1.489 . S
C1979 C1980 1.383 . S
C1979 C1984 1.382 . S
C1980 H1957 0.950 . S
C1980 C1979 1.383 . S
C1980 C1981 1.395 . S
C1981 H1958 0.950 . S
C1981 C1980 1.395 . S
C1981 C1982 1.288 . S
C1982 C1981 1.288 . S
C1982 C1983 1.392 . S
C1983 H1959 0.951 . S
C1983 C1982 1.392 . S
C1983 C1984 1.392 . S
C1984 H1960 0.949 . S
C1984 C1979 1.382 . S
C1984 C1983 1.392 . S
C1985 C1986 1.376 . S
C1985 C1990 1.386 . S
C1985 C1991 1.483 . S
C1986 H1961 0.949 . S
C1986 C1985 1.376 . S
C1986 C1987 1.397 . S
C1987 H1962 0.950 . S
C1987 C1986 1.397 . S
C1987 C1988 1.391 . S
C1988 C1987 1.391 . S
C1988 C1989 1.405 . S
C1989 H1963 0.950 . S
C1989 C1988 1.405 . S
C1989 C1990 1.367 . S
C1990 H1964 0.950 . S
C1990 C1985 1.386 . S
C1990 C1989 1.367 . S
C1991 C1985 1.483 . S
C1991 C1992 1.382 . S
C1991 C1993 1.403 . S
C1992 H1965 0.950 . S
C1992 C1978 1.411 . S
C1992 C1991 1.382 . S
C1993 C1977 1.411 . S
C1993 C1991 1.403 . S
C1993 C1994 1.489 . S
C1994 C1993 1.489 . S
C1994 C1995 1.383 . S
C1994 C1999 1.382 . S
C1995 H1966 0.950 . S
C1995 C1994 1.383 . S
C1995 C1996 1.395 . S
C1996 H1967 0.950 . S
C1996 C1995 1.395 . S
C1996 C1997 1.288 . S
C1997 C1996 1.288 . S
C1997 C1998 1.392 . S
C1998 H1968 0.951 . S
C1998 C1997 1.392 . S
C1998 C1999 1.392 . S
C1999 H1969 0.949 . S
C1999 C1994 1.382 . S
C1999 C1998 1.392 . S
H2000 C2019 0.949 . S
H2001 C2020 0.950 . S
H2002 C2022 0.950 . S
H2003 C2023 0.950 . S
H2004 C2025 0.950 . S
H2005 C2028 0.950 . S
H2006 C2029 0.950 . S
H2007 C2031 0.951 . S
H2008 C2032 0.949 . S
H2009 C2034 0.949 . S
H2010 C2035 0.950 . S
H2011 C2037 0.950 . S
H2012 C2038 0.950 . S
H2013 C2040 0.950 . S
H2014 C2043 0.950 . S
H2015 C2044 0.950 . S
H2016 C2046 0.951 . S
H2017 C2047 0.949 . S
C2018 C2019 1.376 . S
C2018 C2023 1.386 . S
C2018 C2024 1.483 . S
C2019 H2000 0.949 . S
C2019 C2018 1.376 . S
C2019 C2020 1.397 . S
C2020 H2001 0.950 . S
C2020 C2019 1.397 . S
C2020 C2021 1.391 . S
C2021 C2020 1.391 . S
C2021 C2022 1.405 . S
C2022 H2002 0.950 . S
C2022 C2021 1.405 . S
C2022 C2023 1.367 . S
C2023 H2003 0.950 . S
C2023 C2018 1.386 . S
C2023 C2022 1.367 . S
C2024 C2018 1.483 . S
C2024 C2025 1.382 . S
C2024 C2026 1.403 . S
C2025 H2004 0.950 . S
C2025 C2024 1.382 . S
C2025 C2041 1.411 . S
C2026 C2024 1.403 . S
C2026 C2027 1.489 . S
C2026 C2040 1.411 . S
C2027 C2026 1.489 . S
C2027 C2028 1.383 . S
C2027 C2032 1.382 . S
C2028 H2005 0.950 . S
C2028 C2027 1.383 . S
C2028 C2029 1.395 . S
C2029 H2006 0.950 . S
C2029 C2028 1.395 . S
C2029 C2030 1.288 . S
C2030 C2029 1.288 . S
C2030 C2031 1.392 . S
C2031 H2007 0.951 . S
C2031 C2030 1.392 . S
C2031 C2032 1.392 . S
C2032 H2008 0.949 . S
C2032 C2027 1.382 . S
C2032 C2031 1.392 . S
C2033 C2034 1.376 . S
C2033 C2038 1.386 . S
C2033 C2039 1.483 . S
C2034 H2009 0.949 . S
C2034 C2033 1.376 . S
C2034 C2035 1.397 . S
C2035 H2010 0.950 . S
C2035 C2034 1.397 . S
C2035 C2036 1.391 . S
C2036 C2035 1.391 . S
C2036 C2037 1.405 . S
C2037 H2011 0.950 . S
C2037 C2036 1.405 . S
C2037 C2038 1.367 . S
C2038 H2012 0.950 . S
C2038 C2033 1.386 . S
C2038 C2037 1.367 . S
C2039 C2033 1.483 . S
C2039 C2040 1.382 . S
C2039 C2041 1.403 . S
C2040 H2013 0.950 . S
C2040 C2026 1.411 . S
C2040 C2039 1.382 . S
C2041 C2025 1.411 . S
C2041 C2039 1.403 . S
C2041 C2042 1.489 . S
C2042 C2041 1.489 . S
C2042 C2043 1.383 . S
C2042 C2047 1.382 . S
C2043 H2014 0.950 . S
C2043 C2042 1.383 . S
C2043 C2044 1.395 . S
C2044 H2015 0.950 . S
C2044 C2043 1.395 . S
C2044 C2045 1.288 . S
C2045 C2044 1.288 . S
C2045 C2046 1.392 . S
C2046 H2016 0.951 . S
C2046 C2045 1.392 . S
C2046 C2047 1.392 . S
C2047 H2017 0.949 . S
C2047 C2042 1.382 . S
C2047 C2046 1.392 . S
H2048 C2067 0.949 . S
H2049 C2068 0.950 . S
H2050 C2070 0.950 . S
H2051 C2071 0.950 . S
H2052 C2073 0.950 . S
H2053 C2076 0.950 . S
H2054 C2077 0.950 . S
H2055 C2079 0.951 . S
H2056 C2080 0.949 . S
H2057 C2082 0.949 . S
H2058 C2083 0.950 . S
H2059 C2085 0.950 . S
H2060 C2086 0.950 . S
H2061 C2088 0.950 . S
H2062 C2091 0.950 . S
H2063 C2092 0.950 . S
H2064 C2094 0.951 . S
H2065 C2095 0.949 . S
C2066 C2067 1.376 . S
C2066 C2071 1.386 . S
C2066 C2072 1.483 . S
C2067 H2048 0.949 . S
C2067 C2066 1.376 . S
C2067 C2068 1.397 . S
C2068 H2049 0.950 . S
C2068 C2067 1.397 . S
C2068 C2069 1.391 . S
C2069 C2068 1.391 . S
C2069 C2070 1.405 . S
C2070 H2050 0.950 . S
C2070 C2069 1.405 . S
C2070 C2071 1.367 . S
C2071 H2051 0.950 . S
C2071 C2066 1.386 . S
C2071 C2070 1.367 . S
C2072 C2066 1.483 . S
C2072 C2073 1.382 . S
C2072 C2074 1.403 . S
C2073 H2052 0.950 . S
C2073 C2072 1.382 . S
C2073 C2089 1.411 . S
C2074 C2072 1.403 . S
C2074 C2075 1.489 . S
C2074 C2088 1.411 . S
C2075 C2074 1.489 . S
C2075 C2076 1.383 . S
C2075 C2080 1.382 . S
C2076 H2053 0.950 . S
C2076 C2075 1.383 . S
C2076 C2077 1.395 . S
C2077 H2054 0.950 . S
C2077 C2076 1.395 . S
C2077 C2078 1.288 . S
C2078 C2077 1.288 . S
C2078 C2079 1.392 . S
C2079 H2055 0.951 . S
C2079 C2078 1.392 . S
C2079 C2080 1.392 . S
C2080 H2056 0.949 . S
C2080 C2075 1.382 . S
C2080 C2079 1.392 . S
C2081 C2082 1.376 . S
C2081 C2086 1.386 . S
C2081 C2087 1.483 . S
C2082 H2057 0.949 . S
C2082 C2081 1.376 . S
C2082 C2083 1.397 . S
C2083 H2058 0.950 . S
C2083 C2082 1.397 . S
C2083 C2084 1.391 . S
C2084 C2083 1.391 . S
C2084 C2085 1.405 . S
C2085 H2059 0.950 . S
C2085 C2084 1.405 . S
C2085 C2086 1.367 . S
C2086 H2060 0.950 . S
C2086 C2081 1.386 . S
C2086 C2085 1.367 . S
C2087 C2081 1.483 . S
C2087 C2088 1.382 . S
C2087 C2089 1.403 . S
C2088 H2061 0.950 . S
C2088 C2074 1.411 . S
C2088 C2087 1.382 . S
C2089 C2073 1.411 . S
C2089 C2087 1.403 . S
C2089 C2090 1.489 . S
C2090 C2089 1.489 . S
C2090 C2091 1.383 . S
C2090 C2095 1.382 . S
C2091 H2062 0.950 . S
C2091 C2090 1.383 . S
C2091 C2092 1.395 . S
C2092 H2063 0.950 . S
C2092 C2091 1.395 . S
C2092 C2093 1.288 . S
C2093 C2092 1.288 . S
C2093 C2094 1.392 . S
C2094 H2064 0.951 . S
C2094 C2093 1.392 . S
C2094 C2095 1.392 . S
C2095 H2065 0.949 . S
C2095 C2090 1.382 . S
C2095 C2094 1.392 . S
H2096 C2115 0.949 . S
H2097 C2116 0.950 . S
H2098 C2118 0.950 . S
H2099 C2119 0.950 . S
H2100 C2121 0.950 . S
H2101 C2124 0.950 . S
H2102 C2125 0.950 . S
H2103 C2127 0.951 . S
H2104 C2128 0.949 . S
H2105 C2130 0.949 . S
H2106 C2131 0.950 . S
H2107 C2133 0.950 . S
H2108 C2134 0.950 . S
H2109 C2136 0.950 . S
H2110 C2139 0.950 . S
H2111 C2140 0.950 . S
H2112 C2142 0.951 . S
H2113 C2143 0.949 . S
C2114 C2115 1.376 . S
C2114 C2119 1.386 . S
C2114 C2120 1.483 . S
C2115 H2096 0.949 . S
C2115 C2114 1.376 . S
C2115 C2116 1.397 . S
C2116 H2097 0.950 . S
C2116 C2115 1.397 . S
C2116 C2117 1.391 . S
C2117 C2116 1.391 . S
C2117 C2118 1.405 . S
C2118 H2098 0.950 . S
C2118 C2117 1.405 . S
C2118 C2119 1.367 . S
C2119 H2099 0.950 . S
C2119 C2114 1.386 . S
C2119 C2118 1.367 . S
C2120 C2114 1.483 . S
C2120 C2121 1.382 . S
C2120 C2122 1.403 . S
C2121 H2100 0.950 . S
C2121 C2120 1.382 . S
C2121 C2137 1.411 . S
C2122 C2120 1.403 . S
C2122 C2123 1.489 . S
C2122 C2136 1.411 . S
C2123 C2122 1.489 . S
C2123 C2124 1.383 . S
C2123 C2128 1.382 . S
C2124 H2101 0.950 . S
C2124 C2123 1.383 . S
C2124 C2125 1.395 . S
C2125 H2102 0.950 . S
C2125 C2124 1.395 . S
C2125 C2126 1.288 . S
C2126 C2125 1.288 . S
C2126 C2127 1.392 . S
C2127 H2103 0.951 . S
C2127 C2126 1.392 . S
C2127 C2128 1.392 . S
C2128 H2104 0.949 . S
C2128 C2123 1.382 . S
C2128 C2127 1.392 . S
C2129 C2130 1.376 . S
C2129 C2134 1.386 . S
C2129 C2135 1.483 . S
C2130 H2105 0.949 . S
C2130 C2129 1.376 . S
C2130 C2131 1.397 . S
C2131 H2106 0.950 . S
C2131 C2130 1.397 . S
C2131 C2132 1.391 . S
C2132 C2131 1.391 . S
C2132 C2133 1.405 . S
C2133 H2107 0.950 . S
C2133 C2132 1.405 . S
C2133 C2134 1.367 . S
C2134 H2108 0.950 . S
C2134 C2129 1.386 . S
C2134 C2133 1.367 . S
C2135 C2129 1.483 . S
C2135 C2136 1.382 . S
C2135 C2137 1.403 . S
C2136 H2109 0.950 . S
C2136 C2122 1.411 . S
C2136 C2135 1.382 . S
C2137 C2121 1.411 . S
C2137 C2135 1.403 . S
C2137 C2138 1.489 . S
C2138 C2137 1.489 . S
C2138 C2139 1.383 . S
C2138 C2143 1.382 . S
C2139 H2110 0.950 . S
C2139 C2138 1.383 . S
C2139 C2140 1.395 . S
C2140 H2111 0.950 . S
C2140 C2139 1.395 . S
C2140 C2141 1.288 . S
C2141 C2140 1.288 . S
C2141 C2142 1.392 . S
C2142 H2112 0.951 . S
C2142 C2141 1.392 . S
C2142 C2143 1.392 . S
C2143 H2113 0.949 . S
C2143 C2138 1.382 . S
C2143 C2142 1.392 . S
H2144 C2163 0.949 . S
H2145 C2164 0.950 . S
H2146 C2166 0.950 . S
H2147 C2167 0.950 . S
H2148 C2169 0.950 . S
H2149 C2172 0.950 . S
H2150 C2173 0.950 . S
H2151 C2175 0.951 . S
H2152 C2176 0.949 . S
H2153 C2178 0.949 . S
H2154 C2179 0.950 . S
H2155 C2181 0.950 . S
H2156 C2182 0.950 . S
H2157 C2184 0.950 . S
H2158 C2187 0.950 . S
H2159 C2188 0.950 . S
H2160 C2190 0.951 . S
H2161 C2191 0.949 . S
C2162 C2163 1.376 . S
C2162 C2167 1.386 . S
C2162 C2168 1.483 . S
C2163 H2144 0.949 . S
C2163 C2162 1.376 . S
C2163 C2164 1.397 . S
C2164 H2145 0.950 . S
C2164 C2163 1.397 . S
C2164 C2165 1.391 . S
C2165 C2164 1.391 . S
C2165 C2166 1.405 . S
C2166 H2146 0.950 . S
C2166 C2165 1.405 . S
C2166 C2167 1.367 . S
C2167 H2147 0.950 . S
C2167 C2162 1.386 . S
C2167 C2166 1.367 . S
C2168 C2162 1.483 . S
C2168 C2169 1.382 . S
C2168 C2170 1.403 . S
C2169 H2148 0.950 . S
C2169 C2168 1.382 . S
C2169 C2185 1.411 . S
C2170 C2168 1.403 . S
C2170 C2171 1.489 . S
C2170 C2184 1.411 . S
C2171 C2170 1.489 . S
C2171 C2172 1.383 . S
C2171 C2176 1.382 . S
C2172 H2149 0.950 . S
C2172 C2171 1.383 . S
C2172 C2173 1.395 . S
C2173 H2150 0.950 . S
C2173 C2172 1.395 . S
C2173 C2174 1.288 . S
C2174 C2173 1.288 . S
C2174 C2175 1.392 . S
C2175 H2151 0.951 . S
C2175 C2174 1.392 . S
C2175 C2176 1.392 . S
C2176 H2152 0.949 . S
C2176 C2171 1.382 . S
C2176 C2175 1.392 . S
C2177 C2178 1.376 . S
C2177 C2182 1.386 . S
C2177 C2183 1.483 . S
C2178 H2153 0.949 . S
C2178 C2177 1.376 . S
C2178 C2179 1.397 . S
C2179 H2154 0.950 . S
C2179 C2178 1.397 . S
C2179 C2180 1.391 . S
C2180 C2179 1.391 . S
C2180 C2181 1.405 . S
C2181 H2155 0.950 . S
C2181 C2180 1.405 . S
C2181 C2182 1.367 . S
C2182 H2156 0.950 . S
C2182 C2177 1.386 . S
C2182 C2181 1.367 . S
C2183 C2177 1.483 . S
C2183 C2184 1.382 . S
C2183 C2185 1.403 . S
C2184 H2157 0.950 . S
C2184 C2170 1.411 . S
C2184 C2183 1.382 . S
C2185 C2169 1.411 . S
C2185 C2183 1.403 . S
C2185 C2186 1.489 . S
C2186 C2185 1.489 . S
C2186 C2187 1.383 . S
C2186 C2191 1.382 . S
C2187 H2158 0.950 . S
C2187 C2186 1.383 . S
C2187 C2188 1.395 . S
C2188 H2159 0.950 . S
C2188 C2187 1.395 . S
C2188 C2189 1.288 . S
C2189 C2188 1.288 . S
C2189 C2190 1.392 . S
C2190 H2160 0.951 . S
C2190 C2189 1.392 . S
C2190 C2191 1.392 . S
C2191 H2161 0.949 . S
C2191 C2186 1.382 . S
C2191 C2190 1.392 . S
H2192 C2211 0.949 . S
H2193 C2212 0.950 . S
H2194 C2214 0.950 . S
H2195 C2215 0.950 . S
H2196 C2217 0.950 . S
H2197 C2220 0.950 . S
H2198 C2221 0.950 . S
H2199 C2223 0.951 . S
H2200 C2224 0.949 . S
H2201 C2226 0.949 . S
H2202 C2227 0.950 . S
H2203 C2229 0.950 . S
H2204 C2230 0.950 . S
H2205 C2232 0.950 . S
H2206 C2235 0.950 . S
H2207 C2236 0.950 . S
H2208 C2238 0.951 . S
H2209 C2239 0.949 . S
C2210 C2211 1.376 . S
C2210 C2215 1.386 . S
C2210 C2216 1.483 . S
C2211 H2192 0.949 . S
C2211 C2210 1.376 . S
C2211 C2212 1.397 . S
C2212 H2193 0.950 . S
C2212 C2211 1.397 . S
C2212 C2213 1.391 . S
C2213 C2212 1.391 . S
C2213 C2214 1.405 . S
C2214 H2194 0.950 . S
C2214 C2213 1.405 . S
C2214 C2215 1.367 . S
C2215 H2195 0.950 . S
C2215 C2210 1.386 . S
C2215 C2214 1.367 . S
C2216 C2210 1.483 . S
C2216 C2217 1.382 . S
C2216 C2218 1.403 . S
C2217 H2196 0.950 . S
C2217 C2216 1.382 . S
C2217 C2233 1.411 . S
C2218 C2216 1.403 . S
C2218 C2219 1.489 . S
C2218 C2232 1.411 . S
C2219 C2218 1.489 . S
C2219 C2220 1.383 . S
C2219 C2224 1.382 . S
C2220 H2197 0.950 . S
C2220 C2219 1.383 . S
C2220 C2221 1.395 . S
C2221 H2198 0.950 . S
C2221 C2220 1.395 . S
C2221 C2222 1.288 . S
C2222 C2221 1.288 . S
C2222 C2223 1.392 . S
C2223 H2199 0.951 . S
C2223 C2222 1.392 . S
C2223 C2224 1.392 . S
C2224 H2200 0.949 . S
C2224 C2219 1.382 . S
C2224 C2223 1.392 . S
C2225 C2226 1.376 . S
C2225 C2230 1.386 . S
C2225 C2231 1.483 . S
C2226 H2201 0.949 . S
C2226 C2225 1.376 . S
C2226 C2227 1.397 . S
C2227 H2202 0.950 . S
C2227 C2226 1.397 . S
C2227 C2228 1.391 . S
C2228 C2227 1.391 . S
C2228 C2229 1.405 . S
C2229 H2203 0.950 . S
C2229 C2228 1.405 . S
C2229 C2230 1.367 . S
C2230 H2204 0.950 . S
C2230 C2225 1.386 . S
C2230 C2229 1.367 . S
C2231 C2225 1.483 . S
C2231 C2232 1.382 . S
C2231 C2233 1.403 . S
C2232 H2205 0.950 . S
C2232 C2218 1.411 . S
C2232 C2231 1.382 . S
C2233 C2217 1.411 . S
C2233 C2231 1.403 . S
C2233 C2234 1.489 . S
C2234 C2233 1.489 . S
C2234 C2235 1.383 . S
C2234 C2239 1.382 . S
C2235 H2206 0.950 . S
C2235 C2234 1.383 . S
C2235 C2236 1.395 . S
C2236 H2207 0.950 . S
C2236 C2235 1.395 . S
C2236 C2237 1.288 . S
C2237 C2236 1.288 . S
C2237 C2238 1.392 . S
C2238 H2208 0.951 . S
C2238 C2237 1.392 . S
C2238 C2239 1.392 . S
C2239 H2209 0.949 . S
C2239 C2234 1.382 . S
C2239 C2238 1.392 . S
H2240 C2259 0.949 . S
H2241 C2260 0.950 . S
H2242 C2262 0.950 . S
H2243 C2263 0.950 . S
H2244 C2265 0.950 . S
H2245 C2268 0.950 . S
H2246 C2269 0.950 . S
H2247 C2271 0.951 . S
H2248 C2272 0.949 . S
H2249 C2274 0.949 . S
H2250 C2275 0.950 . S
H2251 C2277 0.950 . S
H2252 C2278 0.950 . S
H2253 C2280 0.950 . S
H2254 C2283 0.950 . S
H2255 C2284 0.950 . S
H2256 C2286 0.951 . S
H2257 C2287 0.949 . S
C2258 C2259 1.376 . S
C2258 C2263 1.386 . S
C2258 C2264 1.483 . S
C2259 H2240 0.949 . S
C2259 C2258 1.376 . S
C2259 C2260 1.397 . S
C2260 H2241 0.950 . S
C2260 C2259 1.397 . S
C2260 C2261 1.391 . S
C2261 C2260 1.391 . S
C2261 C2262 1.405 . S
C2262 H2242 0.950 . S
C2262 C2261 1.405 . S
C2262 C2263 1.367 . S
C2263 H2243 0.950 . S
C2263 C2258 1.386 . S
C2263 C2262 1.367 . S
C2264 C2258 1.483 . S
C2264 C2265 1.382 . S
C2264 C2266 1.403 . S
C2265 H2244 0.950 . S
C2265 C2264 1.382 . S
C2265 C2281 1.411 . S
C2266 C2264 1.403 . S
C2266 C2267 1.489 . S
C2266 C2280 1.411 . S
C2267 C2266 1.489 . S
C2267 C2268 1.383 . S
C2267 C2272 1.382 . S
C2268 H2245 0.950 . S
C2268 C2267 1.383 . S
C2268 C2269 1.395 . S
C2269 H2246 0.950 . S
C2269 C2268 1.395 . S
C2269 C2270 1.288 . S
C2270 C2269 1.288 . S
C2270 C2271 1.392 . S
C2271 H2247 0.951 . S
C2271 C2270 1.392 . S
C2271 C2272 1.392 . S
C2272 H2248 0.949 . S
C2272 C2267 1.382 . S
C2272 C2271 1.392 . S
C2273 C2274 1.376 . S
C2273 C2278 1.386 . S
C2273 C2279 1.483 . S
C2274 H2249 0.949 . S
C2274 C2273 1.376 . S
C2274 C2275 1.397 . S
C2275 H2250 0.950 . S
C2275 C2274 1.397 . S
C2275 C2276 1.391 . S
C2276 C2275 1.391 . S
C2276 C2277 1.405 . S
C2277 H2251 0.950 . S
C2277 C2276 1.405 . S
C2277 C2278 1.367 . S
C2278 H2252 0.950 . S
C2278 C2273 1.386 . S
C2278 C2277 1.367 . S
C2279 C2273 1.483 . S
C2279 C2280 1.382 . S
C2279 C2281 1.403 . S
C2280 H2253 0.950 . S
C2280 C2266 1.411 . S
C2280 C2279 1.382 . S
C2281 C2265 1.411 . S
C2281 C2279 1.403 . S
C2281 C2282 1.489 . S
C2282 C2281 1.489 . S
C2282 C2283 1.383 . S
C2282 C2287 1.382 . S
C2283 H2254 0.950 . S
C2283 C2282 1.383 . S
C2283 C2284 1.395 . S
C2284 H2255 0.950 . S
C2284 C2283 1.395 . S
C2284 C2285 1.288 . S
C2285 C2284 1.288 . S
C2285 C2286 1.392 . S
C2286 H2256 0.951 . S
C2286 C2285 1.392 . S
C2286 C2287 1.392 . S
C2287 H2257 0.949 . S
C2287 C2282 1.382 . S
C2287 C2286 1.392 . S
H2288 C2307 0.949 . S
H2289 C2308 0.950 . S
H2290 C2310 0.950 . S
H2291 C2311 0.950 . S
H2292 C2313 0.950 . S
H2293 C2316 0.950 . S
H2294 C2317 0.950 . S
H2295 C2319 0.951 . S
H2296 C2320 0.949 . S
H2297 C2322 0.949 . S
H2298 C2323 0.950 . S
H2299 C2325 0.950 . S
H2300 C2326 0.950 . S
H2301 C2328 0.950 . S
H2302 C2331 0.950 . S
H2303 C2332 0.950 . S
H2304 C2334 0.951 . S
H2305 C2335 0.949 . S
C2306 C2307 1.376 . S
C2306 C2311 1.386 . S
C2306 C2312 1.483 . S
C2307 H2288 0.949 . S
C2307 C2306 1.376 . S
C2307 C2308 1.397 . S
C2308 H2289 0.950 . S
C2308 C2307 1.397 . S
C2308 C2309 1.391 . S
C2309 C2308 1.391 . S
C2309 C2310 1.405 . S
C2310 H2290 0.950 . S
C2310 C2309 1.405 . S
C2310 C2311 1.367 . S
C2311 H2291 0.950 . S
C2311 C2306 1.386 . S
C2311 C2310 1.367 . S
C2312 C2306 1.483 . S
C2312 C2313 1.382 . S
C2312 C2314 1.403 . S
C2313 H2292 0.950 . S
C2313 C2312 1.382 . S
C2313 C2329 1.411 . S
C2314 C2312 1.403 . S
C2314 C2315 1.489 . S
C2314 C2328 1.411 . S
C2315 C2314 1.489 . S
C2315 C2316 1.383 . S
C2315 C2320 1.382 . S
C2316 H2293 0.950 . S
C2316 C2315 1.383 . S
C2316 C2317 1.395 . S
C2317 H2294 0.950 . S
C2317 C2316 1.395 . S
C2317 C2318 1.288 . S
C2318 C2317 1.288 . S
C2318 C2319 1.392 . S
C2319 H2295 0.951 . S
C2319 C2318 1.392 . S
C2319 C2320 1.392 . S
C2320 H2296 0.949 . S
C2320 C2315 1.382 . S
C2320 C2319 1.392 . S
C2321 C2322 1.376 . S
C2321 C2326 1.386 . S
C2321 C2327 1.483 . S
C2322 H2297 0.949 . S
C2322 C2321 1.376 . S
C2322 C2323 1.397 . S
C2323 H2298 0.950 . S
C2323 C2322 1.397 . S
C2323 C2324 1.391 . S
C2324 C2323 1.391 . S
C2324 C2325 1.405 . S
C2325 H2299 0.950 . S
C2325 C2324 1.405 . S
C2325 C2326 1.367 . S
C2326 H2300 0.950 . S
C2326 C2321 1.386 . S
C2326 C2325 1.367 . S
C2327 C2321 1.483 . S
C2327 C2328 1.382 . S
C2327 C2329 1.403 . S
C2328 H2301 0.950 . S
C2328 C2314 1.411 . S
C2328 C2327 1.382 . S
C2329 C2313 1.411 . S
C2329 C2327 1.403 . S
C2329 C2330 1.489 . S
C2330 C2329 1.489 . S
C2330 C2331 1.383 . S
C2330 C2335 1.382 . S
C2331 H2302 0.950 . S
C2331 C2330 1.383 . S
C2331 C2332 1.395 . S
C2332 H2303 0.950 . S
C2332 C2331 1.395 . S
C2332 C2333 1.288 . S
C2333 C2332 1.288 . S
C2333 C2334 1.392 . S
C2334 H2304 0.951 . S
C2334 C2333 1.392 . S
C2334 C2335 1.392 . S
C2335 H2305 0.949 . S
C2335 C2330 1.382 . S
C2335 C2334 1.392 . S
H2336 C2355 0.949 . S
H2337 C2356 0.950 . S
H2338 C2358 0.950 . S
H2339 C2359 0.950 . S
H2340 C2361 0.950 . S
H2341 C2364 0.950 . S
H2342 C2365 0.950 . S
H2343 C2367 0.951 . S
H2344 C2368 0.949 . S
H2345 C2370 0.949 . S
H2346 C2371 0.950 . S
H2347 C2373 0.950 . S
H2348 C2374 0.950 . S
H2349 C2376 0.950 . S
H2350 C2379 0.950 . S
H2351 C2380 0.950 . S
H2352 C2382 0.951 . S
H2353 C2383 0.949 . S
C2354 C2355 1.376 . S
C2354 C2359 1.386 . S
C2354 C2360 1.483 . S
C2355 H2336 0.949 . S
C2355 C2354 1.376 . S
C2355 C2356 1.397 . S
C2356 H2337 0.950 . S
C2356 C2355 1.397 . S
C2356 C2357 1.391 . S
C2357 C2356 1.391 . S
C2357 C2358 1.405 . S
C2358 H2338 0.950 . S
C2358 C2357 1.405 . S
C2358 C2359 1.367 . S
C2359 H2339 0.950 . S
C2359 C2354 1.386 . S
C2359 C2358 1.367 . S
C2360 C2354 1.483 . S
C2360 C2361 1.382 . S
C2360 C2362 1.403 . S
C2361 H2340 0.950 . S
C2361 C2360 1.382 . S
C2361 C2377 1.411 . S
C2362 C2360 1.403 . S
C2362 C2363 1.489 . S
C2362 C2376 1.411 . S
C2363 C2362 1.489 . S
C2363 C2364 1.383 . S
C2363 C2368 1.382 . S
C2364 H2341 0.950 . S
C2364 C2363 1.383 . S
C2364 C2365 1.395 . S
C2365 H2342 0.950 . S
C2365 C2364 1.395 . S
C2365 C2366 1.288 . S
C2366 C2365 1.288 . S
C2366 C2367 1.392 . S
C2367 H2343 0.951 . S
C2367 C2366 1.392 . S
C2367 C2368 1.392 . S
C2368 H2344 0.949 . S
C2368 C2363 1.382 . S
C2368 C2367 1.392 . S
C2369 C2370 1.376 . S
C2369 C2374 1.386 . S
C2369 C2375 1.483 . S
C2370 H2345 0.949 . S
C2370 C2369 1.376 . S
C2370 C2371 1.397 . S
C2371 H2346 0.950 . S
C2371 C2370 1.397 . S
C2371 C2372 1.391 . S
C2372 C2371 1.391 . S
C2372 C2373 1.405 . S
C2373 H2347 0.950 . S
C2373 C2372 1.405 . S
C2373 C2374 1.367 . S
C2374 H2348 0.950 . S
C2374 C2369 1.386 . S
C2374 C2373 1.367 . S
C2375 C2369 1.483 . S
C2375 C2376 1.382 . S
C2375 C2377 1.403 . S
C2376 H2349 0.950 . S
C2376 C2362 1.411 . S
C2376 C2375 1.382 . S
C2377 C2361 1.411 . S
C2377 C2375 1.403 . S
C2377 C2378 1.489 . S
C2378 C2377 1.489 . S
C2378 C2379 1.383 . S
C2378 C2383 1.382 . S
C2379 H2350 0.950 . S
C2379 C2378 1.383 . S
C2379 C2380 1.395 . S
C2380 H2351 0.950 . S
C2380 C2379 1.395 . S
C2380 C2381 1.288 . S
C2381 C2380 1.288 . S
C2381 C2382 1.392 . S
C2382 H2352 0.951 . S
C2382 C2381 1.392 . S
C2382 C2383 1.392 . S
C2383 H2353 0.949 . S
C2383 C2378 1.382 . S
C2383 C2382 1.392 . S
H2384 C2403 0.949 . S
H2385 C2404 0.950 . S
H2386 C2406 0.950 . S
H2387 C2407 0.950 . S
H2388 C2409 0.950 . S
H2389 C2412 0.950 . S
H2390 C2413 0.950 . S
H2391 C2415 0.951 . S
H2392 C2416 0.949 . S
H2393 C2418 0.949 . S
H2394 C2419 0.950 . S
H2395 C2421 0.950 . S
H2396 C2422 0.950 . S
H2397 C2424 0.950 . S
H2398 C2427 0.950 . S
H2399 C2428 0.950 . S
H2400 C2430 0.951 . S
H2401 C2431 0.949 . S
C2402 C2403 1.376 . S
C2402 C2407 1.386 . S
C2402 C2408 1.483 . S
C2403 H2384 0.949 . S
C2403 C2402 1.376 . S
C2403 C2404 1.397 . S
C2404 H2385 0.950 . S
C2404 C2403 1.397 . S
C2404 C2405 1.391 . S
C2405 C2404 1.391 . S
C2405 C2406 1.405 . S
C2406 H2386 0.950 . S
C2406 C2405 1.405 . S
C2406 C2407 1.367 . S
C2407 H2387 0.950 . S
C2407 C2402 1.386 . S
C2407 C2406 1.367 . S
C2408 C2402 1.483 . S
C2408 C2409 1.382 . S
C2408 C2410 1.403 . S
C2409 H2388 0.950 . S
C2409 C2408 1.382 . S
C2409 C2425 1.411 . S
C2410 C2408 1.403 . S
C2410 C2411 1.489 . S
C2410 C2424 1.411 . S
C2411 C2410 1.489 . S
C2411 C2412 1.383 . S
C2411 C2416 1.382 . S
C2412 H2389 0.950 . S
C2412 C2411 1.383 . S
C2412 C2413 1.395 . S
C2413 H2390 0.950 . S
C2413 C2412 1.395 . S
C2413 C2414 1.288 . S
C2414 C2413 1.288 . S
C2414 C2415 1.392 . S
C2415 H2391 0.951 . S
C2415 C2414 1.392 . S
C2415 C2416 1.392 . S
C2416 H2392 0.949 . S
C2416 C2411 1.382 . S
C2416 C2415 1.392 . S
C2417 C2418 1.376 . S
C2417 C2422 1.386 . S
C2417 C2423 1.483 . S
C2418 H2393 0.949 . S
C2418 C2417 1.376 . S
C2418 C2419 1.397 . S
C2419 H2394 0.950 . S
C2419 C2418 1.397 . S
C2419 C2420 1.391 . S
C2420 C2419 1.391 . S
C2420 C2421 1.405 . S
C2421 H2395 0.950 . S
C2421 C2420 1.405 . S
C2421 C2422 1.367 . S
C2422 H2396 0.950 . S
C2422 C2417 1.386 . S
C2422 C2421 1.367 . S
C2423 C2417 1.483 . S
C2423 C2424 1.382 . S
C2423 C2425 1.403 . S
C2424 H2397 0.950 . S
C2424 C2410 1.411 . S
C2424 C2423 1.382 . S
C2425 C2409 1.411 . S
C2425 C2423 1.403 . S
C2425 C2426 1.489 . S
C2426 C2425 1.489 . S
C2426 C2427 1.383 . S
C2426 C2431 1.382 . S
C2427 H2398 0.950 . S
C2427 C2426 1.383 . S
C2427 C2428 1.395 . S
C2428 H2399 0.950 . S
C2428 C2427 1.395 . S
C2428 C2429 1.288 . S
C2429 C2428 1.288 . S
C2429 C2430 1.392 . S
C2430 H2400 0.951 . S
C2430 C2429 1.392 . S
C2430 C2431 1.392 . S
C2431 H2401 0.949 . S
C2431 C2426 1.382 . S
C2431 C2430 1.392 . S
C2432 C2433 1.349 . S
C2432 C2434 1.327 . S
C2432 H2457 0.950 . S
C2433 C2432 1.349 . S
C2433 C2449 1.349 . S
C2434 C2432 1.327 . S
C2434 C2453 1.429 . S
C2434 H2458 0.950 . S
C2435 C2452 1.574 . S
C2435 C2454 1.368 . S
C2435 H2459 0.949 . S
H2436 C2440 0.949 . S
C2437 C2438 1.349 . S
C2437 C2439 1.327 . S
C2437 H2460 0.950 . S
C2438 C2437 1.349 . S
C2438 C2450 1.349 . S
C2439 C2437 1.327 . S
C2439 C2455 1.429 . S
C2439 H2461 0.950 . S
C2440 H2436 0.949 . S
C2440 C2448 1.574 . S
C2440 C2456 1.368 . S
H2441 C2449 0.950 . S
H2442 C2447 0.950 . S
H2443 C2448 0.949 . S
H2444 C2450 0.950 . S
H2445 C2451 0.950 . S
H2446 C2452 0.949 . S
C2447 H2442 0.950 . S
C2447 C2449 1.327 . S
C2447 C2453 1.429 . S
C2448 C2440 1.574 . S
C2448 H2443 0.949 . S
C2448 C2454 1.368 . S
C2449 C2433 1.349 . S
C2449 H2441 0.950 . S
C2449 C2447 1.327 . S
C2450 C2438 1.349 . S
C2450 H2444 0.950 . S
C2450 C2451 1.327 . S
C2451 H2445 0.950 . S
C2451 C2450 1.327 . S
C2451 C2455 1.429 . S
C2452 C2435 1.574 . S
C2452 H2446 0.949 . S
C2452 C2456 1.368 . S
C2453 C2434 1.429 . S
C2453 C2447 1.429 . S
C2453 C2454 1.523 . S
C2454 C2435 1.368 . S
C2454 C2448 1.368 . S
C2454 C2453 1.523 . S
C2455 C2439 1.429 . S
C2455 C2451 1.429 . S
C2455 C2456 1.523 . S
C2456 C2440 1.368 . S
C2456 C2452 1.368 . S
C2456 C2455 1.523 . S
H2457 C2432 0.950 . S
H2458 C2434 0.950 . S
H2459 C2435 0.949 . S
H2460 C2437 0.950 . S
H2461 C2439 0.950 . S
C2462 C2463 1.349 . S
C2462 C2464 1.327 . S
C2462 H2487 0.950 . S
C2463 C2462 1.349 . S
C2463 C2479 1.349 . S
C2464 C2462 1.327 . S
C2464 C2483 1.429 . S
C2464 H2488 0.950 . S
C2465 C2482 1.574 . S
C2465 C2484 1.368 . S
C2465 H2489 0.949 . S
H2466 C2470 0.949 . S
C2467 C2468 1.349 . S
C2467 C2469 1.327 . S
C2467 H2490 0.950 . S
C2468 C2467 1.349 . S
C2468 C2480 1.349 . S
C2469 C2467 1.327 . S
C2469 C2485 1.429 . S
C2469 H2491 0.950 . S
C2470 H2466 0.949 . S
C2470 C2478 1.574 . S
C2470 C2486 1.368 . S
H2471 C2479 0.950 . S
H2472 C2477 0.950 . S
H2473 C2478 0.949 . S
H2474 C2480 0.950 . S
H2475 C2481 0.950 . S
H2476 C2482 0.949 . S
C2477 H2472 0.950 . S
C2477 C2479 1.327 . S
C2477 C2483 1.429 . S
C2478 C2470 1.574 . S
C2478 H2473 0.949 . S
C2478 C2484 1.368 . S
C2479 C2463 1.349 . S
C2479 H2471 0.950 . S
C2479 C2477 1.327 . S
C2480 C2468 1.349 . S
C2480 H2474 0.950 . S
C2480 C2481 1.327 . S
C2481 H2475 0.950 . S
C2481 C2480 1.327 . S
C2481 C2485 1.429 . S
C2482 C2465 1.574 . S
C2482 H2476 0.949 . S
C2482 C2486 1.368 . S
C2483 C2464 1.429 . S
C2483 C2477 1.429 . S
C2483 C2484 1.523 . S
C2484 C2465 1.368 . S
C2484 C2478 1.368 . S
C2484 C2483 1.523 . S
C2485 C2469 1.429 . S
C2485 C2481 1.429 . S
C2485 C2486 1.523 . S
C2486 C2470 1.368 . S
C2486 C2482 1.368 . S
C2486 C2485 1.523 . S
H2487 C2462 0.950 . S
H2488 C2464 0.950 . S
H2489 C2465 0.949 . S
H2490 C2467 0.950 . S
H2491 C2469 0.950 . S
C2492 C2493 1.349 . S
C2492 C2494 1.327 . S
C2492 H2517 0.950 . S
C2493 C2492 1.349 . S
C2493 C2509 1.349 . S
C2494 C2492 1.327 . S
C2494 C2513 1.429 . S
C2494 H2518 0.950 . S
C2495 C2512 1.574 . S
C2495 C2514 1.368 . S
C2495 H2519 0.949 . S
H2496 C2500 0.949 . S
C2497 C2498 1.349 . S
C2497 C2499 1.327 . S
C2497 H2520 0.950 . S
C2498 C2497 1.349 . S
C2498 C2510 1.349 . S
C2499 C2497 1.327 . S
C2499 C2515 1.429 . S
C2499 H2521 0.950 . S
C2500 H2496 0.949 . S
C2500 C2508 1.574 . S
C2500 C2516 1.368 . S
H2501 C2509 0.950 . S
H2502 C2507 0.950 . S
H2503 C2508 0.949 . S
H2504 C2510 0.950 . S
H2505 C2511 0.950 . S
H2506 C2512 0.949 . S
C2507 H2502 0.950 . S
C2507 C2509 1.327 . S
C2507 C2513 1.429 . S
C2508 C2500 1.574 . S
C2508 H2503 0.949 . S
C2508 C2514 1.368 . S
C2509 C2493 1.349 . S
C2509 H2501 0.950 . S
C2509 C2507 1.327 . S
C2510 C2498 1.349 . S
C2510 H2504 0.950 . S
C2510 C2511 1.327 . S
C2511 H2505 0.950 . S
C2511 C2510 1.327 . S
C2511 C2515 1.429 . S
C2512 C2495 1.574 . S
C2512 H2506 0.949 . S
C2512 C2516 1.368 . S
C2513 C2494 1.429 . S
C2513 C2507 1.429 . S
C2513 C2514 1.523 . S
C2514 C2495 1.368 . S
C2514 C2508 1.368 . S
C2514 C2513 1.523 . S
C2515 C2499 1.429 . S
C2515 C2511 1.429 . S
C2515 C2516 1.523 . S
C2516 C2500 1.368 . S
C2516 C2512 1.368 . S
C2516 C2515 1.523 . S
H2517 C2492 0.950 . S
H2518 C2494 0.950 . S
H2519 C2495 0.949 . S
H2520 C2497 0.950 . S
H2521 C2499 0.950 . S
C2522 C2523 1.349 . S
C2522 C2524 1.327 . S
C2522 H2547 0.950 . S
C2523 C2522 1.349 . S
C2523 C2539 1.349 . S
C2524 C2522 1.327 . S
C2524 C2543 1.429 . S
C2524 H2548 0.950 . S
C2525 C2542 1.574 . S
C2525 C2544 1.368 . S
C2525 H2549 0.949 . S
H2526 C2530 0.949 . S
C2527 C2528 1.349 . S
C2527 C2529 1.327 . S
C2527 H2550 0.950 . S
C2528 C2527 1.349 . S
C2528 C2540 1.349 . S
C2529 C2527 1.327 . S
C2529 C2545 1.429 . S
C2529 H2551 0.950 . S
C2530 H2526 0.949 . S
C2530 C2538 1.574 . S
C2530 C2546 1.368 . S
H2531 C2539 0.950 . S
H2532 C2537 0.950 . S
H2533 C2538 0.949 . S
H2534 C2540 0.950 . S
H2535 C2541 0.950 . S
H2536 C2542 0.949 . S
C2537 H2532 0.950 . S
C2537 C2539 1.327 . S
C2537 C2543 1.429 . S
C2538 C2530 1.574 . S
C2538 H2533 0.949 . S
C2538 C2544 1.368 . S
C2539 C2523 1.349 . S
C2539 H2531 0.950 . S
C2539 C2537 1.327 . S
C2540 C2528 1.349 . S
C2540 H2534 0.950 . S
C2540 C2541 1.327 . S
C2541 H2535 0.950 . S
C2541 C2540 1.327 . S
C2541 C2545 1.429 . S
C2542 C2525 1.574 . S
C2542 H2536 0.949 . S
C2542 C2546 1.368 . S
C2543 C2524 1.429 . S
C2543 C2537 1.429 . S
C2543 C2544 1.523 . S
C2544 C2525 1.368 . S
C2544 C2538 1.368 . S
C2544 C2543 1.523 . S
C2545 C2529 1.429 . S
C2545 C2541 1.429 . S
C2545 C2546 1.523 . S
C2546 C2530 1.368 . S
C2546 C2542 1.368 . S
C2546 C2545 1.523 . S
H2547 C2522 0.950 . S
H2548 C2524 0.950 . S
H2549 C2525 0.949 . S
H2550 C2527 0.950 . S
H2551 C2529 0.950 . S
C2552 C2553 1.349 . S
C2552 C2554 1.327 . S
C2552 H2577 0.950 . S
C2553 C2552 1.349 . S
C2553 C2569 1.349 . S
C2554 C2552 1.327 . S
C2554 C2573 1.429 . S
C2554 H2578 0.950 . S
C2555 C2572 1.574 . S
C2555 C2574 1.368 . S
C2555 H2579 0.949 . S
H2556 C2560 0.949 . S
C2557 C2558 1.349 . S
C2557 C2559 1.327 . S
C2557 H2580 0.950 . S
C2558 C2557 1.349 . S
C2558 C2570 1.349 . S
C2559 C2557 1.327 . S
C2559 C2575 1.429 . S
C2559 H2581 0.950 . S
C2560 H2556 0.949 . S
C2560 C2568 1.574 . S
C2560 C2576 1.368 . S
H2561 C2569 0.950 . S
H2562 C2567 0.950 . S
H2563 C2568 0.949 . S
H2564 C2570 0.950 . S
H2565 C2571 0.950 . S
H2566 C2572 0.949 . S
C2567 H2562 0.950 . S
C2567 C2569 1.327 . S
C2567 C2573 1.429 . S
C2568 C2560 1.574 . S
C2568 H2563 0.949 . S
C2568 C2574 1.368 . S
C2569 C2553 1.349 . S
C2569 H2561 0.950 . S
C2569 C2567 1.327 . S
C2570 C2558 1.349 . S
C2570 H2564 0.950 . S
C2570 C2571 1.327 . S
C2571 H2565 0.950 . S
C2571 C2570 1.327 . S
C2571 C2575 1.429 . S
C2572 C2555 1.574 . S
C2572 H2566 0.949 . S
C2572 C2576 1.368 . S
C2573 C2554 1.429 . S
C2573 C2567 1.429 . S
C2573 C2574 1.523 . S
C2574 C2555 1.368 . S
C2574 C2568 1.368 . S
C2574 C2573 1.523 . S
C2575 C2559 1.429 . S
C2575 C2571 1.429 . S
C2575 C2576 1.523 . S
C2576 C2560 1.368 . S
C2576 C2572 1.368 . S
C2576 C2575 1.523 . S
H2577 C2552 0.950 . S
H2578 C2554 0.950 . S
H2579 C2555 0.949 . S
H2580 C2557 0.950 . S
H2581 C2559 0.950 . S
C2582 C2583 1.349 . S
C2582 C2584 1.327 . S
C2582 H2607 0.950 . S
C2583 C2582 1.349 . S
C2583 C2599 1.349 . S
C2584 C2582 1.327 . S
C2584 C2603 1.429 . S
C2584 H2608 0.950 . S
C2585 C2602 1.574 . S
C2585 C2604 1.368 . S
C2585 H2609 0.949 . S
H2586 C2590 0.949 . S
C2587 C2588 1.349 . S
C2587 C2589 1.327 . S
C2587 H2610 0.950 . S
C2588 C2587 1.349 . S
C2588 C2600 1.349 . S
C2589 C2587 1.327 . S
C2589 C2605 1.429 . S
C2589 H2611 0.950 . S
C2590 H2586 0.949 . S
C2590 C2598 1.574 . S
C2590 C2606 1.368 . S
H2591 C2599 0.950 . S
H2592 C2597 0.950 . S
H2593 C2598 0.949 . S
H2594 C2600 0.950 . S
H2595 C2601 0.950 . S
H2596 C2602 0.949 . S
C2597 H2592 0.950 . S
C2597 C2599 1.327 . S
C2597 C2603 1.429 . S
C2598 C2590 1.574 . S
C2598 H2593 0.949 . S
C2598 C2604 1.368 . S
C2599 C2583 1.349 . S
C2599 H2591 0.950 . S
C2599 C2597 1.327 . S
C2600 C2588 1.349 . S
C2600 H2594 0.950 . S
C2600 C2601 1.327 . S
C2601 H2595 0.950 . S
C2601 C2600 1.327 . S
C2601 C2605 1.429 . S
C2602 C2585 1.574 . S
C2602 H2596 0.949 . S
C2602 C2606 1.368 . S
C2603 C2584 1.429 . S
C2603 C2597 1.429 . S
C2603 C2604 1.523 . S
C2604 C2585 1.368 . S
C2604 C2598 1.368 . S
C2604 C2603 1.523 . S
C2605 C2589 1.429 . S
C2605 C2601 1.429 . S
C2605 C2606 1.523 . S
C2606 C2590 1.368 . S
C2606 C2602 1.368 . S
C2606 C2605 1.523 . S
H2607 C2582 0.950 . S
H2608 C2584 0.950 . S
H2609 C2585 0.949 . S
H2610 C2587 0.950 . S
H2611 C2589 0.950 . S
C2612 C2613 1.349 . S
C2612 C2614 1.327 . S
C2612 H2637 0.950 . S
C2613 C2612 1.349 . S
C2613 C2629 1.349 . S
C2614 C2612 1.327 . S
C2614 C2633 1.429 . S
C2614 H2638 0.950 . S
C2615 C2632 1.574 . S
C2615 C2634 1.368 . S
C2615 H2639 0.949 . S
H2616 C2620 0.949 . S
C2617 C2618 1.349 . S
C2617 C2619 1.327 . S
C2617 H2640 0.950 . S
C2618 C2617 1.349 . S
C2618 C2630 1.349 . S
C2619 C2617 1.327 . S
C2619 C2635 1.429 . S
C2619 H2641 0.950 . S
C2620 H2616 0.949 . S
C2620 C2628 1.574 . S
C2620 C2636 1.368 . S
H2621 C2629 0.950 . S
H2622 C2627 0.950 . S
H2623 C2628 0.949 . S
H2624 C2630 0.950 . S
H2625 C2631 0.950 . S
H2626 C2632 0.949 . S
C2627 H2622 0.950 . S
C2627 C2629 1.327 . S
C2627 C2633 1.429 . S
C2628 C2620 1.574 . S
C2628 H2623 0.949 . S
C2628 C2634 1.368 . S
C2629 C2613 1.349 . S
C2629 H2621 0.950 . S
C2629 C2627 1.327 . S
C2630 C2618 1.349 . S
C2630 H2624 0.950 . S
C2630 C2631 1.327 . S
C2631 H2625 0.950 . S
C2631 C2630 1.327 . S
C2631 C2635 1.429 . S
C2632 C2615 1.574 . S
C2632 H2626 0.949 . S
C2632 C2636 1.368 . S
C2633 C2614 1.429 . S
C2633 C2627 1.429 . S
C2633 C2634 1.523 . S
C2634 C2615 1.368 . S
C2634 C2628 1.368 . S
C2634 C2633 1.523 . S
C2635 C2619 1.429 . S
C2635 C2631 1.429 . S
C2635 C2636 1.523 . S
C2636 C2620 1.368 . S
C2636 C2632 1.368 . S
C2636 C2635 1.523 . S
H2637 C2612 0.950 . S
H2638 C2614 0.950 . S
H2639 C2615 0.949 . S
H2640 C2617 0.950 . S
H2641 C2619 0.950 . S
C2642 C2643 1.349 . S
C2642 C2644 1.327 . S
C2642 H2667 0.950 . S
C2643 C2642 1.349 . S
C2643 C2659 1.349 . S
C2644 C2642 1.327 . S
C2644 C2663 1.429 . S
C2644 H2668 0.950 . S
C2645 C2662 1.574 . S
C2645 C2664 1.368 . S
C2645 H2669 0.949 . S
H2646 C2650 0.949 . S
C2647 C2648 1.349 . S
C2647 C2649 1.327 . S
C2647 H2670 0.950 . S
C2648 C2647 1.349 . S
C2648 C2660 1.349 . S
C2649 C2647 1.327 . S
C2649 C2665 1.429 . S
C2649 H2671 0.950 . S
C2650 H2646 0.949 . S
C2650 C2658 1.574 . S
C2650 C2666 1.368 . S
H2651 C2659 0.950 . S
H2652 C2657 0.950 . S
H2653 C2658 0.949 . S
H2654 C2660 0.950 . S
H2655 C2661 0.950 . S
H2656 C2662 0.949 . S
C2657 H2652 0.950 . S
C2657 C2659 1.327 . S
C2657 C2663 1.429 . S
C2658 C2650 1.574 . S
C2658 H2653 0.949 . S
C2658 C2664 1.368 . S
C2659 C2643 1.349 . S
C2659 H2651 0.950 . S
C2659 C2657 1.327 . S
C2660 C2648 1.349 . S
C2660 H2654 0.950 . S
C2660 C2661 1.327 . S
C2661 H2655 0.950 . S
C2661 C2660 1.327 . S
C2661 C2665 1.429 . S
C2662 C2645 1.574 . S
C2662 H2656 0.949 . S
C2662 C2666 1.368 . S
C2663 C2644 1.429 . S
C2663 C2657 1.429 . S
C2663 C2664 1.523 . S
C2664 C2645 1.368 . S
C2664 C2658 1.368 . S
C2664 C2663 1.523 . S
C2665 C2649 1.429 . S
C2665 C2661 1.429 . S
C2665 C2666 1.523 . S
C2666 C2650 1.368 . S
C2666 C2662 1.368 . S
C2666 C2665 1.523 . S
H2667 C2642 0.950 . S
H2668 C2644 0.950 . S
H2669 C2645 0.949 . S
H2670 C2647 0.950 . S
H2671 C2649 0.950 . S
C2672 C2673 1.349 . S
C2672 C2674 1.327 . S
C2672 H2697 0.950 . S
C2673 C2672 1.349 . S
C2673 C2689 1.349 . S
C2674 C2672 1.327 . S
C2674 C2693 1.429 . S
C2674 H2698 0.950 . S
C2675 C2692 1.574 . S
C2675 C2694 1.368 . S
C2675 H2699 0.949 . S
H2676 C2680 0.949 . S
C2677 C2678 1.349 . S
C2677 C2679 1.327 . S
C2677 H2700 0.950 . S
C2678 C2677 1.349 . S
C2678 C2690 1.349 . S
C2679 C2677 1.327 . S
C2679 C2695 1.429 . S
C2679 H2701 0.950 . S
C2680 H2676 0.949 . S
C2680 C2688 1.574 . S
C2680 C2696 1.368 . S
H2681 C2689 0.950 . S
H2682 C2687 0.950 . S
H2683 C2688 0.949 . S
H2684 C2690 0.950 . S
H2685 C2691 0.950 . S
H2686 C2692 0.949 . S
C2687 H2682 0.950 . S
C2687 C2689 1.327 . S
C2687 C2693 1.429 . S
C2688 C2680 1.574 . S
C2688 H2683 0.949 . S
C2688 C2694 1.368 . S
C2689 C2673 1.349 . S
C2689 H2681 0.950 . S
C2689 C2687 1.327 . S
C2690 C2678 1.349 . S
C2690 H2684 0.950 . S
C2690 C2691 1.327 . S
C2691 H2685 0.950 . S
C2691 C2690 1.327 . S
C2691 C2695 1.429 . S
C2692 C2675 1.574 . S
C2692 H2686 0.949 . S
C2692 C2696 1.368 . S
C2693 C2674 1.429 . S
C2693 C2687 1.429 . S
C2693 C2694 1.523 . S
C2694 C2675 1.368 . S
C2694 C2688 1.368 . S
C2694 C2693 1.523 . S
C2695 C2679 1.429 . S
C2695 C2691 1.429 . S
C2695 C2696 1.523 . S
C2696 C2680 1.368 . S
C2696 C2692 1.368 . S
C2696 C2695 1.523 . S
H2697 C2672 0.950 . S
H2698 C2674 0.950 . S
H2699 C2675 0.949 . S
H2700 C2677 0.950 . S
H2701 C2679 0.950 . S
C2702 C2703 1.349 . S
C2702 C2704 1.327 . S
C2702 H2727 0.950 . S
C2703 C2702 1.349 . S
C2703 C2719 1.349 . S
C2704 C2702 1.327 . S
C2704 C2723 1.429 . S
C2704 H2728 0.950 . S
C2705 C2722 1.574 . S
C2705 C2724 1.368 . S
C2705 H2729 0.949 . S
H2706 C2710 0.949 . S
C2707 C2708 1.349 . S
C2707 C2709 1.327 . S
C2707 H2730 0.950 . S
C2708 C2707 1.349 . S
C2708 C2720 1.349 . S
C2709 C2707 1.327 . S
C2709 C2725 1.429 . S
C2709 H2731 0.950 . S
C2710 H2706 0.949 . S
C2710 C2718 1.574 . S
C2710 C2726 1.368 . S
H2711 C2719 0.950 . S
H2712 C2717 0.950 . S
H2713 C2718 0.949 . S
H2714 C2720 0.950 . S
H2715 C2721 0.950 . S
H2716 C2722 0.949 . S
C2717 H2712 0.950 . S
C2717 C2719 1.327 . S
C2717 C2723 1.429 . S
C2718 C2710 1.574 . S
C2718 H2713 0.949 . S
C2718 C2724 1.368 . S
C2719 C2703 1.349 . S
C2719 H2711 0.950 . S
C2719 C2717 1.327 . S
C2720 C2708 1.349 . S
C2720 H2714 0.950 . S
C2720 C2721 1.327 . S
C2721 H2715 0.950 . S
C2721 C2720 1.327 . S
C2721 C2725 1.429 . S
C2722 C2705 1.574 . S
C2722 H2716 0.949 . S
C2722 C2726 1.368 . S
C2723 C2704 1.429 . S
C2723 C2717 1.429 . S
C2723 C2724 1.523 . S
C2724 C2705 1.368 . S
C2724 C2718 1.368 . S
C2724 C2723 1.523 . S
C2725 C2709 1.429 . S
C2725 C2721 1.429 . S
C2725 C2726 1.523 . S
C2726 C2710 1.368 . S
C2726 C2722 1.368 . S
C2726 C2725 1.523 . S
H2727 C2702 0.950 . S
H2728 C2704 0.950 . S
H2729 C2705 0.949 . S
H2730 C2707 0.950 . S
H2731 C2709 0.950 . S
C2732 C2733 1.349 . S
C2732 C2734 1.327 . S
C2732 H2757 0.950 . S
C2733 C2732 1.349 . S
C2733 C2749 1.349 . S
C2734 C2732 1.327 . S
C2734 C2753 1.429 . S
C2734 H2758 0.950 . S
C2735 C2752 1.574 . S
C2735 C2754 1.368 . S
C2735 H2759 0.949 . S
H2736 C2740 0.949 . S
C2737 C2738 1.349 . S
C2737 C2739 1.327 . S
C2737 H2760 0.950 . S
C2738 C2737 1.349 . S
C2738 C2750 1.349 . S
C2739 C2737 1.327 . S
C2739 C2755 1.429 . S
C2739 H2761 0.950 . S
C2740 H2736 0.949 . S
C2740 C2748 1.574 . S
C2740 C2756 1.368 . S
H2741 C2749 0.950 . S
H2742 C2747 0.950 . S
H2743 C2748 0.949 . S
H2744 C2750 0.950 . S
H2745 C2751 0.950 . S
H2746 C2752 0.949 . S
C2747 H2742 0.950 . S
C2747 C2749 1.327 . S
C2747 C2753 1.429 . S
C2748 C2740 1.574 . S
C2748 H2743 0.949 . S
C2748 C2754 1.368 . S
C2749 C2733 1.349 . S
C2749 H2741 0.950 . S
C2749 C2747 1.327 . S
C2750 C2738 1.349 . S
C2750 H2744 0.950 . S
C2750 C2751 1.327 . S
C2751 H2745 0.950 . S
C2751 C2750 1.327 . S
C2751 C2755 1.429 . S
C2752 C2735 1.574 . S
C2752 H2746 0.949 . S
C2752 C2756 1.368 . S
C2753 C2734 1.429 . S
C2753 C2747 1.429 . S
C2753 C2754 1.523 . S
C2754 C2735 1.368 . S
C2754 C2748 1.368 . S
C2754 C2753 1.523 . S
C2755 C2739 1.429 . S
C2755 C2751 1.429 . S
C2755 C2756 1.523 . S
C2756 C2740 1.368 . S
C2756 C2752 1.368 . S
C2756 C2755 1.523 . S
H2757 C2732 0.950 . S
H2758 C2734 0.950 . S
H2759 C2735 0.949 . S
H2760 C2737 0.950 . S
H2761 C2739 0.950 . S
C2762 C2763 1.349 . S
C2762 C2764 1.327 . S
C2762 H2787 0.950 . S
C2763 C2762 1.349 . S
C2763 C2779 1.349 . S
C2764 C2762 1.327 . S
C2764 C2783 1.429 . S
C2764 H2788 0.950 . S
C2765 C2782 1.574 . S
C2765 C2784 1.368 . S
C2765 H2789 0.949 . S
H2766 C2770 0.949 . S
C2767 C2768 1.349 . S
C2767 C2769 1.327 . S
C2767 H2790 0.950 . S
C2768 C2767 1.349 . S
C2768 C2780 1.349 . S
C2769 C2767 1.327 . S
C2769 C2785 1.429 . S
C2769 H2791 0.950 . S
C2770 H2766 0.949 . S
C2770 C2778 1.574 . S
C2770 C2786 1.368 . S
H2771 C2779 0.950 . S
H2772 C2777 0.950 . S
H2773 C2778 0.949 . S
H2774 C2780 0.950 . S
H2775 C2781 0.950 . S
H2776 C2782 0.949 . S
C2777 H2772 0.950 . S
C2777 C2779 1.327 . S
C2777 C2783 1.429 . S
C2778 C2770 1.574 . S
C2778 H2773 0.949 . S
C2778 C2784 1.368 . S
C2779 C2763 1.349 . S
C2779 H2771 0.950 . S
C2779 C2777 1.327 . S
C2780 C2768 1.349 . S
C2780 H2774 0.950 . S
C2780 C2781 1.327 . S
C2781 H2775 0.950 . S
C2781 C2780 1.327 . S
C2781 C2785 1.429 . S
C2782 C2765 1.574 . S
C2782 H2776 0.949 . S
C2782 C2786 1.368 . S
C2783 C2764 1.429 . S
C2783 C2777 1.429 . S
C2783 C2784 1.523 . S
C2784 C2765 1.368 . S
C2784 C2778 1.368 . S
C2784 C2783 1.523 . S
C2785 C2769 1.429 . S
C2785 C2781 1.429 . S
C2785 C2786 1.523 . S
C2786 C2770 1.368 . S
C2786 C2782 1.368 . S
C2786 C2785 1.523 . S
H2787 C2762 0.950 . S
H2788 C2764 0.950 . S
H2789 C2765 0.949 . S
H2790 C2767 0.950 . S
H2791 C2769 0.950 . S
C2792 C2793 1.349 . S
C2792 C2794 1.327 . S
C2792 H2817 0.950 . S
C2793 C2792 1.349 . S
C2793 C2809 1.349 . S
C2794 C2792 1.327 . S
C2794 C2813 1.429 . S
C2794 H2818 0.950 . S
C2795 C2812 1.574 . S
C2795 C2814 1.368 . S
C2795 H2819 0.949 . S
H2796 C2800 0.949 . S
C2797 C2798 1.349 . S
C2797 C2799 1.327 . S
C2797 H2820 0.950 . S
C2798 C2797 1.349 . S
C2798 C2810 1.349 . S
C2799 C2797 1.327 . S
C2799 C2815 1.429 . S
C2799 H2821 0.950 . S
C2800 H2796 0.949 . S
C2800 C2808 1.574 . S
C2800 C2816 1.368 . S
H2801 C2809 0.950 . S
H2802 C2807 0.950 . S
H2803 C2808 0.949 . S
H2804 C2810 0.950 . S
H2805 C2811 0.950 . S
H2806 C2812 0.949 . S
C2807 H2802 0.950 . S
C2807 C2809 1.327 . S
C2807 C2813 1.429 . S
C2808 C2800 1.574 . S
C2808 H2803 0.949 . S
C2808 C2814 1.368 . S
C2809 C2793 1.349 . S
C2809 H2801 0.950 . S
C2809 C2807 1.327 . S
C2810 C2798 1.349 . S
C2810 H2804 0.950 . S
C2810 C2811 1.327 . S
C2811 H2805 0.950 . S
C2811 C2810 1.327 . S
C2811 C2815 1.429 . S
C2812 C2795 1.574 . S
C2812 H2806 0.949 . S
C2812 C2816 1.368 . S
C2813 C2794 1.429 . S
C2813 C2807 1.429 . S
C2813 C2814 1.523 . S
C2814 C2795 1.368 . S
C2814 C2808 1.368 . S
C2814 C2813 1.523 . S
C2815 C2799 1.429 . S
C2815 C2811 1.429 . S
C2815 C2816 1.523 . S
C2816 C2800 1.368 . S
C2816 C2812 1.368 . S
C2816 C2815 1.523 . S
H2817 C2792 0.950 . S
H2818 C2794 0.950 . S
H2819 C2795 0.949 . S
H2820 C2797 0.950 . S
H2821 C2799 0.950 . S
C2822 C2823 1.349 . S
C2822 C2824 1.327 . S
C2822 H2847 0.950 . S
C2823 C2822 1.349 . S
C2823 C2839 1.349 . S
C2824 C2822 1.327 . S
C2824 C2843 1.429 . S
C2824 H2848 0.950 . S
C2825 C2842 1.574 . S
C2825 C2844 1.368 . S
C2825 H2849 0.949 . S
H2826 C2830 0.949 . S
C2827 C2828 1.349 . S
C2827 C2829 1.327 . S
C2827 H2850 0.950 . S
C2828 C2827 1.349 . S
C2828 C2840 1.349 . S
C2829 C2827 1.327 . S
C2829 C2845 1.429 . S
C2829 H2851 0.950 . S
C2830 H2826 0.949 . S
C2830 C2838 1.574 . S
C2830 C2846 1.368 . S
H2831 C2839 0.950 . S
H2832 C2837 0.950 . S
H2833 C2838 0.949 . S
H2834 C2840 0.950 . S
H2835 C2841 0.950 . S
H2836 C2842 0.949 . S
C2837 H2832 0.950 . S
C2837 C2839 1.327 . S
C2837 C2843 1.429 . S
C2838 C2830 1.574 . S
C2838 H2833 0.949 . S
C2838 C2844 1.368 . S
C2839 C2823 1.349 . S
C2839 H2831 0.950 . S
C2839 C2837 1.327 . S
C2840 C2828 1.349 . S
C2840 H2834 0.950 . S
C2840 C2841 1.327 . S
C2841 H2835 0.950 . S
C2841 C2840 1.327 . S
C2841 C2845 1.429 . S
C2842 C2825 1.574 . S
C2842 H2836 0.949 . S
C2842 C2846 1.368 . S
C2843 C2824 1.429 . S
C2843 C2837 1.429 . S
C2843 C2844 1.523 . S
C2844 C2825 1.368 . S
C2844 C2838 1.368 . S
C2844 C2843 1.523 . S
C2845 C2829 1.429 . S
C2845 C2841 1.429 . S
C2845 C2846 1.523 . S
C2846 C2830 1.368 . S
C2846 C2842 1.368 . S
C2846 C2845 1.523 . S
H2847 C2822 0.950 . S
H2848 C2824 0.950 . S
H2849 C2825 0.949 . S
H2850 C2827 0.950 . S
H2851 C2829 0.950 . S
C2852 C2853 1.349 . S
C2852 C2854 1.327 . S
C2852 H2877 0.950 . S
C2853 C2852 1.349 . S
C2853 C2869 1.349 . S
C2854 C2852 1.327 . S
C2854 C2873 1.429 . S
C2854 H2878 0.950 . S
C2855 C2872 1.574 . S
C2855 C2874 1.368 . S
C2855 H2879 0.949 . S
H2856 C2860 0.949 . S
C2857 C2858 1.349 . S
C2857 C2859 1.327 . S
C2857 H2880 0.950 . S
C2858 C2857 1.349 . S
C2858 C2870 1.349 . S
C2859 C2857 1.327 . S
C2859 C2875 1.429 . S
C2859 H2881 0.950 . S
C2860 H2856 0.949 . S
C2860 C2868 1.574 . S
C2860 C2876 1.368 . S
H2861 C2869 0.950 . S
H2862 C2867 0.950 . S
H2863 C2868 0.949 . S
H2864 C2870 0.950 . S
H2865 C2871 0.950 . S
H2866 C2872 0.949 . S
C2867 H2862 0.950 . S
C2867 C2869 1.327 . S
C2867 C2873 1.429 . S
C2868 C2860 1.574 . S
C2868 H2863 0.949 . S
C2868 C2874 1.368 . S
C2869 C2853 1.349 . S
C2869 H2861 0.950 . S
C2869 C2867 1.327 . S
C2870 C2858 1.349 . S
C2870 H2864 0.950 . S
C2870 C2871 1.327 . S
C2871 H2865 0.950 . S
C2871 C2870 1.327 . S
C2871 C2875 1.429 . S
C2872 C2855 1.574 . S
C2872 H2866 0.949 . S
C2872 C2876 1.368 . S
C2873 C2854 1.429 . S
C2873 C2867 1.429 . S
C2873 C2874 1.523 . S
C2874 C2855 1.368 . S
C2874 C2868 1.368 . S
C2874 C2873 1.523 . S
C2875 C2859 1.429 . S
C2875 C2871 1.429 . S
C2875 C2876 1.523 . S
C2876 C2860 1.368 . S
C2876 C2872 1.368 . S
C2876 C2875 1.523 . S
H2877 C2852 0.950 . S
H2878 C2854 0.950 . S
H2879 C2855 0.949 . S
H2880 C2857 0.950 . S
H2881 C2859 0.950 . S
C2882 C2883 1.349 . S
C2882 C2884 1.327 . S
C2882 H2907 0.950 . S
C2883 C2882 1.349 . S
C2883 C2899 1.349 . S
C2884 C2882 1.327 . S
C2884 C2903 1.429 . S
C2884 H2908 0.950 . S
C2885 C2902 1.574 . S
C2885 C2904 1.368 . S
C2885 H2909 0.949 . S
H2886 C2890 0.949 . S
C2887 C2888 1.349 . S
C2887 C2889 1.327 . S
C2887 H2910 0.950 . S
C2888 C2887 1.349 . S
C2888 C2900 1.349 . S
C2889 C2887 1.327 . S
C2889 C2905 1.429 . S
C2889 H2911 0.950 . S
C2890 H2886 0.949 . S
C2890 C2898 1.574 . S
C2890 C2906 1.368 . S
H2891 C2899 0.950 . S
H2892 C2897 0.950 . S
H2893 C2898 0.949 . S
H2894 C2900 0.950 . S
H2895 C2901 0.950 . S
H2896 C2902 0.949 . S
C2897 H2892 0.950 . S
C2897 C2899 1.327 . S
C2897 C2903 1.429 . S
C2898 C2890 1.574 . S
C2898 H2893 0.949 . S
C2898 C2904 1.368 . S
C2899 C2883 1.349 . S
C2899 H2891 0.950 . S
C2899 C2897 1.327 . S
C2900 C2888 1.349 . S
C2900 H2894 0.950 . S
C2900 C2901 1.327 . S
C2901 H2895 0.950 . S
C2901 C2900 1.327 . S
C2901 C2905 1.429 . S
C2902 C2885 1.574 . S
C2902 H2896 0.949 . S
C2902 C2906 1.368 . S
C2903 C2884 1.429 . S
C2903 C2897 1.429 . S
C2903 C2904 1.523 . S
C2904 C2885 1.368 . S
C2904 C2898 1.368 . S
C2904 C2903 1.523 . S
C2905 C2889 1.429 . S
C2905 C2901 1.429 . S
C2905 C2906 1.523 . S
C2906 C2890 1.368 . S
C2906 C2902 1.368 . S
C2906 C2905 1.523 . S
H2907 C2882 0.950 . S
H2908 C2884 0.950 . S
H2909 C2885 0.949 . S
H2910 C2887 0.950 . S
H2911 C2889 0.950 . S
C2912 C2913 1.349 . S
C2912 C2914 1.327 . S
C2912 H2937 0.950 . S
C2913 C2912 1.349 . S
C2913 C2929 1.349 . S
C2914 C2912 1.327 . S
C2914 C2933 1.429 . S
C2914 H2938 0.950 . S
C2915 C2932 1.574 . S
C2915 C2934 1.368 . S
C2915 H2939 0.949 . S
H2916 C2920 0.949 . S
C2917 C2918 1.349 . S
C2917 C2919 1.327 . S
C2917 H2940 0.950 . S
C2918 C2917 1.349 . S
C2918 C2930 1.349 . S
C2919 C2917 1.327 . S
C2919 C2935 1.429 . S
C2919 H2941 0.950 . S
C2920 H2916 0.949 . S
C2920 C2928 1.574 . S
C2920 C2936 1.368 . S
H2921 C2929 0.950 . S
H2922 C2927 0.950 . S
H2923 C2928 0.949 . S
H2924 C2930 0.950 . S
H2925 C2931 0.950 . S
H2926 C2932 0.949 . S
C2927 H2922 0.950 . S
C2927 C2929 1.327 . S
C2927 C2933 1.429 . S
C2928 C2920 1.574 . S
C2928 H2923 0.949 . S
C2928 C2934 1.368 . S
C2929 C2913 1.349 . S
C2929 H2921 0.950 . S
C2929 C2927 1.327 . S
C2930 C2918 1.349 . S
C2930 H2924 0.950 . S
C2930 C2931 1.327 . S
C2931 H2925 0.950 . S
C2931 C2930 1.327 . S
C2931 C2935 1.429 . S
C2932 C2915 1.574 . S
C2932 H2926 0.949 . S
C2932 C2936 1.368 . S
C2933 C2914 1.429 . S
C2933 C2927 1.429 . S
C2933 C2934 1.523 . S
C2934 C2915 1.368 . S
C2934 C2928 1.368 . S
C2934 C2933 1.523 . S
C2935 C2919 1.429 . S
C2935 C2931 1.429 . S
C2935 C2936 1.523 . S
C2936 C2920 1.368 . S
C2936 C2932 1.368 . S
C2936 C2935 1.523 . S
H2937 C2912 0.950 . S
H2938 C2914 0.950 . S
H2939 C2915 0.949 . S
H2940 C2917 0.950 . S
H2941 C2919 0.950 . S
C2942 C2943 1.349 . S
C2942 C2944 1.327 . S
C2942 H2967 0.950 . S
C2943 C2942 1.349 . S
C2943 C2959 1.349 . S
C2944 C2942 1.327 . S
C2944 C2963 1.429 . S
C2944 H2968 0.950 . S
C2945 C2962 1.574 . S
C2945 C2964 1.368 . S
C2945 H2969 0.949 . S
H2946 C2950 0.949 . S
C2947 C2948 1.349 . S
C2947 C2949 1.327 . S
C2947 H2970 0.950 . S
C2948 C2947 1.349 . S
C2948 C2960 1.349 . S
C2949 C2947 1.327 . S
C2949 C2965 1.429 . S
C2949 H2971 0.950 . S
C2950 H2946 0.949 . S
C2950 C2958 1.574 . S
C2950 C2966 1.368 . S
H2951 C2959 0.950 . S
H2952 C2957 0.950 . S
H2953 C2958 0.949 . S
H2954 C2960 0.950 . S
H2955 C2961 0.950 . S
H2956 C2962 0.949 . S
C2957 H2952 0.950 . S
C2957 C2959 1.327 . S
C2957 C2963 1.429 . S
C2958 C2950 1.574 . S
C2958 H2953 0.949 . S
C2958 C2964 1.368 . S
C2959 C2943 1.349 . S
C2959 H2951 0.950 . S
C2959 C2957 1.327 . S
C2960 C2948 1.349 . S
C2960 H2954 0.950 . S
C2960 C2961 1.327 . S
C2961 H2955 0.950 . S
C2961 C2960 1.327 . S
C2961 C2965 1.429 . S
C2962 C2945 1.574 . S
C2962 H2956 0.949 . S
C2962 C2966 1.368 . S
C2963 C2944 1.429 . S
C2963 C2957 1.429 . S
C2963 C2964 1.523 . S
C2964 C2945 1.368 . S
C2964 C2958 1.368 . S
C2964 C2963 1.523 . S
C2965 C2949 1.429 . S
C2965 C2961 1.429 . S
C2965 C2966 1.523 . S
C2966 C2950 1.368 . S
C2966 C2962 1.368 . S
C2966 C2965 1.523 . S
H2967 C2942 0.950 . S
H2968 C2944 0.950 . S
H2969 C2945 0.949 . S
H2970 C2947 0.950 . S
H2971 C2949 0.950 . S
C2972 C2973 1.349 . S
C2972 C2974 1.327 . S
C2972 H2997 0.950 . S
C2973 C2972 1.349 . S
C2973 C2989 1.349 . S
C2974 C2972 1.327 . S
C2974 C2993 1.429 . S
C2974 H2998 0.950 . S
C2975 C2992 1.574 . S
C2975 C2994 1.368 . S
C2975 H2999 0.949 . S
H2976 C2980 0.949 . S
C2977 C2978 1.349 . S
C2977 C2979 1.327 . S
C2977 H3000 0.950 . S
C2978 C2977 1.349 . S
C2978 C2990 1.349 . S
C2979 C2977 1.327 . S
C2979 C2995 1.429 . S
C2979 H3001 0.950 . S
C2980 H2976 0.949 . S
C2980 C2988 1.574 . S
C2980 C2996 1.368 . S
H2981 C2989 0.950 . S
H2982 C2987 0.950 . S
H2983 C2988 0.949 . S
H2984 C2990 0.950 . S
H2985 C2991 0.950 . S
H2986 C2992 0.949 . S
C2987 H2982 0.950 . S
C2987 C2989 1.327 . S
C2987 C2993 1.429 . S
C2988 C2980 1.574 . S
C2988 H2983 0.949 . S
C2988 C2994 1.368 . S
C2989 C2973 1.349 . S
C2989 H2981 0.950 . S
C2989 C2987 1.327 . S
C2990 C2978 1.349 . S
C2990 H2984 0.950 . S
C2990 C2991 1.327 . S
C2991 H2985 0.950 . S
C2991 C2990 1.327 . S
C2991 C2995 1.429 . S
C2992 C2975 1.574 . S
C2992 H2986 0.949 . S
C2992 C2996 1.368 . S
C2993 C2974 1.429 . S
C2993 C2987 1.429 . S
C2993 C2994 1.523 . S
C2994 C2975 1.368 . S
C2994 C2988 1.368 . S
C2994 C2993 1.523 . S
C2995 C2979 1.429 . S
C2995 C2991 1.429 . S
C2995 C2996 1.523 . S
C2996 C2980 1.368 . S
C2996 C2992 1.368 . S
C2996 C2995 1.523 . S
H2997 C2972 0.950 . S
H2998 C2974 0.950 . S
H2999 C2975 0.949 . S
H3000 C2977 0.950 . S
H3001 C2979 0.950 . S
C3002 C3003 1.349 . S
C3002 C3004 1.327 . S
C3002 H3027 0.950 . S
C3003 C3002 1.349 . S
C3003 C3019 1.349 . S
C3004 C3002 1.327 . S
C3004 C3023 1.429 . S
C3004 H3028 0.950 . S
C3005 C3022 1.574 . S
C3005 C3024 1.368 . S
C3005 H3029 0.949 . S
H3006 C3010 0.949 . S
C3007 C3008 1.349 . S
C3007 C3009 1.327 . S
C3007 H3030 0.950 . S
C3008 C3007 1.349 . S
C3008 C3020 1.349 . S
C3009 C3007 1.327 . S
C3009 C3025 1.429 . S
C3009 H3031 0.950 . S
C3010 H3006 0.949 . S
C3010 C3018 1.574 . S
C3010 C3026 1.368 . S
H3011 C3019 0.950 . S
H3012 C3017 0.950 . S
H3013 C3018 0.949 . S
H3014 C3020 0.950 . S
H3015 C3021 0.950 . S
H3016 C3022 0.949 . S
C3017 H3012 0.950 . S
C3017 C3019 1.327 . S
C3017 C3023 1.429 . S
C3018 C3010 1.574 . S
C3018 H3013 0.949 . S
C3018 C3024 1.368 . S
C3019 C3003 1.349 . S
C3019 H3011 0.950 . S
C3019 C3017 1.327 . S
C3020 C3008 1.349 . S
C3020 H3014 0.950 . S
C3020 C3021 1.327 . S
C3021 H3015 0.950 . S
C3021 C3020 1.327 . S
C3021 C3025 1.429 . S
C3022 C3005 1.574 . S
C3022 H3016 0.949 . S
C3022 C3026 1.368 . S
C3023 C3004 1.429 . S
C3023 C3017 1.429 . S
C3023 C3024 1.523 . S
C3024 C3005 1.368 . S
C3024 C3018 1.368 . S
C3024 C3023 1.523 . S
C3025 C3009 1.429 . S
C3025 C3021 1.429 . S
C3025 C3026 1.523 . S
C3026 C3010 1.368 . S
C3026 C3022 1.368 . S
C3026 C3025 1.523 . S
H3027 C3002 0.950 . S
H3028 C3004 0.950 . S
H3029 C3005 0.949 . S
H3030 C3007 0.950 . S
H3031 C3009 0.950 . S
C3032 C3033 1.349 . S
C3032 C3034 1.327 . S
C3032 H3057 0.950 . S
C3033 C3032 1.349 . S
C3033 C3049 1.349 . S
C3034 C3032 1.327 . S
C3034 C3053 1.429 . S
C3034 H3058 0.950 . S
C3035 C3052 1.574 . S
C3035 C3054 1.368 . S
C3035 H3059 0.949 . S
H3036 C3040 0.949 . S
C3037 C3038 1.349 . S
C3037 C3039 1.327 . S
C3037 H3060 0.950 . S
C3038 C3037 1.349 . S
C3038 C3050 1.349 . S
C3039 C3037 1.327 . S
C3039 C3055 1.429 . S
C3039 H3061 0.950 . S
C3040 H3036 0.949 . S
C3040 C3048 1.574 . S
C3040 C3056 1.368 . S
H3041 C3049 0.950 . S
H3042 C3047 0.950 . S
H3043 C3048 0.949 . S
H3044 C3050 0.950 . S
H3045 C3051 0.950 . S
H3046 C3052 0.949 . S
C3047 H3042 0.950 . S
C3047 C3049 1.327 . S
C3047 C3053 1.429 . S
C3048 C3040 1.574 . S
C3048 H3043 0.949 . S
C3048 C3054 1.368 . S
C3049 C3033 1.349 . S
C3049 H3041 0.950 . S
C3049 C3047 1.327 . S
C3050 C3038 1.349 . S
C3050 H3044 0.950 . S
C3050 C3051 1.327 . S
C3051 H3045 0.950 . S
C3051 C3050 1.327 . S
C3051 C3055 1.429 . S
C3052 C3035 1.574 . S
C3052 H3046 0.949 . S
C3052 C3056 1.368 . S
C3053 C3034 1.429 . S
C3053 C3047 1.429 . S
C3053 C3054 1.523 . S
C3054 C3035 1.368 . S
C3054 C3048 1.368 . S
C3054 C3053 1.523 . S
C3055 C3039 1.429 . S
C3055 C3051 1.429 . S
C3055 C3056 1.523 . S
C3056 C3040 1.368 . S
C3056 C3052 1.368 . S
C3056 C3055 1.523 . S
H3057 C3032 0.950 . S
H3058 C3034 0.950 . S
H3059 C3035 0.949 . S
H3060 C3037 0.950 . S
H3061 C3039 0.950 . S
C3062 C3063 1.349 . S
C3062 C3064 1.327 . S
C3062 H3087 0.950 . S
C3063 C3062 1.349 . S
C3063 C3079 1.349 . S
C3064 C3062 1.327 . S
C3064 C3083 1.429 . S
C3064 H3088 0.950 . S
C3065 C3082 1.574 . S
C3065 C3084 1.368 . S
C3065 H3089 0.949 . S
H3066 C3070 0.949 . S
C3067 C3068 1.349 . S
C3067 C3069 1.327 . S
C3067 H3090 0.950 . S
C3068 C3067 1.349 . S
C3068 C3080 1.349 . S
C3069 C3067 1.327 . S
C3069 C3085 1.429 . S
C3069 H3091 0.950 . S
C3070 H3066 0.949 . S
C3070 C3078 1.574 . S
C3070 C3086 1.368 . S
H3071 C3079 0.950 . S
H3072 C3077 0.950 . S
H3073 C3078 0.949 . S
H3074 C3080 0.950 . S
H3075 C3081 0.950 . S
H3076 C3082 0.949 . S
C3077 H3072 0.950 . S
C3077 C3079 1.327 . S
C3077 C3083 1.429 . S
C3078 C3070 1.574 . S
C3078 H3073 0.949 . S
C3078 C3084 1.368 . S
C3079 C3063 1.349 . S
C3079 H3071 0.950 . S
C3079 C3077 1.327 . S
C3080 C3068 1.349 . S
C3080 H3074 0.950 . S
C3080 C3081 1.327 . S
C3081 H3075 0.950 . S
C3081 C3080 1.327 . S
C3081 C3085 1.429 . S
C3082 C3065 1.574 . S
C3082 H3076 0.949 . S
C3082 C3086 1.368 . S
C3083 C3064 1.429 . S
C3083 C3077 1.429 . S
C3083 C3084 1.523 . S
C3084 C3065 1.368 . S
C3084 C3078 1.368 . S
C3084 C3083 1.523 . S
C3085 C3069 1.429 . S
C3085 C3081 1.429 . S
C3085 C3086 1.523 . S
C3086 C3070 1.368 . S
C3086 C3082 1.368 . S
C3086 C3085 1.523 . S
H3087 C3062 0.950 . S
H3088 C3064 0.950 . S
H3089 C3065 0.949 . S
H3090 C3067 0.950 . S
H3091 C3069 0.950 . S
C3092 C3093 1.349 . S
C3092 C3094 1.327 . S
C3092 H3117 0.950 . S
C3093 C3092 1.349 . S
C3093 C3109 1.349 . S
C3094 C3092 1.327 . S
C3094 C3113 1.429 . S
C3094 H3118 0.950 . S
C3095 C3112 1.574 . S
C3095 C3114 1.368 . S
C3095 H3119 0.949 . S
H3096 C3100 0.949 . S
C3097 C3098 1.349 . S
C3097 C3099 1.327 . S
C3097 H3120 0.950 . S
C3098 C3097 1.349 . S
C3098 C3110 1.349 . S
C3099 C3097 1.327 . S
C3099 C3115 1.429 . S
C3099 H3121 0.950 . S
C3100 H3096 0.949 . S
C3100 C3108 1.574 . S
C3100 C3116 1.368 . S
H3101 C3109 0.950 . S
H3102 C3107 0.950 . S
H3103 C3108 0.949 . S
H3104 C3110 0.950 . S
H3105 C3111 0.950 . S
H3106 C3112 0.949 . S
C3107 H3102 0.950 . S
C3107 C3109 1.327 . S
C3107 C3113 1.429 . S
C3108 C3100 1.574 . S
C3108 H3103 0.949 . S
C3108 C3114 1.368 . S
C3109 C3093 1.349 . S
C3109 H3101 0.950 . S
C3109 C3107 1.327 . S
C3110 C3098 1.349 . S
C3110 H3104 0.950 . S
C3110 C3111 1.327 . S
C3111 H3105 0.950 . S
C3111 C3110 1.327 . S
C3111 C3115 1.429 . S
C3112 C3095 1.574 . S
C3112 H3106 0.949 . S
C3112 C3116 1.368 . S
C3113 C3094 1.429 . S
C3113 C3107 1.429 . S
C3113 C3114 1.523 . S
C3114 C3095 1.368 . S
C3114 C3108 1.368 . S
C3114 C3113 1.523 . S
C3115 C3099 1.429 . S
C3115 C3111 1.429 . S
C3115 C3116 1.523 . S
C3116 C3100 1.368 . S
C3116 C3112 1.368 . S
C3116 C3115 1.523 . S
H3117 C3092 0.950 . S
H3118 C3094 0.950 . S
H3119 C3095 0.949 . S
H3120 C3097 0.950 . S
H3121 C3099 0.950 . S
C3122 C3123 1.349 . S
C3122 C3124 1.327 . S
C3122 H3147 0.950 . S
C3123 C3122 1.349 . S
C3123 C3139 1.349 . S
C3124 C3122 1.327 . S
C3124 C3143 1.429 . S
C3124 H3148 0.950 . S
C3125 C3142 1.574 . S
C3125 C3144 1.368 . S
C3125 H3149 0.949 . S
H3126 C3130 0.949 . S
C3127 C3128 1.349 . S
C3127 C3129 1.327 . S
C3127 H3150 0.950 . S
C3128 C3127 1.349 . S
C3128 C3140 1.349 . S
C3129 C3127 1.327 . S
C3129 C3145 1.429 . S
C3129 H3151 0.950 . S
C3130 H3126 0.949 . S
C3130 C3138 1.574 . S
C3130 C3146 1.368 . S
H3131 C3139 0.950 . S
H3132 C3137 0.950 . S
H3133 C3138 0.949 . S
H3134 C3140 0.950 . S
H3135 C3141 0.950 . S
H3136 C3142 0.949 . S
C3137 H3132 0.950 . S
C3137 C3139 1.327 . S
C3137 C3143 1.429 . S
C3138 C3130 1.574 . S
C3138 H3133 0.949 . S
C3138 C3144 1.368 . S
C3139 C3123 1.349 . S
C3139 H3131 0.950 . S
C3139 C3137 1.327 . S
C3140 C3128 1.349 . S
C3140 H3134 0.950 . S
C3140 C3141 1.327 . S
C3141 H3135 0.950 . S
C3141 C3140 1.327 . S
C3141 C3145 1.429 . S
C3142 C3125 1.574 . S
C3142 H3136 0.949 . S
C3142 C3146 1.368 . S
C3143 C3124 1.429 . S
C3143 C3137 1.429 . S
C3143 C3144 1.523 . S
C3144 C3125 1.368 . S
C3144 C3138 1.368 . S
C3144 C3143 1.523 . S
C3145 C3129 1.429 . S
C3145 C3141 1.429 . S
C3145 C3146 1.523 . S
C3146 C3130 1.368 . S
C3146 C3142 1.368 . S
C3146 C3145 1.523 . S
H3147 C3122 0.950 . S
H3148 C3124 0.950 . S
H3149 C3125 0.949 . S
H3150 C3127 0.950 . S
H3151 C3129 0.950 . S
C3152 C3153 1.349 . S
C3152 C3154 1.327 . S
C3152 H3177 0.950 . S
C3153 C3152 1.349 . S
C3153 C3169 1.349 . S
C3154 C3152 1.327 . S
C3154 C3173 1.429 . S
C3154 H3178 0.950 . S
C3155 C3172 1.574 . S
C3155 C3174 1.368 . S
C3155 H3179 0.949 . S
H3156 C3160 0.949 . S
C3157 C3158 1.349 . S
C3157 C3159 1.327 . S
C3157 H3180 0.950 . S
C3158 C3157 1.349 . S
C3158 C3170 1.349 . S
C3159 C3157 1.327 . S
C3159 C3175 1.429 . S
C3159 H3181 0.950 . S
C3160 H3156 0.949 . S
C3160 C3168 1.574 . S
C3160 C3176 1.368 . S
H3161 C3169 0.950 . S
H3162 C3167 0.950 . S
H3163 C3168 0.949 . S
H3164 C3170 0.950 . S
H3165 C3171 0.950 . S
H3166 C3172 0.949 . S
C3167 H3162 0.950 . S
C3167 C3169 1.327 . S
C3167 C3173 1.429 . S
C3168 C3160 1.574 . S
C3168 H3163 0.949 . S
C3168 C3174 1.368 . S
C3169 C3153 1.349 . S
C3169 H3161 0.950 . S
C3169 C3167 1.327 . S
C3170 C3158 1.349 . S
C3170 H3164 0.950 . S
C3170 C3171 1.327 . S
C3171 H3165 0.950 . S
C3171 C3170 1.327 . S
C3171 C3175 1.429 . S
C3172 C3155 1.574 . S
C3172 H3166 0.949 . S
C3172 C3176 1.368 . S
C3173 C3154 1.429 . S
C3173 C3167 1.429 . S
C3173 C3174 1.523 . S
C3174 C3155 1.368 . S
C3174 C3168 1.368 . S
C3174 C3173 1.523 . S
C3175 C3159 1.429 . S
C3175 C3171 1.429 . S
C3175 C3176 1.523 . S
C3176 C3160 1.368 . S
C3176 C3172 1.368 . S
C3176 C3175 1.523 . S
H3177 C3152 0.950 . S
H3178 C3154 0.950 . S
H3179 C3155 0.949 . S
H3180 C3157 0.950 . S
H3181 C3159 0.950 . S
C3182 C3183 1.349 . S
C3182 C3184 1.327 . S
C3182 H3207 0.950 . S
C3183 C3182 1.349 . S
C3183 C3199 1.349 . S
C3184 C3182 1.327 . S
C3184 C3203 1.429 . S
C3184 H3208 0.950 . S
C3185 C3202 1.574 . S
C3185 C3204 1.368 . S
C3185 H3209 0.949 . S
H3186 C3190 0.949 . S
C3187 C3188 1.349 . S
C3187 C3189 1.327 . S
C3187 H3210 0.950 . S
C3188 C3187 1.349 . S
C3188 C3200 1.349 . S
C3189 C3187 1.327 . S
C3189 C3205 1.429 . S
C3189 H3211 0.950 . S
C3190 H3186 0.949 . S
C3190 C3198 1.574 . S
C3190 C3206 1.368 . S
H3191 C3199 0.950 . S
H3192 C3197 0.950 . S
H3193 C3198 0.949 . S
H3194 C3200 0.950 . S
H3195 C3201 0.950 . S
H3196 C3202 0.949 . S
C3197 H3192 0.950 . S
C3197 C3199 1.327 . S
C3197 C3203 1.429 . S
C3198 C3190 1.574 . S
C3198 H3193 0.949 . S
C3198 C3204 1.368 . S
C3199 C3183 1.349 . S
C3199 H3191 0.950 . S
C3199 C3197 1.327 . S
C3200 C3188 1.349 . S
C3200 H3194 0.950 . S
C3200 C3201 1.327 . S
C3201 H3195 0.950 . S
C3201 C3200 1.327 . S
C3201 C3205 1.429 . S
C3202 C3185 1.574 . S
C3202 H3196 0.949 . S
C3202 C3206 1.368 . S
C3203 C3184 1.429 . S
C3203 C3197 1.429 . S
C3203 C3204 1.523 . S
C3204 C3185 1.368 . S
C3204 C3198 1.368 . S
C3204 C3203 1.523 . S
C3205 C3189 1.429 . S
C3205 C3201 1.429 . S
C3205 C3206 1.523 . S
C3206 C3190 1.368 . S
C3206 C3202 1.368 . S
C3206 C3205 1.523 . S
H3207 C3182 0.950 . S
H3208 C3184 0.950 . S
H3209 C3185 0.949 . S
H3210 C3187 0.950 . S
H3211 C3189 0.950 . S
C3212 C3213 1.349 . S
C3212 C3214 1.327 . S
C3212 H3237 0.950 . S
C3213 C3212 1.349 . S
C3213 C3229 1.349 . S
C3214 C3212 1.327 . S
C3214 C3233 1.429 . S
C3214 H3238 0.950 . S
C3215 C3232 1.574 . S
C3215 C3234 1.368 . S
C3215 H3239 0.949 . S
H3216 C3220 0.949 . S
C3217 C3218 1.349 . S
C3217 C3219 1.327 . S
C3217 H3240 0.950 . S
C3218 C3217 1.349 . S
C3218 C3230 1.349 . S
C3219 C3217 1.327 . S
C3219 C3235 1.429 . S
C3219 H3241 0.950 . S
C3220 H3216 0.949 . S
C3220 C3228 1.574 . S
C3220 C3236 1.368 . S
H3221 C3229 0.950 . S
H3222 C3227 0.950 . S
H3223 C3228 0.949 . S
H3224 C3230 0.950 . S
H3225 C3231 0.950 . S
H3226 C3232 0.949 . S
C3227 H3222 0.950 . S
C3227 C3229 1.327 . S
C3227 C3233 1.429 . S
C3228 C3220 1.574 . S
C3228 H3223 0.949 . S
C3228 C3234 1.368 . S
C3229 C3213 1.349 . S
C3229 H3221 0.950 . S
C3229 C3227 1.327 . S
C3230 C3218 1.349 . S
C3230 H3224 0.950 . S
C3230 C3231 1.327 . S
C3231 H3225 0.950 . S
C3231 C3230 1.327 . S
C3231 C3235 1.429 . S
C3232 C3215 1.574 . S
C3232 H3226 0.949 . S
C3232 C3236 1.368 . S
C3233 C3214 1.429 . S
C3233 C3227 1.429 . S
C3233 C3234 1.523 . S
C3234 C3215 1.368 . S
C3234 C3228 1.368 . S
C3234 C3233 1.523 . S
C3235 C3219 1.429 . S
C3235 C3231 1.429 . S
C3235 C3236 1.523 . S
C3236 C3220 1.368 . S
C3236 C3232 1.368 . S
C3236 C3235 1.523 . S
H3237 C3212 0.950 . S
H3238 C3214 0.950 . S
H3239 C3215 0.949 . S
H3240 C3217 0.950 . S
H3241 C3219 0.950 . S
C3242 C3243 1.349 . S
C3242 C3244 1.327 . S
C3242 H3267 0.950 . S
C3243 C3242 1.349 . S
C3243 C3259 1.349 . S
C3244 C3242 1.327 . S
C3244 C3263 1.429 . S
C3244 H3268 0.950 . S
C3245 C3262 1.574 . S
C3245 C3264 1.368 . S
C3245 H3269 0.949 . S
H3246 C3250 0.949 . S
C3247 C3248 1.349 . S
C3247 C3249 1.327 . S
C3247 H3270 0.950 . S
C3248 C3247 1.349 . S
C3248 C3260 1.349 . S
C3249 C3247 1.327 . S
C3249 C3265 1.429 . S
C3249 H3271 0.950 . S
C3250 H3246 0.949 . S
C3250 C3258 1.574 . S
C3250 C3266 1.368 . S
H3251 C3259 0.950 . S
H3252 C3257 0.950 . S
H3253 C3258 0.949 . S
H3254 C3260 0.950 . S
H3255 C3261 0.950 . S
H3256 C3262 0.949 . S
C3257 H3252 0.950 . S
C3257 C3259 1.327 . S
C3257 C3263 1.429 . S
C3258 C3250 1.574 . S
C3258 H3253 0.949 . S
C3258 C3264 1.368 . S
C3259 C3243 1.349 . S
C3259 H3251 0.950 . S
C3259 C3257 1.327 . S
C3260 C3248 1.349 . S
C3260 H3254 0.950 . S
C3260 C3261 1.327 . S
C3261 H3255 0.950 . S
C3261 C3260 1.327 . S
C3261 C3265 1.429 . S
C3262 C3245 1.574 . S
C3262 H3256 0.949 . S
C3262 C3266 1.368 . S
C3263 C3244 1.429 . S
C3263 C3257 1.429 . S
C3263 C3264 1.523 . S
C3264 C3245 1.368 . S
C3264 C3258 1.368 . S
C3264 C3263 1.523 . S
C3265 C3249 1.429 . S
C3265 C3261 1.429 . S
C3265 C3266 1.523 . S
C3266 C3250 1.368 . S
C3266 C3262 1.368 . S
C3266 C3265 1.523 . S
H3267 C3242 0.950 . S
H3268 C3244 0.950 . S
H3269 C3245 0.949 . S
H3270 C3247 0.950 . S
H3271 C3249 0.950 . S
C3272 C3273 1.349 . S
C3272 C3274 1.327 . S
C3272 H3297 0.950 . S
C3273 C3272 1.349 . S
C3273 C3289 1.349 . S
C3274 C3272 1.327 . S
C3274 C3293 1.429 . S
C3274 H3298 0.950 . S
C3275 C3292 1.574 . S
C3275 C3294 1.368 . S
C3275 H3299 0.949 . S
H3276 C3280 0.949 . S
C3277 C3278 1.349 . S
C3277 C3279 1.327 . S
C3277 H3300 0.950 . S
C3278 C3277 1.349 . S
C3278 C3290 1.349 . S
C3279 C3277 1.327 . S
C3279 C3295 1.429 . S
C3279 H3301 0.950 . S
C3280 H3276 0.949 . S
C3280 C3288 1.574 . S
C3280 C3296 1.368 . S
H3281 C3289 0.950 . S
H3282 C3287 0.950 . S
H3283 C3288 0.949 . S
H3284 C3290 0.950 . S
H3285 C3291 0.950 . S
H3286 C3292 0.949 . S
C3287 H3282 0.950 . S
C3287 C3289 1.327 . S
C3287 C3293 1.429 . S
C3288 C3280 1.574 . S
C3288 H3283 0.949 . S
C3288 C3294 1.368 . S
C3289 C3273 1.349 . S
C3289 H3281 0.950 . S
C3289 C3287 1.327 . S
C3290 C3278 1.349 . S
C3290 H3284 0.950 . S
C3290 C3291 1.327 . S
C3291 H3285 0.950 . S
C3291 C3290 1.327 . S
C3291 C3295 1.429 . S
C3292 C3275 1.574 . S
C3292 H3286 0.949 . S
C3292 C3296 1.368 . S
C3293 C3274 1.429 . S
C3293 C3287 1.429 . S
C3293 C3294 1.523 . S
C3294 C3275 1.368 . S
C3294 C3288 1.368 . S
C3294 C3293 1.523 . S
C3295 C3279 1.429 . S
C3295 C3291 1.429 . S
C3295 C3296 1.523 . S
C3296 C3280 1.368 . S
C3296 C3292 1.368 . S
C3296 C3295 1.523 . S
H3297 C3272 0.950 . S
H3298 C3274 0.950 . S
H3299 C3275 0.949 . S
H3300 C3277 0.950 . S
H3301 C3279 0.950 . S
C3302 C3303 1.349 . S
C3302 C3304 1.327 . S
C3302 H3327 0.950 . S
C3303 C3302 1.349 . S
C3303 C3319 1.349 . S
C3304 C3302 1.327 . S
C3304 C3323 1.429 . S
C3304 H3328 0.950 . S
C3305 C3322 1.574 . S
C3305 C3324 1.368 . S
C3305 H3329 0.949 . S
H3306 C3310 0.949 . S
C3307 C3308 1.349 . S
C3307 C3309 1.327 . S
C3307 H3330 0.950 . S
C3308 C3307 1.349 . S
C3308 C3320 1.349 . S
C3309 C3307 1.327 . S
C3309 C3325 1.429 . S
C3309 H3331 0.950 . S
C3310 H3306 0.949 . S
C3310 C3318 1.574 . S
C3310 C3326 1.368 . S
H3311 C3319 0.950 . S
H3312 C3317 0.950 . S
H3313 C3318 0.949 . S
H3314 C3320 0.950 . S
H3315 C3321 0.950 . S
H3316 C3322 0.949 . S
C3317 H3312 0.950 . S
C3317 C3319 1.327 . S
C3317 C3323 1.429 . S
C3318 C3310 1.574 . S
C3318 H3313 0.949 . S
C3318 C3324 1.368 . S
C3319 C3303 1.349 . S
C3319 H3311 0.950 . S
C3319 C3317 1.327 . S
C3320 C3308 1.349 . S
C3320 H3314 0.950 . S
C3320 C3321 1.327 . S
C3321 H3315 0.950 . S
C3321 C3320 1.327 . S
C3321 C3325 1.429 . S
C3322 C3305 1.574 . S
C3322 H3316 0.949 . S
C3322 C3326 1.368 . S
C3323 C3304 1.429 . S
C3323 C3317 1.429 . S
C3323 C3324 1.523 . S
C3324 C3305 1.368 . S
C3324 C3318 1.368 . S
C3324 C3323 1.523 . S
C3325 C3309 1.429 . S
C3325 C3321 1.429 . S
C3325 C3326 1.523 . S
C3326 C3310 1.368 . S
C3326 C3322 1.368 . S
C3326 C3325 1.523 . S
H3327 C3302 0.950 . S
H3328 C3304 0.950 . S
H3329 C3305 0.949 . S
H3330 C3307 0.950 . S
H3331 C3309 0.950 . S
C3332 C3333 1.349 . S
C3332 C3334 1.327 . S
C3332 H3357 0.950 . S
C3333 C3332 1.349 . S
C3333 C3349 1.349 . S
C3334 C3332 1.327 . S
C3334 C3353 1.429 . S
C3334 H3358 0.950 . S
C3335 C3352 1.574 . S
C3335 C3354 1.368 . S
C3335 H3359 0.949 . S
H3336 C3340 0.949 . S
C3337 C3338 1.349 . S
C3337 C3339 1.327 . S
C3337 H3360 0.950 . S
C3338 C3337 1.349 . S
C3338 C3350 1.349 . S
C3339 C3337 1.327 . S
C3339 C3355 1.429 . S
C3339 H3361 0.950 . S
C3340 H3336 0.949 . S
C3340 C3348 1.574 . S
C3340 C3356 1.368 . S
H3341 C3349 0.950 . S
H3342 C3347 0.950 . S
H3343 C3348 0.949 . S
H3344 C3350 0.950 . S
H3345 C3351 0.950 . S
H3346 C3352 0.949 . S
C3347 H3342 0.950 . S
C3347 C3349 1.327 . S
C3347 C3353 1.429 . S
C3348 C3340 1.574 . S
C3348 H3343 0.949 . S
C3348 C3354 1.368 . S
C3349 C3333 1.349 . S
C3349 H3341 0.950 . S
C3349 C3347 1.327 . S
C3350 C3338 1.349 . S
C3350 H3344 0.950 . S
C3350 C3351 1.327 . S
C3351 H3345 0.950 . S
C3351 C3350 1.327 . S
C3351 C3355 1.429 . S
C3352 C3335 1.574 . S
C3352 H3346 0.949 . S
C3352 C3356 1.368 . S
C3353 C3334 1.429 . S
C3353 C3347 1.429 . S
C3353 C3354 1.523 . S
C3354 C3335 1.368 . S
C3354 C3348 1.368 . S
C3354 C3353 1.523 . S
C3355 C3339 1.429 . S
C3355 C3351 1.429 . S
C3355 C3356 1.523 . S
C3356 C3340 1.368 . S
C3356 C3352 1.368 . S
C3356 C3355 1.523 . S
H3357 C3332 0.950 . S
H3358 C3334 0.950 . S
H3359 C3335 0.949 . S
H3360 C3337 0.950 . S
H3361 C3339 0.950 . S
C3362 C3363 1.349 . S
C3362 C3364 1.327 . S
C3362 H3387 0.950 . S
C3363 C3362 1.349 . S
C3363 C3379 1.349 . S
C3364 C3362 1.327 . S
C3364 C3383 1.429 . S
C3364 H3388 0.950 . S
C3365 C3382 1.574 . S
C3365 C3384 1.368 . S
C3365 H3389 0.949 . S
H3366 C3370 0.949 . S
C3367 C3368 1.349 . S
C3367 C3369 1.327 . S
C3367 H3390 0.950 . S
C3368 C3367 1.349 . S
C3368 C3380 1.349 . S
C3369 C3367 1.327 . S
C3369 C3385 1.429 . S
C3369 H3391 0.950 . S
C3370 H3366 0.949 . S
C3370 C3378 1.574 . S
C3370 C3386 1.368 . S
H3371 C3379 0.950 . S
H3372 C3377 0.950 . S
H3373 C3378 0.949 . S
H3374 C3380 0.950 . S
H3375 C3381 0.950 . S
H3376 C3382 0.949 . S
C3377 H3372 0.950 . S
C3377 C3379 1.327 . S
C3377 C3383 1.429 . S
C3378 C3370 1.574 . S
C3378 H3373 0.949 . S
C3378 C3384 1.368 . S
C3379 C3363 1.349 . S
C3379 H3371 0.950 . S
C3379 C3377 1.327 . S
C3380 C3368 1.349 . S
C3380 H3374 0.950 . S
C3380 C3381 1.327 . S
C3381 H3375 0.950 . S
C3381 C3380 1.327 . S
C3381 C3385 1.429 . S
C3382 C3365 1.574 . S
C3382 H3376 0.949 . S
C3382 C3386 1.368 . S
C3383 C3364 1.429 . S
C3383 C3377 1.429 . S
C3383 C3384 1.523 . S
C3384 C3365 1.368 . S
C3384 C3378 1.368 . S
C3384 C3383 1.523 . S
C3385 C3369 1.429 . S
C3385 C3381 1.429 . S
C3385 C3386 1.523 . S
C3386 C3370 1.368 . S
C3386 C3382 1.368 . S
C3386 C3385 1.523 . S
H3387 C3362 0.950 . S
H3388 C3364 0.950 . S
H3389 C3365 0.949 . S
H3390 C3367 0.950 . S
H3391 C3369 0.950 . S
C3392 C3393 1.349 . S
C3392 C3394 1.327 . S
C3392 H3417 0.950 . S
C3393 C3392 1.349 . S
C3393 C3409 1.349 . S
C3394 C3392 1.327 . S
C3394 C3413 1.429 . S
C3394 H3418 0.950 . S
C3395 C3412 1.574 . S
C3395 C3414 1.368 . S
C3395 H3419 0.949 . S
H3396 C3400 0.949 . S
C3397 C3398 1.349 . S
C3397 C3399 1.327 . S
C3397 H3420 0.950 . S
C3398 C3397 1.349 . S
C3398 C3410 1.349 . S
C3399 C3397 1.327 . S
C3399 C3415 1.429 . S
C3399 H3421 0.950 . S
C3400 H3396 0.949 . S
C3400 C3408 1.574 . S
C3400 C3416 1.368 . S
H3401 C3409 0.950 . S
H3402 C3407 0.950 . S
H3403 C3408 0.949 . S
H3404 C3410 0.950 . S
H3405 C3411 0.950 . S
H3406 C3412 0.949 . S
C3407 H3402 0.950 . S
C3407 C3409 1.327 . S
C3407 C3413 1.429 . S
C3408 C3400 1.574 . S
C3408 H3403 0.949 . S
C3408 C3414 1.368 . S
C3409 C3393 1.349 . S
C3409 H3401 0.950 . S
C3409 C3407 1.327 . S
C3410 C3398 1.349 . S
C3410 H3404 0.950 . S
C3410 C3411 1.327 . S
C3411 H3405 0.950 . S
C3411 C3410 1.327 . S
C3411 C3415 1.429 . S
C3412 C3395 1.574 . S
C3412 H3406 0.949 . S
C3412 C3416 1.368 . S
C3413 C3394 1.429 . S
C3413 C3407 1.429 . S
C3413 C3414 1.523 . S
C3414 C3395 1.368 . S
C3414 C3408 1.368 . S
C3414 C3413 1.523 . S
C3415 C3399 1.429 . S
C3415 C3411 1.429 . S
C3415 C3416 1.523 . S
C3416 C3400 1.368 . S
C3416 C3412 1.368 . S
C3416 C3415 1.523 . S
H3417 C3392 0.950 . S
H3418 C3394 0.950 . S
H3419 C3395 0.949 . S
H3420 C3397 0.950 . S
H3421 C3399 0.950 . S
C3422 C3423 1.349 . S
C3422 C3424 1.327 . S
C3422 H3447 0.950 . S
C3423 C3422 1.349 . S
C3423 C3439 1.349 . S
C3424 C3422 1.327 . S
C3424 C3443 1.429 . S
C3424 H3448 0.950 . S
C3425 C3442 1.574 . S
C3425 C3444 1.368 . S
C3425 H3449 0.949 . S
H3426 C3430 0.949 . S
C3427 C3428 1.349 . S
C3427 C3429 1.327 . S
C3427 H3450 0.950 . S
C3428 C3427 1.349 . S
C3428 C3440 1.349 . S
C3429 C3427 1.327 . S
C3429 C3445 1.429 . S
C3429 H3451 0.950 . S
C3430 H3426 0.949 . S
C3430 C3438 1.574 . S
C3430 C3446 1.368 . S
H3431 C3439 0.950 . S
H3432 C3437 0.950 . S
H3433 C3438 0.949 . S
H3434 C3440 0.950 . S
H3435 C3441 0.950 . S
H3436 C3442 0.949 . S
C3437 H3432 0.950 . S
C3437 C3439 1.327 . S
C3437 C3443 1.429 . S
C3438 C3430 1.574 . S
C3438 H3433 0.949 . S
C3438 C3444 1.368 . S
C3439 C3423 1.349 . S
C3439 H3431 0.950 . S
C3439 C3437 1.327 . S
C3440 C3428 1.349 . S
C3440 H3434 0.950 . S
C3440 C3441 1.327 . S
C3441 H3435 0.950 . S
C3441 C3440 1.327 . S
C3441 C3445 1.429 . S
C3442 C3425 1.574 . S
C3442 H3436 0.949 . S
C3442 C3446 1.368 . S
C3443 C3424 1.429 . S
C3443 C3437 1.429 . S
C3443 C3444 1.523 . S
C3444 C3425 1.368 . S
C3444 C3438 1.368 . S
C3444 C3443 1.523 . S
C3445 C3429 1.429 . S
C3445 C3441 1.429 . S
C3445 C3446 1.523 . S
C3446 C3430 1.368 . S
C3446 C3442 1.368 . S
C3446 C3445 1.523 . S
H3447 C3422 0.950 . S
H3448 C3424 0.950 . S
H3449 C3425 0.949 . S
H3450 C3427 0.950 . S
H3451 C3429 0.950 . S
C3452 C3453 1.349 . S
C3452 C3454 1.327 . S
C3452 H3477 0.950 . S
C3453 C3452 1.349 . S
C3453 C3469 1.349 . S
C3454 C3452 1.327 . S
C3454 C3473 1.429 . S
C3454 H3478 0.950 . S
C3455 C3472 1.574 . S
C3455 C3474 1.368 . S
C3455 H3479 0.949 . S
H3456 C3460 0.949 . S
C3457 C3458 1.349 . S
C3457 C3459 1.327 . S
C3457 H3480 0.950 . S
C3458 C3457 1.349 . S
C3458 C3470 1.349 . S
C3459 C3457 1.327 . S
C3459 C3475 1.429 . S
C3459 H3481 0.950 . S
C3460 H3456 0.949 . S
C3460 C3468 1.574 . S
C3460 C3476 1.368 . S
H3461 C3469 0.950 . S
H3462 C3467 0.950 . S
H3463 C3468 0.949 . S
H3464 C3470 0.950 . S
H3465 C3471 0.950 . S
H3466 C3472 0.949 . S
C3467 H3462 0.950 . S
C3467 C3469 1.327 . S
C3467 C3473 1.429 . S
C3468 C3460 1.574 . S
C3468 H3463 0.949 . S
C3468 C3474 1.368 . S
C3469 C3453 1.349 . S
C3469 H3461 0.950 . S
C3469 C3467 1.327 . S
C3470 C3458 1.349 . S
C3470 H3464 0.950 . S
C3470 C3471 1.327 . S
C3471 H3465 0.950 . S
C3471 C3470 1.327 . S
C3471 C3475 1.429 . S
C3472 C3455 1.574 . S
C3472 H3466 0.949 . S
C3472 C3476 1.368 . S
C3473 C3454 1.429 . S
C3473 C3467 1.429 . S
C3473 C3474 1.523 . S
C3474 C3455 1.368 . S
C3474 C3468 1.368 . S
C3474 C3473 1.523 . S
C3475 C3459 1.429 . S
C3475 C3471 1.429 . S
C3475 C3476 1.523 . S
C3476 C3460 1.368 . S
C3476 C3472 1.368 . S
C3476 C3475 1.523 . S
H3477 C3452 0.950 . S
H3478 C3454 0.950 . S
H3479 C3455 0.949 . S
H3480 C3457 0.950 . S
H3481 C3459 0.950 . S
C3482 C3483 1.349 . S
C3482 C3484 1.327 . S
C3482 H3507 0.950 . S
C3483 C3482 1.349 . S
C3483 C3499 1.349 . S
C3484 C3482 1.327 . S
C3484 C3503 1.429 . S
C3484 H3508 0.950 . S
C3485 C3502 1.574 . S
C3485 C3504 1.368 . S
C3485 H3509 0.949 . S
H3486 C3490 0.949 . S
C3487 C3488 1.349 . S
C3487 C3489 1.327 . S
C3487 H3510 0.950 . S
C3488 C3487 1.349 . S
C3488 C3500 1.349 . S
C3489 C3487 1.327 . S
C3489 C3505 1.429 . S
C3489 H3511 0.950 . S
C3490 H3486 0.949 . S
C3490 C3498 1.574 . S
C3490 C3506 1.368 . S
H3491 C3499 0.950 . S
H3492 C3497 0.950 . S
H3493 C3498 0.949 . S
H3494 C3500 0.950 . S
H3495 C3501 0.950 . S
H3496 C3502 0.949 . S
C3497 H3492 0.950 . S
C3497 C3499 1.327 . S
C3497 C3503 1.429 . S
C3498 C3490 1.574 . S
C3498 H3493 0.949 . S
C3498 C3504 1.368 . S
C3499 C3483 1.349 . S
C3499 H3491 0.950 . S
C3499 C3497 1.327 . S
C3500 C3488 1.349 . S
C3500 H3494 0.950 . S
C3500 C3501 1.327 . S
C3501 H3495 0.950 . S
C3501 C3500 1.327 . S
C3501 C3505 1.429 . S
C3502 C3485 1.574 . S
C3502 H3496 0.949 . S
C3502 C3506 1.368 . S
C3503 C3484 1.429 . S
C3503 C3497 1.429 . S
C3503 C3504 1.523 . S
C3504 C3485 1.368 . S
C3504 C3498 1.368 . S
C3504 C3503 1.523 . S
C3505 C3489 1.429 . S
C3505 C3501 1.429 . S
C3505 C3506 1.523 . S
C3506 C3490 1.368 . S
C3506 C3502 1.368 . S
C3506 C3505 1.523 . S
H3507 C3482 0.950 . S
H3508 C3484 0.950 . S
H3509 C3485 0.949 . S
H3510 C3487 0.950 . S
H3511 C3489 0.950 . S
C3512 C3513 1.349 . S
C3512 C3514 1.327 . S
C3512 H3537 0.950 . S
C3513 C3512 1.349 . S
C3513 C3529 1.349 . S
C3514 C3512 1.327 . S
C3514 C3533 1.429 . S
C3514 H3538 0.950 . S
C3515 C3532 1.574 . S
C3515 C3534 1.368 . S
C3515 H3539 0.949 . S
H3516 C3520 0.949 . S
C3517 C3518 1.349 . S
C3517 C3519 1.327 . S
C3517 H3540 0.950 . S
C3518 C3517 1.349 . S
C3518 C3530 1.349 . S
C3519 C3517 1.327 . S
C3519 C3535 1.429 . S
C3519 H3541 0.950 . S
C3520 H3516 0.949 . S
C3520 C3528 1.574 . S
C3520 C3536 1.368 . S
H3521 C3529 0.950 . S
H3522 C3527 0.950 . S
H3523 C3528 0.949 . S
H3524 C3530 0.950 . S
H3525 C3531 0.950 . S
H3526 C3532 0.949 . S
C3527 H3522 0.950 . S
C3527 C3529 1.327 . S
C3527 C3533 1.429 . S
C3528 C3520 1.574 . S
C3528 H3523 0.949 . S
C3528 C3534 1.368 . S
C3529 C3513 1.349 . S
C3529 H3521 0.950 . S
C3529 C3527 1.327 . S
C3530 C3518 1.349 . S
C3530 H3524 0.950 . S
C3530 C3531 1.327 . S
C3531 H3525 0.950 . S
C3531 C3530 1.327 . S
C3531 C3535 1.429 . S
C3532 C3515 1.574 . S
C3532 H3526 0.949 . S
C3532 C3536 1.368 . S
C3533 C3514 1.429 . S
C3533 C3527 1.429 . S
C3533 C3534 1.523 . S
C3534 C3515 1.368 . S
C3534 C3528 1.368 . S
C3534 C3533 1.523 . S
C3535 C3519 1.429 . S
C3535 C3531 1.429 . S
C3535 C3536 1.523 . S
C3536 C3520 1.368 . S
C3536 C3532 1.368 . S
C3536 C3535 1.523 . S
H3537 C3512 0.950 . S
H3538 C3514 0.950 . S
H3539 C3515 0.949 . S
H3540 C3517 0.950 . S
H3541 C3519 0.950 . S
C3542 C3543 1.349 . S
C3542 C3544 1.327 . S
C3542 H3567 0.950 . S
C3543 C3542 1.349 . S
C3543 C3559 1.349 . S
C3544 C3542 1.327 . S
C3544 C3563 1.429 . S
C3544 H3568 0.950 . S
C3545 C3562 1.574 . S
C3545 C3564 1.368 . S
C3545 H3569 0.949 . S
H3546 C3550 0.949 . S
C3547 C3548 1.349 . S
C3547 C3549 1.327 . S
C3547 H3570 0.950 . S
C3548 C3547 1.349 . S
C3548 C3560 1.349 . S
C3549 C3547 1.327 . S
C3549 C3565 1.429 . S
C3549 H3571 0.950 . S
C3550 H3546 0.949 . S
C3550 C3558 1.574 . S
C3550 C3566 1.368 . S
H3551 C3559 0.950 . S
H3552 C3557 0.950 . S
H3553 C3558 0.949 . S
H3554 C3560 0.950 . S
H3555 C3561 0.950 . S
H3556 C3562 0.949 . S
C3557 H3552 0.950 . S
C3557 C3559 1.327 . S
C3557 C3563 1.429 . S
C3558 C3550 1.574 . S
C3558 H3553 0.949 . S
C3558 C3564 1.368 . S
C3559 C3543 1.349 . S
C3559 H3551 0.950 . S
C3559 C3557 1.327 . S
C3560 C3548 1.349 . S
C3560 H3554 0.950 . S
C3560 C3561 1.327 . S
C3561 H3555 0.950 . S
C3561 C3560 1.327 . S
C3561 C3565 1.429 . S
C3562 C3545 1.574 . S
C3562 H3556 0.949 . S
C3562 C3566 1.368 . S
C3563 C3544 1.429 . S
C3563 C3557 1.429 . S
C3563 C3564 1.523 . S
C3564 C3545 1.368 . S
C3564 C3558 1.368 . S
C3564 C3563 1.523 . S
C3565 C3549 1.429 . S
C3565 C3561 1.429 . S
C3565 C3566 1.523 . S
C3566 C3550 1.368 . S
C3566 C3562 1.368 . S
C3566 C3565 1.523 . S
H3567 C3542 0.950 . S
H3568 C3544 0.950 . S
H3569 C3545 0.949 . S
H3570 C3547 0.950 . S
H3571 C3549 0.950 . S
C3572 C3573 1.349 . S
C3572 C3574 1.327 . S
C3572 H3597 0.950 . S
C3573 C3572 1.349 . S
C3573 C3589 1.349 . S
C3574 C3572 1.327 . S
C3574 C3593 1.429 . S
C3574 H3598 0.950 . S
C3575 C3592 1.574 . S
C3575 C3594 1.368 . S
C3575 H3599 0.949 . S
H3576 C3580 0.949 . S
C3577 C3578 1.349 . S
C3577 C3579 1.327 . S
C3577 H3600 0.950 . S
C3578 C3577 1.349 . S
C3578 C3590 1.349 . S
C3579 C3577 1.327 . S
C3579 C3595 1.429 . S
C3579 H3601 0.950 . S
C3580 H3576 0.949 . S
C3580 C3588 1.574 . S
C3580 C3596 1.368 . S
H3581 C3589 0.950 . S
H3582 C3587 0.950 . S
H3583 C3588 0.949 . S
H3584 C3590 0.950 . S
H3585 C3591 0.950 . S
H3586 C3592 0.949 . S
C3587 H3582 0.950 . S
C3587 C3589 1.327 . S
C3587 C3593 1.429 . S
C3588 C3580 1.574 . S
C3588 H3583 0.949 . S
C3588 C3594 1.368 . S
C3589 C3573 1.349 . S
C3589 H3581 0.950 . S
C3589 C3587 1.327 . S
C3590 C3578 1.349 . S
C3590 H3584 0.950 . S
C3590 C3591 1.327 . S
C3591 H3585 0.950 . S
C3591 C3590 1.327 . S
C3591 C3595 1.429 . S
C3592 C3575 1.574 . S
C3592 H3586 0.949 . S
C3592 C3596 1.368 . S
C3593 C3574 1.429 . S
C3593 C3587 1.429 . S
C3593 C3594 1.523 . S
C3594 C3575 1.368 . S
C3594 C3588 1.368 . S
C3594 C3593 1.523 . S
C3595 C3579 1.429 . S
C3595 C3591 1.429 . S
C3595 C3596 1.523 . S
C3596 C3580 1.368 . S
C3596 C3592 1.368 . S
C3596 C3595 1.523 . S
H3597 C3572 0.950 . S
H3598 C3574 0.950 . S
H3599 C3575 0.949 . S
H3600 C3577 0.950 . S
H3601 C3579 0.950 . S
C3602 C3603 1.349 . S
C3602 C3604 1.327 . S
C3602 H3627 0.950 . S
C3603 C3602 1.349 . S
C3603 C3619 1.349 . S
C3604 C3602 1.327 . S
C3604 C3623 1.429 . S
C3604 H3628 0.950 . S
C3605 C3622 1.574 . S
C3605 C3624 1.368 . S
C3605 H3629 0.949 . S
H3606 C3610 0.949 . S
C3607 C3608 1.349 . S
C3607 C3609 1.327 . S
C3607 H3630 0.950 . S
C3608 C3607 1.349 . S
C3608 C3620 1.349 . S
C3609 C3607 1.327 . S
C3609 C3625 1.429 . S
C3609 H3631 0.950 . S
C3610 H3606 0.949 . S
C3610 C3618 1.574 . S
C3610 C3626 1.368 . S
H3611 C3619 0.950 . S
H3612 C3617 0.950 . S
H3613 C3618 0.949 . S
H3614 C3620 0.950 . S
H3615 C3621 0.950 . S
H3616 C3622 0.949 . S
C3617 H3612 0.950 . S
C3617 C3619 1.327 . S
C3617 C3623 1.429 . S
C3618 C3610 1.574 . S
C3618 H3613 0.949 . S
C3618 C3624 1.368 . S
C3619 C3603 1.349 . S
C3619 H3611 0.950 . S
C3619 C3617 1.327 . S
C3620 C3608 1.349 . S
C3620 H3614 0.950 . S
C3620 C3621 1.327 . S
C3621 H3615 0.950 . S
C3621 C3620 1.327 . S
C3621 C3625 1.429 . S
C3622 C3605 1.574 . S
C3622 H3616 0.949 . S
C3622 C3626 1.368 . S
C3623 C3604 1.429 . S
C3623 C3617 1.429 . S
C3623 C3624 1.523 . S
C3624 C3605 1.368 . S
C3624 C3618 1.368 . S
C3624 C3623 1.523 . S
C3625 C3609 1.429 . S
C3625 C3621 1.429 . S
C3625 C3626 1.523 . S
C3626 C3610 1.368 . S
C3626 C3622 1.368 . S
C3626 C3625 1.523 . S
H3627 C3602 0.950 . S
H3628 C3604 0.950 . S
H3629 C3605 0.949 . S
H3630 C3607 0.950 . S
H3631 C3609 0.950 . S
C3632 C3633 1.349 . S
C3632 C3634 1.327 . S
C3632 H3657 0.950 . S
C3633 C3632 1.349 . S
C3633 C3649 1.349 . S
C3634 C3632 1.327 . S
C3634 C3653 1.429 . S
C3634 H3658 0.950 . S
C3635 C3652 1.574 . S
C3635 C3654 1.368 . S
C3635 H3659 0.949 . S
H3636 C3640 0.949 . S
C3637 C3638 1.349 . S
C3637 C3639 1.327 . S
C3637 H3660 0.950 . S
C3638 C3637 1.349 . S
C3638 C3650 1.349 . S
C3639 C3637 1.327 . S
C3639 C3655 1.429 . S
C3639 H3661 0.950 . S
C3640 H3636 0.949 . S
C3640 C3648 1.574 . S
C3640 C3656 1.368 . S
H3641 C3649 0.950 . S
H3642 C3647 0.950 . S
H3643 C3648 0.949 . S
H3644 C3650 0.950 . S
H3645 C3651 0.950 . S
H3646 C3652 0.949 . S
C3647 H3642 0.950 . S
C3647 C3649 1.327 . S
C3647 C3653 1.429 . S
C3648 C3640 1.574 . S
C3648 H3643 0.949 . S
C3648 C3654 1.368 . S
C3649 C3633 1.349 . S
C3649 H3641 0.950 . S
C3649 C3647 1.327 . S
C3650 C3638 1.349 . S
C3650 H3644 0.950 . S
C3650 C3651 1.327 . S
C3651 H3645 0.950 . S
C3651 C3650 1.327 . S
C3651 C3655 1.429 . S
C3652 C3635 1.574 . S
C3652 H3646 0.949 . S
C3652 C3656 1.368 . S
C3653 C3634 1.429 . S
C3653 C3647 1.429 . S
C3653 C3654 1.523 . S
C3654 C3635 1.368 . S
C3654 C3648 1.368 . S
C3654 C3653 1.523 . S
C3655 C3639 1.429 . S
C3655 C3651 1.429 . S
C3655 C3656 1.523 . S
C3656 C3640 1.368 . S
C3656 C3652 1.368 . S
C3656 C3655 1.523 . S
H3657 C3632 0.950 . S
H3658 C3634 0.950 . S
H3659 C3635 0.949 . S
H3660 C3637 0.950 . S
H3661 C3639 0.950 . S
C3662 C3663 1.349 . S
C3662 C3664 1.327 . S
C3662 H3687 0.950 . S
C3663 C3662 1.349 . S
C3663 C3679 1.349 . S
C3664 C3662 1.327 . S
C3664 C3683 1.429 . S
C3664 H3688 0.950 . S
C3665 C3682 1.574 . S
C3665 C3684 1.368 . S
C3665 H3689 0.949 . S
H3666 C3670 0.949 . S
C3667 C3668 1.349 . S
C3667 C3669 1.327 . S
C3667 H3690 0.950 . S
C3668 C3667 1.349 . S
C3668 C3680 1.349 . S
C3669 C3667 1.327 . S
C3669 C3685 1.429 . S
C3669 H3691 0.950 . S
C3670 H3666 0.949 . S
C3670 C3678 1.574 . S
C3670 C3686 1.368 . S
H3671 C3679 0.950 . S
H3672 C3677 0.950 . S
H3673 C3678 0.949 . S
H3674 C3680 0.950 . S
H3675 C3681 0.950 . S
H3676 C3682 0.949 . S
C3677 H3672 0.950 . S
C3677 C3679 1.327 . S
C3677 C3683 1.429 . S
C3678 C3670 1.574 . S
C3678 H3673 0.949 . S
C3678 C3684 1.368 . S
C3679 C3663 1.349 . S
C3679 H3671 0.950 . S
C3679 C3677 1.327 . S
C3680 C3668 1.349 . S
C3680 H3674 0.950 . S
C3680 C3681 1.327 . S
C3681 H3675 0.950 . S
C3681 C3680 1.327 . S
C3681 C3685 1.429 . S
C3682 C3665 1.574 . S
C3682 H3676 0.949 . S
C3682 C3686 1.368 . S
C3683 C3664 1.429 . S
C3683 C3677 1.429 . S
C3683 C3684 1.523 . S
C3684 C3665 1.368 . S
C3684 C3678 1.368 . S
C3684 C3683 1.523 . S
C3685 C3669 1.429 . S
C3685 C3681 1.429 . S
C3685 C3686 1.523 . S
C3686 C3670 1.368 . S
C3686 C3682 1.368 . S
C3686 C3685 1.523 . S
H3687 C3662 0.950 . S
H3688 C3664 0.950 . S
H3689 C3665 0.949 . S
H3690 C3667 0.950 . S
H3691 C3669 0.950 . S
C3692 C3693 1.349 . S
C3692 C3694 1.327 . S
C3692 H3717 0.950 . S
C3693 C3692 1.349 . S
C3693 C3709 1.349 . S
C3694 C3692 1.327 . S
C3694 C3713 1.429 . S
C3694 H3718 0.950 . S
C3695 C3712 1.574 . S
C3695 C3714 1.368 . S
C3695 H3719 0.949 . S
H3696 C3700 0.949 . S
C3697 C3698 1.349 . S
C3697 C3699 1.327 . S
C3697 H3720 0.950 . S
C3698 C3697 1.349 . S
C3698 C3710 1.349 . S
C3699 C3697 1.327 . S
C3699 C3715 1.429 . S
C3699 H3721 0.950 . S
C3700 H3696 0.949 . S
C3700 C3708 1.574 . S
C3700 C3716 1.368 . S
H3701 C3709 0.950 . S
H3702 C3707 0.950 . S
H3703 C3708 0.949 . S
H3704 C3710 0.950 . S
H3705 C3711 0.950 . S
H3706 C3712 0.949 . S
C3707 H3702 0.950 . S
C3707 C3709 1.327 . S
C3707 C3713 1.429 . S
C3708 C3700 1.574 . S
C3708 H3703 0.949 . S
C3708 C3714 1.368 . S
C3709 C3693 1.349 . S
C3709 H3701 0.950 . S
C3709 C3707 1.327 . S
C3710 C3698 1.349 . S
C3710 H3704 0.950 . S
C3710 C3711 1.327 . S
C3711 H3705 0.950 . S
C3711 C3710 1.327 . S
C3711 C3715 1.429 . S
C3712 C3695 1.574 . S
C3712 H3706 0.949 . S
C3712 C3716 1.368 . S
C3713 C3694 1.429 . S
C3713 C3707 1.429 . S
C3713 C3714 1.523 . S
C3714 C3695 1.368 . S
C3714 C3708 1.368 . S
C3714 C3713 1.523 . S
C3715 C3699 1.429 . S
C3715 C3711 1.429 . S
C3715 C3716 1.523 . S
C3716 C3700 1.368 . S
C3716 C3712 1.368 . S
C3716 C3715 1.523 . S
H3717 C3692 0.950 . S
H3718 C3694 0.950 . S
H3719 C3695 0.949 . S
H3720 C3697 0.950 . S
H3721 C3699 0.950 . S
C3722 C3723 1.349 . S
C3722 C3724 1.327 . S
C3722 H3747 0.950 . S
C3723 C3722 1.349 . S
C3723 C3739 1.349 . S
C3724 C3722 1.327 . S
C3724 C3743 1.429 . S
C3724 H3748 0.950 . S
C3725 C3742 1.574 . S
C3725 C3744 1.368 . S
C3725 H3749 0.949 . S
H3726 C3730 0.949 . S
C3727 C3728 1.349 . S
C3727 C3729 1.327 . S
C3727 H3750 0.950 . S
C3728 C3727 1.349 . S
C3728 C3740 1.349 . S
C3729 C3727 1.327 . S
C3729 C3745 1.429 . S
C3729 H3751 0.950 . S
C3730 H3726 0.949 . S
C3730 C3738 1.574 . S
C3730 C3746 1.368 . S
H3731 C3739 0.950 . S
H3732 C3737 0.950 . S
H3733 C3738 0.949 . S
H3734 C3740 0.950 . S
H3735 C3741 0.950 . S
H3736 C3742 0.949 . S
C3737 H3732 0.950 . S
C3737 C3739 1.327 . S
C3737 C3743 1.429 . S
C3738 C3730 1.574 . S
C3738 H3733 0.949 . S
C3738 C3744 1.368 . S
C3739 C3723 1.349 . S
C3739 H3731 0.950 . S
C3739 C3737 1.327 . S
C3740 C3728 1.349 . S
C3740 H3734 0.950 . S
C3740 C3741 1.327 . S
C3741 H3735 0.950 . S
C3741 C3740 1.327 . S
C3741 C3745 1.429 . S
C3742 C3725 1.574 . S
C3742 H3736 0.949 . S
C3742 C3746 1.368 . S
C3743 C3724 1.429 . S
C3743 C3737 1.429 . S
C3743 C3744 1.523 . S
C3744 C3725 1.368 . S
C3744 C3738 1.368 . S
C3744 C3743 1.523 . S
C3745 C3729 1.429 . S
C3745 C3741 1.429 . S
C3745 C3746 1.523 . S
C3746 C3730 1.368 . S
C3746 C3742 1.368 . S
C3746 C3745 1.523 . S
H3747 C3722 0.950 . S
H3748 C3724 0.950 . S
H3749 C3725 0.949 . S
H3750 C3727 0.950 . S
H3751 C3729 0.950 . S
C3752 C3753 1.349 . S
C3752 C3754 1.327 . S
C3752 H3777 0.950 . S
C3753 C3752 1.349 . S
C3753 C3769 1.349 . S
C3754 C3752 1.327 . S
C3754 C3773 1.429 . S
C3754 H3778 0.950 . S
C3755 C3772 1.574 . S
C3755 C3774 1.368 . S
C3755 H3779 0.949 . S
H3756 C3760 0.949 . S
C3757 C3758 1.349 . S
C3757 C3759 1.327 . S
C3757 H3780 0.950 . S
C3758 C3757 1.349 . S
C3758 C3770 1.349 . S
C3759 C3757 1.327 . S
C3759 C3775 1.429 . S
C3759 H3781 0.950 . S
C3760 H3756 0.949 . S
C3760 C3768 1.574 . S
C3760 C3776 1.368 . S
H3761 C3769 0.950 . S
H3762 C3767 0.950 . S
H3763 C3768 0.949 . S
H3764 C3770 0.950 . S
H3765 C3771 0.950 . S
H3766 C3772 0.949 . S
C3767 H3762 0.950 . S
C3767 C3769 1.327 . S
C3767 C3773 1.429 . S
C3768 C3760 1.574 . S
C3768 H3763 0.949 . S
C3768 C3774 1.368 . S
C3769 C3753 1.349 . S
C3769 H3761 0.950 . S
C3769 C3767 1.327 . S
C3770 C3758 1.349 . S
C3770 H3764 0.950 . S
C3770 C3771 1.327 . S
C3771 H3765 0.950 . S
C3771 C3770 1.327 . S
C3771 C3775 1.429 . S
C3772 C3755 1.574 . S
C3772 H3766 0.949 . S
C3772 C3776 1.368 . S
C3773 C3754 1.429 . S
C3773 C3767 1.429 . S
C3773 C3774 1.523 . S
C3774 C3755 1.368 . S
C3774 C3768 1.368 . S
C3774 C3773 1.523 . S
C3775 C3759 1.429 . S
C3775 C3771 1.429 . S
C3775 C3776 1.523 . S
C3776 C3760 1.368 . S
C3776 C3772 1.368 . S
C3776 C3775 1.523 . S
H3777 C3752 0.950 . S
H3778 C3754 0.950 . S
H3779 C3755 0.949 . S
H3780 C3757 0.950 . S
H3781 C3759 0.950 . S
C3782 C3783 1.349 . S
C3782 C3784 1.327 . S
C3782 H3807 0.950 . S
C3783 C3782 1.349 . S
C3783 C3799 1.349 . S
C3784 C3782 1.327 . S
C3784 C3803 1.429 . S
C3784 H3808 0.950 . S
C3785 C3802 1.574 . S
C3785 C3804 1.368 . S
C3785 H3809 0.949 . S
H3786 C3790 0.949 . S
C3787 C3788 1.349 . S
C3787 C3789 1.327 . S
C3787 H3810 0.950 . S
C3788 C3787 1.349 . S
C3788 C3800 1.349 . S
C3789 C3787 1.327 . S
C3789 C3805 1.429 . S
C3789 H3811 0.950 . S
C3790 H3786 0.949 . S
C3790 C3798 1.574 . S
C3790 C3806 1.368 . S
H3791 C3799 0.950 . S
H3792 C3797 0.950 . S
H3793 C3798 0.949 . S
H3794 C3800 0.950 . S
H3795 C3801 0.950 . S
H3796 C3802 0.949 . S
C3797 H3792 0.950 . S
C3797 C3799 1.327 . S
C3797 C3803 1.429 . S
C3798 C3790 1.574 . S
C3798 H3793 0.949 . S
C3798 C3804 1.368 . S
C3799 C3783 1.349 . S
C3799 H3791 0.950 . S
C3799 C3797 1.327 . S
C3800 C3788 1.349 . S
C3800 H3794 0.950 . S
C3800 C3801 1.327 . S
C3801 H3795 0.950 . S
C3801 C3800 1.327 . S
C3801 C3805 1.429 . S
C3802 C3785 1.574 . S
C3802 H3796 0.949 . S
C3802 C3806 1.368 . S
C3803 C3784 1.429 . S
C3803 C3797 1.429 . S
C3803 C3804 1.523 . S
C3804 C3785 1.368 . S
C3804 C3798 1.368 . S
C3804 C3803 1.523 . S
C3805 C3789 1.429 . S
C3805 C3801 1.429 . S
C3805 C3806 1.523 . S
C3806 C3790 1.368 . S
C3806 C3802 1.368 . S
C3806 C3805 1.523 . S
H3807 C3782 0.950 . S
H3808 C3784 0.950 . S
H3809 C3785 0.949 . S
H3810 C3787 0.950 . S
H3811 C3789 0.950 . S
C3812 C3813 1.349 . S
C3812 C3814 1.327 . S
C3812 H3837 0.950 . S
C3813 C3812 1.349 . S
C3813 C3829 1.349 . S
C3814 C3812 1.327 . S
C3814 C3833 1.429 . S
C3814 H3838 0.950 . S
C3815 C3832 1.574 . S
C3815 C3834 1.368 . S
C3815 H3839 0.949 . S
H3816 C3820 0.949 . S
C3817 C3818 1.349 . S
C3817 C3819 1.327 . S
C3817 H3840 0.950 . S
C3818 C3817 1.349 . S
C3818 C3830 1.349 . S
C3819 C3817 1.327 . S
C3819 C3835 1.429 . S
C3819 H3841 0.950 . S
C3820 H3816 0.949 . S
C3820 C3828 1.574 . S
C3820 C3836 1.368 . S
H3821 C3829 0.950 . S
H3822 C3827 0.950 . S
H3823 C3828 0.949 . S
H3824 C3830 0.950 . S
H3825 C3831 0.950 . S
H3826 C3832 0.949 . S
C3827 H3822 0.950 . S
C3827 C3829 1.327 . S
C3827 C3833 1.429 . S
C3828 C3820 1.574 . S
C3828 H3823 0.949 . S
C3828 C3834 1.368 . S
C3829 C3813 1.349 . S
C3829 H3821 0.950 . S
C3829 C3827 1.327 . S
C3830 C3818 1.349 . S
C3830 H3824 0.950 . S
C3830 C3831 1.327 . S
C3831 H3825 0.950 . S
C3831 C3830 1.327 . S
C3831 C3835 1.429 . S
C3832 C3815 1.574 . S
C3832 H3826 0.949 . S
C3832 C3836 1.368 . S
C3833 C3814 1.429 . S
C3833 C3827 1.429 . S
C3833 C3834 1.523 . S
C3834 C3815 1.368 . S
C3834 C3828 1.368 . S
C3834 C3833 1.523 . S
C3835 C3819 1.429 . S
C3835 C3831 1.429 . S
C3835 C3836 1.523 . S
C3836 C3820 1.368 . S
C3836 C3832 1.368 . S
C3836 C3835 1.523 . S
H3837 C3812 0.950 . S
H3838 C3814 0.950 . S
H3839 C3815 0.949 . S
H3840 C3817 0.950 . S
H3841 C3819 0.950 . S
C3842 C3843 1.349 . S
C3842 C3844 1.327 . S
C3842 H3867 0.950 . S
C3843 C3842 1.349 . S
C3843 C3859 1.349 . S
C3844 C3842 1.327 . S
C3844 C3863 1.429 . S
C3844 H3868 0.950 . S
C3845 C3862 1.574 . S
C3845 C3864 1.368 . S
C3845 H3869 0.949 . S
H3846 C3850 0.949 . S
C3847 C3848 1.349 . S
C3847 C3849 1.327 . S
C3847 H3870 0.950 . S
C3848 C3847 1.349 . S
C3848 C3860 1.349 . S
C3849 C3847 1.327 . S
C3849 C3865 1.429 . S
C3849 H3871 0.950 . S
C3850 H3846 0.949 . S
C3850 C3858 1.574 . S
C3850 C3866 1.368 . S
H3851 C3859 0.950 . S
H3852 C3857 0.950 . S
H3853 C3858 0.949 . S
H3854 C3860 0.950 . S
H3855 C3861 0.950 . S
H3856 C3862 0.949 . S
C3857 H3852 0.950 . S
C3857 C3859 1.327 . S
C3857 C3863 1.429 . S
C3858 C3850 1.574 . S
C3858 H3853 0.949 . S
C3858 C3864 1.368 . S
C3859 C3843 1.349 . S
C3859 H3851 0.950 . S
C3859 C3857 1.327 . S
C3860 C3848 1.349 . S
C3860 H3854 0.950 . S
C3860 C3861 1.327 . S
C3861 H3855 0.950 . S
C3861 C3860 1.327 . S
C3861 C3865 1.429 . S
C3862 C3845 1.574 . S
C3862 H3856 0.949 . S
C3862 C3866 1.368 . S
C3863 C3844 1.429 . S
C3863 C3857 1.429 . S
C3863 C3864 1.523 . S
C3864 C3845 1.368 . S
C3864 C3858 1.368 . S
C3864 C3863 1.523 . S
C3865 C3849 1.429 . S
C3865 C3861 1.429 . S
C3865 C3866 1.523 . S
C3866 C3850 1.368 . S
C3866 C3862 1.368 . S
C3866 C3865 1.523 . S
H3867 C3842 0.950 . S
H3868 C3844 0.950 . S
H3869 C3845 0.949 . S
H3870 C3847 0.950 . S
H3871 C3849 0.950 . S
C3872 C3873 1.349 . S
C3872 C3874 1.327 . S
C3872 H3897 0.950 . S
C3873 C3872 1.349 . S
C3873 C3889 1.349 . S
C3874 C3872 1.327 . S
C3874 C3893 1.429 . S
C3874 H3898 0.950 . S
C3875 C3892 1.574 . S
C3875 C3894 1.368 . S
C3875 H3899 0.949 . S
H3876 C3880 0.949 . S
C3877 C3878 1.349 . S
C3877 C3879 1.327 . S
C3877 H3900 0.950 . S
C3878 C3877 1.349 . S
C3878 C3890 1.349 . S
C3879 C3877 1.327 . S
C3879 C3895 1.429 . S
C3879 H3901 0.950 . S
C3880 H3876 0.949 . S
C3880 C3888 1.574 . S
C3880 C3896 1.368 . S
H3881 C3889 0.950 . S
H3882 C3887 0.950 . S
H3883 C3888 0.949 . S
H3884 C3890 0.950 . S
H3885 C3891 0.950 . S
H3886 C3892 0.949 . S
C3887 H3882 0.950 . S
C3887 C3889 1.327 . S
C3887 C3893 1.429 . S
C3888 C3880 1.574 . S
C3888 H3883 0.949 . S
C3888 C3894 1.368 . S
C3889 C3873 1.349 . S
C3889 H3881 0.950 . S
C3889 C3887 1.327 . S
C3890 C3878 1.349 . S
C3890 H3884 0.950 . S
C3890 C3891 1.327 . S
C3891 H3885 0.950 . S
C3891 C3890 1.327 . S
C3891 C3895 1.429 . S
C3892 C3875 1.574 . S
C3892 H3886 0.949 . S
C3892 C3896 1.368 . S
C3893 C3874 1.429 . S
C3893 C3887 1.429 . S
C3893 C3894 1.523 . S
C3894 C3875 1.368 . S
C3894 C3888 1.368 . S
C3894 C3893 1.523 . S
C3895 C3879 1.429 . S
C3895 C3891 1.429 . S
C3895 C3896 1.523 . S
C3896 C3880 1.368 . S
C3896 C3892 1.368 . S
C3896 C3895 1.523 . S
H3897 C3872 0.950 . S
H3898 C3874 0.950 . S
H3899 C3875 0.949 . S
H3900 C3877 0.950 . S
H3901 C3879 0.950 . S
C3902 C3903 1.349 . S
C3902 C3904 1.327 . S
C3902 H3927 0.950 . S
C3903 C3902 1.349 . S
C3903 C3919 1.349 . S
C3904 C3902 1.327 . S
C3904 C3923 1.429 . S
C3904 H3928 0.950 . S
C3905 C3922 1.574 . S
C3905 C3924 1.368 . S
C3905 H3929 0.949 . S
H3906 C3910 0.949 . S
C3907 C3908 1.349 . S
C3907 C3909 1.327 . S
C3907 H3930 0.950 . S
C3908 C3907 1.349 . S
C3908 C3920 1.349 . S
C3909 C3907 1.327 . S
C3909 C3925 1.429 . S
C3909 H3931 0.950 . S
C3910 H3906 0.949 . S
C3910 C3918 1.574 . S
C3910 C3926 1.368 . S
H3911 C3919 0.950 . S
H3912 C3917 0.950 . S
H3913 C3918 0.949 . S
H3914 C3920 0.950 . S
H3915 C3921 0.950 . S
H3916 C3922 0.949 . S
C3917 H3912 0.950 . S
C3917 C3919 1.327 . S
C3917 C3923 1.429 . S
C3918 C3910 1.574 . S
C3918 H3913 0.949 . S
C3918 C3924 1.368 . S
C3919 C3903 1.349 . S
C3919 H3911 0.950 . S
C3919 C3917 1.327 . S
C3920 C3908 1.349 . S
C3920 H3914 0.950 . S
C3920 C3921 1.327 . S
C3921 H3915 0.950 . S
C3921 C3920 1.327 . S
C3921 C3925 1.429 . S
C3922 C3905 1.574 . S
C3922 H3916 0.949 . S
C3922 C3926 1.368 . S
C3923 C3904 1.429 . S
C3923 C3917 1.429 . S
C3923 C3924 1.523 . S
C3924 C3905 1.368 . S
C3924 C3918 1.368 . S
C3924 C3923 1.523 . S
C3925 C3909 1.429 . S
C3925 C3921 1.429 . S
C3925 C3926 1.523 . S
C3926 C3910 1.368 . S
C3926 C3922 1.368 . S
C3926 C3925 1.523 . S
H3927 C3902 0.950 . S
H3928 C3904 0.950 . S
H3929 C3905 0.949 . S
H3930 C3907 0.950 . S
H3931 C3909 0.950 . S
C3932 C3933 1.349 . S
C3932 C3934 1.327 . S
C3932 H3957 0.950 . S
C3933 C3932 1.349 . S
C3933 C3949 1.349 . S
C3934 C3932 1.327 . S
C3934 C3953 1.429 . S
C3934 H3958 0.950 . S
C3935 C3952 1.574 . S
C3935 C3954 1.368 . S
C3935 H3959 0.949 . S
H3936 C3940 0.949 . S
C3937 C3938 1.349 . S
C3937 C3939 1.327 . S
C3937 H3960 0.950 . S
C3938 C3937 1.349 . S
C3938 C3950 1.349 . S
C3939 C3937 1.327 . S
C3939 C3955 1.429 . S
C3939 H3961 0.950 . S
C3940 H3936 0.949 . S
C3940 C3948 1.574 . S
C3940 C3956 1.368 . S
H3941 C3949 0.950 . S
H3942 C3947 0.950 . S
H3943 C3948 0.949 . S
H3944 C3950 0.950 . S
H3945 C3951 0.950 . S
H3946 C3952 0.949 . S
C3947 H3942 0.950 . S
C3947 C3949 1.327 . S
C3947 C3953 1.429 . S
C3948 C3940 1.574 . S
C3948 H3943 0.949 . S
C3948 C3954 1.368 . S
C3949 C3933 1.349 . S
C3949 H3941 0.950 . S
C3949 C3947 1.327 . S
C3950 C3938 1.349 . S
C3950 H3944 0.950 . S
C3950 C3951 1.327 . S
C3951 H3945 0.950 . S
C3951 C3950 1.327 . S
C3951 C3955 1.429 . S
C3952 C3935 1.574 . S
C3952 H3946 0.949 . S
C3952 C3956 1.368 . S
C3953 C3934 1.429 . S
C3953 C3947 1.429 . S
C3953 C3954 1.523 . S
C3954 C3935 1.368 . S
C3954 C3948 1.368 . S
C3954 C3953 1.523 . S
C3955 C3939 1.429 . S
C3955 C3951 1.429 . S
C3955 C3956 1.523 . S
C3956 C3940 1.368 . S
C3956 C3952 1.368 . S
C3956 C3955 1.523 . S
H3957 C3932 0.950 . S
H3958 C3934 0.950 . S
H3959 C3935 0.949 . S
H3960 C3937 0.950 . S
H3961 C3939 0.950 . S
C3962 C3963 1.349 . S
C3962 C3964 1.327 . S
C3962 H3987 0.950 . S
C3963 C3962 1.349 . S
C3963 C3979 1.349 . S
C3964 C3962 1.327 . S
C3964 C3983 1.429 . S
C3964 H3988 0.950 . S
C3965 C3982 1.574 . S
C3965 C3984 1.368 . S
C3965 H3989 0.949 . S
H3966 C3970 0.949 . S
C3967 C3968 1.349 . S
C3967 C3969 1.327 . S
C3967 H3990 0.950 . S
C3968 C3967 1.349 . S
C3968 C3980 1.349 . S
C3969 C3967 1.327 . S
C3969 C3985 1.429 . S
C3969 H3991 0.950 . S
C3970 H3966 0.949 . S
C3970 C3978 1.574 . S
C3970 C3986 1.368 . S
H3971 C3979 0.950 . S
H3972 C3977 0.950 . S
H3973 C3978 0.949 . S
H3974 C3980 0.950 . S
H3975 C3981 0.950 . S
H3976 C3982 0.949 . S
C3977 H3972 0.950 . S
C3977 C3979 1.327 . S
C3977 C3983 1.429 . S
C3978 C3970 1.574 . S
C3978 H3973 0.949 . S
C3978 C3984 1.368 . S
C3979 C3963 1.349 . S
C3979 H3971 0.950 . S
C3979 C3977 1.327 . S
C3980 C3968 1.349 . S
C3980 H3974 0.950 . S
C3980 C3981 1.327 . S
C3981 H3975 0.950 . S
C3981 C3980 1.327 . S
C3981 C3985 1.429 . S
C3982 C3965 1.574 . S
C3982 H3976 0.949 . S
C3982 C3986 1.368 . S
C3983 C3964 1.429 . S
C3983 C3977 1.429 . S
C3983 C3984 1.523 . S
C3984 C3965 1.368 . S
C3984 C3978 1.368 . S
C3984 C3983 1.523 . S
C3985 C3969 1.429 . S
C3985 C3981 1.429 . S
C3985 C3986 1.523 . S
C3986 C3970 1.368 . S
C3986 C3982 1.368 . S
C3986 C3985 1.523 . S
H3987 C3962 0.950 . S
H3988 C3964 0.950 . S
H3989 C3965 0.949 . S
H3990 C3967 0.950 . S
H3991 C3969 0.950 . S
C3992 C3993 1.349 . S
C3992 C3994 1.327 . S
C3992 H4017 0.950 . S
C3993 C3992 1.349 . S
C3993 C4009 1.349 . S
C3994 C3992 1.327 . S
C3994 C4013 1.429 . S
C3994 H4018 0.950 . S
C3995 C4012 1.574 . S
C3995 C4014 1.368 . S
C3995 H4019 0.949 . S
H3996 C4000 0.949 . S
C3997 C3998 1.349 . S
C3997 C3999 1.327 . S
C3997 H4020 0.950 . S
C3998 C3997 1.349 . S
C3998 C4010 1.349 . S
C3999 C3997 1.327 . S
C3999 C4015 1.429 . S
C3999 H4021 0.950 . S
C4000 H3996 0.949 . S
C4000 C4008 1.574 . S
C4000 C4016 1.368 . S
H4001 C4009 0.950 . S
H4002 C4007 0.950 . S
H4003 C4008 0.949 . S
H4004 C4010 0.950 . S
H4005 C4011 0.950 . S
H4006 C4012 0.949 . S
C4007 H4002 0.950 . S
C4007 C4009 1.327 . S
C4007 C4013 1.429 . S
C4008 C4000 1.574 . S
C4008 H4003 0.949 . S
C4008 C4014 1.368 . S
C4009 C3993 1.349 . S
C4009 H4001 0.950 . S
C4009 C4007 1.327 . S
C4010 C3998 1.349 . S
C4010 H4004 0.950 . S
C4010 C4011 1.327 . S
C4011 H4005 0.950 . S
C4011 C4010 1.327 . S
C4011 C4015 1.429 . S
C4012 C3995 1.574 . S
C4012 H4006 0.949 . S
C4012 C4016 1.368 . S
C4013 C3994 1.429 . S
C4013 C4007 1.429 . S
C4013 C4014 1.523 . S
C4014 C3995 1.368 . S
C4014 C4008 1.368 . S
C4014 C4013 1.523 . S
C4015 C3999 1.429 . S
C4015 C4011 1.429 . S
C4015 C4016 1.523 . S
C4016 C4000 1.368 . S
C4016 C4012 1.368 . S
C4016 C4015 1.523 . S
H4017 C3992 0.950 . S
H4018 C3994 0.950 . S
H4019 C3995 0.949 . S
H4020 C3997 0.950 . S
H4021 C3999 0.950 . S
C4022 C4023 1.349 . S
C4022 C4024 1.327 . S
C4022 H4047 0.950 . S
C4023 C4022 1.349 . S
C4023 C4039 1.349 . S
C4024 C4022 1.327 . S
C4024 C4043 1.429 . S
C4024 H4048 0.950 . S
C4025 C4042 1.574 . S
C4025 C4044 1.368 . S
C4025 H4049 0.949 . S
H4026 C4030 0.949 . S
C4027 C4028 1.349 . S
C4027 C4029 1.327 . S
C4027 H4050 0.950 . S
C4028 C4027 1.349 . S
C4028 C4040 1.349 . S
C4029 C4027 1.327 . S
C4029 C4045 1.429 . S
C4029 H4051 0.950 . S
C4030 H4026 0.949 . S
C4030 C4038 1.574 . S
C4030 C4046 1.368 . S
H4031 C4039 0.950 . S
H4032 C4037 0.950 . S
H4033 C4038 0.949 . S
H4034 C4040 0.950 . S
H4035 C4041 0.950 . S
H4036 C4042 0.949 . S
C4037 H4032 0.950 . S
C4037 C4039 1.327 . S
C4037 C4043 1.429 . S
C4038 C4030 1.574 . S
C4038 H4033 0.949 . S
C4038 C4044 1.368 . S
C4039 C4023 1.349 . S
C4039 H4031 0.950 . S
C4039 C4037 1.327 . S
C4040 C4028 1.349 . S
C4040 H4034 0.950 . S
C4040 C4041 1.327 . S
C4041 H4035 0.950 . S
C4041 C4040 1.327 . S
C4041 C4045 1.429 . S
C4042 C4025 1.574 . S
C4042 H4036 0.949 . S
C4042 C4046 1.368 . S
C4043 C4024 1.429 . S
C4043 C4037 1.429 . S
C4043 C4044 1.523 . S
C4044 C4025 1.368 . S
C4044 C4038 1.368 . S
C4044 C4043 1.523 . S
C4045 C4029 1.429 . S
C4045 C4041 1.429 . S
C4045 C4046 1.523 . S
C4046 C4030 1.368 . S
C4046 C4042 1.368 . S
C4046 C4045 1.523 . S
H4047 C4022 0.950 . S
H4048 C4024 0.950 . S
H4049 C4025 0.949 . S
H4050 C4027 0.950 . S
H4051 C4029 0.950 . S
C4052 C4053 1.349 . S
C4052 C4054 1.327 . S
C4052 H4077 0.950 . S
C4053 C4052 1.349 . S
C4053 C4069 1.349 . S
C4054 C4052 1.327 . S
C4054 C4073 1.429 . S
C4054 H4078 0.950 . S
C4055 C4072 1.574 . S
C4055 C4074 1.368 . S
C4055 H4079 0.949 . S
H4056 C4060 0.949 . S
C4057 C4058 1.349 . S
C4057 C4059 1.327 . S
C4057 H4080 0.950 . S
C4058 C4057 1.349 . S
C4058 C4070 1.349 . S
C4059 C4057 1.327 . S
C4059 C4075 1.429 . S
C4059 H4081 0.950 . S
C4060 H4056 0.949 . S
C4060 C4068 1.574 . S
C4060 C4076 1.368 . S
H4061 C4069 0.950 . S
H4062 C4067 0.950 . S
H4063 C4068 0.949 . S
H4064 C4070 0.950 . S
H4065 C4071 0.950 . S
H4066 C4072 0.949 . S
C4067 H4062 0.950 . S
C4067 C4069 1.327 . S
C4067 C4073 1.429 . S
C4068 C4060 1.574 . S
C4068 H4063 0.949 . S
C4068 C4074 1.368 . S
C4069 C4053 1.349 . S
C4069 H4061 0.950 . S
C4069 C4067 1.327 . S
C4070 C4058 1.349 . S
C4070 H4064 0.950 . S
C4070 C4071 1.327 . S
C4071 H4065 0.950 . S
C4071 C4070 1.327 . S
C4071 C4075 1.429 . S
C4072 C4055 1.574 . S
C4072 H4066 0.949 . S
C4072 C4076 1.368 . S
C4073 C4054 1.429 . S
C4073 C4067 1.429 . S
C4073 C4074 1.523 . S
C4074 C4055 1.368 . S
C4074 C4068 1.368 . S
C4074 C4073 1.523 . S
C4075 C4059 1.429 . S
C4075 C4071 1.429 . S
C4075 C4076 1.523 . S
C4076 C4060 1.368 . S
C4076 C4072 1.368 . S
C4076 C4075 1.523 . S
H4077 C4052 0.950 . S
H4078 C4054 0.950 . S
H4079 C4055 0.949 . S
H4080 C4057 0.950 . S
H4081 C4059 0.950 . S
C4082 C4083 1.349 . S
C4082 C4084 1.327 . S
C4082 H4107 0.950 . S
C4083 C4082 1.349 . S
C4083 C4099 1.349 . S
C4084 C4082 1.327 . S
C4084 C4103 1.429 . S
C4084 H4108 0.950 . S
C4085 C4102 1.574 . S
C4085 C4104 1.368 . S
C4085 H4109 0.949 . S
H4086 C4090 0.949 . S
C4087 C4088 1.349 . S
C4087 C4089 1.327 . S
C4087 H4110 0.950 . S
C4088 C4087 1.349 . S
C4088 C4100 1.349 . S
C4089 C4087 1.327 . S
C4089 C4105 1.429 . S
C4089 H4111 0.950 . S
C4090 H4086 0.949 . S
C4090 C4098 1.574 . S
C4090 C4106 1.368 . S
H4091 C4099 0.950 . S
H4092 C4097 0.950 . S
H4093 C4098 0.949 . S
H4094 C4100 0.950 . S
H4095 C4101 0.950 . S
H4096 C4102 0.949 . S
C4097 H4092 0.950 . S
C4097 C4099 1.327 . S
C4097 C4103 1.429 . S
C4098 C4090 1.574 . S
C4098 H4093 0.949 . S
C4098 C4104 1.368 . S
C4099 C4083 1.349 . S
C4099 H4091 0.950 . S
C4099 C4097 1.327 . S
C4100 C4088 1.349 . S
C4100 H4094 0.950 . S
C4100 C4101 1.327 . S
C4101 H4095 0.950 . S
C4101 C4100 1.327 . S
C4101 C4105 1.429 . S
C4102 C4085 1.574 . S
C4102 H4096 0.949 . S
C4102 C4106 1.368 . S
C4103 C4084 1.429 . S
C4103 C4097 1.429 . S
C4103 C4104 1.523 . S
C4104 C4085 1.368 . S
C4104 C4098 1.368 . S
C4104 C4103 1.523 . S
C4105 C4089 1.429 . S
C4105 C4101 1.429 . S
C4105 C4106 1.523 . S
C4106 C4090 1.368 . S
C4106 C4102 1.368 . S
C4106 C4105 1.523 . S
H4107 C4082 0.950 . S
H4108 C4084 0.950 . S
H4109 C4085 0.949 . S
H4110 C4087 0.950 . S
H4111 C4089 0.950 . S
C4112 C4113 1.349 . S
C4112 C4114 1.327 . S
C4112 H4137 0.950 . S
C4113 C4112 1.349 . S
C4113 C4129 1.349 . S
C4114 C4112 1.327 . S
C4114 C4133 1.429 . S
C4114 H4138 0.950 . S
C4115 C4132 1.574 . S
C4115 C4134 1.368 . S
C4115 H4139 0.949 . S
H4116 C4120 0.949 . S
C4117 C4118 1.349 . S
C4117 C4119 1.327 . S
C4117 H4140 0.950 . S
C4118 C4117 1.349 . S
C4118 C4130 1.349 . S
C4119 C4117 1.327 . S
C4119 C4135 1.429 . S
C4119 H4141 0.950 . S
C4120 H4116 0.949 . S
C4120 C4128 1.574 . S
C4120 C4136 1.368 . S
H4121 C4129 0.950 . S
H4122 C4127 0.950 . S
H4123 C4128 0.949 . S
H4124 C4130 0.950 . S
H4125 C4131 0.950 . S
H4126 C4132 0.949 . S
C4127 H4122 0.950 . S
C4127 C4129 1.327 . S
C4127 C4133 1.429 . S
C4128 C4120 1.574 . S
C4128 H4123 0.949 . S
C4128 C4134 1.368 . S
C4129 C4113 1.349 . S
C4129 H4121 0.950 . S
C4129 C4127 1.327 . S
C4130 C4118 1.349 . S
C4130 H4124 0.950 . S
C4130 C4131 1.327 . S
C4131 H4125 0.950 . S
C4131 C4130 1.327 . S
C4131 C4135 1.429 . S
C4132 C4115 1.574 . S
C4132 H4126 0.949 . S
C4132 C4136 1.368 . S
C4133 C4114 1.429 . S
C4133 C4127 1.429 . S
C4133 C4134 1.523 . S
C4134 C4115 1.368 . S
C4134 C4128 1.368 . S
C4134 C4133 1.523 . S
C4135 C4119 1.429 . S
C4135 C4131 1.429 . S
C4135 C4136 1.523 . S
C4136 C4120 1.368 . S
C4136 C4132 1.368 . S
C4136 C4135 1.523 . S
H4137 C4112 0.950 . S
H4138 C4114 0.950 . S
H4139 C4115 0.949 . S
H4140 C4117 0.950 . S
H4141 C4119 0.950 . S
C4142 C4143 1.349 . S
C4142 C4144 1.327 . S
C4142 H4167 0.950 . S
C4143 C4142 1.349 . S
C4143 C4159 1.349 . S
C4144 C4142 1.327 . S
C4144 C4163 1.429 . S
C4144 H4168 0.950 . S
C4145 C4162 1.574 . S
C4145 C4164 1.368 . S
C4145 H4169 0.949 . S
H4146 C4150 0.949 . S
C4147 C4148 1.349 . S
C4147 C4149 1.327 . S
C4147 H4170 0.950 . S
C4148 C4147 1.349 . S
C4148 C4160 1.349 . S
C4149 C4147 1.327 . S
C4149 C4165 1.429 . S
C4149 H4171 0.950 . S
C4150 H4146 0.949 . S
C4150 C4158 1.574 . S
C4150 C4166 1.368 . S
H4151 C4159 0.950 . S
H4152 C4157 0.950 . S
H4153 C4158 0.949 . S
H4154 C4160 0.950 . S
H4155 C4161 0.950 . S
H4156 C4162 0.949 . S
C4157 H4152 0.950 . S
C4157 C4159 1.327 . S
C4157 C4163 1.429 . S
C4158 C4150 1.574 . S
C4158 H4153 0.949 . S
C4158 C4164 1.368 . S
C4159 C4143 1.349 . S
C4159 H4151 0.950 . S
C4159 C4157 1.327 . S
C4160 C4148 1.349 . S
C4160 H4154 0.950 . S
C4160 C4161 1.327 . S
C4161 H4155 0.950 . S
C4161 C4160 1.327 . S
C4161 C4165 1.429 . S
C4162 C4145 1.574 . S
C4162 H4156 0.949 . S
C4162 C4166 1.368 . S
C4163 C4144 1.429 . S
C4163 C4157 1.429 . S
C4163 C4164 1.523 . S
C4164 C4145 1.368 . S
C4164 C4158 1.368 . S
C4164 C4163 1.523 . S
C4165 C4149 1.429 . S
C4165 C4161 1.429 . S
C4165 C4166 1.523 . S
C4166 C4150 1.368 . S
C4166 C4162 1.368 . S
C4166 C4165 1.523 . S
H4167 C4142 0.950 . S
H4168 C4144 0.950 . S
H4169 C4145 0.949 . S
H4170 C4147 0.950 . S
H4171 C4149 0.950 . S
C4172 C4173 1.349 . S
C4172 C4174 1.327 . S
C4172 H4197 0.950 . S
C4173 C4172 1.349 . S
C4173 C4189 1.349 . S
C4174 C4172 1.327 . S
C4174 C4193 1.429 . S
C4174 H4198 0.950 . S
C4175 C4192 1.574 . S
C4175 C4194 1.368 . S
C4175 H4199 0.949 . S
H4176 C4180 0.949 . S
C4177 C4178 1.349 . S
C4177 C4179 1.327 . S
C4177 H4200 0.950 . S
C4178 C4177 1.349 . S
C4178 C4190 1.349 . S
C4179 C4177 1.327 . S
C4179 C4195 1.429 . S
C4179 H4201 0.950 . S
C4180 H4176 0.949 . S
C4180 C4188 1.574 . S
C4180 C4196 1.368 . S
H4181 C4189 0.950 . S
H4182 C4187 0.950 . S
H4183 C4188 0.949 . S
H4184 C4190 0.950 . S
H4185 C4191 0.950 . S
H4186 C4192 0.949 . S
C4187 H4182 0.950 . S
C4187 C4189 1.327 . S
C4187 C4193 1.429 . S
C4188 C4180 1.574 . S
C4188 H4183 0.949 . S
C4188 C4194 1.368 . S
C4189 C4173 1.349 . S
C4189 H4181 0.950 . S
C4189 C4187 1.327 . S
C4190 C4178 1.349 . S
C4190 H4184 0.950 . S
C4190 C4191 1.327 . S
C4191 H4185 0.950 . S
C4191 C4190 1.327 . S
C4191 C4195 1.429 . S
C4192 C4175 1.574 . S
C4192 H4186 0.949 . S
C4192 C4196 1.368 . S
C4193 C4174 1.429 . S
C4193 C4187 1.429 . S
C4193 C4194 1.523 . S
C4194 C4175 1.368 . S
C4194 C4188 1.368 . S
C4194 C4193 1.523 . S
C4195 C4179 1.429 . S
C4195 C4191 1.429 . S
C4195 C4196 1.523 . S
C4196 C4180 1.368 . S
C4196 C4192 1.368 . S
C4196 C4195 1.523 . S
H4197 C4172 0.950 . S
H4198 C4174 0.950 . S
H4199 C4175 0.949 . S
H4200 C4177 0.950 . S
H4201 C4179 0.950 . S
C4202 C4203 1.349 . S
C4202 C4204 1.327 . S
C4202 H4227 0.950 . S
C4203 C4202 1.349 . S
C4203 C4219 1.349 . S
C4204 C4202 1.327 . S
C4204 C4223 1.429 . S
C4204 H4228 0.950 . S
C4205 C4222 1.574 . S
C4205 C4224 1.368 . S
C4205 H4229 0.949 . S
H4206 C4210 0.949 . S
C4207 C4208 1.349 . S
C4207 C4209 1.327 . S
C4207 H4230 0.950 . S
C4208 C4207 1.349 . S
C4208 C4220 1.349 . S
C4209 C4207 1.327 . S
C4209 C4225 1.429 . S
C4209 H4231 0.950 . S
C4210 H4206 0.949 . S
C4210 C4218 1.574 . S
C4210 C4226 1.368 . S
H4211 C4219 0.950 . S
H4212 C4217 0.950 . S
H4213 C4218 0.949 . S
H4214 C4220 0.950 . S
H4215 C4221 0.950 . S
H4216 C4222 0.949 . S
C4217 H4212 0.950 . S
C4217 C4219 1.327 . S
C4217 C4223 1.429 . S
C4218 C4210 1.574 . S
C4218 H4213 0.949 . S
C4218 C4224 1.368 . S
C4219 C4203 1.349 . S
C4219 H4211 0.950 . S
C4219 C4217 1.327 . S
C4220 C4208 1.349 . S
C4220 H4214 0.950 . S
C4220 C4221 1.327 . S
C4221 H4215 0.950 . S
C4221 C4220 1.327 . S
C4221 C4225 1.429 . S
C4222 C4205 1.574 . S
C4222 H4216 0.949 . S
C4222 C4226 1.368 . S
C4223 C4204 1.429 . S
C4223 C4217 1.429 . S
C4223 C4224 1.523 . S
C4224 C4205 1.368 . S
C4224 C4218 1.368 . S
C4224 C4223 1.523 . S
C4225 C4209 1.429 . S
C4225 C4221 1.429 . S
C4225 C4226 1.523 . S
C4226 C4210 1.368 . S
C4226 C4222 1.368 . S
C4226 C4225 1.523 . S
H4227 C4202 0.950 . S
H4228 C4204 0.950 . S
H4229 C4205 0.949 . S
H4230 C4207 0.950 . S
H4231 C4209 0.950 . S
C4232 C4233 1.349 . S
C4232 C4234 1.327 . S
C4232 H4257 0.950 . S
C4233 C4232 1.349 . S
C4233 C4249 1.349 . S
C4234 C4232 1.327 . S
C4234 C4253 1.429 . S
C4234 H4258 0.950 . S
C4235 C4252 1.574 . S
C4235 C4254 1.368 . S
C4235 H4259 0.949 . S
H4236 C4240 0.949 . S
C4237 C4238 1.349 . S
C4237 C4239 1.327 . S
C4237 H4260 0.950 . S
C4238 C4237 1.349 . S
C4238 C4250 1.349 . S
C4239 C4237 1.327 . S
C4239 C4255 1.429 . S
C4239 H4261 0.950 . S
C4240 H4236 0.949 . S
C4240 C4248 1.574 . S
C4240 C4256 1.368 . S
H4241 C4249 0.950 . S
H4242 C4247 0.950 . S
H4243 C4248 0.949 . S
H4244 C4250 0.950 . S
H4245 C4251 0.950 . S
H4246 C4252 0.949 . S
C4247 H4242 0.950 . S
C4247 C4249 1.327 . S
C4247 C4253 1.429 . S
C4248 C4240 1.574 . S
C4248 H4243 0.949 . S
C4248 C4254 1.368 . S
C4249 C4233 1.349 . S
C4249 H4241 0.950 . S
C4249 C4247 1.327 . S
C4250 C4238 1.349 . S
C4250 H4244 0.950 . S
C4250 C4251 1.327 . S
C4251 H4245 0.950 . S
C4251 C4250 1.327 . S
C4251 C4255 1.429 . S
C4252 C4235 1.574 . S
C4252 H4246 0.949 . S
C4252 C4256 1.368 . S
C4253 C4234 1.429 . S
C4253 C4247 1.429 . S
C4253 C4254 1.523 . S
C4254 C4235 1.368 . S
C4254 C4248 1.368 . S
C4254 C4253 1.523 . S
C4255 C4239 1.429 . S
C4255 C4251 1.429 . S
C4255 C4256 1.523 . S
C4256 C4240 1.368 . S
C4256 C4252 1.368 . S
C4256 C4255 1.523 . S
H4257 C4232 0.950 . S
H4258 C4234 0.950 . S
H4259 C4235 0.949 . S
H4260 C4237 0.950 . S
H4261 C4239 0.950 . S
C4262 C4263 1.349 . S
C4262 C4264 1.327 . S
C4262 H4287 0.950 . S
C4263 C4262 1.349 . S
C4263 C4279 1.349 . S
C4264 C4262 1.327 . S
C4264 C4283 1.429 . S
C4264 H4288 0.950 . S
C4265 C4282 1.574 . S
C4265 C4284 1.368 . S
C4265 H4289 0.949 . S
H4266 C4270 0.949 . S
C4267 C4268 1.349 . S
C4267 C4269 1.327 . S
C4267 H4290 0.950 . S
C4268 C4267 1.349 . S
C4268 C4280 1.349 . S
C4269 C4267 1.327 . S
C4269 C4285 1.429 . S
C4269 H4291 0.950 . S
C4270 H4266 0.949 . S
C4270 C4278 1.574 . S
C4270 C4286 1.368 . S
H4271 C4279 0.950 . S
H4272 C4277 0.950 . S
H4273 C4278 0.949 . S
H4274 C4280 0.950 . S
H4275 C4281 0.950 . S
H4276 C4282 0.949 . S
C4277 H4272 0.950 . S
C4277 C4279 1.327 . S
C4277 C4283 1.429 . S
C4278 C4270 1.574 . S
C4278 H4273 0.949 . S
C4278 C4284 1.368 . S
C4279 C4263 1.349 . S
C4279 H4271 0.950 . S
C4279 C4277 1.327 . S
C4280 C4268 1.349 . S
C4280 H4274 0.950 . S
C4280 C4281 1.327 . S
C4281 H4275 0.950 . S
C4281 C4280 1.327 . S
C4281 C4285 1.429 . S
C4282 C4265 1.574 . S
C4282 H4276 0.949 . S
C4282 C4286 1.368 . S
C4283 C4264 1.429 . S
C4283 C4277 1.429 . S
C4283 C4284 1.523 . S
C4284 C4265 1.368 . S
C4284 C4278 1.368 . S
C4284 C4283 1.523 . S
C4285 C4269 1.429 . S
C4285 C4281 1.429 . S
C4285 C4286 1.523 . S
C4286 C4270 1.368 . S
C4286 C4282 1.368 . S
C4286 C4285 1.523 . S
H4287 C4262 0.950 . S
H4288 C4264 0.950 . S
H4289 C4265 0.949 . S
H4290 C4267 0.950 . S
H4291 C4269 0.950 . S
C4292 C4293 1.349 . S
C4292 C4294 1.327 . S
C4292 H4317 0.950 . S
C4293 C4292 1.349 . S
C4293 C4309 1.349 . S
C4294 C4292 1.327 . S
C4294 C4313 1.429 . S
C4294 H4318 0.950 . S
C4295 C4312 1.574 . S
C4295 C4314 1.368 . S
C4295 H4319 0.949 . S
H4296 C4300 0.949 . S
C4297 C4298 1.349 . S
C4297 C4299 1.327 . S
C4297 H4320 0.950 . S
C4298 C4297 1.349 . S
C4298 C4310 1.349 . S
C4299 C4297 1.327 . S
C4299 C4315 1.429 . S
C4299 H4321 0.950 . S
C4300 H4296 0.949 . S
C4300 C4308 1.574 . S
C4300 C4316 1.368 . S
H4301 C4309 0.950 . S
H4302 C4307 0.950 . S
H4303 C4308 0.949 . S
H4304 C4310 0.950 . S
H4305 C4311 0.950 . S
H4306 C4312 0.949 . S
C4307 H4302 0.950 . S
C4307 C4309 1.327 . S
C4307 C4313 1.429 . S
C4308 C4300 1.574 . S
C4308 H4303 0.949 . S
C4308 C4314 1.368 . S
C4309 C4293 1.349 . S
C4309 H4301 0.950 . S
C4309 C4307 1.327 . S
C4310 C4298 1.349 . S
C4310 H4304 0.950 . S
C4310 C4311 1.327 . S
C4311 H4305 0.950 . S
C4311 C4310 1.327 . S
C4311 C4315 1.429 . S
C4312 C4295 1.574 . S
C4312 H4306 0.949 . S
C4312 C4316 1.368 . S
C4313 C4294 1.429 . S
C4313 C4307 1.429 . S
C4313 C4314 1.523 . S
C4314 C4295 1.368 . S
C4314 C4308 1.368 . S
C4314 C4313 1.523 . S
C4315 C4299 1.429 . S
C4315 C4311 1.429 . S
C4315 C4316 1.523 . S
C4316 C4300 1.368 . S
C4316 C4312 1.368 . S
C4316 C4315 1.523 . S
H4317 C4292 0.950 . S
H4318 C4294 0.950 . S
H4319 C4295 0.949 . S
H4320 C4297 0.950 . S
H4321 C4299 0.950 . S
C4322 C4323 1.349 . S
C4322 C4324 1.327 . S
C4322 H4347 0.950 . S
C4323 C4322 1.349 . S
C4323 C4339 1.349 . S
C4324 C4322 1.327 . S
C4324 C4343 1.429 . S
C4324 H4348 0.950 . S
C4325 C4342 1.574 . S
C4325 C4344 1.368 . S
C4325 H4349 0.949 . S
H4326 C4330 0.949 . S
C4327 C4328 1.349 . S
C4327 C4329 1.327 . S
C4327 H4350 0.950 . S
C4328 C4327 1.349 . S
C4328 C4340 1.349 . S
C4329 C4327 1.327 . S
C4329 C4345 1.429 . S
C4329 H4351 0.950 . S
C4330 H4326 0.949 . S
C4330 C4338 1.574 . S
C4330 C4346 1.368 . S
H4331 C4339 0.950 . S
H4332 C4337 0.950 . S
H4333 C4338 0.949 . S
H4334 C4340 0.950 . S
H4335 C4341 0.950 . S
H4336 C4342 0.949 . S
C4337 H4332 0.950 . S
C4337 C4339 1.327 . S
C4337 C4343 1.429 . S
C4338 C4330 1.574 . S
C4338 H4333 0.949 . S
C4338 C4344 1.368 . S
C4339 C4323 1.349 . S
C4339 H4331 0.950 . S
C4339 C4337 1.327 . S
C4340 C4328 1.349 . S
C4340 H4334 0.950 . S
C4340 C4341 1.327 . S
C4341 H4335 0.950 . S
C4341 C4340 1.327 . S
C4341 C4345 1.429 . S
C4342 C4325 1.574 . S
C4342 H4336 0.949 . S
C4342 C4346 1.368 . S
C4343 C4324 1.429 . S
C4343 C4337 1.429 . S
C4343 C4344 1.523 . S
C4344 C4325 1.368 . S
C4344 C4338 1.368 . S
C4344 C4343 1.523 . S
C4345 C4329 1.429 . S
C4345 C4341 1.429 . S
C4345 C4346 1.523 . S
C4346 C4330 1.368 . S
C4346 C4342 1.368 . S
C4346 C4345 1.523 . S
H4347 C4322 0.950 . S
H4348 C4324 0.950 . S
H4349 C4325 0.949 . S
H4350 C4327 0.950 . S
H4351 C4329 0.950 . S
C4352 C4353 1.349 . S
C4352 C4354 1.327 . S
C4352 H4377 0.950 . S
C4353 C4352 1.349 . S
C4353 C4369 1.349 . S
C4354 C4352 1.327 . S
C4354 C4373 1.429 . S
C4354 H4378 0.950 . S
C4355 C4372 1.574 . S
C4355 C4374 1.368 . S
C4355 H4379 0.949 . S
H4356 C4360 0.949 . S
C4357 C4358 1.349 . S
C4357 C4359 1.327 . S
C4357 H4380 0.950 . S
C4358 C4357 1.349 . S
C4358 C4370 1.349 . S
C4359 C4357 1.327 . S
C4359 C4375 1.429 . S
C4359 H4381 0.950 . S
C4360 H4356 0.949 . S
C4360 C4368 1.574 . S
C4360 C4376 1.368 . S
H4361 C4369 0.950 . S
H4362 C4367 0.950 . S
H4363 C4368 0.949 . S
H4364 C4370 0.950 . S
H4365 C4371 0.950 . S
H4366 C4372 0.949 . S
C4367 H4362 0.950 . S
C4367 C4369 1.327 . S
C4367 C4373 1.429 . S
C4368 C4360 1.574 . S
C4368 H4363 0.949 . S
C4368 C4374 1.368 . S
C4369 C4353 1.349 . S
C4369 H4361 0.950 . S
C4369 C4367 1.327 . S
C4370 C4358 1.349 . S
C4370 H4364 0.950 . S
C4370 C4371 1.327 . S
C4371 H4365 0.950 . S
C4371 C4370 1.327 . S
C4371 C4375 1.429 . S
C4372 C4355 1.574 . S
C4372 H4366 0.949 . S
C4372 C4376 1.368 . S
C4373 C4354 1.429 . S
C4373 C4367 1.429 . S
C4373 C4374 1.523 . S
C4374 C4355 1.368 . S
C4374 C4368 1.368 . S
C4374 C4373 1.523 . S
C4375 C4359 1.429 . S
C4375 C4371 1.429 . S
C4375 C4376 1.523 . S
C4376 C4360 1.368 . S
C4376 C4372 1.368 . S
C4376 C4375 1.523 . S
H4377 C4352 0.950 . S
H4378 C4354 0.950 . S
H4379 C4355 0.949 . S
H4380 C4357 0.950 . S
H4381 C4359 0.950 . S
C4382 C4383 1.349 . S
C4382 C4384 1.327 . S
C4382 H4407 0.950 . S
C4383 C4382 1.349 . S
C4383 C4399 1.349 . S
C4384 C4382 1.327 . S
C4384 C4403 1.429 . S
C4384 H4408 0.950 . S
C4385 C4402 1.574 . S
C4385 C4404 1.368 . S
C4385 H4409 0.949 . S
H4386 C4390 0.949 . S
C4387 C4388 1.349 . S
C4387 C4389 1.327 . S
C4387 H4410 0.950 . S
C4388 C4387 1.349 . S
C4388 C4400 1.349 . S
C4389 C4387 1.327 . S
C4389 C4405 1.429 . S
C4389 H4411 0.950 . S
C4390 H4386 0.949 . S
C4390 C4398 1.574 . S
C4390 C4406 1.368 . S
H4391 C4399 0.950 . S
H4392 C4397 0.950 . S
H4393 C4398 0.949 . S
H4394 C4400 0.950 . S
H4395 C4401 0.950 . S
H4396 C4402 0.949 . S
C4397 H4392 0.950 . S
C4397 C4399 1.327 . S
C4397 C4403 1.429 . S
C4398 C4390 1.574 . S
C4398 H4393 0.949 . S
C4398 C4404 1.368 . S
C4399 C4383 1.349 . S
C4399 H4391 0.950 . S
C4399 C4397 1.327 . S
C4400 C4388 1.349 . S
C4400 H4394 0.950 . S
C4400 C4401 1.327 . S
C4401 H4395 0.950 . S
C4401 C4400 1.327 . S
C4401 C4405 1.429 . S
C4402 C4385 1.574 . S
C4402 H4396 0.949 . S
C4402 C4406 1.368 . S
C4403 C4384 1.429 . S
C4403 C4397 1.429 . S
C4403 C4404 1.523 . S
C4404 C4385 1.368 . S
C4404 C4398 1.368 . S
C4404 C4403 1.523 . S
C4405 C4389 1.429 . S
C4405 C4401 1.429 . S
C4405 C4406 1.523 . S
C4406 C4390 1.368 . S
C4406 C4402 1.368 . S
C4406 C4405 1.523 . S
H4407 C4382 0.950 . S
H4408 C4384 0.950 . S
H4409 C4385 0.949 . S
H4410 C4387 0.950 . S
H4411 C4389 0.950 . S
C4412 C4413 1.349 . S
C4412 C4414 1.327 . S
C4412 H4437 0.950 . S
C4413 C4412 1.349 . S
C4413 C4429 1.349 . S
C4414 C4412 1.327 . S
C4414 C4433 1.429 . S
C4414 H4438 0.950 . S
C4415 C4432 1.574 . S
C4415 C4434 1.368 . S
C4415 H4439 0.949 . S
H4416 C4420 0.949 . S
C4417 C4418 1.349 . S
C4417 C4419 1.327 . S
C4417 H4440 0.950 . S
C4418 C4417 1.349 . S
C4418 C4430 1.349 . S
C4419 C4417 1.327 . S
C4419 C4435 1.429 . S
C4419 H4441 0.950 . S
C4420 H4416 0.949 . S
C4420 C4428 1.574 . S
C4420 C4436 1.368 . S
H4421 C4429 0.950 . S
H4422 C4427 0.950 . S
H4423 C4428 0.949 . S
H4424 C4430 0.950 . S
H4425 C4431 0.950 . S
H4426 C4432 0.949 . S
C4427 H4422 0.950 . S
C4427 C4429 1.327 . S
C4427 C4433 1.429 . S
C4428 C4420 1.574 . S
C4428 H4423 0.949 . S
C4428 C4434 1.368 . S
C4429 C4413 1.349 . S
C4429 H4421 0.950 . S
C4429 C4427 1.327 . S
C4430 C4418 1.349 . S
C4430 H4424 0.950 . S
C4430 C4431 1.327 . S
C4431 H4425 0.950 . S
C4431 C4430 1.327 . S
C4431 C4435 1.429 . S
C4432 C4415 1.574 . S
C4432 H4426 0.949 . S
C4432 C4436 1.368 . S
C4433 C4414 1.429 . S
C4433 C4427 1.429 . S
C4433 C4434 1.523 . S
C4434 C4415 1.368 . S
C4434 C4428 1.368 . S
C4434 C4433 1.523 . S
C4435 C4419 1.429 . S
C4435 C4431 1.429 . S
C4435 C4436 1.523 . S
C4436 C4420 1.368 . S
C4436 C4432 1.368 . S
C4436 C4435 1.523 . S
H4437 C4412 0.950 . S
H4438 C4414 0.950 . S
H4439 C4415 0.949 . S
H4440 C4417 0.950 . S
H4441 C4419 0.950 . S
C4442 C4443 1.349 . S
C4442 C4444 1.327 . S
C4442 H4467 0.950 . S
C4443 C4442 1.349 . S
C4443 C4459 1.349 . S
C4444 C4442 1.327 . S
C4444 C4463 1.429 . S
C4444 H4468 0.950 . S
C4445 C4462 1.574 . S
C4445 C4464 1.368 . S
C4445 H4469 0.949 . S
H4446 C4450 0.949 . S
C4447 C4448 1.349 . S
C4447 C4449 1.327 . S
C4447 H4470 0.950 . S
C4448 C4447 1.349 . S
C4448 C4460 1.349 . S
C4449 C4447 1.327 . S
C4449 C4465 1.429 . S
C4449 H4471 0.950 . S
C4450 H4446 0.949 . S
C4450 C4458 1.574 . S
C4450 C4466 1.368 . S
H4451 C4459 0.950 . S
H4452 C4457 0.950 . S
H4453 C4458 0.949 . S
H4454 C4460 0.950 . S
H4455 C4461 0.950 . S
H4456 C4462 0.949 . S
C4457 H4452 0.950 . S
C4457 C4459 1.327 . S
C4457 C4463 1.429 . S
C4458 C4450 1.574 . S
C4458 H4453 0.949 . S
C4458 C4464 1.368 . S
C4459 C4443 1.349 . S
C4459 H4451 0.950 . S
C4459 C4457 1.327 . S
C4460 C4448 1.349 . S
C4460 H4454 0.950 . S
C4460 C4461 1.327 . S
C4461 H4455 0.950 . S
C4461 C4460 1.327 . S
C4461 C4465 1.429 . S
C4462 C4445 1.574 . S
C4462 H4456 0.949 . S
C4462 C4466 1.368 . S
C4463 C4444 1.429 . S
C4463 C4457 1.429 . S
C4463 C4464 1.523 . S
C4464 C4445 1.368 . S
C4464 C4458 1.368 . S
C4464 C4463 1.523 . S
C4465 C4449 1.429 . S
C4465 C4461 1.429 . S
C4465 C4466 1.523 . S
C4466 C4450 1.368 . S
C4466 C4462 1.368 . S
C4466 C4465 1.523 . S
H4467 C4442 0.950 . S
H4468 C4444 0.950 . S
H4469 C4445 0.949 . S
H4470 C4447 0.950 . S
H4471 C4449 0.950 . S
C4472 C4473 1.349 . S
C4472 C4474 1.327 . S
C4472 H4497 0.950 . S
C4473 C4472 1.349 . S
C4473 C4489 1.349 . S
C4474 C4472 1.327 . S
C4474 C4493 1.429 . S
C4474 H4498 0.950 . S
C4475 C4492 1.574 . S
C4475 C4494 1.368 . S
C4475 H4499 0.949 . S
H4476 C4480 0.949 . S
C4477 C4478 1.349 . S
C4477 C4479 1.327 . S
C4477 H4500 0.950 . S
C4478 C4477 1.349 . S
C4478 C4490 1.349 . S
C4479 C4477 1.327 . S
C4479 C4495 1.429 . S
C4479 H4501 0.950 . S
C4480 H4476 0.949 . S
C4480 C4488 1.574 . S
C4480 C4496 1.368 . S
H4481 C4489 0.950 . S
H4482 C4487 0.950 . S
H4483 C4488 0.949 . S
H4484 C4490 0.950 . S
H4485 C4491 0.950 . S
H4486 C4492 0.949 . S
C4487 H4482 0.950 . S
C4487 C4489 1.327 . S
C4487 C4493 1.429 . S
C4488 C4480 1.574 . S
C4488 H4483 0.949 . S
C4488 C4494 1.368 . S
C4489 C4473 1.349 . S
C4489 H4481 0.950 . S
C4489 C4487 1.327 . S
C4490 C4478 1.349 . S
C4490 H4484 0.950 . S
C4490 C4491 1.327 . S
C4491 H4485 0.950 . S
C4491 C4490 1.327 . S
C4491 C4495 1.429 . S
C4492 C4475 1.574 . S
C4492 H4486 0.949 . S
C4492 C4496 1.368 . S
C4493 C4474 1.429 . S
C4493 C4487 1.429 . S
C4493 C4494 1.523 . S
C4494 C4475 1.368 . S
C4494 C4488 1.368 . S
C4494 C4493 1.523 . S
C4495 C4479 1.429 . S
C4495 C4491 1.429 . S
C4495 C4496 1.523 . S
C4496 C4480 1.368 . S
C4496 C4492 1.368 . S
C4496 C4495 1.523 . S
H4497 C4472 0.950 . S
H4498 C4474 0.950 . S
H4499 C4475 0.949 . S
H4500 C4477 0.950 . S
H4501 C4479 0.950 . S
C4502 C4503 1.349 . S
C4502 C4504 1.327 . S
C4502 H4527 0.950 . S
C4503 C4502 1.349 . S
C4503 C4519 1.349 . S
C4504 C4502 1.327 . S
C4504 C4523 1.429 . S
C4504 H4528 0.950 . S
C4505 C4522 1.574 . S
C4505 C4524 1.368 . S
C4505 H4529 0.949 . S
H4506 C4510 0.949 . S
C4507 C4508 1.349 . S
C4507 C4509 1.327 . S
C4507 H4530 0.950 . S
C4508 C4507 1.349 . S
C4508 C4520 1.349 . S
C4509 C4507 1.327 . S
C4509 C4525 1.429 . S
C4509 H4531 0.950 . S
C4510 H4506 0.949 . S
C4510 C4518 1.574 . S
C4510 C4526 1.368 . S
H4511 C4519 0.950 . S
H4512 C4517 0.950 . S
H4513 C4518 0.949 . S
H4514 C4520 0.950 . S
H4515 C4521 0.950 . S
H4516 C4522 0.949 . S
C4517 H4512 0.950 . S
C4517 C4519 1.327 . S
C4517 C4523 1.429 . S
C4518 C4510 1.574 . S
C4518 H4513 0.949 . S
C4518 C4524 1.368 . S
C4519 C4503 1.349 . S
C4519 H4511 0.950 . S
C4519 C4517 1.327 . S
C4520 C4508 1.349 . S
C4520 H4514 0.950 . S
C4520 C4521 1.327 . S
C4521 H4515 0.950 . S
C4521 C4520 1.327 . S
C4521 C4525 1.429 . S
C4522 C4505 1.574 . S
C4522 H4516 0.949 . S
C4522 C4526 1.368 . S
C4523 C4504 1.429 . S
C4523 C4517 1.429 . S
C4523 C4524 1.523 . S
C4524 C4505 1.368 . S
C4524 C4518 1.368 . S
C4524 C4523 1.523 . S
C4525 C4509 1.429 . S
C4525 C4521 1.429 . S
C4525 C4526 1.523 . S
C4526 C4510 1.368 . S
C4526 C4522 1.368 . S
C4526 C4525 1.523 . S
H4527 C4502 0.950 . S
H4528 C4504 0.950 . S
H4529 C4505 0.949 . S
H4530 C4507 0.950 . S
H4531 C4509 0.950 . S
C4532 C4533 1.349 . S
C4532 C4534 1.327 . S
C4532 H4557 0.950 . S
C4533 C4532 1.349 . S
C4533 C4549 1.349 . S
C4534 C4532 1.327 . S
C4534 C4553 1.429 . S
C4534 H4558 0.950 . S
C4535 C4552 1.574 . S
C4535 C4554 1.368 . S
C4535 H4559 0.949 . S
H4536 C4540 0.949 . S
C4537 C4538 1.349 . S
C4537 C4539 1.327 . S
C4537 H4560 0.950 . S
C4538 C4537 1.349 . S
C4538 C4550 1.349 . S
C4539 C4537 1.327 . S
C4539 C4555 1.429 . S
C4539 H4561 0.950 . S
C4540 H4536 0.949 . S
C4540 C4548 1.574 . S
C4540 C4556 1.368 . S
H4541 C4549 0.950 . S
H4542 C4547 0.950 . S
H4543 C4548 0.949 . S
H4544 C4550 0.950 . S
H4545 C4551 0.950 . S
H4546 C4552 0.949 . S
C4547 H4542 0.950 . S
C4547 C4549 1.327 . S
C4547 C4553 1.429 . S
C4548 C4540 1.574 . S
C4548 H4543 0.949 . S
C4548 C4554 1.368 . S
C4549 C4533 1.349 . S
C4549 H4541 0.950 . S
C4549 C4547 1.327 . S
C4550 C4538 1.349 . S
C4550 H4544 0.950 . S
C4550 C4551 1.327 . S
C4551 H4545 0.950 . S
C4551 C4550 1.327 . S
C4551 C4555 1.429 . S
C4552 C4535 1.574 . S
C4552 H4546 0.949 . S
C4552 C4556 1.368 . S
C4553 C4534 1.429 . S
C4553 C4547 1.429 . S
C4553 C4554 1.523 . S
C4554 C4535 1.368 . S
C4554 C4548 1.368 . S
C4554 C4553 1.523 . S
C4555 C4539 1.429 . S
C4555 C4551 1.429 . S
C4555 C4556 1.523 . S
C4556 C4540 1.368 . S
C4556 C4552 1.368 . S
C4556 C4555 1.523 . S
H4557 C4532 0.950 . S
H4558 C4534 0.950 . S
H4559 C4535 0.949 . S
H4560 C4537 0.950 . S
H4561 C4539 0.950 . S
C4562 C4563 1.349 . S
C4562 C4564 1.327 . S
C4562 H4587 0.950 . S
C4563 C4562 1.349 . S
C4563 C4579 1.349 . S
C4564 C4562 1.327 . S
C4564 C4583 1.429 . S
C4564 H4588 0.950 . S
C4565 C4582 1.574 . S
C4565 C4584 1.368 . S
C4565 H4589 0.949 . S
H4566 C4570 0.949 . S
C4567 C4568 1.349 . S
C4567 C4569 1.327 . S
C4567 H4590 0.950 . S
C4568 C4567 1.349 . S
C4568 C4580 1.349 . S
C4569 C4567 1.327 . S
C4569 C4585 1.429 . S
C4569 H4591 0.950 . S
C4570 H4566 0.949 . S
C4570 C4578 1.574 . S
C4570 C4586 1.368 . S
H4571 C4579 0.950 . S
H4572 C4577 0.950 . S
H4573 C4578 0.949 . S
H4574 C4580 0.950 . S
H4575 C4581 0.950 . S
H4576 C4582 0.949 . S
C4577 H4572 0.950 . S
C4577 C4579 1.327 . S
C4577 C4583 1.429 . S
C4578 C4570 1.574 . S
C4578 H4573 0.949 . S
C4578 C4584 1.368 . S
C4579 C4563 1.349 . S
C4579 H4571 0.950 . S
C4579 C4577 1.327 . S
C4580 C4568 1.349 . S
C4580 H4574 0.950 . S
C4580 C4581 1.327 . S
C4581 H4575 0.950 . S
C4581 C4580 1.327 . S
C4581 C4585 1.429 . S
C4582 C4565 1.574 . S
C4582 H4576 0.949 . S
C4582 C4586 1.368 . S
C4583 C4564 1.429 . S
C4583 C4577 1.429 . S
C4583 C4584 1.523 . S
C4584 C4565 1.368 . S
C4584 C4578 1.368 . S
C4584 C4583 1.523 . S
C4585 C4569 1.429 . S
C4585 C4581 1.429 . S
C4585 C4586 1.523 . S
C4586 C4570 1.368 . S
C4586 C4582 1.368 . S
C4586 C4585 1.523 . S
H4587 C4562 0.950 . S
H4588 C4564 0.950 . S
H4589 C4565 0.949 . S
H4590 C4567 0.950 . S
H4591 C4569 0.950 . S
C4592 C4593 1.349 . S
C4592 C4594 1.327 . S
C4592 H4617 0.950 . S
C4593 C4592 1.349 . S
C4593 C4609 1.349 . S
C4594 C4592 1.327 . S
C4594 C4613 1.429 . S
C4594 H4618 0.950 . S
C4595 C4612 1.574 . S
C4595 C4614 1.368 . S
C4595 H4619 0.949 . S
H4596 C4600 0.949 . S
C4597 C4598 1.349 . S
C4597 C4599 1.327 . S
C4597 H4620 0.950 . S
C4598 C4597 1.349 . S
C4598 C4610 1.349 . S
C4599 C4597 1.327 . S
C4599 C4615 1.429 . S
C4599 H4621 0.950 . S
C4600 H4596 0.949 . S
C4600 C4608 1.574 . S
C4600 C4616 1.368 . S
H4601 C4609 0.950 . S
H4602 C4607 0.950 . S
H4603 C4608 0.949 . S
H4604 C4610 0.950 . S
H4605 C4611 0.950 . S
H4606 C4612 0.949 . S
C4607 H4602 0.950 . S
C4607 C4609 1.327 . S
C4607 C4613 1.429 . S
C4608 C4600 1.574 . S
C4608 H4603 0.949 . S
C4608 C4614 1.368 . S
C4609 C4593 1.349 . S
C4609 H4601 0.950 . S
C4609 C4607 1.327 . S
C4610 C4598 1.349 . S
C4610 H4604 0.950 . S
C4610 C4611 1.327 . S
C4611 H4605 0.950 . S
C4611 C4610 1.327 . S
C4611 C4615 1.429 . S
C4612 C4595 1.574 . S
C4612 H4606 0.949 . S
C4612 C4616 1.368 . S
C4613 C4594 1.429 . S
C4613 C4607 1.429 . S
C4613 C4614 1.523 . S
C4614 C4595 1.368 . S
C4614 C4608 1.368 . S
C4614 C4613 1.523 . S
C4615 C4599 1.429 . S
C4615 C4611 1.429 . S
C4615 C4616 1.523 . S
C4616 C4600 1.368 . S
C4616 C4612 1.368 . S
C4616 C4615 1.523 . S
H4617 C4592 0.950 . S
H4618 C4594 0.950 . S
H4619 C4595 0.949 . S
H4620 C4597 0.950 . S
H4621 C4599 0.950 . S
C4622 C4623 1.349 . S
C4622 C4624 1.327 . S
C4622 H4647 0.950 . S
C4623 C4622 1.349 . S
C4623 C4639 1.349 . S
C4624 C4622 1.327 . S
C4624 C4643 1.429 . S
C4624 H4648 0.950 . S
C4625 C4642 1.574 . S
C4625 C4644 1.368 . S
C4625 H4649 0.949 . S
H4626 C4630 0.949 . S
C4627 C4628 1.349 . S
C4627 C4629 1.327 . S
C4627 H4650 0.950 . S
C4628 C4627 1.349 . S
C4628 C4640 1.349 . S
C4629 C4627 1.327 . S
C4629 C4645 1.429 . S
C4629 H4651 0.950 . S
C4630 H4626 0.949 . S
C4630 C4638 1.574 . S
C4630 C4646 1.368 . S
H4631 C4639 0.950 . S
H4632 C4637 0.950 . S
H4633 C4638 0.949 . S
H4634 C4640 0.950 . S
H4635 C4641 0.950 . S
H4636 C4642 0.949 . S
C4637 H4632 0.950 . S
C4637 C4639 1.327 . S
C4637 C4643 1.429 . S
C4638 C4630 1.574 . S
C4638 H4633 0.949 . S
C4638 C4644 1.368 . S
C4639 C4623 1.349 . S
C4639 H4631 0.950 . S
C4639 C4637 1.327 . S
C4640 C4628 1.349 . S
C4640 H4634 0.950 . S
C4640 C4641 1.327 . S
C4641 H4635 0.950 . S
C4641 C4640 1.327 . S
C4641 C4645 1.429 . S
C4642 C4625 1.574 . S
C4642 H4636 0.949 . S
C4642 C4646 1.368 . S
C4643 C4624 1.429 . S
C4643 C4637 1.429 . S
C4643 C4644 1.523 . S
C4644 C4625 1.368 . S
C4644 C4638 1.368 . S
C4644 C4643 1.523 . S
C4645 C4629 1.429 . S
C4645 C4641 1.429 . S
C4645 C4646 1.523 . S
C4646 C4630 1.368 . S
C4646 C4642 1.368 . S
C4646 C4645 1.523 . S
H4647 C4622 0.950 . S
H4648 C4624 0.950 . S
H4649 C4625 0.949 . S
H4650 C4627 0.950 . S
H4651 C4629 0.950 . S
C4652 C4653 1.349 . S
C4652 C4654 1.327 . S
C4652 H4677 0.950 . S
C4653 C4652 1.349 . S
C4653 C4669 1.349 . S
C4654 C4652 1.327 . S
C4654 C4673 1.429 . S
C4654 H4678 0.950 . S
C4655 C4672 1.574 . S
C4655 C4674 1.368 . S
C4655 H4679 0.949 . S
H4656 C4660 0.949 . S
C4657 C4658 1.349 . S
C4657 C4659 1.327 . S
C4657 H4680 0.950 . S
C4658 C4657 1.349 . S
C4658 C4670 1.349 . S
C4659 C4657 1.327 . S
C4659 C4675 1.429 . S
C4659 H4681 0.950 . S
C4660 H4656 0.949 . S
C4660 C4668 1.574 . S
C4660 C4676 1.368 . S
H4661 C4669 0.950 . S
H4662 C4667 0.950 . S
H4663 C4668 0.949 . S
H4664 C4670 0.950 . S
H4665 C4671 0.950 . S
H4666 C4672 0.949 . S
C4667 H4662 0.950 . S
C4667 C4669 1.327 . S
C4667 C4673 1.429 . S
C4668 C4660 1.574 . S
C4668 H4663 0.949 . S
C4668 C4674 1.368 . S
C4669 C4653 1.349 . S
C4669 H4661 0.950 . S
C4669 C4667 1.327 . S
C4670 C4658 1.349 . S
C4670 H4664 0.950 . S
C4670 C4671 1.327 . S
C4671 H4665 0.950 . S
C4671 C4670 1.327 . S
C4671 C4675 1.429 . S
C4672 C4655 1.574 . S
C4672 H4666 0.949 . S
C4672 C4676 1.368 . S
C4673 C4654 1.429 . S
C4673 C4667 1.429 . S
C4673 C4674 1.523 . S
C4674 C4655 1.368 . S
C4674 C4668 1.368 . S
C4674 C4673 1.523 . S
C4675 C4659 1.429 . S
C4675 C4671 1.429 . S
C4675 C4676 1.523 . S
C4676 C4660 1.368 . S
C4676 C4672 1.368 . S
C4676 C4675 1.523 . S
H4677 C4652 0.950 . S
H4678 C4654 0.950 . S
H4679 C4655 0.949 . S
H4680 C4657 0.950 . S
H4681 C4659 0.950 . S
C4682 C4683 1.349 . S
C4682 C4684 1.327 . S
C4682 H4707 0.950 . S
C4683 C4682 1.349 . S
C4683 C4699 1.349 . S
C4684 C4682 1.327 . S
C4684 C4703 1.429 . S
C4684 H4708 0.950 . S
C4685 C4702 1.574 . S
C4685 C4704 1.368 . S
C4685 H4709 0.949 . S
H4686 C4690 0.949 . S
C4687 C4688 1.349 . S
C4687 C4689 1.327 . S
C4687 H4710 0.950 . S
C4688 C4687 1.349 . S
C4688 C4700 1.349 . S
C4689 C4687 1.327 . S
C4689 C4705 1.429 . S
C4689 H4711 0.950 . S
C4690 H4686 0.949 . S
C4690 C4698 1.574 . S
C4690 C4706 1.368 . S
H4691 C4699 0.950 . S
H4692 C4697 0.950 . S
H4693 C4698 0.949 . S
H4694 C4700 0.950 . S
H4695 C4701 0.950 . S
H4696 C4702 0.949 . S
C4697 H4692 0.950 . S
C4697 C4699 1.327 . S
C4697 C4703 1.429 . S
C4698 C4690 1.574 . S
C4698 H4693 0.949 . S
C4698 C4704 1.368 . S
C4699 C4683 1.349 . S
C4699 H4691 0.950 . S
C4699 C4697 1.327 . S
C4700 C4688 1.349 . S
C4700 H4694 0.950 . S
C4700 C4701 1.327 . S
C4701 H4695 0.950 . S
C4701 C4700 1.327 . S
C4701 C4705 1.429 . S
C4702 C4685 1.574 . S
C4702 H4696 0.949 . S
C4702 C4706 1.368 . S
C4703 C4684 1.429 . S
C4703 C4697 1.429 . S
C4703 C4704 1.523 . S
C4704 C4685 1.368 . S
C4704 C4698 1.368 . S
C4704 C4703 1.523 . S
C4705 C4689 1.429 . S
C4705 C4701 1.429 . S
C4705 C4706 1.523 . S
C4706 C4690 1.368 . S
C4706 C4702 1.368 . S
C4706 C4705 1.523 . S
H4707 C4682 0.950 . S
H4708 C4684 0.950 . S
H4709 C4685 0.949 . S
H4710 C4687 0.950 . S
H4711 C4689 0.950 . S
C4712 C4713 1.349 . S
C4712 C4714 1.327 . S
C4712 H4737 0.950 . S
C4713 C4712 1.349 . S
C4713 C4729 1.349 . S
C4714 C4712 1.327 . S
C4714 C4733 1.429 . S
C4714 H4738 0.950 . S
C4715 C4732 1.574 . S
C4715 C4734 1.368 . S
C4715 H4739 0.949 . S
H4716 C4720 0.949 . S
C4717 C4718 1.349 . S
C4717 C4719 1.327 . S
C4717 H4740 0.950 . S
C4718 C4717 1.349 . S
C4718 C4730 1.349 . S
C4719 C4717 1.327 . S
C4719 C4735 1.429 . S
C4719 H4741 0.950 . S
C4720 H4716 0.949 . S
C4720 C4728 1.574 . S
C4720 C4736 1.368 . S
H4721 C4729 0.950 . S
H4722 C4727 0.950 . S
H4723 C4728 0.949 . S
H4724 C4730 0.950 . S
H4725 C4731 0.950 . S
H4726 C4732 0.949 . S
C4727 H4722 0.950 . S
C4727 C4729 1.327 . S
C4727 C4733 1.429 . S
C4728 C4720 1.574 . S
C4728 H4723 0.949 . S
C4728 C4734 1.368 . S
C4729 C4713 1.349 . S
C4729 H4721 0.950 . S
C4729 C4727 1.327 . S
C4730 C4718 1.349 . S
C4730 H4724 0.950 . S
C4730 C4731 1.327 . S
C4731 H4725 0.950 . S
C4731 C4730 1.327 . S
C4731 C4735 1.429 . S
C4732 C4715 1.574 . S
C4732 H4726 0.949 . S
C4732 C4736 1.368 . S
C4733 C4714 1.429 . S
C4733 C4727 1.429 . S
C4733 C4734 1.523 . S
C4734 C4715 1.368 . S
C4734 C4728 1.368 . S
C4734 C4733 1.523 . S
C4735 C4719 1.429 . S
C4735 C4731 1.429 . S
C4735 C4736 1.523 . S
C4736 C4720 1.368 . S
C4736 C4732 1.368 . S
C4736 C4735 1.523 . S
H4737 C4712 0.950 . S
H4738 C4714 0.950 . S
H4739 C4715 0.949 . S
H4740 C4717 0.950 . S
H4741 C4719 0.950 . S
C4742 C4743 1.349 . S
C4742 C4744 1.327 . S
C4742 H4767 0.950 . S
C4743 C4742 1.349 . S
C4743 C4759 1.349 . S
C4744 C4742 1.327 . S
C4744 C4763 1.429 . S
C4744 H4768 0.950 . S
C4745 C4762 1.574 . S
C4745 C4764 1.368 . S
C4745 H4769 0.949 . S
H4746 C4750 0.949 . S
C4747 C4748 1.349 . S
C4747 C4749 1.327 . S
C4747 H4770 0.950 . S
C4748 C4747 1.349 . S
C4748 C4760 1.349 . S
C4749 C4747 1.327 . S
C4749 C4765 1.429 . S
C4749 H4771 0.950 . S
C4750 H4746 0.949 . S
C4750 C4758 1.574 . S
C4750 C4766 1.368 . S
H4751 C4759 0.950 . S
H4752 C4757 0.950 . S
H4753 C4758 0.949 . S
H4754 C4760 0.950 . S
H4755 C4761 0.950 . S
H4756 C4762 0.949 . S
C4757 H4752 0.950 . S
C4757 C4759 1.327 . S
C4757 C4763 1.429 . S
C4758 C4750 1.574 . S
C4758 H4753 0.949 . S
C4758 C4764 1.368 . S
C4759 C4743 1.349 . S
C4759 H4751 0.950 . S
C4759 C4757 1.327 . S
C4760 C4748 1.349 . S
C4760 H4754 0.950 . S
C4760 C4761 1.327 . S
C4761 H4755 0.950 . S
C4761 C4760 1.327 . S
C4761 C4765 1.429 . S
C4762 C4745 1.574 . S
C4762 H4756 0.949 . S
C4762 C4766 1.368 . S
C4763 C4744 1.429 . S
C4763 C4757 1.429 . S
C4763 C4764 1.523 . S
C4764 C4745 1.368 . S
C4764 C4758 1.368 . S
C4764 C4763 1.523 . S
C4765 C4749 1.429 . S
C4765 C4761 1.429 . S
C4765 C4766 1.523 . S
C4766 C4750 1.368 . S
C4766 C4762 1.368 . S
C4766 C4765 1.523 . S
H4767 C4742 0.950 . S
H4768 C4744 0.950 . S
H4769 C4745 0.949 . S
H4770 C4747 0.950 . S
H4771 C4749 0.950 . S
C4772 C4773 1.349 . S
C4772 C4774 1.327 . S
C4772 H4797 0.950 . S
C4773 C4772 1.349 . S
C4773 C4789 1.349 . S
C4774 C4772 1.327 . S
C4774 C4793 1.429 . S
C4774 H4798 0.950 . S
C4775 C4792 1.574 . S
C4775 C4794 1.368 . S
C4775 H4799 0.949 . S
H4776 C4780 0.949 . S
C4777 C4778 1.349 . S
C4777 C4779 1.327 . S
C4777 H4800 0.950 . S
C4778 C4777 1.349 . S
C4778 C4790 1.349 . S
C4779 C4777 1.327 . S
C4779 C4795 1.429 . S
C4779 H4801 0.950 . S
C4780 H4776 0.949 . S
C4780 C4788 1.574 . S
C4780 C4796 1.368 . S
H4781 C4789 0.950 . S
H4782 C4787 0.950 . S
H4783 C4788 0.949 . S
H4784 C4790 0.950 . S
H4785 C4791 0.950 . S
H4786 C4792 0.949 . S
C4787 H4782 0.950 . S
C4787 C4789 1.327 . S
C4787 C4793 1.429 . S
C4788 C4780 1.574 . S
C4788 H4783 0.949 . S
C4788 C4794 1.368 . S
C4789 C4773 1.349 . S
C4789 H4781 0.950 . S
C4789 C4787 1.327 . S
C4790 C4778 1.349 . S
C4790 H4784 0.950 . S
C4790 C4791 1.327 . S
C4791 H4785 0.950 . S
C4791 C4790 1.327 . S
C4791 C4795 1.429 . S
C4792 C4775 1.574 . S
C4792 H4786 0.949 . S
C4792 C4796 1.368 . S
C4793 C4774 1.429 . S
C4793 C4787 1.429 . S
C4793 C4794 1.523 . S
C4794 C4775 1.368 . S
C4794 C4788 1.368 . S
C4794 C4793 1.523 . S
C4795 C4779 1.429 . S
C4795 C4791 1.429 . S
C4795 C4796 1.523 . S
C4796 C4780 1.368 . S
C4796 C4792 1.368 . S
C4796 C4795 1.523 . S
H4797 C4772 0.950 . S
H4798 C4774 0.950 . S
H4799 C4775 0.949 . S
H4800 C4777 0.950 . S
H4801 C4779 0.950 . S
C4802 C4803 1.349 . S
C4802 C4804 1.327 . S
C4802 H4827 0.950 . S
C4803 C4802 1.349 . S
C4803 C4819 1.349 . S
C4804 C4802 1.327 . S
C4804 C4823 1.429 . S
C4804 H4828 0.950 . S
C4805 C4822 1.574 . S
C4805 C4824 1.368 . S
C4805 H4829 0.949 . S
H4806 C4810 0.949 . S
C4807 C4808 1.349 . S
C4807 C4809 1.327 . S
C4807 H4830 0.950 . S
C4808 C4807 1.349 . S
C4808 C4820 1.349 . S
C4809 C4807 1.327 . S
C4809 C4825 1.429 . S
C4809 H4831 0.950 . S
C4810 H4806 0.949 . S
C4810 C4818 1.574 . S
C4810 C4826 1.368 . S
H4811 C4819 0.950 . S
H4812 C4817 0.950 . S
H4813 C4818 0.949 . S
H4814 C4820 0.950 . S
H4815 C4821 0.950 . S
H4816 C4822 0.949 . S
C4817 H4812 0.950 . S
C4817 C4819 1.327 . S
C4817 C4823 1.429 . S
C4818 C4810 1.574 . S
C4818 H4813 0.949 . S
C4818 C4824 1.368 . S
C4819 C4803 1.349 . S
C4819 H4811 0.950 . S
C4819 C4817 1.327 . S
C4820 C4808 1.349 . S
C4820 H4814 0.950 . S
C4820 C4821 1.327 . S
C4821 H4815 0.950 . S
C4821 C4820 1.327 . S
C4821 C4825 1.429 . S
C4822 C4805 1.574 . S
C4822 H4816 0.949 . S
C4822 C4826 1.368 . S
C4823 C4804 1.429 . S
C4823 C4817 1.429 . S
C4823 C4824 1.523 . S
C4824 C4805 1.368 . S
C4824 C4818 1.368 . S
C4824 C4823 1.523 . S
C4825 C4809 1.429 . S
C4825 C4821 1.429 . S
C4825 C4826 1.523 . S
C4826 C4810 1.368 . S
C4826 C4822 1.368 . S
C4826 C4825 1.523 . S
H4827 C4802 0.950 . S
H4828 C4804 0.950 . S
H4829 C4805 0.949 . S
H4830 C4807 0.950 . S
H4831 C4809 0.950 . S
C4832 C4833 1.349 . S
C4832 C4834 1.327 . S
C4832 H4857 0.950 . S
C4833 C4832 1.349 . S
C4833 C4849 1.349 . S
C4834 C4832 1.327 . S
C4834 C4853 1.429 . S
C4834 H4858 0.950 . S
C4835 C4852 1.574 . S
C4835 C4854 1.368 . S
C4835 H4859 0.949 . S
H4836 C4840 0.949 . S
C4837 C4838 1.349 . S
C4837 C4839 1.327 . S
C4837 H4860 0.950 . S
C4838 C4837 1.349 . S
C4838 C4850 1.349 . S
C4839 C4837 1.327 . S
C4839 C4855 1.429 . S
C4839 H4861 0.950 . S
C4840 H4836 0.949 . S
C4840 C4848 1.574 . S
C4840 C4856 1.368 . S
H4841 C4849 0.950 . S
H4842 C4847 0.950 . S
H4843 C4848 0.949 . S
H4844 C4850 0.950 . S
H4845 C4851 0.950 . S
H4846 C4852 0.949 . S
C4847 H4842 0.950 . S
C4847 C4849 1.327 . S
C4847 C4853 1.429 . S
C4848 C4840 1.574 . S
C4848 H4843 0.949 . S
C4848 C4854 1.368 . S
C4849 C4833 1.349 . S
C4849 H4841 0.950 . S
C4849 C4847 1.327 . S
C4850 C4838 1.349 . S
C4850 H4844 0.950 . S
C4850 C4851 1.327 . S
C4851 H4845 0.950 . S
C4851 C4850 1.327 . S
C4851 C4855 1.429 . S
C4852 C4835 1.574 . S
C4852 H4846 0.949 . S
C4852 C4856 1.368 . S
C4853 C4834 1.429 . S
C4853 C4847 1.429 . S
C4853 C4854 1.523 . S
C4854 C4835 1.368 . S
C4854 C4848 1.368 . S
C4854 C4853 1.523 . S
C4855 C4839 1.429 . S
C4855 C4851 1.429 . S
C4855 C4856 1.523 . S
C4856 C4840 1.368 . S
C4856 C4852 1.368 . S
C4856 C4855 1.523 . S
H4857 C4832 0.950 . S
H4858 C4834 0.950 . S
H4859 C4835 0.949 . S
H4860 C4837 0.950 . S
H4861 C4839 0.950 . S
C4862 C4863 1.349 . S
C4862 C4864 1.327 . S
C4862 H4887 0.950 . S
C4863 C4862 1.349 . S
C4863 C4879 1.349 . S
C4864 C4862 1.327 . S
C4864 C4883 1.429 . S
C4864 H4888 0.950 . S
C4865 C4882 1.574 . S
C4865 C4884 1.368 . S
C4865 H4889 0.949 . S
H4866 C4870 0.949 . S
C4867 C4868 1.349 . S
C4867 C4869 1.327 . S
C4867 H4890 0.950 . S
C4868 C4867 1.349 . S
C4868 C4880 1.349 . S
C4869 C4867 1.327 . S
C4869 C4885 1.429 . S
C4869 H4891 0.950 . S
C4870 H4866 0.949 . S
C4870 C4878 1.574 . S
C4870 C4886 1.368 . S
H4871 C4879 0.950 . S
H4872 C4877 0.950 . S
H4873 C4878 0.949 . S
H4874 C4880 0.950 . S
H4875 C4881 0.950 . S
H4876 C4882 0.949 . S
C4877 H4872 0.950 . S
C4877 C4879 1.327 . S
C4877 C4883 1.429 . S
C4878 C4870 1.574 . S
C4878 H4873 0.949 . S
C4878 C4884 1.368 . S
C4879 C4863 1.349 . S
C4879 H4871 0.950 . S
C4879 C4877 1.327 . S
C4880 C4868 1.349 . S
C4880 H4874 0.950 . S
C4880 C4881 1.327 . S
C4881 H4875 0.950 . S
C4881 C4880 1.327 . S
C4881 C4885 1.429 . S
C4882 C4865 1.574 . S
C4882 H4876 0.949 . S
C4882 C4886 1.368 . S
C4883 C4864 1.429 . S
C4883 C4877 1.429 . S
C4883 C4884 1.523 . S
C4884 C4865 1.368 . S
C4884 C4878 1.368 . S
C4884 C4883 1.523 . S
C4885 C4869 1.429 . S
C4885 C4881 1.429 . S
C4885 C4886 1.523 . S
C4886 C4870 1.368 . S
C4886 C4882 1.368 . S
C4886 C4885 1.523 . S
H4887 C4862 0.950 . S
H4888 C4864 0.950 . S
H4889 C4865 0.949 . S
H4890 C4867 0.950 . S
H4891 C4869 0.950 . S
C4892 C4893 1.349 . S
C4892 C4894 1.327 . S
C4892 H4917 0.950 . S
C4893 C4892 1.349 . S
C4893 C4909 1.349 . S
C4894 C4892 1.327 . S
C4894 C4913 1.429 . S
C4894 H4918 0.950 . S
C4895 C4912 1.574 . S
C4895 C4914 1.368 . S
C4895 H4919 0.949 . S
H4896 C4900 0.949 . S
C4897 C4898 1.349 . S
C4897 C4899 1.327 . S
C4897 H4920 0.950 . S
C4898 C4897 1.349 . S
C4898 C4910 1.349 . S
C4899 C4897 1.327 . S
C4899 C4915 1.429 . S
C4899 H4921 0.950 . S
C4900 H4896 0.949 . S
C4900 C4908 1.574 . S
C4900 C4916 1.368 . S
H4901 C4909 0.950 . S
H4902 C4907 0.950 . S
H4903 C4908 0.949 . S
H4904 C4910 0.950 . S
H4905 C4911 0.950 . S
H4906 C4912 0.949 . S
C4907 H4902 0.950 . S
C4907 C4909 1.327 . S
C4907 C4913 1.429 . S
C4908 C4900 1.574 . S
C4908 H4903 0.949 . S
C4908 C4914 1.368 . S
C4909 C4893 1.349 . S
C4909 H4901 0.950 . S
C4909 C4907 1.327 . S
C4910 C4898 1.349 . S
C4910 H4904 0.950 . S
C4910 C4911 1.327 . S
C4911 H4905 0.950 . S
C4911 C4910 1.327 . S
C4911 C4915 1.429 . S
C4912 C4895 1.574 . S
C4912 H4906 0.949 . S
C4912 C4916 1.368 . S
C4913 C4894 1.429 . S
C4913 C4907 1.429 . S
C4913 C4914 1.523 . S
C4914 C4895 1.368 . S
C4914 C4908 1.368 . S
C4914 C4913 1.523 . S
C4915 C4899 1.429 . S
C4915 C4911 1.429 . S
C4915 C4916 1.523 . S
C4916 C4900 1.368 . S
C4916 C4912 1.368 . S
C4916 C4915 1.523 . S
H4917 C4892 0.950 . S
H4918 C4894 0.950 . S
H4919 C4895 0.949 . S
H4920 C4897 0.950 . S
H4921 C4899 0.950 . S
C4922 C4923 1.349 . S
C4922 C4924 1.327 . S
C4922 H4947 0.950 . S
C4923 C4922 1.349 . S
C4923 C4939 1.349 . S
C4924 C4922 1.327 . S
C4924 C4943 1.429 . S
C4924 H4948 0.950 . S
C4925 C4942 1.574 . S
C4925 C4944 1.368 . S
C4925 H4949 0.949 . S
H4926 C4930 0.949 . S
C4927 C4928 1.349 . S
C4927 C4929 1.327 . S
C4927 H4950 0.950 . S
C4928 C4927 1.349 . S
C4928 C4940 1.349 . S
C4929 C4927 1.327 . S
C4929 C4945 1.429 . S
C4929 H4951 0.950 . S
C4930 H4926 0.949 . S
C4930 C4938 1.574 . S
C4930 C4946 1.368 . S
H4931 C4939 0.950 . S
H4932 C4937 0.950 . S
H4933 C4938 0.949 . S
H4934 C4940 0.950 . S
H4935 C4941 0.950 . S
H4936 C4942 0.949 . S
C4937 H4932 0.950 . S
C4937 C4939 1.327 . S
C4937 C4943 1.429 . S
C4938 C4930 1.574 . S
C4938 H4933 0.949 . S
C4938 C4944 1.368 . S
C4939 C4923 1.349 . S
C4939 H4931 0.950 . S
C4939 C4937 1.327 . S
C4940 C4928 1.349 . S
C4940 H4934 0.950 . S
C4940 C4941 1.327 . S
C4941 H4935 0.950 . S
C4941 C4940 1.327 . S
C4941 C4945 1.429 . S
C4942 C4925 1.574 . S
C4942 H4936 0.949 . S
C4942 C4946 1.368 . S
C4943 C4924 1.429 . S
C4943 C4937 1.429 . S
C4943 C4944 1.523 . S
C4944 C4925 1.368 . S
C4944 C4938 1.368 . S
C4944 C4943 1.523 . S
C4945 C4929 1.429 . S
C4945 C4941 1.429 . S
C4945 C4946 1.523 . S
C4946 C4930 1.368 . S
C4946 C4942 1.368 . S
C4946 C4945 1.523 . S
H4947 C4922 0.950 . S
H4948 C4924 0.950 . S
H4949 C4925 0.949 . S
H4950 C4927 0.950 . S
H4951 C4929 0.950 . S
C4952 C4953 1.349 . S
C4952 C4954 1.327 . S
C4952 H4977 0.950 . S
C4953 C4952 1.349 . S
C4953 C4969 1.349 . S
C4954 C4952 1.327 . S
C4954 C4973 1.429 . S
C4954 H4978 0.950 . S
C4955 C4972 1.574 . S
C4955 C4974 1.368 . S
C4955 H4979 0.949 . S
H4956 C4960 0.949 . S
C4957 C4958 1.349 . S
C4957 C4959 1.327 . S
C4957 H4980 0.950 . S
C4958 C4957 1.349 . S
C4958 C4970 1.349 . S
C4959 C4957 1.327 . S
C4959 C4975 1.429 . S
C4959 H4981 0.950 . S
C4960 H4956 0.949 . S
C4960 C4968 1.574 . S
C4960 C4976 1.368 . S
H4961 C4969 0.950 . S
H4962 C4967 0.950 . S
H4963 C4968 0.949 . S
H4964 C4970 0.950 . S
H4965 C4971 0.950 . S
H4966 C4972 0.949 . S
C4967 H4962 0.950 . S
C4967 C4969 1.327 . S
C4967 C4973 1.429 . S
C4968 C4960 1.574 . S
C4968 H4963 0.949 . S
C4968 C4974 1.368 . S
C4969 C4953 1.349 . S
C4969 H4961 0.950 . S
C4969 C4967 1.327 . S
C4970 C4958 1.349 . S
C4970 H4964 0.950 . S
C4970 C4971 1.327 . S
C4971 H4965 0.950 . S
C4971 C4970 1.327 . S
C4971 C4975 1.429 . S
C4972 C4955 1.574 . S
C4972 H4966 0.949 . S
C4972 C4976 1.368 . S
C4973 C4954 1.429 . S
C4973 C4967 1.429 . S
C4973 C4974 1.523 . S
C4974 C4955 1.368 . S
C4974 C4968 1.368 . S
C4974 C4973 1.523 . S
C4975 C4959 1.429 . S
C4975 C4971 1.429 . S
C4975 C4976 1.523 . S
C4976 C4960 1.368 . S
C4976 C4972 1.368 . S
C4976 C4975 1.523 . S
H4977 C4952 0.950 . S
H4978 C4954 0.950 . S
H4979 C4955 0.949 . S
H4980 C4957 0.950 . S
H4981 C4959 0.950 . S
C4982 C4983 1.349 . S
C4982 C4984 1.327 . S
C4982 H5007 0.950 . S
C4983 C4982 1.349 . S
C4983 C4999 1.349 . S
C4984 C4982 1.327 . S
C4984 C5003 1.429 . S
C4984 H5008 0.950 . S
C4985 C5002 1.574 . S
C4985 C5004 1.368 . S
C4985 H5009 0.949 . S
H4986 C4990 0.949 . S
C4987 C4988 1.349 . S
C4987 C4989 1.327 . S
C4987 H5010 0.950 . S
C4988 C4987 1.349 . S
C4988 C5000 1.349 . S
C4989 C4987 1.327 . S
C4989 C5005 1.429 . S
C4989 H5011 0.950 . S
C4990 H4986 0.949 . S
C4990 C4998 1.574 . S
C4990 C5006 1.368 . S
H4991 C4999 0.950 . S
H4992 C4997 0.950 . S
H4993 C4998 0.949 . S
H4994 C5000 0.950 . S
H4995 C5001 0.950 . S
H4996 C5002 0.949 . S
C4997 H4992 0.950 . S
C4997 C4999 1.327 . S
C4997 C5003 1.429 . S
C4998 C4990 1.574 . S
C4998 H4993 0.949 . S
C4998 C5004 1.368 . S
C4999 C4983 1.349 . S
C4999 H4991 0.950 . S
C4999 C4997 1.327 . S
C5000 C4988 1.349 . S
C5000 H4994 0.950 . S
C5000 C5001 1.327 . S
C5001 H4995 0.950 . S
C5001 C5000 1.327 . S
C5001 C5005 1.429 . S
C5002 C4985 1.574 . S
C5002 H4996 0.949 . S
C5002 C5006 1.368 . S
C5003 C4984 1.429 . S
C5003 C4997 1.429 . S
C5003 C5004 1.523 . S
C5004 C4985 1.368 . S
C5004 C4998 1.368 . S
C5004 C5003 1.523 . S
C5005 C4989 1.429 . S
C5005 C5001 1.429 . S
C5005 C5006 1.523 . S
C5006 C4990 1.368 . S
C5006 C5002 1.368 . S
C5006 C5005 1.523 . S
H5007 C4982 0.950 . S
H5008 C4984 0.950 . S
H5009 C4985 0.949 . S
H5010 C4987 0.950 . S
H5011 C4989 0.950 . S
C5012 C5013 1.349 . S
C5012 C5014 1.327 . S
C5012 H5037 0.950 . S
C5013 C5012 1.349 . S
C5013 C5029 1.349 . S
C5014 C5012 1.327 . S
C5014 C5033 1.429 . S
C5014 H5038 0.950 . S
C5015 C5032 1.574 . S
C5015 C5034 1.368 . S
C5015 H5039 0.949 . S
H5016 C5020 0.949 . S
C5017 C5018 1.349 . S
C5017 C5019 1.327 . S
C5017 H5040 0.950 . S
C5018 C5017 1.349 . S
C5018 C5030 1.349 . S
C5019 C5017 1.327 . S
C5019 C5035 1.429 . S
C5019 H5041 0.950 . S
C5020 H5016 0.949 . S
C5020 C5028 1.574 . S
C5020 C5036 1.368 . S
H5021 C5029 0.950 . S
H5022 C5027 0.950 . S
H5023 C5028 0.949 . S
H5024 C5030 0.950 . S
H5025 C5031 0.950 . S
H5026 C5032 0.949 . S
C5027 H5022 0.950 . S
C5027 C5029 1.327 . S
C5027 C5033 1.429 . S
C5028 C5020 1.574 . S
C5028 H5023 0.949 . S
C5028 C5034 1.368 . S
C5029 C5013 1.349 . S
C5029 H5021 0.950 . S
C5029 C5027 1.327 . S
C5030 C5018 1.349 . S
C5030 H5024 0.950 . S
C5030 C5031 1.327 . S
C5031 H5025 0.950 . S
C5031 C5030 1.327 . S
C5031 C5035 1.429 . S
C5032 C5015 1.574 . S
C5032 H5026 0.949 . S
C5032 C5036 1.368 . S
C5033 C5014 1.429 . S
C5033 C5027 1.429 . S
C5033 C5034 1.523 . S
C5034 C5015 1.368 . S
C5034 C5028 1.368 . S
C5034 C5033 1.523 . S
C5035 C5019 1.429 . S
C5035 C5031 1.429 . S
C5035 C5036 1.523 . S
C5036 C5020 1.368 . S
C5036 C5032 1.368 . S
C5036 C5035 1.523 . S
H5037 C5012 0.950 . S
H5038 C5014 0.950 . S
H5039 C5015 0.949 . S
H5040 C5017 0.950 . S
H5041 C5019 0.950 . S
C5042 C5043 1.349 . S
C5042 C5044 1.327 . S
C5042 H5067 0.950 . S
C5043 C5042 1.349 . S
C5043 C5059 1.349 . S
C5044 C5042 1.327 . S
C5044 C5063 1.429 . S
C5044 H5068 0.950 . S
C5045 C5062 1.574 . S
C5045 C5064 1.368 . S
C5045 H5069 0.949 . S
H5046 C5050 0.949 . S
C5047 C5048 1.349 . S
C5047 C5049 1.327 . S
C5047 H5070 0.950 . S
C5048 C5047 1.349 . S
C5048 C5060 1.349 . S
C5049 C5047 1.327 . S
C5049 C5065 1.429 . S
C5049 H5071 0.950 . S
C5050 H5046 0.949 . S
C5050 C5058 1.574 . S
C5050 C5066 1.368 . S
H5051 C5059 0.950 . S
H5052 C5057 0.950 . S
H5053 C5058 0.949 . S
H5054 C5060 0.950 . S
H5055 C5061 0.950 . S
H5056 C5062 0.949 . S
C5057 H5052 0.950 . S
C5057 C5059 1.327 . S
C5057 C5063 1.429 . S
C5058 C5050 1.574 . S
C5058 H5053 0.949 . S
C5058 C5064 1.368 . S
C5059 C5043 1.349 . S
C5059 H5051 0.950 . S
C5059 C5057 1.327 . S
C5060 C5048 1.349 . S
C5060 H5054 0.950 . S
C5060 C5061 1.327 . S
C5061 H5055 0.950 . S
C5061 C5060 1.327 . S
C5061 C5065 1.429 . S
C5062 C5045 1.574 . S
C5062 H5056 0.949 . S
C5062 C5066 1.368 . S
C5063 C5044 1.429 . S
C5063 C5057 1.429 . S
C5063 C5064 1.523 . S
C5064 C5045 1.368 . S
C5064 C5058 1.368 . S
C5064 C5063 1.523 . S
C5065 C5049 1.429 . S
C5065 C5061 1.429 . S
C5065 C5066 1.523 . S
C5066 C5050 1.368 . S
C5066 C5062 1.368 . S
C5066 C5065 1.523 . S
H5067 C5042 0.950 . S
H5068 C5044 0.950 . S
H5069 C5045 0.949 . S
H5070 C5047 0.950 . S
H5071 C5049 0.950 . S
C5072 C5073 1.349 . S
C5072 C5074 1.327 . S
C5072 H5097 0.950 . S
C5073 C5072 1.349 . S
C5073 C5089 1.349 . S
C5074 C5072 1.327 . S
C5074 C5093 1.429 . S
C5074 H5098 0.950 . S
C5075 C5092 1.574 . S
C5075 C5094 1.368 . S
C5075 H5099 0.949 . S
H5076 C5080 0.949 . S
C5077 C5078 1.349 . S
C5077 C5079 1.327 . S
C5077 H5100 0.950 . S
C5078 C5077 1.349 . S
C5078 C5090 1.349 . S
C5079 C5077 1.327 . S
C5079 C5095 1.429 . S
C5079 H5101 0.950 . S
C5080 H5076 0.949 . S
C5080 C5088 1.574 . S
C5080 C5096 1.368 . S
H5081 C5089 0.950 . S
H5082 C5087 0.950 . S
H5083 C5088 0.949 . S
H5084 C5090 0.950 . S
H5085 C5091 0.950 . S
H5086 C5092 0.949 . S
C5087 H5082 0.950 . S
C5087 C5089 1.327 . S
C5087 C5093 1.429 . S
C5088 C5080 1.574 . S
C5088 H5083 0.949 . S
C5088 C5094 1.368 . S
C5089 C5073 1.349 . S
C5089 H5081 0.950 . S
C5089 C5087 1.327 . S
C5090 C5078 1.349 . S
C5090 H5084 0.950 . S
C5090 C5091 1.327 . S
C5091 H5085 0.950 . S
C5091 C5090 1.327 . S
C5091 C5095 1.429 . S
C5092 C5075 1.574 . S
C5092 H5086 0.949 . S
C5092 C5096 1.368 . S
C5093 C5074 1.429 . S
C5093 C5087 1.429 . S
C5093 C5094 1.523 . S
C5094 C5075 1.368 . S
C5094 C5088 1.368 . S
C5094 C5093 1.523 . S
C5095 C5079 1.429 . S
C5095 C5091 1.429 . S
C5095 C5096 1.523 . S
C5096 C5080 1.368 . S
C5096 C5092 1.368 . S
C5096 C5095 1.523 . S
H5097 C5072 0.950 . S
H5098 C5074 0.950 . S
H5099 C5075 0.949 . S
H5100 C5077 0.950 . S
H5101 C5079 0.950 . S
C5102 C5103 1.349 . S
C5102 C5104 1.327 . S
C5102 H5127 0.950 . S
C5103 C5102 1.349 . S
C5103 C5119 1.349 . S
C5104 C5102 1.327 . S
C5104 C5123 1.429 . S
C5104 H5128 0.950 . S
C5105 C5122 1.574 . S
C5105 C5124 1.368 . S
C5105 H5129 0.949 . S
H5106 C5110 0.949 . S
C5107 C5108 1.349 . S
C5107 C5109 1.327 . S
C5107 H5130 0.950 . S
C5108 C5107 1.349 . S
C5108 C5120 1.349 . S
C5109 C5107 1.327 . S
C5109 C5125 1.429 . S
C5109 H5131 0.950 . S
C5110 H5106 0.949 . S
C5110 C5118 1.574 . S
C5110 C5126 1.368 . S
H5111 C5119 0.950 . S
H5112 C5117 0.950 . S
H5113 C5118 0.949 . S
H5114 C5120 0.950 . S
H5115 C5121 0.950 . S
H5116 C5122 0.949 . S
C5117 H5112 0.950 . S
C5117 C5119 1.327 . S
C5117 C5123 1.429 . S
C5118 C5110 1.574 . S
C5118 H5113 0.949 . S
C5118 C5124 1.368 . S
C5119 C5103 1.349 . S
C5119 H5111 0.950 . S
C5119 C5117 1.327 . S
C5120 C5108 1.349 . S
C5120 H5114 0.950 . S
C5120 C5121 1.327 . S
C5121 H5115 0.950 . S
C5121 C5120 1.327 . S
C5121 C5125 1.429 . S
C5122 C5105 1.574 . S
C5122 H5116 0.949 . S
C5122 C5126 1.368 . S
C5123 C5104 1.429 . S
C5123 C5117 1.429 . S
C5123 C5124 1.523 . S
C5124 C5105 1.368 . S
C5124 C5118 1.368 . S
C5124 C5123 1.523 . S
C5125 C5109 1.429 . S
C5125 C5121 1.429 . S
C5125 C5126 1.523 . S
C5126 C5110 1.368 . S
C5126 C5122 1.368 . S
C5126 C5125 1.523 . S
H5127 C5102 0.950 . S
H5128 C5104 0.950 . S
H5129 C5105 0.949 . S
H5130 C5107 0.950 . S
H5131 C5109 0.950 . S
C5132 C5133 1.349 . S
C5132 C5134 1.327 . S
C5132 H5157 0.950 . S
C5133 C5132 1.349 . S
C5133 C5149 1.349 . S
C5134 C5132 1.327 . S
C5134 C5153 1.429 . S
C5134 H5158 0.950 . S
C5135 C5152 1.574 . S
C5135 C5154 1.368 . S
C5135 H5159 0.949 . S
H5136 C5140 0.949 . S
C5137 C5138 1.349 . S
C5137 C5139 1.327 . S
C5137 H5160 0.950 . S
C5138 C5137 1.349 . S
C5138 C5150 1.349 . S
C5139 C5137 1.327 . S
C5139 C5155 1.429 . S
C5139 H5161 0.950 . S
C5140 H5136 0.949 . S
C5140 C5148 1.574 . S
C5140 C5156 1.368 . S
H5141 C5149 0.950 . S
H5142 C5147 0.950 . S
H5143 C5148 0.949 . S
H5144 C5150 0.950 . S
H5145 C5151 0.950 . S
H5146 C5152 0.949 . S
C5147 H5142 0.950 . S
C5147 C5149 1.327 . S
C5147 C5153 1.429 . S
C5148 C5140 1.574 . S
C5148 H5143 0.949 . S
C5148 C5154 1.368 . S
C5149 C5133 1.349 . S
C5149 H5141 0.950 . S
C5149 C5147 1.327 . S
C5150 C5138 1.349 . S
C5150 H5144 0.950 . S
C5150 C5151 1.327 . S
C5151 H5145 0.950 . S
C5151 C5150 1.327 . S
C5151 C5155 1.429 . S
C5152 C5135 1.574 . S
C5152 H5146 0.949 . S
C5152 C5156 1.368 . S
C5153 C5134 1.429 . S
C5153 C5147 1.429 . S
C5153 C5154 1.523 . S
C5154 C5135 1.368 . S
C5154 C5148 1.368 . S
C5154 C5153 1.523 . S
C5155 C5139 1.429 . S
C5155 C5151 1.429 . S
C5155 C5156 1.523 . S
C5156 C5140 1.368 . S
C5156 C5152 1.368 . S
C5156 C5155 1.523 . S
H5157 C5132 0.950 . S
H5158 C5134 0.950 . S
H5159 C5135 0.949 . S
H5160 C5137 0.950 . S
H5161 C5139 0.950 . S
C5162 C5163 1.349 . S
C5162 C5164 1.327 . S
C5162 H5187 0.950 . S
C5163 C5162 1.349 . S
C5163 C5179 1.349 . S
C5164 C5162 1.327 . S
C5164 C5183 1.429 . S
C5164 H5188 0.950 . S
C5165 C5182 1.574 . S
C5165 C5184 1.368 . S
C5165 H5189 0.949 . S
H5166 C5170 0.949 . S
C5167 C5168 1.349 . S
C5167 C5169 1.327 . S
C5167 H5190 0.950 . S
C5168 C5167 1.349 . S
C5168 C5180 1.349 . S
C5169 C5167 1.327 . S
C5169 C5185 1.429 . S
C5169 H5191 0.950 . S
C5170 H5166 0.949 . S
C5170 C5178 1.574 . S
C5170 C5186 1.368 . S
H5171 C5179 0.950 . S
H5172 C5177 0.950 . S
H5173 C5178 0.949 . S
H5174 C5180 0.950 . S
H5175 C5181 0.950 . S
H5176 C5182 0.949 . S
C5177 H5172 0.950 . S
C5177 C5179 1.327 . S
C5177 C5183 1.429 . S
C5178 C5170 1.574 . S
C5178 H5173 0.949 . S
C5178 C5184 1.368 . S
C5179 C5163 1.349 . S
C5179 H5171 0.950 . S
C5179 C5177 1.327 . S
C5180 C5168 1.349 . S
C5180 H5174 0.950 . S
C5180 C5181 1.327 . S
C5181 H5175 0.950 . S
C5181 C5180 1.327 . S
C5181 C5185 1.429 . S
C5182 C5165 1.574 . S
C5182 H5176 0.949 . S
C5182 C5186 1.368 . S
C5183 C5164 1.429 . S
C5183 C5177 1.429 . S
C5183 C5184 1.523 . S
C5184 C5165 1.368 . S
C5184 C5178 1.368 . S
C5184 C5183 1.523 . S
C5185 C5169 1.429 . S
C5185 C5181 1.429 . S
C5185 C5186 1.523 . S
C5186 C5170 1.368 . S
C5186 C5182 1.368 . S
C5186 C5185 1.523 . S
H5187 C5162 0.950 . S
H5188 C5164 0.950 . S
H5189 C5165 0.949 . S
H5190 C5167 0.950 . S
H5191 C5169 0.950 . S
C5192 C5193 1.349 . S
C5192 C5194 1.327 . S
C5192 H5217 0.950 . S
C5193 C5192 1.349 . S
C5193 C5209 1.349 . S
C5194 C5192 1.327 . S
C5194 C5213 1.429 . S
C5194 H5218 0.950 . S
C5195 C5212 1.574 . S
C5195 C5214 1.368 . S
C5195 H5219 0.949 . S
H5196 C5200 0.949 . S
C5197 C5198 1.349 . S
C5197 C5199 1.327 . S
C5197 H5220 0.950 . S
C5198 C5197 1.349 . S
C5198 C5210 1.349 . S
C5199 C5197 1.327 . S
C5199 C5215 1.429 . S
C5199 H5221 0.950 . S
C5200 H5196 0.949 . S
C5200 C5208 1.574 . S
C5200 C5216 1.368 . S
H5201 C5209 0.950 . S
H5202 C5207 0.950 . S
H5203 C5208 0.949 . S
H5204 C5210 0.950 . S
H5205 C5211 0.950 . S
H5206 C5212 0.949 . S
C5207 H5202 0.950 . S
C5207 C5209 1.327 . S
C5207 C5213 1.429 . S
C5208 C5200 1.574 . S
C5208 H5203 0.949 . S
C5208 C5214 1.368 . S
C5209 C5193 1.349 . S
C5209 H5201 0.950 . S
C5209 C5207 1.327 . S
C5210 C5198 1.349 . S
C5210 H5204 0.950 . S
C5210 C5211 1.327 . S
C5211 H5205 0.950 . S
C5211 C5210 1.327 . S
C5211 C5215 1.429 . S
C5212 C5195 1.574 . S
C5212 H5206 0.949 . S
C5212 C5216 1.368 . S
C5213 C5194 1.429 . S
C5213 C5207 1.429 . S
C5213 C5214 1.523 . S
C5214 C5195 1.368 . S
C5214 C5208 1.368 . S
C5214 C5213 1.523 . S
C5215 C5199 1.429 . S
C5215 C5211 1.429 . S
C5215 C5216 1.523 . S
C5216 C5200 1.368 . S
C5216 C5212 1.368 . S
C5216 C5215 1.523 . S
H5217 C5192 0.950 . S
H5218 C5194 0.950 . S
H5219 C5195 0.949 . S
H5220 C5197 0.950 . S
H5221 C5199 0.950 . S
C5222 C5223 1.349 . S
C5222 C5224 1.327 . S
C5222 H5247 0.950 . S
C5223 C5222 1.349 . S
C5223 C5239 1.349 . S
C5224 C5222 1.327 . S
C5224 C5243 1.429 . S
C5224 H5248 0.950 . S
C5225 C5242 1.574 . S
C5225 C5244 1.368 . S
C5225 H5249 0.949 . S
H5226 C5230 0.949 . S
C5227 C5228 1.349 . S
C5227 C5229 1.327 . S
C5227 H5250 0.950 . S
C5228 C5227 1.349 . S
C5228 C5240 1.349 . S
C5229 C5227 1.327 . S
C5229 C5245 1.429 . S
C5229 H5251 0.950 . S
C5230 H5226 0.949 . S
C5230 C5238 1.574 . S
C5230 C5246 1.368 . S
H5231 C5239 0.950 . S
H5232 C5237 0.950 . S
H5233 C5238 0.949 . S
H5234 C5240 0.950 . S
H5235 C5241 0.950 . S
H5236 C5242 0.949 . S
C5237 H5232 0.950 . S
C5237 C5239 1.327 . S
C5237 C5243 1.429 . S
C5238 C5230 1.574 . S
C5238 H5233 0.949 . S
C5238 C5244 1.368 . S
C5239 C5223 1.349 . S
C5239 H5231 0.950 . S
C5239 C5237 1.327 . S
C5240 C5228 1.349 . S
C5240 H5234 0.950 . S
C5240 C5241 1.327 . S
C5241 H5235 0.950 . S
C5241 C5240 1.327 . S
C5241 C5245 1.429 . S
C5242 C5225 1.574 . S
C5242 H5236 0.949 . S
C5242 C5246 1.368 . S
C5243 C5224 1.429 . S
C5243 C5237 1.429 . S
C5243 C5244 1.523 . S
C5244 C5225 1.368 . S
C5244 C5238 1.368 . S
C5244 C5243 1.523 . S
C5245 C5229 1.429 . S
C5245 C5241 1.429 . S
C5245 C5246 1.523 . S
C5246 C5230 1.368 . S
C5246 C5242 1.368 . S
C5246 C5245 1.523 . S
H5247 C5222 0.950 . S
H5248 C5224 0.950 . S
H5249 C5225 0.949 . S
H5250 C5227 0.950 . S
H5251 C5229 0.950 . S
C5252 C5253 1.349 . S
C5252 C5254 1.327 . S
C5252 H5277 0.950 . S
C5253 C5252 1.349 . S
C5253 C5269 1.349 . S
C5254 C5252 1.327 . S
C5254 C5273 1.429 . S
C5254 H5278 0.950 . S
C5255 C5272 1.574 . S
C5255 C5274 1.368 . S
C5255 H5279 0.949 . S
H5256 C5260 0.949 . S
C5257 C5258 1.349 . S
C5257 C5259 1.327 . S
C5257 H5280 0.950 . S
C5258 C5257 1.349 . S
C5258 C5270 1.349 . S
C5259 C5257 1.327 . S
C5259 C5275 1.429 . S
C5259 H5281 0.950 . S
C5260 H5256 0.949 . S
C5260 C5268 1.574 . S
C5260 C5276 1.368 . S
H5261 C5269 0.950 . S
H5262 C5267 0.950 . S
H5263 C5268 0.949 . S
H5264 C5270 0.950 . S
H5265 C5271 0.950 . S
H5266 C5272 0.949 . S
C5267 H5262 0.950 . S
C5267 C5269 1.327 . S
C5267 C5273 1.429 . S
C5268 C5260 1.574 . S
C5268 H5263 0.949 . S
C5268 C5274 1.368 . S
C5269 C5253 1.349 . S
C5269 H5261 0.950 . S
C5269 C5267 1.327 . S
C5270 C5258 1.349 . S
C5270 H5264 0.950 . S
C5270 C5271 1.327 . S
C5271 H5265 0.950 . S
C5271 C5270 1.327 . S
C5271 C5275 1.429 . S
C5272 C5255 1.574 . S
C5272 H5266 0.949 . S
C5272 C5276 1.368 . S
C5273 C5254 1.429 . S
C5273 C5267 1.429 . S
C5273 C5274 1.523 . S
C5274 C5255 1.368 . S
C5274 C5268 1.368 . S
C5274 C5273 1.523 . S
C5275 C5259 1.429 . S
C5275 C5271 1.429 . S
C5275 C5276 1.523 . S
C5276 C5260 1.368 . S
C5276 C5272 1.368 . S
C5276 C5275 1.523 . S
H5277 C5252 0.950 . S
H5278 C5254 0.950 . S
H5279 C5255 0.949 . S
H5280 C5257 0.950 . S
H5281 C5259 0.950 . S
C5282 C5283 1.349 . S
C5282 C5284 1.327 . S
C5282 H5307 0.950 . S
C5283 C5282 1.349 . S
C5283 C5299 1.349 . S
C5284 C5282 1.327 . S
C5284 C5303 1.429 . S
C5284 H5308 0.950 . S
C5285 C5302 1.574 . S
C5285 C5304 1.368 . S
C5285 H5309 0.949 . S
H5286 C5290 0.949 . S
C5287 C5288 1.349 . S
C5287 C5289 1.327 . S
C5287 H5310 0.950 . S
C5288 C5287 1.349 . S
C5288 C5300 1.349 . S
C5289 C5287 1.327 . S
C5289 C5305 1.429 . S
C5289 H5311 0.950 . S
C5290 H5286 0.949 . S
C5290 C5298 1.574 . S
C5290 C5306 1.368 . S
H5291 C5299 0.950 . S
H5292 C5297 0.950 . S
H5293 C5298 0.949 . S
H5294 C5300 0.950 . S
H5295 C5301 0.950 . S
H5296 C5302 0.949 . S
C5297 H5292 0.950 . S
C5297 C5299 1.327 . S
C5297 C5303 1.429 . S
C5298 C5290 1.574 . S
C5298 H5293 0.949 . S
C5298 C5304 1.368 . S
C5299 C5283 1.349 . S
C5299 H5291 0.950 . S
C5299 C5297 1.327 . S
C5300 C5288 1.349 . S
C5300 H5294 0.950 . S
C5300 C5301 1.327 . S
C5301 H5295 0.950 . S
C5301 C5300 1.327 . S
C5301 C5305 1.429 . S
C5302 C5285 1.574 . S
C5302 H5296 0.949 . S
C5302 C5306 1.368 . S
C5303 C5284 1.429 . S
C5303 C5297 1.429 . S
C5303 C5304 1.523 . S
C5304 C5285 1.368 . S
C5304 C5298 1.368 . S
C5304 C5303 1.523 . S
C5305 C5289 1.429 . S
C5305 C5301 1.429 . S
C5305 C5306 1.523 . S
C5306 C5290 1.368 . S
C5306 C5302 1.368 . S
C5306 C5305 1.523 . S
H5307 C5282 0.950 . S
H5308 C5284 0.950 . S
H5309 C5285 0.949 . S
H5310 C5287 0.950 . S
H5311 C5289 0.950 . S
C2438 C1325 1.551 . S
C2433 C21 1.542 . S
C2468 C1373 1.424 . S
C2463 C42 1.423 . S
C2493 C82 1.518 . S
C2498 C1397 1.533 . S
C2528 C1460 1.494 . S
C2523 C135 1.495 . S
C2553 C175 1.418 . S
C2558 C1454 1.416 . S
C2583 C221 1.536 . S
C2588 C1301 1.548 . S
C2613 C255 1.482 . S
C2618 C1349 1.479 . S
C2648 C1421 1.564 . S
C2643 C301 1.561 . S
C2678 C1493 1.520 . S
C2673 C15 1.521 . S
C2703 C55 1.431 . S
C2708 C1541 1.428 . S
C2733 C101 1.546 . S
C2738 C1604 1.559 . S
C2768 C1661 1.501 . S
C2763 C141 1.498 . S
C2793 C162 1.439 . S
C2798 C1685 1.454 . S
C2828 C1742 1.515 . S
C2823 C215 1.519 . S
C2853 C261 1.500 . S
C2858 C1790 1.504 . S
C2888 C1844 1.526 . S
C2883 C282 1.516 . S
C2913 C2 1.519 . S
C2918 C1637 1.535 . S
C2943 C181 1.419 . S
C2948 C1748 1.434 . S
C2978 C1796 1.552 . S
C2973 C202 1.537 . S
C3003 C242 1.502 . S
C3008 C1838 1.507 . S
C3038 C1709 1.507 . S
C3033 C295 1.513 . S
C3068 C1565 1.519 . S
C3063 C95 1.524 . S
C3093 C122 1.491 . S
C3098 C1598 1.496 . S
C3128 C1517 1.444 . S
C3123 C61 1.441 . S
C3158 C1892 1.555 . S
C3153 C341 1.542 . S
C3183 C362 1.423 . S
C3188 C1949 1.424 . S
C3213 C402 1.520 . S
C3218 C1973 1.534 . S
C3248 C2036 1.494 . S
C3243 C455 1.496 . S
C3273 C495 1.417 . S
C3278 C2030 1.415 . S
C3303 C541 1.534 . S
C3308 C1886 1.543 . S
C3333 C575 1.482 . S
C3338 C1925 1.479 . S
C3363 C621 1.562 . S
C3368 C1997 1.565 . S
C3398 C1694 1.516 . S
C3393 C335 1.520 . S
C3423 C375 1.431 . S
C3428 C2078 1.426 . S
C3458 C1781 1.560 . S
C3453 C421 1.547 . S
C3483 C461 1.498 . S
C3488 C2132 1.504 . S
C3513 C482 1.438 . S
C3518 C1502 1.450 . S
C3548 C2174 1.514 . S
C3543 C535 1.518 . S
C3573 C581 1.500 . S
C3578 C1613 1.502 . S
C3608 C2228 1.527 . S
C3603 C602 1.518 . S
C3633 C322 1.518 . S
C3638 C2126 1.531 . S
C3668 C2180 1.434 . S
C3663 C501 1.419 . S
C3693 C522 1.536 . S
C3698 C1589 1.550 . S
C3728 C2222 1.506 . S
C3723 C562 1.502 . S
C3753 C615 1.515 . S
C3758 C1508 1.512 . S
C3783 C415 1.525 . S
C3788 C2084 1.523 . S
C3813 C442 1.492 . S
C3818 C1805 1.497 . S
C3843 C381 1.441 . S
C3848 C1700 1.446 . S
C3873 C661 1.542 . S
C3878 C1982 1.553 . S
C3908 C2045 1.425 . S
C3903 C682 1.423 . S
C3933 C722 1.517 . S
C3938 C1901 1.529 . S
C3963 C775 1.495 . S
C3968 C1940 1.493 . S
C3993 C815 1.417 . S
C3998 C1934 1.415 . S
C4023 C861 1.537 . S
C4028 C1988 1.550 . S
C4058 C2021 1.479 . S
C4053 C895 1.483 . S
C4083 C941 1.562 . S
C4088 C1877 1.570 . S
C4118 C2261 1.519 . S
C4113 C655 1.520 . S
C4143 C695 1.431 . S
C4148 C1733 1.429 . S
C4178 C2324 1.559 . S
C4173 C741 1.546 . S
C4203 C781 1.497 . S
C4208 C1853 1.500 . S
C4233 C802 1.439 . S
C4238 C2366 1.451 . S
C4263 C855 1.519 . S
C4268 C1550 1.515 . S
C4298 C2429 1.503 . S
C4293 C901 1.500 . S
C4323 C922 1.518 . S
C4328 C1652 1.527 . S
C4358 C1829 1.534 . S
C4353 C642 1.518 . S
C4388 C1556 1.433 . S
C4383 C821 1.419 . S
C4413 C842 1.537 . S
C4418 C2405 1.551 . S
C4443 C882 1.502 . S
C4448 C1646 1.507 . S
C4478 C2372 1.512 . S
C4473 C935 1.515 . S
C4508 C1757 1.519 . S
C4503 C735 1.524 . S
C4538 C2318 1.496 . S
C4533 C762 1.491 . S
C4568 C2285 1.444 . S
C4563 C701 1.441 . S
C4593 C981 1.542 . S
C4598 C1406 1.553 . S
C4623 C1002 1.424 . S
C4628 C1469 1.425 . S
C4658 C1316 1.533 . S
C4653 C1042 1.518 . S
C4688 C1364 1.493 . S
C4683 C1095 1.495 . S
C4718 C1358 1.414 . S
C4713 C1135 1.416 . S
C4748 C1412 1.549 . S
C4743 C1181 1.536 . S
C4778 C1445 1.480 . S
C4773 C1215 1.483 . S
C4803 C1261 1.561 . S
C4808 C1310 1.566 . S
C4833 C975 1.521 . S
C4838 C2357 1.520 . S
C4868 C2165 1.429 . S
C4863 C1015 1.431 . S
C4898 C2420 1.559 . S
C4893 C1061 1.546 . S
C4928 C2237 1.500 . S
C4923 C1101 1.497 . S
C4953 C1122 1.438 . S
C4958 C2270 1.450 . S
C4988 C2069 1.518 . S
C4983 C1175 1.520 . S
C5018 C2333 1.503 . S
C5013 C1221 1.501 . S
C5043 C1242 1.516 . S
C5048 C2141 1.522 . S
C5078 C2213 1.535 . S
C5073 C962 1.519 . S
C5108 C2093 1.431 . S
C5103 C1141 1.418 . S
C5138 C2309 1.551 . S
C5133 C1162 1.537 . S
C5163 C1202 1.503 . S
C5168 C2117 1.511 . S
C5193 C1255 1.513 . S
C5198 C2276 1.511 . S
C5223 C1055 1.524 . S
C5228 C2189 1.518 . S
C5253 C1082 1.491 . S
C5258 C2414 1.496 . S
C5288 C2381 1.445 . S
C5283 C1021 1.442 . S
