# Generated by pormake.
# Topology csq, (4,8)-cn, num edge types: 1
# Building blocks:
#     Node 0, Type 0, BuildingBlock: IZENUY_clean_linker_0, # of connection points: 4
#     Node 1, Type 0, BuildingBlock: IZENUY_clean_linker_0, # of connection points: 4
#     Node 2, Type 0, BuildingBlock: IZENUY_clean_linker_0, # of connection points: 4
#     Node 3, Type 0, BuildingBlock: IZENUY_clean_linker_0, # of connection points: 4
#     Node 4, Type 0, BuildingBlock: IZENUY_clean_linker_0, # of connection points: 4
#     Node 5, Type 0, BuildingBlock: IZENUY_clean_linker_0, # of connection points: 4
#     Node 6, Type 1, BuildingBlock: TAGTUT_clean_sbu_1, # of connection points: 8
#     Node 7, Type 1, BuildingBlock: TAGTUT_clean_sbu_1, # of connection points: 8
#     Node 8, Type 1, BuildingBlock: TAGTUT_clean_sbu_1, # of connection points: 8
#     Edge 9, Type (0, 1), BuildingBlock: EYOCIG_clean_linker_4, # of connection points: 2
#     Edge 10, Type (0, 1), BuildingBlock: EYOCIG_clean_linker_4, # of connection points: 2
#     Edge 11, Type (0, 1), BuildingBlock: EYOCIG_clean_linker_4, # of connection points: 2
#     Edge 12, Type (0, 1), BuildingBlock: EYOCIG_clean_linker_4, # of connection points: 2
#     Edge 13, Type (0, 1), BuildingBlock: EYOCIG_clean_linker_4, # of connection points: 2
#     Edge 14, Type (0, 1), BuildingBlock: EYOCIG_clean_linker_4, # of connection points: 2
#     Edge 15, Type (0, 1), BuildingBlock: EYOCIG_clean_linker_4, # of connection points: 2
#     Edge 16, Type (0, 1), BuildingBlock: EYOCIG_clean_linker_4, # of connection points: 2
#     Edge 17, Type (0, 1), BuildingBlock: EYOCIG_clean_linker_4, # of connection points: 2
#     Edge 18, Type (0, 1), BuildingBlock: EYOCIG_clean_linker_4, # of connection points: 2
#     Edge 19, Type (0, 1), BuildingBlock: EYOCIG_clean_linker_4, # of connection points: 2
#     Edge 20, Type (0, 1), BuildingBlock: EYOCIG_clean_linker_4, # of connection points: 2
#     Edge 21, Type (0, 1), BuildingBlock: EYOCIG_clean_linker_4, # of connection points: 2
#     Edge 22, Type (0, 1), BuildingBlock: EYOCIG_clean_linker_4, # of connection points: 2
#     Edge 23, Type (0, 1), BuildingBlock: EYOCIG_clean_linker_4, # of connection points: 2
#     Edge 24, Type (0, 1), BuildingBlock: EYOCIG_clean_linker_4, # of connection points: 2
#     Edge 25, Type (0, 1), BuildingBlock: EYOCIG_clean_linker_4, # of connection points: 2
#     Edge 26, Type (0, 1), BuildingBlock: EYOCIG_clean_linker_4, # of connection points: 2
#     Edge 27, Type (0, 1), BuildingBlock: EYOCIG_clean_linker_4, # of connection points: 2
#     Edge 28, Type (0, 1), BuildingBlock: EYOCIG_clean_linker_4, # of connection points: 2
#     Edge 29, Type (0, 1), BuildingBlock: EYOCIG_clean_linker_4, # of connection points: 2
#     Edge 30, Type (0, 1), BuildingBlock: EYOCIG_clean_linker_4, # of connection points: 2
#     Edge 31, Type (0, 1), BuildingBlock: EYOCIG_clean_linker_4, # of connection points: 2
#     Edge 32, Type (0, 1), BuildingBlock: EYOCIG_clean_linker_4, # of connection points: 2
# Relax obj value: 0.065
# Max RMSD: 0.143
# Mean RMSD: 0.136
data_MOF--net-csq--node1-TAGTUT_clean_sbu_1--node2-IZENUY_clean_linker_0--edge1-EYOCIG_clean_linker_4
_symmetry_space_group_name_H-M    P1
_symmetry_Int_Tables_number       1
_symmetry_cell_setting            triclinic
loop_
_symmetry_equiv_pos_as_xyz
'x, y, z'
_cell_length_a     47.228885
_cell_length_b     47.622863
_cell_length_c     15.239931
_cell_angle_alpha  94.260065
_cell_angle_beta   93.748921
_cell_angle_gamma 119.95265
loop_
_atom_site_label
_atom_site_type_symbol
_atom_site_fract_x
_atom_site_fract_y
_atom_site_fract_z
_atom_type_partial_charge
H0 H 0.21389 0.47501 0.03492 0.0
H1 H 0.21213 0.48546 0.3179 0.0
H2 H 0.13285 0.47724 0.13975 0.0
H3 H 0.29674 0.48213 0.28218 0.0
H4 H 0.29648 0.48061 -0.00123 0.0
H5 H 0.37605 0.4823 0.15794 0.0
N6 N 0.24752 0.48157 0.19274 0.0
N7 N 0.26257 0.48071 0.12907 0.0
C8 C 0.20207 0.47693 0.09185 0.0
C9 C 0.17196 0.47573 0.07803 0.0
C10 C 0.21684 0.48044 0.17837 0.0
C11 C 0.20088 0.48273 0.25114 0.0
C12 C 0.17055 0.48163 0.23751 0.0
C13 C 0.15623 0.47811 0.15073 0.0
C14 C 0.30814 0.482 0.22282 0.0
C15 C 0.33804 0.4823 0.22931 0.0
C16 C 0.29304 0.48143 0.13932 0.0
C17 C 0.30817 0.48119 0.06307 0.0
C18 C 0.33809 0.48153 0.06948 0.0
C19 C 0.35292 0.4821 0.15273 0.0
H20 H 0.72852 0.19623 0.0189 0.0
H21 H 0.74526 0.20885 0.30436 0.0
H22 H 0.6582 0.12481 0.16673 0.0
H23 H 0.81769 0.29436 0.23075 0.0
H24 H 0.82041 0.2607 0.96152 0.0
H25 H 0.89933 0.35283 0.09038 0.0
N26 N 0.77109 0.23567 0.16338 0.0
N27 N 0.78457 0.24439 0.09485 0.0
C28 C 0.72084 0.18778 0.08196 0.0
C29 C 0.69098 0.15855 0.08359 0.0
C30 C 0.74056 0.20613 0.16198 0.0
C31 C 0.73007 0.19491 0.24293 0.0
C32 C 0.7006 0.16555 0.24486 0.0
C33 C 0.68107 0.14752 0.1652 0.0
C34 C 0.82972 0.29782 0.17108 0.0
C35 C 0.8601 0.32638 0.16821 0.0
C36 C 0.81517 0.2738 0.09588 0.0
C37 C 0.83137 0.27889 0.01939 0.0
C38 C 0.86173 0.30731 0.01821 0.0
C39 C 0.87576 0.33079 0.0921 0.0
H40 H 0.54893 0.72742 0.92154 0.0
H41 H 0.55006 0.73519 0.20663 0.0
H42 H 0.54483 0.65127 0.06405 0.0
H43 H 0.5748 0.82363 0.14549 0.0
H44 H 0.53145 0.80424 0.87282 0.0
H45 H 0.56176 0.89593 0.0281 0.0
N46 N 0.552 0.7661 0.06804 0.0
N47 N 0.5487 0.77809 0.00066 0.0
C48 C 0.54803 0.71747 0.98364 0.0
C49 C 0.54663 0.68737 0.98467 0.0
C50 C 0.54914 0.7349 0.06432 0.0
C51 C 0.54877 0.72178 0.14439 0.0
C52 C 0.54703 0.69153 0.14355 0.0
C53 C 0.54584 0.6746 0.06402 0.0
C54 C 0.56682 0.83115 0.08806 0.0
C55 C 0.57003 0.86204 0.09432 0.0
C56 C 0.55275 0.80989 0.0079 0.0
C57 C 0.54232 0.82033 0.93461 0.0
C58 C 0.54559 0.85145 0.94257 0.0
C59 C 0.55951 0.87199 0.022 0.0
H60 H 0.73944 0.52382 0.93784 0.0
H61 H 0.7396 0.52516 0.22119 0.0
H62 H 0.66009 0.52358 0.06202 0.0
H63 H 0.8223 0.53098 0.18518 0.0
H64 H 0.82401 0.5204 0.90219 0.0
H65 H 0.90336 0.52879 0.08038 0.0
N66 N 0.77357 0.52516 0.09096 0.0
N67 N 0.78863 0.52432 0.02732 0.0
C68 C 0.72802 0.52391 -0.00282 0.0
C69 C 0.69812 0.52362 0.99068 0.0
C70 C 0.74309 0.52442 0.08067 0.0
C71 C 0.72793 0.52461 0.1569 0.0
C72 C 0.69802 0.52428 0.15047 0.0
C73 C 0.68322 0.52377 0.06723 0.0
C74 C 0.83412 0.52904 0.12825 0.0
C75 C 0.86425 0.53028 0.14209 0.0
C76 C 0.81932 0.52548 0.04172 0.0
C77 C 0.83528 0.52317 0.96896 0.0
C78 C 0.86562 0.52431 0.98261 0.0
C79 C 0.87997 0.52788 0.0694 0.0
H80 H 0.21869 0.71134 0.98928 0.0
H81 H 0.21593 0.74506 0.2584 0.0
H82 H 0.137 0.65293 0.12959 0.0
H83 H 0.3078 0.80955 0.20122 0.0
H84 H 0.29114 0.79692 0.91575 0.0
H85 H 0.37808 0.88106 0.05348 0.0
N86 N 0.25179 0.76134 0.12516 0.0
N87 N 0.26529 0.77007 0.05666 0.0
C88 C 0.20664 0.7079 0.04892 0.0
C89 C 0.17626 0.67935 0.05178 0.0
C90 C 0.22119 0.73193 0.1241 0.0
C91 C 0.20497 0.72686 0.20055 0.0
C92 C 0.17461 0.69846 0.20172 0.0
C93 C 0.16058 0.67497 0.12787 0.0
C94 C 0.31549 0.81801 0.13818 0.0
C95 C 0.34532 0.84728 0.13659 0.0
C96 C 0.29581 0.79964 0.05813 0.0
C97 C 0.3063 0.81087 0.97719 0.0
C98 C 0.33574 0.84026 0.97531 0.0
C99 C 0.35523 0.85832 0.05498 0.0
H100 H 0.46193 0.18269 0.07457 0.0
H101 H 0.50492 0.20193 0.34756 0.0
H102 H 0.47459 0.11023 0.19226 0.0
H103 H 0.48785 0.27897 0.29858 0.0
H104 H 0.48665 0.27107 0.01346 0.0
H105 H 0.492 0.35508 0.1558 0.0
N106 N 0.48792 0.22818 0.21954 0.0
N107 N 0.4847 0.2402 0.15214 0.0
C108 C 0.46981 0.17513 0.13208 0.0
C109 C 0.46652 0.14421 0.12588 0.0
C110 C 0.48381 0.19636 0.21231 0.0
C111 C 0.4941 0.18586 0.28572 0.0
C112 C 0.49076 0.15471 0.2778 0.0
C113 C 0.4769 0.1342 0.19831 0.0
C114 C 0.48876 0.2889 0.23644 0.0
C115 C 0.4902 0.31901 0.23531 0.0
C116 C 0.48762 0.27142 0.1558 0.0
C117 C 0.48799 0.28452 0.07568 0.0
C118 C 0.48975 0.31477 0.07642 0.0
C119 C 0.49099 0.33175 0.15591 0.0
C120 C 0.97323 0.40364 0.79331 0.0
C121 C 0.07375 0.46104 0.7435 0.0
C122 C 0.05977 0.56401 0.76731 0.0
Mg123 Mg 0.00815 0.43084 0.62874 0.0
O124 O 1.00037 0.46401 0.67362 0.0
Mg125 Mg 0.02034 0.48547 0.79718 0.0
Mg126 Mg 0.01805 0.50296 0.60993 0.0
O127 O 0.03576 0.54193 0.54639 0.0
Mg128 Mg 0.02813 0.5752 0.59142 0.0
Mg129 Mg 0.01583 0.52053 0.42285 0.0
C130 C 0.97645 0.44194 0.45268 0.0
C131 C 0.0693 0.49935 0.47963 0.0
O132 O 0.98619 0.43276 0.83447 0.0
O133 O 0.97854 0.39744 0.71506 0.0
O134 O 0.06204 0.47458 0.79257 0.0
O135 O 0.05892 0.44477 0.66822 0.0
O136 O 0.98463 0.42411 0.49448 0.0
O137 O 0.98518 0.47135 0.48356 0.0
C138 C 0.96681 0.50657 0.74029 0.0
O139 O 0.97682 0.51095 0.6634 0.0
O140 O 0.97918 0.49694 0.7996 0.0
O141 O 0.05004 0.57324 0.38568 0.0
O142 O 0.05776 0.60858 0.5051 0.0
O143 O 0.97419 0.53151 0.42755 0.0
C144 C 0.06305 0.60235 0.42684 0.0
O145 O 0.97738 0.56137 0.5519 0.0
O146 O 0.05172 0.58196 0.72568 0.0
C147 C 0.96252 0.54509 0.47663 0.0
O148 O 0.05086 0.53458 0.73617 0.0
O149 O 0.05928 0.49497 0.5565 0.0
O150 O 0.05695 0.50899 0.42034 0.0
C151 C 0.45594 0.0326 0.83657 0.0
C152 C 0.41941 0.93707 0.70354 0.0
C153 C 0.54176 0.96168 0.72571 0.0
Mg154 Mg 0.45143 0.00456 0.64293 0.0
O155 O 0.49375 0.01492 0.69107 0.0
Mg156 Mg 0.49696 0.99294 0.79506 0.0
Mg157 Mg 0.51811 0.00303 0.61003 0.0
O158 O 0.54247 0.99111 0.52914 0.0
Mg159 Mg 0.58476 0.00138 0.57741 0.0
Mg160 Mg 0.53931 0.01308 0.42517 0.0
C161 C 0.49439 0.04429 0.49448 0.0
C162 C 0.46534 0.95392 0.44061 0.0
O163 O 0.47419 0.02131 0.86452 0.0
O164 O 0.44458 0.02879 0.75542 0.0
O165 O 0.44503 0.94911 0.75954 0.0
O166 O 0.41685 0.95262 0.64167 0.0
O167 O 0.46748 0.03265 0.53032 0.0
O168 O 0.51682 0.03738 0.51525 0.0
C169 C 0.5709 0.05212 0.77947 0.0
O170 O 0.56596 0.04461 0.69501 0.0
O171 O 0.5488 0.03654 0.82923 0.0
O172 O 0.56209 0.9847 0.3558 0.0
O173 O 0.59165 0.97718 0.46492 0.0
O174 O 0.59126 0.05687 0.46079 0.0
C175 C 0.58033 0.97341 0.38376 0.0
O176 O 0.6194 0.05331 0.57869 0.0
O177 O 0.56869 0.97322 0.68994 0.0
C178 C 0.61687 0.06888 0.51681 0.0
O179 O 0.51946 0.96874 0.70478 0.0
O180 O 0.47026 0.96143 0.52507 0.0
O181 O 0.48746 0.96949 0.3909 0.0
C182 C 0.55187 0.58448 0.37562 0.0
C183 C 0.60273 0.53225 0.43848 0.0
C184 C 0.48405 0.43316 0.48483 0.0
Mg185 Mg 0.57735 0.56951 0.54768 0.0
O186 O 0.53358 0.53518 0.52453 0.0
Mg187 Mg 0.52059 0.50573 0.41118 0.0
Mg188 Mg 0.51812 0.50307 0.61008 0.0
O189 O 0.50265 0.47093 0.69546 0.0
Mg190 Mg 0.45891 0.43647 0.67217 0.0
Mg191 Mg 0.51561 0.50032 0.80884 0.0
C192 C 0.55227 0.57294 0.73515 0.0
C193 C 0.58275 0.5132 0.73001 0.0
O194 O 0.53371 0.55375 0.34772 0.0
O195 O 0.5707 0.59564 0.44895 0.0
O196 O 0.57332 0.51526 0.39987 0.0
O197 O 0.61042 0.55344 0.50556 0.0
O198 O 0.57426 0.58569 0.68227 0.0
O199 O 0.52844 0.54316 0.72103 0.0
C200 C 0.45349 0.49294 0.49011 0.0
O201 O 0.46588 0.49409 0.5685 0.0
O202 O 0.46931 0.49653 0.4232 0.0
O203 O 0.50256 0.45228 0.87213 0.0
O204 O 0.46566 0.41037 0.77084 0.0
O205 O 0.46283 0.49067 0.82007 0.0
C206 C 0.48447 0.42155 0.84419 0.0
O207 O 0.42576 0.45242 0.71442 0.0
O208 O 0.46204 0.42026 0.53758 0.0
C209 C 0.43342 0.47361 0.78148 0.0
O210 O 0.50775 0.46299 0.49929 0.0
O211 O 0.57036 0.51205 0.65162 0.0
O212 O 0.56692 0.50959 0.79689 0.0
C213 C 0.13719 0.48643 0.36599 0.0
C214 C 0.15384 0.4844 0.31137 0.0
C215 C 0.11534 0.4895 0.42054 0.0
C216 C 0.09491 0.49304 0.456 0.0
C217 C 0.67966 0.14041 0.39306 0.0
C218 C 0.69061 0.15325 0.32816 0.0
C219 C 0.66323 0.12031 0.4582 0.0
C220 C 0.64516 0.09787 0.49648 0.0
C221 C 0.54727 0.65683 0.26628 0.0
C222 C 0.54733 0.67667 0.22172 0.0
C223 C 0.54751 0.63032 0.3008 0.0
C224 C 0.54801 0.6078 0.33025 0.0
C225 C 0.89272 0.53748 0.30423 0.0
C226 C 0.87908 0.53422 0.23129 0.0
C227 C 0.91256 0.54168 0.38314 0.0
C228 C 0.93432 0.5454 0.43718 0.0
C229 C 0.38538 0.8839 0.28133 0.0
C230 C 0.36613 0.8662 0.21794 0.0
C231 C 0.41044 0.90648 0.34884 0.0
C232 C 0.43415 0.92734 0.39783 0.0
C233 C 0.48943 0.35968 0.3562 0.0
C234 C 0.48969 0.33781 0.31229 0.0
C235 C 0.48901 0.38736 0.39354 0.0
C236 C 0.48895 0.41034 0.4317 0.0
C237 C 0.53043 0.88275 0.83359 0.0
C238 C 0.53516 0.86408 0.87256 0.0
C239 C 0.53002 0.90948 0.80049 0.0
C240 C 0.53286 0.933 0.7683 0.0
C241 C 0.66502 0.52249 0.84285 0.0
C242 C 0.68212 0.52304 0.9061 0.0
C243 C 0.64016 0.52067 0.78186 0.0
C244 C 0.6151 0.5177 0.74617 0.0
C245 C 0.13894 0.62954 0.93145 0.0
C246 C 0.1592 0.65399 0.97829 0.0
C247 C 0.11147 0.60187 0.88246 0.0
C248 C 0.08789 0.58145 0.833 0.0
C249 C 0.44805 0.09978 0.99097 0.0
C250 C 0.455 0.12262 0.0448 0.0
C251 C 0.44726 0.07374 0.93914 0.0
C252 C 0.45189 0.05475 0.8952 0.0
C253 C 0.36884 0.48017 0.93097 0.0
C254 C 0.35361 0.48078 0.99121 0.0
C255 C 0.38883 0.47812 0.86819 0.0
C256 C 0.40773 0.4748 0.82477 0.0
C257 C 0.90077 0.32907 0.89699 0.0
C258 C 0.87954 0.31429 0.9426 0.0
C259 C 0.92727 0.35346 0.85982 0.0
C260 C 0.94835 0.3768 0.83096 0.0
C261 C 0.89895 0.51948 0.85407 0.0
C262 C 0.88233 0.52152 0.90874 0.0
C263 C 0.92077 0.5164 0.79943 0.0
C264 C 0.9412 0.51287 0.76393 0.0
C265 C 0.35667 0.86545 0.82717 0.0
C266 C 0.34572 0.85259 0.89203 0.0
C267 C 0.3731 0.88559 0.76208 0.0
C268 C 0.39115 0.90805 0.72386 0.0
C269 C 0.48935 0.34934 0.95353 0.0
C270 C 0.48936 0.32956 -0.00183 0.0
C271 C 0.48901 0.37579 0.91896 0.0
C272 C 0.48841 0.39827 0.88951 0.0
C273 C 0.14355 0.46865 0.9159 0.0
C274 C 0.15715 0.47186 0.98885 0.0
C275 C 0.12373 0.46448 0.837 0.0
C276 C 0.10196 0.46076 0.78297 0.0
C277 C 0.65089 0.12202 0.93882 0.0
C278 C 0.67014 0.13967 0.00224 0.0
C279 C 0.62581 0.0995 0.87124 0.0
C280 C 0.6021 0.07867 0.82222 0.0
C281 C 0.54732 0.64671 0.86362 0.0
C282 C 0.5471 0.66859 0.90761 0.0
C283 C 0.54764 0.61898 0.82625 0.0
C284 C 0.54757 0.59593 0.78814 0.0
C285 C 0.50567 0.12329 0.38695 0.0
C286 C 0.50105 0.14201 0.34794 0.0
C287 C 0.50601 0.09652 0.42 0.0
C288 C 0.50317 0.07299 0.4521 0.0
C289 C 0.37119 0.48355 0.3772 0.0
C290 C 0.35408 0.48295 0.3139 0.0
C291 C 0.39607 0.48542 0.43823 0.0
C292 C 0.42113 0.48841 0.47395 0.0
C293 C 0.89737 0.37617 0.28859 0.0
C294 C 0.87714 0.35173 0.24171 0.0
C295 C 0.9248 0.40387 0.3376 0.0
C296 C 0.94834 0.42434 0.38705 0.0
C297 C 0.5885 0.90645 0.22925 0.0
C298 C 0.58157 0.88363 0.17539 0.0
C299 C 0.58919 0.93243 0.28112 0.0
C300 C 0.58448 0.95135 0.32508 0.0
C301 C 0.66725 0.5256 0.28897 0.0
C302 C 0.68248 0.52501 0.22873 0.0
C303 C 0.64727 0.52766 0.35176 0.0
C304 C 0.62838 0.53101 0.39517 0.0
C305 C 0.13554 0.67681 0.32295 0.0
C306 C 0.15678 0.69153 0.2773 0.0
C307 C 0.10903 0.65248 0.36022 0.0
C308 C 0.08794 0.62917 0.38915 0.0
loop_
_geom_bond_atom_site_label_1
_geom_bond_atom_site_label_2
_geom_bond_distance
_geom_bond_site_symmetry_2
_ccdc_geom_bond_type
H0 C8 0.940 . S
H1 C11 0.940 . S
H2 C13 0.940 . S
H3 C14 0.940 . S
H4 C17 0.940 . S
H5 C19 0.940 . S
N6 N7 1.190 . S
N6 C10 1.477 . S
N7 N6 1.190 . S
N7 C16 1.477 . S
C8 H0 0.940 . S
C8 C9 1.390 . S
C8 C10 1.322 . S
C9 C8 1.390 . S
C9 C13 1.370 . S
C10 N6 1.477 . S
C10 C8 1.322 . S
C10 C11 1.447 . S
C11 H1 0.940 . S
C11 C10 1.447 . S
C11 C12 1.373 . S
C12 C11 1.373 . S
C12 C13 1.417 . S
C13 H2 0.940 . S
C13 C9 1.370 . S
C13 C12 1.417 . S
C14 H3 0.940 . S
C14 C15 1.390 . S
C14 C16 1.322 . S
C15 C14 1.390 . S
C15 C19 1.370 . S
C16 N7 1.477 . S
C16 C14 1.322 . S
C16 C17 1.447 . S
C17 H4 0.940 . S
C17 C16 1.447 . S
C17 C18 1.373 . S
C18 C17 1.373 . S
C18 C19 1.417 . S
C19 H5 0.940 . S
C19 C15 1.370 . S
C19 C18 1.417 . S
H20 C28 0.940 . S
H21 C31 0.940 . S
H22 C33 0.940 . S
H23 C34 0.940 . S
H24 C37 0.940 1_556 S
H25 C39 0.940 . S
N26 N27 1.190 . S
N26 C30 1.477 . S
N27 N26 1.190 . S
N27 C36 1.477 . S
C28 H20 0.940 . S
C28 C29 1.390 . S
C28 C30 1.322 . S
C29 C28 1.390 . S
C29 C33 1.370 . S
C30 N26 1.477 . S
C30 C28 1.322 . S
C30 C31 1.447 . S
C31 H21 0.940 . S
C31 C30 1.447 . S
C31 C32 1.373 . S
C32 C31 1.373 . S
C32 C33 1.417 . S
C33 H22 0.940 . S
C33 C29 1.370 . S
C33 C32 1.417 . S
C34 H23 0.940 . S
C34 C35 1.390 . S
C34 C36 1.322 . S
C35 C34 1.390 . S
C35 C39 1.370 . S
C36 N27 1.477 . S
C36 C34 1.322 . S
C36 C37 1.447 . S
C37 H24 0.940 1_554 S
C37 C36 1.447 . S
C37 C38 1.373 . S
C38 C37 1.373 . S
C38 C39 1.417 . S
C39 H25 0.940 . S
C39 C35 1.370 . S
C39 C38 1.417 . S
H40 C48 0.940 . S
H41 C51 0.940 . S
H42 C53 0.940 . S
H43 C54 0.940 . S
H44 C57 0.940 . S
H45 C59 0.940 . S
N46 N47 1.190 1_554 S
N46 C50 1.477 . S
N47 N46 1.190 1_556 S
N47 C56 1.477 . S
C48 H40 0.940 . S
C48 C49 1.390 . S
C48 C50 1.322 1_556 S
C49 C48 1.390 . S
C49 C53 1.370 . S
C50 N46 1.477 . S
C50 C48 1.322 1_554 S
C50 C51 1.447 . S
C51 H41 0.940 . S
C51 C50 1.447 . S
C51 C52 1.373 . S
C52 C51 1.373 . S
C52 C53 1.417 1_554 S
C53 H42 0.940 . S
C53 C49 1.370 . S
C53 C52 1.417 1_556 S
C54 H43 0.940 . S
C54 C55 1.390 . S
C54 C56 1.322 1_554 S
C55 C54 1.390 . S
C55 C59 1.370 . S
C56 N47 1.477 . S
C56 C54 1.322 1_556 S
C56 C57 1.447 . S
C57 H44 0.940 . S
C57 C56 1.447 . S
C57 C58 1.373 . S
C58 C57 1.373 . S
C58 C59 1.417 1_556 S
C59 H45 0.940 . S
C59 C55 1.370 . S
C59 C58 1.417 1_554 S
H60 C68 0.940 . S
H61 C71 0.940 . S
H62 C73 0.940 . S
H63 C74 0.940 . S
H64 C77 0.940 . S
H65 C79 0.940 . S
N66 N67 1.190 . S
N66 C70 1.477 . S
N67 N66 1.190 . S
N67 C76 1.477 . S
C68 H60 0.940 . S
C68 C69 1.390 . S
C68 C70 1.322 1_556 S
C69 C68 1.390 . S
C69 C73 1.370 1_556 S
C70 N66 1.477 . S
C70 C68 1.322 1_554 S
C70 C71 1.447 . S
C71 H61 0.940 . S
C71 C70 1.447 . S
C71 C72 1.373 . S
C72 C71 1.373 . S
C72 C73 1.417 . S
C73 H62 0.940 . S
C73 C69 1.370 1_554 S
C73 C72 1.417 . S
C74 H63 0.940 . S
C74 C75 1.390 . S
C74 C76 1.322 . S
C75 C74 1.390 . S
C75 C79 1.370 . S
C76 N67 1.477 . S
C76 C74 1.322 . S
C76 C77 1.447 1_554 S
C77 H64 0.940 . S
C77 C76 1.447 1_556 S
C77 C78 1.373 . S
C78 C77 1.373 . S
C78 C79 1.417 1_556 S
C79 H65 0.940 . S
C79 C75 1.370 . S
C79 C78 1.417 1_554 S
H80 C88 0.940 1_556 S
H81 C91 0.940 . S
H82 C93 0.940 . S
H83 C94 0.940 . S
H84 C97 0.940 . S
H85 C99 0.940 . S
N86 N87 1.190 . S
N86 C90 1.477 . S
N87 N86 1.190 . S
N87 C96 1.477 . S
C88 H80 0.940 1_554 S
C88 C89 1.390 . S
C88 C90 1.322 . S
C89 C88 1.390 . S
C89 C93 1.370 . S
C90 N86 1.477 . S
C90 C88 1.322 . S
C90 C91 1.447 . S
C91 H81 0.940 . S
C91 C90 1.447 . S
C91 C92 1.373 . S
C92 C91 1.373 . S
C92 C93 1.417 . S
C93 H82 0.940 . S
C93 C89 1.370 . S
C93 C92 1.417 . S
C94 H83 0.940 . S
C94 C95 1.390 . S
C94 C96 1.322 . S
C95 C94 1.390 . S
C95 C99 1.370 . S
C96 N87 1.477 . S
C96 C94 1.322 . S
C96 C97 1.447 1_554 S
C97 H84 0.940 . S
C97 C96 1.447 1_556 S
C97 C98 1.373 1_556 S
C98 C97 1.373 1_554 S
C98 C99 1.417 . S
C99 H85 0.940 . S
C99 C95 1.370 . S
C99 C98 1.417 . S
H100 C108 0.940 . S
H101 C111 0.940 . S
H102 C113 0.940 . S
H103 C114 0.940 . S
H104 C117 0.940 . S
H105 C119 0.940 . S
N106 N107 1.190 . S
N106 C110 1.477 . S
N107 N106 1.190 . S
N107 C116 1.477 . S
C108 H100 0.940 . S
C108 C109 1.390 . S
C108 C110 1.322 . S
C109 C108 1.390 . S
C109 C113 1.370 . S
C110 N106 1.477 . S
C110 C108 1.322 . S
C110 C111 1.447 . S
C111 H101 0.940 . S
C111 C110 1.447 . S
C111 C112 1.373 . S
C112 C111 1.373 . S
C112 C113 1.417 . S
C113 H102 0.940 . S
C113 C109 1.370 . S
C113 C112 1.417 . S
C114 H103 0.940 . S
C114 C115 1.390 . S
C114 C116 1.322 . S
C115 C114 1.390 . S
C115 C119 1.370 . S
C116 N107 1.477 . S
C116 C114 1.322 . S
C116 C117 1.447 . S
C117 H104 0.940 . S
C117 C116 1.447 . S
C117 C118 1.373 . S
C118 C117 1.373 . S
C118 C119 1.417 . S
C119 H105 0.940 . S
C119 C115 1.370 . S
C119 C118 1.417 . S
C120 O132 1.241 . S
C120 O133 1.280 . S
C121 O134 1.277 . S
C121 O135 1.245 . S
C122 O146 1.247 . S
C122 O148 1.289 . S
Mg123 O124 1.931 1_655 S
Mg123 O133 1.984 . S
Mg123 O135 1.988 1_655 S
Mg123 O136 2.061 . S
O124 Mg123 1.931 1_455 S
O124 Mg125 1.986 . S
O124 Mg126 1.916 . S
Mg125 O124 1.986 . S
Mg125 O132 2.042 1_455 S
Mg125 O134 2.041 . S
Mg125 O140 2.038 1_455 S
Mg125 O148 2.238 . S
Mg126 O124 1.916 . S
Mg126 O127 1.917 . S
Mg126 O137 2.106 1_455 S
Mg126 O139 2.079 1_455 S
Mg126 O148 2.106 . S
Mg126 O149 2.079 . S
O127 Mg126 1.917 . S
O127 Mg128 1.926 . S
O127 Mg129 1.986 . S
Mg128 O127 1.926 . S
Mg128 O142 1.984 . S
Mg128 O145 1.988 1_455 S
Mg128 O146 2.061 . S
Mg129 O127 1.986 . S
Mg129 O137 2.238 1_455 S
Mg129 O141 2.042 . S
Mg129 O143 2.041 1_455 S
Mg129 O150 2.038 . S
C130 O136 1.247 . S
C130 O137 1.289 . S
C131 O149 1.245 . S
C131 O150 1.274 . S
O132 C120 1.241 . S
O132 Mg125 2.042 1_655 S
O133 C120 1.280 . S
O133 Mg123 1.984 . S
O134 C121 1.277 . S
O134 Mg125 2.041 . S
O135 C121 1.245 . S
O135 Mg123 1.988 1_455 S
O136 Mg123 2.061 . S
O136 C130 1.247 . S
O137 Mg126 2.106 1_655 S
O137 Mg129 2.238 1_655 S
O137 C130 1.289 . S
C138 O139 1.245 . S
C138 O140 1.274 . S
O139 Mg126 2.079 1_655 S
O139 C138 1.245 . S
O140 Mg125 2.038 1_655 S
O140 C138 1.274 . S
O141 Mg129 2.042 . S
O141 C144 1.241 . S
O142 Mg128 1.984 . S
O142 C144 1.280 . S
O143 Mg129 2.041 1_655 S
O143 C147 1.277 . S
C144 O141 1.241 . S
C144 O142 1.280 . S
O145 Mg128 1.988 1_655 S
O145 C147 1.245 . S
O146 C122 1.247 . S
O146 Mg128 2.061 . S
C147 O143 1.277 . S
C147 O145 1.245 . S
O148 C122 1.289 . S
O148 Mg125 2.238 . S
O148 Mg126 2.106 . S
O149 Mg126 2.079 . S
O149 C131 1.245 . S
O150 Mg129 2.038 . S
O150 C131 1.274 . S
C151 O163 1.241 . S
C151 O164 1.280 . S
C152 O165 1.277 . S
C152 O166 1.245 . S
C153 O177 1.247 . S
C153 O179 1.289 . S
Mg154 O155 1.926 . S
Mg154 O164 1.984 . S
Mg154 O166 1.988 1_545 S
Mg154 O167 2.061 . S
O155 Mg154 1.926 . S
O155 Mg156 1.986 . S
O155 Mg157 1.917 . S
Mg156 O155 1.986 . S
Mg156 O163 2.042 . S
Mg156 O165 2.041 1_545 S
Mg156 O171 2.038 . S
Mg156 O179 2.238 1_545 S
Mg157 O155 1.917 . S
Mg157 O158 1.917 1_545 S
Mg157 O168 2.106 . S
Mg157 O170 2.079 . S
Mg157 O179 2.106 1_545 S
Mg157 O180 2.079 1_545 S
O158 Mg157 1.917 1_565 S
O158 Mg159 1.926 . S
O158 Mg160 1.969 1_565 S
Mg159 O158 1.926 . S
Mg159 O173 1.984 . S
Mg159 O176 1.988 1_565 S
Mg159 O177 2.061 . S
Mg160 O158 1.969 1_545 S
Mg160 O168 2.263 . S
Mg160 O172 2.012 1_545 S
Mg160 O174 2.053 . S
Mg160 O181 2.027 1_545 S
C161 O167 1.247 . S
C161 O168 1.289 . S
C162 O180 1.245 . S
C162 O181 1.274 . S
O163 C151 1.241 . S
O163 Mg156 2.042 . S
O164 C151 1.280 . S
O164 Mg154 1.984 . S
O165 C152 1.277 . S
O165 Mg156 2.041 1_565 S
O166 C152 1.245 . S
O166 Mg154 1.988 1_565 S
O167 Mg154 2.061 . S
O167 C161 1.247 . S
O168 Mg157 2.106 . S
O168 Mg160 2.263 . S
O168 C161 1.289 . S
C169 O170 1.245 . S
C169 O171 1.274 . S
O170 Mg157 2.079 . S
O170 C169 1.245 . S
O171 Mg156 2.038 . S
O171 C169 1.274 . S
O172 Mg160 2.012 1_565 S
O172 C175 1.241 . S
O173 Mg159 1.984 . S
O173 C175 1.280 . S
O174 Mg160 2.053 . S
O174 C178 1.277 . S
C175 O172 1.241 . S
C175 O173 1.280 . S
O176 Mg159 1.988 1_545 S
O176 C178 1.245 . S
O177 C153 1.247 . S
O177 Mg159 2.061 . S
C178 O174 1.277 . S
C178 O176 1.245 . S
O179 C153 1.289 . S
O179 Mg156 2.238 1_565 S
O179 Mg157 2.106 1_565 S
O180 Mg157 2.079 1_565 S
O180 C162 1.245 . S
O181 Mg160 2.027 1_565 S
O181 C162 1.274 . S
C182 O194 1.241 . S
C182 O195 1.280 . S
C183 O196 1.277 . S
C183 O197 1.245 . S
C184 O208 1.247 . S
C184 O210 1.289 . S
Mg185 O186 1.926 . S
Mg185 O195 1.984 . S
Mg185 O197 1.988 . S
Mg185 O198 2.061 . S
O186 Mg185 1.926 . S
O186 Mg187 1.986 . S
O186 Mg188 1.917 . S
Mg187 O186 1.986 . S
Mg187 O194 2.042 . S
Mg187 O196 2.041 . S
Mg187 O202 2.038 . S
Mg187 O210 2.238 . S
Mg188 O186 1.917 . S
Mg188 O189 1.917 . S
Mg188 O199 2.106 . S
Mg188 O201 2.079 . S
Mg188 O210 2.106 . S
Mg188 O211 2.079 . S
O189 Mg188 1.917 . S
O189 Mg190 1.926 . S
O189 Mg191 1.986 . S
Mg190 O189 1.926 . S
Mg190 O204 1.984 . S
Mg190 O207 1.988 . S
Mg190 O208 2.061 . S
Mg191 O189 1.986 . S
Mg191 O199 2.238 . S
Mg191 O203 2.042 . S
Mg191 O205 2.041 . S
Mg191 O212 2.038 . S
C192 O198 1.247 . S
C192 O199 1.289 . S
C193 O211 1.245 . S
C193 O212 1.274 . S
O194 C182 1.241 . S
O194 Mg187 2.042 . S
O195 C182 1.280 . S
O195 Mg185 1.984 . S
O196 C183 1.277 . S
O196 Mg187 2.041 . S
O197 C183 1.245 . S
O197 Mg185 1.988 . S
O198 Mg185 2.061 . S
O198 C192 1.247 . S
O199 Mg188 2.106 . S
O199 Mg191 2.238 . S
O199 C192 1.289 . S
C200 O201 1.245 . S
C200 O202 1.274 . S
O201 Mg188 2.079 . S
O201 C200 1.245 . S
O202 Mg187 2.038 . S
O202 C200 1.274 . S
O203 Mg191 2.042 . S
O203 C206 1.241 . S
O204 Mg190 1.984 . S
O204 C206 1.280 . S
O205 Mg191 2.041 . S
O205 C209 1.277 . S
C206 O203 1.241 . S
C206 O204 1.280 . S
O207 Mg190 1.988 . S
O207 C209 1.245 . S
O208 C184 1.247 . S
O208 Mg190 2.061 . S
C209 O205 1.277 . S
C209 O207 1.245 . S
O210 C184 1.289 . S
O210 Mg187 2.238 . S
O210 Mg188 2.106 . S
O211 Mg188 2.079 . S
O211 C193 1.245 . S
O212 Mg191 2.038 . S
O212 C193 1.274 . S
C213 C214 1.170 . S
C213 C215 1.380 . S
C214 C213 1.170 . S
C215 C213 1.380 . S
C215 C216 1.170 . S
C216 C215 1.170 . S
C217 C218 1.170 . S
C217 C219 1.380 . S
C218 C217 1.170 . S
C219 C217 1.380 . S
C219 C220 1.170 . S
C220 C219 1.170 . S
C221 C222 1.170 . S
C221 C223 1.380 . S
C222 C221 1.170 . S
C223 C221 1.380 . S
C223 C224 1.170 . S
C224 C223 1.170 . S
C225 C226 1.170 . S
C225 C227 1.380 . S
C226 C225 1.170 . S
C227 C225 1.380 . S
C227 C228 1.170 . S
C228 C227 1.170 . S
C229 C230 1.170 . S
C229 C231 1.380 . S
C230 C229 1.170 . S
C231 C229 1.380 . S
C231 C232 1.170 . S
C232 C231 1.170 . S
C233 C234 1.170 . S
C233 C235 1.380 . S
C234 C233 1.170 . S
C235 C233 1.380 . S
C235 C236 1.170 . S
C236 C235 1.170 . S
C237 C238 1.170 . S
C237 C239 1.380 . S
C238 C237 1.170 . S
C239 C237 1.380 . S
C239 C240 1.170 . S
C240 C239 1.170 . S
C241 C242 1.170 . S
C241 C243 1.380 . S
C242 C241 1.170 . S
C243 C241 1.380 . S
C243 C244 1.170 . S
C244 C243 1.170 . S
C245 C246 1.170 . S
C245 C247 1.380 . S
C246 C245 1.170 . S
C247 C245 1.380 . S
C247 C248 1.170 . S
C248 C247 1.170 . S
C249 C250 1.170 . S
C249 C251 1.380 1_554 S
C250 C249 1.170 . S
C251 C249 1.380 1_556 S
C251 C252 1.170 . S
C252 C251 1.170 . S
C253 C254 1.170 1_556 S
C253 C255 1.380 . S
C254 C253 1.170 1_554 S
C255 C253 1.380 . S
C255 C256 1.170 . S
C256 C255 1.170 . S
C257 C258 1.170 1_556 S
C257 C259 1.380 . S
C258 C257 1.170 1_554 S
C259 C257 1.380 . S
C259 C260 1.170 . S
C260 C259 1.170 . S
C261 C262 1.170 . S
C261 C263 1.380 . S
C262 C261 1.170 . S
C263 C261 1.380 . S
C263 C264 1.170 . S
C264 C263 1.170 . S
C265 C266 1.170 . S
C265 C267 1.380 . S
C266 C265 1.170 . S
C267 C265 1.380 . S
C267 C268 1.170 . S
C268 C267 1.170 . S
C269 C270 1.170 . S
C269 C271 1.380 1_554 S
C270 C269 1.170 . S
C271 C269 1.380 1_556 S
C271 C272 1.170 . S
C272 C271 1.170 . S
C273 C274 1.170 1_556 S
C273 C275 1.380 . S
C274 C273 1.170 1_554 S
C275 C273 1.380 . S
C275 C276 1.170 . S
C276 C275 1.170 . S
C277 C278 1.170 . S
C277 C279 1.380 . S
C278 C277 1.170 . S
C279 C277 1.380 . S
C279 C280 1.170 . S
C280 C279 1.170 . S
C281 C282 1.170 . S
C281 C283 1.380 . S
C282 C281 1.170 . S
C283 C281 1.380 . S
C283 C284 1.170 . S
C284 C283 1.170 . S
C285 C286 1.170 . S
C285 C287 1.380 . S
C286 C285 1.170 . S
C287 C285 1.380 . S
C287 C288 1.170 . S
C288 C287 1.170 . S
C289 C290 1.170 . S
C289 C291 1.380 . S
C290 C289 1.170 . S
C291 C289 1.380 . S
C291 C292 1.170 . S
C292 C291 1.170 . S
C293 C294 1.170 . S
C293 C295 1.380 . S
C294 C293 1.170 . S
C295 C293 1.380 . S
C295 C296 1.170 . S
C296 C295 1.170 . S
C297 C298 1.170 . S
C297 C299 1.380 . S
C298 C297 1.170 . S
C299 C297 1.380 . S
C299 C300 1.170 . S
C300 C299 1.170 . S
C301 C302 1.170 . S
C301 C303 1.380 . S
C302 C301 1.170 . S
C303 C301 1.380 . S
C303 C304 1.170 . S
C304 C303 1.170 . S
C305 C306 1.170 . S
C305 C307 1.380 . S
C306 C305 1.170 . S
C307 C305 1.380 . S
C307 C308 1.170 . S
C308 C307 1.170 . S
C214 C12 1.895 . S
C216 C131 1.851 . S
C218 C32 1.665 . S
C220 C178 1.665 . S
C224 C182 1.772 . S
C222 C52 1.811 . S
C228 C147 1.605 . S
C226 C75 1.567 . S
C230 C95 1.786 . S
C232 C162 1.789 . S
C236 C184 1.341 . S
C234 C115 1.216 . S
C240 C153 1.588 . S
C238 C58 1.600 . S
C242 C69 1.527 . S
C244 C193 1.562 . S
C248 C122 1.515 . S
C246 C89 1.451 1_556 S
C250 C109 1.499 . S
C252 C151 1.514 . S
C254 C18 1.884 . S
C256 C209 1.820 . S
C260 C120 1.589 . S
C258 C38 1.568 . S
C264 C138 1.810 . S
C262 C78 1.824 . S
C268 C152 1.643 . S
C266 C98 1.631 1_556 S
C272 C206 1.753 . S
C270 C118 1.791 . S
C276 C121 1.569 . S
C274 C9 1.575 . S
C280 C169 1.737 . S
C278 C29 1.783 1_556 S
C282 C49 1.277 . S
C284 C192 1.292 . S
C288 C161 1.574 . S
C286 C112 1.587 . S
C292 C200 1.534 . S
C290 C15 1.498 . S
C296 C130 1.445 . S
C294 C35 1.451 . S
C300 C175 1.511 . S
C298 C55 1.502 . S
C302 C72 1.868 . S
C304 C183 1.822 . S
C306 C92 1.554 . S
C308 C144 1.572 . S
