# Generated by pormake.
# Topology zzz, (3,6)-cn, num edge types: 1
# Building blocks:
#     Node 0, Type 0, BuildingBlock: BETDIP_clean_linker_0, # of connection points: 3
#     Node 1, Type 0, BuildingBlock: BETDIP_clean_linker_0, # of connection points: 3
#     Node 2, Type 0, BuildingBlock: BETDIP_clean_linker_0, # of connection points: 3
#     Node 3, Type 0, BuildingBlock: BETDIP_clean_linker_0, # of connection points: 3
#     Node 4, Type 0, BuildingBlock: BETDIP_clean_linker_0, # of connection points: 3
#     Node 5, Type 0, BuildingBlock: BETDIP_clean_linker_0, # of connection points: 3
#     Node 6, Type 0, BuildingBlock: BETDIP_clean_linker_0, # of connection points: 3
#     Node 7, Type 0, BuildingBlock: BETDIP_clean_linker_0, # of connection points: 3
#     Node 8, Type 1, BuildingBlock: INOVEN_clean_sbu_0, # of connection points: 6
#     Node 9, Type 1, BuildingBlock: INOVEN_clean_sbu_0, # of connection points: 6
#     Node 10, Type 1, BuildingBlock: INOVEN_clean_sbu_0, # of connection points: 6
#     Node 11, Type 1, BuildingBlock: INOVEN_clean_sbu_0, # of connection points: 6
#     Edge 12, Type (0, 1), BuildingBlock: XUDNAN_clean_linker_2, # of connection points: 2
#     Edge 13, Type (0, 1), BuildingBlock: XUDNAN_clean_linker_2, # of connection points: 2
#     Edge 14, Type (0, 1), BuildingBlock: XUDNAN_clean_linker_2, # of connection points: 2
#     Edge 15, Type (0, 1), BuildingBlock: XUDNAN_clean_linker_2, # of connection points: 2
#     Edge 16, Type (0, 1), BuildingBlock: XUDNAN_clean_linker_2, # of connection points: 2
#     Edge 17, Type (0, 1), BuildingBlock: XUDNAN_clean_linker_2, # of connection points: 2
#     Edge 18, Type (0, 1), BuildingBlock: XUDNAN_clean_linker_2, # of connection points: 2
#     Edge 19, Type (0, 1), BuildingBlock: XUDNAN_clean_linker_2, # of connection points: 2
#     Edge 20, Type (0, 1), BuildingBlock: XUDNAN_clean_linker_2, # of connection points: 2
#     Edge 21, Type (0, 1), BuildingBlock: XUDNAN_clean_linker_2, # of connection points: 2
#     Edge 22, Type (0, 1), BuildingBlock: XUDNAN_clean_linker_2, # of connection points: 2
#     Edge 23, Type (0, 1), BuildingBlock: XUDNAN_clean_linker_2, # of connection points: 2
#     Edge 24, Type (0, 1), BuildingBlock: XUDNAN_clean_linker_2, # of connection points: 2
#     Edge 25, Type (0, 1), BuildingBlock: XUDNAN_clean_linker_2, # of connection points: 2
#     Edge 26, Type (0, 1), BuildingBlock: XUDNAN_clean_linker_2, # of connection points: 2
#     Edge 27, Type (0, 1), BuildingBlock: XUDNAN_clean_linker_2, # of connection points: 2
#     Edge 28, Type (0, 1), BuildingBlock: XUDNAN_clean_linker_2, # of connection points: 2
#     Edge 29, Type (0, 1), BuildingBlock: XUDNAN_clean_linker_2, # of connection points: 2
#     Edge 30, Type (0, 1), BuildingBlock: XUDNAN_clean_linker_2, # of connection points: 2
#     Edge 31, Type (0, 1), BuildingBlock: XUDNAN_clean_linker_2, # of connection points: 2
#     Edge 32, Type (0, 1), BuildingBlock: XUDNAN_clean_linker_2, # of connection points: 2
#     Edge 33, Type (0, 1), BuildingBlock: XUDNAN_clean_linker_2, # of connection points: 2
#     Edge 34, Type (0, 1), BuildingBlock: XUDNAN_clean_linker_2, # of connection points: 2
#     Edge 35, Type (0, 1), BuildingBlock: XUDNAN_clean_linker_2, # of connection points: 2
# Relax obj value: 0.263
# Max RMSD: 0.185
# Mean RMSD: 0.159
data_MOF--net-zzz--node1-INOVEN_clean_sbu_0--node2-BETDIP_clean_linker_0--edge1-XUDNAN_clean_linker_2
_symmetry_space_group_name_H-M    P1
_symmetry_Int_Tables_number       1
_symmetry_cell_setting            triclinic
loop_
_symmetry_equiv_pos_as_xyz
'x, y, z'
_cell_length_a     52.650227
_cell_length_b     52.742696
_cell_length_c     13.311193
_cell_angle_alpha  89.978448
_cell_angle_beta   90.088893
_cell_angle_gamma 89.947586
loop_
_atom_site_label
_atom_site_type_symbol
_atom_site_fract_x
_atom_site_fract_y
_atom_site_fract_z
_atom_type_partial_charge
H0 H 0.75813 0.51534 0.44566 0.0
H1 H 0.74166 0.45735 0.22646 0.0
H2 H 0.81347 0.45787 0.3794 0.0
H3 H 0.72851 0.50471 0.15449 0.0
C4 C 0.71419 0.5026 0.21268 0.0
C5 C 0.76356 0.49818 0.40648 0.0
C6 C 0.78771 0.48712 0.42448 0.0
C7 C 0.74678 0.4874 0.33465 0.0
C8 C 0.7543 0.46553 0.28195 0.0
C9 C 0.77806 0.45437 0.29959 0.0
C10 C 0.79438 0.46531 0.37083 0.0
N11 N 0.72257 0.49855 0.31367 0.0
H12 H 1.00982 0.75293 0.48496 0.0
H13 H 0.98343 0.73327 0.18714 0.0
H14 H 0.98157 0.81036 0.28286 0.0
H15 H 0.96686 0.69871 0.2978 0.0
C16 C 0.98672 0.69387 0.31002 0.0
C17 C 1.00151 0.75845 0.4138 0.0
C18 C 0.99498 0.78442 0.39603 0.0
C19 C 0.99658 0.73954 0.33911 0.0
C20 C 0.98621 0.74706 0.24651 0.0
C21 C 0.98028 0.7723 0.22756 0.0
C22 C 0.98476 0.79062 0.3017 0.0
N23 N 1.00256 0.71317 0.35345 0.0
H24 H 0.76465 0.99613 0.41727 0.0
H25 H 0.7839 0.06294 0.24494 0.0
H26 H 0.71139 0.05723 0.38936 0.0
H27 H 0.82458 0.05098 0.2921 0.0
C28 C 0.82326 0.0311 0.27143 0.0
C29 C 0.75998 0.01493 0.39011 0.0
C30 C 0.7359 0.02554 0.41181 0.0
C31 C 0.7778 0.0285 0.33079 0.0
C32 C 0.7711 0.05274 0.29392 0.0
C33 C 0.74733 0.06346 0.31582 0.0
C34 C 0.73017 0.04965 0.37488 0.0
N35 N 0.8014 0.01695 0.3024 0.0
H36 H 0.52625 0.75546 0.44902 0.0
H37 H 0.56052 0.77305 0.16209 0.0
H38 H 0.5606 0.69701 0.26661 0.0
H39 H 0.57146 0.80927 0.26188 0.0
C40 C 0.55147 0.8135 0.27393 0.0
C41 C 0.53642 0.74941 0.38261 0.0
C42 C 0.54361 0.72343 0.37121 0.0
C43 C 0.54299 0.76776 0.30809 0.0
C44 C 0.55617 0.75979 0.2218 0.0
C45 C 0.56326 0.73461 0.21015 0.0
C46 C 0.55651 0.71672 0.28275 0.0
N47 N 0.53599 0.79397 0.31717 0.0
H48 H 0.25974 0.48919 0.09595 0.0
H49 H 0.28157 0.55262 0.28256 0.0
H50 H 0.20687 0.54953 0.15397 0.0
H51 H 0.32007 0.54169 0.15797 0.0
C52 C 0.32088 0.52419 0.20109 0.0
C53 C 0.25527 0.50721 0.13072 0.0
C54 C 0.23088 0.5181 0.11732 0.0
C55 C 0.2739 0.51985 0.1896 0.0
C56 C 0.26778 0.5432 0.23499 0.0
C57 C 0.24375 0.55409 0.22152 0.0
C58 C 0.22568 0.5414 0.16279 0.0
N59 N 0.29848 0.50897 0.2059 0.0
H60 H 1.01386 0.27162 0.96682 0.0
H61 H 0.99098 0.28901 0.27151 0.0
H62 H 0.99353 0.21201 0.17341 0.0
H63 H 0.97131 0.32275 0.17076 0.0
C64 C 0.99022 0.32897 0.14927 0.0
C65 C 1.00784 0.26547 0.04063 0.0
C66 C 1.00474 0.23904 0.06084 0.0
C67 C 1.00281 0.2839 0.11699 0.0
C68 C 0.99469 0.27554 0.21186 0.0
C69 C 0.99179 0.24984 0.23171 0.0
C70 C 0.99681 0.2319 0.15703 0.0
N71 N 1.0063 0.31063 0.10107 0.0
H72 H 0.26028 0.01794 0.02787 0.0
H73 H 0.2421 0.05647 0.30462 0.0
H74 H 0.31793 0.05834 0.19185 0.0
H75 H 0.22591 1.01275 0.32397 0.0
C76 C 0.21272 0.01662 0.26284 0.0
C77 C 0.26597 0.03004 0.0896 0.0
C78 C 0.2914 0.03918 0.09559 0.0
C79 C 0.24814 0.03583 0.16659 0.0
C80 C 0.2556 0.05165 0.24627 0.0
C81 C 0.28061 0.05999 0.25534 0.0
C82 C 0.29815 0.05362 0.18017 0.0
N83 N 0.22326 0.02477 0.169 0.0
H84 H 0.50369 0.25081 0.04967 0.0
H85 H 0.56678 0.23246 0.24405 0.0
H86 H 0.56782 0.30118 0.07374 0.0
H87 H 0.5258 0.22333 0.34059 0.0
C88 C 0.52218 0.20854 0.28545 0.0
C89 C 0.52249 0.25507 0.07813 0.0
C90 C 0.53478 0.27796 0.04931 0.0
C91 C 0.53414 0.23826 0.14786 0.0
C92 C 0.55802 0.24459 0.18806 0.0
C93 C 0.57031 0.26696 0.15982 0.0
C94 C 0.55888 0.28309 0.08945 0.0
N95 N 0.52161 0.21571 0.18169 0.0
Gd96 Gd 0.02401 1.00907 0.80216 0.0
Gd97 Gd 0.99146 0.01483 0.63683 0.0
C98 C 1.00874 0.95888 0.6692 0.0
C99 C 0.04121 0.98939 0.96351 0.0
C100 C 0.03129 0.96463 0.99605 0.0
C101 C 0.04741 0.94346 0.99657 0.0
C102 C 1.00483 0.96081 0.9947 0.0
C103 C 1.01095 0.91556 0.97401 0.0
C104 C 0.99482 0.93666 0.982 0.0
C105 C 0.03731 0.91909 0.98645 0.0
C106 C 0.05118 0.02176 0.63657 0.0
C107 C 1.0075 0.06593 0.76907 0.0
C108 C 0.96596 0.03054 0.48385 0.0
C109 C 0.95045 0.05351 0.47694 0.0
C110 C 0.9392 0.06345 0.56437 0.0
C111 C 0.95176 0.06837 0.39017 0.0
C112 C 0.9359 0.1044 0.48437 0.0
C113 C 0.94433 0.09372 0.39365 0.0
C114 C 0.93194 0.08886 0.56799 0.0
C115 C 0.96569 1.00134 0.80532 0.0
O116 O 1.01435 0.9679 0.75932 0.0
O117 O 1.0022 0.97477 0.59754 0.0
O118 O 0.05403 0.98859 0.87957 0.0
O119 O 0.02491 1.00811 0.96527 0.0
O120 O 0.05536 0.03041 0.72637 0.0
O121 O 0.03272 1.00627 0.63792 0.0
O122 O 0.9962 0.05634 0.68819 0.0
O123 O 0.01968 0.0508 0.83136 0.0
O124 O 0.95755 1.0131 0.54481 0.0
O125 O 0.99029 0.03481 0.49469 0.0
O126 O 0.96242 0.99113 0.71809 0.0
O127 O 0.9829 0.01797 0.79998 0.0
H128 H 0.06784 0.94589 0.99673 0.0
H129 H 0.99175 0.97666 0.99344 0.0
H130 H 0.97448 0.93489 0.97251 0.0
H131 H 0.05028 0.90317 0.9847 0.0
H132 H 0.93839 0.05237 0.63287 0.0
H133 H 0.96082 0.06115 0.323 0.0
H134 H 0.94785 0.10566 0.32887 0.0
H135 H 0.92596 0.09695 0.63896 0.0
Gd136 Gd 0.52223 0.02249 0.87087 0.0
Gd137 Gd 0.51001 0.99197 0.68014 0.0
C138 C 0.56813 1.00499 0.71665 0.0
C139 C 0.53961 0.0364 0.04225 0.0
C140 C 0.56207 0.05241 0.06206 0.0
C141 C 0.55992 0.07494 0.11785 0.0
C142 C 0.58526 0.04672 0.01526 0.0
C143 C 0.60359 0.08609 0.07614 0.0
C144 C 0.6057 0.06327 0.02236 0.0
C145 C 0.5806 0.09162 0.12538 0.0
C146 C 0.51949 0.05555 0.71217 0.0
C147 C 0.46338 1.0133 0.82204 0.0
C148 C 0.48718 0.97994 0.51864 0.0
C149 C 0.46339 0.99316 0.49111 0.0
C150 C 0.43995 0.9815 0.51059 0.0
C151 C 0.4639 0.01952 0.47482 0.0
C152 C 0.41923 0.02283 0.51788 0.0
C153 C 0.44227 0.03421 0.48999 0.0
C154 C 0.41807 0.99617 0.52338 0.0
C155 C 0.52257 0.96342 0.84252 0.0
O156 O 0.5613 1.01157 0.80918 0.0
O157 O 0.55114 0.99894 0.6476 0.0
O158 O 0.52055 0.04801 0.99854 0.0
O159 O 0.54419 1.01389 1.00397 0.0
O160 O 0.52398 0.06218 0.80394 0.0
O161 O 0.51646 0.03185 0.71125 0.0
O162 O 0.47098 1.00469 0.73364 0.0
O163 O 0.47977 0.01976 0.89294 0.0
O164 O 0.48561 0.9658 0.5994 0.0
O165 O 0.50778 0.99391 0.51761 0.0
O166 O 0.5293 0.95815 0.7508 0.0
O167 O 0.50882 0.98318 0.84308 0.0
H168 H 0.54214 0.07985 0.15383 0.0
H169 H 0.58763 0.0296 0.97152 0.0
H170 H 0.62336 0.05792 0.98648 0.0
H171 H 0.57853 0.10892 0.16842 0.0
H172 H 0.43888 0.96124 0.5234 0.0
H173 H 0.48148 0.02923 0.45841 0.0
H174 H 0.44407 0.05461 0.48443 0.0
H175 H 0.40043 0.98657 0.54035 0.0
Gd176 Gd 0.49655 0.50786 0.81213 0.0
Gd177 Gd 0.52902 0.496 0.64679 0.0
C178 C 0.51866 0.55401 0.677 0.0
C179 C 0.48275 0.52998 0.97315 0.0
C180 C 0.49856 0.55086 0.01177 0.0
C181 C 0.48882 0.57557 0.01364 0.0
C182 C 0.52505 0.5474 0.01476 0.0
C183 C 0.53174 0.59266 0.9985 0.0
C184 C 0.54142 0.56793 0.00604 0.0
C185 C 0.50528 0.59631 0.00839 0.0
C186 C 0.46893 0.49822 0.64382 0.0
C187 C 0.50612 0.44916 0.78495 0.0
C188 C 0.5514 0.47769 0.49012 0.0
C189 C 0.56871 0.45627 0.47581 0.0
C190 C 0.5775 0.45026 0.37965 0.0
C191 C 0.57627 0.4415 0.55829 0.0
C192 C 0.59952 0.4133 0.44694 0.0
C193 C 0.59157 0.42017 0.54401 0.0
C194 C 0.59281 0.42893 0.3652 0.0
C195 C 0.55628 0.50668 0.81537 0.0
O196 O 0.51292 0.54643 0.7687 0.0
O197 O 0.52219 0.53696 0.60612 0.0
O198 O 0.4718 0.53487 0.887 0.0
O199 O 0.49333 0.50753 0.97482 0.0
O200 O 0.46215 0.4917 0.73393 0.0
O201 O 0.48957 0.51053 0.64739 0.0
O202 O 0.51989 0.45606 0.70609 0.0
O203 O 0.49488 0.46625 0.84152 0.0
O204 O 0.5606 0.49632 0.54333 0.0
O205 O 0.52809 0.47184 0.51509 0.0
O206 O 0.56209 0.51417 0.72591 0.0
O207 O 0.53623 0.49348 0.81155 0.0
H208 H 0.4685 0.5788 0.01098 0.0
H209 H 0.53325 0.52863 0.01368 0.0
H210 H 0.56153 0.56409 0.99902 0.0
H211 H 0.49708 0.61513 0.008 0.0
H212 H 0.57194 0.46162 0.31543 0.0
H213 H 0.56985 0.44614 0.63338 0.0
H214 H 0.59653 0.40863 0.60847 0.0
H215 H 0.59821 0.42397 0.28923 0.0
Gd216 Gd 1.00392 0.48953 0.83857 0.0
Gd217 Gd 0.0182 0.52715 0.65558 0.0
C218 C 0.95896 0.5113 0.69182 0.0
C219 C 0.98937 0.46967 0.00517 0.0
C220 C 0.97045 0.44989 0.02535 0.0
C221 C 0.9629 0.43335 0.94823 0.0
C222 C 0.95738 0.44969 0.11675 0.0
C223 C 0.92691 0.41954 0.04789 0.0
C224 C 0.93576 0.4346 0.12812 0.0
C225 C 0.94137 0.41823 0.95952 0.0
C226 C 1.00807 0.46297 0.66109 0.0
C227 C 0.06299 0.50557 0.80246 0.0
C228 C 0.03326 0.54672 0.48884 0.0
C229 C 0.05263 0.56601 0.46765 0.0
C230 C 0.05974 0.58344 0.54228 0.0
C231 C 0.0665 0.56485 0.37819 0.0
C232 C 0.09661 0.59576 0.44423 0.0
C233 C 0.08831 0.57962 0.3664 0.0
C234 C 0.08148 0.59828 0.53048 0.0
C235 C 1.01406 0.55335 0.83374 0.0
O236 O 0.96486 0.50015 0.77841 0.0
O237 O 0.97629 0.52078 0.62997 0.0
O238 O 1.00988 0.46223 0.95756 0.0
O239 O 0.97994 0.49099 0.97019 0.0
O240 O 1.00323 0.45299 0.7478 0.0
O241 O 1.01095 0.48648 0.67548 0.0
O242 O 0.05694 0.51516 0.71325 0.0
O243 O 0.04563 0.4974 0.86706 0.0
O244 O 1.01295 0.55462 0.53652 0.0
O245 O 0.04222 0.52526 0.52408 0.0
O246 O 0.01885 0.5638 0.74785 0.0
O247 O 1.01146 0.52993 0.81791 0.0
H248 H 0.97273 0.43317 0.87701 0.0
H249 H 0.96291 0.46237 0.17696 0.0
H250 H 0.92493 0.43632 0.19687 0.0
H251 H 0.93519 0.40665 0.8969 0.0
H252 H 0.04932 0.58463 0.6121 0.0
H253 H 0.06137 0.55141 0.32004 0.0
H254 H 0.09967 0.57687 0.29949 0.0
H255 H 0.08722 0.61069 0.59123 0.0
H256 H 0.19473 0.02721 0.44736 0.0
H257 H 0.1692 1.01096 0.14491 0.0
H258 H 0.12433 1.01126 0.20478 0.0
H259 H 0.15047 0.98999 0.57898 0.0
H260 H 0.1465 1.01228 0.68036 0.0
H261 H 0.17591 1.01131 0.61182 0.0
H262 H 0.17158 0.05913 0.57044 0.0
H263 H 0.1422 0.06029 0.63944 0.0
H264 H 0.14308 0.07057 0.51033 0.0
H265 H 0.08175 1.0097 0.30746 0.0
H266 H 0.04705 1.01083 0.43415 0.0
H267 H 0.10167 0.0317 0.6633 0.0
C268 C 0.17967 0.02396 0.39333 0.0
C269 C 0.18542 0.019 0.29151 0.0
C270 C 0.16521 0.01494 0.2231 0.0
C271 C 0.1397 0.01498 0.25679 0.0
C272 C 0.13474 0.01962 0.35863 0.0
C273 C 0.15432 0.02451 0.42515 0.0
C274 C 0.14445 0.0293 0.53032 0.0
C275 C 0.15495 1.00954 0.60471 0.0
C276 C 0.1507 0.05644 0.56461 0.0
C277 C 0.1162 0.02591 0.514 0.0
C278 C 0.11079 0.02009 0.41491 0.0
C279 C 0.0859 0.01466 0.38463 0.0
C280 C 0.06627 0.0153 0.45707 0.0
C281 C 0.07151 0.02169 0.55842 0.0
C282 C 0.09686 0.02719 0.58622 0.0
H283 H 0.51717 0.19461 0.47931 0.0
H284 H 0.52168 0.16258 0.1804 0.0
H285 H 0.52031 0.11918 0.25412 0.0
H286 H 0.55669 0.15003 0.60104 0.0
H287 H 0.53848 0.14973 0.71558 0.0
H288 H 0.53867 0.1776 0.63757 0.0
H289 H 0.48952 0.17641 0.62708 0.0
H290 H 0.48917 0.14857 0.70546 0.0
H291 H 0.47394 0.14797 0.58414 0.0
H292 H 0.52056 0.07826 0.36878 0.0
H293 H 0.52147 0.04627 0.50659 0.0
H294 H 0.51572 0.10666 0.7254 0.0
C295 C 0.51756 0.17847 0.42901 0.0
C296 C 0.51936 0.18203 0.32402 0.0
C297 C 0.52005 0.16038 0.261 0.0
C298 C 0.51936 0.13564 0.30248 0.0
C299 C 0.51779 0.13285 0.40705 0.0
C300 C 0.51674 0.15389 0.46895 0.0
C301 C 0.51555 0.14637 0.57864 0.0
C302 C 0.53873 0.15653 0.63657 0.0
C303 C 0.49056 0.15536 0.62662 0.0
C304 C 0.51636 0.11777 0.56997 0.0
C305 C 0.51761 0.11008 0.47078 0.0
C306 C 0.51922 0.08428 0.44633 0.0
C307 C 0.51952 0.06615 0.52493 0.0
C308 C 0.51812 0.07386 0.6267 0.0
C309 C 0.51656 0.10005 0.64845 0.0
H310 H 0.33128 0.49743 0.37773 0.0
H311 H 0.36688 0.5366 0.12886 0.0
H312 H 0.4089 0.53082 0.20798 0.0
H313 H 0.36903 0.52583 0.56544 0.0
H314 H 0.3713 0.49829 0.64515 0.0
H315 H 0.34429 0.50222 0.56352 0.0
H316 H 0.35322 0.45846 0.48289 0.0
H317 H 0.38023 0.45434 0.56474 0.0
H318 H 0.38412 0.45202 0.43055 0.0
H319 H 0.44677 0.52397 0.31886 0.0
H320 H 0.47768 0.51738 0.45631 0.0
H321 H 0.41838 0.48379 0.63885 0.0
C322 C 0.34805 0.50405 0.33875 0.0
C323 C 0.34588 0.517 0.24577 0.0
C324 C 0.36815 0.5263 0.19914 0.0
C325 C 0.39213 0.52312 0.24362 0.0
C326 C 0.3937 0.51079 0.33599 0.0
C327 C 0.3723 0.50138 0.38336 0.0
C328 C 0.37924 0.49082 0.48635 0.0
C329 C 0.36513 0.50515 0.57004 0.0
C330 C 0.37388 0.46221 0.4914 0.0
C331 C 0.40767 0.49614 0.48977 0.0
C332 C 0.41561 0.50742 0.40162 0.0
C333 C 0.44079 0.51496 0.38792 0.0
C334 C 0.45826 0.51115 0.46654 0.0
C335 C 0.45059 0.50002 0.55842 0.0
C336 C 0.42494 0.49216 0.56931 0.0
H337 H 0.99158 0.33458 0.35146 0.0
H338 H 1.00795 0.37479 0.07598 0.0
H339 H 0.01545 0.41433 0.17402 0.0
H340 H 0.95805 0.383 0.47168 0.0
H341 H 0.97027 0.37627 0.59543 0.0
H342 H 0.9682 0.35134 0.50358 0.0
H343 H 0.01622 0.34191 0.5246 0.0
H344 H 0.01838 0.36661 0.61764 0.0
H345 H 0.03888 0.36722 0.50935 0.0
H346 H 0.01802 0.4511 0.30997 0.0
H347 H 0.01756 0.47848 0.4629 0.0
H348 H 1.00044 0.41247 0.6442 0.0
C349 C 0.99753 0.35153 0.31203 0.0
C350 C 0.99989 0.35142 0.20632 0.0
C351 C 1.00684 0.37422 0.15718 0.0
C352 C 1.01089 0.39683 0.21248 0.0
C353 C 1.00814 0.39634 0.31722 0.0
C354 C 1.00194 0.374 0.36608 0.0
C355 C 0.99941 0.3781 0.47825 0.0
C356 C 0.97237 0.37181 0.51429 0.0
C357 C 0.01941 0.36254 0.53584 0.0
C358 C 1.00475 0.40627 0.48577 0.0
C359 C 1.00974 0.41673 0.39268 0.0
C360 C 1.01441 0.44284 0.383 0.0
C361 C 1.01411 0.45834 0.47024 0.0
C362 C 1.00917 0.44772 0.56608 0.0
C363 C 1.0045 0.42132 0.57257 0.0
H364 H 0.86574 0.05545 0.20574 0.0
H365 H 0.82797 0.98251 0.19405 0.0
H366 H 0.86209 0.9662 0.08327 0.0
H367 H 0.88548 0.05688 0.95075 0.0
H368 H 0.91552 0.07198 0.97601 0.0
H369 H 0.88899 0.07726 0.0586 0.0
H370 H 0.91597 0.06213 0.2096 0.0
H371 H 0.94263 0.0567 0.12759 0.0
H372 H 0.93091 0.03137 0.20577 0.0
H373 H 0.89915 0.95886 0.96384 0.0
H374 H 0.9356 0.96099 0.8471 0.0
H375 H 0.95018 0.03839 0.93961 0.0
C376 C 0.8648 0.03593 0.18076 0.0
C377 C 0.84419 0.02021 0.20908 0.0
C378 C 0.84356 0.99488 0.174 0.0
C379 C 0.86291 0.98547 0.11097 0.0
C380 C 0.88287 1.00156 0.08389 0.0
C381 C 0.88397 0.02626 0.11802 0.0
C382 C 0.90695 0.03997 0.07528 0.0
C383 C 0.89874 0.06287 0.01136 0.0
C384 C 0.9252 0.04801 0.15957 0.0
C385 C 0.91854 0.01927 0.01058 0.0
C386 C 0.90435 0.99723 0.01674 0.0
C387 C 0.91047 0.97594 0.95952 0.0
C388 C 0.93123 0.97732 0.89334 0.0
C389 C 0.9459 0.99972 0.88493 0.0
C390 C 0.93966 0.02082 0.94583 0.0
H391 H 0.57303 0.83824 0.1181 0.0
H392 H 0.50751 0.84118 0.31397 0.0
H393 H 0.49366 0.88119 0.2306 0.0
H394 H 0.58587 0.90467 0.10362 0.0
H395 H 0.59437 0.90392 0.97253 0.0
H396 H 0.5991 0.87624 0.04964 0.0
H397 H 0.57193 0.84949 0.92673 0.0
H398 H 0.56732 0.87702 0.84875 0.0
H399 H 0.54023 0.85982 0.89555 0.0
H400 H 0.48862 0.92288 0.12673 0.0
H401 H 0.48967 0.95784 1.00184 0.0
H402 H 0.55683 0.92486 0.867 0.0
C403 C 0.55572 0.8473 0.14352 0.0
C404 C 0.54141 0.8367 0.22305 0.0
C405 C 0.51874 0.84893 0.25322 0.0
C406 C 0.51085 0.87174 0.20647 0.0
C407 C 0.52562 0.88181 0.12855 0.0
C408 C 0.54737 0.8696 0.09638 0.0
C409 C 0.55941 0.88335 0.00836 0.0
C410 C 0.58628 0.89259 0.03519 0.0
C411 C 0.55973 0.86642 0.91429 0.0
C412 C 0.54124 0.90544 0.99578 0.0
C413 C 0.52204 0.90454 0.06659 0.0
C414 C 0.50348 0.9235 0.07071 0.0
C415 C 0.5043 0.94341 0.99978 0.0
C416 C 0.52328 0.94407 0.92435 0.0
C417 C 0.54202 0.92485 0.92339 0.0
H418 H 0.69529 0.52438 0.04401 0.0
H419 H 0.6718 0.48254 0.30789 0.0
H420 H 0.62778 0.48046 0.2403 0.0
H421 H 0.636 0.56155 0.01732 0.0
H422 H 0.63766 0.56092 0.88215 0.0
H423 H 0.66643 0.56022 0.9556 0.0
H424 H 0.6801 0.5189 0.8649 0.0
H425 H 0.6513 0.51938 0.79202 0.0
H426 H 0.65915 0.49187 0.86622 0.0
H427 H 0.58666 0.47964 0.13099 0.0
H428 H 0.55305 0.48283 1.00028 0.0
H429 H 0.60372 0.52756 0.81519 0.0
C430 C 0.68076 0.51518 0.0885 0.0
C431 C 0.68695 0.50374 0.18146 0.0
C432 C 0.66746 0.49171 0.2371 0.0
C433 C 0.64241 0.49035 0.19889 0.0
C434 C 0.63705 0.50154 0.10578 0.0
C435 C 0.65572 0.51412 0.05245 0.0
C436 C 0.64548 0.52435 0.95386 0.0
C437 C 0.64646 0.55349 0.95218 0.0
C438 C 0.65986 0.51293 0.86399 0.0
C439 C 0.61833 0.51494 0.95788 0.0
C440 C 0.61366 0.50181 0.04589 0.0
C441 C 0.59013 0.49026 0.06279 0.0
C442 C 0.57112 0.49214 0.98809 0.0
C443 C 0.57557 0.50566 0.89774 0.0
C444 C 0.5995 0.51732 0.88369 0.0
H445 H 0.96441 0.67149 0.15016 0.0
H446 H 0.02992 0.66406 0.34494 0.0
H447 H 0.04222 0.62446 0.25478 0.0
H448 H 0.94939 0.60539 0.12313 0.0
H449 H 0.94076 0.60826 0.99252 0.0
H450 H 0.93688 0.63491 0.07576 0.0
H451 H 0.96468 0.66271 0.95903 0.0
H452 H 0.96826 0.6363 0.87472 0.0
H453 H 0.99598 0.6519 0.92471 0.0
H454 H 0.04625 0.58399 0.13892 0.0
H455 H 0.04511 0.55233 1.00025 0.0
H456 H 0.97859 0.58921 0.87706 0.0
C457 C 0.98139 0.66154 0.17409 0.0
C458 C 0.99613 0.67085 0.25515 0.0
C459 C 0.01835 0.65739 0.28307 0.0
C460 C 0.02534 0.63476 0.23246 0.0
C461 C 1.01013 0.62601 0.15301 0.0
C462 C 0.98883 0.63942 0.12327 0.0
C463 C 0.97631 0.62732 0.03241 0.0
C464 C 0.94923 0.61845 0.0575 0.0
C465 C 0.97632 0.64564 0.94241 0.0
C466 C 0.99378 0.60492 0.0145 0.0
C467 C 1.01296 0.60402 0.08572 0.0
C468 C 0.03124 0.5847 0.08331 0.0
C469 C 0.03031 0.56656 0.00492 0.0
C470 C 1.01141 0.56793 0.92915 0.0
C471 C 0.99291 0.58731 0.93513 0.0
H472 H 0.01601 0.21922 0.35995 0.0
H473 H 0.94508 0.25843 0.31151 0.0
H474 H 0.92355 0.229 0.42743 0.0
H475 H 1.01221 0.14638 0.4025 0.0
H476 H 0.02454 0.17612 0.36138 0.0
H477 H 0.99414 0.16542 0.31541 0.0
H478 H 0.02854 0.19162 0.54433 0.0
H479 H 0.01656 0.1616 0.58823 0.0
H480 H 1.00145 0.19074 0.62635 0.0
H481 H 0.9074 0.188 0.48681 0.0
H482 H 0.89933 0.14167 0.49494 0.0
H483 H 0.98019 0.12776 0.50032 0.0
C484 C 0.99635 0.22248 0.38006 0.0
C485 C 0.9821 0.24086 0.32865 0.0
C486 C 0.95626 0.24457 0.35231 0.0
C487 C 0.94392 0.22784 0.41782 0.0
C488 C 0.95786 0.20778 0.45874 0.0
C489 C 0.98381 0.20542 0.44253 0.0
C490 C 0.99339 0.17941 0.47127 0.0
C491 C 1.00679 0.16609 0.38236 0.0
C492 C 1.011 0.18092 0.56311 0.0
C493 C 0.96855 0.16676 0.49693 0.0
C494 C 0.94829 0.18349 0.4927 0.0
C495 C 0.92313 0.17493 0.49471 0.0
C496 C 0.91863 0.14869 0.49848 0.0
C497 C 0.93926 0.13168 0.49902 0.0
C498 C 0.96429 0.14081 0.50198 0.0
H499 H 0.31517 0.09761 0.28 0.0
H500 H 0.26862 0.045 0.4465 0.0
H501 H 0.29894 0.04577 0.58509 0.0
H502 H 0.36178 0.06636 0.28014 0.0
H503 H 0.38728 0.08881 0.29641 0.0
H504 H 0.35754 0.09944 0.249 0.0
H505 H 0.35433 0.1324 0.39221 0.0
H506 H 0.38461 0.12174 0.43994 0.0
H507 H 0.35728 0.12242 0.52121 0.0
H508 H 0.33907 0.03435 0.65762 0.0
H509 H 0.38088 1.0139 0.65389 0.0
H510 H 0.40554 0.06723 0.4267 0.0
C511 C 0.31094 0.08752 0.34877 0.0
C512 C 0.2902 0.07069 0.35141 0.0
C513 C 0.2845 0.05799 0.44208 0.0
C514 C 0.30186 0.05828 0.5217 0.0
C515 C 0.32486 0.07105 0.50886 0.0
C516 C 0.32918 0.08624 0.42515 0.0
C517 C 0.35732 0.09132 0.41154 0.0
C518 C 0.36645 0.08608 0.30306 0.0
C519 C 0.36376 0.11858 0.44318 0.0
C520 C 0.3681 0.07255 0.48625 0.0
C521 C 0.34929 0.06283 0.54777 0.0
C522 C 0.35396 0.04228 0.61133 0.0
C523 C 0.37771 0.0304 0.60729 0.0
C524 C 0.39636 0.0386 0.53812 0.0
C525 C 0.39186 0.06077 0.4814 0.0
H526 H 0.57048 0.27527 0.35801 0.0
H527 H 0.61613 0.28411 0.09125 0.0
H528 H 0.6409 0.31764 0.17442 0.0
H529 H 0.55693 0.33118 0.38009 0.0
H530 H 0.55702 0.33585 0.51401 0.0
H531 H 0.5524 0.3048 0.46463 0.0
H532 H 0.59043 0.28738 0.56436 0.0
H533 H 0.59556 0.31829 0.6187 0.0
H534 H 0.62109 0.30236 0.55459 0.0
H535 H 0.64817 0.35875 0.25175 0.0
H536 H 0.6381 0.4014 0.31577 0.0
H537 H 0.58617 0.36845 0.53108 0.0
C538 C 0.58701 0.283 0.32069 0.0
C539 C 0.5917 0.27709 0.21932 0.0
C540 C 0.61263 0.28819 0.16978 0.0
C541 C 0.62675 0.30732 0.21673 0.0
C542 C 0.61969 0.31504 0.31311 0.0
C543 C 0.60062 0.30272 0.36587 0.0
C544 C 0.59192 0.31832 0.45503 0.0
C545 C 0.5629 0.32281 0.45309 0.0
C546 C 0.60025 0.30584 0.55403 0.0
C547 C 0.60659 0.34252 0.43669 0.0
C548 C 0.62346 0.33987 0.35772 0.0
C549 C 0.63572 0.36081 0.31585 0.0
C550 C 0.62971 0.38504 0.35198 0.0
C551 C 0.61133 0.38818 0.42841 0.0
C552 C 0.6008 0.36654 0.4746 0.0
H553 H 0.21773 0.59426 0.14759 0.0
H554 H 0.24914 0.56368 0.42208 0.0
H555 H 0.21877 0.58875 0.52045 0.0
H556 H 0.18564 0.65654 0.26405 0.0
H557 H 0.15861 0.65101 0.18376 0.0
H558 H 0.19022 0.64411 0.13925 0.0
H559 H 0.17595 0.59837 0.09727 0.0
H560 H 0.1448 0.60479 0.14304 0.0
H561 H 0.16276 0.57882 0.19545 0.0
H562 H 0.17716 0.60018 0.58156 0.0
H563 H 0.13102 0.59621 0.5978 0.0
H564 H 0.1218 0.61674 0.28487 0.0
C565 C 0.21905 0.59424 0.22877 0.0
C566 C 0.23542 0.57694 0.2774 0.0
C567 C 0.23687 0.57698 0.38327 0.0
C568 C 0.21948 0.59116 0.43977 0.0
C569 C 0.20079 0.60507 0.38913 0.0
C570 C 0.20079 0.60714 0.28524 0.0
C571 C 0.17532 0.61648 0.24653 0.0
C572 C 0.17759 0.64366 0.20605 0.0
C573 C 0.16408 0.59852 0.1661 0.0
C574 C 0.16006 0.61599 0.34271 0.0
C575 C 0.17541 0.61089 0.42491 0.0
C576 C 0.1651 0.60511 0.5186 0.0
C577 C 0.1387 0.60291 0.5272 0.0
C578 C 0.12282 0.60614 0.4422 0.0
C579 C 0.13359 0.61431 0.35085 0.0
H580 H 0.94157 0.80339 0.17897 0.0
H581 H 1.00417 0.7617 0.05126 0.0
H582 H 1.00654 0.79195 0.91224 0.0
H583 H 0.92219 0.84134 0.9188 0.0
H584 H 0.91628 0.86875 0.99613 0.0
H585 H 0.90731 0.83763 0.03976 0.0
H586 H 0.93323 0.84523 0.20226 0.0
H587 H 0.94246 0.87574 0.15884 0.0
H588 H 0.96657 0.85294 0.19263 0.0
H589 H 0.01756 0.83308 0.851 0.0
H590 H 0.03236 0.87696 0.86387 0.0
H591 H 0.96579 0.89616 0.03873 0.0
C592 C 0.95447 0.8 0.11717 0.0
C593 C 0.97296 0.78087 0.12594 0.0
C594 C 0.9898 0.77635 0.04565 0.0
C595 C 0.99128 0.79364 0.96623 0.0
C596 C 0.97587 0.81522 0.96897 0.0
C597 C 0.9569 0.81801 0.04075 0.0
C598 C 0.94808 0.84533 0.04736 0.0
C599 C 0.92192 0.84844 0.99748 0.0
C600 C 0.94765 0.85535 0.15661 0.0
C601 C 0.96839 0.85795 0.98487 0.0
C602 C 0.98301 0.84027 0.93419 0.0
C603 C 1.00569 0.84709 0.88735 0.0
C604 C 1.01422 0.87209 0.89647 0.0
C605 C 1.00024 0.89009 0.95249 0.0
C606 C 0.97656 0.88305 0.99316 0.0
H607 H 0.718 0.10066 0.39686 0.0
H608 H 0.75423 0.07815 0.11972 0.0
H609 H 0.72314 0.10281 0.02428 0.0
H610 H 0.66679 0.07884 0.33666 0.0
H611 H 0.64465 0.10093 0.39177 0.0
H612 H 0.67599 0.09855 0.44135 0.0
H613 H 0.68317 0.14651 0.41221 0.0
H614 H 0.65131 0.14914 0.36307 0.0
H615 H 0.67788 0.16004 0.28959 0.0
H616 H 0.68165 0.11161 0.95743 0.0
H617 H 0.63719 0.09966 0.92928 0.0
H618 H 0.62191 0.108 0.24666 0.0
C619 C 0.71993 0.1021 0.31613 0.0
C620 C 0.73799 0.08695 0.2657 0.0
C621 C 0.74059 0.08953 0.16062 0.0
C622 C 0.72274 0.10354 0.1055 0.0
C623 C 0.70217 0.11439 0.15626 0.0
C624 C 0.70083 0.11406 0.26038 0.0
C625 C 0.67383 0.11866 0.29624 0.0
C626 C 0.66482 0.098 0.37058 0.0
C627 C 0.67141 0.14517 0.343 0.0
C628 C 0.65974 0.11744 0.19712 0.0
C629 C 0.67656 0.11725 0.11705 0.0
C630 C 0.66837 0.1123 0.01933 0.0
C631 C 0.64306 0.10527 1.00407 0.0
C632 C 0.62637 0.10244 0.0865 0.0
C633 C 0.6343 0.1104 0.18261 0.0
H634 H 0.54174 0.73061 0.02847 0.0
H635 H 0.61074 0.71559 0.19214 0.0
H636 H 0.61948 0.67903 0.08469 0.0
H637 H 0.51662 0.68322 0.035 0.0
H638 H 0.50396 0.67635 0.91193 0.0
H639 H 0.51113 0.70828 0.94478 0.0
H640 H 0.54087 0.71253 0.79182 0.0
H641 H 0.53319 0.68037 0.75733 0.0
H642 H 0.56587 0.68969 0.7721 0.0
H643 H 0.60725 0.63673 0.05128 0.0
H644 H 0.58149 0.59851 0.06012 0.0
H645 H 0.52135 0.63641 0.89495 0.0
C646 C 0.55972 0.72077 0.03436 0.0
C647 C 0.57545 0.72537 0.11781 0.0
C648 C 0.59861 0.71221 0.12769 0.0
C649 C 0.60361 0.69128 0.0668 0.0
C650 C 0.58538 0.68413 0.99598 0.0
C651 C 0.56456 0.69946 0.97418 0.0
C652 C 0.54492 0.68492 0.91359 0.0
C653 C 0.51761 0.68837 0.95409 0.0
C654 C 0.54634 0.69234 0.8021 0.0
C655 C 0.55471 0.6582 0.92833 0.0
C656 C 0.5788 0.65823 0.9703 0.0
C657 C 0.58905 0.63636 0.01343 0.0
C658 C 0.57406 0.61454 0.01871 0.0
C659 C 0.54906 0.61442 0.97937 0.0
C660 C 0.54014 0.63606 0.92778 0.0
H661 H 0.80693 0.41404 0.35684 0.0
H662 H 0.77354 0.4497 0.09529 0.0
H663 H 0.80415 0.4278 0.98727 0.0
H664 H 0.86189 0.43183 0.30928 0.0
H665 H 0.88037 0.40511 0.35201 0.0
H666 H 0.84938 0.41029 0.4021 0.0
H667 H 0.83541 0.36533 0.34739 0.0
H668 H 0.86682 0.35969 0.29814 0.0
H669 H 0.83939 0.35546 0.21874 0.0
H670 H 0.84544 0.41789 0.91873 0.0
H671 H 0.89146 0.422 0.89868 0.0
H672 H 0.90273 0.39601 0.20423 0.0
C673 C 0.80537 0.41609 0.27614 0.0
C674 C 0.78817 0.43379 0.23463 0.0
C675 C 0.78638 0.43609 0.12907 0.0
C676 C 0.80389 0.42369 0.06692 0.0
C677 C 0.82306 0.40918 0.11147 0.0
C678 C 0.82365 0.40495 0.21424 0.0
C679 C 0.84942 0.39516 0.24772 0.0
C680 C 0.86091 0.4116 0.33253 0.0
C681 C 0.84765 0.36724 0.27985 0.0
C682 C 0.86411 0.39772 0.15062 0.0
C683 C 0.84824 0.40432 0.07168 0.0
C684 C 0.8579 0.41182 0.97885 0.0
C685 C 0.88423 0.4141 0.96806 0.0
C686 C 0.90067 0.4093 0.05021 0.0
C687 C 0.89051 0.3996 0.14032 0.0
H688 H 0.03254 0.19505 0.08007 0.0
H689 H 0.9812 0.23365 0.87668 0.0
H690 H 0.97686 0.19407 0.77747 0.0
H691 H 0.06419 0.15377 0.89248 0.0
H692 H 0.06585 0.1274 0.97847 0.0
H693 H 0.06673 0.15941 0.02571 0.0
H694 H 0.02844 0.14948 0.14092 0.0
H695 H 0.02717 0.11758 0.09311 0.0
H696 H 0.99946 0.1376 0.08625 0.0
H697 H 0.97568 0.1482 0.70825 0.0
H698 H 0.97958 0.10243 0.66954 0.0
H699 H 0.03123 0.09352 0.92106 0.0
C700 C 0.02117 0.1955 0.01221 0.0
C701 C 1.00767 0.2179 0.98514 0.0
C702 C 0.99237 0.21721 0.89753 0.0
C703 C 0.98964 0.19461 0.84114 0.0
C704 C 1.00264 0.17272 0.87187 0.0
C705 C 0.01837 0.17316 0.95498 0.0
C706 C 0.02909 0.14684 0.97642 0.0
C707 C 0.05819 0.14686 0.96773 0.0
C708 C 0.02053 0.13732 0.08031 0.0
C709 C 0.01699 0.13136 0.89254 0.0
C710 C 1.00175 0.1466 0.83308 0.0
C711 C 0.98801 0.13631 0.75304 0.0
C712 C 0.99027 0.11014 0.73188 0.0
C713 C 1.00585 0.09402 0.79127 0.0
C714 C 0.01928 0.10507 0.8731 0.0
H715 H 0.33228 0.06848 0.03576 0.0
H716 H 0.29939 0.99383 0.99319 0.0
H717 H 0.33844 0.98037 0.9041 0.0
H718 H 0.37117 0.07102 0.80352 0.0
H719 H 0.39693 0.08665 0.86767 0.0
H720 H 0.36466 0.09171 0.90813 0.0
H721 H 0.37731 0.07791 0.08702 0.0
H722 H 0.40944 0.07192 0.04818 0.0
H723 H 0.39128 0.04709 0.10727 0.0
H724 H 0.3835 0.97427 0.83004 0.0
H725 H 0.42932 0.97542 0.78773 0.0
H726 H 0.43436 0.05196 0.90347 0.0
C727 C 0.33297 0.0493 0.00704 0.0
C728 C 0.3124 0.03223 0.02287 0.0
C729 C 0.31441 1.00751 0.98161 0.0
C730 C 0.33674 0.99962 0.9314 0.0
C731 C 0.35711 0.01656 0.92299 0.0
C732 C 0.35529 0.04095 0.95972 0.0
C733 C 0.38051 0.05483 0.95089 0.0
C734 C 0.37817 0.07739 0.87823 0.0
C735 C 0.39021 0.06341 0.05453 0.0
C736 C 0.39724 0.03421 0.90688 0.0
C737 C 0.38323 1.01251 0.8882 0.0
C738 C 0.39452 0.99116 0.84516 0.0
C739 C 0.4206 0.99198 0.82131 0.0
C740 C 0.43553 1.01362 0.84364 0.0
C741 C 0.42355 0.03502 0.88682 0.0
H742 H 0.55546 0.30821 0.90092 0.0
H743 H 0.48621 0.29655 0.07053 0.0
H744 H 0.46966 0.3375 0.00742 0.0
H745 H 0.56216 0.37175 0.95585 0.0
H746 H 0.57438 0.3813 0.83519 0.0
H747 H 0.57901 0.34931 0.87844 0.0
H748 H 0.55741 0.33187 0.71783 0.0
H749 H 0.5533 0.36393 0.67343 0.0
H750 H 0.52628 0.3431 0.68311 0.0
H751 H 0.46368 0.38294 0.94809 0.0
H752 H 0.46704 0.42697 0.88655 0.0
H753 H 0.54012 0.40959 0.75333 0.0
C754 C 0.53645 0.31387 0.92241 0.0
C755 C 0.52208 0.29884 0.99052 0.0
C756 C 0.49743 0.30724 0.01718 0.0
C757 C 0.48798 0.3307 0.98235 0.0
C758 C 0.50323 0.34559 0.91978 0.0
C759 C 0.5268 0.33726 0.88858 0.0
C760 C 0.54025 0.3576 0.82726 0.0
C761 C 0.56543 0.36544 0.87721 0.0
C762 C 0.54456 0.34858 0.71895 0.0
C763 C 0.52091 0.37899 0.83089 0.0
C764 C 0.49965 0.37162 0.88447 0.0
C765 C 0.48003 0.38866 0.90445 0.0
C766 C 0.48217 0.41374 0.86937 0.0
C767 C 0.50369 0.42182 0.81389 0.0
C768 C 0.52316 0.40396 0.7935 0.0
H769 H 0.18236 0.50761 0.17684 0.0
H770 H 0.23154 0.5059 0.91657 0.0
H771 H 0.19387 0.49995 0.80671 0.0
H772 H 0.13355 0.46176 0.08421 0.0
H773 H 0.10807 0.4797 0.14015 0.0
H774 H 0.13912 0.4797 0.19737 0.0
H775 H 0.13968 0.52877 0.18955 0.0
H776 H 0.10892 0.52895 0.13055 0.0
H777 H 0.13535 0.5444 0.07032 0.0
H778 H 0.14984 0.50105 0.72402 0.0
H779 H 0.10441 0.5038 0.67743 0.0
H780 H 0.08396 0.50423 0.99289 0.0
C781 C 0.18529 0.5049 0.09703 0.0
C782 C 0.21003 0.50674 0.05543 0.0
C783 C 0.21295 0.50389 0.95038 0.0
C784 C 0.19156 0.50083 0.8874 0.0
C785 C 0.16734 0.50047 0.9306 0.0
C786 C 0.16419 0.50193 0.03346 0.0
C787 C 0.1362 0.50285 0.06124 0.0
C788 C 0.1288 0.47962 0.12447 0.0
C789 C 0.12967 0.52771 0.11613 0.0
C790 C 0.12396 0.50196 0.95798 0.0
C791 C 0.14221 0.50074 0.88347 0.0
C792 C 0.13546 0.5015 0.78202 0.0
C793 C 0.10954 0.50321 0.75621 0.0
C794 C 0.09045 0.50393 0.83123 0.0
C795 C 0.09795 0.50323 0.9335 0.0
H796 H 0.96439 0.82627 0.42943 0.0
H797 H 0.03594 0.79329 0.52492 0.0
H798 H 0.04618 0.83325 0.61523 0.0
H799 H 0.98849 0.8853 0.36765 0.0
H800 H 0.96141 0.90345 0.40891 0.0
H801 H 0.95729 0.87121 0.36844 0.0
H802 H 0.93642 0.8591 0.53655 0.0
H803 H 0.93953 0.89148 0.57797 0.0
H804 H 0.95256 0.86611 0.65283 0.0
H805 H 0.0497 0.8796 0.6851 0.0
H806 H 0.04596 0.92535 0.72657 0.0
H807 H 0.97454 0.92883 0.56561 0.0
C808 C 0.9822 0.82715 0.47001 0.0
C809 C 0.9994 0.80623 0.46876 0.0
C810 C 0.02221 0.80858 0.52489 0.0
C811 C 0.02829 0.83144 0.57582 0.0
C812 C 1.01144 0.85204 0.57027 0.0
C813 C 0.98875 0.84989 0.51896 0.0
C814 C 0.97452 0.87504 0.51748 0.0
C815 C 0.9702 0.8843 0.40917 0.0
C816 C 0.94926 0.87279 0.57461 0.0
C817 C 0.99298 0.8921 0.57338 0.0
C818 C 1.01394 0.87843 0.60546 0.0
C819 C 0.03328 0.89026 0.6602 0.0
C820 C 0.03102 0.91634 0.68348 0.0
C821 C 1.01011 0.93087 0.64867 0.0
C822 C 0.9909 0.91839 0.59265 0.0
H823 H 0.68802 1.01388 0.3488 0.0
H824 H 0.73685 1.01128 0.61042 0.0
H825 H 0.69927 1.00293 0.71794 0.0
H826 H 0.63967 0.04785 0.45802 0.0
H827 H 0.6139 0.03207 0.39455 0.0
H828 H 0.64475 0.03339 0.33695 0.0
H829 H 0.64577 0.98442 0.32284 0.0
H830 H 0.61466 0.98295 0.37882 0.0
H831 H 0.64062 0.96538 0.43343 0.0
H832 H 0.65497 1.00152 0.79912 0.0
H833 H 0.60939 1.00251 0.84392 0.0
H834 H 0.58964 1.00592 0.52778 0.0
C835 C 0.69092 1.01038 0.4282 0.0
C836 C 0.71552 1.01262 0.47096 0.0
C837 C 0.7184 1.0089 0.57564 0.0
C838 C 0.69704 1.00448 0.63733 0.0
C839 C 0.6729 1.00366 0.59318 0.0
C840 C 0.66986 1.00603 0.49046 0.0
C841 C 0.64191 1.00632 0.46172 0.0
C842 C 0.63465 0.03139 0.40976 0.0
C843 C 0.63536 0.9834 0.39528 0.0
C844 C 0.62956 1.00418 0.56429 0.0
C845 C 0.6477 1.00272 0.63936 0.0
C846 C 0.64071 1.00222 0.74055 0.0
C847 C 0.61469 1.00297 0.76542 0.0
C848 C 0.59573 1.00412 0.68967 0.0
C849 C 0.6035 1.00464 0.58776 0.0
H850 H 0.57103 0.6794 0.40994 0.0
H851 H 0.5024 0.71862 0.5028 0.0
H852 H 0.49035 0.68093 0.60363 0.0
H853 H 0.54002 0.62158 0.36003 0.0
H854 H 0.56666 0.60222 0.39719 0.0
H855 H 0.57191 0.63365 0.34892 0.0
H856 H 0.597 0.64533 0.51009 0.0
H857 H 0.59182 0.61391 0.55906 0.0
H858 H 0.58229 0.64122 0.63124 0.0
H859 H 0.48582 0.63678 0.69326 0.0
H860 H 0.4863 0.5913 0.74144 0.0
H861 H 0.55353 0.57965 0.56028 0.0
C862 C 0.55321 0.68036 0.45002 0.0
C863 C 0.53753 0.7024 0.44563 0.0
C864 C 0.51502 0.70242 0.5043 0.0
C865 C 0.50789 0.68087 0.56141 0.0
C866 C 0.52324 0.65913 0.55877 0.0
C867 C 0.54533 0.65881 0.50333 0.0
C868 C 0.55743 0.63263 0.50336 0.0
C869 C 0.55909 0.6219 0.39603 0.0
C870 C 0.58369 0.63332 0.55396 0.0
C871 C 0.53858 0.6179 0.56656 0.0
C872 C 0.51942 0.63365 0.601 0.0
C873 C 0.50056 0.62438 0.665 0.0
C874 C 0.501 0.59847 0.69221 0.0
C875 C 0.51965 0.58175 0.65317 0.0
C876 C 0.53874 0.5918 0.58993 0.0
H877 H 0.81782 0.46393 0.56642 0.0
H878 H 0.80532 0.53606 0.41848 0.0
H879 H 0.84654 0.55146 0.48424 0.0
H880 H 0.85324 0.489 0.79178 0.0
H881 H 0.87439 0.46212 0.79304 0.0
H882 H 0.84219 0.45848 0.74934 0.0
H883 H 0.85887 0.44018 0.58166 0.0
H884 H 0.89112 0.44405 0.62379 0.0
H885 H 0.88091 0.45844 0.50768 0.0
H886 H 0.89245 0.55596 0.53937 0.0
H887 H 0.93685 0.55142 0.5971 0.0
H888 H 0.91963 0.47682 0.71534 0.0
C889 C 0.82328 0.48336 0.55136 0.0
C890 C 0.80805 0.49894 0.48816 0.0
C891 C 0.81623 0.52399 0.46834 0.0
C892 C 0.83982 0.53278 0.50459 0.0
C893 C 0.85496 0.51642 0.5619 0.0
C894 C 0.84673 0.4924 0.58718 0.0
C895 C 0.86735 0.47784 0.6433 0.0
C896 C 0.85877 0.47149 0.75075 0.0
C897 C 0.87501 0.45371 0.58565 0.0
C898 C 0.88874 0.49718 0.64366 0.0
C899 C 0.8812 0.51927 0.59597 0.0
C900 C 0.89829 0.53899 0.57888 0.0
C901 C 0.92357 0.53618 0.6115 0.0
C902 C 0.93171 0.51394 0.66207 0.0
C903 C 0.91387 0.49429 0.6791 0.0
loop_
_geom_bond_atom_site_label_1
_geom_bond_atom_site_label_2
_geom_bond_distance
_geom_bond_site_symmetry_2
_ccdc_geom_bond_type
H0 C5 0.930 . S
H1 C8 0.930 . S
H2 C10 0.930 . S
H3 C4 1.016 . S
C4 H3 1.016 . S
C4 N11 1.286 . S
C5 H0 0.930 . S
C5 C6 1.397 . S
C5 C7 1.361 . S
C6 C5 1.397 . S
C6 C10 1.390 . S
C7 C5 1.361 . S
C7 C8 1.393 . S
C7 N11 1.413 . S
C8 H1 0.930 . S
C8 C7 1.393 . S
C8 C9 1.399 . S
C9 C8 1.399 . S
C9 C10 1.381 . S
C10 H2 0.930 . S
C10 C6 1.390 . S
C10 C9 1.381 . S
N11 C4 1.286 . S
N11 C7 1.413 . S
H12 C17 0.930 . S
H13 C20 0.930 . S
H14 C22 0.930 . S
H15 C16 1.016 . S
C16 H15 1.016 . S
C16 N23 1.286 1_655 S
C17 H12 0.930 . S
C17 C18 1.398 . S
C17 C19 1.361 . S
C18 C17 1.398 . S
C18 C22 1.390 1_455 S
C19 C17 1.361 . S
C19 C20 1.393 . S
C19 N23 1.413 . S
C20 H13 0.930 . S
C20 C19 1.393 . S
C20 C21 1.396 1_455 S
C21 C20 1.396 1_655 S
C21 C22 1.383 . S
C22 H14 0.930 . S
C22 C18 1.390 1_655 S
C22 C21 1.383 . S
N23 C16 1.286 1_455 S
N23 C19 1.413 . S
H24 C29 0.930 . S
H25 C32 0.930 . S
H26 C34 0.930 . S
H27 C28 1.016 . S
C28 H27 1.016 . S
C28 N35 1.286 1_565 S
C29 H24 0.930 . S
C29 C30 1.395 1_545 S
C29 C31 1.361 . S
C30 C29 1.395 1_565 S
C30 C34 1.391 . S
C31 C29 1.361 . S
C31 C32 1.393 . S
C31 N35 1.413 . S
C32 H25 0.930 . S
C32 C31 1.393 . S
C32 C33 1.393 1_545 S
C33 C32 1.393 1_565 S
C33 C34 1.386 . S
C34 H26 0.930 . S
C34 C30 1.391 . S
C34 C33 1.386 . S
N35 C28 1.286 1_545 S
N35 C31 1.413 . S
H36 C41 0.930 . S
H37 C44 0.930 . S
H38 C46 0.930 . S
H39 C40 1.016 . S
C40 H39 1.016 . S
C40 N47 1.286 . S
C41 H36 0.930 . S
C41 C42 1.397 . S
C41 C43 1.361 . S
C42 C41 1.397 . S
C42 C46 1.390 . S
C43 C41 1.361 . S
C43 C44 1.393 . S
C43 N47 1.413 . S
C44 H37 0.930 . S
C44 C43 1.393 . S
C44 C45 1.399 . S
C45 C44 1.399 . S
C45 C46 1.381 . S
C46 H38 0.930 . S
C46 C42 1.390 . S
C46 C45 1.381 . S
N47 C40 1.286 . S
N47 C43 1.413 . S
H48 C53 0.930 . S
H49 C56 0.930 . S
H50 C58 0.930 . S
H51 C52 1.016 . S
C52 H51 1.016 . S
C52 N59 1.286 . S
C53 H48 0.930 . S
C53 C54 1.397 . S
C53 C55 1.361 1_556 S
C54 C53 1.397 . S
C54 C58 1.390 . S
C55 C53 1.361 1_554 S
C55 C56 1.393 . S
C55 N59 1.413 . S
C56 H49 0.930 . S
C56 C55 1.393 . S
C56 C57 1.399 . S
C57 C56 1.399 . S
C57 C58 1.381 1_554 S
C58 H50 0.930 . S
C58 C54 1.390 . S
C58 C57 1.381 1_556 S
N59 C52 1.286 . S
N59 C55 1.413 . S
H60 C65 0.930 . S
H61 C68 0.930 . S
H62 C70 0.931 1_655 S
H63 C64 1.016 1_655 S
C64 H63 1.016 1_455 S
C64 N71 1.286 . S
C65 H60 0.930 . S
C65 C66 1.397 . S
C65 C67 1.361 1_556 S
C66 C65 1.397 . S
C66 C70 1.390 . S
C67 C65 1.361 1_554 S
C67 C68 1.393 . S
C67 N71 1.413 . S
C68 H61 0.930 . S
C68 C67 1.393 . S
C68 C69 1.399 . S
C69 C68 1.399 . S
C69 C70 1.380 1_554 S
C70 H62 0.931 1_455 S
C70 C66 1.390 . S
C70 C69 1.380 1_556 S
N71 C64 1.286 . S
N71 C67 1.413 . S
H72 C77 0.930 . S
H73 C80 0.930 . S
H74 C82 0.935 . S
H75 C76 1.006 1_565 S
C76 H75 1.006 1_545 S
C76 N83 1.303 . S
C77 H72 0.930 . S
C77 C78 1.397 . S
C77 C79 1.361 1_556 S
C78 C77 1.397 . S
C78 C82 1.388 1_545 S
C79 C77 1.361 1_554 S
C79 C80 1.393 . S
C79 N83 1.413 . S
C80 H73 0.930 . S
C80 C79 1.393 . S
C80 C81 1.399 . S
C81 C80 1.399 . S
C81 C82 1.379 1_544 S
C82 H74 0.935 . S
C82 C78 1.388 1_565 S
C82 C81 1.379 1_566 S
N83 C76 1.303 . S
N83 C79 1.413 . S
H84 C89 0.930 . S
H85 C92 0.930 . S
H86 C94 0.930 . S
H87 C88 1.016 . S
C88 H87 1.016 . S
C88 N95 1.286 . S
C89 H84 0.930 . S
C89 C90 1.397 . S
C89 C91 1.361 1_556 S
C90 C89 1.397 . S
C90 C94 1.390 . S
C91 C89 1.361 1_554 S
C91 C92 1.393 . S
C91 N95 1.413 . S
C92 H85 0.930 . S
C92 C91 1.393 . S
C92 C93 1.399 . S
C93 C92 1.399 . S
C93 C94 1.381 1_554 S
C94 H86 0.930 . S
C94 C90 1.390 . S
C94 C93 1.381 1_556 S
N95 C88 1.286 . S
N95 C91 1.413 . S
Gd96 C99 2.818 . S
Gd96 O116 2.377 . S
Gd96 O118 2.448 . S
Gd96 O119 2.506 . S
Gd96 O120 2.435 . S
Gd96 O121 2.717 1_565 S
Gd96 O123 2.395 1_565 S
Gd96 O127 2.327 1_455 S
Gd97 C108 2.818 . S
Gd97 O117 2.395 1_545 S
Gd97 O121 2.327 1_655 S
Gd97 O122 2.377 . S
Gd97 O124 2.448 . S
Gd97 O125 2.506 . S
Gd97 O126 2.435 . S
Gd97 O127 2.717 1_545 S
C98 O116 1.240 1_655 S
C98 O117 1.240 . S
C99 Gd96 2.818 . S
C99 C100 1.510 1_556 S
C99 O118 1.249 . S
C99 O119 1.252 . S
C100 C99 1.510 1_554 S
C100 C101 1.404 . S
C100 C102 1.352 . S
C101 C100 1.404 . S
C101 C105 1.389 . S
C101 H128 0.930 . S
C102 C100 1.352 . S
C102 C104 1.374 . S
C102 H129 0.931 1_455 S
C103 C104 1.359 . S
C103 C105 1.364 . S
C104 C102 1.374 . S
C104 C103 1.359 . S
C104 H130 0.931 1_455 S
C105 C101 1.389 . S
C105 C103 1.364 . S
C105 H131 0.931 . S
C106 O120 1.277 . S
C106 O121 1.247 1_565 S
C107 O122 1.240 1_455 S
C107 O123 1.240 . S
C108 Gd97 2.818 . S
C108 C109 1.510 . S
C108 O124 1.249 . S
C108 O125 1.252 . S
C109 C108 1.510 . S
C109 C110 1.404 . S
C109 C111 1.352 . S
C110 C109 1.404 . S
C110 C114 1.389 . S
C110 H132 0.930 . S
C111 C109 1.352 . S
C111 C113 1.374 . S
C111 H133 0.931 1_655 S
C112 C113 1.359 . S
C112 C114 1.364 . S
C113 C111 1.374 . S
C113 C112 1.359 . S
C113 H134 0.931 1_655 S
C114 C110 1.389 . S
C114 C112 1.364 . S
C114 H135 0.931 . S
C115 O126 1.256 . S
C115 O127 1.257 1_545 S
O116 Gd96 2.377 . S
O116 C98 1.240 1_455 S
O117 Gd97 2.395 1_565 S
O117 C98 1.240 . S
O118 Gd96 2.448 . S
O118 C99 1.249 . S
O119 Gd96 2.506 . S
O119 C99 1.252 . S
O120 Gd96 2.435 . S
O120 C106 1.277 . S
O121 Gd96 2.717 1_545 S
O121 Gd97 2.327 1_455 S
O121 C106 1.247 1_545 S
O122 Gd97 2.377 . S
O122 C107 1.240 1_655 S
O123 Gd96 2.395 1_545 S
O123 C107 1.240 . S
O124 Gd97 2.448 . S
O124 C108 1.249 . S
O125 Gd97 2.506 . S
O125 C108 1.252 . S
O126 Gd97 2.435 . S
O126 C115 1.256 . S
O127 Gd96 2.327 1_655 S
O127 Gd97 2.717 1_565 S
O127 C115 1.257 1_565 S
H128 C101 0.930 . S
H129 C102 0.931 1_655 S
H130 C104 0.931 1_655 S
H131 C105 0.931 . S
H132 C110 0.930 . S
H133 C111 0.931 1_455 S
H134 C113 0.931 1_455 S
H135 C114 0.931 . S
Gd136 C139 2.818 . S
Gd136 O156 2.377 . S
Gd136 O158 2.448 . S
Gd136 O159 2.506 . S
Gd136 O160 2.435 . S
Gd136 O161 2.717 . S
Gd136 O163 2.395 . S
Gd136 O167 2.327 1_545 S
Gd137 C148 2.818 . S
Gd137 O157 2.395 . S
Gd137 O161 2.327 1_565 S
Gd137 O162 2.377 . S
Gd137 O164 2.448 . S
Gd137 O165 2.506 . S
Gd137 O166 2.435 . S
Gd137 O167 2.717 . S
C138 O156 1.240 1_565 S
C138 O157 1.240 . S
C139 Gd136 2.818 . S
C139 C140 1.510 1_556 S
C139 O158 1.249 . S
C139 O159 1.252 . S
C140 C139 1.510 1_554 S
C140 C141 1.404 . S
C140 C142 1.352 . S
C141 C140 1.404 . S
C141 C145 1.389 . S
C141 H168 0.930 . S
C142 C140 1.352 . S
C142 C144 1.374 . S
C142 H169 0.931 1_545 S
C143 C144 1.359 . S
C143 C145 1.364 . S
C144 C142 1.374 . S
C144 C143 1.359 . S
C144 H170 0.931 1_545 S
C145 C141 1.389 . S
C145 C143 1.364 . S
C145 H171 0.931 . S
C146 O160 1.256 . S
C146 O161 1.257 . S
C147 O162 1.240 1_545 S
C147 O163 1.240 . S
C148 Gd137 2.818 . S
C148 C149 1.510 . S
C148 O164 1.249 . S
C148 O165 1.252 . S
C149 C148 1.510 . S
C149 C150 1.404 . S
C149 C151 1.352 . S
C150 C149 1.404 . S
C150 C154 1.389 . S
C150 H172 0.930 . S
C151 C149 1.352 . S
C151 C153 1.374 . S
C151 H173 0.931 1_565 S
C152 C153 1.359 . S
C152 C154 1.364 . S
C153 C151 1.374 . S
C153 C152 1.359 . S
C153 H174 0.931 1_565 S
C154 C150 1.389 . S
C154 C152 1.364 . S
C154 H175 0.931 . S
C155 O166 1.256 . S
C155 O167 1.257 . S
O156 Gd136 2.377 . S
O156 C138 1.240 1_545 S
O157 Gd137 2.395 . S
O157 C138 1.240 . S
O158 Gd136 2.448 . S
O158 C139 1.249 . S
O159 Gd136 2.506 . S
O159 C139 1.252 . S
O160 Gd136 2.435 . S
O160 C146 1.256 . S
O161 Gd136 2.717 . S
O161 Gd137 2.327 1_545 S
O161 C146 1.257 . S
O162 Gd137 2.377 . S
O162 C147 1.240 1_565 S
O163 Gd136 2.395 . S
O163 C147 1.240 . S
O164 Gd137 2.448 . S
O164 C148 1.249 . S
O165 Gd137 2.506 . S
O165 C148 1.252 . S
O166 Gd137 2.435 . S
O166 C155 1.256 . S
O167 Gd136 2.327 1_565 S
O167 Gd137 2.717 . S
O167 C155 1.257 . S
H168 C141 0.930 . S
H169 C142 0.931 1_565 S
H170 C144 0.931 1_565 S
H171 C145 0.931 . S
H172 C150 0.930 . S
H173 C151 0.931 1_545 S
H174 C153 0.931 1_545 S
H175 C154 0.931 . S
Gd176 C179 2.818 . S
Gd176 O196 2.377 . S
Gd176 O198 2.448 . S
Gd176 O199 2.506 . S
Gd176 O200 2.435 . S
Gd176 O201 2.717 . S
Gd176 O203 2.395 . S
Gd176 O207 2.327 . S
Gd177 C188 2.818 . S
Gd177 O197 2.395 . S
Gd177 O201 2.327 . S
Gd177 O202 2.377 . S
Gd177 O204 2.448 . S
Gd177 O205 2.506 . S
Gd177 O206 2.435 . S
Gd177 O207 2.717 . S
C178 O196 1.240 . S
C178 O197 1.240 . S
C179 Gd176 2.818 . S
C179 C180 1.510 1_556 S
C179 O198 1.249 . S
C179 O199 1.252 . S
C180 C179 1.510 1_554 S
C180 C181 1.404 . S
C180 C182 1.352 . S
C181 C180 1.404 . S
C181 C185 1.389 . S
C181 H208 0.930 . S
C182 C180 1.352 . S
C182 C184 1.374 . S
C182 H209 0.931 . S
C183 C184 1.359 . S
C183 C185 1.364 . S
C184 C182 1.374 . S
C184 C183 1.359 . S
C184 H210 0.931 . S
C185 C181 1.389 . S
C185 C183 1.364 . S
C185 H211 0.931 . S
C186 O200 1.256 . S
C186 O201 1.257 . S
C187 O202 1.240 . S
C187 O203 1.240 . S
C188 Gd177 2.818 . S
C188 C189 1.510 . S
C188 O204 1.249 . S
C188 O205 1.252 . S
C189 C188 1.510 . S
C189 C190 1.404 . S
C189 C191 1.352 . S
C190 C189 1.404 . S
C190 C194 1.389 . S
C190 H212 0.930 . S
C191 C189 1.352 . S
C191 C193 1.374 . S
C191 H213 0.931 . S
C192 C193 1.359 . S
C192 C194 1.364 . S
C193 C191 1.374 . S
C193 C192 1.359 . S
C193 H214 0.931 . S
C194 C190 1.389 . S
C194 C192 1.364 . S
C194 H215 0.931 . S
C195 O206 1.256 . S
C195 O207 1.257 . S
O196 Gd176 2.377 . S
O196 C178 1.240 . S
O197 Gd177 2.395 . S
O197 C178 1.240 . S
O198 Gd176 2.448 . S
O198 C179 1.249 . S
O199 Gd176 2.506 . S
O199 C179 1.252 . S
O200 Gd176 2.435 . S
O200 C186 1.256 . S
O201 Gd176 2.717 . S
O201 Gd177 2.327 . S
O201 C186 1.257 . S
O202 Gd177 2.377 . S
O202 C187 1.240 . S
O203 Gd176 2.395 . S
O203 C187 1.240 . S
O204 Gd177 2.448 . S
O204 C188 1.249 . S
O205 Gd177 2.506 . S
O205 C188 1.252 . S
O206 Gd177 2.435 . S
O206 C195 1.256 . S
O207 Gd176 2.327 . S
O207 Gd177 2.717 . S
O207 C195 1.257 . S
H208 C181 0.930 . S
H209 C182 0.931 . S
H210 C184 0.931 . S
H211 C185 0.931 . S
H212 C190 0.930 . S
H213 C191 0.931 . S
H214 C193 0.931 . S
H215 C194 0.931 . S
Gd216 C219 2.818 . S
Gd216 O236 2.377 . S
Gd216 O238 2.448 . S
Gd216 O239 2.506 . S
Gd216 O240 2.435 . S
Gd216 O241 2.717 1_655 S
Gd216 O243 2.395 1_655 S
Gd216 O247 2.327 . S
Gd217 C228 2.818 . S
Gd217 O237 2.395 1_455 S
Gd217 O241 2.327 . S
Gd217 O242 2.377 . S
Gd217 O244 2.448 . S
Gd217 O245 2.506 . S
Gd217 O246 2.435 . S
Gd217 O247 2.717 1_455 S
C218 O236 1.240 . S
C218 O237 1.240 . S
C219 Gd216 2.818 . S
C219 C220 1.510 1_556 S
C219 O238 1.249 . S
C219 O239 1.252 . S
C220 C219 1.510 1_554 S
C220 C221 1.404 . S
C220 C222 1.352 . S
C221 C220 1.404 . S
C221 C225 1.389 . S
C221 H248 0.930 . S
C222 C220 1.352 . S
C222 C224 1.374 . S
C222 H249 0.931 . S
C223 C224 1.359 . S
C223 C225 1.364 . S
C224 C222 1.374 . S
C224 C223 1.359 . S
C224 H250 0.931 . S
C225 C221 1.389 . S
C225 C223 1.364 . S
C225 H251 0.931 . S
C226 O240 1.265 . S
C226 O241 1.252 1_655 S
C227 O242 1.240 . S
C227 O243 1.240 . S
C228 Gd217 2.818 . S
C228 C229 1.510 . S
C228 O244 1.249 . S
C228 O245 1.252 . S
C229 C228 1.510 . S
C229 C230 1.404 . S
C229 C231 1.352 . S
C230 C229 1.404 . S
C230 C234 1.389 . S
C230 H252 0.930 . S
C231 C229 1.352 . S
C231 C233 1.374 . S
C231 H253 0.931 . S
C232 C233 1.359 . S
C232 C234 1.364 . S
C233 C231 1.374 . S
C233 C232 1.359 . S
C233 H254 0.931 . S
C234 C230 1.389 . S
C234 C232 1.364 . S
C234 H255 0.931 . S
C235 O246 1.256 . S
C235 O247 1.257 1_455 S
O236 Gd216 2.377 . S
O236 C218 1.240 . S
O237 Gd217 2.395 1_655 S
O237 C218 1.240 . S
O238 Gd216 2.448 . S
O238 C219 1.249 . S
O239 Gd216 2.506 . S
O239 C219 1.252 . S
O240 Gd216 2.435 . S
O240 C226 1.265 . S
O241 Gd216 2.717 1_455 S
O241 Gd217 2.327 . S
O241 C226 1.252 1_455 S
O242 Gd217 2.377 . S
O242 C227 1.240 . S
O243 Gd216 2.395 1_455 S
O243 C227 1.240 . S
O244 Gd217 2.448 . S
O244 C228 1.249 . S
O245 Gd217 2.506 . S
O245 C228 1.252 . S
O246 Gd217 2.435 . S
O246 C235 1.256 . S
O247 Gd216 2.327 . S
O247 Gd217 2.717 1_655 S
O247 C235 1.257 1_655 S
H248 C221 0.930 . S
H249 C222 0.931 . S
H250 C224 0.931 . S
H251 C225 0.931 . S
H252 C230 0.930 . S
H253 C231 0.931 . S
H254 C233 0.931 . S
H255 C234 0.931 . S
H256 C268 0.930 . S
H257 C270 0.930 . S
H258 C271 0.930 . S
H259 C275 0.959 . S
H260 C275 0.959 . S
H261 C275 0.961 . S
H262 C276 0.960 . S
H263 C276 0.961 . S
H264 C276 0.959 . S
H265 C279 0.929 . S
H266 C280 0.931 . S
H267 C282 0.930 . S
C268 H256 0.930 . S
C268 C269 1.394 1_545 S
C268 C273 1.399 . S
C269 C268 1.394 1_565 S
C269 C270 1.383 . S
C270 H257 0.930 . S
C270 C269 1.383 . S
C270 C271 1.388 . S
C271 H258 0.930 . S
C271 C270 1.388 . S
C271 C272 1.390 . S
C272 C271 1.390 . S
C272 C273 1.394 1_565 S
C272 C278 1.465 . S
C273 C268 1.399 . S
C273 C272 1.394 1_545 S
C273 C274 1.516 . S
C274 C273 1.516 . S
C274 C275 1.502 . S
C274 C276 1.561 . S
C274 C277 1.526 . S
C275 H259 0.959 . S
C275 H260 0.959 . S
C275 H261 0.961 . S
C275 C274 1.502 . S
C276 H262 0.960 . S
C276 H263 0.961 . S
C276 H264 0.959 . S
C276 C274 1.561 . S
C277 C274 1.526 . S
C277 C278 1.396 1_545 S
C277 C282 1.390 . S
C278 C272 1.465 . S
C278 C277 1.396 1_565 S
C278 C279 1.399 . S
C279 H265 0.929 . S
C279 C278 1.399 . S
C279 C280 1.385 . S
C280 H266 0.931 . S
C280 C279 1.385 . S
C280 C281 1.395 . S
C281 C280 1.395 . S
C281 C282 1.382 1_565 S
C282 H267 0.930 . S
C282 C277 1.390 . S
C282 C281 1.382 1_545 S
H283 C295 0.930 . S
H284 C297 0.930 . S
H285 C298 0.930 . S
H286 C302 0.959 . S
H287 C302 0.959 . S
H288 C302 0.961 . S
H289 C303 0.960 . S
H290 C303 0.961 . S
H291 C303 0.959 . S
H292 C306 0.929 . S
H293 C307 0.931 . S
H294 C309 0.930 . S
C295 H283 0.930 . S
C295 C296 1.399 . S
C295 C300 1.399 . S
C296 C295 1.399 . S
C296 C297 1.376 . S
C297 H284 0.930 . S
C297 C296 1.376 . S
C297 C298 1.388 . S
C298 H285 0.930 . S
C298 C297 1.388 . S
C298 C299 1.390 . S
C299 C298 1.390 . S
C299 C300 1.394 . S
C299 C305 1.465 . S
C300 C295 1.399 . S
C300 C299 1.394 . S
C300 C301 1.516 . S
C301 C300 1.516 . S
C301 C302 1.502 . S
C301 C303 1.561 . S
C301 C304 1.526 . S
C302 H286 0.959 . S
C302 H287 0.959 . S
C302 H288 0.961 . S
C302 C301 1.502 . S
C303 H289 0.960 . S
C303 H290 0.961 . S
C303 H291 0.959 . S
C303 C301 1.561 . S
C304 C301 1.526 . S
C304 C305 1.396 . S
C304 C309 1.390 . S
C305 C299 1.465 . S
C305 C304 1.396 . S
C305 C306 1.399 . S
C306 H292 0.929 . S
C306 C305 1.399 . S
C306 C307 1.385 . S
C307 H293 0.931 . S
C307 C306 1.385 . S
C307 C308 1.389 . S
C308 C307 1.389 . S
C308 C309 1.387 . S
C309 H294 0.930 . S
C309 C304 1.390 . S
C309 C308 1.387 . S
H310 C322 0.930 . S
H311 C324 0.930 . S
H312 C325 0.930 . S
H313 C329 0.959 . S
H314 C329 0.959 . S
H315 C329 0.961 . S
H316 C330 0.960 . S
H317 C330 0.961 . S
H318 C330 0.959 . S
H319 C333 0.929 . S
H320 C334 0.931 . S
H321 C336 0.930 . S
C322 H310 0.930 . S
C322 C323 1.399 . S
C322 C327 1.399 . S
C323 C322 1.399 . S
C323 C324 1.376 . S
C324 H311 0.930 . S
C324 C323 1.376 . S
C324 C325 1.388 . S
C325 H312 0.930 . S
C325 C324 1.388 . S
C325 C326 1.390 . S
C326 C325 1.390 . S
C326 C327 1.394 . S
C326 C332 1.465 . S
C327 C322 1.399 . S
C327 C326 1.394 . S
C327 C328 1.516 . S
C328 C327 1.516 . S
C328 C329 1.502 . S
C328 C330 1.561 . S
C328 C331 1.526 . S
C329 H313 0.959 . S
C329 H314 0.959 . S
C329 H315 0.961 . S
C329 C328 1.502 . S
C330 H316 0.960 . S
C330 H317 0.961 . S
C330 H318 0.959 . S
C330 C328 1.561 . S
C331 C328 1.526 . S
C331 C332 1.396 . S
C331 C336 1.390 . S
C332 C326 1.465 . S
C332 C331 1.396 . S
C332 C333 1.399 . S
C333 H319 0.929 . S
C333 C332 1.399 . S
C333 C334 1.385 . S
C334 H320 0.931 . S
C334 C333 1.385 . S
C334 C335 1.389 . S
C335 C334 1.389 . S
C335 C336 1.387 . S
C336 H321 0.930 . S
C336 C331 1.390 . S
C336 C335 1.387 . S
H337 C349 0.930 . S
H338 C351 0.930 . S
H339 C352 0.930 . S
H340 C356 0.959 . S
H341 C356 0.959 . S
H342 C356 0.961 . S
H343 C357 0.960 . S
H344 C357 0.961 . S
H345 C357 0.959 . S
H346 C360 0.929 . S
H347 C361 0.931 . S
H348 C363 0.930 . S
C349 H337 0.930 . S
C349 C350 1.402 . S
C349 C354 1.399 . S
C350 C349 1.402 . S
C350 C351 1.373 1_455 S
C351 H338 0.930 . S
C351 C350 1.373 1_655 S
C351 C352 1.388 . S
C352 H339 0.930 . S
C352 C351 1.388 . S
C352 C353 1.390 . S
C353 C352 1.390 . S
C353 C354 1.394 1_655 S
C353 C359 1.465 . S
C354 C349 1.399 . S
C354 C353 1.394 1_455 S
C354 C355 1.516 . S
C355 C354 1.516 . S
C355 C356 1.502 . S
C355 C357 1.561 1_455 S
C355 C358 1.526 . S
C356 H340 0.959 . S
C356 H341 0.959 . S
C356 H342 0.961 . S
C356 C355 1.502 . S
C357 H343 0.960 . S
C357 H344 0.961 . S
C357 H345 0.959 . S
C357 C355 1.561 1_655 S
C358 C355 1.526 . S
C358 C359 1.396 1_455 S
C358 C363 1.390 . S
C359 C353 1.465 . S
C359 C358 1.396 1_655 S
C359 C360 1.399 . S
C360 H346 0.929 . S
C360 C359 1.399 . S
C360 C361 1.385 . S
C361 H347 0.931 . S
C361 C360 1.385 . S
C361 C362 1.389 1_655 S
C362 C361 1.389 1_455 S
C362 C363 1.387 . S
C363 H348 0.930 . S
C363 C358 1.390 . S
C363 C362 1.387 . S
H364 C376 0.930 . S
H365 C378 0.930 . S
H366 C379 0.930 . S
H367 C383 0.959 . S
H368 C383 0.959 . S
H369 C383 0.961 . S
H370 C384 0.960 . S
H371 C384 0.961 . S
H372 C384 0.959 . S
H373 C387 0.929 . S
H374 C388 0.931 . S
H375 C390 0.930 . S
C376 H364 0.930 . S
C376 C377 1.399 1_545 S
C376 C381 1.399 . S
C377 C376 1.399 1_565 S
C377 C378 1.376 . S
C378 H365 0.930 . S
C378 C377 1.376 . S
C378 C379 1.388 . S
C379 H366 0.930 . S
C379 C378 1.388 . S
C379 C380 1.390 . S
C380 C379 1.390 . S
C380 C381 1.394 1_565 S
C380 C386 1.465 . S
C381 C376 1.399 . S
C381 C380 1.394 1_545 S
C381 C382 1.516 . S
C382 C381 1.516 . S
C382 C383 1.502 . S
C382 C384 1.561 . S
C382 C385 1.526 . S
C383 H367 0.959 . S
C383 H368 0.959 . S
C383 H369 0.961 . S
C383 C382 1.502 . S
C384 H370 0.960 . S
C384 H371 0.961 . S
C384 H372 0.959 . S
C384 C382 1.561 . S
C385 C382 1.526 . S
C385 C386 1.396 1_545 S
C385 C390 1.390 . S
C386 C380 1.465 . S
C386 C385 1.396 1_565 S
C386 C387 1.399 1_554 S
C387 H373 0.929 . S
C387 C386 1.399 1_556 S
C387 C388 1.385 . S
C388 H374 0.931 . S
C388 C387 1.385 . S
C388 C389 1.389 . S
C389 C388 1.389 . S
C389 C390 1.387 1_566 S
C390 H375 0.930 . S
C390 C385 1.390 . S
C390 C389 1.387 1_544 S
H391 C403 0.930 . S
H392 C405 0.930 . S
H393 C406 0.930 . S
H394 C410 0.959 . S
H395 C410 0.959 1_556 S
H396 C410 0.961 . S
H397 C411 0.960 1_554 S
H398 C411 0.961 . S
H399 C411 0.959 1_554 S
H400 C414 0.929 . S
H401 C415 0.931 . S
H402 C417 0.930 . S
C403 H391 0.930 . S
C403 C404 1.399 . S
C403 C408 1.399 . S
C404 C403 1.399 . S
C404 C405 1.376 . S
C405 H392 0.930 . S
C405 C404 1.376 . S
C405 C406 1.388 . S
C406 H393 0.930 . S
C406 C405 1.388 . S
C406 C407 1.390 . S
C407 C406 1.390 . S
C407 C408 1.394 . S
C407 C413 1.465 . S
C408 C403 1.399 . S
C408 C407 1.394 . S
C408 C409 1.516 . S
C409 C408 1.516 . S
C409 C410 1.502 . S
C409 C411 1.561 1_554 S
C409 C412 1.526 . S
C410 H394 0.959 . S
C410 H395 0.959 1_554 S
C410 H396 0.961 . S
C410 C409 1.502 . S
C411 H397 0.960 1_556 S
C411 H398 0.961 . S
C411 H399 0.959 1_556 S
C411 C409 1.561 1_556 S
C412 C409 1.526 . S
C412 C413 1.396 . S
C412 C417 1.390 1_554 S
C413 C407 1.465 . S
C413 C412 1.396 . S
C413 C414 1.399 . S
C414 H400 0.929 . S
C414 C413 1.399 . S
C414 C415 1.385 . S
C415 H401 0.931 . S
C415 C414 1.385 . S
C415 C416 1.389 1_554 S
C416 C415 1.389 1_556 S
C416 C417 1.387 . S
C417 H402 0.930 . S
C417 C412 1.390 1_556 S
C417 C416 1.387 . S
H418 C430 0.930 . S
H419 C432 0.930 . S
H420 C433 0.930 . S
H421 C437 0.959 . S
H422 C437 0.959 . S
H423 C437 0.961 . S
H424 C438 0.960 . S
H425 C438 0.961 . S
H426 C438 0.959 . S
H427 C441 0.929 . S
H428 C442 0.931 . S
H429 C444 0.930 . S
C430 H418 0.930 . S
C430 C431 1.399 . S
C430 C435 1.399 . S
C431 C430 1.399 . S
C431 C432 1.376 . S
C432 H419 0.930 . S
C432 C431 1.376 . S
C432 C433 1.388 . S
C433 H420 0.930 . S
C433 C432 1.388 . S
C433 C434 1.390 . S
C434 C433 1.390 . S
C434 C435 1.394 . S
C434 C440 1.465 . S
C435 C430 1.399 . S
C435 C434 1.394 . S
C435 C436 1.516 . S
C436 C435 1.516 . S
C436 C437 1.502 . S
C436 C438 1.561 . S
C436 C439 1.526 . S
C437 H421 0.959 . S
C437 H422 0.959 . S
C437 H423 0.961 . S
C437 C436 1.502 . S
C438 H424 0.960 . S
C438 H425 0.961 . S
C438 H426 0.959 . S
C438 C436 1.561 . S
C439 C436 1.526 . S
C439 C440 1.396 . S
C439 C444 1.390 1_554 S
C440 C434 1.465 . S
C440 C439 1.396 . S
C440 C441 1.399 1_554 S
C441 H427 0.929 . S
C441 C440 1.399 1_556 S
C441 C442 1.385 . S
C442 H428 0.931 . S
C442 C441 1.385 . S
C442 C443 1.389 . S
C443 C442 1.389 . S
C443 C444 1.387 . S
C444 H429 0.930 . S
C444 C439 1.390 1_556 S
C444 C443 1.387 . S
H445 C457 0.930 . S
H446 C459 0.930 . S
H447 C460 0.930 . S
H448 C464 0.959 . S
H449 C464 0.959 . S
H450 C464 0.961 . S
H451 C465 0.960 . S
H452 C465 0.961 . S
H453 C465 0.959 . S
H454 C468 0.929 . S
H455 C469 0.931 . S
H456 C471 0.930 . S
C457 H445 0.930 . S
C457 C458 1.399 1_655 S
C457 C462 1.399 . S
C458 C457 1.399 1_455 S
C458 C459 1.376 . S
C459 H446 0.930 . S
C459 C458 1.376 . S
C459 C460 1.388 . S
C460 H447 0.930 . S
C460 C459 1.388 . S
C460 C461 1.390 . S
C461 C460 1.390 . S
C461 C462 1.394 1_455 S
C461 C467 1.465 . S
C462 C457 1.399 . S
C462 C461 1.394 1_655 S
C462 C463 1.516 . S
C463 C462 1.516 . S
C463 C464 1.502 . S
C463 C465 1.561 . S
C463 C466 1.526 . S
C464 H448 0.959 . S
C464 H449 0.959 . S
C464 H450 0.961 . S
C464 C463 1.502 . S
C465 H451 0.960 . S
C465 H452 0.961 . S
C465 H453 0.959 . S
C465 C463 1.561 . S
C466 C463 1.526 . S
C466 C467 1.396 1_655 S
C466 C471 1.390 1_554 S
C467 C461 1.465 . S
C467 C466 1.396 1_455 S
C467 C468 1.399 . S
C468 H454 0.929 . S
C468 C467 1.399 . S
C468 C469 1.385 1_554 S
C469 H455 0.931 . S
C469 C468 1.385 1_556 S
C469 C470 1.389 . S
C470 C469 1.389 . S
C470 C471 1.387 1_455 S
C471 H456 0.930 . S
C471 C466 1.390 1_556 S
C471 C470 1.387 1_655 S
H472 C484 0.930 . S
H473 C486 0.930 . S
H474 C487 0.930 . S
H475 C491 0.959 . S
H476 C491 0.959 . S
H477 C491 0.961 . S
H478 C492 0.960 . S
H479 C492 0.961 . S
H480 C492 0.959 . S
H481 C495 0.929 . S
H482 C496 0.931 . S
H483 C498 0.930 . S
C484 H472 0.930 . S
C484 C485 1.399 . S
C484 C489 1.399 . S
C485 C484 1.399 . S
C485 C486 1.376 1_455 S
C486 H473 0.930 . S
C486 C485 1.376 1_655 S
C486 C487 1.388 . S
C487 H474 0.930 . S
C487 C486 1.388 . S
C487 C488 1.390 . S
C488 C487 1.390 . S
C488 C489 1.394 1_655 S
C488 C494 1.465 . S
C489 C484 1.399 . S
C489 C488 1.394 1_455 S
C489 C490 1.516 . S
C490 C489 1.516 . S
C490 C491 1.502 . S
C490 C492 1.561 . S
C490 C493 1.526 1_455 S
C491 H475 0.959 . S
C491 H476 0.959 . S
C491 H477 0.961 . S
C491 C490 1.502 . S
C492 H478 0.960 . S
C492 H479 0.961 . S
C492 H480 0.959 . S
C492 C490 1.561 . S
C493 C490 1.526 1_655 S
C493 C494 1.396 . S
C493 C498 1.390 . S
C494 C488 1.465 . S
C494 C493 1.396 . S
C494 C495 1.399 . S
C495 H481 0.929 . S
C495 C494 1.399 . S
C495 C496 1.385 . S
C496 H482 0.931 . S
C496 C495 1.385 . S
C496 C497 1.389 . S
C497 C496 1.389 . S
C497 C498 1.387 . S
C498 H483 0.930 . S
C498 C493 1.390 . S
C498 C497 1.387 . S
H499 C511 0.930 . S
H500 C513 0.930 . S
H501 C514 0.930 . S
H502 C518 0.959 . S
H503 C518 0.959 . S
H504 C518 0.961 . S
H505 C519 0.960 . S
H506 C519 0.961 . S
H507 C519 0.959 . S
H508 C522 0.929 . S
H509 C523 0.931 . S
H510 C525 0.944 . S
C511 H499 0.930 . S
C511 C512 1.399 . S
C511 C516 1.399 . S
C512 C511 1.399 . S
C512 C513 1.376 1_545 S
C513 H500 0.930 . S
C513 C512 1.376 1_565 S
C513 C514 1.388 . S
C514 H501 0.930 . S
C514 C513 1.388 . S
C514 C515 1.390 . S
C515 C514 1.390 . S
C515 C516 1.394 1_565 S
C515 C521 1.465 . S
C516 C511 1.399 . S
C516 C515 1.394 1_545 S
C516 C517 1.516 . S
C517 C516 1.516 . S
C517 C518 1.502 . S
C517 C519 1.561 . S
C517 C520 1.526 1_545 S
C518 H502 0.959 . S
C518 H503 0.959 . S
C518 H504 0.961 . S
C518 C517 1.502 . S
C519 H505 0.960 . S
C519 H506 0.961 . S
C519 H507 0.959 . S
C519 C517 1.561 . S
C520 C517 1.526 1_565 S
C520 C521 1.396 . S
C520 C525 1.390 . S
C521 C515 1.465 . S
C521 C520 1.396 . S
C521 C522 1.399 . S
C522 H508 0.929 . S
C522 C521 1.399 . S
C522 C523 1.385 . S
C523 H509 0.931 . S
C523 C522 1.385 . S
C523 C524 1.389 . S
C524 C523 1.389 . S
C524 C525 1.387 . S
C525 H510 0.944 . S
C525 C520 1.390 . S
C525 C524 1.387 . S
H526 C538 0.930 . S
H527 C540 0.930 . S
H528 C541 0.930 . S
H529 C545 0.959 . S
H530 C545 0.959 . S
H531 C545 0.961 . S
H532 C546 0.960 . S
H533 C546 0.961 . S
H534 C546 0.959 . S
H535 C549 0.929 . S
H536 C550 0.931 . S
H537 C552 0.930 . S
C538 H526 0.930 . S
C538 C539 1.399 . S
C538 C543 1.399 . S
C539 C538 1.399 . S
C539 C540 1.376 . S
C540 H527 0.930 . S
C540 C539 1.376 . S
C540 C541 1.388 . S
C541 H528 0.930 . S
C541 C540 1.388 . S
C541 C542 1.390 . S
C542 C541 1.390 . S
C542 C543 1.394 . S
C542 C548 1.465 . S
C543 C538 1.399 . S
C543 C542 1.394 . S
C543 C544 1.516 . S
C544 C543 1.516 . S
C544 C545 1.502 . S
C544 C546 1.561 . S
C544 C547 1.526 . S
C545 H529 0.959 . S
C545 H530 0.959 . S
C545 H531 0.961 . S
C545 C544 1.502 . S
C546 H532 0.960 . S
C546 H533 0.961 . S
C546 H534 0.959 . S
C546 C544 1.561 . S
C547 C544 1.526 . S
C547 C548 1.396 . S
C547 C552 1.390 . S
C548 C542 1.465 . S
C548 C547 1.396 . S
C548 C549 1.399 . S
C549 H535 0.929 . S
C549 C548 1.399 . S
C549 C550 1.385 . S
C550 H536 0.931 . S
C550 C549 1.385 . S
C550 C551 1.389 . S
C551 C550 1.389 . S
C551 C552 1.387 . S
C552 H537 0.930 . S
C552 C547 1.390 . S
C552 C551 1.387 . S
H553 C565 0.930 . S
H554 C567 0.930 . S
H555 C568 0.930 . S
H556 C572 0.959 . S
H557 C572 0.959 . S
H558 C572 0.961 . S
H559 C573 0.960 . S
H560 C573 0.961 . S
H561 C573 0.959 . S
H562 C576 0.929 . S
H563 C577 0.931 . S
H564 C579 0.930 . S
C565 H553 0.930 . S
C565 C566 1.399 . S
C565 C570 1.399 . S
C566 C565 1.399 . S
C566 C567 1.376 . S
C567 H554 0.930 . S
C567 C566 1.376 . S
C567 C568 1.388 . S
C568 H555 0.930 . S
C568 C567 1.388 . S
C568 C569 1.390 . S
C569 C568 1.390 . S
C569 C570 1.394 . S
C569 C575 1.465 . S
C570 C565 1.399 . S
C570 C569 1.394 . S
C570 C571 1.516 . S
C571 C570 1.516 . S
C571 C572 1.502 . S
C571 C573 1.561 . S
C571 C574 1.526 . S
C572 H556 0.959 . S
C572 H557 0.959 . S
C572 H558 0.961 . S
C572 C571 1.502 . S
C573 H559 0.960 . S
C573 H560 0.961 . S
C573 H561 0.959 . S
C573 C571 1.561 . S
C574 C571 1.526 . S
C574 C575 1.396 . S
C574 C579 1.390 . S
C575 C569 1.465 . S
C575 C574 1.396 . S
C575 C576 1.399 . S
C576 H562 0.929 . S
C576 C575 1.399 . S
C576 C577 1.385 . S
C577 H563 0.931 . S
C577 C576 1.385 . S
C577 C578 1.389 . S
C578 C577 1.389 . S
C578 C579 1.387 . S
C579 H564 0.930 . S
C579 C574 1.390 . S
C579 C578 1.387 . S
H580 C592 0.930 . S
H581 C594 0.930 . S
H582 C595 0.930 . S
H583 C599 0.959 . S
H584 C599 0.959 . S
H585 C599 0.961 . S
H586 C600 0.960 1_655 S
H587 C600 0.961 . S
H588 C600 0.959 . S
H589 C603 0.929 . S
H590 C604 0.931 . S
H591 C606 0.930 . S
C592 H580 0.930 . S
C592 C593 1.400 . S
C592 C597 1.399 1_655 S
C593 C592 1.400 . S
C593 C594 1.375 1_655 S
C594 H581 0.930 . S
C594 C593 1.375 1_455 S
C594 C595 1.388 . S
C595 H582 0.930 . S
C595 C594 1.388 . S
C595 C596 1.390 . S
C596 C595 1.390 . S
C596 C597 1.394 . S
C596 C602 1.465 . S
C597 C592 1.399 1_455 S
C597 C596 1.394 . S
C597 C598 1.516 1_455 S
C598 C597 1.516 1_655 S
C598 C599 1.502 . S
C598 C600 1.561 1_655 S
C598 C601 1.526 1_655 S
C599 H583 0.959 . S
C599 H584 0.959 . S
C599 H585 0.961 . S
C599 C598 1.502 . S
C600 H586 0.960 1_455 S
C600 H587 0.961 . S
C600 H588 0.959 . S
C600 C598 1.561 1_455 S
C601 C598 1.526 1_455 S
C601 C602 1.396 . S
C601 C606 1.390 . S
C602 C596 1.465 . S
C602 C601 1.396 . S
C602 C603 1.399 . S
C603 H589 0.929 . S
C603 C602 1.399 . S
C603 C604 1.385 . S
C604 H590 0.931 . S
C604 C603 1.385 . S
C604 C605 1.389 . S
C605 C604 1.389 . S
C605 C606 1.387 . S
C606 H591 0.930 . S
C606 C601 1.390 . S
C606 C605 1.387 . S
H607 C619 0.930 . S
H608 C621 0.930 . S
H609 C622 0.930 . S
H610 C626 0.959 . S
H611 C626 0.959 . S
H612 C626 0.961 . S
H613 C627 0.960 . S
H614 C627 0.961 . S
H615 C627 0.959 . S
H616 C630 0.929 . S
H617 C631 0.913 1_565 S
H618 C633 0.930 . S
C619 H607 0.930 . S
C619 C620 1.399 1_545 S
C619 C624 1.399 . S
C620 C619 1.399 1_565 S
C620 C621 1.376 . S
C621 H608 0.930 . S
C621 C620 1.376 . S
C621 C622 1.388 . S
C622 H609 0.930 . S
C622 C621 1.388 . S
C622 C623 1.390 1_565 S
C623 C622 1.390 1_545 S
C623 C624 1.394 . S
C623 C629 1.465 . S
C624 C619 1.399 . S
C624 C623 1.394 . S
C624 C625 1.516 . S
C625 C624 1.516 . S
C625 C626 1.502 . S
C625 C627 1.561 . S
C625 C628 1.526 . S
C626 H610 0.959 . S
C626 H611 0.959 . S
C626 H612 0.961 . S
C626 C625 1.502 . S
C627 H613 0.960 . S
C627 H614 0.961 . S
C627 H615 0.959 . S
C627 C625 1.561 . S
C628 C625 1.526 . S
C628 C629 1.396 . S
C628 C633 1.390 . S
C629 C623 1.465 . S
C629 C628 1.396 . S
C629 C630 1.399 1_545 S
C630 H616 0.929 . S
C630 C629 1.399 1_565 S
C630 C631 1.385 1_565 S
C631 H617 0.913 1_545 S
C631 C630 1.385 1_545 S
C631 C632 1.389 . S
C632 C631 1.389 . S
C632 C633 1.387 . S
C633 H618 0.930 . S
C633 C628 1.390 . S
C633 C632 1.387 . S
H634 C646 0.930 . S
H635 C648 0.930 . S
H636 C649 0.930 . S
H637 C653 0.959 . S
H638 C653 0.959 . S
H639 C653 0.961 . S
H640 C654 0.960 . S
H641 C654 0.961 1_556 S
H642 C654 0.959 . S
H643 C657 0.929 . S
H644 C658 0.931 . S
H645 C660 0.930 . S
C646 H634 0.930 . S
C646 C647 1.399 . S
C646 C651 1.399 . S
C647 C646 1.399 . S
C647 C648 1.376 . S
C648 H635 0.930 . S
C648 C647 1.376 . S
C648 C649 1.388 . S
C649 H636 0.930 . S
C649 C648 1.388 . S
C649 C650 1.390 . S
C650 C649 1.390 . S
C650 C651 1.394 . S
C650 C656 1.465 . S
C651 C646 1.399 . S
C651 C650 1.394 . S
C651 C652 1.516 . S
C652 C651 1.516 . S
C652 C653 1.502 . S
C652 C654 1.561 . S
C652 C655 1.526 . S
C653 H637 0.959 . S
C653 H638 0.959 . S
C653 H639 0.961 . S
C653 C652 1.502 . S
C654 H640 0.960 . S
C654 H641 0.961 1_554 S
C654 H642 0.959 . S
C654 C652 1.561 . S
C655 C652 1.526 . S
C655 C656 1.396 . S
C655 C660 1.390 . S
C656 C650 1.465 . S
C656 C655 1.396 . S
C656 C657 1.399 . S
C657 H643 0.929 . S
C657 C656 1.399 . S
C657 C658 1.385 . S
C658 H644 0.931 . S
C658 C657 1.385 . S
C658 C659 1.389 . S
C659 C658 1.389 . S
C659 C660 1.387 . S
C660 H645 0.930 . S
C660 C655 1.390 . S
C660 C659 1.387 . S
H661 C673 0.930 . S
H662 C675 0.930 . S
H663 C676 0.930 . S
H664 C680 0.959 . S
H665 C680 0.959 . S
H666 C680 0.961 . S
H667 C681 0.960 . S
H668 C681 0.961 . S
H669 C681 0.959 . S
H670 C684 0.929 . S
H671 C685 0.931 . S
H672 C687 0.930 . S
C673 H661 0.930 . S
C673 C674 1.399 . S
C673 C678 1.399 . S
C674 C673 1.399 . S
C674 C675 1.376 . S
C675 H662 0.930 . S
C675 C674 1.376 . S
C675 C676 1.388 . S
C676 H663 0.930 . S
C676 C675 1.388 . S
C676 C677 1.390 . S
C677 C676 1.390 . S
C677 C678 1.394 . S
C677 C683 1.465 . S
C678 C673 1.399 . S
C678 C677 1.394 . S
C678 C679 1.516 . S
C679 C678 1.516 . S
C679 C680 1.502 . S
C679 C681 1.561 . S
C679 C682 1.526 . S
C680 H664 0.959 . S
C680 H665 0.959 . S
C680 H666 0.961 . S
C680 C679 1.502 . S
C681 H667 0.960 . S
C681 H668 0.961 . S
C681 H669 0.959 . S
C681 C679 1.561 . S
C682 C679 1.526 . S
C682 C683 1.396 . S
C682 C687 1.390 . S
C683 C677 1.465 . S
C683 C682 1.396 . S
C683 C684 1.399 . S
C684 H670 0.929 . S
C684 C683 1.399 . S
C684 C685 1.385 . S
C685 H671 0.931 . S
C685 C684 1.385 . S
C685 C686 1.389 . S
C686 C685 1.389 . S
C686 C687 1.387 . S
C687 H672 0.930 . S
C687 C682 1.390 . S
C687 C686 1.387 . S
H688 C700 0.930 . S
H689 C702 0.930 . S
H690 C703 0.930 . S
H691 C707 0.959 . S
H692 C707 0.959 1_554 S
H693 C707 0.961 1_554 S
H694 C708 0.961 . S
H695 C708 0.961 1_455 S
H696 C708 0.959 . S
H697 C711 0.929 . S
H698 C712 0.939 . S
H699 C714 0.930 . S
C700 H688 0.930 . S
C700 C701 1.399 . S
C700 C705 1.399 . S
C701 C700 1.399 . S
C701 C702 1.376 1_455 S
C702 H689 0.930 . S
C702 C701 1.376 1_655 S
C702 C703 1.388 . S
C703 H690 0.930 . S
C703 C702 1.388 . S
C703 C704 1.405 . S
C704 C703 1.405 . S
C704 C705 1.378 1_655 S
C704 C710 1.463 1_655 S
C705 C700 1.399 . S
C705 C704 1.378 1_455 S
C705 C706 1.516 . S
C706 C705 1.516 . S
C706 C707 1.502 . S
C706 C708 1.561 1_456 S
C706 C709 1.526 . S
C707 H691 0.959 . S
C707 H692 0.959 1_556 S
C707 H693 0.961 1_556 S
C707 C706 1.502 . S
C708 H694 0.961 . S
C708 H695 0.961 1_655 S
C708 H696 0.959 . S
C708 C706 1.561 1_654 S
C709 C706 1.526 . S
C709 C710 1.396 . S
C709 C714 1.390 . S
C710 C704 1.463 1_455 S
C710 C709 1.396 . S
C710 C711 1.399 1_455 S
C711 H697 0.929 . S
C711 C710 1.399 1_655 S
C711 C712 1.392 . S
C712 H698 0.939 . S
C712 C711 1.392 . S
C712 C713 1.376 1_655 S
C713 C712 1.376 1_455 S
C713 C714 1.387 . S
C714 H699 0.930 . S
C714 C709 1.390 . S
C714 C713 1.387 . S
H715 C727 0.930 . S
H716 C729 0.930 . S
H717 C730 0.930 . S
H718 C734 0.959 . S
H719 C734 0.959 . S
H720 C734 0.961 . S
H721 C735 0.960 . S
H722 C735 0.961 . S
H723 C735 0.959 . S
H724 C738 0.929 . S
H725 C739 0.931 . S
H726 C741 0.930 . S
C727 H715 0.930 . S
C727 C728 1.399 . S
C727 C732 1.399 . S
C728 C727 1.399 . S
C728 C729 1.376 1_545 S
C729 H716 0.930 . S
C729 C728 1.376 1_565 S
C729 C730 1.388 . S
C730 H717 0.930 . S
C730 C729 1.388 . S
C730 C731 1.390 . S
C731 C730 1.390 . S
C731 C732 1.394 1_565 S
C731 C737 1.465 . S
C732 C727 1.399 . S
C732 C731 1.394 1_545 S
C732 C733 1.516 . S
C733 C732 1.516 . S
C733 C734 1.502 . S
C733 C735 1.561 . S
C733 C736 1.526 . S
C734 H718 0.959 . S
C734 H719 0.959 . S
C734 H720 0.961 . S
C734 C733 1.502 . S
C735 H721 0.960 . S
C735 H722 0.961 . S
C735 H723 0.959 . S
C735 C733 1.561 . S
C736 C733 1.526 . S
C736 C737 1.396 1_545 S
C736 C741 1.390 . S
C737 C731 1.465 . S
C737 C736 1.396 1_565 S
C737 C738 1.399 . S
C738 H724 0.929 . S
C738 C737 1.399 . S
C738 C739 1.385 . S
C739 H725 0.931 . S
C739 C738 1.385 . S
C739 C740 1.389 1_565 S
C740 C739 1.389 1_545 S
C740 C741 1.387 . S
C741 H726 0.930 . S
C741 C736 1.390 . S
C741 C740 1.387 . S
H742 C754 0.930 . S
H743 C756 0.930 1_554 S
H744 C757 0.930 1_554 S
H745 C761 0.959 . S
H746 C761 0.959 . S
H747 C761 0.961 . S
H748 C762 0.960 . S
H749 C762 0.961 . S
H750 C762 0.959 . S
H751 C765 0.929 1_554 S
H752 C766 0.931 . S
H753 C768 0.930 . S
C754 H742 0.930 . S
C754 C755 1.399 . S
C754 C759 1.399 . S
C755 C754 1.399 . S
C755 C756 1.376 . S
C756 H743 0.930 1_556 S
C756 C755 1.376 . S
C756 C757 1.388 . S
C757 H744 0.930 1_556 S
C757 C756 1.388 . S
C757 C758 1.390 . S
C758 C757 1.390 . S
C758 C759 1.394 . S
C758 C764 1.465 . S
C759 C754 1.399 . S
C759 C758 1.394 . S
C759 C760 1.516 . S
C760 C759 1.516 . S
C760 C761 1.502 . S
C760 C762 1.561 . S
C760 C763 1.526 . S
C761 H745 0.959 . S
C761 H746 0.959 . S
C761 H747 0.961 . S
C761 C760 1.502 . S
C762 H748 0.960 . S
C762 H749 0.961 . S
C762 H750 0.959 . S
C762 C760 1.561 . S
C763 C760 1.526 . S
C763 C764 1.396 . S
C763 C768 1.390 . S
C764 C758 1.465 . S
C764 C763 1.396 . S
C764 C765 1.399 . S
C765 H751 0.929 1_556 S
C765 C764 1.399 . S
C765 C766 1.385 . S
C766 H752 0.931 . S
C766 C765 1.385 . S
C766 C767 1.389 . S
C767 C766 1.389 . S
C767 C768 1.387 . S
C768 H753 0.930 . S
C768 C763 1.390 . S
C768 C767 1.387 . S
H769 C781 0.930 . S
H770 C783 0.930 . S
H771 C784 0.930 . S
H772 C788 0.959 . S
H773 C788 0.959 . S
H774 C788 0.961 . S
H775 C789 0.960 1_554 S
H776 C789 0.961 . S
H777 C789 0.959 1_554 S
H778 C792 0.929 . S
H779 C793 0.931 . S
H780 C795 0.930 . S
C781 H769 0.930 . S
C781 C782 1.399 . S
C781 C786 1.399 . S
C782 C781 1.399 . S
C782 C783 1.376 . S
C783 H770 0.930 . S
C783 C782 1.376 . S
C783 C784 1.388 . S
C784 H771 0.930 . S
C784 C783 1.388 . S
C784 C785 1.390 . S
C785 C784 1.390 . S
C785 C786 1.394 . S
C785 C791 1.465 . S
C786 C781 1.399 . S
C786 C785 1.394 . S
C786 C787 1.516 . S
C787 C786 1.516 . S
C787 C788 1.502 . S
C787 C789 1.561 . S
C787 C790 1.526 . S
C788 H772 0.959 . S
C788 H773 0.959 . S
C788 H774 0.961 . S
C788 C787 1.502 . S
C789 H775 0.960 1_556 S
C789 H776 0.961 . S
C789 H777 0.959 1_556 S
C789 C787 1.561 . S
C790 C787 1.526 . S
C790 C791 1.396 . S
C790 C795 1.390 . S
C791 C785 1.465 . S
C791 C790 1.396 . S
C791 C792 1.399 . S
C792 H778 0.929 . S
C792 C791 1.399 . S
C792 C793 1.385 . S
C793 H779 0.931 . S
C793 C792 1.385 . S
C793 C794 1.389 . S
C794 C793 1.389 . S
C794 C795 1.387 . S
C795 H780 0.930 . S
C795 C790 1.390 . S
C795 C794 1.387 . S
H796 C808 0.930 . S
H797 C810 0.930 . S
H798 C811 0.930 . S
H799 C815 0.959 . S
H800 C815 0.959 . S
H801 C815 0.961 . S
H802 C816 0.960 . S
H803 C816 0.961 . S
H804 C816 0.959 . S
H805 C819 0.929 . S
H806 C820 0.929 1_455 S
H807 C822 0.930 . S
C808 H796 0.930 . S
C808 C809 1.411 . S
C808 C813 1.399 . S
C809 C808 1.411 . S
C809 C810 1.363 1_655 S
C810 H797 0.930 . S
C810 C809 1.363 1_455 S
C810 C811 1.388 . S
C811 H798 0.930 . S
C811 C810 1.388 . S
C811 C812 1.390 . S
C812 C811 1.390 . S
C812 C813 1.394 1_455 S
C812 C818 1.465 1_455 S
C813 C808 1.399 . S
C813 C812 1.394 1_655 S
C813 C814 1.516 . S
C814 C813 1.516 . S
C814 C815 1.502 . S
C814 C816 1.561 1_655 S
C814 C817 1.526 . S
C815 H799 0.959 . S
C815 H800 0.959 . S
C815 H801 0.961 . S
C815 C814 1.502 . S
C816 H802 0.960 . S
C816 H803 0.961 . S
C816 H804 0.959 . S
C816 C814 1.561 1_455 S
C817 C814 1.526 . S
C817 C818 1.396 . S
C817 C822 1.390 . S
C818 C812 1.465 1_655 S
C818 C817 1.396 . S
C818 C819 1.399 1_655 S
C819 H805 0.929 . S
C819 C818 1.399 1_455 S
C819 C820 1.384 1_455 S
C820 H806 0.929 1_655 S
C820 C819 1.384 1_655 S
C820 C821 1.392 . S
C821 C820 1.392 . S
C821 C822 1.387 . S
C822 H807 0.930 . S
C822 C817 1.390 . S
C822 C821 1.387 . S
H823 C835 0.930 . S
H824 C837 0.930 . S
H825 C838 0.930 . S
H826 C842 0.959 1_545 S
H827 C842 0.959 . S
H828 C842 0.961 . S
H829 C843 0.960 . S
H830 C843 0.961 . S
H831 C843 0.959 . S
H832 C846 0.922 1_545 S
H833 C847 0.931 1_545 S
H834 C849 0.930 . S
C835 H823 0.930 . S
C835 C836 1.399 . S
C835 C840 1.399 . S
C836 C835 1.399 . S
C836 C837 1.376 1_565 S
C837 H824 0.930 . S
C837 C836 1.376 1_545 S
C837 C838 1.388 . S
C838 H825 0.930 . S
C838 C837 1.388 . S
C838 C839 1.390 1_545 S
C839 C838 1.390 1_565 S
C839 C840 1.394 . S
C839 C845 1.465 . S
C840 C835 1.399 . S
C840 C839 1.394 . S
C840 C841 1.516 . S
C841 C840 1.516 . S
C841 C842 1.502 . S
C841 C843 1.561 . S
C841 C844 1.526 . S
C842 H826 0.959 1_565 S
C842 H827 0.959 . S
C842 H828 0.961 . S
C842 C841 1.502 . S
C843 H829 0.960 . S
C843 H830 0.961 . S
C843 H831 0.959 . S
C843 C841 1.561 . S
C844 C841 1.526 . S
C844 C845 1.396 . S
C844 C849 1.390 . S
C845 C839 1.465 . S
C845 C844 1.396 . S
C845 C846 1.405 . S
C846 H832 0.922 1_565 S
C846 C845 1.405 . S
C846 C847 1.388 . S
C847 H833 0.931 1_565 S
C847 C846 1.388 . S
C847 C848 1.389 . S
C848 C847 1.389 . S
C848 C849 1.387 . S
C849 H834 0.930 . S
C849 C844 1.390 . S
C849 C848 1.387 . S
H850 C862 0.930 . S
H851 C864 0.930 . S
H852 C865 0.930 . S
H853 C869 0.959 . S
H854 C869 0.959 . S
H855 C869 0.961 . S
H856 C870 0.960 . S
H857 C870 0.961 . S
H858 C870 0.959 . S
H859 C873 0.929 . S
H860 C874 0.931 . S
H861 C876 0.930 . S
C862 H850 0.930 . S
C862 C863 1.399 . S
C862 C867 1.399 . S
C863 C862 1.399 . S
C863 C864 1.376 . S
C864 H851 0.930 . S
C864 C863 1.376 . S
C864 C865 1.388 . S
C865 H852 0.930 . S
C865 C864 1.388 . S
C865 C866 1.390 . S
C866 C865 1.390 . S
C866 C867 1.394 . S
C866 C872 1.465 . S
C867 C862 1.399 . S
C867 C866 1.394 . S
C867 C868 1.516 . S
C868 C867 1.516 . S
C868 C869 1.502 . S
C868 C870 1.561 . S
C868 C871 1.526 . S
C869 H853 0.959 . S
C869 H854 0.959 . S
C869 H855 0.961 . S
C869 C868 1.502 . S
C870 H856 0.960 . S
C870 H857 0.961 . S
C870 H858 0.959 . S
C870 C868 1.561 . S
C871 C868 1.526 . S
C871 C872 1.396 . S
C871 C876 1.390 . S
C872 C866 1.465 . S
C872 C871 1.396 . S
C872 C873 1.399 . S
C873 H859 0.929 . S
C873 C872 1.399 . S
C873 C874 1.385 . S
C874 H860 0.931 . S
C874 C873 1.385 . S
C874 C875 1.389 . S
C875 C874 1.389 . S
C875 C876 1.387 . S
C876 H861 0.930 . S
C876 C871 1.390 . S
C876 C875 1.387 . S
H877 C889 0.930 . S
H878 C891 0.930 . S
H879 C892 0.930 . S
H880 C896 0.959 . S
H881 C896 0.959 . S
H882 C896 0.961 . S
H883 C897 0.960 . S
H884 C897 0.961 . S
H885 C897 0.959 . S
H886 C900 0.929 . S
H887 C901 0.931 . S
H888 C903 0.930 . S
C889 H877 0.930 . S
C889 C890 1.399 . S
C889 C894 1.399 . S
C890 C889 1.399 . S
C890 C891 1.376 . S
C891 H878 0.930 . S
C891 C890 1.376 . S
C891 C892 1.388 . S
C892 H879 0.930 . S
C892 C891 1.388 . S
C892 C893 1.390 . S
C893 C892 1.390 . S
C893 C894 1.394 . S
C893 C899 1.465 . S
C894 C889 1.399 . S
C894 C893 1.394 . S
C894 C895 1.516 . S
C895 C894 1.516 . S
C895 C896 1.502 . S
C895 C897 1.561 . S
C895 C898 1.526 . S
C896 H880 0.959 . S
C896 H881 0.959 . S
C896 H882 0.961 . S
C896 C895 1.502 . S
C897 H883 0.960 . S
C897 H884 0.961 . S
C897 H885 0.959 . S
C897 C895 1.561 . S
C898 C895 1.526 . S
C898 C899 1.396 . S
C898 C903 1.390 . S
C899 C893 1.465 . S
C899 C898 1.396 . S
C899 C900 1.399 . S
C900 H886 0.929 . S
C900 C899 1.399 . S
C900 C901 1.385 . S
C901 H887 0.931 . S
C901 C900 1.385 . S
C901 C902 1.389 . S
C902 C901 1.389 . S
C902 C903 1.387 . S
C903 H888 0.930 . S
C903 C898 1.390 . S
C903 C902 1.387 . S
C269 C76 1.847 1_565 S
C281 C106 1.960 . S
C308 C146 1.958 . S
C296 C88 1.812 . S
C335 C186 1.962 . S
C323 C52 1.851 . S
C362 C226 1.961 1_455 S
C350 C64 1.781 . S
C389 C115 1.981 1_565 S
C377 C28 1.808 . S
C404 C40 1.850 . S
C416 C155 1.969 . S
C431 C4 1.785 . S
C443 C195 1.957 . S
C458 C16 1.800 1_455 S
C470 C235 1.958 . S
C497 C112 0.606 . S
C485 C69 0.576 . S
C524 C152 0.617 . S
C512 C81 0.554 . S
C551 C192 0.531 . S
C539 C93 0.623 . S
C566 C57 0.586 . S
C578 C232 0.437 . S
C593 C21 0.515 . S
C605 C103 0.609 . S
C632 C143 0.438 . S
C620 C33 0.653 . S
C659 C183 0.493 . S
C647 C45 0.527 . S
C674 C9 0.640 . S
C686 C223 0.441 . S
C701 C66 2.056 . S
C713 C107 2.254 . S
C728 C78 1.991 . S
C740 C147 2.256 . S
C767 C187 2.277 . S
C755 C90 1.978 . S
C794 C227 2.253 . S
C782 C54 2.016 . S
C809 C18 1.990 1_655 S
C821 C98 2.269 . S
C848 C138 2.264 . S
C836 C30 2.074 . S
C875 C178 2.254 . S
C863 C42 2.061 . S
C890 C6 1.978 . S
C902 C218 2.273 . S
