# Generated by pormake.
# Topology ctn, (3,4)-cn, num edge types: 1
# Building blocks:
#     Node 0, Type 0, BuildingBlock: BELTOD_clean_linker_0, # of connection points: 3
#     Node 1, Type 0, BuildingBlock: BELTOD_clean_linker_0, # of connection points: 3
#     Node 2, Type 0, BuildingBlock: BELTOD_clean_linker_0, # of connection points: 3
#     Node 3, Type 0, BuildingBlock: BELTOD_clean_linker_0, # of connection points: 3
#     Node 4, Type 0, BuildingBlock: BELTOD_clean_linker_0, # of connection points: 3
#     Node 5, Type 0, BuildingBlock: BELTOD_clean_linker_0, # of connection points: 3
#     Node 6, Type 0, BuildingBlock: BELTOD_clean_linker_0, # of connection points: 3
#     Node 7, Type 0, BuildingBlock: BELTOD_clean_linker_0, # of connection points: 3
#     Node 8, Type 0, BuildingBlock: BELTOD_clean_linker_0, # of connection points: 3
#     Node 9, Type 0, BuildingBlock: BELTOD_clean_linker_0, # of connection points: 3
#     Node 10, Type 0, BuildingBlock: BELTOD_clean_linker_0, # of connection points: 3
#     Node 11, Type 0, BuildingBlock: BELTOD_clean_linker_0, # of connection points: 3
#     Node 12, Type 0, BuildingBlock: BELTOD_clean_linker_0, # of connection points: 3
#     Node 13, Type 0, BuildingBlock: BELTOD_clean_linker_0, # of connection points: 3
#     Node 14, Type 0, BuildingBlock: BELTOD_clean_linker_0, # of connection points: 3
#     Node 15, Type 0, BuildingBlock: BELTOD_clean_linker_0, # of connection points: 3
#     Node 16, Type 1, BuildingBlock: NAHDIM_clean_sbu_0, # of connection points: 4
#     Node 17, Type 1, BuildingBlock: NAHDIM_clean_sbu_0, # of connection points: 4
#     Node 18, Type 1, BuildingBlock: NAHDIM_clean_sbu_0, # of connection points: 4
#     Node 19, Type 1, BuildingBlock: NAHDIM_clean_sbu_0, # of connection points: 4
#     Node 20, Type 1, BuildingBlock: NAHDIM_clean_sbu_0, # of connection points: 4
#     Node 21, Type 1, BuildingBlock: NAHDIM_clean_sbu_0, # of connection points: 4
#     Node 22, Type 1, BuildingBlock: NAHDIM_clean_sbu_0, # of connection points: 4
#     Node 23, Type 1, BuildingBlock: NAHDIM_clean_sbu_0, # of connection points: 4
#     Node 24, Type 1, BuildingBlock: NAHDIM_clean_sbu_0, # of connection points: 4
#     Node 25, Type 1, BuildingBlock: NAHDIM_clean_sbu_0, # of connection points: 4
#     Node 26, Type 1, BuildingBlock: NAHDIM_clean_sbu_0, # of connection points: 4
#     Node 27, Type 1, BuildingBlock: NAHDIM_clean_sbu_0, # of connection points: 4
#     Edge 28, Type (0, 1), BuildingBlock: ZUJKAS_clean_linker_0, # of connection points: 2
#     Edge 29, Type (0, 1), BuildingBlock: ZUJKAS_clean_linker_0, # of connection points: 2
#     Edge 30, Type (0, 1), BuildingBlock: ZUJKAS_clean_linker_0, # of connection points: 2
#     Edge 31, Type (0, 1), BuildingBlock: ZUJKAS_clean_linker_0, # of connection points: 2
#     Edge 32, Type (0, 1), BuildingBlock: ZUJKAS_clean_linker_0, # of connection points: 2
#     Edge 33, Type (0, 1), BuildingBlock: ZUJKAS_clean_linker_0, # of connection points: 2
#     Edge 34, Type (0, 1), BuildingBlock: ZUJKAS_clean_linker_0, # of connection points: 2
#     Edge 35, Type (0, 1), BuildingBlock: ZUJKAS_clean_linker_0, # of connection points: 2
#     Edge 36, Type (0, 1), BuildingBlock: ZUJKAS_clean_linker_0, # of connection points: 2
#     Edge 37, Type (0, 1), BuildingBlock: ZUJKAS_clean_linker_0, # of connection points: 2
#     Edge 38, Type (0, 1), BuildingBlock: ZUJKAS_clean_linker_0, # of connection points: 2
#     Edge 39, Type (0, 1), BuildingBlock: ZUJKAS_clean_linker_0, # of connection points: 2
#     Edge 40, Type (0, 1), BuildingBlock: ZUJKAS_clean_linker_0, # of connection points: 2
#     Edge 41, Type (0, 1), BuildingBlock: ZUJKAS_clean_linker_0, # of connection points: 2
#     Edge 42, Type (0, 1), BuildingBlock: ZUJKAS_clean_linker_0, # of connection points: 2
#     Edge 43, Type (0, 1), BuildingBlock: ZUJKAS_clean_linker_0, # of connection points: 2
#     Edge 44, Type (0, 1), BuildingBlock: ZUJKAS_clean_linker_0, # of connection points: 2
#     Edge 45, Type (0, 1), BuildingBlock: ZUJKAS_clean_linker_0, # of connection points: 2
#     Edge 46, Type (0, 1), BuildingBlock: ZUJKAS_clean_linker_0, # of connection points: 2
#     Edge 47, Type (0, 1), BuildingBlock: ZUJKAS_clean_linker_0, # of connection points: 2
#     Edge 48, Type (0, 1), BuildingBlock: ZUJKAS_clean_linker_0, # of connection points: 2
#     Edge 49, Type (0, 1), BuildingBlock: ZUJKAS_clean_linker_0, # of connection points: 2
#     Edge 50, Type (0, 1), BuildingBlock: ZUJKAS_clean_linker_0, # of connection points: 2
#     Edge 51, Type (0, 1), BuildingBlock: ZUJKAS_clean_linker_0, # of connection points: 2
#     Edge 52, Type (0, 1), BuildingBlock: ZUJKAS_clean_linker_0, # of connection points: 2
#     Edge 53, Type (0, 1), BuildingBlock: ZUJKAS_clean_linker_0, # of connection points: 2
#     Edge 54, Type (0, 1), BuildingBlock: ZUJKAS_clean_linker_0, # of connection points: 2
#     Edge 55, Type (0, 1), BuildingBlock: ZUJKAS_clean_linker_0, # of connection points: 2
#     Edge 56, Type (0, 1), BuildingBlock: ZUJKAS_clean_linker_0, # of connection points: 2
#     Edge 57, Type (0, 1), BuildingBlock: ZUJKAS_clean_linker_0, # of connection points: 2
#     Edge 58, Type (0, 1), BuildingBlock: ZUJKAS_clean_linker_0, # of connection points: 2
#     Edge 59, Type (0, 1), BuildingBlock: ZUJKAS_clean_linker_0, # of connection points: 2
#     Edge 60, Type (0, 1), BuildingBlock: ZUJKAS_clean_linker_0, # of connection points: 2
#     Edge 61, Type (0, 1), BuildingBlock: ZUJKAS_clean_linker_0, # of connection points: 2
#     Edge 62, Type (0, 1), BuildingBlock: ZUJKAS_clean_linker_0, # of connection points: 2
#     Edge 63, Type (0, 1), BuildingBlock: ZUJKAS_clean_linker_0, # of connection points: 2
#     Edge 64, Type (0, 1), BuildingBlock: ZUJKAS_clean_linker_0, # of connection points: 2
#     Edge 65, Type (0, 1), BuildingBlock: ZUJKAS_clean_linker_0, # of connection points: 2
#     Edge 66, Type (0, 1), BuildingBlock: ZUJKAS_clean_linker_0, # of connection points: 2
#     Edge 67, Type (0, 1), BuildingBlock: ZUJKAS_clean_linker_0, # of connection points: 2
#     Edge 68, Type (0, 1), BuildingBlock: ZUJKAS_clean_linker_0, # of connection points: 2
#     Edge 69, Type (0, 1), BuildingBlock: ZUJKAS_clean_linker_0, # of connection points: 2
#     Edge 70, Type (0, 1), BuildingBlock: ZUJKAS_clean_linker_0, # of connection points: 2
#     Edge 71, Type (0, 1), BuildingBlock: ZUJKAS_clean_linker_0, # of connection points: 2
#     Edge 72, Type (0, 1), BuildingBlock: ZUJKAS_clean_linker_0, # of connection points: 2
#     Edge 73, Type (0, 1), BuildingBlock: ZUJKAS_clean_linker_0, # of connection points: 2
#     Edge 74, Type (0, 1), BuildingBlock: ZUJKAS_clean_linker_0, # of connection points: 2
#     Edge 75, Type (0, 1), BuildingBlock: ZUJKAS_clean_linker_0, # of connection points: 2
# Relax obj value: 0.002
# Max RMSD: 0.036
# Mean RMSD: 0.022
data_MOF--net-ctn--node1-NAHDIM_clean_sbu_0--node2-BELTOD_clean_linker_0--edge1-ZUJKAS_clean_linker_0
_symmetry_space_group_name_H-M    P1
_symmetry_Int_Tables_number       1
_symmetry_cell_setting            triclinic
loop_
_symmetry_equiv_pos_as_xyz
'x, y, z'
_cell_length_a     78.727325
_cell_length_b     79.639464
_cell_length_c     78.22669
_cell_angle_alpha  90.416475
_cell_angle_beta   90.124277
_cell_angle_gamma 92.728155
loop_
_atom_site_label
_atom_site_type_symbol
_atom_site_fract_x
_atom_site_fract_y
_atom_site_fract_z
_atom_type_partial_charge
P0 P 0.06172 0.07 0.07559 0.0
H1 H 0.06099 0.06114 0.11156 0.0
H2 H 0.03828 0.05081 0.13056 0.0
H3 H 0.00284 0.04998 0.08826 0.0
H4 H 0.02566 0.06041 0.06934 0.0
H5 H 0.09828 0.06544 0.07401 0.0
H6 H 0.11501 0.04198 0.06488 0.0
H7 H 0.06876 0.01329 0.05182 0.0
H8 H 0.05207 0.03701 0.06082 0.0
H9 H 0.03884 0.09746 0.0748 0.0
H10 H 0.06674 0.06891 0.0382 0.0
O11 O 0.07424 0.08323 0.08717 0.0
H12 H 0.02864 0.115 0.05182 0.0
H13 H 0.05635 0.0862 0.01508 0.0
C14 C 0.04489 0.06194 0.08919 0.0
C15 C 0.04832 0.05876 0.1064 0.0
C16 C 0.03536 0.05272 0.1172 0.0
C17 C 0.01873 0.04967 0.11093 0.0
C18 C 0.01545 0.05248 0.09352 0.0
C19 C 0.02848 0.05843 0.0827 0.0
C20 C 0.07394 0.05283 0.06834 0.0
C21 C 0.09173 0.0541 0.06922 0.0
C22 C 0.10128 0.04064 0.06405 0.0
C23 C 0.09321 0.0257 0.0578 0.0
C24 C 0.07536 0.02465 0.05652 0.0
C25 C 0.0658 0.03813 0.06176 0.0
C26 C 0.05338 0.08179 0.0582 0.0
C27 C 0.04257 0.09483 0.06177 0.0
C28 C 0.03669 0.10479 0.0486 0.0
C29 C 0.04163 0.10197 0.03159 0.0
C30 C 0.05242 0.08879 0.02806 0.0
C31 C 0.05828 0.07881 0.04127 0.0
P32 P 0.30872 0.68943 0.19244 0.0
H33 H 0.32489 0.7114 0.16708 0.0
H34 H 0.31492 0.735 0.15063 0.0
H35 H 0.26681 0.73093 0.17715 0.0
H36 H 0.27683 0.70721 0.19342 0.0
H37 H 0.33486 0.67257 0.21106 0.0
H38 H 0.35307 0.68094 0.23529 0.0
H39 H 0.32895 0.72851 0.23814 0.0
H40 H 0.31091 0.7201 0.21373 0.0
H41 H 0.28416 0.66881 0.17296 0.0
H42 H 0.29387 0.68076 0.22606 0.0
O43 O 0.32047 0.67847 0.17904 0.0
H44 H 0.26011 0.65004 0.18114 0.0
H45 H 0.26976 0.66212 0.23433 0.0
C46 C 0.30146 0.70734 0.18115 0.0
C47 C 0.3122 0.71561 0.16934 0.0
C48 C 0.30653 0.72918 0.16005 0.0
C49 C 0.29001 0.73477 0.16249 0.0
C50 C 0.27948 0.72673 0.17476 0.0
C51 C 0.2852 0.71319 0.18408 0.0
C52 C 0.32183 0.69585 0.2104 0.0
C53 C 0.33355 0.68483 0.21687 0.0
C54 C 0.34384 0.68957 0.23082 0.0
C55 C 0.34251 0.70543 0.2386 0.0
C56 C 0.33047 0.71633 0.23225 0.0
C57 C 0.32014 0.71153 0.21832 0.0
C58 C 0.29092 0.67597 0.19889 0.0
C59 C 0.28108 0.66739 0.18638 0.0
C60 C 0.26727 0.65677 0.19107 0.0
C61 C 0.26305 0.65457 0.2084 0.0
C62 C 0.27284 0.66339 0.2209 0.0
C63 C 0.28662 0.67408 0.21618 0.0
P64 P 0.98931 0.4914 0.01478 0.0
H65 H 0.98838 0.48097 0.97912 0.0
H66 H 0.98696 0.45347 0.96504 0.0
H67 H 0.98337 0.42944 0.01437 0.0
H68 H 0.98511 0.45705 0.02835 0.0
H69 H 0.98071 0.52643 0.01213 0.0
H70 H 0.95368 0.54031 0.01217 0.0
H71 H 0.9268 0.49216 0.0183 0.0
H72 H 0.95397 0.47835 0.01834 0.0
H73 H 0.02386 0.49004 0.0277 0.0
H74 H 0.97321 0.48874 0.04865 0.0
O75 O 0.00309 0.50323 0.00333 0.0
H76 H 0.03573 0.48825 0.05645 0.0
H77 H 0.98494 0.48657 0.07747 0.0
C78 C 0.98723 0.47102 0.00474 0.0
C79 C 0.98728 0.46977 0.98689 0.0
C80 C 0.98632 0.45403 0.97886 0.0
C81 C 0.98515 0.43923 0.98859 0.0
C82 C 0.98456 0.44058 0.00652 0.0
C83 C 0.98552 0.45636 0.01453 0.0
C84 C 0.96929 0.50136 0.01486 0.0
C85 C 0.96899 0.51885 0.01338 0.0
C86 C 0.95354 0.52676 0.01337 0.0
C87 C 0.9381 0.51731 0.01508 0.0
C88 C 0.93849 0.49978 0.01701 0.0
C89 C 0.95398 0.49186 0.0169 0.0
C90 C 0.99771 0.48991 0.03609 0.0
C91 C 0.0153 0.48938 0.03852 0.0
C92 C 0.02205 0.48819 0.05496 0.0
C93 C 0.01129 0.48733 0.06929 0.0
C94 C 0.99359 0.48751 0.06674 0.0
C95 C 0.98686 0.48872 0.05026 0.0
P96 P 0.68294 0.82179 0.18704 0.0
H97 H 0.69806 0.85406 0.1758 0.0
H98 H 0.7207 0.87276 0.18749 0.0
H99 H 0.72773 0.83806 0.22886 0.0
H100 H 0.70513 0.81924 0.21688 0.0
H101 H 0.6661 0.79125 0.17354 0.0
H102 H 0.67623 0.76742 0.15728 0.0
H103 H 0.72763 0.78881 0.16074 0.0
H104 H 0.71736 0.81273 0.17673 0.0
H105 H 0.6545 0.83841 0.20223 0.0
H106 H 0.6803 0.79247 0.20969 0.0
O107 O 0.67219 0.83225 0.17248 0.0
H108 H 0.63461 0.8306 0.22506 0.0
H109 H 0.66012 0.78425 0.23219 0.0
C110 C 0.69976 0.83541 0.19565 0.0
C111 C 0.70442 0.85049 0.18742 0.0
C112 C 0.71733 0.86121 0.19415 0.0
C113 C 0.7259 0.85698 0.2092 0.0
C114 C 0.72142 0.84164 0.21721 0.0
C115 C 0.70844 0.83094 0.21046 0.0
C116 C 0.69098 0.80363 0.17655 0.0
C117 C 0.67958 0.79068 0.17098 0.0
C118 C 0.68541 0.77703 0.16175 0.0
C119 C 0.70276 0.77618 0.15776 0.0
C120 C 0.71417 0.78915 0.1635 0.0
C121 C 0.70832 0.80279 0.17276 0.0
C122 C 0.66855 0.81581 0.20399 0.0
C123 C 0.65576 0.82655 0.20869 0.0
C124 C 0.64436 0.82202 0.2217 0.0
C125 C 0.6456 0.80668 0.23032 0.0
C126 C 0.65882 0.79618 0.22587 0.0
C127 C 0.67026 0.80077 0.21289 0.0
P128 P 0.05623 0.94536 0.44202 0.0
H129 H 0.09283 0.94754 0.44741 0.0
H130 H 0.11262 0.97035 0.45665 0.0
H131 H 0.07064 0.00295 0.46265 0.0
H132 H 0.05095 0.9801 0.45299 0.0
H133 H 0.04058 0.91168 0.44306 0.0
H134 H 0.03128 0.89331 0.46647 0.0
H135 H 0.04657 0.93225 0.50289 0.0
H136 H 0.05551 0.95066 0.47937 0.0
H137 H 0.05214 0.95581 0.40681 0.0
H138 H 0.02159 0.95317 0.45247 0.0
O139 O 0.06674 0.93333 0.4285 0.0
H140 H 0.02812 0.966 0.3908 0.0
H141 H 0.9975 0.96371 0.43662 0.0
C142 C 0.07052 0.96227 0.44916 0.0
C143 C 0.08791 0.95963 0.45064 0.0
C144 C 0.09918 0.97265 0.45609 0.0
C145 C 0.09323 0.98852 0.46035 0.0
C146 C 0.07568 0.99098 0.45919 0.0
C147 C 0.0644 0.97792 0.45371 0.0
C148 C 0.04902 0.93237 0.4595 0.0
C149 C 0.04192 0.91624 0.45609 0.0
C150 C 0.03668 0.90574 0.46949 0.0
C151 C 0.03837 0.91125 0.48656 0.0
C152 C 0.04503 0.92766 0.48989 0.0
C153 C 0.05028 0.93815 0.47645 0.0
C154 C 0.0385 0.9534 0.43068 0.0
C155 C 0.04024 0.95747 0.41338 0.0
C156 C 0.02653 0.96344 0.40429 0.0
C157 C 0.01084 0.96562 0.41241 0.0
C158 C 0.00931 0.96191 0.42992 0.0
C159 C 0.02307 0.95592 0.439 0.0
P160 P 0.22198 0.73916 0.78072 0.0
H161 H 0.2469 0.74195 0.80807 0.0
H162 H 0.24667 0.75476 0.83653 0.0
H163 H 0.1942 0.76677 0.82921 0.0
H164 H 0.19457 0.75407 0.80069 0.0
H165 H 0.24467 0.72334 0.75672 0.0
H166 H 0.25831 0.69647 0.75673 0.0
H167 H 0.23245 0.68314 0.80377 0.0
H168 H 0.21917 0.71032 0.80385 0.0
H169 H 0.20293 0.76466 0.76387 0.0
H170 H 0.19594 0.71183 0.77496 0.0
O171 O 0.23487 0.75259 0.77005 0.0
H172 H 0.1755 0.76392 0.74919 0.0
H173 H 0.16871 0.71083 0.75985 0.0
C174 C 0.22075 0.74695 0.80231 0.0
C175 C 0.23527 0.74713 0.8127 0.0
C176 C 0.2351 0.7544 0.82899 0.0
C177 C 0.2204 0.76177 0.83514 0.0
C178 C 0.20576 0.76132 0.82477 0.0
C179 C 0.20594 0.75398 0.80848 0.0
C180 C 0.23122 0.71893 0.78047 0.0
C181 C 0.24196 0.71464 0.76705 0.0
C182 C 0.24964 0.69919 0.767 0.0
C183 C 0.24655 0.68765 0.7803 0.0
C184 C 0.23534 0.69184 0.79349 0.0
C185 C 0.22771 0.70735 0.79354 0.0
C186 C 0.20161 0.73824 0.77019 0.0
C187 C 0.19554 0.75286 0.763 0.0
C188 C 0.17988 0.75239 0.75456 0.0
C189 C 0.16998 0.73726 0.75314 0.0
C190 C 0.17595 0.72271 0.76077 0.0
C191 C 0.19161 0.72322 0.7693 0.0
P192 P 0.98239 0.51719 0.49397 0.0
H193 H 0.01248 0.50136 0.48066 0.0
H194 H 0.02566 0.50107 0.45248 0.0
H195 H 0.98628 0.53178 0.43297 0.0
H196 H 0.9732 0.53212 0.46137 0.0
H197 H 0.0066 0.53462 0.51708 0.0
H198 H 0.0083 0.56305 0.52909 0.0
H199 H 0.96384 0.57516 0.5 0.0
H200 H 0.96211 0.54656 0.4882 0.0
H201 H 0.96375 0.49292 0.47167 0.0
H202 H 0.9534 0.52315 0.51606 0.0
O203 O 0.99289 0.50488 0.50708 0.0
H204 H 0.93488 0.4803 0.47274 0.0
H205 H 0.92437 0.51108 0.51687 0.0
C206 C 0.99184 0.51673 0.47307 0.0
C207 C 0.00662 0.50799 0.47033 0.0
C208 C 0.01411 0.50776 0.45417 0.0
C209 C 0.00698 0.51635 0.44046 0.0
C210 C 0.99216 0.52517 0.4433 0.0
C211 C 0.98464 0.52532 0.45948 0.0
C212 C 0.98402 0.53841 0.50205 0.0
C213 C 0.99722 0.54339 0.51329 0.0
C214 C 0.99825 0.55969 0.52004 0.0
C215 C 0.98613 0.57133 0.51558 0.0
C216 C 0.9732 0.56641 0.50389 0.0
C217 C 0.97223 0.5501 0.49709 0.0
C218 C 0.96058 0.5093 0.49351 0.0
C219 C 0.95514 0.49714 0.48141 0.0
C220 C 0.9386 0.48995 0.48202 0.0
C221 C 0.92725 0.4947 0.49486 0.0
C222 C 0.9328 0.50699 0.5069 0.0
C223 C 0.94935 0.51408 0.50633 0.0
P224 P 0.80924 0.81501 0.81822 0.0
H225 H 0.83727 0.83206 0.8001 0.0
H226 H 0.85426 0.82417 0.77545 0.0
H227 H 0.82386 0.77775 0.77041 0.0
H228 H 0.80672 0.78591 0.79492 0.0
H229 H 0.79103 0.83968 0.83755 0.0
H230 H 0.76813 0.85797 0.83017 0.0
H231 H 0.76623 0.83665 0.77919 0.0
H232 H 0.78888 0.81809 0.78684 0.0
H233 H 0.82773 0.78758 0.832 0.0
H234 H 0.77556 0.80172 0.8299 0.0
O235 O 0.82233 0.8263 0.83114 0.0
H236 H 0.81928 0.76317 0.84929 0.0
H237 H 0.76697 0.77721 0.84702 0.0
C238 C 0.82104 0.80938 0.79955 0.0
C239 C 0.83428 0.82019 0.79368 0.0
C240 C 0.844 0.81564 0.77963 0.0
C241 C 0.84055 0.80023 0.77111 0.0
C242 C 0.82682 0.78972 0.77666 0.0
C243 C 0.8171 0.79429 0.79075 0.0
C244 C 0.79189 0.82783 0.81263 0.0
C245 C 0.78567 0.83895 0.82479 0.0
C246 C 0.77262 0.84944 0.82052 0.0
C247 C 0.76549 0.84895 0.80401 0.0
C248 C 0.77139 0.83732 0.79203 0.0
C249 C 0.78445 0.82679 0.79634 0.0
C250 C 0.80231 0.79644 0.82969 0.0
C251 C 0.81442 0.7853 0.83511 0.0
C252 C 0.80955 0.77131 0.84491 0.0
C253 C 0.79244 0.76824 0.84953 0.0
C254 C 0.78027 0.77933 0.84382 0.0
C255 C 0.78517 0.79331 0.83396 0.0
P256 P 0.31071 0.31645 0.31932 0.0
H257 H 0.34163 0.33016 0.30309 0.0
H258 H 0.35804 0.32118 0.27858 0.0
H259 H 0.3214 0.27983 0.26979 0.0
H260 H 0.30518 0.28878 0.29466 0.0
H261 H 0.28238 0.32785 0.33929 0.0
H262 H 0.25881 0.34563 0.3326 0.0
H263 H 0.27578 0.34875 0.28017 0.0
H264 H 0.29915 0.33078 0.2869 0.0
H265 H 0.32791 0.29982 0.34698 0.0
H266 H 0.28077 0.29296 0.31909 0.0
O267 O 0.32328 0.32938 0.33118 0.0
H268 H 0.31999 0.27559 0.36472 0.0
H269 H 0.27261 0.26876 0.33696 0.0
C270 C 0.32239 0.30994 0.30088 0.0
C271 C 0.33714 0.31914 0.29593 0.0
C272 C 0.34644 0.31407 0.28179 0.0
C273 C 0.34106 0.29975 0.27222 0.0
C274 C 0.32602 0.29076 0.27703 0.0
C275 C 0.31672 0.29587 0.29121 0.0
C276 C 0.29237 0.32783 0.31357 0.0
C277 C 0.28085 0.33215 0.3263 0.0
C278 C 0.26747 0.34242 0.32249 0.0
C279 C 0.26545 0.34864 0.30586 0.0
C280 C 0.27685 0.34398 0.29304 0.0
C281 C 0.29026 0.33373 0.29689 0.0
C282 C 0.30475 0.29839 0.33202 0.0
C283 C 0.31579 0.29315 0.34475 0.0
C284 C 0.31123 0.27932 0.35491 0.0
C285 C 0.29558 0.27037 0.35238 0.0
C286 C 0.28476 0.27536 0.3392 0.0
C287 C 0.28934 0.28926 0.32907 0.0
P288 P 0.48705 0.99058 0.51401 0.0
H289 H 0.49537 0.97981 0.47938 0.0
H290 H 0.49573 0.95217 0.46564 0.0
H291 H 0.47705 0.92903 0.51216 0.0
H292 H 0.47666 0.9568 0.52584 0.0
H293 H 0.47732 0.02449 0.52133 0.0
H294 H 0.44996 0.03768 0.52232 0.0
H295 H 0.42437 0.98981 0.51026 0.0
H296 H 0.45185 0.97682 0.50892 0.0
H297 H 0.52174 0.98959 0.5266 0.0
H298 H 0.47121 0.98669 0.54786 0.0
O299 O 0.50014 0.00356 0.50301 0.0
H300 H 0.53384 0.98717 0.55522 0.0
H301 H 0.48321 0.98461 0.5766 0.0
C302 C 0.48626 0.97029 0.5037 0.0
C303 C 0.49134 0.9688 0.48663 0.0
C304 C 0.49159 0.953 0.47881 0.0
C305 C 0.48658 0.93842 0.48788 0.0
C306 C 0.48093 0.94004 0.50483 0.0
C307 C 0.4808 0.95587 0.51269 0.0
C308 C 0.46663 -0.00023 0.5148 0.0
C309 C 0.46581 0.01687 0.51884 0.0
C310 C 0.45014 0.02435 0.51956 0.0
C311 C 0.43496 0.01481 0.51635 0.0
C312 C 0.43584 0.99757 0.51255 0.0
C313 C 0.45156 0.9901 0.51184 0.0
C314 C 0.49563 0.98872 0.53518 0.0
C315 C 0.51327 0.98858 0.53747 0.0
C316 C 0.52016 0.98724 0.55384 0.0
C317 C 0.5095 0.98589 0.56822 0.0
C318 C 0.49177 0.98558 0.5658 0.0
C319 C 0.48489 0.98692 0.54939 0.0
P320 P 0.18334 0.32293 0.68684 0.0
H321 H 0.2158 0.3339 0.67196 0.0
H322 H 0.23987 0.35139 0.68277 0.0
H323 H 0.21489 0.35518 0.73169 0.0
H324 H 0.19078 0.33788 0.72072 0.0
H325 H 0.16815 0.30667 0.65668 0.0
H326 H 0.17655 0.28338 0.63859 0.0
H327 H 0.22036 0.27712 0.67093 0.0
H328 H 0.21158 0.3002 0.68922 0.0
H329 H 0.15081 0.33452 0.69896 0.0
H330 H 0.18474 0.29543 0.7114 0.0
O331 O 0.17332 0.33612 0.67427 0.0
H332 H 0.13137 0.3247 0.72139 0.0
H333 H 0.16514 0.28529 0.73375 0.0
C334 C 0.20166 0.33432 0.69562 0.0
C335 C 0.21564 0.33828 0.6851 0.0
C336 C 0.22941 0.34824 0.69131 0.0
C337 C 0.22932 0.35462 0.70812 0.0
C338 C 0.21529 0.35055 0.71866 0.0
C339 C 0.20154 0.34053 0.71243 0.0
C340 C 0.18949 0.30541 0.674 0.0
C341 C 0.17957 0.30029 0.65985 0.0
C342 C 0.18443 0.28701 0.64949 0.0
C343 C 0.19927 0.27853 0.65317 0.0
C344 C 0.20885 0.28334 0.66776 0.0
C345 C 0.20393 0.29663 0.67814 0.0
C346 C 0.16904 0.3155 0.70333 0.0
C347 C 0.15401 0.32371 0.70642 0.0
C348 C 0.14287 0.31805 0.71923 0.0
C349 C 0.14662 0.3041 0.72925 0.0
C350 C 0.16191 0.2961 0.72631 0.0
C351 C 0.17305 0.30179 0.71346 0.0
P352 P 0.81026 0.18965 0.69185 0.0
H353 H 0.82467 0.20775 0.66263 0.0
H354 H 0.81533 0.23159 0.64619 0.0
H355 H 0.77258 0.23596 0.68024 0.0
H356 H 0.78194 0.21191 0.69652 0.0
H357 H 0.8449 0.18151 0.70115 0.0
H358 H 0.86331 0.18985 0.72514 0.0
H359 H 0.82388 0.2202 0.74548 0.0
H360 H 0.80561 0.21202 0.72112 0.0
H361 H 0.77805 0.17952 0.67558 0.0
H362 H 0.80284 0.17161 0.72388 0.0
O363 O 0.82088 0.17766 0.67839 0.0
H364 H 0.75397 0.16117 0.68447 0.0
H365 H 0.77869 0.15353 0.733 0.0
C366 C 0.80376 0.20785 0.68051 0.0
C367 C 0.81329 0.21385 0.66656 0.0
C368 C 0.80801 0.22757 0.65725 0.0
C369 C 0.79313 0.23561 0.66183 0.0
C370 C 0.78392 0.22987 0.67622 0.0
C371 C 0.78927 0.21616 0.68555 0.0
C372 C 0.82395 0.19624 0.70932 0.0
C373 C 0.84023 0.19002 0.71071 0.0
C374 C 0.8507 0.1947 0.72453 0.0
C375 C 0.84505 0.20564 0.73729 0.0
C376 C 0.8287 0.21191 0.73579 0.0
C377 C 0.81823 0.20722 0.72191 0.0
C378 C 0.79205 0.17724 0.6992 0.0
C379 C 0.77816 0.17407 0.68822 0.0
C380 C 0.76439 0.16362 0.69335 0.0
C381 C 0.76436 0.15595 0.70949 0.0
C382 C 0.77836 0.15915 0.72045 0.0
C383 C 0.79212 0.16963 0.7153 0.0
P384 P 0.56319 0.56897 0.57364 0.0
H385 H 0.56151 0.56867 0.61088 0.0
H386 H 0.53937 0.5593 0.63093 0.0
H387 H 0.50702 0.54329 0.58857 0.0
H388 H 0.52927 0.55291 0.56854 0.0
H389 H 0.59643 0.55749 0.58361 0.0
H390 H 0.61245 0.53336 0.57506 0.0
H391 H 0.57126 0.51646 0.54158 0.0
H392 H 0.55536 0.5409 0.55008 0.0
H393 H 0.53428 0.59035 0.5703 0.0
H394 H 0.57356 0.57197 0.53774 0.0
O395 O 0.57631 0.5829 0.58365 0.0
H396 H 0.52385 0.60698 0.54675 0.0
H397 H 0.56298 0.5883 0.51398 0.0
C398 C 0.54685 0.56182 0.58825 0.0
C399 C 0.54963 0.56321 0.6059 0.0
C400 C 0.53701 0.55771 0.61735 0.0
C401 C 0.5214 0.55061 0.61134 0.0
C402 C 0.5188 0.54894 0.59359 0.0
C403 C 0.5315 0.55438 0.58215 0.0
C404 C 0.57487 0.55113 0.56722 0.0
C405 C 0.59087 0.54865 0.57438 0.0
C406 C 0.59995 0.53474 0.56959 0.0
C407 C 0.59314 0.52299 0.55762 0.0
C408 C 0.57695 0.5254 0.55065 0.0
C409 C 0.56784 0.53932 0.55552 0.0
C410 C 0.55437 0.57952 0.55564 0.0
C411 C 0.5404 0.58956 0.55795 0.0
C412 C 0.53443 0.59906 0.54445 0.0
C413 C 0.54251 0.59889 0.52843 0.0
C414 C 0.55652 0.58877 0.52617 0.0
C415 C 0.56247 0.57928 0.53971 0.0
P416 P 0.55628 0.44648 0.94225 0.0
H417 H 0.59317 0.44873 0.94549 0.0
H418 H 0.61329 0.47122 0.95479 0.0
H419 H 0.57147 0.50308 0.96506 0.0
H420 H 0.55143 0.48055 0.95529 0.0
H421 H 0.53891 0.41356 0.94291 0.0
H422 H 0.52985 0.3948 0.9661 0.0
H423 H 0.54938 0.43151 0.00303 0.0
H424 H 0.55804 0.45032 0.97979 0.0
H425 H 0.5529 0.46113 0.90865 0.0
H426 H 0.52074 0.45115 0.95231 0.0
O427 O 0.5663 0.4346 0.92818 0.0
H428 H 0.52882 0.47183 0.89307 0.0
H429 H 0.49657 0.46202 0.93687 0.0
C430 C 0.57088 0.46313 0.94937 0.0
C431 C 0.58835 0.46059 0.94966 0.0
C432 C 0.59983 0.47342 0.95514 0.0
C433 C 0.59401 0.489 0.96063 0.0
C434 C 0.5764 0.49135 0.96064 0.0
C435 C 0.56493 0.47849 0.9551 0.0
C436 C 0.54937 0.43318 0.95962 0.0
C437 C 0.54123 0.41754 0.95601 0.0
C438 C 0.53612 0.40682 0.96928 0.0
C439 C 0.53904 0.41158 0.98643 0.0
C440 C 0.54685 0.42749 0.98998 0.0
C441 C 0.55193 0.43823 0.97668 0.0
C442 C 0.53851 0.45505 0.93145 0.0
C443 C 0.54064 0.46131 0.91488 0.0
C444 C 0.52689 0.46754 0.90606 0.0
C445 C 0.51074 0.46771 0.91371 0.0
C446 C 0.50878 0.46182 0.93054 0.0
C447 C 0.52259 0.45563 0.93938 0.0
P448 P 0.72534 0.24054 0.27405 0.0
H449 H 0.75149 0.2586 0.29409 0.0
H450 H 0.75121 0.27293 0.3218 0.0
H451 H 0.69795 0.25837 0.32745 0.0
H452 H 0.69841 0.24382 0.2998 0.0
H453 H 0.74127 0.21949 0.24889 0.0
H454 H 0.75394 0.19213 0.25055 0.0
H455 H 0.73992 0.18874 0.30384 0.0
H456 H 0.72701 0.21603 0.30198 0.0
H457 H 0.70824 0.26426 0.25269 0.0
H458 H 0.6967 0.21546 0.27444 0.0
O459 O 0.7385 0.25214 0.26169 0.0
H460 H 0.68026 0.2636 0.23911 0.0
H461 H 0.66862 0.21463 0.26075 0.0
C462 C 0.72489 0.25052 0.29473 0.0
C463 C 0.73975 0.25853 0.30128 0.0
C464 C 0.73956 0.26675 0.3171 0.0
C465 C 0.7245 0.26697 0.32673 0.0
C466 C 0.70975 0.25839 0.32036 0.0
C467 C 0.70996 0.25019 0.30449 0.0
C468 C 0.73356 0.21992 0.27539 0.0
C469 C 0.74091 0.21283 0.26092 0.0
C470 C 0.7482 0.19723 0.26191 0.0
C471 C 0.74815 0.18837 0.27739 0.0
C472 C 0.74014 0.19523 0.29172 0.0
C473 C 0.73286 0.21089 0.29071 0.0
C474 C 0.70465 0.23975 0.26423 0.0
C475 C 0.69972 0.25333 0.25442 0.0
C476 C 0.68373 0.25292 0.24664 0.0
C477 C 0.67231 0.23898 0.2487 0.0
C478 C 0.67714 0.22555 0.25895 0.0
C479 C 0.69321 0.22595 0.26667 0.0
P480 P 0.48494 0.01669 0.99064 0.0
H481 H 0.52032 0.02089 0.98059 0.0
H482 H 0.53442 0.02293 0.95287 0.0
H483 H 0.48543 0.02031 0.92767 0.0
H484 H 0.47142 0.01799 0.95554 0.0
H485 H 0.48084 0.02531 0.02643 0.0
H486 H 0.48022 0.05206 0.04184 0.0
H487 H 0.48665 0.07865 0.99413 0.0
H488 H 0.48683 0.05179 0.97878 0.0
H489 H 0.47368 0.98223 0.98302 0.0
H490 H 0.45034 0.02897 0.99409 0.0
O491 O 0.49681 0.00433 0.0024 0.0
H492 H 0.44566 0.96759 0.98253 0.0
H493 H 0.42233 0.01439 0.99406 0.0
C494 C 0.49489 0.01894 0.97007 0.0
C495 C 0.51263 0.02075 0.96909 0.0
C496 C 0.52066 0.02206 0.95323 0.0
C497 C 0.51105 0.02172 0.93804 0.0
C498 C 0.4932 0.02035 0.93912 0.0
C499 C 0.48517 0.01905 0.95504 0.0
C500 C 0.48424 0.03659 0.00155 0.0
C501 C 0.48215 0.03691 0.01931 0.0
C502 C 0.48186 0.05221 0.0281 0.0
C503 C 0.4836 0.06751 0.01924 0.0
C504 C 0.48521 0.06711 0.00133 0.0
C505 C 0.48547 0.05175 0.99255 0.0
C506 C 0.46409 0.00658 0.98892 0.0
C507 C 0.4625 0.98933 0.98533 0.0
C508 C 0.4465 0.98098 0.98514 0.0
C509 C 0.43177 0.98978 0.98849 0.0
C510 C 0.43339 0.00725 0.99136 0.0
C511 C 0.44944 0.01559 0.99152 0.0
C512 C 0.20864 0.89891 0.01167 0.0
O513 O 0.20822 0.89097 0.99689 0.0
O514 O 0.23457 0.86729 0.99577 0.0
Zn515 Zn 0.24034 0.88209 0.0162 0.0
O516 O 0.26125 0.89691 0.01096 0.0
C517 C 0.23562 0.85482 0.04031 0.0
O518 O 0.22175 0.8514 0.03132 0.0
O519 O 0.22096 0.89686 0.02187 0.0
C520 C 0.27588 0.89302 0.01612 0.0
O521 O 0.27731 0.87916 0.0249 0.0
C522 C 0.24566 0.85775 0.98982 0.0
O523 O 0.26066 0.85772 0.9972 0.0
O524 O 0.24522 0.86746 0.03634 0.0
C525 C 0.14518 0.47515 0.27409 0.0
O526 O 0.1449 0.48788 0.28486 0.0
O527 O 0.10595 0.49718 0.27824 0.0
Zn528 Zn 0.12074 0.49463 0.2574 0.0
O529 O 0.13629 0.5153 0.25421 0.0
C530 C 0.09161 0.49556 0.2344 0.0
O531 O 0.08494 0.5041 0.24692 0.0
O532 O 0.13556 0.47505 0.26103 0.0
C533 C 0.13305 0.52701 0.24391 0.0
O534 O 0.11879 0.526 0.23513 0.0
C535 C 0.10126 0.51135 0.28356 0.0
O536 O 0.10597 0.52499 0.27514 0.0
O537 O 0.10649 0.49024 0.23617 0.0
C538 C 0.7829 0.60503 0.00383 0.0
O539 O 0.7733 0.60242 0.99023 0.0
O540 O 0.76175 0.64402 0.99032 0.0
Zn541 Zn 0.75764 0.62874 0.01055 0.0
O542 O 0.73795 0.61216 0.006 0.0
C543 C 0.74521 0.65674 0.02917 0.0
O544 O 0.74127 0.66135 0.01362 0.0
O545 O 0.77872 0.61593 0.01481 0.0
C546 C 0.72364 0.61661 0.00055 0.0
O547 O 0.72144 0.6326 0.99771 0.0
C548 C 0.75811 0.64016 0.9749 0.0
O549 O 0.75136 0.62514 0.97133 0.0
O550 O 0.75245 0.64296 0.03124 0.0
C551 C 0.83942 0.03655 0.27499 0.0
O552 O 0.83387 0.02228 0.28178 0.0
O553 O 0.88152 0.0128 0.28336 0.0
Zn554 Zn 0.86641 0.01621 0.26298 0.0
O555 O 0.85002 0.9963 0.2591 0.0
C556 C 0.89454 0.01083 0.24066 0.0
O557 O 0.89791 -0.00016 0.25249 0.0
O558 O 0.85318 0.03698 0.26649 0.0
C559 C 0.85395 0.98112 0.26091 0.0
O560 O 0.86945 0.97789 0.26572 0.0
C561 C 0.87691 0.00562 0.29716 0.0
O562 O 0.86105 -1e-05 0.29889 0.0
O563 O 0.8814 0.0194 0.24225 0.0
C564 C 0.28014 0.10267 0.5047 0.0
O565 O 0.26926 0.09836 0.4925 0.0
O566 O 0.26127 0.14342 0.48886 0.0
Zn567 Zn 0.25666 0.12861 0.50932 0.0
O568 O 0.23663 0.11239 0.505 0.0
C569 C 0.24457 0.15722 0.52699 0.0
O570 O 0.24056 0.1612 0.51128 0.0
O571 O 0.27741 0.11545 0.51396 0.0
C572 C 0.22279 0.11672 0.49832 0.0
O573 O 0.22121 0.13247 0.49397 0.0
C574 C 0.25862 0.1392 0.47335 0.0
O575 O 0.25261 0.12392 0.4697 0.0
O576 O 0.2517 0.14346 0.5296 0.0
C577 C 0.34754 0.54186 0.77816 0.0
O578 O 0.35149 0.53419 0.79234 0.0
O579 O 0.38157 0.51406 0.78352 0.0
Zn580 Zn 0.36732 0.51618 0.76221 0.0
O581 O 0.35173 0.49562 0.75866 0.0
C582 C 0.398 0.51364 0.74245 0.0
O583 O 0.40289 0.5057 0.75614 0.0
O584 O 0.35299 0.53642 0.76397 0.0
C585 C 0.35699 0.48173 0.75319 0.0
O586 O 0.37323 0.48052 0.74986 0.0
C587 C 0.3786 0.50315 0.79504 0.0
O588 O 0.36513 0.49284 0.79366 0.0
O589 O 0.38311 0.51916 0.74198 0.0
C590 C 0.71118 0.3998 0.50836 0.0
O591 O 0.71469 0.39701 0.4922 0.0
O592 O 0.73429 0.36459 0.49298 0.0
Zn593 Zn 0.74006 0.37945 0.51345 0.0
O594 O 0.76026 0.39497 0.50807 0.0
C595 C 0.73558 0.35532 0.54084 0.0
O596 O 0.71962 0.35491 0.53587 0.0
O597 O 0.72023 0.39335 0.51984 0.0
C598 C 0.76796 0.40319 0.51997 0.0
O599 O 0.76242 0.40155 0.53574 0.0
C600 C 0.73905 0.36895 0.47807 0.0
O601 O 0.74753 0.38341 0.47608 0.0
O602 O 0.74639 0.36492 0.53319 0.0
C603 C 0.64796 0.9763 0.76742 0.0
O604 O 0.65134 0.99083 0.77507 0.0
O605 O 0.60656 0.99915 0.77353 0.0
Zn606 Zn 0.62188 0.99542 0.75331 0.0
O607 O 0.63835 0.01529 0.75022 0.0
C608 C 0.59459 0.98319 0.73059 0.0
O609 O 0.58948 0.97436 0.7439 0.0
O610 O 0.63537 0.97489 0.75722 0.0
C611 C 0.63356 0.0293 0.74478 0.0
O612 O 0.6174 0.03095 0.74126 0.0
C613 C 0.61094 0.00941 0.78546 0.0
O614 O 0.62569 0.01778 0.78453 0.0
O615 O 0.60796 0.99271 0.7318 0.0
C616 C 0.99515 0.22615 0.90985 0.0
O617 O 0.9799 0.23219 0.90983 0.0
O618 O 0.97931 0.24394 0.87049 0.0
Zn619 Zn 0.00059 0.25098 0.88378 0.0
O620 O 0.99707 0.27195 0.89784 0.0
C621 C 0.01755 0.25852 0.85172 0.0
O622 O 0.00184 0.25947 0.84626 0.0
O623 O 0.00631 0.23228 0.89964 0.0
C624 C 0.00066 0.28653 0.89196 0.0
O625 O 0.00661 0.28798 0.87634 0.0
C626 C 0.96784 0.25402 0.86674 0.0
O627 O 0.96943 0.26969 0.87207 0.0
O628 O 0.02018 0.25509 0.86733 0.0
C629 C 0.49387 0.72266 0.40736 0.0
O630 O 0.47796 0.72644 0.40511 0.0
O631 O 0.47923 0.74275 0.36941 0.0
Zn632 Zn 0.49973 0.74984 0.38376 0.0
O633 O 0.49529 0.77059 0.39772 0.0
C634 C 0.51723 0.76461 0.35528 0.0
O635 O 0.50236 0.77116 0.35321 0.0
O636 O 0.50552 0.73103 0.39948 0.0
C637 C 0.50748 0.78095 0.40163 0.0
O638 O 0.52296 0.77782 0.39667 0.0
C639 C 0.46632 0.75163 0.36788 0.0
O640 O 0.46587 0.76592 0.37633 0.0
O641 O 0.51935 0.75484 0.3678 0.0
C642 C 0.9947 0.78964 0.61579 0.0
O643 O 0.98811 0.79316 0.63073 0.0
O644 O 0.97495 0.76016 0.64481 0.0
Zn645 Zn 0.99428 0.75556 0.62892 0.0
O646 O 0.98951 0.73413 0.61561 0.0
C647 C 0.01562 0.74305 0.65528 0.0
O648 O 0.00167 0.73405 0.65885 0.0
O649 O 0.99816 0.77456 0.61235 0.0
C650 C 0.00159 0.72846 0.60687 0.0
O651 O 0.01644 0.73672 0.60702 0.0
C652 C 0.95941 0.75732 0.64088 0.0
O653 O 0.95548 0.75106 0.62572 0.0
O654 O 0.01552 0.75328 0.6429 0.0
C655 C 0.49696 0.28898 0.11537 0.0
O656 O 0.49159 0.29277 0.13075 0.0
O657 O 0.47333 0.26033 0.1422 0.0
Zn658 Zn 0.49388 0.25497 0.12816 0.0
O659 O 0.48967 0.2334 0.11469 0.0
C660 C 0.51378 0.24933 0.15905 0.0
O661 O 0.49885 0.24624 0.16612 0.0
O662 O 0.49878 0.27366 0.11143 0.0
C663 C 0.49524 0.21951 0.11965 0.0
O664 O 0.50357 0.21903 0.13419 0.0
C665 C 0.46322 0.24913 0.14854 0.0
O666 O 0.466 0.23319 0.14581 0.0
O667 O 0.51456 0.25327 0.14333 0.0
H668 H 0.20731 0.79209 0.8429 0.0
H669 H 0.20979 0.80773 0.8699 0.0
H670 H 0.23704 0.76755 0.89212 0.0
H671 H 0.23435 0.75164 0.86524 0.0
H672 H 0.21083 0.78183 0.91371 0.0
H673 H 0.25653 0.8296 0.88603 0.0
H674 H 0.23699 0.82577 0.8744 0.0
H675 H 0.25183 0.80942 0.87598 0.0
C676 C 0.21358 0.78644 0.85361 0.0
C677 C 0.22072 0.77065 0.85191 0.0
C678 C 0.2151 0.79546 0.86897 0.0
C679 C 0.22378 0.78886 0.88288 0.0
C680 C 0.23038 0.77287 0.88147 0.0
H681 H 0.2677 0.83895 0.97186 0.0
H682 H 0.26169 0.82181 0.94629 0.0
C683 C 0.22892 0.76386 0.86609 0.0
C684 C 0.22656 0.79891 0.89871 0.0
H685 H 0.24764 0.83418 0.91443 0.0
C686 C 0.21883 0.79329 0.9139 0.0
C687 C 0.23717 0.81375 0.89888 0.0
C688 C 0.24624 0.81999 0.88301 0.0
C689 C 0.22132 0.80227 0.9293 0.0
C690 C 0.23174 0.81723 0.92941 0.0
C691 C 0.23957 0.82275 0.91424 0.0
C692 C 0.23504 0.82716 0.94521 0.0
C693 C 0.21306 0.79559 0.94542 0.0
C694 C 0.22202 0.83589 0.95299 0.0
C695 C 0.22542 0.84578 0.96755 0.0
C696 C 0.2419 0.84707 0.97459 0.0
C697 C 0.25486 0.8382 0.9668 0.0
C698 C 0.25147 0.82841 0.95219 0.0
H699 H 0.20798 0.78242 0.94382 0.0
H700 H 0.2223 0.79615 0.95618 0.0
H701 H 0.20237 0.80352 0.94891 0.0
H702 H 0.2093 0.83523 0.94764 0.0
H703 H 0.21516 0.85246 0.97325 0.0
H704 H 0.0125 0.54276 0.41861 0.0
H705 H 0.02688 0.54259 0.39086 0.0
H706 H 0.03473 0.48966 0.3962 0.0
H707 H 0.02007 0.48964 0.42373 0.0
H708 H 0.06077 0.53327 0.38492 0.0
H709 H 0.0141 0.49308 0.34796 0.0
H710 H 0.00881 0.50315 0.36789 0.0
H711 H 0.02045 0.48428 0.36792 0.0
C712 C 0.01705 0.53103 0.41374 0.0
C713 C 0.01513 0.5162 0.42335 0.0
C714 C 0.02534 0.53098 0.39795 0.0
C715 C 0.03168 0.51608 0.39141 0.0
C716 C 0.02968 0.50124 0.4009 0.0
H717 H 0.09095 0.48585 0.30495 0.0
H718 H 0.07393 0.48779 0.33093 0.0
C719 C 0.02146 0.50129 0.41671 0.0
C720 C 0.04111 0.51615 0.37504 0.0
H721 H 0.04115 0.49856 0.33512 0.0
C722 C 0.05643 0.52582 0.37396 0.0
C723 C 0.0354 0.50636 0.36083 0.0
C724 C 0.01872 0.49623 0.36108 0.0
C725 C 0.0665 0.52556 0.35918 0.0
C726 C 0.06089 0.51563 0.345 0.0
C727 C 0.04544 0.50614 0.34602 0.0
C728 C 0.07105 0.5146 0.32913 0.0
C729 C 0.08332 0.53548 0.35909 0.0
C730 C 0.07488 0.529 0.31937 0.0
C731 C 0.08468 0.52796 0.30455 0.0
C732 C 0.09069 0.51245 0.29913 0.0
C733 C 0.08656 0.49799 0.30878 0.0
C734 C 0.07682 0.49907 0.32362 0.0
H735 H 0.08768 0.53891 0.37224 0.0
H736 H 0.09329 0.52827 0.35275 0.0
H737 H 0.08192 0.54729 0.3519 0.0
H738 H 0.07025 0.54105 0.32319 0.0
H739 H 0.08751 0.5393 0.29734 0.0
H740 H 0.7705 0.76811 0.8766 0.0
H741 H 0.764 0.74519 0.89654 0.0
H742 H 0.79678 0.71324 0.86827 0.0
H743 H 0.80331 0.73609 0.84821 0.0
H744 H 0.75018 0.71225 0.89138 0.0
H745 H 0.81604 0.71275 0.91716 0.0
H746 H 0.80853 0.72951 0.90417 0.0
H747 H 0.8144 0.71016 0.89438 0.0
C748 C 0.77614 0.75614 0.87447 0.0
C749 C 0.78752 0.75396 0.86088 0.0
C750 C 0.77247 0.74308 0.88592 0.0
C751 C 0.78013 0.72763 0.88403 0.0
C752 C 0.79102 0.7252 0.87016 0.0
H753 H 0.7524 0.63607 0.94052 0.0
H754 H 0.7575 0.65687 0.918 0.0
C755 C 0.79473 0.73826 0.85872 0.0
C756 C 0.77701 0.71425 0.89685 0.0
H757 H 0.79671 0.69146 0.92722 0.0
C758 C 0.76034 0.70765 0.8992 0.0
C759 C 0.79028 0.70846 0.90717 0.0
C760 C 0.8083 0.71566 0.90576 0.0
C761 C 0.75657 0.69535 0.91158 0.0
C762 C 0.76989 0.68935 0.92168 0.0
C763 C 0.78655 0.69599 0.91935 0.0
C764 C 0.76676 0.67666 0.93521 0.0
C765 C 0.73833 0.68919 0.91404 0.0
C766 C 0.77064 0.68078 0.95228 0.0
C767 C 0.76786 0.66891 0.96515 0.0
C768 C 0.7612 0.65264 0.96118 0.0
C769 C 0.75746 0.6485 0.94403 0.0
C770 C 0.76027 0.6604 0.93114 0.0
H771 H 0.72929 0.69779 0.90819 0.0
H772 H 0.73632 0.67665 0.90789 0.0
H773 H 0.73529 0.68788 0.92784 0.0
H774 H 0.77573 0.69325 0.95567 0.0
H775 H 0.77089 0.67253 0.97822 0.0
H776 H 0.97754 0.9541 0.41435 0.0
H777 H 0.95375 0.96203 0.39637 0.0
H778 H 0.98698 0.99759 0.36983 0.0
H779 H 0.01076 0.98999 0.3879 0.0
H780 H 0.94014 0.99529 0.38973 0.0
H781 H 0.96673 0.9647 0.33224 0.0
H782 H 0.97369 0.96021 0.35367 0.0
H783 H 0.98109 0.97925 0.34335 0.0
C784 C 0.97973 0.96381 0.40489 0.0
C785 C 0.9961 0.9713 0.40245 0.0
C786 C 0.96614 0.96826 0.39459 0.0
C787 C 0.9687 0.9802 0.38165 0.0
C788 C 0.98484 0.98814 0.37958 0.0
H789 H 0.91007 0.01727 0.29813 0.0
H790 H 0.93152 0.01164 0.31964 0.0
C791 C 0.99841 0.98373 0.38988 0.0
C792 C 0.95469 0.98394 0.36986 0.0
H793 H 0.94253 0.98065 0.32804 0.0
C794 C 0.94057 0.99205 0.37625 0.0
C795 C 0.95535 0.97963 0.35232 0.0
C796 C 0.96994 0.97034 0.34494 0.0
C797 C 0.92725 0.99641 0.3654 0.0
C798 C 0.92798 0.99221 0.34781 0.0
C799 C 0.94203 0.98391 0.34151 0.0
C800 C 0.91449 0.99647 0.33555 0.0
C801 C 0.91276 0.00586 0.37275 0.0
C802 C 0.89776 0.98983 0.33738 0.0
C803 C 0.8854 0.99309 0.32511 0.0
C804 C 0.88963 0.0029 0.31071 0.0
C805 C 0.90637 0.00965 0.30904 0.0
C806 C 0.91866 0.00645 0.32132 0.0
H807 H 0.91621 0.01184 0.38523 0.0
H808 H 0.9088 0.01574 0.36383 0.0
H809 H 0.9017 0.99696 0.37483 0.0
H810 H 0.89435 0.9818 0.34807 0.0
H811 H 0.87265 0.98762 0.32672 0.0
H812 H 0.19887 0.2782 0.61826 0.0
H813 H 0.20793 0.25609 0.59902 0.0
H814 H 0.22225 0.2266 0.64229 0.0
H815 H 0.21267 0.24847 0.66173 0.0
H816 H 0.24034 0.24331 0.59625 0.0
H817 H 0.19184 0.19342 0.61405 0.0
H818 H 0.1898 0.21523 0.61976 0.0
H819 H 0.20412 0.20264 0.63141 0.0
C820 C 0.2037 0.26691 0.62373 0.0
C821 C 0.2049 0.26504 0.64155 0.0
C822 C 0.209 0.25435 0.6127 0.0
C823 C 0.21556 0.23963 0.61923 0.0
C824 C 0.21696 0.23775 0.637 0.0
H825 H 0.24976 0.15254 0.56133 0.0
H826 H 0.24402 0.17214 0.58474 0.0
C827 C 0.21164 0.25033 0.64807 0.0
C828 C 0.2212 0.22651 0.60729 0.0
H829 H 0.21212 0.1863 0.59341 0.0
C830 C 0.23423 0.23082 0.59568 0.0
C831 C 0.21327 0.21019 0.60666 0.0
C832 C 0.19889 0.20505 0.61852 0.0
C833 C 0.23936 0.21934 0.58326 0.0
C834 C 0.23107 0.20322 0.58228 0.0
C835 C 0.21843 0.19869 0.59422 0.0
C836 C 0.23461 0.19132 0.56825 0.0
C837 C 0.25357 0.22459 0.57124 0.0
C838 C 0.23097 0.19555 0.55131 0.0
C839 C 0.23417 0.18443 0.53797 0.0
C840 C 0.24105 0.16881 0.5413 0.0
C841 C 0.24452 0.16451 0.55833 0.0
C842 C 0.24124 0.17566 0.57171 0.0
H843 H 0.26161 0.23523 0.57655 0.0
H844 H 0.26177 0.21394 0.56845 0.0
H845 H 0.24805 0.22873 0.559 0.0
H846 H 0.22554 0.20746 0.54842 0.0
H847 H 0.23127 0.18812 0.52503 0.0
H848 H 0.52487 0.53348 0.64121 0.0
H849 H 0.50285 0.52622 0.66226 0.0
H850 H 0.46538 0.54853 0.63041 0.0
H851 H 0.48735 0.55584 0.60928 0.0
H852 H 0.48327 0.54861 0.67965 0.0
H853 H 0.44228 0.50308 0.64218 0.0
H854 H 0.46364 0.50937 0.63573 0.0
H855 H 0.44646 0.52296 0.63193 0.0
C856 C 0.51193 0.5368 0.63866 0.0
C857 C 0.50785 0.54525 0.62359 0.0
C858 C 0.49936 0.53258 0.65066 0.0
C859 C 0.48245 0.53666 0.64781 0.0
C860 C 0.47827 0.54493 0.63269 0.0
H861 H 0.39212 0.52935 0.71207 0.0
H862 H 0.41239 0.53499 0.68884 0.0
C863 C 0.49085 0.54911 0.62064 0.0
C864 C 0.46945 0.53313 0.66115 0.0
H865 H 0.43169 0.51172 0.66908 0.0
C866 C 0.47203 0.54049 0.67736 0.0
C867 C 0.45475 0.52262 0.65808 0.0
C868 C 0.45163 0.51392 0.64109 0.0
C869 C 0.46025 0.53771 0.69058 0.0
C870 C 0.44563 0.52709 0.68757 0.0
C871 C 0.44293 0.51986 0.67132 0.0
C872 C 0.4332 0.52312 0.70129 0.0
C873 C 0.46342 0.54635 0.7076 0.0
C874 C 0.43812 0.51431 0.7158 0.0
C875 C 0.42661 0.51106 0.72906 0.0
C876 C 0.40992 0.51653 0.72804 0.0
C877 C 0.4049 0.52503 0.71329 0.0
C878 C 0.41644 0.52825 0.7 0.0
H879 H 0.4728 0.55716 0.70655 0.0
H880 H 0.45143 0.55091 0.71299 0.0
H881 H 0.46856 0.53726 0.71673 0.0
H882 H 0.45092 0.51 0.71689 0.0
H883 H 0.43087 0.50439 0.74017 0.0
H884 H 0.76048 0.24069 0.65177 0.0
H885 H 0.75067 0.2624 0.63262 0.0
H886 H 0.80196 0.28353 0.62867 0.0
H887 H 0.81187 0.2619 0.64787 0.0
H888 H 0.75323 0.29793 0.63477 0.0
H889 H 0.78815 0.27382 0.57877 0.0
H890 H 0.78492 0.2618 0.59806 0.0
H891 H 0.80114 0.27843 0.59727 0.0
C892 C 0.76964 0.25009 0.64702 0.0
C893 C 0.78698 0.24949 0.65123 0.0
C894 C 0.76402 0.26244 0.63602 0.0
C895 C 0.77564 0.27437 0.629 0.0
C896 C 0.79285 0.27419 0.63366 0.0
H897 H 0.7676 0.35323 0.55403 0.0
H898 H 0.77693 0.33435 0.57629 0.0
C899 C 0.79849 0.26184 0.64462 0.0
C900 C 0.7698 0.28675 0.61651 0.0
H901 H 0.77446 0.29935 0.5751 0.0
C902 C 0.75783 0.29825 0.62171 0.0
C903 C 0.77581 0.28708 0.59948 0.0
C904 C 0.7881 0.27454 0.59296 0.0
C905 C 0.75191 0.31028 0.61037 0.0
C906 C 0.75794 0.3106 0.59335 0.0
C907 C 0.76991 0.2991 0.58818 0.0
C908 C 0.75195 0.32265 0.58059 0.0
C909 C 0.73952 0.32274 0.61679 0.0
C910 C 0.7348 0.3223 0.57559 0.0
C911 C 0.72941 0.33309 0.56285 0.0
C912 C 0.7411 0.34434 0.55481 0.0
C913 C 0.75825 0.34472 0.55995 0.0
C914 C 0.76362 0.33394 0.57268 0.0
H915 H 0.73957 0.32364 0.63097 0.0
H916 H 0.74249 0.33543 0.61148 0.0
H917 H 0.72648 0.31863 0.61262 0.0
H918 H 0.72565 0.31344 0.58129 0.0
H919 H 0.71613 0.33242 0.55915 0.0
H920 H 0.49889 0.96579 0.59486 0.0
H921 H 0.51123 0.96478 0.62362 0.0
H922 H 0.54943 0.00274 0.60954 0.0
H923 H 0.53693 0.00419 0.58103 0.0
H924 H 0.54452 0.9571 0.6329 0.0
H925 H 0.52999 0.02147 0.65387 0.0
H926 H 0.51992 0.01129 0.63553 0.0
H927 H 0.54096 0.02094 0.6338 0.0
C928 C 0.50979 0.97407 0.59797 0.0
C929 C 0.51691 0.98511 0.58567 0.0
C930 C 0.51687 0.9734 0.61436 0.0
C931 C 0.53108 0.98386 0.61877 0.0
C932 C 0.53828 0.99478 0.60649 0.0
H933 H 0.60127 0.00076 0.70134 0.0
H934 H 0.58491 -9e-05 0.67477 0.0
C935 C 0.53124 0.99545 0.59013 0.0
C936 C 0.53876 0.98309 0.63603 0.0
H937 H 0.55013 0.00733 0.67074 0.0
C938 C 0.54558 0.968 0.64129 0.0
C939 C 0.54006 0.99734 0.64694 0.0
C940 C 0.5322 0.01364 0.64235 0.0
C941 C 0.55432 0.96698 0.65689 0.0
C942 C 0.55606 0.98139 0.66755 0.0
C943 C 0.54884 0.99634 0.66248 0.0
C944 C 0.56595 0.98147 0.68367 0.0
C945 C 0.5622 0.95073 0.66156 0.0
C946 C 0.56064 0.97143 0.69751 0.0
C947 C 0.56998 0.97188 0.71276 0.0
C948 C 0.58476 0.98242 0.71442 0.0
C949 C 0.58999 0.99247 0.7005 0.0
C950 C 0.58064 0.99202 0.6853 0.0
H951 H 0.56262 0.94193 0.65049 0.0
H952 H 0.57533 0.95315 0.66651 0.0
H953 H 0.55456 0.94446 0.6718 0.0
H954 H 0.54918 0.9634 0.69658 0.0
H955 H 0.56557 0.96404 0.72326 0.0
H956 H 0.86552 0.18545 0.75553 0.0
H957 H 0.88497 0.19359 0.77887 0.0
H958 H 0.86932 0.24464 0.77595 0.0
H959 H 0.84997 0.23667 0.75241 0.0
H960 H 0.91203 0.21829 0.77694 0.0
H961 H 0.86553 0.23358 0.82741 0.0
H962 H 0.85965 0.22124 0.80866 0.0
H963 H 0.8626 0.24369 0.80722 0.0
C964 C 0.86623 0.19843 0.75981 0.0
C965 C 0.85622 0.21043 0.75206 0.0
C966 C 0.87727 0.20302 0.77322 0.0
C967 C 0.87844 0.21966 0.77925 0.0
C968 C 0.86836 0.23166 0.7717 0.0
H969 H 0.94325 0.27321 0.8533 0.0
H970 H 0.92131 0.26459 0.8324 0.0
C971 C 0.85731 0.22708 0.75826 0.0
C972 C 0.89091 0.22461 0.79278 0.0
H973 H 0.89462 0.24021 0.83346 0.0
C974 C 0.90824 0.22301 0.78934 0.0
C975 C 0.88589 0.23084 0.80887 0.0
C976 C 0.8674 0.23234 0.81339 0.0
C977 C 0.92074 0.2277 0.80148 0.0
C978 C 0.91574 0.23381 0.81765 0.0
C979 C 0.8984 0.23547 0.82108 0.0
C980 C 0.92838 0.2387 0.83106 0.0
C981 C 0.93922 0.22646 0.79672 0.0
C982 C 0.93934 0.22689 0.83755 0.0
C983 C 0.95194 0.23177 0.84943 0.0
C984 C 0.9537 0.24855 0.85516 0.0
C985 C 0.94228 0.26021 0.84911 0.0
C986 C 0.92972 0.25531 0.83718 0.0
H987 H 0.94097 0.22585 0.78264 0.0
H988 H 0.94701 0.23736 0.80184 0.0
H989 H 0.94409 0.21484 0.80225 0.0
H990 H 0.93827 0.21391 0.83328 0.0
H991 H 0.96043 0.22245 0.85394 0.0
H992 H 0.46305 0.91193 0.48849 0.0
H993 H 0.46532 0.88411 0.47515 0.0
H994 H 0.51488 0.89922 0.45573 0.0
H995 H 0.5128 0.92692 0.46908 0.0
H996 H 0.47209 0.87753 0.43814 0.0
H997 H 0.52088 0.85396 0.48222 0.0
H998 H 0.50755 0.87099 0.48788 0.0
H999 H 0.5253 0.87466 0.47381 0.0
C1000 C 0.47447 0.90926 0.48147 0.0
C1001 C 0.48775 0.92159 0.47981 0.0
C1002 C 0.47571 0.89343 0.47381 0.0
C1003 C 0.49033 0.88962 0.46462 0.0
C1004 C 0.50357 0.9019 0.46293 0.0
H1005 H 0.53006 0.80717 0.40872 0.0
H1006 H 0.52478 0.83311 0.42424 0.0
C1007 C 0.50229 0.91774 0.47044 0.0
C1008 C 0.49172 0.87294 0.45645 0.0
H1009 H 0.51486 0.83781 0.45717 0.0
C1010 C 0.48131 0.86873 0.44236 0.0
C1011 C 0.50381 0.86161 0.46201 0.0
C1012 C 0.51497 0.8654 0.47739 0.0
C1013 C 0.48308 0.85366 0.43324 0.0
C1014 C 0.49533 0.84236 0.43867 0.0
C1015 C 0.5055 0.84648 0.45301 0.0
C1016 C 0.4983 0.82651 0.4293 0.0
C1017 C 0.4723 0.8503 0.41749 0.0
C1018 C 0.4852 0.81407 0.42715 0.0
C1019 C 0.48814 0.79925 0.41815 0.0
C1020 C 0.50431 0.79651 0.41134 0.0
C1021 C 0.51746 0.80887 0.41379 0.0
C1022 C 0.51447 0.82371 0.42267 0.0
H1023 H 0.46686 0.86196 0.41261 0.0
H1024 H 0.47981 0.84464 0.40712 0.0
H1025 H 0.46158 0.84134 0.4207 0.0
H1026 H 0.47273 0.81578 0.43251 0.0
H1027 H 0.47778 0.78992 0.41661 0.0
H1028 H 0.112 0.30063 0.72702 0.0
H1029 H 0.09196 0.29138 0.74923 0.0
H1030 H 0.13368 0.2838 0.78368 0.0
H1031 H 0.15387 0.29351 0.76165 0.0
H1032 H 0.08982 0.26028 0.76665 0.0
H1033 H 0.10256 0.31435 0.81107 0.0
H1034 H 0.10919 0.31478 0.78899 0.0
H1035 H 0.12081 0.30327 0.80442 0.0
C1036 C 0.11693 0.29716 0.73938 0.0
C1037 C 0.13453 0.29795 0.74262 0.0
C1038 C 0.10546 0.29177 0.75201 0.0
C1039 C 0.11133 0.28712 0.76815 0.0
C1040 C 0.12889 0.28759 0.77138 0.0
H1041 H 0.05171 0.25838 0.85874 0.0
H1042 H 0.07532 0.26399 0.83889 0.0
C1043 C 0.1404 0.29297 0.75873 0.0
C1044 C 0.09896 0.28174 0.78149 0.0
H1045 H 0.08262 0.29322 0.82001 0.0
C1046 C 0.08829 0.26743 0.77836 0.0
C1047 C 0.09707 0.29106 0.79677 0.0
C1048 C 0.1079 0.3068 0.80054 0.0
C1049 C 0.07563 0.26226 0.79005 0.0
C1050 C 0.07339 0.27186 0.80509 0.0
C1051 C 0.08437 0.28591 0.80845 0.0
C1052 C 0.05917 0.26806 0.81704 0.0
C1053 C 0.06477 0.24656 0.78619 0.0
C1054 C 0.04231 0.2687 0.81136 0.0
C1055 C 0.02883 0.26551 0.82262 0.0
C1056 C 0.03194 0.26172 0.83984 0.0
C1057 C 0.04887 0.2612 0.84554 0.0
C1058 C 0.06237 0.26441 0.83424 0.0
H1059 H 0.07119 0.23813 0.77713 0.0
H1060 H 0.06166 0.23949 0.79805 0.0
H1061 H 0.05269 0.25012 0.7802 0.0
H1062 H 0.03956 0.27187 0.79823 0.0
H1063 H 0.01596 0.26612 0.81782 0.0
H1064 H 0.50984 0.60513 0.51903 0.0
H1065 H 0.50065 0.62462 0.49718 0.0
H1066 H 0.553 0.63704 0.4845 0.0
H1067 H 0.5623 0.61774 0.50637 0.0
H1068 H 0.50878 0.65916 0.49616 0.0
H1069 H 0.53118 0.62734 0.43764 0.0
H1070 H 0.52902 0.61679 0.45794 0.0
H1071 H 0.54725 0.63061 0.4538 0.0
C1072 C 0.5194 0.61198 0.51156 0.0
C1073 C 0.53681 0.60985 0.51443 0.0
C1074 C 0.51412 0.62304 0.49903 0.0
C1075 C 0.52614 0.63209 0.48907 0.0
C1076 C 0.54351 0.62988 0.49177 0.0
H1077 H 0.52549 0.7122 0.41545 0.0
H1078 H 0.53258 0.68992 0.43523 0.0
C1079 C 0.5488 0.61883 0.50428 0.0
C1080 C 0.52057 0.64461 0.47657 0.0
H1081 H 0.52271 0.65548 0.43446 0.0
C1082 C 0.51167 0.65829 0.48264 0.0
C1083 C 0.52443 0.64345 0.45897 0.0
C1084 C 0.53336 0.62868 0.45163 0.0
C1085 C 0.50693 0.67111 0.47164 0.0
C1086 C 0.51094 0.67004 0.45406 0.0
C1087 C 0.51968 0.65627 0.44795 0.0
C1088 C 0.50647 0.68328 0.44186 0.0
C1089 C 0.49814 0.68594 0.47903 0.0
C1090 C 0.48942 0.68676 0.43886 0.0
C1091 C 0.48532 0.69952 0.42761 0.0
C1092 C 0.4982 0.70895 0.41906 0.0
C1093 C 0.51526 0.70522 0.42187 0.0
C1094 C 0.51935 0.69247 0.43314 0.0
H1095 H 0.49969 0.68684 0.49313 0.0
H1096 H 0.50314 0.69788 0.47328 0.0
H1097 H 0.48433 0.68453 0.47617 0.0
H1098 H 0.47928 0.67959 0.44522 0.0
H1099 H 0.47205 0.70198 0.42565 0.0
H1100 H 0.83101 0.78517 0.74067 0.0
H1101 H 0.8496 0.77606 0.71759 0.0
H1102 H 0.89355 0.79456 0.74621 0.0
H1103 H 0.87518 0.80331 0.76943 0.0
H1104 H 0.87381 0.79605 0.6984 0.0
H1105 H 0.90422 0.74569 0.73429 0.0
H1106 H 0.88472 0.75467 0.74119 0.0
H1107 H 0.90486 0.7656 0.74525 0.0
C1108 C 0.84464 0.78715 0.7421 0.0
C1109 C 0.85163 0.79494 0.75689 0.0
C1110 C 0.85522 0.78202 0.72888 0.0
C1111 C 0.87293 0.78443 0.73033 0.0
C1112 C 0.87992 0.79234 0.74498 0.0
H1113 H 0.96345 0.77107 0.67279 0.0
H1114 H 0.94137 0.77707 0.69351 0.0
C1115 C 0.86939 0.79751 0.75814 0.0
C1116 C 0.88423 0.77902 0.71644 0.0
H1117 H 0.91758 0.75434 0.70826 0.0
C1118 C 0.88326 0.78679 0.70044 0.0
C1119 C 0.89649 0.76691 0.71918 0.0
C1120 C 0.89758 0.7576 0.73585 0.0
C1121 C 0.89476 0.78329 0.68732 0.0
C1122 C 0.90734 0.77152 0.69025 0.0
C1123 C 0.90797 0.76342 0.70609 0.0
C1124 C 0.9205 0.76799 0.67738 0.0
C1125 C 0.8938 0.7927 0.6707 0.0
C1126 C 0.91608 0.76077 0.66146 0.0
C1127 C 0.92869 0.75736 0.64953 0.0
C1128 C 0.94595 0.76099 0.65337 0.0
C1129 C 0.9503 0.76812 0.66939 0.0
C1130 C 0.9377 0.77155 0.68127 0.0
H1131 H 0.88588 0.80384 0.67185 0.0
H1132 H 0.9067 0.79694 0.66632 0.0
H1133 H 0.88803 0.78422 0.66074 0.0
H1134 H 0.90289 0.75764 0.65834 0.0
H1135 H 0.92493 0.75178 0.63735 0.0
H1136 H 0.02146 0.91849 0.51617 0.0
H1137 H 0.01408 0.89934 0.53971 0.0
H1138 H 0.03666 0.85882 0.51242 0.0
H1139 H 0.04451 0.87789 0.48916 0.0
H1140 H 0.99369 0.86933 0.53878 0.0
H1141 H 0.05945 0.85765 0.55946 0.0
H1142 H 0.05453 0.87486 0.54568 0.0
H1143 H 0.0559 0.85398 0.53704 0.0
C1144 C 0.02502 0.90554 0.51529 0.0
C1145 C 0.03361 0.89972 0.50081 0.0
C1146 C 0.02071 0.89461 0.52869 0.0
C1147 C 0.02506 0.87774 0.52791 0.0
C1148 C 0.03346 0.87187 0.51341 0.0
H1149 H 0.00992 0.78672 0.58462 0.0
H1150 H 0.01662 0.80897 0.56404 0.0
C1151 C 0.03775 0.88275 0.50003 0.0
C1152 C 0.0205 0.86608 0.54201 0.0
H1153 H 0.03747 0.83895 0.57021 0.0
C1154 C 0.00324 0.86282 0.54581 0.0
C1155 C 0.03301 0.85766 0.55117 0.0
C1156 C 0.05177 0.86132 0.54827 0.0
C1157 C 0.99814 0.85082 0.55808 0.0
C1158 C 0.01066 0.84206 0.56687 0.0
C1159 C 0.02791 0.84563 0.56336 0.0
C1160 C 0.00614 0.8287 0.57932 0.0
C1161 C 0.97942 0.84717 0.56112 0.0
C1162 C 0.9981 0.83246 0.59478 0.0
C1163 C 0.99426 0.81976 0.60661 0.0
C1164 C 0.99844 0.80309 0.60319 0.0
C1165 C 0.00648 0.7994 0.58766 0.0
C1166 C 0.01035 0.8121 0.57588 0.0
H1167 H 0.97144 0.85257 0.55101 0.0
H1168 H 0.9765 0.8334 0.56168 0.0
H1169 H 0.97583 0.85271 0.57358 0.0
H1170 H 0.99498 0.84525 0.59777 0.0
H1171 H 0.98811 0.82303 0.61847 0.0
H1172 H 0.16305 0.75295 0.72311 0.0
H1173 H 0.13616 0.75254 0.7075 0.0
H1174 H 0.11326 0.71925 0.74507 0.0
H1175 H 0.13997 0.72013 0.7612 0.0
H1176 H 0.11798 0.72548 0.6931 0.0
H1177 H 0.07965 0.75658 0.74266 0.0
H1178 H 0.10255 0.7566 0.74361 0.0
H1179 H 0.08995 0.73823 0.74975 0.0
C1180 C 0.15224 0.74574 0.72823 0.0
C1181 C 0.15364 0.7367 0.74352 0.0
C1182 C 0.13691 0.74541 0.7192 0.0
C1183 C 0.12264 0.73607 0.72525 0.0
C1184 C 0.12402 0.7268 0.74034 0.0
H1185 H 0.01978 0.72346 0.68346 0.0
H1186 H 0.04568 0.72072 0.70039 0.0
C1187 C 0.13936 0.72716 0.74944 0.0
C1188 C 0.10646 0.73589 0.71551 0.0
H1189 H 0.06507 0.74675 0.71782 0.0
C1190 C 0.10641 0.73012 0.69851 0.0
C1191 C 0.09137 0.7419 0.72262 0.0
C1192 C 0.09083 0.74882 0.74061 0.0
C1193 C 0.09168 0.73024 0.68839 0.0
C1194 C 0.07668 0.7365 0.69541 0.0
C1195 C 0.07662 0.74196 0.7125 0.0
C1196 C 0.06108 0.738 0.68503 0.0
C1197 C 0.09224 0.72355 0.67031 0.0
C1198 C 0.06114 0.74877 0.67092 0.0
C1199 C 0.04639 0.7504 0.66125 0.0
C1200 C 0.03126 0.74131 0.66554 0.0
C1201 C 0.03122 0.7306 0.67977 0.0
C1202 C 0.04599 0.72902 0.68947 0.0
H1203 H 0.10306 0.71529 0.66838 0.0
H1204 H 0.08024 0.71638 0.66696 0.0
H1205 H 0.09383 0.73426 0.66136 0.0
H1206 H 0.07259 0.75605 0.66748 0.0
H1207 H 0.04685 0.7588 0.65042 0.0
H1208 H 0.01406 0.59249 0.52112 0.0
H1209 H 0.01518 0.61979 0.53579 0.0
H1210 H 0.96077 0.6161 0.54235 0.0
H1211 H 0.95956 0.58863 0.52802 0.0
H1212 H 0.99756 0.6498 0.52759 0.0
H1213 H 0.98014 0.62387 0.59138 0.0
H1214 H 0.98741 0.61089 0.57411 0.0
H1215 H 0.96603 0.61781 0.57407 0.0
C1216 C 0.00234 0.59746 0.52575 0.0
C1217 C 0.98674 0.58835 0.52351 0.0
C1218 C 0.003 0.61308 0.53403 0.0
C1219 C 0.98809 0.61982 0.54033 0.0
C1220 C 0.97244 0.61099 0.53777 0.0
H1221 H 0.97212 0.70924 0.60218 0.0
H1222 H 0.96816 0.6834 0.58519 0.0
C1223 C 0.97176 0.59538 0.52944 0.0
C1224 C 0.989 0.63601 0.54977 0.0
H1225 H 0.98346 0.65337 0.58927 0.0
C1226 C 0.99447 0.65062 0.54107 0.0
C1227 C 0.98488 0.63699 0.56732 0.0
C1228 C 0.9794 0.62156 0.57737 0.0
C1229 C 0.99588 0.66626 0.54947 0.0
C1230 C 0.99206 0.6672 0.56712 0.0
C1231 C 0.98637 0.65261 0.57575 0.0
C1232 C 0.99438 0.68309 0.57702 0.0
C1233 C 0.00121 0.68166 0.53932 0.0
C1234 C 0.01048 0.69136 0.57822 0.0
C1235 C 0.01278 0.70613 0.58786 0.0
C1236 C 0.99905 0.71283 0.59664 0.0
C1237 C 0.98296 0.70443 0.59555 0.0
C1238 C 0.98066 0.68967 0.58585 0.0
H1239 H 0.99872 0.67973 0.52544 0.0
H1240 H 0.99445 0.69281 0.54373 0.0
H1241 H 0.01507 0.68436 0.54102 0.0
H1242 H 0.02134 0.68628 0.57187 0.0
H1243 H 0.02537 0.71221 0.58852 0.0
H1244 H 0.75681 0.84924 0.22247 0.0
H1245 H 0.77911 0.86875 0.23394 0.0
H1246 H 0.74787 0.9105 0.22339 0.0
H1247 H 0.72542 0.89113 0.21235 0.0
H1248 H 0.79604 0.89533 0.21637 0.0
H1249 H 0.76231 0.91872 0.27325 0.0
H1250 H 0.75536 0.8998 0.26188 0.0
H1251 H 0.75035 0.92006 0.25378 0.0
C1252 C 0.75461 0.86255 0.22284 0.0
C1253 C 0.73935 0.86864 0.21651 0.0
C1254 C 0.76738 0.87367 0.2293 0.0
C1255 C 0.76503 0.89103 0.22972 0.0
C1256 C 0.74982 0.89712 0.22346 0.0
H1257 H 0.82107 0.98361 0.25034 0.0
H1258 H 0.80029 0.96075 0.2436 0.0
C1259 C 0.73708 0.88605 0.21697 0.0
C1260 C 0.77875 0.90292 0.23593 0.0
H1261 H 0.78726 0.93471 0.26465 0.0
C1262 C 0.79424 0.90381 0.22706 0.0
C1263 C 0.77632 0.91393 0.24988 0.0
C1264 C 0.76025 0.91301 0.26037 0.0
C1265 C 0.80712 0.91593 0.23131 0.0
C1266 C 0.80451 0.92724 0.24498 0.0
C1267 C 0.78919 0.92605 0.25414 0.0
C1268 C 0.81717 0.94092 0.24948 0.0
C1269 C 0.82313 0.91697 0.22071 0.0
C1270 C 0.83348 0.93732 0.25526 0.0
C1271 C 0.84543 0.95038 0.25909 0.0
C1272 C 0.84123 0.96725 0.25729 0.0
C1273 C 0.82475 0.97077 0.2518 0.0
C1274 C 0.81285 0.95772 0.24797 0.0
H1275 H 0.82159 0.90986 0.20849 0.0
H1276 H 0.8269 0.93025 0.21779 0.0
H1277 H 0.83363 0.91156 0.22802 0.0
H1278 H 0.83696 0.92443 0.25681 0.0
H1279 H 0.85797 0.94724 0.26339 0.0
H1280 H 0.73723 0.15932 0.29352 0.0
H1281 H 0.75212 0.13303 0.2956 0.0
H1282 H 0.79355 0.15482 0.26593 0.0
H1283 H 0.77903 0.18116 0.26414 0.0
H1284 H 0.763 0.11239 0.26831 0.0
H1285 H 0.81729 0.13637 0.30825 0.0
H1286 H 0.79792 0.14746 0.30611 0.0
H1287 H 0.81379 0.1488 0.28962 0.0
C1288 C 0.7496 0.15855 0.2876 0.0
C1289 C 0.75695 0.17233 0.27867 0.0
C1290 C 0.75803 0.14352 0.28873 0.0
C1291 C 0.77403 0.14209 0.28112 0.0
C1292 C 0.78135 0.15577 0.27214 0.0
H1293 H 0.84724 0.06789 0.26235 0.0
H1294 H 0.83059 0.09293 0.2648 0.0
C1295 C 0.77293 0.17075 0.27096 0.0
C1296 C 0.78294 0.12616 0.28205 0.0
H1297 H 0.82022 0.10976 0.29462 0.0
C1298 C 0.77542 0.11172 0.27424 0.0
C1299 C 0.79913 0.12537 0.2898 0.0
C1300 C 0.80746 0.14028 0.29907 0.0
C1301 C 0.78398 0.09667 0.27336 0.0
C1302 C 0.80036 0.09601 0.28074 0.0
C1303 C 0.80769 0.11033 0.28891 0.0
C1304 C 0.81038 0.08077 0.27957 0.0
C1305 C 0.77572 0.08179 0.26397 0.0
C1306 C 0.80464 0.0657 0.28726 0.0
C1307 C 0.81411 0.05134 0.28588 0.0
C1308 C 0.82955 0.05183 0.27683 0.0
C1309 C 0.83539 0.06705 0.26937 0.0
C1310 C 0.82591 0.08138 0.27077 0.0
H1311 H 0.76492 0.08546 0.25587 0.0
H1312 H 0.78509 0.0756 0.25575 0.0
H1313 H 0.77076 0.07245 0.2734 0.0
H1314 H 0.79284 0.06505 0.29438 0.0
H1315 H 0.8093 0.03985 0.29185 0.0
H1316 H 0.42457 0.95968 0.00396 0.0
H1317 H 0.39691 0.94486 0.00709 0.0
H1318 H 0.37305 0.98451 0.98012 0.0
H1319 H 0.40085 0.99927 0.97648 0.0
H1320 H 0.36827 0.95756 0.02375 0.0
H1321 H 0.35457 0.94114 0.95567 0.0
H1322 H 0.37567 0.94739 0.96316 0.0
H1323 H 0.36012 0.96289 0.9602 0.0
C1324 C 0.41351 0.96513 0.9984 0.0
C1325 C 0.41494 0.98061 0.98986 0.0
C1326 C 0.39769 0.9567 0.00032 0.0
C1327 C 0.38298 0.9635 0.99369 0.0
C1328 C 0.3843 0.97892 0.98511 0.0
H1329 H 0.27767 0.9227 0.99846 0.0
H1330 H 0.30305 0.94091 0.99303 0.0
C1331 C 0.40016 0.98741 0.98319 0.0
C1332 C 0.36625 0.95465 0.99643 0.0
H1333 H 0.33345 0.93335 0.97585 0.0
C1334 C 0.36062 0.95231 0.01328 0.0
C1335 C 0.35627 0.94795 0.98272 0.0
C1336 C 0.36195 0.94982 0.9644 0.0
C1337 C 0.34534 0.94325 0.01684 0.0
C1338 C 0.33562 0.93608 0.00318 0.0
C1339 C 0.34098 0.93883 0.98629 0.0
C1340 C 0.32026 0.92505 0.00626 0.0
C1341 C 0.33973 0.94146 0.0352 0.0
C1342 C 0.32162 0.90999 0.01523 0.0
C1343 C 0.3072 0.89959 0.01836 0.0
C1344 C 0.29113 0.904 0.01248 0.0
C1345 C 0.28985 0.91898 0.00323 0.0
C1346 C 0.30432 0.92939 9e-05 0.0
H1347 H 0.34577 0.95146 0.04347 0.0
H1348 H 0.3257 0.94195 0.03631 0.0
H1349 H 0.34353 0.92915 0.0401 0.0
H1350 H 0.33387 0.90624 0.01979 0.0
H1351 H 0.30868 0.8881 0.02542 0.0
H1352 H 0.25631 0.37526 0.32542 0.0
H1353 H 0.23494 0.39559 0.31903 0.0
H1354 H 0.2234 0.37007 0.27132 0.0
H1355 H 0.24456 0.34939 0.27778 0.0
H1356 H 0.23481 0.41674 0.28965 0.0
H1357 H 0.17626 0.37506 0.29406 0.0
H1358 H 0.19632 0.36954 0.30318 0.0
H1359 H 0.19285 0.36774 0.28055 0.0
C1360 C 0.24903 0.37378 0.31369 0.0
C1361 C 0.25206 0.36064 0.30215 0.0
C1362 C 0.23691 0.38548 0.31002 0.0
C1363 C 0.22748 0.38422 0.2948 0.0
C1364 C 0.23038 0.37111 0.28325 0.0
H1365 H 0.14986 0.44759 0.25375 0.0
H1366 H 0.16997 0.42547 0.25814 0.0
C1367 C 0.24257 0.35941 0.28689 0.0
C1368 C 0.21512 0.39708 0.29081 0.0
H1369 H 0.17279 0.40305 0.28536 0.0
C1370 C 0.22125 0.41377 0.28871 0.0
C1371 C 0.19748 0.3931 0.28948 0.0
C1372 C 0.19023 0.37542 0.29205 0.0
C1373 C 0.21017 0.42663 0.2853 0.0
C1374 C 0.19248 0.42273 0.28435 0.0
C1375 C 0.18637 0.40599 0.28616 0.0
C1376 C 0.18009 0.43595 0.28185 0.0
C1377 C 0.21756 0.44424 0.28255 0.0
C1378 C 0.17892 0.44898 0.29389 0.0
C1379 C 0.16749 0.46164 0.29142 0.0
C1380 C 0.15691 0.46144 0.27691 0.0
C1381 C 0.15786 0.44815 0.26504 0.0
C1382 C 0.16933 0.4355 0.26752 0.0
H1383 H 0.2312 0.44426 0.27895 0.0
H1384 H 0.21051 0.45071 0.27242 0.0
H1385 H 0.21658 0.45157 0.2946 0.0
H1386 H 0.18685 0.44936 0.30523 0.0
H1387 H 0.16701 0.47161 0.30087 0.0
H1388 H 0.12099 0.98694 0.48134 0.0
H1389 H 0.142 0.00952 0.48847 0.0
H1390 H 0.11403 0.04423 0.45864 0.0
H1391 H 0.09309 0.02167 0.45118 0.0
H1392 H 0.16164 0.02863 0.46397 0.0
H1393 H 0.12256 0.06898 0.50499 0.0
H1394 H 0.11663 0.0472 0.50047 0.0
H1395 H 0.11341 0.06296 0.48464 0.0
C1396 C 0.1193 0.99937 0.47627 0.0
C1397 C 0.10537 0.00248 0.46564 0.0
C1398 C 0.13126 0.01226 0.48045 0.0
C1399 C 0.12946 0.02855 0.47422 0.0
C1400 C 0.11547 0.0318 0.46383 0.0
H1401 H 0.19258 0.12102 0.48187 0.0
H1402 H 0.16992 0.09967 0.47581 0.0
C1403 C 0.1035 0.01889 0.4596 0.0
C1404 C 0.14277 0.04187 0.47782 0.0
H1405 H 0.15015 0.07977 0.49782 0.0
C1406 C 0.15917 0.03979 0.47142 0.0
C1407 C 0.13942 0.05645 0.48741 0.0
C1408 C 0.1221 0.05906 0.49492 0.0
C1409 C 0.17233 0.052 0.47423 0.0
C1410 C 0.16907 0.06649 0.48404 0.0
C1411 C 0.15262 0.06863 0.49033 0.0
C1412 C 0.18264 0.07946 0.48804 0.0
C1413 C 0.18951 0.04942 0.46635 0.0
C1414 C 0.19716 0.07523 0.49719 0.0
C1415 C 0.21016 0.08735 0.50059 0.0
C1416 C 0.2088 0.104 0.49506 0.0
C1417 C 0.19405 0.1083 0.48625 0.0
C1418 C 0.18108 0.09613 0.4828 0.0
H1419 H 0.1886 0.04039 0.45546 0.0
H1420 H 0.19545 0.06148 0.46176 0.0
H1421 H 0.19801 0.04424 0.47612 0.0
H1422 H 0.19845 0.06253 0.5017 0.0
H1423 H 0.22128 0.08365 0.50753 0.0
H1424 H 0.73023 0.15938 0.7045 0.0
H1425 H 0.70686 0.13936 0.71186 0.0
H1426 H 0.74276 0.10599 0.73319 0.0
H1427 H 0.76617 0.12583 0.72579 0.0
H1428 H 0.70221 0.10628 0.70046 0.0
H1429 H 0.7074 0.10887 0.77114 0.0
H1430 H 0.71754 0.12456 0.75754 0.0
H1431 H 0.72703 0.1047 0.76065 0.0
C1432 C 0.73314 0.14778 0.71077 0.0
C1433 C 0.75006 0.14422 0.71462 0.0
C1434 C 0.71978 0.13641 0.71504 0.0
C1435 C 0.72306 0.12132 0.72331 0.0
C1436 C 0.73991 0.11775 0.7272 0.0
H1437 H 0.66774 0.03 0.75119 0.0
H1438 H 0.68866 0.05305 0.746 0.0
C1439 C 0.75327 0.12911 0.72295 0.0
C1440 C 0.70899 0.10889 0.72706 0.0
H1441 H 0.68999 0.08633 0.7593 0.0
C1442 C 0.69939 0.10203 0.71334 0.0
C1443 C 0.70539 0.10339 0.74387 0.0
C1444 C 0.71477 0.11086 0.75917 0.0
C1445 C 0.68664 0.08939 0.71592 0.0
C1446 C 0.68325 0.08367 0.7327 0.0
C1447 C 0.69266 0.09072 0.74645 0.0
C1448 C 0.67036 0.06998 0.73618 0.0
C1449 C 0.67731 0.08184 0.70061 0.0
C1450 C 0.65311 0.07198 0.73261 0.0
C1451 C 0.6411 0.05882 0.73553 0.0
C1452 C 0.64615 0.04345 0.74214 0.0
C1453 C 0.66342 0.04163 0.74601 0.0
C1454 C 0.6754 0.0548 0.7431 0.0
H1455 H 0.68397 0.08494 0.68845 0.0
H1456 H 0.67583 0.06796 0.70171 0.0
H1457 H 0.66443 0.08688 0.69996 0.0
H1458 H 0.64893 0.08372 0.72754 0.0
H1459 H 0.62789 0.06066 0.73251 0.0
H1460 H 0.40808 0.00969 0.49431 0.0
H1461 H 0.38131 0.02411 0.49409 0.0
H1462 H 0.39751 0.05284 0.53863 0.0
H1463 H 0.42422 0.03835 0.5391 0.0
H1464 H 0.35601 0.02662 0.52027 0.0
H1465 H 0.38604 0.08879 0.50302 0.0
H1466 H 0.39691 0.06944 0.50073 0.0
H1467 H 0.3949 0.07903 0.52144 0.0
C1468 C 0.40587 0.01893 0.50419 0.0
C1469 C 0.41835 0.02295 0.51666 0.0
C1470 C 0.39061 0.0272 0.50399 0.0
C1471 C 0.38758 0.03971 0.51618 0.0
C1472 C 0.39977 0.04346 0.5289 0.0
H1473 H 0.30528 0.1081 0.52867 0.0
H1474 H 0.33091 0.09226 0.53245 0.0
C1475 C 0.41503 0.03519 0.52913 0.0
C1476 C 0.37171 0.04894 0.51545 0.0
H1477 H 0.3566 0.08786 0.50888 0.0
C1478 C 0.35611 0.04 0.51777 0.0
C1479 C 0.37192 0.06641 0.51224 0.0
C1480 C 0.38831 0.07651 0.50907 0.0
C1481 C 0.34067 0.04811 0.51711 0.0
C1482 C 0.34087 0.06555 0.51369 0.0
C1483 C 0.35649 0.0745 0.51153 0.0
C1484 C 0.32501 0.07468 0.51182 0.0
C1485 C 0.32431 0.03799 0.52032 0.0
C1486 C 0.31327 0.07013 0.49889 0.0
C1487 C 0.29862 0.07913 0.4967 0.0
C1488 C 0.29549 0.09295 0.50734 0.0
C1489 C 0.30729 0.0975 0.52028 0.0
C1490 C 0.32194 0.08847 0.52246 0.0
H1491 H 0.32657 0.02628 0.52744 0.0
H1492 H 0.31519 0.04544 0.52765 0.0
H1493 H 0.31835 0.03435 0.50788 0.0
H1494 H 0.31558 0.05978 0.49028 0.0
H1495 H 0.28986 0.07533 0.48655 0.0
H1496 H 0.59715 0.51043 0.52528 0.0
H1497 H 0.61493 0.48755 0.51634 0.0
H1498 H 0.62992 0.48034 0.56873 0.0
H1499 H 0.61185 0.50286 0.57782 0.0
H1500 H 0.65012 0.48707 0.52125 0.0
H1501 H 0.6171 0.43237 0.5524 0.0
H1502 H 0.60714 0.4521 0.54929 0.0
H1503 H 0.6219 0.44979 0.56659 0.0
C1504 C 0.60396 0.50375 0.53493 0.0
C1505 C 0.60309 0.50846 0.55226 0.0
C1506 C 0.61418 0.49075 0.5298 0.0
C1507 C 0.62358 0.48213 0.5419 0.0
C1508 C 0.62254 0.48662 0.55922 0.0
H1509 H 0.70194 0.40991 0.54041 0.0
H1510 H 0.68011 0.42954 0.54793 0.0
C1511 C 0.61236 0.49963 0.56436 0.0
C1512 C 0.63537 0.46922 0.53631 0.0
H1513 H 0.64485 0.42816 0.5415 0.0
C1514 C 0.64889 0.47414 0.52552 0.0
C1515 C 0.63375 0.4524 0.542 0.0
C1516 C 0.61911 0.44627 0.55309 0.0
C1517 C 0.66113 0.46281 0.52063 0.0
C1518 C 0.6596 0.44602 0.52643 0.0
C1519 C 0.64598 0.44104 0.53708 0.0
C1520 C 0.67224 0.43356 0.52183 0.0
C1521 C 0.67589 0.46906 0.50973 0.0
C1522 C 0.67478 0.42905 0.50468 0.0
C1523 C 0.68728 0.4179 0.50033 0.0
C1524 C 0.69738 0.41094 0.51307 0.0
C1525 C 0.69444 0.41509 0.53029 0.0
C1526 C 0.68195 0.42628 0.53461 0.0
H1527 H 0.67743 0.48301 0.50992 0.0
H1528 H 0.68795 0.46381 0.51413 0.0
H1529 H 0.67361 0.46496 0.4963 0.0
H1530 H 0.66718 0.43426 0.49465 0.0
H1531 H 0.68911 0.41486 0.48697 0.0
H1532 H 0.73883 0.29817 0.3335 0.0
H1533 H 0.73865 0.31389 0.36043 0.0
H1534 H 0.70881 0.27349 0.38377 0.0
H1535 H 0.70923 0.25745 0.35689 0.0
H1536 H 0.70945 0.32397 0.37917 0.0
H1537 H 0.74999 0.28203 0.41658 0.0
H1538 H 0.74907 0.28141 0.39351 0.0
H1539 H 0.73185 0.27224 0.40582 0.0
C1540 C 0.73239 0.29253 0.3444 0.0
C1541 C 0.72416 0.2765 0.3431 0.0
C1542 C 0.7322 0.30158 0.35974 0.0
C1543 C 0.72388 0.29477 0.37411 0.0
C1544 C 0.71549 0.27886 0.37287 0.0
H1545 H 0.72217 0.33801 0.47754 0.0
H1546 H 0.71659 0.31962 0.4527 0.0
C1547 C 0.71562 0.26979 0.35748 0.0
C1548 C 0.72395 0.30454 0.39028 0.0
H1549 H 0.74021 0.30586 0.43078 0.0
C1550 C 0.71608 0.31998 0.39051 0.0
C1551 C 0.73251 0.29921 0.40504 0.0
C1552 C 0.74146 0.28288 0.40532 0.0
C1553 C 0.71677 0.3304 0.40505 0.0
C1554 C 0.72588 0.32538 0.4196 0.0
C1555 C 0.73327 0.30968 0.41958 0.0
C1556 C 0.72874 0.33667 0.43458 0.0
C1557 C 0.70776 0.34669 0.40469 0.0
C1558 C 0.73758 0.35225 0.43263 0.0
C1559 C 0.74077 0.36277 0.44674 0.0
C1560 C 0.7353 0.35786 0.46313 0.0
C1561 C 0.72651 0.34219 0.46508 0.0
C1562 C 0.72331 0.33166 0.45092 0.0
H1563 H 0.69734 0.34626 0.39507 0.0
H1564 H 0.70236 0.34966 0.4174 0.0
H1565 H 0.71697 0.35706 0.40115 0.0
H1566 H 0.74223 0.35619 0.42019 0.0
H1567 H 0.74767 0.37469 0.44479 0.0
H1568 H 0.53894 0.04136 0.92867 0.0
H1569 H 0.55464 0.04043 0.90175 0.0
H1570 H 0.51869 0.00234 0.88243 0.0
H1571 H 0.50301 0.00305 0.90936 0.0
H1572 H 0.56953 0.01173 0.8885 0.0
H1573 H 0.52259 0.03627 0.84303 0.0
H1574 H 0.521 0.03916 0.86589 0.0
H1575 H 0.51457 0.01932 0.85623 0.0
C1576 C 0.53434 0.03282 0.91867 0.0
C1577 C 0.51974 0.02224 0.92118 0.0
C1578 C 0.54327 0.03237 0.90328 0.0
C1579 C 0.53773 0.02145 0.89005 0.0
C1580 C 0.52298 0.01111 0.89235 0.0
H1581 H 0.58028 0.99309 0.79221 0.0
H1582 H 0.56246 0.99617 0.81755 0.0
C1583 C 0.51404 0.01154 0.90775 0.0
C1584 C 0.54805 0.02005 0.87434 0.0
H1585 H 0.54717 0.02473 0.83099 0.0
C1586 C 0.56469 0.01467 0.87593 0.0
C1587 C 0.54162 0.02377 0.85797 0.0
C1588 C 0.52402 0.03009 0.85561 0.0
C1589 C 0.57504 0.01269 0.86155 0.0
C1590 C 0.56867 0.01651 0.84518 0.0
C1591 C 0.552 0.02183 0.84357 0.0
C1592 C 0.5792 0.01509 0.82961 0.0
C1593 C 0.59256 0.00615 0.86398 0.0
C1594 C 0.59434 0.02493 0.82787 0.0
C1595 C 0.60457 0.02317 0.81346 0.0
C1596 C 0.59978 0.01161 0.80045 0.0
C1597 C 0.58437 0.00206 0.80203 0.0
C1598 C 0.57416 0.00382 0.81648 0.0
H1599 H 0.59378 0.99971 0.87645 0.0
H1600 H 0.59564 0.99723 0.85359 0.0
H1601 H 0.60211 0.01685 0.86371 0.0
H1602 H 0.59828 0.03395 0.8377 0.0
H1603 H 0.61628 0.03082 0.81258 0.0
H1604 H 0.28072 0.23971 0.34336 0.0
H1605 H 0.27248 0.21632 0.36233 0.0
H1606 H 0.29104 0.24539 0.40578 0.0
H1607 H 0.29898 0.26886 0.38704 0.0
H1608 H 0.29413 0.19896 0.38522 0.0
H1609 H 0.2422 0.22966 0.41943 0.0
H1610 H 0.25055 0.2372 0.39926 0.0
H1611 H 0.26183 0.24208 0.41882 0.0
C1612 C 0.28287 0.24116 0.35698 0.0
C1613 C 0.29049 0.25613 0.36371 0.0
C1614 C 0.27824 0.22778 0.36777 0.0
C1615 C 0.28096 0.22923 0.38546 0.0
C1616 C 0.2886 0.24412 0.39219 0.0
H1617 H 0.27135 0.17154 0.47678 0.0
H1618 H 0.27625 0.19233 0.45434 0.0
C1619 C 0.29329 0.25745 0.38144 0.0
C1620 C 0.27628 0.21509 0.39697 0.0
H1621 H 0.25229 0.20481 0.43197 0.0
C1622 C 0.28484 0.20011 0.39532 0.0
C1623 C 0.26413 0.21668 0.41009 0.0
C1624 C 0.25401 0.23221 0.41196 0.0
C1625 C 0.28212 0.18692 0.40698 0.0
C1626 C 0.27031 0.18871 0.4204 0.0
C1627 C 0.26139 0.20351 0.42171 0.0
C1628 C 0.26758 0.17576 0.43375 0.0
C1629 C 0.29239 0.17148 0.40525 0.0
C1630 C 0.26099 0.15954 0.42961 0.0
C1631 C 0.25821 0.14756 0.44244 0.0
C1632 C 0.26187 0.15166 0.45963 0.0
C1633 C 0.26842 0.16794 0.46368 0.0
C1634 C 0.27121 0.17986 0.45088 0.0
H1635 H 0.30346 0.17361 0.39661 0.0
H1636 H 0.29709 0.16751 0.41792 0.0
H1637 H 0.28421 0.16101 0.39986 0.0
H1638 H 0.25781 0.15622 0.41651 0.0
H1639 H 0.25306 0.13517 0.4389 0.0
H1640 H 0.5096 0.49491 0.89259 0.0
H1641 H 0.48594 0.50279 0.87448 0.0
H1642 H 0.45493 0.46128 0.89422 0.0
H1643 H 0.47853 0.45326 0.91231 0.0
H1644 H 0.47089 0.48237 0.84927 0.0
H1645 H 0.42303 0.5003 0.89723 0.0
H1646 H 0.44524 0.4986 0.90247 0.0
H1647 H 0.43145 0.48002 0.90063 0.0
C1648 C 0.49771 0.48751 0.89315 0.0
C1649 C 0.49595 0.47343 0.90387 0.0
C1650 C 0.48418 0.49209 0.88286 0.0
C1651 C 0.46862 0.48274 0.88315 0.0
C1652 C 0.4667 0.46889 0.89408 0.0
H1653 H 0.3776 0.47969 0.8205 0.0
H1654 H 0.39927 0.47542 0.84235 0.0
C1655 C 0.48021 0.46432 0.9044 0.0
C1656 C 0.45492 0.48668 0.87102 0.0
H1657 H 0.41342 0.49717 0.86843 0.0
C1658 C 0.45837 0.48575 0.85345 0.0
C1659 C 0.43856 0.49094 0.87653 0.0
C1660 C 0.43434 0.49269 0.89524 0.0
C1661 C 0.44583 0.48868 0.84123 0.0
C1662 C 0.42947 0.49296 0.84672 0.0
C1663 C 0.42599 0.4939 0.86429 0.0
C1664 C 0.41583 0.49634 0.83434 0.0
C1665 C 0.45007 0.48675 0.82252 0.0
C1666 C 0.41778 0.50978 0.82291 0.0
C1667 C 0.40548 0.51223 0.8104 0.0
C1668 C 0.39092 0.50133 0.80915 0.0
C1669 C 0.38869 0.48826 0.82106 0.0
C1670 C 0.40104 0.48581 0.83357 0.0
H1671 H 0.46161 0.47946 0.82061 0.0
H1672 H 0.43932 0.48038 0.81544 0.0
H1673 H 0.45253 0.49938 0.81689 0.0
H1674 H 0.42896 0.51823 0.82351 0.0
H1675 H 0.40754 0.52249 0.80152 0.0
H1676 H 0.69323 0.74267 0.15947 0.0
H1677 H 0.70159 0.72009 0.14029 0.0
H1678 H 0.73384 0.75552 0.11241 0.0
H1679 H 0.72553 0.77813 0.13143 0.0
H1680 H 0.69619 0.71837 0.10571 0.0
H1681 H 0.76509 0.71686 0.11971 0.0
H1682 H 0.7505 0.72729 0.13353 0.0
H1683 H 0.75857 0.73752 0.11458 0.0
C1684 C 0.70218 0.74563 0.1493 0.0
C1685 C 0.70874 0.7622 0.14699 0.0
C1686 C 0.707 0.7327 0.13842 0.0
C1687 C 0.71853 0.73607 0.12508 0.0
C1688 C 0.72527 0.75254 0.12288 0.0
H1689 H 0.72967 0.68662 0.02871 0.0
H1690 H 0.72305 0.70456 0.05297 0.0
C1691 C 0.72048 0.76547 0.13376 0.0
C1692 C 0.72254 0.72269 0.11267 0.0
H1693 H 0.75543 0.70324 0.09375 0.0
C1694 C 0.70913 0.71491 0.10324 0.0
C1695 C 0.73939 0.71803 0.10961 0.0
C1696 C 0.7542 0.72524 0.12001 0.0
C1697 C 0.71218 0.70312 0.09034 0.0
C1698 C 0.72911 0.6992 0.08661 0.0
C1699 C 0.74247 0.70642 0.09651 0.0
C1700 C 0.73323 0.6882 0.072 0.0
C1701 C 0.69724 0.69501 0.08077 0.0
C1702 C 0.74156 0.67323 0.07462 0.0
C1703 C 0.74545 0.66293 0.06073 0.0
C1704 C 0.74119 0.66752 0.04398 0.0
C1705 C 0.73304 0.68264 0.04143 0.0
C1706 C 0.72916 0.69289 0.0553 0.0
H1707 H 0.6853 0.69555 0.08825 0.0
H1708 H 0.69544 0.70183 0.06863 0.0
H1709 H 0.69945 0.68167 0.07763 0.0
H1710 H 0.74491 0.66946 0.08743 0.0
H1711 H 0.75179 0.6514 0.06312 0.0
H1712 H 0.01966 0.0258 0.13584 0.0
H1713 H 0.99741 0.0179 0.15645 0.0
H1714 H 0.96432 0.05302 0.1334 0.0
H1715 H 0.9865 0.06095 0.11273 0.0
H1716 H 0.98331 0.03901 0.17985 0.0
H1717 H 0.93325 0.01083 0.13699 0.0
H1718 H 0.955 0.01456 0.1302 0.0
H1719 H 0.94079 0.03158 0.13096 0.0
C1720 C 0.00761 0.03178 0.13511 0.0
C1721 C 0.00484 0.044 0.12266 0.0
C1722 C 0.99489 0.0272 0.14684 0.0
C1723 C 0.97913 0.03471 0.14633 0.0
C1724 C 0.97623 0.04677 0.13378 0.0
H1725 H 0.89185 0.03298 0.21424 0.0
H1726 H 0.91223 0.03852 0.1911 0.0
C1727 C 0.98893 0.05131 0.122 0.0
C1728 C 0.96621 0.03074 0.15964 0.0
H1729 H 0.92526 0.01592 0.16584 0.0
C1730 C 0.97066 0.03386 0.17679 0.0
C1731 C 0.94968 0.02412 0.1556 0.0
C1732 C 0.9444 0.01992 0.13746 0.0
C1733 C 0.95896 0.03073 0.19002 0.0
C1734 C 0.94246 0.02408 0.186 0.0
C1735 C 0.93795 0.02102 0.16885 0.0
C1736 C 0.92976 0.02015 0.1995 0.0
C1737 C 0.96427 0.03488 0.20818 0.0
C1738 C 0.93274 0.00776 0.21164 0.0
C1739 C 0.92116 0.00457 0.22486 0.0
C1740 C 0.90633 0.01369 0.22614 0.0
C1741 C 0.90317 0.02579 0.21366 0.0
C1742 C 0.91478 0.02896 0.20042 0.0
H1743 H 0.97574 0.04355 0.2087 0.0
H1744 H 0.95383 0.0407 0.21527 0.0
H1745 H 0.9673 0.02312 0.21482 0.0
H1746 H 0.9441 0.00063 0.21097 0.0
H1747 H 0.92394 0.99508 0.23418 0.0
H1748 H 0.30696 0.76417 0.15332 0.0
H1749 H 0.29702 0.78592 0.13428 0.0
H1750 H 0.24897 0.75813 0.12836 0.0
H1751 H 0.25881 0.73635 0.14733 0.0
H1752 H 0.28729 0.78157 0.10062 0.0
H1753 H 0.23412 0.80543 0.13877 0.0
H1754 H 0.25012 0.79264 0.14788 0.0
H1755 H 0.23286 0.78305 0.13563 0.0
C1756 C 0.29425 0.76272 0.14801 0.0
C1757 C 0.28366 0.74854 0.15186 0.0
C1758 C 0.28857 0.77519 0.13721 0.0
C1759 C 0.27218 0.77376 0.1301 0.0
C1760 C 0.26151 0.75971 0.13403 0.0
H1761 H 0.21815 0.82673 0.05218 0.0
H1762 H 0.22713 0.8075 0.07439 0.0
C1763 C 0.26717 0.74725 0.14487 0.0
C1764 C 0.26665 0.78641 0.1177 0.0
H1765 H 0.23586 0.81415 0.1097 0.0
C1766 C 0.27613 0.7888 0.10267 0.0
C1767 C 0.25204 0.79576 0.12038 0.0
C1768 C 0.24177 0.79424 0.13661 0.0
C1769 C 0.27121 0.80005 0.09007 0.0
C1770 C 0.25654 0.80931 0.0927 0.0
C1771 C 0.24708 0.80699 0.10774 0.0
C1772 C 0.25081 0.8214 0.07986 0.0
C1773 C 0.2815 0.80162 0.07385 0.0
C1774 C 0.26101 0.83574 0.07586 0.0
C1775 C 0.25594 0.84674 0.0632 0.0
C1776 C 0.24053 0.84363 0.05434 0.0
C1777 C 0.23012 0.82946 0.05871 0.0
C1778 C 0.23521 0.81848 0.0714 0.0
H1779 H 0.28992 0.79093 0.07212 0.0
H1780 H 0.27306 0.80224 0.06251 0.0
H1781 H 0.28962 0.81338 0.0744 0.0
H1782 H 0.27298 0.83835 0.08245 0.0
H1783 H 0.26422 0.85757 0.06022 0.0
H1784 H 0.00114 0.50376 0.09815 0.0
H1785 H 0.01408 0.5035 0.12663 0.0
H1786 H 0.05087 0.46917 0.10855 0.0
H1787 H 0.0379 0.46913 0.08011 0.0
H1788 H 0.02004 0.47545 0.14894 0.0
H1789 H 0.07968 0.50975 0.12859 0.0
H1790 H 0.06048 0.5092 0.11588 0.0
H1791 H 0.07361 0.49137 0.11614 0.0
C1792 C 0.01185 0.49597 0.10028 0.0
C1793 C 0.01857 0.48656 0.08681 0.0
C1794 C 0.01926 0.4959 0.11653 0.0
C1795 C 0.03356 0.48651 0.11959 0.0
C1796 C 0.04003 0.47675 0.10634 0.0
H1797 H 0.10138 0.47779 0.20632 0.0
H1798 H 0.08659 0.47457 0.17889 0.0
C1799 C 0.03262 0.47678 0.09009 0.0
C1800 C 0.04189 0.48714 0.13657 0.0
H1801 H 0.07875 0.49975 0.15694 0.0
C1802 C 0.03286 0.48078 0.15074 0.0
C1803 C 0.05862 0.49409 0.13881 0.0
C1804 C 0.06867 0.50163 0.1241 0.0
C1805 C 0.04024 0.48095 0.16711 0.0
C1806 C 0.05694 0.48799 0.16937 0.0
C1807 C 0.06596 0.49432 0.15516 0.0
C1808 C 0.0653 0.48917 0.18636 0.0
C1809 C 0.03021 0.47329 0.18176 0.0
C1810 C 0.05825 0.49847 0.19966 0.0
C1811 C 0.06663 0.50028 0.21538 0.0
C1812 C 0.08233 0.49296 0.21804 0.0
C1813 C 0.08931 0.48358 0.20471 0.0
C1814 C 0.08089 0.48173 0.18902 0.0
H1815 H 0.01989 0.46436 0.17716 0.0
H1816 H 0.03856 0.46656 0.19058 0.0
H1817 H 0.02425 0.48343 0.18908 0.0
H1818 H 0.04644 0.50464 0.19776 0.0
H1819 H 0.06096 0.50768 0.22534 0.0
H1820 H 0.35907 0.73604 0.24391 0.0
H1821 H 0.37895 0.74413 0.26696 0.0
H1822 H 0.37198 0.6947 0.28873 0.0
H1823 H 0.35175 0.68662 0.26596 0.0
H1824 H 0.3716 0.72168 0.31301 0.0
H1825 H 0.42755 0.72666 0.26981 0.0
H1826 H 0.40991 0.73876 0.26355 0.0
H1827 H 0.40763 0.71621 0.26354 0.0
C1828 C 0.36159 0.72695 0.25372 0.0
C1829 C 0.35391 0.71065 0.25304 0.0
C1830 C 0.37307 0.73155 0.26678 0.0
C1831 C 0.37711 0.71992 0.27937 0.0
C1832 C 0.3691 0.70381 0.27904 0.0
H1833 H 0.46419 0.72375 0.34723 0.0
H1834 H 0.44188 0.71583 0.32651 0.0
C1835 C 0.35765 0.69919 0.26597 0.0
C1836 C 0.38992 0.72443 0.29271 0.0
H1837 H 0.43203 0.73521 0.29857 0.0
C1838 C 0.38482 0.72465 0.30989 0.0
C1839 C 0.40718 0.72807 0.28857 0.0
C1840 C 0.4135 0.7273 0.27039 0.0
C1841 C 0.39652 0.72864 0.32306 0.0
C1842 C 0.41369 0.73264 0.31887 0.0
C1843 C 0.41882 0.73223 0.30171 0.0
C1844 C 0.42667 0.7371 0.33209 0.0
C1845 C 0.39049 0.72825 0.34135 0.0
C1846 C 0.42549 0.7517 0.34207 0.0
C1847 C 0.43823 0.75628 0.35393 0.0
C1848 C 0.4524 0.74637 0.35595 0.0
C1849 C 0.45343 0.73166 0.34603 0.0
C1850 C 0.44071 0.72711 0.33416 0.0
H1851 H 0.37806 0.72117 0.34266 0.0
H1852 H 0.39993 0.72245 0.34976 0.0
H1853 H 0.38891 0.74131 0.34591 0.0
H1854 H 0.41489 0.75973 0.34045 0.0
H1855 H 0.43707 0.76772 0.36132 0.0
H1856 H 0.0021 0.41162 0.99837 0.0
H1857 H 0.00355 0.38474 0.98326 0.0
H1858 H 0.97028 0.40225 0.94404 0.0
H1859 H 0.9683 0.42899 0.95935 0.0
H1860 H 0.96248 0.3689 0.95422 0.0
H1861 H 0.03105 0.37959 0.93908 0.0
H1862 H 0.02595 0.38099 0.9614 0.0
H1863 H 0.0181 0.39614 0.94679 0.0
C1864 C 0.99487 0.40967 0.98667 0.0
C1865 C 0.98517 0.42251 0.98 0.0
C1866 C 0.99587 0.39436 0.97796 0.0
C1867 C 0.98727 0.39163 0.96239 0.0
C1868 C 0.97712 0.40417 0.95599 0.0
H1869 H 0.00668 0.31934 0.88295 0.0
H1870 H 0.00275 0.34442 0.9004 0.0
C1871 C 0.9761 0.41948 0.96469 0.0
C1872 C 0.98916 0.37589 0.95252 0.0
H1873 H 0.01829 0.35314 0.93133 0.0
C1874 C 0.97467 0.36541 0.94923 0.0
C1875 C 0.00506 0.37152 0.94585 0.0
C1876 C 0.02092 0.38269 0.9483 0.0
C1877 C 0.97567 0.35059 0.9395 0.0
C1878 C 0.99163 0.34607 0.93312 0.0
C1879 C 0.0061 0.35659 0.93636 0.0
C1880 C 0.99357 0.33074 0.92258 0.0
C1881 C 0.95958 0.34012 0.9358 0.0
C1882 C 0.98981 0.31471 0.92932 0.0
C1883 C 0.99201 0.30032 0.91937 0.0
C1884 C 0.99812 0.30171 0.90252 0.0
C1885 C 0.00193 0.3178 0.89586 0.0
C1886 C 0.99971 0.33216 0.90581 0.0
H1887 H 0.94803 0.34731 0.93807 0.0
H1888 H 0.95939 0.3355 0.92237 0.0
H1889 H 0.95899 0.32905 0.94434 0.0
H1890 H 0.98536 0.31332 0.94235 0.0
H1891 H 0.98903 0.28811 0.92492 0.0
H1892 H 0.6513 0.7911 0.26087 0.0
H1893 H 0.63026 0.78238 0.28247 0.0
H1894 H 0.59056 0.80265 0.25191 0.0
H1895 H 0.6113 0.81075 0.22998 0.0
H1896 H 0.60889 0.80174 0.30128 0.0
H1897 H 0.57136 0.75551 0.26157 0.0
H1898 H 0.59213 0.76384 0.25533 0.0
H1899 H 0.57364 0.77583 0.25186 0.0
C1900 C 0.63805 0.79348 0.25863 0.0
C1901 C 0.63298 0.80156 0.24365 0.0
C1902 C 0.62607 0.7886 0.27104 0.0
C1903 C 0.60882 0.79162 0.26866 0.0
C1904 C 0.60376 0.79987 0.25385 0.0
H1905 H 0.51585 0.7827 0.32583 0.0
H1906 H 0.53881 0.78885 0.3055 0.0
C1907 C 0.61568 0.8047 0.24143 0.0
C1908 C 0.5961 0.78657 0.28183 0.0
H1909 H 0.55859 0.76406 0.2877 0.0
C1910 C 0.59798 0.79336 0.29838 0.0
C1911 C 0.58192 0.77559 0.27802 0.0
C1912 C 0.5797 0.76713 0.26078 0.0
C1913 C 0.58573 0.78992 0.31106 0.0
C1914 C 0.57133 0.77932 0.30708 0.0
C1915 C 0.56961 0.77228 0.29065 0.0
C1916 C 0.55765 0.77571 0.31965 0.0
C1917 C 0.58796 0.79804 0.32845 0.0
C1918 C 0.56066 0.76619 0.33426 0.0
C1919 C 0.54755 0.76259 0.3459 0.0
C1920 C 0.53121 0.76847 0.34309 0.0
C1921 C 0.52828 0.77802 0.32841 0.0
C1922 C 0.54137 0.78153 0.31676 0.0
H1923 H 0.59808 0.80825 0.3285 0.0
H1924 H 0.57588 0.80331 0.33279 0.0
H1925 H 0.5915 0.78841 0.33783 0.0
H1926 H 0.57311 0.76141 0.33658 0.0
H1927 H 0.55021 0.75518 0.35706 0.0
H1928 H 0.01009 0.11436 0.02695 0.0
H1929 H 0.00142 0.1342 0.00522 0.0
H1930 H 0.05167 0.13481 0.98335 0.0
H1931 H 0.06049 0.11508 0.00508 0.0
H1932 H 0.01581 0.16645 1e-05 0.0
H1933 H 0.02078 0.12712 0.94153 0.0
H1934 H 0.02022 0.11832 0.96275 0.0
H1935 H 0.03957 0.12811 0.95462 0.0
C1936 C 0.01929 0.11869 0.01749 0.0
C1937 C 0.03599 0.11313 0.01774 0.0
C1938 C 0.01429 0.12996 0.00504 0.0
C1939 C 0.02583 0.13581 0.99255 0.0
C1940 C 0.04245 0.13016 0.99264 0.0
H1941 H 0.0254 0.21089 0.91314 0.0
H1942 H 0.0324 0.18887 0.93327 0.0
C1943 C 0.04746 0.11888 0.00507 0.0
C1944 C 0.02079 0.14858 0.98008 0.0
H1945 H 0.01697 0.15627 0.93738 0.0
C1946 C 0.01593 0.1642 0.98632 0.0
C1947 C 0.02105 0.1456 0.96223 0.0
C1948 C 0.02553 0.12883 0.95485 0.0
C1949 C 0.01165 0.17707 0.97518 0.0
C1950 C 0.01196 0.17412 0.95733 0.0
C1951 C 0.01676 0.15848 0.95108 0.0
C1952 C 0.00751 0.1872 0.94495 0.0
C1953 C 0.00725 0.19386 0.98259 0.0
C1954 C 0.99111 0.19337 0.9447 0.0
C1955 C 0.98706 0.20597 0.93324 0.0
C1956 C 0.99933 0.21257 0.92175 0.0
C1957 C 0.01567 0.20613 0.92185 0.0
C1958 C 0.01969 0.19353 0.93332 0.0
H1959 H 0.0116 0.19538 0.99606 0.0
H1960 H 0.01304 0.20435 0.97495 0.0
H1961 H 0.99325 0.19488 0.98235 0.0
H1962 H 0.98143 0.18843 0.95337 0.0
H1963 H 0.97434 0.21056 0.93343 0.0
H1964 H 0.35716 0.3191 0.2478 0.0
H1965 H 0.37618 0.30992 0.22527 0.0
H1966 H 0.36749 0.25845 0.24096 0.0
H1967 H 0.34863 0.26752 0.2637 0.0
H1968 H 0.40609 0.29222 0.23146 0.0
H1969 H 0.36104 0.25641 0.18842 0.0
H1970 H 0.35412 0.27141 0.20406 0.0
H1971 H 0.35982 0.25086 0.21063 0.0
C1972 C 0.35925 0.30582 0.24645 0.0
C1973 C 0.35142 0.29405 0.25761 0.0
C1974 C 0.37004 0.3006 0.23351 0.0
C1975 C 0.3731 0.28351 0.23136 0.0
C1976 C 0.36504 0.27167 0.2422 0.0
H1977 H 0.44182 0.2286 0.16749 0.0
H1978 H 0.4197 0.237 0.18732 0.0
C1979 C 0.35425 0.27688 0.25518 0.0
C1980 C 0.3857 0.27825 0.21861 0.0
H1981 H 0.39044 0.25467 0.18245 0.0
C1982 C 0.40267 0.28409 0.22068 0.0
C1983 C 0.38118 0.26753 0.20468 0.0
C1984 C 0.36304 0.26126 0.20166 0.0
C1985 C 0.41535 0.27932 0.20931 0.0
C1986 C 0.41083 0.26873 0.19525 0.0
C1987 C 0.39385 0.26283 0.19321 0.0
C1988 C 0.42362 0.26364 0.18259 0.0
C1989 C 0.43353 0.28533 0.21271 0.0
C1990 C 0.43287 0.2758 0.17307 0.0
C1991 C 0.44557 0.27106 0.16183 0.0
C1992 C 0.44914 0.25403 0.15974 0.0
C1993 C 0.43943 0.24182 0.16885 0.0
C1994 C 0.42678 0.24659 0.18017 0.0
H1995 H 0.43547 0.28933 0.22624 0.0
H1996 H 0.44246 0.27535 0.20971 0.0
H1997 H 0.43677 0.29632 0.20451 0.0
H1998 H 0.43035 0.289 0.17444 0.0
H1999 H 0.45268 0.28078 0.15488 0.0
H2000 H 0.54305 0.37771 0.9874 0.0
H2001 H 0.53527 0.35826 0.0104 0.0
H2002 H 0.51735 0.39931 0.04058 0.0
H2003 H 0.52458 0.41883 0.01736 0.0
H2004 H 0.54728 0.35886 0.04399 0.0
H2005 H 0.4772 0.36461 0.04182 0.0
H2006 H 0.49102 0.37196 0.02479 0.0
H2007 H 0.48948 0.3841 0.04412 0.0
C2008 C 0.53721 0.38259 0.99882 0.0
C2009 C 0.53431 0.39981 0.00048 0.0
C2010 C 0.5329 0.37147 0.012 0.0
C2011 C 0.52554 0.37731 0.02709 0.0
C2012 C 0.52275 0.3945 0.02891 0.0
H2013 H 0.493 0.32281 0.11892 0.0
H2014 H 0.50028 0.3449 0.09817 0.0
C2015 C 0.52706 0.40566 0.01571 0.0
C2016 C 0.5212 0.36536 0.04102 0.0
H2017 H 0.48798 0.34779 0.06374 0.0
C2018 C 0.53432 0.35645 0.04832 0.0
C2019 C 0.50429 0.36231 0.04668 0.0
C2020 C 0.48963 0.37112 0.03888 0.0
C2021 C 0.53097 0.3445 0.06111 0.0
C2022 C 0.51403 0.34121 0.06654 0.0
C2023 C 0.50095 0.35035 0.05951 0.0
C2024 C 0.50959 0.32788 0.07907 0.0
C2025 C 0.5456 0.33554 0.06879 0.0
C2026 C 0.51219 0.31101 0.07506 0.0
C2027 C 0.50802 0.29837 0.08682 0.0
C2028 C 0.50113 0.30238 0.10283 0.0
C2029 C 0.49835 0.31931 0.10673 0.0
C2030 C 0.50248 0.33194 0.09491 0.0
H2031 H 0.55797 0.34247 0.06653 0.0
H2032 H 0.54386 0.33388 0.08277 0.0
H2033 H 0.54619 0.3229 0.06282 0.0
H2034 H 0.51739 0.3076 0.06277 0.0
H2035 H 0.51026 0.28547 0.08337 0.0
H2036 H 0.64121 0.22918 0.26195 0.0
H2037 H 0.61346 0.22913 0.24759 0.0
H2038 H 0.63771 0.24796 0.20174 0.0
H2039 H 0.66543 0.24778 0.21585 0.0
H2040 H 0.59828 0.25767 0.23251 0.0
H2041 H 0.60791 0.20682 0.18514 0.0
H2042 H 0.62089 0.20971 0.2041 0.0
H2043 H 0.62473 0.22287 0.1858 0.0
C2044 C 0.64063 0.2331 0.24874 0.0
C2045 C 0.6555 0.23848 0.24002 0.0
C2046 C 0.62479 0.23314 0.2406 0.0
C2047 C 0.62359 0.23835 0.22356 0.0
C2048 C 0.6384 0.24365 0.21482 0.0
H2049 H 0.54658 0.25526 0.14845 0.0
H2050 H 0.57263 0.25237 0.165 0.0
C2051 C 0.6542 0.2437 0.22295 0.0
C2052 C 0.60683 0.2389 0.21502 0.0
H2053 H 0.58415 0.22366 0.18057 0.0
C2054 C 0.59507 0.25012 0.22126 0.0
C2055 C 0.60276 0.22904 0.20034 0.0
C2056 C 0.61465 0.21631 0.1935 0.0
C2057 C 0.57956 0.25221 0.21283 0.0
C2058 C 0.57561 0.24256 0.19796 0.0
C2059 C 0.58724 0.23109 0.19193 0.0
C2060 C 0.55969 0.24447 0.18817 0.0
C2061 C 0.56781 0.26514 0.21954 0.0
C2062 C 0.54378 0.24087 0.19568 0.0
C2063 C 0.52884 0.24257 0.18627 0.0
C2064 C 0.52957 0.24778 0.16913 0.0
C2065 C 0.54555 0.25126 0.16163 0.0
C2066 C 0.56046 0.24959 0.17105 0.0
H2067 H 0.57446 0.27421 0.22844 0.0
H2068 H 0.56227 0.27225 0.2089 0.0
H2069 H 0.55722 0.25869 0.22662 0.0
H2070 H 0.54291 0.23658 0.20877 0.0
H2071 H 0.51674 0.23968 0.1924 0.0
H2072 H 0.49996 0.07517 0.04934 0.0
H2073 H 0.50062 0.1017 0.06522 0.0
H2074 H 0.46977 0.12344 0.02633 0.0
H2075 H 0.46854 0.0967 0.0106 0.0
H2076 H 0.51311 0.13315 0.05438 0.0
H2077 H 0.44441 0.13407 0.07055 0.0
H2078 H 0.45414 0.11537 0.0629 0.0
H2079 H 0.44905 0.13163 0.04821 0.0
C2080 C 0.49309 0.08549 0.04427 0.0
C2081 C 0.48407 0.08375 0.02876 0.0
C2082 C 0.49359 0.10069 0.0533 0.0
C2083 C 0.48506 0.11445 0.04707 0.0
C2084 C 0.47619 0.11287 0.03152 0.0
H2085 H 0.47833 0.21593 0.08908 0.0
H2086 H 0.47577 0.19082 0.07079 0.0
C2087 C 0.47567 0.09764 0.02245 0.0
C2088 C 0.48587 0.13052 0.05676 0.0
H2089 H 0.4617 0.15789 0.07871 0.0
C2090 C 0.50187 0.13857 0.05969 0.0
C2091 C 0.47117 0.13759 0.0636 0.0
C2092 C 0.45372 0.12919 0.06131 0.0
C2093 C 0.50359 0.15347 0.06933 0.0
C2094 C 0.48894 0.16035 0.07645 0.0
C2095 C 0.47289 0.15253 0.07324 0.0
C2096 C 0.49012 0.17541 0.08768 0.0
C2097 C 0.52106 0.16179 0.07174 0.0
C2098 C 0.49875 0.17491 0.10336 0.0
C2099 C 0.50021 0.18918 0.11384 0.0
C2100 C 0.49302 0.20422 0.10884 0.0
C2101 C 0.48407 0.20457 0.09327 0.0
C2102 C 0.48258 0.19025 0.08281 0.0
H2103 H 0.53017 0.1575 0.06198 0.0
H2104 H 0.52059 0.17569 0.07105 0.0
H2105 H 0.52602 0.15855 0.08453 0.0
H2106 H 0.50439 0.16347 0.10748 0.0
H2107 H 0.50711 0.18845 0.12578 0.0
H2108 H 0.22709 0.38358 0.72679 0.0
H2109 H 0.25024 0.40332 0.73563 0.0
H2110 H 0.28665 0.37153 0.71231 0.0
H2111 H 0.26353 0.35168 0.70341 0.0
H2112 H 0.27899 0.3989 0.75597 0.0
H2113 H 0.29689 0.41707 0.68969 0.0
H2114 H 0.27725 0.40551 0.69459 0.0
H2115 H 0.2969 0.39493 0.6939 0.0
C2116 C 0.24004 0.38067 0.72371 0.0
C2117 C 0.24347 0.3661 0.71432 0.0
C2118 C 0.25324 0.392 0.72871 0.0
C2119 C 0.27012 0.38901 0.72438 0.0
C2120 C 0.27367 0.37425 0.71545 0.0
H2121 H 0.36347 0.45112 0.73914 0.0
H2122 H 0.34305 0.42764 0.73316 0.0
C2123 C 0.26046 0.36293 0.71039 0.0
C2124 C 0.28391 0.40152 0.72903 0.0
H2125 H 0.31393 0.42885 0.71201 0.0
C2126 C 0.28666 0.40543 0.74637 0.0
C2127 C 0.29389 0.41001 0.71647 0.0
C2128 C 0.29104 0.40682 0.69761 0.0
C2129 C 0.29914 0.41762 0.7515 0.0
C2130 C 0.30894 0.42626 0.73892 0.0
C2131 C 0.3064 0.42215 0.72161 0.0
C2132 C 0.32142 0.4401 0.74337 0.0
C2133 C 0.30183 0.42108 0.77032 0.0
C2134 C 0.31597 0.4549 0.75101 0.0
C2135 C 0.32756 0.46834 0.7544 0.0
C2136 C 0.34483 0.46725 0.75015 0.0
C2137 C 0.35027 0.45235 0.74261 0.0
C2138 C 0.33864 0.43893 0.73917 0.0
H2139 H 0.29669 0.41051 0.77826 0.0
H2140 H 0.31554 0.42335 0.77331 0.0
H2141 H 0.29512 0.43251 0.77398 0.0
H2142 H 0.30267 0.45617 0.75404 0.0
H2143 H 0.32294 0.47964 0.76017 0.0
H2144 H 0.25302 0.66674 0.75332 0.0
H2145 H 0.26934 0.64137 0.7536 0.0
H2146 H 0.27632 0.64662 0.80808 0.0
H2147 H 0.26032 0.6722 0.80792 0.0
H2148 H 0.30397 0.64009 0.7658 0.0
H2149 H 0.25913 0.59675 0.80088 0.0
H2150 H 0.25243 0.6156 0.79063 0.0
H2151 H 0.26357 0.617 0.81067 0.0
C2152 C 0.25804 0.66253 0.76538 0.0
C2153 C 0.25539 0.67155 0.7806 0.0
C2154 C 0.26727 0.64798 0.76551 0.0
C2155 C 0.27388 0.64206 0.78087 0.0
C2156 C 0.27105 0.65083 0.79613 0.0
H2157 H 0.33638 0.55864 0.80633 0.0
H2158 H 0.31879 0.58317 0.80699 0.0
C2159 C 0.26187 0.66543 0.79601 0.0
C2160 C 0.28454 0.62725 0.78075 0.0
H2161 H 0.28644 0.58696 0.79497 0.0
C2162 C 0.30013 0.62844 0.77211 0.0
C2163 C 0.27952 0.61216 0.78913 0.0
C2164 C 0.2627 0.61015 0.79827 0.0
C2165 C 0.31099 0.61497 0.77178 0.0
C2166 C 0.30589 0.59977 0.77996 0.0
C2167 C 0.2903 0.59862 0.78869 0.0
C2168 C 0.31649 0.58487 0.7795 0.0
C2169 C 0.32798 0.61731 0.763 0.0
C2170 C 0.32083 0.57755 0.76383 0.0
C2171 C 0.33098 0.56363 0.76339 0.0
C2172 C 0.33679 0.55661 0.77865 0.0
C2173 C 0.33215 0.56377 0.79435 0.0
C2174 C 0.32209 0.57777 0.79476 0.0
H2175 H 0.33198 0.63083 0.76185 0.0
H2176 H 0.33802 0.61083 0.77002 0.0
H2177 H 0.32701 0.61191 0.7499 0.0
H2178 H 0.31631 0.58256 0.75191 0.0
H2179 H 0.33416 0.55832 0.75109 0.0
H2180 H 0.91017 0.48495 0.52385 0.0
H2181 H 0.88201 0.47091 0.52601 0.0
H2182 H 0.8771 0.47113 0.47112 0.0
H2183 H 0.90518 0.48557 0.4688 0.0
H2184 H 0.84964 0.48206 0.5123 0.0
H2185 H 0.86888 0.42079 0.48567 0.0
H2186 H 0.88415 0.43647 0.4939 0.0
H2187 H 0.87442 0.43928 0.47342 0.0
C2188 C 0.90304 0.48225 0.51222 0.0
C2189 C 0.90996 0.48641 0.49614 0.0
C2190 C 0.88699 0.47413 0.51349 0.0
C2191 C 0.87759 0.46987 0.49873 0.0
C2192 C 0.8843 0.47413 0.48265 0.0
H2193 H 0.78201 0.41027 0.4887 0.0
H2194 H 0.80778 0.4276 0.48268 0.0
C2195 C 0.90035 0.48232 0.48136 0.0
C2196 C 0.8608 0.46085 0.50028 0.0
H2197 H 0.84018 0.42273 0.49345 0.0
C2198 C 0.84751 0.46911 0.50812 0.0
C2199 C 0.85811 0.44401 0.49472 0.0
C2200 C 0.87213 0.4345 0.48655 0.0
C2201 C 0.83154 0.46092 0.51065 0.0
C2202 C 0.82898 0.4439 0.50556 0.0
C2203 C 0.84218 0.43576 0.49737 0.0
C2204 C 0.81292 0.43407 0.50916 0.0
C2205 C 0.81754 0.47062 0.51861 0.0
C2206 C 0.80733 0.43187 0.52606 0.0
C2207 C 0.79259 0.42204 0.52954 0.0
C2208 C 0.78325 0.41406 0.5162 0.0
C2209 C 0.7889 0.41627 0.49927 0.0
C2210 C 0.80362 0.42616 0.4958 0.0
H2211 H 0.81977 0.48438 0.51685 0.0
H2212 H 0.80495 0.46674 0.51306 0.0
H2213 H 0.81714 0.46816 0.53255 0.0
H2214 H 0.81454 0.43752 0.5366 0.0
H2215 H 0.78867 0.42051 0.54272 0.0
H2216 H 0.76479 0.88226 0.81231 0.0
H2217 H 0.74337 0.90205 0.80457 0.0
H2218 H 0.71552 0.86291 0.77645 0.0
H2219 H 0.73667 0.8428 0.78463 0.0
H2220 H 0.73387 0.9115 0.77171 0.0
H2221 H 0.679 0.8824 0.80726 0.0
H2222 H 0.70066 0.87706 0.81133 0.0
H2223 H 0.68957 0.8687 0.79283 0.0
C2224 C 0.75398 0.87776 0.80471 0.0
C2225 C 0.75237 0.8609 0.79922 0.0
C2226 C 0.74182 0.88913 0.80019 0.0
C2227 C 0.72776 0.8839 0.79012 0.0
C2228 C 0.72613 0.86713 0.78447 0.0
H2229 H 0.64423 0.94416 0.75459 0.0
H2230 H 0.66326 0.92103 0.75889 0.0
C2231 C 0.73832 0.85571 0.789 0.0
C2232 C 0.71512 0.89624 0.78528 0.0
H2233 H 0.6738 0.90638 0.79082 0.0
C2234 C 0.72072 0.91035 0.77583 0.0
C2235 C 0.69796 0.89464 0.79059 0.0
C2236 C 0.69139 0.87997 0.80118 0.0
C2237 C 0.70967 0.92303 0.77174 0.0
C2238 C 0.69265 0.92168 0.77748 0.0
C2239 C 0.68688 0.90735 0.78648 0.0
C2240 C 0.68095 0.93548 0.77504 0.0
C2241 C 0.71632 0.93782 0.76136 0.0
C2242 C 0.68447 0.95112 0.78295 0.0
C2243 C 0.67365 0.96429 0.78057 0.0
C2244 C 0.65906 0.96208 0.77025 0.0
C2245 C 0.6554 0.94629 0.76256 0.0
C2246 C 0.66623 0.93307 0.765 0.0
H2247 H 0.72799 0.93487 0.75419 0.0
H2248 H 0.70657 0.9418 0.75214 0.0
H2249 H 0.71955 0.94856 0.77007 0.0
H2250 H 0.69562 0.95313 0.79098 0.0
H2251 H 0.67682 0.97625 0.78675 0.0
H2252 H 0.62292 0.48651 0.97982 0.0
H2253 H 0.64407 0.50889 0.98721 0.0
H2254 H 0.6142 0.54496 0.96134 0.0
H2255 H 0.59311 0.52262 0.95359 0.0
H2256 H 0.66216 0.52996 0.96287 0.0
H2257 H 0.62477 0.56664 0.00899 0.0
H2258 H 0.61901 0.54509 0.00331 0.0
H2259 H 0.61461 0.56173 0.98884 0.0
C2260 C 0.62085 0.49919 0.97566 0.0
C2261 C 0.60633 0.50276 0.96606 0.0
C2262 C 0.63289 0.51197 0.97999 0.0
C2263 C 0.63059 0.52857 0.97496 0.0
C2264 C 0.61604 0.53226 0.9656 0.0
H2265 H 0.69249 0.62142 0.98626 0.0
H2266 H 0.66994 0.60009 0.97979 0.0
C2267 C 0.60399 0.51948 0.96121 0.0
C2268 C 0.64389 0.54183 0.97877 0.0
H2269 H 0.65182 0.57832 0.00118 0.0
C2270 C 0.65995 0.54051 0.97128 0.0
C2271 C 0.64086 0.55562 0.98964 0.0
C2272 C 0.62393 0.55738 0.9983 0.0
C2273 C 0.67307 0.55272 0.97425 0.0
C2274 C 0.67015 0.5664 0.98534 0.0
C2275 C 0.65403 0.56779 0.99272 0.0
C2276 C 0.68373 0.57932 0.98952 0.0
C2277 C 0.68983 0.55103 0.9652 0.0
C2278 C 0.69884 0.57474 0.9974 0.0
C2279 C 0.71178 0.58686 0.00103 0.0
C2280 C 0.70977 0.60384 0.99702 0.0
C2281 C 0.69446 0.60845 0.98947 0.0
C2282 C 0.68155 0.59629 0.98578 0.0
H2283 H 0.68843 0.54281 0.9537 0.0
H2284 H 0.69534 0.56349 0.96124 0.0
H2285 H 0.69894 0.54529 0.974 0.0
H2286 H 0.70062 0.56178 0.00077 0.0
H2287 H 0.72335 0.58291 0.00698 0.0
H2288 H 0.23157 0.65083 0.19356 0.0
H2289 H 0.20849 0.63048 0.20083 0.0
H2290 H 0.23907 0.6113 0.24143 0.0
H2291 H 0.26219 0.63162 0.23426 0.0
H2292 H 0.20969 0.59603 0.20017 0.0
H2293 H 0.19406 0.61811 0.26544 0.0
H2294 H 0.20678 0.63075 0.25076 0.0
H2295 H 0.21614 0.61421 0.26253 0.0
C2296 C 0.23336 0.64231 0.20407 0.0
C2297 C 0.2487 0.64284 0.21335 0.0
C2298 C 0.22014 0.63074 0.20825 0.0
C2299 C 0.22197 0.61954 0.22182 0.0
C2300 C 0.23722 0.6201 0.23118 0.0
H2301 H 0.16373 0.5329 0.25994 0.0
H2302 H 0.18487 0.55576 0.25458 0.0
C2303 C 0.25043 0.6317 0.22705 0.0
C2304 C 0.20832 0.60662 0.22551 0.0
H2305 H 0.18176 0.59145 0.25685 0.0
C2306 C 0.20348 0.5951 0.21252 0.0
C2307 C 0.20029 0.60542 0.24165 0.0
C2308 C 0.20445 0.61787 0.25585 0.0
C2309 C 0.19108 0.58219 0.21533 0.0
C2310 C 0.18313 0.58093 0.23149 0.0
C2311 C 0.1879 0.59247 0.24448 0.0
C2312 C 0.16997 0.56756 0.23519 0.0
C2313 C 0.18688 0.56975 0.20112 0.0
C2314 C 0.15446 0.56683 0.22628 0.0
C2315 C 0.14235 0.55379 0.22929 0.0
C2316 C 0.14552 0.54127 0.24132 0.0
C2317 C 0.16091 0.54229 0.25053 0.0
C2318 C 0.173 0.55536 0.24752 0.0
H2319 H 0.19678 0.57011 0.19101 0.0
H2320 H 0.18548 0.55676 0.20616 0.0
H2321 H 0.17463 0.57283 0.19513 0.0
H2322 H 0.15177 0.57631 0.21692 0.0
H2323 H 0.1306 0.55344 0.22205 0.0
H2324 H 0.91059 0.51214 0.0361 0.0
H2325 H 0.88377 0.52653 0.03549 0.0
H2326 H 0.90179 0.55584 0.99247 0.0
H2327 H 0.92863 0.54164 0.99311 0.0
H2328 H 0.88752 0.57515 0.01686 0.0
H2329 H 0.84486 0.5195 0.00167 0.0
H2330 H 0.85761 0.51722 0.02049 0.0
H2331 H 0.8677 0.51916 -4e-05 0.0
C2332 C 0.90874 0.52154 0.02641 0.0
C2333 C 0.9217 0.52575 0.01464 0.0
C2334 C 0.89341 0.52973 0.02606 0.0
C2335 C 0.89069 0.5421 0.01379 0.0
C2336 C 0.90362 0.54633 0.00205 0.0
H2337 H 0.79677 0.58332 0.98124 0.0
H2338 H 0.82286 0.56826 0.98455 0.0
C2339 C 0.91896 0.53824 0.00246 0.0
C2340 C 0.87454 0.55096 0.01331 0.0
H2341 H 0.83162 0.54492 0.00796 0.0
C2342 C 0.87528 0.56855 0.01493 0.0
C2343 C 0.85862 0.54233 0.01061 0.0
C2344 C 0.85709 0.52353 0.00792 0.0
C2345 C 0.86056 0.57776 0.01387 0.0
C2346 C 0.8446 0.56911 0.01151 0.0
C2347 C 0.84385 0.55151 0.00993 0.0
C2348 C 0.82863 0.57811 0.00986 0.0
C2349 C 0.86231 0.59671 0.01476 0.0
C2350 C 0.82307 0.5885 0.02309 0.0
C2351 C 0.80819 0.59725 0.02119 0.0
C2352 C 0.79851 0.5956 0.00609 0.0
C2353 C 0.80393 0.5849 0.99302 0.0
C2354 C 0.81884 0.57625 0.99489 0.0
H2355 H 0.87556 0.60144 0.01217 0.0
H2356 H 0.8537 0.60247 0.00546 0.0
H2357 H 0.85886 0.60097 0.02778 0.0
H2358 H 0.83022 0.58983 0.0349 0.0
H2359 H 0.80429 0.60528 0.03156 0.0
H2360 H 0.0893 0.00517 0.02962 0.0
H2361 H 0.10672 0.98171 0.02138 0.0
H2362 H 0.13784 0.99046 0.06629 0.0
H2363 H 0.12033 0.0136 0.0748 0.0
H2364 H 0.14219 0.98346 0.01507 0.0
H2365 H 0.12562 0.93973 0.06797 0.0
H2366 H 0.11299 0.95734 0.06275 0.0
H2367 H 0.13224 0.96054 0.075 0.0
C2368 C 0.09971 0.00193 0.03785 0.0
C2369 C 0.10344 0.01124 0.05286 0.0
C2370 C 0.10968 0.9886 0.03309 0.0
C2371 C 0.12341 0.98423 0.04335 0.0
C2372 C 0.12712 0.99345 0.05835 0.0
H2373 H 0.20656 0.91842 0.04045 0.0
H2374 H 0.18503 0.93851 0.04732 0.0
C2375 C 0.11722 0.00679 0.06308 0.0
C2376 C 0.13442 0.97055 0.03804 0.0
H2377 H 0.14983 0.93343 0.05123 0.0
C2378 C 0.14373 0.97241 0.02285 0.0
C2379 C 0.13639 0.95619 0.04825 0.0
C2380 C 0.12617 0.9532 0.06433 0.0
C2381 C 0.15549 0.96059 0.01791 0.0
C2382 C 0.15772 0.94639 0.0283 0.0
C2383 C 0.14812 0.94436 0.04331 0.0
C2384 C 0.17042 0.93383 0.02417 0.0
C2385 C 0.16589 0.96374 0.00196 0.0
C2386 C 0.16918 0.92433 0.009 0.0
C2387 C 0.18151 0.91286 0.005 0.0
C2388 C 0.19524 0.91061 0.01617 0.0
C2389 C 0.1962 0.91988 0.03154 0.0
C2390 C 0.18389 0.93135 0.0355 0.0
H2391 H 0.16551 0.977 0.9977 0.0
H2392 H 0.17935 0.96073 0.00408 0.0
H2393 H 0.1607 0.95554 0.99148 0.0
H2394 H 0.15869 0.9258 0.00025 0.0
H2395 H 0.18032 0.90584 0.99312 0.0
loop_
_geom_bond_atom_site_label_1
_geom_bond_atom_site_label_2
_geom_bond_distance
_geom_bond_site_symmetry_2
_ccdc_geom_bond_type
P0 O11 1.490 . S
P0 C14 1.812 . S
P0 C20 1.803 . S
P0 C26 1.819 . S
H1 C15 0.941 . S
H2 C16 0.939 . S
H3 C18 0.940 1_655 S
H4 C19 0.940 . S
H5 C21 0.939 . S
H6 C22 0.942 . S
H7 C24 0.940 . S
H8 C25 0.939 . S
H9 C27 0.941 . S
H10 C31 0.939 . S
O11 P0 1.490 . S
H12 C28 0.939 . S
H13 C30 0.940 . S
C14 P0 1.812 . S
C14 C15 1.389 . S
C14 C19 1.391 . S
C15 H1 0.941 . S
C15 C14 1.389 . S
C15 C16 1.397 . S
C16 H2 0.939 . S
C16 C15 1.397 . S
C16 C17 1.378 . S
C17 C16 1.378 . S
C17 C18 1.378 . S
C18 H3 0.940 1_455 S
C18 C17 1.378 . S
C18 C19 1.396 . S
C19 H4 0.940 . S
C19 C14 1.391 . S
C19 C18 1.396 . S
C20 P0 1.803 . S
C20 C21 1.378 . S
C20 C25 1.400 . S
C21 H5 0.939 . S
C21 C20 1.378 . S
C21 C22 1.361 . S
C22 H6 0.942 . S
C22 C21 1.361 . S
C22 C23 1.369 . S
C23 C22 1.369 . S
C23 C24 1.404 . S
C24 H7 0.940 . S
C24 C23 1.404 . S
C24 C25 1.389 . S
C25 H8 0.939 . S
C25 C20 1.400 . S
C25 C24 1.389 . S
C26 P0 1.819 . S
C26 C27 1.391 . S
C26 C31 1.391 . S
C27 H9 0.941 . S
C27 C26 1.391 . S
C27 C28 1.396 . S
C28 H12 0.939 . S
C28 C27 1.396 . S
C28 C29 1.397 . S
C29 C28 1.397 . S
C29 C30 1.385 . S
C30 H13 0.940 . S
C30 C29 1.385 . S
C30 C31 1.388 . S
C31 H10 0.939 . S
C31 C26 1.391 . S
C31 C30 1.388 . S
P32 O43 1.490 . S
P32 C46 1.812 . S
P32 C52 1.803 . S
P32 C58 1.819 . S
H33 C47 0.941 . S
H34 C48 0.939 . S
H35 C50 0.940 . S
H36 C51 0.940 . S
H37 C53 0.939 . S
H38 C54 0.942 . S
H39 C56 0.940 . S
H40 C57 0.939 . S
H41 C59 0.941 . S
H42 C63 0.939 . S
O43 P32 1.490 . S
H44 C60 0.939 . S
H45 C62 0.940 . S
C46 P32 1.812 . S
C46 C47 1.389 . S
C46 C51 1.391 . S
C47 H33 0.941 . S
C47 C46 1.389 . S
C47 C48 1.397 . S
C48 H34 0.939 . S
C48 C47 1.397 . S
C48 C49 1.378 . S
C49 C48 1.378 . S
C49 C50 1.378 . S
C50 H35 0.940 . S
C50 C49 1.378 . S
C50 C51 1.396 . S
C51 H36 0.940 . S
C51 C46 1.391 . S
C51 C50 1.396 . S
C52 P32 1.803 . S
C52 C53 1.378 . S
C52 C57 1.400 . S
C53 H37 0.939 . S
C53 C52 1.378 . S
C53 C54 1.361 . S
C54 H38 0.942 . S
C54 C53 1.361 . S
C54 C55 1.369 . S
C55 C54 1.369 . S
C55 C56 1.404 . S
C56 H39 0.940 . S
C56 C55 1.404 . S
C56 C57 1.389 . S
C57 H40 0.939 . S
C57 C52 1.400 . S
C57 C56 1.389 . S
C58 P32 1.819 . S
C58 C59 1.391 . S
C58 C63 1.391 . S
C59 H41 0.941 . S
C59 C58 1.391 . S
C59 C60 1.396 . S
C60 H44 0.939 . S
C60 C59 1.396 . S
C60 C61 1.397 . S
C61 C60 1.397 . S
C61 C62 1.385 . S
C62 H45 0.940 . S
C62 C61 1.385 . S
C62 C63 1.388 . S
C63 H42 0.939 . S
C63 C58 1.391 . S
C63 C62 1.388 . S
P64 O75 1.490 . S
P64 C78 1.812 . S
P64 C84 1.803 . S
P64 C90 1.819 . S
H65 C79 0.941 . S
H66 C80 0.939 . S
H67 C82 0.940 . S
H68 C83 0.940 . S
H69 C85 0.939 . S
H70 C86 0.942 . S
H71 C88 0.940 . S
H72 C89 0.939 . S
H73 C91 0.941 . S
H74 C95 0.939 . S
O75 P64 1.490 . S
H76 C92 0.939 . S
H77 C94 0.940 . S
C78 P64 1.812 . S
C78 C79 1.389 1_554 S
C78 C83 1.391 . S
C79 H65 0.941 . S
C79 C78 1.389 1_556 S
C79 C80 1.397 . S
C80 H66 0.939 . S
C80 C79 1.397 . S
C80 C81 1.378 1_556 S
C81 C80 1.378 1_554 S
C81 C82 1.378 . S
C82 H67 0.940 . S
C82 C81 1.378 . S
C82 C83 1.396 . S
C83 H68 0.940 . S
C83 C78 1.391 . S
C83 C82 1.396 . S
C84 P64 1.803 . S
C84 C85 1.378 . S
C84 C89 1.400 . S
C85 H69 0.939 . S
C85 C84 1.378 . S
C85 C86 1.361 . S
C86 H70 0.942 . S
C86 C85 1.361 . S
C86 C87 1.369 . S
C87 C86 1.369 . S
C87 C88 1.404 . S
C88 H71 0.940 . S
C88 C87 1.404 . S
C88 C89 1.389 . S
C89 H72 0.939 . S
C89 C84 1.400 . S
C89 C88 1.389 . S
C90 P64 1.819 . S
C90 C91 1.391 1_655 S
C90 C95 1.391 . S
C91 H73 0.941 . S
C91 C90 1.391 1_455 S
C91 C92 1.396 . S
C92 H76 0.939 . S
C92 C91 1.396 . S
C92 C93 1.400 1_455 S
C93 C92 1.400 1_655 S
C93 C94 1.380 . S
C94 H77 0.940 . S
C94 C93 1.380 . S
C94 C95 1.388 . S
C95 H74 0.939 . S
C95 C90 1.391 . S
C95 C94 1.388 . S
P96 O107 1.490 . S
P96 C110 1.812 . S
P96 C116 1.803 . S
P96 C122 1.819 . S
H97 C111 0.941 . S
H98 C112 0.939 . S
H99 C114 0.940 . S
H100 C115 0.940 . S
H101 C117 0.939 . S
H102 C118 0.942 . S
H103 C120 0.940 . S
H104 C121 0.939 . S
H105 C123 0.941 . S
H106 C127 0.939 . S
O107 P96 1.490 . S
H108 C124 0.939 . S
H109 C126 0.940 . S
C110 P96 1.812 . S
C110 C111 1.389 . S
C110 C115 1.391 . S
C111 H97 0.941 . S
C111 C110 1.389 . S
C111 C112 1.397 . S
C112 H98 0.939 . S
C112 C111 1.397 . S
C112 C113 1.378 . S
C113 C112 1.378 . S
C113 C114 1.378 . S
C114 H99 0.940 . S
C114 C113 1.378 . S
C114 C115 1.396 . S
C115 H100 0.940 . S
C115 C110 1.391 . S
C115 C114 1.396 . S
C116 P96 1.803 . S
C116 C117 1.378 . S
C116 C121 1.400 . S
C117 H101 0.939 . S
C117 C116 1.378 . S
C117 C118 1.361 . S
C118 H102 0.942 . S
C118 C117 1.361 . S
C118 C119 1.369 . S
C119 C118 1.369 . S
C119 C120 1.404 . S
C120 H103 0.940 . S
C120 C119 1.404 . S
C120 C121 1.389 . S
C121 H104 0.939 . S
C121 C116 1.400 . S
C121 C120 1.389 . S
C122 P96 1.819 . S
C122 C123 1.391 . S
C122 C127 1.391 . S
C123 H105 0.941 . S
C123 C122 1.391 . S
C123 C124 1.396 . S
C124 H108 0.939 . S
C124 C123 1.396 . S
C124 C125 1.397 . S
C125 C124 1.397 . S
C125 C126 1.385 . S
C126 H109 0.940 . S
C126 C125 1.385 . S
C126 C127 1.388 . S
C127 H106 0.939 . S
C127 C122 1.391 . S
C127 C126 1.388 . S
P128 O139 1.490 . S
P128 C142 1.812 . S
P128 C148 1.803 . S
P128 C154 1.819 . S
H129 C143 0.941 . S
H130 C144 0.939 . S
H131 C146 0.940 . S
H132 C147 0.940 . S
H133 C149 0.939 . S
H134 C150 0.942 . S
H135 C152 0.940 . S
H136 C153 0.939 . S
H137 C155 0.941 . S
H138 C159 0.939 . S
O139 P128 1.490 . S
H140 C156 0.939 . S
H141 C158 0.940 1_655 S
C142 P128 1.812 . S
C142 C143 1.389 . S
C142 C147 1.391 . S
C143 H129 0.941 . S
C143 C142 1.389 . S
C143 C144 1.397 . S
C144 H130 0.939 . S
C144 C143 1.397 . S
C144 C145 1.378 1_565 S
C145 C144 1.378 1_545 S
C145 C146 1.378 . S
C146 H131 0.940 . S
C146 C145 1.378 . S
C146 C147 1.396 1_545 S
C147 H132 0.940 . S
C147 C142 1.391 . S
C147 C146 1.396 1_565 S
C148 P128 1.803 . S
C148 C149 1.378 . S
C148 C153 1.400 . S
C149 H133 0.939 . S
C149 C148 1.378 . S
C149 C150 1.361 . S
C150 H134 0.942 . S
C150 C149 1.361 . S
C150 C151 1.369 . S
C151 C150 1.369 . S
C151 C152 1.404 . S
C152 H135 0.940 . S
C152 C151 1.404 . S
C152 C153 1.389 . S
C153 H136 0.939 . S
C153 C148 1.400 . S
C153 C152 1.389 . S
C154 P128 1.819 . S
C154 C155 1.391 . S
C154 C159 1.391 . S
C155 H137 0.941 . S
C155 C154 1.391 . S
C155 C156 1.396 . S
C156 H140 0.939 . S
C156 C155 1.396 . S
C156 C157 1.397 . S
C157 C156 1.397 . S
C157 C158 1.385 . S
C158 H141 0.940 1_455 S
C158 C157 1.385 . S
C158 C159 1.388 . S
C159 H138 0.939 . S
C159 C154 1.391 . S
C159 C158 1.388 . S
P160 O171 1.490 . S
P160 C174 1.812 . S
P160 C180 1.803 . S
P160 C186 1.819 . S
H161 C175 0.941 . S
H162 C176 0.939 . S
H163 C178 0.940 . S
H164 C179 0.940 . S
H165 C181 0.939 . S
H166 C182 0.942 . S
H167 C184 0.940 . S
H168 C185 0.939 . S
H169 C187 0.941 . S
H170 C191 0.939 . S
O171 P160 1.490 . S
H172 C188 0.939 . S
H173 C190 0.940 . S
C174 P160 1.812 . S
C174 C175 1.389 . S
C174 C179 1.391 . S
C175 H161 0.941 . S
C175 C174 1.389 . S
C175 C176 1.397 . S
C176 H162 0.939 . S
C176 C175 1.397 . S
C176 C177 1.378 . S
C177 C176 1.378 . S
C177 C178 1.378 . S
C178 H163 0.940 . S
C178 C177 1.378 . S
C178 C179 1.396 . S
C179 H164 0.940 . S
C179 C174 1.391 . S
C179 C178 1.396 . S
C180 P160 1.803 . S
C180 C181 1.378 . S
C180 C185 1.400 . S
C181 H165 0.939 . S
C181 C180 1.378 . S
C181 C182 1.361 . S
C182 H166 0.942 . S
C182 C181 1.361 . S
C182 C183 1.369 . S
C183 C182 1.369 . S
C183 C184 1.404 . S
C184 H167 0.940 . S
C184 C183 1.404 . S
C184 C185 1.389 . S
C185 H168 0.939 . S
C185 C180 1.400 . S
C185 C184 1.389 . S
C186 P160 1.819 . S
C186 C187 1.391 . S
C186 C191 1.391 . S
C187 H169 0.941 . S
C187 C186 1.391 . S
C187 C188 1.396 . S
C188 H172 0.939 . S
C188 C187 1.396 . S
C188 C189 1.397 . S
C189 C188 1.397 . S
C189 C190 1.385 . S
C190 H173 0.940 . S
C190 C189 1.385 . S
C190 C191 1.388 . S
C191 H170 0.939 . S
C191 C186 1.391 . S
C191 C190 1.388 . S
P192 O203 1.490 . S
P192 C206 1.812 . S
P192 C212 1.803 . S
P192 C218 1.819 . S
H193 C207 0.941 . S
H194 C208 0.939 . S
H195 C210 0.940 . S
H196 C211 0.940 . S
H197 C213 0.939 . S
H198 C214 0.942 . S
H199 C216 0.940 . S
H200 C217 0.939 . S
H201 C219 0.941 . S
H202 C223 0.939 . S
O203 P192 1.490 . S
H204 C220 0.939 . S
H205 C222 0.940 . S
C206 P192 1.812 . S
C206 C207 1.389 1_655 S
C206 C211 1.391 . S
C207 H193 0.941 . S
C207 C206 1.389 1_455 S
C207 C208 1.397 . S
C208 H194 0.939 . S
C208 C207 1.397 . S
C208 C209 1.378 1_455 S
C209 C208 1.378 1_655 S
C209 C210 1.378 . S
C210 H195 0.940 . S
C210 C209 1.378 . S
C210 C211 1.396 . S
C211 H196 0.940 . S
C211 C206 1.391 . S
C211 C210 1.396 . S
C212 P192 1.803 . S
C212 C213 1.378 . S
C212 C217 1.400 . S
C213 H197 0.939 . S
C213 C212 1.378 . S
C213 C214 1.361 . S
C214 H198 0.942 . S
C214 C213 1.361 . S
C214 C215 1.369 . S
C215 C214 1.369 . S
C215 C216 1.404 . S
C216 H199 0.940 . S
C216 C215 1.404 . S
C216 C217 1.389 . S
C217 H200 0.939 . S
C217 C212 1.400 . S
C217 C216 1.389 . S
C218 P192 1.819 . S
C218 C219 1.391 . S
C218 C223 1.391 . S
C219 H201 0.941 . S
C219 C218 1.391 . S
C219 C220 1.396 . S
C220 H204 0.939 . S
C220 C219 1.396 . S
C220 C221 1.397 . S
C221 C220 1.397 . S
C221 C222 1.385 . S
C222 H205 0.940 . S
C222 C221 1.385 . S
C222 C223 1.388 . S
C223 H202 0.939 . S
C223 C218 1.391 . S
C223 C222 1.388 . S
P224 O235 1.490 . S
P224 C238 1.812 . S
P224 C244 1.803 . S
P224 C250 1.819 . S
H225 C239 0.941 . S
H226 C240 0.939 . S
H227 C242 0.940 . S
H228 C243 0.940 . S
H229 C245 0.939 . S
H230 C246 0.942 . S
H231 C248 0.940 . S
H232 C249 0.939 . S
H233 C251 0.941 . S
H234 C255 0.939 . S
O235 P224 1.490 . S
H236 C252 0.939 . S
H237 C254 0.940 . S
C238 P224 1.812 . S
C238 C239 1.389 . S
C238 C243 1.391 . S
C239 H225 0.941 . S
C239 C238 1.389 . S
C239 C240 1.397 . S
C240 H226 0.939 . S
C240 C239 1.397 . S
C240 C241 1.378 . S
C241 C240 1.378 . S
C241 C242 1.378 . S
C242 H227 0.940 . S
C242 C241 1.378 . S
C242 C243 1.396 . S
C243 H228 0.940 . S
C243 C238 1.391 . S
C243 C242 1.396 . S
C244 P224 1.803 . S
C244 C245 1.378 . S
C244 C249 1.400 . S
C245 H229 0.939 . S
C245 C244 1.378 . S
C245 C246 1.361 . S
C246 H230 0.942 . S
C246 C245 1.361 . S
C246 C247 1.369 . S
C247 C246 1.369 . S
C247 C248 1.404 . S
C248 H231 0.940 . S
C248 C247 1.404 . S
C248 C249 1.389 . S
C249 H232 0.939 . S
C249 C244 1.400 . S
C249 C248 1.389 . S
C250 P224 1.819 . S
C250 C251 1.391 . S
C250 C255 1.391 . S
C251 H233 0.941 . S
C251 C250 1.391 . S
C251 C252 1.396 . S
C252 H236 0.939 . S
C252 C251 1.396 . S
C252 C253 1.397 . S
C253 C252 1.397 . S
C253 C254 1.385 . S
C254 H237 0.940 . S
C254 C253 1.385 . S
C254 C255 1.388 . S
C255 H234 0.939 . S
C255 C250 1.391 . S
C255 C254 1.388 . S
P256 O267 1.490 . S
P256 C270 1.812 . S
P256 C276 1.803 . S
P256 C282 1.819 . S
H257 C271 0.941 . S
H258 C272 0.939 . S
H259 C274 0.940 . S
H260 C275 0.940 . S
H261 C277 0.939 . S
H262 C278 0.942 . S
H263 C280 0.940 . S
H264 C281 0.939 . S
H265 C283 0.941 . S
H266 C287 0.939 . S
O267 P256 1.490 . S
H268 C284 0.939 . S
H269 C286 0.940 . S
C270 P256 1.812 . S
C270 C271 1.389 . S
C270 C275 1.391 . S
C271 H257 0.941 . S
C271 C270 1.389 . S
C271 C272 1.397 . S
C272 H258 0.939 . S
C272 C271 1.397 . S
C272 C273 1.378 . S
C273 C272 1.378 . S
C273 C274 1.378 . S
C274 H259 0.940 . S
C274 C273 1.378 . S
C274 C275 1.396 . S
C275 H260 0.940 . S
C275 C270 1.391 . S
C275 C274 1.396 . S
C276 P256 1.803 . S
C276 C277 1.378 . S
C276 C281 1.400 . S
C277 H261 0.939 . S
C277 C276 1.378 . S
C277 C278 1.361 . S
C278 H262 0.942 . S
C278 C277 1.361 . S
C278 C279 1.369 . S
C279 C278 1.369 . S
C279 C280 1.404 . S
C280 H263 0.940 . S
C280 C279 1.404 . S
C280 C281 1.389 . S
C281 H264 0.939 . S
C281 C276 1.400 . S
C281 C280 1.389 . S
C282 P256 1.819 . S
C282 C283 1.391 . S
C282 C287 1.391 . S
C283 H265 0.941 . S
C283 C282 1.391 . S
C283 C284 1.396 . S
C284 H268 0.939 . S
C284 C283 1.396 . S
C284 C285 1.397 . S
C285 C284 1.397 . S
C285 C286 1.385 . S
C286 H269 0.940 . S
C286 C285 1.385 . S
C286 C287 1.388 . S
C287 H266 0.939 . S
C287 C282 1.391 . S
C287 C286 1.388 . S
P288 O299 1.490 . S
P288 C302 1.812 . S
P288 C308 1.803 . S
P288 C314 1.819 . S
H289 C303 0.941 . S
H290 C304 0.939 . S
H291 C306 0.940 . S
H292 C307 0.940 . S
H293 C309 0.939 . S
H294 C310 0.942 . S
H295 C312 0.940 . S
H296 C313 0.939 . S
H297 C315 0.941 . S
H298 C319 0.939 . S
O299 P288 1.490 . S
H300 C316 0.939 . S
H301 C318 0.940 . S
C302 P288 1.812 . S
C302 C303 1.389 . S
C302 C307 1.391 . S
C303 H289 0.941 . S
C303 C302 1.389 . S
C303 C304 1.397 . S
C304 H290 0.939 . S
C304 C303 1.397 . S
C304 C305 1.378 . S
C305 C304 1.378 . S
C305 C306 1.378 . S
C306 H291 0.940 . S
C306 C305 1.378 . S
C306 C307 1.396 . S
C307 H292 0.940 . S
C307 C302 1.391 . S
C307 C306 1.396 . S
C308 P288 1.803 . S
C308 C309 1.378 1_565 S
C308 C313 1.400 . S
C309 H293 0.939 . S
C309 C308 1.378 1_545 S
C309 C310 1.361 . S
C310 H294 0.942 . S
C310 C309 1.361 . S
C310 C311 1.369 . S
C311 C310 1.369 . S
C311 C312 1.404 1_545 S
C312 H295 0.940 . S
C312 C311 1.404 1_565 S
C312 C313 1.389 . S
C313 H296 0.939 . S
C313 C308 1.400 . S
C313 C312 1.389 . S
C314 P288 1.819 . S
C314 C315 1.391 . S
C314 C319 1.391 . S
C315 H297 0.941 . S
C315 C314 1.391 . S
C315 C316 1.396 . S
C316 H300 0.939 . S
C316 C315 1.396 . S
C316 C317 1.397 . S
C317 C316 1.397 . S
C317 C318 1.385 . S
C318 H301 0.940 . S
C318 C317 1.385 . S
C318 C319 1.388 . S
C319 H298 0.939 . S
C319 C314 1.391 . S
C319 C318 1.388 . S
P320 O331 1.490 . S
P320 C334 1.812 . S
P320 C340 1.803 . S
P320 C346 1.819 . S
H321 C335 0.941 . S
H322 C336 0.939 . S
H323 C338 0.940 . S
H324 C339 0.940 . S
H325 C341 0.939 . S
H326 C342 0.942 . S
H327 C344 0.940 . S
H328 C345 0.939 . S
H329 C347 0.941 . S
H330 C351 0.939 . S
O331 P320 1.490 . S
H332 C348 0.939 . S
H333 C350 0.940 . S
C334 P320 1.812 . S
C334 C335 1.389 . S
C334 C339 1.391 . S
C335 H321 0.941 . S
C335 C334 1.389 . S
C335 C336 1.397 . S
C336 H322 0.939 . S
C336 C335 1.397 . S
C336 C337 1.378 . S
C337 C336 1.378 . S
C337 C338 1.378 . S
C338 H323 0.940 . S
C338 C337 1.378 . S
C338 C339 1.396 . S
C339 H324 0.940 . S
C339 C334 1.391 . S
C339 C338 1.396 . S
C340 P320 1.803 . S
C340 C341 1.378 . S
C340 C345 1.400 . S
C341 H325 0.939 . S
C341 C340 1.378 . S
C341 C342 1.361 . S
C342 H326 0.942 . S
C342 C341 1.361 . S
C342 C343 1.369 . S
C343 C342 1.369 . S
C343 C344 1.404 . S
C344 H327 0.940 . S
C344 C343 1.404 . S
C344 C345 1.389 . S
C345 H328 0.939 . S
C345 C340 1.400 . S
C345 C344 1.389 . S
C346 P320 1.819 . S
C346 C347 1.391 . S
C346 C351 1.391 . S
C347 H329 0.941 . S
C347 C346 1.391 . S
C347 C348 1.396 . S
C348 H332 0.939 . S
C348 C347 1.396 . S
C348 C349 1.397 . S
C349 C348 1.397 . S
C349 C350 1.385 . S
C350 H333 0.940 . S
C350 C349 1.385 . S
C350 C351 1.388 . S
C351 H330 0.939 . S
C351 C346 1.391 . S
C351 C350 1.388 . S
P352 O363 1.490 . S
P352 C366 1.812 . S
P352 C372 1.803 . S
P352 C378 1.819 . S
H353 C367 0.941 . S
H354 C368 0.939 . S
H355 C370 0.940 . S
H356 C371 0.940 . S
H357 C373 0.939 . S
H358 C374 0.942 . S
H359 C376 0.940 . S
H360 C377 0.939 . S
H361 C379 0.941 . S
H362 C383 0.939 . S
O363 P352 1.490 . S
H364 C380 0.939 . S
H365 C382 0.940 . S
C366 P352 1.812 . S
C366 C367 1.389 . S
C366 C371 1.391 . S
C367 H353 0.941 . S
C367 C366 1.389 . S
C367 C368 1.397 . S
C368 H354 0.939 . S
C368 C367 1.397 . S
C368 C369 1.378 . S
C369 C368 1.378 . S
C369 C370 1.378 . S
C370 H355 0.940 . S
C370 C369 1.378 . S
C370 C371 1.396 . S
C371 H356 0.940 . S
C371 C366 1.391 . S
C371 C370 1.396 . S
C372 P352 1.803 . S
C372 C373 1.378 . S
C372 C377 1.400 . S
C373 H357 0.939 . S
C373 C372 1.378 . S
C373 C374 1.361 . S
C374 H358 0.942 . S
C374 C373 1.361 . S
C374 C375 1.369 . S
C375 C374 1.369 . S
C375 C376 1.404 . S
C376 H359 0.940 . S
C376 C375 1.404 . S
C376 C377 1.389 . S
C377 H360 0.939 . S
C377 C372 1.400 . S
C377 C376 1.389 . S
C378 P352 1.819 . S
C378 C379 1.391 . S
C378 C383 1.391 . S
C379 H361 0.941 . S
C379 C378 1.391 . S
C379 C380 1.396 . S
C380 H364 0.939 . S
C380 C379 1.396 . S
C380 C381 1.397 . S
C381 C380 1.397 . S
C381 C382 1.385 . S
C382 H365 0.940 . S
C382 C381 1.385 . S
C382 C383 1.388 . S
C383 H362 0.939 . S
C383 C378 1.391 . S
C383 C382 1.388 . S
P384 O395 1.490 . S
P384 C398 1.812 . S
P384 C404 1.803 . S
P384 C410 1.819 . S
H385 C399 0.941 . S
H386 C400 0.939 . S
H387 C402 0.940 . S
H388 C403 0.940 . S
H389 C405 0.939 . S
H390 C406 0.942 . S
H391 C408 0.940 . S
H392 C409 0.939 . S
H393 C411 0.941 . S
H394 C415 0.939 . S
O395 P384 1.490 . S
H396 C412 0.939 . S
H397 C414 0.940 . S
C398 P384 1.812 . S
C398 C399 1.389 . S
C398 C403 1.391 . S
C399 H385 0.941 . S
C399 C398 1.389 . S
C399 C400 1.397 . S
C400 H386 0.939 . S
C400 C399 1.397 . S
C400 C401 1.378 . S
C401 C400 1.378 . S
C401 C402 1.378 . S
C402 H387 0.940 . S
C402 C401 1.378 . S
C402 C403 1.396 . S
C403 H388 0.940 . S
C403 C398 1.391 . S
C403 C402 1.396 . S
C404 P384 1.803 . S
C404 C405 1.378 . S
C404 C409 1.400 . S
C405 H389 0.939 . S
C405 C404 1.378 . S
C405 C406 1.361 . S
C406 H390 0.942 . S
C406 C405 1.361 . S
C406 C407 1.369 . S
C407 C406 1.369 . S
C407 C408 1.404 . S
C408 H391 0.940 . S
C408 C407 1.404 . S
C408 C409 1.389 . S
C409 H392 0.939 . S
C409 C404 1.400 . S
C409 C408 1.389 . S
C410 P384 1.819 . S
C410 C411 1.391 . S
C410 C415 1.391 . S
C411 H393 0.941 . S
C411 C410 1.391 . S
C411 C412 1.396 . S
C412 H396 0.939 . S
C412 C411 1.396 . S
C412 C413 1.397 . S
C413 C412 1.397 . S
C413 C414 1.385 . S
C414 H397 0.940 . S
C414 C413 1.385 . S
C414 C415 1.388 . S
C415 H394 0.939 . S
C415 C410 1.391 . S
C415 C414 1.388 . S
P416 O427 1.490 . S
P416 C430 1.812 . S
P416 C436 1.803 . S
P416 C442 1.819 . S
H417 C431 0.941 . S
H418 C432 0.939 . S
H419 C434 0.940 . S
H420 C435 0.940 . S
H421 C437 0.939 . S
H422 C438 0.942 . S
H423 C440 0.903 1_554 S
H424 C441 0.939 . S
H425 C443 0.941 . S
H426 C447 0.939 . S
O427 P416 1.490 . S
H428 C444 0.939 . S
H429 C446 0.940 . S
C430 P416 1.812 . S
C430 C431 1.389 . S
C430 C435 1.391 . S
C431 H417 0.941 . S
C431 C430 1.389 . S
C431 C432 1.397 . S
C432 H418 0.939 . S
C432 C431 1.397 . S
C432 C433 1.378 . S
C433 C432 1.378 . S
C433 C434 1.378 . S
C434 H419 0.940 . S
C434 C433 1.378 . S
C434 C435 1.396 . S
C435 H420 0.940 . S
C435 C430 1.391 . S
C435 C434 1.396 . S
C436 P416 1.803 . S
C436 C437 1.378 . S
C436 C441 1.400 . S
C437 H421 0.939 . S
C437 C436 1.378 . S
C437 C438 1.361 . S
C438 H422 0.942 . S
C438 C437 1.361 . S
C438 C439 1.369 . S
C439 C438 1.369 . S
C439 C440 1.409 . S
C440 H423 0.903 1_556 S
C440 C439 1.409 . S
C440 C441 1.423 . S
C441 H424 0.939 . S
C441 C436 1.400 . S
C441 C440 1.423 . S
C442 P416 1.819 . S
C442 C443 1.391 . S
C442 C447 1.391 . S
C443 H425 0.941 . S
C443 C442 1.391 . S
C443 C444 1.396 . S
C444 H428 0.939 . S
C444 C443 1.396 . S
C444 C445 1.397 . S
C445 C444 1.397 . S
C445 C446 1.385 . S
C446 H429 0.940 . S
C446 C445 1.385 . S
C446 C447 1.388 . S
C447 H426 0.939 . S
C447 C442 1.391 . S
C447 C446 1.388 . S
P448 O459 1.490 . S
P448 C462 1.812 . S
P448 C468 1.803 . S
P448 C474 1.819 . S
H449 C463 0.941 . S
H450 C464 0.939 . S
H451 C466 0.940 . S
H452 C467 0.940 . S
H453 C469 0.939 . S
H454 C470 0.942 . S
H455 C472 0.940 . S
H456 C473 0.939 . S
H457 C475 0.941 . S
H458 C479 0.939 . S
O459 P448 1.490 . S
H460 C476 0.939 . S
H461 C478 0.940 . S
C462 P448 1.812 . S
C462 C463 1.389 . S
C462 C467 1.391 . S
C463 H449 0.941 . S
C463 C462 1.389 . S
C463 C464 1.397 . S
C464 H450 0.939 . S
C464 C463 1.397 . S
C464 C465 1.378 . S
C465 C464 1.378 . S
C465 C466 1.378 . S
C466 H451 0.940 . S
C466 C465 1.378 . S
C466 C467 1.396 . S
C467 H452 0.940 . S
C467 C462 1.391 . S
C467 C466 1.396 . S
C468 P448 1.803 . S
C468 C469 1.378 . S
C468 C473 1.400 . S
C469 H453 0.939 . S
C469 C468 1.378 . S
C469 C470 1.361 . S
C470 H454 0.942 . S
C470 C469 1.361 . S
C470 C471 1.369 . S
C471 C470 1.369 . S
C471 C472 1.404 . S
C472 H455 0.940 . S
C472 C471 1.404 . S
C472 C473 1.389 . S
C473 H456 0.939 . S
C473 C468 1.400 . S
C473 C472 1.389 . S
C474 P448 1.819 . S
C474 C475 1.391 . S
C474 C479 1.391 . S
C475 H457 0.941 . S
C475 C474 1.391 . S
C475 C476 1.396 . S
C476 H460 0.939 . S
C476 C475 1.396 . S
C476 C477 1.397 . S
C477 C476 1.397 . S
C477 C478 1.385 . S
C478 H461 0.940 . S
C478 C477 1.385 . S
C478 C479 1.388 . S
C479 H458 0.939 . S
C479 C474 1.391 . S
C479 C478 1.388 . S
P480 O491 1.490 . S
P480 C494 1.812 . S
P480 C500 1.803 . S
P480 C506 1.819 . S
H481 C495 0.941 . S
H482 C496 0.939 . S
H483 C498 0.940 . S
H484 C499 0.940 . S
H485 C501 0.939 . S
H486 C502 0.942 . S
H487 C504 0.940 . S
H488 C505 0.939 . S
H489 C507 0.941 1_565 S
H490 C511 0.939 . S
O491 P480 1.490 . S
H492 C508 0.939 . S
H493 C510 0.940 . S
C494 P480 1.812 . S
C494 C495 1.389 . S
C494 C499 1.391 . S
C495 H481 0.941 . S
C495 C494 1.389 . S
C495 C496 1.397 . S
C496 H482 0.939 . S
C496 C495 1.397 . S
C496 C497 1.378 . S
C497 C496 1.378 . S
C497 C498 1.378 . S
C498 H483 0.940 . S
C498 C497 1.378 . S
C498 C499 1.396 . S
C499 H484 0.940 . S
C499 C494 1.391 . S
C499 C498 1.396 . S
C500 P480 1.803 . S
C500 C501 1.378 1_556 S
C500 C505 1.400 . S
C501 H485 0.939 . S
C501 C500 1.378 1_554 S
C501 C502 1.361 . S
C502 H486 0.942 . S
C502 C501 1.361 . S
C502 C503 1.369 . S
C503 C502 1.369 . S
C503 C504 1.404 1_554 S
C504 H487 0.940 . S
C504 C503 1.404 1_556 S
C504 C505 1.389 . S
C505 H488 0.939 . S
C505 C500 1.400 . S
C505 C504 1.389 . S
C506 P480 1.819 . S
C506 C507 1.391 . S
C506 C511 1.391 . S
C507 H489 0.941 1_545 S
C507 C506 1.391 . S
C507 C508 1.396 1_545 S
C508 H492 0.939 . S
C508 C507 1.396 1_565 S
C508 C509 1.397 1_565 S
C509 C508 1.397 1_545 S
C509 C510 1.385 . S
C510 H493 0.940 . S
C510 C509 1.385 . S
C510 C511 1.388 . S
C511 H490 0.939 . S
C511 C506 1.391 . S
C511 C510 1.388 . S
C512 O513 1.160 1_554 S
C512 O519 1.185 . S
O513 C512 1.160 1_556 S
O514 Zn515 1.899 1_556 S
O514 C522 1.284 . S
Zn515 O514 1.899 1_554 S
Zn515 O516 2.032 . S
Zn515 O519 2.086 . S
Zn515 O524 1.977 . S
O516 Zn515 2.032 . S
O516 C520 1.278 . S
C517 O518 1.203 . S
C517 O524 1.267 . S
O518 C517 1.203 . S
O519 C512 1.185 . S
O519 Zn515 2.086 . S
C520 O516 1.278 . S
C520 O521 1.211 . S
O521 C520 1.211 . S
C522 O514 1.284 . S
C522 O523 1.273 . S
O523 C522 1.273 . S
O524 Zn515 1.977 . S
O524 C517 1.267 . S
C525 O526 1.160 . S
C525 O532 1.185 . S
O526 C525 1.160 . S
O527 Zn528 1.899 . S
O527 C535 1.284 . S
Zn528 O527 1.899 . S
Zn528 O529 2.032 . S
Zn528 O532 2.086 . S
Zn528 O537 1.977 . S
O529 Zn528 2.032 . S
O529 C533 1.278 . S
C530 O531 1.203 . S
C530 O537 1.267 . S
O531 C530 1.203 . S
O532 C525 1.185 . S
O532 Zn528 2.086 . S
C533 O529 1.278 . S
C533 O534 1.211 . S
O534 C533 1.211 . S
C535 O527 1.284 . S
C535 O536 1.273 . S
O536 C535 1.273 . S
O537 Zn528 1.977 . S
O537 C530 1.267 . S
C538 O539 1.160 1_554 S
C538 O545 1.185 . S
O539 C538 1.160 1_556 S
O540 Zn541 1.899 1_556 S
O540 C548 1.284 . S
Zn541 O540 1.899 1_554 S
Zn541 O542 2.032 1_554 S
Zn541 O545 2.086 . S
Zn541 O550 1.977 . S
O542 Zn541 2.032 1_556 S
O542 C546 1.278 1_556 S
C543 O544 1.203 . S
C543 O550 1.267 . S
O544 C543 1.203 . S
O545 C538 1.185 . S
O545 Zn541 2.086 . S
C546 O542 1.278 1_554 S
C546 O547 1.209 . S
O547 C546 1.209 . S
C548 O540 1.284 . S
C548 O549 1.273 . S
O549 C548 1.273 . S
O550 Zn541 1.977 . S
O550 C543 1.267 . S
C551 O552 1.160 . S
C551 O558 1.185 . S
O552 C551 1.160 . S
O553 Zn554 1.899 . S
O553 C561 1.284 . S
Zn554 O553 1.899 . S
Zn554 O555 2.032 . S
Zn554 O558 2.086 . S
Zn554 O563 1.977 . S
O555 Zn554 2.032 . S
O555 C559 1.278 1_545 S
C556 O557 1.203 . S
C556 O563 1.267 . S
O557 C556 1.203 . S
O558 C551 1.185 . S
O558 Zn554 2.086 . S
C559 O555 1.278 1_565 S
C559 O560 1.211 . S
O560 C559 1.211 . S
C561 O553 1.284 . S
C561 O562 1.273 1_545 S
O562 C561 1.273 1_565 S
O563 Zn554 1.977 . S
O563 C556 1.267 . S
C564 O565 1.160 . S
C564 O571 1.185 . S
O565 C564 1.160 . S
O566 Zn567 1.899 . S
O566 C574 1.284 . S
Zn567 O566 1.899 . S
Zn567 O568 2.032 . S
Zn567 O571 2.086 . S
Zn567 O576 1.977 . S
O568 Zn567 2.032 . S
O568 C572 1.278 . S
C569 O570 1.203 . S
C569 O576 1.267 . S
O570 C569 1.203 . S
O571 C564 1.185 . S
O571 Zn567 2.086 . S
C572 O568 1.278 . S
C572 O573 1.211 . S
O573 C572 1.211 . S
C574 O566 1.284 . S
C574 O575 1.273 . S
O575 C574 1.273 . S
O576 Zn567 1.977 . S
O576 C569 1.267 . S
C577 O578 1.160 . S
C577 O584 1.185 . S
O578 C577 1.160 . S
O579 Zn580 1.899 . S
O579 C587 1.284 . S
Zn580 O579 1.899 . S
Zn580 O581 2.032 . S
Zn580 O584 2.086 . S
Zn580 O589 1.977 . S
O581 Zn580 2.032 . S
O581 C585 1.278 . S
C582 O583 1.203 . S
C582 O589 1.267 . S
O583 C582 1.203 . S
O584 C577 1.185 . S
O584 Zn580 2.086 . S
C585 O581 1.278 . S
C585 O586 1.211 . S
O586 C585 1.211 . S
C587 O579 1.284 . S
C587 O588 1.273 . S
O588 C587 1.273 . S
O589 Zn580 1.977 . S
O589 C582 1.267 . S
C590 O591 1.160 . S
C590 O597 1.185 . S
O591 C590 1.160 . S
O592 Zn593 1.899 . S
O592 C600 1.284 . S
Zn593 O592 1.899 . S
Zn593 O594 2.032 . S
Zn593 O597 2.086 . S
Zn593 O602 1.977 . S
O594 Zn593 2.032 . S
O594 C598 1.278 . S
C595 O596 1.203 . S
C595 O602 1.267 . S
O596 C595 1.203 . S
O597 C590 1.185 . S
O597 Zn593 2.086 . S
C598 O594 1.278 . S
C598 O599 1.211 . S
O599 C598 1.211 . S
C600 O592 1.284 . S
C600 O601 1.273 . S
O601 C600 1.273 . S
O602 Zn593 1.977 . S
O602 C595 1.267 . S
C603 O604 1.160 . S
C603 O610 1.185 . S
O604 C603 1.160 . S
O605 Zn606 1.899 . S
O605 C613 1.284 1_565 S
Zn606 O605 1.899 . S
Zn606 O607 2.032 1_565 S
Zn606 O610 2.086 . S
Zn606 O615 1.977 . S
O607 Zn606 2.032 1_545 S
O607 C611 1.278 . S
C608 O609 1.168 1_565 S
C608 O615 1.296 . S
O609 C608 1.168 1_545 S
O610 C603 1.185 . S
O610 Zn606 2.086 . S
C611 O607 1.278 . S
C611 O612 1.211 . S
O612 C611 1.211 . S
C613 O605 1.284 1_545 S
C613 O614 1.273 . S
O614 C613 1.273 . S
O615 Zn606 1.977 . S
O615 C608 1.296 . S
C616 O617 1.160 1_455 S
C616 O623 1.185 . S
O617 C616 1.160 1_655 S
O618 Zn619 1.899 1_655 S
O618 C626 1.284 . S
Zn619 O618 1.899 1_455 S
Zn619 O620 2.032 . S
Zn619 O623 2.086 . S
Zn619 O628 1.977 . S
O620 Zn619 2.032 . S
O620 C624 1.278 . S
C621 O622 1.203 . S
C621 O628 1.267 . S
O622 C621 1.203 . S
O623 C616 1.185 . S
O623 Zn619 2.086 . S
C624 O620 1.278 . S
C624 O625 1.211 . S
O625 C624 1.211 . S
C626 O618 1.284 . S
C626 O627 1.273 . S
O627 C626 1.273 . S
O628 Zn619 1.977 . S
O628 C621 1.267 . S
C629 O630 1.160 . S
C629 O636 1.185 . S
O630 C629 1.160 . S
O631 Zn632 1.899 . S
O631 C639 1.284 . S
Zn632 O631 1.899 . S
Zn632 O633 2.032 . S
Zn632 O636 2.086 . S
Zn632 O641 1.977 . S
O633 Zn632 2.032 . S
O633 C637 1.278 . S
C634 O635 1.203 . S
C634 O641 1.267 . S
O635 C634 1.203 . S
O636 C629 1.185 . S
O636 Zn632 2.086 . S
C637 O633 1.278 . S
C637 O638 1.211 . S
O638 C637 1.211 . S
C639 O631 1.284 . S
C639 O640 1.273 . S
O640 C639 1.273 . S
O641 Zn632 1.977 . S
O641 C634 1.267 . S
C642 O643 1.160 1_455 S
C642 O649 1.185 . S
O643 C642 1.160 1_655 S
O644 Zn645 1.899 1_655 S
O644 C652 1.284 . S
Zn645 O644 1.899 1_455 S
Zn645 O646 2.032 1_455 S
Zn645 O649 2.086 . S
Zn645 O654 1.977 . S
O646 Zn645 2.032 1_655 S
O646 C650 1.278 . S
C647 O648 1.203 . S
C647 O654 1.267 . S
O648 C647 1.203 . S
O649 C642 1.185 . S
O649 Zn645 2.086 . S
C650 O646 1.278 . S
C650 O651 1.211 1_655 S
O651 C650 1.211 1_455 S
C652 O644 1.284 . S
C652 O653 1.273 . S
O653 C652 1.273 . S
O654 Zn645 1.977 . S
O654 C647 1.267 . S
C655 O656 1.160 . S
C655 O662 1.185 . S
O656 C655 1.160 . S
O657 Zn658 1.899 . S
O657 C665 1.284 . S
Zn658 O657 1.899 . S
Zn658 O659 2.032 . S
Zn658 O662 2.086 . S
Zn658 O667 1.977 . S
O659 Zn658 2.032 . S
O659 C663 1.278 . S
C660 O661 1.203 . S
C660 O667 1.267 . S
O661 C660 1.203 . S
O662 C655 1.185 . S
O662 Zn658 2.086 . S
C663 O659 1.278 . S
C663 O664 1.211 . S
O664 C663 1.211 . S
C665 O657 1.284 . S
C665 O666 1.273 . S
O666 C665 1.273 . S
O667 Zn658 1.977 . S
O667 C660 1.267 . S
H668 C676 0.929 . S
H669 C678 0.930 . S
H670 C680 0.930 . S
H671 C683 0.929 . S
H672 C686 0.930 . S
H673 C688 0.960 . S
H674 C688 0.960 . S
H675 C688 0.960 . S
C676 H668 0.929 . S
C676 C677 1.377 . S
C676 C678 1.384 . S
C677 C676 1.377 . S
C677 C683 1.390 . S
C678 H669 0.930 . S
C678 C676 1.384 . S
C678 C679 1.372 . S
C679 C678 1.372 . S
C679 C680 1.400 . S
C679 C684 1.490 . S
C680 H670 0.930 . S
C680 C679 1.400 . S
C680 C683 1.386 . S
H681 C697 0.930 . S
H682 C698 0.931 . S
C683 H671 0.929 . S
C683 C677 1.390 . S
C683 C680 1.386 . S
C684 C679 1.490 . S
C684 C686 1.395 . S
C684 C687 1.403 . S
H685 C691 0.930 . S
C686 H672 0.930 . S
C686 C684 1.395 . S
C686 C689 1.403 . S
C687 C684 1.403 . S
C687 C688 1.524 . S
C687 C691 1.400 . S
C688 H673 0.960 . S
C688 H674 0.960 . S
C688 H675 0.960 . S
C688 C687 1.524 . S
C689 C686 1.403 . S
C689 C690 1.392 . S
C689 C693 1.495 . S
C690 C689 1.392 . S
C690 C691 1.385 . S
C690 C692 1.478 . S
C691 H685 0.930 . S
C691 C687 1.400 . S
C691 C690 1.385 . S
C692 C690 1.478 . S
C692 C694 1.381 . S
C692 C698 1.383 . S
C693 C689 1.495 . S
C693 H699 0.959 . S
C693 H700 0.961 . S
C693 H701 0.960 . S
C694 C692 1.381 . S
C694 C695 1.394 . S
C694 H702 0.930 . S
C695 C694 1.394 . S
C695 C696 1.383 . S
C695 H703 0.929 . S
C696 C695 1.383 . S
C696 C697 1.377 . S
C697 H681 0.930 . S
C697 C696 1.377 . S
C697 C698 1.379 . S
C698 H682 0.931 . S
C698 C692 1.383 . S
C698 C697 1.379 . S
H699 C693 0.959 . S
H700 C693 0.961 . S
H701 C693 0.960 . S
H702 C694 0.930 . S
H703 C695 0.929 . S
H704 C712 0.929 . S
H705 C714 0.930 . S
H706 C716 0.930 . S
H707 C719 0.929 . S
H708 C722 0.930 . S
H709 C724 0.960 . S
H710 C724 0.960 . S
H711 C724 0.960 . S
C712 H704 0.929 . S
C712 C713 1.377 . S
C712 C714 1.384 . S
C713 C712 1.377 . S
C713 C719 1.390 . S
C714 H705 0.930 . S
C714 C712 1.384 . S
C714 C715 1.372 . S
C715 C714 1.372 . S
C715 C716 1.400 . S
C715 C720 1.490 . S
C716 H706 0.930 . S
C716 C715 1.400 . S
C716 C719 1.386 . S
H717 C733 0.930 . S
H718 C734 0.931 . S
C719 H707 0.929 . S
C719 C713 1.390 . S
C719 C716 1.386 . S
C720 C715 1.490 . S
C720 C722 1.395 . S
C720 C723 1.403 . S
H721 C727 0.930 . S
C722 H708 0.930 . S
C722 C720 1.395 . S
C722 C725 1.403 . S
C723 C720 1.403 . S
C723 C724 1.524 . S
C723 C727 1.400 . S
C724 H709 0.960 . S
C724 H710 0.960 . S
C724 H711 0.960 . S
C724 C723 1.524 . S
C725 C722 1.403 . S
C725 C726 1.392 . S
C725 C729 1.495 . S
C726 C725 1.392 . S
C726 C727 1.385 . S
C726 C728 1.478 . S
C727 H721 0.930 . S
C727 C723 1.400 . S
C727 C726 1.385 . S
C728 C726 1.478 . S
C728 C730 1.381 . S
C728 C734 1.383 . S
C729 C725 1.495 . S
C729 H735 0.959 . S
C729 H736 0.961 . S
C729 H737 0.960 . S
C730 C728 1.381 . S
C730 C731 1.394 . S
C730 H738 0.930 . S
C731 C730 1.394 . S
C731 C732 1.383 . S
C731 H739 0.929 . S
C732 C731 1.383 . S
C732 C733 1.377 . S
C733 H717 0.930 . S
C733 C732 1.377 . S
C733 C734 1.379 . S
C734 H718 0.931 . S
C734 C728 1.383 . S
C734 C733 1.379 . S
H735 C729 0.959 . S
H736 C729 0.961 . S
H737 C729 0.960 . S
H738 C730 0.930 . S
H739 C731 0.929 . S
H740 C748 0.929 . S
H741 C750 0.930 . S
H742 C752 0.930 . S
H743 C755 0.929 . S
H744 C758 0.930 . S
H745 C760 0.960 . S
H746 C760 0.960 . S
H747 C760 0.960 . S
C748 H740 0.929 . S
C748 C749 1.377 . S
C748 C750 1.384 . S
C749 C748 1.377 . S
C749 C755 1.390 . S
C750 H741 0.930 . S
C750 C748 1.384 . S
C750 C751 1.372 . S
C751 C750 1.372 . S
C751 C752 1.400 . S
C751 C756 1.490 . S
C752 H742 0.930 . S
C752 C751 1.400 . S
C752 C755 1.386 . S
H753 C769 0.930 . S
H754 C770 0.931 . S
C755 H743 0.929 . S
C755 C749 1.390 . S
C755 C752 1.386 . S
C756 C751 1.490 . S
C756 C758 1.395 . S
C756 C759 1.403 . S
H757 C763 0.930 . S
C758 H744 0.930 . S
C758 C756 1.395 . S
C758 C761 1.403 . S
C759 C756 1.403 . S
C759 C760 1.524 . S
C759 C763 1.400 . S
C760 H745 0.960 . S
C760 H746 0.960 . S
C760 H747 0.960 . S
C760 C759 1.524 . S
C761 C758 1.403 . S
C761 C762 1.392 . S
C761 C765 1.495 . S
C762 C761 1.392 . S
C762 C763 1.385 . S
C762 C764 1.478 . S
C763 H757 0.930 . S
C763 C759 1.400 . S
C763 C762 1.385 . S
C764 C762 1.478 . S
C764 C766 1.381 . S
C764 C770 1.383 . S
C765 C761 1.495 . S
C765 H771 0.959 . S
C765 H772 0.961 . S
C765 H773 0.960 . S
C766 C764 1.381 . S
C766 C767 1.394 . S
C766 H774 0.930 . S
C767 C766 1.394 . S
C767 C768 1.383 . S
C767 H775 0.929 . S
C768 C767 1.383 . S
C768 C769 1.377 . S
C769 H753 0.930 . S
C769 C768 1.377 . S
C769 C770 1.379 . S
C770 H754 0.931 . S
C770 C764 1.383 . S
C770 C769 1.379 . S
H771 C765 0.959 . S
H772 C765 0.961 . S
H773 C765 0.960 . S
H774 C766 0.930 . S
H775 C767 0.929 . S
H776 C784 0.929 . S
H777 C786 0.930 . S
H778 C788 0.930 . S
H779 C791 0.929 1_455 S
H780 C794 0.930 . S
H781 C796 0.960 . S
H782 C796 0.960 . S
H783 C796 0.960 . S
C784 H776 0.929 . S
C784 C785 1.377 . S
C784 C786 1.384 . S
C785 C784 1.377 . S
C785 C791 1.390 . S
C786 H777 0.930 . S
C786 C784 1.384 . S
C786 C787 1.372 . S
C787 C786 1.372 . S
C787 C788 1.400 . S
C787 C792 1.490 . S
C788 H778 0.930 . S
C788 C787 1.400 . S
C788 C791 1.386 . S
H789 C805 0.930 . S
H790 C806 0.931 . S
C791 H779 0.929 1_655 S
C791 C785 1.390 . S
C791 C788 1.386 . S
C792 C787 1.490 . S
C792 C794 1.395 1_565 S
C792 C795 1.403 . S
H793 C799 0.930 . S
C794 H780 0.930 . S
C794 C792 1.395 1_545 S
C794 C797 1.403 . S
C795 C792 1.403 . S
C795 C796 1.524 . S
C795 C799 1.400 . S
C796 H781 0.960 . S
C796 H782 0.960 . S
C796 H783 0.960 . S
C796 C795 1.524 . S
C797 C794 1.403 . S
C797 C798 1.378 1_545 S
C797 C801 1.495 . S
C798 C797 1.378 1_565 S
C798 C799 1.410 . S
C798 C800 1.470 1_565 S
C799 H793 0.930 . S
C799 C795 1.400 . S
C799 C798 1.410 . S
C800 C798 1.470 1_545 S
C800 C802 1.381 1_545 S
C800 C806 1.383 . S
C801 C797 1.495 . S
C801 H807 0.959 . S
C801 H808 0.961 . S
C801 H809 0.960 . S
C802 C800 1.381 1_565 S
C802 C803 1.394 . S
C802 H810 0.930 . S
C803 C802 1.394 . S
C803 C804 1.383 1_565 S
C803 H811 0.929 . S
C804 C803 1.383 1_545 S
C804 C805 1.377 . S
C805 H789 0.930 . S
C805 C804 1.377 . S
C805 C806 1.379 . S
C806 H790 0.931 . S
C806 C800 1.383 . S
C806 C805 1.379 . S
H807 C801 0.959 . S
H808 C801 0.961 . S
H809 C801 0.960 . S
H810 C802 0.930 . S
H811 C803 0.929 . S
H812 C820 0.929 . S
H813 C822 0.930 . S
H814 C824 0.930 . S
H815 C827 0.929 . S
H816 C830 0.930 . S
H817 C832 0.960 . S
H818 C832 0.960 . S
H819 C832 0.960 . S
C820 H812 0.929 . S
C820 C821 1.377 . S
C820 C822 1.384 . S
C821 C820 1.377 . S
C821 C827 1.390 . S
C822 H813 0.930 . S
C822 C820 1.384 . S
C822 C823 1.372 . S
C823 C822 1.372 . S
C823 C824 1.400 . S
C823 C828 1.490 . S
C824 H814 0.930 . S
C824 C823 1.400 . S
C824 C827 1.386 . S
H825 C841 0.930 . S
H826 C842 0.931 . S
C827 H815 0.929 . S
C827 C821 1.390 . S
C827 C824 1.386 . S
C828 C823 1.490 . S
C828 C830 1.395 . S
C828 C831 1.403 . S
H829 C835 0.930 . S
C830 H816 0.930 . S
C830 C828 1.395 . S
C830 C833 1.403 . S
C831 C828 1.403 . S
C831 C832 1.524 . S
C831 C835 1.400 . S
C832 H817 0.960 . S
C832 H818 0.960 . S
C832 H819 0.960 . S
C832 C831 1.524 . S
C833 C830 1.403 . S
C833 C834 1.392 . S
C833 C837 1.495 . S
C834 C833 1.392 . S
C834 C835 1.385 . S
C834 C836 1.478 . S
C835 H829 0.930 . S
C835 C831 1.400 . S
C835 C834 1.385 . S
C836 C834 1.478 . S
C836 C838 1.381 . S
C836 C842 1.383 . S
C837 C833 1.495 . S
C837 H843 0.959 . S
C837 H844 0.961 . S
C837 H845 0.960 . S
C838 C836 1.381 . S
C838 C839 1.394 . S
C838 H846 0.930 . S
C839 C838 1.394 . S
C839 C840 1.383 . S
C839 H847 0.929 . S
C840 C839 1.383 . S
C840 C841 1.377 . S
C841 H825 0.930 . S
C841 C840 1.377 . S
C841 C842 1.379 . S
C842 H826 0.931 . S
C842 C836 1.383 . S
C842 C841 1.379 . S
H843 C837 0.959 . S
H844 C837 0.961 . S
H845 C837 0.960 . S
H846 C838 0.930 . S
H847 C839 0.929 . S
H848 C856 0.929 . S
H849 C858 0.930 . S
H850 C860 0.930 . S
H851 C863 0.929 . S
H852 C866 0.930 . S
H853 C868 0.960 . S
H854 C868 0.960 . S
H855 C868 0.960 . S
C856 H848 0.929 . S
C856 C857 1.377 . S
C856 C858 1.384 . S
C857 C856 1.377 . S
C857 C863 1.390 . S
C858 H849 0.930 . S
C858 C856 1.384 . S
C858 C859 1.372 . S
C859 C858 1.372 . S
C859 C860 1.400 . S
C859 C864 1.490 . S
C860 H850 0.930 . S
C860 C859 1.400 . S
C860 C863 1.386 . S
H861 C877 0.930 . S
H862 C878 0.931 . S
C863 H851 0.929 . S
C863 C857 1.390 . S
C863 C860 1.386 . S
C864 C859 1.490 . S
C864 C866 1.395 . S
C864 C867 1.403 . S
H865 C871 0.930 . S
C866 H852 0.930 . S
C866 C864 1.395 . S
C866 C869 1.403 . S
C867 C864 1.403 . S
C867 C868 1.524 . S
C867 C871 1.400 . S
C868 H853 0.960 . S
C868 H854 0.960 . S
C868 H855 0.960 . S
C868 C867 1.524 . S
C869 C866 1.403 . S
C869 C870 1.392 . S
C869 C873 1.495 . S
C870 C869 1.392 . S
C870 C871 1.385 . S
C870 C872 1.478 . S
C871 H865 0.930 . S
C871 C867 1.400 . S
C871 C870 1.385 . S
C872 C870 1.478 . S
C872 C874 1.381 . S
C872 C878 1.383 . S
C873 C869 1.495 . S
C873 H879 0.959 . S
C873 H880 0.961 . S
C873 H881 0.960 . S
C874 C872 1.381 . S
C874 C875 1.394 . S
C874 H882 0.930 . S
C875 C874 1.394 . S
C875 C876 1.383 . S
C875 H883 0.929 . S
C876 C875 1.383 . S
C876 C877 1.377 . S
C877 H861 0.930 . S
C877 C876 1.377 . S
C877 C878 1.379 . S
C878 H862 0.931 . S
C878 C872 1.383 . S
C878 C877 1.379 . S
H879 C873 0.959 . S
H880 C873 0.961 . S
H881 C873 0.960 . S
H882 C874 0.930 . S
H883 C875 0.929 . S
H884 C892 0.929 . S
H885 C894 0.930 . S
H886 C896 0.930 . S
H887 C899 0.929 . S
H888 C902 0.930 . S
H889 C904 0.960 . S
H890 C904 0.960 . S
H891 C904 0.960 . S
C892 H884 0.929 . S
C892 C893 1.377 . S
C892 C894 1.384 . S
C893 C892 1.377 . S
C893 C899 1.390 . S
C894 H885 0.930 . S
C894 C892 1.384 . S
C894 C895 1.372 . S
C895 C894 1.372 . S
C895 C896 1.400 . S
C895 C900 1.490 . S
C896 H886 0.930 . S
C896 C895 1.400 . S
C896 C899 1.386 . S
H897 C913 0.930 . S
H898 C914 0.931 . S
C899 H887 0.929 . S
C899 C893 1.390 . S
C899 C896 1.386 . S
C900 C895 1.490 . S
C900 C902 1.395 . S
C900 C903 1.403 . S
H901 C907 0.930 . S
C902 H888 0.930 . S
C902 C900 1.395 . S
C902 C905 1.403 . S
C903 C900 1.403 . S
C903 C904 1.524 . S
C903 C907 1.400 . S
C904 H889 0.960 . S
C904 H890 0.960 . S
C904 H891 0.960 . S
C904 C903 1.524 . S
C905 C902 1.403 . S
C905 C906 1.392 . S
C905 C909 1.495 . S
C906 C905 1.392 . S
C906 C907 1.385 . S
C906 C908 1.478 . S
C907 H901 0.930 . S
C907 C903 1.400 . S
C907 C906 1.385 . S
C908 C906 1.478 . S
C908 C910 1.381 . S
C908 C914 1.383 . S
C909 C905 1.495 . S
C909 H915 0.959 . S
C909 H916 0.961 . S
C909 H917 0.960 . S
C910 C908 1.381 . S
C910 C911 1.394 . S
C910 H918 0.930 . S
C911 C910 1.394 . S
C911 C912 1.383 . S
C911 H919 0.929 . S
C912 C911 1.383 . S
C912 C913 1.377 . S
C913 H897 0.930 . S
C913 C912 1.377 . S
C913 C914 1.379 . S
C914 H898 0.931 . S
C914 C908 1.383 . S
C914 C913 1.379 . S
H915 C909 0.959 . S
H916 C909 0.961 . S
H917 C909 0.960 . S
H918 C910 0.930 . S
H919 C911 0.929 . S
H920 C928 0.929 . S
H921 C930 0.930 . S
H922 C932 0.930 1_545 S
H923 C935 0.929 . S
H924 C938 0.930 . S
H925 C940 0.960 . S
H926 C940 0.960 . S
H927 C940 0.960 . S
C928 H920 0.929 . S
C928 C929 1.377 . S
C928 C930 1.384 . S
C929 C928 1.377 . S
C929 C935 1.390 . S
C930 H921 0.930 . S
C930 C928 1.384 . S
C930 C931 1.372 . S
C931 C930 1.372 . S
C931 C932 1.400 . S
C931 C936 1.490 . S
C932 H922 0.930 1_565 S
C932 C931 1.400 . S
C932 C935 1.386 . S
H933 C949 0.930 . S
H934 C950 0.933 . S
C935 H923 0.929 . S
C935 C929 1.390 . S
C935 C932 1.386 . S
C936 C931 1.490 . S
C936 C938 1.395 . S
C936 C939 1.403 . S
H937 C943 0.930 1_545 S
C938 H924 0.930 . S
C938 C936 1.395 . S
C938 C941 1.403 . S
C939 C936 1.403 . S
C939 C940 1.524 1_565 S
C939 C943 1.400 . S
C940 H925 0.960 . S
C940 H926 0.960 . S
C940 H927 0.960 . S
C940 C939 1.524 1_545 S
C941 C938 1.403 . S
C941 C942 1.392 . S
C941 C945 1.495 . S
C942 C941 1.392 . S
C942 C943 1.385 . S
C942 C944 1.478 . S
C943 H937 0.930 1_565 S
C943 C939 1.400 . S
C943 C942 1.385 . S
C944 C942 1.478 . S
C944 C946 1.381 . S
C944 C950 1.380 1_565 S
C945 C941 1.495 . S
C945 H951 0.959 . S
C945 H952 0.961 . S
C945 H953 0.960 . S
C946 C944 1.381 . S
C946 C947 1.394 . S
C946 H954 0.930 . S
C947 C946 1.394 . S
C947 C948 1.383 . S
C947 H955 0.929 . S
C948 C947 1.383 . S
C948 C949 1.377 1_565 S
C949 H933 0.930 . S
C949 C948 1.377 1_545 S
C949 C950 1.380 . S
C950 H934 0.933 . S
C950 C944 1.380 1_545 S
C950 C949 1.380 . S
H951 C945 0.959 . S
H952 C945 0.961 . S
H953 C945 0.960 . S
H954 C946 0.930 . S
H955 C947 0.929 . S
H956 C964 0.929 . S
H957 C966 0.930 . S
H958 C968 0.930 . S
H959 C971 0.929 . S
H960 C974 0.930 . S
H961 C976 0.960 . S
H962 C976 0.960 . S
H963 C976 0.960 . S
C964 H956 0.929 . S
C964 C965 1.377 . S
C964 C966 1.384 . S
C965 C964 1.377 . S
C965 C971 1.390 . S
C966 H957 0.930 . S
C966 C964 1.384 . S
C966 C967 1.372 . S
C967 C966 1.372 . S
C967 C968 1.400 . S
C967 C972 1.490 . S
C968 H958 0.930 . S
C968 C967 1.400 . S
C968 C971 1.386 . S
H969 C985 0.930 . S
H970 C986 0.931 . S
C971 H959 0.929 . S
C971 C965 1.390 . S
C971 C968 1.386 . S
C972 C967 1.490 . S
C972 C974 1.395 . S
C972 C975 1.403 . S
H973 C979 0.930 . S
C974 H960 0.930 . S
C974 C972 1.395 . S
C974 C977 1.403 . S
C975 C972 1.403 . S
C975 C976 1.524 . S
C975 C979 1.400 . S
C976 H961 0.960 . S
C976 H962 0.960 . S
C976 H963 0.960 . S
C976 C975 1.524 . S
C977 C974 1.403 . S
C977 C978 1.392 . S
C977 C981 1.495 . S
C978 C977 1.392 . S
C978 C979 1.385 . S
C978 C980 1.478 . S
C979 H973 0.930 . S
C979 C975 1.400 . S
C979 C978 1.385 . S
C980 C978 1.478 . S
C980 C982 1.381 . S
C980 C986 1.383 . S
C981 C977 1.495 . S
C981 H987 0.959 . S
C981 H988 0.961 . S
C981 H989 0.960 . S
C982 C980 1.381 . S
C982 C983 1.394 . S
C982 H990 0.930 . S
C983 C982 1.394 . S
C983 C984 1.383 . S
C983 H991 0.929 . S
C984 C983 1.383 . S
C984 C985 1.377 . S
C985 H969 0.930 . S
C985 C984 1.377 . S
C985 C986 1.379 . S
C986 H970 0.931 . S
C986 C980 1.383 . S
C986 C985 1.379 . S
H987 C981 0.959 . S
H988 C981 0.961 . S
H989 C981 0.960 . S
H990 C982 0.930 . S
H991 C983 0.929 . S
H992 C1000 0.929 . S
H993 C1002 0.930 . S
H994 C1004 0.930 . S
H995 C1007 0.929 . S
H996 C1010 0.930 . S
H997 C1012 0.960 . S
H998 C1012 0.960 . S
H999 C1012 0.960 . S
C1000 H992 0.929 . S
C1000 C1001 1.377 . S
C1000 C1002 1.384 . S
C1001 C1000 1.377 . S
C1001 C1007 1.390 . S
C1002 H993 0.930 . S
C1002 C1000 1.384 . S
C1002 C1003 1.372 . S
C1003 C1002 1.372 . S
C1003 C1004 1.400 . S
C1003 C1008 1.490 . S
C1004 H994 0.930 . S
C1004 C1003 1.400 . S
C1004 C1007 1.386 . S
H1005 C1021 0.930 . S
H1006 C1022 0.931 . S
C1007 H995 0.929 . S
C1007 C1001 1.390 . S
C1007 C1004 1.386 . S
C1008 C1003 1.490 . S
C1008 C1010 1.395 . S
C1008 C1011 1.403 . S
H1009 C1015 0.930 . S
C1010 H996 0.930 . S
C1010 C1008 1.395 . S
C1010 C1013 1.403 . S
C1011 C1008 1.403 . S
C1011 C1012 1.524 . S
C1011 C1015 1.400 . S
C1012 H997 0.960 . S
C1012 H998 0.960 . S
C1012 H999 0.960 . S
C1012 C1011 1.524 . S
C1013 C1010 1.403 . S
C1013 C1014 1.392 . S
C1013 C1017 1.495 . S
C1014 C1013 1.392 . S
C1014 C1015 1.385 . S
C1014 C1016 1.478 . S
C1015 H1009 0.930 . S
C1015 C1011 1.400 . S
C1015 C1014 1.385 . S
C1016 C1014 1.478 . S
C1016 C1018 1.381 . S
C1016 C1022 1.383 . S
C1017 C1013 1.495 . S
C1017 H1023 0.959 . S
C1017 H1024 0.961 . S
C1017 H1025 0.960 . S
C1018 C1016 1.381 . S
C1018 C1019 1.394 . S
C1018 H1026 0.930 . S
C1019 C1018 1.394 . S
C1019 C1020 1.383 . S
C1019 H1027 0.929 . S
C1020 C1019 1.383 . S
C1020 C1021 1.377 . S
C1021 H1005 0.930 . S
C1021 C1020 1.377 . S
C1021 C1022 1.379 . S
C1022 H1006 0.931 . S
C1022 C1016 1.383 . S
C1022 C1021 1.379 . S
H1023 C1017 0.959 . S
H1024 C1017 0.961 . S
H1025 C1017 0.960 . S
H1026 C1018 0.930 . S
H1027 C1019 0.929 . S
H1028 C1036 0.929 . S
H1029 C1038 0.930 . S
H1030 C1040 0.930 . S
H1031 C1043 0.929 . S
H1032 C1046 0.930 . S
H1033 C1048 0.960 . S
H1034 C1048 0.960 . S
H1035 C1048 0.960 . S
C1036 H1028 0.929 . S
C1036 C1037 1.377 . S
C1036 C1038 1.384 . S
C1037 C1036 1.377 . S
C1037 C1043 1.390 . S
C1038 H1029 0.930 . S
C1038 C1036 1.384 . S
C1038 C1039 1.372 . S
C1039 C1038 1.372 . S
C1039 C1040 1.400 . S
C1039 C1044 1.490 . S
C1040 H1030 0.930 . S
C1040 C1039 1.400 . S
C1040 C1043 1.386 . S
H1041 C1057 0.930 . S
H1042 C1058 0.931 . S
C1043 H1031 0.929 . S
C1043 C1037 1.390 . S
C1043 C1040 1.386 . S
C1044 C1039 1.490 . S
C1044 C1046 1.395 . S
C1044 C1047 1.403 . S
H1045 C1051 0.930 . S
C1046 H1032 0.930 . S
C1046 C1044 1.395 . S
C1046 C1049 1.403 . S
C1047 C1044 1.403 . S
C1047 C1048 1.524 . S
C1047 C1051 1.400 . S
C1048 H1033 0.960 . S
C1048 H1034 0.960 . S
C1048 H1035 0.960 . S
C1048 C1047 1.524 . S
C1049 C1046 1.403 . S
C1049 C1050 1.392 . S
C1049 C1053 1.495 . S
C1050 C1049 1.392 . S
C1050 C1051 1.385 . S
C1050 C1052 1.478 . S
C1051 H1045 0.930 . S
C1051 C1047 1.400 . S
C1051 C1050 1.385 . S
C1052 C1050 1.478 . S
C1052 C1054 1.381 . S
C1052 C1058 1.383 . S
C1053 C1049 1.495 . S
C1053 H1059 0.959 . S
C1053 H1060 0.961 . S
C1053 H1061 0.960 . S
C1054 C1052 1.381 . S
C1054 C1055 1.394 . S
C1054 H1062 0.930 . S
C1055 C1054 1.394 . S
C1055 C1056 1.383 . S
C1055 H1063 0.929 . S
C1056 C1055 1.383 . S
C1056 C1057 1.377 . S
C1057 H1041 0.930 . S
C1057 C1056 1.377 . S
C1057 C1058 1.379 . S
C1058 H1042 0.931 . S
C1058 C1052 1.383 . S
C1058 C1057 1.379 . S
H1059 C1053 0.959 . S
H1060 C1053 0.961 . S
H1061 C1053 0.960 . S
H1062 C1054 0.930 . S
H1063 C1055 0.929 . S
H1064 C1072 0.929 . S
H1065 C1074 0.930 . S
H1066 C1076 0.930 . S
H1067 C1079 0.929 . S
H1068 C1082 0.930 . S
H1069 C1084 0.960 . S
H1070 C1084 0.960 . S
H1071 C1084 0.960 . S
C1072 H1064 0.929 . S
C1072 C1073 1.377 . S
C1072 C1074 1.384 . S
C1073 C1072 1.377 . S
C1073 C1079 1.390 . S
C1074 H1065 0.930 . S
C1074 C1072 1.384 . S
C1074 C1075 1.372 . S
C1075 C1074 1.372 . S
C1075 C1076 1.400 . S
C1075 C1080 1.490 . S
C1076 H1066 0.930 . S
C1076 C1075 1.400 . S
C1076 C1079 1.386 . S
H1077 C1093 0.930 . S
H1078 C1094 0.931 . S
C1079 H1067 0.929 . S
C1079 C1073 1.390 . S
C1079 C1076 1.386 . S
C1080 C1075 1.490 . S
C1080 C1082 1.395 . S
C1080 C1083 1.403 . S
H1081 C1087 0.930 . S
C1082 H1068 0.930 . S
C1082 C1080 1.395 . S
C1082 C1085 1.403 . S
C1083 C1080 1.403 . S
C1083 C1084 1.524 . S
C1083 C1087 1.400 . S
C1084 H1069 0.960 . S
C1084 H1070 0.960 . S
C1084 H1071 0.960 . S
C1084 C1083 1.524 . S
C1085 C1082 1.403 . S
C1085 C1086 1.392 . S
C1085 C1089 1.495 . S
C1086 C1085 1.392 . S
C1086 C1087 1.385 . S
C1086 C1088 1.478 . S
C1087 H1081 0.930 . S
C1087 C1083 1.400 . S
C1087 C1086 1.385 . S
C1088 C1086 1.478 . S
C1088 C1090 1.381 . S
C1088 C1094 1.383 . S
C1089 C1085 1.495 . S
C1089 H1095 0.959 . S
C1089 H1096 0.961 . S
C1089 H1097 0.960 . S
C1090 C1088 1.381 . S
C1090 C1091 1.394 . S
C1090 H1098 0.930 . S
C1091 C1090 1.394 . S
C1091 C1092 1.383 . S
C1091 H1099 0.929 . S
C1092 C1091 1.383 . S
C1092 C1093 1.377 . S
C1093 H1077 0.930 . S
C1093 C1092 1.377 . S
C1093 C1094 1.379 . S
C1094 H1078 0.931 . S
C1094 C1088 1.383 . S
C1094 C1093 1.379 . S
H1095 C1089 0.959 . S
H1096 C1089 0.961 . S
H1097 C1089 0.960 . S
H1098 C1090 0.930 . S
H1099 C1091 0.929 . S
H1100 C1108 0.929 . S
H1101 C1110 0.930 . S
H1102 C1112 0.930 . S
H1103 C1115 0.929 . S
H1104 C1118 0.930 . S
H1105 C1120 0.960 . S
H1106 C1120 0.960 . S
H1107 C1120 0.960 . S
C1108 H1100 0.929 . S
C1108 C1109 1.377 . S
C1108 C1110 1.384 . S
C1109 C1108 1.377 . S
C1109 C1115 1.390 . S
C1110 H1101 0.930 . S
C1110 C1108 1.384 . S
C1110 C1111 1.372 . S
C1111 C1110 1.372 . S
C1111 C1112 1.400 . S
C1111 C1116 1.490 . S
C1112 H1102 0.930 . S
C1112 C1111 1.400 . S
C1112 C1115 1.386 . S
H1113 C1129 0.930 . S
H1114 C1130 0.931 . S
C1115 H1103 0.929 . S
C1115 C1109 1.390 . S
C1115 C1112 1.386 . S
C1116 C1111 1.490 . S
C1116 C1118 1.395 . S
C1116 C1119 1.403 . S
H1117 C1123 0.930 . S
C1118 H1104 0.930 . S
C1118 C1116 1.395 . S
C1118 C1121 1.403 . S
C1119 C1116 1.403 . S
C1119 C1120 1.524 . S
C1119 C1123 1.400 . S
C1120 H1105 0.960 . S
C1120 H1106 0.960 . S
C1120 H1107 0.960 . S
C1120 C1119 1.524 . S
C1121 C1118 1.403 . S
C1121 C1122 1.392 . S
C1121 C1125 1.495 . S
C1122 C1121 1.392 . S
C1122 C1123 1.385 . S
C1122 C1124 1.478 . S
C1123 H1117 0.930 . S
C1123 C1119 1.400 . S
C1123 C1122 1.385 . S
C1124 C1122 1.478 . S
C1124 C1126 1.381 . S
C1124 C1130 1.383 . S
C1125 C1121 1.495 . S
C1125 H1131 0.959 . S
C1125 H1132 0.961 . S
C1125 H1133 0.960 . S
C1126 C1124 1.381 . S
C1126 C1127 1.394 . S
C1126 H1134 0.930 . S
C1127 C1126 1.394 . S
C1127 C1128 1.383 . S
C1127 H1135 0.929 . S
C1128 C1127 1.383 . S
C1128 C1129 1.377 . S
C1129 H1113 0.930 . S
C1129 C1128 1.377 . S
C1129 C1130 1.379 . S
C1130 H1114 0.931 . S
C1130 C1124 1.383 . S
C1130 C1129 1.379 . S
H1131 C1125 0.959 . S
H1132 C1125 0.961 . S
H1133 C1125 0.960 . S
H1134 C1126 0.930 . S
H1135 C1127 0.929 . S
H1136 C1144 0.929 . S
H1137 C1146 0.930 . S
H1138 C1148 0.930 . S
H1139 C1151 0.929 . S
H1140 C1154 0.930 1_655 S
H1141 C1156 0.960 . S
H1142 C1156 0.960 . S
H1143 C1156 0.960 . S
C1144 H1136 0.929 . S
C1144 C1145 1.377 . S
C1144 C1146 1.384 . S
C1145 C1144 1.377 . S
C1145 C1151 1.390 . S
C1146 H1137 0.930 . S
C1146 C1144 1.384 . S
C1146 C1147 1.372 . S
C1147 C1146 1.372 . S
C1147 C1148 1.400 . S
C1147 C1152 1.490 . S
C1148 H1138 0.930 . S
C1148 C1147 1.400 . S
C1148 C1151 1.386 . S
H1149 C1165 0.930 . S
H1150 C1166 0.931 . S
C1151 H1139 0.929 . S
C1151 C1145 1.390 . S
C1151 C1148 1.386 . S
C1152 C1147 1.490 . S
C1152 C1154 1.395 . S
C1152 C1155 1.403 . S
H1153 C1159 0.930 . S
C1154 H1140 0.930 1_455 S
C1154 C1152 1.395 . S
C1154 C1157 1.403 1_455 S
C1155 C1152 1.403 . S
C1155 C1156 1.524 . S
C1155 C1159 1.400 . S
C1156 H1141 0.960 . S
C1156 H1142 0.960 . S
C1156 H1143 0.960 . S
C1156 C1155 1.524 . S
C1157 C1154 1.403 1_655 S
C1157 C1158 1.392 1_655 S
C1157 C1161 1.495 . S
C1158 C1157 1.392 1_455 S
C1158 C1159 1.385 . S
C1158 C1160 1.478 . S
C1159 H1153 0.930 . S
C1159 C1155 1.400 . S
C1159 C1158 1.385 . S
C1160 C1158 1.478 . S
C1160 C1162 1.405 . S
C1160 C1166 1.383 . S
C1161 C1157 1.495 . S
C1161 H1167 0.959 . S
C1161 H1168 0.961 . S
C1161 H1169 0.960 . S
C1162 C1160 1.405 . S
C1162 C1163 1.394 1_455 S
C1162 H1170 0.909 1_455 S
C1163 C1162 1.394 1_655 S
C1163 C1164 1.378 1_655 S
C1163 H1171 0.934 . S
C1164 C1163 1.378 1_455 S
C1164 C1165 1.377 . S
C1165 H1149 0.930 . S
C1165 C1164 1.377 . S
C1165 C1166 1.379 . S
C1166 H1150 0.931 . S
C1166 C1160 1.383 . S
C1166 C1165 1.379 . S
H1167 C1161 0.959 . S
H1168 C1161 0.961 . S
H1169 C1161 0.960 . S
H1170 C1162 0.909 1_655 S
H1171 C1163 0.934 . S
H1172 C1180 0.929 . S
H1173 C1182 0.930 . S
H1174 C1184 0.930 . S
H1175 C1187 0.929 . S
H1176 C1190 0.930 . S
H1177 C1192 0.960 . S
H1178 C1192 0.960 . S
H1179 C1192 0.960 . S
C1180 H1172 0.929 . S
C1180 C1181 1.377 . S
C1180 C1182 1.384 . S
C1181 C1180 1.377 . S
C1181 C1187 1.390 . S
C1182 H1173 0.930 . S
C1182 C1180 1.384 . S
C1182 C1183 1.372 . S
C1183 C1182 1.372 . S
C1183 C1184 1.400 . S
C1183 C1188 1.490 . S
C1184 H1174 0.930 . S
C1184 C1183 1.400 . S
C1184 C1187 1.386 . S
H1185 C1201 0.930 . S
H1186 C1202 0.931 . S
C1187 H1175 0.929 . S
C1187 C1181 1.390 . S
C1187 C1184 1.386 . S
C1188 C1183 1.490 . S
C1188 C1190 1.395 . S
C1188 C1191 1.403 . S
H1189 C1195 0.930 . S
C1190 H1176 0.930 . S
C1190 C1188 1.395 . S
C1190 C1193 1.403 . S
C1191 C1188 1.403 . S
C1191 C1192 1.524 . S
C1191 C1195 1.400 . S
C1192 H1177 0.960 . S
C1192 H1178 0.960 . S
C1192 H1179 0.960 . S
C1192 C1191 1.524 . S
C1193 C1190 1.403 . S
C1193 C1194 1.392 . S
C1193 C1197 1.495 . S
C1194 C1193 1.392 . S
C1194 C1195 1.385 . S
C1194 C1196 1.478 . S
C1195 H1189 0.930 . S
C1195 C1191 1.400 . S
C1195 C1194 1.385 . S
C1196 C1194 1.478 . S
C1196 C1198 1.381 . S
C1196 C1202 1.383 . S
C1197 C1193 1.495 . S
C1197 H1203 0.959 . S
C1197 H1204 0.961 . S
C1197 H1205 0.960 . S
C1198 C1196 1.381 . S
C1198 C1199 1.394 . S
C1198 H1206 0.930 . S
C1199 C1198 1.394 . S
C1199 C1200 1.383 . S
C1199 H1207 0.929 . S
C1200 C1199 1.383 . S
C1200 C1201 1.377 . S
C1201 H1185 0.930 . S
C1201 C1200 1.377 . S
C1201 C1202 1.379 . S
C1202 H1186 0.931 . S
C1202 C1196 1.383 . S
C1202 C1201 1.379 . S
H1203 C1197 0.959 . S
H1204 C1197 0.961 . S
H1205 C1197 0.960 . S
H1206 C1198 0.930 . S
H1207 C1199 0.929 . S
H1208 C1216 0.929 1_455 S
H1209 C1218 0.930 1_455 S
H1210 C1220 0.930 . S
H1211 C1223 0.929 . S
H1212 C1226 0.930 . S
H1213 C1228 0.960 . S
H1214 C1228 0.960 . S
H1215 C1228 0.960 . S
C1216 H1208 0.929 1_655 S
C1216 C1217 1.377 . S
C1216 C1218 1.384 . S
C1217 C1216 1.377 . S
C1217 C1223 1.390 . S
C1218 H1209 0.930 1_655 S
C1218 C1216 1.384 . S
C1218 C1219 1.372 . S
C1219 C1218 1.372 . S
C1219 C1220 1.400 . S
C1219 C1224 1.490 . S
C1220 H1210 0.930 . S
C1220 C1219 1.400 . S
C1220 C1223 1.386 . S
H1221 C1237 0.930 . S
H1222 C1238 0.931 . S
C1223 H1211 0.929 . S
C1223 C1217 1.390 . S
C1223 C1220 1.386 . S
C1224 C1219 1.490 . S
C1224 C1226 1.395 . S
C1224 C1227 1.403 . S
H1225 C1231 0.930 . S
C1226 H1212 0.930 . S
C1226 C1224 1.395 . S
C1226 C1229 1.403 . S
C1227 C1224 1.403 . S
C1227 C1228 1.524 . S
C1227 C1231 1.400 . S
C1228 H1213 0.960 . S
C1228 H1214 0.960 . S
C1228 H1215 0.960 . S
C1228 C1227 1.524 . S
C1229 C1226 1.403 . S
C1229 C1230 1.392 . S
C1229 C1233 1.495 1_655 S
C1230 C1229 1.392 . S
C1230 C1231 1.385 . S
C1230 C1232 1.478 . S
C1231 H1225 0.930 . S
C1231 C1227 1.400 . S
C1231 C1230 1.385 . S
C1232 C1230 1.478 . S
C1232 C1234 1.381 1_655 S
C1232 C1238 1.383 . S
C1233 C1229 1.495 1_455 S
C1233 H1239 0.959 . S
C1233 H1240 0.961 . S
C1233 H1241 0.960 . S
C1234 C1232 1.381 1_455 S
C1234 C1235 1.394 . S
C1234 H1242 0.930 . S
C1235 C1234 1.394 . S
C1235 C1236 1.383 1_455 S
C1235 H1243 0.929 . S
C1236 C1235 1.383 1_655 S
C1236 C1237 1.377 . S
C1237 H1221 0.930 . S
C1237 C1236 1.377 . S
C1237 C1238 1.379 . S
C1238 H1222 0.931 . S
C1238 C1232 1.383 . S
C1238 C1237 1.379 . S
H1239 C1233 0.959 . S
H1240 C1233 0.961 . S
H1241 C1233 0.960 . S
H1242 C1234 0.930 . S
H1243 C1235 0.929 . S
H1244 C1252 0.929 . S
H1245 C1254 0.930 . S
H1246 C1256 0.930 . S
H1247 C1259 0.929 . S
H1248 C1262 0.930 . S
H1249 C1264 0.960 . S
H1250 C1264 0.960 . S
H1251 C1264 0.960 . S
C1252 H1244 0.929 . S
C1252 C1253 1.377 . S
C1252 C1254 1.384 . S
C1253 C1252 1.377 . S
C1253 C1259 1.390 . S
C1254 H1245 0.930 . S
C1254 C1252 1.384 . S
C1254 C1255 1.372 . S
C1255 C1254 1.372 . S
C1255 C1256 1.400 . S
C1255 C1260 1.490 . S
C1256 H1246 0.930 . S
C1256 C1255 1.400 . S
C1256 C1259 1.386 . S
H1257 C1273 0.930 . S
H1258 C1274 0.931 . S
C1259 H1247 0.929 . S
C1259 C1253 1.390 . S
C1259 C1256 1.386 . S
C1260 C1255 1.490 . S
C1260 C1262 1.395 . S
C1260 C1263 1.403 . S
H1261 C1267 0.930 . S
C1262 H1248 0.930 . S
C1262 C1260 1.395 . S
C1262 C1265 1.403 . S
C1263 C1260 1.403 . S
C1263 C1264 1.524 . S
C1263 C1267 1.400 . S
C1264 H1249 0.960 . S
C1264 H1250 0.960 . S
C1264 H1251 0.960 . S
C1264 C1263 1.524 . S
C1265 C1262 1.403 . S
C1265 C1266 1.392 . S
C1265 C1269 1.495 . S
C1266 C1265 1.392 . S
C1266 C1267 1.385 . S
C1266 C1268 1.478 . S
C1267 H1261 0.930 . S
C1267 C1263 1.400 . S
C1267 C1266 1.385 . S
C1268 C1266 1.478 . S
C1268 C1270 1.381 . S
C1268 C1274 1.383 . S
C1269 C1265 1.495 . S
C1269 H1275 0.959 . S
C1269 H1276 0.961 . S
C1269 H1277 0.960 . S
C1270 C1268 1.381 . S
C1270 C1271 1.394 . S
C1270 H1278 0.930 . S
C1271 C1270 1.394 . S
C1271 C1272 1.383 . S
C1271 H1279 0.929 . S
C1272 C1271 1.383 . S
C1272 C1273 1.377 . S
C1273 H1257 0.930 . S
C1273 C1272 1.377 . S
C1273 C1274 1.379 . S
C1274 H1258 0.931 . S
C1274 C1268 1.383 . S
C1274 C1273 1.379 . S
H1275 C1269 0.959 . S
H1276 C1269 0.961 . S
H1277 C1269 0.960 . S
H1278 C1270 0.930 . S
H1279 C1271 0.929 . S
H1280 C1288 0.929 . S
H1281 C1290 0.930 . S
H1282 C1292 0.930 . S
H1283 C1295 0.929 . S
H1284 C1298 0.930 . S
H1285 C1300 0.960 . S
H1286 C1300 0.960 . S
H1287 C1300 0.960 . S
C1288 H1280 0.929 . S
C1288 C1289 1.377 . S
C1288 C1290 1.384 . S
C1289 C1288 1.377 . S
C1289 C1295 1.390 . S
C1290 H1281 0.930 . S
C1290 C1288 1.384 . S
C1290 C1291 1.372 . S
C1291 C1290 1.372 . S
C1291 C1292 1.400 . S
C1291 C1296 1.490 . S
C1292 H1282 0.930 . S
C1292 C1291 1.400 . S
C1292 C1295 1.386 . S
H1293 C1309 0.930 . S
H1294 C1310 0.931 . S
C1295 H1283 0.929 . S
C1295 C1289 1.390 . S
C1295 C1292 1.386 . S
C1296 C1291 1.490 . S
C1296 C1298 1.395 . S
C1296 C1299 1.403 . S
H1297 C1303 0.930 . S
C1298 H1284 0.930 . S
C1298 C1296 1.395 . S
C1298 C1301 1.403 . S
C1299 C1296 1.403 . S
C1299 C1300 1.524 . S
C1299 C1303 1.400 . S
C1300 H1285 0.960 . S
C1300 H1286 0.960 . S
C1300 H1287 0.960 . S
C1300 C1299 1.524 . S
C1301 C1298 1.403 . S
C1301 C1302 1.392 . S
C1301 C1305 1.495 . S
C1302 C1301 1.392 . S
C1302 C1303 1.385 . S
C1302 C1304 1.478 . S
C1303 H1297 0.930 . S
C1303 C1299 1.400 . S
C1303 C1302 1.385 . S
C1304 C1302 1.478 . S
C1304 C1306 1.381 . S
C1304 C1310 1.383 . S
C1305 C1301 1.495 . S
C1305 H1311 0.959 . S
C1305 H1312 0.961 . S
C1305 H1313 0.960 . S
C1306 C1304 1.381 . S
C1306 C1307 1.394 . S
C1306 H1314 0.930 . S
C1307 C1306 1.394 . S
C1307 C1308 1.383 . S
C1307 H1315 0.929 . S
C1308 C1307 1.383 . S
C1308 C1309 1.377 . S
C1309 H1293 0.930 . S
C1309 C1308 1.377 . S
C1309 C1310 1.379 . S
C1310 H1294 0.931 . S
C1310 C1304 1.383 . S
C1310 C1309 1.379 . S
H1311 C1305 0.959 . S
H1312 C1305 0.961 . S
H1313 C1305 0.960 . S
H1314 C1306 0.930 . S
H1315 C1307 0.929 . S
H1316 C1324 0.929 . S
H1317 C1326 0.930 . S
H1318 C1328 0.930 . S
H1319 C1331 0.929 . S
H1320 C1334 0.930 . S
H1321 C1336 0.960 . S
H1322 C1336 0.960 . S
H1323 C1336 0.960 . S
C1324 H1316 0.929 . S
C1324 C1325 1.377 . S
C1324 C1326 1.384 . S
C1325 C1324 1.377 . S
C1325 C1331 1.390 1_565 S
C1326 H1317 0.930 . S
C1326 C1324 1.384 . S
C1326 C1327 1.372 . S
C1327 C1326 1.372 . S
C1327 C1328 1.400 . S
C1327 C1332 1.490 . S
C1328 H1318 0.930 . S
C1328 C1327 1.400 . S
C1328 C1331 1.386 1_565 S
H1329 C1345 0.930 . S
H1330 C1346 0.926 1_556 S
C1331 H1319 0.929 . S
C1331 C1325 1.390 1_545 S
C1331 C1328 1.386 1_545 S
C1332 C1327 1.490 . S
C1332 C1334 1.395 1_556 S
C1332 C1335 1.403 . S
H1333 C1339 0.930 . S
C1334 H1320 0.930 . S
C1334 C1332 1.395 1_554 S
C1334 C1337 1.403 . S
C1335 C1332 1.403 . S
C1335 C1336 1.524 . S
C1335 C1339 1.400 . S
C1336 H1321 0.960 . S
C1336 H1322 0.960 . S
C1336 H1323 0.960 . S
C1336 C1335 1.524 . S
C1337 C1334 1.403 . S
C1337 C1338 1.392 1_554 S
C1337 C1341 1.495 . S
C1338 C1337 1.392 1_556 S
C1338 C1339 1.385 . S
C1338 C1340 1.468 1_556 S
C1339 H1333 0.930 . S
C1339 C1335 1.400 . S
C1339 C1338 1.385 . S
C1340 C1338 1.468 1_554 S
C1340 C1342 1.390 . S
C1340 C1346 1.383 . S
C1341 C1337 1.495 . S
C1341 H1347 0.959 . S
C1341 H1348 0.961 . S
C1341 H1349 0.960 . S
C1342 C1340 1.390 . S
C1342 C1343 1.394 . S
C1342 H1350 0.930 . S
C1343 C1342 1.394 . S
C1343 C1344 1.383 . S
C1343 H1351 0.929 . S
C1344 C1343 1.383 . S
C1344 C1345 1.377 . S
C1345 H1329 0.930 . S
C1345 C1344 1.377 . S
C1345 C1346 1.388 . S
C1346 H1330 0.926 1_554 S
C1346 C1340 1.383 . S
C1346 C1345 1.388 . S
H1347 C1341 0.959 . S
H1348 C1341 0.961 . S
H1349 C1341 0.960 . S
H1350 C1342 0.930 . S
H1351 C1343 0.929 . S
H1352 C1360 0.929 . S
H1353 C1362 0.930 . S
H1354 C1364 0.930 . S
H1355 C1367 0.929 . S
H1356 C1370 0.930 . S
H1357 C1372 0.960 . S
H1358 C1372 0.960 . S
H1359 C1372 0.960 . S
C1360 H1352 0.929 . S
C1360 C1361 1.377 . S
C1360 C1362 1.384 . S
C1361 C1360 1.377 . S
C1361 C1367 1.390 . S
C1362 H1353 0.930 . S
C1362 C1360 1.384 . S
C1362 C1363 1.372 . S
C1363 C1362 1.372 . S
C1363 C1364 1.400 . S
C1363 C1368 1.490 . S
C1364 H1354 0.930 . S
C1364 C1363 1.400 . S
C1364 C1367 1.386 . S
H1365 C1381 0.930 . S
H1366 C1382 0.931 . S
C1367 H1355 0.929 . S
C1367 C1361 1.390 . S
C1367 C1364 1.386 . S
C1368 C1363 1.490 . S
C1368 C1370 1.395 . S
C1368 C1371 1.403 . S
H1369 C1375 0.930 . S
C1370 H1356 0.930 . S
C1370 C1368 1.395 . S
C1370 C1373 1.403 . S
C1371 C1368 1.403 . S
C1371 C1372 1.524 . S
C1371 C1375 1.400 . S
C1372 H1357 0.960 . S
C1372 H1358 0.960 . S
C1372 H1359 0.960 . S
C1372 C1371 1.524 . S
C1373 C1370 1.403 . S
C1373 C1374 1.392 . S
C1373 C1377 1.495 . S
C1374 C1373 1.392 . S
C1374 C1375 1.385 . S
C1374 C1376 1.478 . S
C1375 H1369 0.930 . S
C1375 C1371 1.400 . S
C1375 C1374 1.385 . S
C1376 C1374 1.478 . S
C1376 C1378 1.381 . S
C1376 C1382 1.383 . S
C1377 C1373 1.495 . S
C1377 H1383 0.959 . S
C1377 H1384 0.961 . S
C1377 H1385 0.960 . S
C1378 C1376 1.381 . S
C1378 C1379 1.394 . S
C1378 H1386 0.930 . S
C1379 C1378 1.394 . S
C1379 C1380 1.383 . S
C1379 H1387 0.929 . S
C1380 C1379 1.383 . S
C1380 C1381 1.377 . S
C1381 H1365 0.930 . S
C1381 C1380 1.377 . S
C1381 C1382 1.379 . S
C1382 H1366 0.931 . S
C1382 C1376 1.383 . S
C1382 C1381 1.379 . S
H1383 C1377 0.959 . S
H1384 C1377 0.961 . S
H1385 C1377 0.960 . S
H1386 C1378 0.930 . S
H1387 C1379 0.929 . S
H1388 C1396 0.929 . S
H1389 C1398 0.930 . S
H1390 C1400 0.930 . S
H1391 C1403 0.929 . S
H1392 C1406 0.930 . S
H1393 C1408 0.960 . S
H1394 C1408 0.960 . S
H1395 C1408 0.960 . S
C1396 H1388 0.929 . S
C1396 C1397 1.377 . S
C1396 C1398 1.384 . S
C1397 C1396 1.377 . S
C1397 C1403 1.390 . S
C1398 H1389 0.930 . S
C1398 C1396 1.384 . S
C1398 C1399 1.372 . S
C1399 C1398 1.372 . S
C1399 C1400 1.400 . S
C1399 C1404 1.490 . S
C1400 H1390 0.930 . S
C1400 C1399 1.400 . S
C1400 C1403 1.386 . S
H1401 C1417 0.930 . S
H1402 C1418 0.931 . S
C1403 H1391 0.929 . S
C1403 C1397 1.390 . S
C1403 C1400 1.386 . S
C1404 C1399 1.490 . S
C1404 C1406 1.395 . S
C1404 C1407 1.403 . S
H1405 C1411 0.930 . S
C1406 H1392 0.930 . S
C1406 C1404 1.395 . S
C1406 C1409 1.403 . S
C1407 C1404 1.403 . S
C1407 C1408 1.524 . S
C1407 C1411 1.400 . S
C1408 H1393 0.960 . S
C1408 H1394 0.960 . S
C1408 H1395 0.960 . S
C1408 C1407 1.524 . S
C1409 C1406 1.403 . S
C1409 C1410 1.392 . S
C1409 C1413 1.495 . S
C1410 C1409 1.392 . S
C1410 C1411 1.385 . S
C1410 C1412 1.478 . S
C1411 H1405 0.930 . S
C1411 C1407 1.400 . S
C1411 C1410 1.385 . S
C1412 C1410 1.478 . S
C1412 C1414 1.381 . S
C1412 C1418 1.383 . S
C1413 C1409 1.495 . S
C1413 H1419 0.959 . S
C1413 H1420 0.961 . S
C1413 H1421 0.960 . S
C1414 C1412 1.381 . S
C1414 C1415 1.394 . S
C1414 H1422 0.930 . S
C1415 C1414 1.394 . S
C1415 C1416 1.383 . S
C1415 H1423 0.929 . S
C1416 C1415 1.383 . S
C1416 C1417 1.377 . S
C1417 H1401 0.930 . S
C1417 C1416 1.377 . S
C1417 C1418 1.379 . S
C1418 H1402 0.931 . S
C1418 C1412 1.383 . S
C1418 C1417 1.379 . S
H1419 C1413 0.959 . S
H1420 C1413 0.961 . S
H1421 C1413 0.960 . S
H1422 C1414 0.930 . S
H1423 C1415 0.929 . S
H1424 C1432 0.929 . S
H1425 C1434 0.930 . S
H1426 C1436 0.930 . S
H1427 C1439 0.929 . S
H1428 C1442 0.930 . S
H1429 C1444 0.960 . S
H1430 C1444 0.960 . S
H1431 C1444 0.960 . S
C1432 H1424 0.929 . S
C1432 C1433 1.377 . S
C1432 C1434 1.384 . S
C1433 C1432 1.377 . S
C1433 C1439 1.390 . S
C1434 H1425 0.930 . S
C1434 C1432 1.384 . S
C1434 C1435 1.372 . S
C1435 C1434 1.372 . S
C1435 C1436 1.400 . S
C1435 C1440 1.490 . S
C1436 H1426 0.930 . S
C1436 C1435 1.400 . S
C1436 C1439 1.386 . S
H1437 C1453 0.930 . S
H1438 C1454 0.931 . S
C1439 H1427 0.929 . S
C1439 C1433 1.390 . S
C1439 C1436 1.386 . S
C1440 C1435 1.490 . S
C1440 C1442 1.395 . S
C1440 C1443 1.403 . S
H1441 C1447 0.930 . S
C1442 H1428 0.930 . S
C1442 C1440 1.395 . S
C1442 C1445 1.403 . S
C1443 C1440 1.403 . S
C1443 C1444 1.524 . S
C1443 C1447 1.400 . S
C1444 H1429 0.960 . S
C1444 H1430 0.960 . S
C1444 H1431 0.960 . S
C1444 C1443 1.524 . S
C1445 C1442 1.403 . S
C1445 C1446 1.392 . S
C1445 C1449 1.495 . S
C1446 C1445 1.392 . S
C1446 C1447 1.385 . S
C1446 C1448 1.478 . S
C1447 H1441 0.930 . S
C1447 C1443 1.400 . S
C1447 C1446 1.385 . S
C1448 C1446 1.478 . S
C1448 C1450 1.381 . S
C1448 C1454 1.383 . S
C1449 C1445 1.495 . S
C1449 H1455 0.959 . S
C1449 H1456 0.961 . S
C1449 H1457 0.960 . S
C1450 C1448 1.381 . S
C1450 C1451 1.394 . S
C1450 H1458 0.930 . S
C1451 C1450 1.394 . S
C1451 C1452 1.383 . S
C1451 H1459 0.929 . S
C1452 C1451 1.383 . S
C1452 C1453 1.377 . S
C1453 H1437 0.930 . S
C1453 C1452 1.377 . S
C1453 C1454 1.379 . S
C1454 H1438 0.931 . S
C1454 C1448 1.383 . S
C1454 C1453 1.379 . S
H1455 C1449 0.959 . S
H1456 C1449 0.961 . S
H1457 C1449 0.960 . S
H1458 C1450 0.930 . S
H1459 C1451 0.929 . S
H1460 C1468 0.981 . S
H1461 C1470 0.930 . S
H1462 C1472 0.930 . S
H1463 C1475 0.929 . S
H1464 C1478 0.930 . S
H1465 C1480 0.960 . S
H1466 C1480 0.960 . S
H1467 C1480 0.960 . S
C1468 H1460 0.981 . S
C1468 C1469 1.377 . S
C1468 C1470 1.384 . S
C1469 C1468 1.377 . S
C1469 C1475 1.390 . S
C1470 H1461 0.930 . S
C1470 C1468 1.384 . S
C1470 C1471 1.372 . S
C1471 C1470 1.372 . S
C1471 C1472 1.400 . S
C1471 C1476 1.490 . S
C1472 H1462 0.930 . S
C1472 C1471 1.400 . S
C1472 C1475 1.386 . S
H1473 C1489 0.930 . S
H1474 C1490 0.931 . S
C1475 H1463 0.929 . S
C1475 C1469 1.390 . S
C1475 C1472 1.386 . S
C1476 C1471 1.490 . S
C1476 C1478 1.395 . S
C1476 C1479 1.403 . S
H1477 C1483 0.930 . S
C1478 H1464 0.930 . S
C1478 C1476 1.395 . S
C1478 C1481 1.403 . S
C1479 C1476 1.403 . S
C1479 C1480 1.524 . S
C1479 C1483 1.400 . S
C1480 H1465 0.960 . S
C1480 H1466 0.960 . S
C1480 H1467 0.960 . S
C1480 C1479 1.524 . S
C1481 C1478 1.403 . S
C1481 C1482 1.392 . S
C1481 C1485 1.495 . S
C1482 C1481 1.392 . S
C1482 C1483 1.385 . S
C1482 C1484 1.478 . S
C1483 H1477 0.930 . S
C1483 C1479 1.400 . S
C1483 C1482 1.385 . S
C1484 C1482 1.478 . S
C1484 C1486 1.381 . S
C1484 C1490 1.383 . S
C1485 C1481 1.495 . S
C1485 H1491 0.959 . S
C1485 H1492 0.961 . S
C1485 H1493 0.960 . S
C1486 C1484 1.381 . S
C1486 C1487 1.394 . S
C1486 H1494 0.930 . S
C1487 C1486 1.394 . S
C1487 C1488 1.383 . S
C1487 H1495 0.929 . S
C1488 C1487 1.383 . S
C1488 C1489 1.377 . S
C1489 H1473 0.930 . S
C1489 C1488 1.377 . S
C1489 C1490 1.379 . S
C1490 H1474 0.931 . S
C1490 C1484 1.383 . S
C1490 C1489 1.379 . S
H1491 C1485 0.959 . S
H1492 C1485 0.961 . S
H1493 C1485 0.960 . S
H1494 C1486 0.930 . S
H1495 C1487 0.929 . S
H1496 C1504 0.929 . S
H1497 C1506 0.930 . S
H1498 C1508 0.930 . S
H1499 C1511 0.929 . S
H1500 C1514 0.930 . S
H1501 C1516 0.960 . S
H1502 C1516 0.960 . S
H1503 C1516 0.960 . S
C1504 H1496 0.929 . S
C1504 C1505 1.377 . S
C1504 C1506 1.384 . S
C1505 C1504 1.377 . S
C1505 C1511 1.390 . S
C1506 H1497 0.930 . S
C1506 C1504 1.384 . S
C1506 C1507 1.372 . S
C1507 C1506 1.372 . S
C1507 C1508 1.400 . S
C1507 C1512 1.490 . S
C1508 H1498 0.930 . S
C1508 C1507 1.400 . S
C1508 C1511 1.386 . S
H1509 C1525 0.930 . S
H1510 C1526 0.931 . S
C1511 H1499 0.929 . S
C1511 C1505 1.390 . S
C1511 C1508 1.386 . S
C1512 C1507 1.490 . S
C1512 C1514 1.395 . S
C1512 C1515 1.403 . S
H1513 C1519 0.930 . S
C1514 H1500 0.930 . S
C1514 C1512 1.395 . S
C1514 C1517 1.403 . S
C1515 C1512 1.403 . S
C1515 C1516 1.524 . S
C1515 C1519 1.400 . S
C1516 H1501 0.960 . S
C1516 H1502 0.960 . S
C1516 H1503 0.960 . S
C1516 C1515 1.524 . S
C1517 C1514 1.403 . S
C1517 C1518 1.392 . S
C1517 C1521 1.495 . S
C1518 C1517 1.392 . S
C1518 C1519 1.385 . S
C1518 C1520 1.478 . S
C1519 H1513 0.930 . S
C1519 C1515 1.400 . S
C1519 C1518 1.385 . S
C1520 C1518 1.478 . S
C1520 C1522 1.381 . S
C1520 C1526 1.383 . S
C1521 C1517 1.495 . S
C1521 H1527 0.959 . S
C1521 H1528 0.961 . S
C1521 H1529 0.960 . S
C1522 C1520 1.381 . S
C1522 C1523 1.394 . S
C1522 H1530 0.930 . S
C1523 C1522 1.394 . S
C1523 C1524 1.383 . S
C1523 H1531 0.929 . S
C1524 C1523 1.383 . S
C1524 C1525 1.377 . S
C1525 H1509 0.930 . S
C1525 C1524 1.377 . S
C1525 C1526 1.379 . S
C1526 H1510 0.931 . S
C1526 C1520 1.383 . S
C1526 C1525 1.379 . S
H1527 C1521 0.959 . S
H1528 C1521 0.961 . S
H1529 C1521 0.960 . S
H1530 C1522 0.930 . S
H1531 C1523 0.929 . S
H1532 C1540 0.929 . S
H1533 C1542 0.930 . S
H1534 C1544 0.930 . S
H1535 C1547 0.929 . S
H1536 C1550 0.930 . S
H1537 C1552 0.960 . S
H1538 C1552 0.960 . S
H1539 C1552 0.960 . S
C1540 H1532 0.929 . S
C1540 C1541 1.377 . S
C1540 C1542 1.384 . S
C1541 C1540 1.377 . S
C1541 C1547 1.390 . S
C1542 H1533 0.930 . S
C1542 C1540 1.384 . S
C1542 C1543 1.372 . S
C1543 C1542 1.372 . S
C1543 C1544 1.400 . S
C1543 C1548 1.490 . S
C1544 H1534 0.930 . S
C1544 C1543 1.400 . S
C1544 C1547 1.386 . S
H1545 C1561 0.930 . S
H1546 C1562 0.931 . S
C1547 H1535 0.929 . S
C1547 C1541 1.390 . S
C1547 C1544 1.386 . S
C1548 C1543 1.490 . S
C1548 C1550 1.395 . S
C1548 C1551 1.403 . S
H1549 C1555 0.930 . S
C1550 H1536 0.930 . S
C1550 C1548 1.395 . S
C1550 C1553 1.403 . S
C1551 C1548 1.403 . S
C1551 C1552 1.524 . S
C1551 C1555 1.400 . S
C1552 H1537 0.960 . S
C1552 H1538 0.960 . S
C1552 H1539 0.960 . S
C1552 C1551 1.524 . S
C1553 C1550 1.403 . S
C1553 C1554 1.392 . S
C1553 C1557 1.495 . S
C1554 C1553 1.392 . S
C1554 C1555 1.385 . S
C1554 C1556 1.478 . S
C1555 H1549 0.930 . S
C1555 C1551 1.400 . S
C1555 C1554 1.385 . S
C1556 C1554 1.478 . S
C1556 C1558 1.381 . S
C1556 C1562 1.383 . S
C1557 C1553 1.495 . S
C1557 H1563 0.959 . S
C1557 H1564 0.961 . S
C1557 H1565 0.960 . S
C1558 C1556 1.381 . S
C1558 C1559 1.394 . S
C1558 H1566 0.930 . S
C1559 C1558 1.394 . S
C1559 C1560 1.383 . S
C1559 H1567 0.929 . S
C1560 C1559 1.383 . S
C1560 C1561 1.377 . S
C1561 H1545 0.930 . S
C1561 C1560 1.377 . S
C1561 C1562 1.379 . S
C1562 H1546 0.931 . S
C1562 C1556 1.383 . S
C1562 C1561 1.379 . S
H1563 C1557 0.959 . S
H1564 C1557 0.961 . S
H1565 C1557 0.960 . S
H1566 C1558 0.930 . S
H1567 C1559 0.929 . S
H1568 C1576 0.929 . S
H1569 C1578 0.930 . S
H1570 C1580 0.930 . S
H1571 C1583 0.929 . S
H1572 C1586 0.930 . S
H1573 C1588 0.960 . S
H1574 C1588 0.960 . S
H1575 C1588 0.960 . S
C1576 H1568 0.929 . S
C1576 C1577 1.377 . S
C1576 C1578 1.384 . S
C1577 C1576 1.377 . S
C1577 C1583 1.390 . S
C1578 H1569 0.930 . S
C1578 C1576 1.384 . S
C1578 C1579 1.372 . S
C1579 C1578 1.372 . S
C1579 C1580 1.400 . S
C1579 C1584 1.490 . S
C1580 H1570 0.930 . S
C1580 C1579 1.400 . S
C1580 C1583 1.386 . S
H1581 C1597 0.930 . S
H1582 C1598 0.969 . S
C1583 H1571 0.929 . S
C1583 C1577 1.390 . S
C1583 C1580 1.386 . S
C1584 C1579 1.490 . S
C1584 C1586 1.395 . S
C1584 C1587 1.403 . S
H1585 C1591 0.930 . S
C1586 H1572 0.930 . S
C1586 C1584 1.395 . S
C1586 C1589 1.403 . S
C1587 C1584 1.403 . S
C1587 C1588 1.524 . S
C1587 C1591 1.400 . S
C1588 H1573 0.960 . S
C1588 H1574 0.960 . S
C1588 H1575 0.960 . S
C1588 C1587 1.524 . S
C1589 C1586 1.403 . S
C1589 C1590 1.392 . S
C1589 C1593 1.495 . S
C1590 C1589 1.392 . S
C1590 C1591 1.385 . S
C1590 C1592 1.478 . S
C1591 H1585 0.930 . S
C1591 C1587 1.400 . S
C1591 C1590 1.385 . S
C1592 C1590 1.478 . S
C1592 C1594 1.381 . S
C1592 C1598 1.338 1_545 S
C1593 C1589 1.495 . S
C1593 H1599 0.959 . S
C1593 H1600 0.961 1_545 S
C1593 H1601 0.960 . S
C1594 C1592 1.381 . S
C1594 C1595 1.394 . S
C1594 H1602 0.930 . S
C1595 C1594 1.394 . S
C1595 C1596 1.383 . S
C1595 H1603 0.929 . S
C1596 C1595 1.383 . S
C1596 C1597 1.377 1_545 S
C1597 H1581 0.930 . S
C1597 C1596 1.377 1_565 S
C1597 C1598 1.390 . S
C1598 H1582 0.969 . S
C1598 C1592 1.338 1_565 S
C1598 C1597 1.390 . S
H1599 C1593 0.959 . S
H1600 C1593 0.961 1_565 S
H1601 C1593 0.960 . S
H1602 C1594 0.930 . S
H1603 C1595 0.929 . S
H1604 C1612 0.929 . S
H1605 C1614 0.930 . S
H1606 C1616 0.930 . S
H1607 C1619 0.929 . S
H1608 C1622 0.930 . S
H1609 C1624 0.960 . S
H1610 C1624 0.960 . S
H1611 C1624 0.960 . S
C1612 H1604 0.929 . S
C1612 C1613 1.377 . S
C1612 C1614 1.384 . S
C1613 C1612 1.377 . S
C1613 C1619 1.390 . S
C1614 H1605 0.930 . S
C1614 C1612 1.384 . S
C1614 C1615 1.372 . S
C1615 C1614 1.372 . S
C1615 C1616 1.400 . S
C1615 C1620 1.490 . S
C1616 H1606 0.930 . S
C1616 C1615 1.400 . S
C1616 C1619 1.386 . S
H1617 C1633 0.930 . S
H1618 C1634 0.931 . S
C1619 H1607 0.929 . S
C1619 C1613 1.390 . S
C1619 C1616 1.386 . S
C1620 C1615 1.490 . S
C1620 C1622 1.395 . S
C1620 C1623 1.403 . S
H1621 C1627 0.930 . S
C1622 H1608 0.930 . S
C1622 C1620 1.395 . S
C1622 C1625 1.403 . S
C1623 C1620 1.403 . S
C1623 C1624 1.524 . S
C1623 C1627 1.400 . S
C1624 H1609 0.960 . S
C1624 H1610 0.960 . S
C1624 H1611 0.960 . S
C1624 C1623 1.524 . S
C1625 C1622 1.403 . S
C1625 C1626 1.392 . S
C1625 C1629 1.495 . S
C1626 C1625 1.392 . S
C1626 C1627 1.385 . S
C1626 C1628 1.478 . S
C1627 H1621 0.930 . S
C1627 C1623 1.400 . S
C1627 C1626 1.385 . S
C1628 C1626 1.478 . S
C1628 C1630 1.381 . S
C1628 C1634 1.383 . S
C1629 C1625 1.495 . S
C1629 H1635 0.959 . S
C1629 H1636 0.961 . S
C1629 H1637 0.960 . S
C1630 C1628 1.381 . S
C1630 C1631 1.394 . S
C1630 H1638 0.930 . S
C1631 C1630 1.394 . S
C1631 C1632 1.383 . S
C1631 H1639 0.929 . S
C1632 C1631 1.383 . S
C1632 C1633 1.377 . S
C1633 H1617 0.930 . S
C1633 C1632 1.377 . S
C1633 C1634 1.379 . S
C1634 H1618 0.931 . S
C1634 C1628 1.383 . S
C1634 C1633 1.379 . S
H1635 C1629 0.959 . S
H1636 C1629 0.961 . S
H1637 C1629 0.960 . S
H1638 C1630 0.930 . S
H1639 C1631 0.929 . S
H1640 C1648 0.929 . S
H1641 C1650 0.930 . S
H1642 C1652 0.930 . S
H1643 C1655 0.929 . S
H1644 C1658 0.930 . S
H1645 C1660 0.960 . S
H1646 C1660 0.960 . S
H1647 C1660 0.960 . S
C1648 H1640 0.929 . S
C1648 C1649 1.377 . S
C1648 C1650 1.384 . S
C1649 C1648 1.377 . S
C1649 C1655 1.390 . S
C1650 H1641 0.930 . S
C1650 C1648 1.384 . S
C1650 C1651 1.372 . S
C1651 C1650 1.372 . S
C1651 C1652 1.400 . S
C1651 C1656 1.490 . S
C1652 H1642 0.930 . S
C1652 C1651 1.400 . S
C1652 C1655 1.386 . S
H1653 C1669 0.930 . S
H1654 C1670 0.931 . S
C1655 H1643 0.929 . S
C1655 C1649 1.390 . S
C1655 C1652 1.386 . S
C1656 C1651 1.490 . S
C1656 C1658 1.395 . S
C1656 C1659 1.403 . S
H1657 C1663 0.930 . S
C1658 H1644 0.930 . S
C1658 C1656 1.395 . S
C1658 C1661 1.403 . S
C1659 C1656 1.403 . S
C1659 C1660 1.524 . S
C1659 C1663 1.400 . S
C1660 H1645 0.960 . S
C1660 H1646 0.960 . S
C1660 H1647 0.960 . S
C1660 C1659 1.524 . S
C1661 C1658 1.403 . S
C1661 C1662 1.392 . S
C1661 C1665 1.495 . S
C1662 C1661 1.392 . S
C1662 C1663 1.385 . S
C1662 C1664 1.478 . S
C1663 H1657 0.930 . S
C1663 C1659 1.400 . S
C1663 C1662 1.385 . S
C1664 C1662 1.478 . S
C1664 C1666 1.381 . S
C1664 C1670 1.383 . S
C1665 C1661 1.495 . S
C1665 H1671 0.959 . S
C1665 H1672 0.961 . S
C1665 H1673 0.960 . S
C1666 C1664 1.381 . S
C1666 C1667 1.394 . S
C1666 H1674 0.930 . S
C1667 C1666 1.394 . S
C1667 C1668 1.383 . S
C1667 H1675 0.929 . S
C1668 C1667 1.383 . S
C1668 C1669 1.377 . S
C1669 H1653 0.930 . S
C1669 C1668 1.377 . S
C1669 C1670 1.379 . S
C1670 H1654 0.931 . S
C1670 C1664 1.383 . S
C1670 C1669 1.379 . S
H1671 C1665 0.959 . S
H1672 C1665 0.961 . S
H1673 C1665 0.960 . S
H1674 C1666 0.930 . S
H1675 C1667 0.929 . S
H1676 C1684 0.929 . S
H1677 C1686 0.930 . S
H1678 C1688 0.930 . S
H1679 C1691 0.929 . S
H1680 C1694 0.930 . S
H1681 C1696 0.960 . S
H1682 C1696 0.960 . S
H1683 C1696 0.960 . S
C1684 H1676 0.929 . S
C1684 C1685 1.377 . S
C1684 C1686 1.384 . S
C1685 C1684 1.377 . S
C1685 C1691 1.390 . S
C1686 H1677 0.930 . S
C1686 C1684 1.384 . S
C1686 C1687 1.372 . S
C1687 C1686 1.372 . S
C1687 C1688 1.400 . S
C1687 C1692 1.490 . S
C1688 H1678 0.930 . S
C1688 C1687 1.400 . S
C1688 C1691 1.386 . S
H1689 C1705 0.930 . S
H1690 C1706 0.931 . S
C1691 H1679 0.929 . S
C1691 C1685 1.390 . S
C1691 C1688 1.386 . S
C1692 C1687 1.490 . S
C1692 C1694 1.395 . S
C1692 C1695 1.403 . S
H1693 C1699 0.930 . S
C1694 H1680 0.930 . S
C1694 C1692 1.395 . S
C1694 C1697 1.403 . S
C1695 C1692 1.403 . S
C1695 C1696 1.524 . S
C1695 C1699 1.400 . S
C1696 H1681 0.960 . S
C1696 H1682 0.960 . S
C1696 H1683 0.960 . S
C1696 C1695 1.524 . S
C1697 C1694 1.403 . S
C1697 C1698 1.392 . S
C1697 C1701 1.495 . S
C1698 C1697 1.392 . S
C1698 C1699 1.385 . S
C1698 C1700 1.478 . S
C1699 H1693 0.930 . S
C1699 C1695 1.400 . S
C1699 C1698 1.385 . S
C1700 C1698 1.478 . S
C1700 C1702 1.381 . S
C1700 C1706 1.383 . S
C1701 C1697 1.495 . S
C1701 H1707 0.959 . S
C1701 H1708 0.961 . S
C1701 H1709 0.960 . S
C1702 C1700 1.381 . S
C1702 C1703 1.394 . S
C1702 H1710 0.930 . S
C1703 C1702 1.394 . S
C1703 C1704 1.383 . S
C1703 H1711 0.929 . S
C1704 C1703 1.383 . S
C1704 C1705 1.377 . S
C1705 H1689 0.930 . S
C1705 C1704 1.377 . S
C1705 C1706 1.379 . S
C1706 H1690 0.931 . S
C1706 C1700 1.383 . S
C1706 C1705 1.379 . S
H1707 C1701 0.959 . S
H1708 C1701 0.961 . S
H1709 C1701 0.960 . S
H1710 C1702 0.930 . S
H1711 C1703 0.929 . S
H1712 C1720 0.929 1_455 S
H1713 C1722 0.930 . S
H1714 C1724 0.930 . S
H1715 C1727 0.929 . S
H1716 C1730 0.930 . S
H1717 C1732 0.960 . S
H1718 C1732 0.960 . S
H1719 C1732 0.960 . S
C1720 H1712 0.929 1_655 S
C1720 C1721 1.377 . S
C1720 C1722 1.384 . S
C1721 C1720 1.377 . S
C1721 C1727 1.390 . S
C1722 H1713 0.930 . S
C1722 C1720 1.384 . S
C1722 C1723 1.372 . S
C1723 C1722 1.372 . S
C1723 C1724 1.400 . S
C1723 C1728 1.490 . S
C1724 H1714 0.930 . S
C1724 C1723 1.400 . S
C1724 C1727 1.386 . S
H1725 C1741 0.930 . S
H1726 C1742 0.931 . S
C1727 H1715 0.929 . S
C1727 C1721 1.390 . S
C1727 C1724 1.386 . S
C1728 C1723 1.490 . S
C1728 C1730 1.395 . S
C1728 C1731 1.403 . S
H1729 C1735 0.930 . S
C1730 H1716 0.930 . S
C1730 C1728 1.395 . S
C1730 C1733 1.403 . S
C1731 C1728 1.403 . S
C1731 C1732 1.524 . S
C1731 C1735 1.400 . S
C1732 H1717 0.960 . S
C1732 H1718 0.960 . S
C1732 H1719 0.960 . S
C1732 C1731 1.524 . S
C1733 C1730 1.403 . S
C1733 C1734 1.392 . S
C1733 C1737 1.495 . S
C1734 C1733 1.392 . S
C1734 C1735 1.385 . S
C1734 C1736 1.478 . S
C1735 H1729 0.930 . S
C1735 C1731 1.400 . S
C1735 C1734 1.385 . S
C1736 C1734 1.478 . S
C1736 C1738 1.381 . S
C1736 C1742 1.383 . S
C1737 C1733 1.495 . S
C1737 H1743 0.959 . S
C1737 H1744 0.961 . S
C1737 H1745 0.960 . S
C1738 C1736 1.381 . S
C1738 C1739 1.394 . S
C1738 H1746 0.930 . S
C1739 C1738 1.394 . S
C1739 C1740 1.383 . S
C1739 H1747 0.871 1_545 S
C1740 C1739 1.383 . S
C1740 C1741 1.377 . S
C1741 H1725 0.930 . S
C1741 C1740 1.377 . S
C1741 C1742 1.379 . S
C1742 H1726 0.931 . S
C1742 C1736 1.383 . S
C1742 C1741 1.379 . S
H1743 C1737 0.959 . S
H1744 C1737 0.961 . S
H1745 C1737 0.960 . S
H1746 C1738 0.930 . S
H1747 C1739 0.871 1_565 S
H1748 C1756 0.929 . S
H1749 C1758 0.930 . S
H1750 C1760 0.930 . S
H1751 C1763 0.929 . S
H1752 C1766 0.930 . S
H1753 C1768 0.960 . S
H1754 C1768 0.960 . S
H1755 C1768 0.960 . S
C1756 H1748 0.929 . S
C1756 C1757 1.377 . S
C1756 C1758 1.384 . S
C1757 C1756 1.377 . S
C1757 C1763 1.390 . S
C1758 H1749 0.930 . S
C1758 C1756 1.384 . S
C1758 C1759 1.372 . S
C1759 C1758 1.372 . S
C1759 C1760 1.400 . S
C1759 C1764 1.490 . S
C1760 H1750 0.930 . S
C1760 C1759 1.400 . S
C1760 C1763 1.386 . S
H1761 C1777 0.930 . S
H1762 C1778 0.931 . S
C1763 H1751 0.929 . S
C1763 C1757 1.390 . S
C1763 C1760 1.386 . S
C1764 C1759 1.490 . S
C1764 C1766 1.395 . S
C1764 C1767 1.403 . S
H1765 C1771 0.930 . S
C1766 H1752 0.930 . S
C1766 C1764 1.395 . S
C1766 C1769 1.403 . S
C1767 C1764 1.403 . S
C1767 C1768 1.524 . S
C1767 C1771 1.400 . S
C1768 H1753 0.960 . S
C1768 H1754 0.960 . S
C1768 H1755 0.960 . S
C1768 C1767 1.524 . S
C1769 C1766 1.403 . S
C1769 C1770 1.392 . S
C1769 C1773 1.495 . S
C1770 C1769 1.392 . S
C1770 C1771 1.385 . S
C1770 C1772 1.478 . S
C1771 H1765 0.930 . S
C1771 C1767 1.400 . S
C1771 C1770 1.385 . S
C1772 C1770 1.478 . S
C1772 C1774 1.381 . S
C1772 C1778 1.383 . S
C1773 C1769 1.495 . S
C1773 H1779 0.959 . S
C1773 H1780 0.961 . S
C1773 H1781 0.960 . S
C1774 C1772 1.381 . S
C1774 C1775 1.394 . S
C1774 H1782 0.930 . S
C1775 C1774 1.394 . S
C1775 C1776 1.383 . S
C1775 H1783 0.929 . S
C1776 C1775 1.383 . S
C1776 C1777 1.377 . S
C1777 H1761 0.930 . S
C1777 C1776 1.377 . S
C1777 C1778 1.379 . S
C1778 H1762 0.931 . S
C1778 C1772 1.383 . S
C1778 C1777 1.379 . S
H1779 C1773 0.959 . S
H1780 C1773 0.961 . S
H1781 C1773 0.960 . S
H1782 C1774 0.930 . S
H1783 C1775 0.929 . S
H1784 C1792 0.929 1_655 S
H1785 C1794 0.930 . S
H1786 C1796 0.930 . S
H1787 C1799 0.929 . S
H1788 C1802 0.930 . S
H1789 C1804 0.960 . S
H1790 C1804 0.960 . S
H1791 C1804 0.960 . S
C1792 H1784 0.929 1_455 S
C1792 C1793 1.377 . S
C1792 C1794 1.384 . S
C1793 C1792 1.377 . S
C1793 C1799 1.390 . S
C1794 H1785 0.930 . S
C1794 C1792 1.384 . S
C1794 C1795 1.372 . S
C1795 C1794 1.372 . S
C1795 C1796 1.400 . S
C1795 C1800 1.490 . S
C1796 H1786 0.930 . S
C1796 C1795 1.400 . S
C1796 C1799 1.386 . S
H1797 C1813 0.930 . S
H1798 C1814 0.931 . S
C1799 H1787 0.929 . S
C1799 C1793 1.390 . S
C1799 C1796 1.386 . S
C1800 C1795 1.490 . S
C1800 C1802 1.395 . S
C1800 C1803 1.403 . S
H1801 C1807 0.930 . S
C1802 H1788 0.930 . S
C1802 C1800 1.395 . S
C1802 C1805 1.403 . S
C1803 C1800 1.403 . S
C1803 C1804 1.524 . S
C1803 C1807 1.400 . S
C1804 H1789 0.960 . S
C1804 H1790 0.960 . S
C1804 H1791 0.960 . S
C1804 C1803 1.524 . S
C1805 C1802 1.403 . S
C1805 C1806 1.392 . S
C1805 C1809 1.495 . S
C1806 C1805 1.392 . S
C1806 C1807 1.385 . S
C1806 C1808 1.478 . S
C1807 H1801 0.930 . S
C1807 C1803 1.400 . S
C1807 C1806 1.385 . S
C1808 C1806 1.478 . S
C1808 C1810 1.381 . S
C1808 C1814 1.383 . S
C1809 C1805 1.495 . S
C1809 H1815 0.959 . S
C1809 H1816 0.961 . S
C1809 H1817 0.960 . S
C1810 C1808 1.381 . S
C1810 C1811 1.394 . S
C1810 H1818 0.930 . S
C1811 C1810 1.394 . S
C1811 C1812 1.383 . S
C1811 H1819 0.929 . S
C1812 C1811 1.383 . S
C1812 C1813 1.377 . S
C1813 H1797 0.930 . S
C1813 C1812 1.377 . S
C1813 C1814 1.379 . S
C1814 H1798 0.931 . S
C1814 C1808 1.383 . S
C1814 C1813 1.379 . S
H1815 C1809 0.959 . S
H1816 C1809 0.961 . S
H1817 C1809 0.960 . S
H1818 C1810 0.930 . S
H1819 C1811 0.929 . S
H1820 C1828 0.929 . S
H1821 C1830 0.930 . S
H1822 C1832 0.930 . S
H1823 C1835 0.929 . S
H1824 C1838 0.930 . S
H1825 C1840 0.960 . S
H1826 C1840 0.960 . S
H1827 C1840 0.960 . S
C1828 H1820 0.929 . S
C1828 C1829 1.377 . S
C1828 C1830 1.384 . S
C1829 C1828 1.377 . S
C1829 C1835 1.390 . S
C1830 H1821 0.930 . S
C1830 C1828 1.384 . S
C1830 C1831 1.372 . S
C1831 C1830 1.372 . S
C1831 C1832 1.400 . S
C1831 C1836 1.490 . S
C1832 H1822 0.930 . S
C1832 C1831 1.400 . S
C1832 C1835 1.386 . S
H1833 C1849 0.930 . S
H1834 C1850 0.931 . S
C1835 H1823 0.929 . S
C1835 C1829 1.390 . S
C1835 C1832 1.386 . S
C1836 C1831 1.490 . S
C1836 C1838 1.395 . S
C1836 C1839 1.403 . S
H1837 C1843 0.930 . S
C1838 H1824 0.930 . S
C1838 C1836 1.395 . S
C1838 C1841 1.403 . S
C1839 C1836 1.403 . S
C1839 C1840 1.524 . S
C1839 C1843 1.400 . S
C1840 H1825 0.960 . S
C1840 H1826 0.960 . S
C1840 H1827 0.960 . S
C1840 C1839 1.524 . S
C1841 C1838 1.403 . S
C1841 C1842 1.392 . S
C1841 C1845 1.495 . S
C1842 C1841 1.392 . S
C1842 C1843 1.385 . S
C1842 C1844 1.478 . S
C1843 H1837 0.930 . S
C1843 C1839 1.400 . S
C1843 C1842 1.385 . S
C1844 C1842 1.478 . S
C1844 C1846 1.381 . S
C1844 C1850 1.383 . S
C1845 C1841 1.495 . S
C1845 H1851 0.959 . S
C1845 H1852 0.961 . S
C1845 H1853 0.960 . S
C1846 C1844 1.381 . S
C1846 C1847 1.394 . S
C1846 H1854 0.930 . S
C1847 C1846 1.394 . S
C1847 C1848 1.383 . S
C1847 H1855 0.929 . S
C1848 C1847 1.383 . S
C1848 C1849 1.377 . S
C1849 H1833 0.930 . S
C1849 C1848 1.377 . S
C1849 C1850 1.379 . S
C1850 H1834 0.931 . S
C1850 C1844 1.383 . S
C1850 C1849 1.379 . S
H1851 C1845 0.959 . S
H1852 C1845 0.961 . S
H1853 C1845 0.960 . S
H1854 C1846 0.930 . S
H1855 C1847 0.929 . S
H1856 C1864 0.969 . S
H1857 C1866 0.930 . S
H1858 C1868 0.930 . S
H1859 C1871 0.929 . S
H1860 C1874 0.930 . S
H1861 C1876 0.960 . S
H1862 C1876 0.960 . S
H1863 C1876 0.960 . S
C1864 H1856 0.969 . S
C1864 C1865 1.360 1_554 S
C1864 C1866 1.363 1_554 S
C1865 C1864 1.360 1_556 S
C1865 C1871 1.390 . S
C1866 H1857 0.930 . S
C1866 C1864 1.363 1_556 S
C1866 C1867 1.372 . S
C1867 C1866 1.372 . S
C1867 C1868 1.400 . S
C1867 C1872 1.490 . S
C1868 H1858 0.930 . S
C1868 C1867 1.400 . S
C1868 C1871 1.386 . S
H1869 C1885 0.930 . S
H1870 C1886 0.931 . S
C1871 H1859 0.929 . S
C1871 C1865 1.390 . S
C1871 C1868 1.386 . S
C1872 C1867 1.490 . S
C1872 C1874 1.395 . S
C1872 C1875 1.403 . S
H1873 C1879 0.930 1_455 S
C1874 H1860 0.930 . S
C1874 C1872 1.395 . S
C1874 C1877 1.403 . S
C1875 C1872 1.403 . S
C1875 C1876 1.524 1_655 S
C1875 C1879 1.400 . S
C1876 H1861 0.960 . S
C1876 H1862 0.960 . S
C1876 H1863 0.960 . S
C1876 C1875 1.524 1_455 S
C1877 C1874 1.403 . S
C1877 C1878 1.392 . S
C1877 C1881 1.495 . S
C1878 C1877 1.392 . S
C1878 C1879 1.385 . S
C1878 C1880 1.478 . S
C1879 H1873 0.930 1_655 S
C1879 C1875 1.400 . S
C1879 C1878 1.385 . S
C1880 C1878 1.478 . S
C1880 C1882 1.381 . S
C1880 C1886 1.383 . S
C1881 C1877 1.495 . S
C1881 H1887 0.959 . S
C1881 H1888 0.961 . S
C1881 H1889 0.960 . S
C1882 C1880 1.381 . S
C1882 C1883 1.387 1_655 S
C1882 H1890 0.930 . S
C1883 C1882 1.387 1_455 S
C1883 C1884 1.378 1_455 S
C1883 H1891 0.943 . S
C1884 C1883 1.378 1_655 S
C1884 C1885 1.377 . S
C1885 H1869 0.930 . S
C1885 C1884 1.377 . S
C1885 C1886 1.379 . S
C1886 H1870 0.931 . S
C1886 C1880 1.383 . S
C1886 C1885 1.379 . S
H1887 C1881 0.959 . S
H1888 C1881 0.961 . S
H1889 C1881 0.960 . S
H1890 C1882 0.930 . S
H1891 C1883 0.943 . S
H1892 C1900 0.929 . S
H1893 C1902 0.930 . S
H1894 C1904 0.930 . S
H1895 C1907 0.929 . S
H1896 C1910 0.930 . S
H1897 C1912 0.960 . S
H1898 C1912 0.960 . S
H1899 C1912 0.960 . S
C1900 H1892 0.929 . S
C1900 C1901 1.377 . S
C1900 C1902 1.384 . S
C1901 C1900 1.377 . S
C1901 C1907 1.390 . S
C1902 H1893 0.930 . S
C1902 C1900 1.384 . S
C1902 C1903 1.372 . S
C1903 C1902 1.372 . S
C1903 C1904 1.400 . S
C1903 C1908 1.490 . S
C1904 H1894 0.930 . S
C1904 C1903 1.400 . S
C1904 C1907 1.386 . S
H1905 C1921 0.930 . S
H1906 C1922 0.931 . S
C1907 H1895 0.929 . S
C1907 C1901 1.390 . S
C1907 C1904 1.386 . S
C1908 C1903 1.490 . S
C1908 C1910 1.395 . S
C1908 C1911 1.403 . S
H1909 C1915 0.930 . S
C1910 H1896 0.930 . S
C1910 C1908 1.395 . S
C1910 C1913 1.403 . S
C1911 C1908 1.403 . S
C1911 C1912 1.524 . S
C1911 C1915 1.400 . S
C1912 H1897 0.960 . S
C1912 H1898 0.960 . S
C1912 H1899 0.960 . S
C1912 C1911 1.524 . S
C1913 C1910 1.403 . S
C1913 C1914 1.392 . S
C1913 C1917 1.495 . S
C1914 C1913 1.392 . S
C1914 C1915 1.385 . S
C1914 C1916 1.478 . S
C1915 H1909 0.930 . S
C1915 C1911 1.400 . S
C1915 C1914 1.385 . S
C1916 C1914 1.478 . S
C1916 C1918 1.381 . S
C1916 C1922 1.383 . S
C1917 C1913 1.495 . S
C1917 H1923 0.959 . S
C1917 H1924 0.961 . S
C1917 H1925 0.960 . S
C1918 C1916 1.381 . S
C1918 C1919 1.394 . S
C1918 H1926 0.930 . S
C1919 C1918 1.394 . S
C1919 C1920 1.383 . S
C1919 H1927 0.929 . S
C1920 C1919 1.383 . S
C1920 C1921 1.377 . S
C1921 H1905 0.930 . S
C1921 C1920 1.377 . S
C1921 C1922 1.379 . S
C1922 H1906 0.931 . S
C1922 C1916 1.383 . S
C1922 C1921 1.379 . S
H1923 C1917 0.959 . S
H1924 C1917 0.961 . S
H1925 C1917 0.960 . S
H1926 C1918 0.930 . S
H1927 C1919 0.929 . S
H1928 C1936 0.929 . S
H1929 C1938 0.920 1_554 S
H1930 C1940 0.930 . S
H1931 C1943 0.929 . S
H1932 C1946 0.930 . S
H1933 C1948 0.960 . S
H1934 C1948 0.960 1_655 S
H1935 C1948 0.960 . S
C1936 H1928 0.929 . S
C1936 C1937 1.377 . S
C1936 C1938 1.366 1_554 S
C1937 C1936 1.377 . S
C1937 C1943 1.390 1_554 S
C1938 H1929 0.920 1_556 S
C1938 C1936 1.366 1_556 S
C1938 C1939 1.400 . S
C1939 C1938 1.400 . S
C1939 C1940 1.400 . S
C1939 C1944 1.490 . S
C1940 H1930 0.930 . S
C1940 C1939 1.400 . S
C1940 C1943 1.386 . S
H1941 C1957 0.930 . S
H1942 C1958 0.931 . S
C1943 H1931 0.929 . S
C1943 C1937 1.390 1_556 S
C1943 C1940 1.386 . S
C1944 C1939 1.490 . S
C1944 C1946 1.395 . S
C1944 C1947 1.403 . S
H1945 C1951 0.930 . S
C1946 H1932 0.930 . S
C1946 C1944 1.395 . S
C1946 C1949 1.403 . S
C1947 C1944 1.403 . S
C1947 C1948 1.524 . S
C1947 C1951 1.400 . S
C1948 H1933 0.960 . S
C1948 H1934 0.960 1_455 S
C1948 H1935 0.960 . S
C1948 C1947 1.524 . S
C1949 C1946 1.403 . S
C1949 C1950 1.392 . S
C1949 C1953 1.495 . S
C1950 C1949 1.392 . S
C1950 C1951 1.385 . S
C1950 C1952 1.478 . S
C1951 H1945 0.930 . S
C1951 C1947 1.400 . S
C1951 C1950 1.385 . S
C1952 C1950 1.478 . S
C1952 C1954 1.381 . S
C1952 C1958 1.383 . S
C1953 C1949 1.495 . S
C1953 H1959 0.959 . S
C1953 H1960 0.961 . S
C1953 H1961 0.960 . S
C1954 C1952 1.381 . S
C1954 C1955 1.394 . S
C1954 H1962 0.928 . S
C1955 C1954 1.394 . S
C1955 C1956 1.383 . S
C1955 H1963 0.929 1_455 S
C1956 C1955 1.383 . S
C1956 C1957 1.377 . S
C1957 H1941 0.930 . S
C1957 C1956 1.377 . S
C1957 C1958 1.379 . S
C1958 H1942 0.931 . S
C1958 C1952 1.383 . S
C1958 C1957 1.379 . S
H1959 C1953 0.959 . S
H1960 C1953 0.961 . S
H1961 C1953 0.960 . S
H1962 C1954 0.928 . S
H1963 C1955 0.929 1_655 S
H1964 C1972 0.929 . S
H1965 C1974 0.930 . S
H1966 C1976 0.930 . S
H1967 C1979 0.929 . S
H1968 C1982 0.930 . S
H1969 C1984 0.960 . S
H1970 C1984 0.960 . S
H1971 C1984 0.960 . S
C1972 H1964 0.929 . S
C1972 C1973 1.377 . S
C1972 C1974 1.384 . S
C1973 C1972 1.377 . S
C1973 C1979 1.390 . S
C1974 H1965 0.930 . S
C1974 C1972 1.384 . S
C1974 C1975 1.372 . S
C1975 C1974 1.372 . S
C1975 C1976 1.400 . S
C1975 C1980 1.490 . S
C1976 H1966 0.930 . S
C1976 C1975 1.400 . S
C1976 C1979 1.386 . S
H1977 C1993 0.930 . S
H1978 C1994 0.931 . S
C1979 H1967 0.929 . S
C1979 C1973 1.390 . S
C1979 C1976 1.386 . S
C1980 C1975 1.490 . S
C1980 C1982 1.395 . S
C1980 C1983 1.403 . S
H1981 C1987 0.930 . S
C1982 H1968 0.930 . S
C1982 C1980 1.395 . S
C1982 C1985 1.403 . S
C1983 C1980 1.403 . S
C1983 C1984 1.524 . S
C1983 C1987 1.400 . S
C1984 H1969 0.960 . S
C1984 H1970 0.960 . S
C1984 H1971 0.960 . S
C1984 C1983 1.524 . S
C1985 C1982 1.403 . S
C1985 C1986 1.392 . S
C1985 C1989 1.495 . S
C1986 C1985 1.392 . S
C1986 C1987 1.385 . S
C1986 C1988 1.478 . S
C1987 H1981 0.930 . S
C1987 C1983 1.400 . S
C1987 C1986 1.385 . S
C1988 C1986 1.478 . S
C1988 C1990 1.381 . S
C1988 C1994 1.383 . S
C1989 C1985 1.495 . S
C1989 H1995 0.959 . S
C1989 H1996 0.961 . S
C1989 H1997 0.960 . S
C1990 C1988 1.381 . S
C1990 C1991 1.394 . S
C1990 H1998 0.930 . S
C1991 C1990 1.394 . S
C1991 C1992 1.383 . S
C1991 H1999 0.929 . S
C1992 C1991 1.383 . S
C1992 C1993 1.377 . S
C1993 H1977 0.930 . S
C1993 C1992 1.377 . S
C1993 C1994 1.379 . S
C1994 H1978 0.931 . S
C1994 C1988 1.383 . S
C1994 C1993 1.379 . S
H1995 C1989 0.959 . S
H1996 C1989 0.961 . S
H1997 C1989 0.960 . S
H1998 C1990 0.930 . S
H1999 C1991 0.929 . S
H2000 C2008 0.929 1_556 S
H2001 C2010 0.930 . S
H2002 C2012 0.930 . S
H2003 C2015 0.929 . S
H2004 C2018 0.930 . S
H2005 C2020 0.960 . S
H2006 C2020 0.960 . S
H2007 C2020 0.960 . S
C2008 H2000 0.929 1_554 S
C2008 C2009 1.377 . S
C2008 C2010 1.384 . S
C2009 C2008 1.377 . S
C2009 C2015 1.390 . S
C2010 H2001 0.930 . S
C2010 C2008 1.384 . S
C2010 C2011 1.372 . S
C2011 C2010 1.372 . S
C2011 C2012 1.400 . S
C2011 C2016 1.490 . S
C2012 H2002 0.930 . S
C2012 C2011 1.400 . S
C2012 C2015 1.386 . S
H2013 C2029 0.930 . S
H2014 C2030 0.931 . S
C2015 H2003 0.929 . S
C2015 C2009 1.390 . S
C2015 C2012 1.386 . S
C2016 C2011 1.490 . S
C2016 C2018 1.395 . S
C2016 C2019 1.403 . S
H2017 C2023 0.930 . S
C2018 H2004 0.930 . S
C2018 C2016 1.395 . S
C2018 C2021 1.403 . S
C2019 C2016 1.403 . S
C2019 C2020 1.524 . S
C2019 C2023 1.400 . S
C2020 H2005 0.960 . S
C2020 H2006 0.960 . S
C2020 H2007 0.960 . S
C2020 C2019 1.524 . S
C2021 C2018 1.403 . S
C2021 C2022 1.392 . S
C2021 C2025 1.495 . S
C2022 C2021 1.392 . S
C2022 C2023 1.385 . S
C2022 C2024 1.478 . S
C2023 H2017 0.930 . S
C2023 C2019 1.400 . S
C2023 C2022 1.385 . S
C2024 C2022 1.478 . S
C2024 C2026 1.381 . S
C2024 C2030 1.383 . S
C2025 C2021 1.495 . S
C2025 H2031 0.959 . S
C2025 H2032 0.961 . S
C2025 H2033 0.960 . S
C2026 C2024 1.381 . S
C2026 C2027 1.394 . S
C2026 H2034 0.930 . S
C2027 C2026 1.394 . S
C2027 C2028 1.383 . S
C2027 H2035 0.929 . S
C2028 C2027 1.383 . S
C2028 C2029 1.377 . S
C2029 H2013 0.930 . S
C2029 C2028 1.377 . S
C2029 C2030 1.379 . S
C2030 H2014 0.931 . S
C2030 C2024 1.383 . S
C2030 C2029 1.379 . S
H2031 C2025 0.959 . S
H2032 C2025 0.961 . S
H2033 C2025 0.960 . S
H2034 C2026 0.930 . S
H2035 C2027 0.929 . S
H2036 C2044 0.929 . S
H2037 C2046 0.930 . S
H2038 C2048 0.930 . S
H2039 C2051 0.929 . S
H2040 C2054 0.930 . S
H2041 C2056 0.960 . S
H2042 C2056 0.960 . S
H2043 C2056 0.960 . S
C2044 H2036 0.929 . S
C2044 C2045 1.377 . S
C2044 C2046 1.384 . S
C2045 C2044 1.377 . S
C2045 C2051 1.390 . S
C2046 H2037 0.930 . S
C2046 C2044 1.384 . S
C2046 C2047 1.372 . S
C2047 C2046 1.372 . S
C2047 C2048 1.400 . S
C2047 C2052 1.490 . S
C2048 H2038 0.930 . S
C2048 C2047 1.400 . S
C2048 C2051 1.386 . S
H2049 C2065 0.930 . S
H2050 C2066 0.931 . S
C2051 H2039 0.929 . S
C2051 C2045 1.390 . S
C2051 C2048 1.386 . S
C2052 C2047 1.490 . S
C2052 C2054 1.395 . S
C2052 C2055 1.403 . S
H2053 C2059 0.930 . S
C2054 H2040 0.930 . S
C2054 C2052 1.395 . S
C2054 C2057 1.403 . S
C2055 C2052 1.403 . S
C2055 C2056 1.524 . S
C2055 C2059 1.400 . S
C2056 H2041 0.960 . S
C2056 H2042 0.960 . S
C2056 H2043 0.960 . S
C2056 C2055 1.524 . S
C2057 C2054 1.403 . S
C2057 C2058 1.392 . S
C2057 C2061 1.495 . S
C2058 C2057 1.392 . S
C2058 C2059 1.385 . S
C2058 C2060 1.478 . S
C2059 H2053 0.930 . S
C2059 C2055 1.400 . S
C2059 C2058 1.385 . S
C2060 C2058 1.478 . S
C2060 C2062 1.381 . S
C2060 C2066 1.383 . S
C2061 C2057 1.495 . S
C2061 H2067 0.959 . S
C2061 H2068 0.961 . S
C2061 H2069 0.960 . S
C2062 C2060 1.381 . S
C2062 C2063 1.394 . S
C2062 H2070 0.930 . S
C2063 C2062 1.394 . S
C2063 C2064 1.383 . S
C2063 H2071 0.929 . S
C2064 C2063 1.383 . S
C2064 C2065 1.377 . S
C2065 H2049 0.930 . S
C2065 C2064 1.377 . S
C2065 C2066 1.379 . S
C2066 H2050 0.931 . S
C2066 C2060 1.383 . S
C2066 C2065 1.379 . S
H2067 C2061 0.959 . S
H2068 C2061 0.961 . S
H2069 C2061 0.960 . S
H2070 C2062 0.930 . S
H2071 C2063 0.929 . S
H2072 C2080 0.929 . S
H2073 C2082 0.930 . S
H2074 C2084 0.930 . S
H2075 C2087 0.929 . S
H2076 C2090 0.930 . S
H2077 C2092 0.960 . S
H2078 C2092 0.960 . S
H2079 C2092 0.960 . S
C2080 H2072 0.929 . S
C2080 C2081 1.377 . S
C2080 C2082 1.384 . S
C2081 C2080 1.377 . S
C2081 C2087 1.390 . S
C2082 H2073 0.930 . S
C2082 C2080 1.384 . S
C2082 C2083 1.372 . S
C2083 C2082 1.372 . S
C2083 C2084 1.400 . S
C2083 C2088 1.490 . S
C2084 H2074 0.930 . S
C2084 C2083 1.400 . S
C2084 C2087 1.386 . S
H2085 C2101 0.930 . S
H2086 C2102 0.931 . S
C2087 H2075 0.929 . S
C2087 C2081 1.390 . S
C2087 C2084 1.386 . S
C2088 C2083 1.490 . S
C2088 C2090 1.395 . S
C2088 C2091 1.403 . S
H2089 C2095 0.930 . S
C2090 H2076 0.930 . S
C2090 C2088 1.395 . S
C2090 C2093 1.403 . S
C2091 C2088 1.403 . S
C2091 C2092 1.524 . S
C2091 C2095 1.400 . S
C2092 H2077 0.960 . S
C2092 H2078 0.960 . S
C2092 H2079 0.960 . S
C2092 C2091 1.524 . S
C2093 C2090 1.403 . S
C2093 C2094 1.392 . S
C2093 C2097 1.495 . S
C2094 C2093 1.392 . S
C2094 C2095 1.385 . S
C2094 C2096 1.478 . S
C2095 H2089 0.930 . S
C2095 C2091 1.400 . S
C2095 C2094 1.385 . S
C2096 C2094 1.478 . S
C2096 C2098 1.381 . S
C2096 C2102 1.383 . S
C2097 C2093 1.495 . S
C2097 H2103 0.959 . S
C2097 H2104 0.961 . S
C2097 H2105 0.960 . S
C2098 C2096 1.381 . S
C2098 C2099 1.394 . S
C2098 H2106 0.930 . S
C2099 C2098 1.394 . S
C2099 C2100 1.383 . S
C2099 H2107 0.929 . S
C2100 C2099 1.383 . S
C2100 C2101 1.377 . S
C2101 H2085 0.930 . S
C2101 C2100 1.377 . S
C2101 C2102 1.379 . S
C2102 H2086 0.931 . S
C2102 C2096 1.383 . S
C2102 C2101 1.379 . S
H2103 C2097 0.959 . S
H2104 C2097 0.961 . S
H2105 C2097 0.960 . S
H2106 C2098 0.930 . S
H2107 C2099 0.929 . S
H2108 C2116 0.929 . S
H2109 C2118 0.930 . S
H2110 C2120 0.930 . S
H2111 C2123 0.929 . S
H2112 C2126 0.930 . S
H2113 C2128 0.960 . S
H2114 C2128 0.960 . S
H2115 C2128 0.960 . S
C2116 H2108 0.929 . S
C2116 C2117 1.377 . S
C2116 C2118 1.384 . S
C2117 C2116 1.377 . S
C2117 C2123 1.390 . S
C2118 H2109 0.930 . S
C2118 C2116 1.384 . S
C2118 C2119 1.372 . S
C2119 C2118 1.372 . S
C2119 C2120 1.400 . S
C2119 C2124 1.490 . S
C2120 H2110 0.930 . S
C2120 C2119 1.400 . S
C2120 C2123 1.386 . S
H2121 C2137 0.930 . S
H2122 C2138 0.931 . S
C2123 H2111 0.929 . S
C2123 C2117 1.390 . S
C2123 C2120 1.386 . S
C2124 C2119 1.490 . S
C2124 C2126 1.395 . S
C2124 C2127 1.403 . S
H2125 C2131 0.930 . S
C2126 H2112 0.930 . S
C2126 C2124 1.395 . S
C2126 C2129 1.403 . S
C2127 C2124 1.403 . S
C2127 C2128 1.524 . S
C2127 C2131 1.400 . S
C2128 H2113 0.960 . S
C2128 H2114 0.960 . S
C2128 H2115 0.960 . S
C2128 C2127 1.524 . S
C2129 C2126 1.403 . S
C2129 C2130 1.392 . S
C2129 C2133 1.495 . S
C2130 C2129 1.392 . S
C2130 C2131 1.385 . S
C2130 C2132 1.478 . S
C2131 H2125 0.930 . S
C2131 C2127 1.400 . S
C2131 C2130 1.385 . S
C2132 C2130 1.478 . S
C2132 C2134 1.381 . S
C2132 C2138 1.383 . S
C2133 C2129 1.495 . S
C2133 H2139 0.959 . S
C2133 H2140 0.961 . S
C2133 H2141 0.960 . S
C2134 C2132 1.381 . S
C2134 C2135 1.394 . S
C2134 H2142 0.930 . S
C2135 C2134 1.394 . S
C2135 C2136 1.383 . S
C2135 H2143 0.929 . S
C2136 C2135 1.383 . S
C2136 C2137 1.377 . S
C2137 H2121 0.930 . S
C2137 C2136 1.377 . S
C2137 C2138 1.379 . S
C2138 H2122 0.931 . S
C2138 C2132 1.383 . S
C2138 C2137 1.379 . S
H2139 C2133 0.959 . S
H2140 C2133 0.961 . S
H2141 C2133 0.960 . S
H2142 C2134 0.930 . S
H2143 C2135 0.929 . S
H2144 C2152 0.929 . S
H2145 C2154 0.930 . S
H2146 C2156 0.930 . S
H2147 C2159 0.929 . S
H2148 C2162 0.930 . S
H2149 C2164 0.960 . S
H2150 C2164 0.960 . S
H2151 C2164 0.960 . S
C2152 H2144 0.929 . S
C2152 C2153 1.377 . S
C2152 C2154 1.384 . S
C2153 C2152 1.377 . S
C2153 C2159 1.390 . S
C2154 H2145 0.930 . S
C2154 C2152 1.384 . S
C2154 C2155 1.372 . S
C2155 C2154 1.372 . S
C2155 C2156 1.400 . S
C2155 C2160 1.490 . S
C2156 H2146 0.930 . S
C2156 C2155 1.400 . S
C2156 C2159 1.386 . S
H2157 C2173 0.930 . S
H2158 C2174 0.931 . S
C2159 H2147 0.929 . S
C2159 C2153 1.390 . S
C2159 C2156 1.386 . S
C2160 C2155 1.490 . S
C2160 C2162 1.395 . S
C2160 C2163 1.403 . S
H2161 C2167 0.930 . S
C2162 H2148 0.930 . S
C2162 C2160 1.395 . S
C2162 C2165 1.403 . S
C2163 C2160 1.403 . S
C2163 C2164 1.524 . S
C2163 C2167 1.400 . S
C2164 H2149 0.960 . S
C2164 H2150 0.960 . S
C2164 H2151 0.960 . S
C2164 C2163 1.524 . S
C2165 C2162 1.403 . S
C2165 C2166 1.392 . S
C2165 C2169 1.495 . S
C2166 C2165 1.392 . S
C2166 C2167 1.385 . S
C2166 C2168 1.478 . S
C2167 H2161 0.930 . S
C2167 C2163 1.400 . S
C2167 C2166 1.385 . S
C2168 C2166 1.478 . S
C2168 C2170 1.381 . S
C2168 C2174 1.383 . S
C2169 C2165 1.495 . S
C2169 H2175 0.959 . S
C2169 H2176 0.961 . S
C2169 H2177 0.960 . S
C2170 C2168 1.381 . S
C2170 C2171 1.394 . S
C2170 H2178 0.930 . S
C2171 C2170 1.394 . S
C2171 C2172 1.383 . S
C2171 H2179 0.929 . S
C2172 C2171 1.383 . S
C2172 C2173 1.377 . S
C2173 H2157 0.930 . S
C2173 C2172 1.377 . S
C2173 C2174 1.379 . S
C2174 H2158 0.931 . S
C2174 C2168 1.383 . S
C2174 C2173 1.379 . S
H2175 C2169 0.959 . S
H2176 C2169 0.961 . S
H2177 C2169 0.960 . S
H2178 C2170 0.930 . S
H2179 C2171 0.929 . S
H2180 C2188 0.929 . S
H2181 C2190 0.930 . S
H2182 C2192 0.930 . S
H2183 C2195 0.929 . S
H2184 C2198 0.930 . S
H2185 C2200 0.960 . S
H2186 C2200 0.960 . S
H2187 C2200 0.960 . S
C2188 H2180 0.929 . S
C2188 C2189 1.377 . S
C2188 C2190 1.384 . S
C2189 C2188 1.377 . S
C2189 C2195 1.390 . S
C2190 H2181 0.930 . S
C2190 C2188 1.384 . S
C2190 C2191 1.372 . S
C2191 C2190 1.372 . S
C2191 C2192 1.400 . S
C2191 C2196 1.490 . S
C2192 H2182 0.930 . S
C2192 C2191 1.400 . S
C2192 C2195 1.386 . S
H2193 C2209 0.930 . S
H2194 C2210 0.931 . S
C2195 H2183 0.929 . S
C2195 C2189 1.390 . S
C2195 C2192 1.386 . S
C2196 C2191 1.490 . S
C2196 C2198 1.395 . S
C2196 C2199 1.403 . S
H2197 C2203 0.930 . S
C2198 H2184 0.930 . S
C2198 C2196 1.395 . S
C2198 C2201 1.403 . S
C2199 C2196 1.403 . S
C2199 C2200 1.524 . S
C2199 C2203 1.400 . S
C2200 H2185 0.960 . S
C2200 H2186 0.960 . S
C2200 H2187 0.960 . S
C2200 C2199 1.524 . S
C2201 C2198 1.403 . S
C2201 C2202 1.392 . S
C2201 C2205 1.495 . S
C2202 C2201 1.392 . S
C2202 C2203 1.385 . S
C2202 C2204 1.478 . S
C2203 H2197 0.930 . S
C2203 C2199 1.400 . S
C2203 C2202 1.385 . S
C2204 C2202 1.478 . S
C2204 C2206 1.381 . S
C2204 C2210 1.383 . S
C2205 C2201 1.495 . S
C2205 H2211 0.959 . S
C2205 H2212 0.961 . S
C2205 H2213 0.960 . S
C2206 C2204 1.381 . S
C2206 C2207 1.394 . S
C2206 H2214 0.930 . S
C2207 C2206 1.394 . S
C2207 C2208 1.383 . S
C2207 H2215 0.929 . S
C2208 C2207 1.383 . S
C2208 C2209 1.377 . S
C2209 H2193 0.930 . S
C2209 C2208 1.377 . S
C2209 C2210 1.379 . S
C2210 H2194 0.931 . S
C2210 C2204 1.383 . S
C2210 C2209 1.379 . S
H2211 C2205 0.959 . S
H2212 C2205 0.961 . S
H2213 C2205 0.960 . S
H2214 C2206 0.930 . S
H2215 C2207 0.929 . S
H2216 C2224 0.929 . S
H2217 C2226 0.930 . S
H2218 C2228 0.930 . S
H2219 C2231 0.929 . S
H2220 C2234 0.930 . S
H2221 C2236 0.960 . S
H2222 C2236 0.960 . S
H2223 C2236 0.960 . S
C2224 H2216 0.929 . S
C2224 C2225 1.377 . S
C2224 C2226 1.384 . S
C2225 C2224 1.377 . S
C2225 C2231 1.390 . S
C2226 H2217 0.930 . S
C2226 C2224 1.384 . S
C2226 C2227 1.372 . S
C2227 C2226 1.372 . S
C2227 C2228 1.400 . S
C2227 C2232 1.490 . S
C2228 H2218 0.930 . S
C2228 C2227 1.400 . S
C2228 C2231 1.386 . S
H2229 C2245 0.930 . S
H2230 C2246 0.931 . S
C2231 H2219 0.929 . S
C2231 C2225 1.390 . S
C2231 C2228 1.386 . S
C2232 C2227 1.490 . S
C2232 C2234 1.395 . S
C2232 C2235 1.403 . S
H2233 C2239 0.930 . S
C2234 H2220 0.930 . S
C2234 C2232 1.395 . S
C2234 C2237 1.403 . S
C2235 C2232 1.403 . S
C2235 C2236 1.524 . S
C2235 C2239 1.400 . S
C2236 H2221 0.960 . S
C2236 H2222 0.960 . S
C2236 H2223 0.960 . S
C2236 C2235 1.524 . S
C2237 C2234 1.403 . S
C2237 C2238 1.392 . S
C2237 C2241 1.495 . S
C2238 C2237 1.392 . S
C2238 C2239 1.385 . S
C2238 C2240 1.478 . S
C2239 H2233 0.930 . S
C2239 C2235 1.400 . S
C2239 C2238 1.385 . S
C2240 C2238 1.478 . S
C2240 C2242 1.381 . S
C2240 C2246 1.383 . S
C2241 C2237 1.495 . S
C2241 H2247 0.959 . S
C2241 H2248 0.961 . S
C2241 H2249 0.960 . S
C2242 C2240 1.381 . S
C2242 C2243 1.394 . S
C2242 H2250 0.930 . S
C2243 C2242 1.394 . S
C2243 C2244 1.383 . S
C2243 H2251 0.929 . S
C2244 C2243 1.383 . S
C2244 C2245 1.377 . S
C2245 H2229 0.930 . S
C2245 C2244 1.377 . S
C2245 C2246 1.379 . S
C2246 H2230 0.931 . S
C2246 C2240 1.383 . S
C2246 C2245 1.379 . S
H2247 C2241 0.959 . S
H2248 C2241 0.961 . S
H2249 C2241 0.960 . S
H2250 C2242 0.930 . S
H2251 C2243 0.929 . S
H2252 C2260 0.929 . S
H2253 C2262 0.930 1_554 S
H2254 C2264 0.930 . S
H2255 C2267 0.929 . S
H2256 C2270 0.930 . S
H2257 C2272 0.960 . S
H2258 C2272 0.960 . S
H2259 C2272 0.960 . S
C2260 H2252 0.929 . S
C2260 C2261 1.377 . S
C2260 C2262 1.384 . S
C2261 C2260 1.377 . S
C2261 C2267 1.390 . S
C2262 H2253 0.930 1_556 S
C2262 C2260 1.384 . S
C2262 C2263 1.372 . S
C2263 C2262 1.372 . S
C2263 C2264 1.400 . S
C2263 C2268 1.490 . S
C2264 H2254 0.930 . S
C2264 C2263 1.400 . S
C2264 C2267 1.386 . S
H2265 C2281 0.930 . S
H2266 C2282 0.931 . S
C2267 H2255 0.929 . S
C2267 C2261 1.390 . S
C2267 C2264 1.386 . S
C2268 C2263 1.490 . S
C2268 C2270 1.395 . S
C2268 C2271 1.403 . S
H2269 C2275 0.930 . S
C2270 H2256 0.930 . S
C2270 C2268 1.395 . S
C2270 C2273 1.403 . S
C2271 C2268 1.403 . S
C2271 C2272 1.524 . S
C2271 C2275 1.400 . S
C2272 H2257 0.960 . S
C2272 H2258 0.960 . S
C2272 H2259 0.960 . S
C2272 C2271 1.524 . S
C2273 C2270 1.403 . S
C2273 C2274 1.392 . S
C2273 C2277 1.495 . S
C2274 C2273 1.392 . S
C2274 C2275 1.385 . S
C2274 C2276 1.478 . S
C2275 H2269 0.930 . S
C2275 C2271 1.400 . S
C2275 C2274 1.385 . S
C2276 C2274 1.478 . S
C2276 C2278 1.381 1_556 S
C2276 C2282 1.383 . S
C2277 C2273 1.495 . S
C2277 H2283 0.959 . S
C2277 H2284 0.961 . S
C2277 H2285 0.960 . S
C2278 C2276 1.381 1_554 S
C2278 C2279 1.394 . S
C2278 H2286 0.930 . S
C2279 C2278 1.394 . S
C2279 C2280 1.383 1_554 S
C2279 H2287 0.929 . S
C2280 C2279 1.383 1_556 S
C2280 C2281 1.377 . S
C2281 H2265 0.930 . S
C2281 C2280 1.377 . S
C2281 C2282 1.379 . S
C2282 H2266 0.931 . S
C2282 C2276 1.383 . S
C2282 C2281 1.379 . S
H2283 C2277 0.959 . S
H2284 C2277 0.961 . S
H2285 C2277 0.960 . S
H2286 C2278 0.930 . S
H2287 C2279 0.929 . S
H2288 C2296 0.929 . S
H2289 C2298 0.930 . S
H2290 C2300 0.930 . S
H2291 C2303 0.929 . S
H2292 C2306 0.930 . S
H2293 C2308 0.960 . S
H2294 C2308 0.960 . S
H2295 C2308 0.960 . S
C2296 H2288 0.929 . S
C2296 C2297 1.377 . S
C2296 C2298 1.384 . S
C2297 C2296 1.377 . S
C2297 C2303 1.390 . S
C2298 H2289 0.930 . S
C2298 C2296 1.384 . S
C2298 C2299 1.372 . S
C2299 C2298 1.372 . S
C2299 C2300 1.400 . S
C2299 C2304 1.490 . S
C2300 H2290 0.930 . S
C2300 C2299 1.400 . S
C2300 C2303 1.386 . S
H2301 C2317 0.930 . S
H2302 C2318 0.931 . S
C2303 H2291 0.929 . S
C2303 C2297 1.390 . S
C2303 C2300 1.386 . S
C2304 C2299 1.490 . S
C2304 C2306 1.395 . S
C2304 C2307 1.403 . S
H2305 C2311 0.930 . S
C2306 H2292 0.930 . S
C2306 C2304 1.395 . S
C2306 C2309 1.403 . S
C2307 C2304 1.403 . S
C2307 C2308 1.524 . S
C2307 C2311 1.400 . S
C2308 H2293 0.960 . S
C2308 H2294 0.960 . S
C2308 H2295 0.960 . S
C2308 C2307 1.524 . S
C2309 C2306 1.403 . S
C2309 C2310 1.392 . S
C2309 C2313 1.495 . S
C2310 C2309 1.392 . S
C2310 C2311 1.385 . S
C2310 C2312 1.478 . S
C2311 H2305 0.930 . S
C2311 C2307 1.400 . S
C2311 C2310 1.385 . S
C2312 C2310 1.478 . S
C2312 C2314 1.381 . S
C2312 C2318 1.383 . S
C2313 C2309 1.495 . S
C2313 H2319 0.959 . S
C2313 H2320 0.961 . S
C2313 H2321 0.960 . S
C2314 C2312 1.381 . S
C2314 C2315 1.394 . S
C2314 H2322 0.930 . S
C2315 C2314 1.394 . S
C2315 C2316 1.383 . S
C2315 H2323 0.929 . S
C2316 C2315 1.383 . S
C2316 C2317 1.377 . S
C2317 H2301 0.930 . S
C2317 C2316 1.377 . S
C2317 C2318 1.379 . S
C2318 H2302 0.931 . S
C2318 C2312 1.383 . S
C2318 C2317 1.379 . S
H2319 C2313 0.959 . S
H2320 C2313 0.961 . S
H2321 C2313 0.960 . S
H2322 C2314 0.930 . S
H2323 C2315 0.929 . S
H2324 C2332 0.929 . S
H2325 C2334 0.930 . S
H2326 C2336 0.930 1_556 S
H2327 C2339 0.950 . S
H2328 C2342 0.930 . S
H2329 C2344 0.989 . S
H2330 C2344 0.960 . S
H2331 C2344 0.960 1_556 S
C2332 H2324 0.929 . S
C2332 C2333 1.377 . S
C2332 C2334 1.384 . S
C2333 C2332 1.377 . S
C2333 C2339 1.390 . S
C2334 H2325 0.930 . S
C2334 C2332 1.384 . S
C2334 C2335 1.372 . S
C2335 C2334 1.372 . S
C2335 C2336 1.400 . S
C2335 C2340 1.490 . S
C2336 H2326 0.930 1_554 S
C2336 C2335 1.400 . S
C2336 C2339 1.386 . S
H2337 C2353 0.930 . S
H2338 C2354 0.931 . S
C2339 H2327 0.950 . S
C2339 C2333 1.390 . S
C2339 C2336 1.386 . S
C2340 C2335 1.490 . S
C2340 C2342 1.395 . S
C2340 C2343 1.403 . S
H2341 C2347 0.930 . S
C2342 H2328 0.930 . S
C2342 C2340 1.395 . S
C2342 C2345 1.403 . S
C2343 C2340 1.403 . S
C2343 C2344 1.524 . S
C2343 C2347 1.400 . S
C2344 H2329 0.989 . S
C2344 H2330 0.960 . S
C2344 H2331 0.960 1_554 S
C2344 C2343 1.524 . S
C2345 C2342 1.403 . S
C2345 C2346 1.392 . S
C2345 C2349 1.495 . S
C2346 C2345 1.392 . S
C2346 C2347 1.385 . S
C2346 C2348 1.478 . S
C2347 H2341 0.930 . S
C2347 C2343 1.400 . S
C2347 C2346 1.385 . S
C2348 C2346 1.478 . S
C2348 C2350 1.381 . S
C2348 C2354 1.383 1_554 S
C2349 C2345 1.495 . S
C2349 H2355 0.959 . S
C2349 H2356 0.961 . S
C2349 H2357 0.960 . S
C2350 C2348 1.381 . S
C2350 C2351 1.394 . S
C2350 H2358 0.930 . S
C2351 C2350 1.394 . S
C2351 C2352 1.383 . S
C2351 H2359 0.929 . S
C2352 C2351 1.383 . S
C2352 C2353 1.377 1_554 S
C2353 H2337 0.930 . S
C2353 C2352 1.377 1_556 S
C2353 C2354 1.379 . S
C2354 H2338 0.931 . S
C2354 C2348 1.383 1_556 S
C2354 C2353 1.379 . S
H2355 C2349 0.959 . S
H2356 C2349 0.961 . S
H2357 C2349 0.960 . S
H2358 C2350 0.930 . S
H2359 C2351 0.929 . S
H2360 C2368 0.929 . S
H2361 C2370 0.930 . S
H2362 C2372 0.930 . S
H2363 C2375 0.929 . S
H2364 C2378 0.930 . S
H2365 C2380 0.960 . S
H2366 C2380 0.960 . S
H2367 C2380 0.960 . S
C2368 H2360 0.929 . S
C2368 C2369 1.377 1_565 S
C2368 C2370 1.384 . S
C2369 C2368 1.377 1_545 S
C2369 C2375 1.390 . S
C2370 H2361 0.930 . S
C2370 C2368 1.384 . S
C2370 C2371 1.372 . S
C2371 C2370 1.372 . S
C2371 C2372 1.400 . S
C2371 C2376 1.490 . S
C2372 H2362 0.930 . S
C2372 C2371 1.400 . S
C2372 C2375 1.386 1_565 S
H2373 C2389 0.930 . S
H2374 C2390 0.931 . S
C2375 H2363 0.929 . S
C2375 C2369 1.390 . S
C2375 C2372 1.386 1_545 S
C2376 C2371 1.490 . S
C2376 C2378 1.395 . S
C2376 C2379 1.403 . S
H2377 C2383 0.930 . S
C2378 H2364 0.930 . S
C2378 C2376 1.395 . S
C2378 C2381 1.403 . S
C2379 C2376 1.403 . S
C2379 C2380 1.524 . S
C2379 C2383 1.400 . S
C2380 H2365 0.960 . S
C2380 H2366 0.960 . S
C2380 H2367 0.960 . S
C2380 C2379 1.524 . S
C2381 C2378 1.403 . S
C2381 C2382 1.392 . S
C2381 C2385 1.495 1_554 S
C2382 C2381 1.392 . S
C2382 C2383 1.385 . S
C2382 C2384 1.478 . S
C2383 H2377 0.930 . S
C2383 C2379 1.400 . S
C2383 C2382 1.385 . S
C2384 C2382 1.478 . S
C2384 C2386 1.381 . S
C2384 C2390 1.383 . S
C2385 C2381 1.495 1_556 S
C2385 H2391 0.959 . S
C2385 H2392 0.961 . S
C2385 H2393 0.960 . S
C2386 C2384 1.381 . S
C2386 C2387 1.394 . S
C2386 H2394 0.967 . S
C2387 C2386 1.394 . S
C2387 C2388 1.383 . S
C2387 H2395 0.929 1_554 S
C2388 C2387 1.383 . S
C2388 C2389 1.377 . S
C2389 H2373 0.930 . S
C2389 C2388 1.377 . S
C2389 C2390 1.379 . S
C2390 H2374 0.931 . S
C2390 C2384 1.383 . S
C2390 C2389 1.379 . S
H2391 C2385 0.959 . S
H2392 C2385 0.961 . S
H2393 C2385 0.960 . S
H2394 C2386 0.967 . S
H2395 C2387 0.929 1_556 S
C696 C522 1.371 . S
C677 C177 1.348 . S
C732 C535 1.620 . S
C713 C209 1.628 1_455 S
C749 C253 1.363 . S
C768 C548 1.371 . S
C804 C561 1.548 . S
C785 C157 1.519 1_655 S
C840 C569 1.462 . S
C821 C343 1.484 . S
C876 C582 1.386 . S
C857 C401 1.393 . S
C893 C369 1.520 . S
C912 C595 1.529 . S
C948 C608 1.522 . S
C929 C317 1.492 . S
C965 C375 1.425 . S
C984 C626 1.443 . S
C1020 C637 1.566 . S
C1001 C305 1.577 . S
C1037 C349 1.461 . S
C1056 C621 1.442 . S
C1092 C629 1.468 . S
C1073 C413 1.462 . S
C1109 C241 1.446 . S
C1128 C652 1.451 . S
C1145 C151 1.461 . S
C1164 C642 1.444 . S
C1181 C189 1.475 . S
C1200 C647 1.500 . S
C1217 C215 1.551 . S
C1236 C650 1.548 . S
C1253 C113 1.417 . S
C1272 C559 1.381 . S
C1289 C471 1.371 . S
C1308 C551 1.395 . S
C1344 C520 1.547 . S
C1325 C509 1.565 1_565 S
C1380 C525 1.498 . S
C1361 C279 1.481 . S
C1397 C145 1.476 . S
C1416 C572 1.491 . S
C1452 C611 1.543 . S
C1433 C381 1.559 . S
C1488 C564 1.518 . S
C1469 C311 1.511 . S
C1524 C590 1.441 . S
C1505 C407 1.442 . S
C1560 C600 1.374 . S
C1541 C465 1.342 . S
C1577 C497 1.626 . S
C1596 C613 1.629 . S
C1613 C285 1.371 . S
C1632 C574 1.389 . S
C1668 C587 1.541 . S
C1649 C445 1.525 . S
C1685 C119 1.489 . S
C1704 C543 1.465 . S
C1740 C556 1.383 . S
C1721 C17 1.394 1_655 S
C1776 C517 1.501 . S
C1757 C49 1.523 . S
C1812 C530 1.487 . S
C1793 C93 1.489 1_455 S
C1829 C55 1.423 . S
C1848 C639 1.426 . S
C1865 C81 1.575 1_556 S
C1884 C624 1.577 1_655 S
C1901 C125 1.462 . S
C1920 C634 1.474 . S
C1937 C29 1.461 . S
C1956 C616 1.481 . S
C1992 C665 1.468 . S
C1973 C273 1.448 . S
C2028 C655 1.470 . S
C2009 C439 1.457 1_554 S
C2064 C660 1.486 . S
C2045 C477 1.481 . S
C2081 C503 1.552 . S
C2100 C663 1.532 . S
C2117 C337 1.411 . S
C2136 C585 1.416 . S
C2172 C577 1.388 . S
C2153 C183 1.371 . S
C2208 C598 1.574 . S
C2189 C221 1.560 . S
C2244 C603 1.503 . S
C2225 C247 1.481 . S
C2261 C433 1.477 . S
C2280 C546 1.491 1_556 S
C2316 C533 1.542 . S
C2297 C61 1.562 . S
C2333 C87 1.517 . S
C2352 C538 1.496 . S
C2388 C512 1.431 . S
C2369 C23 1.441 . S
