# Generated by pormake.
# Topology anh, (6,3)-cn, num edge types: 1
# Building blocks:
#     Node 0, Type 0, BuildingBlock: CUKXOW_clean_sbu_0, # of connection points: 6
#     Node 1, Type 0, BuildingBlock: CUKXOW_clean_sbu_0, # of connection points: 6
#     Node 2, Type 0, BuildingBlock: CUKXOW_clean_sbu_0, # of connection points: 6
#     Node 3, Type 1, BuildingBlock: BETDAH_clean_linker_0, # of connection points: 3
#     Node 4, Type 1, BuildingBlock: BETDAH_clean_linker_0, # of connection points: 3
#     Node 5, Type 1, BuildingBlock: BETDAH_clean_linker_0, # of connection points: 3
#     Node 6, Type 1, BuildingBlock: BETDAH_clean_linker_0, # of connection points: 3
#     Node 7, Type 1, BuildingBlock: BETDAH_clean_linker_0, # of connection points: 3
#     Node 8, Type 1, BuildingBlock: BETDAH_clean_linker_0, # of connection points: 3
#     Edge 9, Type (0, 1), BuildingBlock: XIVTED_clean_linker_0, # of connection points: 2
#     Edge 10, Type (0, 1), BuildingBlock: XIVTED_clean_linker_0, # of connection points: 2
#     Edge 11, Type (0, 1), BuildingBlock: XIVTED_clean_linker_0, # of connection points: 2
#     Edge 12, Type (0, 1), BuildingBlock: XIVTED_clean_linker_0, # of connection points: 2
#     Edge 13, Type (0, 1), BuildingBlock: XIVTED_clean_linker_0, # of connection points: 2
#     Edge 14, Type (0, 1), BuildingBlock: XIVTED_clean_linker_0, # of connection points: 2
#     Edge 15, Type (0, 1), BuildingBlock: XIVTED_clean_linker_0, # of connection points: 2
#     Edge 16, Type (0, 1), BuildingBlock: XIVTED_clean_linker_0, # of connection points: 2
#     Edge 17, Type (0, 1), BuildingBlock: XIVTED_clean_linker_0, # of connection points: 2
#     Edge 18, Type (0, 1), BuildingBlock: XIVTED_clean_linker_0, # of connection points: 2
#     Edge 19, Type (0, 1), BuildingBlock: XIVTED_clean_linker_0, # of connection points: 2
#     Edge 20, Type (0, 1), BuildingBlock: XIVTED_clean_linker_0, # of connection points: 2
#     Edge 21, Type (0, 1), BuildingBlock: XIVTED_clean_linker_0, # of connection points: 2
#     Edge 22, Type (0, 1), BuildingBlock: XIVTED_clean_linker_0, # of connection points: 2
#     Edge 23, Type (0, 1), BuildingBlock: XIVTED_clean_linker_0, # of connection points: 2
#     Edge 24, Type (0, 1), BuildingBlock: XIVTED_clean_linker_0, # of connection points: 2
#     Edge 25, Type (0, 1), BuildingBlock: XIVTED_clean_linker_0, # of connection points: 2
#     Edge 26, Type (0, 1), BuildingBlock: XIVTED_clean_linker_0, # of connection points: 2
# Relax obj value: 0.070
# Max RMSD: 0.141
# Mean RMSD: 0.087
data_MOF--net-anh--node1-CUKXOW_clean_sbu_0--node2-BETDAH_clean_linker_0--edge1-XIVTED_clean_linker_0
_symmetry_space_group_name_H-M    P1
_symmetry_Int_Tables_number       1
_symmetry_cell_setting            triclinic
loop_
_symmetry_equiv_pos_as_xyz
'x, y, z'
_cell_length_a     29.238978
_cell_length_b     28.755124
_cell_length_c     48.150548
_cell_angle_alpha  98.225319
_cell_angle_beta   91.568698
_cell_angle_gamma 112.62882
loop_
_atom_site_label
_atom_site_type_symbol
_atom_site_fract_x
_atom_site_fract_y
_atom_site_fract_z
_atom_type_partial_charge
Tb0 Tb 0.08128 0.54448 0.1564 0.0
C1 C 0.04385 0.5115 0.21325 0.0
Tb2 Tb 1.01184 0.43425 0.155 0.0
O3 O 1.02144 0.57013 0.16785 0.0
O4 O 1.00498 0.49942 0.14294 0.0
O5 O 0.07899 0.54511 0.20126 0.0
C6 C 0.92738 0.35349 0.15568 0.0
O7 O 1.01107 0.46792 0.1988 0.0
C8 C 0.10634 0.44891 0.15448 0.0
C9 C 0.0525 0.46688 0.09839 0.0
O10 O 0.9696 0.36122 0.16905 0.0
O11 O 0.93332 0.39052 0.14186 0.0
O12 O 0.06977 0.40605 0.14392 0.0
O13 O 0.08853 0.47871 0.16758 0.0
O14 O 1.018 0.43196 0.11011 0.0
O15 O 0.08296 0.51175 0.11279 0.0
C16 C 0.16119 0.63026 0.15613 0.0
O17 O 0.11607 0.62298 0.1476 0.0
O18 O 0.16101 0.58941 0.1645 0.0
C19 C 0.98578 0.52789 0.15582 0.0
Tb20 Tb 0.55497 0.03066 0.50496 0.0
C21 C 0.59884 0.06288 0.44924 0.0
Tb22 Tb 0.66213 0.10816 0.50905 0.0
O23 O 0.52834 0.08683 0.4922 0.0
O24 O 0.593 0.1101 0.51914 0.0
O25 O 0.56516 0.02642 0.46045 0.0
C26 C 0.73891 0.19585 0.50811 0.0
O27 O 0.63639 0.10137 0.46468 0.0
C28 C 0.65188 0.01349 0.50843 0.0
C29 C 0.61945 0.07151 0.56448 0.0
O30 O 0.7377 0.15092 0.49806 0.0
O31 O 0.69767 0.19095 0.51897 0.0
O32 O 0.69083 0.05266 0.52063 0.0
O33 O 0.62424 0.02892 0.49514 0.0
O34 O 0.65407 0.10806 0.55372 0.0
O35 O 0.58057 0.03503 0.54884 0.0
C36 C 0.47101 0.94941 0.50525 0.0
O37 O 0.47745 0.99632 0.51451 0.0
O38 O 0.51178 0.94829 0.49594 0.0
C39 C 0.56613 0.1258 0.50541 0.0
Tb40 Tb 0.53345 0.59783 0.83126 0.0
C41 C 0.58026 0.60058 0.89101 0.0
Tb42 Tb 0.64236 0.61334 0.83718 0.0
O43 O 0.51117 0.52028 0.84076 0.0
O44 O 0.57482 0.55269 0.82044 0.0
O45 O 0.54356 0.6066 0.87706 0.0
C46 C 0.72133 0.58927 0.83935 0.0
O47 O 0.61964 0.59776 0.8789 0.0
C48 C 0.62813 0.69755 0.83701 0.0
C49 C 0.59752 0.61836 0.77873 0.0
O50 O 0.7192 0.63032 0.85358 0.0
O51 O 0.67959 0.56277 0.82444 0.0
O52 O 0.66845 0.69202 0.82954 0.0
O53 O 0.6012 0.65927 0.84741 0.0
O54 O 0.63236 0.609 0.79214 0.0
O55 O 0.55886 0.62234 0.79118 0.0
C56 C 0.44187 0.59162 0.81844 0.0
O57 O 0.46461 0.56706 0.80395 0.0
O58 O 0.47117 0.62084 0.84032 0.0
C59 C 0.55002 0.51457 0.8314 0.0
H60 H 0.4642 0.94478 0.24693 0.0
H61 H 0.57426 0.08571 0.22969 0.0
H62 H 0.45815 0.98838 0.16573 0.0
C63 C 0.47994 0.97136 0.23254 0.0
C64 C 0.45677 0.96067 0.20517 0.0
C65 C 0.52226 0.0164 0.24173 0.0
C66 C 0.54145 0.05107 0.22297 0.0
C67 C 0.51801 0.04085 0.19553 0.0
C68 C 0.47547 0.99621 0.18701 0.0
N69 N 0.53618 0.07435 0.17581 0.0
C70 C 0.58505 0.10911 0.17704 0.0
H71 H 0.60132 0.49018 0.5793 0.0
H72 H 0.59418 0.6257 0.5556 0.0
H73 H 0.58774 0.50162 0.49154 0.0
C74 C 0.59904 0.51167 0.56293 0.0
C75 C 0.595 0.48971 0.53451 0.0
C76 C 0.59858 0.56042 0.57062 0.0
C77 C 0.59421 0.58794 0.54958 0.0
C78 C 0.59066 0.56692 0.52093 0.0
C79 C 0.59041 0.51763 0.5136 0.0
N80 N 0.58768 0.59428 0.49901 0.0
C81 C 0.59319 0.64523 0.50323 0.0
H82 H 0.97772 0.45889 0.90234 0.0
H83 H 0.06033 0.36908 0.87294 0.0
H84 H 0.97099 0.40421 0.81362 0.0
C85 C 0.98868 0.43802 0.88505 0.0
C86 C 0.97009 0.43443 0.85733 0.0
C87 C 1.02072 0.41419 0.89084 0.0
C88 C 0.03438 0.38636 0.86872 0.0
C89 C 1.0161 0.38269 0.84087 0.0
C90 C 0.98356 0.40602 0.83529 0.0
N91 N 0.03559 0.36176 0.81819 0.0
C92 C 0.08429 0.38907 0.81318 0.0
H93 H 0.14863 0.66398 0.41676 0.0
H94 H 1.00689 0.55784 0.43532 0.0
H95 H 0.11374 0.65915 0.50263 0.0
C96 C 0.12289 0.64769 0.43192 0.0
C97 C 0.13692 0.66583 0.46073 0.0
C98 C 0.07581 0.60926 0.42246 0.0
C99 C 0.04327 0.5875 0.44237 0.0
C100 C 0.05713 0.60598 0.47137 0.0
C101 C 0.10338 0.64545 0.48027 0.0
N102 N 0.02537 0.5865 0.49229 0.0
C103 C 0.98765 0.53817 0.48836 0.0
H104 H 0.61045 0.19242 0.76458 0.0
H105 H 0.59046 0.04562 0.78488 0.0
H106 H 0.57218 0.15896 0.84717 0.0
C107 C 0.60336 0.16684 0.7799 0.0
C108 C 0.59231 0.18233 0.80697 0.0
C109 C 0.60287 0.11778 0.77179 0.0
C110 C 0.59108 0.08357 0.79115 0.0
C111 C 0.58008 0.09856 0.81847 0.0
C112 C 0.58056 0.1477 0.8261 0.0
N113 N 0.56795 0.06525 0.83874 0.0
C114 C 0.57156 0.01797 0.83515 0.0
H115 H 0.65841 0.53006 0.08279 0.0
H116 H 0.51281 0.52436 0.10014 0.0
H117 H 0.60176 0.49208 0.16155 0.0
C118 C 0.62897 0.52367 0.09679 0.0
C119 C 0.63584 0.51039 0.12307 0.0
C120 C 0.58524 0.52957 0.08841 0.0
C121 C 0.54658 0.51998 0.10642 0.0
C122 C 0.55215 0.50623 0.13285 0.0
C123 C 0.59722 0.50231 0.14116 0.0
N124 N 0.51378 0.49654 0.15172 0.0
C125 C 0.46623 0.49648 0.14662 0.0
H126 H 0.14528 0.39286 0.11992 0.0
H127 H 0.43218 0.5634 0.1753 0.0
H128 H 0.19018 0.52547 0.18488 0.0
H129 H 0.38386 0.42243 0.11654 0.0
H130 H 0.34503 0.55418 0.17683 0.0
H131 H 0.23264 0.40624 0.11657 0.0
C132 C 0.17357 0.42505 0.13344 0.0
C133 C 0.16011 0.4584 0.1525 0.0
C134 C 0.35339 0.52538 0.16345 0.0
C135 C 0.26118 0.47416 0.14875 0.0
C136 C 0.40319 0.5308 0.16246 0.0
C137 C 0.41521 0.49384 0.14558 0.0
C138 C 0.31514 0.4825 0.14748 0.0
C139 C 0.37622 0.45204 0.12964 0.0
C140 C 0.22363 0.43272 0.13148 0.0
C141 C 0.19867 0.49939 0.16946 0.0
N142 N 0.3281 0.44748 0.131 0.0
N143 N 0.24729 0.50609 0.16719 0.0
H144 H 0.82613 0.21439 0.4832 0.0
H145 H 0.89586 0.51632 0.50478 0.0
H146 H 0.73855 0.28936 0.52541 0.0
H147 H 0.99477 0.44772 0.47159 0.0
H148 H 0.83455 0.4315 0.50879 0.0
H149 H 0.88672 0.2981 0.47601 0.0
C150 C 0.81994 0.24851 0.49109 0.0
C151 C 0.77762 0.24526 0.50498 0.0
C152 C 0.86948 0.43476 0.50045 0.0
C153 C 0.8458 0.34037 0.4966 0.0
C154 C 0.90416 0.48304 0.49802 0.0
C155 C 0.94973 0.48823 0.48776 0.0
C156 C 0.88085 0.39166 0.49265 0.0
C157 C 0.95954 0.4446 0.47947 0.0
C158 C 0.85429 0.29612 0.48691 0.0
C159 C 0.77089 0.29031 0.51467 0.0
N160 N 0.9253 0.39784 0.48218 0.0
N161 N 0.80456 0.33596 0.51024 0.0
H162 H 0.6842 0.78069 0.81474 0.0
H163 H 0.50854 0.93273 0.85243 0.0
H164 H 0.54894 0.71872 0.85515 0.0
H165 H 0.6458 0.99431 0.81399 0.0
H166 H 0.51998 0.85225 0.8516 0.0
H167 H 0.66851 0.85757 0.81243 0.0
C168 C 0.65111 0.78332 0.82312 0.0
C169 C 0.6179 0.74349 0.83527 0.0
C170 C 0.54751 0.88321 0.84322 0.0
C171 C 0.59955 0.83142 0.83267 0.0
C172 C 0.5409 0.92893 0.84364 0.0
C173 C 0.57633 0.9696 0.83323 0.0
C174 C 0.58999 0.87853 0.83237 0.0
C175 C 0.61772 0.96344 0.82216 0.0
C176 C 0.64212 0.82721 0.82176 0.0
C177 C 0.57548 0.74869 0.84565 0.0
N178 N 0.62353 0.91872 0.82208 0.0
N179 N 0.56756 0.79197 0.84419 0.0
H180 H 0.91109 0.45856 0.11701 0.0
H181 H 0.69821 0.55304 0.17226 0.0
H182 H 0.93826 0.58001 0.1871 0.0
H183 H 0.68437 0.45931 0.09166 0.0
H184 H 0.78182 0.5541 0.18184 0.0
H185 H 0.82421 0.44945 0.11111 0.0
C186 C 0.89867 0.48291 0.13139 0.0
C187 C 0.93215 0.52 0.15266 0.0
C188 C 0.76032 0.53298 0.16214 0.0
C189 C 0.83232 0.51004 0.1459 0.0
C190 C 0.71236 0.53201 0.15677 0.0
C191 C 0.68407 0.50624 0.13105 0.0
C192 C 0.78015 0.50745 0.14182 0.0
C193 C 0.70483 0.48011 0.11167 0.0
C194 C 0.84904 0.47793 0.1279 0.0
C195 C 0.91388 0.55098 0.17037 0.0
N196 N 0.75132 0.48144 0.11741 0.0
N197 N 0.86541 0.54533 0.16663 0.0
H198 H 0.4519 0.85151 0.4814 0.0
H199 H 0.16042 0.75219 0.49998 0.0
H200 H 0.38265 0.94696 0.52324 0.0
H201 H 0.22637 0.6704 0.4434 0.0
H202 H 0.24316 0.81935 0.51448 0.0
H203 H 0.37089 0.77974 0.4733 0.0
C204 C 0.41962 0.85712 0.4891 0.0
C205 C 0.42358 0.90506 0.50279 0.0
C206 C 0.2395 0.78661 0.49896 0.0
C207 C 0.33112 0.82358 0.49355 0.0
C208 C 0.19242 0.74827 0.49079 0.0
C209 C 0.18669 0.70599 0.47034 0.0
C210 C 0.28106 0.78235 0.48673 0.0
C211 C 0.22919 0.7028 0.45893 0.0
C212 C 0.37344 0.81629 0.4844 0.0
C213 C 0.38087 0.91051 0.51245 0.0
N214 N 0.27462 0.74054 0.46726 0.0
N215 N 0.33622 0.87022 0.50752 0.0
H216 H 0.50961 0.43832 0.86198 0.0
H217 H 0.65666 0.27291 0.79345 0.0
H218 H 0.60997 0.483 0.79767 0.0
H219 H 0.52571 0.20974 0.83746 0.0
H220 H 0.64923 0.35539 0.80135 0.0
H221 H 0.52341 0.35894 0.85917 0.0
C222 C 0.53491 0.43157 0.84745 0.0
C223 C 0.55941 0.46755 0.83037 0.0
C224 C 0.62225 0.32352 0.80938 0.0
C225 C 0.57545 0.37723 0.8271 0.0
C226 C 0.62635 0.27634 0.80482 0.0
C227 C 0.59133 0.23398 0.81445 0.0
C228 C 0.58304 0.3287 0.82386 0.0
C229 C 0.55368 0.24125 0.82973 0.0
C230 C 0.54278 0.38637 0.84588 0.0
C231 C 0.59159 0.45698 0.81183 0.0
N232 N 0.55037 0.28761 0.83382 0.0
N233 N 0.59874 0.41279 0.8107 0.0
H234 H 0.69889 0.97478 0.54293 0.0
H235 H 0.54216 0.68265 0.47172 0.0
H236 H 0.58553 0.929 0.47384 0.0
H237 H 0.65842 0.72726 0.53897 0.0
H238 H 0.55542 0.77267 0.47348 0.0
H239 H 0.68347 0.88464 0.54287 0.0
C240 C 0.67067 0.94568 0.52779 0.0
C241 C 0.64306 0.95926 0.50856 0.0
C242 C 0.578 0.76294 0.48795 0.0
C243 C 0.62515 0.85607 0.50831 0.0
C244 C 0.57031 0.71161 0.48697 0.0
C245 C 0.59923 0.698 0.50526 0.0
C246 C 0.61504 0.80088 0.50735 0.0
C247 C 0.63537 0.73657 0.52457 0.0
C248 C 0.66179 0.89425 0.52779 0.0
C249 C 0.60699 0.92012 0.48938 0.0
N250 N 0.64237 0.78637 0.52509 0.0
N251 N 0.59908 0.87039 0.48974 0.0
H252 H 0.81028 0.63411 0.87245 0.0
H253 H 0.8866 0.39903 0.82049 0.0
H254 H 0.72575 0.50592 0.808 0.0
H255 H 0.9788 0.5302 0.88126 0.0
H256 H 0.82995 0.44107 0.81369 0.0
H257 H 0.87535 0.59994 0.87456 0.0
C258 C 0.80573 0.5991 0.85865 0.0
C259 C 0.76275 0.57255 0.84018 0.0
C260 C 0.86271 0.46085 0.82843 0.0
C261 C 0.83614 0.53339 0.84242 0.0
C262 C 0.89519 0.43691 0.83218 0.0
C263 C 0.93717 0.46091 0.85166 0.0
C264 C 0.87214 0.50908 0.84435 0.0
C265 C 0.94623 0.50987 0.86646 0.0
C266 C 0.84268 0.57961 0.85983 0.0
C267 C 0.75831 0.52741 0.82267 0.0
N268 N 0.91377 0.53223 0.86264 0.0
N269 N 0.79442 0.50914 0.82433 0.0
H270 H 0.16714 0.7228 0.14415 0.0
H271 H 0.44814 0.86576 0.21284 0.0
H272 H 0.25514 0.64703 0.17501 0.0
H273 H 0.36885 0.94365 0.17513 0.0
H274 H 0.37741 0.78502 0.19798 0.0
H275 H 0.24051 0.80391 0.15356 0.0
C276 C 0.20203 0.72325 0.15263 0.0
C277 C 0.20525 0.67847 0.15898 0.0
C278 C 0.37537 0.81965 0.19283 0.0
C279 C 0.28869 0.77049 0.16997 0.0
C280 C 0.41565 0.86582 0.2015 0.0
C281 C 0.41413 0.91148 0.19544 0.0
C282 C 0.33293 0.81895 0.17808 0.0
C283 C 0.37151 0.90922 0.18016 0.0
C284 C 0.24378 0.76942 0.15804 0.0
C285 C 0.2511 0.68083 0.16994 0.0
N286 N 0.33236 0.86368 0.17215 0.0
N287 N 0.2909 0.72611 0.17525 0.0
H288 H 0.51926 0.16662 0.47208 0.0
H289 H 0.65511 0.45083 0.55896 0.0
H290 H 0.62611 0.20764 0.5441 0.0
H291 H 0.53581 0.4096 0.49366 0.0
H292 H 0.65017 0.36331 0.55042 0.0
H293 H 0.52901 0.25621 0.47671 0.0
C294 C 0.54501 0.19457 0.48875 0.0
C295 C 0.57242 0.17985 0.50752 0.0
C296 C 0.62511 0.37328 0.53786 0.0
C297 C 0.58379 0.28228 0.51296 0.0
C298 C 0.62783 0.42334 0.54277 0.0
C299 C 0.59538 0.4376 0.52726 0.0
C300 C 0.58965 0.33676 0.51723 0.0
C301 C 0.56163 0.40044 0.50609 0.0
C302 C 0.5506 0.24567 0.49136 0.0
C303 C 0.60509 0.2175 0.52878 0.0
N304 N 0.55939 0.35166 0.50184 0.0
N305 N 0.60985 0.26685 0.53092 0.0
H306 H 0.38088 0.61328 0.85568 0.0
H307 H 0.14003 0.39127 0.76904 0.0
H308 H 0.38044 0.535 0.77224 0.0
H309 H 0.14073 0.46626 0.85326 0.0
H310 H 0.22588 0.45181 0.76726 0.0
H311 H 0.29 0.5701 0.85227 0.0
C312 C 0.36148 0.58806 0.83638 0.0
C313 C 0.38791 0.57706 0.81434 0.0
C314 C 0.20724 0.45528 0.7861 0.0
C315 C 0.28468 0.52691 0.81047 0.0
C316 C 0.15854 0.42064 0.7871 0.0
C317 C 0.13434 0.42391 0.81144 0.0
C318 C 0.23145 0.49309 0.80968 0.0
C319 C 0.15896 0.46259 0.83426 0.0
C320 C 0.30972 0.56307 0.8345 0.0
C321 C 0.36126 0.544 0.78981 0.0
N322 N 0.20645 0.49563 0.83293 0.0
N323 N 0.31113 0.51951 0.78867 0.0
H324 H 0.90374 0.28068 0.19018 0.0
H325 H 0.61211 0.17691 0.14178 0.0
H326 H 0.84022 0.33556 0.1267 0.0
H327 H 0.6701 0.11999 0.20643 0.0
H328 H 0.69676 0.2343 0.13569 0.0
H329 H 0.8198 0.21925 0.19586 0.0
C330 C 0.87219 0.27935 0.17727 0.0
C331 C 0.87867 0.31304 0.15796 0.0
C332 C 0.69125 0.20947 0.1513 0.0
C333 C 0.78319 0.24378 0.16444 0.0
C334 C 0.64297 0.17696 0.1548 0.0
C335 C 0.63477 0.14442 0.1747 0.0
C336 C 0.73154 0.20924 0.16784 0.0
C337 C 0.67549 0.1451 0.19097 0.0
C338 C 0.8244 0.24457 0.18059 0.0
C339 C 0.83679 0.3102 0.14184 0.0
N340 N 0.72242 0.17717 0.1872 0.0
N341 N 0.7909 0.27634 0.1455 0.0
H342 H 1.00657 0.37593 0.06245 0.0
H343 H 0.07685 0.502 0.92571 0.0
H344 H 0.1082 0.53251 0.06475 0.0
H345 H 1.0057 0.33917 0.9226 0.0
H346 H 0.09423 0.5129 0.9767 0.0
H347 H 1.00979 0.36024 0.01148 0.0
C348 C 0.02975 0.40697 0.05228 0.0
C349 C 0.05658 0.45584 0.06786 0.0
C350 C 0.07563 0.47465 0.9649 0.0
C351 C 0.06044 0.43805 0.00955 0.0
C352 C 0.06586 0.46851 0.93586 0.0
C353 C 0.03977 0.4197 0.92024 0.0
C354 C 0.05819 0.43171 0.97843 0.0
C355 C 0.02606 0.37737 0.9341 0.0
C356 C 0.0318 0.39786 0.02319 0.0
C357 C 0.08651 0.49436 0.05359 0.0
N358 N 0.0347 0.38439 0.96259 0.0
N359 N 0.08715 0.48478 0.02521 0.0
H360 H 0.63487 0.14008 0.41787 0.0
H361 H 0.5384 0.94899 0.27134 0.0
H362 H 0.55386 0.97709 0.41022 0.0
H363 H 0.55792 0.10709 0.2792 0.0
H364 H 0.5635 0.96252 0.32152 0.0
H365 H 0.62447 0.13181 0.36624 0.0
C366 C 0.61526 0.10261 0.40534 0.0
C367 C 0.59487 0.05922 0.4183 0.0
C368 C 0.56262 0.99436 0.31223 0.0
C369 C 0.58368 0.04954 0.35963 0.0
C370 C 0.54821 0.98668 0.2836 0.0
C371 C 0.54498 0.02669 0.27114 0.0
C372 C 0.5744 0.04253 0.32863 0.0
C373 C 0.55972 0.07512 0.28795 0.0
C374 C 0.60926 0.09799 0.37599 0.0
C375 C 0.56972 0.01161 0.40114 0.0
N376 N 0.57341 0.08164 0.31597 0.0
N377 N 0.56499 0.00805 0.37273 0.0
H378 H 0.67717 0.62572 0.74888 0.0
H379 H 0.53684 0.59866 0.59871 0.0
H380 H 0.52778 0.62028 0.73959 0.0
H381 H 0.66942 0.56968 0.61116 0.0
H382 H 0.53939 0.62327 0.65003 0.0
H383 H 0.68128 0.6225 0.69837 0.0
C384 C 0.64522 0.62417 0.73625 0.0
C385 C 0.60171 0.62244 0.74852 0.0
C386 C 0.56817 0.61206 0.64145 0.0
C387 C 0.60625 0.61854 0.6903 0.0
C388 C 0.56689 0.59836 0.61225 0.0
C389 C 0.60277 0.58179 0.60087 0.0
C390 C 0.60593 0.60964 0.65917 0.0
C391 C 0.64079 0.58172 0.61919 0.0
C392 C 0.64765 0.62232 0.70733 0.0
C393 C 0.56192 0.62129 0.73101 0.0
N394 N 0.64124 0.59518 0.6474 0.0
N395 N 0.56492 0.61882 0.70268 0.0
H396 H 0.69195 0.14008 0.60416 0.0
H397 H 0.54866 0.03022 0.73475 0.0
H398 H 0.55548 0.00528 0.59528 0.0
H399 H 0.67813 0.17122 0.74209 0.0
H400 H 0.5577 0.01288 0.68429 0.0
H401 H 0.69398 0.14492 0.65517 0.0
C402 C 0.66253 0.11126 0.61288 0.0
C403 C 0.62315 0.07256 0.59533 0.0
C404 C 0.58448 0.04731 0.69702 0.0
C405 C 0.62526 0.07799 0.65391 0.0
C406 C 0.57954 0.05699 0.72583 0.0
C407 C 0.61237 0.10248 0.74249 0.0
C408 C 0.62259 0.08336 0.68488 0.0
C409 C 0.65155 0.13608 0.72986 0.0
C410 C 0.66375 0.11406 0.64207 0.0
C411 C 0.58635 0.0361 0.60794 0.0
N412 N 0.65529 0.12607 0.7018 0.0
N413 N 0.58809 0.03995 0.63646 0.0
H414 H 0.49735 0.56707 0.92045 0.0
H415 H 0.65717 0.60274 0.06531 0.0
H416 H 0.65756 0.623 0.93031 0.0
H417 H 0.50409 0.49582 0.0488 0.0
H418 H 0.6537 0.62432 0.01844 0.0
H419 H 0.4954 0.55393 0.96993 0.0
C420 C 0.53205 0.57714 0.93308 0.0
C421 C 0.57769 0.59597 0.92123 0.0
C422 C 0.62077 0.59623 0.02506 0.0
C423 C 0.57569 0.58145 0.97759 0.0
C424 C 0.62275 0.58366 0.05182 0.0
C425 C 0.58117 0.5465 0.06089 0.0
C426 C 0.57675 0.57197 0.00709 0.0
C427 C 0.5371 0.52455 0.04271 0.0
C428 C 0.53087 0.56936 0.9612 0.0
C429 C 0.62152 0.60803 0.93847 0.0
N430 N 0.53611 0.53735 0.01656 0.0
N431 N 0.61941 0.60067 0.9657 0.0
H432 H 0.99516 0.44667 0.24963 0.0
H433 H 0.08746 0.67113 0.38318 0.0
H434 H 0.08691 0.6045 0.24678 0.0
H435 H 0.03095 0.51199 0.39185 0.0
H436 H 0.07329 0.64631 0.3322 0.0
H437 H 0.99524 0.46902 0.30088 0.0
C438 C 1.01505 0.48598 0.25972 0.0
C439 C 0.04145 0.52371 0.24394 0.0
C440 C 0.06376 0.61668 0.34517 0.0
C441 C 0.04122 0.54942 0.30222 0.0
C442 C 0.07191 0.63084 0.37429 0.0
C443 C 0.06127 0.59356 0.39173 0.0
C444 C 0.04475 0.56474 0.3332 0.0
C445 C 0.03987 0.54191 0.37911 0.0
C446 C 1.01513 0.49863 0.28892 0.0
C447 C 0.06652 0.574 0.25807 0.0
N448 N 0.03274 0.52892 0.3505 0.0
N449 N 0.06576 0.5853 0.28632 0.0
loop_
_geom_bond_atom_site_label_1
_geom_bond_atom_site_label_2
_geom_bond_distance
_geom_bond_site_symmetry_2
_ccdc_geom_bond_type
Tb0 O3 2.453 1_455 S
Tb0 O4 2.596 1_455 S
Tb0 O5 2.374 . S
Tb0 O13 2.343 . S
Tb0 O15 2.353 . S
Tb0 O17 2.427 . S
Tb0 O18 2.513 . S
C1 O5 1.251 . S
C1 O7 1.263 . S
Tb2 O4 2.343 1_455 S
Tb2 O7 2.353 . S
Tb2 O10 2.427 1_455 S
Tb2 O11 2.513 1_455 S
Tb2 O12 2.453 . S
Tb2 O13 2.596 . S
Tb2 O14 2.374 . S
O3 Tb0 2.453 1_655 S
O3 C19 1.245 . S
O4 Tb0 2.596 1_655 S
O4 Tb2 2.343 1_655 S
O4 C19 1.259 . S
O5 Tb0 2.374 . S
O5 C1 1.251 . S
C6 O10 1.275 . S
C6 O11 1.246 . S
O7 C1 1.263 . S
O7 Tb2 2.353 . S
C8 O12 1.245 . S
C8 O13 1.259 . S
C9 O14 1.250 . S
C9 O15 1.263 . S
O10 Tb2 2.427 1_655 S
O10 C6 1.275 . S
O11 Tb2 2.513 1_655 S
O11 C6 1.246 . S
O12 Tb2 2.453 . S
O12 C8 1.245 . S
O13 Tb0 2.343 . S
O13 Tb2 2.596 . S
O13 C8 1.259 . S
O14 Tb2 2.374 . S
O14 C9 1.250 . S
O15 Tb0 2.353 . S
O15 C9 1.263 . S
C16 O17 1.275 . S
C16 O18 1.246 . S
O17 Tb0 2.427 . S
O17 C16 1.275 . S
O18 Tb0 2.513 . S
O18 C16 1.246 . S
C19 O3 1.245 . S
C19 O4 1.259 . S
Tb20 O23 2.453 . S
Tb20 O24 2.596 . S
Tb20 O25 2.374 . S
Tb20 O33 2.343 . S
Tb20 O35 2.353 . S
Tb20 O37 2.427 1_545 S
Tb20 O38 2.513 1_545 S
C21 O25 1.251 . S
C21 O27 1.263 . S
Tb22 O24 2.343 . S
Tb22 O27 2.353 . S
Tb22 O30 2.427 . S
Tb22 O31 2.513 . S
Tb22 O32 2.453 1_545 S
Tb22 O33 2.596 . S
Tb22 O34 2.374 . S
O23 Tb20 2.453 . S
O23 C39 1.245 . S
O24 Tb20 2.596 . S
O24 Tb22 2.343 . S
O24 C39 1.259 . S
O25 Tb20 2.374 . S
O25 C21 1.251 . S
C26 O30 1.275 . S
C26 O31 1.246 . S
O27 C21 1.263 . S
O27 Tb22 2.353 . S
C28 O32 1.245 . S
C28 O33 1.259 1_565 S
C29 O34 1.250 . S
C29 O35 1.263 . S
O30 Tb22 2.427 . S
O30 C26 1.275 . S
O31 Tb22 2.513 . S
O31 C26 1.246 . S
O32 Tb22 2.453 1_565 S
O32 C28 1.245 . S
O33 Tb20 2.343 . S
O33 Tb22 2.596 . S
O33 C28 1.259 1_545 S
O34 Tb22 2.374 . S
O34 C29 1.250 . S
O35 Tb20 2.353 . S
O35 C29 1.263 . S
C36 O37 1.275 . S
C36 O38 1.246 . S
O37 Tb20 2.427 1_565 S
O37 C36 1.275 . S
O38 Tb20 2.513 1_565 S
O38 C36 1.246 . S
C39 O23 1.245 . S
C39 O24 1.259 . S
Tb40 O43 2.453 . S
Tb40 O44 2.596 . S
Tb40 O45 2.374 . S
Tb40 O53 2.343 . S
Tb40 O55 2.353 . S
Tb40 O57 2.427 . S
Tb40 O58 2.513 . S
C41 O45 1.251 . S
C41 O47 1.263 . S
Tb42 O44 2.343 . S
Tb42 O47 2.353 . S
Tb42 O50 2.427 . S
Tb42 O51 2.513 . S
Tb42 O52 2.453 . S
Tb42 O53 2.596 . S
Tb42 O54 2.374 . S
O43 Tb40 2.453 . S
O43 C59 1.245 . S
O44 Tb40 2.596 . S
O44 Tb42 2.343 . S
O44 C59 1.259 . S
O45 Tb40 2.374 . S
O45 C41 1.251 . S
C46 O50 1.275 . S
C46 O51 1.246 . S
O47 C41 1.263 . S
O47 Tb42 2.353 . S
C48 O52 1.245 . S
C48 O53 1.259 . S
C49 O54 1.250 . S
C49 O55 1.263 . S
O50 Tb42 2.427 . S
O50 C46 1.275 . S
O51 Tb42 2.513 . S
O51 C46 1.246 . S
O52 Tb42 2.453 . S
O52 C48 1.245 . S
O53 Tb40 2.343 . S
O53 Tb42 2.596 . S
O53 C48 1.259 . S
O54 Tb42 2.374 . S
O54 C49 1.250 . S
O55 Tb40 2.353 . S
O55 C49 1.263 . S
C56 O57 1.275 . S
C56 O58 1.246 . S
O57 Tb40 2.427 . S
O57 C56 1.275 . S
O58 Tb40 2.513 . S
O58 C56 1.246 . S
C59 O43 1.245 . S
C59 O44 1.259 . S
H60 C63 0.929 . S
H61 C66 0.929 . S
H62 C68 0.930 . S
C63 H60 0.929 . S
C63 C64 1.398 . S
C63 C65 1.396 . S
C64 C63 1.398 . S
C64 C68 1.407 . S
C65 C63 1.396 . S
C65 C66 1.394 . S
C66 H61 0.929 . S
C66 C65 1.394 . S
C66 C67 1.382 . S
C67 C66 1.382 . S
C67 C68 1.392 . S
C67 N69 1.420 . S
C68 H62 0.930 . S
C68 C64 1.407 . S
C68 C67 1.392 . S
N69 C67 1.420 . S
N69 C70 1.244 . S
C70 N69 1.244 . S
H71 C74 0.929 . S
H72 C77 0.929 . S
H73 C79 0.930 . S
C74 H71 0.929 . S
C74 C75 1.398 . S
C74 C76 1.396 . S
C75 C74 1.398 . S
C75 C79 1.407 . S
C76 C74 1.396 . S
C76 C77 1.394 . S
C77 H72 0.929 . S
C77 C76 1.394 . S
C77 C78 1.382 . S
C78 C77 1.382 . S
C78 C79 1.392 . S
C78 N80 1.420 . S
C79 H73 0.930 . S
C79 C75 1.407 . S
C79 C78 1.392 . S
N80 C78 1.420 . S
N80 C81 1.244 . S
C81 N80 1.244 . S
H82 C85 0.929 . S
H83 C88 0.929 . S
H84 C90 0.930 . S
C85 H82 0.929 . S
C85 C86 1.398 . S
C85 C87 1.396 . S
C86 C85 1.398 . S
C86 C90 1.407 . S
C87 C85 1.396 . S
C87 C88 1.394 . S
C88 H83 0.929 . S
C88 C87 1.394 . S
C88 C89 1.382 . S
C89 C88 1.382 . S
C89 C90 1.392 . S
C89 N91 1.420 . S
C90 H84 0.930 . S
C90 C86 1.407 . S
C90 C89 1.392 . S
N91 C89 1.420 . S
N91 C92 1.244 . S
C92 N91 1.244 . S
H93 C96 0.929 . S
H94 C99 0.929 . S
H95 C101 0.930 . S
C96 H93 0.929 . S
C96 C97 1.398 . S
C96 C98 1.396 . S
C97 C96 1.398 . S
C97 C101 1.407 . S
C98 C96 1.396 . S
C98 C99 1.394 1_455 S
C99 H94 0.929 . S
C99 C98 1.394 1_655 S
C99 C100 1.382 . S
C100 C99 1.382 . S
C100 C101 1.392 1_655 S
C100 N102 1.420 . S
C101 H95 0.930 . S
C101 C97 1.407 . S
C101 C100 1.392 1_455 S
N102 C100 1.420 . S
N102 C103 1.244 . S
C103 N102 1.244 . S
H104 C107 0.929 . S
H105 C110 0.929 1_565 S
H106 C112 0.930 . S
C107 H104 0.929 . S
C107 C108 1.398 . S
C107 C109 1.396 . S
C108 C107 1.398 . S
C108 C112 1.407 . S
C109 C107 1.396 . S
C109 C110 1.394 . S
C110 H105 0.929 1_545 S
C110 C109 1.394 . S
C110 C111 1.382 . S
C111 C110 1.382 . S
C111 C112 1.392 . S
C111 N113 1.420 1_545 S
C112 H106 0.930 . S
C112 C108 1.407 . S
C112 C111 1.392 . S
N113 C111 1.420 1_565 S
N113 C114 1.244 . S
C114 N113 1.244 . S
H115 C118 0.929 . S
H116 C121 0.929 . S
H117 C123 0.930 . S
C118 H115 0.929 . S
C118 C119 1.398 . S
C118 C120 1.396 . S
C119 C118 1.398 . S
C119 C123 1.407 . S
C120 C118 1.396 . S
C120 C121 1.394 . S
C121 H116 0.929 . S
C121 C120 1.394 . S
C121 C122 1.382 . S
C122 C121 1.382 . S
C122 C123 1.392 . S
C122 N124 1.420 . S
C123 H117 0.930 . S
C123 C119 1.407 . S
C123 C122 1.392 . S
N124 C122 1.420 . S
N124 C125 1.244 . S
C125 N124 1.244 . S
H126 C132 0.930 . S
H127 C136 0.930 . S
H128 C141 0.929 . S
H129 C139 0.929 . S
H130 C134 0.929 . S
H131 C140 0.929 . S
C132 H126 0.930 . S
C132 C133 1.367 . S
C132 C140 1.378 . S
C133 C132 1.367 . S
C133 C141 1.433 . S
C134 H130 0.929 . S
C134 C136 1.378 . S
C134 C138 1.350 . S
C135 C138 1.463 . S
C135 C140 1.350 . S
C135 N143 1.427 . S
C136 H127 0.930 . S
C136 C134 1.378 . S
C136 C137 1.367 . S
C137 C136 1.367 . S
C137 C139 1.433 . S
C138 C134 1.350 . S
C138 C135 1.463 . S
C138 N142 1.427 . S
C139 H129 0.929 . S
C139 C137 1.433 . S
C139 N142 1.384 . S
C140 H131 0.929 . S
C140 C132 1.378 . S
C140 C135 1.350 . S
C141 H128 0.929 . S
C141 C133 1.433 . S
C141 N143 1.384 . S
N142 C138 1.427 . S
N142 C139 1.384 . S
N143 C135 1.427 . S
N143 C141 1.384 . S
H144 C150 0.930 . S
H145 C154 0.930 . S
H146 C159 0.929 . S
H147 C157 0.929 . S
H148 C152 0.929 . S
H149 C158 0.929 . S
C150 H144 0.930 . S
C150 C151 1.367 . S
C150 C158 1.378 . S
C151 C150 1.367 . S
C151 C159 1.433 . S
C152 H148 0.929 . S
C152 C154 1.378 . S
C152 C156 1.350 . S
C153 C156 1.463 . S
C153 C158 1.350 . S
C153 N161 1.427 . S
C154 H145 0.930 . S
C154 C152 1.378 . S
C154 C155 1.367 . S
C155 C154 1.367 . S
C155 C157 1.433 . S
C156 C152 1.350 . S
C156 C153 1.463 . S
C156 N160 1.427 . S
C157 H147 0.929 . S
C157 C155 1.433 . S
C157 N160 1.384 . S
C158 H149 0.929 . S
C158 C150 1.378 . S
C158 C153 1.350 . S
C159 H146 0.929 . S
C159 C151 1.433 . S
C159 N161 1.384 . S
N160 C156 1.427 . S
N160 C157 1.384 . S
N161 C153 1.427 . S
N161 C159 1.384 . S
H162 C168 0.930 . S
H163 C172 0.930 . S
H164 C177 0.929 . S
H165 C175 0.929 . S
H166 C170 0.929 . S
H167 C176 0.929 . S
C168 H162 0.930 . S
C168 C169 1.367 . S
C168 C176 1.378 . S
C169 C168 1.367 . S
C169 C177 1.433 . S
C170 H166 0.929 . S
C170 C172 1.378 . S
C170 C174 1.350 . S
C171 C174 1.463 . S
C171 C176 1.350 . S
C171 N179 1.427 . S
C172 H163 0.930 . S
C172 C170 1.378 . S
C172 C173 1.367 . S
C173 C172 1.367 . S
C173 C175 1.433 . S
C174 C170 1.350 . S
C174 C171 1.463 . S
C174 N178 1.427 . S
C175 H165 0.929 . S
C175 C173 1.433 . S
C175 N178 1.384 . S
C176 H167 0.929 . S
C176 C168 1.378 . S
C176 C171 1.350 . S
C177 H164 0.929 . S
C177 C169 1.433 . S
C177 N179 1.384 . S
N178 C174 1.427 . S
N178 C175 1.384 . S
N179 C171 1.427 . S
N179 C177 1.384 . S
H180 C186 0.930 . S
H181 C190 0.930 . S
H182 C195 0.929 . S
H183 C193 0.929 . S
H184 C188 0.929 . S
H185 C194 0.929 . S
C186 H180 0.930 . S
C186 C187 1.367 . S
C186 C194 1.378 . S
C187 C186 1.367 . S
C187 C195 1.433 . S
C188 H184 0.929 . S
C188 C190 1.378 . S
C188 C192 1.350 . S
C189 C192 1.463 . S
C189 C194 1.350 . S
C189 N197 1.427 . S
C190 H181 0.930 . S
C190 C188 1.378 . S
C190 C191 1.367 . S
C191 C190 1.367 . S
C191 C193 1.433 . S
C192 C188 1.350 . S
C192 C189 1.463 . S
C192 N196 1.427 . S
C193 H183 0.929 . S
C193 C191 1.433 . S
C193 N196 1.384 . S
C194 H185 0.929 . S
C194 C186 1.378 . S
C194 C189 1.350 . S
C195 H182 0.929 . S
C195 C187 1.433 . S
C195 N197 1.384 . S
N196 C192 1.427 . S
N196 C193 1.384 . S
N197 C189 1.427 . S
N197 C195 1.384 . S
H198 C204 0.930 . S
H199 C208 0.930 . S
H200 C213 0.929 . S
H201 C211 0.929 . S
H202 C206 0.929 . S
H203 C212 0.929 . S
C204 H198 0.930 . S
C204 C205 1.367 . S
C204 C212 1.378 . S
C205 C204 1.367 . S
C205 C213 1.433 . S
C206 H202 0.929 . S
C206 C208 1.378 . S
C206 C210 1.350 . S
C207 C210 1.463 . S
C207 C212 1.350 . S
C207 N215 1.427 . S
C208 H199 0.930 . S
C208 C206 1.378 . S
C208 C209 1.367 . S
C209 C208 1.367 . S
C209 C211 1.433 . S
C210 C206 1.350 . S
C210 C207 1.463 . S
C210 N214 1.427 . S
C211 H201 0.929 . S
C211 C209 1.433 . S
C211 N214 1.384 . S
C212 H203 0.929 . S
C212 C204 1.378 . S
C212 C207 1.350 . S
C213 H200 0.929 . S
C213 C205 1.433 . S
C213 N215 1.384 . S
N214 C210 1.427 . S
N214 C211 1.384 . S
N215 C207 1.427 . S
N215 C213 1.384 . S
H216 C222 0.930 . S
H217 C226 0.930 . S
H218 C231 0.929 . S
H219 C229 0.929 . S
H220 C224 0.929 . S
H221 C230 0.929 . S
C222 H216 0.930 . S
C222 C223 1.367 . S
C222 C230 1.378 . S
C223 C222 1.367 . S
C223 C231 1.433 . S
C224 H220 0.929 . S
C224 C226 1.378 . S
C224 C228 1.350 . S
C225 C228 1.463 . S
C225 C230 1.350 . S
C225 N233 1.427 . S
C226 H217 0.930 . S
C226 C224 1.378 . S
C226 C227 1.367 . S
C227 C226 1.367 . S
C227 C229 1.433 . S
C228 C224 1.350 . S
C228 C225 1.463 . S
C228 N232 1.427 . S
C229 H219 0.929 . S
C229 C227 1.433 . S
C229 N232 1.384 . S
C230 H221 0.929 . S
C230 C222 1.378 . S
C230 C225 1.350 . S
C231 H218 0.929 . S
C231 C223 1.433 . S
C231 N233 1.384 . S
N232 C228 1.427 . S
N232 C229 1.384 . S
N233 C225 1.427 . S
N233 C231 1.384 . S
H234 C240 0.930 . S
H235 C244 0.930 . S
H236 C249 0.929 . S
H237 C247 0.929 . S
H238 C242 0.929 . S
H239 C248 0.929 . S
C240 H234 0.930 . S
C240 C241 1.367 . S
C240 C248 1.378 . S
C241 C240 1.367 . S
C241 C249 1.433 . S
C242 H238 0.929 . S
C242 C244 1.378 . S
C242 C246 1.350 . S
C243 C246 1.463 . S
C243 C248 1.350 . S
C243 N251 1.427 . S
C244 H235 0.930 . S
C244 C242 1.378 . S
C244 C245 1.367 . S
C245 C244 1.367 . S
C245 C247 1.433 . S
C246 C242 1.350 . S
C246 C243 1.463 . S
C246 N250 1.427 . S
C247 H237 0.929 . S
C247 C245 1.433 . S
C247 N250 1.384 . S
C248 H239 0.929 . S
C248 C240 1.378 . S
C248 C243 1.350 . S
C249 H236 0.929 . S
C249 C241 1.433 . S
C249 N251 1.384 . S
N250 C246 1.427 . S
N250 C247 1.384 . S
N251 C243 1.427 . S
N251 C249 1.384 . S
H252 C258 0.930 . S
H253 C262 0.930 . S
H254 C267 0.929 . S
H255 C265 0.929 1_455 S
H256 C260 0.929 . S
H257 C266 0.929 . S
C258 H252 0.930 . S
C258 C259 1.367 . S
C258 C266 1.378 . S
C259 C258 1.367 . S
C259 C267 1.433 . S
C260 H256 0.929 . S
C260 C262 1.378 . S
C260 C264 1.350 . S
C261 C264 1.463 . S
C261 C266 1.350 . S
C261 N269 1.427 . S
C262 H253 0.930 . S
C262 C260 1.378 . S
C262 C263 1.367 . S
C263 C262 1.367 . S
C263 C265 1.433 . S
C264 C260 1.350 . S
C264 C261 1.463 . S
C264 N268 1.427 . S
C265 H255 0.929 1_655 S
C265 C263 1.433 . S
C265 N268 1.384 . S
C266 H257 0.929 . S
C266 C258 1.378 . S
C266 C261 1.350 . S
C267 H254 0.929 . S
C267 C259 1.433 . S
C267 N269 1.384 . S
N268 C264 1.427 . S
N268 C265 1.384 . S
N269 C261 1.427 . S
N269 C267 1.384 . S
H270 C276 0.930 . S
H271 C280 0.930 . S
H272 C285 0.929 . S
H273 C283 0.929 . S
H274 C278 0.929 . S
H275 C284 0.929 . S
C276 H270 0.930 . S
C276 C277 1.367 . S
C276 C284 1.378 . S
C277 C276 1.367 . S
C277 C285 1.433 . S
C278 H274 0.929 . S
C278 C280 1.378 . S
C278 C282 1.350 . S
C279 C282 1.463 . S
C279 C284 1.350 . S
C279 N287 1.427 . S
C280 H271 0.930 . S
C280 C278 1.378 . S
C280 C281 1.367 . S
C281 C280 1.367 . S
C281 C283 1.433 . S
C282 C278 1.350 . S
C282 C279 1.463 . S
C282 N286 1.427 . S
C283 H273 0.929 . S
C283 C281 1.433 . S
C283 N286 1.384 . S
C284 H275 0.929 . S
C284 C276 1.378 . S
C284 C279 1.350 . S
C285 H272 0.929 . S
C285 C277 1.433 . S
C285 N287 1.384 . S
N286 C282 1.427 . S
N286 C283 1.384 . S
N287 C279 1.427 . S
N287 C285 1.384 . S
H288 C294 0.930 . S
H289 C298 0.930 . S
H290 C303 0.929 . S
H291 C301 0.929 . S
H292 C296 0.929 . S
H293 C302 0.929 . S
C294 H288 0.930 . S
C294 C295 1.367 . S
C294 C302 1.378 . S
C295 C294 1.367 . S
C295 C303 1.433 . S
C296 H292 0.929 . S
C296 C298 1.378 . S
C296 C300 1.350 . S
C297 C300 1.463 . S
C297 C302 1.350 . S
C297 N305 1.427 . S
C298 H289 0.930 . S
C298 C296 1.378 . S
C298 C299 1.367 . S
C299 C298 1.367 . S
C299 C301 1.433 . S
C300 C296 1.350 . S
C300 C297 1.463 . S
C300 N304 1.427 . S
C301 H291 0.929 . S
C301 C299 1.433 . S
C301 N304 1.384 . S
C302 H293 0.929 . S
C302 C294 1.378 . S
C302 C297 1.350 . S
C303 H290 0.929 . S
C303 C295 1.433 . S
C303 N305 1.384 . S
N304 C300 1.427 . S
N304 C301 1.384 . S
N305 C297 1.427 . S
N305 C303 1.384 . S
H306 C312 0.930 . S
H307 C316 0.930 . S
H308 C321 0.929 . S
H309 C319 0.929 . S
H310 C314 0.929 . S
H311 C320 0.929 . S
C312 H306 0.930 . S
C312 C313 1.367 . S
C312 C320 1.378 . S
C313 C312 1.367 . S
C313 C321 1.433 . S
C314 H310 0.929 . S
C314 C316 1.378 . S
C314 C318 1.350 . S
C315 C318 1.463 . S
C315 C320 1.350 . S
C315 N323 1.427 . S
C316 H307 0.930 . S
C316 C314 1.378 . S
C316 C317 1.367 . S
C317 C316 1.367 . S
C317 C319 1.433 . S
C318 C314 1.350 . S
C318 C315 1.463 . S
C318 N322 1.427 . S
C319 H309 0.929 . S
C319 C317 1.433 . S
C319 N322 1.384 . S
C320 H311 0.929 . S
C320 C312 1.378 . S
C320 C315 1.350 . S
C321 H308 0.929 . S
C321 C313 1.433 . S
C321 N323 1.384 . S
N322 C318 1.427 . S
N322 C319 1.384 . S
N323 C315 1.427 . S
N323 C321 1.384 . S
H324 C330 0.930 . S
H325 C334 0.930 . S
H326 C339 0.929 . S
H327 C337 0.929 . S
H328 C332 0.929 . S
H329 C338 0.929 . S
C330 H324 0.930 . S
C330 C331 1.367 . S
C330 C338 1.378 . S
C331 C330 1.367 . S
C331 C339 1.433 . S
C332 H328 0.929 . S
C332 C334 1.378 . S
C332 C336 1.350 . S
C333 C336 1.463 . S
C333 C338 1.350 . S
C333 N341 1.427 . S
C334 H325 0.930 . S
C334 C332 1.378 . S
C334 C335 1.367 . S
C335 C334 1.367 . S
C335 C337 1.433 . S
C336 C332 1.350 . S
C336 C333 1.463 . S
C336 N340 1.427 . S
C337 H327 0.929 . S
C337 C335 1.433 . S
C337 N340 1.384 . S
C338 H329 0.929 . S
C338 C330 1.378 . S
C338 C333 1.350 . S
C339 H326 0.929 . S
C339 C331 1.433 . S
C339 N341 1.384 . S
N340 C336 1.427 . S
N340 C337 1.384 . S
N341 C333 1.427 . S
N341 C339 1.384 . S
H342 C348 0.930 . S
H343 C352 0.930 . S
H344 C357 0.929 . S
H345 C355 0.929 . S
H346 C350 0.929 . S
H347 C356 0.929 . S
C348 H342 0.930 . S
C348 C349 1.367 . S
C348 C356 1.378 . S
C349 C348 1.367 . S
C349 C357 1.433 . S
C350 H346 0.929 . S
C350 C352 1.378 . S
C350 C354 1.350 . S
C351 C354 1.463 1_554 S
C351 C356 1.350 . S
C351 N359 1.427 . S
C352 H343 0.930 . S
C352 C350 1.378 . S
C352 C353 1.367 . S
C353 C352 1.367 . S
C353 C355 1.433 . S
C354 C350 1.350 . S
C354 C351 1.463 1_556 S
C354 N358 1.427 . S
C355 H345 0.929 . S
C355 C353 1.433 . S
C355 N358 1.384 . S
C356 H347 0.929 . S
C356 C348 1.378 . S
C356 C351 1.350 . S
C357 H344 0.929 . S
C357 C349 1.433 . S
C357 N359 1.384 . S
N358 C354 1.427 . S
N358 C355 1.384 . S
N359 C351 1.427 . S
N359 C357 1.384 . S
H360 C366 0.930 . S
H361 C370 0.930 . S
H362 C375 0.929 1_565 S
H363 C373 0.929 . S
H364 C368 0.932 . S
H365 C374 0.929 . S
C366 H360 0.930 . S
C366 C367 1.367 . S
C366 C374 1.378 . S
C367 C366 1.367 . S
C367 C375 1.433 . S
C368 H364 0.932 . S
C368 C370 1.378 . S
C368 C372 1.350 . S
C369 C372 1.463 . S
C369 C374 1.350 . S
C369 N377 1.427 . S
C370 H361 0.930 . S
C370 C368 1.378 . S
C370 C371 1.367 . S
C371 C370 1.367 . S
C371 C373 1.433 . S
C372 C368 1.350 . S
C372 C369 1.463 . S
C372 N376 1.427 . S
C373 H363 0.929 . S
C373 C371 1.433 . S
C373 N376 1.384 . S
C374 H365 0.929 . S
C374 C366 1.378 . S
C374 C369 1.350 . S
C375 H362 0.929 1_545 S
C375 C367 1.433 . S
C375 N377 1.384 . S
N376 C372 1.427 . S
N376 C373 1.384 . S
N377 C369 1.427 . S
N377 C375 1.384 . S
H378 C384 0.930 . S
H379 C388 0.930 . S
H380 C393 0.929 . S
H381 C391 0.929 . S
H382 C386 0.929 . S
H383 C392 0.929 . S
C384 H378 0.930 . S
C384 C385 1.367 . S
C384 C392 1.378 . S
C385 C384 1.367 . S
C385 C393 1.433 . S
C386 H382 0.929 . S
C386 C388 1.378 . S
C386 C390 1.350 . S
C387 C390 1.463 . S
C387 C392 1.350 . S
C387 N395 1.427 . S
C388 H379 0.930 . S
C388 C386 1.378 . S
C388 C389 1.367 . S
C389 C388 1.367 . S
C389 C391 1.433 . S
C390 C386 1.350 . S
C390 C387 1.463 . S
C390 N394 1.427 . S
C391 H381 0.929 . S
C391 C389 1.433 . S
C391 N394 1.384 . S
C392 H383 0.929 . S
C392 C384 1.378 . S
C392 C387 1.350 . S
C393 H380 0.929 . S
C393 C385 1.433 . S
C393 N395 1.384 . S
N394 C390 1.427 . S
N394 C391 1.384 . S
N395 C387 1.427 . S
N395 C393 1.384 . S
H396 C402 0.930 . S
H397 C406 0.930 . S
H398 C411 0.929 . S
H399 C409 0.929 . S
H400 C404 0.929 . S
H401 C410 0.929 . S
C402 H396 0.930 . S
C402 C403 1.367 . S
C402 C410 1.378 . S
C403 C402 1.367 . S
C403 C411 1.433 . S
C404 H400 0.929 . S
C404 C406 1.378 . S
C404 C408 1.350 . S
C405 C408 1.463 . S
C405 C410 1.350 . S
C405 N413 1.427 . S
C406 H397 0.930 . S
C406 C404 1.378 . S
C406 C407 1.367 . S
C407 C406 1.367 . S
C407 C409 1.433 . S
C408 C404 1.350 . S
C408 C405 1.463 . S
C408 N412 1.427 . S
C409 H399 0.929 . S
C409 C407 1.433 . S
C409 N412 1.384 . S
C410 H401 0.929 . S
C410 C402 1.378 . S
C410 C405 1.350 . S
C411 H398 0.929 . S
C411 C403 1.433 . S
C411 N413 1.384 . S
N412 C408 1.427 . S
N412 C409 1.384 . S
N413 C405 1.427 . S
N413 C411 1.384 . S
H414 C420 0.930 . S
H415 C424 0.930 . S
H416 C429 0.929 . S
H417 C427 0.929 . S
H418 C422 0.929 . S
H419 C428 0.929 . S
C420 H414 0.930 . S
C420 C421 1.367 . S
C420 C428 1.378 . S
C421 C420 1.367 . S
C421 C429 1.433 . S
C422 H418 0.929 . S
C422 C424 1.378 . S
C422 C426 1.350 . S
C423 C426 1.463 1_556 S
C423 C428 1.350 . S
C423 N431 1.427 . S
C424 H415 0.930 . S
C424 C422 1.378 . S
C424 C425 1.367 . S
C425 C424 1.367 . S
C425 C427 1.433 . S
C426 C422 1.350 . S
C426 C423 1.463 1_554 S
C426 N430 1.427 . S
C427 H417 0.929 . S
C427 C425 1.433 . S
C427 N430 1.384 . S
C428 H419 0.929 . S
C428 C420 1.378 . S
C428 C423 1.350 . S
C429 H416 0.929 . S
C429 C421 1.433 . S
C429 N431 1.384 . S
N430 C426 1.427 . S
N430 C427 1.384 . S
N431 C423 1.427 . S
N431 C429 1.384 . S
H432 C438 0.930 . S
H433 C442 0.930 . S
H434 C447 0.929 . S
H435 C445 0.929 . S
H436 C440 0.929 . S
H437 C446 0.929 . S
C438 H432 0.930 . S
C438 C439 1.367 . S
C438 C446 1.378 . S
C439 C438 1.367 . S
C439 C447 1.433 1_455 S
C440 H436 0.929 . S
C440 C442 1.378 . S
C440 C444 1.350 1_655 S
C441 C444 1.463 . S
C441 C446 1.350 . S
C441 N449 1.427 1_455 S
C442 H433 0.930 . S
C442 C440 1.378 . S
C442 C443 1.367 1_655 S
C443 C442 1.367 1_455 S
C443 C445 1.433 . S
C444 C440 1.350 1_455 S
C444 C441 1.463 . S
C444 N448 1.427 . S
C445 H435 0.929 . S
C445 C443 1.433 . S
C445 N448 1.384 . S
C446 H437 0.929 . S
C446 C438 1.378 . S
C446 C441 1.350 . S
C447 H434 0.929 . S
C447 C439 1.433 1_655 S
C447 N449 1.384 . S
N448 C444 1.427 . S
N448 C445 1.384 . S
N449 C441 1.427 1_655 S
N449 C447 1.384 . S
C133 C8 2.022 . S
C137 C125 2.062 . S
C151 C26 1.392 . S
C155 C103 1.392 . S
C169 C48 1.551 . S
C173 C114 1.580 . S
C187 C19 1.720 . S
C191 C119 1.748 . S
C209 C97 1.361 . S
C205 C36 1.350 . S
C227 C108 1.560 . S
C223 C59 1.504 . S
C241 C28 1.568 . S
C245 C81 1.610 . S
C259 C46 1.095 . S
C263 C86 1.110 1_655 S
C277 C16 1.359 . S
C281 C64 1.356 1_565 S
C299 C75 1.544 . S
C295 C39 1.498 . S
C317 C92 1.065 . S
C313 C56 1.065 . S
C331 C6 1.409 . S
C335 C70 1.401 . S
C353 C87 1.453 . S
C349 C9 1.439 . S
C367 C21 1.525 . S
C371 C65 1.532 . S
C385 C49 1.512 . S
C389 C76 1.501 . S
C407 C109 1.494 . S
C403 C29 1.504 . S
C425 C120 1.607 . S
C421 C41 1.579 . S
C439 C1 1.495 . S
C443 C98 1.509 . S
