# Generated by pormake.
# Topology ptr, (4,4)-cn, num edge types: 1
# Building blocks:
#     Node 0, Type 0, BuildingBlock: QUQFOY_clean_sbu_3, # of connection points: 4
#     Node 1, Type 0, BuildingBlock: QUQFOY_clean_sbu_3, # of connection points: 4
#     Node 2, Type 0, BuildingBlock: QUQFOY_clean_sbu_3, # of connection points: 4
#     Node 3, Type 0, BuildingBlock: QUQFOY_clean_sbu_3, # of connection points: 4
#     Node 4, Type 0, BuildingBlock: QUQFOY_clean_sbu_3, # of connection points: 4
#     Node 5, Type 0, BuildingBlock: QUQFOY_clean_sbu_3, # of connection points: 4
#     Node 6, Type 0, BuildingBlock: QUQFOY_clean_sbu_3, # of connection points: 4
#     Node 7, Type 0, BuildingBlock: QUQFOY_clean_sbu_3, # of connection points: 4
#     Node 8, Type 0, BuildingBlock: QUQFOY_clean_sbu_3, # of connection points: 4
#     Node 9, Type 0, BuildingBlock: QUQFOY_clean_sbu_3, # of connection points: 4
#     Node 10, Type 0, BuildingBlock: QUQFOY_clean_sbu_3, # of connection points: 4
#     Node 11, Type 0, BuildingBlock: QUQFOY_clean_sbu_3, # of connection points: 4
#     Node 12, Type 0, BuildingBlock: QUQFOY_clean_sbu_3, # of connection points: 4
#     Node 13, Type 0, BuildingBlock: QUQFOY_clean_sbu_3, # of connection points: 4
#     Node 14, Type 0, BuildingBlock: QUQFOY_clean_sbu_3, # of connection points: 4
#     Node 15, Type 0, BuildingBlock: QUQFOY_clean_sbu_3, # of connection points: 4
#     Node 16, Type 0, BuildingBlock: QUQFOY_clean_sbu_3, # of connection points: 4
#     Node 17, Type 0, BuildingBlock: QUQFOY_clean_sbu_3, # of connection points: 4
#     Node 18, Type 1, BuildingBlock: KUFVIS_clean_linker_0, # of connection points: 4
#     Node 19, Type 1, BuildingBlock: KUFVIS_clean_linker_0, # of connection points: 4
#     Node 20, Type 1, BuildingBlock: KUFVIS_clean_linker_0, # of connection points: 4
#     Node 21, Type 1, BuildingBlock: KUFVIS_clean_linker_0, # of connection points: 4
#     Node 22, Type 1, BuildingBlock: KUFVIS_clean_linker_0, # of connection points: 4
#     Node 23, Type 1, BuildingBlock: KUFVIS_clean_linker_0, # of connection points: 4
#     Node 24, Type 1, BuildingBlock: KUFVIS_clean_linker_0, # of connection points: 4
#     Node 25, Type 1, BuildingBlock: KUFVIS_clean_linker_0, # of connection points: 4
#     Node 26, Type 1, BuildingBlock: KUFVIS_clean_linker_0, # of connection points: 4
#     Node 27, Type 1, BuildingBlock: KUFVIS_clean_linker_0, # of connection points: 4
#     Node 28, Type 1, BuildingBlock: KUFVIS_clean_linker_0, # of connection points: 4
#     Node 29, Type 1, BuildingBlock: KUFVIS_clean_linker_0, # of connection points: 4
#     Node 30, Type 1, BuildingBlock: KUFVIS_clean_linker_0, # of connection points: 4
#     Node 31, Type 1, BuildingBlock: KUFVIS_clean_linker_0, # of connection points: 4
#     Node 32, Type 1, BuildingBlock: KUFVIS_clean_linker_0, # of connection points: 4
#     Node 33, Type 1, BuildingBlock: KUFVIS_clean_linker_0, # of connection points: 4
#     Node 34, Type 1, BuildingBlock: KUFVIS_clean_linker_0, # of connection points: 4
#     Node 35, Type 1, BuildingBlock: KUFVIS_clean_linker_0, # of connection points: 4
#     Edge 36, Type (0, 1), BuildingBlock: UVAHIK_clean_linker_0, # of connection points: 2
#     Edge 37, Type (0, 1), BuildingBlock: UVAHIK_clean_linker_0, # of connection points: 2
#     Edge 38, Type (0, 1), BuildingBlock: UVAHIK_clean_linker_0, # of connection points: 2
#     Edge 39, Type (0, 1), BuildingBlock: UVAHIK_clean_linker_0, # of connection points: 2
#     Edge 40, Type (0, 1), BuildingBlock: UVAHIK_clean_linker_0, # of connection points: 2
#     Edge 41, Type (0, 1), BuildingBlock: UVAHIK_clean_linker_0, # of connection points: 2
#     Edge 42, Type (0, 1), BuildingBlock: UVAHIK_clean_linker_0, # of connection points: 2
#     Edge 43, Type (0, 1), BuildingBlock: UVAHIK_clean_linker_0, # of connection points: 2
#     Edge 44, Type (0, 1), BuildingBlock: UVAHIK_clean_linker_0, # of connection points: 2
#     Edge 45, Type (0, 1), BuildingBlock: UVAHIK_clean_linker_0, # of connection points: 2
#     Edge 46, Type (0, 1), BuildingBlock: UVAHIK_clean_linker_0, # of connection points: 2
#     Edge 47, Type (0, 1), BuildingBlock: UVAHIK_clean_linker_0, # of connection points: 2
#     Edge 48, Type (0, 1), BuildingBlock: UVAHIK_clean_linker_0, # of connection points: 2
#     Edge 49, Type (0, 1), BuildingBlock: UVAHIK_clean_linker_0, # of connection points: 2
#     Edge 50, Type (0, 1), BuildingBlock: UVAHIK_clean_linker_0, # of connection points: 2
#     Edge 51, Type (0, 1), BuildingBlock: UVAHIK_clean_linker_0, # of connection points: 2
#     Edge 52, Type (0, 1), BuildingBlock: UVAHIK_clean_linker_0, # of connection points: 2
#     Edge 53, Type (0, 1), BuildingBlock: UVAHIK_clean_linker_0, # of connection points: 2
#     Edge 54, Type (0, 1), BuildingBlock: UVAHIK_clean_linker_0, # of connection points: 2
#     Edge 55, Type (0, 1), BuildingBlock: UVAHIK_clean_linker_0, # of connection points: 2
#     Edge 56, Type (0, 1), BuildingBlock: UVAHIK_clean_linker_0, # of connection points: 2
#     Edge 57, Type (0, 1), BuildingBlock: UVAHIK_clean_linker_0, # of connection points: 2
#     Edge 58, Type (0, 1), BuildingBlock: UVAHIK_clean_linker_0, # of connection points: 2
#     Edge 59, Type (0, 1), BuildingBlock: UVAHIK_clean_linker_0, # of connection points: 2
#     Edge 60, Type (0, 1), BuildingBlock: UVAHIK_clean_linker_0, # of connection points: 2
#     Edge 61, Type (0, 1), BuildingBlock: UVAHIK_clean_linker_0, # of connection points: 2
#     Edge 62, Type (0, 1), BuildingBlock: UVAHIK_clean_linker_0, # of connection points: 2
#     Edge 63, Type (0, 1), BuildingBlock: UVAHIK_clean_linker_0, # of connection points: 2
#     Edge 64, Type (0, 1), BuildingBlock: UVAHIK_clean_linker_0, # of connection points: 2
#     Edge 65, Type (0, 1), BuildingBlock: UVAHIK_clean_linker_0, # of connection points: 2
#     Edge 66, Type (0, 1), BuildingBlock: UVAHIK_clean_linker_0, # of connection points: 2
#     Edge 67, Type (0, 1), BuildingBlock: UVAHIK_clean_linker_0, # of connection points: 2
#     Edge 68, Type (0, 1), BuildingBlock: UVAHIK_clean_linker_0, # of connection points: 2
#     Edge 69, Type (0, 1), BuildingBlock: UVAHIK_clean_linker_0, # of connection points: 2
#     Edge 70, Type (0, 1), BuildingBlock: UVAHIK_clean_linker_0, # of connection points: 2
#     Edge 71, Type (0, 1), BuildingBlock: UVAHIK_clean_linker_0, # of connection points: 2
#     Edge 72, Type (0, 1), BuildingBlock: UVAHIK_clean_linker_0, # of connection points: 2
#     Edge 73, Type (0, 1), BuildingBlock: UVAHIK_clean_linker_0, # of connection points: 2
#     Edge 74, Type (0, 1), BuildingBlock: UVAHIK_clean_linker_0, # of connection points: 2
#     Edge 75, Type (0, 1), BuildingBlock: UVAHIK_clean_linker_0, # of connection points: 2
#     Edge 76, Type (0, 1), BuildingBlock: UVAHIK_clean_linker_0, # of connection points: 2
#     Edge 77, Type (0, 1), BuildingBlock: UVAHIK_clean_linker_0, # of connection points: 2
#     Edge 78, Type (0, 1), BuildingBlock: UVAHIK_clean_linker_0, # of connection points: 2
#     Edge 79, Type (0, 1), BuildingBlock: UVAHIK_clean_linker_0, # of connection points: 2
#     Edge 80, Type (0, 1), BuildingBlock: UVAHIK_clean_linker_0, # of connection points: 2
#     Edge 81, Type (0, 1), BuildingBlock: UVAHIK_clean_linker_0, # of connection points: 2
#     Edge 82, Type (0, 1), BuildingBlock: UVAHIK_clean_linker_0, # of connection points: 2
#     Edge 83, Type (0, 1), BuildingBlock: UVAHIK_clean_linker_0, # of connection points: 2
#     Edge 84, Type (0, 1), BuildingBlock: UVAHIK_clean_linker_0, # of connection points: 2
#     Edge 85, Type (0, 1), BuildingBlock: UVAHIK_clean_linker_0, # of connection points: 2
#     Edge 86, Type (0, 1), BuildingBlock: UVAHIK_clean_linker_0, # of connection points: 2
#     Edge 87, Type (0, 1), BuildingBlock: UVAHIK_clean_linker_0, # of connection points: 2
#     Edge 88, Type (0, 1), BuildingBlock: UVAHIK_clean_linker_0, # of connection points: 2
#     Edge 89, Type (0, 1), BuildingBlock: UVAHIK_clean_linker_0, # of connection points: 2
#     Edge 90, Type (0, 1), BuildingBlock: UVAHIK_clean_linker_0, # of connection points: 2
#     Edge 91, Type (0, 1), BuildingBlock: UVAHIK_clean_linker_0, # of connection points: 2
#     Edge 92, Type (0, 1), BuildingBlock: UVAHIK_clean_linker_0, # of connection points: 2
#     Edge 93, Type (0, 1), BuildingBlock: UVAHIK_clean_linker_0, # of connection points: 2
#     Edge 94, Type (0, 1), BuildingBlock: UVAHIK_clean_linker_0, # of connection points: 2
#     Edge 95, Type (0, 1), BuildingBlock: UVAHIK_clean_linker_0, # of connection points: 2
#     Edge 96, Type (0, 1), BuildingBlock: UVAHIK_clean_linker_0, # of connection points: 2
#     Edge 97, Type (0, 1), BuildingBlock: UVAHIK_clean_linker_0, # of connection points: 2
#     Edge 98, Type (0, 1), BuildingBlock: UVAHIK_clean_linker_0, # of connection points: 2
#     Edge 99, Type (0, 1), BuildingBlock: UVAHIK_clean_linker_0, # of connection points: 2
#     Edge 100, Type (0, 1), BuildingBlock: UVAHIK_clean_linker_0, # of connection points: 2
#     Edge 101, Type (0, 1), BuildingBlock: UVAHIK_clean_linker_0, # of connection points: 2
#     Edge 102, Type (0, 1), BuildingBlock: UVAHIK_clean_linker_0, # of connection points: 2
#     Edge 103, Type (0, 1), BuildingBlock: UVAHIK_clean_linker_0, # of connection points: 2
#     Edge 104, Type (0, 1), BuildingBlock: UVAHIK_clean_linker_0, # of connection points: 2
#     Edge 105, Type (0, 1), BuildingBlock: UVAHIK_clean_linker_0, # of connection points: 2
#     Edge 106, Type (0, 1), BuildingBlock: UVAHIK_clean_linker_0, # of connection points: 2
#     Edge 107, Type (0, 1), BuildingBlock: UVAHIK_clean_linker_0, # of connection points: 2
# Relax obj value: 0.043
# Max RMSD: 0.105
# Mean RMSD: 0.078
data_MOF--net-ptr--node1-QUQFOY_clean_sbu_3--node2-KUFVIS_clean_linker_0--edge1-UVAHIK_clean_linker_0
_symmetry_space_group_name_H-M    P1
_symmetry_Int_Tables_number       1
_symmetry_cell_setting            triclinic
loop_
_symmetry_equiv_pos_as_xyz
'x, y, z'
_cell_length_a     102.41428
_cell_length_b     102.83093
_cell_length_c     63.871382
_cell_angle_alpha  90.227288
_cell_angle_beta   89.702133
_cell_angle_gamma 120.47486
loop_
_atom_site_label
_atom_site_type_symbol
_atom_site_fract_x
_atom_site_fract_y
_atom_site_fract_z
_atom_type_partial_charge
C0 C 0.96546 0.32662 0.00767 0.0
O1 O 0.95938 0.33382 0.01494 0.0
Cd2 Cd 0.97274 0.35926 0.02775 0.0
O3 O 0.97987 0.33282 0.00692 0.0
Cd4 Cd 0.00281 0.35756 0.01697 0.0
C5 C 0.99438 0.37844 0.98453 0.0
O6 O 0.99273 0.36198 0.04953 0.0
O7 O 0.01372 0.38057 0.03832 0.0
O8 O 0.01418 0.34303 0.02941 0.0
C9 C 0.00339 0.37546 0.05214 0.0
O10 O 0.9839 0.37575 -0.00234 0.0
C11 C 0.02682 0.35082 0.02014 0.0
O12 O 0.00246 0.37231 0.98652 0.0
O13 O 0.02829 0.36167 0.00891 0.0
C14 C 0.6427 0.67553 0.00794 0.0
O15 O 0.62976 0.66847 -0.00065 0.0
Cd16 Cd 0.617 0.64241 0.98925 0.0
O17 O 0.6504 0.66909 0.01091 0.0
Cd18 Cd 0.64824 0.64425 0.00212 0.0
C19 C 0.61814 0.62421 0.0341 0.0
O20 O 0.63457 0.6391 0.96897 0.0
O21 O 0.63584 0.62054 0.98201 0.0
O22 O 0.67434 0.65756 0.98941 0.0
C23 C 0.63134 0.6255 0.96728 0.0
O24 O 0.61054 0.62655 0.02043 0.0
C25 C 0.67891 0.65056 0.00073 0.0
O26 O 0.63249 0.63033 0.03239 0.0
O27 O 0.66927 0.64073 0.01318 0.0
C28 C 0.32412 0.96642 0.01272 0.0
O29 O 0.33122 0.96001 0.00628 0.0
Cd30 Cd 0.35691 0.97311 0.99396 0.0
O31 O 0.33059 0.98078 0.01306 0.0
Cd32 Cd 0.35518 0.00363 0.0034 0.0
C33 C 0.37632 0.99586 0.03634 0.0
O34 O 0.35851 0.9924 0.97187 0.0
O35 O 0.37736 0.01419 0.97965 0.0
O36 O 0.3388 0.01304 0.99232 0.0
C37 C 0.37174 0.00293 0.9674 0.0
O38 O 0.37354 0.98505 0.02387 0.0
C39 C 0.34646 0.02603 0.00049 0.0
O40 O 0.37018 0.00387 0.03369 0.0
O41 O 0.3584 0.0288 0.01022 0.0
C42 C 0.96407 0.64087 0.01231 0.0
O43 O 0.95859 0.62813 0.02123 0.0
Cd44 Cd 0.97283 0.61624 0.03028 0.0
O45 O 0.97821 0.64865 0.00822 0.0
Cd46 Cd 0.00166 0.64726 0.01366 0.0
C47 C 0.98897 0.61636 0.98251 0.0
O48 O 0.99535 0.63434 0.0477 0.0
O49 O 0.01483 0.63638 0.03153 0.0
O50 O 0.01379 0.67366 0.02418 0.0
C51 C 0.00631 0.63187 0.04752 0.0
O52 O 0.97996 0.60917 -0.00246 0.0
C53 C 0.0255 0.67827 0.01278 0.0
O54 O 0.99756 0.63068 0.98333 0.0
O55 O 0.02609 0.66848 0.00122 0.0
C56 C 0.32365 0.35931 0.00761 0.0
O57 O 0.33021 0.37235 -0.00063 0.0
Cd58 Cd 0.35626 0.38637 0.98927 0.0
O59 O 0.33069 0.35218 0.01041 0.0
Cd60 Cd 0.35611 0.35542 0.00178 0.0
C61 C 0.37473 0.38556 0.03424 0.0
O62 O 0.35938 0.36871 0.9692 0.0
O63 O 0.3791 0.36836 0.97949 0.0
O64 O 0.34229 0.32893 0.99131 0.0
C65 C 0.37304 0.37254 0.96587 0.0
O66 O 0.37188 0.39295 0.02087 0.0
C67 C 0.35073 0.32519 0.00086 0.0
O68 O 0.3695 0.37143 0.03194 0.0
O69 O 0.36169 0.3355 0.0112 0.0
C70 C 0.67952 0.03395 0.0053 0.0
O71 O 0.67217 0.04019 0.01135 0.0
Cd72 Cd 0.64616 0.02732 0.02221 0.0
O73 O 0.67311 0.0196 0.00411 0.0
Cd74 Cd 0.64726 0.99707 0.01049 0.0
C75 C 0.62872 0.00807 0.97696 0.0
O76 O 0.64139 0.00606 0.04271 0.0
O77 O 0.62313 0.98569 0.02947 0.0
O78 O 0.65979 0.98438 0.02517 0.0
C79 C 0.62768 0.9955 0.0439 0.0
O80 O 0.63125 0.01815 0.99057 0.0
C81 C 0.65306 0.97256 0.01398 0.0
O82 O 0.63409 -0.00068 0.9792 0.0
O83 O 0.64374 0.97216 0.00055 0.0
C84 C 0.63174 0.66059 0.34705 0.0
O85 O 0.62675 0.66833 0.35582 0.0
Cd86 Cd 0.64147 0.6942 0.36622 0.0
O87 O 0.64594 0.66628 0.34385 0.0
Cd88 Cd 0.67008 0.69069 0.35173 0.0
C89 C 0.66031 0.7109 0.31999 0.0
O90 O 0.66256 0.69679 0.38498 0.0
O91 O 0.68299 0.7147 0.37132 0.0
O92 O 0.68201 0.67693 0.36491 0.0
C93 C 0.67356 0.71022 0.38632 0.0
O94 O 0.65069 0.70898 0.33417 0.0
C95 C 0.69349 0.68304 0.35289 0.0
O96 O 0.6684 0.70474 0.32149 0.0
O97 O 0.69397 0.6925 0.3397 0.0
C98 C 0.30833 0.00868 0.34415 0.0
O99 O 0.29445 0.00108 0.33905 0.0
Cd100 Cd 0.28156 0.97565 0.32599 0.0
O101 O 0.31668 0.00278 0.34342 0.0
Cd102 Cd 0.31364 0.97762 0.33451 0.0
C103 C 0.28447 0.95666 0.36814 0.0
O104 O 0.29857 0.97327 0.3028 0.0
O105 O 0.30156 0.95494 0.31242 0.0
O106 O 0.33993 0.99155 0.32228 0.0
C107 C 0.29593 0.95999 0.29944 0.0
O108 O 0.27622 0.95893 0.35559 0.0
C109 C 0.34415 0.98354 0.33191 0.0
O110 O 0.29877 0.96316 0.36538 0.0
O111 O 0.33424 0.97286 0.34308 0.0
C112 C 0.99382 0.30238 0.34511 0.0
O113 O 0.00079 0.29622 0.33733 0.0
Cd114 Cd 0.02678 0.30895 0.32707 0.0
O115 O 0.00043 0.31667 0.34757 0.0
Cd116 Cd 0.0256 0.33948 0.33871 0.0
C117 C 0.04545 0.32996 0.37125 0.0
O118 O 0.02872 0.32891 0.30648 0.0
O119 O 0.04825 0.34976 0.31559 0.0
O120 O 0.01039 0.35057 0.3288 0.0
C121 C 0.0422 0.33904 0.3025 0.0
O122 O 0.04276 0.31952 0.35812 0.0
C123 C 0.01911 0.36349 0.33664 0.0
O124 O 0.03966 0.3383 0.36896 0.0
O125 O 0.03087 0.36531 0.34589 0.0
C126 C 0.62986 0.97056 0.34079 0.0
O127 O 0.62438 0.95752 0.34877 0.0
Cd128 Cd 0.63856 0.9461 0.35971 0.0
O129 O 0.64416 0.97909 0.33849 0.0
Cd130 Cd 0.66759 0.97823 0.34764 0.0
C131 C 0.65938 0.94874 0.31551 0.0
O132 O 0.65843 0.96453 0.38073 0.0
O133 O 0.67921 0.96689 0.36907 0.0
O134 O 0.67931 0.00468 0.35848 0.0
C135 C 0.66919 0.96202 0.38332 0.0
O136 O 0.64931 0.94061 0.32898 0.0
C137 C 0.69161 0.00919 0.34847 0.0
O138 O 0.66695 0.96306 0.31741 0.0
O139 O 0.69268 -0.00064 0.3377 0.0
C140 C 0.98953 0.69508 0.3428 0.0
O141 O 0.99682 0.70843 0.33565 0.0
Cd142 Cd 0.0228 0.72137 0.32493 0.0
O143 O 0.99592 0.68724 0.34462 0.0
Cd144 Cd 0.02101 0.68964 0.33654 0.0
C145 C 0.04082 0.71944 0.36946 0.0
O146 O 0.0254 0.70359 0.30417 0.0
O147 O 0.04431 0.70192 0.315 0.0
O148 O 0.00692 0.66366 0.32401 0.0
C149 C 0.03892 0.70673 0.30125 0.0
O150 O 0.03839 0.72723 0.35625 0.0
C151 C 0.01402 0.65886 0.3347 0.0
O152 O 0.03499 0.70523 0.36701 0.0
O153 O 0.02442 0.66838 0.3466 0.0
C154 C 0.34298 0.36423 0.34125 0.0
O155 O 0.33608 0.36998 0.35046 0.0
Cd156 Cd 0.30983 0.35674 0.36002 0.0
O157 O 0.33628 0.35009 0.33745 0.0
Cd158 Cd 0.31117 0.32678 0.34548 0.0
C159 C 0.29234 0.3382 0.31372 0.0
O160 O 0.30611 0.33526 0.37859 0.0
O161 O 0.28745 0.31493 0.36612 0.0
O162 O 0.32592 0.3155 0.35692 0.0
C163 C 0.29246 0.32476 0.38054 0.0
O164 O 0.295 0.34806 0.32781 0.0
C165 C 0.31832 0.30312 0.34713 0.0
O166 O 0.29765 0.32937 0.31524 0.0
O167 O 0.30744 0.30173 0.33596 0.0
C168 C 0.29825 0.99199 0.67907 0.0
O169 O 0.29271 0.99914 0.68813 0.0
Cd170 Cd 0.30652 0.02476 0.69998 0.0
O171 O 0.31253 0.99826 0.67609 0.0
Cd172 Cd 0.33616 0.0231 0.68407 0.0
C173 C 0.32457 0.04255 0.65377 0.0
O174 O 0.32818 0.02799 0.71785 0.0
O175 O 0.34844 0.0465 0.70481 0.0
O176 O 0.34791 0.0085 0.69437 0.0
C177 C 0.33889 0.04152 0.71965 0.0
O178 O 0.31506 0.04002 0.66839 0.0
C179 C 0.36022 0.01635 0.68437 0.0
O180 O 0.33321 0.03695 0.65441 0.0
O181 O 0.36126 0.02718 0.6735 0.0
C182 C 0.96933 0.338 0.67666 0.0
O183 O 0.95618 0.32969 0.66912 0.0
Cd184 Cd 0.94612 0.30471 0.65558 0.0
O185 O 0.97872 0.3333 0.67747 0.0
Cd186 Cd 0.97949 0.31004 0.66702 0.0
C187 C 0.9501 0.28675 0.69864 0.0
O188 O 0.96554 0.30541 0.63437 0.0
O189 O 0.96945 0.28771 0.64394 0.0
O190 O 0.00598 0.32695 0.65698 0.0
C191 C 0.96384 0.29255 0.6306 0.0
O192 O 0.94171 0.28829 0.68542 0.0
C193 C 0.01103 0.31919 0.66531 0.0
O194 O 0.96451 0.29428 0.69685 0.0
O195 O 0.0015 0.30733 0.67496 0.0
C196 C 0.6608 0.63476 0.67764 0.0
O197 O 0.66844 0.62964 0.66892 0.0
Cd198 Cd 0.69459 0.64461 0.65964 0.0
O199 O 0.6667 0.64885 0.68125 0.0
Cd200 Cd 0.69098 0.67283 0.67365 0.0
C201 C 0.71158 0.66407 0.70552 0.0
O202 O 0.69634 0.66501 0.64018 0.0
O203 O 0.71474 0.6853 0.65321 0.0
O204 O 0.6745 0.68222 0.66287 0.0
C205 C 0.70982 0.67585 0.63832 0.0
O206 O 0.70983 0.65452 0.69139 0.0
C207 C 0.68164 0.69484 0.67219 0.0
O208 O 0.70492 0.67168 0.70416 0.0
O209 O 0.69321 0.69733 0.68265 0.0
C210 C 0.29857 0.30661 0.6713 0.0
O211 O 0.29185 0.29309 0.67787 0.0
Cd212 Cd 0.3042 0.2799 0.68954 0.0
O213 O 0.31302 0.31434 0.67061 0.0
Cd214 Cd 0.33507 0.31131 0.67992 0.0
C215 C 0.32576 0.2822 0.64639 0.0
O216 O 0.32419 0.29674 0.71206 0.0
O217 O 0.345 0.29854 0.70146 0.0
O218 O 0.34738 0.33746 0.69209 0.0
C219 C 0.33446 0.29354 0.71499 0.0
O220 O 0.31503 0.2743 0.65916 0.0
C221 C 0.35991 0.34182 0.68277 0.0
O222 O 0.33419 0.29641 0.64905 0.0
O223 O 0.36093 0.33203 0.67183 0.0
C224 C 0.65695 0.02898 0.6745 0.0
O225 O 0.66408 0.04225 0.66702 0.0
Cd226 Cd 0.6898 0.05551 0.65548 0.0
O227 O 0.66348 0.02126 0.67644 0.0
Cd228 Cd 0.68888 0.02419 0.66811 0.0
C229 C 0.70846 0.05475 0.7 0.0
O230 O 0.69217 0.03738 0.63536 0.0
O231 O 0.71169 0.03657 0.64543 0.0
O232 O 0.67512 0.99758 0.65786 0.0
C233 C 0.70571 0.04083 0.63182 0.0
O234 O 0.70576 0.06218 0.68653 0.0
C235 C 0.68359 0.99395 0.66756 0.0
O236 O 0.70286 0.04054 0.698 0.0
O237 O 0.69443 0.00433 0.67797 0.0
C238 C 0.0121 0.70207 0.67398 0.0
O239 O 0.00475 0.70791 0.68153 0.0
Cd240 Cd 0.97855 0.69462 0.69132 0.0
O241 O 0.00569 0.6878 0.67143 0.0
Cd242 Cd 0.98037 0.66462 0.67857 0.0
C243 C 0.96126 0.67524 0.64566 0.0
O244 O 0.97466 0.6734 0.71085 0.0
O245 O 0.9563 0.65282 0.69833 0.0
O246 O 0.99334 0.65249 0.69355 0.0
C247 C 0.96103 0.6628 0.71256 0.0
O248 O 0.96386 0.68537 0.65925 0.0
C249 C 0.98748 0.64097 0.68173 0.0
O250 O 0.96664 0.6665 0.64785 0.0
O251 O 0.97835 0.64043 0.66784 0.0
H252 H 0.20554 0.31947 0.12941 0.0
H253 H 0.16897 0.3186 0.09657 0.0
H254 H 0.17156 0.32247 0.16444 0.0
H255 H 0.14783 0.31351 0.16414 0.0
H256 H 0.1133 0.3172 0.13266 0.0
H257 H 0.15283 0.326 0.09833 0.0
C258 C 0.1949 0.31939 0.12988 0.0
C259 C 0.18882 0.32022 0.1491 0.0
C260 C 0.18795 0.31929 0.11114 0.0
C261 C 0.17426 0.3193 0.11144 0.0
C262 C 0.16768 0.32012 0.13062 0.0
C263 C 0.17555 0.32109 0.1494 0.0
C264 C 0.15268 0.3197 0.13109 0.0
C265 C 0.14404 0.31607 0.14983 0.0
C266 C 0.13005 0.31541 0.15045 0.0
C267 C 0.12409 0.3176 0.13211 0.0
C268 C 0.13215 0.3211 0.11329 0.0
C269 C 0.1466 0.32262 0.1129 0.0
H270 H 0.67482 0.88196 0.13223 0.0
H271 H 0.66914 0.84317 0.09935 0.0
H272 H 0.68648 0.85246 0.16294 0.0
H273 H 0.67732 0.82854 0.16517 0.0
H274 H 0.68032 0.79412 0.13161 0.0
H275 H 0.67917 0.82902 0.09721 0.0
C276 C 0.67586 0.87197 0.13187 0.0
C277 C 0.68079 0.86791 0.14969 0.0
C278 C 0.67193 0.86321 0.1137 0.0
C279 C 0.67284 0.85002 0.11335 0.0
C280 C 0.67789 0.84558 0.13116 0.0
C281 C 0.68205 0.85494 0.14918 0.0
C282 C 0.67862 0.83125 0.1312 0.0
C283 C 0.67848 0.82417 0.15032 0.0
C284 C 0.67968 0.81114 0.15058 0.0
C285 C 0.6802 0.80461 0.13161 0.0
C286 C 0.67958 0.81085 0.11256 0.0
C287 C 0.67915 0.82427 0.11227 0.0
H288 H 0.20226 0.88802 0.12693 0.0
H289 H 0.16641 0.8526 0.09176 0.0
H290 H 0.17021 0.84785 0.15869 0.0
H291 H 0.14612 0.83348 0.15826 0.0
H292 H 0.11245 0.79513 0.12497 0.0
H293 H 0.15155 0.82829 0.09179 0.0
C294 C 0.19201 0.87702 0.12653 0.0
C295 C 0.1865 0.8688 0.14502 0.0
C296 C 0.18505 0.87096 0.10737 0.0
C297 C 0.17187 0.85668 0.10673 0.0
C298 C 0.16581 0.84809 0.12528 0.0
C299 C 0.17378 0.85421 0.14427 0.0
C300 C 0.15113 0.83314 0.12505 0.0
C301 C 0.14251 0.82734 0.14366 0.0
C302 C 0.12877 0.81357 0.14376 0.0
C303 C 0.12305 0.80583 0.12495 0.0
C304 C 0.13107 0.81131 0.1062 0.0
C305 C 0.1453 0.82466 0.10635 0.0
H306 H 0.32253 0.11714 0.89277 0.0
H307 H 0.32039 0.15215 0.92595 0.0
H308 H 0.32901 0.15572 0.8589 0.0
H309 H 0.31823 0.16906 0.85872 0.0
H310 H 0.32161 0.20721 0.89055 0.0
H311 H 0.32998 0.1765 0.92467 0.0
C312 C 0.32301 0.12793 0.89258 0.0
C313 C 0.32531 0.13555 0.87366 0.0
C314 C 0.32172 0.13416 0.91137 0.0
C315 C 0.32219 0.14803 0.91126 0.0
C316 C 0.32449 0.15608 0.8923 0.0
C317 C 0.3266 0.14981 0.87364 0.0
C318 C 0.32413 0.17057 0.89181 0.0
C319 C 0.32069 0.17551 0.87303 0.0
C320 C 0.32 0.18878 0.87246 0.0
C321 C 0.32203 0.19688 0.89094 0.0
C322 C 0.32529 0.19228 0.90978 0.0
C323 C 0.32682 0.17945 0.91008 0.0
H324 H 0.79713 0.11357 0.88447 0.0
H325 H 0.83597 0.14577 0.91927 0.0
H326 H 0.83156 0.15262 0.85327 0.0
H327 H 0.85615 0.16358 0.85346 0.0
H328 H 0.89084 0.20239 0.88505 0.0
H329 H 0.85113 0.17109 0.91913 0.0
C330 C 0.80808 0.12387 0.885 0.0
C331 C 0.81392 0.13221 0.86666 0.0
C332 C 0.8158 0.12877 0.90404 0.0
C333 C 0.82984 0.14237 0.90464 0.0
C334 C 0.83604 0.15115 0.88628 0.0
C335 C 0.82757 0.14604 0.86749 0.0
C336 C 0.85142 0.16529 0.88632 0.0
C337 C 0.86014 0.17017 0.86768 0.0
C338 C 0.87417 0.18364 0.86699 0.0
C339 C 0.88012 0.19183 0.88546 0.0
C340 C 0.87202 0.18717 0.9043 0.0
C341 C 0.85753 0.17414 0.90465 0.0
H342 H 0.79265 0.67335 0.88771 0.0
H343 H 0.8262 0.66763 0.91907 0.0
H344 H 0.83404 0.68535 0.85579 0.0
H345 H 0.84784 0.67467 0.8531 0.0
H346 H 0.88697 0.68042 0.88497 0.0
H347 H 0.85121 0.67995 0.92062 0.0
C348 C 0.80375 0.67441 0.88764 0.0
C349 C 0.81276 0.67958 0.86966 0.0
C350 C 0.80868 0.67033 0.90547 0.0
C351 C 0.82288 0.67136 0.90534 0.0
C352 C 0.83233 0.6766 0.88736 0.0
C353 C 0.82706 0.68084 0.86964 0.0
C354 C 0.84748 0.67752 0.88689 0.0
C355 C 0.85393 0.67663 0.86764 0.0
C356 C 0.86837 0.67826 0.86689 0.0
C357 C 0.87616 0.67997 0.88553 0.0
C358 C 0.86985 0.68018 0.90491 0.0
C359 C 0.85565 0.67921 0.90554 0.0
H360 H 0.86934 0.64923 0.46574 0.0
H361 H 0.83567 0.65253 0.43095 0.0
H362 H 0.84027 0.66094 0.49798 0.0
H363 H 0.81829 0.65802 0.49745 0.0
H364 H 0.79175 0.67165 0.46294 0.0
H365 H 0.82369 0.66429 0.42993 0.0
C366 C 0.85962 0.65077 0.46543 0.0
C367 C 0.85474 0.65407 0.48409 0.0
C368 C 0.85309 0.65074 0.44625 0.0
C369 C 0.84084 0.65328 0.44592 0.0
C370 C 0.83567 0.65693 0.46444 0.0
C371 C 0.84313 0.65756 0.48348 0.0
C372 C 0.82309 0.66062 0.46383 0.0
C373 C 0.81572 0.66104 0.48252 0.0
C374 C 0.80495 0.66564 0.48232 0.0
C375 C 0.8006 0.6688 0.46323 0.0
C376 C 0.80711 0.66798 0.44443 0.0
C377 C 0.81846 0.66412 0.44471 0.0
H378 H 0.35059 0.21868 0.46326 0.0
H379 H 0.34262 0.17886 0.43062 0.0
H380 H 0.3523 0.18382 0.49714 0.0
H381 H 0.33809 0.15925 0.49718 0.0
H382 H 0.34169 0.124 0.46742 0.0
H383 H 0.35241 0.16364 0.43224 0.0
C384 C 0.35015 0.20791 0.46338 0.0
C385 C 0.35147 0.20198 0.48237 0.0
C386 C 0.34729 0.19979 0.44468 0.0
C387 C 0.3455 0.18528 0.44503 0.0
C388 C 0.34731 0.17916 0.46393 0.0
C389 C 0.35051 0.18787 0.48245 0.0
C390 C 0.34561 0.16373 0.46461 0.0
C391 C 0.34105 0.15518 0.48337 0.0
C392 C 0.33982 0.14098 0.48443 0.0
C393 C 0.34283 0.13506 0.46659 0.0
C394 C 0.34724 0.14308 0.44773 0.0
C395 C 0.34863 0.15741 0.44676 0.0
H396 H 0.87255 0.21855 0.4574 0.0
H397 H 0.83557 0.18416 0.42263 0.0
H398 H 0.83757 0.18076 0.49025 0.0
H399 H 0.81346 0.16745 0.48925 0.0
H400 H 0.77861 0.12971 0.45642 0.0
H401 H 0.81914 0.16028 0.42351 0.0
C402 C 0.86174 0.20805 0.45722 0.0
C403 C 0.85533 0.20059 0.47598 0.0
C404 C 0.85485 0.20182 0.43812 0.0
C405 C 0.84086 0.18828 0.43768 0.0
C406 C 0.83396 0.18042 0.45648 0.0
C407 C 0.84181 0.18659 0.47555 0.0
C408 C 0.81865 0.16613 0.45634 0.0
C409 C 0.80969 0.16115 0.4748 0.0
C410 C 0.79544 0.14796 0.47492 0.0
C411 C 0.78959 0.14001 0.4563 0.0
C412 C 0.79797 0.14464 0.43772 0.0
C413 C 0.81265 0.15737 0.43787 0.0
H414 H 0.99366 0.45485 0.22399 0.0
H415 H 0.00433 0.49524 0.25712 0.0
H416 H 0.99451 0.49124 0.19059 0.0
H417 H 0.00856 0.51589 0.19127 0.0
H418 H 0.00452 0.55036 0.22312 0.0
H419 H 0.9949 0.51052 0.25658 0.0
C420 C 0.99504 0.46603 0.22393 0.0
C421 C 0.99406 0.47233 0.20509 0.0
C422 C -0.0015 0.47419 0.24262 0.0
C423 C 0.00111 0.48896 0.24258 0.0
C424 C -0.00044 0.49545 0.2239 0.0
C425 C 0.99602 0.48687 0.20518 0.0
C426 C 0.00145 0.51095 0.22391 0.0
C427 C 0.00577 0.51978 0.20542 0.0
C428 C 0.0068 0.53392 0.20504 0.0
C429 C 0.00385 0.53948 0.22334 0.0
C430 C -0.00017 0.5312 0.24191 0.0
C431 C -0.00143 0.51696 0.24221 0.0
H432 H 0.46171 0.44881 0.22054 0.0
H433 H 0.49802 0.48497 0.25421 0.0
H434 H 0.49605 0.48636 0.18641 0.0
H435 H 0.52041 0.50027 0.18794 0.0
H436 H 0.55094 0.54234 0.21715 0.0
H437 H 0.51231 0.50961 0.25155 0.0
C438 C 0.47237 0.45946 0.22035 0.0
C439 C 0.4786 0.46656 0.20129 0.0
C440 C 0.47913 0.4663 0.23929 0.0
C441 C 0.49282 0.48018 0.2393 0.0
C442 C 0.49953 0.48767 0.22021 0.0
C443 C 0.49189 0.48078 0.2013 0.0
C444 C 0.51418 0.50266 0.21984 0.0
C445 C 0.52331 0.5075 0.20152 0.0
C446 C 0.53642 0.52182 0.20039 0.0
C447 C 0.54092 0.53118 0.21798 0.0
C448 C 0.53241 0.52667 0.23645 0.0
C449 C 0.51903 0.51251 0.23739 0.0
H450 H 0.46219 0.01479 0.21752 0.0
H451 H 0.49105 0.00263 0.24903 0.0
H452 H 0.49902 0.01655 0.18377 0.0
H453 H 0.51258 0.00672 0.18154 0.0
H454 H 0.54643 0.00236 0.21375 0.0
H455 H 0.51345 0.00637 0.24972 0.0
C456 C 0.47217 0.01367 0.21728 0.0
C457 C 0.48002 0.01574 0.19853 0.0
C458 C 0.47641 0.00933 0.23553 0.0
C459 C 0.48859 0.00669 0.2349 0.0
C460 C 0.4973 0.00931 0.21636 0.0
C461 C 0.49278 0.01402 0.19828 0.0
C462 C 0.5109 0.00715 0.21575 0.0
C463 C 0.51739 0.0064 0.19637 0.0
C464 C 0.53051 0.00535 0.19573 0.0
C465 C 0.53661 0.00375 0.2143 0.0
C466 C 0.5301 0.00359 0.23357 0.0
C467 C 0.51767 0.00584 0.23442 0.0
H468 H 0.53776 0.98474 0.79794 0.0
H469 H 0.50187 0.98439 0.76366 0.0
H470 H 0.50539 0.99146 0.831 0.0
H471 H 0.48138 0.98227 0.83046 0.0
H472 H 0.44769 0.98654 0.79744 0.0
H473 H 0.48726 0.99392 0.76433 0.0
C474 C 0.52743 0.98523 0.79779 0.0
C475 C 0.52179 0.98735 0.81661 0.0
C476 C 0.52053 0.98463 0.77871 0.0
C477 C 0.50732 0.98557 0.77855 0.0
C478 C 0.50121 0.9877 0.79737 0.0
C479 C 0.50905 0.98911 0.81631 0.0
C480 C 0.48658 0.98799 0.79736 0.0
C481 C 0.47784 0.98485 0.81593 0.0
C482 C 0.464 0.98454 0.816 0.0
C483 C 0.4584 0.98675 0.79734 0.0
C484 C 0.46662 0.98985 0.7787 0.0
C485 C 0.48088 0.99093 0.7788 0.0
H486 H 0.00055 0.54523 0.7952 0.0
H487 H 0.00657 0.51208 0.76325 0.0
H488 H 0.00395 0.5123 0.83127 0.0
H489 H 0.01501 0.49962 0.8312 0.0
H490 H 0.01272 0.46127 0.80168 0.0
H491 H 0.00095 0.48893 0.76628 0.0
C492 C 0.002 0.53549 0.79584 0.0
C493 C 0.00296 0.52985 0.81523 0.0
C494 C 0.0028 0.52878 0.77723 0.0
C495 C 0.0052 0.51648 0.77795 0.0
C496 C 0.00567 0.51006 0.79742 0.0
C497 C 0.00413 0.51683 0.816 0.0
C498 C 0.00783 0.49654 0.79847 0.0
C499 C 0.01247 0.49277 0.8173 0.0
C500 C 0.014 0.47997 0.81862 0.0
C501 C 0.01184 0.47133 0.80067 0.0
C502 C 0.00751 0.47477 0.78175 0.0
C503 C 0.00507 0.48705 0.78082 0.0
H504 H 0.54157 0.54974 0.79346 0.0
H505 H 0.50405 0.51587 0.75897 0.0
H506 H 0.50492 0.5139 0.82694 0.0
H507 H 0.48092 0.50071 0.82546 0.0
H508 H 0.44596 0.46283 0.79301 0.0
H509 H 0.48699 0.49233 0.76038 0.0
C510 C 0.53047 0.53958 0.7934 0.0
C511 C 0.5235 0.53284 0.8123 0.0
C512 C 0.52364 0.53313 0.77435 0.0
C513 C 0.50924 0.52011 0.77404 0.0
C514 C 0.50188 0.51282 0.79296 0.0
C515 C 0.50957 0.51923 0.81206 0.0
C516 C 0.48634 0.49881 0.79285 0.0
C517 C 0.47719 0.49425 0.81114 0.0
C518 C 0.46282 0.48121 0.81131 0.0
C519 C 0.45701 0.47304 0.79283 0.0
C520 C 0.46558 0.47725 0.7744 0.0
C521 C 0.48037 0.4898 0.77457 0.0
H522 H 0.66093 0.78709 0.56118 0.0
H523 H 0.65837 0.82191 0.59424 0.0
H524 H 0.6675 0.82569 0.52731 0.0
H525 H 0.65672 0.83893 0.52681 0.0
H526 H 0.65891 0.87658 0.55846 0.0
H527 H 0.6674 0.84617 0.59312 0.0
C528 C 0.66142 0.79789 0.56098 0.0
C529 C 0.6638 0.80553 0.54207 0.0
C530 C 0.65995 0.80403 0.57973 0.0
C531 C 0.66035 0.81787 0.5796 0.0
C532 C 0.66275 0.82597 0.56066 0.0
C533 C 0.66504 0.81976 0.54204 0.0
C534 C 0.66217 0.84036 0.56007 0.0
C535 C 0.65889 0.84529 0.54115 0.0
C536 C 0.65794 0.85842 0.54047 0.0
C537 C 0.65955 0.86637 0.55894 0.0
C538 C 0.66263 0.86179 0.57793 0.0
C539 C 0.66441 0.84911 0.57839 0.0
H540 H 0.13148 0.7796 0.55306 0.0
H541 H 0.16914 0.81409 0.58699 0.0
H542 H 0.16527 0.81798 0.51991 0.0
H543 H 0.18958 0.831 0.52006 0.0
H544 H 0.22386 0.87019 0.55127 0.0
H545 H 0.18467 0.83856 0.58583 0.0
C546 C 0.14224 0.79013 0.55311 0.0
C547 C 0.14804 0.79784 0.53431 0.0
C548 C 0.14958 0.79616 0.57211 0.0
C549 C 0.16339 0.80997 0.5722 0.0
C550 C 0.1697 0.81805 0.55334 0.0
C551 C 0.16143 0.81195 0.53455 0.0
C552 C 0.18485 0.83256 0.55304 0.0
C553 C 0.19345 0.83758 0.53428 0.0
C554 C 0.20734 0.85121 0.53349 0.0
C555 C 0.21326 0.8595 0.55187 0.0
C556 C 0.20531 0.85479 0.57081 0.0
C557 C 0.19094 0.84159 0.57126 0.0
H558 H 0.13127 0.35016 0.55421 0.0
H559 H 0.1625 0.34168 0.58688 0.0
H560 H 0.16855 0.35257 0.52056 0.0
H561 H 0.18144 0.34138 0.51994 0.0
H562 H 0.22072 0.34726 0.55144 0.0
H563 H 0.18682 0.35024 0.58687 0.0
C564 C 0.14153 0.34952 0.55404 0.0
C565 C 0.14919 0.35124 0.53519 0.0
C566 C 0.14651 0.3464 0.57263 0.0
C567 C 0.15929 0.3447 0.57241 0.0
C568 C 0.16771 0.34698 0.55368 0.0
C569 C 0.16241 0.35033 0.53516 0.0
C570 C 0.18208 0.34624 0.55338 0.0
C571 C 0.18777 0.34384 0.53433 0.0
C572 C 0.20192 0.3448 0.5335 0.0
C573 C 0.21006 0.34713 0.55194 0.0
C574 C 0.20439 0.34861 0.57115 0.0
C575 C 0.19057 0.3484 0.57189 0.0
C576 C 0.01307 0.40114 0.06756 0.0
C577 C 0.00232 0.38562 0.06764 0.0
C578 C 0.0115 0.41102 0.081 0.0
C579 C 0.98303 0.41428 0.11325 0.0
H580 H 0.01859 0.44742 0.1391 0.0
C581 C 0.98119 0.44841 0.18421 0.0
C582 C 0.99207 0.46386 0.18536 0.0
C583 C 0.98135 0.43961 0.1676 0.0
C584 C 0.00857 0.43838 0.13173 0.0
H585 H 0.98164 0.36827 0.08225 0.0
H586 H 0.97911 0.38546 0.10614 0.0
H587 H 0.02142 0.43025 0.11576 0.0
H588 H 0.01107 0.48241 0.16944 0.0
H589 H 0.0113 0.46703 0.14024 0.0
H590 H 0.97017 0.42226 0.12976 0.0
C591 C 0.98858 0.39005 0.09534 0.0
C592 C 0.01018 0.42849 0.11836 0.0
C593 C 0.99011 0.38016 0.08179 0.0
C594 C 0.0025 0.47054 0.16887 0.0
C595 C 0.00274 0.46171 0.15231 0.0
C596 C 0.98141 0.42413 0.12674 0.0
C597 C -0.00081 0.40563 0.09497 0.0
C598 C 0.99743 0.41626 0.10903 0.0
C599 C 0.99247 0.44606 0.15186 0.0
C600 C 0.99416 0.43625 0.13621 0.0
H601 H 0.02256 0.40574 0.05678 0.0
H602 H 0.01979 0.42294 0.08007 0.0
H603 H 0.97299 0.40515 0.10605 0.0
H604 H 0.97299 0.44299 0.19669 0.0
H605 H 0.97332 0.42759 0.16777 0.0
C606 C 0.59402 0.60492 0.0513 0.0
C607 C 0.60994 0.61335 0.05126 0.0
C608 C 0.58615 0.59388 0.06645 0.0
C609 C 0.59087 0.56981 0.10526 0.0
H610 H 0.55315 0.56454 0.12736 0.0
C611 C 0.56069 0.53596 0.18013 0.0
C612 C 0.54477 0.5279 0.18042 0.0
C613 C 0.56861 0.54455 0.16267 0.0
C614 C 0.56353 0.5657 0.1211 0.0
H615 H 0.63007 0.61693 0.06746 0.0
H616 H 0.61628 0.5979 0.09433 0.0
H617 H 0.56726 0.58404 0.10146 0.0
H618 H 0.52466 0.5217 0.16218 0.0
H619 H 0.5385 0.53662 0.13155 0.0
H620 H 0.58723 0.55166 0.12551 0.0
C621 C 0.6099 0.59962 0.08231 0.0
C622 C 0.57166 0.57691 0.10625 0.0
C623 C 0.6178 0.61064 0.06701 0.0
C624 C 0.53693 0.52773 0.16235 0.0
C625 C 0.54485 0.53641 0.14493 0.0
C626 C 0.58277 0.55865 0.12028 0.0
C627 C 0.59396 0.59104 0.08212 0.0
C628 C 0.58544 0.57913 0.09812 0.0
C629 C 0.56075 0.54532 0.14521 0.0
C630 C 0.569 0.55647 0.12834 0.0
H631 H 0.58756 0.60659 0.03933 0.0
H632 H 0.5739 0.58735 0.06557 0.0
H633 H 0.6013 0.57103 0.09911 0.0
H634 H 0.56701 0.53622 0.19384 0.0
H635 H 0.58085 0.5513 0.16339 0.0
C636 C 0.39159 0.01175 0.06699 0.0
C637 C 0.38762 -0.00039 0.05319 0.0
C638 C 0.40303 0.01573 0.08188 0.0
C639 C 0.43642 0.01202 0.09286 0.0
H640 H 0.43042 0.01978 0.15048 0.0
C641 C 0.47131 0.00916 0.16142 0.0
C642 C 0.47387 0.01837 0.17902 0.0
C643 C 0.46269 0.00939 0.14466 0.0
C644 C 0.43245 0.01795 0.13437 0.0
H645 H 0.39244 0.982 0.04458 0.0
H646 H 0.41217 0.98888 0.07047 0.0
H647 H 0.4112 0.01513 0.12445 0.0
H648 H 0.4705 0.03592 0.19214 0.0
H649 H 0.45572 0.03656 0.16271 0.0
H650 H 0.45756 0.01464 0.10277 0.0
C651 C 0.40662 0.99546 0.06961 0.0
C652 C 0.42138 0.01524 0.11947 0.0
C653 C 0.39519 0.99144 0.05487 0.0
C654 C 0.46854 0.02856 0.17887 0.0
C655 C 0.45999 0.02885 0.16208 0.0
C656 C 0.44751 0.0148 0.10773 0.0
C657 C 0.41079 0.00773 0.08316 0.0
C658 C 0.42311 0.01194 0.09863 0.0
C659 C 0.45652 0.0189 0.14508 0.0
C660 C 0.44555 0.01753 0.12876 0.0
H661 H 0.38603 0.01831 0.06611 0.0
H662 H 0.40601 0.02526 0.0921 0.0
H663 H 0.43821 0.00979 0.07682 0.0
H664 H 0.47513 0.00108 0.1612 0.0
H665 H 0.46016 0.00148 0.13194 0.0
C666 C 0.39682 0.01099 0.95043 0.0
C667 C 0.38115 0.00075 0.95175 0.0
C668 C 0.40591 0.00819 0.93692 0.0
C669 C 0.40446 0.98707 0.88962 0.0
H670 H 0.44272 0.99268 0.90949 0.0
C671 C 0.44 0.97204 0.8367 0.0
C672 C 0.4555 0.98281 0.83557 0.0
C673 C 0.43108 0.97259 0.85288 0.0
C674 C 0.43212 0.99116 0.90366 0.0
H675 H 0.36268 0.97973 0.93963 0.0
H676 H 0.37852 0.97495 0.9159 0.0
H677 H 0.42684 0.99768 0.93297 0.0
H678 H 0.47408 0.00202 0.85094 0.0
H679 H 0.45848 0.00322 0.87911 0.0
H680 H 0.40978 0.98094 0.86021 0.0
C681 C 0.38377 0.98512 0.92531 0.0
C682 C 0.42304 0.99404 0.9171 0.0
C683 C 0.37471 0.98786 0.93892 0.0
C684 C 0.46216 0.99351 0.85164 0.0
C685 C 0.4532 0.99418 0.86774 0.0
C686 C 0.41355 0.98429 0.87616 0.0
C687 C 0.39949 0.99517 0.92432 0.0
C688 C 0.40913 0.99206 0.91018 0.0
C689 C 0.43744 0.98407 0.86809 0.0
C690 C 0.42751 0.9863 0.88298 0.0
H691 H 0.40213 0.02101 0.96014 0.0
H692 H 0.41796 0.01624 0.93627 0.0
H693 H 0.39391 0.98565 0.88375 0.0
H694 H 0.43465 0.96364 0.82449 0.0
H695 H 0.41907 0.96437 0.85298 0.0
C696 C 0.98889 0.39665 0.9664 0.0
C697 C 0.99745 0.38946 0.96751 0.0
C698 C 0.99199 0.40757 0.95123 0.0
C699 C 0.02169 0.43406 0.91461 0.0
H700 H 0.98781 0.4348 0.88905 0.0
C701 C 0.02595 0.46853 0.84041 0.0
C702 C 0.01619 0.47438 0.83898 0.0
C703 C 0.02534 0.45998 0.85776 0.0
C704 C 0.99742 0.43493 0.89627 0.0
H705 H 0.01601 0.38813 0.95326 0.0
H706 H 0.02126 0.40709 0.92634 0.0
H707 H 0.98306 0.41548 0.91466 0.0
H708 H -0.00103 0.47681 0.85535 0.0
H709 H 0.99808 0.46211 0.88583 0.0
H710 H 0.03601 0.45342 0.89572 0.0
C711 C 0.01226 0.40437 0.93753 0.0
C712 C 0.9947 0.4238 0.91095 0.0
C713 C 0.00917 0.39342 0.95285 0.0
C714 C 0.00667 0.47251 0.85602 0.0
C715 C 0.00602 0.46392 0.87335 0.0
C716 C 0.02442 0.44519 0.89979 0.0
C717 C 0.00369 0.41159 0.93656 0.0
C718 C 0.00678 0.42324 0.92041 0.0
C719 C 0.01493 0.45707 0.87403 0.0
C720 C 0.0123 0.44579 0.89052 0.0
H721 H 0.97984 0.39402 0.97748 0.0
H722 H 0.98533 0.41305 0.95125 0.0
H723 H 0.03127 0.43409 0.92176 0.0
H724 H 0.03349 0.46988 0.82756 0.0
H725 H 0.03236 0.45488 0.85777 0.0
C726 C 0.61367 0.62051 0.93738 0.0
C727 C 0.62023 0.61517 0.9517 0.0
C728 C 0.60219 0.61053 0.92394 0.0
C729 C 0.58489 0.57244 0.90051 0.0
H730 H 0.55094 0.57847 0.89115 0.0
C731 C 0.53484 0.53269 0.84703 0.0
C732 C 0.53118 0.54029 0.83208 0.0
C733 C 0.54418 0.54059 0.864 0.0
C734 C 0.56035 0.57665 0.89358 0.0
H735 H 0.62013 0.59521 0.96279 0.0
H736 H 0.60005 0.57778 0.93937 0.0
H737 H 0.57095 0.59498 0.9153 0.0
H738 H 0.53359 0.56178 0.82366 0.0
H739 H 0.54976 0.57553 0.85314 0.0
H740 H 0.57438 0.55424 0.8785 0.0
C741 C 0.60384 0.5897 0.93845 0.0
C742 C 0.57185 0.58615 0.90734 0.0
C743 C 0.61533 0.59969 0.9519 0.0
C744 C 0.53631 0.55569 0.83496 0.0
C745 C 0.54549 0.56353 0.85192 0.0
C746 C 0.57336 0.56291 0.88674 0.0
C747 C 0.59699 0.59497 0.9245 0.0
C748 C 0.58439 0.58433 0.9107 0.0
C749 C 0.54984 0.55617 0.86637 0.0
C750 C 0.5611 0.56508 0.88285 0.0
H751 H 0.61722 0.63238 0.93679 0.0
H752 H 0.59736 0.615 0.9131 0.0
H753 H 0.59443 0.57079 0.90262 0.0
H754 H 0.53108 0.52083 0.84506 0.0
H755 H 0.54722 0.53459 0.875 0.0
C756 C 0.00091 0.6148 0.94874 0.0
C757 C 0.98998 0.60767 0.96458 0.0
C758 C 0.00249 0.60628 0.93282 0.0
C759 C 0.99432 0.5676 0.92106 0.0
H760 H 0.0013 0.58145 0.86355 0.0
C761 C 0.99262 0.5306 0.85079 0.0
C762 C 0.00295 0.53802 0.83442 0.0
C763 C 0.9915 0.53889 0.86746 0.0
C764 C -0.00044 0.5775 0.87959 0.0
H765 H 0.97184 0.586 0.97569 0.0
H766 H 0.9745 0.57129 0.9479 0.0
H767 H 0.99825 0.59651 0.89052 0.0
H768 H 0.02088 0.55969 0.82328 0.0
H769 H 0.01915 0.57408 0.85242 0.0
H770 H 0.99563 0.54857 0.91008 0.0
C771 C 0.98204 0.58341 0.94797 0.0
C772 C 0.99779 0.58614 0.89504 0.0
C773 C 0.98045 0.59189 0.96383 0.0
C774 C 0.01265 0.55373 0.83555 0.0
C775 C 0.01158 0.56197 0.85218 0.0
C776 C 0.99611 0.55895 0.90559 0.0
C777 C 0.99318 0.59047 0.93241 0.0
C778 C 0.99515 0.58131 0.91596 0.0
C779 C 0.00074 0.55473 0.86807 0.0
C780 C -0.00121 0.56382 0.88467 0.0
H781 H 0.00847 0.62691 0.94887 0.0
H782 H 0.01126 0.61206 0.92113 0.0
H783 H 0.9925 0.56365 0.9371 0.0
H784 H 0.98497 0.5185 0.85021 0.0
H785 H 0.98298 0.53297 0.87942 0.0
C786 C 0.37523 0.3892 0.93606 0.0
C787 C 0.3822 0.38405 0.94997 0.0
C788 C 0.38392 0.40097 0.92219 0.0
C789 C 0.4224 0.43338 0.91434 0.0
H790 H 0.40954 0.43062 0.85672 0.0
C791 C 0.46105 0.47196 0.84787 0.0
C792 C 0.45424 0.47499 0.83103 0.0
C793 C 0.45219 0.46275 0.86435 0.0
C794 C 0.41316 0.43175 0.87286 0.0
H795 H 0.40375 0.38701 0.95999 0.0
H796 H 0.41895 0.40751 0.93559 0.0
H797 H 0.39428 0.41015 0.88081 0.0
H798 H 0.43316 0.47203 0.81908 0.0
H799 H 0.41772 0.45632 0.84814 0.0
H800 H 0.44137 0.45497 0.90629 0.0
C801 C 0.40676 0.40256 0.93563 0.0
C802 C 0.40444 0.41995 0.88664 0.0
C803 C 0.39804 0.39072 0.94945 0.0
C804 C 0.43864 0.46973 0.83181 0.0
C805 C 0.42981 0.46063 0.84835 0.0
C806 C 0.43113 0.44525 0.90054 0.0
C807 C 0.39979 0.40788 0.92197 0.0
C808 C 0.409 0.42058 0.90749 0.0
C809 C 0.43638 0.45648 0.86433 0.0
C810 C 0.42665 0.44452 0.87959 0.0
H811 H 0.36304 0.38432 0.93613 0.0
H812 H 0.37823 0.40489 0.91197 0.0
H813 H 0.42609 0.43428 0.93041 0.0
H814 H 0.47304 0.47577 0.84754 0.0
H815 H 0.45763 0.45974 0.87634 0.0
C816 C 0.61219 0.99314 0.94654 0.0
C817 C 0.61857 0.00612 0.95921 0.0
C818 C 0.60136 0.99083 0.93136 0.0
C819 C 0.58593 0.0108 0.901 0.0
H820 H 0.55021 0.97104 0.89613 0.0
C821 C 0.53534 0.00057 0.84968 0.0
C822 C 0.5298 0.98805 0.83627 0.0
C823 C 0.54519 0.00234 0.86604 0.0
C824 C 0.56015 0.9822 0.89722 0.0
H825 H 0.6189 0.0271 0.96528 0.0
H826 H 0.60016 0.02304 0.93911 0.0
H827 H 0.57025 0.97513 0.92047 0.0
H828 H 0.52941 0.96711 0.83018 0.0
H829 H 0.5465 0.97015 0.85858 0.0
H830 H 0.57589 0.01787 0.87772 0.0
C831 C 0.60351 0.01466 0.94072 0.0
C832 C 0.57168 0.98452 0.91109 0.0
C833 C 0.61424 0.01694 0.95586 0.0
C834 C 0.53357 0.97691 0.84026 0.0
C835 C 0.54331 0.97863 0.85661 0.0
C836 C 0.57441 0.00849 0.88716 0.0
C837 C 0.59677 0.0015 0.92845 0.0
C838 C 0.58472 0.99886 0.91315 0.0
C839 C 0.54958 0.99155 0.86936 0.0
C840 C 0.56138 0.99415 0.88506 0.0
H841 H 0.61524 0.98457 0.94873 0.0
H842 H 0.59653 0.98065 0.92197 0.0
H843 H 0.5959 0.02195 0.90197 0.0
H844 H 0.53267 0.00935 0.84687 0.0
H845 H 0.54965 0.01233 0.87579 0.0
C846 C 0.60141 0.98503 0.05806 0.0
C847 C 0.61687 0.99608 0.05877 0.0
C848 C 0.59095 0.98615 0.07095 0.0
C849 C 0.58597 0.01391 0.10166 0.0
H850 H 0.55386 0.97849 0.12931 0.0
C851 C 0.55366 0.01675 0.17351 0.0
C852 C 0.53824 0.00597 0.17585 0.0
C853 C 0.5619 0.01607 0.15654 0.0
C854 C 0.56257 0.98844 0.12138 0.0
H855 H 0.63355 0.01679 0.07393 0.0
H856 H 0.61534 0.01861 0.09671 0.0
H857 H 0.57128 0.97593 0.10586 0.0
H858 H 0.51911 0.98638 0.162 0.0
H859 H 0.53359 0.9851 0.13205 0.0
H860 H 0.57747 0.02647 0.11761 0.0
C861 C 0.61125 0.00922 0.08588 0.0
C862 C 0.5726 0.98698 0.10799 0.0
C863 C 0.62171 0.00811 0.07298 0.0
C864 C 0.53098 0.99486 0.16039 0.0
C865 C 0.53929 0.99407 0.14343 0.0
C866 C 0.57596 0.01537 0.11507 0.0
C867 C 0.59572 0.99834 0.08487 0.0
C868 C 0.58457 -0.00026 0.09825 0.0
C869 C 0.55492 0.00449 0.14161 0.0
C870 C 0.56431 0.00269 0.12535 0.0
H871 H 0.59731 0.97564 0.04724 0.0
H872 H 0.57908 0.97764 0.06964 0.0
H873 H 0.59485 0.02391 0.09403 0.0
H874 H 0.55948 0.0254 0.1853 0.0
H875 H 0.57394 0.02416 0.15575 0.0
C876 C 0.01946 0.61887 0.0616 0.0
C877 C 0.00775 0.62217 0.06331 0.0
C878 C 0.02034 0.60893 0.07557 0.0
C879 C 0.99702 0.578 0.11242 0.0
H880 H 0.03591 0.58646 0.13394 0.0
C881 C 0.02039 0.55843 0.18578 0.0
C882 C 0.01012 0.54281 0.18549 0.0
C883 C 0.0214 0.56743 0.16884 0.0
C884 C 0.02496 0.58393 0.12806 0.0
H885 H 0.98794 0.61785 0.08131 0.0
H886 H 0.98961 0.60065 0.10596 0.0
H887 H 0.03474 0.60405 0.1096 0.0
H888 H 0.99352 0.5242 0.16674 0.0
H889 H 0.99543 0.53992 0.13685 0.0
H890 H 0.98719 0.55816 0.13144 0.0
C891 C 0.99797 0.60557 0.09356 0.0
C892 C 0.0243 0.59395 0.11398 0.0
C893 C 0.99709 0.61553 0.07956 0.0
C894 C 0.00158 0.53621 0.16734 0.0
C895 C 0.00254 0.54523 0.15036 0.0
C896 C 0.99769 0.56797 0.12649 0.0
C897 C 0.00954 0.60206 0.09162 0.0
C898 C 0.0103 0.59119 0.10617 0.0
C899 C 0.01214 0.56101 0.1512 0.0
C900 C 0.01165 0.5709 0.13467 0.0
H901 H 0.02784 0.62377 0.04921 0.0
H902 H 0.0293 0.60637 0.07348 0.0
H903 H 0.98608 0.57541 0.10646 0.0
H904 H 0.02718 0.56379 0.19954 0.0
H905 H 0.02884 0.57952 0.1701 0.0
C906 C 0.39119 0.4094 0.05424 0.0
C907 C 0.38506 0.39376 0.05189 0.0
C908 C 0.40178 0.4174 0.0699 0.0
C909 C 0.41655 0.41264 0.12015 0.0
H910 H 0.45136 0.45169 0.10667 0.0
C911 C 0.46519 0.44368 0.17854 0.0
C912 C 0.47056 0.45912 0.18163 0.0
C913 C 0.45575 0.43599 0.16169 0.0
C914 C 0.44164 0.44086 0.11073 0.0
H915 H 0.38515 0.37423 0.06449 0.0
H916 H 0.40367 0.3882 0.09175 0.0
H917 H 0.43244 0.43756 0.07984 0.0
H918 H 0.47082 0.47876 0.169 0.0
H919 H 0.45424 0.46529 0.13945 0.0
H920 H 0.42566 0.41593 0.15103 0.0
C921 C 0.40017 0.39426 0.08156 0.0
C922 C 0.43078 0.43277 0.09537 0.0
C923 C 0.38957 0.38626 0.06588 0.0
C924 C 0.46693 0.46689 0.1669 0.0
C925 C 0.45742 0.45916 0.15001 0.0
C926 C 0.42739 0.42072 0.13548 0.0
C927 C 0.40651 0.40996 0.08362 0.0
C928 C 0.41809 0.41856 0.09991 0.0
C929 C 0.45142 0.44353 0.14753 0.0
C930 C 0.44008 0.43492 0.13097 0.0
H931 H 0.38795 0.41556 0.04381 0.0
H932 H 0.40623 0.42943 0.07128 0.0
H933 H 0.4068 0.40185 0.12428 0.0
H934 H 0.46799 0.43746 0.1895 0.0
H935 H 0.45164 0.42404 0.15996 0.0
C936 C 0.66152 0.7163 0.41607 0.0
C937 C 0.67364 0.72094 0.40193 0.0
C938 C 0.6609 0.7267 0.42959 0.0
C939 C 0.68414 0.76408 0.45416 0.0
H940 H 0.64528 0.76142 0.46191 0.0
C941 C 0.67677 0.80524 0.50859 0.0
C942 C 0.66446 0.79808 0.52248 0.0
C943 C 0.67808 0.79725 0.49164 0.0
C944 C 0.65621 0.76229 0.45997 0.0
H945 H 0.69483 0.74007 0.39132 0.0
H946 H 0.69377 0.75822 0.41501 0.0
H947 H 0.64751 0.74436 0.43752 0.0
H948 H 0.64348 0.77731 0.529 0.0
H949 H 0.64573 0.76342 0.49968 0.0
H950 H 0.69276 0.78183 0.47698 0.0
C951 C 0.68476 0.74653 0.41564 0.0
C952 C 0.65747 0.75248 0.44604 0.0
C953 C 0.68534 0.73613 0.40203 0.0
C954 C 0.65315 0.78307 0.51858 0.0
C955 C 0.65438 0.77515 0.50167 0.0
C956 C 0.68287 0.7739 0.46816 0.0
C957 C 0.67241 0.74197 0.42936 0.0
C958 C 0.67138 0.75306 0.44325 0.0
C959 C 0.66699 0.78202 0.48821 0.0
C960 C 0.66881 0.77292 0.47152 0.0
H961 H 0.65233 0.70468 0.41642 0.0
H962 H 0.65138 0.72276 0.44024 0.0
H963 H 0.695 0.76477 0.45244 0.0
H964 H 0.68566 0.8168 0.51131 0.0
H965 H 0.68785 0.8029 0.48141 0.0
C966 C 0.28549 0.94233 0.39944 0.0
C967 C 0.27703 0.94557 0.38531 0.0
C968 C 0.27817 0.93118 0.41478 0.0
C969 C 0.24127 0.90937 0.44243 0.0
H970 H 0.25566 0.88202 0.45578 0.0
C971 C 0.2069 0.85897 0.49656 0.0
C972 C 0.2151 0.85783 0.5133 0.0
C973 C 0.21448 0.86811 0.47935 0.0
C974 C 0.25155 0.88961 0.45223 0.0
H975 H 0.25422 0.93958 0.37631 0.0
H976 H 0.2416 0.92017 0.4026 0.0
H977 H 0.26921 0.90189 0.42977 0.0
H978 H 0.23757 0.86428 0.52432 0.0
H979 H 0.25082 0.88026 0.49426 0.0
H980 H 0.22364 0.89714 0.46479 0.0
C981 C 0.25386 0.92638 0.40219 0.0
C982 C 0.25935 0.90105 0.43743 0.0
C983 C 0.26114 0.93751 0.38699 0.0
C984 C 0.23097 0.86507 0.51171 0.0
C985 C 0.23855 0.87416 0.49445 0.0
C986 C 0.23345 0.89792 0.45706 0.0
C987 C 0.26225 0.92303 0.41627 0.0
C988 C 0.25428 0.91106 0.43234 0.0
C989 C 0.2304 0.87623 0.47848 0.0
C990 C 0.23846 0.88788 0.46212 0.0
H991 H 0.29774 0.94831 0.39858 0.0
H992 H 0.28498 0.92903 0.42555 0.0
H993 H 0.23722 0.91705 0.43925 0.0
H994 H 0.19467 0.8536 0.49737 0.0
H995 H 0.20789 0.8693 0.46709 0.0
C996 C 0.06362 0.32458 0.39001 0.0
C997 C 0.05635 0.33304 0.38844 0.0
C998 C 0.07479 0.32814 0.40506 0.0
C999 C 0.08927 0.34751 0.45544 0.0
H1000 H 0.12551 0.34684 0.43934 0.0
C1001 C 0.1369 0.36287 0.5147 0.0
C1002 C 0.14257 0.35297 0.51552 0.0
C1003 C 0.12808 0.36245 0.49781 0.0
C1004 C 0.11543 0.34699 0.44413 0.0
H1005 H 0.05497 0.35172 0.40185 0.0
H1006 H 0.07445 0.35788 0.42824 0.0
H1007 H 0.10617 0.3417 0.4132 0.0
H1008 H 0.14414 0.33545 0.49881 0.0
H1009 H 0.12865 0.3346 0.46935 0.0
H1010 H 0.0983 0.35246 0.48643 0.0
C1011 C 0.07145 0.34847 0.41779 0.0
C1012 C 0.10434 0.34403 0.42915 0.0
C1013 C 0.06029 0.34494 0.40265 0.0
C1014 C 0.14004 0.3433 0.49849 0.0
C1015 C 0.13113 0.34281 0.48163 0.0
C1016 C 0.10033 0.35042 0.47043 0.0
C1017 C 0.07895 0.34021 0.41899 0.0
C1018 C 0.09106 0.34409 0.43469 0.0
C1019 C 0.12466 0.35206 0.4814 0.0
C1020 C 0.11349 0.35006 0.46502 0.0
H1021 H 0.06087 0.3153 0.37939 0.0
H1022 H 0.08014 0.32138 0.40582 0.0
H1023 H 0.0791 0.34748 0.46026 0.0
H1024 H 0.13885 0.37057 0.52752 0.0
H1025 H 0.12359 0.36998 0.4979 0.0
C1026 C 0.0443 0.32385 0.2735 0.0
C1027 C 0.0513 0.33648 0.28679 0.0
C1028 C 0.05295 0.32053 0.25995 0.0
C1029 C 0.09142 0.32691 0.25238 0.0
H1030 H 0.07796 0.31443 0.19539 0.0
C1031 C 0.12909 0.32433 0.18647 0.0
C1032 C 0.12194 0.31374 0.17038 0.0
C1033 C 0.12054 0.32535 0.20286 0.0
C1034 C 0.08175 0.3176 0.21137 0.0
H1035 H 0.07285 0.35571 0.296 0.0
H1036 H 0.08798 0.34995 0.27212 0.0
H1037 H 0.063 0.3205 0.21874 0.0
H1038 H 0.10062 0.29499 0.15968 0.0
H1039 H 0.08573 0.29639 0.18863 0.0
H1040 H 0.11027 0.32409 0.24489 0.0
C1041 C 0.0758 0.34253 0.27242 0.0
C1042 C 0.0732 0.32116 0.22473 0.0
C1043 C 0.06713 0.34591 0.28593 0.0
C1044 C 0.10635 0.30332 0.17187 0.0
C1045 C 0.09783 0.30424 0.18832 0.0
C1046 C 0.09998 0.32328 0.23901 0.0
C1047 C 0.06881 0.32973 0.25942 0.0
C1048 C 0.07796 0.32592 0.24534 0.0
C1049 C 0.10471 0.31572 0.20345 0.0
C1050 C 0.09526 0.31863 0.21832 0.0
H1051 H 0.03214 0.31634 0.27384 0.0
H1052 H 0.04724 0.31052 0.25025 0.0
H1053 H 0.09526 0.33035 0.2683 0.0
H1054 H 0.14108 0.33257 0.18553 0.0
H1055 H 0.1262 0.33436 0.2142 0.0
C1056 C 0.65298 0.72724 0.30033 0.0
C1057 C 0.6624 0.72101 0.30216 0.0
C1058 C 0.65531 0.73746 0.28441 0.0
C1059 C 0.68444 0.76439 0.24788 0.0
H1060 H 0.64992 0.76218 0.21968 0.0
C1061 C 0.68967 0.79825 0.17309 0.0
C1062 C 0.67957 0.8036 0.17044 0.0
C1063 C 0.68832 0.78929 0.19027 0.0
C1064 C 0.65968 0.76312 0.22762 0.0
H1065 H 0.68156 0.72057 0.28836 0.0
H1066 H 0.68554 0.73836 0.26032 0.0
H1067 H 0.64585 0.74366 0.24639 0.0
H1068 H 0.66057 0.80428 0.18425 0.0
H1069 H 0.65834 0.7888 0.21455 0.0
H1070 H 0.69826 0.78382 0.22895 0.0
C1071 C 0.67645 0.73542 0.27145 0.0
C1072 C 0.65735 0.75245 0.2429 0.0
C1073 C 0.6741 0.72513 0.28742 0.0
C1074 C 0.66855 0.80039 0.18591 0.0
C1075 C 0.66717 0.79137 0.20312 0.0
C1076 C 0.68677 0.77508 0.23257 0.0
C1077 C 0.66712 0.74176 0.26983 0.0
C1078 C 0.66969 0.75295 0.25323 0.0
C1079 C 0.67683 0.78543 0.20524 0.0
C1080 C 0.67441 0.77456 0.22225 0.0
H1081 H 0.64387 0.72438 0.31139 0.0
H1082 H 0.64803 0.74225 0.28382 0.0
H1083 H 0.69418 0.76525 0.25576 0.0
H1084 H 0.69836 0.80065 0.16149 0.0
H1085 H 0.69589 0.78485 0.19131 0.0
C1086 C 0.2767 0.95506 0.27173 0.0
C1087 C 0.28463 0.94997 0.28383 0.0
C1088 C 0.26517 0.94519 0.25824 0.0
C1089 C 0.25019 0.90889 0.2302 0.0
H1090 H 0.21353 0.91107 0.22736 0.0
C1091 C 0.19996 0.86846 0.17762 0.0
C1092 C 0.1945 0.87574 0.16486 0.0
C1093 C 0.20958 0.87616 0.19444 0.0
C1094 C 0.22371 0.91034 0.22794 0.0
H1095 H 0.28691 0.93059 0.29095 0.0
H1096 H 0.26678 0.91338 0.26746 0.0
H1097 H 0.2337 0.92762 0.2513 0.0
H1098 H 0.19397 0.89633 0.16033 0.0
H1099 H 0.21066 0.90974 0.18952 0.0
H1100 H 0.24028 0.89178 0.20658 0.0
C1101 C 0.26952 0.92502 0.26829 0.0
C1102 C 0.2353 0.91987 0.24158 0.0
C1103 C 0.28103 0.93488 0.28179 0.0
C1104 C 0.1981 0.89049 0.1699 0.0
C1105 C 0.20759 0.89813 0.1867 0.0
C1106 C 0.23859 0.89935 0.21654 0.0
C1107 C 0.26133 0.93001 0.25653 0.0
C1108 C 0.24876 0.91941 0.24265 0.0
C1109 C 0.21375 0.89121 0.19887 0.0
C1110 C 0.22531 0.90013 0.21502 0.0
H1111 H 0.27922 0.96661 0.27293 0.0
H1112 H 0.25927 0.94946 0.24912 0.0
H1113 H 0.26047 0.90833 0.2305 0.0
H1114 H 0.1974 0.8571 0.17399 0.0
H1115 H 0.21401 0.87047 0.20368 0.0
C1116 C 0.65591 0.92545 0.29769 0.0
C1117 C 0.66295 0.94127 0.29831 0.0
C1118 C 0.65992 0.91832 0.28244 0.0
C1119 C 0.67681 0.92351 0.23013 0.0
H1120 H 0.6817 0.88986 0.24607 0.0
C1121 C 0.69207 0.89268 0.16847 0.0
C1122 C 0.68348 0.87685 0.16913 0.0
C1123 C 0.6921 0.90127 0.18548 0.0
C1124 C 0.68029 0.89917 0.24133 0.0
H1125 H 0.6796 0.96199 0.28307 0.0
H1126 H 0.6865 0.94948 0.25627 0.0
H1127 H 0.67626 0.90348 0.27285 0.0
H1128 H 0.66887 0.85757 0.18845 0.0
H1129 H 0.66871 0.87252 0.21811 0.0
H1130 H 0.68036 0.919 0.19859 0.0
C1131 C 0.67786 0.94263 0.26766 0.0
C1132 C 0.67718 0.90698 0.25667 0.0
C1133 C 0.67392 0.94979 0.28303 0.0
C1134 C 0.6757 0.86976 0.18762 0.0
C1135 C 0.67561 0.87836 0.2046 0.0
C1136 C 0.67983 0.91567 0.21478 0.0
C1137 C 0.67101 0.92682 0.26734 0.0
C1138 C 0.67522 0.91912 0.25121 0.0
C1139 C 0.68341 0.89422 0.20346 0.0
C1140 C 0.68146 0.90329 0.22013 0.0
H1141 H 0.64741 0.9185 0.30918 0.0
H1142 H 0.65424 0.90611 0.2824 0.0
H1143 H 0.67519 0.9327 0.22539 0.0
H1144 H 0.6983 0.89842 0.15444 0.0
H1145 H 0.69854 0.91346 0.18425 0.0
C1146 C 0.06448 0.72412 0.28573 0.0
C1147 C 0.04871 0.71798 0.28544 0.0
C1148 C 0.07383 0.73572 0.27195 0.0
C1149 C 0.07417 0.76523 0.23829 0.0
H1150 H 0.10886 0.76598 0.2124 0.0
C1151 C 0.10488 0.80009 0.16487 0.0
C1152 C 0.12067 0.80657 0.16355 0.0
C1153 C 0.09687 0.79114 0.182 0.0
C1154 C 0.09936 0.76607 0.21978 0.0
H1155 H 0.03032 0.71882 0.27008 0.0
H1156 H 0.04657 0.73872 0.24567 0.0
H1157 H 0.09318 0.74595 0.23698 0.0
H1158 H 0.14058 0.80946 0.17956 0.0
H1159 H 0.12655 0.79382 0.20962 0.0
H1160 H 0.08016 0.78514 0.22053 0.0
C1161 C 0.05178 0.73489 0.25689 0.0
C1162 C 0.09035 0.75457 0.23385 0.0
C1163 C 0.04245 0.72338 0.27075 0.0
C1164 C 0.12841 0.80465 0.18025 0.0
C1165 C 0.12038 0.79559 0.19732 0.0
C1166 C 0.08313 0.77667 0.2241 0.0
C1167 C 0.06761 0.74135 0.25749 0.0
C1168 C 0.07754 0.75391 0.24312 0.0
C1169 C 0.10449 0.78841 0.19808 0.0
C1170 C 0.09574 0.77713 0.21455 0.0
H1171 H 0.06966 0.72026 0.29695 0.0
H1172 H 0.08598 0.74051 0.27299 0.0
H1173 H 0.06458 0.76525 0.24547 0.0
H1174 H 0.09866 0.80146 0.15225 0.0
H1175 H 0.08463 0.78571 0.18209 0.0
C1176 C 0.27713 0.32465 0.28169 0.0
C1177 C 0.28216 0.33658 0.29614 0.0
C1178 C 0.26659 0.32263 0.26621 0.0
C1179 C 0.24996 0.34251 0.23849 0.0
H1180 H 0.21713 0.30203 0.22646 0.0
C1181 C 0.20074 0.33188 0.18373 0.0
C1182 C 0.19686 0.32057 0.16859 0.0
C1183 C 0.21017 0.33334 0.20049 0.0
C1184 C 0.22628 0.3134 0.22955 0.0
H1185 H 0.28024 0.35592 0.30528 0.0
H1186 H 0.26193 0.35232 0.27858 0.0
H1187 H 0.23625 0.30581 0.25225 0.0
H1188 H 0.19908 0.3014 0.15977 0.0
H1189 H 0.21552 0.30396 0.18883 0.0
H1190 H 0.24003 0.3501 0.21574 0.0
C1191 C 0.26618 0.34459 0.279 0.0
C1192 C 0.23728 0.31557 0.24427 0.0
C1193 C 0.27666 0.34661 0.29443 0.0
C1194 C 0.20198 0.31031 0.17113 0.0
C1195 C 0.21132 0.31171 0.18788 0.0
C1196 C 0.23895 0.34035 0.2238 0.0
C1197 C 0.26089 0.33251 0.26481 0.0
C1198 C 0.24929 0.33015 0.24889 0.0
C1199 C 0.21582 0.32345 0.20252 0.0
C1200 C 0.227 0.32577 0.21908 0.0
H1201 H 0.28111 0.31672 0.28253 0.0
H1202 H 0.26291 0.31331 0.25534 0.0
H1203 H 0.25915 0.35388 0.24144 0.0
H1204 H 0.19702 0.33999 0.18211 0.0
H1205 H 0.21326 0.34238 0.21167 0.0
C1206 C 0.28737 0.33845 0.40896 0.0
C1207 C 0.28213 0.32576 0.39589 0.0
C1208 C 0.27734 0.34012 0.42205 0.0
C1209 C 0.23995 0.31927 0.4477 0.0
H1210 H 0.24424 0.35892 0.45136 0.0
C1211 C 0.20079 0.33066 0.50069 0.0
C1212 C 0.2086 0.34342 0.51357 0.0
C1213 C 0.20821 0.32841 0.48378 0.0
C1214 C 0.24291 0.34778 0.45056 0.0
H1215 H 0.26232 0.30465 0.38675 0.0
H1216 H 0.2448 0.30755 0.40971 0.0
H1217 H 0.26061 0.35483 0.42778 0.0
H1218 H 0.22989 0.36422 0.51827 0.0
H1219 H 0.24281 0.36035 0.48898 0.0
H1220 H 0.22248 0.31232 0.47088 0.0
C1221 C 0.25668 0.31619 0.40983 0.0
C1222 C 0.25233 0.34546 0.4371 0.0
C1223 C 0.26671 0.31455 0.39665 0.0
C1224 C 0.22363 0.35426 0.5086 0.0
C1225 C 0.231 0.35207 0.49172 0.0
C1226 C 0.23054 0.32161 0.46124 0.0
C1227 C 0.26184 0.32911 0.42243 0.0
C1228 C 0.25115 0.33125 0.4358 0.0
C1229 C 0.22351 0.33896 0.4794 0.0
C1230 C 0.23211 0.33598 0.46311 0.0
H1231 H 0.29918 0.34728 0.40878 0.0
H1232 H 0.28173 0.35007 0.43186 0.0
H1233 H 0.23882 0.30822 0.44713 0.0
H1234 H 0.18921 0.32211 0.50429 0.0
H1235 H 0.20209 0.31827 0.47443 0.0
C1236 C 0.67865 0.94601 0.39886 0.0
C1237 C 0.66828 0.95113 0.39919 0.0
C1238 C 0.67698 0.93471 0.41259 0.0
C1239 C 0.64836 0.90393 0.44612 0.0
H1240 H 0.68357 0.9059 0.4717 0.0
C1241 C 0.64586 0.86975 0.51899 0.0
C1242 C 0.65618 0.86461 0.52045 0.0
C1243 C 0.64626 0.87834 0.50186 0.0
C1244 C 0.67363 0.90504 0.4644 0.0
H1245 H 0.64826 0.94873 0.41461 0.0
H1246 H 0.64556 0.9293 0.43894 0.0
H1247 H 0.68691 0.92557 0.44744 0.0
H1248 H 0.67442 0.86364 0.50461 0.0
H1249 H 0.67509 0.87863 0.47449 0.0
H1250 H 0.63509 0.88357 0.46361 0.0
C1251 C 0.65478 0.93374 0.42773 0.0
C1252 C 0.67554 0.91634 0.45052 0.0
C1253 C 0.65642 0.94499 0.41392 0.0
C1254 C 0.66628 0.8674 0.50381 0.0
C1255 C 0.66677 0.87611 0.48672 0.0
C1256 C 0.64645 0.89266 0.46011 0.0
C1257 C 0.66493 0.92832 0.42707 0.0
C1258 C 0.66292 0.91602 0.44136 0.0
C1259 C 0.65707 0.88205 0.48589 0.0
C1260 C 0.65906 0.89316 0.46955 0.0
H1261 H 0.68787 0.95045 0.38762 0.0
H1262 H 0.68492 0.93072 0.41149 0.0
H1263 H 0.6384 0.90314 0.43903 0.0
H1264 H 0.63792 0.86769 0.5316 0.0
H1265 H 0.63868 0.88279 0.50175 0.0
C1266 C 0.05615 0.71964 0.40026 0.0
C1267 C 0.05135 0.72731 0.38708 0.0
C1268 C 0.06702 0.72744 0.41574 0.0
C1269 C 0.09768 0.76594 0.42997 0.0
H1270 H 0.09416 0.74812 0.48456 0.0
C1271 C 0.13541 0.79889 0.50117 0.0
C1272 C 0.1396 0.7909 0.51469 0.0
C1273 C 0.12548 0.79147 0.48451 0.0
C1274 C 0.09543 0.75319 0.4693 0.0
H1275 H 0.05394 0.74919 0.38033 0.0
H1276 H 0.07263 0.76266 0.40745 0.0
H1277 H 0.07474 0.73432 0.45836 0.0
H1278 H 0.13761 0.76923 0.52056 0.0
H1279 H 0.12054 0.75637 0.49143 0.0
H1280 H 0.11835 0.78486 0.44105 0.0
C1281 C 0.06825 0.75068 0.40556 0.0
C1282 C 0.08427 0.74526 0.45427 0.0
C1283 C 0.05742 0.7429 0.3901 0.0
C1284 C 0.13438 0.77561 0.51055 0.0
C1285 C 0.12453 0.76822 0.49395 0.0
C1286 C 0.10885 0.77388 0.44504 0.0
C1287 C 0.07332 0.74309 0.41842 0.0
C1288 C 0.08524 0.75153 0.43442 0.0
C1289 C 0.11962 0.77594 0.48108 0.0
C1290 C 0.10787 0.76758 0.46487 0.0
H1291 H 0.05178 0.70766 0.39832 0.0
H1292 H 0.07077 0.72126 0.42526 0.0
H1293 H 0.0989 0.77101 0.41472 0.0
H1294 H 0.13919 0.81066 0.50409 0.0
H1295 H 0.12188 0.79773 0.47491 0.0
C1296 C 0.32605 0.04687 0.74913 0.0
C1297 C 0.33846 0.05187 0.73545 0.0
C1298 C 0.32495 0.057 0.76265 0.0
C1299 C 0.34722 0.09435 0.7878 0.0
H1300 H 0.30797 0.09109 0.79381 0.0
C1301 C 0.33854 0.13534 0.84046 0.0
C1302 C 0.32608 0.12815 0.85412 0.0
C1303 C 0.3401 0.12734 0.82375 0.0
C1304 C 0.319 0.09212 0.79236 0.0
H1305 H 0.35969 0.07135 0.72567 0.0
H1306 H 0.35777 0.08901 0.7493 0.0
H1307 H 0.3109 0.07414 0.77003 0.0
H1308 H 0.30511 0.10734 0.86042 0.0
H1309 H 0.30779 0.09341 0.8315 0.0
H1310 H 0.35524 0.11216 0.81046 0.0
C1311 C 0.34891 0.07726 0.74961 0.0
C1312 C 0.32066 0.08237 0.77879 0.0
C1313 C 0.34998 0.06713 0.73603 0.0
C1314 C 0.31486 0.11312 0.85016 0.0
C1315 C 0.31636 0.10518 0.8335 0.0
C1316 C 0.34555 0.1041 0.80143 0.0
C1317 C 0.33627 0.07235 0.76285 0.0
C1318 C 0.33473 0.08321 0.7766 0.0
C1319 C 0.32915 0.11207 0.82035 0.0
C1320 C 0.33135 0.10293 0.80412 0.0
H1321 H 0.317 0.03518 0.74909 0.0
H1322 H 0.3152 0.05281 0.77293 0.0
H1323 H 0.35819 0.09522 0.78656 0.0
H1324 H 0.34736 0.14692 0.84324 0.0
H1325 H 0.35 0.133 0.81375 0.0
C1326 C 0.9269 0.26668 0.71669 0.0
C1327 C 0.94279 0.27555 0.71571 0.0
C1328 C 0.91979 0.25572 0.73215 0.0
C1329 C 0.92611 0.23237 0.77002 0.0
H1330 H 0.88962 0.22787 0.79558 0.0
C1331 C 0.8979 0.19771 0.84534 0.0
C1332 C 0.882 0.19022 0.84679 0.0
C1333 C 0.90543 0.20654 0.82785 0.0
C1334 C 0.89966 0.2288 0.78837 0.0
H1335 H 0.96366 0.27982 0.73037 0.0
H1336 H 0.95117 0.26079 0.75773 0.0
H1337 H 0.90284 0.24709 0.76906 0.0
H1338 H 0.86151 0.18529 0.83036 0.0
H1339 H 0.87462 0.20042 0.79968 0.0
H1340 H 0.92296 0.21416 0.78977 0.0
C1341 C 0.94425 0.26222 0.74626 0.0
C1342 C 0.90727 0.23986 0.77318 0.0
C1343 C 0.9514 0.27321 0.73069 0.0
C1344 C 0.87376 0.19086 0.82971 0.0
C1345 C 0.88128 0.1997 0.81225 0.0
C1346 C 0.91849 0.22129 0.78534 0.0
C1347 C 0.92835 0.25336 0.74717 0.0
C1348 C 0.92056 0.24176 0.76373 0.0
C1349 C 0.8972 0.20807 0.81146 0.0
C1350 C 0.90513 0.21935 0.79461 0.0
H1351 H 0.91986 0.26805 0.70535 0.0
H1352 H 0.90754 0.24895 0.73214 0.0
H1353 H 0.93622 0.23342 0.76289 0.0
H1354 H 0.90456 0.19728 0.85815 0.0
H1355 H 0.91769 0.21284 0.82774 0.0
C1356 C 0.73089 0.65972 0.72292 0.0
C1357 C 0.72236 0.66698 0.72282 0.0
C1358 C 0.74189 0.66315 0.73817 0.0
C1359 C 0.75351 0.67852 0.79111 0.0
H1360 H 0.79212 0.68317 0.77433 0.0
C1361 C 0.79943 0.69134 0.85222 0.0
C1362 C 0.8065 0.6827 0.85069 0.0
C1363 C 0.79092 0.69189 0.83558 0.0
C1364 C 0.78138 0.68181 0.77931 0.0
H1365 H 0.71858 0.68336 0.73905 0.0
H1366 H 0.73774 0.68922 0.76591 0.0
H1367 H 0.77326 0.67885 0.74781 0.0
H1368 H 0.81091 0.66853 0.83024 0.0
H1369 H 0.79591 0.66928 0.8012 0.0
H1370 H 0.76136 0.68101 0.82262 0.0
C1371 C 0.73587 0.68088 0.75407 0.0
C1372 C 0.77057 0.67934 0.76411 0.0
C1373 C 0.7249 0.67753 0.73868 0.0
C1374 C 0.80569 0.67538 0.83174 0.0
C1375 C 0.79706 0.67582 0.81512 0.0
C1376 C 0.76428 0.6809 0.80633 0.0
C1377 C 0.74461 0.67385 0.75382 0.0
C1378 C 0.75644 0.67747 0.76986 0.0
C1379 C 0.78918 0.6837 0.81708 0.0
C1380 C 0.77829 0.68241 0.80066 0.0
H1381 H 0.72927 0.65152 0.71099 0.0
H1382 H 0.74822 0.65733 0.73777 0.0
H1383 H 0.74268 0.67696 0.79607 0.0
H1384 H 0.80002 0.69722 0.86661 0.0
H1385 H 0.78534 0.69838 0.83746 0.0
C1386 C 0.7143 0.66575 0.6051 0.0
C1387 C 0.72015 0.67541 0.62249 0.0
C1388 C 0.72403 0.66451 0.59089 0.0
C1389 C 0.76155 0.66877 0.58599 0.0
H1390 H 0.75707 0.67323 0.52663 0.0
C1391 C 0.79162 0.65598 0.51698 0.0
C1392 C 0.79806 0.66744 0.5018 0.0
C1393 C 0.78302 0.65691 0.53346 0.0
C1394 C 0.75841 0.67194 0.54317 0.0
H1395 H 0.74077 0.69134 0.63866 0.0
H1396 H 0.75776 0.68901 0.61387 0.0
H1397 H 0.73977 0.6748 0.55161 0.0
H1398 H 0.8017 0.68938 0.49296 0.0
H1399 H 0.78653 0.69083 0.52137 0.0
H1400 H 0.7802 0.66582 0.57737 0.0
C1401 C 0.74564 0.68244 0.61129 0.0
C1402 C 0.74849 0.67275 0.55741 0.0
C1403 C 0.73593 0.68387 0.62533 0.0
C1404 C 0.79659 0.68023 0.50417 0.0
C1405 C 0.78793 0.68108 0.5204 0.0
C1406 C 0.77135 0.6677 0.57165 0.0
C1407 C 0.73977 0.67272 0.59398 0.0
C1408 C 0.75005 0.67134 0.57896 0.0
C1409 C 0.78071 0.66925 0.53482 0.0
C1410 C 0.76997 0.66949 0.55016 0.0
H1411 H 0.70219 0.65907 0.60256 0.0
H1412 H 0.71923 0.65691 0.57768 0.0
H1413 H 0.76289 0.66753 0.60254 0.0
H1414 H 0.79256 0.64599 0.5155 0.0
H1415 H 0.77756 0.64767 0.54448 0.0
C1416 C 0.31558 0.05806 0.63555 0.0
C1417 C 0.32567 0.05257 0.6363 0.0
C1418 C 0.31675 0.06797 0.61983 0.0
C1419 C 0.34331 0.09532 0.58125 0.0
H1420 H 0.30653 0.09021 0.55632 0.0
C1421 C 0.32485 0.11677 0.50401 0.0
C1422 C 0.33588 0.13219 0.50416 0.0
C1423 C 0.32296 0.10769 0.52127 0.0
C1424 C 0.31691 0.09179 0.56309 0.0
H1425 H 0.34489 0.05321 0.62085 0.0
H1426 H 0.34684 0.07049 0.59311 0.0
H1427 H 0.30489 0.07257 0.58296 0.0
H1428 H 0.3531 0.15037 0.52281 0.0
H1429 H 0.34966 0.13449 0.5533 0.0
H1430 H 0.35534 0.11436 0.56092 0.0
C1431 C 0.33811 0.06718 0.60495 0.0
C1432 C 0.31597 0.08174 0.57849 0.0
C1433 C 0.33692 0.05719 0.62074 0.0
C1434 C 0.34445 0.13853 0.52236 0.0
C1435 C 0.34261 0.1294 0.53967 0.0
C1436 C 0.34425 0.10541 0.56584 0.0
C1437 C 0.32802 0.07269 0.60434 0.0
C1438 C 0.32915 0.08334 0.58773 0.0
C1439 C 0.33207 0.1138 0.53912 0.0
C1440 C 0.33106 0.10372 0.55649 0.0
H1441 H 0.30679 0.05482 0.64727 0.0
H1442 H 0.30893 0.07215 0.62005 0.0
H1443 H 0.35367 0.09698 0.58821 0.0
H1444 H 0.31808 0.1116 0.49016 0.0
H1445 H 0.31481 0.09572 0.52022 0.0
C1446 C 0.94524 0.28741 0.60195 0.0
C1447 C 0.95292 0.28238 0.61472 0.0
C1448 C 0.93384 0.27742 0.58843 0.0
C1449 C 0.91838 0.24049 0.56188 0.0
H1450 H 0.88237 0.24371 0.55734 0.0
C1451 C 0.86794 0.20018 0.50938 0.0
C1452 C 0.8632 0.20767 0.49579 0.0
C1453 C 0.8775 0.20793 0.52622 0.0
C1454 C 0.89236 0.24268 0.55842 0.0
H1455 H 0.95495 0.26303 0.6229 0.0
H1456 H 0.93497 0.24557 0.59937 0.0
H1457 H 0.9025 0.26028 0.58128 0.0
H1458 H 0.86394 0.22873 0.48969 0.0
H1459 H 0.88046 0.2422 0.51904 0.0
H1460 H 0.90827 0.22301 0.53878 0.0
C1461 C 0.93783 0.25725 0.5997 0.0
C1462 C 0.90393 0.25223 0.57205 0.0
C1463 C 0.94926 0.26726 0.61322 0.0
C1464 C 0.86747 0.22273 0.49996 0.0
C1465 C 0.87687 0.2304 0.51682 0.0
C1466 C 0.90677 0.23091 0.54826 0.0
C1467 C 0.92982 0.26217 0.58738 0.0
C1468 C 0.9172 0.25144 0.57368 0.0
C1469 C 0.8823 0.22322 0.52985 0.0
C1470 C 0.89375 0.23209 0.54612 0.0
H1471 H 0.94784 0.29901 0.60268 0.0
H1472 H 0.92811 0.28165 0.57883 0.0
H1473 H 0.92849 0.23966 0.56264 0.0
H1474 H 0.86485 0.18859 0.50638 0.0
H1475 H 0.8814 0.20206 0.53613 0.0
C1476 C 0.3409 0.28254 0.61493 0.0
C1477 C 0.3289 0.27447 0.6291 0.0
C1478 C 0.34429 0.27492 0.59954 0.0
C1479 C 0.32767 0.23808 0.57187 0.0
H1480 H 0.3695 0.25083 0.5588 0.0
C1481 C 0.34228 0.20219 0.5187 0.0
C1482 C 0.35228 0.21001 0.50215 0.0
C1483 C 0.34075 0.21007 0.53552 0.0
C1484 C 0.35777 0.24718 0.56225 0.0
H1485 H 0.31103 0.25203 0.63806 0.0
H1486 H 0.31705 0.23888 0.61166 0.0
H1487 H 0.36381 0.2649 0.58464 0.0
H1488 H 0.3694 0.23212 0.49107 0.0
H1489 H 0.36674 0.24588 0.52045 0.0
H1490 H 0.32161 0.22037 0.54959 0.0
C1491 C 0.32371 0.25108 0.6121 0.0
C1492 C 0.35449 0.25529 0.57695 0.0
C1493 C 0.32029 0.25866 0.62736 0.0
C1494 C 0.3615 0.2258 0.50352 0.0
C1495 C 0.36003 0.23368 0.5204 0.0
C1496 C 0.33093 0.22996 0.55731 0.0
C1497 C 0.33577 0.25908 0.59802 0.0
C1498 C 0.33939 0.2508 0.58198 0.0
C1499 C 0.34926 0.22593 0.53621 0.0
C1500 C 0.34601 0.23438 0.55235 0.0
H1501 H 0.34777 0.29472 0.61582 0.0
H1502 H 0.35354 0.28146 0.58878 0.0
H1503 H 0.31591 0.23447 0.57499 0.0
H1504 H 0.33496 0.19005 0.51805 0.0
H1505 H 0.33254 0.20377 0.54766 0.0
C1506 C 0.70804 0.05724 0.60158 0.0
C1507 C 0.7149 0.05201 0.61558 0.0
C1508 C 0.71681 0.0687 0.58734 0.0
C1509 C 0.75555 0.10036 0.57849 0.0
H1510 H 0.74224 0.0972 0.52105 0.0
C1511 C 0.79386 0.13839 0.51126 0.0
C1512 C 0.78696 0.14149 0.49463 0.0
C1513 C 0.7851 0.12916 0.5278 0.0
C1514 C 0.746 0.09843 0.53713 0.0
H1515 H 0.7363 0.05451 0.62537 0.0
H1516 H 0.75163 0.07449 0.60034 0.0
H1517 H 0.72693 0.0771 0.54564 0.0
H1518 H 0.76581 0.1386 0.48305 0.0
H1519 H 0.75055 0.12287 0.51221 0.0
H1520 H 0.77468 0.12169 0.56991 0.0
C1521 C 0.73948 0.06982 0.60058 0.0
C1522 C 0.73724 0.08685 0.55119 0.0
C1523 C 0.73069 0.05829 0.61478 0.0
C1524 C 0.77136 0.13623 0.49562 0.0
C1525 C 0.76263 0.12712 0.51221 0.0
C1526 C 0.7643 0.11201 0.56442 0.0
C1527 C 0.73264 0.07522 0.58683 0.0
C1528 C 0.74194 0.08764 0.572 0.0
C1529 C 0.76929 0.12296 0.52804 0.0
C1530 C 0.75965 0.11115 0.54353 0.0
H1531 H 0.6959 0.05266 0.60186 0.0
H1532 H 0.71122 0.07269 0.57704 0.0
H1533 H 0.75936 0.10138 0.59452 0.0
H1534 H 0.80585 0.14221 0.51075 0.0
H1535 H 0.79061 0.12613 0.53966 0.0
C1536 C 0.94473 0.6602 0.61532 0.0
C1537 C 0.95104 0.67321 0.62795 0.0
C1538 C 0.93394 0.65783 0.60004 0.0
C1539 C 0.9188 0.67768 0.56899 0.0
H1540 H 0.88293 0.63801 0.56428 0.0
C1541 C 0.86876 0.66767 0.51674 0.0
C1542 C 0.86283 0.65487 0.50376 0.0
C1543 C 0.87856 0.66945 0.53316 0.0
C1544 C 0.89292 0.64914 0.56529 0.0
H1545 H 0.95126 0.69414 0.63389 0.0
H1546 H 0.9326 0.68999 0.60746 0.0
H1547 H 0.90277 0.64214 0.58901 0.0
H1548 H 0.86173 0.6335 0.49863 0.0
H1549 H 0.87885 0.63662 0.52704 0.0
H1550 H 0.90906 0.68468 0.5452 0.0
C1551 C 0.93598 0.68164 0.60923 0.0
C1552 C 0.90433 0.65148 0.57941 0.0
C1553 C 0.94666 0.68397 0.6245 0.0
C1554 C 0.86621 0.64353 0.50829 0.0
C1555 C 0.87596 0.64529 0.52468 0.0
C1556 C 0.90742 0.67534 0.55486 0.0
C1557 C 0.92933 0.66847 0.59697 0.0
C1558 C 0.91741 0.66579 0.58145 0.0
C1559 C 0.88259 0.65845 0.53699 0.0
C1560 C 0.89433 0.66104 0.55281 0.0
H1561 H 0.94782 0.65168 0.61758 0.0
H1562 H 0.92917 0.64764 0.59068 0.0
H1563 H 0.92881 0.6888 0.56994 0.0
H1564 H 0.86643 0.67663 0.51356 0.0
H1565 H 0.88326 0.67961 0.54257 0.0
C1566 C 0.93505 0.65246 0.72795 0.0
C1567 C 0.95049 0.66363 0.72769 0.0
C1568 C 0.92489 0.65386 0.74115 0.0
C1569 C 0.92039 0.68247 0.77029 0.0
H1570 H 0.89 0.64828 0.80196 0.0
C1571 C 0.89063 0.68871 0.84275 0.0
C1572 C 0.87548 0.67773 0.84688 0.0
C1573 C 0.89829 0.68718 0.82567 0.0
C1574 C 0.89822 0.65787 0.79292 0.0
H1575 H 0.96742 0.68487 0.7414 0.0
H1576 H 0.94974 0.68723 0.76457 0.0
H1577 H 0.90658 0.64489 0.7778 0.0
H1578 H 0.85623 0.6569 0.83588 0.0
H1579 H 0.86963 0.65425 0.80572 0.0
H1580 H 0.91223 0.69552 0.78567 0.0
C1581 C 0.94544 0.6775 0.75434 0.0
C1582 C 0.90776 0.65594 0.77913 0.0
C1583 C 0.95559 0.67608 0.7412 0.0
C1584 C 0.86789 0.66556 0.83297 0.0
C1585 C 0.8756 0.66397 0.81588 0.0
C1586 C 0.91085 0.6844 0.78405 0.0
C1587 C 0.92994 0.6665 0.75431 0.0
C1588 C 0.91914 0.66828 0.76795 0.0
C1589 C 0.89099 0.67461 0.81232 0.0
C1590 C 0.89984 0.67219 0.79582 0.0
H1591 H 0.93076 0.64274 0.7177 0.0
H1592 H 0.91301 0.64523 0.74067 0.0
H1593 H 0.92882 0.69214 0.76156 0.0
H1594 H 0.89672 0.69824 0.8532 0.0
H1595 H 0.91016 0.69551 0.82354 0.0
C1596 C 0.32071 0.27635 0.74512 0.0
C1597 C 0.33277 0.28224 0.73069 0.0
C1598 C 0.31858 0.26495 0.75902 0.0
C1599 C 0.33844 0.24679 0.78248 0.0
H1600 H 0.29764 0.21488 0.79595 0.0
C1601 C 0.32804 0.19746 0.83563 0.0
C1602 C 0.31823 0.19504 0.8525 0.0
C1603 C 0.32864 0.20624 0.81856 0.0
C1604 C 0.3091 0.22372 0.79233 0.0
H1605 H 0.35207 0.28085 0.71965 0.0
H1606 H 0.34823 0.26085 0.74354 0.0
H1607 H 0.30147 0.23453 0.77113 0.0
H1608 H 0.30052 0.19885 0.86409 0.0
H1609 H 0.30146 0.21408 0.83426 0.0
H1610 H 0.34606 0.23601 0.80371 0.0
C1611 C 0.34055 0.26518 0.74443 0.0
C1612 C 0.3113 0.23504 0.77822 0.0
C1613 C 0.34274 0.27663 0.73064 0.0
C1614 C 0.30825 0.20062 0.85131 0.0
C1615 C 0.30875 0.20928 0.83419 0.0
C1616 C 0.33624 0.23542 0.79645 0.0
C1617 C 0.3284 0.25912 0.75873 0.0
C1618 C 0.32601 0.24681 0.77328 0.0
C1619 C 0.31932 0.21263 0.81799 0.0
C1620 C 0.32155 0.22384 0.80169 0.0
H1621 H 0.31284 0.28047 0.74557 0.0
H1622 H 0.30927 0.26076 0.77007 0.0
H1623 H 0.34992 0.25578 0.77934 0.0
H1624 H 0.33591 0.19336 0.83621 0.0
H1625 H 0.33676 0.20847 0.80616 0.0
C1626 C 0.72416 0.05574 0.7308 0.0
C1627 C 0.71901 0.06302 0.71744 0.0
C1628 C 0.73504 0.06392 0.74611 0.0
C1629 C 0.7525 0.09956 0.77635 0.0
H1630 H 0.78525 0.09146 0.78386 0.0
C1631 C 0.80188 0.13454 0.83366 0.0
C1632 C 0.80558 0.12596 0.84676 0.0
C1633 C 0.79242 0.12782 0.81633 0.0
C1634 C 0.77614 0.09381 0.78205 0.0
H1635 H 0.72104 0.08458 0.71011 0.0
H1636 H 0.73995 0.09875 0.73673 0.0
H1637 H 0.76584 0.07736 0.75768 0.0
H1638 H 0.80306 0.10393 0.85141 0.0
H1639 H 0.78656 0.09222 0.82151 0.0
H1640 H 0.76269 0.11587 0.80093 0.0
C1641 C 0.73554 0.08672 0.73545 0.0
C1642 C 0.76498 0.08568 0.76709 0.0
C1643 C 0.72472 0.07858 0.72012 0.0
C1644 C 0.80026 0.11078 0.84168 0.0
C1645 C 0.7909 0.1041 0.82441 0.0
C1646 C 0.76365 0.10767 0.79136 0.0
C1647 C 0.74097 0.07954 0.74847 0.0
C1648 C 0.75295 0.08836 0.76419 0.0
C1649 C 0.78662 0.11244 0.81173 0.0
C1650 C 0.77552 0.10478 0.79454 0.0
H1651 H 0.72002 0.04378 0.7292 0.0
H1652 H 0.73883 0.058 0.75611 0.0
H1653 H 0.74331 0.10181 0.77464 0.0
H1654 H 0.8058 0.14626 0.83726 0.0
H1655 H 0.78948 0.1346 0.80671 0.0
C1656 C 0.03647 0.33407 0.03211 0.0
C1657 C 0.03935 0.34772 0.02307 0.0
C1658 C 0.04834 0.33145 0.0362 0.0
C1659 C 0.08852 0.35125 0.04892 0.0
H1660 H 0.08481 0.31229 0.0391 0.0
C1661 C 0.13178 0.33745 0.08438 0.0
C1662 C 0.12507 0.32343 0.09455 0.0
C1663 C 0.12333 0.3407 0.07031 0.0
C1664 C 0.08604 0.32323 0.04204 0.0
H1665 H 0.05695 0.36924 0.01094 0.0
H1666 H 0.07778 0.36475 0.01851 0.0
H1667 H 0.06575 0.31743 0.02516 0.0
H1668 H 0.10476 0.30148 0.09693 0.0
H1669 H 0.09006 0.30705 0.07278 0.0
H1670 H 0.10829 0.35682 0.06679 0.0
C1671 C 0.06629 0.35606 0.02228 0.0
C1672 C 0.07511 0.32617 0.03399 0.0
C1673 C 0.05436 0.35859 0.01787 0.0
C1674 C 0.11021 0.31237 0.08924 0.0
C1675 C 0.1018 0.31558 0.07528 0.0
C1676 C 0.09936 0.34826 0.05719 0.0
C1677 C 0.06341 0.34249 0.03163 0.0
C1678 C 0.07603 0.34008 0.03777 0.0
C1679 C 0.10803 0.32997 0.06617 0.0
C1680 C 0.09804 0.33405 0.05436 0.0
H1681 H 0.02504 0.32545 0.03628 0.0
H1682 H 0.04577 0.32095 0.04362 0.0
H1683 H 0.08948 0.36205 0.05222 0.0
H1684 H 0.14319 0.3462 0.08832 0.0
H1685 H 0.1286 0.35181 0.06333 0.0
C1686 C 0.65831 0.69743 0.03179 0.0
C1687 C 0.64878 0.69141 0.01435 0.0
C1688 C 0.66317 0.71217 0.03854 0.0
C1689 C 0.65363 0.74264 0.03287 0.0
H1690 H 0.69044 0.76532 0.06502 0.0
C1691 C 0.66288 0.7909 0.08767 0.0
C1692 C 0.67758 0.80194 0.09346 0.0
C1693 C 0.66056 0.77935 0.07389 0.0
C1694 C 0.68027 0.75937 0.05569 0.0
H1695 H 0.63756 0.69632 0.98959 0.0
H1696 H 0.6467 0.72219 0.00046 0.0
H1697 H 0.68489 0.74175 0.04873 0.0
H1698 H 0.70143 0.81018 0.08879 0.0
H1699 H 0.69751 0.79054 0.06357 0.0
H1700 H 0.64933 0.76056 0.03903 0.0
C1701 C 0.64989 0.71543 0.00968 0.0
C1702 C 0.6769 0.74559 0.04667 0.0
C1703 C 0.64471 0.70059 0.0033 0.0
C1704 C 0.68999 0.80188 0.08422 0.0
C1705 C 0.68769 0.79045 0.0701 0.0
C1706 C 0.65716 0.75657 0.04148 0.0
C1707 C 0.65894 0.72138 0.02768 0.0
C1708 C 0.66332 0.7368 0.03559 0.0
C1709 C 0.67292 0.77865 0.06541 0.0
C1710 C 0.67031 0.76495 0.05356 0.0
H1711 H 0.66156 0.69057 0.04066 0.0
H1712 H 0.66988 0.71612 0.05266 0.0
H1713 H 0.64297 0.73627 0.02469 0.0
H1714 H 0.65316 0.79056 0.09506 0.0
H1715 H 0.64901 0.77045 0.0711 0.0
C1716 C 0.30057 0.94124 0.01789 0.0
C1717 C 0.30798 0.95708 0.01898 0.0
C1718 C 0.28527 0.9324 0.02324 0.0
C1719 C 0.25565 0.93336 0.05463 0.0
H1720 H 0.2288 0.89666 0.0242 0.0
C1721 C 0.19635 0.89444 0.08612 0.0
C1722 C 0.19281 0.87942 0.08823 0.0
C1723 C 0.20794 0.90423 0.07261 0.0
C1724 C 0.23615 0.90687 0.03285 0.0
H1725 H 0.30498 0.97602 0.02641 0.0
H1726 H 0.27826 0.96056 0.03578 0.0
H1727 H 0.2545 0.91344 0.0112 0.0
H1728 H 0.19756 0.86243 0.07673 0.0
H1729 H 0.21793 0.8795 0.05328 0.0
H1730 H 0.23766 0.92664 0.07669 0.0
C1731 C 0.28435 0.955 0.0309 0.0
C1732 C 0.25088 0.91646 0.02544 0.0
C1733 C 0.29967 0.96386 0.02551 0.0
C1734 C 0.19998 0.87394 0.07513 0.0
C1735 C 0.2117 0.88376 0.06176 0.0
C1736 C 0.24098 0.92378 0.06205 0.0
C1737 C 0.27698 0.93916 0.02984 0.0
C1738 C 0.26089 0.92967 0.03648 0.0
C1739 C 0.21635 0.89921 0.06122 0.0
C1740 C 0.23111 0.91028 0.05147 0.0
H1741 H 0.30659 0.93563 0.01291 0.0
H1742 H 0.28 0.92024 0.02259 0.0
H1743 H 0.26311 0.94332 0.06368 0.0
H1744 H 0.19097 0.8989 0.09615 0.0
H1745 H 0.21097 0.91596 0.07217 0.0
C1746 C 0.35205 0.05281 0.00169 0.0
C1747 C 0.3418 0.03742 -0.0019 0.0
C1748 C 0.3479 0.0636 -0.00253 0.0
C1749 C 0.32083 0.06809 0.96467 0.0
H1750 H 0.33613 0.1059 0.99469 0.0
C1751 C 0.30748 0.11165 0.934 0.0
C1752 C 0.32039 0.12587 0.93081 0.0
C1753 C 0.30799 0.10134 0.94764 0.0
C1754 C 0.33174 0.09537 0.9862 0.0
H1755 H 0.31888 0.02116 0.9886 0.0
H1756 H 0.31151 0.03981 0.98189 0.0
H1757 H 0.34121 0.08659 0.00799 0.0
H1758 H 0.34354 0.14098 0.9403 0.0
H1759 H 0.34453 0.12294 0.96412 0.0
H1760 H 0.31169 0.07685 0.94265 0.0
C1761 C 0.32291 0.04368 0.98727 0.0
C1762 C 0.3347 0.08433 0.99376 0.0
C1763 C 0.32711 0.03296 0.99122 0.0
C1764 C 0.33337 0.13015 0.94284 0.0
C1765 C 0.33393 0.11978 0.95641 0.0
C1766 C 0.31782 0.07903 0.95723 0.0
C1767 C 0.33336 0.05918 0.98979 0.0
C1768 C 0.32942 0.07061 0.98292 0.0
C1769 C 0.3215 0.10498 0.95806 0.0
C1770 C 0.32336 0.09287 0.96773 0.0
H1771 H 0.36345 0.05658 0.007 0.0
H1772 H 0.3563 0.07541 -0.00057 0.0
H1773 H 0.31688 0.05787 0.95558 0.0
H1774 H 0.29741 0.1081 0.92468 0.0
H1775 H 0.29812 0.09014 0.9489 0.0
C1776 C 0.93982 0.30472 -0.00126 0.0
C1777 C 0.95559 0.31089 0.00012 0.0
C1778 C 0.93042 0.28998 0.99155 0.0
C1779 C 0.93137 0.25996 0.96052 0.0
H1780 H 0.89082 0.23493 0.98296 0.0
C1781 C 0.89344 0.20023 0.92921 0.0
C1782 C 0.87895 0.19688 0.9229 0.0
C1783 C 0.90216 0.21251 0.94232 0.0
C1784 C 0.9021 0.2418 0.97652 0.0
H1785 H 0.97378 0.3062 0.99531 0.0
H1786 H 0.95736 0.28038 0.9831 0.0
H1787 H 0.90764 0.25973 -0.00168 0.0
H1788 H 0.86177 0.20306 0.92636 0.0
H1789 H 0.877 0.2246 0.94948 0.0
H1790 H 0.92584 0.24214 0.93864 0.0
C1791 C 0.95227 0.28706 0.98722 0.0
C1792 C 0.91174 0.25605 0.98526 0.0
C1793 C 0.9617 0.30186 0.99431 0.0
C1794 C 0.87283 0.2053 0.93127 0.0
C1795 C 0.8816 0.21766 0.94441 0.0
C1796 C 0.92179 0.24572 0.9519 0.0
C1797 C 0.9365 0.28093 0.98564 0.0
C1798 C 0.92647 0.26539 0.97723 0.0
C1799 C 0.89662 0.22179 0.94931 0.0
C1800 C 0.90699 0.23649 0.95967 0.0
H1801 H 0.93469 0.31134 0.00299 0.0
H1802 H 0.9184 0.2858 0.99021 0.0
H1803 H 0.94249 0.26689 0.95362 0.0
H1804 H 0.89841 0.19392 0.92287 0.0
H1805 H 0.91355 0.21518 0.94616 0.0
C1806 C 0.69885 0.644 0.00904 0.0
C1807 C 0.69448 0.65319 -0.00143 0.0
C1808 C 0.71312 0.64566 0.00536 0.0
C1809 C 0.75101 0.67146 0.98179 0.0
H1810 H 0.75092 0.63452 0.96908 0.0
C1811 C 0.78374 0.65289 0.92187 0.0
C1812 C 0.79857 0.66509 0.92398 0.0
C1813 C 0.77276 0.65023 0.93696 0.0
C1814 C 0.75118 0.64494 0.97274 0.0
H1815 H 0.70189 0.67171 0.97667 0.0
H1816 H 0.7266 0.67453 0.97017 0.0
H1817 H 0.72833 0.6332 0.98403 0.0
H1818 H 0.81394 0.68345 0.94407 0.0
H1819 H 0.79473 0.67875 0.97078 0.0
H1820 H 0.77349 0.68319 0.96927 0.0
C1821 C 0.71912 0.66613 0.98138 0.0
C1822 C 0.73827 0.64419 0.98149 0.0
C1823 C 0.70488 0.66443 0.98498 0.0
C1824 C 0.80258 0.6739 0.94223 0.0
C1825 C 0.79155 0.6713 0.95735 0.0
C1826 C 0.76391 0.67221 0.97304 0.0
C1827 C 0.72334 0.6566 0.99124 0.0
C1828 C 0.73785 0.65744 0.98543 0.0
C1829 C 0.77638 0.65979 0.95446 0.0
C1830 C 0.76397 0.65895 0.96773 0.0
H1831 H 0.69111 0.63525 0.01965 0.0
H1832 H 0.71607 0.63823 0.01335 0.0
H1833 H 0.75115 0.68188 0.98498 0.0
H1834 H 0.78039 0.64602 0.90782 0.0
H1835 H 0.76121 0.64138 0.93406 0.0
C1836 C 0.93829 0.63815 0.01119 0.0
C1837 C 0.95384 0.64655 0.00635 0.0
C1838 C 0.92848 0.64309 0.00485 0.0
C1839 C 0.92728 0.67645 0.98512 0.0
H1840 H 0.88946 0.64616 0.96018 0.0
C1841 C 0.8936 0.68982 0.9258 0.0
C1842 C 0.87786 0.68009 0.92417 0.0
C1843 C 0.90196 0.68717 0.94062 0.0
C1844 C 0.89979 0.65475 0.96752 0.0
H1845 H 0.97129 0.66698 0.99143 0.0
H1846 H 0.95414 0.67549 0.9801 0.0
H1847 H 0.90598 0.63857 0.97629 0.0
H1848 H 0.85834 0.6608 0.93803 0.0
H1849 H 0.8729 0.65633 0.96434 0.0
H1850 H 0.92121 0.69268 0.97575 0.0
C1851 C 0.94956 0.66515 0.98905 0.0
C1852 C 0.90932 0.65039 0.97672 0.0
C1853 C 0.95939 0.66021 0.99542 0.0
C1854 C 0.87046 0.6685 0.93896 0.0
C1855 C 0.87883 0.66583 0.95382 0.0
C1856 C 0.91771 0.68082 0.97592 0.0
C1857 C 0.93395 0.65656 0.99347 0.0
C1858 C 0.92331 0.6612 0.98531 0.0
C1859 C 0.89476 0.67473 0.95419 0.0
C1860 C 0.90397 0.67005 0.96665 0.0
H1861 H 0.93361 0.62763 0.01973 0.0
H1862 H 0.91657 0.6363 0.00879 0.0
H1863 H 0.93785 0.68504 0.9919 0.0
H1864 H 0.89958 0.6989 0.91466 0.0
H1865 H 0.91419 0.69424 0.94035 0.0
C1866 C 0.35955 0.30657 0.00491 0.0
C1867 C 0.34818 0.30971 -0.00078 0.0
C1868 C 0.35752 0.29218 0.0016 0.0
C1869 C 0.32849 0.25233 0.99137 0.0
H1870 H 0.35978 0.25125 0.95834 0.0
C1871 C 0.31603 0.20483 0.93404 0.0
C1872 C 0.32727 0.20141 0.92876 0.0
C1873 C 0.3189 0.21604 0.9487 0.0
C1874 C 0.35107 0.25123 0.96803 0.0
H1875 H 0.32556 0.30008 0.98644 0.0
H1876 H 0.32197 0.27502 0.98091 0.0
H1877 H 0.36433 0.27512 0.97287 0.0
H1878 H 0.34995 0.2062 0.93565 0.0
H1879 H 0.355 0.2258 0.96172 0.0
H1880 H 0.31505 0.22854 0.9861 0.0
C1881 C 0.33244 0.28364 0.98791 0.0
C1882 C 0.35368 0.26496 0.9763 0.0
C1883 C 0.33454 0.29804 0.99093 0.0
C1884 C 0.34109 0.20862 0.93955 0.0
C1885 C 0.34401 0.21993 0.95427 0.0
C1886 C 0.32592 0.23859 0.98327 0.0
C1887 C 0.34399 0.28061 0.99287 0.0
C1888 C 0.34221 0.26574 0.98741 0.0
C1889 C 0.33312 0.22413 0.95847 0.0
C1890 C 0.33696 0.23795 0.97081 0.0
H1891 H 0.37018 0.31534 0.01132 0.0
H1892 H 0.36659 0.29015 0.00564 0.0
H1893 H 0.31954 0.25256 0.00018 0.0
H1894 H 0.30528 0.19941 0.9259 0.0
H1895 H 0.31028 0.21902 0.95127 0.0
C1896 C 0.70617 0.03891 0.0031 0.0
C1897 C 0.69567 0.0436 -0.0005 0.0
C1898 C 0.72154 0.04845 -0.00173 0.0
C1899 C 0.74946 0.08859 0.98239 0.0
H1900 H 0.77298 0.07087 0.96357 0.0
C1901 C 0.80608 0.12609 0.94095 0.0
C1902 C 0.80837 0.11956 0.92301 0.0
C1903 C 0.79535 0.11698 0.95606 0.0
C1904 C 0.76658 0.07609 0.96855 0.0
H1905 H 0.69288 0.0617 0.98754 0.0
H1906 H 0.71921 0.0778 0.97774 0.0
H1907 H 0.74759 0.05471 0.97674 0.0
H1908 H 0.80274 0.09838 0.90817 0.0
H1909 H 0.7837 0.08269 0.93342 0.0
H1910 H 0.76778 0.10975 0.97227 0.0
C1911 C 0.71599 0.06719 0.98531 0.0
C1912 C 0.75198 0.06675 0.97656 0.0
C1913 C 0.70076 0.05785 0.99068 0.0
C1914 C 0.80098 0.10375 0.92165 0.0
C1915 C 0.79009 0.0947 0.93641 0.0
C1916 C 0.76386 0.09785 0.97379 0.0
C1917 C 0.72671 0.06275 0.98919 0.0
C1918 C 0.74298 0.0728 0.98302 0.0
C1919 C 0.78652 0.10118 0.95334 0.0
C1920 C 0.7725 0.09171 0.96611 0.0
H1921 H 0.70256 0.02802 0.01009 0.0
H1922 H 0.72935 0.04461 0.00189 0.0
H1923 H 0.74326 0.09387 0.98795 0.0
H1924 H 0.8117 0.13824 0.94252 0.0
H1925 H 0.79343 0.12244 0.96926 0.0
C1926 C 0.64626 0.94567 0.00753 0.0
C1927 C 0.65548 0.95967 0.01736 0.0
C1928 C 0.64779 0.93321 0.01232 0.0
C1929 C 0.67359 0.92234 0.0376 0.0
H1930 H 0.63654 0.88509 0.0508 0.0
C1931 C 0.65474 0.87085 0.09764 0.0
C1932 C 0.66692 0.86833 0.09539 0.0
C1933 C 0.65224 0.87928 0.0828 0.0
C1934 C 0.647 0.89537 0.04705 0.0
H1935 H 0.67389 0.97167 0.03935 0.0
H1936 H 0.6765 0.95006 0.04772 0.0
H1937 H 0.63518 0.90596 0.03508 0.0
H1938 H 0.68547 0.87177 0.0753 0.0
H1939 H 0.68103 0.88646 0.04906 0.0
H1940 H 0.6854 0.9121 0.05064 0.0
C1941 C 0.66817 0.94867 0.03619 0.0
C1942 C 0.64622 0.9073 0.03786 0.0
C1943 C 0.66659 0.96106 0.0315 0.0
C1944 C 0.67592 0.87345 0.07726 0.0
C1945 C 0.67347 0.88201 0.06241 0.0
C1946 C 0.67436 0.91041 0.04676 0.0
C1947 C 0.65865 0.93452 0.02691 0.0
C1948 C 0.6595 0.9211 0.03362 0.0
C1949 C 0.66194 0.88548 0.06542 0.0
C1950 C 0.66107 0.89694 0.0522 0.0
H1951 H 0.6376 0.94423 -0.00345 0.0
H1952 H 0.64036 0.92251 0.00477 0.0
H1953 H 0.68404 0.93272 0.03424 0.0
H1954 H 0.64773 0.86709 0.1116 0.0
H1955 H 0.64335 0.88182 0.0858 0.0
C1956 C 0.05279 0.6981 0.00718 0.0
C1957 C 0.03813 0.69409 0.01395 0.0
C1958 C 0.065 0.71273 0.01052 0.0
C1959 C 0.0749 0.75185 0.02302 0.0
H1960 H 0.10816 0.75387 0.05445 0.0
C1961 C 0.10929 0.79867 0.08179 0.0
C1962 C 0.12417 0.80258 0.08682 0.0
C1963 C 0.10115 0.78767 0.06673 0.0
C1964 C 0.09923 0.75366 0.0452 0.0
H1965 H 0.02465 0.70245 0.02857 0.0
H1966 H 0.04584 0.72796 0.03404 0.0
H1967 H 0.08913 0.72997 0.0392 0.0
H1968 H 0.14263 0.79889 0.07909 0.0
H1969 H 0.12845 0.7797 0.05228 0.0
H1970 H 0.08473 0.77542 0.02941 0.0
C1971 C 0.04794 0.71982 0.02624 0.0
C1972 C 0.08827 0.7399 0.03651 0.0
C1973 C 0.03581 0.70518 0.02322 0.0
C1974 C 0.13119 0.7961 0.07539 0.0
C1975 C 0.123 0.78501 0.06025 0.0
C1976 C 0.08593 0.76563 0.0315 0.0
C1977 C 0.06271 0.72369 0.02031 0.0
C1978 C 0.07569 0.73874 0.02601 0.0
C1979 C 0.10769 0.78028 0.05628 0.0
C1980 C 0.09791 0.76659 0.04343 0.0
H1981 H 0.05493 0.68979 3e-05 0.0
H1982 H 0.07626 0.71542 0.00574 0.0
H1983 H 0.06545 0.75133 0.0147 0.0
H1984 H 0.10365 0.80352 0.09043 0.0
H1985 H 0.08938 0.78428 0.06438 0.0
C1986 C 0.2978 0.35512 0.00133 0.0
C1987 C 0.30751 0.35233 0.01343 0.0
C1988 C 0.28265 0.34912 0.0071 0.0
C1989 C 0.25293 0.32229 0.04483 0.0
H1990 H 0.23577 0.34762 0.03408 0.0
C1991 C 0.20658 0.33527 0.08431 0.0
C1992 C 0.19622 0.32078 0.09157 0.0
C1993 C 0.21786 0.33744 0.07002 0.0
C1994 C 0.24038 0.34042 0.03737 0.0
H1995 H 0.30904 0.34094 0.0409 0.0
H1996 H 0.28289 0.33125 0.05189 0.0
H1997 H 0.26044 0.3547 0.02005 0.0
H1998 H 0.18875 0.29706 0.08889 0.0
H1999 H 0.20786 0.30063 0.06278 0.0
H2000 H 0.23347 0.30879 0.0638 0.0
C2001 C 0.28668 0.33755 0.03742 0.0
C2002 C 0.25452 0.34435 0.02896 0.0
C2003 C 0.30175 0.34321 0.03126 0.0
C2004 C 0.19654 0.30832 0.0832 0.0
C2005 C 0.20767 0.31044 0.06856 0.0
C2006 C 0.23894 0.31856 0.05368 0.0
C2007 C 0.27692 0.34055 0.02553 0.0
C2008 C 0.26118 0.33552 0.03289 0.0
C2009 C 0.21892 0.32511 0.0625 0.0
C2010 C 0.23261 0.32777 0.05048 0.0
H2011 H 0.30192 0.36193 0.98728 0.0
H2012 H 0.2755 0.35135 -0.00288 0.0
H2013 H 0.2574 0.31494 0.04781 0.0
H2014 H 0.2067 0.34504 0.09099 0.0
H2015 H 0.22635 0.34893 0.06613 0.0
C2016 C 0.71906 0.68715 0.34242 0.0
C2017 C 0.70604 0.67986 0.35512 0.0
C2018 C 0.73138 0.68505 0.34587 0.0
C2019 C 0.74281 0.66072 0.3746 0.0
H2020 H 0.7826 0.69675 0.3743 0.0
C2021 C 0.80082 0.68422 0.423 0.0
C2022 C 0.80131 0.67087 0.42484 0.0
C2023 C 0.79138 0.68534 0.40833 0.0
C2024 C 0.77159 0.68654 0.3744 0.0
H2025 H 0.6956 0.66431 0.381 0.0
H2026 H 0.71701 0.66086 0.38724 0.0
H2027 H 0.76094 0.69793 0.36125 0.0
H2028 H 0.79334 0.6487 0.41165 0.0
H2029 H 0.77705 0.65074 0.38547 0.0
H2030 H 0.75323 0.64958 0.38908 0.0
C2031 C 0.71771 0.66801 0.37436 0.0
C2032 C 0.75915 0.68718 0.36668 0.0
C2033 C 0.70543 0.67008 0.37089 0.0
C2034 C 0.79324 0.65916 0.41043 0.0
C2035 C 0.78375 0.66027 0.39567 0.0
C2036 C 0.75522 0.6601 0.38244 0.0
C2037 C 0.73095 0.67561 0.36211 0.0
C2038 C 0.7445 0.67439 0.3673 0.0
C2039 C 0.78217 0.67311 0.3951 0.0
C2040 C 0.76971 0.67313 0.38307 0.0
H2041 H 0.71988 0.69473 0.33009 0.0
H2042 H 0.74129 0.69094 0.33594 0.0
H2043 H 0.73177 0.65055 0.37491 0.0
H2044 H 0.80687 0.69336 0.43405 0.0
H2045 H 0.79045 0.69536 0.40859 0.0
C2046 C 0.30531 0.02931 0.35979 0.0
C2047 C 0.31475 0.02459 0.35078 0.0
C2048 C 0.31113 0.04434 0.36575 0.0
C2049 C 0.34754 0.08009 0.37642 0.0
H2050 H 0.32023 0.09575 0.37899 0.0
C2051 C 0.35764 0.12799 0.43181 0.0
C2052 C 0.34969 0.1357 0.42929 0.0
C2053 C 0.35625 0.11726 0.4172 0.0
C2054 C 0.32824 0.09184 0.37797 0.0
H2055 H 0.33766 0.03195 0.34059 0.0
H2056 H 0.34775 0.05837 0.35002 0.0
H2057 H 0.31188 0.07149 0.36296 0.0
H2058 H 0.33564 0.13965 0.40812 0.0
H2059 H 0.33392 0.12154 0.38178 0.0
H2060 H 0.36415 0.10078 0.39052 0.0
C2061 C 0.33593 0.05041 0.35321 0.0
C2062 C 0.32327 0.07763 0.36915 0.0
C2063 C 0.33015 0.03525 0.3477 0.0
C2064 C 0.34181 0.1338 0.41055 0.0
C2065 C 0.34062 0.12319 0.39565 0.0
C2066 C 0.35265 0.09448 0.38476 0.0
C2067 C 0.3265 0.0552 0.36237 0.0
C2068 C 0.33261 0.07124 0.36904 0.0
C2069 C 0.34711 0.11414 0.39935 0.0
C2070 C 0.34287 0.10033 0.3865 0.0
H2071 H 0.29342 0.02132 0.36256 0.0
H2072 H 0.30353 0.04731 0.37333 0.0
H2073 H 0.35517 0.07571 0.37667 0.0
H2074 H 0.36401 0.12941 0.44598 0.0
H2075 H 0.36145 0.11065 0.4209 0.0
C2076 C 0.97125 0.2955 0.36797 0.0
C2077 C 0.97759 0.29278 0.35017 0.0
C2078 C 0.95602 0.28568 0.37316 0.0
C2079 C 0.92419 0.24667 0.36129 0.0
H2080 H 0.90186 0.25967 0.3961 0.0
C2081 C 0.874 0.20527 0.41175 0.0
C2082 C 0.86347 0.20913 0.41897 0.0
C2083 C 0.8858 0.21498 0.39851 0.0
C2084 C 0.90771 0.2558 0.38596 0.0
H2085 H 0.97289 0.27835 0.32311 0.0
H2086 H 0.94624 0.26187 0.33123 0.0
H2087 H 0.92641 0.27824 0.38235 0.0
H2088 H 0.85626 0.22553 0.41718 0.0
H2089 H 0.87633 0.24217 0.39284 0.0
H2090 H 0.90522 0.22434 0.36408 0.0
C2091 C 0.95303 0.27099 0.34195 0.0
C2092 C 0.92205 0.2665 0.37842 0.0
C2093 C 0.96832 0.28052 0.33716 0.0
C2094 C 0.86417 0.22226 0.41147 0.0
C2095 C 0.87584 0.23189 0.39788 0.0
C2096 C 0.90972 0.23604 0.36838 0.0
C2097 C 0.94669 0.27317 0.36031 0.0
C2098 C 0.93072 0.26205 0.36649 0.0
C2099 C 0.88726 0.22875 0.39203 0.0
C2100 C 0.90146 0.24036 0.38142 0.0
H2101 H 0.97821 0.30488 0.37827 0.0
H2102 H 0.95176 0.28768 0.38761 0.0
H2103 H 0.93042 0.24261 0.35236 0.0
H2104 H 0.87384 0.19536 0.4178 0.0
H2105 H 0.89439 0.21216 0.39476 0.0
C2106 C 0.00139 0.37278 0.32878 0.0
C2107 C 0.01601 0.37596 0.334 0.0
C2108 C -0.00135 0.38444 0.32413 0.0
C2109 C 0.01571 0.42643 0.32475 0.0
H2110 H 0.98855 0.41753 0.27788 0.0
C2111 C 0.01379 0.47057 0.26982 0.0
C2112 C -0.00043 0.46681 0.26178 0.0
C2113 C 0.01512 0.4607 0.28356 0.0
C2114 C 0.99596 0.42017 0.29123 0.0
H2115 H 0.03915 0.39386 0.33921 0.0
H2116 H 0.03454 0.41424 0.33026 0.0
H2117 H 0.99218 0.39782 0.29202 0.0
H2118 H 0.97554 0.45064 0.26283 0.0
H2119 H 0.97775 0.4336 0.28714 0.0
H2120 H 0.01994 0.44913 0.32302 0.0
C2121 C 0.02507 0.40277 0.33023 0.0
C2122 C 0.99804 0.40881 0.29943 0.0
C2123 C 0.02775 0.39108 0.33527 0.0
C2124 C 0.98659 0.45378 0.26899 0.0
C2125 C 0.9879 0.44398 0.28271 0.0
C2126 C 0.01373 0.4379 0.31635 0.0
C2127 C 0.01054 0.39957 0.32412 0.0
C2128 C 0.00795 0.41174 0.31628 0.0
C2129 C 0.00223 0.44696 0.28931 0.0
C2130 C 0.00382 0.43486 0.29948 0.0
H2131 H 0.99207 0.36123 0.32797 0.0
H2132 H 0.98722 0.38152 0.32011 0.0
H2133 H 0.02332 0.42909 0.33785 0.0
H2134 H 0.02395 0.48046 0.26418 0.0
H2135 H 0.02631 0.46327 0.28832 0.0
C2136 C 0.62503 0.63712 0.32628 0.0
C2137 C 0.62074 0.64497 0.34013 0.0
C2138 C 0.61424 0.62283 0.31872 0.0
C2139 C 0.57282 0.59911 0.31046 0.0
H2140 H 0.58249 0.56809 0.29744 0.0
C2141 C 0.539 0.55161 0.25132 0.0
C2142 C 0.53767 0.53746 0.25412 0.0
C2143 C 0.54733 0.56336 0.26537 0.0
C2144 C 0.57949 0.57651 0.3013 0.0
H2145 H 0.60187 0.64359 0.35767 0.0
H2146 H 0.58326 0.61869 0.34492 0.0
H2147 H 0.60112 0.59107 0.31529 0.0
H2148 H 0.54339 0.5242 0.27416 0.0
H2149 H 0.55787 0.54476 0.29916 0.0
H2150 H 0.55121 0.58459 0.29653 0.0
C2151 C 0.59483 0.62369 0.3394 0.0
C2152 C 0.59028 0.58981 0.31126 0.0
C2153 C 0.60556 0.63797 0.34681 0.0
C2154 C 0.54411 0.53498 0.27189 0.0
C2155 C 0.55255 0.5468 0.28598 0.0
C2156 C 0.56205 0.58583 0.30058 0.0
C2157 C 0.59894 0.61602 0.32495 0.0
C2158 C 0.58718 0.60139 0.31567 0.0
C2159 C 0.55463 0.56126 0.28253 0.0
C2160 C 0.56533 0.57447 0.29549 0.0
H2161 H 0.63662 0.64219 0.3208 0.0
H2162 H 0.61781 0.61735 0.30745 0.0
H2163 H 0.57003 0.6078 0.31338 0.0
H2164 H 0.5343 0.55382 0.23754 0.0
H2165 H 0.54881 0.57434 0.26203 0.0
C2166 C 0.36307 0.97501 0.33507 0.0
C2167 C 0.3597 0.98619 0.32949 0.0
C2168 C 0.37746 0.97706 0.33108 0.0
C2169 C 0.41715 0.00582 0.31945 0.0
H2170 H 0.41762 0.97476 0.28542 0.0
C2171 C 0.46431 0.01846 0.26092 0.0
C2172 C 0.4674 0.00717 0.2548 0.0
C2173 C 0.45323 0.01553 0.27593 0.0
C2174 C 0.41782 0.9834 0.29538 0.0
H2175 H 0.36891 0.00854 0.31618 0.0
H2176 H 0.39404 0.0122 0.30951 0.0
H2177 H 0.3939 0.97026 0.30087 0.0
H2178 H 0.4622 0.98431 0.26067 0.0
H2179 H 0.44291 0.97918 0.28742 0.0
H2180 H 0.44099 0.01911 0.31367 0.0
C2181 C 0.38557 0.00184 0.31692 0.0
C2182 C 0.40418 0.98083 0.30417 0.0
C2183 C 0.37115 -0.0003 0.3206 0.0
C2184 C 0.46004 0.99322 0.26517 0.0
C2185 C 0.44889 0.99025 0.28029 0.0
C2186 C 0.43083 0.00834 0.31088 0.0
C2187 C 0.3888 0.99045 0.32178 0.0
C2188 C 0.40362 0.99221 0.31565 0.0
C2189 C 0.44496 0.00121 0.28528 0.0
C2190 C 0.43124 0.99739 0.29804 0.0
H2191 H 0.35447 0.96447 0.34193 0.0
H2192 H 0.37967 0.96812 0.33503 0.0
H2193 H 0.41708 0.01471 0.32853 0.0
H2194 H 0.46989 0.02934 0.25318 0.0
H2195 H 0.45048 0.02422 0.2791 0.0
C2196 C 0.62345 0.98683 0.3189 0.0
C2197 C 0.61939 0.97578 0.33442 0.0
C2198 C 0.61302 0.99092 0.31213 0.0
C2199 C 0.57146 0.97625 0.31177 0.0
H2200 H 0.58406 0.01575 0.28887 0.0
C2201 C 0.53505 0.98605 0.25369 0.0
C2202 C 0.53623 0.00022 0.2523 0.0
C2203 C 0.54384 0.9836 0.26792 0.0
C2204 C 0.58026 0.00474 0.29558 0.0
H2205 H 0.60155 0.96101 0.35589 0.0
H2206 H 0.58371 0.96856 0.34487 0.0
H2207 H 0.60263 0.01122 0.3058 0.0
H2208 H 0.54693 0.02275 0.26523 0.0
H2209 H 0.56213 0.01839 0.29082 0.0
H2210 H 0.54907 0.96985 0.30198 0.0
C2211 C 0.59466 0.97366 0.33719 0.0
C2212 C 0.591 0.00205 0.30497 0.0
C2213 C 0.60494 0.96938 0.34363 0.0
C2214 C 0.5457 0.01167 0.26628 0.0
C2215 C 0.55454 0.00921 0.28066 0.0
C2216 C 0.56072 0.97899 0.30266 0.0
C2217 C 0.5984 0.98425 0.32102 0.0
C2218 C 0.58682 0.98765 0.31276 0.0
C2219 C 0.55406 0.99527 0.28118 0.0
C2220 C 0.56503 0.99314 0.29389 0.0
H2221 H 0.63449 0.99194 0.31149 0.0
H2222 H 0.61631 0.99896 0.29946 0.0
H2223 H 0.56772 0.96496 0.31733 0.0
H2224 H 0.52798 0.97714 0.2428 0.0
H2225 H 0.54328 0.9728 0.26753 0.0
C2226 C -0.00156 0.63275 0.32025 0.0
C2227 C 0.01065 0.64309 0.33263 0.0
C2228 C 0.99578 0.61817 0.31694 0.0
C2229 C 0.01595 0.59729 0.31494 0.0
H2230 H 0.97543 0.56285 0.30831 0.0
C2231 C 0.00726 0.54265 0.27758 0.0
C2232 C 0.99714 0.53796 0.26071 0.0
C2233 C 0.00738 0.55276 0.29247 0.0
C2234 C 0.98683 0.57233 0.31018 0.0
H2235 H 0.02938 0.64607 0.35181 0.0
H2236 H 0.02476 0.62054 0.34595 0.0
H2237 H 0.97883 0.58634 0.3229 0.0
H2238 H 0.9785 0.53909 0.24691 0.0
H2239 H 0.97856 0.55654 0.2728 0.0
H2240 H 0.02394 0.58356 0.30135 0.0
C2241 C 0.01729 0.62378 0.33872 0.0
C2242 C 0.98877 0.5858 0.3185 0.0
C2243 C 0.0199 0.63837 0.34214 0.0
C2244 C 0.98633 0.54249 0.25991 0.0
C2245 C 0.98638 0.55248 0.27479 0.0
C2246 C 0.014 0.58383 0.30659 0.0
C2247 C 0.00531 0.61357 0.32586 0.0
C2248 C 0.00333 0.59859 0.32034 0.0
C2249 C 0.99732 0.55825 0.29074 0.0
C2250 C -0.00061 0.57134 0.30346 0.0
H2251 H 0.99107 0.63601 0.31272 0.0
H2252 H 0.98659 0.6107 0.3067 0.0
H2253 H 0.02731 0.60695 0.31597 0.0
H2254 H 0.01579 0.5394 0.27838 0.0
H2255 H 0.01582 0.55685 0.30473 0.0
C2256 C 0.36503 0.37126 0.31715 0.0
C2257 C 0.35902 0.37423 0.3351 0.0
C2258 C 0.37989 0.38145 0.31065 0.0
C2259 C 0.4107 0.42161 0.31847 0.0
H2260 H 0.4334 0.40869 0.28432 0.0
C2261 C 0.45957 0.46265 0.2652 0.0
C2262 C 0.47053 0.4592 0.25861 0.0
C2263 C 0.44792 0.45299 0.27873 0.0
C2264 C 0.42745 0.41257 0.29421 0.0
H2265 H 0.36406 0.38969 0.36102 0.0
H2266 H 0.3901 0.40693 0.35054 0.0
H2267 H 0.4096 0.38996 0.29987 0.0
H2268 H 0.47856 0.44351 0.2617 0.0
H2269 H 0.45879 0.42702 0.2865 0.0
H2270 H 0.42883 0.44417 0.31357 0.0
C2271 C 0.38327 0.3972 0.34075 0.0
C2272 C 0.41353 0.40175 0.30282 0.0
C2273 C 0.36832 0.38723 0.34691 0.0
C2274 C 0.47034 0.44651 0.26692 0.0
C2275 C 0.45882 0.43693 0.28078 0.0
C2276 C 0.42475 0.43239 0.31025 0.0
C2277 C 0.38921 0.39468 0.32225 0.0
C2278 C 0.40474 0.4061 0.31465 0.0
C2279 C 0.44704 0.43967 0.28615 0.0
C2280 C 0.43317 0.42809 0.2975 0.0
H2281 H 0.35808 0.36136 0.30769 0.0
H2282 H 0.38383 0.37913 0.29614 0.0
H2283 H 0.40433 0.42557 0.32725 0.0
H2284 H 0.45929 0.47218 0.25851 0.0
H2285 H 0.43905 0.45548 0.28209 0.0
C2286 C 0.33529 0.29365 0.3588 0.0
C2287 C 0.32161 0.29073 0.34964 0.0
C2288 C 0.338 0.28189 0.36292 0.0
C2289 C 0.31802 0.24187 0.37567 0.0
H2290 H 0.35761 0.24613 0.36834 0.0
C2291 C 0.33178 0.19966 0.41422 0.0
C2292 C 0.34547 0.20666 0.42534 0.0
C2293 C 0.32877 0.20782 0.39937 0.0
C2294 C 0.34649 0.24474 0.37055 0.0
H2295 H 0.30018 0.27318 0.33717 0.0
H2296 H 0.30483 0.25252 0.34473 0.0
H2297 H 0.35247 0.26481 0.35316 0.0
H2298 H 0.36718 0.22719 0.42859 0.0
H2299 H 0.36202 0.2414 0.40302 0.0
H2300 H 0.31226 0.22232 0.39403 0.0
C2301 C 0.31346 0.26397 0.34862 0.0
C2302 C 0.34354 0.25544 0.3618 0.0
C2303 C 0.31084 0.2758 0.3442 0.0
C2304 C 0.35653 0.22153 0.4202 0.0
C2305 C 0.35357 0.22965 0.40543 0.0
C2306 C 0.32101 0.23123 0.3846 0.0
C2307 C 0.32702 0.26688 0.35823 0.0
C2308 C 0.32941 0.25436 0.36475 0.0
C2309 C 0.33944 0.22311 0.39535 0.0
C2310 C 0.33543 0.23277 0.38269 0.0
H2311 H 0.34383 0.30503 0.36316 0.0
H2312 H 0.34847 0.2845 0.37056 0.0
H2313 H 0.30706 0.24078 0.37836 0.0
H2314 H 0.32303 0.18823 0.418 0.0
H2315 H 0.31787 0.20234 0.39167 0.0
C2316 C 0.71905 0.02886 0.34402 0.0
C2317 C 0.70428 0.02497 0.35009 0.0
C2318 C 0.73122 0.04351 0.34729 0.0
C2319 C 0.7411 0.08282 0.35755 0.0
H2320 H 0.77422 0.08556 0.39017 0.0
C2321 C 0.77634 0.13181 0.41307 0.0
C2322 C 0.79106 0.13548 0.41865 0.0
C2323 C 0.76802 0.12033 0.39868 0.0
C2324 C 0.76533 0.08513 0.38057 0.0
H2325 H 0.69062 0.03352 0.36355 0.0
H2326 H 0.7118 0.0591 0.36895 0.0
H2327 H 0.75501 0.06125 0.3762 0.0
H2328 H 0.80912 0.1309 0.41237 0.0
H2329 H 0.79469 0.11094 0.38665 0.0
H2330 H 0.7512 0.10661 0.36218 0.0
C2331 C 0.71398 0.05083 0.36171 0.0
C2332 C 0.75426 0.07114 0.37265 0.0
C2333 C 0.70186 0.03616 0.35875 0.0
C2334 C 0.7978 0.12831 0.40826 0.0
C2335 C 0.78945 0.11676 0.39376 0.0
C2336 C 0.75226 0.09684 0.36525 0.0
C2337 C 0.72882 0.0546 0.35635 0.0
C2338 C 0.74176 0.06976 0.36168 0.0
C2339 C 0.77424 0.11223 0.38942 0.0
C2340 C 0.76422 0.09809 0.37755 0.0
H2341 H 0.72127 0.02048 0.33733 0.0
H2342 H 0.74253 0.04612 0.34295 0.0
H2343 H 0.73171 0.08211 0.34885 0.0
H2344 H 0.7709 0.13721 0.42087 0.0
H2345 H 0.75634 0.11715 0.39601 0.0
C2346 C 0.9653 0.67458 0.35887 0.0
C2347 C 0.97337 0.6886 0.34869 0.0
C2348 C 0.95015 0.66878 0.36475 0.0
C2349 C 0.9232 0.68157 0.37676 0.0
H2350 H 0.89326 0.63886 0.37572 0.0
C2351 C 0.86497 0.6616 0.41158 0.0
C2352 C 0.86079 0.65028 0.42672 0.0
C2353 C 0.87614 0.66429 0.39673 0.0
C2354 C 0.90149 0.65082 0.37606 0.0
H2355 H 0.97162 0.70722 0.33601 0.0
H2356 H 0.94529 0.69704 0.34596 0.0
H2357 H 0.91845 0.64776 0.3608 0.0
H2358 H 0.86354 0.63164 0.43646 0.0
H2359 H 0.88319 0.63648 0.41087 0.0
H2360 H 0.90658 0.68468 0.39251 0.0
C2361 C 0.95072 0.69066 0.34983 0.0
C2362 C 0.91594 0.65591 0.3676 0.0
C2363 C 0.96584 0.69648 0.34407 0.0
C2364 C 0.86671 0.6406 0.42517 0.0
C2365 C 0.87793 0.64334 0.41039 0.0
C2366 C 0.90882 0.6765 0.38515 0.0
C2367 C 0.94273 0.67684 0.3605 0.0
C2368 C 0.92703 0.67134 0.36812 0.0
C2369 C 0.88337 0.65574 0.39679 0.0
C2370 C 0.89783 0.66105 0.38518 0.0
H2371 H 0.97075 0.6682 0.36262 0.0
H2372 H 0.94439 0.65818 0.37316 0.0
H2373 H 0.93152 0.69349 0.3778 0.0
H2374 H 0.86062 0.66925 0.41234 0.0
H2375 H 0.87982 0.67371 0.3861 0.0
C2376 C 0.37049 -0.00011 0.69513 0.0
C2377 C 0.37298 0.0135 0.68646 0.0
C2378 C 0.38263 0.99764 0.699 0.0
C2379 C 0.42268 0.01844 0.71222 0.0
H2380 H 0.42026 0.98003 0.7026 0.0
C2381 C 0.46639 0.00597 0.74939 0.0
C2382 C 0.45978 0.99195 0.75954 0.0
C2383 C 0.45799 0.00898 0.7349 0.0
C2384 C 0.42113 0.99083 0.70547 0.0
H2385 H 0.39015 0.03532 0.67459 0.0
H2386 H 0.41146 0.03148 0.68174 0.0
H2387 H 0.40092 0.98455 0.68808 0.0
H2388 H 0.43974 0.96979 0.76156 0.0
H2389 H 0.42513 0.97492 0.73664 0.0
H2390 H 0.44235 0.02446 0.73061 0.0
C2391 C 0.40007 0.02253 0.68542 0.0
C2392 C 0.41005 0.99342 0.69709 0.0
C2393 C 0.38787 0.02469 0.68123 0.0
C2394 C 0.44511 0.98067 0.75384 0.0
C2395 C 0.43675 0.98363 0.73945 0.0
C2396 C 0.43368 0.0158 0.72082 0.0
C2397 C 0.39759 0.00904 0.69456 0.0
C2398 C 0.41048 0.0071 0.70083 0.0
C2399 C 0.44285 0.998 0.73032 0.0
C2400 C 0.43281 0.00179 0.71808 0.0
H2401 H 0.35916 0.99104 0.69933 0.0
H2402 H 0.38035 0.98718 0.70625 0.0
H2403 H 0.42327 0.02907 0.7155 0.0
H2404 H 0.47765 0.01489 0.75366 0.0
H2405 H 0.46315 0.02009 0.72794 0.0
C2406 C 0.98828 0.36327 0.69198 0.0
C2407 C 0.97364 0.35331 0.68439 0.0
C2408 C 0.99213 0.37767 0.69922 0.0
C2409 C 0.97485 0.39896 0.72024 0.0
H2410 H 0.01409 0.43403 0.7083 0.0
C2411 C 0.99056 0.45705 0.75386 0.0
C2412 C 0.00476 0.46462 0.76365 0.0
C2413 C 0.9869 0.44492 0.74033 0.0
C2414 C 0.00309 0.42434 0.71183 0.0
H2415 H 0.95163 0.35083 0.6783 0.0
H2416 H 0.95837 0.37581 0.69083 0.0
H2417 H 0.00752 0.40961 0.69319 0.0
H2418 H 0.02667 0.46631 0.76576 0.0
H2419 H 0.02035 0.44522 0.7424 0.0
H2420 H 0.97053 0.4135 0.73933 0.0
C2421 C 0.96683 0.37247 0.69139 0.0
C2422 C -0.00065 0.41034 0.70322 0.0
C2423 C 0.963 0.35814 0.68411 0.0
C2424 C 0.01561 0.46062 0.75843 0.0
C2425 C 0.01199 0.44855 0.74495 0.0
C2426 C 0.9786 0.41293 0.72891 0.0
C2427 C 0.98141 0.38239 0.69911 0.0
C2428 C 0.98525 0.39745 0.70751 0.0
C2429 C 0.99741 0.44018 0.73632 0.0
C2430 C 0.99284 0.42578 0.72505 0.0
H2431 H 0.99675 0.35994 0.69241 0.0
H2432 H 0.00342 0.38498 0.70529 0.0
H2433 H 0.96396 0.38923 0.72409 0.0
H2434 H 0.98197 0.45987 0.7577 0.0
H2435 H 0.97565 0.43888 0.73364 0.0
C2436 C 0.63628 0.61103 0.67104 0.0
C2437 C 0.64472 0.62424 0.68287 0.0
C2438 C 0.62113 0.60089 0.67595 0.0
C2439 C 0.58876 0.59625 0.70937 0.0
H2440 H 0.57518 0.55382 0.70222 0.0
C2441 C 0.53189 0.55122 0.74451 0.0
C2442 C 0.5326 0.53972 0.75518 0.0
C2443 C 0.54337 0.56044 0.73036 0.0
C2444 C 0.57877 0.56561 0.70442 0.0
H2445 H 0.64395 0.63729 0.70902 0.0
H2446 H 0.6178 0.61919 0.7185 0.0
H2447 H 0.59997 0.57259 0.68955 0.0
H2448 H 0.54523 0.52829 0.75911 0.0
H2449 H 0.56533 0.54435 0.73496 0.0
H2450 H 0.56806 0.58919 0.72589 0.0
C2451 C 0.62261 0.61685 0.70488 0.0
C2452 C 0.59298 0.57646 0.69682 0.0
C2453 C 0.63768 0.62719 0.69961 0.0
C2454 C 0.54435 0.53694 0.75066 0.0
C2455 C 0.55587 0.54619 0.73676 0.0
C2456 C 0.57466 0.58537 0.71737 0.0
C2457 C 0.61412 0.60348 0.69319 0.0
C2458 C 0.59835 0.59196 0.69956 0.0
C2459 C 0.55586 0.55844 0.72698 0.0
C2460 C 0.56962 0.56989 0.71547 0.0
H2461 H 0.64135 0.60859 0.6578 0.0
H2462 H 0.61495 0.59099 0.66617 0.0
H2463 H 0.59225 0.60803 0.71133 0.0
H2464 H 0.523 0.55367 0.74808 0.0
H2465 H 0.54281 0.56956 0.72284 0.0
C2466 C 0.68718 0.72158 0.67399 0.0
C2467 C 0.67699 0.70624 0.66993 0.0
C2468 C 0.68325 0.73247 0.66938 0.0
C2469 C 0.65731 0.73737 0.63462 0.0
H2470 H 0.67233 0.77527 0.6643 0.0
C2471 C 0.64524 0.78141 0.60201 0.0
C2472 C 0.65828 0.79558 0.59915 0.0
C2473 C 0.64539 0.771 0.61585 0.0
C2474 C 0.66802 0.76471 0.6559 0.0
H2475 H 0.65432 0.69017 0.65929 0.0
H2476 H 0.64728 0.709 0.65196 0.0
H2477 H 0.67671 0.75574 0.67861 0.0
H2478 H 0.68128 0.8105 0.60937 0.0
H2479 H 0.68163 0.7923 0.63358 0.0
H2480 H 0.64893 0.74632 0.61172 0.0
C2481 C 0.65851 0.71276 0.65798 0.0
C2482 C 0.67059 0.75355 0.66404 0.0
C2483 C 0.66251 0.70193 0.6623 0.0
C2484 C 0.67102 0.7997 0.61165 0.0
C2485 C 0.67121 0.78924 0.62543 0.0
C2486 C 0.65469 0.74843 0.62661 0.0
C2487 C 0.66898 0.72821 0.66083 0.0
C2488 C 0.6654 0.73979 0.65335 0.0
C2489 C 0.65866 0.77451 0.62684 0.0
C2490 C 0.66014 0.76231 0.63699 0.0
H2491 H 0.69844 0.72524 0.67985 0.0
H2492 H 0.69166 0.74426 0.67163 0.0
H2493 H 0.65346 0.72713 0.62561 0.0
H2494 H 0.63535 0.77797 0.59233 0.0
H2495 H 0.63543 0.75984 0.61689 0.0
C2496 C 0.27204 0.96998 0.67355 0.0
C2497 C 0.28783 0.97631 0.67174 0.0
C2498 C 0.26208 0.95542 0.6662 0.0
C2499 C 0.25942 0.91939 0.65119 0.0
H2500 H 0.22549 0.91382 0.61767 0.0
C2501 C 0.22742 0.86965 0.59428 0.0
C2502 C 0.21219 0.86452 0.58948 0.0
C2503 C 0.23532 0.88156 0.60828 0.0
C2504 C 0.23468 0.91502 0.62738 0.0
H2505 H 0.30547 0.97207 0.66106 0.0
H2506 H 0.28803 0.9466 0.64818 0.0
H2507 H 0.24217 0.93821 0.63373 0.0
H2508 H 0.19294 0.86705 0.59674 0.0
H2509 H 0.20663 0.8877 0.62178 0.0
H2510 H 0.25202 0.89623 0.64466 0.0
C2511 C 0.2834 0.95294 0.65543 0.0
C2512 C 0.24431 0.92908 0.63651 0.0
C2513 C 0.2934 0.96758 0.66269 0.0
C2514 C 0.20465 0.87075 0.60023 0.0
C2515 C 0.21258 0.88271 0.61433 0.0
C2516 C 0.24972 0.90529 0.64217 0.0
C2517 C 0.26762 0.94674 0.65693 0.0
C2518 C 0.25694 0.93151 0.64826 0.0
C2519 C 0.22817 0.88864 0.61792 0.0
C2520 C 0.23736 0.90298 0.62982 0.0
H2521 H 0.2673 0.97632 0.68049 0.0
H2522 H 0.25001 0.95093 0.66783 0.0
H2523 H 0.2689 0.92083 0.66044 0.0
H2524 H 0.23349 0.86502 0.58621 0.0
H2525 H 0.2473 0.88581 0.61045 0.0
C2526 C 0.03131 0.31236 0.66467 0.0
C2527 C 0.02705 0.3233 0.66265 0.0
C2528 C 0.04608 0.31584 0.65972 0.0
C2529 C 0.07915 0.34359 0.62836 0.0
H2530 H 0.09887 0.32361 0.65301 0.0
C2531 C 0.13726 0.35751 0.59912 0.0
C2532 C 0.1378 0.34489 0.59187 0.0
C2533 C 0.12571 0.35571 0.61263 0.0
C2534 C 0.09349 0.32929 0.64605 0.0
H2535 H 0.03512 0.34672 0.65524 0.0
H2536 H 0.06098 0.35301 0.64758 0.0
H2537 H 0.0748 0.31925 0.66754 0.0
H2538 H 0.12746 0.32066 0.59404 0.0
H2539 H 0.10719 0.31745 0.61797 0.0
H2540 H 0.09776 0.35359 0.60691 0.0
C2541 C 0.05284 0.34155 0.65212 0.0
C2542 C 0.07966 0.32675 0.65427 0.0
C2543 C 0.03803 0.33799 0.65668 0.0
C2544 C 0.12738 0.33056 0.59974 0.0
C2545 C 0.11577 0.32874 0.61334 0.0
C2546 C 0.093 0.34626 0.62039 0.0
C2547 C 0.05698 0.33042 0.65294 0.0
C2548 C 0.07222 0.33376 0.64538 0.0
C2549 C 0.11441 0.34123 0.61906 0.0
C2550 C 0.10029 0.33907 0.629 0.0
H2551 H 0.02306 0.30091 0.66918 0.0
H2552 H 0.04871 0.3069 0.66036 0.0
H2553 H 0.07368 0.34889 0.62063 0.0
H2554 H 0.14511 0.36865 0.59306 0.0
H2555 H 0.12507 0.36556 0.61702 0.0
C2556 C 0.27354 0.30501 0.66598 0.0
C2557 C 0.28945 0.31342 0.66475 0.0
C2558 C 0.26485 0.31129 0.65982 0.0
C2559 C 0.26636 0.34083 0.62593 0.0
H2560 H 0.22935 0.3316 0.65519 0.0
C2561 C 0.22816 0.36075 0.59197 0.0
C2562 C 0.21291 0.34936 0.59017 0.0
C2563 C 0.23782 0.35901 0.60556 0.0
C2564 C 0.23964 0.33428 0.64683 0.0
H2565 H 0.30869 0.33518 0.65631 0.0
H2566 H 0.2935 0.34616 0.64556 0.0
H2567 H 0.24589 0.32324 0.66971 0.0
H2568 H 0.19547 0.32779 0.60213 0.0
H2569 H 0.2123 0.32462 0.62581 0.0
H2570 H 0.25996 0.35141 0.60273 0.0
C2571 C 0.28775 0.33463 0.65115 0.0
C2572 C 0.24911 0.32946 0.65513 0.0
C2573 C 0.29646 0.32835 0.65736 0.0
C2574 C 0.20714 0.33683 0.60352 0.0
C2575 C 0.21684 0.33501 0.61701 0.0
C2576 C 0.2569 0.34562 0.61764 0.0
C2577 C 0.27183 0.32615 0.65223 0.0
C2578 C 0.26245 0.33245 0.64457 0.0
C2579 C 0.23245 0.34574 0.6174 0.0
C2580 C 0.24329 0.34221 0.62779 0.0
H2581 H 0.26773 0.29348 0.67159 0.0
H2582 H 0.25262 0.30435 0.66055 0.0
H2583 H 0.27641 0.34315 0.61722 0.0
H2584 H 0.23285 0.37047 0.58172 0.0
H2585 H 0.24969 0.36767 0.60584 0.0
C2586 C 0.69278 0.97563 0.67186 0.0
C2587 C 0.6813 0.97855 0.66591 0.0
C2588 C 0.69108 0.96139 0.66848 0.0
C2589 C 0.66279 0.9214 0.65766 0.0
H2590 H 0.69503 0.92115 0.62591 0.0
C2591 C 0.65237 0.87365 0.60176 0.0
C2592 C 0.66405 0.87077 0.59687 0.0
C2593 C 0.65473 0.8849 0.61608 0.0
C2594 C 0.68605 0.9209 0.63525 0.0
H2595 H 0.65882 0.96865 0.65255 0.0
H2596 H 0.6558 0.9438 0.64691 0.0
H2597 H 0.69874 0.94483 0.64001 0.0
H2598 H 0.68698 0.87657 0.60417 0.0
H2599 H 0.69111 0.89618 0.62973 0.0
H2600 H 0.64995 0.89755 0.65256 0.0
C2601 C 0.66611 0.9525 0.65417 0.0
C2602 C 0.68818 0.93453 0.64326 0.0
C2603 C 0.66788 0.96677 0.65727 0.0
C2604 C 0.67778 0.87855 0.60778 0.0
C2605 C 0.68018 0.88988 0.62219 0.0
C2606 C 0.66071 0.90775 0.64984 0.0
C2607 C 0.67778 0.94971 0.6594 0.0
C2608 C 0.67639 0.93499 0.65394 0.0
C2609 C 0.66885 0.89357 0.62593 0.0
C2610 C 0.67211 0.9074 0.63786 0.0
H2611 H 0.70326 0.98448 0.67854 0.0
H2612 H 0.70024 0.95954 0.67276 0.0
H2613 H 0.6536 0.92138 0.66615 0.0
H2614 H 0.64169 0.86781 0.59348 0.0
H2615 H 0.64577 0.88745 0.61828 0.0
C2616 C 0.03561 0.72761 0.67282 0.0
C2617 C 0.02829 0.71209 0.66823 0.0
C2618 C 0.05071 0.73724 0.66705 0.0
C2619 C 0.08588 0.73815 0.64967 0.0
H2620 H 0.09506 0.77623 0.62487 0.0
C2621 C 0.13562 0.77252 0.59309 0.0
C2622 C 0.1417 0.78819 0.5916 0.0
C2623 C 0.12415 0.764 0.60754 0.0
C2624 C 0.09286 0.76583 0.6322 0.0
H2625 H 0.03131 0.69451 0.65429 0.0
H2626 H 0.05763 0.71141 0.64383 0.0
H2627 H 0.07002 0.75964 0.63926 0.0
H2628 H 0.1417 0.80743 0.6054 0.0
H2629 H 0.12187 0.7926 0.6311 0.0
H2630 H 0.10868 0.74423 0.64194 0.0
C2631 C 0.05171 0.71608 0.65219 0.0
C2632 C 0.07842 0.75624 0.6404 0.0
C2633 C 0.03657 0.7064 0.65805 0.0
C2634 C 0.13724 0.79538 0.60629 0.0
C2635 C 0.12573 0.78684 0.62078 0.0
C2636 C 0.10037 0.74777 0.64144 0.0
C2637 C 0.05891 0.73166 0.65643 0.0
C2638 C 0.07465 0.74218 0.64897 0.0
C2639 C 0.11851 0.77097 0.62082 0.0
C2640 C 0.10396 0.76163 0.6323 0.0
H2641 H 0.02967 0.73239 0.68084 0.0
H2642 H 0.05595 0.74911 0.6709 0.0
H2643 H 0.08344 0.72751 0.65646 0.0
H2644 H 0.13889 0.76672 0.58192 0.0
H2645 H 0.11888 0.75183 0.60705 0.0
C2646 C 0.98417 0.6157 0.67191 0.0
C2647 C 0.99073 0.62858 0.68479 0.0
C2648 C 0.98662 0.60369 0.67587 0.0
C2649 C 0.01095 0.59329 0.70689 0.0
H2650 H 0.97597 0.55294 0.70412 0.0
C2651 C 0.98727 0.53491 0.75418 0.0
C2652 C 0.00087 0.53503 0.75743 0.0
C2653 C 0.98645 0.54436 0.73929 0.0
C2654 C 0.98588 0.56412 0.70497 0.0
H2655 H 0.00523 0.63904 0.71169 0.0
H2656 H 0.00919 0.61816 0.71884 0.0
H2657 H 0.97425 0.57409 0.69052 0.0
H2658 H 0.02397 0.54426 0.74679 0.0
H2659 H 0.02249 0.56059 0.72014 0.0
H2660 H 0.02225 0.58353 0.7227 0.0
C2661 C 0.00242 0.61734 0.7054 0.0
C2662 C 0.98495 0.57627 0.69691 0.0
C2663 C 3e-05 0.62932 0.70139 0.0
C2664 C 0.01332 0.54387 0.74437 0.0
C2665 C 0.0125 0.55337 0.72936 0.0
C2666 C 0.01184 0.58118 0.71511 0.0
C2667 C 0.99564 0.60428 0.69284 0.0
C2668 C 0.99733 0.5911 0.69839 0.0
C2669 C -0.00076 0.5542 0.72726 0.0
C2670 C -0.00083 0.56648 0.71489 0.0
H2671 H 0.97698 0.6148 0.65894 0.0
H2672 H 0.98135 0.5939 0.66572 0.0
H2673 H 0.02084 0.60449 0.70787 0.0
H2674 H 0.97759 0.5283 0.76427 0.0
H2675 H 0.97609 0.54474 0.73843 0.0
C2676 C 0.37033 0.36872 0.69351 0.0
C2677 C 0.37276 0.35746 0.68514 0.0
C2678 C 0.3825 0.38328 0.69694 0.0
C2679 C 0.4225 0.40326 0.70963 0.0
H2680 H 0.41998 0.43891 0.69804 0.0
C2681 C 0.46565 0.46052 0.74568 0.0
C2682 C 0.4588 0.46779 0.75552 0.0
C2683 C 0.45748 0.44887 0.73123 0.0
C2684 C 0.42089 0.42908 0.70142 0.0
H2685 H 0.38984 0.35271 0.67346 0.0
H2686 H 0.4112 0.37819 0.67993 0.0
H2687 H 0.4007 0.41448 0.68424 0.0
H2688 H 0.43863 0.46954 0.75684 0.0
H2689 H 0.42438 0.44932 0.73203 0.0
H2690 H 0.4421 0.41758 0.72788 0.0
C2691 C 0.39983 0.37571 0.68367 0.0
C2692 C 0.40985 0.4151 0.69346 0.0
C2693 C 0.38761 0.36116 0.67991 0.0
C2694 C 0.44415 0.46407 0.74948 0.0
C2695 C 0.43601 0.45251 0.73512 0.0
C2696 C 0.43346 0.41722 0.7178 0.0
C2697 C 0.3974 0.38689 0.69235 0.0
C2698 C 0.4103 0.40198 0.69799 0.0
C2699 C 0.44235 0.44436 0.72637 0.0
C2700 C 0.43252 0.43024 0.71436 0.0
H2701 H 0.35903 0.36623 0.69766 0.0
H2702 H 0.38028 0.39161 0.70389 0.0
H2703 H 0.42309 0.39332 0.71348 0.0
H2704 H 0.47692 0.46314 0.75016 0.0
H2705 H 0.4628 0.44301 0.72454 0.0
C2706 C 0.6328 0.00857 0.69096 0.0
C2707 C 0.64083 0.02252 0.68061 0.0
C2708 C 0.61769 0.00285 0.69704 0.0
C2709 C 0.59091 0.01585 0.70925 0.0
H2710 H 0.56073 0.97322 0.70805 0.0
C2711 C 0.53258 0.99594 0.7443 0.0
C2712 C 0.52833 0.98446 0.75917 0.0
C2713 C 0.54384 0.99877 0.72949 0.0
C2714 C 0.56903 0.98516 0.70845 0.0
H2715 H 0.63905 0.04112 0.66787 0.0
H2716 H 0.61283 0.0311 0.67819 0.0
H2717 H 0.58589 0.98196 0.69317 0.0
H2718 H 0.53112 0.96582 0.76871 0.0
H2719 H 0.55081 0.97081 0.74313 0.0
H2720 H 0.57437 0.01909 0.72505 0.0
C2721 C 0.61824 0.0247 0.68202 0.0
C2722 C 0.58346 0.99016 0.70001 0.0
C2723 C 0.63331 0.03043 0.67605 0.0
C2724 C 0.53431 0.97484 0.75751 0.0
C2725 C 0.54556 0.97768 0.74277 0.0
C2726 C 0.57654 0.01087 0.71765 0.0
C2727 C 0.61029 0.01095 0.69284 0.0
C2728 C 0.59463 0.00555 0.70058 0.0
C2729 C 0.55103 0.99018 0.72933 0.0
C2730 C 0.56547 0.99545 0.71765 0.0
H2731 H 0.63824 0.00218 0.69467 0.0
H2732 H 0.61194 0.9923 0.70554 0.0
H2733 H 0.59929 0.02774 0.71031 0.0
H2734 H 0.52817 0.00353 0.74523 0.0
H2735 H 0.54756 0.00828 0.71902 0.0
loop_
_geom_bond_atom_site_label_1
_geom_bond_atom_site_label_2
_geom_bond_distance
_geom_bond_site_symmetry_2
_ccdc_geom_bond_type
C0 O1 1.306 1_556 S
C0 O3 1.160 . S
O1 C0 1.306 1_554 S
O1 Cd2 2.228 . S
Cd2 O1 2.228 . S
Cd2 O6 2.273 . S
Cd2 O10 2.277 1_554 S
O3 C0 1.160 . S
O3 Cd4 2.203 1_656 S
Cd4 O3 2.203 1_454 S
Cd4 O6 2.411 1_455 S
Cd4 O7 2.333 . S
Cd4 O8 2.352 . S
Cd4 O12 2.277 1_554 S
Cd4 O13 2.356 . S
C5 O10 1.209 1_455 S
C5 O12 1.226 . S
O6 Cd2 2.273 . S
O6 Cd4 2.411 1_655 S
O6 C9 1.320 1_655 S
O7 Cd4 2.333 . S
O7 C9 1.214 . S
O8 Cd4 2.352 . S
O8 C11 1.258 . S
C9 O6 1.320 1_455 S
C9 O7 1.214 . S
O10 Cd2 2.277 1_556 S
O10 C5 1.209 1_655 S
C11 O8 1.258 . S
C11 O13 1.282 . S
O12 Cd4 2.277 1_556 S
O12 C5 1.226 . S
O13 Cd4 2.356 . S
O13 C11 1.282 . S
C14 O15 1.306 . S
C14 O17 1.160 . S
O15 C14 1.306 . S
O15 Cd16 2.228 . S
Cd16 O15 2.228 . S
Cd16 O20 2.273 1_554 S
Cd16 O24 2.277 . S
O17 C14 1.160 . S
O17 Cd18 2.203 . S
Cd18 O17 2.203 . S
Cd18 O20 2.411 1_554 S
Cd18 O21 2.333 1_554 S
Cd18 O22 2.352 1_554 S
Cd18 O26 2.277 . S
Cd18 O27 2.356 . S
C19 O24 1.209 . S
C19 O26 1.226 . S
O20 Cd16 2.273 1_556 S
O20 Cd18 2.411 1_556 S
O20 C23 1.320 . S
O21 Cd18 2.333 1_556 S
O21 C23 1.214 . S
O22 Cd18 2.352 1_556 S
O22 C25 1.258 . S
C23 O20 1.320 . S
C23 O21 1.214 . S
O24 Cd16 2.277 . S
O24 C19 1.209 . S
C25 O22 1.258 . S
C25 O27 1.282 1_556 S
O26 Cd18 2.277 . S
O26 C19 1.226 . S
O27 Cd18 2.356 . S
O27 C25 1.282 1_554 S
C28 O29 1.306 . S
C28 O31 1.160 . S
O29 C28 1.306 . S
O29 Cd30 2.228 . S
Cd30 O29 2.228 . S
Cd30 O34 2.273 1_554 S
Cd30 O38 2.277 . S
O31 C28 1.160 . S
O31 Cd32 2.203 1_565 S
Cd32 O31 2.203 1_545 S
Cd32 O34 2.411 1_544 S
Cd32 O35 2.333 1_554 S
Cd32 O36 2.352 1_554 S
Cd32 O40 2.277 . S
Cd32 O41 2.356 . S
C33 O38 1.209 1_545 S
C33 O40 1.226 . S
O34 Cd30 2.273 1_556 S
O34 Cd32 2.411 1_566 S
O34 C37 1.320 1_565 S
O35 Cd32 2.333 1_556 S
O35 C37 1.214 . S
O36 Cd32 2.352 1_556 S
O36 C39 1.258 . S
C37 O34 1.320 1_545 S
C37 O35 1.214 . S
O38 Cd30 2.277 . S
O38 C33 1.209 1_565 S
C39 O36 1.258 . S
C39 O41 1.282 1_556 S
O40 Cd32 2.277 . S
O40 C33 1.226 . S
O41 Cd32 2.356 . S
O41 C39 1.282 1_554 S
C42 O43 1.306 1_556 S
C42 O45 1.160 . S
O43 C42 1.306 1_554 S
O43 Cd44 2.228 . S
Cd44 O43 2.228 . S
Cd44 O48 2.273 . S
Cd44 O52 2.277 1_554 S
O45 C42 1.160 . S
O45 Cd46 2.203 1_656 S
Cd46 O45 2.203 1_454 S
Cd46 O48 2.411 1_455 S
Cd46 O49 2.333 . S
Cd46 O50 2.352 . S
Cd46 O54 2.277 1_554 S
Cd46 O55 2.356 . S
C47 O52 1.209 1_455 S
C47 O54 1.226 . S
O48 Cd44 2.273 . S
O48 Cd46 2.411 1_655 S
O48 C51 1.320 1_655 S
O49 Cd46 2.333 . S
O49 C51 1.214 . S
O50 Cd46 2.352 . S
O50 C53 1.258 . S
C51 O48 1.320 1_455 S
C51 O49 1.214 . S
O52 Cd44 2.277 1_556 S
O52 C47 1.209 1_655 S
C53 O50 1.258 . S
C53 O55 1.282 . S
O54 Cd46 2.277 1_556 S
O54 C47 1.226 . S
O55 Cd46 2.356 . S
O55 C53 1.282 . S
C56 O57 1.306 . S
C56 O59 1.160 . S
O57 C56 1.306 . S
O57 Cd58 2.228 . S
Cd58 O57 2.228 . S
Cd58 O62 2.273 1_554 S
Cd58 O66 2.277 . S
O59 C56 1.160 . S
O59 Cd60 2.203 . S
Cd60 O59 2.203 . S
Cd60 O62 2.411 1_554 S
Cd60 O63 2.333 1_554 S
Cd60 O64 2.352 1_554 S
Cd60 O68 2.277 . S
Cd60 O69 2.356 . S
C61 O66 1.209 . S
C61 O68 1.226 . S
O62 Cd58 2.273 1_556 S
O62 Cd60 2.411 1_556 S
O62 C65 1.320 . S
O63 Cd60 2.333 1_556 S
O63 C65 1.214 . S
O64 Cd60 2.352 1_556 S
O64 C67 1.258 . S
C65 O62 1.320 . S
C65 O63 1.214 . S
O66 Cd58 2.277 . S
O66 C61 1.209 . S
C67 O64 1.258 . S
C67 O69 1.282 1_556 S
O68 Cd60 2.277 . S
O68 C61 1.226 . S
O69 Cd60 2.356 . S
O69 C67 1.282 1_554 S
C70 O71 1.306 1_556 S
C70 O73 1.160 . S
O71 C70 1.306 1_554 S
O71 Cd72 2.228 . S
Cd72 O71 2.228 . S
Cd72 O76 2.273 . S
Cd72 O80 2.277 1_554 S
O73 C70 1.160 . S
O73 Cd74 2.203 1_546 S
Cd74 O73 2.203 1_564 S
Cd74 O76 2.411 1_565 S
Cd74 O77 2.333 . S
Cd74 O78 2.352 . S
Cd74 O82 2.277 1_554 S
Cd74 O83 2.356 . S
C75 O80 1.177 1_565 S
C75 O82 1.271 . S
O76 Cd72 2.273 . S
O76 Cd74 2.411 1_545 S
O76 C79 1.343 . S
O77 Cd74 2.333 . S
O77 C79 1.165 1_565 S
O78 Cd74 2.352 . S
O78 C81 1.258 . S
C79 O76 1.343 . S
C79 O77 1.165 1_545 S
O80 Cd72 2.277 1_556 S
O80 C75 1.177 1_545 S
C81 O78 1.258 . S
C81 O83 1.282 . S
O82 Cd74 2.277 1_556 S
O82 C75 1.271 . S
O83 Cd74 2.356 . S
O83 C81 1.282 . S
C84 O85 1.306 . S
C84 O87 1.160 . S
O85 C84 1.306 . S
O85 Cd86 2.228 . S
Cd86 O85 2.228 . S
Cd86 O90 2.273 . S
Cd86 O94 2.277 . S
O87 C84 1.160 . S
O87 Cd88 2.203 . S
Cd88 O87 2.203 . S
Cd88 O90 2.411 . S
Cd88 O91 2.333 . S
Cd88 O92 2.352 . S
Cd88 O96 2.277 . S
Cd88 O97 2.356 . S
C89 O94 1.209 . S
C89 O96 1.226 . S
O90 Cd86 2.273 . S
O90 Cd88 2.411 . S
O90 C93 1.320 . S
O91 Cd88 2.333 . S
O91 C93 1.214 . S
O92 Cd88 2.352 . S
O92 C95 1.258 . S
C93 O90 1.320 . S
C93 O91 1.214 . S
O94 Cd86 2.277 . S
O94 C89 1.209 . S
C95 O92 1.258 . S
C95 O97 1.282 . S
O96 Cd88 2.277 . S
O96 C89 1.226 . S
O97 Cd88 2.356 . S
O97 C95 1.282 . S
C98 O99 1.306 . S
C98 O101 1.160 . S
O99 C98 1.306 . S
O99 Cd100 2.228 1_545 S
Cd100 O99 2.228 1_565 S
Cd100 O104 2.273 . S
Cd100 O108 2.277 . S
O101 C98 1.160 . S
O101 Cd102 2.203 1_545 S
Cd102 O101 2.203 1_565 S
Cd102 O104 2.411 . S
Cd102 O105 2.333 . S
Cd102 O106 2.352 . S
Cd102 O110 2.277 . S
Cd102 O111 2.356 . S
C103 O108 1.209 . S
C103 O110 1.226 . S
O104 Cd100 2.273 . S
O104 Cd102 2.411 . S
O104 C107 1.320 . S
O105 Cd102 2.333 . S
O105 C107 1.214 . S
O106 Cd102 2.352 . S
O106 C109 1.258 . S
C107 O104 1.320 . S
C107 O105 1.214 . S
O108 Cd100 2.277 . S
O108 C103 1.209 . S
C109 O106 1.258 . S
C109 O111 1.282 . S
O110 Cd102 2.277 . S
O110 C103 1.226 . S
O111 Cd102 2.356 . S
O111 C109 1.282 . S
C112 O113 1.277 1_655 S
C112 O115 1.160 1_655 S
O113 C112 1.277 1_455 S
O113 Cd114 2.269 . S
Cd114 O113 2.269 . S
Cd114 O118 2.273 . S
Cd114 O122 2.277 . S
O115 C112 1.160 1_455 S
O115 Cd116 2.203 . S
Cd116 O115 2.203 . S
Cd116 O118 2.411 . S
Cd116 O119 2.333 . S
Cd116 O120 2.352 . S
Cd116 O124 2.277 . S
Cd116 O125 2.356 . S
C117 O122 1.209 . S
C117 O124 1.226 . S
O118 Cd114 2.273 . S
O118 Cd116 2.411 . S
O118 C121 1.320 . S
O119 Cd116 2.333 . S
O119 C121 1.214 . S
O120 Cd116 2.352 . S
O120 C123 1.258 . S
C121 O118 1.320 . S
C121 O119 1.214 . S
O122 Cd114 2.277 . S
O122 C117 1.209 . S
C123 O120 1.258 . S
C123 O125 1.282 . S
O124 Cd116 2.277 . S
O124 C117 1.226 . S
O125 Cd116 2.356 . S
O125 C123 1.282 . S
C126 O127 1.306 . S
C126 O129 1.160 . S
O127 C126 1.306 . S
O127 Cd128 2.228 . S
Cd128 O127 2.228 . S
Cd128 O132 2.273 . S
Cd128 O136 2.277 . S
O129 C126 1.160 . S
O129 Cd130 2.203 . S
Cd130 O129 2.203 . S
Cd130 O132 2.411 . S
Cd130 O133 2.333 . S
Cd130 O134 2.352 1_565 S
Cd130 O138 2.277 . S
Cd130 O139 2.356 1_565 S
C131 O136 1.209 . S
C131 O138 1.226 . S
O132 Cd128 2.273 . S
O132 Cd130 2.411 . S
O132 C135 1.320 . S
O133 Cd130 2.333 . S
O133 C135 1.214 . S
O134 Cd130 2.352 1_545 S
O134 C137 1.258 . S
C135 O132 1.320 . S
C135 O133 1.214 . S
O136 Cd128 2.277 . S
O136 C131 1.209 . S
C137 O134 1.258 . S
C137 O139 1.282 . S
O138 Cd130 2.277 . S
O138 C131 1.226 . S
O139 Cd130 2.356 1_545 S
O139 C137 1.282 . S
C140 O141 1.306 . S
C140 O143 1.174 . S
O141 C140 1.306 . S
O141 Cd142 2.228 1_655 S
Cd142 O141 2.228 1_455 S
Cd142 O146 2.273 . S
Cd142 O150 2.277 . S
O143 C140 1.174 . S
O143 Cd144 2.190 1_655 S
Cd144 O143 2.190 1_455 S
Cd144 O146 2.411 . S
Cd144 O147 2.333 . S
Cd144 O148 2.352 . S
Cd144 O152 2.277 . S
Cd144 O153 2.356 . S
C145 O150 1.209 . S
C145 O152 1.226 . S
O146 Cd142 2.273 . S
O146 Cd144 2.411 . S
O146 C149 1.320 . S
O147 Cd144 2.333 . S
O147 C149 1.214 . S
O148 Cd144 2.352 . S
O148 C151 1.258 . S
C149 O146 1.320 . S
C149 O147 1.214 . S
O150 Cd142 2.277 . S
O150 C145 1.209 . S
C151 O148 1.258 . S
C151 O153 1.282 . S
O152 Cd144 2.277 . S
O152 C145 1.226 . S
O153 Cd144 2.356 . S
O153 C151 1.282 . S
C154 O155 1.306 . S
C154 O157 1.160 . S
O155 C154 1.306 . S
O155 Cd156 2.228 . S
Cd156 O155 2.228 . S
Cd156 O160 2.273 . S
Cd156 O164 2.277 . S
O157 C154 1.160 . S
O157 Cd158 2.203 . S
Cd158 O157 2.203 . S
Cd158 O160 2.411 . S
Cd158 O161 2.333 . S
Cd158 O162 2.352 . S
Cd158 O166 2.277 . S
Cd158 O167 2.356 . S
C159 O164 1.209 . S
C159 O166 1.226 . S
O160 Cd156 2.273 . S
O160 Cd158 2.411 . S
O160 C163 1.320 . S
O161 Cd158 2.333 . S
O161 C163 1.214 . S
O162 Cd158 2.352 . S
O162 C165 1.258 . S
C163 O160 1.320 . S
C163 O161 1.214 . S
O164 Cd156 2.277 . S
O164 C159 1.209 . S
C165 O162 1.258 . S
C165 O167 1.282 . S
O166 Cd158 2.277 . S
O166 C159 1.226 . S
O167 Cd158 2.356 . S
O167 C165 1.282 . S
C168 O169 1.306 . S
C168 O171 1.160 . S
O169 C168 1.306 . S
O169 Cd170 2.228 1_565 S
Cd170 O169 2.228 1_545 S
Cd170 O174 2.273 . S
Cd170 O178 2.277 . S
O171 C168 1.160 . S
O171 Cd172 2.174 1_565 S
Cd172 O171 2.174 1_545 S
Cd172 O174 2.411 . S
Cd172 O175 2.333 . S
Cd172 O176 2.352 . S
Cd172 O180 2.277 . S
Cd172 O181 2.356 . S
C173 O178 1.209 . S
C173 O180 1.226 . S
O174 Cd170 2.273 . S
O174 Cd172 2.411 . S
O174 C177 1.320 . S
O175 Cd172 2.333 . S
O175 C177 1.214 . S
O176 Cd172 2.352 . S
O176 C179 1.258 . S
C177 O174 1.320 . S
C177 O175 1.214 . S
O178 Cd170 2.277 . S
O178 C173 1.209 . S
C179 O176 1.258 . S
C179 O181 1.282 . S
O180 Cd172 2.277 . S
O180 C173 1.226 . S
O181 Cd172 2.356 . S
O181 C179 1.282 . S
C182 O183 1.306 . S
C182 O185 1.160 . S
O183 C182 1.306 . S
O183 Cd184 2.228 . S
Cd184 O183 2.228 . S
Cd184 O188 2.273 . S
Cd184 O192 2.277 . S
O185 C182 1.160 . S
O185 Cd186 2.203 . S
Cd186 O185 2.203 . S
Cd186 O188 2.411 . S
Cd186 O189 2.333 . S
Cd186 O190 2.352 1_655 S
Cd186 O194 2.277 . S
Cd186 O195 2.356 1_655 S
C187 O192 1.209 . S
C187 O194 1.226 . S
O188 Cd184 2.273 . S
O188 Cd186 2.411 . S
O188 C191 1.320 . S
O189 Cd186 2.333 . S
O189 C191 1.214 . S
O190 Cd186 2.352 1_455 S
O190 C193 1.258 . S
C191 O188 1.320 . S
C191 O189 1.214 . S
O192 Cd184 2.277 . S
O192 C187 1.209 . S
C193 O190 1.258 . S
C193 O195 1.282 . S
O194 Cd186 2.277 . S
O194 C187 1.226 . S
O195 Cd186 2.356 1_455 S
O195 C193 1.282 . S
C196 O197 1.306 . S
C196 O199 1.160 . S
O197 C196 1.306 . S
O197 Cd198 2.228 . S
Cd198 O197 2.228 . S
Cd198 O202 2.273 . S
Cd198 O206 2.277 . S
O199 C196 1.160 . S
O199 Cd200 2.203 . S
Cd200 O199 2.203 . S
Cd200 O202 2.411 . S
Cd200 O203 2.333 . S
Cd200 O204 2.352 . S
Cd200 O208 2.277 . S
Cd200 O209 2.356 . S
C201 O206 1.209 . S
C201 O208 1.226 . S
O202 Cd198 2.273 . S
O202 Cd200 2.411 . S
O202 C205 1.320 . S
O203 Cd200 2.333 . S
O203 C205 1.214 . S
O204 Cd200 2.352 . S
O204 C207 1.258 . S
C205 O202 1.320 . S
C205 O203 1.214 . S
O206 Cd198 2.277 . S
O206 C201 1.209 . S
C207 O204 1.258 . S
C207 O209 1.282 . S
O208 Cd200 2.277 . S
O208 C201 1.226 . S
O209 Cd200 2.356 . S
O209 C207 1.282 . S
C210 O211 1.306 . S
C210 O213 1.160 . S
O211 C210 1.306 . S
O211 Cd212 2.228 . S
Cd212 O211 2.228 . S
Cd212 O216 2.273 . S
Cd212 O220 2.277 . S
O213 C210 1.160 . S
O213 Cd214 2.203 . S
Cd214 O213 2.203 . S
Cd214 O216 2.411 . S
Cd214 O217 2.333 . S
Cd214 O218 2.352 . S
Cd214 O222 2.277 . S
Cd214 O223 2.356 . S
C215 O220 1.209 . S
C215 O222 1.226 . S
O216 Cd212 2.273 . S
O216 Cd214 2.411 . S
O216 C219 1.320 . S
O217 Cd214 2.333 . S
O217 C219 1.214 . S
O218 Cd214 2.352 . S
O218 C221 1.258 . S
C219 O216 1.320 . S
C219 O217 1.214 . S
O220 Cd212 2.277 . S
O220 C215 1.209 . S
C221 O218 1.258 . S
C221 O223 1.282 . S
O222 Cd214 2.277 . S
O222 C215 1.226 . S
O223 Cd214 2.356 . S
O223 C221 1.282 . S
C224 O225 1.306 . S
C224 O227 1.160 . S
O225 C224 1.306 . S
O225 Cd226 2.228 . S
Cd226 O225 2.228 . S
Cd226 O230 2.273 . S
Cd226 O234 2.277 . S
O227 C224 1.160 . S
O227 Cd228 2.203 . S
Cd228 O227 2.203 . S
Cd228 O230 2.411 . S
Cd228 O231 2.333 . S
Cd228 O232 2.352 1_545 S
Cd228 O236 2.277 . S
Cd228 O237 2.356 1_545 S
C229 O234 1.209 . S
C229 O236 1.226 . S
O230 Cd226 2.273 . S
O230 Cd228 2.411 . S
O230 C233 1.320 . S
O231 Cd228 2.333 . S
O231 C233 1.214 . S
O232 Cd228 2.352 1_565 S
O232 C235 1.258 . S
C233 O230 1.320 . S
C233 O231 1.214 . S
O234 Cd226 2.277 . S
O234 C229 1.209 . S
C235 O232 1.258 . S
C235 O237 1.282 . S
O236 Cd228 2.277 . S
O236 C229 1.226 . S
O237 Cd228 2.356 1_565 S
O237 C235 1.282 . S
C238 O239 1.306 . S
C238 O241 1.160 . S
O239 C238 1.306 . S
O239 Cd240 2.228 1_455 S
Cd240 O239 2.228 1_655 S
Cd240 O244 2.273 . S
Cd240 O248 2.277 . S
O241 C238 1.160 . S
O241 Cd242 2.203 1_455 S
Cd242 O241 2.203 1_655 S
Cd242 O244 2.411 . S
Cd242 O245 2.333 . S
Cd242 O246 2.352 . S
Cd242 O250 2.277 . S
Cd242 O251 2.356 . S
C243 O248 1.209 . S
C243 O250 1.226 . S
O244 Cd240 2.273 . S
O244 Cd242 2.411 . S
O244 C247 1.320 . S
O245 Cd242 2.333 . S
O245 C247 1.214 . S
O246 Cd242 2.352 . S
O246 C249 1.258 . S
C247 O244 1.320 . S
C247 O245 1.214 . S
O248 Cd240 2.277 . S
O248 C243 1.209 . S
C249 O246 1.258 . S
C249 O251 1.282 . S
O250 Cd242 2.277 . S
O250 C243 1.226 . S
O251 Cd242 2.356 . S
O251 C249 1.282 . S
H252 C258 0.930 . S
H253 C261 0.931 . S
H254 C263 0.931 . S
H255 C265 0.930 . S
H256 C267 0.930 . S
H257 C269 0.931 . S
C258 H252 0.930 . S
C258 C259 1.380 . S
C258 C260 1.394 . S
C259 C258 1.380 . S
C259 C263 1.382 . S
C260 C258 1.394 . S
C260 C261 1.400 . S
C261 H253 0.931 . S
C261 C260 1.400 . S
C261 C262 1.375 . S
C262 C261 1.375 . S
C262 C263 1.415 . S
C262 C264 1.501 . S
C263 H254 0.931 . S
C263 C259 1.382 . S
C263 C262 1.415 . S
C264 C262 1.501 . S
C264 C265 1.384 . S
C264 C269 1.408 . S
C265 H255 0.930 . S
C265 C264 1.384 . S
C265 C266 1.389 . S
C266 C265 1.389 . S
C266 C267 1.405 . S
C267 H256 0.930 . S
C267 C266 1.405 . S
C267 C268 1.364 . S
C268 C267 1.364 . S
C268 C269 1.400 . S
C269 H257 0.931 . S
C269 C264 1.408 . S
C269 C268 1.400 . S
H270 C276 0.930 . S
H271 C279 0.931 . S
H272 C281 0.931 . S
H273 C283 0.930 . S
H274 C285 0.930 . S
H275 C287 0.931 . S
C276 H270 0.930 . S
C276 C277 1.380 . S
C276 C278 1.394 . S
C277 C276 1.380 . S
C277 C281 1.382 . S
C278 C276 1.394 . S
C278 C279 1.400 . S
C279 H271 0.931 . S
C279 C278 1.400 . S
C279 C280 1.375 . S
C280 C279 1.375 . S
C280 C281 1.415 . S
C280 C282 1.501 . S
C281 H272 0.931 . S
C281 C277 1.382 . S
C281 C280 1.415 . S
C282 C280 1.501 . S
C282 C283 1.384 . S
C282 C287 1.408 . S
C283 H273 0.930 . S
C283 C282 1.384 . S
C283 C284 1.389 . S
C284 C283 1.389 . S
C284 C285 1.405 . S
C285 H274 0.930 . S
C285 C284 1.405 . S
C285 C286 1.364 . S
C286 C285 1.364 . S
C286 C287 1.400 . S
C287 H275 0.931 . S
C287 C282 1.408 . S
C287 C286 1.400 . S
H288 C294 0.930 . S
H289 C297 0.931 . S
H290 C299 0.931 . S
H291 C301 0.930 . S
H292 C303 0.930 . S
H293 C305 0.931 . S
C294 H288 0.930 . S
C294 C295 1.380 . S
C294 C296 1.394 . S
C295 C294 1.380 . S
C295 C299 1.382 . S
C296 C294 1.394 . S
C296 C297 1.400 . S
C297 H289 0.931 . S
C297 C296 1.400 . S
C297 C298 1.375 . S
C298 C297 1.375 . S
C298 C299 1.415 . S
C298 C300 1.501 . S
C299 H290 0.931 . S
C299 C295 1.382 . S
C299 C298 1.415 . S
C300 C298 1.501 . S
C300 C301 1.384 . S
C300 C305 1.408 . S
C301 H291 0.930 . S
C301 C300 1.384 . S
C301 C302 1.389 . S
C302 C301 1.389 . S
C302 C303 1.405 . S
C303 H292 0.930 . S
C303 C302 1.405 . S
C303 C304 1.364 . S
C304 C303 1.364 . S
C304 C305 1.400 . S
C305 H293 0.931 . S
C305 C300 1.408 . S
C305 C304 1.400 . S
H306 C312 0.930 . S
H307 C315 0.931 . S
H308 C317 0.931 . S
H309 C319 0.930 . S
H310 C321 0.930 . S
H311 C323 0.931 . S
C312 H306 0.930 . S
C312 C313 1.380 . S
C312 C314 1.394 . S
C313 C312 1.380 . S
C313 C317 1.382 . S
C314 C312 1.394 . S
C314 C315 1.400 . S
C315 H307 0.931 . S
C315 C314 1.400 . S
C315 C316 1.375 . S
C316 C315 1.375 . S
C316 C317 1.415 . S
C316 C318 1.501 . S
C317 H308 0.931 . S
C317 C313 1.382 . S
C317 C316 1.415 . S
C318 C316 1.501 . S
C318 C319 1.384 . S
C318 C323 1.408 . S
C319 H309 0.930 . S
C319 C318 1.384 . S
C319 C320 1.389 . S
C320 C319 1.389 . S
C320 C321 1.405 . S
C321 H310 0.930 . S
C321 C320 1.405 . S
C321 C322 1.364 . S
C322 C321 1.364 . S
C322 C323 1.400 . S
C323 H311 0.931 . S
C323 C318 1.408 . S
C323 C322 1.400 . S
H324 C330 0.930 . S
H325 C333 0.931 . S
H326 C335 0.931 . S
H327 C337 0.930 . S
H328 C339 0.930 . S
H329 C341 0.931 . S
C330 H324 0.930 . S
C330 C331 1.380 . S
C330 C332 1.394 . S
C331 C330 1.380 . S
C331 C335 1.382 . S
C332 C330 1.394 . S
C332 C333 1.400 . S
C333 H325 0.931 . S
C333 C332 1.400 . S
C333 C334 1.375 . S
C334 C333 1.375 . S
C334 C335 1.415 . S
C334 C336 1.501 . S
C335 H326 0.931 . S
C335 C331 1.382 . S
C335 C334 1.415 . S
C336 C334 1.501 . S
C336 C337 1.384 . S
C336 C341 1.408 . S
C337 H327 0.930 . S
C337 C336 1.384 . S
C337 C338 1.389 . S
C338 C337 1.389 . S
C338 C339 1.405 . S
C339 H328 0.930 . S
C339 C338 1.405 . S
C339 C340 1.364 . S
C340 C339 1.364 . S
C340 C341 1.400 . S
C341 H329 0.931 . S
C341 C336 1.408 . S
C341 C340 1.400 . S
H342 C348 0.930 . S
H343 C351 0.931 . S
H344 C353 0.931 . S
H345 C355 0.930 . S
H346 C357 0.930 . S
H347 C359 0.931 . S
C348 H342 0.930 . S
C348 C349 1.380 . S
C348 C350 1.394 . S
C349 C348 1.380 . S
C349 C353 1.382 . S
C350 C348 1.394 . S
C350 C351 1.400 . S
C351 H343 0.931 . S
C351 C350 1.400 . S
C351 C352 1.375 . S
C352 C351 1.375 . S
C352 C353 1.415 . S
C352 C354 1.501 . S
C353 H344 0.931 . S
C353 C349 1.382 . S
C353 C352 1.415 . S
C354 C352 1.501 . S
C354 C355 1.384 . S
C354 C359 1.408 . S
C355 H345 0.930 . S
C355 C354 1.384 . S
C355 C356 1.389 . S
C356 C355 1.389 . S
C356 C357 1.405 . S
C357 H346 0.930 . S
C357 C356 1.405 . S
C357 C358 1.364 . S
C358 C357 1.364 . S
C358 C359 1.400 . S
C359 H347 0.931 . S
C359 C354 1.408 . S
C359 C358 1.400 . S
H360 C366 0.930 . S
H361 C369 0.931 . S
H362 C371 0.931 . S
H363 C373 0.930 . S
H364 C375 0.930 . S
H365 C377 0.931 . S
C366 H360 0.930 . S
C366 C367 1.380 . S
C366 C368 1.394 . S
C367 C366 1.380 . S
C367 C371 1.382 . S
C368 C366 1.394 . S
C368 C369 1.400 . S
C369 H361 0.931 . S
C369 C368 1.400 . S
C369 C370 1.375 . S
C370 C369 1.375 . S
C370 C371 1.415 . S
C370 C372 1.501 . S
C371 H362 0.931 . S
C371 C367 1.382 . S
C371 C370 1.415 . S
C372 C370 1.501 . S
C372 C373 1.384 . S
C372 C377 1.408 . S
C373 H363 0.930 . S
C373 C372 1.384 . S
C373 C374 1.389 . S
C374 C373 1.389 . S
C374 C375 1.405 . S
C375 H364 0.930 . S
C375 C374 1.405 . S
C375 C376 1.364 . S
C376 C375 1.364 . S
C376 C377 1.400 . S
C377 H365 0.931 . S
C377 C372 1.408 . S
C377 C376 1.400 . S
H378 C384 0.930 . S
H379 C387 0.931 . S
H380 C389 0.931 . S
H381 C391 0.930 . S
H382 C393 0.930 . S
H383 C395 0.931 . S
C384 H378 0.930 . S
C384 C385 1.380 . S
C384 C386 1.394 . S
C385 C384 1.380 . S
C385 C389 1.382 . S
C386 C384 1.394 . S
C386 C387 1.400 . S
C387 H379 0.931 . S
C387 C386 1.400 . S
C387 C388 1.375 . S
C388 C387 1.375 . S
C388 C389 1.415 . S
C388 C390 1.501 . S
C389 H380 0.931 . S
C389 C385 1.382 . S
C389 C388 1.415 . S
C390 C388 1.501 . S
C390 C391 1.384 . S
C390 C395 1.408 . S
C391 H381 0.930 . S
C391 C390 1.384 . S
C391 C392 1.389 . S
C392 C391 1.389 . S
C392 C393 1.405 . S
C393 H382 0.930 . S
C393 C392 1.405 . S
C393 C394 1.364 . S
C394 C393 1.364 . S
C394 C395 1.400 . S
C395 H383 0.931 . S
C395 C390 1.408 . S
C395 C394 1.400 . S
H396 C402 0.930 . S
H397 C405 0.931 . S
H398 C407 0.931 . S
H399 C409 0.930 . S
H400 C411 0.930 . S
H401 C413 0.931 . S
C402 H396 0.930 . S
C402 C403 1.380 . S
C402 C404 1.394 . S
C403 C402 1.380 . S
C403 C407 1.382 . S
C404 C402 1.394 . S
C404 C405 1.400 . S
C405 H397 0.931 . S
C405 C404 1.400 . S
C405 C406 1.375 . S
C406 C405 1.375 . S
C406 C407 1.415 . S
C406 C408 1.501 . S
C407 H398 0.931 . S
C407 C403 1.382 . S
C407 C406 1.415 . S
C408 C406 1.501 . S
C408 C409 1.384 . S
C408 C413 1.408 . S
C409 H399 0.930 . S
C409 C408 1.384 . S
C409 C410 1.389 . S
C410 C409 1.389 . S
C410 C411 1.405 . S
C411 H400 0.930 . S
C411 C410 1.405 . S
C411 C412 1.364 . S
C412 C411 1.364 . S
C412 C413 1.400 . S
C413 H401 0.931 . S
C413 C408 1.408 . S
C413 C412 1.400 . S
H414 C420 0.967 . S
H415 C423 0.931 . S
H416 C425 0.931 . S
H417 C427 0.930 . S
H418 C429 0.892 . S
H419 C431 0.938 1_655 S
C420 H414 0.967 . S
C420 C421 1.382 . S
C420 C422 1.395 1_655 S
C421 C420 1.382 . S
C421 C425 1.382 . S
C422 C420 1.395 1_455 S
C422 C423 1.400 . S
C423 H415 0.931 . S
C423 C422 1.400 . S
C423 C424 1.375 . S
C424 C423 1.375 . S
C424 C425 1.415 1_455 S
C424 C426 1.501 . S
C425 H416 0.931 . S
C425 C421 1.382 . S
C425 C424 1.415 1_655 S
C426 C424 1.501 . S
C426 C427 1.384 . S
C426 C431 1.419 . S
C427 H417 0.930 . S
C427 C426 1.384 . S
C427 C428 1.389 . S
C428 C427 1.389 . S
C428 C429 1.429 . S
C429 H418 0.892 . S
C429 C428 1.429 . S
C429 C430 1.381 . S
C430 C429 1.381 . S
C430 C431 1.391 . S
C431 H419 0.938 1_455 S
C431 C426 1.419 . S
C431 C430 1.391 . S
H432 C438 0.930 . S
H433 C441 0.931 . S
H434 C443 0.931 . S
H435 C445 0.930 . S
H436 C447 0.930 . S
H437 C449 0.931 . S
C438 H432 0.930 . S
C438 C439 1.380 . S
C438 C440 1.394 . S
C439 C438 1.380 . S
C439 C443 1.382 . S
C440 C438 1.394 . S
C440 C441 1.400 . S
C441 H433 0.931 . S
C441 C440 1.400 . S
C441 C442 1.375 . S
C442 C441 1.375 . S
C442 C443 1.415 . S
C442 C444 1.501 . S
C443 H434 0.931 . S
C443 C439 1.382 . S
C443 C442 1.415 . S
C444 C442 1.501 . S
C444 C445 1.384 . S
C444 C449 1.408 . S
C445 H435 0.930 . S
C445 C444 1.384 . S
C445 C446 1.389 . S
C446 C445 1.389 . S
C446 C447 1.405 . S
C447 H436 0.930 . S
C447 C446 1.405 . S
C447 C448 1.364 . S
C448 C447 1.364 . S
C448 C449 1.400 . S
C449 H437 0.931 . S
C449 C444 1.408 . S
C449 C448 1.400 . S
H450 C456 0.956 . S
H451 C459 0.931 . S
H452 C461 0.931 . S
H453 C463 0.930 . S
H454 C465 0.930 . S
H455 C467 0.915 . S
C456 H450 0.956 . S
C456 C457 1.374 . S
C456 C458 1.376 1_545 S
C457 C456 1.374 . S
C457 C461 1.382 . S
C458 C456 1.376 1_565 S
C458 C459 1.400 . S
C459 H451 0.931 . S
C459 C458 1.400 . S
C459 C460 1.375 . S
C460 C459 1.375 . S
C460 C461 1.415 1_565 S
C460 C462 1.501 . S
C461 H452 0.931 . S
C461 C457 1.382 . S
C461 C460 1.415 1_545 S
C462 C460 1.501 . S
C462 C463 1.384 . S
C462 C467 1.398 . S
C463 H453 0.930 . S
C463 C462 1.384 . S
C463 C464 1.389 . S
C464 C463 1.389 . S
C464 C465 1.405 . S
C465 H454 0.930 . S
C465 C464 1.405 . S
C465 C466 1.379 . S
C466 C465 1.379 . S
C466 C467 1.402 . S
C467 H455 0.915 . S
C467 C462 1.398 . S
C467 C466 1.402 . S
H468 C474 0.919 . S
H469 C477 0.931 . S
H470 C479 0.927 1_545 S
H471 C481 0.930 . S
H472 C483 0.904 . S
H473 C485 0.931 . S
C474 H468 0.919 . S
C474 C475 1.381 . S
C474 C476 1.415 1_545 S
C475 C474 1.381 . S
C475 C479 1.396 1_545 S
C476 C474 1.415 1_565 S
C476 C477 1.370 . S
C477 H469 0.931 . S
C477 C476 1.370 . S
C477 C478 1.375 . S
C478 C477 1.375 . S
C478 C479 1.413 . S
C478 C480 1.501 . S
C479 H470 0.927 1_565 S
C479 C475 1.396 1_565 S
C479 C478 1.413 . S
C480 C478 1.501 . S
C480 C481 1.384 . S
C480 C485 1.408 1_565 S
C481 H471 0.930 . S
C481 C480 1.384 . S
C481 C482 1.389 . S
C482 C481 1.389 . S
C482 C483 1.428 . S
C483 H472 0.904 . S
C483 C482 1.428 . S
C483 C484 1.372 1_565 S
C484 C483 1.372 1_545 S
C484 C485 1.400 . S
C485 H473 0.931 . S
C485 C480 1.408 1_545 S
C485 C484 1.400 . S
H486 C492 0.960 . S
H487 C495 0.931 . S
H488 C497 0.933 1_655 S
H489 C499 0.930 . S
H490 C501 0.979 . S
H491 C503 0.931 . S
C492 H486 0.960 . S
C492 C493 1.378 . S
C492 C494 1.367 1_655 S
C493 C492 1.378 . S
C493 C497 1.361 1_655 S
C494 C492 1.367 1_455 S
C494 C495 1.428 . S
C495 H487 0.931 . S
C495 C494 1.428 . S
C495 C496 1.375 . S
C496 C495 1.375 . S
C496 C497 1.414 . S
C496 C498 1.501 . S
C497 H488 0.933 1_455 S
C497 C493 1.361 1_455 S
C497 C496 1.414 . S
C498 C496 1.501 . S
C498 C499 1.384 . S
C498 C503 1.408 1_455 S
C499 H489 0.930 . S
C499 C498 1.384 . S
C499 C500 1.389 . S
C500 C499 1.389 . S
C500 C501 1.396 . S
C501 H490 0.979 . S
C501 C500 1.396 . S
C501 C502 1.332 1_455 S
C502 C501 1.332 1_655 S
C502 C503 1.400 . S
C503 H491 0.931 . S
C503 C498 1.408 1_655 S
C503 C502 1.400 . S
H504 C510 0.930 . S
H505 C513 0.931 . S
H506 C515 0.931 . S
H507 C517 0.930 . S
H508 C519 0.930 . S
H509 C521 0.931 . S
C510 H504 0.930 . S
C510 C511 1.380 . S
C510 C512 1.394 . S
C511 C510 1.380 . S
C511 C515 1.382 . S
C512 C510 1.394 . S
C512 C513 1.400 . S
C513 H505 0.931 . S
C513 C512 1.400 . S
C513 C514 1.375 . S
C514 C513 1.375 . S
C514 C515 1.415 . S
C514 C516 1.501 . S
C515 H506 0.931 . S
C515 C511 1.382 . S
C515 C514 1.415 . S
C516 C514 1.501 . S
C516 C517 1.384 . S
C516 C521 1.408 . S
C517 H507 0.930 . S
C517 C516 1.384 . S
C517 C518 1.389 . S
C518 C517 1.389 . S
C518 C519 1.405 . S
C519 H508 0.930 . S
C519 C518 1.405 . S
C519 C520 1.364 . S
C520 C519 1.364 . S
C520 C521 1.400 . S
C521 H509 0.931 . S
C521 C516 1.408 . S
C521 C520 1.400 . S
H522 C528 0.930 . S
H523 C531 0.931 . S
H524 C533 0.931 . S
H525 C535 0.930 . S
H526 C537 0.930 . S
H527 C539 0.931 . S
C528 H522 0.930 . S
C528 C529 1.380 . S
C528 C530 1.394 . S
C529 C528 1.380 . S
C529 C533 1.382 . S
C530 C528 1.394 . S
C530 C531 1.400 . S
C531 H523 0.931 . S
C531 C530 1.400 . S
C531 C532 1.375 . S
C532 C531 1.375 . S
C532 C533 1.415 . S
C532 C534 1.501 . S
C533 H524 0.931 . S
C533 C529 1.382 . S
C533 C532 1.415 . S
C534 C532 1.501 . S
C534 C535 1.384 . S
C534 C539 1.408 . S
C535 H525 0.930 . S
C535 C534 1.384 . S
C535 C536 1.389 . S
C536 C535 1.389 . S
C536 C537 1.405 . S
C537 H526 0.930 . S
C537 C536 1.405 . S
C537 C538 1.364 . S
C538 C537 1.364 . S
C538 C539 1.400 . S
C539 H527 0.931 . S
C539 C534 1.408 . S
C539 C538 1.400 . S
H540 C546 0.930 . S
H541 C549 0.931 . S
H542 C551 0.931 . S
H543 C553 0.930 . S
H544 C555 0.930 . S
H545 C557 0.931 . S
C546 H540 0.930 . S
C546 C547 1.380 . S
C546 C548 1.394 . S
C547 C546 1.380 . S
C547 C551 1.382 . S
C548 C546 1.394 . S
C548 C549 1.400 . S
C549 H541 0.931 . S
C549 C548 1.400 . S
C549 C550 1.375 . S
C550 C549 1.375 . S
C550 C551 1.415 . S
C550 C552 1.501 . S
C551 H542 0.931 . S
C551 C547 1.382 . S
C551 C550 1.415 . S
C552 C550 1.501 . S
C552 C553 1.384 . S
C552 C557 1.408 . S
C553 H543 0.930 . S
C553 C552 1.384 . S
C553 C554 1.389 . S
C554 C553 1.389 . S
C554 C555 1.405 . S
C555 H544 0.930 . S
C555 C554 1.405 . S
C555 C556 1.364 . S
C556 C555 1.364 . S
C556 C557 1.400 . S
C557 H545 0.931 . S
C557 C552 1.408 . S
C557 C556 1.400 . S
H558 C564 0.930 . S
H559 C567 0.931 . S
H560 C569 0.931 . S
H561 C571 0.930 . S
H562 C573 0.930 . S
H563 C575 0.931 . S
C564 H558 0.930 . S
C564 C565 1.380 . S
C564 C566 1.394 . S
C565 C564 1.380 . S
C565 C569 1.382 . S
C566 C564 1.394 . S
C566 C567 1.400 . S
C567 H559 0.931 . S
C567 C566 1.400 . S
C567 C568 1.375 . S
C568 C567 1.375 . S
C568 C569 1.415 . S
C568 C570 1.501 . S
C569 H560 0.931 . S
C569 C565 1.382 . S
C569 C568 1.415 . S
C570 C568 1.501 . S
C570 C571 1.384 . S
C570 C575 1.408 . S
C571 H561 0.930 . S
C571 C570 1.384 . S
C571 C572 1.389 . S
C572 C571 1.389 . S
C572 C573 1.405 . S
C573 H562 0.930 . S
C573 C572 1.405 . S
C573 C574 1.364 . S
C574 C573 1.364 . S
C574 C575 1.400 . S
C575 H563 0.931 . S
C575 C570 1.408 . S
C575 C574 1.400 . S
C576 C577 1.328 1_455 S
C576 C578 1.327 . S
C576 H601 0.950 . S
C577 C576 1.328 1_655 S
C577 C593 1.390 . S
C578 C576 1.327 . S
C578 C597 1.429 1_455 S
C578 H602 0.950 . S
C579 C596 1.574 . S
C579 C598 1.368 . S
C579 H603 0.949 . S
H580 C584 0.949 . S
C581 C582 1.349 . S
C581 C583 1.327 . S
C581 H604 0.950 . S
C582 C581 1.349 . S
C582 C594 1.349 1_655 S
C583 C581 1.327 . S
C583 C599 1.429 . S
C583 H605 0.950 . S
C584 H580 0.949 . S
C584 C592 1.574 . S
C584 C600 1.368 1_455 S
H585 C593 0.950 . S
H586 C591 0.950 . S
H587 C592 0.949 . S
H588 C594 0.950 . S
H589 C595 0.950 . S
H590 C596 0.949 . S
C591 H586 0.950 . S
C591 C593 1.327 . S
C591 C597 1.429 . S
C592 C584 1.574 . S
C592 H587 0.949 . S
C592 C598 1.368 1_455 S
C593 C577 1.390 . S
C593 H585 0.950 . S
C593 C591 1.327 . S
C594 C582 1.349 1_455 S
C594 H588 0.950 . S
C594 C595 1.327 . S
C595 H589 0.950 . S
C595 C594 1.327 . S
C595 C599 1.429 1_455 S
C596 C579 1.574 . S
C596 H590 0.949 . S
C596 C600 1.368 . S
C597 C578 1.429 1_655 S
C597 C591 1.429 . S
C597 C598 1.523 . S
C598 C579 1.368 . S
C598 C592 1.368 1_655 S
C598 C597 1.523 . S
C599 C583 1.429 . S
C599 C595 1.429 1_655 S
C599 C600 1.523 . S
C600 C584 1.368 1_655 S
C600 C596 1.368 . S
C600 C599 1.523 . S
H601 C576 0.950 . S
H602 C578 0.950 . S
H603 C579 0.949 . S
H604 C581 0.950 . S
H605 C583 0.950 . S
C606 C607 1.349 . S
C606 C608 1.327 . S
C606 H631 0.950 . S
C607 C606 1.349 . S
C607 C623 1.349 . S
C608 C606 1.327 . S
C608 C627 1.429 . S
C608 H632 0.950 . S
C609 C626 1.574 . S
C609 C628 1.368 . S
C609 H633 0.949 . S
H610 C614 0.949 . S
C611 C612 1.349 . S
C611 C613 1.327 . S
C611 H634 0.950 . S
C612 C611 1.349 . S
C612 C624 1.349 . S
C613 C611 1.327 . S
C613 C629 1.429 . S
C613 H635 0.950 . S
C614 H610 0.949 . S
C614 C622 1.574 . S
C614 C630 1.368 . S
H615 C623 0.950 . S
H616 C621 0.950 . S
H617 C622 0.949 . S
H618 C624 0.950 . S
H619 C625 0.950 . S
H620 C626 0.949 . S
C621 H616 0.950 . S
C621 C623 1.327 . S
C621 C627 1.429 . S
C622 C614 1.574 . S
C622 H617 0.949 . S
C622 C628 1.368 . S
C623 C607 1.349 . S
C623 H615 0.950 . S
C623 C621 1.327 . S
C624 C612 1.349 . S
C624 H618 0.950 . S
C624 C625 1.327 . S
C625 H619 0.950 . S
C625 C624 1.327 . S
C625 C629 1.429 . S
C626 C609 1.574 . S
C626 H620 0.949 . S
C626 C630 1.368 . S
C627 C608 1.429 . S
C627 C621 1.429 . S
C627 C628 1.523 . S
C628 C609 1.368 . S
C628 C622 1.368 . S
C628 C627 1.523 . S
C629 C613 1.429 . S
C629 C625 1.429 . S
C629 C630 1.523 . S
C630 C614 1.368 . S
C630 C626 1.368 . S
C630 C629 1.523 . S
H631 C606 0.950 . S
H632 C608 0.950 . S
H633 C609 0.949 . S
H634 C611 0.950 . S
H635 C613 0.950 . S
C636 C637 1.349 . S
C636 C638 1.327 . S
C636 H661 0.950 . S
C637 C636 1.349 . S
C637 C653 1.349 1_545 S
C638 C636 1.327 . S
C638 C657 1.429 . S
C638 H662 0.950 . S
C639 C656 1.574 . S
C639 C658 1.368 1_565 S
C639 H663 0.949 . S
H640 C644 0.949 . S
C641 C642 1.349 1_565 S
C641 C643 1.327 . S
C641 H664 0.950 . S
C642 C641 1.349 1_545 S
C642 C654 1.349 . S
C643 C641 1.327 . S
C643 C659 1.429 1_565 S
C643 H665 0.950 . S
C644 H640 0.949 . S
C644 C652 1.574 . S
C644 C660 1.368 . S
H645 C653 0.950 . S
H646 C651 0.950 . S
H647 C652 0.949 . S
H648 C654 0.950 . S
H649 C655 0.950 . S
H650 C656 0.949 . S
C651 H646 0.950 . S
C651 C653 1.327 . S
C651 C657 1.429 1_565 S
C652 C644 1.574 . S
C652 H647 0.949 . S
C652 C658 1.368 . S
C653 C637 1.349 1_565 S
C653 H645 0.950 . S
C653 C651 1.327 . S
C654 C642 1.349 . S
C654 H648 0.950 . S
C654 C655 1.327 . S
C655 H649 0.950 . S
C655 C654 1.327 . S
C655 C659 1.429 . S
C656 C639 1.574 . S
C656 H650 0.949 . S
C656 C660 1.368 1_565 S
C657 C638 1.429 . S
C657 C651 1.429 1_545 S
C657 C658 1.523 . S
C658 C639 1.368 1_545 S
C658 C652 1.368 . S
C658 C657 1.523 . S
C659 C643 1.429 1_545 S
C659 C655 1.429 . S
C659 C660 1.523 . S
C660 C644 1.368 . S
C660 C656 1.368 1_545 S
C660 C659 1.523 . S
H661 C636 0.950 . S
H662 C638 0.950 . S
H663 C639 0.949 . S
H664 C641 0.950 . S
H665 C643 0.950 . S
C666 C667 1.361 . S
C666 C668 1.327 . S
C666 H691 0.950 . S
C667 C666 1.361 . S
C667 C683 1.320 1_545 S
C668 C666 1.327 . S
C668 C687 1.406 1_545 S
C668 H692 0.950 . S
C669 C686 1.574 . S
C669 C688 1.427 . S
C669 H693 0.949 . S
H670 C674 0.949 . S
C671 C672 1.349 . S
C671 C673 1.327 . S
C671 H694 0.950 . S
C672 C671 1.349 . S
C672 C684 1.349 1_565 S
C673 C671 1.327 . S
C673 C689 1.429 . S
C673 H695 0.950 . S
C674 H670 0.949 . S
C674 C682 1.574 . S
C674 C690 1.368 1_545 S
H675 C683 0.950 . S
H676 C681 0.950 . S
H677 C682 0.949 . S
H678 C684 0.950 . S
H679 C685 0.950 . S
H680 C686 0.949 . S
C681 H676 0.950 . S
C681 C683 1.327 . S
C681 C687 1.437 . S
C682 C674 1.574 . S
C682 H677 0.949 . S
C682 C688 1.340 1_545 S
C683 C667 1.320 1_565 S
C683 H675 0.950 . S
C683 C681 1.327 . S
C684 C672 1.349 1_545 S
C684 H678 0.950 . S
C684 C685 1.327 . S
C685 H679 0.950 . S
C685 C684 1.327 . S
C685 C689 1.429 1_545 S
C686 C669 1.574 . S
C686 H680 0.949 . S
C686 C690 1.368 . S
C687 C668 1.406 1_565 S
C687 C681 1.437 . S
C687 C688 1.502 . S
C688 C669 1.427 . S
C688 C682 1.340 1_565 S
C688 C687 1.502 . S
C689 C673 1.429 . S
C689 C685 1.429 1_565 S
C689 C690 1.523 . S
C690 C674 1.368 1_565 S
C690 C686 1.368 . S
C690 C689 1.523 . S
H691 C666 0.950 . S
H692 C668 0.950 . S
H693 C669 0.949 . S
H694 C671 0.950 . S
H695 C673 0.950 . S
C696 C697 1.349 1_655 S
C696 C698 1.327 . S
C696 H721 0.950 . S
C697 C696 1.349 1_455 S
C697 C713 1.349 . S
C698 C696 1.327 . S
C698 C717 1.429 1_655 S
C698 H722 0.950 . S
C699 C716 1.574 . S
C699 C718 1.368 . S
C699 H723 0.949 . S
H700 C704 0.949 . S
C701 C702 1.349 . S
C701 C703 1.327 . S
C701 H724 0.950 . S
C702 C701 1.349 . S
C702 C714 1.349 1_455 S
C703 C701 1.327 . S
C703 C719 1.429 . S
C703 H725 0.950 . S
C704 H700 0.949 . S
C704 C712 1.574 . S
C704 C720 1.368 1_655 S
H705 C713 0.950 . S
H706 C711 0.950 . S
H707 C712 0.949 . S
H708 C714 0.950 . S
H709 C715 0.950 . S
H710 C716 0.949 . S
C711 H706 0.950 . S
C711 C713 1.327 . S
C711 C717 1.429 . S
C712 C704 1.574 . S
C712 H707 0.949 . S
C712 C718 1.368 1_655 S
C713 C697 1.349 . S
C713 H705 0.950 . S
C713 C711 1.327 . S
C714 C702 1.349 1_655 S
C714 H708 0.950 . S
C714 C715 1.327 . S
C715 H709 0.950 . S
C715 C714 1.327 . S
C715 C719 1.429 1_655 S
C716 C699 1.574 . S
C716 H710 0.949 . S
C716 C720 1.368 . S
C717 C698 1.429 1_455 S
C717 C711 1.429 . S
C717 C718 1.523 . S
C718 C699 1.368 . S
C718 C712 1.368 1_455 S
C718 C717 1.523 . S
C719 C703 1.429 . S
C719 C715 1.429 1_455 S
C719 C720 1.523 . S
C720 C704 1.368 1_455 S
C720 C716 1.368 . S
C720 C719 1.523 . S
H721 C696 0.950 . S
H722 C698 0.950 . S
H723 C699 0.949 . S
H724 C701 0.950 . S
H725 C703 0.950 . S
C726 C727 1.349 . S
C726 C728 1.327 . S
C726 H751 0.950 . S
C727 C726 1.349 . S
C727 C743 1.349 . S
C728 C726 1.327 . S
C728 C747 1.429 . S
C728 H752 0.950 . S
C729 C746 1.574 . S
C729 C748 1.368 . S
C729 H753 0.949 . S
H730 C734 0.949 . S
C731 C732 1.349 . S
C731 C733 1.327 . S
C731 H754 0.950 . S
C732 C731 1.349 . S
C732 C744 1.349 . S
C733 C731 1.327 . S
C733 C749 1.429 . S
C733 H755 0.950 . S
C734 H730 0.949 . S
C734 C742 1.574 . S
C734 C750 1.368 . S
H735 C743 0.950 . S
H736 C741 0.950 . S
H737 C742 0.949 . S
H738 C744 0.950 . S
H739 C745 0.950 . S
H740 C746 0.949 . S
C741 H736 0.950 . S
C741 C743 1.327 . S
C741 C747 1.429 . S
C742 C734 1.574 . S
C742 H737 0.949 . S
C742 C748 1.368 . S
C743 C727 1.349 . S
C743 H735 0.950 . S
C743 C741 1.327 . S
C744 C732 1.349 . S
C744 H738 0.950 . S
C744 C745 1.327 . S
C745 H739 0.950 . S
C745 C744 1.327 . S
C745 C749 1.429 . S
C746 C729 1.574 . S
C746 H740 0.949 . S
C746 C750 1.368 . S
C747 C728 1.429 . S
C747 C741 1.429 . S
C747 C748 1.523 . S
C748 C729 1.368 . S
C748 C742 1.368 . S
C748 C747 1.523 . S
C749 C733 1.429 . S
C749 C745 1.429 . S
C749 C750 1.523 . S
C750 C734 1.368 . S
C750 C746 1.368 . S
C750 C749 1.523 . S
H751 C726 0.950 . S
H752 C728 0.950 . S
H753 C729 0.949 . S
H754 C731 0.950 . S
H755 C733 0.950 . S
C756 C757 1.349 . S
C756 C758 1.327 . S
C756 H781 0.950 . S
C757 C756 1.349 . S
C757 C773 1.349 1_455 S
C758 C756 1.327 . S
C758 C777 1.429 . S
C758 H782 0.950 . S
C759 C776 1.574 . S
C759 C778 1.368 1_655 S
C759 H783 0.949 . S
H760 C764 0.949 . S
C761 C762 1.376 . S
C761 C763 1.327 . S
C761 H784 0.950 . S
C762 C761 1.376 . S
C762 C774 1.334 1_655 S
C763 C761 1.327 . S
C763 C779 1.412 1_655 S
C763 H785 0.950 . S
C764 H760 0.949 . S
C764 C772 1.574 . S
C764 C780 1.421 . S
H765 C773 0.950 . S
H766 C771 0.950 . S
H767 C772 0.949 . S
H768 C774 0.950 . S
H769 C775 0.950 . S
H770 C776 0.949 . S
C771 H766 0.950 . S
C771 C773 1.327 . S
C771 C777 1.429 1_655 S
C772 C764 1.574 . S
C772 H767 0.949 . S
C772 C778 1.368 . S
C773 C757 1.349 1_655 S
C773 H765 0.950 . S
C773 C771 1.327 . S
C774 C762 1.334 1_455 S
C774 H768 0.950 . S
C774 C775 1.327 . S
C775 H769 0.950 . S
C775 C774 1.327 . S
C775 C779 1.462 . S
C776 C759 1.574 . S
C776 H770 0.949 . S
C776 C780 1.293 1_655 S
C777 C758 1.429 . S
C777 C771 1.429 1_455 S
C777 C778 1.523 . S
C778 C759 1.368 1_455 S
C778 C772 1.368 . S
C778 C777 1.523 . S
C779 C763 1.412 1_455 S
C779 C775 1.462 . S
C779 C780 1.542 . S
C780 C764 1.421 . S
C780 C776 1.293 1_455 S
C780 C779 1.542 . S
H781 C756 0.950 . S
H782 C758 0.950 . S
H783 C759 0.949 . S
H784 C761 0.950 . S
H785 C763 0.950 . S
C786 C787 1.349 . S
C786 C788 1.327 . S
C786 H811 0.950 . S
C787 C786 1.349 . S
C787 C803 1.349 . S
C788 C786 1.327 . S
C788 C807 1.429 . S
C788 H812 0.950 . S
C789 C806 1.574 . S
C789 C808 1.368 . S
C789 H813 0.949 . S
H790 C794 0.949 . S
C791 C792 1.349 . S
C791 C793 1.327 . S
C791 H814 0.950 . S
C792 C791 1.349 . S
C792 C804 1.349 . S
C793 C791 1.327 . S
C793 C809 1.429 . S
C793 H815 0.950 . S
C794 H790 0.949 . S
C794 C802 1.574 . S
C794 C810 1.368 . S
H795 C803 0.950 . S
H796 C801 0.950 . S
H797 C802 0.949 . S
H798 C804 0.950 . S
H799 C805 0.950 . S
H800 C806 0.949 . S
C801 H796 0.950 . S
C801 C803 1.327 . S
C801 C807 1.429 . S
C802 C794 1.574 . S
C802 H797 0.949 . S
C802 C808 1.368 . S
C803 C787 1.349 . S
C803 H795 0.950 . S
C803 C801 1.327 . S
C804 C792 1.349 . S
C804 H798 0.950 . S
C804 C805 1.327 . S
C805 H799 0.950 . S
C805 C804 1.327 . S
C805 C809 1.429 . S
C806 C789 1.574 . S
C806 H800 0.949 . S
C806 C810 1.368 . S
C807 C788 1.429 . S
C807 C801 1.429 . S
C807 C808 1.523 . S
C808 C789 1.368 . S
C808 C802 1.368 . S
C808 C807 1.523 . S
C809 C793 1.429 . S
C809 C805 1.429 . S
C809 C810 1.523 . S
C810 C794 1.368 . S
C810 C806 1.368 . S
C810 C809 1.523 . S
H811 C786 0.950 . S
H812 C788 0.950 . S
H813 C789 0.949 . S
H814 C791 0.950 . S
H815 C793 0.950 . S
C816 C817 1.349 . S
C816 C818 1.327 . S
C816 H841 0.950 . S
C817 C816 1.349 . S
C817 C833 1.349 1_565 S
C818 C816 1.327 . S
C818 C837 1.468 . S
C818 H842 0.950 . S
C819 C836 1.574 . S
C819 C838 1.344 1_545 S
C819 H843 0.949 . S
H820 C824 0.949 . S
C821 C822 1.358 . S
C821 C823 1.327 . S
C821 H844 0.950 . S
C822 C821 1.358 . S
C822 C834 1.327 1_545 S
C823 C821 1.327 . S
C823 C839 1.427 . S
C823 H845 0.950 . S
C824 H820 0.949 . S
C824 C832 1.574 . S
C824 C840 1.370 . S
H825 C833 0.950 . S
H826 C831 0.950 . S
H827 C832 0.949 . S
H828 C834 0.950 . S
H829 C835 0.950 . S
H830 C836 0.949 . S
C831 H826 0.950 . S
C831 C833 1.327 . S
C831 C837 1.417 1_545 S
C832 C824 1.574 . S
C832 H827 0.949 . S
C832 C838 1.381 . S
C833 C817 1.349 1_545 S
C833 H825 0.950 . S
C833 C831 1.327 . S
C834 C822 1.327 1_565 S
C834 H828 0.950 . S
C834 C835 1.327 . S
C835 H829 0.950 . S
C835 C834 1.327 . S
C835 C839 1.429 1_565 S
C836 C819 1.574 . S
C836 H830 0.949 . S
C836 C840 1.367 1_545 S
C837 C818 1.468 . S
C837 C831 1.417 1_565 S
C837 C838 1.515 . S
C838 C819 1.344 1_565 S
C838 C832 1.381 . S
C838 C837 1.515 . S
C839 C823 1.427 . S
C839 C835 1.429 1_545 S
C839 C840 1.523 1_545 S
C840 C824 1.370 . S
C840 C836 1.367 1_565 S
C840 C839 1.523 1_565 S
H841 C816 0.950 . S
H842 C818 0.950 . S
H843 C819 0.949 . S
H844 C821 0.950 . S
H845 C823 0.950 . S
C846 C847 1.349 1_565 S
C846 C848 1.327 . S
C846 H871 0.950 . S
C847 C846 1.349 1_545 S
C847 C863 1.349 . S
C848 C846 1.327 . S
C848 C867 1.429 1_565 S
C848 H872 0.950 . S
C849 C866 1.574 . S
C849 C868 1.368 . S
C849 H873 0.949 . S
H850 C854 0.949 . S
C851 C852 1.327 1_545 S
C851 C853 1.327 . S
C851 H874 0.950 . S
C852 C851 1.327 1_565 S
C852 C864 1.384 . S
C853 C851 1.327 . S
C853 C869 1.440 . S
C853 H875 0.950 . S
C854 H850 0.949 . S
C854 C862 1.574 . S
C854 C870 1.320 1_565 S
H855 C863 0.950 . S
H856 C861 0.950 . S
H857 C862 0.949 . S
H858 C864 0.950 . S
H859 C865 0.950 . S
H860 C866 0.949 . S
C861 H856 0.950 . S
C861 C863 1.327 . S
C861 C867 1.429 . S
C862 C854 1.574 . S
C862 H857 0.949 . S
C862 C868 1.368 1_565 S
C863 C847 1.349 . S
C863 H855 0.950 . S
C863 C861 1.327 . S
C864 C852 1.384 . S
C864 H858 0.950 . S
C864 C865 1.327 . S
C865 H859 0.950 . S
C865 C864 1.327 . S
C865 C869 1.422 1_565 S
C866 C849 1.574 . S
C866 H860 0.949 . S
C866 C870 1.403 . S
C867 C848 1.429 1_545 S
C867 C861 1.429 . S
C867 C868 1.523 . S
C868 C849 1.368 . S
C868 C862 1.368 1_545 S
C868 C867 1.523 . S
C869 C853 1.440 . S
C869 C865 1.422 1_545 S
C869 C870 1.537 . S
C870 C854 1.320 1_545 S
C870 C866 1.403 . S
C870 C869 1.537 . S
H871 C846 0.950 . S
H872 C848 0.950 . S
H873 C849 0.949 . S
H874 C851 0.950 . S
H875 C853 0.950 . S
C876 C877 1.334 . S
C876 C878 1.327 . S
C876 H901 0.950 . S
C877 C876 1.334 . S
C877 C893 1.344 1_655 S
C878 C876 1.327 . S
C878 C897 1.433 . S
C878 H902 0.950 . S
C879 C896 1.574 . S
C879 C898 1.367 1_455 S
C879 H903 0.949 . S
H880 C884 0.949 . S
C881 C882 1.340 . S
C881 C883 1.327 . S
C881 H904 0.950 . S
C882 C881 1.340 . S
C882 C894 1.346 1_455 S
C883 C881 1.327 . S
C883 C899 1.429 . S
C883 H905 0.950 . S
C884 H880 0.949 . S
C884 C892 1.574 . S
C884 C900 1.369 1_655 S
H885 C893 0.950 . S
H886 C891 0.950 . S
H887 C892 0.949 . S
H888 C894 0.950 . S
H889 C895 0.950 . S
H890 C896 0.949 . S
C891 H886 0.950 . S
C891 C893 1.327 . S
C891 C897 1.438 1_455 S
C892 C884 1.574 . S
C892 H887 0.949 . S
C892 C898 1.365 . S
C893 C877 1.344 1_455 S
C893 H885 0.950 . S
C893 C891 1.327 . S
C894 C882 1.346 1_655 S
C894 H888 0.950 . S
C894 C895 1.327 . S
C895 H889 0.950 . S
C895 C894 1.327 . S
C895 C899 1.430 1_655 S
C896 C879 1.574 . S
C896 H890 0.949 . S
C896 C900 1.371 . S
C897 C878 1.433 . S
C897 C891 1.438 1_655 S
C897 C898 1.517 . S
C898 C879 1.367 1_655 S
C898 C892 1.365 . S
C898 C897 1.517 . S
C899 C883 1.429 . S
C899 C895 1.430 1_455 S
C899 C900 1.517 . S
C900 C884 1.369 1_455 S
C900 C896 1.371 . S
C900 C899 1.517 . S
H901 C876 0.950 . S
H902 C878 0.950 . S
H903 C879 0.949 . S
H904 C881 0.950 . S
H905 C883 0.950 . S
C906 C907 1.349 . S
C906 C908 1.327 . S
C906 H931 0.950 . S
C907 C906 1.349 . S
C907 C923 1.349 . S
C908 C906 1.327 . S
C908 C927 1.429 . S
C908 H932 0.950 . S
C909 C926 1.574 . S
C909 C928 1.368 . S
C909 H933 0.949 . S
H910 C914 0.949 . S
C911 C912 1.349 . S
C911 C913 1.327 . S
C911 H934 0.950 . S
C912 C911 1.349 . S
C912 C924 1.349 . S
C913 C911 1.327 . S
C913 C929 1.429 . S
C913 H935 0.950 . S
C914 H910 0.949 . S
C914 C922 1.574 . S
C914 C930 1.368 . S
H915 C923 0.950 . S
H916 C921 0.950 . S
H917 C922 0.949 . S
H918 C924 0.950 . S
H919 C925 0.950 . S
H920 C926 0.949 . S
C921 H916 0.950 . S
C921 C923 1.327 . S
C921 C927 1.429 . S
C922 C914 1.574 . S
C922 H917 0.949 . S
C922 C928 1.368 . S
C923 C907 1.349 . S
C923 H915 0.950 . S
C923 C921 1.327 . S
C924 C912 1.349 . S
C924 H918 0.950 . S
C924 C925 1.327 . S
C925 H919 0.950 . S
C925 C924 1.327 . S
C925 C929 1.429 . S
C926 C909 1.574 . S
C926 H920 0.949 . S
C926 C930 1.368 . S
C927 C908 1.429 . S
C927 C921 1.429 . S
C927 C928 1.523 . S
C928 C909 1.368 . S
C928 C922 1.368 . S
C928 C927 1.523 . S
C929 C913 1.429 . S
C929 C925 1.429 . S
C929 C930 1.523 . S
C930 C914 1.368 . S
C930 C926 1.368 . S
C930 C929 1.523 . S
H931 C906 0.950 . S
H932 C908 0.950 . S
H933 C909 0.949 . S
H934 C911 0.950 . S
H935 C913 0.950 . S
C936 C937 1.349 . S
C936 C938 1.327 . S
C936 H961 0.950 . S
C937 C936 1.349 . S
C937 C953 1.349 . S
C938 C936 1.327 . S
C938 C957 1.429 . S
C938 H962 0.950 . S
C939 C956 1.574 . S
C939 C958 1.368 . S
C939 H963 0.949 . S
H940 C944 0.949 . S
C941 C942 1.349 . S
C941 C943 1.327 . S
C941 H964 0.950 . S
C942 C941 1.349 . S
C942 C954 1.349 . S
C943 C941 1.327 . S
C943 C959 1.429 . S
C943 H965 0.950 . S
C944 H940 0.949 . S
C944 C952 1.574 . S
C944 C960 1.368 . S
H945 C953 0.950 . S
H946 C951 0.950 . S
H947 C952 0.949 . S
H948 C954 0.950 . S
H949 C955 0.950 . S
H950 C956 0.949 . S
C951 H946 0.950 . S
C951 C953 1.327 . S
C951 C957 1.429 . S
C952 C944 1.574 . S
C952 H947 0.949 . S
C952 C958 1.368 . S
C953 C937 1.349 . S
C953 H945 0.950 . S
C953 C951 1.327 . S
C954 C942 1.349 . S
C954 H948 0.950 . S
C954 C955 1.327 . S
C955 H949 0.950 . S
C955 C954 1.327 . S
C955 C959 1.429 . S
C956 C939 1.574 . S
C956 H950 0.949 . S
C956 C960 1.368 . S
C957 C938 1.429 . S
C957 C951 1.429 . S
C957 C958 1.523 . S
C958 C939 1.368 . S
C958 C952 1.368 . S
C958 C957 1.523 . S
C959 C943 1.429 . S
C959 C955 1.429 . S
C959 C960 1.523 . S
C960 C944 1.368 . S
C960 C956 1.368 . S
C960 C959 1.523 . S
H961 C936 0.950 . S
H962 C938 0.950 . S
H963 C939 0.949 . S
H964 C941 0.950 . S
H965 C943 0.950 . S
C966 C967 1.349 . S
C966 C968 1.327 . S
C966 H991 0.950 . S
C967 C966 1.349 . S
C967 C983 1.349 . S
C968 C966 1.327 . S
C968 C987 1.429 . S
C968 H992 0.950 . S
C969 C986 1.574 . S
C969 C988 1.368 . S
C969 H993 0.949 . S
H970 C974 0.949 . S
C971 C972 1.349 . S
C971 C973 1.327 . S
C971 H994 0.950 . S
C972 C971 1.349 . S
C972 C984 1.349 . S
C973 C971 1.327 . S
C973 C989 1.429 . S
C973 H995 0.950 . S
C974 H970 0.949 . S
C974 C982 1.574 . S
C974 C990 1.368 . S
H975 C983 0.950 . S
H976 C981 0.950 . S
H977 C982 0.949 . S
H978 C984 0.950 . S
H979 C985 0.950 . S
H980 C986 0.949 . S
C981 H976 0.950 . S
C981 C983 1.327 . S
C981 C987 1.429 . S
C982 C974 1.574 . S
C982 H977 0.949 . S
C982 C988 1.368 . S
C983 C967 1.349 . S
C983 H975 0.950 . S
C983 C981 1.327 . S
C984 C972 1.349 . S
C984 H978 0.950 . S
C984 C985 1.327 . S
C985 H979 0.950 . S
C985 C984 1.327 . S
C985 C989 1.429 . S
C986 C969 1.574 . S
C986 H980 0.949 . S
C986 C990 1.368 . S
C987 C968 1.429 . S
C987 C981 1.429 . S
C987 C988 1.523 . S
C988 C969 1.368 . S
C988 C982 1.368 . S
C988 C987 1.523 . S
C989 C973 1.429 . S
C989 C985 1.429 . S
C989 C990 1.523 . S
C990 C974 1.368 . S
C990 C986 1.368 . S
C990 C989 1.523 . S
H991 C966 0.950 . S
H992 C968 0.950 . S
H993 C969 0.949 . S
H994 C971 0.950 . S
H995 C973 0.950 . S
C996 C997 1.349 . S
C996 C998 1.327 . S
C996 H1021 0.950 . S
C997 C996 1.349 . S
C997 C1013 1.349 . S
C998 C996 1.327 . S
C998 C1017 1.429 . S
C998 H1022 0.950 . S
C999 C1016 1.574 . S
C999 C1018 1.368 . S
C999 H1023 0.949 . S
H1000 C1004 0.949 . S
C1001 C1002 1.349 . S
C1001 C1003 1.327 . S
C1001 H1024 0.950 . S
C1002 C1001 1.349 . S
C1002 C1014 1.349 . S
C1003 C1001 1.327 . S
C1003 C1019 1.429 . S
C1003 H1025 0.950 . S
C1004 H1000 0.949 . S
C1004 C1012 1.574 . S
C1004 C1020 1.368 . S
H1005 C1013 0.950 . S
H1006 C1011 0.950 . S
H1007 C1012 0.949 . S
H1008 C1014 0.950 . S
H1009 C1015 0.950 . S
H1010 C1016 0.949 . S
C1011 H1006 0.950 . S
C1011 C1013 1.327 . S
C1011 C1017 1.429 . S
C1012 C1004 1.574 . S
C1012 H1007 0.949 . S
C1012 C1018 1.368 . S
C1013 C997 1.349 . S
C1013 H1005 0.950 . S
C1013 C1011 1.327 . S
C1014 C1002 1.349 . S
C1014 H1008 0.950 . S
C1014 C1015 1.327 . S
C1015 H1009 0.950 . S
C1015 C1014 1.327 . S
C1015 C1019 1.429 . S
C1016 C999 1.574 . S
C1016 H1010 0.949 . S
C1016 C1020 1.368 . S
C1017 C998 1.429 . S
C1017 C1011 1.429 . S
C1017 C1018 1.523 . S
C1018 C999 1.368 . S
C1018 C1012 1.368 . S
C1018 C1017 1.523 . S
C1019 C1003 1.429 . S
C1019 C1015 1.429 . S
C1019 C1020 1.523 . S
C1020 C1004 1.368 . S
C1020 C1016 1.368 . S
C1020 C1019 1.523 . S
H1021 C996 0.950 . S
H1022 C998 0.950 . S
H1023 C999 0.949 . S
H1024 C1001 0.950 . S
H1025 C1003 0.950 . S
C1026 C1027 1.349 . S
C1026 C1028 1.327 . S
C1026 H1051 0.950 . S
C1027 C1026 1.349 . S
C1027 C1043 1.349 . S
C1028 C1026 1.327 . S
C1028 C1047 1.429 . S
C1028 H1052 0.950 . S
C1029 C1046 1.574 . S
C1029 C1048 1.368 . S
C1029 H1053 0.949 . S
H1030 C1034 0.949 . S
C1031 C1032 1.349 . S
C1031 C1033 1.327 . S
C1031 H1054 0.950 . S
C1032 C1031 1.349 . S
C1032 C1044 1.349 . S
C1033 C1031 1.327 . S
C1033 C1049 1.429 . S
C1033 H1055 0.950 . S
C1034 H1030 0.949 . S
C1034 C1042 1.574 . S
C1034 C1050 1.368 . S
H1035 C1043 0.950 . S
H1036 C1041 0.950 . S
H1037 C1042 0.949 . S
H1038 C1044 0.950 . S
H1039 C1045 0.950 . S
H1040 C1046 0.949 . S
C1041 H1036 0.950 . S
C1041 C1043 1.327 . S
C1041 C1047 1.429 . S
C1042 C1034 1.574 . S
C1042 H1037 0.949 . S
C1042 C1048 1.368 . S
C1043 C1027 1.349 . S
C1043 H1035 0.950 . S
C1043 C1041 1.327 . S
C1044 C1032 1.349 . S
C1044 H1038 0.950 . S
C1044 C1045 1.327 . S
C1045 H1039 0.950 . S
C1045 C1044 1.327 . S
C1045 C1049 1.429 . S
C1046 C1029 1.574 . S
C1046 H1040 0.949 . S
C1046 C1050 1.368 . S
C1047 C1028 1.429 . S
C1047 C1041 1.429 . S
C1047 C1048 1.523 . S
C1048 C1029 1.368 . S
C1048 C1042 1.368 . S
C1048 C1047 1.523 . S
C1049 C1033 1.429 . S
C1049 C1045 1.429 . S
C1049 C1050 1.523 . S
C1050 C1034 1.368 . S
C1050 C1046 1.368 . S
C1050 C1049 1.523 . S
H1051 C1026 0.950 . S
H1052 C1028 0.950 . S
H1053 C1029 0.949 . S
H1054 C1031 0.950 . S
H1055 C1033 0.950 . S
C1056 C1057 1.349 . S
C1056 C1058 1.327 . S
C1056 H1081 0.950 . S
C1057 C1056 1.349 . S
C1057 C1073 1.349 . S
C1058 C1056 1.327 . S
C1058 C1077 1.429 . S
C1058 H1082 0.950 . S
C1059 C1076 1.574 . S
C1059 C1078 1.368 . S
C1059 H1083 0.949 . S
H1060 C1064 0.949 . S
C1061 C1062 1.349 . S
C1061 C1063 1.327 . S
C1061 H1084 0.950 . S
C1062 C1061 1.349 . S
C1062 C1074 1.349 . S
C1063 C1061 1.327 . S
C1063 C1079 1.429 . S
C1063 H1085 0.950 . S
C1064 H1060 0.949 . S
C1064 C1072 1.574 . S
C1064 C1080 1.368 . S
H1065 C1073 0.950 . S
H1066 C1071 0.950 . S
H1067 C1072 0.949 . S
H1068 C1074 0.950 . S
H1069 C1075 0.950 . S
H1070 C1076 0.949 . S
C1071 H1066 0.950 . S
C1071 C1073 1.327 . S
C1071 C1077 1.429 . S
C1072 C1064 1.574 . S
C1072 H1067 0.949 . S
C1072 C1078 1.368 . S
C1073 C1057 1.349 . S
C1073 H1065 0.950 . S
C1073 C1071 1.327 . S
C1074 C1062 1.349 . S
C1074 H1068 0.950 . S
C1074 C1075 1.327 . S
C1075 H1069 0.950 . S
C1075 C1074 1.327 . S
C1075 C1079 1.429 . S
C1076 C1059 1.574 . S
C1076 H1070 0.949 . S
C1076 C1080 1.368 . S
C1077 C1058 1.429 . S
C1077 C1071 1.429 . S
C1077 C1078 1.523 . S
C1078 C1059 1.368 . S
C1078 C1072 1.368 . S
C1078 C1077 1.523 . S
C1079 C1063 1.429 . S
C1079 C1075 1.429 . S
C1079 C1080 1.523 . S
C1080 C1064 1.368 . S
C1080 C1076 1.368 . S
C1080 C1079 1.523 . S
H1081 C1056 0.950 . S
H1082 C1058 0.950 . S
H1083 C1059 0.949 . S
H1084 C1061 0.950 . S
H1085 C1063 0.950 . S
C1086 C1087 1.349 . S
C1086 C1088 1.327 . S
C1086 H1111 0.950 . S
C1087 C1086 1.349 . S
C1087 C1103 1.349 . S
C1088 C1086 1.327 . S
C1088 C1107 1.429 . S
C1088 H1112 0.950 . S
C1089 C1106 1.574 . S
C1089 C1108 1.368 . S
C1089 H1113 0.949 . S
H1090 C1094 0.949 . S
C1091 C1092 1.349 . S
C1091 C1093 1.327 . S
C1091 H1114 0.950 . S
C1092 C1091 1.349 . S
C1092 C1104 1.349 . S
C1093 C1091 1.327 . S
C1093 C1109 1.429 . S
C1093 H1115 0.950 . S
C1094 H1090 0.949 . S
C1094 C1102 1.574 . S
C1094 C1110 1.368 . S
H1095 C1103 0.950 . S
H1096 C1101 0.950 . S
H1097 C1102 0.949 . S
H1098 C1104 0.950 . S
H1099 C1105 0.950 . S
H1100 C1106 0.949 . S
C1101 H1096 0.950 . S
C1101 C1103 1.327 . S
C1101 C1107 1.429 . S
C1102 C1094 1.574 . S
C1102 H1097 0.949 . S
C1102 C1108 1.368 . S
C1103 C1087 1.349 . S
C1103 H1095 0.950 . S
C1103 C1101 1.327 . S
C1104 C1092 1.349 . S
C1104 H1098 0.950 . S
C1104 C1105 1.327 . S
C1105 H1099 0.950 . S
C1105 C1104 1.327 . S
C1105 C1109 1.429 . S
C1106 C1089 1.574 . S
C1106 H1100 0.949 . S
C1106 C1110 1.368 . S
C1107 C1088 1.429 . S
C1107 C1101 1.429 . S
C1107 C1108 1.523 . S
C1108 C1089 1.368 . S
C1108 C1102 1.368 . S
C1108 C1107 1.523 . S
C1109 C1093 1.429 . S
C1109 C1105 1.429 . S
C1109 C1110 1.523 . S
C1110 C1094 1.368 . S
C1110 C1106 1.368 . S
C1110 C1109 1.523 . S
H1111 C1086 0.950 . S
H1112 C1088 0.950 . S
H1113 C1089 0.949 . S
H1114 C1091 0.950 . S
H1115 C1093 0.950 . S
C1116 C1117 1.349 . S
C1116 C1118 1.327 . S
C1116 H1141 0.950 . S
C1117 C1116 1.349 . S
C1117 C1133 1.349 . S
C1118 C1116 1.327 . S
C1118 C1137 1.429 . S
C1118 H1142 0.950 . S
C1119 C1136 1.574 . S
C1119 C1138 1.368 . S
C1119 H1143 0.949 . S
H1120 C1124 0.949 . S
C1121 C1122 1.349 . S
C1121 C1123 1.327 . S
C1121 H1144 0.950 . S
C1122 C1121 1.349 . S
C1122 C1134 1.349 . S
C1123 C1121 1.327 . S
C1123 C1139 1.429 . S
C1123 H1145 0.950 . S
C1124 H1120 0.949 . S
C1124 C1132 1.574 . S
C1124 C1140 1.368 . S
H1125 C1133 0.950 . S
H1126 C1131 0.950 . S
H1127 C1132 0.949 . S
H1128 C1134 0.950 . S
H1129 C1135 0.950 . S
H1130 C1136 0.949 . S
C1131 H1126 0.950 . S
C1131 C1133 1.327 . S
C1131 C1137 1.429 . S
C1132 C1124 1.574 . S
C1132 H1127 0.949 . S
C1132 C1138 1.368 . S
C1133 C1117 1.349 . S
C1133 H1125 0.950 . S
C1133 C1131 1.327 . S
C1134 C1122 1.349 . S
C1134 H1128 0.950 . S
C1134 C1135 1.327 . S
C1135 H1129 0.950 . S
C1135 C1134 1.327 . S
C1135 C1139 1.429 . S
C1136 C1119 1.574 . S
C1136 H1130 0.949 . S
C1136 C1140 1.368 . S
C1137 C1118 1.429 . S
C1137 C1131 1.429 . S
C1137 C1138 1.523 . S
C1138 C1119 1.368 . S
C1138 C1132 1.368 . S
C1138 C1137 1.523 . S
C1139 C1123 1.429 . S
C1139 C1135 1.429 . S
C1139 C1140 1.523 . S
C1140 C1124 1.368 . S
C1140 C1136 1.368 . S
C1140 C1139 1.523 . S
H1141 C1116 0.950 . S
H1142 C1118 0.950 . S
H1143 C1119 0.949 . S
H1144 C1121 0.950 . S
H1145 C1123 0.950 . S
C1146 C1147 1.349 . S
C1146 C1148 1.327 . S
C1146 H1171 0.950 . S
C1147 C1146 1.349 . S
C1147 C1163 1.349 . S
C1148 C1146 1.327 . S
C1148 C1167 1.429 . S
C1148 H1172 0.950 . S
C1149 C1166 1.574 . S
C1149 C1168 1.368 . S
C1149 H1173 0.949 . S
H1150 C1154 0.949 . S
C1151 C1152 1.349 . S
C1151 C1153 1.327 . S
C1151 H1174 0.950 . S
C1152 C1151 1.349 . S
C1152 C1164 1.349 . S
C1153 C1151 1.327 . S
C1153 C1169 1.429 . S
C1153 H1175 0.950 . S
C1154 H1150 0.949 . S
C1154 C1162 1.574 . S
C1154 C1170 1.368 . S
H1155 C1163 0.950 . S
H1156 C1161 0.950 . S
H1157 C1162 0.949 . S
H1158 C1164 0.950 . S
H1159 C1165 0.950 . S
H1160 C1166 0.949 . S
C1161 H1156 0.950 . S
C1161 C1163 1.327 . S
C1161 C1167 1.429 . S
C1162 C1154 1.574 . S
C1162 H1157 0.949 . S
C1162 C1168 1.368 . S
C1163 C1147 1.349 . S
C1163 H1155 0.950 . S
C1163 C1161 1.327 . S
C1164 C1152 1.349 . S
C1164 H1158 0.950 . S
C1164 C1165 1.327 . S
C1165 H1159 0.950 . S
C1165 C1164 1.327 . S
C1165 C1169 1.429 . S
C1166 C1149 1.574 . S
C1166 H1160 0.949 . S
C1166 C1170 1.368 . S
C1167 C1148 1.429 . S
C1167 C1161 1.429 . S
C1167 C1168 1.523 . S
C1168 C1149 1.368 . S
C1168 C1162 1.368 . S
C1168 C1167 1.523 . S
C1169 C1153 1.429 . S
C1169 C1165 1.429 . S
C1169 C1170 1.523 . S
C1170 C1154 1.368 . S
C1170 C1166 1.368 . S
C1170 C1169 1.523 . S
H1171 C1146 0.950 . S
H1172 C1148 0.950 . S
H1173 C1149 0.949 . S
H1174 C1151 0.950 . S
H1175 C1153 0.950 . S
C1176 C1177 1.349 . S
C1176 C1178 1.327 . S
C1176 H1201 0.950 . S
C1177 C1176 1.349 . S
C1177 C1193 1.349 . S
C1178 C1176 1.327 . S
C1178 C1197 1.429 . S
C1178 H1202 0.950 . S
C1179 C1196 1.574 . S
C1179 C1198 1.368 . S
C1179 H1203 0.949 . S
H1180 C1184 0.949 . S
C1181 C1182 1.349 . S
C1181 C1183 1.327 . S
C1181 H1204 0.950 . S
C1182 C1181 1.349 . S
C1182 C1194 1.349 . S
C1183 C1181 1.327 . S
C1183 C1199 1.429 . S
C1183 H1205 0.950 . S
C1184 H1180 0.949 . S
C1184 C1192 1.574 . S
C1184 C1200 1.368 . S
H1185 C1193 0.950 . S
H1186 C1191 0.950 . S
H1187 C1192 0.949 . S
H1188 C1194 0.950 . S
H1189 C1195 0.950 . S
H1190 C1196 0.949 . S
C1191 H1186 0.950 . S
C1191 C1193 1.327 . S
C1191 C1197 1.429 . S
C1192 C1184 1.574 . S
C1192 H1187 0.949 . S
C1192 C1198 1.368 . S
C1193 C1177 1.349 . S
C1193 H1185 0.950 . S
C1193 C1191 1.327 . S
C1194 C1182 1.349 . S
C1194 H1188 0.950 . S
C1194 C1195 1.327 . S
C1195 H1189 0.950 . S
C1195 C1194 1.327 . S
C1195 C1199 1.429 . S
C1196 C1179 1.574 . S
C1196 H1190 0.949 . S
C1196 C1200 1.368 . S
C1197 C1178 1.429 . S
C1197 C1191 1.429 . S
C1197 C1198 1.523 . S
C1198 C1179 1.368 . S
C1198 C1192 1.368 . S
C1198 C1197 1.523 . S
C1199 C1183 1.429 . S
C1199 C1195 1.429 . S
C1199 C1200 1.523 . S
C1200 C1184 1.368 . S
C1200 C1196 1.368 . S
C1200 C1199 1.523 . S
H1201 C1176 0.950 . S
H1202 C1178 0.950 . S
H1203 C1179 0.949 . S
H1204 C1181 0.950 . S
H1205 C1183 0.950 . S
C1206 C1207 1.349 . S
C1206 C1208 1.327 . S
C1206 H1231 0.950 . S
C1207 C1206 1.349 . S
C1207 C1223 1.349 . S
C1208 C1206 1.327 . S
C1208 C1227 1.429 . S
C1208 H1232 0.950 . S
C1209 C1226 1.574 . S
C1209 C1228 1.368 . S
C1209 H1233 0.949 . S
H1210 C1214 0.949 . S
C1211 C1212 1.349 . S
C1211 C1213 1.327 . S
C1211 H1234 0.950 . S
C1212 C1211 1.349 . S
C1212 C1224 1.349 . S
C1213 C1211 1.327 . S
C1213 C1229 1.429 . S
C1213 H1235 0.950 . S
C1214 H1210 0.949 . S
C1214 C1222 1.574 . S
C1214 C1230 1.368 . S
H1215 C1223 0.950 . S
H1216 C1221 0.950 . S
H1217 C1222 0.949 . S
H1218 C1224 0.950 . S
H1219 C1225 0.950 . S
H1220 C1226 0.949 . S
C1221 H1216 0.950 . S
C1221 C1223 1.327 . S
C1221 C1227 1.429 . S
C1222 C1214 1.574 . S
C1222 H1217 0.949 . S
C1222 C1228 1.368 . S
C1223 C1207 1.349 . S
C1223 H1215 0.950 . S
C1223 C1221 1.327 . S
C1224 C1212 1.349 . S
C1224 H1218 0.950 . S
C1224 C1225 1.327 . S
C1225 H1219 0.950 . S
C1225 C1224 1.327 . S
C1225 C1229 1.429 . S
C1226 C1209 1.574 . S
C1226 H1220 0.949 . S
C1226 C1230 1.368 . S
C1227 C1208 1.429 . S
C1227 C1221 1.429 . S
C1227 C1228 1.523 . S
C1228 C1209 1.368 . S
C1228 C1222 1.368 . S
C1228 C1227 1.523 . S
C1229 C1213 1.429 . S
C1229 C1225 1.429 . S
C1229 C1230 1.523 . S
C1230 C1214 1.368 . S
C1230 C1226 1.368 . S
C1230 C1229 1.523 . S
H1231 C1206 0.950 . S
H1232 C1208 0.950 . S
H1233 C1209 0.949 . S
H1234 C1211 0.950 . S
H1235 C1213 0.950 . S
C1236 C1237 1.349 . S
C1236 C1238 1.327 . S
C1236 H1261 0.950 . S
C1237 C1236 1.349 . S
C1237 C1253 1.349 . S
C1238 C1236 1.327 . S
C1238 C1257 1.429 . S
C1238 H1262 0.950 . S
C1239 C1256 1.574 . S
C1239 C1258 1.368 . S
C1239 H1263 0.949 . S
H1240 C1244 0.949 . S
C1241 C1242 1.349 . S
C1241 C1243 1.327 . S
C1241 H1264 0.950 . S
C1242 C1241 1.349 . S
C1242 C1254 1.349 . S
C1243 C1241 1.327 . S
C1243 C1259 1.429 . S
C1243 H1265 0.950 . S
C1244 H1240 0.949 . S
C1244 C1252 1.574 . S
C1244 C1260 1.368 . S
H1245 C1253 0.950 . S
H1246 C1251 0.950 . S
H1247 C1252 0.949 . S
H1248 C1254 0.950 . S
H1249 C1255 0.950 . S
H1250 C1256 0.949 . S
C1251 H1246 0.950 . S
C1251 C1253 1.327 . S
C1251 C1257 1.429 . S
C1252 C1244 1.574 . S
C1252 H1247 0.949 . S
C1252 C1258 1.368 . S
C1253 C1237 1.349 . S
C1253 H1245 0.950 . S
C1253 C1251 1.327 . S
C1254 C1242 1.349 . S
C1254 H1248 0.950 . S
C1254 C1255 1.327 . S
C1255 H1249 0.950 . S
C1255 C1254 1.327 . S
C1255 C1259 1.429 . S
C1256 C1239 1.574 . S
C1256 H1250 0.949 . S
C1256 C1260 1.368 . S
C1257 C1238 1.429 . S
C1257 C1251 1.429 . S
C1257 C1258 1.523 . S
C1258 C1239 1.368 . S
C1258 C1252 1.368 . S
C1258 C1257 1.523 . S
C1259 C1243 1.429 . S
C1259 C1255 1.429 . S
C1259 C1260 1.523 . S
C1260 C1244 1.368 . S
C1260 C1256 1.368 . S
C1260 C1259 1.523 . S
H1261 C1236 0.950 . S
H1262 C1238 0.950 . S
H1263 C1239 0.949 . S
H1264 C1241 0.950 . S
H1265 C1243 0.950 . S
C1266 C1267 1.349 . S
C1266 C1268 1.327 . S
C1266 H1291 0.950 . S
C1267 C1266 1.349 . S
C1267 C1283 1.349 . S
C1268 C1266 1.327 . S
C1268 C1287 1.429 . S
C1268 H1292 0.950 . S
C1269 C1286 1.574 . S
C1269 C1288 1.368 . S
C1269 H1293 0.949 . S
H1270 C1274 0.949 . S
C1271 C1272 1.349 . S
C1271 C1273 1.327 . S
C1271 H1294 0.950 . S
C1272 C1271 1.349 . S
C1272 C1284 1.349 . S
C1273 C1271 1.327 . S
C1273 C1289 1.429 . S
C1273 H1295 0.950 . S
C1274 H1270 0.949 . S
C1274 C1282 1.574 . S
C1274 C1290 1.368 . S
H1275 C1283 0.950 . S
H1276 C1281 0.950 . S
H1277 C1282 0.949 . S
H1278 C1284 0.950 . S
H1279 C1285 0.950 . S
H1280 C1286 0.949 . S
C1281 H1276 0.950 . S
C1281 C1283 1.327 . S
C1281 C1287 1.429 . S
C1282 C1274 1.574 . S
C1282 H1277 0.949 . S
C1282 C1288 1.368 . S
C1283 C1267 1.349 . S
C1283 H1275 0.950 . S
C1283 C1281 1.327 . S
C1284 C1272 1.349 . S
C1284 H1278 0.950 . S
C1284 C1285 1.327 . S
C1285 H1279 0.950 . S
C1285 C1284 1.327 . S
C1285 C1289 1.429 . S
C1286 C1269 1.574 . S
C1286 H1280 0.949 . S
C1286 C1290 1.368 . S
C1287 C1268 1.429 . S
C1287 C1281 1.429 . S
C1287 C1288 1.523 . S
C1288 C1269 1.368 . S
C1288 C1282 1.368 . S
C1288 C1287 1.523 . S
C1289 C1273 1.429 . S
C1289 C1285 1.429 . S
C1289 C1290 1.523 . S
C1290 C1274 1.368 . S
C1290 C1286 1.368 . S
C1290 C1289 1.523 . S
H1291 C1266 0.950 . S
H1292 C1268 0.950 . S
H1293 C1269 0.949 . S
H1294 C1271 0.950 . S
H1295 C1273 0.950 . S
C1296 C1297 1.349 . S
C1296 C1298 1.327 . S
C1296 H1321 0.950 . S
C1297 C1296 1.349 . S
C1297 C1313 1.349 . S
C1298 C1296 1.327 . S
C1298 C1317 1.429 . S
C1298 H1322 0.950 . S
C1299 C1316 1.574 . S
C1299 C1318 1.368 . S
C1299 H1323 0.949 . S
H1300 C1304 0.949 . S
C1301 C1302 1.349 . S
C1301 C1303 1.327 . S
C1301 H1324 0.950 . S
C1302 C1301 1.349 . S
C1302 C1314 1.349 . S
C1303 C1301 1.327 . S
C1303 C1319 1.429 . S
C1303 H1325 0.950 . S
C1304 H1300 0.949 . S
C1304 C1312 1.574 . S
C1304 C1320 1.368 . S
H1305 C1313 0.950 . S
H1306 C1311 0.950 . S
H1307 C1312 0.949 . S
H1308 C1314 0.950 . S
H1309 C1315 0.950 . S
H1310 C1316 0.949 . S
C1311 H1306 0.950 . S
C1311 C1313 1.327 . S
C1311 C1317 1.429 . S
C1312 C1304 1.574 . S
C1312 H1307 0.949 . S
C1312 C1318 1.368 . S
C1313 C1297 1.349 . S
C1313 H1305 0.950 . S
C1313 C1311 1.327 . S
C1314 C1302 1.349 . S
C1314 H1308 0.950 . S
C1314 C1315 1.327 . S
C1315 H1309 0.950 . S
C1315 C1314 1.327 . S
C1315 C1319 1.429 . S
C1316 C1299 1.574 . S
C1316 H1310 0.949 . S
C1316 C1320 1.368 . S
C1317 C1298 1.429 . S
C1317 C1311 1.429 . S
C1317 C1318 1.523 . S
C1318 C1299 1.368 . S
C1318 C1312 1.368 . S
C1318 C1317 1.523 . S
C1319 C1303 1.429 . S
C1319 C1315 1.429 . S
C1319 C1320 1.523 . S
C1320 C1304 1.368 . S
C1320 C1316 1.368 . S
C1320 C1319 1.523 . S
H1321 C1296 0.950 . S
H1322 C1298 0.950 . S
H1323 C1299 0.949 . S
H1324 C1301 0.950 . S
H1325 C1303 0.950 . S
C1326 C1327 1.349 . S
C1326 C1328 1.327 . S
C1326 H1351 0.950 . S
C1327 C1326 1.349 . S
C1327 C1343 1.349 . S
C1328 C1326 1.327 . S
C1328 C1347 1.429 . S
C1328 H1352 0.950 . S
C1329 C1346 1.574 . S
C1329 C1348 1.368 . S
C1329 H1353 0.949 . S
H1330 C1334 0.949 . S
C1331 C1332 1.349 . S
C1331 C1333 1.327 . S
C1331 H1354 0.950 . S
C1332 C1331 1.349 . S
C1332 C1344 1.349 . S
C1333 C1331 1.327 . S
C1333 C1349 1.429 . S
C1333 H1355 0.950 . S
C1334 H1330 0.949 . S
C1334 C1342 1.574 . S
C1334 C1350 1.368 . S
H1335 C1343 0.950 . S
H1336 C1341 0.950 . S
H1337 C1342 0.949 . S
H1338 C1344 0.950 . S
H1339 C1345 0.950 . S
H1340 C1346 0.949 . S
C1341 H1336 0.950 . S
C1341 C1343 1.327 . S
C1341 C1347 1.429 . S
C1342 C1334 1.574 . S
C1342 H1337 0.949 . S
C1342 C1348 1.368 . S
C1343 C1327 1.349 . S
C1343 H1335 0.950 . S
C1343 C1341 1.327 . S
C1344 C1332 1.349 . S
C1344 H1338 0.950 . S
C1344 C1345 1.327 . S
C1345 H1339 0.950 . S
C1345 C1344 1.327 . S
C1345 C1349 1.429 . S
C1346 C1329 1.574 . S
C1346 H1340 0.949 . S
C1346 C1350 1.368 . S
C1347 C1328 1.429 . S
C1347 C1341 1.429 . S
C1347 C1348 1.523 . S
C1348 C1329 1.368 . S
C1348 C1342 1.368 . S
C1348 C1347 1.523 . S
C1349 C1333 1.429 . S
C1349 C1345 1.429 . S
C1349 C1350 1.523 . S
C1350 C1334 1.368 . S
C1350 C1346 1.368 . S
C1350 C1349 1.523 . S
H1351 C1326 0.950 . S
H1352 C1328 0.950 . S
H1353 C1329 0.949 . S
H1354 C1331 0.950 . S
H1355 C1333 0.950 . S
C1356 C1357 1.349 . S
C1356 C1358 1.327 . S
C1356 H1381 0.950 . S
C1357 C1356 1.349 . S
C1357 C1373 1.349 . S
C1358 C1356 1.327 . S
C1358 C1377 1.429 . S
C1358 H1382 0.950 . S
C1359 C1376 1.574 . S
C1359 C1378 1.368 . S
C1359 H1383 0.949 . S
H1360 C1364 0.949 . S
C1361 C1362 1.349 . S
C1361 C1363 1.327 . S
C1361 H1384 0.950 . S
C1362 C1361 1.349 . S
C1362 C1374 1.349 . S
C1363 C1361 1.327 . S
C1363 C1379 1.429 . S
C1363 H1385 0.950 . S
C1364 H1360 0.949 . S
C1364 C1372 1.574 . S
C1364 C1380 1.368 . S
H1365 C1373 0.950 . S
H1366 C1371 0.950 . S
H1367 C1372 0.949 . S
H1368 C1374 0.950 . S
H1369 C1375 0.950 . S
H1370 C1376 0.949 . S
C1371 H1366 0.950 . S
C1371 C1373 1.327 . S
C1371 C1377 1.429 . S
C1372 C1364 1.574 . S
C1372 H1367 0.949 . S
C1372 C1378 1.368 . S
C1373 C1357 1.349 . S
C1373 H1365 0.950 . S
C1373 C1371 1.327 . S
C1374 C1362 1.349 . S
C1374 H1368 0.950 . S
C1374 C1375 1.327 . S
C1375 H1369 0.950 . S
C1375 C1374 1.327 . S
C1375 C1379 1.429 . S
C1376 C1359 1.574 . S
C1376 H1370 0.949 . S
C1376 C1380 1.368 . S
C1377 C1358 1.429 . S
C1377 C1371 1.429 . S
C1377 C1378 1.523 . S
C1378 C1359 1.368 . S
C1378 C1372 1.368 . S
C1378 C1377 1.523 . S
C1379 C1363 1.429 . S
C1379 C1375 1.429 . S
C1379 C1380 1.523 . S
C1380 C1364 1.368 . S
C1380 C1376 1.368 . S
C1380 C1379 1.523 . S
H1381 C1356 0.950 . S
H1382 C1358 0.950 . S
H1383 C1359 0.949 . S
H1384 C1361 0.950 . S
H1385 C1363 0.950 . S
C1386 C1387 1.349 . S
C1386 C1388 1.327 . S
C1386 H1411 0.950 . S
C1387 C1386 1.349 . S
C1387 C1403 1.349 . S
C1388 C1386 1.327 . S
C1388 C1407 1.429 . S
C1388 H1412 0.950 . S
C1389 C1406 1.574 . S
C1389 C1408 1.368 . S
C1389 H1413 0.949 . S
H1390 C1394 0.949 . S
C1391 C1392 1.349 . S
C1391 C1393 1.327 . S
C1391 H1414 0.950 . S
C1392 C1391 1.349 . S
C1392 C1404 1.349 . S
C1393 C1391 1.327 . S
C1393 C1409 1.429 . S
C1393 H1415 0.950 . S
C1394 H1390 0.949 . S
C1394 C1402 1.574 . S
C1394 C1410 1.368 . S
H1395 C1403 0.950 . S
H1396 C1401 0.950 . S
H1397 C1402 0.949 . S
H1398 C1404 0.950 . S
H1399 C1405 0.950 . S
H1400 C1406 0.949 . S
C1401 H1396 0.950 . S
C1401 C1403 1.327 . S
C1401 C1407 1.429 . S
C1402 C1394 1.574 . S
C1402 H1397 0.949 . S
C1402 C1408 1.368 . S
C1403 C1387 1.349 . S
C1403 H1395 0.950 . S
C1403 C1401 1.327 . S
C1404 C1392 1.349 . S
C1404 H1398 0.950 . S
C1404 C1405 1.327 . S
C1405 H1399 0.950 . S
C1405 C1404 1.327 . S
C1405 C1409 1.429 . S
C1406 C1389 1.574 . S
C1406 H1400 0.949 . S
C1406 C1410 1.368 . S
C1407 C1388 1.429 . S
C1407 C1401 1.429 . S
C1407 C1408 1.523 . S
C1408 C1389 1.368 . S
C1408 C1402 1.368 . S
C1408 C1407 1.523 . S
C1409 C1393 1.429 . S
C1409 C1405 1.429 . S
C1409 C1410 1.523 . S
C1410 C1394 1.368 . S
C1410 C1406 1.368 . S
C1410 C1409 1.523 . S
H1411 C1386 0.950 . S
H1412 C1388 0.950 . S
H1413 C1389 0.949 . S
H1414 C1391 0.950 . S
H1415 C1393 0.950 . S
C1416 C1417 1.349 . S
C1416 C1418 1.327 . S
C1416 H1441 0.950 . S
C1417 C1416 1.349 . S
C1417 C1433 1.349 . S
C1418 C1416 1.327 . S
C1418 C1437 1.429 . S
C1418 H1442 0.950 . S
C1419 C1436 1.574 . S
C1419 C1438 1.368 . S
C1419 H1443 0.949 . S
H1420 C1424 0.949 . S
C1421 C1422 1.349 . S
C1421 C1423 1.327 . S
C1421 H1444 0.950 . S
C1422 C1421 1.349 . S
C1422 C1434 1.349 . S
C1423 C1421 1.327 . S
C1423 C1439 1.429 . S
C1423 H1445 0.950 . S
C1424 H1420 0.949 . S
C1424 C1432 1.574 . S
C1424 C1440 1.368 . S
H1425 C1433 0.950 . S
H1426 C1431 0.950 . S
H1427 C1432 0.949 . S
H1428 C1434 0.950 . S
H1429 C1435 0.950 . S
H1430 C1436 0.949 . S
C1431 H1426 0.950 . S
C1431 C1433 1.327 . S
C1431 C1437 1.429 . S
C1432 C1424 1.574 . S
C1432 H1427 0.949 . S
C1432 C1438 1.368 . S
C1433 C1417 1.349 . S
C1433 H1425 0.950 . S
C1433 C1431 1.327 . S
C1434 C1422 1.349 . S
C1434 H1428 0.950 . S
C1434 C1435 1.327 . S
C1435 H1429 0.950 . S
C1435 C1434 1.327 . S
C1435 C1439 1.429 . S
C1436 C1419 1.574 . S
C1436 H1430 0.949 . S
C1436 C1440 1.368 . S
C1437 C1418 1.429 . S
C1437 C1431 1.429 . S
C1437 C1438 1.523 . S
C1438 C1419 1.368 . S
C1438 C1432 1.368 . S
C1438 C1437 1.523 . S
C1439 C1423 1.429 . S
C1439 C1435 1.429 . S
C1439 C1440 1.523 . S
C1440 C1424 1.368 . S
C1440 C1436 1.368 . S
C1440 C1439 1.523 . S
H1441 C1416 0.950 . S
H1442 C1418 0.950 . S
H1443 C1419 0.949 . S
H1444 C1421 0.950 . S
H1445 C1423 0.950 . S
C1446 C1447 1.349 . S
C1446 C1448 1.327 . S
C1446 H1471 0.950 . S
C1447 C1446 1.349 . S
C1447 C1463 1.349 . S
C1448 C1446 1.327 . S
C1448 C1467 1.429 . S
C1448 H1472 0.950 . S
C1449 C1466 1.574 . S
C1449 C1468 1.368 . S
C1449 H1473 0.949 . S
H1450 C1454 0.949 . S
C1451 C1452 1.349 . S
C1451 C1453 1.327 . S
C1451 H1474 0.950 . S
C1452 C1451 1.349 . S
C1452 C1464 1.349 . S
C1453 C1451 1.327 . S
C1453 C1469 1.429 . S
C1453 H1475 0.950 . S
C1454 H1450 0.949 . S
C1454 C1462 1.574 . S
C1454 C1470 1.368 . S
H1455 C1463 0.950 . S
H1456 C1461 0.950 . S
H1457 C1462 0.949 . S
H1458 C1464 0.950 . S
H1459 C1465 0.950 . S
H1460 C1466 0.949 . S
C1461 H1456 0.950 . S
C1461 C1463 1.327 . S
C1461 C1467 1.429 . S
C1462 C1454 1.574 . S
C1462 H1457 0.949 . S
C1462 C1468 1.368 . S
C1463 C1447 1.349 . S
C1463 H1455 0.950 . S
C1463 C1461 1.327 . S
C1464 C1452 1.349 . S
C1464 H1458 0.950 . S
C1464 C1465 1.327 . S
C1465 H1459 0.950 . S
C1465 C1464 1.327 . S
C1465 C1469 1.429 . S
C1466 C1449 1.574 . S
C1466 H1460 0.949 . S
C1466 C1470 1.368 . S
C1467 C1448 1.429 . S
C1467 C1461 1.429 . S
C1467 C1468 1.523 . S
C1468 C1449 1.368 . S
C1468 C1462 1.368 . S
C1468 C1467 1.523 . S
C1469 C1453 1.429 . S
C1469 C1465 1.429 . S
C1469 C1470 1.523 . S
C1470 C1454 1.368 . S
C1470 C1466 1.368 . S
C1470 C1469 1.523 . S
H1471 C1446 0.950 . S
H1472 C1448 0.950 . S
H1473 C1449 0.949 . S
H1474 C1451 0.950 . S
H1475 C1453 0.950 . S
C1476 C1477 1.349 . S
C1476 C1478 1.327 . S
C1476 H1501 0.950 . S
C1477 C1476 1.349 . S
C1477 C1493 1.349 . S
C1478 C1476 1.327 . S
C1478 C1497 1.429 . S
C1478 H1502 0.950 . S
C1479 C1496 1.574 . S
C1479 C1498 1.368 . S
C1479 H1503 0.949 . S
H1480 C1484 0.949 . S
C1481 C1482 1.349 . S
C1481 C1483 1.327 . S
C1481 H1504 0.950 . S
C1482 C1481 1.349 . S
C1482 C1494 1.349 . S
C1483 C1481 1.327 . S
C1483 C1499 1.429 . S
C1483 H1505 0.950 . S
C1484 H1480 0.949 . S
C1484 C1492 1.574 . S
C1484 C1500 1.368 . S
H1485 C1493 0.950 . S
H1486 C1491 0.950 . S
H1487 C1492 0.949 . S
H1488 C1494 0.950 . S
H1489 C1495 0.950 . S
H1490 C1496 0.949 . S
C1491 H1486 0.950 . S
C1491 C1493 1.327 . S
C1491 C1497 1.429 . S
C1492 C1484 1.574 . S
C1492 H1487 0.949 . S
C1492 C1498 1.368 . S
C1493 C1477 1.349 . S
C1493 H1485 0.950 . S
C1493 C1491 1.327 . S
C1494 C1482 1.349 . S
C1494 H1488 0.950 . S
C1494 C1495 1.327 . S
C1495 H1489 0.950 . S
C1495 C1494 1.327 . S
C1495 C1499 1.429 . S
C1496 C1479 1.574 . S
C1496 H1490 0.949 . S
C1496 C1500 1.368 . S
C1497 C1478 1.429 . S
C1497 C1491 1.429 . S
C1497 C1498 1.523 . S
C1498 C1479 1.368 . S
C1498 C1492 1.368 . S
C1498 C1497 1.523 . S
C1499 C1483 1.429 . S
C1499 C1495 1.429 . S
C1499 C1500 1.523 . S
C1500 C1484 1.368 . S
C1500 C1496 1.368 . S
C1500 C1499 1.523 . S
H1501 C1476 0.950 . S
H1502 C1478 0.950 . S
H1503 C1479 0.949 . S
H1504 C1481 0.950 . S
H1505 C1483 0.950 . S
C1506 C1507 1.349 . S
C1506 C1508 1.327 . S
C1506 H1531 0.950 . S
C1507 C1506 1.349 . S
C1507 C1523 1.349 . S
C1508 C1506 1.327 . S
C1508 C1527 1.429 . S
C1508 H1532 0.950 . S
C1509 C1526 1.574 . S
C1509 C1528 1.368 . S
C1509 H1533 0.949 . S
H1510 C1514 0.949 . S
C1511 C1512 1.349 . S
C1511 C1513 1.327 . S
C1511 H1534 0.950 . S
C1512 C1511 1.349 . S
C1512 C1524 1.349 . S
C1513 C1511 1.327 . S
C1513 C1529 1.429 . S
C1513 H1535 0.950 . S
C1514 H1510 0.949 . S
C1514 C1522 1.574 . S
C1514 C1530 1.368 . S
H1515 C1523 0.950 . S
H1516 C1521 0.950 . S
H1517 C1522 0.949 . S
H1518 C1524 0.950 . S
H1519 C1525 0.950 . S
H1520 C1526 0.949 . S
C1521 H1516 0.950 . S
C1521 C1523 1.327 . S
C1521 C1527 1.429 . S
C1522 C1514 1.574 . S
C1522 H1517 0.949 . S
C1522 C1528 1.368 . S
C1523 C1507 1.349 . S
C1523 H1515 0.950 . S
C1523 C1521 1.327 . S
C1524 C1512 1.349 . S
C1524 H1518 0.950 . S
C1524 C1525 1.327 . S
C1525 H1519 0.950 . S
C1525 C1524 1.327 . S
C1525 C1529 1.429 . S
C1526 C1509 1.574 . S
C1526 H1520 0.949 . S
C1526 C1530 1.368 . S
C1527 C1508 1.429 . S
C1527 C1521 1.429 . S
C1527 C1528 1.523 . S
C1528 C1509 1.368 . S
C1528 C1522 1.368 . S
C1528 C1527 1.523 . S
C1529 C1513 1.429 . S
C1529 C1525 1.429 . S
C1529 C1530 1.523 . S
C1530 C1514 1.368 . S
C1530 C1526 1.368 . S
C1530 C1529 1.523 . S
H1531 C1506 0.950 . S
H1532 C1508 0.950 . S
H1533 C1509 0.949 . S
H1534 C1511 0.950 . S
H1535 C1513 0.950 . S
C1536 C1537 1.349 . S
C1536 C1538 1.327 . S
C1536 H1561 0.950 . S
C1537 C1536 1.349 . S
C1537 C1553 1.349 . S
C1538 C1536 1.327 . S
C1538 C1557 1.429 . S
C1538 H1562 0.950 . S
C1539 C1556 1.574 . S
C1539 C1558 1.368 . S
C1539 H1563 0.949 . S
H1540 C1544 0.949 . S
C1541 C1542 1.349 . S
C1541 C1543 1.327 . S
C1541 H1564 0.950 . S
C1542 C1541 1.349 . S
C1542 C1554 1.349 . S
C1543 C1541 1.327 . S
C1543 C1559 1.429 . S
C1543 H1565 0.950 . S
C1544 H1540 0.949 . S
C1544 C1552 1.574 . S
C1544 C1560 1.368 . S
H1545 C1553 0.950 . S
H1546 C1551 0.950 . S
H1547 C1552 0.949 . S
H1548 C1554 0.950 . S
H1549 C1555 0.950 . S
H1550 C1556 0.949 . S
C1551 H1546 0.950 . S
C1551 C1553 1.327 . S
C1551 C1557 1.429 . S
C1552 C1544 1.574 . S
C1552 H1547 0.949 . S
C1552 C1558 1.368 . S
C1553 C1537 1.349 . S
C1553 H1545 0.950 . S
C1553 C1551 1.327 . S
C1554 C1542 1.349 . S
C1554 H1548 0.950 . S
C1554 C1555 1.327 . S
C1555 H1549 0.950 . S
C1555 C1554 1.327 . S
C1555 C1559 1.429 . S
C1556 C1539 1.574 . S
C1556 H1550 0.949 . S
C1556 C1560 1.368 . S
C1557 C1538 1.429 . S
C1557 C1551 1.429 . S
C1557 C1558 1.523 . S
C1558 C1539 1.368 . S
C1558 C1552 1.368 . S
C1558 C1557 1.523 . S
C1559 C1543 1.429 . S
C1559 C1555 1.429 . S
C1559 C1560 1.523 . S
C1560 C1544 1.368 . S
C1560 C1556 1.368 . S
C1560 C1559 1.523 . S
H1561 C1536 0.950 . S
H1562 C1538 0.950 . S
H1563 C1539 0.949 . S
H1564 C1541 0.950 . S
H1565 C1543 0.950 . S
C1566 C1567 1.349 . S
C1566 C1568 1.327 . S
C1566 H1591 0.950 . S
C1567 C1566 1.349 . S
C1567 C1583 1.349 . S
C1568 C1566 1.327 . S
C1568 C1587 1.429 . S
C1568 H1592 0.950 . S
C1569 C1586 1.574 . S
C1569 C1588 1.368 . S
C1569 H1593 0.949 . S
H1570 C1574 0.949 . S
C1571 C1572 1.349 . S
C1571 C1573 1.327 . S
C1571 H1594 0.950 . S
C1572 C1571 1.349 . S
C1572 C1584 1.349 . S
C1573 C1571 1.327 . S
C1573 C1589 1.429 . S
C1573 H1595 0.950 . S
C1574 H1570 0.949 . S
C1574 C1582 1.574 . S
C1574 C1590 1.368 . S
H1575 C1583 0.950 . S
H1576 C1581 0.950 . S
H1577 C1582 0.949 . S
H1578 C1584 0.950 . S
H1579 C1585 0.950 . S
H1580 C1586 0.949 . S
C1581 H1576 0.950 . S
C1581 C1583 1.327 . S
C1581 C1587 1.429 . S
C1582 C1574 1.574 . S
C1582 H1577 0.949 . S
C1582 C1588 1.368 . S
C1583 C1567 1.349 . S
C1583 H1575 0.950 . S
C1583 C1581 1.327 . S
C1584 C1572 1.349 . S
C1584 H1578 0.950 . S
C1584 C1585 1.327 . S
C1585 H1579 0.950 . S
C1585 C1584 1.327 . S
C1585 C1589 1.429 . S
C1586 C1569 1.574 . S
C1586 H1580 0.949 . S
C1586 C1590 1.368 . S
C1587 C1568 1.429 . S
C1587 C1581 1.429 . S
C1587 C1588 1.523 . S
C1588 C1569 1.368 . S
C1588 C1582 1.368 . S
C1588 C1587 1.523 . S
C1589 C1573 1.429 . S
C1589 C1585 1.429 . S
C1589 C1590 1.523 . S
C1590 C1574 1.368 . S
C1590 C1586 1.368 . S
C1590 C1589 1.523 . S
H1591 C1566 0.950 . S
H1592 C1568 0.950 . S
H1593 C1569 0.949 . S
H1594 C1571 0.950 . S
H1595 C1573 0.950 . S
C1596 C1597 1.349 . S
C1596 C1598 1.327 . S
C1596 H1621 0.950 . S
C1597 C1596 1.349 . S
C1597 C1613 1.349 . S
C1598 C1596 1.327 . S
C1598 C1617 1.429 . S
C1598 H1622 0.950 . S
C1599 C1616 1.574 . S
C1599 C1618 1.368 . S
C1599 H1623 0.949 . S
H1600 C1604 0.949 . S
C1601 C1602 1.349 . S
C1601 C1603 1.327 . S
C1601 H1624 0.950 . S
C1602 C1601 1.349 . S
C1602 C1614 1.349 . S
C1603 C1601 1.327 . S
C1603 C1619 1.429 . S
C1603 H1625 0.950 . S
C1604 H1600 0.949 . S
C1604 C1612 1.574 . S
C1604 C1620 1.368 . S
H1605 C1613 0.950 . S
H1606 C1611 0.950 . S
H1607 C1612 0.949 . S
H1608 C1614 0.950 . S
H1609 C1615 0.950 . S
H1610 C1616 0.949 . S
C1611 H1606 0.950 . S
C1611 C1613 1.327 . S
C1611 C1617 1.429 . S
C1612 C1604 1.574 . S
C1612 H1607 0.949 . S
C1612 C1618 1.368 . S
C1613 C1597 1.349 . S
C1613 H1605 0.950 . S
C1613 C1611 1.327 . S
C1614 C1602 1.349 . S
C1614 H1608 0.950 . S
C1614 C1615 1.327 . S
C1615 H1609 0.950 . S
C1615 C1614 1.327 . S
C1615 C1619 1.429 . S
C1616 C1599 1.574 . S
C1616 H1610 0.949 . S
C1616 C1620 1.368 . S
C1617 C1598 1.429 . S
C1617 C1611 1.429 . S
C1617 C1618 1.523 . S
C1618 C1599 1.368 . S
C1618 C1612 1.368 . S
C1618 C1617 1.523 . S
C1619 C1603 1.429 . S
C1619 C1615 1.429 . S
C1619 C1620 1.523 . S
C1620 C1604 1.368 . S
C1620 C1616 1.368 . S
C1620 C1619 1.523 . S
H1621 C1596 0.950 . S
H1622 C1598 0.950 . S
H1623 C1599 0.949 . S
H1624 C1601 0.950 . S
H1625 C1603 0.950 . S
C1626 C1627 1.349 . S
C1626 C1628 1.327 . S
C1626 H1651 0.950 . S
C1627 C1626 1.349 . S
C1627 C1643 1.349 . S
C1628 C1626 1.327 . S
C1628 C1647 1.429 . S
C1628 H1652 0.950 . S
C1629 C1646 1.574 . S
C1629 C1648 1.368 . S
C1629 H1653 0.949 . S
H1630 C1634 0.949 . S
C1631 C1632 1.349 . S
C1631 C1633 1.327 . S
C1631 H1654 0.950 . S
C1632 C1631 1.349 . S
C1632 C1644 1.349 . S
C1633 C1631 1.327 . S
C1633 C1649 1.429 . S
C1633 H1655 0.950 . S
C1634 H1630 0.949 . S
C1634 C1642 1.574 . S
C1634 C1650 1.368 . S
H1635 C1643 0.950 . S
H1636 C1641 0.950 . S
H1637 C1642 0.949 . S
H1638 C1644 0.950 . S
H1639 C1645 0.950 . S
H1640 C1646 0.949 . S
C1641 H1636 0.950 . S
C1641 C1643 1.327 . S
C1641 C1647 1.429 . S
C1642 C1634 1.574 . S
C1642 H1637 0.949 . S
C1642 C1648 1.368 . S
C1643 C1627 1.349 . S
C1643 H1635 0.950 . S
C1643 C1641 1.327 . S
C1644 C1632 1.349 . S
C1644 H1638 0.950 . S
C1644 C1645 1.327 . S
C1645 H1639 0.950 . S
C1645 C1644 1.327 . S
C1645 C1649 1.429 . S
C1646 C1629 1.574 . S
C1646 H1640 0.949 . S
C1646 C1650 1.368 . S
C1647 C1628 1.429 . S
C1647 C1641 1.429 . S
C1647 C1648 1.523 . S
C1648 C1629 1.368 . S
C1648 C1642 1.368 . S
C1648 C1647 1.523 . S
C1649 C1633 1.429 . S
C1649 C1645 1.429 . S
C1649 C1650 1.523 . S
C1650 C1634 1.368 . S
C1650 C1646 1.368 . S
C1650 C1649 1.523 . S
H1651 C1626 0.950 . S
H1652 C1628 0.950 . S
H1653 C1629 0.949 . S
H1654 C1631 0.950 . S
H1655 C1633 0.950 . S
C1656 C1657 1.349 . S
C1656 C1658 1.327 . S
C1656 H1681 0.950 . S
C1657 C1656 1.349 . S
C1657 C1673 1.349 . S
C1658 C1656 1.327 . S
C1658 C1677 1.429 . S
C1658 H1682 0.950 . S
C1659 C1676 1.574 . S
C1659 C1678 1.368 . S
C1659 H1683 0.949 . S
H1660 C1664 0.949 . S
C1661 C1662 1.349 . S
C1661 C1663 1.327 . S
C1661 H1684 0.950 . S
C1662 C1661 1.349 . S
C1662 C1674 1.349 . S
C1663 C1661 1.327 . S
C1663 C1679 1.429 . S
C1663 H1685 0.950 . S
C1664 H1660 0.949 . S
C1664 C1672 1.574 . S
C1664 C1680 1.368 . S
H1665 C1673 0.950 . S
H1666 C1671 0.950 . S
H1667 C1672 0.949 . S
H1668 C1674 0.950 . S
H1669 C1675 0.950 . S
H1670 C1676 0.949 . S
C1671 H1666 0.950 . S
C1671 C1673 1.327 . S
C1671 C1677 1.429 . S
C1672 C1664 1.574 . S
C1672 H1667 0.949 . S
C1672 C1678 1.368 . S
C1673 C1657 1.349 . S
C1673 H1665 0.950 . S
C1673 C1671 1.327 . S
C1674 C1662 1.349 . S
C1674 H1668 0.950 . S
C1674 C1675 1.327 . S
C1675 H1669 0.950 . S
C1675 C1674 1.327 . S
C1675 C1679 1.429 . S
C1676 C1659 1.574 . S
C1676 H1670 0.949 . S
C1676 C1680 1.368 . S
C1677 C1658 1.429 . S
C1677 C1671 1.429 . S
C1677 C1678 1.523 . S
C1678 C1659 1.368 . S
C1678 C1672 1.368 . S
C1678 C1677 1.523 . S
C1679 C1663 1.429 . S
C1679 C1675 1.429 . S
C1679 C1680 1.523 . S
C1680 C1664 1.368 . S
C1680 C1676 1.368 . S
C1680 C1679 1.523 . S
H1681 C1656 0.950 . S
H1682 C1658 0.950 . S
H1683 C1659 0.949 . S
H1684 C1661 0.950 . S
H1685 C1663 0.950 . S
C1686 C1687 1.349 . S
C1686 C1688 1.327 . S
C1686 H1711 0.950 . S
C1687 C1686 1.349 . S
C1687 C1703 1.349 . S
C1688 C1686 1.327 . S
C1688 C1707 1.429 . S
C1688 H1712 0.950 . S
C1689 C1706 1.574 . S
C1689 C1708 1.368 . S
C1689 H1713 0.949 . S
H1690 C1694 0.949 . S
C1691 C1692 1.349 . S
C1691 C1693 1.327 . S
C1691 H1714 0.950 . S
C1692 C1691 1.349 . S
C1692 C1704 1.349 . S
C1693 C1691 1.327 . S
C1693 C1709 1.429 . S
C1693 H1715 0.950 . S
C1694 H1690 0.949 . S
C1694 C1702 1.574 . S
C1694 C1710 1.368 . S
H1695 C1703 0.950 . S
H1696 C1701 0.950 . S
H1697 C1702 0.949 . S
H1698 C1704 0.950 . S
H1699 C1705 0.950 . S
H1700 C1706 0.949 . S
C1701 H1696 0.950 . S
C1701 C1703 1.327 . S
C1701 C1707 1.429 . S
C1702 C1694 1.574 . S
C1702 H1697 0.949 . S
C1702 C1708 1.368 . S
C1703 C1687 1.349 . S
C1703 H1695 0.950 . S
C1703 C1701 1.327 . S
C1704 C1692 1.349 . S
C1704 H1698 0.950 . S
C1704 C1705 1.327 . S
C1705 H1699 0.950 . S
C1705 C1704 1.327 . S
C1705 C1709 1.429 . S
C1706 C1689 1.574 . S
C1706 H1700 0.949 . S
C1706 C1710 1.368 . S
C1707 C1688 1.429 . S
C1707 C1701 1.429 . S
C1707 C1708 1.523 . S
C1708 C1689 1.368 . S
C1708 C1702 1.368 . S
C1708 C1707 1.523 . S
C1709 C1693 1.429 . S
C1709 C1705 1.429 . S
C1709 C1710 1.523 . S
C1710 C1694 1.368 . S
C1710 C1706 1.368 . S
C1710 C1709 1.523 . S
H1711 C1686 0.950 . S
H1712 C1688 0.950 . S
H1713 C1689 0.949 . S
H1714 C1691 0.950 . S
H1715 C1693 0.950 . S
C1716 C1717 1.349 . S
C1716 C1718 1.327 . S
C1716 H1741 0.950 . S
C1717 C1716 1.349 . S
C1717 C1733 1.349 . S
C1718 C1716 1.327 . S
C1718 C1737 1.429 . S
C1718 H1742 0.950 . S
C1719 C1736 1.574 . S
C1719 C1738 1.368 . S
C1719 H1743 0.949 . S
H1720 C1724 0.949 . S
C1721 C1722 1.349 . S
C1721 C1723 1.327 . S
C1721 H1744 0.950 . S
C1722 C1721 1.349 . S
C1722 C1734 1.349 . S
C1723 C1721 1.327 . S
C1723 C1739 1.429 . S
C1723 H1745 0.950 . S
C1724 H1720 0.949 . S
C1724 C1732 1.574 . S
C1724 C1740 1.368 . S
H1725 C1733 0.950 . S
H1726 C1731 0.950 . S
H1727 C1732 0.949 . S
H1728 C1734 0.950 . S
H1729 C1735 0.950 . S
H1730 C1736 0.949 . S
C1731 H1726 0.950 . S
C1731 C1733 1.327 . S
C1731 C1737 1.429 . S
C1732 C1724 1.574 . S
C1732 H1727 0.949 . S
C1732 C1738 1.368 . S
C1733 C1717 1.349 . S
C1733 H1725 0.950 . S
C1733 C1731 1.327 . S
C1734 C1722 1.349 . S
C1734 H1728 0.950 . S
C1734 C1735 1.327 . S
C1735 H1729 0.950 . S
C1735 C1734 1.327 . S
C1735 C1739 1.429 . S
C1736 C1719 1.574 . S
C1736 H1730 0.949 . S
C1736 C1740 1.368 . S
C1737 C1718 1.429 . S
C1737 C1731 1.429 . S
C1737 C1738 1.523 . S
C1738 C1719 1.368 . S
C1738 C1732 1.368 . S
C1738 C1737 1.523 . S
C1739 C1723 1.429 . S
C1739 C1735 1.429 . S
C1739 C1740 1.523 . S
C1740 C1724 1.368 . S
C1740 C1736 1.368 . S
C1740 C1739 1.523 . S
H1741 C1716 0.950 . S
H1742 C1718 0.950 . S
H1743 C1719 0.949 . S
H1744 C1721 0.950 . S
H1745 C1723 0.950 . S
C1746 C1747 1.349 . S
C1746 C1748 1.327 . S
C1746 H1771 0.982 . S
C1747 C1746 1.349 . S
C1747 C1763 1.349 . S
C1748 C1746 1.327 . S
C1748 C1767 1.429 . S
C1748 H1772 0.950 . S
C1749 C1766 1.574 . S
C1749 C1768 1.368 . S
C1749 H1773 0.949 . S
H1750 C1754 0.949 . S
C1751 C1752 1.349 . S
C1751 C1753 1.327 . S
C1751 H1774 0.950 . S
C1752 C1751 1.349 . S
C1752 C1764 1.349 . S
C1753 C1751 1.327 . S
C1753 C1769 1.429 . S
C1753 H1775 0.950 . S
C1754 H1750 0.949 . S
C1754 C1762 1.574 . S
C1754 C1770 1.368 . S
H1755 C1763 0.950 . S
H1756 C1761 0.950 . S
H1757 C1762 0.949 . S
H1758 C1764 0.950 . S
H1759 C1765 0.950 . S
H1760 C1766 0.949 . S
C1761 H1756 0.950 . S
C1761 C1763 1.327 . S
C1761 C1767 1.429 . S
C1762 C1754 1.574 . S
C1762 H1757 0.949 . S
C1762 C1768 1.368 . S
C1763 C1747 1.349 . S
C1763 H1755 0.950 . S
C1763 C1761 1.327 . S
C1764 C1752 1.349 . S
C1764 H1758 0.950 . S
C1764 C1765 1.327 . S
C1765 H1759 0.950 . S
C1765 C1764 1.327 . S
C1765 C1769 1.429 . S
C1766 C1749 1.574 . S
C1766 H1760 0.949 . S
C1766 C1770 1.368 . S
C1767 C1748 1.429 . S
C1767 C1761 1.429 . S
C1767 C1768 1.523 . S
C1768 C1749 1.368 . S
C1768 C1762 1.368 . S
C1768 C1767 1.523 . S
C1769 C1753 1.429 . S
C1769 C1765 1.429 . S
C1769 C1770 1.523 . S
C1770 C1754 1.368 . S
C1770 C1766 1.368 . S
C1770 C1769 1.523 . S
H1771 C1746 0.982 . S
H1772 C1748 0.950 . S
H1773 C1749 0.949 . S
H1774 C1751 0.950 . S
H1775 C1753 0.950 . S
C1776 C1777 1.350 1_554 S
C1776 C1778 1.328 1_554 S
C1776 H1801 0.947 . S
C1777 C1776 1.350 1_556 S
C1777 C1793 1.349 . S
C1778 C1776 1.328 1_556 S
C1778 C1797 1.429 . S
C1778 H1802 0.944 1_556 S
C1779 C1796 1.574 . S
C1779 C1798 1.368 . S
C1779 H1803 0.949 . S
H1780 C1784 0.949 . S
C1781 C1782 1.349 . S
C1781 C1783 1.327 . S
C1781 H1804 0.950 . S
C1782 C1781 1.349 . S
C1782 C1794 1.349 . S
C1783 C1781 1.327 . S
C1783 C1799 1.429 . S
C1783 H1805 0.950 . S
C1784 H1780 0.949 . S
C1784 C1792 1.574 . S
C1784 C1800 1.368 . S
H1785 C1793 0.950 . S
H1786 C1791 0.950 . S
H1787 C1792 0.949 . S
H1788 C1794 0.950 . S
H1789 C1795 0.950 . S
H1790 C1796 0.949 . S
C1791 H1786 0.950 . S
C1791 C1793 1.327 . S
C1791 C1797 1.429 . S
C1792 C1784 1.574 . S
C1792 H1787 0.949 . S
C1792 C1798 1.368 . S
C1793 C1777 1.349 . S
C1793 H1785 0.950 . S
C1793 C1791 1.327 . S
C1794 C1782 1.349 . S
C1794 H1788 0.950 . S
C1794 C1795 1.327 . S
C1795 H1789 0.950 . S
C1795 C1794 1.327 . S
C1795 C1799 1.429 . S
C1796 C1779 1.574 . S
C1796 H1790 0.949 . S
C1796 C1800 1.368 . S
C1797 C1778 1.429 . S
C1797 C1791 1.429 . S
C1797 C1798 1.523 . S
C1798 C1779 1.368 . S
C1798 C1792 1.368 . S
C1798 C1797 1.523 . S
C1799 C1783 1.429 . S
C1799 C1795 1.429 . S
C1799 C1800 1.523 . S
C1800 C1784 1.368 . S
C1800 C1796 1.368 . S
C1800 C1799 1.523 . S
H1801 C1776 0.947 . S
H1802 C1778 0.944 1_554 S
H1803 C1779 0.949 . S
H1804 C1781 0.950 . S
H1805 C1783 0.950 . S
C1806 C1807 1.349 . S
C1806 C1808 1.327 . S
C1806 H1831 0.950 1_556 S
C1807 C1806 1.349 . S
C1807 C1823 1.349 . S
C1808 C1806 1.327 . S
C1808 C1827 1.429 . S
C1808 H1832 0.950 . S
C1809 C1826 1.574 . S
C1809 C1828 1.368 . S
C1809 H1833 0.949 . S
H1810 C1814 0.949 . S
C1811 C1812 1.349 . S
C1811 C1813 1.327 . S
C1811 H1834 0.950 . S
C1812 C1811 1.349 . S
C1812 C1824 1.349 . S
C1813 C1811 1.327 . S
C1813 C1829 1.429 . S
C1813 H1835 0.950 . S
C1814 H1810 0.949 . S
C1814 C1822 1.574 . S
C1814 C1830 1.368 . S
H1815 C1823 0.950 . S
H1816 C1821 0.950 . S
H1817 C1822 0.949 . S
H1818 C1824 0.950 . S
H1819 C1825 0.950 . S
H1820 C1826 0.949 . S
C1821 H1816 0.950 . S
C1821 C1823 1.327 . S
C1821 C1827 1.429 . S
C1822 C1814 1.574 . S
C1822 H1817 0.949 . S
C1822 C1828 1.368 . S
C1823 C1807 1.349 . S
C1823 H1815 0.950 . S
C1823 C1821 1.327 . S
C1824 C1812 1.349 . S
C1824 H1818 0.950 . S
C1824 C1825 1.327 . S
C1825 H1819 0.950 . S
C1825 C1824 1.327 . S
C1825 C1829 1.429 . S
C1826 C1809 1.574 . S
C1826 H1820 0.949 . S
C1826 C1830 1.368 . S
C1827 C1808 1.429 . S
C1827 C1821 1.429 . S
C1827 C1828 1.523 . S
C1828 C1809 1.368 . S
C1828 C1822 1.368 . S
C1828 C1827 1.523 . S
C1829 C1813 1.429 . S
C1829 C1825 1.429 . S
C1829 C1830 1.523 . S
C1830 C1814 1.368 . S
C1830 C1826 1.368 . S
C1830 C1829 1.523 . S
H1831 C1806 0.950 1_554 S
H1832 C1808 0.950 . S
H1833 C1809 0.949 . S
H1834 C1811 0.950 . S
H1835 C1813 0.950 . S
C1836 C1837 1.349 . S
C1836 C1838 1.327 . S
C1836 H1861 0.950 . S
C1837 C1836 1.349 . S
C1837 C1853 1.349 . S
C1838 C1836 1.327 . S
C1838 C1857 1.429 . S
C1838 H1862 0.950 . S
C1839 C1856 1.574 . S
C1839 C1858 1.368 . S
C1839 H1863 0.949 . S
H1840 C1844 0.949 . S
C1841 C1842 1.349 . S
C1841 C1843 1.327 . S
C1841 H1864 0.950 . S
C1842 C1841 1.349 . S
C1842 C1854 1.349 . S
C1843 C1841 1.327 . S
C1843 C1859 1.429 . S
C1843 H1865 0.950 . S
C1844 H1840 0.949 . S
C1844 C1852 1.574 . S
C1844 C1860 1.368 . S
H1845 C1853 0.950 . S
H1846 C1851 0.950 . S
H1847 C1852 0.949 . S
H1848 C1854 0.950 . S
H1849 C1855 0.950 . S
H1850 C1856 0.949 . S
C1851 H1846 0.950 . S
C1851 C1853 1.327 . S
C1851 C1857 1.429 . S
C1852 C1844 1.574 . S
C1852 H1847 0.949 . S
C1852 C1858 1.368 . S
C1853 C1837 1.349 . S
C1853 H1845 0.950 . S
C1853 C1851 1.327 . S
C1854 C1842 1.349 . S
C1854 H1848 0.950 . S
C1854 C1855 1.327 . S
C1855 H1849 0.950 . S
C1855 C1854 1.327 . S
C1855 C1859 1.429 . S
C1856 C1839 1.574 . S
C1856 H1850 0.949 . S
C1856 C1860 1.368 . S
C1857 C1838 1.429 . S
C1857 C1851 1.429 . S
C1857 C1858 1.523 . S
C1858 C1839 1.368 . S
C1858 C1852 1.368 . S
C1858 C1857 1.523 . S
C1859 C1843 1.429 . S
C1859 C1855 1.429 . S
C1859 C1860 1.523 . S
C1860 C1844 1.368 . S
C1860 C1856 1.368 . S
C1860 C1859 1.523 . S
H1861 C1836 0.950 . S
H1862 C1838 0.950 . S
H1863 C1839 0.949 . S
H1864 C1841 0.950 . S
H1865 C1843 0.950 . S
C1866 C1867 1.349 . S
C1866 C1868 1.327 . S
C1866 H1891 0.950 . S
C1867 C1866 1.349 . S
C1867 C1883 1.349 . S
C1868 C1866 1.327 . S
C1868 C1887 1.429 . S
C1868 H1892 0.950 . S
C1869 C1886 1.574 . S
C1869 C1888 1.368 . S
C1869 H1893 0.949 . S
H1870 C1874 0.949 . S
C1871 C1872 1.349 . S
C1871 C1873 1.327 . S
C1871 H1894 0.950 . S
C1872 C1871 1.349 . S
C1872 C1884 1.349 . S
C1873 C1871 1.327 . S
C1873 C1889 1.429 . S
C1873 H1895 0.950 . S
C1874 H1870 0.949 . S
C1874 C1882 1.574 . S
C1874 C1890 1.368 . S
H1875 C1883 0.950 1_554 S
H1876 C1881 0.950 . S
H1877 C1882 0.949 . S
H1878 C1884 0.950 . S
H1879 C1885 0.950 . S
H1880 C1886 0.949 . S
C1881 H1876 0.950 . S
C1881 C1883 1.327 . S
C1881 C1887 1.429 . S
C1882 C1874 1.574 . S
C1882 H1877 0.949 . S
C1882 C1888 1.368 . S
C1883 C1867 1.349 . S
C1883 H1875 0.950 1_556 S
C1883 C1881 1.327 . S
C1884 C1872 1.349 . S
C1884 H1878 0.950 . S
C1884 C1885 1.327 . S
C1885 H1879 0.950 . S
C1885 C1884 1.327 . S
C1885 C1889 1.429 . S
C1886 C1869 1.574 . S
C1886 H1880 0.949 . S
C1886 C1890 1.368 . S
C1887 C1868 1.429 . S
C1887 C1881 1.429 . S
C1887 C1888 1.523 . S
C1888 C1869 1.368 . S
C1888 C1882 1.368 . S
C1888 C1887 1.523 . S
C1889 C1873 1.429 . S
C1889 C1885 1.429 . S
C1889 C1890 1.523 . S
C1890 C1874 1.368 . S
C1890 C1886 1.368 . S
C1890 C1889 1.523 . S
H1891 C1866 0.950 . S
H1892 C1868 0.950 . S
H1893 C1869 0.949 . S
H1894 C1871 0.950 . S
H1895 C1873 0.950 . S
C1896 C1897 1.349 . S
C1896 C1898 1.327 . S
C1896 H1921 0.950 . S
C1897 C1896 1.349 . S
C1897 C1913 1.349 . S
C1898 C1896 1.327 . S
C1898 C1917 1.429 . S
C1898 H1922 0.950 . S
C1899 C1916 1.574 . S
C1899 C1918 1.368 . S
C1899 H1923 0.949 . S
H1900 C1904 0.949 . S
C1901 C1902 1.349 . S
C1901 C1903 1.327 . S
C1901 H1924 0.950 . S
C1902 C1901 1.349 . S
C1902 C1914 1.349 . S
C1903 C1901 1.327 . S
C1903 C1919 1.429 . S
C1903 H1925 0.950 . S
C1904 H1900 0.949 . S
C1904 C1912 1.574 . S
C1904 C1920 1.368 . S
H1905 C1913 0.950 . S
H1906 C1911 0.950 . S
H1907 C1912 0.949 . S
H1908 C1914 0.950 . S
H1909 C1915 0.950 . S
H1910 C1916 0.949 . S
C1911 H1906 0.950 . S
C1911 C1913 1.327 . S
C1911 C1917 1.429 . S
C1912 C1904 1.574 . S
C1912 H1907 0.949 . S
C1912 C1918 1.368 . S
C1913 C1897 1.349 . S
C1913 H1905 0.950 . S
C1913 C1911 1.327 . S
C1914 C1902 1.349 . S
C1914 H1908 0.950 . S
C1914 C1915 1.327 . S
C1915 H1909 0.950 . S
C1915 C1914 1.327 . S
C1915 C1919 1.429 . S
C1916 C1899 1.574 . S
C1916 H1910 0.949 . S
C1916 C1920 1.368 . S
C1917 C1898 1.429 . S
C1917 C1911 1.429 . S
C1917 C1918 1.523 . S
C1918 C1899 1.368 . S
C1918 C1912 1.368 . S
C1918 C1917 1.523 . S
C1919 C1903 1.429 . S
C1919 C1915 1.429 . S
C1919 C1920 1.523 . S
C1920 C1904 1.368 . S
C1920 C1916 1.368 . S
C1920 C1919 1.523 . S
H1921 C1896 0.950 . S
H1922 C1898 0.950 . S
H1923 C1899 0.949 . S
H1924 C1901 0.950 . S
H1925 C1903 0.950 . S
C1926 C1927 1.349 . S
C1926 C1928 1.327 . S
C1926 H1951 0.950 . S
C1927 C1926 1.349 . S
C1927 C1943 1.349 . S
C1928 C1926 1.327 . S
C1928 C1947 1.429 . S
C1928 H1952 0.950 . S
C1929 C1946 1.574 . S
C1929 C1948 1.368 . S
C1929 H1953 0.949 . S
H1930 C1934 0.949 . S
C1931 C1932 1.349 . S
C1931 C1933 1.327 . S
C1931 H1954 0.950 . S
C1932 C1931 1.349 . S
C1932 C1944 1.349 . S
C1933 C1931 1.327 . S
C1933 C1949 1.429 . S
C1933 H1955 0.950 . S
C1934 H1930 0.949 . S
C1934 C1942 1.574 . S
C1934 C1950 1.368 . S
H1935 C1943 0.950 . S
H1936 C1941 0.950 . S
H1937 C1942 0.949 . S
H1938 C1944 0.950 . S
H1939 C1945 0.950 . S
H1940 C1946 0.949 . S
C1941 H1936 0.950 . S
C1941 C1943 1.327 . S
C1941 C1947 1.429 . S
C1942 C1934 1.574 . S
C1942 H1937 0.949 . S
C1942 C1948 1.368 . S
C1943 C1927 1.349 . S
C1943 H1935 0.950 . S
C1943 C1941 1.327 . S
C1944 C1932 1.349 . S
C1944 H1938 0.950 . S
C1944 C1945 1.327 . S
C1945 H1939 0.950 . S
C1945 C1944 1.327 . S
C1945 C1949 1.429 . S
C1946 C1929 1.574 . S
C1946 H1940 0.949 . S
C1946 C1950 1.368 . S
C1947 C1928 1.429 . S
C1947 C1941 1.429 . S
C1947 C1948 1.523 . S
C1948 C1929 1.368 . S
C1948 C1942 1.368 . S
C1948 C1947 1.523 . S
C1949 C1933 1.429 . S
C1949 C1945 1.429 . S
C1949 C1950 1.523 . S
C1950 C1934 1.368 . S
C1950 C1946 1.368 . S
C1950 C1949 1.523 . S
H1951 C1926 0.950 . S
H1952 C1928 0.950 . S
H1953 C1929 0.949 . S
H1954 C1931 0.950 . S
H1955 C1933 0.950 . S
C1956 C1957 1.349 . S
C1956 C1958 1.327 . S
C1956 H1981 0.950 . S
C1957 C1956 1.349 . S
C1957 C1973 1.349 . S
C1958 C1956 1.327 . S
C1958 C1977 1.429 . S
C1958 H1982 0.950 . S
C1959 C1976 1.574 . S
C1959 C1978 1.368 . S
C1959 H1983 0.949 . S
H1960 C1964 0.949 . S
C1961 C1962 1.349 . S
C1961 C1963 1.327 . S
C1961 H1984 0.950 . S
C1962 C1961 1.349 . S
C1962 C1974 1.349 . S
C1963 C1961 1.327 . S
C1963 C1979 1.429 . S
C1963 H1985 0.950 . S
C1964 H1960 0.949 . S
C1964 C1972 1.574 . S
C1964 C1980 1.368 . S
H1965 C1973 0.950 . S
H1966 C1971 0.950 . S
H1967 C1972 0.949 . S
H1968 C1974 0.950 . S
H1969 C1975 0.950 . S
H1970 C1976 0.949 . S
C1971 H1966 0.950 . S
C1971 C1973 1.327 . S
C1971 C1977 1.429 . S
C1972 C1964 1.574 . S
C1972 H1967 0.949 . S
C1972 C1978 1.368 . S
C1973 C1957 1.349 . S
C1973 H1965 0.950 . S
C1973 C1971 1.327 . S
C1974 C1962 1.349 . S
C1974 H1968 0.950 . S
C1974 C1975 1.327 . S
C1975 H1969 0.950 . S
C1975 C1974 1.327 . S
C1975 C1979 1.429 . S
C1976 C1959 1.574 . S
C1976 H1970 0.949 . S
C1976 C1980 1.368 . S
C1977 C1958 1.429 . S
C1977 C1971 1.429 . S
C1977 C1978 1.523 . S
C1978 C1959 1.368 . S
C1978 C1972 1.368 . S
C1978 C1977 1.523 . S
C1979 C1963 1.429 . S
C1979 C1975 1.429 . S
C1979 C1980 1.523 . S
C1980 C1964 1.368 . S
C1980 C1976 1.368 . S
C1980 C1979 1.523 . S
H1981 C1956 0.950 . S
H1982 C1958 0.950 . S
H1983 C1959 0.949 . S
H1984 C1961 0.950 . S
H1985 C1963 0.950 . S
C1986 C1987 1.349 . S
C1986 C1988 1.327 . S
C1986 H2011 0.950 . S
C1987 C1986 1.349 . S
C1987 C2003 1.349 . S
C1988 C1986 1.327 . S
C1988 C2007 1.429 . S
C1988 H2012 0.950 . S
C1989 C2006 1.574 . S
C1989 C2008 1.368 . S
C1989 H2013 0.949 . S
H1990 C1994 0.949 . S
C1991 C1992 1.349 . S
C1991 C1993 1.327 . S
C1991 H2014 0.950 . S
C1992 C1991 1.349 . S
C1992 C2004 1.349 . S
C1993 C1991 1.327 . S
C1993 C2009 1.429 . S
C1993 H2015 0.950 . S
C1994 H1990 0.949 . S
C1994 C2002 1.574 . S
C1994 C2010 1.368 . S
H1995 C2003 0.950 . S
H1996 C2001 0.950 . S
H1997 C2002 0.949 . S
H1998 C2004 0.950 . S
H1999 C2005 0.950 . S
H2000 C2006 0.949 . S
C2001 H1996 0.950 . S
C2001 C2003 1.327 . S
C2001 C2007 1.429 . S
C2002 C1994 1.574 . S
C2002 H1997 0.949 . S
C2002 C2008 1.368 . S
C2003 C1987 1.349 . S
C2003 H1995 0.950 . S
C2003 C2001 1.327 . S
C2004 C1992 1.349 . S
C2004 H1998 0.950 . S
C2004 C2005 1.327 . S
C2005 H1999 0.950 . S
C2005 C2004 1.327 . S
C2005 C2009 1.429 . S
C2006 C1989 1.574 . S
C2006 H2000 0.949 . S
C2006 C2010 1.368 . S
C2007 C1988 1.429 . S
C2007 C2001 1.429 . S
C2007 C2008 1.523 . S
C2008 C1989 1.368 . S
C2008 C2002 1.368 . S
C2008 C2007 1.523 . S
C2009 C1993 1.429 . S
C2009 C2005 1.429 . S
C2009 C2010 1.523 . S
C2010 C1994 1.368 . S
C2010 C2006 1.368 . S
C2010 C2009 1.523 . S
H2011 C1986 0.950 . S
H2012 C1988 0.950 . S
H2013 C1989 0.949 . S
H2014 C1991 0.950 . S
H2015 C1993 0.950 . S
C2016 C2017 1.349 . S
C2016 C2018 1.327 . S
C2016 H2041 0.950 . S
C2017 C2016 1.349 . S
C2017 C2033 1.349 . S
C2018 C2016 1.327 . S
C2018 C2037 1.429 . S
C2018 H2042 0.950 . S
C2019 C2036 1.574 . S
C2019 C2038 1.368 . S
C2019 H2043 0.949 . S
H2020 C2024 0.949 . S
C2021 C2022 1.349 . S
C2021 C2023 1.327 . S
C2021 H2044 0.950 . S
C2022 C2021 1.349 . S
C2022 C2034 1.349 . S
C2023 C2021 1.327 . S
C2023 C2039 1.429 . S
C2023 H2045 0.950 . S
C2024 H2020 0.949 . S
C2024 C2032 1.574 . S
C2024 C2040 1.368 . S
H2025 C2033 0.950 . S
H2026 C2031 0.950 . S
H2027 C2032 0.949 . S
H2028 C2034 0.950 . S
H2029 C2035 0.950 . S
H2030 C2036 0.949 . S
C2031 H2026 0.950 . S
C2031 C2033 1.327 . S
C2031 C2037 1.429 . S
C2032 C2024 1.574 . S
C2032 H2027 0.949 . S
C2032 C2038 1.368 . S
C2033 C2017 1.349 . S
C2033 H2025 0.950 . S
C2033 C2031 1.327 . S
C2034 C2022 1.349 . S
C2034 H2028 0.950 . S
C2034 C2035 1.327 . S
C2035 H2029 0.950 . S
C2035 C2034 1.327 . S
C2035 C2039 1.429 . S
C2036 C2019 1.574 . S
C2036 H2030 0.949 . S
C2036 C2040 1.368 . S
C2037 C2018 1.429 . S
C2037 C2031 1.429 . S
C2037 C2038 1.523 . S
C2038 C2019 1.368 . S
C2038 C2032 1.368 . S
C2038 C2037 1.523 . S
C2039 C2023 1.429 . S
C2039 C2035 1.429 . S
C2039 C2040 1.523 . S
C2040 C2024 1.368 . S
C2040 C2036 1.368 . S
C2040 C2039 1.523 . S
H2041 C2016 0.950 . S
H2042 C2018 0.950 . S
H2043 C2019 0.949 . S
H2044 C2021 0.950 . S
H2045 C2023 0.950 . S
C2046 C2047 1.349 . S
C2046 C2048 1.327 . S
C2046 H2071 0.950 . S
C2047 C2046 1.349 . S
C2047 C2063 1.349 . S
C2048 C2046 1.327 . S
C2048 C2067 1.429 . S
C2048 H2072 0.950 . S
C2049 C2066 1.574 . S
C2049 C2068 1.368 . S
C2049 H2073 0.949 . S
H2050 C2054 0.949 . S
C2051 C2052 1.349 . S
C2051 C2053 1.327 . S
C2051 H2074 0.950 . S
C2052 C2051 1.349 . S
C2052 C2064 1.349 . S
C2053 C2051 1.327 . S
C2053 C2069 1.429 . S
C2053 H2075 0.950 . S
C2054 H2050 0.949 . S
C2054 C2062 1.574 . S
C2054 C2070 1.368 . S
H2055 C2063 0.950 . S
H2056 C2061 0.950 . S
H2057 C2062 0.949 . S
H2058 C2064 0.950 . S
H2059 C2065 0.950 . S
H2060 C2066 0.949 . S
C2061 H2056 0.950 . S
C2061 C2063 1.327 . S
C2061 C2067 1.429 . S
C2062 C2054 1.574 . S
C2062 H2057 0.949 . S
C2062 C2068 1.368 . S
C2063 C2047 1.349 . S
C2063 H2055 0.950 . S
C2063 C2061 1.327 . S
C2064 C2052 1.349 . S
C2064 H2058 0.950 . S
C2064 C2065 1.327 . S
C2065 H2059 0.950 . S
C2065 C2064 1.327 . S
C2065 C2069 1.429 . S
C2066 C2049 1.574 . S
C2066 H2060 0.949 . S
C2066 C2070 1.368 . S
C2067 C2048 1.429 . S
C2067 C2061 1.429 . S
C2067 C2068 1.523 . S
C2068 C2049 1.368 . S
C2068 C2062 1.368 . S
C2068 C2067 1.523 . S
C2069 C2053 1.429 . S
C2069 C2065 1.429 . S
C2069 C2070 1.523 . S
C2070 C2054 1.368 . S
C2070 C2066 1.368 . S
C2070 C2069 1.523 . S
H2071 C2046 0.950 . S
H2072 C2048 0.950 . S
H2073 C2049 0.949 . S
H2074 C2051 0.950 . S
H2075 C2053 0.950 . S
C2076 C2077 1.349 . S
C2076 C2078 1.327 . S
C2076 H2101 0.950 . S
C2077 C2076 1.349 . S
C2077 C2093 1.349 . S
C2078 C2076 1.327 . S
C2078 C2097 1.429 . S
C2078 H2102 0.950 . S
C2079 C2096 1.574 . S
C2079 C2098 1.368 . S
C2079 H2103 0.949 . S
H2080 C2084 0.949 . S
C2081 C2082 1.349 . S
C2081 C2083 1.327 . S
C2081 H2104 0.950 . S
C2082 C2081 1.349 . S
C2082 C2094 1.349 . S
C2083 C2081 1.327 . S
C2083 C2099 1.429 . S
C2083 H2105 0.950 . S
C2084 H2080 0.949 . S
C2084 C2092 1.574 . S
C2084 C2100 1.368 . S
H2085 C2093 0.950 . S
H2086 C2091 0.950 . S
H2087 C2092 0.949 . S
H2088 C2094 0.950 . S
H2089 C2095 0.950 . S
H2090 C2096 0.949 . S
C2091 H2086 0.950 . S
C2091 C2093 1.327 . S
C2091 C2097 1.429 . S
C2092 C2084 1.574 . S
C2092 H2087 0.949 . S
C2092 C2098 1.368 . S
C2093 C2077 1.349 . S
C2093 H2085 0.950 . S
C2093 C2091 1.327 . S
C2094 C2082 1.349 . S
C2094 H2088 0.950 . S
C2094 C2095 1.327 . S
C2095 H2089 0.950 . S
C2095 C2094 1.327 . S
C2095 C2099 1.429 . S
C2096 C2079 1.574 . S
C2096 H2090 0.949 . S
C2096 C2100 1.368 . S
C2097 C2078 1.429 . S
C2097 C2091 1.429 . S
C2097 C2098 1.523 . S
C2098 C2079 1.368 . S
C2098 C2092 1.368 . S
C2098 C2097 1.523 . S
C2099 C2083 1.429 . S
C2099 C2095 1.429 . S
C2099 C2100 1.523 . S
C2100 C2084 1.368 . S
C2100 C2096 1.368 . S
C2100 C2099 1.523 . S
H2101 C2076 0.950 . S
H2102 C2078 0.950 . S
H2103 C2079 0.949 . S
H2104 C2081 0.950 . S
H2105 C2083 0.950 . S
C2106 C2107 1.401 . S
C2106 C2108 1.264 1_455 S
C2106 H2131 0.931 1_455 S
C2107 C2106 1.401 . S
C2107 C2123 1.349 . S
C2108 C2106 1.264 1_655 S
C2108 C2127 1.409 1_655 S
C2108 H2132 1.007 . S
C2109 C2126 1.574 . S
C2109 C2128 1.368 . S
C2109 H2133 0.949 . S
H2110 C2114 0.949 . S
C2111 C2112 1.349 . S
C2111 C2113 1.327 . S
C2111 H2134 0.950 . S
C2112 C2111 1.349 . S
C2112 C2124 1.349 1_455 S
C2113 C2111 1.327 . S
C2113 C2129 1.429 . S
C2113 H2135 0.950 . S
C2114 H2110 0.949 . S
C2114 C2122 1.574 . S
C2114 C2130 1.368 1_655 S
H2115 C2123 0.950 . S
H2116 C2121 0.950 . S
H2117 C2122 0.949 . S
H2118 C2124 0.950 . S
H2119 C2125 0.950 . S
H2120 C2126 0.949 . S
C2121 H2116 0.950 . S
C2121 C2123 1.327 . S
C2121 C2127 1.429 . S
C2122 C2114 1.574 . S
C2122 H2117 0.949 . S
C2122 C2128 1.368 1_655 S
C2123 C2107 1.349 . S
C2123 H2115 0.950 . S
C2123 C2121 1.327 . S
C2124 C2112 1.349 1_655 S
C2124 H2118 0.950 . S
C2124 C2125 1.327 . S
C2125 H2119 0.950 . S
C2125 C2124 1.327 . S
C2125 C2129 1.429 1_655 S
C2126 C2109 1.574 . S
C2126 H2120 0.949 . S
C2126 C2130 1.368 . S
C2127 C2108 1.409 1_455 S
C2127 C2121 1.429 . S
C2127 C2128 1.523 . S
C2128 C2109 1.368 . S
C2128 C2122 1.368 1_455 S
C2128 C2127 1.523 . S
C2129 C2113 1.429 . S
C2129 C2125 1.429 1_455 S
C2129 C2130 1.523 . S
C2130 C2114 1.368 1_455 S
C2130 C2126 1.368 . S
C2130 C2129 1.523 . S
H2131 C2106 0.931 1_655 S
H2132 C2108 1.007 . S
H2133 C2109 0.949 . S
H2134 C2111 0.950 . S
H2135 C2113 0.950 . S
C2136 C2137 1.349 . S
C2136 C2138 1.327 . S
C2136 H2161 0.950 . S
C2137 C2136 1.349 . S
C2137 C2153 1.349 . S
C2138 C2136 1.327 . S
C2138 C2157 1.429 . S
C2138 H2162 0.950 . S
C2139 C2156 1.574 . S
C2139 C2158 1.368 . S
C2139 H2163 0.949 . S
H2140 C2144 0.949 . S
C2141 C2142 1.349 . S
C2141 C2143 1.327 . S
C2141 H2164 0.950 . S
C2142 C2141 1.349 . S
C2142 C2154 1.349 . S
C2143 C2141 1.327 . S
C2143 C2159 1.429 . S
C2143 H2165 0.950 . S
C2144 H2140 0.949 . S
C2144 C2152 1.574 . S
C2144 C2160 1.368 . S
H2145 C2153 0.950 . S
H2146 C2151 0.950 . S
H2147 C2152 0.949 . S
H2148 C2154 0.950 . S
H2149 C2155 0.950 . S
H2150 C2156 0.949 . S
C2151 H2146 0.950 . S
C2151 C2153 1.327 . S
C2151 C2157 1.429 . S
C2152 C2144 1.574 . S
C2152 H2147 0.949 . S
C2152 C2158 1.368 . S
C2153 C2137 1.349 . S
C2153 H2145 0.950 . S
C2153 C2151 1.327 . S
C2154 C2142 1.349 . S
C2154 H2148 0.950 . S
C2154 C2155 1.327 . S
C2155 H2149 0.950 . S
C2155 C2154 1.327 . S
C2155 C2159 1.429 . S
C2156 C2139 1.574 . S
C2156 H2150 0.949 . S
C2156 C2160 1.368 . S
C2157 C2138 1.429 . S
C2157 C2151 1.429 . S
C2157 C2158 1.523 . S
C2158 C2139 1.368 . S
C2158 C2152 1.368 . S
C2158 C2157 1.523 . S
C2159 C2143 1.429 . S
C2159 C2155 1.429 . S
C2159 C2160 1.523 . S
C2160 C2144 1.368 . S
C2160 C2156 1.368 . S
C2160 C2159 1.523 . S
H2161 C2136 0.950 . S
H2162 C2138 0.950 . S
H2163 C2139 0.949 . S
H2164 C2141 0.950 . S
H2165 C2143 0.950 . S
C2166 C2167 1.349 . S
C2166 C2168 1.327 . S
C2166 H2191 0.950 . S
C2167 C2166 1.349 . S
C2167 C2183 1.349 1_565 S
C2168 C2166 1.327 . S
C2168 C2187 1.429 . S
C2168 H2192 0.950 . S
C2169 C2186 1.574 . S
C2169 C2188 1.368 1_545 S
C2169 H2193 0.949 . S
H2170 C2174 0.949 . S
C2171 C2172 1.349 1_545 S
C2171 C2173 1.327 . S
C2171 H2194 0.950 . S
C2172 C2171 1.349 1_565 S
C2172 C2184 1.349 . S
C2173 C2171 1.327 . S
C2173 C2189 1.429 1_545 S
C2173 H2195 0.950 . S
C2174 H2170 0.949 . S
C2174 C2182 1.574 . S
C2174 C2190 1.368 . S
H2175 C2183 0.950 . S
H2176 C2181 0.950 . S
H2177 C2182 0.949 . S
H2178 C2184 0.950 . S
H2179 C2185 0.950 . S
H2180 C2186 0.949 . S
C2181 H2176 0.950 . S
C2181 C2183 1.327 . S
C2181 C2187 1.429 1_545 S
C2182 C2174 1.574 . S
C2182 H2177 0.949 . S
C2182 C2188 1.368 . S
C2183 C2167 1.349 1_545 S
C2183 H2175 0.950 . S
C2183 C2181 1.327 . S
C2184 C2172 1.349 . S
C2184 H2178 0.950 . S
C2184 C2185 1.327 . S
C2185 H2179 0.950 . S
C2185 C2184 1.327 . S
C2185 C2189 1.429 . S
C2186 C2169 1.574 . S
C2186 H2180 0.949 . S
C2186 C2190 1.368 1_545 S
C2187 C2168 1.429 . S
C2187 C2181 1.429 1_565 S
C2187 C2188 1.523 . S
C2188 C2169 1.368 1_565 S
C2188 C2182 1.368 . S
C2188 C2187 1.523 . S
C2189 C2173 1.429 1_565 S
C2189 C2185 1.429 . S
C2189 C2190 1.523 . S
C2190 C2174 1.368 . S
C2190 C2186 1.368 1_565 S
C2190 C2189 1.523 . S
H2191 C2166 0.950 . S
H2192 C2168 0.950 . S
H2193 C2169 0.949 . S
H2194 C2171 0.950 . S
H2195 C2173 0.950 . S
C2196 C2197 1.292 1_545 S
C2196 C2198 1.372 . S
C2196 H2221 0.968 . S
C2197 C2196 1.292 1_565 S
C2197 C2213 1.349 . S
C2198 C2196 1.372 . S
C2198 C2217 1.429 1_545 S
C2198 H2222 0.950 . S
C2199 C2216 1.574 . S
C2199 C2218 1.368 . S
C2199 H2223 0.949 . S
H2200 C2204 0.949 . S
C2201 C2202 1.375 . S
C2201 C2203 1.327 . S
C2201 H2224 0.950 . S
C2202 C2201 1.375 . S
C2202 C2214 1.342 1_565 S
C2203 C2201 1.327 . S
C2203 C2219 1.429 . S
C2203 H2225 0.950 . S
C2204 H2200 0.949 . S
C2204 C2212 1.574 . S
C2204 C2220 1.368 1_545 S
H2205 C2213 0.950 . S
H2206 C2211 0.950 . S
H2207 C2212 0.949 . S
H2208 C2214 0.950 . S
H2209 C2215 0.950 . S
H2210 C2216 0.949 . S
C2211 H2206 0.950 . S
C2211 C2213 1.327 . S
C2211 C2217 1.429 . S
C2212 C2204 1.574 . S
C2212 H2207 0.949 . S
C2212 C2218 1.368 1_545 S
C2213 C2197 1.349 . S
C2213 H2205 0.950 . S
C2213 C2211 1.327 . S
C2214 C2202 1.342 1_545 S
C2214 H2208 0.950 . S
C2214 C2215 1.327 . S
C2215 H2209 0.950 . S
C2215 C2214 1.327 . S
C2215 C2219 1.429 1_545 S
C2216 C2199 1.574 . S
C2216 H2210 0.949 . S
C2216 C2220 1.368 . S
C2217 C2198 1.429 1_565 S
C2217 C2211 1.429 . S
C2217 C2218 1.523 . S
C2218 C2199 1.368 . S
C2218 C2212 1.368 1_565 S
C2218 C2217 1.523 . S
C2219 C2203 1.429 . S
C2219 C2215 1.429 1_565 S
C2219 C2220 1.523 . S
C2220 C2204 1.368 1_565 S
C2220 C2216 1.368 . S
C2220 C2219 1.523 . S
H2221 C2196 0.968 . S
H2222 C2198 0.950 . S
H2223 C2199 0.949 . S
H2224 C2201 0.950 . S
H2225 C2203 0.950 . S
C2226 C2227 1.371 . S
C2226 C2228 1.382 1_455 S
C2226 H2251 0.898 1_455 S
C2227 C2226 1.371 . S
C2227 C2243 1.349 . S
C2228 C2226 1.382 1_655 S
C2228 C2247 1.404 1_655 S
C2228 H2252 0.960 . S
C2229 C2246 1.574 . S
C2229 C2248 1.368 . S
C2229 H2253 0.949 . S
H2230 C2234 0.949 . S
C2231 C2232 1.349 . S
C2231 C2233 1.327 . S
C2231 H2254 0.950 . S
C2232 C2231 1.349 . S
C2232 C2244 1.349 1_455 S
C2233 C2231 1.327 . S
C2233 C2249 1.429 . S
C2233 H2255 0.950 . S
C2234 H2230 0.949 . S
C2234 C2242 1.574 . S
C2234 C2250 1.368 1_655 S
H2235 C2243 0.950 . S
H2236 C2241 0.950 . S
H2237 C2242 0.949 . S
H2238 C2244 0.950 . S
H2239 C2245 0.950 . S
H2240 C2246 0.949 . S
C2241 H2236 0.950 . S
C2241 C2243 1.327 . S
C2241 C2247 1.429 . S
C2242 C2234 1.574 . S
C2242 H2237 0.949 . S
C2242 C2248 1.368 1_655 S
C2243 C2227 1.349 . S
C2243 H2235 0.950 . S
C2243 C2241 1.327 . S
C2244 C2232 1.349 1_655 S
C2244 H2238 0.950 . S
C2244 C2245 1.327 . S
C2245 H2239 0.950 . S
C2245 C2244 1.327 . S
C2245 C2249 1.429 1_655 S
C2246 C2229 1.574 . S
C2246 H2240 0.949 . S
C2246 C2250 1.368 . S
C2247 C2228 1.404 1_455 S
C2247 C2241 1.429 . S
C2247 C2248 1.523 . S
C2248 C2229 1.368 . S
C2248 C2242 1.368 1_455 S
C2248 C2247 1.523 . S
C2249 C2233 1.429 . S
C2249 C2245 1.429 1_455 S
C2249 C2250 1.523 . S
C2250 C2234 1.368 1_455 S
C2250 C2246 1.368 . S
C2250 C2249 1.523 . S
H2251 C2226 0.898 1_655 S
H2252 C2228 0.960 . S
H2253 C2229 0.949 . S
H2254 C2231 0.950 . S
H2255 C2233 0.950 . S
C2256 C2257 1.349 . S
C2256 C2258 1.327 . S
C2256 H2281 0.950 . S
C2257 C2256 1.349 . S
C2257 C2273 1.349 . S
C2258 C2256 1.327 . S
C2258 C2277 1.429 . S
C2258 H2282 0.950 . S
C2259 C2276 1.574 . S
C2259 C2278 1.368 . S
C2259 H2283 0.949 . S
H2260 C2264 0.949 . S
C2261 C2262 1.349 . S
C2261 C2263 1.327 . S
C2261 H2284 0.950 . S
C2262 C2261 1.349 . S
C2262 C2274 1.349 . S
C2263 C2261 1.327 . S
C2263 C2279 1.429 . S
C2263 H2285 0.950 . S
C2264 H2260 0.949 . S
C2264 C2272 1.574 . S
C2264 C2280 1.368 . S
H2265 C2273 0.950 . S
H2266 C2271 0.950 . S
H2267 C2272 0.949 . S
H2268 C2274 0.950 . S
H2269 C2275 0.950 . S
H2270 C2276 0.949 . S
C2271 H2266 0.950 . S
C2271 C2273 1.327 . S
C2271 C2277 1.429 . S
C2272 C2264 1.574 . S
C2272 H2267 0.949 . S
C2272 C2278 1.368 . S
C2273 C2257 1.349 . S
C2273 H2265 0.950 . S
C2273 C2271 1.327 . S
C2274 C2262 1.349 . S
C2274 H2268 0.950 . S
C2274 C2275 1.327 . S
C2275 H2269 0.950 . S
C2275 C2274 1.327 . S
C2275 C2279 1.429 . S
C2276 C2259 1.574 . S
C2276 H2270 0.949 . S
C2276 C2280 1.368 . S
C2277 C2258 1.429 . S
C2277 C2271 1.429 . S
C2277 C2278 1.523 . S
C2278 C2259 1.368 . S
C2278 C2272 1.368 . S
C2278 C2277 1.523 . S
C2279 C2263 1.429 . S
C2279 C2275 1.429 . S
C2279 C2280 1.523 . S
C2280 C2264 1.368 . S
C2280 C2276 1.368 . S
C2280 C2279 1.523 . S
H2281 C2256 0.950 . S
H2282 C2258 0.950 . S
H2283 C2259 0.949 . S
H2284 C2261 0.950 . S
H2285 C2263 0.950 . S
C2286 C2287 1.349 . S
C2286 C2288 1.327 . S
C2286 H2311 0.950 . S
C2287 C2286 1.349 . S
C2287 C2303 1.349 . S
C2288 C2286 1.327 . S
C2288 C2307 1.429 . S
C2288 H2312 0.950 . S
C2289 C2306 1.574 . S
C2289 C2308 1.368 . S
C2289 H2313 0.949 . S
H2290 C2294 0.949 . S
C2291 C2292 1.349 . S
C2291 C2293 1.327 . S
C2291 H2314 0.950 . S
C2292 C2291 1.349 . S
C2292 C2304 1.349 . S
C2293 C2291 1.327 . S
C2293 C2309 1.429 . S
C2293 H2315 0.950 . S
C2294 H2290 0.949 . S
C2294 C2302 1.574 . S
C2294 C2310 1.368 . S
H2295 C2303 0.950 . S
H2296 C2301 0.950 . S
H2297 C2302 0.949 . S
H2298 C2304 0.950 . S
H2299 C2305 0.950 . S
H2300 C2306 0.949 . S
C2301 H2296 0.950 . S
C2301 C2303 1.327 . S
C2301 C2307 1.429 . S
C2302 C2294 1.574 . S
C2302 H2297 0.949 . S
C2302 C2308 1.368 . S
C2303 C2287 1.349 . S
C2303 H2295 0.950 . S
C2303 C2301 1.327 . S
C2304 C2292 1.349 . S
C2304 H2298 0.950 . S
C2304 C2305 1.327 . S
C2305 H2299 0.950 . S
C2305 C2304 1.327 . S
C2305 C2309 1.429 . S
C2306 C2289 1.574 . S
C2306 H2300 0.949 . S
C2306 C2310 1.368 . S
C2307 C2288 1.429 . S
C2307 C2301 1.429 . S
C2307 C2308 1.523 . S
C2308 C2289 1.368 . S
C2308 C2302 1.368 . S
C2308 C2307 1.523 . S
C2309 C2293 1.429 . S
C2309 C2305 1.429 . S
C2309 C2310 1.523 . S
C2310 C2294 1.368 . S
C2310 C2306 1.368 . S
C2310 C2309 1.523 . S
H2311 C2286 0.950 . S
H2312 C2288 0.950 . S
H2313 C2289 0.949 . S
H2314 C2291 0.950 . S
H2315 C2293 0.950 . S
C2316 C2317 1.349 . S
C2316 C2318 1.327 . S
C2316 H2341 0.950 . S
C2317 C2316 1.349 . S
C2317 C2333 1.349 . S
C2318 C2316 1.327 . S
C2318 C2337 1.429 . S
C2318 H2342 0.950 . S
C2319 C2336 1.574 . S
C2319 C2338 1.368 . S
C2319 H2343 0.949 . S
H2320 C2324 0.949 . S
C2321 C2322 1.349 . S
C2321 C2323 1.327 . S
C2321 H2344 0.950 . S
C2322 C2321 1.349 . S
C2322 C2334 1.349 . S
C2323 C2321 1.327 . S
C2323 C2339 1.429 . S
C2323 H2345 0.950 . S
C2324 H2320 0.949 . S
C2324 C2332 1.574 . S
C2324 C2340 1.368 . S
H2325 C2333 0.950 . S
H2326 C2331 0.950 . S
H2327 C2332 0.949 . S
H2328 C2334 0.950 . S
H2329 C2335 0.950 . S
H2330 C2336 0.949 . S
C2331 H2326 0.950 . S
C2331 C2333 1.327 . S
C2331 C2337 1.429 . S
C2332 C2324 1.574 . S
C2332 H2327 0.949 . S
C2332 C2338 1.368 . S
C2333 C2317 1.349 . S
C2333 H2325 0.950 . S
C2333 C2331 1.327 . S
C2334 C2322 1.349 . S
C2334 H2328 0.950 . S
C2334 C2335 1.327 . S
C2335 H2329 0.950 . S
C2335 C2334 1.327 . S
C2335 C2339 1.429 . S
C2336 C2319 1.574 . S
C2336 H2330 0.949 . S
C2336 C2340 1.368 . S
C2337 C2318 1.429 . S
C2337 C2331 1.429 . S
C2337 C2338 1.523 . S
C2338 C2319 1.368 . S
C2338 C2332 1.368 . S
C2338 C2337 1.523 . S
C2339 C2323 1.429 . S
C2339 C2335 1.429 . S
C2339 C2340 1.523 . S
C2340 C2324 1.368 . S
C2340 C2336 1.368 . S
C2340 C2339 1.523 . S
H2341 C2316 0.950 . S
H2342 C2318 0.950 . S
H2343 C2319 0.949 . S
H2344 C2321 0.950 . S
H2345 C2323 0.950 . S
C2346 C2347 1.349 . S
C2346 C2348 1.327 . S
C2346 H2371 0.950 . S
C2347 C2346 1.349 . S
C2347 C2363 1.349 . S
C2348 C2346 1.327 . S
C2348 C2367 1.429 . S
C2348 H2372 0.950 . S
C2349 C2366 1.574 . S
C2349 C2368 1.368 . S
C2349 H2373 0.949 . S
H2350 C2354 0.949 . S
C2351 C2352 1.349 . S
C2351 C2353 1.327 . S
C2351 H2374 0.950 . S
C2352 C2351 1.349 . S
C2352 C2364 1.349 . S
C2353 C2351 1.327 . S
C2353 C2369 1.429 . S
C2353 H2375 0.950 . S
C2354 H2350 0.949 . S
C2354 C2362 1.574 . S
C2354 C2370 1.368 . S
H2355 C2363 0.950 . S
H2356 C2361 0.950 . S
H2357 C2362 0.949 . S
H2358 C2364 0.950 . S
H2359 C2365 0.950 . S
H2360 C2366 0.949 . S
C2361 H2356 0.950 . S
C2361 C2363 1.327 . S
C2361 C2367 1.429 . S
C2362 C2354 1.574 . S
C2362 H2357 0.949 . S
C2362 C2368 1.368 . S
C2363 C2347 1.349 . S
C2363 H2355 0.950 . S
C2363 C2361 1.327 . S
C2364 C2352 1.349 . S
C2364 H2358 0.950 . S
C2364 C2365 1.327 . S
C2365 H2359 0.950 . S
C2365 C2364 1.327 . S
C2365 C2369 1.429 . S
C2366 C2349 1.574 . S
C2366 H2360 0.949 . S
C2366 C2370 1.368 . S
C2367 C2348 1.429 . S
C2367 C2361 1.429 . S
C2367 C2368 1.523 . S
C2368 C2349 1.368 . S
C2368 C2362 1.368 . S
C2368 C2367 1.523 . S
C2369 C2353 1.429 . S
C2369 C2365 1.429 . S
C2369 C2370 1.523 . S
C2370 C2354 1.368 . S
C2370 C2366 1.368 . S
C2370 C2369 1.523 . S
H2371 C2346 0.950 . S
H2372 C2348 0.950 . S
H2373 C2349 0.949 . S
H2374 C2351 0.950 . S
H2375 C2353 0.950 . S
C2376 C2377 1.299 1_565 S
C2376 C2378 1.355 . S
C2376 H2401 0.974 . S
C2377 C2376 1.299 1_545 S
C2377 C2393 1.349 . S
C2378 C2376 1.355 . S
C2378 C2397 1.429 1_565 S
C2378 H2402 0.950 . S
C2379 C2396 1.574 . S
C2379 C2398 1.368 . S
C2379 H2403 0.949 . S
H2380 C2384 0.949 . S
C2381 C2382 1.349 . S
C2381 C2383 1.327 . S
C2381 H2404 0.950 . S
C2382 C2381 1.349 . S
C2382 C2394 1.349 1_545 S
C2383 C2381 1.327 . S
C2383 C2399 1.429 . S
C2383 H2405 0.950 . S
C2384 H2380 0.949 . S
C2384 C2392 1.574 . S
C2384 C2400 1.368 1_565 S
H2385 C2393 0.950 . S
H2386 C2391 0.950 . S
H2387 C2392 0.949 . S
H2388 C2394 0.950 . S
H2389 C2395 0.950 . S
H2390 C2396 0.949 . S
C2391 H2386 0.950 . S
C2391 C2393 1.327 . S
C2391 C2397 1.429 . S
C2392 C2384 1.574 . S
C2392 H2387 0.949 . S
C2392 C2398 1.368 1_565 S
C2393 C2377 1.349 . S
C2393 H2385 0.950 . S
C2393 C2391 1.327 . S
C2394 C2382 1.349 1_565 S
C2394 H2388 0.950 . S
C2394 C2395 1.327 . S
C2395 H2389 0.950 . S
C2395 C2394 1.327 . S
C2395 C2399 1.429 1_565 S
C2396 C2379 1.574 . S
C2396 H2390 0.949 . S
C2396 C2400 1.368 . S
C2397 C2378 1.429 1_545 S
C2397 C2391 1.429 . S
C2397 C2398 1.523 . S
C2398 C2379 1.368 . S
C2398 C2392 1.368 1_545 S
C2398 C2397 1.523 . S
C2399 C2383 1.429 . S
C2399 C2395 1.429 1_545 S
C2399 C2400 1.523 . S
C2400 C2384 1.368 1_545 S
C2400 C2396 1.368 . S
C2400 C2399 1.523 . S
H2401 C2376 0.974 . S
H2402 C2378 0.950 . S
H2403 C2379 0.949 . S
H2404 C2381 0.950 . S
H2405 C2383 0.950 . S
C2406 C2407 1.349 . S
C2406 C2408 1.327 . S
C2406 H2431 0.950 . S
C2407 C2406 1.349 . S
C2407 C2423 1.349 . S
C2408 C2406 1.327 . S
C2408 C2427 1.429 . S
C2408 H2432 0.950 . S
C2409 C2426 1.574 . S
C2409 C2428 1.368 . S
C2409 H2433 0.949 . S
H2410 C2414 0.949 . S
C2411 C2412 1.349 . S
C2411 C2413 1.327 . S
C2411 H2434 0.950 . S
C2412 C2411 1.349 . S
C2412 C2424 1.349 . S
C2413 C2411 1.327 . S
C2413 C2429 1.429 . S
C2413 H2435 0.950 . S
C2414 H2410 0.949 . S
C2414 C2422 1.574 . S
C2414 C2430 1.368 . S
H2415 C2423 0.950 . S
H2416 C2421 0.950 . S
H2417 C2422 0.949 . S
H2418 C2424 0.950 . S
H2419 C2425 0.950 . S
H2420 C2426 0.949 . S
C2421 H2416 0.950 . S
C2421 C2423 1.327 . S
C2421 C2427 1.429 . S
C2422 C2414 1.574 . S
C2422 H2417 0.949 . S
C2422 C2428 1.368 . S
C2423 C2407 1.349 . S
C2423 H2415 0.950 . S
C2423 C2421 1.327 . S
C2424 C2412 1.349 . S
C2424 H2418 0.950 . S
C2424 C2425 1.327 . S
C2425 H2419 0.950 . S
C2425 C2424 1.327 . S
C2425 C2429 1.429 . S
C2426 C2409 1.574 . S
C2426 H2420 0.949 . S
C2426 C2430 1.368 . S
C2427 C2408 1.429 . S
C2427 C2421 1.429 . S
C2427 C2428 1.523 . S
C2428 C2409 1.368 . S
C2428 C2422 1.368 . S
C2428 C2427 1.523 . S
C2429 C2413 1.429 . S
C2429 C2425 1.429 . S
C2429 C2430 1.523 . S
C2430 C2414 1.368 . S
C2430 C2426 1.368 . S
C2430 C2429 1.523 . S
H2431 C2406 0.950 . S
H2432 C2408 0.950 . S
H2433 C2409 0.949 . S
H2434 C2411 0.950 . S
H2435 C2413 0.950 . S
C2436 C2437 1.349 . S
C2436 C2438 1.327 . S
C2436 H2461 0.950 . S
C2437 C2436 1.349 . S
C2437 C2453 1.349 . S
C2438 C2436 1.327 . S
C2438 C2457 1.429 . S
C2438 H2462 0.950 . S
C2439 C2456 1.574 . S
C2439 C2458 1.368 . S
C2439 H2463 0.949 . S
H2440 C2444 0.949 . S
C2441 C2442 1.349 . S
C2441 C2443 1.327 . S
C2441 H2464 0.950 . S
C2442 C2441 1.349 . S
C2442 C2454 1.349 . S
C2443 C2441 1.327 . S
C2443 C2459 1.429 . S
C2443 H2465 0.950 . S
C2444 H2440 0.949 . S
C2444 C2452 1.574 . S
C2444 C2460 1.368 . S
H2445 C2453 0.950 . S
H2446 C2451 0.950 . S
H2447 C2452 0.949 . S
H2448 C2454 0.950 . S
H2449 C2455 0.950 . S
H2450 C2456 0.949 . S
C2451 H2446 0.950 . S
C2451 C2453 1.327 . S
C2451 C2457 1.429 . S
C2452 C2444 1.574 . S
C2452 H2447 0.949 . S
C2452 C2458 1.368 . S
C2453 C2437 1.349 . S
C2453 H2445 0.950 . S
C2453 C2451 1.327 . S
C2454 C2442 1.349 . S
C2454 H2448 0.950 . S
C2454 C2455 1.327 . S
C2455 H2449 0.950 . S
C2455 C2454 1.327 . S
C2455 C2459 1.429 . S
C2456 C2439 1.574 . S
C2456 H2450 0.949 . S
C2456 C2460 1.368 . S
C2457 C2438 1.429 . S
C2457 C2451 1.429 . S
C2457 C2458 1.523 . S
C2458 C2439 1.368 . S
C2458 C2452 1.368 . S
C2458 C2457 1.523 . S
C2459 C2443 1.429 . S
C2459 C2455 1.429 . S
C2459 C2460 1.523 . S
C2460 C2444 1.368 . S
C2460 C2456 1.368 . S
C2460 C2459 1.523 . S
H2461 C2436 0.950 . S
H2462 C2438 0.950 . S
H2463 C2439 0.949 . S
H2464 C2441 0.950 . S
H2465 C2443 0.950 . S
C2466 C2467 1.349 . S
C2466 C2468 1.327 . S
C2466 H2491 0.950 . S
C2467 C2466 1.349 . S
C2467 C2483 1.349 . S
C2468 C2466 1.327 . S
C2468 C2487 1.429 . S
C2468 H2492 0.950 . S
C2469 C2486 1.574 . S
C2469 C2488 1.368 . S
C2469 H2493 0.949 . S
H2470 C2474 0.949 . S
C2471 C2472 1.349 . S
C2471 C2473 1.327 . S
C2471 H2494 0.950 . S
C2472 C2471 1.349 . S
C2472 C2484 1.349 . S
C2473 C2471 1.327 . S
C2473 C2489 1.429 . S
C2473 H2495 0.950 . S
C2474 H2470 0.949 . S
C2474 C2482 1.574 . S
C2474 C2490 1.368 . S
H2475 C2483 0.950 . S
H2476 C2481 0.950 . S
H2477 C2482 0.949 . S
H2478 C2484 0.950 . S
H2479 C2485 0.950 . S
H2480 C2486 0.949 . S
C2481 H2476 0.950 . S
C2481 C2483 1.327 . S
C2481 C2487 1.429 . S
C2482 C2474 1.574 . S
C2482 H2477 0.949 . S
C2482 C2488 1.368 . S
C2483 C2467 1.349 . S
C2483 H2475 0.950 . S
C2483 C2481 1.327 . S
C2484 C2472 1.349 . S
C2484 H2478 0.950 . S
C2484 C2485 1.327 . S
C2485 H2479 0.950 . S
C2485 C2484 1.327 . S
C2485 C2489 1.429 . S
C2486 C2469 1.574 . S
C2486 H2480 0.949 . S
C2486 C2490 1.368 . S
C2487 C2468 1.429 . S
C2487 C2481 1.429 . S
C2487 C2488 1.523 . S
C2488 C2469 1.368 . S
C2488 C2482 1.368 . S
C2488 C2487 1.523 . S
C2489 C2473 1.429 . S
C2489 C2485 1.429 . S
C2489 C2490 1.523 . S
C2490 C2474 1.368 . S
C2490 C2486 1.368 . S
C2490 C2489 1.523 . S
H2491 C2466 0.950 . S
H2492 C2468 0.950 . S
H2493 C2469 0.949 . S
H2494 C2471 0.950 . S
H2495 C2473 0.950 . S
C2496 C2497 1.349 . S
C2496 C2498 1.327 . S
C2496 H2521 0.950 . S
C2497 C2496 1.349 . S
C2497 C2513 1.349 . S
C2498 C2496 1.327 . S
C2498 C2517 1.429 . S
C2498 H2522 0.950 . S
C2499 C2516 1.574 . S
C2499 C2518 1.368 . S
C2499 H2523 0.949 . S
H2500 C2504 0.949 . S
C2501 C2502 1.349 . S
C2501 C2503 1.327 . S
C2501 H2524 0.950 . S
C2502 C2501 1.349 . S
C2502 C2514 1.349 . S
C2503 C2501 1.327 . S
C2503 C2519 1.429 . S
C2503 H2525 0.950 . S
C2504 H2500 0.949 . S
C2504 C2512 1.574 . S
C2504 C2520 1.368 . S
H2505 C2513 0.950 . S
H2506 C2511 0.950 . S
H2507 C2512 0.949 . S
H2508 C2514 0.950 . S
H2509 C2515 0.950 . S
H2510 C2516 0.949 . S
C2511 H2506 0.950 . S
C2511 C2513 1.327 . S
C2511 C2517 1.429 . S
C2512 C2504 1.574 . S
C2512 H2507 0.949 . S
C2512 C2518 1.368 . S
C2513 C2497 1.349 . S
C2513 H2505 0.950 . S
C2513 C2511 1.327 . S
C2514 C2502 1.349 . S
C2514 H2508 0.950 . S
C2514 C2515 1.327 . S
C2515 H2509 0.950 . S
C2515 C2514 1.327 . S
C2515 C2519 1.429 . S
C2516 C2499 1.574 . S
C2516 H2510 0.949 . S
C2516 C2520 1.368 . S
C2517 C2498 1.429 . S
C2517 C2511 1.429 . S
C2517 C2518 1.523 . S
C2518 C2499 1.368 . S
C2518 C2512 1.368 . S
C2518 C2517 1.523 . S
C2519 C2503 1.429 . S
C2519 C2515 1.429 . S
C2519 C2520 1.523 . S
C2520 C2504 1.368 . S
C2520 C2516 1.368 . S
C2520 C2519 1.523 . S
H2521 C2496 0.950 . S
H2522 C2498 0.950 . S
H2523 C2499 0.949 . S
H2524 C2501 0.950 . S
H2525 C2503 0.950 . S
C2526 C2527 1.349 . S
C2526 C2528 1.327 . S
C2526 H2551 0.950 . S
C2527 C2526 1.349 . S
C2527 C2543 1.349 . S
C2528 C2526 1.327 . S
C2528 C2547 1.429 . S
C2528 H2552 0.950 . S
C2529 C2546 1.574 . S
C2529 C2548 1.368 . S
C2529 H2553 0.949 . S
H2530 C2534 0.949 . S
C2531 C2532 1.349 . S
C2531 C2533 1.327 . S
C2531 H2554 0.950 . S
C2532 C2531 1.349 . S
C2532 C2544 1.349 . S
C2533 C2531 1.327 . S
C2533 C2549 1.429 . S
C2533 H2555 0.950 . S
C2534 H2530 0.949 . S
C2534 C2542 1.574 . S
C2534 C2550 1.368 . S
H2535 C2543 0.950 . S
H2536 C2541 0.950 . S
H2537 C2542 0.949 . S
H2538 C2544 0.950 . S
H2539 C2545 0.950 . S
H2540 C2546 0.949 . S
C2541 H2536 0.950 . S
C2541 C2543 1.327 . S
C2541 C2547 1.429 . S
C2542 C2534 1.574 . S
C2542 H2537 0.949 . S
C2542 C2548 1.368 . S
C2543 C2527 1.349 . S
C2543 H2535 0.950 . S
C2543 C2541 1.327 . S
C2544 C2532 1.349 . S
C2544 H2538 0.950 . S
C2544 C2545 1.327 . S
C2545 H2539 0.950 . S
C2545 C2544 1.327 . S
C2545 C2549 1.429 . S
C2546 C2529 1.574 . S
C2546 H2540 0.949 . S
C2546 C2550 1.368 . S
C2547 C2528 1.429 . S
C2547 C2541 1.429 . S
C2547 C2548 1.523 . S
C2548 C2529 1.368 . S
C2548 C2542 1.368 . S
C2548 C2547 1.523 . S
C2549 C2533 1.429 . S
C2549 C2545 1.429 . S
C2549 C2550 1.523 . S
C2550 C2534 1.368 . S
C2550 C2546 1.368 . S
C2550 C2549 1.523 . S
H2551 C2526 0.950 . S
H2552 C2528 0.950 . S
H2553 C2529 0.949 . S
H2554 C2531 0.950 . S
H2555 C2533 0.950 . S
C2556 C2557 1.349 . S
C2556 C2558 1.327 . S
C2556 H2581 0.950 . S
C2557 C2556 1.349 . S
C2557 C2573 1.349 . S
C2558 C2556 1.327 . S
C2558 C2577 1.429 . S
C2558 H2582 0.950 . S
C2559 C2576 1.574 . S
C2559 C2578 1.368 . S
C2559 H2583 0.949 . S
H2560 C2564 0.949 . S
C2561 C2562 1.349 . S
C2561 C2563 1.327 . S
C2561 H2584 0.950 . S
C2562 C2561 1.349 . S
C2562 C2574 1.349 . S
C2563 C2561 1.327 . S
C2563 C2579 1.429 . S
C2563 H2585 0.950 . S
C2564 H2560 0.949 . S
C2564 C2572 1.574 . S
C2564 C2580 1.368 . S
H2565 C2573 0.950 . S
H2566 C2571 0.950 . S
H2567 C2572 0.949 . S
H2568 C2574 0.950 . S
H2569 C2575 0.950 . S
H2570 C2576 0.949 . S
C2571 H2566 0.950 . S
C2571 C2573 1.327 . S
C2571 C2577 1.429 . S
C2572 C2564 1.574 . S
C2572 H2567 0.949 . S
C2572 C2578 1.368 . S
C2573 C2557 1.349 . S
C2573 H2565 0.950 . S
C2573 C2571 1.327 . S
C2574 C2562 1.349 . S
C2574 H2568 0.950 . S
C2574 C2575 1.327 . S
C2575 H2569 0.950 . S
C2575 C2574 1.327 . S
C2575 C2579 1.429 . S
C2576 C2559 1.574 . S
C2576 H2570 0.949 . S
C2576 C2580 1.368 . S
C2577 C2558 1.429 . S
C2577 C2571 1.429 . S
C2577 C2578 1.523 . S
C2578 C2559 1.368 . S
C2578 C2572 1.368 . S
C2578 C2577 1.523 . S
C2579 C2563 1.429 . S
C2579 C2575 1.429 . S
C2579 C2580 1.523 . S
C2580 C2564 1.368 . S
C2580 C2576 1.368 . S
C2580 C2579 1.523 . S
H2581 C2556 0.950 . S
H2582 C2558 0.950 . S
H2583 C2559 0.949 . S
H2584 C2561 0.950 . S
H2585 C2563 0.950 . S
C2586 C2587 1.349 . S
C2586 C2588 1.327 . S
C2586 H2611 0.950 . S
C2587 C2586 1.349 . S
C2587 C2603 1.349 . S
C2588 C2586 1.327 . S
C2588 C2607 1.429 . S
C2588 H2612 0.950 . S
C2589 C2606 1.574 . S
C2589 C2608 1.368 . S
C2589 H2613 0.949 . S
H2590 C2594 0.949 . S
C2591 C2592 1.349 . S
C2591 C2593 1.327 . S
C2591 H2614 0.950 . S
C2592 C2591 1.349 . S
C2592 C2604 1.349 . S
C2593 C2591 1.327 . S
C2593 C2609 1.429 . S
C2593 H2615 0.950 . S
C2594 H2590 0.949 . S
C2594 C2602 1.574 . S
C2594 C2610 1.368 . S
H2595 C2603 0.950 . S
H2596 C2601 0.950 . S
H2597 C2602 0.949 . S
H2598 C2604 0.950 . S
H2599 C2605 0.950 . S
H2600 C2606 0.949 . S
C2601 H2596 0.950 . S
C2601 C2603 1.327 . S
C2601 C2607 1.429 . S
C2602 C2594 1.574 . S
C2602 H2597 0.949 . S
C2602 C2608 1.368 . S
C2603 C2587 1.349 . S
C2603 H2595 0.950 . S
C2603 C2601 1.327 . S
C2604 C2592 1.349 . S
C2604 H2598 0.950 . S
C2604 C2605 1.327 . S
C2605 H2599 0.950 . S
C2605 C2604 1.327 . S
C2605 C2609 1.429 . S
C2606 C2589 1.574 . S
C2606 H2600 0.949 . S
C2606 C2610 1.368 . S
C2607 C2588 1.429 . S
C2607 C2601 1.429 . S
C2607 C2608 1.523 . S
C2608 C2589 1.368 . S
C2608 C2602 1.368 . S
C2608 C2607 1.523 . S
C2609 C2593 1.429 . S
C2609 C2605 1.429 . S
C2609 C2610 1.523 . S
C2610 C2594 1.368 . S
C2610 C2606 1.368 . S
C2610 C2609 1.523 . S
H2611 C2586 0.950 . S
H2612 C2588 0.950 . S
H2613 C2589 0.949 . S
H2614 C2591 0.950 . S
H2615 C2593 0.950 . S
C2616 C2617 1.349 . S
C2616 C2618 1.327 . S
C2616 H2641 0.950 . S
C2617 C2616 1.349 . S
C2617 C2633 1.349 . S
C2618 C2616 1.327 . S
C2618 C2637 1.429 . S
C2618 H2642 0.950 . S
C2619 C2636 1.574 . S
C2619 C2638 1.368 . S
C2619 H2643 0.949 . S
H2620 C2624 0.949 . S
C2621 C2622 1.349 . S
C2621 C2623 1.327 . S
C2621 H2644 0.950 . S
C2622 C2621 1.349 . S
C2622 C2634 1.349 . S
C2623 C2621 1.327 . S
C2623 C2639 1.429 . S
C2623 H2645 0.950 . S
C2624 H2620 0.949 . S
C2624 C2632 1.574 . S
C2624 C2640 1.368 . S
H2625 C2633 0.950 . S
H2626 C2631 0.950 . S
H2627 C2632 0.949 . S
H2628 C2634 0.950 . S
H2629 C2635 0.950 . S
H2630 C2636 0.949 . S
C2631 H2626 0.950 . S
C2631 C2633 1.327 . S
C2631 C2637 1.429 . S
C2632 C2624 1.574 . S
C2632 H2627 0.949 . S
C2632 C2638 1.368 . S
C2633 C2617 1.349 . S
C2633 H2625 0.950 . S
C2633 C2631 1.327 . S
C2634 C2622 1.349 . S
C2634 H2628 0.950 . S
C2634 C2635 1.327 . S
C2635 H2629 0.950 . S
C2635 C2634 1.327 . S
C2635 C2639 1.429 . S
C2636 C2619 1.574 . S
C2636 H2630 0.949 . S
C2636 C2640 1.368 . S
C2637 C2618 1.429 . S
C2637 C2631 1.429 . S
C2637 C2638 1.523 . S
C2638 C2619 1.368 . S
C2638 C2632 1.368 . S
C2638 C2637 1.523 . S
C2639 C2623 1.429 . S
C2639 C2635 1.429 . S
C2639 C2640 1.523 . S
C2640 C2624 1.368 . S
C2640 C2636 1.368 . S
C2640 C2639 1.523 . S
H2641 C2616 0.950 . S
H2642 C2618 0.950 . S
H2643 C2619 0.949 . S
H2644 C2621 0.950 . S
H2645 C2623 0.950 . S
C2646 C2647 1.349 . S
C2646 C2648 1.327 . S
C2646 H2671 0.950 . S
C2647 C2646 1.349 . S
C2647 C2663 1.349 . S
C2648 C2646 1.327 . S
C2648 C2667 1.429 . S
C2648 H2672 0.926 1_655 S
C2649 C2666 1.574 . S
C2649 C2668 1.368 . S
C2649 H2673 0.949 . S
H2650 C2654 0.988 . S
C2651 C2652 1.354 . S
C2651 C2653 1.327 . S
C2651 H2674 0.950 . S
C2652 C2651 1.354 . S
C2652 C2664 1.348 1_655 S
C2653 C2651 1.327 . S
C2653 C2669 1.429 . S
C2653 H2675 0.950 . S
C2654 H2650 0.988 . S
C2654 C2662 1.526 1_455 S
C2654 C2670 1.357 1_455 S
H2655 C2663 0.950 . S
H2656 C2661 0.950 . S
H2657 C2662 0.946 1_455 S
H2658 C2664 0.950 . S
H2659 C2665 0.950 . S
H2660 C2666 0.949 . S
C2661 H2656 0.950 . S
C2661 C2663 1.327 . S
C2661 C2667 1.429 . S
C2662 C2654 1.526 1_655 S
C2662 H2657 0.946 1_655 S
C2662 C2668 1.393 . S
C2663 C2647 1.349 . S
C2663 H2655 0.950 . S
C2663 C2661 1.327 . S
C2664 C2652 1.348 1_455 S
C2664 H2658 0.950 . S
C2664 C2665 1.327 . S
C2665 H2659 0.950 . S
C2665 C2664 1.327 . S
C2665 C2669 1.429 1_455 S
C2666 C2649 1.574 . S
C2666 H2660 0.949 . S
C2666 C2670 1.368 . S
C2667 C2648 1.429 . S
C2667 C2661 1.429 . S
C2667 C2668 1.523 . S
C2668 C2649 1.368 . S
C2668 C2662 1.393 . S
C2668 C2667 1.523 . S
C2669 C2653 1.429 . S
C2669 C2665 1.429 1_655 S
C2669 C2670 1.523 . S
C2670 C2654 1.357 1_655 S
C2670 C2666 1.368 . S
C2670 C2669 1.523 . S
H2671 C2646 0.950 . S
H2672 C2648 0.926 1_455 S
H2673 C2649 0.949 . S
H2674 C2651 0.950 . S
H2675 C2653 0.950 . S
C2676 C2677 1.349 . S
C2676 C2678 1.327 . S
C2676 H2701 0.950 . S
C2677 C2676 1.349 . S
C2677 C2693 1.349 . S
C2678 C2676 1.327 . S
C2678 C2697 1.429 . S
C2678 H2702 0.950 . S
C2679 C2696 1.574 . S
C2679 C2698 1.368 . S
C2679 H2703 0.949 . S
H2680 C2684 0.949 . S
C2681 C2682 1.349 . S
C2681 C2683 1.327 . S
C2681 H2704 0.950 . S
C2682 C2681 1.349 . S
C2682 C2694 1.349 . S
C2683 C2681 1.327 . S
C2683 C2699 1.429 . S
C2683 H2705 0.950 . S
C2684 H2680 0.949 . S
C2684 C2692 1.574 . S
C2684 C2700 1.368 . S
H2685 C2693 0.950 . S
H2686 C2691 0.950 . S
H2687 C2692 0.949 . S
H2688 C2694 0.950 . S
H2689 C2695 0.950 . S
H2690 C2696 0.949 . S
C2691 H2686 0.950 . S
C2691 C2693 1.327 . S
C2691 C2697 1.429 . S
C2692 C2684 1.574 . S
C2692 H2687 0.949 . S
C2692 C2698 1.368 . S
C2693 C2677 1.349 . S
C2693 H2685 0.950 . S
C2693 C2691 1.327 . S
C2694 C2682 1.349 . S
C2694 H2688 0.950 . S
C2694 C2695 1.327 . S
C2695 H2689 0.950 . S
C2695 C2694 1.327 . S
C2695 C2699 1.429 . S
C2696 C2679 1.574 . S
C2696 H2690 0.949 . S
C2696 C2700 1.368 . S
C2697 C2678 1.429 . S
C2697 C2691 1.429 . S
C2697 C2698 1.523 . S
C2698 C2679 1.368 . S
C2698 C2692 1.368 . S
C2698 C2697 1.523 . S
C2699 C2683 1.429 . S
C2699 C2695 1.429 . S
C2699 C2700 1.523 . S
C2700 C2684 1.368 . S
C2700 C2696 1.368 . S
C2700 C2699 1.523 . S
H2701 C2676 0.950 . S
H2702 C2678 0.950 . S
H2703 C2679 0.949 . S
H2704 C2681 0.950 . S
H2705 C2683 0.950 . S
C2706 C2707 1.355 . S
C2706 C2708 1.331 1_545 S
C2706 H2731 0.940 1_545 S
C2707 C2706 1.355 . S
C2707 C2723 1.349 . S
C2708 C2706 1.331 1_565 S
C2708 C2727 1.429 1_565 S
C2708 H2732 0.950 . S
C2709 C2726 1.574 . S
C2709 C2728 1.368 . S
C2709 H2733 0.949 . S
H2710 C2714 0.949 . S
C2711 C2712 1.351 . S
C2711 C2713 1.327 . S
C2711 H2734 0.950 . S
C2712 C2711 1.351 . S
C2712 C2724 1.345 1_545 S
C2713 C2711 1.327 . S
C2713 C2729 1.429 . S
C2713 H2735 0.950 . S
C2714 H2710 0.949 . S
C2714 C2722 1.574 . S
C2714 C2730 1.368 1_565 S
H2715 C2723 0.950 . S
H2716 C2721 0.950 . S
H2717 C2722 0.949 . S
H2718 C2724 0.950 . S
H2719 C2725 0.950 . S
H2720 C2726 0.949 . S
C2721 H2716 0.950 . S
C2721 C2723 1.327 . S
C2721 C2727 1.429 . S
C2722 C2714 1.574 . S
C2722 H2717 0.949 . S
C2722 C2728 1.368 1_565 S
C2723 C2707 1.349 . S
C2723 H2715 0.950 . S
C2723 C2721 1.327 . S
C2724 C2712 1.345 1_565 S
C2724 H2718 0.950 . S
C2724 C2725 1.327 . S
C2725 H2719 0.950 . S
C2725 C2724 1.327 . S
C2725 C2729 1.429 1_565 S
C2726 C2709 1.574 . S
C2726 H2720 0.949 . S
C2726 C2730 1.368 . S
C2727 C2708 1.429 1_545 S
C2727 C2721 1.429 . S
C2727 C2728 1.523 . S
C2728 C2709 1.368 . S
C2728 C2722 1.368 1_545 S
C2728 C2727 1.523 . S
C2729 C2713 1.429 . S
C2729 C2725 1.429 1_545 S
C2729 C2730 1.523 . S
C2730 C2714 1.368 1_545 S
C2730 C2726 1.368 . S
C2730 C2729 1.523 . S
H2731 C2706 0.940 1_565 S
H2732 C2708 0.950 . S
H2733 C2709 0.949 . S
H2734 C2711 0.950 . S
H2735 C2713 0.950 . S
C577 C9 1.517 1_655 S
C582 C421 1.512 . S
C607 C19 1.565 . S
C612 C446 1.542 . S
C642 C457 1.546 . S
C637 C33 1.574 . S
C667 C37 1.569 . S
C672 C482 1.528 . S
C697 C5 1.527 . S
C702 C500 1.513 . S
C727 C23 1.589 . S
C732 C511 1.553 . S
C757 C47 1.541 . S
C762 C493 1.520 . S
C792 C518 1.556 . S
C787 C65 1.579 . S
C822 C475 1.517 . S
C817 C75 1.518 . S
C847 C79 1.511 . S
C852 C464 1.457 . S
C882 C428 1.548 . S
C877 C51 1.570 1_655 S
C907 C61 1.557 . S
C912 C439 1.536 . S
C937 C93 1.657 . S
C942 C529 1.616 . S
C967 C103 1.608 . S
C972 C554 1.585 . S
C1002 C565 1.603 . S
C997 C117 1.639 . S
C1027 C121 1.610 . S
C1032 C266 1.583 . S
C1057 C89 1.612 . S
C1062 C284 1.587 . S
C1087 C107 1.619 . S
C1092 C295 1.582 . S
C1117 C131 1.572 . S
C1122 C277 1.550 . S
C1147 C149 1.600 . S
C1152 C302 1.577 . S
C1182 C259 1.556 . S
C1177 C159 1.577 . S
C1212 C572 1.568 . S
C1207 C163 1.592 . S
C1242 C536 1.591 . S
C1237 C135 1.618 . S
C1272 C547 1.578 . S
C1267 C145 1.598 . S
C1297 C177 1.609 . S
C1302 C313 1.570 . S
C1327 C187 1.586 . S
C1332 C338 1.562 . S
C1357 C201 1.642 . S
C1362 C349 1.606 . S
C1387 C205 1.660 . S
C1392 C374 1.632 . S
C1422 C392 1.585 . S
C1417 C173 1.611 . S
C1452 C403 1.603 . S
C1447 C191 1.643 . S
C1482 C385 1.604 . S
C1477 C215 1.626 . S
C1512 C410 1.603 . S
C1507 C233 1.628 . S
C1537 C243 1.570 . S
C1542 C367 1.549 . S
C1572 C356 1.513 . S
C1567 C247 1.535 . S
C1597 C219 1.622 . S
C1602 C320 1.596 . S
C1632 C331 1.567 . S
C1627 C229 1.587 . S
C1662 C268 1.427 . S
C1657 C11 1.491 . S
C1687 C14 1.446 . S
C1692 C286 1.385 . S
C1722 C296 1.472 . S
C1717 C28 1.535 . S
C1752 C314 1.465 . S
C1747 C39 1.532 . S
C1782 C340 1.432 . S
C1777 C0 1.494 . S
C1812 C350 1.350 . S
C1807 C25 1.413 . S
C1837 C42 1.574 . S
C1842 C358 1.489 . S
C1867 C67 1.489 . S
C1872 C322 1.404 . S
C1897 C70 1.474 . S
C1902 C332 1.403 . S
C1927 C81 1.506 . S
C1932 C278 1.440 . S
C1962 C304 1.456 . S
C1957 C53 1.545 . S
C1987 C56 1.503 . S
C1992 C260 1.432 . S
C2022 C376 1.413 . S
C2017 C95 1.478 . S
C2047 C98 1.530 . S
C2052 C394 1.468 . S
C2077 C112 1.593 . S
C2082 C404 1.528 . S
C2112 C422 1.393 . S
C2107 C123 1.444 . S
C2137 C84 1.493 . S
C2142 C448 1.431 . S
C2167 C109 1.397 . S
C2172 C458 1.347 . S
C2197 C126 1.485 . S
C2202 C466 1.421 . S
C2227 C151 1.441 . S
C2232 C430 1.374 . S
C2262 C440 1.427 . S
C2257 C154 1.495 . S
C2287 C165 1.484 . S
C2292 C386 1.410 . S
C2317 C137 1.587 . S
C2322 C412 1.496 . S
C2352 C368 1.515 . S
C2347 C140 1.587 . S
C2382 C484 1.372 . S
C2377 C179 1.426 . S
C2407 C182 1.426 . S
C2412 C502 1.374 . S
C2437 C196 1.536 . S
C2442 C512 1.474 . S
C2472 C530 1.448 . S
C2467 C207 1.516 . S
C2502 C556 1.475 . S
C2497 C168 1.540 . S
C2527 C193 1.507 . S
C2532 C566 1.442 . S
C2557 C210 1.569 . S
C2562 C574 1.481 . S
C2587 C235 1.575 . S
C2592 C538 1.488 . S
C2622 C548 1.469 . S
C2617 C238 1.540 . S
C2652 C494 1.319 1_655 S
C2647 C249 1.393 . S
C2682 C520 1.450 . S
C2677 C221 1.536 . S
C2707 C224 1.462 . S
C2712 C476 1.434 1_545 S
