# Generated by pormake.
# Topology cml, (3,6)-cn, num edge types: 1
# Building blocks:
#     Node 0, Type 0, BuildingBlock: VETTIZ_charged_linker_0, # of connection points: 3
#     Node 1, Type 0, BuildingBlock: VETTIZ_charged_linker_0, # of connection points: 3
#     Node 2, Type 0, BuildingBlock: VETTIZ_charged_linker_0, # of connection points: 3
#     Node 3, Type 0, BuildingBlock: VETTIZ_charged_linker_0, # of connection points: 3
#     Node 4, Type 0, BuildingBlock: VETTIZ_charged_linker_0, # of connection points: 3
#     Node 5, Type 0, BuildingBlock: VETTIZ_charged_linker_0, # of connection points: 3
#     Node 6, Type 0, BuildingBlock: VETTIZ_charged_linker_0, # of connection points: 3
#     Node 7, Type 0, BuildingBlock: VETTIZ_charged_linker_0, # of connection points: 3
#     Node 8, Type 1, BuildingBlock: IZENUY_clean_sbu_0, # of connection points: 6
#     Node 9, Type 1, BuildingBlock: IZENUY_clean_sbu_0, # of connection points: 6
#     Node 10, Type 1, BuildingBlock: IZENUY_clean_sbu_0, # of connection points: 6
#     Node 11, Type 1, BuildingBlock: IZENUY_clean_sbu_0, # of connection points: 6
#     Edge 12, Type (0, 1), BuildingBlock: XIVTED_clean_linker_0, # of connection points: 2
#     Edge 13, Type (0, 1), BuildingBlock: XIVTED_clean_linker_0, # of connection points: 2
#     Edge 14, Type (0, 1), BuildingBlock: XIVTED_clean_linker_0, # of connection points: 2
#     Edge 15, Type (0, 1), BuildingBlock: XIVTED_clean_linker_0, # of connection points: 2
#     Edge 16, Type (0, 1), BuildingBlock: XIVTED_clean_linker_0, # of connection points: 2
#     Edge 17, Type (0, 1), BuildingBlock: XIVTED_clean_linker_0, # of connection points: 2
#     Edge 18, Type (0, 1), BuildingBlock: XIVTED_clean_linker_0, # of connection points: 2
#     Edge 19, Type (0, 1), BuildingBlock: XIVTED_clean_linker_0, # of connection points: 2
#     Edge 20, Type (0, 1), BuildingBlock: XIVTED_clean_linker_0, # of connection points: 2
#     Edge 21, Type (0, 1), BuildingBlock: XIVTED_clean_linker_0, # of connection points: 2
#     Edge 22, Type (0, 1), BuildingBlock: XIVTED_clean_linker_0, # of connection points: 2
#     Edge 23, Type (0, 1), BuildingBlock: XIVTED_clean_linker_0, # of connection points: 2
#     Edge 24, Type (0, 1), BuildingBlock: XIVTED_clean_linker_0, # of connection points: 2
#     Edge 25, Type (0, 1), BuildingBlock: XIVTED_clean_linker_0, # of connection points: 2
#     Edge 26, Type (0, 1), BuildingBlock: XIVTED_clean_linker_0, # of connection points: 2
#     Edge 27, Type (0, 1), BuildingBlock: XIVTED_clean_linker_0, # of connection points: 2
#     Edge 28, Type (0, 1), BuildingBlock: XIVTED_clean_linker_0, # of connection points: 2
#     Edge 29, Type (0, 1), BuildingBlock: XIVTED_clean_linker_0, # of connection points: 2
#     Edge 30, Type (0, 1), BuildingBlock: XIVTED_clean_linker_0, # of connection points: 2
#     Edge 31, Type (0, 1), BuildingBlock: XIVTED_clean_linker_0, # of connection points: 2
#     Edge 32, Type (0, 1), BuildingBlock: XIVTED_clean_linker_0, # of connection points: 2
#     Edge 33, Type (0, 1), BuildingBlock: XIVTED_clean_linker_0, # of connection points: 2
#     Edge 34, Type (0, 1), BuildingBlock: XIVTED_clean_linker_0, # of connection points: 2
#     Edge 35, Type (0, 1), BuildingBlock: XIVTED_clean_linker_0, # of connection points: 2
# Relax obj value: 0.059
# Max RMSD: 0.074
# Mean RMSD: 0.071
data_MOF--net-cml--node1-IZENUY_clean_sbu_0--node2-VETTIZ_charged_linker_0--edge1-XIVTED_clean_linker_0
_symmetry_space_group_name_H-M    P1
_symmetry_Int_Tables_number       1
_symmetry_cell_setting            triclinic
loop_
_symmetry_equiv_pos_as_xyz
'x, y, z'
_cell_length_a     43.167046
_cell_length_b     50.341931
_cell_length_c     46.793451
_cell_angle_alpha  90.011262
_cell_angle_beta   89.949744
_cell_angle_gamma 89.925023
loop_
_atom_site_label
_atom_site_type_symbol
_atom_site_fract_x
_atom_site_fract_y
_atom_site_fract_z
_atom_type_partial_charge
C0 C 0.32086 0.35803 0.09403 0.0
C1 C 0.34029 0.37541 0.10927 0.0
C2 C 0.34859 0.39989 0.09683 0.0
C3 C 0.31867 0.38939 0.0546 0.0
C4 C 0.31015 0.36552 0.0669 0.0
C5 C 0.28856 0.34992 0.04802 0.0
H6 H 0.20682 0.3415 0.92471 0.0
C7 C 0.30387 0.39117 0.02624 0.0
C8 C 0.286 0.36821 0.02227 0.0
H9 H 0.20958 0.28528 0.99458 0.0
H10 H 0.24615 0.31293 0.01957 0.0
H11 H 0.20523 0.39406 0.96284 0.0
H12 H 0.28045 0.35145 0.92332 0.0
H13 H 0.28879 0.38539 0.91984 0.0
H14 H 0.25453 0.37202 0.9031 0.0
H15 H 0.21123 0.3934 0.92487 0.0
H16 H 0.23019 0.41755 0.94725 0.0
C17 C 0.25722 0.34692 0.06387 0.0
C18 C 0.30453 0.32329 0.04034 0.0
C19 C 0.32758 0.46971 0.96199 0.0
C20 C 0.31863 0.4765 0.93403 0.0
C21 C 0.29746 0.46002 0.91951 0.0
C22 C 0.28576 0.437 0.93249 0.0
C23 C 0.29543 0.43026 0.96026 0.0
C24 C 0.31582 0.44665 0.97457 0.0
C25 C 0.32397 0.43629 0.00373 0.0
C26 C 0.30546 0.41072 0.00444 0.0
C27 C 0.28877 0.40731 0.97898 0.0
C28 C 0.31232 0.4566 0.02625 0.0
C29 C 0.35936 0.43099 0.00447 0.0
C30 C 0.21556 0.33497 0.94523 0.0
C31 C 0.20506 0.31123 0.95774 0.0
C32 C 0.21685 0.30368 0.98466 0.0
C33 C 0.23819 0.31973 0.99913 0.0
C34 C 0.24796 0.34364 0.9866 0.0
C35 C 0.23688 0.35078 0.95998 0.0
C36 C 0.25003 0.37677 0.94986 0.0
C37 C 0.2703 0.3843 0.97505 0.0
C38 C 0.26902 0.36482 0.99652 0.0
C39 C 0.22291 0.39659 0.94573 0.0
C40 C 0.26932 0.37139 0.92249 0.0
H41 H 0.3453 0.42576 0.06137 0.0
H42 H 0.31382 0.33922 0.10319 0.0
H43 H 0.32981 0.32621 0.03688 0.0
H44 H 0.29596 0.31461 0.02018 0.0
H45 H 0.3017 0.30853 0.05779 0.0
H46 H 0.25198 0.36492 0.07682 0.0
H47 H 0.25762 0.32964 0.07861 0.0
H48 H 0.23732 0.34497 0.04922 0.0
H49 H 0.3442 0.48164 0.97361 0.0
H50 H 0.28997 0.46493 0.89806 0.0
H51 H 0.26982 0.42523 0.9203 0.0
H52 H 0.29132 0.46728 0.01859 0.0
H53 H 0.33027 0.47177 0.03096 0.0
H54 H 0.30496 0.44709 0.04644 0.0
H55 H 0.36751 0.4228 0.98368 0.0
H56 H 0.36617 0.41602 0.02049 0.0
H57 H 0.37242 0.4496 0.00857 0.0
H58 H 0.3638 0.41347 0.10801 0.0
C59 C 0.33794 0.40694 0.06965 0.0
C60 C 0.78873 0.66581 0.44976 0.0
C61 C 0.80356 0.68766 0.4626 0.0
C62 C 0.79876 0.69235 0.49204 0.0
C63 C 0.76492 0.65414 0.49506 0.0
C64 C 0.76992 0.64926 0.46637 0.0
C65 C 0.75349 0.62468 0.45625 0.0
H66 H 0.66174 0.5197 0.48666 0.0
C67 C 0.74458 0.63302 0.50627 0.0
C68 C 0.7382 0.61545 0.48371 0.0
H69 H 0.69794 0.5431 0.40414 0.0
H70 H 0.72515 0.57959 0.42614 0.0
H71 H 0.72289 0.53182 0.52435 0.0
H72 H 0.64124 0.57656 0.5032 0.0
H73 H 0.64976 0.58424 0.53882 0.0
H74 H 0.64086 0.55042 0.52923 0.0
H75 H 0.68563 0.5249 0.53966 0.0
H76 H 0.71164 0.54877 0.55553 0.0
C77 C 0.77818 0.60464 0.44554 0.0
C78 C 0.72938 0.63298 0.43339 0.0
C79 C 0.70314 0.63809 0.60802 0.0
C80 C 0.68369 0.62123 0.62394 0.0
C81 C 0.67463 0.59671 0.61204 0.0
C82 C 0.68374 0.58952 0.58442 0.0
C83 C 0.70206 0.60702 0.56832 0.0
C84 C 0.71218 0.63051 0.58038 0.0
C85 C 0.73261 0.64601 0.56029 0.0
C86 C 0.73156 0.62858 0.53374 0.0
C87 C 0.71343 0.60592 0.53859 0.0
C88 C 0.7656 0.64739 0.57331 0.0
C89 C 0.71742 0.67345 0.55506 0.0
C90 C 0.67539 0.53267 0.47317 0.0
C91 C 0.6774 0.52846 0.44349 0.0
C92 C 0.69611 0.54563 0.42705 0.0
C93 C 0.71168 0.56701 0.43985 0.0
C94 C 0.70837 0.57145 0.46938 0.0
C95 C 0.69053 0.55433 0.48548 0.0
C96 C 0.68789 0.56288 0.51614 0.0
C97 C 0.70732 0.58794 0.51592 0.0
C98 C 0.71945 0.59277 0.48857 0.0
C99 C 0.70252 0.54099 0.53512 0.0
C100 C 0.65323 0.56871 0.52249 0.0
H101 H 0.7768 0.68046 0.53048 0.0
H102 H 0.79152 0.66164 0.42721 0.0
H103 H 0.71975 0.65304 0.43806 0.0
H104 H 0.70897 0.61979 0.43288 0.0
H105 H 0.73998 0.63369 0.41177 0.0
H106 H 0.79894 0.60494 0.45962 0.0
H107 H 0.7859 0.60961 0.42354 0.0
H108 H 0.77006 0.58387 0.44593 0.0
H109 H 0.71091 0.65684 0.6168 0.0
H110 H 0.65948 0.58344 0.62373 0.0
H111 H 0.67556 0.57083 0.57645 0.0
H112 H 0.77001 0.63055 0.58817 0.0
H113 H 0.76901 0.66606 0.58556 0.0
H114 H 0.78398 0.64564 0.5569 0.0
H115 H 0.69218 0.67118 0.55095 0.0
H116 H 0.72685 0.68383 0.53623 0.0
H117 H 0.72021 0.68654 0.57399 0.0
H118 H 0.81034 0.70858 0.50279 0.0
C119 C 0.77949 0.67581 0.50825 0.0
C120 C 0.69094 0.46382 0.9534 0.0
C121 C 0.67056 0.48216 0.9663 0.0
C122 C 0.66202 0.47837 0.9951 0.0
C123 C 0.69242 0.43796 0.99717 0.0
C124 C 0.70159 0.44197 0.96922 0.0
C125 C 0.7228 0.42023 0.95876 0.0
H126 H 0.79762 0.30419 0.98485 0.0
C127 C 0.70624 0.41278 0.00717 0.0
C128 C 0.72423 0.4023 0.98488 0.0
H129 H 0.79912 0.3514 0.90757 0.0
H130 H 0.7648 0.38333 0.92925 0.0
H131 H 0.80111 0.35309 0.02967 0.0
H132 H 0.72414 0.30947 0.99455 0.0
H133 H 0.71589 0.31554 0.0307 0.0
H134 H 0.74908 0.29552 0.02131 0.0
H135 H 0.79359 0.31895 0.03836 0.0
H136 H 0.77514 0.34564 0.05758 0.0
C137 C 0.75468 0.43278 0.95184 0.0
C138 C 0.70703 0.40634 0.93307 0.0
C139 C 0.67843 0.37849 0.10563 0.0
C140 C 0.68573 0.35521 0.12078 0.0
C141 C 0.70587 0.33649 0.10816 0.0
C142 C 0.71846 0.34096 0.08086 0.0
C143 C 0.71062 0.3643 0.06592 0.0
C144 C 0.69097 0.38257 0.07848 0.0
C145 C 0.68438 0.40591 0.05948 0.0
C146 C 0.70324 0.3987 0.03328 0.0
C147 C 0.71862 0.37436 0.03709 0.0
C148 C 0.6969 0.43125 0.07437 0.0
C149 C 0.6491 0.40633 0.05312 0.0
C150 C 0.79036 0.32124 0.97244 0.0
C151 C 0.80137 0.32522 0.94443 0.0
C152 C 0.79152 0.34798 0.92932 0.0
C153 C 0.7714 0.36648 0.9419 0.0
C154 C 0.76077 0.36225 0.96991 0.0
C155 C 0.77016 0.33987 0.98466 0.0
C156 C 0.75614 0.33843 0.01408 0.0
C157 C 0.73727 0.36388 0.01473 0.0
C158 C 0.74003 0.37776 0.98877 0.0
C159 C 0.78273 0.33887 0.03626 0.0
C160 C 0.73534 0.3134 0.01554 0.0
H161 H 0.66503 0.4546 0.03221 0.0
H162 H 0.69825 0.46629 0.93142 0.0
H163 H 0.68159 0.4048 0.93649 0.0
H164 H 0.71494 0.38568 0.92995 0.0
H165 H 0.71085 0.41764 0.91299 0.0
H166 H 0.76021 0.449 0.96716 0.0
H167 H 0.75493 0.44142 0.93001 0.0
H168 H 0.77406 0.41858 0.95392 0.0
H169 H 0.66251 0.39303 0.11436 0.0
H170 H 0.71195 0.31845 0.11944 0.0
H171 H 0.73365 0.32602 0.07237 0.0
H172 H 0.71786 0.42671 0.08732 0.0
H173 H 0.6793 0.43995 0.08897 0.0
H174 H 0.7046 0.4466 0.05906 0.0
H175 H 0.63974 0.3858 0.05155 0.0
H176 H 0.64336 0.41557 0.0324 0.0
H177 H 0.63614 0.41672 0.07033 0.0
H178 H 0.64605 0.49189 0.00549 0.0
C179 C 0.67286 0.45648 0.01056 0.0
C180 C 0.2052 0.65576 0.4488 0.0
C181 C 0.19467 0.6799 0.46052 0.0
C182 C 0.20464 0.68716 0.48816 0.0
C183 C 0.2356 0.64711 0.49146 0.0
C184 C 0.22542 0.63971 0.46463 0.0
C185 C 0.23878 0.61347 0.45531 0.0
H186 H 0.33579 0.51068 0.48186 0.0
C187 C 0.25673 0.62623 0.50206 0.0
C188 C 0.25839 0.60627 0.48109 0.0
H189 H 0.28129 0.52454 0.40585 0.0
H190 H 0.25883 0.56373 0.42748 0.0
H191 H 0.35681 0.56895 0.4892 0.0
H192 H 0.28229 0.52513 0.52747 0.0
H193 H 0.29649 0.54615 0.55436 0.0
H194 H 0.32172 0.52134 0.53885 0.0
H195 H 0.36285 0.54425 0.51627 0.0
H196 H 0.35566 0.57851 0.52518 0.0
C197 C 0.25878 0.6183 0.42829 0.0
C198 C 0.21174 0.5937 0.45095 0.0
C199 C 0.31609 0.63947 0.59513 0.0
C200 C 0.33845 0.62377 0.60906 0.0
C201 C 0.34453 0.59796 0.59877 0.0
C202 C 0.33006 0.58845 0.57416 0.0
C203 C 0.30928 0.6049 0.5594 0.0
C204 C 0.30184 0.62963 0.57029 0.0
C205 C 0.27861 0.64389 0.55178 0.0
C206 C 0.27445 0.62403 0.52754 0.0
C207 C 0.29273 0.60138 0.53211 0.0
C208 C 0.29352 0.67011 0.54129 0.0
C209 C 0.24842 0.6477 0.56928 0.0
C210 C 0.31849 0.52177 0.47008 0.0
C211 C 0.31026 0.51443 0.44213 0.0
C212 C 0.28821 0.52989 0.42733 0.0
C213 C 0.2752 0.55264 0.43994 0.0
C214 C 0.28454 0.56019 0.46757 0.0
C215 C 0.30557 0.54462 0.48223 0.0
C216 C 0.31386 0.55606 0.51084 0.0
C217 C 0.29439 0.58117 0.51101 0.0
C218 C 0.27728 0.58354 0.48564 0.0
C219 C 0.3491 0.56217 0.5107 0.0
C220 C 0.30335 0.5362 0.53425 0.0
H221 H 0.23172 0.67762 0.52449 0.0
H222 H 0.19827 0.6496 0.42758 0.0
H223 H 0.19346 0.59675 0.46742 0.0
H224 H 0.21889 0.57276 0.45333 0.0
H225 H 0.20083 0.59641 0.42965 0.0
H226 H 0.2708 0.63781 0.42951 0.0
H227 H 0.24428 0.61836 0.40869 0.0
H228 H 0.27756 0.6036 0.42573 0.0
H229 H 0.31076 0.65929 0.60269 0.0
H230 H 0.36104 0.58521 0.60956 0.0
H231 H 0.33625 0.56886 0.5672 0.0
H232 H 0.31797 0.66667 0.53468 0.0
H233 H 0.29356 0.6853 0.55851 0.0
H234 H 0.28196 0.67856 0.52236 0.0
H235 H 0.24551 0.63164 0.58539 0.0
H236 H 0.22738 0.64651 0.55588 0.0
H237 H 0.24852 0.66693 0.58093 0.0
H238 H 0.19645 0.70532 0.49802 0.0
C239 C 0.22497 0.67093 0.50364 0.0
C240 C 0.80397 0.85892 0.10412 0.0
C241 C 0.82366 0.87549 0.12008 0.0
C242 C 0.83266 0.90017 0.10858 0.0
C243 C 0.80451 0.89072 0.06509 0.0
C244 C 0.79448 0.86704 0.07681 0.0
C245 C 0.77343 0.8521 0.05682 0.0
H246 H 0.71107 0.83936 0.9249 0.0
C247 C 0.79257 0.89243 0.03562 0.0
C248 C 0.77413 0.87002 0.03064 0.0
H249 H 0.69284 0.79204 0.00038 0.0
H250 H 0.72789 0.81906 0.02752 0.0
H251 H 0.70606 0.89606 0.95841 0.0
H252 H 0.78373 0.84686 0.93454 0.0
H253 H 0.79476 0.88008 0.92939 0.0
H254 H 0.76312 0.86655 0.90883 0.0
H255 H 0.71768 0.89105 0.92194 0.0
H256 H 0.73507 0.91647 0.94369 0.0
C257 C 0.7407 0.85076 0.0705 0.0
C258 C 0.78815 0.82464 0.05068 0.0
C259 C 0.83023 0.96663 0.97143 0.0
C260 C 0.82816 0.97134 0.94187 0.0
C261 C 0.80926 0.95454 0.92518 0.0
C262 C 0.79359 0.93301 0.93765 0.0
C263 C 0.79699 0.92805 0.96707 0.0
C264 C 0.81507 0.94482 0.98337 0.0
C265 C 0.81803 0.93571 0.01379 0.0
C266 C 0.79848 0.91074 0.01324 0.0
C267 C 0.78594 0.90645 0.98595 0.0
C268 C 0.80369 0.95729 0.0334 0.0
C269 C 0.85275 0.92966 0.01962 0.0
C270 C 0.71433 0.83487 0.94732 0.0
C271 C 0.69921 0.81318 0.96024 0.0
C272 C 0.70463 0.80809 0.9895 0.0
C273 C 0.72477 0.82403 0.00543 0.0
C274 C 0.73957 0.84555 0.9922 0.0
C275 C 0.734 0.85088 0.96371 0.0
C276 C 0.75075 0.87537 0.95364 0.0
C277 C 0.76679 0.88402 0.98096 0.0
C278 C 0.76057 0.86618 0.00332 0.0
C279 C 0.72631 0.8959 0.94367 0.0
C280 C 0.77423 0.86703 0.93023 0.0
H281 H 0.83131 0.92668 0.07357 0.0
H282 H 0.79626 0.84006 0.11267 0.0
H283 H 0.81327 0.82679 0.04585 0.0
H284 H 0.77795 0.81458 0.03199 0.0
H285 H 0.78586 0.8113 0.06947 0.0
H286 H 0.73713 0.86681 0.08653 0.0
H287 H 0.73694 0.83152 0.08157 0.0
H288 H 0.72202 0.85384 0.05462 0.0
H289 H 0.84401 0.97929 0.98512 0.0
H290 H 0.80736 0.95748 0.90233 0.0
H291 H 0.77997 0.9207 0.92378 0.0
H292 H 0.78316 0.96663 0.0231 0.0
H293 H 0.82065 0.97331 0.038 0.0
H294 H 0.79488 0.94918 0.05378 0.0
H295 H 0.86466 0.92258 0.99993 0.0
H296 H 0.85632 0.91348 0.03519 0.0
H297 H 0.86516 0.94767 0.02712 0.0
H298 H 0.84796 0.91321 0.12038 0.0
C299 C 0.82318 0.90787 0.08126 0.0
C300 C 0.28628 0.16611 0.44517 0.0
C301 C 0.29853 0.18923 0.45766 0.0
C302 C 0.28916 0.19625 0.48557 0.0
C303 C 0.25764 0.15664 0.4887 0.0
C304 C 0.26602 0.15015 0.46103 0.0
C305 C 0.25142 0.12461 0.45122 0.0
H306 H 0.16324 0.01756 0.48211 0.0
C307 C 0.23774 0.13519 0.49986 0.0
C308 C 0.23413 0.1163 0.47802 0.0
H309 H 0.2 0.04061 0.39968 0.0
H310 H 0.22533 0.07828 0.42142 0.0
H311 H 0.22273 0.03309 0.5208 0.0
H312 H 0.13918 0.07369 0.49651 0.0
H313 H 0.14592 0.08195 0.53232 0.0
H314 H 0.13962 0.04771 0.52274 0.0
H315 H 0.18571 0.02527 0.53606 0.0
H316 H 0.21021 0.05077 0.55105 0.0
C317 C 0.27755 0.10476 0.44355 0.0
C318 C 0.2291 0.13101 0.42618 0.0
C319 C 0.19428 0.14026 0.601 0.0
C320 C 0.17639 0.12249 0.61733 0.0
C321 C 0.16909 0.09738 0.60582 0.0
C322 C 0.17862 0.09034 0.57828 0.0
C323 C 0.1956 0.10856 0.56186 0.0
C324 C 0.20381 0.1328 0.57346 0.0
C325 C 0.22318 0.14901 0.55314 0.0
C326 C 0.22399 0.13095 0.52709 0.0
C327 C 0.20756 0.10744 0.53232 0.0
C328 C 0.25572 0.15264 0.56658 0.0
C329 C 0.20582 0.17532 0.54694 0.0
C330 C 0.17659 0.03069 0.46856 0.0
C331 C 0.17921 0.0261 0.43899 0.0
C332 C 0.19763 0.04347 0.42251 0.0
C333 C 0.21203 0.06556 0.43512 0.0
C334 C 0.20774 0.07052 0.46445 0.0
C335 C 0.19035 0.05312 0.48061 0.0
C336 C 0.18616 0.06238 0.51088 0.0
C337 C 0.20373 0.0884 0.51025 0.0
C338 C 0.21668 0.09292 0.48315 0.0
C339 C 0.20174 0.04184 0.53094 0.0
C340 C 0.15097 0.06655 0.51621 0.0
H341 H 0.26288 0.18642 0.52231 0.0
H342 H 0.29304 0.16007 0.42384 0.0
H343 H 0.22026 0.15175 0.42747 0.0
H344 H 0.20801 0.11855 0.4265 0.0
H345 H 0.24085 0.12874 0.4052 0.0
H346 H 0.29611 0.10522 0.46003 0.0
H347 H 0.28825 0.10984 0.42265 0.0
H348 H 0.26956 0.08398 0.44272 0.0
H349 H 0.20065 0.15952 0.60945 0.0
H350 H 0.15514 0.08342 0.61784 0.0
H351 H 0.17188 0.0711 0.57066 0.0
H352 H 0.26205 0.13534 0.58019 0.0
H353 H 0.2566 0.17067 0.58024 0.0
H354 H 0.27437 0.15368 0.55043 0.0
H355 H 0.18057 0.17165 0.54433 0.0
H356 H 0.21324 0.18486 0.52684 0.0
H357 H 0.20879 0.18967 0.56476 0.0
H358 H 0.29768 0.21424 0.49551 0.0
C359 C 0.26887 0.18009 0.50113 0.0
C360 C 0.19984 0.97104 0.95242 0.0
C361 C 0.17947 0.98943 0.96523 0.0
C362 C 0.17026 0.98538 0.9938 0.0
C363 C 0.19918 0.94418 0.99551 0.0
C364 C 0.20948 0.94869 0.96798 0.0
C365 C 0.2305 0.92679 0.95759 0.0
H366 H 0.29855 0.80731 0.98113 0.0
C367 C 0.21144 0.91825 0.005 0.0
C368 C 0.23013 0.90803 0.98308 0.0
H369 H 0.30748 0.85843 0.9072 0.0
H370 H 0.27347 0.89045 0.92897 0.0
H371 H 0.30093 0.85364 0.02963 0.0
H372 H 0.22449 0.81538 0.98691 0.0
H373 H 0.2143 0.81954 0.02295 0.0
H374 H 0.24689 0.79873 0.0138 0.0
H375 H 0.29144 0.81927 0.03501 0.0
H376 H 0.27259 0.84514 0.05518 0.0
C377 C 0.26308 0.93876 0.95238 0.0
C378 C 0.21553 0.91405 0.93082 0.0
C379 C 0.17227 0.87939 0.09785 0.0
C380 C 0.1756 0.85453 0.11112 0.0
C381 C 0.19692 0.83614 0.09963 0.0
C382 C 0.21344 0.84207 0.07446 0.0
C383 C 0.2085 0.86659 0.06066 0.0
C384 C 0.1885 0.88486 0.07275 0.0
C385 C 0.18502 0.90953 0.05508 0.0
C386 C 0.20587 0.90304 0.02999 0.0
C387 C 0.21969 0.87794 0.03328 0.0
C388 C 0.19745 0.93336 0.07267 0.0
C389 C 0.1505 0.91188 0.04611 0.0
C390 C 0.29301 0.82528 0.96948 0.0
C391 C 0.30606 0.83029 0.94239 0.0
C392 C 0.29835 0.85417 0.92827 0.0
C393 C 0.27839 0.87275 0.94088 0.0
C394 C 0.26567 0.86746 0.96792 0.0
C395 C 0.27294 0.84402 0.98175 0.0
C396 C 0.25674 0.84162 0.01015 0.0
C397 C 0.23929 0.8678 0.0114 0.0
C398 C 0.24449 0.88279 0.9865 0.0
C399 C 0.28156 0.83963 0.03389 0.0
C400 C 0.23453 0.8175 0.00868 0.0
H401 H 0.17161 0.96083 0.0304 0.0
H402 H 0.20774 0.97378 0.93065 0.0
H403 H 0.19001 0.91233 0.93358 0.0
H404 H 0.22364 0.89361 0.92674 0.0
H405 H 0.21986 0.92628 0.91147 0.0
H406 H 0.26788 0.95525 0.96758 0.0
H407 H 0.26514 0.94689 0.9304 0.0
H408 H 0.28195 0.92432 0.95609 0.0
H409 H 0.1566 0.89422 0.10644 0.0
H410 H 0.19999 0.81687 0.10951 0.0
H411 H 0.22892 0.82714 0.06639 0.0
H412 H 0.21636 0.92707 0.08735 0.0
H413 H 0.17886 0.94239 0.08593 0.0
H414 H 0.20804 0.94889 0.05912 0.0
H415 H 0.14042 0.89193 0.04183 0.0
H416 H 0.14705 0.92298 0.02605 0.0
H417 H 0.13646 0.92133 0.06322 0.0
H418 H 0.15437 0.99902 0.00414 0.0
C419 C 0.18006 0.96298 0.00898 0.0
C420 C 0.71163 0.16086 0.44868 0.0
C421 C 0.70005 0.18447 0.46081 0.0
C422 C 0.70898 0.19124 0.48889 0.0
C423 C 0.74055 0.15152 0.49204 0.0
C424 C 0.73166 0.14474 0.46464 0.0
C425 C 0.74586 0.11892 0.45501 0.0
H426 H 0.84157 0.01541 0.48281 0.0
C427 C 0.76148 0.13055 0.50279 0.0
C428 C 0.76451 0.11126 0.48124 0.0
H429 H 0.79047 0.03093 0.40514 0.0
H430 H 0.76782 0.07011 0.42654 0.0
H431 H 0.86262 0.07397 0.49295 0.0
H432 H 0.78599 0.02914 0.52607 0.0
H433 H 0.79885 0.04925 0.55428 0.0
H434 H 0.82474 0.02482 0.53907 0.0
H435 H 0.86716 0.04837 0.5193 0.0
H436 H 0.85932 0.08231 0.52922 0.0
C437 C 0.7669 0.1247 0.4289 0.0
C438 C 0.71936 0.09896 0.44906 0.0
C439 C 0.81082 0.13924 0.60126 0.0
C440 C 0.83086 0.12258 0.61681 0.0
C441 C 0.84007 0.09814 0.60475 0.0
C442 C 0.82981 0.09046 0.57768 0.0
C443 C 0.8101 0.10736 0.56225 0.0
C444 C 0.80061 0.13115 0.57415 0.0
C445 C 0.77893 0.1461 0.55472 0.0
C446 C 0.77757 0.12756 0.52908 0.0
C447 C 0.79605 0.10503 0.53363 0.0
C448 C 0.79423 0.173 0.54713 0.0
C449 C 0.74711 0.14857 0.56989 0.0
C450 C 0.82504 0.02691 0.47055 0.0
C451 C 0.81779 0.01999 0.44225 0.0
C452 C 0.79667 0.03595 0.4269 0.0
C453 C 0.78352 0.05868 0.43938 0.0
C454 C 0.79167 0.06568 0.46749 0.0
C455 C 0.81189 0.04971 0.48262 0.0
C456 C 0.81855 0.06038 0.51194 0.0
C457 C 0.79914 0.08551 0.51193 0.0
C458 C 0.78344 0.08856 0.48587 0.0
C459 C 0.85372 0.06648 0.51377 0.0
C460 C 0.80671 0.0399 0.53416 0.0
H461 H 0.73496 0.18122 0.52573 0.0
H462 H 0.70554 0.15513 0.4271 0.0
H463 H 0.70027 0.10146 0.46483 0.0
H464 H 0.7267 0.07805 0.45123 0.0
H465 H 0.70944 0.10201 0.42741 0.0
H466 H 0.7787 0.14421 0.43127 0.0
H467 H 0.7532 0.12533 0.40883 0.0
H468 H 0.78588 0.11016 0.42645 0.0
H469 H 0.8031 0.15802 0.61007 0.0
H470 H 0.85583 0.0851 0.61608 0.0
H471 H 0.83793 0.07172 0.56972 0.0
H472 H 0.81946 0.17036 0.54312 0.0
H473 H 0.79157 0.18748 0.56489 0.0
H474 H 0.78498 0.18193 0.52738 0.0
H475 H 0.74275 0.13125 0.58411 0.0
H476 H 0.72745 0.14854 0.55477 0.0
H477 H 0.74596 0.16677 0.58327 0.0
H478 H 0.70002 0.20899 0.49904 0.0
C479 C 0.72913 0.17495 0.50451 0.0
Fe480 Fe 0.00087 0.81049 0.31804 0.0
Fe481 Fe 0.00204 0.84162 0.37463 0.0
O482 O 0.00143 0.84113 0.33685 0.0
Fe483 Fe 0.0012 0.87154 0.31796 0.0
O484 O 0.96427 0.86368 0.30208 0.0
O485 O 0.97635 0.82305 0.28862 0.0
O486 O 0.96529 0.80022 0.33552 0.0
C487 C 0.96112 0.79952 0.36217 0.0
C488 C 0.03978 0.83884 0.28364 0.0
O489 O 0.97947 0.81119 0.37902 0.0
C490 C 0.04286 0.88337 0.35956 0.0
O491 O 0.02505 0.79275 0.34433 0.0
O492 O 0.03829 0.82362 0.37536 0.0
O493 O 0.02228 0.85876 0.28693 0.0
O494 O 0.03647 0.81843 0.29896 0.0
C495 C 0.96119 0.88185 0.36438 0.0
O496 O 0.0248 0.8722 0.37718 0.0
O497 O 0.03831 0.88128 0.33302 0.0
C498 C 0.04291 0.80133 0.36379 0.0
O499 O 0.96563 0.8597 0.37627 0.0
O500 O 0.97958 0.89004 0.34525 0.0
C501 C 0.9586 0.84318 0.28752 0.0
Fe502 Fe 0.99945 0.15993 0.87535 0.0
Fe503 Fe 0.00314 0.12802 0.81984 0.0
O504 O 0.00163 0.15899 0.83759 0.0
Fe505 Fe 0.00244 0.18903 0.81774 0.0
O506 O 0.03775 0.19971 0.83559 0.0
O507 O 0.02099 0.19104 0.87889 0.0
O508 O 0.03621 0.14263 0.87894 0.0
C509 C 0.04207 0.12033 0.86782 0.0
C510 C 0.95867 0.19936 0.86177 0.0
O511 O 0.02516 0.11116 0.84804 0.0
C512 C 0.96329 0.15881 0.78518 0.0
O513 O 0.97759 0.12891 0.87886 0.0
O514 O 0.96625 0.11775 0.83482 0.0
O515 O 0.9777 0.20745 0.84302 0.0
O516 O 0.96265 0.1773 0.87407 0.0
C517 C 0.0451 0.15601 0.78813 0.0
O518 O 0.98153 0.13936 0.78855 0.0
O519 O 0.96726 0.18031 0.79856 0.0
C520 C 0.96092 0.11634 0.86124 0.0
O521 O 0.04002 0.13603 0.80365 0.0
O522 O 0.02718 0.17596 0.78889 0.0
C523 C 0.04041 0.20187 0.86235 0.0
Fe524 Fe 0.50254 0.31144 0.31974 0.0
Fe525 Fe 0.50249 0.34281 0.37595 0.0
O526 O 0.5024 0.34228 0.33816 0.0
Fe527 Fe 0.50206 0.37261 0.31914 0.0
O528 O 0.46631 0.36403 0.3014 0.0
O529 O 0.4791 0.32326 0.28938 0.0
O530 O 0.46644 0.30126 0.33675 0.0
C531 C 0.46287 0.29991 0.36347 0.0
C532 C 0.54336 0.34028 0.28726 0.0
O533 O 0.48151 0.31156 0.38005 0.0
C534 C 0.54151 0.38596 0.36214 0.0
O535 O 0.52638 0.29429 0.34682 0.0
O536 O 0.53955 0.32599 0.37689 0.0
O537 O 0.52562 0.36023 0.28944 0.0
O538 O 0.53846 0.31938 0.30144 0.0
C539 C 0.45995 0.38152 0.36465 0.0
O540 O 0.52349 0.3742 0.37924 0.0
O541 O 0.538 0.3835 0.33557 0.0
C542 C 0.54453 0.30355 0.36572 0.0
O543 O 0.46534 0.35968 0.37697 0.0
O544 O 0.47813 0.39027 0.34555 0.0
C545 C 0.46179 0.34347 0.28667 0.0
Fe546 Fe 0.49696 0.65887 0.87496 0.0
Fe547 Fe 0.50362 0.62728 0.81947 0.0
O548 O 0.50118 0.65819 0.83734 0.0
Fe549 Fe 0.50313 0.68818 0.81746 0.0
O550 O 0.53707 0.69913 0.83693 0.0
O551 O 0.51982 0.68915 0.8799 0.0
O552 O 0.53278 0.64049 0.88026 0.0
C553 C 0.53836 0.61805 0.8695 0.0
C554 C 0.45775 0.69929 0.86001 0.0
O555 O 0.52228 0.6095 0.84893 0.0
C556 C 0.46782 0.65847 0.78145 0.0
O557 O 0.47325 0.62866 0.87656 0.0
O558 O 0.46534 0.61772 0.83162 0.0
O559 O 0.47703 0.70688 0.84126 0.0
O560 O 0.46103 0.6773 0.87252 0.0
C561 C 0.54822 0.65497 0.79108 0.0
O562 O 0.48564 0.63909 0.78648 0.0
O563 O 0.46917 0.67931 0.79637 0.0
C564 C 0.45738 0.61696 0.85757 0.0
O565 O 0.54198 0.63505 0.80639 0.0
O566 O 0.53 0.6748 0.79028 0.0
C567 C 0.53926 0.7005 0.86375 0.0
H568 H 0.1555 0.28618 0.98207 0.0
H569 H 0.08795 0.22848 0.83519 0.0
H570 H 0.19971 0.29931 0.90051 0.0
H571 H 0.04906 0.21326 0.91868 0.0
H572 H 0.12859 0.2553 0.85782 0.0
H573 H 0.11595 0.25981 0.95838 0.0
C574 C 0.15707 0.28331 0.95918 0.0
C575 C 0.18111 0.29486 0.94331 0.0
C576 C 0.11108 0.24607 0.8711 0.0
C577 C 0.1354 0.26493 0.91581 0.0
C578 C 0.08787 0.23082 0.8582 0.0
C579 C 0.06499 0.21862 0.87502 0.0
C580 C 0.11132 0.24911 0.90097 0.0
C581 C 0.06612 0.22226 0.90476 0.0
C582 C 0.1343 0.26839 0.94559 0.0
C583 C 0.18145 0.29096 0.91356 0.0
N584 N 0.08882 0.23713 0.9167 0.0
N585 N 0.15894 0.27629 0.90075 0.0
H586 H 0.81202 0.74157 0.46783 0.0
H587 H 0.93215 0.75585 0.33925 0.0
H588 H 0.84269 0.67392 0.41839 0.0
H589 H 0.93217 0.80737 0.41298 0.0
H590 H 0.89145 0.72896 0.36195 0.0
H591 H 0.84857 0.76941 0.44172 0.0
C592 C 0.82643 0.73248 0.4516 0.0
C593 C 0.8244 0.70518 0.44564 0.0
C594 C 0.90039 0.74622 0.37301 0.0
C595 C 0.86569 0.73726 0.41511 0.0
C596 C 0.92343 0.76159 0.36007 0.0
C597 C 0.93566 0.78367 0.37442 0.0
C598 C 0.88916 0.75343 0.40011 0.0
C599 C 0.92361 0.79028 0.40136 0.0
C600 C 0.84714 0.74847 0.43658 0.0
C601 C 0.84311 0.69485 0.42362 0.0
N602 N 0.90097 0.77528 0.4133 0.0
N603 N 0.863 0.7109 0.40917 0.0
H604 H 0.80186 0.27072 0.94916 0.0
H605 H 0.94885 0.25132 0.84683 0.0
H606 H 0.85094 0.3356 0.90929 0.0
H607 H 0.91196 0.18879 0.90002 0.0
H608 H 0.90961 0.28153 0.86572 0.0
H609 H 0.83892 0.23965 0.92805 0.0
C610 C 0.82046 0.27849 0.93609 0.0
C611 C 0.82325 0.30592 0.93112 0.0
C612 C 0.91006 0.26119 0.87323 0.0
C613 C 0.86551 0.2703 0.90648 0.0
C614 C 0.93242 0.24386 0.86238 0.0
C615 C 0.93388 0.21746 0.87196 0.0
C616 C 0.88879 0.25208 0.89371 0.0
C617 C 0.91187 0.209 0.89213 0.0
C618 C 0.84152 0.26069 0.92391 0.0
C619 C 0.84752 0.31466 0.91345 0.0
N620 N 0.89027 0.22626 0.90235 0.0
N621 N 0.86768 0.29694 0.90182 0.0
H622 H 0.14616 0.66567 0.42562 0.0
H623 H 0.0899 0.81492 0.40008 0.0
H624 H 0.19474 0.73436 0.45783 0.0
H625 H 0.0517 0.74794 0.35455 0.0
H626 H 0.12807 0.78548 0.42185 0.0
H627 H 0.11102 0.69517 0.39972 0.0
C628 C 0.14964 0.68692 0.42709 0.0
C629 C 0.17343 0.6975 0.44411 0.0
C630 C 0.11147 0.77722 0.40698 0.0
C631 C 0.13293 0.7314 0.41478 0.0
C632 C 0.08959 0.79402 0.39456 0.0
C633 C 0.06741 0.78387 0.37556 0.0
C634 C 0.11107 0.74996 0.40061 0.0
C635 C 0.06833 0.75664 0.36909 0.0
C636 C 0.12946 0.70376 0.41237 0.0
C637 C 0.17642 0.72526 0.44548 0.0
N638 N 0.08965 0.74059 0.38176 0.0
N639 N 0.15636 0.7412 0.43113 0.0
H640 H 0.65959 0.82806 0.91685 0.0
H641 H 0.5651 0.69396 0.91624 0.0
H642 H 0.68863 0.75952 0.96566 0.0
H643 H 0.56974 0.74341 0.84102 0.0
H644 H 0.60575 0.72086 0.93823 0.0
H645 H 0.62241 0.80008 0.89153 0.0
C646 C 0.6585 0.80714 0.92211 0.0
C647 C 0.67733 0.79627 0.94368 0.0
C648 C 0.59793 0.72574 0.91688 0.0
C649 C 0.63408 0.76444 0.91525 0.0
C650 C 0.57464 0.71055 0.9044 0.0
C651 C 0.56402 0.71657 0.87683 0.0
C652 C 0.61025 0.74745 0.90193 0.0
C653 C 0.57737 0.7381 0.86231 0.0
C654 C 0.63711 0.79125 0.9077 0.0
C655 C 0.6742 0.76906 0.94979 0.0
N656 N 0.59963 0.753 0.87517 0.0
N657 N 0.65279 0.75417 0.93587 0.0
H658 H 0.30078 0.20266 0.40051 0.0
H659 H 0.45528 0.2881 0.41971 0.0
H660 H 0.35047 0.21211 0.47989 0.0
H661 H 0.415 0.27309 0.33679 0.0
H662 H 0.41541 0.26116 0.44155 0.0
H663 H 0.34084 0.22889 0.37628 0.0
C664 C 0.32009 0.21018 0.41283 0.0
C665 C 0.3221 0.20534 0.44237 0.0
C666 C 0.41519 0.26361 0.41856 0.0
C667 C 0.36777 0.23541 0.41483 0.0
C668 C 0.43803 0.27909 0.40598 0.0
C669 C 0.43859 0.2829 0.37627 0.0
C670 C 0.39239 0.25177 0.40147 0.0
C671 C 0.41551 0.27062 0.35976 0.0
C672 C 0.34287 0.2252 0.39899 0.0
C673 C 0.34752 0.21576 0.45726 0.0
N674 N 0.39323 0.25561 0.37261 0.0
N675 N 0.36923 0.23027 0.44336 0.0
H676 H 0.35804 0.84059 0.9103 0.0
H677 H 0.4089 0.68863 0.8957 0.0
H678 H 0.30373 0.77563 0.94374 0.0
H679 H 0.4509 0.7522 0.84741 0.0
H680 H 0.371 0.72018 0.91464 0.0
H681 H 0.39316 0.80857 0.88831 0.0
C682 C 0.35328 0.81961 0.91286 0.0
C683 C 0.32772 0.81089 0.92893 0.0
C684 C 0.38839 0.72719 0.89977 0.0
C685 C 0.36838 0.774 0.9041 0.0
C686 C 0.41008 0.70919 0.88895 0.0
C687 C 0.43326 0.71778 0.87 0.0
C688 C 0.39001 0.75405 0.89183 0.0
C689 C 0.4335 0.74465 0.86195 0.0
C690 C 0.37349 0.80131 0.90037 0.0
C691 C 0.32331 0.78336 0.93194 0.0
N692 N 0.41237 0.76185 0.87306 0.0
N693 N 0.34346 0.76593 0.91973 0.0
H694 H 0.6528 0.16974 0.42478 0.0
H695 H 0.59083 0.31788 0.40256 0.0
H696 H 0.69806 0.23898 0.45962 0.0
H697 H 0.55513 0.25053 0.35593 0.0
H698 H 0.63003 0.28915 0.42392 0.0
H699 H 0.61674 0.19881 0.39944 0.0
C700 C 0.65538 0.19104 0.42693 0.0
C701 C 0.67849 0.20188 0.44452 0.0
C702 C 0.61373 0.28066 0.40891 0.0
C703 C 0.63689 0.23529 0.41585 0.0
C704 C 0.59127 0.29706 0.39673 0.0
C705 C 0.56949 0.28659 0.37754 0.0
C706 C 0.61435 0.2535 0.40206 0.0
C707 C 0.57139 0.25947 0.37066 0.0
C708 C 0.63465 0.20763 0.41254 0.0
C709 C 0.6803 0.22967 0.44677 0.0
N710 N 0.59328 0.24384 0.38307 0.0
N711 N 0.65972 0.24537 0.43272 0.0
H712 H 0.33934 0.48074 0.87875 0.0
H713 H 0.42799 0.61637 0.90916 0.0
H714 H 0.33039 0.52552 0.95701 0.0
H715 H 0.42822 0.57778 0.82675 0.0
H716 H 0.38909 0.58488 0.92566 0.0
H717 H 0.36822 0.51765 0.85774 0.0
C718 C 0.34297 0.49851 0.89136 0.0
C719 C 0.33274 0.49991 0.91982 0.0
C720 C 0.39741 0.58339 0.90388 0.0
C721 C 0.36624 0.54201 0.89606 0.0
C722 C 0.41973 0.60133 0.89446 0.0
C723 C 0.4317 0.59948 0.86665 0.0
C724 C 0.38715 0.5632 0.88549 0.0
C725 C 0.41978 0.57983 0.84843 0.0
C726 C 0.35964 0.51951 0.8794 0.0
C727 C 0.33842 0.52333 0.93521 0.0
N728 N 0.39842 0.56223 0.85829 0.0
N729 N 0.35503 0.54332 0.92324 0.0
H730 H 0.69244 0.49638 0.39746 0.0
H731 H 0.5441 0.40501 0.41649 0.0
H732 H 0.619 0.51223 0.45796 0.0
H733 H 0.5891 0.41188 0.33432 0.0
H734 H 0.57824 0.43912 0.43525 0.0
H735 H 0.66053 0.46107 0.3764 0.0
C736 C 0.66969 0.49257 0.40629 0.0
C737 C 0.65866 0.50716 0.42985 0.0
C738 C 0.58069 0.43317 0.41311 0.0
C739 C 0.62257 0.46657 0.40624 0.0
C740 C 0.56129 0.41358 0.40237 0.0
C741 C 0.56356 0.40568 0.37368 0.0
C742 C 0.60288 0.44487 0.39524 0.0
C743 C 0.58641 0.41755 0.35651 0.0
C744 C 0.65161 0.47237 0.39431 0.0
C745 C 0.62904 0.50111 0.44045 0.0
N746 N 0.60532 0.4366 0.36758 0.0
N747 N 0.61221 0.48121 0.42873 0.0
H748 H 0.64893 0.4808 0.91131 0.0
H749 H 0.57208 0.62553 0.91883 0.0
H750 H 0.65964 0.53361 0.98331 0.0
H751 H 0.55818 0.56994 0.84973 0.0
H752 H 0.60852 0.59424 0.94074 0.0
H753 H 0.62064 0.51558 0.8861 0.0
C754 C 0.64578 0.49985 0.92167 0.0
C755 C 0.65649 0.50418 0.94958 0.0
C756 C 0.59758 0.58899 0.92071 0.0
C757 C 0.6235 0.54403 0.92099 0.0
C758 C 0.57677 0.60684 0.9082 0.0
C759 C 0.56173 0.60024 0.88257 0.0
C760 C 0.60345 0.56443 0.90744 0.0
C761 C 0.5689 0.57579 0.86966 0.0
C762 C 0.62936 0.51967 0.90734 0.0
C763 C 0.65131 0.52922 0.96201 0.0
N764 N 0.58909 0.55878 0.88229 0.0
N765 N 0.635 0.54813 0.94772 0.0
H766 H 0.33311 0.51244 0.38759 0.0
H767 H 0.42206 0.37449 0.41135 0.0
H768 H 0.32531 0.4657 0.46456 0.0
H769 H 0.43854 0.42728 0.34022 0.0
H770 H 0.38127 0.40448 0.42823 0.0
H771 H 0.36581 0.47788 0.36674 0.0
C772 C 0.33781 0.49469 0.39993 0.0
C773 C 0.32662 0.49205 0.42795 0.0
C774 C 0.39374 0.4094 0.40886 0.0
C775 C 0.36455 0.45258 0.40439 0.0
C776 C 0.41703 0.39229 0.39919 0.0
C777 C 0.43404 0.39853 0.37451 0.0
C778 C 0.38731 0.43283 0.39364 0.0
C779 C 0.42632 0.4218 0.35955 0.0
C780 C 0.35673 0.47505 0.38811 0.0
C781 C 0.33384 0.46873 0.44305 0.0
N782 N 0.40365 0.43813 0.36941 0.0
N783 N 0.35252 0.44998 0.43116 0.0
H784 H 0.88669 0.98698 0.95658 0.0
H785 H 0.91468 0.09025 0.83197 0.0
H786 H 0.81343 0.00432 0.89648 0.0
H787 H 0.9565 0.09715 0.91546 0.0
H788 H 0.88067 0.0551 0.85072 0.0
H789 H 0.91674 0.02329 0.93678 0.0
C790 C 0.87666 0.99857 0.93942 0.0
C791 C 0.84704 0.99282 0.92867 0.0
C792 C 0.89719 0.06455 0.86484 0.0
C793 C 0.88212 0.0341 0.90522 0.0
C794 C 0.9166 0.0845 0.8542 0.0
C795 C 0.93856 0.09657 0.87215 0.0
C796 C 0.90031 0.05638 0.89337 0.0
C797 C 0.93998 0.08845 0.90081 0.0
C798 C 0.89401 0.01923 0.92801 0.0
C799 C 0.83612 0.00796 0.90547 0.0
N800 N 0.92139 0.06869 0.91041 0.0
N801 N 0.8537 0.02795 0.89445 0.0
H802 H 0.19493 0.99389 0.39311 0.0
H803 H 0.04971 0.89988 0.41452 0.0
H804 H 0.12115 0.00916 0.45345 0.0
H805 H 0.08878 0.91024 0.33021 0.0
H806 H 0.08466 0.93363 0.43265 0.0
H807 H 0.16359 0.95798 0.37231 0.0
C808 C 0.17227 0.98981 0.40199 0.0
C809 C 0.16099 0.00439 0.42547 0.0
C810 C 0.08565 0.92847 0.41018 0.0
C811 C 0.12565 0.96316 0.40221 0.0
C812 C 0.06579 0.9091 0.39977 0.0
C813 C 0.06601 0.9024 0.37066 0.0
C814 C 0.10628 0.94115 0.39154 0.0
C815 C 0.08763 0.91502 0.35274 0.0
C816 C 0.15453 0.96929 0.39015 0.0
C817 C 0.13146 0.99803 0.43609 0.0
N818 N 0.10699 0.93391 0.36348 0.0
N819 N 0.11503 0.97781 0.42456 0.0
H820 H 0.16907 0.04093 0.98226 0.0
H821 H 0.06421 0.07364 0.84622 0.0
H822 H 0.15785 0.98822 0.91028 0.0
H823 H 0.07649 0.12803 0.91666 0.0
H824 H 0.10236 0.04402 0.86754 0.0
H825 H 0.13944 0.07491 0.95677 0.0
C826 C 0.16061 0.03659 0.96099 0.0
C827 C 0.1657 0.01158 0.94851 0.0
C828 C 0.09689 0.06249 0.8783 0.0
C829 C 0.13174 0.05037 0.91922 0.0
C830 C 0.075 0.07943 0.86616 0.0
C831 C 0.06679 0.10325 0.87985 0.0
C832 C 0.11067 0.06925 0.90446 0.0
C833 C 0.08191 0.10979 0.90546 0.0
C834 C 0.14376 0.05602 0.94642 0.0
C835 C 0.15466 0.00723 0.9207 0.0
N836 N 0.10292 0.09276 0.91707 0.0
N837 N 0.13793 0.02631 0.90714 0.0
H838 H 0.84177 0.01749 0.38814 0.0
H839 H 0.92374 0.87632 0.41169 0.0
H840 H 0.83098 0.97092 0.46493 0.0
H841 H 0.94185 0.92828 0.34021 0.0
H842 H 0.88482 0.90795 0.42904 0.0
H843 H 0.87301 0.9819 0.36751 0.0
C844 C 0.84555 0.9996 0.40051 0.0
C845 C 0.83389 0.99728 0.42839 0.0
C846 C 0.89725 0.91233 0.4095 0.0
C847 C 0.87019 0.95657 0.40507 0.0
C848 C 0.91946 0.89428 0.39958 0.0
C849 C 0.93638 0.8998 0.37465 0.0
C850 C 0.89183 0.93595 0.39427 0.0
C851 C 0.92968 0.92332 0.35973 0.0
C852 C 0.86364 0.97935 0.38881 0.0
C853 C 0.83994 0.97373 0.44353 0.0
N854 N 0.90807 0.94053 0.36982 0.0
N855 N 0.85782 0.95435 0.43175 0.0
H856 H 0.34205 0.40636 0.15709 0.0
H857 H 0.4511 0.30693 0.24401 0.0
H858 H 0.36631 0.32827 0.12637 0.0
H859 H 0.41983 0.38291 0.27586 0.0
H860 H 0.41683 0.31225 0.20271 0.0
H861 H 0.36707 0.3962 0.20251 0.0
C862 C 0.35255 0.38699 0.16001 0.0
C863 C 0.35244 0.36824 0.13786 0.0
C864 C 0.41727 0.32761 0.21891 0.0
C865 C 0.38128 0.35641 0.18983 0.0
C866 C 0.43681 0.32458 0.24252 0.0
C867 C 0.4387 0.34466 0.26328 0.0
C868 C 0.39957 0.35091 0.21604 0.0
C869 C 0.4195 0.36703 0.26025 0.0
C870 C 0.36675 0.38114 0.18599 0.0
C871 C 0.36589 0.34328 0.14294 0.0
N872 N 0.40101 0.36963 0.23698 0.0
N873 N 0.38012 0.33818 0.1683 0.0
H874 H 0.65959 0.66966 0.63876 0.0
H875 H 0.59156 0.61544 0.78653 0.0
H876 H 0.6783 0.59164 0.67279 0.0
H877 H 0.56417 0.69002 0.74853 0.0
H878 H 0.63026 0.60988 0.74904 0.0
H879 H 0.6318 0.68084 0.68279 0.0
C880 C 0.65837 0.65506 0.65572 0.0
C881 C 0.67097 0.62958 0.652 0.0
C882 C 0.61597 0.62758 0.74901 0.0
C883 C 0.6389 0.64209 0.70222 0.0
C884 C 0.59383 0.63079 0.77045 0.0
C885 C 0.57419 0.65305 0.77047 0.0
C886 C 0.61855 0.64671 0.72732 0.0
C887 C 0.57857 0.67241 0.74923 0.0
C888 C 0.6423 0.66138 0.68076 0.0
C889 C 0.66845 0.61136 0.67458 0.0
N890 N 0.60006 0.66866 0.72834 0.0
N891 N 0.6525 0.61789 0.6986 0.0
H892 H 0.66073 0.30886 0.1417 0.0
H893 H 0.57158 0.38421 0.26598 0.0
H894 H 0.67714 0.39077 0.16422 0.0
H895 H 0.57299 0.29865 0.26044 0.0
H896 H 0.61101 0.38635 0.22885 0.0
H897 H 0.63015 0.30361 0.18553 0.0
C898 C 0.65839 0.32559 0.15609 0.0
C899 C 0.67111 0.35042 0.14906 0.0
C900 C 0.60295 0.36705 0.23584 0.0
C901 C 0.6358 0.34467 0.19886 0.0
C902 C 0.58028 0.36583 0.25697 0.0
C903 C 0.56877 0.34122 0.2661 0.0
C904 C 0.61397 0.34351 0.22333 0.0
C905 C 0.58121 0.31804 0.25393 0.0
C906 C 0.6408 0.32262 0.18102 0.0
C907 C 0.66714 0.37145 0.16842 0.0
N908 N 0.6029 0.31974 0.23285 0.0
N909 N 0.64957 0.36818 0.1922 0.0
H910 H 0.31876 0.65136 0.65686 0.0
H911 H 0.48142 0.63149 0.7332 0.0
H912 H 0.40068 0.62032 0.61582 0.0
H913 H 0.41213 0.6834 0.76945 0.0
H914 H 0.4504 0.62721 0.69039 0.0
H915 H 0.35067 0.66408 0.69835 0.0
C916 C 0.34345 0.64751 0.65646 0.0
C917 C 0.35703 0.63425 0.63319 0.0
C918 C 0.44187 0.63972 0.70751 0.0
C919 C 0.39336 0.64856 0.68021 0.0
C920 C 0.45956 0.64206 0.73211 0.0
C921 C 0.4492 0.65766 0.75501 0.0
C922 C 0.41318 0.65274 0.7057 0.0
C923 C 0.42088 0.67118 0.7522 0.0
C924 C 0.36158 0.65472 0.68008 0.0
C925 C 0.38909 0.62982 0.63363 0.0
N926 N 0.40355 0.66815 0.72803 0.0
N927 N 0.40601 0.63672 0.65681 0.0
H928 H 0.84954 0.82743 0.13361 0.0
H929 H 0.91327 0.88078 0.28325 0.0
H930 H 0.82747 0.90405 0.16957 0.0
H931 H 0.94584 0.80847 0.24358 0.0
H932 H 0.87487 0.88549 0.24557 0.0
H933 H 0.87769 0.81615 0.17747 0.0
C934 C 0.85012 0.84166 0.15097 0.0
C935 C 0.83647 0.86682 0.14791 0.0
C936 C 0.89024 0.86847 0.24516 0.0
C937 C 0.86879 0.8542 0.19785 0.0
C938 C 0.91225 0.86577 0.26669 0.0
C939 C 0.93321 0.84441 0.26634 0.0
C940 C 0.88912 0.84978 0.22293 0.0
C941 C 0.93035 0.82538 0.24455 0.0
C942 C 0.86635 0.83529 0.17588 0.0
C943 C 0.83809 0.8846 0.17092 0.0
N944 N 0.90893 0.82866 0.22351 0.0
N945 N 0.85417 0.87803 0.19481 0.0
H946 H 0.17495 0.09296 0.66639 0.0
H947 H 0.05909 0.19221 0.74611 0.0
H948 H 0.14872 0.16943 0.63253 0.0
H949 H 0.08722 0.11603 0.77973 0.0
H950 H 0.09625 0.18672 0.70707 0.0
H951 H 0.14763 0.10353 0.71067 0.0
C952 C 0.16363 0.11209 0.6684 0.0
C953 C 0.16379 0.13022 0.64564 0.0
C954 C 0.09447 0.17133 0.72314 0.0
C955 C 0.13229 0.14246 0.69625 0.0
C956 C 0.07326 0.17445 0.74547 0.0
C957 C 0.06968 0.15439 0.76606 0.0
C958 C 0.11221 0.14796 0.72135 0.0
C959 C 0.08886 0.13189 0.76419 0.0
C960 C 0.14808 0.11816 0.69371 0.0
C961 C 0.14921 0.1549 0.64957 0.0
N962 N 0.10905 0.1292 0.74211 0.0
N963 N 0.13371 0.16017 0.67425 0.0
H964 H 0.11401 0.86455 0.11644 0.0
H965 H 0.0901 0.80605 0.27323 0.0
H966 H 0.1906 0.82882 0.16159 0.0
H967 H 0.03752 0.87086 0.23708 0.0
H968 H 0.12385 0.80663 0.23059 0.0
H969 H 0.0815 0.85826 0.15829 0.0
C970 C 0.12404 0.8554 0.13524 0.0
C971 C 0.15532 0.84783 0.13575 0.0
C972 C 0.10488 0.82065 0.23221 0.0
C973 C 0.11788 0.84022 0.18384 0.0
C974 C 0.08564 0.82032 0.2564 0.0
C975 C 0.061 0.83848 0.25877 0.0
C976 C 0.09888 0.83889 0.21016 0.0
C977 C 0.05628 0.85658 0.23638 0.0
C978 C 0.10541 0.85175 0.15912 0.0
C979 C 0.16667 0.83514 0.1604 0.0
N980 N 0.07487 0.85619 0.21307 0.0
N981 N 0.14797 0.83189 0.18367 0.0
H982 H 0.83575 0.09202 0.66471 0.0
H983 H 0.93489 0.1981 0.75343 0.0
H984 H 0.85392 0.17108 0.63339 0.0
H985 H 0.93506 0.1135 0.76828 0.0
H986 H 0.89673 0.19154 0.71496 0.0
H987 H 0.86293 0.10293 0.7088 0.0
C988 C 0.84531 0.11177 0.66723 0.0
C989 C 0.8431 0.1305 0.64516 0.0
C990 C 0.905 0.17452 0.72687 0.0
C991 C 0.8743 0.14319 0.69565 0.0
C992 C 0.92664 0.17825 0.74881 0.0
C993 C 0.93842 0.15625 0.76372 0.0
C994 C 0.89484 0.1487 0.7203 0.0
C995 C 0.92698 0.13096 0.75699 0.0
C996 C 0.86079 0.11801 0.69241 0.0
C997 C 0.85522 0.15602 0.64986 0.0
N998 N 0.90594 0.1279 0.73578 0.0
N999 N 0.87069 0.16155 0.6745 0.0
loop_
_geom_bond_atom_site_label_1
_geom_bond_atom_site_label_2
_geom_bond_distance
_geom_bond_site_symmetry_2
_ccdc_geom_bond_type
C0 C1 1.391 . S
C0 C4 1.391 . S
C0 H42 0.948 . S
C1 C0 1.391 . S
C1 C2 1.391 . S
C2 C1 1.391 . S
C2 H58 0.947 . S
C2 C59 1.392 . S
C3 C4 1.391 . S
C3 C7 1.397 . S
C3 C59 1.419 . S
C4 C0 1.391 . S
C4 C3 1.391 . S
C4 C5 1.399 . S
C5 C4 1.399 . S
C5 C8 1.396 . S
C5 C17 1.453 . S
C5 C18 1.684 . S
H6 C30 0.948 . S
C7 C3 1.397 . S
C7 C8 1.394 . S
C7 C26 1.723 . S
C8 C5 1.396 . S
C8 C7 1.394 . S
C8 C38 1.723 . S
H9 C32 0.947 1_554 S
H10 C33 0.948 . S
H11 C39 0.982 . S
H12 C40 0.979 . S
H13 C40 0.980 . S
H14 C40 0.983 . S
H15 C39 0.979 . S
H16 C39 0.977 . S
C17 C5 1.453 . S
C17 H46 0.982 . S
C17 H47 0.979 . S
C17 H48 0.977 . S
C18 C5 1.684 . S
C18 H43 0.979 . S
C18 H44 0.980 . S
C18 H45 0.983 . S
C19 C20 1.391 . S
C19 C24 1.391 . S
C19 H49 0.948 . S
C20 C19 1.391 . S
C20 C21 1.391 . S
C21 C20 1.391 . S
C21 C22 1.392 . S
C21 H50 0.947 . S
C22 C21 1.392 . S
C22 C23 1.419 . S
C22 H51 0.948 . S
C23 C22 1.419 . S
C23 C24 1.391 . S
C23 C27 1.397 . S
C24 C19 1.391 . S
C24 C23 1.391 . S
C24 C25 1.399 1_556 S
C25 C24 1.399 1_554 S
C25 C26 1.396 . S
C25 C28 1.453 . S
C25 C29 1.684 . S
C26 C7 1.723 . S
C26 C25 1.396 . S
C26 C27 1.394 1_554 S
C27 C23 1.397 . S
C27 C26 1.394 1_556 S
C27 C37 1.723 . S
C28 C25 1.453 . S
C28 H52 0.982 . S
C28 H53 0.979 . S
C28 H54 0.977 . S
C29 C25 1.684 . S
C29 H55 0.979 . S
C29 H56 0.980 . S
C29 H57 0.983 . S
C30 H6 0.948 . S
C30 C31 1.391 . S
C30 C35 1.391 . S
C31 C30 1.391 . S
C31 C32 1.391 . S
C32 H9 0.947 1_556 S
C32 C31 1.391 . S
C32 C33 1.392 1_556 S
C33 H10 0.948 . S
C33 C32 1.392 1_554 S
C33 C34 1.419 1_554 S
C34 C33 1.419 1_556 S
C34 C35 1.391 . S
C34 C38 1.397 1_556 S
C35 C30 1.391 . S
C35 C34 1.391 . S
C35 C36 1.399 . S
C36 C35 1.399 . S
C36 C37 1.396 . S
C36 C39 1.453 . S
C36 C40 1.684 . S
C37 C27 1.723 . S
C37 C36 1.396 . S
C37 C38 1.394 1_556 S
C38 C8 1.723 . S
C38 C34 1.397 1_554 S
C38 C37 1.394 1_554 S
C39 H11 0.982 . S
C39 H15 0.979 . S
C39 H16 0.977 . S
C39 C36 1.453 . S
C40 H12 0.979 . S
C40 H13 0.980 . S
C40 H14 0.983 . S
C40 C36 1.684 . S
H41 C59 0.948 . S
H42 C0 0.948 . S
H43 C18 0.979 . S
H44 C18 0.980 . S
H45 C18 0.983 . S
H46 C17 0.982 . S
H47 C17 0.979 . S
H48 C17 0.977 . S
H49 C19 0.948 . S
H50 C21 0.947 . S
H51 C22 0.948 . S
H52 C28 0.982 . S
H53 C28 0.979 . S
H54 C28 0.977 . S
H55 C29 0.979 . S
H56 C29 0.980 . S
H57 C29 0.983 . S
H58 C2 0.947 . S
C59 C2 1.392 . S
C59 C3 1.419 . S
C59 H41 0.948 . S
C60 C61 1.391 . S
C60 C64 1.391 . S
C60 H102 0.948 . S
C61 C60 1.391 . S
C61 C62 1.391 . S
C62 C61 1.391 . S
C62 H118 0.947 . S
C62 C119 1.392 . S
C63 C64 1.391 . S
C63 C67 1.397 . S
C63 C119 1.419 . S
C64 C60 1.391 . S
C64 C63 1.391 . S
C64 C65 1.399 . S
C65 C64 1.399 . S
C65 C68 1.396 . S
C65 C77 1.453 . S
C65 C78 1.684 . S
H66 C90 0.948 . S
C67 C63 1.397 . S
C67 C68 1.394 . S
C67 C86 1.723 . S
C68 C65 1.396 . S
C68 C67 1.394 . S
C68 C98 1.723 . S
H69 C92 0.947 . S
H70 C93 0.948 . S
H71 C99 0.982 . S
H72 C100 0.979 . S
H73 C100 0.980 . S
H74 C100 0.983 . S
H75 C99 0.979 . S
H76 C99 0.977 . S
C77 C65 1.453 . S
C77 H106 0.982 . S
C77 H107 0.979 . S
C77 H108 0.977 . S
C78 C65 1.684 . S
C78 H103 0.979 . S
C78 H104 0.980 . S
C78 H105 0.983 . S
C79 C80 1.391 . S
C79 C84 1.391 . S
C79 H109 0.948 . S
C80 C79 1.391 . S
C80 C81 1.391 . S
C81 C80 1.391 . S
C81 C82 1.392 . S
C81 H110 0.947 . S
C82 C81 1.392 . S
C82 C83 1.419 . S
C82 H111 0.948 . S
C83 C82 1.419 . S
C83 C84 1.391 . S
C83 C87 1.397 . S
C84 C79 1.391 . S
C84 C83 1.391 . S
C84 C85 1.399 . S
C85 C84 1.399 . S
C85 C86 1.396 . S
C85 C88 1.453 . S
C85 C89 1.684 . S
C86 C67 1.723 . S
C86 C85 1.396 . S
C86 C87 1.394 . S
C87 C83 1.397 . S
C87 C86 1.394 . S
C87 C97 1.723 . S
C88 C85 1.453 . S
C88 H112 0.982 . S
C88 H113 0.979 . S
C88 H114 0.977 . S
C89 C85 1.684 . S
C89 H115 0.979 . S
C89 H116 0.980 . S
C89 H117 0.983 . S
C90 H66 0.948 . S
C90 C91 1.391 . S
C90 C95 1.391 . S
C91 C90 1.391 . S
C91 C92 1.391 . S
C92 H69 0.947 . S
C92 C91 1.391 . S
C92 C93 1.392 . S
C93 H70 0.948 . S
C93 C92 1.392 . S
C93 C94 1.419 . S
C94 C93 1.419 . S
C94 C95 1.391 . S
C94 C98 1.397 . S
C95 C90 1.391 . S
C95 C94 1.391 . S
C95 C96 1.399 . S
C96 C95 1.399 . S
C96 C97 1.396 . S
C96 C99 1.453 . S
C96 C100 1.684 . S
C97 C87 1.723 . S
C97 C96 1.396 . S
C97 C98 1.394 . S
C98 C68 1.723 . S
C98 C94 1.397 . S
C98 C97 1.394 . S
C99 H71 0.982 . S
C99 H75 0.979 . S
C99 H76 0.977 . S
C99 C96 1.453 . S
C100 H72 0.979 . S
C100 H73 0.980 . S
C100 H74 0.983 . S
C100 C96 1.684 . S
H101 C119 0.948 . S
H102 C60 0.948 . S
H103 C78 0.979 . S
H104 C78 0.980 . S
H105 C78 0.983 . S
H106 C77 0.982 . S
H107 C77 0.979 . S
H108 C77 0.977 . S
H109 C79 0.948 . S
H110 C81 0.947 . S
H111 C82 0.948 . S
H112 C88 0.982 . S
H113 C88 0.979 . S
H114 C88 0.977 . S
H115 C89 0.979 . S
H116 C89 0.980 . S
H117 C89 0.983 . S
H118 C62 0.947 . S
C119 C62 1.392 . S
C119 C63 1.419 . S
C119 H101 0.948 . S
C120 C121 1.391 . S
C120 C124 1.391 . S
C120 H162 0.948 . S
C121 C120 1.391 . S
C121 C122 1.391 . S
C122 C121 1.391 . S
C122 H178 0.947 . S
C122 C179 1.392 . S
C123 C124 1.391 . S
C123 C127 1.397 . S
C123 C179 1.419 . S
C124 C120 1.391 . S
C124 C123 1.391 . S
C124 C125 1.399 . S
C125 C124 1.399 . S
C125 C128 1.396 . S
C125 C137 1.453 . S
C125 C138 1.684 . S
H126 C150 0.948 . S
C127 C123 1.397 . S
C127 C128 1.394 . S
C127 C146 1.723 1_556 S
C128 C125 1.396 . S
C128 C127 1.394 . S
C128 C158 1.723 . S
H129 C152 0.947 . S
H130 C153 0.948 . S
H131 C159 0.982 . S
H132 C160 0.979 . S
H133 C160 0.980 . S
H134 C160 0.983 . S
H135 C159 0.979 . S
H136 C159 0.977 . S
C137 C125 1.453 . S
C137 H166 0.982 . S
C137 H167 0.979 . S
C137 H168 0.977 . S
C138 C125 1.684 . S
C138 H163 0.979 . S
C138 H164 0.980 . S
C138 H165 0.983 . S
C139 C140 1.391 . S
C139 C144 1.391 . S
C139 H169 0.948 . S
C140 C139 1.391 . S
C140 C141 1.391 . S
C141 C140 1.391 . S
C141 C142 1.392 . S
C141 H170 0.947 . S
C142 C141 1.392 . S
C142 C143 1.419 . S
C142 H171 0.948 . S
C143 C142 1.419 . S
C143 C144 1.391 . S
C143 C147 1.397 . S
C144 C139 1.391 . S
C144 C143 1.391 . S
C144 C145 1.399 . S
C145 C144 1.399 . S
C145 C146 1.396 . S
C145 C148 1.453 . S
C145 C149 1.684 . S
C146 C127 1.723 1_554 S
C146 C145 1.396 . S
C146 C147 1.394 . S
C147 C143 1.397 . S
C147 C146 1.394 . S
C147 C157 1.723 . S
C148 C145 1.453 . S
C148 H172 0.982 . S
C148 H173 0.979 . S
C148 H174 0.977 . S
C149 C145 1.684 . S
C149 H175 0.979 . S
C149 H176 0.980 . S
C149 H177 0.983 . S
C150 H126 0.948 . S
C150 C151 1.391 . S
C150 C155 1.391 . S
C151 C150 1.391 . S
C151 C152 1.391 . S
C152 H129 0.947 . S
C152 C151 1.391 . S
C152 C153 1.392 . S
C153 H130 0.948 . S
C153 C152 1.392 . S
C153 C154 1.419 . S
C154 C153 1.419 . S
C154 C155 1.391 . S
C154 C158 1.397 . S
C155 C150 1.391 . S
C155 C154 1.391 . S
C155 C156 1.399 1_556 S
C156 C155 1.399 1_554 S
C156 C157 1.396 . S
C156 C159 1.453 . S
C156 C160 1.684 . S
C157 C147 1.723 . S
C157 C156 1.396 . S
C157 C158 1.394 1_554 S
C158 C128 1.723 . S
C158 C154 1.397 . S
C158 C157 1.394 1_556 S
C159 H131 0.982 . S
C159 H135 0.979 . S
C159 H136 0.977 . S
C159 C156 1.453 . S
C160 H132 0.979 . S
C160 H133 0.980 . S
C160 H134 0.983 . S
C160 C156 1.684 . S
H161 C179 0.948 1_554 S
H162 C120 0.948 . S
H163 C138 0.979 . S
H164 C138 0.980 . S
H165 C138 0.983 . S
H166 C137 0.982 . S
H167 C137 0.979 . S
H168 C137 0.977 . S
H169 C139 0.948 . S
H170 C141 0.947 . S
H171 C142 0.948 . S
H172 C148 0.982 . S
H173 C148 0.979 . S
H174 C148 0.977 . S
H175 C149 0.979 . S
H176 C149 0.980 . S
H177 C149 0.983 . S
H178 C122 0.947 . S
C179 C122 1.392 . S
C179 C123 1.419 . S
C179 H161 0.948 1_556 S
C180 C181 1.391 . S
C180 C184 1.391 . S
C180 H222 0.948 . S
C181 C180 1.391 . S
C181 C182 1.391 . S
C182 C181 1.391 . S
C182 H238 0.947 . S
C182 C239 1.392 . S
C183 C184 1.391 . S
C183 C187 1.397 . S
C183 C239 1.419 . S
C184 C180 1.391 . S
C184 C183 1.391 . S
C184 C185 1.399 . S
C185 C184 1.399 . S
C185 C188 1.396 . S
C185 C197 1.453 . S
C185 C198 1.684 . S
H186 C210 0.948 . S
C187 C183 1.397 . S
C187 C188 1.394 . S
C187 C206 1.723 . S
C188 C185 1.396 . S
C188 C187 1.394 . S
C188 C218 1.723 . S
H189 C212 0.947 . S
H190 C213 0.948 . S
H191 C219 0.982 . S
H192 C220 0.979 . S
H193 C220 0.980 . S
H194 C220 0.983 . S
H195 C219 0.979 . S
H196 C219 0.977 . S
C197 C185 1.453 . S
C197 H226 0.982 . S
C197 H227 0.979 . S
C197 H228 0.977 . S
C198 C185 1.684 . S
C198 H223 0.979 . S
C198 H224 0.980 . S
C198 H225 0.983 . S
C199 C200 1.391 . S
C199 C204 1.391 . S
C199 H229 0.948 . S
C200 C199 1.391 . S
C200 C201 1.391 . S
C201 C200 1.391 . S
C201 C202 1.392 . S
C201 H230 0.947 . S
C202 C201 1.392 . S
C202 C203 1.419 . S
C202 H231 0.948 . S
C203 C202 1.419 . S
C203 C204 1.391 . S
C203 C207 1.397 . S
C204 C199 1.391 . S
C204 C203 1.391 . S
C204 C205 1.399 . S
C205 C204 1.399 . S
C205 C206 1.396 . S
C205 C208 1.453 . S
C205 C209 1.684 . S
C206 C187 1.723 . S
C206 C205 1.396 . S
C206 C207 1.394 . S
C207 C203 1.397 . S
C207 C206 1.394 . S
C207 C217 1.723 . S
C208 C205 1.453 . S
C208 H232 0.982 . S
C208 H233 0.979 . S
C208 H234 0.977 . S
C209 C205 1.684 . S
C209 H235 0.979 . S
C209 H236 0.980 . S
C209 H237 0.983 . S
C210 H186 0.948 . S
C210 C211 1.391 . S
C210 C215 1.391 . S
C211 C210 1.391 . S
C211 C212 1.391 . S
C212 H189 0.947 . S
C212 C211 1.391 . S
C212 C213 1.392 . S
C213 H190 0.948 . S
C213 C212 1.392 . S
C213 C214 1.419 . S
C214 C213 1.419 . S
C214 C215 1.391 . S
C214 C218 1.397 . S
C215 C210 1.391 . S
C215 C214 1.391 . S
C215 C216 1.399 . S
C216 C215 1.399 . S
C216 C217 1.396 . S
C216 C219 1.453 . S
C216 C220 1.684 . S
C217 C207 1.723 . S
C217 C216 1.396 . S
C217 C218 1.394 . S
C218 C188 1.723 . S
C218 C214 1.397 . S
C218 C217 1.394 . S
C219 H191 0.982 . S
C219 H195 0.979 . S
C219 H196 0.977 . S
C219 C216 1.453 . S
C220 H192 0.979 . S
C220 H193 0.980 . S
C220 H194 0.983 . S
C220 C216 1.684 . S
H221 C239 0.948 . S
H222 C180 0.948 . S
H223 C198 0.979 . S
H224 C198 0.980 . S
H225 C198 0.983 . S
H226 C197 0.982 . S
H227 C197 0.979 . S
H228 C197 0.977 . S
H229 C199 0.948 . S
H230 C201 0.947 . S
H231 C202 0.948 . S
H232 C208 0.982 . S
H233 C208 0.979 . S
H234 C208 0.977 . S
H235 C209 0.979 . S
H236 C209 0.980 . S
H237 C209 0.983 . S
H238 C182 0.947 . S
C239 C182 1.392 . S
C239 C183 1.419 . S
C239 H221 0.948 . S
C240 C241 1.391 . S
C240 C244 1.391 . S
C240 H282 0.948 . S
C241 C240 1.391 . S
C241 C242 1.391 . S
C242 C241 1.391 . S
C242 H298 0.947 . S
C242 C299 1.392 . S
C243 C244 1.391 . S
C243 C247 1.397 . S
C243 C299 1.419 . S
C244 C240 1.391 . S
C244 C243 1.391 . S
C244 C245 1.399 . S
C245 C244 1.399 . S
C245 C248 1.396 . S
C245 C257 1.453 . S
C245 C258 1.684 . S
H246 C270 0.948 . S
C247 C243 1.397 . S
C247 C248 1.394 . S
C247 C266 1.723 . S
C248 C245 1.396 . S
C248 C247 1.394 . S
C248 C278 1.723 . S
H249 C272 0.947 1_554 S
H250 C273 0.948 . S
H251 C279 0.982 . S
H252 C280 0.979 . S
H253 C280 0.980 . S
H254 C280 0.983 . S
H255 C279 0.979 . S
H256 C279 0.977 . S
C257 C245 1.453 . S
C257 H286 0.982 . S
C257 H287 0.979 . S
C257 H288 0.977 . S
C258 C245 1.684 . S
C258 H283 0.979 . S
C258 H284 0.980 . S
C258 H285 0.983 . S
C259 C260 1.391 . S
C259 C264 1.391 . S
C259 H289 0.948 . S
C260 C259 1.391 . S
C260 C261 1.391 . S
C261 C260 1.391 . S
C261 C262 1.392 . S
C261 H290 0.947 . S
C262 C261 1.392 . S
C262 C263 1.419 . S
C262 H291 0.948 . S
C263 C262 1.419 . S
C263 C264 1.391 . S
C263 C267 1.397 . S
C264 C259 1.391 . S
C264 C263 1.391 . S
C264 C265 1.399 1_556 S
C265 C264 1.399 1_554 S
C265 C266 1.396 . S
C265 C268 1.453 . S
C265 C269 1.684 . S
C266 C247 1.723 . S
C266 C265 1.396 . S
C266 C267 1.394 1_554 S
C267 C263 1.397 . S
C267 C266 1.394 1_556 S
C267 C277 1.723 . S
C268 C265 1.453 . S
C268 H292 0.982 . S
C268 H293 0.979 . S
C268 H294 0.977 . S
C269 C265 1.684 . S
C269 H295 0.979 . S
C269 H296 0.980 . S
C269 H297 0.983 . S
C270 H246 0.948 . S
C270 C271 1.391 . S
C270 C275 1.391 . S
C271 C270 1.391 . S
C271 C272 1.391 . S
C272 H249 0.947 1_556 S
C272 C271 1.391 . S
C272 C273 1.392 1_556 S
C273 H250 0.948 . S
C273 C272 1.392 1_554 S
C273 C274 1.419 1_554 S
C274 C273 1.419 1_556 S
C274 C275 1.391 . S
C274 C278 1.397 1_556 S
C275 C270 1.391 . S
C275 C274 1.391 . S
C275 C276 1.399 . S
C276 C275 1.399 . S
C276 C277 1.396 . S
C276 C279 1.453 . S
C276 C280 1.684 . S
C277 C267 1.723 . S
C277 C276 1.396 . S
C277 C278 1.394 1_556 S
C278 C248 1.723 . S
C278 C274 1.397 1_554 S
C278 C277 1.394 1_554 S
C279 H251 0.982 . S
C279 H255 0.979 . S
C279 H256 0.977 . S
C279 C276 1.453 . S
C280 H252 0.979 . S
C280 H253 0.980 . S
C280 H254 0.983 . S
C280 C276 1.684 . S
H281 C299 0.948 . S
H282 C240 0.948 . S
H283 C258 0.979 . S
H284 C258 0.980 . S
H285 C258 0.983 . S
H286 C257 0.982 . S
H287 C257 0.979 . S
H288 C257 0.977 . S
H289 C259 0.948 . S
H290 C261 0.947 . S
H291 C262 0.948 . S
H292 C268 0.982 . S
H293 C268 0.979 . S
H294 C268 0.977 . S
H295 C269 0.979 . S
H296 C269 0.980 . S
H297 C269 0.983 . S
H298 C242 0.947 . S
C299 C242 1.392 . S
C299 C243 1.419 . S
C299 H281 0.948 . S
C300 C301 1.391 . S
C300 C304 1.391 . S
C300 H342 0.948 . S
C301 C300 1.391 . S
C301 C302 1.391 . S
C302 C301 1.391 . S
C302 H358 0.947 . S
C302 C359 1.392 . S
C303 C304 1.391 . S
C303 C307 1.397 . S
C303 C359 1.419 . S
C304 C300 1.391 . S
C304 C303 1.391 . S
C304 C305 1.399 . S
C305 C304 1.399 . S
C305 C308 1.396 . S
C305 C317 1.453 . S
C305 C318 1.684 . S
H306 C330 0.948 . S
C307 C303 1.397 . S
C307 C308 1.394 . S
C307 C326 1.723 . S
C308 C305 1.396 . S
C308 C307 1.394 . S
C308 C338 1.723 . S
H309 C332 0.947 . S
H310 C333 0.948 . S
H311 C339 0.982 . S
H312 C340 0.979 . S
H313 C340 0.980 . S
H314 C340 0.983 . S
H315 C339 0.979 . S
H316 C339 0.977 . S
C317 C305 1.453 . S
C317 H346 0.982 . S
C317 H347 0.979 . S
C317 H348 0.977 . S
C318 C305 1.684 . S
C318 H343 0.979 . S
C318 H344 0.980 . S
C318 H345 0.983 . S
C319 C320 1.391 . S
C319 C324 1.391 . S
C319 H349 0.948 . S
C320 C319 1.391 . S
C320 C321 1.391 . S
C321 C320 1.391 . S
C321 C322 1.392 . S
C321 H350 0.947 . S
C322 C321 1.392 . S
C322 C323 1.419 . S
C322 H351 0.948 . S
C323 C322 1.419 . S
C323 C324 1.391 . S
C323 C327 1.397 . S
C324 C319 1.391 . S
C324 C323 1.391 . S
C324 C325 1.399 . S
C325 C324 1.399 . S
C325 C326 1.396 . S
C325 C328 1.453 . S
C325 C329 1.684 . S
C326 C307 1.723 . S
C326 C325 1.396 . S
C326 C327 1.394 . S
C327 C323 1.397 . S
C327 C326 1.394 . S
C327 C337 1.723 . S
C328 C325 1.453 . S
C328 H352 0.982 . S
C328 H353 0.979 . S
C328 H354 0.977 . S
C329 C325 1.684 . S
C329 H355 0.979 . S
C329 H356 0.980 . S
C329 H357 0.983 . S
C330 H306 0.948 . S
C330 C331 1.391 . S
C330 C335 1.391 . S
C331 C330 1.391 . S
C331 C332 1.391 . S
C332 H309 0.947 . S
C332 C331 1.391 . S
C332 C333 1.392 . S
C333 H310 0.948 . S
C333 C332 1.392 . S
C333 C334 1.419 . S
C334 C333 1.419 . S
C334 C335 1.391 . S
C334 C338 1.397 . S
C335 C330 1.391 . S
C335 C334 1.391 . S
C335 C336 1.399 . S
C336 C335 1.399 . S
C336 C337 1.396 . S
C336 C339 1.453 . S
C336 C340 1.684 . S
C337 C327 1.723 . S
C337 C336 1.396 . S
C337 C338 1.394 . S
C338 C308 1.723 . S
C338 C334 1.397 . S
C338 C337 1.394 . S
C339 H311 0.982 . S
C339 H315 0.979 . S
C339 H316 0.977 . S
C339 C336 1.453 . S
C340 H312 0.979 . S
C340 H313 0.980 . S
C340 H314 0.983 . S
C340 C336 1.684 . S
H341 C359 0.948 . S
H342 C300 0.948 . S
H343 C318 0.979 . S
H344 C318 0.980 . S
H345 C318 0.983 . S
H346 C317 0.982 . S
H347 C317 0.979 . S
H348 C317 0.977 . S
H349 C319 0.948 . S
H350 C321 0.947 . S
H351 C322 0.948 . S
H352 C328 0.982 . S
H353 C328 0.979 . S
H354 C328 0.977 . S
H355 C329 0.979 . S
H356 C329 0.980 . S
H357 C329 0.983 . S
H358 C302 0.947 . S
C359 C302 1.392 . S
C359 C303 1.419 . S
C359 H341 0.948 . S
C360 C361 1.391 . S
C360 C364 1.391 . S
C360 H402 0.948 . S
C361 C360 1.391 . S
C361 C362 1.391 . S
C362 C361 1.391 . S
C362 H418 0.947 . S
C362 C419 1.392 . S
C363 C364 1.391 . S
C363 C367 1.397 . S
C363 C419 1.419 . S
C364 C360 1.391 . S
C364 C363 1.391 . S
C364 C365 1.399 . S
C365 C364 1.399 . S
C365 C368 1.396 . S
C365 C377 1.453 . S
C365 C378 1.684 . S
H366 C390 0.948 . S
C367 C363 1.397 . S
C367 C368 1.394 . S
C367 C386 1.723 1_556 S
C368 C365 1.396 . S
C368 C367 1.394 . S
C368 C398 1.723 . S
H369 C392 0.947 . S
H370 C393 0.948 . S
H371 C399 0.982 . S
H372 C400 0.979 . S
H373 C400 0.980 . S
H374 C400 0.983 . S
H375 C399 0.979 . S
H376 C399 0.977 . S
C377 C365 1.453 . S
C377 H406 0.982 . S
C377 H407 0.979 . S
C377 H408 0.977 . S
C378 C365 1.684 . S
C378 H403 0.979 . S
C378 H404 0.980 . S
C378 H405 0.983 . S
C379 C380 1.391 . S
C379 C384 1.391 . S
C379 H409 0.948 . S
C380 C379 1.391 . S
C380 C381 1.391 . S
C381 C380 1.391 . S
C381 C382 1.392 . S
C381 H410 0.947 . S
C382 C381 1.392 . S
C382 C383 1.419 . S
C382 H411 0.948 . S
C383 C382 1.419 . S
C383 C384 1.391 . S
C383 C387 1.397 . S
C384 C379 1.391 . S
C384 C383 1.391 . S
C384 C385 1.399 . S
C385 C384 1.399 . S
C385 C386 1.396 . S
C385 C388 1.453 . S
C385 C389 1.684 . S
C386 C367 1.723 1_554 S
C386 C385 1.396 . S
C386 C387 1.394 . S
C387 C383 1.397 . S
C387 C386 1.394 . S
C387 C397 1.723 . S
C388 C385 1.453 . S
C388 H412 0.982 . S
C388 H413 0.979 . S
C388 H414 0.977 . S
C389 C385 1.684 . S
C389 H415 0.979 . S
C389 H416 0.980 . S
C389 H417 0.983 . S
C390 H366 0.948 . S
C390 C391 1.391 . S
C390 C395 1.391 . S
C391 C390 1.391 . S
C391 C392 1.391 . S
C392 H369 0.947 . S
C392 C391 1.391 . S
C392 C393 1.392 . S
C393 H370 0.948 . S
C393 C392 1.392 . S
C393 C394 1.419 . S
C394 C393 1.419 . S
C394 C395 1.391 . S
C394 C398 1.397 . S
C395 C390 1.391 . S
C395 C394 1.391 . S
C395 C396 1.399 1_556 S
C396 C395 1.399 1_554 S
C396 C397 1.396 . S
C396 C399 1.453 . S
C396 C400 1.684 . S
C397 C387 1.723 . S
C397 C396 1.396 . S
C397 C398 1.394 1_554 S
C398 C368 1.723 . S
C398 C394 1.397 . S
C398 C397 1.394 1_556 S
C399 H371 0.982 . S
C399 H375 0.979 . S
C399 H376 0.977 . S
C399 C396 1.453 . S
C400 H372 0.979 . S
C400 H373 0.980 . S
C400 H374 0.983 . S
C400 C396 1.684 . S
H401 C419 0.948 1_554 S
H402 C360 0.948 . S
H403 C378 0.979 . S
H404 C378 0.980 . S
H405 C378 0.983 . S
H406 C377 0.982 . S
H407 C377 0.979 . S
H408 C377 0.977 . S
H409 C379 0.948 . S
H410 C381 0.947 . S
H411 C382 0.948 . S
H412 C388 0.982 . S
H413 C388 0.979 . S
H414 C388 0.977 . S
H415 C389 0.979 . S
H416 C389 0.980 . S
H417 C389 0.983 . S
H418 C362 0.947 . S
C419 C362 1.392 . S
C419 C363 1.419 . S
C419 H401 0.948 1_556 S
C420 C421 1.391 . S
C420 C424 1.391 . S
C420 H462 0.948 . S
C421 C420 1.391 . S
C421 C422 1.391 . S
C422 C421 1.391 . S
C422 H478 0.947 . S
C422 C479 1.392 . S
C423 C424 1.391 . S
C423 C427 1.397 . S
C423 C479 1.419 . S
C424 C420 1.391 . S
C424 C423 1.391 . S
C424 C425 1.399 . S
C425 C424 1.399 . S
C425 C428 1.396 . S
C425 C437 1.453 . S
C425 C438 1.684 . S
H426 C450 0.948 . S
C427 C423 1.397 . S
C427 C428 1.394 . S
C427 C446 1.723 . S
C428 C425 1.396 . S
C428 C427 1.394 . S
C428 C458 1.723 . S
H429 C452 0.947 . S
H430 C453 0.948 . S
H431 C459 0.982 . S
H432 C460 0.979 . S
H433 C460 0.980 . S
H434 C460 0.983 . S
H435 C459 0.979 . S
H436 C459 0.977 . S
C437 C425 1.453 . S
C437 H466 0.982 . S
C437 H467 0.979 . S
C437 H468 0.977 . S
C438 C425 1.684 . S
C438 H463 0.979 . S
C438 H464 0.980 . S
C438 H465 0.983 . S
C439 C440 1.391 . S
C439 C444 1.391 . S
C439 H469 0.948 . S
C440 C439 1.391 . S
C440 C441 1.391 . S
C441 C440 1.391 . S
C441 C442 1.392 . S
C441 H470 0.947 . S
C442 C441 1.392 . S
C442 C443 1.419 . S
C442 H471 0.948 . S
C443 C442 1.419 . S
C443 C444 1.391 . S
C443 C447 1.397 . S
C444 C439 1.391 . S
C444 C443 1.391 . S
C444 C445 1.399 . S
C445 C444 1.399 . S
C445 C446 1.396 . S
C445 C448 1.453 . S
C445 C449 1.684 . S
C446 C427 1.723 . S
C446 C445 1.396 . S
C446 C447 1.394 . S
C447 C443 1.397 . S
C447 C446 1.394 . S
C447 C457 1.723 . S
C448 C445 1.453 . S
C448 H472 0.982 . S
C448 H473 0.979 . S
C448 H474 0.977 . S
C449 C445 1.684 . S
C449 H475 0.979 . S
C449 H476 0.980 . S
C449 H477 0.983 . S
C450 H426 0.948 . S
C450 C451 1.391 . S
C450 C455 1.391 . S
C451 C450 1.391 . S
C451 C452 1.391 . S
C452 H429 0.947 . S
C452 C451 1.391 . S
C452 C453 1.392 . S
C453 H430 0.948 . S
C453 C452 1.392 . S
C453 C454 1.419 . S
C454 C453 1.419 . S
C454 C455 1.391 . S
C454 C458 1.397 . S
C455 C450 1.391 . S
C455 C454 1.391 . S
C455 C456 1.399 . S
C456 C455 1.399 . S
C456 C457 1.396 . S
C456 C459 1.453 . S
C456 C460 1.684 . S
C457 C447 1.723 . S
C457 C456 1.396 . S
C457 C458 1.394 . S
C458 C428 1.723 . S
C458 C454 1.397 . S
C458 C457 1.394 . S
C459 H431 0.982 . S
C459 H435 0.979 . S
C459 H436 0.977 . S
C459 C456 1.453 . S
C460 H432 0.979 . S
C460 H433 0.980 . S
C460 H434 0.983 . S
C460 C456 1.684 . S
H461 C479 0.948 . S
H462 C420 0.948 . S
H463 C438 0.979 . S
H464 C438 0.980 . S
H465 C438 0.983 . S
H466 C437 0.982 . S
H467 C437 0.979 . S
H468 C437 0.977 . S
H469 C439 0.948 . S
H470 C441 0.947 . S
H471 C442 0.948 . S
H472 C448 0.982 . S
H473 C448 0.979 . S
H474 C448 0.977 . S
H475 C449 0.979 . S
H476 C449 0.980 . S
H477 C449 0.983 . S
H478 C422 0.947 . S
C479 C422 1.392 . S
C479 C423 1.419 . S
C479 H461 0.948 . S
Fe480 O482 1.918 . S
Fe480 O485 1.997 1_455 S
Fe480 O486 2.002 1_455 S
Fe480 O491 1.976 . S
Fe480 O494 1.996 . S
Fe481 O482 1.918 . S
Fe481 O489 1.997 1_455 S
Fe481 O492 1.996 . S
Fe481 O496 1.976 . S
Fe481 O499 2.002 1_455 S
O482 Fe480 1.918 . S
O482 Fe481 1.918 . S
O482 Fe483 1.918 . S
Fe483 O482 1.918 . S
Fe483 O484 2.002 1_455 S
Fe483 O493 1.976 . S
Fe483 O497 1.996 . S
Fe483 O500 1.997 1_455 S
O484 Fe483 2.002 1_655 S
O484 C501 1.295 . S
O485 Fe480 1.997 1_655 S
O485 C501 1.235 . S
O486 Fe480 2.002 1_655 S
O486 C487 1.295 . S
C487 O486 1.295 . S
C487 O489 1.235 . S
C488 O493 1.287 . S
C488 O494 1.255 . S
O489 Fe481 1.997 1_655 S
O489 C487 1.235 . S
C490 O496 1.287 . S
C490 O497 1.255 . S
O491 Fe480 1.976 . S
O491 C498 1.287 . S
O492 Fe481 1.996 . S
O492 C498 1.255 . S
O493 Fe483 1.976 . S
O493 C488 1.287 . S
O494 Fe480 1.996 . S
O494 C488 1.255 . S
C495 O499 1.295 . S
C495 O500 1.235 . S
O496 Fe481 1.976 . S
O496 C490 1.287 . S
O497 Fe483 1.996 . S
O497 C490 1.255 . S
C498 O491 1.287 . S
C498 O492 1.255 . S
O499 Fe481 2.002 1_655 S
O499 C495 1.295 . S
O500 Fe483 1.997 1_655 S
O500 C495 1.235 . S
C501 O484 1.295 . S
C501 O485 1.235 . S
Fe502 O504 1.919 . S
Fe502 O507 1.976 1_655 S
Fe502 O508 1.981 1_655 S
Fe502 O513 1.997 . S
Fe502 O516 2.016 . S
Fe503 O504 1.919 . S
Fe503 O511 1.976 1_655 S
Fe503 O514 2.016 . S
Fe503 O518 1.997 . S
Fe503 O521 1.981 1_655 S
O504 Fe502 1.919 . S
O504 Fe503 1.919 . S
O504 Fe505 1.919 . S
Fe505 O504 1.919 . S
Fe505 O506 1.982 1_655 S
Fe505 O515 1.996 . S
Fe505 O519 2.016 . S
Fe505 O522 1.976 1_655 S
O506 Fe505 1.982 1_455 S
O506 C523 1.295 . S
O507 Fe502 1.976 1_455 S
O507 C523 1.235 . S
O508 Fe502 1.981 1_455 S
O508 C509 1.295 . S
C509 O508 1.295 . S
C509 O511 1.235 . S
C510 O515 1.287 . S
C510 O516 1.255 . S
O511 Fe503 1.976 1_455 S
O511 C509 1.235 . S
C512 O518 1.287 . S
C512 O519 1.255 . S
O513 Fe502 1.997 . S
O513 C520 1.287 . S
O514 Fe503 2.016 . S
O514 C520 1.255 . S
O515 Fe505 1.996 . S
O515 C510 1.287 . S
O516 Fe502 2.016 . S
O516 C510 1.255 . S
C517 O521 1.295 . S
C517 O522 1.235 . S
O518 Fe503 1.997 . S
O518 C512 1.287 . S
O519 Fe505 2.016 . S
O519 C512 1.255 . S
C520 O513 1.287 . S
C520 O514 1.255 . S
O521 Fe503 1.981 1_455 S
O521 C517 1.295 . S
O522 Fe505 1.976 1_455 S
O522 C517 1.235 . S
C523 O506 1.295 . S
C523 O507 1.235 . S
Fe524 O526 1.918 . S
Fe524 O529 1.997 . S
Fe524 O530 2.002 . S
Fe524 O535 1.976 . S
Fe524 O538 1.996 . S
Fe525 O526 1.918 . S
Fe525 O533 1.997 . S
Fe525 O536 1.996 . S
Fe525 O540 1.976 . S
Fe525 O543 2.002 . S
O526 Fe524 1.918 . S
O526 Fe525 1.918 . S
O526 Fe527 1.918 . S
Fe527 O526 1.918 . S
Fe527 O528 2.002 . S
Fe527 O537 1.976 . S
Fe527 O541 1.996 . S
Fe527 O544 1.997 . S
O528 Fe527 2.002 . S
O528 C545 1.295 . S
O529 Fe524 1.997 . S
O529 C545 1.235 . S
O530 Fe524 2.002 . S
O530 C531 1.295 . S
C531 O530 1.295 . S
C531 O533 1.235 . S
C532 O537 1.287 . S
C532 O538 1.255 . S
O533 Fe525 1.997 . S
O533 C531 1.235 . S
C534 O540 1.287 . S
C534 O541 1.255 . S
O535 Fe524 1.976 . S
O535 C542 1.287 . S
O536 Fe525 1.996 . S
O536 C542 1.255 . S
O537 Fe527 1.976 . S
O537 C532 1.287 . S
O538 Fe524 1.996 . S
O538 C532 1.255 . S
C539 O543 1.295 . S
C539 O544 1.235 . S
O540 Fe525 1.976 . S
O540 C534 1.287 . S
O541 Fe527 1.996 . S
O541 C534 1.255 . S
C542 O535 1.287 . S
C542 O536 1.255 . S
O543 Fe525 2.002 . S
O543 C539 1.295 . S
O544 Fe527 1.997 . S
O544 C539 1.235 . S
C545 O528 1.295 . S
C545 O529 1.235 . S
Fe546 O548 1.918 . S
Fe546 O551 1.997 . S
Fe546 O552 2.002 . S
Fe546 O557 1.976 . S
Fe546 O560 1.996 . S
Fe547 O548 1.918 . S
Fe547 O555 1.997 . S
Fe547 O558 1.996 . S
Fe547 O562 1.976 . S
Fe547 O565 2.002 . S
O548 Fe546 1.918 . S
O548 Fe547 1.918 . S
O548 Fe549 1.918 . S
Fe549 O548 1.918 . S
Fe549 O550 2.002 . S
Fe549 O559 1.976 . S
Fe549 O563 1.996 . S
Fe549 O566 1.997 . S
O550 Fe549 2.002 . S
O550 C567 1.295 . S
O551 Fe546 1.997 . S
O551 C567 1.235 . S
O552 Fe546 2.002 . S
O552 C553 1.295 . S
C553 O552 1.295 . S
C553 O555 1.235 . S
C554 O559 1.287 . S
C554 O560 1.255 . S
O555 Fe547 1.997 . S
O555 C553 1.235 . S
C556 O562 1.287 . S
C556 O563 1.255 . S
O557 Fe546 1.976 . S
O557 C564 1.287 . S
O558 Fe547 1.996 . S
O558 C564 1.255 . S
O559 Fe549 1.976 . S
O559 C554 1.287 . S
O560 Fe546 1.996 . S
O560 C554 1.255 . S
C561 O565 1.295 . S
C561 O566 1.235 . S
O562 Fe547 1.976 . S
O562 C556 1.287 . S
O563 Fe549 1.996 . S
O563 C556 1.255 . S
C564 O557 1.287 . S
C564 O558 1.255 . S
O565 Fe547 2.002 . S
O565 C561 1.295 . S
O566 Fe549 1.997 . S
O566 C561 1.235 . S
C567 O550 1.295 . S
C567 O551 1.235 . S
H568 C574 0.930 . S
H569 C578 0.930 . S
H570 C583 0.929 . S
H571 C581 0.929 . S
H572 C576 0.929 . S
H573 C582 0.929 . S
C574 H568 0.930 . S
C574 C575 1.367 . S
C574 C582 1.378 . S
C575 C574 1.367 . S
C575 C583 1.433 . S
C576 H572 0.929 . S
C576 C578 1.378 . S
C576 C580 1.350 . S
C577 C580 1.463 . S
C577 C582 1.350 . S
C577 N585 1.427 . S
C578 H569 0.930 . S
C578 C576 1.378 . S
C578 C579 1.367 . S
C579 C578 1.367 . S
C579 C581 1.433 . S
C580 C576 1.350 . S
C580 C577 1.463 . S
C580 N584 1.427 . S
C581 H571 0.929 . S
C581 C579 1.433 . S
C581 N584 1.384 . S
C582 H573 0.929 . S
C582 C574 1.378 . S
C582 C577 1.350 . S
C583 H570 0.929 . S
C583 C575 1.433 . S
C583 N585 1.384 . S
N584 C580 1.427 . S
N584 C581 1.384 . S
N585 C577 1.427 . S
N585 C583 1.384 . S
H586 C592 0.930 . S
H587 C596 0.930 . S
H588 C601 0.929 . S
H589 C599 0.929 . S
H590 C594 0.929 . S
H591 C600 0.929 . S
C592 H586 0.930 . S
C592 C593 1.367 . S
C592 C600 1.378 . S
C593 C592 1.367 . S
C593 C601 1.433 . S
C594 H590 0.929 . S
C594 C596 1.378 . S
C594 C598 1.350 . S
C595 C598 1.463 . S
C595 C600 1.350 . S
C595 N603 1.427 . S
C596 H587 0.930 . S
C596 C594 1.378 . S
C596 C597 1.367 . S
C597 C596 1.367 . S
C597 C599 1.433 . S
C598 C594 1.350 . S
C598 C595 1.463 . S
C598 N602 1.427 . S
C599 H589 0.929 . S
C599 C597 1.433 . S
C599 N602 1.384 . S
C600 H591 0.929 . S
C600 C592 1.378 . S
C600 C595 1.350 . S
C601 H588 0.929 . S
C601 C593 1.433 . S
C601 N603 1.384 . S
N602 C598 1.427 . S
N602 C599 1.384 . S
N603 C595 1.427 . S
N603 C601 1.384 . S
H604 C610 0.930 . S
H605 C614 0.930 . S
H606 C619 0.929 . S
H607 C617 0.929 . S
H608 C612 0.929 . S
H609 C618 0.929 . S
C610 H604 0.930 . S
C610 C611 1.367 . S
C610 C618 1.378 . S
C611 C610 1.367 . S
C611 C619 1.433 . S
C612 H608 0.929 . S
C612 C614 1.378 . S
C612 C616 1.350 . S
C613 C616 1.463 . S
C613 C618 1.350 . S
C613 N621 1.427 . S
C614 H605 0.930 . S
C614 C612 1.378 . S
C614 C615 1.367 . S
C615 C614 1.367 . S
C615 C617 1.433 . S
C616 C612 1.350 . S
C616 C613 1.463 . S
C616 N620 1.427 . S
C617 H607 0.929 . S
C617 C615 1.433 . S
C617 N620 1.384 . S
C618 H609 0.929 . S
C618 C610 1.378 . S
C618 C613 1.350 . S
C619 H606 0.929 . S
C619 C611 1.433 . S
C619 N621 1.384 . S
N620 C616 1.427 . S
N620 C617 1.384 . S
N621 C613 1.427 . S
N621 C619 1.384 . S
H622 C628 0.930 . S
H623 C632 0.930 . S
H624 C637 0.929 . S
H625 C635 0.929 . S
H626 C630 0.929 . S
H627 C636 0.929 . S
C628 H622 0.930 . S
C628 C629 1.367 . S
C628 C636 1.378 . S
C629 C628 1.367 . S
C629 C637 1.433 . S
C630 H626 0.929 . S
C630 C632 1.378 . S
C630 C634 1.350 . S
C631 C634 1.463 . S
C631 C636 1.350 . S
C631 N639 1.427 . S
C632 H623 0.930 . S
C632 C630 1.378 . S
C632 C633 1.367 . S
C633 C632 1.367 . S
C633 C635 1.433 . S
C634 C630 1.350 . S
C634 C631 1.463 . S
C634 N638 1.427 . S
C635 H625 0.929 . S
C635 C633 1.433 . S
C635 N638 1.384 . S
C636 H627 0.929 . S
C636 C628 1.378 . S
C636 C631 1.350 . S
C637 H624 0.929 . S
C637 C629 1.433 . S
C637 N639 1.384 . S
N638 C634 1.427 . S
N638 C635 1.384 . S
N639 C631 1.427 . S
N639 C637 1.384 . S
H640 C646 0.930 . S
H641 C650 0.930 . S
H642 C655 0.929 . S
H643 C653 0.929 . S
H644 C648 0.929 . S
H645 C654 0.929 . S
C646 H640 0.930 . S
C646 C647 1.367 . S
C646 C654 1.378 . S
C647 C646 1.367 . S
C647 C655 1.433 . S
C648 H644 0.929 . S
C648 C650 1.378 . S
C648 C652 1.350 . S
C649 C652 1.463 . S
C649 C654 1.350 . S
C649 N657 1.427 . S
C650 H641 0.930 . S
C650 C648 1.378 . S
C650 C651 1.367 . S
C651 C650 1.367 . S
C651 C653 1.433 . S
C652 C648 1.350 . S
C652 C649 1.463 . S
C652 N656 1.427 . S
C653 H643 0.929 . S
C653 C651 1.433 . S
C653 N656 1.384 . S
C654 H645 0.929 . S
C654 C646 1.378 . S
C654 C649 1.350 . S
C655 H642 0.929 . S
C655 C647 1.433 . S
C655 N657 1.384 . S
N656 C652 1.427 . S
N656 C653 1.384 . S
N657 C649 1.427 . S
N657 C655 1.384 . S
H658 C664 0.930 . S
H659 C668 0.930 . S
H660 C673 0.929 . S
H661 C671 0.929 . S
H662 C666 0.929 . S
H663 C672 0.929 . S
C664 H658 0.930 . S
C664 C665 1.367 . S
C664 C672 1.378 . S
C665 C664 1.367 . S
C665 C673 1.433 . S
C666 H662 0.929 . S
C666 C668 1.378 . S
C666 C670 1.350 . S
C667 C670 1.463 . S
C667 C672 1.350 . S
C667 N675 1.427 . S
C668 H659 0.930 . S
C668 C666 1.378 . S
C668 C669 1.367 . S
C669 C668 1.367 . S
C669 C671 1.433 . S
C670 C666 1.350 . S
C670 C667 1.463 . S
C670 N674 1.427 . S
C671 H661 0.929 . S
C671 C669 1.433 . S
C671 N674 1.384 . S
C672 H663 0.929 . S
C672 C664 1.378 . S
C672 C667 1.350 . S
C673 H660 0.929 . S
C673 C665 1.433 . S
C673 N675 1.384 . S
N674 C670 1.427 . S
N674 C671 1.384 . S
N675 C667 1.427 . S
N675 C673 1.384 . S
H676 C682 0.930 . S
H677 C686 0.930 . S
H678 C691 0.929 . S
H679 C689 0.929 . S
H680 C684 0.929 . S
H681 C690 0.929 . S
C682 H676 0.930 . S
C682 C683 1.367 . S
C682 C690 1.378 . S
C683 C682 1.367 . S
C683 C691 1.433 . S
C684 H680 0.929 . S
C684 C686 1.378 . S
C684 C688 1.350 . S
C685 C688 1.463 . S
C685 C690 1.350 . S
C685 N693 1.427 . S
C686 H677 0.930 . S
C686 C684 1.378 . S
C686 C687 1.367 . S
C687 C686 1.367 . S
C687 C689 1.433 . S
C688 C684 1.350 . S
C688 C685 1.463 . S
C688 N692 1.427 . S
C689 H679 0.929 . S
C689 C687 1.433 . S
C689 N692 1.384 . S
C690 H681 0.929 . S
C690 C682 1.378 . S
C690 C685 1.350 . S
C691 H678 0.929 . S
C691 C683 1.433 . S
C691 N693 1.384 . S
N692 C688 1.427 . S
N692 C689 1.384 . S
N693 C685 1.427 . S
N693 C691 1.384 . S
H694 C700 0.930 . S
H695 C704 0.930 . S
H696 C709 0.929 . S
H697 C707 0.929 . S
H698 C702 0.929 . S
H699 C708 0.929 . S
C700 H694 0.930 . S
C700 C701 1.367 . S
C700 C708 1.378 . S
C701 C700 1.367 . S
C701 C709 1.433 . S
C702 H698 0.929 . S
C702 C704 1.378 . S
C702 C706 1.350 . S
C703 C706 1.463 . S
C703 C708 1.350 . S
C703 N711 1.427 . S
C704 H695 0.930 . S
C704 C702 1.378 . S
C704 C705 1.367 . S
C705 C704 1.367 . S
C705 C707 1.433 . S
C706 C702 1.350 . S
C706 C703 1.463 . S
C706 N710 1.427 . S
C707 H697 0.929 . S
C707 C705 1.433 . S
C707 N710 1.384 . S
C708 H699 0.929 . S
C708 C700 1.378 . S
C708 C703 1.350 . S
C709 H696 0.929 . S
C709 C701 1.433 . S
C709 N711 1.384 . S
N710 C706 1.427 . S
N710 C707 1.384 . S
N711 C703 1.427 . S
N711 C709 1.384 . S
H712 C718 0.930 . S
H713 C722 0.930 . S
H714 C727 0.929 . S
H715 C725 0.929 . S
H716 C720 0.929 . S
H717 C726 0.929 . S
C718 H712 0.930 . S
C718 C719 1.367 . S
C718 C726 1.378 . S
C719 C718 1.367 . S
C719 C727 1.433 . S
C720 H716 0.929 . S
C720 C722 1.378 . S
C720 C724 1.350 . S
C721 C724 1.463 . S
C721 C726 1.350 . S
C721 N729 1.427 . S
C722 H713 0.930 . S
C722 C720 1.378 . S
C722 C723 1.367 . S
C723 C722 1.367 . S
C723 C725 1.433 . S
C724 C720 1.350 . S
C724 C721 1.463 . S
C724 N728 1.427 . S
C725 H715 0.929 . S
C725 C723 1.433 . S
C725 N728 1.384 . S
C726 H717 0.929 . S
C726 C718 1.378 . S
C726 C721 1.350 . S
C727 H714 0.929 . S
C727 C719 1.433 . S
C727 N729 1.384 . S
N728 C724 1.427 . S
N728 C725 1.384 . S
N729 C721 1.427 . S
N729 C727 1.384 . S
H730 C736 0.930 . S
H731 C740 0.930 . S
H732 C745 0.929 . S
H733 C743 0.929 . S
H734 C738 0.929 . S
H735 C744 0.929 . S
C736 H730 0.930 . S
C736 C737 1.367 . S
C736 C744 1.378 . S
C737 C736 1.367 . S
C737 C745 1.433 . S
C738 H734 0.929 . S
C738 C740 1.378 . S
C738 C742 1.350 . S
C739 C742 1.463 . S
C739 C744 1.350 . S
C739 N747 1.427 . S
C740 H731 0.930 . S
C740 C738 1.378 . S
C740 C741 1.367 . S
C741 C740 1.367 . S
C741 C743 1.433 . S
C742 C738 1.350 . S
C742 C739 1.463 . S
C742 N746 1.427 . S
C743 H733 0.929 . S
C743 C741 1.433 . S
C743 N746 1.384 . S
C744 H735 0.929 . S
C744 C736 1.378 . S
C744 C739 1.350 . S
C745 H732 0.929 . S
C745 C737 1.433 . S
C745 N747 1.384 . S
N746 C742 1.427 . S
N746 C743 1.384 . S
N747 C739 1.427 . S
N747 C745 1.384 . S
H748 C754 0.930 . S
H749 C758 0.930 . S
H750 C763 0.929 . S
H751 C761 0.929 . S
H752 C756 0.929 . S
H753 C762 0.929 . S
C754 H748 0.930 . S
C754 C755 1.367 . S
C754 C762 1.378 . S
C755 C754 1.367 . S
C755 C763 1.433 . S
C756 H752 0.929 . S
C756 C758 1.378 . S
C756 C760 1.350 . S
C757 C760 1.463 . S
C757 C762 1.350 . S
C757 N765 1.427 . S
C758 H749 0.930 . S
C758 C756 1.378 . S
C758 C759 1.367 . S
C759 C758 1.367 . S
C759 C761 1.433 . S
C760 C756 1.350 . S
C760 C757 1.463 . S
C760 N764 1.427 . S
C761 H751 0.929 . S
C761 C759 1.433 . S
C761 N764 1.384 . S
C762 H753 0.929 . S
C762 C754 1.378 . S
C762 C757 1.350 . S
C763 H750 0.929 . S
C763 C755 1.433 . S
C763 N765 1.384 . S
N764 C760 1.427 . S
N764 C761 1.384 . S
N765 C757 1.427 . S
N765 C763 1.384 . S
H766 C772 0.930 . S
H767 C776 0.930 . S
H768 C781 0.929 . S
H769 C779 0.929 . S
H770 C774 0.929 . S
H771 C780 0.929 . S
C772 H766 0.930 . S
C772 C773 1.367 . S
C772 C780 1.378 . S
C773 C772 1.367 . S
C773 C781 1.433 . S
C774 H770 0.929 . S
C774 C776 1.378 . S
C774 C778 1.350 . S
C775 C778 1.463 . S
C775 C780 1.350 . S
C775 N783 1.427 . S
C776 H767 0.930 . S
C776 C774 1.378 . S
C776 C777 1.367 . S
C777 C776 1.367 . S
C777 C779 1.433 . S
C778 C774 1.350 . S
C778 C775 1.463 . S
C778 N782 1.427 . S
C779 H769 0.929 . S
C779 C777 1.433 . S
C779 N782 1.384 . S
C780 H771 0.929 . S
C780 C772 1.378 . S
C780 C775 1.350 . S
C781 H768 0.929 . S
C781 C773 1.433 . S
C781 N783 1.384 . S
N782 C778 1.427 . S
N782 C779 1.384 . S
N783 C775 1.427 . S
N783 C781 1.384 . S
H784 C790 0.930 1_565 S
H785 C794 0.930 . S
H786 C799 0.929 . S
H787 C797 0.929 . S
H788 C792 0.929 . S
H789 C798 0.929 . S
C790 H784 0.930 1_545 S
C790 C791 1.367 . S
C790 C798 1.378 . S
C791 C790 1.367 . S
C791 C799 1.433 . S
C792 H788 0.929 . S
C792 C794 1.378 . S
C792 C796 1.350 . S
C793 C796 1.463 . S
C793 C798 1.350 . S
C793 N801 1.427 . S
C794 H785 0.930 . S
C794 C792 1.378 . S
C794 C795 1.367 . S
C795 C794 1.367 . S
C795 C797 1.433 . S
C796 C792 1.350 . S
C796 C793 1.463 . S
C796 N800 1.427 . S
C797 H787 0.929 . S
C797 C795 1.433 . S
C797 N800 1.384 . S
C798 H789 0.929 . S
C798 C790 1.378 . S
C798 C793 1.350 . S
C799 H786 0.929 . S
C799 C791 1.433 . S
C799 N801 1.384 . S
N800 C796 1.427 . S
N800 C797 1.384 . S
N801 C793 1.427 . S
N801 C799 1.384 . S
H802 C808 0.930 . S
H803 C812 0.930 . S
H804 C817 0.929 1_545 S
H805 C815 0.929 . S
H806 C810 0.929 . S
H807 C816 0.929 . S
C808 H802 0.930 . S
C808 C809 1.367 . S
C808 C816 1.378 . S
C809 C808 1.367 . S
C809 C817 1.433 . S
C810 H806 0.929 . S
C810 C812 1.378 . S
C810 C814 1.350 . S
C811 C814 1.463 . S
C811 C816 1.350 . S
C811 N819 1.427 . S
C812 H803 0.930 . S
C812 C810 1.378 . S
C812 C813 1.367 . S
C813 C812 1.367 . S
C813 C815 1.433 . S
C814 C810 1.350 . S
C814 C811 1.463 . S
C814 N818 1.427 . S
C815 H805 0.929 . S
C815 C813 1.433 . S
C815 N818 1.384 . S
C816 H807 0.929 . S
C816 C808 1.378 . S
C816 C811 1.350 . S
C817 H804 0.929 1_565 S
C817 C809 1.433 . S
C817 N819 1.384 . S
N818 C814 1.427 . S
N818 C815 1.384 . S
N819 C811 1.427 . S
N819 C817 1.384 . S
H820 C826 0.930 . S
H821 C830 0.930 . S
H822 C835 0.959 . S
H823 C833 0.929 . S
H824 C828 0.929 . S
H825 C834 0.929 . S
C826 H820 0.930 . S
C826 C827 1.367 . S
C826 C834 1.378 . S
C827 C826 1.367 . S
C827 C835 1.422 1_545 S
C828 H824 0.929 . S
C828 C830 1.378 . S
C828 C832 1.350 . S
C829 C832 1.463 . S
C829 C834 1.350 . S
C829 N837 1.427 . S
C830 H821 0.930 . S
C830 C828 1.378 . S
C830 C831 1.367 . S
C831 C830 1.367 . S
C831 C833 1.433 . S
C832 C828 1.350 . S
C832 C829 1.463 . S
C832 N836 1.427 . S
C833 H823 0.929 . S
C833 C831 1.433 . S
C833 N836 1.384 . S
C834 H825 0.929 . S
C834 C826 1.378 . S
C834 C829 1.350 . S
C835 H822 0.959 . S
C835 C827 1.422 1_565 S
C835 N837 1.364 1_565 S
N836 C832 1.427 . S
N836 C833 1.384 . S
N837 C829 1.427 . S
N837 C835 1.364 1_545 S
H838 C844 0.930 1_545 S
H839 C848 0.930 . S
H840 C853 0.929 . S
H841 C851 0.929 . S
H842 C846 0.929 . S
H843 C852 0.929 . S
C844 H838 0.930 1_565 S
C844 C845 1.367 . S
C844 C852 1.378 . S
C845 C844 1.367 . S
C845 C853 1.433 . S
C846 H842 0.929 . S
C846 C848 1.378 . S
C846 C850 1.350 . S
C847 C850 1.463 . S
C847 C852 1.350 . S
C847 N855 1.427 . S
C848 H839 0.930 . S
C848 C846 1.378 . S
C848 C849 1.367 . S
C849 C848 1.367 . S
C849 C851 1.433 . S
C850 C846 1.350 . S
C850 C847 1.463 . S
C850 N854 1.427 . S
C851 H841 0.929 . S
C851 C849 1.433 . S
C851 N854 1.384 . S
C852 H843 0.929 . S
C852 C844 1.378 . S
C852 C847 1.350 . S
C853 H840 0.929 . S
C853 C845 1.433 . S
C853 N855 1.384 . S
N854 C850 1.427 . S
N854 C851 1.384 . S
N855 C847 1.427 . S
N855 C853 1.384 . S
H856 C862 0.930 . S
H857 C866 0.930 . S
H858 C871 0.929 . S
H859 C869 0.929 . S
H860 C864 0.929 . S
H861 C870 0.929 . S
C862 H856 0.930 . S
C862 C863 1.367 . S
C862 C870 1.378 . S
C863 C862 1.367 . S
C863 C871 1.433 . S
C864 H860 0.929 . S
C864 C866 1.378 . S
C864 C868 1.350 . S
C865 C868 1.463 . S
C865 C870 1.350 . S
C865 N873 1.427 . S
C866 H857 0.930 . S
C866 C864 1.378 . S
C866 C867 1.367 . S
C867 C866 1.367 . S
C867 C869 1.433 . S
C868 C864 1.350 . S
C868 C865 1.463 . S
C868 N872 1.427 . S
C869 H859 0.929 . S
C869 C867 1.433 . S
C869 N872 1.384 . S
C870 H861 0.929 . S
C870 C862 1.378 . S
C870 C865 1.350 . S
C871 H858 0.929 . S
C871 C863 1.433 . S
C871 N873 1.384 . S
N872 C868 1.427 . S
N872 C869 1.384 . S
N873 C865 1.427 . S
N873 C871 1.384 . S
H874 C880 0.930 . S
H875 C884 0.930 . S
H876 C889 0.929 . S
H877 C887 0.929 . S
H878 C882 0.929 . S
H879 C888 0.929 . S
C880 H874 0.930 . S
C880 C881 1.367 . S
C880 C888 1.378 . S
C881 C880 1.367 . S
C881 C889 1.433 . S
C882 H878 0.929 . S
C882 C884 1.378 . S
C882 C886 1.350 . S
C883 C886 1.463 . S
C883 C888 1.350 . S
C883 N891 1.427 . S
C884 H875 0.930 . S
C884 C882 1.378 . S
C884 C885 1.367 . S
C885 C884 1.367 . S
C885 C887 1.433 . S
C886 C882 1.350 . S
C886 C883 1.463 . S
C886 N890 1.427 . S
C887 H877 0.929 . S
C887 C885 1.433 . S
C887 N890 1.384 . S
C888 H879 0.929 . S
C888 C880 1.378 . S
C888 C883 1.350 . S
C889 H876 0.929 . S
C889 C881 1.433 . S
C889 N891 1.384 . S
N890 C886 1.427 . S
N890 C887 1.384 . S
N891 C883 1.427 . S
N891 C889 1.384 . S
H892 C898 0.930 . S
H893 C902 0.930 . S
H894 C907 0.929 . S
H895 C905 0.929 . S
H896 C900 0.929 . S
H897 C906 0.929 . S
C898 H892 0.930 . S
C898 C899 1.367 . S
C898 C906 1.378 . S
C899 C898 1.367 . S
C899 C907 1.433 . S
C900 H896 0.929 . S
C900 C902 1.378 . S
C900 C904 1.350 . S
C901 C904 1.463 . S
C901 C906 1.350 . S
C901 N909 1.427 . S
C902 H893 0.930 . S
C902 C900 1.378 . S
C902 C903 1.367 . S
C903 C902 1.367 . S
C903 C905 1.433 . S
C904 C900 1.350 . S
C904 C901 1.463 . S
C904 N908 1.427 . S
C905 H895 0.929 . S
C905 C903 1.433 . S
C905 N908 1.384 . S
C906 H897 0.929 . S
C906 C898 1.378 . S
C906 C901 1.350 . S
C907 H894 0.929 . S
C907 C899 1.433 . S
C907 N909 1.384 . S
N908 C904 1.427 . S
N908 C905 1.384 . S
N909 C901 1.427 . S
N909 C907 1.384 . S
H910 C916 0.930 . S
H911 C920 0.930 . S
H912 C925 0.929 . S
H913 C923 0.929 . S
H914 C918 0.929 . S
H915 C924 0.929 . S
C916 H910 0.930 . S
C916 C917 1.367 . S
C916 C924 1.378 . S
C917 C916 1.367 . S
C917 C925 1.433 . S
C918 H914 0.929 . S
C918 C920 1.378 . S
C918 C922 1.350 . S
C919 C922 1.463 . S
C919 C924 1.350 . S
C919 N927 1.427 . S
C920 H911 0.930 . S
C920 C918 1.378 . S
C920 C921 1.367 . S
C921 C920 1.367 . S
C921 C923 1.433 . S
C922 C918 1.350 . S
C922 C919 1.463 . S
C922 N926 1.427 . S
C923 H913 0.929 . S
C923 C921 1.433 . S
C923 N926 1.384 . S
C924 H915 0.929 . S
C924 C916 1.378 . S
C924 C919 1.350 . S
C925 H912 0.929 . S
C925 C917 1.433 . S
C925 N927 1.384 . S
N926 C922 1.427 . S
N926 C923 1.384 . S
N927 C919 1.427 . S
N927 C925 1.384 . S
H928 C934 0.930 . S
H929 C938 0.930 . S
H930 C943 0.929 . S
H931 C941 0.929 . S
H932 C936 0.929 . S
H933 C942 0.929 . S
C934 H928 0.930 . S
C934 C935 1.367 . S
C934 C942 1.378 . S
C935 C934 1.367 . S
C935 C943 1.433 . S
C936 H932 0.929 . S
C936 C938 1.378 . S
C936 C940 1.350 . S
C937 C940 1.463 . S
C937 C942 1.350 . S
C937 N945 1.427 . S
C938 H929 0.930 . S
C938 C936 1.378 . S
C938 C939 1.367 . S
C939 C938 1.367 . S
C939 C941 1.433 . S
C940 C936 1.350 . S
C940 C937 1.463 . S
C940 N944 1.427 . S
C941 H931 0.929 . S
C941 C939 1.433 . S
C941 N944 1.384 . S
C942 H933 0.929 . S
C942 C934 1.378 . S
C942 C937 1.350 . S
C943 H930 0.929 . S
C943 C935 1.433 . S
C943 N945 1.384 . S
N944 C940 1.427 . S
N944 C941 1.384 . S
N945 C937 1.427 . S
N945 C943 1.384 . S
H946 C952 0.930 . S
H947 C956 0.930 . S
H948 C961 0.929 . S
H949 C959 0.929 . S
H950 C954 0.929 . S
H951 C960 0.929 . S
C952 H946 0.930 . S
C952 C953 1.367 . S
C952 C960 1.378 . S
C953 C952 1.367 . S
C953 C961 1.433 . S
C954 H950 0.929 . S
C954 C956 1.378 . S
C954 C958 1.350 . S
C955 C958 1.463 . S
C955 C960 1.350 . S
C955 N963 1.427 . S
C956 H947 0.930 . S
C956 C954 1.378 . S
C956 C957 1.367 . S
C957 C956 1.367 . S
C957 C959 1.433 . S
C958 C954 1.350 . S
C958 C955 1.463 . S
C958 N962 1.427 . S
C959 H949 0.929 . S
C959 C957 1.433 . S
C959 N962 1.384 . S
C960 H951 0.929 . S
C960 C952 1.378 . S
C960 C955 1.350 . S
C961 H948 0.929 . S
C961 C953 1.433 . S
C961 N963 1.384 . S
N962 C958 1.427 . S
N962 C959 1.384 . S
N963 C955 1.427 . S
N963 C961 1.384 . S
H964 C970 0.930 . S
H965 C974 0.930 . S
H966 C979 0.929 . S
H967 C977 0.929 . S
H968 C972 0.929 . S
H969 C978 0.929 . S
C970 H964 0.930 . S
C970 C971 1.367 . S
C970 C978 1.378 . S
C971 C970 1.367 . S
C971 C979 1.433 . S
C972 H968 0.929 . S
C972 C974 1.378 . S
C972 C976 1.350 . S
C973 C976 1.463 . S
C973 C978 1.350 . S
C973 N981 1.427 . S
C974 H965 0.930 . S
C974 C972 1.378 . S
C974 C975 1.367 . S
C975 C974 1.367 . S
C975 C977 1.433 . S
C976 C972 1.350 . S
C976 C973 1.463 . S
C976 N980 1.427 . S
C977 H967 0.929 . S
C977 C975 1.433 . S
C977 N980 1.384 . S
C978 H969 0.929 . S
C978 C970 1.378 . S
C978 C973 1.350 . S
C979 H966 0.929 . S
C979 C971 1.433 . S
C979 N981 1.384 . S
N980 C976 1.427 . S
N980 C977 1.384 . S
N981 C973 1.427 . S
N981 C979 1.384 . S
H982 C988 0.930 . S
H983 C992 0.930 . S
H984 C997 0.929 . S
H985 C995 0.929 . S
H986 C990 0.929 . S
H987 C996 0.929 . S
C988 H982 0.930 . S
C988 C989 1.367 . S
C988 C996 1.378 . S
C989 C988 1.367 . S
C989 C997 1.433 . S
C990 H986 0.929 . S
C990 C992 1.378 . S
C990 C994 1.350 . S
C991 C994 1.463 . S
C991 C996 1.350 . S
C991 N999 1.427 . S
C992 H983 0.930 . S
C992 C990 1.378 . S
C992 C993 1.367 . S
C993 C992 1.367 . S
C993 C995 1.433 . S
C994 C990 1.350 . S
C994 C991 1.463 . S
C994 N998 1.427 . S
C995 H985 0.929 . S
C995 C993 1.433 . S
C995 N998 1.384 . S
C996 H987 0.929 . S
C996 C988 1.378 . S
C996 C991 1.350 . S
C997 H984 0.929 . S
C997 C989 1.433 . S
C997 N999 1.384 . S
N998 C994 1.427 . S
N998 C995 1.384 . S
N999 C991 1.427 . S
N999 C997 1.384 . S
C575 C31 1.517 . S
C579 C523 1.542 . S
C597 C487 1.534 . S
C593 C61 1.510 . S
C615 C510 1.527 . S
C611 C151 1.478 . S
C633 C498 1.527 . S
C629 C181 1.533 . S
C651 C567 1.539 . S
C647 C271 1.523 . S
C669 C531 1.533 . S
C665 C301 1.515 . S
C683 C391 1.483 . S
C687 C554 1.529 . S
C705 C542 1.531 . S
C701 C421 1.532 . S
C719 C20 1.494 . S
C723 C564 1.531 . S
C741 C534 1.529 . S
C737 C91 1.504 . S
C755 C121 1.460 . S
C759 C553 1.561 . S
C773 C211 1.564 . S
C777 C539 1.561 . S
C795 C520 1.531 . S
C791 C260 1.496 1_545 S
C809 C331 1.502 1_565 S
C813 C490 1.530 . S
C831 C509 1.557 . S
C827 C361 1.475 1_545 S
C849 C495 1.558 . S
C845 C451 1.564 1_565 S
C867 C545 1.534 . S
C863 C1 1.457 . S
C885 C561 1.533 . S
C881 C80 1.451 . S
C899 C140 1.467 . S
C903 C532 1.507 . S
C921 C556 1.507 . S
C917 C200 1.467 . S
C939 C501 1.534 . S
C935 C241 1.449 . S
C953 C320 1.451 . S
C957 C517 1.536 . S
C971 C380 1.465 . S
C975 C488 1.509 . S
C989 C440 1.455 . S
C993 C512 1.510 . S
