# Generated by pormake.
# Topology pts, (4,4)-cn, num edge types: 1
# Building blocks:
#     Node 0, Type 0, BuildingBlock: MUDLON_clean_linker_0, # of connection points: 4
#     Node 1, Type 0, BuildingBlock: MUDLON_clean_linker_0, # of connection points: 4
#     Node 2, Type 1, BuildingBlock: AZAVOO_clean_sbu_0, # of connection points: 4
#     Node 3, Type 1, BuildingBlock: AZAVOO_clean_sbu_0, # of connection points: 4
#     Edge 4, Type (0, 1), BuildingBlock: XUDNAN_clean_linker_2, # of connection points: 2
#     Edge 5, Type (0, 1), BuildingBlock: XUDNAN_clean_linker_2, # of connection points: 2
#     Edge 6, Type (0, 1), BuildingBlock: XUDNAN_clean_linker_2, # of connection points: 2
#     Edge 7, Type (0, 1), BuildingBlock: XUDNAN_clean_linker_2, # of connection points: 2
#     Edge 8, Type (0, 1), BuildingBlock: XUDNAN_clean_linker_2, # of connection points: 2
#     Edge 9, Type (0, 1), BuildingBlock: XUDNAN_clean_linker_2, # of connection points: 2
#     Edge 10, Type (0, 1), BuildingBlock: XUDNAN_clean_linker_2, # of connection points: 2
#     Edge 11, Type (0, 1), BuildingBlock: XUDNAN_clean_linker_2, # of connection points: 2
# Relax obj value: 0.017
# Max RMSD: 0.069
# Mean RMSD: 0.066
data_MOF--net-pts--node1-AZAVOO_clean_sbu_0--node2-MUDLON_clean_linker_0--edge1-XUDNAN_clean_linker_2
_symmetry_space_group_name_H-M    P1
_symmetry_Int_Tables_number       1
_symmetry_cell_setting            triclinic
loop_
_symmetry_equiv_pos_as_xyz
'x, y, z'
_cell_length_a     33.577005
_cell_length_b     34.565406
_cell_length_c     44.374657
_cell_angle_alpha  89.889828
_cell_angle_beta   95.800153
_cell_angle_gamma 89.922213
loop_
_atom_site_label
_atom_site_type_symbol
_atom_site_fract_x
_atom_site_fract_y
_atom_site_fract_z
_atom_type_partial_charge
H0 H 0.71214 0.06744 0.00585 0.0
N1 N 0.66159 0.00484 0.99886 0.0
H2 H 0.76514 0.07672 0.04586 0.0
H3 H 0.67137 0.96702 0.05148 0.0
H4 H 0.7217 0.97875 0.09405 0.0
H5 H 0.7045 0.95012 0.97547 0.0
H6 H 0.74688 0.95701 0.93409 0.0
H7 H 0.65963 0.06588 0.95887 0.0
H8 H 0.70176 0.07298 0.91743 0.0
H9 H 0.63244 0.07746 0.00842 0.0
H10 H 0.59815 0.95913 0.99017 0.0
H11 H 0.56212 0.09498 0.01105 0.0
H12 H 0.52774 0.97633 0.99234 0.0
H13 H 0.34018 0.01324 0.03389 0.0
H14 H 0.30655 0.01548 0.08009 0.0
H15 H 0.33153 0.13782 0.08811 0.0
H16 H 0.36555 0.1352 0.04182 0.0
H17 H 0.36631 0.0003 0.98457 0.0
H18 H 0.32097 0.97701 0.94216 0.0
H19 H 0.27436 0.09277 0.92708 0.0
H20 H 0.31976 0.11585 0.97003 0.0
H21 H 0.42742 0.11663 0.98141 0.0
H22 H 0.49835 0.10113 0.97926 0.0
H23 H 0.48297 0.99588 0.02945 0.0
N24 N 0.37247 0.07488 0.00572 0.0
H25 H 0.41232 0.01134 0.03111 0.0
C26 C 0.68841 0.01554 0.02507 0.0
C27 C 0.71405 0.04767 0.02482 0.0
C28 C 0.74434 0.05335 0.04832 0.0
C29 C 0.74881 0.02815 0.07347 0.0
C30 C 0.72072 0.99799 0.07475 0.0
C31 C 0.69131 0.99151 0.05063 0.0
C32 C 0.6789 0.00729 0.97039 0.0
C33 C 0.70288 0.97656 0.96227 0.0
C34 C 0.72712 0.98062 0.93865 0.0
C35 C 0.72802 0.01573 0.92269 0.0
C36 C 0.70213 0.04577 0.92959 0.0
C37 C 0.67763 0.04156 0.95311 0.0
C38 C 0.62045 0.01686 0.99907 0.0
C39 C 0.60972 0.05532 0.00471 0.0
C40 C 0.56947 0.06529 0.00614 0.0
C41 C 0.53923 0.037 0.00209 0.0
C42 C 0.55022 -0.00129 0.99608 0.0
C43 C 0.59036 0.98886 0.99456 0.0
C44 C 0.3554 0.07425 0.0343 0.0
C45 C 0.33882 0.04049 0.04565 0.0
C46 C 0.31928 0.04186 0.07201 0.0
C47 C 0.31609 0.07689 0.08769 0.0
C48 C 0.33373 0.11031 0.07675 0.0
C49 C 0.3531 0.10893 0.05031 0.0
C50 C 0.34677 0.06011 0.9803 0.0
C51 C 0.34657 0.02079 0.97215 0.0
C52 C 0.32057 0.00747 0.94781 0.0
C53 C 0.29408 0.03304 0.93117 0.0
C54 C 0.29405 0.07223 0.93961 0.0
C55 C 0.32017 0.08555 0.96392 0.0
C56 C 0.41448 0.06537 0.00639 0.0
C57 C 0.43953 0.09036 0.99209 0.0
C58 C 0.48005 0.08151 0.99099 0.0
C59 C 0.4964 0.04719 0.00411 0.0
C60 C 0.47128 0.0223 0.01875 0.0
C61 C 0.43079 0.03126 0.01991 0.0
H62 H 0.93909 0.69882 0.51271 0.0
N63 N 0.98936 0.65134 0.48859 0.0
H64 H 0.95312 0.74151 0.55637 0.0
H65 H 0.06011 0.65544 0.52591 0.0
H66 H 0.07364 0.69607 0.57016 0.0
H67 H 0.05124 0.69776 0.47471 0.0
H68 H 0.05269 0.73725 0.42936 0.0
H69 H 0.93761 0.65003 0.4393 0.0
H70 H 0.93985 0.68761 0.39277 0.0
H71 H 0.94575 0.59056 0.50073 0.0
H72 H 0.06301 0.62299 0.47833 0.0
H73 H 0.96648 0.52286 0.50429 0.0
H74 H 0.08517 0.55592 0.48394 0.0
H75 H 0.0055 0.34273 0.52052 0.0
H76 H 0.99374 0.30351 0.56458 0.0
H77 H 0.11732 0.3184 0.6002 0.0
H78 H 0.12895 0.3575 0.55568 0.0
H79 H 0.12067 0.31756 0.48691 0.0
H80 H 0.10209 0.27429 0.44447 0.0
H81 H 0.99161 0.33811 0.42416 0.0
H82 H 0.0091 0.379 0.468 0.0
H83 H 0.02384 0.41369 0.54114 0.0
H84 H 1.00479 0.48052 0.53558 0.0
H85 H 0.0817 0.49376 0.46376 0.0
N86 N 0.07698 0.37377 0.50794 0.0
H87 H 0.10302 0.42656 0.47075 0.0
C88 C 0.99818 0.67367 0.51595 0.0
C89 C 0.9684 0.69796 0.52537 0.0
C90 C 0.97644 0.72211 0.55048 0.0
C91 C 0.01458 0.72229 0.56689 0.0
C92 C 0.04412 0.69716 0.55785 0.0
C93 C 0.0362 0.67341 0.53254 0.0
C94 C 0.99365 0.67164 0.46068 0.0
C95 C 0.02683 0.69534 0.45696 0.0
C96 C 0.02783 0.71763 0.43071 0.0
C97 C 0.99611 0.71611 0.40739 0.0
C98 C 0.96429 0.69039 0.41051 0.0
C99 C 0.96303 0.66865 0.43696 0.0
C100 C 1.00282 0.61173 0.48968 0.0
C101 C 0.97612 0.58295 0.49685 0.0
C102 C 0.98825 0.54435 0.49917 0.0
C103 C 0.0278 0.53373 0.49488 0.0
C104 C 0.05441 0.56274 0.48713 0.0
C105 C 0.04192 0.60129 0.48422 0.0
C106 C 0.06834 0.35288 0.53478 0.0
C107 C 0.03002 0.33774 0.53786 0.0
C108 C 0.02322 0.31568 0.56323 0.0
C109 C 0.0546 0.30794 0.58587 0.0
C110 C 0.09263 0.32374 0.58303 0.0
C111 C 0.09932 0.3461 0.55774 0.0
C112 C 0.06662 0.35163 0.48063 0.0
C113 C 0.09262 0.32228 0.47306 0.0
C114 C 0.082 0.29778 0.44857 0.0
C115 C 0.0452 0.30248 0.43068 0.0
C116 C 0.01981 0.33296 0.43766 0.0
C117 C 0.03004 0.35684 0.4626 0.0
C118 C 0.06501 0.41421 0.50604 0.0
C119 C 0.03704 0.43038 0.52414 0.0
C120 C 0.02566 0.4691 0.52077 0.0
C121 C 0.04116 0.49272 0.49892 0.0
C122 C 0.06937 0.47675 0.48109 0.0
C123 C 0.08141 0.43817 0.48489 0.0
Mg124 Mg 0.06339 0.00528 0.27064 0.0
O125 O 0.00799 0.00978 0.23537 0.0
O126 O 0.95382 0.99347 0.25829 0.0
Mg127 Mg 0.97328 0.98319 0.30836 0.0
C128 C 0.97034 0.00376 0.23489 0.0
C129 C 0.13413 0.05168 0.24715 0.0
O130 O 0.14083 0.05865 0.27632 0.0
O131 O 0.0463 0.064 0.28965 0.0
O132 O 0.99206 0.04697 0.31205 0.0
O133 O 0.0694 0.941 0.2634 0.0
O134 O 0.03247 0.96757 0.29626 0.0
C135 C 0.01716 0.07237 0.30495 0.0
C136 C 0.04419 0.93697 0.28337 0.0
O137 O 0.10344 0.03213 0.23747 0.0
Mg138 Mg 0.99503 -0.00173 0.7339 0.0
O139 O 0.0559 0.99449 0.76383 0.0
O140 O 0.10246 0.98676 0.73148 0.0
Mg141 Mg 0.07401 0.98794 0.68272 0.0
C142 C 0.09234 0.9897 0.75837 0.0
C143 C 0.93031 0.99741 0.77769 0.0
O144 O 0.92153 0.9676 0.75994 0.0
O145 O 0.00893 0.0608 0.72113 0.0
O146 O 0.05524 0.05088 0.68912 0.0
O147 O 0.98887 0.93324 0.73284 0.0
O148 O 0.01943 0.96739 0.70005 0.0
C149 C 0.03304 0.07349 0.70289 0.0
C150 C 0.00961 0.93411 0.70984 0.0
O151 O 0.9611 0.01746 0.77362 0.0
H152 H 0.24414 0.0427 0.09592 0.0
H153 H 0.33707 0.11547 0.14093 0.0
H154 H 0.29922 0.11934 0.1858 0.0
H155 H 0.1605 0.09077 0.12469 0.0
H156 H 0.13301 0.04668 0.12898 0.0
H157 H 0.16708 0.05017 0.10023 0.0
H158 H 0.20499 0.98933 0.12206 0.0
H159 H 0.1709 0.98551 0.15074 0.0
H160 H 0.22404 0.98823 0.16152 0.0
H161 H 0.25202 0.11367 0.22636 0.0
H162 H 0.19941 0.09854 0.25963 0.0
H163 H 0.13711 0.02984 0.18787 0.0
C164 C 0.2567 0.05923 0.11529 0.0
C165 C 0.29363 0.07878 0.1149 0.0
C166 C 0.30867 0.10059 0.14057 0.0
C167 C 0.28745 0.10285 0.1662 0.0
C168 C 0.25111 0.0833 0.16577 0.0
C169 C 0.23585 0.06193 0.14098 0.0
C170 C 0.19632 0.04336 0.14636 0.0
C171 C 0.16222 0.05867 0.12372 0.0
C172 C 0.19926 -0.00102 0.14511 0.0
C173 C 0.1919 0.05731 0.17819 0.0
C174 C 0.22377 0.08038 0.18897 0.0
C175 C 0.22682 0.0958 0.2181 0.0
C176 C 0.19676 0.08705 0.23683 0.0
C177 C 0.16401 0.06314 0.22637 0.0
C178 C 0.16151 0.04851 0.1965 0.0
H179 H 0.10281 0.24822 0.60681 0.0
H180 H 0.9913 0.30572 0.62062 0.0
H181 H 0.97768 0.25584 0.65834 0.0
H182 H 0.06639 0.15587 0.60709 0.0
H183 H 0.11082 0.13411 0.6262 0.0
H184 H 0.11472 0.17754 0.60441 0.0
H185 H 0.15087 0.21183 0.65137 0.0
H186 H 0.14716 0.16832 0.67337 0.0
H187 H 0.12752 0.21327 0.6862 0.0
H188 H 0.97303 0.19545 0.69034 0.0
H189 H 0.97624 0.12897 0.71135 0.0
H190 H 0.09069 0.11185 0.6758 0.0
C191 C 0.07619 0.25109 0.61852 0.0
C192 C 0.04833 0.28103 0.61106 0.0
C193 C 0.01308 0.28298 0.62607 0.0
C194 C 1.00524 0.25495 0.64765 0.0
C195 C 0.03302 0.22527 0.65403 0.0
C196 C 0.06786 0.22331 0.63991 0.0
C197 C 0.09084 0.18652 0.64814 0.0
C198 C 0.09596 0.16208 0.61978 0.0
C199 C 0.13151 0.19554 0.66583 0.0
C200 C 0.06284 0.16736 0.66821 0.0
C201 C 0.03001 0.19037 0.6719 0.0
C202 C 0.99891 0.17743 0.68797 0.0
C203 C 1.00101 0.13966 0.69988 0.0
C204 C 0.03368 0.11519 0.6952 0.0
C205 C 0.06535 0.12982 0.67986 0.0
H206 H 0.78643 0.97104 0.11027 0.0
H207 H 0.7909 0.09461 0.0917 0.0
H208 H 0.85181 0.09971 0.12696 0.0
H209 H 0.81296 0.98234 0.19072 0.0
H210 H 0.84043 0.93744 0.1941 0.0
H211 H 0.79904 0.9429 0.16529 0.0
H212 H 0.8455 0.92423 0.1244 0.0
H213 H 0.88724 0.91938 0.15304 0.0
H214 H 0.89066 0.95151 0.12136 0.0
H215 H 0.91434 0.09105 0.16292 0.0
H216 H 0.96592 0.0717 0.20413 0.0
H217 H 0.91451 0.95683 0.20475 0.0
C218 C 0.79942 -0.00052 0.11373 0.0
C219 C 0.78366 0.03219 0.09721 0.0
C220 C 0.80271 0.06856 0.10281 0.0
C221 C 0.83738 0.07193 0.12308 0.0
C222 C 0.85228 0.03897 0.13836 0.0
C223 C 0.83326 0.00368 0.13459 0.0
C224 C 0.85353 0.97334 0.15557 0.0
C225 C 0.82478 0.95813 0.17774 0.0
C226 C 0.87022 0.94016 0.1375 0.0
C227 C 0.88695 0.99714 0.17172 0.0
C228 C 0.88632 0.03469 0.1609 0.0
C229 C 0.91493 0.06182 0.17174 0.0
C230 C 0.94424 0.05056 0.1949 0.0
C231 C 0.94398 0.01288 0.20733 0.0
C232 C 0.91523 0.98579 0.19544 0.0
H233 H 0.96598 0.74677 0.60979 0.0
H234 H 0.08455 0.7622 0.5805 0.0
H235 H 0.0993 0.81167 0.61975 0.0
H236 H 0.94716 0.84463 0.61959 0.0
H237 H 0.92002 0.83876 0.65233 0.0
H238 H 0.92083 0.8002 0.62526 0.0
H239 H 0.94838 0.75333 0.66807 0.0
H240 H 0.94778 0.7919 0.69532 0.0
H241 H 0.99346 0.76567 0.69164 0.0
H242 H 0.09875 0.86458 0.65733 0.0
H243 H 0.08207 0.91852 0.69015 0.0
H244 H 0.96369 0.87058 0.69496 0.0
C245 C 0.99522 0.76021 0.61182 0.0
C246 C 0.02422 0.75012 0.59215 0.0
C247 C 0.06211 0.76855 0.59567 0.0
C248 C 0.07078 0.79687 0.61788 0.0
C249 C 0.04135 0.80648 0.63653 0.0
C250 C 1.00434 0.78871 0.63382 0.0
C251 C 0.97679 0.8069 0.65488 0.0
C252 C 0.93899 0.82362 0.63694 0.0
C253 C 0.96598 0.7777 0.6789 0.0
C254 C 1.00362 0.83863 0.66897 0.0
C255 C 0.04094 0.83744 0.65836 0.0
C256 C 0.06985 0.86553 0.66612 0.0
C257 C 0.06002 0.89621 0.68455 0.0
C258 C 0.02166 0.89857 0.69496 0.0
C259 C 0.99353 0.86887 0.68779 0.0
H260 H 0.21492 0.05177 0.91473 0.0
H261 H 0.31341 0.98326 0.88713 0.0
H262 H 0.27056 0.9613 0.84204 0.0
H263 H 0.13506 0.98411 0.88859 0.0
H264 H 0.10036 0.02192 0.87575 0.0
H265 H 0.1379 0.03063 0.90697 0.0
H266 H 0.16347 0.0899 0.87879 0.0
H267 H 0.12599 0.08145 0.84755 0.0
H268 H 0.17807 0.08391 0.84107 0.0
H269 H 0.21946 0.95046 0.79843 0.0
H270 H 0.16248 0.95047 0.75885 0.0
H271 H 0.09573 0.02489 0.81439 0.0
C272 C 0.22742 0.03207 0.89923 0.0
C273 C 0.26753 0.01906 0.90457 0.0
C274 C 0.28265 0.99312 0.88381 0.0
C275 C 0.25858 0.98059 0.85806 0.0
C276 C 0.21933 0.99406 0.85343 0.0
C277 C 0.20369 0.01908 0.87343 0.0
C278 C 0.16085 0.03003 0.8625 0.0
C279 C 0.13183 0.01581 0.88478 0.0
C280 C 0.15688 0.07392 0.85715 0.0
C281 C 0.15517 0.00785 0.83291 0.0
C282 C 0.18933 0.98724 0.82826 0.0
C283 C 0.19239 0.96612 0.80194 0.0
C284 C 0.15989 0.96642 0.77956 0.0
C285 C 0.12461 0.98749 0.78362 0.0
C286 C 0.12205 0.008 0.8109 0.0
H287 H 0.0919 0.26262 0.39297 0.0
H288 H 0.96897 0.27625 0.41403 0.0
H289 H 0.94778 0.22558 0.37732 0.0
H290 H 0.06955 0.23568 0.3118 0.0
H291 H 0.10898 0.20005 0.31393 0.0
H292 H 0.114 0.24245 0.3376 0.0
H293 H 0.12609 0.19891 0.38526 0.0
H294 H 0.1212 0.15651 0.36178 0.0
H295 H 0.08976 0.16239 0.39207 0.0
H296 H 0.94051 0.16841 0.34418 0.0
H297 H 0.9481 0.10667 0.31783 0.0
H298 H 0.0758 0.12693 0.31911 0.0
C299 C 0.06042 0.25536 0.38968 0.0
C300 C 0.03216 0.27412 0.40634 0.0
C301 C 0.99125 0.26345 0.40111 0.0
C302 C 0.97883 0.23442 0.38032 0.0
C303 C 0.00755 0.21608 0.36488 0.0
C304 C 0.04752 0.22603 0.36925 0.0
C305 C 0.07282 0.19882 0.35226 0.0
C306 C 0.0925 0.22056 0.32742 0.0
C307 C 0.1043 0.17792 0.37415 0.0
C308 C 0.04095 0.17112 0.33868 0.0
C309 C 1.00344 0.18216 0.34583 0.0
C310 C 0.96959 0.15977 0.33801 0.0
C311 C 0.97425 0.12466 0.32315 0.0
C312 C 0.0125 0.11211 0.31632 0.0
C313 C 0.04611 0.13618 0.3235 0.0
H314 H 0.74983 0.96567 0.8791 0.0
H315 H 0.77544 0.0793 0.91761 0.0
H316 H 0.82974 0.0876 0.88451 0.0
H317 H 0.85067 0.93778 0.87377 0.0
H318 H 0.84024 0.91262 0.83832 0.0
H319 H 0.80214 0.91643 0.86395 0.0
H320 H 0.75369 0.94761 0.82154 0.0
H321 H 0.79155 0.94362 0.79569 0.0
H322 H 0.76929 0.98998 0.80212 0.0
H323 H 0.88417 0.08171 0.84914 0.0
H324 H 0.93099 0.06387 0.81177 0.0
H325 H 0.86893 0.95451 0.79632 0.0
C326 C 0.76671 0.99239 0.88044 0.0
C327 C 0.75825 0.0219 0.90086 0.0
C328 C 0.78093 0.05653 0.90181 0.0
C329 C 0.81205 0.0614 0.88327 0.0
C330 C 0.82001 0.03146 0.86375 0.0
C331 C 0.7977 0.9978 0.862 0.0
C332 C 0.81245 0.96993 0.8393 0.0
C333 C 0.82726 0.93195 0.85477 0.0
C334 C 0.7798 0.96236 0.81311 0.0
C335 C 0.8468 0.99297 0.82878 0.0
C336 C 0.85083 0.02834 0.84319 0.0
C337 C 0.88111 0.05419 0.83756 0.0
C338 C 0.90766 0.04376 0.8164 0.0
C339 C 0.90358 0.00788 0.80103 0.0
C340 C 0.87277 0.98226 0.80751 0.0
H341 H 0.05889 0.74323 0.37741 0.0
H342 H 0.93005 0.75252 0.37897 0.0
H343 H 0.92778 0.80272 0.33965 0.0
H344 H 0.07589 0.84117 0.3745 0.0
H345 H 0.11549 0.83888 0.34999 0.0
H346 H 0.10638 0.79828 0.3737 0.0
H347 H 0.09806 0.75383 0.32653 0.0
H348 H 0.10707 0.79447 0.3026 0.0
H349 H 0.06203 0.76629 0.29509 0.0
H350 H 0.9399 0.85859 0.30703 0.0
H351 H 0.96626 0.91686 0.28368 0.0
H352 H 0.08713 0.87323 0.30293 0.0
C353 C 0.03008 0.75532 0.36915 0.0
C354 C 0.99461 0.74336 0.38121 0.0
C355 C 0.95759 0.76018 0.36969 0.0
C356 C 0.95596 0.78895 0.34735 0.0
C357 C 0.99153 0.80067 0.33655 0.0
C358 C 0.02793 0.78432 0.34694 0.0
C359 C 0.06219 0.80518 0.33409 0.0
C360 C 0.0917 0.82187 0.35959 0.0
C361 C 0.08359 0.77833 0.31334 0.0
C362 C 0.03946 0.83693 0.31604 0.0
C363 C 0.99864 0.83331 0.31737 0.0
C364 C 0.97168 0.86128 0.30522 0.0
C365 C 0.98687 0.89433 0.29215 0.0
C366 C 0.02853 0.89902 0.29125 0.0
C367 C 0.05506 0.86952 0.30253 0.0
loop_
_geom_bond_atom_site_label_1
_geom_bond_atom_site_label_2
_geom_bond_distance
_geom_bond_site_symmetry_2
_ccdc_geom_bond_type
H0 C27 0.929 . S
N1 C26 1.433 1_556 S
N1 C32 1.435 . S
N1 C38 1.423 . S
H2 C28 0.930 . S
H3 C31 0.931 1_565 S
H4 C30 0.929 . S
H5 C33 0.930 . S
H6 C34 0.932 . S
H7 C37 0.929 . S
H8 C36 0.931 . S
H9 C39 0.929 . S
H10 C43 0.932 1_565 S
H11 C40 0.931 . S
H12 C42 0.929 . S
H13 C45 0.929 . S
H14 C46 0.930 . S
H15 C48 0.929 . S
H16 C49 0.931 1_565 S
H17 C51 0.930 . S
H18 C52 0.932 . S
H19 C54 0.931 . S
H20 C55 0.929 . S
H21 C57 0.929 . S
H22 C58 0.931 . S
H23 C60 0.929 . S
N24 C44 1.433 1_556 S
N24 C50 1.435 . S
N24 C56 1.423 . S
H25 C61 0.932 1_565 S
C26 N1 1.433 1_554 S
C26 C27 1.363 . S
C26 C31 1.370 . S
C27 H0 0.929 . S
C27 C26 1.363 . S
C27 C28 1.385 . S
C28 H2 0.930 . S
C28 C27 1.385 . S
C28 C29 1.357 . S
C29 C28 1.357 . S
C29 C30 1.406 1_545 S
C30 H4 0.929 . S
C30 C29 1.406 1_565 S
C30 C31 1.391 1_565 S
C31 H3 0.931 1_545 S
C31 C26 1.370 . S
C31 C30 1.391 1_545 S
C32 N1 1.435 . S
C32 C33 1.358 1_545 S
C32 C37 1.371 . S
C33 H5 0.930 . S
C33 C32 1.358 1_565 S
C33 C34 1.405 . S
C34 H6 0.932 . S
C34 C33 1.405 . S
C34 C35 1.383 1_565 S
C35 C34 1.383 1_545 S
C35 C36 1.393 . S
C36 H8 0.931 . S
C36 C35 1.393 . S
C36 C37 1.382 . S
C37 H7 0.929 . S
C37 C32 1.371 . S
C37 C36 1.382 . S
C38 N1 1.423 . S
C38 C39 1.362 1_556 S
C38 C43 1.388 . S
C39 H9 0.929 . S
C39 C38 1.362 1_554 S
C39 C40 1.376 . S
C40 H11 0.931 . S
C40 C39 1.376 . S
C40 C41 1.396 1_554 S
C41 C40 1.396 1_556 S
C41 C42 1.348 . S
C41 C59 1.472 . S
C42 H12 0.929 . S
C42 C41 1.348 . S
C42 C43 1.443 . S
C43 H10 0.932 1_545 S
C43 C38 1.388 . S
C43 C42 1.443 . S
C44 N24 1.433 1_554 S
C44 C45 1.363 . S
C44 C49 1.370 . S
C45 H13 0.929 . S
C45 C44 1.363 . S
C45 C46 1.385 . S
C46 H14 0.930 . S
C46 C45 1.385 . S
C46 C47 1.357 . S
C47 C46 1.357 . S
C47 C48 1.406 1_545 S
C48 H15 0.929 . S
C48 C47 1.406 1_565 S
C48 C49 1.391 1_565 S
C49 H16 0.931 1_545 S
C49 C44 1.370 . S
C49 C48 1.391 1_545 S
C50 N24 1.435 . S
C50 C51 1.358 1_545 S
C50 C55 1.371 . S
C51 H17 0.930 . S
C51 C50 1.358 1_565 S
C51 C52 1.405 . S
C52 H18 0.932 . S
C52 C51 1.405 . S
C52 C53 1.383 1_565 S
C53 C52 1.383 1_545 S
C53 C54 1.393 . S
C54 H19 0.931 . S
C54 C53 1.393 . S
C54 C55 1.382 . S
C55 H20 0.929 . S
C55 C50 1.371 . S
C55 C54 1.382 . S
C56 N24 1.423 . S
C56 C57 1.362 1_556 S
C56 C61 1.388 . S
C57 H21 0.929 . S
C57 C56 1.362 1_554 S
C57 C58 1.376 . S
C58 H22 0.931 . S
C58 C57 1.376 . S
C58 C59 1.396 1_554 S
C59 C41 1.472 . S
C59 C58 1.396 1_556 S
C59 C60 1.348 . S
C60 H23 0.929 . S
C60 C59 1.348 . S
C60 C61 1.443 . S
C61 H25 0.932 1_545 S
C61 C56 1.388 . S
C61 C60 1.443 . S
H62 C89 0.929 . S
N63 C88 1.433 . S
N63 C94 1.435 . S
N63 C100 1.427 . S
H64 C90 0.930 . S
H65 C93 0.931 . S
H66 C92 0.929 . S
H67 C95 0.930 . S
H68 C96 0.932 . S
H69 C99 0.929 . S
H70 C98 0.923 1_655 S
H71 C101 0.929 . S
H72 C105 0.932 . S
H73 C102 0.931 . S
H74 C104 0.929 . S
H75 C107 0.929 . S
H76 C108 0.930 . S
H77 C110 0.929 . S
H78 C111 0.931 . S
H79 C113 0.930 . S
H80 C114 0.932 . S
H81 C116 0.923 1_655 S
H82 C117 0.929 . S
H83 C119 0.929 . S
H84 C120 0.931 . S
H85 C122 0.929 . S
N86 C106 1.433 . S
N86 C112 1.435 . S
N86 C118 1.427 . S
H87 C123 0.932 . S
C88 N63 1.433 . S
C88 C89 1.363 1_455 S
C88 C93 1.370 . S
C89 H62 0.929 . S
C89 C88 1.363 1_655 S
C89 C90 1.385 . S
C90 H64 0.930 . S
C90 C89 1.385 . S
C90 C91 1.357 1_655 S
C91 C90 1.357 1_455 S
C91 C92 1.406 . S
C92 H66 0.929 . S
C92 C91 1.406 . S
C92 C93 1.391 . S
C93 H65 0.931 . S
C93 C88 1.370 . S
C93 C92 1.391 . S
C94 N63 1.435 . S
C94 C95 1.358 . S
C94 C99 1.371 1_455 S
C95 H67 0.930 . S
C95 C94 1.358 . S
C95 C96 1.405 . S
C96 H68 0.932 . S
C96 C95 1.405 . S
C96 C97 1.383 . S
C97 C96 1.383 . S
C97 C98 1.406 . S
C98 H70 0.923 1_455 S
C98 C97 1.406 . S
C98 C99 1.377 1_455 S
C99 H69 0.929 . S
C99 C94 1.371 1_655 S
C99 C98 1.377 1_655 S
C100 N63 1.427 . S
C100 C101 1.342 1_455 S
C100 C105 1.408 . S
C101 H71 0.929 . S
C101 C100 1.342 1_655 S
C101 C102 1.376 . S
C102 H73 0.931 . S
C102 C101 1.376 . S
C102 C103 1.396 . S
C103 C102 1.396 . S
C103 C104 1.348 1_655 S
C103 C121 1.472 . S
C104 H74 0.929 . S
C104 C103 1.348 1_455 S
C104 C105 1.443 . S
C105 H72 0.932 . S
C105 C100 1.408 . S
C105 C104 1.443 . S
C106 N86 1.433 . S
C106 C107 1.363 1_455 S
C106 C111 1.370 . S
C107 H75 0.929 . S
C107 C106 1.363 1_655 S
C107 C108 1.385 . S
C108 H76 0.930 . S
C108 C107 1.385 . S
C108 C109 1.357 1_655 S
C109 C108 1.357 1_455 S
C109 C110 1.406 . S
C110 H77 0.929 . S
C110 C109 1.406 . S
C110 C111 1.391 . S
C111 H78 0.931 . S
C111 C106 1.370 . S
C111 C110 1.391 . S
C112 N86 1.435 . S
C112 C113 1.358 . S
C112 C117 1.371 1_455 S
C113 H79 0.930 . S
C113 C112 1.358 . S
C113 C114 1.405 . S
C114 H80 0.932 . S
C114 C113 1.405 . S
C114 C115 1.383 . S
C115 C114 1.383 . S
C115 C116 1.406 . S
C116 H81 0.923 1_455 S
C116 C115 1.406 . S
C116 C117 1.377 1_455 S
C117 H82 0.929 . S
C117 C112 1.371 1_655 S
C117 C116 1.377 1_655 S
C118 N86 1.427 . S
C118 C119 1.342 1_455 S
C118 C123 1.408 . S
C119 H83 0.929 . S
C119 C118 1.342 1_655 S
C119 C120 1.376 . S
C120 H84 0.931 . S
C120 C119 1.376 . S
C120 C121 1.396 . S
C121 C103 1.472 . S
C121 C120 1.396 . S
C121 C122 1.348 1_655 S
C122 H85 0.929 . S
C122 C121 1.348 1_455 S
C122 C123 1.443 . S
C123 H87 0.932 . S
C123 C118 1.408 . S
C123 C122 1.443 . S
Mg124 O125 2.028 . S
Mg124 O131 1.986 . S
Mg124 O133 2.114 1_545 S
Mg124 O134 2.251 1_545 S
Mg124 O137 2.010 . S
O125 Mg124 2.028 . S
O125 C128 1.250 1_455 S
O126 Mg127 2.028 . S
O126 C128 1.248 . S
Mg127 O126 2.028 . S
Mg127 O132 2.032 1_655 S
Mg127 O134 2.079 1_645 S
C128 O125 1.250 1_655 S
C128 O126 1.248 . S
C129 O130 1.264 . S
C129 O137 1.249 . S
O130 C129 1.264 . S
O131 Mg124 1.986 . S
O131 C135 1.246 . S
O132 Mg127 2.032 1_455 S
O132 C135 1.259 . S
O133 Mg124 2.114 1_565 S
O133 C136 1.252 . S
O134 Mg124 2.251 1_565 S
O134 Mg127 2.079 1_465 S
O134 C136 1.273 . S
C135 O131 1.246 . S
C135 O132 1.259 . S
C136 O133 1.252 . S
C136 O134 1.273 . S
O137 Mg124 2.010 . S
O137 C129 1.249 . S
Mg138 O139 2.028 1_655 S
Mg138 O145 1.986 . S
Mg138 O147 2.114 1_545 S
Mg138 O148 2.251 1_645 S
Mg138 O151 2.010 . S
O139 Mg138 2.028 1_455 S
O139 C142 1.250 . S
O140 Mg141 2.028 . S
O140 C142 1.248 . S
Mg141 O140 2.028 . S
Mg141 O146 2.032 . S
Mg141 O148 2.079 1_545 S
C142 O139 1.250 . S
C142 O140 1.248 . S
C143 O144 1.264 . S
C143 O151 1.249 . S
O144 C143 1.264 . S
O145 Mg138 1.986 . S
O145 C149 1.246 1_655 S
O146 Mg141 2.032 . S
O146 C149 1.259 . S
O147 Mg138 2.114 1_565 S
O147 C150 1.252 1_655 S
O148 Mg138 2.251 1_465 S
O148 Mg141 2.079 1_565 S
O148 C150 1.273 . S
C149 O145 1.246 1_455 S
C149 O146 1.259 . S
C150 O147 1.252 1_455 S
C150 O148 1.273 . S
O151 Mg138 2.010 . S
O151 C143 1.249 . S
H152 C164 0.930 . S
H153 C166 0.930 . S
H154 C167 0.930 . S
H155 C171 0.959 . S
H156 C171 0.959 . S
H157 C171 0.961 . S
H158 C172 0.960 . S
H159 C172 0.961 . S
H160 C172 0.959 . S
H161 C175 0.929 . S
H162 C176 0.931 . S
H163 C178 0.930 . S
C164 H152 0.930 . S
C164 C165 1.399 . S
C164 C169 1.399 . S
C165 C164 1.399 . S
C165 C166 1.376 1_545 S
C166 H153 0.930 . S
C166 C165 1.376 1_565 S
C166 C167 1.388 . S
C167 H154 0.930 . S
C167 C166 1.388 . S
C167 C168 1.390 . S
C168 C167 1.390 . S
C168 C169 1.394 1_565 S
C168 C174 1.465 . S
C169 C164 1.399 . S
C169 C168 1.394 1_545 S
C169 C170 1.516 . S
C170 C169 1.516 . S
C170 C171 1.502 . S
C170 C172 1.561 . S
C170 C173 1.526 . S
C171 H155 0.959 . S
C171 H156 0.959 . S
C171 H157 0.961 . S
C171 C170 1.502 . S
C172 H158 0.960 . S
C172 H159 0.961 . S
C172 H160 0.959 . S
C172 C170 1.561 . S
C173 C170 1.526 . S
C173 C174 1.396 1_545 S
C173 C178 1.390 . S
C174 C168 1.465 . S
C174 C173 1.396 1_565 S
C174 C175 1.399 . S
C175 H161 0.929 . S
C175 C174 1.399 . S
C175 C176 1.385 . S
C176 H162 0.931 . S
C176 C175 1.385 . S
C176 C177 1.389 1_565 S
C177 C176 1.389 1_545 S
C177 C178 1.387 . S
C178 H163 0.930 . S
C178 C173 1.390 . S
C178 C177 1.387 . S
H179 C191 0.930 . S
H180 C193 0.930 . S
H181 C194 0.930 . S
H182 C198 0.959 . S
H183 C198 0.959 . S
H184 C198 0.961 . S
H185 C199 0.960 . S
H186 C199 0.961 . S
H187 C199 0.959 1_655 S
H188 C202 0.929 . S
H189 C203 0.931 . S
H190 C205 0.930 . S
C191 H179 0.930 . S
C191 C192 1.399 . S
C191 C196 1.399 . S
C192 C191 1.399 . S
C192 C193 1.376 1_455 S
C193 H180 0.930 . S
C193 C192 1.376 1_655 S
C193 C194 1.388 . S
C194 H181 0.930 . S
C194 C193 1.388 . S
C194 C195 1.390 . S
C195 C194 1.390 . S
C195 C196 1.394 1_655 S
C195 C201 1.465 . S
C196 C191 1.399 . S
C196 C195 1.394 1_455 S
C196 C197 1.516 . S
C197 C196 1.516 . S
C197 C198 1.502 . S
C197 C199 1.561 . S
C197 C200 1.526 . S
C198 H182 0.959 . S
C198 H183 0.959 . S
C198 H184 0.961 . S
C198 C197 1.502 . S
C199 H185 0.960 . S
C199 H186 0.961 . S
C199 H187 0.959 1_455 S
C199 C197 1.561 . S
C200 C197 1.526 . S
C200 C201 1.396 1_455 S
C200 C205 1.390 . S
C201 C195 1.465 . S
C201 C200 1.396 1_655 S
C201 C202 1.399 . S
C202 H188 0.929 . S
C202 C201 1.399 . S
C202 C203 1.385 . S
C203 H189 0.931 . S
C203 C202 1.385 . S
C203 C204 1.389 1_655 S
C204 C203 1.389 1_455 S
C204 C205 1.387 . S
C205 H190 0.930 . S
C205 C200 1.390 . S
C205 C204 1.387 . S
H206 C218 0.930 . S
H207 C220 0.930 . S
H208 C221 0.930 . S
H209 C225 0.959 . S
H210 C225 0.959 . S
H211 C225 0.961 . S
H212 C226 0.960 . S
H213 C226 0.961 . S
H214 C226 0.959 . S
H215 C229 0.929 . S
H216 C230 0.931 . S
H217 C232 0.930 . S
C218 H206 0.930 . S
C218 C219 1.399 1_565 S
C218 C223 1.399 . S
C219 C218 1.399 1_545 S
C219 C220 1.376 . S
C220 H207 0.930 . S
C220 C219 1.376 . S
C220 C221 1.388 . S
C221 H208 0.930 . S
C221 C220 1.388 . S
C221 C222 1.390 . S
C222 C221 1.390 . S
C222 C223 1.394 1_545 S
C222 C228 1.465 . S
C223 C218 1.399 . S
C223 C222 1.394 1_565 S
C223 C224 1.516 . S
C224 C223 1.516 . S
C224 C225 1.502 . S
C224 C226 1.561 . S
C224 C227 1.526 . S
C225 H209 0.959 . S
C225 H210 0.959 . S
C225 H211 0.961 . S
C225 C224 1.502 . S
C226 H212 0.960 . S
C226 H213 0.961 . S
C226 H214 0.959 . S
C226 C224 1.561 . S
C227 C224 1.526 . S
C227 C228 1.396 1_565 S
C227 C232 1.390 . S
C228 C222 1.465 . S
C228 C227 1.396 1_545 S
C228 C229 1.399 . S
C229 H215 0.929 . S
C229 C228 1.399 . S
C229 C230 1.385 . S
C230 H216 0.931 . S
C230 C229 1.385 . S
C230 C231 1.389 . S
C231 C230 1.389 . S
C231 C232 1.387 1_545 S
C232 H217 0.930 . S
C232 C227 1.390 . S
C232 C231 1.387 1_565 S
H233 C245 0.930 . S
H234 C247 0.930 . S
H235 C248 0.930 . S
H236 C252 0.959 . S
H237 C252 0.959 . S
H238 C252 0.961 . S
H239 C253 0.960 . S
H240 C253 0.961 . S
H241 C253 0.959 1_455 S
H242 C256 0.929 . S
H243 C257 0.931 . S
H244 C259 0.930 . S
C245 H233 0.930 . S
C245 C246 1.399 1_655 S
C245 C250 1.399 1_655 S
C246 C245 1.399 1_455 S
C246 C247 1.376 . S
C247 H234 0.930 . S
C247 C246 1.376 . S
C247 C248 1.388 . S
C248 H235 0.930 . S
C248 C247 1.388 . S
C248 C249 1.390 . S
C249 C248 1.390 . S
C249 C250 1.394 . S
C249 C255 1.465 . S
C250 C245 1.399 1_455 S
C250 C249 1.394 . S
C250 C251 1.516 1_455 S
C251 C250 1.516 1_655 S
C251 C252 1.502 . S
C251 C253 1.561 . S
C251 C254 1.531 . S
C252 H236 0.959 . S
C252 H237 0.959 . S
C252 H238 0.961 . S
C252 C251 1.502 . S
C253 H239 0.960 . S
C253 H240 0.961 . S
C253 H241 0.959 1_655 S
C253 C251 1.561 . S
C254 C251 1.531 . S
C254 C255 1.385 1_655 S
C254 C259 1.393 . S
C255 C249 1.465 . S
C255 C254 1.385 1_455 S
C255 C256 1.399 . S
C256 H242 0.929 . S
C256 C255 1.399 . S
C256 C257 1.385 . S
C257 H243 0.931 . S
C257 C256 1.385 . S
C257 C258 1.389 . S
C258 C257 1.389 . S
C258 C259 1.387 1_455 S
C259 H244 0.930 . S
C259 C254 1.393 . S
C259 C258 1.387 1_655 S
H260 C272 0.930 . S
H261 C274 0.930 . S
H262 C275 0.930 . S
H263 C279 0.959 . S
H264 C279 0.959 . S
H265 C279 0.961 . S
H266 C280 0.960 . S
H267 C280 0.961 . S
H268 C280 0.959 . S
H269 C283 0.929 . S
H270 C284 0.931 . S
H271 C286 0.930 . S
C272 H260 0.930 . S
C272 C273 1.399 . S
C272 C277 1.399 . S
C273 C272 1.399 . S
C273 C274 1.376 1_545 S
C274 H261 0.930 . S
C274 C273 1.376 1_565 S
C274 C275 1.388 . S
C275 H262 0.930 . S
C275 C274 1.388 . S
C275 C276 1.390 . S
C276 C275 1.390 . S
C276 C277 1.394 1_565 S
C276 C282 1.465 . S
C277 C272 1.399 . S
C277 C276 1.394 1_545 S
C277 C278 1.516 . S
C278 C277 1.516 . S
C278 C279 1.502 . S
C278 C280 1.561 . S
C278 C281 1.526 . S
C279 H263 0.959 . S
C279 H264 0.959 . S
C279 H265 0.961 . S
C279 C278 1.502 . S
C280 H266 0.960 . S
C280 H267 0.961 . S
C280 H268 0.959 . S
C280 C278 1.561 . S
C281 C278 1.526 . S
C281 C282 1.396 1_545 S
C281 C286 1.390 . S
C282 C276 1.465 . S
C282 C281 1.396 1_565 S
C282 C283 1.399 . S
C283 H269 0.929 . S
C283 C282 1.399 . S
C283 C284 1.385 . S
C284 H270 0.931 . S
C284 C283 1.385 . S
C284 C285 1.389 1_565 S
C285 C284 1.389 1_545 S
C285 C286 1.387 . S
C286 H271 0.930 . S
C286 C281 1.390 . S
C286 C285 1.387 . S
H287 C299 0.930 . S
H288 C301 0.930 . S
H289 C302 0.930 . S
H290 C306 0.959 . S
H291 C306 0.959 . S
H292 C306 0.961 . S
H293 C307 0.960 . S
H294 C307 0.961 . S
H295 C307 0.959 . S
H296 C310 0.929 . S
H297 C311 0.931 1_655 S
H298 C313 0.930 . S
C299 H287 0.930 . S
C299 C300 1.399 . S
C299 C304 1.399 . S
C300 C299 1.399 . S
C300 C301 1.376 1_455 S
C301 H288 0.930 . S
C301 C300 1.376 1_655 S
C301 C302 1.388 . S
C302 H289 0.930 . S
C302 C301 1.388 . S
C302 C303 1.390 1_655 S
C303 C302 1.390 1_455 S
C303 C304 1.394 . S
C303 C309 1.465 . S
C304 C299 1.399 . S
C304 C303 1.394 . S
C304 C305 1.516 . S
C305 C304 1.516 . S
C305 C306 1.502 . S
C305 C307 1.561 . S
C305 C308 1.526 . S
C306 H290 0.959 . S
C306 H291 0.959 . S
C306 H292 0.961 . S
C306 C305 1.502 . S
C307 H293 0.960 . S
C307 H294 0.961 . S
C307 H295 0.959 . S
C307 C305 1.561 . S
C308 C305 1.526 . S
C308 C309 1.396 . S
C308 C313 1.390 . S
C309 C303 1.465 . S
C309 C308 1.396 . S
C309 C310 1.399 1_455 S
C310 H296 0.929 . S
C310 C309 1.399 1_655 S
C310 C311 1.385 1_655 S
C311 H297 0.931 1_455 S
C311 C310 1.385 1_455 S
C311 C312 1.389 . S
C312 C311 1.389 . S
C312 C313 1.387 . S
C313 H298 0.930 . S
C313 C308 1.390 . S
C313 C312 1.387 . S
H314 C326 0.930 . S
H315 C328 0.930 . S
H316 C329 0.930 . S
H317 C333 0.959 . S
H318 C333 0.959 . S
H319 C333 0.961 . S
H320 C334 0.960 . S
H321 C334 0.961 . S
H322 C334 0.959 . S
H323 C337 0.929 . S
H324 C338 0.931 . S
H325 C340 0.930 . S
C326 H314 0.930 . S
C326 C327 1.399 1_565 S
C326 C331 1.399 . S
C327 C326 1.399 1_545 S
C327 C328 1.376 . S
C328 H315 0.930 . S
C328 C327 1.376 . S
C328 C329 1.388 . S
C329 H316 0.930 . S
C329 C328 1.388 . S
C329 C330 1.390 . S
C330 C329 1.390 . S
C330 C331 1.394 1_545 S
C330 C336 1.465 . S
C331 C326 1.399 . S
C331 C330 1.394 1_565 S
C331 C332 1.516 . S
C332 C331 1.516 . S
C332 C333 1.502 . S
C332 C334 1.561 . S
C332 C335 1.526 . S
C333 H317 0.959 . S
C333 H318 0.959 . S
C333 H319 0.961 . S
C333 C332 1.502 . S
C334 H320 0.960 . S
C334 H321 0.961 . S
C334 H322 0.959 . S
C334 C332 1.561 . S
C335 C332 1.526 . S
C335 C336 1.396 1_565 S
C335 C340 1.390 . S
C336 C330 1.465 . S
C336 C335 1.396 1_545 S
C336 C337 1.399 . S
C337 H323 0.929 . S
C337 C336 1.399 . S
C337 C338 1.385 . S
C338 H324 0.931 . S
C338 C337 1.385 . S
C338 C339 1.389 . S
C339 C338 1.389 . S
C339 C340 1.387 1_545 S
C340 H325 0.930 . S
C340 C335 1.390 . S
C340 C339 1.387 1_565 S
H341 C353 0.930 . S
H342 C355 0.930 1_655 S
H343 C356 0.938 . S
H344 C360 0.959 . S
H345 C360 0.959 . S
H346 C360 0.961 . S
H347 C361 0.960 . S
H348 C361 0.961 . S
H349 C361 0.959 . S
H350 C364 0.929 1_655 S
H351 C365 0.928 1_655 S
H352 C367 0.930 . S
C353 H341 0.930 . S
C353 C354 1.399 . S
C353 C358 1.399 . S
C354 C353 1.399 . S
C354 C355 1.376 . S
C355 H342 0.930 1_455 S
C355 C354 1.376 . S
C355 C356 1.388 1_455 S
C356 H343 0.938 . S
C356 C355 1.388 1_655 S
C356 C357 1.383 1_655 S
C357 C356 1.383 1_455 S
C357 C358 1.394 . S
C357 C363 1.465 . S
C358 C353 1.399 . S
C358 C357 1.394 . S
C358 C359 1.516 . S
C359 C358 1.516 . S
C359 C360 1.502 . S
C359 C361 1.561 . S
C359 C362 1.526 . S
C360 H344 0.959 . S
C360 H345 0.959 . S
C360 H346 0.961 . S
C360 C359 1.502 . S
C361 H347 0.960 . S
C361 H348 0.961 . S
C361 H349 0.959 . S
C361 C359 1.561 . S
C362 C359 1.526 . S
C362 C363 1.396 . S
C362 C367 1.390 . S
C363 C357 1.465 . S
C363 C362 1.396 . S
C363 C364 1.399 . S
C364 H350 0.929 1_455 S
C364 C363 1.399 . S
C364 C365 1.385 . S
C365 H351 0.928 1_455 S
C365 C364 1.385 . S
C365 C366 1.389 . S
C366 C365 1.389 . S
C366 C367 1.387 . S
C367 H352 0.930 . S
C367 C362 1.390 . S
C367 C366 1.387 . S
C177 C129 1.413 . S
C165 C47 1.630 . S
C204 C149 1.725 . S
C192 C109 1.583 . S
C231 C128 1.686 . S
C219 C29 1.571 . S
C258 C150 1.746 . S
C246 C91 1.619 . S
C285 C142 1.354 . S
C273 C53 1.406 . S
C312 C135 1.351 . S
C300 C115 1.373 . S
C339 C143 1.160 . S
C327 C35 1.411 . S
C354 C97 1.366 . S
C366 C136 1.395 . S
