# Generated by pormake.
# Topology anh, (6,3)-cn, num edge types: 1
# Building blocks:
#     Node 0, Type 0, BuildingBlock: INOVEN_clean_sbu_0, # of connection points: 6
#     Node 1, Type 0, BuildingBlock: INOVEN_clean_sbu_0, # of connection points: 6
#     Node 2, Type 0, BuildingBlock: INOVEN_clean_sbu_0, # of connection points: 6
#     Node 3, Type 1, BuildingBlock: VETTIZ_charged_linker_0, # of connection points: 3
#     Node 4, Type 1, BuildingBlock: VETTIZ_charged_linker_0, # of connection points: 3
#     Node 5, Type 1, BuildingBlock: VETTIZ_charged_linker_0, # of connection points: 3
#     Node 6, Type 1, BuildingBlock: VETTIZ_charged_linker_0, # of connection points: 3
#     Node 7, Type 1, BuildingBlock: VETTIZ_charged_linker_0, # of connection points: 3
#     Node 8, Type 1, BuildingBlock: VETTIZ_charged_linker_0, # of connection points: 3
#     Edge 9, Type (0, 1), BuildingBlock: ZUJKAS_clean_linker_0, # of connection points: 2
#     Edge 10, Type (0, 1), BuildingBlock: ZUJKAS_clean_linker_0, # of connection points: 2
#     Edge 11, Type (0, 1), BuildingBlock: ZUJKAS_clean_linker_0, # of connection points: 2
#     Edge 12, Type (0, 1), BuildingBlock: ZUJKAS_clean_linker_0, # of connection points: 2
#     Edge 13, Type (0, 1), BuildingBlock: ZUJKAS_clean_linker_0, # of connection points: 2
#     Edge 14, Type (0, 1), BuildingBlock: ZUJKAS_clean_linker_0, # of connection points: 2
#     Edge 15, Type (0, 1), BuildingBlock: ZUJKAS_clean_linker_0, # of connection points: 2
#     Edge 16, Type (0, 1), BuildingBlock: ZUJKAS_clean_linker_0, # of connection points: 2
#     Edge 17, Type (0, 1), BuildingBlock: ZUJKAS_clean_linker_0, # of connection points: 2
#     Edge 18, Type (0, 1), BuildingBlock: ZUJKAS_clean_linker_0, # of connection points: 2
#     Edge 19, Type (0, 1), BuildingBlock: ZUJKAS_clean_linker_0, # of connection points: 2
#     Edge 20, Type (0, 1), BuildingBlock: ZUJKAS_clean_linker_0, # of connection points: 2
#     Edge 21, Type (0, 1), BuildingBlock: ZUJKAS_clean_linker_0, # of connection points: 2
#     Edge 22, Type (0, 1), BuildingBlock: ZUJKAS_clean_linker_0, # of connection points: 2
#     Edge 23, Type (0, 1), BuildingBlock: ZUJKAS_clean_linker_0, # of connection points: 2
#     Edge 24, Type (0, 1), BuildingBlock: ZUJKAS_clean_linker_0, # of connection points: 2
#     Edge 25, Type (0, 1), BuildingBlock: ZUJKAS_clean_linker_0, # of connection points: 2
#     Edge 26, Type (0, 1), BuildingBlock: ZUJKAS_clean_linker_0, # of connection points: 2
# Relax obj value: 0.165
# Max RMSD: 0.204
# Mean RMSD: 0.154
data_MOF--net-anh--node1-INOVEN_clean_sbu_0--node2-VETTIZ_charged_linker_0--edge1-ZUJKAS_clean_linker_0
_symmetry_space_group_name_H-M    P1
_symmetry_Int_Tables_number       1
_symmetry_cell_setting            triclinic
loop_
_symmetry_equiv_pos_as_xyz
'x, y, z'
_cell_length_a     44.652866
_cell_length_b     52.1331
_cell_length_c     82.647677
_cell_angle_alpha  93.319013
_cell_angle_beta   88.807418
_cell_angle_gamma 127.26227
loop_
_atom_site_label
_atom_site_type_symbol
_atom_site_fract_x
_atom_site_fract_y
_atom_site_fract_z
_atom_type_partial_charge
Gd0 Gd 0.0958 0.51765 0.14803 0.0
Gd1 Gd 1.0548 0.54197 0.16441 0.0
C2 C 0.14089 0.59563 0.15726 0.0
C3 C 0.1388 0.51141 0.1299 0.0
C4 C 0.17898 0.52653 0.13168 0.0
C5 C 0.19655 0.53855 0.14701 0.0
C6 C 0.19998 0.52903 0.11823 0.0
C7 C 0.25512 0.5525 0.13575 0.0
C8 C 0.23785 0.54208 0.12023 0.0
C9 C 0.23416 0.55119 0.14905 0.0
C10 C 0.09362 0.51649 0.18056 0.0
C11 C 1.01021 0.46499 0.15473 0.0
C12 C 1.01396 0.54855 0.18408 0.0
C13 C 0.97866 0.52466 0.19218 0.0
C14 C 0.97037 0.49516 0.1962 0.0
C15 C 0.95088 0.52924 0.19376 0.0
C16 C 0.90521 0.47332 0.20047 0.0
C17 C 0.91437 0.50375 0.19798 0.0
C18 C 0.93379 0.46958 0.20023 0.0
C19 C 0.05893 0.54407 0.13187 0.0
O20 O 0.14013 0.5723 0.14941 0.0
O21 O 0.11168 0.58967 0.16537 0.0
O22 O 0.11736 0.4912 0.14096 0.0
O23 O 0.13079 0.53102 0.12684 0.0
O24 O 0.09305 0.49537 0.17121 0.0
O25 O 0.09845 0.53825 0.17238 0.0
O26 O 1.014 0.48724 0.16506 0.0
O27 O 1.03677 0.47257 0.14423 0.0
O28 O 1.01113 0.54791 0.1683 0.0
O29 O 1.04365 0.55132 0.18878 0.0
O30 O 0.06066 0.56585 0.14127 0.0
O31 O 1.0527 0.52171 0.14001 0.0
H32 H 0.18083 0.53728 0.15751 0.0
H33 H 0.18695 0.5204 0.10627 0.0
H34 H 0.25336 0.54334 0.10966 0.0
H35 H 0.2462 0.55856 0.1612 0.0
H36 H 0.99149 0.49115 0.19519 0.0
H37 H 0.95677 0.5518 0.19069 0.0
H38 H 0.89265 0.50706 0.19793 0.0
H39 H 0.92726 0.4463 0.2021 0.0
Gd40 Gd 0.60193 0.01947 0.49266 0.0
Gd41 Gd 0.55299 0.03861 0.48339 0.0
C42 C 0.51183 0.96384 0.48514 0.0
C43 C 0.62957 0.99414 0.50606 0.0
C44 C 0.62033 0.96188 0.5068 0.0
C45 C 0.60728 0.9404 0.49304 0.0
C46 C 0.62506 0.95254 0.52152 0.0
C47 C 0.60504 0.90106 0.50866 0.0
C48 C 0.61741 0.9224 0.52246 0.0
C49 C 0.59992 0.91033 0.49395 0.0
C50 C 0.59911 0.02574 0.46072 0.0
C51 C 0.6436 0.09414 0.49001 0.0
C52 C 0.52501 0.0645 0.47091 0.0
C53 C 0.53282 0.09624 0.47296 0.0
C54 C 0.56177 0.12052 0.48348 0.0
C55 C 0.51035 0.10202 0.46487 0.0
C56 C 0.54496 0.15591 0.4782 0.0
C57 C 0.51635 0.1316 0.46745 0.0
C58 C 0.56787 0.15011 0.48604 0.0
C59 C 0.55703 0.03323 0.51542 0.0
O60 O 0.54271 0.9722 0.49267 0.0
O61 O 0.51083 0.98536 0.47802 0.0
O62 O 0.64055 0.00743 0.49208 0.0
O63 O 0.60668 0.99852 0.51349 0.0
O64 O 0.62903 0.03365 0.46825 0.0
O65 O 0.57158 0.013 0.4701 0.0
O66 O 0.61221 0.08558 0.48292 0.0
O67 O 0.6452 0.0729 0.4971 0.0
O68 O 0.51105 0.04696 0.48355 0.0
O69 O 0.55129 0.06399 0.46398 0.0
O70 O 0.52691 0.02534 0.50812 0.0
O71 O 0.5839 0.04555 0.50575 0.0
H72 H 0.60299 0.94691 0.48158 0.0
H73 H 0.63504 0.96873 0.53227 0.0
H74 H 0.62197 0.91609 0.53393 0.0
H75 H 0.59001 0.89425 0.48317 0.0
H76 H 0.57934 0.11642 0.48987 0.0
H77 H 0.48774 0.08345 0.45677 0.0
H78 H 0.49789 0.13506 0.46137 0.0
H79 H 0.59048 0.16841 0.49421 0.0
Gd80 Gd 0.62698 0.56747 0.83936 0.0
Gd81 Gd 0.57438 0.49545 0.84317 0.0
C82 C 0.53582 0.53071 0.84302 0.0
C83 C 0.65959 0.62555 0.83054 0.0
C84 C 0.65044 0.64836 0.82915 0.0
C85 C 0.65608 0.66913 0.8424 0.0
C86 C 0.63754 0.65059 0.81432 0.0
C87 C 0.63611 0.69383 0.82599 0.0
C88 C 0.63035 0.67297 0.81277 0.0
C89 C 0.6489 0.69154 0.84084 0.0
C90 C 0.61831 0.54895 0.86989 0.0
C91 C 0.66605 0.53274 0.83987 0.0
C92 C 0.54139 0.4373 0.8521 0.0
C93 C 0.54857 0.41323 0.85071 0.0
C94 C 0.52038 0.38143 0.8547 0.0
C95 C 0.583 0.42148 0.84498 0.0
C96 C 0.56085 0.36607 0.84708 0.0
C97 C 0.58921 0.39821 0.84329 0.0
C98 C 0.52638 0.35802 0.85287 0.0
C99 C 0.58351 0.51325 0.81239 0.0
O100 O 0.56863 0.55579 0.83773 0.0
O101 O 0.5323 0.50541 0.84813 0.0
O102 O 0.66281 0.619 0.84517 0.0
O103 O 0.64251 0.60018 0.82035 0.0
O104 O 0.65032 0.57271 0.86434 0.0
O105 O 0.59258 0.5372 0.85936 0.0
O106 O 0.63284 0.50721 0.84459 0.0
O107 O 0.67003 0.55846 0.83512 0.0
O108 O 0.53341 0.44379 0.83852 0.0
O109 O 0.56471 0.46316 0.86147 0.0
O110 O 0.55193 0.48889 0.81789 0.0
O111 O 0.60909 0.52561 0.82306 0.0
H112 H 0.66631 0.6683 0.85398 0.0
H113 H 0.63343 0.63529 0.8038 0.0
H114 H 0.62113 0.67445 0.80107 0.0
H115 H 0.65331 0.70704 0.85131 0.0
H116 H 0.4935 0.3746 0.85902 0.0
H117 H 0.60496 0.44583 0.84169 0.0
H118 H 0.61628 0.40547 0.83902 0.0
H119 H 0.50366 0.33347 0.85565 0.0
C120 C 0.66659 0.11987 0.18541 0.0
C121 C 0.69402 0.14978 0.19365 0.0
C122 C 0.69571 0.15152 0.21071 0.0
C123 C 0.64308 0.09487 0.21122 0.0
C124 C 0.64122 0.09277 0.19446 0.0
C125 C 0.60921 0.05918 0.18797 0.0
H126 H 0.46557 0.90396 0.20464 0.0
C127 C 0.6128 0.06295 0.21713 0.0
C128 C 0.59256 0.04172 0.20359 0.0
H129 H 0.49858 0.94284 0.15734 0.0
H130 H 0.54785 0.99596 0.16972 0.0
H131 H 0.54909 0.94129 0.21999 0.0
H132 H 0.46686 0.95897 0.22044 0.0
H133 H 0.49021 0.97485 0.2393 0.0
H134 H 0.4644 0.9322 0.23404 0.0
H135 H 0.50547 0.91769 0.23056 0.0
H136 H 0.54709 0.95354 0.23999 0.0
C137 C 0.626 0.04529 0.17755 0.0
C138 C 0.58122 0.06132 0.17863 0.0
C139 C 0.5999 0.04739 0.27785 0.0
C140 C 0.57395 0.0208 0.28708 0.0
C141 C 0.54449 0.99166 0.27892 0.0
C142 C 0.54138 0.98879 0.262 0.0
C143 C 0.56777 0.01537 0.25297 0.0
C144 C 0.5961 0.04417 0.2609 0.0
C145 C 0.62066 0.07014 0.24929 0.0
C146 C 0.60254 0.05199 0.23308 0.0
C147 C 0.5719 0.01992 0.23536 0.0
C148 C 0.66118 0.08055 0.25108 0.0
C149 C 0.617 0.09768 0.25288 0.0
C150 C 0.48372 0.92379 0.1969 0.0
C151 C 0.47876 0.91917 0.18002 0.0
C152 C 0.50213 0.94585 0.1704 0.0
C153 C 0.53067 0.97657 0.17762 0.0
C154 C 0.53541 0.98064 0.19462 0.0
C155 C 0.51169 0.95438 0.20387 0.0
C156 C 0.51899 0.96272 0.2217 0.0
C157 C 0.55163 0.99827 0.2218 0.0
C158 C 0.56158 0.00893 0.20595 0.0
C159 C 0.53056 0.94275 0.22857 0.0
C160 C 0.48336 0.95675 0.22939 0.0
H161 H 0.67355 0.12755 0.23243 0.0
H162 H 0.6645 0.11781 0.1723 0.0
H163 H 0.57783 0.07877 0.18503 0.0
H164 H 0.55265 0.03821 0.17772 0.0
H165 H 0.59131 0.06957 0.16624 0.0
H166 H 0.65102 0.05026 0.18377 0.0
H167 H 0.6351 0.05642 0.16564 0.0
H168 H 0.60621 0.01885 0.17542 0.0
H169 H 0.62301 0.07015 0.28362 0.0
H170 H 0.52345 0.97098 0.28562 0.0
H171 H 0.51848 0.96586 0.25663 0.0
H172 H 0.66066 0.05932 0.25295 0.0
H173 H 0.67618 0.09797 0.26166 0.0
H174 H 0.67816 0.0912 0.24016 0.0
H175 H 0.58901 0.0883 0.25795 0.0
H176 H 0.61866 0.10947 0.24184 0.0
H177 H 0.63875 0.11624 0.26181 0.0
H178 H 0.71688 0.17402 0.21734 0.0
C179 C 0.67055 0.12439 0.21949 0.0
C180 C 0.58293 0.60479 0.54142 0.0
C181 C 0.58499 0.62991 0.55014 0.0
C182 C 0.59067 0.6335 0.56709 0.0
C183 C 0.591 0.58722 0.56648 0.0
C184 C 0.58594 0.58374 0.54984 0.0
C185 C 0.58412 0.55554 0.54264 0.0
H186 H 0.58301 0.42714 0.55498 0.0
C187 C 0.59274 0.5615 0.57163 0.0
C188 C 0.58882 0.54278 0.55773 0.0
H189 H 0.5732 0.45776 0.5092 0.0
H190 H 0.57992 0.50334 0.52306 0.0
H191 H 0.6498 0.49595 0.5689 0.0
H192 H 0.53021 0.43987 0.57514 0.0
H193 H 0.55172 0.4571 0.59429 0.0
H194 H 0.5584 0.42985 0.5836 0.0
H195 H 0.62519 0.4634 0.58227 0.0
H196 H 0.6434 0.50407 0.58904 0.0
C197 C 0.61745 0.56859 0.53099 0.0
C198 C 0.54493 0.53096 0.53447 0.0
C199 C 0.60619 0.55271 0.63161 0.0
C200 C 0.60809 0.53119 0.64021 0.0
C201 C 0.60743 0.50681 0.63143 0.0
C202 C 0.60418 0.5035 0.61449 0.0
C203 C 0.60157 0.5248 0.60611 0.0
C204 C 0.60304 0.54911 0.61466 0.0
C205 C 0.60039 0.56975 0.60371 0.0
C206 C 0.59683 0.55365 0.58719 0.0
C207 C 0.59729 0.52725 0.5887 0.0
C208 C 0.6375 0.60464 0.6056 0.0
C209 C 0.56435 0.56655 0.60806 0.0
C210 C 0.58192 0.44346 0.54793 0.0
C211 C 0.57709 0.43863 0.53101 0.0
C212 C 0.57689 0.46098 0.52226 0.0
C213 C 0.58063 0.48732 0.53034 0.0
C214 C 0.58485 0.49147 0.54733 0.0
C215 C 0.58582 0.46984 0.55577 0.0
C216 C 0.59134 0.47813 0.57369 0.0
C217 C 0.59308 0.50812 0.57472 0.0
C218 C 0.58907 0.51585 0.55929 0.0
C219 C 0.62919 0.48559 0.57889 0.0
C220 C 0.55635 0.44982 0.58226 0.0
H221 H 0.59788 0.61655 0.58815 0.0
H222 H 0.57855 0.60131 0.5284 0.0
H223 H 0.52261 0.52858 0.54208 0.0
H224 H 0.53694 0.50638 0.53291 0.0
H225 H 0.54363 0.53881 0.52246 0.0
H226 H 0.64299 0.59218 0.53586 0.0
H227 H 0.61067 0.57231 0.5189 0.0
H228 H 0.62602 0.5527 0.52947 0.0
H229 H 0.60631 0.57156 0.63792 0.0
H230 H 0.60957 0.49026 0.63768 0.0
H231 H 0.60362 0.48434 0.60859 0.0
H232 H 0.66174 0.60463 0.60843 0.0
H233 H 0.63571 0.61888 0.61556 0.0
H234 H 0.64545 0.61765 0.59432 0.0
H235 H 0.5412 0.5415 0.61128 0.0
H236 H 0.55285 0.57109 0.59787 0.0
H237 H 0.56955 0.58305 0.61861 0.0
H238 H 0.59329 0.653 0.57409 0.0
C239 C 0.59364 0.61239 0.57526 0.0
C240 C 0.1872 0.53328 0.85598 0.0
C241 C 0.21444 0.53271 0.8642 0.0
C242 C 0.2148 0.53405 0.88121 0.0
C243 C 0.16234 0.53661 0.88192 0.0
C244 C 0.16107 0.53505 0.86516 0.0
C245 C 0.12887 0.53493 0.85911 0.0
H246 H 0.98658 0.54651 0.88097 0.0
C247 C 0.13252 0.53862 0.88822 0.0
C248 C 0.11232 0.53776 0.87499 0.0
H249 H 1.01156 0.53283 0.83198 0.0
H250 H 0.06269 0.53256 0.84214 0.0
H251 H 0.99043 0.4952 0.89513 0.0
H252 H 0.06917 0.59795 0.89311 0.0
H253 H 0.07668 0.58968 0.91222 0.0
H254 H 1.03113 0.57896 0.90709 0.0
H255 H 0.98773 0.52246 0.90813 0.0
H256 H 1.01442 0.5087 0.91384 0.0
C257 C 0.10039 0.5026 0.84956 0.0
C258 C 0.14515 0.56435 0.84887 0.0
C259 C 0.12115 0.54778 0.94947 0.0
C260 C 0.09773 0.55164 0.95919 0.0
C261 C 0.07112 0.55346 0.95164 0.0
C262 C 0.06771 0.55133 0.93475 0.0
C263 C 0.09117 0.54738 0.92514 0.0
C264 C 0.11749 0.54592 0.93253 0.0
C265 C 0.14052 0.54247 0.92035 0.0
C266 C 0.12328 0.54167 0.90442 0.0
C267 C 0.09435 0.54435 0.90737 0.0
C268 C 0.1335 0.50994 0.92281 0.0
C269 C 0.18215 0.57285 0.9226 0.0
C270 C 1.00313 0.5438 0.87228 0.0
C271 C 0.99518 0.54027 0.85565 0.0
C272 C 1.01704 0.53576 0.84491 0.0
C273 C 1.04671 0.53564 0.85082 0.0
C274 C 1.05428 0.53952 0.86766 0.0
C275 C 1.03202 0.54322 0.87791 0.0
C276 C 1.0418 0.54598 0.89538 0.0
C277 C 0.07374 0.54348 0.89427 0.0
C278 C 0.08192 0.53992 0.87805 0.0
C279 C 1.00692 0.51683 0.90369 0.0
C280 C 1.05516 0.5797 0.90247 0.0
H281 H 0.19157 0.53702 0.90294 0.0
H282 H 0.18603 0.53198 0.84286 0.0
H283 H 0.16814 0.58684 0.85569 0.0
H284 H 0.12373 0.56755 0.84575 0.0
H285 H 0.15688 0.56183 0.83743 0.0
H286 H 0.0931 0.48207 0.85664 0.0
H287 H 0.11233 0.5014 0.83786 0.0
H288 H 0.07376 0.49877 0.84701 0.0
H289 H 0.14212 0.54661 0.95491 0.0
H290 H 1.05239 0.55597 0.95883 0.0
H291 H 1.04667 0.55268 0.92988 0.0
H292 H 0.10407 0.49136 0.92658 0.0
H293 H 0.15254 0.51271 0.93237 0.0
H294 H 0.13656 0.49921 0.91158 0.0
H295 H 0.18412 0.59424 0.92737 0.0
H296 H 0.19748 0.58043 0.91106 0.0
H297 H 0.19757 0.56898 0.93127 0.0
H298 H 0.23526 0.53364 0.88778 0.0
C299 C 0.18925 0.53605 0.89003 0.0
C300 C 0.99524 0.43496 0.45752 0.0
C301 C 0.96749 0.40474 0.44968 0.0
C302 C 0.9651 0.40194 0.43263 0.0
C303 C 1.01778 0.45836 0.43131 0.0
C304 C 1.02041 0.46141 0.44806 0.0
C305 C 1.05305 0.49513 0.45406 0.0
H306 H 0.2064 0.64474 0.43492 0.0
C307 C 1.04811 0.4897 0.42493 0.0
C308 C 0.0693 0.51151 0.43815 0.0
H309 H 0.16813 0.61138 0.48297 0.0
H310 H 0.11446 0.55938 0.47137 0.0
H311 H 0.19066 0.58051 0.41883 0.0
H312 H 0.12774 0.61824 0.42132 0.0
H313 H 0.11704 0.59805 0.40216 0.0
H314 H 0.16505 0.63206 0.40722 0.0
H315 H 0.20288 0.61431 0.40788 0.0
H316 H 0.17065 0.57345 0.39948 0.0
C317 C 0.08087 0.49288 0.46348 0.0
C318 C 1.03729 0.51019 0.46425 0.0
C319 C 0.05886 0.50137 0.36391 0.0
C320 C 0.08434 0.52735 0.35431 0.0
C321 C 0.1139 0.55704 0.36198 0.0
C322 C 0.11802 0.56086 0.37888 0.0
C323 C 0.09238 0.53472 0.38832 0.0
C324 C 0.06338 0.50563 0.38083 0.0
C325 C 1.03896 0.48057 0.39285 0.0
C326 C 0.05792 0.4996 0.40879 0.0
C327 C 0.08916 0.53117 0.40601 0.0
C328 C 1.04173 0.45242 0.38972 0.0
C329 C 0.99867 0.47071 0.39117 0.0
C330 C 0.18675 0.62611 0.44298 0.0
C331 C 0.19183 0.63183 0.45983 0.0
C332 C 0.1649 0.60735 0.46991 0.0
C333 C 0.13392 0.57723 0.46315 0.0
C334 C 0.12971 0.57176 0.44617 0.0
C335 C 0.15576 0.59635 0.43647 0.0
C336 C 0.14656 0.58746 0.41876 0.0
C337 C 0.11114 0.55311 0.41924 0.0
C338 C 0.10124 0.54365 0.43528 0.0
C339 C 0.17934 0.58915 0.41067 0.0
C340 C 0.13891 0.61012 0.41187 0.0
H341 H 0.98637 0.42455 0.41054 0.0
H342 H 0.99775 0.43771 0.47062 0.0
H343 H 1.0111 0.50387 0.45853 0.0
H344 H 1.05681 0.53681 0.46515 0.0
H345 H 1.03038 0.50118 0.47665 0.0
H346 H 0.08484 0.47593 0.45691 0.0
H347 H 0.07014 0.48388 0.47571 0.0
H348 H 0.1092 0.51611 0.46484 0.0
H349 H 1.03569 0.47828 0.35842 0.0
H350 H 0.13433 0.57729 0.35489 0.0
H351 H 0.14126 0.58402 0.3839 0.0
H352 H 0.06905 0.46088 0.38421 0.0
H353 H 1.01898 0.43319 0.38133 0.0
H354 H 1.04099 0.44165 0.40101 0.0
H355 H 0.99966 0.49212 0.3891 0.0
H356 H 0.98193 0.46064 0.40221 0.0
H357 H 0.98316 0.45297 0.38075 0.0
H358 H 0.94369 0.37904 0.42636 0.0
C359 C 0.98988 0.42847 0.42345 0.0
C360 C 0.59537 0.95459 0.78735 0.0
C361 C 0.59367 0.92965 0.77868 0.0
C362 C 0.59122 0.92755 0.76162 0.0
C363 C 0.59234 0.97458 0.76206 0.0
C364 C 0.59446 0.97664 0.77881 0.0
C365 C 0.59533 1.00433 0.786 0.0
H366 H 0.59352 0.13109 0.77378 0.0
C367 C 0.59223 1.00113 0.75684 0.0
C368 C 0.59384 0.01867 0.7708 0.0
H369 H 0.59787 0.09756 0.81969 0.0
H370 H 0.59691 0.055 0.80563 0.0
H371 H 0.65367 0.12558 0.75648 0.0
H372 H 0.53276 0.06229 0.75685 0.0
H373 H 0.54586 0.06078 0.73685 0.0
H374 H 0.55915 0.09863 0.74606 0.0
H375 H 0.62581 0.13281 0.74518 0.0
H376 H 0.63879 0.10815 0.73672 0.0
C377 C 0.63291 0.028 0.79554 0.0
C378 C 0.55981 0.9903 0.79638 0.0
C379 C 0.58841 0.01507 0.69667 0.0
C380 C 0.58856 0.03772 0.68812 0.0
C381 C 0.58975 0.06233 0.69691 0.0
C382 C 0.59079 0.0644 0.71387 0.0
C383 C 0.59066 0.04164 0.72225 0.0
C384 C 0.58954 0.01754 0.71365 0.0
C385 C 0.58977 0.99561 0.72463 0.0
C386 C 0.59121 0.01057 0.74121 0.0
C387 C 0.59166 0.03744 0.73971 0.0
C388 C 0.62593 0.99842 0.7213 0.0
C389 C 0.55252 0.9611 0.72169 0.0
C390 C 0.59478 0.11491 0.78086 0.0
C391 C 0.59602 0.11792 0.79789 0.0
C392 C 0.59665 0.0957 0.80656 0.0
C393 C 0.59624 0.07108 0.79837 0.0
C394 C 0.59507 0.06853 0.78131 0.0
C395 C 0.59442 0.09035 0.77291 0.0
C396 C 0.59317 0.08428 0.75487 0.0
C397 C 0.59295 0.05507 0.75376 0.0
C398 C 0.59407 0.04583 0.76925 0.0
C399 C 0.62949 0.11421 0.74781 0.0
C400 C 0.55603 0.07627 0.74816 0.0
H401 H 0.58886 0.94688 0.74032 0.0
H402 H 0.59695 0.95668 0.80047 0.0
H403 H 0.53511 0.96728 0.79059 0.0
H404 H 0.55128 0.00624 0.79763 0.0
H405 H 0.56404 0.98519 0.80864 0.0
H406 H 0.65645 0.03054 0.78891 0.0
H407 H 0.63154 0.01922 0.80766 0.0
H408 H 0.64117 0.05269 0.79708 0.0
H409 H 0.58785 0.99603 0.69029 0.0
H410 H 0.5893 0.07978 0.69064 0.0
H411 H 0.5915 0.08363 0.7198 0.0
H412 H 0.64995 0.0236 0.71869 0.0
H413 H 0.62187 0.98249 0.71068 0.0
H414 H 0.63556 0.99287 0.73181 0.0
H415 H 0.52901 0.9619 0.71853 0.0
H416 H 0.54296 0.94688 0.73258 0.0
H417 H 0.55514 0.94765 0.71155 0.0
H418 H 0.59044 0.9089 0.75464 0.0
C419 C 0.59057 0.94981 0.7533 0.0
C420 C 0.5749 0.37195 0.12966 0.0
C421 C 0.5902 0.35768 0.12188 0.0
C422 C 0.58992 0.35521 0.10477 0.0
C423 C 0.5616 0.38274 0.10367 0.0
C424 C 0.56084 0.38418 0.1204 0.0
C425 C 0.54572 0.40164 0.12699 0.0
H426 H 0.47304 0.4805 0.11335 0.0
C427 C 0.5463 0.39901 0.0978 0.0
C428 C 0.5365 0.4097 0.11144 0.0
H429 H 0.50217 0.46533 0.15943 0.0
H430 H 0.52244 0.43587 0.14577 0.0
H431 H 0.55033 0.49912 0.09565 0.0
H432 H 0.43586 0.41328 0.0967 0.0
H433 H 0.45242 0.41172 0.07748 0.0
H434 H 0.44982 0.44433 0.08318 0.0
H435 H 0.51085 0.49527 0.08733 0.0
H436 H 0.53499 0.48307 0.07565 0.0
C437 C 0.57751 0.43239 0.13702 0.0
C438 C 0.50992 0.3778 0.13668 0.0
C439 C 0.55127 0.42041 0.03807 0.0
C440 C 0.53822 0.43454 0.02942 0.0
C441 C 0.51522 0.44121 0.03745 0.0
C442 C 0.50814 0.43666 0.05398 0.0
C443 C 0.52395 0.42512 0.06268 0.0
C444 C 0.54341 0.41558 0.05463 0.0
C445 C 0.55475 0.4008 0.0658 0.0
C446 C 0.54135 0.40546 0.082 0.0
C447 C 0.52409 0.42038 0.08007 0.0
C448 C 0.59807 0.42043 0.06554 0.0
C449 C 0.53306 0.36462 0.06043 0.0
C450 C 0.48374 0.47067 0.12043 0.0
C451 C 0.48599 0.47483 0.13738 0.0
C452 C 0.50036 0.46225 0.14632 0.0
C453 C 0.51198 0.44518 0.13835 0.0
C454 C 0.50967 0.44124 0.1213 0.0
C455 C 0.49606 0.45419 0.11266 0.0
C456 C 0.49763 0.44944 0.09465 0.0
C457 C 0.51406 0.43106 0.09385 0.0
C458 C 0.52076 0.42615 0.10946 0.0
C459 C 0.52465 0.48334 0.08781 0.0
C460 C 0.45698 0.42883 0.08751 0.0
H461 H 0.57682 0.36562 0.08268 0.0
H462 H 0.57555 0.37512 0.14274 0.0
H463 H 0.49227 0.3536 0.13016 0.0
H464 H 0.49149 0.3852 0.13829 0.0
H465 H 0.51738 0.3748 0.1488 0.0
H466 H 0.60585 0.44109 0.13273 0.0
H467 H 0.57613 0.4277 0.15006 0.0
H468 H 0.57695 0.45312 0.13582 0.0
H469 H 0.56835 0.41431 0.0323 0.0
H470 H 0.50309 0.45053 0.03102 0.0
H471 H 0.49123 0.44296 0.05942 0.0
H472 H 0.6118 0.44677 0.06672 0.0
H473 H 0.60722 0.41537 0.05399 0.0
H474 H 0.60937 0.41552 0.07564 0.0
H475 H 0.50594 0.35486 0.05423 0.0
H476 H 0.52498 0.34928 0.07082 0.0
H477 H 0.54975 0.36084 0.05187 0.0
H478 H 0.60146 0.34426 0.09847 0.0
C479 C 0.57561 0.3676 0.09563 0.0
H480 H 0.28527 0.52524 0.12061 0.0
H481 H 0.34305 0.53333 0.12767 0.0
H482 H 0.36858 0.60605 0.16464 0.0
H483 H 0.311 0.59906 0.15723 0.0
H484 H 0.42436 0.59396 0.13169 0.0
H485 H 0.35441 0.52754 0.18744 0.0
H486 H 0.32656 0.52427 0.17079 0.0
H487 H 0.35566 0.56153 0.18275 0.0
C488 C 0.30362 0.54381 0.12986 0.0
C489 C 0.29322 0.56134 0.13841 0.0
C490 C 0.33661 0.54826 0.13395 0.0
C491 C 0.35978 0.57008 0.14673 0.0
C492 C 0.35081 0.58895 0.15479 0.0
H493 H 0.52805 0.53408 0.15345 0.0
H494 H 0.50681 0.56695 0.16149 0.0
C495 C 0.31781 0.58473 0.1506 0.0
C496 C 0.39069 0.56982 0.15238 0.0
H497 H 0.40286 0.52633 0.17691 0.0
C498 C 0.42083 0.5804 0.14198 0.0
C499 C 0.38578 0.55215 0.16584 0.0
C500 C 0.35393 0.54062 0.17743 0.0
C501 C 0.44377 0.57069 0.14365 0.0
C502 C 0.43604 0.54988 0.15601 0.0
C503 C 0.40861 0.54233 0.16748 0.0
C504 C 0.44866 0.52945 0.15451 0.0
C505 C 0.47329 0.57971 0.13114 0.0
C506 C 0.42268 0.49735 0.14853 0.0
C507 C 0.43468 0.47887 0.14391 0.0
C508 C 0.47275 0.49209 0.14539 0.0
C509 C 0.49846 0.52347 0.15239 0.0
C510 C 0.48645 0.54219 0.1569 0.0
H511 H 0.47574 0.59614 0.1223 0.0
H512 H 0.50107 0.59184 0.13724 0.0
H513 H 0.4663 0.5576 0.1244 0.0
H514 H 0.39345 0.48721 0.14652 0.0
H515 H 0.41457 0.45477 0.13843 0.0
H516 H 0.64912 0.14529 0.47895 0.0
H517 H 0.70609 0.20012 0.47587 0.0
H518 H 0.7726 0.17522 0.49662 0.0
H519 H 0.71556 0.12024 0.5 0.0
H520 H 0.79507 0.23808 0.50721 0.0
H521 H 0.78104 0.21762 0.44021 0.0
H522 H 0.74037 0.21021 0.44998 0.0
H523 H 0.75427 0.18509 0.45369 0.0
C524 C 0.67576 0.15144 0.48302 0.0
C525 C 0.67776 0.12818 0.48957 0.0
C526 C 0.70834 0.18284 0.48121 0.0
C527 C 0.74365 0.1916 0.48576 0.0
C528 C 0.74564 0.16893 0.49297 0.0
H529 H 0.95361 0.34642 0.44565 0.0
H530 H 0.90161 0.29561 0.45662 0.0
C531 C 0.71299 0.13748 0.49486 0.0
C532 C 0.77858 0.22372 0.48207 0.0
H533 H 0.82889 0.27057 0.45056 0.0
C534 C 0.80258 0.24525 0.49484 0.0
C535 C 0.78854 0.23282 0.46591 0.0
C536 C 0.76494 0.21017 0.45163 0.0
C537 C 0.83608 0.27585 0.49184 0.0
C538 C 0.84553 0.28518 0.47567 0.0
C539 C 0.82159 0.26348 0.46296 0.0
C540 C 0.88043 0.3169 0.4714 0.0
C541 C 0.86141 0.29766 0.50594 0.0
C542 C 0.88661 0.34602 0.47644 0.0
C543 C 0.91668 0.37525 0.47026 0.0
C544 C 0.9406 0.37563 0.45879 0.0
C545 C 0.93546 0.34674 0.45442 0.0
C546 C 0.90574 0.31772 0.46067 0.0
H547 H 0.85512 0.28409 0.51697 0.0
H548 H 0.89146 0.31018 0.50292 0.0
H549 H 0.85713 0.31629 0.50879 0.0
H550 H 0.86711 0.34594 0.48448 0.0
H551 H 0.91983 0.39716 0.47367 0.0
H552 H 0.67957 0.75677 0.838 0.0
H553 H 0.67049 0.79778 0.83398 0.0
H554 H 0.57056 0.72825 0.80512 0.0
H555 H 0.57865 0.68682 0.80954 0.0
H556 H 0.67017 0.8204 0.80503 0.0
H557 H 0.53441 0.76803 0.83551 0.0
H558 H 0.56226 0.75409 0.83845 0.0
H559 H 0.53236 0.74035 0.82075 0.0
C560 C 0.6552 0.75 0.83108 0.0
C561 C 0.62978 0.71845 0.82412 0.0
C562 C 0.65019 0.77354 0.82872 0.0
C563 C 0.61955 0.76598 0.81946 0.0
C564 C 0.59396 0.73448 0.8126 0.0
H565 H 0.5502 0.86433 0.77266 0.0
H566 H 0.55713 0.82618 0.78444 0.0
C567 C 0.59892 0.71092 0.81496 0.0
C568 C 0.61573 0.79152 0.81602 0.0
H569 H 0.55442 0.81025 0.81769 0.0
C570 C 0.6451 0.81844 0.80801 0.0
C571 C 0.58299 0.7889 0.81992 0.0
C572 C 0.55136 0.76144 0.82928 0.0
C573 C 0.64199 0.84214 0.80319 0.0
C574 C 0.60882 0.83902 0.80669 0.0
C575 C 0.57981 0.81253 0.81504 0.0
C576 C 0.60284 0.86192 0.80077 0.0
C577 C 0.67356 0.86962 0.79381 0.0
C578 C 0.6256 0.89451 0.80638 0.0
C579 C 0.62176 0.91643 0.79963 0.0
C580 C 0.59515 0.90606 0.78715 0.0
C581 C 0.57137 0.87313 0.78207 0.0
C582 C 0.57512 0.85127 0.78886 0.0
H583 H 0.69403 0.86532 0.78957 0.0
H584 H 0.66225 0.87342 0.78313 0.0
H585 H 0.68889 0.89216 0.80171 0.0
H586 H 0.64685 0.9031 0.81572 0.0
H587 H 0.64054 0.94165 0.80376 0.0
H588 H 0.84793 0.46122 0.21985 0.0
H589 H 0.78043 0.42093 0.21389 0.0
H590 H 0.80629 0.3839 0.17226 0.0
H591 H 0.87287 0.4225 0.1788 0.0
H592 H 0.7535 0.42582 0.18919 0.0
H593 H 0.71116 0.30237 0.18238 0.0
H594 H 0.75372 0.33445 0.19325 0.0
H595 H 0.75367 0.32832 0.17152 0.0
C596 C 0.83884 0.44336 0.20991 0.0
C597 C 0.86535 0.44471 0.19982 0.0
C598 C 0.80037 0.42039 0.20648 0.0
C599 C 0.78795 0.39903 0.19266 0.0
C600 C 0.81461 0.39909 0.18329 0.0
H601 H 0.65734 0.36897 0.11542 0.0
H602 H 0.69785 0.36877 0.13466 0.0
C603 C 0.85289 0.42144 0.18697 0.0
C604 C 0.74929 0.38234 0.18596 0.0
H605 H 0.6804 0.31515 0.16321 0.0
C606 C 0.7369 0.40118 0.18407 0.0
C607 C 0.72734 0.35017 0.17917 0.0
C608 C 0.73707 0.32764 0.18188 0.0
C609 C 0.70522 0.38981 0.17451 0.0
C610 C 0.68557 0.35893 0.16649 0.0
C611 C 0.696 0.33903 0.16924 0.0
C612 C 0.65722 0.34929 0.15385 0.0
C613 C 0.69438 0.41175 0.17209 0.0
C614 C 0.62039 0.33684 0.15809 0.0
C615 C 0.59696 0.33667 0.14706 0.0
C616 C 0.61032 0.34933 0.13173 0.0
C617 C 0.64603 0.35886 0.12705 0.0
C618 C 0.66929 0.35881 0.13805 0.0
H619 H 0.71145 0.43446 0.17986 0.0
H620 H 0.69825 0.41803 0.15922 0.0
H621 H 0.66422 0.39912 0.1749 0.0
H622 H 0.61078 0.32954 0.17029 0.0
H623 H 0.56931 0.3286 0.15091 0.0
H624 H 0.44135 0.93823 0.47353 0.0
H625 H 0.38587 0.88167 0.47218 0.0
H626 H 0.45044 0.85492 0.49309 0.0
H627 H 0.50587 0.91151 0.49482 0.0
H628 H 0.37573 0.83141 0.45545 0.0
H629 H 0.35772 0.80776 0.52076 0.0
H630 H 0.38837 0.84801 0.51359 0.0
H631 H 0.40386 0.8232 0.5138 0.0
C632 C 0.44376 0.92038 0.47794 0.0
C633 C 0.4781 0.92949 0.48432 0.0
C634 C 0.41195 0.88802 0.47718 0.0
C635 C 0.41372 0.86404 0.4828 0.0
C636 C 0.44803 0.87302 0.48909 0.0
H637 H 0.26484 0.66229 0.45163 0.0
H638 H 0.31842 0.71824 0.4586 0.0
C639 C 0.47983 0.90542 0.48994 0.0
C640 C 0.38025 0.8295 0.48118 0.0
H641 H 0.32209 0.76149 0.5022 0.0
C642 C 0.36391 0.81623 0.46571 0.0
C643 C 0.36442 0.80971 0.49458 0.0
C644 C 0.37923 0.82294 0.51164 0.0
C645 C 0.33285 0.78366 0.4632 0.0
C646 C 0.31814 0.7635 0.47647 0.0
C647 C 0.33374 0.77687 0.49202 0.0
C648 C 0.28686 0.72843 0.47419 0.0
C649 C 0.31586 0.7712 0.44635 0.0
C650 C 0.25181 0.71501 0.4814 0.0
C651 C 0.22113 0.68278 0.47755 0.0
C652 C 0.22514 0.66366 0.46643 0.0
C653 C 0.26086 0.67664 0.46008 0.0
C654 C 0.29143 0.70861 0.46399 0.0
H655 H 0.3234 0.79112 0.43871 0.0
H656 H 0.32672 0.75875 0.44043 0.0
H657 H 0.28471 0.75367 0.44675 0.0
H658 H 0.24777 0.72985 0.4894 0.0
H659 H 0.19387 0.6734 0.48256 0.0
H660 H 0.53667 0.31521 0.86595 0.0
H661 H 0.5445 0.27282 0.86103 0.0
H662 H 0.60676 0.31771 0.81793 0.0
H663 H 0.59814 0.35954 0.82238 0.0
H664 H 0.52097 0.23088 0.83108 0.0
H665 H 0.67408 0.3036 0.84483 0.0
H666 H 0.64562 0.31565 0.85215 0.0
H667 H 0.66069 0.32127 0.83149 0.0
C668 C 0.55186 0.31602 0.85536 0.0
C669 C 0.56682 0.34092 0.84458 0.0
C670 C 0.55652 0.29189 0.85265 0.0
C671 C 0.57661 0.29242 0.83924 0.0
C672 C 0.59177 0.31724 0.82852 0.0
H673 H 0.63441 0.1805 0.78972 0.0
H674 H 0.62907 0.22148 0.80158 0.0
C675 C 0.5869 0.34121 0.83113 0.0
C676 C 0.58031 0.26625 0.83593 0.0
H677 H 0.64512 0.25176 0.83159 0.0
C678 C 0.54798 0.23522 0.83138 0.0
C679 C 0.61564 0.27218 0.83631 0.0
C680 C 0.65103 0.3049 0.84158 0.0
C681 C 0.55026 0.21021 0.82647 0.0
C682 C 0.58577 0.21627 0.82654 0.0
C683 C 0.61794 0.24712 0.83157 0.0
C684 C 0.59053 0.19169 0.82024 0.0
C685 C 0.51491 0.17805 0.82049 0.0
C686 C 0.57143 0.16155 0.82705 0.0
C687 C 0.57401 0.1378 0.82013 0.0
C688 C 0.596 0.14391 0.80635 0.0
C689 C 0.61654 0.17471 0.80009 0.0
C690 C 0.61377 0.19829 0.80695 0.0
H691 H 0.49197 0.17975 0.81765 0.0
H692 H 0.52043 0.1684 0.80945 0.0
H693 H 0.50483 0.16051 0.83003 0.0
H694 H 0.554 0.15618 0.83755 0.0
H695 H 0.5578 0.11435 0.82524 0.0
H696 H 0.62758 0.87368 0.48748 0.0
H697 H 0.61974 0.82327 0.48999 0.0
H698 H 0.56053 0.80747 0.53463 0.0
H699 H 0.56792 0.85758 0.53213 0.0
H700 H 0.64698 0.81015 0.51718 0.0
H701 H 0.49264 0.71973 0.50797 0.0
H702 H 0.51862 0.76043 0.50143 0.0
H703 H 0.50656 0.7525 0.52236 0.0
C704 C 0.61233 0.85917 0.49768 0.0
C705 C 0.59836 0.86959 0.50962 0.0
C706 C 0.60802 0.83048 0.49912 0.0
C707 C 0.58918 0.81148 0.51239 0.0
C708 C 0.57465 0.82153 0.52416 0.0
H709 H 0.5466 0.65321 0.56025 0.0
H710 H 0.54749 0.69565 0.54871 0.0
C711 C 0.57921 0.8503 0.52281 0.0
C712 C 0.58688 0.78232 0.5146 0.0
H713 H 0.52465 0.70139 0.51963 0.0
C714 C 0.62033 0.78624 0.51747 0.0
C715 C 0.55204 0.75126 0.51498 0.0
C716 C 0.51539 0.74554 0.51138 0.0
C717 C 0.61977 0.76018 0.52158 0.0
C718 C 0.5848 0.7292 0.52243 0.0
C719 C 0.55143 0.72511 0.51895 0.0
C720 C 0.58205 0.70149 0.52838 0.0
C721 C 0.65649 0.76647 0.52582 0.0
C722 C 0.60027 0.68991 0.52052 0.0
C723 C 0.60024 0.66582 0.52724 0.0
C724 C 0.58178 0.65279 0.54188 0.0
C725 C 0.56186 0.66325 0.54918 0.0
C726 C 0.56206 0.68734 0.54252 0.0
H727 H 0.67966 0.79265 0.52799 0.0
H728 H 0.65365 0.75392 0.53682 0.0
H729 H 0.66465 0.75715 0.51564 0.0
H730 H 0.61517 0.69997 0.50939 0.0
H731 H 0.6158 0.65828 0.5213 0.0
H732 H 0.73766 0.57846 0.82902 0.0
H733 H 0.79234 0.57831 0.82954 0.0
H734 H 0.72553 0.48612 0.85106 0.0
H735 H 0.67093 0.48639 0.85088 0.0
H736 H 0.79259 0.5264 0.86649 0.0
H737 H 0.81812 0.52929 0.80058 0.0
H738 H 0.81732 0.56177 0.80827 0.0
H739 H 0.77532 0.52079 0.80874 0.0
C740 C 0.7344 0.55799 0.83379 0.0
C741 C 0.69944 0.53231 0.83979 0.0
C742 C 0.76581 0.55782 0.83395 0.0
C743 C 0.76328 0.53191 0.84004 0.0
C744 C 0.72847 0.50634 0.84615 0.0
H745 H 0.93631 0.4987 0.83382 0.0
H746 H 0.87999 0.49591 0.82913 0.0
C747 C 0.69704 0.50648 0.84598 0.0
C748 C 0.79714 0.5321 0.84077 0.0
H749 H 0.86685 0.53945 0.81791 0.0
C750 C 0.8086 0.5291 0.85581 0.0
C751 C 0.81814 0.53514 0.82688 0.0
C752 C 0.80644 0.5366 0.81018 0.0
C753 C 0.84061 0.52993 0.85743 0.0
C754 C 0.86254 0.53436 0.84367 0.0
C755 C 0.85053 0.53642 0.82853 0.0
C756 C 0.89833 0.53766 0.84501 0.0
C757 C 0.85046 0.52572 0.87392 0.0
C758 C 0.92832 0.56278 0.85489 0.0
C759 C 0.96044 0.56449 0.85749 0.0
C760 C 0.96384 0.5412 0.85025 0.0
C761 C 0.93484 0.51712 0.83955 0.0
C762 C 0.90247 0.5154 0.83695 0.0
H763 H 0.82581 0.51372 0.88202 0.0
H764 H 0.86119 0.51125 0.87296 0.0
H765 H 0.8728 0.54979 0.87968 0.0
H766 H 0.92654 0.58081 0.86093 0.0
H767 H 0.98236 0.58371 0.8656 0.0
H768 H 0.15156 0.6507 0.16933 0.0
H769 H 0.20945 0.70601 0.16983 0.0
H770 H 0.26784 0.67247 0.14615 0.0
H771 H 0.20983 0.61707 0.14529 0.0
H772 H 0.27478 0.73005 0.18509 0.0
H773 H 0.3 0.7478 0.11933 0.0
H774 H 0.25566 0.71454 0.12712 0.0
H775 H 0.29472 0.7129 0.12562 0.0
C776 C 0.1766 0.65503 0.16411 0.0
C777 C 0.17594 0.62935 0.15726 0.0
C778 C 0.20972 0.68674 0.16438 0.0
C779 C 0.24293 0.69356 0.1578 0.0
C780 C 0.2424 0.66799 0.15093 0.0
H781 H 0.46617 0.86266 0.18591 0.0
H782 H 0.40986 0.80795 0.17887 0.0
C783 C 0.2092 0.63624 0.15057 0.0
C784 C 0.27853 0.72712 0.15912 0.0
H785 H 0.35035 0.78794 0.13725 0.0
C786 C 0.29115 0.74271 0.1746 0.0
C787 C 0.29976 0.74385 0.14543 0.0
C788 C 0.28671 0.72907 0.12842 0.0
C789 C 0.3246 0.77422 0.17682 0.0
C790 C 0.3466 0.7905 0.16321 0.0
C791 C 0.33369 0.77527 0.14767 0.0
C792 C 0.38309 0.82329 0.16512 0.0
C793 C 0.33589 0.78997 0.19374 0.0
C794 C 0.38774 0.85002 0.15891 0.0
C795 C 0.42022 0.88143 0.1628 0.0
C796 C 0.44837 0.88644 0.17297 0.0
C797 C 0.4447 0.85948 0.1782 0.0
C798 C 0.4125 0.82824 0.17424 0.0
H799 H 0.31163 0.77788 0.20206 0.0
H800 H 0.35758 0.78832 0.19867 0.0
H801 H 0.34802 0.81589 0.1937 0.0
H802 H 0.36544 0.8467 0.15177 0.0
H803 H 0.42226 0.90178 0.15868 0.0
H804 H 0.56023 0.1893 0.50748 0.0
H805 H 0.56685 0.23898 0.51337 0.0
H806 H 0.54717 0.24185 0.46289 0.0
H807 H 0.54098 0.19225 0.45681 0.0
H808 H 0.61775 0.3007 0.50035 0.0
H809 H 0.46807 0.24646 0.4869 0.0
H810 H 0.48373 0.22226 0.49 0.0
H811 H 0.49251 0.24106 0.47117 0.0
C812 C 0.55777 0.20065 0.49757 0.0
C813 C 0.55001 0.1867 0.48166 0.0
C814 C 0.56137 0.22898 0.50098 0.0
C815 C 0.55707 0.24388 0.4886 0.0
C816 C 0.54993 0.2304 0.47266 0.0
H817 H 0.61148 0.43677 0.50354 0.0
H818 H 0.60686 0.39031 0.49138 0.0
C819 C 0.54635 0.20204 0.46922 0.0
C820 C 0.55988 0.2734 0.49253 0.0
H821 H 0.50826 0.30199 0.49472 0.0
C822 C 0.59395 0.30113 0.49899 0.0
C823 C 0.52863 0.27372 0.49086 0.0
C824 C 0.49102 0.24427 0.48447 0.0
C825 C 0.59749 0.32907 0.50402 0.0
C826 C 0.56621 0.32933 0.50241 0.0
C827 C 0.53227 0.30176 0.49577 0.0
C828 C 0.56731 0.35704 0.50883 0.0
C829 C 0.63421 0.35771 0.51156 0.0
C830 C 0.54583 0.35342 0.52236 0.0
C831 C 0.54839 0.37978 0.52927 0.0
C832 C 0.57229 0.41026 0.52273 0.0
C833 C 0.59275 0.41357 0.5088 0.0
C834 C 0.59035 0.38715 0.50193 0.0
H835 H 0.65362 0.3518 0.51424 0.0
H836 H 0.64835 0.37756 0.50311 0.0
H837 H 0.62907 0.3667 0.52299 0.0
H838 H 0.52775 0.33034 0.52781 0.0
H839 H 0.53189 0.37638 0.53987 0.0
H840 H 0.46333 0.48308 0.85208 0.0
H841 H 0.40908 0.48384 0.85292 0.0
H842 H 0.47809 0.58055 0.83646 0.0
H843 H 0.53236 0.57972 0.83527 0.0
H844 H 0.39641 0.52094 0.87053 0.0
H845 H 0.38973 0.53979 0.80583 0.0
H846 H 0.41878 0.5294 0.81307 0.0
H847 H 0.43442 0.57036 0.81542 0.0
C848 C 0.46708 0.50451 0.84854 0.0
C849 C 0.50252 0.53128 0.84354 0.0
C850 C 0.43584 0.50492 0.84903 0.0
C851 C 0.43887 0.53202 0.84448 0.0
C852 C 0.47434 0.55893 0.83963 0.0
H853 H 0.28021 0.58023 0.84987 0.0
H854 H 0.33447 0.58012 0.84403 0.0
C855 C 0.50562 0.55851 0.83908 0.0
C856 C 0.40529 0.53235 0.84546 0.0
H857 H 0.3496 0.54332 0.82359 0.0
C858 C 0.38618 0.52568 0.8602 0.0
C859 C 0.39164 0.53871 0.83208 0.0
C860 C 0.40945 0.54468 0.81566 0.0
C861 C 0.35453 0.52549 0.86199 0.0
C862 C 0.34065 0.53154 0.84859 0.0
C863 C 0.35992 0.53857 0.83388 0.0
C864 C 0.30615 0.53043 0.84976 0.0
C865 C 0.3367 0.51949 0.87842 0.0
C866 C 0.27135 0.50219 0.85413 0.0
C867 C 0.24031 0.5022 0.85732 0.0
C868 C 0.24291 0.53028 0.85598 0.0
C869 C 0.27695 0.55799 0.85061 0.0
C870 C 0.30815 0.55801 0.84744 0.0
H871 H 0.35628 0.52412 0.88825 0.0
H872 H 0.32762 0.53495 0.88106 0.0
H873 H 0.31152 0.49387 0.87861 0.0
H874 H 0.26857 0.48037 0.85573 0.0
H875 H 0.21478 0.48067 0.86175 0.0
H876 H 0.9473 0.44187 0.17262 0.0
H877 H 0.89213 0.38587 0.1748 0.0
H878 H 0.93862 0.35494 0.13971 0.0
H879 H 0.9946 0.41103 0.13779 0.0
H880 H 0.83949 0.34037 0.15118 0.0
H881 H 0.91671 0.29994 0.17814 0.0
H882 H 0.9373 0.34205 0.17681 0.0
H883 H 0.93399 0.31866 0.15914 0.0
C884 C 0.94599 0.42323 0.16542 0.0
C885 C 0.97572 0.43102 0.15521 0.0
C886 C 0.91424 0.39119 0.1666 0.0
C887 C 0.9114 0.36612 0.15759 0.0
C888 C 0.94049 0.3738 0.14701 0.0
H889 H 0.73754 0.15728 0.16763 0.0
H890 H 0.78843 0.20827 0.15591 0.0
C891 C 0.97239 0.40594 0.14586 0.0
C892 C 0.87814 0.33206 0.15957 0.0
H893 H 0.85144 0.26094 0.17399 0.0
C894 C 0.84212 0.32293 0.15605 0.0
C895 C 0.88157 0.30922 0.16585 0.0
C896 C 0.91939 0.31787 0.17034 0.0
C897 C 0.80949 0.29181 0.1589 0.0
C898 C 0.81288 0.2694 0.16573 0.0
C899 C 0.84889 0.27812 0.16871 0.0
C900 C 0.77959 0.23805 0.17135 0.0
C901 C 0.77156 0.28307 0.1546 0.0
C902 C 0.75759 0.23782 0.18379 0.0
C903 C 0.72868 0.20891 0.19043 0.0
C904 C 0.72123 0.1795 0.18488 0.0
C905 C 0.7424 0.17952 0.17204 0.0
C906 C 0.77158 0.20862 0.16541 0.0
H907 H 0.77395 0.29996 0.1461 0.0
H908 H 0.75285 0.2581 0.14903 0.0
H909 H 0.75805 0.28407 0.16577 0.0
H910 H 0.76367 0.26021 0.18881 0.0
H911 H 0.71274 0.20967 0.20025 0.0
H912 H 0.05754 0.50045 0.11155 0.0
H913 H 0.06946 0.5035 0.08246 0.0
H914 H 0.08552 0.59392 0.08324 0.0
H915 H 0.07463 0.59141 0.1125 0.0
H916 H 1.03071 0.50476 0.05821 0.0
H917 H 0.17821 0.61606 0.05961 0.0
H918 H 0.15458 0.59477 0.07757 0.0
H919 H 0.14634 0.62152 0.06973 0.0
C920 C 0.06385 0.52109 0.10554 0.0
C921 C 0.06537 0.54581 0.11427 0.0
C922 C 0.07064 0.52279 0.08892 0.0
C923 C 0.07903 0.5492 0.08072 0.0
C924 C 0.08004 0.57372 0.08939 0.0
H925 H 0.09798 0.5936 0.98064 0.0
H926 H 0.09565 0.59286 0.01024 0.0
C927 C 0.07348 0.57213 0.10606 0.0
C928 C 0.08511 0.55028 0.06298 0.0
H929 H 0.14747 0.59626 0.03366 0.0
C930 C 1.05637 0.52463 0.05286 0.0
C931 C 0.11868 0.57619 0.05602 0.0
C932 C 0.15138 0.60355 0.0663 0.0
C933 C 0.05988 0.52457 0.03595 0.0
C934 C 0.09313 0.55073 0.029 0.0
C935 C 0.12203 0.57626 0.03908 0.0
C936 C 0.09757 0.55251 0.01122 0.0
C937 C 1.02761 0.49696 0.02559 0.0
C938 C 0.10034 0.53054 0.00204 0.0
C939 C 0.10169 0.53091 0.98512 0.0
C940 C 0.10012 0.55318 0.97714 0.0
C941 C 0.0987 0.57587 0.98645 0.0
C942 C 0.09758 0.5756 0.00334 0.0
H943 H 1.00152 0.48159 0.03265 0.0
H944 H 1.02163 0.50619 0.01534 0.0
H945 H 1.03537 0.48162 0.02043 0.0
H946 H 0.10072 0.51273 0.00796 0.0
H947 H 0.10263 0.51306 0.97827 0.0
H948 H 0.53579 0.99661 0.44183 0.0
H949 H 0.53235 0.99755 0.41233 0.0
H950 H 0.65364 0.06183 0.41075 0.0
H951 H 0.65716 0.05984 0.4401 0.0
H952 H 0.55551 0.04409 0.39223 0.0
H953 H 0.63075 0.9916 0.37849 0.0
H954 H 0.61513 0.99303 0.39858 0.0
H955 H 0.6582 0.02811 0.39113 0.0
C956 C 0.56167 0.01086 0.43515 0.0
C957 C 0.59674 0.02776 0.44315 0.0
C958 C 0.5597 0.01145 0.41832 0.0
C959 C 0.59275 0.02914 0.40927 0.0
C960 C 0.62778 0.04718 0.41739 0.0
H961 H 0.59699 0.07274 0.3082 0.0
H962 H 0.60272 0.076 0.3377 0.0
C963 C 0.62977 0.0462 0.43417 0.0
C964 C 0.59055 0.02852 0.39133 0.0
H965 H 0.61993 0.0124 0.35642 0.0
C966 C 0.56948 0.03705 0.38438 0.0
C967 C 0.60828 0.01883 0.38109 0.0
C968 C 0.62902 0.00705 0.38769 0.0
C969 C 0.56584 0.03637 0.36749 0.0
C970 C 0.58481 0.0279 0.35727 0.0
C971 C 0.60574 0.01925 0.36424 0.0
C972 C 0.58218 0.02649 0.33931 0.0
C973 C 0.54082 0.04381 0.36082 0.0
C974 C 0.57026 0.99805 0.33031 0.0
C975 C 0.56806 0.9964 0.31343 0.0
C976 C 0.5774 0.0231 0.3051 0.0
C977 C 0.58978 0.05174 0.31414 0.0
C978 C 0.59247 0.0535 0.33107 0.0
H979 H 0.52011 0.04038 0.36988 0.0
H980 H 0.5584 0.0694 0.3576 0.0
H981 H 0.52524 0.02829 0.34976 0.0
H982 H 0.56252 0.97698 0.33638 0.0
H983 H 0.55932 0.97419 0.30691 0.0
H984 H 0.53082 0.48767 0.7883 0.0
H985 H 0.54128 0.4977 0.75942 0.0
H986 H 0.66073 0.56651 0.76881 0.0
H987 H 0.65045 0.55646 0.7978 0.0
H988 H 0.57903 0.55785 0.74317 0.0
H989 H 0.64795 0.49791 0.73466 0.0
H990 H 0.62025 0.49242 0.75221 0.0
H991 H 0.6668 0.52934 0.75051 0.0
C992 C 0.55929 0.50506 0.78422 0.0
C993 C 0.58987 0.52109 0.79522 0.0
C994 C 0.5652 0.51083 0.76775 0.0
C995 C 0.60178 0.53255 0.762 0.0
C996 C 0.63233 0.54936 0.77302 0.0
H997 H 0.64801 0.58593 0.66053 0.0
H998 H 0.64926 0.5893 0.69024 0.0
C999 C 0.62642 0.54368 0.78954 0.0
C1000 C 0.60768 0.53648 0.74437 0.0
H1001 H 0.64014 0.51774 0.71155 0.0
C1002 C 0.59275 0.54944 0.73624 0.0
C1003 C 0.62528 0.52516 0.73542 0.0
C1004 C 0.64083 0.5102 0.74355 0.0
C1005 C 0.59444 0.55092 0.71931 0.0
C1006 C 0.61166 0.53925 0.71035 0.0
C1007 C 0.62715 0.52681 0.71851 0.0
C1008 C 0.61149 0.53762 0.69242 0.0
C1009 C 0.57659 0.56379 0.71103 0.0
C1010 C 0.59024 0.50746 0.68388 0.0
C1011 C 0.58925 0.50542 0.66696 0.0
C1012 C 0.60979 0.53355 0.65823 0.0
C1013 C 0.63143 0.5638 0.66687 0.0
C1014 C 0.63228 0.5658 0.68383 0.0
H1015 H 0.55927 0.56706 0.71945 0.0
H1016 H 0.59899 0.58754 0.70623 0.0
H1017 H 0.55855 0.54723 0.70064 0.0
H1018 H 0.57394 0.48544 0.69033 0.0
H1019 H 0.57182 0.48176 0.66074 0.0
H1020 H 0.62019 0.05452 0.53279 0.0
H1021 H 0.62552 0.05238 0.56205 0.0
H1022 H 0.50647 1.00479 0.56663 0.0
H1023 H 0.50107 0.00721 0.53743 0.0
H1024 H 0.54991 0.05665 0.58864 0.0
H1025 H 0.59094 0.97521 0.58866 0.0
H1026 H 0.62006 0.00931 0.57643 0.0
H1027 H 0.57128 0.97922 0.57098 0.0
C1028 C 0.59514 0.04339 0.54004 0.0
C1029 C 0.56022 0.03103 0.5329 0.0
C1030 C 0.59817 0.04199 0.55672 0.0
C1031 C 0.56629 0.02804 0.56646 0.0
C1032 C 0.53137 0.01552 0.5593 0.0
H1033 H 0.54503 0.98359 0.6678 0.0
H1034 H 0.54019 0.9808 0.63819 0.0
C1035 C 0.52833 0.01693 0.54265 0.0
C1036 C 0.56962 0.02808 0.58425 0.0
H1037 H 0.59566 1.00191 0.61395 0.0
C1038 C 0.55977 0.04458 0.59418 0.0
C1039 C 0.58212 0.01202 0.59142 0.0
C1040 C 0.59139 0.99267 0.58135 0.0
C1041 C 0.56265 0.04592 0.61112 0.0
C1042 C 0.57636 0.0308 0.61828 0.0
C1043 C 0.58555 0.01376 0.60838 0.0
C1044 C 0.58104 0.03232 0.63607 0.0
C1045 C 0.55055 0.06317 0.6212 0.0
C1046 C 0.60628 0.06212 0.6446 0.0
C1047 C 0.60917 0.06379 0.66147 0.0
C1048 C 0.58701 0.03564 0.67013 0.0
C1049 C 0.56265 1.00568 0.66148 0.0
C1050 C 0.55974 1.00404 0.64458 0.0
H1051 H 0.53212 0.06629 0.61416 0.0
H1052 H 0.53528 0.0498 0.6321 0.0
H1053 H 0.57583 0.0875 0.62532 0.0
H1054 H 0.62354 0.08413 0.6382 0.0
H1055 H 0.62875 0.08715 0.66775 0.0
H1056 H 0.67203 0.55581 0.88895 0.0
H1057 H 0.66308 0.53156 0.91484 0.0
H1058 H 0.54458 0.48812 0.91241 0.0
H1059 H 0.55317 0.51076 0.88614 0.0
H1060 H 0.64375 0.54084 0.94228 0.0
H1061 H 0.53665 0.41218 0.92451 0.0
H1062 H 0.5614 0.44236 0.90972 0.0
H1063 H 0.52007 0.43449 0.91927 0.0
C1064 C 0.64406 0.54085 0.89393 0.0
C1065 C 0.61325 0.53505 0.88562 0.0
C1066 C 0.63893 0.52694 0.90869 0.0
C1067 C 0.60298 0.50735 0.91546 0.0
C1068 C 0.57233 0.50208 0.90721 0.0
H1069 H 0.55318 0.48742 0.01547 0.0
H1070 H 0.57077 0.50287 0.98782 0.0
C1071 C 0.57732 0.51538 0.8923 0.0
C1072 C 0.5979 0.49437 0.93167 0.0
H1073 H 0.53949 0.42728 0.95313 0.0
C1074 C 0.62133 0.51585 0.94455 0.0
C1075 C 0.5694 0.46156 0.9347 0.0
C1076 C 0.54582 0.43632 0.92125 0.0
C1077 C 0.61571 0.50592 0.96045 0.0
C1078 C 0.58475 0.47398 0.96371 0.0
C1079 C 0.56271 0.45197 0.95072 0.0
C1080 C 0.57332 0.46368 0.98053 0.0
C1081 C 0.64309 0.52993 0.97355 0.0
C1082 C 0.56694 0.43545 0.98553 0.0
C1083 C 0.55528 0.42568 0.00134 0.0
C1084 C 0.54987 0.44402 0.01244 0.0
C1085 C 0.55626 0.47221 0.00728 0.0
C1086 C 0.5672 0.48157 0.99149 0.0
H1087 H 0.67154 0.54744 0.96856 0.0
H1088 H 0.63344 0.54391 0.97865 0.0
H1089 H 0.64546 0.5178 0.98351 0.0
H1090 H 0.57102 0.42101 0.97722 0.0
H1091 H 0.55016 0.40363 0.00476 0.0
H1092 H 0.07337 0.46722 0.19935 0.0
H1093 H 0.06842 0.46644 0.22896 0.0
H1094 H 0.10179 0.56345 0.23128 0.0
H1095 H 0.10756 0.5646 0.20177 0.0
H1096 H 0.14121 0.55397 0.25294 0.0
H1097 H 0.98676 0.45955 0.25695 0.0
H1098 H 1.01076 0.44822 0.24436 0.0
H1099 H 1.00894 0.47997 0.2386 0.0
C1100 C 0.07956 0.48832 0.20621 0.0
C1101 C 0.09056 0.51588 0.19832 0.0
C1102 C 0.07642 0.48774 0.22307 0.0
C1103 C 0.08412 0.51469 0.23226 0.0
C1104 C 0.0954 0.54231 0.22438 0.0
H1105 H 0.09317 0.57034 0.33354 0.0
H1106 H 0.09202 0.56611 0.30392 0.0
C1107 C 0.09855 0.5429 0.20755 0.0
C1108 C 0.08211 0.51474 0.25015 0.0
H1109 H 1.0221 0.47804 0.28159 0.0
C1110 C 0.11516 0.53744 0.25921 0.0
C1111 C 1.04808 0.49304 0.25826 0.0
C1112 C 1.0115 0.46896 0.24908 0.0
C1113 C 0.11519 0.53891 0.2762 0.0
C1114 C 0.08114 0.51741 0.28431 0.0
C1115 C 1.04812 0.49447 0.27528 0.0
C1116 C 0.07939 0.5189 0.3022 0.0
C1117 C 0.15177 0.5632 0.28534 0.0
C1118 C 0.0715 0.49329 0.31098 0.0
C1119 C 0.07227 0.49566 0.32794 0.0
C1120 C 0.08079 0.52367 0.33635 0.0
C1121 C 0.08731 0.54876 0.32744 0.0
C1122 C 0.08657 0.54636 0.31052 0.0
H1123 H 0.17653 0.57248 0.27751 0.0
H1124 H 0.15246 0.584 0.2899 0.0
H1125 H 0.15433 0.55243 0.29594 0.0
H1126 H 0.06577 0.47186 0.30473 0.0
H1127 H 0.06736 0.47602 0.33444 0.0
loop_
_geom_bond_atom_site_label_1
_geom_bond_atom_site_label_2
_geom_bond_distance
_geom_bond_site_symmetry_2
_ccdc_geom_bond_type
Gd0 C3 2.818 . S
Gd0 O20 2.377 . S
Gd0 O22 2.448 . S
Gd0 O23 2.506 . S
Gd0 O24 2.435 . S
Gd0 O25 2.717 . S
Gd0 O27 2.395 1_455 S
Gd0 O31 2.327 . S
Gd1 C12 2.818 1_455 S
Gd1 O21 2.395 . S
Gd1 O25 2.327 . S
Gd1 O26 2.377 1_455 S
Gd1 O28 2.448 1_455 S
Gd1 O29 2.506 1_455 S
Gd1 O30 2.435 . S
Gd1 O31 2.717 . S
C2 O20 1.240 . S
C2 O21 1.240 . S
C3 Gd0 2.818 . S
C3 C4 1.510 . S
C3 O22 1.249 . S
C3 O23 1.252 . S
C4 C3 1.510 . S
C4 C5 1.404 . S
C4 C6 1.352 . S
C5 C4 1.404 . S
C5 C9 1.389 . S
C5 H32 0.930 . S
C6 C4 1.352 . S
C6 C8 1.374 . S
C6 H33 0.931 . S
C7 C8 1.359 . S
C7 C9 1.364 . S
C8 C6 1.374 . S
C8 C7 1.359 . S
C8 H34 0.931 . S
C9 C5 1.389 . S
C9 C7 1.364 . S
C9 H35 0.931 . S
C10 O24 1.256 . S
C10 O25 1.257 . S
C11 O26 1.240 . S
C11 O27 1.240 . S
C12 Gd1 2.818 1_655 S
C12 C13 1.510 . S
C12 O28 1.249 . S
C12 O29 1.252 . S
C13 C12 1.510 . S
C13 C14 1.404 . S
C13 C15 1.352 . S
C14 C13 1.404 . S
C14 C18 1.389 . S
C14 H36 0.930 . S
C15 C13 1.352 . S
C15 C17 1.374 . S
C15 H37 0.931 . S
C16 C17 1.359 . S
C16 C18 1.364 . S
C17 C15 1.374 . S
C17 C16 1.359 . S
C17 H38 0.931 . S
C18 C14 1.389 . S
C18 C16 1.364 . S
C18 H39 0.931 . S
C19 O30 1.256 . S
C19 O31 1.257 . S
O20 Gd0 2.377 . S
O20 C2 1.240 . S
O21 Gd1 2.395 . S
O21 C2 1.240 . S
O22 Gd0 2.448 . S
O22 C3 1.249 . S
O23 Gd0 2.506 . S
O23 C3 1.252 . S
O24 Gd0 2.435 . S
O24 C10 1.256 . S
O25 Gd0 2.717 . S
O25 Gd1 2.327 . S
O25 C10 1.257 . S
O26 Gd1 2.377 1_655 S
O26 C11 1.240 . S
O27 Gd0 2.395 1_655 S
O27 C11 1.240 . S
O28 Gd1 2.448 1_655 S
O28 C12 1.249 . S
O29 Gd1 2.506 1_655 S
O29 C12 1.252 . S
O30 Gd1 2.435 . S
O30 C19 1.256 . S
O31 Gd0 2.327 . S
O31 Gd1 2.717 . S
O31 C19 1.257 . S
H32 C5 0.930 . S
H33 C6 0.931 . S
H34 C8 0.931 . S
H35 C9 0.931 . S
H36 C14 0.930 . S
H37 C15 0.931 . S
H38 C17 0.931 . S
H39 C18 0.931 . S
Gd40 C43 2.818 . S
Gd40 O60 2.377 . S
Gd40 O62 2.448 . S
Gd40 O63 2.506 . S
Gd40 O64 2.435 . S
Gd40 O65 2.717 1_565 S
Gd40 O67 2.395 1_565 S
Gd40 O71 2.327 1_565 S
Gd41 C52 2.818 . S
Gd41 O61 2.395 1_545 S
Gd41 O65 2.327 . S
Gd41 O66 2.377 . S
Gd41 O68 2.448 . S
Gd41 O69 2.506 . S
Gd41 O70 2.435 . S
Gd41 O71 2.717 . S
C42 O60 1.240 . S
C42 O61 1.240 . S
C43 Gd40 2.818 . S
C43 C44 1.510 . S
C43 O62 1.249 . S
C43 O63 1.252 . S
C44 C43 1.510 . S
C44 C45 1.404 . S
C44 C46 1.352 . S
C45 C44 1.404 . S
C45 C49 1.389 . S
C45 H72 0.930 . S
C46 C44 1.352 . S
C46 C48 1.374 . S
C46 H73 0.931 . S
C47 C48 1.359 . S
C47 C49 1.364 . S
C48 C46 1.374 . S
C48 C47 1.359 . S
C48 H74 0.931 . S
C49 C45 1.389 . S
C49 C47 1.364 . S
C49 H75 0.931 . S
C50 O64 1.256 1_545 S
C50 O65 1.257 . S
C51 O66 1.240 . S
C51 O67 1.240 . S
C52 Gd41 2.818 . S
C52 C53 1.510 . S
C52 O68 1.249 . S
C52 O69 1.252 . S
C53 C52 1.510 . S
C53 C54 1.404 . S
C53 C55 1.352 . S
C54 C53 1.404 . S
C54 C58 1.389 . S
C54 H76 0.930 . S
C55 C53 1.352 . S
C55 C57 1.374 . S
C55 H77 0.931 . S
C56 C57 1.359 . S
C56 C58 1.364 . S
C57 C55 1.374 . S
C57 C56 1.359 . S
C57 H78 0.931 . S
C58 C54 1.389 . S
C58 C56 1.364 . S
C58 H79 0.931 . S
C59 O70 1.256 . S
C59 O71 1.257 . S
O60 Gd40 2.377 . S
O60 C42 1.240 . S
O61 Gd41 2.395 1_565 S
O61 C42 1.240 . S
O62 Gd40 2.448 . S
O62 C43 1.249 . S
O63 Gd40 2.506 . S
O63 C43 1.252 . S
O64 Gd40 2.435 . S
O64 C50 1.256 1_565 S
O65 Gd40 2.717 1_545 S
O65 Gd41 2.327 . S
O65 C50 1.257 . S
O66 Gd41 2.377 . S
O66 C51 1.240 . S
O67 Gd40 2.395 1_545 S
O67 C51 1.240 . S
O68 Gd41 2.448 . S
O68 C52 1.249 . S
O69 Gd41 2.506 . S
O69 C52 1.252 . S
O70 Gd41 2.435 . S
O70 C59 1.256 . S
O71 Gd40 2.327 1_545 S
O71 Gd41 2.717 . S
O71 C59 1.257 . S
H72 C45 0.930 . S
H73 C46 0.931 . S
H74 C48 0.931 . S
H75 C49 0.931 . S
H76 C54 0.930 . S
H77 C55 0.931 . S
H78 C57 0.931 . S
H79 C58 0.931 . S
Gd80 C83 2.818 . S
Gd80 O100 2.377 . S
Gd80 O102 2.448 . S
Gd80 O103 2.506 . S
Gd80 O104 2.435 . S
Gd80 O105 2.717 . S
Gd80 O107 2.395 . S
Gd80 O111 2.327 . S
Gd81 C92 2.818 . S
Gd81 O101 2.395 . S
Gd81 O105 2.327 . S
Gd81 O106 2.377 . S
Gd81 O108 2.448 . S
Gd81 O109 2.506 . S
Gd81 O110 2.435 . S
Gd81 O111 2.717 . S
C82 O100 1.240 . S
C82 O101 1.240 . S
C83 Gd80 2.818 . S
C83 C84 1.510 . S
C83 O102 1.249 . S
C83 O103 1.252 . S
C84 C83 1.510 . S
C84 C85 1.404 . S
C84 C86 1.352 . S
C85 C84 1.404 . S
C85 C89 1.389 . S
C85 H112 0.930 . S
C86 C84 1.352 . S
C86 C88 1.374 . S
C86 H113 0.931 . S
C87 C88 1.359 . S
C87 C89 1.364 . S
C88 C86 1.374 . S
C88 C87 1.359 . S
C88 H114 0.931 . S
C89 C85 1.389 . S
C89 C87 1.364 . S
C89 H115 0.931 . S
C90 O104 1.256 . S
C90 O105 1.257 . S
C91 O106 1.240 . S
C91 O107 1.240 . S
C92 Gd81 2.818 . S
C92 C93 1.510 . S
C92 O108 1.249 . S
C92 O109 1.252 . S
C93 C92 1.510 . S
C93 C94 1.404 . S
C93 C95 1.352 . S
C94 C93 1.404 . S
C94 C98 1.389 . S
C94 H116 0.930 . S
C95 C93 1.352 . S
C95 C97 1.374 . S
C95 H117 0.931 . S
C96 C97 1.359 . S
C96 C98 1.364 . S
C97 C95 1.374 . S
C97 C96 1.359 . S
C97 H118 0.931 . S
C98 C94 1.389 . S
C98 C96 1.364 . S
C98 H119 0.931 . S
C99 O110 1.256 . S
C99 O111 1.257 . S
O100 Gd80 2.377 . S
O100 C82 1.240 . S
O101 Gd81 2.395 . S
O101 C82 1.240 . S
O102 Gd80 2.448 . S
O102 C83 1.249 . S
O103 Gd80 2.506 . S
O103 C83 1.252 . S
O104 Gd80 2.435 . S
O104 C90 1.256 . S
O105 Gd80 2.717 . S
O105 Gd81 2.327 . S
O105 C90 1.257 . S
O106 Gd81 2.377 . S
O106 C91 1.240 . S
O107 Gd80 2.395 . S
O107 C91 1.240 . S
O108 Gd81 2.448 . S
O108 C92 1.249 . S
O109 Gd81 2.506 . S
O109 C92 1.252 . S
O110 Gd81 2.435 . S
O110 C99 1.256 . S
O111 Gd80 2.327 . S
O111 Gd81 2.717 . S
O111 C99 1.257 . S
H112 C85 0.930 . S
H113 C86 0.931 . S
H114 C88 0.931 . S
H115 C89 0.931 . S
H116 C94 0.930 . S
H117 C95 0.931 . S
H118 C97 0.931 . S
H119 C98 0.931 . S
C120 C121 1.391 . S
C120 C124 1.391 . S
C120 H162 0.948 . S
C121 C120 1.391 . S
C121 C122 1.391 . S
C122 C121 1.391 . S
C122 H178 0.947 . S
C122 C179 1.392 . S
C123 C124 1.391 . S
C123 C127 1.397 . S
C123 C179 1.419 . S
C124 C120 1.391 . S
C124 C123 1.391 . S
C124 C125 1.399 . S
C125 C124 1.399 . S
C125 C128 1.396 . S
C125 C137 1.453 . S
C125 C138 1.684 . S
H126 C150 0.948 . S
C127 C123 1.397 . S
C127 C128 1.394 . S
C127 C146 1.723 . S
C128 C125 1.396 . S
C128 C127 1.394 . S
C128 C158 1.723 1_545 S
H129 C152 0.947 . S
H130 C153 0.948 . S
H131 C159 0.982 . S
H132 C160 0.979 . S
H133 C160 0.980 . S
H134 C160 0.983 . S
H135 C159 0.979 . S
H136 C159 0.977 . S
C137 C125 1.453 . S
C137 H166 0.982 . S
C137 H167 0.979 . S
C137 H168 0.977 . S
C138 C125 1.684 . S
C138 H163 0.979 . S
C138 H164 0.980 . S
C138 H165 0.983 . S
C139 C140 1.391 . S
C139 C144 1.391 . S
C139 H169 0.948 . S
C140 C139 1.391 . S
C140 C141 1.391 1_545 S
C141 C140 1.391 1_565 S
C141 C142 1.392 . S
C141 H170 0.947 . S
C142 C141 1.392 . S
C142 C143 1.419 1_565 S
C142 H171 0.948 . S
C143 C142 1.419 1_545 S
C143 C144 1.391 . S
C143 C147 1.397 . S
C144 C139 1.391 . S
C144 C143 1.391 . S
C144 C145 1.399 . S
C145 C144 1.399 . S
C145 C146 1.396 . S
C145 C148 1.453 . S
C145 C149 1.684 . S
C146 C127 1.723 . S
C146 C145 1.396 . S
C146 C147 1.394 . S
C147 C143 1.397 . S
C147 C146 1.394 . S
C147 C157 1.723 1_545 S
C148 C145 1.453 . S
C148 H172 0.982 . S
C148 H173 0.979 . S
C148 H174 0.977 . S
C149 C145 1.684 . S
C149 H175 0.979 . S
C149 H176 0.980 . S
C149 H177 0.983 . S
C150 H126 0.948 . S
C150 C151 1.391 . S
C150 C155 1.391 . S
C151 C150 1.391 . S
C151 C152 1.391 . S
C152 H129 0.947 . S
C152 C151 1.391 . S
C152 C153 1.392 . S
C153 H130 0.948 . S
C153 C152 1.392 . S
C153 C154 1.419 . S
C154 C153 1.419 . S
C154 C155 1.391 . S
C154 C158 1.397 . S
C155 C150 1.391 . S
C155 C154 1.391 . S
C155 C156 1.399 . S
C156 C155 1.399 . S
C156 C157 1.396 . S
C156 C159 1.453 . S
C156 C160 1.684 . S
C157 C147 1.723 1_565 S
C157 C156 1.396 . S
C157 C158 1.394 . S
C158 C128 1.723 1_565 S
C158 C154 1.397 . S
C158 C157 1.394 . S
C159 H131 0.982 . S
C159 H135 0.979 . S
C159 H136 0.977 . S
C159 C156 1.453 . S
C160 H132 0.979 . S
C160 H133 0.980 . S
C160 H134 0.983 . S
C160 C156 1.684 . S
H161 C179 0.948 . S
H162 C120 0.948 . S
H163 C138 0.979 . S
H164 C138 0.980 . S
H165 C138 0.983 . S
H166 C137 0.982 . S
H167 C137 0.979 . S
H168 C137 0.977 . S
H169 C139 0.948 . S
H170 C141 0.947 . S
H171 C142 0.948 . S
H172 C148 0.982 . S
H173 C148 0.979 . S
H174 C148 0.977 . S
H175 C149 0.979 . S
H176 C149 0.980 . S
H177 C149 0.983 . S
H178 C122 0.947 . S
C179 C122 1.392 . S
C179 C123 1.419 . S
C179 H161 0.948 . S
C180 C181 1.391 . S
C180 C184 1.391 . S
C180 H222 0.948 . S
C181 C180 1.391 . S
C181 C182 1.391 . S
C182 C181 1.391 . S
C182 H238 0.947 . S
C182 C239 1.392 . S
C183 C184 1.391 . S
C183 C187 1.397 . S
C183 C239 1.419 . S
C184 C180 1.391 . S
C184 C183 1.391 . S
C184 C185 1.399 . S
C185 C184 1.399 . S
C185 C188 1.396 . S
C185 C197 1.453 . S
C185 C198 1.684 . S
H186 C210 0.948 . S
C187 C183 1.397 . S
C187 C188 1.394 . S
C187 C206 1.723 . S
C188 C185 1.396 . S
C188 C187 1.394 . S
C188 C218 1.723 . S
H189 C212 0.947 . S
H190 C213 0.948 . S
H191 C219 0.982 . S
H192 C220 0.979 . S
H193 C220 0.980 . S
H194 C220 0.983 . S
H195 C219 0.979 . S
H196 C219 0.977 . S
C197 C185 1.453 . S
C197 H226 0.982 . S
C197 H227 0.979 . S
C197 H228 0.977 . S
C198 C185 1.684 . S
C198 H223 0.979 . S
C198 H224 0.980 . S
C198 H225 0.983 . S
C199 C200 1.391 . S
C199 C204 1.391 . S
C199 H229 0.948 . S
C200 C199 1.391 . S
C200 C201 1.391 . S
C201 C200 1.391 . S
C201 C202 1.392 . S
C201 H230 0.947 . S
C202 C201 1.392 . S
C202 C203 1.419 . S
C202 H231 0.948 . S
C203 C202 1.419 . S
C203 C204 1.391 . S
C203 C207 1.397 . S
C204 C199 1.391 . S
C204 C203 1.391 . S
C204 C205 1.399 . S
C205 C204 1.399 . S
C205 C206 1.396 . S
C205 C208 1.453 . S
C205 C209 1.684 . S
C206 C187 1.723 . S
C206 C205 1.396 . S
C206 C207 1.394 . S
C207 C203 1.397 . S
C207 C206 1.394 . S
C207 C217 1.723 . S
C208 C205 1.453 . S
C208 H232 0.982 . S
C208 H233 0.979 . S
C208 H234 0.977 . S
C209 C205 1.684 . S
C209 H235 0.979 . S
C209 H236 0.980 . S
C209 H237 0.983 . S
C210 H186 0.948 . S
C210 C211 1.391 . S
C210 C215 1.391 . S
C211 C210 1.391 . S
C211 C212 1.391 . S
C212 H189 0.947 . S
C212 C211 1.391 . S
C212 C213 1.392 . S
C213 H190 0.948 . S
C213 C212 1.392 . S
C213 C214 1.419 . S
C214 C213 1.419 . S
C214 C215 1.391 . S
C214 C218 1.397 . S
C215 C210 1.391 . S
C215 C214 1.391 . S
C215 C216 1.399 . S
C216 C215 1.399 . S
C216 C217 1.396 . S
C216 C219 1.453 . S
C216 C220 1.684 . S
C217 C207 1.723 . S
C217 C216 1.396 . S
C217 C218 1.394 . S
C218 C188 1.723 . S
C218 C214 1.397 . S
C218 C217 1.394 . S
C219 H191 0.982 . S
C219 H195 0.979 . S
C219 H196 0.977 . S
C219 C216 1.453 . S
C220 H192 0.979 . S
C220 H193 0.980 . S
C220 H194 0.983 . S
C220 C216 1.684 . S
H221 C239 0.948 . S
H222 C180 0.948 . S
H223 C198 0.979 . S
H224 C198 0.980 . S
H225 C198 0.983 . S
H226 C197 0.982 . S
H227 C197 0.979 . S
H228 C197 0.977 . S
H229 C199 0.948 . S
H230 C201 0.947 . S
H231 C202 0.948 . S
H232 C208 0.982 . S
H233 C208 0.979 . S
H234 C208 0.977 . S
H235 C209 0.979 . S
H236 C209 0.980 . S
H237 C209 0.983 . S
H238 C182 0.947 . S
C239 C182 1.392 . S
C239 C183 1.419 . S
C239 H221 0.948 . S
C240 C241 1.391 . S
C240 C244 1.391 . S
C240 H282 0.948 . S
C241 C240 1.391 . S
C241 C242 1.391 . S
C242 C241 1.391 . S
C242 H298 0.947 . S
C242 C299 1.392 . S
C243 C244 1.391 . S
C243 C247 1.397 . S
C243 C299 1.419 . S
C244 C240 1.391 . S
C244 C243 1.391 . S
C244 C245 1.399 . S
C245 C244 1.399 . S
C245 C248 1.396 . S
C245 C257 1.453 . S
C245 C258 1.684 . S
H246 C270 0.948 . S
C247 C243 1.397 . S
C247 C248 1.394 . S
C247 C266 1.723 . S
C248 C245 1.396 . S
C248 C247 1.394 . S
C248 C278 1.723 . S
H249 C272 0.947 . S
H250 C273 0.948 . S
H251 C279 0.982 . S
H252 C280 0.979 1_455 S
H253 C280 0.970 1_455 S
H254 C280 0.983 . S
H255 C279 0.979 . S
H256 C279 0.977 . S
C257 C245 1.453 . S
C257 H286 0.982 . S
C257 H287 0.979 . S
C257 H288 0.977 . S
C258 C245 1.684 . S
C258 H283 0.979 . S
C258 H284 0.980 . S
C258 H285 0.983 . S
C259 C260 1.391 . S
C259 C264 1.391 . S
C259 H289 0.948 . S
C260 C259 1.391 . S
C260 C261 1.391 . S
C261 C260 1.391 . S
C261 C262 1.392 . S
C261 H290 0.947 . S
C262 C261 1.392 . S
C262 C263 1.419 . S
C262 H291 0.948 . S
C263 C262 1.419 . S
C263 C264 1.391 . S
C263 C267 1.397 . S
C264 C259 1.391 . S
C264 C263 1.391 . S
C264 C265 1.399 . S
C265 C264 1.399 . S
C265 C266 1.396 . S
C265 C268 1.453 . S
C265 C269 1.684 . S
C266 C247 1.723 . S
C266 C265 1.396 . S
C266 C267 1.394 . S
C267 C263 1.397 . S
C267 C266 1.394 . S
C267 C277 1.723 . S
C268 C265 1.453 . S
C268 H292 0.982 . S
C268 H293 0.979 . S
C268 H294 0.977 . S
C269 C265 1.684 . S
C269 H295 0.979 . S
C269 H296 0.980 . S
C269 H297 0.983 . S
C270 H246 0.948 . S
C270 C271 1.391 . S
C270 C275 1.391 . S
C271 C270 1.391 . S
C271 C272 1.391 . S
C272 H249 0.947 . S
C272 C271 1.391 . S
C272 C273 1.392 1_655 S
C273 H250 0.948 . S
C273 C272 1.392 1_455 S
C273 C274 1.419 . S
C274 C273 1.419 . S
C274 C275 1.391 1_455 S
C274 C278 1.397 . S
C275 C270 1.391 . S
C275 C274 1.391 1_655 S
C275 C276 1.407 . S
C276 C275 1.407 . S
C276 C277 1.370 1_655 S
C276 C279 1.463 . S
C276 C280 1.697 . S
C277 C267 1.723 . S
C277 C276 1.370 1_455 S
C277 C278 1.394 . S
C278 C248 1.723 . S
C278 C274 1.397 . S
C278 C277 1.394 . S
C279 H251 0.982 . S
C279 H255 0.979 . S
C279 H256 0.977 . S
C279 C276 1.463 . S
C280 H252 0.979 1_655 S
C280 H253 0.970 1_655 S
C280 H254 0.983 . S
C280 C276 1.697 . S
H281 C299 0.948 . S
H282 C240 0.948 . S
H283 C258 0.979 . S
H284 C258 0.980 . S
H285 C258 0.983 . S
H286 C257 0.982 . S
H287 C257 0.979 . S
H288 C257 0.977 . S
H289 C259 0.948 . S
H290 C261 0.947 . S
H291 C262 0.948 . S
H292 C268 0.982 . S
H293 C268 0.979 . S
H294 C268 0.977 . S
H295 C269 0.979 . S
H296 C269 0.980 . S
H297 C269 0.983 . S
H298 C242 0.947 . S
C299 C242 1.392 . S
C299 C243 1.419 . S
C299 H281 0.948 . S
C300 C301 1.391 . S
C300 C304 1.391 . S
C300 H342 0.948 . S
C301 C300 1.391 . S
C301 C302 1.391 . S
C302 C301 1.391 . S
C302 H358 0.947 . S
C302 C359 1.392 . S
C303 C304 1.391 . S
C303 C307 1.397 . S
C303 C359 1.419 . S
C304 C300 1.391 . S
C304 C303 1.391 . S
C304 C305 1.399 . S
C305 C304 1.399 . S
C305 C308 1.396 . S
C305 C317 1.453 . S
C305 C318 1.684 . S
H306 C330 0.948 . S
C307 C303 1.397 . S
C307 C308 1.394 . S
C307 C326 1.723 . S
C308 C305 1.396 . S
C308 C307 1.394 . S
C308 C338 1.723 1_655 S
H309 C332 0.947 . S
H310 C333 0.948 . S
H311 C339 0.982 . S
H312 C340 0.979 . S
H313 C340 0.980 . S
H314 C340 0.983 . S
H315 C339 0.979 . S
H316 C339 0.977 . S
C317 C305 1.453 . S
C317 H346 0.982 1_655 S
C317 H347 0.979 . S
C317 H348 0.977 1_655 S
C318 C305 1.684 . S
C318 H343 0.979 . S
C318 H344 0.980 . S
C318 H345 0.983 . S
C319 C320 1.391 1_655 S
C319 C324 1.391 . S
C319 H349 0.948 . S
C320 C319 1.391 1_455 S
C320 C321 1.391 . S
C321 C320 1.391 . S
C321 C322 1.392 . S
C321 H350 0.947 . S
C322 C321 1.392 . S
C322 C323 1.419 . S
C322 H351 0.948 . S
C323 C322 1.419 . S
C323 C324 1.391 1_455 S
C323 C327 1.397 . S
C324 C319 1.391 . S
C324 C323 1.391 1_655 S
C324 C325 1.399 . S
C325 C324 1.399 . S
C325 C326 1.396 . S
C325 C328 1.453 . S
C325 C329 1.684 . S
C326 C307 1.723 . S
C326 C325 1.396 . S
C326 C327 1.394 1_655 S
C327 C323 1.397 . S
C327 C326 1.394 1_455 S
C327 C337 1.723 . S
C328 C325 1.453 . S
C328 H352 0.982 . S
C328 H353 0.979 . S
C328 H354 0.977 . S
C329 C325 1.684 . S
C329 H355 0.979 . S
C329 H356 0.980 . S
C329 H357 0.983 . S
C330 H306 0.948 . S
C330 C331 1.391 . S
C330 C335 1.391 . S
C331 C330 1.391 . S
C331 C332 1.391 . S
C332 H309 0.947 . S
C332 C331 1.391 . S
C332 C333 1.392 . S
C333 H310 0.948 . S
C333 C332 1.392 . S
C333 C334 1.419 . S
C334 C333 1.419 . S
C334 C335 1.391 . S
C334 C338 1.397 . S
C335 C330 1.391 . S
C335 C334 1.391 . S
C335 C336 1.399 . S
C336 C335 1.399 . S
C336 C337 1.396 . S
C336 C339 1.453 . S
C336 C340 1.684 . S
C337 C327 1.723 . S
C337 C336 1.396 . S
C337 C338 1.394 . S
C338 C308 1.723 1_455 S
C338 C334 1.397 . S
C338 C337 1.394 . S
C339 H311 0.982 . S
C339 H315 0.979 . S
C339 H316 0.977 . S
C339 C336 1.453 . S
C340 H312 0.979 . S
C340 H313 0.980 . S
C340 H314 0.983 . S
C340 C336 1.684 . S
H341 C359 0.948 . S
H342 C300 0.948 . S
H343 C318 0.979 . S
H344 C318 0.980 . S
H345 C318 0.983 . S
H346 C317 0.982 1_455 S
H347 C317 0.979 . S
H348 C317 0.977 1_455 S
H349 C319 0.948 . S
H350 C321 0.947 . S
H351 C322 0.948 . S
H352 C328 0.982 . S
H353 C328 0.979 . S
H354 C328 0.977 . S
H355 C329 0.979 . S
H356 C329 0.980 . S
H357 C329 0.983 . S
H358 C302 0.947 . S
C359 C302 1.392 . S
C359 C303 1.419 . S
C359 H341 0.948 . S
C360 C361 1.391 . S
C360 C364 1.391 . S
C360 H402 0.948 . S
C361 C360 1.391 . S
C361 C362 1.391 . S
C362 C361 1.391 . S
C362 H418 0.947 . S
C362 C419 1.392 . S
C363 C364 1.391 . S
C363 C367 1.397 . S
C363 C419 1.419 . S
C364 C360 1.391 . S
C364 C363 1.391 . S
C364 C365 1.399 . S
C365 C364 1.399 . S
C365 C368 1.396 . S
C365 C377 1.453 1_565 S
C365 C378 1.684 . S
H366 C390 0.948 . S
C367 C363 1.397 . S
C367 C368 1.394 . S
C367 C386 1.723 . S
C368 C365 1.396 . S
C368 C367 1.394 . S
C368 C398 1.723 1_565 S
H369 C392 0.947 . S
H370 C393 0.948 . S
H371 C399 0.982 . S
H372 C400 0.979 . S
H373 C400 0.980 . S
H374 C400 0.983 . S
H375 C399 0.979 . S
H376 C399 0.977 . S
C377 C365 1.453 1_545 S
C377 H406 0.982 . S
C377 H407 0.985 . S
C377 H408 0.977 . S
C378 C365 1.684 . S
C378 H403 0.979 . S
C378 H404 0.977 1_565 S
C378 H405 0.983 . S
C379 C380 1.405 . S
C379 C384 1.391 . S
C379 H409 0.948 . S
C380 C379 1.405 . S
C380 C381 1.377 1_565 S
C381 C380 1.377 1_545 S
C381 C382 1.392 . S
C381 H410 0.947 . S
C382 C381 1.392 . S
C382 C383 1.419 . S
C382 H411 0.948 . S
C383 C382 1.419 . S
C383 C384 1.391 1_545 S
C383 C387 1.397 . S
C384 C379 1.391 . S
C384 C383 1.391 1_565 S
C384 C385 1.399 . S
C385 C384 1.399 . S
C385 C386 1.396 . S
C385 C388 1.453 . S
C385 C389 1.684 . S
C386 C367 1.723 . S
C386 C385 1.396 . S
C386 C387 1.394 1_565 S
C387 C383 1.397 . S
C387 C386 1.394 1_545 S
C387 C397 1.723 . S
C388 C385 1.453 . S
C388 H412 0.982 . S
C388 H413 0.979 . S
C388 H414 0.977 . S
C389 C385 1.684 . S
C389 H415 0.979 . S
C389 H416 0.980 . S
C389 H417 0.983 . S
C390 H366 0.948 . S
C390 C391 1.391 . S
C390 C395 1.391 . S
C391 C390 1.391 . S
C391 C392 1.391 . S
C392 H369 0.947 . S
C392 C391 1.391 . S
C392 C393 1.392 . S
C393 H370 0.948 . S
C393 C392 1.392 . S
C393 C394 1.419 . S
C394 C393 1.419 . S
C394 C395 1.391 . S
C394 C398 1.397 . S
C395 C390 1.391 . S
C395 C394 1.391 . S
C395 C396 1.399 . S
C396 C395 1.399 . S
C396 C397 1.396 . S
C396 C399 1.453 . S
C396 C400 1.684 . S
C397 C387 1.723 . S
C397 C396 1.396 . S
C397 C398 1.394 . S
C398 C368 1.723 1_545 S
C398 C394 1.397 . S
C398 C397 1.394 . S
C399 H371 0.982 . S
C399 H375 0.979 . S
C399 H376 0.977 . S
C399 C396 1.453 . S
C400 H372 0.979 . S
C400 H373 0.980 . S
C400 H374 0.983 . S
C400 C396 1.684 . S
H401 C419 0.948 . S
H402 C360 0.948 . S
H403 C378 0.979 . S
H404 C378 0.977 1_545 S
H405 C378 0.983 . S
H406 C377 0.982 . S
H407 C377 0.985 . S
H408 C377 0.977 . S
H409 C379 0.948 . S
H410 C381 0.947 . S
H411 C382 0.948 . S
H412 C388 0.982 . S
H413 C388 0.979 . S
H414 C388 0.977 . S
H415 C389 0.979 . S
H416 C389 0.980 . S
H417 C389 0.983 . S
H418 C362 0.947 . S
C419 C362 1.392 . S
C419 C363 1.419 . S
C419 H401 0.948 . S
C420 C421 1.391 . S
C420 C424 1.391 . S
C420 H462 0.948 . S
C421 C420 1.391 . S
C421 C422 1.391 . S
C422 C421 1.391 . S
C422 H478 0.947 . S
C422 C479 1.392 . S
C423 C424 1.391 . S
C423 C427 1.397 . S
C423 C479 1.419 . S
C424 C420 1.391 . S
C424 C423 1.391 . S
C424 C425 1.399 . S
C425 C424 1.399 . S
C425 C428 1.396 . S
C425 C437 1.453 . S
C425 C438 1.684 . S
H426 C450 0.948 . S
C427 C423 1.397 . S
C427 C428 1.394 . S
C427 C446 1.723 . S
C428 C425 1.396 . S
C428 C427 1.394 . S
C428 C458 1.723 . S
H429 C452 0.947 . S
H430 C453 0.948 . S
H431 C459 0.982 . S
H432 C460 0.979 . S
H433 C460 0.980 . S
H434 C460 0.983 . S
H435 C459 0.979 . S
H436 C459 0.977 . S
C437 C425 1.453 . S
C437 H466 0.982 . S
C437 H467 0.979 . S
C437 H468 0.977 . S
C438 C425 1.684 . S
C438 H463 0.979 . S
C438 H464 0.980 . S
C438 H465 0.983 . S
C439 C440 1.391 . S
C439 C444 1.391 . S
C439 H469 0.948 . S
C440 C439 1.391 . S
C440 C441 1.391 . S
C441 C440 1.391 . S
C441 C442 1.392 . S
C441 H470 0.947 . S
C442 C441 1.392 . S
C442 C443 1.419 . S
C442 H471 0.948 . S
C443 C442 1.419 . S
C443 C444 1.391 . S
C443 C447 1.397 . S
C444 C439 1.391 . S
C444 C443 1.391 . S
C444 C445 1.399 . S
C445 C444 1.399 . S
C445 C446 1.396 . S
C445 C448 1.453 . S
C445 C449 1.684 . S
C446 C427 1.723 . S
C446 C445 1.396 . S
C446 C447 1.394 . S
C447 C443 1.397 . S
C447 C446 1.394 . S
C447 C457 1.723 . S
C448 C445 1.453 . S
C448 H472 0.982 . S
C448 H473 0.979 . S
C448 H474 0.977 . S
C449 C445 1.684 . S
C449 H475 0.979 . S
C449 H476 0.980 . S
C449 H477 0.983 . S
C450 H426 0.948 . S
C450 C451 1.391 . S
C450 C455 1.391 . S
C451 C450 1.391 . S
C451 C452 1.391 . S
C452 H429 0.947 . S
C452 C451 1.391 . S
C452 C453 1.392 . S
C453 H430 0.948 . S
C453 C452 1.392 . S
C453 C454 1.419 . S
C454 C453 1.419 . S
C454 C455 1.391 . S
C454 C458 1.397 . S
C455 C450 1.391 . S
C455 C454 1.391 . S
C455 C456 1.399 . S
C456 C455 1.399 . S
C456 C457 1.396 . S
C456 C459 1.453 . S
C456 C460 1.684 . S
C457 C447 1.723 . S
C457 C456 1.396 . S
C457 C458 1.394 . S
C458 C428 1.723 . S
C458 C454 1.397 . S
C458 C457 1.394 . S
C459 H431 0.982 . S
C459 H435 0.979 . S
C459 H436 0.977 . S
C459 C456 1.453 . S
C460 H432 0.979 . S
C460 H433 0.980 . S
C460 H434 0.983 . S
C460 C456 1.684 . S
H461 C479 0.948 . S
H462 C420 0.948 . S
H463 C438 0.979 . S
H464 C438 0.980 . S
H465 C438 0.983 . S
H466 C437 0.982 . S
H467 C437 0.979 . S
H468 C437 0.977 . S
H469 C439 0.948 . S
H470 C441 0.947 . S
H471 C442 0.948 . S
H472 C448 0.982 . S
H473 C448 0.979 . S
H474 C448 0.977 . S
H475 C449 0.979 . S
H476 C449 0.980 . S
H477 C449 0.983 . S
H478 C422 0.947 . S
C479 C422 1.392 . S
C479 C423 1.419 . S
C479 H461 0.948 . S
H480 C488 0.929 . S
H481 C490 0.930 . S
H482 C492 0.930 . S
H483 C495 0.929 . S
H484 C498 0.930 . S
H485 C500 0.960 . S
H486 C500 0.960 . S
H487 C500 0.960 . S
C488 H480 0.929 . S
C488 C489 1.377 . S
C488 C490 1.384 . S
C489 C488 1.377 . S
C489 C495 1.390 . S
C490 H481 0.930 . S
C490 C488 1.384 . S
C490 C491 1.372 . S
C491 C490 1.372 . S
C491 C492 1.400 . S
C491 C496 1.490 . S
C492 H482 0.930 . S
C492 C491 1.400 . S
C492 C495 1.386 . S
H493 C509 0.930 . S
H494 C510 0.931 . S
C495 H483 0.929 . S
C495 C489 1.390 . S
C495 C492 1.386 . S
C496 C491 1.490 . S
C496 C498 1.395 . S
C496 C499 1.403 . S
H497 C503 0.930 . S
C498 H484 0.930 . S
C498 C496 1.395 . S
C498 C501 1.403 . S
C499 C496 1.403 . S
C499 C500 1.524 . S
C499 C503 1.400 . S
C500 H485 0.960 . S
C500 H486 0.960 . S
C500 H487 0.960 . S
C500 C499 1.524 . S
C501 C498 1.403 . S
C501 C502 1.392 . S
C501 C505 1.495 . S
C502 C501 1.392 . S
C502 C503 1.385 . S
C502 C504 1.478 . S
C503 H497 0.930 . S
C503 C499 1.400 . S
C503 C502 1.385 . S
C504 C502 1.478 . S
C504 C506 1.381 . S
C504 C510 1.383 . S
C505 C501 1.495 . S
C505 H511 0.959 . S
C505 H512 0.961 . S
C505 H513 0.960 . S
C506 C504 1.381 . S
C506 C507 1.394 . S
C506 H514 0.930 . S
C507 C506 1.394 . S
C507 C508 1.383 . S
C507 H515 0.929 . S
C508 C507 1.383 . S
C508 C509 1.377 . S
C509 H493 0.930 . S
C509 C508 1.377 . S
C509 C510 1.379 . S
C510 H494 0.931 . S
C510 C504 1.383 . S
C510 C509 1.379 . S
H511 C505 0.959 . S
H512 C505 0.961 . S
H513 C505 0.960 . S
H514 C506 0.930 . S
H515 C507 0.929 . S
H516 C524 0.929 . S
H517 C526 0.930 . S
H518 C528 0.930 . S
H519 C531 0.929 . S
H520 C534 0.930 . S
H521 C536 0.960 . S
H522 C536 0.960 . S
H523 C536 0.960 . S
C524 H516 0.929 . S
C524 C525 1.377 . S
C524 C526 1.384 . S
C525 C524 1.377 . S
C525 C531 1.390 . S
C526 H517 0.930 . S
C526 C524 1.384 . S
C526 C527 1.372 . S
C527 C526 1.372 . S
C527 C528 1.400 . S
C527 C532 1.490 . S
C528 H518 0.930 . S
C528 C527 1.400 . S
C528 C531 1.386 . S
H529 C545 0.930 . S
H530 C546 0.931 . S
C531 H519 0.929 . S
C531 C525 1.390 . S
C531 C528 1.386 . S
C532 C527 1.490 . S
C532 C534 1.395 . S
C532 C535 1.403 . S
H533 C539 0.930 . S
C534 H520 0.930 . S
C534 C532 1.395 . S
C534 C537 1.403 . S
C535 C532 1.403 . S
C535 C536 1.524 . S
C535 C539 1.400 . S
C536 H521 0.960 . S
C536 H522 0.960 . S
C536 H523 0.960 . S
C536 C535 1.524 . S
C537 C534 1.403 . S
C537 C538 1.392 . S
C537 C541 1.495 . S
C538 C537 1.392 . S
C538 C539 1.385 . S
C538 C540 1.478 . S
C539 H533 0.930 . S
C539 C535 1.400 . S
C539 C538 1.385 . S
C540 C538 1.478 . S
C540 C542 1.381 . S
C540 C546 1.383 . S
C541 C537 1.495 . S
C541 H547 0.959 . S
C541 H548 0.961 . S
C541 H549 0.960 . S
C542 C540 1.381 . S
C542 C543 1.394 . S
C542 H550 0.930 . S
C543 C542 1.394 . S
C543 C544 1.383 . S
C543 H551 0.929 . S
C544 C543 1.383 . S
C544 C545 1.377 . S
C545 H529 0.930 . S
C545 C544 1.377 . S
C545 C546 1.379 . S
C546 H530 0.931 . S
C546 C540 1.383 . S
C546 C545 1.379 . S
H547 C541 0.959 . S
H548 C541 0.961 . S
H549 C541 0.960 . S
H550 C542 0.930 . S
H551 C543 0.929 . S
H552 C560 0.929 . S
H553 C562 0.930 . S
H554 C564 0.930 . S
H555 C567 0.929 . S
H556 C570 0.930 . S
H557 C572 0.960 . S
H558 C572 0.960 . S
H559 C572 0.960 . S
C560 H552 0.929 . S
C560 C561 1.377 . S
C560 C562 1.384 . S
C561 C560 1.377 . S
C561 C567 1.390 . S
C562 H553 0.930 . S
C562 C560 1.384 . S
C562 C563 1.372 . S
C563 C562 1.372 . S
C563 C564 1.400 . S
C563 C568 1.490 . S
C564 H554 0.930 . S
C564 C563 1.400 . S
C564 C567 1.386 . S
H565 C581 0.930 . S
H566 C582 0.931 . S
C567 H555 0.929 . S
C567 C561 1.390 . S
C567 C564 1.386 . S
C568 C563 1.490 . S
C568 C570 1.395 . S
C568 C571 1.403 . S
H569 C575 0.930 . S
C570 H556 0.930 . S
C570 C568 1.395 . S
C570 C573 1.403 . S
C571 C568 1.403 . S
C571 C572 1.524 . S
C571 C575 1.400 . S
C572 H557 0.960 . S
C572 H558 0.960 . S
C572 H559 0.960 . S
C572 C571 1.524 . S
C573 C570 1.403 . S
C573 C574 1.392 . S
C573 C577 1.495 . S
C574 C573 1.392 . S
C574 C575 1.385 . S
C574 C576 1.478 . S
C575 H569 0.930 . S
C575 C571 1.400 . S
C575 C574 1.385 . S
C576 C574 1.478 . S
C576 C578 1.381 . S
C576 C582 1.383 . S
C577 C573 1.495 . S
C577 H583 0.959 . S
C577 H584 0.961 . S
C577 H585 0.960 . S
C578 C576 1.381 . S
C578 C579 1.394 . S
C578 H586 0.930 . S
C579 C578 1.394 . S
C579 C580 1.383 . S
C579 H587 0.929 . S
C580 C579 1.383 . S
C580 C581 1.377 . S
C581 H565 0.930 . S
C581 C580 1.377 . S
C581 C582 1.379 . S
C582 H566 0.931 . S
C582 C576 1.383 . S
C582 C581 1.379 . S
H583 C577 0.959 . S
H584 C577 0.961 . S
H585 C577 0.960 . S
H586 C578 0.930 . S
H587 C579 0.929 . S
H588 C596 0.929 . S
H589 C598 0.930 . S
H590 C600 0.930 . S
H591 C603 0.929 . S
H592 C606 0.930 . S
H593 C608 0.960 . S
H594 C608 0.960 . S
H595 C608 0.960 . S
C596 H588 0.929 . S
C596 C597 1.377 . S
C596 C598 1.384 . S
C597 C596 1.377 . S
C597 C603 1.390 . S
C598 H589 0.930 . S
C598 C596 1.384 . S
C598 C599 1.372 . S
C599 C598 1.372 . S
C599 C600 1.400 . S
C599 C604 1.490 . S
C600 H590 0.930 . S
C600 C599 1.400 . S
C600 C603 1.386 . S
H601 C617 0.930 . S
H602 C618 0.931 . S
C603 H591 0.929 . S
C603 C597 1.390 . S
C603 C600 1.386 . S
C604 C599 1.490 . S
C604 C606 1.395 . S
C604 C607 1.403 . S
H605 C611 0.930 . S
C606 H592 0.930 . S
C606 C604 1.395 . S
C606 C609 1.403 . S
C607 C604 1.403 . S
C607 C608 1.524 . S
C607 C611 1.400 . S
C608 H593 0.960 . S
C608 H594 0.960 . S
C608 H595 0.960 . S
C608 C607 1.524 . S
C609 C606 1.403 . S
C609 C610 1.392 . S
C609 C613 1.495 . S
C610 C609 1.392 . S
C610 C611 1.385 . S
C610 C612 1.478 . S
C611 H605 0.930 . S
C611 C607 1.400 . S
C611 C610 1.385 . S
C612 C610 1.478 . S
C612 C614 1.381 . S
C612 C618 1.383 . S
C613 C609 1.495 . S
C613 H619 0.959 . S
C613 H620 0.961 . S
C613 H621 0.960 . S
C614 C612 1.381 . S
C614 C615 1.394 . S
C614 H622 0.930 . S
C615 C614 1.394 . S
C615 C616 1.383 . S
C615 H623 0.929 . S
C616 C615 1.383 . S
C616 C617 1.377 . S
C617 H601 0.930 . S
C617 C616 1.377 . S
C617 C618 1.379 . S
C618 H602 0.931 . S
C618 C612 1.383 . S
C618 C617 1.379 . S
H619 C613 0.959 . S
H620 C613 0.961 . S
H621 C613 0.960 . S
H622 C614 0.930 . S
H623 C615 0.929 . S
H624 C632 0.929 . S
H625 C634 0.930 . S
H626 C636 0.930 . S
H627 C639 0.929 . S
H628 C642 0.930 . S
H629 C644 0.960 . S
H630 C644 0.960 . S
H631 C644 0.960 . S
C632 H624 0.929 . S
C632 C633 1.377 . S
C632 C634 1.384 . S
C633 C632 1.377 . S
C633 C639 1.390 . S
C634 H625 0.930 . S
C634 C632 1.384 . S
C634 C635 1.372 . S
C635 C634 1.372 . S
C635 C636 1.400 . S
C635 C640 1.490 . S
C636 H626 0.930 . S
C636 C635 1.400 . S
C636 C639 1.386 . S
H637 C653 0.930 . S
H638 C654 0.931 . S
C639 H627 0.929 . S
C639 C633 1.390 . S
C639 C636 1.386 . S
C640 C635 1.490 . S
C640 C642 1.395 . S
C640 C643 1.403 . S
H641 C647 0.930 . S
C642 H628 0.930 . S
C642 C640 1.395 . S
C642 C645 1.403 . S
C643 C640 1.403 . S
C643 C644 1.524 . S
C643 C647 1.400 . S
C644 H629 0.960 . S
C644 H630 0.960 . S
C644 H631 0.960 . S
C644 C643 1.524 . S
C645 C642 1.403 . S
C645 C646 1.392 . S
C645 C649 1.495 . S
C646 C645 1.392 . S
C646 C647 1.385 . S
C646 C648 1.478 . S
C647 H641 0.930 . S
C647 C643 1.400 . S
C647 C646 1.385 . S
C648 C646 1.478 . S
C648 C650 1.381 . S
C648 C654 1.383 . S
C649 C645 1.495 . S
C649 H655 0.959 . S
C649 H656 0.961 . S
C649 H657 0.960 . S
C650 C648 1.381 . S
C650 C651 1.394 . S
C650 H658 0.930 . S
C651 C650 1.394 . S
C651 C652 1.383 . S
C651 H659 0.929 . S
C652 C651 1.383 . S
C652 C653 1.377 . S
C653 H637 0.930 . S
C653 C652 1.377 . S
C653 C654 1.379 . S
C654 H638 0.931 . S
C654 C648 1.383 . S
C654 C653 1.379 . S
H655 C649 0.959 . S
H656 C649 0.961 . S
H657 C649 0.960 . S
H658 C650 0.930 . S
H659 C651 0.929 . S
H660 C668 0.929 . S
H661 C670 0.930 . S
H662 C672 0.930 . S
H663 C675 0.929 . S
H664 C678 0.930 . S
H665 C680 0.960 . S
H666 C680 0.960 . S
H667 C680 0.960 . S
C668 H660 0.929 . S
C668 C669 1.377 . S
C668 C670 1.384 . S
C669 C668 1.377 . S
C669 C675 1.390 . S
C670 H661 0.930 . S
C670 C668 1.384 . S
C670 C671 1.372 . S
C671 C670 1.372 . S
C671 C672 1.400 . S
C671 C676 1.490 . S
C672 H662 0.930 . S
C672 C671 1.400 . S
C672 C675 1.386 . S
H673 C689 0.930 . S
H674 C690 0.931 . S
C675 H663 0.929 . S
C675 C669 1.390 . S
C675 C672 1.386 . S
C676 C671 1.490 . S
C676 C678 1.395 . S
C676 C679 1.403 . S
H677 C683 0.930 . S
C678 H664 0.930 . S
C678 C676 1.395 . S
C678 C681 1.403 . S
C679 C676 1.403 . S
C679 C680 1.524 . S
C679 C683 1.400 . S
C680 H665 0.960 . S
C680 H666 0.960 . S
C680 H667 0.960 . S
C680 C679 1.524 . S
C681 C678 1.403 . S
C681 C682 1.392 . S
C681 C685 1.495 . S
C682 C681 1.392 . S
C682 C683 1.385 . S
C682 C684 1.478 . S
C683 H677 0.930 . S
C683 C679 1.400 . S
C683 C682 1.385 . S
C684 C682 1.478 . S
C684 C686 1.381 . S
C684 C690 1.383 . S
C685 C681 1.495 . S
C685 H691 0.959 . S
C685 H692 0.961 . S
C685 H693 0.960 . S
C686 C684 1.381 . S
C686 C687 1.394 . S
C686 H694 0.930 . S
C687 C686 1.394 . S
C687 C688 1.383 . S
C687 H695 0.929 . S
C688 C687 1.383 . S
C688 C689 1.377 . S
C689 H673 0.930 . S
C689 C688 1.377 . S
C689 C690 1.379 . S
C690 H674 0.931 . S
C690 C684 1.383 . S
C690 C689 1.379 . S
H691 C685 0.959 . S
H692 C685 0.961 . S
H693 C685 0.960 . S
H694 C686 0.930 . S
H695 C687 0.929 . S
H696 C704 0.929 . S
H697 C706 0.930 . S
H698 C708 0.930 . S
H699 C711 0.929 . S
H700 C714 0.930 . S
H701 C716 0.960 . S
H702 C716 0.960 . S
H703 C716 0.960 . S
C704 H696 0.929 . S
C704 C705 1.377 . S
C704 C706 1.384 . S
C705 C704 1.377 . S
C705 C711 1.390 . S
C706 H697 0.930 . S
C706 C704 1.384 . S
C706 C707 1.372 . S
C707 C706 1.372 . S
C707 C708 1.400 . S
C707 C712 1.490 . S
C708 H698 0.930 . S
C708 C707 1.400 . S
C708 C711 1.386 . S
H709 C725 0.930 . S
H710 C726 0.931 . S
C711 H699 0.929 . S
C711 C705 1.390 . S
C711 C708 1.386 . S
C712 C707 1.490 . S
C712 C714 1.395 . S
C712 C715 1.403 . S
H713 C719 0.930 . S
C714 H700 0.930 . S
C714 C712 1.395 . S
C714 C717 1.403 . S
C715 C712 1.403 . S
C715 C716 1.524 . S
C715 C719 1.400 . S
C716 H701 0.960 . S
C716 H702 0.960 . S
C716 H703 0.960 . S
C716 C715 1.524 . S
C717 C714 1.403 . S
C717 C718 1.392 . S
C717 C721 1.495 . S
C718 C717 1.392 . S
C718 C719 1.385 . S
C718 C720 1.478 . S
C719 H713 0.930 . S
C719 C715 1.400 . S
C719 C718 1.385 . S
C720 C718 1.478 . S
C720 C722 1.381 . S
C720 C726 1.383 . S
C721 C717 1.495 . S
C721 H727 0.959 . S
C721 H728 0.961 . S
C721 H729 0.960 . S
C722 C720 1.381 . S
C722 C723 1.394 . S
C722 H730 0.930 . S
C723 C722 1.394 . S
C723 C724 1.383 . S
C723 H731 0.929 . S
C724 C723 1.383 . S
C724 C725 1.377 . S
C725 H709 0.930 . S
C725 C724 1.377 . S
C725 C726 1.379 . S
C726 H710 0.931 . S
C726 C720 1.383 . S
C726 C725 1.379 . S
H727 C721 0.959 . S
H728 C721 0.961 . S
H729 C721 0.960 . S
H730 C722 0.930 . S
H731 C723 0.929 . S
H732 C740 0.929 . S
H733 C742 0.930 . S
H734 C744 0.930 . S
H735 C747 0.929 . S
H736 C750 0.930 . S
H737 C752 0.960 . S
H738 C752 0.960 . S
H739 C752 0.960 . S
C740 H732 0.929 . S
C740 C741 1.377 . S
C740 C742 1.384 . S
C741 C740 1.377 . S
C741 C747 1.390 . S
C742 H733 0.930 . S
C742 C740 1.384 . S
C742 C743 1.372 . S
C743 C742 1.372 . S
C743 C744 1.400 . S
C743 C748 1.490 . S
C744 H734 0.930 . S
C744 C743 1.400 . S
C744 C747 1.386 . S
H745 C761 0.930 . S
H746 C762 0.931 . S
C747 H735 0.929 . S
C747 C741 1.390 . S
C747 C744 1.386 . S
C748 C743 1.490 . S
C748 C750 1.395 . S
C748 C751 1.403 . S
H749 C755 0.930 . S
C750 H736 0.930 . S
C750 C748 1.395 . S
C750 C753 1.403 . S
C751 C748 1.403 . S
C751 C752 1.524 . S
C751 C755 1.400 . S
C752 H737 0.960 . S
C752 H738 0.960 . S
C752 H739 0.960 . S
C752 C751 1.524 . S
C753 C750 1.403 . S
C753 C754 1.392 . S
C753 C757 1.495 . S
C754 C753 1.392 . S
C754 C755 1.385 . S
C754 C756 1.478 . S
C755 H749 0.930 . S
C755 C751 1.400 . S
C755 C754 1.385 . S
C756 C754 1.478 . S
C756 C758 1.381 . S
C756 C762 1.383 . S
C757 C753 1.495 . S
C757 H763 0.959 . S
C757 H764 0.961 . S
C757 H765 0.960 . S
C758 C756 1.381 . S
C758 C759 1.394 . S
C758 H766 0.930 . S
C759 C758 1.394 . S
C759 C760 1.383 . S
C759 H767 0.929 . S
C760 C759 1.383 . S
C760 C761 1.377 . S
C761 H745 0.930 . S
C761 C760 1.377 . S
C761 C762 1.379 . S
C762 H746 0.931 . S
C762 C756 1.383 . S
C762 C761 1.379 . S
H763 C757 0.959 . S
H764 C757 0.961 . S
H765 C757 0.960 . S
H766 C758 0.930 . S
H767 C759 0.929 . S
H768 C776 0.929 . S
H769 C778 0.930 . S
H770 C780 0.930 . S
H771 C783 0.929 . S
H772 C786 0.930 . S
H773 C788 0.960 . S
H774 C788 0.960 . S
H775 C788 0.960 . S
C776 H768 0.929 . S
C776 C777 1.377 . S
C776 C778 1.384 . S
C777 C776 1.377 . S
C777 C783 1.390 . S
C778 H769 0.930 . S
C778 C776 1.384 . S
C778 C779 1.372 . S
C779 C778 1.372 . S
C779 C780 1.400 . S
C779 C784 1.490 . S
C780 H770 0.930 . S
C780 C779 1.400 . S
C780 C783 1.386 . S
H781 C797 0.930 . S
H782 C798 0.931 . S
C783 H771 0.929 . S
C783 C777 1.390 . S
C783 C780 1.386 . S
C784 C779 1.490 . S
C784 C786 1.395 . S
C784 C787 1.403 . S
H785 C791 0.930 . S
C786 H772 0.930 . S
C786 C784 1.395 . S
C786 C789 1.403 . S
C787 C784 1.403 . S
C787 C788 1.524 . S
C787 C791 1.400 . S
C788 H773 0.960 . S
C788 H774 0.960 . S
C788 H775 0.960 . S
C788 C787 1.524 . S
C789 C786 1.403 . S
C789 C790 1.392 . S
C789 C793 1.495 . S
C790 C789 1.392 . S
C790 C791 1.385 . S
C790 C792 1.478 . S
C791 H785 0.930 . S
C791 C787 1.400 . S
C791 C790 1.385 . S
C792 C790 1.478 . S
C792 C794 1.381 . S
C792 C798 1.383 . S
C793 C789 1.495 . S
C793 H799 0.959 . S
C793 H800 0.961 . S
C793 H801 0.960 . S
C794 C792 1.381 . S
C794 C795 1.394 . S
C794 H802 0.930 . S
C795 C794 1.394 . S
C795 C796 1.383 . S
C795 H803 0.929 . S
C796 C795 1.383 . S
C796 C797 1.377 . S
C797 H781 0.930 . S
C797 C796 1.377 . S
C797 C798 1.379 . S
C798 H782 0.931 . S
C798 C792 1.383 . S
C798 C797 1.379 . S
H799 C793 0.959 . S
H800 C793 0.961 . S
H801 C793 0.960 . S
H802 C794 0.930 . S
H803 C795 0.929 . S
H804 C812 0.929 . S
H805 C814 0.930 . S
H806 C816 0.930 . S
H807 C819 0.929 . S
H808 C822 0.930 . S
H809 C824 0.960 . S
H810 C824 0.960 . S
H811 C824 0.960 . S
C812 H804 0.929 . S
C812 C813 1.377 . S
C812 C814 1.384 . S
C813 C812 1.377 . S
C813 C819 1.390 . S
C814 H805 0.930 . S
C814 C812 1.384 . S
C814 C815 1.372 . S
C815 C814 1.372 . S
C815 C816 1.400 . S
C815 C820 1.490 . S
C816 H806 0.930 . S
C816 C815 1.400 . S
C816 C819 1.386 . S
H817 C833 0.930 . S
H818 C834 0.931 . S
C819 H807 0.929 . S
C819 C813 1.390 . S
C819 C816 1.386 . S
C820 C815 1.490 . S
C820 C822 1.395 . S
C820 C823 1.403 . S
H821 C827 0.930 . S
C822 H808 0.930 . S
C822 C820 1.395 . S
C822 C825 1.403 . S
C823 C820 1.403 . S
C823 C824 1.524 . S
C823 C827 1.400 . S
C824 H809 0.960 . S
C824 H810 0.960 . S
C824 H811 0.960 . S
C824 C823 1.524 . S
C825 C822 1.403 . S
C825 C826 1.392 . S
C825 C829 1.495 . S
C826 C825 1.392 . S
C826 C827 1.385 . S
C826 C828 1.478 . S
C827 H821 0.930 . S
C827 C823 1.400 . S
C827 C826 1.385 . S
C828 C826 1.478 . S
C828 C830 1.381 . S
C828 C834 1.383 . S
C829 C825 1.495 . S
C829 H835 0.959 . S
C829 H836 0.961 . S
C829 H837 0.960 . S
C830 C828 1.381 . S
C830 C831 1.394 . S
C830 H838 0.930 . S
C831 C830 1.394 . S
C831 C832 1.383 . S
C831 H839 0.929 . S
C832 C831 1.383 . S
C832 C833 1.377 . S
C833 H817 0.930 . S
C833 C832 1.377 . S
C833 C834 1.379 . S
C834 H818 0.931 . S
C834 C828 1.383 . S
C834 C833 1.379 . S
H835 C829 0.959 . S
H836 C829 0.961 . S
H837 C829 0.960 . S
H838 C830 0.930 . S
H839 C831 0.929 . S
H840 C848 0.929 . S
H841 C850 0.930 . S
H842 C852 0.930 . S
H843 C855 0.929 . S
H844 C858 0.930 . S
H845 C860 0.960 . S
H846 C860 0.960 . S
H847 C860 0.960 . S
C848 H840 0.929 . S
C848 C849 1.377 . S
C848 C850 1.384 . S
C849 C848 1.377 . S
C849 C855 1.390 . S
C850 H841 0.930 . S
C850 C848 1.384 . S
C850 C851 1.372 . S
C851 C850 1.372 . S
C851 C852 1.400 . S
C851 C856 1.490 . S
C852 H842 0.930 . S
C852 C851 1.400 . S
C852 C855 1.386 . S
H853 C869 0.930 . S
H854 C870 0.931 . S
C855 H843 0.929 . S
C855 C849 1.390 . S
C855 C852 1.386 . S
C856 C851 1.490 . S
C856 C858 1.395 . S
C856 C859 1.403 . S
H857 C863 0.930 . S
C858 H844 0.930 . S
C858 C856 1.395 . S
C858 C861 1.403 . S
C859 C856 1.403 . S
C859 C860 1.524 . S
C859 C863 1.400 . S
C860 H845 0.960 . S
C860 H846 0.960 . S
C860 H847 0.960 . S
C860 C859 1.524 . S
C861 C858 1.403 . S
C861 C862 1.392 . S
C861 C865 1.495 . S
C862 C861 1.392 . S
C862 C863 1.385 . S
C862 C864 1.478 . S
C863 H857 0.930 . S
C863 C859 1.400 . S
C863 C862 1.385 . S
C864 C862 1.478 . S
C864 C866 1.381 . S
C864 C870 1.383 . S
C865 C861 1.495 . S
C865 H871 0.959 . S
C865 H872 0.961 . S
C865 H873 0.960 . S
C866 C864 1.381 . S
C866 C867 1.394 . S
C866 H874 0.930 . S
C867 C866 1.394 . S
C867 C868 1.383 . S
C867 H875 0.929 . S
C868 C867 1.383 . S
C868 C869 1.377 . S
C869 H853 0.930 . S
C869 C868 1.377 . S
C869 C870 1.379 . S
C870 H854 0.931 . S
C870 C864 1.383 . S
C870 C869 1.379 . S
H871 C865 0.959 . S
H872 C865 0.961 . S
H873 C865 0.960 . S
H874 C866 0.930 . S
H875 C867 0.929 . S
H876 C884 0.929 . S
H877 C886 0.930 . S
H878 C888 0.930 . S
H879 C891 0.929 . S
H880 C894 0.930 . S
H881 C896 0.960 . S
H882 C896 0.960 . S
H883 C896 0.960 . S
C884 H876 0.929 . S
C884 C885 1.377 . S
C884 C886 1.384 . S
C885 C884 1.377 . S
C885 C891 1.390 . S
C886 H877 0.930 . S
C886 C884 1.384 . S
C886 C887 1.372 . S
C887 C886 1.372 . S
C887 C888 1.400 . S
C887 C892 1.490 . S
C888 H878 0.930 . S
C888 C887 1.400 . S
C888 C891 1.386 . S
H889 C905 0.930 . S
H890 C906 0.931 . S
C891 H879 0.929 . S
C891 C885 1.390 . S
C891 C888 1.386 . S
C892 C887 1.490 . S
C892 C894 1.395 . S
C892 C895 1.403 . S
H893 C899 0.930 . S
C894 H880 0.930 . S
C894 C892 1.395 . S
C894 C897 1.403 . S
C895 C892 1.403 . S
C895 C896 1.524 . S
C895 C899 1.400 . S
C896 H881 0.960 . S
C896 H882 0.960 . S
C896 H883 0.960 . S
C896 C895 1.524 . S
C897 C894 1.403 . S
C897 C898 1.392 . S
C897 C901 1.495 . S
C898 C897 1.392 . S
C898 C899 1.385 . S
C898 C900 1.478 . S
C899 H893 0.930 . S
C899 C895 1.400 . S
C899 C898 1.385 . S
C900 C898 1.478 . S
C900 C902 1.381 . S
C900 C906 1.383 . S
C901 C897 1.495 . S
C901 H907 0.959 . S
C901 H908 0.961 . S
C901 H909 0.960 . S
C902 C900 1.381 . S
C902 C903 1.394 . S
C902 H910 0.930 . S
C903 C902 1.394 . S
C903 C904 1.383 . S
C903 H911 0.929 . S
C904 C903 1.383 . S
C904 C905 1.377 . S
C905 H889 0.930 . S
C905 C904 1.377 . S
C905 C906 1.379 . S
C906 H890 0.931 . S
C906 C900 1.383 . S
C906 C905 1.379 . S
H907 C901 0.959 . S
H908 C901 0.961 . S
H909 C901 0.960 . S
H910 C902 0.930 . S
H911 C903 0.929 . S
H912 C920 0.929 . S
H913 C922 0.930 . S
H914 C924 0.930 . S
H915 C927 0.929 . S
H916 C930 0.930 . S
H917 C932 0.960 . S
H918 C932 0.960 . S
H919 C932 0.960 . S
C920 H912 0.929 . S
C920 C921 1.377 . S
C920 C922 1.384 . S
C921 C920 1.377 . S
C921 C927 1.390 . S
C922 H913 0.930 . S
C922 C920 1.384 . S
C922 C923 1.372 . S
C923 C922 1.372 . S
C923 C924 1.400 . S
C923 C928 1.490 . S
C924 H914 0.930 . S
C924 C923 1.400 . S
C924 C927 1.386 . S
H925 C941 0.930 . S
H926 C942 0.931 . S
C927 H915 0.929 . S
C927 C921 1.390 . S
C927 C924 1.386 . S
C928 C923 1.490 . S
C928 C930 1.395 . S
C928 C931 1.403 . S
H929 C935 0.930 . S
C930 H916 0.930 . S
C930 C928 1.395 . S
C930 C933 1.403 . S
C931 C928 1.403 . S
C931 C932 1.524 . S
C931 C935 1.400 . S
C932 H917 0.960 . S
C932 H918 0.960 . S
C932 H919 0.960 . S
C932 C931 1.524 . S
C933 C930 1.403 . S
C933 C934 1.392 . S
C933 C937 1.495 1_455 S
C934 C933 1.392 . S
C934 C935 1.385 . S
C934 C936 1.478 . S
C935 H929 0.930 . S
C935 C931 1.400 . S
C935 C934 1.385 . S
C936 C934 1.478 . S
C936 C938 1.381 . S
C936 C942 1.383 . S
C937 C933 1.495 1_655 S
C937 H943 0.959 . S
C937 H944 0.961 . S
C937 H945 0.960 1_655 S
C938 C936 1.381 . S
C938 C939 1.394 1_554 S
C938 H946 0.930 . S
C939 C938 1.394 1_556 S
C939 C940 1.383 . S
C939 H947 0.929 . S
C940 C939 1.383 . S
C940 C941 1.377 . S
C941 H925 0.930 . S
C941 C940 1.377 . S
C941 C942 1.379 1_556 S
C942 H926 0.931 . S
C942 C936 1.383 . S
C942 C941 1.379 1_554 S
H943 C937 0.959 . S
H944 C937 0.961 . S
H945 C937 0.960 1_455 S
H946 C938 0.930 . S
H947 C939 0.929 . S
H948 C956 0.929 . S
H949 C958 0.930 . S
H950 C960 0.930 . S
H951 C963 0.929 . S
H952 C966 0.930 . S
H953 C968 0.960 . S
H954 C968 0.960 . S
H955 C968 0.960 . S
C956 H948 0.929 . S
C956 C957 1.377 1_565 S
C956 C958 1.384 . S
C957 C956 1.377 1_545 S
C957 C963 1.390 . S
C958 H949 0.930 . S
C958 C956 1.384 . S
C958 C959 1.372 1_565 S
C959 C958 1.372 1_545 S
C959 C960 1.400 . S
C959 C964 1.490 . S
C960 H950 0.930 . S
C960 C959 1.400 . S
C960 C963 1.386 . S
H961 C977 0.930 . S
H962 C978 0.931 . S
C963 H951 0.929 . S
C963 C957 1.390 . S
C963 C960 1.386 . S
C964 C959 1.490 . S
C964 C966 1.395 . S
C964 C967 1.403 . S
H965 C971 0.930 . S
C966 H952 0.930 . S
C966 C964 1.395 . S
C966 C969 1.403 . S
C967 C964 1.403 . S
C967 C968 1.524 . S
C967 C971 1.400 . S
C968 H953 0.960 . S
C968 H954 0.960 . S
C968 H955 0.960 . S
C968 C967 1.524 . S
C969 C966 1.403 . S
C969 C970 1.392 . S
C969 C973 1.495 . S
C970 C969 1.392 . S
C970 C971 1.385 . S
C970 C972 1.478 . S
C971 H965 0.930 . S
C971 C967 1.400 . S
C971 C970 1.385 . S
C972 C970 1.478 . S
C972 C974 1.381 1_545 S
C972 C978 1.383 . S
C973 C969 1.495 . S
C973 H979 0.959 . S
C973 H980 0.961 . S
C973 H981 0.960 1_545 S
C974 C972 1.381 1_565 S
C974 C975 1.394 . S
C974 H982 0.930 . S
C975 C974 1.394 . S
C975 C976 1.383 1_565 S
C975 H983 0.929 . S
C976 C975 1.383 1_545 S
C976 C977 1.377 . S
C977 H961 0.930 . S
C977 C976 1.377 . S
C977 C978 1.379 . S
C978 H962 0.931 . S
C978 C972 1.383 . S
C978 C977 1.379 . S
H979 C973 0.959 . S
H980 C973 0.961 . S
H981 C973 0.960 1_565 S
H982 C974 0.930 . S
H983 C975 0.929 . S
H984 C992 0.929 . S
H985 C994 0.930 . S
H986 C996 0.930 . S
H987 C999 0.929 . S
H988 C1002 0.930 . S
H989 C1004 0.960 . S
H990 C1004 0.960 . S
H991 C1004 0.960 . S
C992 H984 0.929 . S
C992 C993 1.377 . S
C992 C994 1.384 . S
C993 C992 1.377 . S
C993 C999 1.390 . S
C994 H985 0.930 . S
C994 C992 1.384 . S
C994 C995 1.372 . S
C995 C994 1.372 . S
C995 C996 1.400 . S
C995 C1000 1.490 . S
C996 H986 0.930 . S
C996 C995 1.400 . S
C996 C999 1.386 . S
H997 C1013 0.930 . S
H998 C1014 0.931 . S
C999 H987 0.929 . S
C999 C993 1.390 . S
C999 C996 1.386 . S
C1000 C995 1.490 . S
C1000 C1002 1.395 . S
C1000 C1003 1.403 . S
H1001 C1007 0.930 . S
C1002 H988 0.930 . S
C1002 C1000 1.395 . S
C1002 C1005 1.403 . S
C1003 C1000 1.403 . S
C1003 C1004 1.524 . S
C1003 C1007 1.400 . S
C1004 H989 0.960 . S
C1004 H990 0.960 . S
C1004 H991 0.960 . S
C1004 C1003 1.524 . S
C1005 C1002 1.403 . S
C1005 C1006 1.392 . S
C1005 C1009 1.495 . S
C1006 C1005 1.392 . S
C1006 C1007 1.385 . S
C1006 C1008 1.478 . S
C1007 H1001 0.930 . S
C1007 C1003 1.400 . S
C1007 C1006 1.385 . S
C1008 C1006 1.478 . S
C1008 C1010 1.381 . S
C1008 C1014 1.383 . S
C1009 C1005 1.495 . S
C1009 H1015 0.959 . S
C1009 H1016 0.961 . S
C1009 H1017 0.960 . S
C1010 C1008 1.381 . S
C1010 C1011 1.394 . S
C1010 H1018 0.930 . S
C1011 C1010 1.394 . S
C1011 C1012 1.383 . S
C1011 H1019 0.929 . S
C1012 C1011 1.383 . S
C1012 C1013 1.377 . S
C1013 H997 0.930 . S
C1013 C1012 1.377 . S
C1013 C1014 1.379 . S
C1014 H998 0.931 . S
C1014 C1008 1.383 . S
C1014 C1013 1.379 . S
H1015 C1009 0.959 . S
H1016 C1009 0.961 . S
H1017 C1009 0.960 . S
H1018 C1010 0.930 . S
H1019 C1011 0.929 . S
H1020 C1028 0.929 . S
H1021 C1030 0.930 . S
H1022 C1032 0.930 . S
H1023 C1035 0.929 . S
H1024 C1038 0.930 . S
H1025 C1040 0.960 . S
H1026 C1040 0.960 1_545 S
H1027 C1040 0.960 . S
C1028 H1020 0.929 . S
C1028 C1029 1.377 . S
C1028 C1030 1.384 . S
C1029 C1028 1.377 . S
C1029 C1035 1.390 1_545 S
C1030 H1021 0.930 . S
C1030 C1028 1.384 . S
C1030 C1031 1.372 . S
C1031 C1030 1.372 . S
C1031 C1032 1.400 1_545 S
C1031 C1036 1.490 . S
C1032 H1022 0.930 . S
C1032 C1031 1.400 1_565 S
C1032 C1035 1.386 . S
H1033 C1049 0.930 . S
H1034 C1050 0.931 . S
C1035 H1023 0.929 . S
C1035 C1029 1.390 1_565 S
C1035 C1032 1.386 . S
C1036 C1031 1.490 . S
C1036 C1038 1.395 . S
C1036 C1039 1.403 1_545 S
H1037 C1043 0.930 . S
C1038 H1024 0.930 . S
C1038 C1036 1.395 . S
C1038 C1041 1.403 . S
C1039 C1036 1.403 1_565 S
C1039 C1040 1.524 . S
C1039 C1043 1.400 . S
C1040 H1025 0.960 . S
C1040 H1026 0.960 1_565 S
C1040 H1027 0.960 . S
C1040 C1039 1.524 . S
C1041 C1038 1.403 . S
C1041 C1042 1.392 . S
C1041 C1045 1.495 . S
C1042 C1041 1.392 . S
C1042 C1043 1.385 1_545 S
C1042 C1044 1.478 . S
C1043 H1037 0.930 . S
C1043 C1039 1.400 . S
C1043 C1042 1.385 1_565 S
C1044 C1042 1.478 . S
C1044 C1046 1.381 . S
C1044 C1050 1.383 1_545 S
C1045 C1041 1.495 . S
C1045 H1051 0.959 . S
C1045 H1052 0.961 1_545 S
C1045 H1053 0.960 . S
C1046 C1044 1.381 . S
C1046 C1047 1.394 . S
C1046 H1054 0.930 . S
C1047 C1046 1.394 . S
C1047 C1048 1.383 1_545 S
C1047 H1055 0.929 . S
C1048 C1047 1.383 1_565 S
C1048 C1049 1.377 . S
C1049 H1033 0.930 . S
C1049 C1048 1.377 . S
C1049 C1050 1.379 . S
C1050 H1034 0.931 . S
C1050 C1044 1.383 1_565 S
C1050 C1049 1.379 . S
H1051 C1045 0.959 . S
H1052 C1045 0.961 1_565 S
H1053 C1045 0.960 . S
H1054 C1046 0.930 . S
H1055 C1047 0.929 . S
H1056 C1064 0.929 . S
H1057 C1066 0.930 . S
H1058 C1068 0.930 . S
H1059 C1071 0.929 . S
H1060 C1074 0.930 . S
H1061 C1076 0.960 . S
H1062 C1076 0.960 . S
H1063 C1076 0.960 . S
C1064 H1056 0.929 . S
C1064 C1065 1.377 . S
C1064 C1066 1.384 . S
C1065 C1064 1.377 . S
C1065 C1071 1.390 . S
C1066 H1057 0.930 . S
C1066 C1064 1.384 . S
C1066 C1067 1.372 . S
C1067 C1066 1.372 . S
C1067 C1068 1.400 . S
C1067 C1072 1.490 . S
C1068 H1058 0.930 . S
C1068 C1067 1.400 . S
C1068 C1071 1.386 . S
H1069 C1085 0.930 . S
H1070 C1086 0.931 . S
C1071 H1059 0.929 . S
C1071 C1065 1.390 . S
C1071 C1068 1.386 . S
C1072 C1067 1.490 . S
C1072 C1074 1.395 . S
C1072 C1075 1.403 . S
H1073 C1079 0.930 . S
C1074 H1060 0.930 . S
C1074 C1072 1.395 . S
C1074 C1077 1.403 . S
C1075 C1072 1.403 . S
C1075 C1076 1.524 . S
C1075 C1079 1.400 . S
C1076 H1061 0.960 . S
C1076 H1062 0.960 . S
C1076 H1063 0.960 . S
C1076 C1075 1.524 . S
C1077 C1074 1.403 . S
C1077 C1078 1.392 . S
C1077 C1081 1.495 . S
C1078 C1077 1.392 . S
C1078 C1079 1.385 . S
C1078 C1080 1.478 . S
C1079 H1073 0.930 . S
C1079 C1075 1.400 . S
C1079 C1078 1.385 . S
C1080 C1078 1.478 . S
C1080 C1082 1.381 . S
C1080 C1086 1.383 . S
C1081 C1077 1.495 . S
C1081 H1087 0.959 . S
C1081 H1088 0.961 . S
C1081 H1089 0.960 . S
C1082 C1080 1.381 . S
C1082 C1083 1.394 1_556 S
C1082 H1090 0.930 . S
C1083 C1082 1.394 1_554 S
C1083 C1084 1.383 . S
C1083 H1091 0.929 . S
C1084 C1083 1.383 . S
C1084 C1085 1.377 . S
C1085 H1069 0.930 . S
C1085 C1084 1.377 . S
C1085 C1086 1.379 1_554 S
C1086 H1070 0.931 . S
C1086 C1080 1.383 . S
C1086 C1085 1.379 1_556 S
H1087 C1081 0.959 . S
H1088 C1081 0.961 . S
H1089 C1081 0.960 . S
H1090 C1082 0.930 . S
H1091 C1083 0.929 . S
H1092 C1100 0.929 . S
H1093 C1102 0.930 . S
H1094 C1104 0.930 1_655 S
H1095 C1107 0.929 . S
H1096 C1110 0.930 . S
H1097 C1112 0.960 . S
H1098 C1112 0.960 . S
H1099 C1112 0.960 . S
C1100 H1092 0.929 . S
C1100 C1101 1.377 . S
C1100 C1102 1.384 . S
C1101 C1100 1.377 . S
C1101 C1107 1.390 . S
C1102 H1093 0.930 . S
C1102 C1100 1.384 . S
C1102 C1103 1.372 . S
C1103 C1102 1.372 . S
C1103 C1104 1.400 . S
C1103 C1108 1.490 . S
C1104 H1094 0.930 1_455 S
C1104 C1103 1.400 . S
C1104 C1107 1.386 . S
H1105 C1121 0.930 . S
H1106 C1122 0.931 . S
C1107 H1095 0.929 . S
C1107 C1101 1.390 . S
C1107 C1104 1.386 . S
C1108 C1103 1.490 . S
C1108 C1110 1.395 . S
C1108 C1111 1.403 1_455 S
H1109 C1115 0.930 . S
C1110 H1096 0.930 . S
C1110 C1108 1.395 . S
C1110 C1113 1.403 . S
C1111 C1108 1.403 1_655 S
C1111 C1112 1.524 . S
C1111 C1115 1.400 . S
C1112 H1097 0.960 . S
C1112 H1098 0.960 . S
C1112 H1099 0.960 . S
C1112 C1111 1.524 . S
C1113 C1110 1.403 . S
C1113 C1114 1.392 . S
C1113 C1117 1.495 . S
C1114 C1113 1.392 . S
C1114 C1115 1.385 1_455 S
C1114 C1116 1.478 . S
C1115 H1109 0.930 . S
C1115 C1111 1.400 . S
C1115 C1114 1.385 1_655 S
C1116 C1114 1.478 . S
C1116 C1118 1.381 . S
C1116 C1122 1.383 . S
C1117 C1113 1.495 . S
C1117 H1123 0.959 . S
C1117 H1124 0.961 . S
C1117 H1125 0.960 . S
C1118 C1116 1.381 . S
C1118 C1119 1.394 . S
C1118 H1126 0.930 . S
C1119 C1118 1.394 . S
C1119 C1120 1.383 . S
C1119 H1127 0.929 . S
C1120 C1119 1.383 . S
C1120 C1121 1.377 1_455 S
C1121 H1105 0.930 . S
C1121 C1120 1.377 1_655 S
C1121 C1122 1.379 1_655 S
C1122 H1106 0.931 . S
C1122 C1116 1.383 . S
C1122 C1121 1.379 1_455 S
H1123 C1117 0.959 . S
H1124 C1117 0.961 . S
H1125 C1117 0.960 . S
H1126 C1118 0.930 . S
H1127 C1119 0.929 . S
C489 C7 0.492 . S
C508 C451 0.456 . S
C525 C51 1.842 . S
C544 C301 1.745 . S
C561 C87 1.142 . S
C580 C361 1.085 . S
C597 C16 0.321 . S
C616 C421 0.498 . S
C652 C331 1.982 . S
C633 C42 1.988 . S
C688 C391 1.305 . S
C669 C96 1.306 . S
C705 C47 1.137 . S
C724 C181 1.077 . S
C741 C91 3.063 . S
C760 C271 3.047 . S
C777 C2 2.023 . S
C796 C151 2.027 . S
C832 C211 1.282 . S
C813 C56 1.271 . S
C868 C241 2.753 . S
C849 C82 2.903 . S
C885 C11 1.829 . S
C904 C121 1.723 . S
C940 C260 1.737 . S
C921 C19 1.700 . S
C957 C50 1.337 . S
C976 C140 1.338 . S
C993 C99 1.458 . S
C1012 C200 1.476 . S
C1048 C380 1.442 . S
C1029 C59 1.452 . S
C1084 C440 1.134 . S
C1065 C90 1.118 . S
C1101 C10 1.338 . S
C1120 C320 1.336 . S
