# Generated by pormake.
# Topology zzz, (3,6)-cn, num edge types: 1
# Building blocks:
#     Node 0, Type 0, BuildingBlock: QEWDON_clean_linker_0, # of connection points: 3
#     Node 1, Type 0, BuildingBlock: QEWDON_clean_linker_0, # of connection points: 3
#     Node 2, Type 0, BuildingBlock: QEWDON_clean_linker_0, # of connection points: 3
#     Node 3, Type 0, BuildingBlock: QEWDON_clean_linker_0, # of connection points: 3
#     Node 4, Type 0, BuildingBlock: QEWDON_clean_linker_0, # of connection points: 3
#     Node 5, Type 0, BuildingBlock: QEWDON_clean_linker_0, # of connection points: 3
#     Node 6, Type 0, BuildingBlock: QEWDON_clean_linker_0, # of connection points: 3
#     Node 7, Type 0, BuildingBlock: QEWDON_clean_linker_0, # of connection points: 3
#     Node 8, Type 1, BuildingBlock: PAMTUU_clean_sbu_0, # of connection points: 6
#     Node 9, Type 1, BuildingBlock: PAMTUU_clean_sbu_0, # of connection points: 6
#     Node 10, Type 1, BuildingBlock: PAMTUU_clean_sbu_0, # of connection points: 6
#     Node 11, Type 1, BuildingBlock: PAMTUU_clean_sbu_0, # of connection points: 6
#     Edge 12, Type (0, 1), BuildingBlock: MIFKUJ_clean_linker_0, # of connection points: 2
#     Edge 13, Type (0, 1), BuildingBlock: MIFKUJ_clean_linker_0, # of connection points: 2
#     Edge 14, Type (0, 1), BuildingBlock: MIFKUJ_clean_linker_0, # of connection points: 2
#     Edge 15, Type (0, 1), BuildingBlock: MIFKUJ_clean_linker_0, # of connection points: 2
#     Edge 16, Type (0, 1), BuildingBlock: MIFKUJ_clean_linker_0, # of connection points: 2
#     Edge 17, Type (0, 1), BuildingBlock: MIFKUJ_clean_linker_0, # of connection points: 2
#     Edge 18, Type (0, 1), BuildingBlock: MIFKUJ_clean_linker_0, # of connection points: 2
#     Edge 19, Type (0, 1), BuildingBlock: MIFKUJ_clean_linker_0, # of connection points: 2
#     Edge 20, Type (0, 1), BuildingBlock: MIFKUJ_clean_linker_0, # of connection points: 2
#     Edge 21, Type (0, 1), BuildingBlock: MIFKUJ_clean_linker_0, # of connection points: 2
#     Edge 22, Type (0, 1), BuildingBlock: MIFKUJ_clean_linker_0, # of connection points: 2
#     Edge 23, Type (0, 1), BuildingBlock: MIFKUJ_clean_linker_0, # of connection points: 2
#     Edge 24, Type (0, 1), BuildingBlock: MIFKUJ_clean_linker_0, # of connection points: 2
#     Edge 25, Type (0, 1), BuildingBlock: MIFKUJ_clean_linker_0, # of connection points: 2
#     Edge 26, Type (0, 1), BuildingBlock: MIFKUJ_clean_linker_0, # of connection points: 2
#     Edge 27, Type (0, 1), BuildingBlock: MIFKUJ_clean_linker_0, # of connection points: 2
#     Edge 28, Type (0, 1), BuildingBlock: MIFKUJ_clean_linker_0, # of connection points: 2
#     Edge 29, Type (0, 1), BuildingBlock: MIFKUJ_clean_linker_0, # of connection points: 2
#     Edge 30, Type (0, 1), BuildingBlock: MIFKUJ_clean_linker_0, # of connection points: 2
#     Edge 31, Type (0, 1), BuildingBlock: MIFKUJ_clean_linker_0, # of connection points: 2
#     Edge 32, Type (0, 1), BuildingBlock: MIFKUJ_clean_linker_0, # of connection points: 2
#     Edge 33, Type (0, 1), BuildingBlock: MIFKUJ_clean_linker_0, # of connection points: 2
#     Edge 34, Type (0, 1), BuildingBlock: MIFKUJ_clean_linker_0, # of connection points: 2
#     Edge 35, Type (0, 1), BuildingBlock: MIFKUJ_clean_linker_0, # of connection points: 2
# Relax obj value: 0.111
# Max RMSD: 0.187
# Mean RMSD: 0.079
data_MOF--net-zzz--node1-PAMTUU_clean_sbu_0--node2-QEWDON_clean_linker_0--edge1-MIFKUJ_clean_linker_0
_symmetry_space_group_name_H-M    P1
_symmetry_Int_Tables_number       1
_symmetry_cell_setting            triclinic
loop_
_symmetry_equiv_pos_as_xyz
'x, y, z'
_cell_length_a     70.992948
_cell_length_b     74.234519
_cell_length_c     19.018724
_cell_angle_alpha  99.091338
_cell_angle_beta   89.84334
_cell_angle_gamma 92.10223
loop_
_atom_site_label
_atom_site_type_symbol
_atom_site_fract_x
_atom_site_fract_y
_atom_site_fract_z
_atom_type_partial_charge
H0 H 0.77297 0.51656 0.29177 0.0
C1 C 0.78307 0.51314 0.32946 0.0
C2 C 0.8021 0.51616 0.31518 0.0
C3 C 0.77733 0.50592 0.39068 0.0
H4 H 0.83057 0.51499 0.35028 0.0
C5 C 0.81587 0.51265 0.36284 0.0
C6 C 0.81113 0.50533 0.42422 0.0
C7 C 0.79175 0.50199 0.43824 0.0
C8 C 0.75643 0.50282 0.40395 0.0
H9 H 0.7882 0.49584 0.48464 0.0
C10 C 0.74261 0.50135 0.34833 0.0
C11 C 0.72302 0.50025 0.36284 0.0
C12 C 0.74992 0.50228 0.4736 0.0
H13 H 0.7595 0.50382 0.51838 0.0
C14 C 0.73073 0.50025 0.48758 0.0
H15 H 0.74682 0.50135 0.29377 0.0
C16 C 0.71745 0.49932 0.43319 0.0
H17 H 0.70269 0.49786 0.44655 0.0
H18 H 0.72608 0.49975 0.54151 0.0
H19 H 0.989 0.7456 0.24787 0.0
C20 C 0.99295 0.75502 0.29549 0.0
C21 C 1.00047 0.77241 0.2892 0.0
C22 C 0.98988 0.75014 0.36356 0.0
H23 H 1.01065 0.79835 0.34502 0.0
C24 C 1.00523 0.78476 0.35031 0.0
C25 C 1.00195 0.78033 0.41801 0.0
C26 C 0.99421 0.76306 0.42477 0.0
C27 C 0.98173 0.73182 0.37105 0.0
H28 H 0.9917 0.75971 0.47752 0.0
C29 C 0.98799 0.716 0.32775 0.0
C30 C 0.9807 0.6986 0.33656 0.0
C31 C 0.96782 0.73002 0.42253 0.0
H32 H 0.96248 0.74193 0.45583 0.0
C33 C 0.96047 0.71282 0.4311 0.0
H34 H 0.99893 0.71718 0.28871 0.0
C35 C 0.96688 0.69719 0.38867 0.0
H36 H 0.96084 0.684 0.39598 0.0
H37 H 0.94972 0.71159 0.47073 0.0
H38 H 0.78178 0.01314 0.27486 0.0
C39 C 0.77277 0.01084 0.31876 0.0
C40 C 0.75752 0.0222 0.33482 0.0
C41 C 0.77586 0.99633 0.35658 0.0
H42 H 0.73271 0.02745 0.39857 0.0
C43 C 0.74485 0.019 0.38834 0.0
C44 C 0.7465 0.00409 0.42413 0.0
C45 C 0.76221 0.99287 0.40893 0.0
C46 C 0.79269 0.98448 0.33796 0.0
H47 H 0.76366 0.98171 0.4385 0.0
C48 C 0.8092 0.99086 0.30462 0.0
C49 C 0.82453 0.97938 0.28564 0.0
C50 C 0.7922 0.96633 0.35129 0.0
H51 H 0.77991 0.96042 0.37385 0.0
C52 C 0.80744 0.95514 0.33391 0.0
H53 H 0.81047 0.00476 0.29429 0.0
C54 C 0.82343 0.96156 0.30158 0.0
H55 H 0.83483 0.95237 0.28747 0.0
H56 H 0.80673 0.94124 0.34463 0.0
H57 H 0.53662 0.74446 0.04151 0.0
C58 C 0.53404 0.73904 0.09046 0.0
C59 C 0.52589 0.72135 0.08739 0.0
C60 C 0.53979 0.74921 0.15667 0.0
H61 H 0.51821 0.69984 0.14622 0.0
C62 C 0.52351 0.71387 0.14995 0.0
C63 C 0.52962 0.72326 0.21575 0.0
C64 C 0.5375 0.74104 0.21912 0.0
C65 C 0.55013 0.76737 0.16065 0.0
H66 H 0.54215 0.74833 0.27035 0.0
C67 C 0.54499 0.78087 0.11943 0.0
C68 C 0.55529 0.79785 0.12551 0.0
C69 C 0.56577 0.77113 0.20663 0.0
H70 H 0.57059 0.76104 0.23718 0.0
C71 C 0.57564 0.78783 0.21367 0.0
H72 H 0.53315 0.77819 0.08305 0.0
C73 C 0.57042 0.80108 0.17419 0.0
H74 H 0.57827 0.81403 0.18236 0.0
H75 H 0.58748 0.79052 0.25005 0.0
H76 H 0.29152 0.52356 0.3226 0.0
C77 C 0.28029 0.518 0.28644 0.0
C78 C 0.26427 0.52835 0.28457 0.0
C79 C 0.28174 0.50095 0.24202 0.0
H80 H 0.23705 0.53 0.23686 0.0
C81 C 0.2496 0.52207 0.23698 0.0
C82 C 0.25013 0.50521 0.19297 0.0
C83 C 0.26606 0.49444 0.1964 0.0
C84 C 0.29969 0.49043 0.24229 0.0
H85 H 0.26605 0.48116 0.16352 0.0
C86 C 0.31277 0.49333 0.30049 0.0
C87 C 0.32983 0.48385 0.29774 0.0
C88 C 0.30438 0.4778 0.18195 0.0
H89 H 0.29557 0.47548 0.13494 0.0
C90 C 0.32095 0.4682 0.1798 0.0
H91 H 0.30981 0.50263 0.34857 0.0
C92 C 0.33352 0.47115 0.23688 0.0
H93 H 0.34646 0.46375 0.23262 0.0
H94 H 0.32423 0.45859 0.13279 0.0
H95 H 0.03571 0.25308 0.31953 0.0
C96 C 0.04006 0.24405 0.2724 0.0
C97 C 0.04639 0.22665 0.27917 0.0
C98 C 0.03828 0.24939 0.20469 0.0
H99 H 0.05521 0.20101 0.22052 0.0
C100 C 0.05136 0.21484 0.2173 0.0
C101 C 0.0494 0.21973 0.14985 0.0
C102 C 0.04301 0.237 0.14355 0.0
C103 C 0.03006 0.26721 0.19727 0.0
H104 H 0.04143 0.24055 0.09083 0.0
C105 C 0.03391 0.283 0.24777 0.0
C106 C 0.02572 0.29968 0.24129 0.0
C107 C 0.01786 0.26842 0.1401 0.0
H108 H 1.01407 0.25653 0.10139 0.0
C109 C 1.01002 0.28496 0.13269 0.0
H110 H 0.04314 0.28228 0.2924 0.0
C111 C 1.01393 0.30048 0.18261 0.0
H112 H 1.00775 0.31316 0.17501 0.0
H113 H 1.00076 0.28571 0.0882 0.0
H114 H 0.26401 0.9899 0.29531 0.0
C115 C 0.2745 0.99299 0.25721 0.0
C116 C 0.29334 0.99062 0.27302 0.0
C117 C 0.26923 0.99896 0.19369 0.0
H118 H 0.32204 0.99149 0.23604 0.0
C119 C 0.30739 0.99327 0.22344 0.0
C120 C 0.30294 0.99878 0.15868 0.0
C121 C 0.28383 1.00189 0.14411 0.0
C122 C 0.24852 1.00143 0.18011 0.0
H123 H 0.28056 0.00667 0.09487 0.0
C124 C 0.23516 0.00448 0.23683 0.0
C125 C 0.21558 0.00508 0.2235 0.0
C126 C 0.24165 0.99969 0.10996 0.0
H127 H 0.25095 0.99691 0.06473 0.0
C128 C 0.22244 1.00085 0.09655 0.0
H129 H 0.23978 0.0066 0.29172 0.0
C130 C 0.20954 0.00339 0.1524 0.0
H131 H 0.1947 0.00356 0.1396 0.0
H132 H 0.21745 0.99934 0.04212 0.0
H133 H 0.52976 0.2545 0.55831 0.0
C134 C 0.52451 0.25919 0.51115 0.0
C135 C 0.51837 0.27716 0.51583 0.0
C136 C 0.52502 0.24774 0.4444 0.0
H137 H 0.50851 0.29755 0.45819 0.0
C138 C 0.51243 0.28345 0.45435 0.0
C139 C 0.51357 0.27275 0.38727 0.0
C140 C 0.51984 0.25483 0.38243 0.0
C141 C 0.53344 0.22938 0.43725 0.0
H142 H 0.52106 0.24657 0.33039 0.0
C143 C 0.52721 0.21578 0.47776 0.0
C144 C 0.53509 0.19826 0.46609 0.0
C145 C 0.54801 0.22542 0.38765 0.0
H146 H 0.55328 0.2356 0.3568 0.0
C147 C 0.5561 0.20841 0.37758 0.0
H148 H 0.51591 0.21858 0.51587 0.0
C149 C 0.54969 0.19495 0.41604 0.0
H150 H 0.55628 0.18185 0.40677 0.0
H151 H 0.56737 0.20561 0.3394 0.0
Tb152 Tb 1.01276 0.00633 0.72524 0.0
Tb153 Tb 0.03798 0.99433 0.852 0.0
C154 C 0.99352 0.99786 0.86507 0.0
C155 C 0.99797 0.0387 0.61736 0.0
C156 C 1.00316 0.07523 0.59608 0.0
C157 C 0.98716 0.06475 0.56821 0.0
C158 C 0.98458 0.04657 0.57886 0.0
C159 C 1.01385 0.04917 0.64556 0.0
C160 C 0.01643 0.06724 0.635 0.0
C161 C 0.99498 0.02017 0.63402 0.0
O162 O 0.01801 0.02997 0.80657 0.0
O163 O 0.04589 0.02295 0.8535 0.0
O164 O 0.05609 0.9916 0.75766 0.0
O165 O 0.04216 0.01215 0.69877 0.0
O166 O 0.04398 0.9952 0.96091 0.0
O167 O 0.05935 0.97804 0.88035 0.0
O168 O 0.02148 0.97042 0.80529 0.0
O169 O 0.01578 0.97707 0.69374 0.0
O170 O 0.99219 0.99572 0.79525 0.0
O171 O 1.01004 1.00087 0.89713 0.0
C172 C 0.03392 0.03501 0.83999 0.0
O173 O 1.00889 0.00927 0.61808 0.0
O174 O 0.98886 0.01963 0.69823 0.0
C175 C 0.05658 1.00216 0.70823 0.0
C176 C 0.04982 0.96517 0.97879 0.0
C177 C 0.04088 0.93029 0.0135 0.0
C178 C 0.05905 0.9384 0.02689 0.0
C179 C 0.06351 0.95566 0.00923 0.0
C180 C 0.03148 0.9575 0.96827 0.0
C181 C 0.02706 0.94024 0.98525 0.0
C182 C 0.05516 0.98152 0.94764 0.0
C183 C 0.01739 0.96524 0.73786 0.0
H184 H 0.97678 0.07054 0.53753 0.0
H185 H 0.97213 0.03874 0.55761 0.0
H186 H 0.02418 0.04344 0.67665 0.0
H187 H 0.02872 0.07503 0.65811 0.0
H188 H 0.06995 0.93127 0.04976 0.0
H189 H 0.07778 0.96129 0.01701 0.0
H190 H 0.02076 0.96453 0.9439 0.0
H191 H 1.01302 0.93439 0.97325 0.0
Tb192 Tb 0.51873 0.98835 0.72911 0.0
Tb193 Tb 0.53417 0.00948 0.87913 0.0
C194 C 0.53094 0.96656 0.84983 0.0
C195 C 0.48425 0.98003 0.59521 0.0
C196 C 0.44565 0.9875 0.60052 0.0
C197 C 0.45201 0.97103 0.56174 0.0
C198 C 0.47116 0.96719 0.5602 0.0
C199 C 0.47819 0.99715 0.6275 0.0
C200 C 0.45913 1.00077 0.63093 0.0
C201 C 0.5028 0.97445 0.61494 0.0
O202 O 0.49407 0.99973 0.78808 0.0
O203 O 0.50515 1.00107 0.90147 0.0
O204 O 0.52048 0.02986 0.82776 0.0
O205 O 0.5248 0.01646 0.71348 0.0
O206 O 0.54619 0.01013 0.98056 0.0
O207 O 0.53925 0.03491 0.9431 0.0
O208 O 0.55773 0.00955 0.8039 0.0
O209 O 0.54906 0.98416 0.72418 0.0
O210 O 0.51909 0.96753 0.79792 0.0
O211 O 0.54106 0.98096 0.8792 0.0
C212 C 0.49092 1.00044 0.85675 0.0
O213 O 0.51632 0.9869 0.61799 0.0
O214 O 0.50246 0.96676 0.67181 0.0
C215 C 0.52176 0.03104 0.75994 0.0
C216 C 0.56748 0.03571 0.00624 0.0
C217 C 0.60417 0.05161 0.02404 0.0
C218 C 0.58836 0.06259 0.03319 0.0
C219 C 0.57018 0.05469 0.02463 0.0
C220 C 0.58324 0.02471 0.99697 0.0
C221 C 0.60137 0.03257 0.00625 0.0
C222 C 0.54833 0.02785 0.99063 0.0
C223 C 0.56198 0.99645 0.75157 0.0
H224 H 0.4422 0.96074 0.53473 0.0
H225 H 0.47557 0.95387 0.53541 0.0
H226 H 0.48805 0.00725 0.65546 0.0
H227 H 0.45507 0.01356 0.66166 0.0
H228 H 0.59001 0.0773 0.04639 0.0
H229 H 0.55821 0.06345 0.0311 0.0
H230 H 0.58162 0.01004 0.98203 0.0
H231 H 0.61318 0.02363 1.00051 0.0
Tb232 Tb 0.51685 0.49507 0.8886 0.0
Tb233 Tb 0.54053 0.50561 0.7519 0.0
C234 C 0.49686 0.50033 0.74701 0.0
C235 C 0.5018 0.46499 0.01564 0.0
C236 C 0.50495 0.42993 0.0557 0.0
C237 C 0.4872 0.43762 0.05112 0.0
C238 C 0.48567 0.45493 0.03152 0.0
C239 C 0.51955 0.45744 0.0201 0.0
C240 C 0.52112 0.44018 0.04023 0.0
C241 C 0.49972 0.48236 0.98779 0.0
O242 O 0.53249 0.47149 0.84581 0.0
O243 O 0.53564 0.47586 0.72982 0.0
O244 O 0.56186 0.49708 0.82195 0.0
O245 O 0.54541 0.50376 0.92637 0.0
O246 O 0.56362 0.51946 0.71259 0.0
O247 O 0.54209 0.50604 0.64156 0.0
O248 O 0.53814 0.53009 0.82984 0.0
O249 O 0.51098 0.52377 0.88818 0.0
O250 O 0.49847 0.48944 0.79459 0.0
O251 O 0.51098 0.51142 0.73593 0.0
C252 C 0.53469 0.465 0.77838 0.0
O253 O 0.51365 0.49442 0.99845 0.0
O254 O 0.49346 0.48057 0.9228 0.0
C255 C 0.56142 0.50042 0.89218 0.0
C256 C 0.55422 0.53468 0.61967 0.0
C257 C 0.55005 0.56779 0.56548 0.0
C258 C 0.56218 0.5544 0.53233 0.0
C259 C 0.56424 0.53803 0.55921 0.0
C260 C 0.54209 0.54795 0.65299 0.0
C261 C 0.54004 0.56432 0.6263 0.0
C262 C 0.55654 0.51754 0.64861 0.0
C263 C 0.52336 0.53555 0.86779 0.0
H264 H 0.47437 0.43011 0.06101 0.0
H265 H 0.47181 0.46029 0.02712 0.0
H266 H 0.53223 0.46476 0.00694 0.0
H267 H 0.53504 0.43491 0.04382 0.0
H268 H 0.57031 0.55665 0.48605 0.0
H269 H 0.57373 0.52802 0.53292 0.0
H270 H 0.53417 0.54563 0.69973 0.0
H271 H 0.5304 0.57415 0.65278 0.0
Tb272 Tb 0.03722 0.50967 0.74909 0.0
Tb273 Tb 0.02099 0.48775 0.87176 0.0
C274 C 0.02456 0.52959 0.89588 0.0
C275 C 0.06759 0.53203 0.62551 0.0
C276 C 0.10295 0.54164 0.57309 0.0
C277 C 0.08693 0.55116 0.55987 0.0
C278 C 0.06937 0.54636 0.58588 0.0
C279 C 0.08346 0.5223 0.63819 0.0
C280 C 0.10103 0.52703 0.61186 0.0
C281 C 0.04938 0.52821 0.65706 0.0
O282 O 0.06161 0.50854 0.8194 0.0
O283 O 0.05145 0.48623 0.88426 0.0
O284 O 0.02084 0.46951 0.77051 0.0
O285 O 0.0463 0.48191 0.72067 0.0
O286 O 1.00656 0.48749 0.968 0.0
O287 O 0.01556 0.46243 0.90603 0.0
O288 O 0.99625 0.49835 0.82523 0.0
O289 O 1.00832 0.50085 0.71547 0.0
O290 O 0.0221 0.52826 0.82704 0.0
O291 O 0.02877 0.51519 0.92368 0.0
C292 C 0.06488 0.49711 0.86442 0.0
O293 O 0.04245 0.51154 0.64168 0.0
O294 O 0.04787 0.5346 0.72458 0.0
C295 C 0.03501 0.46786 0.72601 0.0
C296 C 0.98432 0.46371 0.94753 0.0
C297 C 0.94535 0.467 0.9356 0.0
C298 C 0.95648 0.46454 0.87428 0.0
C299 C 0.97584 0.46266 0.88011 0.0
C300 C 0.97292 0.46426 0.00798 0.0
C301 C 0.95343 0.46576 0.00193 0.0
C302 C 1.00419 0.46979 0.95554 0.0
C303 C 0.99376 0.49967 0.75775 0.0
H304 H 0.08799 0.56233 0.52949 0.0
H305 H 0.05721 0.55403 0.57603 0.0
H306 H 0.0823 0.51131 0.66946 0.0
H307 H 0.11319 0.51958 0.62342 0.0
H308 H 0.9505 0.46572 0.82292 0.0
H309 H 0.98438 0.46241 0.83269 0.0
H310 H 0.9792 0.46539 0.06042 0.0
H311 H 0.94501 0.46791 0.04992 0.0
H312 H 0.18387 0.0256 0.23802 0.0
H313 H 0.15867 0.02564 0.32577 0.0
H314 H 0.18903 0.98822 0.4309 0.0
H315 H 0.21423 0.98786 0.34205 0.0
H316 H 0.15261 0.97717 0.4149 0.0
H317 H 0.18486 0.03349 0.50642 0.0
H318 H 0.19961 0.06392 0.50281 0.0
H319 H 0.14672 0.08315 0.44157 0.0
H320 H 0.1317 0.05275 0.44386 0.0
H321 H 0.08917 0.98313 0.71002 0.0
H322 H 0.11704 0.98415 0.63457 0.0
H323 H 0.09102 0.02357 0.52579 0.0
H324 H 0.06323 0.02283 0.60185 0.0
H325 H 0.12657 0.03353 0.54892 0.0
H326 H 0.09484 0.97706 0.44963 0.0
H327 H 0.08015 0.94639 0.44752 0.0
H328 H 0.13188 0.92741 0.5208 0.0
H329 H 0.14685 0.95806 0.52386 0.0
C330 C 0.18529 0.01742 0.27994 0.0
C331 C 0.2012 0.00669 0.28243 0.0
C332 C 0.17086 0.01756 0.33067 0.0
C333 C 0.17182 0.00702 0.38579 0.0
C334 C 0.18783 0.99651 0.38922 0.0
C335 C 0.20237 0.99645 0.3386 0.0
C336 C 0.15581 0.00645 0.43768 0.0
C337 C 0.14717 0.9895 0.44516 0.0
C338 C 0.14821 0.02249 0.47621 0.0
C339 C 0.1572 0.04078 0.47468 0.0
C340 C 0.17641 0.04416 0.4916 0.0
C341 C 0.18481 0.06142 0.48991 0.0
C342 C 0.17412 0.07545 0.4718 0.0
C343 C 0.15499 0.07226 0.45551 0.0
C344 C 0.14652 0.05503 0.45707 0.0
C345 C 0.08932 0.99204 0.67009 0.0
C346 C 0.07377 1.00286 0.66231 0.0
C347 C 0.10531 0.99253 0.62644 0.0
C348 C 0.10624 0.00377 0.57326 0.0
C349 C 0.09081 0.01474 0.56604 0.0
C350 C 0.07482 0.01426 0.60967 0.0
C351 C 0.12324 0.00424 0.52572 0.0
C352 C 0.13207 0.02118 0.51903 0.0
C353 C 0.13099 0.98819 0.48775 0.0
C354 C 0.1219 0.9699 0.48771 0.0
C355 C 0.10302 0.96639 0.466 0.0
C356 C 0.09466 0.94899 0.46443 0.0
C357 C 0.10505 0.93495 0.48416 0.0
C358 C 0.12383 0.9383 0.5056 0.0
C359 C 0.13227 0.95568 0.50719 0.0
H360 H 0.0986 0.92146 0.48258 0.0
H361 H 0.18065 0.0888 0.47054 0.0
H362 H 0.52593 0.16326 0.40643 0.0
H363 H 0.52023 0.13681 0.46569 0.0
H364 H 0.52352 0.17154 0.67007 0.0
H365 H 0.52977 0.19826 0.61017 0.0
H366 H 0.54419 0.14241 0.67187 0.0
H367 H 0.48109 0.15026 0.60314 0.0
H368 H 0.45503 0.15497 0.52333 0.0
H369 H 0.46641 0.10444 0.38898 0.0
H370 H 0.49272 0.09953 0.46743 0.0
H371 H 0.51986 0.06504 0.84141 0.0
H372 H 0.51869 0.09468 0.80061 0.0
H373 H 0.51923 0.06779 0.58247 0.0
H374 H 0.52025 0.03813 0.62277 0.0
H375 H 0.49411 0.09473 0.60009 0.0
H376 H 0.5591 0.08878 0.66393 0.0
H377 H 0.58485 0.084 0.74501 0.0
H378 H 0.56917 0.13127 0.89081 0.0
H379 H 0.54314 0.13619 0.81097 0.0
C380 C 0.52521 0.16536 0.46404 0.0
C381 C 0.52838 0.18292 0.5035 0.0
C382 C 0.52181 0.15017 0.49802 0.0
C383 C 0.52127 0.15203 0.57267 0.0
C384 C 0.52383 0.16966 0.61245 0.0
C385 C 0.52722 0.18497 0.5782 0.0
C386 C 0.51917 0.13536 0.60811 0.0
C387 C 0.53297 0.1322 0.65722 0.0
C388 C 0.50479 0.12171 0.5884 0.0
C389 C 0.48898 0.1246 0.54097 0.0
C390 C 0.47813 0.14021 0.55629 0.0
C391 C 0.4633 0.14291 0.51133 0.0
C392 C 0.45909 0.13003 0.45105 0.0
C393 C 0.46969 0.11441 0.43568 0.0
C394 C 0.48455 0.11165 0.48044 0.0
C395 C 0.51963 0.06539 0.78471 0.0
C396 C 0.52024 0.04911 0.73548 0.0
C397 C 0.51905 0.08241 0.76141 0.0
C398 C 0.51908 0.08359 0.68829 0.0
C399 C 0.51922 0.06733 0.63912 0.0
C400 C 0.51988 0.05033 0.66234 0.0
C401 C 0.51928 0.1017 0.66269 0.0
C402 C 0.50516 0.10509 0.61535 0.0
C403 C 0.5333 0.11557 0.68422 0.0
C404 C 0.54905 0.11273 0.73188 0.0
C405 C 0.56106 0.09808 0.71353 0.0
C406 C 0.57572 0.09535 0.75922 0.0
C407 C 0.57861 0.10729 0.82313 0.0
C408 C 0.56689 0.12202 0.84135 0.0
C409 C 0.55219 0.12479 0.79589 0.0
H410 H 0.58996 0.10515 0.85846 0.0
H411 H 0.4476 0.13214 0.41632 0.0
H412 H 0.34736 0.45858 0.36248 0.0
H413 H 0.37419 0.46337 0.44466 0.0
H414 H 0.37292 0.5214 0.44533 0.0
H415 H 0.34586 0.51662 0.36285 0.0
H416 H 0.40919 0.50804 0.42274 0.0
H417 H 0.35936 0.50411 0.59132 0.0
H418 H 0.33115 0.49028 0.64046 0.0
H419 H 0.36146 0.44212 0.65705 0.0
H420 H 0.38979 0.45556 0.6071 0.0
H421 H 0.48257 0.52751 0.68229 0.0
H422 H 0.45322 0.52684 0.61466 0.0
H423 H 0.44187 0.47106 0.64483 0.0
H424 H 0.47055 0.47219 0.71651 0.0
H425 H 0.41088 0.48544 0.65432 0.0
H426 H 0.45943 0.48686 0.47798 0.0
H427 H 0.48786 0.49894 0.42383 0.0
H428 H 0.4607 0.54927 0.41489 0.0
H429 H 0.43217 0.53756 0.46971 0.0
C430 C 0.35259 0.47241 0.38092 0.0
C431 C 0.34435 0.48722 0.35613 0.0
C432 C 0.36798 0.47514 0.42811 0.0
C433 C 0.37571 0.49277 0.45169 0.0
C434 C 0.36729 0.50766 0.42814 0.0
C435 C 0.35168 0.50494 0.38149 0.0
C436 C 0.39295 0.49542 0.49854 0.0
C437 C 0.40947 0.50337 0.47396 0.0
C438 C 0.39365 0.48886 0.56453 0.0
C439 C 0.37666 0.48079 0.59494 0.0
C440 C 0.35997 0.49052 0.60495 0.0
C441 C 0.34396 0.48276 0.63305 0.0
C442 C 0.3445 0.46532 0.65172 0.0
C443 C 0.36106 0.45562 0.64251 0.0
C444 C 0.3771 0.46331 0.6144 0.0
C445 C 0.47381 0.5151 0.6745 0.0
C446 C 0.47902 0.49989 0.7048 0.0
C447 C 0.457 0.51465 0.63506 0.0
C448 C 0.44522 0.49873 0.62243 0.0
C449 C 0.45047 0.48357 0.65318 0.0
C450 C 0.467 0.48419 0.69419 0.0
C451 C 0.42742 0.49783 0.57825 0.0
C452 C 0.41072 0.49019 0.60327 0.0
C453 C 0.42667 0.50439 0.51197 0.0
C454 C 0.44375 0.5114 0.47861 0.0
C455 C 0.45957 0.50054 0.46483 0.0
C456 C 0.47569 0.50732 0.43397 0.0
C457 C 0.47611 0.52488 0.41613 0.0
C458 C 0.46037 0.53568 0.42885 0.0
C459 C 0.44422 0.52898 0.45974 0.0
H460 H 0.48861 0.5301 0.39229 0.0
H461 H 0.33209 0.45933 0.67345 0.0
H462 H 1.00034 0.32507 0.29508 0.0
H463 H 1.00621 0.35327 0.37814 0.0
H464 H 0.0644 0.33993 0.39642 0.0
H465 H 0.05883 0.31181 0.31121 0.0
H466 H 0.04684 0.35344 0.52909 0.0
H467 H 0.05623 0.3698 0.2974 0.0
H468 H 0.04789 0.37082 0.17237 0.0
H469 H 0.99813 0.39982 0.24027 0.0
H470 H 1.00602 0.39872 0.36573 0.0
H471 H 0.05911 0.4604 0.61302 0.0
H472 H 0.06205 0.43132 0.53314 0.0
H473 H 0.01935 0.40652 0.65247 0.0
H474 H 0.01635 0.43538 0.73242 0.0
H475 H 0.03501 0.4123 0.44722 0.0
H476 H 0.0293 0.36184 0.65089 0.0
H477 H 0.03823 0.36079 0.77538 0.0
H478 H 0.08316 0.40043 0.76221 0.0
H479 H 0.07468 0.40152 0.63736 0.0
C480 C 1.01446 0.32816 0.3161 0.0
C481 C 0.02918 0.31626 0.29557 0.0
C482 C 0.01774 0.34424 0.36396 0.0
C483 C 0.03577 0.34875 0.39273 0.0
C484 C 0.05038 0.33666 0.37465 0.0
C485 C 0.04714 0.32058 0.32616 0.0
C486 C 0.03929 0.36639 0.44011 0.0
C487 C 0.04437 0.36634 0.51128 0.0
C488 C 0.03635 0.38319 0.41631 0.0
C489 C 0.03166 0.38407 0.34095 0.0
C490 C 0.04344 0.37629 0.28566 0.0
C491 C 0.03881 0.37689 0.2147 0.0
C492 C 0.02248 0.38536 0.19838 0.0
C493 C 1.01077 0.39327 0.253 0.0
C494 C 1.01533 0.39267 0.32404 0.0
C495 C 0.05045 0.44872 0.62256 0.0
C496 C 0.03747 0.45022 0.67898 0.0
C497 C 0.05213 0.43213 0.57682 0.0
C498 C 0.04104 0.41673 0.58727 0.0
C499 C 0.02824 0.41816 0.64403 0.0
C500 C 0.02647 0.43472 0.68943 0.0
C501 C 0.04206 0.39937 0.53692 0.0
C502 C 0.03774 0.39946 0.46507 0.0
C503 C 0.04583 0.38265 0.56011 0.0
C504 C 0.05125 0.38186 0.63486 0.0
C505 C 0.04115 0.37026 0.67441 0.0
C506 C 0.04612 0.36967 0.74508 0.0
C507 C 0.06122 0.38057 0.77674 0.0
C508 C 0.07142 0.39204 0.73771 0.0
C509 C 0.06652 0.39267 0.66701 0.0
H510 H 0.06503 0.38011 0.83147 0.0
H511 H 0.01891 0.38581 0.14341 0.0
H512 H 0.82622 0.99444 0.16227 0.0
H513 H 0.85432 0.99972 0.09112 0.0
H514 H 0.88961 0.98255 0.25042 0.0
H515 H 0.86163 0.97709 0.32095 0.0
H516 H 0.90525 0.01294 0.19765 0.0
H517 H 0.87799 0.95331 0.10478 0.0
H518 H 0.85252 0.9318 0.05339 0.0
H519 H 0.84872 0.96023 0.87434 0.0
H520 H 0.87399 0.98209 0.92526 0.0
H521 H 0.99034 0.99436 0.00666 0.0
H522 H 0.96168 0.99315 0.07759 0.0
H523 H 0.92807 0.99901 0.89451 0.0
H524 H 0.95667 0.9995 0.82274 0.0
H525 H 0.91058 0.97595 0.95784 0.0
H526 H 0.9376 0.03499 0.04362 0.0
H527 H 0.96213 0.05786 0.09292 0.0
H528 H 0.96529 0.03301 0.28146 0.0
H529 H 0.94096 0.00983 0.23285 0.0
C530 C 0.84 0.99213 0.1827 0.0
C531 C 0.84164 0.98534 0.24739 0.0
C532 C 0.85608 0.99501 0.14169 0.0
C533 C 0.8742 0.99137 0.1648 0.0
C534 C 0.87588 0.98545 0.23106 0.0
C535 C 0.85984 0.98231 0.27141 0.0
C536 C 0.89132 0.9929 0.11906 0.0
C537 C 0.90648 0.00474 0.14545 0.0
C538 C 0.89287 0.98262 0.04995 0.0
C539 C 0.87773 0.96946 0.01923 0.0
C540 C 0.87161 0.95507 0.05476 0.0
C541 C 0.85723 0.9428 0.02567 0.0
C542 C 0.84896 0.94468 0.96074 0.0
C543 C 0.8551 0.95881 0.92469 0.0
C544 C 0.86946 0.97114 0.95364 0.0
C545 C 0.97686 0.99543 0.9814 0.0
C546 C 0.97595 0.9971 0.90874 0.0
C547 C 0.96038 0.99486 0.02235 0.0
C548 C 0.94246 0.99635 0.9924 0.0
C549 C 0.94156 0.99785 0.91958 0.0
C550 C 0.95802 0.99817 0.87838 0.0
C551 C 0.92472 0.996 0.03631 0.0
C552 C 0.90941 0.98432 0.00972 0.0
C553 C 0.92293 0.00666 0.10483 0.0
C554 C 0.93759 0.02056 0.13426 0.0
C555 C 0.94363 0.03432 0.09536 0.0
C556 C 0.95748 0.04735 0.12322 0.0
C557 C 0.9653 0.04686 0.1902 0.0
C558 C 0.95925 0.03335 0.22954 0.0
C559 C 0.94541 0.02027 0.20188 0.0
H560 H 0.97602 0.05696 0.21169 0.0
H561 H 0.83784 0.93516 0.93828 0.0
H562 H 0.52037 0.80987 0.09125 0.0
H563 H 0.5141 0.8373 0.03815 0.0
H564 H 0.57376 0.84724 0.01471 0.0
H565 H 0.5801 0.81968 0.06379 0.0
H566 H 0.55108 0.87771 0.09633 0.0
H567 H 0.55396 0.83485 0.87474 0.0
H568 H 0.54358 0.80721 0.7925 0.0
H569 H 0.48757 0.82712 0.79114 0.0
H570 H 0.49757 0.85477 0.8743 0.0
H571 H 0.56073 0.95441 0.91932 0.0
H572 H 0.56328 0.92496 0.96027 0.0
H573 H 0.50689 0.90931 0.88414 0.0
H574 H 0.5048 0.93826 0.8394 0.0
H575 H 0.52523 0.88118 0.85714 0.0
H576 H 0.52011 0.92362 0.07115 0.0
H577 H 0.52765 0.95109 0.15889 0.0
H578 H 0.58334 0.93235 0.18467 0.0
H579 H 0.57622 0.90486 0.09632 0.0
C580 C 0.53212 0.81763 0.07313 0.0
C581 C 0.55078 0.81265 0.08324 0.0
C582 C 0.52852 0.8334 0.04328 0.0
C583 C 0.54349 0.8445 0.02346 0.0
C584 C 0.56199 0.83907 0.03045 0.0
C585 C 0.56557 0.82327 0.0589 0.0
C586 C 0.54025 0.86227 0.99876 0.0
C587 C 0.54554 0.87851 0.04385 0.0
C588 C 0.53244 0.86336 0.93133 0.0
C589 C 0.52645 0.84675 0.88148 0.0
C590 C 0.53938 0.83323 0.85757 0.0
C591 C 0.53358 0.81759 0.81062 0.0
C592 C 0.51491 0.81538 0.78681 0.0
C593 C 0.50201 0.82883 0.80975 0.0
C594 C 0.50774 0.84449 0.85676 0.0
C595 C 0.54887 0.94469 0.91139 0.0
C596 C 0.53255 0.94877 0.87621 0.0
C597 C 0.55027 0.92782 0.93537 0.0
C598 C 0.53512 0.91481 0.92705 0.0
C599 C 0.51884 0.91892 0.89155 0.0
C600 C 0.51762 0.93558 0.86607 0.0
C601 C 0.53629 0.89691 0.95444 0.0
C602 C 0.53062 0.88058 0.90998 0.0
C603 C 0.54332 0.89575 0.0234 0.0
C604 C 0.54768 0.91226 0.0766 0.0
C605 C 0.53401 0.92541 0.09516 0.0
C606 C 0.5382 0.94098 0.14505 0.0
C607 C 0.55598 0.94349 0.1772 0.0
C608 C 0.56959 0.9304 0.15965 0.0
C609 C 0.56547 0.91482 0.10971 0.0
H610 H 0.5592 0.95555 0.21583 0.0
H611 H 0.51045 0.80326 0.75043 0.0
H612 H 0.68963 0.51796 0.37646 0.0
H613 H 0.66419 0.51705 0.29026 0.0
H614 H 0.69679 0.48331 0.13337 0.0
H615 H 0.72244 0.48383 0.22055 0.0
H616 H 0.67744 0.51047 0.07564 0.0
H617 H 0.66219 0.46366 0.21597 0.0
H618 H 0.65751 0.45111 0.32756 0.0
H619 H 0.61398 0.48903 0.38978 0.0
H620 H 0.61858 0.50198 0.27896 0.0
H621 H 0.59643 0.48819 0.84685 0.0
H622 H 0.62493 0.48732 0.91853 0.0
H623 H 0.59539 0.5121 0.10552 0.0
H624 H 0.56683 0.51237 0.03488 0.0
H625 H 0.61464 0.48704 0.14222 0.0
H626 H 0.63054 0.53534 0.00886 0.0
H627 H 0.63534 0.54932 0.90055 0.0
H628 H 0.67729 0.51047 0.828 0.0
H629 H 0.67256 0.49611 0.93554 0.0
C630 C 0.69147 0.51016 0.32394 0.0
C631 C 0.70813 0.50066 0.30653 0.0
C632 C 0.67684 0.50975 0.27431 0.0
C633 C 0.67829 0.49987 0.20526 0.0
C634 C 0.6952 0.49099 0.18627 0.0
C635 C 0.70992 0.49134 0.23631 0.0
C636 C 0.66183 0.49846 0.15472 0.0
C637 C 0.66377 0.50507 0.08964 0.0
C638 C 0.64381 0.4918 0.17314 0.0
C639 C 0.64083 0.48387 0.23939 0.0
C640 C 0.6517 0.46939 0.25365 0.0
C641 C 0.64905 0.4622 0.31674 0.0
C642 C 0.63548 0.46929 0.36579 0.0
C643 C 0.62449 0.48355 0.35175 0.0
C644 C 0.6271 0.49081 0.28877 0.0
C645 C 0.59601 0.49352 0.90319 0.0
C646 C 0.5792 0.50037 0.93471 0.0
C647 C 0.61244 0.49312 0.94432 0.0
C648 C 0.61263 0.49986 0.01797 0.0
C649 C 0.59583 0.50674 0.04918 0.0
C650 C 0.5794 0.50695 0.00839 0.0
C651 C 0.63001 0.49942 0.06328 0.0
C652 C 0.62827 0.49239 0.12763 0.0
C653 C 0.64814 0.50588 0.04435 0.0
C654 C 0.65105 0.51453 0.97985 0.0
C655 C 0.64069 0.5297 0.96956 0.0
C656 C 0.64341 0.53771 0.90836 0.0
C657 C 0.65657 0.53076 0.85733 0.0
C658 C 0.66708 0.51582 0.86752 0.0
C659 C 0.66439 0.50775 0.9286 0.0
H660 H 0.65866 0.53697 0.80997 0.0
H661 H 0.63346 0.46371 0.41463 0.0
H662 H 0.98613 0.69271 0.19238 0.0
H663 H 0.99551 0.66448 0.11779 0.0
H664 H 0.99952 0.63848 0.30435 0.0
H665 H 0.99039 0.66672 0.37925 0.0
H666 H 0.02919 0.63046 0.21087 0.0
H667 H 0.96143 0.63045 0.20345 0.0
H668 H 0.93062 0.6432 0.18433 0.0
H669 H 0.94489 0.64507 0.96598 0.0
H670 H 0.97593 0.63257 0.98412 0.0
H671 H 0.02603 0.53733 0.04184 0.0
H672 H 0.02051 0.5666 0.11694 0.0
H673 H 1.01155 0.5912 0.92943 0.0
H674 H 0.01674 0.56205 0.85426 0.0
H675 H 0.98489 0.60032 0.02355 0.0
H676 H 0.05223 0.59946 0.02862 0.0
H677 H 0.08349 0.58764 0.04759 0.0
H678 H 0.07072 0.58794 0.26858 0.0
H679 H 0.03922 0.59946 0.25065 0.0
C680 C 0.98924 0.68104 0.21753 0.0
C681 C 0.98739 0.68187 0.29157 0.0
C682 C 0.99448 0.66491 0.17487 0.0
C683 C 0.99801 0.64934 0.20553 0.0
C684 C 0.9968 0.65032 0.27964 0.0
C685 C 0.99144 0.6664 0.32225 0.0
C686 C 1.00233 0.63184 0.16019 0.0
C687 C 0.01944 0.62372 0.1704 0.0
C688 C 0.98976 0.62332 0.10647 0.0
C689 C 0.97108 0.63076 0.09536 0.0
C690 C 0.95806 0.63372 0.15152 0.0
C691 C 0.94055 0.64088 0.14083 0.0
C692 C 0.93582 0.64499 0.07403 0.0
C693 C 0.94858 0.64191 0.01772 0.0
C694 C 0.96613 0.63477 0.02817 0.0
C695 C 0.02296 0.54899 0.0166 0.0
C696 C 0.02178 0.54732 0.94204 0.0
C697 C 0.0199 0.56574 0.0596 0.0
C698 C 0.01576 0.58115 0.02881 0.0
C699 C 1.0147 0.57951 0.95441 0.0
C700 C 0.0177 0.5628 0.91149 0.0
C701 C 1.01184 0.59885 0.07386 0.0
C702 C 0.99473 0.60702 0.06377 0.0
C703 C 0.02447 0.60743 0.12749 0.0
C704 C 0.04327 0.60016 0.1381 0.0
C705 C 0.05599 0.59681 0.08109 0.0
C706 C 0.07378 0.5902 0.09171 0.0
C707 C 0.07909 0.58704 0.15927 0.0
C708 C 0.06658 0.5904 0.21627 0.0
C709 C 0.04876 0.59697 0.20591 0.0
H710 H 0.09291 0.58206 0.16759 0.0
H711 H 0.92225 0.65053 0.06585 0.0
H712 H 0.06999 0.20327 0.33101 0.0
H713 H 0.06007 0.18161 0.4091 0.0
H714 H 1.01048 0.2122 0.4669 0.0
H715 H 0.0191 0.2328 0.38294 0.0
H716 H 0.03298 0.19123 0.57797 0.0
H717 H 1.00116 0.19024 0.35186 0.0
H718 H 0.99588 0.19363 0.21543 0.0
H719 H 0.02851 0.1246 0.18128 0.0
H720 H 0.03071 0.13191 0.32633 0.0
H721 H 0.97777 0.10252 0.60624 0.0
H722 H 0.9833 0.13361 0.57923 0.0
H723 H 0.04129 0.12181 0.53007 0.0
H724 H 0.03588 0.09082 0.55569 0.0
H725 H 1.00761 0.13566 0.42254 0.0
H726 H 0.05074 0.14811 0.63707 0.0
H727 H 0.05554 0.14877 0.7658 0.0
H728 H 1.00584 0.17979 0.81075 0.0
H729 H 1.00089 0.17945 0.68191 0.0
C730 C 0.05707 0.20559 0.36096 0.0
C731 C 0.04481 0.21916 0.34737 0.0
C732 C 0.05151 0.19324 0.4059 0.0
C733 C 0.03408 0.19485 0.44041 0.0
C734 C 0.02372 0.21049 0.43855 0.0
C735 C 0.02879 0.22238 0.39082 0.0
C736 C 0.02582 0.17915 0.47023 0.0
C737 C 0.02722 0.1792 0.54389 0.0
C738 C 0.01839 0.16332 0.42542 0.0
C739 C 0.01674 0.16181 0.34662 0.0
C740 C 1.00668 0.17949 0.31356 0.0
C741 C 1.00254 0.18158 0.22727 0.0
C742 C 1.00815 0.16482 0.15892 0.0
C743 C 0.0232 0.13758 0.20784 0.0
C744 C 0.02458 0.14197 0.29885 0.0
C745 C 0.9917 0.10663 0.59003 0.0
C746 C 1.00641 0.09427 0.58316 0.0
C747 C 0.99487 0.12439 0.57547 0.0
C748 C 1.01276 0.12998 0.554 0.0
C749 C 0.02749 0.11779 0.54806 0.0
C750 C 0.02437 0.10012 0.56269 0.0
C751 C 0.01572 0.1476 0.52856 0.0
C752 C 1.01319 0.14789 0.45593 0.0
C753 C 0.02249 0.16345 0.57333 0.0
C754 C 0.02537 0.16363 0.65026 0.0
C755 C 0.04079 0.15497 0.67448 0.0
C756 C 0.04355 0.15531 0.74741 0.0
C757 C 0.03092 0.16419 0.79648 0.0
C758 C 0.01558 0.17287 0.77267 0.0
C759 C 1.01282 0.17266 0.69975 0.0
H760 H 0.03305 0.16442 0.85289 0.0
H761 H 1.00485 0.16709 0.10498 0.0
H762 H 0.28207 0.00876 0.40066 0.0
H763 H 0.29805 0.00943 0.51475 0.0
H764 H 0.33274 0.96566 0.42023 0.0
H765 H 0.31695 0.96498 0.30589 0.0
H766 H 0.32281 0.97601 0.60116 0.0
H767 H 0.36137 0.99682 0.37849 0.0
H768 H 0.35714 0.01184 0.27276 0.0
H769 H 0.32151 0.05084 0.39309 0.0
H770 H 0.32558 0.03605 0.49944 0.0
H771 H 0.41713 0.96187 0.60882 0.0
H772 H 0.38361 0.96628 0.60873 0.0
H773 H 0.39381 0.02461 0.63069 0.0
H774 H 0.42734 0.02018 0.62067 0.0
H775 H 0.37406 0.01618 0.5269 0.0
H776 H 0.36522 1.00256 0.75474 0.0
H777 H 0.36932 0.9877 0.86057 0.0
H778 H 0.34521 0.93759 0.74762 0.0
H779 H 0.34142 0.952 0.64056 0.0
C780 C 0.29244 0.99866 0.40518 0.0
C781 C 0.29867 0.9871 0.34442 0.0
C782 C 0.30138 0.99893 0.47062 0.0
C783 C 0.31653 0.98763 0.4755 0.0
C784 C 0.32091 0.97434 0.41738 0.0
C785 C 0.31213 0.97417 0.35187 0.0
C786 C 0.33164 0.99373 0.52728 0.0
C787 C 0.334 0.98504 0.58668 0.0
C788 C 0.34572 0.00609 0.50934 0.0
C789 C 0.3438 0.01541 0.44657 0.0
C790 C 0.35276 0.00869 0.38233 0.0
C791 C 0.35036 0.01711 0.32236 0.0
C792 C 0.3391 0.03229 0.32627 0.0
C793 C 0.33024 0.03909 0.39017 0.0
C794 C 0.3326 0.03072 0.45029 0.0
C795 C 0.41235 0.97566 0.61263 0.0
C796 C 0.42516 0.99054 0.61167 0.0
C797 C 0.39302 0.97824 0.61526 0.0
C798 C 0.38602 0.99583 0.61996 0.0
C799 C 0.39882 0.01087 0.62662 0.0
C800 C 0.41814 0.00827 0.62112 0.0
C801 C 0.36605 0.99796 0.60117 0.0
C802 C 0.36276 0.00801 0.54607 0.0
C803 C 0.35105 0.98734 0.62528 0.0
C804 C 0.3531 0.97842 0.68947 0.0
C805 C 0.36095 0.98834 0.75234 0.0
C806 C 0.3632 0.98 0.81259 0.0
C807 C 0.35751 0.96173 0.81092 0.0
C808 C 0.34958 0.95177 0.74891 0.0
C809 C 0.34735 0.96003 0.6884 0.0
H810 H 0.35926 0.95531 0.85766 0.0
H811 H 0.33727 0.0388 0.27985 0.0
H812 H 0.49139 0.29455 0.59981 0.0
H813 H 0.49523 0.32565 0.66522 0.0
H814 H 0.55529 0.32392 0.63168 0.0
H815 H 0.55147 0.29263 0.56858 0.0
H816 H 0.54775 0.34633 0.75339 0.0
H817 H 0.52503 0.33764 0.50771 0.0
H818 H 0.50264 0.32611 0.41098 0.0
H819 H 0.45788 0.35411 0.52853 0.0
H820 H 0.47998 0.3657 0.62667 0.0
H821 H 0.54128 0.44452 0.64677 0.0
H822 H 0.5405 0.41107 0.61681 0.0
H823 H 0.52766 0.40668 0.83546 0.0
H824 H 0.529 0.43964 0.86598 0.0
H825 H 0.51237 0.38724 0.62313 0.0
H826 H 0.54226 0.36826 0.88066 0.0
H827 H 0.56449 0.38096 0.97682 0.0
H828 H 0.59582 0.40931 0.8318 0.0
H829 H 0.57388 0.39664 0.73461 0.0
C830 C 0.50549 0.30044 0.61026 0.0
C831 C 0.52116 0.29116 0.57982 0.0
C832 C 0.50766 0.31833 0.64648 0.0
C833 C 0.52549 0.32735 0.65134 0.0
C834 C 0.54138 0.31733 0.62824 0.0
C835 C 0.53923 0.29934 0.59285 0.0
C836 C 0.52734 0.34759 0.67091 0.0
C837 C 0.53995 0.35527 0.72516 0.0
C838 C 0.51735 0.35936 0.63366 0.0
C839 C 0.50411 0.35238 0.57472 0.0
C840 C 0.5104 0.34126 0.51308 0.0
C841 C 0.49776 0.33475 0.45795 0.0
C842 C 0.47886 0.33933 0.46347 0.0
C843 C 0.47253 0.35053 0.52428 0.0
C844 C 0.4851 0.35709 0.57968 0.0
C845 C 0.53857 0.4364 0.68851 0.0
C846 C 0.53536 0.44484 0.75877 0.0
C847 C 0.53806 0.41729 0.67137 0.0
C848 C 0.5343 0.40629 0.7241 0.0
C849 C 0.53108 0.41475 0.7941 0.0
C850 C 0.53176 0.43372 0.81133 0.0
C851 C 0.53277 0.38602 0.70562 0.0
C852 C 0.52018 0.37833 0.65157 0.0
C853 C 0.54276 0.37431 0.7431 0.0
C854 C 0.55639 0.38155 0.80049 0.0
C855 C 0.55398 0.37709 0.86918 0.0
C856 C 0.5665 0.38432 0.9239 0.0
C857 C 0.58154 0.39595 0.91044 0.0
C858 C 0.58414 0.40033 0.84217 0.0
C859 C 0.57166 0.39314 0.78727 0.0
H860 H 0.5912 0.40156 0.95291 0.0
H861 H 0.46913 0.33421 0.4206 0.0
H862 H 0.25735 0.563 0.26405 0.0
H863 H 0.23444 0.58135 0.3363 0.0
H864 H 0.2387 0.54703 0.49816 0.0
H865 H 0.26175 0.52893 0.42658 0.0
H866 H 0.20549 0.55687 0.33435 0.0
H867 H 0.21273 0.56323 0.64263 0.0
H868 H 0.23541 0.57591 0.73697 0.0
H869 H 0.25801 0.61331 0.60503 0.0
H870 H 0.23528 0.60105 0.51018 0.0
H871 H 0.12978 0.5196 0.50729 0.0
H872 H 0.161 0.52876 0.46777 0.0
H873 H 0.14961 0.58526 0.54196 0.0
H874 H 0.1184 0.57616 0.58262 0.0
H875 H 0.18496 0.57499 0.58395 0.0
H876 H 0.14792 0.57008 0.3686 0.0
H877 H 0.12626 0.55481 0.27461 0.0
H878 H 0.1651 0.51183 0.22029 0.0
H879 H 0.18682 0.52662 0.3146 0.0
C880 C 0.25443 0.56026 0.31739 0.0
C881 C 0.26078 0.54431 0.33914 0.0
C882 C 0.2413 0.57074 0.35868 0.0
C883 C 0.23442 0.56518 0.42145 0.0
C884 C 0.24372 0.55154 0.44974 0.0
C885 C 0.25695 0.54114 0.40864 0.0
C886 C 0.21446 0.56813 0.44108 0.0
C887 C 0.20099 0.56125 0.38875 0.0
C888 C 0.20862 0.57362 0.51205 0.0
C889 C 0.22229 0.58116 0.56908 0.0
C890 C 0.22243 0.57424 0.63382 0.0
C891 C 0.23534 0.58134 0.68739 0.0
C892 C 0.24816 0.5954 0.67697 0.0
C893 C 0.2481 0.60239 0.61295 0.0
C894 C 0.23523 0.59534 0.5592 0.0
C895 C 0.13395 0.53396 0.51533 0.0
C896 C 0.12168 0.54718 0.54782 0.0
C897 C 0.1517 0.53918 0.49231 0.0
C898 C 0.15746 0.5577 0.50135 0.0
C899 C 0.14532 0.57093 0.53423 0.0
C900 C 0.12751 0.56572 0.55692 0.0
C901 C 0.17639 0.56305 0.47772 0.0
C902 C 0.18951 0.57126 0.52926 0.0
C903 C 0.18209 0.55835 0.40615 0.0
C904 C 0.16896 0.54944 0.3492 0.0
C905 C 0.15178 0.5573 0.33703 0.0
C906 C 0.1395 0.54873 0.28361 0.0
C907 C 0.14428 0.53233 0.24178 0.0
C908 C 0.16139 0.52452 0.25287 0.0
C909 C 0.1737 0.533 0.30627 0.0
H910 H 0.13471 0.52564 0.20092 0.0
H911 H 0.25813 0.60087 0.71852 0.0
H912 H 0.97441 0.79074 0.23013 0.0
H913 H 0.98138 0.81307 0.15174 0.0
H914 H 0.03765 0.79315 0.12006 0.0
H915 H 0.03077 0.77126 0.20151 0.0
H916 H 0.03918 0.82736 0.17298 0.0
H917 H 1.0045 0.79287 0.97907 0.0
H918 H 0.97712 0.77458 0.9243 0.0
H919 H 0.94202 0.82065 0.97669 0.0
H920 H 0.96908 0.83913 0.03303 0.0
H921 H 0.06366 0.90093 0.98895 0.0
H922 H 0.05653 0.86972 0.00939 0.0
H923 H 1.00098 0.88499 0.08279 0.0
H924 H 1.00813 0.91639 0.06462 0.0
H925 H 1.00118 0.85091 0.99112 0.0
H926 H 0.03246 0.88265 0.20178 0.0
H927 H 0.05797 0.90123 0.26882 0.0
H928 H 0.09762 0.86039 0.19268 0.0
H929 H 0.0724 0.84171 0.12394 0.0
C930 C 0.9879 0.79048 0.20318 0.0
C931 C 1.00199 0.7792 0.22077 0.0
C932 C 0.99193 0.8033 0.15844 0.0
C933 C 1.01007 0.80485 0.12973 0.0
C934 C 0.02356 0.79222 0.14154 0.0
C935 C 0.01958 0.77955 0.18721 0.0
C936 C 0.01584 0.82149 0.09947 0.0
C937 C 0.03117 0.83218 0.13158 0.0
C938 C 1.00498 0.82821 0.04748 0.0
C939 C 0.98884 0.81737 0.01077 0.0
C940 C 0.99093 0.79909 0.97926 0.0
C941 C 0.97544 0.78866 0.94807 0.0
C942 C 0.95781 0.79641 0.94743 0.0
C943 C 0.95566 0.81464 0.97748 0.0
C944 C 0.97109 0.82511 0.00891 0.0
C945 C 0.04999 0.89774 0.01021 0.0
C946 C 0.03654 0.91126 0.02581 0.0
C947 C 0.04587 0.87984 0.02105 0.0
C948 C 0.02823 0.87507 0.04748 0.0
C949 C 1.01462 0.88837 0.06168 0.0
C950 C 0.01876 0.90632 0.05135 0.0
C951 C 0.0244 0.85653 0.0649 0.0
C952 C 1.00942 0.84569 0.0309 0.0
C953 C 0.03541 0.84967 0.11581 0.0
C954 C 0.0506 0.8609 0.15693 0.0
C955 C 0.04666 0.87772 0.19872 0.0
C956 C 0.06105 0.88825 0.23718 0.0
C957 C 0.0794 0.88201 0.23493 0.0
C958 C 0.0834 0.86522 0.19425 0.0
C959 C 0.06907 0.85466 0.15549 0.0
H960 H 0.09051 0.89017 0.26484 0.0
H961 H 0.94585 0.78832 0.92322 0.0
H962 H 0.74972 0.05797 0.37642 0.0
H963 H 0.73044 0.07592 0.30894 0.0
H964 H 0.73399 0.03426 0.12412 0.0
H965 H 0.75342 0.0164 0.19108 0.0
H966 H 0.72679 0.06907 0.08836 0.0
H967 H 0.70173 0.02614 0.23679 0.0
H968 H 0.69789 0.01285 0.34728 0.0
H969 H 0.68164 0.06473 0.45957 0.0
H970 H 0.68537 0.0783 0.34955 0.0
H971 H 0.63654 0.04156 0.95169 0.0
H972 H 0.66868 0.04935 0.99257 0.0
H973 H 0.64796 0.08849 0.16493 0.0
H974 H 0.6157 0.07985 0.12729 0.0
H975 H 0.66594 0.0635 0.21342 0.0
H976 H 0.68037 0.10083 0.03717 0.0
H977 H 0.68122 0.10894 0.9164 0.0
H978 H 0.71565 0.0633 0.84504 0.0
H979 H 0.71477 0.05471 0.96505 0.0
C980 C 0.74715 0.05312 0.32037 0.0
C981 C 0.75268 0.0357 0.28913 0.0
C982 C 0.7362 0.06338 0.28187 0.0
C983 C 0.73047 0.05617 0.21221 0.0
C984 C 0.73826 0.04003 0.17788 0.0
C985 C 0.74934 0.02981 0.21624 0.0
C986 C 0.71314 0.06253 0.18279 0.0
C987 C 0.71344 0.06809 0.1156 0.0
C988 C 0.6958 0.06121 0.2187 0.0
C989 C 0.69409 0.05328 0.28539 0.0
C990 C 0.6975 0.03474 0.28524 0.0
C991 C 0.69523 0.02713 0.3476 0.0
C992 C 0.68957 0.03795 0.41042 0.0
C993 C 0.68609 0.05638 0.41091 0.0
C994 C 0.68823 0.06403 0.34857 0.0
C995 C 0.63883 0.05202 0.99775 0.0
C996 C 0.62352 0.05966 0.03751 0.0
C997 C 0.65728 0.05676 0.02023 0.0
C998 C 0.66077 0.06951 0.08198 0.0
C999 C 0.64558 0.07861 0.11713 0.0
C1000 C 0.62711 0.07367 0.09536 0.0
C1001 C 0.67928 0.07012 0.1182 0.0
C1002 C 0.67923 0.06549 0.18688 0.0
C1003 C 0.69663 0.07184 0.08246 0.0
C1004 C 0.69747 0.07711 0.0103 0.0
C1005 C 0.68805 0.09246 0.99569 0.0
C1006 C 0.68854 0.09714 0.92732 0.0
C1007 C 0.69847 0.08663 0.87308 0.0
C1008 C 0.70797 0.07143 0.88714 0.0
C1009 C 0.70752 0.06668 0.9554 0.0
H1010 H 0.69881 0.09027 0.82017 0.0
H1011 H 0.68781 0.03204 0.45861 0.0
H1012 H 0.5519 0.70441 0.99887 0.0
H1013 H 0.54705 0.67341 0.93431 0.0
H1014 H 0.48712 0.67706 0.96786 0.0
H1015 H 0.49204 0.70803 0.03289 0.0
H1016 H 0.50218 0.65076 0.03175 0.0
H1017 H 0.50617 0.66987 0.80472 0.0
H1018 H 0.52025 0.6858 0.71229 0.0
H1019 H 0.56781 0.65137 0.69878 0.0
H1020 H 0.55456 0.63585 0.79399 0.0
H1021 H 0.4913 0.55407 0.91196 0.0
H1022 H 0.48744 0.58724 0.92749 0.0
H1023 H 0.54611 0.59513 0.87633 0.0
H1024 H 0.54993 0.56239 0.85953 0.0
H1025 H 0.52646 0.61564 0.80875 0.0
H1026 H 0.52895 0.60395 0.05056 0.0
H1027 H 0.51926 0.58979 0.15453 0.0
H1028 H 0.46394 0.61081 0.14505 0.0
H1029 H 0.47326 0.62496 0.04051 0.0
C1030 C 0.53761 0.69905 0.98823 0.0
C1031 C 0.52233 0.70863 0.02039 0.0
C1032 C 0.53484 0.6812 0.95206 0.0
C1033 C 0.51672 0.67279 0.94708 0.0
C1034 C 0.50122 0.68323 0.97135 0.0
C1035 C 0.504 0.70105 0.00744 0.0
C1036 C 0.51442 0.65258 0.92915 0.0
C1037 C 0.50706 0.6431 0.98211 0.0
C1038 C 0.52146 0.64256 0.86556 0.0
C1039 C 0.52939 0.65177 0.80741 0.0
C1040 C 0.51977 0.66585 0.78304 0.0
C1041 C 0.52765 0.67486 0.73017 0.0
C1042 C 0.54491 0.6696 0.69962 0.0
C1043 C 0.55444 0.65544 0.72252 0.0
C1044 C 0.54678 0.64658 0.77622 0.0
C1045 C 0.50339 0.56293 0.90488 0.0
C1046 C 0.52092 0.55554 0.88472 0.0
C1047 C 0.50117 0.58188 0.91353 0.0
C1048 C 0.5165 0.59376 0.90301 0.0
C1049 C 0.53401 0.58633 0.88403 0.0
C1050 C 0.53619 0.56753 0.87494 0.0
C1051 C 0.51466 0.61394 0.91209 0.0
C1052 C 0.52124 0.62337 0.85766 0.0
C1053 C 0.50745 0.62402 0.97513 0.0
C1054 C 0.50171 0.61527 0.03714 0.0
C1055 C 0.51466 0.60539 0.07022 0.0
C1056 C 0.50926 0.59741 0.12935 0.0
C1057 C 0.49097 0.59934 0.15619 0.0
C1058 C 0.47807 0.60929 0.12406 0.0
C1059 C 0.48341 0.61729 0.06489 0.0
H1060 H 0.48682 0.59317 0.20203 0.0
H1061 H 0.55086 0.67645 0.65807 0.0
H1062 H 0.79888 0.49327 0.19146 0.0
H1063 H 0.8191 0.49408 0.08842 0.0
H1064 H 0.83919 0.54855 0.17694 0.0
H1065 H 0.81989 0.54707 0.28318 0.0
H1066 H 0.83084 0.50972 0.98449 0.0
H1067 H 0.88427 0.55236 0.16492 0.0
H1068 H 0.89168 0.56283 0.29199 0.0
H1069 H 0.866 0.51357 0.34576 0.0
H1070 H 0.8582 0.50293 0.21906 0.0
H1071 H 0.93957 0.50126 0.91568 0.0
H1072 H 0.91064 0.51809 0.93935 0.0
H1073 H 0.88126 0.46883 0.97913 0.0
H1074 H 0.91045 0.45201 0.95665 0.0
H1075 H 0.89545 0.51499 0.0862 0.0
H1076 H 0.83361 0.47777 0.91263 0.0
H1077 H 0.82837 0.46365 0.78751 0.0
H1078 H 0.87364 0.49707 0.72204 0.0
H1079 H 0.87881 0.51172 0.84552 0.0
C1080 C 0.80706 0.50568 0.18742 0.0
C1081 C 0.80817 0.51999 0.24502 0.0
C1082 C 0.8186 0.50619 0.12842 0.0
C1083 C 0.83119 0.52113 0.12614 0.0
C1084 C 0.83002 0.53665 0.17874 0.0
C1085 C 0.81891 0.5359 0.23901 0.0
C1086 C 0.84776 0.51854 0.07852 0.0
C1087 C 0.84499 0.51103 0.00646 0.0
C1088 C 0.86634 0.52059 0.10664 0.0
C1089 C 0.87048 0.527 0.18293 0.0
C1090 C 0.88013 0.54383 0.20402 0.0
C1091 C 0.88435 0.5498 0.27588 0.0
C1092 C 0.87919 0.53892 0.32692 0.0
C1093 C 0.86981 0.52203 0.30621 0.0
C1094 C 0.86544 0.51606 0.23445 0.0
C1095 C 0.92671 0.49391 0.92642 0.0
C1096 C 0.927 0.4754 0.93373 0.0
C1097 C 0.91027 0.50351 0.94001 0.0
C1098 C 0.89387 0.49461 0.96005 0.0
C1099 C 0.89378 0.47578 0.96235 0.0
C1100 C 0.91036 0.46623 0.94994 0.0
C1101 C 0.87836 0.50541 0.99372 0.0
C1102 C 0.8814 0.51438 0.06331 0.0
C1103 C 0.86013 0.50427 0.96369 0.0
C1104 C 0.85671 0.49574 0.88868 0.0
C1105 C 0.84235 0.48221 0.87137 0.0
C1106 C 0.83938 0.47411 0.80053 0.0
C1107 C 0.85067 0.47944 0.74656 0.0
C1108 C 0.86489 0.49292 0.7634 0.0
C1109 C 0.86786 0.50112 0.83388 0.0
H1110 H 0.84841 0.47315 0.69176 0.0
H1111 H 0.88254 0.54354 0.38244 0.0
H1112 H 0.02104 0.204 0.06442 0.0
H1113 H 0.02114 0.17336 0.99392 0.0
H1114 H 0.08098 0.17147 0.02869 0.0
H1115 H 0.08084 0.20202 0.10018 0.0
H1116 H 0.06814 0.15196 0.89479 0.0
H1117 H 0.05504 0.16378 0.14517 0.0
H1118 H 0.03934 0.17577 0.27333 0.0
H1119 H 0.97837 0.12941 0.16067 0.0
H1120 H 1.00186 0.12507 0.04894 0.0
H1121 H 0.06766 0.05253 0.88449 0.0
H1122 H 0.07358 0.08554 0.92138 0.0
H1123 H 1.01511 0.09485 0.88434 0.0
H1124 H 1.00912 0.06226 0.84666 0.0
H1125 H 0.03076 0.10995 0.02389 0.0
H1126 H 0.04243 0.10649 0.77182 0.0
H1127 H 0.05849 0.09574 0.65869 0.0
H1128 H 0.11158 0.11653 0.75088 0.0
H1129 H 0.0959 0.12719 0.86509 0.0
C1130 C 0.03434 0.19737 0.05414 0.0
C1131 C 0.05093 0.20524 0.08759 0.0
C1132 C 0.03435 0.17982 0.01467 0.0
C1133 C 0.05094 0.16999 0.00832 0.0
C1134 C 0.068 0.17879 0.03372 0.0
C1135 C 0.06794 0.19623 0.07424 0.0
C1136 C 0.05008 0.15 0.98469 0.0
C1137 C 0.05995 0.14279 0.92312 0.0
C1138 C 0.0394 0.13804 0.02214 0.0
C1139 C 0.0291 0.14421 0.08948 0.0
C1140 C 0.04074 0.15924 0.15378 0.0
C1141 C 0.03092 0.16631 0.2352 0.0
C1142 C 0.99744 0.15084 0.24329 0.0
C1143 C 0.99184 0.13679 0.16549 0.0
C1144 C 1.00699 0.13418 0.09551 0.0
C1145 C 0.0561 0.06164 0.88425 0.0
C1146 C 0.03789 0.05476 0.86329 0.0
C1147 C 0.05954 0.08046 0.90474 0.0
C1148 C 0.04477 0.09255 0.90524 0.0
C1149 C 0.02668 0.0857 0.88411 0.0
C1150 C 0.02329 0.06705 0.86277 0.0
C1151 C 0.04762 0.11226 0.93203 0.0
C1152 C 0.03853 0.11932 0.99519 0.0
C1153 C 0.05857 0.12406 0.89553 0.0
C1154 C 0.06805 0.11736 0.82739 0.0
C1155 C 0.05757 0.10852 0.76836 0.0
C1156 C 0.06658 0.10253 0.70391 0.0
C1157 C 0.08603 0.10538 0.69767 0.0
C1158 C 0.09652 0.11428 0.75585 0.0
C1159 C 0.08758 0.12031 0.82045 0.0
H1160 H 0.09297 0.10074 0.64769 0.0
H1161 H 0.98702 0.1517 0.28608 0.0
H1162 H 0.31743 0.97316 0.056 0.0
H1163 H 0.3482 0.97455 0.99729 0.0
H1164 H 0.35669 0.03053 0.09737 0.0
H1165 H 0.32571 0.02917 0.15493 0.0
H1166 H 0.3721 0.02577 0.96386 0.0
H1167 H 0.37572 0.99677 0.17043 0.0
H1168 H 0.36602 0.97447 0.24824 0.0
H1169 H 0.37933 0.93039 0.08292 0.0
H1170 H 0.38875 0.95246 0.00371 0.0
H1171 H 0.47848 1.00173 0.99505 0.0
H1172 H 0.44602 1.00248 0.03913 0.0
H1173 H 0.4254 1.00048 0.82496 0.0
H1174 H 0.45781 0.99986 0.78078 0.0
H1175 H 0.41624 0.97954 0.01869 0.0
H1176 H 0.38428 0.02385 0.82884 0.0
H1177 H 0.39479 0.04746 0.75808 0.0
H1178 H 0.4401 0.06421 0.90583 0.0
H1179 H 0.42974 0.04076 0.97755 0.0
C1180 C 0.32556 0.98596 0.06329 0.0
C1181 C 0.31892 1.00118 0.10895 0.0
C1182 C 0.34332 0.98669 0.03046 0.0
C1183 C 0.3551 1.00258 0.04334 0.0
C1184 C 0.34801 0.01811 0.08606 0.0
C1185 C 0.33022 0.01737 0.1188 0.0
C1186 C 0.3752 1.00252 0.01709 0.0
C1187 C 0.38169 0.0156 0.97568 0.0
C1188 C 0.38808 0.98956 0.0333 0.0
C1189 C 0.38277 0.97625 0.08104 0.0
C1190 C 0.37645 0.98231 0.15061 0.0
C1191 C 0.37101 0.96972 0.19494 0.0
C1192 C 0.37203 0.95102 0.17049 0.0
C1193 C 0.37853 0.94488 0.10174 0.0
C1194 C 0.38393 0.95742 0.05711 0.0
C1195 C 0.46708 1.0015 0.95716 0.0
C1196 C 0.47098 1.00088 0.88409 0.0
C1197 C 0.44841 1.00185 0.98255 0.0
C1198 C 0.43302 1.00174 0.93588 0.0
C1199 C 0.43686 1.0009 0.86274 0.0
C1200 C 0.45552 1.00051 0.83733 0.0
C1201 C 0.41306 1.00249 0.9638 0.0
C1202 C 0.40663 0.98961 0.00615 0.0
C1203 C 0.40036 0.01581 0.94923 0.0
C1204 C 0.40635 0.03037 0.90793 0.0
C1205 C 0.39644 0.03259 0.8462 0.0
C1206 C 0.40239 0.04593 0.80592 0.0
C1207 C 0.41816 0.05728 0.82728 0.0
C1208 C 0.42794 0.05536 0.88917 0.0
C1209 C 0.42205 0.04202 0.92957 0.0
H1210 H 0.42276 0.06759 0.79599 0.0
H1211 H 0.36782 0.94128 0.20486 0.0
H1212 H 0.53806 0.27567 0.27782 0.0
H1213 H 0.53719 0.29819 0.19644 0.0
H1214 H 0.48252 0.31432 0.27798 0.0
H1215 H 0.48309 0.29142 0.35678 0.0
H1216 H 0.48353 0.31885 0.14805 0.0
H1217 H 0.52697 0.33784 0.34675 0.0
H1218 H 0.55426 0.33369 0.42205 0.0
H1219 H 0.59036 0.32948 0.23904 0.0
H1220 H 0.56313 0.33328 0.16278 0.0
H1221 H 0.48326 0.41419 0.15132 0.0
H1222 H 0.48523 0.38376 0.18304 0.0
H1223 H 0.53248 0.37302 0.04191 0.0
H1224 H 0.53018 0.40327 0.00716 0.0
H1225 H 0.53772 0.36356 0.18123 0.0
H1226 H 0.4934 0.3523 0.98963 0.0
H1227 H 0.46523 0.35798 0.92204 0.0
H1228 H 0.42997 0.34946 0.0985 0.0
H1229 H 0.45797 0.34399 0.16762 0.0
C1230 C 0.52554 0.28352 0.27612 0.0
C1231 C 0.51068 0.28185 0.32392 0.0
C1232 C 0.52519 0.29665 0.23052 0.0
C1233 C 0.51009 0.30852 0.23265 0.0
C1234 C 0.49444 0.30555 0.27537 0.0
C1235 C 0.49474 0.29238 0.32044 0.0
C1236 C 0.51101 0.32492 0.19565 0.0
C1237 C 0.49538 0.32861 0.15559 0.0
C1238 C 0.5266 0.33764 0.20368 0.0
C1239 C 0.54299 0.3355 0.24917 0.0
C1240 C 0.54069 0.3358 0.3227 0.0
C1241 C 0.55614 0.33356 0.36549 0.0
C1242 C 0.57402 0.33123 0.33528 0.0
C1243 C 0.57649 0.33122 0.26231 0.0
C1244 C 0.56105 0.33341 0.21931 0.0
C1245 C 0.49391 0.40534 0.12587 0.0
C1246 C 0.50648 0.41134 0.07622 0.0
C1247 C 0.49507 0.38792 0.1445 0.0
C1248 C 0.50892 0.37604 0.11454 0.0
C1249 C 0.5217 0.38197 0.0658 0.0
C1250 C 0.52041 0.39936 0.04638 0.0
C1251 C 0.51006 0.3576 0.13555 0.0
C1252 C 0.52604 0.3536 0.17261 0.0
C1253 C 0.49471 0.34473 0.12554 0.0
C1254 C 0.47781 0.34786 0.08398 0.0
C1255 C 0.47965 0.35177 0.01424 0.0
C1256 C 0.46371 0.35493 0.97561 0.0
C1257 C 0.44582 0.35411 0.006 0.0
C1258 C 0.44384 0.35009 0.07504 0.0
C1259 C 0.45974 0.34694 0.11393 0.0
H1260 H 0.4335 0.35657 0.97602 0.0
H1261 H 0.58598 0.32951 0.36844 0.0
H1262 H 0.2224 0.47904 0.20552 0.0
H1263 H 0.19122 0.47586 0.14778 0.0
H1264 H 0.20811 0.51693 0.02088 0.0
H1265 H 0.23898 0.5203 0.07957 0.0
H1266 H 0.17517 0.52472 0.07662 0.0
H1267 H 0.20111 0.46959 0.95093 0.0
H1268 H 0.21593 0.43975 0.94046 0.0
H1269 H 0.16963 0.41883 0.053 0.0
H1270 H 0.15464 0.44863 0.06493 0.0
H1271 H 0.09698 0.51714 0.83799 0.0
H1272 H 0.12844 0.51668 0.88989 0.0
H1273 H 0.10867 0.47579 0.01299 0.0
H1274 H 0.07727 0.47599 0.96066 0.0
H1275 H 0.14245 0.46735 0.96359 0.0
H1276 H 0.1155 0.52151 0.08292 0.0
H1277 H 0.10064 0.5513 0.09717 0.0
H1278 H 0.14872 0.5744 0.00132 0.0
H1279 H 0.16373 0.5446 0.98507 0.0
C1280 C 0.21965 0.48687 0.16342 0.0
C1281 C 0.23337 0.49958 0.14582 0.0
C1282 C 0.20173 0.48517 0.13067 0.0
C1283 C 0.1971 0.4961 0.07926 0.0
C1284 C 0.21111 0.50832 0.06016 0.0
C1285 C 0.22891 0.51007 0.09304 0.0
C1286 C 0.17752 0.49566 0.04803 0.0
C1287 C 0.1682 0.51218 0.05079 0.0
C1288 C 0.16787 0.4793 0.01664 0.0
C1289 C 0.17685 0.46139 0.00944 0.0
C1290 C 0.19416 0.45867 0.97392 0.0
C1291 C 0.20258 0.44176 0.96764 0.0
C1292 C 0.19375 0.42742 0.99622 0.0
C1293 C 0.17646 0.42995 0.03098 0.0
C1294 C 0.16799 0.44684 0.03747 0.0
C1295 C 0.09926 0.50801 0.87606 0.0
C1296 C 0.08436 0.49667 0.89506 0.0
C1297 C 0.11735 0.50781 0.90609 0.0
C1298 C 0.1211 0.49636 0.95646 0.0
C1299 C 0.10633 0.48479 0.97451 0.0
C1300 C 0.08825 0.48497 0.94451 0.0
C1301 C 0.1403 0.49649 0.99052 0.0
C1302 C 0.14948 0.47992 0.98891 0.0
C1303 C 0.1498 0.51282 0.02327 0.0
C1304 C 0.14068 0.53073 0.03214 0.0
C1305 C 0.12283 0.53287 0.06412 0.0
C1306 C 0.1144 0.54979 0.07276 0.0
C1307 C 0.12373 0.56475 0.05016 0.0
C1308 C 0.1415 0.5628 0.01878 0.0
C1309 C 0.14998 0.54589 0.00985 0.0
H1310 H 0.11723 0.57786 0.05706 0.0
H1311 H 0.20029 0.41434 0.99129 0.0
H1312 H 0.03512 0.79757 0.46219 0.0
H1313 H 0.03883 0.82758 0.53627 0.0
H1314 H 0.97912 0.82689 0.57983 0.0
H1315 H 0.97556 0.79662 0.50724 0.0
H1316 H 0.02418 0.85575 0.49716 0.0
H1317 H 0.96962 0.85757 0.72743 0.0
H1318 H 0.95792 0.83767 0.81167 0.0
H1319 H 1.00963 0.80911 0.79131 0.0
H1320 H 0.02175 0.82896 0.70769 0.0
H1321 H 1.00205 0.94793 0.61119 0.0
H1322 H 0.99914 0.91495 0.56985 0.0
H1323 H 0.02486 0.90503 0.76491 0.0
H1324 H 0.02713 0.93763 0.80733 0.0
H1325 H 0.99836 0.88112 0.73309 0.0
H1326 H 0.04927 0.90443 0.60473 0.0
H1327 H 0.06495 0.92389 0.52701 0.0
H1328 H 0.02816 0.90106 0.35428 0.0
H1329 H 1.01187 0.88183 0.43176 0.0
C1330 C 0.02299 0.80351 0.49037 0.0
C1331 C 1.00509 0.79486 0.47966 0.0
C1332 C 0.02506 0.82071 0.53202 0.0
C1333 C 1.00924 0.82959 0.56304 0.0
C1334 C 0.99157 0.82026 0.55713 0.0
C1335 C 0.98954 0.80293 0.51595 0.0
C1336 C 1.01075 0.84934 0.59243 0.0
C1337 C 0.0186 0.86128 0.54896 0.0
C1338 C 1.00364 0.85657 0.66011 0.0
C1339 C 0.99648 0.84462 0.71058 0.0
C1340 C 0.97851 0.84708 0.74106 0.0
C1341 C 0.97181 0.83581 0.78867 0.0
C1342 C 0.98299 0.82209 0.80638 0.0
C1343 C 1.00095 0.81968 0.77709 0.0
C1344 C 1.00772 0.83091 0.72947 0.0
C1345 C 1.00696 0.93869 0.6453 0.0
C1346 C 1.01485 0.94542 0.71237 0.0
C1347 C 1.00536 0.91985 0.62159 0.0
C1348 C 1.01202 0.90748 0.66388 0.0
C1349 C 0.01956 0.91423 0.73135 0.0
C1350 C 0.0209 0.93296 0.75542 0.0
C1351 C 1.01172 0.88753 0.63765 0.0
C1352 C 1.00397 0.87557 0.6814 0.0
C1353 C 0.01948 0.88021 0.57104 0.0
C1354 C 0.0292 0.89184 0.52436 0.0
C1355 C 0.0444 0.90368 0.55038 0.0
C1356 C 0.05343 0.91466 0.50628 0.0
C1357 C 0.04759 0.9137 0.43562 0.0
C1358 C 0.03267 0.9018 0.40901 0.0
C1359 C 0.0235 0.89089 0.45306 0.0
H1360 H 0.05464 0.92216 0.40145 0.0
H1361 H 0.97775 0.81331 0.84267 0.0
H1362 H 0.73278 0.02642 0.53955 0.0
H1363 H 0.70262 0.0232 0.59983 0.0
H1364 H 0.69263 0.97031 0.47253 0.0
H1365 H 0.723 0.97354 0.41221 0.0
H1366 H 0.66215 0.99118 0.47079 0.0
H1367 H 0.702 0.97547 0.6531 0.0
H1368 H 0.72824 0.9794 0.73941 0.0
H1369 H 0.7049 0.02881 0.84683 0.0
H1370 H 0.67873 0.02543 0.76021 0.0
H1371 H 0.57687 0.97088 0.64702 0.0
H1372 H 0.60866 0.97041 0.59697 0.0
H1373 H 0.62348 0.02064 0.73578 0.0
H1374 H 0.59188 0.02089 0.78741 0.0
H1375 H 0.65184 0.99995 0.73171 0.0
H1376 H 0.61368 0.01757 0.54912 0.0
H1377 H 0.58745 0.01517 0.46301 0.0
H1378 H 0.60751 0.96414 0.35653 0.0
H1379 H 0.63374 0.96612 0.44263 0.0
C1380 C 0.72445 0.01383 0.52606 0.0
C1381 C 0.73055 1.00007 0.47198 0.0
C1382 C 0.7071 0.01202 0.56044 0.0
C1383 C 0.69516 0.99646 0.54135 0.0
C1384 C 0.70148 0.98245 0.48866 0.0
C1385 C 0.719 0.98418 0.45479 0.0
C1386 C 0.67576 0.99537 0.57332 0.0
C1387 C 0.65995 0.99276 0.52787 0.0
C1388 C 0.67263 0.99809 0.64795 0.0
C1389 C 0.68849 1.00028 0.69961 0.0
C1390 C 0.70257 0.9873 0.6946 0.0
C1391 C 0.71743 0.98942 0.74365 0.0
C1392 C 0.71829 0.00439 0.79837 0.0
C1393 C 0.70427 0.01727 0.80422 0.0
C1394 C 0.68942 0.01525 0.75515 0.0
C1395 C 0.58686 0.98184 0.66709 0.0
C1396 C 0.5816 0.99596 0.72134 0.0
C1397 C 0.60512 0.98163 0.6379 0.0
C1398 C 0.61866 0.99566 0.66128 0.0
C1399 C 0.61348 0.00962 0.71621 0.0
C1400 C 0.59527 0.00978 0.74574 0.0
C1401 C 0.63817 0.99574 0.62922 0.0
C1402 C 0.65401 0.99825 0.67461 0.0
C1403 C 0.64133 0.99316 0.55454 0.0
C1404 C 0.62555 0.99189 0.50284 0.0
C1405 C 0.6124 0.00576 0.50771 0.0
C1406 C 0.59755 0.00449 0.45884 0.0
C1407 C 0.59578 0.98949 0.40447 0.0
C1408 C 0.60888 0.97574 0.39876 0.0
C1409 C 0.62375 0.97693 0.44756 0.0
H1410 H 0.58428 0.98853 0.36666 0.0
H1411 H 0.72978 0.00599 0.8364 0.0
H1412 H 0.55919 0.71963 0.3042 0.0
H1413 H 0.56217 0.69575 0.37858 0.0
H1414 H 0.50421 0.67831 0.33394 0.0
H1415 H 0.50101 0.70256 0.26229 0.0
H1416 H 0.512 0.67203 0.45937 0.0
H1417 H 0.54081 0.65857 0.23214 0.0
H1418 H 0.56189 0.66377 0.13348 0.0
H1419 H 0.61007 0.66396 0.26973 0.0
H1420 H 0.58922 0.65901 0.36957 0.0
H1421 H 0.5481 0.57257 0.42546 0.0
H1422 H 0.5441 0.60086 0.37779 0.0
H1423 H 0.54254 0.63084 0.59115 0.0
H1424 H 0.54668 0.60258 0.63941 0.0
H1425 H 0.56416 0.63088 0.38166 0.0
H1426 H 0.51152 0.66806 0.58981 0.0
H1427 H 0.48675 0.65985 0.67156 0.0
H1428 H 0.47923 0.60692 0.54432 0.0
H1429 H 0.50369 0.61492 0.46134 0.0
C1430 C 0.54688 0.7112 0.31273 0.0
C1431 C 0.52991 0.7129 0.27685 0.0
C1432 C 0.54866 0.69734 0.3544 0.0
C1433 C 0.53357 0.6848 0.3603 0.0
C1434 C 0.51613 0.68762 0.32997 0.0
C1435 C 0.5143 0.70153 0.28892 0.0
C1436 C 0.53632 0.66785 0.39185 0.0
C1437 C 0.52353 0.66314 0.44305 0.0
C1438 C 0.55086 0.65575 0.36837 0.0
C1439 C 0.56346 0.65863 0.30851 0.0
C1440 C 0.5559 0.65985 0.24118 0.0
C1441 C 0.5678 0.66274 0.18504 0.0
C1442 C 0.5873 0.66425 0.19539 0.0
C1443 C 0.59495 0.66282 0.26185 0.0
C1444 C 0.5831 0.65997 0.31823 0.0
C1445 C 0.54711 0.58519 0.46242 0.0
C1446 C 0.54772 0.58519 0.53642 0.0
C1447 C 0.54477 0.6014 0.43499 0.0
C1448 C 0.54291 0.61806 0.48071 0.0
C1449 C 0.54369 0.61817 0.55465 0.0
C1450 C 0.546 0.60194 0.58219 0.0
C1451 C 0.54011 0.63523 0.45076 0.0
C1452 C 0.55282 0.63991 0.39924 0.0
C1453 C 0.52495 0.64684 0.4717 0.0
C1454 C 0.5099 0.64194 0.52055 0.0
C1455 C 0.50466 0.65464 0.57956 0.0
C1456 C 0.49062 0.65004 0.62598 0.0
C1457 C 0.48157 0.6328 0.6136 0.0
C1458 C 0.48639 0.62021 0.5543 0.0
C1459 C 0.50038 0.62477 0.50762 0.0
H1460 H 0.47073 0.62926 0.64967 0.0
H1461 H 0.5965 0.66648 0.15186 0.0
H1462 H 0.8174 0.51604 0.56882 0.0
H1463 H 0.8468 0.51364 0.63473 0.0
H1464 H 0.87089 0.48316 0.44616 0.0
H1465 H 0.84156 0.48506 0.38154 0.0
H1466 H 0.88288 0.46987 0.55726 0.0
H1467 H 0.87939 0.53067 0.4991 0.0
H1468 H 0.86494 0.56041 0.49937 0.0
H1469 H 0.8668 0.57061 0.72795 0.0
H1470 H 0.88103 0.54081 0.72897 0.0
H1471 H 0.98148 0.48941 0.61976 0.0
H1472 H 0.94921 0.48889 0.57332 0.0
H1473 H 0.92916 0.50993 0.78318 0.0
H1474 H 0.96145 0.51015 0.83014 0.0
H1475 H 0.9144 0.5279 0.67089 0.0
H1476 H 0.91903 0.46817 0.73008 0.0
H1477 H 0.93381 0.43869 0.73149 0.0
H1478 H 0.92982 0.42659 0.50352 0.0
H1479 H 0.91523 0.45614 0.50065 0.0
C1480 C 0.82878 0.50841 0.54215 0.0
C1481 C 0.82707 0.50082 0.4697 0.0
C1482 C 0.84575 0.50725 0.57954 0.0
C1483 C 0.86145 0.49859 0.54524 0.0
C1484 C 0.85923 0.49003 0.47425 0.0
C1485 C 0.84236 0.49114 0.43718 0.0
C1486 C 0.88044 0.49905 0.5812 0.0
C1487 C 0.88978 0.48262 0.58129 0.0
C1488 C 0.88955 0.51554 0.6146 0.0
C1489 C 0.88114 0.53349 0.61409 0.0
C1490 C 0.87663 0.53924 0.54938 0.0
C1491 C 0.86849 0.55609 0.54931 0.0
C1492 C 0.86493 0.56738 0.61364 0.0
C1493 C 0.86955 0.56185 0.67817 0.0
C1494 C 0.87767 0.54499 0.67853 0.0
C1495 C 0.97024 0.49396 0.65611 0.0
C1496 C 0.97412 0.49975 0.72892 0.0
C1497 C 0.95172 0.4936 0.62948 0.0
C1498 C 0.9366 0.49933 0.67459 0.0
C1499 C 0.94049 0.50543 0.74711 0.0
C1500 C 0.95896 0.50545 0.77402 0.0
C1501 C 0.91683 0.4988 0.64578 0.0
C1502 C 0.90742 0.51518 0.64694 0.0
C1503 C 0.90764 0.48229 0.61364 0.0
C1504 C 0.91621 0.46444 0.61507 0.0
C1505 C 0.92144 0.45929 0.68018 0.0
C1506 C 0.92976 0.44256 0.68127 0.0
C1507 C 0.93281 0.4308 0.61762 0.0
C1508 C 0.92747 0.43573 0.55277 0.0
C1509 C 0.91915 0.45245 0.55137 0.0
H1510 H 0.93926 0.41786 0.61855 0.0
H1511 H 0.85863 0.58043 0.6135 0.0
loop_
_geom_bond_atom_site_label_1
_geom_bond_atom_site_label_2
_geom_bond_distance
_geom_bond_site_symmetry_2
_ccdc_geom_bond_type
H0 C1 0.949 . S
C1 H0 0.949 . S
C1 C2 1.395 . S
C1 C3 1.391 . S
C2 C1 1.395 . S
C2 C5 1.390 . S
C3 C1 1.391 . S
C3 C7 1.387 . S
C3 C8 1.491 . S
H4 C5 0.950 . S
C5 C2 1.390 . S
C5 H4 0.950 . S
C5 C6 1.378 . S
C6 C5 1.378 . S
C6 C7 1.409 . S
C7 C3 1.387 . S
C7 C6 1.409 . S
C7 H9 0.951 . S
C8 C3 1.491 . S
C8 C10 1.382 . S
C8 C12 1.404 . S
H9 C7 0.951 . S
C10 C8 1.382 . S
C10 C11 1.390 . S
C10 H15 0.949 . S
C11 C10 1.390 . S
C11 C16 1.399 . S
C12 C8 1.404 . S
C12 H13 0.950 . S
C12 C14 1.375 . S
H13 C12 0.950 . S
C14 C12 1.375 . S
C14 C16 1.382 . S
C14 H18 0.950 . S
H15 C10 0.949 . S
C16 C11 1.399 . S
C16 C14 1.382 . S
C16 H17 0.952 . S
H17 C16 0.952 . S
H18 C14 0.950 . S
H19 C20 0.949 . S
C20 H19 0.949 . S
C20 C21 1.395 . S
C20 C22 1.391 . S
C21 C20 1.395 . S
C21 C24 1.390 . S
C22 C20 1.391 . S
C22 C26 1.387 . S
C22 C27 1.491 . S
H23 C24 0.950 . S
C24 C21 1.390 . S
C24 H23 0.950 . S
C24 C25 1.378 . S
C25 C24 1.378 . S
C25 C26 1.409 . S
C26 C22 1.387 . S
C26 C25 1.409 . S
C26 H28 0.951 . S
C27 C22 1.491 . S
C27 C29 1.382 . S
C27 C31 1.404 . S
H28 C26 0.951 . S
C29 C27 1.382 . S
C29 C30 1.390 . S
C29 H34 0.949 . S
C30 C29 1.390 . S
C30 C35 1.399 . S
C31 C27 1.404 . S
C31 H32 0.950 . S
C31 C33 1.375 . S
H32 C31 0.950 . S
C33 C31 1.375 . S
C33 C35 1.382 . S
C33 H37 0.950 . S
H34 C29 0.949 . S
C35 C30 1.399 . S
C35 C33 1.382 . S
C35 H36 0.952 . S
H36 C35 0.952 . S
H37 C33 0.950 . S
H38 C39 0.949 . S
C39 H38 0.949 . S
C39 C40 1.396 . S
C39 C41 1.391 . S
C40 C39 1.396 . S
C40 C43 1.391 1_565 S
C41 C39 1.391 . S
C41 C45 1.387 . S
C41 C46 1.491 . S
H42 C43 0.950 . S
C43 C40 1.391 1_545 S
C43 H42 0.950 . S
C43 C44 1.373 1_545 S
C44 C43 1.373 1_565 S
C44 C45 1.413 . S
C45 C41 1.387 . S
C45 C44 1.413 . S
C45 H47 0.951 . S
C46 C41 1.491 . S
C46 C48 1.413 . S
C46 C50 1.404 . S
H47 C45 0.951 . S
C48 C46 1.413 . S
C48 C49 1.404 . S
C48 H53 0.905 1_565 S
C49 C48 1.404 . S
C49 C54 1.399 . S
C50 C46 1.404 . S
C50 H51 0.950 . S
C50 C52 1.375 . S
H51 C50 0.950 . S
C52 C50 1.375 . S
C52 C54 1.382 . S
C52 H56 0.950 . S
H53 C48 0.905 1_545 S
C54 C49 1.399 . S
C54 C52 1.382 . S
C54 H55 0.952 . S
H55 C54 0.952 . S
H56 C52 0.950 . S
H57 C58 0.949 . S
C58 H57 0.949 . S
C58 C59 1.395 . S
C58 C60 1.391 1_556 S
C59 C58 1.395 . S
C59 C62 1.390 1_556 S
C60 C58 1.391 1_554 S
C60 C64 1.387 . S
C60 C65 1.491 . S
H61 C62 0.950 . S
C62 C59 1.390 1_554 S
C62 H61 0.950 . S
C62 C63 1.378 . S
C63 C62 1.378 . S
C63 C64 1.409 . S
C64 C60 1.387 . S
C64 C63 1.409 . S
C64 H66 0.951 . S
C65 C60 1.491 . S
C65 C67 1.382 1_554 S
C65 C69 1.404 . S
H66 C64 0.951 . S
C67 C65 1.382 1_556 S
C67 C68 1.390 . S
C67 H72 0.949 . S
C68 C67 1.390 . S
C68 C73 1.399 1_556 S
C69 C65 1.404 . S
C69 H70 0.950 . S
C69 C71 1.375 . S
H70 C69 0.950 . S
C71 C69 1.375 . S
C71 C73 1.382 . S
C71 H75 0.950 . S
H72 C67 0.949 . S
C73 C68 1.399 1_554 S
C73 C71 1.382 . S
C73 H74 0.952 . S
H74 C73 0.952 . S
H75 C71 0.950 . S
H76 C77 0.949 . S
C77 H76 0.949 . S
C77 C78 1.395 . S
C77 C79 1.391 . S
C78 C77 1.395 . S
C78 C81 1.390 . S
C79 C77 1.391 . S
C79 C83 1.387 . S
C79 C84 1.491 . S
H80 C81 0.950 . S
C81 C78 1.390 . S
C81 H80 0.950 . S
C81 C82 1.378 . S
C82 C81 1.378 . S
C82 C83 1.409 . S
C83 C79 1.387 . S
C83 C82 1.409 . S
C83 H85 0.951 . S
C84 C79 1.491 . S
C84 C86 1.382 . S
C84 C88 1.404 . S
H85 C83 0.951 . S
C86 C84 1.382 . S
C86 C87 1.390 . S
C86 H91 0.949 . S
C87 C86 1.390 . S
C87 C92 1.399 . S
C88 C84 1.404 . S
C88 H89 0.950 . S
C88 C90 1.375 . S
H89 C88 0.950 . S
C90 C88 1.375 . S
C90 C92 1.382 . S
C90 H94 0.950 . S
H91 C86 0.949 . S
C92 C87 1.399 . S
C92 C90 1.382 . S
C92 H93 0.952 . S
H93 C92 0.952 . S
H94 C90 0.950 . S
H95 C96 0.949 . S
C96 H95 0.949 . S
C96 C97 1.395 . S
C96 C98 1.391 . S
C97 C96 1.395 . S
C97 C100 1.390 . S
C98 C96 1.391 . S
C98 C102 1.387 . S
C98 C103 1.491 . S
H99 C100 0.950 . S
C100 C97 1.390 . S
C100 H99 0.950 . S
C100 C101 1.378 . S
C101 C100 1.378 . S
C101 C102 1.409 . S
C102 C98 1.387 . S
C102 C101 1.409 . S
C102 H104 0.951 . S
C103 C98 1.491 . S
C103 C105 1.382 . S
C103 C107 1.404 . S
H104 C102 0.951 . S
C105 C103 1.382 . S
C105 C106 1.390 . S
C105 H110 0.949 . S
C106 C105 1.390 . S
C106 C111 1.399 . S
C107 C103 1.404 . S
C107 H108 0.950 . S
C107 C109 1.375 . S
H108 C107 0.950 . S
C109 C107 1.375 . S
C109 C111 1.382 . S
C109 H113 0.941 1_455 S
H110 C105 0.949 . S
C111 C106 1.399 . S
C111 C109 1.382 . S
C111 H112 0.952 . S
H112 C111 0.952 . S
H113 C109 0.941 1_655 S
H114 C115 0.949 . S
C115 H114 0.949 . S
C115 C116 1.395 1_565 S
C115 C117 1.391 . S
C116 C115 1.395 1_545 S
C116 C119 1.389 . S
C117 C115 1.391 . S
C117 C121 1.387 . S
C117 C122 1.491 . S
H118 C119 0.950 . S
C119 C116 1.389 . S
C119 H118 0.950 . S
C119 C120 1.378 1_545 S
C120 C119 1.378 1_565 S
C120 C121 1.410 . S
C121 C117 1.387 . S
C121 C120 1.410 . S
C121 H123 0.951 . S
C122 C117 1.491 . S
C122 C124 1.396 . S
C122 C126 1.404 . S
H123 C121 0.951 . S
C124 C122 1.396 . S
C124 C125 1.398 . S
C124 H129 0.928 1_565 S
C125 C124 1.398 . S
C125 C130 1.399 . S
C126 C122 1.404 . S
C126 H127 0.950 . S
C126 C128 1.375 . S
H127 C126 0.950 . S
C128 C126 1.375 . S
C128 C130 1.382 . S
C128 H132 0.950 . S
H129 C124 0.928 1_545 S
C130 C125 1.399 . S
C130 C128 1.382 . S
C130 H131 0.952 . S
H131 C130 0.952 . S
H132 C128 0.950 . S
H133 C134 0.949 . S
C134 H133 0.949 . S
C134 C135 1.395 . S
C134 C136 1.391 . S
C135 C134 1.395 . S
C135 C138 1.390 . S
C136 C134 1.391 . S
C136 C140 1.387 . S
C136 C141 1.491 . S
H137 C138 0.950 . S
C138 C135 1.390 . S
C138 H137 0.950 . S
C138 C139 1.378 . S
C139 C138 1.378 . S
C139 C140 1.409 . S
C140 C136 1.387 . S
C140 C139 1.409 . S
C140 H142 0.951 . S
C141 C136 1.491 . S
C141 C143 1.382 . S
C141 C145 1.404 . S
H142 C140 0.951 . S
C143 C141 1.382 . S
C143 C144 1.390 . S
C143 H148 0.949 . S
C144 C143 1.390 . S
C144 C149 1.399 . S
C145 C141 1.404 . S
C145 H146 0.950 . S
C145 C147 1.375 . S
H146 C145 0.950 . S
C147 C145 1.375 . S
C147 C149 1.382 . S
C147 H151 0.950 . S
H148 C143 0.949 . S
C149 C144 1.399 . S
C149 C147 1.382 . S
C149 H150 0.952 . S
H150 C149 0.952 . S
H151 C147 0.950 . S
Tb152 C161 2.764 . S
Tb152 O162 2.325 1_655 S
Tb152 O165 2.303 1_655 S
Tb152 O169 2.322 1_545 S
Tb152 O170 2.349 . S
Tb152 O173 2.415 1_655 S
Tb152 O174 2.399 . S
Tb153 O163 2.322 1_565 S
Tb153 O164 2.349 . S
Tb153 O166 2.415 . S
Tb153 O167 2.399 . S
Tb153 O168 2.325 . S
Tb153 O171 2.303 1_455 S
Tb153 C182 2.764 . S
C154 O170 1.261 . S
C154 O171 1.257 1_545 S
C155 C158 1.358 . S
C155 C159 1.332 1_655 S
C155 C161 1.504 . S
C156 C157 1.373 . S
C156 C160 1.308 1_655 S
C157 C156 1.373 . S
C157 C158 1.429 . S
C157 H184 0.932 . S
C158 C155 1.358 . S
C158 C157 1.429 . S
C158 H185 0.930 . S
C159 C155 1.332 1_455 S
C159 C160 1.394 . S
C159 H186 0.932 . S
C160 C156 1.308 1_455 S
C160 C159 1.394 . S
C160 H187 0.929 . S
C161 Tb152 2.764 . S
C161 C155 1.504 . S
C161 O173 1.239 1_655 S
C161 O174 1.263 . S
O162 Tb152 2.325 1_455 S
O162 C172 1.236 . S
O163 Tb153 2.322 1_545 S
O163 C172 1.257 . S
O164 Tb153 2.349 . S
O164 C175 1.261 . S
O165 Tb152 2.303 1_455 S
O165 C175 1.257 1_545 S
O166 Tb153 2.415 . S
O166 C182 1.239 . S
O167 Tb153 2.399 . S
O167 C182 1.263 . S
O168 Tb153 2.325 . S
O168 C183 1.236 . S
O169 Tb152 2.322 1_565 S
O169 C183 1.257 1_655 S
O170 Tb152 2.349 . S
O170 C154 1.261 . S
O171 Tb153 2.303 1_655 S
O171 C154 1.257 1_565 S
C172 O162 1.236 . S
C172 O163 1.257 . S
O173 Tb152 2.415 1_455 S
O173 C161 1.239 1_455 S
O174 Tb152 2.399 . S
O174 C161 1.263 . S
C175 O164 1.261 . S
C175 O165 1.257 1_565 S
C176 C179 1.358 . S
C176 C180 1.332 . S
C176 C182 1.504 . S
C177 C178 1.373 . S
C177 C181 1.308 . S
C178 C177 1.373 . S
C178 C179 1.429 1_554 S
C178 H188 0.932 . S
C179 C176 1.358 . S
C179 C178 1.429 1_556 S
C179 H189 0.930 . S
C180 C176 1.332 . S
C180 C181 1.394 1_556 S
C180 H190 0.932 1_455 S
C181 C177 1.308 . S
C181 C180 1.394 1_554 S
C181 H191 0.929 1_455 S
C182 Tb153 2.764 . S
C182 O166 1.239 . S
C182 O167 1.263 . S
C182 C176 1.504 . S
C183 O168 1.236 . S
C183 O169 1.257 1_455 S
H184 C157 0.932 . S
H185 C158 0.930 . S
H186 C159 0.932 . S
H187 C160 0.929 . S
H188 C178 0.932 . S
H189 C179 0.930 . S
H190 C180 0.932 1_655 S
H191 C181 0.929 1_655 S
Tb192 C201 2.764 . S
Tb192 O202 2.325 . S
Tb192 O205 2.303 1_565 S
Tb192 O209 2.322 . S
Tb192 O210 2.349 . S
Tb192 O213 2.415 1_565 S
Tb192 O214 2.399 . S
Tb193 O203 2.322 . S
Tb193 O204 2.349 . S
Tb193 O206 2.415 1_545 S
Tb193 O207 2.399 . S
Tb193 O208 2.325 . S
Tb193 O211 2.303 1_545 S
Tb193 C222 2.764 . S
C194 O210 1.261 . S
C194 O211 1.257 . S
C195 C198 1.358 . S
C195 C199 1.332 1_565 S
C195 C201 1.504 . S
C196 C197 1.373 . S
C196 C200 1.308 1_565 S
C197 C196 1.373 . S
C197 C198 1.429 . S
C197 H224 0.932 . S
C198 C195 1.358 . S
C198 C197 1.429 . S
C198 H225 0.930 . S
C199 C195 1.332 1_545 S
C199 C200 1.394 . S
C199 H226 0.932 . S
C200 C196 1.308 1_545 S
C200 C199 1.394 . S
C200 H227 0.929 . S
C201 Tb192 2.764 . S
C201 C195 1.504 . S
C201 O213 1.239 1_565 S
C201 O214 1.263 . S
O202 Tb192 2.325 . S
O202 C212 1.236 1_565 S
O203 Tb193 2.322 . S
O203 C212 1.257 . S
O204 Tb193 2.349 . S
O204 C215 1.261 . S
O205 Tb192 2.303 1_545 S
O205 C215 1.257 . S
O206 Tb193 2.415 1_565 S
O206 C222 1.239 1_565 S
O207 Tb193 2.399 . S
O207 C222 1.263 . S
O208 Tb193 2.325 . S
O208 C223 1.236 1_545 S
O209 Tb192 2.322 . S
O209 C223 1.257 . S
O210 Tb192 2.349 . S
O210 C194 1.261 . S
O211 Tb193 2.303 1_565 S
O211 C194 1.257 . S
C212 O202 1.236 1_545 S
C212 O203 1.257 . S
O213 Tb192 2.415 1_545 S
O213 C201 1.239 1_545 S
O214 Tb192 2.399 . S
O214 C201 1.263 . S
C215 O204 1.261 . S
C215 O205 1.257 . S
C216 C219 1.358 1_556 S
C216 C220 1.332 1_545 S
C216 C222 1.504 . S
C217 C218 1.373 . S
C217 C221 1.308 1_545 S
C218 C217 1.373 . S
C218 C219 1.429 . S
C218 H228 0.932 . S
C219 C216 1.358 1_554 S
C219 C218 1.429 . S
C219 H229 0.930 . S
C220 C216 1.332 1_565 S
C220 C221 1.394 1_556 S
C220 H230 0.932 . S
C221 C217 1.308 1_565 S
C221 C220 1.394 1_554 S
C221 H231 0.929 . S
C222 Tb193 2.764 . S
C222 O206 1.239 1_545 S
C222 O207 1.263 . S
C222 C216 1.504 . S
C223 O208 1.236 1_565 S
C223 O209 1.257 . S
H224 C197 0.932 . S
H225 C198 0.930 . S
H226 C199 0.932 . S
H227 C200 0.929 . S
H228 C218 0.932 . S
H229 C219 0.930 . S
H230 C220 0.932 . S
H231 C221 0.929 . S
Tb232 C241 2.764 . S
Tb232 O242 2.325 . S
Tb232 O245 2.303 . S
Tb232 O249 2.322 . S
Tb232 O250 2.349 . S
Tb232 O253 2.415 . S
Tb232 O254 2.399 . S
Tb233 O243 2.322 . S
Tb233 O244 2.349 . S
Tb233 O246 2.415 . S
Tb233 O247 2.399 . S
Tb233 O248 2.325 . S
Tb233 O251 2.303 . S
Tb233 C262 2.764 . S
C234 O250 1.261 . S
C234 O251 1.257 . S
C235 C238 1.358 . S
C235 C239 1.332 . S
C235 C241 1.504 1_554 S
C236 C237 1.373 . S
C236 C240 1.308 . S
C237 C236 1.373 . S
C237 C238 1.429 . S
C237 H264 0.932 . S
C238 C235 1.358 . S
C238 C237 1.429 . S
C238 H265 0.930 . S
C239 C235 1.332 . S
C239 C240 1.394 . S
C239 H266 0.932 . S
C240 C236 1.308 . S
C240 C239 1.394 . S
C240 H267 0.929 . S
C241 Tb232 2.764 . S
C241 C235 1.504 1_556 S
C241 O253 1.239 . S
C241 O254 1.263 . S
O242 Tb232 2.325 . S
O242 C252 1.236 . S
O243 Tb233 2.322 . S
O243 C252 1.257 . S
O244 Tb233 2.349 . S
O244 C255 1.261 . S
O245 Tb232 2.303 . S
O245 C255 1.257 . S
O246 Tb233 2.415 . S
O246 C262 1.239 . S
O247 Tb233 2.399 . S
O247 C262 1.263 . S
O248 Tb233 2.325 . S
O248 C263 1.236 . S
O249 Tb232 2.322 . S
O249 C263 1.257 . S
O250 Tb232 2.349 . S
O250 C234 1.261 . S
O251 Tb233 2.303 . S
O251 C234 1.257 . S
C252 O242 1.236 . S
C252 O243 1.257 . S
O253 Tb232 2.415 . S
O253 C241 1.239 . S
O254 Tb232 2.399 . S
O254 C241 1.263 . S
C255 O244 1.261 . S
C255 O245 1.257 . S
C256 C259 1.358 . S
C256 C260 1.332 . S
C256 C262 1.504 . S
C257 C258 1.373 . S
C257 C261 1.308 . S
C258 C257 1.373 . S
C258 C259 1.429 . S
C258 H268 0.932 . S
C259 C256 1.358 . S
C259 C258 1.429 . S
C259 H269 0.930 . S
C260 C256 1.332 . S
C260 C261 1.394 . S
C260 H270 0.932 . S
C261 C257 1.308 . S
C261 C260 1.394 . S
C261 H271 0.929 . S
C262 Tb233 2.764 . S
C262 O246 1.239 . S
C262 O247 1.263 . S
C262 C256 1.504 . S
C263 O248 1.236 . S
C263 O249 1.257 . S
H264 C237 0.932 . S
H265 C238 0.930 . S
H266 C239 0.932 . S
H267 C240 0.929 . S
H268 C258 0.932 . S
H269 C259 0.930 . S
H270 C260 0.932 . S
H271 C261 0.929 . S
Tb272 C281 2.764 . S
Tb272 O282 2.325 . S
Tb272 O285 2.303 . S
Tb272 O289 2.322 1_455 S
Tb272 O290 2.349 . S
Tb272 O293 2.415 . S
Tb272 O294 2.399 . S
Tb273 O283 2.322 1_655 S
Tb273 O284 2.349 1_655 S
Tb273 O286 2.415 . S
Tb273 O287 2.399 . S
Tb273 O288 2.325 . S
Tb273 O291 2.303 1_655 S
Tb273 C302 2.764 . S
C274 O290 1.261 . S
C274 O291 1.257 . S
C275 C278 1.358 . S
C275 C279 1.332 . S
C275 C281 1.504 . S
C276 C277 1.373 . S
C276 C280 1.308 . S
C277 C276 1.373 . S
C277 C278 1.429 . S
C277 H304 0.932 . S
C278 C275 1.358 . S
C278 C277 1.429 . S
C278 H305 0.930 . S
C279 C275 1.332 . S
C279 C280 1.394 . S
C279 H306 0.932 . S
C280 C276 1.308 . S
C280 C279 1.394 . S
C280 H307 0.929 . S
C281 Tb272 2.764 . S
C281 C275 1.504 . S
C281 O293 1.239 . S
C281 O294 1.263 . S
O282 Tb272 2.325 . S
O282 C292 1.236 . S
O283 Tb273 2.322 1_455 S
O283 C292 1.257 . S
O284 Tb273 2.349 1_455 S
O284 C295 1.261 . S
O285 Tb272 2.303 . S
O285 C295 1.257 . S
O286 Tb273 2.415 . S
O286 C302 1.239 . S
O287 Tb273 2.399 . S
O287 C302 1.263 . S
O288 Tb273 2.325 . S
O288 C303 1.236 . S
O289 Tb272 2.322 1_655 S
O289 C303 1.257 . S
O290 Tb272 2.349 . S
O290 C274 1.261 . S
O291 Tb273 2.303 1_455 S
O291 C274 1.257 . S
C292 O282 1.236 . S
C292 O283 1.257 . S
O293 Tb272 2.415 . S
O293 C281 1.239 . S
O294 Tb272 2.399 . S
O294 C281 1.263 . S
C295 O284 1.261 . S
C295 O285 1.257 . S
C296 C299 1.358 . S
C296 C300 1.332 . S
C296 C302 1.504 . S
C297 C298 1.373 . S
C297 C301 1.308 . S
C298 C297 1.373 . S
C298 C299 1.429 1_554 S
C298 H308 0.932 . S
C299 C296 1.358 . S
C299 C298 1.429 1_556 S
C299 H309 0.930 . S
C300 C296 1.332 . S
C300 C301 1.394 1_556 S
C300 H310 0.932 . S
C301 C297 1.308 . S
C301 C300 1.394 1_554 S
C301 H311 0.929 . S
C302 Tb273 2.764 . S
C302 O286 1.239 . S
C302 O287 1.263 . S
C302 C296 1.504 . S
C303 O288 1.236 . S
C303 O289 1.257 . S
H304 C277 0.932 . S
H305 C278 0.930 . S
H306 C279 0.932 . S
H307 C280 0.929 . S
H308 C298 0.932 . S
H309 C299 0.930 . S
H310 C300 0.932 . S
H311 C301 0.929 . S
H312 C330 0.951 . S
H313 C332 0.951 . S
H314 C334 0.950 . S
H315 C335 0.950 . S
H316 C337 0.950 . S
H317 C340 0.950 . S
H318 C341 0.950 . S
H319 C343 0.950 . S
H320 C344 0.950 . S
H321 C345 0.951 . S
H322 C347 0.951 . S
H323 C349 0.950 . S
H324 C350 0.950 . S
H325 C352 0.950 . S
H326 C355 0.950 . S
H327 C356 0.950 . S
H328 C358 0.950 . S
H329 C359 0.950 . S
C330 H312 0.951 . S
C330 C331 1.371 . S
C330 C332 1.388 . S
C331 C330 1.371 . S
C331 C335 1.379 1_545 S
C332 H313 0.951 . S
C332 C330 1.388 . S
C332 C333 1.366 . S
C333 C332 1.366 . S
C333 C334 1.414 1_545 S
C333 C336 1.506 . S
C334 H314 0.950 . S
C334 C333 1.414 1_565 S
C334 C335 1.374 . S
C335 H315 0.950 . S
C335 C331 1.379 1_565 S
C335 C334 1.374 . S
C336 C333 1.506 . S
C336 C337 1.319 1_545 S
C336 C338 1.439 . S
C337 H316 0.950 . S
C337 C336 1.319 1_565 S
C337 C353 1.377 . S
C338 C336 1.439 . S
C338 C339 1.524 . S
C338 C352 1.377 . S
C339 C338 1.524 . S
C339 C340 1.397 . S
C339 C344 1.363 . S
C340 H317 0.950 . S
C340 C339 1.397 . S
C340 C341 1.334 . S
C341 H318 0.950 . S
C341 C340 1.334 . S
C341 C342 1.287 . S
C342 C341 1.287 . S
C342 C343 1.524 . S
C342 H361 0.913 . S
C343 H319 0.950 . S
C343 C342 1.524 . S
C343 C344 1.415 . S
C344 H320 0.950 . S
C344 C339 1.363 . S
C344 C343 1.415 . S
C345 H321 0.951 . S
C345 C346 1.366 1_565 S
C345 C347 1.388 . S
C346 C345 1.366 1_545 S
C346 C350 1.385 . S
C347 H322 0.951 . S
C347 C345 1.388 . S
C347 C348 1.336 1_565 S
C348 C347 1.336 1_545 S
C348 C349 1.442 . S
C348 C351 1.497 . S
C349 H323 0.950 . S
C349 C348 1.442 . S
C349 C350 1.374 . S
C350 H324 0.950 . S
C350 C346 1.385 . S
C350 C349 1.374 . S
C351 C348 1.497 . S
C351 C352 1.420 . S
C351 C353 1.348 1_545 S
C352 H325 0.950 . S
C352 C338 1.377 . S
C352 C351 1.420 . S
C353 C337 1.377 . S
C353 C351 1.348 1_565 S
C353 C354 1.524 . S
C354 C353 1.524 . S
C354 C355 1.397 . S
C354 C359 1.363 . S
C355 H326 0.950 . S
C355 C354 1.397 . S
C355 C356 1.334 . S
C356 H327 0.950 . S
C356 C355 1.334 . S
C356 C357 1.287 . S
C357 C356 1.287 . S
C357 C358 1.524 . S
C357 H360 0.999 . S
C358 H328 0.950 . S
C358 C357 1.524 . S
C358 C359 1.415 . S
C359 H329 0.950 . S
C359 C354 1.363 . S
C359 C358 1.415 . S
H360 C357 0.999 . S
H361 C342 0.913 . S
H362 C380 0.951 . S
H363 C382 0.951 . S
H364 C384 0.950 . S
H365 C385 0.950 . S
H366 C387 0.950 . S
H367 C390 0.950 . S
H368 C391 0.950 . S
H369 C393 0.950 . S
H370 C394 0.950 . S
H371 C395 0.951 . S
H372 C397 0.951 . S
H373 C399 0.950 . S
H374 C400 0.950 . S
H375 C402 0.950 . S
H376 C405 0.950 . S
H377 C406 0.950 . S
H378 C408 0.950 1_554 S
H379 C409 0.950 . S
C380 H362 0.951 . S
C380 C381 1.366 . S
C380 C382 1.388 . S
C381 C380 1.366 . S
C381 C385 1.385 . S
C382 H363 0.951 . S
C382 C380 1.388 . S
C382 C383 1.366 . S
C383 C382 1.366 . S
C383 C384 1.414 . S
C383 C386 1.499 . S
C384 H364 0.950 . S
C384 C383 1.414 . S
C384 C385 1.374 . S
C385 H365 0.950 . S
C385 C381 1.385 . S
C385 C384 1.374 . S
C386 C383 1.499 . S
C386 C387 1.373 . S
C386 C388 1.389 . S
C387 H366 0.950 . S
C387 C386 1.373 . S
C387 C403 1.377 . S
C388 C386 1.389 . S
C388 C389 1.524 . S
C388 C402 1.377 . S
C389 C388 1.524 . S
C389 C390 1.397 . S
C389 C394 1.363 . S
C390 H367 0.950 . S
C390 C389 1.397 . S
C390 C391 1.334 . S
C391 H368 0.950 . S
C391 C390 1.334 . S
C391 C392 1.287 . S
C392 C391 1.287 . S
C392 C393 1.524 . S
C392 H411 0.913 . S
C393 H369 0.950 . S
C393 C392 1.524 . S
C393 C394 1.415 . S
C394 H370 0.950 . S
C394 C389 1.363 . S
C394 C393 1.415 . S
C395 H371 0.951 . S
C395 C396 1.366 . S
C395 C397 1.388 . S
C396 C395 1.366 . S
C396 C400 1.385 . S
C397 H372 0.951 . S
C397 C395 1.388 . S
C397 C398 1.366 . S
C398 C397 1.366 . S
C398 C399 1.414 . S
C398 C401 1.499 . S
C399 H373 0.950 . S
C399 C398 1.414 . S
C399 C400 1.374 . S
C400 H374 0.950 . S
C400 C396 1.385 . S
C400 C399 1.374 . S
C401 C398 1.499 . S
C401 C402 1.373 . S
C401 C403 1.389 . S
C402 H375 0.950 . S
C402 C388 1.377 . S
C402 C401 1.373 . S
C403 C387 1.377 . S
C403 C401 1.389 . S
C403 C404 1.524 . S
C404 C403 1.524 . S
C404 C405 1.397 . S
C404 C409 1.363 . S
C405 H376 0.950 . S
C405 C404 1.397 . S
C405 C406 1.334 . S
C406 H377 0.950 . S
C406 C405 1.334 . S
C406 C407 1.287 . S
C407 C406 1.287 . S
C407 C408 1.524 . S
C407 H410 0.999 1_556 S
C408 H378 0.950 1_556 S
C408 C407 1.524 . S
C408 C409 1.415 . S
C409 H379 0.950 . S
C409 C404 1.363 . S
C409 C408 1.415 . S
H410 C407 0.999 1_554 S
H411 C392 0.913 . S
H412 C430 0.951 . S
H413 C432 0.951 . S
H414 C434 0.950 . S
H415 C435 0.950 . S
H416 C437 0.950 . S
H417 C440 0.950 . S
H418 C441 0.950 . S
H419 C443 0.950 . S
H420 C444 0.950 . S
H421 C445 0.951 . S
H422 C447 0.951 . S
H423 C449 0.950 . S
H424 C450 0.950 . S
H425 C452 0.950 . S
H426 C455 0.950 . S
H427 C456 0.950 . S
H428 C458 0.950 . S
H429 C459 0.950 . S
C430 H412 0.951 . S
C430 C431 1.366 . S
C430 C432 1.388 . S
C431 C430 1.366 . S
C431 C435 1.385 . S
C432 H413 0.951 . S
C432 C430 1.388 . S
C432 C433 1.366 . S
C433 C432 1.366 . S
C433 C434 1.414 . S
C433 C436 1.499 . S
C434 H414 0.950 . S
C434 C433 1.414 . S
C434 C435 1.374 . S
C435 H415 0.950 . S
C435 C431 1.385 . S
C435 C434 1.374 . S
C436 C433 1.499 . S
C436 C437 1.373 . S
C436 C438 1.389 . S
C437 H416 0.950 . S
C437 C436 1.373 . S
C437 C453 1.377 . S
C438 C436 1.389 . S
C438 C439 1.524 . S
C438 C452 1.377 . S
C439 C438 1.524 . S
C439 C440 1.397 . S
C439 C444 1.363 . S
C440 H417 0.950 . S
C440 C439 1.397 . S
C440 C441 1.334 . S
C441 H418 0.950 . S
C441 C440 1.334 . S
C441 C442 1.287 . S
C442 C441 1.287 . S
C442 C443 1.524 . S
C442 H461 0.913 . S
C443 H419 0.950 . S
C443 C442 1.524 . S
C443 C444 1.415 . S
C444 H420 0.950 . S
C444 C439 1.363 . S
C444 C443 1.415 . S
C445 H421 0.951 . S
C445 C446 1.366 . S
C445 C447 1.388 . S
C446 C445 1.366 . S
C446 C450 1.385 . S
C447 H422 0.951 . S
C447 C445 1.388 . S
C447 C448 1.366 . S
C448 C447 1.366 . S
C448 C449 1.414 . S
C448 C451 1.499 . S
C449 H423 0.950 . S
C449 C448 1.414 . S
C449 C450 1.374 . S
C450 H424 0.950 . S
C450 C446 1.385 . S
C450 C449 1.374 . S
C451 C448 1.499 . S
C451 C452 1.373 . S
C451 C453 1.389 . S
C452 H425 0.950 . S
C452 C438 1.377 . S
C452 C451 1.373 . S
C453 C437 1.377 . S
C453 C451 1.389 . S
C453 C454 1.524 . S
C454 C453 1.524 . S
C454 C455 1.397 . S
C454 C459 1.363 . S
C455 H426 0.950 . S
C455 C454 1.397 . S
C455 C456 1.334 . S
C456 H427 0.950 . S
C456 C455 1.334 . S
C456 C457 1.287 . S
C457 C456 1.287 . S
C457 C458 1.524 . S
C457 H460 0.999 . S
C458 H428 0.950 . S
C458 C457 1.524 . S
C458 C459 1.415 . S
C459 H429 0.950 . S
C459 C454 1.363 . S
C459 C458 1.415 . S
H460 C457 0.999 . S
H461 C442 0.913 . S
H462 C480 0.951 . S
H463 C482 0.951 . S
H464 C484 0.950 . S
H465 C485 0.950 . S
H466 C487 0.950 . S
H467 C490 0.950 . S
H468 C491 0.950 . S
H469 C493 0.950 1_655 S
H470 C494 0.950 1_655 S
H471 C495 0.951 . S
H472 C497 0.951 . S
H473 C499 0.950 1_655 S
H474 C500 0.950 1_655 S
H475 C502 0.950 . S
H476 C505 0.950 . S
H477 C506 0.950 . S
H478 C508 0.950 . S
H479 C509 0.950 . S
C480 H462 0.951 . S
C480 C481 1.366 . S
C480 C482 1.388 . S
C481 C480 1.366 . S
C481 C485 1.385 . S
C482 H463 0.951 . S
C482 C480 1.388 . S
C482 C483 1.366 . S
C483 C482 1.366 . S
C483 C484 1.414 . S
C483 C486 1.499 . S
C484 H464 0.950 . S
C484 C483 1.414 . S
C484 C485 1.374 . S
C485 H465 0.950 . S
C485 C481 1.385 . S
C485 C484 1.374 . S
C486 C483 1.499 . S
C486 C487 1.373 . S
C486 C488 1.389 . S
C487 H466 0.950 . S
C487 C486 1.373 . S
C487 C503 1.377 . S
C488 C486 1.389 . S
C488 C489 1.524 . S
C488 C502 1.377 . S
C489 C488 1.524 . S
C489 C490 1.397 . S
C489 C494 1.363 . S
C490 H467 0.950 . S
C490 C489 1.397 . S
C490 C491 1.334 . S
C491 H468 0.950 . S
C491 C490 1.334 . S
C491 C492 1.287 . S
C492 C491 1.287 . S
C492 C493 1.524 . S
C492 H511 0.913 . S
C493 H469 0.950 1_455 S
C493 C492 1.524 . S
C493 C494 1.415 . S
C494 H470 0.950 1_455 S
C494 C489 1.363 . S
C494 C493 1.415 . S
C495 H471 0.951 . S
C495 C496 1.366 . S
C495 C497 1.388 . S
C496 C495 1.366 . S
C496 C500 1.385 . S
C497 H472 0.951 . S
C497 C495 1.388 . S
C497 C498 1.366 . S
C498 C497 1.366 . S
C498 C499 1.414 . S
C498 C501 1.499 . S
C499 H473 0.950 1_455 S
C499 C498 1.414 . S
C499 C500 1.374 . S
C500 H474 0.950 1_455 S
C500 C496 1.385 . S
C500 C499 1.374 . S
C501 C498 1.499 . S
C501 C502 1.373 . S
C501 C503 1.389 . S
C502 H475 0.950 . S
C502 C488 1.377 . S
C502 C501 1.373 . S
C503 C487 1.377 . S
C503 C501 1.389 . S
C503 C504 1.524 . S
C504 C503 1.524 . S
C504 C505 1.397 . S
C504 C509 1.363 . S
C505 H476 0.950 . S
C505 C504 1.397 . S
C505 C506 1.334 . S
C506 H477 0.950 . S
C506 C505 1.334 . S
C506 C507 1.287 . S
C507 C506 1.287 . S
C507 C508 1.524 . S
C507 H510 0.999 . S
C508 H478 0.950 . S
C508 C507 1.524 . S
C508 C509 1.415 . S
C509 H479 0.950 . S
C509 C504 1.363 . S
C509 C508 1.415 . S
H510 C507 0.999 . S
H511 C492 0.913 . S
H512 C530 0.951 . S
H513 C532 0.951 . S
H514 C534 0.950 . S
H515 C535 0.950 . S
H516 C537 0.950 . S
H517 C540 0.950 . S
H518 C541 0.950 . S
H519 C543 0.954 . S
H520 C544 0.917 1_545 S
H521 C545 0.951 . S
H522 C547 0.951 . S
H523 C549 0.950 . S
H524 C550 0.950 . S
H525 C552 0.950 1_556 S
H526 C555 0.950 . S
H527 C556 0.950 . S
H528 C558 0.950 1_565 S
H529 C559 0.988 . S
C530 H512 0.951 . S
C530 C531 1.370 1_545 S
C530 C532 1.388 . S
C531 C530 1.370 1_565 S
C531 C535 1.381 . S
C532 H513 0.951 . S
C532 C530 1.388 . S
C532 C533 1.366 1_545 S
C533 C532 1.366 1_565 S
C533 C534 1.414 . S
C533 C536 1.499 . S
C534 H514 0.950 . S
C534 C533 1.414 . S
C534 C535 1.374 . S
C535 H515 0.950 . S
C535 C531 1.381 . S
C535 C534 1.374 . S
C536 C533 1.499 . S
C536 C537 1.373 1_565 S
C536 C538 1.389 . S
C537 H516 0.950 . S
C537 C536 1.373 1_545 S
C537 C553 1.377 . S
C538 C536 1.389 . S
C538 C539 1.524 . S
C538 C552 1.377 . S
C539 C538 1.524 . S
C539 C540 1.397 . S
C539 C544 1.389 1_554 S
C540 H517 0.950 . S
C540 C539 1.397 . S
C540 C541 1.334 . S
C541 H518 0.950 . S
C541 C540 1.334 . S
C541 C542 1.287 1_554 S
C542 C541 1.287 1_556 S
C542 C543 1.524 . S
C542 H561 0.913 . S
C543 H519 0.954 . S
C543 C542 1.524 . S
C543 C544 1.423 . S
C544 H520 0.917 1_565 S
C544 C539 1.389 1_556 S
C544 C543 1.423 . S
C545 H521 0.951 . S
C545 C546 1.366 . S
C545 C547 1.388 1_556 S
C546 C545 1.366 . S
C546 C550 1.385 1_565 S
C547 H522 0.951 . S
C547 C545 1.388 1_554 S
C547 C548 1.372 . S
C548 C547 1.372 . S
C548 C549 1.408 1_564 S
C548 C551 1.500 1_565 S
C549 H523 0.950 . S
C549 C548 1.408 1_546 S
C549 C550 1.374 . S
C550 H524 0.950 . S
C550 C546 1.385 1_545 S
C550 C549 1.374 . S
C551 C548 1.500 1_545 S
C551 C552 1.372 1_545 S
C551 C553 1.389 . S
C552 H525 0.950 1_554 S
C552 C538 1.377 . S
C552 C551 1.372 1_565 S
C553 C537 1.377 . S
C553 C551 1.389 . S
C553 C554 1.524 . S
C554 C553 1.524 . S
C554 C555 1.397 . S
C554 C559 1.335 1_545 S
C555 H526 0.950 . S
C555 C554 1.397 . S
C555 C556 1.334 . S
C556 H527 0.950 . S
C556 C555 1.334 . S
C556 C557 1.287 . S
C557 C556 1.287 . S
C557 C558 1.524 . S
C557 H560 0.999 . S
C558 H528 0.950 1_545 S
C558 C557 1.524 . S
C558 C559 1.407 1_545 S
C559 H529 0.988 . S
C559 C554 1.335 1_565 S
C559 C558 1.407 1_565 S
H560 C557 0.999 . S
H561 C542 0.913 . S
H562 C580 0.951 . S
H563 C582 0.951 . S
H564 C584 0.950 . S
H565 C585 0.950 . S
H566 C587 0.950 . S
H567 C590 0.950 . S
H568 C591 0.950 . S
H569 C593 0.950 . S
H570 C594 0.950 . S
H571 C595 0.951 . S
H572 C597 0.951 . S
H573 C599 0.950 . S
H574 C600 0.950 . S
H575 C602 0.950 . S
H576 C605 0.950 . S
H577 C606 0.950 . S
H578 C608 0.950 . S
H579 C609 0.950 . S
C580 H562 0.951 . S
C580 C581 1.366 . S
C580 C582 1.388 . S
C581 C580 1.366 . S
C581 C585 1.385 . S
C582 H563 0.951 . S
C582 C580 1.388 . S
C582 C583 1.366 . S
C583 C582 1.366 . S
C583 C584 1.414 . S
C583 C586 1.499 . S
C584 H564 0.950 . S
C584 C583 1.414 . S
C584 C585 1.374 . S
C585 H565 0.950 . S
C585 C581 1.385 . S
C585 C584 1.374 . S
C586 C583 1.499 . S
C586 C587 1.373 . S
C586 C588 1.389 . S
C587 H566 0.950 . S
C587 C586 1.373 . S
C587 C603 1.377 . S
C588 C586 1.389 . S
C588 C589 1.524 . S
C588 C602 1.377 . S
C589 C588 1.524 . S
C589 C590 1.397 . S
C589 C594 1.363 . S
C590 H567 0.950 . S
C590 C589 1.397 . S
C590 C591 1.334 . S
C591 H568 0.950 . S
C591 C590 1.334 . S
C591 C592 1.287 . S
C592 C591 1.287 . S
C592 C593 1.524 . S
C592 H611 0.913 . S
C593 H569 0.950 . S
C593 C592 1.524 . S
C593 C594 1.415 . S
C594 H570 0.950 . S
C594 C589 1.363 . S
C594 C593 1.415 . S
C595 H571 0.951 . S
C595 C596 1.366 . S
C595 C597 1.388 . S
C596 C595 1.366 . S
C596 C600 1.385 . S
C597 H572 0.951 . S
C597 C595 1.388 . S
C597 C598 1.366 . S
C598 C597 1.366 . S
C598 C599 1.414 . S
C598 C601 1.499 . S
C599 H573 0.950 . S
C599 C598 1.414 . S
C599 C600 1.374 . S
C600 H574 0.950 . S
C600 C596 1.385 . S
C600 C599 1.374 . S
C601 C598 1.499 . S
C601 C602 1.373 . S
C601 C603 1.389 . S
C602 H575 0.950 . S
C602 C588 1.377 . S
C602 C601 1.373 . S
C603 C587 1.377 . S
C603 C601 1.389 . S
C603 C604 1.524 . S
C604 C603 1.524 . S
C604 C605 1.397 1_556 S
C604 C609 1.363 . S
C605 H576 0.950 . S
C605 C604 1.397 1_554 S
C605 C606 1.334 . S
C606 H577 0.950 . S
C606 C605 1.334 . S
C606 C607 1.287 . S
C607 C606 1.287 . S
C607 C608 1.524 . S
C607 H610 0.999 . S
C608 H578 0.950 . S
C608 C607 1.524 . S
C608 C609 1.415 1_554 S
C609 H579 0.950 . S
C609 C604 1.363 . S
C609 C608 1.415 1_556 S
H610 C607 0.999 . S
H611 C592 0.913 . S
H612 C630 0.951 . S
H613 C632 0.951 . S
H614 C634 0.950 . S
H615 C635 0.950 . S
H616 C637 0.950 . S
H617 C640 0.950 . S
H618 C641 0.950 . S
H619 C643 0.950 . S
H620 C644 0.950 . S
H621 C645 0.951 . S
H622 C647 0.951 . S
H623 C649 0.950 . S
H624 C650 0.950 . S
H625 C652 0.950 . S
H626 C655 0.950 . S
H627 C656 0.950 . S
H628 C658 0.950 . S
H629 C659 0.950 . S
C630 H612 0.951 . S
C630 C631 1.366 . S
C630 C632 1.388 . S
C631 C630 1.366 . S
C631 C635 1.385 . S
C632 H613 0.951 . S
C632 C630 1.388 . S
C632 C633 1.366 . S
C633 C632 1.366 . S
C633 C634 1.414 . S
C633 C636 1.499 . S
C634 H614 0.950 . S
C634 C633 1.414 . S
C634 C635 1.374 . S
C635 H615 0.950 . S
C635 C631 1.385 . S
C635 C634 1.374 . S
C636 C633 1.499 . S
C636 C637 1.373 . S
C636 C638 1.389 . S
C637 H616 0.950 . S
C637 C636 1.373 . S
C637 C653 1.377 . S
C638 C636 1.389 . S
C638 C639 1.524 . S
C638 C652 1.377 . S
C639 C638 1.524 . S
C639 C640 1.397 . S
C639 C644 1.363 . S
C640 H617 0.950 . S
C640 C639 1.397 . S
C640 C641 1.334 . S
C641 H618 0.950 . S
C641 C640 1.334 . S
C641 C642 1.287 . S
C642 C641 1.287 . S
C642 C643 1.524 . S
C642 H661 0.913 . S
C643 H619 0.950 . S
C643 C642 1.524 . S
C643 C644 1.415 . S
C644 H620 0.950 . S
C644 C639 1.363 . S
C644 C643 1.415 . S
C645 H621 0.951 . S
C645 C646 1.366 . S
C645 C647 1.388 . S
C646 C645 1.366 . S
C646 C650 1.385 . S
C647 H622 0.951 . S
C647 C645 1.388 . S
C647 C648 1.366 1_556 S
C648 C647 1.366 1_554 S
C648 C649 1.414 . S
C648 C651 1.499 . S
C649 H623 0.950 . S
C649 C648 1.414 . S
C649 C650 1.374 1_554 S
C650 H624 0.950 . S
C650 C646 1.385 . S
C650 C649 1.374 1_556 S
C651 C648 1.499 . S
C651 C652 1.373 . S
C651 C653 1.389 . S
C652 H625 0.950 . S
C652 C638 1.377 . S
C652 C651 1.373 . S
C653 C637 1.377 . S
C653 C651 1.389 . S
C653 C654 1.524 1_554 S
C654 C653 1.524 1_556 S
C654 C655 1.397 . S
C654 C659 1.363 . S
C655 H626 0.950 . S
C655 C654 1.397 . S
C655 C656 1.334 . S
C656 H627 0.950 . S
C656 C655 1.334 . S
C656 C657 1.287 . S
C657 C656 1.287 . S
C657 C658 1.524 . S
C657 H660 0.999 . S
C658 H628 0.950 . S
C658 C657 1.524 . S
C658 C659 1.415 . S
C659 H629 0.950 . S
C659 C654 1.363 . S
C659 C658 1.415 . S
H660 C657 0.999 . S
H661 C642 0.913 . S
H662 C680 0.951 . S
H663 C682 0.951 . S
H664 C684 0.950 . S
H665 C685 0.950 . S
H666 C687 0.950 . S
H667 C690 0.950 . S
H668 C691 0.950 . S
H669 C693 0.950 . S
H670 C694 0.950 . S
H671 C695 0.951 . S
H672 C697 0.951 1_554 S
H673 C699 0.950 . S
H674 C700 0.950 . S
H675 C702 0.950 . S
H676 C705 0.950 . S
H677 C706 0.950 . S
H678 C708 0.950 . S
H679 C709 0.950 . S
C680 H662 0.951 . S
C680 C681 1.366 . S
C680 C682 1.388 . S
C681 C680 1.366 . S
C681 C685 1.385 1_655 S
C682 H663 0.951 . S
C682 C680 1.388 . S
C682 C683 1.366 . S
C683 C682 1.366 . S
C683 C684 1.414 1_655 S
C683 C686 1.499 . S
C684 H664 0.950 . S
C684 C683 1.414 1_455 S
C684 C685 1.374 . S
C685 H665 0.950 . S
C685 C681 1.385 1_455 S
C685 C684 1.374 . S
C686 C683 1.499 . S
C686 C687 1.373 1_655 S
C686 C688 1.389 . S
C687 H666 0.950 . S
C687 C686 1.373 1_455 S
C687 C703 1.377 . S
C688 C686 1.389 . S
C688 C689 1.524 . S
C688 C702 1.377 . S
C689 C688 1.524 . S
C689 C690 1.397 . S
C689 C694 1.363 . S
C690 H667 0.950 . S
C690 C689 1.397 . S
C690 C691 1.334 . S
C691 H668 0.950 . S
C691 C690 1.334 . S
C691 C692 1.287 . S
C692 C691 1.287 . S
C692 C693 1.524 . S
C692 H711 0.913 . S
C693 H669 0.950 . S
C693 C692 1.524 . S
C693 C694 1.415 . S
C694 H670 0.950 . S
C694 C689 1.363 . S
C694 C693 1.415 . S
C695 H671 0.951 . S
C695 C696 1.366 . S
C695 C697 1.388 . S
C696 C695 1.366 . S
C696 C700 1.385 1_455 S
C697 H672 0.951 1_556 S
C697 C695 1.388 . S
C697 C698 1.366 . S
C698 C697 1.366 . S
C698 C699 1.414 1_455 S
C698 C701 1.499 1_456 S
C699 H673 0.950 . S
C699 C698 1.414 1_655 S
C699 C700 1.374 . S
C700 H674 0.950 . S
C700 C696 1.385 1_655 S
C700 C699 1.374 . S
C701 C698 1.499 1_654 S
C701 C702 1.373 . S
C701 C703 1.389 1_655 S
C702 H675 0.950 . S
C702 C688 1.377 . S
C702 C701 1.373 . S
C703 C687 1.377 . S
C703 C701 1.389 1_455 S
C703 C704 1.524 . S
C704 C703 1.524 . S
C704 C705 1.397 1_554 S
C704 C709 1.363 . S
C705 H676 0.950 . S
C705 C704 1.397 1_556 S
C705 C706 1.334 . S
C706 H677 0.950 . S
C706 C705 1.334 . S
C706 C707 1.287 . S
C707 C706 1.287 . S
C707 C708 1.524 1_556 S
C707 H710 0.999 . S
C708 H678 0.950 . S
C708 C707 1.524 1_554 S
C708 C709 1.415 . S
C709 H679 0.950 . S
C709 C704 1.363 . S
C709 C708 1.415 . S
H710 C707 0.999 . S
H711 C692 0.913 . S
H712 C730 0.951 . S
H713 C732 0.951 . S
H714 C734 0.950 . S
H715 C735 0.950 . S
H716 C737 0.950 . S
H717 C740 0.950 1_655 S
H718 C741 0.992 . S
H719 C743 0.950 . S
H720 C744 0.950 . S
H721 C745 0.951 . S
H722 C747 0.951 . S
H723 C749 0.950 . S
H724 C750 0.950 . S
H725 C752 0.950 . S
H726 C755 0.950 . S
H727 C756 0.950 . S
H728 C758 0.950 . S
H729 C759 0.929 1_655 S
C730 H712 0.951 . S
C730 C731 1.366 . S
C730 C732 1.388 . S
C731 C730 1.366 . S
C731 C735 1.385 . S
C732 H713 0.951 . S
C732 C730 1.388 . S
C732 C733 1.366 . S
C733 C732 1.366 . S
C733 C734 1.414 . S
C733 C736 1.499 . S
C734 H714 0.950 . S
C734 C733 1.414 . S
C734 C735 1.374 . S
C735 H715 0.950 . S
C735 C731 1.385 . S
C735 C734 1.374 . S
C736 C733 1.499 . S
C736 C737 1.373 . S
C736 C738 1.389 . S
C737 H716 0.950 . S
C737 C736 1.373 . S
C737 C753 1.377 . S
C738 C736 1.389 . S
C738 C739 1.524 . S
C738 C752 1.377 . S
C739 C738 1.524 . S
C739 C740 1.397 . S
C739 C744 1.363 . S
C740 H717 0.950 1_455 S
C740 C739 1.397 . S
C740 C741 1.327 1_455 S
C741 H718 0.992 . S
C741 C740 1.327 1_655 S
C741 C742 1.256 1_655 S
C742 C741 1.256 1_455 S
C742 C743 1.524 . S
C742 H761 0.913 . S
C743 H719 0.950 . S
C743 C742 1.524 . S
C743 C744 1.415 . S
C744 H720 0.950 . S
C744 C739 1.363 . S
C744 C743 1.415 . S
C745 H721 0.951 . S
C745 C746 1.366 . S
C745 C747 1.388 . S
C746 C745 1.366 . S
C746 C750 1.385 1_655 S
C747 H722 0.951 . S
C747 C745 1.388 . S
C747 C748 1.366 1_655 S
C748 C747 1.366 1_455 S
C748 C749 1.414 . S
C748 C751 1.499 . S
C749 H723 0.950 . S
C749 C748 1.414 . S
C749 C750 1.374 . S
C750 H724 0.950 . S
C750 C746 1.385 1_455 S
C750 C749 1.374 . S
C751 C748 1.499 . S
C751 C752 1.373 . S
C751 C753 1.389 . S
C752 H725 0.950 . S
C752 C738 1.377 . S
C752 C751 1.373 . S
C753 C737 1.377 . S
C753 C751 1.389 . S
C753 C754 1.524 . S
C754 C753 1.524 . S
C754 C755 1.397 . S
C754 C759 1.363 . S
C755 H726 0.950 . S
C755 C754 1.397 . S
C755 C756 1.334 . S
C756 H727 0.950 . S
C756 C755 1.334 . S
C756 C757 1.287 . S
C757 C756 1.287 . S
C757 C758 1.524 . S
C757 H760 0.999 . S
C758 H728 0.950 . S
C758 C757 1.524 . S
C758 C759 1.415 . S
C759 H729 0.929 1_455 S
C759 C754 1.363 . S
C759 C758 1.415 . S
H760 C757 0.999 . S
H761 C742 0.913 . S
H762 C780 0.951 . S
H763 C782 0.951 . S
H764 C784 0.950 . S
H765 C785 0.950 . S
H766 C787 0.950 . S
H767 C790 0.950 . S
H768 C791 0.980 . S
H769 C793 0.950 . S
H770 C794 0.950 . S
H771 C795 0.951 . S
H772 C797 0.951 . S
H773 C799 0.950 . S
H774 C800 0.950 . S
H775 C802 0.935 1_545 S
H776 C805 0.950 1_545 S
H777 C806 0.950 . S
H778 C808 0.950 . S
H779 C809 0.950 . S
C780 H762 0.951 . S
C780 C781 1.403 . S
C780 C782 1.388 . S
C781 C780 1.403 . S
C781 C785 1.336 1_545 S
C782 H763 0.951 . S
C782 C780 1.388 . S
C782 C783 1.366 1_545 S
C783 C782 1.366 1_565 S
C783 C784 1.414 . S
C783 C786 1.499 . S
C784 H764 0.950 . S
C784 C783 1.414 . S
C784 C785 1.374 . S
C785 H765 0.950 . S
C785 C781 1.336 1_565 S
C785 C784 1.374 . S
C786 C783 1.499 . S
C786 C787 1.373 . S
C786 C788 1.388 1_565 S
C787 H766 0.950 . S
C787 C786 1.373 . S
C787 C803 1.377 . S
C788 C786 1.388 1_545 S
C788 C789 1.526 . S
C788 C802 1.370 1_545 S
C789 C788 1.526 . S
C789 C790 1.397 1_545 S
C789 C794 1.363 . S
C790 H767 0.950 . S
C790 C789 1.397 1_565 S
C790 C791 1.360 . S
C791 H768 0.980 . S
C791 C790 1.360 . S
C791 C792 1.234 1_565 S
C792 C791 1.234 1_545 S
C792 C793 1.524 . S
C792 H811 0.913 . S
C793 H769 0.950 . S
C793 C792 1.524 . S
C793 C794 1.415 . S
C794 H770 0.950 . S
C794 C789 1.363 . S
C794 C793 1.415 . S
C795 H771 0.951 . S
C795 C796 1.366 . S
C795 C797 1.388 . S
C796 C795 1.366 . S
C796 C800 1.385 1_565 S
C797 H772 0.951 . S
C797 C795 1.388 . S
C797 C798 1.366 . S
C798 C797 1.366 . S
C798 C799 1.414 1_565 S
C798 C801 1.499 . S
C799 H773 0.950 . S
C799 C798 1.414 1_545 S
C799 C800 1.374 . S
C800 H774 0.950 . S
C800 C796 1.385 1_545 S
C800 C799 1.374 . S
C801 C798 1.499 . S
C801 C802 1.396 . S
C801 C803 1.389 . S
C802 H775 0.935 1_565 S
C802 C788 1.370 1_565 S
C802 C801 1.396 . S
C803 C787 1.377 . S
C803 C801 1.389 . S
C803 C804 1.524 . S
C804 C803 1.524 . S
C804 C805 1.397 . S
C804 C809 1.363 . S
C805 H776 0.950 1_565 S
C805 C804 1.397 . S
C805 C806 1.334 . S
C806 H777 0.950 . S
C806 C805 1.334 . S
C806 C807 1.287 . S
C807 C806 1.287 . S
C807 C808 1.524 . S
C807 H810 0.999 . S
C808 H778 0.950 . S
C808 C807 1.524 . S
C808 C809 1.415 . S
C809 H779 0.950 . S
C809 C804 1.363 . S
C809 C808 1.415 . S
H810 C807 0.999 . S
H811 C792 0.913 . S
H812 C830 0.951 . S
H813 C832 0.951 . S
H814 C834 0.950 . S
H815 C835 0.950 . S
H816 C837 0.950 . S
H817 C840 0.950 . S
H818 C841 0.950 . S
H819 C843 0.950 . S
H820 C844 0.950 . S
H821 C845 0.951 . S
H822 C847 0.951 . S
H823 C849 0.950 . S
H824 C850 0.950 . S
H825 C852 0.950 . S
H826 C855 0.950 . S
H827 C856 0.950 . S
H828 C858 0.950 . S
H829 C859 0.950 . S
C830 H812 0.951 . S
C830 C831 1.366 . S
C830 C832 1.388 . S
C831 C830 1.366 . S
C831 C835 1.385 . S
C832 H813 0.951 . S
C832 C830 1.388 . S
C832 C833 1.366 . S
C833 C832 1.366 . S
C833 C834 1.414 . S
C833 C836 1.499 . S
C834 H814 0.950 . S
C834 C833 1.414 . S
C834 C835 1.374 . S
C835 H815 0.950 . S
C835 C831 1.385 . S
C835 C834 1.374 . S
C836 C833 1.499 . S
C836 C837 1.373 . S
C836 C838 1.389 . S
C837 H816 0.950 . S
C837 C836 1.373 . S
C837 C853 1.377 . S
C838 C836 1.389 . S
C838 C839 1.524 . S
C838 C852 1.377 . S
C839 C838 1.524 . S
C839 C840 1.397 . S
C839 C844 1.363 . S
C840 H817 0.950 . S
C840 C839 1.397 . S
C840 C841 1.334 . S
C841 H818 0.950 . S
C841 C840 1.334 . S
C841 C842 1.287 . S
C842 C841 1.287 . S
C842 C843 1.524 . S
C842 H861 0.913 . S
C843 H819 0.950 . S
C843 C842 1.524 . S
C843 C844 1.415 . S
C844 H820 0.950 . S
C844 C839 1.363 . S
C844 C843 1.415 . S
C845 H821 0.951 . S
C845 C846 1.366 . S
C845 C847 1.388 . S
C846 C845 1.366 . S
C846 C850 1.385 . S
C847 H822 0.951 . S
C847 C845 1.388 . S
C847 C848 1.366 . S
C848 C847 1.366 . S
C848 C849 1.414 . S
C848 C851 1.499 . S
C849 H823 0.950 . S
C849 C848 1.414 . S
C849 C850 1.374 . S
C850 H824 0.950 . S
C850 C846 1.385 . S
C850 C849 1.374 . S
C851 C848 1.499 . S
C851 C852 1.373 . S
C851 C853 1.389 . S
C852 H825 0.950 . S
C852 C838 1.377 . S
C852 C851 1.373 . S
C853 C837 1.377 . S
C853 C851 1.389 . S
C853 C854 1.524 . S
C854 C853 1.524 . S
C854 C855 1.397 . S
C854 C859 1.363 . S
C855 H826 0.950 . S
C855 C854 1.397 . S
C855 C856 1.334 . S
C856 H827 0.950 . S
C856 C855 1.334 . S
C856 C857 1.287 . S
C857 C856 1.287 . S
C857 C858 1.524 . S
C857 H860 0.999 . S
C858 H828 0.950 . S
C858 C857 1.524 . S
C858 C859 1.415 . S
C859 H829 0.950 . S
C859 C854 1.363 . S
C859 C858 1.415 . S
H860 C857 0.999 . S
H861 C842 0.913 . S
H862 C880 0.951 . S
H863 C882 0.951 . S
H864 C884 0.950 . S
H865 C885 0.950 . S
H866 C887 0.950 . S
H867 C890 0.950 . S
H868 C891 0.950 . S
H869 C893 0.950 . S
H870 C894 0.950 . S
H871 C895 0.951 . S
H872 C897 0.951 . S
H873 C899 0.950 . S
H874 C900 0.950 . S
H875 C902 0.950 . S
H876 C905 0.950 . S
H877 C906 0.950 . S
H878 C908 0.950 . S
H879 C909 0.950 . S
C880 H862 0.951 . S
C880 C881 1.366 . S
C880 C882 1.388 . S
C881 C880 1.366 . S
C881 C885 1.385 . S
C882 H863 0.951 . S
C882 C880 1.388 . S
C882 C883 1.366 . S
C883 C882 1.366 . S
C883 C884 1.414 . S
C883 C886 1.499 . S
C884 H864 0.950 . S
C884 C883 1.414 . S
C884 C885 1.374 . S
C885 H865 0.950 . S
C885 C881 1.385 . S
C885 C884 1.374 . S
C886 C883 1.499 . S
C886 C887 1.373 . S
C886 C888 1.389 . S
C887 H866 0.950 . S
C887 C886 1.373 . S
C887 C903 1.377 . S
C888 C886 1.389 . S
C888 C889 1.524 . S
C888 C902 1.377 . S
C889 C888 1.524 . S
C889 C890 1.397 . S
C889 C894 1.363 . S
C890 H867 0.950 . S
C890 C889 1.397 . S
C890 C891 1.334 . S
C891 H868 0.950 . S
C891 C890 1.334 . S
C891 C892 1.287 . S
C892 C891 1.287 . S
C892 C893 1.524 . S
C892 H911 0.913 . S
C893 H869 0.950 . S
C893 C892 1.524 . S
C893 C894 1.415 . S
C894 H870 0.950 . S
C894 C889 1.363 . S
C894 C893 1.415 . S
C895 H871 0.951 . S
C895 C896 1.366 . S
C895 C897 1.388 . S
C896 C895 1.366 . S
C896 C900 1.385 . S
C897 H872 0.951 . S
C897 C895 1.388 . S
C897 C898 1.366 . S
C898 C897 1.366 . S
C898 C899 1.414 . S
C898 C901 1.499 . S
C899 H873 0.950 . S
C899 C898 1.414 . S
C899 C900 1.374 . S
C900 H874 0.950 . S
C900 C896 1.385 . S
C900 C899 1.374 . S
C901 C898 1.499 . S
C901 C902 1.373 . S
C901 C903 1.389 . S
C902 H875 0.950 . S
C902 C888 1.377 . S
C902 C901 1.373 . S
C903 C887 1.377 . S
C903 C901 1.389 . S
C903 C904 1.524 . S
C904 C903 1.524 . S
C904 C905 1.397 . S
C904 C909 1.363 . S
C905 H876 0.950 . S
C905 C904 1.397 . S
C905 C906 1.334 . S
C906 H877 0.950 . S
C906 C905 1.334 . S
C906 C907 1.287 . S
C907 C906 1.287 . S
C907 C908 1.524 . S
C907 H910 0.999 . S
C908 H878 0.950 . S
C908 C907 1.524 . S
C908 C909 1.415 . S
C909 H879 0.950 . S
C909 C904 1.363 . S
C909 C908 1.415 . S
H910 C907 0.999 . S
H911 C892 0.913 . S
H912 C930 0.951 . S
H913 C932 0.951 . S
H914 C934 0.950 . S
H915 C935 0.954 . S
H916 C937 0.950 . S
H917 C940 0.950 . S
H918 C941 0.950 . S
H919 C943 0.950 . S
H920 C944 0.950 . S
H921 C945 0.951 1_556 S
H922 C947 0.951 . S
H923 C949 0.950 1_655 S
H924 C950 0.950 . S
H925 C952 0.950 . S
H926 C955 0.950 . S
H927 C956 0.950 . S
H928 C958 0.950 . S
H929 C959 0.950 . S
C930 H912 0.951 . S
C930 C931 1.366 . S
C930 C932 1.388 . S
C931 C930 1.366 . S
C931 C935 1.380 1_655 S
C932 H913 0.951 . S
C932 C930 1.388 . S
C932 C933 1.366 . S
C933 C932 1.366 . S
C933 C934 1.414 1_655 S
C933 C936 1.497 1_655 S
C934 H914 0.950 . S
C934 C933 1.414 1_455 S
C934 C935 1.375 . S
C935 H915 0.954 . S
C935 C931 1.380 1_455 S
C935 C934 1.375 . S
C936 C933 1.497 1_455 S
C936 C937 1.382 . S
C936 C938 1.383 1_455 S
C937 H916 0.950 . S
C937 C936 1.382 . S
C937 C953 1.377 . S
C938 C936 1.383 1_655 S
C938 C939 1.524 . S
C938 C952 1.377 . S
C939 C938 1.524 . S
C939 C940 1.397 . S
C939 C944 1.363 . S
C940 H917 0.950 . S
C940 C939 1.397 . S
C940 C941 1.334 . S
C941 H918 0.950 . S
C941 C940 1.334 . S
C941 C942 1.287 . S
C942 C941 1.287 . S
C942 C943 1.524 . S
C942 H961 0.913 . S
C943 H919 0.950 . S
C943 C942 1.524 . S
C943 C944 1.415 . S
C944 H920 0.950 . S
C944 C939 1.363 . S
C944 C943 1.415 . S
C945 H921 0.951 1_554 S
C945 C946 1.366 . S
C945 C947 1.388 . S
C946 C945 1.366 . S
C946 C950 1.385 . S
C947 H922 0.951 . S
C947 C945 1.388 . S
C947 C948 1.366 . S
C948 C947 1.366 . S
C948 C949 1.414 . S
C948 C951 1.499 . S
C949 H923 0.950 1_455 S
C949 C948 1.414 . S
C949 C950 1.374 . S
C950 H924 0.950 . S
C950 C946 1.385 . S
C950 C949 1.374 . S
C951 C948 1.499 . S
C951 C952 1.373 1_455 S
C951 C953 1.389 . S
C952 H925 0.950 . S
C952 C938 1.377 . S
C952 C951 1.373 1_655 S
C953 C937 1.377 . S
C953 C951 1.389 . S
C953 C954 1.524 . S
C954 C953 1.524 . S
C954 C955 1.397 . S
C954 C959 1.363 . S
C955 H926 0.950 . S
C955 C954 1.397 . S
C955 C956 1.334 . S
C956 H927 0.950 . S
C956 C955 1.334 . S
C956 C957 1.287 . S
C957 C956 1.287 . S
C957 C958 1.524 . S
C957 H960 0.999 . S
C958 H928 0.950 . S
C958 C957 1.524 . S
C958 C959 1.415 . S
C959 H929 0.950 . S
C959 C954 1.363 . S
C959 C958 1.415 . S
H960 C957 0.999 . S
H961 C942 0.913 . S
H962 C980 0.951 . S
H963 C982 0.951 . S
H964 C984 0.950 . S
H965 C985 0.950 . S
H966 C987 0.950 . S
H967 C990 0.950 . S
H968 C991 0.950 . S
H969 C993 0.950 . S
H970 C994 0.950 . S
H971 C995 0.951 1_565 S
H972 C997 0.960 . S
H973 C999 0.950 . S
H974 C1000 0.950 . S
H975 C1002 0.950 . S
H976 C1005 0.950 . S
H977 C1006 0.950 . S
H978 C1008 0.926 1_565 S
H979 C1009 0.950 . S
C980 H962 0.951 . S
C980 C981 1.342 1_545 S
C980 C982 1.388 . S
C981 C980 1.342 1_565 S
C981 C985 1.402 . S
C982 H963 0.951 . S
C982 C980 1.388 . S
C982 C983 1.366 . S
C983 C982 1.366 . S
C983 C984 1.414 1_545 S
C983 C986 1.499 . S
C984 H964 0.950 . S
C984 C983 1.414 1_565 S
C984 C985 1.374 . S
C985 H965 0.950 . S
C985 C981 1.402 . S
C985 C984 1.374 . S
C986 C983 1.499 . S
C986 C987 1.373 . S
C986 C988 1.389 . S
C987 H966 0.950 . S
C987 C986 1.373 . S
C987 C1003 1.377 . S
C988 C986 1.389 . S
C988 C989 1.524 . S
C988 C1002 1.377 . S
C989 C988 1.524 . S
C989 C990 1.397 1_545 S
C989 C994 1.363 . S
C990 H967 0.950 . S
C990 C989 1.397 1_565 S
C990 C991 1.334 . S
C991 H968 0.950 . S
C991 C990 1.334 . S
C991 C992 1.287 . S
C992 C991 1.287 . S
C992 C993 1.524 1_565 S
C992 H1011 0.913 . S
C993 H969 0.950 . S
C993 C992 1.524 1_545 S
C993 C994 1.415 . S
C994 H970 0.950 . S
C994 C989 1.363 . S
C994 C993 1.415 . S
C995 H971 0.951 1_545 S
C995 C996 1.366 . S
C995 C997 1.385 1_545 S
C996 C995 1.366 . S
C996 C1000 1.385 . S
C997 H972 0.960 . S
C997 C995 1.385 1_565 S
C997 C998 1.359 1_565 S
C998 C997 1.359 1_545 S
C998 C999 1.414 . S
C998 C1001 1.499 . S
C999 H973 0.950 . S
C999 C998 1.414 . S
C999 C1000 1.374 . S
C1000 H974 0.950 . S
C1000 C996 1.385 . S
C1000 C999 1.374 . S
C1001 C998 1.499 . S
C1001 C1002 1.373 . S
C1001 C1003 1.389 . S
C1002 H975 0.950 . S
C1002 C988 1.377 . S
C1002 C1001 1.373 . S
C1003 C987 1.377 . S
C1003 C1001 1.389 . S
C1003 C1004 1.524 . S
C1004 C1003 1.524 . S
C1004 C1005 1.397 . S
C1004 C1009 1.363 1_545 S
C1005 H976 0.950 . S
C1005 C1004 1.397 . S
C1005 C1006 1.334 1_554 S
C1006 H977 0.950 . S
C1006 C1005 1.334 1_556 S
C1006 C1007 1.287 . S
C1007 C1006 1.287 . S
C1007 C1008 1.564 . S
C1007 H1010 0.999 . S
C1008 H978 0.926 1_545 S
C1008 C1007 1.564 . S
C1008 C1009 1.402 1_546 S
C1009 H979 0.950 . S
C1009 C1004 1.363 1_565 S
C1009 C1008 1.402 1_564 S
H1010 C1007 0.999 . S
H1011 C992 0.913 . S
H1012 C1030 0.951 . S
H1013 C1032 0.951 . S
H1014 C1034 0.950 . S
H1015 C1035 0.950 . S
H1016 C1037 0.950 . S
H1017 C1040 0.950 . S
H1018 C1041 0.950 . S
H1019 C1043 0.950 . S
H1020 C1044 0.950 . S
H1021 C1045 0.951 . S
H1022 C1047 0.951 . S
H1023 C1049 0.950 . S
H1024 C1050 0.950 . S
H1025 C1052 0.950 . S
H1026 C1055 0.950 1_556 S
H1027 C1056 0.950 . S
H1028 C1058 0.950 . S
H1029 C1059 0.950 . S
C1030 H1012 0.951 . S
C1030 C1031 1.366 . S
C1030 C1032 1.388 . S
C1031 C1030 1.366 . S
C1031 C1035 1.385 . S
C1032 H1013 0.951 . S
C1032 C1030 1.388 . S
C1032 C1033 1.366 . S
C1033 C1032 1.366 . S
C1033 C1034 1.414 . S
C1033 C1036 1.499 . S
C1034 H1014 0.950 . S
C1034 C1033 1.414 . S
C1034 C1035 1.374 . S
C1035 H1015 0.950 . S
C1035 C1031 1.385 . S
C1035 C1034 1.374 . S
C1036 C1033 1.499 . S
C1036 C1037 1.373 . S
C1036 C1038 1.389 . S
C1037 H1016 0.950 . S
C1037 C1036 1.373 . S
C1037 C1053 1.377 . S
C1038 C1036 1.389 . S
C1038 C1039 1.524 . S
C1038 C1052 1.377 . S
C1039 C1038 1.524 . S
C1039 C1040 1.397 . S
C1039 C1044 1.363 . S
C1040 H1017 0.950 . S
C1040 C1039 1.397 . S
C1040 C1041 1.334 . S
C1041 H1018 0.950 . S
C1041 C1040 1.334 . S
C1041 C1042 1.287 . S
C1042 C1041 1.287 . S
C1042 C1043 1.524 . S
C1042 H1061 0.913 . S
C1043 H1019 0.950 . S
C1043 C1042 1.524 . S
C1043 C1044 1.415 . S
C1044 H1020 0.950 . S
C1044 C1039 1.363 . S
C1044 C1043 1.415 . S
C1045 H1021 0.951 . S
C1045 C1046 1.366 . S
C1045 C1047 1.388 . S
C1046 C1045 1.366 . S
C1046 C1050 1.385 . S
C1047 H1022 0.951 . S
C1047 C1045 1.388 . S
C1047 C1048 1.366 . S
C1048 C1047 1.366 . S
C1048 C1049 1.414 . S
C1048 C1051 1.499 . S
C1049 H1023 0.950 . S
C1049 C1048 1.414 . S
C1049 C1050 1.374 . S
C1050 H1024 0.950 . S
C1050 C1046 1.385 . S
C1050 C1049 1.374 . S
C1051 C1048 1.499 . S
C1051 C1052 1.373 . S
C1051 C1053 1.389 . S
C1052 H1025 0.950 . S
C1052 C1038 1.377 . S
C1052 C1051 1.373 . S
C1053 C1037 1.377 . S
C1053 C1051 1.389 . S
C1053 C1054 1.524 1_556 S
C1054 C1053 1.524 1_554 S
C1054 C1055 1.397 . S
C1054 C1059 1.363 . S
C1055 H1026 0.950 1_554 S
C1055 C1054 1.397 . S
C1055 C1056 1.334 . S
C1056 H1027 0.950 . S
C1056 C1055 1.334 . S
C1056 C1057 1.287 . S
C1057 C1056 1.287 . S
C1057 C1058 1.524 . S
C1057 H1060 0.999 . S
C1058 H1028 0.950 . S
C1058 C1057 1.524 . S
C1058 C1059 1.415 . S
C1059 H1029 0.950 . S
C1059 C1054 1.363 . S
C1059 C1058 1.415 . S
H1060 C1057 0.999 . S
H1061 C1042 0.913 . S
H1062 C1080 0.951 . S
H1063 C1082 0.951 . S
H1064 C1084 0.950 . S
H1065 C1085 0.950 . S
H1066 C1087 0.950 . S
H1067 C1090 0.950 . S
H1068 C1091 0.950 . S
H1069 C1093 0.950 . S
H1070 C1094 0.950 . S
H1071 C1095 0.951 1_556 S
H1072 C1097 0.951 . S
H1073 C1099 0.950 . S
H1074 C1100 0.950 . S
H1075 C1102 0.950 . S
H1076 C1105 0.950 . S
H1077 C1106 0.950 . S
H1078 C1108 0.950 . S
H1079 C1109 0.950 . S
C1080 H1062 0.951 . S
C1080 C1081 1.366 . S
C1080 C1082 1.388 . S
C1081 C1080 1.366 . S
C1081 C1085 1.385 . S
C1082 H1063 0.951 . S
C1082 C1080 1.388 . S
C1082 C1083 1.366 . S
C1083 C1082 1.366 . S
C1083 C1084 1.414 . S
C1083 C1086 1.499 . S
C1084 H1064 0.950 . S
C1084 C1083 1.414 . S
C1084 C1085 1.374 . S
C1085 H1065 0.950 . S
C1085 C1081 1.385 . S
C1085 C1084 1.374 . S
C1086 C1083 1.499 . S
C1086 C1087 1.373 . S
C1086 C1088 1.389 . S
C1087 H1066 0.950 . S
C1087 C1086 1.373 . S
C1087 C1103 1.377 . S
C1088 C1086 1.389 . S
C1088 C1089 1.524 . S
C1088 C1102 1.377 . S
C1089 C1088 1.524 . S
C1089 C1090 1.397 . S
C1089 C1094 1.363 . S
C1090 H1067 0.950 . S
C1090 C1089 1.397 . S
C1090 C1091 1.334 . S
C1091 H1068 0.950 . S
C1091 C1090 1.334 . S
C1091 C1092 1.287 . S
C1092 C1091 1.287 . S
C1092 C1093 1.524 . S
C1092 H1111 0.913 . S
C1093 H1069 0.950 . S
C1093 C1092 1.524 . S
C1093 C1094 1.415 . S
C1094 H1070 0.950 . S
C1094 C1089 1.363 . S
C1094 C1093 1.415 . S
C1095 H1071 0.951 1_554 S
C1095 C1096 1.366 . S
C1095 C1097 1.388 . S
C1096 C1095 1.366 . S
C1096 C1100 1.385 . S
C1097 H1072 0.951 . S
C1097 C1095 1.388 . S
C1097 C1098 1.366 . S
C1098 C1097 1.366 . S
C1098 C1099 1.414 . S
C1098 C1101 1.499 . S
C1099 H1073 0.950 . S
C1099 C1098 1.414 . S
C1099 C1100 1.374 . S
C1100 H1074 0.950 . S
C1100 C1096 1.385 . S
C1100 C1099 1.374 . S
C1101 C1098 1.499 . S
C1101 C1102 1.373 . S
C1101 C1103 1.389 . S
C1102 H1075 0.950 . S
C1102 C1088 1.377 . S
C1102 C1101 1.373 . S
C1103 C1087 1.377 . S
C1103 C1101 1.389 . S
C1103 C1104 1.524 . S
C1104 C1103 1.524 . S
C1104 C1105 1.397 . S
C1104 C1109 1.363 . S
C1105 H1076 0.950 . S
C1105 C1104 1.397 . S
C1105 C1106 1.334 1_554 S
C1106 H1077 0.950 . S
C1106 C1105 1.334 1_556 S
C1106 C1107 1.287 . S
C1107 C1106 1.287 . S
C1107 C1108 1.524 . S
C1107 H1110 0.999 . S
C1108 H1078 0.950 . S
C1108 C1107 1.524 . S
C1108 C1109 1.415 1_556 S
C1109 H1079 0.950 . S
C1109 C1104 1.363 . S
C1109 C1108 1.415 1_554 S
H1110 C1107 0.999 . S
H1111 C1092 0.913 . S
H1112 C1130 0.951 . S
H1113 C1132 0.951 . S
H1114 C1134 0.950 . S
H1115 C1135 0.950 . S
H1116 C1137 0.950 . S
H1117 C1140 0.950 . S
H1118 C1141 0.950 . S
H1119 C1143 0.950 . S
H1120 C1144 0.950 . S
H1121 C1145 0.951 . S
H1122 C1147 0.951 . S
H1123 C1149 0.950 1_655 S
H1124 C1150 0.950 1_655 S
H1125 C1152 0.950 . S
H1126 C1155 0.950 . S
H1127 C1156 0.950 . S
H1128 C1158 0.950 . S
H1129 C1159 0.950 . S
C1130 H1112 0.951 . S
C1130 C1131 1.366 . S
C1130 C1132 1.388 . S
C1131 C1130 1.366 . S
C1131 C1135 1.385 . S
C1132 H1113 0.951 . S
C1132 C1130 1.388 . S
C1132 C1133 1.366 . S
C1133 C1132 1.366 . S
C1133 C1134 1.414 . S
C1133 C1136 1.499 . S
C1134 H1114 0.950 . S
C1134 C1133 1.414 . S
C1134 C1135 1.374 . S
C1135 H1115 0.950 . S
C1135 C1131 1.385 . S
C1135 C1134 1.374 . S
C1136 C1133 1.499 . S
C1136 C1137 1.373 1_554 S
C1136 C1138 1.389 . S
C1137 H1116 0.950 . S
C1137 C1136 1.373 1_556 S
C1137 C1153 1.377 . S
C1138 C1136 1.389 . S
C1138 C1139 1.524 . S
C1138 C1152 1.377 . S
C1139 C1138 1.524 . S
C1139 C1140 1.397 . S
C1139 C1144 1.363 1_455 S
C1140 H1117 0.950 . S
C1140 C1139 1.397 . S
C1140 C1141 1.334 . S
C1141 H1118 0.950 . S
C1141 C1140 1.334 . S
C1141 C1142 1.287 . S
C1142 C1141 1.287 . S
C1142 C1143 1.524 1_455 S
C1142 H1161 0.913 1_455 S
C1143 H1119 0.950 . S
C1143 C1142 1.524 1_655 S
C1143 C1144 1.415 . S
C1144 H1120 0.950 . S
C1144 C1139 1.363 1_655 S
C1144 C1143 1.415 . S
C1145 H1121 0.951 . S
C1145 C1146 1.366 . S
C1145 C1147 1.388 . S
C1146 C1145 1.366 . S
C1146 C1150 1.385 . S
C1147 H1122 0.951 . S
C1147 C1145 1.388 . S
C1147 C1148 1.366 . S
C1148 C1147 1.366 . S
C1148 C1149 1.414 . S
C1148 C1151 1.499 . S
C1149 H1123 0.950 1_455 S
C1149 C1148 1.414 . S
C1149 C1150 1.374 . S
C1150 H1124 0.950 1_455 S
C1150 C1146 1.385 . S
C1150 C1149 1.374 . S
C1151 C1148 1.499 . S
C1151 C1152 1.373 1_556 S
C1151 C1153 1.389 . S
C1152 H1125 0.950 . S
C1152 C1138 1.377 . S
C1152 C1151 1.373 1_554 S
C1153 C1137 1.377 . S
C1153 C1151 1.389 . S
C1153 C1154 1.524 . S
C1154 C1153 1.524 . S
C1154 C1155 1.397 . S
C1154 C1159 1.363 . S
C1155 H1126 0.950 . S
C1155 C1154 1.397 . S
C1155 C1156 1.334 . S
C1156 H1127 0.950 . S
C1156 C1155 1.334 . S
C1156 C1157 1.287 . S
C1157 C1156 1.287 . S
C1157 C1158 1.524 . S
C1157 H1160 0.999 . S
C1158 H1128 0.950 . S
C1158 C1157 1.524 . S
C1158 C1159 1.415 . S
C1159 H1129 0.950 . S
C1159 C1154 1.363 . S
C1159 C1158 1.415 . S
H1160 C1157 0.999 . S
H1161 C1142 0.913 1_655 S
H1162 C1180 0.951 . S
H1163 C1182 0.951 . S
H1164 C1184 0.950 . S
H1165 C1185 0.950 . S
H1166 C1187 0.950 1_554 S
H1167 C1190 0.950 . S
H1168 C1191 0.950 . S
H1169 C1193 0.950 . S
H1170 C1194 0.950 . S
H1171 C1195 0.951 . S
H1172 C1197 0.951 1_554 S
H1173 C1199 0.950 . S
H1174 C1200 0.950 . S
H1175 C1202 0.950 . S
H1176 C1205 0.950 . S
H1177 C1206 0.950 . S
H1178 C1208 0.950 1_554 S
H1179 C1209 0.950 . S
C1180 H1162 0.951 . S
C1180 C1181 1.345 1_566 S
C1180 C1182 1.388 . S
C1181 C1180 1.345 1_544 S
C1181 C1185 1.407 . S
C1182 H1163 0.951 . S
C1182 C1180 1.388 . S
C1182 C1183 1.333 1_566 S
C1183 C1182 1.333 1_544 S
C1183 C1184 1.449 . S
C1183 C1186 1.503 1_554 S
C1184 H1164 0.950 . S
C1184 C1183 1.449 . S
C1184 C1185 1.374 . S
C1185 H1165 0.950 . S
C1185 C1181 1.407 . S
C1185 C1184 1.374 . S
C1186 C1183 1.503 1_556 S
C1186 C1187 1.373 . S
C1186 C1188 1.389 1_545 S
C1187 H1166 0.950 1_556 S
C1187 C1186 1.373 . S
C1187 C1203 1.377 . S
C1188 C1186 1.389 1_565 S
C1188 C1189 1.524 . S
C1188 C1202 1.377 . S
C1189 C1188 1.524 . S
C1189 C1190 1.397 1_556 S
C1189 C1194 1.363 . S
C1190 H1167 0.950 . S
C1190 C1189 1.397 1_554 S
C1190 C1191 1.334 . S
C1191 H1168 0.950 . S
C1191 C1190 1.334 . S
C1191 C1192 1.287 . S
C1192 C1191 1.287 . S
C1192 C1193 1.524 1_554 S
C1192 H1211 0.913 . S
C1193 H1169 0.950 . S
C1193 C1192 1.524 1_556 S
C1193 C1194 1.415 . S
C1194 H1170 0.950 . S
C1194 C1189 1.363 . S
C1194 C1193 1.415 . S
C1195 H1171 0.951 . S
C1195 C1196 1.366 . S
C1195 C1197 1.388 . S
C1196 C1195 1.366 . S
C1196 C1200 1.385 1_545 S
C1197 H1172 0.951 1_556 S
C1197 C1195 1.388 . S
C1197 C1198 1.366 . S
C1198 C1197 1.366 . S
C1198 C1199 1.414 1_545 S
C1198 C1201 1.499 . S
C1199 H1173 0.950 . S
C1199 C1198 1.414 1_565 S
C1199 C1200 1.374 . S
C1200 H1174 0.950 . S
C1200 C1196 1.385 1_565 S
C1200 C1199 1.374 . S
C1201 C1198 1.499 . S
C1201 C1202 1.373 1_545 S
C1201 C1203 1.389 . S
C1202 H1175 0.950 . S
C1202 C1188 1.377 . S
C1202 C1201 1.373 1_565 S
C1203 C1187 1.377 . S
C1203 C1201 1.389 . S
C1203 C1204 1.524 . S
C1204 C1203 1.524 . S
C1204 C1205 1.397 . S
C1204 C1209 1.363 1_556 S
C1205 H1176 0.950 . S
C1205 C1204 1.397 . S
C1205 C1206 1.334 . S
C1206 H1177 0.950 . S
C1206 C1205 1.334 . S
C1206 C1207 1.287 . S
C1207 C1206 1.287 . S
C1207 C1208 1.524 . S
C1207 H1210 0.999 . S
C1208 H1178 0.950 1_556 S
C1208 C1207 1.524 . S
C1208 C1209 1.415 1_556 S
C1209 H1179 0.950 . S
C1209 C1204 1.363 1_554 S
C1209 C1208 1.415 1_554 S
H1210 C1207 0.999 . S
H1211 C1192 0.913 . S
H1212 C1230 0.951 . S
H1213 C1232 0.951 . S
H1214 C1234 0.950 . S
H1215 C1235 0.950 . S
H1216 C1237 0.950 . S
H1217 C1240 0.950 . S
H1218 C1241 0.950 . S
H1219 C1243 0.950 . S
H1220 C1244 0.950 . S
H1221 C1245 0.951 . S
H1222 C1247 0.951 . S
H1223 C1249 0.950 . S
H1224 C1250 0.950 . S
H1225 C1252 0.950 . S
H1226 C1255 0.950 . S
H1227 C1256 0.950 . S
H1228 C1258 0.950 . S
H1229 C1259 0.950 . S
C1230 H1212 0.951 . S
C1230 C1231 1.366 . S
C1230 C1232 1.388 . S
C1231 C1230 1.366 . S
C1231 C1235 1.385 . S
C1232 H1213 0.951 . S
C1232 C1230 1.388 . S
C1232 C1233 1.366 . S
C1233 C1232 1.366 . S
C1233 C1234 1.414 . S
C1233 C1236 1.499 . S
C1234 H1214 0.950 . S
C1234 C1233 1.414 . S
C1234 C1235 1.374 . S
C1235 H1215 0.950 . S
C1235 C1231 1.385 . S
C1235 C1234 1.374 . S
C1236 C1233 1.499 . S
C1236 C1237 1.373 . S
C1236 C1238 1.389 . S
C1237 H1216 0.950 . S
C1237 C1236 1.373 . S
C1237 C1253 1.377 . S
C1238 C1236 1.389 . S
C1238 C1239 1.524 . S
C1238 C1252 1.377 . S
C1239 C1238 1.524 . S
C1239 C1240 1.397 . S
C1239 C1244 1.363 . S
C1240 H1217 0.950 . S
C1240 C1239 1.397 . S
C1240 C1241 1.334 . S
C1241 H1218 0.950 . S
C1241 C1240 1.334 . S
C1241 C1242 1.287 . S
C1242 C1241 1.287 . S
C1242 C1243 1.524 . S
C1242 H1261 0.913 . S
C1243 H1219 0.950 . S
C1243 C1242 1.524 . S
C1243 C1244 1.415 . S
C1244 H1220 0.950 . S
C1244 C1239 1.363 . S
C1244 C1243 1.415 . S
C1245 H1221 0.951 . S
C1245 C1246 1.366 . S
C1245 C1247 1.388 . S
C1246 C1245 1.366 . S
C1246 C1250 1.385 . S
C1247 H1222 0.951 . S
C1247 C1245 1.388 . S
C1247 C1248 1.366 . S
C1248 C1247 1.366 . S
C1248 C1249 1.414 . S
C1248 C1251 1.499 . S
C1249 H1223 0.950 . S
C1249 C1248 1.414 . S
C1249 C1250 1.374 . S
C1250 H1224 0.950 . S
C1250 C1246 1.385 . S
C1250 C1249 1.374 . S
C1251 C1248 1.499 . S
C1251 C1252 1.373 . S
C1251 C1253 1.389 . S
C1252 H1225 0.950 . S
C1252 C1238 1.377 . S
C1252 C1251 1.373 . S
C1253 C1237 1.377 . S
C1253 C1251 1.389 . S
C1253 C1254 1.524 . S
C1254 C1253 1.524 . S
C1254 C1255 1.397 . S
C1254 C1259 1.363 . S
C1255 H1226 0.950 . S
C1255 C1254 1.397 . S
C1255 C1256 1.334 . S
C1256 H1227 0.950 . S
C1256 C1255 1.334 . S
C1256 C1257 1.287 . S
C1257 C1256 1.287 . S
C1257 C1258 1.524 . S
C1257 H1260 0.999 . S
C1258 H1228 0.950 . S
C1258 C1257 1.524 . S
C1258 C1259 1.415 . S
C1259 H1229 0.950 . S
C1259 C1254 1.363 . S
C1259 C1258 1.415 . S
H1260 C1257 0.999 . S
H1261 C1242 0.913 . S
H1262 C1280 0.951 . S
H1263 C1282 0.951 . S
H1264 C1284 0.950 . S
H1265 C1285 0.950 . S
H1266 C1287 0.950 . S
H1267 C1290 0.950 . S
H1268 C1291 0.950 . S
H1269 C1293 0.950 . S
H1270 C1294 0.950 . S
H1271 C1295 0.951 . S
H1272 C1297 0.951 . S
H1273 C1299 0.950 1_554 S
H1274 C1300 0.950 . S
H1275 C1302 0.950 . S
H1276 C1305 0.950 1_554 S
H1277 C1306 0.950 . S
H1278 C1308 0.950 . S
H1279 C1309 0.950 . S
C1280 H1262 0.951 . S
C1280 C1281 1.366 . S
C1280 C1282 1.388 . S
C1281 C1280 1.366 . S
C1281 C1285 1.385 1_554 S
C1282 H1263 0.951 . S
C1282 C1280 1.388 . S
C1282 C1283 1.366 . S
C1283 C1282 1.366 . S
C1283 C1284 1.414 1_554 S
C1283 C1286 1.499 1_554 S
C1284 H1264 0.950 . S
C1284 C1283 1.414 1_556 S
C1284 C1285 1.374 . S
C1285 H1265 0.950 . S
C1285 C1281 1.385 1_556 S
C1285 C1284 1.374 . S
C1286 C1283 1.499 1_556 S
C1286 C1287 1.373 . S
C1286 C1288 1.389 . S
C1287 H1266 0.950 . S
C1287 C1286 1.373 . S
C1287 C1303 1.377 . S
C1288 C1286 1.389 . S
C1288 C1289 1.524 1_556 S
C1288 C1302 1.377 . S
C1289 C1288 1.524 1_554 S
C1289 C1290 1.397 1_554 S
C1289 C1294 1.363 . S
C1290 H1267 0.950 . S
C1290 C1289 1.397 1_556 S
C1290 C1291 1.334 . S
C1291 H1268 0.950 . S
C1291 C1290 1.334 . S
C1291 C1292 1.287 1_556 S
C1292 C1291 1.287 1_554 S
C1292 C1293 1.524 . S
C1292 H1311 0.913 . S
C1293 H1269 0.950 . S
C1293 C1292 1.524 . S
C1293 C1294 1.415 . S
C1294 H1270 0.950 . S
C1294 C1289 1.363 . S
C1294 C1293 1.415 . S
C1295 H1271 0.951 . S
C1295 C1296 1.366 . S
C1295 C1297 1.388 . S
C1296 C1295 1.366 . S
C1296 C1300 1.385 . S
C1297 H1272 0.951 . S
C1297 C1295 1.388 . S
C1297 C1298 1.366 . S
C1298 C1297 1.366 . S
C1298 C1299 1.414 . S
C1298 C1301 1.499 . S
C1299 H1273 0.950 1_556 S
C1299 C1298 1.414 . S
C1299 C1300 1.374 . S
C1300 H1274 0.950 . S
C1300 C1296 1.385 . S
C1300 C1299 1.374 . S
C1301 C1298 1.499 . S
C1301 C1302 1.373 . S
C1301 C1303 1.389 . S
C1302 H1275 0.950 . S
C1302 C1288 1.377 . S
C1302 C1301 1.373 . S
C1303 C1287 1.377 . S
C1303 C1301 1.389 . S
C1303 C1304 1.524 . S
C1304 C1303 1.524 . S
C1304 C1305 1.397 . S
C1304 C1309 1.363 . S
C1305 H1276 0.950 1_556 S
C1305 C1304 1.397 . S
C1305 C1306 1.334 . S
C1306 H1277 0.950 . S
C1306 C1305 1.334 . S
C1306 C1307 1.287 . S
C1307 C1306 1.287 . S
C1307 C1308 1.524 . S
C1307 H1310 0.999 . S
C1308 H1278 0.950 . S
C1308 C1307 1.524 . S
C1308 C1309 1.415 . S
C1309 H1279 0.950 . S
C1309 C1304 1.363 . S
C1309 C1308 1.415 . S
H1310 C1307 0.999 . S
H1311 C1292 0.913 . S
H1312 C1330 0.951 1_455 S
H1313 C1332 0.951 1_455 S
H1314 C1334 0.950 . S
H1315 C1335 0.950 . S
H1316 C1337 0.950 . S
H1317 C1340 0.950 . S
H1318 C1341 0.950 . S
H1319 C1343 0.950 . S
H1320 C1344 0.950 1_455 S
H1321 C1345 0.951 . S
H1322 C1347 0.951 . S
H1323 C1349 0.950 . S
H1324 C1350 0.950 . S
H1325 C1352 0.950 . S
H1326 C1355 0.950 . S
H1327 C1356 0.950 . S
H1328 C1358 0.950 . S
H1329 C1359 0.950 . S
C1330 H1312 0.951 1_655 S
C1330 C1331 1.366 . S
C1330 C1332 1.388 . S
C1331 C1330 1.366 . S
C1331 C1335 1.385 . S
C1332 H1313 0.951 1_655 S
C1332 C1330 1.388 . S
C1332 C1333 1.366 . S
C1333 C1332 1.366 . S
C1333 C1334 1.414 . S
C1333 C1336 1.499 . S
C1334 H1314 0.950 . S
C1334 C1333 1.414 . S
C1334 C1335 1.374 . S
C1335 H1315 0.950 . S
C1335 C1331 1.385 . S
C1335 C1334 1.374 . S
C1336 C1333 1.499 . S
C1336 C1337 1.373 . S
C1336 C1338 1.389 . S
C1337 H1316 0.950 . S
C1337 C1336 1.373 . S
C1337 C1353 1.377 . S
C1338 C1336 1.389 . S
C1338 C1339 1.524 . S
C1338 C1352 1.377 . S
C1339 C1338 1.524 . S
C1339 C1340 1.397 . S
C1339 C1344 1.363 . S
C1340 H1317 0.950 . S
C1340 C1339 1.397 . S
C1340 C1341 1.334 . S
C1341 H1318 0.950 . S
C1341 C1340 1.334 . S
C1341 C1342 1.287 . S
C1342 C1341 1.287 . S
C1342 C1343 1.524 . S
C1342 H1361 0.913 . S
C1343 H1319 0.950 . S
C1343 C1342 1.524 . S
C1343 C1344 1.415 . S
C1344 H1320 0.950 1_655 S
C1344 C1339 1.363 . S
C1344 C1343 1.415 . S
C1345 H1321 0.951 . S
C1345 C1346 1.366 . S
C1345 C1347 1.388 . S
C1346 C1345 1.366 . S
C1346 C1350 1.385 1_655 S
C1347 H1322 0.951 . S
C1347 C1345 1.388 . S
C1347 C1348 1.366 . S
C1348 C1347 1.366 . S
C1348 C1349 1.414 1_655 S
C1348 C1351 1.499 . S
C1349 H1323 0.950 . S
C1349 C1348 1.414 1_455 S
C1349 C1350 1.374 . S
C1350 H1324 0.950 . S
C1350 C1346 1.385 1_455 S
C1350 C1349 1.374 . S
C1351 C1348 1.499 . S
C1351 C1352 1.373 . S
C1351 C1353 1.389 . S
C1352 H1325 0.950 . S
C1352 C1338 1.377 . S
C1352 C1351 1.373 . S
C1353 C1337 1.377 . S
C1353 C1351 1.389 . S
C1353 C1354 1.514 1_655 S
C1354 C1353 1.514 1_455 S
C1354 C1355 1.436 . S
C1354 C1359 1.339 1_455 S
C1355 H1326 0.950 . S
C1355 C1354 1.436 . S
C1355 C1356 1.334 . S
C1356 H1327 0.950 . S
C1356 C1355 1.334 . S
C1356 C1357 1.287 . S
C1357 C1356 1.287 . S
C1357 C1358 1.524 1_455 S
C1357 H1360 0.999 . S
C1358 H1328 0.950 . S
C1358 C1357 1.524 1_655 S
C1358 C1359 1.415 . S
C1359 H1329 0.950 . S
C1359 C1354 1.339 1_655 S
C1359 C1358 1.415 . S
H1360 C1357 0.999 . S
H1361 C1342 0.913 . S
H1362 C1380 0.951 . S
H1363 C1382 0.951 . S
H1364 C1384 0.950 . S
H1365 C1385 0.950 . S
H1366 C1387 0.952 . S
H1367 C1390 0.950 . S
H1368 C1391 0.950 . S
H1369 C1393 0.950 1_545 S
H1370 C1394 0.950 . S
H1371 C1395 0.951 . S
H1372 C1397 0.951 . S
H1373 C1399 0.950 . S
H1374 C1400 0.950 . S
H1375 C1402 0.950 . S
H1376 C1405 0.950 . S
H1377 C1406 0.950 . S
H1378 C1408 0.950 . S
H1379 C1409 0.950 . S
C1380 H1362 0.951 . S
C1380 C1381 1.356 1_545 S
C1380 C1382 1.388 . S
C1381 C1380 1.356 1_565 S
C1381 C1385 1.396 . S
C1382 H1363 0.951 . S
C1382 C1380 1.388 . S
C1382 C1383 1.366 1_545 S
C1383 C1382 1.366 1_565 S
C1383 C1384 1.414 . S
C1383 C1386 1.499 . S
C1384 H1364 0.950 . S
C1384 C1383 1.414 . S
C1384 C1385 1.374 . S
C1385 H1365 0.950 . S
C1385 C1381 1.396 . S
C1385 C1384 1.374 . S
C1386 C1383 1.499 . S
C1386 C1387 1.373 . S
C1386 C1388 1.389 . S
C1387 H1366 0.952 . S
C1387 C1386 1.373 . S
C1387 C1403 1.377 . S
C1388 C1386 1.389 . S
C1388 C1389 1.524 . S
C1388 C1402 1.377 . S
C1389 C1388 1.524 . S
C1389 C1390 1.397 . S
C1389 C1394 1.363 1_565 S
C1390 H1367 0.950 . S
C1390 C1389 1.397 . S
C1390 C1391 1.334 . S
C1391 H1368 0.950 . S
C1391 C1390 1.334 . S
C1391 C1392 1.287 . S
C1392 C1391 1.287 . S
C1392 C1393 1.524 . S
C1392 H1411 0.913 . S
C1393 H1369 0.950 1_565 S
C1393 C1392 1.524 . S
C1393 C1394 1.415 1_565 S
C1394 H1370 0.950 . S
C1394 C1389 1.363 1_545 S
C1394 C1393 1.415 1_545 S
C1395 H1371 0.951 . S
C1395 C1396 1.366 . S
C1395 C1397 1.388 . S
C1396 C1395 1.366 . S
C1396 C1400 1.385 1_565 S
C1397 H1372 0.951 . S
C1397 C1395 1.388 . S
C1397 C1398 1.366 . S
C1398 C1397 1.366 . S
C1398 C1399 1.414 1_565 S
C1398 C1401 1.499 . S
C1399 H1373 0.950 . S
C1399 C1398 1.414 1_545 S
C1399 C1400 1.374 . S
C1400 H1374 0.950 . S
C1400 C1396 1.385 1_545 S
C1400 C1399 1.374 . S
C1401 C1398 1.499 . S
C1401 C1402 1.373 . S
C1401 C1403 1.392 . S
C1402 H1375 0.950 . S
C1402 C1388 1.377 . S
C1402 C1401 1.373 . S
C1403 C1387 1.377 . S
C1403 C1401 1.392 . S
C1403 C1404 1.521 1_565 S
C1404 C1403 1.521 1_545 S
C1404 C1405 1.397 . S
C1404 C1409 1.363 1_545 S
C1405 H1376 0.950 . S
C1405 C1404 1.397 . S
C1405 C1406 1.334 . S
C1406 H1377 0.950 . S
C1406 C1405 1.334 . S
C1406 C1407 1.287 . S
C1407 C1406 1.287 . S
C1407 C1408 1.524 1_545 S
C1407 H1410 0.999 . S
C1408 H1378 0.950 . S
C1408 C1407 1.524 1_565 S
C1408 C1409 1.415 . S
C1409 H1379 0.950 . S
C1409 C1404 1.363 1_565 S
C1409 C1408 1.415 . S
H1410 C1407 0.999 . S
H1411 C1392 0.913 . S
H1412 C1430 0.951 . S
H1413 C1432 0.951 . S
H1414 C1434 0.950 . S
H1415 C1435 0.950 . S
H1416 C1437 0.950 . S
H1417 C1440 0.950 . S
H1418 C1441 0.950 . S
H1419 C1443 0.950 . S
H1420 C1444 0.950 . S
H1421 C1445 0.951 . S
H1422 C1447 0.951 . S
H1423 C1449 0.950 . S
H1424 C1450 0.950 . S
H1425 C1452 0.950 . S
H1426 C1455 0.950 . S
H1427 C1456 0.950 . S
H1428 C1458 0.950 . S
H1429 C1459 0.950 . S
C1430 H1412 0.951 . S
C1430 C1431 1.366 . S
C1430 C1432 1.388 . S
C1431 C1430 1.366 . S
C1431 C1435 1.385 . S
C1432 H1413 0.951 . S
C1432 C1430 1.388 . S
C1432 C1433 1.366 . S
C1433 C1432 1.366 . S
C1433 C1434 1.414 . S
C1433 C1436 1.499 . S
C1434 H1414 0.950 . S
C1434 C1433 1.414 . S
C1434 C1435 1.374 . S
C1435 H1415 0.950 . S
C1435 C1431 1.385 . S
C1435 C1434 1.374 . S
C1436 C1433 1.499 . S
C1436 C1437 1.373 . S
C1436 C1438 1.389 . S
C1437 H1416 0.950 . S
C1437 C1436 1.373 . S
C1437 C1453 1.377 . S
C1438 C1436 1.389 . S
C1438 C1439 1.524 . S
C1438 C1452 1.377 . S
C1439 C1438 1.524 . S
C1439 C1440 1.397 . S
C1439 C1444 1.363 . S
C1440 H1417 0.950 . S
C1440 C1439 1.397 . S
C1440 C1441 1.334 . S
C1441 H1418 0.950 . S
C1441 C1440 1.334 . S
C1441 C1442 1.287 . S
C1442 C1441 1.287 . S
C1442 C1443 1.524 . S
C1442 H1461 0.913 . S
C1443 H1419 0.950 . S
C1443 C1442 1.524 . S
C1443 C1444 1.415 . S
C1444 H1420 0.950 . S
C1444 C1439 1.363 . S
C1444 C1443 1.415 . S
C1445 H1421 0.951 . S
C1445 C1446 1.366 . S
C1445 C1447 1.388 . S
C1446 C1445 1.366 . S
C1446 C1450 1.385 . S
C1447 H1422 0.951 . S
C1447 C1445 1.388 . S
C1447 C1448 1.366 . S
C1448 C1447 1.366 . S
C1448 C1449 1.414 . S
C1448 C1451 1.499 . S
C1449 H1423 0.950 . S
C1449 C1448 1.414 . S
C1449 C1450 1.374 . S
C1450 H1424 0.950 . S
C1450 C1446 1.385 . S
C1450 C1449 1.374 . S
C1451 C1448 1.499 . S
C1451 C1452 1.373 . S
C1451 C1453 1.389 . S
C1452 H1425 0.950 . S
C1452 C1438 1.377 . S
C1452 C1451 1.373 . S
C1453 C1437 1.377 . S
C1453 C1451 1.389 . S
C1453 C1454 1.524 . S
C1454 C1453 1.524 . S
C1454 C1455 1.397 . S
C1454 C1459 1.363 . S
C1455 H1426 0.950 . S
C1455 C1454 1.397 . S
C1455 C1456 1.334 . S
C1456 H1427 0.950 . S
C1456 C1455 1.334 . S
C1456 C1457 1.287 . S
C1457 C1456 1.287 . S
C1457 C1458 1.524 . S
C1457 H1460 0.999 . S
C1458 H1428 0.950 . S
C1458 C1457 1.524 . S
C1458 C1459 1.415 . S
C1459 H1429 0.950 . S
C1459 C1454 1.363 . S
C1459 C1458 1.415 . S
H1460 C1457 0.999 . S
H1461 C1442 0.913 . S
H1462 C1480 0.951 . S
H1463 C1482 0.951 . S
H1464 C1484 0.950 . S
H1465 C1485 0.950 . S
H1466 C1487 0.950 . S
H1467 C1490 0.950 . S
H1468 C1491 0.950 . S
H1469 C1493 0.950 . S
H1470 C1494 0.950 . S
H1471 C1495 0.951 . S
H1472 C1497 0.951 . S
H1473 C1499 0.950 . S
H1474 C1500 0.950 . S
H1475 C1502 0.950 . S
H1476 C1505 0.950 . S
H1477 C1506 0.950 . S
H1478 C1508 0.950 . S
H1479 C1509 0.950 . S
C1480 H1462 0.951 . S
C1480 C1481 1.366 . S
C1480 C1482 1.388 . S
C1481 C1480 1.366 . S
C1481 C1485 1.385 . S
C1482 H1463 0.951 . S
C1482 C1480 1.388 . S
C1482 C1483 1.366 . S
C1483 C1482 1.366 . S
C1483 C1484 1.414 . S
C1483 C1486 1.499 . S
C1484 H1464 0.950 . S
C1484 C1483 1.414 . S
C1484 C1485 1.374 . S
C1485 H1465 0.950 . S
C1485 C1481 1.385 . S
C1485 C1484 1.374 . S
C1486 C1483 1.499 . S
C1486 C1487 1.373 . S
C1486 C1488 1.389 . S
C1487 H1466 0.950 . S
C1487 C1486 1.373 . S
C1487 C1503 1.377 . S
C1488 C1486 1.389 . S
C1488 C1489 1.524 . S
C1488 C1502 1.377 . S
C1489 C1488 1.524 . S
C1489 C1490 1.397 . S
C1489 C1494 1.363 . S
C1490 H1467 0.950 . S
C1490 C1489 1.397 . S
C1490 C1491 1.334 . S
C1491 H1468 0.950 . S
C1491 C1490 1.334 . S
C1491 C1492 1.287 . S
C1492 C1491 1.287 . S
C1492 C1493 1.524 . S
C1492 H1511 0.913 . S
C1493 H1469 0.950 . S
C1493 C1492 1.524 . S
C1493 C1494 1.415 . S
C1494 H1470 0.950 . S
C1494 C1489 1.363 . S
C1494 C1493 1.415 . S
C1495 H1471 0.951 . S
C1495 C1496 1.366 . S
C1495 C1497 1.388 . S
C1496 C1495 1.366 . S
C1496 C1500 1.385 . S
C1497 H1472 0.951 . S
C1497 C1495 1.388 . S
C1497 C1498 1.366 . S
C1498 C1497 1.366 . S
C1498 C1499 1.414 . S
C1498 C1501 1.499 . S
C1499 H1473 0.950 . S
C1499 C1498 1.414 . S
C1499 C1500 1.374 . S
C1500 H1474 0.950 . S
C1500 C1496 1.385 . S
C1500 C1499 1.374 . S
C1501 C1498 1.499 . S
C1501 C1502 1.373 . S
C1501 C1503 1.389 . S
C1502 H1475 0.950 . S
C1502 C1488 1.377 . S
C1502 C1501 1.373 . S
C1503 C1487 1.377 . S
C1503 C1501 1.389 . S
C1503 C1504 1.524 . S
C1504 C1503 1.524 . S
C1504 C1505 1.397 . S
C1504 C1509 1.363 . S
C1505 H1476 0.950 . S
C1505 C1504 1.397 . S
C1505 C1506 1.334 . S
C1506 H1477 0.950 . S
C1506 C1505 1.334 . S
C1506 C1507 1.287 . S
C1507 C1506 1.287 . S
C1507 C1508 1.524 . S
C1507 H1510 0.999 . S
C1508 H1478 0.950 . S
C1508 C1507 1.524 . S
C1508 C1509 1.415 . S
C1509 H1479 0.950 . S
C1509 C1504 1.363 . S
C1509 C1508 1.415 . S
H1510 C1507 0.999 . S
H1511 C1492 0.913 . S
C331 C125 1.836 1_545 S
C346 C175 1.873 1_545 S
C396 C215 1.771 . S
C381 C144 1.630 . S
C446 C234 1.876 . S
C431 C87 1.828 . S
C496 C295 1.360 . S
C481 C106 1.304 . S
C546 C154 1.873 1_565 S
C531 C49 1.836 . S
C581 C68 1.691 . S
C596 C194 1.778 . S
C631 C11 1.845 . S
C646 C255 1.874 . S
C681 C30 1.341 . S
C696 C274 1.360 . S
C746 C156 0.712 . S
C731 C97 0.712 . S
C796 C196 0.287 . S
C781 C116 0.406 . S
C846 C252 0.829 . S
C831 C135 0.804 . S
C881 C78 0.403 . S
C896 C276 0.304 . S
C931 C21 0.713 . S
C946 C177 0.716 . S
C996 C217 0.286 . S
C981 C40 0.403 . S
C1046 C263 0.830 . S
C1031 C59 0.803 . S
C1081 C2 0.404 . S
C1096 C297 0.304 . S
C1131 C101 1.405 . S
C1146 C172 1.497 . S
C1181 C120 2.067 1_545 S
C1196 C212 2.215 . S
C1246 C236 1.422 . S
C1231 C139 1.406 . S
C1296 C292 2.221 . S
C1281 C82 2.075 . S
C1331 C25 1.405 . S
C1346 C183 1.510 1_655 S
C1396 C223 2.217 . S
C1381 C44 2.069 . S
C1446 C257 1.423 . S
C1431 C63 1.403 . S
C1481 C6 2.073 . S
C1496 C303 2.219 . S
