# Generated by pormake.
# Topology eea, (3,6)-cn, num edge types: 1
# Building blocks:
#     Node 0, Type 0, BuildingBlock: BETDIP_clean_linker_0, # of connection points: 3
#     Node 1, Type 0, BuildingBlock: BETDIP_clean_linker_0, # of connection points: 3
#     Node 2, Type 0, BuildingBlock: BETDIP_clean_linker_0, # of connection points: 3
#     Node 3, Type 0, BuildingBlock: BETDIP_clean_linker_0, # of connection points: 3
#     Node 4, Type 0, BuildingBlock: BETDIP_clean_linker_0, # of connection points: 3
#     Node 5, Type 0, BuildingBlock: BETDIP_clean_linker_0, # of connection points: 3
#     Node 6, Type 0, BuildingBlock: BETDIP_clean_linker_0, # of connection points: 3
#     Node 7, Type 0, BuildingBlock: BETDIP_clean_linker_0, # of connection points: 3
#     Node 8, Type 0, BuildingBlock: BETDIP_clean_linker_0, # of connection points: 3
#     Node 9, Type 0, BuildingBlock: BETDIP_clean_linker_0, # of connection points: 3
#     Node 10, Type 0, BuildingBlock: BETDIP_clean_linker_0, # of connection points: 3
#     Node 11, Type 0, BuildingBlock: BETDIP_clean_linker_0, # of connection points: 3
#     Node 12, Type 0, BuildingBlock: BETDIP_clean_linker_0, # of connection points: 3
#     Node 13, Type 0, BuildingBlock: BETDIP_clean_linker_0, # of connection points: 3
#     Node 14, Type 0, BuildingBlock: BETDIP_clean_linker_0, # of connection points: 3
#     Node 15, Type 0, BuildingBlock: BETDIP_clean_linker_0, # of connection points: 3
#     Node 16, Type 0, BuildingBlock: BETDIP_clean_linker_0, # of connection points: 3
#     Node 17, Type 0, BuildingBlock: BETDIP_clean_linker_0, # of connection points: 3
#     Node 18, Type 1, BuildingBlock: KUMJIN_clean_sbu_0, # of connection points: 6
#     Node 19, Type 1, BuildingBlock: KUMJIN_clean_sbu_0, # of connection points: 6
#     Node 20, Type 1, BuildingBlock: KUMJIN_clean_sbu_0, # of connection points: 6
#     Node 21, Type 1, BuildingBlock: KUMJIN_clean_sbu_0, # of connection points: 6
#     Node 22, Type 1, BuildingBlock: KUMJIN_clean_sbu_0, # of connection points: 6
#     Node 23, Type 1, BuildingBlock: KUMJIN_clean_sbu_0, # of connection points: 6
#     Node 24, Type 1, BuildingBlock: KUMJIN_clean_sbu_0, # of connection points: 6
#     Node 25, Type 1, BuildingBlock: KUMJIN_clean_sbu_0, # of connection points: 6
#     Node 26, Type 1, BuildingBlock: KUMJIN_clean_sbu_0, # of connection points: 6
#     Edge 27, Type (0, 1), BuildingBlock: TEMPAE_clean_linker_10, # of connection points: 2
#     Edge 28, Type (0, 1), BuildingBlock: TEMPAE_clean_linker_10, # of connection points: 2
#     Edge 29, Type (0, 1), BuildingBlock: TEMPAE_clean_linker_10, # of connection points: 2
#     Edge 30, Type (0, 1), BuildingBlock: TEMPAE_clean_linker_10, # of connection points: 2
#     Edge 31, Type (0, 1), BuildingBlock: TEMPAE_clean_linker_10, # of connection points: 2
#     Edge 32, Type (0, 1), BuildingBlock: TEMPAE_clean_linker_10, # of connection points: 2
#     Edge 33, Type (0, 1), BuildingBlock: TEMPAE_clean_linker_10, # of connection points: 2
#     Edge 34, Type (0, 1), BuildingBlock: TEMPAE_clean_linker_10, # of connection points: 2
#     Edge 35, Type (0, 1), BuildingBlock: TEMPAE_clean_linker_10, # of connection points: 2
#     Edge 36, Type (0, 1), BuildingBlock: TEMPAE_clean_linker_10, # of connection points: 2
#     Edge 37, Type (0, 1), BuildingBlock: TEMPAE_clean_linker_10, # of connection points: 2
#     Edge 38, Type (0, 1), BuildingBlock: TEMPAE_clean_linker_10, # of connection points: 2
#     Edge 39, Type (0, 1), BuildingBlock: TEMPAE_clean_linker_10, # of connection points: 2
#     Edge 40, Type (0, 1), BuildingBlock: TEMPAE_clean_linker_10, # of connection points: 2
#     Edge 41, Type (0, 1), BuildingBlock: TEMPAE_clean_linker_10, # of connection points: 2
#     Edge 42, Type (0, 1), BuildingBlock: TEMPAE_clean_linker_10, # of connection points: 2
#     Edge 43, Type (0, 1), BuildingBlock: TEMPAE_clean_linker_10, # of connection points: 2
#     Edge 44, Type (0, 1), BuildingBlock: TEMPAE_clean_linker_10, # of connection points: 2
#     Edge 45, Type (0, 1), BuildingBlock: TEMPAE_clean_linker_10, # of connection points: 2
#     Edge 46, Type (0, 1), BuildingBlock: TEMPAE_clean_linker_10, # of connection points: 2
#     Edge 47, Type (0, 1), BuildingBlock: TEMPAE_clean_linker_10, # of connection points: 2
#     Edge 48, Type (0, 1), BuildingBlock: TEMPAE_clean_linker_10, # of connection points: 2
#     Edge 49, Type (0, 1), BuildingBlock: TEMPAE_clean_linker_10, # of connection points: 2
#     Edge 50, Type (0, 1), BuildingBlock: TEMPAE_clean_linker_10, # of connection points: 2
#     Edge 51, Type (0, 1), BuildingBlock: TEMPAE_clean_linker_10, # of connection points: 2
#     Edge 52, Type (0, 1), BuildingBlock: TEMPAE_clean_linker_10, # of connection points: 2
#     Edge 53, Type (0, 1), BuildingBlock: TEMPAE_clean_linker_10, # of connection points: 2
#     Edge 54, Type (0, 1), BuildingBlock: TEMPAE_clean_linker_10, # of connection points: 2
#     Edge 55, Type (0, 1), BuildingBlock: TEMPAE_clean_linker_10, # of connection points: 2
#     Edge 56, Type (0, 1), BuildingBlock: TEMPAE_clean_linker_10, # of connection points: 2
#     Edge 57, Type (0, 1), BuildingBlock: TEMPAE_clean_linker_10, # of connection points: 2
#     Edge 58, Type (0, 1), BuildingBlock: TEMPAE_clean_linker_10, # of connection points: 2
#     Edge 59, Type (0, 1), BuildingBlock: TEMPAE_clean_linker_10, # of connection points: 2
#     Edge 60, Type (0, 1), BuildingBlock: TEMPAE_clean_linker_10, # of connection points: 2
#     Edge 61, Type (0, 1), BuildingBlock: TEMPAE_clean_linker_10, # of connection points: 2
#     Edge 62, Type (0, 1), BuildingBlock: TEMPAE_clean_linker_10, # of connection points: 2
#     Edge 63, Type (0, 1), BuildingBlock: TEMPAE_clean_linker_10, # of connection points: 2
#     Edge 64, Type (0, 1), BuildingBlock: TEMPAE_clean_linker_10, # of connection points: 2
#     Edge 65, Type (0, 1), BuildingBlock: TEMPAE_clean_linker_10, # of connection points: 2
#     Edge 66, Type (0, 1), BuildingBlock: TEMPAE_clean_linker_10, # of connection points: 2
#     Edge 67, Type (0, 1), BuildingBlock: TEMPAE_clean_linker_10, # of connection points: 2
#     Edge 68, Type (0, 1), BuildingBlock: TEMPAE_clean_linker_10, # of connection points: 2
#     Edge 69, Type (0, 1), BuildingBlock: TEMPAE_clean_linker_10, # of connection points: 2
#     Edge 70, Type (0, 1), BuildingBlock: TEMPAE_clean_linker_10, # of connection points: 2
#     Edge 71, Type (0, 1), BuildingBlock: TEMPAE_clean_linker_10, # of connection points: 2
#     Edge 72, Type (0, 1), BuildingBlock: TEMPAE_clean_linker_10, # of connection points: 2
#     Edge 73, Type (0, 1), BuildingBlock: TEMPAE_clean_linker_10, # of connection points: 2
#     Edge 74, Type (0, 1), BuildingBlock: TEMPAE_clean_linker_10, # of connection points: 2
#     Edge 75, Type (0, 1), BuildingBlock: TEMPAE_clean_linker_10, # of connection points: 2
#     Edge 76, Type (0, 1), BuildingBlock: TEMPAE_clean_linker_10, # of connection points: 2
#     Edge 77, Type (0, 1), BuildingBlock: TEMPAE_clean_linker_10, # of connection points: 2
#     Edge 78, Type (0, 1), BuildingBlock: TEMPAE_clean_linker_10, # of connection points: 2
#     Edge 79, Type (0, 1), BuildingBlock: TEMPAE_clean_linker_10, # of connection points: 2
#     Edge 80, Type (0, 1), BuildingBlock: TEMPAE_clean_linker_10, # of connection points: 2
# Relax obj value: 0.025
# Max RMSD: 0.166
# Mean RMSD: 0.120
data_MOF--net-eea--node1-KUMJIN_clean_sbu_0--node2-BETDIP_clean_linker_0--edge1-TEMPAE_clean_linker_10
_symmetry_space_group_name_H-M    P1
_symmetry_Int_Tables_number       1
_symmetry_cell_setting            triclinic
loop_
_symmetry_equiv_pos_as_xyz
'x, y, z'
_cell_length_a     55.133463
_cell_length_b     56.566662
_cell_length_c     67.77841
_cell_angle_alpha  90.079326
_cell_angle_beta   90.083112
_cell_angle_gamma 119.97213
loop_
_atom_site_label
_atom_site_type_symbol
_atom_site_fract_x
_atom_site_fract_y
_atom_site_fract_z
_atom_type_partial_charge
H0 H 0.20694 0.08893 0.38676 0.0
H1 H 0.23689 0.14495 0.43572 0.0
H2 H 0.25144 0.07718 0.43455 0.0
H3 H 0.19294 0.14256 0.42803 0.0
C4 C 0.1976 0.14707 0.41245 0.0
C5 C 0.21766 0.09519 0.40085 0.0
C6 C 0.22899 0.08024 0.40947 0.0
C7 C 0.21988 0.11816 0.41042 0.0
C8 C 0.23437 0.12678 0.42846 0.0
C9 C 0.24575 0.11202 0.43716 0.0
C10 C 0.24283 0.08871 0.42769 0.0
N11 N 0.20807 0.13273 0.40143 0.0
H12 H 0.92824 0.12702 0.381 0.0
H13 H 0.88765 0.0902 0.43518 0.0
H14 H 0.95157 0.17423 0.43479 0.0
H15 H 0.88709 0.05314 0.42003 0.0
C16 C 0.87841 0.05495 0.40607 0.0
C17 C 0.9266 0.12902 0.39673 0.0
C18 C 0.94385 0.15404 0.40655 0.0
C19 C 0.90696 0.10591 0.40712 0.0
C20 C 0.90309 0.10803 0.42738 0.0
C21 C 0.91826 0.133 0.43741 0.0
C22 C 0.93915 0.15545 0.42693 0.0
N23 N 0.89024 0.08093 0.39679 0.0
H24 H 0.89244 0.8126 0.38292 0.0
H25 H 0.91749 0.78029 0.43132 0.0
H26 H 0.83685 0.77432 0.43208 0.0
H27 H 0.96049 0.81657 0.42266 0.0
C28 C 0.95976 0.81347 0.40679 0.0
C29 C 0.88789 0.80238 0.39706 0.0
C30 C 0.86209 0.79446 0.40651 0.0
C31 C 0.90835 0.79798 0.40609 0.0
C32 C 0.90233 0.78452 0.42444 0.0
C33 C 0.87672 0.77622 0.434 0.0
C34 C 0.85689 0.78138 0.42496 0.0
N35 N 0.93453 0.80669 0.39641 0.0
H36 H 0.08569 0.19375 0.64253 0.0
H37 H 0.14263 0.22469 0.59353 0.0
H38 H 0.06965 0.23329 0.59395 0.0
H39 H 0.14715 0.18717 0.60198 0.0
C40 C 0.15059 0.19115 0.61773 0.0
C41 C 0.09148 0.20398 0.62839 0.0
C42 C 0.07422 0.21275 0.61935 0.0
C43 C 0.11583 0.20752 0.61894 0.0
C44 C 0.12334 0.22075 0.60053 0.0
C45 C 0.1068 0.23011 0.59143 0.0
C46 C 0.08236 0.22599 0.60094 0.0
N47 N 0.13297 0.19848 0.62837 0.0
H48 H 0.81482 0.89116 0.63596 0.0
H49 H 0.78425 0.91809 0.58762 0.0
H50 H 0.77157 0.83662 0.5877 0.0
H51 H 0.82767 0.95886 0.59592 0.0
C52 C 0.82179 0.9581 0.61131 0.0
C53 C 0.80403 0.88709 0.62191 0.0
C54 C 0.79402 0.86169 0.61264 0.0
C55 C 0.80121 0.9077 0.61268 0.0
C56 C 0.78702 0.90235 0.59456 0.0
C57 C 0.77598 0.87669 0.58548 0.0
C58 C 0.78002 0.85659 0.59448 0.0
N59 N 0.81206 0.93347 0.62206 0.0
H60 H 0.1194 0.9192 0.64231 0.0
H61 H 0.09557 0.86152 0.5946 0.0
H62 H 0.17646 0.93418 0.59446 0.0
H63 H 0.05212 0.85656 0.60221 0.0
C64 C 0.05274 0.85452 0.61812 0.0
C65 C 0.1242 0.91313 0.62834 0.0
C66 C 0.15056 0.92942 0.61956 0.0
C67 C 0.10397 0.88894 0.6192 0.0
C68 C 0.11051 0.88079 0.60126 0.0
C69 C 0.1367 0.89686 0.59224 0.0
C70 C 0.15648 0.9212 0.6015 0.0
N71 N 0.07764 0.87257 0.62861 0.0
H72 H 0.86732 0.41719 0.72227 0.0
H73 H 0.90384 0.47752 0.76813 0.0
H74 H 0.91927 0.41015 0.76657 0.0
H75 H 0.85914 0.47516 0.76311 0.0
C76 C 0.86231 0.47842 0.7473 0.0
C77 C 0.88006 0.42479 0.73547 0.0
C78 C 0.89314 0.411 0.74329 0.0
C79 C 0.88333 0.4484 0.74463 0.0
C80 C 0.90031 0.45862 0.76152 0.0
C81 C 0.91365 0.44513 0.76946 0.0
C82 C 0.9098 0.42124 0.76027 0.0
N83 N 0.87047 0.46231 0.73611 0.0
H84 H 0.59432 0.46693 0.71477 0.0
H85 H 0.547 0.43119 0.76723 0.0
H86 H 0.62625 0.50453 0.77171 0.0
H87 H 0.51109 0.42004 0.74157 0.0
C88 C 0.51972 0.41011 0.73255 0.0
C89 C 0.5929 0.46756 0.73065 0.0
C90 C 0.61395 0.48936 0.7418 0.0
C91 C 0.56892 0.44656 0.73971 0.0
C92 C 0.56543 0.44738 0.76016 0.0
C93 C 0.58594 0.46857 0.77166 0.0
C94 C 0.61035 0.48886 0.76249 0.0
N95 N 0.54882 0.42437 0.72812 0.0
H96 H 0.564 0.15098 0.71807 0.0
H97 H 0.58837 0.11848 0.76674 0.0
H98 H 0.50878 0.11476 0.76769 0.0
H99 H 0.63178 0.15384 0.75755 0.0
C100 C 0.63068 0.15042 0.74171 0.0
C101 C 0.55943 0.14108 0.73234 0.0
C102 C 0.53392 0.13397 0.7419 0.0
C103 C 0.57958 0.13622 0.74137 0.0
C104 C 0.5735 0.12311 0.75986 0.0
C105 C 0.54814 0.11561 0.76953 0.0
C106 C 0.52866 0.12125 0.76049 0.0
N107 N 0.60544 0.14406 0.73151 0.0
H108 H 0.74795 0.52954 0.97544 0.0
H109 H 0.80084 0.55481 0.92406 0.0
H110 H 0.72665 0.56115 0.92446 0.0
H111 H 0.80921 0.52156 0.93503 0.0
C112 C 0.81274 0.52642 0.95066 0.0
C113 C 0.75239 0.53784 0.96064 0.0
C114 C 0.73368 0.54442 0.95109 0.0
C115 C 0.77647 0.54104 0.95093 0.0
C116 C 0.78219 0.55168 0.93161 0.0
C117 C 0.76396 0.55841 0.92186 0.0
C118 C 0.74005 0.55494 0.93177 0.0
N119 N 0.79485 0.53387 0.96084 0.0
H120 H 0.49012 0.22807 0.9679 0.0
H121 H 0.45859 0.2529 0.91892 0.0
H122 H 0.43796 0.1692 0.92416 0.0
H123 H 0.50189 0.29448 0.92532 0.0
C124 C 0.49721 0.29416 0.94092 0.0
C125 C 0.47821 0.2231 0.95428 0.0
C126 C 0.46426 0.19617 0.94722 0.0
C127 C 0.47666 0.24371 0.94399 0.0
C128 C 0.4608 0.23726 0.92654 0.0
C129 C 0.44655 0.21037 0.91938 0.0
C130 C 0.44841 0.18992 0.92981 0.0
N131 N 0.48957 0.27033 0.95218 0.0
H132 H 0.78187 0.25269 0.97223 0.0
H133 H 0.75441 0.19477 0.92435 0.0
H134 H 0.83567 0.26651 0.92236 0.0
H135 H 0.71183 0.1912 0.93362 0.0
C136 C 0.71329 0.18864 0.9494 0.0
C137 C 0.78567 0.24648 0.95797 0.0
C138 C 0.81144 0.26262 0.94835 0.0
C139 C 0.76472 0.22222 0.94927 0.0
C140 C 0.76999 0.21381 0.93097 0.0
C141 C 0.7955 0.22979 0.92118 0.0
C142 C 0.81595 0.25416 0.92991 0.0
N143 N 0.7389 0.20612 0.95937 0.0
H144 H 0.53566 0.74998 0.05251 0.0
H145 H 0.5666 0.80624 0.10127 0.0
H146 H 0.57912 0.73718 0.10047 0.0
H147 H 0.52355 0.80555 0.09308 0.0
C148 C 0.5287 0.80988 0.07754 0.0
C149 C 0.54633 0.75611 0.06662 0.0
C150 C 0.55701 0.74069 0.07537 0.0
C151 C 0.54921 0.7794 0.07605 0.0
C152 C 0.56362 0.78783 0.09412 0.0
C153 C 0.57444 0.77265 0.10295 0.0
C154 C 0.57091 0.74904 0.09358 0.0
N155 N 0.53827 0.79457 0.06681 0.0
H156 H 0.26507 0.78748 0.0507 0.0
H157 H 0.21521 0.76246 0.10351 0.0
H158 H 0.28746 0.84234 0.10032 0.0
H159 H 0.21126 0.72119 0.09333 0.0
C160 C 0.20501 0.72167 0.07818 0.0
C161 C 0.26115 0.79202 0.0655 0.0
C162 C 0.27965 0.81739 0.07432 0.0
C163 C 0.23814 0.7719 0.07606 0.0
C164 C 0.23312 0.77762 0.09536 0.0
C165 C 0.25109 0.80282 0.10428 0.0
C166 C 0.27409 0.82256 0.09362 0.0
N167 N 0.22011 0.74615 0.06707 0.0
H168 H 0.21586 0.46645 0.04651 0.0
H169 H 0.24507 0.44292 0.09718 0.0
H170 H 0.16984 0.4464 0.10152 0.0
H171 H 0.28728 0.47816 0.08601 0.0
C172 C 0.28554 0.47287 0.07045 0.0
C173 C 0.21292 0.46046 0.06183 0.0
C174 C 0.18855 0.45586 0.07227 0.0
C175 C 0.23426 0.45761 0.07112 0.0
C176 C 0.23008 0.44757 0.09054 0.0
C177 C 0.20615 0.44242 0.1012 0.0
C178 C 0.18658 0.4481 0.09232 0.0
N179 N 0.25943 0.4642 0.06064 0.0
H180 H 0.41943 0.86568 0.30982 0.0
H181 H 0.47571 0.89433 0.26036 0.0
H182 H 0.40329 0.90376 0.26024 0.0
H183 H 0.47981 0.85701 0.2695 0.0
C184 C 0.48373 0.86158 0.28515 0.0
C185 C 0.42511 0.87539 0.29549 0.0
C186 C 0.40784 0.884 0.28616 0.0
C187 C 0.4493 0.87838 0.28608 0.0
C188 C 0.45658 0.89083 0.2674 0.0
C189 C 0.44005 0.89993 0.25798 0.0
C190 C 0.41588 0.89652 0.26749 0.0
N191 N 0.46649 0.86951 0.29572 0.0
H192 H 0.14783 0.56203 0.30218 0.0
H193 H 0.12766 0.58721 0.24763 0.0
H194 H 0.12449 0.50994 0.25109 0.0
H195 H 0.16243 0.62924 0.25989 0.0
C196 C 0.15462 0.62743 0.27485 0.0
C197 C 0.14144 0.55803 0.28684 0.0
C198 C 0.1369 0.5338 0.2778 0.0
C199 C 0.13894 0.57772 0.27591 0.0
C200 C 0.13047 0.57248 0.25603 0.0
C201 C 0.12539 0.54813 0.24696 0.0
C202 C 0.12885 0.52902 0.25791 0.0
N203 N 0.14477 0.6025 0.28524 0.0
H204 H 0.45089 0.58328 0.30907 0.0
H205 H 0.42664 0.52512 0.26167 0.0
H206 H 0.50438 0.60104 0.25853 0.0
H207 H 0.38315 0.5193 0.27048 0.0
C208 C 0.38444 0.51745 0.28636 0.0
C209 C 0.45522 0.57742 0.29484 0.0
C210 C 0.48007 0.59513 0.28479 0.0
C211 C 0.43531 0.55263 0.28624 0.0
C212 C 0.44116 0.54489 0.26788 0.0
C213 C 0.46615 0.56209 0.25781 0.0
C214 C 0.48524 0.58736 0.26629 0.0
N215 N 0.40977 0.5356 0.29636 0.0
Eu216 Eu 0.48605 0.98817 0.9869 0.0
C217 C 0.54435 0.0808 0.05015 0.0
C218 C 0.5932 0.09377 0.04744 0.0
C219 C 0.58048 0.12742 0.05742 0.0
C220 C 0.56457 0.0741 0.04562 0.0
C221 C 0.55204 0.10728 0.05675 0.0
C222 C 0.60104 0.12067 0.05276 0.0
C223 C 0.50329 0.09098 0.06393 0.0
N224 N 0.51717 0.06075 0.04966 0.0
C225 C 0.49677 0.06502 0.0573 0.0
C226 C 0.53099 0.11236 0.06328 0.0
Eu227 Eu 0.50727 0.01761 0.0375 0.0
N228 N 0.55622 0.04785 0.04076 0.0
C229 C 0.57546 0.03947 0.03897 0.0
C230 C 0.61304 0.08557 0.04456 0.0
C231 C 0.6041 0.05823 0.04055 0.0
H232 H 0.4753 0.04855 0.05762 0.0
H233 H 0.61926 0.05158 0.03866 0.0
H234 H 0.62294 0.13616 0.05394 0.0
H235 H 0.48694 0.0945 0.06943 0.0
H236 H 0.56897 0.01845 0.03581 0.0
H237 H 0.37442 0.95509 0.98396 0.0
H238 H 0.63521 0.09998 0.04603 0.0
H239 H 0.51878 0.95524 0.97122 0.0
H240 H 0.42475 0.98797 0.98752 0.0
H241 H 0.50695 0.90844 0.9615 0.0
H242 H 0.58681 0.148 0.06218 0.0
H243 H 0.35836 0.9066 0.97679 0.0
H244 H 0.37046 0.87005 0.96991 0.0
H245 H 0.53601 0.13243 0.06847 0.0
H246 H 0.40648 0.85727 0.96402 0.0
N247 N 0.43728 0.95838 0.98287 0.0
C248 C 0.41816 0.96693 0.98435 0.0
C249 C 0.38053 0.92093 0.97841 0.0
C250 C 0.40029 0.91252 0.97609 0.0
C251 C 0.38953 0.94831 0.98237 0.0
C252 C 0.42892 0.93205 0.97822 0.0
H253 H 0.45741 0.87149 0.96064 0.0
N254 N 0.47645 0.94447 0.97625 0.0
C255 C 0.49049 0.91275 0.96532 0.0
C256 C 0.44912 0.92483 0.97493 0.0
C257 C 0.49712 0.93918 0.97074 0.0
C258 C 0.4625 0.89194 0.9649 0.0
C259 C 0.44137 0.89793 0.96939 0.0
O260 O 0.50925 0.99949 0.95915 0.0
O261 O 0.51873 0.02108 0.00564 0.0
O262 O 0.50016 0.04754 0.01988 0.0
O263 O 0.47382 0.02049 0.99307 0.0
O264 O 0.53285 0.0044 0.98466 0.0
O265 O 0.47246 0.00357 0.96219 0.0
O266 O 0.48465 0.00525 0.06552 0.0
O267 O 0.47447 0.98539 0.01856 0.0
O268 O 0.48997 0.95766 0.00582 0.0
O269 O 0.5203 0.98594 0.03039 0.0
O270 O 0.4603 0.00087 0.04022 0.0
O271 O 0.52103 0.00092 0.06129 0.0
C272 C 0.54052 0.02304 0.99805 0.0
C273 C 0.48342 0.99496 0.93022 0.0
C274 C 0.48543 0.00282 0.89456 0.0
C275 C 0.49313 0.01286 0.91401 0.0
C276 C 0.46795 0.97451 0.89176 0.0
C277 C 0.46583 0.96694 0.92701 0.0
C278 C 0.4582 0.95681 0.90787 0.0
C279 C 0.48437 0.043 0.00398 0.0
C280 C 0.49209 0.00567 0.95036 0.0
C281 C 0.41287 0.87812 0.96805 0.0
C282 C 0.39237 0.88541 0.97137 0.0
C283 C 0.45259 0.98297 0.02629 0.0
C284 C 0.51186 0.00992 0.09366 0.0
C285 C 0.50086 0.99292 0.11029 0.0
C286 C 0.50993 0.00344 0.12949 0.0
C287 C 0.52993 0.03132 0.13164 0.0
C288 C 0.53199 0.03748 0.09626 0.0
C289 C 0.54088 0.0481 0.11515 0.0
C290 C 0.5074 0.96244 0.02065 0.0
C291 C 0.50204 0.99893 0.07369 0.0
H292 H 0.50642 0.03456 0.9166 0.0
H293 H 0.46206 0.96592 0.87708 0.0
H294 H 0.4581 0.9529 0.93926 0.0
H295 H 0.44478 0.93511 0.90549 0.0
H296 H 0.48556 0.97153 0.10821 0.0
H297 H 0.53694 0.04031 0.14613 0.0
H298 H 0.54082 0.05081 0.08371 0.0
H299 H 0.55628 0.06947 0.11703 0.0
Eu300 Eu 0.0218 0.50588 0.98668 0.0
C301 C 0.92186 0.46366 0.04404 0.0
C302 C 0.91181 0.50075 0.04414 0.0
C303 C 0.87409 0.4542 0.04892 0.0
C304 C 0.93106 0.49129 0.04215 0.0
C305 C 0.89342 0.44497 0.04802 0.0
C306 C 0.88328 0.48203 0.04705 0.0
C307 C 0.90573 0.40993 0.05258 0.0
N308 N 0.94097 0.45527 0.04343 0.0
C309 C 0.93367 0.42924 0.04883 0.0
C310 C 0.8854 0.4177 0.05179 0.0
Eu311 Eu 0.98743 0.48849 0.03515 0.0
N312 N 0.95887 0.50902 0.03933 0.0
C313 C 0.96877 0.53658 0.03997 0.0
C314 C 0.92183 0.52881 0.04371 0.0
C315 C 0.95044 0.54677 0.04187 0.0
H316 H 0.94946 0.42327 0.04959 0.0
H317 H 0.95845 0.56857 0.0419 0.0
H318 H 0.86824 0.48895 0.04843 0.0
H319 H 0.89994 0.38911 0.05614 0.0
H320 H 0.99062 0.55125 0.03861 0.0
H321 H 0.0534 0.42942 0.97505 0.0
H322 H 0.90776 0.53685 0.04535 0.0
H323 H 0.05948 0.57352 0.97918 0.0
H324 H 0.02016 0.44607 0.9796 0.0
H325 H 0.10927 0.60932 0.97557 0.0
H326 H 0.85214 0.4401 0.05173 0.0
H327 H 0.10431 0.46202 0.97471 0.0
H328 H 0.1436 0.51067 0.97568 0.0
H329 H 0.86377 0.40276 0.05486 0.0
H330 H 0.15886 0.55963 0.97611 0.0
N331 N 0.0519 0.48779 0.98203 0.0
C332 C 0.04229 0.46059 0.97937 0.0
C333 C 0.08983 0.46951 0.97673 0.0
C334 C 0.09949 0.49747 0.97858 0.0
C335 C 0.06109 0.45104 0.9768 0.0
C336 C 0.07972 0.50614 0.981 0.0
H337 H 0.14619 0.5966 0.97574 0.0
N338 N 0.06857 0.5413 0.98199 0.0
C339 C 0.10367 0.58815 0.97717 0.0
C340 C 0.08834 0.53372 0.98105 0.0
C341 C 0.07558 0.56792 0.97913 0.0
C342 C 0.12446 0.58089 0.97734 0.0
C343 C 0.11689 0.55336 0.97887 0.0
O344 O 0.01849 0.52563 0.96005 0.0
O345 O 0.98482 0.50041 0.00411 0.0
O346 O 0.9621 0.45155 0.0158 0.0
O347 O 0.98657 0.46132 0.98592 0.0
O348 O 1.0047 0.53507 0.987 0.0
O349 O 0.01072 0.48404 0.95857 0.0
O350 O 0.0208 0.50578 0.05741 0.0
O351 O 0.02176 0.49081 0.01683 0.0
O352 O 0.05094 0.53488 0.00977 0.0
O353 O 0.01948 0.53411 0.03281 0.0
O354 O 1.00159 0.45679 0.03402 0.0
O355 O 0.97837 0.47893 0.06645 0.0
C356 C 0.98353 0.52094 0.99835 0.0
C357 C 0.02902 0.51133 0.93014 0.0
C358 C 0.02856 0.50907 0.89425 0.0
C359 C 0.01423 0.50264 0.91233 0.0
C360 C 0.05797 0.52425 0.89421 0.0
C361 C 0.05837 0.52628 0.92989 0.0
C362 C 0.07275 0.53268 0.91199 0.0
C363 C 0.96576 0.44496 0.99776 0.0
C364 C 0.0133 0.50497 0.94869 0.0
C365 C 0.13679 0.54484 0.97759 0.0
C366 C 0.1281 0.51695 0.97737 0.0
C367 C 0.02227 0.46971 0.02202 0.0
C368 C 0.01397 0.47725 0.08459 0.0
C369 C 0.02961 0.49007 0.10157 0.0
C370 C 0.03862 0.47622 0.11415 0.0
C371 C 0.03258 0.44967 0.10917 0.0
C372 C 0.00739 0.45042 0.08019 0.0
C373 C 0.01704 0.43691 0.09227 0.0
C374 C 0.04469 0.54587 0.02467 0.0
C375 C 1.00443 0.49206 0.07188 0.0
H376 H 0.99153 0.49128 0.91253 0.0
H377 H 0.06948 0.52933 0.88047 0.0
H378 H 0.07019 0.53314 0.94342 0.0
H379 H 0.09541 0.54425 0.91189 0.0
H380 H 0.03401 0.5105 0.10526 0.0
H381 H 0.03966 0.43872 0.11844 0.0
H382 H 0.99454 0.43968 0.06762 0.0
H383 H 0.01215 0.41633 0.08866 0.0
Eu384 Eu 0.51877 0.50111 0.03737 0.0
C385 C 0.46162 0.53853 0.97649 0.0
C386 C 0.4138 0.50099 0.97692 0.0
C387 C 0.42307 0.54703 0.97063 0.0
C388 C 0.44283 0.51096 0.97905 0.0
C389 C 0.45194 0.55668 0.97163 0.0
C390 C 0.40404 0.51924 0.97324 0.0
C391 C 0.5 0.59192 0.96664 0.0
N392 N 0.4894 0.54733 0.97734 0.0
C393 C 0.50854 0.57314 0.97136 0.0
C394 C 0.47159 0.5838 0.96716 0.0
Eu395 Eu 0.50249 0.51525 0.9875 0.0
N396 N 0.4529 0.49373 0.98263 0.0
C397 C 0.43492 0.46608 0.98247 0.0
C398 C 0.3954 0.4729 0.97798 0.0
C399 C 0.40606 0.45538 0.98046 0.0
H400 H 0.53054 0.57938 0.9709 0.0
H401 H 0.39201 0.43353 0.98086 0.0
H402 H 0.38183 0.51194 0.97181 0.0
H403 H 0.51532 0.6126 0.96259 0.0
H404 H 0.44209 0.45174 0.98431 0.0
H405 H 0.62957 0.57786 0.04506 0.0
H406 H 0.37303 0.46447 0.97633 0.0
H407 H 0.48657 0.43443 0.04823 0.0
H408 H 0.57919 0.56126 0.04105 0.0
H409 H 0.49912 0.3988 0.05491 0.0
H410 H 0.41526 0.56073 0.96719 0.0
H411 H 0.6464 0.54502 0.04912 0.0
H412 H 0.63512 0.49632 0.05229 0.0
H413 H 0.46498 0.59834 0.96339 0.0
H414 H 0.5997 0.44761 0.05482 0.0
N415 N 0.56743 0.51926 0.04243 0.0
C416 C 0.58612 0.54663 0.04291 0.0
C417 C 0.62421 0.53756 0.04736 0.0
C418 C 0.60483 0.50958 0.04777 0.0
C419 C 0.61477 0.55617 0.04514 0.0
C420 C 0.57616 0.50096 0.04544 0.0
H421 H 0.54894 0.41109 0.05604 0.0
N422 N 0.52884 0.46615 0.04524 0.0
C423 C 0.51539 0.41973 0.05258 0.0
C424 C 0.55628 0.47356 0.04679 0.0
C425 C 0.50835 0.43989 0.0489 0.0
C426 C 0.54355 0.42675 0.05316 0.0
C427 C 0.56442 0.45401 0.05059 0.0
O428 O 0.49487 0.48451 0.06447 0.0
O429 O 0.4872 0.50473 0.0186 0.0
O430 O 0.51349 0.5528 0.00579 0.0
O431 O 0.5297 0.54543 0.03583 0.0
O432 O 0.47195 0.47126 0.03695 0.0
O433 O 0.52984 0.52597 0.06411 0.0
O434 O 0.51888 0.49697 0.9666 0.0
O435 O 0.53456 0.51428 0.00681 0.0
O436 O 0.51801 0.47026 0.01612 0.0
O437 O 0.48832 0.47016 0.99168 0.0
O438 O 0.54854 0.54787 0.98909 0.0
O439 O 0.5046 0.52346 0.95577 0.0
C440 C 0.465 0.48423 0.02462 0.0
C441 C 0.51937 0.50227 0.09437 0.0
C442 C 0.51765 0.50523 0.13025 0.0
C443 C 0.5099 0.50945 0.11134 0.0
C444 C 0.53513 0.49381 0.13188 0.0
C445 C 0.5369 0.49107 0.09632 0.0
C446 C 0.5447 0.48685 0.115 0.0
C447 C 0.52455 0.5606 0.02358 0.0
C448 C 0.51062 0.50644 0.0748 0.0
C449 C 0.593 0.46236 0.05213 0.0
C450 C 0.61317 0.4901 0.05072 0.0
C451 C 0.55642 0.53542 1.00122 0.0
C452 C 0.54219 0.52382 0.93876 0.0
C453 C 0.54408 0.51112 0.92142 0.0
C454 C 0.56775 0.52451 0.9091 0.0
C455 C 0.59001 0.5501 0.9149 0.0
C456 C 0.56414 0.54999 0.94364 0.0
C457 C 0.58813 0.56272 0.93202 0.0
C458 C 0.50156 0.45907 1.0007 0.0
C459 C 0.51708 0.50987 0.95136 0.0
H460 H 0.49621 0.51797 0.1098 0.0
H461 H 0.54174 0.49063 0.14621 0.0
H462 H 0.54452 0.48557 0.08347 0.0
H463 H 0.55826 0.47822 0.1164 0.0
H464 H 0.52678 0.49134 0.91722 0.0
H465 H 0.60874 0.56059 0.90599 0.0
H466 H 0.56279 0.56096 0.95617 0.0
H467 H 0.60513 0.58269 0.93612 0.0
Eu468 Eu 0.15349 0.32446 0.32242 0.0
C469 C 0.20933 0.41798 0.38464 0.0
C470 C 0.25818 0.43033 0.38457 0.0
C471 C 0.24531 0.46488 0.39121 0.0
C472 C 0.22963 0.41075 0.3821 0.0
C473 C 0.21686 0.44499 0.38964 0.0
C474 C 0.26594 0.45756 0.38868 0.0
C475 C 0.1676 0.43012 0.3927 0.0
N476 N 0.18209 0.39823 0.38311 0.0
C477 C 0.1612 0.40359 0.38779 0.0
C478 C 0.19555 0.451 0.39337 0.0
Eu479 Eu 0.17285 0.35441 0.37298 0.0
N480 N 0.22139 0.38429 0.37807 0.0
C481 C 0.24048 0.37562 0.37773 0.0
C482 C 0.27798 0.42181 0.38326 0.0
C483 C 0.26905 0.39427 0.38007 0.0
H484 H 0.13957 0.38752 0.38705 0.0
H485 H 0.28416 0.3874 0.37932 0.0
H486 H 0.28779 0.47297 0.39036 0.0
H487 H 0.15098 0.43446 0.39588 0.0
H488 H 0.23391 0.35445 0.37512 0.0
H489 H 0.04297 0.29221 0.31202 0.0
H490 H 0.30009 0.43618 0.38515 0.0
H491 H 0.18698 0.29081 0.31 0.0
H492 H 0.09298 0.32486 0.31778 0.0
H493 H 0.17562 0.24363 0.30217 0.0
H494 H 0.25155 0.48583 0.39481 0.0
H495 H 0.02677 0.24309 0.30773 0.0
H496 H 0.03891 0.20593 0.30422 0.0
H497 H 0.20045 0.47153 0.3972 0.0
H498 H 0.07506 0.19268 0.30155 0.0
N499 N 0.10513 0.29462 0.31673 0.0
C500 C 0.0863 0.30355 0.31573 0.0
C501 C 0.04881 0.25737 0.31011 0.0
C502 C 0.06845 0.24857 0.31013 0.0
C503 C 0.05788 0.28508 0.31248 0.0
C504 C 0.09689 0.26803 0.31324 0.0
H505 H 0.12614 0.20668 0.30044 0.0
N506 N 0.14441 0.28038 0.3131 0.0
C507 C 0.15898 0.24813 0.30478 0.0
C508 C 0.11717 0.26065 0.31141 0.0
C509 C 0.16535 0.27481 0.30912 0.0
C510 C 0.13102 0.22731 0.30389 0.0
C511 C 0.10969 0.23352 0.30685 0.0
O512 O 0.1775 0.33471 0.29505 0.0
O513 O 0.18604 0.35648 0.34168 0.0
O514 O 0.17066 0.38513 0.35317 0.0
O515 O 0.14127 0.35717 0.32798 0.0
O516 O 0.20015 0.33918 0.32133 0.0
O517 O 0.14234 0.34152 0.29738 0.0
O518 O 0.14948 0.34393 0.40065 0.0
O519 O 0.14047 0.3231 0.35347 0.0
O520 O 0.154 0.29338 0.34295 0.0
O521 O 0.18512 0.32192 0.36705 0.0
O522 O 0.12577 0.33869 0.37443 0.0
O523 O 0.18443 0.33693 0.3975 0.0
C524 C 0.20782 0.35758 0.33487 0.0
C525 C 0.15286 0.33141 0.26577 0.0
C526 C 0.15606 0.33866 0.23005 0.0
C527 C 0.16367 0.34897 0.24942 0.0
C528 C 0.13727 0.31059 0.22741 0.0
C529 C 0.13414 0.30355 0.26274 0.0
C530 C 0.12639 0.29324 0.24364 0.0
C531 C 0.15396 0.38061 0.33789 0.0
C532 C 0.16164 0.3422 0.28588 0.0
C533 C 0.08127 0.2137 0.30486 0.0
C534 C 0.06069 0.22124 0.30642 0.0
C535 C 0.11837 0.32122 0.36023 0.0
C536 C 0.17503 0.34706 0.42943 0.0
C537 C 0.16513 0.32943 0.44578 0.0
C538 C 0.17397 0.33957 0.46508 0.0
C539 C 0.19273 0.36769 0.46762 0.0
C540 C 0.19384 0.37491 0.43238 0.0
C541 C 0.20259 0.38513 0.45138 0.0
C542 C 0.17139 0.29807 0.35782 0.0
C543 C 0.16553 0.33631 0.40939 0.0
H544 H 0.1783 0.37049 0.25176 0.0
H545 H 0.13069 0.30207 0.21275 0.0
H546 H 0.1256 0.28979 0.27512 0.0
H547 H 0.11189 0.27171 0.24141 0.0
H548 H 0.15084 0.30784 0.44342 0.0
H549 H 0.19955 0.37634 0.48221 0.0
H550 H 0.2017 0.38874 0.42001 0.0
H551 H 0.21699 0.4067 0.45355 0.0
Eu552 Eu 0.69056 0.83369 0.3203 0.0
C553 C 0.59125 0.79588 0.37864 0.0
C554 C 0.5786 0.83117 0.37807 0.0
C555 C 0.54307 0.78418 0.38472 0.0
C556 C 0.59867 0.82288 0.37576 0.0
C557 C 0.56347 0.7763 0.38348 0.0
C558 C 0.55065 0.8116 0.38213 0.0
C559 C 0.57869 0.74325 0.38758 0.0
N560 N 0.61158 0.78907 0.37783 0.0
C561 C 0.60603 0.76349 0.38303 0.0
C562 C 0.55724 0.74959 0.38757 0.0
Eu563 Eu 0.65697 0.8241 0.36893 0.0
N564 N 0.62586 0.84131 0.37185 0.0
C565 C 0.63463 0.86854 0.37103 0.0
C566 C 0.58739 0.85898 0.37683 0.0
C567 C 0.61552 0.87774 0.37332 0.0
H568 H 0.62259 0.75854 0.38297 0.0
H569 H 0.62254 0.89932 0.37248 0.0
H570 H 0.53487 0.81754 0.38369 0.0
H571 H 0.5742 0.7228 0.39112 0.0
H572 H 0.65632 0.88329 0.3684 0.0
H573 H 0.72596 0.75911 0.31803 0.0
H574 H 0.57278 0.86625 0.37906 0.0
H575 H 0.72449 0.89891 0.30551 0.0
H576 H 0.6918 0.77477 0.32143 0.0
H577 H 0.77277 0.93475 0.29718 0.0
H578 H 0.52156 0.7694 0.38826 0.0
H579 H 0.77572 0.79242 0.31168 0.0
H580 H 0.81335 0.84118 0.3068 0.0
H581 H 0.53612 0.73392 0.39125 0.0
H582 H 0.82625 0.88911 0.30159 0.0
N583 N 0.72202 0.8168 0.31783 0.0
C584 C 0.71347 0.78963 0.31889 0.0
C585 C 0.76093 0.79953 0.3136 0.0
C586 C 0.76949 0.82727 0.31209 0.0
C587 C 0.73281 0.78063 0.31699 0.0
C588 C 0.7492 0.83535 0.31403 0.0
H589 H 0.81119 0.92412 0.29771 0.0
N590 N 0.73589 0.86881 0.31135 0.0
C591 C 0.76847 0.91447 0.30107 0.0
C592 C 0.75642 0.86224 0.31088 0.0
C593 C 0.7412 0.89417 0.30573 0.0
C594 C 0.79012 0.90841 0.30146 0.0
C595 C 0.78415 0.8819 0.30599 0.0
O596 O 0.68148 0.84505 0.29166 0.0
O597 O 0.6555 0.83285 0.33716 0.0
O598 O 0.62667 0.79047 0.34883 0.0
O599 O 0.65725 0.78895 0.32588 0.0
O600 O 0.67377 0.86307 0.3164 0.0
O601 O 0.67719 0.80509 0.29556 0.0
O602 O 0.66512 0.81206 0.39763 0.0
O603 O 0.69199 0.82496 0.35209 0.0
O604 O 0.72082 0.8675 0.34019 0.0
O605 O 0.69063 0.86886 0.36359 0.0
O606 O 0.67377 0.79473 0.3728 0.0
O607 O 0.67151 0.85284 0.39356 0.0
C608 C 0.654 0.85224 0.32927 0.0
C609 C 0.69061 0.82547 0.26412 0.0
C610 C 0.68809 0.82383 0.22817 0.0
C611 C 0.67504 0.81988 0.24667 0.0
C612 C 0.71707 0.83341 0.22749 0.0
C613 C 0.71935 0.83465 0.26313 0.0
C614 C 0.7325 0.83863 0.2449 0.0
C615 C 0.63249 0.77797 0.33471 0.0
C616 C 0.67666 0.82243 0.28313 0.0
C617 C 0.80476 0.87425 0.30513 0.0
C618 C 0.79741 0.84696 0.30808 0.0
C619 C 0.69366 0.80569 0.36003 0.0
C620 C 0.65791 0.83313 0.42515 0.0
C621 C 0.67386 0.83852 0.44238 0.0
C622 C 0.66156 0.83605 0.46097 0.0
C623 C 0.63301 0.82805 0.46208 0.0
C624 C 0.62952 0.82538 0.42647 0.0
C625 C 0.61714 0.82283 0.44488 0.0
C626 C 0.71531 0.87981 0.35462 0.0
C627 C 0.6712 0.83513 0.40603 0.0
H628 H 0.65271 0.81225 0.24759 0.0
H629 H 0.72788 0.83714 0.21353 0.0
H630 H 0.73163 0.83884 0.27638 0.0
H631 H 0.75476 0.84594 0.24425 0.0
H632 H 0.69575 0.84425 0.44132 0.0
H633 H 0.62309 0.82618 0.47623 0.0
H634 H 0.61695 0.82125 0.41337 0.0
H635 H 0.5952 0.81682 0.44581 0.0
Eu636 Eu 0.19263 0.84092 0.37151 0.0
C637 C 0.1364 0.88093 0.31201 0.0
C638 C 0.08794 0.84468 0.31298 0.0
C639 C 0.099 0.89127 0.30669 0.0
C640 C 0.11679 0.85359 0.31484 0.0
C641 C 0.12767 0.89984 0.30726 0.0
C642 C 0.07919 0.86374 0.30951 0.0
C643 C 0.17603 0.9335 0.30122 0.0
N644 N 0.16398 0.88869 0.31234 0.0
C645 C 0.18363 0.914 0.30582 0.0
C646 C 0.14797 0.92656 0.30235 0.0
Eu647 Eu 0.17531 0.85524 0.32211 0.0
N648 N 0.12584 0.8355 0.31819 0.0
C649 C 0.10702 0.80805 0.31801 0.0
C650 C 0.0687 0.81676 0.31399 0.0
C651 C 0.07832 0.79838 0.31622 0.0
H652 H 0.20537 0.9194 0.30499 0.0
H653 H 0.0636 0.77667 0.31657 0.0
H654 H 0.05713 0.85726 0.30833 0.0
H655 H 0.19181 0.95384 0.29682 0.0
H656 H 0.11345 0.79311 0.31963 0.0
H657 H 0.30381 0.91671 0.37852 0.0
H658 H 0.04646 0.80912 0.31238 0.0
H659 H 0.15989 0.77433 0.38263 0.0
H660 H 0.25352 0.90064 0.37468 0.0
H661 H 0.17191 0.73831 0.38917 0.0
H662 H 0.09194 0.90558 0.30335 0.0
H663 H 0.3201 0.88345 0.3825 0.0
H664 H 0.30829 0.83456 0.38542 0.0
H665 H 0.14209 0.94165 0.29865 0.0
H666 H 0.27246 0.786 0.38809 0.0
N667 N 0.24129 0.85853 0.37599 0.0
C668 C 0.26023 0.88584 0.37644 0.0
C669 C 0.29795 0.87621 0.38072 0.0
C670 C 0.27834 0.8483 0.38108 0.0
C671 C 0.28883 0.89506 0.37858 0.0
C672 C 0.24973 0.83998 0.37887 0.0
H673 H 0.22156 0.74996 0.38976 0.0
N674 N 0.20225 0.8056 0.3791 0.0
C675 C 0.18833 0.75912 0.38664 0.0
C676 C 0.22962 0.81267 0.38034 0.0
C677 C 0.18159 0.7795 0.38303 0.0
C678 C 0.21639 0.76577 0.38691 0.0
C679 C 0.23747 0.7929 0.3841 0.0
O680 O 0.16894 0.82475 0.39873 0.0
O681 O 0.16087 0.84506 0.35338 0.0
O682 O 0.18775 0.89323 0.34017 0.0
O683 O 0.2041 0.88548 0.37002 0.0
O684 O 0.14569 0.81164 0.3718 0.0
O685 O 0.20485 0.86567 0.39836 0.0
O686 O 0.19289 0.83855 0.30085 0.0
O687 O 0.2076 0.85366 0.34074 0.0
O688 O 0.19011 0.80935 0.35009 0.0
O689 O 0.15976 0.80991 0.32651 0.0
O690 O 0.22175 0.88698 0.32258 0.0
O691 O 0.17224 0.85964 0.29026 0.0
C692 C 0.13869 0.82482 0.35971 0.0
C693 C 0.19384 0.84171 0.42857 0.0
C694 C 0.19136 0.84333 0.46448 0.0
C695 C 0.18419 0.84845 0.44565 0.0
C696 C 0.20847 0.83149 0.46593 0.0
C697 C 0.21105 0.83012 0.43033 0.0
C698 C 0.2183 0.82504 0.44894 0.0
C699 C 0.1992 0.90093 0.35786 0.0
C700 C 0.18534 0.84644 0.40909 0.0
C701 C 0.26599 0.80093 0.38544 0.0
C702 C 0.28639 0.82858 0.38394 0.0
C703 C 0.22953 0.87448 0.33478 0.0
C704 C 0.20982 0.86348 0.27128 0.0
C705 C 0.21003 0.8512 0.25329 0.0
C706 C 0.23131 0.8657 0.23934 0.0
C707 C 0.25281 0.89227 0.24393 0.0
C708 C 0.23113 0.89029 0.27528 0.0
C709 C 0.25266 0.90442 0.26179 0.0
C710 C 0.17263 0.79819 0.33515 0.0
C711 C 0.18699 0.84844 0.2855 0.0
H712 H 0.17076 0.85728 0.44427 0.0
H713 H 0.21456 0.82758 0.48022 0.0
H714 H 0.21881 0.82495 0.41739 0.0
H715 H 0.23158 0.81608 0.45021 0.0
H716 H 0.19327 0.83073 0.24995 0.0
H717 H 0.26973 0.9037 0.23366 0.0
H718 H 0.2311 0.90058 0.28864 0.0
H719 H 0.26914 0.92499 0.2651 0.0
Eu720 Eu 0.82318 0.65582 0.65307 0.0
C721 C 0.88013 0.74987 0.71352 0.0
C722 C 0.92847 0.76028 0.71351 0.0
C723 C 0.91769 0.79649 0.71901 0.0
C724 C 0.89963 0.74129 0.71136 0.0
C725 C 0.88898 0.77743 0.71784 0.0
C726 C 0.93738 0.78794 0.71689 0.0
C727 C 0.84039 0.76492 0.72146 0.0
N728 N 0.85247 0.73109 0.71241 0.0
C729 C 0.8326 0.73784 0.71726 0.0
C730 C 0.86869 0.78489 0.72142 0.0
Eu731 Eu 0.8413 0.68653 0.70308 0.0
N732 N 0.89048 0.71437 0.70794 0.0
C733 C 0.90904 0.70499 0.70817 0.0
C734 C 0.94755 0.75087 0.71264 0.0
C735 C 0.93776 0.72308 0.71024 0.0
H736 H 0.81068 0.72242 0.71713 0.0
H737 H 0.95234 0.71555 0.70994 0.0
H738 H 0.95944 0.80279 0.71835 0.0
H739 H 0.82458 0.77038 0.72466 0.0
H740 H 0.90232 0.68372 0.7064 0.0
H741 H 0.7117 0.62104 0.64464 0.0
H742 H 0.96982 0.76478 0.71433 0.0
H743 H 0.85723 0.62243 0.64165 0.0
H744 H 0.76176 0.65473 0.64873 0.0
H745 H 0.84643 0.57498 0.63546 0.0
H746 H 0.92488 0.81779 0.72208 0.0
H747 H 0.69632 0.57195 0.64176 0.0
H748 H 0.70923 0.53519 0.63958 0.0
H749 H 0.87468 0.80587 0.72472 0.0
H750 H 0.74592 0.52263 0.63705 0.0
N751 N 0.77475 0.62508 0.64838 0.0
C752 C 0.75544 0.63343 0.64735 0.0
C753 C 0.71837 0.58665 0.64354 0.0
C754 C 0.73841 0.57836 0.64366 0.0
C755 C 0.72698 0.61436 0.64505 0.0
C756 C 0.76685 0.5984 0.64583 0.0
H757 H 0.79717 0.53739 0.63516 0.0
N758 N 0.81458 0.6115 0.64514 0.0
C759 C 0.82964 0.57931 0.63793 0.0
C760 C 0.78742 0.59136 0.64416 0.0
C761 C 0.83569 0.60611 0.64132 0.0
C762 C 0.80181 0.55813 0.63784 0.0
C763 C 0.78025 0.56407 0.64063 0.0
O764 O 0.84645 0.66406 0.62548 0.0
O765 O 0.85527 0.68924 0.67193 0.0
O766 O 0.83532 0.71528 0.68333 0.0
O767 O 0.81046 0.68835 0.65625 0.0
O768 O 0.87015 0.67186 0.65227 0.0
O769 O 0.81121 0.67086 0.62726 0.0
O770 O 0.82562 0.6527 0.72429 0.0
O771 O 0.80888 0.65515 0.68376 0.0
O772 O 0.82472 0.62618 0.67451 0.0
O773 O 0.85598 0.65573 0.69812 0.0
O774 O 0.795 0.67407 0.70241 0.0
O775 O 0.84096 0.69347 0.73487 0.0
C776 C 0.87734 0.69076 0.66537 0.0
C777 C 0.82133 0.6592 0.59606 0.0
C778 C 0.82139 0.66555 0.5603 0.0
C779 C 0.82955 0.67646 0.57949 0.0
C780 C 0.80493 0.63702 0.55811 0.0
C781 C 0.80475 0.63093 0.59348 0.0
C782 C 0.79664 0.61994 0.57458 0.0
C783 C 0.82059 0.71093 0.667 0.0
C784 C 0.83035 0.67093 0.61592 0.0
C785 C 0.75189 0.54378 0.63955 0.0
C786 C 0.731 0.55093 0.64101 0.0
C787 C 0.78705 0.65467 0.68961 0.0
C788 C 0.80529 0.65787 0.75361 0.0
C789 C 0.80647 0.64638 0.77179 0.0
C790 C 0.78456 0.63803 0.78561 0.0
C791 C 0.76107 0.64038 0.78065 0.0
C792 C 0.78189 0.66062 0.74933 0.0
C793 C 0.75979 0.65155 0.76264 0.0
C794 C 0.84232 0.63154 0.68934 0.0
C795 C 0.82892 0.66784 0.73961 0.0
H796 H 0.84204 0.69834 0.58162 0.0
H797 H 0.79871 0.62779 0.54363 0.0
H798 H 0.79818 0.61737 0.60605 0.0
H799 H 0.78399 0.59806 0.57267 0.0
H800 H 0.82473 0.64474 0.77541 0.0
H801 H 0.74369 0.63367 0.79079 0.0
H802 H 0.78069 0.67014 0.73592 0.0
H803 H 0.74174 0.65353 0.7591 0.0
Eu804 Eu 0.36014 0.16992 0.65506 0.0
C805 C 0.26118 0.13357 0.71421 0.0
C806 C 0.24948 0.16939 0.7117 0.0
C807 C 0.21351 0.12344 0.7205 0.0
C808 C 0.26905 0.16035 0.70998 0.0
C809 C 0.23352 0.115 0.72008 0.0
C810 C 0.22152 0.15064 0.71641 0.0
C811 C 0.24849 0.08252 0.72766 0.0
N812 N 0.28122 0.12637 0.71438 0.0
C813 C 0.2757 0.10185 0.72204 0.0
C814 C 0.22716 0.08896 0.72633 0.0
Eu815 Eu 0.32669 0.15962 0.70411 0.0
N816 N 0.29633 0.17803 0.70575 0.0
C817 C 0.30571 0.20536 0.70422 0.0
C818 C 0.25886 0.19721 0.70947 0.0
C819 C 0.2871 0.21528 0.7058 0.0
H820 H 0.29224 0.09689 0.7231 0.0
H821 H 0.29462 0.23689 0.7043 0.0
H822 H 0.20613 0.15715 0.71756 0.0
H823 H 0.24401 0.06276 0.73306 0.0
H824 H 0.32745 0.2197 0.70144 0.0
H825 H 0.38923 0.09053 0.65535 0.0
H826 H 0.24467 0.20508 0.7112 0.0
H827 H 0.39652 0.23278 0.63641 0.0
H828 H 0.35742 0.109 0.6579 0.0
H829 H 0.4454 0.26625 0.62732 0.0
H830 H 0.19208 0.1094 0.72476 0.0
H831 H 0.43952 0.12134 0.64884 0.0
H832 H 0.47905 0.16886 0.64262 0.0
H833 H 0.20615 0.07408 0.73092 0.0
H834 H 0.49465 0.21705 0.63588 0.0
N835 N 0.38945 0.15034 0.65373 0.0
C836 C 0.37933 0.12288 0.65527 0.0
C837 C 0.42576 0.12975 0.65038 0.0
C838 C 0.43592 0.15773 0.64819 0.0
C839 C 0.39734 0.11225 0.65386 0.0
C840 C 0.41695 0.16751 0.64976 0.0
H841 H 0.48222 0.25354 0.62991 0.0
N842 N 0.40627 0.20257 0.64553 0.0
C843 C 0.44023 0.24626 0.63268 0.0
C844 C 0.42572 0.19459 0.64586 0.0
C845 C 0.41267 0.22736 0.63787 0.0
C846 C 0.46096 0.23904 0.63424 0.0
C847 C 0.45367 0.21266 0.64031 0.0
O848 O 0.3522 0.18253 0.62646 0.0
O849 O 0.32432 0.16733 0.6721 0.0
O850 O 0.29755 0.12227 0.68624 0.0
O851 O 0.32519 0.12558 0.65898 0.0
O852 O 0.34221 0.19815 0.65148 0.0
O853 O 0.34667 0.14208 0.62987 0.0
O854 O 0.33507 0.14784 0.73291 0.0
O855 O 0.36254 0.1622 0.68708 0.0
O856 O 0.38862 0.20762 0.6728 0.0
O857 O 0.3604 0.20424 0.69968 0.0
O858 O 0.34456 0.13133 0.7076 0.0
O859 O 0.3414 0.18847 0.72863 0.0
C860 C 0.32222 0.1864 0.66415 0.0
C861 C 0.36086 0.16293 0.59866 0.0
C862 C 0.35863 0.16166 0.56269 0.0
C863 C 0.34558 0.15818 0.58115 0.0
C864 C 0.38736 0.17009 0.56212 0.0
C865 C 0.3893 0.17078 0.59777 0.0
C866 C 0.40249 0.17446 0.57959 0.0
C867 C 0.30254 0.11218 0.67012 0.0
C868 C 0.34685 0.15995 0.61764 0.0
C869 C 0.47303 0.20341 0.63992 0.0
C870 C 0.46413 0.17595 0.64374 0.0
C871 C 0.36463 0.14312 0.69501 0.0
C872 C 0.32741 0.16903 0.76021 0.0
C873 C 0.34238 0.17254 0.7777 0.0
C874 C 0.32996 0.171 0.79612 0.0
C875 C 0.30218 0.16571 0.79675 0.0
C876 C 0.29982 0.164 0.7611 0.0
C877 C 0.28725 0.16224 0.77931 0.0
C878 C 0.38303 0.2178 0.68858 0.0
C879 C 0.34101 0.17089 0.74123 0.0
H880 H 0.32342 0.15141 0.58198 0.0
H881 H 0.39822 0.17348 0.54821 0.0
H882 H 0.40129 0.17405 0.61106 0.0
H883 H 0.42453 0.18077 0.57902 0.0
H884 H 0.3639 0.17697 0.77691 0.0
H885 H 0.29196 0.16409 0.81073 0.0
H886 H 0.28808 0.16161 0.74781 0.0
H887 H 0.26591 0.15825 0.7799 0.0
Eu888 Eu 0.86136 0.1745 0.7042 0.0
C889 C 0.80992 0.21904 0.64221 0.0
C890 C 0.76006 0.18735 0.64421 0.0
C891 C 0.7769 0.23443 0.63468 0.0
C892 C 0.78798 0.19322 0.64636 0.0
C893 C 0.80461 0.23967 0.63564 0.0
C894 C 0.75465 0.2083 0.63898 0.0
C895 C 0.85404 0.26776 0.62887 0.0
N896 N 0.8364 0.22331 0.64302 0.0
C897 C 0.85825 0.24669 0.63557 0.0
C898 C 0.8272 0.26448 0.62935 0.0
Eu899 Eu 0.84183 0.1868 0.65456 0.0
N900 N 0.79391 0.17335 0.65109 0.0
C901 C 0.773 0.14677 0.6523 0.0
C902 C 0.73846 0.16038 0.64656 0.0
C903 C 0.74498 0.13995 0.6504 0.0
H904 H 0.87904 0.24933 0.63522 0.0
H905 H 0.72844 0.11894 0.65185 0.0
H906 H 0.73334 0.20427 0.63753 0.0
H907 H 0.87152 0.28655 0.62346 0.0
H908 H 0.7778 0.1308 0.65522 0.0
H909 H 0.97263 0.25058 0.70944 0.0
H910 H 0.71678 0.15498 0.64476 0.0
H911 H 0.82885 0.10852 0.71699 0.0
H912 H 0.92229 0.23428 0.70559 0.0
H913 H 0.84099 0.07285 0.72463 0.0
H914 H 0.77241 0.25013 0.62993 0.0
H915 H 0.98898 0.21759 0.7148 0.0
H916 H 0.97726 0.1689 0.71913 0.0
H917 H 0.824 0.28082 0.62413 0.0
H918 H 0.9415 0.12051 0.72293 0.0
N919 N 0.9101 0.19229 0.70826 0.0
C920 C 0.92904 0.2196 0.70792 0.0
C921 C 0.96682 0.21025 0.71298 0.0
C922 C 0.94724 0.18237 0.71402 0.0
C923 C 0.95766 0.22895 0.71006 0.0
C924 C 0.9186 0.17393 0.7118 0.0
H925 H 0.89065 0.08454 0.72521 0.0
N926 N 0.87114 0.13958 0.71278 0.0
C927 C 0.85736 0.09352 0.72159 0.0
C928 C 0.89852 0.14671 0.71398 0.0
C929 C 0.85056 0.1137 0.71735 0.0
C930 C 0.88542 0.10019 0.72185 0.0
C931 C 0.90644 0.12716 0.71839 0.0
O932 O 0.8382 0.16031 0.73179 0.0
O933 O 0.82901 0.17725 0.68616 0.0
O934 O 0.84951 0.22329 0.67286 0.0
O935 O 0.87307 0.2191 0.70035 0.0
O936 O 0.81444 0.14529 0.70583 0.0
O937 O 0.87454 0.20091 0.73019 0.0
O938 O 0.86691 0.1919 0.62834 0.0
O939 O 0.87412 0.18461 0.67291 0.0
O940 O 0.85787 0.14179 0.68363 0.0
O941 O 0.8267 0.14162 0.66041 0.0
O942 O 0.88891 0.21575 0.65267 0.0
O943 O 0.82329 0.16093 0.62843 0.0
C944 C 0.807 0.15759 0.69325 0.0
C945 C 0.86399 0.1786 0.76105 0.0
C946 C 0.86071 0.18023 0.79692 0.0
C947 C 0.85324 0.1845 0.77792 0.0
C948 C 0.87919 0.16994 0.79867 0.0
C949 C 0.88254 0.16861 0.76312 0.0
C950 C 0.89006 0.16428 0.78187 0.0
C951 C 0.86412 0.23269 0.68941 0.0
C952 C 0.85515 0.18249 0.74146 0.0
C953 C 0.93498 0.13527 0.71975 0.0
C954 C 0.95534 0.16284 0.71761 0.0
C955 C 0.89628 0.20414 0.6659 0.0
C956 C 0.8438 0.18159 0.59786 0.0
C957 C 0.85289 0.17217 0.5819 0.0
C958 C 0.8552 0.18301 0.56273 0.0
C959 C 0.84793 0.20354 0.56024 0.0
C960 C 0.8351 0.20063 0.59457 0.0
C961 C 0.83737 0.21167 0.57589 0.0
C962 C 0.83998 0.13022 0.66896 0.0
C963 C 0.84615 0.17344 0.61805 0.0
H964 H 0.83927 0.19266 0.77618 0.0
H965 H 0.88503 0.16596 0.81302 0.0
H966 H 0.89111 0.16407 0.75032 0.0
H967 H 0.90426 0.15639 0.78338 0.0
H968 H 0.85825 0.15653 0.58475 0.0
H969 H 0.8506 0.21383 0.54633 0.0
H970 H 0.82714 0.20743 0.60646 0.0
H971 H 0.83144 0.22705 0.5736 0.0
C972 C 0.30416 0.84455 0.04381 0.0
C973 C 0.30503 0.83871 0.06385 0.0
C974 C 0.32745 0.86643 0.03459 0.0
C975 C 0.35206 0.88294 0.04569 0.0
C976 C 0.35338 0.87644 0.06568 0.0
C977 C 0.33006 0.85432 0.0744 0.0
C978 C 0.32561 0.87216 0.01307 0.0
C979 C 0.37915 0.89346 0.07813 0.0
C980 C 0.42409 0.93183 0.02514 0.0
C981 C 0.42554 0.9571 0.02773 0.0
C982 C 0.39944 0.90726 0.0293 0.0
C983 C 0.376 0.90801 0.03706 0.0
C984 C 0.37707 0.93346 0.0391 0.0
C985 C 0.40181 0.95767 0.03439 0.0
C986 C 0.39916 0.88066 0.02643 0.0
C987 C 0.35269 0.93528 0.04747 0.0
H988 H 0.285 0.8326 0.0355 0.0
H989 H 0.33131 0.84952 0.08971 0.0
H990 H 0.32976 0.89334 0.01119 0.0
H991 H 0.3419 0.87041 0.00467 0.0
H992 H 0.30481 0.85785 0.00658 0.0
H993 H 0.37696 0.88544 0.09337 0.0
H994 H 0.39771 0.89412 0.07124 0.0
H995 H 0.3833 0.91476 0.079 0.0
H996 H 0.44246 0.93115 0.02053 0.0
H997 H 0.40297 0.9772 0.03662 0.0
H998 H 0.37916 0.86513 0.01961 0.0
H999 H 0.401 0.87271 0.04096 0.0
H1000 H 0.41675 0.88317 0.01698 0.0
H1001 H 0.33306 0.92103 0.03961 0.0
H1002 H 0.35586 0.95624 0.04644 0.0
H1003 H 0.34987 0.92916 0.06322 0.0
C1004 C 0.13856 0.44782 0.07172 0.0
C1005 C 0.16513 0.45879 0.06268 0.0
C1006 C 0.11717 0.45172 0.06394 0.0
C1007 C 0.12079 0.46455 0.04543 0.0
C1008 C 0.14676 0.47457 0.03559 0.0
C1009 C 0.16875 0.47241 0.04454 0.0
C1010 C 0.09069 0.44213 0.07585 0.0
C1011 C 0.15135 0.48754 0.01551 0.0
C1012 C 0.04912 0.44482 0.02392 0.0
C1013 C 0.04866 0.46927 0.02532 0.0
C1014 C 0.07348 0.44377 0.02855 0.0
C1015 C 0.09718 0.46712 0.0366 0.0
C1016 C 0.09668 0.49194 0.03804 0.0
C1017 C 0.07274 0.4928 0.03191 0.0
C1018 C 0.07343 0.41741 0.02498 0.0
C1019 C 0.12074 0.51773 0.04653 0.0
H1020 H 0.13376 0.43585 0.08501 0.0
H1021 H 0.18867 0.48154 0.03707 0.0
H1022 H 0.08262 0.45655 0.07461 0.0
H1023 H 0.07427 0.42195 0.07033 0.0
H1024 H 0.09414 0.43986 0.09173 0.0
H1025 H 0.17073 0.4903 0.0084 0.0
H1026 H 0.13328 0.4748 0.00574 0.0
H1027 H 0.15303 0.50784 0.0169 0.0
H1028 H 0.03053 0.42657 0.01884 0.0
H1029 H 0.07239 0.51171 0.03338 0.0
H1030 H 0.06526 0.40426 0.03821 0.0
H1031 H 0.09476 0.42102 0.02183 0.0
H1032 H 0.05953 0.406 0.01239 0.0
H1033 H 0.13538 0.51407 0.05548 0.0
H1034 H 0.11276 0.52851 0.05589 0.0
H1035 H 0.13255 0.53171 0.03424 0.0
C1036 C 0.57596 0.71091 0.06446 0.0
C1037 C 0.55332 0.71557 0.06582 0.0
C1038 C 0.57239 0.68638 0.05675 0.0
C1039 C 0.54549 0.66601 0.0504 0.0
C1040 C 0.52269 0.67086 0.05129 0.0
C1041 C 0.52691 0.69569 0.05894 0.0
C1042 C 0.59725 0.68202 0.0558 0.0
C1043 C 0.49369 0.64952 0.04471 0.0
C1044 C 0.53857 0.60916 0.01699 0.0
C1045 C 0.53114 0.58789 0.03046 0.0
C1046 C 0.5435 0.63481 0.02326 0.0
C1047 C 0.54097 0.63921 0.04352 0.0
C1048 C 0.53395 0.61793 0.05726 0.0
C1049 C 0.52923 0.59252 0.05056 0.0
C1050 C 0.55128 0.65712 0.00822 0.0
C1051 C 0.53097 0.62186 0.07899 0.0
H1052 H 0.59647 0.72645 0.06956 0.0
H1053 H 0.50936 0.6992 0.06015 0.0
H1054 H 0.59367 0.66485 0.06556 0.0
H1055 H 0.59983 0.67639 0.04058 0.0
H1056 H 0.61702 0.70045 0.06039 0.0
H1057 H 0.47846 0.65691 0.04565 0.0
H1058 H 0.49421 0.64325 0.02928 0.0
H1059 H 0.48606 0.63106 0.05405 0.0
H1060 H 0.5409 0.6059 0.00157 0.0
H1061 H 0.52338 0.57606 0.06102 0.0
H1062 H 0.57178 0.67509 0.0121 0.0
H1063 H 0.53556 0.6639 0.00829 0.0
H1064 H 0.55257 0.65038 0.99304 0.0
H1065 H 0.55075 0.63906 0.08483 0.0
H1066 H 0.52564 0.6033 0.08775 0.0
H1067 H 0.51434 0.6272 0.08122 0.0
C1068 C 0.86179 0.29403 0.95702 0.0
C1069 C 0.83395 0.28842 0.95719 0.0
C1070 C 0.88376 0.31917 0.96369 0.0
C1071 C 0.87782 0.33931 0.97069 0.0
C1072 C 0.84969 0.33358 0.97133 0.0
C1073 C 0.82806 0.30815 0.96463 0.0
C1074 C 0.91338 0.32429 0.96301 0.0
C1075 C 0.84252 0.35453 0.97872 0.0
C1076 C 0.93138 0.39577 0.00362 0.0
C1077 C 0.9447 0.41761 0.99042 0.0
C1078 C 0.90964 0.37024 0.99742 0.0
C1079 C 0.90107 0.36631 0.97743 0.0
C1080 C 0.91493 0.38811 0.96387 0.0
C1081 C 0.93669 0.4135 0.97052 0.0
C1082 C 0.89572 0.34752 0.01233 0.0
C1083 C 0.90643 0.38473 0.94241 0.0
H1084 H 0.86642 0.27871 0.95152 0.0
H1085 H 0.80662 0.30401 0.96464 0.0
H1086 H 0.92633 0.34192 0.95329 0.0
H1087 H 0.92289 0.32957 0.97796 0.0
H1088 H 0.91442 0.30631 0.95749 0.0
H1089 H 0.81961 0.34679 0.97855 0.0
H1090 H 0.85039 0.36073 0.99401 0.0
H1091 H 0.853 0.37311 0.96943 0.0
H1092 H 0.9381 0.39857 0.01886 0.0
H1093 H 0.94689 0.43035 0.96026 0.0
H1094 H 0.89762 0.32972 0.00762 0.0
H1095 H 0.87306 0.34062 0.0132 0.0
H1096 H 0.90498 0.35389 0.0273 0.0
H1097 H 0.90825 0.36774 0.93578 0.0
H1098 H 0.91945 0.40355 0.93373 0.0
H1099 H 0.88417 0.37932 0.94115 0.0
C1100 C 0.68304 0.53243 0.94961 0.0
C1101 C 0.70746 0.54057 0.96085 0.0
C1102 C 0.65902 0.5312 0.95781 0.0
C1103 C 0.65886 0.53758 0.978 0.0
C1104 C 0.68288 0.54462 0.98972 0.0
C1105 C 0.7069 0.54616 0.98101 0.0
C1106 C 0.634 0.5237 0.94468 0.0
C1107 C 0.68327 0.55076 0.01142 0.0
C1108 C 0.60692 0.56094 0.99153 0.0
C1109 C 0.58373 0.53662 0.99798 0.0
C1110 C 0.63184 0.56176 0.9857 0.0
C1111 C 0.63381 0.53771 0.98648 0.0
C1112 C 0.61077 0.51332 0.99368 0.0
C1113 C 0.58591 0.51297 0.99893 0.0
C1114 C 0.65561 0.58812 0.97782 0.0
C1115 C 0.61184 0.48724 0.99509 0.0
H1116 H 0.6827 0.52721 0.93419 0.0
H1117 H 0.72548 0.55249 0.98992 0.0
H1118 H 0.61523 0.50551 0.95062 0.0
H1119 H 0.62937 0.54066 0.94443 0.0
H1120 H 0.63739 0.51927 0.92928 0.0
H1121 H 0.70384 0.55695 0.01839 0.0
H1122 H 0.67825 0.56728 0.01367 0.0
H1123 H 0.66692 0.53239 0.01911 0.0
H1124 H 0.60524 0.57919 0.99043 0.0
H1125 H 0.56794 0.4939 0.00329 0.0
H1126 H 0.65872 0.58565 0.96194 0.0
H1127 H 0.67538 0.59332 0.9856 0.0
H1128 H 0.65161 0.60542 0.97945 0.0
H1129 H 0.61103 0.47909 0.98006 0.0
H1130 H 0.59407 0.47137 0.00375 0.0
H1131 H 0.63172 0.49112 0.00205 0.0
C1132 C 0.44241 0.14964 0.96201 0.0
C1133 C 0.46652 0.17451 0.95778 0.0
C1134 C 0.44435 0.12829 0.9709 0.0
C1135 C 0.47106 0.13187 0.97537 0.0
C1136 C 0.49546 0.15718 0.97153 0.0
C1137 C 0.49287 0.17831 0.96288 0.0
C1138 C 0.41788 0.10171 0.97506 0.0
C1139 C 0.52431 0.16159 0.97588 0.0
C1140 C 0.47771 0.08298 0.01021 0.0
C1141 C 0.47965 0.06502 0.99695 0.0
C1142 C 0.47456 0.10471 0.00345 0.0
C1143 C 0.4736 0.10861 0.98291 0.0
C1144 C 0.47537 0.0904 0.96943 0.0
C1145 C 0.47819 0.06871 0.97664 0.0
C1146 C 0.47233 0.12349 0.01826 0.0
C1147 C 0.47481 0.09411 0.9474 0.0
H1148 H 0.42202 0.14686 0.95824 0.0
H1149 H 0.51151 0.19751 0.95946 0.0
H1150 H 0.41725 0.08526 0.96575 0.0
H1151 H 0.41755 0.09572 0.99068 0.0
H1152 H 0.39873 0.10295 0.97206 0.0
H1153 H 0.54105 0.18289 0.97289 0.0
H1154 H 0.52582 0.15678 0.99154 0.0
H1155 H 0.52818 0.14757 0.96669 0.0
H1156 H 0.47828 0.07987 0.02585 0.0
H1157 H 0.48004 0.05507 0.9663 0.0
H1158 H 0.45245 0.12361 0.01597 0.0
H1159 H 0.48969 0.1447 0.01608 0.0
H1160 H 0.47305 0.11739 0.03373 0.0
H1161 H 0.45512 0.09358 0.94309 0.0
H1162 H 0.47642 0.07811 0.93894 0.0
H1163 H 0.49241 0.11436 0.94307 0.0
C1164 C 0.68876 0.16136 0.97979 0.0
C1165 C 0.68845 0.16667 0.9596 0.0
C1166 C 0.66537 0.13937 0.98884 0.0
C1167 C 0.64123 0.12239 0.97743 0.0
C1168 C 0.64069 0.1282 0.95716 0.0
C1169 C 0.66426 0.15021 0.94854 0.0
C1170 C 0.6666 0.13412 0.01052 0.0
C1171 C 0.61544 0.1107 0.9444 0.0
C1172 C 0.59115 0.04803 0.98959 0.0
C1173 C 0.56747 0.04884 0.99604 0.0
C1174 C 0.61594 0.07205 0.98469 0.0
C1175 C 0.61701 0.09756 0.9861 0.0
C1176 C 0.59354 0.09858 0.99354 0.0
C1177 C 0.56891 0.07417 0.99816 0.0
C1178 C 0.64044 0.06996 0.97692 0.0
C1179 C 0.5938 0.12527 0.99562 0.0
H1180 H 0.70735 0.17409 0.98845 0.0
H1181 H 0.66395 0.15432 0.93294 0.0
H1182 H 0.64995 0.13584 0.01844 0.0
H1183 H 0.66262 0.11305 0.01277 0.0
H1184 H 0.68714 0.14868 0.01723 0.0
H1185 H 0.61799 0.11851 0.92907 0.0
H1186 H 0.61172 0.08953 0.94384 0.0
H1187 H 0.59648 0.10974 0.95085 0.0
H1188 H 0.58999 0.02843 0.98783 0.0
H1189 H 0.55051 0.07491 0.00278 0.0
H1190 H 0.65995 0.08453 0.98477 0.0
H1191 H 0.64349 0.07546 0.96105 0.0
H1192 H 0.63729 0.04907 0.97854 0.0
H1193 H 0.61366 0.14101 0.00245 0.0
H1194 H 0.57602 0.12309 0.00469 0.0
H1195 H 0.5923 0.13272 0.98078 0.0
C1196 C 0.85344 0.51888 0.94858 0.0
C1197 C 0.83616 0.52474 0.96032 0.0
C1198 C 0.87636 0.51778 0.95663 0.0
C1199 C 0.88225 0.52246 0.97707 0.0
C1200 C 0.86461 0.528 0.98912 0.0
C1201 C 0.84181 0.52916 0.9806 0.0
C1202 C 0.8946 0.51205 0.94311 0.0
C1203 C 0.86986 0.53273 0.01097 0.0
C1204 C 0.93095 0.49757 0.99598 0.0
C1205 C 0.95709 0.5216 0.99557 0.0
C1206 C 0.90615 0.49782 0.99131 0.0
C1207 C 0.90755 0.52253 0.9854 0.0
C1208 C 0.93389 0.54693 0.98538 0.0
C1209 C 0.95825 0.54615 0.99046 0.0
C1210 C 0.8786 0.4714 0.99197 0.0
C1211 C 0.93658 0.5737 0.97905 0.0
H1212 H 0.84919 0.51545 0.9329 0.0
H1213 H 0.82851 0.53359 0.9898 0.0
H1214 H 0.91639 0.52945 0.94349 0.0
H1215 H 0.8952 0.49374 0.94825 0.0
H1216 H 0.88707 0.50863 0.92759 0.0
H1217 H 0.85451 0.53708 0.01832 0.0
H1218 H 0.86864 0.51441 0.01786 0.0
H1219 H 0.89125 0.55007 0.0137 0.0
H1220 H 0.92993 0.47842 0.99954 0.0
H1221 H 0.97843 0.56474 0.98996 0.0
H1222 H 0.87084 0.46468 0.97673 0.0
H1223 H 0.86266 0.47432 0.99984 0.0
H1224 H 0.88053 0.45491 0.99941 0.0
H1225 H 0.93121 0.57266 0.96317 0.0
H1226 H 0.95809 0.59116 0.98134 0.0
H1227 H 0.92166 0.57769 0.98736 0.0
C1228 C 0.51089 0.34318 0.93996 0.0
C1229 C 0.49827 0.31832 0.95007 0.0
C1230 C 0.51148 0.36627 0.9481 0.0
C1231 C 0.49859 0.36414 0.96657 0.0
C1232 C 0.48563 0.33898 0.97678 0.0
C1233 C 0.48582 0.31638 0.96846 0.0
C1234 C 0.52596 0.39294 0.93699 0.0
C1235 C 0.47137 0.33589 0.99639 0.0
C1236 C 0.521 0.42804 0.99683 0.0
C1237 C 0.5 0.43429 0.9923 0.0
C1238 C 0.5209 0.40539 0.98845 0.0
C1239 C 0.49902 0.38833 0.97541 0.0
C1240 C 0.47755 0.39429 0.97092 0.0
C1241 C 0.47844 0.41742 0.9793 0.0
C1242 C 0.54442 0.39997 0.99337 0.0
C1243 C 0.45364 0.37623 0.95732 0.0
H1244 H 0.52044 0.34457 0.92571 0.0
H1245 H 0.47574 0.29707 0.97623 0.0
H1246 H 0.51086 0.39996 0.93366 0.0
H1247 H 0.5428 0.4089 0.94626 0.0
H1248 H 0.53528 0.39124 0.92291 0.0
H1249 H 0.46175 0.31476 0.00221 0.0
H1250 H 0.48669 0.35003 0.00739 0.0
H1251 H 0.45479 0.34145 0.99485 0.0
H1252 H 0.53798 0.44119 0.00666 0.0
H1253 H 0.46218 0.42216 0.97575 0.0
H1254 H 0.55565 0.40039 0.97968 0.0
H1255 H 0.53586 0.37935 0.99989 0.0
H1256 H 0.55975 0.41519 0.0039 0.0
H1257 H 0.46183 0.37559 0.94251 0.0
H1258 H 0.43829 0.38339 0.9557 0.0
H1259 H 0.44257 0.35503 0.96304 0.0
C1260 C 0.16926 0.67258 0.08115 0.0
C1261 C 0.1814 0.69641 0.06976 0.0
C1262 C 0.1466 0.64824 0.074 0.0
C1263 C 0.1356 0.64775 0.05502 0.0
C1264 C 0.14769 0.67182 0.04346 0.0
C1265 C 0.17054 0.69591 0.05095 0.0
C1266 C 0.13457 0.62298 0.08672 0.0
C1267 C 0.13648 0.6721 0.02318 0.0
C1268 C 0.09551 0.57901 0.02934 0.0
C1269 C 0.06756 0.57181 0.03282 0.0
C1270 C 0.11776 0.6037 0.03631 0.0
C1271 C 0.11203 0.62177 0.04711 0.0
C1272 C 0.08385 0.61459 0.05081 0.0
C1273 C 0.06192 0.58959 0.0437 0.0
C1274 C 0.14742 0.61032 0.03219 0.0
C1275 C 0.0769 0.63336 0.06222 0.0
H1276 H 0.17761 0.67297 0.09572 0.0
H1277 H 0.17974 0.71432 0.04213 0.0
H1278 H 0.11197 0.61523 0.08935 0.0
H1279 H 0.13633 0.6066 0.07898 0.0
H1280 H 0.14535 0.62684 0.10121 0.0
H1281 H 0.14782 0.69257 0.01621 0.0
H1282 H 0.13823 0.65723 0.01346 0.0
H1283 H 0.11393 0.6657 0.02412 0.0
H1284 H 0.10011 0.56517 0.02126 0.0
H1285 H 0.0404 0.58418 0.04644 0.0
H1286 H 0.15884 0.6132 0.04628 0.0
H1287 H 0.15866 0.62974 0.02387 0.0
H1288 H 0.14825 0.59404 0.02354 0.0
H1289 H 0.08592 0.63668 0.07729 0.0
H1290 H 0.05397 0.6251 0.06346 0.0
H1291 H 0.08642 0.65358 0.05493 0.0
C1292 C 0.33471 0.48249 0.07227 0.0
C1293 C 0.31097 0.47543 0.06063 0.0
C1294 C 0.35915 0.48455 0.06419 0.0
C1295 C 0.36022 0.47964 0.0438 0.0
C1296 C 0.33647 0.47297 0.03182 0.0
C1297 C 0.31206 0.47084 0.04038 0.0
C1298 C 0.3837 0.49149 0.07765 0.0
C1299 C 0.33685 0.46798 0.01 0.0
C1300 C 0.4349 0.50619 0.02531 0.0
C1301 C 0.43734 0.4827 0.02643 0.0
C1302 C 0.40932 0.50515 0.02949 0.0
C1303 C 0.38581 0.48021 0.03556 0.0
C1304 C 0.38806 0.45632 0.03611 0.0
C1305 C 0.41372 0.45788 0.03157 0.0
C1306 C 0.4079 0.53105 0.02825 0.0
C1307 C 0.36379 0.42931 0.0426 0.0
H1308 H 0.33404 0.4861 0.08792 0.0
H1309 H 0.29388 0.46551 0.03125 0.0
H1310 H 0.38841 0.47457 0.07758 0.0
H1311 H 0.40263 0.51001 0.07226 0.0
H1312 H 0.37971 0.49515 0.09311 0.0
H1313 H 0.31692 0.46329 0.00263 0.0
H1314 H 0.35427 0.48626 0.00296 0.0
H1315 H 0.34069 0.45075 0.00747 0.0
H1316 H 0.45319 0.52556 0.02169 0.0
H1317 H 0.41556 0.43971 0.03261 0.0
H1318 H 0.40719 0.53826 0.04335 0.0
H1319 H 0.38856 0.52725 0.02046 0.0
H1320 H 0.42628 0.54753 0.02045 0.0
H1321 H 0.35949 0.43045 0.05846 0.0
H1322 H 0.36801 0.41222 0.0405 0.0
H1323 H 0.34458 0.42469 0.03427 0.0
C1324 C 0.51045 0.84204 0.07773 0.0
C1325 C 0.52487 0.8311 0.06784 0.0
C1326 C 0.50729 0.86292 0.06924 0.0
C1327 C 0.51932 0.87336 0.05056 0.0
C1328 C 0.53381 0.86227 0.04044 0.0
C1329 C 0.53626 0.84109 0.04917 0.0
C1330 C 0.49132 0.87398 0.08032 0.0
C1331 C 0.54718 0.87316 0.02061 0.0
C1332 C 0.49206 0.91292 0.02208 0.0
C1333 C 0.51161 0.93991 0.02723 0.0
C1334 C 0.4945 0.89104 0.02934 0.0
C1335 C 0.51723 0.89633 0.04186 0.0
C1336 C 0.53748 0.92357 0.04666 0.0
C1337 C 0.5343 0.94506 0.0394 0.0
C1338 C 0.47228 0.86226 0.02411 0.0
C1339 C 0.56223 0.92998 0.05974 0.0
H1340 H 0.50165 0.83425 0.09217 0.0
H1341 H 0.54763 0.83279 0.04153 0.0
H1342 H 0.5054 0.89587 0.08383 0.0
H1343 H 0.4741 0.87259 0.07098 0.0
H1344 H 0.48225 0.86283 0.0943 0.0
H1345 H 0.55731 0.86198 0.01454 0.0
H1346 H 0.53124 0.87169 0.00991 0.0
H1347 H 0.56321 0.89508 0.02198 0.0
H1348 H 0.4743 0.90876 0.01283 0.0
H1349 H 0.54954 0.96589 0.04334 0.0
H1350 H 0.46111 0.85126 0.03767 0.0
H1351 H 0.48202 0.85098 0.01765 0.0
H1352 H 0.45668 0.86174 0.01345 0.0
H1353 H 0.55482 0.9215 0.07469 0.0
H1354 H 0.57692 0.95228 0.06114 0.0
H1355 H 0.57384 0.92022 0.05378 0.0
C1356 C 0.97862 0.17553 0.37819 0.0
C1357 C 0.96703 0.17844 0.39595 0.0
C1358 C 1.00128 0.198 0.36897 0.0
C1359 C 0.01454 0.22382 0.37845 0.0
C1360 C 1.00314 0.22699 0.39631 0.0
C1361 C 0.9788 0.2049 0.40404 0.0
C1362 C 0.01097 0.19346 0.34924 0.0
C1363 C 0.01663 0.25344 0.40787 0.0
C1364 C 0.09165 0.27148 0.36698 0.0
C1365 C 0.09163 0.29528 0.36143 0.0
C1366 C 0.06671 0.24776 0.37208 0.0
C1367 C 0.04079 0.24731 0.3704 0.0
C1368 C 0.04066 0.2708 0.3631 0.0
C1369 C 0.06617 0.2949 0.35976 0.0
C1370 C 0.06883 0.22388 0.37997 0.0
C1371 C 0.01389 0.27113 0.35915 0.0
H1372 H 0.97052 0.15571 0.37136 0.0
H1373 H 0.9696 0.20884 0.41677 0.0
H1374 H 0.02385 0.21272 0.34108 0.0
H1375 H 0.02338 0.18315 0.35151 0.0
H1376 H 0.99268 0.1797 0.33992 0.0
H1377 H 0.01277 0.24952 0.42394 0.0
H1378 H 0.03959 0.26559 0.40558 0.0
H1379 H 0.00712 0.26585 0.40334 0.0
H1380 H 0.11141 0.27194 0.36872 0.0
H1381 H 0.06618 0.31339 0.35553 0.0
H1382 H 0.0677 0.21074 0.36743 0.0
H1383 H 0.05186 0.21136 0.39053 0.0
H1384 H 0.08924 0.23085 0.38747 0.0
H1385 H 0.99532 0.25037 0.35816 0.0
H1386 H 0.01565 0.282 0.34513 0.0
H1387 H 0.01054 0.28272 0.37101 0.0
C1388 C 0.83362 0.79444 0.37716 0.0
C1389 C 0.84013 0.79925 0.39733 0.0
C1390 C 0.8112 0.79645 0.3689 0.0
C1391 C 0.79487 0.80359 0.38102 0.0
C1392 C 0.80201 0.80941 0.40124 0.0
C1393 C 0.82448 0.80727 0.40908 0.0
C1394 C 0.80484 0.79065 0.34724 0.0
C1395 C 0.78538 0.81718 0.41479 0.0
C1396 C 0.74633 0.82826 0.36125 0.0
C1397 C 0.71994 0.80466 0.36278 0.0
C1398 C 0.77105 0.82791 0.366 0.0
C1399 C 0.76938 0.80355 0.37308 0.0
C1400 C 0.74277 0.77954 0.37425 0.0
C1401 C 0.71846 0.78042 0.36915 0.0
C1402 C 0.79883 0.85392 0.36413 0.0
C1403 C 0.73986 0.75309 0.38164 0.0
H1404 H 0.84546 0.7882 0.36791 0.0
H1405 H 0.82963 0.81163 0.42459 0.0
H1406 H 0.78242 0.77533 0.34501 0.0
H1407 H 0.80897 0.80968 0.3397 0.0
H1408 H 0.8178 0.78304 0.34017 0.0
H1409 H 0.79415 0.82197 0.42998 0.0
H1410 H 0.78489 0.83521 0.40887 0.0
H1411 H 0.76341 0.80018 0.41557 0.0
H1412 H 0.74773 0.84725 0.35685 0.0
H1413 H 0.69812 0.76219 0.37056 0.0
H1414 H 0.81407 0.84999 0.35622 0.0
H1415 H 0.80751 0.86169 0.37904 0.0
H1416 H 0.79691 0.87006 0.35614 0.0
H1417 H 0.7537 0.74784 0.37311 0.0
H1418 H 0.718 0.73586 0.38051 0.0
H1419 H 0.74656 0.75544 0.39731 0.0
C1420 C 0.19982 0.03513 0.39285 0.0
C1421 C 0.22598 0.05539 0.39983 0.0
C1422 C 0.19622 0.01048 0.38528 0.0
C1423 C 0.21939 0.00617 0.38458 0.0
C1424 C 0.24605 0.02693 0.39101 0.0
C1425 C 0.249 0.05129 0.39862 0.0
C1426 C 0.16746 0.98873 0.37858 0.0
C1427 C 0.2713 0.02318 0.39027 0.0
C1428 C 0.20415 0.93295 0.38488 0.0
C1429 C 0.20617 0.92833 0.3648 0.0
C1430 C 0.20864 0.95831 0.39155 0.0
C1431 C 0.21551 0.97954 0.37778 0.0
C1432 C 0.21832 0.9752 0.35756 0.0
C1433 C 0.21367 0.94962 0.35133 0.0
C1434 C 0.20541 0.96218 0.41324 0.0
C1435 C 0.22594 0.99744 0.34248 0.0
H1436 H 0.18195 0.03818 0.39394 0.0
H1437 H 0.26933 0.06711 0.40379 0.0
H1438 H 0.16831 0.98251 0.36318 0.0
H1439 H 0.16007 0.97033 0.38795 0.0
H1440 H 0.15189 0.9957 0.37936 0.0
H1441 H 0.29081 0.04186 0.39489 0.0
H1442 H 0.268 0.00617 0.4001 0.0
H1443 H 0.27418 0.01762 0.3751 0.0
H1444 H 0.19827 0.91648 0.39534 0.0
H1445 H 0.21611 0.94638 0.33592 0.0
H1446 H 0.18837 0.96697 0.41537 0.0
H1447 H 0.22493 0.97971 0.4191 0.0
H1448 H 0.2005 0.94378 0.42205 0.0
H1449 H 0.20976 0.00362 0.34224 0.0
H1450 H 0.22786 0.99088 0.32738 0.0
H1451 H 0.24608 0.01574 0.34656 0.0
C1452 C 0.5114 0.62366 0.31242 0.0
C1453 C 0.50081 0.62192 0.29334 0.0
C1454 C 0.53265 0.64869 0.31999 0.0
C1455 C 0.54317 0.67255 0.30829 0.0
C1456 C 0.53191 0.67097 0.28922 0.0
C1457 C 0.51104 0.64566 0.28193 0.0
C1458 C 0.54431 0.6495 0.3403 0.0
C1459 C 0.54214 0.69599 0.27642 0.0
C1460 C 0.58188 0.74232 0.33281 0.0
C1461 C 0.60989 0.75069 0.32834 0.0
C1462 C 0.56001 0.71684 0.32662 0.0
C1463 C 0.56624 0.69914 0.31578 0.0
C1464 C 0.5945 0.7073 0.31144 0.0
C1465 C 0.61598 0.73307 0.31765 0.0
C1466 C 0.5302 0.70914 0.33135 0.0
C1467 C 0.60203 0.68888 0.30011 0.0
H1468 H 0.50366 0.60528 0.32119 0.0
H1469 H 0.50267 0.64437 0.26723 0.0
H1470 H 0.56693 0.65621 0.33921 0.0
H1471 H 0.54245 0.66457 0.34971 0.0
H1472 H 0.53344 0.6293 0.3477 0.0
H1473 H 0.53043 0.6915 0.26227 0.0
H1474 H 0.54002 0.71201 0.2844 0.0
H1475 H 0.56468 0.70453 0.27308 0.0
H1476 H 0.57692 0.75592 0.34087 0.0
H1477 H 0.63756 0.73934 0.31421 0.0
H1478 H 0.51963 0.68944 0.33936 0.0
H1479 H 0.51837 0.70634 0.31746 0.0
H1480 H 0.52899 0.72485 0.34048 0.0
H1481 H 0.5931 0.66877 0.30752 0.0
H1482 H 0.62503 0.69768 0.29875 0.0
H1483 H 0.59283 0.68518 0.28508 0.0
C1484 C 0.3576 0.87315 0.28385 0.0
C1485 C 0.38137 0.88009 0.29553 0.0
C1486 C 0.33329 0.87154 0.29188 0.0
C1487 C 0.33226 0.87656 0.31226 0.0
C1488 C 0.35573 0.88261 0.32432 0.0
C1489 C 0.37995 0.88433 0.31584 0.0
C1490 C 0.30887 0.86501 0.27839 0.0
C1491 C 0.35533 0.88752 0.34616 0.0
C1492 C 0.28032 0.89993 0.32586 0.0
C1493 C 0.25677 0.87547 0.33168 0.0
C1494 C 0.30535 0.90077 0.3203 0.0
C1495 C 0.307 0.87653 0.32055 0.0
C1496 C 0.28353 0.85193 0.32708 0.0
C1497 C 0.25864 0.85163 0.33223 0.0
C1498 C 0.32967 0.92744 0.31336 0.0
C1499 C 0.28426 0.82564 0.32791 0.0
H1500 H 0.358 0.8691 0.26826 0.0
H1501 H 0.39807 0.88974 0.32506 0.0
H1502 H 0.28972 0.84672 0.28381 0.0
H1503 H 0.30458 0.8822 0.27841 0.0
H1504 H 0.31274 0.86117 0.26295 0.0
H1505 H 0.37574 0.89357 0.35335 0.0
H1506 H 0.34994 0.9037 0.34885 0.0
H1507 H 0.33894 0.86862 0.35328 0.0
H1508 H 0.2789 0.91835 0.32514 0.0
H1509 H 0.24039 0.83248 0.33617 0.0
H1510 H 0.33361 0.92581 0.2975 0.0
H1511 H 0.34897 0.932 0.32156 0.0
H1512 H 0.3258 0.94478 0.31529 0.0
H1513 H 0.26562 0.80914 0.33549 0.0
H1514 H 0.30337 0.82884 0.33571 0.0
H1515 H 0.285 0.81874 0.3127 0.0
C1516 C 0.1274 0.50328 0.30697 0.0
C1517 C 0.14068 0.5133 0.28881 0.0
C1518 C 0.12894 0.48204 0.31653 0.0
C1519 C 0.14436 0.47093 0.30775 0.0
C1520 C 0.15856 0.48166 0.28974 0.0
C1521 C 0.15646 0.50266 0.28046 0.0
C1522 C 0.11345 0.47098 0.33569 0.0
C1523 C 0.17553 0.47061 0.28005 0.0
C1524 C 0.16901 0.43014 0.33736 0.0
C1525 C 0.15011 0.40337 0.33124 0.0
C1526 C 0.16681 0.45228 0.33038 0.0
C1527 C 0.14515 0.44754 0.31697 0.0
C1528 C 0.12549 0.42052 0.3112 0.0
C1529 C 0.12829 0.39873 0.31833 0.0
C1530 C 0.18834 0.48079 0.33677 0.0
C1531 C 0.10197 0.41468 0.29703 0.0
H1532 H 0.11505 0.51141 0.31335 0.0
H1533 H 0.16699 0.51066 0.26651 0.0
H1534 H 0.09692 0.44935 0.33366 0.0
H1535 H 0.12795 0.47142 0.34724 0.0
H1536 H 0.10352 0.4827 0.34103 0.0
H1537 H 0.18626 0.48202 0.26648 0.0
H1538 H 0.19155 0.47161 0.29048 0.0
H1539 H 0.16169 0.44884 0.27608 0.0
H1540 H 0.18615 0.43397 0.34716 0.0
H1541 H 0.11352 0.3781 0.31365 0.0
H1542 H 0.17791 0.49197 0.34222 0.0
H1543 H 0.20136 0.49224 0.32393 0.0
H1544 H 0.20236 0.48077 0.34856 0.0
H1545 H 0.09009 0.42454 0.30226 0.0
H1546 H 0.08722 0.39246 0.29522 0.0
H1547 H 0.11074 0.42343 0.28236 0.0
C1548 C 0.3592 0.49214 0.31721 0.0
C1549 C 0.35937 0.49619 0.29678 0.0
C1550 C 0.33543 0.471 0.32655 0.0
C1551 C 0.31142 0.45363 0.31516 0.0
C1552 C 0.31143 0.4581 0.2946 0.0
C1553 C 0.33537 0.47929 0.28571 0.0
C1554 C 0.33602 0.46711 0.34852 0.0
C1555 C 0.28631 0.44013 0.28186 0.0
C1556 C 0.25899 0.38055 0.32867 0.0
C1557 C 0.23551 0.38261 0.3337 0.0
C1558 C 0.28457 0.40386 0.32401 0.0
C1559 C 0.2866 0.42984 0.32423 0.0
C1560 C 0.26336 0.43216 0.33046 0.0
C1561 C 0.23798 0.40847 0.33485 0.0
C1562 C 0.30883 0.40043 0.31758 0.0
C1563 C 0.26462 0.45942 0.33124 0.0
H1564 H 0.37767 0.50526 0.32587 0.0
H1565 H 0.33544 0.48244 0.26992 0.0
H1566 H 0.31989 0.47039 0.35574 0.0
H1567 H 0.33086 0.4459 0.35182 0.0
H1568 H 0.35673 0.48143 0.35514 0.0
H1569 H 0.28942 0.44681 0.26621 0.0
H1570 H 0.28198 0.41876 0.28242 0.0
H1571 H 0.26749 0.4402 0.28755 0.0
H1572 H 0.25703 0.36053 0.32765 0.0
H1573 H 0.21978 0.41019 0.33833 0.0
H1574 H 0.32828 0.41526 0.32536 0.0
H1575 H 0.31244 0.40461 0.30154 0.0
H1576 H 0.30498 0.37949 0.32042 0.0
H1577 H 0.28445 0.47508 0.33816 0.0
H1578 H 0.24677 0.45832 0.33962 0.0
H1579 H 0.264 0.46626 0.31601 0.0
C1580 C 0.52324 0.8523 0.28233 0.0
C1581 C 0.50719 0.85947 0.29432 0.0
C1582 C 0.54625 0.85088 0.2899 0.0
C1583 C 0.55358 0.85674 0.31009 0.0
C1584 C 0.53722 0.86372 0.32236 0.0
C1585 C 0.5142 0.86497 0.31435 0.0
C1586 C 0.56299 0.84349 0.27615 0.0
C1587 C 0.54383 0.86966 0.34397 0.0
C1588 C 0.60142 0.83065 0.32873 0.0
C1589 C 0.62802 0.85393 0.32705 0.0
C1590 C 0.57689 0.83164 0.32454 0.0
C1591 C 0.57893 0.85633 0.31788 0.0
C1592 C 0.60575 0.88005 0.3166 0.0
C1593 C 0.62989 0.87852 0.32112 0.0
C1594 C 0.54887 0.80593 0.3265 0.0
C1595 C 0.60907 0.90683 0.30965 0.0
H1596 H 0.51795 0.84802 0.26683 0.0
H1597 H 0.50185 0.87041 0.32375 0.0
H1598 H 0.58499 0.86047 0.27558 0.0
H1599 H 0.56334 0.82525 0.28176 0.0
H1600 H 0.55436 0.83916 0.26092 0.0
H1601 H 0.53163 0.87821 0.35093 0.0
H1602 H 0.53874 0.85043 0.35165 0.0
H1603 H 0.56647 0.88423 0.34618 0.0
H1604 H 0.59971 0.81141 0.33281 0.0
H1605 H 0.65039 0.89652 0.31961 0.0
H1606 H 0.53971 0.79855 0.31164 0.0
H1607 H 0.53414 0.81012 0.33487 0.0
H1608 H 0.55058 0.78942 0.33409 0.0
H1609 H 0.60246 0.90495 0.29398 0.0
H1610 H 0.63103 0.92383 0.31092 0.0
H1611 H 0.59538 0.9121 0.31834 0.0
C1612 C 0.17081 0.67698 0.27486 0.0
C1613 C 0.15653 0.65175 0.28444 0.0
C1614 C 0.173 0.70053 0.28344 0.0
C1615 C 0.16026 0.69865 0.30193 0.0
C1616 C 0.14561 0.67314 0.31162 0.0
C1617 C 0.14403 0.64995 0.30278 0.0
C1618 C 0.18907 0.72744 0.27277 0.0
C1619 C 0.13157 0.67038 0.33127 0.0
C1620 C 0.18791 0.76371 0.33185 0.0
C1621 C 0.16855 0.77211 0.32724 0.0
C1622 C 0.18524 0.73965 0.32395 0.0
C1623 C 0.16257 0.72349 0.31117 0.0
C1624 C 0.14268 0.7316 0.30669 0.0
C1625 C 0.14602 0.75594 0.31469 0.0
C1626 C 0.20706 0.73188 0.32892 0.0
C1627 C 0.11808 0.71471 0.29326 0.0
H1628 H 0.18044 0.67831 0.26066 0.0
H1629 H 0.13279 0.63041 0.31017 0.0
H1630 H 0.17519 0.73598 0.26976 0.0
H1631 H 0.20649 0.74239 0.28221 0.0
H1632 H 0.19791 0.72543 0.25856 0.0
H1633 H 0.1207 0.64903 0.33675 0.0
H1634 H 0.14731 0.68359 0.34242 0.0
H1635 H 0.11607 0.67736 0.32998 0.0
H1636 H 0.20564 0.77628 0.34131 0.0
H1637 H 0.13098 0.76229 0.31108 0.0
H1638 H 0.21802 0.7316 0.31528 0.0
H1639 H 0.19694 0.71103 0.33524 0.0
H1640 H 0.22289 0.74624 0.33962 0.0
H1641 H 0.12567 0.71373 0.2783 0.0
H1642 H 0.10379 0.72318 0.292 0.0
H1643 H 0.10599 0.69348 0.29883 0.0
C1644 C 0.84393 0.00539 0.40763 0.0
C1645 C 0.85425 0.03021 0.39761 0.0
C1646 C 0.82074 0.98147 0.40047 0.0
C1647 C 0.80747 0.9824 0.38283 0.0
C1648 C 0.81774 0.00747 0.37264 0.0
C1649 C 0.84107 0.03113 0.38016 0.0
C1650 C 0.81058 0.95516 0.41173 0.0
C1651 C 0.80414 0.00923 0.35378 0.0
C1652 C 0.76602 0.91522 0.35545 0.0
C1653 C 0.73844 0.90664 0.36136 0.0
C1654 C 0.78851 0.94009 0.36193 0.0
C1655 C 0.78345 0.95687 0.37479 0.0
C1656 C 0.75565 0.94851 0.38071 0.0
C1657 C 0.73346 0.92344 0.37395 0.0
C1658 C 0.81778 0.94807 0.35534 0.0
C1659 C 0.74943 0.96584 0.39443 0.0
H1660 H 0.85406 0.00467 0.42117 0.0
H1661 H 0.84888 0.0503 0.37239 0.0
H1662 H 0.78827 0.94661 0.41582 0.0
H1663 H 0.81191 0.93984 0.40225 0.0
H1664 H 0.82293 0.958 0.42538 0.0
H1665 H 0.81427 0.03033 0.34785 0.0
H1666 H 0.80526 0.99566 0.34243 0.0
H1667 H 0.78165 0.00206 0.35637 0.0
H1668 H 0.77026 0.90223 0.34604 0.0
H1669 H 0.71225 0.91698 0.3786 0.0
H1670 H 0.83067 0.94934 0.36831 0.0
H1671 H 0.8279 0.96854 0.34839 0.0
H1672 H 0.81799 0.93328 0.34463 0.0
H1673 H 0.75971 0.96778 0.4089 0.0
H1674 H 0.72662 0.95712 0.39688 0.0
H1675 H 0.75815 0.98672 0.38835 0.0
C1676 C 0.98698 0.8133 0.37665 0.0
C1677 C 0.98555 0.8169 0.39702 0.0
C1678 C 0.01142 0.81561 0.36805 0.0
C1679 C 0.03491 0.82157 0.38009 0.0
C1680 C 0.03359 0.82569 0.40059 0.0
C1681 C 0.00905 0.82334 0.40874 0.0
C1682 C 0.01201 0.81138 0.34614 0.0
C1683 C 0.05793 0.83198 0.41409 0.0
C1684 C 0.08754 0.79904 0.36706 0.0
C1685 C 0.11133 0.82376 0.36199 0.0
C1686 C 0.06213 0.79782 0.37187 0.0
C1687 C 0.06035 0.82197 0.37176 0.0
C1688 C 0.08406 0.84686 0.36585 0.0
C1689 C 0.10936 0.84753 0.36132 0.0
C1690 C 0.03757 0.77083 0.37807 0.0
C1691 C 0.08315 0.87305 0.36515 0.0
H1692 H 0.96897 0.80841 0.36746 0.0
H1693 H 0.00809 0.82618 0.42448 0.0
H1694 H 0.02956 0.82986 0.33941 0.0
H1695 H 0.01573 0.79414 0.34325 0.0
H1696 H 0.9922 0.80706 0.33875 0.0
H1697 H 0.05392 0.83545 0.42958 0.0
H1698 H 0.06224 0.81481 0.41382 0.0
H1699 H 0.07709 0.85042 0.40886 0.0
H1700 H 0.08904 0.78066 0.36773 0.0
H1701 H 0.1278 0.86681 0.35775 0.0
H1702 H 0.0185 0.76667 0.36973 0.0
H1703 H 0.03319 0.77166 0.39396 0.0
H1704 H 0.04148 0.75358 0.37571 0.0
H1705 H 0.06391 0.86979 0.3575 0.0
H1706 H 0.10166 0.88957 0.35748 0.0
H1707 H 0.0826 0.87991 0.3804 0.0
C1708 C 0.2023 0.17755 0.38414 0.0
C1709 C 0.19231 0.16763 0.4031 0.0
C1710 C 0.19861 0.19826 0.37583 0.0
C1711 C 0.18434 0.20898 0.38669 0.0
C1712 C 0.17362 0.19851 0.40563 0.0
C1713 C 0.17794 0.17808 0.41367 0.0
C1714 C 0.21056 0.20913 0.35567 0.0
C1715 C 0.15797 0.20919 0.41754 0.0
C1716 C 0.19851 0.2806 0.37617 0.0
C1717 C 0.17524 0.2754 0.36464 0.0
C1718 C 0.202 0.25914 0.3831 0.0
C1719 C 0.18152 0.23186 0.3786 0.0
C1720 C 0.15806 0.22651 0.36686 0.0
C1721 C 0.15525 0.24837 0.35996 0.0
C1722 C 0.22747 0.26565 0.39539 0.0
C1723 C 0.13561 0.1977 0.36194 0.0
H1724 H 0.21357 0.16961 0.37596 0.0
H1725 H 0.1702 0.17034 0.42833 0.0
H1726 H 0.19389 0.20765 0.34567 0.0
H1727 H 0.22666 0.23105 0.35681 0.0
H1728 H 0.22026 0.19797 0.34888 0.0
H1729 H 0.14971 0.19787 0.43158 0.0
H1730 H 0.17206 0.23108 0.42106 0.0
H1731 H 0.14021 0.20769 0.40881 0.0
H1732 H 0.21408 0.30146 0.37974 0.0
H1733 H 0.13703 0.2442 0.35124 0.0
H1734 H 0.239 0.25627 0.38866 0.0
H1735 H 0.22091 0.25684 0.41036 0.0
H1736 H 0.24199 0.28797 0.39688 0.0
H1737 H 0.14502 0.18658 0.35473 0.0
H1738 H 0.11924 0.19711 0.35203 0.0
H1739 H 0.12546 0.1866 0.37572 0.0
C1740 C 0.65416 0.5384 0.74163 0.0
C1741 C 0.63911 0.51287 0.73208 0.0
C1742 C 0.67835 0.5601 0.73334 0.0
C1743 C 0.68664 0.55746 0.71411 0.0
C1744 C 0.67122 0.53238 0.70393 0.0
C1745 C 0.64832 0.51023 0.71323 0.0
C1746 C 0.69537 0.5857 0.74546 0.0
C1747 C 0.67892 0.5289 0.68321 0.0
C1748 C 0.73492 0.62751 0.69234 0.0
C1749 C 0.76086 0.62874 0.6931 0.0
C1750 C 0.71023 0.60339 0.69737 0.0
C1751 C 0.71187 0.58091 0.70507 0.0
C1752 C 0.73822 0.58219 0.70583 0.0
C1753 C 0.76219 0.60581 0.69934 0.0
C1754 C 0.68246 0.60217 0.6946 0.0
C1755 C 0.74184 0.55925 0.71391 0.0
H1756 H 0.64731 0.5419 0.7557 0.0
H1757 H 0.6379 0.49088 0.70555 0.0
H1758 H 0.71796 0.5921 0.74485 0.0
H1759 H 0.69298 0.60261 0.73941 0.0
H1760 H 0.6888 0.58283 0.76117 0.0
H1761 H 0.66262 0.50967 0.67625 0.0
H1762 H 0.68204 0.54633 0.67392 0.0
H1763 H 0.69889 0.52866 0.68341 0.0
H1764 H 0.73392 0.64527 0.68751 0.0
H1765 H 0.7823 0.60683 0.70029 0.0
H1766 H 0.67515 0.60579 0.7089 0.0
H1767 H 0.66636 0.58176 0.68911 0.0
H1768 H 0.68411 0.61789 0.68402 0.0
H1769 H 0.72471 0.54554 0.72396 0.0
H1770 H 0.76203 0.56748 0.72199 0.0
H1771 H 0.74266 0.54697 0.7014 0.0
C1772 C 0.50527 0.13356 0.7126 0.0
C1773 C 0.51222 0.13905 0.73266 0.0
C1774 C 0.48289 0.13562 0.70435 0.0
C1775 C 0.46698 0.14339 0.71637 0.0
C1776 C 0.47462 0.14996 0.73645 0.0
C1777 C 0.49709 0.14782 0.74428 0.0
C1778 C 0.47584 0.12882 0.68287 0.0
C1779 C 0.45839 0.15833 0.7499 0.0
C1780 C 0.41739 0.16664 0.69621 0.0
C1781 C 0.39124 0.14284 0.69806 0.0
C1782 C 0.44238 0.1668 0.701 0.0
C1783 C 0.44118 0.14284 0.70855 0.0
C1784 C 0.41478 0.11869 0.71019 0.0
C1785 C 0.39024 0.11901 0.70494 0.0
C1786 C 0.46996 0.19286 0.69857 0.0
C1787 C 0.41231 0.09271 0.71824 0.0
H1788 H 0.51666 0.12667 0.70347 0.0
H1789 H 0.50258 0.15266 0.7597 0.0
H1790 H 0.45417 0.11145 0.68135 0.0
H1791 H 0.47681 0.14657 0.67524 0.0
H1792 H 0.49035 0.12342 0.67539 0.0
H1793 H 0.46764 0.16384 0.76493 0.0
H1794 H 0.45764 0.17604 0.7436 0.0
H1795 H 0.43647 0.14134 0.75118 0.0
H1796 H 0.41831 0.1853 0.69134 0.0
H1797 H 0.37006 0.10064 0.70661 0.0
H1798 H 0.48527 0.18878 0.69093 0.0
H1799 H 0.47876 0.20145 0.71331 0.0
H1800 H 0.46768 0.20843 0.69007 0.0
H1801 H 0.42601 0.08717 0.70985 0.0
H1802 H 0.39049 0.07532 0.71758 0.0
H1803 H 0.41943 0.09588 0.73384 0.0
C1804 C 0.86223 0.36396 0.73012 0.0
C1805 C 0.88921 0.38563 0.73404 0.0
C1806 C 0.8582 0.33912 0.72262 0.0
C1807 C 0.88177 0.33614 0.71871 0.0
C1808 C 0.90908 0.35823 0.72219 0.0
C1809 C 0.91246 0.38267 0.72997 0.0
C1810 C 0.82875 0.31589 0.71928 0.0
C1811 C 0.9347 0.35596 0.71786 0.0
C1812 C 0.87211 0.26487 0.71715 0.0
C1813 C 0.86974 0.25955 0.69681 0.0
C1814 C 0.87593 0.28971 0.7245 0.0
C1815 C 0.87784 0.30981 0.71117 0.0
C1816 C 0.87595 0.30473 0.69063 0.0
C1817 C 0.87176 0.27959 0.68375 0.0
C1818 C 0.87748 0.29426 0.74654 0.0
C1819 C 0.87834 0.32581 0.67591 0.0
H1820 H 0.84426 0.36621 0.73347 0.0
H1821 H 0.93334 0.39955 0.73287 0.0
H1822 H 0.82597 0.30914 0.70365 0.0
H1823 H 0.82497 0.29816 0.72849 0.0
H1824 H 0.81271 0.32161 0.72292 0.0
H1825 H 0.95447 0.37535 0.72076 0.0
H1826 H 0.93454 0.33969 0.72709 0.0
H1827 H 0.9345 0.35008 0.70221 0.0
H1828 H 0.87028 0.24935 0.72737 0.0
H1829 H 0.87043 0.27583 0.66812 0.0
H1830 H 0.86054 0.29818 0.75126 0.0
H1831 H 0.89767 0.31254 0.75053 0.0
H1832 H 0.87549 0.2765 0.7549 0.0
H1833 H 0.86148 0.33074 0.67847 0.0
H1834 H 0.87687 0.31879 0.66041 0.0
H1835 H 0.8986 0.34498 0.67791 0.0
C1836 C 0.19975 0.96051 0.63089 0.0
C1837 C 0.17215 0.95523 0.62894 0.0
C1838 C 0.22099 0.98556 0.63834 0.0
C1839 C 0.21458 0.00601 0.64372 0.0
C1840 C 0.18662 0.00062 0.64211 0.0
C1841 C 0.16568 0.97518 0.63487 0.0
C1842 C 0.25038 0.99027 0.64014 0.0
C1843 C 0.17899 0.02198 0.64751 0.0
C1844 C 0.26528 0.06408 0.67704 0.0
C1845 C 0.2807 0.08479 0.6634 0.0
C1846 C 0.2437 0.03836 0.67089 0.0
C1847 C 0.23729 0.03327 0.65054 0.0
C1848 C 0.25295 0.05411 0.63666 0.0
C1849 C 0.27461 0.07955 0.64325 0.0
C1850 C 0.2279 0.0166 0.68616 0.0
C1851 C 0.24664 0.04963 0.61485 0.0
H1852 H 0.20475 0.94501 0.62648 0.0
H1853 H 0.14441 0.97124 0.63321 0.0
H1854 H 0.26461 0.00718 0.63028 0.0
H1855 H 0.25821 0.99646 0.65545 0.0
H1856 H 0.25162 0.97182 0.63625 0.0
H1857 H 0.15621 0.01437 0.64589 0.0
H1858 H 0.18523 0.0288 0.66298 0.0
H1859 H 0.19061 0.04015 0.63795 0.0
H1860 H 0.27045 0.06776 0.69253 0.0
H1861 H 0.28639 0.09559 0.63264 0.0
H1862 H 0.23033 0.9986 0.68318 0.0
H1863 H 0.20522 0.00965 0.68528 0.0
H1864 H 0.2353 0.02393 0.70141 0.0
H1865 H 0.24927 0.03248 0.60957 0.0
H1866 H 0.26043 0.06805 0.60601 0.0
H1867 H 0.22453 0.04393 0.61209 0.0
C1868 C 0.02381 0.20107 0.6172 0.0
C1869 C 0.04768 0.20834 0.62881 0.0
C1870 C 0.99944 0.19918 0.6253 0.0
C1871 C 0.99853 0.20437 0.64566 0.0
C1872 C 0.02208 0.21058 0.65767 0.0
C1873 C 0.04634 0.21251 0.64913 0.0
C1874 C 0.9749 0.1924 0.61188 0.0
C1875 C 0.0218 0.21567 0.67949 0.0
C1876 C 0.94734 0.22888 0.65824 0.0
C1877 C 0.92341 0.20464 0.66389 0.0
C1878 C 0.97233 0.22932 0.65326 0.0
C1879 C 0.97352 0.20486 0.65388 0.0
C1880 C 0.94973 0.18051 0.6604 0.0
C1881 C 0.92487 0.18062 0.66499 0.0
C1882 C 0.99704 0.25575 0.64636 0.0
C1883 C 0.95 0.15402 0.66168 0.0
H1884 H 0.02424 0.19709 0.60159 0.0
H1885 H 0.06458 0.21816 0.65827 0.0
H1886 H 0.95575 0.17433 0.61754 0.0
H1887 H 0.97078 0.2097 0.61163 0.0
H1888 H 0.97856 0.1881 0.5965 0.0
H1889 H 0.0418 0.2205 0.68682 0.0
H1890 H 0.01785 0.23283 0.68201 0.0
H1891 H 1.00451 0.19733 0.68658 0.0
H1892 H 0.94623 0.24744 0.65714 0.0
H1893 H 0.90637 0.16165 0.66882 0.0
H1894 H 1.00107 0.25395 0.63054 0.0
H1895 H 0.01615 0.26005 0.65469 0.0
H1896 H 0.99353 0.27334 0.64813 0.0
H1897 H 0.94962 0.14623 0.64659 0.0
H1898 H 0.93166 0.13817 0.66993 0.0
H1899 H 0.96941 0.15722 0.66902 0.0
C1900 C 0.78797 0.83044 0.64052 0.0
C1901 C 0.79839 0.84041 0.62168 0.0
C1902 C 0.7909 0.80925 0.64877 0.0
C1903 C 0.80514 0.79838 0.63805 0.0
C1904 C 0.81627 0.80891 0.61919 0.0
C1905 C 0.81246 0.82962 0.61113 0.0
C1906 C 0.77833 0.79816 0.66876 0.0
C1907 C 0.83215 0.79827 0.60751 0.0
C1908 C 0.83495 0.76013 0.66532 0.0
C1909 C 0.8158 0.733 0.66023 0.0
C1910 C 0.83157 0.78162 0.6584 0.0
C1911 C 0.80822 0.77577 0.64637 0.0
C1912 C 0.78843 0.74836 0.6416 0.0
C1913 C 0.79264 0.72727 0.64842 0.0
C1914 C 0.85344 0.81059 0.66349 0.0
C1915 C 0.76298 0.74133 0.62912 0.0
H1916 H 0.77692 0.83877 0.64855 0.0
H1917 H 0.82064 0.83757 0.59659 0.0
H1918 H 0.76266 0.77612 0.66748 0.0
H1919 H 0.79479 0.80004 0.67912 0.0
H1920 H 0.76796 0.80892 0.67518 0.0
H1921 H 0.84045 0.80947 0.59343 0.0
H1922 H 0.84991 0.80003 0.61638 0.0
H1923 H 0.81825 0.77633 0.60409 0.0
H1924 H 0.85309 0.76466 0.67428 0.0
H1925 H 0.77772 0.7063 0.64459 0.0
H1926 H 0.84349 0.8213 0.67058 0.0
H1927 H 0.86368 0.82188 0.64979 0.0
H1928 H 0.86982 0.81155 0.67358 0.0
H1929 H 0.7512 0.75064 0.63555 0.0
H1930 H 0.7487 0.71895 0.62783 0.0
H1931 H 0.7696 0.74987 0.61409 0.0
C1932 C 0.02671 0.8282 0.64845 0.0
C1933 C 0.02745 0.83276 0.62806 0.0
C1934 C 1.0029 0.8065 0.65733 0.0
C1935 C 0.97941 0.78901 0.64553 0.0
C1936 C 0.97995 0.79399 0.62502 0.0
C1937 C 1.00392 0.81577 0.61657 0.0
C1938 C 1.003 0.80203 0.67925 0.0
C1939 C 0.95543 0.77591 0.61185 0.0
C1940 C 0.92851 0.71521 0.6587 0.0
C1941 C 0.90454 0.71636 0.66381 0.0
C1942 C 0.95362 0.739 0.65394 0.0
C1943 C 0.95471 0.76458 0.65417 0.0
C1944 C 0.93089 0.76596 0.66031 0.0
C1945 C 0.90597 0.74178 0.66478 0.0
C1946 C 0.97846 0.73652 0.64752 0.0
C1947 C 0.93114 0.79274 0.66109 0.0
H1948 H 0.04481 0.84132 0.65743 0.0
H1949 H 1.00443 0.81928 0.60082 0.0
H1950 H 0.98515 0.80268 0.68622 0.0
H1951 H 1.00021 0.78152 0.68214 0.0
H1952 H 0.02271 0.81759 0.68643 0.0
H1953 H 0.95885 0.78304 0.5963 0.0
H1954 H 0.95173 0.75474 0.61216 0.0
H1955 H 0.93614 0.77522 0.61734 0.0
H1956 H 0.92733 0.69552 0.65778 0.0
H1957 H 0.88734 0.74274 0.66834 0.0
H1958 H 0.99761 0.75152 0.65551 0.0
H1959 H 0.98225 0.74115 0.63154 0.0
H1960 H 0.9752 0.71574 0.6501 0.0
H1961 H 0.95044 0.80862 0.66845 0.0
H1962 H 0.91267 0.7909 0.66907 0.0
H1963 H 0.93099 0.79981 0.64586 0.0
C1964 C 0.18989 0.18148 0.61539 0.0
C1965 C 0.17375 0.18882 0.62712 0.0
C1966 C 0.21285 0.18023 0.62323 0.0
C1967 C 0.22003 0.18648 0.6434 0.0
C1968 C 0.20345 0.19344 0.65543 0.0
C1969 C 0.18049 0.1945 0.64717 0.0
C1970 C 0.22983 0.17281 0.60976 0.0
C1971 C 0.21007 0.19997 0.67698 0.0
C1972 C 0.26953 0.16304 0.66319 0.0
C1973 C 0.29568 0.18684 0.66137 0.0
C1974 C 0.24455 0.16297 0.65857 0.0
C1975 C 0.24575 0.18708 0.65137 0.0
C1976 C 0.27214 0.21128 0.64991 0.0
C1977 C 0.2967 0.21082 0.65486 0.0
C1978 C 0.217 0.13681 0.66072 0.0
C1979 C 0.27458 0.23744 0.6423 0.0
H1980 H 0.18476 0.17705 0.59988 0.0
H1981 H 0.16809 0.20011 0.65636 0.0
H1982 H 0.25165 0.19009 0.6089 0.0
H1983 H 0.23076 0.15505 0.61579 0.0
H1984 H 0.22104 0.16772 0.59458 0.0
H1985 H 0.19588 0.20597 0.68421 0.0
H1986 H 0.20812 0.18181 0.68466 0.0
H1987 H 0.23197 0.21679 0.67879 0.0
H1988 H 0.2686 0.14428 0.66781 0.0
H1989 H 0.31688 0.2292 0.65326 0.0
H1990 H 0.20833 0.12858 0.64589 0.0
H1991 H 0.20159 0.14065 0.66848 0.0
H1992 H 0.21926 0.12106 0.66899 0.0
H1993 H 0.26798 0.23482 0.6266 0.0
H1994 H 0.2963 0.25493 0.64343 0.0
H1995 H 0.26045 0.24248 0.65065 0.0
C1996 C 0.83797 0.00762 0.61045 0.0
C1997 C 0.8242 0.9828 0.62058 0.0
C1998 C 0.84006 0.03138 0.61856 0.0
C1999 C 0.82765 0.03007 0.63709 0.0
C2000 C 0.81354 0.00497 0.64734 0.0
C2001 C 0.81213 0.9816 0.639 0.0
C2002 C 0.85566 0.05789 0.60735 0.0
C2003 C 0.79984 0.00281 0.66705 0.0
C2004 C 0.8554 0.09586 0.66604 0.0
C2005 C 0.83582 0.10398 0.66138 0.0
C2006 C 0.85281 0.07172 0.6584 0.0
C2007 C 0.82996 0.05515 0.64589 0.0
C2008 C 0.80983 0.06294 0.64138 0.0
C2009 C 0.81312 0.08743 0.64909 0.0
C2010 C 0.87493 0.06433 0.66336 0.0
C2011 C 0.78501 0.04555 0.62827 0.0
H2012 H 0.84724 0.00846 0.59618 0.0
H2013 H 0.80122 0.96234 0.64679 0.0
H2014 H 0.84151 0.06608 0.60418 0.0
H2015 H 0.87318 0.07331 0.61647 0.0
H2016 H 0.86428 0.05544 0.59318 0.0
H2017 H 0.78924 0.98168 0.67293 0.0
H2018 H 0.81574 0.0165 0.67793 0.0
H2019 H 0.78418 0.00958 0.66563 0.0
H2020 H 0.87323 0.1087 0.67534 0.0
H2021 H 0.79791 0.09359 0.64548 0.0
H2022 H 0.88561 0.06371 0.64967 0.0
H2023 H 0.86511 0.0437 0.67003 0.0
H2024 H 0.89095 0.0791 0.67377 0.0
H2025 H 0.79234 0.04415 0.61331 0.0
H2026 H 0.7706 0.05387 0.62692 0.0
H2027 H 0.77314 0.0245 0.63419 0.0
C2028 C 0.51071 0.36546 0.71812 0.0
C2029 C 0.50058 0.38242 0.72469 0.0
C2030 C 0.49219 0.33853 0.71196 0.0
C2031 C 0.46295 0.3286 0.712 0.0
C2032 C 0.45275 0.34595 0.71817 0.0
C2033 C 0.47168 0.37252 0.72469 0.0
C2034 C 0.50385 0.3205 0.70585 0.0
C2035 C 0.42181 0.33641 0.71803 0.0
C2036 C 0.41561 0.26674 0.68037 0.0
C2037 C 0.40355 0.24601 0.6945 0.0
C2038 C 0.43508 0.29367 0.68581 0.0
C2039 C 0.44291 0.29995 0.70588 0.0
C2040 C 0.43093 0.27895 0.7202 0.0
C2041 C 0.41112 0.25229 0.71436 0.0
C2042 C 0.44681 0.3155 0.67013 0.0
C2043 C 0.43906 0.28465 0.74169 0.0
H2044 H 0.53305 0.37296 0.7183 0.0
H2045 H 0.46386 0.38564 0.72978 0.0
H2046 H 0.4954 0.30236 0.71559 0.0
H2047 H 0.49717 0.31296 0.69057 0.0
H2048 H 0.52708 0.33131 0.70656 0.0
H2049 H 0.41741 0.35284 0.72236 0.0
H2050 H 0.41299 0.32896 0.70309 0.0
H2051 H 0.41069 0.31906 0.72835 0.0
H2052 H 0.40919 0.26208 0.66511 0.0
H2053 H 0.40186 0.23621 0.72529 0.0
H2054 H 0.47001 0.32594 0.67015 0.0
H2055 H 0.44088 0.33118 0.67339 0.0
H2056 H 0.43912 0.30712 0.65513 0.0
H2057 H 0.46209 0.29408 0.74329 0.0
H2058 H 0.42878 0.26586 0.75082 0.0
H2059 H 0.43321 0.29941 0.74759 0.0
C2060 C 0.65675 0.14867 0.71141 0.0
C2061 C 0.65603 0.15314 0.73172 0.0
C2062 C 0.68072 0.1502 0.70261 0.0
C2063 C 0.70456 0.15649 0.71436 0.0
C2064 C 0.70398 0.16156 0.73479 0.0
C2065 C 0.67983 0.1598 0.74316 0.0
C2066 C 0.68051 0.14514 0.68076 0.0
C2067 C 0.72872 0.16824 0.74798 0.0
C2068 C 0.75617 0.13265 0.70157 0.0
C2069 C 0.7799 0.15697 0.69577 0.0
C2070 C 0.73106 0.13194 0.70654 0.0
C2071 C 0.72956 0.15623 0.70588 0.0
C2072 C 0.75315 0.18066 0.6992 0.0
C2073 C 0.77813 0.18082 0.69447 0.0
C2074 C 0.70648 0.10537 0.71337 0.0
C2075 C 0.75243 0.20691 0.69783 0.0
H2076 H 0.63853 0.14368 0.70243 0.0
H2077 H 0.67942 0.16334 0.75885 0.0
H2078 H 0.69481 0.16468 0.67331 0.0
H2079 H 0.68823 0.13077 0.67767 0.0
H2080 H 0.6593 0.1368 0.67422 0.0
H2081 H 0.72535 0.17258 0.76341 0.0
H2082 H 0.73274 0.15087 0.7481 0.0
H2083 H 0.74782 0.18625 0.7422 0.0
H2084 H 0.75749 0.1142 0.70266 0.0
H2085 H 0.79651 0.19979 0.69029 0.0
H2086 H 0.68736 0.10097 0.70499 0.0
H2087 H 0.70234 0.10702 0.72918 0.0
H2088 H 0.71018 0.08791 0.71155 0.0
H2089 H 0.7334 0.20348 0.68978 0.0
H2090 H 0.77115 0.2232 0.69019 0.0
H2091 H 0.7515 0.21414 0.71288 0.0
C2092 C 0.86731 0.50836 0.71859 0.0
C2093 C 0.85803 0.49956 0.73786 0.0
C2094 C 0.8647 0.52961 0.71011 0.0
C2095 C 0.85219 0.54199 0.7211 0.0
C2096 C 0.84223 0.53273 0.7404 0.0
C2097 C 0.84551 0.51175 0.74862 0.0
C2098 C 0.87584 0.53918 0.68957 0.0
C2099 C 0.82834 0.54515 0.75244 0.0
C2100 C 0.86884 0.61388 0.70834 0.0
C2101 C 0.84542 0.60883 0.69708 0.0
C2102 C 0.87152 0.59226 0.716 0.0
C2103 C 0.85001 0.56502 0.71257 0.0
C2104 C 0.82627 0.55983 0.70124 0.0
C2105 C 0.82435 0.58179 0.69353 0.0
C2106 C 0.89733 0.59856 0.7278 0.0
C2107 C 0.80268 0.53111 0.69751 0.0
H2108 H 0.8772 0.49911 0.71027 0.0
H2109 H 0.83834 0.50489 0.76352 0.0
H2110 H 0.85893 0.53771 0.67985 0.0
H2111 H 0.89249 0.56096 0.69002 0.0
H2112 H 0.88461 0.52712 0.68288 0.0
H2113 H 0.82067 0.53481 0.76687 0.0
H2114 H 0.84337 0.56706 0.75518 0.0
H2115 H 0.8104 0.54396 0.74414 0.0
H2116 H 0.8852 0.63471 0.71106 0.0
H2117 H 0.80596 0.57774 0.68506 0.0
H2118 H 0.90787 0.58815 0.72113 0.0
H2119 H 0.89132 0.59068 0.74304 0.0
H2120 H 0.91254 0.6208 0.72857 0.0
H2121 H 0.81081 0.51891 0.69022 0.0
H2122 H 0.78591 0.53061 0.68809 0.0
H2123 H 0.79334 0.52106 0.71175 0.0
C2124 C 0.44802 0.93759 0.23459 0.0
C2125 C 0.44834 0.91335 0.23829 0.0
C2126 C 0.45685 0.95103 0.21635 0.0
C2127 C 0.46606 0.93989 0.20134 0.0
C2128 C 0.46582 0.91508 0.20483 0.0
C2129 C 0.45708 0.90219 0.22327 0.0
C2130 C 0.45703 0.97755 0.21333 0.0
C2131 C 0.47518 0.90236 0.18919 0.0
C2132 C 0.47018 0.9662 0.14891 0.0
C2133 C 0.49872 0.98578 0.14735 0.0
C2134 C 0.45931 0.9507 0.16622 0.0
C2135 C 0.47734 0.95498 0.18243 0.0
C2136 C 0.50622 0.97427 0.18078 0.0
C2137 C 0.51655 0.98925 0.16328 0.0
C2138 C 0.42843 0.93016 0.16732 0.0
C2139 C 0.52621 0.97947 0.19766 0.0
H2140 H 0.44155 0.94647 0.24618 0.0
H2141 H 0.45703 0.88328 0.22593 0.0
H2142 H 0.47881 0.99432 0.21091 0.0
H2143 H 0.44478 0.97625 0.19997 0.0
H2144 H 0.44819 0.98295 0.22615 0.0
H2145 H 0.47234 0.88231 0.19383 0.0
H2146 H 0.46325 0.89951 0.17534 0.0
H2147 H 0.49763 0.91619 0.18579 0.0
H2148 H 0.45616 0.96347 0.1368 0.0
H2149 H 0.53872 0.00386 0.16212 0.0
H2150 H 0.41852 0.93639 0.17888 0.0
H2151 H 0.42526 0.90987 0.17156 0.0
H2152 H 0.41752 0.92811 0.15309 0.0
H2153 H 0.51974 0.98673 0.21077 0.0
H2154 H 0.54814 0.9949 0.19394 0.0
H2155 H 0.52558 0.96023 0.2019 0.0
C2156 C 0.09371 0.54572 0.21961 0.0
C2157 C 0.11569 0.54204 0.22621 0.0
C2158 C 0.08241 0.53734 0.20064 0.0
C2159 C 0.09344 0.52505 0.18804 0.0
C2160 C 0.11645 0.52239 0.19432 0.0
C2161 C 0.1273 0.53092 0.21336 0.0
C2162 C 0.05783 0.54044 0.19444 0.0
C2163 C 0.12885 0.5095 0.18126 0.0
C2164 C 0.04485 0.47361 0.15039 0.0
C2165 C 0.05309 0.48888 0.13294 0.0
C2166 C 0.05774 0.48524 0.16841 0.0
C2167 C 0.07945 0.51283 0.16899 0.0
C2168 C 0.08788 0.52842 0.15144 0.0
C2169 C 0.07454 0.51624 0.13358 0.0
C2170 C 0.04806 0.46801 0.18686 0.0
C2171 C 0.11103 0.55787 0.15154 0.0
H2172 H 0.08455 0.55411 0.22957 0.0
H2173 H 0.14459 0.52844 0.21835 0.0
H2174 H 0.06175 0.55039 0.17978 0.0
H2175 H 0.03887 0.51999 0.19303 0.0
H2176 H 0.05341 0.55263 0.2052 0.0
H2177 H 0.14809 0.51099 0.18773 0.0
H2178 H 0.11327 0.48762 0.17894 0.0
H2179 H 0.134 0.51939 0.16656 0.0
H2180 H 0.02793 0.45259 0.14999 0.0
H2181 H 0.08106 0.52803 0.12008 0.0
H2182 H 0.0408 0.47758 0.1979 0.0
H2183 H 0.06578 0.4668 0.19357 0.0
H2184 H 0.03076 0.44694 0.18387 0.0
H2185 H 0.10575 0.56991 0.16182 0.0
H2186 H 0.1148 0.56727 0.13666 0.0
H2187 H 0.13074 0.55933 0.15694 0.0
C2188 C 0.49982 0.55874 0.23466 0.0
C2189 C 0.47261 0.55358 0.23861 0.0
C2190 C 0.50635 0.55093 0.21667 0.0
C2191 C 0.48513 0.53738 0.2023 0.0
C2192 C 0.45761 0.53202 0.20617 0.0
C2193 C 0.4517 0.54025 0.22425 0.0
C2194 C 0.53596 0.55703 0.21312 0.0
C2195 C 0.43441 0.51754 0.19124 0.0
C2196 C 0.50897 0.53818 0.14953 0.0
C2197 C 0.50783 0.51289 0.14829 0.0
C2198 C 0.50114 0.54623 0.16689 0.0
C2199 C 0.49179 0.52848 0.18336 0.0
C2200 C 0.48992 0.50264 0.18201 0.0
C2201 C 0.49804 0.4952 0.16452 0.0
C2202 C 0.50359 0.57401 0.1678 0.0
C2203 C 0.4798 0.48302 0.19915 0.0
H2204 H 0.51601 0.56859 0.24577 0.0
H2205 H 0.43071 0.53648 0.22707 0.0
H2206 H 0.53619 0.53771 0.21086 0.0
H2207 H 0.54435 0.56932 0.1995 0.0
H2208 H 0.55019 0.56832 0.2256 0.0
H2209 H 0.41412 0.51485 0.19652 0.0
H2210 H 0.44 0.52924 0.17725 0.0
H2211 H 0.43167 0.49716 0.18783 0.0
H2212 H 0.51675 0.55203 0.1371 0.0
H2213 H 0.49674 0.47547 0.16353 0.0
H2214 H 0.51927 0.58671 0.17915 0.0
H2215 H 0.48331 0.57205 0.17224 0.0
H2216 H 0.50999 0.58486 0.15344 0.0
H2217 H 0.49429 0.49218 0.21185 0.0
H2218 H 0.47836 0.46324 0.19542 0.0
H2219 H 0.45888 0.47906 0.204 0.0
C2220 C 0.9233 0.46627 0.80318 0.0
C2221 C 0.9315 0.45584 0.78737 0.0
C2222 C 0.93962 0.47579 0.82036 0.0
C2223 C 0.96457 0.47455 0.82183 0.0
C2224 C 0.97311 0.46427 0.80589 0.0
C2225 C 0.95657 0.4552 0.7888 0.0
C2226 C 0.92996 0.48681 0.83704 0.0
C2227 C 0.99954 0.46254 0.80698 0.0
C2228 C 0.01886 0.51871 0.86005 0.0
C2229 C 0.01271 0.50013 0.8755 0.0
C2230 C 1.00332 0.51069 0.84247 0.0
C2231 C 0.98137 0.48338 0.84027 0.0
C2232 C 0.97533 0.46445 0.85573 0.0
C2233 C 0.99101 0.47311 0.87322 0.0
C2234 C 0.01012 0.53149 0.82636 0.0
C2235 C 0.95231 0.43507 0.85382 0.0
H2236 H 0.90379 0.46652 0.80229 0.0
H2237 H 0.96331 0.44763 0.77651 0.0
H2238 H 0.92559 0.47382 0.85029 0.0
H2239 H 0.94673 0.50768 0.84107 0.0
H2240 H 0.91076 0.48754 0.83319 0.0
H2241 H 1.00336 0.45422 0.79322 0.0
H2242 H 0.01784 0.48306 0.8098 0.0
H2243 H 0.99819 0.44929 0.81948 0.0
H2244 H 0.03546 0.53969 0.8619 0.0
H2245 H 0.98644 0.45868 0.88511 0.0
H2246 H 0.99154 0.5336 0.82322 0.0
H2247 H 0.01538 0.52454 0.81254 0.0
H2248 H 0.02794 0.55186 0.83037 0.0
H2249 H 0.93192 0.4341 0.8514 0.0
H2250 H 0.9506 0.42286 0.8671 0.0
H2251 H 0.95619 0.42553 0.84079 0.0
C2252 C 0.55537 0.4669 0.79958 0.0
C2253 C 0.58121 0.47064 0.79307 0.0
C2254 C 0.55158 0.47219 0.81924 0.0
C2255 C 0.57418 0.48151 0.83273 0.0
C2256 C 0.59981 0.48386 0.82652 0.0
C2257 C 0.60302 0.4784 0.80677 0.0
C2258 C 0.52392 0.46945 0.82523 0.0
C2259 C 0.62438 0.49361 0.84046 0.0
C2260 C 0.57814 0.52986 0.87303 0.0
C2261 C 0.56885 0.51289 0.88966 0.0
C2262 C 0.57991 0.51982 0.85451 0.0
C2263 C 0.57215 0.49201 0.85246 0.0
C2264 C 0.5625 0.47462 0.86913 0.0
C2265 C 0.56088 0.48526 0.88756 0.0
C2266 C 0.59011 0.53905 0.83712 0.0
C2267 C 0.55409 0.44488 0.86751 0.0
H2268 H 0.53848 0.46112 0.78907 0.0
H2269 H 0.62288 0.48086 0.80192 0.0
H2270 H 0.51653 0.45803 0.83929 0.0
H2271 H 0.52663 0.49002 0.82773 0.0
H2272 H 0.50749 0.45887 0.8138 0.0
H2273 H 0.64165 0.49134 0.83405 0.0
H2274 H 0.63261 0.51548 0.84401 0.0
H2275 H 0.61773 0.48215 0.85454 0.0
H2276 H 0.58381 0.5511 0.87446 0.0
H2277 H 0.55383 0.4721 0.90039 0.0
H2278 H 0.57385 0.53145 0.8254 0.0
H2279 H 0.60905 0.5399 0.83073 0.0
H2280 H 0.59531 0.56009 0.84121 0.0
H2281 H 0.53708 0.43458 0.85645 0.0
H2282 H 0.54681 0.43402 0.88181 0.0
H2283 H 0.5721 0.44298 0.86227 0.0
C2284 C 0.5456 0.07891 0.79176 0.0
C2285 C 0.54149 0.10121 0.78888 0.0
C2286 C 0.53774 0.06408 0.8095 0.0
C2287 C 0.52568 0.07184 0.82484 0.0
C2288 C 0.52224 0.09484 0.82223 0.0
C2289 C 0.53004 0.10914 0.80427 0.0
C2290 C 0.54154 0.03955 0.81159 0.0
C2291 C 0.50979 0.10403 0.83827 0.0
C2292 C 0.47778 0.0168 0.86095 0.0
C2293 C 0.49556 0.0215 0.87715 0.0
C2294 C 0.48728 0.0331 0.84396 0.0
C2295 C 0.51523 0.05499 0.84313 0.0
C2296 C 0.53314 0.06035 0.85959 0.0
C2297 C 0.52315 0.04351 0.87635 0.0
C2298 C 0.46746 0.02664 0.82677 0.0
C2299 C 0.563 0.08363 0.85936 0.0
H2300 H 0.55417 0.0725 0.77988 0.0
H2301 H 0.52712 0.12657 0.80223 0.0
H2302 H 0.55377 0.04146 0.8251 0.0
H2303 H 0.5208 0.02083 0.81317 0.0
H2304 H 0.55241 0.03693 0.79869 0.0
H2305 H 0.51012 0.12327 0.83441 0.0
H2306 H 0.48778 0.08797 0.84096 0.0
H2307 H 0.52144 0.10716 0.85229 0.0
H2308 H 0.45627 0.00026 0.86152 0.0
H2309 H 0.53719 0.04721 0.88866 0.0
H2310 H 0.47606 0.02199 0.81348 0.0
H2311 H 0.46525 0.04462 0.82324 0.0
H2312 H 0.44634 0.00899 0.82978 0.0
H2313 H 0.57487 0.08017 0.84761 0.0
H2314 H 0.57381 0.08597 0.87368 0.0
H2315 H 0.56351 0.10304 0.85591 0.0
C2316 C 0.11431 0.26863 0.56911 0.0
C2317 C 0.11536 0.24462 0.57213 0.0
C2318 C 0.12303 0.28295 0.5512 0.0
C2319 C 0.13297 0.27301 0.53584 0.0
C2320 C 0.13368 0.24855 0.53868 0.0
C2321 C 0.12496 0.23472 0.55679 0.0
C2322 C 0.12214 0.30905 0.54887 0.0
C2323 C 0.1439 0.23714 0.52264 0.0
C2324 C 0.13546 0.30064 0.48411 0.0
C2325 C 0.16364 0.32121 0.48264 0.0
C2326 C 0.12528 0.28439 0.50115 0.0
C2327 C 0.14366 0.28886 0.51715 0.0
C2328 C 0.17223 0.30915 0.51557 0.0
C2329 C 0.18186 0.32495 0.49836 0.0
C2330 C 0.09472 0.26285 0.50219 0.0
C2331 C 0.19257 0.31457 0.53225 0.0
H2332 H 0.10723 0.27659 0.58095 0.0
H2333 H 0.12551 0.216 0.55892 0.0
H2334 H 0.14364 0.32639 0.54652 0.0
H2335 H 0.10958 0.30773 0.53568 0.0
H2336 H 0.11305 0.31359 0.56196 0.0
H2337 H 0.14216 0.21739 0.52688 0.0
H2338 H 0.13169 0.23409 0.50891 0.0
H2339 H 0.16612 0.25188 0.51922 0.0
H2340 H 0.12113 0.29772 0.47217 0.0
H2341 H 0.20378 0.34038 0.49724 0.0
H2342 H 0.08436 0.26803 0.51409 0.0
H2343 H 0.09252 0.24278 0.50592 0.0
H2344 H 0.08352 0.26083 0.4881 0.0
H2345 H 0.1858 0.32104 0.54561 0.0
H2346 H 0.21424 0.33066 0.52854 0.0
H2347 H 0.19278 0.2956 0.53605 0.0
C2348 C 0.76315 0.85592 0.55166 0.0
C2349 C 0.75963 0.87072 0.56691 0.0
C2350 C 0.74744 0.84985 0.5342 0.0
C2351 C 0.72793 0.85898 0.53192 0.0
C2352 C 0.72439 0.87405 0.54719 0.0
C2353 C 0.74017 0.87961 0.56454 0.0
C2354 C 0.75169 0.83366 0.51821 0.0
C2355 C 0.70383 0.8842 0.54524 0.0
C2356 C 0.70504 0.86532 0.48038 0.0
C2357 C 0.67858 0.84181 0.47911 0.0
C2358 C 0.72143 0.87109 0.49745 0.0
C2359 C 0.71114 0.85279 0.51356 0.0
C2360 C 0.68453 0.82891 0.5123 0.0
C2361 C 0.66849 0.82376 0.49509 0.0
C2362 C 0.7496 0.8969 0.49835 0.0
C2363 C 0.67301 0.80882 0.52914 0.0
H2364 H 0.77839 0.84927 0.55331 0.0
H2365 H 0.73698 0.89063 0.5764 0.0
H2366 H 0.73159 0.81484 0.51492 0.0
H2367 H 0.75863 0.84577 0.50442 0.0
H2368 H 0.76747 0.8278 0.5224 0.0
H2369 H 0.70398 0.89609 0.55835 0.0
H2370 H 0.70882 0.8973 0.53198 0.0
H2371 H 0.68234 0.86668 0.54322 0.0
H2372 H 0.71274 0.87944 0.46809 0.0
H2373 H 0.64817 0.8054 0.49403 0.0
H2374 H 0.76628 0.89187 0.50142 0.0
H2375 H 0.74987 0.91004 0.51062 0.0
H2376 H 0.75473 0.90874 0.48441 0.0
H2377 H 0.68771 0.80144 0.53282 0.0
H2378 H 0.65221 0.79094 0.52563 0.0
H2379 H 0.67095 0.81903 0.5425 0.0
C2380 C 0.17047 0.89213 0.56998 0.0
C2381 C 0.14358 0.88827 0.57321 0.0
C2382 C 0.17753 0.88475 0.55202 0.0
C2383 C 0.15711 0.87284 0.53694 0.0
C2384 C 0.12983 0.86857 0.54012 0.0
C2385 C 0.12343 0.87646 0.55817 0.0
C2386 C 0.20688 0.88972 0.54919 0.0
C2387 C 0.10743 0.85575 0.52444 0.0
C2388 C 0.18338 0.87608 0.48457 0.0
C2389 C 0.18124 0.85042 0.48262 0.0
C2390 C 0.17521 0.88352 0.50206 0.0
C2391 C 0.16438 0.86473 0.51789 0.0
C2392 C 0.1615 0.83854 0.51579 0.0
C2393 C 0.1701 0.83176 0.49822 0.0
C2394 C 0.17887 0.91173 0.5038 0.0
C2395 C 0.14968 0.8178 0.5322 0.0
H2396 H 0.18605 0.90077 0.5816 0.0
H2397 H 0.10271 0.8737 0.56038 0.0
H2398 H 0.20625 0.8701 0.5464 0.0
H2399 H 0.21657 0.90284 0.53609 0.0
H2400 H 0.22047 0.8997 0.56222 0.0
H2401 H 0.0871 0.85332 0.52937 0.0
H2402 H 0.11416 0.86848 0.51094 0.0
H2403 H 0.10423 0.83539 0.52034 0.0
H2404 H 0.19219 0.89064 0.47261 0.0
H2405 H 0.16808 0.81177 0.49666 0.0
H2406 H 0.19394 0.92315 0.51582 0.0
H2407 H 0.15869 0.91036 0.50774 0.0
H2408 H 0.18666 0.92357 0.48991 0.0
H2409 H 0.16349 0.82562 0.54535 0.0
H2410 H 0.14758 0.7979 0.52787 0.0
H2411 H 0.1288 0.81438 0.53662 0.0
C2412 C 0.58252 0.76316 0.1375 0.0
C2413 C 0.58987 0.78156 0.12182 0.0
C2414 C 0.59789 0.77082 0.15513 0.0
C2415 C 0.6214 0.79736 0.15692 0.0
C2416 C 0.62866 0.81617 0.14121 0.0
C2417 C 0.61262 0.80807 0.12385 0.0
C2418 C 0.58925 0.75038 0.17171 0.0
C2419 C 0.65383 0.84451 0.14251 0.0
C2420 C 0.64982 0.82394 0.20814 0.0
C2421 C 0.67148 0.8178 0.20969 0.0
C2422 C 0.63336 0.81747 0.19103 0.0
C2423 C 0.63903 0.80502 0.17496 0.0
C2424 C 0.66119 0.79928 0.17622 0.0
C2425 C 0.67698 0.80551 0.19363 0.0
C2426 C 0.6097 0.82365 0.19025 0.0
C2427 C 0.66801 0.78623 0.15927 0.0
H2428 H 0.56474 0.74272 0.13592 0.0
H2429 H 0.61838 0.82219 0.11161 0.0
H2430 H 0.60602 0.74541 0.17455 0.0
H2431 H 0.58631 0.75924 0.18551 0.0
H2432 H 0.56953 0.73114 0.16836 0.0
H2433 H 0.65601 0.85696 0.12926 0.0
H2434 H 0.65232 0.85525 0.15574 0.0
H2435 H 0.67313 0.84314 0.14412 0.0
H2436 H 0.64573 0.83389 0.22031 0.0
H2437 H 0.69336 0.8003 0.19477 0.0
H2438 H 0.58955 0.80452 0.18776 0.0
H2439 H 0.61275 0.8374 0.17769 0.0
H2440 H 0.60805 0.83339 0.20404 0.0
H2441 H 0.64998 0.7656 0.15629 0.0
H2442 H 0.68675 0.7843 0.16228 0.0
H2443 H 0.67177 0.79847 0.14566 0.0
C2444 C 0.26848 0.82128 0.13815 0.0
C2445 C 0.24609 0.80869 0.12478 0.0
C2446 C 0.26453 0.82832 0.15724 0.0
C2447 C 0.23754 0.82267 0.16314 0.0
C2448 C 0.21467 0.80924 0.14993 0.0
C2449 C 0.21922 0.80238 0.1309 0.0
C2450 C 0.28944 0.84252 0.1709 0.0
C2451 C 0.1856 0.80295 0.15567 0.0
C2452 C 0.22612 0.82698 0.2181 0.0
C2453 C 0.23098 0.85372 0.21977 0.0
C2454 C 0.22752 0.81627 0.19968 0.0
C2455 C 0.2338 0.83268 0.18258 0.0
C2456 C 0.23788 0.85938 0.18414 0.0
C2457 C 0.23643 0.86955 0.20269 0.0
C2458 C 0.22307 0.78772 0.19858 0.0
C2459 C 0.24443 0.87748 0.16626 0.0
H2460 H 0.2892 0.82578 0.1336 0.0
H2461 H 0.20188 0.79282 0.12059 0.0
H2462 H 0.29364 0.86347 0.17414 0.0
H2463 H 0.28494 0.83151 0.18516 0.0
H2464 H 0.30866 0.84394 0.1645 0.0
H2465 H 0.16972 0.79055 0.14431 0.0
H2466 H 0.17944 0.7918 0.16989 0.0
H2467 H 0.18536 0.82228 0.15781 0.0
H2468 H 0.22203 0.81473 0.23128 0.0
H2469 H 0.2397 0.89006 0.20387 0.0
H2470 H 0.24272 0.78854 0.19384 0.0
H2471 H 0.20682 0.77555 0.1874 0.0
H2472 H 0.21662 0.777 0.21299 0.0
H2473 H 0.26466 0.88167 0.15979 0.0
H2474 H 0.24579 0.89728 0.16987 0.0
H2475 H 0.2281 0.86701 0.15478 0.0
C2476 C 0.22238 0.43726 0.13506 0.0
C2477 C 0.20066 0.42981 0.12129 0.0
C2478 C 0.21729 0.42448 0.15362 0.0
C2479 C 0.18981 0.40383 0.15862 0.0
C2480 C 0.16776 0.39658 0.14493 0.0
C2481 C 0.17345 0.4095 0.12648 0.0
C2482 C 0.24138 0.43277 0.16778 0.0
C2483 C 0.13814 0.37469 0.1496 0.0
C2484 C 0.1765 0.34855 0.19598 0.0
C2485 C 0.16732 0.35685 0.21252 0.0
C2486 C 0.18495 0.36422 0.17866 0.0
C2487 C 0.18408 0.3888 0.17772 0.0
C2488 C 0.17578 0.3978 0.1946 0.0
C2489 C 0.1676 0.38177 0.21182 0.0
C2490 C 0.19392 0.35397 0.16112 0.0
C2491 C 0.17442 0.42379 0.1942 0.0
H2492 H 0.2434 0.45311 0.13134 0.0
H2493 H 0.15657 0.40316 0.11588 0.0
H2494 H 0.23668 0.4391 0.1821 0.0
H2495 H 0.24433 0.41508 0.17073 0.0
H2496 H 0.26131 0.44979 0.16198 0.0
H2497 H 0.12312 0.37238 0.13778 0.0
H2498 H 0.13728 0.35482 0.15159 0.0
H2499 H 0.13122 0.37952 0.16364 0.0
H2500 H 0.17678 0.32954 0.19653 0.0
H2501 H 0.16038 0.38824 0.22448 0.0
H2502 H 0.21457 0.37013 0.15566 0.0
H2503 H 0.17865 0.3488 0.1489 0.0
H2504 H 0.1954 0.33556 0.16468 0.0
H2505 H 0.19449 0.441 0.18883 0.0
H2506 H 0.16982 0.42916 0.20896 0.0
H2507 H 0.15781 0.42143 0.18377 0.0
C2508 C 0.79649 0.5896 0.8956 0.0
C2509 C 0.76966 0.56906 0.90125 0.0
C2510 C 0.80155 0.6008 0.8765 0.0
C2511 C 0.77928 0.59117 0.86268 0.0
C2512 C 0.75238 0.56983 0.86812 0.0
C2513 C 0.7479 0.5591 0.8873 0.0
C2514 C 0.83048 0.62361 0.87135 0.0
C2515 C 0.72807 0.55881 0.85384 0.0
C2516 C 0.77926 0.63761 0.82225 0.0
C2517 C 0.78601 0.62756 0.80546 0.0
C2518 C 0.77796 0.62655 0.841 0.0
C2519 C 0.78338 0.60471 0.84308 0.0
C2520 C 0.79114 0.59505 0.82628 0.0
C2521 C 0.7925 0.60669 0.80765 0.0
C2522 C 0.76993 0.63773 0.8585 0.0
C2523 C 0.79701 0.57176 0.82786 0.0
H2524 H 0.81336 0.59753 0.90632 0.0
H2525 H 0.72723 0.54292 0.89145 0.0
H2526 H 0.8377 0.61891 0.85739 0.0
H2527 H 0.82991 0.64273 0.86897 0.0
H2528 H 0.84601 0.62727 0.88313 0.0
H2529 H 0.70897 0.54101 0.8599 0.0
H2530 H 0.72305 0.57503 0.85023 0.0
H2531 H 0.73372 0.5526 0.83984 0.0
H2532 H 0.77464 0.65403 0.82067 0.0
H2533 H 0.79761 0.59879 0.7947 0.0
H2534 H 0.78572 0.64359 0.87042 0.0
H2535 H 0.74958 0.62173 0.8645 0.0
H2536 H 0.76803 0.65581 0.8546 0.0
H2537 H 0.81276 0.57604 0.83958 0.0
H2538 H 0.80475 0.56795 0.81376 0.0
H2539 H 0.77757 0.55287 0.83211 0.0
C2540 C 0.40248 0.1806 0.9006 0.0
C2541 C 0.42938 0.20362 0.9012 0.0
C2542 C 0.38575 0.17434 0.88365 0.0
C2543 C 0.39624 0.19149 0.86694 0.0
C2544 C 0.42347 0.2146 0.86739 0.0
C2545 C 0.43972 0.22041 0.88455 0.0
C2546 C 0.35675 0.14958 0.8837 0.0
C2547 C 0.43539 0.23326 0.84979 0.0
C2548 C 0.36339 0.1639 0.81687 0.0
C2549 C 0.34619 0.17544 0.81456 0.0
C2550 C 0.37965 0.16877 0.83392 0.0
C2551 C 0.37858 0.1855 0.84904 0.0
C2552 C 0.36099 0.19691 0.84693 0.0
C2553 C 0.34503 0.19177 0.82969 0.0
C2554 C 0.39815 0.15623 0.8357 0.0
C2555 C 0.35935 0.21488 0.86276 0.0
H2556 H 0.39431 0.16777 0.91353 0.0
H2557 H 0.46064 0.23803 0.8849 0.0
H2558 H 0.34091 0.15594 0.88134 0.0
H2559 H 0.35455 0.13571 0.87138 0.0
H2560 H 0.35196 0.13804 0.89776 0.0
H2561 H 0.45707 0.2502 0.85248 0.0
H2562 H 0.43552 0.22146 0.83674 0.0
H2563 H 0.422 0.24213 0.84607 0.0
H2564 H 0.36406 0.15095 0.80533 0.0
H2565 H 0.33206 0.20104 0.82787 0.0
H2566 H 0.39259 0.1434 0.84913 0.0
H2567 H 0.42034 0.17254 0.83728 0.0
H2568 H 0.39633 0.14345 0.8227 0.0
H2569 H 0.35328 0.20383 0.87703 0.0
H2570 H 0.34403 0.22153 0.85908 0.0
H2571 H 0.38022 0.23328 0.86489 0.0
C2572 C 0.81273 0.23951 0.88637 0.0
C2573 C 0.80137 0.22095 0.90202 0.0
C2574 C 0.82064 0.23225 0.86873 0.0
C2575 C 0.81733 0.20588 0.86675 0.0
C2576 C 0.80511 0.18679 0.88228 0.0
C2577 C 0.79714 0.19453 0.89972 0.0
C2578 C 0.83324 0.25307 0.85241 0.0
C2579 C 0.80143 0.15855 0.88078 0.0
C2580 C 0.82143 0.18062 0.8155 0.0
C2581 C 0.84939 0.18657 0.81485 0.0
C2582 C 0.81066 0.18675 0.83228 0.0
C2583 C 0.82816 0.19887 0.8489 0.0
C2584 C 0.85631 0.20474 0.8484 0.0
C2585 C 0.8666 0.19867 0.83137 0.0
C2586 C 0.78059 0.18034 0.83221 0.0
C2587 C 0.87564 0.21763 0.86584 0.0
H2588 H 0.81571 0.25986 0.88805 0.0
H2589 H 0.78858 0.18023 0.91186 0.0
H2590 H 0.85536 0.25856 0.85009 0.0
H2591 H 0.82191 0.24436 0.83835 0.0
H2592 H 0.83263 0.272 0.85575 0.0
H2593 H 0.79006 0.14561 0.89365 0.0
H2594 H 0.78978 0.14826 0.86713 0.0
H2595 H 0.82225 0.16007 0.87984 0.0
H2596 H 0.80784 0.17091 0.80293 0.0
H2597 H 0.88833 0.20377 0.83092 0.0
H2598 H 0.7797 0.19926 0.83483 0.0
H2599 H 0.76893 0.16605 0.84438 0.0
H2600 H 0.76978 0.17108 0.81806 0.0
H2601 H 0.87806 0.23795 0.86899 0.0
H2602 H 0.89672 0.22019 0.8633 0.0
H2603 H 0.86649 0.2049 0.87918 0.0
C2604 C 0.28415 0.14725 0.45801 0.0
C2605 C 0.26103 0.12095 0.45608 0.0
C2606 C 0.30015 0.15524 0.4754 0.0
C2607 C 0.29241 0.13658 0.49125 0.0
C2608 C 0.26847 0.11029 0.48956 0.0
C2609 C 0.2532 0.1027 0.47188 0.0
C2610 C 0.32582 0.18326 0.47656 0.0
C2611 C 0.25928 0.09003 0.50629 0.0
C2612 C 0.34723 0.14331 0.52816 0.0
C2613 C 0.34223 0.15612 0.54412 0.0
C2614 C 0.33157 0.13741 0.51071 0.0
C2615 C 0.31003 0.14402 0.50929 0.0
C2616 C 0.30489 0.15702 0.52527 0.0
C2617 C 0.32122 0.16314 0.54243 0.0
C2618 C 0.33783 0.12376 0.49387 0.0
C2619 C 0.28188 0.16409 0.52435 0.0
H2620 H 0.29024 0.16124 0.44566 0.0
H2621 H 0.23515 0.08241 0.47035 0.0
H2622 H 0.32473 0.19436 0.48972 0.0
H2623 H 0.34477 0.1813 0.47821 0.0
H2624 H 0.32832 0.19569 0.46323 0.0
H2625 H 0.23919 0.07111 0.50304 0.0
H2626 H 0.27554 0.08438 0.50919 0.0
H2627 H 0.25679 0.09933 0.52001 0.0
H2628 H 0.36307 0.13739 0.52941 0.0
H2629 H 0.31753 0.17348 0.55453 0.0
H2630 H 0.34187 0.13588 0.48017 0.0
H2631 H 0.31944 0.10331 0.49102 0.0
H2632 H 0.35624 0.1213 0.49694 0.0
H2633 H 0.28532 0.17779 0.51167 0.0
H2634 H 0.28064 0.17426 0.53804 0.0
H2635 H 0.2614 0.14529 0.52197 0.0
C2636 C 0.8837 0.11986 0.46559 0.0
C2637 C 0.91108 0.13625 0.45831 0.0
C2638 C 0.87589 0.12454 0.48424 0.0
C2639 C 0.89507 0.14753 0.49536 0.0
C2640 C 0.92295 0.16352 0.48867 0.0
C2641 C 0.93087 0.15698 0.47069 0.0
C2642 C 0.84672 0.10525 0.49167 0.0
C2643 C 0.94429 0.18814 0.50009 0.0
C2644 C 0.8592 0.17724 0.52601 0.0
C2645 C 0.86543 0.17349 0.54552 0.0
C2646 C 0.86987 0.17007 0.50976 0.0
C2647 C 0.88511 0.15635 0.51279 0.0
C2648 C 0.89055 0.15128 0.53228 0.0
C2649 C 0.88161 0.16077 0.5483 0.0
C2650 C 0.865 0.17761 0.48932 0.0
C2651 C 0.90595 0.13604 0.53662 0.0
H2652 H 0.86775 0.1038 0.4566 0.0
H2653 H 0.95253 0.16885 0.46622 0.0
H2654 H 0.84662 0.10278 0.50792 0.0
H2655 H 0.8327 0.11343 0.48806 0.0
H2656 H 0.83787 0.08482 0.48465 0.0
H2657 H 0.9635 0.20093 0.49134 0.0
H2658 H 0.93532 0.201 0.50476 0.0
H2659 H 0.95041 0.18133 0.51357 0.0
H2660 H 0.84594 0.18587 0.52312 0.0
H2661 H 0.88762 0.15813 0.56296 0.0
H2662 H 0.84834 0.15928 0.48176 0.0
H2663 H 0.88429 0.18571 0.48028 0.0
H2664 H 0.85836 0.1932 0.48978 0.0
H2665 H 0.9063 0.12387 0.52389 0.0
H2666 H 0.89619 0.1221 0.54934 0.0
H2667 H 0.92782 0.15088 0.54093 0.0
C2668 C 0.85836 0.76895 0.46872 0.0
C2669 C 0.87032 0.76166 0.45329 0.0
C2670 C 0.8513 0.75478 0.48674 0.0
C2671 C 0.85605 0.73258 0.48939 0.0
C2672 C 0.86846 0.72536 0.47396 0.0
C2673 C 0.87554 0.74003 0.45616 0.0
C2674 C 0.83842 0.76336 0.50287 0.0
C2675 C 0.87364 0.70168 0.47608 0.0
C2676 C 0.85706 0.70644 0.54111 0.0
C2677 C 0.83005 0.6836 0.54253 0.0
C2678 C 0.86568 0.72282 0.52407 0.0
C2679 C 0.84697 0.71615 0.50795 0.0
C2680 C 0.81959 0.69339 0.50939 0.0
C2681 C 0.81144 0.67755 0.52664 0.0
C2682 C 0.89498 0.74703 0.52321 0.0
C2683 C 0.79894 0.68554 0.49257 0.0
H2684 H 0.85458 0.78585 0.4667 0.0
H2685 H 0.8845 0.7341 0.44424 0.0
H2686 H 0.81694 0.74653 0.50605 0.0
H2687 H 0.85078 0.76761 0.51667 0.0
H2688 H 0.8373 0.78182 0.49884 0.0
H2689 H 0.88431 0.69924 0.46299 0.0
H2690 H 0.88667 0.70454 0.48934 0.0
H2691 H 0.85344 0.68251 0.47819 0.0
H2692 H 0.87174 0.71119 0.55316 0.0
H2693 H 0.79035 0.66033 0.52767 0.0
H2694 H 0.89424 0.76582 0.5197 0.0
H2695 H 0.90688 0.74403 0.51123 0.0
H2696 H 0.90655 0.75026 0.5373 0.0
H2697 H 0.79552 0.70277 0.48896 0.0
H2698 H 0.7784 0.66735 0.49604 0.0
H2699 H 0.80752 0.68109 0.47917 0.0
loop_
_geom_bond_atom_site_label_1
_geom_bond_atom_site_label_2
_geom_bond_distance
_geom_bond_site_symmetry_2
_ccdc_geom_bond_type
H0 C5 0.930 . S
H1 C8 0.930 . S
H2 C10 0.930 . S
H3 C4 1.016 . S
C4 H3 1.016 . S
C4 N11 1.286 . S
C5 H0 0.930 . S
C5 C6 1.397 . S
C5 C7 1.361 . S
C6 C5 1.397 . S
C6 C10 1.390 . S
C7 C5 1.361 . S
C7 C8 1.393 . S
C7 N11 1.413 . S
C8 H1 0.930 . S
C8 C7 1.393 . S
C8 C9 1.399 . S
C9 C8 1.399 . S
C9 C10 1.381 . S
C10 H2 0.930 . S
C10 C6 1.390 . S
C10 C9 1.381 . S
N11 C4 1.286 . S
N11 C7 1.413 . S
H12 C17 0.930 . S
H13 C20 0.930 . S
H14 C22 0.930 . S
H15 C16 1.016 . S
C16 H15 1.016 . S
C16 N23 1.286 . S
C17 H12 0.930 . S
C17 C18 1.397 . S
C17 C19 1.361 . S
C18 C17 1.397 . S
C18 C22 1.390 . S
C19 C17 1.361 . S
C19 C20 1.393 . S
C19 N23 1.413 . S
C20 H13 0.930 . S
C20 C19 1.393 . S
C20 C21 1.399 . S
C21 C20 1.399 . S
C21 C22 1.381 . S
C22 H14 0.930 . S
C22 C18 1.390 . S
C22 C21 1.381 . S
N23 C16 1.286 . S
N23 C19 1.413 . S
H24 C29 0.930 . S
H25 C32 0.930 . S
H26 C34 0.930 . S
H27 C28 1.016 . S
C28 H27 1.016 . S
C28 N35 1.286 . S
C29 H24 0.930 . S
C29 C30 1.397 . S
C29 C31 1.361 . S
C30 C29 1.397 . S
C30 C34 1.390 . S
C31 C29 1.361 . S
C31 C32 1.393 . S
C31 N35 1.413 . S
C32 H25 0.930 . S
C32 C31 1.393 . S
C32 C33 1.399 . S
C33 C32 1.399 . S
C33 C34 1.381 . S
C34 H26 0.930 . S
C34 C30 1.390 . S
C34 C33 1.381 . S
N35 C28 1.286 . S
N35 C31 1.413 . S
H36 C41 0.930 . S
H37 C44 0.930 . S
H38 C46 0.930 . S
H39 C40 1.016 . S
C40 H39 1.016 . S
C40 N47 1.286 . S
C41 H36 0.930 . S
C41 C42 1.397 . S
C41 C43 1.361 . S
C42 C41 1.397 . S
C42 C46 1.390 . S
C43 C41 1.361 . S
C43 C44 1.393 . S
C43 N47 1.413 . S
C44 H37 0.930 . S
C44 C43 1.393 . S
C44 C45 1.399 . S
C45 C44 1.399 . S
C45 C46 1.381 . S
C46 H38 0.930 . S
C46 C42 1.390 . S
C46 C45 1.381 . S
N47 C40 1.286 . S
N47 C43 1.413 . S
H48 C53 0.930 . S
H49 C56 0.930 . S
H50 C58 0.930 . S
H51 C52 1.016 . S
C52 H51 1.016 . S
C52 N59 1.286 . S
C53 H48 0.930 . S
C53 C54 1.397 . S
C53 C55 1.361 . S
C54 C53 1.397 . S
C54 C58 1.390 . S
C55 C53 1.361 . S
C55 C56 1.393 . S
C55 N59 1.413 . S
C56 H49 0.930 . S
C56 C55 1.393 . S
C56 C57 1.399 . S
C57 C56 1.399 . S
C57 C58 1.381 . S
C58 H50 0.930 . S
C58 C54 1.390 . S
C58 C57 1.381 . S
N59 C52 1.286 . S
N59 C55 1.413 . S
H60 C65 0.930 . S
H61 C68 0.930 . S
H62 C70 0.930 . S
H63 C64 1.016 . S
C64 H63 1.016 . S
C64 N71 1.286 . S
C65 H60 0.930 . S
C65 C66 1.397 . S
C65 C67 1.361 . S
C66 C65 1.397 . S
C66 C70 1.390 . S
C67 C65 1.361 . S
C67 C68 1.393 . S
C67 N71 1.413 . S
C68 H61 0.930 . S
C68 C67 1.393 . S
C68 C69 1.399 . S
C69 C68 1.399 . S
C69 C70 1.381 . S
C70 H62 0.930 . S
C70 C66 1.390 . S
C70 C69 1.381 . S
N71 C64 1.286 . S
N71 C67 1.413 . S
H72 C77 0.930 . S
H73 C80 0.930 . S
H74 C82 0.930 . S
H75 C76 1.016 . S
C76 H75 1.016 . S
C76 N83 1.286 . S
C77 H72 0.930 . S
C77 C78 1.397 . S
C77 C79 1.361 . S
C78 C77 1.397 . S
C78 C82 1.390 . S
C79 C77 1.361 . S
C79 C80 1.393 . S
C79 N83 1.413 . S
C80 H73 0.930 . S
C80 C79 1.393 . S
C80 C81 1.399 . S
C81 C80 1.399 . S
C81 C82 1.381 . S
C82 H74 0.930 . S
C82 C78 1.390 . S
C82 C81 1.381 . S
N83 C76 1.286 . S
N83 C79 1.413 . S
H84 C89 0.930 . S
H85 C92 0.930 . S
H86 C94 0.930 . S
H87 C88 1.016 . S
C88 H87 1.016 . S
C88 N95 1.286 . S
C89 H84 0.930 . S
C89 C90 1.397 . S
C89 C91 1.361 . S
C90 C89 1.397 . S
C90 C94 1.390 . S
C91 C89 1.361 . S
C91 C92 1.393 . S
C91 N95 1.413 . S
C92 H85 0.930 . S
C92 C91 1.393 . S
C92 C93 1.399 . S
C93 C92 1.399 . S
C93 C94 1.381 . S
C94 H86 0.930 . S
C94 C90 1.390 . S
C94 C93 1.381 . S
N95 C88 1.286 . S
N95 C91 1.413 . S
H96 C101 0.930 . S
H97 C104 0.930 . S
H98 C106 0.930 . S
H99 C100 1.016 . S
C100 H99 1.016 . S
C100 N107 1.286 . S
C101 H96 0.930 . S
C101 C102 1.397 . S
C101 C103 1.361 . S
C102 C101 1.397 . S
C102 C106 1.390 . S
C103 C101 1.361 . S
C103 C104 1.393 . S
C103 N107 1.413 . S
C104 H97 0.930 . S
C104 C103 1.393 . S
C104 C105 1.399 . S
C105 C104 1.399 . S
C105 C106 1.381 . S
C106 H98 0.930 . S
C106 C102 1.390 . S
C106 C105 1.381 . S
N107 C100 1.286 . S
N107 C103 1.413 . S
H108 C113 0.930 . S
H109 C116 0.930 . S
H110 C118 0.930 . S
H111 C112 1.016 . S
C112 H111 1.016 . S
C112 N119 1.286 . S
C113 H108 0.930 . S
C113 C114 1.397 . S
C113 C115 1.361 . S
C114 C113 1.397 . S
C114 C118 1.390 . S
C115 C113 1.361 . S
C115 C116 1.393 . S
C115 N119 1.413 . S
C116 H109 0.930 . S
C116 C115 1.393 . S
C116 C117 1.399 . S
C117 C116 1.399 . S
C117 C118 1.381 . S
C118 H110 0.930 . S
C118 C114 1.390 . S
C118 C117 1.381 . S
N119 C112 1.286 . S
N119 C115 1.413 . S
H120 C125 0.930 . S
H121 C128 0.930 . S
H122 C130 0.930 . S
H123 C124 1.016 . S
C124 H123 1.016 . S
C124 N131 1.286 . S
C125 H120 0.930 . S
C125 C126 1.397 . S
C125 C127 1.361 . S
C126 C125 1.397 . S
C126 C130 1.390 . S
C127 C125 1.361 . S
C127 C128 1.393 . S
C127 N131 1.413 . S
C128 H121 0.930 . S
C128 C127 1.393 . S
C128 C129 1.399 . S
C129 C128 1.399 . S
C129 C130 1.381 . S
C130 H122 0.930 . S
C130 C126 1.390 . S
C130 C129 1.381 . S
N131 C124 1.286 . S
N131 C127 1.413 . S
H132 C137 0.930 . S
H133 C140 0.930 . S
H134 C142 0.930 . S
H135 C136 1.016 . S
C136 H135 1.016 . S
C136 N143 1.286 . S
C137 H132 0.930 . S
C137 C138 1.397 . S
C137 C139 1.361 . S
C138 C137 1.397 . S
C138 C142 1.390 . S
C139 C137 1.361 . S
C139 C140 1.393 . S
C139 N143 1.413 . S
C140 H133 0.930 . S
C140 C139 1.393 . S
C140 C141 1.399 . S
C141 C140 1.399 . S
C141 C142 1.381 . S
C142 H134 0.930 . S
C142 C138 1.390 . S
C142 C141 1.381 . S
N143 C136 1.286 . S
N143 C139 1.413 . S
H144 C149 0.930 . S
H145 C152 0.930 . S
H146 C154 0.930 . S
H147 C148 1.016 . S
C148 H147 1.016 . S
C148 N155 1.286 . S
C149 H144 0.930 . S
C149 C150 1.397 . S
C149 C151 1.361 . S
C150 C149 1.397 . S
C150 C154 1.390 . S
C151 C149 1.361 . S
C151 C152 1.393 . S
C151 N155 1.413 . S
C152 H145 0.930 . S
C152 C151 1.393 . S
C152 C153 1.399 . S
C153 C152 1.399 . S
C153 C154 1.381 . S
C154 H146 0.930 . S
C154 C150 1.390 . S
C154 C153 1.381 . S
N155 C148 1.286 . S
N155 C151 1.413 . S
H156 C161 0.930 . S
H157 C164 0.930 . S
H158 C166 0.930 . S
H159 C160 1.016 . S
C160 H159 1.016 . S
C160 N167 1.286 . S
C161 H156 0.930 . S
C161 C162 1.397 . S
C161 C163 1.361 . S
C162 C161 1.397 . S
C162 C166 1.390 . S
C163 C161 1.361 . S
C163 C164 1.393 . S
C163 N167 1.413 . S
C164 H157 0.930 . S
C164 C163 1.393 . S
C164 C165 1.399 . S
C165 C164 1.399 . S
C165 C166 1.381 . S
C166 H158 0.930 . S
C166 C162 1.390 . S
C166 C165 1.381 . S
N167 C160 1.286 . S
N167 C163 1.413 . S
H168 C173 0.930 . S
H169 C176 0.930 . S
H170 C178 0.930 . S
H171 C172 1.016 . S
C172 H171 1.016 . S
C172 N179 1.286 . S
C173 H168 0.930 . S
C173 C174 1.397 . S
C173 C175 1.361 . S
C174 C173 1.397 . S
C174 C178 1.390 . S
C175 C173 1.361 . S
C175 C176 1.393 . S
C175 N179 1.413 . S
C176 H169 0.930 . S
C176 C175 1.393 . S
C176 C177 1.399 . S
C177 C176 1.399 . S
C177 C178 1.381 . S
C178 H170 0.930 . S
C178 C174 1.390 . S
C178 C177 1.381 . S
N179 C172 1.286 . S
N179 C175 1.413 . S
H180 C185 0.930 . S
H181 C188 0.930 . S
H182 C190 0.930 . S
H183 C184 1.016 . S
C184 H183 1.016 . S
C184 N191 1.286 . S
C185 H180 0.930 . S
C185 C186 1.397 . S
C185 C187 1.361 . S
C186 C185 1.397 . S
C186 C190 1.390 . S
C187 C185 1.361 . S
C187 C188 1.393 . S
C187 N191 1.413 . S
C188 H181 0.930 . S
C188 C187 1.393 . S
C188 C189 1.399 . S
C189 C188 1.399 . S
C189 C190 1.381 . S
C190 H182 0.930 . S
C190 C186 1.390 . S
C190 C189 1.381 . S
N191 C184 1.286 . S
N191 C187 1.413 . S
H192 C197 0.930 . S
H193 C200 0.930 . S
H194 C202 0.930 . S
H195 C196 1.016 . S
C196 H195 1.016 . S
C196 N203 1.286 . S
C197 H192 0.930 . S
C197 C198 1.397 . S
C197 C199 1.361 . S
C198 C197 1.397 . S
C198 C202 1.390 . S
C199 C197 1.361 . S
C199 C200 1.393 . S
C199 N203 1.413 . S
C200 H193 0.930 . S
C200 C199 1.393 . S
C200 C201 1.399 . S
C201 C200 1.399 . S
C201 C202 1.381 . S
C202 H194 0.930 . S
C202 C198 1.390 . S
C202 C201 1.381 . S
N203 C196 1.286 . S
N203 C199 1.413 . S
H204 C209 0.930 . S
H205 C212 0.930 . S
H206 C214 0.930 . S
H207 C208 1.016 . S
C208 H207 1.016 . S
C208 N215 1.286 . S
C209 H204 0.930 . S
C209 C210 1.397 . S
C209 C211 1.361 . S
C210 C209 1.397 . S
C210 C214 1.390 . S
C211 C209 1.361 . S
C211 C212 1.393 . S
C211 N215 1.413 . S
C212 H205 0.930 . S
C212 C211 1.393 . S
C212 C213 1.399 . S
C213 C212 1.399 . S
C213 C214 1.381 . S
C214 H206 0.930 . S
C214 C210 1.390 . S
C214 C213 1.381 . S
N215 C208 1.286 . S
N215 C211 1.413 . S
Eu216 N247 2.657 . S
Eu216 N254 2.609 . S
Eu216 O260 2.558 . S
Eu216 O261 2.612 1_566 S
Eu216 O263 2.339 1_565 S
Eu216 O264 2.563 1_565 S
Eu216 O265 2.419 1_565 S
Eu216 O267 2.380 1_556 S
Eu216 O268 2.435 1_556 S
Eu216 C280 2.847 1_565 S
C217 C220 1.429 . S
C217 C221 1.411 . S
C217 N224 1.377 . S
C218 C220 1.420 . S
C218 C222 1.423 . S
C218 C230 1.392 . S
C219 C221 1.420 . S
C219 C222 1.351 . S
C219 H242 0.931 . S
C220 C217 1.429 . S
C220 C218 1.420 . S
C220 N228 1.362 . S
C221 C217 1.411 . S
C221 C219 1.420 . S
C221 C226 1.395 . S
C222 C218 1.423 . S
C222 C219 1.351 . S
C222 H234 0.930 . S
C223 C225 1.400 . S
C223 C226 1.386 . S
C223 H235 0.930 . S
N224 C217 1.377 . S
N224 C225 1.321 . S
N224 Eu227 2.609 . S
C225 C223 1.400 . S
C225 N224 1.321 . S
C225 H232 0.930 . S
C226 C221 1.395 . S
C226 C223 1.386 . S
C226 H245 0.930 . S
Eu227 N224 2.609 . S
Eu227 N228 2.657 . S
Eu227 O261 2.380 . S
Eu227 O262 2.432 . S
Eu227 O266 2.558 . S
Eu227 O267 2.612 1_545 S
Eu227 O269 2.339 1_545 S
Eu227 O270 2.563 1_545 S
Eu227 O271 2.419 1_545 S
Eu227 C291 2.848 . S
N228 C220 1.362 . S
N228 Eu227 2.657 . S
N228 C229 1.334 . S
C229 N228 1.334 . S
C229 C231 1.413 . S
C229 H236 0.929 . S
C230 C218 1.392 . S
C230 C231 1.367 . S
C230 H238 0.930 . S
C231 C229 1.413 . S
C231 C230 1.367 . S
C231 H233 0.930 . S
H232 C225 0.930 . S
H233 C231 0.930 . S
H234 C222 0.930 . S
H235 C223 0.930 . S
H236 C229 0.929 . S
H237 C251 0.930 . S
H238 C230 0.930 . S
H239 C257 0.930 . S
H240 C248 0.968 . S
H241 C255 0.930 . S
H242 C219 0.931 . S
H243 C249 0.930 . S
H244 C282 0.930 . S
H245 C226 0.930 . S
H246 C281 0.931 . S
N247 Eu216 2.657 . S
N247 C248 1.334 . S
N247 C252 1.362 . S
C248 H240 0.968 . S
C248 N247 1.334 . S
C248 C251 1.413 . S
C249 H243 0.930 . S
C249 C250 1.392 . S
C249 C251 1.367 . S
C250 C249 1.392 . S
C250 C252 1.420 . S
C250 C282 1.423 . S
C251 H237 0.930 . S
C251 C248 1.413 . S
C251 C249 1.367 . S
C252 N247 1.362 . S
C252 C250 1.420 . S
C252 C256 1.429 . S
H253 C258 0.930 . S
N254 Eu216 2.609 . S
N254 C256 1.377 . S
N254 C257 1.321 . S
C255 H241 0.930 . S
C255 C257 1.400 . S
C255 C258 1.386 . S
C256 C252 1.429 . S
C256 N254 1.377 . S
C256 C259 1.411 . S
C257 H239 0.930 . S
C257 N254 1.321 . S
C257 C255 1.400 . S
C258 H253 0.930 . S
C258 C255 1.386 . S
C258 C259 1.395 . S
C259 C256 1.411 . S
C259 C258 1.395 . S
C259 C281 1.420 . S
O260 Eu216 2.558 . S
O260 C280 1.241 1_565 S
O261 Eu216 2.612 1_544 S
O261 Eu227 2.380 . S
O261 C272 1.276 1_554 S
O262 Eu227 2.432 . S
O262 C279 1.264 . S
O263 Eu216 2.339 1_545 S
O263 C279 1.254 1_556 S
O264 Eu216 2.563 1_545 S
O264 C272 1.235 . S
O265 Eu216 2.419 1_545 S
O265 C280 1.262 . S
O266 Eu227 2.558 . S
O266 C291 1.257 . S
O267 Eu216 2.380 1_554 S
O267 Eu227 2.612 1_565 S
O267 C283 1.276 . S
O268 Eu216 2.435 1_554 S
O268 C290 1.258 . S
O269 Eu227 2.339 1_565 S
O269 C290 1.254 . S
O270 Eu227 2.563 1_565 S
O270 C283 1.235 . S
O271 Eu227 2.419 1_565 S
O271 C291 1.249 1_565 S
C272 O261 1.276 1_556 S
C272 O264 1.235 . S
C273 C275 1.393 . S
C273 C277 1.395 1_545 S
C273 C280 1.494 . S
C274 C275 1.392 . S
C274 C276 1.386 . S
C275 C273 1.393 . S
C275 C274 1.392 . S
C275 H292 0.930 . S
C276 C274 1.386 . S
C276 C278 1.395 1_545 S
C276 H293 0.930 . S
C277 C273 1.395 1_565 S
C277 C278 1.379 . S
C277 H294 0.930 . S
C278 C276 1.395 1_565 S
C278 C277 1.379 . S
C278 H295 0.930 . S
C279 O262 1.264 . S
C279 O263 1.254 1_554 S
C280 Eu216 2.847 1_545 S
C280 O260 1.241 1_545 S
C280 O265 1.262 . S
C280 C273 1.494 . S
C281 H246 0.931 . S
C281 C259 1.420 . S
C281 C282 1.351 . S
C282 H244 0.930 . S
C282 C250 1.423 . S
C282 C281 1.351 . S
C283 O267 1.276 . S
C283 O270 1.235 . S
C284 C285 1.393 1_545 S
C284 C288 1.395 . S
C284 C291 1.492 . S
C285 C284 1.393 1_565 S
C285 C286 1.392 . S
C285 H296 0.930 . S
C286 C285 1.392 . S
C286 C287 1.386 . S
C287 C286 1.386 . S
C287 C289 1.395 1_565 S
C287 H297 0.930 . S
C288 C284 1.395 . S
C288 C289 1.379 . S
C288 H298 0.930 . S
C289 C287 1.395 1_545 S
C289 C288 1.379 . S
C289 H299 0.930 . S
C290 O268 1.258 . S
C290 O269 1.254 . S
C291 Eu227 2.848 . S
C291 O266 1.257 . S
C291 O271 1.249 1_545 S
C291 C284 1.492 . S
H292 C275 0.930 . S
H293 C276 0.930 . S
H294 C277 0.930 . S
H295 C278 0.930 . S
H296 C285 0.930 . S
H297 C287 0.930 . S
H298 C288 0.930 . S
H299 C289 0.930 . S
Eu300 N331 2.657 . S
Eu300 N338 2.609 . S
Eu300 O344 2.558 . S
Eu300 O345 2.612 1_456 S
Eu300 O347 2.339 1_455 S
Eu300 O348 2.563 1_455 S
Eu300 O349 2.422 . S
Eu300 O351 2.380 1_556 S
Eu300 O352 2.402 1_556 S
Eu300 C364 2.848 . S
C301 C304 1.429 . S
C301 C305 1.411 . S
C301 N308 1.377 . S
C302 C304 1.420 . S
C302 C306 1.423 . S
C302 C314 1.392 . S
C303 C305 1.420 . S
C303 C306 1.351 . S
C303 H326 0.931 . S
C304 C301 1.429 . S
C304 C302 1.420 . S
C304 N312 1.362 . S
C305 C301 1.411 . S
C305 C303 1.420 . S
C305 C310 1.395 . S
C306 C302 1.423 . S
C306 C303 1.351 . S
C306 H318 0.930 . S
C307 C309 1.400 . S
C307 C310 1.386 . S
C307 H319 0.930 . S
N308 C301 1.377 . S
N308 C309 1.321 . S
N308 Eu311 2.609 . S
C309 C307 1.400 . S
C309 N308 1.321 . S
C309 H316 0.930 . S
C310 C305 1.395 . S
C310 C307 1.386 . S
C310 H329 0.930 . S
Eu311 N308 2.609 . S
Eu311 N312 2.657 . S
Eu311 O345 2.380 . S
Eu311 O346 2.432 . S
Eu311 O350 2.558 . S
Eu311 O351 2.612 1_655 S
Eu311 O353 2.339 1_655 S
Eu311 O354 2.563 1_655 S
Eu311 O355 2.419 1_655 S
Eu311 C375 2.848 . S
N312 C304 1.362 . S
N312 Eu311 2.657 . S
N312 C313 1.334 . S
C313 N312 1.334 . S
C313 C315 1.413 . S
C313 H320 0.929 . S
C314 C302 1.392 . S
C314 C315 1.367 . S
C314 H322 0.930 . S
C315 C313 1.413 . S
C315 C314 1.367 . S
C315 H317 0.930 . S
H316 C309 0.930 . S
H317 C315 0.930 . S
H318 C306 0.930 . S
H319 C307 0.930 . S
H320 C313 0.929 . S
H321 C335 0.930 . S
H322 C314 0.930 . S
H323 C341 0.930 . S
H324 C332 0.929 . S
H325 C339 0.930 . S
H326 C303 0.931 . S
H327 C333 0.930 . S
H328 C366 0.930 . S
H329 C310 0.930 . S
H330 C365 0.931 . S
N331 Eu300 2.657 . S
N331 C332 1.334 . S
N331 C336 1.362 . S
C332 H324 0.929 . S
C332 N331 1.334 . S
C332 C335 1.413 . S
C333 H327 0.930 . S
C333 C334 1.392 . S
C333 C335 1.367 . S
C334 C333 1.392 . S
C334 C336 1.420 . S
C334 C366 1.423 . S
C335 H321 0.930 . S
C335 C332 1.413 . S
C335 C333 1.367 . S
C336 N331 1.362 . S
C336 C334 1.420 . S
C336 C340 1.429 . S
H337 C342 0.930 . S
N338 Eu300 2.609 . S
N338 C340 1.377 . S
N338 C341 1.321 . S
C339 H325 0.930 . S
C339 C341 1.400 . S
C339 C342 1.386 . S
C340 C336 1.429 . S
C340 N338 1.377 . S
C340 C343 1.411 . S
C341 H323 0.930 . S
C341 N338 1.321 . S
C341 C339 1.400 . S
C342 H337 0.930 . S
C342 C339 1.386 . S
C342 C343 1.395 . S
C343 C340 1.411 . S
C343 C342 1.395 . S
C343 C365 1.420 . S
O344 Eu300 2.558 . S
O344 C364 1.257 . S
O345 Eu300 2.612 1_654 S
O345 Eu311 2.380 . S
O345 C356 1.276 1_554 S
O346 Eu311 2.432 . S
O346 C363 1.264 . S
O347 Eu300 2.339 1_655 S
O347 C363 1.254 1_556 S
O348 Eu300 2.563 1_655 S
O348 C356 1.235 . S
O349 Eu300 2.422 . S
O349 C364 1.248 . S
O350 Eu311 2.558 . S
O350 C375 1.257 . S
O351 Eu300 2.380 1_554 S
O351 Eu311 2.612 1_455 S
O351 C367 1.276 . S
O352 Eu300 2.402 1_554 S
O352 C374 1.324 . S
O353 Eu311 2.339 1_455 S
O353 C374 1.254 . S
O354 Eu311 2.563 1_455 S
O354 C367 1.235 . S
O355 Eu311 2.419 1_455 S
O355 C375 1.249 1_455 S
C356 O345 1.276 1_556 S
C356 O348 1.235 . S
C357 C359 1.393 1_455 S
C357 C361 1.395 . S
C357 C364 1.492 . S
C358 C359 1.392 . S
C358 C360 1.386 . S
C359 C357 1.393 1_655 S
C359 C358 1.392 . S
C359 H376 0.930 . S
C360 C358 1.386 . S
C360 C362 1.395 1_655 S
C360 H377 0.930 . S
C361 C357 1.395 . S
C361 C362 1.379 . S
C361 H378 0.930 . S
C362 C360 1.395 1_455 S
C362 C361 1.379 . S
C362 H379 0.930 . S
C363 O346 1.264 . S
C363 O347 1.254 1_554 S
C364 Eu300 2.848 . S
C364 O344 1.257 . S
C364 O349 1.248 . S
C364 C357 1.492 . S
C365 H330 0.931 . S
C365 C343 1.420 . S
C365 C366 1.351 . S
C366 H328 0.930 . S
C366 C334 1.423 . S
C366 C365 1.351 . S
C367 O351 1.276 . S
C367 O354 1.235 . S
C368 C369 1.393 . S
C368 C372 1.395 1_455 S
C368 C375 1.492 1_455 S
C369 C368 1.393 . S
C369 C370 1.392 . S
C369 H380 0.930 . S
C370 C369 1.392 . S
C370 C371 1.386 . S
C371 C370 1.386 . S
C371 C373 1.395 1_455 S
C371 H381 0.930 . S
C372 C368 1.395 1_655 S
C372 C373 1.379 . S
C372 H382 0.930 . S
C373 C371 1.395 1_655 S
C373 C372 1.379 . S
C373 H383 0.930 . S
C374 O352 1.324 . S
C374 O353 1.254 . S
C375 Eu311 2.848 . S
C375 O350 1.257 . S
C375 O355 1.249 1_655 S
C375 C368 1.492 1_655 S
H376 C359 0.930 . S
H377 C360 0.930 . S
H378 C361 0.930 . S
H379 C362 0.930 . S
H380 C369 0.930 . S
H381 C371 0.930 . S
H382 C372 0.930 . S
H383 C373 0.930 . S
Eu384 N415 2.657 . S
Eu384 N422 2.609 . S
Eu384 O428 2.558 . S
Eu384 O429 2.612 . S
Eu384 O431 2.339 . S
Eu384 O432 2.563 . S
Eu384 O433 2.419 . S
Eu384 O435 2.380 . S
Eu384 O436 2.432 . S
Eu384 C448 2.848 . S
C385 C388 1.429 . S
C385 C389 1.411 . S
C385 N392 1.377 . S
C386 C388 1.420 . S
C386 C390 1.423 . S
C386 C398 1.392 . S
C387 C389 1.420 . S
C387 C390 1.351 . S
C387 H410 0.931 . S
C388 C385 1.429 . S
C388 C386 1.420 . S
C388 N396 1.362 . S
C389 C385 1.411 . S
C389 C387 1.420 . S
C389 C394 1.395 . S
C390 C386 1.423 . S
C390 C387 1.351 . S
C390 H402 0.930 . S
C391 C393 1.400 . S
C391 C394 1.386 . S
C391 H403 0.930 . S
N392 C385 1.377 . S
N392 C393 1.321 . S
N392 Eu395 2.609 . S
C393 C391 1.400 . S
C393 N392 1.321 . S
C393 H400 0.930 . S
C394 C389 1.395 . S
C394 C391 1.386 . S
C394 H413 0.930 . S
Eu395 N392 2.609 . S
Eu395 N396 2.657 . S
Eu395 O429 2.380 1_556 S
Eu395 O430 2.432 1_556 S
Eu395 O434 2.558 . S
Eu395 O435 2.612 1_556 S
Eu395 O437 2.339 . S
Eu395 O438 2.563 . S
Eu395 O439 2.419 . S
Eu395 C459 2.848 . S
N396 C388 1.362 . S
N396 Eu395 2.657 . S
N396 C397 1.334 . S
C397 N396 1.334 . S
C397 C399 1.413 . S
C397 H404 0.929 . S
C398 C386 1.392 . S
C398 C399 1.367 . S
C398 H406 0.930 . S
C399 C397 1.413 . S
C399 C398 1.367 . S
C399 H401 0.930 . S
H400 C393 0.930 . S
H401 C399 0.930 . S
H402 C390 0.930 . S
H403 C391 0.930 . S
H404 C397 0.929 . S
H405 C419 0.930 . S
H406 C398 0.930 . S
H407 C425 0.930 . S
H408 C416 0.929 . S
H409 C423 0.930 . S
H410 C387 0.931 . S
H411 C417 0.930 . S
H412 C450 0.930 . S
H413 C394 0.930 . S
H414 C449 0.931 . S
N415 Eu384 2.657 . S
N415 C416 1.334 . S
N415 C420 1.362 . S
C416 H408 0.929 . S
C416 N415 1.334 . S
C416 C419 1.413 . S
C417 H411 0.930 . S
C417 C418 1.392 . S
C417 C419 1.367 . S
C418 C417 1.392 . S
C418 C420 1.420 . S
C418 C450 1.423 . S
C419 H405 0.930 . S
C419 C416 1.413 . S
C419 C417 1.367 . S
C420 N415 1.362 . S
C420 C418 1.420 . S
C420 C424 1.429 . S
H421 C426 0.930 . S
N422 Eu384 2.609 . S
N422 C424 1.377 . S
N422 C425 1.321 . S
C423 H409 0.930 . S
C423 C425 1.400 . S
C423 C426 1.386 . S
C424 C420 1.429 . S
C424 N422 1.377 . S
C424 C427 1.411 . S
C425 H407 0.930 . S
C425 N422 1.321 . S
C425 C423 1.400 . S
C426 H421 0.930 . S
C426 C423 1.386 . S
C426 C427 1.395 . S
C427 C424 1.411 . S
C427 C426 1.395 . S
C427 C449 1.420 . S
O428 Eu384 2.558 . S
O428 C448 1.257 . S
O429 Eu384 2.612 . S
O429 Eu395 2.380 1_554 S
O429 C440 1.276 . S
O430 Eu395 2.432 1_554 S
O430 C447 1.264 . S
O431 Eu384 2.339 . S
O431 C447 1.254 . S
O432 Eu384 2.563 . S
O432 C440 1.235 . S
O433 Eu384 2.419 . S
O433 C448 1.249 . S
O434 Eu395 2.558 . S
O434 C459 1.257 . S
O435 Eu384 2.380 . S
O435 Eu395 2.612 1_554 S
O435 C451 1.276 1_554 S
O436 Eu384 2.432 . S
O436 C458 1.264 . S
O437 Eu395 2.339 . S
O437 C458 1.254 1_556 S
O438 Eu395 2.563 . S
O438 C451 1.235 . S
O439 Eu395 2.419 . S
O439 C459 1.249 . S
C440 O429 1.276 . S
C440 O432 1.235 . S
C441 C443 1.393 . S
C441 C445 1.395 . S
C441 C448 1.492 . S
C442 C443 1.392 . S
C442 C444 1.386 . S
C443 C441 1.393 . S
C443 C442 1.392 . S
C443 H460 0.930 . S
C444 C442 1.386 . S
C444 C446 1.395 . S
C444 H461 0.930 . S
C445 C441 1.395 . S
C445 C446 1.379 . S
C445 H462 0.930 . S
C446 C444 1.395 . S
C446 C445 1.379 . S
C446 H463 0.930 . S
C447 O430 1.264 . S
C447 O431 1.254 . S
C448 Eu384 2.848 . S
C448 O428 1.257 . S
C448 O433 1.249 . S
C448 C441 1.492 . S
C449 H414 0.931 . S
C449 C427 1.420 . S
C449 C450 1.351 . S
C450 H412 0.930 . S
C450 C418 1.423 . S
C450 C449 1.351 . S
C451 O435 1.276 1_556 S
C451 O438 1.235 . S
C452 C453 1.393 . S
C452 C456 1.395 . S
C452 C459 1.492 . S
C453 C452 1.393 . S
C453 C454 1.392 . S
C453 H464 0.930 . S
C454 C453 1.392 . S
C454 C455 1.386 . S
C455 C454 1.386 . S
C455 C457 1.395 . S
C455 H465 0.930 . S
C456 C452 1.395 . S
C456 C457 1.379 . S
C456 H466 0.930 . S
C457 C455 1.395 . S
C457 C456 1.379 . S
C457 H467 0.930 . S
C458 O436 1.264 . S
C458 O437 1.254 1_554 S
C459 Eu395 2.848 . S
C459 O434 1.257 . S
C459 O439 1.249 . S
C459 C452 1.492 . S
H460 C443 0.930 . S
H461 C444 0.930 . S
H462 C445 0.930 . S
H463 C446 0.930 . S
H464 C453 0.930 . S
H465 C455 0.930 . S
H466 C456 0.930 . S
H467 C457 0.930 . S
Eu468 N499 2.657 . S
Eu468 N506 2.609 . S
Eu468 O512 2.558 . S
Eu468 O513 2.612 . S
Eu468 O515 2.339 . S
Eu468 O516 2.563 . S
Eu468 O517 2.419 . S
Eu468 O519 2.380 . S
Eu468 O520 2.432 . S
Eu468 C532 2.848 . S
C469 C472 1.429 . S
C469 C473 1.411 . S
C469 N476 1.377 . S
C470 C472 1.420 . S
C470 C474 1.423 . S
C470 C482 1.392 . S
C471 C473 1.420 . S
C471 C474 1.351 . S
C471 H494 0.931 . S
C472 C469 1.429 . S
C472 C470 1.420 . S
C472 N480 1.362 . S
C473 C469 1.411 . S
C473 C471 1.420 . S
C473 C478 1.395 . S
C474 C470 1.423 . S
C474 C471 1.351 . S
C474 H486 0.930 . S
C475 C477 1.400 . S
C475 C478 1.386 . S
C475 H487 0.930 . S
N476 C469 1.377 . S
N476 C477 1.321 . S
N476 Eu479 2.609 . S
C477 C475 1.400 . S
C477 N476 1.321 . S
C477 H484 0.930 . S
C478 C473 1.395 . S
C478 C475 1.386 . S
C478 H497 0.930 . S
Eu479 N476 2.609 . S
Eu479 N480 2.657 . S
Eu479 O513 2.380 . S
Eu479 O514 2.432 . S
Eu479 O518 2.558 . S
Eu479 O519 2.612 . S
Eu479 O521 2.339 . S
Eu479 O522 2.563 . S
Eu479 O523 2.419 . S
Eu479 C543 2.848 . S
N480 C472 1.362 . S
N480 Eu479 2.657 . S
N480 C481 1.334 . S
C481 N480 1.334 . S
C481 C483 1.413 . S
C481 H488 0.929 . S
C482 C470 1.392 . S
C482 C483 1.367 . S
C482 H490 0.930 . S
C483 C481 1.413 . S
C483 C482 1.367 . S
C483 H485 0.930 . S
H484 C477 0.930 . S
H485 C483 0.930 . S
H486 C474 0.930 . S
H487 C475 0.930 . S
H488 C481 0.929 . S
H489 C503 0.930 . S
H490 C482 0.930 . S
H491 C509 0.930 . S
H492 C500 0.929 . S
H493 C507 0.930 . S
H494 C471 0.931 . S
H495 C501 0.931 . S
H496 C534 0.930 . S
H497 C478 0.930 . S
H498 C533 0.931 . S
N499 Eu468 2.657 . S
N499 C500 1.334 . S
N499 C504 1.362 . S
C500 H492 0.929 . S
C500 N499 1.334 . S
C500 C503 1.413 . S
C501 H495 0.931 . S
C501 C502 1.392 . S
C501 C503 1.367 . S
C502 C501 1.392 . S
C502 C504 1.420 . S
C502 C534 1.423 . S
C503 H489 0.930 . S
C503 C500 1.413 . S
C503 C501 1.367 . S
C504 N499 1.362 . S
C504 C502 1.420 . S
C504 C508 1.429 . S
H505 C510 0.930 . S
N506 Eu468 2.609 . S
N506 C508 1.377 . S
N506 C509 1.321 . S
C507 H493 0.930 . S
C507 C509 1.400 . S
C507 C510 1.386 . S
C508 C504 1.429 . S
C508 N506 1.377 . S
C508 C511 1.411 . S
C509 H491 0.930 . S
C509 N506 1.321 . S
C509 C507 1.400 . S
C510 H505 0.930 . S
C510 C507 1.386 . S
C510 C511 1.395 . S
C511 C508 1.411 . S
C511 C510 1.395 . S
C511 C533 1.420 . S
O512 Eu468 2.558 . S
O512 C532 1.257 . S
O513 Eu468 2.612 . S
O513 Eu479 2.380 . S
O513 C524 1.276 . S
O514 Eu479 2.432 . S
O514 C531 1.264 . S
O515 Eu468 2.339 . S
O515 C531 1.254 . S
O516 Eu468 2.563 . S
O516 C524 1.235 . S
O517 Eu468 2.419 . S
O517 C532 1.249 . S
O518 Eu479 2.558 . S
O518 C543 1.257 . S
O519 Eu468 2.380 . S
O519 Eu479 2.612 . S
O519 C535 1.276 . S
O520 Eu468 2.432 . S
O520 C542 1.264 . S
O521 Eu479 2.339 . S
O521 C542 1.254 . S
O522 Eu479 2.563 . S
O522 C535 1.235 . S
O523 Eu479 2.419 . S
O523 C543 1.249 . S
C524 O513 1.276 . S
C524 O516 1.235 . S
C525 C527 1.393 . S
C525 C529 1.395 . S
C525 C532 1.492 . S
C526 C527 1.392 . S
C526 C528 1.386 . S
C527 C525 1.393 . S
C527 C526 1.392 . S
C527 H544 0.930 . S
C528 C526 1.386 . S
C528 C530 1.395 . S
C528 H545 0.930 . S
C529 C525 1.395 . S
C529 C530 1.379 . S
C529 H546 0.930 . S
C530 C528 1.395 . S
C530 C529 1.379 . S
C530 H547 0.930 . S
C531 O514 1.264 . S
C531 O515 1.254 . S
C532 Eu468 2.848 . S
C532 O512 1.257 . S
C532 O517 1.249 . S
C532 C525 1.492 . S
C533 H498 0.931 . S
C533 C511 1.420 . S
C533 C534 1.351 . S
C534 H496 0.930 . S
C534 C502 1.423 . S
C534 C533 1.351 . S
C535 O519 1.276 . S
C535 O522 1.235 . S
C536 C537 1.393 . S
C536 C540 1.395 . S
C536 C543 1.492 . S
C537 C536 1.393 . S
C537 C538 1.392 . S
C537 H548 0.930 . S
C538 C537 1.392 . S
C538 C539 1.386 . S
C539 C538 1.386 . S
C539 C541 1.395 . S
C539 H549 0.930 . S
C540 C536 1.395 . S
C540 C541 1.379 . S
C540 H550 0.930 . S
C541 C539 1.395 . S
C541 C540 1.379 . S
C541 H551 0.930 . S
C542 O520 1.264 . S
C542 O521 1.254 . S
C543 Eu479 2.848 . S
C543 O518 1.257 . S
C543 O523 1.249 . S
C543 C536 1.492 . S
H544 C527 0.930 . S
H545 C528 0.930 . S
H546 C529 0.930 . S
H547 C530 0.930 . S
H548 C537 0.930 . S
H549 C539 0.930 . S
H550 C540 0.930 . S
H551 C541 0.930 . S
Eu552 N583 2.657 . S
Eu552 N590 2.609 . S
Eu552 O596 2.558 . S
Eu552 O597 2.612 . S
Eu552 O599 2.339 . S
Eu552 O600 2.563 . S
Eu552 O601 2.419 . S
Eu552 O603 2.380 . S
Eu552 O604 2.432 . S
Eu552 C616 2.848 . S
C553 C556 1.429 . S
C553 C557 1.411 . S
C553 N560 1.377 . S
C554 C556 1.420 . S
C554 C558 1.423 . S
C554 C566 1.392 . S
C555 C557 1.420 . S
C555 C558 1.351 . S
C555 H578 0.931 . S
C556 C553 1.429 . S
C556 C554 1.420 . S
C556 N564 1.362 . S
C557 C553 1.411 . S
C557 C555 1.420 . S
C557 C562 1.395 . S
C558 C554 1.423 . S
C558 C555 1.351 . S
C558 H570 0.930 . S
C559 C561 1.400 . S
C559 C562 1.386 . S
C559 H571 0.930 . S
N560 C553 1.377 . S
N560 C561 1.321 . S
N560 Eu563 2.609 . S
C561 C559 1.400 . S
C561 N560 1.321 . S
C561 H568 0.930 . S
C562 C557 1.395 . S
C562 C559 1.386 . S
C562 H581 0.930 . S
Eu563 N560 2.609 . S
Eu563 N564 2.657 . S
Eu563 O597 2.380 . S
Eu563 O598 2.432 . S
Eu563 O602 2.558 . S
Eu563 O603 2.612 . S
Eu563 O605 2.339 . S
Eu563 O606 2.563 . S
Eu563 O607 2.419 . S
Eu563 C627 2.848 . S
N564 C556 1.362 . S
N564 Eu563 2.657 . S
N564 C565 1.334 . S
C565 N564 1.334 . S
C565 C567 1.413 . S
C565 H572 0.929 . S
C566 C554 1.392 . S
C566 C567 1.367 . S
C566 H574 0.930 . S
C567 C565 1.413 . S
C567 C566 1.367 . S
C567 H569 0.930 . S
H568 C561 0.930 . S
H569 C567 0.930 . S
H570 C558 0.930 . S
H571 C559 0.930 . S
H572 C565 0.929 . S
H573 C587 0.930 . S
H574 C566 0.930 . S
H575 C593 0.930 . S
H576 C584 0.929 . S
H577 C591 0.930 . S
H578 C555 0.931 . S
H579 C585 0.930 . S
H580 C618 0.930 . S
H581 C562 0.930 . S
H582 C617 0.931 . S
N583 Eu552 2.657 . S
N583 C584 1.334 . S
N583 C588 1.362 . S
C584 H576 0.929 . S
C584 N583 1.334 . S
C584 C587 1.413 . S
C585 H579 0.930 . S
C585 C586 1.392 . S
C585 C587 1.367 . S
C586 C585 1.392 . S
C586 C588 1.420 . S
C586 C618 1.423 . S
C587 H573 0.930 . S
C587 C584 1.413 . S
C587 C585 1.367 . S
C588 N583 1.362 . S
C588 C586 1.420 . S
C588 C592 1.429 . S
H589 C594 0.930 . S
N590 Eu552 2.609 . S
N590 C592 1.377 . S
N590 C593 1.321 . S
C591 H577 0.930 . S
C591 C593 1.400 . S
C591 C594 1.386 . S
C592 C588 1.429 . S
C592 N590 1.377 . S
C592 C595 1.411 . S
C593 H575 0.930 . S
C593 N590 1.321 . S
C593 C591 1.400 . S
C594 H589 0.930 . S
C594 C591 1.386 . S
C594 C595 1.395 . S
C595 C592 1.411 . S
C595 C594 1.395 . S
C595 C617 1.420 . S
O596 Eu552 2.558 . S
O596 C616 1.257 . S
O597 Eu552 2.612 . S
O597 Eu563 2.380 . S
O597 C608 1.276 . S
O598 Eu563 2.432 . S
O598 C615 1.264 . S
O599 Eu552 2.339 . S
O599 C615 1.254 . S
O600 Eu552 2.563 . S
O600 C608 1.235 . S
O601 Eu552 2.419 . S
O601 C616 1.249 . S
O602 Eu563 2.558 . S
O602 C627 1.257 . S
O603 Eu552 2.380 . S
O603 Eu563 2.612 . S
O603 C619 1.276 . S
O604 Eu552 2.432 . S
O604 C626 1.264 . S
O605 Eu563 2.339 . S
O605 C626 1.254 . S
O606 Eu563 2.563 . S
O606 C619 1.235 . S
O607 Eu563 2.419 . S
O607 C627 1.249 . S
C608 O597 1.276 . S
C608 O600 1.235 . S
C609 C611 1.393 . S
C609 C613 1.395 . S
C609 C616 1.492 . S
C610 C611 1.392 . S
C610 C612 1.386 . S
C611 C609 1.393 . S
C611 C610 1.392 . S
C611 H628 0.930 . S
C612 C610 1.386 . S
C612 C614 1.395 . S
C612 H629 0.930 . S
C613 C609 1.395 . S
C613 C614 1.379 . S
C613 H630 0.930 . S
C614 C612 1.395 . S
C614 C613 1.379 . S
C614 H631 0.930 . S
C615 O598 1.264 . S
C615 O599 1.254 . S
C616 Eu552 2.848 . S
C616 O596 1.257 . S
C616 O601 1.249 . S
C616 C609 1.492 . S
C617 H582 0.931 . S
C617 C595 1.420 . S
C617 C618 1.351 . S
C618 H580 0.930 . S
C618 C586 1.423 . S
C618 C617 1.351 . S
C619 O603 1.276 . S
C619 O606 1.235 . S
C620 C621 1.393 . S
C620 C624 1.395 . S
C620 C627 1.492 . S
C621 C620 1.393 . S
C621 C622 1.392 . S
C621 H632 0.930 . S
C622 C621 1.392 . S
C622 C623 1.386 . S
C623 C622 1.386 . S
C623 C625 1.395 . S
C623 H633 0.930 . S
C624 C620 1.395 . S
C624 C625 1.379 . S
C624 H634 0.930 . S
C625 C623 1.395 . S
C625 C624 1.379 . S
C625 H635 0.930 . S
C626 O604 1.264 . S
C626 O605 1.254 . S
C627 Eu563 2.848 . S
C627 O602 1.257 . S
C627 O607 1.249 . S
C627 C620 1.492 . S
H628 C611 0.930 . S
H629 C612 0.930 . S
H630 C613 0.930 . S
H631 C614 0.930 . S
H632 C621 0.930 . S
H633 C623 0.930 . S
H634 C624 0.930 . S
H635 C625 0.930 . S
Eu636 N667 2.657 . S
Eu636 N674 2.609 . S
Eu636 O680 2.558 . S
Eu636 O681 2.612 . S
Eu636 O683 2.339 . S
Eu636 O684 2.563 . S
Eu636 O685 2.419 . S
Eu636 O687 2.380 . S
Eu636 O688 2.432 . S
Eu636 C700 2.848 . S
C637 C640 1.429 . S
C637 C641 1.411 . S
C637 N644 1.377 . S
C638 C640 1.420 . S
C638 C642 1.423 . S
C638 C650 1.392 . S
C639 C641 1.420 . S
C639 C642 1.351 . S
C639 H662 0.931 . S
C640 C637 1.429 . S
C640 C638 1.420 . S
C640 N648 1.362 . S
C641 C637 1.411 . S
C641 C639 1.420 . S
C641 C646 1.395 . S
C642 C638 1.423 . S
C642 C639 1.351 . S
C642 H654 0.930 . S
C643 C645 1.400 . S
C643 C646 1.386 . S
C643 H655 0.930 . S
N644 C637 1.377 . S
N644 C645 1.321 . S
N644 Eu647 2.609 . S
C645 C643 1.400 . S
C645 N644 1.321 . S
C645 H652 0.930 . S
C646 C641 1.395 . S
C646 C643 1.386 . S
C646 H665 0.930 . S
Eu647 N644 2.609 . S
Eu647 N648 2.657 . S
Eu647 O681 2.380 . S
Eu647 O682 2.432 . S
Eu647 O686 2.558 . S
Eu647 O687 2.612 . S
Eu647 O689 2.339 . S
Eu647 O690 2.563 . S
Eu647 O691 2.419 . S
Eu647 C711 2.848 . S
N648 C640 1.362 . S
N648 Eu647 2.657 . S
N648 C649 1.334 . S
C649 N648 1.334 . S
C649 C651 1.413 . S
C649 H656 0.929 . S
C650 C638 1.392 . S
C650 C651 1.367 . S
C650 H658 0.930 . S
C651 C649 1.413 . S
C651 C650 1.367 . S
C651 H653 0.930 . S
H652 C645 0.930 . S
H653 C651 0.930 . S
H654 C642 0.930 . S
H655 C643 0.930 . S
H656 C649 0.929 . S
H657 C671 0.930 . S
H658 C650 0.930 . S
H659 C677 0.930 . S
H660 C668 0.929 . S
H661 C675 0.930 . S
H662 C639 0.931 . S
H663 C669 0.930 . S
H664 C702 0.930 . S
H665 C646 0.930 . S
H666 C701 0.931 . S
N667 Eu636 2.657 . S
N667 C668 1.334 . S
N667 C672 1.362 . S
C668 H660 0.929 . S
C668 N667 1.334 . S
C668 C671 1.413 . S
C669 H663 0.930 . S
C669 C670 1.392 . S
C669 C671 1.367 . S
C670 C669 1.392 . S
C670 C672 1.420 . S
C670 C702 1.423 . S
C671 H657 0.930 . S
C671 C668 1.413 . S
C671 C669 1.367 . S
C672 N667 1.362 . S
C672 C670 1.420 . S
C672 C676 1.429 . S
H673 C678 0.930 . S
N674 Eu636 2.609 . S
N674 C676 1.377 . S
N674 C677 1.321 . S
C675 H661 0.930 . S
C675 C677 1.400 . S
C675 C678 1.386 . S
C676 C672 1.429 . S
C676 N674 1.377 . S
C676 C679 1.411 . S
C677 H659 0.930 . S
C677 N674 1.321 . S
C677 C675 1.400 . S
C678 H673 0.930 . S
C678 C675 1.386 . S
C678 C679 1.395 . S
C679 C676 1.411 . S
C679 C678 1.395 . S
C679 C701 1.420 . S
O680 Eu636 2.558 . S
O680 C700 1.257 . S
O681 Eu636 2.612 . S
O681 Eu647 2.380 . S
O681 C692 1.276 . S
O682 Eu647 2.432 . S
O682 C699 1.264 . S
O683 Eu636 2.339 . S
O683 C699 1.254 . S
O684 Eu636 2.563 . S
O684 C692 1.235 . S
O685 Eu636 2.419 . S
O685 C700 1.249 . S
O686 Eu647 2.558 . S
O686 C711 1.257 . S
O687 Eu636 2.380 . S
O687 Eu647 2.612 . S
O687 C703 1.276 . S
O688 Eu636 2.432 . S
O688 C710 1.264 . S
O689 Eu647 2.339 . S
O689 C710 1.254 . S
O690 Eu647 2.563 . S
O690 C703 1.235 . S
O691 Eu647 2.419 . S
O691 C711 1.249 . S
C692 O681 1.276 . S
C692 O684 1.235 . S
C693 C695 1.393 . S
C693 C697 1.395 . S
C693 C700 1.492 . S
C694 C695 1.392 . S
C694 C696 1.386 . S
C695 C693 1.393 . S
C695 C694 1.392 . S
C695 H712 0.930 . S
C696 C694 1.386 . S
C696 C698 1.395 . S
C696 H713 0.930 . S
C697 C693 1.395 . S
C697 C698 1.379 . S
C697 H714 0.930 . S
C698 C696 1.395 . S
C698 C697 1.379 . S
C698 H715 0.930 . S
C699 O682 1.264 . S
C699 O683 1.254 . S
C700 Eu636 2.848 . S
C700 O680 1.257 . S
C700 O685 1.249 . S
C700 C693 1.492 . S
C701 H666 0.931 . S
C701 C679 1.420 . S
C701 C702 1.351 . S
C702 H664 0.930 . S
C702 C670 1.423 . S
C702 C701 1.351 . S
C703 O687 1.276 . S
C703 O690 1.235 . S
C704 C705 1.393 . S
C704 C708 1.395 . S
C704 C711 1.492 . S
C705 C704 1.393 . S
C705 C706 1.392 . S
C705 H716 0.930 . S
C706 C705 1.392 . S
C706 C707 1.386 . S
C707 C706 1.386 . S
C707 C709 1.395 . S
C707 H717 0.930 . S
C708 C704 1.395 . S
C708 C709 1.379 . S
C708 H718 0.930 . S
C709 C707 1.395 . S
C709 C708 1.379 . S
C709 H719 0.930 . S
C710 O688 1.264 . S
C710 O689 1.254 . S
C711 Eu647 2.848 . S
C711 O686 1.257 . S
C711 O691 1.249 . S
C711 C704 1.492 . S
H712 C695 0.930 . S
H713 C696 0.930 . S
H714 C697 0.930 . S
H715 C698 0.930 . S
H716 C705 0.930 . S
H717 C707 0.930 . S
H718 C708 0.930 . S
H719 C709 0.930 . S
Eu720 N751 2.657 . S
Eu720 N758 2.609 . S
Eu720 O764 2.558 . S
Eu720 O765 2.612 . S
Eu720 O767 2.339 . S
Eu720 O768 2.563 . S
Eu720 O769 2.419 . S
Eu720 O771 2.380 . S
Eu720 O772 2.432 . S
Eu720 C784 2.848 . S
C721 C724 1.429 . S
C721 C725 1.411 . S
C721 N728 1.377 . S
C722 C724 1.420 . S
C722 C726 1.423 . S
C722 C734 1.392 . S
C723 C725 1.420 . S
C723 C726 1.351 . S
C723 H746 0.931 . S
C724 C721 1.429 . S
C724 C722 1.420 . S
C724 N732 1.362 . S
C725 C721 1.411 . S
C725 C723 1.420 . S
C725 C730 1.395 . S
C726 C722 1.423 . S
C726 C723 1.351 . S
C726 H738 0.930 . S
C727 C729 1.400 . S
C727 C730 1.386 . S
C727 H739 0.930 . S
N728 C721 1.377 . S
N728 C729 1.321 . S
N728 Eu731 2.609 . S
C729 C727 1.400 . S
C729 N728 1.321 . S
C729 H736 0.930 . S
C730 C725 1.395 . S
C730 C727 1.386 . S
C730 H749 0.930 . S
Eu731 N728 2.609 . S
Eu731 N732 2.657 . S
Eu731 O765 2.380 . S
Eu731 O766 2.432 . S
Eu731 O770 2.558 . S
Eu731 O771 2.612 . S
Eu731 O773 2.339 . S
Eu731 O774 2.563 . S
Eu731 O775 2.419 . S
Eu731 C795 2.848 . S
N732 C724 1.362 . S
N732 Eu731 2.657 . S
N732 C733 1.334 . S
C733 N732 1.334 . S
C733 C735 1.413 . S
C733 H740 0.929 . S
C734 C722 1.392 . S
C734 C735 1.367 . S
C734 H742 0.930 . S
C735 C733 1.413 . S
C735 C734 1.367 . S
C735 H737 0.930 . S
H736 C729 0.930 . S
H737 C735 0.930 . S
H738 C726 0.930 . S
H739 C727 0.930 . S
H740 C733 0.929 . S
H741 C755 0.930 . S
H742 C734 0.930 . S
H743 C761 0.930 . S
H744 C752 0.929 . S
H745 C759 0.930 . S
H746 C723 0.931 . S
H747 C753 0.930 . S
H748 C786 0.930 . S
H749 C730 0.930 . S
H750 C785 0.931 . S
N751 Eu720 2.657 . S
N751 C752 1.334 . S
N751 C756 1.362 . S
C752 H744 0.929 . S
C752 N751 1.334 . S
C752 C755 1.413 . S
C753 H747 0.930 . S
C753 C754 1.392 . S
C753 C755 1.367 . S
C754 C753 1.392 . S
C754 C756 1.420 . S
C754 C786 1.423 . S
C755 H741 0.930 . S
C755 C752 1.413 . S
C755 C753 1.367 . S
C756 N751 1.362 . S
C756 C754 1.420 . S
C756 C760 1.429 . S
H757 C762 0.930 . S
N758 Eu720 2.609 . S
N758 C760 1.377 . S
N758 C761 1.321 . S
C759 H745 0.930 . S
C759 C761 1.400 . S
C759 C762 1.386 . S
C760 C756 1.429 . S
C760 N758 1.377 . S
C760 C763 1.411 . S
C761 H743 0.930 . S
C761 N758 1.321 . S
C761 C759 1.400 . S
C762 H757 0.930 . S
C762 C759 1.386 . S
C762 C763 1.395 . S
C763 C760 1.411 . S
C763 C762 1.395 . S
C763 C785 1.420 . S
O764 Eu720 2.558 . S
O764 C784 1.257 . S
O765 Eu720 2.612 . S
O765 Eu731 2.380 . S
O765 C776 1.276 . S
O766 Eu731 2.432 . S
O766 C783 1.264 . S
O767 Eu720 2.339 . S
O767 C783 1.254 . S
O768 Eu720 2.563 . S
O768 C776 1.235 . S
O769 Eu720 2.419 . S
O769 C784 1.249 . S
O770 Eu731 2.558 . S
O770 C795 1.257 . S
O771 Eu720 2.380 . S
O771 Eu731 2.612 . S
O771 C787 1.276 . S
O772 Eu720 2.432 . S
O772 C794 1.264 . S
O773 Eu731 2.339 . S
O773 C794 1.254 . S
O774 Eu731 2.563 . S
O774 C787 1.235 . S
O775 Eu731 2.419 . S
O775 C795 1.249 . S
C776 O765 1.276 . S
C776 O768 1.235 . S
C777 C779 1.393 . S
C777 C781 1.395 . S
C777 C784 1.492 . S
C778 C779 1.392 . S
C778 C780 1.386 . S
C779 C777 1.393 . S
C779 C778 1.392 . S
C779 H796 0.930 . S
C780 C778 1.386 . S
C780 C782 1.395 . S
C780 H797 0.930 . S
C781 C777 1.395 . S
C781 C782 1.379 . S
C781 H798 0.930 . S
C782 C780 1.395 . S
C782 C781 1.379 . S
C782 H799 0.930 . S
C783 O766 1.264 . S
C783 O767 1.254 . S
C784 Eu720 2.848 . S
C784 O764 1.257 . S
C784 O769 1.249 . S
C784 C777 1.492 . S
C785 H750 0.931 . S
C785 C763 1.420 . S
C785 C786 1.351 . S
C786 H748 0.930 . S
C786 C754 1.423 . S
C786 C785 1.351 . S
C787 O771 1.276 . S
C787 O774 1.235 . S
C788 C789 1.393 . S
C788 C792 1.395 . S
C788 C795 1.492 . S
C789 C788 1.393 . S
C789 C790 1.392 . S
C789 H800 0.930 . S
C790 C789 1.392 . S
C790 C791 1.386 . S
C791 C790 1.386 . S
C791 C793 1.395 . S
C791 H801 0.930 . S
C792 C788 1.395 . S
C792 C793 1.379 . S
C792 H802 0.930 . S
C793 C791 1.395 . S
C793 C792 1.379 . S
C793 H803 0.930 . S
C794 O772 1.264 . S
C794 O773 1.254 . S
C795 Eu731 2.848 . S
C795 O770 1.257 . S
C795 O775 1.249 . S
C795 C788 1.492 . S
H796 C779 0.930 . S
H797 C780 0.930 . S
H798 C781 0.930 . S
H799 C782 0.930 . S
H800 C789 0.930 . S
H801 C791 0.930 . S
H802 C792 0.930 . S
H803 C793 0.930 . S
Eu804 N835 2.657 . S
Eu804 N842 2.609 . S
Eu804 O848 2.558 . S
Eu804 O849 2.612 . S
Eu804 O851 2.339 . S
Eu804 O852 2.563 . S
Eu804 O853 2.419 . S
Eu804 O855 2.380 . S
Eu804 O856 2.432 . S
Eu804 C868 2.848 . S
C805 C808 1.429 . S
C805 C809 1.411 . S
C805 N812 1.377 . S
C806 C808 1.420 . S
C806 C810 1.423 . S
C806 C818 1.392 . S
C807 C809 1.420 . S
C807 C810 1.351 . S
C807 H830 0.931 . S
C808 C805 1.429 . S
C808 C806 1.420 . S
C808 N816 1.362 . S
C809 C805 1.411 . S
C809 C807 1.420 . S
C809 C814 1.395 . S
C810 C806 1.423 . S
C810 C807 1.351 . S
C810 H822 0.930 . S
C811 C813 1.400 . S
C811 C814 1.386 . S
C811 H823 0.930 . S
N812 C805 1.377 . S
N812 C813 1.321 . S
N812 Eu815 2.609 . S
C813 C811 1.400 . S
C813 N812 1.321 . S
C813 H820 0.930 . S
C814 C809 1.395 . S
C814 C811 1.386 . S
C814 H833 0.930 . S
Eu815 N812 2.609 . S
Eu815 N816 2.657 . S
Eu815 O849 2.380 . S
Eu815 O850 2.432 . S
Eu815 O854 2.558 . S
Eu815 O855 2.612 . S
Eu815 O857 2.339 . S
Eu815 O858 2.563 . S
Eu815 O859 2.419 . S
Eu815 C879 2.848 . S
N816 C808 1.362 . S
N816 Eu815 2.657 . S
N816 C817 1.334 . S
C817 N816 1.334 . S
C817 C819 1.413 . S
C817 H824 0.929 . S
C818 C806 1.392 . S
C818 C819 1.367 . S
C818 H826 0.930 . S
C819 C817 1.413 . S
C819 C818 1.367 . S
C819 H821 0.930 . S
H820 C813 0.930 . S
H821 C819 0.930 . S
H822 C810 0.930 . S
H823 C811 0.930 . S
H824 C817 0.929 . S
H825 C839 0.930 . S
H826 C818 0.930 . S
H827 C845 0.930 . S
H828 C836 0.929 . S
H829 C843 0.930 . S
H830 C807 0.931 . S
H831 C837 0.930 . S
H832 C870 0.930 . S
H833 C814 0.930 . S
H834 C869 0.931 . S
N835 Eu804 2.657 . S
N835 C836 1.334 . S
N835 C840 1.362 . S
C836 H828 0.929 . S
C836 N835 1.334 . S
C836 C839 1.413 . S
C837 H831 0.930 . S
C837 C838 1.392 . S
C837 C839 1.367 . S
C838 C837 1.392 . S
C838 C840 1.420 . S
C838 C870 1.423 . S
C839 H825 0.930 . S
C839 C836 1.413 . S
C839 C837 1.367 . S
C840 N835 1.362 . S
C840 C838 1.420 . S
C840 C844 1.429 . S
H841 C846 0.930 . S
N842 Eu804 2.609 . S
N842 C844 1.377 . S
N842 C845 1.321 . S
C843 H829 0.930 . S
C843 C845 1.400 . S
C843 C846 1.386 . S
C844 C840 1.429 . S
C844 N842 1.377 . S
C844 C847 1.411 . S
C845 H827 0.930 . S
C845 N842 1.321 . S
C845 C843 1.400 . S
C846 H841 0.930 . S
C846 C843 1.386 . S
C846 C847 1.395 . S
C847 C844 1.411 . S
C847 C846 1.395 . S
C847 C869 1.420 . S
O848 Eu804 2.558 . S
O848 C868 1.257 . S
O849 Eu804 2.612 . S
O849 Eu815 2.380 . S
O849 C860 1.276 . S
O850 Eu815 2.432 . S
O850 C867 1.264 . S
O851 Eu804 2.339 . S
O851 C867 1.254 . S
O852 Eu804 2.563 . S
O852 C860 1.235 . S
O853 Eu804 2.419 . S
O853 C868 1.249 . S
O854 Eu815 2.558 . S
O854 C879 1.257 . S
O855 Eu804 2.380 . S
O855 Eu815 2.612 . S
O855 C871 1.276 . S
O856 Eu804 2.432 . S
O856 C878 1.264 . S
O857 Eu815 2.339 . S
O857 C878 1.254 . S
O858 Eu815 2.563 . S
O858 C871 1.235 . S
O859 Eu815 2.419 . S
O859 C879 1.249 . S
C860 O849 1.276 . S
C860 O852 1.235 . S
C861 C863 1.393 . S
C861 C865 1.395 . S
C861 C868 1.492 . S
C862 C863 1.392 . S
C862 C864 1.386 . S
C863 C861 1.393 . S
C863 C862 1.392 . S
C863 H880 0.930 . S
C864 C862 1.386 . S
C864 C866 1.395 . S
C864 H881 0.930 . S
C865 C861 1.395 . S
C865 C866 1.379 . S
C865 H882 0.930 . S
C866 C864 1.395 . S
C866 C865 1.379 . S
C866 H883 0.930 . S
C867 O850 1.264 . S
C867 O851 1.254 . S
C868 Eu804 2.848 . S
C868 O848 1.257 . S
C868 O853 1.249 . S
C868 C861 1.492 . S
C869 H834 0.931 . S
C869 C847 1.420 . S
C869 C870 1.351 . S
C870 H832 0.930 . S
C870 C838 1.423 . S
C870 C869 1.351 . S
C871 O855 1.276 . S
C871 O858 1.235 . S
C872 C873 1.393 . S
C872 C876 1.395 . S
C872 C879 1.492 . S
C873 C872 1.393 . S
C873 C874 1.392 . S
C873 H884 0.930 . S
C874 C873 1.392 . S
C874 C875 1.386 . S
C875 C874 1.386 . S
C875 C877 1.395 . S
C875 H885 0.930 . S
C876 C872 1.395 . S
C876 C877 1.379 . S
C876 H886 0.930 . S
C877 C875 1.395 . S
C877 C876 1.379 . S
C877 H887 0.930 . S
C878 O856 1.264 . S
C878 O857 1.254 . S
C879 Eu815 2.848 . S
C879 O854 1.257 . S
C879 O859 1.249 . S
C879 C872 1.492 . S
H880 C863 0.930 . S
H881 C864 0.930 . S
H882 C865 0.930 . S
H883 C866 0.930 . S
H884 C873 0.930 . S
H885 C875 0.930 . S
H886 C876 0.930 . S
H887 C877 0.930 . S
Eu888 N919 2.657 . S
Eu888 N926 2.609 . S
Eu888 O932 2.558 . S
Eu888 O933 2.612 . S
Eu888 O935 2.339 . S
Eu888 O936 2.563 . S
Eu888 O937 2.419 . S
Eu888 O939 2.380 . S
Eu888 O940 2.432 . S
Eu888 C952 2.848 . S
C889 C892 1.429 . S
C889 C893 1.411 . S
C889 N896 1.377 . S
C890 C892 1.420 . S
C890 C894 1.423 . S
C890 C902 1.392 . S
C891 C893 1.420 . S
C891 C894 1.351 . S
C891 H914 0.931 . S
C892 C889 1.429 . S
C892 C890 1.420 . S
C892 N900 1.362 . S
C893 C889 1.411 . S
C893 C891 1.420 . S
C893 C898 1.395 . S
C894 C890 1.423 . S
C894 C891 1.351 . S
C894 H906 0.930 . S
C895 C897 1.400 . S
C895 C898 1.386 . S
C895 H907 0.930 . S
N896 C889 1.377 . S
N896 C897 1.321 . S
N896 Eu899 2.609 . S
C897 C895 1.400 . S
C897 N896 1.321 . S
C897 H904 0.930 . S
C898 C893 1.395 . S
C898 C895 1.386 . S
C898 H917 0.930 . S
Eu899 N896 2.609 . S
Eu899 N900 2.657 . S
Eu899 O933 2.380 . S
Eu899 O934 2.432 . S
Eu899 O938 2.558 . S
Eu899 O939 2.612 . S
Eu899 O941 2.339 . S
Eu899 O942 2.563 . S
Eu899 O943 2.419 . S
Eu899 C963 2.848 . S
N900 C892 1.362 . S
N900 Eu899 2.657 . S
N900 C901 1.334 . S
C901 N900 1.334 . S
C901 C903 1.413 . S
C901 H908 0.929 . S
C902 C890 1.392 . S
C902 C903 1.367 . S
C902 H910 0.930 . S
C903 C901 1.413 . S
C903 C902 1.367 . S
C903 H905 0.930 . S
H904 C897 0.930 . S
H905 C903 0.930 . S
H906 C894 0.930 . S
H907 C895 0.930 . S
H908 C901 0.929 . S
H909 C923 0.930 . S
H910 C902 0.930 . S
H911 C929 0.930 . S
H912 C920 0.929 . S
H913 C927 0.930 . S
H914 C891 0.931 . S
H915 C921 0.930 1_455 S
H916 C954 0.930 1_455 S
H917 C898 0.930 . S
H918 C953 0.931 . S
N919 Eu888 2.657 . S
N919 C920 1.334 . S
N919 C924 1.362 . S
C920 H912 0.929 . S
C920 N919 1.334 . S
C920 C923 1.413 . S
C921 H915 0.930 1_655 S
C921 C922 1.392 . S
C921 C923 1.367 . S
C922 C921 1.392 . S
C922 C924 1.420 . S
C922 C954 1.423 . S
C923 H909 0.930 . S
C923 C920 1.413 . S
C923 C921 1.367 . S
C924 N919 1.362 . S
C924 C922 1.420 . S
C924 C928 1.429 . S
H925 C930 0.930 . S
N926 Eu888 2.609 . S
N926 C928 1.377 . S
N926 C929 1.321 . S
C927 H913 0.930 . S
C927 C929 1.400 . S
C927 C930 1.386 . S
C928 C924 1.429 . S
C928 N926 1.377 . S
C928 C931 1.411 . S
C929 H911 0.930 . S
C929 N926 1.321 . S
C929 C927 1.400 . S
C930 H925 0.930 . S
C930 C927 1.386 . S
C930 C931 1.395 . S
C931 C928 1.411 . S
C931 C930 1.395 . S
C931 C953 1.420 . S
O932 Eu888 2.558 . S
O932 C952 1.257 . S
O933 Eu888 2.612 . S
O933 Eu899 2.380 . S
O933 C944 1.276 . S
O934 Eu899 2.432 . S
O934 C951 1.264 . S
O935 Eu888 2.339 . S
O935 C951 1.254 . S
O936 Eu888 2.563 . S
O936 C944 1.235 . S
O937 Eu888 2.419 . S
O937 C952 1.249 . S
O938 Eu899 2.558 . S
O938 C963 1.257 . S
O939 Eu888 2.380 . S
O939 Eu899 2.612 . S
O939 C955 1.276 . S
O940 Eu888 2.432 . S
O940 C962 1.264 . S
O941 Eu899 2.339 . S
O941 C962 1.254 . S
O942 Eu899 2.563 . S
O942 C955 1.235 . S
O943 Eu899 2.419 . S
O943 C963 1.249 . S
C944 O933 1.276 . S
C944 O936 1.235 . S
C945 C947 1.393 . S
C945 C949 1.395 . S
C945 C952 1.492 . S
C946 C947 1.392 . S
C946 C948 1.386 . S
C947 C945 1.393 . S
C947 C946 1.392 . S
C947 H964 0.930 . S
C948 C946 1.386 . S
C948 C950 1.395 . S
C948 H965 0.930 . S
C949 C945 1.395 . S
C949 C950 1.379 . S
C949 H966 0.930 . S
C950 C948 1.395 . S
C950 C949 1.379 . S
C950 H967 0.930 . S
C951 O934 1.264 . S
C951 O935 1.254 . S
C952 Eu888 2.848 . S
C952 O932 1.257 . S
C952 O937 1.249 . S
C952 C945 1.492 . S
C953 H918 0.931 . S
C953 C931 1.420 . S
C953 C954 1.351 . S
C954 H916 0.930 1_655 S
C954 C922 1.423 . S
C954 C953 1.351 . S
C955 O939 1.276 . S
C955 O942 1.235 . S
C956 C957 1.393 . S
C956 C960 1.395 . S
C956 C963 1.492 . S
C957 C956 1.393 . S
C957 C958 1.392 . S
C957 H968 0.930 . S
C958 C957 1.392 . S
C958 C959 1.386 . S
C959 C958 1.386 . S
C959 C961 1.395 . S
C959 H969 0.930 . S
C960 C956 1.395 . S
C960 C961 1.379 . S
C960 H970 0.930 . S
C961 C959 1.395 . S
C961 C960 1.379 . S
C961 H971 0.930 . S
C962 O940 1.264 . S
C962 O941 1.254 . S
C963 Eu899 2.848 . S
C963 O938 1.257 . S
C963 O943 1.249 . S
C963 C956 1.492 . S
H964 C947 0.930 . S
H965 C948 0.930 . S
H966 C949 0.930 . S
H967 C950 0.930 . S
H968 C957 0.930 . S
H969 C959 0.930 . S
H970 C960 0.930 . S
H971 C961 0.930 . S
C972 C973 1.391 . S
C972 C974 1.394 . S
C972 H988 0.931 . S
C973 C972 1.391 . S
C973 C977 1.376 . S
C974 C972 1.394 . S
C974 C975 1.369 . S
C974 C978 1.531 . S
C975 C974 1.369 . S
C975 C976 1.410 . S
C975 C983 1.503 . S
C976 C975 1.410 . S
C976 C977 1.392 . S
C976 C979 1.511 . S
C977 C973 1.376 . S
C977 C976 1.392 . S
C977 H989 0.929 . S
C978 C974 1.531 . S
C978 H990 0.960 . S
C978 H991 0.962 . S
C978 H992 0.960 . S
C979 C976 1.511 . S
C979 H993 0.961 . S
C979 H994 0.961 . S
C979 H995 0.961 . S
C980 C981 1.370 . S
C980 C982 1.363 . S
C980 H996 0.931 . S
C981 C980 1.370 . S
C981 C985 1.408 . S
C982 C980 1.363 . S
C982 C983 1.370 . S
C982 C986 1.524 . S
C983 C975 1.503 . S
C983 C982 1.370 . S
C983 C984 1.403 . S
C984 C983 1.403 . S
C984 C985 1.404 . S
C984 C987 1.539 . S
C985 C981 1.408 . S
C985 C984 1.404 . S
C985 H997 0.930 . S
C986 C982 1.524 . S
C986 H998 0.956 . S
C986 H999 0.961 . S
C986 H1000 0.961 1_554 S
C987 C984 1.539 . S
C987 H1001 0.958 . S
C987 H1002 0.961 . S
C987 H1003 0.960 . S
H988 C972 0.931 . S
H989 C977 0.929 . S
H990 C978 0.960 . S
H991 C978 0.962 . S
H992 C978 0.960 . S
H993 C979 0.961 . S
H994 C979 0.961 . S
H995 C979 0.961 . S
H996 C980 0.931 . S
H997 C985 0.930 . S
H998 C986 0.956 . S
H999 C986 0.961 . S
H1000 C986 0.961 1_556 S
H1001 C987 0.958 . S
H1002 C987 0.961 . S
H1003 C987 0.960 . S
C1004 C1005 1.391 . S
C1004 C1006 1.394 . S
C1004 H1020 0.931 . S
C1005 C1004 1.391 . S
C1005 C1009 1.376 . S
C1006 C1004 1.394 . S
C1006 C1007 1.369 . S
C1006 C1010 1.531 . S
C1007 C1006 1.369 . S
C1007 C1008 1.410 . S
C1007 C1015 1.503 . S
C1008 C1007 1.410 . S
C1008 C1009 1.392 . S
C1008 C1011 1.511 . S
C1009 C1005 1.376 . S
C1009 C1008 1.392 . S
C1009 H1021 0.929 . S
C1010 C1006 1.531 . S
C1010 H1022 0.960 . S
C1010 H1023 0.962 . S
C1010 H1024 0.960 . S
C1011 C1008 1.511 . S
C1011 H1025 0.961 . S
C1011 H1026 0.961 . S
C1011 H1027 0.961 . S
C1012 C1013 1.370 . S
C1012 C1014 1.363 . S
C1012 H1028 0.931 . S
C1013 C1012 1.370 . S
C1013 C1017 1.408 . S
C1014 C1012 1.363 . S
C1014 C1015 1.370 . S
C1014 C1018 1.524 . S
C1015 C1007 1.503 . S
C1015 C1014 1.370 . S
C1015 C1016 1.403 . S
C1016 C1015 1.403 . S
C1016 C1017 1.404 . S
C1016 C1019 1.539 . S
C1017 C1013 1.408 . S
C1017 C1016 1.404 . S
C1017 H1029 0.930 . S
C1018 C1014 1.524 . S
C1018 H1030 0.956 . S
C1018 H1031 0.961 . S
C1018 H1032 0.983 . S
C1019 C1016 1.539 . S
C1019 H1033 0.958 . S
C1019 H1034 0.961 . S
C1019 H1035 0.960 . S
H1020 C1004 0.931 . S
H1021 C1009 0.929 . S
H1022 C1010 0.960 . S
H1023 C1010 0.962 . S
H1024 C1010 0.960 . S
H1025 C1011 0.961 . S
H1026 C1011 0.961 . S
H1027 C1011 0.961 . S
H1028 C1012 0.931 . S
H1029 C1017 0.930 . S
H1030 C1018 0.956 . S
H1031 C1018 0.961 . S
H1032 C1018 0.983 . S
H1033 C1019 0.958 . S
H1034 C1019 0.961 . S
H1035 C1019 0.960 . S
C1036 C1037 1.391 . S
C1036 C1038 1.394 . S
C1036 H1052 0.931 . S
C1037 C1036 1.391 . S
C1037 C1041 1.376 . S
C1038 C1036 1.394 . S
C1038 C1039 1.369 . S
C1038 C1042 1.531 . S
C1039 C1038 1.369 . S
C1039 C1040 1.410 . S
C1039 C1047 1.503 . S
C1040 C1039 1.410 . S
C1040 C1041 1.392 . S
C1040 C1043 1.511 . S
C1041 C1037 1.376 . S
C1041 C1040 1.392 . S
C1041 H1053 0.929 . S
C1042 C1038 1.531 . S
C1042 H1054 0.960 . S
C1042 H1055 0.962 . S
C1042 H1056 0.960 . S
C1043 C1040 1.511 . S
C1043 H1057 0.961 . S
C1043 H1058 0.961 . S
C1043 H1059 0.961 . S
C1044 C1045 1.370 . S
C1044 C1046 1.363 . S
C1044 H1060 0.931 . S
C1045 C1044 1.370 . S
C1045 C1049 1.408 . S
C1046 C1044 1.363 . S
C1046 C1047 1.370 . S
C1046 C1050 1.524 . S
C1047 C1039 1.503 . S
C1047 C1046 1.370 . S
C1047 C1048 1.403 . S
C1048 C1047 1.403 . S
C1048 C1049 1.404 . S
C1048 C1051 1.539 . S
C1049 C1045 1.408 . S
C1049 C1048 1.404 . S
C1049 H1061 0.930 . S
C1050 C1046 1.524 . S
C1050 H1062 0.956 . S
C1050 H1063 0.961 . S
C1050 H1064 0.961 1_554 S
C1051 C1048 1.539 . S
C1051 H1065 0.958 . S
C1051 H1066 0.961 . S
C1051 H1067 0.960 . S
H1052 C1036 0.931 . S
H1053 C1041 0.929 . S
H1054 C1042 0.960 . S
H1055 C1042 0.962 . S
H1056 C1042 0.960 . S
H1057 C1043 0.961 . S
H1058 C1043 0.961 . S
H1059 C1043 0.961 . S
H1060 C1044 0.931 . S
H1061 C1049 0.930 . S
H1062 C1050 0.956 . S
H1063 C1050 0.961 . S
H1064 C1050 0.961 1_556 S
H1065 C1051 0.958 . S
H1066 C1051 0.961 . S
H1067 C1051 0.960 . S
C1068 C1069 1.391 . S
C1068 C1070 1.394 . S
C1068 H1084 0.931 . S
C1069 C1068 1.391 . S
C1069 C1073 1.376 . S
C1070 C1068 1.394 . S
C1070 C1071 1.369 . S
C1070 C1074 1.531 . S
C1071 C1070 1.369 . S
C1071 C1072 1.410 . S
C1071 C1079 1.503 . S
C1072 C1071 1.410 . S
C1072 C1073 1.392 . S
C1072 C1075 1.511 . S
C1073 C1069 1.376 . S
C1073 C1072 1.392 . S
C1073 H1085 0.929 . S
C1074 C1070 1.531 . S
C1074 H1086 0.960 . S
C1074 H1087 0.962 . S
C1074 H1088 0.960 . S
C1075 C1072 1.511 . S
C1075 H1089 0.961 . S
C1075 H1090 0.961 . S
C1075 H1091 0.961 . S
C1076 C1077 1.370 1_554 S
C1076 C1078 1.363 1_554 S
C1076 H1092 0.931 . S
C1077 C1076 1.370 1_556 S
C1077 C1081 1.408 . S
C1078 C1076 1.363 1_556 S
C1078 C1079 1.370 . S
C1078 C1082 1.524 1_556 S
C1079 C1071 1.503 . S
C1079 C1078 1.370 . S
C1079 C1080 1.403 . S
C1080 C1079 1.403 . S
C1080 C1081 1.404 . S
C1080 C1083 1.539 . S
C1081 C1077 1.408 . S
C1081 C1080 1.404 . S
C1081 H1093 0.930 . S
C1082 C1078 1.524 1_554 S
C1082 H1094 0.956 . S
C1082 H1095 0.961 . S
C1082 H1096 0.961 . S
C1083 C1080 1.539 . S
C1083 H1097 0.958 . S
C1083 H1098 0.961 . S
C1083 H1099 0.960 . S
H1084 C1068 0.931 . S
H1085 C1073 0.929 . S
H1086 C1074 0.960 . S
H1087 C1074 0.962 . S
H1088 C1074 0.960 . S
H1089 C1075 0.961 . S
H1090 C1075 0.961 . S
H1091 C1075 0.961 . S
H1092 C1076 0.931 . S
H1093 C1081 0.930 . S
H1094 C1082 0.956 . S
H1095 C1082 0.961 . S
H1096 C1082 0.961 . S
H1097 C1083 0.958 . S
H1098 C1083 0.961 . S
H1099 C1083 0.960 . S
C1100 C1101 1.391 . S
C1100 C1102 1.394 . S
C1100 H1116 0.931 . S
C1101 C1100 1.391 . S
C1101 C1105 1.376 . S
C1102 C1100 1.394 . S
C1102 C1103 1.369 . S
C1102 C1106 1.531 . S
C1103 C1102 1.369 . S
C1103 C1104 1.410 . S
C1103 C1111 1.503 . S
C1104 C1103 1.410 . S
C1104 C1105 1.392 . S
C1104 C1107 1.511 1_556 S
C1105 C1101 1.376 . S
C1105 C1104 1.392 . S
C1105 H1117 0.929 . S
C1106 C1102 1.531 . S
C1106 H1118 0.960 . S
C1106 H1119 0.962 . S
C1106 H1120 0.960 . S
C1107 C1104 1.511 1_554 S
C1107 H1121 0.961 . S
C1107 H1122 0.961 . S
C1107 H1123 0.961 . S
C1108 C1109 1.370 . S
C1108 C1110 1.363 . S
C1108 H1124 0.931 . S
C1109 C1108 1.370 . S
C1109 C1113 1.408 1_556 S
C1110 C1108 1.363 . S
C1110 C1111 1.370 . S
C1110 C1114 1.524 . S
C1111 C1103 1.503 . S
C1111 C1110 1.370 . S
C1111 C1112 1.403 . S
C1112 C1111 1.403 . S
C1112 C1113 1.404 1_556 S
C1112 C1115 1.539 1_556 S
C1113 C1109 1.408 1_554 S
C1113 C1112 1.404 1_554 S
C1113 H1125 0.930 . S
C1114 C1110 1.524 . S
C1114 H1126 0.956 . S
C1114 H1127 0.961 . S
C1114 H1128 0.961 . S
C1115 C1112 1.539 1_554 S
C1115 H1129 0.958 1_554 S
C1115 H1130 0.961 . S
C1115 H1131 0.960 . S
H1116 C1100 0.931 . S
H1117 C1105 0.929 . S
H1118 C1106 0.960 . S
H1119 C1106 0.962 . S
H1120 C1106 0.960 . S
H1121 C1107 0.961 . S
H1122 C1107 0.961 . S
H1123 C1107 0.961 . S
H1124 C1108 0.931 . S
H1125 C1113 0.930 . S
H1126 C1114 0.956 . S
H1127 C1114 0.961 . S
H1128 C1114 0.961 . S
H1129 C1115 0.958 1_556 S
H1130 C1115 0.961 . S
H1131 C1115 0.960 . S
C1132 C1133 1.391 . S
C1132 C1134 1.394 . S
C1132 H1148 0.931 . S
C1133 C1132 1.391 . S
C1133 C1137 1.376 . S
C1134 C1132 1.394 . S
C1134 C1135 1.369 . S
C1134 C1138 1.531 . S
C1135 C1134 1.369 . S
C1135 C1136 1.410 . S
C1135 C1143 1.503 . S
C1136 C1135 1.410 . S
C1136 C1137 1.392 . S
C1136 C1139 1.511 . S
C1137 C1133 1.376 . S
C1137 C1136 1.392 . S
C1137 H1149 0.929 . S
C1138 C1134 1.531 . S
C1138 H1150 0.960 . S
C1138 H1151 0.962 . S
C1138 H1152 0.960 . S
C1139 C1136 1.511 . S
C1139 H1153 0.961 . S
C1139 H1154 0.961 . S
C1139 H1155 0.961 . S
C1140 C1141 1.370 1_554 S
C1140 C1142 1.380 . S
C1140 H1156 0.931 . S
C1141 C1140 1.370 1_556 S
C1141 C1145 1.408 . S
C1142 C1140 1.380 . S
C1142 C1143 1.325 1_554 S
C1142 C1146 1.554 . S
C1143 C1135 1.503 . S
C1143 C1142 1.325 1_556 S
C1143 C1144 1.403 . S
C1144 C1143 1.403 . S
C1144 C1145 1.404 . S
C1144 C1147 1.539 . S
C1145 C1141 1.408 . S
C1145 C1144 1.404 . S
C1145 H1157 0.930 . S
C1146 C1142 1.554 . S
C1146 H1158 0.956 . S
C1146 H1159 0.961 . S
C1146 H1160 0.961 . S
C1147 C1144 1.539 . S
C1147 H1161 0.958 . S
C1147 H1162 0.961 . S
C1147 H1163 0.960 . S
H1148 C1132 0.931 . S
H1149 C1137 0.929 . S
H1150 C1138 0.960 . S
H1151 C1138 0.962 . S
H1152 C1138 0.960 . S
H1153 C1139 0.961 . S
H1154 C1139 0.961 . S
H1155 C1139 0.961 . S
H1156 C1140 0.931 . S
H1157 C1145 0.930 . S
H1158 C1146 0.956 . S
H1159 C1146 0.961 . S
H1160 C1146 0.961 . S
H1161 C1147 0.958 . S
H1162 C1147 0.961 . S
H1163 C1147 0.960 . S
C1164 C1165 1.391 . S
C1164 C1166 1.394 . S
C1164 H1180 0.931 . S
C1165 C1164 1.391 . S
C1165 C1169 1.376 . S
C1166 C1164 1.394 . S
C1166 C1167 1.369 . S
C1166 C1170 1.531 . S
C1167 C1166 1.369 . S
C1167 C1168 1.410 . S
C1167 C1175 1.503 . S
C1168 C1167 1.410 . S
C1168 C1169 1.392 . S
C1168 C1171 1.511 . S
C1169 C1165 1.376 . S
C1169 C1168 1.392 . S
C1169 H1181 0.929 . S
C1170 C1166 1.531 . S
C1170 H1182 0.960 . S
C1170 H1183 0.962 . S
C1170 H1184 0.960 . S
C1171 C1168 1.511 . S
C1171 H1185 0.961 . S
C1171 H1186 0.961 . S
C1171 H1187 0.961 . S
C1172 C1173 1.370 1_554 S
C1172 C1174 1.363 . S
C1172 H1188 0.931 . S
C1173 C1172 1.370 1_556 S
C1173 C1177 1.408 . S
C1174 C1172 1.363 . S
C1174 C1175 1.370 1_554 S
C1174 C1178 1.524 . S
C1175 C1167 1.503 . S
C1175 C1174 1.370 1_556 S
C1175 C1176 1.403 . S
C1176 C1175 1.403 . S
C1176 C1177 1.404 . S
C1176 C1179 1.539 . S
C1177 C1173 1.408 . S
C1177 C1176 1.404 . S
C1177 H1189 0.930 . S
C1178 C1174 1.524 . S
C1178 H1190 0.956 . S
C1178 H1191 0.961 . S
C1178 H1192 0.961 . S
C1179 C1176 1.539 . S
C1179 H1193 0.958 . S
C1179 H1194 0.961 . S
C1179 H1195 0.960 . S
H1180 C1164 0.931 . S
H1181 C1169 0.929 . S
H1182 C1170 0.960 . S
H1183 C1170 0.962 . S
H1184 C1170 0.960 . S
H1185 C1171 0.961 . S
H1186 C1171 0.961 . S
H1187 C1171 0.961 . S
H1188 C1172 0.931 . S
H1189 C1177 0.930 . S
H1190 C1178 0.956 . S
H1191 C1178 0.961 . S
H1192 C1178 0.961 . S
H1193 C1179 0.958 . S
H1194 C1179 0.961 . S
H1195 C1179 0.960 . S
C1196 C1197 1.391 . S
C1196 C1198 1.394 . S
C1196 H1212 0.931 . S
C1197 C1196 1.391 . S
C1197 C1201 1.376 . S
C1198 C1196 1.394 . S
C1198 C1199 1.369 . S
C1198 C1202 1.531 . S
C1199 C1198 1.369 . S
C1199 C1200 1.410 . S
C1199 C1207 1.503 . S
C1200 C1199 1.410 . S
C1200 C1201 1.392 . S
C1200 C1203 1.511 1_556 S
C1201 C1197 1.376 . S
C1201 C1200 1.392 . S
C1201 H1213 0.929 . S
C1202 C1198 1.531 . S
C1202 H1214 0.960 . S
C1202 H1215 0.962 . S
C1202 H1216 0.960 . S
C1203 C1200 1.511 1_554 S
C1203 H1217 0.961 . S
C1203 H1218 0.961 . S
C1203 H1219 0.961 . S
C1204 C1205 1.370 . S
C1204 C1206 1.363 . S
C1204 H1220 0.931 . S
C1205 C1204 1.370 . S
C1205 C1209 1.408 1_556 S
C1206 C1204 1.363 . S
C1206 C1207 1.370 . S
C1206 C1210 1.524 . S
C1207 C1199 1.503 . S
C1207 C1206 1.370 . S
C1207 C1208 1.403 . S
C1208 C1207 1.403 . S
C1208 C1209 1.404 1_556 S
C1208 C1211 1.539 1_556 S
C1209 C1205 1.408 1_554 S
C1209 C1208 1.404 1_554 S
C1209 H1221 0.930 . S
C1210 C1206 1.524 . S
C1210 H1222 0.956 . S
C1210 H1223 0.961 . S
C1210 H1224 0.961 . S
C1211 C1208 1.539 1_554 S
C1211 H1225 0.957 . S
C1211 H1226 0.961 . S
C1211 H1227 0.960 . S
H1212 C1196 0.931 . S
H1213 C1201 0.929 . S
H1214 C1202 0.960 . S
H1215 C1202 0.962 . S
H1216 C1202 0.960 . S
H1217 C1203 0.961 . S
H1218 C1203 0.961 . S
H1219 C1203 0.961 . S
H1220 C1204 0.931 . S
H1221 C1209 0.930 . S
H1222 C1210 0.956 . S
H1223 C1210 0.961 . S
H1224 C1210 0.961 . S
H1225 C1211 0.957 . S
H1226 C1211 0.961 . S
H1227 C1211 0.960 . S
C1228 C1229 1.391 . S
C1228 C1230 1.394 . S
C1228 H1244 0.931 . S
C1229 C1228 1.391 . S
C1229 C1233 1.376 . S
C1230 C1228 1.394 . S
C1230 C1231 1.369 . S
C1230 C1234 1.531 . S
C1231 C1230 1.369 . S
C1231 C1232 1.410 . S
C1231 C1239 1.503 . S
C1232 C1231 1.410 . S
C1232 C1233 1.392 . S
C1232 C1235 1.511 1_556 S
C1233 C1229 1.376 . S
C1233 C1232 1.392 . S
C1233 H1245 0.929 1_556 S
C1234 C1230 1.531 . S
C1234 H1246 0.960 . S
C1234 H1247 0.962 . S
C1234 H1248 0.960 . S
C1235 C1232 1.511 1_554 S
C1235 H1249 0.961 . S
C1235 H1250 0.961 . S
C1235 H1251 0.961 . S
C1236 C1237 1.370 . S
C1236 C1238 1.363 . S
C1236 H1252 0.931 1_556 S
C1237 C1236 1.370 . S
C1237 C1241 1.408 . S
C1238 C1236 1.363 . S
C1238 C1239 1.370 . S
C1238 C1242 1.524 . S
C1239 C1231 1.503 . S
C1239 C1238 1.370 . S
C1239 C1240 1.403 . S
C1240 C1239 1.403 . S
C1240 C1241 1.404 . S
C1240 C1243 1.539 . S
C1241 C1237 1.408 . S
C1241 C1240 1.404 . S
C1241 H1253 0.930 . S
C1242 C1238 1.524 . S
C1242 H1254 0.956 . S
C1242 H1255 0.961 1_556 S
C1242 H1256 0.961 1_556 S
C1243 C1240 1.539 . S
C1243 H1257 0.958 . S
C1243 H1258 0.961 . S
C1243 H1259 0.960 . S
H1244 C1228 0.931 . S
H1245 C1233 0.929 1_554 S
H1246 C1234 0.960 . S
H1247 C1234 0.962 . S
H1248 C1234 0.960 . S
H1249 C1235 0.961 . S
H1250 C1235 0.961 . S
H1251 C1235 0.961 . S
H1252 C1236 0.931 1_554 S
H1253 C1241 0.930 . S
H1254 C1242 0.956 . S
H1255 C1242 0.961 1_554 S
H1256 C1242 0.961 1_554 S
H1257 C1243 0.958 . S
H1258 C1243 0.961 . S
H1259 C1243 0.960 . S
C1260 C1261 1.391 . S
C1260 C1262 1.394 . S
C1260 H1276 0.931 . S
C1261 C1260 1.391 . S
C1261 C1265 1.376 . S
C1262 C1260 1.394 . S
C1262 C1263 1.369 . S
C1262 C1266 1.531 . S
C1263 C1262 1.369 . S
C1263 C1264 1.410 . S
C1263 C1271 1.503 . S
C1264 C1263 1.410 . S
C1264 C1265 1.392 . S
C1264 C1267 1.511 . S
C1265 C1261 1.376 . S
C1265 C1264 1.392 . S
C1265 H1277 0.929 . S
C1266 C1262 1.531 . S
C1266 H1278 0.960 . S
C1266 H1279 0.962 . S
C1266 H1280 0.960 . S
C1267 C1264 1.511 . S
C1267 H1281 0.961 . S
C1267 H1282 0.961 . S
C1267 H1283 0.961 . S
C1268 C1269 1.370 . S
C1268 C1270 1.363 . S
C1268 H1284 0.931 . S
C1269 C1268 1.370 . S
C1269 C1273 1.408 . S
C1270 C1268 1.363 . S
C1270 C1271 1.370 . S
C1270 C1274 1.524 . S
C1271 C1263 1.503 . S
C1271 C1270 1.370 . S
C1271 C1272 1.403 . S
C1272 C1271 1.403 . S
C1272 C1273 1.404 . S
C1272 C1275 1.539 . S
C1273 C1269 1.408 . S
C1273 C1272 1.404 . S
C1273 H1285 0.930 . S
C1274 C1270 1.524 . S
C1274 H1286 0.956 . S
C1274 H1287 0.961 . S
C1274 H1288 0.961 . S
C1275 C1272 1.539 . S
C1275 H1289 0.958 . S
C1275 H1290 0.961 . S
C1275 H1291 0.960 . S
H1276 C1260 0.931 . S
H1277 C1265 0.929 . S
H1278 C1266 0.960 . S
H1279 C1266 0.962 . S
H1280 C1266 0.960 . S
H1281 C1267 0.961 . S
H1282 C1267 0.961 . S
H1283 C1267 0.961 . S
H1284 C1268 0.931 . S
H1285 C1273 0.930 . S
H1286 C1274 0.956 . S
H1287 C1274 0.961 . S
H1288 C1274 0.961 . S
H1289 C1275 0.958 . S
H1290 C1275 0.961 . S
H1291 C1275 0.960 . S
C1292 C1293 1.391 . S
C1292 C1294 1.394 . S
C1292 H1308 0.931 . S
C1293 C1292 1.391 . S
C1293 C1297 1.376 . S
C1294 C1292 1.394 . S
C1294 C1295 1.369 . S
C1294 C1298 1.531 . S
C1295 C1294 1.369 . S
C1295 C1296 1.410 . S
C1295 C1303 1.503 . S
C1296 C1295 1.410 . S
C1296 C1297 1.392 . S
C1296 C1299 1.511 . S
C1297 C1293 1.376 . S
C1297 C1296 1.392 . S
C1297 H1309 0.929 . S
C1298 C1294 1.531 . S
C1298 H1310 0.960 . S
C1298 H1311 0.962 . S
C1298 H1312 0.960 . S
C1299 C1296 1.511 . S
C1299 H1313 0.961 . S
C1299 H1314 0.961 . S
C1299 H1315 0.961 . S
C1300 C1301 1.370 . S
C1300 C1302 1.363 . S
C1300 H1316 0.931 . S
C1301 C1300 1.370 . S
C1301 C1305 1.408 . S
C1302 C1300 1.363 . S
C1302 C1303 1.370 . S
C1302 C1306 1.524 . S
C1303 C1295 1.503 . S
C1303 C1302 1.370 . S
C1303 C1304 1.403 . S
C1304 C1303 1.403 . S
C1304 C1305 1.404 . S
C1304 C1307 1.539 . S
C1305 C1301 1.408 . S
C1305 C1304 1.404 . S
C1305 H1317 0.930 . S
C1306 C1302 1.524 . S
C1306 H1318 0.956 . S
C1306 H1319 0.961 . S
C1306 H1320 0.961 . S
C1307 C1304 1.539 . S
C1307 H1321 0.958 . S
C1307 H1322 0.961 1_554 S
C1307 H1323 0.960 . S
H1308 C1292 0.931 . S
H1309 C1297 0.929 . S
H1310 C1298 0.960 . S
H1311 C1298 0.962 . S
H1312 C1298 0.960 . S
H1313 C1299 0.961 . S
H1314 C1299 0.961 . S
H1315 C1299 0.961 . S
H1316 C1300 0.931 . S
H1317 C1305 0.930 . S
H1318 C1306 0.956 . S
H1319 C1306 0.961 . S
H1320 C1306 0.961 . S
H1321 C1307 0.958 . S
H1322 C1307 0.961 1_556 S
H1323 C1307 0.960 . S
C1324 C1325 1.391 . S
C1324 C1326 1.394 . S
C1324 H1340 0.931 . S
C1325 C1324 1.391 . S
C1325 C1329 1.376 . S
C1326 C1324 1.394 . S
C1326 C1327 1.369 . S
C1326 C1330 1.531 . S
C1327 C1326 1.369 . S
C1327 C1328 1.410 . S
C1327 C1335 1.503 . S
C1328 C1327 1.410 . S
C1328 C1329 1.392 . S
C1328 C1331 1.511 . S
C1329 C1325 1.376 . S
C1329 C1328 1.392 . S
C1329 H1341 0.929 . S
C1330 C1326 1.531 . S
C1330 H1342 0.960 . S
C1330 H1343 0.962 . S
C1330 H1344 0.960 . S
C1331 C1328 1.511 . S
C1331 H1345 0.961 1_554 S
C1331 H1346 0.972 . S
C1331 H1347 0.961 . S
C1332 C1333 1.370 . S
C1332 C1334 1.363 . S
C1332 H1348 0.931 . S
C1333 C1332 1.370 . S
C1333 C1337 1.408 . S
C1334 C1332 1.363 . S
C1334 C1335 1.370 . S
C1334 C1338 1.524 . S
C1335 C1327 1.503 . S
C1335 C1334 1.370 . S
C1335 C1336 1.403 . S
C1336 C1335 1.403 . S
C1336 C1337 1.404 . S
C1336 C1339 1.539 . S
C1337 C1333 1.408 . S
C1337 C1336 1.404 . S
C1337 H1349 0.930 . S
C1338 C1334 1.524 . S
C1338 H1350 0.956 . S
C1338 H1351 0.961 . S
C1338 H1352 0.961 . S
C1339 C1336 1.539 . S
C1339 H1353 0.958 . S
C1339 H1354 0.961 . S
C1339 H1355 0.960 . S
H1340 C1324 0.931 . S
H1341 C1329 0.929 . S
H1342 C1330 0.960 . S
H1343 C1330 0.962 . S
H1344 C1330 0.960 . S
H1345 C1331 0.961 1_556 S
H1346 C1331 0.972 . S
H1347 C1331 0.961 . S
H1348 C1332 0.931 . S
H1349 C1337 0.930 . S
H1350 C1338 0.956 . S
H1351 C1338 0.961 . S
H1352 C1338 0.961 . S
H1353 C1339 0.958 . S
H1354 C1339 0.961 . S
H1355 C1339 0.960 . S
C1356 C1357 1.391 . S
C1356 C1358 1.394 . S
C1356 H1372 0.931 . S
C1357 C1356 1.391 . S
C1357 C1361 1.376 . S
C1358 C1356 1.394 . S
C1358 C1359 1.369 . S
C1358 C1362 1.531 . S
C1359 C1358 1.369 . S
C1359 C1360 1.410 . S
C1359 C1367 1.503 1_655 S
C1360 C1359 1.410 . S
C1360 C1361 1.392 . S
C1360 C1363 1.511 . S
C1361 C1357 1.376 . S
C1361 C1360 1.392 . S
C1361 H1373 0.929 . S
C1362 C1358 1.531 . S
C1362 H1374 0.960 . S
C1362 H1375 0.962 1_655 S
C1362 H1376 0.960 . S
C1363 C1360 1.511 . S
C1363 H1377 0.961 . S
C1363 H1378 0.961 1_655 S
C1363 H1379 0.961 . S
C1364 C1365 1.370 . S
C1364 C1366 1.363 . S
C1364 H1380 0.931 . S
C1365 C1364 1.370 . S
C1365 C1369 1.408 . S
C1366 C1364 1.363 . S
C1366 C1367 1.370 . S
C1366 C1370 1.524 . S
C1367 C1359 1.503 1_455 S
C1367 C1366 1.370 . S
C1367 C1368 1.403 . S
C1368 C1367 1.403 . S
C1368 C1369 1.404 . S
C1368 C1371 1.539 1_455 S
C1369 C1365 1.408 . S
C1369 C1368 1.404 . S
C1369 H1381 0.930 . S
C1370 C1366 1.524 . S
C1370 H1382 0.956 . S
C1370 H1383 0.961 . S
C1370 H1384 0.961 . S
C1371 C1368 1.539 1_655 S
C1371 H1385 0.958 . S
C1371 H1386 0.961 . S
C1371 H1387 0.960 . S
H1372 C1356 0.931 . S
H1373 C1361 0.929 . S
H1374 C1362 0.960 . S
H1375 C1362 0.962 1_455 S
H1376 C1362 0.960 . S
H1377 C1363 0.961 . S
H1378 C1363 0.961 1_455 S
H1379 C1363 0.961 . S
H1380 C1364 0.931 . S
H1381 C1369 0.930 . S
H1382 C1370 0.956 . S
H1383 C1370 0.961 . S
H1384 C1370 0.961 . S
H1385 C1371 0.958 . S
H1386 C1371 0.961 . S
H1387 C1371 0.960 . S
C1388 C1389 1.391 . S
C1388 C1390 1.394 . S
C1388 H1404 0.931 . S
C1389 C1388 1.391 . S
C1389 C1393 1.376 . S
C1390 C1388 1.394 . S
C1390 C1391 1.369 . S
C1390 C1394 1.531 . S
C1391 C1390 1.369 . S
C1391 C1392 1.410 . S
C1391 C1399 1.503 . S
C1392 C1391 1.410 . S
C1392 C1393 1.392 . S
C1392 C1395 1.511 . S
C1393 C1389 1.376 . S
C1393 C1392 1.392 . S
C1393 H1405 0.929 . S
C1394 C1390 1.531 . S
C1394 H1406 0.960 . S
C1394 H1407 0.962 . S
C1394 H1408 0.960 . S
C1395 C1392 1.511 . S
C1395 H1409 0.961 . S
C1395 H1410 0.961 . S
C1395 H1411 0.961 . S
C1396 C1397 1.370 . S
C1396 C1398 1.363 . S
C1396 H1412 0.931 . S
C1397 C1396 1.370 . S
C1397 C1401 1.408 . S
C1398 C1396 1.363 . S
C1398 C1399 1.370 . S
C1398 C1402 1.524 . S
C1399 C1391 1.503 . S
C1399 C1398 1.370 . S
C1399 C1400 1.403 . S
C1400 C1399 1.403 . S
C1400 C1401 1.404 . S
C1400 C1403 1.539 . S
C1401 C1397 1.408 . S
C1401 C1400 1.404 . S
C1401 H1413 0.930 . S
C1402 C1398 1.524 . S
C1402 H1414 0.956 . S
C1402 H1415 0.961 . S
C1402 H1416 0.961 . S
C1403 C1400 1.539 . S
C1403 H1417 0.958 . S
C1403 H1418 0.961 . S
C1403 H1419 0.960 . S
H1404 C1388 0.931 . S
H1405 C1393 0.929 . S
H1406 C1394 0.960 . S
H1407 C1394 0.962 . S
H1408 C1394 0.960 . S
H1409 C1395 0.961 . S
H1410 C1395 0.961 . S
H1411 C1395 0.961 . S
H1412 C1396 0.931 . S
H1413 C1401 0.930 . S
H1414 C1402 0.956 . S
H1415 C1402 0.961 . S
H1416 C1402 0.961 . S
H1417 C1403 0.958 . S
H1418 C1403 0.961 . S
H1419 C1403 0.960 . S
C1420 C1421 1.391 . S
C1420 C1422 1.394 . S
C1420 H1436 0.931 . S
C1421 C1420 1.391 . S
C1421 C1425 1.376 . S
C1422 C1420 1.394 . S
C1422 C1423 1.369 . S
C1422 C1426 1.531 . S
C1423 C1422 1.369 . S
C1423 C1424 1.410 . S
C1423 C1431 1.503 1_545 S
C1424 C1423 1.410 . S
C1424 C1425 1.392 . S
C1424 C1427 1.511 . S
C1425 C1421 1.376 . S
C1425 C1424 1.392 . S
C1425 H1437 0.929 . S
C1426 C1422 1.531 . S
C1426 H1438 0.960 . S
C1426 H1439 0.962 . S
C1426 H1440 0.960 . S
C1427 C1424 1.511 . S
C1427 H1441 0.961 . S
C1427 H1442 0.961 . S
C1427 H1443 0.961 . S
C1428 C1429 1.370 . S
C1428 C1430 1.363 . S
C1428 H1444 0.931 . S
C1429 C1428 1.370 . S
C1429 C1433 1.408 . S
C1430 C1428 1.363 . S
C1430 C1431 1.370 . S
C1430 C1434 1.524 . S
C1431 C1423 1.503 1_565 S
C1431 C1430 1.370 . S
C1431 C1432 1.403 . S
C1432 C1431 1.403 . S
C1432 C1433 1.404 . S
C1432 C1435 1.539 1_565 S
C1433 C1429 1.408 . S
C1433 C1432 1.404 . S
C1433 H1445 0.930 . S
C1434 C1430 1.524 . S
C1434 H1446 0.956 . S
C1434 H1447 0.961 . S
C1434 H1448 0.961 . S
C1435 C1432 1.539 1_545 S
C1435 H1449 0.958 . S
C1435 H1450 0.961 . S
C1435 H1451 0.960 . S
H1436 C1420 0.931 . S
H1437 C1425 0.929 . S
H1438 C1426 0.960 . S
H1439 C1426 0.962 . S
H1440 C1426 0.960 . S
H1441 C1427 0.961 . S
H1442 C1427 0.961 . S
H1443 C1427 0.961 . S
H1444 C1428 0.931 . S
H1445 C1433 0.930 . S
H1446 C1434 0.956 . S
H1447 C1434 0.961 . S
H1448 C1434 0.961 . S
H1449 C1435 0.958 . S
H1450 C1435 0.961 . S
H1451 C1435 0.960 . S
C1452 C1453 1.391 . S
C1452 C1454 1.394 . S
C1452 H1468 0.931 . S
C1453 C1452 1.391 . S
C1453 C1457 1.376 . S
C1454 C1452 1.394 . S
C1454 C1455 1.369 . S
C1454 C1458 1.531 . S
C1455 C1454 1.369 . S
C1455 C1456 1.410 . S
C1455 C1463 1.503 . S
C1456 C1455 1.410 . S
C1456 C1457 1.392 . S
C1456 C1459 1.511 . S
C1457 C1453 1.376 . S
C1457 C1456 1.392 . S
C1457 H1469 0.929 . S
C1458 C1454 1.531 . S
C1458 H1470 0.960 . S
C1458 H1471 0.962 . S
C1458 H1472 0.960 . S
C1459 C1456 1.511 . S
C1459 H1473 0.961 . S
C1459 H1474 0.961 . S
C1459 H1475 0.961 . S
C1460 C1461 1.370 . S
C1460 C1462 1.363 . S
C1460 H1476 0.931 . S
C1461 C1460 1.370 . S
C1461 C1465 1.408 . S
C1462 C1460 1.363 . S
C1462 C1463 1.370 . S
C1462 C1466 1.524 . S
C1463 C1455 1.503 . S
C1463 C1462 1.370 . S
C1463 C1464 1.403 . S
C1464 C1463 1.403 . S
C1464 C1465 1.404 . S
C1464 C1467 1.539 . S
C1465 C1461 1.408 . S
C1465 C1464 1.404 . S
C1465 H1477 0.930 . S
C1466 C1462 1.524 . S
C1466 H1478 0.956 . S
C1466 H1479 0.961 . S
C1466 H1480 0.961 . S
C1467 C1464 1.539 . S
C1467 H1481 0.958 . S
C1467 H1482 0.961 . S
C1467 H1483 0.960 . S
H1468 C1452 0.931 . S
H1469 C1457 0.929 . S
H1470 C1458 0.960 . S
H1471 C1458 0.962 . S
H1472 C1458 0.960 . S
H1473 C1459 0.961 . S
H1474 C1459 0.961 . S
H1475 C1459 0.961 . S
H1476 C1460 0.931 . S
H1477 C1465 0.930 . S
H1478 C1466 0.956 . S
H1479 C1466 0.961 . S
H1480 C1466 0.961 . S
H1481 C1467 0.958 . S
H1482 C1467 0.961 . S
H1483 C1467 0.960 . S
C1484 C1485 1.391 . S
C1484 C1486 1.394 . S
C1484 H1500 0.931 . S
C1485 C1484 1.391 . S
C1485 C1489 1.376 . S
C1486 C1484 1.394 . S
C1486 C1487 1.369 . S
C1486 C1490 1.531 . S
C1487 C1486 1.369 . S
C1487 C1488 1.410 . S
C1487 C1495 1.503 . S
C1488 C1487 1.410 . S
C1488 C1489 1.392 . S
C1488 C1491 1.511 . S
C1489 C1485 1.376 . S
C1489 C1488 1.392 . S
C1489 H1501 0.929 . S
C1490 C1486 1.531 . S
C1490 H1502 0.960 . S
C1490 H1503 0.962 . S
C1490 H1504 0.960 . S
C1491 C1488 1.511 . S
C1491 H1505 0.961 . S
C1491 H1506 0.961 . S
C1491 H1507 0.961 . S
C1492 C1493 1.370 . S
C1492 C1494 1.363 . S
C1492 H1508 0.931 . S
C1493 C1492 1.370 . S
C1493 C1497 1.408 . S
C1494 C1492 1.363 . S
C1494 C1495 1.370 . S
C1494 C1498 1.524 . S
C1495 C1487 1.503 . S
C1495 C1494 1.370 . S
C1495 C1496 1.403 . S
C1496 C1495 1.403 . S
C1496 C1497 1.404 . S
C1496 C1499 1.539 . S
C1497 C1493 1.408 . S
C1497 C1496 1.404 . S
C1497 H1509 0.930 . S
C1498 C1494 1.524 . S
C1498 H1510 0.956 . S
C1498 H1511 0.961 . S
C1498 H1512 0.961 . S
C1499 C1496 1.539 . S
C1499 H1513 0.958 . S
C1499 H1514 0.961 . S
C1499 H1515 0.960 . S
H1500 C1484 0.931 . S
H1501 C1489 0.929 . S
H1502 C1490 0.960 . S
H1503 C1490 0.962 . S
H1504 C1490 0.960 . S
H1505 C1491 0.961 . S
H1506 C1491 0.961 . S
H1507 C1491 0.961 . S
H1508 C1492 0.931 . S
H1509 C1497 0.930 . S
H1510 C1498 0.956 . S
H1511 C1498 0.961 . S
H1512 C1498 0.961 . S
H1513 C1499 0.958 . S
H1514 C1499 0.961 . S
H1515 C1499 0.960 . S
C1516 C1517 1.391 . S
C1516 C1518 1.394 . S
C1516 H1532 0.931 . S
C1517 C1516 1.391 . S
C1517 C1521 1.376 . S
C1518 C1516 1.394 . S
C1518 C1519 1.369 . S
C1518 C1522 1.531 . S
C1519 C1518 1.369 . S
C1519 C1520 1.410 . S
C1519 C1527 1.503 . S
C1520 C1519 1.410 . S
C1520 C1521 1.392 . S
C1520 C1523 1.511 . S
C1521 C1517 1.376 . S
C1521 C1520 1.392 . S
C1521 H1533 0.929 . S
C1522 C1518 1.531 . S
C1522 H1534 0.960 . S
C1522 H1535 0.962 . S
C1522 H1536 0.960 . S
C1523 C1520 1.511 . S
C1523 H1537 0.961 . S
C1523 H1538 0.961 . S
C1523 H1539 0.961 . S
C1524 C1525 1.370 . S
C1524 C1526 1.363 . S
C1524 H1540 0.931 . S
C1525 C1524 1.370 . S
C1525 C1529 1.408 . S
C1526 C1524 1.363 . S
C1526 C1527 1.370 . S
C1526 C1530 1.524 . S
C1527 C1519 1.503 . S
C1527 C1526 1.370 . S
C1527 C1528 1.403 . S
C1528 C1527 1.403 . S
C1528 C1529 1.404 . S
C1528 C1531 1.539 . S
C1529 C1525 1.408 . S
C1529 C1528 1.404 . S
C1529 H1541 0.930 . S
C1530 C1526 1.524 . S
C1530 H1542 0.956 . S
C1530 H1543 0.961 . S
C1530 H1544 0.961 . S
C1531 C1528 1.539 . S
C1531 H1545 0.958 . S
C1531 H1546 0.961 . S
C1531 H1547 0.960 . S
H1532 C1516 0.931 . S
H1533 C1521 0.929 . S
H1534 C1522 0.960 . S
H1535 C1522 0.962 . S
H1536 C1522 0.960 . S
H1537 C1523 0.961 . S
H1538 C1523 0.961 . S
H1539 C1523 0.961 . S
H1540 C1524 0.931 . S
H1541 C1529 0.930 . S
H1542 C1530 0.956 . S
H1543 C1530 0.961 . S
H1544 C1530 0.961 . S
H1545 C1531 0.958 . S
H1546 C1531 0.961 . S
H1547 C1531 0.960 . S
C1548 C1549 1.391 . S
C1548 C1550 1.394 . S
C1548 H1564 0.931 . S
C1549 C1548 1.391 . S
C1549 C1553 1.376 . S
C1550 C1548 1.394 . S
C1550 C1551 1.369 . S
C1550 C1554 1.531 . S
C1551 C1550 1.369 . S
C1551 C1552 1.410 . S
C1551 C1559 1.503 . S
C1552 C1551 1.410 . S
C1552 C1553 1.392 . S
C1552 C1555 1.511 . S
C1553 C1549 1.376 . S
C1553 C1552 1.392 . S
C1553 H1565 0.929 . S
C1554 C1550 1.531 . S
C1554 H1566 0.960 . S
C1554 H1567 0.962 . S
C1554 H1568 0.960 . S
C1555 C1552 1.511 . S
C1555 H1569 0.961 . S
C1555 H1570 0.961 . S
C1555 H1571 0.961 . S
C1556 C1557 1.370 . S
C1556 C1558 1.363 . S
C1556 H1572 0.931 . S
C1557 C1556 1.370 . S
C1557 C1561 1.408 . S
C1558 C1556 1.363 . S
C1558 C1559 1.370 . S
C1558 C1562 1.524 . S
C1559 C1551 1.503 . S
C1559 C1558 1.370 . S
C1559 C1560 1.403 . S
C1560 C1559 1.403 . S
C1560 C1561 1.404 . S
C1560 C1563 1.539 . S
C1561 C1557 1.408 . S
C1561 C1560 1.404 . S
C1561 H1573 0.930 . S
C1562 C1558 1.524 . S
C1562 H1574 0.956 . S
C1562 H1575 0.961 . S
C1562 H1576 0.961 . S
C1563 C1560 1.539 . S
C1563 H1577 0.958 . S
C1563 H1578 0.961 . S
C1563 H1579 0.960 . S
H1564 C1548 0.931 . S
H1565 C1553 0.929 . S
H1566 C1554 0.960 . S
H1567 C1554 0.962 . S
H1568 C1554 0.960 . S
H1569 C1555 0.961 . S
H1570 C1555 0.961 . S
H1571 C1555 0.961 . S
H1572 C1556 0.931 . S
H1573 C1561 0.930 . S
H1574 C1562 0.956 . S
H1575 C1562 0.961 . S
H1576 C1562 0.961 . S
H1577 C1563 0.958 . S
H1578 C1563 0.961 . S
H1579 C1563 0.960 . S
C1580 C1581 1.391 . S
C1580 C1582 1.394 . S
C1580 H1596 0.931 . S
C1581 C1580 1.391 . S
C1581 C1585 1.376 . S
C1582 C1580 1.394 . S
C1582 C1583 1.369 . S
C1582 C1586 1.531 . S
C1583 C1582 1.369 . S
C1583 C1584 1.410 . S
C1583 C1591 1.503 . S
C1584 C1583 1.410 . S
C1584 C1585 1.392 . S
C1584 C1587 1.511 . S
C1585 C1581 1.376 . S
C1585 C1584 1.392 . S
C1585 H1597 0.929 . S
C1586 C1582 1.531 . S
C1586 H1598 0.960 . S
C1586 H1599 0.962 . S
C1586 H1600 0.960 . S
C1587 C1584 1.511 . S
C1587 H1601 0.961 . S
C1587 H1602 0.961 . S
C1587 H1603 0.961 . S
C1588 C1589 1.370 . S
C1588 C1590 1.363 . S
C1588 H1604 0.931 . S
C1589 C1588 1.370 . S
C1589 C1593 1.408 . S
C1590 C1588 1.363 . S
C1590 C1591 1.370 . S
C1590 C1594 1.524 . S
C1591 C1583 1.503 . S
C1591 C1590 1.370 . S
C1591 C1592 1.403 . S
C1592 C1591 1.403 . S
C1592 C1593 1.404 . S
C1592 C1595 1.539 . S
C1593 C1589 1.408 . S
C1593 C1592 1.404 . S
C1593 H1605 0.930 . S
C1594 C1590 1.524 . S
C1594 H1606 0.956 . S
C1594 H1607 0.961 . S
C1594 H1608 0.961 . S
C1595 C1592 1.539 . S
C1595 H1609 0.958 . S
C1595 H1610 0.961 . S
C1595 H1611 0.960 . S
H1596 C1580 0.931 . S
H1597 C1585 0.929 . S
H1598 C1586 0.960 . S
H1599 C1586 0.962 . S
H1600 C1586 0.960 . S
H1601 C1587 0.961 . S
H1602 C1587 0.961 . S
H1603 C1587 0.961 . S
H1604 C1588 0.931 . S
H1605 C1593 0.930 . S
H1606 C1594 0.956 . S
H1607 C1594 0.961 . S
H1608 C1594 0.961 . S
H1609 C1595 0.958 . S
H1610 C1595 0.961 . S
H1611 C1595 0.960 . S
C1612 C1613 1.391 . S
C1612 C1614 1.394 . S
C1612 H1628 0.931 . S
C1613 C1612 1.391 . S
C1613 C1617 1.376 . S
C1614 C1612 1.394 . S
C1614 C1615 1.369 . S
C1614 C1618 1.531 . S
C1615 C1614 1.369 . S
C1615 C1616 1.410 . S
C1615 C1623 1.503 . S
C1616 C1615 1.410 . S
C1616 C1617 1.392 . S
C1616 C1619 1.511 . S
C1617 C1613 1.376 . S
C1617 C1616 1.392 . S
C1617 H1629 0.929 . S
C1618 C1614 1.531 . S
C1618 H1630 0.960 . S
C1618 H1631 0.962 . S
C1618 H1632 0.960 . S
C1619 C1616 1.511 . S
C1619 H1633 0.961 . S
C1619 H1634 0.961 . S
C1619 H1635 0.961 . S
C1620 C1621 1.370 . S
C1620 C1622 1.363 . S
C1620 H1636 0.931 . S
C1621 C1620 1.370 . S
C1621 C1625 1.408 . S
C1622 C1620 1.363 . S
C1622 C1623 1.370 . S
C1622 C1626 1.524 . S
C1623 C1615 1.503 . S
C1623 C1622 1.370 . S
C1623 C1624 1.403 . S
C1624 C1623 1.403 . S
C1624 C1625 1.404 . S
C1624 C1627 1.539 . S
C1625 C1621 1.408 . S
C1625 C1624 1.404 . S
C1625 H1637 0.930 . S
C1626 C1622 1.524 . S
C1626 H1638 0.956 . S
C1626 H1639 0.961 . S
C1626 H1640 0.961 . S
C1627 C1624 1.539 . S
C1627 H1641 0.958 . S
C1627 H1642 0.961 . S
C1627 H1643 0.960 . S
H1628 C1612 0.931 . S
H1629 C1617 0.929 . S
H1630 C1618 0.960 . S
H1631 C1618 0.962 . S
H1632 C1618 0.960 . S
H1633 C1619 0.961 . S
H1634 C1619 0.961 . S
H1635 C1619 0.961 . S
H1636 C1620 0.931 . S
H1637 C1625 0.930 . S
H1638 C1626 0.956 . S
H1639 C1626 0.961 . S
H1640 C1626 0.961 . S
H1641 C1627 0.958 . S
H1642 C1627 0.961 . S
H1643 C1627 0.960 . S
C1644 C1645 1.362 1_565 S
C1644 C1646 1.420 . S
C1644 H1660 0.935 1_565 S
C1645 C1644 1.362 1_545 S
C1645 C1649 1.376 . S
C1646 C1644 1.420 . S
C1646 C1647 1.369 . S
C1646 C1650 1.531 . S
C1647 C1646 1.369 . S
C1647 C1648 1.410 . S
C1647 C1655 1.503 . S
C1648 C1647 1.410 . S
C1648 C1649 1.392 1_565 S
C1648 C1651 1.511 . S
C1649 C1645 1.376 . S
C1649 C1648 1.392 1_545 S
C1649 H1661 0.929 . S
C1650 C1646 1.531 . S
C1650 H1662 0.960 . S
C1650 H1663 0.962 . S
C1650 H1664 0.960 . S
C1651 C1648 1.511 . S
C1651 H1665 0.961 . S
C1651 H1666 0.961 . S
C1651 H1667 0.961 . S
C1652 C1653 1.370 . S
C1652 C1654 1.363 . S
C1652 H1668 0.931 . S
C1653 C1652 1.370 . S
C1653 C1657 1.408 . S
C1654 C1652 1.363 . S
C1654 C1655 1.370 . S
C1654 C1658 1.524 . S
C1655 C1647 1.503 . S
C1655 C1654 1.370 . S
C1655 C1656 1.403 . S
C1656 C1655 1.403 . S
C1656 C1657 1.404 . S
C1656 C1659 1.539 . S
C1657 C1653 1.408 . S
C1657 C1656 1.404 . S
C1657 H1669 0.930 . S
C1658 C1654 1.524 . S
C1658 H1670 0.956 . S
C1658 H1671 0.961 . S
C1658 H1672 0.961 . S
C1659 C1656 1.539 . S
C1659 H1673 0.958 . S
C1659 H1674 0.961 . S
C1659 H1675 0.960 . S
H1660 C1644 0.935 1_545 S
H1661 C1649 0.929 . S
H1662 C1650 0.960 . S
H1663 C1650 0.962 . S
H1664 C1650 0.960 . S
H1665 C1651 0.961 . S
H1666 C1651 0.961 . S
H1667 C1651 0.961 . S
H1668 C1652 0.931 . S
H1669 C1657 0.930 . S
H1670 C1658 0.956 . S
H1671 C1658 0.961 . S
H1672 C1658 0.961 . S
H1673 C1659 0.958 . S
H1674 C1659 0.961 . S
H1675 C1659 0.960 . S
C1676 C1677 1.391 1_455 S
C1676 C1678 1.394 . S
C1676 H1692 0.931 1_455 S
C1677 C1676 1.391 1_655 S
C1677 C1681 1.376 1_655 S
C1678 C1676 1.394 . S
C1678 C1679 1.369 . S
C1678 C1682 1.531 . S
C1679 C1678 1.369 . S
C1679 C1680 1.410 . S
C1679 C1687 1.503 . S
C1680 C1679 1.410 . S
C1680 C1681 1.392 . S
C1680 C1683 1.511 . S
C1681 C1677 1.376 1_455 S
C1681 C1680 1.392 . S
C1681 H1693 0.929 . S
C1682 C1678 1.531 . S
C1682 H1694 0.960 . S
C1682 H1695 0.962 . S
C1682 H1696 0.960 . S
C1683 C1680 1.511 . S
C1683 H1697 0.961 . S
C1683 H1698 0.961 . S
C1683 H1699 0.961 . S
C1684 C1685 1.370 . S
C1684 C1686 1.363 . S
C1684 H1700 0.931 . S
C1685 C1684 1.370 . S
C1685 C1689 1.408 . S
C1686 C1684 1.363 . S
C1686 C1687 1.370 . S
C1686 C1690 1.524 . S
C1687 C1679 1.503 . S
C1687 C1686 1.370 . S
C1687 C1688 1.403 . S
C1688 C1687 1.403 . S
C1688 C1689 1.404 . S
C1688 C1691 1.539 . S
C1689 C1685 1.408 . S
C1689 C1688 1.404 . S
C1689 H1701 0.930 . S
C1690 C1686 1.524 . S
C1690 H1702 0.956 . S
C1690 H1703 0.961 . S
C1690 H1704 0.961 . S
C1691 C1688 1.539 . S
C1691 H1705 0.958 . S
C1691 H1706 0.961 . S
C1691 H1707 0.960 . S
H1692 C1676 0.931 1_655 S
H1693 C1681 0.929 . S
H1694 C1682 0.960 . S
H1695 C1682 0.962 . S
H1696 C1682 0.960 . S
H1697 C1683 0.961 . S
H1698 C1683 0.961 . S
H1699 C1683 0.961 . S
H1700 C1684 0.931 . S
H1701 C1689 0.930 . S
H1702 C1690 0.956 . S
H1703 C1690 0.961 . S
H1704 C1690 0.961 . S
H1705 C1691 0.958 . S
H1706 C1691 0.961 . S
H1707 C1691 0.960 . S
C1708 C1709 1.391 . S
C1708 C1710 1.394 . S
C1708 H1724 0.931 . S
C1709 C1708 1.391 . S
C1709 C1713 1.376 . S
C1710 C1708 1.394 . S
C1710 C1711 1.369 . S
C1710 C1714 1.531 . S
C1711 C1710 1.369 . S
C1711 C1712 1.410 . S
C1711 C1719 1.503 . S
C1712 C1711 1.410 . S
C1712 C1713 1.392 . S
C1712 C1715 1.511 . S
C1713 C1709 1.376 . S
C1713 C1712 1.392 . S
C1713 H1725 0.929 . S
C1714 C1710 1.531 . S
C1714 H1726 0.960 . S
C1714 H1727 0.962 . S
C1714 H1728 0.960 . S
C1715 C1712 1.511 . S
C1715 H1729 0.961 . S
C1715 H1730 0.961 . S
C1715 H1731 0.961 . S
C1716 C1717 1.370 . S
C1716 C1718 1.363 . S
C1716 H1732 0.931 . S
C1717 C1716 1.370 . S
C1717 C1721 1.408 . S
C1718 C1716 1.363 . S
C1718 C1719 1.370 . S
C1718 C1722 1.524 . S
C1719 C1711 1.503 . S
C1719 C1718 1.370 . S
C1719 C1720 1.403 . S
C1720 C1719 1.403 . S
C1720 C1721 1.404 . S
C1720 C1723 1.539 . S
C1721 C1717 1.408 . S
C1721 C1720 1.404 . S
C1721 H1733 0.930 . S
C1722 C1718 1.524 . S
C1722 H1734 0.956 . S
C1722 H1735 0.961 . S
C1722 H1736 0.961 . S
C1723 C1720 1.539 . S
C1723 H1737 0.958 . S
C1723 H1738 0.961 . S
C1723 H1739 0.960 . S
H1724 C1708 0.931 . S
H1725 C1713 0.929 . S
H1726 C1714 0.960 . S
H1727 C1714 0.962 . S
H1728 C1714 0.960 . S
H1729 C1715 0.961 . S
H1730 C1715 0.961 . S
H1731 C1715 0.961 . S
H1732 C1716 0.931 . S
H1733 C1721 0.930 . S
H1734 C1722 0.956 . S
H1735 C1722 0.961 . S
H1736 C1722 0.961 . S
H1737 C1723 0.958 . S
H1738 C1723 0.961 . S
H1739 C1723 0.960 . S
C1740 C1741 1.391 . S
C1740 C1742 1.394 . S
C1740 H1756 0.931 . S
C1741 C1740 1.391 . S
C1741 C1745 1.376 . S
C1742 C1740 1.394 . S
C1742 C1743 1.369 . S
C1742 C1746 1.531 . S
C1743 C1742 1.369 . S
C1743 C1744 1.410 . S
C1743 C1751 1.503 . S
C1744 C1743 1.410 . S
C1744 C1745 1.392 . S
C1744 C1747 1.511 . S
C1745 C1741 1.376 . S
C1745 C1744 1.392 . S
C1745 H1757 0.929 . S
C1746 C1742 1.531 . S
C1746 H1758 0.960 . S
C1746 H1759 0.962 . S
C1746 H1760 0.960 . S
C1747 C1744 1.511 . S
C1747 H1761 0.961 . S
C1747 H1762 0.961 . S
C1747 H1763 0.961 . S
C1748 C1749 1.370 . S
C1748 C1750 1.363 . S
C1748 H1764 0.931 . S
C1749 C1748 1.370 . S
C1749 C1753 1.408 . S
C1750 C1748 1.363 . S
C1750 C1751 1.370 . S
C1750 C1754 1.524 . S
C1751 C1743 1.503 . S
C1751 C1750 1.370 . S
C1751 C1752 1.403 . S
C1752 C1751 1.403 . S
C1752 C1753 1.404 . S
C1752 C1755 1.539 . S
C1753 C1749 1.408 . S
C1753 C1752 1.404 . S
C1753 H1765 0.930 . S
C1754 C1750 1.524 . S
C1754 H1766 0.956 . S
C1754 H1767 0.961 . S
C1754 H1768 0.961 . S
C1755 C1752 1.539 . S
C1755 H1769 0.958 . S
C1755 H1770 0.961 . S
C1755 H1771 0.960 . S
H1756 C1740 0.931 . S
H1757 C1745 0.929 . S
H1758 C1746 0.960 . S
H1759 C1746 0.962 . S
H1760 C1746 0.960 . S
H1761 C1747 0.961 . S
H1762 C1747 0.961 . S
H1763 C1747 0.961 . S
H1764 C1748 0.931 . S
H1765 C1753 0.930 . S
H1766 C1754 0.956 . S
H1767 C1754 0.961 . S
H1768 C1754 0.961 . S
H1769 C1755 0.958 . S
H1770 C1755 0.961 . S
H1771 C1755 0.960 . S
C1772 C1773 1.391 . S
C1772 C1774 1.394 . S
C1772 H1788 0.931 . S
C1773 C1772 1.391 . S
C1773 C1777 1.376 . S
C1774 C1772 1.394 . S
C1774 C1775 1.369 . S
C1774 C1778 1.531 . S
C1775 C1774 1.369 . S
C1775 C1776 1.410 . S
C1775 C1783 1.503 . S
C1776 C1775 1.410 . S
C1776 C1777 1.392 . S
C1776 C1779 1.511 . S
C1777 C1773 1.376 . S
C1777 C1776 1.392 . S
C1777 H1789 0.929 . S
C1778 C1774 1.531 . S
C1778 H1790 0.960 . S
C1778 H1791 0.962 . S
C1778 H1792 0.960 . S
C1779 C1776 1.511 . S
C1779 H1793 0.961 . S
C1779 H1794 0.961 . S
C1779 H1795 0.961 . S
C1780 C1781 1.370 . S
C1780 C1782 1.363 . S
C1780 H1796 0.931 . S
C1781 C1780 1.370 . S
C1781 C1785 1.408 . S
C1782 C1780 1.363 . S
C1782 C1783 1.370 . S
C1782 C1786 1.524 . S
C1783 C1775 1.503 . S
C1783 C1782 1.370 . S
C1783 C1784 1.403 . S
C1784 C1783 1.403 . S
C1784 C1785 1.404 . S
C1784 C1787 1.539 . S
C1785 C1781 1.408 . S
C1785 C1784 1.404 . S
C1785 H1797 0.930 . S
C1786 C1782 1.524 . S
C1786 H1798 0.956 . S
C1786 H1799 0.961 . S
C1786 H1800 0.961 . S
C1787 C1784 1.539 . S
C1787 H1801 0.958 . S
C1787 H1802 0.961 . S
C1787 H1803 0.960 . S
H1788 C1772 0.931 . S
H1789 C1777 0.929 . S
H1790 C1778 0.960 . S
H1791 C1778 0.962 . S
H1792 C1778 0.960 . S
H1793 C1779 0.961 . S
H1794 C1779 0.961 . S
H1795 C1779 0.961 . S
H1796 C1780 0.931 . S
H1797 C1785 0.930 . S
H1798 C1786 0.956 . S
H1799 C1786 0.961 . S
H1800 C1786 0.961 . S
H1801 C1787 0.958 . S
H1802 C1787 0.961 . S
H1803 C1787 0.960 . S
C1804 C1805 1.391 . S
C1804 C1806 1.394 . S
C1804 H1820 0.931 . S
C1805 C1804 1.391 . S
C1805 C1809 1.376 . S
C1806 C1804 1.394 . S
C1806 C1807 1.369 . S
C1806 C1810 1.531 . S
C1807 C1806 1.369 . S
C1807 C1808 1.410 . S
C1807 C1815 1.503 . S
C1808 C1807 1.410 . S
C1808 C1809 1.392 . S
C1808 C1811 1.511 . S
C1809 C1805 1.376 . S
C1809 C1808 1.392 . S
C1809 H1821 0.929 . S
C1810 C1806 1.531 . S
C1810 H1822 0.960 . S
C1810 H1823 0.962 . S
C1810 H1824 0.960 . S
C1811 C1808 1.511 . S
C1811 H1825 0.961 . S
C1811 H1826 0.961 . S
C1811 H1827 0.961 . S
C1812 C1813 1.370 . S
C1812 C1814 1.363 . S
C1812 H1828 0.931 . S
C1813 C1812 1.370 . S
C1813 C1817 1.408 . S
C1814 C1812 1.363 . S
C1814 C1815 1.370 . S
C1814 C1818 1.524 . S
C1815 C1807 1.503 . S
C1815 C1814 1.370 . S
C1815 C1816 1.403 . S
C1816 C1815 1.403 . S
C1816 C1817 1.404 . S
C1816 C1819 1.539 . S
C1817 C1813 1.408 . S
C1817 C1816 1.404 . S
C1817 H1829 0.930 . S
C1818 C1814 1.524 . S
C1818 H1830 0.956 . S
C1818 H1831 0.961 . S
C1818 H1832 0.961 . S
C1819 C1816 1.539 . S
C1819 H1833 0.958 . S
C1819 H1834 0.961 . S
C1819 H1835 0.960 . S
H1820 C1804 0.931 . S
H1821 C1809 0.929 . S
H1822 C1810 0.960 . S
H1823 C1810 0.962 . S
H1824 C1810 0.960 . S
H1825 C1811 0.961 . S
H1826 C1811 0.961 . S
H1827 C1811 0.961 . S
H1828 C1812 0.931 . S
H1829 C1817 0.930 . S
H1830 C1818 0.956 . S
H1831 C1818 0.961 . S
H1832 C1818 0.961 . S
H1833 C1819 0.958 . S
H1834 C1819 0.961 . S
H1835 C1819 0.960 . S
C1836 C1837 1.391 . S
C1836 C1838 1.394 . S
C1836 H1852 0.931 . S
C1837 C1836 1.391 . S
C1837 C1841 1.376 . S
C1838 C1836 1.394 . S
C1838 C1839 1.369 . S
C1838 C1842 1.531 . S
C1839 C1838 1.369 . S
C1839 C1840 1.410 . S
C1839 C1847 1.503 1_565 S
C1840 C1839 1.410 . S
C1840 C1841 1.392 . S
C1840 C1843 1.511 1_565 S
C1841 C1837 1.376 . S
C1841 C1840 1.392 . S
C1841 H1853 0.929 . S
C1842 C1838 1.531 . S
C1842 H1854 0.960 1_565 S
C1842 H1855 0.962 . S
C1842 H1856 0.960 . S
C1843 C1840 1.511 1_545 S
C1843 H1857 0.961 1_545 S
C1843 H1858 0.961 . S
C1843 H1859 0.961 . S
C1844 C1845 1.370 . S
C1844 C1846 1.363 . S
C1844 H1860 0.931 . S
C1845 C1844 1.370 . S
C1845 C1849 1.408 . S
C1846 C1844 1.363 . S
C1846 C1847 1.370 . S
C1846 C1850 1.524 1_545 S
C1847 C1839 1.503 1_545 S
C1847 C1846 1.370 . S
C1847 C1848 1.403 . S
C1848 C1847 1.403 . S
C1848 C1849 1.404 . S
C1848 C1851 1.539 . S
C1849 C1845 1.408 . S
C1849 C1848 1.404 . S
C1849 H1861 0.930 . S
C1850 C1846 1.524 1_565 S
C1850 H1862 0.956 . S
C1850 H1863 0.961 . S
C1850 H1864 0.961 . S
C1851 C1848 1.539 . S
C1851 H1865 0.958 . S
C1851 H1866 0.961 . S
C1851 H1867 0.960 . S
H1852 C1836 0.931 . S
H1853 C1841 0.929 . S
H1854 C1842 0.960 1_545 S
H1855 C1842 0.962 . S
H1856 C1842 0.960 . S
H1857 C1843 0.961 1_565 S
H1858 C1843 0.961 . S
H1859 C1843 0.961 . S
H1860 C1844 0.931 . S
H1861 C1849 0.930 . S
H1862 C1850 0.956 . S
H1863 C1850 0.961 . S
H1864 C1850 0.961 . S
H1865 C1851 0.958 . S
H1866 C1851 0.961 . S
H1867 C1851 0.960 . S
C1868 C1869 1.391 . S
C1868 C1870 1.394 . S
C1868 H1884 0.931 . S
C1869 C1868 1.391 . S
C1869 C1873 1.376 . S
C1870 C1868 1.394 . S
C1870 C1871 1.369 . S
C1870 C1874 1.531 1_455 S
C1871 C1870 1.369 . S
C1871 C1872 1.410 . S
C1871 C1879 1.503 1_455 S
C1872 C1871 1.410 . S
C1872 C1873 1.392 . S
C1872 C1875 1.511 . S
C1873 C1869 1.376 . S
C1873 C1872 1.392 . S
C1873 H1885 0.929 . S
C1874 C1870 1.531 1_655 S
C1874 H1886 0.960 . S
C1874 H1887 0.962 . S
C1874 H1888 0.960 . S
C1875 C1872 1.511 . S
C1875 H1889 0.961 . S
C1875 H1890 0.961 . S
C1875 H1891 0.961 . S
C1876 C1877 1.370 . S
C1876 C1878 1.363 . S
C1876 H1892 0.931 . S
C1877 C1876 1.370 . S
C1877 C1881 1.408 . S
C1878 C1876 1.363 . S
C1878 C1879 1.370 . S
C1878 C1882 1.524 . S
C1879 C1871 1.503 1_655 S
C1879 C1878 1.370 . S
C1879 C1880 1.403 . S
C1880 C1879 1.403 . S
C1880 C1881 1.404 . S
C1880 C1883 1.539 . S
C1881 C1877 1.408 . S
C1881 C1880 1.404 . S
C1881 H1893 0.930 . S
C1882 C1878 1.524 . S
C1882 H1894 0.956 . S
C1882 H1895 0.961 1_655 S
C1882 H1896 0.961 . S
C1883 C1880 1.539 . S
C1883 H1897 0.958 . S
C1883 H1898 0.961 . S
C1883 H1899 0.960 1_655 S
H1884 C1868 0.931 . S
H1885 C1873 0.929 . S
H1886 C1874 0.960 . S
H1887 C1874 0.962 . S
H1888 C1874 0.960 . S
H1889 C1875 0.961 . S
H1890 C1875 0.961 . S
H1891 C1875 0.961 . S
H1892 C1876 0.931 . S
H1893 C1881 0.930 . S
H1894 C1882 0.956 . S
H1895 C1882 0.961 1_455 S
H1896 C1882 0.961 . S
H1897 C1883 0.958 . S
H1898 C1883 0.961 . S
H1899 C1883 0.960 1_455 S
C1900 C1901 1.391 . S
C1900 C1902 1.394 . S
C1900 H1916 0.931 . S
C1901 C1900 1.391 . S
C1901 C1905 1.376 . S
C1902 C1900 1.394 . S
C1902 C1903 1.369 . S
C1902 C1906 1.531 . S
C1903 C1902 1.369 . S
C1903 C1904 1.410 . S
C1903 C1911 1.503 . S
C1904 C1903 1.410 . S
C1904 C1905 1.392 . S
C1904 C1907 1.511 . S
C1905 C1901 1.376 . S
C1905 C1904 1.392 . S
C1905 H1917 0.929 . S
C1906 C1902 1.531 . S
C1906 H1918 0.960 . S
C1906 H1919 0.962 . S
C1906 H1920 0.960 . S
C1907 C1904 1.511 . S
C1907 H1921 0.961 . S
C1907 H1922 0.961 . S
C1907 H1923 0.961 . S
C1908 C1909 1.370 . S
C1908 C1910 1.363 . S
C1908 H1924 0.931 . S
C1909 C1908 1.370 . S
C1909 C1913 1.408 . S
C1910 C1908 1.363 . S
C1910 C1911 1.370 . S
C1910 C1914 1.524 . S
C1911 C1903 1.503 . S
C1911 C1910 1.370 . S
C1911 C1912 1.403 . S
C1912 C1911 1.403 . S
C1912 C1913 1.404 . S
C1912 C1915 1.539 . S
C1913 C1909 1.408 . S
C1913 C1912 1.404 . S
C1913 H1925 0.930 . S
C1914 C1910 1.524 . S
C1914 H1926 0.956 . S
C1914 H1927 0.961 . S
C1914 H1928 0.961 . S
C1915 C1912 1.539 . S
C1915 H1929 0.958 . S
C1915 H1930 0.961 . S
C1915 H1931 0.960 . S
H1916 C1900 0.931 . S
H1917 C1905 0.929 . S
H1918 C1906 0.960 . S
H1919 C1906 0.962 . S
H1920 C1906 0.960 . S
H1921 C1907 0.961 . S
H1922 C1907 0.961 . S
H1923 C1907 0.961 . S
H1924 C1908 0.931 . S
H1925 C1913 0.930 . S
H1926 C1914 0.956 . S
H1927 C1914 0.961 . S
H1928 C1914 0.961 . S
H1929 C1915 0.958 . S
H1930 C1915 0.961 . S
H1931 C1915 0.960 . S
C1932 C1933 1.391 . S
C1932 C1934 1.394 1_455 S
C1932 H1948 0.931 . S
C1933 C1932 1.391 . S
C1933 C1937 1.376 1_455 S
C1934 C1932 1.394 1_655 S
C1934 C1935 1.369 . S
C1934 C1938 1.531 . S
C1935 C1934 1.369 . S
C1935 C1936 1.410 . S
C1935 C1943 1.503 . S
C1936 C1935 1.410 . S
C1936 C1937 1.392 . S
C1936 C1939 1.511 . S
C1937 C1933 1.376 1_655 S
C1937 C1936 1.392 . S
C1937 H1949 0.929 . S
C1938 C1934 1.531 . S
C1938 H1950 0.960 . S
C1938 H1951 0.962 . S
C1938 H1952 0.960 . S
C1939 C1936 1.511 . S
C1939 H1953 0.961 . S
C1939 H1954 0.961 . S
C1939 H1955 0.961 . S
C1940 C1941 1.370 . S
C1940 C1942 1.363 . S
C1940 H1956 0.931 . S
C1941 C1940 1.370 . S
C1941 C1945 1.408 . S
C1942 C1940 1.363 . S
C1942 C1943 1.370 . S
C1942 C1946 1.524 . S
C1943 C1935 1.503 . S
C1943 C1942 1.370 . S
C1943 C1944 1.403 . S
C1944 C1943 1.403 . S
C1944 C1945 1.404 . S
C1944 C1947 1.539 . S
C1945 C1941 1.408 . S
C1945 C1944 1.404 . S
C1945 H1957 0.930 . S
C1946 C1942 1.524 . S
C1946 H1958 0.956 . S
C1946 H1959 0.961 . S
C1946 H1960 0.961 . S
C1947 C1944 1.539 . S
C1947 H1961 0.958 . S
C1947 H1962 0.961 . S
C1947 H1963 0.960 . S
H1948 C1932 0.931 . S
H1949 C1937 0.929 . S
H1950 C1938 0.960 . S
H1951 C1938 0.962 . S
H1952 C1938 0.960 . S
H1953 C1939 0.961 . S
H1954 C1939 0.961 . S
H1955 C1939 0.961 . S
H1956 C1940 0.931 . S
H1957 C1945 0.930 . S
H1958 C1946 0.956 . S
H1959 C1946 0.961 . S
H1960 C1946 0.961 . S
H1961 C1947 0.958 . S
H1962 C1947 0.961 . S
H1963 C1947 0.960 . S
C1964 C1965 1.391 . S
C1964 C1966 1.394 . S
C1964 H1980 0.931 . S
C1965 C1964 1.391 . S
C1965 C1969 1.376 . S
C1966 C1964 1.394 . S
C1966 C1967 1.369 . S
C1966 C1970 1.531 . S
C1967 C1966 1.369 . S
C1967 C1968 1.410 . S
C1967 C1975 1.503 . S
C1968 C1967 1.410 . S
C1968 C1969 1.392 . S
C1968 C1971 1.511 . S
C1969 C1965 1.376 . S
C1969 C1968 1.392 . S
C1969 H1981 0.929 . S
C1970 C1966 1.531 . S
C1970 H1982 0.960 . S
C1970 H1983 0.962 . S
C1970 H1984 0.960 . S
C1971 C1968 1.511 . S
C1971 H1985 0.961 . S
C1971 H1986 0.961 . S
C1971 H1987 0.961 . S
C1972 C1973 1.370 . S
C1972 C1974 1.363 . S
C1972 H1988 0.931 . S
C1973 C1972 1.370 . S
C1973 C1977 1.408 . S
C1974 C1972 1.363 . S
C1974 C1975 1.370 . S
C1974 C1978 1.524 . S
C1975 C1967 1.503 . S
C1975 C1974 1.370 . S
C1975 C1976 1.403 . S
C1976 C1975 1.403 . S
C1976 C1977 1.404 . S
C1976 C1979 1.539 . S
C1977 C1973 1.408 . S
C1977 C1976 1.404 . S
C1977 H1989 0.930 . S
C1978 C1974 1.524 . S
C1978 H1990 0.956 . S
C1978 H1991 0.961 . S
C1978 H1992 0.961 . S
C1979 C1976 1.539 . S
C1979 H1993 0.958 . S
C1979 H1994 0.961 . S
C1979 H1995 0.960 . S
H1980 C1964 0.931 . S
H1981 C1969 0.929 . S
H1982 C1970 0.960 . S
H1983 C1970 0.962 . S
H1984 C1970 0.960 . S
H1985 C1971 0.961 . S
H1986 C1971 0.961 . S
H1987 C1971 0.961 . S
H1988 C1972 0.931 . S
H1989 C1977 0.930 . S
H1990 C1978 0.956 . S
H1991 C1978 0.961 . S
H1992 C1978 0.961 . S
H1993 C1979 0.958 . S
H1994 C1979 0.961 . S
H1995 C1979 0.960 . S
C1996 C1997 1.391 1_545 S
C1996 C1998 1.394 . S
C1996 H2012 0.931 1_545 S
C1997 C1996 1.391 1_565 S
C1997 C2001 1.376 . S
C1998 C1996 1.394 . S
C1998 C1999 1.369 . S
C1998 C2002 1.531 . S
C1999 C1998 1.369 . S
C1999 C2000 1.410 . S
C1999 C2007 1.503 . S
C2000 C1999 1.410 . S
C2000 C2001 1.392 1_545 S
C2000 C2003 1.511 . S
C2001 C1997 1.376 . S
C2001 C2000 1.392 1_565 S
C2001 H2013 0.929 . S
C2002 C1998 1.531 . S
C2002 H2014 0.960 . S
C2002 H2015 0.962 . S
C2002 H2016 0.960 . S
C2003 C2000 1.511 . S
C2003 H2017 0.961 . S
C2003 H2018 0.961 . S
C2003 H2019 0.961 . S
C2004 C2005 1.370 . S
C2004 C2006 1.363 . S
C2004 H2020 0.931 . S
C2005 C2004 1.370 . S
C2005 C2009 1.408 . S
C2006 C2004 1.363 . S
C2006 C2007 1.370 . S
C2006 C2010 1.524 . S
C2007 C1999 1.503 . S
C2007 C2006 1.370 . S
C2007 C2008 1.403 . S
C2008 C2007 1.403 . S
C2008 C2009 1.404 . S
C2008 C2011 1.539 . S
C2009 C2005 1.408 . S
C2009 C2008 1.404 . S
C2009 H2021 0.930 . S
C2010 C2006 1.524 . S
C2010 H2022 0.956 . S
C2010 H2023 0.961 . S
C2010 H2024 0.961 . S
C2011 C2008 1.539 . S
C2011 H2025 0.958 . S
C2011 H2026 0.961 . S
C2011 H2027 0.960 . S
H2012 C1996 0.931 1_565 S
H2013 C2001 0.929 . S
H2014 C2002 0.960 . S
H2015 C2002 0.962 . S
H2016 C2002 0.960 . S
H2017 C2003 0.961 . S
H2018 C2003 0.961 . S
H2019 C2003 0.961 . S
H2020 C2004 0.931 . S
H2021 C2009 0.930 . S
H2022 C2010 0.956 . S
H2023 C2010 0.961 . S
H2024 C2010 0.961 . S
H2025 C2011 0.958 . S
H2026 C2011 0.961 . S
H2027 C2011 0.960 . S
C2028 C2029 1.391 . S
C2028 C2030 1.394 . S
C2028 H2044 0.931 . S
C2029 C2028 1.391 . S
C2029 C2033 1.376 . S
C2030 C2028 1.394 . S
C2030 C2031 1.369 . S
C2030 C2034 1.531 . S
C2031 C2030 1.369 . S
C2031 C2032 1.410 . S
C2031 C2039 1.503 . S
C2032 C2031 1.410 . S
C2032 C2033 1.392 . S
C2032 C2035 1.511 . S
C2033 C2029 1.376 . S
C2033 C2032 1.392 . S
C2033 H2045 0.929 . S
C2034 C2030 1.531 . S
C2034 H2046 0.960 . S
C2034 H2047 0.962 . S
C2034 H2048 0.960 . S
C2035 C2032 1.511 . S
C2035 H2049 0.961 . S
C2035 H2050 0.961 . S
C2035 H2051 0.961 . S
C2036 C2037 1.370 . S
C2036 C2038 1.363 . S
C2036 H2052 0.931 . S
C2037 C2036 1.370 . S
C2037 C2041 1.408 . S
C2038 C2036 1.363 . S
C2038 C2039 1.370 . S
C2038 C2042 1.524 . S
C2039 C2031 1.503 . S
C2039 C2038 1.370 . S
C2039 C2040 1.403 . S
C2040 C2039 1.403 . S
C2040 C2041 1.404 . S
C2040 C2043 1.539 . S
C2041 C2037 1.408 . S
C2041 C2040 1.404 . S
C2041 H2053 0.930 . S
C2042 C2038 1.524 . S
C2042 H2054 0.956 . S
C2042 H2055 0.961 . S
C2042 H2056 0.961 . S
C2043 C2040 1.539 . S
C2043 H2057 0.958 . S
C2043 H2058 0.961 . S
C2043 H2059 0.960 . S
H2044 C2028 0.931 . S
H2045 C2033 0.929 . S
H2046 C2034 0.960 . S
H2047 C2034 0.962 . S
H2048 C2034 0.960 . S
H2049 C2035 0.961 . S
H2050 C2035 0.961 . S
H2051 C2035 0.961 . S
H2052 C2036 0.931 . S
H2053 C2041 0.930 . S
H2054 C2042 0.956 . S
H2055 C2042 0.961 . S
H2056 C2042 0.961 . S
H2057 C2043 0.958 . S
H2058 C2043 0.961 . S
H2059 C2043 0.960 . S
C2060 C2061 1.391 . S
C2060 C2062 1.394 . S
C2060 H2076 0.931 . S
C2061 C2060 1.391 . S
C2061 C2065 1.376 . S
C2062 C2060 1.394 . S
C2062 C2063 1.369 . S
C2062 C2066 1.531 . S
C2063 C2062 1.369 . S
C2063 C2064 1.410 . S
C2063 C2071 1.503 . S
C2064 C2063 1.410 . S
C2064 C2065 1.392 . S
C2064 C2067 1.511 . S
C2065 C2061 1.376 . S
C2065 C2064 1.392 . S
C2065 H2077 0.929 . S
C2066 C2062 1.531 . S
C2066 H2078 0.960 . S
C2066 H2079 0.962 . S
C2066 H2080 0.960 . S
C2067 C2064 1.511 . S
C2067 H2081 0.961 . S
C2067 H2082 0.961 . S
C2067 H2083 0.961 . S
C2068 C2069 1.370 . S
C2068 C2070 1.363 . S
C2068 H2084 0.931 . S
C2069 C2068 1.370 . S
C2069 C2073 1.408 . S
C2070 C2068 1.363 . S
C2070 C2071 1.370 . S
C2070 C2074 1.524 . S
C2071 C2063 1.503 . S
C2071 C2070 1.370 . S
C2071 C2072 1.403 . S
C2072 C2071 1.403 . S
C2072 C2073 1.404 . S
C2072 C2075 1.539 . S
C2073 C2069 1.408 . S
C2073 C2072 1.404 . S
C2073 H2085 0.930 . S
C2074 C2070 1.524 . S
C2074 H2086 0.956 . S
C2074 H2087 0.961 . S
C2074 H2088 0.961 . S
C2075 C2072 1.539 . S
C2075 H2089 0.958 . S
C2075 H2090 0.961 . S
C2075 H2091 0.960 . S
H2076 C2060 0.931 . S
H2077 C2065 0.929 . S
H2078 C2066 0.960 . S
H2079 C2066 0.962 . S
H2080 C2066 0.960 . S
H2081 C2067 0.961 . S
H2082 C2067 0.961 . S
H2083 C2067 0.961 . S
H2084 C2068 0.931 . S
H2085 C2073 0.930 . S
H2086 C2074 0.956 . S
H2087 C2074 0.961 . S
H2088 C2074 0.961 . S
H2089 C2075 0.958 . S
H2090 C2075 0.961 . S
H2091 C2075 0.960 . S
C2092 C2093 1.391 . S
C2092 C2094 1.394 . S
C2092 H2108 0.931 . S
C2093 C2092 1.391 . S
C2093 C2097 1.376 . S
C2094 C2092 1.394 . S
C2094 C2095 1.369 . S
C2094 C2098 1.531 . S
C2095 C2094 1.369 . S
C2095 C2096 1.410 . S
C2095 C2103 1.503 . S
C2096 C2095 1.410 . S
C2096 C2097 1.392 . S
C2096 C2099 1.511 . S
C2097 C2093 1.376 . S
C2097 C2096 1.392 . S
C2097 H2109 0.929 . S
C2098 C2094 1.531 . S
C2098 H2110 0.960 . S
C2098 H2111 0.962 . S
C2098 H2112 0.960 . S
C2099 C2096 1.511 . S
C2099 H2113 0.961 . S
C2099 H2114 0.961 . S
C2099 H2115 0.961 . S
C2100 C2101 1.370 . S
C2100 C2102 1.363 . S
C2100 H2116 0.931 . S
C2101 C2100 1.370 . S
C2101 C2105 1.408 . S
C2102 C2100 1.363 . S
C2102 C2103 1.370 . S
C2102 C2106 1.524 . S
C2103 C2095 1.503 . S
C2103 C2102 1.370 . S
C2103 C2104 1.403 . S
C2104 C2103 1.403 . S
C2104 C2105 1.404 . S
C2104 C2107 1.539 . S
C2105 C2101 1.408 . S
C2105 C2104 1.404 . S
C2105 H2117 0.930 . S
C2106 C2102 1.524 . S
C2106 H2118 0.956 . S
C2106 H2119 0.961 . S
C2106 H2120 0.961 . S
C2107 C2104 1.539 . S
C2107 H2121 0.958 . S
C2107 H2122 0.961 . S
C2107 H2123 0.960 . S
H2108 C2092 0.931 . S
H2109 C2097 0.929 . S
H2110 C2098 0.960 . S
H2111 C2098 0.962 . S
H2112 C2098 0.960 . S
H2113 C2099 0.961 . S
H2114 C2099 0.961 . S
H2115 C2099 0.961 . S
H2116 C2100 0.931 . S
H2117 C2105 0.930 . S
H2118 C2106 0.956 . S
H2119 C2106 0.961 . S
H2120 C2106 0.961 . S
H2121 C2107 0.958 . S
H2122 C2107 0.961 . S
H2123 C2107 0.960 . S
C2124 C2125 1.391 . S
C2124 C2126 1.394 . S
C2124 H2140 0.931 . S
C2125 C2124 1.391 . S
C2125 C2129 1.376 . S
C2126 C2124 1.394 . S
C2126 C2127 1.369 . S
C2126 C2130 1.531 . S
C2127 C2126 1.369 . S
C2127 C2128 1.410 . S
C2127 C2135 1.503 . S
C2128 C2127 1.410 . S
C2128 C2129 1.392 . S
C2128 C2131 1.511 . S
C2129 C2125 1.376 . S
C2129 C2128 1.392 . S
C2129 H2141 0.929 . S
C2130 C2126 1.531 . S
C2130 H2142 0.960 . S
C2130 H2143 0.962 . S
C2130 H2144 0.960 . S
C2131 C2128 1.511 . S
C2131 H2145 0.961 . S
C2131 H2146 0.961 . S
C2131 H2147 0.961 . S
C2132 C2133 1.370 . S
C2132 C2134 1.363 . S
C2132 H2148 0.931 . S
C2133 C2132 1.370 . S
C2133 C2137 1.408 . S
C2134 C2132 1.363 . S
C2134 C2135 1.370 . S
C2134 C2138 1.524 . S
C2135 C2127 1.503 . S
C2135 C2134 1.370 . S
C2135 C2136 1.403 . S
C2136 C2135 1.403 . S
C2136 C2137 1.404 . S
C2136 C2139 1.539 . S
C2137 C2133 1.408 . S
C2137 C2136 1.404 . S
C2137 H2149 0.930 . S
C2138 C2134 1.524 . S
C2138 H2150 0.956 . S
C2138 H2151 0.961 . S
C2138 H2152 0.961 . S
C2139 C2136 1.539 . S
C2139 H2153 0.958 . S
C2139 H2154 0.961 . S
C2139 H2155 0.960 . S
H2140 C2124 0.931 . S
H2141 C2129 0.929 . S
H2142 C2130 0.960 . S
H2143 C2130 0.962 . S
H2144 C2130 0.960 . S
H2145 C2131 0.961 . S
H2146 C2131 0.961 . S
H2147 C2131 0.961 . S
H2148 C2132 0.931 . S
H2149 C2137 0.930 . S
H2150 C2138 0.956 . S
H2151 C2138 0.961 . S
H2152 C2138 0.961 . S
H2153 C2139 0.958 . S
H2154 C2139 0.961 . S
H2155 C2139 0.960 . S
C2156 C2157 1.391 . S
C2156 C2158 1.394 . S
C2156 H2172 0.931 . S
C2157 C2156 1.391 . S
C2157 C2161 1.376 . S
C2158 C2156 1.394 . S
C2158 C2159 1.369 . S
C2158 C2162 1.531 . S
C2159 C2158 1.369 . S
C2159 C2160 1.410 . S
C2159 C2167 1.503 . S
C2160 C2159 1.410 . S
C2160 C2161 1.392 . S
C2160 C2163 1.511 . S
C2161 C2157 1.376 . S
C2161 C2160 1.392 . S
C2161 H2173 0.929 . S
C2162 C2158 1.531 . S
C2162 H2174 0.960 . S
C2162 H2175 0.962 . S
C2162 H2176 0.960 . S
C2163 C2160 1.511 . S
C2163 H2177 0.961 . S
C2163 H2178 0.961 . S
C2163 H2179 0.961 . S
C2164 C2165 1.370 . S
C2164 C2166 1.363 . S
C2164 H2180 0.931 . S
C2165 C2164 1.370 . S
C2165 C2169 1.408 . S
C2166 C2164 1.363 . S
C2166 C2167 1.370 . S
C2166 C2170 1.524 . S
C2167 C2159 1.503 . S
C2167 C2166 1.370 . S
C2167 C2168 1.403 . S
C2168 C2167 1.403 . S
C2168 C2169 1.404 . S
C2168 C2171 1.539 . S
C2169 C2165 1.408 . S
C2169 C2168 1.404 . S
C2169 H2181 0.930 . S
C2170 C2166 1.524 . S
C2170 H2182 0.956 . S
C2170 H2183 0.961 . S
C2170 H2184 0.961 . S
C2171 C2168 1.539 . S
C2171 H2185 0.958 . S
C2171 H2186 0.961 . S
C2171 H2187 0.960 . S
H2172 C2156 0.931 . S
H2173 C2161 0.929 . S
H2174 C2162 0.960 . S
H2175 C2162 0.962 . S
H2176 C2162 0.960 . S
H2177 C2163 0.961 . S
H2178 C2163 0.961 . S
H2179 C2163 0.961 . S
H2180 C2164 0.931 . S
H2181 C2169 0.930 . S
H2182 C2170 0.956 . S
H2183 C2170 0.961 . S
H2184 C2170 0.961 . S
H2185 C2171 0.958 . S
H2186 C2171 0.961 . S
H2187 C2171 0.960 . S
C2188 C2189 1.391 . S
C2188 C2190 1.394 . S
C2188 H2204 0.931 . S
C2189 C2188 1.391 . S
C2189 C2193 1.376 . S
C2190 C2188 1.394 . S
C2190 C2191 1.369 . S
C2190 C2194 1.531 . S
C2191 C2190 1.369 . S
C2191 C2192 1.410 . S
C2191 C2199 1.503 . S
C2192 C2191 1.410 . S
C2192 C2193 1.392 . S
C2192 C2195 1.511 . S
C2193 C2189 1.376 . S
C2193 C2192 1.392 . S
C2193 H2205 0.929 . S
C2194 C2190 1.531 . S
C2194 H2206 0.960 . S
C2194 H2207 0.962 . S
C2194 H2208 0.960 . S
C2195 C2192 1.511 . S
C2195 H2209 0.961 . S
C2195 H2210 0.961 . S
C2195 H2211 0.961 . S
C2196 C2197 1.370 . S
C2196 C2198 1.363 . S
C2196 H2212 0.931 . S
C2197 C2196 1.370 . S
C2197 C2201 1.408 . S
C2198 C2196 1.363 . S
C2198 C2199 1.370 . S
C2198 C2202 1.524 . S
C2199 C2191 1.503 . S
C2199 C2198 1.370 . S
C2199 C2200 1.403 . S
C2200 C2199 1.403 . S
C2200 C2201 1.404 . S
C2200 C2203 1.539 . S
C2201 C2197 1.408 . S
C2201 C2200 1.404 . S
C2201 H2213 0.930 . S
C2202 C2198 1.524 . S
C2202 H2214 0.956 . S
C2202 H2215 0.961 . S
C2202 H2216 0.961 . S
C2203 C2200 1.539 . S
C2203 H2217 0.958 . S
C2203 H2218 0.961 . S
C2203 H2219 0.960 . S
H2204 C2188 0.931 . S
H2205 C2193 0.929 . S
H2206 C2194 0.960 . S
H2207 C2194 0.962 . S
H2208 C2194 0.960 . S
H2209 C2195 0.961 . S
H2210 C2195 0.961 . S
H2211 C2195 0.961 . S
H2212 C2196 0.931 . S
H2213 C2201 0.930 . S
H2214 C2202 0.956 . S
H2215 C2202 0.961 . S
H2216 C2202 0.961 . S
H2217 C2203 0.958 . S
H2218 C2203 0.961 . S
H2219 C2203 0.960 . S
C2220 C2221 1.391 . S
C2220 C2222 1.394 . S
C2220 H2236 0.931 . S
C2221 C2220 1.391 . S
C2221 C2225 1.376 . S
C2222 C2220 1.394 . S
C2222 C2223 1.369 . S
C2222 C2226 1.531 . S
C2223 C2222 1.369 . S
C2223 C2224 1.410 . S
C2223 C2231 1.503 . S
C2224 C2223 1.410 . S
C2224 C2225 1.392 . S
C2224 C2227 1.511 . S
C2225 C2221 1.376 . S
C2225 C2224 1.392 . S
C2225 H2237 0.929 . S
C2226 C2222 1.531 . S
C2226 H2238 0.960 . S
C2226 H2239 0.962 . S
C2226 H2240 0.960 . S
C2227 C2224 1.511 . S
C2227 H2241 0.961 . S
C2227 H2242 0.961 . S
C2227 H2243 0.961 . S
C2228 C2229 1.370 . S
C2228 C2230 1.363 . S
C2228 H2244 0.931 . S
C2229 C2228 1.370 . S
C2229 C2233 1.408 . S
C2230 C2228 1.363 . S
C2230 C2231 1.370 . S
C2230 C2234 1.524 . S
C2231 C2223 1.503 . S
C2231 C2230 1.370 . S
C2231 C2232 1.403 . S
C2232 C2231 1.403 . S
C2232 C2233 1.404 . S
C2232 C2235 1.539 . S
C2233 C2229 1.408 . S
C2233 C2232 1.404 . S
C2233 H2245 0.930 . S
C2234 C2230 1.524 . S
C2234 H2246 0.956 . S
C2234 H2247 0.961 . S
C2234 H2248 0.961 . S
C2235 C2232 1.539 . S
C2235 H2249 0.958 . S
C2235 H2250 0.961 . S
C2235 H2251 0.960 . S
H2236 C2220 0.931 . S
H2237 C2225 0.929 . S
H2238 C2226 0.960 . S
H2239 C2226 0.962 . S
H2240 C2226 0.960 . S
H2241 C2227 0.961 . S
H2242 C2227 0.961 . S
H2243 C2227 0.961 . S
H2244 C2228 0.931 . S
H2245 C2233 0.930 . S
H2246 C2234 0.956 . S
H2247 C2234 0.961 . S
H2248 C2234 0.961 . S
H2249 C2235 0.958 . S
H2250 C2235 0.961 . S
H2251 C2235 0.960 . S
C2252 C2253 1.391 . S
C2252 C2254 1.394 . S
C2252 H2268 0.931 . S
C2253 C2252 1.391 . S
C2253 C2257 1.376 . S
C2254 C2252 1.394 . S
C2254 C2255 1.369 . S
C2254 C2258 1.531 . S
C2255 C2254 1.369 . S
C2255 C2256 1.410 . S
C2255 C2263 1.503 . S
C2256 C2255 1.410 . S
C2256 C2257 1.392 . S
C2256 C2259 1.511 . S
C2257 C2253 1.376 . S
C2257 C2256 1.392 . S
C2257 H2269 0.929 . S
C2258 C2254 1.531 . S
C2258 H2270 0.960 . S
C2258 H2271 0.962 . S
C2258 H2272 0.960 . S
C2259 C2256 1.511 . S
C2259 H2273 0.961 . S
C2259 H2274 0.961 . S
C2259 H2275 0.961 . S
C2260 C2261 1.370 . S
C2260 C2262 1.363 . S
C2260 H2276 0.931 . S
C2261 C2260 1.370 . S
C2261 C2265 1.408 . S
C2262 C2260 1.363 . S
C2262 C2263 1.370 . S
C2262 C2266 1.524 . S
C2263 C2255 1.503 . S
C2263 C2262 1.370 . S
C2263 C2264 1.403 . S
C2264 C2263 1.403 . S
C2264 C2265 1.404 . S
C2264 C2267 1.539 . S
C2265 C2261 1.408 . S
C2265 C2264 1.404 . S
C2265 H2277 0.930 . S
C2266 C2262 1.524 . S
C2266 H2278 0.956 . S
C2266 H2279 0.961 . S
C2266 H2280 0.961 . S
C2267 C2264 1.539 . S
C2267 H2281 0.958 . S
C2267 H2282 0.961 . S
C2267 H2283 0.960 . S
H2268 C2252 0.931 . S
H2269 C2257 0.929 . S
H2270 C2258 0.960 . S
H2271 C2258 0.962 . S
H2272 C2258 0.960 . S
H2273 C2259 0.961 . S
H2274 C2259 0.961 . S
H2275 C2259 0.961 . S
H2276 C2260 0.931 . S
H2277 C2265 0.930 . S
H2278 C2266 0.956 . S
H2279 C2266 0.961 . S
H2280 C2266 0.961 . S
H2281 C2267 0.958 . S
H2282 C2267 0.961 . S
H2283 C2267 0.960 . S
C2284 C2285 1.391 . S
C2284 C2286 1.394 . S
C2284 H2300 0.931 . S
C2285 C2284 1.391 . S
C2285 C2289 1.376 . S
C2286 C2284 1.394 . S
C2286 C2287 1.369 . S
C2286 C2290 1.531 . S
C2287 C2286 1.369 . S
C2287 C2288 1.410 . S
C2287 C2295 1.503 . S
C2288 C2287 1.410 . S
C2288 C2289 1.392 . S
C2288 C2291 1.511 . S
C2289 C2285 1.376 . S
C2289 C2288 1.392 . S
C2289 H2301 0.929 . S
C2290 C2286 1.531 . S
C2290 H2302 0.960 . S
C2290 H2303 0.962 . S
C2290 H2304 0.960 . S
C2291 C2288 1.511 . S
C2291 H2305 0.961 . S
C2291 H2306 0.961 . S
C2291 H2307 0.961 . S
C2292 C2293 1.370 . S
C2292 C2294 1.363 . S
C2292 H2308 0.931 . S
C2293 C2292 1.370 . S
C2293 C2297 1.408 . S
C2294 C2292 1.363 . S
C2294 C2295 1.370 . S
C2294 C2298 1.524 . S
C2295 C2287 1.503 . S
C2295 C2294 1.370 . S
C2295 C2296 1.403 . S
C2296 C2295 1.403 . S
C2296 C2297 1.404 . S
C2296 C2299 1.539 . S
C2297 C2293 1.408 . S
C2297 C2296 1.404 . S
C2297 H2309 0.930 . S
C2298 C2294 1.524 . S
C2298 H2310 0.956 . S
C2298 H2311 0.961 . S
C2298 H2312 0.961 . S
C2299 C2296 1.539 . S
C2299 H2313 0.958 . S
C2299 H2314 0.961 . S
C2299 H2315 0.960 . S
H2300 C2284 0.931 . S
H2301 C2289 0.929 . S
H2302 C2290 0.960 . S
H2303 C2290 0.962 . S
H2304 C2290 0.960 . S
H2305 C2291 0.961 . S
H2306 C2291 0.961 . S
H2307 C2291 0.961 . S
H2308 C2292 0.931 . S
H2309 C2297 0.930 . S
H2310 C2298 0.956 . S
H2311 C2298 0.961 . S
H2312 C2298 0.961 . S
H2313 C2299 0.958 . S
H2314 C2299 0.961 . S
H2315 C2299 0.960 . S
C2316 C2317 1.391 . S
C2316 C2318 1.394 . S
C2316 H2332 0.931 . S
C2317 C2316 1.391 . S
C2317 C2321 1.376 . S
C2318 C2316 1.394 . S
C2318 C2319 1.369 . S
C2318 C2322 1.531 . S
C2319 C2318 1.369 . S
C2319 C2320 1.410 . S
C2319 C2327 1.503 . S
C2320 C2319 1.410 . S
C2320 C2321 1.392 . S
C2320 C2323 1.511 . S
C2321 C2317 1.376 . S
C2321 C2320 1.392 . S
C2321 H2333 0.929 . S
C2322 C2318 1.531 . S
C2322 H2334 0.960 . S
C2322 H2335 0.962 . S
C2322 H2336 0.960 . S
C2323 C2320 1.511 . S
C2323 H2337 0.961 . S
C2323 H2338 0.961 . S
C2323 H2339 0.961 . S
C2324 C2325 1.370 . S
C2324 C2326 1.363 . S
C2324 H2340 0.931 . S
C2325 C2324 1.370 . S
C2325 C2329 1.408 . S
C2326 C2324 1.363 . S
C2326 C2327 1.370 . S
C2326 C2330 1.524 . S
C2327 C2319 1.503 . S
C2327 C2326 1.370 . S
C2327 C2328 1.403 . S
C2328 C2327 1.403 . S
C2328 C2329 1.404 . S
C2328 C2331 1.539 . S
C2329 C2325 1.408 . S
C2329 C2328 1.404 . S
C2329 H2341 0.930 . S
C2330 C2326 1.524 . S
C2330 H2342 0.956 . S
C2330 H2343 0.961 . S
C2330 H2344 0.961 . S
C2331 C2328 1.539 . S
C2331 H2345 0.958 . S
C2331 H2346 0.961 . S
C2331 H2347 0.960 . S
H2332 C2316 0.931 . S
H2333 C2321 0.929 . S
H2334 C2322 0.960 . S
H2335 C2322 0.962 . S
H2336 C2322 0.960 . S
H2337 C2323 0.961 . S
H2338 C2323 0.961 . S
H2339 C2323 0.961 . S
H2340 C2324 0.931 . S
H2341 C2329 0.930 . S
H2342 C2330 0.956 . S
H2343 C2330 0.961 . S
H2344 C2330 0.961 . S
H2345 C2331 0.958 . S
H2346 C2331 0.961 . S
H2347 C2331 0.960 . S
C2348 C2349 1.391 . S
C2348 C2350 1.394 . S
C2348 H2364 0.931 . S
C2349 C2348 1.391 . S
C2349 C2353 1.376 . S
C2350 C2348 1.394 . S
C2350 C2351 1.369 . S
C2350 C2354 1.531 . S
C2351 C2350 1.369 . S
C2351 C2352 1.410 . S
C2351 C2359 1.503 . S
C2352 C2351 1.410 . S
C2352 C2353 1.392 . S
C2352 C2355 1.511 . S
C2353 C2349 1.376 . S
C2353 C2352 1.392 . S
C2353 H2365 0.929 . S
C2354 C2350 1.531 . S
C2354 H2366 0.960 . S
C2354 H2367 0.962 . S
C2354 H2368 0.960 . S
C2355 C2352 1.511 . S
C2355 H2369 0.961 . S
C2355 H2370 0.961 . S
C2355 H2371 0.961 . S
C2356 C2357 1.370 . S
C2356 C2358 1.363 . S
C2356 H2372 0.931 . S
C2357 C2356 1.370 . S
C2357 C2361 1.408 . S
C2358 C2356 1.363 . S
C2358 C2359 1.370 . S
C2358 C2362 1.524 . S
C2359 C2351 1.503 . S
C2359 C2358 1.370 . S
C2359 C2360 1.403 . S
C2360 C2359 1.403 . S
C2360 C2361 1.404 . S
C2360 C2363 1.539 . S
C2361 C2357 1.408 . S
C2361 C2360 1.404 . S
C2361 H2373 0.930 . S
C2362 C2358 1.524 . S
C2362 H2374 0.956 . S
C2362 H2375 0.961 . S
C2362 H2376 0.961 . S
C2363 C2360 1.539 . S
C2363 H2377 0.958 . S
C2363 H2378 0.961 . S
C2363 H2379 0.960 . S
H2364 C2348 0.931 . S
H2365 C2353 0.929 . S
H2366 C2354 0.960 . S
H2367 C2354 0.962 . S
H2368 C2354 0.960 . S
H2369 C2355 0.961 . S
H2370 C2355 0.961 . S
H2371 C2355 0.961 . S
H2372 C2356 0.931 . S
H2373 C2361 0.930 . S
H2374 C2362 0.956 . S
H2375 C2362 0.961 . S
H2376 C2362 0.961 . S
H2377 C2363 0.958 . S
H2378 C2363 0.961 . S
H2379 C2363 0.960 . S
C2380 C2381 1.391 . S
C2380 C2382 1.394 . S
C2380 H2396 0.931 . S
C2381 C2380 1.391 . S
C2381 C2385 1.376 . S
C2382 C2380 1.394 . S
C2382 C2383 1.369 . S
C2382 C2386 1.531 . S
C2383 C2382 1.369 . S
C2383 C2384 1.410 . S
C2383 C2391 1.503 . S
C2384 C2383 1.410 . S
C2384 C2385 1.392 . S
C2384 C2387 1.511 . S
C2385 C2381 1.376 . S
C2385 C2384 1.392 . S
C2385 H2397 0.929 . S
C2386 C2382 1.531 . S
C2386 H2398 0.960 . S
C2386 H2399 0.962 . S
C2386 H2400 0.960 . S
C2387 C2384 1.511 . S
C2387 H2401 0.961 . S
C2387 H2402 0.961 . S
C2387 H2403 0.961 . S
C2388 C2389 1.370 . S
C2388 C2390 1.363 . S
C2388 H2404 0.931 . S
C2389 C2388 1.370 . S
C2389 C2393 1.408 . S
C2390 C2388 1.363 . S
C2390 C2391 1.370 . S
C2390 C2394 1.524 . S
C2391 C2383 1.503 . S
C2391 C2390 1.370 . S
C2391 C2392 1.403 . S
C2392 C2391 1.403 . S
C2392 C2393 1.404 . S
C2392 C2395 1.539 . S
C2393 C2389 1.408 . S
C2393 C2392 1.404 . S
C2393 H2405 0.930 . S
C2394 C2390 1.524 . S
C2394 H2406 0.956 . S
C2394 H2407 0.961 . S
C2394 H2408 0.961 . S
C2395 C2392 1.539 . S
C2395 H2409 0.958 . S
C2395 H2410 0.961 . S
C2395 H2411 0.960 . S
H2396 C2380 0.931 . S
H2397 C2385 0.929 . S
H2398 C2386 0.960 . S
H2399 C2386 0.962 . S
H2400 C2386 0.960 . S
H2401 C2387 0.961 . S
H2402 C2387 0.961 . S
H2403 C2387 0.961 . S
H2404 C2388 0.931 . S
H2405 C2393 0.930 . S
H2406 C2394 0.956 . S
H2407 C2394 0.961 . S
H2408 C2394 0.961 . S
H2409 C2395 0.958 . S
H2410 C2395 0.961 . S
H2411 C2395 0.960 . S
C2412 C2413 1.391 . S
C2412 C2414 1.394 . S
C2412 H2428 0.931 . S
C2413 C2412 1.391 . S
C2413 C2417 1.376 . S
C2414 C2412 1.394 . S
C2414 C2415 1.369 . S
C2414 C2418 1.531 . S
C2415 C2414 1.369 . S
C2415 C2416 1.410 . S
C2415 C2423 1.503 . S
C2416 C2415 1.410 . S
C2416 C2417 1.392 . S
C2416 C2419 1.511 . S
C2417 C2413 1.376 . S
C2417 C2416 1.392 . S
C2417 H2429 0.929 . S
C2418 C2414 1.531 . S
C2418 H2430 0.960 . S
C2418 H2431 0.962 . S
C2418 H2432 0.960 . S
C2419 C2416 1.511 . S
C2419 H2433 0.961 . S
C2419 H2434 0.961 . S
C2419 H2435 0.961 . S
C2420 C2421 1.370 . S
C2420 C2422 1.363 . S
C2420 H2436 0.931 . S
C2421 C2420 1.370 . S
C2421 C2425 1.408 . S
C2422 C2420 1.363 . S
C2422 C2423 1.370 . S
C2422 C2426 1.524 . S
C2423 C2415 1.503 . S
C2423 C2422 1.370 . S
C2423 C2424 1.403 . S
C2424 C2423 1.403 . S
C2424 C2425 1.404 . S
C2424 C2427 1.539 . S
C2425 C2421 1.408 . S
C2425 C2424 1.404 . S
C2425 H2437 0.930 . S
C2426 C2422 1.524 . S
C2426 H2438 0.956 . S
C2426 H2439 0.961 . S
C2426 H2440 0.961 . S
C2427 C2424 1.539 . S
C2427 H2441 0.958 . S
C2427 H2442 0.961 . S
C2427 H2443 0.960 . S
H2428 C2412 0.931 . S
H2429 C2417 0.929 . S
H2430 C2418 0.960 . S
H2431 C2418 0.962 . S
H2432 C2418 0.960 . S
H2433 C2419 0.961 . S
H2434 C2419 0.961 . S
H2435 C2419 0.961 . S
H2436 C2420 0.931 . S
H2437 C2425 0.930 . S
H2438 C2426 0.956 . S
H2439 C2426 0.961 . S
H2440 C2426 0.961 . S
H2441 C2427 0.958 . S
H2442 C2427 0.961 . S
H2443 C2427 0.960 . S
C2444 C2445 1.391 . S
C2444 C2446 1.394 . S
C2444 H2460 0.931 . S
C2445 C2444 1.391 . S
C2445 C2449 1.376 . S
C2446 C2444 1.394 . S
C2446 C2447 1.369 . S
C2446 C2450 1.531 . S
C2447 C2446 1.369 . S
C2447 C2448 1.410 . S
C2447 C2455 1.503 . S
C2448 C2447 1.410 . S
C2448 C2449 1.392 . S
C2448 C2451 1.511 . S
C2449 C2445 1.376 . S
C2449 C2448 1.392 . S
C2449 H2461 0.929 . S
C2450 C2446 1.531 . S
C2450 H2462 0.960 . S
C2450 H2463 0.962 . S
C2450 H2464 0.960 . S
C2451 C2448 1.511 . S
C2451 H2465 0.961 . S
C2451 H2466 0.961 . S
C2451 H2467 0.961 . S
C2452 C2453 1.370 . S
C2452 C2454 1.363 . S
C2452 H2468 0.931 . S
C2453 C2452 1.370 . S
C2453 C2457 1.408 . S
C2454 C2452 1.363 . S
C2454 C2455 1.370 . S
C2454 C2458 1.524 . S
C2455 C2447 1.503 . S
C2455 C2454 1.370 . S
C2455 C2456 1.403 . S
C2456 C2455 1.403 . S
C2456 C2457 1.404 . S
C2456 C2459 1.539 . S
C2457 C2453 1.408 . S
C2457 C2456 1.404 . S
C2457 H2469 0.930 . S
C2458 C2454 1.524 . S
C2458 H2470 0.956 . S
C2458 H2471 0.961 . S
C2458 H2472 0.961 . S
C2459 C2456 1.539 . S
C2459 H2473 0.958 . S
C2459 H2474 0.961 . S
C2459 H2475 0.960 . S
H2460 C2444 0.931 . S
H2461 C2449 0.929 . S
H2462 C2450 0.960 . S
H2463 C2450 0.962 . S
H2464 C2450 0.960 . S
H2465 C2451 0.961 . S
H2466 C2451 0.961 . S
H2467 C2451 0.961 . S
H2468 C2452 0.931 . S
H2469 C2457 0.930 . S
H2470 C2458 0.956 . S
H2471 C2458 0.961 . S
H2472 C2458 0.961 . S
H2473 C2459 0.958 . S
H2474 C2459 0.961 . S
H2475 C2459 0.960 . S
C2476 C2477 1.391 . S
C2476 C2478 1.394 . S
C2476 H2492 0.931 . S
C2477 C2476 1.391 . S
C2477 C2481 1.376 . S
C2478 C2476 1.394 . S
C2478 C2479 1.369 . S
C2478 C2482 1.531 . S
C2479 C2478 1.369 . S
C2479 C2480 1.410 . S
C2479 C2487 1.503 . S
C2480 C2479 1.410 . S
C2480 C2481 1.392 . S
C2480 C2483 1.511 . S
C2481 C2477 1.376 . S
C2481 C2480 1.392 . S
C2481 H2493 0.929 . S
C2482 C2478 1.531 . S
C2482 H2494 0.960 . S
C2482 H2495 0.962 . S
C2482 H2496 0.960 . S
C2483 C2480 1.511 . S
C2483 H2497 0.961 . S
C2483 H2498 0.961 . S
C2483 H2499 0.961 . S
C2484 C2485 1.370 . S
C2484 C2486 1.363 . S
C2484 H2500 0.931 . S
C2485 C2484 1.370 . S
C2485 C2489 1.408 . S
C2486 C2484 1.363 . S
C2486 C2487 1.370 . S
C2486 C2490 1.524 . S
C2487 C2479 1.503 . S
C2487 C2486 1.370 . S
C2487 C2488 1.403 . S
C2488 C2487 1.403 . S
C2488 C2489 1.404 . S
C2488 C2491 1.539 . S
C2489 C2485 1.408 . S
C2489 C2488 1.404 . S
C2489 H2501 0.930 . S
C2490 C2486 1.524 . S
C2490 H2502 0.956 . S
C2490 H2503 0.961 . S
C2490 H2504 0.961 . S
C2491 C2488 1.539 . S
C2491 H2505 0.958 . S
C2491 H2506 0.961 . S
C2491 H2507 0.960 . S
H2492 C2476 0.931 . S
H2493 C2481 0.929 . S
H2494 C2482 0.960 . S
H2495 C2482 0.962 . S
H2496 C2482 0.960 . S
H2497 C2483 0.961 . S
H2498 C2483 0.961 . S
H2499 C2483 0.961 . S
H2500 C2484 0.931 . S
H2501 C2489 0.930 . S
H2502 C2490 0.956 . S
H2503 C2490 0.961 . S
H2504 C2490 0.961 . S
H2505 C2491 0.958 . S
H2506 C2491 0.961 . S
H2507 C2491 0.960 . S
C2508 C2509 1.391 . S
C2508 C2510 1.394 . S
C2508 H2524 0.931 . S
C2509 C2508 1.391 . S
C2509 C2513 1.376 . S
C2510 C2508 1.394 . S
C2510 C2511 1.369 . S
C2510 C2514 1.531 . S
C2511 C2510 1.369 . S
C2511 C2512 1.410 . S
C2511 C2519 1.503 . S
C2512 C2511 1.410 . S
C2512 C2513 1.392 . S
C2512 C2515 1.511 . S
C2513 C2509 1.376 . S
C2513 C2512 1.392 . S
C2513 H2525 0.929 . S
C2514 C2510 1.531 . S
C2514 H2526 0.960 . S
C2514 H2527 0.962 . S
C2514 H2528 0.960 . S
C2515 C2512 1.511 . S
C2515 H2529 0.961 . S
C2515 H2530 0.961 . S
C2515 H2531 0.961 . S
C2516 C2517 1.370 . S
C2516 C2518 1.363 . S
C2516 H2532 0.931 . S
C2517 C2516 1.370 . S
C2517 C2521 1.408 . S
C2518 C2516 1.363 . S
C2518 C2519 1.370 . S
C2518 C2522 1.524 . S
C2519 C2511 1.503 . S
C2519 C2518 1.370 . S
C2519 C2520 1.403 . S
C2520 C2519 1.403 . S
C2520 C2521 1.404 . S
C2520 C2523 1.539 . S
C2521 C2517 1.408 . S
C2521 C2520 1.404 . S
C2521 H2533 0.930 . S
C2522 C2518 1.524 . S
C2522 H2534 0.956 . S
C2522 H2535 0.961 . S
C2522 H2536 0.961 . S
C2523 C2520 1.539 . S
C2523 H2537 0.958 . S
C2523 H2538 0.961 . S
C2523 H2539 0.960 . S
H2524 C2508 0.931 . S
H2525 C2513 0.929 . S
H2526 C2514 0.960 . S
H2527 C2514 0.962 . S
H2528 C2514 0.960 . S
H2529 C2515 0.961 . S
H2530 C2515 0.961 . S
H2531 C2515 0.961 . S
H2532 C2516 0.931 . S
H2533 C2521 0.930 . S
H2534 C2522 0.956 . S
H2535 C2522 0.961 . S
H2536 C2522 0.961 . S
H2537 C2523 0.958 . S
H2538 C2523 0.961 . S
H2539 C2523 0.960 . S
C2540 C2541 1.391 . S
C2540 C2542 1.394 . S
C2540 H2556 0.931 . S
C2541 C2540 1.391 . S
C2541 C2545 1.376 . S
C2542 C2540 1.394 . S
C2542 C2543 1.369 . S
C2542 C2546 1.531 . S
C2543 C2542 1.369 . S
C2543 C2544 1.410 . S
C2543 C2551 1.503 . S
C2544 C2543 1.410 . S
C2544 C2545 1.392 . S
C2544 C2547 1.511 . S
C2545 C2541 1.376 . S
C2545 C2544 1.392 . S
C2545 H2557 0.929 . S
C2546 C2542 1.531 . S
C2546 H2558 0.960 . S
C2546 H2559 0.962 . S
C2546 H2560 0.960 . S
C2547 C2544 1.511 . S
C2547 H2561 0.961 . S
C2547 H2562 0.961 . S
C2547 H2563 0.961 . S
C2548 C2549 1.370 . S
C2548 C2550 1.363 . S
C2548 H2564 0.931 . S
C2549 C2548 1.370 . S
C2549 C2553 1.408 . S
C2550 C2548 1.363 . S
C2550 C2551 1.370 . S
C2550 C2554 1.524 . S
C2551 C2543 1.503 . S
C2551 C2550 1.370 . S
C2551 C2552 1.403 . S
C2552 C2551 1.403 . S
C2552 C2553 1.404 . S
C2552 C2555 1.539 . S
C2553 C2549 1.408 . S
C2553 C2552 1.404 . S
C2553 H2565 0.930 . S
C2554 C2550 1.524 . S
C2554 H2566 0.956 . S
C2554 H2567 0.961 . S
C2554 H2568 0.961 . S
C2555 C2552 1.539 . S
C2555 H2569 0.958 . S
C2555 H2570 0.961 . S
C2555 H2571 0.960 . S
H2556 C2540 0.931 . S
H2557 C2545 0.929 . S
H2558 C2546 0.960 . S
H2559 C2546 0.962 . S
H2560 C2546 0.960 . S
H2561 C2547 0.961 . S
H2562 C2547 0.961 . S
H2563 C2547 0.961 . S
H2564 C2548 0.931 . S
H2565 C2553 0.930 . S
H2566 C2554 0.956 . S
H2567 C2554 0.961 . S
H2568 C2554 0.961 . S
H2569 C2555 0.958 . S
H2570 C2555 0.961 . S
H2571 C2555 0.960 . S
C2572 C2573 1.391 . S
C2572 C2574 1.394 . S
C2572 H2588 0.931 . S
C2573 C2572 1.391 . S
C2573 C2577 1.376 . S
C2574 C2572 1.394 . S
C2574 C2575 1.369 . S
C2574 C2578 1.531 . S
C2575 C2574 1.369 . S
C2575 C2576 1.410 . S
C2575 C2583 1.503 . S
C2576 C2575 1.410 . S
C2576 C2577 1.392 . S
C2576 C2579 1.511 . S
C2577 C2573 1.376 . S
C2577 C2576 1.392 . S
C2577 H2589 0.929 . S
C2578 C2574 1.531 . S
C2578 H2590 0.960 . S
C2578 H2591 0.962 . S
C2578 H2592 0.960 . S
C2579 C2576 1.511 . S
C2579 H2593 0.961 . S
C2579 H2594 0.961 . S
C2579 H2595 0.961 . S
C2580 C2581 1.370 . S
C2580 C2582 1.363 . S
C2580 H2596 0.931 . S
C2581 C2580 1.370 . S
C2581 C2585 1.408 . S
C2582 C2580 1.363 . S
C2582 C2583 1.370 . S
C2582 C2586 1.524 . S
C2583 C2575 1.503 . S
C2583 C2582 1.370 . S
C2583 C2584 1.403 . S
C2584 C2583 1.403 . S
C2584 C2585 1.404 . S
C2584 C2587 1.539 . S
C2585 C2581 1.408 . S
C2585 C2584 1.404 . S
C2585 H2597 0.930 . S
C2586 C2582 1.524 . S
C2586 H2598 0.956 . S
C2586 H2599 0.961 . S
C2586 H2600 0.961 . S
C2587 C2584 1.539 . S
C2587 H2601 0.958 . S
C2587 H2602 0.961 . S
C2587 H2603 0.960 . S
H2588 C2572 0.931 . S
H2589 C2577 0.929 . S
H2590 C2578 0.960 . S
H2591 C2578 0.962 . S
H2592 C2578 0.960 . S
H2593 C2579 0.961 . S
H2594 C2579 0.961 . S
H2595 C2579 0.961 . S
H2596 C2580 0.931 . S
H2597 C2585 0.930 . S
H2598 C2586 0.956 . S
H2599 C2586 0.961 . S
H2600 C2586 0.961 . S
H2601 C2587 0.958 . S
H2602 C2587 0.961 . S
H2603 C2587 0.960 . S
C2604 C2605 1.391 . S
C2604 C2606 1.394 . S
C2604 H2620 0.931 . S
C2605 C2604 1.391 . S
C2605 C2609 1.376 . S
C2606 C2604 1.394 . S
C2606 C2607 1.369 . S
C2606 C2610 1.531 . S
C2607 C2606 1.369 . S
C2607 C2608 1.410 . S
C2607 C2615 1.503 . S
C2608 C2607 1.410 . S
C2608 C2609 1.392 . S
C2608 C2611 1.511 . S
C2609 C2605 1.376 . S
C2609 C2608 1.392 . S
C2609 H2621 0.929 . S
C2610 C2606 1.531 . S
C2610 H2622 0.960 . S
C2610 H2623 0.962 . S
C2610 H2624 0.960 . S
C2611 C2608 1.511 . S
C2611 H2625 0.961 . S
C2611 H2626 0.961 . S
C2611 H2627 0.961 . S
C2612 C2613 1.370 . S
C2612 C2614 1.363 . S
C2612 H2628 0.931 . S
C2613 C2612 1.370 . S
C2613 C2617 1.408 . S
C2614 C2612 1.363 . S
C2614 C2615 1.370 . S
C2614 C2618 1.524 . S
C2615 C2607 1.503 . S
C2615 C2614 1.370 . S
C2615 C2616 1.403 . S
C2616 C2615 1.403 . S
C2616 C2617 1.404 . S
C2616 C2619 1.539 . S
C2617 C2613 1.408 . S
C2617 C2616 1.404 . S
C2617 H2629 0.930 . S
C2618 C2614 1.524 . S
C2618 H2630 0.956 . S
C2618 H2631 0.961 . S
C2618 H2632 0.961 . S
C2619 C2616 1.539 . S
C2619 H2633 0.958 . S
C2619 H2634 0.961 . S
C2619 H2635 0.960 . S
H2620 C2604 0.931 . S
H2621 C2609 0.929 . S
H2622 C2610 0.960 . S
H2623 C2610 0.962 . S
H2624 C2610 0.960 . S
H2625 C2611 0.961 . S
H2626 C2611 0.961 . S
H2627 C2611 0.961 . S
H2628 C2612 0.931 . S
H2629 C2617 0.930 . S
H2630 C2618 0.956 . S
H2631 C2618 0.961 . S
H2632 C2618 0.961 . S
H2633 C2619 0.958 . S
H2634 C2619 0.961 . S
H2635 C2619 0.960 . S
C2636 C2637 1.391 . S
C2636 C2638 1.394 . S
C2636 H2652 0.931 . S
C2637 C2636 1.391 . S
C2637 C2641 1.376 . S
C2638 C2636 1.394 . S
C2638 C2639 1.369 . S
C2638 C2642 1.531 . S
C2639 C2638 1.369 . S
C2639 C2640 1.410 . S
C2639 C2647 1.503 . S
C2640 C2639 1.410 . S
C2640 C2641 1.392 . S
C2640 C2643 1.511 . S
C2641 C2637 1.376 . S
C2641 C2640 1.392 . S
C2641 H2653 0.929 . S
C2642 C2638 1.531 . S
C2642 H2654 0.960 . S
C2642 H2655 0.962 . S
C2642 H2656 0.960 . S
C2643 C2640 1.511 . S
C2643 H2657 0.961 . S
C2643 H2658 0.961 . S
C2643 H2659 0.961 . S
C2644 C2645 1.370 . S
C2644 C2646 1.363 . S
C2644 H2660 0.931 . S
C2645 C2644 1.370 . S
C2645 C2649 1.408 . S
C2646 C2644 1.363 . S
C2646 C2647 1.370 . S
C2646 C2650 1.524 . S
C2647 C2639 1.503 . S
C2647 C2646 1.370 . S
C2647 C2648 1.403 . S
C2648 C2647 1.403 . S
C2648 C2649 1.404 . S
C2648 C2651 1.539 . S
C2649 C2645 1.408 . S
C2649 C2648 1.404 . S
C2649 H2661 0.930 . S
C2650 C2646 1.524 . S
C2650 H2662 0.956 . S
C2650 H2663 0.961 . S
C2650 H2664 0.961 . S
C2651 C2648 1.539 . S
C2651 H2665 0.958 . S
C2651 H2666 0.961 . S
C2651 H2667 0.960 . S
H2652 C2636 0.931 . S
H2653 C2641 0.929 . S
H2654 C2642 0.960 . S
H2655 C2642 0.962 . S
H2656 C2642 0.960 . S
H2657 C2643 0.961 . S
H2658 C2643 0.961 . S
H2659 C2643 0.961 . S
H2660 C2644 0.931 . S
H2661 C2649 0.930 . S
H2662 C2650 0.956 . S
H2663 C2650 0.961 . S
H2664 C2650 0.961 . S
H2665 C2651 0.958 . S
H2666 C2651 0.961 . S
H2667 C2651 0.960 . S
C2668 C2669 1.391 . S
C2668 C2670 1.394 . S
C2668 H2684 0.931 . S
C2669 C2668 1.391 . S
C2669 C2673 1.376 . S
C2670 C2668 1.394 . S
C2670 C2671 1.369 . S
C2670 C2674 1.531 . S
C2671 C2670 1.369 . S
C2671 C2672 1.410 . S
C2671 C2679 1.503 . S
C2672 C2671 1.410 . S
C2672 C2673 1.392 . S
C2672 C2675 1.511 . S
C2673 C2669 1.376 . S
C2673 C2672 1.392 . S
C2673 H2685 0.929 . S
C2674 C2670 1.531 . S
C2674 H2686 0.960 . S
C2674 H2687 0.962 . S
C2674 H2688 0.960 . S
C2675 C2672 1.511 . S
C2675 H2689 0.961 . S
C2675 H2690 0.961 . S
C2675 H2691 0.961 . S
C2676 C2677 1.370 . S
C2676 C2678 1.363 . S
C2676 H2692 0.931 . S
C2677 C2676 1.370 . S
C2677 C2681 1.408 . S
C2678 C2676 1.363 . S
C2678 C2679 1.370 . S
C2678 C2682 1.524 . S
C2679 C2671 1.503 . S
C2679 C2678 1.370 . S
C2679 C2680 1.403 . S
C2680 C2679 1.403 . S
C2680 C2681 1.404 . S
C2680 C2683 1.539 . S
C2681 C2677 1.408 . S
C2681 C2680 1.404 . S
C2681 H2693 0.930 . S
C2682 C2678 1.524 . S
C2682 H2694 0.956 . S
C2682 H2695 0.961 . S
C2682 H2696 0.961 . S
C2683 C2680 1.539 . S
C2683 H2697 0.958 . S
C2683 H2698 0.961 . S
C2683 H2699 0.960 . S
H2684 C2668 0.931 . S
H2685 C2673 0.929 . S
H2686 C2674 0.960 . S
H2687 C2674 0.962 . S
H2688 C2674 0.960 . S
H2689 C2675 0.961 . S
H2690 C2675 0.961 . S
H2691 C2675 0.961 . S
H2692 C2676 0.931 . S
H2693 C2681 0.930 . S
H2694 C2682 0.956 . S
H2695 C2682 0.961 . S
H2696 C2682 0.961 . S
H2697 C2683 0.958 . S
H2698 C2683 0.961 . S
H2699 C2683 0.960 . S
C973 C162 1.438 . S
C981 C283 1.381 . S
C1005 C174 1.469 . S
C1013 C367 1.415 . S
C1037 C150 1.432 . S
C1045 C447 1.445 . S
C1069 C138 1.417 . S
C1077 C363 1.428 1_556 S
C1109 C451 1.390 . S
C1101 C114 1.442 . S
C1133 C126 1.393 . S
C1141 C279 1.403 1_556 S
C1173 C272 1.433 . S
C1165 C136 1.472 . S
C1205 C356 1.473 . S
C1197 C112 1.527 . S
C1229 C124 1.506 . S
C1237 C458 1.471 1_556 S
C1261 C160 1.466 . S
C1269 C374 1.447 . S
C1293 C172 1.480 . S
C1301 C440 1.422 . S
C1333 C290 1.421 . S
C1325 C148 1.460 . S
C1365 C535 1.397 . S
C1357 C18 1.445 . S
C1389 C30 1.479 . S
C1397 C619 1.439 . S
C1421 C6 1.444 . S
C1429 C699 1.433 . S
C1453 C210 1.413 . S
C1461 C615 1.426 . S
C1485 C186 1.438 . S
C1493 C703 1.394 . S
C1517 C198 1.390 . S
C1525 C531 1.399 . S
C1549 C208 1.475 . S
C1557 C524 1.439 . S
C1581 C184 1.534 . S
C1589 C608 1.482 . S
C1621 C710 1.477 . S
C1613 C196 1.492 . S
C1645 C16 1.469 . S
C1653 C626 1.445 . S
C1685 C692 1.422 . S
C1677 C28 1.463 . S
C1709 C4 1.477 . S
C1717 C542 1.439 . S
C1749 C787 1.388 . S
C1741 C90 1.444 . S
C1773 C102 1.461 . S
C1781 C871 1.416 . S
C1813 C951 1.434 . S
C1805 C78 1.448 . S
C1845 C867 1.429 . S
C1837 C66 1.420 . S
C1877 C955 1.393 . S
C1869 C42 1.441 . S
C1901 C54 1.390 . S
C1909 C783 1.401 . S
C1933 C64 1.510 . S
C1941 C776 1.460 . S
C1965 C40 1.515 . S
C1973 C860 1.464 . S
C2005 C962 1.470 . S
C1997 C52 1.515 . S
C2029 C88 1.460 . S
C2037 C878 1.462 . S
C2061 C100 1.450 . S
C2069 C944 1.409 . S
C2093 C76 1.474 . S
C2101 C794 1.441 . S
C2125 C189 1.571 . S
C2133 C286 1.441 . S
C2165 C370 1.504 . S
C2157 C201 1.630 . S
C2189 C213 1.584 . S
C2197 C442 1.379 . S
C2221 C81 1.581 . S
C2229 C358 1.419 . S
C2253 C93 1.592 . S
C2261 C454 1.473 . S
C2293 C274 1.371 . S
C2285 C105 1.548 . S
C2317 C45 1.578 . S
C2325 C538 1.454 . S
C2349 C57 1.615 . S
C2357 C622 1.467 . S
C2381 C69 1.583 . S
C2389 C694 1.376 . S
C2413 C153 1.582 . S
C2421 C610 1.395 . S
C2453 C706 1.434 . S
C2445 C165 1.576 . S
C2477 C177 1.523 . S
C2485 C526 1.387 . S
C2509 C117 1.574 . S
C2517 C790 1.468 . S
C2541 C129 1.639 . S
C2549 C874 1.491 . S
C2581 C946 1.401 . S
C2573 C141 1.556 . S
C2605 C9 1.607 . S
C2613 C862 1.395 . S
C2637 C21 1.588 . S
C2645 C958 1.472 . S
C2669 C33 1.518 . S
C2677 C778 1.362 . S
