# Generated by pormake.
# Topology ssa, (4,4)-cn, num edge types: 1
# Building blocks:
#     Node 0, Type 0, BuildingBlock: ESEHIV_clean_sbu_0, # of connection points: 4
#     Node 1, Type 0, BuildingBlock: ESEHIV_clean_sbu_0, # of connection points: 4
#     Node 2, Type 0, BuildingBlock: ESEHIV_clean_sbu_0, # of connection points: 4
#     Node 3, Type 0, BuildingBlock: ESEHIV_clean_sbu_0, # of connection points: 4
#     Node 4, Type 0, BuildingBlock: ESEHIV_clean_sbu_0, # of connection points: 4
#     Node 5, Type 0, BuildingBlock: ESEHIV_clean_sbu_0, # of connection points: 4
#     Node 6, Type 1, BuildingBlock: NAHDIM_clean_linker_0, # of connection points: 4
#     Node 7, Type 1, BuildingBlock: NAHDIM_clean_linker_0, # of connection points: 4
#     Node 8, Type 1, BuildingBlock: NAHDIM_clean_linker_0, # of connection points: 4
#     Node 9, Type 1, BuildingBlock: NAHDIM_clean_linker_0, # of connection points: 4
#     Node 10, Type 1, BuildingBlock: NAHDIM_clean_linker_0, # of connection points: 4
#     Node 11, Type 1, BuildingBlock: NAHDIM_clean_linker_0, # of connection points: 4
#     Edge 12, Type (0, 1), BuildingBlock: AJUNOK_clean_linker_0, # of connection points: 2
#     Edge 13, Type (0, 1), BuildingBlock: AJUNOK_clean_linker_0, # of connection points: 2
#     Edge 14, Type (0, 1), BuildingBlock: AJUNOK_clean_linker_0, # of connection points: 2
#     Edge 15, Type (0, 1), BuildingBlock: AJUNOK_clean_linker_0, # of connection points: 2
#     Edge 16, Type (0, 1), BuildingBlock: AJUNOK_clean_linker_0, # of connection points: 2
#     Edge 17, Type (0, 1), BuildingBlock: AJUNOK_clean_linker_0, # of connection points: 2
#     Edge 18, Type (0, 1), BuildingBlock: AJUNOK_clean_linker_0, # of connection points: 2
#     Edge 19, Type (0, 1), BuildingBlock: AJUNOK_clean_linker_0, # of connection points: 2
#     Edge 20, Type (0, 1), BuildingBlock: AJUNOK_clean_linker_0, # of connection points: 2
#     Edge 21, Type (0, 1), BuildingBlock: AJUNOK_clean_linker_0, # of connection points: 2
#     Edge 22, Type (0, 1), BuildingBlock: AJUNOK_clean_linker_0, # of connection points: 2
#     Edge 23, Type (0, 1), BuildingBlock: AJUNOK_clean_linker_0, # of connection points: 2
#     Edge 24, Type (0, 1), BuildingBlock: AJUNOK_clean_linker_0, # of connection points: 2
#     Edge 25, Type (0, 1), BuildingBlock: AJUNOK_clean_linker_0, # of connection points: 2
#     Edge 26, Type (0, 1), BuildingBlock: AJUNOK_clean_linker_0, # of connection points: 2
#     Edge 27, Type (0, 1), BuildingBlock: AJUNOK_clean_linker_0, # of connection points: 2
#     Edge 28, Type (0, 1), BuildingBlock: AJUNOK_clean_linker_0, # of connection points: 2
#     Edge 29, Type (0, 1), BuildingBlock: AJUNOK_clean_linker_0, # of connection points: 2
#     Edge 30, Type (0, 1), BuildingBlock: AJUNOK_clean_linker_0, # of connection points: 2
#     Edge 31, Type (0, 1), BuildingBlock: AJUNOK_clean_linker_0, # of connection points: 2
#     Edge 32, Type (0, 1), BuildingBlock: AJUNOK_clean_linker_0, # of connection points: 2
#     Edge 33, Type (0, 1), BuildingBlock: AJUNOK_clean_linker_0, # of connection points: 2
#     Edge 34, Type (0, 1), BuildingBlock: AJUNOK_clean_linker_0, # of connection points: 2
#     Edge 35, Type (0, 1), BuildingBlock: AJUNOK_clean_linker_0, # of connection points: 2
# Relax obj value: 0.019
# Max RMSD: 0.108
# Mean RMSD: 0.071
data_MOF--net-ssa--node1-ESEHIV_clean_sbu_0--node2-NAHDIM_clean_linker_0--edge1-AJUNOK_clean_linker_0
_symmetry_space_group_name_H-M    P1
_symmetry_Int_Tables_number       1
_symmetry_cell_setting            triclinic
loop_
_symmetry_equiv_pos_as_xyz
'x, y, z'
_cell_length_a     50.414461
_cell_length_b     53.841911
_cell_length_c     44.835072
_cell_angle_alpha  88.320747
_cell_angle_beta   91.259025
_cell_angle_gamma 122.32541
loop_
_atom_site_label
_atom_site_type_symbol
_atom_site_fract_x
_atom_site_fract_y
_atom_site_fract_z
_atom_type_partial_charge
Cu0 Cu 0.03283 0.51631 1.00107 0.0
N1 N 0.03503 0.4922 0.97344 0.0
N2 N 0.01907 0.45132 0.94811 0.0
C3 C 0.01043 0.46588 0.96544 0.0
C4 C 0.05038 0.46966 0.94462 0.0
C5 C 0.06019 0.49485 0.96034 0.0
O6 O 1.00074 0.52394 0.9878 0.0
C7 C 0.04188 0.48628 0.04665 0.0
O8 O 0.06299 0.48946 0.02768 0.0
H9 H 0.98671 0.4577 0.97249 0.0
H10 H 0.08407 0.51321 0.96304 0.0
N11 N 0.07034 0.55235 0.00502 0.0
N12 N 0.10505 0.59452 0.02677 0.0
C13 C 0.07956 0.56726 0.03058 0.0
C14 C 0.09081 0.57068 0.98419 0.0
C15 C 0.11239 0.59685 0.99762 0.0
C16 C 1.00045 0.52974 0.96008 0.0
O17 O 0.02139 0.53029 0.94269 0.0
H18 H 0.06662 0.55889 0.05122 0.0
H19 H 0.08935 0.56585 0.96075 0.0
O20 O 0.02482 0.49653 0.03984 0.0
H21 H 0.06535 0.46476 0.93253 0.0
H22 H 0.13139 0.61627 0.98666 0.0
Cu23 Cu 0.51109 0.02463 0.50336 0.0
N24 N 0.50673 0.98817 0.49972 0.0
N25 N 0.51881 0.95588 0.48615 0.0
C26 C 0.52119 0.98154 0.47942 0.0
C27 C 0.50201 0.94576 0.51145 0.0
C28 C 0.49459 0.96578 0.51982 0.0
O29 O 0.51805 0.04398 0.46444 0.0
C30 C 0.5746 0.05404 0.52391 0.0
O31 O 0.57978 0.04381 0.49997 0.0
H32 H 0.5353 0.99638 0.46147 0.0
H33 H 0.48297 0.96498 0.54014 0.0
N34 N 0.47746 0.02221 0.52291 0.0
N35 N 0.45201 0.0376 0.54933 0.0
C36 C 0.47824 0.04553 0.53402 0.0
C37 C 0.44987 0.99854 0.5317 0.0
C38 C 0.43409 0.008 0.54805 0.0
C39 C 0.50124 0.03248 0.44123 0.0
O40 O 0.51008 0.04707 0.41568 0.0
H41 H 0.49834 0.0678 0.53193 0.0
H42 H 0.44193 0.97603 0.52691 0.0
O43 O 0.54716 0.04851 0.52858 0.0
H44 H 0.49649 0.92595 0.52366 0.0
H45 H 0.41133 0.99422 0.55832 0.0
Cu46 Cu 0.51602 0.50187 0.03517 0.0
N47 N 0.50432 0.46252 0.03756 0.0
N48 N 0.49504 0.41885 0.02439 0.0
C49 C 0.50616 0.44689 0.01563 0.0
C50 C 0.48558 0.41663 0.05276 0.0
C51 C 0.49135 0.44362 0.06084 0.0
O52 O 0.54185 0.51933 0.99982 0.0
C53 C 0.46574 0.49953 0.06152 0.0
O54 O 0.47978 0.49661 0.08512 0.0
H55 H 0.51497 0.45585 0.99359 0.0
H56 H 0.48647 0.44909 0.08221 0.0
N57 N 0.54072 0.52272 0.06806 0.0
N58 N 0.56268 0.55708 0.10289 0.0
C59 C 0.54741 0.54933 0.07641 0.0
C60 C 0.55235 0.51341 0.08986 0.0
C61 C 0.56579 0.53453 0.11147 0.0
C62 C 0.56613 0.51765 1.00015 0.0
O63 O 0.57144 0.50588 0.02378 0.0
H64 H 0.53963 0.56194 0.06412 0.0
H65 H 0.55024 0.49233 0.09048 0.0
O66 O 0.47749 0.50225 0.03582 0.0
H67 H 0.47571 0.3971 0.06689 0.0
H68 H 0.57649 0.53319 0.13216 0.0
Cu69 Cu 0.01567 0.49702 0.50596 0.0
N70 N 0.01259 0.47298 0.47529 0.0
N71 N 0.02492 0.44487 0.45098 0.0
C72 C 0.03499 0.4674 0.46974 0.0
C73 C 0.99506 0.43633 0.44393 0.0
C74 C 0.98741 0.45359 0.4592 0.0
O75 O 0.05621 0.53409 0.50501 0.0
C76 C 0.02175 0.4625 0.55249 0.0
O77 O 0.04962 0.47158 0.54185 0.0
H78 H 0.058 0.47929 0.48005 0.0
H79 H 0.96465 0.45105 0.4599 0.0
N80 N 0.98611 0.50762 0.50378 0.0
N81 N 0.96207 0.52633 0.5272 0.0
C82 C 0.96964 0.50575 0.52786 0.0
C83 C 0.98799 0.52936 0.48654 0.0
C84 C 0.97295 0.54077 0.50081 0.0
C85 C 0.06865 0.54527 0.47975 0.0
O86 O 0.05568 0.53021 0.45549 0.0
H87 H 0.96616 0.49145 0.54678 0.0
H88 H 0.00278 0.53886 0.46712 0.0
O89 O 0.00621 0.47315 0.54205 0.0
H90 H 0.97932 0.41786 0.43014 0.0
H91 H 0.97327 0.56037 0.49389 0.0
Cu92 Cu 0.55825 0.0222 0.02962 0.0
N93 N 0.55093 0.05266 0.02965 0.0
N94 N 0.53214 0.07961 0.0123 0.0
C95 C 0.54585 0.06486 0.00534 0.0
C96 C 0.52915 0.07725 0.04221 0.0
C97 C 0.54045 0.06033 0.05282 0.0
O98 O 0.57768 0.02323 0.99228 0.0
C99 C 0.51391 0.96209 0.04575 0.0
O100 O 0.53629 0.95736 0.04016 0.0
H101 H 0.55016 0.06144 0.9828 0.0
H102 H 0.53829 0.05188 0.0754 0.0
N103 N 0.58578 0.02603 0.0602 0.0
N104 N 0.61333 0.01324 0.0891 0.0
C105 C 0.5987 0.00975 0.06265 0.0
C106 C 0.59312 0.04093 0.08577 0.0
C107 C 0.61025 0.03309 0.10366 0.0
C108 C 0.56588 0.02011 0.96626 0.0
O109 O 0.53632 0.01192 0.9632 0.0
H110 H 0.59661 0.99512 0.04553 0.0
H111 H 0.58543 0.05539 0.09165 0.0
O112 O 0.518 0.98695 0.0388 0.0
H113 H 0.51703 0.08487 0.05508 0.0
H114 H 0.6182 0.04018 0.12622 0.0
Cu115 Cu 0.47198 0.49041 0.52518 0.0
N116 N 0.47556 0.52632 0.52937 0.0
N117 N 0.49339 0.57345 0.51907 0.0
C118 C 0.4885 0.54809 0.50866 0.0
C119 C 0.48282 0.56737 0.54735 0.0
C120 C 0.47216 0.53829 0.5538 0.0
O121 O 0.45683 0.4772 0.48483 0.0
C122 C 0.52213 0.50032 0.56055 0.0
O123 O 0.5017 0.49528 0.58126 0.0
H124 H 0.49536 0.54561 0.48678 0.0
H125 H 0.46442 0.52731 0.5753 0.0
N126 N 0.44395 0.46173 0.55235 0.0
N127 N 0.41821 0.41899 0.57761 0.0
C128 C 0.44069 0.4355 0.55739 0.0
C129 C 0.42273 0.46186 0.56994 0.0
C130 C 0.40689 0.43552 0.58566 0.0
C131 C 0.42731 0.46355 0.48015 0.0
O132 O 0.40853 0.45842 0.5025 0.0
H133 H 0.4544 0.4287 0.54604 0.0
H134 H 0.41866 0.47958 0.57096 0.0
O135 O 0.5138 0.4982 0.53323 0.0
H136 H 0.48449 0.58327 0.56277 0.0
H137 H 0.38873 0.4294 0.60182 0.0
C138 C 0.06893 0.35427 0.43159 0.0
C139 C 0.08798 0.38534 0.41799 0.0
C140 C 0.11565 0.39422 0.37115 0.0
C141 C 0.14139 0.42298 0.37488 0.0
C142 C 0.16805 0.43441 0.35675 0.0
C143 C 0.16903 0.41644 0.33489 0.0
C144 C 0.14334 0.38709 0.33184 0.0
C145 C 0.11668 0.37666 0.34954 0.0
C146 C 0.19479 0.46584 0.36045 0.0
C147 C 0.14376 0.36676 0.30961 0.0
C148 C 0.37928 0.42089 0.34107 0.0
C149 C 0.36287 0.42779 0.36481 0.0
C150 C 0.33198 0.44664 0.34182 0.0
C151 C 0.30774 0.41997 0.32986 0.0
C152 C 0.28054 0.4175 0.3176 0.0
C153 C 0.27764 0.44223 0.3169 0.0
C154 C 0.30227 0.46925 0.32825 0.0
C155 C 0.32916 0.4711 0.34044 0.0
C156 C 0.25485 0.38844 0.30539 0.0
C157 C 0.30006 0.49612 0.32766 0.0
C158 C 0.30896 0.47807 0.12238 0.0
C159 C 0.27985 0.45129 0.12122 0.0
C160 C 0.25531 0.44554 0.14023 0.0
C161 C 0.25935 0.46768 0.1596 0.0
C162 C 0.28754 0.49574 0.15848 0.0
C163 C 0.31213 0.50037 0.1402 0.0
C164 C 0.22543 0.4155 0.14012 0.0
C165 C 0.29223 0.5206 0.17728 0.0
C166 C 0.01195 0.41523 0.17449 0.0
C167 C 0.04513 0.43543 0.16235 0.0
C168 C 0.08985 0.42847 0.16574 0.0
C169 C 0.09725 0.40692 0.16742 0.0
C170 C 0.12775 0.41403 0.1744 0.0
C171 C 0.15154 0.4436 0.17991 0.0
C172 C 0.14467 0.46583 0.17673 0.0
C173 C 0.11388 0.45809 0.16947 0.0
C174 C 0.13422 0.38972 0.17706 0.0
C175 C 0.16964 0.49757 0.18207 0.0
C176 C 0.19593 0.42859 0.31399 0.0
C177 C 0.22374 0.43113 0.32401 0.0
C178 C 0.24872 0.43982 0.30456 0.0
C179 C 0.24573 0.44555 0.27404 0.0
C180 C 0.2696 0.45274 0.25351 0.0
C181 C 0.26606 0.45758 0.2234 0.0
C182 C 0.23879 0.45612 0.2127 0.0
C183 C 0.23489 0.46097 0.18206 0.0
C184 C 0.2068 0.45809 0.17218 0.0
C185 C 0.18242 0.45045 0.19204 0.0
C186 C 0.18642 0.44657 0.22279 0.0
C187 C 0.16271 0.43973 0.24342 0.0
C188 C 0.16608 0.4345 0.27337 0.0
C189 C 0.19317 0.43562 0.28388 0.0
C190 C 0.2179 0.4436 0.26373 0.0
C191 C 0.21451 0.44906 0.23309 0.0
C192 C 0.3368 0.44 0.11914 0.0
C193 C 0.33985 0.46264 0.0953 0.0
O194 O 0.08912 0.3831 0.38739 0.0
O195 O 0.05928 0.4194 0.16071 0.0
O196 O 0.33463 0.48318 0.10729 0.0
O197 O 0.3584 0.44989 0.35462 0.0
H198 H 0.11206 0.39621 0.42783 0.0
H199 H 0.07991 0.34181 0.42592 0.0
H200 H 0.0445 0.34239 0.42272 0.0
H201 H 0.06827 0.35497 0.45629 0.0
H202 H 0.14024 0.43671 0.39134 0.0
H203 H 0.09659 0.35449 0.34687 0.0
H204 H 0.21617 0.46627 0.36791 0.0
H205 H 0.18949 0.47754 0.37699 0.0
H206 H 0.20014 0.4779 0.33869 0.0
H207 H 0.12528 0.3434 0.31432 0.0
H208 H 0.16696 0.36897 0.30974 0.0
H209 H 0.13957 0.37268 0.28685 0.0
H210 H 0.33982 0.40726 0.36937 0.0
H211 H 0.38396 0.40405 0.34978 0.0
H212 H 0.36399 0.41205 0.32101 0.0
H213 H 0.40177 0.44086 0.33412 0.0
H214 H 0.30988 0.40104 0.32976 0.0
H215 H 0.34805 0.49166 0.34937 0.0
H216 H 0.23269 0.38064 0.31755 0.0
H217 H 0.26069 0.37128 0.30737 0.0
H218 H 0.25052 0.3913 0.28152 0.0
H219 H 0.32129 0.51555 0.33727 0.0
H220 H 0.27921 0.49148 0.34045 0.0
H221 H 0.29685 0.50155 0.30431 0.0
H222 H 0.32246 0.45099 0.07711 0.0
H223 H 0.2764 0.43451 0.10607 0.0
H224 H 0.33435 0.52131 0.14034 0.0
H225 H 0.21874 0.4066 0.16326 0.0
H226 H 0.22766 0.39961 0.12685 0.0
H227 H 0.2061 0.41732 0.13037 0.0
H228 H 0.31167 0.54226 0.16876 0.0
H229 H 0.29816 0.51746 0.20049 0.0
H230 H 0.27044 0.52097 0.1779 0.0
H231 H 0.05788 0.45344 0.17859 0.0
H232 H 1.00015 0.42758 0.17669 0.0
H233 H 0.01305 0.40644 0.1969 0.0
H234 H 0.99773 0.39644 0.15945 0.0
H235 H 0.0787 0.38421 0.16399 0.0
H236 H 0.10879 0.47518 0.16711 0.0
H237 H 0.13891 0.38674 0.20078 0.0
H238 H 0.15544 0.39568 0.16414 0.0
H239 H 0.11419 0.36845 0.16896 0.0
H240 H 0.16107 0.51249 0.17731 0.0
H241 H 0.19028 0.50437 0.16784 0.0
H242 H 0.17765 0.50012 0.20568 0.0
H243 H 0.22577 0.4258 0.34714 0.0
H244 H 0.29115 0.45428 0.2604 0.0
H245 H 0.285 0.4624 0.20864 0.0
H246 H 0.20353 0.46098 0.14863 0.0
H247 H 0.14115 0.4382 0.23666 0.0
H248 H 0.14699 0.4293 0.28813 0.0
H249 H 0.35142 0.45124 0.13908 0.0
H250 H 0.34448 0.4259 0.10996 0.0
H251 H 0.31223 0.42511 0.12645 0.0
C252 C 0.94925 0.31219 0.92153 0.0
C253 C 0.94387 0.33284 0.90164 0.0
C254 C 0.89026 0.30335 0.88093 0.0
C255 C 0.89528 0.28498 0.86343 0.0
C256 C 0.87182 0.26475 0.8441 0.0
C257 C 0.84315 0.2636 0.84126 0.0
C258 C 0.83796 0.28197 0.85889 0.0
C259 C 0.86146 0.30129 0.8788 0.0
C260 C 0.87789 0.24479 0.82652 0.0
C261 C 0.80781 0.28153 0.85637 0.0
C262 C 0.6481 0.04933 0.84291 0.0
C263 C 0.65778 0.0699 0.8694 0.0
C264 C 0.68877 0.12027 0.8477 0.0
C265 C 0.6886 0.14577 0.84141 0.0
C266 C 0.71479 0.17097 0.82883 0.0
C267 C 0.74195 0.17067 0.8223 0.0
C268 C 0.74231 0.14491 0.82837 0.0
C269 C 0.71574 0.11995 0.84091 0.0
C270 C 0.7135 0.198 0.8226 0.0
C271 C 0.77084 0.14382 0.82156 0.0
C272 C 0.72038 0.15615 0.62539 0.0
C273 C 0.71471 0.17664 0.63733 0.0
C274 C 0.73701 0.19892 0.65588 0.0
C275 C 0.76539 0.20046 0.66276 0.0
C276 C 0.77173 0.1806 0.64958 0.0
C277 C 0.74919 0.15885 0.6307 0.0
C278 C 0.72996 0.22035 0.66871 0.0
C279 C 0.80186 0.1818 0.65618 0.0
C280 C 0.98257 0.4093 0.61807 0.0
C281 C 0.96578 0.38234 0.63766 0.0
C282 C 0.91329 0.35034 0.65924 0.0
C283 C 0.88486 0.34779 0.66531 0.0
C284 C 0.85919 0.32145 0.67675 0.0
C285 C 0.86211 0.29701 0.68234 0.0
C286 C 0.89083 0.29939 0.67628 0.0
C287 C 0.91618 0.32604 0.66489 0.0
C288 C 0.82894 0.31972 0.68293 0.0
C289 C 0.89471 0.27373 0.68194 0.0
C290 C 0.81914 0.24388 0.81911 0.0
C291 C 0.79275 0.21762 0.82941 0.0
C292 C 0.77009 0.1975 0.80958 0.0
C293 C 0.77424 0.20331 0.77846 0.0
C294 C 0.75274 0.18305 0.75778 0.0
C295 C 0.75717 0.18887 0.72722 0.0
C296 C 0.78301 0.21542 0.71612 0.0
C297 C 0.78755 0.22165 0.68509 0.0
C298 C 0.81345 0.24828 0.67484 0.0
C299 C 0.83519 0.26907 0.69479 0.0
C300 C 0.83105 0.26318 0.72589 0.0
C301 C 0.85236 0.28357 0.74659 0.0
C302 C 0.84834 0.27744 0.7771 0.0
C303 C 0.82289 0.25063 0.78815 0.0
C304 C 0.80066 0.23005 0.76775 0.0
C305 C 0.80489 0.23623 0.73656 0.0
C306 C 0.66759 0.08928 0.63802 0.0
C307 C 0.66801 0.11348 0.6188 0.0
O308 O 0.91223 0.32304 0.90022 0.0
O309 O 0.93704 0.37639 0.64772 0.0
O310 O 0.69826 0.13341 0.60899 0.0
O311 O 0.6625 0.0968 0.86012 0.0
H312 H 0.95251 0.33337 0.87884 0.0
H313 H 0.93734 0.28991 0.91204 0.0
H314 H 0.93993 0.30996 0.9443 0.0
H315 H 0.97474 0.32073 0.92322 0.0
H316 H 0.9173 0.28607 0.86477 0.0
H317 H 0.85768 0.3154 0.89245 0.0
H318 H 0.85697 0.222 0.82678 0.0
H319 H 0.89837 0.24434 0.83541 0.0
H320 H 0.88271 0.25268 0.80295 0.0
H321 H 0.80868 0.29918 0.86941 0.0
H322 H 0.78806 0.25998 0.86469 0.0
H323 H 0.80278 0.28411 0.83264 0.0
H324 H 0.67996 0.07328 0.8791 0.0
H325 H 0.64397 0.02771 0.8505 0.0
H326 H 0.66697 0.05885 0.82598 0.0
H327 H 0.62637 0.04585 0.83208 0.0
H328 H 0.66776 0.14588 0.84653 0.0
H329 H 0.71636 0.10041 0.84521 0.0
H330 H 0.71742 0.20395 0.79847 0.0
H331 H 0.73256 0.21682 0.83511 0.0
H332 H 0.69065 0.19474 0.82895 0.0
H333 H 0.76737 0.12204 0.82716 0.0
H334 H 0.79135 0.16089 0.83439 0.0
H335 H 0.77655 0.14881 0.7975 0.0
H336 H 0.65984 0.12464 0.63307 0.0
H337 H 0.69281 0.17516 0.63223 0.0
H338 H 0.75345 0.14312 0.62095 0.0
H339 H 0.72626 0.21623 0.69311 0.0
H340 H 0.70865 0.21839 0.6585 0.0
H341 H 0.75019 0.24324 0.66528 0.0
H342 H 0.80296 0.16441 0.6446 0.0
H343 H 0.80421 0.17926 0.68059 0.0
H344 H 0.82217 0.20358 0.6491 0.0
H345 H 0.98029 0.38065 0.65577 0.0
H346 H 0.00457 0.42499 0.63078 0.0
H347 H 0.97105 0.42207 0.62146 0.0
H348 H 0.98347 0.39282 0.57671 0.0
H349 H 0.88279 0.36659 0.66086 0.0
H350 H 0.93812 0.32773 0.66049 0.0
H351 H 0.8228 0.31402 0.70684 0.0
H352 H 0.80959 0.30198 0.66959 0.0
H353 H 0.83046 0.34071 0.67751 0.0
H354 H 0.91832 0.27886 0.67557 0.0
H355 H 0.87668 0.25452 0.66911 0.0
H356 H 0.89097 0.26729 0.70596 0.0
H357 H 0.78985 0.21274 0.8532 0.0
H358 H 0.73236 0.16233 0.76499 0.0
H359 H 0.73997 0.17228 0.71241 0.0
H360 H 0.81672 0.2529 0.65103 0.0
H361 H 0.87248 0.3045 0.73944 0.0
H362 H 0.86551 0.29404 0.79192 0.0
H363 H 0.64335 0.073 0.64569 0.0
H364 H 0.68279 0.09903 0.65802 0.0
H365 H 0.67641 0.07776 0.62532 0.0
C366 C 0.58737 0.71046 0.48555 0.0
C367 C 0.56025 0.69035 0.46464 0.0
C368 C 0.56981 0.70659 0.41293 0.0
C369 C 0.54066 0.70108 0.40296 0.0
C370 C 0.53878 0.71808 0.37967 0.0
C371 C 0.56673 0.74135 0.36654 0.0
C372 C 0.59614 0.74622 0.376 0.0
C373 C 0.59719 0.72828 0.39874 0.0
C374 C 0.50699 0.71173 0.36972 0.0
C375 C 0.62653 0.77116 0.36308 0.0
C376 C 0.53095 0.90296 0.44661 0.0
C377 C 0.54425 0.88687 0.43324 0.0
C378 C 0.54334 0.86352 0.38744 0.0
C379 C 0.57219 0.86559 0.39104 0.0
C380 C 0.57897 0.84783 0.37468 0.0
C381 C 0.55599 0.82679 0.35507 0.0
C382 C 0.52688 0.82476 0.35137 0.0
C383 C 0.52136 0.84378 0.36702 0.0
C384 C 0.61061 0.85135 0.37874 0.0
C385 C 0.5012 0.80202 0.33159 0.0
C386 C 0.59542 0.88503 0.16585 0.0
C387 C 0.62106 0.88769 0.18187 0.0
C388 C 0.61844 0.86335 0.19716 0.0
C389 C 0.58943 0.83599 0.19693 0.0
C390 C 0.56394 0.83303 0.17996 0.0
C391 C 0.56743 0.85759 0.16436 0.0
C392 C 0.64645 0.86708 0.21422 0.0
C393 C 0.53274 0.80419 0.17909 0.0
C394 C 0.63358 0.67294 0.18209 0.0
C395 C 0.59863 0.65892 0.17472 0.0
C396 C 0.5913 0.69969 0.17589 0.0
C397 C 0.61838 0.72686 0.18219 0.0
C398 C 0.61657 0.74836 0.19737 0.0
C399 C 0.58685 0.74278 0.20559 0.0
C400 C 0.55933 0.71555 0.19838 0.0
C401 C 0.56195 0.69422 0.18375 0.0
C402 C 0.64642 0.77708 0.20449 0.0
C403 C 0.52717 0.70911 0.20584 0.0
C404 C 0.56548 0.76254 0.34551 0.0
C405 C 0.56083 0.78349 0.35775 0.0
C406 C 0.56163 0.8057 0.3401 0.0
C407 C 0.5677 0.80736 0.30921 0.0
C408 C 0.57041 0.83026 0.291 0.0
C409 C 0.57592 0.83148 0.26058 0.0
C410 C 0.57922 0.80997 0.24719 0.0
C411 C 0.5851 0.81124 0.2163 0.0
C412 C 0.58733 0.78904 0.20352 0.0
C413 C 0.58452 0.76572 0.22089 0.0
C414 C 0.57972 0.76466 0.25205 0.0
C415 C 0.57798 0.74223 0.27048 0.0
C416 C 0.57318 0.74139 0.30108 0.0
C417 C 0.56998 0.76295 0.31443 0.0
C418 C 0.57139 0.78563 0.29626 0.0
C419 C 0.57673 0.78672 0.26513 0.0
C420 C 0.61279 0.95795 0.13878 0.0
C421 C 0.61899 0.93772 0.15651 0.0
O422 O 0.57202 0.69156 0.4366 0.0
O423 O 0.5933 0.67926 0.1609 0.0
O424 O 0.59661 0.9083 0.15181 0.0
O425 O 0.53594 0.87996 0.40355 0.0
H426 H 0.54423 0.69871 0.46351 0.0
H427 H 0.59962 0.73345 0.47675 0.0
H428 H 0.60462 0.70363 0.4874 0.0
H429 H 0.57837 0.70988 0.50813 0.0
H430 H 0.51947 0.68368 0.41365 0.0
H431 H 0.61953 0.73205 0.40655 0.0
H432 H 0.50348 0.72892 0.37826 0.0
H433 H 0.48766 0.68998 0.37816 0.0
H434 H 0.50556 0.71235 0.34498 0.0
H435 H 0.64742 0.7735 0.37471 0.0
H436 H 0.62753 0.7922 0.36457 0.0
H437 H 0.6278 0.76729 0.33914 0.0
H438 H 0.5411 0.86777 0.44683 0.0
H439 H 0.5141 0.88743 0.46411 0.0
H440 H 0.51204 0.90063 0.43087 0.0
H441 H 0.5708 0.94364 0.45694 0.0
H442 H 0.58958 0.88121 0.40642 0.0
H443 H 0.49921 0.84244 0.36432 0.0
H444 H 0.60799 0.83288 0.39285 0.0
H445 H 0.62783 0.87226 0.38977 0.0
H446 H 0.62019 0.85073 0.35689 0.0
H447 H 0.47829 0.79972 0.3355 0.0
H448 H 0.49835 0.78024 0.33537 0.0
H449 H 0.50752 0.80853 0.30786 0.0
H450 H 0.62421 0.94297 0.18065 0.0
H451 H 0.6431 0.9087 0.18263 0.0
H452 H 0.54791 0.85569 0.15165 0.0
H453 H 0.6423 0.86642 0.23852 0.0
H454 H 0.66839 0.88826 0.20859 0.0
H455 H 0.64975 0.84877 0.2095 0.0
H456 H 0.515 0.80567 0.16536 0.0
H457 H 0.52361 0.79698 0.20211 0.0
H458 H 0.53585 0.78703 0.16977 0.0
H459 H 0.5853 0.65114 0.19603 0.0
H460 H 0.63809 0.65607 0.19109 0.0
H461 H 0.64099 0.68978 0.19942 0.0
H462 H 0.64807 0.68349 0.16185 0.0
H463 H 0.64094 0.73121 0.17519 0.0
H464 H 0.54112 0.67328 0.17821 0.0
H465 H 0.64684 0.78226 0.22836 0.0
H466 H 0.64731 0.79508 0.19091 0.0
H467 H 0.66772 0.77666 0.19975 0.0
H468 H 0.50811 0.68831 0.19594 0.0
H469 H 0.52461 0.72741 0.19768 0.0
H470 H 0.52424 0.70734 0.23042 0.0
H471 H 0.55683 0.78268 0.38155 0.0
H472 H 0.56832 0.84755 0.30007 0.0
H473 H 0.5775 0.84955 0.24771 0.0
H474 H 0.59146 0.79001 0.17974 0.0
H475 H 0.5804 0.72512 0.26146 0.0
H476 H 0.57194 0.72359 0.31418 0.0
H477 H 0.60778 0.96983 0.15585 0.0
H478 H 0.58777 0.94447 0.13053 0.0
H479 H 0.65099 0.97959 0.11008 0.0
C480 C 0.69385 0.58893 0.92846 0.0
C481 C 0.6641 0.56976 0.90952 0.0
C482 C 0.68863 0.55339 0.87423 0.0
C483 C 0.70947 0.58069 0.86039 0.0
C484 C 0.73406 0.58452 0.84259 0.0
C485 C 0.73688 0.5602 0.83739 0.0
C486 C 0.71467 0.53228 0.84982 0.0
C487 C 0.69096 0.52934 0.86821 0.0
C488 C 0.75733 0.61465 0.82978 0.0
C489 C 0.71624 0.50561 0.84413 0.0
C490 C 0.95403 0.6023 0.88701 0.0
C491 C 0.92872 0.57584 0.90537 0.0
C492 C 0.8822 0.55966 0.87263 0.0
C493 C 0.86083 0.53706 0.85413 0.0
C494 C 0.83808 0.53907 0.8376 0.0
C495 C 0.83757 0.56512 0.83859 0.0
C496 C 0.85882 0.58796 0.85773 0.0
C497 C 0.88038 0.58468 0.87512 0.0
C498 C 0.81459 0.51315 0.81928 0.0
C499 C 0.8589 0.61593 0.85985 0.0
C500 C 0.88575 0.57747 0.63716 0.0
C501 C 0.86624 0.55108 0.65289 0.0
C502 C 0.84314 0.54828 0.67216 0.0
C503 C 0.84009 0.57266 0.67613 0.0
C504 C 0.86039 0.59953 0.66072 0.0
C505 C 0.8826 0.60138 0.64096 0.0
C506 C 0.82146 0.51908 0.68759 0.0
C507 C 0.85825 0.62614 0.66466 0.0
C508 C 0.64819 0.57996 0.62904 0.0
C509 C 0.64886 0.55739 0.60931 0.0
C510 C 0.68102 0.54489 0.64114 0.0
C511 C 0.67999 0.52265 0.65889 0.0
C512 C 0.70625 0.52757 0.67547 0.0
C513 C 0.73398 0.55599 0.67524 0.0
C514 C 0.73541 0.57853 0.65685 0.0
C515 C 0.7092 0.57253 0.63942 0.0
C516 C 0.70413 0.50227 0.69317 0.0
C517 C 0.7646 0.60902 0.65541 0.0
C518 C 0.76352 0.56398 0.81979 0.0
C519 C 0.78849 0.56517 0.83543 0.0
C520 C 0.81396 0.56774 0.82051 0.0
C521 C 0.81506 0.57008 0.78894 0.0
C522 C 0.84109 0.57451 0.77312 0.0
C523 C 0.8411 0.57493 0.74203 0.0
C524 C 0.81493 0.57062 0.72559 0.0
C525 C 0.81392 0.56939 0.69407 0.0
C526 C 0.78731 0.56467 0.67855 0.0
C527 C 0.76174 0.56184 0.69344 0.0
C528 C 0.7626 0.56367 0.72493 0.0
C529 C 0.73771 0.5617 0.74069 0.0
C530 C 0.73802 0.56196 0.77173 0.0
C531 C 0.76345 0.56464 0.78822 0.0
C532 C 0.78929 0.56764 0.77277 0.0
C533 C 0.789 0.56744 0.74107 0.0
C534 C 0.96104 0.60591 0.62992 0.0
C535 C 0.93122 0.57585 0.62444 0.0
O536 O 0.66612 0.54909 0.89362 0.0
O537 O 0.65428 0.53861 0.62642 0.0
O538 O 0.90691 0.57992 0.61728 0.0
O539 O 0.90396 0.55617 0.88734 0.0
H540 H 0.6607 0.58407 0.89357 0.0
H541 H 0.71434 0.60391 0.91436 0.0
H542 H 0.69973 0.57503 0.94228 0.0
H543 H 0.69025 0.60294 0.94346 0.0
H544 H 0.70687 0.59911 0.86368 0.0
H545 H 0.67438 0.50821 0.87852 0.0
H546 H 0.78166 0.62076 0.8353 0.0
H547 H 0.75373 0.6318 0.8383 0.0
H548 H 0.75502 0.61439 0.80511 0.0
H549 H 0.69486 0.48491 0.85191 0.0
H550 H 0.73689 0.50776 0.85604 0.0
H551 H 0.71927 0.50401 0.81994 0.0
H552 H 0.91969 0.58378 0.92274 0.0
H553 H 0.97444 0.61693 0.9015 0.0
H554 H 0.9451 0.61561 0.87726 0.0
H555 H 0.96227 0.59495 0.86843 0.0
H556 H 0.86196 0.51757 0.85277 0.0
H557 H 0.89576 0.60183 0.89035 0.0
H558 H 0.82172 0.51749 0.79552 0.0
H559 H 0.79079 0.50951 0.82075 0.0
H560 H 0.81327 0.49263 0.8266 0.0
H561 H 0.88032 0.6335 0.87126 0.0
H562 H 0.83813 0.6114 0.87267 0.0
H563 H 0.85733 0.62413 0.83727 0.0
H564 H 0.92577 0.56231 0.64533 0.0
H565 H 0.8685 0.53247 0.64934 0.0
H566 H 0.89779 0.62161 0.62852 0.0
H567 H 0.82501 0.52148 0.7121 0.0
H568 H 0.82552 0.50177 0.68054 0.0
H569 H 0.79663 0.51172 0.68277 0.0
H570 H 0.87891 0.64647 0.65524 0.0
H571 H 0.85628 0.62938 0.68867 0.0
H572 H 0.83685 0.62263 0.65313 0.0
H573 H 0.66771 0.56901 0.59242 0.0
H574 H 0.6425 0.59405 0.61528 0.0
H575 H 0.67118 0.59463 0.63996 0.0
H576 H 0.63027 0.56867 0.64679 0.0
H577 H 0.65837 0.50121 0.65967 0.0
H578 H 0.71095 0.58965 0.62478 0.0
H579 H 0.70044 0.50431 0.71704 0.0
H580 H 0.72618 0.50246 0.69143 0.0
H581 H 0.68424 0.48071 0.68551 0.0
H582 H 0.75971 0.62539 0.64563 0.0
H583 H 0.78215 0.60873 0.64118 0.0
H584 H 0.77513 0.61629 0.67794 0.0
H585 H 0.78764 0.56325 0.8596 0.0
H586 H 0.86167 0.5775 0.78465 0.0
H587 H 0.86165 0.57816 0.73102 0.0
H588 H 0.78645 0.5631 0.65443 0.0
H589 H 0.71751 0.5596 0.72922 0.0
H590 H 0.7179 0.55976 0.78264 0.0
H591 H 0.96748 0.62011 0.60949 0.0
H592 H 0.98094 0.6035 0.63647 0.0
H593 H 0.95708 0.61694 0.64829 0.0
C594 C 0.18208 0.6861 0.47182 0.0
C595 C 0.1563 0.66876 0.44855 0.0
C596 C 0.18591 0.69375 0.40263 0.0
C597 C 0.18059 0.71685 0.40076 0.0
C598 C 0.19803 0.74092 0.38105 0.0
C599 C 0.2219 0.74234 0.36353 0.0
C600 C 0.22721 0.71899 0.36547 0.0
C601 C 0.20854 0.69472 0.38441 0.0
C602 C 0.19111 0.76494 0.37925 0.0
C603 C 0.25316 0.71986 0.34831 0.0
C604 C 0.36492 0.90969 0.47201 0.0
C605 C 0.38445 0.91692 0.44366 0.0
C606 C 0.34931 0.89292 0.4006 0.0
C607 C 0.35696 0.87199 0.39453 0.0
C608 C 0.33774 0.84827 0.37586 0.0
C609 C 0.31059 0.8456 0.36272 0.0
C610 C 0.3035 0.86722 0.36788 0.0
C611 C 0.32313 0.89072 0.38657 0.0
C612 C 0.3463 0.8259 0.37028 0.0
C613 C 0.27484 0.86516 0.35406 0.0
C614 C 0.37828 0.8729 0.16497 0.0
C615 C 0.37889 0.85245 0.18482 0.0
C616 C 0.35334 0.83417 0.20348 0.0
C617 C 0.32666 0.8365 0.20263 0.0
C618 C 0.3262 0.85745 0.18319 0.0
C619 C 0.35197 0.87527 0.16453 0.0
C620 C 0.35454 0.81174 0.22352 0.0
C621 C 0.29822 0.86061 0.18167 0.0
C622 C 0.11078 0.66886 0.13593 0.0
C623 C 0.14206 0.67887 0.12082 0.0
C624 C 0.18201 0.69973 0.16083 0.0
C625 C 0.20406 0.69644 0.17688 0.0
C626 C 0.22538 0.71804 0.19661 0.0
C627 C 0.22415 0.74334 0.20078 0.0
C628 C 0.20131 0.74646 0.18531 0.0
C629 C 0.18061 0.72477 0.16537 0.0
C630 C 0.24972 0.71419 0.21243 0.0
C631 C 0.19921 0.7731 0.18939 0.0
C632 C 0.24312 0.76919 0.3452 0.0
C633 C 0.26544 0.79443 0.3603 0.0
C634 C 0.28866 0.81942 0.34491 0.0
C635 C 0.29072 0.81898 0.31354 0.0
C636 C 0.31527 0.84281 0.29754 0.0
C637 C 0.31777 0.84159 0.26679 0.0
C638 C 0.29539 0.81681 0.25083 0.0
C639 C 0.29817 0.81492 0.21975 0.0
C640 C 0.27449 0.79071 0.2044 0.0
C641 C 0.24837 0.76777 0.2192 0.0
C642 C 0.24602 0.76843 0.25051 0.0
C643 C 0.22086 0.74509 0.2664 0.0
C644 C 0.21967 0.74535 0.29741 0.0
C645 C 0.24324 0.76926 0.31361 0.0
C646 C 0.26775 0.79386 0.29784 0.0
C647 C 0.26962 0.79311 0.26635 0.0
C648 C 0.45214 0.91181 0.17068 0.0
C649 C 0.43128 0.89355 0.14451 0.0
O650 O 0.16981 0.67008 0.42141 0.0
O651 O 0.16284 0.67839 0.14128 0.0
O652 O 0.40218 0.89051 0.14585 0.0
O653 O 0.36673 0.9159 0.41907 0.0
H654 H 0.14149 0.67826 0.44588 0.0
H655 H 0.1969 0.70955 0.46464 0.0
H656 H 0.19727 0.67701 0.47461 0.0
H657 H 0.17168 0.6852 0.49371 0.0
H658 H 0.16273 0.71619 0.41428 0.0
H659 H 0.21234 0.67672 0.3859 0.0
H660 H 0.20953 0.78426 0.39166 0.0
H661 H 0.16799 0.75779 0.38912 0.0
H662 H 0.19137 0.77208 0.35571 0.0
H663 H 0.25813 0.70316 0.35683 0.0
H664 H 0.27515 0.74189 0.34953 0.0
H665 H 0.2462 0.71537 0.3245 0.0
H666 H 0.39051 0.89996 0.44297 0.0
H667 H 0.37968 0.91352 0.49223 0.0
H668 H 0.34558 0.88616 0.47209 0.0
H669 H 0.35414 0.92302 0.47292 0.0
H670 H 0.378 0.87408 0.4038 0.0
H671 H 0.31771 0.90723 0.39089 0.0
H672 H 0.34775 0.82374 0.34591 0.0
H673 H 0.32764 0.80408 0.37923 0.0
H674 H 0.36903 0.83183 0.38087 0.0
H675 H 0.27284 0.884 0.35989 0.0
H676 H 0.2534 0.84446 0.36172 0.0
H677 H 0.27573 0.8644 0.3294 0.0
H678 H 0.42807 0.87144 0.14562 0.0
H679 H 0.39895 0.85021 0.18568 0.0
H680 H 0.35161 0.89109 0.14929 0.0
H681 H 0.35378 0.81674 0.24721 0.0
H682 H 0.37611 0.8114 0.22019 0.0
H683 H 0.33377 0.78944 0.21932 0.0
H684 H 0.30331 0.88068 0.16892 0.0
H685 H 0.29062 0.8614 0.20451 0.0
H686 H 0.27836 0.84117 0.17061 0.0
H687 H 0.15228 0.70159 0.1117 0.0
H688 H 0.09412 0.66918 0.11951 0.0
H689 H 0.11425 0.68369 0.15431 0.0
H690 H 0.10013 0.64623 0.14546 0.0
H691 H 0.20494 0.67705 0.17339 0.0
H692 H 0.16363 0.72774 0.15341 0.0
H693 H 0.24699 0.7141 0.23694 0.0
H694 H 0.27359 0.73299 0.20676 0.0
H695 H 0.24789 0.69345 0.20641 0.0
H696 H 0.17809 0.77081 0.17833 0.0
H697 H 0.22038 0.79283 0.17982 0.0
H698 H 0.19864 0.77689 0.21352 0.0
H699 H 0.26509 0.79447 0.38449 0.0
H700 H 0.33317 0.86241 0.30873 0.0
H701 H 0.33741 0.86032 0.25562 0.0
H702 H 0.27664 0.78948 0.18052 0.0
H703 H 0.20215 0.72608 0.25506 0.0
H704 H 0.20009 0.72659 0.3086 0.0
H705 H 0.47547 0.91435 0.16956 0.0
H706 H 0.44137 0.9009 0.19232 0.0
H707 H 0.4555 0.93397 0.17015 0.0
C708 C 0.39191 0.1053 0.60576 0.0
C709 C 0.42537 0.11396 0.61413 0.0
C710 C 0.43331 0.13265 0.66392 0.0
C711 C 0.46168 0.15997 0.66311 0.0
C712 C 0.46665 0.18276 0.68156 0.0
C713 C 0.44245 0.17819 0.70084 0.0
C714 C 0.41407 0.15025 0.70221 0.0
C715 C 0.41012 0.12764 0.68406 0.0
C716 C 0.49747 0.21194 0.67986 0.0
C717 C 0.38743 0.14457 0.72196 0.0
C718 C 0.41558 0.36373 0.63002 0.0
C719 C 0.40866 0.33666 0.64683 0.0
C720 C 0.43557 0.31244 0.66509 0.0
C721 C 0.40843 0.28694 0.67604 0.0
C722 C 0.41051 0.2651 0.69179 0.0
C723 C 0.44025 0.26885 0.69663 0.0
C724 C 0.46745 0.29404 0.68483 0.0
C725 C 0.4647 0.3155 0.66918 0.0
C726 C 0.38105 0.2383 0.70381 0.0
C727 C 0.49949 0.29855 0.68932 0.0
C728 C 0.46961 0.32558 0.89683 0.0
C729 C 0.44109 0.29861 0.89344 0.0
C730 C 0.43842 0.27758 0.87372 0.0
C731 C 0.46491 0.28355 0.85723 0.0
C732 C 0.49329 0.31129 0.8596 0.0
C733 C 0.49509 0.33217 0.87904 0.0
C734 C 0.40752 0.24861 0.87115 0.0
C735 C 0.52209 0.31839 0.84254 0.0
C736 C 0.44113 0.11903 0.95848 0.0
C737 C 0.46533 0.1191 0.93811 0.0
C738 C 0.48123 0.16171 0.90423 0.0
C739 C 0.45197 0.15071 0.89003 0.0
C740 C 0.44736 0.16818 0.86932 0.0
C741 C 0.47303 0.19654 0.86136 0.0
C742 C 0.50299 0.20678 0.87416 0.0
C743 C 0.5065 0.1894 0.89577 0.0
C744 C 0.4148 0.15659 0.85682 0.0
C745 C 0.53119 0.23651 0.86579 0.0
C746 C 0.44571 0.20327 0.71744 0.0
C747 C 0.44153 0.2236 0.70132 0.0
C748 C 0.44322 0.24725 0.71532 0.0
C749 C 0.44832 0.25049 0.74647 0.0
C750 C 0.44897 0.27346 0.76139 0.0
C751 C 0.45387 0.27645 0.79208 0.0
C752 C 0.45872 0.25682 0.80897 0.0
C753 C 0.46384 0.25973 0.84015 0.0
C754 C 0.46811 0.23952 0.85624 0.0
C755 C 0.46808 0.21669 0.84216 0.0
C756 C 0.46343 0.21362 0.81092 0.0
C757 C 0.46394 0.19134 0.79583 0.0
C758 C 0.45821 0.1879 0.76521 0.0
C759 C 0.45219 0.20688 0.74847 0.0
C760 C 0.45293 0.23029 0.76307 0.0
C761 C 0.45835 0.23357 0.79435 0.0
C762 C 0.46993 0.3625 0.96583 0.0
C763 C 0.46459 0.33773 0.94704 0.0
O764 O 0.42766 0.11123 0.64481 0.0
O765 O 0.48613 0.14705 0.92668 0.0
O766 O 0.47319 0.34528 0.91735 0.0
O767 O 0.43479 0.33463 0.65076 0.0
H768 H 0.44162 0.13731 0.607 0.0
H769 H 0.38614 0.12006 0.61671 0.0
H770 H 0.3747 0.08228 0.61308 0.0
H771 H 0.3897 0.10736 0.58123 0.0
H772 H 0.47976 0.16347 0.64779 0.0
H773 H 0.38835 0.10632 0.68454 0.0
H774 H 0.49389 0.22817 0.66765 0.0
H775 H 0.51565 0.21037 0.66803 0.0
H776 H 0.50625 0.22036 0.7026 0.0
H777 H 0.36598 0.12251 0.71848 0.0
H778 H 0.38157 0.16151 0.71757 0.0
H779 H 0.39469 0.14608 0.74571 0.0
H780 H 0.39516 0.33221 0.6678 0.0
H781 H 0.41121 0.37667 0.64629 0.0
H782 H 0.38963 0.3475 0.59077 0.0
H783 H 0.44186 0.37924 0.63024 0.0
H784 H 0.38563 0.28404 0.67261 0.0
H785 H 0.48545 0.3351 0.66042 0.0
H786 H 0.37902 0.21809 0.69558 0.0
H787 H 0.35955 0.23808 0.69722 0.0
H788 H 0.38242 0.23761 0.72854 0.0
H789 H 0.5182 0.3188 0.67779 0.0
H790 H 0.49947 0.27937 0.68085 0.0
H791 H 0.50517 0.30007 0.71353 0.0
H792 H 0.44119 0.31706 0.95003 0.0
H793 H 0.4209 0.29391 0.90625 0.0
H794 H 0.51687 0.35324 0.88142 0.0
H795 H 0.40125 0.24315 0.8473 0.0
H796 H 0.38815 0.24885 0.88219 0.0
H797 H 0.40976 0.2309 0.88171 0.0
H798 H 0.54246 0.34083 0.84705 0.0
H799 H 0.51692 0.31662 0.81824 0.0
H800 H 0.52864 0.3022 0.84866 0.0
H801 H 0.45264 0.10395 0.91942 0.0
H802 H 0.42595 0.0969 0.96899 0.0
H803 H 0.42569 0.12437 0.94571 0.0
H804 H 0.4529 0.13547 0.97631 0.0
H805 H 0.43236 0.12893 0.8955 0.0
H806 H 0.52909 0.19756 0.90652 0.0
H807 H 0.41385 0.1505 0.83323 0.0
H808 H 0.40884 0.17366 0.85736 0.0
H809 H 0.39661 0.13679 0.86935 0.0
H810 H 0.55355 0.23845 0.87256 0.0
H811 H 0.52986 0.25385 0.87717 0.0
H812 H 0.53158 0.24072 0.84135 0.0
H813 H 0.43699 0.22103 0.67748 0.0
H814 H 0.44548 0.28932 0.74954 0.0
H815 H 0.45389 0.29438 0.80242 0.0
H816 H 0.47166 0.24169 0.88023 0.0
H817 H 0.46854 0.17615 0.80758 0.0
H818 H 0.45857 0.17019 0.75479 0.0
H819 H 0.44585 0.35636 0.97293 0.0
H820 H 0.4735 0.38064 0.94995 0.0
H821 H 0.50421 0.36739 0.99628 0.0
C822 C 0.04167 0.48585 0.10235 0.0
C823 C 0.03945 0.4718 0.0757 0.0
C824 C 0.04383 0.47408 0.13 0.0
C825 C 0.04361 0.44778 0.1319 0.0
H826 H 0.04286 0.50656 0.10175 0.0
H827 H 0.04593 0.48573 0.15008 0.0
S828 S 0.03416 0.40095 0.06824 0.0
N829 N 0.03501 0.42953 0.05265 0.0
N830 N 0.03761 0.40661 0.1045 0.0
C831 C 0.03976 0.43284 0.10529 0.0
C832 C 0.03818 0.44514 0.07722 0.0
C833 C 0.59352 0.0822 0.57116 0.0
C834 C 0.5998 0.07068 0.54638 0.0
C835 C 0.61588 0.09651 0.59376 0.0
C836 C 0.64562 0.10018 0.59252 0.0
H837 H 0.57091 0.07979 0.57349 0.0
H838 H 0.60959 0.10436 0.61266 0.0
S839 S 0.67429 0.07451 0.53248 0.0
N840 N 0.63832 0.06428 0.52186 0.0
N841 N 0.68035 0.09127 0.56446 0.0
C842 C 0.65248 0.08916 0.56773 0.0
C843 C 0.62964 0.0745 0.54463 0.0
C844 C 0.56601 0.57986 0.15092 0.0
C845 C 0.57098 0.58257 0.11996 0.0
C846 C 0.57413 0.60438 0.16803 0.0
C847 C 0.58757 0.63263 0.15487 0.0
H848 H 0.55563 0.55855 0.16199 0.0
H849 H 0.57022 0.60126 0.19187 0.0
S850 S 0.60725 0.65167 0.07475 0.0
N851 N 0.59113 0.61571 0.07689 0.0
N852 N 0.60685 0.66196 0.109 0.0
C853 C 0.59301 0.63566 0.12389 0.0
C854 C 0.58447 0.6106 0.10645 0.0
C855 C 0.9352 0.54974 0.54657 0.0
C856 C 0.95223 0.53616 0.55195 0.0
C857 C 0.92777 0.56187 0.56981 0.0
C858 C 0.93659 0.56045 0.59956 0.0
H859 H 0.92801 0.55142 0.52406 0.0
H860 H 0.91545 0.57283 0.56426 0.0
S861 S 0.983 0.52891 0.62577 0.0
N862 N 0.9793 0.5237 0.58946 0.0
N863 N 0.96383 0.54503 0.63305 0.0
C864 C 0.95337 0.54673 0.60531 0.0
C865 C 0.96146 0.53487 0.58163 0.0
C866 C 0.48666 0.91662 0.07818 0.0
C867 C 0.48811 0.94188 0.0665 0.0
C868 C 0.46696 0.90036 0.10211 0.0
C869 C 0.44763 0.90844 0.1153 0.0
H870 H 0.502 0.91009 0.06981 0.0
H871 H 0.46791 0.88199 0.11124 0.0
S872 S 0.44045 0.97126 0.09163 0.0
N873 N 0.4665 0.97289 0.06866 0.0
N874 N 0.42997 0.94256 0.11389 0.0
C875 C 0.44766 0.93279 0.10295 0.0
C876 C 0.46761 0.94932 0.07843 0.0
C877 C 0.43258 0.37519 0.57852 0.0
C878 C 0.40875 0.38997 0.58815 0.0
C879 C 0.42247 0.33917 0.59231 0.0
C880 C 0.39098 0.3224 0.6212 0.0
H881 H 0.45316 0.38788 0.56481 0.0
H882 H 0.43768 0.33109 0.58867 0.0
S883 S 0.32839 0.34783 0.64046 0.0
N884 N 0.35369 0.3766 0.61852 0.0
N885 N 0.33711 0.32165 0.64309 0.0
C886 C 0.36161 0.33294 0.6245 0.0
C887 C 0.37324 0.36842 0.60994 0.0
C888 C 0.54426 0.95221 0.43255 0.0
C889 C 0.53538 0.94459 0.47211 0.0
C890 C 0.5664 0.93943 0.41415 0.0
C891 C 0.57294 0.91362 0.4373 0.0
H892 H 0.53682 0.96485 0.41994 0.0
H893 H 0.57007 0.94203 0.3903 0.0
S894 S 0.56284 0.90026 0.52956 0.0
N895 N 0.54556 0.91959 0.52405 0.0
N896 N 0.57799 0.89671 0.49796 0.0
C897 C 0.57195 0.9127 0.47874 0.0
C898 C 0.55006 0.92602 0.49471 0.0
C899 C 0.59265 0.55177 0.95617 0.0
C900 C 0.58844 0.52856 0.97496 0.0
C901 C 0.61632 0.5643 0.93444 0.0
C902 C 0.63619 0.55371 0.93039 0.0
H903 H 0.57845 0.56109 0.95906 0.0
H904 H 0.61963 0.58292 0.92124 0.0
S905 S 0.63293 0.49161 0.97229 0.0
N906 N 0.60481 0.49428 0.98685 0.0
N907 N 0.64895 0.51766 0.94621 0.0
C908 C 0.63131 0.52975 0.94835 0.0
C909 C 0.6075 0.51719 0.9705 0.0
C910 C 0.11798 0.58497 0.45608 0.0
C911 C 0.0936 0.57659 0.47634 0.0
C912 C 0.1388 0.61458 0.44805 0.0
C913 C 0.13519 0.63689 0.45908 0.0
H914 H 0.12055 0.5684 0.44582 0.0
H915 H 0.15717 0.61979 0.43234 0.0
S916 S 0.07554 0.62625 0.51377 0.0
N917 N 0.06782 0.59276 0.5085 0.0
N918 N 0.10614 0.64839 0.49264 0.0
C919 C 0.11145 0.62874 0.48021 0.0
C920 C 0.09079 0.59863 0.48895 0.0
C921 C 0.51951 0.11652 0.99765 0.0
C922 C 0.5174 0.09 0.99214 0.0
C923 C 0.50343 0.12603 0.97966 0.0
C924 C 0.48401 0.10902 0.95586 0.0
H925 H 0.53361 0.12989 0.01614 0.0
H926 H 0.50577 0.14666 0.98474 0.0
S927 S 0.47059 0.03764 0.93226 0.0
N928 N 0.49472 0.04686 0.96114 0.0
N929 N 0.46413 0.06451 0.9275 0.0
C930 C 0.48203 0.08257 0.9499 0.0
C931 C 0.49878 0.0731 0.968 0.0
C932 C 0.38419 0.42769 0.44726 0.0
C933 C 0.41355 0.45401 0.45009 0.0
C934 C 0.36864 0.41921 0.41969 0.0
C935 C 0.38153 0.43699 0.39387 0.0
H936 H 0.37292 0.41362 0.46664 0.0
H937 H 0.34597 0.39879 0.41877 0.0
S938 S 0.45773 0.50855 0.38968 0.0
N939 N 0.45521 0.49781 0.42496 0.0
N940 N 0.4255 0.48248 0.37313 0.0
C941 C 0.4111 0.46336 0.39639 0.0
C942 C 0.42724 0.47169 0.42447 0.0
C943 C 0.00705 0.41463 0.90967 0.0
C944 C 0.99952 0.42194 0.93675 0.0
C945 C 0.98889 0.38615 0.89844 0.0
C946 C 0.96224 0.36382 0.91366 0.0
H947 H 0.02711 0.4311 0.89695 0.0
H948 H 0.99588 0.38157 0.87767 0.0
S949 S 0.93283 0.37097 0.98604 0.0
N950 N 0.96419 0.40385 0.97924 0.0
N951 N 0.92925 0.35088 0.95732 0.0
C952 C 0.95428 0.37083 0.94068 0.0
C953 C 0.97305 0.39971 0.95238 0.0
C954 C 0.96925 0.55345 0.96406 0.0
C955 C 0.97857 0.53773 0.94732 0.0
C956 C 0.95225 0.56477 0.95073 0.0
C957 C 0.94342 0.56025 0.92036 0.0
H958 H 0.97642 0.55825 0.98721 0.0
H959 H 0.94675 0.57787 0.96406 0.0
S960 S 0.95946 0.5179 0.86774 0.0
N961 N 0.97591 0.51646 0.89944 0.0
N962 N 0.94374 0.53728 0.87456 0.0
C963 C 0.95141 0.54335 0.90385 0.0
C964 C 0.96896 0.53217 0.9173 0.0
C965 C 0.44644 0.99846 0.45844 0.0
C966 C 0.47232 0.00309 0.44242 0.0
C967 C 0.41824 0.9709 0.45911 0.0
C968 C 0.41506 0.94681 0.44395 0.0
H969 H 0.44773 0.01651 0.4699 0.0
H970 H 0.39895 0.9688 0.47148 0.0
S971 S 0.47483 0.94925 0.39499 0.0
N972 N 0.49224 0.98275 0.40837 0.0
N973 N 0.43949 0.93072 0.40984 0.0
C974 C 0.44056 0.95178 0.42675 0.0
C975 C 0.4691 0.97992 0.4259 0.0
C976 C 0.46814 0.35807 0.01995 0.0
C977 C 0.49413 0.3961 0.00762 0.0
C978 C 0.46707 0.32846 1.00066 0.0
C979 C 0.489 0.33965 0.9647 0.0
H980 H 0.45307 0.3529 0.03895 0.0
H981 H 0.44988 0.30572 0.00625 0.0
S982 S 0.55673 0.42531 0.93696 0.0
N983 N 0.54173 0.4328 0.96616 0.0
N984 N 0.54082 0.38892 0.93295 0.0
C985 C 0.52171 0.37818 0.95661 0.0
C986 C 0.52106 0.40572 0.97699 0.0
C987 C 0.03659 0.41848 0.41443 0.0
C988 C 0.04139 0.43092 0.44273 0.0
C989 C 0.05197 0.40438 0.40618 0.0
C990 C 0.07316 0.40256 0.42579 0.0
H991 H 0.02078 0.41965 0.39855 0.0
H992 H 0.04699 0.39466 0.38436 0.0
S993 S 0.09177 0.42911 0.50344 0.0
N994 N 0.06696 0.43829 0.49123 0.0
N995 N 0.09682 0.41307 0.47524 0.0
C996 C 0.07791 0.41469 0.45422 0.0
C997 C 0.06192 0.42861 0.46278 0.0
C998 C 0.61594 0.03193 0.94265 0.0
C999 C 0.5871 0.03017 0.94012 0.0
C1000 C 0.63816 0.04436 0.91975 0.0
C1001 C 0.63276 0.05603 0.89348 0.0
H1002 H 0.62163 0.02394 0.96272 0.0
H1003 H 0.66001 0.04523 0.92287 0.0
S1004 S 0.56068 0.05626 0.87528 0.0
N1005 N 0.55395 0.04046 0.90873 0.0
N1006 N 0.59589 0.06412 0.86584 0.0
C1007 C 0.6037 0.05381 0.89031 0.0
C1008 C 0.58088 0.04084 0.91356 0.0
C1009 C 0.49866 0.62074 0.50667 0.0
C1010 C 0.50976 0.60188 0.50444 0.0
C1011 C 0.51466 0.6488 0.49317 0.0
C1012 C 0.54243 0.65908 0.477 0.0
H1013 H 0.47741 0.61366 0.51893 0.0
H1014 H 0.50541 0.66272 0.49569 0.0
S1015 S 0.58267 0.61893 0.46689 0.0
N1016 N 0.55105 0.59586 0.48635 0.0
N1017 N 0.58121 0.6486 0.46099 0.0
C1018 C 0.55403 0.64051 0.47502 0.0
C1019 C 0.53763 0.61189 0.48865 0.0
C1020 C 0.43036 0.04787 0.59297 0.0
C1021 C 0.44551 0.05669 0.56517 0.0
C1022 C 0.4245 0.0665 0.60895 0.0
C1023 C 0.43378 0.09475 0.59781 0.0
H1024 H 0.42325 0.02652 0.60255 0.0
H1025 H 0.41245 0.05866 0.63008 0.0
S1026 S 0.47137 0.12703 0.52469 0.0
N1027 N 0.46761 0.09463 0.52627 0.0
N1028 N 0.45692 0.12968 0.55628 0.0
C1029 C 0.4483 0.10348 0.56972 0.0
C1030 C 0.45421 0.08454 0.55348 0.0
C1031 C 0.4092 0.47747 0.04768 0.0
C1032 C 0.43512 0.49642 0.06564 0.0
C1033 C 0.37854 0.46829 0.05625 0.0
C1034 C 0.37289 0.47818 0.08274 0.0
H1035 H 0.41237 0.46791 0.0282 0.0
H1036 H 0.35903 0.45203 0.04296 0.0
S1037 S 0.43364 0.53127 0.13516 0.0
N1038 N 0.45369 0.5271 0.10931 0.0
N1039 N 0.39639 0.51026 0.12525 0.0
C1040 C 0.399 0.49893 0.09957 0.0
C1041 C 0.43002 0.50797 0.09102 0.0
C1042 C 0.02702 0.42044 0.58754 0.0
C1043 C 0.00517 0.43531 0.57065 0.0
C1044 C 0.00663 0.38451 0.60589 0.0
C1045 C 0.96355 0.36809 0.61106 0.0
H1046 H 0.05234 0.43277 0.5861 0.0
H1047 H 0.01933 0.37634 0.61801 0.0
S1048 S 0.90814 0.39391 0.56664 0.0
N1049 N 0.94412 0.42263 0.55737 0.0
N1050 N 0.90957 0.36765 0.58673 0.0
C1051 C 0.94063 0.37897 0.58714 0.0
C1052 C 0.96274 0.41433 0.56986 0.0
C1053 C 0.65201 0.01005 0.13313 0.0
C1054 C 0.62563 0.99635 0.10101 0.0
C1055 C 0.66552 0.98802 0.15094 0.0
C1056 C 0.64524 0.94932 0.13778 0.0
H1057 H 0.65939 0.03126 0.14204 0.0
H1058 H 0.67884 0.99473 0.17157 0.0
S1059 S 0.59005 0.91549 0.06127 0.0
N1060 N 0.59367 0.94847 0.06181 0.0
N1061 N 0.61144 0.91168 0.08833 0.0
C1062 C 0.62588 0.93835 0.10057 0.0
C1063 C 0.61384 0.96146 0.08462 0.0
C1064 C 0.5608 0.50349 0.59802 0.0
C1065 C 0.55495 0.51143 0.56963 0.0
C1066 C 0.59125 0.51718 0.60983 0.0
C1067 C 0.61719 0.53948 0.59376 0.0
H1068 H 0.54152 0.48724 0.61175 0.0
H1069 H 0.59432 0.51115 0.63232 0.0
S1070 S 0.61455 0.56798 0.51808 0.0
N1071 N 0.5776 0.54236 0.52526 0.0
N1072 N 0.63499 0.56846 0.54762 0.0
C1073 C 0.61179 0.54698 0.56489 0.0
C1074 C 0.58068 0.53278 0.55272 0.0
C1075 C 0.12143 0.60984 0.07859 0.0
C1076 C 0.11821 0.61702 0.04889 0.0
C1077 C 0.13037 0.6302 0.10136 0.0
C1078 C 0.13635 0.65857 0.09531 0.0
H1079 H 0.11627 0.58801 0.08432 0.0
H1080 H 0.13168 0.6234 0.12404 0.0
S1081 S 0.13056 0.68798 0.02118 0.0
N1082 N 0.1215 0.65429 0.01458 0.0
N1083 N 0.13818 0.69263 0.05731 0.0
C1084 C 0.13364 0.66614 0.06556 0.0
C1085 C 0.12474 0.64542 0.04235 0.0
loop_
_geom_bond_atom_site_label_1
_geom_bond_atom_site_label_2
_geom_bond_distance
_geom_bond_site_symmetry_2
_ccdc_geom_bond_type
Cu0 N1 1.999 1_554 S
Cu0 O6 1.974 1_554 S
Cu0 N11 1.985 . S
Cu0 O20 1.959 . S
N1 Cu0 1.999 1_556 S
N1 C3 1.263 1_455 S
N1 C5 1.389 1_456 S
N2 C3 1.358 . S
N2 C4 1.400 . S
C3 N1 1.263 1_655 S
C3 N2 1.358 . S
C3 H9 0.930 1_655 S
C4 N2 1.400 . S
C4 C5 1.351 1_556 S
C4 H21 0.930 . S
C5 N1 1.389 1_654 S
C5 C4 1.351 1_554 S
C5 H10 0.930 . S
O6 Cu0 1.974 1_556 S
O6 C16 1.282 . S
C7 O8 1.261 . S
C7 O20 1.251 . S
O8 C7 1.261 . S
H9 C3 0.930 1_455 S
H10 C5 0.930 . S
N11 Cu0 1.985 . S
N11 C13 1.335 . S
N11 C14 1.390 . S
N12 C13 1.345 . S
N12 C15 1.336 . S
C13 N11 1.335 . S
C13 N12 1.345 . S
C13 H18 0.930 . S
C14 N11 1.390 . S
C14 C15 1.346 . S
C14 H19 0.930 1_554 S
C15 N12 1.336 . S
C15 C14 1.346 . S
C15 H22 0.929 . S
C16 O6 1.282 . S
C16 O17 1.216 . S
O17 C16 1.216 . S
H18 C13 0.930 . S
H19 C14 0.930 1_556 S
O20 Cu0 1.959 . S
O20 C7 1.251 . S
H21 C4 0.930 . S
H22 C15 0.929 . S
Cu23 N24 1.999 . S
Cu23 O29 1.974 . S
Cu23 N34 1.985 1_565 S
Cu23 O43 1.959 1_565 S
N24 Cu23 1.999 . S
N24 C26 1.263 . S
N24 C28 1.389 . S
N25 C26 1.358 . S
N25 C27 1.400 . S
C26 N24 1.263 . S
C26 N25 1.358 . S
C26 H32 0.930 . S
C27 N25 1.400 . S
C27 C28 1.351 . S
C27 H44 0.930 . S
C28 N24 1.389 . S
C28 C27 1.351 . S
C28 H33 0.930 . S
O29 Cu23 1.974 . S
O29 C39 1.282 . S
C30 O31 1.261 . S
C30 O43 1.251 . S
O31 C30 1.261 . S
H32 C26 0.930 . S
H33 C28 0.930 . S
N34 Cu23 1.985 1_545 S
N34 C36 1.335 . S
N34 C37 1.390 . S
N35 C36 1.345 . S
N35 C38 1.336 . S
C36 N34 1.335 . S
C36 N35 1.345 . S
C36 H41 0.930 . S
C37 N34 1.390 . S
C37 C38 1.346 . S
C37 H42 0.930 . S
C38 N35 1.336 . S
C38 C37 1.346 . S
C38 H45 0.929 . S
C39 O29 1.282 . S
C39 O40 1.216 1_565 S
O40 C39 1.216 1_545 S
H41 C36 0.930 . S
H42 C37 0.930 . S
O43 Cu23 1.959 1_545 S
O43 C30 1.251 . S
H44 C27 0.930 . S
H45 C38 0.929 . S
Cu46 N47 1.999 1_554 S
Cu46 O52 1.974 1_554 S
Cu46 N57 1.985 . S
Cu46 O66 1.959 . S
N47 Cu46 1.999 1_556 S
N47 C49 1.263 . S
N47 C51 1.389 . S
N48 C49 1.358 . S
N48 C50 1.400 . S
C49 N47 1.263 . S
C49 N48 1.358 . S
C49 H55 0.930 . S
C50 N48 1.400 . S
C50 C51 1.351 . S
C50 H67 0.930 . S
C51 N47 1.389 . S
C51 C50 1.351 . S
C51 H56 0.930 . S
O52 Cu46 1.974 1_556 S
O52 C62 1.282 . S
C53 O54 1.261 . S
C53 O66 1.251 . S
O54 C53 1.261 . S
H55 C49 0.930 . S
H56 C51 0.930 . S
N57 Cu46 1.985 . S
N57 C59 1.335 . S
N57 C60 1.390 . S
N58 C59 1.345 . S
N58 C61 1.336 . S
C59 N57 1.335 . S
C59 N58 1.345 . S
C59 H64 0.930 . S
C60 N57 1.390 . S
C60 C61 1.346 . S
C60 H65 0.930 . S
C61 N58 1.336 . S
C61 C60 1.346 . S
C61 H68 0.929 . S
C62 O52 1.282 . S
C62 O63 1.216 1_556 S
O63 C62 1.216 1_554 S
H64 C59 0.930 . S
H65 C60 0.930 . S
O66 Cu46 1.959 . S
O66 C53 1.251 . S
H67 C50 0.930 . S
H68 C61 0.929 . S
Cu69 N70 1.999 1_655 S
Cu69 O75 1.974 1_655 S
Cu69 N80 1.985 . S
Cu69 O89 1.959 . S
N70 Cu69 1.999 1_455 S
N70 C72 1.263 . S
N70 C74 1.389 1_455 S
N71 C72 1.358 . S
N71 C73 1.400 . S
C72 N70 1.263 . S
C72 N71 1.358 . S
C72 H78 0.930 . S
C73 N71 1.400 . S
C73 C74 1.351 1_455 S
C73 H90 0.930 1_455 S
C74 N70 1.389 1_655 S
C74 C73 1.351 1_655 S
C74 H79 0.930 . S
O75 Cu69 1.974 1_455 S
O75 C85 1.282 . S
C76 O77 1.261 1_655 S
C76 O89 1.251 . S
O77 C76 1.261 1_455 S
H78 C72 0.930 . S
H79 C74 0.930 . S
N80 Cu69 1.985 . S
N80 C82 1.335 . S
N80 C83 1.390 . S
N81 C82 1.345 . S
N81 C84 1.336 . S
C82 N80 1.335 . S
C82 N81 1.345 . S
C82 H87 0.930 . S
C83 N80 1.390 . S
C83 C84 1.346 . S
C83 H88 0.930 1_655 S
C84 N81 1.336 . S
C84 C83 1.346 . S
C84 H91 0.929 . S
C85 O75 1.282 . S
C85 O86 1.216 . S
O86 C85 1.216 . S
H87 C82 0.930 . S
H88 C83 0.930 1_455 S
O89 Cu69 1.959 . S
O89 C76 1.251 . S
H90 C73 0.930 1_655 S
H91 C84 0.929 . S
Cu92 N93 1.999 . S
Cu92 O98 1.974 . S
Cu92 N103 1.973 1_545 S
Cu92 O112 1.959 . S
N93 Cu92 1.999 . S
N93 C95 1.263 1_554 S
N93 C97 1.389 . S
N94 C95 1.358 . S
N94 C96 1.400 1_556 S
C95 N93 1.263 1_556 S
C95 N94 1.358 . S
C95 H101 0.930 . S
C96 N94 1.400 1_554 S
C96 C97 1.351 . S
C96 H113 0.930 . S
C97 N93 1.389 . S
C97 C96 1.351 . S
C97 H102 0.930 . S
O98 Cu92 1.974 . S
O98 C108 1.282 1_554 S
C99 O100 1.261 . S
C99 O112 1.251 1_565 S
O100 C99 1.261 . S
H101 C95 0.930 . S
H102 C97 0.930 . S
N103 Cu92 1.973 1_565 S
N103 C105 1.340 . S
N103 C106 1.398 . S
N104 C105 1.345 . S
N104 C107 1.336 . S
C105 N103 1.340 . S
C105 N104 1.345 . S
C105 H110 0.930 . S
C106 N103 1.398 . S
C106 C107 1.346 . S
C106 H111 0.930 1_565 S
C107 N104 1.336 . S
C107 C106 1.346 . S
C107 H114 0.929 . S
C108 O98 1.282 1_556 S
C108 O109 1.216 . S
O109 C108 1.216 . S
H110 C105 0.930 . S
H111 C106 0.930 1_545 S
O112 Cu92 1.959 . S
O112 C99 1.251 1_545 S
H113 C96 0.930 . S
H114 C107 0.929 . S
Cu115 N116 1.999 . S
Cu115 O121 1.974 . S
Cu115 N126 1.985 . S
Cu115 O135 1.959 . S
N116 Cu115 1.999 . S
N116 C118 1.263 . S
N116 C120 1.389 . S
N117 C118 1.358 . S
N117 C119 1.400 . S
C118 N116 1.263 . S
C118 N117 1.358 . S
C118 H124 0.930 . S
C119 N117 1.400 . S
C119 C120 1.351 . S
C119 H136 0.930 . S
C120 N116 1.389 . S
C120 C119 1.351 . S
C120 H125 0.930 . S
O121 Cu115 1.974 . S
O121 C131 1.282 . S
C122 O123 1.261 . S
C122 O135 1.251 . S
O123 C122 1.261 . S
H124 C118 0.930 . S
H125 C120 0.930 . S
N126 Cu115 1.985 . S
N126 C128 1.335 . S
N126 C129 1.390 . S
N127 C128 1.345 . S
N127 C130 1.336 . S
C128 N126 1.335 . S
C128 N127 1.345 . S
C128 H133 0.930 . S
C129 N126 1.390 . S
C129 C130 1.346 . S
C129 H134 0.930 . S
C130 N127 1.336 . S
C130 C129 1.346 . S
C130 H137 0.929 . S
C131 O121 1.282 . S
C131 O132 1.216 . S
O132 C131 1.216 . S
H133 C128 0.930 . S
H134 C129 0.930 . S
O135 Cu115 1.959 . S
O135 C122 1.251 . S
H136 C119 0.930 . S
H137 C130 0.929 . S
C138 C139 1.560 . S
C138 H199 0.959 . S
C138 H200 0.959 . S
C138 H201 0.960 . S
C139 C138 1.560 . S
C139 O194 1.426 . S
C139 H198 0.980 . S
C140 C141 1.407 . S
C140 C145 1.418 . S
C140 O194 1.334 . S
C141 C140 1.407 . S
C141 C142 1.360 . S
C141 H202 0.929 . S
C142 C141 1.360 . S
C142 C143 1.401 . S
C142 C146 1.527 . S
C143 C142 1.401 . S
C143 C144 1.405 . S
C143 C176 1.587 . S
C144 C143 1.405 . S
C144 C145 1.332 . S
C144 C147 1.496 . S
C145 C140 1.418 . S
C145 C144 1.332 . S
C145 H203 0.929 . S
C146 C142 1.527 . S
C146 H204 0.959 . S
C146 H205 0.961 . S
C146 H206 0.961 . S
C147 C144 1.496 . S
C147 H207 0.960 . S
C147 H208 0.960 . S
C147 H209 0.961 . S
C148 C149 1.517 . S
C148 H211 0.961 . S
C148 H212 0.960 . S
C148 H213 0.959 . S
C149 C148 1.517 . S
C149 O197 1.468 . S
C149 H210 0.980 . S
C150 C151 1.349 . S
C150 C155 1.367 . S
C150 O197 1.408 . S
C151 C150 1.349 . S
C151 C152 1.407 . S
C151 H214 0.930 . S
C152 C151 1.407 . S
C152 C153 1.449 . S
C152 C156 1.535 . S
C153 C152 1.449 . S
C153 C154 1.384 . S
C153 C178 1.553 . S
C154 C153 1.384 . S
C154 C155 1.364 . S
C154 C157 1.450 . S
C155 C150 1.367 . S
C155 C154 1.364 . S
C155 H215 0.931 . S
C156 C152 1.535 . S
C156 H216 0.959 . S
C156 H217 0.961 . S
C156 H218 0.959 . S
C157 C154 1.450 . S
C157 H219 0.960 . S
C157 H220 0.960 . S
C157 H221 0.960 . S
C158 C159 1.309 . S
C158 C163 1.304 . S
C158 O196 1.435 . S
C159 C158 1.309 . S
C159 C160 1.476 . S
C159 H223 0.930 . S
C160 C159 1.476 . S
C160 C161 1.400 . S
C160 C164 1.567 . S
C161 C160 1.400 . S
C161 C162 1.373 . S
C161 C183 1.432 . S
C162 C161 1.373 . S
C162 C163 1.339 . S
C162 C165 1.530 . S
C163 C158 1.304 . S
C163 C162 1.339 . S
C163 H224 0.930 . S
C164 C160 1.567 . S
C164 H225 0.961 . S
C164 H226 0.960 . S
C164 H227 0.958 . S
C165 C162 1.530 . S
C165 H228 0.961 . S
C165 H229 0.960 . S
C165 H230 0.960 . S
C166 C167 1.530 . S
C166 H232 0.961 . S
C166 H233 0.961 . S
C166 H234 0.959 . S
C167 C166 1.530 . S
C167 O195 1.412 . S
C167 H231 0.980 . S
C168 C169 1.288 . S
C168 C173 1.377 . S
C168 O195 1.393 . S
C169 C168 1.288 . S
C169 C170 1.369 . S
C169 H235 0.932 . S
C170 C169 1.369 . S
C170 C171 1.398 . S
C170 C174 1.527 . S
C171 C170 1.398 . S
C171 C172 1.380 . S
C171 C185 1.497 . S
C172 C171 1.380 . S
C172 C173 1.383 . S
C172 C175 1.603 . S
C173 C168 1.377 . S
C173 C172 1.383 . S
C173 H236 0.929 . S
C174 C170 1.527 . S
C174 H237 0.961 . S
C174 H238 0.959 . S
C174 H239 0.959 . S
C175 C172 1.603 . S
C175 H240 0.960 . S
C175 H241 0.962 . S
C175 H242 0.961 . S
C176 C143 1.587 . S
C176 C177 1.360 . S
C176 C189 1.412 . S
C177 C176 1.360 . S
C177 C178 1.365 . S
C177 H243 0.929 . S
C178 C153 1.553 . S
C178 C177 1.365 . S
C178 C179 1.404 . S
C179 C178 1.404 . S
C179 C180 1.395 . S
C179 C190 1.451 . S
C180 C179 1.395 . S
C180 C181 1.322 . S
C180 H244 0.930 . S
C181 C180 1.322 . S
C181 C182 1.459 . S
C181 H245 0.929 . S
C182 C181 1.459 . S
C182 C183 1.445 . S
C182 C191 1.395 . S
C183 C161 1.432 . S
C183 C182 1.445 . S
C183 C184 1.370 . S
C184 C183 1.370 . S
C184 C185 1.438 . S
C184 H246 0.930 . S
C185 C171 1.497 . S
C185 C184 1.438 . S
C185 C186 1.360 . S
C186 C185 1.360 . S
C186 C187 1.401 . S
C186 C191 1.446 . S
C187 C186 1.401 . S
C187 C188 1.347 . S
C187 H247 0.929 . S
C188 C187 1.347 . S
C188 C189 1.455 . S
C188 H248 0.930 . S
C189 C176 1.412 . S
C189 C188 1.455 . S
C189 C190 1.331 . S
C190 C179 1.451 . S
C190 C189 1.331 . S
C190 C191 1.497 . S
C191 C182 1.395 . S
C191 C186 1.446 . S
C191 C190 1.497 . S
C192 C193 1.582 . S
C192 H249 0.962 . S
C192 H250 0.959 . S
C192 H251 0.958 . S
C193 C192 1.582 . S
C193 O196 1.458 . S
C193 H222 0.980 . S
O194 C139 1.426 . S
O194 C140 1.334 . S
O195 C167 1.412 . S
O195 C168 1.393 . S
O196 C158 1.435 . S
O196 C193 1.458 . S
O197 C149 1.468 . S
O197 C150 1.408 . S
H198 C139 0.980 . S
H199 C138 0.959 . S
H200 C138 0.959 . S
H201 C138 0.960 . S
H202 C141 0.929 . S
H203 C145 0.929 . S
H204 C146 0.959 . S
H205 C146 0.961 . S
H206 C146 0.961 . S
H207 C147 0.960 . S
H208 C147 0.960 . S
H209 C147 0.961 . S
H210 C149 0.980 . S
H211 C148 0.961 . S
H212 C148 0.960 . S
H213 C148 0.959 . S
H214 C151 0.930 . S
H215 C155 0.931 . S
H216 C156 0.959 . S
H217 C156 0.961 . S
H218 C156 0.959 . S
H219 C157 0.960 . S
H220 C157 0.960 . S
H221 C157 0.960 . S
H222 C193 0.980 . S
H223 C159 0.930 . S
H224 C163 0.930 . S
H225 C164 0.961 . S
H226 C164 0.960 . S
H227 C164 0.958 . S
H228 C165 0.961 . S
H229 C165 0.960 . S
H230 C165 0.960 . S
H231 C167 0.980 . S
H232 C166 0.961 . S
H233 C166 0.961 . S
H234 C166 0.959 . S
H235 C169 0.932 . S
H236 C173 0.929 . S
H237 C174 0.961 . S
H238 C174 0.959 . S
H239 C174 0.959 . S
H240 C175 0.960 . S
H241 C175 0.962 . S
H242 C175 0.961 . S
H243 C177 0.929 . S
H244 C180 0.930 . S
H245 C181 0.929 . S
H246 C184 0.930 . S
H247 C187 0.929 . S
H248 C188 0.930 . S
H249 C192 0.962 . S
H250 C192 0.959 . S
H251 C192 0.958 . S
C252 C253 1.560 . S
C252 H313 0.959 . S
C252 H314 0.959 . S
C252 H315 0.960 . S
C253 C252 1.560 . S
C253 O308 1.426 . S
C253 H312 0.980 . S
C254 C255 1.407 . S
C254 C259 1.418 . S
C254 O308 1.334 . S
C255 C254 1.407 . S
C255 C256 1.360 . S
C255 H316 0.929 . S
C256 C255 1.360 . S
C256 C257 1.401 . S
C256 C260 1.527 . S
C257 C256 1.401 . S
C257 C258 1.405 . S
C257 C290 1.587 . S
C258 C257 1.405 . S
C258 C259 1.332 . S
C258 C261 1.496 . S
C259 C254 1.418 . S
C259 C258 1.332 . S
C259 H317 0.929 . S
C260 C256 1.527 . S
C260 H318 0.959 . S
C260 H319 0.961 . S
C260 H320 0.961 . S
C261 C258 1.496 . S
C261 H321 0.960 . S
C261 H322 0.960 . S
C261 H323 0.961 . S
C262 C263 1.517 . S
C262 H325 0.961 . S
C262 H326 0.960 . S
C262 H327 0.959 . S
C263 C262 1.517 . S
C263 O311 1.468 . S
C263 H324 0.980 . S
C264 C265 1.349 . S
C264 C269 1.367 . S
C264 O311 1.408 . S
C265 C264 1.349 . S
C265 C266 1.407 . S
C265 H328 0.930 . S
C266 C265 1.407 . S
C266 C267 1.449 . S
C266 C270 1.535 . S
C267 C266 1.449 . S
C267 C268 1.384 . S
C267 C292 1.553 . S
C268 C267 1.384 . S
C268 C269 1.364 . S
C268 C271 1.450 . S
C269 C264 1.367 . S
C269 C268 1.364 . S
C269 H329 0.931 . S
C270 C266 1.535 . S
C270 H330 0.959 . S
C270 H331 0.961 . S
C270 H332 0.959 . S
C271 C268 1.450 . S
C271 H333 0.960 . S
C271 H334 0.960 . S
C271 H335 0.960 . S
C272 C273 1.309 . S
C272 C277 1.304 . S
C272 O310 1.435 . S
C273 C272 1.309 . S
C273 C274 1.476 . S
C273 H337 0.930 . S
C274 C273 1.476 . S
C274 C275 1.400 . S
C274 C278 1.567 . S
C275 C274 1.400 . S
C275 C276 1.373 . S
C275 C297 1.432 . S
C276 C275 1.373 . S
C276 C277 1.339 . S
C276 C279 1.530 . S
C277 C272 1.304 . S
C277 C276 1.339 . S
C277 H338 0.930 . S
C278 C274 1.567 . S
C278 H339 0.961 . S
C278 H340 0.960 . S
C278 H341 0.958 . S
C279 C276 1.530 . S
C279 H342 0.961 . S
C279 H343 0.960 . S
C279 H344 0.960 . S
C280 C281 1.530 . S
C280 H346 0.961 . S
C280 H347 0.961 . S
C280 H348 0.959 . S
C281 C280 1.530 . S
C281 O309 1.412 . S
C281 H345 0.980 . S
C282 C283 1.288 . S
C282 C287 1.377 . S
C282 O309 1.393 . S
C283 C282 1.288 . S
C283 C284 1.369 . S
C283 H349 0.932 . S
C284 C283 1.369 . S
C284 C285 1.398 . S
C284 C288 1.527 . S
C285 C284 1.398 . S
C285 C286 1.380 . S
C285 C299 1.497 . S
C286 C285 1.380 . S
C286 C287 1.383 . S
C286 C289 1.603 . S
C287 C282 1.377 . S
C287 C286 1.383 . S
C287 H350 0.929 . S
C288 C284 1.527 . S
C288 H351 0.961 . S
C288 H352 0.959 . S
C288 H353 0.959 . S
C289 C286 1.603 . S
C289 H354 0.960 . S
C289 H355 0.962 . S
C289 H356 0.961 . S
C290 C257 1.587 . S
C290 C291 1.360 . S
C290 C303 1.412 . S
C291 C290 1.360 . S
C291 C292 1.365 . S
C291 H357 0.929 . S
C292 C267 1.553 . S
C292 C291 1.365 . S
C292 C293 1.404 . S
C293 C292 1.404 . S
C293 C294 1.395 . S
C293 C304 1.451 . S
C294 C293 1.395 . S
C294 C295 1.322 . S
C294 H358 0.930 . S
C295 C294 1.322 . S
C295 C296 1.459 . S
C295 H359 0.929 . S
C296 C295 1.459 . S
C296 C297 1.445 . S
C296 C305 1.395 . S
C297 C275 1.432 . S
C297 C296 1.445 . S
C297 C298 1.370 . S
C298 C297 1.370 . S
C298 C299 1.438 . S
C298 H360 0.930 . S
C299 C285 1.497 . S
C299 C298 1.438 . S
C299 C300 1.360 . S
C300 C299 1.360 . S
C300 C301 1.401 . S
C300 C305 1.446 . S
C301 C300 1.401 . S
C301 C302 1.347 . S
C301 H361 0.929 . S
C302 C301 1.347 . S
C302 C303 1.455 . S
C302 H362 0.930 . S
C303 C290 1.412 . S
C303 C302 1.455 . S
C303 C304 1.331 . S
C304 C293 1.451 . S
C304 C303 1.331 . S
C304 C305 1.497 . S
C305 C296 1.395 . S
C305 C300 1.446 . S
C305 C304 1.497 . S
C306 C307 1.582 . S
C306 H363 0.962 . S
C306 H364 0.959 . S
C306 H365 0.958 . S
C307 C306 1.582 . S
C307 O310 1.458 . S
C307 H336 0.980 . S
O308 C253 1.426 . S
O308 C254 1.334 . S
O309 C281 1.412 . S
O309 C282 1.393 . S
O310 C272 1.435 . S
O310 C307 1.458 . S
O311 C263 1.468 . S
O311 C264 1.408 . S
H312 C253 0.980 . S
H313 C252 0.959 . S
H314 C252 0.959 . S
H315 C252 0.960 . S
H316 C255 0.929 . S
H317 C259 0.929 . S
H318 C260 0.959 . S
H319 C260 0.961 . S
H320 C260 0.961 . S
H321 C261 0.960 . S
H322 C261 0.960 . S
H323 C261 0.961 . S
H324 C263 0.980 . S
H325 C262 0.961 . S
H326 C262 0.960 . S
H327 C262 0.959 . S
H328 C265 0.930 . S
H329 C269 0.931 . S
H330 C270 0.959 . S
H331 C270 0.961 . S
H332 C270 0.959 . S
H333 C271 0.960 . S
H334 C271 0.960 . S
H335 C271 0.960 . S
H336 C307 0.980 . S
H337 C273 0.930 . S
H338 C277 0.930 . S
H339 C278 0.961 . S
H340 C278 0.960 . S
H341 C278 0.958 . S
H342 C279 0.961 . S
H343 C279 0.960 . S
H344 C279 0.960 . S
H345 C281 0.980 . S
H346 C280 0.961 . S
H347 C280 0.961 . S
H348 C280 0.959 . S
H349 C283 0.932 . S
H350 C287 0.929 . S
H351 C288 0.961 . S
H352 C288 0.959 . S
H353 C288 0.959 . S
H354 C289 0.960 . S
H355 C289 0.962 . S
H356 C289 0.961 . S
H357 C291 0.929 . S
H358 C294 0.930 . S
H359 C295 0.929 . S
H360 C298 0.930 . S
H361 C301 0.929 . S
H362 C302 0.930 . S
H363 C306 0.962 . S
H364 C306 0.959 . S
H365 C306 0.958 . S
C366 C367 1.560 . S
C366 H427 0.959 . S
C366 H428 0.959 . S
C366 H429 0.960 . S
C367 C366 1.560 . S
C367 O422 1.426 . S
C367 H426 0.980 . S
C368 C369 1.407 . S
C368 C373 1.418 . S
C368 O422 1.334 . S
C369 C368 1.407 . S
C369 C370 1.360 . S
C369 H430 0.929 . S
C370 C369 1.360 . S
C370 C371 1.401 . S
C370 C374 1.527 . S
C371 C370 1.401 . S
C371 C372 1.405 . S
C371 C404 1.587 . S
C372 C371 1.405 . S
C372 C373 1.332 . S
C372 C375 1.496 . S
C373 C368 1.418 . S
C373 C372 1.332 . S
C373 H431 0.929 . S
C374 C370 1.527 . S
C374 H432 0.959 . S
C374 H433 0.961 . S
C374 H434 0.961 . S
C375 C372 1.496 . S
C375 H435 0.960 . S
C375 H436 0.960 . S
C375 H437 0.961 . S
C376 C377 1.517 . S
C376 H439 0.961 . S
C376 H440 0.960 . S
C376 H441 0.959 . S
C377 C376 1.517 . S
C377 O425 1.468 . S
C377 H438 0.980 . S
C378 C379 1.349 . S
C378 C383 1.367 . S
C378 O425 1.408 . S
C379 C378 1.349 . S
C379 C380 1.407 . S
C379 H442 0.930 . S
C380 C379 1.407 . S
C380 C381 1.449 . S
C380 C384 1.535 . S
C381 C380 1.449 . S
C381 C382 1.384 . S
C381 C406 1.553 . S
C382 C381 1.384 . S
C382 C383 1.364 . S
C382 C385 1.450 . S
C383 C378 1.367 . S
C383 C382 1.364 . S
C383 H443 0.931 . S
C384 C380 1.535 . S
C384 H444 0.959 . S
C384 H445 0.961 . S
C384 H446 0.959 . S
C385 C382 1.450 . S
C385 H447 0.960 . S
C385 H448 0.960 . S
C385 H449 0.960 . S
C386 C387 1.309 . S
C386 C391 1.304 . S
C386 O424 1.435 . S
C387 C386 1.309 . S
C387 C388 1.476 . S
C387 H451 0.930 . S
C388 C387 1.476 . S
C388 C389 1.400 . S
C388 C392 1.567 . S
C389 C388 1.400 . S
C389 C390 1.373 . S
C389 C411 1.432 . S
C390 C389 1.373 . S
C390 C391 1.339 . S
C390 C393 1.530 . S
C391 C386 1.304 . S
C391 C390 1.339 . S
C391 H452 0.930 . S
C392 C388 1.567 . S
C392 H453 0.961 . S
C392 H454 0.960 . S
C392 H455 0.958 . S
C393 C390 1.530 . S
C393 H456 0.961 . S
C393 H457 0.960 . S
C393 H458 0.960 . S
C394 C395 1.530 . S
C394 H460 0.961 . S
C394 H461 0.961 . S
C394 H462 0.959 . S
C395 C394 1.530 . S
C395 O423 1.412 . S
C395 H459 0.980 . S
C396 C397 1.288 . S
C396 C401 1.377 . S
C396 O423 1.393 . S
C397 C396 1.288 . S
C397 C398 1.369 . S
C397 H463 0.932 . S
C398 C397 1.369 . S
C398 C399 1.398 . S
C398 C402 1.527 . S
C399 C398 1.398 . S
C399 C400 1.380 . S
C399 C413 1.497 . S
C400 C399 1.380 . S
C400 C401 1.383 . S
C400 C403 1.603 . S
C401 C396 1.377 . S
C401 C400 1.383 . S
C401 H464 0.929 . S
C402 C398 1.527 . S
C402 H465 0.961 . S
C402 H466 0.959 . S
C402 H467 0.959 . S
C403 C400 1.603 . S
C403 H468 0.960 . S
C403 H469 0.962 . S
C403 H470 0.961 . S
C404 C371 1.587 . S
C404 C405 1.360 . S
C404 C417 1.412 . S
C405 C404 1.360 . S
C405 C406 1.365 . S
C405 H471 0.929 . S
C406 C381 1.553 . S
C406 C405 1.365 . S
C406 C407 1.404 . S
C407 C406 1.404 . S
C407 C408 1.395 . S
C407 C418 1.451 . S
C408 C407 1.395 . S
C408 C409 1.322 . S
C408 H472 0.930 . S
C409 C408 1.322 . S
C409 C410 1.459 . S
C409 H473 0.929 . S
C410 C409 1.459 . S
C410 C411 1.445 . S
C410 C419 1.395 . S
C411 C389 1.432 . S
C411 C410 1.445 . S
C411 C412 1.370 . S
C412 C411 1.370 . S
C412 C413 1.438 . S
C412 H474 0.930 . S
C413 C399 1.497 . S
C413 C412 1.438 . S
C413 C414 1.360 . S
C414 C413 1.360 . S
C414 C415 1.401 . S
C414 C419 1.446 . S
C415 C414 1.401 . S
C415 C416 1.347 . S
C415 H475 0.929 . S
C416 C415 1.347 . S
C416 C417 1.455 . S
C416 H476 0.930 . S
C417 C404 1.412 . S
C417 C416 1.455 . S
C417 C418 1.331 . S
C418 C407 1.451 . S
C418 C417 1.331 . S
C418 C419 1.497 . S
C419 C410 1.395 . S
C419 C414 1.446 . S
C419 C418 1.497 . S
C420 C421 1.582 . S
C420 H477 0.962 . S
C420 H478 0.959 . S
C420 H479 0.958 . S
C421 C420 1.582 . S
C421 O424 1.458 . S
C421 H450 0.980 . S
O422 C367 1.426 . S
O422 C368 1.334 . S
O423 C395 1.412 . S
O423 C396 1.393 . S
O424 C386 1.435 . S
O424 C421 1.458 . S
O425 C377 1.468 . S
O425 C378 1.408 . S
H426 C367 0.980 . S
H427 C366 0.959 . S
H428 C366 0.959 . S
H429 C366 0.960 . S
H430 C369 0.929 . S
H431 C373 0.929 . S
H432 C374 0.959 . S
H433 C374 0.961 . S
H434 C374 0.961 . S
H435 C375 0.960 . S
H436 C375 0.960 . S
H437 C375 0.961 . S
H438 C377 0.980 . S
H439 C376 0.961 . S
H440 C376 0.960 . S
H441 C376 0.959 . S
H442 C379 0.930 . S
H443 C383 0.931 . S
H444 C384 0.959 . S
H445 C384 0.961 . S
H446 C384 0.959 . S
H447 C385 0.960 . S
H448 C385 0.960 . S
H449 C385 0.960 . S
H450 C421 0.980 . S
H451 C387 0.930 . S
H452 C391 0.930 . S
H453 C392 0.961 . S
H454 C392 0.960 . S
H455 C392 0.958 . S
H456 C393 0.961 . S
H457 C393 0.960 . S
H458 C393 0.960 . S
H459 C395 0.980 . S
H460 C394 0.961 . S
H461 C394 0.961 . S
H462 C394 0.959 . S
H463 C397 0.932 . S
H464 C401 0.929 . S
H465 C402 0.961 . S
H466 C402 0.959 . S
H467 C402 0.959 . S
H468 C403 0.960 . S
H469 C403 0.962 . S
H470 C403 0.961 . S
H471 C405 0.929 . S
H472 C408 0.930 . S
H473 C409 0.929 . S
H474 C412 0.930 . S
H475 C415 0.929 . S
H476 C416 0.930 . S
H477 C420 0.962 . S
H478 C420 0.959 . S
H479 C420 0.958 . S
C480 C481 1.560 . S
C480 H541 0.959 . S
C480 H542 0.959 . S
C480 H543 0.960 . S
C481 C480 1.560 . S
C481 O536 1.426 . S
C481 H540 0.980 . S
C482 C483 1.407 . S
C482 C487 1.418 . S
C482 O536 1.334 . S
C483 C482 1.407 . S
C483 C484 1.360 . S
C483 H544 0.929 . S
C484 C483 1.360 . S
C484 C485 1.401 . S
C484 C488 1.527 . S
C485 C484 1.401 . S
C485 C486 1.405 . S
C485 C518 1.587 . S
C486 C485 1.405 . S
C486 C487 1.332 . S
C486 C489 1.496 . S
C487 C482 1.418 . S
C487 C486 1.332 . S
C487 H545 0.929 . S
C488 C484 1.527 . S
C488 H546 0.959 . S
C488 H547 0.961 . S
C488 H548 0.961 . S
C489 C486 1.496 . S
C489 H549 0.960 . S
C489 H550 0.960 . S
C489 H551 0.961 . S
C490 C491 1.517 . S
C490 H553 0.961 . S
C490 H554 0.960 . S
C490 H555 0.959 1_655 S
C491 C490 1.517 . S
C491 O539 1.468 . S
C491 H552 0.980 . S
C492 C493 1.349 . S
C492 C497 1.367 . S
C492 O539 1.408 . S
C493 C492 1.349 . S
C493 C494 1.407 . S
C493 H556 0.930 . S
C494 C493 1.407 . S
C494 C495 1.449 . S
C494 C498 1.535 . S
C495 C494 1.449 . S
C495 C496 1.384 . S
C495 C520 1.553 . S
C496 C495 1.384 . S
C496 C497 1.364 . S
C496 C499 1.450 . S
C497 C492 1.367 . S
C497 C496 1.364 . S
C497 H557 0.931 . S
C498 C494 1.535 . S
C498 H558 0.959 . S
C498 H559 0.961 . S
C498 H560 0.959 . S
C499 C496 1.450 . S
C499 H561 0.960 . S
C499 H562 0.960 . S
C499 H563 0.960 . S
C500 C501 1.309 . S
C500 C505 1.304 . S
C500 O538 1.435 . S
C501 C500 1.309 . S
C501 C502 1.476 . S
C501 H565 0.930 . S
C502 C501 1.476 . S
C502 C503 1.400 . S
C502 C506 1.567 . S
C503 C502 1.400 . S
C503 C504 1.373 . S
C503 C525 1.432 . S
C504 C503 1.373 . S
C504 C505 1.339 . S
C504 C507 1.530 . S
C505 C500 1.304 . S
C505 C504 1.339 . S
C505 H566 0.930 . S
C506 C502 1.567 . S
C506 H567 0.961 . S
C506 H568 0.960 . S
C506 H569 0.958 . S
C507 C504 1.530 . S
C507 H570 0.961 . S
C507 H571 0.960 . S
C507 H572 0.960 . S
C508 C509 1.530 . S
C508 H574 0.961 . S
C508 H575 0.961 . S
C508 H576 0.959 . S
C509 C508 1.530 . S
C509 O537 1.412 . S
C509 H573 0.980 . S
C510 C511 1.288 . S
C510 C515 1.377 . S
C510 O537 1.393 . S
C511 C510 1.288 . S
C511 C512 1.369 . S
C511 H577 0.932 . S
C512 C511 1.369 . S
C512 C513 1.398 . S
C512 C516 1.527 . S
C513 C512 1.398 . S
C513 C514 1.380 . S
C513 C527 1.497 . S
C514 C513 1.380 . S
C514 C515 1.383 . S
C514 C517 1.603 . S
C515 C510 1.377 . S
C515 C514 1.383 . S
C515 H578 0.929 . S
C516 C512 1.527 . S
C516 H579 0.961 . S
C516 H580 0.959 . S
C516 H581 0.959 . S
C517 C514 1.603 . S
C517 H582 0.960 . S
C517 H583 0.962 . S
C517 H584 0.961 . S
C518 C485 1.587 . S
C518 C519 1.360 . S
C518 C531 1.412 . S
C519 C518 1.360 . S
C519 C520 1.365 . S
C519 H585 0.929 . S
C520 C495 1.553 . S
C520 C519 1.365 . S
C520 C521 1.404 . S
C521 C520 1.404 . S
C521 C522 1.395 . S
C521 C532 1.451 . S
C522 C521 1.395 . S
C522 C523 1.322 . S
C522 H586 0.930 . S
C523 C522 1.322 . S
C523 C524 1.459 . S
C523 H587 0.929 . S
C524 C523 1.459 . S
C524 C525 1.445 . S
C524 C533 1.395 . S
C525 C503 1.432 . S
C525 C524 1.445 . S
C525 C526 1.370 . S
C526 C525 1.370 . S
C526 C527 1.438 . S
C526 H588 0.930 . S
C527 C513 1.497 . S
C527 C526 1.438 . S
C527 C528 1.360 . S
C528 C527 1.360 . S
C528 C529 1.401 . S
C528 C533 1.446 . S
C529 C528 1.401 . S
C529 C530 1.347 . S
C529 H589 0.929 . S
C530 C529 1.347 . S
C530 C531 1.455 . S
C530 H590 0.930 . S
C531 C518 1.412 . S
C531 C530 1.455 . S
C531 C532 1.331 . S
C532 C521 1.451 . S
C532 C531 1.331 . S
C532 C533 1.497 . S
C533 C524 1.395 . S
C533 C528 1.446 . S
C533 C532 1.497 . S
C534 C535 1.582 . S
C534 H591 0.962 . S
C534 H592 0.959 . S
C534 H593 0.958 . S
C535 C534 1.582 . S
C535 O538 1.458 . S
C535 H564 0.980 . S
O536 C481 1.426 . S
O536 C482 1.334 . S
O537 C509 1.412 . S
O537 C510 1.393 . S
O538 C500 1.435 . S
O538 C535 1.458 . S
O539 C491 1.468 . S
O539 C492 1.408 . S
H540 C481 0.980 . S
H541 C480 0.959 . S
H542 C480 0.959 . S
H543 C480 0.960 . S
H544 C483 0.929 . S
H545 C487 0.929 . S
H546 C488 0.959 . S
H547 C488 0.961 . S
H548 C488 0.961 . S
H549 C489 0.960 . S
H550 C489 0.960 . S
H551 C489 0.961 . S
H552 C491 0.980 . S
H553 C490 0.961 . S
H554 C490 0.960 . S
H555 C490 0.959 1_455 S
H556 C493 0.930 . S
H557 C497 0.931 . S
H558 C498 0.959 . S
H559 C498 0.961 . S
H560 C498 0.959 . S
H561 C499 0.960 . S
H562 C499 0.960 . S
H563 C499 0.960 . S
H564 C535 0.980 . S
H565 C501 0.930 . S
H566 C505 0.930 . S
H567 C506 0.961 . S
H568 C506 0.960 . S
H569 C506 0.958 . S
H570 C507 0.961 . S
H571 C507 0.960 . S
H572 C507 0.960 . S
H573 C509 0.980 . S
H574 C508 0.961 . S
H575 C508 0.961 . S
H576 C508 0.959 . S
H577 C511 0.932 . S
H578 C515 0.929 . S
H579 C516 0.961 . S
H580 C516 0.959 . S
H581 C516 0.959 . S
H582 C517 0.960 . S
H583 C517 0.962 . S
H584 C517 0.961 . S
H585 C519 0.929 . S
H586 C522 0.930 . S
H587 C523 0.929 . S
H588 C526 0.930 . S
H589 C529 0.929 . S
H590 C530 0.930 . S
H591 C534 0.962 . S
H592 C534 0.959 . S
H593 C534 0.958 . S
C594 C595 1.560 . S
C594 H655 0.959 . S
C594 H656 0.959 . S
C594 H657 0.960 . S
C595 C594 1.560 . S
C595 O650 1.426 . S
C595 H654 0.980 . S
C596 C597 1.407 . S
C596 C601 1.418 . S
C596 O650 1.334 . S
C597 C596 1.407 . S
C597 C598 1.360 . S
C597 H658 0.929 . S
C598 C597 1.360 . S
C598 C599 1.401 . S
C598 C602 1.527 . S
C599 C598 1.401 . S
C599 C600 1.405 . S
C599 C632 1.587 . S
C600 C599 1.405 . S
C600 C601 1.332 . S
C600 C603 1.496 . S
C601 C596 1.418 . S
C601 C600 1.332 . S
C601 H659 0.929 . S
C602 C598 1.527 . S
C602 H660 0.959 . S
C602 H661 0.961 . S
C602 H662 0.961 . S
C603 C600 1.496 . S
C603 H663 0.960 . S
C603 H664 0.960 . S
C603 H665 0.961 . S
C604 C605 1.517 . S
C604 H667 0.961 . S
C604 H668 0.960 . S
C604 H669 0.959 . S
C605 C604 1.517 . S
C605 O653 1.468 . S
C605 H666 0.980 . S
C606 C607 1.349 . S
C606 C611 1.367 . S
C606 O653 1.408 . S
C607 C606 1.349 . S
C607 C608 1.407 . S
C607 H670 0.930 . S
C608 C607 1.407 . S
C608 C609 1.449 . S
C608 C612 1.535 . S
C609 C608 1.449 . S
C609 C610 1.384 . S
C609 C634 1.553 . S
C610 C609 1.384 . S
C610 C611 1.364 . S
C610 C613 1.450 . S
C611 C606 1.367 . S
C611 C610 1.364 . S
C611 H671 0.931 . S
C612 C608 1.535 . S
C612 H672 0.959 . S
C612 H673 0.961 . S
C612 H674 0.959 . S
C613 C610 1.450 . S
C613 H675 0.960 . S
C613 H676 0.960 . S
C613 H677 0.960 . S
C614 C615 1.309 . S
C614 C619 1.304 . S
C614 O652 1.435 . S
C615 C614 1.309 . S
C615 C616 1.476 . S
C615 H679 0.930 . S
C616 C615 1.476 . S
C616 C617 1.400 . S
C616 C620 1.567 . S
C617 C616 1.400 . S
C617 C618 1.373 . S
C617 C639 1.432 . S
C618 C617 1.373 . S
C618 C619 1.339 . S
C618 C621 1.530 . S
C619 C614 1.304 . S
C619 C618 1.339 . S
C619 H680 0.930 . S
C620 C616 1.567 . S
C620 H681 0.961 . S
C620 H682 0.960 . S
C620 H683 0.958 . S
C621 C618 1.530 . S
C621 H684 0.961 . S
C621 H685 0.960 . S
C621 H686 0.960 . S
C622 C623 1.530 . S
C622 H688 0.961 . S
C622 H689 0.961 . S
C622 H690 0.959 . S
C623 C622 1.530 . S
C623 O651 1.412 . S
C623 H687 0.980 . S
C624 C625 1.288 . S
C624 C629 1.377 . S
C624 O651 1.393 . S
C625 C624 1.288 . S
C625 C626 1.369 . S
C625 H691 0.932 . S
C626 C625 1.369 . S
C626 C627 1.398 . S
C626 C630 1.527 . S
C627 C626 1.398 . S
C627 C628 1.380 . S
C627 C641 1.497 . S
C628 C627 1.380 . S
C628 C629 1.383 . S
C628 C631 1.603 . S
C629 C624 1.377 . S
C629 C628 1.383 . S
C629 H692 0.929 . S
C630 C626 1.527 . S
C630 H693 0.961 . S
C630 H694 0.959 . S
C630 H695 0.959 . S
C631 C628 1.603 . S
C631 H696 0.960 . S
C631 H697 0.962 . S
C631 H698 0.961 . S
C632 C599 1.587 . S
C632 C633 1.360 . S
C632 C645 1.412 . S
C633 C632 1.360 . S
C633 C634 1.365 . S
C633 H699 0.929 . S
C634 C609 1.553 . S
C634 C633 1.365 . S
C634 C635 1.404 . S
C635 C634 1.404 . S
C635 C636 1.395 . S
C635 C646 1.451 . S
C636 C635 1.395 . S
C636 C637 1.322 . S
C636 H700 0.930 . S
C637 C636 1.322 . S
C637 C638 1.459 . S
C637 H701 0.929 . S
C638 C637 1.459 . S
C638 C639 1.445 . S
C638 C647 1.395 . S
C639 C617 1.432 . S
C639 C638 1.445 . S
C639 C640 1.370 . S
C640 C639 1.370 . S
C640 C641 1.438 . S
C640 H702 0.930 . S
C641 C627 1.497 . S
C641 C640 1.438 . S
C641 C642 1.360 . S
C642 C641 1.360 . S
C642 C643 1.401 . S
C642 C647 1.446 . S
C643 C642 1.401 . S
C643 C644 1.347 . S
C643 H703 0.929 . S
C644 C643 1.347 . S
C644 C645 1.455 . S
C644 H704 0.930 . S
C645 C632 1.412 . S
C645 C644 1.455 . S
C645 C646 1.331 . S
C646 C635 1.451 . S
C646 C645 1.331 . S
C646 C647 1.497 . S
C647 C638 1.395 . S
C647 C642 1.446 . S
C647 C646 1.497 . S
C648 C649 1.582 . S
C648 H705 0.962 . S
C648 H706 0.959 . S
C648 H707 0.958 . S
C649 C648 1.582 . S
C649 O652 1.458 . S
C649 H678 0.980 . S
O650 C595 1.426 . S
O650 C596 1.334 . S
O651 C623 1.412 . S
O651 C624 1.393 . S
O652 C614 1.435 . S
O652 C649 1.458 . S
O653 C605 1.468 . S
O653 C606 1.408 . S
H654 C595 0.980 . S
H655 C594 0.959 . S
H656 C594 0.959 . S
H657 C594 0.960 . S
H658 C597 0.929 . S
H659 C601 0.929 . S
H660 C602 0.959 . S
H661 C602 0.961 . S
H662 C602 0.961 . S
H663 C603 0.960 . S
H664 C603 0.960 . S
H665 C603 0.961 . S
H666 C605 0.980 . S
H667 C604 0.961 . S
H668 C604 0.960 . S
H669 C604 0.959 . S
H670 C607 0.930 . S
H671 C611 0.931 . S
H672 C612 0.959 . S
H673 C612 0.961 . S
H674 C612 0.959 . S
H675 C613 0.960 . S
H676 C613 0.960 . S
H677 C613 0.960 . S
H678 C649 0.980 . S
H679 C615 0.930 . S
H680 C619 0.930 . S
H681 C620 0.961 . S
H682 C620 0.960 . S
H683 C620 0.958 . S
H684 C621 0.961 . S
H685 C621 0.960 . S
H686 C621 0.960 . S
H687 C623 0.980 . S
H688 C622 0.961 . S
H689 C622 0.961 . S
H690 C622 0.959 . S
H691 C625 0.932 . S
H692 C629 0.929 . S
H693 C630 0.961 . S
H694 C630 0.959 . S
H695 C630 0.959 . S
H696 C631 0.960 . S
H697 C631 0.962 . S
H698 C631 0.961 . S
H699 C633 0.929 . S
H700 C636 0.930 . S
H701 C637 0.929 . S
H702 C640 0.930 . S
H703 C643 0.929 . S
H704 C644 0.930 . S
H705 C648 0.962 . S
H706 C648 0.959 . S
H707 C648 0.958 . S
C708 C709 1.560 . S
C708 H769 0.959 . S
C708 H770 0.959 . S
C708 H771 0.960 . S
C709 C708 1.560 . S
C709 O764 1.426 . S
C709 H768 0.980 . S
C710 C711 1.407 . S
C710 C715 1.418 . S
C710 O764 1.334 . S
C711 C710 1.407 . S
C711 C712 1.360 . S
C711 H772 0.929 . S
C712 C711 1.360 . S
C712 C713 1.401 . S
C712 C716 1.527 . S
C713 C712 1.401 . S
C713 C714 1.405 . S
C713 C746 1.587 . S
C714 C713 1.405 . S
C714 C715 1.332 . S
C714 C717 1.496 . S
C715 C710 1.418 . S
C715 C714 1.332 . S
C715 H773 0.929 . S
C716 C712 1.527 . S
C716 H774 0.959 . S
C716 H775 0.961 . S
C716 H776 0.961 . S
C717 C714 1.496 . S
C717 H777 0.960 . S
C717 H778 0.960 . S
C717 H779 0.961 . S
C718 C719 1.517 . S
C718 H781 0.961 . S
C718 H782 0.960 . S
C718 H783 0.959 . S
C719 C718 1.517 . S
C719 O767 1.468 . S
C719 H780 0.980 . S
C720 C721 1.349 . S
C720 C725 1.367 . S
C720 O767 1.408 . S
C721 C720 1.349 . S
C721 C722 1.407 . S
C721 H784 0.930 . S
C722 C721 1.407 . S
C722 C723 1.449 . S
C722 C726 1.535 . S
C723 C722 1.449 . S
C723 C724 1.384 . S
C723 C748 1.553 . S
C724 C723 1.384 . S
C724 C725 1.364 . S
C724 C727 1.450 . S
C725 C720 1.367 . S
C725 C724 1.364 . S
C725 H785 0.931 . S
C726 C722 1.535 . S
C726 H786 0.959 . S
C726 H787 0.961 . S
C726 H788 0.959 . S
C727 C724 1.450 . S
C727 H789 0.960 . S
C727 H790 0.960 . S
C727 H791 0.960 . S
C728 C729 1.309 . S
C728 C733 1.304 . S
C728 O766 1.435 . S
C729 C728 1.309 . S
C729 C730 1.476 . S
C729 H793 0.930 . S
C730 C729 1.476 . S
C730 C731 1.400 . S
C730 C734 1.567 . S
C731 C730 1.400 . S
C731 C732 1.373 . S
C731 C753 1.432 . S
C732 C731 1.373 . S
C732 C733 1.339 . S
C732 C735 1.530 . S
C733 C728 1.304 . S
C733 C732 1.339 . S
C733 H794 0.930 . S
C734 C730 1.567 . S
C734 H795 0.961 . S
C734 H796 0.960 . S
C734 H797 0.958 . S
C735 C732 1.530 . S
C735 H798 0.961 . S
C735 H799 0.960 . S
C735 H800 0.960 . S
C736 C737 1.530 . S
C736 H802 0.961 . S
C736 H803 0.961 . S
C736 H804 0.959 . S
C737 C736 1.530 . S
C737 O765 1.412 . S
C737 H801 0.980 . S
C738 C739 1.288 . S
C738 C743 1.377 . S
C738 O765 1.393 . S
C739 C738 1.288 . S
C739 C740 1.369 . S
C739 H805 0.932 . S
C740 C739 1.369 . S
C740 C741 1.398 . S
C740 C744 1.527 . S
C741 C740 1.398 . S
C741 C742 1.380 . S
C741 C755 1.497 . S
C742 C741 1.380 . S
C742 C743 1.383 . S
C742 C745 1.603 . S
C743 C738 1.377 . S
C743 C742 1.383 . S
C743 H806 0.929 . S
C744 C740 1.527 . S
C744 H807 0.961 . S
C744 H808 0.959 . S
C744 H809 0.959 . S
C745 C742 1.603 . S
C745 H810 0.960 . S
C745 H811 0.962 . S
C745 H812 0.961 . S
C746 C713 1.587 . S
C746 C747 1.360 . S
C746 C759 1.412 . S
C747 C746 1.360 . S
C747 C748 1.365 . S
C747 H813 0.929 . S
C748 C723 1.553 . S
C748 C747 1.365 . S
C748 C749 1.404 . S
C749 C748 1.404 . S
C749 C750 1.395 . S
C749 C760 1.451 . S
C750 C749 1.395 . S
C750 C751 1.322 . S
C750 H814 0.930 . S
C751 C750 1.322 . S
C751 C752 1.459 . S
C751 H815 0.929 . S
C752 C751 1.459 . S
C752 C753 1.445 . S
C752 C761 1.395 . S
C753 C731 1.432 . S
C753 C752 1.445 . S
C753 C754 1.370 . S
C754 C753 1.370 . S
C754 C755 1.438 . S
C754 H816 0.930 . S
C755 C741 1.497 . S
C755 C754 1.438 . S
C755 C756 1.360 . S
C756 C755 1.360 . S
C756 C757 1.401 . S
C756 C761 1.446 . S
C757 C756 1.401 . S
C757 C758 1.347 . S
C757 H817 0.929 . S
C758 C757 1.347 . S
C758 C759 1.455 . S
C758 H818 0.930 . S
C759 C746 1.412 . S
C759 C758 1.455 . S
C759 C760 1.331 . S
C760 C749 1.451 . S
C760 C759 1.331 . S
C760 C761 1.497 . S
C761 C752 1.395 . S
C761 C756 1.446 . S
C761 C760 1.497 . S
C762 C763 1.582 . S
C762 H819 0.962 . S
C762 H820 0.959 . S
C762 H821 0.958 . S
C763 C762 1.582 . S
C763 O766 1.458 . S
C763 H792 0.980 . S
O764 C709 1.426 . S
O764 C710 1.334 . S
O765 C737 1.412 . S
O765 C738 1.393 . S
O766 C728 1.435 . S
O766 C763 1.458 . S
O767 C719 1.468 . S
O767 C720 1.408 . S
H768 C709 0.980 . S
H769 C708 0.959 . S
H770 C708 0.959 . S
H771 C708 0.960 . S
H772 C711 0.929 . S
H773 C715 0.929 . S
H774 C716 0.959 . S
H775 C716 0.961 . S
H776 C716 0.961 . S
H777 C717 0.960 . S
H778 C717 0.960 . S
H779 C717 0.961 . S
H780 C719 0.980 . S
H781 C718 0.961 . S
H782 C718 0.960 . S
H783 C718 0.959 . S
H784 C721 0.930 . S
H785 C725 0.931 . S
H786 C726 0.959 . S
H787 C726 0.961 . S
H788 C726 0.959 . S
H789 C727 0.960 . S
H790 C727 0.960 . S
H791 C727 0.960 . S
H792 C763 0.980 . S
H793 C729 0.930 . S
H794 C733 0.930 . S
H795 C734 0.961 . S
H796 C734 0.960 . S
H797 C734 0.958 . S
H798 C735 0.961 . S
H799 C735 0.960 . S
H800 C735 0.960 . S
H801 C737 0.980 . S
H802 C736 0.961 . S
H803 C736 0.961 . S
H804 C736 0.959 . S
H805 C739 0.932 . S
H806 C743 0.929 . S
H807 C744 0.961 . S
H808 C744 0.959 . S
H809 C744 0.959 . S
H810 C745 0.960 . S
H811 C745 0.962 . S
H812 C745 0.961 . S
H813 C747 0.929 . S
H814 C750 0.930 . S
H815 C751 0.929 . S
H816 C754 0.930 . S
H817 C757 0.929 . S
H818 C758 0.930 . S
H819 C762 0.962 . S
H820 C762 0.959 . S
H821 C762 0.958 . S
C822 C823 1.369 . S
C822 C824 1.419 . S
C822 H826 0.930 . S
C823 C822 1.369 . S
C823 C832 1.429 . S
C824 C822 1.419 . S
C824 C825 1.363 . S
C824 H827 0.929 . S
C825 C824 1.363 . S
C825 C831 1.428 . S
H826 C822 0.930 . S
H827 C824 0.929 . S
S828 N829 1.613 . S
S828 N830 1.610 . S
N829 S828 1.613 . S
N829 C832 1.350 . S
N830 S828 1.610 . S
N830 C831 1.351 . S
C831 C825 1.428 . S
C831 N830 1.351 . S
C831 C832 1.434 . S
C832 C823 1.429 . S
C832 N829 1.350 . S
C832 C831 1.434 . S
C833 C834 1.369 . S
C833 C835 1.419 . S
C833 H837 0.930 . S
C834 C833 1.369 . S
C834 C843 1.429 . S
C835 C833 1.419 . S
C835 C836 1.363 . S
C835 H838 0.929 . S
C836 C835 1.363 . S
C836 C842 1.428 . S
H837 C833 0.930 . S
H838 C835 0.929 . S
S839 N840 1.613 . S
S839 N841 1.610 . S
N840 S839 1.613 . S
N840 C843 1.350 . S
N841 S839 1.610 . S
N841 C842 1.351 . S
C842 C836 1.428 . S
C842 N841 1.351 . S
C842 C843 1.434 . S
C843 C834 1.429 . S
C843 N840 1.350 . S
C843 C842 1.434 . S
C844 C845 1.369 . S
C844 C846 1.419 . S
C844 H848 0.930 . S
C845 C844 1.369 . S
C845 C854 1.429 . S
C846 C844 1.419 . S
C846 C847 1.363 . S
C846 H849 0.929 . S
C847 C846 1.363 . S
C847 C853 1.428 . S
H848 C844 0.930 . S
H849 C846 0.929 . S
S850 N851 1.613 . S
S850 N852 1.610 . S
N851 S850 1.613 . S
N851 C854 1.350 . S
N852 S850 1.610 . S
N852 C853 1.351 . S
C853 C847 1.428 . S
C853 N852 1.351 . S
C853 C854 1.434 . S
C854 C845 1.429 . S
C854 N851 1.350 . S
C854 C853 1.434 . S
C855 C856 1.369 . S
C855 C857 1.419 . S
C855 H859 0.930 . S
C856 C855 1.369 . S
C856 C865 1.429 . S
C857 C855 1.419 . S
C857 C858 1.363 . S
C857 H860 0.929 . S
C858 C857 1.363 . S
C858 C864 1.428 . S
H859 C855 0.930 . S
H860 C857 0.929 . S
S861 N862 1.613 1_455 S
S861 N863 1.610 1_455 S
N862 S861 1.613 1_655 S
N862 C865 1.350 . S
N863 S861 1.610 1_655 S
N863 C864 1.351 . S
C864 C858 1.428 . S
C864 N863 1.351 . S
C864 C865 1.434 . S
C865 C856 1.429 . S
C865 N862 1.350 . S
C865 C864 1.434 . S
C866 C867 1.369 . S
C866 C868 1.419 . S
C866 H870 0.930 . S
C867 C866 1.369 . S
C867 C876 1.429 . S
C868 C866 1.419 . S
C868 C869 1.363 . S
C868 H871 0.929 . S
C869 C868 1.363 . S
C869 C875 1.428 . S
H870 C866 0.930 . S
H871 C868 0.929 . S
S872 N873 1.613 1_545 S
S872 N874 1.610 1_545 S
N873 S872 1.613 1_565 S
N873 C876 1.350 . S
N874 S872 1.610 1_565 S
N874 C875 1.351 . S
C875 C869 1.428 . S
C875 N874 1.351 . S
C875 C876 1.434 . S
C876 C867 1.429 . S
C876 N873 1.350 . S
C876 C875 1.434 . S
C877 C878 1.369 . S
C877 C879 1.419 . S
C877 H881 0.930 . S
C878 C877 1.369 . S
C878 C887 1.429 . S
C879 C877 1.419 . S
C879 C880 1.363 . S
C879 H882 0.929 . S
C880 C879 1.363 . S
C880 C886 1.428 . S
H881 C877 0.930 . S
H882 C879 0.929 . S
S883 N884 1.613 . S
S883 N885 1.610 . S
N884 S883 1.613 . S
N884 C887 1.350 . S
N885 S883 1.610 . S
N885 C886 1.351 . S
C886 C880 1.428 . S
C886 N885 1.351 . S
C886 C887 1.434 . S
C887 C878 1.429 . S
C887 N884 1.350 . S
C887 C886 1.434 . S
C888 C889 1.369 . S
C888 C890 1.419 . S
C888 H892 0.930 . S
C889 C888 1.369 . S
C889 C898 1.429 . S
C890 C888 1.419 . S
C890 C891 1.363 . S
C890 H893 0.929 . S
C891 C890 1.363 . S
C891 C897 1.428 . S
H892 C888 0.930 . S
H893 C890 0.929 . S
S894 N895 1.613 1_545 S
S894 N896 1.610 1_545 S
N895 S894 1.613 1_565 S
N895 C898 1.350 . S
N896 S894 1.610 1_565 S
N896 C897 1.351 . S
C897 C891 1.428 . S
C897 N896 1.351 . S
C897 C898 1.434 . S
C898 C889 1.429 . S
C898 N895 1.350 . S
C898 C897 1.434 . S
C899 C900 1.369 . S
C899 C901 1.419 . S
C899 H903 0.930 . S
C900 C899 1.369 . S
C900 C909 1.429 . S
C901 C899 1.419 . S
C901 C902 1.363 . S
C901 H904 0.929 . S
C902 C901 1.363 . S
C902 C908 1.428 . S
H903 C899 0.930 . S
H904 C901 0.929 . S
S905 N906 1.613 . S
S905 N907 1.610 . S
N906 S905 1.613 . S
N906 C909 1.350 . S
N907 S905 1.610 . S
N907 C908 1.351 . S
C908 C902 1.428 . S
C908 N907 1.351 . S
C908 C909 1.434 . S
C909 C900 1.429 . S
C909 N906 1.350 . S
C909 C908 1.434 . S
C910 C911 1.369 . S
C910 C912 1.419 . S
C910 H914 0.930 . S
C911 C910 1.369 . S
C911 C920 1.429 . S
C912 C910 1.419 . S
C912 C913 1.363 . S
C912 H915 0.929 . S
C913 C912 1.363 . S
C913 C919 1.428 . S
H914 C910 0.930 . S
H915 C912 0.929 . S
S916 N917 1.613 . S
S916 N918 1.610 . S
N917 S916 1.613 . S
N917 C920 1.350 . S
N918 S916 1.610 . S
N918 C919 1.351 . S
C919 C913 1.428 . S
C919 N918 1.351 . S
C919 C920 1.434 . S
C920 C911 1.429 . S
C920 N917 1.350 . S
C920 C919 1.434 . S
C921 C922 1.369 . S
C921 C923 1.419 . S
C921 H925 0.930 . S
C922 C921 1.369 . S
C922 C931 1.429 . S
C923 C921 1.419 . S
C923 C924 1.363 . S
C923 H926 0.929 . S
C924 C923 1.363 . S
C924 C930 1.428 . S
H925 C921 0.930 . S
H926 C923 0.929 . S
S927 N928 1.613 1_565 S
S927 N929 1.610 1_565 S
N928 S927 1.613 1_545 S
N928 C931 1.350 . S
N929 S927 1.610 1_545 S
N929 C930 1.351 . S
C930 C924 1.428 . S
C930 N929 1.351 . S
C930 C931 1.434 . S
C931 C922 1.429 . S
C931 N928 1.350 . S
C931 C930 1.434 . S
C932 C933 1.369 . S
C932 C934 1.419 . S
C932 H936 0.930 . S
C933 C932 1.369 . S
C933 C942 1.429 . S
C934 C932 1.419 . S
C934 C935 1.363 . S
C934 H937 0.929 . S
C935 C934 1.363 . S
C935 C941 1.428 . S
H936 C932 0.930 . S
H937 C934 0.929 . S
S938 N939 1.613 . S
S938 N940 1.610 . S
N939 S938 1.613 . S
N939 C942 1.350 . S
N940 S938 1.610 . S
N940 C941 1.351 . S
C941 C935 1.428 . S
C941 N940 1.351 . S
C941 C942 1.434 . S
C942 C933 1.429 . S
C942 N939 1.350 . S
C942 C941 1.434 . S
C943 C944 1.369 . S
C943 C945 1.419 . S
C943 H947 0.930 . S
C944 C943 1.369 . S
C944 C953 1.429 . S
C945 C943 1.419 . S
C945 C946 1.363 . S
C945 H948 0.929 . S
C946 C945 1.363 . S
C946 C952 1.428 . S
H947 C943 0.930 . S
H948 C945 0.929 . S
S949 N950 1.613 1_455 S
S949 N951 1.610 1_455 S
N950 S949 1.613 1_655 S
N950 C953 1.350 . S
N951 S949 1.610 1_655 S
N951 C952 1.351 . S
C952 C946 1.428 . S
C952 N951 1.351 . S
C952 C953 1.434 . S
C953 C944 1.429 . S
C953 N950 1.350 . S
C953 C952 1.434 . S
C954 C955 1.369 . S
C954 C956 1.419 . S
C954 H958 0.930 1_655 S
C955 C954 1.369 . S
C955 C964 1.429 . S
C956 C954 1.419 . S
C956 C957 1.363 . S
C956 H959 0.929 . S
C957 C956 1.363 . S
C957 C963 1.428 . S
H958 C954 0.930 1_455 S
H959 C956 0.929 . S
S960 N961 1.613 . S
S960 N962 1.610 . S
N961 S960 1.613 . S
N961 C964 1.350 . S
N962 S960 1.610 . S
N962 C963 1.351 . S
C963 C957 1.428 . S
C963 N962 1.351 . S
C963 C964 1.434 . S
C964 C955 1.429 . S
C964 N961 1.350 . S
C964 C963 1.434 . S
C965 C966 1.369 . S
C965 C967 1.419 . S
C965 H969 0.930 . S
C966 C965 1.369 . S
C966 C975 1.429 . S
C967 C965 1.419 . S
C967 C968 1.363 . S
C967 H970 0.929 . S
C968 C967 1.363 . S
C968 C974 1.428 . S
H969 C965 0.930 . S
H970 C967 0.929 . S
S971 N972 1.613 . S
S971 N973 1.610 . S
N972 S971 1.613 . S
N972 C975 1.350 . S
N973 S971 1.610 . S
N973 C974 1.351 . S
C974 C968 1.428 . S
C974 N973 1.351 . S
C974 C975 1.434 . S
C975 C966 1.429 . S
C975 N972 1.350 . S
C975 C974 1.434 . S
C976 C977 1.369 . S
C976 C978 1.419 . S
C976 H980 0.930 . S
C977 C976 1.369 . S
C977 C986 1.429 . S
C978 C976 1.419 . S
C978 C979 1.363 . S
C978 H981 0.929 . S
C979 C978 1.363 . S
C979 C985 1.428 . S
H980 C976 0.930 . S
H981 C978 0.929 . S
S982 N983 1.613 . S
S982 N984 1.610 . S
N983 S982 1.613 . S
N983 C986 1.350 . S
N984 S982 1.610 . S
N984 C985 1.351 . S
C985 C979 1.428 . S
C985 N984 1.351 . S
C985 C986 1.434 . S
C986 C977 1.429 . S
C986 N983 1.350 . S
C986 C985 1.434 . S
C987 C988 1.369 . S
C987 C989 1.419 . S
C987 H991 0.930 . S
C988 C987 1.369 . S
C988 C997 1.429 . S
C989 C987 1.419 . S
C989 C990 1.363 . S
C989 H992 0.929 . S
C990 C989 1.363 . S
C990 C996 1.428 . S
H991 C987 0.930 . S
H992 C989 0.929 . S
S993 N994 1.613 . S
S993 N995 1.610 . S
N994 S993 1.613 . S
N994 C997 1.350 . S
N995 S993 1.610 . S
N995 C996 1.351 . S
C996 C990 1.428 . S
C996 N995 1.351 . S
C996 C997 1.434 . S
C997 C988 1.429 . S
C997 N994 1.350 . S
C997 C996 1.434 . S
C998 C999 1.369 . S
C998 C1000 1.419 . S
C998 H1002 0.930 . S
C999 C998 1.369 . S
C999 C1008 1.429 . S
C1000 C998 1.419 . S
C1000 C1001 1.363 . S
C1000 H1003 0.929 . S
C1001 C1000 1.363 . S
C1001 C1007 1.428 . S
H1002 C998 0.930 . S
H1003 C1000 0.929 . S
S1004 N1005 1.613 . S
S1004 N1006 1.610 . S
N1005 S1004 1.613 . S
N1005 C1008 1.350 . S
N1006 S1004 1.610 . S
N1006 C1007 1.351 . S
C1007 C1001 1.428 . S
C1007 N1006 1.351 . S
C1007 C1008 1.434 . S
C1008 C999 1.429 . S
C1008 N1005 1.350 . S
C1008 C1007 1.434 . S
C1009 C1010 1.369 . S
C1009 C1011 1.419 . S
C1009 H1013 0.930 . S
C1010 C1009 1.369 . S
C1010 C1019 1.429 . S
C1011 C1009 1.419 . S
C1011 C1012 1.363 . S
C1011 H1014 0.929 . S
C1012 C1011 1.363 . S
C1012 C1018 1.428 . S
H1013 C1009 0.930 . S
H1014 C1011 0.929 . S
S1015 N1016 1.613 . S
S1015 N1017 1.610 . S
N1016 S1015 1.613 . S
N1016 C1019 1.350 . S
N1017 S1015 1.610 . S
N1017 C1018 1.351 . S
C1018 C1012 1.428 . S
C1018 N1017 1.351 . S
C1018 C1019 1.434 . S
C1019 C1010 1.429 . S
C1019 N1016 1.350 . S
C1019 C1018 1.434 . S
C1020 C1021 1.369 . S
C1020 C1022 1.419 . S
C1020 H1024 0.930 . S
C1021 C1020 1.369 . S
C1021 C1030 1.429 . S
C1022 C1020 1.419 . S
C1022 C1023 1.363 . S
C1022 H1025 0.929 . S
C1023 C1022 1.363 . S
C1023 C1029 1.428 . S
H1024 C1020 0.930 . S
H1025 C1022 0.929 . S
S1026 N1027 1.613 . S
S1026 N1028 1.610 . S
N1027 S1026 1.613 . S
N1027 C1030 1.350 . S
N1028 S1026 1.610 . S
N1028 C1029 1.351 . S
C1029 C1023 1.428 . S
C1029 N1028 1.351 . S
C1029 C1030 1.434 . S
C1030 C1021 1.429 . S
C1030 N1027 1.350 . S
C1030 C1029 1.434 . S
C1031 C1032 1.369 . S
C1031 C1033 1.419 . S
C1031 H1035 0.930 . S
C1032 C1031 1.369 . S
C1032 C1041 1.429 . S
C1033 C1031 1.419 . S
C1033 C1034 1.363 . S
C1033 H1036 0.929 . S
C1034 C1033 1.363 . S
C1034 C1040 1.428 . S
H1035 C1031 0.930 . S
H1036 C1033 0.929 . S
S1037 N1038 1.613 . S
S1037 N1039 1.610 . S
N1038 S1037 1.613 . S
N1038 C1041 1.350 . S
N1039 S1037 1.610 . S
N1039 C1040 1.351 . S
C1040 C1034 1.428 . S
C1040 N1039 1.351 . S
C1040 C1041 1.434 . S
C1041 C1032 1.429 . S
C1041 N1038 1.350 . S
C1041 C1040 1.434 . S
C1042 C1043 1.369 . S
C1042 C1044 1.419 . S
C1042 H1046 0.930 . S
C1043 C1042 1.369 . S
C1043 C1052 1.429 . S
C1044 C1042 1.419 . S
C1044 C1045 1.363 . S
C1044 H1047 0.929 . S
C1045 C1044 1.363 . S
C1045 C1051 1.428 . S
H1046 C1042 0.930 . S
H1047 C1044 0.929 . S
S1048 N1049 1.613 . S
S1048 N1050 1.610 . S
N1049 S1048 1.613 . S
N1049 C1052 1.350 . S
N1050 S1048 1.610 . S
N1050 C1051 1.351 . S
C1051 C1045 1.428 . S
C1051 N1050 1.351 . S
C1051 C1052 1.434 . S
C1052 C1043 1.429 . S
C1052 N1049 1.350 . S
C1052 C1051 1.434 . S
C1053 C1054 1.369 . S
C1053 C1055 1.419 . S
C1053 H1057 0.930 . S
C1054 C1053 1.369 . S
C1054 C1063 1.429 . S
C1055 C1053 1.419 . S
C1055 C1056 1.363 . S
C1055 H1058 0.929 . S
C1056 C1055 1.363 . S
C1056 C1062 1.428 . S
H1057 C1053 0.930 . S
H1058 C1055 0.929 . S
S1059 N1060 1.613 . S
S1059 N1061 1.610 . S
N1060 S1059 1.613 . S
N1060 C1063 1.350 . S
N1061 S1059 1.610 . S
N1061 C1062 1.351 . S
C1062 C1056 1.428 . S
C1062 N1061 1.351 . S
C1062 C1063 1.434 . S
C1063 C1054 1.429 . S
C1063 N1060 1.350 . S
C1063 C1062 1.434 . S
C1064 C1065 1.369 . S
C1064 C1066 1.419 . S
C1064 H1068 0.930 . S
C1065 C1064 1.369 . S
C1065 C1074 1.429 . S
C1066 C1064 1.419 . S
C1066 C1067 1.363 . S
C1066 H1069 0.929 . S
C1067 C1066 1.363 . S
C1067 C1073 1.428 . S
H1068 C1064 0.930 . S
H1069 C1066 0.929 . S
S1070 N1071 1.613 . S
S1070 N1072 1.610 . S
N1071 S1070 1.613 . S
N1071 C1074 1.350 . S
N1072 S1070 1.610 . S
N1072 C1073 1.351 . S
C1073 C1067 1.428 . S
C1073 N1072 1.351 . S
C1073 C1074 1.434 . S
C1074 C1065 1.429 . S
C1074 N1071 1.350 . S
C1074 C1073 1.434 . S
C1075 C1076 1.369 . S
C1075 C1077 1.419 . S
C1075 H1079 0.930 . S
C1076 C1075 1.369 . S
C1076 C1085 1.429 . S
C1077 C1075 1.419 . S
C1077 C1078 1.363 . S
C1077 H1080 0.929 . S
C1078 C1077 1.363 . S
C1078 C1084 1.428 . S
H1079 C1075 0.930 . S
H1080 C1077 0.929 . S
S1081 N1082 1.613 . S
S1081 N1083 1.610 . S
N1082 S1081 1.613 . S
N1082 C1085 1.350 . S
N1083 S1081 1.610 . S
N1083 C1084 1.351 . S
C1084 C1078 1.428 . S
C1084 N1083 1.351 . S
C1084 C1085 1.434 . S
C1085 C1076 1.429 . S
C1085 N1082 1.350 . S
C1085 C1084 1.434 . S
C823 C7 2.086 . S
C825 C167 1.991 . S
C834 C30 1.877 . S
C836 C307 1.753 . S
C847 C395 1.815 . S
C845 N58 1.837 . S
C858 C535 1.652 . S
C856 N81 1.640 . S
C869 C649 1.842 . S
C867 C99 1.994 . S
C880 C719 0.841 . S
C878 N127 1.681 . S
C889 N25 1.927 . S
C891 C377 1.020 . S
C900 C62 1.764 . S
C902 C481 1.175 . S
C913 C595 1.401 . S
C911 C85 1.928 . S
C924 C737 1.672 . S
C922 N94 1.703 . S
C933 C131 2.165 . S
C935 C149 1.074 . S
C946 C253 1.093 . S
C944 N2 1.505 . S
C957 C491 1.750 . S
C955 C16 2.084 1_655 S
C966 C39 1.915 . S
C968 C605 1.599 . S
C979 C763 1.243 . S
C977 N48 2.033 . S
C988 N71 1.621 . S
C990 C139 1.563 . S
C999 C108 2.198 . S
C1001 C263 1.773 . S
C1010 N117 1.688 . S
C1012 C367 1.728 . S
C1021 N35 1.924 . S
C1023 C709 1.893 . S
C1034 C193 1.154 . S
C1032 C53 1.955 . S
C1043 C76 2.144 . S
C1045 C281 1.413 . S
C1054 N104 1.805 . S
C1056 C421 0.991 . S
C1065 C122 1.989 . S
C1067 C509 1.392 . S
C1076 N12 1.675 . S
C1078 C623 1.188 . S
