# Generated by pormake.
# Topology cml, (3,6)-cn, num edge types: 1
# Building blocks:
#     Node 0, Type 0, BuildingBlock: INOVEN_clean_linker_0, # of connection points: 3
#     Node 1, Type 0, BuildingBlock: INOVEN_clean_linker_0, # of connection points: 3
#     Node 2, Type 0, BuildingBlock: INOVEN_clean_linker_0, # of connection points: 3
#     Node 3, Type 0, BuildingBlock: INOVEN_clean_linker_0, # of connection points: 3
#     Node 4, Type 0, BuildingBlock: INOVEN_clean_linker_0, # of connection points: 3
#     Node 5, Type 0, BuildingBlock: INOVEN_clean_linker_0, # of connection points: 3
#     Node 6, Type 0, BuildingBlock: INOVEN_clean_linker_0, # of connection points: 3
#     Node 7, Type 0, BuildingBlock: INOVEN_clean_linker_0, # of connection points: 3
#     Node 8, Type 1, BuildingBlock: OJICUG_clean_sbu_0, # of connection points: 6
#     Node 9, Type 1, BuildingBlock: OJICUG_clean_sbu_0, # of connection points: 6
#     Node 10, Type 1, BuildingBlock: OJICUG_clean_sbu_0, # of connection points: 6
#     Node 11, Type 1, BuildingBlock: OJICUG_clean_sbu_0, # of connection points: 6
#     Edge 12, Type (0, 1), BuildingBlock: CIFDUS_clean_linker_0, # of connection points: 2
#     Edge 13, Type (0, 1), BuildingBlock: CIFDUS_clean_linker_0, # of connection points: 2
#     Edge 14, Type (0, 1), BuildingBlock: CIFDUS_clean_linker_0, # of connection points: 2
#     Edge 15, Type (0, 1), BuildingBlock: CIFDUS_clean_linker_0, # of connection points: 2
#     Edge 16, Type (0, 1), BuildingBlock: CIFDUS_clean_linker_0, # of connection points: 2
#     Edge 17, Type (0, 1), BuildingBlock: CIFDUS_clean_linker_0, # of connection points: 2
#     Edge 18, Type (0, 1), BuildingBlock: CIFDUS_clean_linker_0, # of connection points: 2
#     Edge 19, Type (0, 1), BuildingBlock: CIFDUS_clean_linker_0, # of connection points: 2
#     Edge 20, Type (0, 1), BuildingBlock: CIFDUS_clean_linker_0, # of connection points: 2
#     Edge 21, Type (0, 1), BuildingBlock: CIFDUS_clean_linker_0, # of connection points: 2
#     Edge 22, Type (0, 1), BuildingBlock: CIFDUS_clean_linker_0, # of connection points: 2
#     Edge 23, Type (0, 1), BuildingBlock: CIFDUS_clean_linker_0, # of connection points: 2
#     Edge 24, Type (0, 1), BuildingBlock: CIFDUS_clean_linker_0, # of connection points: 2
#     Edge 25, Type (0, 1), BuildingBlock: CIFDUS_clean_linker_0, # of connection points: 2
#     Edge 26, Type (0, 1), BuildingBlock: CIFDUS_clean_linker_0, # of connection points: 2
#     Edge 27, Type (0, 1), BuildingBlock: CIFDUS_clean_linker_0, # of connection points: 2
#     Edge 28, Type (0, 1), BuildingBlock: CIFDUS_clean_linker_0, # of connection points: 2
#     Edge 29, Type (0, 1), BuildingBlock: CIFDUS_clean_linker_0, # of connection points: 2
#     Edge 30, Type (0, 1), BuildingBlock: CIFDUS_clean_linker_0, # of connection points: 2
#     Edge 31, Type (0, 1), BuildingBlock: CIFDUS_clean_linker_0, # of connection points: 2
#     Edge 32, Type (0, 1), BuildingBlock: CIFDUS_clean_linker_0, # of connection points: 2
#     Edge 33, Type (0, 1), BuildingBlock: CIFDUS_clean_linker_0, # of connection points: 2
#     Edge 34, Type (0, 1), BuildingBlock: CIFDUS_clean_linker_0, # of connection points: 2
#     Edge 35, Type (0, 1), BuildingBlock: CIFDUS_clean_linker_0, # of connection points: 2
# Relax obj value: 0.008
# Max RMSD: 0.049
# Mean RMSD: 0.043
data_MOF--net-cml--node1-OJICUG_clean_sbu_0--node2-INOVEN_clean_linker_0--edge1-CIFDUS_clean_linker_0
_symmetry_space_group_name_H-M    P1
_symmetry_Int_Tables_number       1
_symmetry_cell_setting            triclinic
loop_
_symmetry_equiv_pos_as_xyz
'x, y, z'
_cell_length_a     35.304768
_cell_length_b     34.695303
_cell_length_c     31.661881
_cell_angle_alpha  89.158363
_cell_angle_beta   91.070626
_cell_angle_gamma 91.365108
loop_
_atom_site_label
_atom_site_type_symbol
_atom_site_fract_x
_atom_site_fract_y
_atom_site_fract_z
_atom_type_partial_charge
H0 H 0.28204 0.33184 0.07209 0.0
H1 H 0.35625 0.42825 0.04431 0.0
H2 H 0.27748 0.38734 0.94919 0.0
N3 N 0.24581 0.33048 -0.00189 0.0
N4 N 0.23061 0.33128 0.96223 0.0
C5 C 0.29182 0.35417 0.05033 0.0
C6 C 0.32046 0.38044 0.06301 0.0
C7 C 0.27565 0.35676 0.00954 0.0
C8 C 0.28924 0.38534 0.98097 0.0
C9 C 0.31803 0.41157 -0.00641 0.0
C10 C 0.33311 0.40898 0.03472 0.0
H11 H 0.73763 0.68859 0.56043 0.0
H12 H 0.65537 0.59885 0.53302 0.0
H13 H 0.743 0.62573 0.44421 0.0
N14 N 0.77696 0.68258 0.49122 0.0
N15 N 0.79568 0.67713 0.4589 0.0
C16 C 0.72631 0.6665 0.53954 0.0
C17 C 0.69471 0.64398 0.55154 0.0
C18 C 0.74411 0.66001 0.50111 0.0
C19 C 0.72951 0.63107 0.47394 0.0
C20 C 0.69772 0.60848 0.48571 0.0
C21 C 0.68056 0.61541 0.52434 0.0
H22 H 0.76178 0.34686 0.05841 0.0
H23 H 0.6888 0.44348 0.0531 0.0
H24 H 0.74536 0.40771 0.94089 0.0
N25 N 0.78279 0.34937 0.98107 0.0
N26 N 0.79405 0.35062 0.944 0.0
C27 C 0.74909 0.37048 0.04084 0.0
C28 C 0.72336 0.39399 0.06039 0.0
C29 C 0.75781 0.37593 -0.00162 0.0
C30 C 0.7401 0.40519 0.97438 0.0
C31 C 0.71432 0.42973 -0.00632 0.0
C32 C 0.70778 0.4247 0.03728 0.0
H33 H 0.27224 0.55962 0.44113 0.0
H34 H 0.34593 0.53748 0.54816 0.0
H35 H 0.2774 0.63773 0.54546 0.0
N36 N 0.24731 0.62624 0.46778 0.0
N37 N 0.24229 0.65952 0.48053 0.0
C38 C 0.28286 0.56697 0.4724 0.0
C39 C 0.30943 0.54347 0.49323 0.0
C40 C 0.27142 0.60111 0.49087 0.0
C41 C 0.286 0.61133 0.53093 0.0
C42 C 0.3126 0.58836 0.55192 0.0
C43 C 0.32377 0.55422 0.53313 0.0
H44 H 0.79263 0.83019 0.04732 0.0
H45 H 0.85809 0.93565 0.04177 0.0
H46 H 0.76987 0.91348 0.94858 0.0
N47 N 0.74863 0.84328 0.98296 0.0
N48 N 0.72794 0.84862 0.9512 0.0
C49 C 0.79885 0.85784 0.03225 0.0
C50 C 0.82745 0.88185 0.04879 0.0
C51 C 0.77774 0.86911 -0.00332 0.0
C52 C 0.78578 0.90486 0.97659 0.0
C53 C 0.81462 0.92945 -0.00681 0.0
C54 C 0.83499 0.91767 0.02949 0.0
H55 H 0.24508 0.16681 0.54988 0.0
H56 H 0.17879 0.06187 0.54096 0.0
H57 H 0.26751 0.0858 0.45227 0.0
N58 N 0.28877 0.1552 0.48675 0.0
N59 N 0.30903 0.15019 0.45558 0.0
C60 C 0.2387 0.13957 0.53464 0.0
C61 C 0.20968 0.11539 0.54986 0.0
C62 C 0.2598 0.12909 0.4999 0.0
C63 C 0.25166 0.09386 0.47961 0.0
C64 C 0.2228 0.06905 0.49505 0.0
C65 C 0.20214 0.0801 0.53013 0.0
H66 H 0.24787 0.84621 0.03023 0.0
H67 H 0.18324 0.94916 0.02696 0.0
H68 H 0.23712 0.91161 0.91446 0.0
N69 N 0.27457 0.85314 0.95386 0.0
N70 N 0.28605 0.85666 0.91693 0.0
C71 C 0.2375 0.87139 0.01345 0.0
C72 C 0.21236 0.89587 0.03291 0.0
C73 C 0.24814 0.87821 0.97147 0.0
C74 C 0.23145 0.90842 0.94782 0.0
C75 C 0.20623 0.93325 0.96721 0.0
C76 C 0.20018 0.92862 0.0107 0.0
H77 H 0.79102 0.06898 0.4206 0.0
H78 H 0.84184 0.02975 0.53789 0.0
H79 H 0.76934 0.12689 0.53641 0.0
N80 N 0.75146 0.12399 0.45283 0.0
N81 N 0.73637 0.15183 0.46974 0.0
C82 C 0.79443 0.07044 0.45461 0.0
C83 C 0.81934 0.04574 0.47636 0.0
C84 C 0.77548 0.09899 0.47615 0.0
C85 C 0.78211 0.10356 0.51979 0.0
C86 C 0.8063 0.07871 0.54192 0.0
C87 C 0.8232 0.04885 0.52044 0.0
Sc88 Sc 0.02964 0.80834 0.28762 0.0
Sc89 Sc 0.02971 0.90929 0.29838 0.0
Sc90 Sc 0.03884 0.85029 0.38864 0.0
O91 O 0.03287 0.8559 0.32487 0.0
C92 C 0.97785 0.7835 0.36576 0.0
C93 C 0.96752 0.86337 0.24513 0.0
C94 C 0.98331 0.92069 0.38226 0.0
C95 C 0.07922 0.86535 0.23129 0.0
C96 C 0.0911 0.78319 0.3568 0.0
C97 C 0.09563 0.92115 0.36739 0.0
O98 O 0.98839 0.78071 0.32774 0.0
O99 O 0.98063 0.89384 0.2621 0.0
O100 O 0.99803 0.89281 0.40234 0.0
O101 O 0.07045 0.83133 0.24351 0.0
O102 O 0.0806 0.80732 0.38362 0.0
O103 O 0.07873 0.92988 0.33288 0.0
O104 O 0.07547 0.77974 0.32054 0.0
O105 O 0.06574 0.89537 0.24717 0.0
O106 O 0.08457 0.89332 0.39129 0.0
O107 O 0.98299 0.83074 0.24973 0.0
O108 O 0.99327 0.80719 0.39168 0.0
O109 O 0.99191 0.93015 0.3448 0.0
Sc110 Sc 0.0063 0.19009 0.77739 0.0
Sc111 Sc 0.99933 0.08923 0.78984 0.0
Sc112 Sc 0.99747 0.14765 0.87928 0.0
O113 O 1.00106 0.14242 0.81557 0.0
C114 C 0.06083 0.21175 0.8558 0.0
C115 C 0.06135 0.13221 0.73332 0.0
C116 C 0.05088 0.07503 0.87126 0.0
C117 C 0.94711 0.13706 0.72595 0.0
C118 C 0.94781 0.21806 0.84526 0.0
C119 C 0.93789 0.07879 0.86225 0.0
O120 O 0.04942 0.21556 0.81765 0.0
O121 O 0.04448 0.10246 0.748 0.0
O122 O 0.03629 0.10169 0.89227 0.0
O123 O 0.96323 0.16947 0.73354 0.0
O124 O 0.95798 0.19372 0.87343 0.0
O125 O 0.95406 0.06884 0.82881 0.0
O126 O 0.96245 0.2201 0.80893 0.0
O127 O 0.95697 0.10582 0.74403 0.0
O128 O 0.94937 0.10759 0.8839 0.0
O129 O 0.05116 0.16624 0.741 0.0
O130 O 0.04529 0.18813 0.8818 0.0
O131 O 0.04156 0.06763 0.83328 0.0
Sc132 Sc 0.53664 0.31558 0.30227 0.0
Sc133 Sc 0.52349 0.41609 0.30571 0.0
Sc134 Sc 0.51995 0.36046 0.39916 0.0
O135 O 0.52676 0.36401 0.33571 0.0
C136 C 0.47475 0.28509 0.36784 0.0
C137 C 0.47779 0.36001 0.24259 0.0
C138 C 0.45836 0.42275 0.37323 0.0
C139 C 0.59091 0.37761 0.25711 0.0
C140 C 0.58624 0.30097 0.38574 0.0
C141 C 0.57138 0.43725 0.38904 0.0
O142 O 0.49264 0.28238 0.33356 0.0
O143 O 0.48489 0.39309 0.25815 0.0
O144 O 0.47127 0.39688 0.39802 0.0
O145 O 0.58179 0.34299 0.26693 0.0
O146 O 0.56747 0.32338 0.40835 0.0
O147 O 0.56156 0.44401 0.35079 0.0
O148 O 0.57872 0.29562 0.34683 0.0
O149 O 0.57202 0.40623 0.26831 0.0
O150 O 0.5582 0.40866 0.41021 0.0
O151 O 0.49509 0.3299 0.25443 0.0
O152 O 0.48141 0.31187 0.39413 0.0
O153 O 0.4746 0.43284 0.33931 0.0
Sc154 Sc 0.50055 0.68221 0.79536 0.0
Sc155 Sc 0.5088 0.5822 0.81541 0.0
Sc156 Sc 0.5073 0.64618 0.89977 0.0
O157 O 0.50564 0.63691 0.83675 0.0
C158 C 0.55977 0.71466 0.86483 0.0
C159 C 0.5602 0.62974 0.74975 0.0
C160 C 0.5655 0.57711 0.89348 0.0
C161 C 0.4469 0.61779 0.75271 0.0
C162 C 0.44667 0.70819 0.86818 0.0
C163 C 0.45252 0.5726 0.89336 0.0
O164 O 0.54257 0.71665 0.82918 0.0
O165 O 0.54938 0.59872 0.76826 0.0
O166 O 0.54955 0.60363 0.91331 0.0
O167 O 0.45799 0.65269 0.75708 0.0
O168 O 0.46446 0.68896 0.89623 0.0
O169 O 0.4679 0.56012 0.86031 0.0
O170 O 0.45503 0.70764 0.82933 0.0
O171 O 0.4624 0.58987 0.77206 0.0
O172 O 0.46285 0.60408 0.91069 0.0
O173 O 0.54551 0.66217 0.75653 0.0
O174 O 0.55159 0.68935 0.89298 0.0
O175 O 0.55574 0.56748 0.85631 0.0
H176 H 0.19773 0.32942 0.88739 0.0
H177 H 0.19558 0.27589 0.01087 0.0
H178 H 0.14257 0.23365 -0.01146 0.0
H179 H 0.0963 0.21246 0.9337 0.0
H180 H 0.09929 0.26669 0.80996 0.0
H181 H 0.15227 0.30787 0.83251 0.0
C182 C 0.18554 0.30836 0.90918 0.0
C183 C 0.20035 0.30572 0.95039 0.0
C184 C 0.15517 0.2843 0.89612 0.0
C185 C 0.18463 0.27845 0.97881 0.0
C186 C 0.1543 0.25432 0.96606 0.0
C187 C 0.10852 0.23324 0.91163 0.0
C188 C 0.09354 0.23633 0.87016 0.0
C189 C 0.13924 0.25706 0.92476 0.0
C190 C 0.10999 0.26349 0.84207 0.0
C191 C 0.14039 0.28718 0.8549 0.0
H192 H 0.83795 0.66888 0.3923 0.0
H193 H 0.8275 0.736 0.50465 0.0
H194 H 0.88423 0.77405 0.48641 0.0
H195 H 0.93621 0.78916 0.43747 0.0
H196 H 0.94587 0.72198 0.32451 0.0
H197 H 0.89048 0.68314 0.34407 0.0
C198 C 0.84831 0.69186 0.41265 0.0
C199 C 0.82868 0.69966 0.44944 0.0
C200 C 0.88086 0.71363 0.40191 0.0
C201 C 0.8421 0.72943 0.47596 0.0
C202 C 0.87457 0.7512 0.46557 0.0
C203 C 0.9264 0.76585 0.41729 0.0
C204 C 0.94532 0.7587 0.37951 0.0
C205 C 0.89414 0.74364 0.42851 0.0
C206 C 0.93192 0.72841 0.35368 0.0
C207 C 0.90016 0.70608 0.3648 0.0
H208 H 0.83083 0.35118 0.87133 0.0
H209 H 0.81295 0.28501 0.98601 0.0
H210 H 0.85807 0.2379 0.96427 0.0
H211 H 0.90423 0.21641 0.91466 0.0
H212 H 0.924 0.28129 0.79944 0.0
H213 H 0.87653 0.32765 0.81924 0.0
C214 C 0.83684 0.32628 0.89121 0.0
C215 C 0.81892 0.32193 0.93022 0.0
C216 C 0.86321 0.29909 0.87861 0.0
C217 C 0.82663 0.28943 0.95594 0.0
C218 C 0.85244 0.26234 0.94357 0.0
C219 C 0.89826 0.24063 0.89372 0.0
C220 C 0.91795 0.24544 0.8558 0.0
C221 C 0.8712 0.26712 0.90528 0.0
C222 C 0.90937 0.27687 0.82894 0.0
C223 C 0.88225 0.30346 0.84025 0.0
H224 H 0.20154 0.64914 0.40754 0.0
H225 H 0.23064 0.72949 0.50611 0.0
H226 H 0.1884 0.77703 0.4741 0.0
H227 H 0.14109 0.79394 0.42102 0.0
H228 H 0.10989 0.71396 0.32245 0.0
H229 H 0.15582 0.66807 0.35102 0.0
C230 C 0.19866 0.67714 0.42174 0.0
C231 C 0.2187 0.68615 0.4593 0.0
C232 C 0.17419 0.70417 0.40318 0.0
C233 C 0.2151 0.72238 0.47732 0.0
C234 C 0.1911 0.74938 0.45907 0.0
C235 C 0.14435 0.76655 0.40555 0.0
C236 C 0.12176 0.75715 0.37002 0.0
C237 C 0.17015 0.74034 0.42241 0.0
C238 C 0.12691 0.72184 0.34994 0.0
C239 C 0.15298 0.69553 0.3664 0.0
H240 H 0.68252 0.85011 0.88327 0.0
H241 H 0.70852 0.78433 -0.00357 0.0
H242 H 0.65896 0.73733 0.97893 0.0
H243 H 0.60804 0.71475 0.93237 0.0
H244 H 0.58087 0.7789 0.81833 0.0
H245 H 0.63097 0.82636 0.83517 0.0
C246 C 0.67715 0.82541 0.90386 0.0
C247 C 0.69911 0.82085 0.94087 0.0
C248 C 0.64844 0.79812 0.89356 0.0
C249 C 0.69212 0.78868 0.96759 0.0
C250 C 0.66372 0.76168 0.95767 0.0
C251 C 0.61293 0.73909 0.9111 0.0
C252 C 0.59055 0.74322 0.87424 0.0
C253 C 0.64168 0.76614 0.92085 0.0
C254 C 0.59764 0.77491 0.84698 0.0
C255 C 0.62627 0.80214 0.85659 0.0
H256 H 0.35411 0.14813 0.38942 0.0
H257 H 0.3282 0.21516 0.49846 0.0
H258 H 0.37718 0.26245 0.48023 0.0
H259 H 0.4273 0.28501 0.43405 0.0
H260 H 0.45452 0.21955 0.32415 0.0
H261 H 0.40518 0.17163 0.34189 0.0
C262 C 0.35939 0.17316 0.40897 0.0
C263 C 0.33763 0.17802 0.44503 0.0
C264 C 0.38777 0.20056 0.39825 0.0
C265 C 0.34448 0.21059 0.47041 0.0
C266 C 0.37254 0.23774 0.46006 0.0
C267 C 0.42263 0.26029 0.41387 0.0
C268 C 0.44475 0.25594 0.37789 0.0
C269 C 0.39434 0.233 0.42414 0.0
C270 C 0.43795 0.2237 0.35209 0.0
C271 C 0.40975 0.19624 0.36222 0.0
H272 H 0.31909 0.79776 0.95914 0.0
H273 H 0.31458 0.8587 0.83969 0.0
H274 H 0.36362 0.81709 0.81222 0.0
H275 H 0.40906 0.76448 0.82359 0.0
H276 H 0.41281 0.7053 0.94463 0.0
H277 H 0.36269 0.74517 0.96996 0.0
C278 C 0.32866 0.80192 0.92702 0.0
C279 C 0.31337 0.83129 0.90127 0.0
C280 C 0.35681 0.77825 0.91181 0.0
C281 C 0.32611 0.8362 0.85984 0.0
C282 C 0.35408 0.8125 0.84427 0.0
C283 C 0.39877 0.76019 0.8554 0.0
C284 C 0.41499 0.73199 0.88214 0.0
C285 C 0.36986 0.78355 0.87013 0.0
C286 C 0.40124 0.72692 0.92335 0.0
C287 C 0.37245 0.74969 0.93797 0.0
H288 H 0.70348 0.21162 0.50135 0.0
H289 H 0.71466 0.14761 0.38689 0.0
H290 H 0.6704 0.19016 0.35007 0.0
H291 H 0.6266 0.24377 0.3514 0.0
H292 H 0.61452 0.30748 0.46646 0.0
H293 H 0.66127 0.26712 0.50194 0.0
C294 C 0.69619 0.20735 0.46829 0.0
C295 C 0.71196 0.17676 0.44695 0.0
C296 C 0.67064 0.23178 0.44748 0.0
C297 C 0.70271 0.17104 0.40405 0.0
C298 C 0.67743 0.19534 0.383 0.0
C299 C 0.63436 0.24912 0.38414 0.0
C300 C 0.61683 0.27853 0.40622 0.0
C301 C 0.66096 0.22557 0.40454 0.0
C302 C 0.62734 0.28494 0.44867 0.0
C303 C 0.65407 0.26185 0.46907 0.0
H304 H 0.33261 0.48703 0.00819 0.0
H305 H 0.34229 0.40019 0.91328 0.0
H306 H 0.38278 0.44396 0.87157 0.0
H307 H 0.42164 0.50378 0.86691 0.0
H308 H 0.41367 0.58897 0.96444 0.0
H309 H 0.3667 0.54875 0.00046 0.0
C310 C 0.34319 0.47793 0.97804 0.0
C311 C 0.33491 0.44037 0.96401 0.0
C312 C 0.36738 0.50264 0.95515 0.0
C313 C 0.34818 0.42905 0.92463 0.0
C314 C 0.37169 0.4539 0.90107 0.0
C315 C 0.40947 0.51372 0.89588 0.0
C316 C 0.4218 0.54915 0.91321 0.0
C317 C 0.38255 0.49025 0.91679 0.0
C318 C 0.40522 0.56168 0.95053 0.0
C319 C 0.37822 0.53873 0.97119 0.0
H320 H 0.67812 0.53588 0.50955 0.0
H321 H 0.67989 0.61226 0.40101 0.0
H322 H 0.64258 0.56477 0.36008 0.0
H323 H 0.60422 0.50413 0.35784 0.0
H324 H 0.60143 0.42979 0.4686 0.0
H325 H 0.6439 0.47415 0.50599 0.0
C326 C 0.67058 0.54199 0.47679 0.0
C327 C 0.68131 0.57764 0.45843 0.0
C328 C 0.64841 0.51517 0.45406 0.0
C329 C 0.67204 0.58494 0.41577 0.0
C330 C 0.65039 0.55796 0.39255 0.0
C331 C 0.61305 0.4975 0.39006 0.0
C332 C 0.59906 0.46377 0.4104 0.0
C333 C 0.63752 0.5234 0.41177 0.0
C334 C 0.61121 0.45562 0.45212 0.0
C335 C 0.63567 0.48095 0.47363 0.0
H336 H 0.64254 0.4534 0.00863 0.0
H337 H 0.73407 0.47082 0.92099 0.0
H338 H 0.69593 0.51724 0.8811 0.0
H339 H 0.63614 0.55382 0.87196 0.0
H340 H 0.55119 0.54269 0.96781 0.0
H341 H 0.58847 0.49435 0.00524 0.0
C342 C 0.65534 0.46815 0.98192 0.0
C343 C 0.69185 0.45863 0.96872 0.0
C344 C 0.63443 0.49644 0.96078 0.0
C345 C 0.70607 0.47694 0.93207 0.0
C346 C 0.68439 0.50391 0.90938 0.0
C347 C 0.62627 0.54106 0.90136 0.0
C348 C 0.59115 0.5517 0.91735 0.0
C349 C 0.64853 0.51402 0.92357 0.0
C350 C 0.57838 0.53518 0.95533 0.0
C351 C 0.59951 0.50735 0.97652 0.0
H352 H 0.33536 0.54371 0.41342 0.0
H353 H 0.3245 0.47162 0.52486 0.0
H354 H 0.36726 0.42509 0.49522 0.0
H355 H 0.41423 0.40988 0.44214 0.0
H356 H 0.4258 0.48337 0.33151 0.0
H357 H 0.37576 0.52395 0.35611 0.0
C358 C 0.34134 0.51721 0.43062 0.0
C359 C 0.32712 0.51123 0.47138 0.0
C360 C 0.36659 0.49115 0.41387 0.0
C361 C 0.3355 0.47698 0.49355 0.0
C362 C 0.36004 0.45049 0.47672 0.0
C363 C 0.40553 0.43448 0.42312 0.0
C364 C 0.42442 0.44393 0.38549 0.0
C365 C 0.37693 0.45809 0.43764 0.0
C366 C 0.41223 0.47561 0.36094 0.0
C367 C 0.38355 0.49893 0.37495 0.0
H368 H 0.82829 0.94044 0.90977 0.0
H369 H 0.82912 -0.00028 0.02849 0.0
H370 H 0.86412 0.05415 -0.00305 0.0
H371 H 0.90253 0.08026 0.93856 0.0
H372 H 0.90203 0.01993 0.82014 0.0
H373 H 0.85855 0.97118 0.84842 0.0
C374 C 0.83507 0.96579 0.92834 0.0
C375 C 0.82663 0.96583 0.97149 0.0
C376 C 0.8559 0.99664 0.91024 0.0
C377 C 0.83583 -0.00118 -0.00473 0.0
C378 C 0.85596 0.02989 0.97731 0.0
C379 C 0.89239 0.05687 0.91867 0.0
C380 C 0.90636 0.05347 0.8776 0.0
C381 C 0.86754 0.02841 0.93528 0.0
C382 C 0.89246 0.02305 0.85219 0.0
C383 C 0.86747 0.99503 0.86829 0.0
H384 H 0.20523 0.06047 0.412 0.0
H385 H 0.21239 0.9976 0.53016 0.0
H386 H 0.17704 0.94323 0.49918 0.0
H387 H 0.13588 0.91818 0.44202 0.0
H388 H 0.12734 0.98235 0.32438 0.0
H389 H 0.17171 0.03107 0.35142 0.0
C390 C 0.20012 0.03434 0.43046 0.0
C391 C 0.21101 0.03309 0.4733 0.0
C392 C 0.17885 0.00364 0.41279 0.0
C393 C 0.20393 -0.00078 0.49711 0.0
C394 C 0.18355 0.96825 0.47951 0.0
C395 C 0.14418 0.94245 0.422 0.0
C396 C 0.1275 0.94685 0.38156 0.0
C397 C 0.16945 0.97084 0.43792 0.0
C398 C 0.1391 0.97836 0.35594 0.0
C399 C 0.16457 0.00638 0.37134 0.0
H400 H 0.1338 0.95248 0.98281 0.0
H401 H 0.22386 0.97578 0.89474 0.0
H402 H 0.18304 0.02068 0.85574 0.0
H403 H 0.12159 0.05454 0.84814 0.0
H404 H 0.0372 0.03666 0.94367 0.0
H405 H 0.07701 0.98947 0.97975 0.0
C406 C 0.1455 0.96817 0.95603 0.0
C407 C 0.18252 0.96113 0.94259 0.0
C408 C 0.12286 0.99519 0.93531 0.0
C409 C 0.1956 0.98038 0.90603 0.0
C410 C 0.17234 0.00633 0.88387 0.0
C411 C 0.11229 0.04036 0.87703 0.0
C412 C 0.07669 0.04877 0.89346 0.0
C413 C 0.13595 0.01412 0.89842 0.0
C414 C 0.06467 0.03065 0.93086 0.0
C415 C 0.08728 0.00362 0.95128 0.0
H416 H 0.89235 0.02917 0.49651 0.0
H417 H 0.80442 0.00531 0.40306 0.0
H418 H 0.84821 0.96601 0.36422 0.0
H419 H 0.91177 0.9379 0.35749 0.0
H420 H 0.99552 0.95589 0.45651 0.0
H421 H 0.95234 0.9972 0.49359 0.0
C422 C 0.88199 0.01454 0.46843 0.0
C423 C 0.84474 0.02002 0.45321 0.0
C424 C 0.90664 0.99089 0.44732 0.0
C425 C 0.83295 0.002 0.41549 0.0
C426 C 0.85791 0.9793 0.39337 0.0
C427 C 0.92028 0.95094 0.38723 0.0
C428 C 0.95656 0.9444 0.4044 0.0
C429 C 0.89485 0.9736 0.409 0.0
C430 C 0.96756 0.96075 0.44304 0.0
C431 C 0.94299 0.98433 0.46408 0.0
H432 H 0.36385 0.32233 0.09175 0.0
H433 H 0.32273 0.43359 0.1248 0.0
H434 H 0.36727 0.43661 0.18489 0.0
H435 H 0.42209 0.41053 0.2233 0.0
H436 H 0.46477 0.29991 0.1889 0.0
H437 H 0.41566 0.29375 0.13401 0.0
C438 C 0.36398 0.34658 0.11301 0.0
C439 C 0.34 0.3775 0.10445 0.0
C440 C 0.39054 0.34865 0.14654 0.0
C441 C 0.3408 0.40932 0.13136 0.0
C442 C 0.36649 0.41122 0.16533 0.0
C443 C 0.42069 0.38506 0.20382 0.0
C444 C 0.44747 0.35603 0.20985 0.0
C445 C 0.39231 0.38161 0.17237 0.0
C446 C 0.44472 0.32288 0.18479 0.0
C447 C 0.41658 0.31924 0.15342 0.0
H448 H 0.67569 0.58907 0.60893 0.0
H449 H 0.67075 0.71143 0.58476 0.0
H450 H 0.63049 0.71852 0.64636 0.0
H451 H 0.59184 0.6886 0.70268 0.0
H452 H 0.59639 0.56551 0.72475 0.0
H453 H 0.64152 0.56011 0.66823 0.0
C454 C 0.66602 0.61734 0.61743 0.0
C455 C 0.67569 0.64962 0.59222 0.0
C456 C 0.64247 0.62099 0.65215 0.0
C457 C 0.66366 0.6862 0.60384 0.0
C458 C 0.64042 0.69017 0.63879 0.0
C459 C 0.60289 0.66063 0.69538 0.0
C460 C 0.59018 0.62747 0.71771 0.0
C461 C 0.62884 0.65757 0.6625 0.0
C462 C 0.60524 0.59153 0.70799 0.0
C463 C 0.63113 0.58834 0.67561 0.0
H464 H 0.70765 0.44165 0.12519 0.0
H465 H 0.70412 0.32197 0.08962 0.0
H466 H 0.6672 0.30531 0.15168 0.0
H467 H 0.62757 0.32611 0.2094 0.0
H468 H 0.62715 0.44659 0.24181 0.0
H469 H 0.67351 0.46145 0.1876 0.0
C470 C 0.69912 0.41188 0.13129 0.0
C471 C 0.70824 0.38327 0.10249 0.0
C472 C 0.67654 0.40266 0.16612 0.0
C473 C 0.69776 0.34463 0.11136 0.0
C474 C 0.67621 0.33508 0.14663 0.0
C475 C 0.6381 0.35551 0.20513 0.0
C476 C 0.62332 0.38524 0.22905 0.0
C477 C 0.66417 0.36408 0.17325 0.0
C478 C 0.63751 0.42318 0.22328 0.0
C479 C 0.66408 0.43176 0.19231 0.0
H480 H 0.32959 0.54633 0.62238 0.0
H481 H 0.33989 0.66096 0.56849 0.0
H482 H 0.37917 0.68153 0.62861 0.0
H483 H 0.41613 0.66506 0.69243 0.0
H484 H 0.40803 0.54936 0.74438 0.0
H485 H 0.36258 0.5312 0.68904 0.0
C486 C 0.34026 0.57586 0.624 0.0
C487 C 0.33204 0.60196 0.59098 0.0
C488 C 0.36359 0.58725 0.65807 0.0
C489 C 0.34551 0.64035 0.59372 0.0
C490 C 0.36827 0.65207 0.6279 0.0
C491 C 0.40406 0.63602 0.692 0.0
C492 C 0.41596 0.60853 0.72215 0.0
C493 C 0.37829 0.62549 0.65969 0.0
C494 C 0.39984 0.57103 0.7212 0.0
C495 C 0.37378 0.56055 0.68958 0.0
H496 H 0.84013 0.92061 0.12081 0.0
H497 H 0.86554 0.81485 0.05878 0.0
H498 H 0.90852 0.79706 0.11715 0.0
H499 H 0.94342 0.81509 0.18234 0.0
H500 H 0.91742 0.92155 0.24343 0.0
H501 H 0.86975 0.93528 0.18924 0.0
C502 C 0.85494 0.89357 0.12038 0.0
C503 C 0.85028 0.86926 0.08567 0.0
C504 C 0.87949 0.88371 0.15376 0.0
C505 C 0.86893 0.83396 0.08541 0.0
C506 C 0.89352 0.82388 0.11862 0.0
C507 C 0.92681 0.84089 0.1842 0.0
C508 C 0.93443 0.86754 0.21642 0.0
C509 C 0.89966 0.84897 0.15254 0.0
C510 C 0.91257 0.90084 0.21851 0.0
C511 C 0.8853 0.9088 0.18754 0.0
H512 H 0.1889 0.07212 0.61739 0.0
H513 H 0.17753 0.18534 0.56132 0.0
H514 H 0.13284 0.20226 0.61587 0.0
H515 H 0.09261 0.18242 0.6757 0.0
H516 H 0.10315 0.06782 0.72921 0.0
H517 H 0.15237 0.05392 0.67941 0.0
C518 C 0.17669 0.10053 0.61724 0.0
C519 C 0.18608 0.12727 0.58528 0.0
C520 C 0.15063 0.10971 0.64803 0.0
C521 C 0.17076 0.16429 0.58581 0.0
C522 C 0.14504 0.17388 0.61678 0.0
C523 C 0.10603 0.15462 0.67674 0.0
C524 C 0.09381 0.12606 0.70569 0.0
C525 C 0.13412 0.14649 0.64752 0.0
C526 C 0.11155 0.09015 0.70676 0.0
C527 C 0.13979 0.08212 0.67836 0.0
H528 H 0.1388 0.90286 0.05077 0.0
H529 H 0.24403 0.86355 0.10567 0.0
H530 H 0.21163 0.84792 0.17206 0.0
H531 H 0.153 0.84846 0.21531 0.0
H532 H 0.05075 0.89389 0.1594 0.0
H533 H 0.08264 0.905 0.09255 0.0
C534 C 0.15508 0.89163 0.07742 0.0
C535 C 0.19403 0.88531 0.07354 0.0
C536 C 0.1367 0.88393 0.1153 0.0
C537 C 0.21406 0.86895 0.10789 0.0
C538 C 0.19557 0.86018 0.14586 0.0
C539 C 0.13798 0.86064 0.18827 0.0
C540 C 0.09977 0.87045 0.1918 0.0
C541 C 0.15689 0.86794 0.15006 0.0
C542 C 0.08027 0.88639 0.15705 0.0
C543 C 0.09842 0.89268 0.11895 0.0
H544 H 0.83667 0.14619 0.56839 0.0
H545 H 0.8092 0.03037 0.61059 0.0
H546 H 0.84829 0.03984 0.67441 0.0
H547 H 0.89704 0.07771 0.71231 0.0
H548 H 0.92688 0.19266 0.66813 0.0
H549 H 0.8798 0.18698 0.61101 0.0
C550 C 0.83821 0.12355 0.59233 0.0
C551 C 0.82023 0.08765 0.58502 0.0
C552 C 0.86182 0.12874 0.62797 0.0
C553 C 0.82288 0.05823 0.61578 0.0
C554 C 0.84546 0.06353 0.65197 0.0
C555 C 0.89312 0.10167 0.69039 0.0
C556 C 0.91604 0.13524 0.69398 0.0
C557 C 0.8663 0.09809 0.65741 0.0
C558 C 0.90994 0.1663 0.66584 0.0
C559 C 0.88301 0.1631 0.63315 0.0
loop_
_geom_bond_atom_site_label_1
_geom_bond_atom_site_label_2
_geom_bond_distance
_geom_bond_site_symmetry_2
_ccdc_geom_bond_type
H0 C5 0.929 . S
H1 C10 0.931 . S
H2 C8 0.930 . S
N3 N4 1.234 1_554 S
N3 C7 1.453 . S
N4 N3 1.234 1_556 S
C5 H0 0.929 . S
C5 C6 1.373 . S
C5 C7 1.368 . S
C6 C5 1.373 . S
C6 C10 1.397 . S
C7 N3 1.453 . S
C7 C5 1.368 . S
C7 C8 1.373 1_554 S
C8 H2 0.930 . S
C8 C7 1.373 1_556 S
C8 C9 1.371 . S
C9 C8 1.371 . S
C9 C10 1.383 1_556 S
C10 H1 0.931 . S
C10 C6 1.397 . S
C10 C9 1.383 1_554 S
H11 C16 0.929 . S
H12 C21 0.931 . S
H13 C19 0.930 . S
N14 N15 1.234 . S
N14 C18 1.453 . S
N15 N14 1.234 . S
C16 H11 0.929 . S
C16 C17 1.373 . S
C16 C18 1.368 . S
C17 C16 1.373 . S
C17 C21 1.397 . S
C18 N14 1.453 . S
C18 C16 1.368 . S
C18 C19 1.373 . S
C19 H13 0.930 . S
C19 C18 1.373 . S
C19 C20 1.371 . S
C20 C19 1.371 . S
C20 C21 1.383 . S
C21 H12 0.931 . S
C21 C17 1.397 . S
C21 C20 1.383 . S
H22 C27 0.929 . S
H23 C32 0.931 . S
H24 C30 0.930 . S
N25 N26 1.234 1_554 S
N25 C29 1.453 . S
N26 N25 1.234 1_556 S
C27 H22 0.929 . S
C27 C28 1.373 . S
C27 C29 1.368 . S
C28 C27 1.373 . S
C28 C32 1.397 . S
C29 N25 1.453 . S
C29 C27 1.368 . S
C29 C30 1.373 1_554 S
C30 H24 0.930 . S
C30 C29 1.373 1_556 S
C30 C31 1.371 . S
C31 C30 1.371 . S
C31 C32 1.383 1_556 S
C32 H23 0.931 . S
C32 C28 1.397 . S
C32 C31 1.383 1_554 S
H33 C38 0.929 . S
H34 C43 0.931 . S
H35 C41 0.930 . S
N36 N37 1.234 . S
N36 C40 1.453 . S
N37 N36 1.234 . S
C38 H33 0.929 . S
C38 C39 1.373 . S
C38 C40 1.368 . S
C39 C38 1.373 . S
C39 C43 1.397 . S
C40 N36 1.453 . S
C40 C38 1.368 . S
C40 C41 1.373 . S
C41 H35 0.930 . S
C41 C40 1.373 . S
C41 C42 1.371 . S
C42 C41 1.371 . S
C42 C43 1.383 . S
C43 H34 0.931 . S
C43 C39 1.397 . S
C43 C42 1.383 . S
H44 C49 0.929 . S
H45 C54 0.931 . S
H46 C52 0.930 . S
N47 N48 1.234 1_554 S
N47 C51 1.453 . S
N48 N47 1.234 1_556 S
C49 H44 0.929 . S
C49 C50 1.373 . S
C49 C51 1.368 . S
C50 C49 1.373 . S
C50 C54 1.397 . S
C51 N47 1.453 . S
C51 C49 1.368 . S
C51 C52 1.373 1_554 S
C52 H46 0.930 . S
C52 C51 1.373 1_556 S
C52 C53 1.371 . S
C53 C52 1.371 . S
C53 C54 1.383 1_556 S
C54 H45 0.931 . S
C54 C50 1.397 . S
C54 C53 1.383 1_554 S
H55 C60 0.929 . S
H56 C65 0.931 . S
H57 C63 0.930 . S
N58 N59 1.234 . S
N58 C62 1.453 . S
N59 N58 1.234 . S
C60 H55 0.929 . S
C60 C61 1.373 . S
C60 C62 1.368 . S
C61 C60 1.373 . S
C61 C65 1.397 . S
C62 N58 1.453 . S
C62 C60 1.368 . S
C62 C63 1.373 . S
C63 H57 0.930 . S
C63 C62 1.373 . S
C63 C64 1.371 . S
C64 C63 1.371 . S
C64 C65 1.383 . S
C65 H56 0.931 . S
C65 C61 1.397 . S
C65 C64 1.383 . S
H66 C71 0.929 . S
H67 C76 0.931 . S
H68 C74 0.930 . S
N69 N70 1.234 1_554 S
N69 C73 1.453 . S
N70 N69 1.234 1_556 S
C71 H66 0.929 . S
C71 C72 1.373 . S
C71 C73 1.368 . S
C72 C71 1.373 . S
C72 C76 1.397 . S
C73 N69 1.453 . S
C73 C71 1.368 . S
C73 C74 1.373 1_554 S
C74 H68 0.930 . S
C74 C73 1.373 1_556 S
C74 C75 1.371 . S
C75 C74 1.371 . S
C75 C76 1.383 1_556 S
C76 H67 0.931 . S
C76 C72 1.397 . S
C76 C75 1.383 1_554 S
H77 C82 0.929 . S
H78 C87 0.931 . S
H79 C85 0.930 . S
N80 N81 1.234 . S
N80 C84 1.453 . S
N81 N80 1.234 . S
C82 H77 0.929 . S
C82 C83 1.373 . S
C82 C84 1.368 . S
C83 C82 1.373 . S
C83 C87 1.397 . S
C84 N80 1.453 . S
C84 C82 1.368 . S
C84 C85 1.373 . S
C85 H79 0.930 . S
C85 C84 1.373 . S
C85 C86 1.371 . S
C86 C85 1.371 . S
C86 C87 1.383 . S
C87 H78 0.931 . S
C87 C83 1.397 . S
C87 C86 1.383 . S
Sc88 O91 2.025 . S
Sc88 O98 2.105 1_455 S
Sc88 O101 2.105 . S
Sc88 O104 2.105 . S
Sc88 O107 2.105 1_455 S
Sc89 O91 2.025 . S
Sc89 O99 2.105 1_455 S
Sc89 O103 2.105 . S
Sc89 O105 2.105 . S
Sc89 O109 2.105 1_455 S
Sc90 O91 2.025 . S
Sc90 O100 2.105 1_455 S
Sc90 O102 2.105 . S
Sc90 O106 2.105 . S
Sc90 O108 2.105 1_455 S
O91 Sc88 2.025 . S
O91 Sc89 2.025 . S
O91 Sc90 2.025 . S
C92 O98 1.268 . S
C92 O108 1.268 . S
C93 O99 1.268 . S
C93 O107 1.268 . S
C94 O100 1.268 . S
C94 O109 1.268 . S
C95 O101 1.268 . S
C95 O105 1.268 . S
C96 O102 1.268 . S
C96 O104 1.268 . S
C97 O103 1.268 . S
C97 O106 1.268 . S
O98 Sc88 2.105 1_655 S
O98 C92 1.268 . S
O99 Sc89 2.105 1_655 S
O99 C93 1.268 . S
O100 Sc90 2.105 1_655 S
O100 C94 1.268 . S
O101 Sc88 2.105 . S
O101 C95 1.268 . S
O102 Sc90 2.105 . S
O102 C96 1.268 . S
O103 Sc89 2.105 . S
O103 C97 1.268 . S
O104 Sc88 2.105 . S
O104 C96 1.268 . S
O105 Sc89 2.105 . S
O105 C95 1.268 . S
O106 Sc90 2.105 . S
O106 C97 1.268 . S
O107 Sc88 2.105 1_655 S
O107 C93 1.268 . S
O108 Sc90 2.105 1_655 S
O108 C92 1.268 . S
O109 Sc89 2.105 1_655 S
O109 C94 1.268 . S
Sc110 O113 2.025 . S
Sc110 O120 2.105 . S
Sc110 O123 2.105 1_455 S
Sc110 O126 2.105 1_455 S
Sc110 O129 2.105 . S
Sc111 O113 2.025 . S
Sc111 O121 2.105 . S
Sc111 O125 2.105 1_455 S
Sc111 O127 2.105 1_455 S
Sc111 O131 2.105 . S
Sc112 O113 2.025 . S
Sc112 O122 2.105 . S
Sc112 O124 2.105 1_455 S
Sc112 O128 2.105 1_455 S
Sc112 O130 2.105 . S
O113 Sc110 2.025 . S
O113 Sc111 2.025 . S
O113 Sc112 2.025 . S
C114 O120 1.268 . S
C114 O130 1.268 . S
C115 O121 1.268 . S
C115 O129 1.268 . S
C116 O122 1.268 . S
C116 O131 1.268 . S
C117 O123 1.268 . S
C117 O127 1.268 . S
C118 O124 1.268 . S
C118 O126 1.268 . S
C119 O125 1.268 . S
C119 O128 1.268 . S
O120 Sc110 2.105 . S
O120 C114 1.268 . S
O121 Sc111 2.105 . S
O121 C115 1.268 . S
O122 Sc112 2.105 . S
O122 C116 1.268 . S
O123 Sc110 2.105 1_655 S
O123 C117 1.268 . S
O124 Sc112 2.105 1_655 S
O124 C118 1.268 . S
O125 Sc111 2.105 1_655 S
O125 C119 1.268 . S
O126 Sc110 2.105 1_655 S
O126 C118 1.268 . S
O127 Sc111 2.105 1_655 S
O127 C117 1.268 . S
O128 Sc112 2.105 1_655 S
O128 C119 1.268 . S
O129 Sc110 2.105 . S
O129 C115 1.268 . S
O130 Sc112 2.105 . S
O130 C114 1.268 . S
O131 Sc111 2.105 . S
O131 C116 1.268 . S
Sc132 O135 2.025 . S
Sc132 O142 2.105 . S
Sc132 O145 2.105 . S
Sc132 O148 2.105 . S
Sc132 O151 2.105 . S
Sc133 O135 2.025 . S
Sc133 O143 2.105 . S
Sc133 O147 2.105 . S
Sc133 O149 2.105 . S
Sc133 O153 2.105 . S
Sc134 O135 2.025 . S
Sc134 O144 2.105 . S
Sc134 O146 2.105 . S
Sc134 O150 2.105 . S
Sc134 O152 2.105 . S
O135 Sc132 2.025 . S
O135 Sc133 2.025 . S
O135 Sc134 2.025 . S
C136 O142 1.268 . S
C136 O152 1.268 . S
C137 O143 1.268 . S
C137 O151 1.268 . S
C138 O144 1.268 . S
C138 O153 1.268 . S
C139 O145 1.268 . S
C139 O149 1.268 . S
C140 O146 1.268 . S
C140 O148 1.268 . S
C141 O147 1.268 . S
C141 O150 1.268 . S
O142 Sc132 2.105 . S
O142 C136 1.268 . S
O143 Sc133 2.105 . S
O143 C137 1.268 . S
O144 Sc134 2.105 . S
O144 C138 1.268 . S
O145 Sc132 2.105 . S
O145 C139 1.268 . S
O146 Sc134 2.105 . S
O146 C140 1.268 . S
O147 Sc133 2.105 . S
O147 C141 1.268 . S
O148 Sc132 2.105 . S
O148 C140 1.268 . S
O149 Sc133 2.105 . S
O149 C139 1.268 . S
O150 Sc134 2.105 . S
O150 C141 1.268 . S
O151 Sc132 2.105 . S
O151 C137 1.268 . S
O152 Sc134 2.105 . S
O152 C136 1.268 . S
O153 Sc133 2.105 . S
O153 C138 1.268 . S
Sc154 O157 2.025 . S
Sc154 O164 2.105 . S
Sc154 O167 2.105 . S
Sc154 O170 2.105 . S
Sc154 O173 2.105 . S
Sc155 O157 2.025 . S
Sc155 O165 2.105 . S
Sc155 O169 2.105 . S
Sc155 O171 2.105 . S
Sc155 O175 2.105 . S
Sc156 O157 2.025 . S
Sc156 O166 2.105 . S
Sc156 O168 2.105 . S
Sc156 O172 2.105 . S
Sc156 O174 2.105 . S
O157 Sc154 2.025 . S
O157 Sc155 2.025 . S
O157 Sc156 2.025 . S
C158 O164 1.268 . S
C158 O174 1.268 . S
C159 O165 1.268 . S
C159 O173 1.268 . S
C160 O166 1.268 . S
C160 O175 1.268 . S
C161 O167 1.268 . S
C161 O171 1.268 . S
C162 O168 1.268 . S
C162 O170 1.268 . S
C163 O169 1.268 . S
C163 O172 1.268 . S
O164 Sc154 2.105 . S
O164 C158 1.268 . S
O165 Sc155 2.105 . S
O165 C159 1.268 . S
O166 Sc156 2.105 . S
O166 C160 1.268 . S
O167 Sc154 2.105 . S
O167 C161 1.268 . S
O168 Sc156 2.105 . S
O168 C162 1.268 . S
O169 Sc155 2.105 . S
O169 C163 1.268 . S
O170 Sc154 2.105 . S
O170 C162 1.268 . S
O171 Sc155 2.105 . S
O171 C161 1.268 . S
O172 Sc156 2.105 . S
O172 C163 1.268 . S
O173 Sc154 2.105 . S
O173 C159 1.268 . S
O174 Sc156 2.105 . S
O174 C158 1.268 . S
O175 Sc155 2.105 . S
O175 C160 1.268 . S
H176 C182 0.930 . S
H177 C185 0.930 1_554 S
H178 C186 0.930 . S
H179 C187 0.930 . S
H180 C190 0.930 . S
H181 C191 0.930 . S
C182 H176 0.930 . S
C182 C183 1.355 . S
C182 C184 1.415 . S
C183 C182 1.355 . S
C183 C185 1.419 . S
C184 C182 1.415 . S
C184 C189 1.425 . S
C184 C191 1.409 . S
C185 H177 0.930 1_556 S
C185 C183 1.419 . S
C185 C186 1.362 . S
C186 H178 0.930 . S
C186 C185 1.362 . S
C186 C189 1.409 . S
C187 H179 0.930 . S
C187 C188 1.355 . S
C187 C189 1.415 . S
C188 C187 1.355 . S
C188 C190 1.419 . S
C189 C184 1.425 . S
C189 C186 1.409 . S
C189 C187 1.415 . S
C190 H180 0.930 . S
C190 C188 1.419 . S
C190 C191 1.362 . S
C191 H181 0.930 . S
C191 C184 1.409 . S
C191 C190 1.362 . S
H192 C198 0.930 . S
H193 C201 0.930 . S
H194 C202 0.930 . S
H195 C203 0.930 . S
H196 C206 0.930 . S
H197 C207 0.930 . S
C198 H192 0.930 . S
C198 C199 1.355 . S
C198 C200 1.415 . S
C199 C198 1.355 . S
C199 C201 1.419 . S
C200 C198 1.415 . S
C200 C205 1.425 . S
C200 C207 1.409 . S
C201 H193 0.930 . S
C201 C199 1.419 . S
C201 C202 1.362 . S
C202 H194 0.930 . S
C202 C201 1.362 . S
C202 C205 1.409 . S
C203 H195 0.930 . S
C203 C204 1.355 . S
C203 C205 1.415 . S
C204 C203 1.355 . S
C204 C206 1.419 . S
C205 C200 1.425 . S
C205 C202 1.409 . S
C205 C203 1.415 . S
C206 H196 0.930 . S
C206 C204 1.419 . S
C206 C207 1.362 . S
C207 H197 0.930 . S
C207 C200 1.409 . S
C207 C206 1.362 . S
H208 C214 0.930 . S
H209 C217 0.930 . S
H210 C218 0.930 . S
H211 C219 0.930 . S
H212 C222 0.930 . S
H213 C223 0.930 . S
C214 H208 0.930 . S
C214 C215 1.355 . S
C214 C216 1.415 . S
C215 C214 1.355 . S
C215 C217 1.419 . S
C216 C214 1.415 . S
C216 C221 1.425 . S
C216 C223 1.409 . S
C217 H209 0.930 . S
C217 C215 1.419 . S
C217 C218 1.362 . S
C218 H210 0.930 . S
C218 C217 1.362 . S
C218 C221 1.409 . S
C219 H211 0.930 . S
C219 C220 1.355 . S
C219 C221 1.415 . S
C220 C219 1.355 . S
C220 C222 1.419 . S
C221 C216 1.425 . S
C221 C218 1.409 . S
C221 C219 1.415 . S
C222 H212 0.930 . S
C222 C220 1.419 . S
C222 C223 1.362 . S
C223 H213 0.930 . S
C223 C216 1.409 . S
C223 C222 1.362 . S
H224 C230 0.930 . S
H225 C233 0.930 . S
H226 C234 0.930 . S
H227 C235 0.930 . S
H228 C238 0.930 . S
H229 C239 0.930 . S
C230 H224 0.930 . S
C230 C231 1.355 . S
C230 C232 1.415 . S
C231 C230 1.355 . S
C231 C233 1.419 . S
C232 C230 1.415 . S
C232 C237 1.425 . S
C232 C239 1.409 . S
C233 H225 0.930 . S
C233 C231 1.419 . S
C233 C234 1.362 . S
C234 H226 0.930 . S
C234 C233 1.362 . S
C234 C237 1.409 . S
C235 H227 0.930 . S
C235 C236 1.355 . S
C235 C237 1.415 . S
C236 C235 1.355 . S
C236 C238 1.419 . S
C237 C232 1.425 . S
C237 C234 1.409 . S
C237 C235 1.415 . S
C238 H228 0.930 . S
C238 C236 1.419 . S
C238 C239 1.362 . S
C239 H229 0.930 . S
C239 C232 1.409 . S
C239 C238 1.362 . S
H240 C246 0.930 . S
H241 C249 0.930 . S
H242 C250 0.930 . S
H243 C251 0.930 . S
H244 C254 0.930 . S
H245 C255 0.930 . S
C246 H240 0.930 . S
C246 C247 1.355 . S
C246 C248 1.415 . S
C247 C246 1.355 . S
C247 C249 1.419 . S
C248 C246 1.415 . S
C248 C253 1.425 . S
C248 C255 1.409 . S
C249 H241 0.930 . S
C249 C247 1.419 . S
C249 C250 1.362 . S
C250 H242 0.930 . S
C250 C249 1.362 . S
C250 C253 1.409 . S
C251 H243 0.930 . S
C251 C252 1.355 . S
C251 C253 1.415 . S
C252 C251 1.355 . S
C252 C254 1.419 . S
C253 C248 1.425 . S
C253 C250 1.409 . S
C253 C251 1.415 . S
C254 H244 0.930 . S
C254 C252 1.419 . S
C254 C255 1.362 . S
C255 H245 0.930 . S
C255 C248 1.409 . S
C255 C254 1.362 . S
H256 C262 0.930 . S
H257 C265 0.930 . S
H258 C266 0.930 . S
H259 C267 0.930 . S
H260 C270 0.930 . S
H261 C271 0.930 . S
C262 H256 0.930 . S
C262 C263 1.355 . S
C262 C264 1.415 . S
C263 C262 1.355 . S
C263 C265 1.419 . S
C264 C262 1.415 . S
C264 C269 1.425 . S
C264 C271 1.409 . S
C265 H257 0.930 . S
C265 C263 1.419 . S
C265 C266 1.362 . S
C266 H258 0.930 . S
C266 C265 1.362 . S
C266 C269 1.409 . S
C267 H259 0.930 . S
C267 C268 1.355 . S
C267 C269 1.415 . S
C268 C267 1.355 . S
C268 C270 1.419 . S
C269 C264 1.425 . S
C269 C266 1.409 . S
C269 C267 1.415 . S
C270 H260 0.930 . S
C270 C268 1.419 . S
C270 C271 1.362 . S
C271 H261 0.930 . S
C271 C264 1.409 . S
C271 C270 1.362 . S
H272 C278 0.930 . S
H273 C281 0.930 . S
H274 C282 0.930 . S
H275 C283 0.930 . S
H276 C286 0.930 . S
H277 C287 0.930 . S
C278 H272 0.930 . S
C278 C279 1.355 . S
C278 C280 1.415 . S
C279 C278 1.355 . S
C279 C281 1.419 . S
C280 C278 1.415 . S
C280 C285 1.425 . S
C280 C287 1.409 . S
C281 H273 0.930 . S
C281 C279 1.419 . S
C281 C282 1.362 . S
C282 H274 0.930 . S
C282 C281 1.362 . S
C282 C285 1.409 . S
C283 H275 0.930 . S
C283 C284 1.355 . S
C283 C285 1.415 . S
C284 C283 1.355 . S
C284 C286 1.419 . S
C285 C280 1.425 . S
C285 C282 1.409 . S
C285 C283 1.415 . S
C286 H276 0.930 . S
C286 C284 1.419 . S
C286 C287 1.362 . S
C287 H277 0.930 . S
C287 C280 1.409 . S
C287 C286 1.362 . S
H288 C294 0.930 . S
H289 C297 0.930 . S
H290 C298 0.930 . S
H291 C299 0.930 . S
H292 C302 0.930 . S
H293 C303 0.930 . S
C294 H288 0.930 . S
C294 C295 1.355 . S
C294 C296 1.415 . S
C295 C294 1.355 . S
C295 C297 1.419 . S
C296 C294 1.415 . S
C296 C301 1.425 . S
C296 C303 1.409 . S
C297 H289 0.930 . S
C297 C295 1.419 . S
C297 C298 1.362 . S
C298 H290 0.930 . S
C298 C297 1.362 . S
C298 C301 1.409 . S
C299 H291 0.930 . S
C299 C300 1.355 . S
C299 C301 1.415 . S
C300 C299 1.355 . S
C300 C302 1.419 . S
C301 C296 1.425 . S
C301 C298 1.409 . S
C301 C299 1.415 . S
C302 H292 0.930 . S
C302 C300 1.419 . S
C302 C303 1.362 . S
C303 H293 0.930 . S
C303 C296 1.409 . S
C303 C302 1.362 . S
H304 C310 0.930 1_554 S
H305 C313 0.930 . S
H306 C314 0.930 . S
H307 C315 0.930 . S
H308 C318 0.930 . S
H309 C319 0.930 1_554 S
C310 H304 0.930 1_556 S
C310 C311 1.355 . S
C310 C312 1.415 . S
C311 C310 1.355 . S
C311 C313 1.419 . S
C312 C310 1.415 . S
C312 C317 1.425 . S
C312 C319 1.409 . S
C313 H305 0.930 . S
C313 C311 1.419 . S
C313 C314 1.362 . S
C314 H306 0.930 . S
C314 C313 1.362 . S
C314 C317 1.409 . S
C315 H307 0.930 . S
C315 C316 1.355 . S
C315 C317 1.415 . S
C316 C315 1.355 . S
C316 C318 1.419 . S
C317 C312 1.425 . S
C317 C314 1.409 . S
C317 C315 1.415 . S
C318 H308 0.930 . S
C318 C316 1.419 . S
C318 C319 1.362 . S
C319 H309 0.930 1_556 S
C319 C312 1.409 . S
C319 C318 1.362 . S
H320 C326 0.930 . S
H321 C329 0.930 . S
H322 C330 0.930 . S
H323 C331 0.930 . S
H324 C334 0.930 . S
H325 C335 0.930 . S
C326 H320 0.930 . S
C326 C327 1.355 . S
C326 C328 1.415 . S
C327 C326 1.355 . S
C327 C329 1.419 . S
C328 C326 1.415 . S
C328 C333 1.425 . S
C328 C335 1.409 . S
C329 H321 0.930 . S
C329 C327 1.419 . S
C329 C330 1.362 . S
C330 H322 0.930 . S
C330 C329 1.362 . S
C330 C333 1.409 . S
C331 H323 0.930 . S
C331 C332 1.355 . S
C331 C333 1.415 . S
C332 C331 1.355 . S
C332 C334 1.419 . S
C333 C328 1.425 . S
C333 C330 1.409 . S
C333 C331 1.415 . S
C334 H324 0.930 . S
C334 C332 1.419 . S
C334 C335 1.362 . S
C335 H325 0.930 . S
C335 C328 1.409 . S
C335 C334 1.362 . S
H336 C342 0.918 1_554 S
H337 C345 0.930 . S
H338 C346 0.930 . S
H339 C347 0.930 . S
H340 C350 0.930 . S
H341 C351 0.930 . S
C342 H336 0.918 1_556 S
C342 C343 1.355 . S
C342 C344 1.415 . S
C343 C342 1.355 . S
C343 C345 1.419 . S
C344 C342 1.415 . S
C344 C349 1.425 . S
C344 C351 1.409 . S
C345 H337 0.930 . S
C345 C343 1.419 . S
C345 C346 1.362 . S
C346 H338 0.930 . S
C346 C345 1.362 . S
C346 C349 1.409 . S
C347 H339 0.930 . S
C347 C348 1.355 . S
C347 C349 1.415 . S
C348 C347 1.355 . S
C348 C350 1.419 . S
C349 C344 1.425 . S
C349 C346 1.409 . S
C349 C347 1.415 . S
C350 H340 0.930 . S
C350 C348 1.419 . S
C350 C351 1.362 . S
C351 H341 0.930 . S
C351 C344 1.409 . S
C351 C350 1.362 . S
H352 C358 0.930 . S
H353 C361 0.930 . S
H354 C362 0.930 . S
H355 C363 0.930 . S
H356 C366 0.930 . S
H357 C367 0.930 . S
C358 H352 0.930 . S
C358 C359 1.355 . S
C358 C360 1.415 . S
C359 C358 1.355 . S
C359 C361 1.419 . S
C360 C358 1.415 . S
C360 C365 1.425 . S
C360 C367 1.409 . S
C361 H353 0.930 . S
C361 C359 1.419 . S
C361 C362 1.362 . S
C362 H354 0.930 . S
C362 C361 1.362 . S
C362 C365 1.409 . S
C363 H355 0.930 . S
C363 C364 1.355 . S
C363 C365 1.415 . S
C364 C363 1.355 . S
C364 C366 1.419 . S
C365 C360 1.425 . S
C365 C362 1.409 . S
C365 C363 1.415 . S
C366 H356 0.930 . S
C366 C364 1.419 . S
C366 C367 1.362 . S
C367 H357 0.930 . S
C367 C360 1.409 . S
C367 C366 1.362 . S
H368 C374 0.930 . S
H369 C377 0.930 1_545 S
H370 C378 0.930 . S
H371 C379 0.930 . S
H372 C382 0.934 . S
H373 C383 0.930 . S
C374 H368 0.930 . S
C374 C375 1.355 . S
C374 C376 1.415 . S
C375 C374 1.355 . S
C375 C377 1.419 . S
C376 C374 1.415 . S
C376 C381 1.425 1_565 S
C376 C383 1.409 . S
C377 H369 0.930 1_565 S
C377 C375 1.419 . S
C377 C378 1.362 1_565 S
C378 H370 0.930 . S
C378 C377 1.362 1_545 S
C378 C381 1.409 . S
C379 H371 0.930 . S
C379 C380 1.355 . S
C379 C381 1.415 . S
C380 C379 1.355 . S
C380 C382 1.403 1_545 S
C381 C376 1.425 1_545 S
C381 C378 1.409 . S
C381 C379 1.415 . S
C382 H372 0.934 . S
C382 C380 1.403 1_565 S
C382 C383 1.374 . S
C383 H373 0.930 . S
C383 C376 1.409 . S
C383 C382 1.374 . S
H384 C390 0.930 . S
H385 C393 0.932 . S
H386 C394 0.930 . S
H387 C395 0.930 . S
H388 C398 0.935 . S
H389 C399 0.930 . S
C390 H384 0.930 . S
C390 C391 1.355 . S
C390 C392 1.415 . S
C391 C390 1.355 . S
C391 C393 1.419 . S
C392 C390 1.415 . S
C392 C397 1.425 1_545 S
C392 C399 1.409 . S
C393 H385 0.932 . S
C393 C391 1.419 . S
C393 C394 1.362 1_545 S
C394 H386 0.930 . S
C394 C393 1.362 1_565 S
C394 C397 1.409 . S
C395 H387 0.930 . S
C395 C396 1.355 . S
C395 C397 1.415 . S
C396 C395 1.355 . S
C396 C398 1.398 1_565 S
C397 C392 1.425 1_565 S
C397 C394 1.409 . S
C397 C395 1.415 . S
C398 H388 0.935 . S
C398 C396 1.398 1_545 S
C398 C399 1.379 . S
C399 H389 0.930 . S
C399 C392 1.409 . S
C399 C398 1.379 . S
H400 C406 0.930 . S
H401 C409 0.930 . S
H402 C410 0.930 . S
H403 C411 0.930 . S
H404 C414 0.930 . S
H405 C415 0.930 . S
C406 H400 0.930 . S
C406 C407 1.355 . S
C406 C408 1.415 . S
C407 C406 1.355 . S
C407 C409 1.419 . S
C408 C406 1.415 . S
C408 C413 1.425 1_565 S
C408 C415 1.409 . S
C409 H401 0.930 . S
C409 C407 1.419 . S
C409 C410 1.362 1_565 S
C410 H402 0.930 . S
C410 C409 1.362 1_545 S
C410 C413 1.409 . S
C411 H403 0.930 . S
C411 C412 1.355 . S
C411 C413 1.415 . S
C412 C411 1.355 . S
C412 C414 1.419 . S
C413 C408 1.425 1_545 S
C413 C410 1.409 . S
C413 C411 1.415 . S
C414 H404 0.930 . S
C414 C412 1.419 . S
C414 C415 1.362 1_545 S
C415 H405 0.930 . S
C415 C408 1.409 . S
C415 C414 1.362 1_565 S
H416 C422 0.930 . S
H417 C425 0.930 . S
H418 C426 0.930 . S
H419 C427 0.930 . S
H420 C430 0.930 . S
H421 C431 0.930 1_545 S
C422 H416 0.930 . S
C422 C423 1.355 . S
C422 C424 1.415 . S
C423 C422 1.355 . S
C423 C425 1.419 . S
C424 C422 1.415 . S
C424 C429 1.425 1_545 S
C424 C431 1.409 1_545 S
C425 H417 0.930 . S
C425 C423 1.419 . S
C425 C426 1.362 1_545 S
C426 H418 0.930 . S
C426 C425 1.362 1_565 S
C426 C429 1.409 . S
C427 H419 0.930 . S
C427 C428 1.355 . S
C427 C429 1.415 . S
C428 C427 1.355 . S
C428 C430 1.419 . S
C429 C424 1.425 1_565 S
C429 C426 1.409 . S
C429 C427 1.415 . S
C430 H420 0.930 . S
C430 C428 1.419 . S
C430 C431 1.362 . S
C431 H421 0.930 1_565 S
C431 C424 1.409 1_565 S
C431 C430 1.362 . S
H432 C438 0.930 . S
H433 C441 0.930 . S
H434 C442 0.930 . S
H435 C443 0.930 . S
H436 C446 0.930 . S
H437 C447 0.930 . S
C438 H432 0.930 . S
C438 C439 1.355 . S
C438 C440 1.415 . S
C439 C438 1.355 . S
C439 C441 1.419 . S
C440 C438 1.415 . S
C440 C445 1.425 . S
C440 C447 1.409 . S
C441 H433 0.930 . S
C441 C439 1.419 . S
C441 C442 1.362 . S
C442 H434 0.930 . S
C442 C441 1.362 . S
C442 C445 1.409 . S
C443 H435 0.930 . S
C443 C444 1.355 . S
C443 C445 1.415 . S
C444 C443 1.355 . S
C444 C446 1.419 . S
C445 C440 1.425 . S
C445 C442 1.409 . S
C445 C443 1.415 . S
C446 H436 0.930 . S
C446 C444 1.419 . S
C446 C447 1.362 . S
C447 H437 0.930 . S
C447 C440 1.409 . S
C447 C446 1.362 . S
H448 C454 0.930 . S
H449 C457 0.930 . S
H450 C458 0.930 . S
H451 C459 0.930 . S
H452 C462 0.930 . S
H453 C463 0.930 . S
C454 H448 0.930 . S
C454 C455 1.355 . S
C454 C456 1.415 . S
C455 C454 1.355 . S
C455 C457 1.419 . S
C456 C454 1.415 . S
C456 C461 1.425 . S
C456 C463 1.409 . S
C457 H449 0.930 . S
C457 C455 1.419 . S
C457 C458 1.362 . S
C458 H450 0.930 . S
C458 C457 1.362 . S
C458 C461 1.409 . S
C459 H451 0.930 . S
C459 C460 1.355 . S
C459 C461 1.415 . S
C460 C459 1.355 . S
C460 C462 1.419 . S
C461 C456 1.425 . S
C461 C458 1.409 . S
C461 C459 1.415 . S
C462 H452 0.930 . S
C462 C460 1.419 . S
C462 C463 1.362 . S
C463 H453 0.930 . S
C463 C456 1.409 . S
C463 C462 1.362 . S
H464 C470 0.930 . S
H465 C473 0.930 . S
H466 C474 0.930 . S
H467 C475 0.930 . S
H468 C478 0.930 . S
H469 C479 0.930 . S
C470 H464 0.930 . S
C470 C471 1.355 . S
C470 C472 1.415 . S
C471 C470 1.355 . S
C471 C473 1.419 . S
C472 C470 1.415 . S
C472 C477 1.425 . S
C472 C479 1.409 . S
C473 H465 0.930 . S
C473 C471 1.419 . S
C473 C474 1.362 . S
C474 H466 0.930 . S
C474 C473 1.362 . S
C474 C477 1.409 . S
C475 H467 0.930 . S
C475 C476 1.355 . S
C475 C477 1.415 . S
C476 C475 1.355 . S
C476 C478 1.419 . S
C477 C472 1.425 . S
C477 C474 1.409 . S
C477 C475 1.415 . S
C478 H468 0.930 . S
C478 C476 1.419 . S
C478 C479 1.362 . S
C479 H469 0.930 . S
C479 C472 1.409 . S
C479 C478 1.362 . S
H480 C486 0.930 . S
H481 C489 0.930 . S
H482 C490 0.930 . S
H483 C491 0.930 . S
H484 C494 0.930 . S
H485 C495 0.930 . S
C486 H480 0.930 . S
C486 C487 1.355 . S
C486 C488 1.415 . S
C487 C486 1.355 . S
C487 C489 1.419 . S
C488 C486 1.415 . S
C488 C493 1.425 . S
C488 C495 1.409 . S
C489 H481 0.930 . S
C489 C487 1.419 . S
C489 C490 1.362 . S
C490 H482 0.930 . S
C490 C489 1.362 . S
C490 C493 1.409 . S
C491 H483 0.930 . S
C491 C492 1.355 . S
C491 C493 1.415 . S
C492 C491 1.355 . S
C492 C494 1.419 . S
C493 C488 1.425 . S
C493 C490 1.409 . S
C493 C491 1.415 . S
C494 H484 0.930 . S
C494 C492 1.419 . S
C494 C495 1.362 . S
C495 H485 0.930 . S
C495 C488 1.409 . S
C495 C494 1.362 . S
H496 C502 0.930 . S
H497 C505 0.930 . S
H498 C506 0.930 . S
H499 C507 0.930 . S
H500 C510 0.930 . S
H501 C511 0.930 . S
C502 H496 0.930 . S
C502 C503 1.355 . S
C502 C504 1.415 . S
C503 C502 1.355 . S
C503 C505 1.419 . S
C504 C502 1.415 . S
C504 C509 1.425 . S
C504 C511 1.409 . S
C505 H497 0.930 . S
C505 C503 1.419 . S
C505 C506 1.362 . S
C506 H498 0.930 . S
C506 C505 1.362 . S
C506 C509 1.409 . S
C507 H499 0.930 . S
C507 C508 1.355 . S
C507 C509 1.415 . S
C508 C507 1.355 . S
C508 C510 1.419 . S
C509 C504 1.425 . S
C509 C506 1.409 . S
C509 C507 1.415 . S
C510 H500 0.930 . S
C510 C508 1.419 . S
C510 C511 1.362 . S
C511 H501 0.930 . S
C511 C504 1.409 . S
C511 C510 1.362 . S
H512 C518 0.930 . S
H513 C521 0.930 . S
H514 C522 0.930 . S
H515 C523 0.930 . S
H516 C526 0.930 . S
H517 C527 0.930 . S
C518 H512 0.930 . S
C518 C519 1.355 . S
C518 C520 1.415 . S
C519 C518 1.355 . S
C519 C521 1.419 . S
C520 C518 1.415 . S
C520 C525 1.425 . S
C520 C527 1.409 . S
C521 H513 0.930 . S
C521 C519 1.419 . S
C521 C522 1.362 . S
C522 H514 0.930 . S
C522 C521 1.362 . S
C522 C525 1.409 . S
C523 H515 0.930 . S
C523 C524 1.355 . S
C523 C525 1.415 . S
C524 C523 1.355 . S
C524 C526 1.419 . S
C525 C520 1.425 . S
C525 C522 1.409 . S
C525 C523 1.415 . S
C526 H516 0.930 . S
C526 C524 1.419 . S
C526 C527 1.362 . S
C527 H517 0.930 . S
C527 C520 1.409 . S
C527 C526 1.362 . S
H528 C534 0.930 . S
H529 C537 0.930 . S
H530 C538 0.930 . S
H531 C539 0.930 . S
H532 C542 0.930 . S
H533 C543 0.930 . S
C534 H528 0.930 . S
C534 C535 1.355 . S
C534 C536 1.415 . S
C535 C534 1.355 . S
C535 C537 1.419 . S
C536 C534 1.415 . S
C536 C541 1.425 . S
C536 C543 1.409 . S
C537 H529 0.930 . S
C537 C535 1.419 . S
C537 C538 1.362 . S
C538 H530 0.930 . S
C538 C537 1.362 . S
C538 C541 1.409 . S
C539 H531 0.930 . S
C539 C540 1.355 . S
C539 C541 1.415 . S
C540 C539 1.355 . S
C540 C542 1.419 . S
C541 C536 1.425 . S
C541 C538 1.409 . S
C541 C539 1.415 . S
C542 H532 0.930 . S
C542 C540 1.419 . S
C542 C543 1.362 . S
C543 H533 0.930 . S
C543 C536 1.409 . S
C543 C542 1.362 . S
H544 C550 0.930 . S
H545 C553 0.930 . S
H546 C554 0.930 . S
H547 C555 0.930 . S
H548 C558 0.930 . S
H549 C559 0.930 . S
C550 H544 0.930 . S
C550 C551 1.355 . S
C550 C552 1.415 . S
C551 C550 1.355 . S
C551 C553 1.419 . S
C552 C550 1.415 . S
C552 C557 1.425 . S
C552 C559 1.409 . S
C553 H545 0.930 . S
C553 C551 1.419 . S
C553 C554 1.362 . S
C554 H546 0.930 . S
C554 C553 1.362 . S
C554 C557 1.409 . S
C555 H547 0.930 . S
C555 C556 1.355 . S
C555 C557 1.415 . S
C556 C555 1.355 . S
C556 C558 1.419 . S
C557 C552 1.425 . S
C557 C554 1.409 . S
C557 C555 1.415 . S
C558 H548 0.930 . S
C558 C556 1.419 . S
C558 C559 1.362 . S
C559 H549 0.930 . S
C559 C552 1.409 . S
C559 C558 1.362 . S
C183 N4 1.539 . S
C188 C114 1.530 . S
C204 C92 1.498 . S
C199 N15 1.531 . S
C220 C118 1.556 . S
C215 N26 1.583 . S
C236 C96 1.433 . S
C231 N37 1.463 . S
C252 C158 1.479 . S
C247 N48 1.514 . S
C268 C136 1.490 . S
C263 N59 1.524 . S
C279 N70 1.574 . S
C284 C162 1.561 . S
C300 C140 1.436 . S
C295 N81 1.477 . S
C311 C9 1.519 . S
C316 C163 1.505 . S
C332 C141 1.485 . S
C327 C20 1.486 . S
C343 C31 1.577 . S
C348 C160 1.563 . S
C359 C39 1.432 . S
C364 C138 1.406 . S
C380 C119 1.509 . S
C375 C53 1.508 . S
C391 C64 1.476 . S
C396 C97 1.486 . S
C412 C116 1.558 . S
C407 C75 1.579 . S
C428 C94 1.408 . S
C423 C83 1.429 . S
C444 C137 1.456 . S
C439 C6 1.498 . S
C460 C159 1.494 . S
C455 C17 1.446 . S
C471 C28 1.493 . S
C476 C139 1.473 . S
C492 C161 1.490 . S
C487 C42 1.439 . S
C508 C93 1.500 . S
C503 C50 1.458 . S
C519 C61 1.447 . S
C524 C115 1.494 . S
C535 C72 1.504 . S
C540 C95 1.454 . S
C551 C86 1.455 . S
C556 C117 1.475 . S
