# Generated by pormake.
# Topology pto, (3,4)-cn, num edge types: 1
# Building blocks:
#     Node 0, Type 0, BuildingBlock: OLANEW_clean_sbu_2, # of connection points: 3
#     Node 1, Type 0, BuildingBlock: OLANEW_clean_sbu_2, # of connection points: 3
#     Node 2, Type 0, BuildingBlock: OLANEW_clean_sbu_2, # of connection points: 3
#     Node 3, Type 0, BuildingBlock: OLANEW_clean_sbu_2, # of connection points: 3
#     Node 4, Type 0, BuildingBlock: OLANEW_clean_sbu_2, # of connection points: 3
#     Node 5, Type 0, BuildingBlock: OLANEW_clean_sbu_2, # of connection points: 3
#     Node 6, Type 0, BuildingBlock: OLANEW_clean_sbu_2, # of connection points: 3
#     Node 7, Type 0, BuildingBlock: OLANEW_clean_sbu_2, # of connection points: 3
#     Node 8, Type 1, BuildingBlock: KUFVIS_clean_linker_0, # of connection points: 4
#     Node 9, Type 1, BuildingBlock: KUFVIS_clean_linker_0, # of connection points: 4
#     Node 10, Type 1, BuildingBlock: KUFVIS_clean_linker_0, # of connection points: 4
#     Node 11, Type 1, BuildingBlock: KUFVIS_clean_linker_0, # of connection points: 4
#     Node 12, Type 1, BuildingBlock: KUFVIS_clean_linker_0, # of connection points: 4
#     Node 13, Type 1, BuildingBlock: KUFVIS_clean_linker_0, # of connection points: 4
#     Edge 14, Type (0, 1), BuildingBlock: EZIPEK_clean_linker_0, # of connection points: 2
#     Edge 15, Type (0, 1), BuildingBlock: EZIPEK_clean_linker_0, # of connection points: 2
#     Edge 16, Type (0, 1), BuildingBlock: EZIPEK_clean_linker_0, # of connection points: 2
#     Edge 17, Type (0, 1), BuildingBlock: EZIPEK_clean_linker_0, # of connection points: 2
#     Edge 18, Type (0, 1), BuildingBlock: EZIPEK_clean_linker_0, # of connection points: 2
#     Edge 19, Type (0, 1), BuildingBlock: EZIPEK_clean_linker_0, # of connection points: 2
#     Edge 20, Type (0, 1), BuildingBlock: EZIPEK_clean_linker_0, # of connection points: 2
#     Edge 21, Type (0, 1), BuildingBlock: EZIPEK_clean_linker_0, # of connection points: 2
#     Edge 22, Type (0, 1), BuildingBlock: EZIPEK_clean_linker_0, # of connection points: 2
#     Edge 23, Type (0, 1), BuildingBlock: EZIPEK_clean_linker_0, # of connection points: 2
#     Edge 24, Type (0, 1), BuildingBlock: EZIPEK_clean_linker_0, # of connection points: 2
#     Edge 25, Type (0, 1), BuildingBlock: EZIPEK_clean_linker_0, # of connection points: 2
#     Edge 26, Type (0, 1), BuildingBlock: EZIPEK_clean_linker_0, # of connection points: 2
#     Edge 27, Type (0, 1), BuildingBlock: EZIPEK_clean_linker_0, # of connection points: 2
#     Edge 28, Type (0, 1), BuildingBlock: EZIPEK_clean_linker_0, # of connection points: 2
#     Edge 29, Type (0, 1), BuildingBlock: EZIPEK_clean_linker_0, # of connection points: 2
#     Edge 30, Type (0, 1), BuildingBlock: EZIPEK_clean_linker_0, # of connection points: 2
#     Edge 31, Type (0, 1), BuildingBlock: EZIPEK_clean_linker_0, # of connection points: 2
#     Edge 32, Type (0, 1), BuildingBlock: EZIPEK_clean_linker_0, # of connection points: 2
#     Edge 33, Type (0, 1), BuildingBlock: EZIPEK_clean_linker_0, # of connection points: 2
#     Edge 34, Type (0, 1), BuildingBlock: EZIPEK_clean_linker_0, # of connection points: 2
#     Edge 35, Type (0, 1), BuildingBlock: EZIPEK_clean_linker_0, # of connection points: 2
#     Edge 36, Type (0, 1), BuildingBlock: EZIPEK_clean_linker_0, # of connection points: 2
#     Edge 37, Type (0, 1), BuildingBlock: EZIPEK_clean_linker_0, # of connection points: 2
# Relax obj value: 0.010
# Max RMSD: 0.114
# Mean RMSD: 0.066
data_MOF--net-pto--node1-OLANEW_clean_sbu_2--node2-KUFVIS_clean_linker_0--edge1-EZIPEK_clean_linker_0
_symmetry_space_group_name_H-M    P1
_symmetry_Int_Tables_number       1
_symmetry_cell_setting            triclinic
loop_
_symmetry_equiv_pos_as_xyz
'x, y, z'
_cell_length_a     22.486218
_cell_length_b     40.67811
_cell_length_c     31.662028
_cell_angle_alpha  92.393242
_cell_angle_beta   89.198348
_cell_angle_gamma 108.33403
loop_
_atom_site_label
_atom_site_type_symbol
_atom_site_fract_x
_atom_site_fract_y
_atom_site_fract_z
_atom_type_partial_charge
O0 O 0.25609 0.31257 0.28272 0.0
Cd1 Cd 0.22051 0.32426 0.35356 0.0
O2 O 0.34308 0.357 0.28625 0.0
Cd3 Cd 0.31807 0.38102 0.34419 0.0
O4 O 0.28609 0.42106 0.37659 0.0
C5 C 0.32251 0.44909 0.39306 0.0
O6 O 0.38326 0.45457 0.39322 0.0
C7 C 0.30807 0.33001 0.26673 0.0
C8 C 0.24896 0.28296 0.41347 0.0
O9 O 0.19761 0.27218 0.39256 0.0
O10 O 0.28687 0.31306 0.40606 0.0
O11 O 0.28271 0.87631 0.79059 0.0
Cd12 Cd 0.22303 0.87479 0.72611 0.0
O13 O 0.32681 0.83831 0.76466 0.0
Cd14 Cd 0.27443 0.82416 0.7055 0.0
O15 O 0.21522 0.78213 0.66492 0.0
C16 C 0.23619 0.75835 0.65021 0.0
O17 O 0.29473 0.76052 0.65726 0.0
C18 C 0.32046 0.85899 0.79437 0.0
C19 C 0.25264 0.93857 0.68772 0.0
O20 O 0.20954 0.93035 0.71588 0.0
O21 O 0.28257 0.91714 0.67835 0.0
O22 O 0.83002 0.81885 0.36973 0.0
Cd23 Cd 0.80024 0.75907 0.33894 0.0
O24 O 0.87734 0.84533 0.31322 0.0
Cd25 Cd 0.85409 0.7988 0.27198 0.0
O26 O 0.79779 0.78979 0.21458 0.0
C27 C 0.78548 0.81706 0.20532 0.0
O28 O 0.80936 0.84555 0.22867 0.0
C29 C 0.8596 0.84656 0.35133 0.0
C30 C 0.8573 0.71215 0.36823 0.0
O31 O 0.87949 0.73112 0.33679 0.0
O32 O 0.8088 0.71575 0.3871 0.0
O33 O 0.73695 0.31301 0.59923 0.0
Cd34 Cd 0.69103 0.25795 0.63583 0.0
O35 O 0.7366 0.34115 0.6601 0.0
Cd36 Cd 0.67865 0.29817 0.69647 0.0
O37 O 0.61551 0.28439 0.75048 0.0
C38 C 0.62231 0.26584 0.78014 0.0
O39 O 0.6677 0.25192 0.77829 0.0
C40 C 0.75187 0.34135 0.62126 0.0
C41 C 0.71555 0.19871 0.60097 0.0
O42 O 0.75757 0.22251 0.62153 0.0
O43 O 0.6618 0.20287 0.5967 0.0
O44 O 0.76164 0.81954 0.56197 0.0
Cd45 Cd 0.71661 0.75663 0.54351 0.0
O46 O 0.78441 0.81949 0.62931 0.0
Cd47 Cd 0.81044 0.84427 0.6918 0.0
O48 O 0.79618 0.85178 0.75939 0.0
C49 C 0.75424 0.86551 0.76949 0.0
O50 O 0.72681 0.87704 0.73971 0.0
C51 C 0.78193 0.83604 0.5966 0.0
C52 C 0.7774 0.70802 0.56012 0.0
O53 O 0.79279 0.72731 0.52817 0.0
O54 O 0.73507 0.71256 0.58513 0.0
O55 O 0.94681 0.33277 0.32755 0.0
Cd56 Cd 0.91899 0.27357 0.29481 0.0
O57 O 0.89239 0.35004 0.28053 0.0
Cd58 Cd 0.84952 0.30126 0.24524 0.0
O59 O 0.77699 0.28187 0.19704 0.0
C60 C 0.74674 0.30301 0.19162 0.0
O61 O 0.76252 0.3325 0.21378 0.0
C62 C 0.9286 0.35653 0.31237 0.0
C63 C 0.92732 0.21917 0.34389 0.0
O64 O 0.9751 0.23721 0.32328 0.0
O65 O 0.87669 0.2272 0.34211 0.0
O66 O 0.32068 0.447 0.84809 0.0
Cd67 Cd 0.32581 0.48886 0.79318 0.0
O68 O 0.35524 0.41676 0.80039 0.0
Cd69 Cd 0.38585 0.37243 0.77985 0.0
O70 O 0.39269 0.32779 0.74114 0.0
C71 C 0.39274 0.29906 0.75545 0.0
O72 O 0.39142 0.29503 0.79643 0.0
C73 C 0.34062 0.42165 0.83852 0.0
C74 C 0.21826 0.48783 0.74943 0.0
O75 O 0.25103 0.46853 0.73698 0.0
O76 O 0.23435 0.50633 0.78366 0.0
O77 O 0.37089 0.94758 0.2274 0.0
Cd78 Cd 0.28715 0.96002 0.26867 0.0
O79 O 0.31449 0.8936 0.23471 0.0
Cd80 Cd 0.28801 0.83678 0.23078 0.0
O81 O 0.24877 0.78504 0.25627 0.0
C82 C 0.28192 0.7668 0.26781 0.0
O83 O 0.34285 0.77771 0.26203 0.0
C84 C 0.36197 0.91561 0.21865 0.0
C85 C 0.31879 1.00046 0.34295 0.0
O86 O 0.30934 0.96771 0.34282 0.0
O87 O 0.31558 0.01444 0.30788 0.0
H88 H 0.11301 0.46771 0.38965 0.0
H89 H 0.99334 0.52895 0.36684 0.0
H90 H 0.18125 0.57748 0.41488 0.0
H91 H 0.17353 0.61177 0.35622 0.0
H92 H 0.06719 0.6824 0.35548 0.0
H93 H 0.98486 0.5818 0.4066 0.0
C94 C 0.10467 0.49262 0.39159 0.0
C95 C 0.15324 0.52223 0.40401 0.0
C96 C 0.04694 0.49471 0.37886 0.0
C97 C 0.03698 0.52723 0.37907 0.0
C98 C 0.08572 0.55765 0.39139 0.0
C99 C 0.14311 0.55458 0.40542 0.0
C100 C 0.08054 0.59267 0.38391 0.0
C101 C 0.13109 0.61768 0.3648 0.0
C102 C 0.12608 0.64987 0.35455 0.0
C103 C 0.07113 0.6576 0.36401 0.0
C104 C 0.02026 0.63334 0.3827 0.0
C105 C 0.02474 0.60075 0.39271 0.0
H106 H 0.99116 0.67256 0.58294 0.0
H107 H 0.07873 0.59499 0.5993 0.0
H108 H 0.87652 0.5662 0.58831 0.0
H109 H 0.88824 0.51166 0.57158 0.0
H110 H 0.96454 0.44764 0.64497 0.0
H111 H 0.05405 0.55685 0.64856 0.0
C112 C 0.98731 0.64533 0.58431 0.0
C113 C 0.92845 0.62019 0.58156 0.0
C114 C 0.04057 0.63623 0.59232 0.0
C115 C 0.03603 0.60122 0.59434 0.0
C116 C 0.97686 0.57518 0.59445 0.0
C117 C 0.9228 0.58507 0.58729 0.0
C118 C 0.97234 0.53923 0.60733 0.0
C119 C 0.92347 0.50939 0.59323 0.0
C120 C 0.91956 0.47634 0.60774 0.0
C121 C 0.96636 0.47299 0.63447 0.0
C122 C 0.01544 0.50194 0.64794 0.0
C123 C 0.01725 0.53481 0.63552 0.0
H124 H 0.33348 0.24682 0.58704 0.0
H125 H 0.37456 0.1577 0.63059 0.0
H126 H 0.30135 0.1569 0.50465 0.0
H127 H 0.35892 0.12123 0.49141 0.0
H128 H 0.31462 0.01768 0.53377 0.0
H129 H 0.31452 0.09994 0.62303 0.0
C130 C 0.33504 0.22062 0.58133 0.0
C131 C 0.31731 0.20391 0.5419 0.0
C132 C 0.35471 0.20379 0.61348 0.0
C133 C 0.35786 0.17007 0.60575 0.0
C134 C 0.33867 0.15244 0.56643 0.0
C135 C 0.31802 0.16981 0.53481 0.0
C136 C 0.33772 0.11573 0.55847 0.0
C137 C 0.34679 0.10363 0.51718 0.0
C138 C 0.33705 0.0683 0.50816 0.0
C139 C 0.32252 0.04506 0.54084 0.0
C140 C 0.31618 0.05663 0.58235 0.0
C141 C 0.32306 0.09181 0.59115 0.0
H142 H 0.58229 0.8609 0.15461 0.0
H143 H 0.63313 0.83238 0.03097 0.0
H144 H 0.48415 0.87812 0.04695 0.0
H145 H 0.45687 0.85431 0.98303 0.0
H146 H 0.54873 0.86438 0.86276 0.0
H147 H 0.65468 0.86449 0.97384 0.0
C148 C 0.57514 0.85927 0.12067 0.0
C149 C 0.52703 0.86968 0.10379 0.0
C150 C 0.61264 0.84553 0.09444 0.0
C151 C 0.60423 0.84371 0.05054 0.0
C152 C 0.55954 0.85666 0.03231 0.0
C153 C 0.51974 0.86857 0.05961 0.0
C154 C 0.556 0.85864 0.98522 0.0
C155 C 0.49952 0.85758 0.96511 0.0
C156 C 0.49747 0.86037 0.92114 0.0
C157 C 0.55079 0.8629 0.89684 0.0
C158 C 0.60673 0.86361 0.9158 0.0
C159 C 0.60994 0.86242 0.95985 0.0
H160 H 0.84662 0.14774 0.48332 0.0
H161 H 0.78775 0.05014 0.54311 0.0
H162 H 0.91647 0.06679 0.43671 0.0
H163 H 0.86826 0.00992 0.42493 0.0
H164 H 0.84813 0.91955 0.49494 0.0
H165 H 0.83853 0.01193 0.56086 0.0
C166 C 0.84938 0.12172 0.48595 0.0
C167 C 0.88401 0.10925 0.45627 0.0
C168 C 0.8152 0.10078 0.51738 0.0
C169 C 0.81675 0.06654 0.51975 0.0
C170 C 0.85392 0.05349 0.49115 0.0
C171 C 0.88794 0.0756 0.45949 0.0
C172 C 0.8545 0.01655 0.49281 0.0
C173 C 0.86275 0.99806 0.4553 0.0
C174 C 0.86096 0.96325 0.45641 0.0
C175 C 0.85079 0.94668 0.49455 0.0
C176 C 0.84202 0.96379 0.53195 0.0
C177 C 0.84466 0.99888 0.53142 0.0
H178 H 0.49266 0.29772 0.16079 0.0
H179 H 0.54883 0.29011 0.03213 0.0
H180 H 0.36553 0.29893 0.06139 0.0
H181 H 0.39273 0.33355 0.00278 0.0
H182 H 0.44844 0.31856 0.87538 0.0
H183 H 0.49594 0.26176 0.97338 0.0
C184 C 0.4817 0.29612 0.12734 0.0
C185 C 0.42418 0.29862 0.11443 0.0
C186 C 0.52598 0.29252 0.09774 0.0
C187 C 0.51264 0.29135 0.0545 0.0
C188 C 0.45497 0.29399 0.04047 0.0
C189 C 0.4103 0.29701 0.07103 0.0
C190 C 0.44477 0.2968 0.99431 0.0
C191 C 0.41381 0.31969 0.98033 0.0
C192 C 0.41395 0.32684 0.93727 0.0
C193 C 0.44567 0.31162 0.90823 0.0
C194 C 0.47581 0.28857 0.92124 0.0
C195 C 0.47273 0.2799 0.96385 0.0
C196 C 0.29575 0.50081 0.37047 0.0
C197 C 0.29707 0.47795 0.40282 0.0
C198 C 0.22304 0.49853 0.44518 0.0
C199 C 0.21563 0.51788 0.41054 0.0
N200 N 0.25802 0.54672 0.34684 0.0
N201 N 0.27701 0.4614 0.47485 0.0
C202 C 0.25714 0.52246 0.37561 0.0
C203 C 0.26598 0.4792 0.44177 0.0
N204 N 0.32808 0.50001 0.33372 0.0
N205 N 0.18598 0.49726 0.48003 0.0
H206 H 0.30853 0.44726 0.47261 0.0
H207 H 0.25873 0.46242 0.50505 0.0
H208 H 0.15646 0.51255 0.48338 0.0
H209 H 0.18359 0.48113 0.50506 0.0
H210 H 0.32311 0.51259 0.30669 0.0
H211 H 0.35854 0.4854 0.32952 0.0
H212 H 0.29053 0.55346 0.32244 0.0
H213 H 0.22962 0.56257 0.34955 0.0
C214 C 0.1517 0.70335 0.66509 0.0
C215 C 0.19144 0.72488 0.63518 0.0
C216 C 0.13826 0.68523 0.57696 0.0
C217 C 0.09778 0.66408 0.60681 0.0
N218 N 0.07047 0.64949 0.67929 0.0
N219 N 0.23111 0.73422 0.56417 0.0
C220 C 0.1062 0.672 0.65093 0.0
C221 C 0.18754 0.71504 0.59151 0.0
N222 N 0.15653 0.71347 0.70705 0.0
N223 N 0.12806 0.67725 0.53474 0.0
H224 H 0.26664 0.75665 0.57381 0.0
H225 H 0.23479 0.72699 0.53259 0.0
H226 H 0.09442 0.65464 0.52339 0.0
H227 H 0.15081 0.69338 0.5109 0.0
H228 H 0.12396 0.70182 0.72993 0.0
H229 H 0.19226 0.73478 0.71922 0.0
H230 H 0.07893 0.65138 0.71164 0.0
H231 H 0.03397 0.62729 0.67056 0.0
C232 C 0.92013 0.68793 0.41679 0.0
C233 C 0.88427 0.68465 0.37939 0.0
C234 C 0.92073 0.63696 0.35243 0.0
C235 C 0.96158 0.64265 0.38757 0.0
N236 N 0.98914 0.66581 0.45806 0.0
N237 N 0.83408 0.64947 0.31905 0.0
C238 C 0.95699 0.66545 0.42165 0.0
C239 C 0.87913 0.65684 0.34969 0.0
N240 N 0.9213 0.71358 0.44636 0.0
N241 N 0.92483 0.61415 0.32044 0.0
H242 H 0.80264 0.66349 0.3167 0.0
H243 H 0.82398 0.62776 0.29854 0.0
H244 H 0.95275 0.59808 0.32251 0.0
H245 H 0.90266 0.61199 0.29135 0.0
H246 H 0.95048 0.71958 0.47267 0.0
H247 H 0.89375 0.72979 0.44393 0.0
H248 H 0.98561 0.68006 0.48549 0.0
H249 H 0.01577 0.64923 0.46176 0.0
C250 C 0.84482 0.38157 0.58243 0.0
C251 C 0.786 0.37552 0.60311 0.0
C252 C 0.80718 0.43819 0.61502 0.0
C253 C 0.86719 0.44415 0.59638 0.0
N254 N 0.93337 0.42339 0.54936 0.0
N255 N 0.70236 0.39814 0.62323 0.0
C256 C 0.8822 0.41633 0.57527 0.0
C257 C 0.76422 0.40399 0.61386 0.0
N258 N 0.86747 0.35472 0.57261 0.0
N259 N 0.79261 0.46445 0.63655 0.0
H260 H 0.66976 0.37332 0.62159 0.0
H261 H 0.68254 0.41797 0.62794 0.0
H262 H 0.82229 0.48994 0.63807 0.0
H263 H 0.75259 0.46047 0.65519 0.0
H264 H 0.9132 0.35826 0.56236 0.0
H265 H 0.84224 0.3289 0.57717 0.0
H266 H 0.94431 0.40458 0.53033 0.0
H267 H 0.96108 0.44876 0.54386 0.0
C268 C 0.3219 0.25333 0.44156 0.0
C269 C 0.26466 0.26109 0.44521 0.0
C270 C 0.23786 0.22652 0.50857 0.0
C271 C 0.29825 0.22249 0.50771 0.0
N272 N 0.40136 0.23576 0.4768 0.0
N273 N 0.17183 0.25932 0.48565 0.0
C274 C 0.3413 0.23689 0.4751 0.0
C275 C 0.22331 0.24863 0.4795 0.0
N276 N 0.35645 0.2603 0.40524 0.0
N277 N 0.19406 0.20875 0.53673 0.0
H278 H 0.16015 0.27615 0.4658 0.0
H279 H 0.14371 0.25405 0.51252 0.0
H280 H 0.20336 0.19264 0.55877 0.0
H281 H 0.14714 0.20756 0.53583 0.0
H282 H 0.39511 0.25197 0.39899 0.0
H283 H 0.34294 0.27136 0.3794 0.0
H284 H 0.43681 0.2493 0.45664 0.0
H285 H 0.41721 0.22355 0.50053 0.0
C286 C 0.34856 0.83046 0.85598 0.0
C287 C 0.3558 0.86127 0.83414 0.0
C288 C 0.43943 0.8931 0.88311 0.0
C289 C 0.44035 0.86119 0.8989 0.0
N290 N 0.39679 0.79907 0.90073 0.0
N291 N 0.40948 0.9222 0.82573 0.0
C292 C 0.39445 0.82975 0.88602 0.0
C293 C 0.40071 0.89292 0.84792 0.0
N294 N 0.29732 0.80206 0.84827 0.0
N295 N 0.47647 0.92348 0.90154 0.0
H296 H 0.38248 0.92318 0.79961 0.0
H297 H 0.4464 0.94495 0.83129 0.0
H298 H 0.50533 0.9241 0.92731 0.0
H299 H 0.47419 0.94774 0.89409 0.0
H300 H 0.28639 0.77985 0.86583 0.0
H301 H 0.26229 0.80205 0.82698 0.0
H302 H 0.36965 0.77494 0.88849 0.0
H303 H 0.42853 0.79772 0.92378 0.0
C304 C 0.80847 0.8907 0.37503 0.0
C305 C 0.86364 0.88073 0.37168 0.0
C306 C 0.92275 0.93338 0.41206 0.0
C307 C 0.86654 0.94181 0.41826 0.0
N308 N 0.76037 0.93429 0.39823 0.0
N309 N 0.97568 0.89556 0.37802 0.0
C310 C 0.81089 0.92239 0.39693 0.0
C311 C 0.92179 0.90325 0.38704 0.0
N312 N 0.75351 0.86935 0.35809 0.0
N313 N 0.97609 0.95339 0.43212 0.0
H314 H 0.97604 0.87307 0.3611 0.0
H315 H 0.02036 0.91222 0.38494 0.0
H316 H 0.97844 0.97652 0.44864 0.0
H317 H 0.01723 0.94692 0.4335 0.0
H318 H 0.71003 0.87277 0.36325 0.0
H319 H 0.75068 0.84709 0.33957 0.0
H320 H 0.71939 0.92311 0.38106 0.0
H321 H 0.76126 0.95737 0.41423 0.0
C322 C 0.52204 0.24736 0.82112 0.0
C323 C 0.58691 0.26603 0.81984 0.0
C324 C 0.58103 0.29194 0.89057 0.0
C325 C 0.51488 0.27634 0.88986 0.0
N326 N 0.42157 0.23858 0.85616 0.0
N327 N 0.67849 0.30773 0.85115 0.0
C328 C 0.48523 0.25352 0.85573 0.0
C329 C 0.61679 0.2882 0.85435 0.0
N330 N 0.49613 0.22363 0.78923 0.0
N331 N 0.60965 0.31101 0.92549 0.0
H332 H 0.7068 0.30556 0.82552 0.0
H333 H 0.70113 0.32782 0.87241 0.0
H334 H 0.58543 0.31715 0.9513 0.0
H335 H 0.65785 0.31908 0.93033 0.0
H336 H 0.45016 0.20718 0.78909 0.0
H337 H 0.5222 0.21873 0.76359 0.0
H338 H 0.39542 0.225 0.83053 0.0
H339 H 0.39405 0.24072 0.88231 0.0
C340 C 0.3285 0.99552 0.66735 0.0
C341 C 0.26687 0.97166 0.66563 0.0
C342 C 0.2349 0.00978 0.61897 0.0
C343 C 0.29833 0.03067 0.61571 0.0
N344 N 0.40679 0.04309 0.63462 0.0
N345 N 0.16232 0.95402 0.63639 0.0
C346 C 0.34549 0.02365 0.63962 0.0
C347 C 0.21995 0.97845 0.64102 0.0
N348 N 0.3702 0.99175 0.6963 0.0
N349 N 0.18905 0.01994 0.60082 0.0
H350 H 0.14954 0.93042 0.65124 0.0
H351 H 0.12875 0.95578 0.61504 0.0
H352 H 0.1987 0.04258 0.58404 0.0
H353 H 0.14139 1.00778 0.60559 0.0
H354 H 0.41381 0.01008 0.702 0.0
H355 H 0.35892 0.97175 0.71753 0.0
H356 H 0.44416 0.0367 0.64706 0.0
H357 H 0.42064 0.06467 0.61581 0.0
C358 C 0.68044 0.79691 0.16901 0.0
C359 C 0.7444 0.81766 0.16941 0.0
C360 C 0.72432 0.85311 0.11401 0.0
C361 C 0.66027 0.83277 0.11416 0.0
N362 N 0.58103 0.77979 0.13185 0.0
N363 N 0.83056 0.85804 0.13406 0.0
C364 C 0.63971 0.80266 0.13827 0.0
C365 C 0.7674 0.8433 0.13903 0.0
N366 N 0.65745 0.77353 0.19968 0.0
N367 N 0.74339 0.88284 0.092 0.0
H368 H 0.86313 0.85082 0.15157 0.0
H369 H 0.85051 0.87463 0.1099 0.0
H370 H 0.71345 0.89073 0.07286 0.0
H371 H 0.78794 0.90088 0.09484 0.0
H372 H 0.60985 0.76087 0.20396 0.0
H373 H 0.68533 0.76844 0.22291 0.0
H374 H 0.56517 0.75577 0.14564 0.0
H375 H 0.5504 0.78344 0.10937 0.0
C376 C 0.76473 0.15127 0.60702 0.0
C377 C 0.72947 0.16737 0.58285 0.0
C378 C 0.72721 0.12532 0.5246 0.0
C379 C 0.77466 0.11562 0.5447 0.0
N380 N 0.84036 0.11993 0.60545 0.0
N381 N 0.68316 0.17144 0.51525 0.0
C382 C 0.79329 0.12831 0.58637 0.0
C383 C 0.71101 0.15442 0.54096 0.0
N384 N 0.76966 0.15722 0.6498 0.0
N385 N 0.69959 0.1074 0.48885 0.0
H386 H 0.67443 0.1944 0.52416 0.0
H387 H 0.67482 0.16481 0.48324 0.0
H388 H 0.71136 0.0861 0.4763 0.0
H389 H 0.66104 0.11136 0.47459 0.0
H390 H 0.79045 0.14397 0.66932 0.0
H391 H 0.74663 0.1724 0.66628 0.0
H392 H 0.86109 0.13183 0.63371 0.0
H393 H 0.8611 0.10247 0.59175 0.0
C394 C 0.33371 0.28632 0.21675 0.0
C395 C 0.32756 0.31976 0.22447 0.0
C396 C 0.37578 0.33799 0.15576 0.0
C397 C 0.38083 0.30439 0.14775 0.0
N398 N 0.34999 0.2443 0.16491 0.0
N399 N 0.32543 0.3736 0.19634 0.0
C400 C 0.3545 0.27775 0.17638 0.0
C401 C 0.34311 0.3444 0.19233 0.0
N402 N 0.3239 0.26357 0.24866 0.0
N403 N 0.40509 0.36432 0.12986 0.0
H404 H 0.30002 0.37873 0.22221 0.0
H405 H 0.33016 0.39083 0.17213 0.0
H406 H 0.42897 0.36078 0.10247 0.0
H407 H 0.40951 0.39019 0.13714 0.0
H408 H 0.33448 0.24041 0.24608 0.0
H409 H 0.31034 0.26903 0.27907 0.0
H410 H 0.32615 0.2232 0.18272 0.0
H411 H 0.36485 0.23742 0.13542 0.0
C412 C 0.83228 0.67819 0.60753 0.0
C413 C 0.80696 0.68062 0.5673 0.0
C414 C 0.84881 0.63534 0.53804 0.0
C415 C 0.87376 0.63311 0.57823 0.0
N416 N 0.87371 0.64423 0.65331 0.0
N417 N 0.77594 0.65464 0.4977 0.0
C418 C 0.85949 0.65161 0.61373 0.0
C419 C 0.8105 0.65701 0.53354 0.0
N420 N 0.83505 0.70279 0.63887 0.0
N421 N 0.86368 0.61772 0.50395 0.0
H422 H 0.74547 0.66904 0.49393 0.0
H423 H 0.77254 0.63602 0.47349 0.0
H424 H 0.88957 0.60066 0.50669 0.0
H425 H 0.853 0.62121 0.4729 0.0
H426 H 0.85899 0.70427 0.66717 0.0
H427 H 0.81906 0.72392 0.63524 0.0
H428 H 0.85959 0.65458 0.68087 0.0
H429 H 0.89412 0.62497 0.65844 0.0
C430 C 0.98862 0.41904 0.30224 0.0
C431 C 0.95308 0.39292 0.32926 0.0
C432 C 0.96725 0.43633 0.38774 0.0
C433 C 1.0019 0.46236 0.36042 0.0
N434 N 0.0331 0.48037 0.28985 0.0
N435 N 0.89747 0.37755 0.39485 0.0
C436 C 0.00786 0.45428 0.31694 0.0
C437 C 0.93897 0.40183 0.37123 0.0
N438 N 0.00769 0.40996 0.26349 0.0
N439 N 0.96343 0.4445 0.42978 0.0
H440 H 0.8761 0.3521 0.38371 0.0
H441 H 0.88047 0.38318 0.42411 0.0
H442 H 0.98064 0.4699 0.44217 0.0
H443 H 0.94577 0.42615 0.4525 0.0
H444 H 0.03947 0.42735 0.24436 0.0
H445 H 0.99661 0.38438 0.25189 0.0
H446 H 0.03298 0.47657 0.25712 0.0
H447 H 0.04886 0.50643 0.29976 0.0
C448 C 0.10493 0.48406 0.74133 0.0
C449 C 0.16559 0.49048 0.72339 0.0
C450 C 0.12549 0.50045 0.655 0.0
C451 C 0.06677 0.49767 0.67408 0.0
N452 N 1.00247 0.49169 0.73661 0.0
N453 N 0.23656 0.51178 0.66541 0.0
C454 C 0.05696 0.49082 0.71764 0.0
C455 C 0.17669 0.50045 0.68076 0.0
N456 N 0.09246 0.47018 0.7803 0.0
N457 N 0.13203 0.50229 0.61207 0.0
H458 H 0.27586 0.51339 0.68345 0.0
H459 H 0.24784 0.52289 0.63612 0.0
H460 H 0.09573 0.50253 0.59204 0.0
H461 H 0.17164 0.50042 0.59597 0.0
H462 H 0.04762 0.46159 0.7932 0.0
H463 H 0.12601 0.46423 0.79821 0.0
H464 H 0.99526 0.49067 0.76915 0.0
H465 H 0.96616 0.49628 0.72016 0.0
C466 C 0.25964 0.73193 0.33314 0.0
C467 C 0.25137 0.73385 0.28898 0.0
C468 C 0.17467 0.67548 0.28701 0.0
C469 C 0.17665 0.67572 0.33177 0.0
N470 N 0.21991 0.703 0.3982 0.0
N471 N 0.20337 0.70787 0.22303 0.0
C472 C 0.21967 0.70339 0.35501 0.0
C473 C 0.20996 0.70553 0.26559 0.0
N474 N 0.30508 0.75764 0.35419 0.0
N475 N 0.13888 0.64642 0.26519 0.0
H476 H 0.23139 0.72849 0.20597 0.0
H477 H 0.16887 0.69023 0.20468 0.0
H478 H 0.11193 0.62424 0.2801 0.0
H479 H 0.13915 0.64305 0.23245 0.0
H480 H 0.31809 0.75621 0.38529 0.0
H481 H 0.33305 0.77982 0.33982 0.0
H482 H 0.24406 0.72404 0.41772 0.0
H483 H 0.19337 0.68175 0.41494 0.0
C484 C 0.86079 0.89599 0.59846 0.0
C485 C 0.79746 0.87443 0.59843 0.0
C486 C 0.76302 0.92252 0.57616 0.0
C487 C 0.82652 0.94216 0.56983 0.0
N488 N 0.93426 0.95366 0.58779 0.0
N489 N 0.68844 0.86994 0.60226 0.0
C490 C 0.87482 0.93099 0.58627 0.0
C491 C 0.74854 0.88885 0.59259 0.0
N492 N 0.90725 0.88233 0.60731 0.0
N493 N 0.71704 0.93509 0.56308 0.0
H494 H 0.67742 0.84534 0.61464 0.0
H495 H 0.6507 0.87954 0.60158 0.0
H496 H 0.72703 0.96022 0.55254 0.0
H497 H 0.66977 0.92067 0.5617 0.0
H498 H 0.95478 0.89548 0.60388 0.0
H499 H 0.89787 0.85708 0.61726 0.0
H500 H 0.97211 0.94838 0.60118 0.0
H501 H 0.94407 0.97913 0.57833 0.0
C502 C 0.64122 0.26628 0.16334 0.0
C503 C 0.69535 0.29578 0.1603 0.0
C504 C 0.64142 0.32105 0.11035 0.0
C505 C 0.58743 0.29154 0.11324 0.0
N506 N 0.54149 0.23227 0.13253 0.0
N507 N 0.75339 0.34538 0.1213 0.0
C508 C 0.58944 0.26279 0.13633 0.0
C509 C 0.69748 0.32124 0.13055 0.0
N510 N 0.63727 0.24288 0.19385 0.0
N511 N 0.63833 0.34972 0.09061 0.0
H512 H 0.79557 0.34564 0.13489 0.0
H513 H 0.7589 0.36265 0.09706 0.0
H514 H 0.59821 0.35085 0.07545 0.0
H515 H 0.67414 0.37336 0.09203 0.0
H516 H 0.59613 0.22325 0.20069 0.0
H517 H 0.67361 0.24451 0.21468 0.0
H518 H 0.54279 0.20939 0.14549 0.0
H519 H 0.50304 0.22907 0.11287 0.0
C520 C 0.33136 0.2419 0.72104 0.0
C521 C 0.38853 0.26954 0.72529 0.0
C522 C 0.42918 0.24886 0.66065 0.0
C523 C 0.37098 0.22222 0.65537 0.0
N524 N 0.27286 0.18782 0.68477 0.0
N525 N 0.49672 0.29476 0.70611 0.0
C526 C 0.32431 0.21678 0.68725 0.0
C527 C 0.43914 0.27146 0.69727 0.0
N528 N 0.2823 0.24104 0.74749 0.0
N529 N 0.47389 0.25314 0.62984 0.0
H530 H 0.50521 0.31114 0.73315 0.0
H531 H 0.53707 0.29606 0.68888 0.0
H532 H 0.4692 0.23581 0.60391 0.0
H533 H 0.51445 0.27433 0.62892 0.0
H534 H 0.23701 0.22425 0.7429 0.0
H535 H 0.28561 0.25862 0.77293 0.0
H536 H 0.24029 0.18035 0.70904 0.0
H537 H 0.26525 0.16952 0.65973 0.0
C538 C 0.42789 0.92257 0.15223 0.0
C539 C 0.40549 0.90448 0.18971 0.0
C540 C 0.45427 0.86086 0.16684 0.0
C541 C 0.48444 0.88164 0.13293 0.0
N542 N 0.51269 0.93781 0.10175 0.0
N543 N 0.41607 0.86227 0.23819 0.0
C544 C 0.47514 0.91421 0.12804 0.0
C545 C 0.42409 0.87529 0.19873 0.0
N546 N 0.40239 0.94651 0.13829 0.0
N547 N 0.45214 0.82699 0.16803 0.0
H548 H 0.39781 0.87346 0.26333 0.0
H549 H 0.43417 0.84285 0.24683 0.0
H550 H 0.46975 0.81453 0.1438 0.0
H551 H 0.42636 0.81041 0.19067 0.0
H552 H 0.41413 0.95799 0.1092 0.0
H553 H 0.36441 0.95176 0.15293 0.0
H554 H 0.51064 0.96299 0.10014 0.0
H555 H 0.55044 0.93368 0.0854 0.0
C556 C 0.88552 0.15543 0.35487 0.0
C557 C 0.92837 0.18821 0.36701 0.0
C558 C 0.96128 0.16203 0.42734 0.0
C559 C 0.90976 0.13162 0.41998 0.0
N560 N 0.82222 0.09869 0.37672 0.0
N561 N 0.00877 0.2232 0.4144 0.0
C562 C 0.87254 0.12781 0.38318 0.0
C563 C 0.9679 0.19152 0.40263 0.0
N564 N 0.85788 0.15065 0.31594 0.0
N565 N 0.00284 0.16264 0.45864 0.0
H566 H 0.0149 0.2453 0.39716 0.0
H567 H 0.03403 0.22817 0.44253 0.0
H568 H 0.9982 0.14118 0.47691 0.0
H569 H 0.04437 0.18281 0.46391 0.0
H570 H 0.83077 0.12656 0.30355 0.0
H571 H 0.86721 0.17026 0.29423 0.0
H572 H 0.78823 0.09635 0.35378 0.0
H573 H 0.81259 0.07735 0.39579 0.0
C574 C 0.31453 0.36293 0.86939 0.0
C575 C 0.34964 0.39869 0.87137 0.0
C576 C 0.41959 0.38823 0.92439 0.0
C577 C 0.38549 0.35236 0.9215 0.0
N578 N 0.29323 0.30637 0.8996 0.0
N579 N 0.42647 0.44681 0.90718 0.0
C580 C 0.33031 0.34004 0.89673 0.0
C581 C 0.39874 0.41183 0.90136 0.0
N582 N 0.26723 0.35081 0.84052 0.0
N583 N 0.4744 0.39941 0.94674 0.0
H584 H 0.41546 0.46504 0.88937 0.0
H585 H 0.45723 0.45803 0.93185 0.0
H586 H 0.49061 0.38314 0.96478 0.0
H587 H 0.50597 0.42434 0.94552 0.0
H588 H 0.24491 0.32462 0.83353 0.0
H589 H 0.25183 0.36718 0.82205 0.0
H590 H 0.24966 0.29614 0.88516 0.0
H591 H 0.30388 0.28925 0.91961 0.0
C592 C 0.38406 0.03087 0.40516 0.0
C593 C 0.32604 0.02087 0.38339 0.0
C594 C 0.27942 0.04762 0.44016 0.0
C595 C 0.33553 0.05463 0.46382 0.0
N596 N 0.44042 0.05198 0.47088 0.0
N597 N 0.21656 0.01634 0.38093 0.0
C598 C 0.38782 0.04613 0.44678 0.0
C599 C 0.27334 0.02866 0.40088 0.0
N600 N 0.43568 0.02638 0.38555 0.0
N601 N 0.23187 0.05911 0.45531 0.0
H602 H 0.21023 1.00287 0.35172 0.0
H603 H 0.1746 0.01723 0.39443 0.0
H604 H 0.23287 0.07146 0.48493 0.0
H605 H 0.19307 0.05865 0.43748 0.0
H606 H 0.48085 0.03602 0.39775 0.0
H607 H 0.43407 0.01502 0.35524 0.0
H608 H 0.47758 0.04293 0.46255 0.0
H609 H 0.44572 0.06461 0.50061 0.0
C610 C 0.73392 0.89723 0.83453 0.0
C611 C 0.73095 0.86529 0.81349 0.0
C612 C 0.66802 0.83374 0.87155 0.0
C613 C 0.661 0.86522 0.88789 0.0
N614 N 0.68844 0.9273 0.8873 0.0
N615 N 0.69332 0.80261 0.81072 0.0
C616 C 0.69529 0.8972 0.87049 0.0
C617 C 0.69881 0.83333 0.83213 0.0
N618 N 0.77399 0.92742 0.82011 0.0
N619 N 0.64384 0.80415 0.89334 0.0
H620 H 0.71453 0.80088 0.78163 0.0
H621 H 0.66399 0.77876 0.82025 0.0
H622 H 0.62002 0.80367 0.92193 0.0
H623 H 0.6524 0.78096 0.88532 0.0
H624 H 0.78244 0.9514 0.8359 0.0
H625 H 0.80317 0.92797 0.79403 0.0
H626 H 0.70574 0.95111 0.87319 0.0
H627 H 0.66297 0.92809 0.91493 0.0
loop_
_geom_bond_atom_site_label_1
_geom_bond_atom_site_label_2
_geom_bond_distance
_geom_bond_site_symmetry_2
_ccdc_geom_bond_type
O0 Cd1 2.300 . S
O0 C7 1.275 . S
Cd1 O0 2.300 . S
Cd1 O9 2.381 . S
Cd1 O10 2.378 . S
O2 Cd3 2.385 . S
O2 C7 1.255 . S
Cd3 O2 2.385 . S
Cd3 O4 2.317 . S
O4 Cd3 2.317 . S
O4 C5 1.232 . S
C5 O4 1.232 . S
C5 O6 1.218 . S
O6 C5 1.218 . S
C7 O0 1.275 . S
C7 O2 1.255 . S
C8 O9 1.258 . S
C8 O10 1.256 . S
O9 Cd1 2.381 . S
O9 C8 1.258 . S
O10 Cd1 2.378 . S
O10 C8 1.256 . S
O11 Cd12 2.300 . S
O11 C18 1.275 . S
Cd12 O11 2.300 . S
Cd12 O20 2.381 . S
Cd12 O21 2.378 . S
O13 Cd14 2.385 . S
O13 C18 1.255 . S
Cd14 O13 2.385 . S
Cd14 O15 2.317 . S
O15 Cd14 2.317 . S
O15 C16 1.232 . S
C16 O15 1.232 . S
C16 O17 1.218 . S
O17 C16 1.218 . S
C18 O11 1.275 . S
C18 O13 1.255 . S
C19 O20 1.258 . S
C19 O21 1.256 . S
O20 Cd12 2.381 . S
O20 C19 1.258 . S
O21 Cd12 2.378 . S
O21 C19 1.256 . S
O22 Cd23 2.300 . S
O22 C29 1.275 . S
Cd23 O22 2.300 . S
Cd23 O31 2.381 . S
Cd23 O32 2.378 . S
O24 Cd25 2.385 . S
O24 C29 1.255 . S
Cd25 O24 2.385 . S
Cd25 O26 2.317 . S
O26 Cd25 2.317 . S
O26 C27 1.232 . S
C27 O26 1.232 . S
C27 O28 1.218 . S
O28 C27 1.218 . S
C29 O22 1.275 . S
C29 O24 1.255 . S
C30 O31 1.258 . S
C30 O32 1.256 . S
O31 Cd23 2.381 . S
O31 C30 1.258 . S
O32 Cd23 2.378 . S
O32 C30 1.256 . S
O33 Cd34 2.300 . S
O33 C40 1.275 . S
Cd34 O33 2.300 . S
Cd34 O42 2.381 . S
Cd34 O43 2.378 . S
O35 Cd36 2.385 . S
O35 C40 1.255 . S
Cd36 O35 2.385 . S
Cd36 O37 2.317 . S
O37 Cd36 2.317 . S
O37 C38 1.232 . S
C38 O37 1.232 . S
C38 O39 1.218 . S
O39 C38 1.218 . S
C40 O33 1.275 . S
C40 O35 1.255 . S
C41 O42 1.258 . S
C41 O43 1.256 . S
O42 Cd34 2.381 . S
O42 C41 1.258 . S
O43 Cd34 2.378 . S
O43 C41 1.256 . S
O44 Cd45 2.300 . S
O44 C51 1.275 . S
Cd45 O44 2.300 . S
Cd45 O53 2.381 . S
Cd45 O54 2.378 . S
O46 Cd47 2.385 . S
O46 C51 1.255 . S
Cd47 O46 2.385 . S
Cd47 O48 2.317 . S
O48 Cd47 2.317 . S
O48 C49 1.232 . S
C49 O48 1.232 . S
C49 O50 1.218 . S
O50 C49 1.218 . S
C51 O44 1.275 . S
C51 O46 1.255 . S
C52 O53 1.258 . S
C52 O54 1.256 . S
O53 Cd45 2.381 . S
O53 C52 1.258 . S
O54 Cd45 2.378 . S
O54 C52 1.256 . S
O55 Cd56 2.300 . S
O55 C62 1.275 . S
Cd56 O55 2.300 . S
Cd56 O64 2.381 . S
Cd56 O65 2.378 . S
O57 Cd58 2.385 . S
O57 C62 1.255 . S
Cd58 O57 2.385 . S
Cd58 O59 2.317 . S
O59 Cd58 2.317 . S
O59 C60 1.232 . S
C60 O59 1.232 . S
C60 O61 1.218 . S
O61 C60 1.218 . S
C62 O55 1.275 . S
C62 O57 1.255 . S
C63 O64 1.258 . S
C63 O65 1.256 . S
O64 Cd56 2.381 . S
O64 C63 1.258 . S
O65 Cd56 2.378 . S
O65 C63 1.256 . S
O66 Cd67 2.300 . S
O66 C73 1.275 . S
Cd67 O66 2.300 . S
Cd67 O75 2.381 . S
Cd67 O76 2.378 . S
O68 Cd69 2.385 . S
O68 C73 1.255 . S
Cd69 O68 2.385 . S
Cd69 O70 2.317 . S
O70 Cd69 2.317 . S
O70 C71 1.232 . S
C71 O70 1.232 . S
C71 O72 1.218 . S
O72 C71 1.218 . S
C73 O66 1.275 . S
C73 O68 1.255 . S
C74 O75 1.258 . S
C74 O76 1.256 . S
O75 Cd67 2.381 . S
O75 C74 1.258 . S
O76 Cd67 2.378 . S
O76 C74 1.256 . S
O77 Cd78 2.300 . S
O77 C84 1.275 . S
Cd78 O77 2.300 . S
Cd78 O86 2.381 . S
Cd78 O87 2.378 . S
O79 Cd80 2.385 . S
O79 C84 1.255 . S
Cd80 O79 2.385 . S
Cd80 O81 2.317 . S
O81 Cd80 2.317 . S
O81 C82 1.232 . S
C82 O81 1.232 . S
C82 O83 1.218 . S
O83 C82 1.218 . S
C84 O77 1.275 . S
C84 O79 1.255 . S
C85 O86 1.258 . S
C85 O87 1.256 . S
O86 Cd78 2.381 . S
O86 C85 1.258 . S
O87 Cd78 2.378 . S
O87 C85 1.256 . S
H88 C94 0.930 . S
H89 C97 0.931 . S
H90 C99 0.931 . S
H91 C101 0.930 . S
H92 C103 0.930 . S
H93 C105 0.931 . S
C94 H88 0.930 . S
C94 C95 1.380 . S
C94 C96 1.394 1_455 S
C95 C94 1.380 . S
C95 C99 1.382 . S
C96 C94 1.394 1_655 S
C96 C97 1.400 . S
C97 H89 0.931 . S
C97 C96 1.400 . S
C97 C98 1.375 1_655 S
C98 C97 1.375 1_455 S
C98 C99 1.415 . S
C98 C100 1.501 . S
C99 H90 0.931 . S
C99 C95 1.382 . S
C99 C98 1.415 . S
C100 C98 1.501 . S
C100 C101 1.384 . S
C100 C105 1.408 1_455 S
C101 H91 0.930 . S
C101 C100 1.384 . S
C101 C102 1.389 . S
C102 C101 1.389 . S
C102 C103 1.405 . S
C103 H92 0.930 . S
C103 C102 1.405 . S
C103 C104 1.373 . S
C104 C103 1.373 . S
C104 C105 1.404 1_455 S
C105 H93 0.931 . S
C105 C100 1.408 1_655 S
C105 C104 1.404 1_655 S
H106 C112 0.930 . S
H107 C115 0.931 . S
H108 C117 0.931 . S
H109 C119 0.930 . S
H110 C121 0.930 . S
H111 C123 0.931 . S
C112 H106 0.930 . S
C112 C113 1.380 1_455 S
C112 C114 1.394 . S
C113 C112 1.380 1_655 S
C113 C117 1.382 . S
C114 C112 1.394 . S
C114 C115 1.400 . S
C115 H107 0.931 . S
C115 C114 1.400 . S
C115 C116 1.375 . S
C116 C115 1.375 . S
C116 C117 1.415 1_455 S
C116 C118 1.501 1_455 S
C117 H108 0.931 . S
C117 C113 1.382 . S
C117 C116 1.415 1_655 S
C118 C116 1.501 1_655 S
C118 C119 1.384 . S
C118 C123 1.408 1_655 S
C119 H109 0.930 . S
C119 C118 1.384 . S
C119 C120 1.389 . S
C120 C119 1.389 . S
C120 C121 1.405 . S
C121 H110 0.930 . S
C121 C120 1.405 . S
C121 C122 1.364 1_655 S
C122 C121 1.364 1_455 S
C122 C123 1.400 . S
C123 H111 0.931 . S
C123 C118 1.408 1_455 S
C123 C122 1.400 . S
H124 C130 0.930 . S
H125 C133 0.931 . S
H126 C135 0.931 . S
H127 C137 0.930 . S
H128 C139 0.930 . S
H129 C141 0.931 . S
C130 H124 0.930 . S
C130 C131 1.380 . S
C130 C132 1.394 . S
C131 C130 1.380 . S
C131 C135 1.382 . S
C132 C130 1.394 . S
C132 C133 1.400 . S
C133 H125 0.931 . S
C133 C132 1.400 . S
C133 C134 1.375 . S
C134 C133 1.375 . S
C134 C135 1.415 . S
C134 C136 1.501 . S
C135 H126 0.931 . S
C135 C131 1.382 . S
C135 C134 1.415 . S
C136 C134 1.501 . S
C136 C137 1.384 . S
C136 C141 1.408 . S
C137 H127 0.930 . S
C137 C136 1.384 . S
C137 C138 1.389 . S
C138 C137 1.389 . S
C138 C139 1.405 . S
C139 H128 0.930 . S
C139 C138 1.405 . S
C139 C140 1.364 . S
C140 C139 1.364 . S
C140 C141 1.400 . S
C141 H129 0.931 . S
C141 C136 1.408 . S
C141 C140 1.400 . S
H142 C148 0.930 . S
H143 C151 0.931 . S
H144 C153 0.931 . S
H145 C155 0.930 . S
H146 C157 0.930 . S
H147 C159 0.931 . S
C148 H142 0.930 . S
C148 C149 1.380 . S
C148 C150 1.394 . S
C149 C148 1.380 . S
C149 C153 1.382 . S
C150 C148 1.394 . S
C150 C151 1.400 . S
C151 H143 0.931 . S
C151 C150 1.400 . S
C151 C152 1.375 . S
C152 C151 1.375 . S
C152 C153 1.415 . S
C152 C154 1.501 1_554 S
C153 H144 0.931 . S
C153 C149 1.382 . S
C153 C152 1.415 . S
C154 C152 1.501 1_556 S
C154 C155 1.384 . S
C154 C159 1.408 . S
C155 H145 0.930 . S
C155 C154 1.384 . S
C155 C156 1.389 . S
C156 C155 1.389 . S
C156 C157 1.405 . S
C157 H146 0.930 . S
C157 C156 1.405 . S
C157 C158 1.364 . S
C158 C157 1.364 . S
C158 C159 1.400 . S
C159 H147 0.931 . S
C159 C154 1.408 . S
C159 C158 1.400 . S
H160 C166 0.930 . S
H161 C169 0.931 . S
H162 C171 0.931 . S
H163 C173 0.930 . S
H164 C175 0.930 . S
H165 C177 0.931 1_545 S
C166 H160 0.930 . S
C166 C167 1.380 . S
C166 C168 1.394 . S
C167 C166 1.380 . S
C167 C171 1.382 . S
C168 C166 1.394 . S
C168 C169 1.400 . S
C169 H161 0.931 . S
C169 C168 1.400 . S
C169 C170 1.375 . S
C170 C169 1.375 . S
C170 C171 1.415 . S
C170 C172 1.501 . S
C171 H162 0.931 . S
C171 C167 1.382 . S
C171 C170 1.415 . S
C172 C170 1.501 . S
C172 C173 1.384 1_545 S
C172 C177 1.408 1_545 S
C173 H163 0.930 . S
C173 C172 1.384 1_565 S
C173 C174 1.389 . S
C174 C173 1.389 . S
C174 C175 1.405 . S
C175 H164 0.930 . S
C175 C174 1.405 . S
C175 C176 1.364 . S
C176 C175 1.364 . S
C176 C177 1.400 . S
C177 H165 0.931 1_565 S
C177 C172 1.408 1_565 S
C177 C176 1.400 . S
H178 C184 0.930 . S
H179 C187 0.931 . S
H180 C189 0.931 . S
H181 C191 0.930 . S
H182 C193 0.930 . S
H183 C195 0.931 . S
C184 H178 0.930 . S
C184 C185 1.380 . S
C184 C186 1.394 . S
C185 C184 1.380 . S
C185 C189 1.382 . S
C186 C184 1.394 . S
C186 C187 1.400 . S
C187 H179 0.931 . S
C187 C186 1.400 . S
C187 C188 1.375 . S
C188 C187 1.375 . S
C188 C189 1.415 . S
C188 C190 1.501 1_554 S
C189 H180 0.931 . S
C189 C185 1.382 . S
C189 C188 1.415 . S
C190 C188 1.501 1_556 S
C190 C191 1.384 . S
C190 C195 1.408 . S
C191 H181 0.930 . S
C191 C190 1.384 . S
C191 C192 1.389 . S
C192 C191 1.389 . S
C192 C193 1.405 . S
C193 H182 0.930 . S
C193 C192 1.405 . S
C193 C194 1.364 . S
C194 C193 1.364 . S
C194 C195 1.400 . S
C195 H183 0.931 . S
C195 C190 1.408 . S
C195 C194 1.400 . S
C196 C197 1.363 . S
C196 C202 1.379 . S
C196 N204 1.356 . S
C197 C196 1.363 . S
C197 C203 1.363 . S
C198 C199 1.363 . S
C198 C203 1.379 . S
C198 N205 1.356 . S
C199 C198 1.363 . S
C199 C202 1.363 . S
N200 C202 1.356 . S
N200 H212 0.984 . S
N200 H213 0.985 . S
N201 C203 1.356 . S
N201 H206 0.984 . S
N201 H207 0.985 . S
C202 C196 1.379 . S
C202 C199 1.363 . S
C202 N200 1.356 . S
C203 C197 1.363 . S
C203 C198 1.379 . S
C203 N201 1.356 . S
N204 C196 1.356 . S
N204 H210 0.984 . S
N204 H211 0.984 . S
N205 C198 1.356 . S
N205 H208 0.984 . S
N205 H209 0.985 . S
H206 N201 0.984 . S
H207 N201 0.985 . S
H208 N205 0.984 . S
H209 N205 0.985 . S
H210 N204 0.984 . S
H211 N204 0.984 . S
H212 N200 0.984 . S
H213 N200 0.985 . S
C214 C215 1.363 . S
C214 C220 1.379 . S
C214 N222 1.356 . S
C215 C214 1.363 . S
C215 C221 1.363 . S
C216 C217 1.363 . S
C216 C221 1.379 . S
C216 N223 1.356 . S
C217 C216 1.363 . S
C217 C220 1.363 . S
N218 C220 1.356 . S
N218 H230 0.984 . S
N218 H231 0.985 . S
N219 C221 1.356 . S
N219 H224 0.984 . S
N219 H225 0.985 . S
C220 C214 1.379 . S
C220 C217 1.363 . S
C220 N218 1.356 . S
C221 C215 1.363 . S
C221 C216 1.379 . S
C221 N219 1.356 . S
N222 C214 1.356 . S
N222 H228 0.984 . S
N222 H229 0.984 . S
N223 C216 1.356 . S
N223 H226 0.984 . S
N223 H227 0.985 . S
H224 N219 0.984 . S
H225 N219 0.985 . S
H226 N223 0.984 . S
H227 N223 0.985 . S
H228 N222 0.984 . S
H229 N222 0.984 . S
H230 N218 0.984 . S
H231 N218 0.985 . S
C232 C233 1.363 . S
C232 C238 1.379 . S
C232 N240 1.356 . S
C233 C232 1.363 . S
C233 C239 1.363 . S
C234 C235 1.363 . S
C234 C239 1.379 . S
C234 N241 1.356 . S
C235 C234 1.363 . S
C235 C238 1.363 . S
N236 C238 1.357 1_455 S
N236 H248 0.984 . S
N236 H249 0.984 . S
N237 C239 1.356 . S
N237 H242 0.984 . S
N237 H243 0.985 . S
C238 C232 1.379 . S
C238 C235 1.363 . S
C238 N236 1.357 1_655 S
C239 C233 1.363 . S
C239 C234 1.379 . S
C239 N237 1.356 . S
N240 C232 1.356 . S
N240 H246 0.984 . S
N240 H247 0.984 . S
N241 C234 1.356 . S
N241 H244 0.984 . S
N241 H245 0.985 . S
H242 N237 0.984 . S
H243 N237 0.985 . S
H244 N241 0.984 . S
H245 N241 0.985 . S
H246 N240 0.984 . S
H247 N240 0.984 . S
H248 N236 0.984 . S
H249 N236 0.984 . S
C250 C251 1.363 . S
C250 C256 1.379 . S
C250 N258 1.356 . S
C251 C250 1.363 . S
C251 C257 1.363 . S
C252 C253 1.363 . S
C252 C257 1.379 . S
C252 N259 1.356 . S
C253 C252 1.363 . S
C253 C256 1.363 . S
N254 C256 1.356 . S
N254 H266 0.984 . S
N254 H267 0.985 . S
N255 C257 1.356 . S
N255 H260 0.984 . S
N255 H261 0.985 . S
C256 C250 1.379 . S
C256 C253 1.363 . S
C256 N254 1.356 . S
C257 C251 1.363 . S
C257 C252 1.379 . S
C257 N255 1.356 . S
N258 C250 1.356 . S
N258 H264 0.984 . S
N258 H265 0.984 . S
N259 C252 1.356 . S
N259 H262 0.984 . S
N259 H263 0.985 . S
H260 N255 0.984 . S
H261 N255 0.985 . S
H262 N259 0.984 . S
H263 N259 0.985 . S
H264 N258 0.984 . S
H265 N258 0.984 . S
H266 N254 0.984 . S
H267 N254 0.985 . S
C268 C269 1.363 . S
C268 C274 1.379 . S
C268 N276 1.356 . S
C269 C268 1.363 . S
C269 C275 1.363 . S
C270 C271 1.363 . S
C270 C275 1.379 . S
C270 N277 1.356 . S
C271 C270 1.363 . S
C271 C274 1.363 . S
N272 C274 1.356 . S
N272 H284 0.984 . S
N272 H285 0.985 . S
N273 C275 1.356 . S
N273 H278 0.984 . S
N273 H279 0.985 . S
C274 C268 1.379 . S
C274 C271 1.363 . S
C274 N272 1.356 . S
C275 C269 1.363 . S
C275 C270 1.379 . S
C275 N273 1.356 . S
N276 C268 1.356 . S
N276 H282 0.984 . S
N276 H283 0.984 . S
N277 C270 1.356 . S
N277 H280 0.984 . S
N277 H281 0.985 . S
H278 N273 0.984 . S
H279 N273 0.985 . S
H280 N277 0.984 . S
H281 N277 0.985 . S
H282 N276 0.984 . S
H283 N276 0.984 . S
H284 N272 0.984 . S
H285 N272 0.985 . S
C286 C287 1.363 . S
C286 C292 1.379 . S
C286 N294 1.356 . S
C287 C286 1.363 . S
C287 C293 1.363 . S
C288 C289 1.363 . S
C288 C293 1.379 . S
C288 N295 1.356 . S
C289 C288 1.363 . S
C289 C292 1.363 . S
N290 C292 1.356 . S
N290 H302 0.984 . S
N290 H303 0.985 . S
N291 C293 1.356 . S
N291 H296 0.984 . S
N291 H297 0.985 . S
C292 C286 1.379 . S
C292 C289 1.363 . S
C292 N290 1.356 . S
C293 C287 1.363 . S
C293 C288 1.379 . S
C293 N291 1.356 . S
N294 C286 1.356 . S
N294 H300 0.984 . S
N294 H301 0.984 . S
N295 C288 1.356 . S
N295 H298 0.984 . S
N295 H299 0.985 . S
H296 N291 0.984 . S
H297 N291 0.985 . S
H298 N295 0.984 . S
H299 N295 0.985 . S
H300 N294 0.984 . S
H301 N294 0.984 . S
H302 N290 0.984 . S
H303 N290 0.985 . S
C304 C305 1.363 . S
C304 C310 1.379 . S
C304 N312 1.356 . S
C305 C304 1.363 . S
C305 C311 1.363 . S
C306 C307 1.363 . S
C306 C311 1.379 . S
C306 N313 1.356 . S
C307 C306 1.363 . S
C307 C310 1.363 . S
N308 C310 1.356 . S
N308 H320 0.984 . S
N308 H321 0.985 . S
N309 C311 1.356 . S
N309 H314 0.984 . S
N309 H315 0.985 . S
C310 C304 1.379 . S
C310 C307 1.363 . S
C310 N308 1.356 . S
C311 C305 1.363 . S
C311 C306 1.379 . S
C311 N309 1.356 . S
N312 C304 1.356 . S
N312 H318 0.984 . S
N312 H319 0.984 . S
N313 C306 1.356 . S
N313 H316 0.984 . S
N313 H317 0.985 . S
H314 N309 0.984 . S
H315 N309 0.985 . S
H316 N313 0.984 . S
H317 N313 0.985 . S
H318 N312 0.984 . S
H319 N312 0.984 . S
H320 N308 0.984 . S
H321 N308 0.985 . S
C322 C323 1.363 . S
C322 C328 1.379 . S
C322 N330 1.356 . S
C323 C322 1.363 . S
C323 C329 1.363 . S
C324 C325 1.363 . S
C324 C329 1.379 . S
C324 N331 1.356 . S
C325 C324 1.363 . S
C325 C328 1.363 . S
N326 C328 1.356 . S
N326 H338 0.984 . S
N326 H339 0.985 . S
N327 C329 1.356 . S
N327 H332 0.984 . S
N327 H333 0.985 . S
C328 C322 1.379 . S
C328 C325 1.363 . S
C328 N326 1.356 . S
C329 C323 1.363 . S
C329 C324 1.379 . S
C329 N327 1.356 . S
N330 C322 1.356 . S
N330 H336 0.984 . S
N330 H337 0.984 . S
N331 C324 1.356 . S
N331 H334 0.984 . S
N331 H335 0.985 . S
H332 N327 0.984 . S
H333 N327 0.985 . S
H334 N331 0.984 . S
H335 N331 0.985 . S
H336 N330 0.984 . S
H337 N330 0.984 . S
H338 N326 0.984 . S
H339 N326 0.985 . S
C340 C341 1.363 . S
C340 C346 1.379 1_565 S
C340 N348 1.356 . S
C341 C340 1.363 . S
C341 C347 1.363 . S
C342 C343 1.375 . S
C342 C347 1.366 1_545 S
C342 N349 1.362 . S
C343 C342 1.375 . S
C343 C346 1.363 . S
N344 C346 1.356 . S
N344 H356 0.984 . S
N344 H357 0.985 . S
N345 C347 1.356 . S
N345 H350 0.984 . S
N345 H351 0.985 . S
C346 C340 1.379 1_545 S
C346 C343 1.363 . S
C346 N344 1.356 . S
C347 C341 1.363 . S
C347 C342 1.366 1_565 S
C347 N345 1.356 . S
N348 C340 1.356 . S
N348 H354 0.976 1_565 S
N348 H355 0.984 . S
N349 C342 1.362 . S
N349 H352 0.984 . S
N349 H353 0.985 1_545 S
H350 N345 0.984 . S
H351 N345 0.985 . S
H352 N349 0.984 . S
H353 N349 0.985 1_565 S
H354 N348 0.976 1_545 S
H355 N348 0.984 . S
H356 N344 0.984 . S
H357 N344 0.985 . S
C358 C359 1.363 . S
C358 C364 1.379 . S
C358 N366 1.356 . S
C359 C358 1.363 . S
C359 C365 1.363 . S
C360 C361 1.363 . S
C360 C365 1.379 . S
C360 N367 1.356 . S
C361 C360 1.363 . S
C361 C364 1.363 . S
N362 C364 1.356 . S
N362 H374 0.984 . S
N362 H375 0.985 . S
N363 C365 1.356 . S
N363 H368 0.984 . S
N363 H369 0.985 . S
C364 C358 1.379 . S
C364 C361 1.363 . S
C364 N362 1.356 . S
C365 C359 1.363 . S
C365 C360 1.379 . S
C365 N363 1.356 . S
N366 C358 1.356 . S
N366 H372 0.984 . S
N366 H373 0.984 . S
N367 C360 1.356 . S
N367 H370 0.984 . S
N367 H371 0.985 . S
H368 N363 0.984 . S
H369 N363 0.985 . S
H370 N367 0.984 . S
H371 N367 0.985 . S
H372 N366 0.984 . S
H373 N366 0.984 . S
H374 N362 0.984 . S
H375 N362 0.985 . S
C376 C377 1.363 . S
C376 C382 1.379 . S
C376 N384 1.356 . S
C377 C376 1.363 . S
C377 C383 1.363 . S
C378 C379 1.363 . S
C378 C383 1.379 . S
C378 N385 1.356 . S
C379 C378 1.363 . S
C379 C382 1.363 . S
N380 C382 1.356 . S
N380 H392 0.984 . S
N380 H393 0.985 . S
N381 C383 1.356 . S
N381 H386 0.984 . S
N381 H387 0.985 . S
C382 C376 1.379 . S
C382 C379 1.363 . S
C382 N380 1.356 . S
C383 C377 1.363 . S
C383 C378 1.379 . S
C383 N381 1.356 . S
N384 C376 1.356 . S
N384 H390 0.984 . S
N384 H391 0.984 . S
N385 C378 1.356 . S
N385 H388 0.984 . S
N385 H389 0.985 . S
H386 N381 0.984 . S
H387 N381 0.985 . S
H388 N385 0.984 . S
H389 N385 0.985 . S
H390 N384 0.984 . S
H391 N384 0.984 . S
H392 N380 0.984 . S
H393 N380 0.985 . S
C394 C395 1.363 . S
C394 C400 1.379 . S
C394 N402 1.356 . S
C395 C394 1.363 . S
C395 C401 1.363 . S
C396 C397 1.363 . S
C396 C401 1.379 . S
C396 N403 1.356 . S
C397 C396 1.363 . S
C397 C400 1.363 . S
N398 C400 1.356 . S
N398 H410 0.984 . S
N398 H411 0.985 . S
N399 C401 1.356 . S
N399 H404 0.984 . S
N399 H405 0.985 . S
C400 C394 1.379 . S
C400 C397 1.363 . S
C400 N398 1.356 . S
C401 C395 1.363 . S
C401 C396 1.379 . S
C401 N399 1.356 . S
N402 C394 1.356 . S
N402 H408 0.984 . S
N402 H409 0.984 . S
N403 C396 1.356 . S
N403 H406 0.984 . S
N403 H407 0.985 . S
H404 N399 0.984 . S
H405 N399 0.985 . S
H406 N403 0.984 . S
H407 N403 0.985 . S
H408 N402 0.984 . S
H409 N402 0.984 . S
H410 N398 0.984 . S
H411 N398 0.985 . S
C412 C413 1.363 . S
C412 C418 1.379 . S
C412 N420 1.356 . S
C413 C412 1.363 . S
C413 C419 1.363 . S
C414 C415 1.363 . S
C414 C419 1.379 . S
C414 N421 1.356 . S
C415 C414 1.363 . S
C415 C418 1.363 . S
N416 C418 1.356 . S
N416 H428 0.984 . S
N416 H429 0.985 . S
N417 C419 1.356 . S
N417 H422 0.984 . S
N417 H423 0.985 . S
C418 C412 1.379 . S
C418 C415 1.363 . S
C418 N416 1.356 . S
C419 C413 1.363 . S
C419 C414 1.379 . S
C419 N417 1.356 . S
N420 C412 1.356 . S
N420 H426 0.984 . S
N420 H427 0.984 . S
N421 C414 1.356 . S
N421 H424 0.984 . S
N421 H425 0.985 . S
H422 N417 0.984 . S
H423 N417 0.985 . S
H424 N421 0.984 . S
H425 N421 0.985 . S
H426 N420 0.984 . S
H427 N420 0.984 . S
H428 N416 0.984 . S
H429 N416 0.985 . S
C430 C431 1.363 . S
C430 C436 1.379 . S
C430 N438 1.356 . S
C431 C430 1.363 . S
C431 C437 1.363 . S
C432 C433 1.363 . S
C432 C437 1.379 . S
C432 N439 1.356 1_655 S
C433 C432 1.363 . S
C433 C436 1.363 . S
N434 C436 1.356 . S
N434 H446 0.984 . S
N434 H447 0.985 . S
N435 C437 1.356 . S
N435 H440 0.984 . S
N435 H441 0.985 . S
C436 C430 1.379 . S
C436 C433 1.363 . S
C436 N434 1.356 . S
C437 C431 1.363 . S
C437 C432 1.379 . S
C437 N435 1.356 . S
N438 C430 1.356 . S
N438 H444 0.984 . S
N438 H445 0.984 . S
N439 C432 1.356 1_455 S
N439 H442 0.984 . S
N439 H443 0.985 . S
H440 N435 0.984 . S
H441 N435 0.985 . S
H442 N439 0.984 . S
H443 N439 0.985 . S
H444 N438 0.984 . S
H445 N438 0.984 . S
H446 N434 0.984 . S
H447 N434 0.985 . S
C448 C449 1.363 . S
C448 C454 1.379 . S
C448 N456 1.356 . S
C449 C448 1.363 . S
C449 C455 1.363 . S
C450 C451 1.363 . S
C450 C455 1.379 . S
C450 N457 1.356 . S
C451 C450 1.363 . S
C451 C454 1.363 . S
N452 C454 1.356 . S
N452 H464 0.984 . S
N452 H465 0.985 . S
N453 C455 1.356 . S
N453 H458 0.984 . S
N453 H459 0.985 . S
C454 C448 1.379 . S
C454 C451 1.363 . S
C454 N452 1.356 . S
C455 C449 1.363 . S
C455 C450 1.379 . S
C455 N453 1.356 . S
N456 C448 1.356 . S
N456 H462 0.984 . S
N456 H463 0.984 . S
N457 C450 1.356 . S
N457 H460 0.984 . S
N457 H461 0.985 . S
H458 N453 0.984 . S
H459 N453 0.985 . S
H460 N457 0.984 . S
H461 N457 0.985 . S
H462 N456 0.984 . S
H463 N456 0.984 . S
H464 N452 0.984 . S
H465 N452 0.985 . S
C466 C467 1.363 . S
C466 C472 1.379 . S
C466 N474 1.356 . S
C467 C466 1.363 . S
C467 C473 1.363 . S
C468 C469 1.363 . S
C468 C473 1.379 . S
C468 N475 1.356 . S
C469 C468 1.363 . S
C469 C472 1.363 . S
N470 C472 1.356 . S
N470 H482 0.984 . S
N470 H483 0.985 . S
N471 C473 1.356 . S
N471 H476 0.984 . S
N471 H477 0.985 . S
C472 C466 1.379 . S
C472 C469 1.363 . S
C472 N470 1.356 . S
C473 C467 1.363 . S
C473 C468 1.379 . S
C473 N471 1.356 . S
N474 C466 1.356 . S
N474 H480 0.984 . S
N474 H481 0.984 . S
N475 C468 1.356 . S
N475 H478 0.984 . S
N475 H479 0.985 . S
H476 N471 0.984 . S
H477 N471 0.985 . S
H478 N475 0.984 . S
H479 N475 0.985 . S
H480 N474 0.984 . S
H481 N474 0.984 . S
H482 N470 0.984 . S
H483 N470 0.985 . S
C484 C485 1.363 . S
C484 C490 1.379 . S
C484 N492 1.356 . S
C485 C484 1.363 . S
C485 C491 1.363 . S
C486 C487 1.363 . S
C486 C491 1.379 . S
C486 N493 1.356 . S
C487 C486 1.363 . S
C487 C490 1.363 . S
N488 C490 1.356 . S
N488 H500 0.984 . S
N488 H501 0.985 . S
N489 C491 1.356 . S
N489 H494 0.984 . S
N489 H495 0.985 . S
C490 C484 1.379 . S
C490 C487 1.363 . S
C490 N488 1.356 . S
C491 C485 1.363 . S
C491 C486 1.379 . S
C491 N489 1.356 . S
N492 C484 1.356 . S
N492 H498 0.984 . S
N492 H499 0.984 . S
N493 C486 1.356 . S
N493 H496 0.984 . S
N493 H497 0.985 . S
H494 N489 0.984 . S
H495 N489 0.985 . S
H496 N493 0.984 . S
H497 N493 0.985 . S
H498 N492 0.984 . S
H499 N492 0.984 . S
H500 N488 0.984 . S
H501 N488 0.985 . S
C502 C503 1.363 . S
C502 C508 1.379 . S
C502 N510 1.356 . S
C503 C502 1.363 . S
C503 C509 1.363 . S
C504 C505 1.363 . S
C504 C509 1.379 . S
C504 N511 1.356 . S
C505 C504 1.363 . S
C505 C508 1.363 . S
N506 C508 1.356 . S
N506 H518 0.984 . S
N506 H519 0.985 . S
N507 C509 1.356 . S
N507 H512 0.984 . S
N507 H513 0.985 . S
C508 C502 1.379 . S
C508 C505 1.363 . S
C508 N506 1.356 . S
C509 C503 1.363 . S
C509 C504 1.379 . S
C509 N507 1.356 . S
N510 C502 1.356 . S
N510 H516 0.984 . S
N510 H517 0.984 . S
N511 C504 1.356 . S
N511 H514 0.984 . S
N511 H515 0.985 . S
H512 N507 0.984 . S
H513 N507 0.985 . S
H514 N511 0.984 . S
H515 N511 0.985 . S
H516 N510 0.984 . S
H517 N510 0.984 . S
H518 N506 0.984 . S
H519 N506 0.985 . S
C520 C521 1.363 . S
C520 C526 1.379 . S
C520 N528 1.356 . S
C521 C520 1.363 . S
C521 C527 1.363 . S
C522 C523 1.363 . S
C522 C527 1.379 . S
C522 N529 1.356 . S
C523 C522 1.363 . S
C523 C526 1.363 . S
N524 C526 1.356 . S
N524 H536 0.984 . S
N524 H537 0.985 . S
N525 C527 1.356 . S
N525 H530 0.984 . S
N525 H531 0.985 . S
C526 C520 1.379 . S
C526 C523 1.363 . S
C526 N524 1.356 . S
C527 C521 1.363 . S
C527 C522 1.379 . S
C527 N525 1.356 . S
N528 C520 1.356 . S
N528 H534 0.984 . S
N528 H535 0.984 . S
N529 C522 1.356 . S
N529 H532 0.984 . S
N529 H533 0.985 . S
H530 N525 0.984 . S
H531 N525 0.985 . S
H532 N529 0.984 . S
H533 N529 0.985 . S
H534 N528 0.984 . S
H535 N528 0.984 . S
H536 N524 0.984 . S
H537 N524 0.985 . S
C538 C539 1.363 . S
C538 C544 1.379 . S
C538 N546 1.356 . S
C539 C538 1.363 . S
C539 C545 1.363 . S
C540 C541 1.363 . S
C540 C545 1.379 . S
C540 N547 1.356 . S
C541 C540 1.363 . S
C541 C544 1.363 . S
N542 C544 1.356 . S
N542 H554 0.984 . S
N542 H555 0.985 . S
N543 C545 1.356 . S
N543 H548 0.984 . S
N543 H549 0.985 . S
C544 C538 1.379 . S
C544 C541 1.363 . S
C544 N542 1.356 . S
C545 C539 1.363 . S
C545 C540 1.379 . S
C545 N543 1.356 . S
N546 C538 1.356 . S
N546 H552 0.984 . S
N546 H553 0.984 . S
N547 C540 1.356 . S
N547 H550 0.984 . S
N547 H551 0.985 . S
H548 N543 0.984 . S
H549 N543 0.985 . S
H550 N547 0.984 . S
H551 N547 0.985 . S
H552 N546 0.984 . S
H553 N546 0.984 . S
H554 N542 0.984 . S
H555 N542 0.985 . S
C556 C557 1.363 . S
C556 C562 1.379 . S
C556 N564 1.356 . S
C557 C556 1.363 . S
C557 C563 1.363 . S
C558 C559 1.363 . S
C558 C563 1.379 . S
C558 N565 1.356 . S
C559 C558 1.363 . S
C559 C562 1.363 . S
N560 C562 1.356 . S
N560 H572 0.984 . S
N560 H573 0.985 . S
N561 C563 1.356 . S
N561 H566 0.984 . S
N561 H567 0.985 . S
C562 C556 1.379 . S
C562 C559 1.363 . S
C562 N560 1.356 . S
C563 C557 1.363 . S
C563 C558 1.379 . S
C563 N561 1.356 . S
N564 C556 1.356 . S
N564 H570 0.984 . S
N564 H571 0.984 . S
N565 C558 1.356 . S
N565 H568 0.984 . S
N565 H569 0.985 . S
H566 N561 0.984 . S
H567 N561 0.985 . S
H568 N565 0.984 . S
H569 N565 0.985 . S
H570 N564 0.984 . S
H571 N564 0.984 . S
H572 N560 0.984 . S
H573 N560 0.985 . S
C574 C575 1.363 . S
C574 C580 1.379 . S
C574 N582 1.356 . S
C575 C574 1.363 . S
C575 C581 1.363 . S
C576 C577 1.363 . S
C576 C581 1.379 . S
C576 N583 1.356 . S
C577 C576 1.363 . S
C577 C580 1.363 . S
N578 C580 1.356 . S
N578 H590 0.984 . S
N578 H591 0.985 . S
N579 C581 1.356 . S
N579 H584 0.984 . S
N579 H585 0.985 . S
C580 C574 1.379 . S
C580 C577 1.363 . S
C580 N578 1.356 . S
C581 C575 1.363 . S
C581 C576 1.379 . S
C581 N579 1.356 . S
N582 C574 1.356 . S
N582 H588 0.984 . S
N582 H589 0.984 . S
N583 C576 1.356 . S
N583 H586 0.984 . S
N583 H587 0.985 . S
H584 N579 0.984 . S
H585 N579 0.985 . S
H586 N583 0.984 . S
H587 N583 0.985 . S
H588 N582 0.984 . S
H589 N582 0.984 . S
H590 N578 0.984 . S
H591 N578 0.985 . S
C592 C593 1.363 . S
C592 C598 1.379 1_565 S
C592 N600 1.356 . S
C593 C592 1.363 . S
C593 C599 1.363 . S
C594 C595 1.363 . S
C594 C599 1.379 1_545 S
C594 N601 1.356 . S
C595 C594 1.363 . S
C595 C598 1.363 . S
N596 C598 1.356 . S
N596 H608 0.984 . S
N596 H609 0.985 . S
N597 C599 1.356 . S
N597 H602 0.984 . S
N597 H603 0.985 . S
C598 C592 1.379 1_545 S
C598 C595 1.363 . S
C598 N596 1.356 . S
C599 C593 1.363 . S
C599 C594 1.379 1_565 S
C599 N597 1.356 . S
N600 C592 1.356 . S
N600 H606 0.984 . S
N600 H607 0.984 . S
N601 C594 1.356 . S
N601 H604 0.984 . S
N601 H605 0.985 . S
H602 N597 0.984 . S
H603 N597 0.985 . S
H604 N601 0.984 . S
H605 N601 0.985 . S
H606 N600 0.984 . S
H607 N600 0.984 . S
H608 N596 0.984 . S
H609 N596 0.985 . S
C610 C611 1.363 . S
C610 C616 1.379 . S
C610 N618 1.356 . S
C611 C610 1.363 . S
C611 C617 1.363 . S
C612 C613 1.363 . S
C612 C617 1.379 . S
C612 N619 1.356 . S
C613 C612 1.363 . S
C613 C616 1.363 . S
N614 C616 1.356 . S
N614 H626 0.984 . S
N614 H627 0.985 . S
N615 C617 1.356 . S
N615 H620 0.984 . S
N615 H621 0.985 . S
C616 C610 1.379 . S
C616 C613 1.363 . S
C616 N614 1.356 . S
C617 C611 1.363 . S
C617 C612 1.379 . S
C617 N615 1.356 . S
N618 C610 1.356 . S
N618 H624 0.984 . S
N618 H625 0.984 . S
N619 C612 1.356 . S
N619 H622 0.984 . S
N619 H623 0.985 . S
H620 N615 0.984 . S
H621 N615 0.985 . S
H622 N619 0.984 . S
H623 N619 0.985 . S
H624 N618 0.984 . S
H625 N618 0.984 . S
H626 N614 0.984 . S
H627 N614 0.985 . S
C199 C95 1.500 . S
C197 C5 1.395 . S
C217 C114 1.480 . S
C215 C16 1.302 . S
C235 C104 1.599 1_655 S
C233 C30 1.670 . S
C253 C120 1.639 . S
C251 C40 1.617 . S
C271 C131 1.412 . S
C269 C8 1.479 . S
C289 C156 1.410 . S
C287 C18 1.412 . S
C305 C29 1.700 . S
C307 C174 1.644 . S
C325 C194 1.514 . S
C323 C38 1.270 . S
C343 C140 1.402 . S
C341 C19 1.454 . S
C359 C27 1.421 . S
C361 C150 1.513 . S
C379 C168 1.547 . S
C377 C41 1.599 . S
C397 C185 1.457 . S
C395 C7 1.505 . S
C413 C52 1.655 . S
C415 C113 1.628 . S
C433 C96 1.574 . S
C431 C62 1.590 . S
C449 C74 1.526 . S
C451 C122 1.439 . S
C467 C82 1.291 . S
C469 C102 1.420 . S
C487 C176 1.736 . S
C485 C51 1.713 . S
C505 C186 1.530 . S
C503 C60 1.335 . S
C523 C132 1.435 . S
C521 C71 1.209 . S
C539 C84 1.453 . S
C541 C149 1.417 . S
C559 C167 1.585 . S
C557 C63 1.696 . S
C577 C192 1.419 . S
C575 C73 1.441 . S
C595 C138 1.440 . S
C593 C85 1.491 . S
C611 C49 1.315 . S
C613 C158 1.563 . S
