# Generated by pormake.
# Topology anh, (6,3)-cn, num edge types: 1
# Building blocks:
#     Node 0, Type 0, BuildingBlock: PAMTOO_clean_sbu_0, # of connection points: 6
#     Node 1, Type 0, BuildingBlock: PAMTOO_clean_sbu_0, # of connection points: 6
#     Node 2, Type 0, BuildingBlock: PAMTOO_clean_sbu_0, # of connection points: 6
#     Node 3, Type 1, BuildingBlock: VETTIZ_charged_linker_0, # of connection points: 3
#     Node 4, Type 1, BuildingBlock: VETTIZ_charged_linker_0, # of connection points: 3
#     Node 5, Type 1, BuildingBlock: VETTIZ_charged_linker_0, # of connection points: 3
#     Node 6, Type 1, BuildingBlock: VETTIZ_charged_linker_0, # of connection points: 3
#     Node 7, Type 1, BuildingBlock: VETTIZ_charged_linker_0, # of connection points: 3
#     Node 8, Type 1, BuildingBlock: VETTIZ_charged_linker_0, # of connection points: 3
#     Edge 9, Type (0, 1), BuildingBlock: TEMPAE_clean_linker_10, # of connection points: 2
#     Edge 10, Type (0, 1), BuildingBlock: TEMPAE_clean_linker_10, # of connection points: 2
#     Edge 11, Type (0, 1), BuildingBlock: TEMPAE_clean_linker_10, # of connection points: 2
#     Edge 12, Type (0, 1), BuildingBlock: TEMPAE_clean_linker_10, # of connection points: 2
#     Edge 13, Type (0, 1), BuildingBlock: TEMPAE_clean_linker_10, # of connection points: 2
#     Edge 14, Type (0, 1), BuildingBlock: TEMPAE_clean_linker_10, # of connection points: 2
#     Edge 15, Type (0, 1), BuildingBlock: TEMPAE_clean_linker_10, # of connection points: 2
#     Edge 16, Type (0, 1), BuildingBlock: TEMPAE_clean_linker_10, # of connection points: 2
#     Edge 17, Type (0, 1), BuildingBlock: TEMPAE_clean_linker_10, # of connection points: 2
#     Edge 18, Type (0, 1), BuildingBlock: TEMPAE_clean_linker_10, # of connection points: 2
#     Edge 19, Type (0, 1), BuildingBlock: TEMPAE_clean_linker_10, # of connection points: 2
#     Edge 20, Type (0, 1), BuildingBlock: TEMPAE_clean_linker_10, # of connection points: 2
#     Edge 21, Type (0, 1), BuildingBlock: TEMPAE_clean_linker_10, # of connection points: 2
#     Edge 22, Type (0, 1), BuildingBlock: TEMPAE_clean_linker_10, # of connection points: 2
#     Edge 23, Type (0, 1), BuildingBlock: TEMPAE_clean_linker_10, # of connection points: 2
#     Edge 24, Type (0, 1), BuildingBlock: TEMPAE_clean_linker_10, # of connection points: 2
#     Edge 25, Type (0, 1), BuildingBlock: TEMPAE_clean_linker_10, # of connection points: 2
#     Edge 26, Type (0, 1), BuildingBlock: TEMPAE_clean_linker_10, # of connection points: 2
# Relax obj value: 0.182
# Max RMSD: 0.197
# Mean RMSD: 0.158
data_MOF--net-anh--node1-PAMTOO_clean_sbu_0--node2-VETTIZ_charged_linker_0--edge1-TEMPAE_clean_linker_10
_symmetry_space_group_name_H-M    P1
_symmetry_Int_Tables_number       1
_symmetry_cell_setting            triclinic
loop_
_symmetry_equiv_pos_as_xyz
'x, y, z'
_cell_length_a     36.017112
_cell_length_b     34.948163
_cell_length_c     67.689303
_cell_angle_alpha  89.877296
_cell_angle_beta   95.318391
_cell_angle_gamma 103.95629
loop_
_atom_site_label
_atom_site_type_symbol
_atom_site_fract_x
_atom_site_fract_y
_atom_site_fract_z
_atom_type_partial_charge
Dy0 Dy 0.07406 0.62539 0.15518 0.0
Dy1 Dy 1.0494 0.5299 0.14781 0.0
C2 C 1.06052 0.58778 0.11257 0.0
O3 O 1.01148 0.60933 0.16092 0.0
O4 O 0.99388 0.54978 0.14406 0.0
O5 O 0.09245 0.68186 0.14169 0.0
O6 O 0.08436 0.67888 0.17306 0.0
O7 O 1.04149 0.54176 0.17935 0.0
O8 O 0.08913 0.5982 0.18364 0.0
O9 O 0.11399 0.54259 0.15409 0.0
O10 O 0.1299 0.60994 0.15038 0.0
O11 O 1.05 0.4707 0.15664 0.0
O12 O 1.01793 0.48042 0.12911 0.0
C13 C 0.98465 0.57948 0.1528 0.0
O14 O 1.04832 0.61122 0.12405 0.0
O15 O 0.07149 0.55736 0.12009 0.0
C16 C 0.13636 0.72827 0.16251 0.0
C17 C 0.21196 0.77607 0.16674 0.0
C18 C 0.18536 0.78259 0.15138 0.0
C19 C 0.14785 0.75903 0.14936 0.0
C20 C 0.16283 0.72192 0.17802 0.0
C21 C 0.20024 0.74585 0.18021 0.0
C22 C 0.09806 0.70114 0.15859 0.0
C23 C 0.06636 0.56755 0.19098 0.0
C24 C 0.13989 0.57616 0.15265 0.0
C25 C 0.99107 0.42435 0.14716 0.0
C26 C 0.92524 0.36724 0.15623 0.0
C27 C 0.94686 0.39388 0.17095 0.0
C28 C 0.97933 0.42231 0.16645 0.0
C29 C 0.96956 0.39774 0.13245 0.0
C30 C 0.93682 0.36953 0.13691 0.0
C31 C 1.02487 0.45461 0.14201 0.0
H32 H 0.19362 0.80589 0.14091 0.0
H33 H 0.12799 0.76423 0.1372 0.0
H34 H 0.15495 0.69798 0.18819 0.0
H35 H 0.22035 0.74007 0.19208 0.0
H36 H 0.9383 0.3931 0.1859 0.0
H37 H 0.99506 0.44281 0.17803 0.0
H38 H 0.97802 0.39891 0.11747 0.0
H39 H 0.9208 0.34922 0.12532 0.0
Dy40 Dy 0.5753 0.01825 0.50266 0.0
Dy41 Dy 0.66937 0.03977 0.51325 0.0
C42 C 0.61135 0.01736 0.54718 0.0
O43 O 0.59222 0.08177 0.51252 0.0
O44 O 0.65438 0.09637 0.50445 0.0
O45 O 0.51807 0.0195 0.5092 0.0
O46 O 0.52692 0.99405 0.48132 0.0
O47 O 0.6556 0.02114 0.4813 0.0
O48 O 0.60267 0.04579 0.47626 0.0
O49 O 0.65125 0.97534 0.51883 0.0
O50 O 0.59344 0.96145 0.49942 0.0
O51 O 0.72625 0.04137 0.50471 0.0
O52 O 0.71945 0.06549 0.53314 0.0
C53 C 0.62372 0.10761 0.50869 0.0
O54 O 0.58319 1.00065 0.53398 0.0
O55 O 0.64409 0.03925 0.54222 0.0
C56 C 0.46957 0.96515 0.4954 0.0
C57 C 0.40814 0.89829 0.49831 0.0
C58 C 0.43516 0.9116 0.51474 0.0
C59 C 0.4657 0.94466 0.51328 0.0
C60 C 0.44261 0.95214 0.47908 0.0
C61 C 0.41234 0.91901 0.48047 0.0
C62 C 0.5019 0.99937 0.49314 0.0
C63 C 0.63118 0.03459 0.46935 0.0
C64 C 0.62179 0.95 0.50955 0.0
C65 C 0.77172 0.09902 0.51645 0.0
C66 C 0.82587 0.16887 0.50851 0.0
C67 C 0.78752 0.16945 0.51055 0.0
C68 C 0.76066 0.13481 0.5144 0.0
C69 C 0.80994 0.0983 0.51455 0.0
C70 C 0.83683 0.13294 0.51056 0.0
C71 C 0.74339 0.06242 0.52028 0.0
H72 H 0.43267 0.89655 0.52873 0.0
H73 H 0.48633 0.95401 0.52607 0.0
H74 H 0.44527 0.96733 0.46512 0.0
H75 H 0.3927 0.90917 0.46737 0.0
H76 H 0.77807 0.19653 0.50872 0.0
H77 H 0.73118 0.13597 0.51568 0.0
H78 H 0.81895 0.07092 0.51606 0.0
H79 H 0.86623 0.13167 0.50916 0.0
Dy80 Dy 0.57695 0.46822 0.84583 0.0
Dy81 Dy 0.4847 0.455 0.83628 0.0
C82 C 0.54052 0.46863 0.80213 0.0
O83 O 0.56777 0.52778 0.83755 0.0
O84 O 0.50617 0.51832 0.84587 0.0
O85 O 0.63459 0.50533 0.84885 0.0
O86 O 0.62492 0.44311 0.85479 0.0
O87 O 0.49505 0.43848 0.86791 0.0
O88 O 0.5546 0.48004 0.87412 0.0
O89 O 0.49566 0.39571 0.83085 0.0
O90 O 0.55075 0.40487 0.85176 0.0
O91 O 0.42923 0.45612 0.84553 0.0
O92 O 0.43437 0.44047 0.81513 0.0
C93 C 0.53869 0.54192 0.84179 0.0
O94 O 0.5642 0.45329 0.81361 0.0
O95 O 0.51259 0.48033 0.80948 0.0
C96 C 0.68172 0.47332 0.84096 0.0
C97 C 0.74436 0.47434 0.81888 0.0
C98 C 0.70705 0.46865 0.80924 0.0
C99 C 0.67587 0.46812 0.82024 0.0
C100 C 0.71839 0.47734 0.85066 0.0
C101 C 0.74943 0.47794 0.83976 0.0
C102 C 0.65028 0.47594 0.85268 0.0
C103 C 0.52295 0.45864 0.88043 0.0
C104 C 0.52168 0.38145 0.84125 0.0
C105 C 0.39515 0.48376 0.82079 0.0
C106 C 0.36923 0.55341 0.81575 0.0
C107 C 0.40257 0.54959 0.80746 0.0
C108 C 0.41556 0.51518 0.81008 0.0
C109 C 0.36074 0.48647 0.82803 0.0
C110 C 0.3479 0.52097 0.82558 0.0
C111 C 0.41296 0.45171 0.82739 0.0
H112 H 0.70214 0.46575 0.79323 0.0
H113 H 0.64746 0.46473 0.81258 0.0
H114 H 0.72327 0.48136 0.86664 0.0
H115 H 0.77775 0.48346 0.84773 0.0
H116 H 0.41947 0.57374 0.79965 0.0
H117 H 0.44258 0.51397 0.8046 0.0
H118 H 0.34501 0.46285 0.83662 0.0
H119 H 0.32253 0.52299 0.83252 0.0
C120 C 0.67251 0.1431 0.19593 0.0
C121 C 0.70219 0.17259 0.20569 0.0
C122 C 0.70745 0.17365 0.22657 0.0
C123 C 0.65536 0.11544 0.22775 0.0
C124 C 0.64921 0.11504 0.20727 0.0
C125 C 0.61555 0.08212 0.19959 0.0
H126 H 0.47764 0.92047 0.21976 0.0
C127 C 0.62804 0.08116 0.23513 0.0
C128 C 0.60456 0.06136 0.21874 0.0
H129 H 0.49035 0.97997 0.16394 0.0
H130 H 0.54787 0.02644 0.17852 0.0
H131 H 0.56609 0.92449 0.23213 0.0
H132 H 0.49239 0.99914 0.24564 0.0
H133 H 0.5187 0.99126 0.26784 0.0
H134 H 0.48727 0.94981 0.25447 0.0
H135 H 0.5338 0.91238 0.25109 0.0
H136 H 0.58198 0.94286 0.25636 0.0
C137 C 0.6297 0.05536 0.18534 0.0
C138 C 0.58344 0.10065 0.1899 0.0
C139 C 0.6329 0.05418 0.30903 0.0
C140 C 0.61418 0.02239 0.32017 0.0
C141 C 0.58919 0.98955 0.30995 0.0
C142 C 0.58172 0.98911 0.28928 0.0
C143 C 0.5996 0.02167 0.27852 0.0
C144 C 0.62561 0.0529 0.28833 0.0
C145 C 0.64433 0.08335 0.27426 0.0
C146 C 0.62401 0.06591 0.25447 0.0
C147 C 0.59737 0.03021 0.25713 0.0
C148 C 0.68795 0.08488 0.27595 0.0
C149 C 0.63467 0.12292 0.27919 0.0
C150 C 0.49328 0.94304 0.21058 0.0
C151 C 0.47989 0.94645 0.19069 0.0
C152 C 0.50033 0.97686 0.17932 0.0
C153 C 0.53348 1.00383 0.18782 0.0
C154 C 0.54578 1.00075 0.20798 0.0
C155 C 0.52569 0.97064 0.21896 0.0
C156 C 0.54088 0.97336 0.24046 0.0
C157 C 0.57302 0.0105 0.24071 0.0
C158 C 0.57621 0.02619 0.22163 0.0
C159 C 0.55631 0.93635 0.24545 0.0
C160 C 0.50827 0.97844 0.25291 0.0
H161 H 0.69011 0.14747 0.25346 0.0
H162 H 0.66755 0.14203 0.17989 0.0
H163 H 0.58564 0.13057 0.19622 0.0
H164 H 0.55436 0.0836 0.19271 0.0
H165 H 0.58505 0.10362 0.17364 0.0
H166 H 0.65652 0.0482 0.19207 0.0
H167 H 0.63602 0.07029 0.1711 0.0
H168 H 0.60879 0.02687 0.18202 0.0
H169 H 0.65236 0.07995 0.31619 0.0
H170 H 0.57531 0.96397 0.31792 0.0
H171 H 0.56207 0.96349 0.28248 0.0
H172 H 0.69367 0.05627 0.28088 0.0
H173 H 0.7043 0.10794 0.28685 0.0
H174 H 0.70037 0.08996 0.26156 0.0
H175 H 0.60434 0.11787 0.28275 0.0
H176 H 0.63711 0.14332 0.26664 0.0
H177 H 0.65342 0.138 0.29225 0.0
H178 H 0.73026 0.19597 0.23437 0.0
C179 C 0.68431 0.14525 0.23763 0.0
C180 C 0.60434 0.63278 0.53481 0.0
C181 C 0.59879 0.66656 0.54447 0.0
C182 C 0.59407 0.66494 0.56491 0.0
C183 C 0.5986 0.59708 0.56572 0.0
C184 C 0.60401 0.59824 0.54575 0.0
C185 C 0.60899 0.55908 0.53827 0.0
H186 H 0.61677 0.36991 0.56087 0.0
C187 C 0.59927 0.55744 0.57299 0.0
C188 C 0.60544 0.53462 0.55704 0.0
H189 H 0.63018 0.4235 0.50361 0.0
H190 H 0.62043 0.48467 0.51714 0.0
H191 H 0.66831 0.44115 0.58581 0.0
H192 H 0.54684 0.4019 0.57024 0.0
H193 H 0.55184 0.41963 0.59478 0.0
H194 H 0.57187 0.37881 0.58903 0.0
H195 H 0.63878 0.40016 0.59742 0.0
H196 H 0.64696 0.44992 0.60704 0.0
C197 C 0.64939 0.56574 0.53099 0.0
C198 C 0.57603 0.54235 0.52205 0.0
C199 C 0.57894 0.52652 0.64536 0.0
C200 C 0.57757 0.49218 0.65646 0.0
C201 C 0.58305 0.45826 0.64709 0.0
C202 C 0.58949 0.45834 0.62705 0.0
C203 C 0.59057 0.49273 0.61609 0.0
C204 C 0.5854 0.52605 0.62526 0.0
C205 C 0.58745 0.55975 0.6112 0.0
C206 C 0.59466 0.54102 0.59209 0.0
C207 C 0.59643 0.50191 0.59512 0.0
C208 C 0.62199 0.59381 0.619 0.0
C209 C 0.5479 0.57042 0.6095 0.0
C210 C 0.61822 0.39486 0.55119 0.0
C211 C 0.62503 0.392 0.53127 0.0
C212 C 0.62522 0.42498 0.5191 0.0
C213 C 0.61969 0.46045 0.52699 0.0
C214 C 0.61363 0.4628 0.5472 0.0
C215 C 0.61284 0.42997 0.55875 0.0
C216 C 0.60587 0.43643 0.57976 0.0
C217 C 0.60283 0.47875 0.57925 0.0
C218 C 0.60731 0.49461 0.56021 0.0
C219 C 0.64153 0.43146 0.59335 0.0
C220 C 0.56732 0.40766 0.58387 0.0
H221 H 0.59 0.63177 0.59095 0.0
H222 H 0.60827 0.63308 0.51914 0.0
H223 H 0.54811 0.54549 0.52676 0.0
H224 H 0.57241 0.5106 0.51907 0.0
H225 H 0.58087 0.55836 0.50796 0.0
H226 H 0.67128 0.58461 0.54182 0.0
H227 H 0.65048 0.58072 0.51649 0.0
H228 H 0.65858 0.53809 0.52949 0.0
H229 H 0.57459 0.553 0.65208 0.0
H230 H 0.5828 0.43165 0.65537 0.0
H231 H 0.59344 0.4315 0.62091 0.0
H232 H 0.64517 0.58225 0.62712 0.0
H233 H 0.61316 0.6138 0.62938 0.0
H234 H 0.63611 0.61129 0.60695 0.0
H235 H 0.52412 0.54356 0.6103 0.0
H236 H 0.54119 0.5835 0.59514 0.0
H237 H 0.54612 0.59084 0.62173 0.0
H238 H 0.5909 0.69061 0.57292 0.0
C239 C 0.59386 0.63065 0.57549 0.0
C240 C 0.21841 0.73646 0.8565 0.0
C241 C 0.25339 0.74323 0.86855 0.0
C242 C 0.2531 0.74855 0.8892 0.0
C243 C 0.18346 0.73112 0.8857 0.0
C244 C 0.18398 0.73017 0.86533 0.0
C245 C 0.14454 0.71613 0.85469 0.0
H246 H 0.95856 0.62569 0.85874 0.0
C247 C 0.1432 0.71614 0.89022 0.0
C248 C 0.12028 0.70796 0.87204 0.0
H249 H 1.01788 0.65971 0.80637 0.0
H250 H 0.07532 0.69194 0.8271 0.0
H251 H 1.02775 0.59948 0.88377 0.0
H252 H 0.98783 0.70584 0.88188 0.0
H253 H 1.00823 0.70374 0.90634 0.0
H254 H 0.96708 0.66541 0.89689 0.0
H255 H 0.98237 0.60344 0.89144 0.0
H256 H 1.02513 0.61452 0.90829 0.0
C257 C 0.1434 0.67796 0.84266 0.0
C258 C 0.13559 0.75032 0.84201 0.0
C259 C 0.11266 0.68018 0.96095 0.0
C260 C 0.07797 0.66331 0.96915 0.0
C261 C 1.04312 0.6575 0.95689 0.0
C262 C 1.04286 0.66611 0.93672 0.0
C263 C 0.07778 0.68063 0.92853 0.0
C264 C 0.11183 0.68886 0.94067 0.0
C265 C 0.14586 0.70622 0.92933 0.0
C266 C 0.12653 0.70585 0.90833 0.0
C267 C 0.08678 0.68989 0.90799 0.0
C268 C 0.17334 0.67821 0.93132 0.0
C269 C 0.16421 0.7487 0.93734 0.0
C270 C 0.98362 0.64077 0.85164 0.0
C271 C 0.98363 0.64026 0.83086 0.0
C272 C 1.01723 0.65947 0.82234 0.0
C273 C 1.05043 0.67826 0.83441 0.0
C274 C 1.05017 0.6773 0.85521 0.0
C275 C 1.01686 0.65936 0.86343 0.0
C276 C 1.02162 0.66057 0.88572 0.0
C277 C 1.06366 0.68187 0.88963 0.0
C278 C 0.08028 0.69119 0.87174 0.0
C279 C 1.01368 0.61739 0.89285 0.0
C280 C 0.99472 0.68487 0.89322 0.0
H281 H 0.21973 0.74511 0.9137 0.0
H282 H 0.21732 0.73174 0.84063 0.0
H283 H 0.14838 0.77931 0.84964 0.0
H284 H 0.10449 0.74879 0.83959 0.0
H285 H 0.14755 0.75107 0.82743 0.0
H286 H 0.16194 0.66036 0.85053 0.0
H287 H 0.15382 0.68499 0.82783 0.0
H288 H 0.11466 0.65759 0.8407 0.0
H289 H 0.13996 0.68545 0.96992 0.0
H290 H 1.01586 0.64599 0.96288 0.0
H291 H 1.01544 0.66034 0.92818 0.0
H292 H 0.1569 0.647 0.92893 0.0
H293 H 0.18907 0.68092 0.94636 0.0
H294 H 0.19458 0.68337 0.92031 0.0
H295 H 0.14232 0.76246 0.943 0.0
H296 H 0.17661 0.76866 0.92567 0.0
H297 H 0.18675 0.74896 0.94974 0.0
H298 H 0.27971 0.75457 0.8988 0.0
C299 C 0.21826 0.74267 0.89784 0.0
C300 C 1.02247 0.44202 0.46457 0.0
C301 C 0.99413 0.41121 0.45479 0.0
C302 C 0.9887 0.41051 0.43388 0.0
C303 C 1.0381 0.47096 0.4328 0.0
C304 C 1.04401 0.4716 0.45328 0.0
C305 C 0.07512 0.50684 0.46106 0.0
H306 H 0.2052 0.67467 0.44065 0.0
C307 C 1.06422 0.50612 0.42542 0.0
C308 C 0.08597 0.52756 0.44188 0.0
H309 H 0.18731 0.6232 0.49816 0.0
H310 H 0.13562 0.57062 0.48304 0.0
H311 H 0.20027 0.59325 0.41777 0.0
H312 H 0.11902 0.66299 0.42513 0.0
H313 H 0.10752 0.64241 0.40106 0.0
H314 H 0.15407 0.67541 0.40751 0.0
H315 H 0.20293 0.64037 0.40662 0.0
H316 H 0.17508 0.59548 0.39447 0.0
C317 C 0.10861 0.49169 0.47165 0.0
C318 C 1.05737 0.53199 0.47451 0.0
C319 C 1.06332 0.52847 0.35113 0.0
C320 C 0.08232 0.55979 0.33994 0.0
C321 C 0.10711 0.59302 0.34976 0.0
C322 C 0.11356 0.59474 0.37049 0.0
C323 C 0.09482 0.56298 0.38154 0.0
C324 C 0.06963 0.53092 0.37187 0.0
C325 C 1.05057 0.50111 0.38613 0.0
C326 C 0.06933 0.52009 0.40591 0.0
C327 C 0.09552 0.55597 0.40308 0.0
C328 C 1.0616 0.46179 0.38222 0.0
C329 C 1.00673 0.49848 0.38353 0.0
C330 C 0.19054 0.65188 0.45004 0.0
C331 C 0.20081 0.65278 0.47059 0.0
C332 C 0.18002 0.62314 0.48228 0.0
C333 C 0.15021 0.59254 0.47345 0.0
C334 C 0.14113 0.59162 0.45273 0.0
C335 C 0.16117 0.62122 0.44149 0.0
C336 C 0.1485 0.61576 0.41974 0.0
C337 C 0.11779 0.5776 0.4196 0.0
C338 C 0.11329 0.5635 0.43893 0.0
C339 C 0.18336 0.61119 0.40891 0.0
C340 C 0.1316 0.65096 0.41283 0.0
H341 H 1.00472 0.43775 0.40706 0.0
H342 H 1.02736 0.44339 0.48061 0.0
H343 H 1.02855 0.53405 0.4678 0.0
H344 H 0.07448 0.56271 0.47649 0.0
H345 H 1.05379 0.51868 0.48934 0.0
H346 H 0.11251 0.46524 0.46376 0.0
H347 H 0.10298 0.48324 0.48712 0.0
H348 H 0.13658 0.51333 0.47184 0.0
H349 H 1.04361 0.5029 0.34389 0.0
H350 H 0.12201 0.61741 0.34133 0.0
H351 H 0.13308 0.62066 0.37707 0.0
H352 H 0.09226 0.46735 0.37916 0.0
H353 H 1.04382 0.44561 0.36916 0.0
H354 H 1.05902 0.44218 0.39508 0.0
H355 H 1.00062 0.52652 0.37794 0.0
H356 H 0.99342 0.4939 0.3977 0.0
H357 H 0.99149 0.47462 0.37279 0.0
H358 H 0.96778 0.3867 0.42594 0.0
C359 C 1.01039 0.44013 0.42289 0.0
C360 C 0.53777 0.85485 0.81402 0.0
C361 C 0.54171 0.82048 0.80426 0.0
C362 C 0.55027 0.82289 0.78434 0.0
C363 C 0.54824 0.89151 0.78359 0.0
C364 C 0.54093 0.89009 0.80331 0.0
C365 C 0.53669 0.92963 0.81069 0.0
H366 H 0.53046 0.11896 0.78732 0.0
C367 C 0.54783 0.93111 0.77616 0.0
C368 C 0.54074 0.95392 0.79187 0.0
H369 H 0.52546 0.06902 0.84567 0.0
H370 H 0.52853 1.00552 0.83178 0.0
H371 H 0.59764 0.0834 0.77539 0.0
H372 H 0.47485 0.0484 0.76446 0.0
H373 H 0.49182 0.03287 0.74314 0.0
H374 H 0.50327 0.08477 0.74974 0.0
H375 H 0.56988 0.10909 0.75929 0.0
H376 H 0.58733 0.06897 0.75028 0.0
C377 C 0.56993 0.94582 0.82686 0.0
C378 C 0.49645 0.92411 0.81802 0.0
C379 C 0.57045 0.96192 0.70399 0.0
C380 C 0.56773 0.99456 0.69213 0.0
C381 C 0.55618 0.02614 0.70066 0.0
C382 C 0.54905 0.02603 0.7206 0.0
C383 C 0.55289 0.99378 0.73232 0.0
C384 C 0.56238 0.96199 0.72386 0.0
C385 C 0.56178 0.92895 0.73824 0.0
C386 C 0.55185 0.94699 0.75691 0.0
C387 C 0.54741 0.98511 0.75336 0.0
C388 C 0.60263 0.92152 0.74096 0.0
C389 C 0.52971 0.89274 0.73015 0.0
C390 C 0.53035 0.09456 0.79724 0.0
C391 C 0.52852 0.09929 0.81764 0.0
C392 C 0.52716 0.06623 0.82986 0.0
C393 C 0.52924 0.02954 0.82181 0.0
C394 C 0.53262 0.02597 0.80133 0.0
C395 C 0.53276 0.05838 0.78954 0.0
C396 C 0.53724 0.05071 0.7683 0.0
C397 C 0.54079 0.00854 0.76908 0.0
C398 C 0.53776 0.99351 0.78836 0.0
C399 C 0.57475 0.07954 0.76282 0.0
C400 C 0.50014 0.05459 0.75562 0.0
H401 H 0.55996 0.8574 0.75893 0.0
H402 H 0.53151 0.85402 0.82937 0.0
H403 H 0.47412 0.9063 0.80703 0.0
H404 H 0.48846 0.95231 0.81995 0.0
H405 H 0.49483 0.90853 0.83236 0.0
H406 H 0.59745 0.94108 0.82236 0.0
H407 H 0.56439 0.93064 0.84112 0.0
H408 H 0.57498 0.97787 0.82943 0.0
H409 H 0.57895 0.93691 0.69808 0.0
H410 H 0.55226 0.05106 0.69189 0.0
H411 H 0.54094 0.05127 0.72611 0.0
H412 H 0.62484 0.94995 0.74198 0.0
H413 H 0.60789 0.90423 0.72821 0.0
H414 H 0.60808 0.90619 0.75481 0.0
H415 H 0.50779 0.9015 0.7196 0.0
H416 H 0.51309 0.87723 0.742 0.0
H417 H 0.54172 0.87144 0.72217 0.0
H418 H 0.55448 0.79735 0.77663 0.0
C419 C 0.55355 0.85796 0.77404 0.0
C420 C 0.66696 0.57033 0.14593 0.0
C421 C 0.69861 0.56261 0.13676 0.0
C422 C 0.69126 0.54289 0.11825 0.0
C423 C 0.62332 0.54053 0.11735 0.0
C424 C 0.62918 0.55893 0.13582 0.0
C425 C 0.59103 0.5646 0.1422 0.0
H426 H 0.39494 0.53572 0.11497 0.0
C427 C 0.5822 0.53315 0.11003 0.0
C428 C 0.56213 0.54661 0.12448 0.0
H429 H 0.45361 0.59307 0.16939 0.0
H430 H 0.51451 0.58138 0.15997 0.0
H431 H 0.45258 0.57988 0.0887 0.0
H432 H 0.43588 0.46594 0.11468 0.0
H433 H 0.44765 0.45939 0.09054 0.0
H434 H 0.40548 0.47698 0.09404 0.0
H435 H 0.41736 0.53804 0.07803 0.0
H436 H 0.46582 0.55085 0.0709 0.0
C437 C 0.59399 0.60899 0.14486 0.0
C438 C 0.58205 0.54168 0.16131 0.0
C439 C 0.54212 0.47978 0.03941 0.0
C440 C 0.5068 0.47189 0.0276 0.0
C441 C 0.47336 0.47402 0.03634 0.0
C442 C 0.47531 0.48557 0.05625 0.0
C443 C 0.51116 0.49554 0.06762 0.0
C444 C 0.54358 0.49161 0.05929 0.0
C445 C 0.57907 0.50335 0.07356 0.0
C446 C 0.56282 0.51658 0.09165 0.0
C447 C 0.52322 0.51201 0.08801 0.0
C448 C 0.60736 0.53806 0.06438 0.0
C449 C 0.59461 0.466 0.07768 0.0
C450 C 0.42065 0.54633 0.12499 0.0
C451 C 0.41903 0.56607 0.14274 0.0
C452 C 0.45367 0.57795 0.15545 0.0
C453 C 0.48904 0.57136 0.14995 0.0
C454 C 0.4899 0.55259 0.13157 0.0
C455 C 0.45551 0.54047 0.1197 0.0
C456 C 0.45991 0.52242 0.10044 0.0
C457 C 0.50244 0.52478 0.10236 0.0
C458 C 0.52106 0.54232 0.12062 0.0
C459 C 0.44816 0.54874 0.08355 0.0
C460 C 0.43587 0.479 0.09967 0.0
H461 H 0.65164 0.5174 0.09453 0.0
H462 H 0.67163 0.58534 0.16024 0.0
H463 H 0.5831 0.51041 0.15928 0.0
H464 H 0.55308 0.54163 0.16542 0.0
H465 H 0.60336 0.5548 0.17388 0.0
H466 H 0.60376 0.62502 0.13135 0.0
H467 H 0.61496 0.62151 0.15768 0.0
H468 H 0.56604 0.61495 0.14734 0.0
H469 H 0.56839 0.47857 0.0331 0.0
H470 H 0.44571 0.46742 0.02762 0.0
H471 H 0.44881 0.48717 0.06182 0.0
H472 H 0.59154 0.55783 0.0562 0.0
H473 H 0.62426 0.5271 0.05371 0.0
H474 H 0.62735 0.55755 0.07554 0.0
H475 H 0.57166 0.43838 0.07479 0.0
H476 H 0.60538 0.4642 0.09344 0.0
H477 H 0.61776 0.46467 0.06814 0.0
H478 H 0.71462 0.53621 0.11099 0.0
C479 C 0.6543 0.53183 0.10866 0.0
C480 C 0.21062 0.61119 0.15743 0.0
C481 C 0.18187 0.57615 0.15345 0.0
C482 C 0.25015 0.61189 0.15786 0.0
C483 C 0.26178 0.57687 0.15383 0.0
C484 C 0.23288 0.54134 0.15002 0.0
C485 C 0.19358 0.54133 0.15008 0.0
C486 C 0.27952 0.65039 0.16236 0.0
C487 C 0.24343 0.50337 0.14526 0.0
C488 C 0.35703 0.58462 0.13122 0.0
C489 C 0.38093 0.57399 0.1469 0.0
C490 C 0.31887 0.58617 0.13341 0.0
C491 C 0.30365 0.57789 0.15194 0.0
C492 C 0.32818 0.56937 0.16821 0.0
C493 C 0.36633 0.56735 0.1655 0.0
C494 C 0.29433 0.5953 0.11554 0.0
C495 C 0.31374 0.56121 0.18837 0.0
H496 H 0.20225 0.6383 0.16028 0.0
H497 H 0.1719 0.51405 0.14695 0.0
H498 H 0.30138 0.6465 0.17437 0.0
H499 H 0.2948 0.66002 0.14905 0.0
H500 H 0.26626 0.67418 0.16693 0.0
H501 H 0.21794 0.47795 0.14336 0.0
H502 H 0.25795 0.50655 0.13137 0.0
H503 H 0.26399 0.49675 0.15724 0.0
H504 H 0.36795 0.59084 0.11687 0.0
H505 H 0.38418 0.55909 0.17775 0.0
H506 H 0.28286 0.62109 0.11882 0.0
H507 H 0.26934 0.5699 0.11198 0.0
H508 H 0.31049 0.60168 0.10223 0.0
H509 H 0.30037 0.58491 0.19287 0.0
H510 H 0.33707 0.55889 0.19992 0.0
H511 H 0.29123 0.53316 0.18773 0.0
C512 C 0.87773 0.2047 0.48834 0.0
C513 C 0.85386 0.20542 0.50349 0.0
C514 C 0.90222 0.23947 0.48234 0.0
C515 C 0.90307 0.27582 0.4918 0.0
C516 C 0.88008 0.27654 0.5076 0.0
C517 C 0.85558 0.24133 0.51319 0.0
C518 C 0.92601 0.23751 0.4653 0.0
C519 C 0.88053 0.31464 0.5182 0.0
C520 C 0.98675 0.36112 0.48176 0.0
C521 C 0.97019 0.37938 0.46597 0.0
C522 C 0.96488 0.32821 0.49092 0.0
C523 C 0.92569 0.31324 0.48403 0.0
C524 C 0.90849 0.33264 0.46869 0.0
C525 C 0.93088 0.36556 0.45995 0.0
C526 C 0.98407 0.30855 0.5074 0.0
C527 C 0.86676 0.31772 0.46095 0.0
H528 H 0.87621 0.17709 0.48067 0.0
H529 H 0.83751 0.24191 0.52508 0.0
H530 H 0.91634 0.25391 0.45256 0.0
H531 H 0.95668 0.25179 0.46966 0.0
H532 H 0.92377 0.20671 0.4603 0.0
H533 H 0.86368 0.3097 0.53131 0.0
H534 H 0.91049 0.3306 0.52314 0.0
H535 H 0.86827 0.33406 0.50786 0.0
H536 H 1.01713 0.37156 0.48644 0.0
H537 H 0.91771 0.38009 0.44805 0.0
H538 H 0.98604 0.27908 0.5022 0.0
H539 H 0.96672 0.30395 0.5203 0.0
H540 H 1.0135 0.32609 0.5124 0.0
H541 H 0.86216 0.28784 0.45419 0.0
H542 H 0.85732 0.3373 0.44961 0.0
H543 H 0.84818 0.31512 0.4733 0.0
C544 C 0.51477 0.60168 0.84923 0.0
C545 C 0.54132 0.585 0.84057 0.0
C546 C 0.51466 0.64163 0.84672 0.0
C547 C 0.54129 0.66548 0.83487 0.0
C548 C 0.56935 0.64924 0.82692 0.0
C549 C 0.56914 0.60934 0.82993 0.0
C550 C 0.48546 0.65727 0.85675 0.0
C551 C 0.59881 0.67367 0.81456 0.0
C552 C 0.51523 0.74744 0.80377 0.0
C553 C 0.53689 0.78156 0.81408 0.0
C554 C 0.51523 0.70969 0.81082 0.0
C555 C 0.5374 0.70563 0.82875 0.0
C556 C 0.55728 0.73991 0.83995 0.0
C557 C 0.55683 0.77757 0.83248 0.0
C558 C 0.49297 0.67419 0.79847 0.0
C559 C 0.58007 0.7367 0.85945 0.0
H560 H 0.49359 0.5834 0.85785 0.0
H561 H 0.58993 0.59686 0.82327 0.0
H562 H 0.49139 0.65549 0.87308 0.0
H563 H 0.48555 0.68822 0.85316 0.0
H564 H 0.45626 0.6383 0.85273 0.0
H565 H 0.62104 0.65808 0.81118 0.0
H566 H 0.58431 0.68084 0.80033 0.0
H567 H 0.61323 0.70198 0.82237 0.0
H568 H 0.49914 0.75029 0.78971 0.0
H569 H 0.57353 0.80377 0.84056 0.0
H570 H 0.47841 0.65043 0.80796 0.0
H571 H 0.51317 0.66233 0.79025 0.0
H572 H 0.47105 0.68175 0.78751 0.0
H573 H 0.56133 0.71775 0.86958 0.0
H574 H 0.59264 0.76593 0.86681 0.0
H575 H 0.60369 0.7224 0.85699 0.0
C576 C 0.93092 0.60687 0.16466 0.0
C577 C 0.94274 0.57934 0.15309 0.0
C578 C 0.8916 0.60696 0.16484 0.0
C579 C 0.86294 0.57922 0.15297 0.0
C580 C 0.87472 0.5512 0.1414 0.0
C581 C 0.91409 0.55144 0.1417 0.0
C582 C 0.88074 0.63704 0.17765 0.0
C583 C 0.84566 0.52124 0.12832 0.0
C584 C 0.75476 0.55379 0.16024 0.0
C585 C 0.74006 0.57485 0.14498 0.0
C586 C 0.7948 0.55658 0.16381 0.0
C587 C 0.82098 0.58058 0.15168 0.0
C588 C 0.80628 0.60355 0.13702 0.0
C589 C 0.76635 0.60044 0.13391 0.0
C590 C 0.80881 0.53193 0.1798 0.0
C591 C 0.83246 0.62941 0.12358 0.0
H592 H 0.95244 0.62844 0.17368 0.0
H593 H 0.92245 0.52993 0.13267 0.0
H594 H 0.86751 0.65705 0.16816 0.0
H595 H 0.85898 0.62207 0.18752 0.0
H596 H 0.9059 0.65507 0.18693 0.0
H597 H 0.85913 0.50093 0.1205 0.0
H598 H 0.82376 0.50348 0.13732 0.0
H599 H 0.8304 0.53658 0.11707 0.0
H600 H 0.7348 0.53318 0.16855 0.0
H601 H 0.75528 0.6162 0.12181 0.0
H602 H 0.83433 0.54976 0.18888 0.0
H603 H 0.8177 0.50724 0.17287 0.0
H604 H 0.78622 0.51939 0.18974 0.0
H605 H 0.85722 0.64895 0.13243 0.0
H606 H 0.8173 0.64796 0.1141 0.0
H607 H 0.84416 0.61066 0.1138 0.0
C608 C 0.3401 0.86048 0.48928 0.0
C609 C 0.37636 0.86225 0.49934 0.0
C610 C 0.31137 0.82524 0.48778 0.0
C611 C 0.31871 0.79097 0.4969 0.0
C612 C 0.35419 0.7932 0.5083 0.0
C613 C 0.38274 0.82872 0.50925 0.0
C614 C 0.27399 0.82415 0.4754 0.0
C615 C 0.36281 0.75753 0.51859 0.0
C616 C 0.23059 0.70509 0.49675 0.0
C617 C 0.23335 0.68468 0.47933 0.0
C618 C 0.25936 0.73864 0.50342 0.0
C619 C 0.29121 0.75217 0.49226 0.0
C620 C 0.29509 0.73032 0.47532 0.0
C621 C 0.26636 0.6967 0.46921 0.0
C622 C 0.25472 0.76063 0.52183 0.0
C623 C 0.32853 0.74365 0.46294 0.0
H624 H 0.33449 0.88649 0.48205 0.0
H625 H 0.41064 0.82963 0.51702 0.0
H626 H 0.2717 0.8051 0.46203 0.0
H627 H 0.24923 0.8112 0.48389 0.0
H628 H 0.27168 0.85393 0.47051 0.0
H629 H 0.38857 0.7656 0.5295 0.0
H630 H 0.33794 0.74169 0.52635 0.0
H631 H 0.36808 0.73677 0.50741 0.0
H632 H 0.20521 0.69594 0.50467 0.0
H633 H 0.26918 0.68042 0.45604 0.0
H634 H 0.24684 0.78851 0.51756 0.0
H635 H 0.28217 0.76855 0.5315 0.0
H636 H 0.232 0.7431 0.53049 0.0
H637 H 0.32756 0.77247 0.45627 0.0
H638 H 0.32827 0.72224 0.45079 0.0
H639 H 0.35612 0.74794 0.47238 0.0
C640 C 0.54203 0.32201 0.85484 0.0
C641 C 0.51905 0.33831 0.84095 0.0
C642 C 0.54228 0.28189 0.85382 0.0
C643 C 0.51944 0.25746 0.83837 0.0
C644 C 0.49517 0.27342 0.82473 0.0
C645 C 0.49508 0.31354 0.82626 0.0
C646 C 0.56819 0.26605 0.86882 0.0
C647 C 0.47067 0.24856 0.8079 0.0
C648 C 0.55462 0.17236 0.8185 0.0
C649 C 0.52911 0.13928 0.82552 0.0
C650 C 0.55226 0.21079 0.82298 0.0
C651 C 0.52405 0.21662 0.8351 0.0
C652 C 0.4996 0.18347 0.84322 0.0
C653 C 0.50235 0.1451 0.83829 0.0
C654 C 0.57904 0.24512 0.81403 0.0
C655 C 0.46962 0.1885 0.85648 0.0
H656 H 0.56038 0.34076 0.86638 0.0
H657 H 0.47725 0.32581 0.81546 0.0
H658 H 0.5522 0.23809 0.87497 0.0
H659 H 0.59225 0.25941 0.86146 0.0
H660 H 0.58044 0.28736 0.88126 0.0
H661 H 0.45125 0.26445 0.79947 0.0
H662 H 0.48946 0.23991 0.79751 0.0
H663 H 0.45302 0.22104 0.81365 0.0
H664 H 0.5759 0.16811 0.80894 0.0
H665 H 0.48253 0.1197 0.84373 0.0
H666 H 0.59503 0.26625 0.82586 0.0
H667 H 0.56213 0.26118 0.80403 0.0
H668 H 0.60014 0.23561 0.8054 0.0
H669 H 0.4827 0.2104 0.86854 0.0
H670 H 0.45561 0.1603 0.86321 0.0
H671 H 0.44717 0.19998 0.84775 0.0
C672 C 0.59594 0.87964 0.49758 0.0
C673 C 0.61971 0.90713 0.51125 0.0
C674 C 0.59244 0.83886 0.49974 0.0
C675 C 0.61242 0.82516 0.51623 0.0
C676 C 0.63699 0.85286 0.52985 0.0
C677 C 0.64063 0.8934 0.52708 0.0
C678 C 0.56663 0.81043 0.48465 0.0
C679 C 0.65827 0.83965 0.54786 0.0
C680 C 0.572 0.72582 0.53854 0.0
C681 C 0.5984 0.70415 0.53401 0.0
C682 C 0.57529 0.76458 0.53212 0.0
C683 C 0.60523 0.78208 0.52041 0.0
C684 C 0.63012 0.75933 0.51442 0.0
C685 C 0.62656 0.72065 0.52138 0.0
C686 C 0.54813 0.78759 0.53896 0.0
C687 C 0.66177 0.77653 0.50151 0.0
H688 H 0.57993 0.88998 0.4852 0.0
H689 H 0.6589 0.91435 0.53778 0.0
H690 H 0.58176 0.78855 0.47967 0.0
H691 H 0.5409 0.79385 0.49151 0.0
H692 H 0.55693 0.82574 0.47147 0.0
H693 H 0.67736 0.86485 0.55662 0.0
H694 H 0.63733 0.82265 0.55761 0.0
H695 H 0.67592 0.81981 0.5433 0.0
H696 H 0.54953 0.71295 0.54788 0.0
H697 H 0.64704 0.70417 0.51777 0.0
H698 H 0.53469 0.80078 0.52613 0.0
H699 H 0.56441 0.81219 0.54902 0.0
H700 H 0.52497 0.76897 0.54698 0.0
H701 H 0.65066 0.79198 0.48879 0.0
H702 H 0.67479 0.75356 0.49573 0.0
H703 H 0.68466 0.79861 0.51026 0.0
C704 C 0.78151 0.50907 0.79185 0.0
C705 C 0.77887 0.48272 0.80765 0.0
C706 C 0.81758 0.53025 0.7868 0.0
C707 C 0.85094 0.52612 0.79848 0.0
C708 C 0.84848 0.49399 0.81146 0.0
C709 C 0.8122 0.47203 0.81562 0.0
C710 C 0.81969 0.56104 0.77106 0.0
C711 C 0.88363 0.48681 0.82337 0.0
C712 C 0.95205 0.59163 0.80339 0.0
C713 C 0.94904 0.61757 0.81865 0.0
C714 C 0.91946 0.56377 0.79498 0.0
C715 C 0.88357 0.5612 0.8025 0.0
C716 C 0.88003 0.5897 0.81667 0.0
C717 C 0.91266 0.61804 0.82414 0.0
C718 C 0.92444 0.53597 0.77897 0.0
C719 C 0.84249 0.58848 0.82533 0.0
H720 H 0.75591 0.5166 0.78494 0.0
H721 H 0.81013 0.44987 0.82697 0.0
H722 H 0.81856 0.58953 0.77789 0.0
H723 H 0.84696 0.56555 0.76396 0.0
H724 H 0.79503 0.5525 0.7595 0.0
H725 H 0.87718 0.45857 0.8314 0.0
H726 H 0.90638 0.4862 0.81351 0.0
H727 H 0.89514 0.51121 0.83442 0.0
H728 H 0.98006 0.59141 0.79882 0.0
H729 H 0.91007 0.63909 0.83536 0.0
H730 H 0.8967 0.52005 0.77101 0.0
H731 H 0.93941 0.51412 0.78567 0.0
H732 H 0.94297 0.55256 0.76803 0.0
H733 H 0.82033 0.59205 0.81346 0.0
H734 H 0.8453 0.61204 0.83675 0.0
H735 H 0.83193 0.55959 0.83229 0.0
C736 C 0.26876 0.81841 0.18674 0.0
C737 C 0.25199 0.80043 0.16854 0.0
C738 C 0.30647 0.84199 0.18861 0.0
C739 C 0.32812 0.84711 0.17193 0.0
C740 C 0.31143 0.82862 0.15356 0.0
C741 C 0.2734 0.80573 0.15204 0.0
C742 C 0.32306 0.86164 0.2084 0.0
C743 C 0.33384 0.83276 0.13557 0.0
C744 C 0.41288 0.93655 0.17474 0.0
C745 C 0.44281 0.92028 0.1827 0.0
C746 C 0.37555 0.9128 0.17043 0.0
C747 C 0.36825 0.87178 0.17391 0.0
C748 C 0.39895 0.85491 0.18079 0.0
C749 C 0.43582 0.87945 0.18528 0.0
C750 C 0.34353 0.93195 0.16329 0.0
C751 C 0.39251 0.81122 0.18431 0.0
H752 H 0.25209 0.81453 0.19946 0.0
H753 H 0.26053 0.79145 0.138 0.0
H754 H 0.34892 0.8514 0.21391 0.0
H755 H 0.33226 0.89405 0.20669 0.0
H756 H 0.30216 0.85535 0.21977 0.0
H757 H 0.31679 0.81618 0.12242 0.0
H758 H 0.34319 0.86429 0.13177 0.0
H759 H 0.36018 0.82184 0.1389 0.0
H760 H 0.41819 0.9682 0.17297 0.0
H761 H 0.45906 0.86688 0.19137 0.0
H762 H 0.32339 0.92991 0.17492 0.0
H763 H 0.32687 0.9163 0.14985 0.0
H764 H 0.35443 0.96353 0.15981 0.0
H765 H 0.3751 0.80321 0.19706 0.0
H766 H 0.41996 0.80221 0.18756 0.0
H767 H 0.37619 0.7941 0.17116 0.0
C768 C 0.65383 0.17781 0.50055 0.0
C769 C 0.62471 0.1504 0.50907 0.0
C770 C 0.65569 0.21848 0.50132 0.0
C771 C 0.62823 0.23224 0.51116 0.0
C772 C 0.59845 0.20465 0.51951 0.0
C773 C 0.59687 0.16414 0.51821 0.0
C774 C 0.6875 0.24677 0.49194 0.0
C775 C 0.56897 0.21801 0.53046 0.0
C776 C 0.65379 0.33381 0.53581 0.0
C777 C 0.63119 0.35405 0.52383 0.0
C778 C 0.65424 0.29475 0.53141 0.0
C779 C 0.63222 0.27544 0.51429 0.0
C780 C 0.61172 0.29666 0.50125 0.0
C781 C 0.61127 0.33572 0.50623 0.0
C782 C 0.67643 0.27342 0.54579 0.0
C783 C 0.58867 0.27747 0.48259 0.0
H784 H 0.6753 0.16751 0.49329 0.0
H785 H 0.57433 0.14326 0.52486 0.0
H786 H 0.67541 0.26692 0.48198 0.0
H787 H 0.70735 0.26529 0.50362 0.0
H788 H 0.70436 0.23123 0.48327 0.0
H789 H 0.5469 0.19284 0.53551 0.0
H790 H 0.58347 0.23633 0.54362 0.0
H791 H 0.55432 0.23663 0.52079 0.0
H792 H 0.66996 0.34808 0.54922 0.0
H793 H 0.59376 0.35109 0.49689 0.0
H794 H 0.69578 0.25978 0.53789 0.0
H795 H 0.65611 0.24927 0.55272 0.0
H796 H 0.69395 0.29332 0.55777 0.0
H797 H 0.6059 0.2618 0.47428 0.0
H798 H 0.57892 0.29926 0.47271 0.0
H799 H 0.56299 0.25523 0.48656 0.0
C800 C 0.32043 0.59373 0.81576 0.0
C801 C 0.35904 0.59216 0.81644 0.0
C802 C 0.31039 0.6281 0.82146 0.0
C803 C 0.33973 0.66199 0.82757 0.0
C804 C 0.37853 0.66222 0.82574 0.0
C805 C 0.38781 0.62709 0.82043 0.0
C806 C 0.26846 0.62686 0.82275 0.0
C807 C 0.4104 0.69846 0.83105 0.0
C808 C 0.29432 0.74406 0.84039 0.0
C809 C 0.28723 0.73468 0.86011 0.0
C810 C 0.31553 0.72357 0.82985 0.0
C811 C 0.32983 0.69327 0.83935 0.0
C812 C 0.32757 0.6879 0.85999 0.0
C813 C 0.30633 0.70875 0.87013 0.0
C814 C 0.31883 0.73155 0.8081 0.0
C815 C 0.34326 0.65649 0.87086 0.0
H816 H 0.29798 0.56732 0.81193 0.0
H817 H 0.41774 0.62646 0.82083 0.0
H818 H 0.26287 0.62799 0.83857 0.0
H819 H 0.26097 0.6528 0.81547 0.0
H820 H 0.24916 0.59967 0.81572 0.0
H821 H 0.43689 0.69727 0.82417 0.0
H822 H 0.40164 0.72564 0.82626 0.0
H823 H 0.41722 0.70061 0.84739 0.0
H824 H 0.28054 0.76493 0.83268 0.0
H825 H 0.30128 0.70129 0.88536 0.0
H826 H 0.29385 0.71225 0.79927 0.0
H827 H 0.34539 0.72535 0.80321 0.0
H828 H 0.3186 0.76265 0.80478 0.0
H829 H 0.32539 0.62693 0.86597 0.0
H830 H 0.3432 0.65929 0.88721 0.0
H831 H 0.37306 0.65802 0.8674 0.0
C832 C 0.85598 0.33153 0.14899 0.0
C833 C 0.8907 0.33722 0.16112 0.0
C834 C 0.82272 0.30442 0.15403 0.0
C835 C 0.82444 0.28224 0.17148 0.0
C836 C 0.8597 0.28721 0.18348 0.0
C837 C 0.89232 0.31477 0.17821 0.0
C838 C 0.78557 0.30025 0.14099 0.0
C839 C 0.86286 0.2638 0.20209 0.0
C840 C 0.73757 0.24163 0.19953 0.0
C841 C 0.72912 0.2014 0.19447 0.0
C842 C 0.76717 0.26867 0.19125 0.0
C843 C 0.78921 0.255 0.17781 0.0
C844 C 0.77955 0.21466 0.1719 0.0
C845 C 0.74939 0.18832 0.18024 0.0
C846 C 0.7761 0.31152 0.19768 0.0
C847 C 0.80252 0.19891 0.15772 0.0
H848 H 0.85459 0.34908 0.13584 0.0
H849 H 0.91926 0.31875 0.18747 0.0
H850 H 0.77335 0.26892 0.13645 0.0
H851 H 0.7642 0.30963 0.14943 0.0
H852 H 0.78946 0.31822 0.12744 0.0
H853 H 0.89276 0.2698 0.20926 0.0
H854 H 0.84415 0.2711 0.21291 0.0
H855 H 0.85276 0.23176 0.19856 0.0
H856 H 0.72164 0.25176 0.21043 0.0
H857 H 0.74305 0.15715 0.17644 0.0
H858 H 0.77853 0.33073 0.18456 0.0
H859 H 0.80418 0.31936 0.20681 0.0
H860 H 0.75382 0.31805 0.20655 0.0
H861 H 0.80587 0.21723 0.14431 0.0
H862 H 0.78896 0.16783 0.15306 0.0
H863 H 0.83177 0.20038 0.16498 0.0
C864 C 1.04273 0.62257 0.08224 0.0
C865 C 1.06325 0.59687 0.09134 0.0
C866 C 1.046 0.63273 0.06232 0.0
C867 C 0.0709 0.61737 0.05133 0.0
C868 C 0.09178 0.59147 0.06044 0.0
C869 C 0.08743 0.58123 0.08032 0.0
C870 C 1.02269 0.65984 0.05301 0.0
C871 C 0.11901 0.57495 0.04927 0.0
C872 C 1.05192 0.61602 -0.00474 0.0
C873 C 0.07769 0.65086 0.99019 0.0
C874 C 1.04977 0.60455 0.01506 0.0
C875 C 0.0745 0.62804 0.0302 0.0
C876 C 0.10148 0.66253 0.02519 0.0
C877 C 0.1026 0.67368 0.00526 0.0
C878 C 1.02045 0.56769 0.0198 0.0
C879 C 0.12865 0.68806 0.04094 0.0
H880 H 1.02388 0.63462 0.09068 0.0
H881 H 0.10363 0.56165 0.08736 0.0
H882 H 1.04211 0.68678 0.04773 0.0
H883 H 1.00407 0.64501 0.03989 0.0
H884 H 1.00427 0.66882 0.06353 0.0
H885 H 0.13354 0.55566 0.05859 0.0
H886 H 0.10319 0.55765 0.03607 0.0
H887 H 0.14124 0.59941 0.04382 0.0
H888 H 1.03323 0.59762 0.98371 0.0
H889 H 0.12242 0.70075 0.00155 0.0
H890 H 1.00008 0.57536 0.02955 0.0
H891 H 1.03486 0.54695 0.02801 0.0
H892 H 1.00378 0.55231 0.00625 0.0
H893 H 0.11207 0.70104 0.05097 0.0
H894 H 0.14961 0.71241 0.03449 0.0
H895 H 0.14471 0.66996 0.05015 0.0
C896 C 0.62156 0.06358 0.43624 0.0
C897 C 0.63415 0.03505 0.44781 0.0
C898 C 0.62164 0.06287 0.41554 0.0
C899 C 0.63342 0.03215 0.40621 0.0
C900 C 0.64681 1.00365 0.41787 0.0
C901 C 0.64754 0.0058 0.43862 0.0
C902 C 0.6082 0.09444 0.40364 0.0
C903 C 0.65863 0.96987 0.40843 0.0
C904 C 0.58925 0.00673 0.35343 0.0
C905 C 0.61984 0.02377 0.34229 0.0
C906 C 0.59372 0.00827 0.37422 0.0
C907 C 0.62928 0.02846 0.38421 0.0
C908 C 0.66028 0.04589 0.37317 0.0
C909 C 0.65538 0.04284 0.35236 0.0
C910 C 0.56014 0.98869 0.3855 0.0
C911 C 0.69839 0.06837 0.38332 0.0
H912 H 0.61154 0.08642 0.44341 0.0
H913 H 0.65699 0.98356 0.44759 0.0
H914 H 0.62955 0.10766 0.39321 0.0
H915 H 0.58079 0.0812 0.39463 0.0
H916 H 0.60359 0.11828 0.41325 0.0
H917 H 0.67015 0.95133 0.41961 0.0
H918 H 0.63345 0.95098 0.39954 0.0
H919 H 0.68078 0.98115 0.39811 0.0
H920 H 0.5614 0.9927 0.34595 0.0
H921 H 0.67949 0.05548 0.34402 0.0
H922 H 0.55045 0.01131 0.39376 0.0
H923 H 0.569 0.96835 0.39657 0.0
H924 H 0.53538 0.97175 0.37556 0.0
H925 H 0.69413 0.09318 0.39234 0.0
H926 H 0.71957 0.08042 0.37258 0.0
H927 H 0.71065 0.04891 0.39362 0.0
C928 C 0.5758 0.4617 0.77272 0.0
C929 C 0.54613 0.47416 0.78084 0.0
C930 C 0.58121 0.46649 0.75252 0.0
C931 C 0.55636 0.48409 0.74017 0.0
C932 C 0.52669 0.49721 0.74832 0.0
C933 C 0.52192 0.49205 0.76856 0.0
C934 C 0.61319 0.45213 0.74435 0.0
C935 C 0.49972 0.51624 0.73561 0.0
C936 C 0.58963 0.52269 0.69067 0.0
C937 C 0.57063 0.49134 0.67773 0.0
C938 C 0.58483 0.52106 0.71103 0.0
C939 C 0.56046 0.48728 0.71856 0.0
C940 C 0.54058 0.45594 0.7055 0.0
C941 C 0.54585 0.4584 0.68525 0.0
C942 C 0.60642 0.55507 0.72453 0.0
C943 C 0.5142 0.41951 0.71297 0.0
H944 H 0.59467 0.44796 0.78207 0.0
H945 H 0.49899 0.50194 0.77474 0.0
H946 H 0.60087 0.42832 0.7331 0.0
H947 H 0.63211 0.47644 0.7368 0.0
H948 H 0.63101 0.44063 0.7561 0.0
H949 H 0.47905 0.52616 0.74438 0.0
H950 H 0.51634 0.54203 0.728 0.0
H951 H 0.48325 0.49503 0.72392 0.0
H952 H 0.60907 0.54807 0.68496 0.0
H953 H 0.53058 0.43439 0.67525 0.0
H954 H 0.6267 0.54491 0.73546 0.0
H955 H 0.58611 0.56612 0.73303 0.0
H956 H 0.62292 0.5799 0.71621 0.0
H957 H 0.5307 0.40458 0.72382 0.0
H958 H 0.50021 0.39817 0.7008 0.0
H959 H 0.49151 0.42783 0.72082 0.0
C960 C 0.63642 0.00837 0.58201 0.0
C961 C 0.60576 0.01172 0.56835 0.0
C962 C 0.63134 1.00297 0.60222 0.0
C963 C 0.59511 1.00238 0.60893 0.0
C964 C 0.56411 0.0059 0.59514 0.0
C965 C 0.56966 0.00984 0.57494 0.0
C966 C 0.6647 0.99799 0.61639 0.0
C967 C 0.52539 0.00664 0.60179 0.0
C968 C 0.56796 0.96151 0.65906 0.0
C969 C 0.57647 0.99596 0.67098 0.0
C970 C 0.57513 0.96296 0.63899 0.0
C971 C 0.58998 0.99983 0.63046 0.0
C972 C 0.59887 0.03463 0.64236 0.0
C973 C 0.59275 0.03217 0.66251 0.0
C974 C 0.56632 0.92508 0.62687 0.0
C975 C 0.61404 0.07464 0.63371 0.0
H976 H 0.66422 0.00935 0.57682 0.0
H977 H 0.54602 0.01267 0.56434 0.0
H978 H 0.67334 0.02316 0.62715 0.0
H979 H 0.65602 0.9708 0.62504 0.0
H980 H 0.69006 0.99624 0.60858 0.0
H981 H 0.50431 0.00961 0.58917 0.0
H982 H 0.51356 0.97923 0.60971 0.0
H983 H 0.52861 0.03169 0.61238 0.0
H984 H 0.55497 0.93339 0.66524 0.0
H985 H 0.60063 0.05889 0.6716 0.0
H986 H 0.59164 0.92302 0.61912 0.0
H987 H 0.54233 0.92478 0.6153 0.0
H988 H 0.55821 0.89862 0.63612 0.0
H989 H 0.64162 0.07567 0.62743 0.0
H990 H 0.61876 0.09895 0.64491 0.0
H991 H 0.59347 0.07997 0.62138 0.0
C992 C 0.54583 0.48361 0.91499 0.0
C993 C 0.51903 0.45735 0.90198 0.0
C994 C 0.54255 0.48335 0.93544 0.0
C995 C 0.51189 0.45595 0.94312 0.0
C996 C 0.48498 0.42899 0.93014 0.0
C997 C 0.48877 0.43013 0.90968 0.0
C998 C 0.57162 0.51284 0.9488 0.0
C999 C 0.4521 0.39919 0.93788 0.0
C1000 C 0.5257 0.43934 -0.00156 0.0
C1001 C 0.50531 0.46465 0.00595 0.0
C1002 C 0.52684 0.43494 0.97792 0.0
C1003 C 0.50746 0.45669 0.96469 0.0
C1004 C 0.486 0.48147 0.97218 0.0
C1005 C 0.48512 0.48507 0.99273 0.0
C1006 C 0.54975 0.408 0.97043 0.0
C1007 C 0.46529 0.50547 0.95855 0.0
H1008 H 0.56924 0.50482 0.90918 0.0
H1009 H 0.46807 0.4096 0.89972 0.0
H1010 H 0.5569 0.53208 0.95652 0.0
H1011 H 0.58583 0.49726 0.96037 0.0
H1012 H 0.5941 0.53178 0.94049 0.0
H1013 H 0.43453 0.37926 0.92593 0.0
H1014 H 0.46327 0.38106 0.94937 0.0
H1015 H 0.43317 0.41463 0.94504 0.0
H1016 H 0.54105 0.42326 0.00865 0.0
H1017 H 0.4698 0.50513 -0.00151 0.0
H1018 H 0.57474 0.42569 0.96337 0.0
H1019 H 0.53192 0.3872 0.95893 0.0
H1020 H 0.5605 0.39075 0.98251 0.0
H1021 H 0.48652 0.52747 0.95091 0.0
H1022 H 0.4479 0.52135 0.96666 0.0
H1023 H 0.44607 0.48617 0.94692 0.0
C1024 C 0.1014 0.58102 0.22471 0.0
C1025 C 0.06798 0.56297 0.21269 0.0
C1026 C 0.10304 0.57815 0.24542 0.0
C1027 C 0.07015 0.5575 0.25431 0.0
C1028 C 1.03639 0.53894 0.24224 0.0
C1029 C 1.03586 0.54152 0.22152 0.0
C1030 C 0.13984 0.5976 0.25778 0.0
C1031 C 1.00054 0.51733 0.25122 0.0
C1032 C 0.08428 0.52629 0.3077 0.0
C1033 C 0.07685 0.55786 0.31805 0.0
C1034 C 0.0818 0.52549 0.28688 0.0
C1035 C 0.07082 0.55661 0.27628 0.0
C1036 C 1.06205 0.5879 0.28672 0.0
C1037 C 1.06561 0.58836 0.30752 0.0
C1038 C 0.09211 0.49207 0.27628 0.0
C1039 C 1.04948 0.62118 0.27593 0.0
H1040 H 0.1264 0.59732 0.21791 0.0
H1041 H 1.00989 0.52772 0.21226 0.0
H1042 H 0.13493 0.62147 0.26723 0.0
H1043 H 0.14915 0.57586 0.26784 0.0
H1044 H 0.1635 0.61044 0.24852 0.0
H1045 H 0.97697 0.50371 0.23975 0.0
H1046 H 1.00693 0.49388 0.26107 0.0
H1047 H 0.99033 0.53811 0.26051 0.0
H1048 H 0.09325 0.50288 0.31593 0.0
H1049 H 1.05961 0.61259 0.31562 0.0
H1050 H 0.11743 0.50386 0.26796 0.0
H1051 H 0.0681 0.4775 0.2653 0.0
H1052 H 0.09892 0.46954 0.28668 0.0
H1053 H 0.07314 0.63809 0.26768 0.0
H1054 H 1.04123 0.64179 0.2862 0.0
H1055 H 1.02465 0.60919 0.26488 0.0
loop_
_geom_bond_atom_site_label_1
_geom_bond_atom_site_label_2
_geom_bond_distance
_geom_bond_site_symmetry_2
_ccdc_geom_bond_type
Dy0 O3 2.307 1_455 S
Dy0 O5 2.395 . S
Dy0 O6 2.379 . S
Dy0 O8 2.339 . S
Dy0 O10 2.298 . S
Dy0 O14 2.275 . S
Dy0 C22 2.738 . S
Dy1 O4 2.298 . S
Dy1 O7 2.275 1_655 S
Dy1 O9 2.307 1_655 S
Dy1 O11 2.395 . S
Dy1 O12 2.379 . S
Dy1 O15 2.339 . S
Dy1 C31 2.738 . S
C2 O14 1.254 . S
C2 O15 1.257 1_455 S
O3 Dy0 2.307 1_655 S
O3 C13 1.266 . S
O4 Dy1 2.298 . S
O4 C13 1.236 . S
O5 Dy0 2.395 . S
O5 C22 1.255 . S
O6 Dy0 2.379 . S
O6 C22 1.249 . S
O7 Dy1 2.275 1_455 S
O7 C23 1.254 . S
O8 Dy0 2.339 . S
O8 C23 1.257 . S
O9 Dy1 2.307 1_455 S
O9 C24 1.266 . S
O10 Dy0 2.298 . S
O10 C24 1.236 . S
O11 Dy1 2.395 . S
O11 C31 1.255 . S
O12 Dy1 2.379 . S
O12 C31 1.249 . S
C13 O3 1.266 . S
C13 O4 1.236 . S
O14 Dy0 2.275 . S
O14 C2 1.254 . S
O15 Dy1 2.339 . S
O15 C2 1.257 1_655 S
C16 C19 1.344 . S
C16 C20 1.328 . S
C16 C22 1.516 . S
C17 C18 1.304 . S
C17 C21 1.323 . S
C18 C17 1.304 . S
C18 C19 1.371 . S
C18 H32 0.930 . S
C19 C16 1.344 . S
C19 C18 1.371 . S
C19 H33 0.931 . S
C20 C16 1.328 . S
C20 C21 1.433 . S
C20 H34 0.931 . S
C21 C17 1.323 . S
C21 C20 1.433 . S
C21 H35 0.933 . S
C22 Dy0 2.738 . S
C22 O5 1.255 . S
C22 O6 1.249 . S
C22 C16 1.516 . S
C23 O7 1.254 . S
C23 O8 1.257 . S
C24 O9 1.266 . S
C24 O10 1.236 . S
C25 C28 1.344 . S
C25 C29 1.328 . S
C25 C31 1.516 . S
C26 C27 1.304 . S
C26 C30 1.323 . S
C27 C26 1.304 . S
C27 C28 1.371 . S
C27 H36 0.930 . S
C28 C25 1.344 . S
C28 C27 1.371 . S
C28 H37 0.931 . S
C29 C25 1.328 . S
C29 C30 1.433 . S
C29 H38 0.931 . S
C30 C26 1.323 . S
C30 C29 1.433 . S
C30 H39 0.933 . S
C31 Dy1 2.738 . S
C31 O11 1.255 . S
C31 O12 1.249 . S
C31 C25 1.516 . S
H32 C18 0.930 . S
H33 C19 0.931 . S
H34 C20 0.931 . S
H35 C21 0.933 . S
H36 C27 0.930 . S
H37 C28 0.931 . S
H38 C29 0.931 . S
H39 C30 0.933 . S
Dy40 O43 2.307 . S
Dy40 O45 2.395 1_545 S
Dy40 O46 2.379 1_545 S
Dy40 O48 2.339 . S
Dy40 O50 2.298 1_545 S
Dy40 O54 2.275 . S
Dy40 C62 2.738 1_545 S
Dy41 O44 2.298 . S
Dy41 O47 2.275 . S
Dy41 O49 2.307 1_545 S
Dy41 O51 2.395 . S
Dy41 O52 2.379 . S
Dy41 O55 2.339 . S
Dy41 C71 2.738 . S
C42 O54 1.254 . S
C42 O55 1.257 . S
O43 Dy40 2.307 . S
O43 C53 1.266 . S
O44 Dy41 2.298 . S
O44 C53 1.236 . S
O45 Dy40 2.395 1_565 S
O45 C62 1.255 . S
O46 Dy40 2.379 1_565 S
O46 C62 1.249 . S
O47 Dy41 2.275 . S
O47 C63 1.254 . S
O48 Dy40 2.339 . S
O48 C63 1.257 . S
O49 Dy41 2.307 1_565 S
O49 C64 1.266 . S
O50 Dy40 2.298 1_565 S
O50 C64 1.236 . S
O51 Dy41 2.395 . S
O51 C71 1.255 . S
O52 Dy41 2.379 . S
O52 C71 1.249 . S
C53 O43 1.266 . S
C53 O44 1.236 . S
O54 Dy40 2.275 . S
O54 C42 1.254 . S
O55 Dy41 2.339 . S
O55 C42 1.257 . S
C56 C59 1.344 . S
C56 C60 1.328 . S
C56 C62 1.516 . S
C57 C58 1.304 . S
C57 C61 1.323 . S
C58 C57 1.304 . S
C58 C59 1.371 . S
C58 H72 0.930 . S
C59 C56 1.344 . S
C59 C58 1.371 . S
C59 H73 0.931 . S
C60 C56 1.328 . S
C60 C61 1.433 . S
C60 H74 0.931 . S
C61 C57 1.323 . S
C61 C60 1.433 . S
C61 H75 0.933 . S
C62 Dy40 2.738 1_565 S
C62 O45 1.255 . S
C62 O46 1.249 . S
C62 C56 1.516 . S
C63 O47 1.254 . S
C63 O48 1.257 . S
C64 O49 1.266 . S
C64 O50 1.236 . S
C65 C68 1.344 . S
C65 C69 1.328 . S
C65 C71 1.516 . S
C66 C67 1.304 . S
C66 C70 1.323 . S
C67 C66 1.304 . S
C67 C68 1.371 . S
C67 H76 0.930 . S
C68 C65 1.344 . S
C68 C67 1.371 . S
C68 H77 0.931 . S
C69 C65 1.328 . S
C69 C70 1.433 . S
C69 H78 0.931 . S
C70 C66 1.323 . S
C70 C69 1.433 . S
C70 H79 0.933 . S
C71 Dy41 2.738 . S
C71 O51 1.255 . S
C71 O52 1.249 . S
C71 C65 1.516 . S
H72 C58 0.930 . S
H73 C59 0.931 . S
H74 C60 0.931 . S
H75 C61 0.933 . S
H76 C67 0.930 . S
H77 C68 0.931 . S
H78 C69 0.931 . S
H79 C70 0.933 . S
Dy80 O83 2.307 . S
Dy80 O85 2.395 . S
Dy80 O86 2.379 . S
Dy80 O88 2.339 . S
Dy80 O90 2.298 . S
Dy80 O94 2.275 . S
Dy80 C102 2.738 . S
Dy81 O84 2.298 . S
Dy81 O87 2.275 . S
Dy81 O89 2.307 . S
Dy81 O91 2.395 . S
Dy81 O92 2.379 . S
Dy81 O95 2.339 . S
Dy81 C111 2.738 . S
C82 O94 1.254 . S
C82 O95 1.257 . S
O83 Dy80 2.307 . S
O83 C93 1.266 . S
O84 Dy81 2.298 . S
O84 C93 1.236 . S
O85 Dy80 2.395 . S
O85 C102 1.255 . S
O86 Dy80 2.379 . S
O86 C102 1.249 . S
O87 Dy81 2.275 . S
O87 C103 1.254 . S
O88 Dy80 2.339 . S
O88 C103 1.257 . S
O89 Dy81 2.307 . S
O89 C104 1.266 . S
O90 Dy80 2.298 . S
O90 C104 1.236 . S
O91 Dy81 2.395 . S
O91 C111 1.255 . S
O92 Dy81 2.379 . S
O92 C111 1.249 . S
C93 O83 1.266 . S
C93 O84 1.236 . S
O94 Dy80 2.275 . S
O94 C82 1.254 . S
O95 Dy81 2.339 . S
O95 C82 1.257 . S
C96 C99 1.344 . S
C96 C100 1.328 . S
C96 C102 1.516 . S
C97 C98 1.304 . S
C97 C101 1.323 . S
C98 C97 1.304 . S
C98 C99 1.371 . S
C98 H112 0.930 . S
C99 C96 1.344 . S
C99 C98 1.371 . S
C99 H113 0.931 . S
C100 C96 1.328 . S
C100 C101 1.433 . S
C100 H114 0.931 . S
C101 C97 1.323 . S
C101 C100 1.433 . S
C101 H115 0.933 . S
C102 Dy80 2.738 . S
C102 O85 1.255 . S
C102 O86 1.249 . S
C102 C96 1.516 . S
C103 O87 1.254 . S
C103 O88 1.257 . S
C104 O89 1.266 . S
C104 O90 1.236 . S
C105 C108 1.344 . S
C105 C109 1.328 . S
C105 C111 1.516 . S
C106 C107 1.304 . S
C106 C110 1.323 . S
C107 C106 1.304 . S
C107 C108 1.371 . S
C107 H116 0.930 . S
C108 C105 1.344 . S
C108 C107 1.371 . S
C108 H117 0.931 . S
C109 C105 1.328 . S
C109 C110 1.433 . S
C109 H118 0.931 . S
C110 C106 1.323 . S
C110 C109 1.433 . S
C110 H119 0.933 . S
C111 Dy81 2.738 . S
C111 O91 1.255 . S
C111 O92 1.249 . S
C111 C105 1.516 . S
H112 C98 0.930 . S
H113 C99 0.931 . S
H114 C100 0.931 . S
H115 C101 0.933 . S
H116 C107 0.930 . S
H117 C108 0.931 . S
H118 C109 0.931 . S
H119 C110 0.933 . S
C120 C121 1.391 . S
C120 C124 1.391 . S
C120 H162 0.948 . S
C121 C120 1.391 . S
C121 C122 1.391 . S
C122 C121 1.391 . S
C122 H178 0.947 . S
C122 C179 1.392 . S
C123 C124 1.391 . S
C123 C127 1.397 . S
C123 C179 1.419 . S
C124 C120 1.391 . S
C124 C123 1.391 . S
C124 C125 1.399 . S
C125 C124 1.399 . S
C125 C128 1.396 . S
C125 C137 1.453 . S
C125 C138 1.684 . S
H126 C150 0.948 . S
C127 C123 1.397 . S
C127 C128 1.394 . S
C127 C146 1.723 . S
C128 C125 1.396 . S
C128 C127 1.394 . S
C128 C158 1.723 . S
H129 C152 0.947 . S
H130 C153 0.948 . S
H131 C159 0.982 . S
H132 C160 0.979 1_545 S
H133 C160 0.980 . S
H134 C160 0.983 . S
H135 C159 0.979 . S
H136 C159 0.977 . S
C137 C125 1.453 . S
C137 H166 0.982 . S
C137 H167 0.979 . S
C137 H168 0.977 . S
C138 C125 1.684 . S
C138 H163 0.979 . S
C138 H164 0.980 . S
C138 H165 0.983 . S
C139 C140 1.391 . S
C139 C144 1.391 . S
C139 H169 0.948 . S
C140 C139 1.391 . S
C140 C141 1.391 . S
C141 C140 1.391 . S
C141 C142 1.392 . S
C141 H170 0.947 . S
C142 C141 1.392 . S
C142 C143 1.419 . S
C142 H171 0.948 . S
C143 C142 1.419 . S
C143 C144 1.391 . S
C143 C147 1.397 . S
C144 C139 1.391 . S
C144 C143 1.391 . S
C144 C145 1.399 . S
C145 C144 1.399 . S
C145 C146 1.396 . S
C145 C148 1.453 . S
C145 C149 1.684 . S
C146 C127 1.723 . S
C146 C145 1.396 . S
C146 C147 1.394 . S
C147 C143 1.397 . S
C147 C146 1.394 . S
C147 C157 1.723 . S
C148 C145 1.453 . S
C148 H172 0.982 . S
C148 H173 0.979 . S
C148 H174 0.977 . S
C149 C145 1.684 . S
C149 H175 0.979 . S
C149 H176 0.980 . S
C149 H177 0.983 . S
C150 H126 0.948 . S
C150 C151 1.391 . S
C150 C155 1.391 . S
C151 C150 1.391 . S
C151 C152 1.391 . S
C152 H129 0.947 . S
C152 C151 1.391 . S
C152 C153 1.392 1_565 S
C153 H130 0.948 . S
C153 C152 1.392 1_545 S
C153 C154 1.419 . S
C154 C153 1.419 . S
C154 C155 1.391 1_545 S
C154 C158 1.397 . S
C155 C150 1.391 . S
C155 C154 1.391 1_565 S
C155 C156 1.399 . S
C156 C155 1.399 . S
C156 C157 1.396 1_565 S
C156 C159 1.453 . S
C156 C160 1.684 . S
C157 C147 1.723 . S
C157 C156 1.396 1_545 S
C157 C158 1.394 . S
C158 C128 1.723 . S
C158 C154 1.397 . S
C158 C157 1.394 . S
C159 H131 0.982 . S
C159 H135 0.979 . S
C159 H136 0.977 . S
C159 C156 1.453 . S
C160 H132 0.979 1_565 S
C160 H133 0.980 . S
C160 H134 0.983 . S
C160 C156 1.684 . S
H161 C179 0.948 . S
H162 C120 0.948 . S
H163 C138 0.979 . S
H164 C138 0.980 . S
H165 C138 0.983 . S
H166 C137 0.982 . S
H167 C137 0.979 . S
H168 C137 0.977 . S
H169 C139 0.948 . S
H170 C141 0.947 . S
H171 C142 0.948 . S
H172 C148 0.982 . S
H173 C148 0.979 . S
H174 C148 0.977 . S
H175 C149 0.979 . S
H176 C149 0.980 . S
H177 C149 0.983 . S
H178 C122 0.947 . S
C179 C122 1.392 . S
C179 C123 1.419 . S
C179 H161 0.948 . S
C180 C181 1.391 . S
C180 C184 1.391 . S
C180 H222 0.948 . S
C181 C180 1.391 . S
C181 C182 1.391 . S
C182 C181 1.391 . S
C182 H238 0.947 . S
C182 C239 1.392 . S
C183 C184 1.391 . S
C183 C187 1.397 . S
C183 C239 1.419 . S
C184 C180 1.391 . S
C184 C183 1.391 . S
C184 C185 1.399 . S
C185 C184 1.399 . S
C185 C188 1.396 . S
C185 C197 1.453 . S
C185 C198 1.684 . S
H186 C210 0.948 . S
C187 C183 1.397 . S
C187 C188 1.394 . S
C187 C206 1.723 . S
C188 C185 1.396 . S
C188 C187 1.394 . S
C188 C218 1.723 . S
H189 C212 0.947 . S
H190 C213 0.948 . S
H191 C219 0.982 . S
H192 C220 0.979 . S
H193 C220 0.980 . S
H194 C220 0.983 . S
H195 C219 0.979 . S
H196 C219 0.977 . S
C197 C185 1.453 . S
C197 H226 0.982 . S
C197 H227 0.979 . S
C197 H228 0.977 . S
C198 C185 1.684 . S
C198 H223 0.979 . S
C198 H224 0.980 . S
C198 H225 0.983 . S
C199 C200 1.391 . S
C199 C204 1.391 . S
C199 H229 0.948 . S
C200 C199 1.391 . S
C200 C201 1.391 . S
C201 C200 1.391 . S
C201 C202 1.392 . S
C201 H230 0.947 . S
C202 C201 1.392 . S
C202 C203 1.419 . S
C202 H231 0.948 . S
C203 C202 1.419 . S
C203 C204 1.391 . S
C203 C207 1.397 . S
C204 C199 1.391 . S
C204 C203 1.391 . S
C204 C205 1.399 . S
C205 C204 1.399 . S
C205 C206 1.396 . S
C205 C208 1.453 . S
C205 C209 1.684 . S
C206 C187 1.723 . S
C206 C205 1.396 . S
C206 C207 1.394 . S
C207 C203 1.397 . S
C207 C206 1.394 . S
C207 C217 1.723 . S
C208 C205 1.453 . S
C208 H232 0.982 . S
C208 H233 0.979 . S
C208 H234 0.977 . S
C209 C205 1.684 . S
C209 H235 0.979 . S
C209 H236 0.980 . S
C209 H237 0.983 . S
C210 H186 0.948 . S
C210 C211 1.391 . S
C210 C215 1.391 . S
C211 C210 1.391 . S
C211 C212 1.391 . S
C212 H189 0.947 . S
C212 C211 1.391 . S
C212 C213 1.392 . S
C213 H190 0.948 . S
C213 C212 1.392 . S
C213 C214 1.419 . S
C214 C213 1.419 . S
C214 C215 1.391 . S
C214 C218 1.397 . S
C215 C210 1.391 . S
C215 C214 1.391 . S
C215 C216 1.399 . S
C216 C215 1.399 . S
C216 C217 1.396 . S
C216 C219 1.453 . S
C216 C220 1.684 . S
C217 C207 1.723 . S
C217 C216 1.396 . S
C217 C218 1.394 . S
C218 C188 1.723 . S
C218 C214 1.397 . S
C218 C217 1.394 . S
C219 H191 0.982 . S
C219 H195 0.979 . S
C219 H196 0.977 . S
C219 C216 1.453 . S
C220 H192 0.979 . S
C220 H193 0.980 . S
C220 H194 0.983 . S
C220 C216 1.684 . S
H221 C239 0.948 . S
H222 C180 0.948 . S
H223 C198 0.979 . S
H224 C198 0.980 . S
H225 C198 0.983 . S
H226 C197 0.982 . S
H227 C197 0.979 . S
H228 C197 0.977 . S
H229 C199 0.948 . S
H230 C201 0.947 . S
H231 C202 0.948 . S
H232 C208 0.982 . S
H233 C208 0.979 . S
H234 C208 0.977 . S
H235 C209 0.979 . S
H236 C209 0.980 . S
H237 C209 0.983 . S
H238 C182 0.947 . S
C239 C182 1.392 . S
C239 C183 1.419 . S
C239 H221 0.948 . S
C240 C241 1.391 . S
C240 C244 1.391 . S
C240 H282 0.948 . S
C241 C240 1.391 . S
C241 C242 1.391 . S
C242 C241 1.391 . S
C242 H298 0.947 . S
C242 C299 1.392 . S
C243 C244 1.391 . S
C243 C247 1.397 . S
C243 C299 1.419 . S
C244 C240 1.391 . S
C244 C243 1.391 . S
C244 C245 1.399 . S
C245 C244 1.399 . S
C245 C248 1.396 . S
C245 C257 1.453 . S
C245 C258 1.684 . S
H246 C270 0.948 . S
C247 C243 1.397 . S
C247 C248 1.394 . S
C247 C266 1.723 . S
C248 C245 1.396 . S
C248 C247 1.394 . S
C248 C278 1.723 1_455 S
H249 C272 0.947 . S
H250 C273 0.948 . S
H251 C279 0.982 . S
H252 C280 0.979 . S
H253 C280 0.980 . S
H254 C280 0.983 . S
H255 C279 0.979 . S
H256 C279 0.977 . S
C257 C245 1.453 . S
C257 H286 0.982 . S
C257 H287 0.979 . S
C257 H288 0.952 1_455 S
C258 C245 1.684 . S
C258 H283 0.979 . S
C258 H284 0.980 . S
C258 H285 0.983 . S
C259 C260 1.391 . S
C259 C264 1.391 . S
C259 H289 0.948 . S
C260 C259 1.391 . S
C260 C261 1.391 1_455 S
C261 C260 1.391 1_655 S
C261 C262 1.392 . S
C261 H290 0.947 . S
C262 C261 1.392 . S
C262 C263 1.419 1_655 S
C262 H291 0.948 . S
C263 C262 1.419 1_455 S
C263 C264 1.391 . S
C263 C267 1.397 . S
C264 C259 1.391 . S
C264 C263 1.391 . S
C264 C265 1.399 . S
C265 C264 1.399 . S
C265 C266 1.396 . S
C265 C268 1.453 . S
C265 C269 1.684 . S
C266 C247 1.723 . S
C266 C265 1.396 . S
C266 C267 1.394 . S
C267 C263 1.397 . S
C267 C266 1.394 . S
C267 C277 1.723 1_455 S
C268 C265 1.453 . S
C268 H292 0.982 . S
C268 H293 0.979 . S
C268 H294 0.977 . S
C269 C265 1.684 . S
C269 H295 0.979 . S
C269 H296 0.980 . S
C269 H297 0.983 . S
C270 H246 0.948 . S
C270 C271 1.391 . S
C270 C275 1.391 . S
C271 C270 1.391 . S
C271 C272 1.391 . S
C272 H249 0.947 . S
C272 C271 1.391 . S
C272 C273 1.392 . S
C273 H250 0.948 . S
C273 C272 1.392 . S
C273 C274 1.419 . S
C274 C273 1.419 . S
C274 C275 1.391 . S
C274 C278 1.397 . S
C275 C270 1.391 . S
C275 C274 1.391 . S
C275 C276 1.399 . S
C276 C275 1.399 . S
C276 C277 1.396 . S
C276 C279 1.453 . S
C276 C280 1.684 . S
C277 C267 1.723 1_655 S
C277 C276 1.396 . S
C277 C278 1.394 . S
C278 C248 1.723 1_655 S
C278 C274 1.397 . S
C278 C277 1.394 . S
C279 H251 0.982 . S
C279 H255 0.979 . S
C279 H256 0.977 . S
C279 C276 1.453 . S
C280 H252 0.979 . S
C280 H253 0.980 . S
C280 H254 0.983 . S
C280 C276 1.684 . S
H281 C299 0.948 . S
H282 C240 0.948 . S
H283 C258 0.979 . S
H284 C258 0.980 . S
H285 C258 0.983 . S
H286 C257 0.982 . S
H287 C257 0.979 . S
H288 C257 0.952 1_655 S
H289 C259 0.948 . S
H290 C261 0.947 . S
H291 C262 0.948 . S
H292 C268 0.982 . S
H293 C268 0.979 . S
H294 C268 0.977 . S
H295 C269 0.979 . S
H296 C269 0.980 . S
H297 C269 0.983 . S
H298 C242 0.947 . S
C299 C242 1.392 . S
C299 C243 1.419 . S
C299 H281 0.948 . S
C300 C301 1.391 . S
C300 C304 1.391 . S
C300 H342 0.948 . S
C301 C300 1.391 . S
C301 C302 1.391 . S
C302 C301 1.391 . S
C302 H358 0.947 . S
C302 C359 1.392 . S
C303 C304 1.391 . S
C303 C307 1.397 . S
C303 C359 1.419 . S
C304 C300 1.391 . S
C304 C303 1.391 . S
C304 C305 1.399 . S
C305 C304 1.399 . S
C305 C308 1.396 1_655 S
C305 C317 1.453 1_655 S
C305 C318 1.684 . S
H306 C330 0.948 . S
C307 C303 1.397 . S
C307 C308 1.394 1_655 S
C307 C326 1.723 . S
C308 C305 1.396 1_455 S
C308 C307 1.394 1_455 S
C308 C338 1.723 . S
H309 C332 0.947 . S
H310 C333 0.948 . S
H311 C339 0.982 . S
H312 C340 0.979 . S
H313 C340 0.980 . S
H314 C340 0.983 . S
H315 C339 0.979 . S
H316 C339 0.977 . S
C317 C305 1.453 1_455 S
C317 H346 0.982 . S
C317 H347 0.979 . S
C317 H348 0.977 . S
C318 C305 1.684 . S
C318 H343 0.979 . S
C318 H344 0.980 1_655 S
C318 H345 0.983 . S
C319 C320 1.388 1_655 S
C319 C324 1.391 . S
C319 H349 0.948 . S
C320 C319 1.388 1_455 S
C320 C321 1.394 . S
C321 C320 1.394 . S
C321 C322 1.392 . S
C321 H350 0.947 . S
C322 C321 1.392 . S
C322 C323 1.419 . S
C322 H351 0.948 . S
C323 C322 1.419 . S
C323 C324 1.391 1_455 S
C323 C327 1.397 . S
C324 C319 1.391 . S
C324 C323 1.391 1_655 S
C324 C325 1.399 . S
C325 C324 1.399 . S
C325 C326 1.396 . S
C325 C328 1.453 . S
C325 C329 1.684 . S
C326 C307 1.723 . S
C326 C325 1.396 . S
C326 C327 1.394 1_655 S
C327 C323 1.397 . S
C327 C326 1.394 1_455 S
C327 C337 1.723 . S
C328 C325 1.453 . S
C328 H352 0.982 . S
C328 H353 0.979 . S
C328 H354 0.977 . S
C329 C325 1.684 . S
C329 H355 0.979 . S
C329 H356 0.980 . S
C329 H357 0.983 . S
C330 H306 0.948 . S
C330 C331 1.391 . S
C330 C335 1.391 . S
C331 C330 1.391 . S
C331 C332 1.391 . S
C332 H309 0.947 . S
C332 C331 1.391 . S
C332 C333 1.392 . S
C333 H310 0.948 . S
C333 C332 1.392 . S
C333 C334 1.419 . S
C334 C333 1.419 . S
C334 C335 1.391 . S
C334 C338 1.397 . S
C335 C330 1.391 . S
C335 C334 1.391 . S
C335 C336 1.399 . S
C336 C335 1.399 . S
C336 C337 1.396 . S
C336 C339 1.453 . S
C336 C340 1.684 . S
C337 C327 1.723 . S
C337 C336 1.396 . S
C337 C338 1.394 . S
C338 C308 1.723 . S
C338 C334 1.397 . S
C338 C337 1.394 . S
C339 H311 0.982 . S
C339 H315 0.979 . S
C339 H316 0.977 . S
C339 C336 1.453 . S
C340 H312 0.979 . S
C340 H313 0.980 . S
C340 H314 0.983 . S
C340 C336 1.684 . S
H341 C359 0.948 . S
H342 C300 0.948 . S
H343 C318 0.979 . S
H344 C318 0.980 1_455 S
H345 C318 0.983 . S
H346 C317 0.982 . S
H347 C317 0.979 . S
H348 C317 0.977 . S
H349 C319 0.948 . S
H350 C321 0.947 . S
H351 C322 0.948 . S
H352 C328 0.982 . S
H353 C328 0.979 . S
H354 C328 0.977 . S
H355 C329 0.979 . S
H356 C329 0.980 . S
H357 C329 0.983 . S
H358 C302 0.947 . S
C359 C302 1.392 . S
C359 C303 1.419 . S
C359 H341 0.948 . S
C360 C361 1.391 . S
C360 C364 1.391 . S
C360 H402 0.948 . S
C361 C360 1.391 . S
C361 C362 1.391 . S
C362 C361 1.391 . S
C362 H418 0.947 . S
C362 C419 1.392 . S
C363 C364 1.391 . S
C363 C367 1.397 . S
C363 C419 1.419 . S
C364 C360 1.391 . S
C364 C363 1.391 . S
C364 C365 1.399 . S
C365 C364 1.399 . S
C365 C368 1.396 . S
C365 C377 1.453 . S
C365 C378 1.684 . S
H366 C390 0.948 . S
C367 C363 1.397 . S
C367 C368 1.394 . S
C367 C386 1.723 . S
C368 C365 1.396 . S
C368 C367 1.394 . S
C368 C398 1.723 1_565 S
H369 C392 0.947 . S
H370 C393 0.948 . S
H371 C399 0.982 . S
H372 C400 0.979 . S
H373 C400 0.980 . S
H374 C400 0.983 . S
H375 C399 0.979 . S
H376 C399 0.977 . S
C377 C365 1.453 . S
C377 H406 0.982 . S
C377 H407 0.979 . S
C377 H408 0.977 1_565 S
C378 C365 1.684 . S
C378 H403 0.979 . S
C378 H404 0.954 1_565 S
C378 H405 0.983 . S
C379 C380 1.391 1_565 S
C379 C384 1.391 . S
C379 H409 0.948 . S
C380 C379 1.391 1_545 S
C380 C381 1.391 . S
C381 C380 1.391 . S
C381 C382 1.392 . S
C381 H410 0.947 . S
C382 C381 1.392 . S
C382 C383 1.419 . S
C382 H411 0.948 . S
C383 C382 1.419 . S
C383 C384 1.391 1_545 S
C383 C387 1.397 . S
C384 C379 1.391 . S
C384 C383 1.391 1_565 S
C384 C385 1.399 . S
C385 C384 1.399 . S
C385 C386 1.396 . S
C385 C388 1.453 . S
C385 C389 1.684 . S
C386 C367 1.723 . S
C386 C385 1.396 . S
C386 C387 1.394 1_565 S
C387 C383 1.397 . S
C387 C386 1.394 1_545 S
C387 C397 1.723 . S
C388 C385 1.453 . S
C388 H412 0.982 . S
C388 H413 0.979 . S
C388 H414 0.977 . S
C389 C385 1.684 . S
C389 H415 0.979 . S
C389 H416 0.980 . S
C389 H417 0.983 . S
C390 H366 0.948 . S
C390 C391 1.391 . S
C390 C395 1.391 . S
C391 C390 1.391 . S
C391 C392 1.391 . S
C392 H369 0.947 . S
C392 C391 1.391 . S
C392 C393 1.392 . S
C393 H370 0.948 . S
C393 C392 1.392 . S
C393 C394 1.419 . S
C394 C393 1.419 . S
C394 C395 1.391 . S
C394 C398 1.397 . S
C395 C390 1.391 . S
C395 C394 1.391 . S
C395 C396 1.399 . S
C396 C395 1.399 . S
C396 C397 1.396 . S
C396 C399 1.453 . S
C396 C400 1.684 . S
C397 C387 1.723 . S
C397 C396 1.396 . S
C397 C398 1.394 . S
C398 C368 1.723 1_545 S
C398 C394 1.397 . S
C398 C397 1.394 . S
C399 H371 0.982 . S
C399 H375 0.979 . S
C399 H376 0.977 . S
C399 C396 1.453 . S
C400 H372 0.979 . S
C400 H373 0.980 . S
C400 H374 0.983 . S
C400 C396 1.684 . S
H401 C419 0.948 . S
H402 C360 0.948 . S
H403 C378 0.979 . S
H404 C378 0.954 1_545 S
H405 C378 0.983 . S
H406 C377 0.982 . S
H407 C377 0.979 . S
H408 C377 0.977 1_545 S
H409 C379 0.948 . S
H410 C381 0.947 . S
H411 C382 0.948 . S
H412 C388 0.982 . S
H413 C388 0.979 . S
H414 C388 0.977 . S
H415 C389 0.979 . S
H416 C389 0.980 . S
H417 C389 0.983 . S
H418 C362 0.947 . S
C419 C362 1.392 . S
C419 C363 1.419 . S
C419 H401 0.948 . S
C420 C421 1.391 . S
C420 C424 1.391 . S
C420 H462 0.948 . S
C421 C420 1.391 . S
C421 C422 1.391 . S
C422 C421 1.391 . S
C422 H478 0.947 . S
C422 C479 1.392 . S
C423 C424 1.391 . S
C423 C427 1.397 . S
C423 C479 1.419 . S
C424 C420 1.391 . S
C424 C423 1.391 . S
C424 C425 1.399 . S
C425 C424 1.399 . S
C425 C428 1.396 . S
C425 C437 1.453 . S
C425 C438 1.684 . S
H426 C450 0.948 . S
C427 C423 1.397 . S
C427 C428 1.394 . S
C427 C446 1.723 . S
C428 C425 1.396 . S
C428 C427 1.394 . S
C428 C458 1.723 . S
H429 C452 0.947 . S
H430 C453 0.948 . S
H431 C459 0.982 . S
H432 C460 0.979 . S
H433 C460 0.980 . S
H434 C460 0.983 . S
H435 C459 0.979 . S
H436 C459 0.977 . S
C437 C425 1.453 . S
C437 H466 0.982 . S
C437 H467 0.979 . S
C437 H468 0.977 . S
C438 C425 1.684 . S
C438 H463 0.979 . S
C438 H464 0.980 . S
C438 H465 0.983 . S
C439 C440 1.391 . S
C439 C444 1.391 . S
C439 H469 0.948 . S
C440 C439 1.391 . S
C440 C441 1.391 . S
C441 C440 1.391 . S
C441 C442 1.392 . S
C441 H470 0.947 . S
C442 C441 1.392 . S
C442 C443 1.419 . S
C442 H471 0.948 . S
C443 C442 1.419 . S
C443 C444 1.391 . S
C443 C447 1.397 . S
C444 C439 1.391 . S
C444 C443 1.391 . S
C444 C445 1.399 . S
C445 C444 1.399 . S
C445 C446 1.396 . S
C445 C448 1.453 . S
C445 C449 1.684 . S
C446 C427 1.723 . S
C446 C445 1.396 . S
C446 C447 1.394 . S
C447 C443 1.397 . S
C447 C446 1.394 . S
C447 C457 1.723 . S
C448 C445 1.453 . S
C448 H472 0.982 . S
C448 H473 0.979 . S
C448 H474 0.977 . S
C449 C445 1.684 . S
C449 H475 0.979 . S
C449 H476 0.980 . S
C449 H477 0.983 . S
C450 H426 0.948 . S
C450 C451 1.391 . S
C450 C455 1.391 . S
C451 C450 1.391 . S
C451 C452 1.391 . S
C452 H429 0.947 . S
C452 C451 1.391 . S
C452 C453 1.392 . S
C453 H430 0.948 . S
C453 C452 1.392 . S
C453 C454 1.419 . S
C454 C453 1.419 . S
C454 C455 1.391 . S
C454 C458 1.397 . S
C455 C450 1.391 . S
C455 C454 1.391 . S
C455 C456 1.399 . S
C456 C455 1.399 . S
C456 C457 1.396 . S
C456 C459 1.453 . S
C456 C460 1.684 . S
C457 C447 1.723 . S
C457 C456 1.396 . S
C457 C458 1.394 . S
C458 C428 1.723 . S
C458 C454 1.397 . S
C458 C457 1.394 . S
C459 H431 0.982 . S
C459 H435 0.979 . S
C459 H436 0.977 . S
C459 C456 1.453 . S
C460 H432 0.979 . S
C460 H433 0.980 . S
C460 H434 0.983 . S
C460 C456 1.684 . S
H461 C479 0.948 . S
H462 C420 0.948 . S
H463 C438 0.979 . S
H464 C438 0.980 . S
H465 C438 0.983 . S
H466 C437 0.982 . S
H467 C437 0.979 . S
H468 C437 0.977 . S
H469 C439 0.948 . S
H470 C441 0.947 . S
H471 C442 0.948 . S
H472 C448 0.982 . S
H473 C448 0.979 . S
H474 C448 0.977 . S
H475 C449 0.979 . S
H476 C449 0.980 . S
H477 C449 0.983 . S
H478 C422 0.947 . S
C479 C422 1.392 . S
C479 C423 1.419 . S
C479 H461 0.948 . S
C480 C481 1.391 . S
C480 C482 1.394 . S
C480 H496 0.931 . S
C481 C480 1.391 . S
C481 C485 1.376 . S
C482 C480 1.394 . S
C482 C483 1.369 . S
C482 C486 1.531 . S
C483 C482 1.369 . S
C483 C484 1.410 . S
C483 C491 1.503 . S
C484 C483 1.410 . S
C484 C485 1.392 . S
C484 C487 1.511 . S
C485 C481 1.376 . S
C485 C484 1.392 . S
C485 H497 0.929 . S
C486 C482 1.531 . S
C486 H498 0.960 . S
C486 H499 0.962 . S
C486 H500 0.960 . S
C487 C484 1.511 . S
C487 H501 0.961 . S
C487 H502 0.961 . S
C487 H503 0.961 . S
C488 C489 1.370 . S
C488 C490 1.363 . S
C488 H504 0.931 . S
C489 C488 1.370 . S
C489 C493 1.408 . S
C490 C488 1.363 . S
C490 C491 1.370 . S
C490 C494 1.524 . S
C491 C483 1.503 . S
C491 C490 1.370 . S
C491 C492 1.403 . S
C492 C491 1.403 . S
C492 C493 1.404 . S
C492 C495 1.539 . S
C493 C489 1.408 . S
C493 C492 1.404 . S
C493 H505 0.930 . S
C494 C490 1.524 . S
C494 H506 0.956 . S
C494 H507 0.961 . S
C494 H508 0.961 . S
C495 C492 1.539 . S
C495 H509 0.958 . S
C495 H510 0.961 . S
C495 H511 0.960 . S
H496 C480 0.931 . S
H497 C485 0.929 . S
H498 C486 0.960 . S
H499 C486 0.962 . S
H500 C486 0.960 . S
H501 C487 0.961 . S
H502 C487 0.961 . S
H503 C487 0.961 . S
H504 C488 0.931 . S
H505 C493 0.930 . S
H506 C494 0.956 . S
H507 C494 0.961 . S
H508 C494 0.961 . S
H509 C495 0.958 . S
H510 C495 0.961 . S
H511 C495 0.960 . S
C512 C513 1.391 . S
C512 C514 1.394 . S
C512 H528 0.931 . S
C513 C512 1.391 . S
C513 C517 1.376 . S
C514 C512 1.394 . S
C514 C515 1.369 . S
C514 C518 1.531 . S
C515 C514 1.369 . S
C515 C516 1.410 . S
C515 C523 1.503 . S
C516 C515 1.410 . S
C516 C517 1.392 . S
C516 C519 1.511 . S
C517 C513 1.376 . S
C517 C516 1.392 . S
C517 H529 0.929 . S
C518 C514 1.531 . S
C518 H530 0.960 . S
C518 H531 0.962 . S
C518 H532 0.960 . S
C519 C516 1.511 . S
C519 H533 0.961 . S
C519 H534 0.961 . S
C519 H535 0.961 . S
C520 C521 1.370 . S
C520 C522 1.363 . S
C520 H536 0.931 . S
C521 C520 1.370 . S
C521 C525 1.408 . S
C522 C520 1.363 . S
C522 C523 1.370 . S
C522 C526 1.524 . S
C523 C515 1.503 . S
C523 C522 1.370 . S
C523 C524 1.403 . S
C524 C523 1.403 . S
C524 C525 1.404 . S
C524 C527 1.539 . S
C525 C521 1.408 . S
C525 C524 1.404 . S
C525 H537 0.930 . S
C526 C522 1.524 . S
C526 H538 0.956 . S
C526 H539 0.961 . S
C526 H540 0.961 . S
C527 C524 1.539 . S
C527 H541 0.958 . S
C527 H542 0.961 . S
C527 H543 0.960 . S
H528 C512 0.931 . S
H529 C517 0.929 . S
H530 C518 0.960 . S
H531 C518 0.962 . S
H532 C518 0.960 . S
H533 C519 0.961 . S
H534 C519 0.961 . S
H535 C519 0.961 . S
H536 C520 0.931 . S
H537 C525 0.930 . S
H538 C526 0.956 . S
H539 C526 0.961 . S
H540 C526 0.961 . S
H541 C527 0.958 . S
H542 C527 0.961 . S
H543 C527 0.960 . S
C544 C545 1.391 . S
C544 C546 1.394 . S
C544 H560 0.931 . S
C545 C544 1.391 . S
C545 C549 1.376 . S
C546 C544 1.394 . S
C546 C547 1.369 . S
C546 C550 1.531 . S
C547 C546 1.369 . S
C547 C548 1.410 . S
C547 C555 1.503 . S
C548 C547 1.410 . S
C548 C549 1.392 . S
C548 C551 1.511 . S
C549 C545 1.376 . S
C549 C548 1.392 . S
C549 H561 0.929 . S
C550 C546 1.531 . S
C550 H562 0.960 . S
C550 H563 0.962 . S
C550 H564 0.960 . S
C551 C548 1.511 . S
C551 H565 0.961 . S
C551 H566 0.961 . S
C551 H567 0.961 . S
C552 C553 1.370 . S
C552 C554 1.363 . S
C552 H568 0.931 . S
C553 C552 1.370 . S
C553 C557 1.408 . S
C554 C552 1.363 . S
C554 C555 1.370 . S
C554 C558 1.524 . S
C555 C547 1.503 . S
C555 C554 1.370 . S
C555 C556 1.403 . S
C556 C555 1.403 . S
C556 C557 1.404 . S
C556 C559 1.539 . S
C557 C553 1.408 . S
C557 C556 1.404 . S
C557 H569 0.930 . S
C558 C554 1.524 . S
C558 H570 0.956 . S
C558 H571 0.961 . S
C558 H572 0.961 . S
C559 C556 1.539 . S
C559 H573 0.958 . S
C559 H574 0.961 . S
C559 H575 0.960 . S
H560 C544 0.931 . S
H561 C549 0.929 . S
H562 C550 0.960 . S
H563 C550 0.962 . S
H564 C550 0.960 . S
H565 C551 0.961 . S
H566 C551 0.961 . S
H567 C551 0.961 . S
H568 C552 0.931 . S
H569 C557 0.930 . S
H570 C558 0.956 . S
H571 C558 0.961 . S
H572 C558 0.961 . S
H573 C559 0.958 . S
H574 C559 0.961 . S
H575 C559 0.960 . S
C576 C577 1.391 . S
C576 C578 1.394 . S
C576 H592 0.931 . S
C577 C576 1.391 . S
C577 C581 1.376 . S
C578 C576 1.394 . S
C578 C579 1.369 . S
C578 C582 1.531 . S
C579 C578 1.369 . S
C579 C580 1.410 . S
C579 C587 1.503 . S
C580 C579 1.410 . S
C580 C581 1.392 . S
C580 C583 1.511 . S
C581 C577 1.376 . S
C581 C580 1.392 . S
C581 H593 0.929 . S
C582 C578 1.531 . S
C582 H594 0.960 . S
C582 H595 0.962 . S
C582 H596 0.960 . S
C583 C580 1.511 . S
C583 H597 0.961 . S
C583 H598 0.961 . S
C583 H599 0.961 . S
C584 C585 1.370 . S
C584 C586 1.363 . S
C584 H600 0.931 . S
C585 C584 1.370 . S
C585 C589 1.408 . S
C586 C584 1.363 . S
C586 C587 1.370 . S
C586 C590 1.524 . S
C587 C579 1.503 . S
C587 C586 1.370 . S
C587 C588 1.403 . S
C588 C587 1.403 . S
C588 C589 1.404 . S
C588 C591 1.539 . S
C589 C585 1.408 . S
C589 C588 1.404 . S
C589 H601 0.930 . S
C590 C586 1.524 . S
C590 H602 0.956 . S
C590 H603 0.961 . S
C590 H604 0.961 . S
C591 C588 1.539 . S
C591 H605 0.958 . S
C591 H606 0.961 . S
C591 H607 0.960 . S
H592 C576 0.931 . S
H593 C581 0.929 . S
H594 C582 0.960 . S
H595 C582 0.962 . S
H596 C582 0.960 . S
H597 C583 0.961 . S
H598 C583 0.961 . S
H599 C583 0.961 . S
H600 C584 0.931 . S
H601 C589 0.930 . S
H602 C590 0.956 . S
H603 C590 0.961 . S
H604 C590 0.961 . S
H605 C591 0.958 . S
H606 C591 0.961 . S
H607 C591 0.960 . S
C608 C609 1.391 . S
C608 C610 1.394 . S
C608 H624 0.931 . S
C609 C608 1.391 . S
C609 C613 1.376 . S
C610 C608 1.394 . S
C610 C611 1.369 . S
C610 C614 1.531 . S
C611 C610 1.369 . S
C611 C612 1.410 . S
C611 C619 1.503 . S
C612 C611 1.410 . S
C612 C613 1.392 . S
C612 C615 1.511 . S
C613 C609 1.376 . S
C613 C612 1.392 . S
C613 H625 0.929 . S
C614 C610 1.531 . S
C614 H626 0.960 . S
C614 H627 0.962 . S
C614 H628 0.960 . S
C615 C612 1.511 . S
C615 H629 0.961 . S
C615 H630 0.961 . S
C615 H631 0.961 . S
C616 C617 1.370 . S
C616 C618 1.363 . S
C616 H632 0.931 . S
C617 C616 1.370 . S
C617 C621 1.408 . S
C618 C616 1.363 . S
C618 C619 1.370 . S
C618 C622 1.524 . S
C619 C611 1.503 . S
C619 C618 1.370 . S
C619 C620 1.403 . S
C620 C619 1.403 . S
C620 C621 1.404 . S
C620 C623 1.539 . S
C621 C617 1.408 . S
C621 C620 1.404 . S
C621 H633 0.930 . S
C622 C618 1.524 . S
C622 H634 0.956 . S
C622 H635 0.961 . S
C622 H636 0.961 . S
C623 C620 1.539 . S
C623 H637 0.958 . S
C623 H638 0.961 . S
C623 H639 0.960 . S
H624 C608 0.931 . S
H625 C613 0.929 . S
H626 C614 0.960 . S
H627 C614 0.962 . S
H628 C614 0.960 . S
H629 C615 0.961 . S
H630 C615 0.961 . S
H631 C615 0.961 . S
H632 C616 0.931 . S
H633 C621 0.930 . S
H634 C622 0.956 . S
H635 C622 0.961 . S
H636 C622 0.961 . S
H637 C623 0.958 . S
H638 C623 0.961 . S
H639 C623 0.960 . S
C640 C641 1.391 . S
C640 C642 1.394 . S
C640 H656 0.931 . S
C641 C640 1.391 . S
C641 C645 1.376 . S
C642 C640 1.394 . S
C642 C643 1.369 . S
C642 C646 1.531 . S
C643 C642 1.369 . S
C643 C644 1.410 . S
C643 C651 1.503 . S
C644 C643 1.410 . S
C644 C645 1.392 . S
C644 C647 1.511 . S
C645 C641 1.376 . S
C645 C644 1.392 . S
C645 H657 0.929 . S
C646 C642 1.531 . S
C646 H658 0.960 . S
C646 H659 0.962 . S
C646 H660 0.960 . S
C647 C644 1.511 . S
C647 H661 0.961 . S
C647 H662 0.961 . S
C647 H663 0.961 . S
C648 C649 1.370 . S
C648 C650 1.363 . S
C648 H664 0.931 . S
C649 C648 1.370 . S
C649 C653 1.408 . S
C650 C648 1.363 . S
C650 C651 1.370 . S
C650 C654 1.524 . S
C651 C643 1.503 . S
C651 C650 1.370 . S
C651 C652 1.403 . S
C652 C651 1.403 . S
C652 C653 1.404 . S
C652 C655 1.539 . S
C653 C649 1.408 . S
C653 C652 1.404 . S
C653 H665 0.930 . S
C654 C650 1.524 . S
C654 H666 0.956 . S
C654 H667 0.961 . S
C654 H668 0.961 . S
C655 C652 1.539 . S
C655 H669 0.958 . S
C655 H670 0.961 . S
C655 H671 0.960 . S
H656 C640 0.931 . S
H657 C645 0.929 . S
H658 C646 0.960 . S
H659 C646 0.962 . S
H660 C646 0.960 . S
H661 C647 0.961 . S
H662 C647 0.961 . S
H663 C647 0.961 . S
H664 C648 0.931 . S
H665 C653 0.930 . S
H666 C654 0.956 . S
H667 C654 0.961 . S
H668 C654 0.961 . S
H669 C655 0.958 . S
H670 C655 0.961 . S
H671 C655 0.960 . S
C672 C673 1.391 . S
C672 C674 1.394 . S
C672 H688 0.931 . S
C673 C672 1.391 . S
C673 C677 1.376 . S
C674 C672 1.394 . S
C674 C675 1.369 . S
C674 C678 1.531 . S
C675 C674 1.369 . S
C675 C676 1.410 . S
C675 C683 1.503 . S
C676 C675 1.410 . S
C676 C677 1.392 . S
C676 C679 1.511 . S
C677 C673 1.376 . S
C677 C676 1.392 . S
C677 H689 0.929 . S
C678 C674 1.531 . S
C678 H690 0.960 . S
C678 H691 0.962 . S
C678 H692 0.960 . S
C679 C676 1.511 . S
C679 H693 0.961 . S
C679 H694 0.961 . S
C679 H695 0.961 . S
C680 C681 1.370 . S
C680 C682 1.363 . S
C680 H696 0.931 . S
C681 C680 1.370 . S
C681 C685 1.408 . S
C682 C680 1.363 . S
C682 C683 1.370 . S
C682 C686 1.524 . S
C683 C675 1.503 . S
C683 C682 1.370 . S
C683 C684 1.403 . S
C684 C683 1.403 . S
C684 C685 1.404 . S
C684 C687 1.539 . S
C685 C681 1.408 . S
C685 C684 1.404 . S
C685 H697 0.930 . S
C686 C682 1.524 . S
C686 H698 0.956 . S
C686 H699 0.961 . S
C686 H700 0.961 . S
C687 C684 1.539 . S
C687 H701 0.958 . S
C687 H702 0.961 . S
C687 H703 0.960 . S
H688 C672 0.931 . S
H689 C677 0.929 . S
H690 C678 0.960 . S
H691 C678 0.962 . S
H692 C678 0.960 . S
H693 C679 0.961 . S
H694 C679 0.961 . S
H695 C679 0.961 . S
H696 C680 0.931 . S
H697 C685 0.930 . S
H698 C686 0.956 . S
H699 C686 0.961 . S
H700 C686 0.961 . S
H701 C687 0.958 . S
H702 C687 0.961 . S
H703 C687 0.960 . S
C704 C705 1.391 . S
C704 C706 1.394 . S
C704 H720 0.931 . S
C705 C704 1.391 . S
C705 C709 1.376 . S
C706 C704 1.394 . S
C706 C707 1.369 . S
C706 C710 1.531 . S
C707 C706 1.369 . S
C707 C708 1.410 . S
C707 C715 1.503 . S
C708 C707 1.410 . S
C708 C709 1.392 . S
C708 C711 1.511 . S
C709 C705 1.376 . S
C709 C708 1.392 . S
C709 H721 0.929 . S
C710 C706 1.531 . S
C710 H722 0.960 . S
C710 H723 0.962 . S
C710 H724 0.960 . S
C711 C708 1.511 . S
C711 H725 0.961 . S
C711 H726 0.961 . S
C711 H727 0.961 . S
C712 C713 1.370 . S
C712 C714 1.363 . S
C712 H728 0.931 . S
C713 C712 1.370 . S
C713 C717 1.408 . S
C714 C712 1.363 . S
C714 C715 1.370 . S
C714 C718 1.524 . S
C715 C707 1.503 . S
C715 C714 1.370 . S
C715 C716 1.403 . S
C716 C715 1.403 . S
C716 C717 1.404 . S
C716 C719 1.539 . S
C717 C713 1.408 . S
C717 C716 1.404 . S
C717 H729 0.930 . S
C718 C714 1.524 . S
C718 H730 0.956 . S
C718 H731 0.961 . S
C718 H732 0.961 . S
C719 C716 1.539 . S
C719 H733 0.958 . S
C719 H734 0.961 . S
C719 H735 0.960 . S
H720 C704 0.931 . S
H721 C709 0.929 . S
H722 C710 0.960 . S
H723 C710 0.962 . S
H724 C710 0.960 . S
H725 C711 0.961 . S
H726 C711 0.961 . S
H727 C711 0.961 . S
H728 C712 0.931 . S
H729 C717 0.930 . S
H730 C718 0.956 . S
H731 C718 0.961 . S
H732 C718 0.961 . S
H733 C719 0.958 . S
H734 C719 0.961 . S
H735 C719 0.960 . S
C736 C737 1.391 . S
C736 C738 1.394 . S
C736 H752 0.931 . S
C737 C736 1.391 . S
C737 C741 1.376 . S
C738 C736 1.394 . S
C738 C739 1.369 . S
C738 C742 1.531 . S
C739 C738 1.369 . S
C739 C740 1.410 . S
C739 C747 1.503 . S
C740 C739 1.410 . S
C740 C741 1.392 . S
C740 C743 1.511 . S
C741 C737 1.376 . S
C741 C740 1.392 . S
C741 H753 0.929 . S
C742 C738 1.531 . S
C742 H754 0.960 . S
C742 H755 0.962 . S
C742 H756 0.960 . S
C743 C740 1.511 . S
C743 H757 0.961 . S
C743 H758 0.961 . S
C743 H759 0.961 . S
C744 C745 1.370 . S
C744 C746 1.363 . S
C744 H760 0.931 . S
C745 C744 1.370 . S
C745 C749 1.408 . S
C746 C744 1.363 . S
C746 C747 1.370 . S
C746 C750 1.524 . S
C747 C739 1.503 . S
C747 C746 1.370 . S
C747 C748 1.403 . S
C748 C747 1.403 . S
C748 C749 1.404 . S
C748 C751 1.539 . S
C749 C745 1.408 . S
C749 C748 1.404 . S
C749 H761 0.930 . S
C750 C746 1.524 . S
C750 H762 0.956 . S
C750 H763 0.961 . S
C750 H764 0.961 . S
C751 C748 1.539 . S
C751 H765 0.958 . S
C751 H766 0.961 . S
C751 H767 0.960 . S
H752 C736 0.931 . S
H753 C741 0.929 . S
H754 C742 0.960 . S
H755 C742 0.962 . S
H756 C742 0.960 . S
H757 C743 0.961 . S
H758 C743 0.961 . S
H759 C743 0.961 . S
H760 C744 0.931 . S
H761 C749 0.930 . S
H762 C750 0.956 . S
H763 C750 0.961 . S
H764 C750 0.961 . S
H765 C751 0.958 . S
H766 C751 0.961 . S
H767 C751 0.960 . S
C768 C769 1.391 . S
C768 C770 1.394 . S
C768 H784 0.931 . S
C769 C768 1.391 . S
C769 C773 1.376 . S
C770 C768 1.394 . S
C770 C771 1.369 . S
C770 C774 1.531 . S
C771 C770 1.369 . S
C771 C772 1.410 . S
C771 C779 1.503 . S
C772 C771 1.410 . S
C772 C773 1.392 . S
C772 C775 1.511 . S
C773 C769 1.376 . S
C773 C772 1.392 . S
C773 H785 0.929 . S
C774 C770 1.531 . S
C774 H786 0.960 . S
C774 H787 0.962 . S
C774 H788 0.960 . S
C775 C772 1.511 . S
C775 H789 0.961 . S
C775 H790 0.961 . S
C775 H791 0.961 . S
C776 C777 1.370 . S
C776 C778 1.363 . S
C776 H792 0.931 . S
C777 C776 1.370 . S
C777 C781 1.408 . S
C778 C776 1.363 . S
C778 C779 1.370 . S
C778 C782 1.524 . S
C779 C771 1.503 . S
C779 C778 1.370 . S
C779 C780 1.403 . S
C780 C779 1.403 . S
C780 C781 1.404 . S
C780 C783 1.539 . S
C781 C777 1.408 . S
C781 C780 1.404 . S
C781 H793 0.930 . S
C782 C778 1.524 . S
C782 H794 0.956 . S
C782 H795 0.961 . S
C782 H796 0.961 . S
C783 C780 1.539 . S
C783 H797 0.958 . S
C783 H798 0.961 . S
C783 H799 0.960 . S
H784 C768 0.931 . S
H785 C773 0.929 . S
H786 C774 0.960 . S
H787 C774 0.962 . S
H788 C774 0.960 . S
H789 C775 0.961 . S
H790 C775 0.961 . S
H791 C775 0.961 . S
H792 C776 0.931 . S
H793 C781 0.930 . S
H794 C782 0.956 . S
H795 C782 0.961 . S
H796 C782 0.961 . S
H797 C783 0.958 . S
H798 C783 0.961 . S
H799 C783 0.960 . S
C800 C801 1.391 . S
C800 C802 1.394 . S
C800 H816 0.931 . S
C801 C800 1.391 . S
C801 C805 1.376 . S
C802 C800 1.394 . S
C802 C803 1.369 . S
C802 C806 1.531 . S
C803 C802 1.369 . S
C803 C804 1.410 . S
C803 C811 1.503 . S
C804 C803 1.410 . S
C804 C805 1.392 . S
C804 C807 1.511 . S
C805 C801 1.376 . S
C805 C804 1.392 . S
C805 H817 0.929 . S
C806 C802 1.531 . S
C806 H818 0.960 . S
C806 H819 0.962 . S
C806 H820 0.960 . S
C807 C804 1.511 . S
C807 H821 0.961 . S
C807 H822 0.961 . S
C807 H823 0.961 . S
C808 C809 1.370 . S
C808 C810 1.363 . S
C808 H824 0.931 . S
C809 C808 1.370 . S
C809 C813 1.408 . S
C810 C808 1.363 . S
C810 C811 1.370 . S
C810 C814 1.524 . S
C811 C803 1.503 . S
C811 C810 1.370 . S
C811 C812 1.403 . S
C812 C811 1.403 . S
C812 C813 1.404 . S
C812 C815 1.539 . S
C813 C809 1.408 . S
C813 C812 1.404 . S
C813 H825 0.930 . S
C814 C810 1.524 . S
C814 H826 0.956 . S
C814 H827 0.961 . S
C814 H828 0.961 . S
C815 C812 1.539 . S
C815 H829 0.958 . S
C815 H830 0.961 . S
C815 H831 0.960 . S
H816 C800 0.931 . S
H817 C805 0.929 . S
H818 C806 0.960 . S
H819 C806 0.962 . S
H820 C806 0.960 . S
H821 C807 0.961 . S
H822 C807 0.961 . S
H823 C807 0.961 . S
H824 C808 0.931 . S
H825 C813 0.930 . S
H826 C814 0.956 . S
H827 C814 0.961 . S
H828 C814 0.961 . S
H829 C815 0.958 . S
H830 C815 0.961 . S
H831 C815 0.960 . S
C832 C833 1.391 . S
C832 C834 1.394 . S
C832 H848 0.931 . S
C833 C832 1.391 . S
C833 C837 1.376 . S
C834 C832 1.394 . S
C834 C835 1.369 . S
C834 C838 1.531 . S
C835 C834 1.369 . S
C835 C836 1.410 . S
C835 C843 1.503 . S
C836 C835 1.410 . S
C836 C837 1.392 . S
C836 C839 1.511 . S
C837 C833 1.376 . S
C837 C836 1.392 . S
C837 H849 0.929 . S
C838 C834 1.531 . S
C838 H850 0.960 . S
C838 H851 0.962 . S
C838 H852 0.960 . S
C839 C836 1.511 . S
C839 H853 0.961 . S
C839 H854 0.961 . S
C839 H855 0.961 . S
C840 C841 1.370 . S
C840 C842 1.363 . S
C840 H856 0.931 . S
C841 C840 1.370 . S
C841 C845 1.408 . S
C842 C840 1.363 . S
C842 C843 1.370 . S
C842 C846 1.524 . S
C843 C835 1.503 . S
C843 C842 1.370 . S
C843 C844 1.403 . S
C844 C843 1.403 . S
C844 C845 1.404 . S
C844 C847 1.539 . S
C845 C841 1.408 . S
C845 C844 1.404 . S
C845 H857 0.930 . S
C846 C842 1.524 . S
C846 H858 0.956 . S
C846 H859 0.961 . S
C846 H860 0.961 . S
C847 C844 1.539 . S
C847 H861 0.958 . S
C847 H862 0.961 . S
C847 H863 0.960 . S
H848 C832 0.931 . S
H849 C837 0.929 . S
H850 C838 0.960 . S
H851 C838 0.962 . S
H852 C838 0.960 . S
H853 C839 0.961 . S
H854 C839 0.961 . S
H855 C839 0.961 . S
H856 C840 0.931 . S
H857 C845 0.930 . S
H858 C846 0.956 . S
H859 C846 0.961 . S
H860 C846 0.961 . S
H861 C847 0.958 . S
H862 C847 0.961 . S
H863 C847 0.960 . S
C864 C865 1.391 . S
C864 C866 1.394 . S
C864 H880 0.931 . S
C865 C864 1.391 . S
C865 C869 1.376 . S
C866 C864 1.394 . S
C866 C867 1.369 . S
C866 C870 1.531 . S
C867 C866 1.369 . S
C867 C868 1.410 . S
C867 C875 1.503 . S
C868 C867 1.410 . S
C868 C869 1.392 . S
C868 C871 1.511 . S
C869 C865 1.376 . S
C869 C868 1.392 . S
C869 H881 0.929 . S
C870 C866 1.531 . S
C870 H882 0.960 . S
C870 H883 0.962 1_455 S
C870 H884 0.960 . S
C871 C868 1.511 . S
C871 H885 0.961 . S
C871 H886 0.961 . S
C871 H887 0.961 . S
C872 C873 1.370 . S
C872 C874 1.363 . S
C872 H888 0.931 1_455 S
C873 C872 1.370 . S
C873 C877 1.408 . S
C874 C872 1.363 . S
C874 C875 1.372 . S
C874 C878 1.522 1_455 S
C875 C867 1.503 . S
C875 C874 1.372 . S
C875 C876 1.403 . S
C876 C875 1.403 . S
C876 C877 1.404 . S
C876 C879 1.539 . S
C877 C873 1.408 . S
C877 C876 1.404 . S
C877 H889 0.930 . S
C878 C874 1.522 1_655 S
C878 H890 0.956 . S
C878 H891 0.961 . S
C878 H892 0.961 . S
C879 C876 1.539 . S
C879 H893 0.958 . S
C879 H894 0.961 . S
C879 H895 0.960 . S
H880 C864 0.931 . S
H881 C869 0.929 . S
H882 C870 0.960 . S
H883 C870 0.962 1_655 S
H884 C870 0.960 . S
H885 C871 0.961 . S
H886 C871 0.961 . S
H887 C871 0.961 . S
H888 C872 0.931 1_655 S
H889 C877 0.930 . S
H890 C878 0.956 . S
H891 C878 0.961 . S
H892 C878 0.961 . S
H893 C879 0.958 . S
H894 C879 0.961 . S
H895 C879 0.960 . S
C896 C897 1.391 . S
C896 C898 1.394 . S
C896 H912 0.931 . S
C897 C896 1.391 . S
C897 C901 1.376 . S
C898 C896 1.394 . S
C898 C899 1.369 . S
C898 C902 1.531 . S
C899 C898 1.369 . S
C899 C900 1.410 . S
C899 C907 1.503 . S
C900 C899 1.410 . S
C900 C901 1.392 . S
C900 C903 1.511 1_545 S
C901 C897 1.376 . S
C901 C900 1.392 . S
C901 H913 0.929 1_545 S
C902 C898 1.531 . S
C902 H914 0.960 . S
C902 H915 0.962 . S
C902 H916 0.960 . S
C903 C900 1.511 1_565 S
C903 H917 0.961 . S
C903 H918 0.961 . S
C903 H919 0.961 1_565 S
C904 C905 1.370 . S
C904 C906 1.363 . S
C904 H920 0.931 . S
C905 C904 1.370 . S
C905 C909 1.408 . S
C906 C904 1.363 . S
C906 C907 1.370 . S
C906 C910 1.524 . S
C907 C899 1.503 . S
C907 C906 1.370 . S
C907 C908 1.403 . S
C908 C907 1.403 . S
C908 C909 1.404 . S
C908 C911 1.539 . S
C909 C905 1.408 . S
C909 C908 1.404 . S
C909 H921 0.930 . S
C910 C906 1.524 . S
C910 H922 0.956 . S
C910 H923 0.961 1_545 S
C910 H924 0.961 1_545 S
C911 C908 1.539 . S
C911 H925 0.958 . S
C911 H926 0.961 . S
C911 H927 0.960 . S
H912 C896 0.931 . S
H913 C901 0.929 1_565 S
H914 C902 0.960 . S
H915 C902 0.962 . S
H916 C902 0.960 . S
H917 C903 0.961 . S
H918 C903 0.961 . S
H919 C903 0.961 1_545 S
H920 C904 0.931 . S
H921 C909 0.930 . S
H922 C910 0.956 . S
H923 C910 0.961 1_565 S
H924 C910 0.961 1_565 S
H925 C911 0.958 . S
H926 C911 0.961 . S
H927 C911 0.960 . S
C928 C929 1.391 . S
C928 C930 1.394 . S
C928 H944 0.931 . S
C929 C928 1.391 . S
C929 C933 1.376 . S
C930 C928 1.394 . S
C930 C931 1.369 . S
C930 C934 1.531 . S
C931 C930 1.369 . S
C931 C932 1.410 . S
C931 C939 1.503 . S
C932 C931 1.410 . S
C932 C933 1.392 . S
C932 C935 1.511 . S
C933 C929 1.376 . S
C933 C932 1.392 . S
C933 H945 0.929 . S
C934 C930 1.531 . S
C934 H946 0.960 . S
C934 H947 0.962 . S
C934 H948 0.960 . S
C935 C932 1.511 . S
C935 H949 0.961 . S
C935 H950 0.961 . S
C935 H951 0.961 . S
C936 C937 1.370 . S
C936 C938 1.363 . S
C936 H952 0.931 . S
C937 C936 1.370 . S
C937 C941 1.408 . S
C938 C936 1.363 . S
C938 C939 1.370 . S
C938 C942 1.524 . S
C939 C931 1.503 . S
C939 C938 1.370 . S
C939 C940 1.403 . S
C940 C939 1.403 . S
C940 C941 1.404 . S
C940 C943 1.539 . S
C941 C937 1.408 . S
C941 C940 1.404 . S
C941 H953 0.930 . S
C942 C938 1.524 . S
C942 H954 0.956 . S
C942 H955 0.961 . S
C942 H956 0.961 . S
C943 C940 1.539 . S
C943 H957 0.958 . S
C943 H958 0.961 . S
C943 H959 0.960 . S
H944 C928 0.931 . S
H945 C933 0.929 . S
H946 C934 0.960 . S
H947 C934 0.962 . S
H948 C934 0.960 . S
H949 C935 0.961 . S
H950 C935 0.961 . S
H951 C935 0.961 . S
H952 C936 0.931 . S
H953 C941 0.930 . S
H954 C942 0.956 . S
H955 C942 0.961 . S
H956 C942 0.961 . S
H957 C943 0.958 . S
H958 C943 0.961 . S
H959 C943 0.960 . S
C960 C961 1.391 . S
C960 C962 1.394 . S
C960 H976 0.931 . S
C961 C960 1.391 . S
C961 C965 1.376 . S
C962 C960 1.394 . S
C962 C963 1.369 . S
C962 C966 1.531 . S
C963 C962 1.369 . S
C963 C964 1.410 . S
C963 C971 1.503 . S
C964 C963 1.410 . S
C964 C965 1.392 . S
C964 C967 1.511 . S
C965 C961 1.376 . S
C965 C964 1.392 . S
C965 H977 0.929 . S
C966 C962 1.531 . S
C966 H978 0.960 . S
C966 H979 0.962 . S
C966 H980 0.960 . S
C967 C964 1.511 . S
C967 H981 0.961 1_545 S
C967 H982 0.961 1_545 S
C967 H983 0.961 . S
C968 C969 1.370 1_565 S
C968 C970 1.363 . S
C968 H984 0.931 . S
C969 C968 1.370 1_545 S
C969 C973 1.408 . S
C970 C968 1.363 . S
C970 C971 1.370 1_565 S
C970 C974 1.524 . S
C971 C963 1.503 . S
C971 C970 1.370 1_545 S
C971 C972 1.403 . S
C972 C971 1.403 . S
C972 C973 1.404 . S
C972 C975 1.539 . S
C973 C969 1.408 . S
C973 C972 1.404 . S
C973 H985 0.930 . S
C974 C970 1.524 . S
C974 H986 0.956 . S
C974 H987 0.961 . S
C974 H988 0.961 . S
C975 C972 1.539 . S
C975 H989 0.958 . S
C975 H990 0.961 . S
C975 H991 0.960 . S
H976 C960 0.931 . S
H977 C965 0.929 . S
H978 C966 0.960 . S
H979 C966 0.962 . S
H980 C966 0.960 . S
H981 C967 0.961 1_565 S
H982 C967 0.961 1_565 S
H983 C967 0.961 . S
H984 C968 0.931 . S
H985 C973 0.930 . S
H986 C974 0.956 . S
H987 C974 0.961 . S
H988 C974 0.961 . S
H989 C975 0.958 . S
H990 C975 0.961 . S
H991 C975 0.960 . S
C992 C993 1.391 . S
C992 C994 1.394 . S
C992 H1008 0.931 . S
C993 C992 1.391 . S
C993 C997 1.376 . S
C994 C992 1.394 . S
C994 C995 1.369 . S
C994 C998 1.531 . S
C995 C994 1.369 . S
C995 C996 1.410 . S
C995 C1003 1.503 . S
C996 C995 1.410 . S
C996 C997 1.392 . S
C996 C999 1.511 . S
C997 C993 1.376 . S
C997 C996 1.392 . S
C997 H1009 0.929 . S
C998 C994 1.531 . S
C998 H1010 0.960 . S
C998 H1011 0.962 . S
C998 H1012 0.960 . S
C999 C996 1.511 . S
C999 H1013 0.961 . S
C999 H1014 0.961 . S
C999 H1015 0.961 . S
C1000 C1001 1.370 . S
C1000 C1002 1.363 . S
C1000 H1016 0.931 . S
C1001 C1000 1.370 . S
C1001 C1005 1.408 . S
C1002 C1000 1.363 . S
C1002 C1003 1.370 . S
C1002 C1006 1.524 . S
C1003 C995 1.503 . S
C1003 C1002 1.370 . S
C1003 C1004 1.403 . S
C1004 C1003 1.403 . S
C1004 C1005 1.404 . S
C1004 C1007 1.539 . S
C1005 C1001 1.408 . S
C1005 C1004 1.404 . S
C1005 H1017 0.930 . S
C1006 C1002 1.524 . S
C1006 H1018 0.956 . S
C1006 H1019 0.961 . S
C1006 H1020 0.961 . S
C1007 C1004 1.539 . S
C1007 H1021 0.958 . S
C1007 H1022 0.961 . S
C1007 H1023 0.960 . S
H1008 C992 0.931 . S
H1009 C997 0.929 . S
H1010 C998 0.960 . S
H1011 C998 0.962 . S
H1012 C998 0.960 . S
H1013 C999 0.961 . S
H1014 C999 0.961 . S
H1015 C999 0.961 . S
H1016 C1000 0.931 . S
H1017 C1005 0.930 . S
H1018 C1006 0.956 . S
H1019 C1006 0.961 . S
H1020 C1006 0.961 . S
H1021 C1007 0.958 . S
H1022 C1007 0.961 . S
H1023 C1007 0.960 . S
C1024 C1025 1.391 . S
C1024 C1026 1.394 . S
C1024 H1040 0.931 . S
C1025 C1024 1.391 . S
C1025 C1029 1.376 1_455 S
C1026 C1024 1.394 . S
C1026 C1027 1.373 . S
C1026 C1030 1.531 . S
C1027 C1026 1.373 . S
C1027 C1028 1.406 1_455 S
C1027 C1035 1.503 1_455 S
C1028 C1027 1.406 1_655 S
C1028 C1029 1.392 . S
C1028 C1031 1.511 . S
C1029 C1025 1.376 1_655 S
C1029 C1028 1.392 . S
C1029 H1041 0.929 . S
C1030 C1026 1.531 . S
C1030 H1042 0.960 . S
C1030 H1043 0.962 . S
C1030 H1044 0.960 . S
C1031 C1028 1.511 . S
C1031 H1045 0.961 . S
C1031 H1046 0.961 . S
C1031 H1047 0.961 . S
C1032 C1033 1.354 1_455 S
C1032 C1034 1.367 . S
C1032 H1048 0.945 . S
C1033 C1032 1.354 1_655 S
C1033 C1037 1.408 . S
C1034 C1032 1.367 . S
C1034 C1035 1.370 1_455 S
C1034 C1038 1.524 . S
C1035 C1027 1.503 1_655 S
C1035 C1034 1.370 1_655 S
C1035 C1036 1.403 . S
C1036 C1035 1.403 . S
C1036 C1037 1.404 . S
C1036 C1039 1.539 . S
C1037 C1033 1.408 . S
C1037 C1036 1.404 . S
C1037 H1049 0.930 . S
C1038 C1034 1.524 . S
C1038 H1050 0.956 . S
C1038 H1051 0.961 1_455 S
C1038 H1052 0.961 . S
C1039 C1036 1.539 . S
C1039 H1053 0.958 1_655 S
C1039 H1054 0.961 . S
C1039 H1055 0.960 . S
H1040 C1024 0.931 . S
H1041 C1029 0.929 . S
H1042 C1030 0.960 . S
H1043 C1030 0.962 . S
H1044 C1030 0.960 . S
H1045 C1031 0.961 . S
H1046 C1031 0.961 . S
H1047 C1031 0.961 . S
H1048 C1032 0.945 . S
H1049 C1037 0.930 . S
H1050 C1038 0.956 . S
H1051 C1038 0.961 1_655 S
H1052 C1038 0.961 . S
H1053 C1039 0.958 1_455 S
H1054 C1039 0.961 . S
H1055 C1039 0.960 . S
C481 C24 2.934 . S
C489 C451 2.920 . S
C513 C66 1.087 . S
C521 C301 1.123 . S
C545 C93 1.838 . S
C553 C361 1.711 . S
C577 C13 3.071 . S
C585 C421 2.893 . S
C617 C331 1.304 . S
C609 C57 1.280 . S
C649 C391 1.977 . S
C641 C104 1.960 . S
C673 C64 1.944 . S
C681 C181 1.799 . S
C705 C97 0.479 . S
C713 C271 0.520 . S
C737 C17 1.266 . S
C745 C151 1.307 . S
C777 C211 1.831 . S
C769 C53 1.849 . S
C809 C241 0.295 . S
C801 C106 0.395 . S
C833 C26 1.158 . S
C841 C121 1.140 . S
C873 C260 1.071 1_554 S
C865 C2 1.087 . S
C897 C63 1.484 . S
C905 C140 1.480 . S
C929 C82 1.353 . S
C937 C200 1.346 . S
C969 C380 1.380 . S
C961 C42 1.363 . S
C1001 C440 1.772 1_556 S
C993 C103 1.748 . S
C1025 C23 1.454 . S
C1033 C320 1.471 1_655 S
