# Generated by pormake.
# Topology pyr, (3,6)-cn, num edge types: 1
# Building blocks:
#     Node 0, Type 0, BuildingBlock: KAKCAD_clean_linker_0, # of connection points: 3
#     Node 1, Type 0, BuildingBlock: KAKCAD_clean_linker_0, # of connection points: 3
#     Node 2, Type 0, BuildingBlock: KAKCAD_clean_linker_0, # of connection points: 3
#     Node 3, Type 0, BuildingBlock: KAKCAD_clean_linker_0, # of connection points: 3
#     Node 4, Type 0, BuildingBlock: KAKCAD_clean_linker_0, # of connection points: 3
#     Node 5, Type 0, BuildingBlock: KAKCAD_clean_linker_0, # of connection points: 3
#     Node 6, Type 0, BuildingBlock: KAKCAD_clean_linker_0, # of connection points: 3
#     Node 7, Type 0, BuildingBlock: KAKCAD_clean_linker_0, # of connection points: 3
#     Node 8, Type 1, BuildingBlock: MIFKUJ_clean_sbu_0, # of connection points: 6
#     Node 9, Type 1, BuildingBlock: MIFKUJ_clean_sbu_0, # of connection points: 6
#     Node 10, Type 1, BuildingBlock: MIFKUJ_clean_sbu_0, # of connection points: 6
#     Node 11, Type 1, BuildingBlock: MIFKUJ_clean_sbu_0, # of connection points: 6
#     Edge 12, Type (0, 1), BuildingBlock: UVAHIK_clean_linker_0, # of connection points: 2
#     Edge 13, Type (0, 1), BuildingBlock: UVAHIK_clean_linker_0, # of connection points: 2
#     Edge 14, Type (0, 1), BuildingBlock: UVAHIK_clean_linker_0, # of connection points: 2
#     Edge 15, Type (0, 1), BuildingBlock: UVAHIK_clean_linker_0, # of connection points: 2
#     Edge 16, Type (0, 1), BuildingBlock: UVAHIK_clean_linker_0, # of connection points: 2
#     Edge 17, Type (0, 1), BuildingBlock: UVAHIK_clean_linker_0, # of connection points: 2
#     Edge 18, Type (0, 1), BuildingBlock: UVAHIK_clean_linker_0, # of connection points: 2
#     Edge 19, Type (0, 1), BuildingBlock: UVAHIK_clean_linker_0, # of connection points: 2
#     Edge 20, Type (0, 1), BuildingBlock: UVAHIK_clean_linker_0, # of connection points: 2
#     Edge 21, Type (0, 1), BuildingBlock: UVAHIK_clean_linker_0, # of connection points: 2
#     Edge 22, Type (0, 1), BuildingBlock: UVAHIK_clean_linker_0, # of connection points: 2
#     Edge 23, Type (0, 1), BuildingBlock: UVAHIK_clean_linker_0, # of connection points: 2
#     Edge 24, Type (0, 1), BuildingBlock: UVAHIK_clean_linker_0, # of connection points: 2
#     Edge 25, Type (0, 1), BuildingBlock: UVAHIK_clean_linker_0, # of connection points: 2
#     Edge 26, Type (0, 1), BuildingBlock: UVAHIK_clean_linker_0, # of connection points: 2
#     Edge 27, Type (0, 1), BuildingBlock: UVAHIK_clean_linker_0, # of connection points: 2
#     Edge 28, Type (0, 1), BuildingBlock: UVAHIK_clean_linker_0, # of connection points: 2
#     Edge 29, Type (0, 1), BuildingBlock: UVAHIK_clean_linker_0, # of connection points: 2
#     Edge 30, Type (0, 1), BuildingBlock: UVAHIK_clean_linker_0, # of connection points: 2
#     Edge 31, Type (0, 1), BuildingBlock: UVAHIK_clean_linker_0, # of connection points: 2
#     Edge 32, Type (0, 1), BuildingBlock: UVAHIK_clean_linker_0, # of connection points: 2
#     Edge 33, Type (0, 1), BuildingBlock: UVAHIK_clean_linker_0, # of connection points: 2
#     Edge 34, Type (0, 1), BuildingBlock: UVAHIK_clean_linker_0, # of connection points: 2
#     Edge 35, Type (0, 1), BuildingBlock: UVAHIK_clean_linker_0, # of connection points: 2
# Relax obj value: 0.025
# Max RMSD: 0.077
# Mean RMSD: 0.046
data_MOF--net-pyr--node1-MIFKUJ_clean_sbu_0--node2-KAKCAD_clean_linker_0--edge1-UVAHIK_clean_linker_0
_symmetry_space_group_name_H-M    P1
_symmetry_Int_Tables_number       1
_symmetry_cell_setting            triclinic
loop_
_symmetry_equiv_pos_as_xyz
'x, y, z'
_cell_length_a     59.364823
_cell_length_b     53.196921
_cell_length_c     57.911121
_cell_angle_alpha  86.963355
_cell_angle_beta   88.571108
_cell_angle_gamma 95.675849
loop_
_atom_site_label
_atom_site_type_symbol
_atom_site_fract_x
_atom_site_fract_y
_atom_site_fract_z
_atom_type_partial_charge
C0 C 0.15468 0.15497 0.27582 0.0
C1 C 0.16839 0.14613 0.29325 0.0
C2 C 0.16434 0.16661 0.25533 0.0
C3 C 0.18798 0.16986 0.2518 0.0
C4 C 0.20175 0.16068 0.2691 0.0
C5 C 0.19202 0.14885 0.28965 0.0
C6 C 0.19796 0.18279 0.23004 0.0
C7 C 0.18854 0.20398 0.22042 0.0
C8 C 0.19603 0.21502 0.1987 0.0
C9 C 0.21422 0.20551 0.18719 0.0
C10 C 0.22435 0.18466 0.19679 0.0
C11 C 0.21593 0.17332 0.21819 0.0
C12 C 0.24309 0.17416 0.18407 0.0
C13 C 0.24329 0.17364 0.15981 0.0
C14 C 0.26089 0.16439 0.1961 0.0
C15 C 0.27829 0.15419 0.1842 0.0
C16 C 0.27856 0.15383 0.15991 0.0
C17 C 0.18384 0.23536 0.18751 0.0
C18 C 0.16015 0.23456 0.19015 0.0
C19 C 0.19547 0.25515 0.17355 0.0
C20 C 0.18365 0.27337 0.16219 0.0
C21 C 0.15993 0.27243 0.16476 0.0
C22 C 0.14841 0.25297 0.17915 0.0
C23 C 0.26088 0.16384 0.14789 0.0
H24 H 0.13639 0.15261 0.27789 0.0
H25 H 0.15322 0.17286 0.24211 0.0
H26 H 0.22003 0.16302 0.26692 0.0
H27 H 0.20297 0.14225 0.30286 0.0
H28 H 0.17512 0.21177 0.22986 0.0
H29 H 0.22273 0.15646 0.22522 0.0
H30 H 0.22025 0.21406 0.17052 0.0
H31 H 0.2297 0.18053 0.14992 0.0
H32 H 0.26149 0.16473 0.21475 0.0
H33 H 0.29138 0.14632 0.19414 0.0
H34 H 0.15049 0.2194 0.2004 0.0
H35 H 0.21372 0.25659 0.17132 0.0
H36 H 0.26062 0.16429 0.12919 0.0
H37 H 0.13023 0.25184 0.18194 0.0
H38 H 0.19311 0.28789 0.15105 0.0
C39 C 0.34351 0.87478 0.76419 0.0
C40 C 0.36669 0.88276 0.76554 0.0
C41 C 0.33484 0.86546 0.74378 0.0
C42 C 0.34923 0.86364 0.72443 0.0
C43 C 0.37238 0.87176 0.72573 0.0
C44 C 0.38101 0.88139 0.74606 0.0
C45 C 0.34012 0.85278 0.70314 0.0
C46 C 0.32026 0.86077 0.69378 0.0
C47 C 0.31107 0.85003 0.67399 0.0
C48 C 0.32198 0.83095 0.66376 0.0
C49 C 0.34192 0.82282 0.67285 0.0
C50 C 0.35098 0.83398 0.69246 0.0
C51 C 0.35299 0.80235 0.66203 0.0
C52 C 0.33992 0.78073 0.65512 0.0
C53 C 0.37661 0.80436 0.65834 0.0
C54 C 0.38689 0.7853 0.64762 0.0
C55 C 0.37376 0.76382 0.64042 0.0
C56 C 0.29012 0.85868 0.66401 0.0
C57 C 0.27215 0.86439 0.67847 0.0
C58 C 0.28789 0.86118 0.63991 0.0
C59 C 0.26814 0.86899 0.63049 0.0
C60 C 0.25017 0.87474 0.64493 0.0
C61 C 0.25246 0.87241 0.66905 0.0
C62 C 0.35018 0.76168 0.64447 0.0
H63 H 0.3321 0.87577 0.77893 0.0
H64 H 0.31694 0.85917 0.74327 0.0
H65 H 0.3838 0.87069 0.71101 0.0
H66 H 0.39898 0.88724 0.74671 0.0
H67 H 0.31224 0.87575 0.70169 0.0
H68 H 0.36606 0.82742 0.69991 0.0
H69 H 0.31491 0.8223 0.64867 0.0
H70 H 0.32173 0.77841 0.65813 0.0
H71 H 0.38709 0.82093 0.66329 0.0
H72 H 0.40506 0.78766 0.64453 0.0
H73 H 0.27317 0.8624 0.69711 0.0
H74 H 0.3015 0.85729 0.62824 0.0
H75 H 0.33962 0.74514 0.63959 0.0
H76 H 0.23911 0.87698 0.6807 0.0
H77 H 0.26689 0.87024 0.61185 0.0
C78 C 0.74319 0.40275 0.84541 0.0
C79 C 0.75974 0.38639 0.85116 0.0
C80 C 0.72334 0.39377 0.83464 0.0
C81 C 0.71946 0.36819 0.82966 0.0
C82 C 0.73613 0.35197 0.83489 0.0
C83 C 0.75607 0.36098 0.84534 0.0
C84 C 0.69762 0.35793 0.82025 0.0
C85 C 0.6887 0.36948 0.80057 0.0
C86 C 0.66816 0.35925 0.79155 0.0
C87 C 0.65651 0.33745 0.80282 0.0
C88 C 0.66511 0.32577 0.82261 0.0
C89 C 0.68568 0.33626 0.83116 0.0
C90 C 0.65269 0.30266 0.8344 0.0
C91 C 0.62886 0.29977 0.83618 0.0
C92 C 0.66462 0.28332 0.84418 0.0
C93 C 0.65309 0.26195 0.85574 0.0
C94 C 0.62934 0.25917 0.8575 0.0
C95 C 0.65876 0.37102 0.77036 0.0
C96 C 0.6602 0.3975 0.76643 0.0
C97 C 0.64768 0.35576 0.75412 0.0
C98 C 0.63763 0.36661 0.73498 0.0
C99 C 0.63866 0.39301 0.73135 0.0
C100 C 0.65035 0.40836 0.74706 0.0
C101 C 0.61732 0.27818 0.84745 0.0
H102 H 0.74522 0.42235 0.84982 0.0
H103 H 0.71066 0.40661 0.83095 0.0
H104 H 0.73369 0.33222 0.83095 0.0
H105 H 0.7686 0.34793 0.84887 0.0
H106 H 0.69813 0.38596 0.79194 0.0
H107 H 0.69228 0.32791 0.84674 0.0
H108 H 0.64066 0.3295 0.79612 0.0
H109 H 0.61907 0.31439 0.82924 0.0
H110 H 0.68292 0.28454 0.84276 0.0
H111 H 0.66275 0.2474 0.86308 0.0
H112 H 0.66838 0.40987 0.77863 0.0
H113 H 0.64674 0.33533 0.75615 0.0
H114 H 0.59899 0.27659 0.84875 0.0
H115 H 0.65131 0.42878 0.74473 0.0
H116 H 0.62909 0.3543 0.72293 0.0
C117 C 0.84842 0.62282 0.22533 0.0
C118 C 0.87206 0.62348 0.22258 0.0
C119 C 0.83876 0.63408 0.24398 0.0
C120 C 0.85251 0.64599 0.26051 0.0
C121 C 0.87618 0.64625 0.25784 0.0
C122 C 0.88582 0.63531 0.23903 0.0
C123 C 0.84228 0.6582 0.28036 0.0
C124 C 0.82181 0.64745 0.29125 0.0
C125 C 0.81208 0.65886 0.30995 0.0
C126 C 0.82319 0.68126 0.31778 0.0
C127 C 0.84381 0.69205 0.3075 0.0
C128 C 0.8531 0.68056 0.28868 0.0
C129 C 0.85599 0.71478 0.31711 0.0
C130 C 0.84419 0.73503 0.3237 0.0
C131 C 0.87935 0.71577 0.32092 0.0
C132 C 0.8905 0.73615 0.33174 0.0
C133 C 0.87857 0.75609 0.33887 0.0
C134 C 0.79057 0.64725 0.32166 0.0
C135 C 0.77282 0.63601 0.30886 0.0
C136 C 0.78752 0.64762 0.34581 0.0
C137 C 0.76719 0.63743 0.35681 0.0
C138 C 0.74938 0.62626 0.34404 0.0
C139 C 0.75252 0.62559 0.31991 0.0
C140 C 0.85535 0.75548 0.3344 0.0
H141 H 0.83741 0.61403 0.21277 0.0
H142 H 0.82051 0.63381 0.24519 0.0
H143 H 0.88735 0.65469 0.27043 0.0
H144 H 0.90408 0.63579 0.23753 0.0
H145 H 0.81378 0.62974 0.28562 0.0
H146 H 0.86864 0.68936 0.28031 0.0
H147 H 0.81593 0.69022 0.33218 0.0
H148 H 0.82622 0.73494 0.32079 0.0
H149 H 0.8889 0.70038 0.3162 0.0
H150 H 0.90844 0.7362 0.33471 0.0
H151 H 0.77445 0.63556 0.29022 0.0
H152 H 0.80091 0.6557 0.35634 0.0
H153 H 0.84562 0.77043 0.33981 0.0
H154 H 0.73935 0.61684 0.3095 0.0
H155 H 0.76538 0.63866 0.37535 0.0
C156 C 0.82636 0.82308 0.71467 0.0
C157 C 0.82953 0.84966 0.71306 0.0
C158 C 0.81453 0.81027 0.73365 0.0
C159 C 0.80557 0.82378 0.75133 0.0
C160 C 0.80818 0.85036 0.74936 0.0
C161 C 0.82003 0.86315 0.73044 0.0
C162 C 0.79471 0.81035 0.77246 0.0
C163 C 0.80481 0.79038 0.78349 0.0
C164 C 0.79598 0.77903 0.8047 0.0
C165 C 0.77663 0.78778 0.81475 0.0
C166 C 0.76642 0.80789 0.80404 0.0
C167 C 0.77537 0.81877 0.78272 0.0
C168 C 0.74758 0.81891 0.81593 0.0
C169 C 0.72997 0.80336 0.82773 0.0
C170 C 0.74759 0.84531 0.81621 0.0
C171 C 0.73046 0.85595 0.82801 0.0
C172 C 0.7129 0.84046 0.83989 0.0
C173 C 0.80825 0.75967 0.81715 0.0
C174 C 0.81834 0.74131 0.80497 0.0
C175 C 0.81131 0.76051 0.84112 0.0
C176 C 0.82469 0.7439 0.85248 0.0
C177 C 0.83546 0.72623 0.84012 0.0
C178 C 0.83188 0.72484 0.81632 0.0
C179 C 0.7128 0.81404 0.83962 0.0
H180 H 0.83361 0.81216 0.70163 0.0
H181 H 0.81263 0.78977 0.73463 0.0
H182 H 0.8017 0.86133 0.76281 0.0
H183 H 0.82197 0.88365 0.72953 0.0
H184 H 0.82037 0.78466 0.77618 0.0
H185 H 0.76742 0.83408 0.7742 0.0
H186 H 0.76996 0.77949 0.83133 0.0
H187 H 0.72941 0.78295 0.82768 0.0
H188 H 0.76118 0.85783 0.80775 0.0
H189 H 0.73127 0.87636 0.82827 0.0
H190 H 0.81603 0.73991 0.78657 0.0
H191 H 0.80413 0.77468 0.85098 0.0
H192 H 0.69936 0.80164 0.84845 0.0
H193 H 0.83973 0.71114 0.80643 0.0
H194 H 0.82736 0.74559 0.8708 0.0
C195 C 0.65164 0.1033 0.25572 0.0
C196 C 0.64179 0.11859 0.23903 0.0
C197 C 0.66019 0.11348 0.27587 0.0
C198 C 0.65924 0.13924 0.27973 0.0
C199 C 0.64948 0.15454 0.26298 0.0
C200 C 0.64077 0.14433 0.24295 0.0
C201 C 0.66848 0.15021 0.30106 0.0
C202 C 0.6886 0.14263 0.31023 0.0
C203 C 0.69763 0.15328 0.33007 0.0
C204 C 0.68644 0.1718 0.34077 0.0
C205 C 0.66619 0.17947 0.33204 0.0
C206 C 0.65731 0.1685 0.31223 0.0
C207 C 0.65432 0.1989 0.34362 0.0
C208 C 0.65254 0.19863 0.36788 0.0
C209 C 0.64483 0.21798 0.33049 0.0
C210 C 0.63394 0.23645 0.34139 0.0
C211 C 0.63236 0.23631 0.36566 0.0
C212 C 0.71873 0.14499 0.33971 0.0
C213 C 0.72129 0.11911 0.34318 0.0
C214 C 0.73631 0.16287 0.34577 0.0
C215 C 0.75607 0.155 0.35517 0.0
C216 C 0.75849 0.12911 0.35895 0.0
C217 C 0.74092 0.11124 0.35285 0.0
C218 C 0.64171 0.21714 0.37878 0.0
H219 H 0.65293 0.08347 0.25318 0.0
H220 H 0.66735 0.10107 0.28851 0.0
H221 H 0.64873 0.17452 0.26521 0.0
H222 H 0.633 0.15661 0.23067 0.0
H223 H 0.69764 0.1289 0.30159 0.0
H224 H 0.64138 0.17385 0.30579 0.0
H225 H 0.69351 0.18018 0.35599 0.0
H226 H 0.65931 0.18395 0.37849 0.0
H227 H 0.64618 0.21892 0.31178 0.0
H228 H 0.62718 0.25117 0.33082 0.0
H229 H 0.70792 0.10495 0.33878 0.0
H230 H 0.73482 0.18294 0.34312 0.0
H231 H 0.64046 0.21629 0.3975 0.0
H232 H 0.74244 0.09116 0.35542 0.0
H233 H 0.7693 0.16916 0.35986 0.0
C234 C 0.24284 0.61814 0.17431 0.0
C235 C 0.24199 0.614 0.15048 0.0
C236 C 0.26344 0.62577 0.18442 0.0
C237 C 0.28354 0.62976 0.17088 0.0
C238 C 0.2828 0.62523 0.14723 0.0
C239 C 0.26235 0.61728 0.1372 0.0
C240 C 0.30519 0.63963 0.18093 0.0
C241 C 0.31326 0.62808 0.20107 0.0
C242 C 0.33448 0.63675 0.20953 0.0
C243 C 0.34728 0.65757 0.19802 0.0
C244 C 0.33915 0.66983 0.17829 0.0
C245 C 0.31811 0.66058 0.16986 0.0
C246 C 0.35241 0.69239 0.16653 0.0
C247 C 0.36423 0.71081 0.17947 0.0
C248 C 0.35289 0.69601 0.14227 0.0
C249 C 0.36441 0.71772 0.13127 0.0
C250 C 0.37596 0.73623 0.14423 0.0
C251 C 0.34367 0.62393 0.23012 0.0
C252 C 0.3307 0.61941 0.25082 0.0
C253 C 0.36584 0.61684 0.22935 0.0
C254 C 0.37496 0.60565 0.24891 0.0
C255 C 0.36222 0.60164 0.26978 0.0
C256 C 0.33997 0.60858 0.27054 0.0
C257 C 0.37597 0.73242 0.16842 0.0
H258 H 0.22755 0.61613 0.18509 0.0
H259 H 0.26354 0.62931 0.20267 0.0
H260 H 0.29813 0.62783 0.13646 0.0
H261 H 0.26258 0.61364 0.11898 0.0
H262 H 0.30344 0.6118 0.20962 0.0
H263 H 0.31143 0.66999 0.15484 0.0
H264 H 0.36366 0.66419 0.20451 0.0
H265 H 0.36399 0.70887 0.19818 0.0
H266 H 0.34441 0.68201 0.1317 0.0
H267 H 0.36441 0.71997 0.11257 0.0
H268 H 0.3136 0.62481 0.2519 0.0
H269 H 0.37616 0.61997 0.21356 0.0
H270 H 0.38455 0.74649 0.17886 0.0
H271 H 0.32973 0.60557 0.28638 0.0
H272 H 0.3922 0.60066 0.24786 0.0
C273 C 0.14894 0.2429 0.67157 0.0
C274 C 0.1285 0.245 0.66007 0.0
C275 C 0.15959 0.26342 0.68255 0.0
C276 C 0.14981 0.28634 0.68283 0.0
C277 C 0.12905 0.28835 0.6722 0.0
C278 C 0.1186 0.268 0.66075 0.0
C279 C 0.16184 0.30839 0.69335 0.0
C280 C 0.18373 0.31759 0.68522 0.0
C281 C 0.19554 0.33857 0.69483 0.0
C282 C 0.18527 0.34986 0.71329 0.0
C283 C 0.1633 0.34089 0.7216 0.0
C284 C 0.15157 0.32032 0.71129 0.0
C285 C 0.15265 0.35302 0.74106 0.0
C286 C 0.16478 0.35821 0.76109 0.0
C287 C 0.13033 0.35953 0.73975 0.0
C288 C 0.12041 0.3712 0.75798 0.0
C289 C 0.1325 0.37629 0.77806 0.0
C290 C 0.21815 0.34918 0.68494 0.0
C291 C 0.23391 0.33314 0.67722 0.0
C292 C 0.22379 0.3755 0.68221 0.0
C293 C 0.24442 0.3855 0.67166 0.0
C294 C 0.25993 0.36947 0.66341 0.0
C295 C 0.25449 0.34315 0.66654 0.0
C296 C 0.15476 0.36957 0.77946 0.0
H297 H 0.15685 0.22541 0.67208 0.0
H298 H 0.17551 0.26139 0.69085 0.0
H299 H 0.1213 0.30596 0.67209 0.0
H300 H 0.10311 0.27064 0.65186 0.0
H301 H 0.1912 0.30881 0.67081 0.0
H302 H 0.13471 0.31311 0.71764 0.0
H303 H 0.19427 0.36582 0.7211 0.0
H304 H 0.18196 0.35323 0.76266 0.0
H305 H 0.12063 0.35589 0.72447 0.0
H306 H 0.10318 0.376 0.75649 0.0
H307 H 0.2303 0.31277 0.6793 0.0
H308 H 0.21202 0.38846 0.68771 0.0
H309 H 0.16454 0.3734 0.79465 0.0
H310 H 0.26589 0.33018 0.66026 0.0
H311 H 0.24816 0.40586 0.66992 0.0
Zn312 Zn 0.02265 0.98776 0.51553 0.0
Zn313 Zn 0.98018 0.00733 0.49126 0.0
C314 C 0.043 0.03655 0.5265 0.0
O315 O 0.05754 0.0313 0.51041 0.0
C316 C 0.95854 0.96056 0.47781 0.0
O317 O 0.94311 0.96722 0.49231 0.0
O318 O 0.04864 0.96957 0.52687 0.0
O319 O 0.99402 0.96691 0.5267 0.0
O320 O 0.97381 0.9994 0.52531 0.0
C321 C 0.04817 0.95958 0.54732 0.0
O322 O 0.03002 0.96031 0.56064 0.0
O323 O 0.02584 0.02081 0.53169 0.0
C324 C 0.95619 0.03822 0.46005 0.0
O325 O 0.97513 0.03908 0.44768 0.0
O326 O 0.95462 0.02622 0.47968 0.0
O327 O 0.0092 0.02791 0.48072 0.0
O328 O 0.02822 0.99457 0.48126 0.0
O329 O 0.97705 0.97469 0.47466 0.0
C330 C 0.97735 0.97778 0.53403 0.0
C331 C 0.0253 0.01649 0.47287 0.0
Zn332 Zn 0.51773 0.98395 0.99388 0.0
Zn333 Zn 0.48503 0.01613 0.01517 0.0
C334 C 0.48483 0.95537 0.96813 0.0
O335 O 0.49132 0.9369 0.98155 0.0
C336 C 0.51963 0.04294 0.04054 0.0
O337 O 0.5132 0.06214 0.02801 0.0
O338 O 0.54283 0.96465 0.98269 0.0
O339 O 0.52997 0.02065 0.99022 0.0
O340 O 0.49633 0.03333 0.98458 0.0
C341 C 0.55011 0.97081 0.96215 0.0
O342 O 0.54128 0.9891 0.95049 0.0
O343 O 0.49343 0.97789 0.97056 0.0
C344 C 0.45708 0.03608 0.04899 0.0
O345 O 0.4704 0.02453 0.06288 0.0
O346 O 0.45991 0.03513 0.02723 0.0
O347 O 0.47253 0.97945 0.01716 0.0
O348 O 0.50608 0.96789 0.0249 0.0
O349 O 0.51027 0.02082 0.03774 0.0
C350 C 0.51768 0.03647 0.98108 0.0
C351 C 0.48465 0.96395 0.02708 0.0
Zn352 Zn 0.51243 0.48006 0.48552 0.0
Zn353 Zn 0.49165 0.5212 0.51616 0.0
C354 C 0.54024 0.51308 0.45355 0.0
O355 O 0.5249 0.50401 0.4394 0.0
C356 C 0.46354 0.49266 0.55001 0.0
O357 O 0.47717 0.5066 0.56284 0.0
O358 O 0.52014 0.44858 0.47066 0.0
O359 O 0.5142 0.4721 0.51983 0.0
O360 O 0.52117 0.51163 0.52904 0.0
C361 C 0.53903 0.4407 0.47574 0.0
O362 O 0.55188 0.45312 0.49035 0.0
O363 O 0.53808 0.50641 0.47498 0.0
C364 C 0.46544 0.56065 0.52641 0.0
O365 O 0.45233 0.5481 0.51209 0.0
O366 O 0.48447 0.55289 0.53108 0.0
O367 O 0.4883 0.52888 0.4819 0.0
O368 O 0.48328 0.48946 0.47181 0.0
O369 O 0.46666 0.49466 0.52814 0.0
C370 C 0.52344 0.48829 0.53293 0.0
C371 C 0.47988 0.51256 0.46846 0.0
Zn372 Zn 0.99128 0.52144 0.98061 0.0
Zn373 Zn 0.01153 0.48459 0.01673 0.0
C374 C 0.96438 0.48599 0.95526 0.0
O375 O 0.98008 0.49418 0.93951 0.0
C376 C 0.03637 0.51595 0.04626 0.0
O377 O 0.02158 0.50248 0.06035 0.0
O378 O 0.98202 0.55011 0.96036 0.0
O379 O 0.98949 0.53211 0.01355 0.0
O380 O 0.98091 0.49334 0.02819 0.0
C381 C 0.98218 0.57297 0.96569 0.0
O382 O 0.99031 0.57971 0.98558 0.0
O383 O 0.96608 0.49388 0.97558 0.0
C384 C 0.04175 0.45272 0.03389 0.0
O385 O 0.05407 0.46805 0.01893 0.0
O386 O 0.02072 0.45509 0.03629 0.0
O387 O 0.01629 0.47403 0.98414 0.0
O388 O 0.02064 0.51203 0.96683 0.0
O389 O 0.035 0.51319 0.02461 0.0
C390 C 0.97949 0.51696 0.02912 0.0
C391 C 0.02439 0.48892 0.96747 0.0
C392 C 0.1645 0.11101 0.3242 0.0
C393 C 0.15775 0.13394 0.31496 0.0
C394 C 0.15289 0.09843 0.34345 0.0
C395 C 0.1127 0.10708 0.39167 0.0
H396 H 0.0942 0.03567 0.38648 0.0
C397 C 0.03928 0.05419 0.44689 0.0
C398 C 0.04184 0.02951 0.45562 0.0
C399 C 0.05526 0.06677 0.43111 0.0
C400 C 0.0995 0.05551 0.38838 0.0
H401 H 0.13446 0.16238 0.31926 0.0
H402 H 0.11408 0.14038 0.35259 0.0
H403 H 0.11989 0.05827 0.35719 0.0
H404 H 0.06319 0.9987 0.45464 0.0
H405 H 0.0911 0.02076 0.42717 0.0
H406 H 0.09198 0.10442 0.42264 0.0
C407 C 0.12833 0.13209 0.3451 0.0
C408 C 0.11425 0.06844 0.37162 0.0
C409 C 0.13984 0.14457 0.32586 0.0
C410 C 0.06066 0.01766 0.44816 0.0
C411 C 0.07663 0.03026 0.43237 0.0
C412 C 0.09796 0.09415 0.40843 0.0
C413 C 0.13446 0.10868 0.35386 0.0
C414 C 0.12072 0.09446 0.3729 0.0
C415 C 0.07413 0.05497 0.42372 0.0
C416 C 0.09092 0.06831 0.40676 0.0
H417 H 0.1782 0.10235 0.31608 0.0
H418 H 0.15813 0.08053 0.34998 0.0
H419 H 0.11766 0.12704 0.3933 0.0
H420 H 0.02497 0.06384 0.45225 0.0
H421 H 0.05266 0.08566 0.42448 0.0
C422 C 0.39098 0.91394 0.78746 0.0
C423 C 0.37605 0.89174 0.78744 0.0
C424 C 0.4004 0.92187 0.80806 0.0
C425 C 0.41662 0.89708 0.86426 0.0
H426 H 0.41861 0.96651 0.88202 0.0
C427 C 0.4558 0.92633 0.9497 0.0
C428 C 0.46909 0.9497 0.94935 0.0
C429 C 0.44222 0.92008 0.9311 0.0
C430 C 0.41843 0.9471 0.8772 0.0
H431 H 0.35921 0.86045 0.80885 0.0
H432 H 0.37591 0.87415 0.84484 0.0
H433 H 0.39943 0.95417 0.84692 0.0
H434 H 0.47824 0.9851 0.9295 0.0
H435 H 0.4552 0.9739 0.89669 0.0
H436 H 0.43629 0.89001 0.89381 0.0
C437 C 0.3802 0.88546 0.82895 0.0
C438 C 0.40737 0.94006 0.85715 0.0
C439 C 0.37055 0.87773 0.80842 0.0
C440 C 0.46808 0.96698 0.9303 0.0
C441 C 0.45476 0.96058 0.91153 0.0
C442 C 0.42792 0.90416 0.8841 0.0
C443 C 0.39531 0.90752 0.82894 0.0
C444 C 0.40641 0.91499 0.85049 0.0
C445 C 0.44189 0.93689 0.91153 0.0
C446 C 0.42904 0.92928 0.89084 0.0
H447 H 0.39538 0.92515 0.77154 0.0
H448 H 0.41212 0.93885 0.80758 0.0
H449 H 0.4164 0.87769 0.85933 0.0
H450 H 0.45604 0.91276 0.96429 0.0
H451 H 0.43213 0.90193 0.932 0.0
C452 C 0.60474 0.39524 0.70675 0.0
C453 C 0.62708 0.40429 0.71146 0.0
C454 C 0.59384 0.40527 0.68778 0.0
C455 C 0.59737 0.45997 0.64425 0.0
H456 H 0.55617 0.41413 0.61171 0.0
C457 C 0.54098 0.49541 0.5714 0.0
C458 C 0.53631 0.47972 0.55299 0.0
C459 C 0.55247 0.48681 0.59065 0.0
C460 C 0.56782 0.42722 0.62035 0.0
H461 H 0.65555 0.43105 0.70004 0.0
H462 H 0.63682 0.44815 0.66642 0.0
H463 H 0.57575 0.39813 0.64473 0.0
H464 H 0.54064 0.44295 0.54002 0.0
H465 H 0.56132 0.42832 0.57298 0.0
H466 H 0.59011 0.48885 0.61916 0.0
C467 C 0.62745 0.43368 0.67769 0.0
C468 C 0.57881 0.41808 0.63964 0.0
C469 C 0.63825 0.42383 0.6969 0.0
C470 C 0.54377 0.45544 0.55402 0.0
C471 C 0.55552 0.44698 0.57306 0.0
C472 C 0.58654 0.46908 0.62475 0.0
C473 C 0.60511 0.42443 0.67278 0.0
C474 C 0.59366 0.43432 0.65198 0.0
C475 C 0.55982 0.4624 0.5918 0.0
C476 C 0.57157 0.45283 0.61254 0.0
H477 H 0.59558 0.38048 0.7179 0.0
H478 H 0.57648 0.39806 0.685 0.0
H479 H 0.60846 0.47317 0.6534 0.0
H480 H 0.53533 0.51417 0.57119 0.0
H481 H 0.55514 0.49913 0.60482 0.0
C482 C 0.90042 0.62548 0.18955 0.0
C483 C 0.88242 0.61204 0.20254 0.0
C484 C 0.91042 0.6147 0.17085 0.0
C485 C 0.90134 0.56209 0.13082 0.0
H486 H 0.96589 0.57763 0.11867 0.0
C487 C 0.95327 0.51108 0.06421 0.0
C488 C 0.96779 0.52706 0.04902 0.0
C489 C 0.94243 0.52084 0.08304 0.0
C490 C 0.94782 0.57322 0.12178 0.0
H491 H 0.86084 0.5767 0.20625 0.0
H492 H 0.87868 0.55749 0.17406 0.0
H493 H 0.94791 0.59548 0.15142 0.0
H494 H 0.98239 0.56581 0.0418 0.0
H495 H 0.96377 0.58265 0.07478 0.0
H496 H 0.90157 0.5393 0.10134 0.0
C497 C 0.88477 0.57664 0.17787 0.0
C498 C 0.93744 0.58357 0.1405 0.0
C499 C 0.87456 0.58759 0.1964 0.0
C500 C 0.97128 0.55296 0.05312 0.0
C501 C 0.96072 0.56262 0.07209 0.0
C502 C 0.91181 0.55147 0.11226 0.0
C503 C 0.90289 0.59003 0.16484 0.0
C504 C 0.914 0.57837 0.14518 0.0
C505 C 0.94618 0.54668 0.08725 0.0
C506 C 0.93512 0.55712 0.10743 0.0
H507 H 0.90661 0.64451 0.19369 0.0
H508 H 0.92394 0.6259 0.16098 0.0
H509 H 0.88323 0.5579 0.13358 0.0
H510 H 0.95021 0.49105 0.06152 0.0
H511 H 0.93139 0.50811 0.09453 0.0
C512 C 0.31938 0.14549 0.15507 0.0
C513 C 0.29709 0.14294 0.14719 0.0
C514 C 0.33666 0.13491 0.14335 0.0
C515 C 0.3461 0.08726 0.1002 0.0
H516 H 0.40746 0.12013 0.0988 0.0
C517 C 0.42019 0.0549 0.0457 0.0
C518 C 0.43906 0.04993 0.05872 0.0
C519 C 0.4028 0.06722 0.0554 0.0
C520 C 0.39037 0.1108 0.09909 0.0
H521 H 0.27567 0.12708 0.12062 0.0
H522 H 0.30594 0.11005 0.0995 0.0
H523 H 0.37709 0.14015 0.11739 0.0
H524 H 0.4549 0.05452 0.0918 0.0
H525 H 0.42475 0.07663 0.10849 0.0
H526 H 0.35955 0.05824 0.08131 0.0
C527 C 0.31 0.11961 0.11514 0.0
C528 C 0.37298 0.12212 0.10988 0.0
C529 C 0.29265 0.12981 0.12708 0.0
C530 C 0.44049 0.05799 0.0814 0.0
C531 C 0.42334 0.07074 0.09091 0.0
C532 C 0.36344 0.0762 0.08904 0.0
C533 C 0.33223 0.12186 0.12319 0.0
C534 C 0.35063 0.11035 0.11083 0.0
C535 C 0.40427 0.07525 0.07807 0.0
C536 C 0.38574 0.08774 0.08864 0.0
H537 H 0.32359 0.15579 0.17026 0.0
H538 H 0.35345 0.13673 0.15034 0.0
H539 H 0.32925 0.07735 0.10092 0.0
H540 H 0.41865 0.04884 0.02819 0.0
H541 H 0.38824 0.07059 0.04518 0.0
C542 C 0.23025 0.8991 0.61465 0.0
C543 C 0.22916 0.88309 0.63485 0.0
C544 C 0.21053 0.90671 0.60501 0.0
C545 C 0.14826 0.89029 0.60525 0.0
H546 H 0.14864 0.95852 0.57801 0.0
C547 C 0.06728 0.93536 0.57811 0.0
C548 C 0.0684 0.9489 0.55653 0.0
C549 C 0.0867 0.9264 0.58733 0.0
C550 C 0.14835 0.93934 0.58538 0.0
H551 H 0.20628 0.86246 0.66065 0.0
H552 H 0.17199 0.87656 0.64438 0.0
H553 H 0.18284 0.94516 0.59523 0.0
H554 H 0.09071 0.96336 0.52756 0.0
H555 H 0.12461 0.94787 0.54378 0.0
H556 H 0.11352 0.8848 0.59575 0.0
C557 C 0.18809 0.88284 0.63571 0.0
C558 C 0.16796 0.93164 0.5952 0.0
C559 C 0.20782 0.87504 0.64525 0.0
C560 C 0.08927 0.95299 0.54423 0.0
C561 C 0.10871 0.94427 0.55356 0.0
C562 C 0.12857 0.89811 0.59562 0.0
C563 C 0.18919 0.89873 0.61543 0.0
C564 C 0.1682 0.90698 0.60519 0.0
C565 C 0.10765 0.93105 0.57527 0.0
C566 C 0.12847 0.92267 0.58551 0.0
H567 H 0.24639 0.90596 0.60633 0.0
H568 H 0.21203 0.91869 0.58922 0.0
H569 H 0.14791 0.87105 0.61244 0.0
H570 H 0.05145 0.93188 0.588 0.0
H571 H 0.08545 0.9164 0.60417 0.0
C572 C 0.79112 0.4202 0.85909 0.0
C573 C 0.78048 0.39551 0.86358 0.0
C574 C 0.81054 0.42861 0.87082 0.0
C575 C 0.85883 0.40598 0.90085 0.0
H576 H 0.8642 0.47186 0.92703 0.0
C577 C 0.94351 0.45854 0.92747 0.0
C578 C 0.94357 0.47095 0.9483 0.0
C579 C 0.92333 0.4471 0.91915 0.0
C580 C 0.86286 0.45333 0.91997 0.0
H581 H 0.78188 0.36063 0.88456 0.0
H582 H 0.81607 0.37512 0.90437 0.0
H583 H 0.82933 0.45697 0.90813 0.0
H584 H 0.92259 0.48041 0.97714 0.0
H585 H 0.8872 0.46067 0.96239 0.0
H586 H 0.89255 0.40257 0.91227 0.0
C587 C 0.80937 0.38786 0.89166 0.0
C588 C 0.84301 0.44493 0.90897 0.0
C589 C 0.78982 0.37954 0.88017 0.0
C590 C 0.92311 0.47091 0.96107 0.0
C591 C 0.90284 0.4598 0.95256 0.0
C592 C 0.87881 0.41454 0.91155 0.0
C593 C 0.81993 0.41248 0.88713 0.0
C594 C 0.84082 0.42121 0.89922 0.0
C595 C 0.9027 0.44813 0.93133 0.0
C596 C 0.88106 0.43834 0.92116 0.0
H597 H 0.7847 0.43294 0.84622 0.0
H598 H 0.81848 0.44761 0.86679 0.0
H599 H 0.85767 0.38768 0.89337 0.0
H600 H 0.95901 0.45823 0.91725 0.0
H601 H 0.92373 0.43836 0.90269 0.0
C602 C 0.72758 0.60322 0.37802 0.0
C603 C 0.72766 0.61552 0.3559 0.0
C604 C 0.70724 0.59361 0.38938 0.0
C605 C 0.64491 0.59769 0.38862 0.0
H606 H 0.64278 0.5349 0.42616 0.0
C607 C 0.56175 0.53884 0.42126 0.0
C608 C 0.56091 0.5285 0.44415 0.0
C609 C 0.58186 0.55136 0.41154 0.0
C610 C 0.64318 0.55261 0.41596 0.0
H611 H 0.70607 0.62734 0.32849 0.0
H612 H 0.67076 0.60962 0.34779 0.0
H613 H 0.67818 0.55216 0.40663 0.0
H614 H 0.58039 0.52375 0.47499 0.0
H615 H 0.61562 0.5454 0.45788 0.0
H616 H 0.6096 0.59755 0.39749 0.0
C617 C 0.68643 0.60789 0.35664 0.0
C618 C 0.6635 0.56258 0.40477 0.0
C619 C 0.70678 0.61772 0.34537 0.0
C620 C 0.58047 0.53154 0.45733 0.0
C621 C 0.60067 0.54378 0.44749 0.0
C622 C 0.62451 0.58755 0.39961 0.0
C623 C 0.68636 0.59576 0.37885 0.0
C624 C 0.66467 0.58526 0.39091 0.0
C625 C 0.60165 0.55353 0.4244 0.0
C626 C 0.62343 0.56489 0.41339 0.0
H627 H 0.74328 0.60079 0.3866 0.0
H628 H 0.70793 0.58472 0.40656 0.0
H629 H 0.64519 0.61542 0.37848 0.0
H630 H 0.54696 0.53687 0.41067 0.0
H631 H 0.58213 0.55854 0.39367 0.0
C632 C 0.15639 0.31663 0.14839 0.0
C633 C 0.14715 0.2913 0.15217 0.0
C634 C 0.14449 0.33413 0.13618 0.0
C635 C 0.08815 0.34861 0.12068 0.0
H636 H 0.11802 0.38608 0.06737 0.0
C637 C 0.04053 0.41237 0.05853 0.0
C638 C 0.05278 0.43429 0.04846 0.0
C639 C 0.05158 0.39472 0.07166 0.0
C640 C 0.1095 0.37616 0.08244 0.0
H641 H 0.11809 0.26465 0.14575 0.0
H642 H 0.09707 0.29554 0.1253 0.0
H643 H 0.13838 0.35638 0.09007 0.0
H644 H 0.08587 0.45561 0.045 0.0
H645 H 0.10486 0.42567 0.06857 0.0
H646 H 0.05949 0.36884 0.11362 0.0
C647 C 0.11354 0.30167 0.13183 0.0
C648 C 0.12118 0.35906 0.09534 0.0
C649 C 0.12558 0.28406 0.14367 0.0
C650 C 0.07606 0.43864 0.05223 0.0
C651 C 0.08699 0.42134 0.06566 0.0
C652 C 0.07656 0.36608 0.10803 0.0
C653 C 0.12297 0.32678 0.12785 0.0
C654 C 0.1106 0.34513 0.11452 0.0
C655 C 0.07501 0.39894 0.07527 0.0
C656 C 0.0871 0.3801 0.08873 0.0
H657 H 0.17273 0.32305 0.15501 0.0
H658 H 0.152 0.3535 0.13343 0.0
H659 H 0.07972 0.33811 0.13553 0.0
H660 H 0.02255 0.40858 0.05583 0.0
H661 H 0.04183 0.37758 0.07855 0.0
C662 C 0.59903 0.22267 0.8599 0.0
C663 C 0.6172 0.23657 0.86999 0.0
C664 C 0.58796 0.20103 0.87153 0.0
C665 C 0.59522 0.15395 0.92014 0.0
H666 H 0.53085 0.13681 0.91326 0.0
C667 C 0.55053 0.05928 0.95829 0.0
C668 C 0.52836 0.05899 0.9674 0.0
C669 C 0.56093 0.08069 0.9458 0.0
C670 C 0.54879 0.14142 0.91562 0.0
H671 H 0.63763 0.23926 0.90038 0.0
H672 H 0.61789 0.20213 0.92108 0.0
H673 H 0.54948 0.17508 0.89364 0.0
H674 H 0.49968 0.08094 0.97065 0.0
H675 H 0.51806 0.11865 0.94962 0.0
H676 H 0.59438 0.12102 0.94299 0.0
C677 C 0.61259 0.20728 0.90386 0.0
C678 C 0.55958 0.16324 0.90403 0.0
C679 C 0.62386 0.22867 0.89207 0.0
C680 C 0.51674 0.08054 0.96369 0.0
C681 C 0.52727 0.10212 0.95149 0.0
C682 C 0.58439 0.13234 0.93196 0.0
C683 C 0.59459 0.19301 0.89369 0.0
C684 C 0.58297 0.16979 0.90608 0.0
C685 C 0.54955 0.10253 0.94243 0.0
C686 C 0.56103 0.12569 0.92982 0.0
H687 H 0.5937 0.22824 0.84278 0.0
H688 H 0.57446 0.19036 0.86293 0.0
H689 H 0.6133 0.15805 0.92191 0.0
H690 H 0.55985 0.04287 0.96067 0.0
H691 H 0.57787 0.07999 0.93868 0.0
C692 C 0.88562 0.80213 0.34714 0.0
C693 C 0.89001 0.7769 0.35182 0.0
C694 C 0.8955 0.82146 0.36019 0.0
C695 C 0.91913 0.83207 0.41731 0.0
H696 H 0.94169 0.8979 0.38937 0.0
C697 C 0.93422 0.92105 0.46977 0.0
C698 C 0.95358 0.93792 0.46426 0.0
C699 C 0.92853 0.90055 0.4562 0.0
C700 C 0.93567 0.87954 0.39741 0.0
H701 H 0.90837 0.75226 0.37382 0.0
H702 H 0.92572 0.786 0.39646 0.0
H703 H 0.92826 0.86395 0.36474 0.0
H704 H 0.98239 0.94622 0.44036 0.0
H705 H 0.97236 0.91037 0.41655 0.0
H706 H 0.92636 0.84767 0.44996 0.0
C707 C 0.91456 0.79081 0.38275 0.0
C708 C 0.92776 0.86019 0.38332 0.0
C709 C 0.9048 0.77152 0.36961 0.0
C710 C 0.96737 0.93356 0.44508 0.0
C711 C 0.96155 0.91314 0.43135 0.0
C712 C 0.92688 0.85146 0.43139 0.0
C713 C 0.90987 0.81598 0.37833 0.0
C714 C 0.91925 0.83628 0.39313 0.0
C715 C 0.94197 0.89652 0.43668 0.0
C716 C 0.93506 0.87548 0.42162 0.0
H717 H 0.87446 0.80693 0.33342 0.0
H718 H 0.8914 0.84062 0.35646 0.0
H719 H 0.9125 0.81394 0.42542 0.0
H720 H 0.92324 0.92383 0.48444 0.0
H721 H 0.91321 0.88826 0.46064 0.0
C722 C 0.37396 0.73234 0.6097 0.0
C723 C 0.38447 0.74376 0.62852 0.0
C724 C 0.3836 0.71303 0.59881 0.0
C725 C 0.43713 0.68483 0.58986 0.0
H726 H 0.39729 0.62633 0.57433 0.0
C727 C 0.47002 0.59441 0.55511 0.0
C728 C 0.45757 0.58269 0.53761 0.0
C729 C 0.46187 0.6145 0.56632 0.0
C730 C 0.40862 0.64265 0.57829 0.0
H731 H 0.41351 0.74391 0.65055 0.0
H732 H 0.43044 0.71019 0.63138 0.0
H733 H 0.38171 0.66056 0.59365 0.0
H734 H 0.42712 0.58331 0.51771 0.0
H735 H 0.41314 0.61848 0.53694 0.0
H736 H 0.46404 0.66691 0.57434 0.0
C737 C 0.41479 0.71638 0.62498 0.0
C738 C 0.39969 0.66226 0.58939 0.0
C739 C 0.4051 0.73569 0.63594 0.0
C740 C 0.43705 0.59178 0.53124 0.0
C741 C 0.42896 0.61186 0.54238 0.0
C742 C 0.44609 0.6652 0.57867 0.0
C743 C 0.40402 0.7047 0.60642 0.0
C744 C 0.4138 0.68365 0.59516 0.0
C745 C 0.44112 0.62329 0.56022 0.0
C746 C 0.43189 0.64397 0.57261 0.0
H747 H 0.35831 0.73847 0.60323 0.0
H748 H 0.37511 0.70475 0.58427 0.0
H749 H 0.4484 0.70119 0.59391 0.0
H750 H 0.48588 0.5878 0.56045 0.0
H751 H 0.47156 0.62275 0.58013 0.0
C752 C 0.85939 0.88369 0.69844 0.0
C753 C 0.84352 0.86329 0.69389 0.0
C754 C 0.87301 0.89625 0.6806 0.0
C755 C 0.89573 0.88807 0.62202 0.0
H756 H 0.90903 0.96099 0.62096 0.0
C757 C 0.94177 0.97548 0.55853 0.0
C758 C 0.96159 0.96488 0.55206 0.0
C759 C 0.92674 0.9631 0.57534 0.0
C760 C 0.90533 0.94065 0.62088 0.0
H761 H 0.82927 0.84027 0.66701 0.0
H762 H 0.85303 0.86235 0.63574 0.0
H763 H 0.88326 0.93955 0.65075 0.0
H764 H 0.98123 0.93301 0.55825 0.0
H765 H 0.95518 0.91162 0.58782 0.0
H766 H 0.91752 0.88923 0.59191 0.0
C767 C 0.85513 0.86838 0.65319 0.0
C768 C 0.89076 0.92833 0.6381 0.0
C769 C 0.84152 0.85576 0.67107 0.0
C770 C 0.96608 0.94165 0.56279 0.0
C771 C 0.95107 0.92931 0.57963 0.0
C772 C 0.91029 0.9004 0.60477 0.0
C773 C 0.87107 0.88873 0.65778 0.0
C774 C 0.8859 0.90188 0.63896 0.0
C775 C 0.93122 0.93987 0.58608 0.0
C776 C 0.91535 0.92681 0.60408 0.0
H777 H 0.86163 0.88963 0.71591 0.0
H778 H 0.8854 0.91154 0.68479 0.0
H779 H 0.8925 0.86765 0.62233 0.0
H780 H 0.93774 0.99328 0.5505 0.0
H781 H 0.91145 0.97158 0.5797 0.0
C782 C 0.6345 0.12197 0.19646 0.0
C783 C 0.63233 0.10778 0.21772 0.0
C784 C 0.62468 0.11236 0.17668 0.0
C785 C 0.57949 0.06496 0.15902 0.0
H786 H 0.60711 0.08144 0.09799 0.0
C787 C 0.5384 0.02842 0.0764 0.0
C788 C 0.53601 0.04737 0.05903 0.0
C789 C 0.55232 0.03345 0.09505 0.0
C790 C 0.59922 0.07671 0.11494 0.0
H791 H 0.61841 0.07203 0.23465 0.0
H792 H 0.60206 0.0549 0.19998 0.0
H793 H 0.62764 0.09414 0.13217 0.0
H794 H 0.54708 0.08604 0.04702 0.0
H795 H 0.57155 0.0947 0.0795 0.0
H796 H 0.55109 0.04754 0.14171 0.0
C797 C 0.61095 0.07372 0.1987 0.0
C798 C 0.61091 0.08407 0.13453 0.0
C799 C 0.62061 0.08343 0.21855 0.0
C800 C 0.54851 0.07109 0.06019 0.0
C801 C 0.56262 0.07601 0.0787 0.0
C802 C 0.56793 0.05739 0.13946 0.0
C803 C 0.61261 0.0882 0.17758 0.0
C804 C 0.60103 0.07865 0.1568 0.0
C805 C 0.56433 0.0574 0.09653 0.0
C806 C 0.57753 0.06353 0.11722 0.0
H807 H 0.64374 0.14062 0.19506 0.0
H808 H 0.62611 0.1242 0.16081 0.0
H809 H 0.57116 0.06082 0.17583 0.0
H810 H 0.529 0.00994 0.07597 0.0
H811 H 0.5535 0.0187 0.10848 0.0
C812 C 0.38429 0.56933 0.28961 0.0
C813 C 0.37243 0.59083 0.29077 0.0
C814 C 0.39478 0.5598 0.3091 0.0
C815 C 0.39721 0.56373 0.37334 0.0
H816 H 0.45448 0.53574 0.36434 0.0
C817 C 0.45798 0.54432 0.44764 0.0
C818 C 0.46672 0.52067 0.44844 0.0
C819 C 0.44567 0.55207 0.42871 0.0
C820 C 0.4384 0.54332 0.3671 0.0
H821 H 0.36231 0.61925 0.31323 0.0
H822 H 0.38116 0.6032 0.34707 0.0
H823 H 0.43461 0.55094 0.3309 0.0
H824 H 0.46952 0.48671 0.42986 0.0
H825 H 0.44837 0.50053 0.39658 0.0
H826 H 0.40158 0.55678 0.40971 0.0
C827 C 0.38188 0.59316 0.33133 0.0
C828 C 0.4269 0.55194 0.34792 0.0
C829 C 0.37111 0.60247 0.3119 0.0
C830 C 0.46295 0.505 0.42982 0.0
C831 C 0.45095 0.51295 0.41072 0.0
C832 C 0.40889 0.55543 0.39254 0.0
C833 C 0.39399 0.57175 0.3302 0.0
C834 C 0.40611 0.56226 0.35073 0.0
C835 C 0.44215 0.53655 0.40999 0.0
C836 C 0.4296 0.54511 0.38962 0.0
H837 H 0.38535 0.5598 0.2736 0.0
H838 H 0.40345 0.54296 0.30759 0.0
H839 H 0.38108 0.57108 0.37628 0.0
H840 H 0.46056 0.55683 0.46171 0.0
H841 H 0.43924 0.57044 0.42854 0.0
C842 C 0.12356 0.37908 0.82041 0.0
C843 C 0.12195 0.3886 0.79748 0.0
C844 C 0.11353 0.39058 0.83868 0.0
C845 C 0.07055 0.43506 0.85126 0.0
H846 H 0.09944 0.43701 0.91054 0.0
C847 C 0.03973 0.49212 0.92647 0.0
C848 C 0.037 0.47884 0.94817 0.0
C849 C 0.05066 0.48186 0.908 0.0
C850 C 0.09114 0.4365 0.89411 0.0
H851 H 0.10896 0.41792 0.77574 0.0
H852 H 0.092 0.43846 0.80757 0.0
H853 H 0.11747 0.41795 0.87844 0.0
H854 H 0.04407 0.44468 0.96763 0.0
H855 H 0.06347 0.42703 0.9355 0.0
H856 H 0.04443 0.4541 0.86698 0.0
C857 C 0.10043 0.42167 0.81151 0.0
C858 C 0.10139 0.42545 0.8757 0.0
C859 C 0.11023 0.40997 0.79322 0.0
C860 C 0.04584 0.45536 0.95112 0.0
C861 C 0.05706 0.4453 0.93276 0.0
C862 C 0.06045 0.44639 0.86959 0.0
C863 C 0.10187 0.4121 0.83451 0.0
C864 C 0.09117 0.4244 0.85403 0.0
C865 C 0.0594 0.45831 0.91094 0.0
C866 C 0.07056 0.44708 0.89125 0.0
H867 H 0.13226 0.36244 0.82419 0.0
H868 H 0.11465 0.3823 0.85604 0.0
H869 H 0.0619 0.43425 0.83503 0.0
H870 H 0.03304 0.51021 0.92362 0.0
H871 H 0.05237 0.49239 0.89142 0.0
C872 C 0.68591 0.87348 0.84327 0.0
C873 C 0.6951 0.85207 0.85285 0.0
C874 C 0.67031 0.88554 0.85597 0.0
C875 C 0.62999 0.87691 0.90585 0.0
H876 H 0.6376 0.95028 0.90336 0.0
C877 C 0.57588 0.93613 0.96251 0.0
C878 C 0.56765 0.95719 0.9511 0.0
C879 C 0.59198 0.92295 0.95158 0.0
C880 C 0.63514 0.9298 0.9041 0.0
H881 H 0.69482 0.82623 0.88313 0.0
H882 H 0.66743 0.84733 0.90537 0.0
H883 H 0.66414 0.92746 0.88199 0.0
H884 H 0.56998 0.98103 0.91936 0.0
H885 H 0.59788 0.95802 0.90034 0.0
H886 H 0.60086 0.87934 0.92789 0.0
C887 C 0.67221 0.85464 0.88794 0.0
C888 C 0.65032 0.91673 0.89183 0.0
C889 C 0.68786 0.84255 0.8752 0.0
C890 C 0.57599 0.96493 0.92867 0.0
C891 C 0.59209 0.95182 0.9178 0.0
C892 C 0.61477 0.89002 0.91815 0.0
C893 C 0.66352 0.87648 0.87856 0.0
C894 C 0.64777 0.89016 0.89234 0.0
C895 C 0.60023 0.93066 0.92909 0.0
C896 C 0.61705 0.91661 0.91718 0.0
H897 H 0.69084 0.88097 0.82592 0.0
H898 H 0.66354 0.90199 0.84808 0.0
H899 H 0.62749 0.85644 0.90643 0.0
H900 H 0.56978 0.92972 0.97982 0.0
H901 H 0.5981 0.90684 0.96079 0.0
C902 C 0.80073 0.13141 0.36142 0.0
C903 C 0.77918 0.12076 0.36947 0.0
C904 C 0.82022 0.12347 0.37136 0.0
C905 C 0.84076 0.09442 0.4245 0.0
H906 H 0.88977 0.07643 0.38511 0.0
C907 C 0.91483 0.04387 0.46105 0.0
C908 C 0.93645 0.04975 0.45062 0.0
C909 C 0.89596 0.05364 0.45142 0.0
C910 C 0.87643 0.08178 0.39639 0.0
H911 H 0.76106 0.09377 0.39439 0.0
H912 H 0.79517 0.08 0.41188 0.0
H913 H 0.8563 0.09156 0.3677 0.0
H914 H 0.95538 0.07107 0.42227 0.0
H915 H 0.9226 0.08876 0.40585 0.0
H916 H 0.8609 0.08506 0.4532 0.0
C917 C 0.79695 0.09444 0.39786 0.0
C918 C 0.85723 0.09035 0.38638 0.0
C919 C 0.77748 0.10215 0.38774 0.0
C920 C 0.9389 0.06605 0.43063 0.0
C921 C 0.92007 0.07604 0.42113 0.0
C922 C 0.86006 0.08611 0.43452 0.0
C923 C 0.81851 0.10498 0.38973 0.0
C924 C 0.83914 0.09657 0.40034 0.0
C925 C 0.89831 0.06976 0.43126 0.0
C926 C 0.87809 0.0795 0.4206 0.0
H927 H 0.8025 0.14568 0.34727 0.0
H928 H 0.83664 0.13199 0.36486 0.0
H929 H 0.82717 0.09941 0.43566 0.0
H930 H 0.91235 0.03122 0.47638 0.0
H931 H 0.87946 0.04804 0.45951 0.0
C932 C 0.21618 0.61542 0.11658 0.0
C933 C 0.22004 0.60659 0.13938 0.0
C934 C 0.19589 0.60807 0.10591 0.0
C935 C 0.13635 0.5849 0.11787 0.0
H936 H 0.1387 0.55815 0.05696 0.0
C937 C 0.05872 0.53009 0.08001 0.0
C938 C 0.0559 0.53103 0.05596 0.0
C939 C 0.07812 0.54195 0.08944 0.0
C940 C 0.13763 0.56603 0.07376 0.0
H941 H 0.20518 0.58305 0.16872 0.0
H942 H 0.16953 0.57091 0.15028 0.0
H943 H 0.17372 0.57367 0.07493 0.0
H944 H 0.07097 0.54604 0.02299 0.0
H945 H 0.10465 0.56753 0.03952 0.0
H946 H 0.10035 0.57771 0.11673 0.0
C947 C 0.18236 0.58352 0.14073 0.0
C948 C 0.15775 0.5748 0.0841 0.0
C949 C 0.20279 0.59057 0.15132 0.0
C950 C 0.07265 0.5449 0.04159 0.0
C951 C 0.09206 0.55703 0.05108 0.0
C952 C 0.11621 0.57647 0.10742 0.0
C953 C 0.17877 0.59205 0.11786 0.0
C954 C 0.15734 0.58396 0.10641 0.0
C955 C 0.09522 0.55537 0.07514 0.0
C956 C 0.11656 0.5665 0.08537 0.0
H957 H 0.22875 0.62825 0.10696 0.0
H958 H 0.19347 0.61519 0.08837 0.0
H959 H 0.1355 0.59224 0.13494 0.0
H960 H 0.04624 0.51948 0.09164 0.0
H961 H 0.08001 0.53977 0.10797 0.0
C962 C 0.28188 0.40179 0.63599 0.0
C963 C 0.28144 0.38018 0.65115 0.0
C964 C 0.30197 0.41185 0.6244 0.0
C965 C 0.36438 0.4121 0.62666 0.0
H966 H 0.36257 0.44218 0.56435 0.0
C967 C 0.43949 0.47695 0.58487 0.0
C968 C 0.44394 0.47654 0.56095 0.0
C969 C 0.42033 0.46312 0.59525 0.0
C970 C 0.36348 0.43357 0.58163 0.0
H971 H 0.30203 0.35229 0.66598 0.0
H972 H 0.33687 0.36935 0.64525 0.0
H973 H 0.32796 0.42167 0.5832 0.0
H974 H 0.43198 0.46066 0.52924 0.0
H975 H 0.39869 0.43602 0.54744 0.0
H976 H 0.39998 0.42352 0.62492 0.0
C977 C 0.32172 0.37879 0.64259 0.0
C978 C 0.34352 0.42212 0.59259 0.0
C979 C 0.30164 0.3688 0.65429 0.0
C980 C 0.429 0.46147 0.5477 0.0
C981 C 0.40983 0.44748 0.55813 0.0
C982 C 0.38436 0.42343 0.61565 0.0
C983 C 0.32217 0.40048 0.62751 0.0
C984 C 0.34364 0.41152 0.61537 0.0
C985 C 0.40513 0.44832 0.58202 0.0
C986 C 0.38414 0.43463 0.5931 0.0
H987 H 0.26662 0.41087 0.63285 0.0
H988 H 0.30168 0.42877 0.61321 0.0
H989 H 0.36516 0.40435 0.64426 0.0
H990 H 0.45056 0.48842 0.59562 0.0
H991 H 0.41713 0.46462 0.61359 0.0
C992 C 0.87262 0.70784 0.84164 0.0
C993 C 0.85128 0.71025 0.85183 0.0
C994 C 0.88811 0.69398 0.85319 0.0
C995 C 0.90112 0.66883 0.91169 0.0
H996 H 0.93887 0.62726 0.8776 0.0
C997 C 0.96962 0.61599 0.95665 0.0
C998 C 0.97078 0.59087 0.95071 0.0
C999 C 0.95693 0.63203 0.94357 0.0
C1000 C 0.92839 0.63869 0.88741 0.0
H1001 H 0.82913 0.69952 0.88177 0.0
H1002 H 0.85596 0.67481 0.90178 0.0
H1003 H 0.91188 0.65107 0.85708 0.0
H1004 H 0.9601 0.56315 0.92595 0.0
H1005 H 0.93775 0.59083 0.90356 0.0
H1006 H 0.91694 0.65562 0.94214 0.0
C1007 C 0.86099 0.68415 0.88512 0.0
C1008 C 0.91308 0.65258 0.87559 0.0
C1009 C 0.84557 0.69819 0.87363 0.0
C1010 C 0.95962 0.58241 0.93101 0.0
C1011 C 0.94687 0.59836 0.91805 0.0
C1012 C 0.91633 0.65482 0.92352 0.0
C1013 C 0.88253 0.68207 0.87513 0.0
C1014 C 0.89914 0.66768 0.88761 0.0
C1015 C 0.94509 0.62325 0.92435 0.0
C1016 C 0.93003 0.63943 0.91155 0.0
H1017 H 0.8776 0.71727 0.82499 0.0
H1018 H 0.90465 0.69309 0.84514 0.0
H1019 H 0.89092 0.68058 0.92145 0.0
H1020 H 0.97813 0.62312 0.97166 0.0
H1021 H 0.95622 0.65124 0.94867 0.0
C1022 C 0.40958 0.76874 0.13845 0.0
C1023 C 0.38758 0.75963 0.13252 0.0
C1024 C 0.42053 0.79069 0.12719 0.0
C1025 C 0.41795 0.83297 0.07417 0.0
H1026 H 0.45673 0.87987 0.10828 0.0
C1027 C 0.45074 0.93318 0.03726 0.0
C1028 C 0.47388 0.94074 0.03969 0.0
C1029 C 0.44061 0.91097 0.04869 0.0
C1030 C 0.44609 0.86682 0.09851 0.0
H1031 H 0.35956 0.76668 0.11063 0.0
H1032 H 0.37832 0.80522 0.09141 0.0
H1033 H 0.43811 0.84148 0.12815 0.0
H1034 H 0.5045 0.93107 0.05622 0.0
H1035 H 0.48666 0.89236 0.07645 0.0
H1036 H 0.42558 0.85869 0.04467 0.0
C1037 C 0.38748 0.7951 0.10423 0.0
C1038 C 0.43546 0.84477 0.10985 0.0
C1039 C 0.37666 0.77304 0.1153 0.0
C1040 C 0.48663 0.92574 0.05399 0.0
C1041 C 0.47642 0.90366 0.06565 0.0
C1042 C 0.42837 0.85513 0.06292 0.0
C1043 C 0.40962 0.80417 0.10992 0.0
C1044 C 0.4212 0.82755 0.09784 0.0
C1045 C 0.45333 0.89597 0.063 0.0
C1046 C 0.44252 0.87231 0.07497 0.0
H1047 H 0.41849 0.75864 0.15151 0.0
H1048 H 0.43768 0.79683 0.1318 0.0
H1049 H 0.40751 0.81995 0.0642 0.0
H1050 H 0.44045 0.94427 0.02633 0.0
H1051 H 0.42274 0.90563 0.04649 0.0
C1052 C 0.13178 0.20766 0.63558 0.0
C1053 C 0.11806 0.22366 0.64681 0.0
C1054 C 0.12222 0.18795 0.62285 0.0
C1055 C 0.06735 0.15009 0.61185 0.0
H1056 H 0.10177 0.13191 0.55863 0.0
C1057 C 0.04129 0.05993 0.56284 0.0
C1058 C 0.04772 0.05963 0.53937 0.0
C1059 C 0.04824 0.08081 0.57561 0.0
C1060 C 0.09161 0.13691 0.57315 0.0
H1061 H 0.08317 0.23088 0.65347 0.0
H1062 H 0.06664 0.19763 0.63011 0.0
H1063 H 0.11662 0.16663 0.58079 0.0
H1064 H 0.06511 0.08139 0.51045 0.0
H1065 H 0.07602 0.11834 0.53216 0.0
H1066 H 0.04175 0.12117 0.60335 0.0
C1067 C 0.08485 0.19985 0.63169 0.0
C1068 C 0.10044 0.15664 0.58627 0.0
C1069 C 0.09441 0.21931 0.64483 0.0
C1070 C 0.06018 0.08102 0.52862 0.0
C1071 C 0.06663 0.10212 0.54119 0.0
C1072 C 0.05828 0.13063 0.59842 0.0
C1073 C 0.09863 0.18391 0.62042 0.0
C1074 C 0.08862 0.16335 0.60601 0.0
C1075 C 0.06134 0.10208 0.56506 0.0
C1076 C 0.07037 0.12358 0.57895 0.0
H1077 H 0.15005 0.2105 0.63624 0.0
H1078 H 0.13348 0.17585 0.61494 0.0
H1079 H 0.05777 0.15442 0.62702 0.0
H1080 H 0.03181 0.04356 0.57158 0.0
H1081 H 0.04401 0.07977 0.59394 0.0
C1082 C 0.63111 0.26747 0.39655 0.0
C1083 C 0.6213 0.25628 0.37727 0.0
C1084 C 0.62089 0.28643 0.40739 0.0
C1085 C 0.58036 0.334 0.39755 0.0
H1086 H 0.58046 0.33579 0.46441 0.0
C1087 C 0.53449 0.40654 0.44746 0.0
C1088 C 0.54681 0.41834 0.46501 0.0
C1089 C 0.54233 0.38585 0.43695 0.0
C1090 C 0.58043 0.33563 0.44571 0.0
H1091 H 0.59287 0.25594 0.35446 0.0
H1092 H 0.57491 0.28898 0.3735 0.0
H1093 H 0.5964 0.30131 0.44565 0.0
H1094 H 0.57689 0.41751 0.48547 0.0
H1095 H 0.59054 0.38153 0.46714 0.0
H1096 H 0.56443 0.3684 0.39767 0.0
C1097 C 0.59071 0.28337 0.38 0.0
C1098 C 0.58959 0.3159 0.43495 0.0
C1099 C 0.60099 0.26443 0.36911 0.0
C1100 C 0.56698 0.40885 0.47201 0.0
C1101 C 0.57474 0.38812 0.46161 0.0
C1102 C 0.57112 0.35369 0.40833 0.0
C1103 C 0.60056 0.2946 0.39927 0.0
C1104 C 0.58988 0.31499 0.41073 0.0
C1105 C 0.56257 0.37646 0.4439 0.0
C1106 C 0.57127 0.35486 0.43251 0.0
H1107 H 0.64695 0.26189 0.40302 0.0
H1108 H 0.62915 0.295 0.42191 0.0
H1109 H 0.58056 0.33405 0.37884 0.0
H1110 H 0.51888 0.4134 0.44168 0.0
H1111 H 0.53249 0.3771 0.42349 0.0
loop_
_geom_bond_atom_site_label_1
_geom_bond_atom_site_label_2
_geom_bond_distance
_geom_bond_site_symmetry_2
_ccdc_geom_bond_type
C0 C1 1.386 . S
C0 C2 1.397 . S
C0 H24 0.931 . S
C1 C0 1.386 . S
C1 C5 1.397 . S
C2 C0 1.397 . S
C2 C3 1.384 . S
C2 H25 0.930 . S
C3 C2 1.384 . S
C3 C4 1.377 . S
C3 C6 1.481 . S
C4 C3 1.377 . S
C4 C5 1.389 . S
C4 H26 0.929 . S
C5 C1 1.397 . S
C5 C4 1.389 . S
C5 H27 0.931 . S
C6 C3 1.481 . S
C6 C7 1.387 . S
C6 C11 1.390 . S
C7 C6 1.387 . S
C7 C8 1.401 . S
C7 H28 0.930 . S
C8 C7 1.401 . S
C8 C9 1.376 . S
C8 C17 1.511 . S
C9 C8 1.376 . S
C9 C10 1.392 . S
C9 H30 0.931 . S
C10 C9 1.392 . S
C10 C11 1.361 . S
C10 C12 1.500 . S
C11 C6 1.390 . S
C11 C10 1.361 . S
C11 H29 0.931 . S
C12 C10 1.500 . S
C12 C13 1.371 . S
C12 C14 1.365 . S
C13 C12 1.371 . S
C13 C23 1.386 . S
C13 H31 0.931 . S
C14 C12 1.365 . S
C14 C15 1.409 . S
C14 H32 0.929 . S
C15 C14 1.409 . S
C15 C16 1.380 . S
C15 H33 0.930 . S
C16 C15 1.380 . S
C16 C23 1.357 . S
C17 C8 1.511 . S
C17 C18 1.341 . S
C17 C19 1.371 . S
C18 C17 1.341 . S
C18 C22 1.394 . S
C18 H34 0.930 . S
C19 C17 1.371 . S
C19 C20 1.392 . S
C19 H35 0.931 . S
C20 C19 1.392 . S
C20 C21 1.331 . S
C20 H38 0.932 . S
C21 C20 1.331 . S
C21 C22 1.336 . S
C22 C18 1.394 . S
C22 C21 1.336 . S
C22 H37 0.929 . S
C23 C13 1.386 . S
C23 C16 1.357 . S
C23 H36 0.928 . S
H24 C0 0.931 . S
H25 C2 0.930 . S
H26 C4 0.929 . S
H27 C5 0.931 . S
H28 C7 0.930 . S
H29 C11 0.931 . S
H30 C9 0.931 . S
H31 C13 0.931 . S
H32 C14 0.929 . S
H33 C15 0.930 . S
H34 C18 0.930 . S
H35 C19 0.931 . S
H36 C23 0.928 . S
H37 C22 0.929 . S
H38 C20 0.932 . S
C39 C40 1.386 . S
C39 C41 1.397 . S
C39 H63 0.931 . S
C40 C39 1.386 . S
C40 C44 1.397 . S
C41 C39 1.397 . S
C41 C42 1.384 . S
C41 H64 0.930 . S
C42 C41 1.384 . S
C42 C43 1.377 . S
C42 C45 1.481 . S
C43 C42 1.377 . S
C43 C44 1.389 . S
C43 H65 0.929 . S
C44 C40 1.397 . S
C44 C43 1.389 . S
C44 H66 0.931 . S
C45 C42 1.481 . S
C45 C46 1.387 . S
C45 C50 1.390 . S
C46 C45 1.387 . S
C46 C47 1.401 . S
C46 H67 0.930 . S
C47 C46 1.401 . S
C47 C48 1.376 . S
C47 C56 1.511 . S
C48 C47 1.376 . S
C48 C49 1.392 . S
C48 H69 0.931 . S
C49 C48 1.392 . S
C49 C50 1.361 . S
C49 C51 1.500 . S
C50 C45 1.390 . S
C50 C49 1.361 . S
C50 H68 0.931 . S
C51 C49 1.500 . S
C51 C52 1.371 . S
C51 C53 1.365 . S
C52 C51 1.371 . S
C52 C62 1.386 . S
C52 H70 0.931 . S
C53 C51 1.365 . S
C53 C54 1.409 . S
C53 H71 0.929 . S
C54 C53 1.409 . S
C54 C55 1.380 . S
C54 H72 0.930 . S
C55 C54 1.380 . S
C55 C62 1.357 . S
C56 C47 1.511 . S
C56 C57 1.341 . S
C56 C58 1.371 . S
C57 C56 1.341 . S
C57 C61 1.394 . S
C57 H73 0.930 . S
C58 C56 1.371 . S
C58 C59 1.392 . S
C58 H74 0.931 . S
C59 C58 1.392 . S
C59 C60 1.331 . S
C59 H77 0.932 . S
C60 C59 1.331 . S
C60 C61 1.336 . S
C61 C57 1.394 . S
C61 C60 1.336 . S
C61 H76 0.929 . S
C62 C52 1.386 . S
C62 C55 1.357 . S
C62 H75 0.928 . S
H63 C39 0.931 . S
H64 C41 0.930 . S
H65 C43 0.929 . S
H66 C44 0.931 . S
H67 C46 0.930 . S
H68 C50 0.931 . S
H69 C48 0.931 . S
H70 C52 0.931 . S
H71 C53 0.929 . S
H72 C54 0.930 . S
H73 C57 0.930 . S
H74 C58 0.931 . S
H75 C62 0.928 . S
H76 C61 0.929 . S
H77 C59 0.932 . S
C78 C79 1.386 . S
C78 C80 1.397 . S
C78 H102 0.931 . S
C79 C78 1.386 . S
C79 C83 1.397 . S
C80 C78 1.397 . S
C80 C81 1.384 . S
C80 H103 0.930 . S
C81 C80 1.384 . S
C81 C82 1.377 . S
C81 C84 1.481 . S
C82 C81 1.377 . S
C82 C83 1.389 . S
C82 H104 0.929 . S
C83 C79 1.397 . S
C83 C82 1.389 . S
C83 H105 0.931 . S
C84 C81 1.481 . S
C84 C85 1.387 . S
C84 C89 1.390 . S
C85 C84 1.387 . S
C85 C86 1.401 . S
C85 H106 0.930 . S
C86 C85 1.401 . S
C86 C87 1.376 . S
C86 C95 1.511 . S
C87 C86 1.376 . S
C87 C88 1.392 . S
C87 H108 0.931 . S
C88 C87 1.392 . S
C88 C89 1.361 . S
C88 C90 1.500 . S
C89 C84 1.390 . S
C89 C88 1.361 . S
C89 H107 0.931 . S
C90 C88 1.500 . S
C90 C91 1.371 . S
C90 C92 1.365 . S
C91 C90 1.371 . S
C91 C101 1.386 . S
C91 H109 0.931 . S
C92 C90 1.365 . S
C92 C93 1.409 . S
C92 H110 0.929 . S
C93 C92 1.409 . S
C93 C94 1.380 . S
C93 H111 0.930 . S
C94 C93 1.380 . S
C94 C101 1.357 . S
C95 C86 1.511 . S
C95 C96 1.341 . S
C95 C97 1.371 . S
C96 C95 1.341 . S
C96 C100 1.394 . S
C96 H112 0.930 . S
C97 C95 1.371 . S
C97 C98 1.392 . S
C97 H113 0.931 . S
C98 C97 1.392 . S
C98 C99 1.331 . S
C98 H116 0.932 . S
C99 C98 1.331 . S
C99 C100 1.336 . S
C100 C96 1.394 . S
C100 C99 1.336 . S
C100 H115 0.929 . S
C101 C91 1.386 . S
C101 C94 1.357 . S
C101 H114 0.928 . S
H102 C78 0.931 . S
H103 C80 0.930 . S
H104 C82 0.929 . S
H105 C83 0.931 . S
H106 C85 0.930 . S
H107 C89 0.931 . S
H108 C87 0.931 . S
H109 C91 0.931 . S
H110 C92 0.929 . S
H111 C93 0.930 . S
H112 C96 0.930 . S
H113 C97 0.931 . S
H114 C101 0.928 . S
H115 C100 0.929 . S
H116 C98 0.932 . S
C117 C118 1.386 . S
C117 C119 1.397 . S
C117 H141 0.931 . S
C118 C117 1.386 . S
C118 C122 1.397 . S
C119 C117 1.397 . S
C119 C120 1.384 . S
C119 H142 0.930 . S
C120 C119 1.384 . S
C120 C121 1.377 . S
C120 C123 1.481 . S
C121 C120 1.377 . S
C121 C122 1.389 . S
C121 H143 0.929 . S
C122 C118 1.397 . S
C122 C121 1.389 . S
C122 H144 0.931 . S
C123 C120 1.481 . S
C123 C124 1.387 . S
C123 C128 1.390 . S
C124 C123 1.387 . S
C124 C125 1.401 . S
C124 H145 0.930 . S
C125 C124 1.401 . S
C125 C126 1.376 . S
C125 C134 1.511 . S
C126 C125 1.376 . S
C126 C127 1.392 . S
C126 H147 0.931 . S
C127 C126 1.392 . S
C127 C128 1.361 . S
C127 C129 1.500 . S
C128 C123 1.390 . S
C128 C127 1.361 . S
C128 H146 0.931 . S
C129 C127 1.500 . S
C129 C130 1.371 . S
C129 C131 1.365 . S
C130 C129 1.371 . S
C130 C140 1.386 . S
C130 H148 0.931 . S
C131 C129 1.365 . S
C131 C132 1.409 . S
C131 H149 0.929 . S
C132 C131 1.409 . S
C132 C133 1.380 . S
C132 H150 0.930 . S
C133 C132 1.380 . S
C133 C140 1.357 . S
C134 C125 1.511 . S
C134 C135 1.341 . S
C134 C136 1.371 . S
C135 C134 1.341 . S
C135 C139 1.394 . S
C135 H151 0.930 . S
C136 C134 1.371 . S
C136 C137 1.392 . S
C136 H152 0.931 . S
C137 C136 1.392 . S
C137 C138 1.331 . S
C137 H155 0.932 . S
C138 C137 1.331 . S
C138 C139 1.336 . S
C139 C135 1.394 . S
C139 C138 1.336 . S
C139 H154 0.929 . S
C140 C130 1.386 . S
C140 C133 1.357 . S
C140 H153 0.928 . S
H141 C117 0.931 . S
H142 C119 0.930 . S
H143 C121 0.929 . S
H144 C122 0.931 . S
H145 C124 0.930 . S
H146 C128 0.931 . S
H147 C126 0.931 . S
H148 C130 0.931 . S
H149 C131 0.929 . S
H150 C132 0.930 . S
H151 C135 0.930 . S
H152 C136 0.931 . S
H153 C140 0.928 . S
H154 C139 0.929 . S
H155 C137 0.932 . S
C156 C157 1.386 . S
C156 C158 1.397 . S
C156 H180 0.931 . S
C157 C156 1.386 . S
C157 C161 1.397 . S
C158 C156 1.397 . S
C158 C159 1.384 . S
C158 H181 0.930 . S
C159 C158 1.384 . S
C159 C160 1.377 . S
C159 C162 1.481 . S
C160 C159 1.377 . S
C160 C161 1.389 . S
C160 H182 0.929 . S
C161 C157 1.397 . S
C161 C160 1.389 . S
C161 H183 0.931 . S
C162 C159 1.481 . S
C162 C163 1.387 . S
C162 C167 1.390 . S
C163 C162 1.387 . S
C163 C164 1.401 . S
C163 H184 0.930 . S
C164 C163 1.401 . S
C164 C165 1.376 . S
C164 C173 1.511 . S
C165 C164 1.376 . S
C165 C166 1.392 . S
C165 H186 0.931 . S
C166 C165 1.392 . S
C166 C167 1.361 . S
C166 C168 1.500 . S
C167 C162 1.390 . S
C167 C166 1.361 . S
C167 H185 0.931 . S
C168 C166 1.500 . S
C168 C169 1.371 . S
C168 C170 1.365 . S
C169 C168 1.371 . S
C169 C179 1.386 . S
C169 H187 0.931 . S
C170 C168 1.365 . S
C170 C171 1.409 . S
C170 H188 0.929 . S
C171 C170 1.409 . S
C171 C172 1.380 . S
C171 H189 0.930 . S
C172 C171 1.380 . S
C172 C179 1.357 . S
C173 C164 1.511 . S
C173 C174 1.341 . S
C173 C175 1.371 . S
C174 C173 1.341 . S
C174 C178 1.394 . S
C174 H190 0.930 . S
C175 C173 1.371 . S
C175 C176 1.392 . S
C175 H191 0.931 . S
C176 C175 1.392 . S
C176 C177 1.331 . S
C176 H194 0.932 . S
C177 C176 1.331 . S
C177 C178 1.336 . S
C178 C174 1.394 . S
C178 C177 1.336 . S
C178 H193 0.929 . S
C179 C169 1.386 . S
C179 C172 1.357 . S
C179 H192 0.928 . S
H180 C156 0.931 . S
H181 C158 0.930 . S
H182 C160 0.929 . S
H183 C161 0.931 . S
H184 C163 0.930 . S
H185 C167 0.931 . S
H186 C165 0.931 . S
H187 C169 0.931 . S
H188 C170 0.929 . S
H189 C171 0.930 . S
H190 C174 0.930 . S
H191 C175 0.931 . S
H192 C179 0.928 . S
H193 C178 0.929 . S
H194 C176 0.932 . S
C195 C196 1.386 . S
C195 C197 1.397 . S
C195 H219 0.931 . S
C196 C195 1.386 . S
C196 C200 1.397 . S
C197 C195 1.397 . S
C197 C198 1.384 . S
C197 H220 0.930 . S
C198 C197 1.384 . S
C198 C199 1.377 . S
C198 C201 1.481 . S
C199 C198 1.377 . S
C199 C200 1.389 . S
C199 H221 0.929 . S
C200 C196 1.397 . S
C200 C199 1.389 . S
C200 H222 0.931 . S
C201 C198 1.481 . S
C201 C202 1.387 . S
C201 C206 1.390 . S
C202 C201 1.387 . S
C202 C203 1.401 . S
C202 H223 0.930 . S
C203 C202 1.401 . S
C203 C204 1.376 . S
C203 C212 1.511 . S
C204 C203 1.376 . S
C204 C205 1.392 . S
C204 H225 0.931 . S
C205 C204 1.392 . S
C205 C206 1.361 . S
C205 C207 1.500 . S
C206 C201 1.390 . S
C206 C205 1.361 . S
C206 H224 0.931 . S
C207 C205 1.500 . S
C207 C208 1.371 . S
C207 C209 1.365 . S
C208 C207 1.371 . S
C208 C218 1.386 . S
C208 H226 0.931 . S
C209 C207 1.365 . S
C209 C210 1.409 . S
C209 H227 0.929 . S
C210 C209 1.409 . S
C210 C211 1.380 . S
C210 H228 0.930 . S
C211 C210 1.380 . S
C211 C218 1.357 . S
C212 C203 1.511 . S
C212 C213 1.341 . S
C212 C214 1.371 . S
C213 C212 1.341 . S
C213 C217 1.394 . S
C213 H229 0.930 . S
C214 C212 1.371 . S
C214 C215 1.392 . S
C214 H230 0.931 . S
C215 C214 1.392 . S
C215 C216 1.331 . S
C215 H233 0.932 . S
C216 C215 1.331 . S
C216 C217 1.336 . S
C217 C213 1.394 . S
C217 C216 1.336 . S
C217 H232 0.929 . S
C218 C208 1.386 . S
C218 C211 1.357 . S
C218 H231 0.928 . S
H219 C195 0.931 . S
H220 C197 0.930 . S
H221 C199 0.929 . S
H222 C200 0.931 . S
H223 C202 0.930 . S
H224 C206 0.931 . S
H225 C204 0.931 . S
H226 C208 0.931 . S
H227 C209 0.929 . S
H228 C210 0.930 . S
H229 C213 0.930 . S
H230 C214 0.931 . S
H231 C218 0.928 . S
H232 C217 0.929 . S
H233 C215 0.932 . S
C234 C235 1.386 . S
C234 C236 1.397 . S
C234 H258 0.931 . S
C235 C234 1.386 . S
C235 C239 1.397 . S
C236 C234 1.397 . S
C236 C237 1.384 . S
C236 H259 0.930 . S
C237 C236 1.384 . S
C237 C238 1.377 . S
C237 C240 1.481 . S
C238 C237 1.377 . S
C238 C239 1.389 . S
C238 H260 0.929 . S
C239 C235 1.397 . S
C239 C238 1.389 . S
C239 H261 0.931 . S
C240 C237 1.481 . S
C240 C241 1.387 . S
C240 C245 1.390 . S
C241 C240 1.387 . S
C241 C242 1.401 . S
C241 H262 0.930 . S
C242 C241 1.401 . S
C242 C243 1.376 . S
C242 C251 1.511 . S
C243 C242 1.376 . S
C243 C244 1.392 . S
C243 H264 0.931 . S
C244 C243 1.392 . S
C244 C245 1.361 . S
C244 C246 1.500 . S
C245 C240 1.390 . S
C245 C244 1.361 . S
C245 H263 0.931 . S
C246 C244 1.500 . S
C246 C247 1.371 . S
C246 C248 1.365 . S
C247 C246 1.371 . S
C247 C257 1.386 . S
C247 H265 0.931 . S
C248 C246 1.365 . S
C248 C249 1.409 . S
C248 H266 0.929 . S
C249 C248 1.409 . S
C249 C250 1.380 . S
C249 H267 0.930 . S
C250 C249 1.380 . S
C250 C257 1.357 . S
C251 C242 1.511 . S
C251 C252 1.341 . S
C251 C253 1.371 . S
C252 C251 1.341 . S
C252 C256 1.394 . S
C252 H268 0.930 . S
C253 C251 1.371 . S
C253 C254 1.392 . S
C253 H269 0.931 . S
C254 C253 1.392 . S
C254 C255 1.331 . S
C254 H272 0.932 . S
C255 C254 1.331 . S
C255 C256 1.336 . S
C256 C252 1.394 . S
C256 C255 1.336 . S
C256 H271 0.929 . S
C257 C247 1.386 . S
C257 C250 1.357 . S
C257 H270 0.928 . S
H258 C234 0.931 . S
H259 C236 0.930 . S
H260 C238 0.929 . S
H261 C239 0.931 . S
H262 C241 0.930 . S
H263 C245 0.931 . S
H264 C243 0.931 . S
H265 C247 0.931 . S
H266 C248 0.929 . S
H267 C249 0.930 . S
H268 C252 0.930 . S
H269 C253 0.931 . S
H270 C257 0.928 . S
H271 C256 0.929 . S
H272 C254 0.932 . S
C273 C274 1.386 . S
C273 C275 1.397 . S
C273 H297 0.931 . S
C274 C273 1.386 . S
C274 C278 1.397 . S
C275 C273 1.397 . S
C275 C276 1.384 . S
C275 H298 0.930 . S
C276 C275 1.384 . S
C276 C277 1.377 . S
C276 C279 1.481 . S
C277 C276 1.377 . S
C277 C278 1.389 . S
C277 H299 0.929 . S
C278 C274 1.397 . S
C278 C277 1.389 . S
C278 H300 0.931 . S
C279 C276 1.481 . S
C279 C280 1.387 . S
C279 C284 1.390 . S
C280 C279 1.387 . S
C280 C281 1.401 . S
C280 H301 0.930 . S
C281 C280 1.401 . S
C281 C282 1.376 . S
C281 C290 1.511 . S
C282 C281 1.376 . S
C282 C283 1.392 . S
C282 H303 0.931 . S
C283 C282 1.392 . S
C283 C284 1.361 . S
C283 C285 1.500 . S
C284 C279 1.390 . S
C284 C283 1.361 . S
C284 H302 0.931 . S
C285 C283 1.500 . S
C285 C286 1.371 . S
C285 C287 1.365 . S
C286 C285 1.371 . S
C286 C296 1.386 . S
C286 H304 0.931 . S
C287 C285 1.365 . S
C287 C288 1.409 . S
C287 H305 0.929 . S
C288 C287 1.409 . S
C288 C289 1.380 . S
C288 H306 0.930 . S
C289 C288 1.380 . S
C289 C296 1.357 . S
C290 C281 1.511 . S
C290 C291 1.341 . S
C290 C292 1.371 . S
C291 C290 1.341 . S
C291 C295 1.394 . S
C291 H307 0.930 . S
C292 C290 1.371 . S
C292 C293 1.392 . S
C292 H308 0.931 . S
C293 C292 1.392 . S
C293 C294 1.331 . S
C293 H311 0.932 . S
C294 C293 1.331 . S
C294 C295 1.336 . S
C295 C291 1.394 . S
C295 C294 1.336 . S
C295 H310 0.929 . S
C296 C286 1.386 . S
C296 C289 1.357 . S
C296 H309 0.928 . S
H297 C273 0.931 . S
H298 C275 0.930 . S
H299 C277 0.929 . S
H300 C278 0.931 . S
H301 C280 0.930 . S
H302 C284 0.931 . S
H303 C282 0.931 . S
H304 C286 0.931 . S
H305 C287 0.929 . S
H306 C288 0.930 . S
H307 C291 0.930 . S
H308 C292 0.931 . S
H309 C296 0.928 . S
H310 C295 0.929 . S
H311 C293 0.932 . S
Zn312 O318 1.969 1_545 S
Zn312 O319 1.965 1_545 S
Zn312 O323 2.024 . S
Zn312 O328 1.969 . S
Zn313 O320 1.969 . S
Zn313 O326 1.969 1_565 S
Zn313 O327 1.994 1_565 S
Zn313 O329 2.024 . S
C314 O315 1.229 . S
C314 O323 1.058 . S
O315 C314 1.229 . S
C316 O317 1.229 . S
C316 O329 1.058 . S
O317 C316 1.229 . S
O318 Zn312 1.969 1_565 S
O318 C321 1.267 . S
O319 Zn312 1.965 1_565 S
O319 C330 1.260 1_455 S
O320 Zn313 1.969 . S
O320 C330 1.258 . S
C321 O318 1.267 . S
C321 O322 1.228 . S
O322 C321 1.228 . S
O323 Zn312 2.024 . S
O323 C314 1.058 . S
C324 O325 1.228 . S
C324 O326 1.267 . S
O325 C324 1.228 . S
O326 Zn313 1.969 1_545 S
O326 C324 1.267 . S
O327 Zn313 1.994 1_545 S
O327 C331 1.221 1_655 S
O328 Zn312 1.969 . S
O328 C331 1.258 . S
O329 Zn313 2.024 . S
O329 C316 1.058 . S
C330 O319 1.260 1_655 S
C330 O320 1.258 . S
C331 O327 1.221 1_455 S
C331 O328 1.258 . S
Zn332 O338 1.969 . S
Zn332 O339 1.965 1_565 S
Zn332 O343 2.024 . S
Zn332 O348 2.001 . S
Zn333 O340 1.969 . S
Zn333 O346 1.969 . S
Zn333 O347 1.965 1_545 S
Zn333 O349 2.024 . S
C334 O335 1.229 . S
C334 O343 1.058 . S
O335 C334 1.229 . S
C336 O337 1.229 . S
C336 O349 1.058 . S
O337 C336 1.229 . S
O338 Zn332 1.969 . S
O338 C341 1.267 . S
O339 Zn332 1.965 1_545 S
O339 C350 1.260 . S
O340 Zn333 1.969 . S
O340 C350 1.258 1_554 S
C341 O338 1.267 . S
C341 O342 1.228 . S
O342 C341 1.228 . S
O343 Zn332 2.024 . S
O343 C334 1.058 . S
C344 O345 1.228 . S
C344 O346 1.267 . S
O345 C344 1.228 . S
O346 Zn333 1.969 . S
O346 C344 1.267 . S
O347 Zn333 1.965 1_565 S
O347 C351 1.260 . S
O348 Zn332 2.001 . S
O348 C351 1.224 1_556 S
O349 Zn333 2.024 . S
O349 C336 1.058 . S
C350 O339 1.260 . S
C350 O340 1.258 1_556 S
C351 O347 1.260 . S
C351 O348 1.224 1_554 S
Zn352 O358 1.969 . S
Zn352 O359 1.965 . S
Zn352 O363 2.024 . S
Zn352 O368 1.969 . S
Zn353 O360 1.969 . S
Zn353 O366 1.969 . S
Zn353 O367 1.965 . S
Zn353 O369 2.024 . S
C354 O355 1.229 . S
C354 O363 1.058 . S
O355 C354 1.229 . S
C356 O357 1.229 . S
C356 O369 1.058 . S
O357 C356 1.229 . S
O358 Zn352 1.969 . S
O358 C361 1.267 . S
O359 Zn352 1.965 . S
O359 C370 1.260 . S
O360 Zn353 1.969 . S
O360 C370 1.258 . S
C361 O358 1.267 . S
C361 O362 1.228 . S
O362 C361 1.228 . S
O363 Zn352 2.024 . S
O363 C354 1.058 . S
C364 O365 1.228 . S
C364 O366 1.267 . S
O365 C364 1.228 . S
O366 Zn353 1.969 . S
O366 C364 1.267 . S
O367 Zn353 1.965 . S
O367 C371 1.260 . S
O368 Zn352 1.969 . S
O368 C371 1.258 . S
O369 Zn353 2.024 . S
O369 C356 1.058 . S
C370 O359 1.260 . S
C370 O360 1.258 . S
C371 O367 1.260 . S
C371 O368 1.258 . S
Zn372 O378 1.969 . S
Zn372 O379 1.965 1_556 S
Zn372 O383 2.024 . S
Zn372 O388 1.941 1_655 S
Zn373 O380 1.969 . S
Zn373 O386 1.969 . S
Zn373 O387 1.965 1_554 S
Zn373 O389 2.024 . S
C374 O375 1.229 . S
C374 O383 1.058 . S
O375 C374 1.229 . S
C376 O377 1.229 . S
C376 O389 1.058 . S
O377 C376 1.229 . S
O378 Zn372 1.969 . S
O378 C381 1.267 . S
O379 Zn372 1.965 1_554 S
O379 C390 1.260 . S
O380 Zn373 1.969 . S
O380 C390 1.258 1_455 S
C381 O378 1.267 . S
C381 O382 1.228 . S
O382 C381 1.228 . S
O383 Zn372 2.024 . S
O383 C374 1.058 . S
C384 O385 1.228 . S
C384 O386 1.267 . S
O385 C384 1.228 . S
O386 Zn373 1.969 . S
O386 C384 1.267 . S
O387 Zn373 1.965 1_556 S
O387 C391 1.260 . S
O388 Zn372 1.941 1_455 S
O388 C391 1.286 . S
O389 Zn373 2.024 . S
O389 C376 1.058 . S
C390 O379 1.260 . S
C390 O380 1.258 1_655 S
C391 O387 1.260 . S
C391 O388 1.286 . S
C392 C393 1.349 . S
C392 C394 1.327 . S
C392 H417 0.950 . S
C393 C392 1.349 . S
C393 C409 1.349 . S
C394 C392 1.327 . S
C394 C413 1.429 . S
C394 H418 0.950 . S
C395 C412 1.574 . S
C395 C414 1.368 . S
C395 H419 0.949 . S
H396 C400 0.949 . S
C397 C398 1.349 . S
C397 C399 1.327 . S
C397 H420 0.950 . S
C398 C397 1.349 . S
C398 C410 1.349 . S
C399 C397 1.327 . S
C399 C415 1.429 . S
C399 H421 0.950 . S
C400 H396 0.949 . S
C400 C408 1.574 . S
C400 C416 1.368 . S
H401 C409 0.950 . S
H402 C407 0.950 . S
H403 C408 0.949 . S
H404 C410 0.950 . S
H405 C411 0.950 . S
H406 C412 0.949 . S
C407 H402 0.950 . S
C407 C409 1.327 . S
C407 C413 1.429 . S
C408 C400 1.574 . S
C408 H403 0.949 . S
C408 C414 1.368 . S
C409 C393 1.349 . S
C409 H401 0.950 . S
C409 C407 1.327 . S
C410 C398 1.349 . S
C410 H404 0.950 . S
C410 C411 1.327 . S
C411 H405 0.950 . S
C411 C410 1.327 . S
C411 C415 1.429 . S
C412 C395 1.574 . S
C412 H406 0.949 . S
C412 C416 1.368 . S
C413 C394 1.429 . S
C413 C407 1.429 . S
C413 C414 1.523 . S
C414 C395 1.368 . S
C414 C408 1.368 . S
C414 C413 1.523 . S
C415 C399 1.429 . S
C415 C411 1.429 . S
C415 C416 1.523 . S
C416 C400 1.368 . S
C416 C412 1.368 . S
C416 C415 1.523 . S
H417 C392 0.950 . S
H418 C394 0.950 . S
H419 C395 0.949 . S
H420 C397 0.950 . S
H421 C399 0.950 . S
C422 C423 1.349 . S
C422 C424 1.327 . S
C422 H447 0.950 . S
C423 C422 1.349 . S
C423 C439 1.349 . S
C424 C422 1.327 . S
C424 C443 1.429 . S
C424 H448 0.950 . S
C425 C442 1.574 . S
C425 C444 1.368 . S
C425 H449 0.949 . S
H426 C430 0.949 . S
C427 C428 1.349 . S
C427 C429 1.327 . S
C427 H450 0.950 . S
C428 C427 1.349 . S
C428 C440 1.349 . S
C429 C427 1.327 . S
C429 C445 1.429 . S
C429 H451 0.950 . S
C430 H426 0.949 . S
C430 C438 1.574 . S
C430 C446 1.368 . S
H431 C439 0.950 . S
H432 C437 0.950 . S
H433 C438 0.949 . S
H434 C440 0.950 . S
H435 C441 0.950 . S
H436 C442 0.949 . S
C437 H432 0.950 . S
C437 C439 1.327 . S
C437 C443 1.429 . S
C438 C430 1.574 . S
C438 H433 0.949 . S
C438 C444 1.368 . S
C439 C423 1.349 . S
C439 H431 0.950 . S
C439 C437 1.327 . S
C440 C428 1.349 . S
C440 H434 0.950 . S
C440 C441 1.327 . S
C441 H435 0.950 . S
C441 C440 1.327 . S
C441 C445 1.429 . S
C442 C425 1.574 . S
C442 H436 0.949 . S
C442 C446 1.368 . S
C443 C424 1.429 . S
C443 C437 1.429 . S
C443 C444 1.523 . S
C444 C425 1.368 . S
C444 C438 1.368 . S
C444 C443 1.523 . S
C445 C429 1.429 . S
C445 C441 1.429 . S
C445 C446 1.523 . S
C446 C430 1.368 . S
C446 C442 1.368 . S
C446 C445 1.523 . S
H447 C422 0.950 . S
H448 C424 0.950 . S
H449 C425 0.949 . S
H450 C427 0.950 . S
H451 C429 0.950 . S
C452 C453 1.349 . S
C452 C454 1.327 . S
C452 H477 0.950 . S
C453 C452 1.349 . S
C453 C469 1.349 . S
C454 C452 1.327 . S
C454 C473 1.429 . S
C454 H478 0.950 . S
C455 C472 1.574 . S
C455 C474 1.368 . S
C455 H479 0.949 . S
H456 C460 0.949 . S
C457 C458 1.349 . S
C457 C459 1.327 . S
C457 H480 0.950 . S
C458 C457 1.349 . S
C458 C470 1.349 . S
C459 C457 1.327 . S
C459 C475 1.429 . S
C459 H481 0.950 . S
C460 H456 0.949 . S
C460 C468 1.574 . S
C460 C476 1.368 . S
H461 C469 0.950 . S
H462 C467 0.950 . S
H463 C468 0.949 . S
H464 C470 0.950 . S
H465 C471 0.950 . S
H466 C472 0.949 . S
C467 H462 0.950 . S
C467 C469 1.327 . S
C467 C473 1.429 . S
C468 C460 1.574 . S
C468 H463 0.949 . S
C468 C474 1.368 . S
C469 C453 1.349 . S
C469 H461 0.950 . S
C469 C467 1.327 . S
C470 C458 1.349 . S
C470 H464 0.950 . S
C470 C471 1.327 . S
C471 H465 0.950 . S
C471 C470 1.327 . S
C471 C475 1.429 . S
C472 C455 1.574 . S
C472 H466 0.949 . S
C472 C476 1.368 . S
C473 C454 1.429 . S
C473 C467 1.429 . S
C473 C474 1.523 . S
C474 C455 1.368 . S
C474 C468 1.368 . S
C474 C473 1.523 . S
C475 C459 1.429 . S
C475 C471 1.429 . S
C475 C476 1.523 . S
C476 C460 1.368 . S
C476 C472 1.368 . S
C476 C475 1.523 . S
H477 C452 0.950 . S
H478 C454 0.950 . S
H479 C455 0.949 . S
H480 C457 0.950 . S
H481 C459 0.950 . S
C482 C483 1.349 . S
C482 C484 1.327 . S
C482 H507 0.950 . S
C483 C482 1.349 . S
C483 C499 1.349 . S
C484 C482 1.327 . S
C484 C503 1.429 . S
C484 H508 0.950 . S
C485 C502 1.574 . S
C485 C504 1.368 . S
C485 H509 0.949 . S
H486 C490 0.949 . S
C487 C488 1.349 . S
C487 C489 1.327 . S
C487 H510 0.950 . S
C488 C487 1.349 . S
C488 C500 1.349 . S
C489 C487 1.327 . S
C489 C505 1.429 . S
C489 H511 0.950 . S
C490 H486 0.949 . S
C490 C498 1.574 . S
C490 C506 1.368 . S
H491 C499 0.950 . S
H492 C497 0.950 . S
H493 C498 0.949 . S
H494 C500 0.950 . S
H495 C501 0.950 . S
H496 C502 0.949 . S
C497 H492 0.950 . S
C497 C499 1.327 . S
C497 C503 1.429 . S
C498 C490 1.574 . S
C498 H493 0.949 . S
C498 C504 1.368 . S
C499 C483 1.349 . S
C499 H491 0.950 . S
C499 C497 1.327 . S
C500 C488 1.349 . S
C500 H494 0.950 . S
C500 C501 1.327 . S
C501 H495 0.950 . S
C501 C500 1.327 . S
C501 C505 1.429 . S
C502 C485 1.574 . S
C502 H496 0.949 . S
C502 C506 1.368 . S
C503 C484 1.429 . S
C503 C497 1.429 . S
C503 C504 1.523 . S
C504 C485 1.368 . S
C504 C498 1.368 . S
C504 C503 1.523 . S
C505 C489 1.429 . S
C505 C501 1.429 . S
C505 C506 1.523 . S
C506 C490 1.368 . S
C506 C502 1.368 . S
C506 C505 1.523 . S
H507 C482 0.950 . S
H508 C484 0.950 . S
H509 C485 0.949 . S
H510 C487 0.950 . S
H511 C489 0.950 . S
C512 C513 1.349 . S
C512 C514 1.327 . S
C512 H537 0.950 . S
C513 C512 1.349 . S
C513 C529 1.349 . S
C514 C512 1.327 . S
C514 C533 1.429 . S
C514 H538 0.950 . S
C515 C532 1.574 . S
C515 C534 1.368 . S
C515 H539 0.949 . S
H516 C520 0.949 . S
C517 C518 1.349 . S
C517 C519 1.327 . S
C517 H540 0.950 . S
C518 C517 1.349 . S
C518 C530 1.349 . S
C519 C517 1.327 . S
C519 C535 1.429 . S
C519 H541 0.950 . S
C520 H516 0.949 . S
C520 C528 1.574 . S
C520 C536 1.368 . S
H521 C529 0.950 . S
H522 C527 0.950 . S
H523 C528 0.949 . S
H524 C530 0.950 . S
H525 C531 0.950 . S
H526 C532 0.949 . S
C527 H522 0.950 . S
C527 C529 1.327 . S
C527 C533 1.429 . S
C528 C520 1.574 . S
C528 H523 0.949 . S
C528 C534 1.368 . S
C529 C513 1.349 . S
C529 H521 0.950 . S
C529 C527 1.327 . S
C530 C518 1.349 . S
C530 H524 0.950 . S
C530 C531 1.327 . S
C531 H525 0.950 . S
C531 C530 1.327 . S
C531 C535 1.429 . S
C532 C515 1.574 . S
C532 H526 0.949 . S
C532 C536 1.368 . S
C533 C514 1.429 . S
C533 C527 1.429 . S
C533 C534 1.523 . S
C534 C515 1.368 . S
C534 C528 1.368 . S
C534 C533 1.523 . S
C535 C519 1.429 . S
C535 C531 1.429 . S
C535 C536 1.523 . S
C536 C520 1.368 . S
C536 C532 1.368 . S
C536 C535 1.523 . S
H537 C512 0.950 . S
H538 C514 0.950 . S
H539 C515 0.949 . S
H540 C517 0.950 . S
H541 C519 0.950 . S
C542 C543 1.349 . S
C542 C544 1.327 . S
C542 H567 0.950 . S
C543 C542 1.349 . S
C543 C559 1.349 . S
C544 C542 1.327 . S
C544 C563 1.429 . S
C544 H568 0.950 . S
C545 C562 1.574 . S
C545 C564 1.368 . S
C545 H569 0.949 . S
H546 C550 0.949 . S
C547 C548 1.349 . S
C547 C549 1.327 . S
C547 H570 0.950 . S
C548 C547 1.349 . S
C548 C560 1.349 . S
C549 C547 1.327 . S
C549 C565 1.429 . S
C549 H571 0.950 . S
C550 H546 0.949 . S
C550 C558 1.574 . S
C550 C566 1.368 . S
H551 C559 0.950 . S
H552 C557 0.950 . S
H553 C558 0.949 . S
H554 C560 0.950 . S
H555 C561 0.950 . S
H556 C562 0.949 . S
C557 H552 0.950 . S
C557 C559 1.327 . S
C557 C563 1.429 . S
C558 C550 1.574 . S
C558 H553 0.949 . S
C558 C564 1.368 . S
C559 C543 1.349 . S
C559 H551 0.950 . S
C559 C557 1.327 . S
C560 C548 1.349 . S
C560 H554 0.950 . S
C560 C561 1.327 . S
C561 H555 0.950 . S
C561 C560 1.327 . S
C561 C565 1.429 . S
C562 C545 1.574 . S
C562 H556 0.949 . S
C562 C566 1.368 . S
C563 C544 1.429 . S
C563 C557 1.429 . S
C563 C564 1.523 . S
C564 C545 1.368 . S
C564 C558 1.368 . S
C564 C563 1.523 . S
C565 C549 1.429 . S
C565 C561 1.429 . S
C565 C566 1.523 . S
C566 C550 1.368 . S
C566 C562 1.368 . S
C566 C565 1.523 . S
H567 C542 0.950 . S
H568 C544 0.950 . S
H569 C545 0.949 . S
H570 C547 0.950 . S
H571 C549 0.950 . S
C572 C573 1.349 . S
C572 C574 1.327 . S
C572 H597 0.950 . S
C573 C572 1.349 . S
C573 C589 1.349 . S
C574 C572 1.327 . S
C574 C593 1.429 . S
C574 H598 0.950 . S
C575 C592 1.574 . S
C575 C594 1.368 . S
C575 H599 0.949 . S
H576 C580 0.949 . S
C577 C578 1.349 . S
C577 C579 1.327 . S
C577 H600 0.950 . S
C578 C577 1.349 . S
C578 C590 1.349 . S
C579 C577 1.327 . S
C579 C595 1.429 . S
C579 H601 0.950 . S
C580 H576 0.949 . S
C580 C588 1.574 . S
C580 C596 1.368 . S
H581 C589 0.950 . S
H582 C587 0.950 . S
H583 C588 0.949 . S
H584 C590 0.950 . S
H585 C591 0.950 . S
H586 C592 0.949 . S
C587 H582 0.950 . S
C587 C589 1.327 . S
C587 C593 1.429 . S
C588 C580 1.574 . S
C588 H583 0.949 . S
C588 C594 1.368 . S
C589 C573 1.349 . S
C589 H581 0.950 . S
C589 C587 1.327 . S
C590 C578 1.349 . S
C590 H584 0.950 . S
C590 C591 1.327 . S
C591 H585 0.950 . S
C591 C590 1.327 . S
C591 C595 1.429 . S
C592 C575 1.574 . S
C592 H586 0.949 . S
C592 C596 1.368 . S
C593 C574 1.429 . S
C593 C587 1.429 . S
C593 C594 1.523 . S
C594 C575 1.368 . S
C594 C588 1.368 . S
C594 C593 1.523 . S
C595 C579 1.429 . S
C595 C591 1.429 . S
C595 C596 1.523 . S
C596 C580 1.368 . S
C596 C592 1.368 . S
C596 C595 1.523 . S
H597 C572 0.950 . S
H598 C574 0.950 . S
H599 C575 0.949 . S
H600 C577 0.950 . S
H601 C579 0.950 . S
C602 C603 1.349 . S
C602 C604 1.327 . S
C602 H627 0.950 . S
C603 C602 1.349 . S
C603 C619 1.349 . S
C604 C602 1.327 . S
C604 C623 1.429 . S
C604 H628 0.950 . S
C605 C622 1.574 . S
C605 C624 1.368 . S
C605 H629 0.949 . S
H606 C610 0.949 . S
C607 C608 1.349 . S
C607 C609 1.327 . S
C607 H630 0.950 . S
C608 C607 1.349 . S
C608 C620 1.349 . S
C609 C607 1.327 . S
C609 C625 1.429 . S
C609 H631 0.950 . S
C610 H606 0.949 . S
C610 C618 1.574 . S
C610 C626 1.368 . S
H611 C619 0.950 . S
H612 C617 0.950 . S
H613 C618 0.949 . S
H614 C620 0.950 . S
H615 C621 0.950 . S
H616 C622 0.949 . S
C617 H612 0.950 . S
C617 C619 1.327 . S
C617 C623 1.429 . S
C618 C610 1.574 . S
C618 H613 0.949 . S
C618 C624 1.368 . S
C619 C603 1.349 . S
C619 H611 0.950 . S
C619 C617 1.327 . S
C620 C608 1.349 . S
C620 H614 0.950 . S
C620 C621 1.327 . S
C621 H615 0.950 . S
C621 C620 1.327 . S
C621 C625 1.429 . S
C622 C605 1.574 . S
C622 H616 0.949 . S
C622 C626 1.368 . S
C623 C604 1.429 . S
C623 C617 1.429 . S
C623 C624 1.523 . S
C624 C605 1.368 . S
C624 C618 1.368 . S
C624 C623 1.523 . S
C625 C609 1.429 . S
C625 C621 1.429 . S
C625 C626 1.523 . S
C626 C610 1.368 . S
C626 C622 1.368 . S
C626 C625 1.523 . S
H627 C602 0.950 . S
H628 C604 0.950 . S
H629 C605 0.949 . S
H630 C607 0.950 . S
H631 C609 0.950 . S
C632 C633 1.349 . S
C632 C634 1.327 . S
C632 H657 0.950 . S
C633 C632 1.349 . S
C633 C649 1.349 . S
C634 C632 1.327 . S
C634 C653 1.429 . S
C634 H658 0.950 . S
C635 C652 1.574 . S
C635 C654 1.368 . S
C635 H659 0.949 . S
H636 C640 0.949 . S
C637 C638 1.349 . S
C637 C639 1.327 . S
C637 H660 0.950 . S
C638 C637 1.349 . S
C638 C650 1.349 . S
C639 C637 1.327 . S
C639 C655 1.429 . S
C639 H661 0.950 . S
C640 H636 0.949 . S
C640 C648 1.574 . S
C640 C656 1.368 . S
H641 C649 0.950 . S
H642 C647 0.950 . S
H643 C648 0.949 . S
H644 C650 0.950 . S
H645 C651 0.950 . S
H646 C652 0.949 . S
C647 H642 0.950 . S
C647 C649 1.327 . S
C647 C653 1.429 . S
C648 C640 1.574 . S
C648 H643 0.949 . S
C648 C654 1.368 . S
C649 C633 1.349 . S
C649 H641 0.950 . S
C649 C647 1.327 . S
C650 C638 1.349 . S
C650 H644 0.950 . S
C650 C651 1.327 . S
C651 H645 0.950 . S
C651 C650 1.327 . S
C651 C655 1.429 . S
C652 C635 1.574 . S
C652 H646 0.949 . S
C652 C656 1.368 . S
C653 C634 1.429 . S
C653 C647 1.429 . S
C653 C654 1.523 . S
C654 C635 1.368 . S
C654 C648 1.368 . S
C654 C653 1.523 . S
C655 C639 1.429 . S
C655 C651 1.429 . S
C655 C656 1.523 . S
C656 C640 1.368 . S
C656 C652 1.368 . S
C656 C655 1.523 . S
H657 C632 0.950 . S
H658 C634 0.950 . S
H659 C635 0.949 . S
H660 C637 0.950 . S
H661 C639 0.950 . S
C662 C663 1.349 . S
C662 C664 1.327 . S
C662 H687 0.950 . S
C663 C662 1.349 . S
C663 C679 1.349 . S
C664 C662 1.327 . S
C664 C683 1.429 . S
C664 H688 0.950 . S
C665 C682 1.574 . S
C665 C684 1.368 . S
C665 H689 0.949 . S
H666 C670 0.949 . S
C667 C668 1.349 . S
C667 C669 1.327 . S
C667 H690 0.950 . S
C668 C667 1.349 . S
C668 C680 1.349 . S
C669 C667 1.327 . S
C669 C685 1.429 . S
C669 H691 0.950 . S
C670 H666 0.949 . S
C670 C678 1.574 . S
C670 C686 1.368 . S
H671 C679 0.950 . S
H672 C677 0.950 . S
H673 C678 0.949 . S
H674 C680 0.950 . S
H675 C681 0.950 . S
H676 C682 0.949 . S
C677 H672 0.950 . S
C677 C679 1.327 . S
C677 C683 1.429 . S
C678 C670 1.574 . S
C678 H673 0.949 . S
C678 C684 1.368 . S
C679 C663 1.349 . S
C679 H671 0.950 . S
C679 C677 1.327 . S
C680 C668 1.349 . S
C680 H674 0.950 . S
C680 C681 1.327 . S
C681 H675 0.950 . S
C681 C680 1.327 . S
C681 C685 1.429 . S
C682 C665 1.574 . S
C682 H676 0.949 . S
C682 C686 1.368 . S
C683 C664 1.429 . S
C683 C677 1.429 . S
C683 C684 1.523 . S
C684 C665 1.368 . S
C684 C678 1.368 . S
C684 C683 1.523 . S
C685 C669 1.429 . S
C685 C681 1.429 . S
C685 C686 1.523 . S
C686 C670 1.368 . S
C686 C682 1.368 . S
C686 C685 1.523 . S
H687 C662 0.950 . S
H688 C664 0.950 . S
H689 C665 0.949 . S
H690 C667 0.950 . S
H691 C669 0.950 . S
C692 C693 1.349 . S
C692 C694 1.327 . S
C692 H717 0.950 . S
C693 C692 1.349 . S
C693 C709 1.349 . S
C694 C692 1.327 . S
C694 C713 1.429 . S
C694 H718 0.950 . S
C695 C712 1.574 . S
C695 C714 1.368 . S
C695 H719 0.949 . S
H696 C700 0.949 . S
C697 C698 1.349 . S
C697 C699 1.327 . S
C697 H720 0.950 . S
C698 C697 1.349 . S
C698 C710 1.349 . S
C699 C697 1.327 . S
C699 C715 1.429 . S
C699 H721 0.950 . S
C700 H696 0.949 . S
C700 C708 1.574 . S
C700 C716 1.368 . S
H701 C709 0.950 . S
H702 C707 0.950 . S
H703 C708 0.949 . S
H704 C710 0.950 . S
H705 C711 0.950 . S
H706 C712 0.949 . S
C707 H702 0.950 . S
C707 C709 1.327 . S
C707 C713 1.429 . S
C708 C700 1.574 . S
C708 H703 0.949 . S
C708 C714 1.368 . S
C709 C693 1.349 . S
C709 H701 0.950 . S
C709 C707 1.327 . S
C710 C698 1.349 . S
C710 H704 0.950 . S
C710 C711 1.327 . S
C711 H705 0.950 . S
C711 C710 1.327 . S
C711 C715 1.429 . S
C712 C695 1.574 . S
C712 H706 0.949 . S
C712 C716 1.368 . S
C713 C694 1.429 . S
C713 C707 1.429 . S
C713 C714 1.523 . S
C714 C695 1.368 . S
C714 C708 1.368 . S
C714 C713 1.523 . S
C715 C699 1.429 . S
C715 C711 1.429 . S
C715 C716 1.523 . S
C716 C700 1.368 . S
C716 C712 1.368 . S
C716 C715 1.523 . S
H717 C692 0.950 . S
H718 C694 0.950 . S
H719 C695 0.949 . S
H720 C697 0.950 . S
H721 C699 0.950 . S
C722 C723 1.349 . S
C722 C724 1.327 . S
C722 H747 0.950 . S
C723 C722 1.349 . S
C723 C739 1.349 . S
C724 C722 1.327 . S
C724 C743 1.429 . S
C724 H748 0.950 . S
C725 C742 1.574 . S
C725 C744 1.368 . S
C725 H749 0.949 . S
H726 C730 0.949 . S
C727 C728 1.349 . S
C727 C729 1.327 . S
C727 H750 0.950 . S
C728 C727 1.349 . S
C728 C740 1.349 . S
C729 C727 1.327 . S
C729 C745 1.429 . S
C729 H751 0.950 . S
C730 H726 0.949 . S
C730 C738 1.574 . S
C730 C746 1.368 . S
H731 C739 0.950 . S
H732 C737 0.950 . S
H733 C738 0.949 . S
H734 C740 0.950 . S
H735 C741 0.950 . S
H736 C742 0.949 . S
C737 H732 0.950 . S
C737 C739 1.327 . S
C737 C743 1.429 . S
C738 C730 1.574 . S
C738 H733 0.949 . S
C738 C744 1.368 . S
C739 C723 1.349 . S
C739 H731 0.950 . S
C739 C737 1.327 . S
C740 C728 1.349 . S
C740 H734 0.950 . S
C740 C741 1.327 . S
C741 H735 0.950 . S
C741 C740 1.327 . S
C741 C745 1.429 . S
C742 C725 1.574 . S
C742 H736 0.949 . S
C742 C746 1.368 . S
C743 C724 1.429 . S
C743 C737 1.429 . S
C743 C744 1.523 . S
C744 C725 1.368 . S
C744 C738 1.368 . S
C744 C743 1.523 . S
C745 C729 1.429 . S
C745 C741 1.429 . S
C745 C746 1.523 . S
C746 C730 1.368 . S
C746 C742 1.368 . S
C746 C745 1.523 . S
H747 C722 0.950 . S
H748 C724 0.950 . S
H749 C725 0.949 . S
H750 C727 0.950 . S
H751 C729 0.950 . S
C752 C753 1.349 . S
C752 C754 1.327 . S
C752 H777 0.950 . S
C753 C752 1.349 . S
C753 C769 1.349 . S
C754 C752 1.327 . S
C754 C773 1.429 . S
C754 H778 0.950 . S
C755 C772 1.574 . S
C755 C774 1.368 . S
C755 H779 0.949 . S
H756 C760 0.949 . S
C757 C758 1.349 . S
C757 C759 1.327 . S
C757 H780 0.950 . S
C758 C757 1.349 . S
C758 C770 1.349 . S
C759 C757 1.327 . S
C759 C775 1.429 . S
C759 H781 0.950 . S
C760 H756 0.949 . S
C760 C768 1.574 . S
C760 C776 1.368 . S
H761 C769 0.950 . S
H762 C767 0.950 . S
H763 C768 0.949 . S
H764 C770 0.950 . S
H765 C771 0.950 . S
H766 C772 0.949 . S
C767 H762 0.950 . S
C767 C769 1.327 . S
C767 C773 1.429 . S
C768 C760 1.574 . S
C768 H763 0.949 . S
C768 C774 1.368 . S
C769 C753 1.349 . S
C769 H761 0.950 . S
C769 C767 1.327 . S
C770 C758 1.349 . S
C770 H764 0.950 . S
C770 C771 1.327 . S
C771 H765 0.950 . S
C771 C770 1.327 . S
C771 C775 1.429 . S
C772 C755 1.574 . S
C772 H766 0.949 . S
C772 C776 1.368 . S
C773 C754 1.429 . S
C773 C767 1.429 . S
C773 C774 1.523 . S
C774 C755 1.368 . S
C774 C768 1.368 . S
C774 C773 1.523 . S
C775 C759 1.429 . S
C775 C771 1.429 . S
C775 C776 1.523 . S
C776 C760 1.368 . S
C776 C772 1.368 . S
C776 C775 1.523 . S
H777 C752 0.950 . S
H778 C754 0.950 . S
H779 C755 0.949 . S
H780 C757 0.950 . S
H781 C759 0.950 . S
C782 C783 1.349 . S
C782 C784 1.327 . S
C782 H807 0.950 . S
C783 C782 1.349 . S
C783 C799 1.349 . S
C784 C782 1.327 . S
C784 C803 1.429 . S
C784 H808 0.950 . S
C785 C802 1.574 . S
C785 C804 1.368 . S
C785 H809 0.949 . S
H786 C790 0.949 . S
C787 C788 1.349 . S
C787 C789 1.327 . S
C787 H810 0.950 . S
C788 C787 1.349 . S
C788 C800 1.349 . S
C789 C787 1.327 . S
C789 C805 1.429 . S
C789 H811 0.950 . S
C790 H786 0.949 . S
C790 C798 1.574 . S
C790 C806 1.368 . S
H791 C799 0.950 . S
H792 C797 0.950 . S
H793 C798 0.949 . S
H794 C800 0.950 . S
H795 C801 0.950 . S
H796 C802 0.949 . S
C797 H792 0.950 . S
C797 C799 1.327 . S
C797 C803 1.429 . S
C798 C790 1.574 . S
C798 H793 0.949 . S
C798 C804 1.368 . S
C799 C783 1.349 . S
C799 H791 0.950 . S
C799 C797 1.327 . S
C800 C788 1.349 . S
C800 H794 0.950 . S
C800 C801 1.327 . S
C801 H795 0.950 . S
C801 C800 1.327 . S
C801 C805 1.429 . S
C802 C785 1.574 . S
C802 H796 0.949 . S
C802 C806 1.368 . S
C803 C784 1.429 . S
C803 C797 1.429 . S
C803 C804 1.523 . S
C804 C785 1.368 . S
C804 C798 1.368 . S
C804 C803 1.523 . S
C805 C789 1.429 . S
C805 C801 1.429 . S
C805 C806 1.523 . S
C806 C790 1.368 . S
C806 C802 1.368 . S
C806 C805 1.523 . S
H807 C782 0.950 . S
H808 C784 0.950 . S
H809 C785 0.949 . S
H810 C787 0.950 . S
H811 C789 0.950 . S
C812 C813 1.349 . S
C812 C814 1.327 . S
C812 H837 0.950 . S
C813 C812 1.349 . S
C813 C829 1.349 . S
C814 C812 1.327 . S
C814 C833 1.429 . S
C814 H838 0.950 . S
C815 C832 1.574 . S
C815 C834 1.368 . S
C815 H839 0.949 . S
H816 C820 0.949 . S
C817 C818 1.349 . S
C817 C819 1.327 . S
C817 H840 0.950 . S
C818 C817 1.349 . S
C818 C830 1.349 . S
C819 C817 1.327 . S
C819 C835 1.429 . S
C819 H841 0.950 . S
C820 H816 0.949 . S
C820 C828 1.574 . S
C820 C836 1.368 . S
H821 C829 0.950 . S
H822 C827 0.950 . S
H823 C828 0.949 . S
H824 C830 0.950 . S
H825 C831 0.950 . S
H826 C832 0.949 . S
C827 H822 0.950 . S
C827 C829 1.327 . S
C827 C833 1.429 . S
C828 C820 1.574 . S
C828 H823 0.949 . S
C828 C834 1.368 . S
C829 C813 1.349 . S
C829 H821 0.950 . S
C829 C827 1.327 . S
C830 C818 1.349 . S
C830 H824 0.950 . S
C830 C831 1.327 . S
C831 H825 0.950 . S
C831 C830 1.327 . S
C831 C835 1.429 . S
C832 C815 1.574 . S
C832 H826 0.949 . S
C832 C836 1.368 . S
C833 C814 1.429 . S
C833 C827 1.429 . S
C833 C834 1.523 . S
C834 C815 1.368 . S
C834 C828 1.368 . S
C834 C833 1.523 . S
C835 C819 1.429 . S
C835 C831 1.429 . S
C835 C836 1.523 . S
C836 C820 1.368 . S
C836 C832 1.368 . S
C836 C835 1.523 . S
H837 C812 0.950 . S
H838 C814 0.950 . S
H839 C815 0.949 . S
H840 C817 0.950 . S
H841 C819 0.950 . S
C842 C843 1.349 . S
C842 C844 1.327 . S
C842 H867 0.950 . S
C843 C842 1.349 . S
C843 C859 1.349 . S
C844 C842 1.327 . S
C844 C863 1.429 . S
C844 H868 0.950 . S
C845 C862 1.574 . S
C845 C864 1.368 . S
C845 H869 0.949 . S
H846 C850 0.949 . S
C847 C848 1.349 . S
C847 C849 1.327 . S
C847 H870 0.950 . S
C848 C847 1.349 . S
C848 C860 1.349 . S
C849 C847 1.327 . S
C849 C865 1.429 . S
C849 H871 0.950 . S
C850 H846 0.949 . S
C850 C858 1.574 . S
C850 C866 1.368 . S
H851 C859 0.950 . S
H852 C857 0.950 . S
H853 C858 0.949 . S
H854 C860 0.950 . S
H855 C861 0.950 . S
H856 C862 0.949 . S
C857 H852 0.950 . S
C857 C859 1.327 . S
C857 C863 1.429 . S
C858 C850 1.574 . S
C858 H853 0.949 . S
C858 C864 1.368 . S
C859 C843 1.349 . S
C859 H851 0.950 . S
C859 C857 1.327 . S
C860 C848 1.349 . S
C860 H854 0.950 . S
C860 C861 1.327 . S
C861 H855 0.950 . S
C861 C860 1.327 . S
C861 C865 1.429 . S
C862 C845 1.574 . S
C862 H856 0.949 . S
C862 C866 1.368 . S
C863 C844 1.429 . S
C863 C857 1.429 . S
C863 C864 1.523 . S
C864 C845 1.368 . S
C864 C858 1.368 . S
C864 C863 1.523 . S
C865 C849 1.429 . S
C865 C861 1.429 . S
C865 C866 1.523 . S
C866 C850 1.368 . S
C866 C862 1.368 . S
C866 C865 1.523 . S
H867 C842 0.950 . S
H868 C844 0.950 . S
H869 C845 0.949 . S
H870 C847 0.950 . S
H871 C849 0.950 . S
C872 C873 1.349 . S
C872 C874 1.327 . S
C872 H897 0.950 . S
C873 C872 1.349 . S
C873 C889 1.349 . S
C874 C872 1.327 . S
C874 C893 1.429 . S
C874 H898 0.950 . S
C875 C892 1.574 . S
C875 C894 1.368 . S
C875 H899 0.949 . S
H876 C880 0.949 . S
C877 C878 1.349 . S
C877 C879 1.327 . S
C877 H900 0.950 . S
C878 C877 1.349 . S
C878 C890 1.349 . S
C879 C877 1.327 . S
C879 C895 1.429 . S
C879 H901 0.950 . S
C880 H876 0.949 . S
C880 C888 1.574 . S
C880 C896 1.368 . S
H881 C889 0.950 . S
H882 C887 0.950 . S
H883 C888 0.949 . S
H884 C890 0.950 . S
H885 C891 0.950 . S
H886 C892 0.949 . S
C887 H882 0.950 . S
C887 C889 1.327 . S
C887 C893 1.429 . S
C888 C880 1.574 . S
C888 H883 0.949 . S
C888 C894 1.368 . S
C889 C873 1.349 . S
C889 H881 0.950 . S
C889 C887 1.327 . S
C890 C878 1.349 . S
C890 H884 0.950 . S
C890 C891 1.327 . S
C891 H885 0.950 . S
C891 C890 1.327 . S
C891 C895 1.429 . S
C892 C875 1.574 . S
C892 H886 0.949 . S
C892 C896 1.368 . S
C893 C874 1.429 . S
C893 C887 1.429 . S
C893 C894 1.523 . S
C894 C875 1.368 . S
C894 C888 1.368 . S
C894 C893 1.523 . S
C895 C879 1.429 . S
C895 C891 1.429 . S
C895 C896 1.523 . S
C896 C880 1.368 . S
C896 C892 1.368 . S
C896 C895 1.523 . S
H897 C872 0.950 . S
H898 C874 0.950 . S
H899 C875 0.949 . S
H900 C877 0.950 . S
H901 C879 0.950 . S
C902 C903 1.349 . S
C902 C904 1.327 . S
C902 H927 0.950 . S
C903 C902 1.349 . S
C903 C919 1.349 . S
C904 C902 1.327 . S
C904 C923 1.429 . S
C904 H928 0.950 . S
C905 C922 1.574 . S
C905 C924 1.368 . S
C905 H929 0.949 . S
H906 C910 0.949 . S
C907 C908 1.349 . S
C907 C909 1.327 . S
C907 H930 0.950 . S
C908 C907 1.349 . S
C908 C920 1.349 . S
C909 C907 1.327 . S
C909 C925 1.429 . S
C909 H931 0.950 . S
C910 H906 0.949 . S
C910 C918 1.574 . S
C910 C926 1.368 . S
H911 C919 0.950 . S
H912 C917 0.950 . S
H913 C918 0.949 . S
H914 C920 0.950 . S
H915 C921 0.950 . S
H916 C922 0.949 . S
C917 H912 0.950 . S
C917 C919 1.327 . S
C917 C923 1.429 . S
C918 C910 1.574 . S
C918 H913 0.949 . S
C918 C924 1.368 . S
C919 C903 1.349 . S
C919 H911 0.950 . S
C919 C917 1.327 . S
C920 C908 1.349 . S
C920 H914 0.950 . S
C920 C921 1.327 . S
C921 H915 0.950 . S
C921 C920 1.327 . S
C921 C925 1.429 . S
C922 C905 1.574 . S
C922 H916 0.949 . S
C922 C926 1.368 . S
C923 C904 1.429 . S
C923 C917 1.429 . S
C923 C924 1.523 . S
C924 C905 1.368 . S
C924 C918 1.368 . S
C924 C923 1.523 . S
C925 C909 1.429 . S
C925 C921 1.429 . S
C925 C926 1.523 . S
C926 C910 1.368 . S
C926 C922 1.368 . S
C926 C925 1.523 . S
H927 C902 0.950 . S
H928 C904 0.950 . S
H929 C905 0.949 . S
H930 C907 0.950 . S
H931 C909 0.950 . S
C932 C933 1.349 . S
C932 C934 1.327 . S
C932 H957 0.950 . S
C933 C932 1.349 . S
C933 C949 1.349 . S
C934 C932 1.327 . S
C934 C953 1.429 . S
C934 H958 0.950 . S
C935 C952 1.574 . S
C935 C954 1.368 . S
C935 H959 0.949 . S
H936 C940 0.949 . S
C937 C938 1.349 . S
C937 C939 1.327 . S
C937 H960 0.950 . S
C938 C937 1.349 . S
C938 C950 1.349 . S
C939 C937 1.327 . S
C939 C955 1.429 . S
C939 H961 0.950 . S
C940 H936 0.949 . S
C940 C948 1.574 . S
C940 C956 1.368 . S
H941 C949 0.950 . S
H942 C947 0.950 . S
H943 C948 0.949 . S
H944 C950 0.950 . S
H945 C951 0.950 . S
H946 C952 0.949 . S
C947 H942 0.950 . S
C947 C949 1.327 . S
C947 C953 1.429 . S
C948 C940 1.574 . S
C948 H943 0.949 . S
C948 C954 1.368 . S
C949 C933 1.349 . S
C949 H941 0.950 . S
C949 C947 1.327 . S
C950 C938 1.349 . S
C950 H944 0.950 . S
C950 C951 1.327 . S
C951 H945 0.950 . S
C951 C950 1.327 . S
C951 C955 1.429 . S
C952 C935 1.574 . S
C952 H946 0.949 . S
C952 C956 1.368 . S
C953 C934 1.429 . S
C953 C947 1.429 . S
C953 C954 1.523 . S
C954 C935 1.368 . S
C954 C948 1.368 . S
C954 C953 1.523 . S
C955 C939 1.429 . S
C955 C951 1.429 . S
C955 C956 1.523 . S
C956 C940 1.368 . S
C956 C952 1.368 . S
C956 C955 1.523 . S
H957 C932 0.950 . S
H958 C934 0.950 . S
H959 C935 0.949 . S
H960 C937 0.950 . S
H961 C939 0.950 . S
C962 C963 1.349 . S
C962 C964 1.327 . S
C962 H987 0.950 . S
C963 C962 1.349 . S
C963 C979 1.349 . S
C964 C962 1.327 . S
C964 C983 1.429 . S
C964 H988 0.950 . S
C965 C982 1.574 . S
C965 C984 1.368 . S
C965 H989 0.949 . S
H966 C970 0.949 . S
C967 C968 1.349 . S
C967 C969 1.327 . S
C967 H990 0.950 . S
C968 C967 1.349 . S
C968 C980 1.349 . S
C969 C967 1.327 . S
C969 C985 1.429 . S
C969 H991 0.950 . S
C970 H966 0.949 . S
C970 C978 1.574 . S
C970 C986 1.368 . S
H971 C979 0.950 . S
H972 C977 0.950 . S
H973 C978 0.949 . S
H974 C980 0.950 . S
H975 C981 0.950 . S
H976 C982 0.949 . S
C977 H972 0.950 . S
C977 C979 1.327 . S
C977 C983 1.429 . S
C978 C970 1.574 . S
C978 H973 0.949 . S
C978 C984 1.368 . S
C979 C963 1.349 . S
C979 H971 0.950 . S
C979 C977 1.327 . S
C980 C968 1.349 . S
C980 H974 0.950 . S
C980 C981 1.327 . S
C981 H975 0.950 . S
C981 C980 1.327 . S
C981 C985 1.429 . S
C982 C965 1.574 . S
C982 H976 0.949 . S
C982 C986 1.368 . S
C983 C964 1.429 . S
C983 C977 1.429 . S
C983 C984 1.523 . S
C984 C965 1.368 . S
C984 C978 1.368 . S
C984 C983 1.523 . S
C985 C969 1.429 . S
C985 C981 1.429 . S
C985 C986 1.523 . S
C986 C970 1.368 . S
C986 C982 1.368 . S
C986 C985 1.523 . S
H987 C962 0.950 . S
H988 C964 0.950 . S
H989 C965 0.949 . S
H990 C967 0.950 . S
H991 C969 0.950 . S
C992 C993 1.349 . S
C992 C994 1.327 . S
C992 H1017 0.950 . S
C993 C992 1.349 . S
C993 C1009 1.349 . S
C994 C992 1.327 . S
C994 C1013 1.429 . S
C994 H1018 0.950 . S
C995 C1012 1.574 . S
C995 C1014 1.368 . S
C995 H1019 0.949 . S
H996 C1000 0.949 . S
C997 C998 1.349 . S
C997 C999 1.327 . S
C997 H1020 0.950 . S
C998 C997 1.349 . S
C998 C1010 1.349 . S
C999 C997 1.327 . S
C999 C1015 1.429 . S
C999 H1021 0.950 . S
C1000 H996 0.949 . S
C1000 C1008 1.574 . S
C1000 C1016 1.368 . S
H1001 C1009 0.950 . S
H1002 C1007 0.950 . S
H1003 C1008 0.949 . S
H1004 C1010 0.950 . S
H1005 C1011 0.950 . S
H1006 C1012 0.949 . S
C1007 H1002 0.950 . S
C1007 C1009 1.327 . S
C1007 C1013 1.429 . S
C1008 C1000 1.574 . S
C1008 H1003 0.949 . S
C1008 C1014 1.368 . S
C1009 C993 1.349 . S
C1009 H1001 0.950 . S
C1009 C1007 1.327 . S
C1010 C998 1.349 . S
C1010 H1004 0.950 . S
C1010 C1011 1.327 . S
C1011 H1005 0.950 . S
C1011 C1010 1.327 . S
C1011 C1015 1.429 . S
C1012 C995 1.574 . S
C1012 H1006 0.949 . S
C1012 C1016 1.368 . S
C1013 C994 1.429 . S
C1013 C1007 1.429 . S
C1013 C1014 1.523 . S
C1014 C995 1.368 . S
C1014 C1008 1.368 . S
C1014 C1013 1.523 . S
C1015 C999 1.429 . S
C1015 C1011 1.429 . S
C1015 C1016 1.523 . S
C1016 C1000 1.368 . S
C1016 C1012 1.368 . S
C1016 C1015 1.523 . S
H1017 C992 0.950 . S
H1018 C994 0.950 . S
H1019 C995 0.949 . S
H1020 C997 0.950 . S
H1021 C999 0.950 . S
C1022 C1023 1.349 . S
C1022 C1024 1.327 . S
C1022 H1047 0.950 . S
C1023 C1022 1.349 . S
C1023 C1039 1.349 . S
C1024 C1022 1.327 . S
C1024 C1043 1.429 . S
C1024 H1048 0.950 . S
C1025 C1042 1.574 . S
C1025 C1044 1.368 . S
C1025 H1049 0.949 . S
H1026 C1030 0.949 . S
C1027 C1028 1.349 . S
C1027 C1029 1.327 . S
C1027 H1050 0.950 . S
C1028 C1027 1.349 . S
C1028 C1040 1.349 . S
C1029 C1027 1.327 . S
C1029 C1045 1.429 . S
C1029 H1051 0.950 . S
C1030 H1026 0.949 . S
C1030 C1038 1.574 . S
C1030 C1046 1.368 . S
H1031 C1039 0.950 . S
H1032 C1037 0.950 . S
H1033 C1038 0.949 . S
H1034 C1040 0.950 . S
H1035 C1041 0.950 . S
H1036 C1042 0.949 . S
C1037 H1032 0.950 . S
C1037 C1039 1.327 . S
C1037 C1043 1.429 . S
C1038 C1030 1.574 . S
C1038 H1033 0.949 . S
C1038 C1044 1.368 . S
C1039 C1023 1.349 . S
C1039 H1031 0.950 . S
C1039 C1037 1.327 . S
C1040 C1028 1.349 . S
C1040 H1034 0.950 . S
C1040 C1041 1.327 . S
C1041 H1035 0.950 . S
C1041 C1040 1.327 . S
C1041 C1045 1.429 . S
C1042 C1025 1.574 . S
C1042 H1036 0.949 . S
C1042 C1046 1.368 . S
C1043 C1024 1.429 . S
C1043 C1037 1.429 . S
C1043 C1044 1.523 . S
C1044 C1025 1.368 . S
C1044 C1038 1.368 . S
C1044 C1043 1.523 . S
C1045 C1029 1.429 . S
C1045 C1041 1.429 . S
C1045 C1046 1.523 . S
C1046 C1030 1.368 . S
C1046 C1042 1.368 . S
C1046 C1045 1.523 . S
H1047 C1022 0.950 . S
H1048 C1024 0.950 . S
H1049 C1025 0.949 . S
H1050 C1027 0.950 . S
H1051 C1029 0.950 . S
C1052 C1053 1.349 . S
C1052 C1054 1.327 . S
C1052 H1077 0.950 . S
C1053 C1052 1.349 . S
C1053 C1069 1.349 . S
C1054 C1052 1.327 . S
C1054 C1073 1.429 . S
C1054 H1078 0.950 . S
C1055 C1072 1.574 . S
C1055 C1074 1.368 . S
C1055 H1079 0.949 . S
H1056 C1060 0.949 . S
C1057 C1058 1.349 . S
C1057 C1059 1.327 . S
C1057 H1080 0.950 . S
C1058 C1057 1.349 . S
C1058 C1070 1.349 . S
C1059 C1057 1.327 . S
C1059 C1075 1.429 . S
C1059 H1081 0.950 . S
C1060 H1056 0.949 . S
C1060 C1068 1.574 . S
C1060 C1076 1.368 . S
H1061 C1069 0.950 . S
H1062 C1067 0.950 . S
H1063 C1068 0.949 . S
H1064 C1070 0.950 . S
H1065 C1071 0.950 . S
H1066 C1072 0.949 . S
C1067 H1062 0.950 . S
C1067 C1069 1.327 . S
C1067 C1073 1.429 . S
C1068 C1060 1.574 . S
C1068 H1063 0.949 . S
C1068 C1074 1.368 . S
C1069 C1053 1.349 . S
C1069 H1061 0.950 . S
C1069 C1067 1.327 . S
C1070 C1058 1.349 . S
C1070 H1064 0.950 . S
C1070 C1071 1.327 . S
C1071 H1065 0.950 . S
C1071 C1070 1.327 . S
C1071 C1075 1.429 . S
C1072 C1055 1.574 . S
C1072 H1066 0.949 . S
C1072 C1076 1.368 . S
C1073 C1054 1.429 . S
C1073 C1067 1.429 . S
C1073 C1074 1.523 . S
C1074 C1055 1.368 . S
C1074 C1068 1.368 . S
C1074 C1073 1.523 . S
C1075 C1059 1.429 . S
C1075 C1071 1.429 . S
C1075 C1076 1.523 . S
C1076 C1060 1.368 . S
C1076 C1072 1.368 . S
C1076 C1075 1.523 . S
H1077 C1052 0.950 . S
H1078 C1054 0.950 . S
H1079 C1055 0.949 . S
H1080 C1057 0.950 . S
H1081 C1059 0.950 . S
C1082 C1083 1.349 . S
C1082 C1084 1.327 . S
C1082 H1107 0.950 . S
C1083 C1082 1.349 . S
C1083 C1099 1.349 . S
C1084 C1082 1.327 . S
C1084 C1103 1.429 . S
C1084 H1108 0.950 . S
C1085 C1102 1.574 . S
C1085 C1104 1.368 . S
C1085 H1109 0.949 . S
H1086 C1090 0.949 . S
C1087 C1088 1.349 . S
C1087 C1089 1.327 . S
C1087 H1110 0.950 . S
C1088 C1087 1.349 . S
C1088 C1100 1.349 . S
C1089 C1087 1.327 . S
C1089 C1105 1.429 . S
C1089 H1111 0.950 . S
C1090 H1086 0.949 . S
C1090 C1098 1.574 . S
C1090 C1106 1.368 . S
H1091 C1099 0.950 . S
H1092 C1097 0.950 . S
H1093 C1098 0.949 . S
H1094 C1100 0.950 . S
H1095 C1101 0.950 . S
H1096 C1102 0.949 . S
C1097 H1092 0.950 . S
C1097 C1099 1.327 . S
C1097 C1103 1.429 . S
C1098 C1090 1.574 . S
C1098 H1093 0.949 . S
C1098 C1104 1.368 . S
C1099 C1083 1.349 . S
C1099 H1091 0.950 . S
C1099 C1097 1.327 . S
C1100 C1088 1.349 . S
C1100 H1094 0.950 . S
C1100 C1101 1.327 . S
C1101 H1095 0.950 . S
C1101 C1100 1.327 . S
C1101 C1105 1.429 . S
C1102 C1085 1.574 . S
C1102 H1096 0.949 . S
C1102 C1106 1.368 . S
C1103 C1084 1.429 . S
C1103 C1097 1.429 . S
C1103 C1104 1.523 . S
C1104 C1085 1.368 . S
C1104 C1098 1.368 . S
C1104 C1103 1.523 . S
C1105 C1089 1.429 . S
C1105 C1101 1.429 . S
C1105 C1106 1.523 . S
C1106 C1090 1.368 . S
C1106 C1102 1.368 . S
C1106 C1105 1.523 . S
H1107 C1082 0.950 . S
H1108 C1084 0.950 . S
H1109 C1085 0.949 . S
H1110 C1087 0.950 . S
H1111 C1089 0.950 . S
C393 C1 1.528 . S
C398 C331 1.501 . S
C423 C40 1.318 . S
C428 C334 1.267 . S
C458 C370 1.722 . S
C453 C99 1.746 . S
C483 C118 1.636 . S
C488 C390 1.611 . S
C518 C344 1.753 . S
C513 C16 1.787 . S
C548 C321 1.554 . S
C543 C60 1.582 . S
C578 C374 1.538 . S
C573 C79 1.652 . S
C608 C354 1.350 . S
C603 C138 1.427 . S
C633 C21 1.351 . S
C638 C384 1.306 . S
C668 C350 1.590 . S
C663 C94 1.613 . S
C693 C133 1.640 . S
C698 C316 1.575 . S
C723 C55 1.348 . S
C728 C364 1.317 . S
C758 C330 1.506 . S
C753 C157 1.536 . S
C783 C196 1.319 . S
C788 C336 1.268 . S
C813 C255 1.746 . S
C818 C371 1.720 . S
C843 C289 1.630 . S
C848 C391 1.607 . S
C873 C172 1.784 . S
C878 C341 1.751 . S
C908 C324 1.555 . S
C903 C216 1.583 . S
C938 C376 1.538 . S
C933 C235 1.653 . S
C968 C356 1.347 . S
C963 C294 1.428 . S
C993 C177 1.356 . S
C998 C381 1.306 . S
C1028 C351 1.592 . S
C1023 C250 1.614 . S
C1058 C314 1.579 . S
C1053 C274 1.645 . S
C1083 C211 1.343 . S
C1088 C361 1.312 . S
