# Generated by pormake.
# Topology ctn, (3,4)-cn, num edge types: 1
# Building blocks:
#     Node 0, Type 0, BuildingBlock: BETDAH_clean_linker_0, # of connection points: 3
#     Node 1, Type 0, BuildingBlock: BETDAH_clean_linker_0, # of connection points: 3
#     Node 2, Type 0, BuildingBlock: BETDAH_clean_linker_0, # of connection points: 3
#     Node 3, Type 0, BuildingBlock: BETDAH_clean_linker_0, # of connection points: 3
#     Node 4, Type 0, BuildingBlock: BETDAH_clean_linker_0, # of connection points: 3
#     Node 5, Type 0, BuildingBlock: BETDAH_clean_linker_0, # of connection points: 3
#     Node 6, Type 0, BuildingBlock: BETDAH_clean_linker_0, # of connection points: 3
#     Node 7, Type 0, BuildingBlock: BETDAH_clean_linker_0, # of connection points: 3
#     Node 8, Type 0, BuildingBlock: BETDAH_clean_linker_0, # of connection points: 3
#     Node 9, Type 0, BuildingBlock: BETDAH_clean_linker_0, # of connection points: 3
#     Node 10, Type 0, BuildingBlock: BETDAH_clean_linker_0, # of connection points: 3
#     Node 11, Type 0, BuildingBlock: BETDAH_clean_linker_0, # of connection points: 3
#     Node 12, Type 0, BuildingBlock: BETDAH_clean_linker_0, # of connection points: 3
#     Node 13, Type 0, BuildingBlock: BETDAH_clean_linker_0, # of connection points: 3
#     Node 14, Type 0, BuildingBlock: BETDAH_clean_linker_0, # of connection points: 3
#     Node 15, Type 0, BuildingBlock: BETDAH_clean_linker_0, # of connection points: 3
#     Node 16, Type 1, BuildingBlock: UXUYUI_clean_sbu_0, # of connection points: 4
#     Node 17, Type 1, BuildingBlock: UXUYUI_clean_sbu_0, # of connection points: 4
#     Node 18, Type 1, BuildingBlock: UXUYUI_clean_sbu_0, # of connection points: 4
#     Node 19, Type 1, BuildingBlock: UXUYUI_clean_sbu_0, # of connection points: 4
#     Node 20, Type 1, BuildingBlock: UXUYUI_clean_sbu_0, # of connection points: 4
#     Node 21, Type 1, BuildingBlock: UXUYUI_clean_sbu_0, # of connection points: 4
#     Node 22, Type 1, BuildingBlock: UXUYUI_clean_sbu_0, # of connection points: 4
#     Node 23, Type 1, BuildingBlock: UXUYUI_clean_sbu_0, # of connection points: 4
#     Node 24, Type 1, BuildingBlock: UXUYUI_clean_sbu_0, # of connection points: 4
#     Node 25, Type 1, BuildingBlock: UXUYUI_clean_sbu_0, # of connection points: 4
#     Node 26, Type 1, BuildingBlock: UXUYUI_clean_sbu_0, # of connection points: 4
#     Node 27, Type 1, BuildingBlock: UXUYUI_clean_sbu_0, # of connection points: 4
#     Edge 28, Type (0, 1), BuildingBlock: AJUNOK_clean_linker_0, # of connection points: 2
#     Edge 29, Type (0, 1), BuildingBlock: AJUNOK_clean_linker_0, # of connection points: 2
#     Edge 30, Type (0, 1), BuildingBlock: AJUNOK_clean_linker_0, # of connection points: 2
#     Edge 31, Type (0, 1), BuildingBlock: AJUNOK_clean_linker_0, # of connection points: 2
#     Edge 32, Type (0, 1), BuildingBlock: AJUNOK_clean_linker_0, # of connection points: 2
#     Edge 33, Type (0, 1), BuildingBlock: AJUNOK_clean_linker_0, # of connection points: 2
#     Edge 34, Type (0, 1), BuildingBlock: AJUNOK_clean_linker_0, # of connection points: 2
#     Edge 35, Type (0, 1), BuildingBlock: AJUNOK_clean_linker_0, # of connection points: 2
#     Edge 36, Type (0, 1), BuildingBlock: AJUNOK_clean_linker_0, # of connection points: 2
#     Edge 37, Type (0, 1), BuildingBlock: AJUNOK_clean_linker_0, # of connection points: 2
#     Edge 38, Type (0, 1), BuildingBlock: AJUNOK_clean_linker_0, # of connection points: 2
#     Edge 39, Type (0, 1), BuildingBlock: AJUNOK_clean_linker_0, # of connection points: 2
#     Edge 40, Type (0, 1), BuildingBlock: AJUNOK_clean_linker_0, # of connection points: 2
#     Edge 41, Type (0, 1), BuildingBlock: AJUNOK_clean_linker_0, # of connection points: 2
#     Edge 42, Type (0, 1), BuildingBlock: AJUNOK_clean_linker_0, # of connection points: 2
#     Edge 43, Type (0, 1), BuildingBlock: AJUNOK_clean_linker_0, # of connection points: 2
#     Edge 44, Type (0, 1), BuildingBlock: AJUNOK_clean_linker_0, # of connection points: 2
#     Edge 45, Type (0, 1), BuildingBlock: AJUNOK_clean_linker_0, # of connection points: 2
#     Edge 46, Type (0, 1), BuildingBlock: AJUNOK_clean_linker_0, # of connection points: 2
#     Edge 47, Type (0, 1), BuildingBlock: AJUNOK_clean_linker_0, # of connection points: 2
#     Edge 48, Type (0, 1), BuildingBlock: AJUNOK_clean_linker_0, # of connection points: 2
#     Edge 49, Type (0, 1), BuildingBlock: AJUNOK_clean_linker_0, # of connection points: 2
#     Edge 50, Type (0, 1), BuildingBlock: AJUNOK_clean_linker_0, # of connection points: 2
#     Edge 51, Type (0, 1), BuildingBlock: AJUNOK_clean_linker_0, # of connection points: 2
#     Edge 52, Type (0, 1), BuildingBlock: AJUNOK_clean_linker_0, # of connection points: 2
#     Edge 53, Type (0, 1), BuildingBlock: AJUNOK_clean_linker_0, # of connection points: 2
#     Edge 54, Type (0, 1), BuildingBlock: AJUNOK_clean_linker_0, # of connection points: 2
#     Edge 55, Type (0, 1), BuildingBlock: AJUNOK_clean_linker_0, # of connection points: 2
#     Edge 56, Type (0, 1), BuildingBlock: AJUNOK_clean_linker_0, # of connection points: 2
#     Edge 57, Type (0, 1), BuildingBlock: AJUNOK_clean_linker_0, # of connection points: 2
#     Edge 58, Type (0, 1), BuildingBlock: AJUNOK_clean_linker_0, # of connection points: 2
#     Edge 59, Type (0, 1), BuildingBlock: AJUNOK_clean_linker_0, # of connection points: 2
#     Edge 60, Type (0, 1), BuildingBlock: AJUNOK_clean_linker_0, # of connection points: 2
#     Edge 61, Type (0, 1), BuildingBlock: AJUNOK_clean_linker_0, # of connection points: 2
#     Edge 62, Type (0, 1), BuildingBlock: AJUNOK_clean_linker_0, # of connection points: 2
#     Edge 63, Type (0, 1), BuildingBlock: AJUNOK_clean_linker_0, # of connection points: 2
#     Edge 64, Type (0, 1), BuildingBlock: AJUNOK_clean_linker_0, # of connection points: 2
#     Edge 65, Type (0, 1), BuildingBlock: AJUNOK_clean_linker_0, # of connection points: 2
#     Edge 66, Type (0, 1), BuildingBlock: AJUNOK_clean_linker_0, # of connection points: 2
#     Edge 67, Type (0, 1), BuildingBlock: AJUNOK_clean_linker_0, # of connection points: 2
#     Edge 68, Type (0, 1), BuildingBlock: AJUNOK_clean_linker_0, # of connection points: 2
#     Edge 69, Type (0, 1), BuildingBlock: AJUNOK_clean_linker_0, # of connection points: 2
#     Edge 70, Type (0, 1), BuildingBlock: AJUNOK_clean_linker_0, # of connection points: 2
#     Edge 71, Type (0, 1), BuildingBlock: AJUNOK_clean_linker_0, # of connection points: 2
#     Edge 72, Type (0, 1), BuildingBlock: AJUNOK_clean_linker_0, # of connection points: 2
#     Edge 73, Type (0, 1), BuildingBlock: AJUNOK_clean_linker_0, # of connection points: 2
#     Edge 74, Type (0, 1), BuildingBlock: AJUNOK_clean_linker_0, # of connection points: 2
#     Edge 75, Type (0, 1), BuildingBlock: AJUNOK_clean_linker_0, # of connection points: 2
# Relax obj value: 0.052
# Max RMSD: 0.164
# Mean RMSD: 0.105
data_MOF--net-ctn--node1-UXUYUI_clean_sbu_0--node2-BETDAH_clean_linker_0--edge1-AJUNOK_clean_linker_0
_symmetry_space_group_name_H-M    P1
_symmetry_Int_Tables_number       1
_symmetry_cell_setting            triclinic
loop_
_symmetry_equiv_pos_as_xyz
'x, y, z'
_cell_length_a     52.255106
_cell_length_b     52.061611
_cell_length_c     52.788435
_cell_angle_alpha  98.388727
_cell_angle_beta   89.934676
_cell_angle_gamma 94.766601
loop_
_atom_site_label
_atom_site_type_symbol
_atom_site_fract_x
_atom_site_fract_y
_atom_site_fract_z
_atom_type_partial_charge
H0 H 0.08451 0.02052 0.10303 0.0
H1 H 0.09593 0.02832 0.02372 0.0
H2 H 0.03808 0.0693 0.06614 0.0
C3 C 0.08018 0.02956 0.08648 0.0
C4 C 0.06021 0.04631 0.08771 0.0
C5 C 0.09345 0.02313 0.06354 0.0
C6 C 0.08628 0.03341 0.04172 0.0
C7 C 0.06675 0.05027 0.04265 0.0
C8 C 0.05378 0.05689 0.06568 0.0
N9 N 0.05866 0.05771 0.01939 0.0
C10 C 0.05525 0.08314 0.0159 0.0
H11 H 0.32718 0.70238 0.28133 0.0
H12 H 0.37223 0.75469 0.2398 0.0
H13 H 0.29921 0.71955 0.20933 0.0
C14 C 0.32941 0.71289 0.26506 0.0
C15 C 0.31034 0.70925 0.2458 0.0
C16 C 0.35159 0.7295 0.26323 0.0
C17 C 0.35479 0.74236 0.24178 0.0
C18 C 0.33595 0.73927 0.22253 0.0
C19 C 0.3136 0.7226 0.22447 0.0
N20 N 0.34114 0.75218 0.20099 0.0
C21 C 0.32293 0.75949 0.18488 0.0
H22 H 0.03197 0.45314 0.07992 0.0
H23 H 0.0163 0.53285 0.10294 0.0
H24 H 0.98137 0.48977 0.03435 0.0
C25 C 0.022 0.4699 0.07684 0.0
C26 C 1.00647 0.46866 0.05488 0.0
C27 C 0.02528 0.49278 0.09457 0.0
C28 C 0.01315 0.5147 0.08996 0.0
C29 C 0.99698 0.51362 0.06868 0.0
C30 C 0.99348 0.4905 0.05113 0.0
N31 N 0.98589 0.53671 0.06489 0.0
C32 C 0.96196 0.53753 0.05376 0.0
H33 H 0.79172 0.82346 0.19305 0.0
H34 H 0.72581 0.78483 0.22535 0.0
H35 H 0.75611 0.86104 0.26013 0.0
C36 C 0.77737 0.82293 0.20784 0.0
C37 C 0.77658 0.84449 0.22706 0.0
C38 C 0.75936 0.8011 0.20711 0.0
C39 C 0.73994 0.80134 0.22579 0.0
C40 C 0.73879 0.8232 0.24483 0.0
C41 C 0.75702 0.84447 0.2452 0.0
N42 N 0.7194 0.82532 0.2637 0.0
C43 C 0.70287 0.80531 0.27071 0.0
H44 H 0.0758 0.02813 0.45212 0.0
H45 H 0.08025 0.98648 0.51665 0.0
H46 H 0.01267 0.97502 0.46847 0.0
C47 C 0.06728 0.01424 0.4638 0.0
C48 C 0.04264 1.00222 0.45765 0.0
C49 C 0.0809 1.00889 0.48512 0.0
C50 C 0.06992 0.99057 0.50012 0.0
C51 C 0.04503 0.97855 0.49416 0.0
C52 C 0.03167 0.98457 0.47307 0.0
N53 N 0.03194 0.96116 0.50917 0.0
C54 C 0.04251 0.94796 0.52719 0.0
H55 H 0.28453 0.71256 0.84536 0.0
H56 H 0.22667 0.74941 0.80876 0.0
H57 H 0.2586 0.68179 0.76883 0.0
C58 C 0.27243 0.71345 0.8289 0.0
C59 C 0.2732 0.69431 0.80726 0.0
C60 C 0.25559 0.73335 0.82967 0.0
C61 C 0.23948 0.73404 0.80841 0.0
C62 C 0.24061 0.71526 0.78647 0.0
C63 C 0.25757 0.69582 0.78604 0.0
N64 N 0.22547 0.71514 0.76415 0.0
C65 C 0.2059 0.73105 0.76129 0.0
H66 H 0.94248 0.56636 0.53631 0.0
H67 H 0.99403 0.59313 0.47993 0.0
H68 H 0.94691 0.52129 0.46166 0.0
C69 C 0.95075 0.56362 0.51736 0.0
C70 C 0.94304 0.54108 0.50019 0.0
C71 C 0.96892 0.58272 0.5102 0.0
C72 C 0.9803 0.57846 0.48587 0.0
C73 C 0.97236 0.55614 0.46846 0.0
C74 C 0.95357 0.53791 0.47559 0.0
N75 N 0.98065 0.55282 0.44271 0.0
C76 C 1.00606 0.55593 0.43513 0.0
H77 H 0.85534 0.75949 0.82847 0.0
H78 H 0.82527 0.82437 0.79914 0.0
H79 H 0.79199 0.79654 0.86542 0.0
C80 C 0.84151 0.77395 0.82913 0.0
C81 C 0.82328 0.77562 0.8488 0.0
C82 C 0.84249 0.79149 0.81099 0.0
C83 C 0.82486 0.81084 0.81293 0.0
C84 C 0.8067 0.81262 0.83269 0.0
C85 C 0.80617 0.79509 0.85036 0.0
N86 N 0.78862 0.83171 0.83591 0.0
C87 C 0.78462 0.8499 0.81981 0.0
H88 H 0.3551 0.25943 0.32327 0.0
H89 H 0.31986 0.31701 0.28705 0.0
H90 H 0.27959 0.28079 0.34516 0.0
C91 C 0.33907 0.27092 0.32126 0.0
C92 C 0.31734 0.26813 0.33671 0.0
C93 C 0.34018 0.28848 0.30318 0.0
C94 C 0.31923 0.30347 0.30083 0.0
C95 C 0.29747 0.30072 0.31622 0.0
C96 C 0.29667 0.28298 0.33372 0.0
N97 N 0.27553 0.31476 0.31454 0.0
C98 C 0.2739 0.33674 0.30271 0.0
H99 H 0.54054 0.94457 0.57536 0.0
H100 H 0.52019 0.02288 0.59756 0.0
H101 H 0.48876 0.97799 0.52823 0.0
C102 C 0.53007 0.9608 0.57172 0.0
C103 C 0.51462 0.9584 0.54954 0.0
C104 C 0.53224 0.98395 0.58915 0.0
C105 C 0.51832 1.00468 0.58452 0.0
C106 C 0.50216 1.00245 0.56307 0.0
C107 C 0.50026 0.97926 0.54549 0.0
N108 N 0.4897 0.02471 0.55905 0.0
C109 C 0.46631 0.02433 0.54648 0.0
H110 H 0.2907 0.31583 0.69324 0.0
H111 H 0.24371 0.25062 0.71432 0.0
H112 H 0.25883 0.31976 0.769 0.0
C113 C 0.27897 0.30705 0.70716 0.0
C114 C 0.27638 0.32083 0.73193 0.0
C115 C 0.2671 0.28174 0.70055 0.0
C116 C 0.25242 0.2704 0.71892 0.0
C117 C 0.24898 0.28407 0.74333 0.0
C118 C 0.26088 0.3094 0.74986 0.0
N119 N 0.23513 0.27084 0.76135 0.0
C120 C 0.21868 0.28222 0.77956 0.0
H121 H 0.83388 0.20199 0.7843 0.0
H122 H 0.87464 0.25818 0.74391 0.0
H123 H 0.80051 0.22324 0.71634 0.0
C124 C 0.83475 0.21346 0.7687 0.0
C125 C 0.81435 0.21078 0.75088 0.0
C126 C 0.85642 0.23066 0.76641 0.0
C127 C 0.85776 0.24509 0.74601 0.0
C128 C 0.83777 0.24272 0.72802 0.0
C129 C 0.81593 0.22548 0.7304 0.0
N130 N 0.84123 0.25724 0.70735 0.0
C131 C 0.82201 0.26403 0.69205 0.0
H132 H 0.57576 0.51333 0.60605 0.0
H133 H 0.58578 0.5246 0.52743 0.0
H134 H 0.52036 0.55234 0.56833 0.0
C135 C 0.56936 0.52106 0.58937 0.0
C136 C 0.54641 0.53362 0.59034 0.0
C137 C 0.58398 0.51813 0.56692 0.0
C138 C 0.5754 0.52778 0.54525 0.0
C139 C 0.55296 0.54073 0.546 0.0
C140 C 0.53849 0.54366 0.56848 0.0
N141 N 0.54339 0.54734 0.52295 0.0
C142 C 0.54175 0.57289 0.51876 0.0
H143 H 0.57491 0.52496 0.95209 0.0
H144 H 0.5866 0.4766 0.01021 0.0
H145 H 0.52468 0.45608 0.95551 0.0
C146 C 0.56903 0.50824 0.96143 0.0
C147 C 0.54806 0.4913 0.95142 0.0
C148 C 0.5831 0.50319 0.98265 0.0
C149 C 0.57575 0.48082 0.99405 0.0
C150 C 0.55452 0.46384 0.98418 0.0
C151 C 0.54103 0.4692 0.96293 0.0
N152 N 0.54631 0.44066 0.99419 0.0
C153 C 0.55292 0.434 0.01776 0.0
H154 H 0.79011 0.21944 0.35266 0.0
H155 H 0.72275 0.24589 0.32073 0.0
H156 H 0.75868 0.18064 0.28067 0.0
C157 C 0.77576 0.21773 0.33756 0.0
C158 C 0.77676 0.19813 0.31641 0.0
C159 C 0.75607 0.23482 0.33948 0.0
C160 C 0.7379 0.23277 0.3194 0.0
C161 C 0.73887 0.21311 0.29814 0.0
C162 C 0.75809 0.19582 0.29703 0.0
N163 N 0.72075 0.20947 0.27764 0.0
C164 C 0.70229 0.22621 0.27352 0.0
H165 H 0.44465 0.06729 0.03447 0.0
H166 H 0.52135 0.07484 1.00486 0.0
H167 H 0.47485 1.00258 0.98701 0.0
C168 C 0.46004 0.05896 0.02312 0.0
C169 C 0.45659 0.03312 0.01065 0.0
C170 C 0.48345 0.07407 0.02149 0.0
C171 C 0.50302 0.06366 1.00583 0.0
C172 C 0.49973 0.0379 0.99321 0.0
C173 C 0.47674 0.02277 0.99596 0.0
N174 N 0.52048 0.02551 0.98092 0.0
C175 C 0.5338 0.03389 0.96041 0.0
Li176 Li 0.29171 0.90446 0.02353 0.0
Li177 Li 0.27224 0.87026 0.04717 0.0
Li178 Li 0.26487 0.86876 0.99938 0.0
Li179 Li 0.24403 0.90042 0.03084 0.0
C180 C 0.32312 0.86682 0.01522 0.0
N181 N 0.37567 0.86857 1.00879 0.0
C182 C 0.33907 0.86233 0.03506 0.0
C183 C 0.33384 0.87191 0.99201 0.0
C184 C 0.36561 0.86336 0.03146 0.0
C185 C 0.36046 0.87281 0.98917 0.0
C186 C 0.26954 0.91684 0.08182 0.0
C187 C 0.24295 0.91994 0.11933 0.0
N188 N 0.2629 0.93326 0.1334 0.0
C189 C 0.28971 0.93075 0.09658 0.0
C190 C 0.24592 0.91152 0.09321 0.0
C191 C 0.286 0.93881 0.12266 0.0
C192 C 0.32201 0.94501 1.00415 0.0
N193 N 0.32116 0.92885 0.02223 0.0
C194 C 0.36254 0.94705 0.03838 0.0
C195 C 0.34075 0.92974 0.03936 0.0
C196 C 0.36401 0.96401 0.01989 0.0
C197 C 0.34335 0.96279 1.00262 0.0
H198 H 0.30609 0.94419 0.99094 0.0
H199 H 0.33953 0.91684 0.05369 0.0
C200 C 0.2657 0.82476 0.07079 0.0
N201 N 0.27717 0.84946 0.07351 0.0
C202 C 0.2696 0.80861 0.08915 0.0
C203 C 0.29716 0.84353 0.11272 0.0
C204 C 0.29269 0.85901 0.09395 0.0
C205 C 0.28574 0.81787 0.11034 0.0
H206 H 0.25371 0.8175 0.05418 0.0
H207 H 0.30212 0.87844 0.09538 0.0
C208 C 0.25585 0.90935 0.97507 0.0
N209 N 0.2409 0.91361 0.92579 0.0
C210 C 0.23066 0.91443 0.97001 0.0
C211 C 0.2735 0.90665 0.95514 0.0
C212 C 0.22347 0.91649 0.94494 0.0
C213 C 0.26554 0.90879 0.93033 0.0
C214 C 0.21621 0.8503 0.03103 0.0
C215 C 0.1998 0.83998 0.01051 0.0
C216 C 0.20825 0.84868 0.05608 0.0
C217 C 0.17551 0.82853 0.01542 0.0
C218 C 0.18382 0.83709 0.0602 0.0
N219 N 0.16808 0.82736 0.03995 0.0
C220 C 0.27859 0.82722 0.96309 0.0
C221 C 0.24181 0.84609 0.95055 0.0
C222 C 0.27726 0.8093 0.94059 0.0
N223 N 0.26111 0.84524 0.96762 0.0
C224 C 0.2399 0.82869 0.92764 0.0
C225 C 0.25772 0.80985 0.92246 0.0
H226 H 0.29354 0.82661 0.97708 0.0
H227 H 0.22783 0.86023 0.95466 0.0
C228 C 0.22091 0.94649 0.04669 0.0
N229 N 0.21516 0.92063 0.03865 0.0
C230 C 0.20135 0.96308 0.05253 0.0
C231 C 0.1702 0.92612 0.04196 0.0
C232 C 0.19036 0.91029 0.03612 0.0
C233 C 0.17555 0.95292 0.05028 0.0
H234 H 0.24078 0.95428 0.04829 0.0
H235 H 0.18604 0.88987 0.02932 0.0
O236 O 0.29715 0.86635 0.01853 0.0
O237 O 0.27291 0.90879 0.05629 0.0
O238 O 0.26324 0.90725 0.99947 0.0
O239 O 0.24006 0.86155 0.02653 0.0
H240 H 0.33106 0.85829 0.05311 0.0
H241 H 0.32172 0.87529 0.97644 0.0
H242 H 0.37821 0.86007 0.04669 0.0
H243 H 0.36904 0.8769 0.97138 0.0
H244 H 0.22478 0.91593 0.1284 0.0
H245 H 0.30807 0.93517 0.08802 0.0
H246 H 0.22999 0.9012 0.082 0.0
H247 H 0.30148 0.94948 0.13435 0.0
H248 H 0.37823 0.94685 0.0517 0.0
H249 H 0.3436 0.97558 0.98816 0.0
H250 H 0.2602 0.78906 0.08673 0.0
H251 H 0.31003 0.8513 0.12858 0.0
H252 H 0.21678 0.91663 0.98521 0.0
H253 H 0.29308 0.9028 0.95876 0.0
H254 H 0.20402 0.92032 0.94071 0.0
H255 H 0.27895 0.90661 0.91469 0.0
H256 H 0.20567 0.84094 0.99101 0.0
H257 H 0.22083 0.85613 0.07219 0.0
H258 H 0.16256 0.82058 0.99972 0.0
H259 H 0.1774 0.83576 0.07949 0.0
H260 H 0.29125 0.79496 0.93756 0.0
H261 H 0.2248 0.83018 0.91404 0.0
H262 H 0.20639 0.98372 0.05812 0.0
H263 H 0.1506 0.91748 0.03987 0.0
Li264 Li 0.15165 0.53211 0.30146 0.0
Li265 Li 0.18253 0.5022 0.28028 0.0
Li266 Li 0.18407 0.5494 0.27398 0.0
Li267 Li 0.15021 0.51834 0.25323 0.0
C268 C 0.19396 0.53865 0.33184 0.0
N269 N 0.20157 0.54727 0.38428 0.0
C270 C 0.20099 0.51854 0.34459 0.0
C271 C 0.19108 0.56321 0.34571 0.0
C272 C 0.2047 0.52328 0.37112 0.0
C273 C 0.1949 0.56716 0.37223 0.0
C274 C 0.13283 0.47248 0.28183 0.0
C275 C 0.119 0.42931 0.26065 0.0
N276 N 0.10951 0.42306 0.28316 0.0
C277 C 0.12269 0.4657 0.30469 0.0
C278 C 0.13076 0.45422 0.25956 0.0
C279 C 0.11107 0.44059 0.305 0.0
C280 C 0.11027 0.55456 0.32788 0.0
N281 N 0.12985 0.53949 0.3306 0.0
C282 C 0.1152 0.53295 0.37238 0.0
C283 C 0.13266 0.52882 0.35238 0.0
C284 C 0.09433 0.54777 0.36976 0.0
C285 C 0.09228 0.55902 0.3473 0.0
H286 H 0.10813 0.5625 0.31027 0.0
H287 H 0.14799 0.51646 0.35399 0.0
C288 C 0.22579 0.47196 0.27254 0.0
N289 N 0.20215 0.47306 0.28335 0.0
C290 C 0.23975 0.45025 0.27337 0.0
C291 C 0.20499 0.43145 0.29676 0.0
C292 C 0.19191 0.45358 0.29578 0.0
C293 C 0.22906 0.42947 0.28519 0.0
H294 H 0.23364 0.48781 0.26295 0.0
H295 H 0.17359 0.45515 0.305 0.0
C296 C 0.14511 0.5784 0.27042 0.0
N297 N 0.14366 0.62992 0.26377 0.0
C298 C 0.13881 0.58473 0.24649 0.0
C299 C 0.15032 0.59824 0.29105 0.0
C300 C 0.13826 0.61091 0.2435 0.0
C301 C 0.1496 0.62418 0.28728 0.0
C302 C 0.19408 0.50459 0.2251 0.0
C303 C 0.20562 0.51773 0.20622 0.0
C304 C 0.18918 0.47752 0.22035 0.0
C305 C 0.21161 0.50359 0.1827 0.0
C306 C 0.19549 0.46406 0.19661 0.0
N307 N 0.20644 0.47727 0.17841 0.0
C308 C 0.22174 0.59201 0.28719 0.0
C309 C 0.20395 0.58822 0.2454 0.0
C310 C 0.23702 0.61439 0.28329 0.0
N311 N 0.20555 0.57952 0.26838 0.0
C312 C 0.21879 0.61058 0.24072 0.0
C313 C 0.23549 0.62408 0.25987 0.0
H314 H 0.22287 0.58452 0.30516 0.0
H315 H 0.19096 0.57786 0.23074 0.0
C316 C 0.10432 0.4983 0.22656 0.0
N317 N 0.12809 0.51035 0.22405 0.0
C318 C 0.08712 0.49364 0.20585 0.0
C319 C 0.11907 0.51413 0.18043 0.0
C320 C 0.13569 0.51827 0.20159 0.0
C321 C 0.09433 0.50194 0.18251 0.0
H322 H 0.09856 0.49268 0.24478 0.0
H323 H 0.15436 0.52855 0.20032 0.0
O324 O 0.19022 0.53436 0.30588 0.0
O325 O 0.14432 0.49701 0.28126 0.0
O326 O 0.14627 0.55292 0.27361 0.0
O327 O 0.18799 0.51819 0.2482 0.0
H328 H 0.20347 0.49947 0.33415 0.0
H329 H 0.18583 0.57903 0.33614 0.0
H330 H 0.21003 0.50787 0.38126 0.0
H331 H 0.19259 0.58603 0.38323 0.0
H332 H 0.11732 0.415 0.24356 0.0
H333 H 0.12395 0.47958 0.32207 0.0
H334 H 0.13783 0.45927 0.24154 0.0
H335 H 0.1033 0.43504 0.32261 0.0
H336 H 0.11777 0.52422 0.38951 0.0
H337 H 0.07636 0.57035 0.34434 0.0
H338 H 0.25839 0.44942 0.26443 0.0
H339 H 0.19642 0.41602 0.30656 0.0
H340 H 0.13461 0.56962 0.23035 0.0
H341 H 0.15497 0.59364 0.30973 0.0
H342 H 0.13359 0.6161 0.22504 0.0
H343 H 0.15377 0.63974 0.30304 0.0
H344 H 0.20981 0.53864 0.20963 0.0
H345 H 0.18086 0.46695 0.2349 0.0
H346 H 0.2204 0.51354 0.16786 0.0
H347 H 0.19175 0.4431 0.19269 0.0
H348 H 0.25018 0.62376 0.29831 0.0
H349 H 0.21709 0.61736 0.22239 0.0
H350 H 0.06834 0.48383 0.20813 0.0
H351 H 0.12524 0.52108 0.16286 0.0
Li352 Li 0.75321 0.62732 0.01041 0.0
Li353 Li 0.77463 0.6645 0.04158 0.0
Li354 Li 0.78346 0.65859 0.99333 0.0
Li355 Li 0.79887 0.62938 0.01925 0.0
C356 C 0.72519 0.66759 1.00861 0.0
N357 N 0.6729 0.66931 1.00244 0.0
C358 C 0.71059 0.67879 0.02884 0.0
C359 C 0.71326 0.65748 0.98518 0.0
C360 C 0.68416 0.67944 0.02534 0.0
C361 C 0.68678 0.65845 0.98246 0.0
C362 C 0.77463 0.60756 0.05718 0.0
C363 C 0.78822 0.59255 0.0957 0.0
N364 N 0.78543 0.56758 0.08349 0.0
C365 C 0.77176 0.58177 0.04503 0.0
C366 C 0.78281 0.61305 0.08273 0.0
C367 C 0.77738 0.56182 0.05865 0.0
C368 C 0.71988 0.58312 0.98858 0.0
N369 N 0.7221 0.6045 1.00687 0.0
C370 C 0.68035 0.59311 0.02271 0.0
C371 C 0.70315 0.60936 0.02417 0.0
C372 C 0.67709 0.57144 1.00339 0.0
C373 C 0.69739 0.56634 0.9864 0.0
H374 H 0.73566 0.57888 0.97584 0.0
H375 H 0.70581 0.62582 0.03925 0.0
C376 C 0.78355 0.71214 0.07506 0.0
N377 N 0.77013 0.68836 0.07211 0.0
C378 C 0.78158 0.72956 0.09763 0.0
C379 C 0.75104 0.69826 0.11329 0.0
C380 C 0.75392 0.68124 0.09054 0.0
C381 C 0.76531 0.72259 0.11715 0.0
H382 H 0.79611 0.7174 0.06 0.0
H383 H 0.74335 0.66226 0.0876 0.0
C384 C 0.78567 0.6171 0.96 0.0
N385 N 0.79505 0.61329 0.90806 0.0
C386 C 0.8108 0.6204 0.95118 0.0
C387 C 0.76531 0.61179 0.94233 0.0
C388 C 0.81514 0.61846 0.92488 0.0
C389 C 0.77045 0.60992 0.91617 0.0
C390 C 0.83303 0.66972 0.03091 0.0
C391 C 0.85234 0.66394 0.01313 0.0
C392 C 0.83959 0.67727 0.05675 0.0
C393 C 0.87785 0.66559 0.02153 0.0
C394 C 0.86533 0.67876 0.06439 0.0
N395 N 0.88376 0.67291 0.04677 0.0
C396 C 0.81364 0.69458 0.96774 0.0
C397 C 0.77586 0.67678 0.94477 0.0
C398 C 0.82083 0.70931 0.94837 0.0
N399 N 0.79159 0.67851 0.96559 0.0
C400 C 0.78246 0.69097 0.92478 0.0
C401 C 0.80526 0.70748 0.92644 0.0
H402 H 0.82559 0.69622 0.98466 0.0
H403 H 0.7581 0.66449 0.94364 0.0
C404 C 0.83303 0.58978 1.00517 0.0
N405 N 0.82627 0.60804 0.0246 0.0
C406 C 0.85372 0.57503 1.00814 0.0
C407 C 0.85934 0.5972 0.0515 0.0
C408 C 0.8386 0.6115 0.04768 0.0
C409 C 0.86742 0.579 0.03144 0.0
H410 H 0.82245 0.58669 0.98728 0.0
H411 H 0.83257 0.62563 0.06308 0.0
O412 O 0.75099 0.6663 0.01184 0.0
O413 O 0.76979 0.62738 0.04401 0.0
O414 O 0.78105 0.61935 0.98575 0.0
O415 O 0.80788 0.66794 0.02309 0.0
H416 H 0.71953 0.68676 0.04708 0.0
H417 H 0.72425 0.64857 0.96941 0.0
H418 H 0.67259 0.68795 0.04086 0.0
H419 H 0.67726 0.65048 0.96451 0.0
H420 H 0.7947 0.59649 0.11544 0.0
H421 H 0.76556 0.57726 0.0252 0.0
H422 H 0.78522 0.63296 0.09233 0.0
H423 H 0.7754 0.54177 0.04947 0.0
H424 H 0.66554 0.59731 0.0367 0.0
H425 H 0.69578 0.54972 0.97137 0.0
H426 H 0.79262 0.74831 0.09984 0.0
H427 H 0.73827 0.6923 0.12792 0.0
H428 H 0.8268 0.62456 0.96449 0.0
H429 H 0.74569 0.60967 0.94868 0.0
H430 H 0.83449 0.62109 0.91785 0.0
H431 H 0.75485 0.60598 0.90233 0.0
H432 H 0.84771 0.65814 0.99307 0.0
H433 H 0.82495 0.68143 0.07089 0.0
H434 H 0.89294 0.66104 1.00798 0.0
H435 H 0.87063 0.68442 0.08435 0.0
H436 H 0.83842 0.72204 0.95051 0.0
H437 H 0.76956 0.68952 0.9085 0.0
H438 H 0.85896 0.56072 0.99241 0.0
H439 H 0.86935 0.60083 0.06979 0.0
Li440 Li 0.90946 0.05675 0.2778 0.0
Li441 Li 0.94104 0.03003 0.29301 0.0
Li442 Li 0.94298 0.03917 0.24825 0.0
Li443 Li 0.90933 1.0093 0.26196 0.0
C444 C 0.95456 0.089 0.2751 0.0
N445 N 0.96902 0.13808 0.26328 0.0
C446 C 0.97563 0.10383 0.28754 0.0
C447 C 0.94081 0.09913 0.25668 0.0
C448 C 0.98265 0.1286 0.28129 0.0
C449 C 0.94844 0.12398 0.25097 0.0
C450 C 0.90004 0.02476 0.32223 0.0
C451 C 0.89668 0.99857 0.3564 0.0
N452 N 0.89527 0.02052 0.37364 0.0
C453 C 0.89826 0.04702 0.34026 0.0
C454 C 0.89897 1.0003 0.33031 0.0
C455 C 0.89596 0.04448 0.36617 0.0
C456 C 0.86393 0.08104 0.2758 0.0
N457 N 0.88766 0.08439 0.28683 0.0
C458 C 0.87806 0.12531 0.31034 0.0
C459 C 0.89501 0.10598 0.30384 0.0
C460 C 0.85346 0.12255 0.29894 0.0
C461 C 0.84656 0.09999 0.28142 0.0
H462 H 0.85843 0.06348 0.26273 0.0
H463 H 0.91389 0.108 0.31265 0.0
C464 C 0.9739 1.00473 0.32291 0.0
N465 N 0.96105 0.02635 0.32258 0.0
C466 C 0.98751 1.00137 0.34479 0.0
C467 C 0.97514 0.04295 0.36543 0.0
C468 C 0.96189 0.04558 0.34307 0.0
C469 C 0.98792 0.02045 0.36655 0.0
H470 H 0.97358 0.99001 0.30625 0.0
H471 H 0.95207 0.06291 0.34211 0.0
C472 C 0.89779 0.02934 0.21703 0.0
N473 N 0.88256 1.01104 0.16707 0.0
C474 C 0.91188 1.01145 0.2018 0.0
C475 C 0.87603 0.03809 0.20676 0.0
C476 C 0.90387 1.00238 0.17663 0.0
C477 C 0.86861 0.02856 0.18149 0.0
C478 C 0.94912 0.97974 0.25435 0.0
C479 C 0.96019 0.97049 0.231 0.0
C480 C 0.93996 0.96206 0.27046 0.0
C481 C 0.96157 0.9437 0.22404 0.0
C482 C 0.94166 0.93542 0.26281 0.0
N483 N 0.95233 0.92687 0.23994 0.0
C484 C 0.98894 0.0365 0.2202 0.0
C485 C 0.95795 0.05947 0.20222 0.0
C486 C 1.00532 0.039 0.1996 0.0
N487 N 0.96558 0.04626 0.22092 0.0
C488 C 0.97381 0.06258 0.18132 0.0
C489 C 0.99777 0.05203 0.17967 0.0
H490 H 0.99452 0.02606 0.23532 0.0
H491 H 0.9393 0.0671 0.20319 0.0
C492 C 0.86532 0.97597 0.26719 0.0
N493 N 0.88616 0.97869 0.25207 0.0
C494 C 0.8476 0.95423 0.26202 0.0
C495 C 0.87272 0.93855 0.22544 0.0
C496 C 0.88996 0.96064 0.23129 0.0
C497 C 0.85131 0.93505 0.24103 0.0
H498 H 0.86249 0.99068 0.28341 0.0
H499 H 0.90643 0.96317 0.2193 0.0
O500 O 0.94751 0.06474 0.28109 0.0
O501 O 0.90286 0.02693 0.29682 0.0
O502 O 0.90543 0.03862 0.24171 0.0
O503 O 0.94735 1.00592 0.26141 0.0
H504 H 0.98643 0.09625 0.30188 0.0
H505 H 0.92439 0.088 0.24692 0.0
H506 H 0.99893 0.1403 0.29075 0.0
H507 H 0.93797 0.13206 0.23675 0.0
H508 H 0.89598 0.97978 0.36292 0.0
H509 H 0.89903 0.06609 0.33438 0.0
H510 H 0.89982 0.98282 0.31663 0.0
H511 H 0.89481 0.06158 0.38034 0.0
H512 H 0.88401 0.14196 0.32447 0.0
H513 H 0.82791 0.09702 0.27205 0.0
H514 H 0.99727 0.98382 0.34485 0.0
H515 H 0.97551 0.0584 0.38159 0.0
H516 H 0.92886 1.00467 0.20934 0.0
H517 H 0.86501 0.05217 0.21811 0.0
H518 H 0.91462 0.98848 0.16468 0.0
H519 H 0.85178 0.03514 0.17332 0.0
H520 H 0.9675 0.98379 0.21827 0.0
H521 H 0.93146 0.96884 0.28859 0.0
H522 H 0.96996 0.9363 0.20598 0.0
H523 H 0.93447 0.92155 0.27505 0.0
H524 H 0.02331 0.03001 0.19887 0.0
H525 H 0.96726 0.07283 0.16644 0.0
H526 H 0.83133 0.95226 0.27453 0.0
H527 H 0.87601 0.92445 0.20879 0.0
Li528 Li 0.28376 0.15324 0.52928 0.0
Li529 Li 0.26042 0.11742 0.50137 0.0
Li530 Li 0.30721 0.11797 0.50572 0.0
Li531 Li 0.28869 0.14826 0.48068 0.0
C532 C 0.28523 0.11003 0.55645 0.0
N533 N 0.29444 0.09872 0.60504 0.0
C534 C 0.26506 0.10053 0.57085 0.0
C535 C 0.31016 0.11332 0.56665 0.0
C536 C 0.27007 0.09509 0.59542 0.0
C537 C 0.31442 0.1076 0.59126 0.0
C538 C 0.23269 0.15677 0.49706 0.0
C539 C 0.19677 0.14858 0.46758 0.0
N540 N 0.18088 0.15688 0.48695 0.0
C541 C 0.21608 0.16537 0.51667 0.0
C542 C 0.22306 0.14844 0.47229 0.0
C543 C 0.18991 0.16523 0.51117 0.0
C544 C 0.29457 0.20187 0.56126 0.0
N545 N 0.28136 0.17802 0.55957 0.0
C546 C 0.26358 0.1894 0.60106 0.0
C547 C 0.26573 0.17171 0.57872 0.0
C548 C 0.27749 0.21394 0.60365 0.0
C549 C 0.29299 0.22019 0.58329 0.0
H550 H 0.3063 0.2067 0.54546 0.0
H551 H 0.25476 0.153 0.57659 0.0
C552 C 0.22235 0.07746 0.47913 0.0
N553 N 0.22835 0.09624 0.49947 0.0
C554 C 0.19881 0.06234 0.47817 0.0
C555 C 0.18815 0.08612 0.51906 0.0
C556 C 0.21191 0.10061 0.51932 0.0
C557 C 0.18127 0.06681 0.4982 0.0
H558 H 0.23575 0.07435 0.46359 0.0
H559 H 0.21718 0.11558 0.53532 0.0
C560 C 0.33942 0.16662 0.51639 0.0
N561 N 0.38802 0.18768 0.5326 0.0
C562 C 0.35712 0.17511 0.49883 0.0
C563 C 0.34637 0.16934 0.54227 0.0
C564 C 0.38161 0.18555 0.50738 0.0
C565 C 0.37103 0.1799 0.55007 0.0
C566 C 0.30104 0.10094 0.45327 0.0
C567 C 0.32438 0.11497 0.44962 0.0
C568 C 0.29347 0.07838 0.43632 0.0
C569 C 0.33979 0.10625 0.42903 0.0
C570 C 0.30941 0.07028 0.41594 0.0
N571 N 0.33204 0.08427 0.41274 0.0
C572 C 0.32948 0.0728 0.51571 0.0
C573 C 0.35949 0.10459 0.50233 0.0
C574 C 0.34916 0.05712 0.51967 0.0
N575 N 0.33501 0.09634 0.5078 0.0
C576 C 0.37974 0.08963 0.5061 0.0
C577 C 0.37478 0.06581 0.51545 0.0
H578 H 0.3098 0.06648 0.51956 0.0
H579 H 0.36348 0.12298 0.49544 0.0
C580 C 0.30634 0.19238 0.45907 0.0
N581 N 0.29413 0.16817 0.45301 0.0
C582 C 0.31174 0.20809 0.44011 0.0
C583 C 0.29131 0.17399 0.40895 0.0
C584 C 0.2865 0.15878 0.42854 0.0
C585 C 0.30424 0.199 0.4146 0.0
H586 H 0.31197 0.19947 0.47872 0.0
H587 H 0.2766 0.13954 0.42425 0.0
O588 O 0.28058 0.11537 0.5323 0.0
O589 O 0.25821 0.15599 0.5022 0.0
O590 O 0.31525 0.15648 0.50835 0.0
O591 O 0.28563 0.10909 0.47333 0.0
H592 H 0.24569 0.09749 0.5632 0.0
H593 H 0.32615 0.11984 0.55559 0.0
H594 H 0.25459 0.08791 0.60682 0.0
H595 H 0.33363 0.11009 0.59935 0.0
H596 H 0.18898 0.14201 0.44854 0.0
H597 H 0.22329 0.17181 0.53596 0.0
H598 H 0.23571 0.14162 0.45696 0.0
H599 H 0.17678 0.17167 0.52617 0.0
H600 H 0.25131 0.18385 0.61625 0.0
H601 H 0.30349 0.23913 0.58423 0.0
H602 H 0.19412 0.0477 0.46169 0.0
H603 H 0.17528 0.08998 0.53501 0.0
H604 H 0.35212 0.17351 0.47876 0.0
H605 H 0.33277 0.16377 0.55631 0.0
H606 H 0.39552 0.19198 0.49396 0.0
H607 H 0.37662 0.18205 0.57004 0.0
H608 H 0.33051 0.1324 0.46252 0.0
H609 H 0.27549 0.06723 0.43888 0.0
H610 H 0.3579 0.11697 0.42601 0.0
H611 H 0.30378 0.05286 0.40267 0.0
H612 H 0.34441 0.03861 0.52631 0.0
H613 H 0.39919 0.09707 0.50257 0.0
H614 H 0.32174 0.22719 0.44538 0.0
H615 H 0.28451 0.16643 0.38973 0.0
Li616 Li 0.43067 0.51994 0.79816 0.0
Li617 Li 0.39792 0.54418 0.78149 0.0
Li618 Li 0.39684 0.49449 0.76986 0.0
Li619 Li 0.42984 0.52443 0.75262 0.0
C620 C 0.38451 0.50656 0.82535 0.0
N621 N 0.36753 0.48672 0.8688 0.0
C622 C 0.37463 0.52288 0.8458 0.0
C623 C 0.3853 0.48006 0.82688 0.0
C624 C 0.36628 0.51251 0.86763 0.0
C625 C 0.37675 0.47043 0.84903 0.0
C626 C 0.44226 0.57324 0.80142 0.0
C627 C 0.46953 0.61149 0.81857 0.0
N628 N 0.45508 0.61411 0.8401 0.0
C629 C 0.42772 0.57632 0.82373 0.0
C630 C 0.46337 0.59095 0.79882 0.0
C631 C 0.43449 0.59709 0.84305 0.0
C632 C 0.47753 0.51169 0.82098 0.0
N633 N 0.45333 0.51842 0.82652 0.0
C634 C 0.46171 0.52041 0.87137 0.0
C635 C 0.44546 0.52345 0.8512 0.0
C636 C 0.48628 0.51212 0.86608 0.0
C637 C 0.49434 0.50821 0.84054 0.0
H638 H 0.48361 0.50845 0.80126 0.0
H639 H 0.42652 0.52959 0.85533 0.0
C640 C 0.35378 0.56768 0.80057 0.0
N641 N 0.37629 0.57217 0.78841 0.0
C642 C 0.33701 0.58729 0.80565 0.0
C643 C 0.36675 0.6158 0.7854 0.0
C644 C 0.38314 0.59571 0.78101 0.0
C645 C 0.34314 0.6116 0.79758 0.0
H646 H 0.34876 0.54875 0.80615 0.0
H647 H 0.4012 0.59877 0.77141 0.0
C648 C 0.44766 0.47149 0.76913 0.0
N649 N 0.47444 0.42823 0.77129 0.0
C650 C 0.4624 0.46174 0.74836 0.0
C651 C 0.44669 0.4593 0.79107 0.0
C652 C 0.47573 0.43981 0.74979 0.0
C653 C 0.46035 0.43746 0.79179 0.0
C654 C 0.38853 0.525 0.72296 0.0
C655 C 0.38042 0.50374 0.70463 0.0
C656 C 0.39405 0.54955 0.71559 0.0
C657 C 0.37815 0.50738 0.67905 0.0
C658 C 0.39159 0.55238 0.68981 0.0
N659 N 0.38377 0.53141 0.67223 0.0
C660 C 0.34879 0.4651 0.76254 0.0
C661 C 0.38427 0.43931 0.75811 0.0
C662 C 0.33161 0.44275 0.75817 0.0
N663 N 0.37457 0.463 0.76257 0.0
C664 C 0.36782 0.41651 0.754 0.0
C665 C 0.34113 0.41807 0.75418 0.0
H666 H 0.34158 0.48417 0.76609 0.0
H667 H 0.40475 0.438 0.75787 0.0
C668 C 0.46728 0.54899 0.72263 0.0
N669 N 0.45011 0.5279 0.72276 0.0
C670 C 0.48272 0.55135 0.70127 0.0
C671 C 0.46216 0.51049 0.68037 0.0
C672 C 0.44731 0.50882 0.70219 0.0
C673 C 0.48026 0.53192 0.67971 0.0
H674 H 0.46922 0.56383 0.73926 0.0
H675 H 0.43366 0.49214 0.70283 0.0
O676 O 0.39266 0.51637 0.80374 0.0
O677 O 0.43609 0.55294 0.78227 0.0
O678 O 0.43455 0.49303 0.76798 0.0
O679 O 0.39136 0.52172 0.74798 0.0
H680 H 0.37363 0.54341 0.84497 0.0
H681 H 0.39224 0.46698 0.8111 0.0
H682 H 0.3588 0.52497 0.88365 0.0
H683 H 0.37735 0.44997 0.85046 0.0
H684 H 0.48582 0.62533 0.8168 0.0
H685 H 0.4114 0.56283 0.82614 0.0
H686 H 0.47494 0.58884 0.78175 0.0
H687 H 0.42338 0.59966 0.86041 0.0
H688 H 0.45489 0.52384 0.89086 0.0
H689 H 0.51338 0.50238 0.83574 0.0
H690 H 0.31936 0.58338 0.8157 0.0
H691 H 0.37223 0.63421 0.77882 0.0
H692 H 0.46354 0.47098 0.73129 0.0
H693 H 0.43588 0.46681 0.80753 0.0
H694 H 0.48714 0.43203 0.73381 0.0
H695 H 0.45983 0.42792 0.80869 0.0
H696 H 0.37612 0.48461 0.7101 0.0
H697 H 0.40049 0.56615 0.72957 0.0
H698 H 0.372 0.49109 0.66461 0.0
H699 H 0.39597 0.57122 0.68377 0.0
H700 H 0.31113 0.44469 0.75834 0.0
H701 H 0.37586 0.39781 0.75054 0.0
H702 H 0.49682 0.56788 0.7019 0.0
H703 H 0.45956 0.4951 0.66418 0.0
Li704 Li 0.78897 0.40657 0.53185 0.0
Li705 Li 0.7699 0.37427 0.55427 0.0
Li706 Li 0.76261 0.37094 0.50731 0.0
Li707 Li 0.74267 0.40575 0.54076 0.0
C708 C 0.82082 0.36942 0.52525 0.0
N709 N 0.87381 0.37186 0.52344 0.0
C710 C 0.8355 0.37849 0.54734 0.0
C711 C 0.83309 0.36112 0.50233 0.0
C712 C 0.86226 0.37971 0.54602 0.0
C713 C 0.85991 0.36262 0.50178 0.0
C714 C 0.77186 0.41652 0.59138 0.0
C715 C 0.74922 0.42232 0.6314 0.0
N716 N 0.77197 0.42433 0.64432 0.0
C717 C 0.79503 0.41889 0.60506 0.0
C718 C 0.74876 0.41842 0.60465 0.0
C719 C 0.79468 0.42272 0.63181 0.0
C720 C 0.82576 0.44971 0.54737 0.0
N721 N 0.81864 0.43013 0.52807 0.0
C722 C 0.85251 0.44479 0.50179 0.0
C723 C 0.83145 0.42748 0.50553 0.0
C724 C 0.86044 0.46511 0.52142 0.0
C725 C 0.8467 0.46754 0.54442 0.0
H726 H 0.81497 0.45169 0.56492 0.0
H727 H 0.82504 0.41212 0.49026 0.0
C728 C 0.79242 0.33481 0.576 0.0
N729 N 0.77449 0.3524 0.58046 0.0
C730 C 0.79697 0.31836 0.59387 0.0
C731 C 0.76395 0.33764 0.62044 0.0
C732 C 0.76001 0.35371 0.60201 0.0
C733 C 0.7827 0.3197 0.61651 0.0
H734 H 0.8033 0.33351 0.55853 0.0
H735 H 0.74518 0.36701 0.60488 0.0
C736 C 0.76815 0.43041 0.4964 0.0
N737 N 0.78558 0.47389 0.47498 0.0
C738 C 0.76988 0.45505 0.51121 0.0
C739 C 0.77502 0.42791 0.47062 0.0
C740 C 0.77884 0.47678 0.50006 0.0
C741 C 0.78383 0.45013 0.46015 0.0
C742 C 0.72415 0.34857 0.54768 0.0
C743 C 0.73084 0.32286 0.54307 0.0
C744 C 0.70556 0.35544 0.56591 0.0
C745 C 0.71889 0.30445 0.55697 0.0
C746 C 0.69401 0.33643 0.57936 0.0
N747 N 0.70088 0.31156 0.57467 0.0
C748 C 0.73836 0.32883 0.47282 0.0
C749 C 0.77446 0.3512 0.4562 0.0
C750 C 0.73607 0.31069 0.45046 0.0
N751 N 0.75763 0.3483 0.47545 0.0
C752 C 0.7728 0.33359 0.43346 0.0
C753 C 0.75374 0.31269 0.43062 0.0
H754 H 0.72503 0.3271 0.48827 0.0
H755 H 0.7896 0.36684 0.45875 0.0
C756 C 0.7177 0.45054 0.56066 0.0
N757 N 0.71394 0.4261 0.54731 0.0
C758 C 0.69721 0.46617 0.56509 0.0
C759 C 0.66923 0.43115 0.54219 0.0
C760 C 0.69031 0.4162 0.53813 0.0
C761 C 0.67263 0.45659 0.5556 0.0
H762 H 0.73665 0.45789 0.56792 0.0
H763 H 0.68788 0.39674 0.52749 0.0
O764 O 0.79458 0.36861 0.52612 0.0
O765 O 0.77184 0.41298 0.56516 0.0
O766 O 0.7601 0.40884 0.5072 0.0
O767 O 0.73603 0.367 0.5347 0.0
H768 H 0.82628 0.38457 0.56528 0.0
H769 H 0.82208 0.35365 0.48514 0.0
H770 H 0.87384 0.38689 0.56294 0.0
H771 H 0.86966 0.35643 0.48413 0.0
H772 H 0.73147 0.4236 0.6419 0.0
H773 H 0.81313 0.41797 0.5952 0.0
H774 H 0.73061 0.41634 0.59447 0.0
H775 H 0.81247 0.4245 0.64262 0.0
H776 H 0.86216 0.44263 0.48353 0.0
H777 H 0.85214 0.48304 0.55994 0.0
H778 H 0.81194 0.30515 0.59025 0.0
H779 H 0.75241 0.33916 0.63757 0.0
H780 H 0.76494 0.45728 0.53125 0.0
H781 H 0.7736 0.40904 0.45882 0.0
H782 H 0.78054 0.49593 0.51138 0.0
H783 H 0.78932 0.44848 0.44025 0.0
H784 H 0.7454 0.31731 0.52921 0.0
H785 H 0.70032 0.37529 0.56984 0.0
H786 H 0.72401 0.28453 0.55376 0.0
H787 H 0.67968 0.34149 0.59361 0.0
H788 H 0.72083 0.2951 0.4488 0.0
H789 H 0.78679 0.33576 0.4186 0.0
H790 H 0.70053 0.4855 0.57592 0.0
H791 H 0.65058 0.4231 0.53452 0.0
Li792 Li 0.6844 1.00349 0.77944 0.0
Li793 Li 0.65253 0.03159 0.80065 0.0
Li794 Li 0.65178 0.01965 0.75263 0.0
Li795 Li 0.68457 0.05144 0.77466 0.0
C796 C 0.63694 0.97103 0.77367 0.0
N797 N 0.61804 0.91946 0.76167 0.0
C798 C 0.62282 0.95867 0.79164 0.0
C799 C 0.64104 0.95723 0.74946 0.0
C800 C 0.61356 0.93257 0.78526 0.0
C801 C 0.63143 0.93118 0.74378 0.0
C802 C 0.69254 0.03945 0.83195 0.0
C803 C 0.69081 0.06802 0.8721 0.0
N804 N 0.69484 0.04778 0.88483 0.0
C805 C 0.69689 0.01898 0.84541 0.0
C806 C 0.68969 0.06422 0.84536 0.0
C807 C 0.69791 0.02356 0.87215 0.0
C808 C 0.72923 0.97531 0.77379 0.0
N809 N 0.70487 0.97524 0.78299 0.0
C810 C 0.70904 0.93477 0.79833 0.0
C811 C 0.69475 0.9556 0.79526 0.0
C812 C 0.73419 0.93422 0.78899 0.0
C813 C 0.7443 0.95484 0.77654 0.0
H814 H 0.73694 0.99129 0.7643 0.0
H815 H 0.6757 0.9563 0.80313 0.0
C816 C 0.61699 0.05644 0.8362 0.0
N817 N 0.63158 0.0359 0.83065 0.0
C818 C 0.6008 0.05803 0.85747 0.0
C819 C 0.61516 0.01749 0.86693 0.0
C820 C 0.63115 0.0168 0.84569 0.0
C821 C 0.59942 0.03808 0.8728 0.0
H822 H 0.61751 0.07131 0.82388 0.0
H823 H 0.64302 1.00076 0.84095 0.0
C824 C 0.69881 1.01128 0.7248 0.0
N825 N 0.71769 0.99212 0.67741 0.0
C826 C 0.70778 0.02835 0.708 0.0
C827 C 0.70006 0.98447 0.71766 0.0
C828 C 0.71706 0.01829 0.68408 0.0
C829 C 0.7095 0.97517 0.6936 0.0
C830 C 0.64389 0.07868 0.77024 0.0
C831 C 0.63487 0.08391 0.74676 0.0
C832 C 0.65034 0.09927 0.78987 0.0
C833 C 0.63283 0.10973 0.74319 0.0
C834 C 0.64808 0.12482 0.78554 0.0
N835 N 0.63946 0.12949 0.76247 0.0
C836 C 0.60699 0.99833 0.72412 0.0
C837 C 0.6385 0.01993 0.70059 0.0
C838 C 0.59101 0.9924 0.70249 0.0
N839 N 0.63041 1.01154 0.72269 0.0
C840 C 0.62313 0.0145 0.67855 0.0
C841 C 0.59913 1.00035 0.67927 0.0
H842 H 0.60068 0.99247 0.74209 0.0
H843 H 0.65663 0.03138 0.70019 0.0
C844 C 0.72436 0.09172 0.78846 0.0
N845 N 0.70595 0.08231 0.77056 0.0
C846 C 0.74045 0.11392 0.7856 0.0
C847 C 0.71841 0.11636 0.74593 0.0
C848 C 0.70277 0.09411 0.74955 0.0
C849 C 0.73753 0.12659 0.76414 0.0
H850 H 0.72674 0.0818 0.80482 0.0
H851 H 0.68813 0.08617 0.73547 0.0
O852 O 0.64627 0.99658 0.77969 0.0
O853 O 0.69093 0.0352 0.80579 0.0
O854 O 0.68981 0.02087 0.74841 0.0
O855 O 0.64633 0.05354 0.77397 0.0
H856 H 0.61907 0.96906 0.81035 0.0
H857 H 0.65104 0.96667 0.73501 0.0
H858 H 0.60274 0.92275 0.79906 0.0
H859 H 0.63449 0.92032 0.72509 0.0
H860 H 0.68848 0.08706 0.88273 0.0
H861 H 0.69921 0.9997 0.83534 0.0
H862 H 0.68655 0.08032 0.83525 0.0
H863 H 0.70109 1.00786 0.88281 0.0
H864 H 0.7007 0.91948 0.80844 0.0
H865 H 0.76356 0.95507 0.76894 0.0
H866 H 0.58891 0.07419 0.86143 0.0
H867 H 0.6149 1.00194 0.87853 0.0
H868 H 0.70741 0.04914 0.71325 0.0
H869 H 0.69415 0.97093 0.73063 0.0
H870 H 0.72381 0.03131 0.67084 0.0
H871 H 0.71046 0.95446 0.68784 0.0
H872 H 0.62958 0.06823 0.73143 0.0
H873 H 0.65723 0.09557 0.80818 0.0
H874 H 0.626 0.11407 0.72507 0.0
H875 H 0.65319 0.14095 0.8005 0.0
H876 H 0.57252 0.98165 0.70389 0.0
H877 H 0.62972 0.0218 0.66127 0.0
H878 H 0.75538 0.12077 0.79978 0.0
H879 H 0.71555 0.1255 0.72911 0.0
Li880 Li 0.06059 0.27686 0.89915 0.0
Li881 Li 0.03042 0.29613 0.93074 0.0
Li882 Li 0.03819 0.24871 0.92812 0.0
Li883 Li 0.01254 0.26492 0.89552 0.0
C884 C 0.08748 0.27993 0.946 0.0
N885 N 0.13727 0.2792 0.96329 0.0
C886 C 0.10014 0.30235 0.95977 0.0
C887 C 0.10002 0.25707 0.94132 0.0
C888 C 0.12535 0.30161 0.96827 0.0
C889 C 0.12522 0.2571 0.95014 0.0
C890 C 0.0308 0.3248 0.89306 0.0
C891 C 1.00596 0.36212 0.89584 0.0
N892 N 0.02788 0.37763 0.89365 0.0
C893 C 0.05305 0.34106 0.89062 0.0
C894 C 1.00703 0.33534 0.89546 0.0
C895 C 0.05118 0.36773 0.89102 0.0
C896 C 0.08934 0.27134 0.85431 0.0
N897 N 0.09076 0.28248 0.87927 0.0
C898 C 0.13376 0.30035 0.87356 0.0
C899 C 0.1123 0.29706 0.88902 0.0
C900 C 0.13287 0.28887 0.84776 0.0
C901 C 0.11027 0.27418 0.83819 0.0
H902 H 0.07193 0.26001 0.84697 0.0
H903 H 0.11284 0.3063 0.9087 0.0
C904 C 1.00193 0.32878 0.96616 0.0
N905 N 0.02434 0.32732 0.95311 0.0
C906 C 0.99677 0.35183 0.98171 0.0
C907 C 0.03799 0.37134 0.97041 0.0
C908 C 0.0424 0.3479 0.95517 0.0
C909 C 0.01483 0.37356 0.98376 0.0
H910 H 0.98803 0.31207 0.96452 0.0
H911 H 0.06019 0.34614 0.94484 0.0
C912 C 0.04878 0.2186 0.87933 0.0
N913 N 0.06414 0.17109 0.85684 0.0
C914 C 0.03069 0.19923 0.86762 0.0
C915 C 0.07475 0.21397 0.87915 0.0
C916 C 0.03881 0.17529 0.8565 0.0
C917 C 0.08212 0.18979 0.8678 0.0
C918 C 0.97969 0.25831 0.93379 0.0
C919 C 0.97135 0.23436 0.94127 0.0
C920 C 0.96163 0.27466 0.92723 0.0
C921 C 0.94505 0.22699 0.9417 0.0
C922 C 0.9355 0.26657 0.92788 0.0
N923 N 0.92782 0.24309 0.93502 0.0
C924 C 0.05261 0.22336 0.97 0.0
C925 C 0.03044 0.19606 0.93576 0.0
C926 C 0.05486 0.20209 0.98309 0.0
N927 N 0.0409 0.2199 0.94659 0.0
C928 C 0.03229 0.17433 0.94809 0.0
C929 C 0.04478 0.17714 0.97199 0.0
H930 H 0.06042 0.24259 0.97844 0.0
H931 H 0.02041 0.19393 0.91763 0.0
C932 C 0.98154 0.27238 0.85417 0.0
N933 N 0.98455 0.25619 0.87174 0.0
C934 C 0.96094 0.26757 0.83685 0.0
C935 C 0.9469 0.2294 0.85591 0.0
C936 C 0.968 0.23476 0.87263 0.0
C937 C 0.94317 0.24592 0.83767 0.0
H938 H 0.99514 0.28912 0.85364 0.0
H939 H 0.97094 0.222 0.88659 0.0
O940 O 0.06286 0.28042 0.93739 0.0
O941 O 0.03232 0.29873 0.89323 0.0
O942 O 0.04113 0.24223 0.89015 0.0
O943 O 1.0054 0.26574 0.93302 0.0
H944 H 0.09065 0.32017 0.96376 0.0
H945 H 0.09033 0.2394 0.93125 0.0
H946 H 0.13543 0.31886 0.97882 0.0
H947 H 0.13515 0.23953 0.94661 0.0
H948 H 0.98771 0.37057 0.89788 0.0
H949 H 0.0716 0.33322 0.88871 0.0
H950 H 0.98961 0.32301 0.89717 0.0
H951 H 0.06827 0.38058 0.88933 0.0
H952 H 0.15082 0.31187 0.88163 0.0
H953 H 0.10895 0.26454 0.81857 0.0
H954 H 0.97878 0.35273 0.99188 0.0
H955 H 0.05271 0.38743 0.97202 0.0
H956 H 0.01056 0.20256 0.86729 0.0
H957 H 0.08915 0.22894 0.88737 0.0
H958 H 0.02497 0.16006 0.84757 0.0
H959 H 0.10215 0.18594 0.86759 0.0
H960 H 0.98501 0.22159 0.94667 0.0
H961 H 0.96773 0.29327 0.92146 0.0
H962 H 0.93833 0.20845 0.94735 0.0
H963 H 0.92133 0.27894 0.92266 0.0
H964 H 0.06485 0.20503 1.00137 0.0
H965 H 0.02395 0.15548 0.93904 0.0
H966 H 0.95896 0.28065 0.82293 0.0
H967 H 0.93343 0.21279 0.8576 0.0
Li968 Li 0.55638 0.75881 0.39229 0.0
Li969 Li 0.52979 0.78295 0.42517 0.0
Li970 Li 0.53334 0.7343 0.4232 0.0
Li971 Li 0.50776 0.7516 0.39142 0.0
C972 C 0.58614 0.7672 0.43649 0.0
N973 N 0.63798 0.77405 0.4483 0.0
C974 C 0.5973 0.7917 0.44722 0.0
C975 C 0.60127 0.74613 0.43208 0.0
C976 C 0.62356 0.79478 0.45298 0.0
C977 C 0.62746 0.75 0.43809 0.0
C978 C 0.52876 0.80846 0.38295 0.0
C979 C 0.50414 0.84518 0.38018 0.0
N980 N 0.52579 0.85911 0.37387 0.0
C981 C 0.5507 0.82304 0.37615 0.0
C982 C 0.50523 0.81952 0.38472 0.0
C983 C 0.54883 0.84864 0.37174 0.0
C984 C 0.58487 0.74571 0.34736 0.0
N985 N 0.58572 0.76122 0.3705 0.0
C986 C 0.62585 0.78258 0.36009 0.0
C987 C 0.60577 0.77933 0.37713 0.0
C988 C 0.62518 0.7673 0.33582 0.0
C989 C 0.60452 0.74839 0.32965 0.0
H990 H 0.56856 0.73169 0.34237 0.0
H991 H 0.60573 0.79203 0.39521 0.0
C992 C 0.50902 0.81629 0.46599 0.0
N993 N 0.52672 0.81536 0.44704 0.0
C994 C 0.50565 0.83975 0.48175 0.0
C995 C 0.53907 0.86087 0.45852 0.0
C996 C 0.54188 0.83698 0.44331 0.0
C997 C 0.52065 0.86252 0.47797 0.0
H998 H 0.4976 0.79875 0.46902 0.0
H999 H 0.55628 0.83569 0.4286 0.0
C1000 C 0.53685 0.69991 0.37856 0.0
N1001 N 0.54292 0.64744 0.36554 0.0
C1002 C 0.51566 0.68242 0.37061 0.0
C1003 C 0.56118 0.69079 0.37947 0.0
C1004 C 0.51911 0.65594 0.36423 0.0
C1005 C 0.56385 0.66417 0.37293 0.0
C1006 C 0.47666 0.75275 0.43313 0.0
C1007 C 0.46455 0.73042 0.44119 0.0
C1008 C 0.46212 0.77322 0.42928 0.0
C1009 C 0.438 0.72874 0.44475 0.0
C1010 C 0.43562 0.7708 0.43302 0.0
N1011 N 0.42419 0.74878 0.44058 0.0
C1012 C 0.55199 0.70835 0.46265 0.0
C1013 C 0.51817 0.68466 0.4372 0.0
C1014 C 0.55314 0.68803 0.4772 0.0
N1015 N 0.53481 0.70624 0.44296 0.0
C1016 C 0.51862 0.66394 0.45124 0.0
C1017 C 0.53621 0.6655 0.47161 0.0
H1018 H 0.56474 0.72586 0.46719 0.0
H1019 H 0.50439 0.68356 0.42177 0.0
C1020 C 0.47871 0.75984 0.34943 0.0
N1021 N 0.47852 0.74569 0.36913 0.0
C1022 C 0.45767 0.75755 0.33281 0.0
C1023 C 0.43683 0.72543 0.35644 0.0
C1024 C 0.45837 0.72831 0.37261 0.0
C1025 C 0.4362 0.74048 0.33647 0.0
H1026 H 0.49526 0.77294 0.34659 0.0
H1027 H 0.45896 0.71672 0.38795 0.0
O1028 O 0.56049 0.76387 0.4306 0.0
O1029 O 0.53027 0.78339 0.38747 0.0
O1030 O 0.53381 0.72587 0.38498 0.0
O1031 O 0.50262 0.75462 0.42928 0.0
H1032 H 0.58583 0.80817 0.45096 0.0
H1033 H 0.59285 0.72697 0.42421 0.0
H1034 H 0.63249 0.81366 0.46116 0.0
H1035 H 0.63941 0.73387 0.43469 0.0
H1036 H 0.48607 0.854 0.38159 0.0
H1037 H 0.56902 0.81478 0.37447 0.0
H1038 H 0.48795 0.80839 0.38935 0.0
H1039 H 0.56571 0.8602 0.36664 0.0
H1040 H 0.64125 0.79765 0.36546 0.0
H1041 H 0.60338 0.73609 0.31122 0.0
H1042 H 0.49182 0.83993 0.49706 0.0
H1043 H 0.55119 0.87789 0.45508 0.0
H1044 H 0.49673 0.6892 0.3696 0.0
H1045 H 0.57786 0.70414 0.38501 0.0
H1046 H 0.50285 0.64215 0.35824 0.0
H1047 H 0.58256 0.65683 0.37364 0.0
H1048 H 0.47549 0.71453 0.44463 0.0
H1049 H 0.47122 0.79083 0.42358 0.0
H1050 H 0.42837 0.7115 0.45084 0.0
H1051 H 0.42414 0.78646 0.42997 0.0
H1052 H 0.56695 0.69 0.49279 0.0
H1053 H 0.50555 0.64673 0.44597 0.0
H1054 H 0.45829 0.76885 0.31711 0.0
H1055 H 0.42074 0.71185 0.3597 0.0
Li1056 Li 0.02205 0.80429 0.6465 0.0
Li1057 Li 0.99321 0.78381 0.6768 0.0
Li1058 Li 0.04066 0.77692 0.67435 0.0
Li1059 Li 0.01071 0.75513 0.64018 0.0
C1060 C 0.02769 0.83614 0.69158 0.0
N1061 N 0.03555 0.8896 0.70448 0.0
C1062 C 1.00715 0.85077 0.69966 0.0
C1063 C 0.05228 0.84866 0.69039 0.0
C1064 C 0.0115 0.87778 0.70603 0.0
C1065 C 0.05584 0.87572 0.69688 0.0
C1066 C 0.96259 0.78678 0.63448 0.0
C1067 C 0.91877 0.7685 0.62756 0.0
N1068 N 0.91152 0.79247 0.62496 0.0
C1069 C 0.95474 0.81117 0.63143 0.0
C1070 C 0.94451 0.7652 0.63225 0.0
C1071 C 0.92883 0.81368 0.62674 0.0
C1072 C 0.04651 0.83007 0.60831 0.0
N1073 N 0.0296 0.8335 0.62789 0.0
C1074 C 0.02299 0.87613 0.61833 0.0
C1075 C 0.01796 0.85609 0.63317 0.0
C1076 C 0.04028 0.87302 0.59787 0.0
C1077 C 0.05223 0.84963 0.59313 0.0
H1078 H 0.05526 0.81188 0.60406 0.0
H1079 H 1.00424 0.85838 0.64847 0.0
C1080 C 0.96416 0.7718 0.71927 0.0
N1081 N 0.96452 0.78679 0.70017 0.0
C1082 C 0.94396 0.77198 0.73666 0.0
C1083 C 0.92518 0.80396 0.71534 0.0
C1084 C 0.94564 0.80293 0.69813 0.0
C1085 C 0.92401 0.78807 0.73473 0.0
H1086 H 0.97964 0.75962 0.72105 0.0
H1087 H 0.94649 0.81521 0.68331 0.0
C1088 C 0.06959 0.77184 0.63189 0.0
N1089 N 0.12092 0.76471 0.62362 0.0
C1090 C 0.07689 0.74806 0.61938 0.0
C1091 C 0.08837 0.79213 0.6398 0.0
C1092 C 0.10294 0.74481 0.61546 0.0
C1093 C 0.11422 0.7881 0.63557 0.0
C1094 C 1.0015 0.72644 0.67971 0.0
C1095 C 0.01794 0.70869 0.68658 0.0
C1096 C 0.97538 0.71875 0.67571 0.0
C1097 C 1.00804 0.68336 0.68882 0.0
C1098 C 0.96621 0.69326 0.67815 0.0
N1099 N 0.98261 0.67622 0.68455 0.0
C1100 C 0.07965 0.78934 0.71358 0.0
C1101 C 0.08262 0.74986 0.68543 0.0
C1102 C 0.10212 0.78545 0.72647 0.0
N1103 N 0.07058 0.77174 0.69329 0.0
C1104 C 0.10523 0.74542 0.69745 0.0
C1105 C 0.11535 0.76346 0.71807 0.0
H1106 H 0.06956 0.80646 0.71964 0.0
H1107 H 0.07477 0.73592 0.6696 0.0
C1108 C 0.9879 0.72485 0.5954 0.0
N1109 N 1.00389 0.72425 0.61557 0.0
C1110 C 0.9822 0.7025 0.57752 0.0
C1111 C 0.0102 0.67948 0.60093 0.0
C1112 C 0.01534 0.70227 0.61837 0.0
C1113 C 0.99315 0.67931 0.58036 0.0
H1114 H 0.97955 0.74272 0.59318 0.0
H1115 H 0.02855 0.70242 0.63413 0.0
O1116 O 0.02376 0.80969 0.68513 0.0
O1117 O 0.98791 0.78399 0.63909 0.0
O1118 O 0.0442 0.77521 0.63642 0.0
O1119 O 0.0109 0.75126 0.67715 0.0
H1120 H 0.98804 0.8414 0.70082 0.0
H1121 H 0.06845 0.83763 0.68456 0.0
H1122 H 0.99575 0.88936 0.71216 0.0
H1123 H 0.07476 0.88567 0.69592 0.0
H1124 H 0.90458 0.75197 0.62588 0.0
H1125 H 0.96845 0.82803 0.63286 0.0
H1126 H 0.95029 0.74606 0.63387 0.0
H1127 H 0.92247 0.83249 0.62453 0.0
H1128 H 0.0127 0.89346 0.62228 0.0
H1129 H 0.06562 0.8463 0.57755 0.0
H1130 H 0.94411 0.75989 0.75171 0.0
H1131 H 0.91027 0.81681 0.71336 0.0
H1132 H 0.06262 0.73224 0.6129 0.0
H1133 H 0.08303 0.81073 0.64921 0.0
H1134 H 0.10888 0.72645 0.60597 0.0
H1135 H 0.12896 0.80357 0.6418 0.0
H1136 H 0.03814 0.71435 0.69007 0.0
H1137 H 0.9623 0.73238 0.67103 0.0
H1138 H 0.02059 0.66938 0.69396 0.0
H1139 H 0.94605 0.68706 0.67503 0.0
H1140 H 0.10938 0.79968 0.74242 0.0
H1141 H 0.11475 0.72803 0.69073 0.0
H1142 H 0.96947 0.7034 0.56155 0.0
H1143 H 0.01915 0.66206 0.60373 0.0
Li1144 Li 0.52862 0.30204 0.1476 0.0
Li1145 Li 0.4987 0.28108 0.1787 0.0
Li1146 Li 0.54425 0.27641 0.17834 0.0
Li1147 Li 0.5183 0.25245 0.14366 0.0
C1148 C 0.54 0.32165 0.20676 0.0
N1149 N 0.56759 0.34474 0.24989 0.0
C1150 C 0.53425 0.31397 0.23055 0.0
C1151 C 0.55967 0.34115 0.20489 0.0
C1152 C 0.54847 0.32585 0.25213 0.0
C1153 C 0.57342 0.35258 0.22693 0.0
C1154 C 0.47122 0.28722 0.13455 0.0
C1155 C 0.42641 0.27614 0.12385 0.0
N1156 N 0.42353 0.30161 0.1224 0.0
C1157 C 0.46786 0.31326 0.13278 0.0
C1158 C 0.45039 0.26845 0.12985 0.0
C1159 C 0.44359 0.32015 0.12667 0.0
C1160 C 0.53998 0.32254 0.10242 0.0
N1161 N 0.53546 0.32977 0.1277 0.0
C1162 C 0.54089 0.37485 0.12254 0.0
C1163 C 0.53585 0.35533 0.138 0.0
C1164 C 0.5454 0.36794 0.09624 0.0
C1165 C 0.54505 0.34135 0.08631 0.0
H1166 H 0.53953 0.30207 0.09475 0.0
H1167 H 0.53208 0.36057 0.15815 0.0
C1168 C 0.46809 0.27111 0.22078 0.0
N1169 N 0.46927 0.28518 0.20094 0.0
C1170 C 0.44763 0.27261 0.23785 0.0
C1171 C 0.43001 0.3036 0.21435 0.0
C1172 C 0.45089 0.30151 0.19769 0.0
C1173 C 0.42823 0.28907 0.23483 0.0
H1174 H 0.4831 0.25862 0.22338 0.0
H1175 H 0.45244 0.31313 0.18236 0.0
C1176 C 0.57742 0.27136 0.13962 0.0
N1177 N 0.62987 0.26778 0.13799 0.0
C1178 C 0.58767 0.24851 0.14427 0.0
C1179 C 0.59381 0.29231 0.13391 0.0
C1180 C 0.61425 0.24712 0.14347 0.0
C1181 C 0.62028 0.29011 0.13319 0.0
C1182 C 0.50308 0.22514 0.18093 0.0
C1183 C 0.5159 0.20406 0.18648 0.0
C1184 C 0.47692 0.22147 0.1747 0.0
C1185 C 0.5023 0.17969 0.18574 0.0
C1186 C 0.46398 0.19682 0.17419 0.0
N1187 N 0.47684 0.1766 0.17966 0.0
C1188 C 0.57123 0.2555 0.21603 0.0
C1189 C 0.59531 0.28984 0.19965 0.0
C1190 C 0.59241 0.25089 0.23035 0.0
N1191 N 0.57325 0.27411 0.2004 0.0
C1192 C 0.61693 0.28602 0.21377 0.0
C1193 C 0.61588 0.26577 0.22875 0.0
H1194 H 0.55331 0.24381 0.21697 0.0
H1195 H 0.59638 0.30495 0.18759 0.0
C1196 C 0.49637 0.21961 0.09943 0.0
N1197 N 0.51301 0.221 0.1195 0.0
C1198 C 0.49163 0.19632 0.08252 0.0
C1199 C 0.52157 0.17652 0.10695 0.0
C1200 C 0.52593 0.2002 0.12316 0.0
C1201 C 0.50398 0.17429 0.08653 0.0
H1202 H 0.4866 0.23652 0.09666 0.0
H1203 H 0.5394 0.20183 0.13891 0.0
O1204 O 0.52661 0.30988 0.18537 0.0
O1205 O 0.49489 0.28009 0.14032 0.0
O1206 O 0.55149 0.27329 0.14072 0.0
O1207 O 0.51625 0.24899 0.18066 0.0
H1208 H 0.51919 0.29879 0.23228 0.0
H1209 H 0.56454 0.34711 0.18657 0.0
H1210 H 0.54434 0.32 0.27065 0.0
H1211 H 0.5888 0.36758 0.22576 0.0
H1212 H 0.4101 0.26183 0.12026 0.0
H1213 H 0.48372 0.32805 0.13636 0.0
H1214 H 0.45269 0.24814 0.13071 0.0
H1215 H 0.44068 0.34026 0.12538 0.0
H1216 H 0.5413 0.3951 0.13107 0.0
H1217 H 0.54816 0.33512 0.06613 0.0
H1218 H 0.44686 0.26074 0.2531 0.0
H1219 H 0.41557 0.31669 0.21145 0.0
H1220 H 0.57529 0.23224 0.14898 0.0
H1221 H 0.58621 0.31016 0.13033 0.0
H1222 H 0.62247 0.22967 0.14731 0.0
H1223 H 0.63321 0.30621 0.12893 0.0
H1224 H 0.53626 0.20628 0.19077 0.0
H1225 H 0.46672 0.23746 0.17018 0.0
H1226 H 0.51203 0.16318 0.18983 0.0
H1227 H 0.44374 0.19374 0.16937 0.0
H1228 H 0.59069 0.23517 0.24177 0.0
H1229 H 0.63444 0.29844 0.21254 0.0
H1230 H 0.47799 0.19532 0.0669 0.0
H1231 H 0.53179 0.16007 0.11039 0.0
C1232 C 0.27839 0.76722 0.86231 0.0
C1233 C 0.25529 0.75349 0.85271 0.0
C1234 C 0.27888 0.78563 0.88456 0.0
C1235 C 0.25631 0.79092 0.89828 0.0
H1236 H 0.29626 0.76374 0.85247 0.0
H1237 H 0.29713 0.79584 0.89106 0.0
S1238 S 0.19101 0.75907 0.88178 0.0
N1239 N 0.20937 0.7459 0.85879 0.0
N1240 N 0.21026 0.7801 0.90093 0.0
C1241 C 0.23304 0.77726 0.88884 0.0
C1242 C 0.23254 0.75865 0.86602 0.0
C1243 C 0.04248 0.57665 0.41336 0.0
C1244 C 0.03053 0.55466 0.42239 0.0
C1245 C 0.06382 0.57449 0.39716 0.0
C1246 C 0.07379 0.55023 0.3894 0.0
H1247 H 0.03476 0.59542 0.41808 0.0
H1248 H 0.07218 0.59182 0.39015 0.0
S1249 S 0.04876 0.4869 0.40816 0.0
N1250 N 0.03002 0.50818 0.42304 0.0
N1251 N 0.06974 0.50384 0.39236 0.0
C1252 C 0.06223 0.52826 0.39902 0.0
C1253 C 0.04063 0.53055 0.41554 0.0
C1254 C 0.82193 0.76745 0.89438 0.0
C1255 C 0.82166 0.75741 0.86812 0.0
C1256 C 0.81736 0.75106 0.91306 0.0
C1257 C 0.81196 0.72401 0.90622 0.0
H1258 H 0.82522 0.78825 0.9005 0.0
H1259 H 0.8172 0.75977 0.93299 0.0
S1260 S 0.81032 0.6878 0.8402 0.0
N1261 N 0.81665 0.71859 0.83629 0.0
N1262 N 0.80792 0.68774 0.87141 0.0
C1263 C 0.81231 0.71361 0.88008 0.0
C1264 C 0.81727 0.73031 0.86104 0.0
C1265 C 0.04039 1.00555 0.41082 0.0
C1266 C 0.02852 1.00782 0.4349 0.0
C1267 C 0.02718 1.00977 0.38887 0.0
C1268 C 1.00171 0.01675 0.39021 0.0
H1269 H 0.0599 1.0 0.40886 0.0
H1270 H 0.03701 1.00763 0.37069 0.0
S1271 S 0.96218 0.02583 0.44875 0.0
N1272 N 0.99002 0.01805 0.45887 0.0
N1273 N 0.96514 0.02581 0.41759 0.0
C1274 C 0.98973 0.01942 0.41421 0.0
C1275 C 1.00312 0.01495 0.43653 0.0
C1276 C 0.24864 0.25384 0.6611 0.0
C1277 C 0.27033 0.26646 0.67483 0.0
C1278 C 0.25114 0.23739 0.63788 0.0
C1279 C 0.27543 0.23286 0.62745 0.0
H1280 H 0.22956 0.25649 0.66854 0.0
H1281 H 0.23388 0.22799 0.62809 0.0
S1282 S 0.33829 0.26073 0.65617 0.0
N1283 N 0.31691 0.27316 0.67644 0.0
N1284 N 0.32164 0.24218 0.63279 0.0
C1285 C 0.29728 0.24569 0.64076 0.0
C1286 C 0.29472 0.2625 0.66443 0.0
C1287 C 0.52492 0.51142 0.62476 0.0
C1288 C 0.52982 0.53417 0.61342 0.0
C1289 C 0.50895 0.51096 0.64608 0.0
C1290 C 0.49715 0.53323 0.65703 0.0
H1291 H 0.53321 0.49362 0.61689 0.0
H1292 H 0.50599 0.49299 0.65415 0.0
S1293 S 0.50369 0.59784 0.63471 0.0
N1294 N 0.52186 0.57974 0.61505 0.0
N1295 N 0.49124 0.57868 0.65468 0.0
C1296 C 0.50188 0.55616 0.64593 0.0
C1297 C 0.51825 0.55665 0.62422 0.0
C1298 C 0.80238 0.30206 0.6806 0.0
C1299 C 0.80721 0.27578 0.67442 0.0
C1300 C 0.79311 0.31579 0.66203 0.0
C1301 C 0.78864 0.3037 0.63659 0.0
H1302 H 0.80701 0.31245 0.69958 0.0
H1303 H 0.79079 0.33636 0.6673 0.0
S1304 S 0.7958 0.23425 0.61171 0.0
N1305 N 0.80518 0.23755 0.64198 0.0
N1306 N 0.78744 0.26312 0.60699 0.0
C1307 C 0.79212 0.27696 0.63064 0.0
C1308 C 0.80151 0.26304 0.6496 0.0
C1309 C 0.5403 0.99672 0.63625 0.0
C1310 C 0.54943 0.98688 0.61197 0.0
C1311 C 0.55636 1.00054 0.65796 0.0
C1312 C 0.58221 0.99486 0.65619 0.0
H1313 H 0.52058 1.00154 0.63848 0.0
H1314 H 0.5486 1.00854 0.67619 0.0
S1315 S 0.61539 0.96817 0.59717 0.0
N1316 N 0.58596 0.97138 0.58746 0.0
N1317 N 0.61599 0.97808 0.62836 0.0
C1318 C 0.5915 0.98467 0.6321 0.0
C1319 C 0.57514 0.98075 0.60999 0.0
C1320 C 0.88574 0.25848 0.79844 0.0
C1321 C 0.87785 0.23369 0.78521 0.0
C1322 C 0.90663 0.26212 0.81557 0.0
C1323 C 0.92061 0.24115 0.81991 0.0
H1324 H 0.87563 0.27518 0.79556 0.0
H1325 H 0.91181 0.28155 0.82555 0.0
S1326 S 0.90834 0.17253 0.78872 0.0
N1327 N 0.88572 0.18794 0.777 0.0
N1328 N 0.92547 0.19478 0.8087 0.0
C1329 C 0.91289 0.21622 0.80667 0.0
C1330 C 0.89141 0.2125 0.78943 0.0
C1331 C 0.53905 0.92523 0.52284 0.0
C1332 C 0.51522 0.93464 0.53015 0.0
C1333 C 0.54054 0.9022 0.50573 0.0
C1334 C 0.51827 0.88754 0.49515 0.0
H1335 H 0.55678 0.93571 0.53055 0.0
H1336 H 0.55933 0.89554 0.50119 0.0
S1337 S 0.45119 0.90428 0.50702 0.0
N1338 N 0.46884 0.92783 0.525 0.0
N1339 N 0.47163 0.88475 0.49228 0.0
C1340 C 0.49431 0.89699 0.50181 0.0
C1341 C 0.49279 0.92052 0.51933 0.0
C1342 C 0.20082 0.28344 0.8229 0.0
C1343 C 0.19861 0.2886 0.79767 0.0
C1344 C 0.17975 0.28479 0.83944 0.0
C1345 C 0.15572 0.29104 0.83113 0.0
H1346 H 0.21861 0.27724 0.82955 0.0
H1347 H 0.18194 0.27966 0.85844 0.0
S1348 S 0.14108 0.30851 0.76732 0.0
N1349 N 0.17144 0.30181 0.76553 0.0
N1350 N 0.13179 0.30457 0.79654 0.0
C1351 C 0.15376 0.2974 0.80622 0.0
C1352 C 0.17525 0.29612 0.78949 0.0
C1353 C 0.5626 0.61081 0.50157 0.0
C1354 C 0.54036 0.59786 0.51018 0.0
C1355 C 0.56121 0.63325 0.48992 0.0
C1356 C 0.53747 0.64329 0.48629 0.0
H1357 H 0.58107 0.60309 0.50312 0.0
H1358 H 0.57871 0.64221 0.48282 0.0
S1359 S 0.474 0.61731 0.50757 0.0
N1360 N 0.49427 0.59714 0.51577 0.0
N1361 N 0.49149 0.63941 0.49407 0.0
C1362 C 0.51523 0.6309 0.49574 0.0
C1363 C 0.51672 0.60813 0.50765 0.0
C1364 C 0.87643 0.81313 0.78535 0.0
C1365 C 0.86244 0.79018 0.7906 0.0
C1366 C 0.89594 0.81235 0.76697 0.0
C1367 C 0.90242 0.78859 0.75322 0.0
H1368 H 0.87266 0.83184 0.79594 0.0
H1369 H 0.90647 0.83045 0.76394 0.0
S1370 S 0.87007 0.72324 0.75761 0.0
N1371 N 0.85523 0.74318 0.77885 0.0
N1372 N 0.89221 0.74175 0.7448 0.0
C1373 C 0.88825 0.76558 0.7578 0.0
C1374 C 0.86824 0.76636 0.77634 0.0
C1375 C 0.04441 0.90324 0.5363 0.0
C1376 C 0.04661 0.93009 0.54512 0.0
C1377 C 0.0433 0.88501 0.5535 0.0
C1378 C 0.0442 0.89297 0.58021 0.0
H1379 H 0.04241 0.89623 0.51598 0.0
H1380 H 0.04056 0.86452 0.54577 0.0
S1381 S 0.05215 0.96144 0.6127 0.0
N1382 N 0.05104 0.96403 0.58189 0.0
N1383 N 0.04949 0.92989 0.6144 0.0
C1384 C 0.04748 0.91993 0.58916 0.0
C1385 C 0.04857 0.93846 0.57156 0.0
C1386 C 0.16275 0.74747 0.7669 0.0
C1387 C 0.1848 0.74352 0.75208 0.0
C1388 C 0.14055 0.75537 0.7562 0.0
C1389 C 0.13979 0.75908 0.73032 0.0
H1390 H 0.16232 0.74348 0.78648 0.0
H1391 H 0.12353 0.75734 0.76783 0.0
S1392 S 0.19334 0.753 0.68433 0.0
N1393 N 0.20518 0.74536 0.711 0.0
N1394 N 0.16354 0.75992 0.69084 0.0
C1395 C 0.16215 0.75619 0.71577 0.0
C1396 C 0.18467 0.74845 0.72669 0.0
C1397 C 1.00045 0.61703 0.53391 0.0
C1398 C 0.97486 0.60765 0.52769 0.0
C1399 C 1.00624 0.64017 0.55097 0.0
C1400 C 0.98667 0.65497 0.56214 0.0
H1401 H 0.01609 0.60619 0.52584 0.0
H1402 H 0.02621 0.64662 0.55531 0.0
S1403 S 0.91658 0.63917 0.55162 0.0
N1404 N 0.92983 0.61533 0.53355 0.0
N1405 N 0.94068 0.65848 0.56576 0.0
C1406 C 0.96103 0.64592 0.55585 0.0
C1407 C 0.95515 0.62235 0.53862 0.0
C1408 C 0.78826 0.89266 0.23204 0.0
C1409 C 0.7961 0.86717 0.22852 0.0
C1410 C 0.80623 0.91444 0.23554 0.0
C1411 C 0.83278 0.91161 0.23564 0.0
H1412 H 0.76802 0.8958 0.23229 0.0
H1413 H 0.79928 0.93367 0.23835 0.0
S1414 S 0.86333 0.84914 0.22786 0.0
N1415 N 0.83222 0.84036 0.22563 0.0
N1416 N 0.86603 0.88132 0.23217 0.0
C1417 C 0.84092 0.88626 0.23174 0.0
C1418 C 0.82258 0.86405 0.22819 0.0
C1419 C 0.79015 0.15285 0.31308 0.0
C1420 C 0.79702 0.17966 0.31435 0.0
C1421 C 0.80863 0.1347 0.30888 0.0
C1422 C 0.8347 0.1426 0.30535 0.0
H1423 H 0.77024 0.14584 0.31512 0.0
H1424 H 0.80235 0.11424 0.30814 0.0
S1425 S 0.86225 0.21087 0.30635 0.0
N1426 N 0.8314 0.21347 0.31195 0.0
N1427 N 0.86618 0.17941 0.30316 0.0
C1428 C 0.84182 0.16951 0.3069 0.0
C1429 C 0.82296 0.18801 0.31156 0.0
C1430 C 0.42053 1.00113 0.99192 0.0
C1431 C 0.43246 0.01643 0.01357 0.0
C1432 C 0.39833 0.98452 0.99414 0.0
C1433 C 0.38717 0.98242 0.01812 0.0
H1434 H 0.42843 1.00198 0.97305 0.0
H1435 H 0.39011 0.97288 0.97694 0.0
S1436 S 0.41065 0.01856 0.08075 0.0
N1437 N 0.43145 0.02829 0.05984 0.0
N1438 N 0.38932 0.99774 0.06392 0.0
C1439 C 0.39872 0.99783 0.03991 0.0
C1440 C 0.42139 0.0147 0.03765 0.0
C1441 C 0.27789 0.3844 0.30234 0.0
C1442 C 0.26556 0.35966 0.29375 0.0
C1443 C 0.26671 0.40715 0.2982 0.0
C1444 C 0.24269 0.40568 0.28577 0.0
H1445 H 0.29562 0.38622 0.31332 0.0
H1446 H 0.2762 0.42594 0.30597 0.0
S1447 S 0.20392 0.34531 0.25795 0.0
N1448 N 0.22917 0.33488 0.27086 0.0
N1449 N 0.20804 0.37746 0.26327 0.0
C1450 C 0.23089 0.38096 0.2761 0.0
C1451 C 0.24237 0.35795 0.28007 0.0
C1452 C 0.12888 1.01053 0.48965 0.0
C1453 C 0.10623 0.02345 0.49162 0.0
C1454 C 0.15315 0.02462 0.49207 0.0
C1455 C 0.15553 0.05207 0.4969 0.0
H1456 H 0.12782 0.98948 0.48528 0.0
H1457 H 0.17018 0.014 0.48992 0.0
S1458 S 0.1019 0.09489 0.50436 0.0
N1459 N 0.08762 0.06506 0.49921 0.0
N1460 N 0.13304 0.09149 0.5039 0.0
C1461 C 0.13295 0.06509 0.49959 0.0
C1462 C 0.10836 0.0508 0.4969 0.0
C1463 C 0.78554 0.17132 0.73323 0.0
C1464 C 0.79222 0.19153 0.75341 0.0
C1465 C 0.76726 0.15077 0.7366 0.0
C1466 C 0.75502 0.14972 0.76027 0.0
H1467 H 0.79531 0.17079 0.71507 0.0
H1468 H 0.76343 0.13508 0.72085 0.0
S1469 S 0.76314 0.19991 0.8179 0.0
N1470 N 0.7834 0.21061 0.797 0.0
N1471 N 0.74895 0.17218 0.80329 0.0
C1472 C 0.7606 0.17055 0.78014 0.0
C1473 C 0.77919 0.1914 0.77672 0.0
C1474 C 0.43964 0.03723 0.5127 0.0
C1475 C 0.4417 0.02975 0.53704 0.0
C1476 C 0.41736 0.04771 0.50531 0.0
C1477 C 0.39651 0.05116 0.52211 0.0
H1478 H 0.45573 0.03606 0.49974 0.0
H1479 H 0.41677 0.05394 0.48663 0.0
S1480 S 0.39282 0.03396 0.58793 0.0
N1481 N 0.42125 0.02561 0.57763 0.0
N1482 N 0.3795 0.04559 0.5641 0.0
C1483 C 0.39815 0.04275 0.54619 0.0
C1484 C 0.42079 0.03203 0.55359 0.0
C1485 C 0.60608 0.47824 0.5722 0.0
C1486 C 0.6073 0.50347 0.56541 0.0
C1487 C 0.6273 0.46326 0.56909 0.0
C1488 C 0.65063 0.47308 0.55939 0.0
H1489 H 0.58837 0.46976 0.57935 0.0
H1490 H 0.62544 0.44383 0.57431 0.0
S1491 S 0.66398 0.53832 0.53952 0.0
N1492 N 0.63391 0.53787 0.54921 0.0
N1493 N 0.67373 0.50972 0.54324 0.0
C1494 C 0.65224 0.49846 0.55298 0.0
C1495 C 0.63059 0.51362 0.55598 0.0
C1496 C 0.75375 0.28096 0.36084 0.0
C1497 C 0.75429 0.25434 0.3628 0.0
C1498 C 0.75339 0.29974 0.38283 0.0
C1499 C 0.7531 0.29251 0.40752 0.0
H1500 H 0.75418 0.28734 0.34219 0.0
H1501 H 0.75334 0.32007 0.38051 0.0
S1502 S 0.75354 0.22527 0.42293 0.0
N1503 N 0.75385 0.22167 0.39133 0.0
N1504 N 0.7532 0.25687 0.43256 0.0
C1505 C 0.75316 0.26592 0.40968 0.0
C1506 C 0.75378 0.24687 0.38735 0.0
C1507 C 0.56556 0.05825 0.93575 0.0
C1508 C 0.54838 0.03635 0.93746 0.0
C1509 C 0.58156 0.05915 0.91434 0.0
C1510 C 0.58105 0.03801 0.8943 0.0
H1511 H 0.56704 0.07445 0.95124 0.0
H1512 H 0.59499 0.07608 0.91384 0.0
S1513 S 0.53805 0.97707 0.88933 0.0
N1514 N 0.53077 0.99381 0.91706 0.0
N1515 N 0.56076 0.99535 0.87702 0.0
C1516 C 0.56336 0.0164 0.89565 0.0
C1517 C 0.54704 0.01561 0.91723 0.0
C1518 C 0.30703 0.25913 0.38111 0.0
C1519 C 0.31584 0.25022 0.35642 0.0
C1520 C 0.3036 0.24252 0.39968 0.0
C1521 C 0.30885 0.21619 0.39447 0.0
H1522 H 0.30254 0.27918 0.38611 0.0
H1523 H 0.29625 0.2503 0.41816 0.0
S1524 S 0.33341 0.1833 0.33317 0.0
N1525 N 0.33018 0.21336 0.32786 0.0
N1526 N 0.32448 0.18226 0.36305 0.0
C1527 C 0.31821 0.2071 0.37003 0.0
C1528 C 0.32163 0.22408 0.35101 0.0
C1529 C 0.52301 0.5208 0.92938 0.0
C1530 C 0.5334 0.49666 0.92895 0.0
C1531 C 0.50792 0.52576 0.90891 0.0
C1532 C 0.50305 0.5069 0.88712 0.0
H1533 H 0.5261 0.53575 0.9459 0.0
H1534 H 0.50001 0.54448 0.91013 0.0
S1535 S 0.52654 0.44091 0.87628 0.0
N1536 N 0.53833 0.45399 0.9047 0.0
N1537 N 0.51 0.46327 0.86629 0.0
C1538 C 0.51373 0.48288 0.88628 0.0
C1539 C 0.52886 0.47775 0.90719 0.0
C1540 C 0.73845 0.76858 0.17158 0.0
C1541 C 0.76059 0.77876 0.18607 0.0
C1542 C 0.73992 0.74977 0.14972 0.0
C1543 C 0.76359 0.74066 0.14149 0.0
H1544 H 0.72004 0.77593 0.17658 0.0
H1545 H 0.72259 0.74301 0.13865 0.0
S1546 S 0.82648 0.75817 0.17459 0.0
N1547 N 0.80638 0.77596 0.19212 0.0
N1548 N 0.80913 0.74125 0.15076 0.0
C1549 C 0.7856 0.74976 0.15641 0.0
C1550 C 0.7841 0.76862 0.17875 0.0
C1551 C 0.01772 0.04553 0.10977 0.0
C1552 C 0.04459 0.05054 0.11131 0.0
C1553 C 1.00272 0.04674 0.13192 0.0
C1554 C 0.01399 0.05309 0.15651 0.0
H1555 H 1.00828 0.03967 0.09133 0.0
H1556 H 0.98222 0.04176 0.12975 0.0
S1557 S 0.08326 0.07104 0.17076 0.0
N1558 N 0.08166 0.06412 0.13923 0.0
N1559 N 0.0535 0.06675 0.18087 0.0
C1560 C 0.04075 0.05919 0.15825 0.0
C1561 C 0.05602 0.05784 0.13568 0.0
C1562 C 0.29972 0.7957 0.17409 0.0
C1563 C 0.30906 0.77128 0.16658 0.0
C1564 C 0.29114 0.8102 0.15582 0.0
C1565 C 0.29171 0.80075 0.12943 0.0
H1566 H 0.30012 0.80418 0.19411 0.0
H1567 H 0.28473 0.82929 0.16234 0.0
S1568 S 0.3141 0.73733 0.10034 0.0
N1569 N 0.31786 0.73779 0.13148 0.0
N1570 N 0.30193 0.76494 0.09697 0.0
C1571 C 0.30015 0.7758 0.12186 0.0
C1572 C 0.30885 0.7611 0.14051 0.0
C1573 C 0.06716 0.48616 0.11474 0.0
C1574 C 0.04212 0.49416 0.11745 0.0
C1575 C 0.08382 0.48848 0.13591 0.0
C1576 C 0.07598 0.49868 0.16059 0.0
H1577 H 0.07413 0.47856 0.09603 0.0
H1578 H 0.10301 0.48227 0.13293 0.0
S1579 S 0.01209 0.52178 0.17797 0.0
N1580 N 0.01 0.51192 0.14681 0.0
N1581 N 0.04145 0.5168 0.1865 0.0
C1582 C 0.05086 0.50641 0.1636 0.0
C1583 C 0.03392 0.50407 0.14206 0.0
C1584 C 0.38251 0.71066 0.29015 0.0
C1585 C 0.37201 0.73267 0.28316 0.0
C1586 C 0.40294 0.71331 0.3078 0.0
C1587 C 0.41353 0.73806 0.3191 0.0
H1588 H 0.37534 0.69128 0.28138 0.0
H1589 H 0.41096 0.69588 0.3121 0.0
S1590 S 0.39075 0.80162 0.3095 0.0
N1591 N 0.37226 0.77984 0.29034 0.0
N1592 N 0.41048 0.78487 0.3237 0.0
C1593 C 0.40254 0.76016 0.31295 0.0
C1594 C 0.38184 0.75746 0.29494 0.0
C1595 C 1.00047 0.42015 0.04335 0.0
C1596 C 1.0053 0.4448 0.03553 0.0
C1597 C 1.00271 0.3972 0.02623 0.0
C1598 C 0.0101 0.39805 1.00072 0.0
H1599 H 0.99553 0.41862 0.06304 0.0
H1600 H 0.99957 0.37869 0.03331 0.0
S1601 S 0.02321 0.45755 0.97022 0.0
N1602 N 0.01664 0.46864 1.00025 0.0
N1603 N 0.02054 0.42546 0.96799 0.0
C1604 C 0.01403 0.42252 0.99239 0.0
C1605 C 0.01163 0.4459 0.0098 0.0
C1606 C 0.69049 0.78382 0.30783 0.0
C1607 C 0.6841 0.79023 0.28384 0.0
C1608 C 0.67141 0.77506 0.32404 0.0
C1609 C 0.64528 0.77244 0.31677 0.0
H1610 H 0.7102 0.78693 0.31471 0.0
H1611 H 0.67703 0.77125 0.3428 0.0
S1612 S 0.61901 0.78597 0.25522 0.0
N1613 N 0.65034 0.79261 0.25304 0.0
N1614 N 0.61432 0.77613 0.28336 0.0
C1615 C 0.63888 0.77764 0.29221 0.0
C1616 C 0.65836 0.78662 0.27578 0.0
C1617 C 0.05995 0.10894 0.98077 0.0
C1618 C 0.05316 0.10745 1.00625 0.0
C1619 C 0.0574 0.13167 0.97004 0.0
C1620 C 0.04804 0.15377 0.98447 0.0
H1621 H 0.06709 0.09231 0.96892 0.0
H1622 H 0.06284 0.13194 0.95026 0.0
S1623 S 0.02751 0.15939 0.05225 0.0
N1624 N 0.03677 0.12955 0.04581 0.0
N1625 N 0.03185 0.17254 0.02573 0.0
C1626 C 0.04144 0.15255 0.01018 0.0
C1627 C 0.04399 0.12926 0.02106 0.0
C1628 C 0.35959 0.28827 0.25954 0.0
C1629 C 0.36292 0.29047 0.28627 0.0
C1630 C 0.38076 0.28837 0.24309 0.0
C1631 C 0.4061 0.29068 0.25272 0.0
H1632 H 0.34044 0.28572 0.25122 0.0
H1633 H 0.37723 0.2859 0.22263 0.0
S1634 S 0.42526 0.30028 0.32136 0.0
N1635 N 0.39355 0.29727 0.32169 0.0
N1636 N 0.43327 0.29753 0.29087 0.0
C1637 C 0.40969 0.29384 0.27946 0.0
C1638 C 0.38815 0.29371 0.29618 0.0
C1639 C 0.57147 0.40245 0.04153 0.0
C1640 C 0.55426 0.42156 0.04047 0.0
C1641 C 0.56924 0.38598 0.06042 0.0
C1642 C 0.54962 0.38799 0.0788 0.0
H1643 H 0.58598 0.39936 0.02697 0.0
H1644 H 0.58248 0.371 0.06012 0.0
S1645 S 0.50012 0.43565 0.08419 0.0
N1646 N 0.51759 0.44233 0.05951 0.0
N1647 N 0.5131 0.41137 0.09489 0.0
C1648 C 0.53295 0.40786 0.07844 0.0
C1649 C 0.53531 0.42461 0.05923 0.0
C1650 C 0.6597 0.24386 0.27775 0.0
C1651 C 0.68229 0.23988 0.26387 0.0
C1652 C 0.63857 0.25325 0.26664 0.0
C1653 C 0.63938 0.25887 0.24129 0.0
H1654 H 0.65803 0.23885 0.29693 0.0
H1655 H 0.62126 0.25556 0.27776 0.0
S1656 S 0.69455 0.25135 0.19719 0.0
N1657 N 0.70466 0.24237 0.22394 0.0
N1658 N 0.66502 0.25961 0.20282 0.0
C1659 C 0.66228 0.25551 0.22757 0.0
C1660 C 0.68372 0.24605 0.23893 0.0
C1661 C 0.49646 0.12227 0.02759 0.0
C1662 C 0.48819 0.09969 0.03808 0.0
C1663 C 0.5011 0.14651 0.04327 0.0
C1664 C 0.49812 0.14883 0.07 0.0
H1665 H 0.49919 0.12121 1.00713 0.0
H1666 H 0.50748 0.16345 0.0345 0.0
S1667 S 0.47708 0.09557 0.10688 0.0
N1668 N 0.47734 0.08124 0.07685 0.0
N1669 N 0.48614 0.12661 0.10618 0.0
C1670 C 0.4899 0.12639 0.08066 0.0
C1671 C 0.48492 0.10188 0.06475 0.0
C1672 C 0.28964 0.36658 0.72446 0.0
C1673 C 0.29136 0.34637 0.73928 0.0
C1674 C 0.30523 0.39008 0.72989 0.0
C1675 C 0.32343 0.39397 0.75 0.0
H1676 H 0.27634 0.36406 0.70839 0.0
H1677 H 0.30359 0.40499 0.71779 0.0
S1678 S 0.3351 0.34744 0.79477 0.0
N1679 N 0.31229 0.33207 0.77523 0.0
N1680 N 0.34168 0.37609 0.78526 0.0
C1681 C 0.32503 0.37411 0.76518 0.0
C1682 C 0.30896 0.35036 0.75988 0.0
C1683 C 0.3166 0.67817 0.81297 0.0
C1684 C 0.29041 0.67278 0.80642 0.0
C1685 C 0.33347 0.6583 0.81031 0.0
C1686 C 0.32477 0.63225 0.80117 0.0
H1687 H 0.32425 0.698 0.81957 0.0
H1688 H 0.35352 0.6634 0.8154 0.0
S1689 S 0.25769 0.60778 0.78235 0.0
N1690 N 0.25633 0.63931 0.79156 0.0
N1691 N 0.28805 0.60224 0.78573 0.0
C1692 C 0.2985 0.62658 0.79501 0.0
C1693 C 0.28135 0.64675 0.79782 0.0
C1694 C 0.89962 0.52942 0.51777 0.0
C1695 C 0.92297 0.52147 0.50727 0.0
C1696 C 0.8797 0.5111 0.5228 0.0
C1697 C 0.88238 0.48417 0.51752 0.0
H1698 H 0.89643 0.54992 0.5214 0.0
H1699 H 0.86179 0.51807 0.53019 0.0
S1700 S 0.94076 0.45338 0.49293 0.0
N1701 N 0.94838 0.48493 0.49382 0.0
N1702 N 0.91097 0.45057 0.50326 0.0
C1703 C 0.90594 0.47601 0.50789 0.0
C1704 C 0.92621 0.49463 0.50279 0.0
C1705 C 0.75149 0.86583 0.79458 0.0
C1706 C 0.77524 0.87036 0.8075 0.0
C1707 C 0.73892 0.88652 0.78748 0.0
C1708 C 0.7497 0.91246 0.79312 0.0
H1709 H 0.74194 0.84633 0.79108 0.0
H1710 H 0.7202 0.88231 0.77833 0.0
S1711 S 0.81223 0.93413 0.82586 0.0
N1712 N 0.80965 0.90214 0.82486 0.0
N1713 N 0.78614 0.9412 0.81156 0.0
C1714 C 0.77409 0.91699 0.80499 0.0
C1715 C 0.78682 0.89588 0.81225 0.0
C1716 C 0.6303 0.51052 0.99276 0.0
C1717 C 0.60632 0.52073 0.99147 0.0
C1718 C 0.65304 0.52701 0.99717 0.0
C1719 C 0.65262 0.55433 1.00067 0.0
H1720 H 0.63162 0.48964 0.98927 0.0
H1721 H 0.67113 0.5183 0.99746 0.0
S1722 S 0.59451 0.59076 1.00062 0.0
N1723 N 0.58335 0.55981 0.9955 0.0
N1724 N 0.62598 0.59076 1.00336 0.0
C1725 C 0.62864 0.56474 1.00036 0.0
C1726 C 0.60555 0.54797 0.99584 0.0
C1727 C 0.28412 0.66796 0.22878 0.0
C1728 C 0.28817 0.68995 0.24766 0.0
C1729 C 0.26635 0.6471 0.23246 0.0
C1730 C 0.25203 0.64755 0.25514 0.0
H1731 H 0.29569 0.66628 0.21167 0.0
H1732 H 0.26468 0.63002 0.21795 0.0
S1733 S 0.25288 0.7025 0.30856 0.0
N1734 N 0.27469 0.71217 0.28853 0.0
N1735 N 0.24101 0.67324 0.29531 0.0
C1736 C 0.25485 0.67015 0.27342 0.0
C1737 C 0.27297 0.69128 0.26971 0.0
C1738 C 0.91639 0.54298 0.0624 0.0
C1739 C 0.93712 0.54358 0.04553 0.0
C1740 C 0.89344 0.55349 0.05715 0.0
C1741 C 0.89052 0.56497 0.03487 0.0
H1742 H 0.9183 0.53536 0.08028 0.0
H1743 H 0.87813 0.55331 0.07099 0.0
S1744 S 0.93936 0.57056 0.98441 0.0
N1745 N 0.9534 0.55565 1.00552 0.0
N1746 N 0.91035 0.57557 0.99553 0.0
C1747 C 0.91092 0.56471 0.01739 0.0
C1748 C 0.93426 0.55401 0.0228 0.0
C1749 C 0.11402 0.98463 0.04063 0.0
C1750 C 0.11394 1.00468 0.06164 0.0
C1751 C 0.13375 0.96784 0.0374 0.0
C1752 C 0.15426 0.97031 0.05508 0.0
H1753 H 0.09874 0.98194 0.0264 0.0
H1754 H 0.13319 0.95315 0.02057 0.0
S1755 S 0.16252 0.01874 0.11412 0.0
N1756 N 0.13588 0.02569 0.10075 0.0
N1757 N 0.17259 0.99358 0.09512 0.0
C1758 C 0.15413 0.98986 0.07654 0.0
C1759 C 0.13403 1.00708 0.07977 0.0
loop_
_geom_bond_atom_site_label_1
_geom_bond_atom_site_label_2
_geom_bond_distance
_geom_bond_site_symmetry_2
_ccdc_geom_bond_type
H0 C3 0.929 . S
H1 C6 0.929 . S
H2 C8 0.930 . S
C3 H0 0.929 . S
C3 C4 1.398 . S
C3 C5 1.396 . S
C4 C3 1.398 . S
C4 C8 1.407 . S
C5 C3 1.396 . S
C5 C6 1.394 . S
C6 H1 0.929 . S
C6 C5 1.394 . S
C6 C7 1.382 . S
C7 C6 1.382 . S
C7 C8 1.392 . S
C7 N9 1.420 . S
C8 H2 0.930 . S
C8 C4 1.407 . S
C8 C7 1.392 . S
N9 C7 1.420 . S
N9 C10 1.244 . S
C10 N9 1.244 . S
H11 C14 0.929 . S
H12 C17 0.929 . S
H13 C19 0.930 . S
C14 H11 0.929 . S
C14 C15 1.398 . S
C14 C16 1.396 . S
C15 C14 1.398 . S
C15 C19 1.407 . S
C16 C14 1.396 . S
C16 C17 1.394 . S
C17 H12 0.929 . S
C17 C16 1.394 . S
C17 C18 1.382 . S
C18 C17 1.382 . S
C18 C19 1.392 . S
C18 N20 1.420 . S
C19 H13 0.930 . S
C19 C15 1.407 . S
C19 C18 1.392 . S
N20 C18 1.420 . S
N20 C21 1.244 . S
C21 N20 1.244 . S
H22 C25 0.929 . S
H23 C28 0.929 . S
H24 C30 0.930 1_556 S
C25 H22 0.929 . S
C25 C26 1.398 . S
C25 C27 1.396 . S
C26 C25 1.398 . S
C26 C30 1.407 1_455 S
C27 C25 1.396 . S
C27 C28 1.394 1_455 S
C28 H23 0.929 . S
C28 C27 1.394 1_655 S
C28 C29 1.382 . S
C29 C28 1.382 . S
C29 C30 1.392 . S
C29 N31 1.420 . S
C30 H24 0.930 1_554 S
C30 C26 1.407 1_655 S
C30 C29 1.392 . S
N31 C29 1.420 . S
N31 C32 1.244 . S
C32 N31 1.244 . S
H33 C36 0.929 . S
H34 C39 0.929 . S
H35 C41 0.930 . S
C36 H33 0.929 . S
C36 C37 1.398 . S
C36 C38 1.396 . S
C37 C36 1.398 . S
C37 C41 1.407 . S
C38 C36 1.396 . S
C38 C39 1.394 . S
C39 H34 0.929 . S
C39 C38 1.394 . S
C39 C40 1.382 . S
C40 C39 1.382 . S
C40 C41 1.392 . S
C40 N42 1.420 . S
C41 H35 0.930 . S
C41 C37 1.407 . S
C41 C40 1.392 . S
N42 C40 1.420 . S
N42 C43 1.244 . S
C43 N42 1.244 . S
H44 C47 0.929 1_545 S
H45 C50 0.929 . S
H46 C52 0.930 . S
C47 H44 0.929 1_565 S
C47 C48 1.398 . S
C47 C49 1.396 . S
C48 C47 1.398 . S
C48 C52 1.407 . S
C49 C47 1.396 . S
C49 C50 1.394 . S
C50 H45 0.929 . S
C50 C49 1.394 . S
C50 C51 1.382 . S
C51 C50 1.382 . S
C51 C52 1.392 . S
C51 N53 1.420 . S
C52 H46 0.930 . S
C52 C48 1.407 . S
C52 C51 1.392 . S
N53 C51 1.420 . S
N53 C54 1.244 . S
C54 N53 1.244 . S
H55 C58 0.929 . S
H56 C61 0.929 . S
H57 C63 0.930 . S
C58 H55 0.929 . S
C58 C59 1.398 . S
C58 C60 1.396 . S
C59 C58 1.398 . S
C59 C63 1.407 . S
C60 C58 1.396 . S
C60 C61 1.394 . S
C61 H56 0.929 . S
C61 C60 1.394 . S
C61 C62 1.382 . S
C62 C61 1.382 . S
C62 C63 1.392 . S
C62 N64 1.420 . S
C63 H57 0.930 . S
C63 C59 1.407 . S
C63 C62 1.392 . S
N64 C62 1.420 . S
N64 C65 1.244 . S
C65 N64 1.244 . S
H66 C69 0.929 . S
H67 C72 0.929 . S
H68 C74 0.930 . S
C69 H66 0.929 . S
C69 C70 1.398 . S
C69 C71 1.396 . S
C70 C69 1.398 . S
C70 C74 1.407 . S
C71 C69 1.396 . S
C71 C72 1.394 1_655 S
C72 H67 0.929 . S
C72 C71 1.394 1_455 S
C72 C73 1.382 1_455 S
C73 C72 1.382 1_655 S
C73 C74 1.392 . S
C73 N75 1.420 1_655 S
C74 H68 0.930 . S
C74 C70 1.407 . S
C74 C73 1.392 . S
N75 C73 1.420 1_455 S
N75 C76 1.244 . S
C76 N75 1.244 . S
H77 C80 0.929 . S
H78 C83 0.929 . S
H79 C85 0.930 . S
C80 H77 0.929 . S
C80 C81 1.398 . S
C80 C82 1.396 . S
C81 C80 1.398 . S
C81 C85 1.407 . S
C82 C80 1.396 . S
C82 C83 1.394 . S
C83 H78 0.929 . S
C83 C82 1.394 . S
C83 C84 1.382 . S
C84 C83 1.382 . S
C84 C85 1.392 . S
C84 N86 1.420 . S
C85 H79 0.930 . S
C85 C81 1.407 . S
C85 C84 1.392 . S
N86 C84 1.420 . S
N86 C87 1.244 . S
C87 N86 1.244 . S
H88 C91 0.929 . S
H89 C94 0.929 . S
H90 C96 0.930 . S
C91 H88 0.929 . S
C91 C92 1.398 . S
C91 C93 1.396 . S
C92 C91 1.398 . S
C92 C96 1.407 . S
C93 C91 1.396 . S
C93 C94 1.394 . S
C94 H89 0.929 . S
C94 C93 1.394 . S
C94 C95 1.382 . S
C95 C94 1.382 . S
C95 C96 1.392 . S
C95 N97 1.420 . S
C96 H90 0.930 . S
C96 C92 1.407 . S
C96 C95 1.392 . S
N97 C95 1.420 . S
N97 C98 1.244 . S
C98 N97 1.244 . S
H99 C102 0.929 . S
H100 C105 0.956 . S
H101 C107 0.930 . S
C102 H99 0.929 . S
C102 C103 1.398 . S
C102 C104 1.396 . S
C103 C102 1.398 . S
C103 C107 1.407 . S
C104 C102 1.396 . S
C104 C105 1.370 1_565 S
C105 H100 0.956 . S
C105 C104 1.370 1_545 S
C105 C106 1.379 1_545 S
C106 C105 1.379 1_565 S
C106 C107 1.392 . S
C106 N108 1.420 1_565 S
C107 H101 0.930 . S
C107 C103 1.407 . S
C107 C106 1.392 . S
N108 C106 1.420 1_545 S
N108 C109 1.244 . S
C109 N108 1.244 . S
H110 C113 0.929 . S
H111 C116 0.929 . S
H112 C118 0.930 . S
C113 H110 0.929 . S
C113 C114 1.398 . S
C113 C115 1.396 . S
C114 C113 1.398 . S
C114 C118 1.407 . S
C115 C113 1.396 . S
C115 C116 1.394 . S
C116 H111 0.929 . S
C116 C115 1.394 . S
C116 C117 1.382 . S
C117 C116 1.382 . S
C117 C118 1.392 . S
C117 N119 1.420 . S
C118 H112 0.930 . S
C118 C114 1.407 . S
C118 C117 1.392 . S
N119 C117 1.420 . S
N119 C120 1.244 . S
C120 N119 1.244 . S
H121 C124 0.929 . S
H122 C127 0.929 . S
H123 C129 0.930 . S
C124 H121 0.929 . S
C124 C125 1.398 . S
C124 C126 1.396 . S
C125 C124 1.398 . S
C125 C129 1.407 . S
C126 C124 1.396 . S
C126 C127 1.394 . S
C127 H122 0.929 . S
C127 C126 1.394 . S
C127 C128 1.382 . S
C128 C127 1.382 . S
C128 C129 1.392 . S
C128 N130 1.420 . S
C129 H123 0.930 . S
C129 C125 1.407 . S
C129 C128 1.392 . S
N130 C128 1.420 . S
N130 C131 1.244 . S
C131 N130 1.244 . S
H132 C135 0.929 . S
H133 C138 0.929 . S
H134 C140 0.930 . S
C135 H132 0.929 . S
C135 C136 1.398 . S
C135 C137 1.396 . S
C136 C135 1.398 . S
C136 C140 1.407 . S
C137 C135 1.396 . S
C137 C138 1.394 . S
C138 H133 0.929 . S
C138 C137 1.394 . S
C138 C139 1.382 . S
C139 C138 1.382 . S
C139 C140 1.392 . S
C139 N141 1.420 . S
C140 H134 0.930 . S
C140 C136 1.407 . S
C140 C139 1.392 . S
N141 C139 1.420 . S
N141 C142 1.244 . S
C142 N141 1.244 . S
H143 C146 0.929 . S
H144 C149 0.929 . S
H145 C151 0.930 . S
C146 H143 0.929 . S
C146 C147 1.398 . S
C146 C148 1.396 . S
C147 C146 1.398 . S
C147 C151 1.407 . S
C148 C146 1.396 . S
C148 C149 1.394 1_556 S
C149 H144 0.929 . S
C149 C148 1.394 1_554 S
C149 C150 1.382 . S
C150 C149 1.382 . S
C150 C151 1.392 1_554 S
C150 N152 1.420 . S
C151 H145 0.930 . S
C151 C147 1.407 . S
C151 C150 1.392 1_556 S
N152 C150 1.420 . S
N152 C153 1.244 . S
C153 N152 1.244 . S
H154 C157 0.929 . S
H155 C160 0.929 . S
H156 C162 0.930 . S
C157 H154 0.929 . S
C157 C158 1.398 . S
C157 C159 1.396 . S
C158 C157 1.398 . S
C158 C162 1.407 . S
C159 C157 1.396 . S
C159 C160 1.394 . S
C160 H155 0.929 . S
C160 C159 1.394 . S
C160 C161 1.382 . S
C161 C160 1.382 . S
C161 C162 1.392 . S
C161 N163 1.420 . S
C162 H156 0.930 . S
C162 C158 1.407 . S
C162 C161 1.392 . S
N163 C161 1.420 . S
N163 C164 1.244 . S
C164 N163 1.244 . S
H165 C168 0.962 . S
H166 C171 0.929 . S
H167 C173 0.930 1_565 S
C168 H165 0.962 . S
C168 C169 1.379 1_554 S
C168 C170 1.384 1_554 S
C169 C168 1.379 1_556 S
C169 C173 1.407 . S
C170 C168 1.384 1_556 S
C170 C171 1.394 . S
C171 H166 0.929 . S
C171 C170 1.394 . S
C171 C172 1.382 . S
C172 C171 1.382 . S
C172 C173 1.392 . S
C172 N174 1.420 . S
C173 H167 0.930 1_545 S
C173 C169 1.407 . S
C173 C172 1.392 . S
N174 C172 1.420 . S
N174 C175 1.244 . S
C175 N174 1.244 . S
Li176 N193 1.990 . S
Li176 O236 1.956 . S
Li176 O237 1.970 . S
Li176 O238 1.961 . S
Li177 N201 1.990 . S
Li177 O236 1.970 . S
Li177 O237 1.956 . S
Li177 O239 1.961 . S
Li178 N223 1.990 1_554 S
Li178 O236 1.961 . S
Li178 O238 1.956 . S
Li178 O239 1.970 . S
Li179 N229 1.990 . S
Li179 O237 1.961 . S
Li179 O238 1.970 . S
Li179 O239 1.956 . S
C180 C182 1.348 . S
C180 C183 1.356 . S
C180 O236 1.325 . S
N181 C184 1.314 . S
N181 C185 1.267 1_554 S
C182 C180 1.348 . S
C182 C184 1.353 . S
C182 H240 0.929 . S
C183 C180 1.356 . S
C183 C185 1.357 1_554 S
C183 H241 0.930 1_554 S
C184 N181 1.314 . S
C184 C182 1.353 . S
C184 H242 0.930 . S
C185 N181 1.267 1_556 S
C185 C183 1.357 1_556 S
C185 H243 0.945 . S
C186 C189 1.348 . S
C186 C190 1.356 . S
C186 O237 1.325 . S
C187 N188 1.279 . S
C187 C190 1.358 . S
C187 H244 0.930 . S
N188 C187 1.279 . S
N188 C191 1.314 . S
C189 C186 1.348 . S
C189 C191 1.353 . S
C189 H245 0.929 . S
C190 C186 1.356 . S
C190 C187 1.358 . S
C190 H246 0.930 . S
C191 N188 1.314 . S
C191 C189 1.353 . S
C191 H247 0.930 . S
C192 N193 1.314 . S
C192 C197 1.353 . S
C192 H198 0.930 . S
N193 Li176 1.990 . S
N193 C192 1.314 . S
N193 C195 1.279 . S
C194 C195 1.358 . S
C194 C196 1.356 . S
C194 H248 0.930 . S
C195 N193 1.279 . S
C195 C194 1.358 . S
C195 H199 0.930 . S
C196 C194 1.356 . S
C196 C197 1.348 . S
C197 C192 1.353 . S
C197 C196 1.348 . S
C197 H249 0.929 . S
H198 C192 0.930 . S
H199 C195 0.930 . S
C200 N201 1.314 . S
C200 C202 1.353 . S
C200 H206 0.930 . S
N201 Li177 1.990 . S
N201 C200 1.314 . S
N201 C204 1.279 . S
C202 C200 1.353 . S
C202 C205 1.348 . S
C202 H250 0.929 . S
C203 C204 1.358 . S
C203 C205 1.356 . S
C203 H251 0.930 . S
C204 N201 1.279 . S
C204 C203 1.358 . S
C204 H207 0.930 . S
C205 C202 1.348 . S
C205 C203 1.356 . S
H206 C200 0.930 . S
H207 C204 0.930 . S
C208 C210 1.348 . S
C208 C211 1.356 . S
C208 O238 1.325 1_556 S
N209 C212 1.314 . S
N209 C213 1.279 . S
C210 C208 1.348 . S
C210 C212 1.353 . S
C210 H252 0.929 . S
C211 C208 1.356 . S
C211 C213 1.358 . S
C211 H253 0.930 . S
C212 N209 1.314 . S
C212 C210 1.353 . S
C212 H254 0.930 . S
C213 N209 1.279 . S
C213 C211 1.358 . S
C213 H255 0.930 . S
C214 C215 1.348 . S
C214 C216 1.356 . S
C214 O239 1.325 . S
C215 C214 1.348 . S
C215 C217 1.353 . S
C215 H256 0.929 . S
C216 C214 1.356 . S
C216 C218 1.358 . S
C216 H257 0.930 . S
C217 C215 1.353 . S
C217 N219 1.314 . S
C217 H258 0.930 . S
C218 C216 1.358 . S
C218 N219 1.279 . S
C218 H259 0.930 . S
N219 C217 1.314 . S
N219 C218 1.279 . S
C220 C222 1.353 . S
C220 N223 1.314 . S
C220 H226 0.930 . S
C221 N223 1.279 . S
C221 C224 1.358 . S
C221 H227 0.930 . S
C222 C220 1.353 . S
C222 C225 1.348 . S
C222 H260 0.929 . S
N223 Li178 1.990 1_556 S
N223 C220 1.314 . S
N223 C221 1.279 . S
C224 C221 1.358 . S
C224 C225 1.356 . S
C224 H261 0.930 . S
C225 C222 1.348 . S
C225 C224 1.356 . S
H226 C220 0.930 . S
H227 C221 0.930 . S
C228 N229 1.314 . S
C228 C230 1.353 . S
C228 H234 0.930 . S
N229 Li179 1.990 . S
N229 C228 1.314 . S
N229 C232 1.279 . S
C230 C228 1.353 . S
C230 C233 1.348 . S
C230 H262 0.929 . S
C231 C232 1.358 . S
C231 C233 1.356 . S
C231 H263 0.930 . S
C232 N229 1.279 . S
C232 C231 1.358 . S
C232 H235 0.930 . S
C233 C230 1.348 . S
C233 C231 1.356 . S
H234 C228 0.930 . S
H235 C232 0.930 . S
O236 Li176 1.956 . S
O236 Li177 1.970 . S
O236 Li178 1.961 . S
O236 C180 1.325 . S
O237 Li176 1.970 . S
O237 Li177 1.956 . S
O237 Li179 1.961 . S
O237 C186 1.325 . S
O238 Li176 1.961 . S
O238 Li178 1.956 . S
O238 Li179 1.970 . S
O238 C208 1.325 1_554 S
O239 Li177 1.961 . S
O239 Li178 1.970 . S
O239 Li179 1.956 . S
O239 C214 1.325 . S
H240 C182 0.929 . S
H241 C183 0.930 1_556 S
H242 C184 0.930 . S
H243 C185 0.945 . S
H244 C187 0.930 . S
H245 C189 0.929 . S
H246 C190 0.930 . S
H247 C191 0.930 . S
H248 C194 0.930 . S
H249 C197 0.929 . S
H250 C202 0.929 . S
H251 C203 0.930 . S
H252 C210 0.929 . S
H253 C211 0.930 . S
H254 C212 0.930 . S
H255 C213 0.930 . S
H256 C215 0.929 . S
H257 C216 0.930 . S
H258 C217 0.930 . S
H259 C218 0.930 . S
H260 C222 0.929 . S
H261 C224 0.930 . S
H262 C230 0.929 . S
H263 C231 0.930 . S
Li264 N281 1.990 . S
Li264 O324 1.956 . S
Li264 O325 1.970 . S
Li264 O326 1.961 . S
Li265 N289 1.990 . S
Li265 O324 1.970 . S
Li265 O325 1.956 . S
Li265 O327 1.961 . S
Li266 N311 1.990 . S
Li266 O324 1.961 . S
Li266 O326 1.956 . S
Li266 O327 1.970 . S
Li267 N317 1.990 . S
Li267 O325 1.961 . S
Li267 O326 1.970 . S
Li267 O327 1.956 . S
C268 C270 1.348 . S
C268 C271 1.356 . S
C268 O324 1.325 . S
N269 C272 1.314 . S
N269 C273 1.279 . S
C270 C268 1.348 . S
C270 C272 1.353 . S
C270 H328 0.929 . S
C271 C268 1.356 . S
C271 C273 1.358 . S
C271 H329 0.930 . S
C272 N269 1.314 . S
C272 C270 1.353 . S
C272 H330 0.930 . S
C273 N269 1.279 . S
C273 C271 1.358 . S
C273 H331 0.930 . S
C274 C277 1.348 . S
C274 C278 1.356 . S
C274 O325 1.325 . S
C275 N276 1.279 . S
C275 C278 1.358 . S
C275 H332 0.930 . S
N276 C275 1.279 . S
N276 C279 1.314 . S
C277 C274 1.348 . S
C277 C279 1.353 . S
C277 H333 0.929 . S
C278 C274 1.356 . S
C278 C275 1.358 . S
C278 H334 0.930 . S
C279 N276 1.314 . S
C279 C277 1.353 . S
C279 H335 0.930 . S
C280 N281 1.314 . S
C280 C285 1.353 . S
C280 H286 0.930 . S
N281 Li264 1.990 . S
N281 C280 1.314 . S
N281 C283 1.279 . S
C282 C283 1.358 . S
C282 C284 1.356 . S
C282 H336 0.930 . S
C283 N281 1.279 . S
C283 C282 1.358 . S
C283 H287 0.930 . S
C284 C282 1.356 . S
C284 C285 1.348 . S
C285 C280 1.353 . S
C285 C284 1.348 . S
C285 H337 0.929 . S
H286 C280 0.930 . S
H287 C283 0.930 . S
C288 N289 1.314 . S
C288 C290 1.353 . S
C288 H294 0.930 . S
N289 Li265 1.990 . S
N289 C288 1.314 . S
N289 C292 1.279 . S
C290 C288 1.353 . S
C290 C293 1.348 . S
C290 H338 0.929 . S
C291 C292 1.358 . S
C291 C293 1.356 . S
C291 H339 0.930 . S
C292 N289 1.279 . S
C292 C291 1.358 . S
C292 H295 0.930 . S
C293 C290 1.348 . S
C293 C291 1.356 . S
H294 C288 0.930 . S
H295 C292 0.930 . S
C296 C298 1.348 . S
C296 C299 1.356 . S
C296 O326 1.325 . S
N297 C300 1.314 . S
N297 C301 1.279 . S
C298 C296 1.348 . S
C298 C300 1.353 . S
C298 H340 0.929 . S
C299 C296 1.356 . S
C299 C301 1.358 . S
C299 H341 0.930 . S
C300 N297 1.314 . S
C300 C298 1.353 . S
C300 H342 0.930 . S
C301 N297 1.279 . S
C301 C299 1.358 . S
C301 H343 0.930 . S
C302 C303 1.348 . S
C302 C304 1.356 . S
C302 O327 1.325 . S
C303 C302 1.348 . S
C303 C305 1.353 . S
C303 H344 0.929 . S
C304 C302 1.356 . S
C304 C306 1.358 . S
C304 H345 0.930 . S
C305 C303 1.353 . S
C305 N307 1.314 . S
C305 H346 0.930 . S
C306 C304 1.358 . S
C306 N307 1.279 . S
C306 H347 0.930 . S
N307 C305 1.314 . S
N307 C306 1.279 . S
C308 C310 1.353 . S
C308 N311 1.314 . S
C308 H314 0.930 . S
C309 N311 1.279 . S
C309 C312 1.358 . S
C309 H315 0.930 . S
C310 C308 1.353 . S
C310 C313 1.348 . S
C310 H348 0.929 . S
N311 Li266 1.990 . S
N311 C308 1.314 . S
N311 C309 1.279 . S
C312 C309 1.358 . S
C312 C313 1.356 . S
C312 H349 0.930 . S
C313 C310 1.348 . S
C313 C312 1.356 . S
H314 C308 0.930 . S
H315 C309 0.930 . S
C316 N317 1.314 . S
C316 C318 1.353 . S
C316 H322 0.930 . S
N317 Li267 1.990 . S
N317 C316 1.314 . S
N317 C320 1.279 . S
C318 C316 1.353 . S
C318 C321 1.348 . S
C318 H350 0.929 . S
C319 C320 1.358 . S
C319 C321 1.356 . S
C319 H351 0.930 . S
C320 N317 1.279 . S
C320 C319 1.358 . S
C320 H323 0.930 . S
C321 C318 1.348 . S
C321 C319 1.356 . S
H322 C316 0.930 . S
H323 C320 0.930 . S
O324 Li264 1.956 . S
O324 Li265 1.970 . S
O324 Li266 1.961 . S
O324 C268 1.325 . S
O325 Li264 1.970 . S
O325 Li265 1.956 . S
O325 Li267 1.961 . S
O325 C274 1.325 . S
O326 Li264 1.961 . S
O326 Li266 1.956 . S
O326 Li267 1.970 . S
O326 C296 1.325 . S
O327 Li265 1.961 . S
O327 Li266 1.970 . S
O327 Li267 1.956 . S
O327 C302 1.325 . S
H328 C270 0.929 . S
H329 C271 0.930 . S
H330 C272 0.930 . S
H331 C273 0.930 . S
H332 C275 0.930 . S
H333 C277 0.929 . S
H334 C278 0.930 . S
H335 C279 0.930 . S
H336 C282 0.930 . S
H337 C285 0.929 . S
H338 C290 0.929 . S
H339 C291 0.930 . S
H340 C298 0.929 . S
H341 C299 0.930 . S
H342 C300 0.930 . S
H343 C301 0.930 . S
H344 C303 0.929 . S
H345 C304 0.930 . S
H346 C305 0.930 . S
H347 C306 0.930 . S
H348 C310 0.929 . S
H349 C312 0.930 . S
H350 C318 0.929 . S
H351 C319 0.930 . S
Li352 N369 1.990 . S
Li352 O412 1.960 1_556 S
Li352 O413 1.970 1_556 S
Li352 O414 1.961 . S
Li353 N377 1.990 . S
Li353 O412 2.001 . S
Li353 O413 1.956 . S
Li353 O415 1.961 . S
Li354 N399 1.990 . S
Li354 O412 1.935 1_556 S
Li354 O414 1.956 . S
Li354 O415 1.970 1_556 S
Li355 N405 1.990 . S
Li355 O413 1.961 . S
Li355 O414 1.970 1_554 S
Li355 O415 1.956 . S
C356 C358 1.319 1_556 S
C356 C359 1.390 . S
C356 O412 1.316 1_556 S
N357 C360 1.314 1_556 S
N357 C361 1.279 . S
C358 C356 1.319 1_554 S
C358 C360 1.353 . S
C358 H416 0.929 . S
C359 C356 1.390 . S
C359 C361 1.358 . S
C359 H417 0.930 . S
C360 N357 1.314 1_554 S
C360 C358 1.353 . S
C360 H418 0.930 . S
C361 N357 1.279 . S
C361 C359 1.358 . S
C361 H419 0.930 . S
C362 C365 1.348 . S
C362 C366 1.356 . S
C362 O413 1.325 . S
C363 N364 1.279 . S
C363 C366 1.358 . S
C363 H420 0.930 . S
N364 C363 1.279 . S
N364 C367 1.314 . S
C365 C362 1.348 . S
C365 C367 1.353 . S
C365 H421 0.929 . S
C366 C362 1.356 . S
C366 C363 1.358 . S
C366 H422 0.930 . S
C367 N364 1.314 . S
C367 C365 1.353 . S
C367 H423 0.930 . S
C368 N369 1.314 . S
C368 C373 1.353 . S
C368 H374 0.930 . S
N369 Li352 1.990 . S
N369 C368 1.314 . S
N369 C371 1.279 . S
C370 C371 1.358 . S
C370 C372 1.356 . S
C370 H424 0.930 . S
C371 N369 1.279 . S
C371 C370 1.358 . S
C371 H375 0.930 1_556 S
C372 C370 1.356 . S
C372 C373 1.348 . S
C373 C368 1.353 . S
C373 C372 1.348 . S
C373 H425 0.929 . S
H374 C368 0.930 . S
H375 C371 0.930 1_554 S
C376 N377 1.314 . S
C376 C378 1.353 . S
C376 H382 0.930 . S
N377 Li353 1.990 . S
N377 C376 1.314 . S
N377 C380 1.279 . S
C378 C376 1.353 . S
C378 C381 1.348 . S
C378 H426 0.929 . S
C379 C380 1.358 . S
C379 C381 1.356 . S
C379 H427 0.930 . S
C380 N377 1.279 . S
C380 C379 1.358 . S
C380 H383 0.930 . S
C381 C378 1.348 . S
C381 C379 1.356 . S
H382 C376 0.930 . S
H383 C380 0.930 . S
C384 C386 1.348 . S
C384 C387 1.356 . S
C384 O414 1.325 . S
N385 C388 1.314 . S
N385 C389 1.279 . S
C386 C384 1.348 . S
C386 C388 1.353 . S
C386 H428 0.929 . S
C387 C384 1.356 . S
C387 C389 1.358 . S
C387 H429 0.930 . S
C388 N385 1.314 . S
C388 C386 1.353 . S
C388 H430 0.930 . S
C389 N385 1.279 . S
C389 C387 1.358 . S
C389 H431 0.930 . S
C390 C391 1.348 1_554 S
C390 C392 1.356 . S
C390 O415 1.325 . S
C391 C390 1.348 1_556 S
C391 C393 1.353 . S
C391 H432 0.929 . S
C392 C390 1.356 . S
C392 C394 1.358 . S
C392 H433 0.930 . S
C393 C391 1.353 . S
C393 N395 1.314 1_556 S
C393 H434 0.930 . S
C394 C392 1.358 . S
C394 N395 1.279 . S
C394 H435 0.930 . S
N395 C393 1.314 1_554 S
N395 C394 1.279 . S
C396 C398 1.353 . S
C396 N399 1.314 . S
C396 H402 0.930 . S
C397 N399 1.279 . S
C397 C400 1.358 . S
C397 H403 0.930 . S
C398 C396 1.353 . S
C398 C401 1.348 . S
C398 H436 0.929 . S
N399 Li354 1.990 . S
N399 C396 1.314 . S
N399 C397 1.279 . S
C400 C397 1.358 . S
C400 C401 1.356 . S
C400 H437 0.930 . S
C401 C398 1.348 . S
C401 C400 1.356 . S
H402 C396 0.930 . S
H403 C397 0.930 . S
C404 N405 1.314 . S
C404 C406 1.353 . S
C404 H410 0.930 . S
N405 Li355 1.990 . S
N405 C404 1.314 . S
N405 C408 1.279 . S
C406 C404 1.353 . S
C406 C409 1.348 . S
C406 H438 0.929 . S
C407 C408 1.358 . S
C407 C409 1.356 . S
C407 H439 0.930 . S
C408 N405 1.279 . S
C408 C407 1.358 . S
C408 H411 0.930 . S
C409 C406 1.348 . S
C409 C407 1.356 . S
H410 C404 0.930 . S
H411 C408 0.930 . S
O412 Li352 1.960 1_554 S
O412 Li353 2.001 . S
O412 Li354 1.935 1_554 S
O412 C356 1.316 1_554 S
O413 Li352 1.970 1_554 S
O413 Li353 1.956 . S
O413 Li355 1.961 . S
O413 C362 1.325 . S
O414 Li352 1.961 . S
O414 Li354 1.956 . S
O414 Li355 1.970 1_556 S
O414 C384 1.325 . S
O415 Li353 1.961 . S
O415 Li354 1.970 1_554 S
O415 Li355 1.956 . S
O415 C390 1.325 . S
H416 C358 0.929 . S
H417 C359 0.930 . S
H418 C360 0.930 . S
H419 C361 0.930 . S
H420 C363 0.930 . S
H421 C365 0.929 . S
H422 C366 0.930 . S
H423 C367 0.930 . S
H424 C370 0.930 . S
H425 C373 0.929 . S
H426 C378 0.929 . S
H427 C379 0.930 . S
H428 C386 0.929 . S
H429 C387 0.930 . S
H430 C388 0.930 . S
H431 C389 0.930 . S
H432 C391 0.929 . S
H433 C392 0.930 . S
H434 C393 0.930 . S
H435 C394 0.930 . S
H436 C398 0.929 . S
H437 C400 0.930 . S
H438 C406 0.929 . S
H439 C407 0.930 . S
Li440 N457 1.990 . S
Li440 O500 1.956 . S
Li440 O501 1.970 . S
Li440 O502 1.961 . S
Li441 N465 1.990 . S
Li441 O500 1.970 . S
Li441 O501 1.956 . S
Li441 O503 1.961 1_545 S
Li442 N487 1.990 . S
Li442 O500 1.961 . S
Li442 O502 1.956 . S
Li442 O503 1.970 1_545 S
Li443 N493 1.990 . S
Li443 O501 1.961 1_565 S
Li443 O502 1.970 1_565 S
Li443 O503 1.956 . S
C444 C446 1.348 . S
C444 C447 1.356 . S
C444 O500 1.325 . S
N445 C448 1.314 . S
N445 C449 1.279 . S
C446 C444 1.348 . S
C446 C448 1.353 . S
C446 H504 0.929 . S
C447 C444 1.356 . S
C447 C449 1.358 . S
C447 H505 0.930 . S
C448 N445 1.314 . S
C448 C446 1.353 . S
C448 H506 0.930 . S
C449 N445 1.279 . S
C449 C447 1.358 . S
C449 H507 0.930 . S
C450 C453 1.348 . S
C450 C454 1.356 1_545 S
C450 O501 1.325 . S
C451 N452 1.279 1_565 S
C451 C454 1.358 . S
C451 H508 0.930 . S
N452 C451 1.279 1_545 S
N452 C455 1.314 . S
C453 C450 1.348 . S
C453 C455 1.353 . S
C453 H509 0.929 . S
C454 C450 1.356 1_565 S
C454 C451 1.358 . S
C454 H510 0.930 . S
C455 N452 1.314 . S
C455 C453 1.353 . S
C455 H511 0.930 . S
C456 N457 1.314 . S
C456 C461 1.353 . S
C456 H462 0.930 . S
N457 Li440 1.990 . S
N457 C456 1.314 . S
N457 C459 1.279 . S
C458 C459 1.358 . S
C458 C460 1.356 . S
C458 H512 0.930 . S
C459 N457 1.279 . S
C459 C458 1.358 . S
C459 H463 0.930 . S
C460 C458 1.356 . S
C460 C461 1.348 . S
C461 C456 1.353 . S
C461 C460 1.348 . S
C461 H513 0.929 . S
H462 C456 0.930 . S
H463 C459 0.930 . S
C464 N465 1.314 . S
C464 C466 1.353 . S
C464 H470 0.930 . S
N465 Li441 1.990 . S
N465 C464 1.314 . S
N465 C468 1.279 . S
C466 C464 1.353 . S
C466 C469 1.348 . S
C466 H514 0.929 1_655 S
C467 C468 1.358 . S
C467 C469 1.356 . S
C467 H515 0.930 . S
C468 N465 1.279 . S
C468 C467 1.358 . S
C468 H471 0.930 . S
C469 C466 1.348 . S
C469 C467 1.356 . S
H470 C464 0.930 . S
H471 C468 0.930 . S
C472 C474 1.348 . S
C472 C475 1.356 . S
C472 O502 1.325 . S
N473 C476 1.314 . S
N473 C477 1.279 . S
C474 C472 1.348 . S
C474 C476 1.353 . S
C474 H516 0.929 1_545 S
C475 C472 1.356 . S
C475 C477 1.358 . S
C475 H517 0.930 . S
C476 N473 1.314 . S
C476 C474 1.353 . S
C476 H518 0.930 1_545 S
C477 N473 1.279 . S
C477 C475 1.358 . S
C477 H519 0.930 . S
C478 C479 1.348 . S
C478 C480 1.356 . S
C478 O503 1.325 . S
C479 C478 1.348 . S
C479 C481 1.353 . S
C479 H520 0.929 . S
C480 C478 1.356 . S
C480 C482 1.358 . S
C480 H521 0.930 . S
C481 C479 1.353 . S
C481 N483 1.314 . S
C481 H522 0.930 . S
C482 C480 1.358 . S
C482 N483 1.279 . S
C482 H523 0.930 . S
N483 C481 1.314 . S
N483 C482 1.279 . S
C484 C486 1.362 . S
C484 N487 1.314 . S
C484 H490 0.930 . S
C485 N487 1.279 . S
C485 C488 1.358 . S
C485 H491 0.930 . S
C486 C484 1.362 . S
C486 C489 1.352 . S
C486 H524 0.917 1_655 S
N487 Li442 1.990 . S
N487 C484 1.314 . S
N487 C485 1.279 . S
C488 C485 1.358 . S
C488 C489 1.356 . S
C488 H525 0.930 . S
C489 C486 1.352 . S
C489 C488 1.356 . S
H490 C484 0.930 . S
H491 C485 0.930 . S
C492 N493 1.314 . S
C492 C494 1.353 . S
C492 H498 0.930 . S
N493 Li443 1.990 . S
N493 C492 1.314 . S
N493 C496 1.279 . S
C494 C492 1.353 . S
C494 C497 1.348 . S
C494 H526 0.929 . S
C495 C496 1.358 . S
C495 C497 1.356 . S
C495 H527 0.930 . S
C496 N493 1.279 . S
C496 C495 1.358 . S
C496 H499 0.930 . S
C497 C494 1.348 . S
C497 C495 1.356 . S
H498 C492 0.930 . S
H499 C496 0.930 . S
O500 Li440 1.956 . S
O500 Li441 1.970 . S
O500 Li442 1.961 . S
O500 C444 1.325 . S
O501 Li440 1.970 . S
O501 Li441 1.956 . S
O501 Li443 1.961 1_545 S
O501 C450 1.325 . S
O502 Li440 1.961 . S
O502 Li442 1.956 . S
O502 Li443 1.970 1_545 S
O502 C472 1.325 . S
O503 Li441 1.961 1_565 S
O503 Li442 1.970 1_565 S
O503 Li443 1.956 . S
O503 C478 1.325 . S
H504 C446 0.929 . S
H505 C447 0.930 . S
H506 C448 0.930 . S
H507 C449 0.930 . S
H508 C451 0.930 . S
H509 C453 0.929 . S
H510 C454 0.930 . S
H511 C455 0.930 . S
H512 C458 0.930 . S
H513 C461 0.929 . S
H514 C466 0.929 1_455 S
H515 C467 0.930 . S
H516 C474 0.929 1_565 S
H517 C475 0.930 . S
H518 C476 0.930 1_565 S
H519 C477 0.930 . S
H520 C479 0.929 . S
H521 C480 0.930 . S
H522 C481 0.930 . S
H523 C482 0.930 . S
H524 C486 0.917 1_455 S
H525 C488 0.930 . S
H526 C494 0.929 . S
H527 C495 0.930 . S
Li528 N545 1.990 . S
Li528 O588 1.956 . S
Li528 O589 1.970 . S
Li528 O590 1.961 . S
Li529 N553 1.990 . S
Li529 O588 1.970 . S
Li529 O589 1.956 . S
Li529 O591 1.961 . S
Li530 N575 1.990 . S
Li530 O588 1.961 . S
Li530 O590 1.956 . S
Li530 O591 1.970 . S
Li531 N581 1.990 . S
Li531 O589 1.961 . S
Li531 O590 1.970 . S
Li531 O591 1.956 . S
C532 C534 1.348 . S
C532 C535 1.356 . S
C532 O588 1.325 . S
N533 C536 1.314 . S
N533 C537 1.279 . S
C534 C532 1.348 . S
C534 C536 1.353 . S
C534 H592 0.929 . S
C535 C532 1.356 . S
C535 C537 1.358 . S
C535 H593 0.930 . S
C536 N533 1.314 . S
C536 C534 1.353 . S
C536 H594 0.930 . S
C537 N533 1.279 . S
C537 C535 1.358 . S
C537 H595 0.930 . S
C538 C541 1.348 . S
C538 C542 1.356 . S
C538 O589 1.325 . S
C539 N540 1.279 . S
C539 C542 1.358 . S
C539 H596 0.930 . S
N540 C539 1.279 . S
N540 C543 1.314 . S
C541 C538 1.348 . S
C541 C543 1.353 . S
C541 H597 0.929 . S
C542 C538 1.356 . S
C542 C539 1.358 . S
C542 H598 0.930 . S
C543 N540 1.314 . S
C543 C541 1.353 . S
C543 H599 0.930 . S
C544 N545 1.314 . S
C544 C549 1.353 . S
C544 H550 0.930 . S
N545 Li528 1.990 . S
N545 C544 1.314 . S
N545 C547 1.279 . S
C546 C547 1.358 . S
C546 C548 1.356 . S
C546 H600 0.930 . S
C547 N545 1.279 . S
C547 C546 1.358 . S
C547 H551 0.930 . S
C548 C546 1.356 . S
C548 C549 1.348 . S
C549 C544 1.353 . S
C549 C548 1.348 . S
C549 H601 0.929 . S
H550 C544 0.930 . S
H551 C547 0.930 . S
C552 N553 1.314 . S
C552 C554 1.353 . S
C552 H558 0.930 . S
N553 Li529 1.990 . S
N553 C552 1.314 . S
N553 C556 1.279 . S
C554 C552 1.353 . S
C554 C557 1.348 . S
C554 H602 0.929 . S
C555 C556 1.358 . S
C555 C557 1.356 . S
C555 H603 0.930 . S
C556 N553 1.279 . S
C556 C555 1.358 . S
C556 H559 0.930 . S
C557 C554 1.348 . S
C557 C555 1.356 . S
H558 C552 0.930 . S
H559 C556 0.930 . S
C560 C562 1.348 . S
C560 C563 1.356 . S
C560 O590 1.325 . S
N561 C564 1.314 . S
N561 C565 1.279 . S
C562 C560 1.348 . S
C562 C564 1.353 . S
C562 H604 0.929 . S
C563 C560 1.356 . S
C563 C565 1.358 . S
C563 H605 0.930 . S
C564 N561 1.314 . S
C564 C562 1.353 . S
C564 H606 0.930 . S
C565 N561 1.279 . S
C565 C563 1.358 . S
C565 H607 0.930 . S
C566 C567 1.348 . S
C566 C568 1.356 . S
C566 O591 1.325 . S
C567 C566 1.348 . S
C567 C569 1.353 . S
C567 H608 0.929 . S
C568 C566 1.356 . S
C568 C570 1.358 . S
C568 H609 0.930 . S
C569 C567 1.353 . S
C569 N571 1.314 . S
C569 H610 0.930 . S
C570 C568 1.358 . S
C570 N571 1.279 . S
C570 H611 0.930 . S
N571 C569 1.314 . S
N571 C570 1.279 . S
C572 C574 1.353 . S
C572 N575 1.314 . S
C572 H578 0.930 . S
C573 N575 1.279 . S
C573 C576 1.358 . S
C573 H579 0.930 . S
C574 C572 1.353 . S
C574 C577 1.348 . S
C574 H612 0.929 . S
N575 Li530 1.990 . S
N575 C572 1.314 . S
N575 C573 1.279 . S
C576 C573 1.358 . S
C576 C577 1.356 . S
C576 H613 0.930 . S
C577 C574 1.348 . S
C577 C576 1.356 . S
H578 C572 0.930 . S
H579 C573 0.930 . S
C580 N581 1.314 . S
C580 C582 1.353 . S
C580 H586 0.930 . S
N581 Li531 1.990 . S
N581 C580 1.314 . S
N581 C584 1.279 . S
C582 C580 1.353 . S
C582 C585 1.348 . S
C582 H614 0.929 . S
C583 C584 1.358 . S
C583 C585 1.356 . S
C583 H615 0.930 . S
C584 N581 1.279 . S
C584 C583 1.358 . S
C584 H587 0.930 . S
C585 C582 1.348 . S
C585 C583 1.356 . S
H586 C580 0.930 . S
H587 C584 0.930 . S
O588 Li528 1.956 . S
O588 Li529 1.970 . S
O588 Li530 1.961 . S
O588 C532 1.325 . S
O589 Li528 1.970 . S
O589 Li529 1.956 . S
O589 Li531 1.961 . S
O589 C538 1.325 . S
O590 Li528 1.961 . S
O590 Li530 1.956 . S
O590 Li531 1.970 . S
O590 C560 1.325 . S
O591 Li529 1.961 . S
O591 Li530 1.970 . S
O591 Li531 1.956 . S
O591 C566 1.325 . S
H592 C534 0.929 . S
H593 C535 0.930 . S
H594 C536 0.930 . S
H595 C537 0.930 . S
H596 C539 0.930 . S
H597 C541 0.929 . S
H598 C542 0.930 . S
H599 C543 0.930 . S
H600 C546 0.930 . S
H601 C549 0.929 . S
H602 C554 0.929 . S
H603 C555 0.930 . S
H604 C562 0.929 . S
H605 C563 0.930 . S
H606 C564 0.930 . S
H607 C565 0.930 . S
H608 C567 0.929 . S
H609 C568 0.930 . S
H610 C569 0.930 . S
H611 C570 0.930 . S
H612 C574 0.929 . S
H613 C576 0.930 . S
H614 C582 0.929 . S
H615 C583 0.930 . S
Li616 N633 1.990 . S
Li616 O676 1.956 . S
Li616 O677 1.970 . S
Li616 O678 1.961 . S
Li617 N641 1.990 . S
Li617 O676 1.970 . S
Li617 O677 1.956 . S
Li617 O679 1.961 . S
Li618 N663 1.990 . S
Li618 O676 1.961 . S
Li618 O678 1.956 . S
Li618 O679 1.970 . S
Li619 N669 1.990 . S
Li619 O677 1.961 . S
Li619 O678 1.970 . S
Li619 O679 1.956 . S
C620 C622 1.348 . S
C620 C623 1.356 . S
C620 O676 1.325 . S
N621 C624 1.314 . S
N621 C625 1.279 . S
C622 C620 1.348 . S
C622 C624 1.353 . S
C622 H680 0.929 . S
C623 C620 1.356 . S
C623 C625 1.358 . S
C623 H681 0.930 . S
C624 N621 1.314 . S
C624 C622 1.353 . S
C624 H682 0.930 . S
C625 N621 1.279 . S
C625 C623 1.358 . S
C625 H683 0.930 . S
C626 C629 1.348 . S
C626 C630 1.356 . S
C626 O677 1.325 . S
C627 N628 1.279 . S
C627 C630 1.358 . S
C627 H684 0.930 . S
N628 C627 1.279 . S
N628 C631 1.314 . S
C629 C626 1.348 . S
C629 C631 1.353 . S
C629 H685 0.929 . S
C630 C626 1.356 . S
C630 C627 1.358 . S
C630 H686 0.930 . S
C631 N628 1.314 . S
C631 C629 1.353 . S
C631 H687 0.930 . S
C632 N633 1.314 . S
C632 C637 1.353 . S
C632 H638 0.930 . S
N633 Li616 1.990 . S
N633 C632 1.314 . S
N633 C635 1.279 . S
C634 C635 1.358 . S
C634 C636 1.356 . S
C634 H688 0.930 . S
C635 N633 1.279 . S
C635 C634 1.358 . S
C635 H639 0.930 . S
C636 C634 1.356 . S
C636 C637 1.348 . S
C637 C632 1.353 . S
C637 C636 1.348 . S
C637 H689 0.929 . S
H638 C632 0.930 . S
H639 C635 0.930 . S
C640 N641 1.314 . S
C640 C642 1.353 . S
C640 H646 0.930 . S
N641 Li617 1.990 . S
N641 C640 1.314 . S
N641 C644 1.279 . S
C642 C640 1.353 . S
C642 C645 1.348 . S
C642 H690 0.929 . S
C643 C644 1.358 . S
C643 C645 1.356 . S
C643 H691 0.930 . S
C644 N641 1.279 . S
C644 C643 1.358 . S
C644 H647 0.930 . S
C645 C642 1.348 . S
C645 C643 1.356 . S
H646 C640 0.930 . S
H647 C644 0.930 . S
C648 C650 1.348 . S
C648 C651 1.356 . S
C648 O678 1.325 . S
N649 C652 1.314 . S
N649 C653 1.279 . S
C650 C648 1.348 . S
C650 C652 1.353 . S
C650 H692 0.929 . S
C651 C648 1.356 . S
C651 C653 1.358 . S
C651 H693 0.930 . S
C652 N649 1.314 . S
C652 C650 1.353 . S
C652 H694 0.930 . S
C653 N649 1.279 . S
C653 C651 1.358 . S
C653 H695 0.930 . S
C654 C655 1.348 . S
C654 C656 1.356 . S
C654 O679 1.325 . S
C655 C654 1.348 . S
C655 C657 1.353 . S
C655 H696 0.929 . S
C656 C654 1.356 . S
C656 C658 1.358 . S
C656 H697 0.930 . S
C657 C655 1.353 . S
C657 N659 1.314 . S
C657 H698 0.930 . S
C658 C656 1.358 . S
C658 N659 1.279 . S
C658 H699 0.930 . S
N659 C657 1.314 . S
N659 C658 1.279 . S
C660 C662 1.353 . S
C660 N663 1.314 . S
C660 H666 0.930 . S
C661 N663 1.279 . S
C661 C664 1.358 . S
C661 H667 0.930 . S
C662 C660 1.353 . S
C662 C665 1.348 . S
C662 H700 0.929 . S
N663 Li618 1.990 . S
N663 C660 1.314 . S
N663 C661 1.279 . S
C664 C661 1.358 . S
C664 C665 1.356 . S
C664 H701 0.930 . S
C665 C662 1.348 . S
C665 C664 1.356 . S
H666 C660 0.930 . S
H667 C661 0.930 . S
C668 N669 1.314 . S
C668 C670 1.353 . S
C668 H674 0.930 . S
N669 Li619 1.990 . S
N669 C668 1.314 . S
N669 C672 1.279 . S
C670 C668 1.353 . S
C670 C673 1.348 . S
C670 H702 0.929 . S
C671 C672 1.358 . S
C671 C673 1.356 . S
C671 H703 0.930 . S
C672 N669 1.279 . S
C672 C671 1.358 . S
C672 H675 0.930 . S
C673 C670 1.348 . S
C673 C671 1.356 . S
H674 C668 0.930 . S
H675 C672 0.930 . S
O676 Li616 1.956 . S
O676 Li617 1.970 . S
O676 Li618 1.961 . S
O676 C620 1.325 . S
O677 Li616 1.970 . S
O677 Li617 1.956 . S
O677 Li619 1.961 . S
O677 C626 1.325 . S
O678 Li616 1.961 . S
O678 Li618 1.956 . S
O678 Li619 1.970 . S
O678 C648 1.325 . S
O679 Li617 1.961 . S
O679 Li618 1.970 . S
O679 Li619 1.956 . S
O679 C654 1.325 . S
H680 C622 0.929 . S
H681 C623 0.930 . S
H682 C624 0.930 . S
H683 C625 0.930 . S
H684 C627 0.930 . S
H685 C629 0.929 . S
H686 C630 0.930 . S
H687 C631 0.930 . S
H688 C634 0.930 . S
H689 C637 0.929 . S
H690 C642 0.929 . S
H691 C643 0.930 . S
H692 C650 0.929 . S
H693 C651 0.930 . S
H694 C652 0.930 . S
H695 C653 0.930 . S
H696 C655 0.929 . S
H697 C656 0.930 . S
H698 C657 0.930 . S
H699 C658 0.930 . S
H700 C662 0.929 . S
H701 C664 0.930 . S
H702 C670 0.929 . S
H703 C671 0.930 . S
Li704 N721 1.990 . S
Li704 O764 1.956 . S
Li704 O765 1.970 . S
Li704 O766 1.961 . S
Li705 N729 1.990 . S
Li705 O764 1.970 . S
Li705 O765 1.956 . S
Li705 O767 1.961 . S
Li706 N751 1.990 . S
Li706 O764 1.961 . S
Li706 O766 1.956 . S
Li706 O767 1.970 . S
Li707 N757 1.990 . S
Li707 O765 1.961 . S
Li707 O766 1.970 . S
Li707 O767 1.956 . S
C708 C710 1.348 . S
C708 C711 1.356 . S
C708 O764 1.325 . S
N709 C712 1.314 . S
N709 C713 1.279 . S
C710 C708 1.348 . S
C710 C712 1.353 . S
C710 H768 0.929 . S
C711 C708 1.356 . S
C711 C713 1.358 . S
C711 H769 0.930 . S
C712 N709 1.314 . S
C712 C710 1.353 . S
C712 H770 0.930 . S
C713 N709 1.279 . S
C713 C711 1.358 . S
C713 H771 0.930 . S
C714 C717 1.348 . S
C714 C718 1.356 . S
C714 O765 1.325 . S
C715 N716 1.279 . S
C715 C718 1.358 . S
C715 H772 0.930 . S
N716 C715 1.279 . S
N716 C719 1.314 . S
C717 C714 1.348 . S
C717 C719 1.353 . S
C717 H773 0.929 . S
C718 C714 1.356 . S
C718 C715 1.358 . S
C718 H774 0.930 . S
C719 N716 1.314 . S
C719 C717 1.353 . S
C719 H775 0.930 . S
C720 N721 1.314 . S
C720 C725 1.353 . S
C720 H726 0.930 . S
N721 Li704 1.990 . S
N721 C720 1.314 . S
N721 C723 1.279 . S
C722 C723 1.358 . S
C722 C724 1.356 . S
C722 H776 0.930 . S
C723 N721 1.279 . S
C723 C722 1.358 . S
C723 H727 0.930 . S
C724 C722 1.356 . S
C724 C725 1.348 . S
C725 C720 1.353 . S
C725 C724 1.348 . S
C725 H777 0.929 . S
H726 C720 0.930 . S
H727 C723 0.930 . S
C728 N729 1.314 . S
C728 C730 1.353 . S
C728 H734 0.930 . S
N729 Li705 1.990 . S
N729 C728 1.314 . S
N729 C732 1.279 . S
C730 C728 1.353 . S
C730 C733 1.348 . S
C730 H778 0.929 . S
C731 C732 1.358 . S
C731 C733 1.356 . S
C731 H779 0.930 . S
C732 N729 1.279 . S
C732 C731 1.358 . S
C732 H735 0.930 . S
C733 C730 1.348 . S
C733 C731 1.356 . S
H734 C728 0.930 . S
H735 C732 0.930 . S
C736 C738 1.348 . S
C736 C739 1.356 . S
C736 O766 1.325 . S
N737 C740 1.314 . S
N737 C741 1.279 . S
C738 C736 1.348 . S
C738 C740 1.353 . S
C738 H780 0.929 . S
C739 C736 1.356 . S
C739 C741 1.358 . S
C739 H781 0.930 . S
C740 N737 1.314 . S
C740 C738 1.353 . S
C740 H782 0.930 . S
C741 N737 1.279 . S
C741 C739 1.358 . S
C741 H783 0.930 . S
C742 C743 1.348 . S
C742 C744 1.356 . S
C742 O767 1.325 . S
C743 C742 1.348 . S
C743 C745 1.353 . S
C743 H784 0.929 . S
C744 C742 1.356 . S
C744 C746 1.358 . S
C744 H785 0.930 . S
C745 C743 1.353 . S
C745 N747 1.314 . S
C745 H786 0.930 . S
C746 C744 1.358 . S
C746 N747 1.279 . S
C746 H787 0.930 . S
N747 C745 1.314 . S
N747 C746 1.279 . S
C748 C750 1.353 . S
C748 N751 1.314 . S
C748 H754 0.930 . S
C749 N751 1.279 . S
C749 C752 1.358 . S
C749 H755 0.930 . S
C750 C748 1.353 . S
C750 C753 1.348 . S
C750 H788 0.929 . S
N751 Li706 1.990 . S
N751 C748 1.314 . S
N751 C749 1.279 . S
C752 C749 1.358 . S
C752 C753 1.356 . S
C752 H789 0.930 . S
C753 C750 1.348 . S
C753 C752 1.356 . S
H754 C748 0.930 . S
H755 C749 0.930 . S
C756 N757 1.314 . S
C756 C758 1.353 . S
C756 H762 0.930 . S
N757 Li707 1.990 . S
N757 C756 1.314 . S
N757 C760 1.279 . S
C758 C756 1.353 . S
C758 C761 1.348 . S
C758 H790 0.929 . S
C759 C760 1.358 . S
C759 C761 1.356 . S
C759 H791 0.930 . S
C760 N757 1.279 . S
C760 C759 1.358 . S
C760 H763 0.930 . S
C761 C758 1.348 . S
C761 C759 1.356 . S
H762 C756 0.930 . S
H763 C760 0.930 . S
O764 Li704 1.956 . S
O764 Li705 1.970 . S
O764 Li706 1.961 . S
O764 C708 1.325 . S
O765 Li704 1.970 . S
O765 Li705 1.956 . S
O765 Li707 1.961 . S
O765 C714 1.325 . S
O766 Li704 1.961 . S
O766 Li706 1.956 . S
O766 Li707 1.970 . S
O766 C736 1.325 . S
O767 Li705 1.961 . S
O767 Li706 1.970 . S
O767 Li707 1.956 . S
O767 C742 1.325 . S
H768 C710 0.929 . S
H769 C711 0.930 . S
H770 C712 0.930 . S
H771 C713 0.930 . S
H772 C715 0.930 . S
H773 C717 0.929 . S
H774 C718 0.930 . S
H775 C719 0.930 . S
H776 C722 0.930 . S
H777 C725 0.929 . S
H778 C730 0.929 . S
H779 C731 0.930 . S
H780 C738 0.929 . S
H781 C739 0.930 . S
H782 C740 0.930 . S
H783 C741 0.930 . S
H784 C743 0.929 . S
H785 C744 0.930 . S
H786 C745 0.930 . S
H787 C746 0.930 . S
H788 C750 0.929 . S
H789 C752 0.930 . S
H790 C758 0.929 . S
H791 C759 0.930 . S
Li792 N809 1.990 . S
Li792 O852 1.956 . S
Li792 O853 1.970 1_565 S
Li792 O854 1.961 . S
Li793 N817 1.990 . S
Li793 O852 1.970 1_545 S
Li793 O853 1.956 . S
Li793 O855 1.961 . S
Li794 N839 1.990 . S
Li794 O852 1.961 . S
Li794 O854 1.956 . S
Li794 O855 1.970 1_565 S
Li795 N845 1.990 . S
Li795 O853 1.961 . S
Li795 O854 1.970 1_545 S
Li795 O855 1.956 . S
C796 C798 1.348 . S
C796 C799 1.356 . S
C796 O852 1.325 . S
N797 C800 1.314 . S
N797 C801 1.279 . S
C798 C796 1.348 . S
C798 C800 1.353 . S
C798 H856 0.929 . S
C799 C796 1.356 . S
C799 C801 1.358 . S
C799 H857 0.930 . S
C800 N797 1.314 . S
C800 C798 1.353 . S
C800 H858 0.930 . S
C801 N797 1.279 . S
C801 C799 1.358 . S
C801 H859 0.930 . S
C802 C805 1.348 1_545 S
C802 C806 1.356 . S
C802 O853 1.325 . S
C803 N804 1.279 . S
C803 C806 1.358 . S
C803 H860 0.930 . S
N804 C803 1.279 . S
N804 C807 1.314 1_545 S
C805 C802 1.348 1_565 S
C805 C807 1.353 . S
C805 H861 0.929 . S
C806 C802 1.356 . S
C806 C803 1.358 . S
C806 H862 0.930 . S
C807 N804 1.314 1_565 S
C807 C805 1.353 . S
C807 H863 0.930 . S
C808 N809 1.314 . S
C808 C813 1.353 . S
C808 H814 0.930 . S
N809 Li792 1.990 . S
N809 C808 1.314 . S
N809 C811 1.279 . S
C810 C811 1.358 . S
C810 C812 1.356 . S
C810 H864 0.930 . S
C811 N809 1.279 . S
C811 C810 1.358 . S
C811 H815 0.930 . S
C812 C810 1.356 . S
C812 C813 1.348 . S
C813 C808 1.353 . S
C813 C812 1.348 . S
C813 H865 0.929 . S
H814 C808 0.930 . S
H815 C811 0.930 . S
C816 N817 1.314 . S
C816 C818 1.353 . S
C816 H822 0.930 . S
N817 Li793 1.990 . S
N817 C816 1.314 . S
N817 C820 1.279 . S
C818 C816 1.353 . S
C818 C821 1.348 . S
C818 H866 0.929 . S
C819 C820 1.358 . S
C819 C821 1.356 . S
C819 H867 0.930 . S
C820 N817 1.279 . S
C820 C819 1.358 . S
C820 H823 0.930 . S
C821 C818 1.348 . S
C821 C819 1.356 . S
H822 C816 0.930 . S
H823 C820 0.930 . S
C824 C826 1.348 1_565 S
C824 C827 1.356 . S
C824 O854 1.325 . S
N825 C828 1.314 1_565 S
N825 C829 1.279 . S
C826 C824 1.348 1_545 S
C826 C828 1.353 . S
C826 H868 0.929 . S
C827 C824 1.356 . S
C827 C829 1.358 . S
C827 H869 0.930 . S
C828 N825 1.314 1_545 S
C828 C826 1.353 . S
C828 H870 0.930 . S
C829 N825 1.279 . S
C829 C827 1.358 . S
C829 H871 0.930 . S
C830 C831 1.348 . S
C830 C832 1.356 . S
C830 O855 1.325 . S
C831 C830 1.348 . S
C831 C833 1.353 . S
C831 H872 0.929 . S
C832 C830 1.356 . S
C832 C834 1.358 . S
C832 H873 0.930 . S
C833 C831 1.353 . S
C833 N835 1.314 . S
C833 H874 0.930 . S
C834 C832 1.358 . S
C834 N835 1.279 . S
C834 H875 0.930 . S
N835 C833 1.314 . S
N835 C834 1.279 . S
C836 C838 1.353 . S
C836 N839 1.314 . S
C836 H842 0.930 . S
C837 N839 1.279 . S
C837 C840 1.358 . S
C837 H843 0.930 . S
C838 C836 1.353 . S
C838 C841 1.348 . S
C838 H876 0.929 . S
N839 Li794 1.990 . S
N839 C836 1.314 . S
N839 C837 1.279 . S
C840 C837 1.358 . S
C840 C841 1.356 . S
C840 H877 0.930 . S
C841 C838 1.348 . S
C841 C840 1.356 . S
H842 C836 0.930 . S
H843 C837 0.930 . S
C844 N845 1.314 . S
C844 C846 1.353 . S
C844 H850 0.930 . S
N845 Li795 1.990 . S
N845 C844 1.314 . S
N845 C848 1.279 . S
C846 C844 1.353 . S
C846 C849 1.348 . S
C846 H878 0.929 . S
C847 C848 1.358 . S
C847 C849 1.356 . S
C847 H879 0.930 . S
C848 N845 1.279 . S
C848 C847 1.358 . S
C848 H851 0.930 . S
C849 C846 1.348 . S
C849 C847 1.356 . S
H850 C844 0.930 . S
H851 C848 0.930 . S
O852 Li792 1.956 . S
O852 Li793 1.970 1_565 S
O852 Li794 1.961 . S
O852 C796 1.325 . S
O853 Li792 1.970 1_545 S
O853 Li793 1.956 . S
O853 Li795 1.961 . S
O853 C802 1.325 . S
O854 Li792 1.961 . S
O854 Li794 1.956 . S
O854 Li795 1.970 1_565 S
O854 C824 1.325 . S
O855 Li793 1.961 . S
O855 Li794 1.970 1_545 S
O855 Li795 1.956 . S
O855 C830 1.325 . S
H856 C798 0.929 . S
H857 C799 0.930 . S
H858 C800 0.930 . S
H859 C801 0.930 . S
H860 C803 0.930 . S
H861 C805 0.929 . S
H862 C806 0.930 . S
H863 C807 0.930 . S
H864 C810 0.930 . S
H865 C813 0.929 . S
H866 C818 0.929 . S
H867 C819 0.930 . S
H868 C826 0.929 . S
H869 C827 0.930 . S
H870 C828 0.930 . S
H871 C829 0.930 . S
H872 C831 0.929 . S
H873 C832 0.930 . S
H874 C833 0.930 . S
H875 C834 0.930 . S
H876 C838 0.929 . S
H877 C840 0.930 . S
H878 C846 0.929 . S
H879 C847 0.930 . S
Li880 N897 1.990 . S
Li880 O940 1.956 . S
Li880 O941 1.970 . S
Li880 O942 1.961 . S
Li881 N905 1.990 . S
Li881 O940 1.970 . S
Li881 O941 1.956 . S
Li881 O943 1.961 1_455 S
Li882 N927 1.990 . S
Li882 O940 1.961 . S
Li882 O942 1.956 . S
Li882 O943 1.970 1_455 S
Li883 N933 1.990 . S
Li883 O941 1.961 1_655 S
Li883 O942 1.970 1_655 S
Li883 O943 1.956 . S
C884 C886 1.348 . S
C884 C887 1.356 . S
C884 O940 1.325 . S
N885 C888 1.314 . S
N885 C889 1.279 . S
C886 C884 1.348 . S
C886 C888 1.353 . S
C886 H944 0.929 . S
C887 C884 1.356 . S
C887 C889 1.358 . S
C887 H945 0.930 . S
C888 N885 1.314 . S
C888 C886 1.353 . S
C888 H946 0.930 . S
C889 N885 1.279 . S
C889 C887 1.358 . S
C889 H947 0.930 . S
C890 C893 1.348 . S
C890 C894 1.356 1_455 S
C890 O941 1.325 . S
C891 N892 1.279 1_655 S
C891 C894 1.358 . S
C891 H948 0.930 . S
N892 C891 1.279 1_455 S
N892 C895 1.314 . S
C893 C890 1.348 . S
C893 C895 1.353 . S
C893 H949 0.929 . S
C894 C890 1.356 1_655 S
C894 C891 1.358 . S
C894 H950 0.930 . S
C895 N892 1.314 . S
C895 C893 1.353 . S
C895 H951 0.930 . S
C896 N897 1.314 . S
C896 C901 1.353 . S
C896 H902 0.930 . S
N897 Li880 1.990 . S
N897 C896 1.314 . S
N897 C899 1.279 . S
C898 C899 1.358 . S
C898 C900 1.356 . S
C898 H952 0.930 . S
C899 N897 1.279 . S
C899 C898 1.358 . S
C899 H903 0.930 . S
C900 C898 1.356 . S
C900 C901 1.348 . S
C901 C896 1.353 . S
C901 C900 1.348 . S
C901 H953 0.929 . S
H902 C896 0.930 . S
H903 C899 0.930 . S
C904 N905 1.314 . S
C904 C906 1.353 . S
C904 H910 0.932 . S
N905 Li881 1.990 . S
N905 C904 1.314 . S
N905 C908 1.279 . S
C906 C904 1.353 . S
C906 C909 1.348 . S
C906 H954 0.929 1_455 S
C907 C908 1.358 . S
C907 C909 1.356 . S
C907 H955 0.930 . S
C908 N905 1.279 . S
C908 C907 1.358 . S
C908 H911 0.930 . S
C909 C906 1.348 . S
C909 C907 1.356 . S
H910 C904 0.932 . S
H911 C908 0.930 . S
C912 C914 1.348 . S
C912 C915 1.356 . S
C912 O942 1.325 . S
N913 C916 1.314 . S
N913 C917 1.279 . S
C914 C912 1.348 . S
C914 C916 1.353 . S
C914 H956 0.929 1_455 S
C915 C912 1.356 . S
C915 C917 1.358 . S
C915 H957 0.930 . S
C916 N913 1.314 . S
C916 C914 1.353 . S
C916 H958 0.930 1_455 S
C917 N913 1.279 . S
C917 C915 1.358 . S
C917 H959 0.930 . S
C918 C919 1.348 . S
C918 C920 1.356 . S
C918 O943 1.325 . S
C919 C918 1.348 . S
C919 C921 1.353 . S
C919 H960 0.929 . S
C920 C918 1.356 . S
C920 C922 1.358 . S
C920 H961 0.930 . S
C921 C919 1.353 . S
C921 N923 1.314 . S
C921 H962 0.930 . S
C922 C920 1.358 . S
C922 N923 1.279 . S
C922 H963 0.930 . S
N923 C921 1.314 . S
N923 C922 1.279 . S
C924 C926 1.353 . S
C924 N927 1.314 . S
C924 H930 0.930 . S
C925 N927 1.279 . S
C925 C928 1.358 . S
C925 H931 0.930 . S
C926 C924 1.353 . S
C926 C929 1.348 . S
C926 H964 0.929 . S
N927 Li882 1.990 . S
N927 C924 1.314 . S
N927 C925 1.279 . S
C928 C925 1.358 . S
C928 C929 1.356 . S
C928 H965 0.930 . S
C929 C926 1.348 . S
C929 C928 1.356 . S
H930 C924 0.930 . S
H931 C925 0.930 . S
C932 N933 1.314 . S
C932 C934 1.353 . S
C932 H938 0.930 . S
N933 Li883 1.990 . S
N933 C932 1.314 . S
N933 C936 1.279 . S
C934 C932 1.353 . S
C934 C937 1.348 . S
C934 H966 0.929 . S
C935 C936 1.358 . S
C935 C937 1.356 . S
C935 H967 0.930 . S
C936 N933 1.279 . S
C936 C935 1.358 . S
C936 H939 0.930 . S
C937 C934 1.348 . S
C937 C935 1.356 . S
H938 C932 0.930 . S
H939 C936 0.930 . S
O940 Li880 1.956 . S
O940 Li881 1.970 . S
O940 Li882 1.961 . S
O940 C884 1.325 . S
O941 Li880 1.970 . S
O941 Li881 1.956 . S
O941 Li883 1.961 1_455 S
O941 C890 1.325 . S
O942 Li880 1.961 . S
O942 Li882 1.956 . S
O942 Li883 1.970 1_455 S
O942 C912 1.325 . S
O943 Li881 1.961 1_655 S
O943 Li882 1.970 1_655 S
O943 Li883 1.956 . S
O943 C918 1.325 . S
H944 C886 0.929 . S
H945 C887 0.930 . S
H946 C888 0.930 . S
H947 C889 0.930 . S
H948 C891 0.930 . S
H949 C893 0.929 . S
H950 C894 0.930 . S
H951 C895 0.930 . S
H952 C898 0.930 . S
H953 C901 0.929 . S
H954 C906 0.929 1_655 S
H955 C907 0.930 . S
H956 C914 0.929 1_655 S
H957 C915 0.930 . S
H958 C916 0.930 1_655 S
H959 C917 0.930 . S
H960 C919 0.929 . S
H961 C920 0.930 . S
H962 C921 0.930 . S
H963 C922 0.930 . S
H964 C926 0.929 . S
H965 C928 0.930 . S
H966 C934 0.929 . S
H967 C935 0.930 . S
Li968 N985 1.990 . S
Li968 O1028 1.956 . S
Li968 O1029 1.970 . S
Li968 O1030 1.961 . S
Li969 N993 1.990 . S
Li969 O1028 1.970 . S
Li969 O1029 1.956 . S
Li969 O1031 1.961 . S
Li970 N1015 1.990 . S
Li970 O1028 1.961 . S
Li970 O1030 1.956 . S
Li970 O1031 1.970 . S
Li971 N1021 1.990 . S
Li971 O1029 1.961 . S
Li971 O1030 1.970 . S
Li971 O1031 1.956 . S
C972 C974 1.348 . S
C972 C975 1.356 . S
C972 O1028 1.325 . S
N973 C976 1.314 . S
N973 C977 1.279 . S
C974 C972 1.348 . S
C974 C976 1.353 . S
C974 H1032 0.929 . S
C975 C972 1.356 . S
C975 C977 1.358 . S
C975 H1033 0.930 . S
C976 N973 1.314 . S
C976 C974 1.353 . S
C976 H1034 0.930 . S
C977 N973 1.279 . S
C977 C975 1.358 . S
C977 H1035 0.930 . S
C978 C981 1.348 . S
C978 C982 1.356 . S
C978 O1029 1.325 . S
C979 N980 1.279 . S
C979 C982 1.358 . S
C979 H1036 0.930 . S
N980 C979 1.279 . S
N980 C983 1.314 . S
C981 C978 1.348 . S
C981 C983 1.353 . S
C981 H1037 0.929 . S
C982 C978 1.356 . S
C982 C979 1.358 . S
C982 H1038 0.930 . S
C983 N980 1.314 . S
C983 C981 1.353 . S
C983 H1039 0.930 . S
C984 N985 1.314 . S
C984 C989 1.353 . S
C984 H990 0.930 . S
N985 Li968 1.990 . S
N985 C984 1.314 . S
N985 C987 1.279 . S
C986 C987 1.358 . S
C986 C988 1.356 . S
C986 H1040 0.930 . S
C987 N985 1.279 . S
C987 C986 1.358 . S
C987 H991 0.930 . S
C988 C986 1.356 . S
C988 C989 1.348 . S
C989 C984 1.353 . S
C989 C988 1.348 . S
C989 H1041 0.929 . S
H990 C984 0.930 . S
H991 C987 0.930 . S
C992 N993 1.314 . S
C992 C994 1.353 . S
C992 H998 0.930 . S
N993 Li969 1.990 . S
N993 C992 1.314 . S
N993 C996 1.279 . S
C994 C992 1.353 . S
C994 C997 1.348 . S
C994 H1042 0.929 . S
C995 C996 1.358 . S
C995 C997 1.356 . S
C995 H1043 0.930 . S
C996 N993 1.279 . S
C996 C995 1.358 . S
C996 H999 0.930 . S
C997 C994 1.348 . S
C997 C995 1.356 . S
H998 C992 0.930 . S
H999 C996 0.930 . S
C1000 C1002 1.348 . S
C1000 C1003 1.356 . S
C1000 O1030 1.325 . S
N1001 C1004 1.314 . S
N1001 C1005 1.279 . S
C1002 C1000 1.348 . S
C1002 C1004 1.353 . S
C1002 H1044 0.929 . S
C1003 C1000 1.356 . S
C1003 C1005 1.358 . S
C1003 H1045 0.930 . S
C1004 N1001 1.314 . S
C1004 C1002 1.353 . S
C1004 H1046 0.930 . S
C1005 N1001 1.279 . S
C1005 C1003 1.358 . S
C1005 H1047 0.930 . S
C1006 C1007 1.348 . S
C1006 C1008 1.356 . S
C1006 O1031 1.325 . S
C1007 C1006 1.348 . S
C1007 C1009 1.353 . S
C1007 H1048 0.929 . S
C1008 C1006 1.356 . S
C1008 C1010 1.358 . S
C1008 H1049 0.930 . S
C1009 C1007 1.353 . S
C1009 N1011 1.314 . S
C1009 H1050 0.930 . S
C1010 C1008 1.358 . S
C1010 N1011 1.279 . S
C1010 H1051 0.930 . S
N1011 C1009 1.314 . S
N1011 C1010 1.279 . S
C1012 C1014 1.353 . S
C1012 N1015 1.314 . S
C1012 H1018 0.930 . S
C1013 N1015 1.279 . S
C1013 C1016 1.358 . S
C1013 H1019 0.930 . S
C1014 C1012 1.353 . S
C1014 C1017 1.348 . S
C1014 H1052 0.929 . S
N1015 Li970 1.990 . S
N1015 C1012 1.314 . S
N1015 C1013 1.279 . S
C1016 C1013 1.358 . S
C1016 C1017 1.356 . S
C1016 H1053 0.930 . S
C1017 C1014 1.348 . S
C1017 C1016 1.356 . S
H1018 C1012 0.930 . S
H1019 C1013 0.930 . S
C1020 N1021 1.314 . S
C1020 C1022 1.353 . S
C1020 H1026 0.930 . S
N1021 Li971 1.990 . S
N1021 C1020 1.314 . S
N1021 C1024 1.279 . S
C1022 C1020 1.353 . S
C1022 C1025 1.348 . S
C1022 H1054 0.929 . S
C1023 C1024 1.358 . S
C1023 C1025 1.356 . S
C1023 H1055 0.930 . S
C1024 N1021 1.279 . S
C1024 C1023 1.358 . S
C1024 H1027 0.930 . S
C1025 C1022 1.348 . S
C1025 C1023 1.356 . S
H1026 C1020 0.930 . S
H1027 C1024 0.930 . S
O1028 Li968 1.956 . S
O1028 Li969 1.970 . S
O1028 Li970 1.961 . S
O1028 C972 1.325 . S
O1029 Li968 1.970 . S
O1029 Li969 1.956 . S
O1029 Li971 1.961 . S
O1029 C978 1.325 . S
O1030 Li968 1.961 . S
O1030 Li970 1.956 . S
O1030 Li971 1.970 . S
O1030 C1000 1.325 . S
O1031 Li969 1.961 . S
O1031 Li970 1.970 . S
O1031 Li971 1.956 . S
O1031 C1006 1.325 . S
H1032 C974 0.929 . S
H1033 C975 0.930 . S
H1034 C976 0.930 . S
H1035 C977 0.930 . S
H1036 C979 0.930 . S
H1037 C981 0.929 . S
H1038 C982 0.930 . S
H1039 C983 0.930 . S
H1040 C986 0.930 . S
H1041 C989 0.929 . S
H1042 C994 0.929 . S
H1043 C995 0.930 . S
H1044 C1002 0.929 . S
H1045 C1003 0.930 . S
H1046 C1004 0.930 . S
H1047 C1005 0.930 . S
H1048 C1007 0.929 . S
H1049 C1008 0.930 . S
H1050 C1009 0.930 . S
H1051 C1010 0.930 . S
H1052 C1014 0.929 . S
H1053 C1016 0.930 . S
H1054 C1022 0.929 . S
H1055 C1023 0.930 . S
Li1056 N1073 1.990 . S
Li1056 O1116 1.956 . S
Li1056 O1117 1.970 1_455 S
Li1056 O1118 1.961 . S
Li1057 N1081 1.990 . S
Li1057 O1116 1.970 1_655 S
Li1057 O1117 1.956 . S
Li1057 O1119 1.980 . S
Li1058 N1103 1.990 . S
Li1058 O1116 1.961 . S
Li1058 O1118 1.956 . S
Li1058 O1119 1.947 1_455 S
Li1059 N1109 1.987 1_455 S
Li1059 O1117 1.933 1_455 S
Li1059 O1118 2.007 . S
Li1059 O1119 1.953 1_455 S
C1060 C1062 1.348 1_455 S
C1060 C1063 1.356 . S
C1060 O1116 1.325 . S
N1061 C1064 1.314 1_455 S
N1061 C1065 1.279 . S
C1062 C1060 1.348 1_655 S
C1062 C1064 1.353 . S
C1062 H1120 0.929 . S
C1063 C1060 1.356 . S
C1063 C1065 1.358 . S
C1063 H1121 0.930 . S
C1064 N1061 1.314 1_655 S
C1064 C1062 1.353 . S
C1064 H1122 0.930 . S
C1065 N1061 1.279 . S
C1065 C1063 1.358 . S
C1065 H1123 0.930 . S
C1066 C1069 1.348 . S
C1066 C1070 1.356 . S
C1066 O1117 1.325 . S
C1067 N1068 1.279 . S
C1067 C1070 1.358 . S
C1067 H1124 0.930 . S
N1068 C1067 1.279 . S
N1068 C1071 1.314 . S
C1069 C1066 1.348 . S
C1069 C1071 1.353 . S
C1069 H1125 0.929 . S
C1070 C1066 1.356 . S
C1070 C1067 1.358 . S
C1070 H1126 0.930 . S
C1071 N1068 1.314 . S
C1071 C1069 1.353 . S
C1071 H1127 0.930 . S
C1072 N1073 1.314 . S
C1072 C1077 1.353 . S
C1072 H1078 0.930 . S
N1073 Li1056 1.990 . S
N1073 C1072 1.314 . S
N1073 C1075 1.279 . S
C1074 C1075 1.358 . S
C1074 C1076 1.356 . S
C1074 H1128 0.930 . S
C1075 N1073 1.279 . S
C1075 C1074 1.358 . S
C1075 H1079 0.930 . S
C1076 C1074 1.356 . S
C1076 C1077 1.348 . S
C1077 C1072 1.353 . S
C1077 C1076 1.348 . S
C1077 H1129 0.929 . S
H1078 C1072 0.930 . S
H1079 C1075 0.930 . S
C1080 N1081 1.314 . S
C1080 C1082 1.353 . S
C1080 H1086 0.930 . S
N1081 Li1057 1.990 . S
N1081 C1080 1.314 . S
N1081 C1084 1.279 . S
C1082 C1080 1.353 . S
C1082 C1085 1.348 . S
C1082 H1130 0.929 . S
C1083 C1084 1.358 . S
C1083 C1085 1.356 . S
C1083 H1131 0.930 . S
C1084 N1081 1.279 . S
C1084 C1083 1.358 . S
C1084 H1087 0.930 . S
C1085 C1082 1.348 . S
C1085 C1083 1.356 . S
H1086 C1080 0.930 . S
H1087 C1084 0.930 . S
C1088 C1090 1.348 . S
C1088 C1091 1.356 . S
C1088 O1118 1.325 . S
N1089 C1092 1.314 . S
N1089 C1093 1.279 . S
C1090 C1088 1.348 . S
C1090 C1092 1.353 . S
C1090 H1132 0.929 . S
C1091 C1088 1.356 . S
C1091 C1093 1.358 . S
C1091 H1133 0.930 . S
C1092 N1089 1.314 . S
C1092 C1090 1.353 . S
C1092 H1134 0.930 . S
C1093 N1089 1.279 . S
C1093 C1091 1.358 . S
C1093 H1135 0.930 . S
C1094 C1095 1.348 1_655 S
C1094 C1096 1.356 . S
C1094 O1119 1.330 . S
C1095 C1094 1.348 1_455 S
C1095 C1097 1.353 . S
C1095 H1136 0.929 . S
C1096 C1094 1.356 . S
C1096 C1098 1.358 . S
C1096 H1137 0.930 . S
C1097 C1095 1.353 . S
C1097 N1099 1.314 1_455 S
C1097 H1138 0.930 . S
C1098 C1096 1.358 . S
C1098 N1099 1.279 . S
C1098 H1139 0.930 . S
N1099 C1097 1.314 1_655 S
N1099 C1098 1.279 . S
C1100 C1102 1.353 . S
C1100 N1103 1.314 . S
C1100 H1106 0.930 . S
C1101 N1103 1.279 . S
C1101 C1104 1.358 . S
C1101 H1107 0.930 . S
C1102 C1100 1.353 . S
C1102 C1105 1.348 . S
C1102 H1140 0.929 . S
N1103 Li1058 1.990 . S
N1103 C1100 1.314 . S
N1103 C1101 1.279 . S
C1104 C1101 1.358 . S
C1104 C1105 1.356 . S
C1104 H1141 0.930 . S
C1105 C1102 1.348 . S
C1105 C1104 1.356 . S
H1106 C1100 0.930 . S
H1107 C1101 0.930 . S
C1108 N1109 1.314 . S
C1108 C1110 1.353 . S
C1108 H1114 0.930 . S
N1109 Li1059 1.987 1_655 S
N1109 C1108 1.314 . S
N1109 C1112 1.279 . S
C1110 C1108 1.353 . S
C1110 C1113 1.348 . S
C1110 H1142 0.929 . S
C1111 C1112 1.358 . S
C1111 C1113 1.356 . S
C1111 H1143 0.930 . S
C1112 N1109 1.279 . S
C1112 C1111 1.358 . S
C1112 H1115 0.930 . S
C1113 C1110 1.348 . S
C1113 C1111 1.356 . S
H1114 C1108 0.930 . S
H1115 C1112 0.930 . S
O1116 Li1056 1.956 . S
O1116 Li1057 1.970 1_455 S
O1116 Li1058 1.961 . S
O1116 C1060 1.325 . S
O1117 Li1056 1.970 1_655 S
O1117 Li1057 1.956 . S
O1117 Li1059 1.933 1_655 S
O1117 C1066 1.325 . S
O1118 Li1056 1.961 . S
O1118 Li1058 1.956 . S
O1118 Li1059 2.007 . S
O1118 C1088 1.325 . S
O1119 Li1057 1.980 . S
O1119 Li1058 1.947 1_655 S
O1119 Li1059 1.953 1_655 S
O1119 C1094 1.330 . S
H1120 C1062 0.929 . S
H1121 C1063 0.930 . S
H1122 C1064 0.930 . S
H1123 C1065 0.930 . S
H1124 C1067 0.930 . S
H1125 C1069 0.929 . S
H1126 C1070 0.930 . S
H1127 C1071 0.930 . S
H1128 C1074 0.930 . S
H1129 C1077 0.929 . S
H1130 C1082 0.929 . S
H1131 C1083 0.930 . S
H1132 C1090 0.929 . S
H1133 C1091 0.930 . S
H1134 C1092 0.930 . S
H1135 C1093 0.930 . S
H1136 C1095 0.929 . S
H1137 C1096 0.930 . S
H1138 C1097 0.930 . S
H1139 C1098 0.930 . S
H1140 C1102 0.929 . S
H1141 C1104 0.930 . S
H1142 C1110 0.929 . S
H1143 C1111 0.930 . S
Li1144 N1161 1.990 . S
Li1144 O1204 1.956 . S
Li1144 O1205 1.970 . S
Li1144 O1206 1.961 . S
Li1145 N1169 1.990 . S
Li1145 O1204 1.970 . S
Li1145 O1205 1.956 . S
Li1145 O1207 1.961 . S
Li1146 N1191 1.990 . S
Li1146 O1204 1.961 . S
Li1146 O1206 1.956 . S
Li1146 O1207 1.970 . S
Li1147 N1197 1.990 . S
Li1147 O1205 1.961 . S
Li1147 O1206 1.970 . S
Li1147 O1207 1.956 . S
C1148 C1150 1.348 . S
C1148 C1151 1.356 . S
C1148 O1204 1.325 . S
N1149 C1152 1.314 . S
N1149 C1153 1.279 . S
C1150 C1148 1.348 . S
C1150 C1152 1.353 . S
C1150 H1208 0.929 . S
C1151 C1148 1.356 . S
C1151 C1153 1.358 . S
C1151 H1209 0.930 . S
C1152 N1149 1.314 . S
C1152 C1150 1.353 . S
C1152 H1210 0.930 . S
C1153 N1149 1.279 . S
C1153 C1151 1.358 . S
C1153 H1211 0.930 . S
C1154 C1157 1.348 . S
C1154 C1158 1.356 . S
C1154 O1205 1.325 . S
C1155 N1156 1.279 . S
C1155 C1158 1.358 . S
C1155 H1212 0.930 . S
N1156 C1155 1.279 . S
N1156 C1159 1.314 . S
C1157 C1154 1.348 . S
C1157 C1159 1.353 . S
C1157 H1213 0.929 . S
C1158 C1154 1.356 . S
C1158 C1155 1.358 . S
C1158 H1214 0.930 . S
C1159 N1156 1.314 . S
C1159 C1157 1.353 . S
C1159 H1215 0.930 . S
C1160 N1161 1.314 . S
C1160 C1165 1.353 . S
C1160 H1166 0.930 . S
N1161 Li1144 1.990 . S
N1161 C1160 1.314 . S
N1161 C1163 1.279 . S
C1162 C1163 1.358 . S
C1162 C1164 1.356 . S
C1162 H1216 0.930 . S
C1163 N1161 1.279 . S
C1163 C1162 1.358 . S
C1163 H1167 0.930 . S
C1164 C1162 1.356 . S
C1164 C1165 1.348 . S
C1165 C1160 1.353 . S
C1165 C1164 1.348 . S
C1165 H1217 0.929 . S
H1166 C1160 0.930 . S
H1167 C1163 0.930 . S
C1168 N1169 1.314 . S
C1168 C1170 1.353 . S
C1168 H1174 0.930 . S
N1169 Li1145 1.990 . S
N1169 C1168 1.314 . S
N1169 C1172 1.279 . S
C1170 C1168 1.353 . S
C1170 C1173 1.348 . S
C1170 H1218 0.929 . S
C1171 C1172 1.358 . S
C1171 C1173 1.356 . S
C1171 H1219 0.930 . S
C1172 N1169 1.279 . S
C1172 C1171 1.358 . S
C1172 H1175 0.930 . S
C1173 C1170 1.348 . S
C1173 C1171 1.356 . S
H1174 C1168 0.930 . S
H1175 C1172 0.930 . S
C1176 C1178 1.348 . S
C1176 C1179 1.356 . S
C1176 O1206 1.325 . S
N1177 C1180 1.314 . S
N1177 C1181 1.279 . S
C1178 C1176 1.348 . S
C1178 C1180 1.353 . S
C1178 H1220 0.929 . S
C1179 C1176 1.356 . S
C1179 C1181 1.358 . S
C1179 H1221 0.930 . S
C1180 N1177 1.314 . S
C1180 C1178 1.353 . S
C1180 H1222 0.930 . S
C1181 N1177 1.279 . S
C1181 C1179 1.358 . S
C1181 H1223 0.930 . S
C1182 C1183 1.348 . S
C1182 C1184 1.356 . S
C1182 O1207 1.325 . S
C1183 C1182 1.348 . S
C1183 C1185 1.353 . S
C1183 H1224 0.929 . S
C1184 C1182 1.356 . S
C1184 C1186 1.358 . S
C1184 H1225 0.930 . S
C1185 C1183 1.353 . S
C1185 N1187 1.314 . S
C1185 H1226 0.930 . S
C1186 C1184 1.358 . S
C1186 N1187 1.279 . S
C1186 H1227 0.930 . S
N1187 C1185 1.314 . S
N1187 C1186 1.279 . S
C1188 C1190 1.353 . S
C1188 N1191 1.314 . S
C1188 H1194 0.930 . S
C1189 N1191 1.279 . S
C1189 C1192 1.358 . S
C1189 H1195 0.930 . S
C1190 C1188 1.353 . S
C1190 C1193 1.348 . S
C1190 H1228 0.929 . S
N1191 Li1146 1.990 . S
N1191 C1188 1.314 . S
N1191 C1189 1.279 . S
C1192 C1189 1.358 . S
C1192 C1193 1.356 . S
C1192 H1229 0.930 . S
C1193 C1190 1.348 . S
C1193 C1192 1.356 . S
H1194 C1188 0.930 . S
H1195 C1189 0.930 . S
C1196 N1197 1.314 . S
C1196 C1198 1.353 . S
C1196 H1202 0.930 . S
N1197 Li1147 1.990 . S
N1197 C1196 1.314 . S
N1197 C1200 1.279 . S
C1198 C1196 1.353 . S
C1198 C1201 1.348 . S
C1198 H1230 0.929 . S
C1199 C1200 1.358 . S
C1199 C1201 1.356 . S
C1199 H1231 0.930 . S
C1200 N1197 1.279 . S
C1200 C1199 1.358 . S
C1200 H1203 0.930 . S
C1201 C1198 1.348 . S
C1201 C1199 1.356 . S
H1202 C1196 0.930 . S
H1203 C1200 0.930 . S
O1204 Li1144 1.956 . S
O1204 Li1145 1.970 . S
O1204 Li1146 1.961 . S
O1204 C1148 1.325 . S
O1205 Li1144 1.970 . S
O1205 Li1145 1.956 . S
O1205 Li1147 1.961 . S
O1205 C1154 1.325 . S
O1206 Li1144 1.961 . S
O1206 Li1146 1.956 . S
O1206 Li1147 1.970 . S
O1206 C1176 1.325 . S
O1207 Li1145 1.961 . S
O1207 Li1146 1.970 . S
O1207 Li1147 1.956 . S
O1207 C1182 1.325 . S
H1208 C1150 0.929 . S
H1209 C1151 0.930 . S
H1210 C1152 0.930 . S
H1211 C1153 0.930 . S
H1212 C1155 0.930 . S
H1213 C1157 0.929 . S
H1214 C1158 0.930 . S
H1215 C1159 0.930 . S
H1216 C1162 0.930 . S
H1217 C1165 0.929 . S
H1218 C1170 0.929 . S
H1219 C1171 0.930 . S
H1220 C1178 0.929 . S
H1221 C1179 0.930 . S
H1222 C1180 0.930 . S
H1223 C1181 0.930 . S
H1224 C1183 0.929 . S
H1225 C1184 0.930 . S
H1226 C1185 0.930 . S
H1227 C1186 0.930 . S
H1228 C1190 0.929 . S
H1229 C1192 0.930 . S
H1230 C1198 0.929 . S
H1231 C1199 0.930 . S
C1232 C1233 1.369 . S
C1232 C1234 1.419 . S
C1232 H1236 0.930 . S
C1233 C1232 1.369 . S
C1233 C1242 1.429 . S
C1234 C1232 1.419 . S
C1234 C1235 1.363 . S
C1234 H1237 0.929 . S
C1235 C1234 1.363 . S
C1235 C1241 1.428 . S
H1236 C1232 0.930 . S
H1237 C1234 0.929 . S
S1238 N1239 1.613 . S
S1238 N1240 1.610 . S
N1239 S1238 1.613 . S
N1239 C1242 1.350 . S
N1240 S1238 1.610 . S
N1240 C1241 1.351 . S
C1241 C1235 1.428 . S
C1241 N1240 1.351 . S
C1241 C1242 1.434 . S
C1242 C1233 1.429 . S
C1242 N1239 1.350 . S
C1242 C1241 1.434 . S
C1243 C1244 1.369 . S
C1243 C1245 1.419 . S
C1243 H1247 0.930 . S
C1244 C1243 1.369 . S
C1244 C1253 1.429 . S
C1245 C1243 1.419 . S
C1245 C1246 1.363 . S
C1245 H1248 0.929 . S
C1246 C1245 1.363 . S
C1246 C1252 1.428 . S
H1247 C1243 0.930 . S
H1248 C1245 0.929 . S
S1249 N1250 1.613 . S
S1249 N1251 1.610 . S
N1250 S1249 1.613 . S
N1250 C1253 1.350 . S
N1251 S1249 1.610 . S
N1251 C1252 1.351 . S
C1252 C1246 1.428 . S
C1252 N1251 1.351 . S
C1252 C1253 1.434 . S
C1253 C1244 1.429 . S
C1253 N1250 1.350 . S
C1253 C1252 1.434 . S
C1254 C1255 1.369 . S
C1254 C1256 1.419 . S
C1254 H1258 0.930 . S
C1255 C1254 1.369 . S
C1255 C1264 1.429 . S
C1256 C1254 1.419 . S
C1256 C1257 1.363 . S
C1256 H1259 0.929 . S
C1257 C1256 1.363 . S
C1257 C1263 1.428 . S
H1258 C1254 0.930 . S
H1259 C1256 0.929 . S
S1260 N1261 1.613 . S
S1260 N1262 1.610 . S
N1261 S1260 1.613 . S
N1261 C1264 1.350 . S
N1262 S1260 1.610 . S
N1262 C1263 1.351 . S
C1263 C1257 1.428 . S
C1263 N1262 1.351 . S
C1263 C1264 1.434 . S
C1264 C1255 1.429 . S
C1264 N1261 1.350 . S
C1264 C1263 1.434 . S
C1265 C1266 1.369 1_545 S
C1265 C1267 1.419 . S
C1265 H1269 0.930 . S
C1266 C1265 1.369 1_565 S
C1266 C1275 1.433 . S
C1267 C1265 1.419 . S
C1267 C1268 1.363 . S
C1267 H1270 0.929 . S
C1268 C1267 1.363 . S
C1268 C1274 1.428 1_445 S
H1269 C1265 0.930 . S
H1270 C1267 0.929 . S
S1271 N1272 1.613 . S
S1271 N1273 1.610 . S
N1272 S1271 1.613 . S
N1272 C1275 1.347 1_655 S
N1273 S1271 1.610 . S
N1273 C1274 1.351 . S
C1274 C1268 1.428 1_665 S
C1274 N1273 1.351 . S
C1274 C1275 1.432 1_655 S
C1275 C1266 1.433 . S
C1275 N1272 1.347 1_455 S
C1275 C1274 1.432 1_455 S
C1276 C1277 1.369 . S
C1276 C1278 1.419 . S
C1276 H1280 0.930 . S
C1277 C1276 1.369 . S
C1277 C1286 1.429 . S
C1278 C1276 1.419 . S
C1278 C1279 1.363 . S
C1278 H1281 0.929 . S
C1279 C1278 1.363 . S
C1279 C1285 1.428 . S
H1280 C1276 0.930 . S
H1281 C1278 0.929 . S
S1282 N1283 1.613 . S
S1282 N1284 1.610 . S
N1283 S1282 1.613 . S
N1283 C1286 1.350 . S
N1284 S1282 1.610 . S
N1284 C1285 1.351 . S
C1285 C1279 1.428 . S
C1285 N1284 1.351 . S
C1285 C1286 1.434 . S
C1286 C1277 1.429 . S
C1286 N1283 1.350 . S
C1286 C1285 1.434 . S
C1287 C1288 1.369 . S
C1287 C1289 1.419 . S
C1287 H1291 0.930 . S
C1288 C1287 1.369 . S
C1288 C1297 1.429 . S
C1289 C1287 1.419 . S
C1289 C1290 1.363 . S
C1289 H1292 0.929 . S
C1290 C1289 1.363 . S
C1290 C1296 1.428 . S
H1291 C1287 0.930 . S
H1292 C1289 0.929 . S
S1293 N1294 1.613 . S
S1293 N1295 1.610 . S
N1294 S1293 1.613 . S
N1294 C1297 1.350 . S
N1295 S1293 1.610 . S
N1295 C1296 1.351 . S
C1296 C1290 1.428 . S
C1296 N1295 1.351 . S
C1296 C1297 1.434 . S
C1297 C1288 1.429 . S
C1297 N1294 1.350 . S
C1297 C1296 1.434 . S
C1298 C1299 1.369 . S
C1298 C1300 1.419 . S
C1298 H1302 0.930 . S
C1299 C1298 1.369 . S
C1299 C1308 1.429 . S
C1300 C1298 1.419 . S
C1300 C1301 1.363 . S
C1300 H1303 0.929 . S
C1301 C1300 1.363 . S
C1301 C1307 1.428 . S
H1302 C1298 0.930 . S
H1303 C1300 0.929 . S
S1304 N1305 1.613 . S
S1304 N1306 1.610 . S
N1305 S1304 1.613 . S
N1305 C1308 1.350 . S
N1306 S1304 1.610 . S
N1306 C1307 1.351 . S
C1307 C1301 1.428 . S
C1307 N1306 1.351 . S
C1307 C1308 1.434 . S
C1308 C1299 1.429 . S
C1308 N1305 1.350 . S
C1308 C1307 1.434 . S
C1309 C1310 1.369 . S
C1309 C1311 1.419 . S
C1309 H1313 0.930 . S
C1310 C1309 1.369 . S
C1310 C1319 1.429 . S
C1311 C1309 1.419 . S
C1311 C1312 1.363 . S
C1311 H1314 0.929 . S
C1312 C1311 1.363 . S
C1312 C1318 1.428 . S
H1313 C1309 0.930 . S
H1314 C1311 0.929 . S
S1315 N1316 1.613 . S
S1315 N1317 1.610 . S
N1316 S1315 1.613 . S
N1316 C1319 1.350 . S
N1317 S1315 1.610 . S
N1317 C1318 1.351 . S
C1318 C1312 1.428 . S
C1318 N1317 1.351 . S
C1318 C1319 1.434 . S
C1319 C1310 1.429 . S
C1319 N1316 1.350 . S
C1319 C1318 1.434 . S
C1320 C1321 1.369 . S
C1320 C1322 1.419 . S
C1320 H1324 0.930 . S
C1321 C1320 1.369 . S
C1321 C1330 1.429 . S
C1322 C1320 1.419 . S
C1322 C1323 1.363 . S
C1322 H1325 0.929 . S
C1323 C1322 1.363 . S
C1323 C1329 1.428 . S
H1324 C1320 0.930 . S
H1325 C1322 0.929 . S
S1326 N1327 1.613 . S
S1326 N1328 1.610 . S
N1327 S1326 1.613 . S
N1327 C1330 1.350 . S
N1328 S1326 1.610 . S
N1328 C1329 1.351 . S
C1329 C1323 1.428 . S
C1329 N1328 1.351 . S
C1329 C1330 1.434 . S
C1330 C1321 1.429 . S
C1330 N1327 1.350 . S
C1330 C1329 1.434 . S
C1331 C1332 1.369 . S
C1331 C1333 1.419 . S
C1331 H1335 0.930 . S
C1332 C1331 1.369 . S
C1332 C1341 1.429 . S
C1333 C1331 1.419 . S
C1333 C1334 1.363 . S
C1333 H1336 0.929 . S
C1334 C1333 1.363 . S
C1334 C1340 1.428 . S
H1335 C1331 0.930 . S
H1336 C1333 0.929 . S
S1337 N1338 1.613 . S
S1337 N1339 1.610 . S
N1338 S1337 1.613 . S
N1338 C1341 1.350 . S
N1339 S1337 1.610 . S
N1339 C1340 1.351 . S
C1340 C1334 1.428 . S
C1340 N1339 1.351 . S
C1340 C1341 1.434 . S
C1341 C1332 1.429 . S
C1341 N1338 1.350 . S
C1341 C1340 1.434 . S
C1342 C1343 1.369 . S
C1342 C1344 1.419 . S
C1342 H1346 0.930 . S
C1343 C1342 1.369 . S
C1343 C1352 1.429 . S
C1344 C1342 1.419 . S
C1344 C1345 1.363 . S
C1344 H1347 0.929 . S
C1345 C1344 1.363 . S
C1345 C1351 1.428 . S
H1346 C1342 0.930 . S
H1347 C1344 0.929 . S
S1348 N1349 1.613 . S
S1348 N1350 1.610 . S
N1349 S1348 1.613 . S
N1349 C1352 1.350 . S
N1350 S1348 1.610 . S
N1350 C1351 1.351 . S
C1351 C1345 1.428 . S
C1351 N1350 1.351 . S
C1351 C1352 1.434 . S
C1352 C1343 1.429 . S
C1352 N1349 1.350 . S
C1352 C1351 1.434 . S
C1353 C1354 1.369 . S
C1353 C1355 1.419 . S
C1353 H1357 0.930 . S
C1354 C1353 1.369 . S
C1354 C1363 1.429 . S
C1355 C1353 1.419 . S
C1355 C1356 1.363 . S
C1355 H1358 0.929 . S
C1356 C1355 1.363 . S
C1356 C1362 1.428 . S
H1357 C1353 0.930 . S
H1358 C1355 0.929 . S
S1359 N1360 1.613 . S
S1359 N1361 1.610 . S
N1360 S1359 1.613 . S
N1360 C1363 1.350 . S
N1361 S1359 1.610 . S
N1361 C1362 1.351 . S
C1362 C1356 1.428 . S
C1362 N1361 1.351 . S
C1362 C1363 1.434 . S
C1363 C1354 1.429 . S
C1363 N1360 1.350 . S
C1363 C1362 1.434 . S
C1364 C1365 1.369 . S
C1364 C1366 1.419 . S
C1364 H1368 0.930 . S
C1365 C1364 1.369 . S
C1365 C1374 1.429 . S
C1366 C1364 1.419 . S
C1366 C1367 1.363 . S
C1366 H1369 0.929 . S
C1367 C1366 1.363 . S
C1367 C1373 1.428 . S
H1368 C1364 0.930 . S
H1369 C1366 0.929 . S
S1370 N1371 1.613 . S
S1370 N1372 1.610 . S
N1371 S1370 1.613 . S
N1371 C1374 1.350 . S
N1372 S1370 1.610 . S
N1372 C1373 1.351 . S
C1373 C1367 1.428 . S
C1373 N1372 1.351 . S
C1373 C1374 1.434 . S
C1374 C1365 1.429 . S
C1374 N1371 1.350 . S
C1374 C1373 1.434 . S
C1375 C1376 1.369 . S
C1375 C1377 1.419 . S
C1375 H1379 0.930 . S
C1376 C1375 1.369 . S
C1376 C1385 1.429 . S
C1377 C1375 1.419 . S
C1377 C1378 1.363 . S
C1377 H1380 0.929 . S
C1378 C1377 1.363 . S
C1378 C1384 1.428 . S
H1379 C1375 0.930 . S
H1380 C1377 0.929 . S
S1381 N1382 1.613 . S
S1381 N1383 1.610 . S
N1382 S1381 1.613 . S
N1382 C1385 1.350 . S
N1383 S1381 1.610 . S
N1383 C1384 1.351 . S
C1384 C1378 1.428 . S
C1384 N1383 1.351 . S
C1384 C1385 1.434 . S
C1385 C1376 1.429 . S
C1385 N1382 1.350 . S
C1385 C1384 1.434 . S
C1386 C1387 1.369 . S
C1386 C1388 1.419 . S
C1386 H1390 0.930 . S
C1387 C1386 1.369 . S
C1387 C1396 1.429 . S
C1388 C1386 1.419 . S
C1388 C1389 1.363 . S
C1388 H1391 0.929 . S
C1389 C1388 1.363 . S
C1389 C1395 1.428 . S
H1390 C1386 0.930 . S
H1391 C1388 0.929 . S
S1392 N1393 1.613 . S
S1392 N1394 1.610 . S
N1393 S1392 1.613 . S
N1393 C1396 1.350 . S
N1394 S1392 1.610 . S
N1394 C1395 1.351 . S
C1395 C1389 1.428 . S
C1395 N1394 1.351 . S
C1395 C1396 1.434 . S
C1396 C1387 1.429 . S
C1396 N1393 1.350 . S
C1396 C1395 1.434 . S
C1397 C1398 1.369 1_455 S
C1397 C1399 1.419 . S
C1397 H1401 0.930 . S
C1398 C1397 1.369 1_655 S
C1398 C1407 1.429 . S
C1399 C1397 1.419 . S
C1399 C1400 1.363 1_455 S
C1399 H1402 0.929 . S
C1400 C1399 1.363 1_655 S
C1400 C1406 1.428 . S
H1401 C1397 0.930 . S
H1402 C1399 0.929 . S
S1403 N1404 1.613 . S
S1403 N1405 1.610 . S
N1404 S1403 1.613 . S
N1404 C1407 1.350 . S
N1405 S1403 1.610 . S
N1405 C1406 1.351 . S
C1406 C1400 1.428 . S
C1406 N1405 1.351 . S
C1406 C1407 1.434 . S
C1407 C1398 1.429 . S
C1407 N1404 1.350 . S
C1407 C1406 1.434 . S
C1408 C1409 1.369 . S
C1408 C1410 1.419 . S
C1408 H1412 0.930 . S
C1409 C1408 1.369 . S
C1409 C1418 1.429 . S
C1410 C1408 1.419 . S
C1410 C1411 1.363 . S
C1410 H1413 0.929 . S
C1411 C1410 1.363 . S
C1411 C1417 1.428 . S
H1412 C1408 0.930 . S
H1413 C1410 0.929 . S
S1414 N1415 1.613 . S
S1414 N1416 1.610 . S
N1415 S1414 1.613 . S
N1415 C1418 1.350 . S
N1416 S1414 1.610 . S
N1416 C1417 1.351 . S
C1417 C1411 1.428 . S
C1417 N1416 1.351 . S
C1417 C1418 1.434 . S
C1418 C1409 1.429 . S
C1418 N1415 1.350 . S
C1418 C1417 1.434 . S
C1419 C1420 1.369 . S
C1419 C1421 1.419 . S
C1419 H1423 0.930 . S
C1420 C1419 1.369 . S
C1420 C1429 1.429 . S
C1421 C1419 1.419 . S
C1421 C1422 1.363 . S
C1421 H1424 0.929 . S
C1422 C1421 1.363 . S
C1422 C1428 1.428 . S
H1423 C1419 0.930 . S
H1424 C1421 0.929 . S
S1425 N1426 1.613 . S
S1425 N1427 1.610 . S
N1426 S1425 1.613 . S
N1426 C1429 1.350 . S
N1427 S1425 1.610 . S
N1427 C1428 1.351 . S
C1428 C1422 1.428 . S
C1428 N1427 1.351 . S
C1428 C1429 1.434 . S
C1429 C1420 1.429 . S
C1429 N1426 1.350 . S
C1429 C1428 1.434 . S
C1430 C1431 1.369 1_565 S
C1430 C1432 1.419 . S
C1430 H1434 0.930 . S
C1431 C1430 1.369 1_545 S
C1431 C1440 1.429 1_546 S
C1432 C1430 1.419 . S
C1432 C1433 1.363 1_556 S
C1432 H1435 0.929 . S
C1433 C1432 1.363 1_554 S
C1433 C1439 1.428 . S
H1434 C1430 0.930 . S
H1435 C1432 0.929 . S
S1436 N1437 1.613 1_565 S
S1436 N1438 1.610 . S
N1437 S1436 1.613 1_545 S
N1437 C1440 1.350 1_545 S
N1438 S1436 1.610 . S
N1438 C1439 1.351 . S
C1439 C1433 1.428 . S
C1439 N1438 1.351 . S
C1439 C1440 1.434 . S
C1440 C1431 1.429 1_564 S
C1440 N1437 1.350 1_565 S
C1440 C1439 1.434 . S
C1441 C1442 1.369 . S
C1441 C1443 1.419 . S
C1441 H1445 0.930 . S
C1442 C1441 1.369 . S
C1442 C1451 1.429 . S
C1443 C1441 1.419 . S
C1443 C1444 1.363 . S
C1443 H1446 0.929 . S
C1444 C1443 1.363 . S
C1444 C1450 1.428 . S
H1445 C1441 0.930 . S
H1446 C1443 0.929 . S
S1447 N1448 1.613 . S
S1447 N1449 1.610 . S
N1448 S1447 1.613 . S
N1448 C1451 1.350 . S
N1449 S1447 1.610 . S
N1449 C1450 1.351 . S
C1450 C1444 1.428 . S
C1450 N1449 1.351 . S
C1450 C1451 1.434 . S
C1451 C1442 1.429 . S
C1451 N1448 1.350 . S
C1451 C1450 1.434 . S
C1452 C1453 1.369 . S
C1452 C1454 1.419 . S
C1452 H1456 0.930 1_545 S
C1453 C1452 1.369 . S
C1453 C1462 1.429 . S
C1454 C1452 1.419 . S
C1454 C1455 1.363 . S
C1454 H1457 0.929 . S
C1455 C1454 1.363 . S
C1455 C1461 1.428 . S
H1456 C1452 0.930 1_565 S
H1457 C1454 0.929 . S
S1458 N1459 1.613 . S
S1458 N1460 1.610 . S
N1459 S1458 1.613 . S
N1459 C1462 1.350 . S
N1460 S1458 1.610 . S
N1460 C1461 1.351 . S
C1461 C1455 1.428 . S
C1461 N1460 1.351 . S
C1461 C1462 1.434 . S
C1462 C1453 1.429 . S
C1462 N1459 1.350 . S
C1462 C1461 1.434 . S
C1463 C1464 1.369 . S
C1463 C1465 1.419 . S
C1463 H1467 0.930 . S
C1464 C1463 1.369 . S
C1464 C1473 1.429 . S
C1465 C1463 1.419 . S
C1465 C1466 1.363 . S
C1465 H1468 0.929 . S
C1466 C1465 1.363 . S
C1466 C1472 1.428 . S
H1467 C1463 0.930 . S
H1468 C1465 0.929 . S
S1469 N1470 1.613 . S
S1469 N1471 1.610 . S
N1470 S1469 1.613 . S
N1470 C1473 1.350 . S
N1471 S1469 1.610 . S
N1471 C1472 1.351 . S
C1472 C1466 1.428 . S
C1472 N1471 1.351 . S
C1472 C1473 1.434 . S
C1473 C1464 1.429 . S
C1473 N1470 1.350 . S
C1473 C1472 1.434 . S
C1474 C1475 1.369 . S
C1474 C1476 1.419 . S
C1474 H1478 0.930 . S
C1475 C1474 1.369 . S
C1475 C1484 1.429 . S
C1476 C1474 1.419 . S
C1476 C1477 1.363 . S
C1476 H1479 0.929 . S
C1477 C1476 1.363 . S
C1477 C1483 1.428 . S
H1478 C1474 0.930 . S
H1479 C1476 0.929 . S
S1480 N1481 1.613 . S
S1480 N1482 1.610 . S
N1481 S1480 1.613 . S
N1481 C1484 1.350 . S
N1482 S1480 1.610 . S
N1482 C1483 1.351 . S
C1483 C1477 1.428 . S
C1483 N1482 1.351 . S
C1483 C1484 1.434 . S
C1484 C1475 1.429 . S
C1484 N1481 1.350 . S
C1484 C1483 1.434 . S
C1485 C1486 1.369 . S
C1485 C1487 1.419 . S
C1485 H1489 0.930 . S
C1486 C1485 1.369 . S
C1486 C1495 1.429 . S
C1487 C1485 1.419 . S
C1487 C1488 1.363 . S
C1487 H1490 0.929 . S
C1488 C1487 1.363 . S
C1488 C1494 1.428 . S
H1489 C1485 0.930 . S
H1490 C1487 0.929 . S
S1491 N1492 1.613 . S
S1491 N1493 1.610 . S
N1492 S1491 1.613 . S
N1492 C1495 1.350 . S
N1493 S1491 1.610 . S
N1493 C1494 1.351 . S
C1494 C1488 1.428 . S
C1494 N1493 1.351 . S
C1494 C1495 1.434 . S
C1495 C1486 1.429 . S
C1495 N1492 1.350 . S
C1495 C1494 1.434 . S
C1496 C1497 1.369 . S
C1496 C1498 1.419 . S
C1496 H1500 0.930 . S
C1497 C1496 1.369 . S
C1497 C1506 1.429 . S
C1498 C1496 1.419 . S
C1498 C1499 1.363 . S
C1498 H1501 0.929 . S
C1499 C1498 1.363 . S
C1499 C1505 1.428 . S
H1500 C1496 0.930 . S
H1501 C1498 0.929 . S
S1502 N1503 1.613 . S
S1502 N1504 1.610 . S
N1503 S1502 1.613 . S
N1503 C1506 1.350 . S
N1504 S1502 1.610 . S
N1504 C1505 1.351 . S
C1505 C1499 1.428 . S
C1505 N1504 1.351 . S
C1505 C1506 1.434 . S
C1506 C1497 1.429 . S
C1506 N1503 1.350 . S
C1506 C1505 1.434 . S
C1507 C1508 1.369 . S
C1507 C1509 1.419 . S
C1507 H1511 0.930 . S
C1508 C1507 1.369 . S
C1508 C1517 1.424 1_545 S
C1509 C1507 1.419 . S
C1509 C1510 1.363 . S
C1509 H1512 0.929 . S
C1510 C1509 1.363 . S
C1510 C1516 1.428 1_545 S
H1511 C1507 0.930 . S
H1512 C1509 0.929 . S
S1513 N1514 1.613 . S
S1513 N1515 1.610 . S
N1514 S1513 1.613 . S
N1514 C1517 1.355 . S
N1515 S1513 1.610 . S
N1515 C1516 1.351 . S
C1516 C1510 1.428 1_565 S
C1516 N1515 1.351 . S
C1516 C1517 1.434 . S
C1517 C1508 1.424 1_565 S
C1517 N1514 1.355 . S
C1517 C1516 1.434 . S
C1518 C1519 1.369 . S
C1518 C1520 1.419 . S
C1518 H1522 0.930 . S
C1519 C1518 1.369 . S
C1519 C1528 1.429 . S
C1520 C1518 1.419 . S
C1520 C1521 1.363 . S
C1520 H1523 0.929 . S
C1521 C1520 1.363 . S
C1521 C1527 1.428 . S
H1522 C1518 0.930 . S
H1523 C1520 0.929 . S
S1524 N1525 1.613 . S
S1524 N1526 1.610 . S
N1525 S1524 1.613 . S
N1525 C1528 1.350 . S
N1526 S1524 1.610 . S
N1526 C1527 1.351 . S
C1527 C1521 1.428 . S
C1527 N1526 1.351 . S
C1527 C1528 1.434 . S
C1528 C1519 1.429 . S
C1528 N1525 1.350 . S
C1528 C1527 1.434 . S
C1529 C1530 1.369 . S
C1529 C1531 1.419 . S
C1529 H1533 0.930 . S
C1530 C1529 1.369 . S
C1530 C1539 1.429 . S
C1531 C1529 1.419 . S
C1531 C1532 1.363 . S
C1531 H1534 0.929 . S
C1532 C1531 1.363 . S
C1532 C1538 1.428 . S
H1533 C1529 0.930 . S
H1534 C1531 0.929 . S
S1535 N1536 1.613 . S
S1535 N1537 1.610 . S
N1536 S1535 1.613 . S
N1536 C1539 1.350 . S
N1537 S1535 1.610 . S
N1537 C1538 1.351 . S
C1538 C1532 1.428 . S
C1538 N1537 1.351 . S
C1538 C1539 1.434 . S
C1539 C1530 1.429 . S
C1539 N1536 1.350 . S
C1539 C1538 1.434 . S
C1540 C1541 1.369 . S
C1540 C1542 1.419 . S
C1540 H1544 0.930 . S
C1541 C1540 1.369 . S
C1541 C1550 1.429 . S
C1542 C1540 1.419 . S
C1542 C1543 1.363 . S
C1542 H1545 0.929 . S
C1543 C1542 1.363 . S
C1543 C1549 1.428 . S
H1544 C1540 0.930 . S
H1545 C1542 0.929 . S
S1546 N1547 1.613 . S
S1546 N1548 1.610 . S
N1547 S1546 1.613 . S
N1547 C1550 1.350 . S
N1548 S1546 1.610 . S
N1548 C1549 1.351 . S
C1549 C1543 1.428 . S
C1549 N1548 1.351 . S
C1549 C1550 1.434 . S
C1550 C1541 1.429 . S
C1550 N1547 1.350 . S
C1550 C1549 1.434 . S
C1551 C1552 1.369 . S
C1551 C1553 1.419 1_455 S
C1551 H1555 0.930 1_455 S
C1552 C1551 1.369 . S
C1552 C1561 1.429 . S
C1553 C1551 1.419 1_655 S
C1553 C1554 1.363 1_655 S
C1553 H1556 0.929 . S
C1554 C1553 1.363 1_455 S
C1554 C1560 1.428 . S
H1555 C1551 0.930 1_655 S
H1556 C1553 0.929 . S
S1557 N1558 1.613 . S
S1557 N1559 1.610 . S
N1558 S1557 1.613 . S
N1558 C1561 1.350 . S
N1559 S1557 1.610 . S
N1559 C1560 1.351 . S
C1560 C1554 1.428 . S
C1560 N1559 1.351 . S
C1560 C1561 1.434 . S
C1561 C1552 1.429 . S
C1561 N1558 1.350 . S
C1561 C1560 1.434 . S
C1562 C1563 1.369 . S
C1562 C1564 1.419 . S
C1562 H1566 0.930 . S
C1563 C1562 1.369 . S
C1563 C1572 1.429 . S
C1564 C1562 1.419 . S
C1564 C1565 1.363 . S
C1564 H1567 0.929 . S
C1565 C1564 1.363 . S
C1565 C1571 1.428 . S
H1566 C1562 0.930 . S
H1567 C1564 0.929 . S
S1568 N1569 1.613 . S
S1568 N1570 1.610 . S
N1569 S1568 1.613 . S
N1569 C1572 1.350 . S
N1570 S1568 1.610 . S
N1570 C1571 1.351 . S
C1571 C1565 1.428 . S
C1571 N1570 1.351 . S
C1571 C1572 1.434 . S
C1572 C1563 1.429 . S
C1572 N1569 1.350 . S
C1572 C1571 1.434 . S
C1573 C1574 1.369 . S
C1573 C1575 1.419 . S
C1573 H1577 0.930 . S
C1574 C1573 1.369 . S
C1574 C1583 1.429 . S
C1575 C1573 1.419 . S
C1575 C1576 1.363 . S
C1575 H1578 0.929 . S
C1576 C1575 1.363 . S
C1576 C1582 1.428 . S
H1577 C1573 0.930 . S
H1578 C1575 0.929 . S
S1579 N1580 1.613 . S
S1579 N1581 1.610 1_655 S
N1580 S1579 1.613 . S
N1580 C1583 1.350 1_655 S
N1581 S1579 1.610 1_455 S
N1581 C1582 1.351 . S
C1582 C1576 1.428 . S
C1582 N1581 1.351 . S
C1582 C1583 1.434 . S
C1583 C1574 1.429 . S
C1583 N1580 1.350 1_455 S
C1583 C1582 1.434 . S
C1584 C1585 1.369 . S
C1584 C1586 1.419 . S
C1584 H1588 0.930 . S
C1585 C1584 1.369 . S
C1585 C1594 1.429 . S
C1586 C1584 1.419 . S
C1586 C1587 1.363 . S
C1586 H1589 0.929 . S
C1587 C1586 1.363 . S
C1587 C1593 1.428 . S
H1588 C1584 0.930 . S
H1589 C1586 0.929 . S
S1590 N1591 1.613 . S
S1590 N1592 1.610 . S
N1591 S1590 1.613 . S
N1591 C1594 1.350 . S
N1592 S1590 1.610 . S
N1592 C1593 1.351 . S
C1593 C1587 1.428 . S
C1593 N1592 1.351 . S
C1593 C1594 1.434 . S
C1594 C1585 1.429 . S
C1594 N1591 1.350 . S
C1594 C1593 1.434 . S
C1595 C1596 1.369 . S
C1595 C1597 1.419 . S
C1595 H1599 0.936 . S
C1596 C1595 1.369 . S
C1596 C1605 1.429 1_554 S
C1597 C1595 1.419 . S
C1597 C1598 1.363 1_554 S
C1597 H1600 0.929 . S
C1598 C1597 1.363 1_556 S
C1598 C1604 1.428 . S
H1599 C1595 0.936 . S
H1600 C1597 0.929 . S
S1601 N1602 1.613 . S
S1601 N1603 1.610 . S
N1602 S1601 1.613 . S
N1602 C1605 1.350 . S
N1603 S1601 1.610 . S
N1603 C1604 1.351 . S
C1604 C1598 1.428 . S
C1604 N1603 1.351 . S
C1604 C1605 1.434 . S
C1605 C1596 1.429 1_556 S
C1605 N1602 1.350 . S
C1605 C1604 1.434 . S
C1606 C1607 1.369 . S
C1606 C1608 1.419 . S
C1606 H1610 0.930 . S
C1607 C1606 1.369 . S
C1607 C1616 1.429 . S
C1608 C1606 1.419 . S
C1608 C1609 1.363 . S
C1608 H1611 0.929 . S
C1609 C1608 1.363 . S
C1609 C1615 1.428 . S
H1610 C1606 0.930 . S
H1611 C1608 0.929 . S
S1612 N1613 1.613 . S
S1612 N1614 1.610 . S
N1613 S1612 1.613 . S
N1613 C1616 1.350 . S
N1614 S1612 1.610 . S
N1614 C1615 1.351 . S
C1615 C1609 1.428 . S
C1615 N1614 1.351 . S
C1615 C1616 1.434 . S
C1616 C1607 1.429 . S
C1616 N1613 1.350 . S
C1616 C1615 1.434 . S
C1617 C1618 1.369 1_556 S
C1617 C1619 1.419 . S
C1617 H1621 0.930 . S
C1618 C1617 1.369 1_554 S
C1618 C1627 1.429 . S
C1619 C1617 1.419 . S
C1619 C1620 1.363 . S
C1619 H1622 0.929 . S
C1620 C1619 1.363 . S
C1620 C1626 1.428 . S
H1621 C1617 0.930 . S
H1622 C1619 0.929 . S
S1623 N1624 1.613 . S
S1623 N1625 1.610 . S
N1624 S1623 1.613 . S
N1624 C1627 1.350 . S
N1625 S1623 1.610 . S
N1625 C1626 1.351 1_554 S
C1626 C1620 1.428 . S
C1626 N1625 1.351 1_556 S
C1626 C1627 1.434 1_556 S
C1627 C1618 1.429 . S
C1627 N1624 1.350 . S
C1627 C1626 1.434 1_554 S
C1628 C1629 1.369 . S
C1628 C1630 1.419 . S
C1628 H1632 0.930 . S
C1629 C1628 1.369 . S
C1629 C1638 1.429 . S
C1630 C1628 1.419 . S
C1630 C1631 1.363 . S
C1630 H1633 0.929 . S
C1631 C1630 1.363 . S
C1631 C1637 1.428 . S
H1632 C1628 0.930 . S
H1633 C1630 0.929 . S
S1634 N1635 1.613 . S
S1634 N1636 1.610 . S
N1635 S1634 1.613 . S
N1635 C1638 1.350 . S
N1636 S1634 1.610 . S
N1636 C1637 1.351 . S
C1637 C1631 1.428 . S
C1637 N1636 1.351 . S
C1637 C1638 1.434 . S
C1638 C1629 1.429 . S
C1638 N1635 1.350 . S
C1638 C1637 1.434 . S
C1639 C1640 1.369 . S
C1639 C1641 1.419 . S
C1639 H1643 0.930 . S
C1640 C1639 1.369 . S
C1640 C1649 1.429 . S
C1641 C1639 1.419 . S
C1641 C1642 1.363 . S
C1641 H1644 0.929 . S
C1642 C1641 1.363 . S
C1642 C1648 1.428 . S
H1643 C1639 0.930 . S
H1644 C1641 0.929 . S
S1645 N1646 1.613 . S
S1645 N1647 1.610 . S
N1646 S1645 1.613 . S
N1646 C1649 1.350 . S
N1647 S1645 1.610 . S
N1647 C1648 1.351 . S
C1648 C1642 1.428 . S
C1648 N1647 1.351 . S
C1648 C1649 1.434 . S
C1649 C1640 1.429 . S
C1649 N1646 1.350 . S
C1649 C1648 1.434 . S
C1650 C1651 1.369 . S
C1650 C1652 1.419 . S
C1650 H1654 0.930 . S
C1651 C1650 1.369 . S
C1651 C1660 1.429 . S
C1652 C1650 1.419 . S
C1652 C1653 1.363 . S
C1652 H1655 0.929 . S
C1653 C1652 1.363 . S
C1653 C1659 1.428 . S
H1654 C1650 0.930 . S
H1655 C1652 0.929 . S
S1656 N1657 1.613 . S
S1656 N1658 1.610 . S
N1657 S1656 1.613 . S
N1657 C1660 1.350 . S
N1658 S1656 1.610 . S
N1658 C1659 1.351 . S
C1659 C1653 1.428 . S
C1659 N1658 1.351 . S
C1659 C1660 1.434 . S
C1660 C1651 1.429 . S
C1660 N1657 1.350 . S
C1660 C1659 1.434 . S
C1661 C1662 1.369 . S
C1661 C1663 1.419 . S
C1661 H1665 0.930 . S
C1662 C1661 1.369 . S
C1662 C1671 1.429 . S
C1663 C1661 1.419 . S
C1663 C1664 1.363 . S
C1663 H1666 0.929 . S
C1664 C1663 1.363 . S
C1664 C1670 1.428 . S
H1665 C1661 0.930 . S
H1666 C1663 0.929 . S
S1667 N1668 1.613 . S
S1667 N1669 1.610 . S
N1668 S1667 1.613 . S
N1668 C1671 1.350 . S
N1669 S1667 1.610 . S
N1669 C1670 1.351 . S
C1670 C1664 1.428 . S
C1670 N1669 1.351 . S
C1670 C1671 1.434 . S
C1671 C1662 1.429 . S
C1671 N1668 1.350 . S
C1671 C1670 1.434 . S
C1672 C1673 1.369 . S
C1672 C1674 1.419 . S
C1672 H1676 0.930 . S
C1673 C1672 1.369 . S
C1673 C1682 1.429 . S
C1674 C1672 1.419 . S
C1674 C1675 1.363 . S
C1674 H1677 0.929 . S
C1675 C1674 1.363 . S
C1675 C1681 1.428 . S
H1676 C1672 0.930 . S
H1677 C1674 0.929 . S
S1678 N1679 1.613 . S
S1678 N1680 1.610 . S
N1679 S1678 1.613 . S
N1679 C1682 1.350 . S
N1680 S1678 1.610 . S
N1680 C1681 1.351 . S
C1681 C1675 1.428 . S
C1681 N1680 1.351 . S
C1681 C1682 1.434 . S
C1682 C1673 1.429 . S
C1682 N1679 1.350 . S
C1682 C1681 1.434 . S
C1683 C1684 1.369 . S
C1683 C1685 1.419 . S
C1683 H1687 0.930 . S
C1684 C1683 1.369 . S
C1684 C1693 1.429 . S
C1685 C1683 1.419 . S
C1685 C1686 1.363 . S
C1685 H1688 0.929 . S
C1686 C1685 1.363 . S
C1686 C1692 1.428 . S
H1687 C1683 0.930 . S
H1688 C1685 0.929 . S
S1689 N1690 1.613 . S
S1689 N1691 1.610 . S
N1690 S1689 1.613 . S
N1690 C1693 1.350 . S
N1691 S1689 1.610 . S
N1691 C1692 1.351 . S
C1692 C1686 1.428 . S
C1692 N1691 1.351 . S
C1692 C1693 1.434 . S
C1693 C1684 1.429 . S
C1693 N1690 1.350 . S
C1693 C1692 1.434 . S
C1694 C1695 1.369 . S
C1694 C1696 1.419 . S
C1694 H1698 0.930 . S
C1695 C1694 1.369 . S
C1695 C1704 1.429 . S
C1696 C1694 1.419 . S
C1696 C1697 1.363 . S
C1696 H1699 0.929 . S
C1697 C1696 1.363 . S
C1697 C1703 1.428 . S
H1698 C1694 0.930 . S
H1699 C1696 0.929 . S
S1700 N1701 1.613 . S
S1700 N1702 1.610 . S
N1701 S1700 1.613 . S
N1701 C1704 1.350 . S
N1702 S1700 1.610 . S
N1702 C1703 1.351 . S
C1703 C1697 1.428 . S
C1703 N1702 1.351 . S
C1703 C1704 1.434 . S
C1704 C1695 1.429 . S
C1704 N1701 1.350 . S
C1704 C1703 1.434 . S
C1705 C1706 1.369 . S
C1705 C1707 1.419 . S
C1705 H1709 0.930 . S
C1706 C1705 1.369 . S
C1706 C1715 1.429 . S
C1707 C1705 1.419 . S
C1707 C1708 1.363 . S
C1707 H1710 0.929 . S
C1708 C1707 1.363 . S
C1708 C1714 1.428 . S
H1709 C1705 0.930 . S
H1710 C1707 0.929 . S
S1711 N1712 1.613 . S
S1711 N1713 1.610 . S
N1712 S1711 1.613 . S
N1712 C1715 1.350 . S
N1713 S1711 1.610 . S
N1713 C1714 1.351 . S
C1714 C1708 1.428 . S
C1714 N1713 1.351 . S
C1714 C1715 1.434 . S
C1715 C1706 1.429 . S
C1715 N1712 1.350 . S
C1715 C1714 1.434 . S
C1716 C1717 1.369 . S
C1716 C1718 1.419 . S
C1716 H1720 0.930 . S
C1717 C1716 1.369 . S
C1717 C1726 1.430 1_556 S
C1718 C1716 1.419 . S
C1718 C1719 1.363 . S
C1718 H1721 0.929 . S
C1719 C1718 1.363 . S
C1719 C1725 1.428 . S
H1720 C1716 0.930 . S
H1721 C1718 0.929 . S
S1722 N1723 1.613 . S
S1722 N1724 1.609 1_554 S
N1723 S1722 1.613 . S
N1723 C1726 1.353 . S
N1724 S1722 1.609 1_556 S
N1724 C1725 1.351 . S
C1725 C1719 1.428 . S
C1725 N1724 1.351 . S
C1725 C1726 1.429 1_556 S
C1726 C1717 1.430 1_554 S
C1726 N1723 1.353 . S
C1726 C1725 1.429 1_554 S
C1727 C1728 1.369 . S
C1727 C1729 1.419 . S
C1727 H1731 0.930 . S
C1728 C1727 1.369 . S
C1728 C1737 1.429 . S
C1729 C1727 1.419 . S
C1729 C1730 1.363 . S
C1729 H1732 0.929 . S
C1730 C1729 1.363 . S
C1730 C1736 1.428 . S
H1731 C1727 0.930 . S
H1732 C1729 0.929 . S
S1733 N1734 1.613 . S
S1733 N1735 1.610 . S
N1734 S1733 1.613 . S
N1734 C1737 1.350 . S
N1735 S1733 1.610 . S
N1735 C1736 1.351 . S
C1736 C1730 1.428 . S
C1736 N1735 1.351 . S
C1736 C1737 1.434 . S
C1737 C1728 1.429 . S
C1737 N1734 1.350 . S
C1737 C1736 1.434 . S
C1738 C1739 1.369 . S
C1738 C1740 1.419 . S
C1738 H1742 0.930 . S
C1739 C1738 1.369 . S
C1739 C1748 1.430 . S
C1740 C1738 1.419 . S
C1740 C1741 1.363 . S
C1740 H1743 0.929 . S
C1741 C1740 1.363 . S
C1741 C1747 1.428 1_554 S
H1742 C1738 0.930 . S
H1743 C1740 0.929 . S
S1744 N1745 1.613 . S
S1744 N1746 1.610 . S
N1745 S1744 1.613 . S
N1745 C1748 1.349 1_556 S
N1746 S1744 1.610 . S
N1746 C1747 1.351 . S
C1747 C1741 1.428 1_556 S
C1747 N1746 1.351 . S
C1747 C1748 1.433 1_556 S
C1748 C1739 1.430 . S
C1748 N1745 1.349 1_554 S
C1748 C1747 1.433 1_554 S
C1749 C1750 1.369 . S
C1749 C1751 1.419 1_545 S
C1749 H1753 0.930 . S
C1750 C1749 1.369 . S
C1750 C1759 1.429 1_545 S
C1751 C1749 1.419 1_565 S
C1751 C1752 1.363 . S
C1751 H1754 0.929 . S
C1752 C1751 1.363 . S
C1752 C1758 1.428 . S
H1753 C1749 0.930 . S
H1754 C1751 0.929 . S
S1755 N1756 1.613 . S
S1755 N1757 1.610 . S
N1756 S1755 1.613 . S
N1756 C1759 1.350 . S
N1757 S1755 1.610 . S
N1757 C1758 1.351 . S
C1758 C1752 1.428 . S
C1758 N1757 1.351 . S
C1758 C1759 1.434 . S
C1759 C1750 1.429 1_565 S
C1759 N1756 1.350 . S
C1759 C1758 1.434 . S
C1235 C225 1.587 . S
C1233 C60 1.596 . S
C1246 C284 1.343 . S
C1244 C76 1.339 . S
C1255 C81 1.702 . S
C1257 C401 1.699 . S
C1268 C469 1.613 1_455 S
C1266 C48 1.630 . S
C1279 C548 1.541 . S
C1277 C115 1.537 . S
C1290 C673 1.594 . S
C1288 C136 1.599 . S
C1299 C131 1.383 . S
C1301 C733 1.378 . S
C1312 C841 1.586 . S
C1310 C104 1.566 . S
C1321 C126 1.570 . S
C1323 C937 1.580 . S
C1334 C997 1.457 . S
C1332 C103 1.458 . S
C1343 C120 1.433 . S
C1345 C900 1.436 . S
C1356 C1017 1.439 . S
C1354 C142 1.445 . S
C1365 C82 1.492 . S
C1367 C1085 1.499 . S
C1376 C54 1.796 . S
C1378 C1076 1.801 . S
C1387 C65 1.421 . S
C1389 C1105 1.430 . S
C1398 C71 1.304 . S
C1400 C1113 1.318 . S
C1409 C37 1.591 . S
C1411 C497 1.590 . S
C1420 C158 1.962 . S
C1422 C460 1.956 . S
C1433 C196 1.415 . S
C1431 C169 1.419 . S
C1444 C293 1.304 . S
C1442 C98 1.295 . S
C1453 C49 1.727 1_545 S
C1455 C557 1.753 . S
C1466 C849 1.449 . S
C1464 C125 1.446 . S
C1477 C577 1.422 . S
C1475 C109 1.433 . S
C1488 C761 1.793 . S
C1486 C137 1.786 . S
C1499 C753 1.586 . S
C1497 C159 1.595 . S
C1508 C175 1.339 . S
C1510 C821 1.343 . S
C1519 C92 1.703 . S
C1521 C585 1.698 . S
C1532 C636 1.613 . S
C1530 C147 1.629 . S
C1541 C38 1.537 . S
C1543 C381 1.540 . S
C1554 C489 1.594 1_455 S
C1552 C4 1.599 . S
C1565 C205 1.378 . S
C1563 C21 1.383 . S
C1576 C321 1.585 . S
C1574 C27 1.569 . S
C1585 C16 1.577 . S
C1587 C1025 1.575 . S
C1596 C26 1.462 . S
C1598 C909 1.454 . S
C1607 C43 1.434 . S
C1609 C988 1.436 . S
C1618 C10 1.445 . S
C1620 C929 1.438 . S
C1631 C1173 1.500 . S
C1629 C93 1.491 . S
C1642 C1164 1.801 . S
C1640 C153 1.797 . S
C1653 C1193 1.429 . S
C1651 C164 1.423 . S
C1662 C170 1.301 1_554 S
C1664 C1201 1.318 . S
C1673 C114 1.591 . S
C1675 C665 1.589 . S
C1686 C645 1.954 . S
C1684 C59 1.965 . S
C1697 C724 1.413 . S
C1695 C70 1.421 . S
C1708 C812 1.306 . S
C1706 C87 1.289 . S
C1717 C148 1.728 . S
C1719 C372 1.752 . S
C1730 C313 1.449 . S
C1728 C15 1.446 . S
C1739 C32 1.434 . S
C1741 C409 1.425 . S
C1752 C233 1.794 . S
C1750 C5 1.783 . S
