# Generated by pormake.
# Topology pto, (3,4)-cn, num edge types: 1
# Building blocks:
#     Node 0, Type 0, BuildingBlock: OLANEW_clean_sbu_2, # of connection points: 3
#     Node 1, Type 0, BuildingBlock: OLANEW_clean_sbu_2, # of connection points: 3
#     Node 2, Type 0, BuildingBlock: OLANEW_clean_sbu_2, # of connection points: 3
#     Node 3, Type 0, BuildingBlock: OLANEW_clean_sbu_2, # of connection points: 3
#     Node 4, Type 0, BuildingBlock: OLANEW_clean_sbu_2, # of connection points: 3
#     Node 5, Type 0, BuildingBlock: OLANEW_clean_sbu_2, # of connection points: 3
#     Node 6, Type 0, BuildingBlock: OLANEW_clean_sbu_2, # of connection points: 3
#     Node 7, Type 0, BuildingBlock: OLANEW_clean_sbu_2, # of connection points: 3
#     Node 8, Type 1, BuildingBlock: NAHDIM_clean_linker_0, # of connection points: 4
#     Node 9, Type 1, BuildingBlock: NAHDIM_clean_linker_0, # of connection points: 4
#     Node 10, Type 1, BuildingBlock: NAHDIM_clean_linker_0, # of connection points: 4
#     Node 11, Type 1, BuildingBlock: NAHDIM_clean_linker_0, # of connection points: 4
#     Node 12, Type 1, BuildingBlock: NAHDIM_clean_linker_0, # of connection points: 4
#     Node 13, Type 1, BuildingBlock: NAHDIM_clean_linker_0, # of connection points: 4
#     Edge 14, Type (0, 1), BuildingBlock: EZIPEK_clean_linker_0, # of connection points: 2
#     Edge 15, Type (0, 1), BuildingBlock: EZIPEK_clean_linker_0, # of connection points: 2
#     Edge 16, Type (0, 1), BuildingBlock: EZIPEK_clean_linker_0, # of connection points: 2
#     Edge 17, Type (0, 1), BuildingBlock: EZIPEK_clean_linker_0, # of connection points: 2
#     Edge 18, Type (0, 1), BuildingBlock: EZIPEK_clean_linker_0, # of connection points: 2
#     Edge 19, Type (0, 1), BuildingBlock: EZIPEK_clean_linker_0, # of connection points: 2
#     Edge 20, Type (0, 1), BuildingBlock: EZIPEK_clean_linker_0, # of connection points: 2
#     Edge 21, Type (0, 1), BuildingBlock: EZIPEK_clean_linker_0, # of connection points: 2
#     Edge 22, Type (0, 1), BuildingBlock: EZIPEK_clean_linker_0, # of connection points: 2
#     Edge 23, Type (0, 1), BuildingBlock: EZIPEK_clean_linker_0, # of connection points: 2
#     Edge 24, Type (0, 1), BuildingBlock: EZIPEK_clean_linker_0, # of connection points: 2
#     Edge 25, Type (0, 1), BuildingBlock: EZIPEK_clean_linker_0, # of connection points: 2
#     Edge 26, Type (0, 1), BuildingBlock: EZIPEK_clean_linker_0, # of connection points: 2
#     Edge 27, Type (0, 1), BuildingBlock: EZIPEK_clean_linker_0, # of connection points: 2
#     Edge 28, Type (0, 1), BuildingBlock: EZIPEK_clean_linker_0, # of connection points: 2
#     Edge 29, Type (0, 1), BuildingBlock: EZIPEK_clean_linker_0, # of connection points: 2
#     Edge 30, Type (0, 1), BuildingBlock: EZIPEK_clean_linker_0, # of connection points: 2
#     Edge 31, Type (0, 1), BuildingBlock: EZIPEK_clean_linker_0, # of connection points: 2
#     Edge 32, Type (0, 1), BuildingBlock: EZIPEK_clean_linker_0, # of connection points: 2
#     Edge 33, Type (0, 1), BuildingBlock: EZIPEK_clean_linker_0, # of connection points: 2
#     Edge 34, Type (0, 1), BuildingBlock: EZIPEK_clean_linker_0, # of connection points: 2
#     Edge 35, Type (0, 1), BuildingBlock: EZIPEK_clean_linker_0, # of connection points: 2
#     Edge 36, Type (0, 1), BuildingBlock: EZIPEK_clean_linker_0, # of connection points: 2
#     Edge 37, Type (0, 1), BuildingBlock: EZIPEK_clean_linker_0, # of connection points: 2
# Relax obj value: 0.013
# Max RMSD: 0.131
# Mean RMSD: 0.068
data_MOF--net-pto--node1-OLANEW_clean_sbu_2--node2-NAHDIM_clean_linker_0--edge1-EZIPEK_clean_linker_0
_symmetry_space_group_name_H-M    P1
_symmetry_Int_Tables_number       1
_symmetry_cell_setting            triclinic
loop_
_symmetry_equiv_pos_as_xyz
'x, y, z'
_cell_length_a     49.790623
_cell_length_b     49.263844
_cell_length_c     46.149429
_cell_angle_alpha  92.326545
_cell_angle_beta   91.188448
_cell_angle_gamma 103.04398
loop_
_atom_site_label
_atom_site_type_symbol
_atom_site_fract_x
_atom_site_fract_y
_atom_site_fract_z
_atom_type_partial_charge
O0 O 0.33174 0.38687 0.24939 0.0
Cd1 Cd 0.29157 0.36224 0.27453 0.0
O2 O 0.33952 0.42382 0.27947 0.0
Cd3 Cd 0.29741 0.41131 0.29404 0.0
O4 O 0.25449 0.40557 0.27952 0.0
C5 C 0.25105 0.42086 0.25893 0.0
O6 O 0.2725 0.43868 0.24965 0.0
C7 C 0.34704 0.41 0.25856 0.0
C8 C 0.31199 0.32918 0.31274 0.0
O9 O 0.30308 0.31961 0.28725 0.0
O10 O 0.31027 0.35395 0.32063 0.0
O11 O 0.28503 0.84175 0.78778 0.0
Cd12 Cd 0.25183 0.84733 0.75031 0.0
O13 O 0.30513 0.81514 0.76001 0.0
Cd14 Cd 0.26913 0.80703 0.7308 0.0
O15 O 0.22508 0.79364 0.73772 0.0
C16 C 0.21894 0.77677 0.75793 0.0
O17 O 0.23865 0.76767 0.77104 0.0
C18 C 0.30437 0.82915 0.78361 0.0
C19 C 0.27376 0.89464 0.7205 0.0
O20 O 0.25845 0.8959 0.74225 0.0
O21 O 0.27841 0.871 0.71237 0.0
O22 O 0.7853 0.77291 0.28126 0.0
Cd23 Cd 0.76772 0.74043 0.24003 0.0
O24 O 0.74448 0.77601 0.29679 0.0
Cd25 Cd 0.72364 0.75361 0.25809 0.0
O26 O 0.70989 0.76118 0.21478 0.0
C27 C 0.68883 0.77152 0.21242 0.0
O28 O 0.67487 0.77501 0.23559 0.0
C29 C 0.77062 0.78229 0.29972 0.0
C30 C 0.80447 0.70702 0.22674 0.0
O31 O 0.80585 0.73001 0.2142 0.0
O32 O 0.78577 0.6997 0.24534 0.0
O33 O 0.76941 0.3411 0.67249 0.0
Cd34 Cd 0.7291 0.30443 0.65742 0.0
O35 O 0.75601 0.33097 0.71627 0.0
Cd36 Cd 0.75463 0.3365 0.76336 0.0
O37 O 0.73156 0.34536 0.80082 0.0
C38 C 0.74165 0.36269 0.8215 0.0
O39 O 0.76783 0.37551 0.8217 0.0
C40 C 0.77236 0.34626 0.69967 0.0
C41 C 0.73869 0.25175 0.64523 0.0
O42 O 0.73848 0.26884 0.62505 0.0
O43 O 0.73547 0.25992 0.67139 0.0
O44 O 0.74241 0.77019 0.70548 0.0
Cd45 Cd 0.74005 0.73881 0.7455 0.0
O46 O 0.78017 0.79873 0.72378 0.0
Cd47 Cd 0.77245 0.78154 0.76624 0.0
O48 O 0.74346 0.77845 0.80125 0.0
C49 C 0.71997 0.78223 0.79358 0.0
O50 O 0.71503 0.78649 0.76627 0.0
C51 C 0.76245 0.79111 0.7031 0.0
C52 C 0.7784 0.70655 0.73566 0.0
O53 O 0.753 0.69709 0.72818 0.0
O54 O 0.78553 0.73073 0.74844 0.0
O55 O 0.79734 0.25848 0.20368 0.0
Cd56 Cd 0.75602 0.22122 0.20753 0.0
O57 O 0.78131 0.27884 0.16744 0.0
Cd58 Cd 0.73841 0.25592 0.1664 0.0
O59 O 0.70475 0.27756 0.16328 0.0
C60 C 0.71337 0.30376 0.16781 0.0
O61 O 0.73978 0.31392 0.17346 0.0
C62 C 0.80074 0.27714 0.18503 0.0
C63 C 0.76151 0.19035 0.25576 0.0
O64 O 0.76975 0.18365 0.23091 0.0
O65 O 0.75047 0.21143 0.25785 0.0
O66 O 0.28997 0.37561 0.81679 0.0
Cd67 Cd 0.24649 0.3672 0.78846 0.0
O68 O 0.31376 0.40871 0.79079 0.0
Cd69 Cd 0.28048 0.40019 0.75802 0.0
O70 O 0.27923 0.36165 0.73271 0.0
C71 C 0.30071 0.36144 0.7184 0.0
O72 O 0.31956 0.38468 0.71671 0.0
C73 C 0.31222 0.39327 0.81234 0.0
C74 C 0.21157 0.40222 0.80283 0.0
O75 O 0.21159 0.38048 0.81717 0.0
O76 O 0.22845 0.40778 0.78215 0.0
O77 O 0.32482 0.86972 0.26712 0.0
Cd78 Cd 0.29036 0.8761 0.30201 0.0
O79 O 0.29717 0.86561 0.22852 0.0
Cd80 Cd 0.25997 0.85816 0.25371 0.0
O81 O 0.2284 0.81964 0.255 0.0
C82 C 0.22609 0.80514 0.2313 0.0
O83 O 0.24106 0.81503 0.20935 0.0
C84 C 0.32103 0.86736 0.23975 0.0
C85 C 0.31667 0.91833 0.3414 0.0
O86 O 0.31599 0.89273 0.34606 0.0
O87 O 0.30406 0.92401 0.31873 0.0
C88 C 0.88116 0.38387 0.14497 0.0
C89 C 0.89316 0.36943 0.16958 0.0
C90 C 0.92722 0.40869 0.19379 0.0
C91 C 0.9327 0.42543 0.21931 0.0
C92 C 0.95604 0.44748 0.22246 0.0
C93 C 0.97404 0.45338 0.19904 0.0
C94 C 0.96877 0.43641 0.17313 0.0
C95 C 0.94562 0.41396 0.17091 0.0
C96 C 0.96145 0.46436 0.25089 0.0
C97 C 0.98763 0.44192 0.14781 0.0
C98 C 0.19233 0.44793 0.23223 0.0
C99 C 0.16702 0.45318 0.21804 0.0
C100 C 0.12504 0.46842 0.23058 0.0
C101 C 0.1148 0.46773 0.20185 0.0
C102 C 0.08975 0.47517 0.19577 0.0
C103 C 0.07436 0.48289 0.21886 0.0
C104 C 0.08418 0.48274 0.24784 0.0
C105 C 0.10956 0.47577 0.25326 0.0
C106 C 0.0798 0.47499 0.16462 0.0
C107 C 0.06794 0.49011 0.27306 0.0
C108 C 0.11272 0.67011 0.23376 0.0
C109 C 0.10682 0.65968 0.20501 0.0
C110 C 0.08323 0.63862 0.19797 0.0
C111 C 0.0653 0.62776 0.22017 0.0
C112 C 0.07079 0.63882 0.24902 0.0
C113 C 0.09432 0.66016 0.25536 0.0
C114 C 0.07751 0.62786 0.16685 0.0
C115 C 0.052 0.62781 0.27319 0.0
C116 C 0.84865 0.5983 0.20389 0.0
C117 C 0.87031 0.62517 0.21226 0.0
C118 C 0.91557 0.61766 0.19685 0.0
C119 C 0.93358 0.62075 0.17378 0.0
C120 C 0.95801 0.61106 0.17494 0.0
C121 C 0.96495 0.59854 0.20024 0.0
C122 C 0.94693 0.59544 0.22382 0.0
C123 C 0.92218 0.60446 0.22166 0.0
C124 C 0.97651 0.61446 0.14922 0.0
C125 C 0.95399 0.58304 0.25162 0.0
C126 C -0.00125 0.4768 0.20206 0.0
C127 C 0.02419 0.47036 0.20795 0.0
C128 C 0.04812 0.49135 0.21266 0.0
C129 C 0.04672 0.51967 0.21195 0.0
C130 C 0.07034 0.54131 0.21705 0.0
C131 C 0.06857 0.56909 0.21742 0.0
C132 C 0.04318 0.57633 0.21232 0.0
C133 C 0.04107 0.60448 0.21333 0.0
C134 C 0.01546 0.61094 0.20869 0.0
C135 C 0.99167 0.59 0.20272 0.0
C136 C 0.99346 0.56171 0.20098 0.0
C137 C 0.97016 0.5401 0.19421 0.0
C138 C 0.9719 0.51227 0.19407 0.0
C139 C -0.00299 0.505 0.20067 0.0
C140 C 0.02102 0.52649 0.20616 0.0
C141 C 0.01925 0.55487 0.20631 0.0
C142 C 0.17701 0.67971 0.256 0.0
C143 C 0.16188 0.69116 0.23153 0.0
O144 O 0.90399 0.38792 0.19251 0.0
O145 O 0.89258 0.62814 0.19416 0.0
O146 O 0.13552 0.69036 0.24117 0.0
O147 O 0.14964 0.46229 0.23737 0.0
H148 H 0.90994 0.36138 0.15944 0.0
H149 H 0.89788 0.39789 0.13368 0.0
H150 H 0.86696 0.3967 0.15278 0.0
H151 H 0.86991 0.36799 0.12857 0.0
H152 H 0.91853 0.42103 0.23694 0.0
H153 H 0.94216 0.4008 0.15126 0.0
H154 H 0.98332 0.46709 0.25823 0.0
H155 H 0.94797 0.45445 0.26822 0.0
H156 H 0.95758 0.4854 0.2479 0.0
H157 H 0.97865 0.42948 0.12789 0.0
H158 H 0.0075 0.43649 0.15344 0.0
H159 H 0.99215 0.4644 0.14308 0.0
H160 H 0.17107 0.46629 0.19876 0.0
H161 H 0.18818 0.40577 0.22507 0.0
H162 H 0.19406 0.45819 0.25466 0.0
H163 H 0.20988 0.46373 0.22346 0.0
H164 H 0.12629 0.46166 0.18402 0.0
H165 H 0.11748 0.47597 0.27535 0.0
H166 H 0.06021 0.45905 0.16109 0.0
H167 H 0.09502 0.47028 0.14903 0.0
H168 H 0.07551 0.49555 0.15992 0.0
H169 H 0.07706 0.48635 0.29428 0.0
H170 H 0.04633 0.4777 0.27113 0.0
H171 H 0.06729 0.51247 0.2727 0.0
H172 H 0.16118 0.67736 0.21179 0.0
H173 H 0.12032 0.66827 0.18794 0.0
H174 H 0.09884 0.66874 0.27738 0.0
H175 H 0.07868 0.60562 0.16498 0.0
H176 H 0.0924 0.63981 0.15182 0.0
H177 H 0.05631 0.62897 0.15992 0.0
H178 H 0.05976 0.63787 0.29466 0.0
H179 H 0.04983 0.60493 0.27419 0.0
H180 H 0.03115 0.63149 0.26872 0.0
H181 H 0.87637 0.62218 0.23487 0.0
H182 H 0.83 0.59714 0.21702 0.0
H183 H 0.85726 0.57992 0.20842 0.0
H184 H 0.84246 0.59668 0.18059 0.0
H185 H 0.92837 0.63082 0.15467 0.0
H186 H 0.90864 0.60138 0.23977 0.0
H187 H 0.98269 0.59462 0.14369 0.0
H188 H 0.99558 0.63059 0.15481 0.0
H189 H 0.96638 0.6209 0.1298 0.0
H190 H 0.94013 0.58614 0.2694 0.0
H191 H 0.97561 0.59248 0.25887 0.0
H192 H 0.95212 0.56031 0.2478 0.0
H193 H 0.02535 0.4487 0.20918 0.0
H194 H 0.09043 0.53703 0.22117 0.0
H195 H 0.08738 0.58483 0.22192 0.0
H196 H 0.01395 0.63259 0.2102 0.0
H197 H 0.95026 0.54447 0.18923 0.0
H198 H 0.95324 0.4965 0.18897 0.0
H199 H 0.17964 0.694 0.27563 0.0
H200 H 0.19753 0.67674 0.2497 0.0
H201 H 0.16472 0.65899 0.26181 0.0
C202 C 0.14921 0.48641 0.86814 0.0
C203 C 0.13583 0.46979 0.84052 0.0
C204 C 0.10126 0.49095 0.81718 0.0
C205 C 0.09364 0.4984 0.78987 0.0
C206 C 0.06728 0.50304 0.78433 0.0
C207 C 0.04846 0.50136 0.80715 0.0
C208 C 0.0561 0.49398 0.83495 0.0
C209 C 0.08235 0.48859 0.83963 0.0
C210 C 0.05969 0.50998 0.75411 0.0
C211 C 0.03671 0.4923 0.85985 0.0
C212 C 0.83006 0.3871 0.74784 0.0
C213 C 0.85143 0.40908 0.76364 0.0
C214 C 0.90125 0.42417 0.77012 0.0
C215 C 0.90255 0.44072 0.79581 0.0
C216 C 0.92632 0.46134 0.80361 0.0
C217 C 0.94859 0.46663 0.78441 0.0
C218 C 0.94769 0.44913 0.75907 0.0
C219 C 0.92436 0.42749 0.75288 0.0
C220 C 0.92716 0.47776 0.83209 0.0
C221 C 0.97089 0.45368 0.73796 0.0
C222 C 0.88747 0.63224 0.76526 0.0
C223 C 0.89136 0.62074 0.79177 0.0
C224 C 0.91477 0.61011 0.79733 0.0
C225 C 0.93417 0.61007 0.77531 0.0
C226 C 0.92934 0.62 0.74776 0.0
C227 C 0.90622 0.63125 0.74313 0.0
C228 C 0.91931 0.60004 0.8271 0.0
C229 C 0.94908 0.61974 0.72342 0.0
C230 C 0.09079 0.75539 0.80946 0.0
C231 C 0.10946 0.73525 0.80213 0.0
C232 C 0.07689 0.69119 0.78591 0.0
C233 C 0.06489 0.68457 0.81281 0.0
C234 C 0.04355 0.66069 0.81519 0.0
C235 C 0.0343 0.64309 0.7903 0.0
C236 C 0.04695 0.6493 0.76346 0.0
C237 C 0.06802 0.67333 0.76167 0.0
C238 C 0.03057 0.65444 0.84412 0.0
C239 C 0.03785 0.63084 0.7365 0.0
C240 C 0.02119 0.50817 0.80201 0.0
C241 C -0.00198 0.48617 0.7975 0.0
C242 C 0.97217 0.49107 0.79007 0.0
C243 C 0.96924 0.51884 0.78737 0.0
C244 C 0.94391 0.5247 0.77875 0.0
C245 C 0.94103 0.55206 0.77713 0.0
C246 C 0.9635 0.57464 0.7834 0.0
C247 C 0.96083 0.60253 0.78192 0.0
C248 C 0.98416 0.62437 0.78591 0.0
C249 C 0.01017 0.61924 0.79151 0.0
C250 C 0.01295 0.59167 0.79504 0.0
C251 C 0.03857 0.58597 0.80239 0.0
C252 C 0.04121 0.55869 0.80527 0.0
C253 C 0.01845 0.53602 0.80022 0.0
C254 C 0.99237 0.54134 0.79295 0.0
C255 C 0.98956 0.56923 0.79069 0.0
C256 C 0.84096 0.67822 0.7462 0.0
C257 C 0.86522 0.66557 0.7429 0.0
O258 O 0.12721 0.48698 0.82106 0.0
O259 O 0.09666 0.7146 0.7819 0.0
O260 O 0.86598 0.64476 0.76205 0.0
O261 O 0.87804 0.40507 0.76125 0.0
H262 H 0.11791 0.4546 0.84871 0.0
H263 H 0.13319 0.49291 0.88138 0.0
H264 H 0.16452 0.50566 0.86348 0.0
H265 H 0.15935 0.47318 0.88161 0.0
H266 H 0.10838 0.5002 0.77271 0.0
H267 H 0.08814 0.48321 0.86099 0.0
H268 H 0.03882 0.49761 0.74733 0.0
H269 H 0.07469 0.50589 0.73794 0.0
H270 H 0.05921 0.53238 0.75389 0.0
H271 H 0.04649 0.4884 0.88067 0.0
H272 H 0.01825 0.47517 0.85507 0.0
H273 H 0.02956 0.51203 0.86245 0.0
H274 H 0.84624 0.4139 0.78637 0.0
H275 H 0.81655 0.37638 0.76517 0.0
H276 H 0.83991 0.36906 0.74283 0.0
H277 H 0.81526 0.40841 0.71605 0.0
H278 H 0.88522 0.43742 0.81004 0.0
H279 H 0.92351 0.41396 0.73362 0.0
H280 H 0.92009 0.49718 0.82841 0.0
H281 H 0.94839 0.48361 0.8418 0.0
H282 H 0.91327 0.46574 0.84793 0.0
H283 H 0.96493 0.44144 0.71715 0.0
H284 H 0.9889 0.44721 0.74768 0.0
H285 H 0.97747 0.47611 0.73327 0.0
H286 H 0.88544 0.68096 0.74223 0.0
H287 H 0.87661 0.62134 0.8086 0.0
H288 H 0.90307 0.63951 0.72226 0.0
H289 H 0.91864 0.57737 0.82553 0.0
H290 H 0.90347 0.60366 0.84249 0.0
H291 H 0.94 0.61083 0.83611 0.0
H292 H 0.93927 0.62155 0.70196 0.0
H293 H 0.95693 0.60034 0.72294 0.0
H294 H 0.96698 0.63773 0.72695 0.0
H295 H 0.11359 0.72461 0.82191 0.0
H296 H 0.10074 0.77115 0.82655 0.0
H297 H 0.07084 0.74391 0.81767 0.0
H298 H 0.0864 0.76664 0.79023 0.0
H299 H 0.07167 0.69803 0.8319 0.0
H300 H 0.07753 0.67855 0.74109 0.0
H301 H 0.03112 0.63287 0.84978 0.0
H302 H 0.00857 0.65561 0.84266 0.0
H303 H 0.04112 0.66921 0.86182 0.0
H304 H 0.05012 0.63839 0.71741 0.0
H305 H 0.01579 0.62991 0.73131 0.0
H306 H 0.03983 0.60928 0.74038 0.0
H307 H 0.00026 0.46489 0.7992 0.0
H308 H 0.92594 0.50823 0.77321 0.0
H309 H 0.921 0.5553 0.77068 0.0
H310 H 0.9822 0.6457 0.78364 0.0
H311 H 0.05682 0.60259 0.80621 0.0
H312 H 0.0614 0.55559 0.81128 0.0
H313 H 0.84976 0.70044 0.75405 0.0
H314 H 0.83156 0.67147 0.76749 0.0
H315 H 0.81983 0.668 0.70692 0.0
C316 C 0.29886 0.23372 0.70722 0.0
C317 C 0.31942 0.25218 0.68767 0.0
C318 C 0.31761 0.22411 0.64262 0.0
C319 C 0.34512 0.2217 0.6412 0.0
C320 C 0.35206 0.19997 0.62453 0.0
C321 C 0.33108 0.18044 0.60884 0.0
C322 C 0.30348 0.18344 0.6094 0.0
C323 C 0.29718 0.2055 0.62608 0.0
C324 C 0.38179 0.19778 0.62372 0.0
C325 C 0.28063 0.16313 0.59272 0.0
C326 C 0.32176 0.02114 0.70929 0.0
C327 C 0.31212 0.00497 0.68035 0.0
C328 C 0.33403 0.03543 0.64301 0.0
C329 C 0.31101 0.0426 0.63002 0.0
C330 C 0.31404 0.06617 0.61332 0.0
C331 C 0.34065 0.08314 0.60976 0.0
C332 C 0.36398 0.07581 0.6225 0.0
C333 C 0.36036 0.0517 0.63857 0.0
C334 C 0.28871 0.07303 0.59964 0.0
C335 C 0.39261 0.09359 0.61938 0.0
C336 C 0.3929 0.04266 0.43084 0.0
C337 C 0.36494 0.0434 0.43041 0.0
C338 C 0.35618 0.06577 0.44403 0.0
C339 C 0.37595 0.08796 0.45786 0.0
C340 C 0.4043 0.08775 0.45722 0.0
C341 C 0.41241 0.06511 0.44348 0.0
C342 C 0.32587 0.06569 0.44377 0.0
C343 C 0.42595 0.11129 0.47134 0.0
C344 C 0.36347 0.29326 0.42411 0.0
C345 C 0.36112 0.27149 0.39869 0.0
C346 C 0.34734 0.22643 0.42205 0.0
C347 C 0.32539 0.20359 0.42527 0.0
C348 C 0.32865 0.18086 0.44121 0.0
C349 C 0.35464 0.18105 0.45426 0.0
C350 C 0.37708 0.20398 0.45098 0.0
C351 C 0.3732 0.22655 0.43504 0.0
C352 C 0.30425 0.15676 0.44438 0.0
C353 C 0.40504 0.20476 0.4647 0.0
C354 C 0.3379 0.1565 0.59241 0.0
C355 C 0.33818 0.13245 0.60732 0.0
C356 C 0.34371 0.10879 0.59316 0.0
C357 C 0.34983 0.10923 0.56337 0.0
C358 C 0.35589 0.08596 0.54852 0.0
C359 C 0.36188 0.08664 0.5192 0.0
C360 C 0.36134 0.11036 0.50344 0.0
C361 C 0.36707 0.11116 0.47356 0.0
C362 C 0.36507 0.13455 0.45823 0.0
C363 C 0.35799 0.15758 0.47211 0.0
C364 C 0.35337 0.1577 0.50223 0.0
C365 C 0.34721 0.18096 0.51706 0.0
C366 C 0.34255 0.18079 0.54668 0.0
C367 C 0.34333 0.15716 0.56248 0.0
C368 C 0.34946 0.13348 0.54797 0.0
C369 C 0.3548 0.13387 0.51788 0.0
C370 C 0.41544 0.97817 0.42227 0.0
C371 C 0.39158 0.99316 0.42242 0.0
O372 O 0.31018 0.24437 0.65933 0.0
O373 O 0.34238 0.24781 0.40654 0.0
O374 O 0.40184 0.02122 0.41809 0.0
O375 O 0.33161 0.01274 0.65939 0.0
H376 H 0.34019 0.24819 0.69166 0.0
H377 H 0.2968 0.21139 0.70059 0.0
H378 H 0.27821 0.23861 0.70504 0.0
H379 H 0.30551 0.23617 0.73039 0.0
H380 H 0.36128 0.23692 0.65277 0.0
H381 H 0.27609 0.20789 0.62693 0.0
H382 H 0.38389 0.17794 0.63311 0.0
H383 H 0.39587 0.21539 0.636 0.0
H384 H 0.38835 0.19734 0.60089 0.0
H385 H 0.26018 0.16812 0.5958 0.0
H386 H 0.27969 0.14167 0.59977 0.0
H387 H 0.28498 0.1633 0.56922 0.0
H388 H 0.29278 0.01144 0.67486 0.0
H389 H 0.30702 0.01355 0.72651 0.0
H390 H 0.3225 0.04365 0.7069 0.0
H391 H 0.34264 0.01935 0.71643 0.0
H392 H 0.29062 0.02971 0.6324 0.0
H393 H 0.37805 0.04582 0.64841 0.0
H394 H 0.29193 0.07704 0.57631 0.0
H395 H 0.28498 0.09232 0.61046 0.0
H396 H 0.27 0.05604 0.60156 0.0
H397 H 0.40838 0.08605 0.63219 0.0
H398 H 0.39318 0.11551 0.62656 0.0
H399 H 0.39814 0.09356 0.59621 0.0
H400 H 0.38455 0.99092 0.44496 0.0
H401 H 0.35005 0.02684 0.41902 0.0
H402 H 0.43404 0.06458 0.44301 0.0
H403 H 0.3188 0.06638 0.4664 0.0
H404 H 0.31311 0.04695 0.43194 0.0
H405 H 0.32242 0.08463 0.43342 0.0
H406 H 0.44719 0.10828 0.46836 0.0
H407 H 0.42232 0.11297 0.49494 0.0
H408 H 0.42437 0.13135 0.46207 0.0
H409 H 0.38136 0.26636 0.39475 0.0
H410 H 0.37995 0.31214 0.42134 0.0
H411 H 0.36839 0.28428 0.44471 0.0
H412 H 0.34358 0.29964 0.42656 0.0
H413 H 0.30553 0.20369 0.41525 0.0
H414 H 0.39039 0.24421 0.43322 0.0
H415 H 0.29977 0.15419 0.46771 0.0
H416 H 0.30921 0.13715 0.43576 0.0
H417 H 0.28542 0.15975 0.43279 0.0
H418 H 0.42072 0.22359 0.45921 0.0
H419 H 0.41223 0.18591 0.45742 0.0
H420 H 0.40345 0.20449 0.48865 0.0
H421 H 0.33341 0.13192 0.63016 0.0
H422 H 0.35628 0.06701 0.55944 0.0
H423 H 0.36663 0.06818 0.50898 0.0
H424 H 0.36902 0.1348 0.43519 0.0
H425 H 0.34606 0.19963 0.50597 0.0
H426 H 0.33806 0.19934 0.55697 0.0
H427 H 0.42622 0.97995 0.40141 0.0
H428 H 0.40763 0.9557 0.42626 0.0
H429 H 0.4308 0.98742 0.43982 0.0
C430 C 0.3765 0.84188 0.12591 0.0
C431 C 0.39617 0.84701 0.15277 0.0
C432 C 0.44174 0.85979 0.1307 0.0
C433 C 0.46229 0.88255 0.12326 0.0
C434 C 0.48398 0.87901 0.10564 0.0
C435 C 0.48541 0.85184 0.09573 0.0
C436 C 0.46519 0.82856 0.10392 0.0
C437 C 0.44337 0.83276 0.12102 0.0
C438 C 0.50514 0.90433 0.09731 0.0
C439 C 0.46646 0.79921 0.09434 0.0
C440 C 0.7083 0.8374 0.09427 0.0
C441 C 0.67862 0.82647 0.10376 0.0
C442 C 0.63782 0.84669 0.10069 0.0
C443 C 0.61789 0.82143 0.09978 0.0
C444 C 0.59032 0.82061 0.09201 0.0
C445 C 0.58263 0.84556 0.08504 0.0
C446 C 0.60228 0.87127 0.08785 0.0
C447 C 0.62965 0.87147 0.09582 0.0
C448 C 0.56967 0.79295 0.0899 0.0
C449 C 0.59465 0.89831 0.081 0.0
C450 C 0.60379 0.80997 0.89833 0.0
C451 C 0.58587 0.78774 0.91116 0.0
C452 C 0.56354 0.79234 0.92719 0.0
C453 C 0.55911 0.81964 0.93056 0.0
C454 C 0.57657 0.84187 0.91696 0.0
C455 C 0.59864 0.83667 0.90093 0.0
C456 C 0.54499 0.76812 0.94111 0.0
C457 C 0.57231 0.87121 0.92 0.0
C458 C 0.36415 0.86473 0.90378 0.0
C459 C 0.37962 0.84927 0.88258 0.0
C460 C 0.41301 0.82968 0.91041 0.0
C461 C 0.41929 0.80468 0.9182 0.0
C462 C 0.44418 0.8044 0.93281 0.0
C463 C 0.46328 0.82989 0.93971 0.0
C464 C 0.45699 0.85536 0.93222 0.0
C465 C 0.43179 0.85505 0.91791 0.0
C466 C 0.45013 0.77689 0.94077 0.0
C467 C 0.47696 0.88292 0.93929 0.0
C468 C 0.50759 0.84782 0.07615 0.0
C469 C 0.53359 0.84817 0.08845 0.0
C470 C 0.55525 0.84436 0.07113 0.0
C471 C 0.55097 0.83977 0.04078 0.0
C472 C 0.57234 0.8357 0.02281 0.0
C473 C 0.56793 0.83096 0.99304 0.0
C474 C 0.542 0.83025 0.98001 0.0
C475 C 0.53728 0.82522 0.94977 0.0
C476 C 0.51147 0.8252 0.93736 0.0
C477 C 0.48998 0.82989 0.95447 0.0
C478 C 0.49412 0.83449 0.98485 0.0
C479 C 0.47283 0.83889 0.00273 0.0
C480 C 0.47721 0.84348 0.03259 0.0
C481 C 0.50298 0.84357 0.04576 0.0
C482 C 0.52473 0.83933 0.02808 0.0
C483 C 0.52028 0.8347 -0.00237 0.0
C484 C 0.65205 0.77876 0.90959 0.0
C485 C 0.63773 0.78381 0.88103 0.0
O486 O 0.42097 0.86505 0.14716 0.0
O487 O 0.38865 0.82814 0.89591 0.0
O488 O 0.62632 0.80693 0.88351 0.0
O489 O 0.6651 0.84814 0.10566 0.0
H490 H 0.39952 0.8261 0.15699 0.0
H491 H 0.35577 0.8299 0.13172 0.0
H492 H 0.38443 0.82936 0.10894 0.0
H493 H 0.37433 0.86144 0.11611 0.0
H494 H 0.46097 0.90329 0.13092 0.0
H495 H 0.42789 0.81475 0.1266 0.0
H496 H 0.5256 0.90362 0.10688 0.0
H497 H 0.49991 0.92413 0.10492 0.0
H498 H 0.50699 0.90428 0.07336 0.0
H499 H 0.45142 0.78325 0.10564 0.0
H500 H 0.48751 0.79588 0.09846 0.0
H501 H 0.46188 0.796 0.07065 0.0
H502 H 0.66923 0.81289 0.08507 0.0
H503 H 0.71831 0.81965 0.0902 0.0
H504 H 0.72104 0.85197 0.11079 0.0
H505 H 0.70821 0.8485 0.07379 0.0
H506 H 0.62375 0.80228 0.10465 0.0
H507 H 0.6451 0.89093 0.09713 0.0
H508 H 0.55068 0.7946 0.10136 0.0
H509 H 0.57805 0.77599 0.0992 0.0
H510 H 0.56374 0.78718 0.06675 0.0
H511 H 0.6119 0.9167 0.08592 0.0
H512 H 0.57657 0.90078 0.09366 0.0
H513 H 0.58866 0.89785 0.05764 0.0
H514 H 0.62117 0.76476 0.87718 0.0
H515 H 0.58919 0.76683 0.90907 0.0
H516 H 0.61242 0.85364 0.89077 0.0
H517 H 0.54732 0.77112 0.96508 0.0
H518 H 0.54978 0.74782 0.93458 0.0
H519 H 0.52308 0.7673 0.93514 0.0
H520 H 0.58757 0.88617 0.90784 0.0
H521 H 0.574 0.87825 0.94327 0.0
H522 H 0.55124 0.87161 0.91195 0.0
H523 H 0.39737 0.86565 0.87627 0.0
H524 H 0.35636 0.88097 0.89236 0.0
H525 H 0.37839 0.87527 0.92172 0.0
H526 H 0.34652 0.85073 0.91368 0.0
H527 H 0.40459 0.78525 0.91256 0.0
H528 H 0.42704 0.87471 0.91286 0.0
H529 H 0.45559 0.77746 0.96428 0.0
H530 H 0.46813 0.77324 0.92866 0.0
H531 H 0.43231 0.75909 0.93573 0.0
H532 H 0.46987 0.90074 0.93022 0.0
H533 H 0.49752 0.8825 0.93062 0.0
H534 H 0.47955 0.88648 0.96319 0.0
H535 H 0.53704 0.85152 0.11174 0.0
H536 H 0.59277 0.83602 0.0315 0.0
H537 H 0.58516 0.8279 0.98039 0.0
H538 H 0.50806 0.8215 0.9141 0.0
H539 H 0.45252 0.83885 0.99385 0.0
H540 H 0.46009 0.8469 0.04521 0.0
H541 H 0.66208 0.76092 0.90633 0.0
H542 H 0.63668 0.77334 0.92671 0.0
H543 H 0.66784 0.79708 0.918 0.0
C544 C 0.73572 0.14805 0.56563 0.0
C545 C 0.74029 0.14234 0.59778 0.0
C546 C 0.7636 0.10374 0.58984 0.0
C547 C 0.78988 0.09863 0.58682 0.0
C548 C 0.79355 0.07371 0.57345 0.0
C549 C 0.7702 0.05316 0.56335 0.0
C550 C 0.74344 0.0576 0.56752 0.0
C551 C 0.74038 0.08291 0.58065 0.0
C552 C 0.8224 0.06956 0.56959 0.0
C553 C 0.71812 0.03577 0.55768 0.0
C554 C 0.81372 0.85413 0.59568 0.0
C555 C 0.78619 0.86063 0.60485 0.0
C556 C 0.78961 0.91048 0.59979 0.0
C557 C 0.76577 0.90997 0.58285 0.0
C558 C 0.76302 0.9333 0.56762 0.0
C559 C 0.78491 0.95738 0.56875 0.0
C560 C 0.80871 0.95815 0.58638 0.0
C561 C 0.81049 0.93479 0.60211 0.0
C562 C 0.73672 0.93207 0.55019 0.0
C563 C 0.83241 0.98345 0.58828 0.0
C564 C 0.82508 0.90601 0.39532 0.0
C565 C 0.7967 0.90244 0.39981 0.0
C566 C 0.78571 0.92516 0.40884 0.0
C567 C 0.80356 0.95181 0.41385 0.0
C568 C 0.83186 0.95568 0.40766 0.0
C569 C 0.84215 0.93272 0.39812 0.0
C570 C 0.75526 0.9205 0.41416 0.0
C571 C 0.85145 0.98383 0.4123 0.0
C572 C 0.74034 0.14387 0.37661 0.0
C573 C 0.7626 0.13167 0.36173 0.0
C574 C 0.7594 0.08299 0.37373 0.0
C575 C 0.73901 0.0597 0.38019 0.0
C576 C 0.74534 0.03844 0.39655 0.0
C577 C 0.77288 0.0404 0.40626 0.0
C578 C 0.79383 0.06338 0.39877 0.0
C579 C 0.78691 0.08437 0.3824 0.0
C580 C 0.72254 0.01409 0.40389 0.0
C581 C 0.82348 0.06583 0.40833 0.0
C582 C 0.77401 0.02747 0.54764 0.0
C583 C 0.77727 0.00505 0.56393 0.0
C584 C 0.7832 0.98118 0.55059 0.0
C585 C 0.78657 0.97981 0.52025 0.0
C586 C 0.79464 0.95709 0.50643 0.0
C587 C 0.79729 0.9556 0.47653 0.0
C588 C 0.79148 0.97651 0.45915 0.0
C589 C 0.79349 0.97482 0.42861 0.0
C590 C 0.78719 0.9958 0.41196 0.0
C591 C 0.77955 0.01893 0.42511 0.0
C592 C 0.77828 0.02138 0.45569 0.0
C593 C 0.77176 0.04486 0.46971 0.0
C594 C 0.77071 0.04711 0.49982 0.0
C595 C 0.77543 0.02564 0.51704 0.0
C596 C 0.78189 0.00175 0.50334 0.0
C597 C 0.78382 -0.00015 0.47269 0.0
C598 C 0.85139 0.84412 0.40443 0.0
C599 C 0.8272 0.85671 0.39529 0.0
O600 O 0.76174 0.12901 0.60152 0.0
O601 O 0.75191 0.10314 0.35821 0.0
O602 O 0.83686 0.88433 0.38863 0.0
O603 O 0.79255 0.8883 0.61511 0.0
H604 H 0.72074 0.12825 0.60355 0.0
H605 H 0.72662 0.12827 0.55314 0.0
H606 H 0.75513 0.15777 0.55517 0.0
H607 H 0.72102 0.16188 0.56369 0.0
H608 H 0.80764 0.11467 0.59429 0.0
H609 H 0.71984 0.0862 0.58356 0.0
H610 H 0.82491 0.05078 0.58089 0.0
H611 H 0.83841 0.08777 0.57823 0.0
H612 H 0.82589 0.06593 0.5462 0.0
H613 H 0.69874 0.04152 0.56432 0.0
H614 H 0.71893 0.01544 0.56681 0.0
H615 H 0.71765 0.03288 0.53368 0.0
H616 H 0.77203 0.85757 0.58551 0.0
H617 H 0.81106 0.83362 0.58392 0.0
H618 H 0.82758 0.85468 0.61499 0.0
H619 H 0.82417 0.87006 0.58076 0.0
H620 H 0.74898 0.89163 0.58196 0.0
H621 H 0.82857 0.93512 0.61573 0.0
H622 H 0.72961 0.95174 0.5536 0.0
H623 H 0.71992 0.91431 0.55598 0.0
H624 H 0.74063 0.92955 0.52676 0.0
H625 H 0.85068 0.97951 0.60019 0.0
H626 H 0.82579 0.00098 0.5997 0.0
H627 H 0.83857 0.99007 0.56619 0.0
H628 H 0.81556 0.85666 0.41532 0.0
H629 H 0.78317 0.88196 0.39655 0.0
H630 H 0.86391 0.9353 0.39401 0.0
H631 H 0.75202 0.92116 0.43788 0.0
H632 H 0.74357 0.90002 0.40476 0.0
H633 H 0.74675 0.93732 0.40477 0.0
H634 H 0.87298 0.98323 0.40698 0.0
H635 H 0.85116 0.99142 0.43525 0.0
H636 H 0.84465 -0.00089 0.39851 0.0
H637 H 0.7811 0.13595 0.37641 0.0
H638 H 0.74746 0.16646 0.38227 0.0
H639 H 0.73459 0.13321 0.39709 0.0
H640 H 0.72157 0.14063 0.36226 0.0
H641 H 0.71795 0.05854 0.37286 0.0
H642 H 0.80308 0.10156 0.37612 0.0
H643 H 0.72055 0.01366 0.4278 0.0
H644 H 0.72772 0.99424 0.39639 0.0
H645 H 0.70234 0.01516 0.39389 0.0
H646 H 0.83741 0.0849 0.40061 0.0
H647 H 0.83059 0.04728 0.39996 0.0
H648 H 0.82514 0.06626 0.43238 0.0
H649 H 0.77531 0.00626 0.58729 0.0
H650 H 0.79917 0.94025 0.51859 0.0
H651 H 0.80371 0.93764 0.46726 0.0
H652 H 0.78857 0.99428 0.38855 0.0
H653 H 0.7676 0.0619 0.45759 0.0
H654 H 0.7658 0.06576 0.50938 0.0
H655 H 0.84345 0.82284 0.41227 0.0
H656 H 0.8636 0.85718 0.42245 0.0
H657 H 0.86536 0.84255 0.38637 0.0
C658 C 0.39134 0.4261 0.19613 0.0
C659 C 0.41342 0.43526 0.17514 0.0
C660 C 0.44038 0.41392 0.14087 0.0
C661 C 0.45948 0.43878 0.13546 0.0
C662 C 0.48209 0.43842 0.11792 0.0
C663 C 0.48573 0.4127 0.10578 0.0
C664 C 0.46651 0.38768 0.11118 0.0
C665 C 0.44394 0.38869 0.12851 0.0
C666 C 0.50219 0.46547 0.11244 0.0
C667 C 0.46999 0.35988 0.09886 0.0
C668 C 0.6744 0.41012 0.2033 0.0
C669 C 0.65564 0.39307 0.17912 0.0
C670 C 0.6308 0.40904 0.13915 0.0
C671 C 0.61128 0.38413 0.13238 0.0
C672 C 0.5878 0.38404 0.11496 0.0
C673 C 0.58382 0.40941 0.10425 0.0
C674 C 0.60381 0.43445 0.11057 0.0
C675 C 0.62729 0.43381 0.12761 0.0
C676 C 0.56719 0.35687 0.10808 0.0
C677 C 0.60017 0.46193 0.09973 0.0
C678 C 0.62727 0.40441 0.91847 0.0
C679 C 0.60892 0.38024 0.92704 0.0
C680 C 0.58466 0.382 0.94122 0.0
C681 C 0.57877 0.40845 0.94703 0.0
C682 C 0.59664 0.43269 0.93729 0.0
C683 C 0.62054 0.43027 0.9228 0.0
C684 C 0.56547 0.35562 0.95032 0.0
C685 C 0.59079 0.46117 0.94277 0.0
C686 C 0.38191 0.40922 0.85353 0.0
C687 C 0.40782 0.40578 0.86831 0.0
C688 C 0.43406 0.41597 0.91366 0.0
C689 C 0.44268 0.39091 0.91634 0.0
C690 C 0.46577 0.38984 0.93377 0.0
C691 C 0.48107 0.41453 0.94827 0.0
C692 C 0.47235 0.43982 0.94578 0.0
C693 C 0.44852 0.44003 0.92901 0.0
C694 C 0.47388 0.36229 0.93651 0.0
C695 C 0.48844 0.46671 0.96039 0.0
C696 C 0.51 0.4119 0.088 0.0
C697 C 0.53462 0.41082 0.10247 0.0
C698 C 0.55835 0.40993 0.08721 0.0
C699 C 0.55762 0.41006 0.05658 0.0
C700 C 0.58105 0.40891 0.04054 0.0
C701 C 0.58019 0.40936 0.01043 0.0
C702 C 0.5558 0.41071 -0.00483 0.0
C703 C 0.55468 0.41084 0.96455 0.0
C704 C 0.53027 0.41266 0.95007 0.0
C705 C 0.50653 0.41382 0.96533 0.0
C706 C 0.5071 0.41318 -0.00403 0.0
C707 C 0.48347 0.41358 0.01202 0.0
C708 C 0.48438 0.41331 0.04216 0.0
C709 C 0.50884 0.41223 0.05739 0.0
C710 C 0.53279 0.41138 0.04164 0.0
C711 C 0.53191 0.41183 0.01091 0.0
C712 C 0.68871 0.40059 0.93783 0.0
C713 C 0.66939 0.38717 0.9122 0.0
O714 O 0.41855 0.41323 0.15817 0.0
O715 O 0.41209 0.4175 0.89634 0.0
O716 O 0.65116 0.40359 0.90518 0.0
O717 O 0.65342 0.41005 0.15641 0.0
H718 H 0.41102 0.45319 0.16209 0.0
H719 H 0.38021 0.40424 0.18899 0.0
H720 H 0.37407 0.43592 0.18912 0.0
H721 H 0.41161 0.43557 0.23594 0.0
H722 H 0.45689 0.45848 0.14487 0.0
H723 H 0.42912 0.36965 0.1329 0.0
H724 H 0.52281 0.46506 0.12183 0.0
H725 H 0.49564 0.48388 0.12208 0.0
H726 H 0.50442 0.4679 0.08874 0.0
H727 H 0.45375 0.34222 0.10595 0.0
H728 H 0.49048 0.35655 0.10569 0.0
H729 H 0.46926 0.35977 0.07479 0.0
H730 H 0.63533 0.38769 0.18924 0.0
H731 H 0.67506 0.39715 0.22233 0.0
H732 H 0.66617 0.42842 0.21037 0.0
H733 H 0.69577 0.41787 0.19612 0.0
H734 H 0.6145 0.36473 0.14029 0.0
H735 H 0.64272 0.45286 0.13269 0.0
H736 H 0.56295 0.35397 0.0843 0.0
H737 H 0.54743 0.35748 0.11852 0.0
H738 H 0.57449 0.33864 0.11583 0.0
H739 H 0.61664 0.47978 0.10829 0.0
H740 H 0.57985 0.46558 0.10613 0.0
H741 H 0.60047 0.46131 0.07568 0.0
H742 H 0.6582 0.36744 0.92095 0.0
H743 H 0.61315 0.35995 0.92239 0.0
H744 H 0.63455 0.44871 0.91549 0.0
H745 H 0.5659 0.35514 0.97435 0.0
H746 H 0.57129 0.33656 0.94132 0.0
H747 H 0.54395 0.35519 0.9431 0.0
H748 H 0.60709 0.47805 0.9344 0.0
H749 H 0.58906 0.46525 0.96643 0.0
H750 H 0.57073 0.46185 0.93219 0.0
H751 H 0.42678 0.41148 0.85532 0.0
H752 H 0.38894 0.42331 0.83526 0.0
H753 H 0.37415 0.4253 0.86695 0.0
H754 H 0.35953 0.36855 0.84654 0.0
H755 H 0.43128 0.37196 0.90522 0.0
H756 H 0.44163 0.45924 0.92696 0.0
H757 H 0.47817 0.35881 0.95961 0.0
H758 H 0.49305 0.36264 0.92453 0.0
H759 H 0.45762 0.34444 0.92756 0.0
H760 H 0.481 0.48509 0.95327 0.0
H761 H 0.51068 0.46982 0.95569 0.0
H762 H 0.48646 0.46568 0.98424 0.0
H763 H 0.53533 0.41075 0.12599 0.0
H764 H 0.60034 0.40771 0.05108 0.0
H765 H 0.59895 0.40861 -0.00072 0.0
H766 H 0.52962 0.41277 0.92656 0.0
H767 H 0.46402 0.4142 0.00147 0.0
H768 H 0.46562 0.4139 0.05338 0.0
H769 H 0.70332 0.38728 0.94293 0.0
H770 H 0.67638 0.40227 0.95734 0.0
H771 H 0.70081 0.42176 0.93373 0.0
C772 C 0.1929 0.41206 0.26687 0.0
C773 C 0.22376 0.41861 0.24504 0.0
C774 C 0.18901 0.42285 0.188 0.0
C775 C 0.16013 0.42399 0.21254 0.0
N776 N 0.13589 0.40675 0.26518 0.0
N777 N 0.2445 0.42457 0.18988 0.0
C778 C 0.1594 0.41182 0.25029 0.0
C779 C 0.22179 0.42272 0.2059 0.0
N780 N 0.19486 0.40806 0.29556 0.0
N781 N 0.18637 0.42588 0.15923 0.0
H782 H 0.26325 0.42281 0.1991 0.0
H783 H 0.24361 0.42691 0.16757 0.0
H784 H 0.16738 0.42742 0.15029 0.0
H785 H 0.20291 0.42663 0.14558 0.0
H786 H 0.17741 0.40453 0.30817 0.0
H787 H 0.21379 0.40902 0.30602 0.0
H788 H 0.13568 0.40106 0.28669 0.0
H789 H 0.1174 0.40822 0.255 0.0
C790 C 0.16783 0.75886 0.74942 0.0
C791 C 0.19052 0.76961 0.76875 0.0
C792 C 0.15987 0.76227 0.81007 0.0
C793 C 0.13705 0.75109 0.79059 0.0
N794 N 0.11875 0.75176 0.74142 0.0
N795 N 0.2066 0.79021 0.81604 0.0
C796 C 0.14077 0.75357 0.76015 0.0
C797 C 0.18612 0.77386 0.79871 0.0
N798 N 0.17199 0.75238 0.72103 0.0
N799 N 0.15675 0.76181 0.83943 0.0
H800 H 0.22562 0.80019 0.80821 0.0
H801 H 0.2038 0.79642 0.83739 0.0
H802 H 0.13771 0.75704 0.8492 0.0
H803 H 0.17336 0.76544 0.85428 0.0
H804 H 0.15615 0.74165 0.70693 0.0
H805 H 0.1915 0.75516 0.71228 0.0
H806 H 0.12096 0.75593 0.71952 0.0
H807 H 0.09858 0.74964 0.74811 0.0
C808 C 0.82329 0.67452 0.19366 0.0
C809 C 0.82462 0.68972 0.22065 0.0
C810 C 0.86322 0.67027 0.23695 0.0
C811 C 0.85845 0.65138 0.21232 0.0
N812 N 0.84501 0.64635 0.16151 0.0
N813 N 0.8462 0.70319 0.26793 0.0
C814 C 0.84181 0.65674 0.18879 0.0
C815 C 0.84489 0.68813 0.24218 0.0
N816 N 0.80332 0.67585 0.17332 0.0
N817 N 0.88642 0.6725 0.25409 0.0
H818 H 0.83434 0.71782 0.27191 0.0
H819 H 0.85794 0.70013 0.28593 0.0
H820 H 0.90176 0.6619 0.24895 0.0
H821 H 0.89234 0.68738 0.27105 0.0
H822 H 0.79904 0.66263 0.15481 0.0
H823 H 0.78962 0.6889 0.1759 0.0
H824 H 0.83532 0.65157 0.14302 0.0
H825 H 0.86001 0.63527 0.1568 0.0
C826 C 0.78346 0.39367 0.73902 0.0
C827 C 0.79328 0.37047 0.71135 0.0
C828 C 0.85331 0.40857 0.70872 0.0
C829 C 0.84463 0.42654 0.74242 0.0
N830 N 0.80238 0.44202 0.77392 0.0
N831 N 0.83334 0.36153 0.67384 0.0
C832 C 0.80851 0.42411 0.75358 0.0
C833 C 0.82731 0.37829 0.69546 0.0
N834 N 0.75687 0.38981 0.74666 0.0
N835 N 0.87776 0.41698 0.69605 0.0
H836 H 0.81916 0.34355 0.66639 0.0
H837 H 0.85272 0.36573 0.66471 0.0
H838 H 0.89171 0.4349 0.70418 0.0
H839 H 0.88267 0.40655 0.67751 0.0
H840 H 0.75076 0.40329 0.7618 0.0
H841 H 0.7416 0.374 0.73669 0.0
H842 H 0.78238 0.43995 0.78117 0.0
H843 H 0.8179 0.45839 0.78264 0.0
C844 C 0.31193 0.28614 0.33997 0.0
C845 C 0.32603 0.31283 0.33171 0.0
C846 C 0.36711 0.30844 0.35993 0.0
C847 C 0.35175 0.28287 0.3704 0.0
N848 N 0.31806 0.24134 0.35388 0.0
N849 N 0.36933 0.34582 0.32652 0.0
C850 C 0.32654 0.26972 0.35567 0.0
C851 C 0.3544 0.32299 0.33952 0.0
N852 N 0.28446 0.27651 0.33341 0.0
N853 N 0.39388 0.31852 0.36922 0.0
H854 H 0.36079 0.35664 0.31117 0.0
H855 H 0.39058 0.35303 0.32908 0.0
H856 H 0.40493 0.30672 0.38085 0.0
H857 H 0.40515 0.33859 0.3659 0.0
H858 H 0.27292 0.25818 0.3415 0.0
H859 H 0.27278 0.28798 0.32214 0.0
H860 H 0.30062 0.23086 0.34177 0.0
H861 H 0.33093 0.22846 0.36015 0.0
C862 C 0.31665 0.81613 0.83296 0.0
C863 C 0.32502 0.82969 0.8071 0.0
C864 C 0.37192 0.84542 0.82756 0.0
C865 C 0.36208 0.83732 0.85536 0.0
N866 N 0.32694 0.80503 0.88092 0.0
N867 N 0.36046 0.85807 0.77946 0.0
C868 C 0.33524 0.81969 0.85707 0.0
C869 C 0.35272 0.84425 0.80411 0.0
N870 N 0.29075 0.79958 0.83472 0.0
N871 N 0.39962 0.85248 0.82313 0.0
H872 H 0.34705 0.85753 0.76167 0.0
H873 H 0.37955 0.87178 0.77759 0.0
H874 H 0.41424 0.85033 0.83889 0.0
H875 H 0.40792 0.85651 0.80279 0.0
H876 H 0.2837 0.78966 0.85359 0.0
H877 H 0.27658 0.7954 0.81724 0.0
H878 H 0.33956 0.80428 0.89903 0.0
H879 H 0.33956 0.80428 0.89903 0.0
C880 C 0.77612 0.79726 0.35267 0.0
C881 C 0.78406 0.80189 0.32373 0.0
C882 C 0.82068 0.84164 0.34076 0.0
C883 C 0.81062 0.83932 0.36966 0.0
N884 N 0.77212 0.81847 0.3997 0.0
N885 N 0.80839 0.83378 0.2897 0.0
C886 C 0.78635 0.81828 0.37468 0.0
C887 C 0.80464 0.82569 0.3176 0.0
N888 N 0.75952 0.7724 0.35953 0.0
N889 N 0.84587 0.85807 0.33497 0.0
H890 H 0.7964 0.82335 0.2721 0.0
H891 H 0.82123 0.85268 0.28454 0.0
H892 H 0.85945 0.87013 0.35033 0.0
H893 H 0.85472 0.8575 0.31474 0.0
H894 H 0.7556 0.7669 0.38087 0.0
H895 H 0.75217 0.75611 0.34423 0.0
H896 H 0.75317 0.80479 0.40255 0.0
H897 H 0.77649 0.83409 0.41602 0.0
C898 C 0.7061 0.34777 0.85871 0.0
C899 C 0.72316 0.36958 0.84407 0.0
C900 C 0.7032 0.40382 0.8712 0.0
C901 C 0.68548 0.38161 0.88535 0.0
N902 N 0.66213 0.33271 0.88062 0.0
N903 N 0.7325 0.41753 0.83053 0.0
C904 C 0.68451 0.35361 0.87562 0.0
C905 C 0.72027 0.39742 0.8487 0.0
N906 N 0.71077 0.32147 0.85704 0.0
N907 N 0.70378 0.43105 0.87883 0.0
H908 H 0.74469 0.41371 0.81346 0.0
H909 H 0.72846 0.43737 0.83051 0.0
H910 H 0.68948 0.43741 0.89203 0.0
H911 H 0.71932 0.4476 0.87274 0.0
H912 H 0.70043 0.30553 0.86965 0.0
H913 H 0.72689 0.3164 0.84549 0.0
H914 H 0.65994 0.31237 0.87212 0.0
H915 H 0.64394 0.33638 0.889 0.0
C916 C 0.26861 0.93112 0.68607 0.0
C917 C 0.28568 0.92006 0.70509 0.0
C918 C 0.32413 0.95994 0.69796 0.0
C919 C 0.30554 0.97325 0.68342 0.0
N920 N 0.26597 0.96544 0.65066 0.0
N921 N 0.32985 0.92282 0.72889 0.0
C922 C 0.27945 0.95698 0.67348 0.0
C923 C 0.3137 0.93386 0.71049 0.0
N924 N 0.24179 0.9173 0.68076 0.0
N925 N 0.3518 0.97147 0.6984 0.0
H926 H 0.32314 0.90344 0.73787 0.0
H927 H 0.34929 0.9335 0.73669 0.0
H928 H 0.36022 0.98949 0.6877 0.0
H929 H 0.36667 0.96164 0.70639 0.0
H930 H 0.22728 0.92597 0.67018 0.0
H931 H 0.23357 0.89757 0.68836 0.0
H932 H 0.24787 0.95357 0.64085 0.0
H933 H 0.27495 0.98263 0.63895 0.0
C934 C 0.67451 0.76875 0.15987 0.0
C935 C 0.68398 0.78514 0.18544 0.0
C936 C 0.68772 0.82808 0.15913 0.0
C937 C 0.67854 0.81182 0.13275 0.0
N938 N 0.65741 0.76575 0.11041 0.0
N939 N 0.70456 0.8297 0.20894 0.0
C940 C 0.67044 0.78192 0.1337 0.0
C941 C 0.69145 0.81457 0.18506 0.0
N942 N 0.67047 0.74034 0.16032 0.0
N943 N 0.69239 0.8566 0.16005 0.0
H944 H 0.70784 0.82093 0.22851 0.0
H945 H 0.71454 0.85068 0.20883 0.0
H946 H 0.69438 0.86888 0.14214 0.0
H947 H 0.69312 0.86858 0.17929 0.0
H948 H 0.6682 0.72721 0.14175 0.0
H949 H 0.67139 0.72981 0.17935 0.0
H950 H 0.64728 0.74494 0.11179 0.0
H951 H 0.65388 0.77258 0.09004 0.0
C952 C 0.72327 0.19951 0.64692 0.0
C953 C 0.74265 0.22329 0.6382 0.0
C954 C 0.76697 0.19298 0.61063 0.0
C955 C 0.74567 0.16943 0.61692 0.0
N956 N 0.71192 0.15053 0.65255 0.0
N957 N 0.78779 0.24225 0.62034 0.0
C958 C 0.72673 0.17266 0.63871 0.0
C959 C 0.76603 0.2199 0.62259 0.0
N960 N 0.70099 0.20211 0.66271 0.0
N961 N 0.78787 0.18975 0.59304 0.0
H962 H 0.78803 0.26195 0.62969 0.0
H963 H 0.80661 0.24094 0.61169 0.0
H964 H 0.79153 0.17037 0.58694 0.0
H965 H 0.80142 0.20624 0.58396 0.0
H966 H 0.68639 0.18482 0.66908 0.0
H967 H 0.69632 0.2212 0.66823 0.0
H968 H 0.71501 0.1303 0.65026 0.0
H969 H 0.71501 0.1303 0.65026 0.0
C970 C 0.39473 0.39592 0.23592 0.0
C971 C 0.3733 0.42046 0.24468 0.0
C972 C 0.41424 0.46958 0.21562 0.0
C973 C 0.43065 0.44195 0.20035 0.0
N974 N 0.44304 0.38999 0.20959 0.0
N975 N 0.36737 0.47485 0.24356 0.0
C976 C 0.42586 0.40691 0.21576 0.0
C977 C 0.38333 0.45708 0.23586 0.0
N978 N 0.38786 0.36965 0.24517 0.0
N979 N 0.42241 0.49629 0.20807 0.0
H980 H 0.34905 0.46808 0.25431 0.0
H981 H 0.37273 0.49574 0.23841 0.0
H982 H 0.43931 0.502 0.19482 0.0
H983 H 0.41232 0.51152 0.21538 0.0
H984 H 0.39987 0.35537 0.24035 0.0
H985 H 0.37063 0.36312 0.2577 0.0
H986 H 0.43973 0.36998 0.21737 0.0
H987 H 0.46025 0.39705 0.19711 0.0
C988 C 0.79317 0.65399 0.73603 0.0
C989 C 0.79922 0.69084 0.72834 0.0
C990 C 0.85627 0.69022 0.70021 0.0
C991 C 0.85258 0.65538 0.7158 0.0
N992 N 0.81546 0.60693 0.73227 0.0
N993 N 0.83206 0.73514 0.702 0.0
C994 C 0.81888 0.63426 0.72724 0.0
C995 C 0.82967 0.70854 0.70966 0.0
N996 N 0.76959 0.64136 0.74848 0.0
N997 N 0.87929 0.70236 0.68656 0.0
H998 H 0.81659 0.74575 0.7063 0.0
H999 H 0.84927 0.74557 0.69121 0.0
H1000 H 0.89474 0.69146 0.68318 0.0
H1001 H 0.88201 0.72247 0.67915 0.0
H1002 H 0.7658 0.62033 0.75309 0.0
H1003 H 0.75484 0.65247 0.75417 0.0
H1004 H 0.79699 0.59543 0.73992 0.0
H1005 H 0.83148 0.59693 0.72826 0.0
C1006 C 0.85143 0.29499 0.17756 0.0
C1007 C 0.82587 0.29987 0.18645 0.0
C1008 C 0.84597 0.35008 0.1922 0.0
C1009 C 0.87118 0.34541 0.18098 0.0
N1010 N 0.90082 0.31269 0.1784 0.0
N1011 N 0.80095 0.33006 0.21103 0.0
C1012 C 0.87489 0.3176 0.17833 0.0
C1013 C 0.82381 0.32686 0.19649 0.0
N1014 N 0.8532 0.26897 0.16762 0.0
N1015 N 0.84298 0.37655 0.19859 0.0
H1016 H 0.78456 0.31339 0.21492 0.0
H1017 H 0.79916 0.34859 0.22163 0.0
H1018 H 0.85932 0.39397 0.2 0.0
H1019 H 0.824 0.38151 0.20194 0.0
H1020 H 0.87065 0.26499 0.15776 0.0
H1021 H 0.83653 0.25176 0.16735 0.0
H1022 H 0.90458 0.29273 0.17857 0.0
H1023 H 0.91849 0.32842 0.18272 0.0
C1024 C 0.16302 0.40827 0.80805 0.0
C1025 C 0.1919 0.42007 0.80935 0.0
C1026 C 0.18293 0.46615 0.82062 0.0
C1027 C 0.15484 0.45357 0.82518 0.0
N1028 N 0.11661 0.41614 0.80923 0.0
N1029 N 0.22965 0.45997 0.81964 0.0
C1030 C 0.14432 0.42548 0.81489 0.0
C1031 C 0.20195 0.449 0.81604 0.0
N1032 N 0.1535 0.38059 0.80037 0.0
N1033 N 0.19109 0.49434 0.81833 0.0
H1034 H 0.24444 0.44813 0.81729 0.0
H1035 H 0.23777 0.48029 0.82774 0.0
H1036 H 0.17714 0.50722 0.81802 0.0
H1037 H 0.21088 0.5043 0.81255 0.0
H1038 H 0.13329 0.36968 0.80297 0.0
H1039 H 0.1661 0.368 0.7922 0.0
H1040 H 0.10754 0.39665 0.79971 0.0
H1041 H 0.10276 0.42913 0.81073 0.0
C1042 C 0.22224 0.75385 0.22386 0.0
C1043 C 0.20913 0.77628 0.22898 0.0
C1044 C 0.16398 0.74366 0.22456 0.0
C1045 C 0.17726 0.72094 0.22456 0.0
N1046 N 0.21708 0.70575 0.20716 0.0
N1047 N 0.16749 0.79295 0.23494 0.0
C1048 C 0.20589 0.72641 0.21897 0.0
C1049 C 0.17998 0.77132 0.22959 0.0
N1050 N 0.25038 0.75844 0.22548 0.0
N1051 N 0.13692 0.73924 0.21586 0.0
H1052 H 0.17833 0.81371 0.23708 0.0
H1053 H 0.14659 0.79007 0.23918 0.0
H1054 H 0.12627 0.72029 0.20619 0.0
H1055 H 0.12654 0.75519 0.21347 0.0
H1056 H 0.2609 0.74239 0.22534 0.0
H1057 H 0.26326 0.77811 0.22976 0.0
H1058 H 0.23718 0.70918 0.1999 0.0
H1059 H 0.2053 0.68588 0.20137 0.0
C1060 C 0.76844 0.79548 0.64951 0.0
C1061 C 0.7642 0.80766 0.67693 0.0
C1062 C 0.76259 0.85133 0.65411 0.0
C1063 C 0.77255 0.841 0.62826 0.0
N1064 N 0.76732 0.79938 0.59741 0.0
N1065 N 0.75577 0.84686 0.70562 0.0
C1066 C 0.77008 0.81176 0.62464 0.0
C1067 C 0.76076 0.83549 0.67931 0.0
N1068 N 0.77255 0.76896 0.64743 0.0
N1069 N 0.75168 0.87435 0.65358 0.0
H1070 H 0.75196 0.83539 0.72419 0.0
H1071 H 0.75682 0.86808 0.70933 0.0
H1072 H 0.74794 0.88316 0.63421 0.0
H1073 H 0.74225 0.88182 0.67117 0.0
H1074 H 0.77896 0.76029 0.62856 0.0
H1075 H 0.77177 0.75637 0.66516 0.0
H1076 H 0.76295 0.77785 0.59339 0.0
H1077 H 0.76596 0.81054 0.57891 0.0
C1078 C 0.7026 0.34652 0.14806 0.0
C1079 C 0.69478 0.32328 0.1655 0.0
C1080 C 0.65495 0.34089 0.18091 0.0
C1081 C 0.66669 0.36741 0.16952 0.0
N1082 N 0.7049 0.39537 0.14361 0.0
N1083 N 0.6648 0.29977 0.20161 0.0
C1084 C 0.69124 0.37018 0.15314 0.0
C1085 C 0.67117 0.32066 0.18259 0.0
N1086 N 0.72081 0.34595 0.12641 0.0
N1087 N 0.62823 0.33439 0.18948 0.0
H1088 H 0.6762 0.28463 0.20391 0.0
H1089 H 0.64965 0.29906 0.217 0.0
H1090 H 0.61428 0.34693 0.1865 0.0
H1091 H 0.61863 0.31452 0.19571 0.0
H1092 H 0.72516 0.36122 0.11113 0.0
H1093 H 0.72903 0.32862 0.12172 0.0
H1094 H 0.72447 0.39843 0.13496 0.0
H1095 H 0.69848 0.41391 0.14633 0.0
C1096 C 0.30876 0.32658 0.68041 0.0
C1097 C 0.3078 0.33469 0.7101 0.0
C1098 C 0.32522 0.29415 0.72383 0.0
C1099 C 0.32106 0.2834 0.69467 0.0
N1100 N 0.32725 0.29826 0.64557 0.0
N1101 N 0.31556 0.32672 0.76064 0.0
C1102 C 0.31805 0.30208 0.67277 0.0
C1103 C 0.31639 0.31876 0.732 0.0
N1104 N 0.30009 0.34181 0.65952 0.0
N1105 N 0.33967 0.28212 0.74309 0.0
H1106 H 0.31038 0.34519 0.76768 0.0
H1107 H 0.31827 0.31413 0.77755 0.0
H1108 H 0.34843 0.26548 0.73709 0.0
H1109 H 0.34585 0.29057 0.76386 0.0
H1110 H 0.29738 0.33509 0.63774 0.0
H1111 H 0.2935 0.3601 0.66431 0.0
H1112 H 0.32741 0.3123 0.62927 0.0
H1113 H 0.33891 0.28361 0.64085 0.0
C1114 C 0.35886 0.84454 0.2239 0.0
C1115 C 0.34427 0.86588 0.22071 0.0
C1116 C 0.37113 0.8817 0.178 0.0
C1117 C 0.38323 0.85812 0.17939 0.0
N1118 N 0.39782 0.82636 0.21221 0.0
N1119 N 0.34171 0.9095 0.20042 0.0
C1120 C 0.38023 0.84269 0.20494 0.0
C1121 C 0.35197 0.88596 0.19939 0.0
N1122 N 0.35224 0.8254 0.24473 0.0
N1123 N 0.37803 0.89995 0.15643 0.0
H1124 H 0.32834 0.91346 0.21635 0.0
H1125 H 0.34775 0.92615 0.18706 0.0
H1126 H 0.39464 0.89988 0.14312 0.0
H1127 H 0.36748 0.91522 0.15151 0.0
H1128 H 0.36256 0.80934 0.24718 0.0
H1129 H 0.33582 0.82465 0.25854 0.0
H1130 H 0.41585 0.82579 0.20129 0.0
H1131 H 0.41585 0.82579 0.20129 0.0
C1132 C 0.78093 0.18921 0.30627 0.0
C1133 C 0.76569 0.17483 0.28175 0.0
C1134 C 0.76233 0.13093 0.30563 0.0
C1135 C 0.77016 0.14572 0.33271 0.0
N1136 N 0.79225 0.18965 0.35757 0.0
N1137 N 0.73968 0.13148 0.25908 0.0
C1138 C 0.78139 0.1751 0.33258 0.0
C1139 C 0.75582 0.14552 0.28164 0.0
N1140 N 0.79585 0.21596 0.30406 0.0
N1141 N 0.76395 0.10376 0.30175 0.0
H1142 H 0.73377 0.14134 0.24125 0.0
H1143 H 0.73009 0.11037 0.25961 0.0
H1144 H 0.77422 0.09412 0.31672 0.0
H1145 H 0.75983 0.09275 0.28177 0.0
H1146 H 0.80968 0.22664 0.32011 0.0
H1147 H 0.79655 0.22667 0.28495 0.0
H1148 H 0.79676 0.21133 0.35988 0.0
H1149 H 0.79589 0.18014 0.37654 0.0
C1150 C 0.36564 0.38322 0.80814 0.0
C1151 C 0.33726 0.39133 0.82863 0.0
C1152 C 0.36293 0.37785 0.88778 0.0
C1153 C 0.39448 0.37732 0.86694 0.0
N1154 N 0.41546 0.36679 0.81269 0.0
N1155 N 0.31289 0.39151 0.88172 0.0
C1156 C 0.39401 0.37313 0.82672 0.0
C1157 C 0.33535 0.38772 0.86767 0.0
N1158 N 0.36504 0.38341 0.77887 0.0
N1159 N 0.36201 0.37462 0.91662 0.0
H1160 H 0.29675 0.39735 0.87069 0.0
H1161 H 0.31158 0.38901 0.90403 0.0
H1162 H 0.37876 0.37018 0.92791 0.0
H1163 H 0.37876 0.37018 0.92791 0.0
H1164 H 0.38085 0.3783 0.76689 0.0
H1165 H 0.34886 0.38866 0.76745 0.0
H1166 H 0.41586 0.36578 0.79011 0.0
H1167 H 0.43203 0.36266 0.82457 0.0
C1168 C 0.35818 0.95733 0.35055 0.0
C1169 C 0.33333 0.94089 0.36071 0.0
C1170 C 0.34254 0.96495 0.40873 0.0
C1171 C 0.36906 0.97928 0.39963 0.0
N1172 N 0.39718 0.99624 0.35882 0.0
N1173 N 0.30178 0.92768 0.39912 0.0
C1174 C 0.37532 0.97776 0.36958 0.0
C1175 C 0.32541 0.94449 0.38964 0.0
N1176 N 0.36662 0.95182 0.32331 0.0
N1177 N 0.33282 0.97208 0.43483 0.0
H1178 H 0.28772 0.91391 0.3853 0.0
H1179 H 0.2968 0.92605 0.42087 0.0
H1180 H 0.34312 0.98848 0.44866 0.0
H1181 H 0.3128 0.9643 0.44138 0.0
H1182 H 0.38635 0.95995 0.31607 0.0
H1183 H 0.35477 0.93723 0.30845 0.0
H1184 H 0.40019 0.99865 0.33673 0.0
H1185 H 0.4112 0.01113 0.37132 0.0
C1186 C 0.67282 0.76462 0.81258 0.0
C1187 C 0.69878 0.78372 0.81519 0.0
C1188 C 0.68303 0.80756 0.85691 0.0
C1189 C 0.65756 0.78711 0.8557 0.0
N1190 N 0.62447 0.75622 0.82324 0.0
N1191 N 0.72775 0.82564 0.83773 0.0
C1192 C 0.65127 0.76849 0.83084 0.0
C1193 C 0.7036 0.80574 0.83671 0.0
N1194 N 0.66895 0.74217 0.79331 0.0
N1195 N 0.68798 0.83009 0.87596 0.0
H1196 H 0.74322 0.82611 0.82274 0.0
H1197 H 0.73212 0.842 0.85345 0.0
H1198 H 0.67366 0.83513 0.89016 0.0
H1199 H 0.67366 0.83513 0.89016 0.0
H1200 H 0.65142 0.72591 0.79283 0.0
H1201 H 0.6843 0.73843 0.77966 0.0
H1202 H 0.61867 0.74422 0.80408 0.0
H1203 H 0.60779 0.76146 0.8336 0.0
loop_
_geom_bond_atom_site_label_1
_geom_bond_atom_site_label_2
_geom_bond_distance
_geom_bond_site_symmetry_2
_ccdc_geom_bond_type
O0 Cd1 2.300 . S
O0 C7 1.275 . S
Cd1 O0 2.300 . S
Cd1 O9 2.381 . S
Cd1 O10 2.378 . S
O2 Cd3 2.385 . S
O2 C7 1.255 . S
Cd3 O2 2.385 . S
Cd3 O4 2.317 . S
O4 Cd3 2.317 . S
O4 C5 1.232 . S
C5 O4 1.232 . S
C5 O6 1.218 . S
O6 C5 1.218 . S
C7 O0 1.275 . S
C7 O2 1.255 . S
C8 O9 1.258 . S
C8 O10 1.256 . S
O9 Cd1 2.381 . S
O9 C8 1.258 . S
O10 Cd1 2.378 . S
O10 C8 1.256 . S
O11 Cd12 2.300 . S
O11 C18 1.275 . S
Cd12 O11 2.300 . S
Cd12 O20 2.381 . S
Cd12 O21 2.378 . S
O13 Cd14 2.385 . S
O13 C18 1.255 . S
Cd14 O13 2.385 . S
Cd14 O15 2.317 . S
O15 Cd14 2.317 . S
O15 C16 1.232 . S
C16 O15 1.232 . S
C16 O17 1.218 . S
O17 C16 1.218 . S
C18 O11 1.275 . S
C18 O13 1.255 . S
C19 O20 1.258 . S
C19 O21 1.256 . S
O20 Cd12 2.381 . S
O20 C19 1.258 . S
O21 Cd12 2.378 . S
O21 C19 1.256 . S
O22 Cd23 2.300 . S
O22 C29 1.275 . S
Cd23 O22 2.300 . S
Cd23 O31 2.381 . S
Cd23 O32 2.378 . S
O24 Cd25 2.385 . S
O24 C29 1.255 . S
Cd25 O24 2.385 . S
Cd25 O26 2.317 . S
O26 Cd25 2.317 . S
O26 C27 1.232 . S
C27 O26 1.232 . S
C27 O28 1.218 . S
O28 C27 1.218 . S
C29 O22 1.275 . S
C29 O24 1.255 . S
C30 O31 1.258 . S
C30 O32 1.256 . S
O31 Cd23 2.381 . S
O31 C30 1.258 . S
O32 Cd23 2.378 . S
O32 C30 1.256 . S
O33 Cd34 2.300 . S
O33 C40 1.275 . S
Cd34 O33 2.300 . S
Cd34 O42 2.381 . S
Cd34 O43 2.378 . S
O35 Cd36 2.385 . S
O35 C40 1.255 . S
Cd36 O35 2.385 . S
Cd36 O37 2.317 . S
O37 Cd36 2.317 . S
O37 C38 1.232 . S
C38 O37 1.232 . S
C38 O39 1.218 . S
O39 C38 1.218 . S
C40 O33 1.275 . S
C40 O35 1.255 . S
C41 O42 1.258 . S
C41 O43 1.256 . S
O42 Cd34 2.381 . S
O42 C41 1.258 . S
O43 Cd34 2.378 . S
O43 C41 1.256 . S
O44 Cd45 2.300 . S
O44 C51 1.275 . S
Cd45 O44 2.300 . S
Cd45 O53 2.381 . S
Cd45 O54 2.378 . S
O46 Cd47 2.385 . S
O46 C51 1.255 . S
Cd47 O46 2.385 . S
Cd47 O48 2.317 . S
O48 Cd47 2.317 . S
O48 C49 1.232 . S
C49 O48 1.232 . S
C49 O50 1.218 . S
O50 C49 1.218 . S
C51 O44 1.275 . S
C51 O46 1.255 . S
C52 O53 1.258 . S
C52 O54 1.256 . S
O53 Cd45 2.381 . S
O53 C52 1.258 . S
O54 Cd45 2.378 . S
O54 C52 1.256 . S
O55 Cd56 2.300 . S
O55 C62 1.275 . S
Cd56 O55 2.300 . S
Cd56 O64 2.381 . S
Cd56 O65 2.378 . S
O57 Cd58 2.385 . S
O57 C62 1.255 . S
Cd58 O57 2.385 . S
Cd58 O59 2.317 . S
O59 Cd58 2.317 . S
O59 C60 1.232 . S
C60 O59 1.232 . S
C60 O61 1.218 . S
O61 C60 1.218 . S
C62 O55 1.275 . S
C62 O57 1.255 . S
C63 O64 1.258 . S
C63 O65 1.256 . S
O64 Cd56 2.381 . S
O64 C63 1.258 . S
O65 Cd56 2.378 . S
O65 C63 1.256 . S
O66 Cd67 2.300 . S
O66 C73 1.275 . S
Cd67 O66 2.300 . S
Cd67 O75 2.381 . S
Cd67 O76 2.378 . S
O68 Cd69 2.385 . S
O68 C73 1.255 . S
Cd69 O68 2.385 . S
Cd69 O70 2.317 . S
O70 Cd69 2.317 . S
O70 C71 1.232 . S
C71 O70 1.232 . S
C71 O72 1.218 . S
O72 C71 1.218 . S
C73 O66 1.275 . S
C73 O68 1.255 . S
C74 O75 1.258 . S
C74 O76 1.256 . S
O75 Cd67 2.381 . S
O75 C74 1.258 . S
O76 Cd67 2.378 . S
O76 C74 1.256 . S
O77 Cd78 2.300 . S
O77 C84 1.275 . S
Cd78 O77 2.300 . S
Cd78 O86 2.381 . S
Cd78 O87 2.378 . S
O79 Cd80 2.385 . S
O79 C84 1.255 . S
Cd80 O79 2.385 . S
Cd80 O81 2.317 . S
O81 Cd80 2.317 . S
O81 C82 1.232 . S
C82 O81 1.232 . S
C82 O83 1.218 . S
O83 C82 1.218 . S
C84 O77 1.275 . S
C84 O79 1.255 . S
C85 O86 1.258 . S
C85 O87 1.256 . S
O86 Cd78 2.381 . S
O86 C85 1.258 . S
O87 Cd78 2.378 . S
O87 C85 1.256 . S
C88 C89 1.560 . S
C88 H149 0.959 . S
C88 H150 0.959 . S
C88 H151 0.960 . S
C89 C88 1.560 . S
C89 O144 1.426 . S
C89 H148 0.980 . S
C90 C91 1.407 . S
C90 C95 1.418 . S
C90 O144 1.334 . S
C91 C90 1.407 . S
C91 C92 1.360 . S
C91 H152 0.929 . S
C92 C91 1.360 . S
C92 C93 1.401 . S
C92 C96 1.527 . S
C93 C92 1.401 . S
C93 C94 1.405 . S
C93 C126 1.587 1_655 S
C94 C93 1.405 . S
C94 C95 1.332 . S
C94 C97 1.496 1_655 S
C95 C90 1.418 . S
C95 C94 1.332 . S
C95 H153 0.929 . S
C96 C92 1.527 . S
C96 H154 0.959 . S
C96 H155 0.961 . S
C96 H156 0.961 . S
C97 C94 1.496 1_455 S
C97 H157 0.960 1_455 S
C97 H158 0.960 . S
C97 H159 0.961 . S
C98 C99 1.517 . S
C98 H161 0.961 . S
C98 H162 0.960 . S
C98 H163 0.959 . S
C99 C98 1.517 . S
C99 O147 1.468 . S
C99 H160 0.980 . S
C100 C101 1.349 . S
C100 C105 1.367 . S
C100 O147 1.408 . S
C101 C100 1.349 . S
C101 C102 1.407 . S
C101 H164 0.930 . S
C102 C101 1.407 . S
C102 C103 1.449 . S
C102 C106 1.535 . S
C103 C102 1.449 . S
C103 C104 1.384 . S
C103 C128 1.553 . S
C104 C103 1.384 . S
C104 C105 1.364 . S
C104 C107 1.450 . S
C105 C100 1.367 . S
C105 C104 1.364 . S
C105 H165 0.931 . S
C106 C102 1.535 . S
C106 H166 0.959 . S
C106 H167 0.961 . S
C106 H168 0.959 . S
C107 C104 1.450 . S
C107 H169 0.960 . S
C107 H170 0.960 . S
C107 H171 0.960 . S
C108 C109 1.309 . S
C108 C113 1.304 . S
C108 O146 1.435 . S
C109 C108 1.309 . S
C109 C110 1.476 . S
C109 H173 0.930 . S
C110 C109 1.476 . S
C110 C111 1.400 . S
C110 C114 1.567 . S
C111 C110 1.400 . S
C111 C112 1.373 . S
C111 C133 1.432 . S
C112 C111 1.373 . S
C112 C113 1.339 . S
C112 C115 1.530 . S
C113 C108 1.304 . S
C113 C112 1.339 . S
C113 H174 0.930 . S
C114 C110 1.567 . S
C114 H175 0.961 . S
C114 H176 0.960 . S
C114 H177 0.958 . S
C115 C112 1.530 . S
C115 H178 0.961 . S
C115 H179 0.960 . S
C115 H180 0.960 . S
C116 C117 1.530 . S
C116 H182 0.961 . S
C116 H183 0.961 . S
C116 H184 0.959 . S
C117 C116 1.530 . S
C117 O145 1.412 . S
C117 H181 0.980 . S
C118 C119 1.288 . S
C118 C123 1.377 . S
C118 O145 1.393 . S
C119 C118 1.288 . S
C119 C120 1.369 . S
C119 H185 0.932 . S
C120 C119 1.369 . S
C120 C121 1.398 . S
C120 C124 1.527 1_655 S
C121 C120 1.398 . S
C121 C122 1.380 . S
C121 C135 1.497 1_655 S
C122 C121 1.380 . S
C122 C123 1.383 . S
C122 C125 1.603 . S
C123 C118 1.377 . S
C123 C122 1.383 . S
C123 H186 0.929 . S
C124 C120 1.527 1_455 S
C124 H187 0.961 . S
C124 H188 0.959 . S
C124 H189 0.959 1_455 S
C125 C122 1.603 . S
C125 H190 0.960 . S
C125 H191 0.962 . S
C125 H192 0.961 . S
C126 C93 1.587 1_455 S
C126 C127 1.360 . S
C126 C139 1.412 . S
C127 C126 1.360 . S
C127 C128 1.365 . S
C127 H193 0.929 . S
C128 C103 1.553 . S
C128 C127 1.365 . S
C128 C129 1.404 . S
C129 C128 1.404 . S
C129 C130 1.395 . S
C129 C140 1.451 . S
C130 C129 1.395 . S
C130 C131 1.322 . S
C130 H194 0.930 . S
C131 C130 1.322 . S
C131 C132 1.459 . S
C131 H195 0.929 . S
C132 C131 1.459 . S
C132 C133 1.445 . S
C132 C141 1.395 . S
C133 C111 1.432 . S
C133 C132 1.445 . S
C133 C134 1.370 . S
C134 C133 1.370 . S
C134 C135 1.438 . S
C134 H196 0.930 . S
C135 C121 1.497 1_455 S
C135 C134 1.438 . S
C135 C136 1.360 . S
C136 C135 1.360 . S
C136 C137 1.401 1_455 S
C136 C141 1.446 . S
C137 C136 1.401 1_655 S
C137 C138 1.347 . S
C137 H197 0.929 . S
C138 C137 1.347 . S
C138 C139 1.455 1_655 S
C138 H198 0.930 . S
C139 C126 1.412 . S
C139 C138 1.455 1_455 S
C139 C140 1.331 . S
C140 C129 1.451 . S
C140 C139 1.331 . S
C140 C141 1.497 . S
C141 C132 1.395 . S
C141 C136 1.446 . S
C141 C140 1.497 . S
C142 C143 1.582 . S
C142 H199 0.962 . S
C142 H200 0.959 . S
C142 H201 0.958 . S
C143 C142 1.582 . S
C143 O146 1.458 . S
C143 H172 0.980 . S
O144 C89 1.426 . S
O144 C90 1.334 . S
O145 C117 1.412 . S
O145 C118 1.393 . S
O146 C108 1.435 . S
O146 C143 1.458 . S
O147 C99 1.468 . S
O147 C100 1.408 . S
H148 C89 0.980 . S
H149 C88 0.959 . S
H150 C88 0.959 . S
H151 C88 0.960 . S
H152 C91 0.929 . S
H153 C95 0.929 . S
H154 C96 0.959 . S
H155 C96 0.961 . S
H156 C96 0.961 . S
H157 C97 0.960 1_655 S
H158 C97 0.960 . S
H159 C97 0.961 . S
H160 C99 0.980 . S
H161 C98 0.961 . S
H162 C98 0.960 . S
H163 C98 0.959 . S
H164 C101 0.930 . S
H165 C105 0.931 . S
H166 C106 0.959 . S
H167 C106 0.961 . S
H168 C106 0.959 . S
H169 C107 0.960 . S
H170 C107 0.960 . S
H171 C107 0.960 . S
H172 C143 0.980 . S
H173 C109 0.930 . S
H174 C113 0.930 . S
H175 C114 0.961 . S
H176 C114 0.960 . S
H177 C114 0.958 . S
H178 C115 0.961 . S
H179 C115 0.960 . S
H180 C115 0.960 . S
H181 C117 0.980 . S
H182 C116 0.961 . S
H183 C116 0.961 . S
H184 C116 0.959 . S
H185 C119 0.932 . S
H186 C123 0.929 . S
H187 C124 0.961 . S
H188 C124 0.959 . S
H189 C124 0.959 1_655 S
H190 C125 0.960 . S
H191 C125 0.962 . S
H192 C125 0.961 . S
H193 C127 0.929 . S
H194 C130 0.930 . S
H195 C131 0.929 . S
H196 C134 0.930 . S
H197 C137 0.929 . S
H198 C138 0.930 . S
H199 C142 0.962 . S
H200 C142 0.959 . S
H201 C142 0.958 . S
C202 C203 1.560 . S
C202 H263 0.959 . S
C202 H264 0.959 . S
C202 H265 0.960 . S
C203 C202 1.560 . S
C203 O258 1.426 . S
C203 H262 0.980 . S
C204 C205 1.407 . S
C204 C209 1.418 . S
C204 O258 1.334 . S
C205 C204 1.407 . S
C205 C206 1.360 . S
C205 H266 0.929 . S
C206 C205 1.360 . S
C206 C207 1.401 . S
C206 C210 1.527 . S
C207 C206 1.401 . S
C207 C208 1.405 . S
C207 C240 1.587 . S
C208 C207 1.405 . S
C208 C209 1.332 . S
C208 C211 1.496 . S
C209 C204 1.418 . S
C209 C208 1.332 . S
C209 H267 0.929 . S
C210 C206 1.527 . S
C210 H268 0.959 . S
C210 H269 0.961 . S
C210 H270 0.961 . S
C211 C208 1.496 . S
C211 H271 0.960 . S
C211 H272 0.960 . S
C211 H273 0.961 . S
C212 C213 1.517 . S
C212 H275 0.961 . S
C212 H276 0.960 . S
C212 H277 0.959 . S
C213 C212 1.517 . S
C213 O261 1.468 . S
C213 H274 0.980 . S
C214 C215 1.349 . S
C214 C219 1.367 . S
C214 O261 1.408 . S
C215 C214 1.349 . S
C215 C216 1.407 . S
C215 H278 0.930 . S
C216 C215 1.407 . S
C216 C217 1.449 . S
C216 C220 1.535 . S
C217 C216 1.449 . S
C217 C218 1.384 . S
C217 C242 1.553 . S
C218 C217 1.384 . S
C218 C219 1.364 . S
C218 C221 1.450 . S
C219 C214 1.367 . S
C219 C218 1.364 . S
C219 H279 0.931 . S
C220 C216 1.535 . S
C220 H280 0.959 . S
C220 H281 0.961 . S
C220 H282 0.959 . S
C221 C218 1.450 . S
C221 H283 0.960 . S
C221 H284 0.960 . S
C221 H285 0.960 . S
C222 C223 1.309 . S
C222 C227 1.304 . S
C222 O260 1.435 . S
C223 C222 1.309 . S
C223 C224 1.476 . S
C223 H287 0.930 . S
C224 C223 1.476 . S
C224 C225 1.400 . S
C224 C228 1.567 . S
C225 C224 1.400 . S
C225 C226 1.373 . S
C225 C247 1.432 . S
C226 C225 1.373 . S
C226 C227 1.339 . S
C226 C229 1.530 . S
C227 C222 1.304 . S
C227 C226 1.339 . S
C227 H288 0.930 . S
C228 C224 1.567 . S
C228 H289 0.961 . S
C228 H290 0.960 . S
C228 H291 0.958 . S
C229 C226 1.530 . S
C229 H292 0.961 . S
C229 H293 0.960 . S
C229 H294 0.960 . S
C230 C231 1.530 . S
C230 H296 0.961 . S
C230 H297 0.961 . S
C230 H298 0.959 . S
C231 C230 1.530 . S
C231 O259 1.412 . S
C231 H295 0.980 . S
C232 C233 1.288 . S
C232 C237 1.377 . S
C232 O259 1.393 . S
C233 C232 1.288 . S
C233 C234 1.369 . S
C233 H299 0.932 . S
C234 C233 1.369 . S
C234 C235 1.398 . S
C234 C238 1.527 . S
C235 C234 1.398 . S
C235 C236 1.380 . S
C235 C249 1.497 . S
C236 C235 1.380 . S
C236 C237 1.383 . S
C236 C239 1.603 . S
C237 C232 1.377 . S
C237 C236 1.383 . S
C237 H300 0.929 . S
C238 C234 1.527 . S
C238 H301 0.961 . S
C238 H302 0.959 . S
C238 H303 0.959 . S
C239 C236 1.603 . S
C239 H304 0.960 . S
C239 H305 0.962 . S
C239 H306 0.961 . S
C240 C207 1.587 . S
C240 C241 1.360 . S
C240 C253 1.412 . S
C241 C240 1.360 . S
C241 C242 1.365 1_455 S
C241 H307 0.929 . S
C242 C217 1.553 . S
C242 C241 1.365 1_655 S
C242 C243 1.404 . S
C243 C242 1.404 . S
C243 C244 1.395 . S
C243 C254 1.451 1_655 S
C244 C243 1.395 . S
C244 C245 1.322 . S
C244 H308 0.930 . S
C245 C244 1.322 . S
C245 C246 1.459 . S
C245 H309 0.929 . S
C246 C245 1.459 . S
C246 C247 1.445 . S
C246 C255 1.395 1_655 S
C247 C225 1.432 . S
C247 C246 1.445 . S
C247 C248 1.370 1_655 S
C248 C247 1.370 1_455 S
C248 C249 1.438 . S
C248 H310 0.930 . S
C249 C235 1.497 . S
C249 C248 1.438 . S
C249 C250 1.360 . S
C250 C249 1.360 . S
C250 C251 1.401 . S
C250 C255 1.446 . S
C251 C250 1.401 . S
C251 C252 1.347 . S
C251 H311 0.929 . S
C252 C251 1.347 . S
C252 C253 1.455 . S
C252 H312 0.930 . S
C253 C240 1.412 . S
C253 C252 1.455 . S
C253 C254 1.331 . S
C254 C243 1.451 1_455 S
C254 C253 1.331 . S
C254 C255 1.497 . S
C255 C246 1.395 1_455 S
C255 C250 1.446 . S
C255 C254 1.497 . S
C256 C257 1.582 . S
C256 H313 0.962 . S
C256 H314 0.959 . S
C256 H315 0.958 . S
C257 C256 1.582 . S
C257 O260 1.458 . S
C257 H286 0.980 . S
O258 C203 1.426 . S
O258 C204 1.334 . S
O259 C231 1.412 . S
O259 C232 1.393 . S
O260 C222 1.435 . S
O260 C257 1.458 . S
O261 C213 1.468 . S
O261 C214 1.408 . S
H262 C203 0.980 . S
H263 C202 0.959 . S
H264 C202 0.959 . S
H265 C202 0.960 . S
H266 C205 0.929 . S
H267 C209 0.929 . S
H268 C210 0.959 . S
H269 C210 0.961 . S
H270 C210 0.961 . S
H271 C211 0.960 . S
H272 C211 0.960 . S
H273 C211 0.961 . S
H274 C213 0.980 . S
H275 C212 0.961 . S
H276 C212 0.960 . S
H277 C212 0.959 . S
H278 C215 0.930 . S
H279 C219 0.931 . S
H280 C220 0.959 . S
H281 C220 0.961 . S
H282 C220 0.959 . S
H283 C221 0.960 . S
H284 C221 0.960 . S
H285 C221 0.960 . S
H286 C257 0.980 . S
H287 C223 0.930 . S
H288 C227 0.930 . S
H289 C228 0.961 . S
H290 C228 0.960 . S
H291 C228 0.958 . S
H292 C229 0.961 . S
H293 C229 0.960 . S
H294 C229 0.960 . S
H295 C231 0.980 . S
H296 C230 0.961 . S
H297 C230 0.961 . S
H298 C230 0.959 . S
H299 C233 0.932 . S
H300 C237 0.929 . S
H301 C238 0.961 . S
H302 C238 0.959 . S
H303 C238 0.959 . S
H304 C239 0.960 . S
H305 C239 0.962 . S
H306 C239 0.961 . S
H307 C241 0.929 . S
H308 C244 0.930 . S
H309 C245 0.929 . S
H310 C248 0.930 . S
H311 C251 0.929 . S
H312 C252 0.930 . S
H313 C256 0.962 . S
H314 C256 0.959 . S
H315 C256 0.958 . S
C316 C317 1.560 . S
C316 H377 0.959 . S
C316 H378 0.959 . S
C316 H379 0.960 . S
C317 C316 1.560 . S
C317 O372 1.426 . S
C317 H376 0.980 . S
C318 C319 1.407 . S
C318 C323 1.418 . S
C318 O372 1.334 . S
C319 C318 1.407 . S
C319 C320 1.360 . S
C319 H380 0.929 . S
C320 C319 1.360 . S
C320 C321 1.401 . S
C320 C324 1.527 . S
C321 C320 1.401 . S
C321 C322 1.405 . S
C321 C354 1.587 . S
C322 C321 1.405 . S
C322 C323 1.332 . S
C322 C325 1.496 . S
C323 C318 1.418 . S
C323 C322 1.332 . S
C323 H381 0.929 . S
C324 C320 1.527 . S
C324 H382 0.959 . S
C324 H383 0.961 . S
C324 H384 0.961 . S
C325 C322 1.496 . S
C325 H385 0.960 . S
C325 H386 0.960 . S
C325 H387 0.961 . S
C326 C327 1.517 1_565 S
C326 H389 0.961 . S
C326 H390 0.960 . S
C326 H391 0.959 . S
C327 C326 1.517 1_545 S
C327 O375 1.468 . S
C327 H388 0.980 . S
C328 C329 1.349 . S
C328 C333 1.367 . S
C328 O375 1.408 . S
C329 C328 1.349 . S
C329 C330 1.407 . S
C329 H392 0.930 . S
C330 C329 1.407 . S
C330 C331 1.449 . S
C330 C334 1.535 . S
C331 C330 1.449 . S
C331 C332 1.384 . S
C331 C356 1.553 . S
C332 C331 1.384 . S
C332 C333 1.364 . S
C332 C335 1.450 . S
C333 C328 1.367 . S
C333 C332 1.364 . S
C333 H393 0.931 . S
C334 C330 1.535 . S
C334 H394 0.959 . S
C334 H395 0.961 . S
C334 H396 0.959 . S
C335 C332 1.450 . S
C335 H397 0.960 . S
C335 H398 0.960 . S
C335 H399 0.960 . S
C336 C337 1.309 . S
C336 C341 1.304 . S
C336 O374 1.435 . S
C337 C336 1.309 . S
C337 C338 1.476 . S
C337 H401 0.930 . S
C338 C337 1.476 . S
C338 C339 1.400 . S
C338 C342 1.567 . S
C339 C338 1.400 . S
C339 C340 1.373 . S
C339 C361 1.432 . S
C340 C339 1.373 . S
C340 C341 1.339 . S
C340 C343 1.530 . S
C341 C336 1.304 . S
C341 C340 1.339 . S
C341 H402 0.930 . S
C342 C338 1.567 . S
C342 H403 0.961 . S
C342 H404 0.960 . S
C342 H405 0.958 . S
C343 C340 1.530 . S
C343 H406 0.961 . S
C343 H407 0.960 . S
C343 H408 0.960 . S
C344 C345 1.530 . S
C344 H410 0.961 . S
C344 H411 0.961 . S
C344 H412 0.959 . S
C345 C344 1.530 . S
C345 O373 1.412 . S
C345 H409 0.980 . S
C346 C347 1.288 . S
C346 C351 1.377 . S
C346 O373 1.393 . S
C347 C346 1.288 . S
C347 C348 1.369 . S
C347 H413 0.932 . S
C348 C347 1.369 . S
C348 C349 1.398 . S
C348 C352 1.527 . S
C349 C348 1.398 . S
C349 C350 1.380 . S
C349 C363 1.497 . S
C350 C349 1.380 . S
C350 C351 1.383 . S
C350 C353 1.603 . S
C351 C346 1.377 . S
C351 C350 1.383 . S
C351 H414 0.929 . S
C352 C348 1.527 . S
C352 H415 0.961 . S
C352 H416 0.959 . S
C352 H417 0.959 . S
C353 C350 1.603 . S
C353 H418 0.960 . S
C353 H419 0.962 . S
C353 H420 0.961 . S
C354 C321 1.587 . S
C354 C355 1.360 . S
C354 C367 1.412 . S
C355 C354 1.360 . S
C355 C356 1.365 . S
C355 H421 0.929 . S
C356 C331 1.553 . S
C356 C355 1.365 . S
C356 C357 1.404 . S
C357 C356 1.404 . S
C357 C358 1.395 . S
C357 C368 1.451 . S
C358 C357 1.395 . S
C358 C359 1.322 . S
C358 H422 0.930 . S
C359 C358 1.322 . S
C359 C360 1.459 . S
C359 H423 0.929 . S
C360 C359 1.459 . S
C360 C361 1.445 . S
C360 C369 1.395 . S
C361 C339 1.432 . S
C361 C360 1.445 . S
C361 C362 1.370 . S
C362 C361 1.370 . S
C362 C363 1.438 . S
C362 H424 0.930 . S
C363 C349 1.497 . S
C363 C362 1.438 . S
C363 C364 1.360 . S
C364 C363 1.360 . S
C364 C365 1.401 . S
C364 C369 1.446 . S
C365 C364 1.401 . S
C365 C366 1.347 . S
C365 H425 0.929 . S
C366 C365 1.347 . S
C366 C367 1.455 . S
C366 H426 0.930 . S
C367 C354 1.412 . S
C367 C366 1.455 . S
C367 C368 1.331 . S
C368 C357 1.451 . S
C368 C367 1.331 . S
C368 C369 1.497 . S
C369 C360 1.395 . S
C369 C364 1.446 . S
C369 C368 1.497 . S
C370 C371 1.582 . S
C370 H427 0.962 . S
C370 H428 0.959 . S
C370 H429 0.958 . S
C371 C370 1.582 . S
C371 O374 1.458 1_565 S
C371 H400 0.980 . S
O372 C317 1.426 . S
O372 C318 1.334 . S
O373 C345 1.412 . S
O373 C346 1.393 . S
O374 C336 1.435 . S
O374 C371 1.458 1_545 S
O375 C327 1.468 . S
O375 C328 1.408 . S
H376 C317 0.980 . S
H377 C316 0.959 . S
H378 C316 0.959 . S
H379 C316 0.960 . S
H380 C319 0.929 . S
H381 C323 0.929 . S
H382 C324 0.959 . S
H383 C324 0.961 . S
H384 C324 0.961 . S
H385 C325 0.960 . S
H386 C325 0.960 . S
H387 C325 0.961 . S
H388 C327 0.980 . S
H389 C326 0.961 . S
H390 C326 0.960 . S
H391 C326 0.959 . S
H392 C329 0.930 . S
H393 C333 0.931 . S
H394 C334 0.959 . S
H395 C334 0.961 . S
H396 C334 0.959 . S
H397 C335 0.960 . S
H398 C335 0.960 . S
H399 C335 0.960 . S
H400 C371 0.980 . S
H401 C337 0.930 . S
H402 C341 0.930 . S
H403 C342 0.961 . S
H404 C342 0.960 . S
H405 C342 0.958 . S
H406 C343 0.961 . S
H407 C343 0.960 . S
H408 C343 0.960 . S
H409 C345 0.980 . S
H410 C344 0.961 . S
H411 C344 0.961 . S
H412 C344 0.959 . S
H413 C347 0.932 . S
H414 C351 0.929 . S
H415 C352 0.961 . S
H416 C352 0.959 . S
H417 C352 0.959 . S
H418 C353 0.960 . S
H419 C353 0.962 . S
H420 C353 0.961 . S
H421 C355 0.929 . S
H422 C358 0.930 . S
H423 C359 0.929 . S
H424 C362 0.930 . S
H425 C365 0.929 . S
H426 C366 0.930 . S
H427 C370 0.962 . S
H428 C370 0.959 . S
H429 C370 0.958 . S
C430 C431 1.560 . S
C430 H491 0.959 . S
C430 H492 0.959 . S
C430 H493 0.960 . S
C431 C430 1.560 . S
C431 O486 1.426 . S
C431 H490 0.980 . S
C432 C433 1.407 . S
C432 C437 1.418 . S
C432 O486 1.334 . S
C433 C432 1.407 . S
C433 C434 1.360 . S
C433 H494 0.929 . S
C434 C433 1.360 . S
C434 C435 1.401 . S
C434 C438 1.527 . S
C435 C434 1.401 . S
C435 C436 1.405 . S
C435 C468 1.587 . S
C436 C435 1.405 . S
C436 C437 1.332 . S
C436 C439 1.496 . S
C437 C432 1.418 . S
C437 C436 1.332 . S
C437 H495 0.929 . S
C438 C434 1.527 . S
C438 H496 0.959 . S
C438 H497 0.961 . S
C438 H498 0.961 . S
C439 C436 1.496 . S
C439 H499 0.960 . S
C439 H500 0.960 . S
C439 H501 0.961 . S
C440 C441 1.517 . S
C440 H503 0.961 . S
C440 H504 0.960 . S
C440 H505 0.959 . S
C441 C440 1.517 . S
C441 O489 1.468 . S
C441 H502 0.980 . S
C442 C443 1.349 . S
C442 C447 1.367 . S
C442 O489 1.408 . S
C443 C442 1.349 . S
C443 C444 1.407 . S
C443 H506 0.930 . S
C444 C443 1.407 . S
C444 C445 1.449 . S
C444 C448 1.535 . S
C445 C444 1.449 . S
C445 C446 1.384 . S
C445 C470 1.553 . S
C446 C445 1.384 . S
C446 C447 1.364 . S
C446 C449 1.450 . S
C447 C442 1.367 . S
C447 C446 1.364 . S
C447 H507 0.931 . S
C448 C444 1.535 . S
C448 H508 0.959 . S
C448 H509 0.961 . S
C448 H510 0.959 . S
C449 C446 1.450 . S
C449 H511 0.960 . S
C449 H512 0.960 . S
C449 H513 0.960 . S
C450 C451 1.309 . S
C450 C455 1.304 . S
C450 O488 1.435 . S
C451 C450 1.309 . S
C451 C452 1.476 . S
C451 H515 0.930 . S
C452 C451 1.476 . S
C452 C453 1.400 . S
C452 C456 1.567 . S
C453 C452 1.400 . S
C453 C454 1.373 . S
C453 C475 1.432 . S
C454 C453 1.373 . S
C454 C455 1.339 . S
C454 C457 1.530 . S
C455 C450 1.304 . S
C455 C454 1.339 . S
C455 H516 0.930 . S
C456 C452 1.567 . S
C456 H517 0.961 . S
C456 H518 0.960 . S
C456 H519 0.958 . S
C457 C454 1.530 . S
C457 H520 0.961 . S
C457 H521 0.960 . S
C457 H522 0.960 . S
C458 C459 1.530 . S
C458 H524 0.961 . S
C458 H525 0.961 . S
C458 H526 0.959 . S
C459 C458 1.530 . S
C459 O487 1.412 . S
C459 H523 0.980 . S
C460 C461 1.288 . S
C460 C465 1.377 . S
C460 O487 1.393 . S
C461 C460 1.288 . S
C461 C462 1.369 . S
C461 H527 0.932 . S
C462 C461 1.369 . S
C462 C463 1.398 . S
C462 C466 1.527 . S
C463 C462 1.398 . S
C463 C464 1.380 . S
C463 C477 1.497 . S
C464 C463 1.380 . S
C464 C465 1.383 . S
C464 C467 1.603 . S
C465 C460 1.377 . S
C465 C464 1.383 . S
C465 H528 0.929 . S
C466 C462 1.527 . S
C466 H529 0.961 . S
C466 H530 0.959 . S
C466 H531 0.959 . S
C467 C464 1.603 . S
C467 H532 0.960 . S
C467 H533 0.962 . S
C467 H534 0.961 . S
C468 C435 1.587 . S
C468 C469 1.360 . S
C468 C481 1.412 . S
C469 C468 1.360 . S
C469 C470 1.365 . S
C469 H535 0.929 . S
C470 C445 1.553 . S
C470 C469 1.365 . S
C470 C471 1.404 . S
C471 C470 1.404 . S
C471 C472 1.395 . S
C471 C482 1.451 . S
C472 C471 1.395 . S
C472 C473 1.322 1_554 S
C472 H536 0.930 . S
C473 C472 1.322 1_556 S
C473 C474 1.459 . S
C473 H537 0.929 . S
C474 C473 1.459 . S
C474 C475 1.445 . S
C474 C483 1.395 . S
C475 C453 1.432 . S
C475 C474 1.445 . S
C475 C476 1.370 . S
C476 C475 1.370 . S
C476 C477 1.438 . S
C476 H538 0.930 . S
C477 C463 1.497 . S
C477 C476 1.438 . S
C477 C478 1.360 . S
C478 C477 1.360 . S
C478 C479 1.403 . S
C478 C483 1.446 . S
C479 C478 1.403 . S
C479 C480 1.342 1_556 S
C479 H539 0.931 . S
C480 C479 1.342 1_554 S
C480 C481 1.455 . S
C480 H540 0.930 . S
C481 C468 1.412 . S
C481 C480 1.455 . S
C481 C482 1.331 . S
C482 C471 1.451 . S
C482 C481 1.331 . S
C482 C483 1.497 1_554 S
C483 C474 1.395 . S
C483 C478 1.446 . S
C483 C482 1.497 1_556 S
C484 C485 1.582 . S
C484 H541 0.962 . S
C484 H542 0.959 . S
C484 H543 0.958 . S
C485 C484 1.582 . S
C485 O488 1.458 . S
C485 H514 0.980 . S
O486 C431 1.426 . S
O486 C432 1.334 . S
O487 C459 1.412 . S
O487 C460 1.393 . S
O488 C450 1.435 . S
O488 C485 1.458 . S
O489 C441 1.468 . S
O489 C442 1.408 . S
H490 C431 0.980 . S
H491 C430 0.959 . S
H492 C430 0.959 . S
H493 C430 0.960 . S
H494 C433 0.929 . S
H495 C437 0.929 . S
H496 C438 0.959 . S
H497 C438 0.961 . S
H498 C438 0.961 . S
H499 C439 0.960 . S
H500 C439 0.960 . S
H501 C439 0.961 . S
H502 C441 0.980 . S
H503 C440 0.961 . S
H504 C440 0.960 . S
H505 C440 0.959 . S
H506 C443 0.930 . S
H507 C447 0.931 . S
H508 C448 0.959 . S
H509 C448 0.961 . S
H510 C448 0.959 . S
H511 C449 0.960 . S
H512 C449 0.960 . S
H513 C449 0.960 . S
H514 C485 0.980 . S
H515 C451 0.930 . S
H516 C455 0.930 . S
H517 C456 0.961 . S
H518 C456 0.960 . S
H519 C456 0.958 . S
H520 C457 0.961 . S
H521 C457 0.960 . S
H522 C457 0.960 . S
H523 C459 0.980 . S
H524 C458 0.961 . S
H525 C458 0.961 . S
H526 C458 0.959 . S
H527 C461 0.932 . S
H528 C465 0.929 . S
H529 C466 0.961 . S
H530 C466 0.959 . S
H531 C466 0.959 . S
H532 C467 0.960 . S
H533 C467 0.962 . S
H534 C467 0.961 . S
H535 C469 0.929 . S
H536 C472 0.930 . S
H537 C473 0.929 . S
H538 C476 0.930 . S
H539 C479 0.931 . S
H540 C480 0.930 . S
H541 C484 0.962 . S
H542 C484 0.959 . S
H543 C484 0.958 . S
C544 C545 1.560 . S
C544 H605 0.959 . S
C544 H606 0.959 . S
C544 H607 0.960 . S
C545 C544 1.560 . S
C545 O600 1.426 . S
C545 H604 0.980 . S
C546 C547 1.407 . S
C546 C551 1.418 . S
C546 O600 1.334 . S
C547 C546 1.407 . S
C547 C548 1.360 . S
C547 H608 0.929 . S
C548 C547 1.360 . S
C548 C549 1.401 . S
C548 C552 1.527 . S
C549 C548 1.401 . S
C549 C550 1.405 . S
C549 C582 1.587 . S
C550 C549 1.405 . S
C550 C551 1.332 . S
C550 C553 1.496 . S
C551 C546 1.418 . S
C551 C550 1.332 . S
C551 H609 0.929 . S
C552 C548 1.527 . S
C552 H610 0.959 . S
C552 H611 0.961 . S
C552 H612 0.961 . S
C553 C550 1.496 . S
C553 H613 0.960 . S
C553 H614 0.960 . S
C553 H615 0.961 . S
C554 C555 1.517 . S
C554 H617 0.961 . S
C554 H618 0.960 . S
C554 H619 0.959 . S
C555 C554 1.517 . S
C555 O603 1.468 . S
C555 H616 0.980 . S
C556 C557 1.349 . S
C556 C561 1.367 . S
C556 O603 1.408 . S
C557 C556 1.349 . S
C557 C558 1.407 . S
C557 H620 0.930 . S
C558 C557 1.407 . S
C558 C559 1.449 . S
C558 C562 1.535 . S
C559 C558 1.449 . S
C559 C560 1.384 . S
C559 C584 1.553 . S
C560 C559 1.384 . S
C560 C561 1.364 . S
C560 C563 1.450 . S
C561 C556 1.367 . S
C561 C560 1.364 . S
C561 H621 0.931 . S
C562 C558 1.535 . S
C562 H622 0.959 . S
C562 H623 0.961 . S
C562 H624 0.959 . S
C563 C560 1.450 . S
C563 H625 0.960 . S
C563 H626 1.002 . S
C563 H627 0.960 . S
C564 C565 1.309 . S
C564 C569 1.304 . S
C564 O602 1.435 . S
C565 C564 1.309 . S
C565 C566 1.476 . S
C565 H629 0.930 . S
C566 C565 1.476 . S
C566 C567 1.400 . S
C566 C570 1.567 . S
C567 C566 1.400 . S
C567 C568 1.373 . S
C567 C589 1.432 . S
C568 C567 1.373 . S
C568 C569 1.339 . S
C568 C571 1.530 . S
C569 C564 1.304 . S
C569 C568 1.339 . S
C569 H630 0.930 . S
C570 C566 1.567 . S
C570 H631 0.961 . S
C570 H632 0.960 . S
C570 H633 0.958 . S
C571 C568 1.530 . S
C571 H634 0.961 . S
C571 H635 0.960 . S
C571 H636 0.960 . S
C572 C573 1.530 . S
C572 H638 0.961 . S
C572 H639 0.961 . S
C572 H640 0.959 . S
C573 C572 1.530 . S
C573 O601 1.412 . S
C573 H637 0.980 . S
C574 C575 1.288 . S
C574 C579 1.377 . S
C574 O601 1.393 . S
C575 C574 1.288 . S
C575 C576 1.369 . S
C575 H641 0.932 . S
C576 C575 1.369 . S
C576 C577 1.398 . S
C576 C580 1.527 . S
C577 C576 1.398 . S
C577 C578 1.380 . S
C577 C591 1.497 . S
C578 C577 1.380 . S
C578 C579 1.383 . S
C578 C581 1.603 . S
C579 C574 1.377 . S
C579 C578 1.383 . S
C579 H642 0.929 . S
C580 C576 1.527 . S
C580 H643 0.961 . S
C580 H644 0.959 . S
C580 H645 0.959 . S
C581 C578 1.603 . S
C581 H646 0.960 . S
C581 H647 0.962 . S
C581 H648 0.961 . S
C582 C549 1.587 . S
C582 C583 1.360 . S
C582 C595 1.412 . S
C583 C582 1.360 . S
C583 C584 1.365 1_545 S
C583 H649 0.929 . S
C584 C559 1.553 . S
C584 C583 1.365 1_565 S
C584 C585 1.404 . S
C585 C584 1.404 . S
C585 C586 1.395 . S
C585 C596 1.451 1_565 S
C586 C585 1.395 . S
C586 C587 1.322 . S
C586 H650 0.930 . S
C587 C586 1.322 . S
C587 C588 1.459 . S
C587 H651 0.929 . S
C588 C587 1.459 . S
C588 C589 1.445 . S
C588 C597 1.395 1_565 S
C589 C567 1.432 . S
C589 C588 1.445 . S
C589 C590 1.370 1_565 S
C590 C589 1.370 1_545 S
C590 C591 1.438 . S
C590 H652 0.932 . S
C591 C577 1.497 . S
C591 C590 1.438 . S
C591 C592 1.360 . S
C592 C591 1.360 . S
C592 C593 1.401 . S
C592 C597 1.446 . S
C593 C592 1.401 . S
C593 C594 1.347 . S
C593 H653 0.929 . S
C594 C593 1.347 . S
C594 C595 1.455 . S
C594 H654 0.930 . S
C595 C582 1.412 . S
C595 C594 1.455 . S
C595 C596 1.331 . S
C596 C585 1.451 1_545 S
C596 C595 1.331 . S
C596 C597 1.497 . S
C597 C588 1.395 1_545 S
C597 C592 1.446 . S
C597 C596 1.497 . S
C598 C599 1.582 . S
C598 H655 0.962 . S
C598 H656 0.959 . S
C598 H657 0.958 . S
C599 C598 1.582 . S
C599 O602 1.458 . S
C599 H628 0.980 . S
O600 C545 1.426 . S
O600 C546 1.334 . S
O601 C573 1.412 . S
O601 C574 1.393 . S
O602 C564 1.435 . S
O602 C599 1.458 . S
O603 C555 1.468 . S
O603 C556 1.408 . S
H604 C545 0.980 . S
H605 C544 0.959 . S
H606 C544 0.959 . S
H607 C544 0.960 . S
H608 C547 0.929 . S
H609 C551 0.929 . S
H610 C552 0.959 . S
H611 C552 0.961 . S
H612 C552 0.961 . S
H613 C553 0.960 . S
H614 C553 0.960 . S
H615 C553 0.961 . S
H616 C555 0.980 . S
H617 C554 0.961 . S
H618 C554 0.960 . S
H619 C554 0.959 . S
H620 C557 0.930 . S
H621 C561 0.931 . S
H622 C562 0.959 . S
H623 C562 0.961 . S
H624 C562 0.959 . S
H625 C563 0.960 . S
H626 C563 1.002 . S
H627 C563 0.960 . S
H628 C599 0.980 . S
H629 C565 0.930 . S
H630 C569 0.930 . S
H631 C570 0.961 . S
H632 C570 0.960 . S
H633 C570 0.958 . S
H634 C571 0.961 . S
H635 C571 0.960 . S
H636 C571 0.960 . S
H637 C573 0.980 . S
H638 C572 0.961 . S
H639 C572 0.961 . S
H640 C572 0.959 . S
H641 C575 0.932 . S
H642 C579 0.929 . S
H643 C580 0.961 . S
H644 C580 0.959 . S
H645 C580 0.959 . S
H646 C581 0.960 . S
H647 C581 0.962 . S
H648 C581 0.961 . S
H649 C583 0.929 . S
H650 C586 0.930 . S
H651 C587 0.929 . S
H652 C590 0.932 . S
H653 C593 0.929 . S
H654 C594 0.930 . S
H655 C598 0.962 . S
H656 C598 0.959 . S
H657 C598 0.958 . S
C658 C659 1.560 . S
C658 H719 0.959 . S
C658 H720 0.959 . S
C658 H721 0.960 . S
C659 C658 1.560 . S
C659 O714 1.426 . S
C659 H718 0.980 . S
C660 C661 1.407 . S
C660 C665 1.418 . S
C660 O714 1.334 . S
C661 C660 1.407 . S
C661 C662 1.360 . S
C661 H722 0.929 . S
C662 C661 1.360 . S
C662 C663 1.401 . S
C662 C666 1.527 . S
C663 C662 1.401 . S
C663 C664 1.405 . S
C663 C696 1.587 . S
C664 C663 1.405 . S
C664 C665 1.332 . S
C664 C667 1.496 . S
C665 C660 1.418 . S
C665 C664 1.332 . S
C665 H723 0.929 . S
C666 C662 1.527 . S
C666 H724 0.959 . S
C666 H725 0.961 . S
C666 H726 0.961 . S
C667 C664 1.496 . S
C667 H727 0.960 . S
C667 H728 0.960 . S
C667 H729 0.961 . S
C668 C669 1.517 . S
C668 H731 0.961 . S
C668 H732 0.960 . S
C668 H733 0.959 . S
C669 C668 1.517 . S
C669 O717 1.468 . S
C669 H730 0.980 . S
C670 C671 1.349 . S
C670 C675 1.367 . S
C670 O717 1.408 . S
C671 C670 1.349 . S
C671 C672 1.407 . S
C671 H734 0.930 . S
C672 C671 1.407 . S
C672 C673 1.449 . S
C672 C676 1.535 . S
C673 C672 1.449 . S
C673 C674 1.384 . S
C673 C698 1.553 . S
C674 C673 1.384 . S
C674 C675 1.364 . S
C674 C677 1.450 . S
C675 C670 1.367 . S
C675 C674 1.364 . S
C675 H735 0.931 . S
C676 C672 1.535 . S
C676 H736 0.959 . S
C676 H737 0.961 . S
C676 H738 0.959 . S
C677 C674 1.450 . S
C677 H739 0.960 . S
C677 H740 0.960 . S
C677 H741 0.960 . S
C678 C679 1.309 . S
C678 C683 1.304 . S
C678 O716 1.435 . S
C679 C678 1.309 . S
C679 C680 1.476 . S
C679 H743 0.930 . S
C680 C679 1.476 . S
C680 C681 1.400 . S
C680 C684 1.567 . S
C681 C680 1.400 . S
C681 C682 1.373 . S
C681 C703 1.432 . S
C682 C681 1.373 . S
C682 C683 1.339 . S
C682 C685 1.530 . S
C683 C678 1.304 . S
C683 C682 1.339 . S
C683 H744 0.930 . S
C684 C680 1.567 . S
C684 H745 0.961 . S
C684 H746 0.960 . S
C684 H747 0.958 . S
C685 C682 1.530 . S
C685 H748 0.961 . S
C685 H749 0.960 . S
C685 H750 0.960 . S
C686 C687 1.530 . S
C686 H752 0.961 . S
C686 H753 0.961 . S
C686 H754 0.959 . S
C687 C686 1.530 . S
C687 O715 1.412 . S
C687 H751 0.980 . S
C688 C689 1.288 . S
C688 C693 1.377 . S
C688 O715 1.393 . S
C689 C688 1.288 . S
C689 C690 1.369 . S
C689 H755 0.932 . S
C690 C689 1.369 . S
C690 C691 1.398 . S
C690 C694 1.527 . S
C691 C690 1.398 . S
C691 C692 1.380 . S
C691 C705 1.497 . S
C692 C691 1.380 . S
C692 C693 1.383 . S
C692 C695 1.603 . S
C693 C688 1.377 . S
C693 C692 1.383 . S
C693 H756 0.929 . S
C694 C690 1.527 . S
C694 H757 0.961 . S
C694 H758 0.959 . S
C694 H759 0.959 . S
C695 C692 1.603 . S
C695 H760 0.960 . S
C695 H761 0.962 . S
C695 H762 0.961 . S
C696 C663 1.587 . S
C696 C697 1.360 . S
C696 C709 1.412 . S
C697 C696 1.360 . S
C697 C698 1.365 . S
C697 H763 0.929 . S
C698 C673 1.553 . S
C698 C697 1.365 . S
C698 C699 1.404 . S
C699 C698 1.404 . S
C699 C700 1.395 . S
C699 C710 1.451 . S
C700 C699 1.395 . S
C700 C701 1.322 . S
C700 H764 0.930 . S
C701 C700 1.322 . S
C701 C702 1.459 1_554 S
C701 H765 0.929 1_554 S
C702 C701 1.459 1_556 S
C702 C703 1.445 . S
C702 C711 1.395 1_556 S
C703 C681 1.432 . S
C703 C702 1.445 . S
C703 C704 1.370 . S
C704 C703 1.370 . S
C704 C705 1.438 . S
C704 H766 0.930 . S
C705 C691 1.497 . S
C705 C704 1.438 . S
C705 C706 1.360 . S
C706 C705 1.360 . S
C706 C707 1.401 1_556 S
C706 C711 1.446 1_556 S
C707 C706 1.401 1_554 S
C707 C708 1.347 . S
C707 H767 0.934 . S
C708 C707 1.347 . S
C708 C709 1.455 . S
C708 H768 0.930 . S
C709 C696 1.412 . S
C709 C708 1.455 . S
C709 C710 1.331 . S
C710 C699 1.451 . S
C710 C709 1.331 . S
C710 C711 1.497 . S
C711 C702 1.395 1_554 S
C711 C706 1.446 1_554 S
C711 C710 1.497 . S
C712 C713 1.582 . S
C712 H769 0.962 . S
C712 H770 0.959 . S
C712 H771 0.958 . S
C713 C712 1.582 . S
C713 O716 1.458 . S
C713 H742 0.980 . S
O714 C659 1.426 . S
O714 C660 1.334 . S
O715 C687 1.412 . S
O715 C688 1.393 . S
O716 C678 1.435 . S
O716 C713 1.458 . S
O717 C669 1.468 . S
O717 C670 1.408 . S
H718 C659 0.980 . S
H719 C658 0.959 . S
H720 C658 0.959 . S
H721 C658 0.960 . S
H722 C661 0.929 . S
H723 C665 0.929 . S
H724 C666 0.959 . S
H725 C666 0.961 . S
H726 C666 0.961 . S
H727 C667 0.960 . S
H728 C667 0.960 . S
H729 C667 0.961 . S
H730 C669 0.980 . S
H731 C668 0.961 . S
H732 C668 0.960 . S
H733 C668 0.959 . S
H734 C671 0.930 . S
H735 C675 0.931 . S
H736 C676 0.959 . S
H737 C676 0.961 . S
H738 C676 0.959 . S
H739 C677 0.960 . S
H740 C677 0.960 . S
H741 C677 0.960 . S
H742 C713 0.980 . S
H743 C679 0.930 . S
H744 C683 0.930 . S
H745 C684 0.961 . S
H746 C684 0.960 . S
H747 C684 0.958 . S
H748 C685 0.961 . S
H749 C685 0.960 . S
H750 C685 0.960 . S
H751 C687 0.980 . S
H752 C686 0.961 . S
H753 C686 0.961 . S
H754 C686 0.959 . S
H755 C689 0.932 . S
H756 C693 0.929 . S
H757 C694 0.961 . S
H758 C694 0.959 . S
H759 C694 0.959 . S
H760 C695 0.960 . S
H761 C695 0.962 . S
H762 C695 0.961 . S
H763 C697 0.929 . S
H764 C700 0.930 . S
H765 C701 0.929 1_556 S
H766 C704 0.930 . S
H767 C707 0.934 . S
H768 C708 0.930 . S
H769 C712 0.962 . S
H770 C712 0.959 . S
H771 C712 0.958 . S
C772 C773 1.363 . S
C772 C778 1.379 . S
C772 N780 1.356 . S
C773 C772 1.363 . S
C773 C779 1.363 . S
C774 C775 1.363 . S
C774 C779 1.379 . S
C774 N781 1.356 . S
C775 C774 1.363 . S
C775 C778 1.363 . S
N776 C778 1.356 . S
N776 H788 0.984 . S
N776 H789 0.985 . S
N777 C779 1.356 . S
N777 H782 0.984 . S
N777 H783 0.985 . S
C778 C772 1.379 . S
C778 C775 1.363 . S
C778 N776 1.356 . S
C779 C773 1.363 . S
C779 C774 1.379 . S
C779 N777 1.356 . S
N780 C772 1.356 . S
N780 H786 0.984 . S
N780 H787 0.984 . S
N781 C774 1.356 . S
N781 H784 0.984 . S
N781 H785 0.985 . S
H782 N777 0.984 . S
H783 N777 0.985 . S
H784 N781 0.984 . S
H785 N781 0.985 . S
H786 N780 0.984 . S
H787 N780 0.984 . S
H788 N776 0.984 . S
H789 N776 0.985 . S
C790 C791 1.363 . S
C790 C796 1.379 . S
C790 N798 1.356 . S
C791 C790 1.363 . S
C791 C797 1.363 . S
C792 C793 1.363 . S
C792 C797 1.379 . S
C792 N799 1.356 . S
C793 C792 1.363 . S
C793 C796 1.363 . S
N794 C796 1.356 . S
N794 H806 0.984 . S
N794 H807 0.985 . S
N795 C797 1.356 . S
N795 H800 0.984 . S
N795 H801 0.985 . S
C796 C790 1.379 . S
C796 C793 1.363 . S
C796 N794 1.356 . S
C797 C791 1.363 . S
C797 C792 1.379 . S
C797 N795 1.356 . S
N798 C790 1.356 . S
N798 H804 0.984 . S
N798 H805 0.984 . S
N799 C792 1.356 . S
N799 H802 0.984 . S
N799 H803 0.985 . S
H800 N795 0.984 . S
H801 N795 0.985 . S
H802 N799 0.984 . S
H803 N799 0.985 . S
H804 N798 0.984 . S
H805 N798 0.984 . S
H806 N794 0.984 . S
H807 N794 0.985 . S
C808 C809 1.363 . S
C808 C814 1.379 . S
C808 N816 1.356 . S
C809 C808 1.363 . S
C809 C815 1.363 . S
C810 C811 1.363 . S
C810 C815 1.379 . S
C810 N817 1.356 . S
C811 C810 1.363 . S
C811 C814 1.363 . S
N812 C814 1.356 . S
N812 H824 0.984 . S
N812 H825 0.985 . S
N813 C815 1.356 . S
N813 H818 0.984 . S
N813 H819 0.985 . S
C814 C808 1.379 . S
C814 C811 1.363 . S
C814 N812 1.356 . S
C815 C809 1.363 . S
C815 C810 1.379 . S
C815 N813 1.356 . S
N816 C808 1.356 . S
N816 H822 0.984 . S
N816 H823 0.984 . S
N817 C810 1.356 . S
N817 H820 0.984 . S
N817 H821 0.985 . S
H818 N813 0.984 . S
H819 N813 0.985 . S
H820 N817 0.984 . S
H821 N817 0.985 . S
H822 N816 0.984 . S
H823 N816 0.984 . S
H824 N812 0.984 . S
H825 N812 0.985 . S
C826 C827 1.363 . S
C826 C832 1.379 . S
C826 N834 1.356 . S
C827 C826 1.363 . S
C827 C833 1.363 . S
C828 C829 1.363 . S
C828 C833 1.379 . S
C828 N835 1.356 . S
C829 C828 1.363 . S
C829 C832 1.363 . S
N830 C832 1.356 . S
N830 H842 0.984 . S
N830 H843 0.985 . S
N831 C833 1.356 . S
N831 H836 0.984 . S
N831 H837 0.985 . S
C832 C826 1.379 . S
C832 C829 1.363 . S
C832 N830 1.356 . S
C833 C827 1.363 . S
C833 C828 1.379 . S
C833 N831 1.356 . S
N834 C826 1.356 . S
N834 H840 0.984 . S
N834 H841 0.984 . S
N835 C828 1.356 . S
N835 H838 0.984 . S
N835 H839 0.985 . S
H836 N831 0.984 . S
H837 N831 0.985 . S
H838 N835 0.984 . S
H839 N835 0.985 . S
H840 N834 0.984 . S
H841 N834 0.984 . S
H842 N830 0.984 . S
H843 N830 0.985 . S
C844 C845 1.363 . S
C844 C850 1.379 . S
C844 N852 1.356 . S
C845 C844 1.363 . S
C845 C851 1.363 . S
C846 C847 1.363 . S
C846 C851 1.379 . S
C846 N853 1.356 . S
C847 C846 1.363 . S
C847 C850 1.363 . S
N848 C850 1.356 . S
N848 H860 0.984 . S
N848 H861 0.985 . S
N849 C851 1.356 . S
N849 H854 0.984 . S
N849 H855 0.985 . S
C850 C844 1.379 . S
C850 C847 1.363 . S
C850 N848 1.356 . S
C851 C845 1.363 . S
C851 C846 1.379 . S
C851 N849 1.356 . S
N852 C844 1.356 . S
N852 H858 0.984 . S
N852 H859 0.984 . S
N853 C846 1.356 . S
N853 H856 0.984 . S
N853 H857 0.985 . S
H854 N849 0.984 . S
H855 N849 0.985 . S
H856 N853 0.984 . S
H857 N853 0.985 . S
H858 N852 0.984 . S
H859 N852 0.984 . S
H860 N848 0.984 . S
H861 N848 0.985 . S
C862 C863 1.363 . S
C862 C868 1.379 . S
C862 N870 1.356 . S
C863 C862 1.363 . S
C863 C869 1.363 . S
C864 C865 1.363 . S
C864 C869 1.379 . S
C864 N871 1.356 . S
C865 C864 1.363 . S
C865 C868 1.363 . S
N866 C868 1.356 . S
N866 H878 0.984 . S
N866 H879 0.985 . S
N867 C869 1.356 . S
N867 H872 0.984 . S
N867 H873 0.985 . S
C868 C862 1.379 . S
C868 C865 1.363 . S
C868 N866 1.356 . S
C869 C863 1.363 . S
C869 C864 1.379 . S
C869 N867 1.356 . S
N870 C862 1.356 . S
N870 H876 0.984 . S
N870 H877 0.984 . S
N871 C864 1.356 . S
N871 H874 0.984 . S
N871 H875 0.985 . S
H872 N867 0.984 . S
H873 N867 0.985 . S
H874 N871 0.984 . S
H875 N871 0.985 . S
H876 N870 0.984 . S
H877 N870 0.984 . S
H878 N866 0.984 . S
H879 N866 0.985 . S
C880 C881 1.363 . S
C880 C886 1.379 . S
C880 N888 1.356 . S
C881 C880 1.363 . S
C881 C887 1.363 . S
C882 C883 1.363 . S
C882 C887 1.379 . S
C882 N889 1.356 . S
C883 C882 1.363 . S
C883 C886 1.363 . S
N884 C886 1.356 . S
N884 H896 0.984 . S
N884 H897 0.985 . S
N885 C887 1.356 . S
N885 H890 0.984 . S
N885 H891 0.985 . S
C886 C880 1.379 . S
C886 C883 1.363 . S
C886 N884 1.356 . S
C887 C881 1.363 . S
C887 C882 1.379 . S
C887 N885 1.356 . S
N888 C880 1.356 . S
N888 H894 0.984 . S
N888 H895 0.984 . S
N889 C882 1.356 . S
N889 H892 0.984 . S
N889 H893 0.985 . S
H890 N885 0.984 . S
H891 N885 0.985 . S
H892 N889 0.984 . S
H893 N889 0.985 . S
H894 N888 0.984 . S
H895 N888 0.984 . S
H896 N884 0.984 . S
H897 N884 0.985 . S
C898 C899 1.363 . S
C898 C904 1.379 . S
C898 N906 1.356 . S
C899 C898 1.363 . S
C899 C905 1.363 . S
C900 C901 1.363 . S
C900 C905 1.379 . S
C900 N907 1.356 . S
C901 C900 1.363 . S
C901 C904 1.363 . S
N902 C904 1.356 . S
N902 H914 0.984 . S
N902 H915 0.985 . S
N903 C905 1.356 . S
N903 H908 0.984 . S
N903 H909 0.985 . S
C904 C898 1.379 . S
C904 C901 1.363 . S
C904 N902 1.356 . S
C905 C899 1.363 . S
C905 C900 1.379 . S
C905 N903 1.356 . S
N906 C898 1.356 . S
N906 H912 0.984 . S
N906 H913 0.984 . S
N907 C900 1.356 . S
N907 H910 0.984 . S
N907 H911 0.985 . S
H908 N903 0.984 . S
H909 N903 0.985 . S
H910 N907 0.984 . S
H911 N907 0.985 . S
H912 N906 0.984 . S
H913 N906 0.984 . S
H914 N902 0.984 . S
H915 N902 0.985 . S
C916 C917 1.363 . S
C916 C922 1.379 . S
C916 N924 1.356 . S
C917 C916 1.363 . S
C917 C923 1.363 . S
C918 C919 1.363 . S
C918 C923 1.379 . S
C918 N925 1.356 . S
C919 C918 1.363 . S
C919 C922 1.363 . S
N920 C922 1.356 1_545 S
N920 H932 0.984 . S
N920 H933 0.985 . S
N921 C923 1.356 . S
N921 H926 0.984 . S
N921 H927 0.985 . S
C922 C916 1.379 . S
C922 C919 1.363 . S
C922 N920 1.356 1_565 S
C923 C917 1.363 . S
C923 C918 1.379 . S
C923 N921 1.356 . S
N924 C916 1.356 . S
N924 H930 0.984 . S
N924 H931 0.984 . S
N925 C918 1.356 . S
N925 H928 0.984 . S
N925 H929 0.985 . S
H926 N921 0.984 . S
H927 N921 0.985 . S
H928 N925 0.984 . S
H929 N925 0.985 . S
H930 N924 0.984 . S
H931 N924 0.984 . S
H932 N920 0.984 . S
H933 N920 0.985 . S
C934 C935 1.363 . S
C934 C940 1.379 . S
C934 N942 1.356 . S
C935 C934 1.363 . S
C935 C941 1.363 . S
C936 C937 1.363 . S
C936 C941 1.379 . S
C936 N943 1.356 . S
C937 C936 1.363 . S
C937 C940 1.363 . S
N938 C940 1.356 . S
N938 H950 0.984 . S
N938 H951 0.985 . S
N939 C941 1.356 . S
N939 H944 0.984 . S
N939 H945 0.985 . S
C940 C934 1.379 . S
C940 C937 1.363 . S
C940 N938 1.356 . S
C941 C935 1.363 . S
C941 C936 1.379 . S
C941 N939 1.356 . S
N942 C934 1.356 . S
N942 H948 0.984 . S
N942 H949 0.984 . S
N943 C936 1.356 . S
N943 H946 0.984 . S
N943 H947 0.985 . S
H944 N939 0.984 . S
H945 N939 0.985 . S
H946 N943 0.984 . S
H947 N943 0.985 . S
H948 N942 0.984 . S
H949 N942 0.984 . S
H950 N938 0.984 . S
H951 N938 0.985 . S
C952 C953 1.363 . S
C952 C958 1.379 . S
C952 N960 1.356 . S
C953 C952 1.363 . S
C953 C959 1.363 . S
C954 C955 1.363 . S
C954 C959 1.379 . S
C954 N961 1.356 . S
C955 C954 1.363 . S
C955 C958 1.363 . S
N956 C958 1.356 . S
N956 H968 0.984 . S
N956 H969 0.985 . S
N957 C959 1.356 . S
N957 H962 0.984 . S
N957 H963 0.985 . S
C958 C952 1.379 . S
C958 C955 1.363 . S
C958 N956 1.356 . S
C959 C953 1.363 . S
C959 C954 1.379 . S
C959 N957 1.356 . S
N960 C952 1.356 . S
N960 H966 0.984 . S
N960 H967 0.984 . S
N961 C954 1.356 . S
N961 H964 0.984 . S
N961 H965 0.985 . S
H962 N957 0.984 . S
H963 N957 0.985 . S
H964 N961 0.984 . S
H965 N961 0.985 . S
H966 N960 0.984 . S
H967 N960 0.984 . S
H968 N956 0.984 . S
H969 N956 0.985 . S
C970 C971 1.363 . S
C970 C976 1.379 . S
C970 N978 1.356 . S
C971 C970 1.363 . S
C971 C977 1.363 . S
C972 C973 1.363 . S
C972 C977 1.379 . S
C972 N979 1.356 . S
C973 C972 1.363 . S
C973 C976 1.363 . S
N974 C976 1.356 . S
N974 H986 0.984 . S
N974 H987 0.985 . S
N975 C977 1.356 . S
N975 H980 0.984 . S
N975 H981 0.985 . S
C976 C970 1.379 . S
C976 C973 1.363 . S
C976 N974 1.356 . S
C977 C971 1.363 . S
C977 C972 1.379 . S
C977 N975 1.356 . S
N978 C970 1.356 . S
N978 H984 0.984 . S
N978 H985 0.984 . S
N979 C972 1.356 . S
N979 H982 0.984 . S
N979 H983 0.985 . S
H980 N975 0.984 . S
H981 N975 0.985 . S
H982 N979 0.984 . S
H983 N979 0.985 . S
H984 N978 0.984 . S
H985 N978 0.984 . S
H986 N974 0.984 . S
H987 N974 0.985 . S
C988 C989 1.363 . S
C988 C994 1.379 . S
C988 N996 1.356 . S
C989 C988 1.363 . S
C989 C995 1.363 . S
C990 C991 1.363 . S
C990 C995 1.379 . S
C990 N997 1.356 . S
C991 C990 1.363 . S
C991 C994 1.363 . S
N992 C994 1.356 . S
N992 H1004 0.984 . S
N992 H1005 0.985 . S
N993 C995 1.356 . S
N993 H998 0.984 . S
N993 H999 0.985 . S
C994 C988 1.379 . S
C994 C991 1.363 . S
C994 N992 1.356 . S
C995 C989 1.363 . S
C995 C990 1.379 . S
C995 N993 1.356 . S
N996 C988 1.356 . S
N996 H1002 0.984 . S
N996 H1003 0.984 . S
N997 C990 1.356 . S
N997 H1000 0.984 . S
N997 H1001 0.985 . S
H998 N993 0.984 . S
H999 N993 0.985 . S
H1000 N997 0.984 . S
H1001 N997 0.985 . S
H1002 N996 0.984 . S
H1003 N996 0.984 . S
H1004 N992 0.984 . S
H1005 N992 0.985 . S
C1006 C1007 1.363 . S
C1006 C1012 1.379 . S
C1006 N1014 1.356 . S
C1007 C1006 1.363 . S
C1007 C1013 1.363 . S
C1008 C1009 1.363 . S
C1008 C1013 1.379 . S
C1008 N1015 1.356 . S
C1009 C1008 1.363 . S
C1009 C1012 1.363 . S
N1010 C1012 1.356 . S
N1010 H1022 0.984 . S
N1010 H1023 0.985 . S
N1011 C1013 1.356 . S
N1011 H1016 0.984 . S
N1011 H1017 0.985 . S
C1012 C1006 1.379 . S
C1012 C1009 1.363 . S
C1012 N1010 1.356 . S
C1013 C1007 1.363 . S
C1013 C1008 1.379 . S
C1013 N1011 1.356 . S
N1014 C1006 1.356 . S
N1014 H1020 0.984 . S
N1014 H1021 0.984 . S
N1015 C1008 1.356 . S
N1015 H1018 0.984 . S
N1015 H1019 0.985 . S
H1016 N1011 0.984 . S
H1017 N1011 0.985 . S
H1018 N1015 0.984 . S
H1019 N1015 0.985 . S
H1020 N1014 0.984 . S
H1021 N1014 0.984 . S
H1022 N1010 0.984 . S
H1023 N1010 0.985 . S
C1024 C1025 1.363 . S
C1024 C1030 1.379 . S
C1024 N1032 1.356 . S
C1025 C1024 1.363 . S
C1025 C1031 1.363 . S
C1026 C1027 1.363 . S
C1026 C1031 1.379 . S
C1026 N1033 1.356 . S
C1027 C1026 1.363 . S
C1027 C1030 1.363 . S
N1028 C1030 1.356 . S
N1028 H1040 0.984 . S
N1028 H1041 0.985 . S
N1029 C1031 1.356 . S
N1029 H1034 0.984 . S
N1029 H1035 0.985 . S
C1030 C1024 1.379 . S
C1030 C1027 1.363 . S
C1030 N1028 1.356 . S
C1031 C1025 1.363 . S
C1031 C1026 1.379 . S
C1031 N1029 1.356 . S
N1032 C1024 1.356 . S
N1032 H1038 0.984 . S
N1032 H1039 0.984 . S
N1033 C1026 1.356 . S
N1033 H1036 0.984 . S
N1033 H1037 0.985 . S
H1034 N1029 0.984 . S
H1035 N1029 0.985 . S
H1036 N1033 0.984 . S
H1037 N1033 0.985 . S
H1038 N1032 0.984 . S
H1039 N1032 0.984 . S
H1040 N1028 0.984 . S
H1041 N1028 0.985 . S
C1042 C1043 1.363 . S
C1042 C1048 1.379 . S
C1042 N1050 1.356 . S
C1043 C1042 1.363 . S
C1043 C1049 1.363 . S
C1044 C1045 1.363 . S
C1044 C1049 1.379 . S
C1044 N1051 1.356 . S
C1045 C1044 1.363 . S
C1045 C1048 1.363 . S
N1046 C1048 1.356 . S
N1046 H1058 0.984 . S
N1046 H1059 0.985 . S
N1047 C1049 1.356 . S
N1047 H1052 0.984 . S
N1047 H1053 0.985 . S
C1048 C1042 1.379 . S
C1048 C1045 1.363 . S
C1048 N1046 1.356 . S
C1049 C1043 1.363 . S
C1049 C1044 1.379 . S
C1049 N1047 1.356 . S
N1050 C1042 1.356 . S
N1050 H1056 0.984 . S
N1050 H1057 0.984 . S
N1051 C1044 1.356 . S
N1051 H1054 0.984 . S
N1051 H1055 0.985 . S
H1052 N1047 0.984 . S
H1053 N1047 0.985 . S
H1054 N1051 0.984 . S
H1055 N1051 0.985 . S
H1056 N1050 0.984 . S
H1057 N1050 0.984 . S
H1058 N1046 0.984 . S
H1059 N1046 0.985 . S
C1060 C1061 1.363 . S
C1060 C1066 1.379 . S
C1060 N1068 1.356 . S
C1061 C1060 1.363 . S
C1061 C1067 1.363 . S
C1062 C1063 1.363 . S
C1062 C1067 1.379 . S
C1062 N1069 1.356 . S
C1063 C1062 1.363 . S
C1063 C1066 1.363 . S
N1064 C1066 1.356 . S
N1064 H1076 0.984 . S
N1064 H1077 0.985 . S
N1065 C1067 1.356 . S
N1065 H1070 0.984 . S
N1065 H1071 0.985 . S
C1066 C1060 1.379 . S
C1066 C1063 1.363 . S
C1066 N1064 1.356 . S
C1067 C1061 1.363 . S
C1067 C1062 1.379 . S
C1067 N1065 1.356 . S
N1068 C1060 1.356 . S
N1068 H1074 0.984 . S
N1068 H1075 0.984 . S
N1069 C1062 1.356 . S
N1069 H1072 0.984 . S
N1069 H1073 0.985 . S
H1070 N1065 0.984 . S
H1071 N1065 0.985 . S
H1072 N1069 0.984 . S
H1073 N1069 0.985 . S
H1074 N1068 0.984 . S
H1075 N1068 0.984 . S
H1076 N1064 0.984 . S
H1077 N1064 0.985 . S
C1078 C1079 1.363 . S
C1078 C1084 1.379 . S
C1078 N1086 1.356 . S
C1079 C1078 1.363 . S
C1079 C1085 1.363 . S
C1080 C1081 1.363 . S
C1080 C1085 1.379 . S
C1080 N1087 1.356 . S
C1081 C1080 1.363 . S
C1081 C1084 1.363 . S
N1082 C1084 1.356 . S
N1082 H1094 0.984 . S
N1082 H1095 0.985 . S
N1083 C1085 1.356 . S
N1083 H1088 0.984 . S
N1083 H1089 0.985 . S
C1084 C1078 1.379 . S
C1084 C1081 1.363 . S
C1084 N1082 1.356 . S
C1085 C1079 1.363 . S
C1085 C1080 1.379 . S
C1085 N1083 1.356 . S
N1086 C1078 1.356 . S
N1086 H1092 0.984 . S
N1086 H1093 0.984 . S
N1087 C1080 1.356 . S
N1087 H1090 0.984 . S
N1087 H1091 0.985 . S
H1088 N1083 0.984 . S
H1089 N1083 0.985 . S
H1090 N1087 0.984 . S
H1091 N1087 0.985 . S
H1092 N1086 0.984 . S
H1093 N1086 0.984 . S
H1094 N1082 0.984 . S
H1095 N1082 0.985 . S
C1096 C1097 1.363 . S
C1096 C1102 1.379 . S
C1096 N1104 1.356 . S
C1097 C1096 1.363 . S
C1097 C1103 1.363 . S
C1098 C1099 1.363 . S
C1098 C1103 1.379 . S
C1098 N1105 1.356 . S
C1099 C1098 1.363 . S
C1099 C1102 1.363 . S
N1100 C1102 1.356 . S
N1100 H1112 0.984 . S
N1100 H1113 0.985 . S
N1101 C1103 1.356 . S
N1101 H1106 0.984 . S
N1101 H1107 0.985 . S
C1102 C1096 1.379 . S
C1102 C1099 1.363 . S
C1102 N1100 1.356 . S
C1103 C1097 1.363 . S
C1103 C1098 1.379 . S
C1103 N1101 1.356 . S
N1104 C1096 1.356 . S
N1104 H1110 0.984 . S
N1104 H1111 0.984 . S
N1105 C1098 1.356 . S
N1105 H1108 0.984 . S
N1105 H1109 0.985 . S
H1106 N1101 0.984 . S
H1107 N1101 0.985 . S
H1108 N1105 0.984 . S
H1109 N1105 0.985 . S
H1110 N1104 0.984 . S
H1111 N1104 0.984 . S
H1112 N1100 0.984 . S
H1113 N1100 0.985 . S
C1114 C1115 1.363 . S
C1114 C1120 1.379 . S
C1114 N1122 1.356 . S
C1115 C1114 1.363 . S
C1115 C1121 1.363 . S
C1116 C1117 1.363 . S
C1116 C1121 1.379 . S
C1116 N1123 1.356 . S
C1117 C1116 1.363 . S
C1117 C1120 1.363 . S
N1118 C1120 1.356 . S
N1118 H1130 0.984 . S
N1118 H1131 0.985 . S
N1119 C1121 1.356 . S
N1119 H1124 0.984 . S
N1119 H1125 0.985 . S
C1120 C1114 1.379 . S
C1120 C1117 1.363 . S
C1120 N1118 1.356 . S
C1121 C1115 1.363 . S
C1121 C1116 1.379 . S
C1121 N1119 1.356 . S
N1122 C1114 1.356 . S
N1122 H1128 0.984 . S
N1122 H1129 0.984 . S
N1123 C1116 1.356 . S
N1123 H1126 0.984 . S
N1123 H1127 0.985 . S
H1124 N1119 0.984 . S
H1125 N1119 0.985 . S
H1126 N1123 0.984 . S
H1127 N1123 0.985 . S
H1128 N1122 0.984 . S
H1129 N1122 0.984 . S
H1130 N1118 0.984 . S
H1131 N1118 0.985 . S
C1132 C1133 1.363 . S
C1132 C1138 1.379 . S
C1132 N1140 1.356 . S
C1133 C1132 1.363 . S
C1133 C1139 1.363 . S
C1134 C1135 1.363 . S
C1134 C1139 1.379 . S
C1134 N1141 1.356 . S
C1135 C1134 1.363 . S
C1135 C1138 1.363 . S
N1136 C1138 1.356 . S
N1136 H1148 0.984 . S
N1136 H1149 0.985 . S
N1137 C1139 1.356 . S
N1137 H1142 0.984 . S
N1137 H1143 0.985 . S
C1138 C1132 1.379 . S
C1138 C1135 1.363 . S
C1138 N1136 1.356 . S
C1139 C1133 1.363 . S
C1139 C1134 1.379 . S
C1139 N1137 1.356 . S
N1140 C1132 1.356 . S
N1140 H1146 0.984 . S
N1140 H1147 0.984 . S
N1141 C1134 1.356 . S
N1141 H1144 0.984 . S
N1141 H1145 0.985 . S
H1142 N1137 0.984 . S
H1143 N1137 0.985 . S
H1144 N1141 0.984 . S
H1145 N1141 0.985 . S
H1146 N1140 0.984 . S
H1147 N1140 0.984 . S
H1148 N1136 0.984 . S
H1149 N1136 0.985 . S
C1150 C1151 1.363 . S
C1150 C1156 1.379 . S
C1150 N1158 1.356 . S
C1151 C1150 1.363 . S
C1151 C1157 1.363 . S
C1152 C1153 1.363 . S
C1152 C1157 1.379 . S
C1152 N1159 1.356 . S
C1153 C1152 1.363 . S
C1153 C1156 1.363 . S
N1154 C1156 1.356 . S
N1154 H1166 0.984 . S
N1154 H1167 0.985 . S
N1155 C1157 1.356 . S
N1155 H1160 0.984 . S
N1155 H1161 0.985 . S
C1156 C1150 1.379 . S
C1156 C1153 1.363 . S
C1156 N1154 1.356 . S
C1157 C1151 1.363 . S
C1157 C1152 1.379 . S
C1157 N1155 1.356 . S
N1158 C1150 1.356 . S
N1158 H1164 0.984 . S
N1158 H1165 0.984 . S
N1159 C1152 1.356 . S
N1159 H1162 0.984 . S
N1159 H1163 0.985 . S
H1160 N1155 0.984 . S
H1161 N1155 0.985 . S
H1162 N1159 0.984 . S
H1163 N1159 0.985 . S
H1164 N1158 0.984 . S
H1165 N1158 0.984 . S
H1166 N1154 0.984 . S
H1167 N1154 0.985 . S
C1168 C1169 1.363 . S
C1168 C1174 1.379 . S
C1168 N1176 1.356 . S
C1169 C1168 1.363 . S
C1169 C1175 1.363 . S
C1170 C1171 1.363 . S
C1170 C1175 1.379 . S
C1170 N1177 1.356 . S
C1171 C1170 1.363 . S
C1171 C1174 1.363 . S
N1172 C1174 1.356 1_545 S
N1172 H1184 0.984 . S
N1172 H1185 0.985 . S
N1173 C1175 1.356 . S
N1173 H1178 0.984 . S
N1173 H1179 0.985 . S
C1174 C1168 1.379 . S
C1174 C1171 1.363 . S
C1174 N1172 1.356 1_565 S
C1175 C1169 1.363 . S
C1175 C1170 1.379 . S
C1175 N1173 1.356 . S
N1176 C1168 1.356 . S
N1176 H1182 0.984 . S
N1176 H1183 0.984 . S
N1177 C1170 1.356 . S
N1177 H1180 0.984 . S
N1177 H1181 0.985 . S
H1178 N1173 0.984 . S
H1179 N1173 0.985 . S
H1180 N1177 0.984 . S
H1181 N1177 0.985 . S
H1182 N1176 0.984 . S
H1183 N1176 0.984 . S
H1184 N1172 0.984 . S
H1185 N1172 0.985 . S
C1186 C1187 1.363 . S
C1186 C1192 1.379 . S
C1186 N1194 1.356 . S
C1187 C1186 1.363 . S
C1187 C1193 1.363 . S
C1188 C1189 1.363 . S
C1188 C1193 1.379 . S
C1188 N1195 1.356 . S
C1189 C1188 1.363 . S
C1189 C1192 1.363 . S
N1190 C1192 1.356 . S
N1190 H1202 0.984 . S
N1190 H1203 0.985 . S
N1191 C1193 1.356 . S
N1191 H1196 0.984 . S
N1191 H1197 0.985 . S
C1192 C1186 1.379 . S
C1192 C1189 1.363 . S
C1192 N1190 1.356 . S
C1193 C1187 1.363 . S
C1193 C1188 1.379 . S
C1193 N1191 1.356 . S
N1194 C1186 1.356 . S
N1194 H1200 0.984 . S
N1194 H1201 0.984 . S
N1195 C1188 1.356 . S
N1195 H1198 0.984 . S
N1195 H1199 0.985 . S
H1196 N1191 0.984 . S
H1197 N1191 0.985 . S
H1198 N1195 0.984 . S
H1199 N1195 0.985 . S
H1200 N1194 0.984 . S
H1201 N1194 0.984 . S
H1202 N1190 0.984 . S
H1203 N1190 0.985 . S
C775 C99 1.050 . S
C773 C5 1.682 . S
C793 C231 1.260 . S
C791 C16 1.305 . S
C811 C117 1.750 . S
C809 C30 1.919 . S
C829 C213 0.912 . S
C827 C40 1.642 . S
C847 C345 1.098 . S
C845 C8 1.646 . S
C865 C459 1.116 . S
C863 C18 1.381 . S
C881 C29 1.785 . S
C883 C599 1.445 . S
C901 C713 1.365 . S
C899 C38 1.430 . S
C919 C327 1.225 1_565 S
C917 C19 1.562 . S
C935 C27 1.625 . S
C937 C441 1.123 . S
C955 C545 1.276 . S
C953 C41 1.557 . S
C973 C659 1.119 . S
C971 C7 1.547 . S
C989 C52 1.722 . S
C991 C257 1.083 . S
C1009 C89 1.533 . S
C1007 C62 1.803 . S
C1025 C74 1.382 . S
C1027 C203 1.178 . S
C1043 C82 1.338 . S
C1045 C143 1.049 . S
C1063 C555 1.330 . S
C1061 C51 1.795 . S
C1081 C669 1.695 . S
C1079 C60 1.560 . S
C1099 C317 1.000 . S
C1097 C71 1.183 . S
C1115 C84 1.373 . S
C1117 C431 1.013 . S
C1135 C573 1.355 . S
C1133 C63 1.660 . S
C1153 C687 1.185 . S
C1151 C73 1.611 . S
C1171 C371 1.429 . S
C1169 C85 1.659 . S
C1187 C49 1.377 . S
C1189 C485 1.377 . S
