# Generated by pormake.
# Topology apo, (3,6)-cn, num edge types: 1
# Building blocks:
#     Node 0, Type 0, BuildingBlock: BETDAH_clean_linker_0, # of connection points: 3
#     Node 1, Type 0, BuildingBlock: BETDAH_clean_linker_0, # of connection points: 3
#     Node 2, Type 0, BuildingBlock: BETDAH_clean_linker_0, # of connection points: 3
#     Node 3, Type 0, BuildingBlock: BETDAH_clean_linker_0, # of connection points: 3
#     Node 4, Type 0, BuildingBlock: BETDAH_clean_linker_0, # of connection points: 3
#     Node 5, Type 0, BuildingBlock: BETDAH_clean_linker_0, # of connection points: 3
#     Node 6, Type 0, BuildingBlock: BETDAH_clean_linker_0, # of connection points: 3
#     Node 7, Type 0, BuildingBlock: BETDAH_clean_linker_0, # of connection points: 3
#     Node 8, Type 1, BuildingBlock: KUMBOL_clean_sbu_1, # of connection points: 6
#     Node 9, Type 1, BuildingBlock: KUMBOL_clean_sbu_1, # of connection points: 6
#     Node 10, Type 1, BuildingBlock: KUMBOL_clean_sbu_1, # of connection points: 6
#     Node 11, Type 1, BuildingBlock: KUMBOL_clean_sbu_1, # of connection points: 6
#     Edge 12, Type (0, 1), BuildingBlock: ZUJKAS_clean_linker_0, # of connection points: 2
#     Edge 13, Type (0, 1), BuildingBlock: ZUJKAS_clean_linker_0, # of connection points: 2
#     Edge 14, Type (0, 1), BuildingBlock: ZUJKAS_clean_linker_0, # of connection points: 2
#     Edge 15, Type (0, 1), BuildingBlock: ZUJKAS_clean_linker_0, # of connection points: 2
#     Edge 16, Type (0, 1), BuildingBlock: ZUJKAS_clean_linker_0, # of connection points: 2
#     Edge 17, Type (0, 1), BuildingBlock: ZUJKAS_clean_linker_0, # of connection points: 2
#     Edge 18, Type (0, 1), BuildingBlock: ZUJKAS_clean_linker_0, # of connection points: 2
#     Edge 19, Type (0, 1), BuildingBlock: ZUJKAS_clean_linker_0, # of connection points: 2
#     Edge 20, Type (0, 1), BuildingBlock: ZUJKAS_clean_linker_0, # of connection points: 2
#     Edge 21, Type (0, 1), BuildingBlock: ZUJKAS_clean_linker_0, # of connection points: 2
#     Edge 22, Type (0, 1), BuildingBlock: ZUJKAS_clean_linker_0, # of connection points: 2
#     Edge 23, Type (0, 1), BuildingBlock: ZUJKAS_clean_linker_0, # of connection points: 2
#     Edge 24, Type (0, 1), BuildingBlock: ZUJKAS_clean_linker_0, # of connection points: 2
#     Edge 25, Type (0, 1), BuildingBlock: ZUJKAS_clean_linker_0, # of connection points: 2
#     Edge 26, Type (0, 1), BuildingBlock: ZUJKAS_clean_linker_0, # of connection points: 2
#     Edge 27, Type (0, 1), BuildingBlock: ZUJKAS_clean_linker_0, # of connection points: 2
#     Edge 28, Type (0, 1), BuildingBlock: ZUJKAS_clean_linker_0, # of connection points: 2
#     Edge 29, Type (0, 1), BuildingBlock: ZUJKAS_clean_linker_0, # of connection points: 2
#     Edge 30, Type (0, 1), BuildingBlock: ZUJKAS_clean_linker_0, # of connection points: 2
#     Edge 31, Type (0, 1), BuildingBlock: ZUJKAS_clean_linker_0, # of connection points: 2
#     Edge 32, Type (0, 1), BuildingBlock: ZUJKAS_clean_linker_0, # of connection points: 2
#     Edge 33, Type (0, 1), BuildingBlock: ZUJKAS_clean_linker_0, # of connection points: 2
#     Edge 34, Type (0, 1), BuildingBlock: ZUJKAS_clean_linker_0, # of connection points: 2
#     Edge 35, Type (0, 1), BuildingBlock: ZUJKAS_clean_linker_0, # of connection points: 2
# Relax obj value: 0.037
# Max RMSD: 0.208
# Mean RMSD: 0.149
data_MOF--net-apo--node1-KUMBOL_clean_sbu_1--node2-BETDAH_clean_linker_0--edge1-ZUJKAS_clean_linker_0
_symmetry_space_group_name_H-M    P1
_symmetry_Int_Tables_number       1
_symmetry_cell_setting            triclinic
loop_
_symmetry_equiv_pos_as_xyz
'x, y, z'
_cell_length_a     35.330569
_cell_length_b     54.799413
_cell_length_c     64.869154
_cell_angle_alpha  89.516711
_cell_angle_beta   90.004918
_cell_angle_gamma 90.140989
loop_
_atom_site_label
_atom_site_type_symbol
_atom_site_fract_x
_atom_site_fract_y
_atom_site_fract_z
_atom_type_partial_charge
H0 H 0.33999 0.4212 0.42542 0.0
H1 H 0.28333 0.37415 0.38224 0.0
H2 H 0.29506 0.35218 0.44569 0.0
C3 C 0.32504 0.40438 0.42211 0.0
C4 C 0.31891 0.38739 0.43805 0.0
C5 C 0.31223 0.39991 0.40192 0.0
C6 C 0.29327 0.37781 0.39771 0.0
C7 C 0.28684 0.3607 0.41368 0.0
C8 C 0.29968 0.36566 0.43362 0.0
N9 N 0.26778 0.33817 0.41065 0.0
C10 C 0.25239 0.32976 0.39231 0.0
H11 H 0.1668 0.09038 0.9247 0.0
H12 H 0.22757 0.13565 0.88119 0.0
H13 H 0.2206 0.15644 0.94477 0.0
C14 C 0.18356 0.10652 0.92132 0.0
C15 C 0.19227 0.1227 0.9373 0.0
C16 C 0.19613 0.11093 0.90101 0.0
C17 C 0.21764 0.1321 0.89672 0.0
C18 C 0.22672 0.14837 0.91269 0.0
C19 C 0.21394 0.14353 0.93273 0.0
N20 N 0.24862 0.16984 0.90955 0.0
C21 C 0.26349 0.17825 0.89097 0.0
H22 H 0.84858 0.10165 0.58799 0.0
H23 H 0.78123 0.14261 0.63117 0.0
H24 H 0.78664 0.16465 0.56762 0.0
C25 C 0.83002 0.11678 0.59144 0.0
C26 C 0.82006 0.13305 0.57555 0.0
C27 C 0.81636 0.12001 0.61169 0.0
C28 C 0.79183 0.13974 0.61572 0.0
C29 C 0.7811 0.15576 0.59969 0.0
C30 C 0.79526 0.15225 0.57985 0.0
N31 N 0.75573 0.17547 0.60254 0.0
C32 C 0.74351 0.18468 0.62127 0.0
H33 H 0.65972 0.41428 0.08876 0.0
H34 H 0.72136 0.36943 0.13213 0.0
H35 H 0.70416 0.34497 0.07015 0.0
C36 C 0.67575 0.39792 0.09225 0.0
C37 C 0.68028 0.38025 0.07693 0.0
C38 C 0.69042 0.39427 0.11225 0.0
C39 C 0.70993 0.37246 0.11683 0.0
C40 C 0.71463 0.35466 0.10153 0.0
C41 C 0.69979 0.35871 0.08183 0.0
N42 N 0.73364 0.33223 0.10511 0.0
C43 C 0.75429 0.32585 0.12256 0.0
H44 H 0.65916 0.59981 0.58951 0.0
H45 H 0.73022 0.63869 0.6322 0.0
H46 H 0.73181 0.65753 0.56781 0.0
C47 C 0.6793 0.61426 0.59262 0.0
C48 C 0.6932 0.62848 0.57618 0.0
C49 C 0.69236 0.61772 0.61291 0.0
C50 C 0.71974 0.63591 0.6167 0.0
C51 C 0.73397 0.65019 0.60028 0.0
C52 C 0.72079 0.64624 0.58024 0.0
N53 N 0.76258 0.6681 0.60292 0.0
C54 C 0.77066 0.68037 0.62106 0.0
H55 H 0.85099 0.9205 0.09006 0.0
H56 H 0.78345 0.86043 0.06882 0.0
H57 H 0.78432 0.87834 0.13317 0.0
C58 C 0.83209 0.90533 0.09327 0.0
C59 C 0.81991 0.90095 0.11364 0.0
C60 C 0.81916 0.89093 0.07691 0.0
C61 C 0.79344 0.87201 0.08116 0.0
C62 C 0.78076 0.86734 0.10124 0.0
C63 C 0.79396 0.88187 0.11757 0.0
N64 N 0.7545 0.84794 0.10404 0.0
C65 C 0.74201 0.83835 0.12275 0.0
H66 H 0.17257 0.91359 0.42692 0.0
H67 H 0.23062 0.87227 0.38023 0.0
H68 H 0.22472 0.8451 0.44232 0.0
C69 C 0.18905 0.89787 0.4224 0.0
C70 C 0.19729 0.87979 0.43718 0.0
C71 C 0.20083 0.89542 0.40173 0.0
C72 C 0.22112 0.87437 0.39598 0.0
C73 C 0.2294 0.85618 0.41074 0.0
C74 C 0.21748 0.85908 0.43108 0.0
N75 N 0.24955 0.83456 0.40606 0.0
C76 C 0.26623 0.82879 0.38734 0.0
H77 H 0.34687 0.60455 0.92427 0.0
H78 H 0.26442 0.65743 0.94277 0.0
H79 H 0.2698 0.6355 0.87952 0.0
C80 C 0.32442 0.61714 0.92023 0.0
C81 C 0.31072 0.61821 0.89983 0.0
C82 C 0.30823 0.63135 0.93581 0.0
C83 C 0.27748 0.64644 0.93092 0.0
C84 C 0.26397 0.64825 0.91072 0.0
C85 C 0.28073 0.63429 0.8951 0.0
N86 N 0.23202 0.66324 0.907 0.0
C87 C 0.22649 0.67735 0.88937 0.0
C88 C 0.90848 0.07831 0.27387 0.0
C89 C 0.92874 0.04146 0.29144 0.0
C90 C 0.93468 0.06612 0.28595 0.0
C91 C 0.89734 0.02891 0.28343 0.0
C92 C 0.87572 0.06629 0.26681 0.0
C93 C 0.87084 0.04132 0.27115 0.0
N94 N 0.91436 0.10232 0.2697 0.0
C95 C 0.88702 0.11606 0.26033 0.0
C96 C 0.84849 0.0799 0.25606 0.0
C97 C 0.85388 0.10499 0.25312 0.0
Gd98 Gd 0.04936 0.12298 0.2353 0.0
Gd99 Gd 0.97151 0.11923 0.28129 0.0
N100 N 0.96432 0.07894 0.29368 0.0
C101 C 0.95356 0.03052 0.30556 0.0
C102 C 0.98621 0.06908 0.30893 0.0
C103 C 0.98185 0.04459 0.31473 0.0
H104 H 0.00692 0.08013 0.3168 0.0
H105 H 0.9999 0.03674 0.32649 0.0
H106 H 0.0411 0.17926 0.21673 0.0
H107 H 0.89146 0.1354 0.25794 0.0
H108 H 0.07736 0.21809 0.21652 0.0
H109 H 0.94999 0.01162 0.31022 0.0
H110 H 0.89258 0.00986 0.28723 0.0
H111 H 0.1131 0.07914 0.24789 0.0
H112 H 0.82289 0.07135 0.25038 0.0
H113 H 0.83265 0.11576 0.24521 0.0
H114 H 0.19245 0.19813 0.25224 0.0
H115 H 0.84615 0.03162 0.26559 0.0
H116 H 0.21296 0.11425 0.27022 0.0
H117 H 0.17638 0.07657 0.26359 0.0
N118 N 0.1114 0.11801 0.24817 0.0
C119 C 0.13209 0.13877 0.25032 0.0
C120 C 0.12774 0.09579 0.25176 0.0
C121 C 0.1846 0.11553 0.26395 0.0
C122 C 0.16404 0.09423 0.26026 0.0
C123 C 0.16917 0.13812 0.25837 0.0
H124 H 0.2187 0.15972 0.26592 0.0
N125 N 0.08224 0.16014 0.23435 0.0
C126 C 0.11729 0.16045 0.24285 0.0
C127 C 0.12406 0.20312 0.23384 0.0
C128 C 0.13902 0.18205 0.24308 0.0
C129 C 0.06836 0.18016 0.22424 0.0
C130 C 0.0888 0.20206 0.2241 0.0
O131 O 0.95938 0.10564 0.24889 0.0
O132 O 0.0152 0.08856 0.23923 0.0
O133 O 0.03134 0.12486 0.20336 0.0
O134 O 0.08739 0.11201 0.21068 0.0
O135 O 0.03058 0.10467 0.2878 0.0
O136 O 0.04914 0.08957 0.25636 0.0
O137 O 0.04088 0.15428 0.25748 0.0
O138 O 0.02907 0.13518 0.28824 0.0
O139 O 0.9469 0.11907 0.31239 0.0
O140 O 0.94606 0.15208 0.29321 0.0
O141 O 0.99378 0.14212 0.22849 0.0
O142 O 0.96522 0.15167 0.25983 0.0
C143 C 0.97818 0.08814 0.23986 0.0
C144 C 0.04957 0.08887 0.27667 0.0
C145 C 0.05785 0.09586 0.18119 0.0
C146 C 0.06481 0.08133 0.1459 0.0
C147 C 0.03526 0.05554 0.17211 0.0
C148 C 0.04062 0.0737 0.18679 0.0
C149 C 0.04716 0.05929 0.15177 0.0
C150 C 0.06999 0.09958 0.16081 0.0
C151 C 0.06244 0.11551 0.19624 0.0
C152 C 0.17532 0.18172 0.25188 0.0
C153 C 0.19027 0.15983 0.25965 0.0
H154 H 0.13987 0.22009 0.23371 0.0
C155 C 0.04459 0.15303 0.27758 0.0
C156 C 0.97004 0.15495 0.23982 0.0
C157 C 0.91669 0.15536 0.32682 0.0
C158 C 0.89697 0.16027 0.3627 0.0
C159 C 0.87895 0.19034 0.3367 0.0
C160 C 0.89809 0.1772 0.32167 0.0
C161 C 0.87835 0.182 0.35705 0.0
C162 C 0.91585 0.14685 0.34737 0.0
C163 C 0.93688 0.14181 0.31065 0.0
H164 H 0.02188 0.03848 0.17651 0.0
H165 H 0.03126 0.07051 0.20245 0.0
H166 H 0.04304 0.04482 0.14072 0.0
H167 H 0.08289 0.11686 0.15651 0.0
H168 H 0.86448 0.20707 0.33255 0.0
H169 H 0.89813 0.18408 0.30596 0.0
H170 H 0.86296 0.19249 0.36837 0.0
H171 H 0.93056 0.13018 0.35149 0.0
C172 C 0.6156 0.42689 0.76186 0.0
C173 C 0.60508 0.46794 0.77432 0.0
C174 C 0.59354 0.44335 0.77278 0.0
C175 C 0.63791 0.47591 0.76404 0.0
C176 C 0.64914 0.43468 0.75201 0.0
C177 C 0.65992 0.45932 0.75296 0.0
N178 N 0.60363 0.40335 0.76038 0.0
C179 C 0.62483 0.38636 0.75035 0.0
C180 C 0.67058 0.4175 0.74124 0.0
C181 C 0.65851 0.39321 0.74054 0.0
Gd182 Gd 0.45984 0.393 0.73693 0.0
Gd183 Gd 0.54696 0.39368 0.77737 0.0
N184 N 0.5616 0.43519 0.78243 0.0
C185 C 0.58385 0.48367 0.78663 0.0
C186 C 0.54345 0.44982 0.79617 0.0
C187 C 0.55341 0.47442 0.79797 0.0
H188 H 0.52202 0.44252 0.80627 0.0
H189 H 0.53811 0.48608 0.80846 0.0
H190 H 0.47359 0.33257 0.72936 0.0
H191 H 0.61549 0.36759 0.74982 0.0
H192 H 0.43771 0.29437 0.73314 0.0
H193 H 0.59175 0.50268 0.7882 0.0
H194 H 0.64691 0.49479 0.76487 0.0
H195 H 0.39937 0.43782 0.74806 0.0
H196 H 0.69651 0.42278 0.73346 0.0
H197 H 0.67505 0.37978 0.73239 0.0
H198 H 0.31399 0.31997 0.75418 0.0
H199 H 0.68535 0.46571 0.74528 0.0
H200 H 0.29228 0.40554 0.76308 0.0
H201 H 0.3328 0.44218 0.75913 0.0
N202 N 0.39674 0.39918 0.74651 0.0
C203 C 0.37484 0.37883 0.74822 0.0
C204 C 0.38209 0.42173 0.75018 0.0
C205 C 0.32151 0.40353 0.75836 0.0
C206 C 0.34433 0.42425 0.75621 0.0
C207 C 0.33664 0.38046 0.75432 0.0
H208 H 0.2855 0.35999 0.7611 0.0
N209 N 0.42832 0.35518 0.73918 0.0
C210 C 0.39096 0.35621 0.74427 0.0
C211 C 0.38643 0.31226 0.74254 0.0
C212 C 0.36917 0.33472 0.74637 0.0
C213 C 0.4448 0.3334 0.7346 0.0
C214 C 0.42431 0.31163 0.73647 0.0
O215 O 0.5531 0.40683 0.74409 0.0
O216 O 0.49734 0.4261 0.73793 0.0
O217 O 0.46934 0.38595 0.70443 0.0
O218 O 0.42326 0.40928 0.71374 0.0
O219 O 0.49093 0.4105 0.7873 0.0
O220 O 0.46694 0.42623 0.75686 0.0
O221 O 0.44887 0.37512 0.76788 0.0
O222 O 0.50617 0.36202 0.78131 0.0
O223 O 0.55885 0.39521 0.81075 0.0
O224 O 0.59185 0.37195 0.79035 0.0
O225 O 0.51219 0.37071 0.72912 0.0
O226 O 0.54056 0.3589 0.7598 0.0
C227 C 0.53413 0.42507 0.73603 0.0
C228 C 0.46914 0.42605 0.77714 0.0
C229 C 0.45205 0.41785 0.68177 0.0
C230 C 0.44979 0.4292 0.64528 0.0
C231 C 0.4808 0.45573 0.67007 0.0
C232 C 0.47181 0.43945 0.686 0.0
C233 C 0.46995 0.45069 0.64983 0.0
C234 C 0.44114 0.41278 0.66145 0.0
C235 C 0.44236 0.40052 0.69837 0.0
C236 C 0.3311 0.3363 0.75242 0.0
C237 C 0.31488 0.35909 0.75638 0.0
H238 H 0.3707 0.29534 0.74408 0.0
C239 C 0.46911 0.36048 0.77959 0.0
C240 C 0.53492 0.35641 0.73993 0.0
C241 C 0.61033 0.37078 0.82617 0.0
C242 C 0.62542 0.36778 0.86287 0.0
C243 C 0.66245 0.34528 0.83787 0.0
C244 C 0.64026 0.35469 0.82196 0.0
C245 C 0.65504 0.35167 0.8582 0.0
C246 C 0.60325 0.37755 0.84673 0.0
C247 C 0.58644 0.37964 0.80896 0.0
H248 H 0.49588 0.47244 0.67346 0.0
H249 H 0.47998 0.44382 0.70159 0.0
H250 H 0.47666 0.46385 0.63783 0.0
H251 H 0.4261 0.39596 0.65826 0.0
H252 H 0.6854 0.33291 0.83444 0.0
H253 H 0.64652 0.34921 0.80632 0.0
H254 H 0.67277 0.34417 0.87031 0.0
H255 H 0.5802 0.38985 0.85022 0.0
C256 C 0.88289 0.86958 0.76588 0.0
C257 C 0.8835 0.82606 0.77315 0.0
C258 C 0.90152 0.84903 0.77313 0.0
C259 C 0.84692 0.82389 0.76489 0.0
C260 C 0.84549 0.86766 0.75845 0.0
C261 C 0.82799 0.84464 0.75751 0.0
N262 N 0.90047 0.89161 0.76731 0.0
C263 C 0.88062 0.91258 0.76367 0.0
C264 C 0.82632 0.88903 0.75289 0.0
C265 C 0.84372 0.91162 0.7559 0.0
Gd266 Gd 0.03622 0.89801 0.73054 0.0
Gd267 Gd 0.96387 0.89073 0.77884 0.0
N268 N 0.93713 0.85163 0.78063 0.0
C269 C 0.90263 0.80606 0.78176 0.0
C270 C 0.95523 0.83255 0.79 0.0
C271 C 0.93845 0.8094 0.79048 0.0
H272 H 0.98294 0.8352 0.79669 0.0
H273 H 0.95318 0.79416 0.7975 0.0
H274 H 0.99694 0.94159 0.70035 0.0
H275 H 0.8928 0.93018 0.767 0.0
H276 H 0.00452 0.98572 0.6938 0.0
H277 H 0.88976 0.78809 0.78206 0.0
H278 H 0.83277 0.80633 0.7645 0.0
H279 H 0.11671 0.87868 0.7519 0.0
H280 H 0.79758 0.88835 0.74709 0.0
H281 H 0.82852 0.92831 0.75256 0.0
H282 H 0.12068 1.00587 0.72814 0.0
H283 H 0.79943 0.84279 0.75162 0.0
H284 H 0.19081 0.94012 0.75886 0.0
H285 H 0.17804 0.89593 0.76324 0.0
N286 N 0.09531 0.91277 0.7414 0.0
C287 C 0.10246 0.93682 0.73794 0.0
C288 C 0.12227 0.89794 0.74986 0.0
C289 C 0.16406 0.93261 0.75373 0.0
C290 C 0.15694 0.90766 0.75626 0.0
C291 C 0.13676 0.94751 0.74436 0.0
H292 H 0.1687 0.98124 0.74622 0.0
N293 N 0.04344 0.93936 0.721 0.0
C294 C 0.07532 0.95064 0.72783 0.0
C295 C 0.0553 0.98854 0.71203 0.0
C296 C 0.08191 0.97561 0.72376 0.0
C297 C 0.01943 0.95131 0.70794 0.0
C298 C 0.0243 0.9762 0.70373 0.0
O299 O 0.97219 0.86056 0.75567 0.0
O300 O 0.97874 0.881 0.72516 0.0
O301 O 0.05325 0.90154 0.69844 0.0
O302 O 0.06193 0.86747 0.71471 0.0
O303 O 0.02269 0.87492 0.78323 0.0
O304 O 0.04556 0.86463 0.75074 0.0
O305 O 0.05073 0.91192 0.7625 0.0
O306 O 0.99465 0.92644 0.77458 0.0
O307 O 0.98358 0.8884 0.81046 0.0
O308 O 0.92661 0.90034 0.8042 0.0
O309 O 0.9761 0.91187 0.72626 0.0
O310 O 0.95802 0.92466 0.75864 0.0
C311 C 0.96531 0.86256 0.73591 0.0
C312 C 0.04443 0.86178 0.77099 0.0
C313 C 0.10513 0.87775 0.68789 0.0
C314 C 0.14327 0.87941 0.65643 0.0
C315 C 0.17263 0.86992 0.68949 0.0
C316 C 0.13762 0.87182 0.6993 0.0
C317 C 0.17552 0.87364 0.66822 0.0
C318 C 0.10814 0.88157 0.66651 0.0
C319 C 0.0677 0.8798 0.69775 0.0
C320 C 0.11533 0.98664 0.73091 0.0
C321 C 0.14275 0.9726 0.74114 0.0
H322 H 0.05927 1.00776 0.70858 0.0
C323 C 0.03139 0.92848 0.77243 0.0
C324 C 0.95654 0.92636 0.73835 0.0
C325 C 0.95694 0.91647 0.83344 0.0
C326 C 0.94955 0.9307 0.86877 0.0
C327 C 0.97987 0.9566 0.84292 0.0
C328 C 0.97454 0.93859 0.82809 0.0
C329 C 0.96758 0.9527 0.86316 0.0
C330 C 0.94433 0.91264 0.85372 0.0
C331 C 0.95245 0.89701 0.81819 0.0
H332 H 0.19757 0.86528 0.69837 0.0
H333 H 0.13598 0.86844 0.71572 0.0
H334 H 0.2029 0.87146 0.66096 0.0
H335 H 0.08303 0.88632 0.65777 0.0
H336 H 0.99359 0.97361 0.83871 0.0
H337 H 0.98425 0.94185 0.81253 0.0
H338 H 0.97173 0.96702 0.87435 0.0
H339 H 0.93108 0.8954 0.85784 0.0
C340 C 0.63358 0.6416 0.26658 0.0
C341 C 0.63252 0.6856 0.27074 0.0
C342 C 0.61395 0.66278 0.27145 0.0
C343 C 0.67075 0.68685 0.26491 0.0
C344 C 0.67194 0.64284 0.26063 0.0
C345 C 0.69036 0.66556 0.2598 0.0
N346 N 0.61491 0.61988 0.26719 0.0
C347 C 0.63312 0.59866 0.26267 0.0
C348 C 0.69061 0.62118 0.2556 0.0
C349 C 0.67114 0.59899 0.2567 0.0
Gd350 Gd 0.47029 0.61829 0.2334 0.0
Gd351 Gd 0.55121 0.62133 0.27709 0.0
N352 N 0.57662 0.66109 0.27657 0.0
C353 C 0.61213 0.70649 0.27598 0.0
C354 C 0.55732 0.68125 0.2828 0.0
C355 C 0.57449 0.70426 0.28224 0.0
H356 H 0.5291 0.67978 0.28876 0.0
H357 H 0.55882 0.72023 0.28694 0.0
H358 H 0.49508 0.5608 0.22005 0.0
H359 H 0.61857 0.58139 0.26402 0.0
H360 H 0.46928 0.5193 0.22314 0.0
H361 H 0.62537 0.72435 0.27565 0.0
H362 H 0.68546 0.70421 0.26433 0.0
H363 H 0.40054 0.65596 0.24699 0.0
H364 H 0.72007 0.62137 0.25096 0.0
H365 H 0.68545 0.58213 0.25307 0.0
H366 H 0.34407 0.53103 0.24975 0.0
H367 H 0.71982 0.66686 0.25526 0.0
H368 H 0.30316 0.61288 0.26235 0.0
H369 H 0.33437 0.65321 0.25911 0.0
N370 N 0.40694 0.61766 0.24403 0.0
C371 C 0.39005 0.59536 0.24514 0.0
C372 C 0.38736 0.6383 0.24869 0.0
C373 C 0.33222 0.614 0.25708 0.0
C374 C 0.34978 0.63679 0.25535 0.0
C375 C 0.35231 0.59292 0.25193 0.0
H376 H 0.30711 0.56734 0.25888 0.0
N377 N 0.44779 0.57777 0.23409 0.0
C378 C 0.41109 0.57483 0.2401 0.0
C379 C 0.41623 0.5312 0.23589 0.0
C380 C 0.39459 0.55141 0.24153 0.0
C381 C 0.46793 0.5583 0.22715 0.0
C382 C 0.45285 0.53471 0.22834 0.0
O383 O 0.56425 0.63725 0.24548 0.0
O384 O 0.50751 0.65191 0.2334 0.0
O385 O 0.4745 0.60961 0.20088 0.0
O386 O 0.43336 0.63595 0.21103 0.0
O387 O 0.49522 0.64074 0.28296 0.0
O388 O 0.47182 0.65328 0.25123 0.0
O389 O 0.45767 0.60366 0.26561 0.0
O390 O 0.51415 0.58777 0.27655 0.0
O391 O 0.54342 0.62879 0.30967 0.0
O392 O 0.58855 0.60504 0.2999 0.0
O393 O 0.52739 0.60075 0.22719 0.0
O394 O 0.549 0.58666 0.25871 0.0
C395 C 0.54457 0.65308 0.23468 0.0
C396 C 0.47401 0.65525 0.27141 0.0
C397 C 0.45999 0.64172 0.17803 0.0
C398 C 0.45683 0.65212 0.14139 0.0
C399 C 0.49644 0.67585 0.16451 0.0
C400 C 0.48533 0.66109 0.18106 0.0
C401 C 0.48239 0.67141 0.14478 0.0
C402 C 0.44568 0.63733 0.1582 0.0
C403 C 0.44921 0.62558 0.19528 0.0
C404 C 0.35709 0.5489 0.24842 0.0
C405 C 0.336 0.56958 0.25359 0.0
H406 H 0.40462 0.5129 0.23678 0.0
C407 C 0.47704 0.58741 0.27615 0.0
C408 C 0.5482 0.58576 0.23844 0.0
C409 C 0.56125 0.59707 0.33232 0.0
C410 C 0.56336 0.58641 0.36892 0.0
C411 C 0.53318 0.55918 0.34443 0.0
C412 C 0.54196 0.57525 0.32834 0.0
C413 C 0.54362 0.5647 0.36463 0.0
C414 C 0.57201 0.60258 0.35259 0.0
C415 C 0.57046 0.61415 0.31548 0.0
H416 H 0.516 0.69078 0.16699 0.0
H417 H 0.49655 0.66475 0.19618 0.0
H418 H 0.49115 0.68327 0.13221 0.0
H419 H 0.42642 0.62218 0.15584 0.0
H420 H 0.51862 0.54228 0.34118 0.0
H421 H 0.53402 0.57059 0.31279 0.0
H422 H 0.53697 0.55176 0.37681 0.0
H423 H 0.58686 0.61951 0.35563 0.0
H424 H 0.17723 0.88982 0.36166 0.0
H425 H 0.15786 0.92176 0.33724 0.0
H426 H 0.18123 0.97654 0.38288 0.0
H427 H 0.20221 0.94497 0.40695 0.0
H428 H 0.0997 0.95308 0.3412 0.0
H429 H 0.23228 1.00616 0.33325 0.0
H430 H 0.23105 0.97608 0.34478 0.0
H431 H 0.21863 1.00244 0.35971 0.0
C432 C 0.1791 0.90871 0.36633 0.0
C433 C 0.19127 0.91478 0.38631 0.0
C434 C 0.16776 0.92694 0.3524 0.0
C435 C 0.16857 0.95162 0.3581 0.0
C436 C 0.18113 0.95773 0.37792 0.0
H437 H 0.0805 0.08901 0.31522 0.0
H438 H 0.11043 0.05482 0.33353 0.0
C439 C 0.19261 0.93957 0.3918 0.0
C440 C 0.15387 0.97087 0.34393 0.0
H441 H 0.17526 0.0264 0.32249 0.0
C442 C 0.1164 0.96894 0.33687 0.0
C443 C 0.17566 0.99158 0.33824 0.0
C444 C 0.21675 0.99409 0.34422 0.0
C445 C 0.09968 0.98758 0.325 0.0
C446 C 0.1211 0.00863 0.31991 0.0
C447 C 0.15882 0.01032 0.32654 0.0
C448 C 0.1044 0.02946 0.30835 0.0
C449 C 0.05879 0.98498 0.31863 0.0
C450 C 0.09179 0.02667 0.28798 0.0
C451 C 0.07464 0.04615 0.27752 0.0
C452 C 0.06983 0.06876 0.28726 0.0
C453 C 0.08349 0.07171 0.30743 0.0
C454 C 0.10067 0.05224 0.31786 0.0
H455 H 0.04408 0.97027 0.32741 0.0
H456 H 0.04333 1.00234 0.32092 0.0
H457 H 0.05741 0.98045 0.30201 0.0
H458 H 0.09495 0.00937 0.28023 0.0
H459 H 0.06443 0.04336 0.26197 0.0
H460 H 0.27268 0.59367 0.86931 0.0
H461 H 0.29784 0.5628 0.84608 0.0
H462 H 0.40901 0.57247 0.87228 0.0
H463 H 0.38471 0.60444 0.89453 0.0
H464 H 0.41426 0.5663 0.83221 0.0
H465 H 0.32018 0.49436 0.86438 0.0
H466 H 0.2947 0.51957 0.85339 0.0
H467 H 0.32409 0.52418 0.8757 0.0
C468 C 0.30265 0.58965 0.86984 0.0
C469 C 0.32652 0.60136 0.88407 0.0
C470 C 0.31688 0.57165 0.85676 0.0
C471 C 0.35509 0.56471 0.85787 0.0
C472 C 0.37932 0.57723 0.87131 0.0
H473 H 0.45265 0.42758 0.81838 0.0
H474 H 0.425 0.46153 0.83747 0.0
C475 C 0.36526 0.5954 0.88417 0.0
C476 C 0.36992 0.54414 0.84543 0.0
H477 H 0.35767 0.48344 0.83562 0.0
C478 C 0.40186 0.54819 0.83296 0.0
C479 C 0.35424 0.52034 0.8467 0.0
C480 C 0.32167 0.51423 0.86092 0.0
C481 C 0.41845 0.52921 0.82171 0.0
C482 C 0.40191 0.50564 0.8224 0.0
C483 C 0.37007 0.50156 0.83491 0.0
C484 C 0.41775 0.48484 0.81065 0.0
C485 C 0.45426 0.53447 0.80975 0.0
C486 C 0.42219 0.48642 0.78918 0.0
C487 C 0.4385 0.46722 0.77831 0.0
C488 C 0.45005 0.44581 0.78862 0.0
C489 C 0.44431 0.44389 0.81001 0.0
C490 C 0.42841 0.46326 0.82093 0.0
H491 H 0.46916 0.55085 0.8157 0.0
H492 H 0.47401 0.51875 0.81041 0.0
H493 H 0.44698 0.53808 0.79337 0.0
H494 H 0.41328 0.50259 0.78082 0.0
H495 H 0.44263 0.46938 0.76185 0.0
H496 H 0.61935 0.60384 0.62023 0.0
H497 H 0.59692 0.57211 0.64396 0.0
H498 H 0.71046 0.56232 0.66689 0.0
H499 H 0.73328 0.59405 0.64296 0.0
H500 H 0.62443 0.5233 0.64256 0.0
H501 H 0.64369 0.56492 0.71982 0.0
H502 H 0.64151 0.58297 0.69641 0.0
H503 H 0.68365 0.56626 0.70264 0.0
C504 C 0.63952 0.59514 0.63049 0.0
C505 C 0.67816 0.60133 0.62961 0.0
C506 C 0.62663 0.57705 0.64406 0.0
C507 C 0.65199 0.56487 0.65719 0.0
C508 C 0.69033 0.57171 0.65706 0.0
H509 H 0.59885 0.42239 0.71314 0.0
H510 H 0.63119 0.4559 0.6949 0.0
C511 C 0.70331 0.58987 0.64342 0.0
C512 C 0.63847 0.54379 0.66969 0.0
H513 H 0.62249 0.52398 0.71902 0.0
C514 C 0.62415 0.52339 0.65929 0.0
C515 C 0.63807 0.54402 0.69148 0.0
C516 C 0.65228 0.56574 0.70335 0.0
C517 C 0.60899 0.50331 0.67006 0.0
C518 C 0.60852 0.50353 0.69186 0.0
C519 C 0.62315 0.52383 0.70231 0.0
C520 C 0.59082 0.48346 0.70396 0.0
C521 C 0.59262 0.48234 0.65801 0.0
C522 C 0.55797 0.48796 0.71544 0.0
C523 C 0.53966 0.46893 0.7259 0.0
C524 C 0.55409 0.44509 0.72521 0.0
C525 C 0.58732 0.44064 0.71399 0.0
C526 C 0.60564 0.45971 0.7035 0.0
H527 H 0.58784 0.48727 0.64157 0.0
H528 H 0.61258 0.46675 0.65859 0.0
H529 H 0.56536 0.47617 0.6648 0.0
H530 H 0.54607 0.50615 0.71598 0.0
H531 H 0.5142 0.47286 0.73455 0.0
H532 H 0.89256 0.9159 0.12011 0.0
H533 H 0.91511 0.94633 0.14455 0.0
H534 H 0.80245 0.9529 0.1694 0.0
H535 H 0.77951 0.92242 0.14478 0.0
H536 H 0.88731 0.99459 0.14562 0.0
H537 H 0.87094 0.94709 0.22125 0.0
H538 H 0.87204 0.93091 0.1971 0.0
H539 H 0.83016 0.94701 0.20464 0.0
C540 C 0.8726 0.92366 0.13089 0.0
C541 C 0.83417 0.9169 0.1304 0.0
C542 C 0.88556 0.94099 0.14488 0.0
C543 C 0.86051 0.95185 0.15881 0.0
C544 C 0.82237 0.94451 0.15896 0.0
H545 H 0.90923 0.08983 0.22086 0.0
H546 H 0.87722 0.05672 0.20242 0.0
C547 C 0.80932 0.92708 0.14491 0.0
C548 C 0.87409 0.97206 0.17202 0.0
H549 H 0.89106 0.98832 0.22194 0.0
C550 C 0.88795 0.99327 0.16231 0.0
C551 C 0.87508 0.97021 0.19377 0.0
C552 C 0.86155 0.94754 0.2049 0.0
C553 C 0.90304 0.01261 0.17375 0.0
C554 C 0.90396 0.0108 0.19549 0.0
C555 C 0.88996 0.98967 0.20526 0.0
C556 C 0.92135 0.03021 0.20814 0.0
C557 C 0.91887 0.03461 0.16252 0.0
C558 C 0.95631 0.02607 0.21777 0.0
C559 C 0.97451 0.04489 0.22831 0.0
C560 C 0.95788 0.06809 0.22954 0.0
C561 C 0.92243 0.07204 0.22033 0.0
C562 C 0.90426 0.05322 0.20971 0.0
H563 H 0.92162 0.03147 0.14569 0.0
H564 H 0.89977 0.0504 0.16484 0.0
H565 H 0.94709 0.03955 0.16878 0.0
H566 H 0.96996 0.00845 0.21668 0.0
H567 H 1.00176 0.04134 0.23537 0.0
H568 H 0.77284 0.10137 0.64333 0.0
H569 H 0.7913 0.07134 0.66959 0.0
H570 H 0.90321 0.06803 0.64322 0.0
H571 H 0.88582 0.09897 0.61785 0.0
H572 H 0.81194 0.02551 0.66499 0.0
H573 H 0.92978 0.07406 0.70265 0.0
H574 H 0.89763 0.08924 0.68518 0.0
H575 H 0.93753 0.07245 0.6754 0.0
C576 C 0.80166 0.0947 0.64343 0.0
C577 C 0.82778 0.10264 0.6284 0.0
C578 C 0.81209 0.07736 0.65836 0.0
C579 C 0.84885 0.06764 0.65863 0.0
C580 C 0.87498 0.07564 0.64372 0.0
H581 H 0.9267 0.92782 0.69958 0.0
H582 H 0.89667 0.96244 0.68229 0.0
C583 C 0.86473 0.0931 0.62895 0.0
C584 C 0.8594 0.04803 0.67356 0.0
H585 H 0.92921 0.03022 0.70681 0.0
C586 C 0.83727 0.02671 0.67438 0.0
C587 C 0.892 0.04967 0.68619 0.0
C588 C 0.91531 0.07272 0.68749 0.0
C589 C 0.84787 1.00659 0.68664 0.0
C590 C 0.88213 1.00753 0.69794 0.0
C591 C 0.90323 0.02929 0.69793 0.0
C592 C 0.89769 0.98588 0.70901 0.0
C593 C 0.82216 0.98457 0.68731 0.0
C594 C 0.90891 0.98752 0.72974 0.0
C595 C 0.92686 0.96786 0.73954 0.0
C596 C 0.93409 0.94622 0.72876 0.0
C597 C 0.92169 0.94431 0.70825 0.0
C598 C 0.90412 0.96403 0.69841 0.0
H599 H 0.79227 0.98979 0.68434 0.0
H600 H 0.83073 0.97167 0.67509 0.0
H601 H 0.82369 0.975 0.70245 0.0
H602 H 0.90442 1.0042 0.73823 0.0
H603 H 0.93619 0.9699 0.75535 0.0
H604 H 0.66877 0.38756 0.15257 0.0
H605 H 0.65041 0.41915 0.17726 0.0
H606 H 0.67806 0.47499 0.13256 0.0
H607 H 0.69709 0.44373 0.10797 0.0
H608 H 0.69688 0.46991 0.18908 0.0
H609 H 0.55649 0.47571 0.15021 0.0
H610 H 0.58443 0.44813 0.15016 0.0
H611 H 0.59815 0.4736 0.1343 0.0
C612 C 0.67181 0.40658 0.14818 0.0
C613 C 0.684 0.41314 0.12823 0.0
C614 C 0.66121 0.42456 0.16227 0.0
C615 C 0.66273 0.44931 0.15662 0.0
C616 C 0.6766 0.45595 0.13713 0.0
H617 H 0.56814 0.5843 0.19789 0.0
H618 H 0.59832 0.55084 0.17953 0.0
C619 C 0.68721 0.43806 0.12308 0.0
C620 C 0.64688 0.46823 0.17022 0.0
H621 H 0.56954 0.5047 0.17582 0.0
C622 C 0.66895 0.47745 0.18637 0.0
C623 C 0.61054 0.47798 0.16649 0.0
C624 C 0.58574 0.46837 0.14943 0.0
C625 C 0.65585 0.49677 0.19861 0.0
C626 C 0.61957 0.50673 0.19471 0.0
C627 C 0.59737 0.49711 0.17876 0.0
C628 C 0.60423 0.52762 0.20648 0.0
C629 C 0.68141 0.5069 0.2151 0.0
C630 C 0.59773 0.52577 0.22779 0.0
C631 C 0.58058 0.54497 0.23838 0.0
C632 C 0.56932 0.56625 0.22777 0.0
C633 C 0.57641 0.56815 0.2065 0.0
C634 C 0.59367 0.54904 0.19598 0.0
H635 H 0.71135 0.50138 0.21279 0.0
H636 H 0.67996 0.52713 0.21541 0.0
H637 H 0.6721 0.49983 0.23036 0.0
H638 H 0.60487 0.50922 0.23614 0.0
H639 H 0.57506 0.54283 0.25472 0.0
H640 H 0.30231 0.44915 0.40407 0.0
H641 H 0.32428 0.48024 0.37963 0.0
H642 H 0.36163 0.424 0.3383 0.0
H643 H 0.33992 0.39263 0.36289 0.0
H644 H 0.4021 0.48261 0.36815 0.0
H645 H 0.30722 0.47492 0.30007 0.0
H646 H 0.29399 0.46373 0.32536 0.0
H647 H 0.32682 0.44688 0.30995 0.0
C648 C 0.31476 0.44336 0.38966 0.0
C649 C 0.31978 0.41842 0.38551 0.0
C650 C 0.32714 0.46116 0.37568 0.0
C651 C 0.34449 0.45445 0.35714 0.0
C652 C 0.34782 0.42957 0.3524 0.0
H653 H 0.50428 0.54252 0.28695 0.0
H654 H 0.47136 0.50995 0.30583 0.0
C655 C 0.33541 0.41167 0.36645 0.0
C656 C 0.36273 0.47347 0.34407 0.0
H657 H 0.36005 0.50153 0.29681 0.0
C658 C 0.39284 0.48677 0.35256 0.0
C659 C 0.35052 0.47889 0.32379 0.0
C660 C 0.31769 0.46553 0.3142 0.0
C661 C 0.41125 0.50525 0.34131 0.0
C662 C 0.39951 0.51046 0.32091 0.0
C663 C 0.36912 0.49736 0.31242 0.0
C664 C 0.41856 0.52959 0.30834 0.0
C665 C 0.44315 0.51906 0.3514 0.0
C666 C 0.39958 0.55128 0.30325 0.0
C667 C 0.41854 0.57011 0.29277 0.0
C668 C 0.45664 0.56741 0.28696 0.0
C669 C 0.47516 0.54534 0.29155 0.0
C670 C 0.45634 0.52665 0.3022 0.0
H671 H 0.44211 0.51743 0.36848 0.0
H672 H 0.47044 0.51131 0.34614 0.0
H673 H 0.44253 0.5387 0.34708 0.0
H674 H 0.37042 0.5539 0.30787 0.0
H675 H 0.40356 0.58693 0.28955 0.0
H676 H 0.16984 0.12084 0.86196 0.0
H677 H 0.14518 0.09148 0.83685 0.0
H678 H 0.17395 0.03214 0.87793 0.0
H679 H 0.19902 0.06118 0.90288 0.0
H680 H 0.17989 0.04638 0.81794 0.0
H681 H 0.05561 0.02888 0.86857 0.0
H682 H 0.08522 0.05561 0.87108 0.0
H683 H 0.10103 0.02666 0.88094 0.0
C684 C 0.17162 0.10152 0.86544 0.0
C685 C 0.18588 0.09335 0.88454 0.0
C686 C 0.15742 0.08479 0.85112 0.0
C687 C 0.15724 0.05971 0.85571 0.0
C688 C 0.17333 0.05146 0.87424 0.0
H689 H 0.10371 0.92945 0.78728 0.0
H690 H 0.13522 0.96292 0.80534 0.0
C691 C 0.18752 0.06809 0.8885 0.0
C692 C 0.13817 0.04213 0.84189 0.0
H693 H 0.06303 1.00292 0.83988 0.0
C694 C 0.15424 0.03695 0.82263 0.0
C695 C 0.10447 0.0301 0.84799 0.0
C696 C 0.08527 0.03566 0.86819 0.0
C697 C 0.13796 0.01945 0.80955 0.0
C698 C 0.105 1.00682 0.81602 0.0
C699 C 0.08844 0.01253 0.83502 0.0
C700 C 0.08729 0.98737 0.8035 0.0
C701 C 0.15587 0.0147 0.78887 0.0
C702 C 0.04985 0.98994 0.7966 0.0
C703 C 0.03197 0.97092 0.78615 0.0
C704 C 0.0511 0.94891 0.78259 0.0
C705 C 0.08862 0.94641 0.78941 0.0
C706 C 0.10661 0.9655 0.79974 0.0
H707 H 0.17558 0.02959 0.78422 0.0
H708 H 0.17218 0.99743 0.78968 0.0
H709 H 0.13388 0.01266 0.77676 0.0
H710 H 0.03435 1.0066 0.79948 0.0
H711 H 0.00303 0.97336 0.78103 0.0
H712 H 0.12282 0.10541 0.94967 0.0
H713 H 0.10074 0.09776 0.98485 0.0
H714 H 0.20805 0.12246 0.00864 0.0
H715 H 0.23095 0.12918 0.97349 0.0
H716 H 0.18378 0.08025 0.02735 0.0
H717 H 0.06819 0.14862 0.02632 0.0
H718 H 0.06521 0.1268 1.0059 0.0
H719 H 0.10444 0.14775 1.00674 0.0
C720 C 0.14188 0.10901 0.96236 0.0
C721 C 0.17865 0.11801 0.95871 0.0
C722 C 0.12901 0.10494 0.98249 0.0
C723 C 0.15247 0.10999 0.9994 0.0
C724 C 0.18933 0.11864 0.99583 0.0
H725 H 0.13147 0.10171 0.13274 0.0
H726 H 0.1526 0.10841 0.09719 0.0
C727 C 0.20227 0.12265 0.97572 0.0
C728 C 0.13899 0.10576 0.02083 0.0
H729 H 0.07066 0.12198 0.05536 0.0
C730 C 0.15914 0.08945 0.0335 0.0
C731 C 0.10683 0.11778 0.02883 0.0
C732 C 0.08508 0.13639 0.01633 0.0
C733 C 0.14771 0.08458 0.05386 0.0
C734 C 0.11552 0.09655 0.06182 0.0
C735 C 0.09527 0.11279 0.04916 0.0
C736 C 0.10261 0.09261 0.08335 0.0
C737 C 0.16977 0.06637 0.06661 0.0
C738 C 0.06717 0.08197 0.08732 0.0
C739 C 0.05493 0.07823 0.10761 0.0
C740 C 0.07777 0.0853 0.12431 0.0
C741 C 0.1131 0.09622 0.12023 0.0
C742 C 0.12537 0.09985 0.09994 0.0
H743 H 0.18808 0.0547 0.05688 0.0
H744 H 0.1882 0.07631 0.07757 0.0
H745 H 0.15041 0.05446 0.0757 0.0
H746 H 0.04908 0.07643 0.0747 0.0
H747 H 0.02737 0.07007 0.11023 0.0
H748 H 0.28183 0.37926 0.47455 0.0
H749 H 0.30515 0.38654 0.50949 0.0
H750 H 0.41066 0.41338 0.48463 0.0
H751 H 0.38761 0.4061 0.44964 0.0
H752 H 0.36857 0.36684 0.52891 0.0
H753 H 0.37925 0.46781 0.52372 0.0
H754 H 0.35338 0.44998 0.50514 0.0
H755 H 0.40411 0.45195 0.50377 0.0
C756 C 0.31004 0.38665 0.47651 0.0
C757 C 0.33281 0.39219 0.4593 0.0
C758 C 0.32326 0.39088 0.49649 0.0
C759 C 0.35941 0.40083 0.49965 0.0
C760 C 0.38233 0.40622 0.48253 0.0
H761 H 0.48933 0.43654 0.60936 0.0
H762 H 0.46792 0.42901 0.57408 0.0
C763 C 0.36912 0.40205 0.46254 0.0
C764 C 0.37344 0.40493 0.52091 0.0
H765 H 0.40482 0.44905 0.55369 0.0
C766 C 0.37637 0.38482 0.53436 0.0
C767 C 0.38369 0.4284 0.52796 0.0
C768 C 0.37967 0.45083 0.51449 0.0
C769 C 0.38975 0.38749 0.55461 0.0
C770 C 0.39988 0.41097 0.56168 0.0
C771 C 0.39711 0.43107 0.5482 0.0
C772 C 0.41293 0.41515 0.5831 0.0
C773 C 0.39359 0.3651 0.56813 0.0
C774 C 0.38895 0.41009 0.59985 0.0
C775 C 0.40102 0.41447 0.62001 0.0
C776 C 0.43726 0.42414 0.62382 0.0
C777 C 0.46113 0.4293 0.60697 0.0
C778 C 0.44902 0.42491 0.5868 0.0
H779 H 0.39426 0.3481 0.55892 0.0
H780 H 0.41969 0.36601 0.57763 0.0
H781 H 0.36894 0.36396 0.57871 0.0
H782 H 0.36066 0.40307 0.59731 0.0
H783 H 0.38164 0.41074 0.63259 0.0
H784 H 0.68121 0.42231 0.05362 0.0
H785 H 0.65982 0.42771 0.01796 0.0
H786 H 0.62545 0.35217 0.01641 0.0
H787 H 0.64509 0.34693 0.05218 0.0
H788 H 0.68781 0.40518 0.98496 0.0
H789 H 0.5353 0.38397 0.98997 0.0
H790 H 0.56362 0.39021 0.0125 0.0
H791 H 0.56293 0.36012 1.0015 0.0
C792 C 0.66822 0.40701 0.04585 0.0
C793 C 0.66498 0.38416 0.05576 0.0
C794 C 0.65619 0.4101 0.02543 0.0
C795 C 0.64045 0.39046 0.01457 0.0
C796 C 0.6366 0.36777 0.02457 0.0
H797 H 0.61712 0.33643 0.89521 0.0
H798 H 0.61545 0.34636 0.93188 0.0
C799 C 0.64844 0.3647 0.04496 0.0
C800 C 0.63144 0.39283 0.99227 0.0
H801 H 0.56431 0.37861 0.95637 0.0
C802 C 0.66051 0.39995 0.97873 0.0
C803 C 0.59576 0.38609 0.98413 0.0
C804 C 0.56254 0.37993 0.99783 0.0
C805 C 0.65569 0.39894 0.95727 0.0
C806 C 0.62079 0.39075 0.94917 0.0
C807 C 0.59107 0.38481 0.96266 0.0
C808 C 0.61644 0.38544 0.92696 0.0
C809 C 0.68866 0.40521 0.94339 0.0
C810 C 0.61631 0.40419 0.91205 0.0
C811 C 0.6171 0.39854 0.89102 0.0
C812 C 0.61836 0.37408 0.88471 0.0
C813 C 0.61653 0.35543 0.89968 0.0
C814 C 0.61543 0.36107 0.9206 0.0
H815 H 0.71504 0.40877 0.95221 0.0
H816 H 0.69396 0.39013 0.93245 0.0
H817 H 0.68181 0.42179 0.9342 0.0
H818 H 0.61686 0.42312 0.91671 0.0
H819 H 0.61861 0.41322 0.87977 0.0
H820 H 0.82427 0.09164 0.55213 0.0
H821 H 0.84583 0.08851 0.51621 0.0
H822 H 0.87134 0.16551 0.5154 0.0
H823 H 0.85041 0.16868 0.55115 0.0
H824 H 0.81427 0.11467 0.48254 0.0
H825 H 0.96698 0.13504 0.49062 0.0
H826 H 0.93782 0.12554 0.51213 0.0
H827 H 0.93757 0.15682 0.50347 0.0
C828 C 0.83513 0.10777 0.54436 0.0
C829 C 0.83557 0.13042 0.5544 0.0
C830 C 0.84729 0.10597 0.52386 0.0
C831 C 0.86065 0.12671 0.51324 0.0
C832 C 0.86181 0.14919 0.52341 0.0
H833 H 0.90686 0.18806 0.39698 0.0
H834 H 0.90051 0.17556 0.43299 0.0
C835 C 0.84947 0.15103 0.54377 0.0
C836 C 0.87062 0.12561 0.49107 0.0
H837 H 0.94011 0.1414 0.45688 0.0
C838 C 0.842 0.11999 0.47687 0.0
C839 C 0.90683 0.13253 0.48377 0.0
C840 C 0.93918 0.13759 0.4983 0.0
C841 C 0.84785 0.12273 0.45554 0.0
C842 C 0.88353 0.13089 0.44828 0.0
C843 C 0.91274 0.13524 0.46247 0.0
C844 C 0.88983 0.13754 0.42633 0.0
C845 C 0.81514 0.11835 0.44106 0.0
C846 C 0.88678 0.1202 0.41059 0.0
C847 C 0.89008 0.12736 0.38987 0.0
C848 C 0.89655 0.15199 0.3846 0.0
C849 C 0.9011 0.16905 0.40049 0.0
C850 C 0.89779 0.1619 0.4211 0.0
H851 H 0.78782 0.1164 0.44941 0.0
H852 H 0.8126 0.13356 0.42973 0.0
H853 H 0.82018 0.1013 0.43239 0.0
H854 H 0.88129 0.10122 0.41431 0.0
H855 H 0.88642 0.11379 0.378 0.0
H856 H 0.89063 0.90341 0.06396 0.0
H857 H 0.91221 0.91126 0.02871 0.0
H858 H 0.80022 0.89554 1.00586 0.0
H859 H 0.77792 0.88887 0.04108 0.0
H860 H 0.91404 0.88083 0.99601 0.0
H861 H 0.82215 0.95999 0.97778 0.0
H862 H 0.82801 0.94836 1.00369 0.0
H863 H 0.79608 0.93357 0.98612 0.0
C864 C 0.87038 0.90205 0.05148 0.0
C865 C 0.83244 0.89564 0.05542 0.0
C866 C 0.88286 0.90635 0.03132 0.0
C867 C 0.85771 0.90439 0.01466 0.0
C868 C 0.81996 0.89771 0.01849 0.0
H869 H 0.88186 0.91157 0.88158 0.0
H870 H 0.86026 0.90477 0.91709 0.0
C871 C 0.80739 0.89355 0.03865 0.0
C872 C 0.87126 0.90861 0.99325 0.0
H873 H 0.85538 0.94245 0.94962 0.0
C874 C 0.90137 0.89442 0.98592 0.0
C875 C 0.85472 0.92637 0.98009 0.0
C876 C 0.82371 0.94311 0.98736 0.0
C877 C 0.91493 0.8972 0.96568 0.0
C878 C 0.89809 0.91473 0.9525 0.0
C879 C 0.86806 0.92895 0.95978 0.0
C880 C 0.91143 0.91866 0.93109 0.0
C881 C 0.94673 0.88111 0.95839 0.0
C882 C 0.94719 0.9289 0.92728 0.0
C883 C 0.95956 0.93286 0.90705 0.0
C884 C 0.93639 0.92656 0.89027 0.0
C885 C 0.90051 0.91634 0.89418 0.0
C886 C 0.88807 0.91256 0.91442 0.0
H887 H 0.95171 0.86545 0.96903 0.0
H888 H 0.94055 0.87398 0.94276 0.0
H889 H 0.97318 0.89201 0.95742 0.0
H890 H 0.96546 0.93395 0.93997 0.0
H891 H 0.98743 0.9406 0.90453 0.0
H892 H 0.73415 0.629 0.54023 0.0
H893 H 0.71083 0.62313 0.50512 0.0
H894 H 0.59769 0.61263 0.52845 0.0
H895 H 0.62049 0.61907 0.56362 0.0
H896 H 0.62503 0.57616 0.49926 0.0
H897 H 0.64326 0.67162 0.47119 0.0
H898 H 0.68358 0.65829 0.48388 0.0
H899 H 0.6411 0.66379 0.49828 0.0
C900 C 0.7042 0.6258 0.53791 0.0
C901 C 0.67918 0.62464 0.55479 0.0
C902 C 0.69097 0.62239 0.51783 0.0
C903 C 0.6525 0.61773 0.51421 0.0
C904 C 0.62748 0.61627 0.53096 0.0
H905 H 0.52209 0.58165 0.40441 0.0
H906 H 0.54292 0.58945 0.43974 0.0
C907 C 0.64063 0.61981 0.55105 0.0
C908 C 0.63855 0.61379 0.49297 0.0
H909 H 0.62638 0.64211 0.44638 0.0
C910 C 0.6251 0.59057 0.48769 0.0
C911 C 0.63894 0.63263 0.47796 0.0
C912 C 0.65221 0.65807 0.48305 0.0
C913 C 0.6127 0.58552 0.4676 0.0
C914 C 0.61287 0.60441 0.45256 0.0
C915 C 0.62622 0.62767 0.45792 0.0
C916 C 0.59973 0.60034 0.43112 0.0
C917 C 0.60061 0.55982 0.46255 0.0
C918 C 0.62427 0.60472 0.41447 0.0
C919 C 0.61232 0.60052 0.39426 0.0
C920 C 0.57555 0.59184 0.39032 0.0
C921 C 0.55079 0.58792 0.407 0.0
C922 C 0.56268 0.5923 0.42719 0.0
H923 H 0.61209 0.54636 0.47382 0.0
H924 H 0.56927 0.55861 0.4631 0.0
H925 H 0.61004 0.55464 0.44686 0.0
H926 H 0.65293 0.61102 0.41714 0.0
H927 H 0.63213 0.60353 0.38175 0.0
H928 H 0.38243 0.63221 0.94769 0.0
H929 H 0.40774 0.63293 0.98283 0.0
H930 H 0.29429 0.63028 0.00724 0.0
H931 H 0.26876 0.62912 0.97216 0.0
H932 H 0.39026 0.66942 0.01282 0.0
H933 H 0.35133 0.57615 0.03979 0.0
H934 H 0.35333 0.58448 0.0128 0.0
H935 H 0.31365 0.59351 0.02823 0.0
C936 C 0.3629 0.63137 0.96054 0.0
C937 C 0.32359 0.63059 0.95715 0.0
C938 C 0.37739 0.63191 0.98059 0.0
C939 C 0.35289 0.6314 0.99761 0.0
C940 C 0.31368 0.63032 0.99431 0.0
H941 H 0.38375 0.64211 0.13012 0.0
H942 H 0.35886 0.6367 0.09518 0.0
C943 C 0.29915 0.62991 0.97427 0.0
C944 C 0.3683 0.63338 0.01877 0.0
H945 H 0.37556 0.60323 0.06489 0.0
C946 C 0.38726 0.65491 0.02419 0.0
C947 C 0.36403 0.61449 0.03357 0.0
C948 C 0.34475 0.59074 0.02835 0.0
C949 C 0.40159 0.65825 0.04415 0.0
C950 C 0.39765 0.63927 0.05894 0.0
C951 C 0.37861 0.61773 0.05352 0.0
C952 C 0.41306 0.64151 0.08013 0.0
C953 C 0.41992 0.68234 0.04933 0.0
C954 C 0.45189 0.64543 0.08328 0.0
C955 C 0.46613 0.6486 0.10318 0.0
C956 C 0.44187 0.64761 0.12035 0.0
C957 C 0.40317 0.64286 0.11721 0.0
C958 C 0.3889 0.63984 0.09727 0.0
H959 H 0.41127 0.69703 0.03841 0.0
H960 H 0.41261 0.68805 0.06522 0.0
H961 H 0.45113 0.68045 0.04834 0.0
H962 H 0.47121 0.64613 0.07033 0.0
H963 H 0.49619 0.65175 0.10513 0.0
H964 H 0.16798 0.84466 0.46282 0.0
H965 H 0.15533 0.84765 0.49974 0.0
H966 H 0.18709 0.92364 0.49822 0.0
H967 H 0.20053 0.92073 0.46124 0.0
H968 H 0.2121 0.86207 0.5292 0.0
H969 H 0.08453 0.92137 0.53068 0.0
H970 H 0.09854 0.90463 0.50805 0.0
H971 H 0.12355 0.93185 0.51509 0.0
C972 C 0.1722 0.86205 0.4703 0.0
C973 C 0.1856 0.88241 0.4591 0.0
C974 C 0.16476 0.86374 0.49137 0.0
C975 C 0.17013 0.88587 0.50167 0.0
C976 C 0.18228 0.90648 0.49048 0.0
H977 H 0.19961 0.90209 0.63424 0.0
H978 H 0.20601 0.90486 0.59673 0.0
C979 C 0.18988 0.90479 0.46935 0.0
C980 C 0.16559 0.88675 0.52435 0.0
H981 H 0.11173 0.91077 0.5629 0.0
C982 C 0.19022 0.87275 0.53659 0.0
C983 C 0.13687 0.90059 0.53387 0.0
C984 C 0.10909 0.91537 0.52132 0.0
C985 C 0.18697 0.87225 0.55814 0.0
C986 C 0.15851 0.88627 0.5677 0.0
C987 C 0.1337 0.9002 0.55548 0.0
C988 C 0.15352 0.886 0.59037 0.0
C989 C 0.21353 0.85636 0.57053 0.0
C990 C 0.12151 0.8749 0.59917 0.0
C991 C 0.1179 0.87308 0.62059 0.0
C992 C 0.14615 0.88249 0.63364 0.0
C993 C 0.17768 0.89424 0.62469 0.0
C994 C 0.18131 0.89596 0.60326 0.0
H995 H 0.22903 0.84323 0.56069 0.0
H996 H 0.23465 0.86806 0.5784 0.0
H997 H 0.19777 0.84598 0.58256 0.0
H998 H 0.0998 0.86706 0.58944 0.0
H999 H 0.09348 0.86366 0.6269 0.0
H1000 H 0.18362 0.33853 0.37566 0.0
H1001 H 0.14771 0.31077 0.35332 0.0
H1002 H 0.24308 0.26177 0.35186 0.0
H1003 H 0.27907 0.28973 0.37382 0.0
H1004 H 0.20719 0.2654 0.31413 0.0
H1005 H 0.10383 0.24754 0.37701 0.0
H1006 H 0.10796 0.27906 0.36956 0.0
H1007 H 0.14765 0.26374 0.38115 0.0
C1008 C 0.19708 0.32212 0.37007 0.0
C1009 C 0.234 0.3162 0.37619 0.0
C1010 C 0.17649 0.30616 0.35755 0.0
C1011 C 0.19245 0.28394 0.35128 0.0
C1012 C 0.23015 0.27874 0.35657 0.0
H1013 H 0.08053 0.15001 0.3148 0.0
H1014 H 0.11662 0.18215 0.33219 0.0
C1015 C 0.25072 0.29472 0.36901 0.0
C1016 C 0.16949 0.26547 0.34018 0.0
H1017 H 0.09181 0.22854 0.34508 0.0
C1018 C 0.18185 0.25744 0.32083 0.0
C1019 C 0.13687 0.25469 0.34917 0.0
C1020 C 0.12339 0.26148 0.37044 0.0
C1021 C 0.16232 0.23908 0.31016 0.0
C1022 C 0.12923 0.22875 0.31892 0.0
C1023 C 0.11699 0.23666 0.33832 0.0
C1024 C 0.1073 0.20937 0.30837 0.0
C1025 C 0.17798 0.23018 0.28996 0.0
C1026 C 0.08954 0.21415 0.28943 0.0
C1027 C 0.06882 0.19589 0.27956 0.0
C1028 C 0.06553 0.17249 0.28841 0.0
C1029 C 0.08266 0.16786 0.30759 0.0
C1030 C 0.10334 0.18617 0.3175 0.0
H1031 H 0.20744 0.23659 0.28728 0.0
H1032 H 0.17757 0.20994 0.28963 0.0
H1033 H 0.16011 0.237 0.27709 0.0
H1034 H 0.09139 0.23209 0.28235 0.0
H1035 H 0.05498 0.2002 0.26511 0.0
H1036 H 0.33598 0.17389 0.87864 0.0
H1037 H 0.37082 0.20294 0.85658 0.0
H1038 H 0.26763 0.24285 0.84553 0.0
H1039 H 0.23289 0.21389 0.86765 0.0
H1040 H 0.35973 0.22207 0.81391 0.0
H1041 H 0.34111 0.29115 0.87539 0.0
H1042 H 0.33337 0.25896 0.87986 0.0
H1043 H 0.29841 0.27679 0.86647 0.0
C1044 C 0.32067 0.18847 0.87096 0.0
C1045 C 0.28189 0.19171 0.87458 0.0
C1046 C 0.34054 0.20506 0.85846 0.0
C1047 C 0.32187 0.22519 0.84965 0.0
C1048 C 0.28259 0.22755 0.85233 0.0
H1049 H 0.39453 0.35921 0.79039 0.0
H1050 H 0.35953 0.3255 0.80623 0.0
C1051 C 0.26275 0.21095 0.8648 0.0
C1052 C 0.3439 0.24487 0.83933 0.0
H1053 H 0.37084 0.30437 0.84472 0.0
C1054 C 0.36227 0.24006 0.82062 0.0
C1055 C 0.34725 0.26827 0.8482 0.0
C1056 C 0.32929 0.27417 0.86867 0.0
C1057 C 0.38326 0.25829 0.81029 0.0
C1058 C 0.38655 0.28171 0.81919 0.0
C1059 C 0.36829 0.28641 0.83794 0.0
C1060 C 0.40818 0.30182 0.80918 0.0
C1061 C 0.40091 0.25257 0.78972 0.0
C1062 C 0.44734 0.29988 0.80584 0.0
C1063 C 0.46748 0.31915 0.79665 0.0
C1064 C 0.44876 0.34069 0.79069 0.0
C1065 C 0.40972 0.34274 0.79451 0.0
C1066 C 0.38966 0.32351 0.80364 0.0
H1067 H 0.38826 0.23599 0.78275 0.0
H1068 H 0.39759 0.26811 0.77878 0.0
H1069 H 0.43163 0.24926 0.79188 0.0
H1070 H 0.46236 0.28351 0.81041 0.0
H1071 H 0.49752 0.31701 0.79389 0.0
H1072 H 0.69157 0.16994 0.64954 0.0
H1073 H 0.65698 0.19653 0.67342 0.0
H1074 H 0.72332 0.25816 0.65247 0.0
H1075 H 0.75832 0.23152 0.62912 0.0
H1076 H 0.71119 0.25962 0.69379 0.0
H1077 H 0.57617 0.24287 0.6523 0.0
H1078 H 0.59797 0.21589 0.6627 0.0
H1079 H 0.62127 0.23287 0.64252 0.0
C1080 C 0.69919 0.18907 0.65049 0.0
C1081 C 0.72753 0.19883 0.63774 0.0
C1082 C 0.67922 0.20427 0.6639 0.0
C1083 C 0.68701 0.22945 0.66441 0.0
C1084 C 0.7167 0.23885 0.65231 0.0
H1085 H 0.54259 0.34952 0.69833 0.0
H1086 H 0.57948 0.31804 0.68096 0.0
C1087 C 0.73674 0.22365 0.63903 0.0
C1088 C 0.6633 0.24639 0.67663 0.0
H1089 H 0.57337 0.26852 0.68127 0.0
C1090 C 0.68101 0.26148 0.69115 0.0
C1091 C 0.62404 0.24913 0.67288 0.0
C1092 C 0.60371 0.23452 0.65663 0.0
C1093 C 0.66063 0.27928 0.70193 0.0
C1094 C 0.62124 0.28168 0.69846 0.0
C1095 C 0.6035 0.26652 0.68403 0.0
C1096 C 0.59815 0.30035 0.70913 0.0
C1097 C 0.68178 0.2959 0.7164 0.0
C1098 C 0.59575 0.3006 0.73071 0.0
C1099 C 0.57491 0.31865 0.74068 0.0
C1100 C 0.5556 0.33667 0.72925 0.0
C1101 C 0.55712 0.33595 0.7076 0.0
C1102 C 0.57821 0.31797 0.69765 0.0
H1103 H 0.71265 0.2961 0.71313 0.0
H1104 H 0.671 0.31489 0.71532 0.0
H1105 H 0.67779 0.28932 0.73248 0.0
H1106 H 0.61007 0.28683 0.73988 0.0
H1107 H 0.57403 0.31847 0.75737 0.0
H1108 H 0.8228 0.30713 0.11591 0.0
H1109 H 0.85957 0.2815 0.13961 0.0
H1110 H 0.77602 0.2927 0.18712 0.0
H1111 H 0.73861 0.31794 0.16305 0.0
H1112 H 0.89243 0.28809 0.17708 0.0
H1113 H 0.77723 0.21905 0.18281 0.0
H1114 H 0.77615 0.24378 0.16432 0.0
H1115 H 0.76424 0.24916 0.19084 0.0
C1116 C 0.81271 0.30442 0.13155 0.0
C1117 C 0.77816 0.31439 0.13782 0.0
C1118 C 0.83363 0.28976 0.14505 0.0
C1119 C 0.82023 0.28477 0.16503 0.0
C1120 C 0.7865 0.29585 0.17164 0.0
H1121 H 0.91349 0.18282 0.25641 0.0
H1122 H 0.87754 0.21544 0.2396 0.0
C1123 C 0.76538 0.31044 0.15802 0.0
C1124 C 0.84089 0.26704 0.17831 0.0
H1125 H 0.83289 0.21108 0.20165 0.0
C1126 C 0.87933 0.27133 0.18255 0.0
C1127 C 0.82384 0.24508 0.18537 0.0
C1128 C 0.78321 0.23879 0.18049 0.0
C1129 C 0.90122 0.25417 0.19345 0.0
C1130 C 0.8843 0.23211 0.20016 0.0
C1131 C 0.8457 0.22807 0.19646 0.0
C1132 C 0.90653 0.21256 0.21038 0.0
C1133 C 0.94233 0.2597 0.19766 0.0
C1134 C 0.93436 0.19989 0.19939 0.0
C1135 C 0.95479 0.18106 0.20886 0.0
C1136 C 0.94789 0.1746 0.22957 0.0
C1137 C 0.91976 0.18731 0.24048 0.0
C1138 C 0.89913 0.20599 0.23092 0.0
H1139 H 0.94884 0.27942 0.19565 0.0
H1140 H 0.9502 0.254 0.21356 0.0
H1141 H 0.96021 0.24932 0.18675 0.0
H1142 H 0.94005 0.20445 0.18341 0.0
H1143 H 0.97605 0.17166 0.19993 0.0
H1144 H 0.76245 0.72879 0.62008 0.0
H1145 H 0.79258 0.75841 0.64296 0.0
H1146 H 0.83793 0.69938 0.67979 0.0
H1147 H 0.80841 0.66968 0.65644 0.0
H1148 H 0.78886 0.76825 0.68413 0.0
H1149 H 0.93284 0.73627 0.66314 0.0
H1150 H 0.89098 0.72652 0.64957 0.0
H1151 H 0.90281 0.71312 0.67413 0.0
C1152 C 0.77834 0.72222 0.63329 0.0
C1153 C 0.7832 0.69714 0.63667 0.0
C1154 C 0.79558 0.7391 0.64632 0.0
C1155 C 0.81813 0.73114 0.66287 0.0
C1156 C 0.82136 0.70595 0.66685 0.0
H1157 H 0.96235 0.81434 0.7461 0.0
H1158 H 0.92463 0.78233 0.72975 0.0
C1159 C 0.80422 0.68901 0.6537 0.0
C1160 C 0.83954 0.74933 0.67516 0.0
H1161 H 0.92913 0.76775 0.68761 0.0
C1162 C 0.81952 0.76809 0.68495 0.0
C1163 C 0.87961 0.74922 0.67611 0.0
C1164 C 0.90293 0.73036 0.66504 0.0
C1165 C 0.83844 0.78668 0.69565 0.0
C1166 C 0.87843 0.78664 0.69643 0.0
C1167 C 0.89845 0.7677 0.68698 0.0
C1168 C 0.90019 0.80629 0.70668 0.0
C1169 C 0.81555 0.80614 0.70618 0.0
C1170 C 0.89929 0.83032 0.69899 0.0
C1171 C 0.92084 0.84864 0.70832 0.0
C1172 C 0.94347 0.8432 0.72554 0.0
C1173 C 0.94464 0.81909 0.73305 0.0
C1174 C 0.92325 0.80079 0.72369 0.0
H1175 H 0.78556 0.80053 0.70829 0.0
H1176 H 0.82781 0.81049 0.72146 0.0
H1177 H 0.81607 0.82304 0.69663 0.0
H1178 H 0.88219 0.83485 0.68564 0.0
H1179 H 0.91944 0.86709 0.70224 0.0
H1180 H 0.77065 0.79797 0.14057 0.0
H1181 H 0.73637 0.76918 0.16305 0.0
H1182 H 0.64036 0.81767 0.16358 0.0
H1183 H 0.67454 0.8463 0.14086 0.0
H1184 H 0.70029 0.77254 0.20215 0.0
H1185 H 0.5979 0.75431 0.13899 0.0
H1186 H 0.64172 0.77057 0.13476 0.0
H1187 H 0.60208 0.78574 0.14629 0.0
C1188 C 0.74259 0.80268 0.14597 0.0
C1189 C 0.72514 0.82425 0.13923 0.0
C1190 C 0.723 0.78624 0.15871 0.0
C1191 C 0.68558 0.79109 0.16469 0.0
C1192 C 0.66897 0.81339 0.15887 0.0
H1193 H 0.51606 0.69772 0.22388 0.0
H1194 H 0.55006 0.73214 0.20811 0.0
C1195 C 0.68858 0.82982 0.1461 0.0
C1196 C 0.66328 0.77211 0.1758 0.0
H1197 H 0.58738 0.73388 0.17058 0.0
C1198 C 0.67554 0.76413 0.19529 0.0
C1199 C 0.63105 0.7611 0.16678 0.0
C1200 C 0.61748 0.76816 0.14549 0.0
C1201 C 0.65626 0.74553 0.20608 0.0
C1202 C 0.62433 0.73432 0.19694 0.0
C1203 C 0.61181 0.74253 0.17757 0.0
C1204 C 0.60402 0.71361 0.20692 0.0
C1205 C 0.67 0.73822 0.22725 0.0
C1206 C 0.6229 0.69162 0.21116 0.0
C1207 C 0.60348 0.67188 0.21998 0.0
C1208 C 0.56478 0.67373 0.22472 0.0
C1209 C 0.54583 0.69568 0.22029 0.0
C1210 C 0.56525 0.7154 0.21139 0.0
H1211 H 0.68752 0.75277 0.23434 0.0
H1212 H 0.64585 0.73401 0.23765 0.0
H1213 H 0.68773 0.72161 0.22601 0.0
H1214 H 0.65258 0.68959 0.20739 0.0
H1215 H 0.61874 0.6551 0.22294 0.0
H1216 H 0.2368 0.80709 0.35366 0.0
H1217 H 0.27131 0.78065 0.32968 0.0
H1218 H 0.37587 0.79752 0.36092 0.0
H1219 H 0.3415 0.82427 0.38452 0.0
H1220 H 0.38521 0.79383 0.31867 0.0
H1221 H 0.30659 0.7141 0.3506 0.0
H1222 H 0.27726 0.73743 0.33942 0.0
H1223 H 0.30457 0.74391 0.36212 0.0
C1224 C 0.2673 0.80563 0.35492 0.0
C1225 C 0.28675 0.81767 0.37069 0.0
C1226 C 0.28691 0.79037 0.34142 0.0
C1227 C 0.32606 0.78672 0.34379 0.0
C1228 C 0.34569 0.8 0.35884 0.0
H1229 H 0.46028 0.6611 0.31261 0.0
H1230 H 0.42481 0.69382 0.32914 0.0
C1231 C 0.32612 0.81532 0.37224 0.0
C1232 C 0.34625 0.76778 0.33183 0.0
H1233 H 0.35043 0.70625 0.32413 0.0
C1234 C 0.37751 0.77469 0.31974 0.0
C1235 C 0.33658 0.74275 0.33359 0.0
C1236 C 0.30466 0.73398 0.34726 0.0
C1237 C 0.39939 0.75725 0.30938 0.0
C1238 C 0.3893 0.73228 0.31088 0.0
C1239 C 0.35797 0.72541 0.3229 0.0
C1240 C 0.41151 0.71283 0.30068 0.0
C1241 C 0.4338 0.76565 0.29747 0.0
C1242 C 0.41566 0.71255 0.27917 0.0
C1243 C 0.43614 0.69396 0.26968 0.0
C1244 C 0.45245 0.67506 0.28149 0.0
C1245 C 0.44811 0.67535 0.30304 0.0
C1246 C 0.42777 0.69402 0.31251 0.0
H1247 H 0.44314 0.78416 0.3022 0.0
H1248 H 0.45774 0.75279 0.29964 0.0
H1249 H 0.42683 0.76642 0.2808 0.0
H1250 H 0.40277 0.72661 0.26968 0.0
H1251 H 0.43914 0.69442 0.25307 0.0
H1252 H 0.21615 0.67084 0.84819 0.0
H1253 H 0.19322 0.70178 0.82336 0.0
H1254 H 0.18914 0.75483 0.87212 0.0
H1255 H 0.21271 0.72426 0.89656 0.0
H1256 H 0.12633 0.72548 0.8241 0.0
H1257 H 0.24104 0.79393 0.82777 0.0
H1258 H 0.24653 0.76333 0.83784 0.0
H1259 H 0.22385 0.78647 0.85304 0.0
C1260 C 0.21103 0.68929 0.85335 0.0
C1261 C 0.21647 0.69546 0.87407 0.0
C1262 C 0.19788 0.70689 0.83926 0.0
C1263 C 0.19015 0.73081 0.84577 0.0
C1264 C 0.19596 0.7368 0.86654 0.0
H1265 H 0.05732 0.85351 0.81207 0.0
H1266 H 0.09506 0.82103 0.82784 0.0
C1267 C 0.20918 0.71931 0.88053 0.0
C1268 C 0.17316 0.7491 0.83148 0.0
H1269 H 0.18022 0.8087 0.81591 0.0
C1270 C 0.13852 0.7435 0.82196 0.0
C1271 C 0.18908 0.77265 0.82862 0.0
C1272 C 0.22738 0.77935 0.83719 0.0
C1273 C 0.11846 0.76121 0.81062 0.0
C1274 C 0.13344 0.78504 0.80878 0.0
C1275 C 0.16872 0.79041 0.81754 0.0
C1276 C 0.11168 0.805 0.7989 0.0
C1277 C 0.08059 0.75474 0.8014 0.0
C1278 C 0.10892 0.80681 0.77738 0.0
C1279 C 0.0875 0.82546 0.76826 0.0
C1280 C 0.06829 0.84251 0.78054 0.0
C1281 C 0.07156 0.84069 0.80212 0.0
C1282 C 0.09317 0.82216 0.81119 0.0
H1283 H 0.0718 0.73576 0.80523 0.0
H1284 H 0.05859 0.7675 0.80702 0.0
H1285 H 0.08199 0.75674 0.78437 0.0
H1286 H 0.12318 0.79373 0.76767 0.0
H1287 H 0.08565 0.82629 0.7516 0.0
loop_
_geom_bond_atom_site_label_1
_geom_bond_atom_site_label_2
_geom_bond_distance
_geom_bond_site_symmetry_2
_ccdc_geom_bond_type
H0 C3 0.929 . S
H1 C6 0.929 . S
H2 C8 0.930 . S
C3 H0 0.929 . S
C3 C4 1.398 . S
C3 C5 1.396 . S
C4 C3 1.398 . S
C4 C8 1.407 . S
C5 C3 1.396 . S
C5 C6 1.394 . S
C6 H1 0.929 . S
C6 C5 1.394 . S
C6 C7 1.382 . S
C7 C6 1.382 . S
C7 C8 1.392 . S
C7 N9 1.420 . S
C8 H2 0.930 . S
C8 C4 1.407 . S
C8 C7 1.392 . S
N9 C7 1.420 . S
N9 C10 1.244 . S
C10 N9 1.244 . S
H11 C14 0.929 . S
H12 C17 0.929 . S
H13 C19 0.930 . S
C14 H11 0.929 . S
C14 C15 1.398 . S
C14 C16 1.396 . S
C15 C14 1.398 . S
C15 C19 1.407 . S
C16 C14 1.396 . S
C16 C17 1.394 . S
C17 H12 0.929 . S
C17 C16 1.394 . S
C17 C18 1.382 . S
C18 C17 1.382 . S
C18 C19 1.392 . S
C18 N20 1.420 . S
C19 H13 0.930 . S
C19 C15 1.407 . S
C19 C18 1.392 . S
N20 C18 1.420 . S
N20 C21 1.244 . S
C21 N20 1.244 . S
H22 C25 0.929 . S
H23 C28 0.929 . S
H24 C30 0.930 . S
C25 H22 0.929 . S
C25 C26 1.398 . S
C25 C27 1.396 . S
C26 C25 1.398 . S
C26 C30 1.407 . S
C27 C25 1.396 . S
C27 C28 1.394 . S
C28 H23 0.929 . S
C28 C27 1.394 . S
C28 C29 1.382 . S
C29 C28 1.382 . S
C29 C30 1.392 . S
C29 N31 1.420 . S
C30 H24 0.930 . S
C30 C26 1.407 . S
C30 C29 1.392 . S
N31 C29 1.420 . S
N31 C32 1.244 . S
C32 N31 1.244 . S
H33 C36 0.929 . S
H34 C39 0.929 . S
H35 C41 0.930 . S
C36 H33 0.929 . S
C36 C37 1.398 . S
C36 C38 1.396 . S
C37 C36 1.398 . S
C37 C41 1.407 . S
C38 C36 1.396 . S
C38 C39 1.394 . S
C39 H34 0.929 . S
C39 C38 1.394 . S
C39 C40 1.382 . S
C40 C39 1.382 . S
C40 C41 1.392 . S
C40 N42 1.420 . S
C41 H35 0.930 . S
C41 C37 1.407 . S
C41 C40 1.392 . S
N42 C40 1.420 . S
N42 C43 1.244 . S
C43 N42 1.244 . S
H44 C47 0.929 . S
H45 C50 0.929 . S
H46 C52 0.930 . S
C47 H44 0.929 . S
C47 C48 1.398 . S
C47 C49 1.396 . S
C48 C47 1.398 . S
C48 C52 1.407 . S
C49 C47 1.396 . S
C49 C50 1.394 . S
C50 H45 0.929 . S
C50 C49 1.394 . S
C50 C51 1.382 . S
C51 C50 1.382 . S
C51 C52 1.392 . S
C51 N53 1.420 . S
C52 H46 0.930 . S
C52 C48 1.407 . S
C52 C51 1.392 . S
N53 C51 1.420 . S
N53 C54 1.244 . S
C54 N53 1.244 . S
H55 C58 0.929 . S
H56 C61 0.929 . S
H57 C63 0.930 . S
C58 H55 0.929 . S
C58 C59 1.398 . S
C58 C60 1.396 . S
C59 C58 1.398 . S
C59 C63 1.407 . S
C60 C58 1.396 . S
C60 C61 1.394 . S
C61 H56 0.929 . S
C61 C60 1.394 . S
C61 C62 1.382 . S
C62 C61 1.382 . S
C62 C63 1.392 . S
C62 N64 1.420 . S
C63 H57 0.930 . S
C63 C59 1.407 . S
C63 C62 1.392 . S
N64 C62 1.420 . S
N64 C65 1.244 . S
C65 N64 1.244 . S
H66 C69 0.929 . S
H67 C72 0.929 . S
H68 C74 0.930 . S
C69 H66 0.929 . S
C69 C70 1.398 . S
C69 C71 1.396 . S
C70 C69 1.398 . S
C70 C74 1.407 . S
C71 C69 1.396 . S
C71 C72 1.394 . S
C72 H67 0.929 . S
C72 C71 1.394 . S
C72 C73 1.382 . S
C73 C72 1.382 . S
C73 C74 1.392 . S
C73 N75 1.420 . S
C74 H68 0.930 . S
C74 C70 1.407 . S
C74 C73 1.392 . S
N75 C73 1.420 . S
N75 C76 1.244 . S
C76 N75 1.244 . S
H77 C80 0.929 . S
H78 C83 0.929 . S
H79 C85 0.930 . S
C80 H77 0.929 . S
C80 C81 1.398 . S
C80 C82 1.396 . S
C81 C80 1.398 . S
C81 C85 1.407 . S
C82 C80 1.396 . S
C82 C83 1.394 . S
C83 H78 0.929 . S
C83 C82 1.394 . S
C83 C84 1.382 . S
C84 C83 1.382 . S
C84 C85 1.392 . S
C84 N86 1.420 . S
C85 H79 0.930 . S
C85 C81 1.407 . S
C85 C84 1.392 . S
N86 C84 1.420 . S
N86 C87 1.244 . S
C87 N86 1.244 . S
C88 C90 1.422 . S
C88 C92 1.415 . S
C88 N94 1.369 . S
C89 C90 1.421 . S
C89 C91 1.417 . S
C89 C101 1.422 . S
C90 C88 1.422 . S
C90 C89 1.421 . S
C90 N100 1.359 . S
C91 C89 1.417 . S
C91 C93 1.329 . S
C91 H110 0.930 . S
C92 C88 1.415 . S
C92 C93 1.437 . S
C92 C96 1.413 . S
C93 C91 1.329 . S
C93 C92 1.437 . S
C93 H115 0.929 . S
N94 C88 1.369 . S
N94 C95 1.338 . S
N94 Gd99 2.622 . S
C95 N94 1.338 . S
C95 C97 1.378 . S
C95 H107 0.929 . S
C96 C92 1.413 . S
C96 C97 1.348 . S
C96 H112 0.931 . S
C97 C95 1.378 . S
C97 C96 1.348 . S
C97 H113 0.930 . S
Gd98 N118 2.622 . S
Gd98 N125 2.570 . S
Gd98 O132 2.353 . S
Gd98 O133 2.468 . S
Gd98 O134 2.427 . S
Gd98 O136 2.388 . S
Gd98 O137 2.386 . S
Gd98 O141 2.307 . S
Gd98 C151 2.805 . S
Gd99 N94 2.622 . S
Gd99 N100 2.570 . S
Gd99 O131 2.386 . S
Gd99 O135 2.307 1_655 S
Gd99 O138 2.353 1_655 S
Gd99 O139 2.468 . S
Gd99 O140 2.427 . S
Gd99 O142 2.388 . S
Gd99 C163 2.805 . S
N100 C90 1.359 . S
N100 Gd99 2.570 . S
N100 C102 1.343 . S
C101 C89 1.422 . S
C101 C103 1.321 . S
C101 H109 0.931 . S
C102 N100 1.343 . S
C102 C103 1.390 . S
C102 H104 0.931 . S
C103 C101 1.321 . S
C103 C102 1.390 . S
C103 H105 0.930 . S
H104 C102 0.931 . S
H105 C103 0.930 . S
H106 C129 0.931 . S
H107 C95 0.929 . S
H108 C130 0.930 . S
H109 C101 0.931 . S
H110 C91 0.930 . S
H111 C120 0.929 . S
H112 C96 0.931 . S
H113 C97 0.930 . S
H114 C152 0.930 . S
H115 C93 0.929 . S
H116 C121 0.931 . S
H117 C122 0.930 . S
N118 Gd98 2.622 . S
N118 C119 1.369 . S
N118 C120 1.338 . S
C119 N118 1.369 . S
C119 C123 1.415 . S
C119 C126 1.422 . S
C120 H111 0.929 . S
C120 N118 1.338 . S
C120 C122 1.378 . S
C121 H116 0.931 . S
C121 C122 1.348 . S
C121 C123 1.413 . S
C122 H117 0.930 . S
C122 C120 1.378 . S
C122 C121 1.348 . S
C123 C119 1.415 . S
C123 C121 1.413 . S
C123 C153 1.437 . S
H124 C153 0.929 . S
N125 Gd98 2.570 . S
N125 C126 1.359 . S
N125 C129 1.343 . S
C126 C119 1.422 . S
C126 N125 1.359 . S
C126 C128 1.421 . S
C127 C128 1.422 . S
C127 C130 1.321 . S
C127 H154 0.931 . S
C128 C126 1.421 . S
C128 C127 1.422 . S
C128 C152 1.417 . S
C129 H106 0.931 . S
C129 N125 1.343 . S
C129 C130 1.390 . S
C130 H108 0.930 . S
C130 C127 1.321 . S
C130 C129 1.390 . S
O131 Gd99 2.386 . S
O131 C143 1.265 . S
O132 Gd98 2.353 . S
O132 C143 1.242 1_455 S
O133 Gd98 2.468 . S
O133 C151 1.263 . S
O134 Gd98 2.427 . S
O134 C151 1.252 . S
O135 Gd99 2.307 1_455 S
O135 C144 1.261 . S
O136 Gd98 2.388 . S
O136 C144 1.252 . S
O137 Gd98 2.386 . S
O137 C155 1.265 . S
O138 Gd99 2.353 1_455 S
O138 C155 1.242 . S
O139 Gd99 2.468 . S
O139 C163 1.263 . S
O140 Gd99 2.427 . S
O140 C163 1.252 . S
O141 Gd98 2.307 . S
O141 C156 1.261 1_455 S
O142 Gd99 2.388 . S
O142 C156 1.252 . S
C143 O131 1.265 . S
C143 O132 1.242 1_655 S
C144 O135 1.261 . S
C144 O136 1.252 . S
C145 C148 1.394 . S
C145 C150 1.370 . S
C145 C151 1.500 . S
C146 C149 1.383 . S
C146 C150 1.395 . S
C147 C148 1.396 . S
C147 C149 1.365 . S
C147 H164 0.929 . S
C148 C145 1.394 . S
C148 C147 1.396 . S
C148 H165 0.930 . S
C149 C146 1.383 . S
C149 C147 1.365 . S
C149 H166 0.931 . S
C150 C145 1.370 . S
C150 C146 1.395 . S
C150 H167 0.930 . S
C151 Gd98 2.805 . S
C151 O133 1.263 . S
C151 O134 1.252 . S
C151 C145 1.500 . S
C152 H114 0.930 . S
C152 C128 1.417 . S
C152 C153 1.329 . S
C153 C123 1.437 . S
C153 H124 0.929 . S
C153 C152 1.329 . S
H154 C127 0.931 . S
C155 O137 1.265 . S
C155 O138 1.242 . S
C156 O141 1.261 1_655 S
C156 O142 1.252 . S
C157 C160 1.394 . S
C157 C162 1.370 . S
C157 C163 1.500 . S
C158 C161 1.383 . S
C158 C162 1.395 . S
C159 C160 1.396 . S
C159 C161 1.365 . S
C159 H168 0.929 . S
C160 C157 1.394 . S
C160 C159 1.396 . S
C160 H169 0.930 . S
C161 C158 1.383 . S
C161 C159 1.365 . S
C161 H170 0.931 . S
C162 C157 1.370 . S
C162 C158 1.395 . S
C162 H171 0.930 . S
C163 Gd99 2.805 . S
C163 O139 1.263 . S
C163 O140 1.252 . S
C163 C157 1.500 . S
H164 C147 0.929 . S
H165 C148 0.930 . S
H166 C149 0.931 . S
H167 C150 0.930 . S
H168 C159 0.929 . S
H169 C160 0.930 . S
H170 C161 0.931 . S
H171 C162 0.930 . S
C172 C174 1.422 . S
C172 C176 1.415 . S
C172 N178 1.369 . S
C173 C174 1.421 . S
C173 C175 1.417 . S
C173 C185 1.422 . S
C174 C172 1.422 . S
C174 C173 1.421 . S
C174 N184 1.359 . S
C175 C173 1.417 . S
C175 C177 1.329 . S
C175 H194 0.930 . S
C176 C172 1.415 . S
C176 C177 1.437 . S
C176 C180 1.413 . S
C177 C175 1.329 . S
C177 C176 1.437 . S
C177 H199 0.929 . S
N178 C172 1.369 . S
N178 C179 1.338 . S
N178 Gd183 2.622 . S
C179 N178 1.338 . S
C179 C181 1.378 . S
C179 H191 0.929 . S
C180 C176 1.413 . S
C180 C181 1.348 . S
C180 H196 0.931 . S
C181 C179 1.378 . S
C181 C180 1.348 . S
C181 H197 0.930 . S
Gd182 N202 2.622 . S
Gd182 N209 2.570 . S
Gd182 O216 2.353 . S
Gd182 O217 2.468 . S
Gd182 O218 2.427 . S
Gd182 O220 2.388 . S
Gd182 O221 2.386 . S
Gd182 O225 2.307 . S
Gd182 C235 2.805 . S
Gd183 N178 2.622 . S
Gd183 N184 2.570 . S
Gd183 O215 2.386 . S
Gd183 O219 2.307 . S
Gd183 O222 2.353 . S
Gd183 O223 2.468 . S
Gd183 O224 2.427 . S
Gd183 O226 2.388 . S
Gd183 C247 2.805 . S
N184 C174 1.359 . S
N184 Gd183 2.570 . S
N184 C186 1.343 . S
C185 C173 1.422 . S
C185 C187 1.321 . S
C185 H193 0.931 . S
C186 N184 1.343 . S
C186 C187 1.390 . S
C186 H188 0.931 . S
C187 C185 1.321 . S
C187 C186 1.390 . S
C187 H189 0.930 . S
H188 C186 0.931 . S
H189 C187 0.930 . S
H190 C213 0.931 . S
H191 C179 0.929 . S
H192 C214 0.930 . S
H193 C185 0.931 . S
H194 C175 0.930 . S
H195 C204 0.929 . S
H196 C180 0.931 . S
H197 C181 0.930 . S
H198 C236 0.930 . S
H199 C177 0.929 . S
H200 C205 0.931 . S
H201 C206 0.930 . S
N202 Gd182 2.622 . S
N202 C203 1.369 . S
N202 C204 1.338 . S
C203 N202 1.369 . S
C203 C207 1.415 . S
C203 C210 1.422 . S
C204 H195 0.929 . S
C204 N202 1.338 . S
C204 C206 1.378 . S
C205 H200 0.931 . S
C205 C206 1.348 . S
C205 C207 1.413 . S
C206 H201 0.930 . S
C206 C204 1.378 . S
C206 C205 1.348 . S
C207 C203 1.415 . S
C207 C205 1.413 . S
C207 C237 1.437 . S
H208 C237 0.929 . S
N209 Gd182 2.570 . S
N209 C210 1.359 . S
N209 C213 1.343 . S
C210 C203 1.422 . S
C210 N209 1.359 . S
C210 C212 1.421 . S
C211 C212 1.422 . S
C211 C214 1.321 . S
C211 H238 0.931 . S
C212 C210 1.421 . S
C212 C211 1.422 . S
C212 C236 1.417 . S
C213 H190 0.931 . S
C213 N209 1.343 . S
C213 C214 1.390 . S
C214 H192 0.930 . S
C214 C211 1.321 . S
C214 C213 1.390 . S
O215 Gd183 2.386 . S
O215 C227 1.265 . S
O216 Gd182 2.353 . S
O216 C227 1.242 . S
O217 Gd182 2.468 . S
O217 C235 1.263 . S
O218 Gd182 2.427 . S
O218 C235 1.252 . S
O219 Gd183 2.307 . S
O219 C228 1.261 . S
O220 Gd182 2.388 . S
O220 C228 1.252 . S
O221 Gd182 2.386 . S
O221 C239 1.265 . S
O222 Gd183 2.353 . S
O222 C239 1.242 . S
O223 Gd183 2.468 . S
O223 C247 1.263 . S
O224 Gd183 2.427 . S
O224 C247 1.252 . S
O225 Gd182 2.307 . S
O225 C240 1.261 . S
O226 Gd183 2.388 . S
O226 C240 1.252 . S
C227 O215 1.265 . S
C227 O216 1.242 . S
C228 O219 1.261 . S
C228 O220 1.252 . S
C229 C232 1.394 . S
C229 C234 1.370 . S
C229 C235 1.500 . S
C230 C233 1.383 . S
C230 C234 1.395 . S
C231 C232 1.396 . S
C231 C233 1.365 . S
C231 H248 0.929 . S
C232 C229 1.394 . S
C232 C231 1.396 . S
C232 H249 0.930 . S
C233 C230 1.383 . S
C233 C231 1.365 . S
C233 H250 0.931 . S
C234 C229 1.370 . S
C234 C230 1.395 . S
C234 H251 0.930 . S
C235 Gd182 2.805 . S
C235 O217 1.263 . S
C235 O218 1.252 . S
C235 C229 1.500 . S
C236 H198 0.930 . S
C236 C212 1.417 . S
C236 C237 1.329 . S
C237 C207 1.437 . S
C237 H208 0.929 . S
C237 C236 1.329 . S
H238 C211 0.931 . S
C239 O221 1.265 . S
C239 O222 1.242 . S
C240 O225 1.261 . S
C240 O226 1.252 . S
C241 C244 1.394 . S
C241 C246 1.370 . S
C241 C247 1.500 . S
C242 C245 1.383 . S
C242 C246 1.395 . S
C243 C244 1.396 . S
C243 C245 1.365 . S
C243 H252 0.929 . S
C244 C241 1.394 . S
C244 C243 1.396 . S
C244 H253 0.930 . S
C245 C242 1.383 . S
C245 C243 1.365 . S
C245 H254 0.931 . S
C246 C241 1.370 . S
C246 C242 1.395 . S
C246 H255 0.930 . S
C247 Gd183 2.805 . S
C247 O223 1.263 . S
C247 O224 1.252 . S
C247 C241 1.500 . S
H248 C231 0.929 . S
H249 C232 0.930 . S
H250 C233 0.931 . S
H251 C234 0.930 . S
H252 C243 0.929 . S
H253 C244 0.930 . S
H254 C245 0.931 . S
H255 C246 0.930 . S
C256 C258 1.422 . S
C256 C260 1.415 . S
C256 N262 1.369 . S
C257 C258 1.421 . S
C257 C259 1.417 . S
C257 C269 1.422 . S
C258 C256 1.422 . S
C258 C257 1.421 . S
C258 N268 1.359 . S
C259 C257 1.417 . S
C259 C261 1.329 . S
C259 H278 0.930 . S
C260 C256 1.415 . S
C260 C261 1.437 . S
C260 C264 1.413 . S
C261 C259 1.329 . S
C261 C260 1.437 . S
C261 H283 0.929 . S
N262 C256 1.369 . S
N262 C263 1.338 . S
N262 Gd267 2.622 . S
C263 N262 1.338 . S
C263 C265 1.378 . S
C263 H275 0.929 . S
C264 C260 1.413 . S
C264 C265 1.348 . S
C264 H280 0.931 . S
C265 C263 1.378 . S
C265 C264 1.348 . S
C265 H281 0.930 . S
Gd266 N286 2.622 . S
Gd266 N293 2.570 . S
Gd266 O300 2.372 . S
Gd266 O301 2.468 . S
Gd266 O302 2.427 . S
Gd266 O304 2.388 . S
Gd266 O305 2.386 . S
Gd266 O309 2.330 . S
Gd266 C319 2.805 . S
Gd267 N262 2.622 . S
Gd267 N268 2.570 . S
Gd267 O299 2.386 . S
Gd267 O303 2.307 1_655 S
Gd267 O306 2.353 1_655 S
Gd267 O307 2.468 . S
Gd267 O308 2.427 . S
Gd267 O310 2.388 . S
Gd267 C331 2.805 . S
N268 C258 1.359 . S
N268 Gd267 2.570 . S
N268 C270 1.343 . S
C269 C257 1.422 . S
C269 C271 1.321 . S
C269 H277 0.931 . S
C270 N268 1.343 . S
C270 C271 1.390 . S
C270 H272 0.931 . S
C271 C269 1.321 . S
C271 C270 1.390 . S
C271 H273 0.930 . S
H272 C270 0.931 . S
H273 C271 0.930 . S
H274 C297 0.931 . S
H275 C263 0.929 . S
H276 C298 0.930 . S
H277 C269 0.931 . S
H278 C259 0.930 . S
H279 C288 0.929 . S
H280 C264 0.931 . S
H281 C265 0.930 . S
H282 C320 0.930 . S
H283 C261 0.929 . S
H284 C289 0.931 . S
H285 C290 0.930 . S
N286 Gd266 2.622 . S
N286 C287 1.369 . S
N286 C288 1.338 . S
C287 N286 1.369 . S
C287 C291 1.415 . S
C287 C294 1.422 . S
C288 H279 0.929 . S
C288 N286 1.338 . S
C288 C290 1.378 . S
C289 H284 0.931 . S
C289 C290 1.348 . S
C289 C291 1.413 . S
C290 H285 0.930 . S
C290 C288 1.378 . S
C290 C289 1.348 . S
C291 C287 1.415 . S
C291 C289 1.413 . S
C291 C321 1.437 . S
H292 C321 0.929 . S
N293 Gd266 2.570 . S
N293 C294 1.359 . S
N293 C297 1.343 . S
C294 C287 1.422 . S
C294 N293 1.359 . S
C294 C296 1.421 . S
C295 C296 1.422 . S
C295 C298 1.321 . S
C295 H322 0.931 . S
C296 C294 1.421 . S
C296 C295 1.422 . S
C296 C320 1.417 . S
C297 H274 0.931 . S
C297 N293 1.343 . S
C297 C298 1.390 . S
C298 H276 0.930 . S
C298 C295 1.321 . S
C298 C297 1.390 . S
O299 Gd267 2.386 . S
O299 C311 1.265 . S
O300 Gd266 2.372 . S
O300 C311 1.219 1_455 S
O301 Gd266 2.468 . S
O301 C319 1.263 . S
O302 Gd266 2.427 . S
O302 C319 1.252 . S
O303 Gd267 2.307 1_455 S
O303 C312 1.261 . S
O304 Gd266 2.388 . S
O304 C312 1.252 . S
O305 Gd266 2.386 . S
O305 C323 1.265 . S
O306 Gd267 2.353 1_455 S
O306 C323 1.242 . S
O307 Gd267 2.468 . S
O307 C331 1.263 . S
O308 Gd267 2.427 . S
O308 C331 1.252 . S
O309 Gd266 2.330 . S
O309 C324 1.235 1_455 S
O310 Gd267 2.388 . S
O310 C324 1.252 . S
C311 O299 1.265 . S
C311 O300 1.219 1_655 S
C312 O303 1.261 . S
C312 O304 1.252 . S
C313 C316 1.394 . S
C313 C318 1.370 . S
C313 C319 1.500 . S
C314 C317 1.383 . S
C314 C318 1.395 . S
C315 C316 1.396 . S
C315 C317 1.365 . S
C315 H332 0.929 . S
C316 C313 1.394 . S
C316 C315 1.396 . S
C316 H333 0.930 . S
C317 C314 1.383 . S
C317 C315 1.365 . S
C317 H334 0.931 . S
C318 C313 1.370 . S
C318 C314 1.395 . S
C318 H335 0.930 . S
C319 Gd266 2.805 . S
C319 O301 1.263 . S
C319 O302 1.252 . S
C319 C313 1.500 . S
C320 H282 0.930 . S
C320 C296 1.417 . S
C320 C321 1.329 . S
C321 C291 1.437 . S
C321 H292 0.929 . S
C321 C320 1.329 . S
H322 C295 0.931 . S
C323 O305 1.265 . S
C323 O306 1.242 . S
C324 O309 1.235 1_655 S
C324 O310 1.252 . S
C325 C328 1.394 . S
C325 C330 1.370 . S
C325 C331 1.500 . S
C326 C329 1.383 . S
C326 C330 1.395 . S
C327 C328 1.396 . S
C327 C329 1.365 . S
C327 H336 0.929 . S
C328 C325 1.394 . S
C328 C327 1.396 . S
C328 H337 0.930 . S
C329 C326 1.383 . S
C329 C327 1.365 . S
C329 H338 0.931 . S
C330 C325 1.370 . S
C330 C326 1.395 . S
C330 H339 0.930 . S
C331 Gd267 2.805 . S
C331 O307 1.263 . S
C331 O308 1.252 . S
C331 C325 1.500 . S
H332 C315 0.929 . S
H333 C316 0.930 . S
H334 C317 0.931 . S
H335 C318 0.930 . S
H336 C327 0.929 . S
H337 C328 0.930 . S
H338 C329 0.931 . S
H339 C330 0.930 . S
C340 C342 1.422 . S
C340 C344 1.415 . S
C340 N346 1.369 . S
C341 C342 1.421 . S
C341 C343 1.417 . S
C341 C353 1.422 . S
C342 C340 1.422 . S
C342 C341 1.421 . S
C342 N352 1.359 . S
C343 C341 1.417 . S
C343 C345 1.329 . S
C343 H362 0.930 . S
C344 C340 1.415 . S
C344 C345 1.437 . S
C344 C348 1.413 . S
C345 C343 1.329 . S
C345 C344 1.437 . S
C345 H367 0.929 . S
N346 C340 1.369 . S
N346 C347 1.338 . S
N346 Gd351 2.622 . S
C347 N346 1.338 . S
C347 C349 1.378 . S
C347 H359 0.929 . S
C348 C344 1.413 . S
C348 C349 1.348 . S
C348 H364 0.931 . S
C349 C347 1.378 . S
C349 C348 1.348 . S
C349 H365 0.930 . S
Gd350 N370 2.622 . S
Gd350 N377 2.570 . S
Gd350 O384 2.353 . S
Gd350 O385 2.468 . S
Gd350 O386 2.427 . S
Gd350 O388 2.388 . S
Gd350 O389 2.386 . S
Gd350 O393 2.307 . S
Gd350 C403 2.805 . S
Gd351 N346 2.622 . S
Gd351 N352 2.570 . S
Gd351 O383 2.386 . S
Gd351 O387 2.307 . S
Gd351 O390 2.353 . S
Gd351 O391 2.468 . S
Gd351 O392 2.427 . S
Gd351 O394 2.388 . S
Gd351 C415 2.805 . S
N352 C342 1.359 . S
N352 Gd351 2.570 . S
N352 C354 1.343 . S
C353 C341 1.422 . S
C353 C355 1.321 . S
C353 H361 0.931 . S
C354 N352 1.343 . S
C354 C355 1.390 . S
C354 H356 0.931 . S
C355 C353 1.321 . S
C355 C354 1.390 . S
C355 H357 0.930 . S
H356 C354 0.931 . S
H357 C355 0.930 . S
H358 C381 0.931 . S
H359 C347 0.929 . S
H360 C382 0.930 . S
H361 C353 0.931 . S
H362 C343 0.930 . S
H363 C372 0.929 . S
H364 C348 0.931 . S
H365 C349 0.930 . S
H366 C404 0.930 . S
H367 C345 0.929 . S
H368 C373 0.931 . S
H369 C374 0.930 . S
N370 Gd350 2.622 . S
N370 C371 1.369 . S
N370 C372 1.338 . S
C371 N370 1.369 . S
C371 C375 1.415 . S
C371 C378 1.422 . S
C372 H363 0.929 . S
C372 N370 1.338 . S
C372 C374 1.378 . S
C373 H368 0.931 . S
C373 C374 1.348 . S
C373 C375 1.413 . S
C374 H369 0.930 . S
C374 C372 1.378 . S
C374 C373 1.348 . S
C375 C371 1.415 . S
C375 C373 1.413 . S
C375 C405 1.437 . S
H376 C405 0.929 . S
N377 Gd350 2.570 . S
N377 C378 1.359 . S
N377 C381 1.343 . S
C378 C371 1.422 . S
C378 N377 1.359 . S
C378 C380 1.421 . S
C379 C380 1.422 . S
C379 C382 1.321 . S
C379 H406 0.931 . S
C380 C378 1.421 . S
C380 C379 1.422 . S
C380 C404 1.417 . S
C381 H358 0.931 . S
C381 N377 1.343 . S
C381 C382 1.390 . S
C382 H360 0.930 . S
C382 C379 1.321 . S
C382 C381 1.390 . S
O383 Gd351 2.386 . S
O383 C395 1.265 . S
O384 Gd350 2.353 . S
O384 C395 1.242 . S
O385 Gd350 2.468 . S
O385 C403 1.263 . S
O386 Gd350 2.427 . S
O386 C403 1.252 . S
O387 Gd351 2.307 . S
O387 C396 1.261 . S
O388 Gd350 2.388 . S
O388 C396 1.252 . S
O389 Gd350 2.386 . S
O389 C407 1.265 . S
O390 Gd351 2.353 . S
O390 C407 1.242 . S
O391 Gd351 2.468 . S
O391 C415 1.263 . S
O392 Gd351 2.427 . S
O392 C415 1.252 . S
O393 Gd350 2.307 . S
O393 C408 1.261 . S
O394 Gd351 2.388 . S
O394 C408 1.252 . S
C395 O383 1.265 . S
C395 O384 1.242 . S
C396 O387 1.261 . S
C396 O388 1.252 . S
C397 C400 1.394 . S
C397 C402 1.370 . S
C397 C403 1.500 . S
C398 C401 1.383 . S
C398 C402 1.395 . S
C399 C400 1.396 . S
C399 C401 1.365 . S
C399 H416 0.929 . S
C400 C397 1.394 . S
C400 C399 1.396 . S
C400 H417 0.930 . S
C401 C398 1.383 . S
C401 C399 1.365 . S
C401 H418 0.931 . S
C402 C397 1.370 . S
C402 C398 1.395 . S
C402 H419 0.930 . S
C403 Gd350 2.805 . S
C403 O385 1.263 . S
C403 O386 1.252 . S
C403 C397 1.500 . S
C404 H366 0.930 . S
C404 C380 1.417 . S
C404 C405 1.329 . S
C405 C375 1.437 . S
C405 H376 0.929 . S
C405 C404 1.329 . S
H406 C379 0.931 . S
C407 O389 1.265 . S
C407 O390 1.242 . S
C408 O393 1.261 . S
C408 O394 1.252 . S
C409 C412 1.394 . S
C409 C414 1.370 . S
C409 C415 1.500 . S
C410 C413 1.383 . S
C410 C414 1.395 . S
C411 C412 1.396 . S
C411 C413 1.365 . S
C411 H420 0.929 . S
C412 C409 1.394 . S
C412 C411 1.396 . S
C412 H421 0.930 . S
C413 C410 1.383 . S
C413 C411 1.365 . S
C413 H422 0.931 . S
C414 C409 1.370 . S
C414 C410 1.395 . S
C414 H423 0.930 . S
C415 Gd351 2.805 . S
C415 O391 1.263 . S
C415 O392 1.252 . S
C415 C409 1.500 . S
H416 C399 0.929 . S
H417 C400 0.930 . S
H418 C401 0.931 . S
H419 C402 0.930 . S
H420 C411 0.929 . S
H421 C412 0.930 . S
H422 C413 0.931 . S
H423 C414 0.930 . S
H424 C432 0.929 . S
H425 C434 0.930 . S
H426 C436 0.930 . S
H427 C439 0.929 . S
H428 C442 0.930 . S
H429 C444 0.960 1_545 S
H430 C444 0.960 . S
H431 C444 0.960 . S
C432 H424 0.929 . S
C432 C433 1.377 . S
C432 C434 1.384 . S
C433 C432 1.377 . S
C433 C439 1.390 . S
C434 H425 0.930 . S
C434 C432 1.384 . S
C434 C435 1.372 . S
C435 C434 1.372 . S
C435 C436 1.400 . S
C435 C440 1.490 . S
C436 H426 0.930 . S
C436 C435 1.400 . S
C436 C439 1.386 . S
H437 C453 0.930 . S
H438 C454 0.931 . S
C439 H427 0.929 . S
C439 C433 1.390 . S
C439 C436 1.386 . S
C440 C435 1.490 . S
C440 C442 1.395 . S
C440 C443 1.403 . S
H441 C447 0.901 1_545 S
C442 H428 0.930 . S
C442 C440 1.395 . S
C442 C445 1.403 . S
C443 C440 1.403 . S
C443 C444 1.524 . S
C443 C447 1.419 . S
C444 H429 0.960 1_565 S
C444 H430 0.960 . S
C444 H431 0.960 . S
C444 C443 1.524 . S
C445 C442 1.403 . S
C445 C446 1.392 . S
C445 C449 1.495 . S
C446 C445 1.392 . S
C446 C447 1.394 . S
C446 C448 1.478 1_565 S
C447 H441 0.901 1_565 S
C447 C443 1.419 . S
C447 C446 1.394 . S
C448 C446 1.478 1_545 S
C448 C450 1.381 . S
C448 C454 1.383 . S
C449 C445 1.495 . S
C449 H455 0.959 . S
C449 H456 0.961 . S
C449 H457 0.960 . S
C450 C448 1.381 . S
C450 C451 1.394 . S
C450 H458 0.930 . S
C451 C450 1.394 . S
C451 C452 1.383 . S
C451 H459 0.929 . S
C452 C451 1.383 . S
C452 C453 1.377 . S
C453 H437 0.930 . S
C453 C452 1.377 . S
C453 C454 1.379 . S
C454 H438 0.931 . S
C454 C448 1.383 . S
C454 C453 1.379 . S
H455 C449 0.959 . S
H456 C449 0.961 . S
H457 C449 0.960 . S
H458 C450 0.930 . S
H459 C451 0.929 . S
H460 C468 0.929 . S
H461 C470 0.930 . S
H462 C472 0.930 . S
H463 C475 0.929 . S
H464 C478 0.930 . S
H465 C480 0.960 . S
H466 C480 0.960 . S
H467 C480 0.960 . S
C468 H460 0.929 . S
C468 C469 1.377 . S
C468 C470 1.384 . S
C469 C468 1.377 . S
C469 C475 1.390 . S
C470 H461 0.930 . S
C470 C468 1.384 . S
C470 C471 1.372 . S
C471 C470 1.372 . S
C471 C472 1.400 . S
C471 C476 1.490 . S
C472 H462 0.930 . S
C472 C471 1.400 . S
C472 C475 1.386 . S
H473 C489 0.930 . S
H474 C490 0.931 . S
C475 H463 0.929 . S
C475 C469 1.390 . S
C475 C472 1.386 . S
C476 C471 1.490 . S
C476 C478 1.395 . S
C476 C479 1.403 . S
H477 C483 0.930 . S
C478 H464 0.930 . S
C478 C476 1.395 . S
C478 C481 1.403 . S
C479 C476 1.403 . S
C479 C480 1.524 . S
C479 C483 1.400 . S
C480 H465 0.960 . S
C480 H466 0.960 . S
C480 H467 0.960 . S
C480 C479 1.524 . S
C481 C478 1.403 . S
C481 C482 1.392 . S
C481 C485 1.495 . S
C482 C481 1.392 . S
C482 C483 1.385 . S
C482 C484 1.478 . S
C483 H477 0.930 . S
C483 C479 1.400 . S
C483 C482 1.385 . S
C484 C482 1.478 . S
C484 C486 1.381 . S
C484 C490 1.383 . S
C485 C481 1.495 . S
C485 H491 0.959 . S
C485 H492 0.961 . S
C485 H493 0.960 . S
C486 C484 1.381 . S
C486 C487 1.394 . S
C486 H494 0.930 . S
C487 C486 1.394 . S
C487 C488 1.383 . S
C487 H495 0.929 . S
C488 C487 1.383 . S
C488 C489 1.377 . S
C489 H473 0.930 . S
C489 C488 1.377 . S
C489 C490 1.379 . S
C490 H474 0.931 . S
C490 C484 1.383 . S
C490 C489 1.379 . S
H491 C485 0.959 . S
H492 C485 0.961 . S
H493 C485 0.960 . S
H494 C486 0.930 . S
H495 C487 0.929 . S
H496 C504 0.929 . S
H497 C506 0.930 . S
H498 C508 0.930 . S
H499 C511 0.929 . S
H500 C514 0.930 . S
H501 C516 0.960 . S
H502 C516 0.960 . S
H503 C516 0.960 . S
C504 H496 0.929 . S
C504 C505 1.377 . S
C504 C506 1.384 . S
C505 C504 1.377 . S
C505 C511 1.390 . S
C506 H497 0.930 . S
C506 C504 1.384 . S
C506 C507 1.372 . S
C507 C506 1.372 . S
C507 C508 1.400 . S
C507 C512 1.490 . S
C508 H498 0.930 . S
C508 C507 1.400 . S
C508 C511 1.386 . S
H509 C525 0.930 . S
H510 C526 0.931 . S
C511 H499 0.929 . S
C511 C505 1.390 . S
C511 C508 1.386 . S
C512 C507 1.490 . S
C512 C514 1.395 . S
C512 C515 1.403 . S
H513 C519 0.930 . S
C514 H500 0.930 . S
C514 C512 1.395 . S
C514 C517 1.403 . S
C515 C512 1.403 . S
C515 C516 1.524 . S
C515 C519 1.400 . S
C516 H501 0.960 . S
C516 H502 0.960 . S
C516 H503 0.960 . S
C516 C515 1.524 . S
C517 C514 1.403 . S
C517 C518 1.392 . S
C517 C521 1.495 . S
C518 C517 1.392 . S
C518 C519 1.385 . S
C518 C520 1.478 . S
C519 H513 0.930 . S
C519 C515 1.400 . S
C519 C518 1.385 . S
C520 C518 1.478 . S
C520 C522 1.381 . S
C520 C526 1.383 . S
C521 C517 1.495 . S
C521 H527 0.959 . S
C521 H528 0.961 . S
C521 H529 0.960 . S
C522 C520 1.381 . S
C522 C523 1.394 . S
C522 H530 0.930 . S
C523 C522 1.394 . S
C523 C524 1.383 . S
C523 H531 0.929 . S
C524 C523 1.383 . S
C524 C525 1.377 . S
C525 H509 0.930 . S
C525 C524 1.377 . S
C525 C526 1.379 . S
C526 H510 0.931 . S
C526 C520 1.383 . S
C526 C525 1.379 . S
H527 C521 0.959 . S
H528 C521 0.961 . S
H529 C521 0.960 . S
H530 C522 0.930 . S
H531 C523 0.929 . S
H532 C540 0.929 . S
H533 C542 0.930 . S
H534 C544 0.930 . S
H535 C547 0.929 . S
H536 C550 0.930 . S
H537 C552 0.960 . S
H538 C552 0.960 . S
H539 C552 0.960 . S
C540 H532 0.929 . S
C540 C541 1.377 . S
C540 C542 1.384 . S
C541 C540 1.377 . S
C541 C547 1.390 . S
C542 H533 0.930 . S
C542 C540 1.384 . S
C542 C543 1.372 . S
C543 C542 1.372 . S
C543 C544 1.400 . S
C543 C548 1.490 . S
C544 H534 0.930 . S
C544 C543 1.400 . S
C544 C547 1.386 . S
H545 C561 0.930 . S
H546 C562 0.931 . S
C547 H535 0.929 . S
C547 C541 1.390 . S
C547 C544 1.386 . S
C548 C543 1.490 . S
C548 C550 1.395 . S
C548 C551 1.403 . S
H549 C555 0.930 . S
C550 H536 0.930 . S
C550 C548 1.395 . S
C550 C553 1.403 1_565 S
C551 C548 1.403 . S
C551 C552 1.524 . S
C551 C555 1.400 . S
C552 H537 0.960 . S
C552 H538 0.960 . S
C552 H539 0.960 . S
C552 C551 1.524 . S
C553 C550 1.403 1_545 S
C553 C554 1.392 . S
C553 C557 1.495 . S
C554 C553 1.392 . S
C554 C555 1.385 1_545 S
C554 C556 1.478 . S
C555 H549 0.930 . S
C555 C551 1.400 . S
C555 C554 1.385 1_565 S
C556 C554 1.478 . S
C556 C558 1.381 . S
C556 C562 1.383 . S
C557 C553 1.495 . S
C557 H563 0.959 . S
C557 H564 0.961 . S
C557 H565 0.960 . S
C558 C556 1.381 . S
C558 C559 1.394 . S
C558 H566 0.930 . S
C559 C558 1.394 . S
C559 C560 1.383 . S
C559 H567 0.929 . S
C560 C559 1.383 . S
C560 C561 1.377 . S
C561 H545 0.930 . S
C561 C560 1.377 . S
C561 C562 1.379 . S
C562 H546 0.931 . S
C562 C556 1.383 . S
C562 C561 1.379 . S
H563 C557 0.959 . S
H564 C557 0.961 . S
H565 C557 0.960 . S
H566 C558 0.930 . S
H567 C559 0.929 . S
H568 C576 0.929 . S
H569 C578 0.930 . S
H570 C580 0.930 . S
H571 C583 0.929 . S
H572 C586 0.930 . S
H573 C588 0.960 . S
H574 C588 0.960 . S
H575 C588 0.960 . S
C576 H568 0.929 . S
C576 C577 1.377 . S
C576 C578 1.384 . S
C577 C576 1.377 . S
C577 C583 1.390 . S
C578 H569 0.930 . S
C578 C576 1.384 . S
C578 C579 1.372 . S
C579 C578 1.372 . S
C579 C580 1.400 . S
C579 C584 1.490 . S
C580 H570 0.930 . S
C580 C579 1.400 . S
C580 C583 1.386 . S
H581 C597 0.930 . S
H582 C598 0.931 . S
C583 H571 0.929 . S
C583 C577 1.390 . S
C583 C580 1.386 . S
C584 C579 1.490 . S
C584 C586 1.395 . S
C584 C587 1.403 . S
H585 C591 0.930 . S
C586 H572 0.930 . S
C586 C584 1.395 . S
C586 C589 1.403 . S
C587 C584 1.403 . S
C587 C588 1.524 . S
C587 C591 1.400 . S
C588 H573 0.960 . S
C588 H574 0.960 . S
C588 H575 0.960 . S
C588 C587 1.524 . S
C589 C586 1.403 . S
C589 C590 1.392 . S
C589 C593 1.495 1_545 S
C590 C589 1.392 . S
C590 C591 1.385 . S
C590 C592 1.478 1_545 S
C591 H585 0.930 . S
C591 C587 1.400 . S
C591 C590 1.385 . S
C592 C590 1.478 1_565 S
C592 C594 1.381 . S
C592 C598 1.383 . S
C593 C589 1.495 1_565 S
C593 H599 0.959 . S
C593 H600 0.961 . S
C593 H601 0.960 . S
C594 C592 1.381 . S
C594 C595 1.394 . S
C594 H602 0.930 . S
C595 C594 1.394 . S
C595 C596 1.383 . S
C595 H603 0.929 . S
C596 C595 1.383 . S
C596 C597 1.377 . S
C597 H581 0.930 . S
C597 C596 1.377 . S
C597 C598 1.379 . S
C598 H582 0.931 . S
C598 C592 1.383 . S
C598 C597 1.379 . S
H599 C593 0.959 . S
H600 C593 0.961 . S
H601 C593 0.960 . S
H602 C594 0.930 . S
H603 C595 0.929 . S
H604 C612 0.929 . S
H605 C614 0.930 . S
H606 C616 0.930 . S
H607 C619 0.929 . S
H608 C622 0.930 . S
H609 C624 0.960 . S
H610 C624 0.960 . S
H611 C624 0.960 . S
C612 H604 0.929 . S
C612 C613 1.377 . S
C612 C614 1.384 . S
C613 C612 1.377 . S
C613 C619 1.390 . S
C614 H605 0.930 . S
C614 C612 1.384 . S
C614 C615 1.372 . S
C615 C614 1.372 . S
C615 C616 1.400 . S
C615 C620 1.490 . S
C616 H606 0.930 . S
C616 C615 1.400 . S
C616 C619 1.386 . S
H617 C633 0.930 . S
H618 C634 0.931 . S
C619 H607 0.929 . S
C619 C613 1.390 . S
C619 C616 1.386 . S
C620 C615 1.490 . S
C620 C622 1.395 . S
C620 C623 1.403 . S
H621 C627 0.930 . S
C622 H608 0.930 . S
C622 C620 1.395 . S
C622 C625 1.403 . S
C623 C620 1.403 . S
C623 C624 1.524 . S
C623 C627 1.400 . S
C624 H609 0.960 . S
C624 H610 0.960 . S
C624 H611 0.960 . S
C624 C623 1.524 . S
C625 C622 1.403 . S
C625 C626 1.392 . S
C625 C629 1.495 . S
C626 C625 1.392 . S
C626 C627 1.385 . S
C626 C628 1.478 . S
C627 H621 0.930 . S
C627 C623 1.400 . S
C627 C626 1.385 . S
C628 C626 1.478 . S
C628 C630 1.381 . S
C628 C634 1.383 . S
C629 C625 1.495 . S
C629 H635 0.959 . S
C629 H636 0.961 . S
C629 H637 0.960 . S
C630 C628 1.381 . S
C630 C631 1.394 . S
C630 H638 0.930 . S
C631 C630 1.394 . S
C631 C632 1.383 . S
C631 H639 0.929 . S
C632 C631 1.383 . S
C632 C633 1.377 . S
C633 H617 0.930 . S
C633 C632 1.377 . S
C633 C634 1.379 . S
C634 H618 0.931 . S
C634 C628 1.383 . S
C634 C633 1.379 . S
H635 C629 0.959 . S
H636 C629 0.961 . S
H637 C629 0.960 . S
H638 C630 0.930 . S
H639 C631 0.929 . S
H640 C648 0.929 . S
H641 C650 0.930 . S
H642 C652 0.930 . S
H643 C655 0.929 . S
H644 C658 0.930 . S
H645 C660 0.960 . S
H646 C660 0.960 . S
H647 C660 0.960 . S
C648 H640 0.929 . S
C648 C649 1.377 . S
C648 C650 1.384 . S
C649 C648 1.377 . S
C649 C655 1.390 . S
C650 H641 0.930 . S
C650 C648 1.384 . S
C650 C651 1.372 . S
C651 C650 1.372 . S
C651 C652 1.400 . S
C651 C656 1.490 . S
C652 H642 0.930 . S
C652 C651 1.400 . S
C652 C655 1.386 . S
H653 C669 0.930 . S
H654 C670 0.931 . S
C655 H643 0.929 . S
C655 C649 1.390 . S
C655 C652 1.386 . S
C656 C651 1.490 . S
C656 C658 1.395 . S
C656 C659 1.403 . S
H657 C663 0.930 . S
C658 H644 0.930 . S
C658 C656 1.395 . S
C658 C661 1.403 . S
C659 C656 1.403 . S
C659 C660 1.524 . S
C659 C663 1.400 . S
C660 H645 0.960 . S
C660 H646 0.960 . S
C660 H647 0.960 . S
C660 C659 1.524 . S
C661 C658 1.403 . S
C661 C662 1.392 . S
C661 C665 1.495 . S
C662 C661 1.392 . S
C662 C663 1.385 . S
C662 C664 1.478 . S
C663 H657 0.930 . S
C663 C659 1.400 . S
C663 C662 1.385 . S
C664 C662 1.478 . S
C664 C666 1.381 . S
C664 C670 1.383 . S
C665 C661 1.495 . S
C665 H671 0.959 . S
C665 H672 0.961 . S
C665 H673 0.960 . S
C666 C664 1.381 . S
C666 C667 1.394 . S
C666 H674 0.930 . S
C667 C666 1.394 . S
C667 C668 1.383 . S
C667 H675 0.929 . S
C668 C667 1.383 . S
C668 C669 1.377 . S
C669 H653 0.930 . S
C669 C668 1.377 . S
C669 C670 1.379 . S
C670 H654 0.931 . S
C670 C664 1.383 . S
C670 C669 1.379 . S
H671 C665 0.959 . S
H672 C665 0.961 . S
H673 C665 0.960 . S
H674 C666 0.930 . S
H675 C667 0.929 . S
H676 C684 0.929 . S
H677 C686 0.930 . S
H678 C688 0.930 . S
H679 C691 0.929 . S
H680 C694 0.930 . S
H681 C696 0.960 . S
H682 C696 0.960 . S
H683 C696 0.960 . S
C684 H676 0.929 . S
C684 C685 1.377 . S
C684 C686 1.384 . S
C685 C684 1.377 . S
C685 C691 1.390 . S
C686 H677 0.930 . S
C686 C684 1.384 . S
C686 C687 1.372 . S
C687 C686 1.372 . S
C687 C688 1.400 . S
C687 C692 1.490 . S
C688 H678 0.930 . S
C688 C687 1.400 . S
C688 C691 1.386 . S
H689 C705 0.930 . S
H690 C706 0.931 . S
C691 H679 0.929 . S
C691 C685 1.390 . S
C691 C688 1.386 . S
C692 C687 1.490 . S
C692 C694 1.395 . S
C692 C695 1.403 . S
H693 C699 0.930 . S
C694 H680 0.930 . S
C694 C692 1.395 . S
C694 C697 1.403 . S
C695 C692 1.403 . S
C695 C696 1.524 . S
C695 C699 1.400 . S
C696 H681 0.960 . S
C696 H682 0.960 . S
C696 H683 0.960 . S
C696 C695 1.524 . S
C697 C694 1.403 . S
C697 C698 1.392 . S
C697 C701 1.495 . S
C698 C697 1.392 . S
C698 C699 1.385 . S
C698 C700 1.478 1_545 S
C699 H693 0.930 . S
C699 C695 1.400 . S
C699 C698 1.385 . S
C700 C698 1.478 1_565 S
C700 C702 1.381 . S
C700 C706 1.383 . S
C701 C697 1.495 . S
C701 H707 0.959 . S
C701 H708 0.961 1_545 S
C701 H709 0.960 . S
C702 C700 1.381 . S
C702 C703 1.394 . S
C702 H710 0.930 1_565 S
C703 C702 1.394 . S
C703 C704 1.383 . S
C703 H711 0.929 . S
C704 C703 1.383 . S
C704 C705 1.377 . S
C705 H689 0.930 . S
C705 C704 1.377 . S
C705 C706 1.379 . S
C706 H690 0.931 . S
C706 C700 1.383 . S
C706 C705 1.379 . S
H707 C701 0.959 . S
H708 C701 0.961 1_565 S
H709 C701 0.960 . S
H710 C702 0.930 1_545 S
H711 C703 0.929 . S
H712 C720 0.929 . S
H713 C722 0.930 . S
H714 C724 0.930 1_554 S
H715 C727 0.929 . S
H716 C730 0.930 . S
H717 C732 0.960 . S
H718 C732 0.960 . S
H719 C732 0.960 . S
C720 H712 0.929 . S
C720 C721 1.377 . S
C720 C722 1.384 . S
C721 C720 1.377 . S
C721 C727 1.390 . S
C722 H713 0.930 . S
C722 C720 1.384 . S
C722 C723 1.372 . S
C723 C722 1.372 . S
C723 C724 1.400 . S
C723 C728 1.490 1_556 S
C724 H714 0.930 1_556 S
C724 C723 1.400 . S
C724 C727 1.386 . S
H725 C741 0.930 . S
H726 C742 0.931 . S
C727 H715 0.929 . S
C727 C721 1.390 . S
C727 C724 1.386 . S
C728 C723 1.490 1_554 S
C728 C730 1.395 . S
C728 C731 1.403 . S
H729 C735 0.930 . S
C730 H716 0.930 . S
C730 C728 1.395 . S
C730 C733 1.403 . S
C731 C728 1.403 . S
C731 C732 1.524 . S
C731 C735 1.400 . S
C732 H717 0.960 . S
C732 H718 0.960 . S
C732 H719 0.960 . S
C732 C731 1.524 . S
C733 C730 1.403 . S
C733 C734 1.392 . S
C733 C737 1.495 . S
C734 C733 1.392 . S
C734 C735 1.385 . S
C734 C736 1.478 . S
C735 H729 0.930 . S
C735 C731 1.400 . S
C735 C734 1.385 . S
C736 C734 1.478 . S
C736 C738 1.381 . S
C736 C742 1.383 . S
C737 C733 1.495 . S
C737 H743 0.959 . S
C737 H744 0.961 . S
C737 H745 0.960 . S
C738 C736 1.381 . S
C738 C739 1.394 . S
C738 H746 0.930 . S
C739 C738 1.394 . S
C739 C740 1.383 . S
C739 H747 0.929 . S
C740 C739 1.383 . S
C740 C741 1.377 . S
C741 H725 0.930 . S
C741 C740 1.377 . S
C741 C742 1.379 . S
C742 H726 0.931 . S
C742 C736 1.383 . S
C742 C741 1.379 . S
H743 C737 0.959 . S
H744 C737 0.961 . S
H745 C737 0.960 . S
H746 C738 0.930 . S
H747 C739 0.929 . S
H748 C756 0.929 . S
H749 C758 0.930 . S
H750 C760 0.930 . S
H751 C763 0.929 . S
H752 C766 0.930 . S
H753 C768 0.960 . S
H754 C768 0.960 . S
H755 C768 0.960 . S
C756 H748 0.929 . S
C756 C757 1.377 . S
C756 C758 1.384 . S
C757 C756 1.377 . S
C757 C763 1.390 . S
C758 H749 0.930 . S
C758 C756 1.384 . S
C758 C759 1.372 . S
C759 C758 1.372 . S
C759 C760 1.400 . S
C759 C764 1.490 . S
C760 H750 0.930 . S
C760 C759 1.400 . S
C760 C763 1.386 . S
H761 C777 0.930 . S
H762 C778 0.931 . S
C763 H751 0.929 . S
C763 C757 1.390 . S
C763 C760 1.386 . S
C764 C759 1.490 . S
C764 C766 1.395 . S
C764 C767 1.403 . S
H765 C771 0.930 . S
C766 H752 0.930 . S
C766 C764 1.395 . S
C766 C769 1.403 . S
C767 C764 1.403 . S
C767 C768 1.524 . S
C767 C771 1.400 . S
C768 H753 0.960 . S
C768 H754 0.960 . S
C768 H755 0.960 . S
C768 C767 1.524 . S
C769 C766 1.403 . S
C769 C770 1.392 . S
C769 C773 1.495 . S
C770 C769 1.392 . S
C770 C771 1.385 . S
C770 C772 1.478 . S
C771 H765 0.930 . S
C771 C767 1.400 . S
C771 C770 1.385 . S
C772 C770 1.478 . S
C772 C774 1.381 . S
C772 C778 1.383 . S
C773 C769 1.495 . S
C773 H779 0.959 . S
C773 H780 0.961 . S
C773 H781 0.960 . S
C774 C772 1.381 . S
C774 C775 1.394 . S
C774 H782 0.930 . S
C775 C774 1.394 . S
C775 C776 1.383 . S
C775 H783 0.929 . S
C776 C775 1.383 . S
C776 C777 1.377 . S
C777 H761 0.930 . S
C777 C776 1.377 . S
C777 C778 1.379 . S
C778 H762 0.931 . S
C778 C772 1.383 . S
C778 C777 1.379 . S
H779 C773 0.959 . S
H780 C773 0.961 . S
H781 C773 0.960 . S
H782 C774 0.930 . S
H783 C775 0.929 . S
H784 C792 0.929 . S
H785 C794 0.930 . S
H786 C796 0.930 . S
H787 C799 0.929 . S
H788 C802 0.930 . S
H789 C804 0.960 . S
H790 C804 0.960 1_554 S
H791 C804 0.960 1_554 S
C792 H784 0.929 . S
C792 C793 1.377 . S
C792 C794 1.384 . S
C793 C792 1.377 . S
C793 C799 1.390 . S
C794 H785 0.930 . S
C794 C792 1.384 . S
C794 C795 1.372 . S
C795 C794 1.372 . S
C795 C796 1.400 . S
C795 C800 1.490 1_554 S
C796 H786 0.930 . S
C796 C795 1.400 . S
C796 C799 1.386 . S
H797 C813 0.930 . S
H798 C814 0.931 . S
C799 H787 0.929 . S
C799 C793 1.390 . S
C799 C796 1.386 . S
C800 C795 1.490 1_556 S
C800 C802 1.395 . S
C800 C803 1.403 . S
H801 C807 0.930 . S
C802 H788 0.930 . S
C802 C800 1.395 . S
C802 C805 1.403 . S
C803 C800 1.403 . S
C803 C804 1.524 . S
C803 C807 1.400 . S
C804 H789 0.960 . S
C804 H790 0.960 1_556 S
C804 H791 0.960 1_556 S
C804 C803 1.524 . S
C805 C802 1.403 . S
C805 C806 1.392 . S
C805 C809 1.495 . S
C806 C805 1.392 . S
C806 C807 1.385 . S
C806 C808 1.478 . S
C807 H801 0.930 . S
C807 C803 1.400 . S
C807 C806 1.385 . S
C808 C806 1.478 . S
C808 C810 1.381 . S
C808 C814 1.383 . S
C809 C805 1.495 . S
C809 H815 0.959 . S
C809 H816 0.961 . S
C809 H817 0.960 . S
C810 C808 1.381 . S
C810 C811 1.394 . S
C810 H818 0.930 . S
C811 C810 1.394 . S
C811 C812 1.383 . S
C811 H819 0.929 . S
C812 C811 1.383 . S
C812 C813 1.377 . S
C813 H797 0.930 . S
C813 C812 1.377 . S
C813 C814 1.379 . S
C814 H798 0.931 . S
C814 C808 1.383 . S
C814 C813 1.379 . S
H815 C809 0.959 . S
H816 C809 0.961 . S
H817 C809 0.960 . S
H818 C810 0.930 . S
H819 C811 0.929 . S
H820 C828 0.929 . S
H821 C830 0.930 . S
H822 C832 0.930 . S
H823 C835 0.929 . S
H824 C838 0.930 . S
H825 C840 0.960 . S
H826 C840 0.960 . S
H827 C840 0.960 . S
C828 H820 0.929 . S
C828 C829 1.377 . S
C828 C830 1.384 . S
C829 C828 1.377 . S
C829 C835 1.390 . S
C830 H821 0.930 . S
C830 C828 1.384 . S
C830 C831 1.372 . S
C831 C830 1.372 . S
C831 C832 1.400 . S
C831 C836 1.490 . S
C832 H822 0.930 . S
C832 C831 1.400 . S
C832 C835 1.386 . S
H833 C849 0.930 . S
H834 C850 0.931 . S
C835 H823 0.929 . S
C835 C829 1.390 . S
C835 C832 1.386 . S
C836 C831 1.490 . S
C836 C838 1.395 . S
C836 C839 1.403 . S
H837 C843 0.930 . S
C838 H824 0.930 . S
C838 C836 1.395 . S
C838 C841 1.403 . S
C839 C836 1.403 . S
C839 C840 1.524 . S
C839 C843 1.400 . S
C840 H825 0.960 . S
C840 H826 0.960 . S
C840 H827 0.960 . S
C840 C839 1.524 . S
C841 C838 1.403 . S
C841 C842 1.392 . S
C841 C845 1.495 . S
C842 C841 1.392 . S
C842 C843 1.385 . S
C842 C844 1.478 . S
C843 H837 0.930 . S
C843 C839 1.400 . S
C843 C842 1.385 . S
C844 C842 1.478 . S
C844 C846 1.381 . S
C844 C850 1.383 . S
C845 C841 1.495 . S
C845 H851 0.959 . S
C845 H852 0.961 . S
C845 H853 0.960 . S
C846 C844 1.381 . S
C846 C847 1.394 . S
C846 H854 0.930 . S
C847 C846 1.394 . S
C847 C848 1.383 . S
C847 H855 0.929 . S
C848 C847 1.383 . S
C848 C849 1.377 . S
C849 H833 0.930 . S
C849 C848 1.377 . S
C849 C850 1.379 . S
C850 H834 0.931 . S
C850 C844 1.383 . S
C850 C849 1.379 . S
H851 C845 0.959 . S
H852 C845 0.961 . S
H853 C845 0.960 . S
H854 C846 0.930 . S
H855 C847 0.929 . S
H856 C864 0.929 . S
H857 C866 0.930 . S
H858 C868 0.962 . S
H859 C871 0.929 . S
H860 C874 0.930 . S
H861 C876 0.960 . S
H862 C876 0.960 . S
H863 C876 0.960 . S
C864 H856 0.929 . S
C864 C865 1.377 . S
C864 C866 1.384 . S
C865 C864 1.377 . S
C865 C871 1.390 . S
C866 H857 0.930 . S
C866 C864 1.384 . S
C866 C867 1.372 . S
C867 C866 1.372 . S
C867 C868 1.400 . S
C867 C872 1.490 1_554 S
C868 H858 0.962 . S
C868 C867 1.400 . S
C868 C871 1.386 . S
H869 C885 0.930 . S
H870 C886 0.931 . S
C871 H859 0.929 . S
C871 C865 1.390 . S
C871 C868 1.386 . S
C872 C867 1.490 1_556 S
C872 C874 1.395 . S
C872 C875 1.403 . S
H873 C879 0.930 . S
C874 H860 0.930 . S
C874 C872 1.395 . S
C874 C877 1.403 . S
C875 C872 1.403 . S
C875 C876 1.524 . S
C875 C879 1.400 . S
C876 H861 0.960 . S
C876 H862 0.960 . S
C876 H863 0.960 . S
C876 C875 1.524 . S
C877 C874 1.403 . S
C877 C878 1.392 . S
C877 C881 1.495 . S
C878 C877 1.392 . S
C878 C879 1.385 . S
C878 C880 1.478 . S
C879 H873 0.930 . S
C879 C875 1.400 . S
C879 C878 1.385 . S
C880 C878 1.478 . S
C880 C882 1.381 . S
C880 C886 1.383 . S
C881 C877 1.495 . S
C881 H887 0.959 . S
C881 H888 0.961 . S
C881 H889 0.960 . S
C882 C880 1.381 . S
C882 C883 1.394 . S
C882 H890 0.930 . S
C883 C882 1.394 . S
C883 C884 1.383 . S
C883 H891 0.929 . S
C884 C883 1.383 . S
C884 C885 1.377 . S
C885 H869 0.930 . S
C885 C884 1.377 . S
C885 C886 1.379 . S
C886 H870 0.931 . S
C886 C880 1.383 . S
C886 C885 1.379 . S
H887 C881 0.959 . S
H888 C881 0.961 . S
H889 C881 0.960 . S
H890 C882 0.930 . S
H891 C883 0.929 . S
H892 C900 0.929 . S
H893 C902 0.930 . S
H894 C904 0.930 . S
H895 C907 0.929 . S
H896 C910 0.930 . S
H897 C912 0.960 . S
H898 C912 0.960 . S
H899 C912 0.960 . S
C900 H892 0.929 . S
C900 C901 1.377 . S
C900 C902 1.384 . S
C901 C900 1.377 . S
C901 C907 1.390 . S
C902 H893 0.930 . S
C902 C900 1.384 . S
C902 C903 1.372 . S
C903 C902 1.372 . S
C903 C904 1.400 . S
C903 C908 1.490 . S
C904 H894 0.930 . S
C904 C903 1.400 . S
C904 C907 1.386 . S
H905 C921 0.930 . S
H906 C922 0.931 . S
C907 H895 0.929 . S
C907 C901 1.390 . S
C907 C904 1.386 . S
C908 C903 1.490 . S
C908 C910 1.395 . S
C908 C911 1.403 . S
H909 C915 0.930 . S
C910 H896 0.930 . S
C910 C908 1.395 . S
C910 C913 1.403 . S
C911 C908 1.403 . S
C911 C912 1.524 . S
C911 C915 1.400 . S
C912 H897 0.960 . S
C912 H898 0.960 . S
C912 H899 0.960 . S
C912 C911 1.524 . S
C913 C910 1.403 . S
C913 C914 1.392 . S
C913 C917 1.495 . S
C914 C913 1.392 . S
C914 C915 1.385 . S
C914 C916 1.478 . S
C915 H909 0.930 . S
C915 C911 1.400 . S
C915 C914 1.385 . S
C916 C914 1.478 . S
C916 C918 1.381 . S
C916 C922 1.383 . S
C917 C913 1.495 . S
C917 H923 0.959 . S
C917 H924 0.961 . S
C917 H925 0.960 . S
C918 C916 1.381 . S
C918 C919 1.394 . S
C918 H926 0.930 . S
C919 C918 1.394 . S
C919 C920 1.383 . S
C919 H927 0.929 . S
C920 C919 1.383 . S
C920 C921 1.377 . S
C921 H905 0.930 . S
C921 C920 1.377 . S
C921 C922 1.379 . S
C922 H906 0.931 . S
C922 C916 1.383 . S
C922 C921 1.379 . S
H923 C917 0.959 . S
H924 C917 0.961 . S
H925 C917 0.960 . S
H926 C918 0.930 . S
H927 C919 0.929 . S
H928 C936 0.929 . S
H929 C938 0.930 . S
H930 C940 0.930 . S
H931 C943 0.929 . S
H932 C946 0.930 . S
H933 C948 0.960 . S
H934 C948 0.960 . S
H935 C948 0.960 . S
C936 H928 0.929 . S
C936 C937 1.377 . S
C936 C938 1.384 . S
C937 C936 1.377 . S
C937 C943 1.390 . S
C938 H929 0.930 . S
C938 C936 1.384 . S
C938 C939 1.372 . S
C939 C938 1.372 . S
C939 C940 1.400 . S
C939 C944 1.490 1_556 S
C940 H930 0.930 . S
C940 C939 1.400 . S
C940 C943 1.386 . S
H941 C957 0.930 . S
H942 C958 0.931 . S
C943 H931 0.929 . S
C943 C937 1.390 . S
C943 C940 1.386 . S
C944 C939 1.490 1_554 S
C944 C946 1.395 . S
C944 C947 1.403 . S
H945 C951 0.930 . S
C946 H932 0.930 . S
C946 C944 1.395 . S
C946 C949 1.403 . S
C947 C944 1.403 . S
C947 C948 1.524 . S
C947 C951 1.400 . S
C948 H933 0.960 . S
C948 H934 0.960 . S
C948 H935 0.960 . S
C948 C947 1.524 . S
C949 C946 1.403 . S
C949 C950 1.392 . S
C949 C953 1.495 . S
C950 C949 1.392 . S
C950 C951 1.385 . S
C950 C952 1.478 . S
C951 H945 0.930 . S
C951 C947 1.400 . S
C951 C950 1.385 . S
C952 C950 1.478 . S
C952 C954 1.381 . S
C952 C958 1.383 . S
C953 C949 1.495 . S
C953 H959 0.959 . S
C953 H960 0.961 . S
C953 H961 0.960 . S
C954 C952 1.381 . S
C954 C955 1.394 . S
C954 H962 0.930 . S
C955 C954 1.394 . S
C955 C956 1.383 . S
C955 H963 0.929 . S
C956 C955 1.383 . S
C956 C957 1.377 . S
C957 H941 0.930 . S
C957 C956 1.377 . S
C957 C958 1.379 . S
C958 H942 0.931 . S
C958 C952 1.383 . S
C958 C957 1.379 . S
H959 C953 0.959 . S
H960 C953 0.961 . S
H961 C953 0.960 . S
H962 C954 0.930 . S
H963 C955 0.929 . S
H964 C972 0.929 . S
H965 C974 0.930 . S
H966 C976 0.930 . S
H967 C979 0.929 . S
H968 C982 0.930 . S
H969 C984 0.960 . S
H970 C984 0.960 . S
H971 C984 0.960 . S
C972 H964 0.929 . S
C972 C973 1.377 . S
C972 C974 1.384 . S
C973 C972 1.377 . S
C973 C979 1.390 . S
C974 H965 0.930 . S
C974 C972 1.384 . S
C974 C975 1.372 . S
C975 C974 1.372 . S
C975 C976 1.400 . S
C975 C980 1.490 . S
C976 H966 0.930 . S
C976 C975 1.400 . S
C976 C979 1.386 . S
H977 C993 0.930 . S
H978 C994 0.931 . S
C979 H967 0.929 . S
C979 C973 1.390 . S
C979 C976 1.386 . S
C980 C975 1.490 . S
C980 C982 1.395 . S
C980 C983 1.403 . S
H981 C987 0.930 . S
C982 H968 0.930 . S
C982 C980 1.395 . S
C982 C985 1.403 . S
C983 C980 1.403 . S
C983 C984 1.524 . S
C983 C987 1.400 . S
C984 H969 0.960 . S
C984 H970 0.960 . S
C984 H971 0.960 . S
C984 C983 1.524 . S
C985 C982 1.403 . S
C985 C986 1.392 . S
C985 C989 1.495 . S
C986 C985 1.392 . S
C986 C987 1.385 . S
C986 C988 1.478 . S
C987 H981 0.930 . S
C987 C983 1.400 . S
C987 C986 1.385 . S
C988 C986 1.478 . S
C988 C990 1.381 . S
C988 C994 1.383 . S
C989 C985 1.495 . S
C989 H995 0.959 . S
C989 H996 0.961 . S
C989 H997 0.960 . S
C990 C988 1.381 . S
C990 C991 1.394 . S
C990 H998 0.930 . S
C991 C990 1.394 . S
C991 C992 1.383 . S
C991 H999 0.929 . S
C992 C991 1.383 . S
C992 C993 1.377 . S
C993 H977 0.930 . S
C993 C992 1.377 . S
C993 C994 1.379 . S
C994 H978 0.931 . S
C994 C988 1.383 . S
C994 C993 1.379 . S
H995 C989 0.959 . S
H996 C989 0.961 . S
H997 C989 0.960 . S
H998 C990 0.930 . S
H999 C991 0.929 . S
H1000 C1008 0.929 . S
H1001 C1010 0.930 . S
H1002 C1012 0.930 . S
H1003 C1015 0.929 . S
H1004 C1018 0.930 . S
H1005 C1020 0.960 . S
H1006 C1020 0.960 . S
H1007 C1020 0.960 . S
C1008 H1000 0.929 . S
C1008 C1009 1.377 . S
C1008 C1010 1.384 . S
C1009 C1008 1.377 . S
C1009 C1015 1.390 . S
C1010 H1001 0.930 . S
C1010 C1008 1.384 . S
C1010 C1011 1.372 . S
C1011 C1010 1.372 . S
C1011 C1012 1.400 . S
C1011 C1016 1.490 . S
C1012 H1002 0.930 . S
C1012 C1011 1.400 . S
C1012 C1015 1.386 . S
H1013 C1029 0.930 . S
H1014 C1030 0.931 . S
C1015 H1003 0.929 . S
C1015 C1009 1.390 . S
C1015 C1012 1.386 . S
C1016 C1011 1.490 . S
C1016 C1018 1.395 . S
C1016 C1019 1.403 . S
H1017 C1023 0.930 . S
C1018 H1004 0.930 . S
C1018 C1016 1.395 . S
C1018 C1021 1.403 . S
C1019 C1016 1.403 . S
C1019 C1020 1.524 . S
C1019 C1023 1.400 . S
C1020 H1005 0.960 . S
C1020 H1006 0.960 . S
C1020 H1007 0.960 . S
C1020 C1019 1.524 . S
C1021 C1018 1.403 . S
C1021 C1022 1.392 . S
C1021 C1025 1.495 . S
C1022 C1021 1.392 . S
C1022 C1023 1.385 . S
C1022 C1024 1.478 . S
C1023 H1017 0.930 . S
C1023 C1019 1.400 . S
C1023 C1022 1.385 . S
C1024 C1022 1.478 . S
C1024 C1026 1.381 . S
C1024 C1030 1.383 . S
C1025 C1021 1.495 . S
C1025 H1031 0.959 . S
C1025 H1032 0.961 . S
C1025 H1033 0.960 . S
C1026 C1024 1.381 . S
C1026 C1027 1.394 . S
C1026 H1034 0.930 . S
C1027 C1026 1.394 . S
C1027 C1028 1.383 . S
C1027 H1035 0.929 . S
C1028 C1027 1.383 . S
C1028 C1029 1.377 . S
C1029 H1013 0.930 . S
C1029 C1028 1.377 . S
C1029 C1030 1.379 . S
C1030 H1014 0.931 . S
C1030 C1024 1.383 . S
C1030 C1029 1.379 . S
H1031 C1025 0.959 . S
H1032 C1025 0.961 . S
H1033 C1025 0.960 . S
H1034 C1026 0.930 . S
H1035 C1027 0.929 . S
H1036 C1044 0.929 . S
H1037 C1046 0.930 . S
H1038 C1048 0.930 . S
H1039 C1051 0.929 . S
H1040 C1054 0.930 . S
H1041 C1056 0.960 . S
H1042 C1056 0.960 . S
H1043 C1056 0.960 . S
C1044 H1036 0.929 . S
C1044 C1045 1.377 . S
C1044 C1046 1.384 . S
C1045 C1044 1.377 . S
C1045 C1051 1.390 . S
C1046 H1037 0.930 . S
C1046 C1044 1.384 . S
C1046 C1047 1.372 . S
C1047 C1046 1.372 . S
C1047 C1048 1.400 . S
C1047 C1052 1.490 . S
C1048 H1038 0.930 . S
C1048 C1047 1.400 . S
C1048 C1051 1.386 . S
H1049 C1065 0.930 . S
H1050 C1066 0.931 . S
C1051 H1039 0.929 . S
C1051 C1045 1.390 . S
C1051 C1048 1.386 . S
C1052 C1047 1.490 . S
C1052 C1054 1.395 . S
C1052 C1055 1.403 . S
H1053 C1059 0.930 . S
C1054 H1040 0.930 . S
C1054 C1052 1.395 . S
C1054 C1057 1.403 . S
C1055 C1052 1.403 . S
C1055 C1056 1.524 . S
C1055 C1059 1.400 . S
C1056 H1041 0.960 . S
C1056 H1042 0.960 . S
C1056 H1043 0.960 . S
C1056 C1055 1.524 . S
C1057 C1054 1.403 . S
C1057 C1058 1.392 . S
C1057 C1061 1.495 . S
C1058 C1057 1.392 . S
C1058 C1059 1.385 . S
C1058 C1060 1.478 . S
C1059 H1053 0.930 . S
C1059 C1055 1.400 . S
C1059 C1058 1.385 . S
C1060 C1058 1.478 . S
C1060 C1062 1.381 . S
C1060 C1066 1.383 . S
C1061 C1057 1.495 . S
C1061 H1067 0.959 . S
C1061 H1068 0.961 . S
C1061 H1069 0.960 . S
C1062 C1060 1.381 . S
C1062 C1063 1.394 . S
C1062 H1070 0.930 . S
C1063 C1062 1.394 . S
C1063 C1064 1.383 . S
C1063 H1071 0.929 . S
C1064 C1063 1.383 . S
C1064 C1065 1.377 . S
C1065 H1049 0.930 . S
C1065 C1064 1.377 . S
C1065 C1066 1.379 . S
C1066 H1050 0.931 . S
C1066 C1060 1.383 . S
C1066 C1065 1.379 . S
H1067 C1061 0.959 . S
H1068 C1061 0.961 . S
H1069 C1061 0.960 . S
H1070 C1062 0.930 . S
H1071 C1063 0.929 . S
H1072 C1080 0.929 . S
H1073 C1082 0.930 . S
H1074 C1084 0.930 . S
H1075 C1087 0.929 . S
H1076 C1090 0.930 . S
H1077 C1092 0.960 . S
H1078 C1092 0.960 . S
H1079 C1092 0.960 . S
C1080 H1072 0.929 . S
C1080 C1081 1.377 . S
C1080 C1082 1.384 . S
C1081 C1080 1.377 . S
C1081 C1087 1.390 . S
C1082 H1073 0.930 . S
C1082 C1080 1.384 . S
C1082 C1083 1.372 . S
C1083 C1082 1.372 . S
C1083 C1084 1.400 . S
C1083 C1088 1.490 . S
C1084 H1074 0.930 . S
C1084 C1083 1.400 . S
C1084 C1087 1.386 . S
H1085 C1101 0.930 . S
H1086 C1102 0.931 . S
C1087 H1075 0.929 . S
C1087 C1081 1.390 . S
C1087 C1084 1.386 . S
C1088 C1083 1.490 . S
C1088 C1090 1.395 . S
C1088 C1091 1.403 . S
H1089 C1095 0.930 . S
C1090 H1076 0.930 . S
C1090 C1088 1.395 . S
C1090 C1093 1.403 . S
C1091 C1088 1.403 . S
C1091 C1092 1.524 . S
C1091 C1095 1.400 . S
C1092 H1077 0.960 . S
C1092 H1078 0.960 . S
C1092 H1079 0.960 . S
C1092 C1091 1.524 . S
C1093 C1090 1.403 . S
C1093 C1094 1.392 . S
C1093 C1097 1.495 . S
C1094 C1093 1.392 . S
C1094 C1095 1.385 . S
C1094 C1096 1.478 . S
C1095 H1089 0.930 . S
C1095 C1091 1.400 . S
C1095 C1094 1.385 . S
C1096 C1094 1.478 . S
C1096 C1098 1.381 . S
C1096 C1102 1.383 . S
C1097 C1093 1.495 . S
C1097 H1103 0.959 . S
C1097 H1104 0.961 . S
C1097 H1105 0.960 . S
C1098 C1096 1.381 . S
C1098 C1099 1.394 . S
C1098 H1106 0.930 . S
C1099 C1098 1.394 . S
C1099 C1100 1.383 . S
C1099 H1107 0.929 . S
C1100 C1099 1.383 . S
C1100 C1101 1.377 . S
C1101 H1085 0.930 . S
C1101 C1100 1.377 . S
C1101 C1102 1.379 . S
C1102 H1086 0.931 . S
C1102 C1096 1.383 . S
C1102 C1101 1.379 . S
H1103 C1097 0.959 . S
H1104 C1097 0.961 . S
H1105 C1097 0.960 . S
H1106 C1098 0.930 . S
H1107 C1099 0.929 . S
H1108 C1116 0.929 . S
H1109 C1118 0.930 . S
H1110 C1120 0.930 . S
H1111 C1123 0.929 . S
H1112 C1126 0.930 . S
H1113 C1128 0.960 . S
H1114 C1128 0.960 . S
H1115 C1128 0.960 . S
C1116 H1108 0.929 . S
C1116 C1117 1.377 . S
C1116 C1118 1.384 . S
C1117 C1116 1.377 . S
C1117 C1123 1.390 . S
C1118 H1109 0.930 . S
C1118 C1116 1.384 . S
C1118 C1119 1.372 . S
C1119 C1118 1.372 . S
C1119 C1120 1.400 . S
C1119 C1124 1.490 . S
C1120 H1110 0.930 . S
C1120 C1119 1.400 . S
C1120 C1123 1.386 . S
H1121 C1137 0.930 . S
H1122 C1138 0.931 . S
C1123 H1111 0.929 . S
C1123 C1117 1.390 . S
C1123 C1120 1.386 . S
C1124 C1119 1.490 . S
C1124 C1126 1.395 . S
C1124 C1127 1.403 . S
H1125 C1131 0.930 . S
C1126 H1112 0.930 . S
C1126 C1124 1.395 . S
C1126 C1129 1.403 . S
C1127 C1124 1.403 . S
C1127 C1128 1.524 . S
C1127 C1131 1.400 . S
C1128 H1113 0.960 . S
C1128 H1114 0.960 . S
C1128 H1115 0.960 . S
C1128 C1127 1.524 . S
C1129 C1126 1.403 . S
C1129 C1130 1.392 . S
C1129 C1133 1.495 . S
C1130 C1129 1.392 . S
C1130 C1131 1.385 . S
C1130 C1132 1.478 . S
C1131 H1125 0.930 . S
C1131 C1127 1.400 . S
C1131 C1130 1.385 . S
C1132 C1130 1.478 . S
C1132 C1134 1.381 . S
C1132 C1138 1.383 . S
C1133 C1129 1.495 . S
C1133 H1139 0.959 . S
C1133 H1140 0.961 . S
C1133 H1141 0.960 . S
C1134 C1132 1.381 . S
C1134 C1135 1.394 . S
C1134 H1142 0.930 . S
C1135 C1134 1.394 . S
C1135 C1136 1.383 . S
C1135 H1143 0.929 . S
C1136 C1135 1.383 . S
C1136 C1137 1.377 . S
C1137 H1121 0.930 . S
C1137 C1136 1.377 . S
C1137 C1138 1.379 . S
C1138 H1122 0.931 . S
C1138 C1132 1.383 . S
C1138 C1137 1.379 . S
H1139 C1133 0.959 . S
H1140 C1133 0.961 . S
H1141 C1133 0.960 . S
H1142 C1134 0.930 . S
H1143 C1135 0.929 . S
H1144 C1152 0.929 . S
H1145 C1154 0.930 . S
H1146 C1156 0.930 . S
H1147 C1159 0.929 . S
H1148 C1162 0.930 . S
H1149 C1164 0.960 . S
H1150 C1164 0.960 . S
H1151 C1164 0.960 . S
C1152 H1144 0.929 . S
C1152 C1153 1.377 . S
C1152 C1154 1.384 . S
C1153 C1152 1.377 . S
C1153 C1159 1.390 . S
C1154 H1145 0.930 . S
C1154 C1152 1.384 . S
C1154 C1155 1.372 . S
C1155 C1154 1.372 . S
C1155 C1156 1.400 . S
C1155 C1160 1.490 . S
C1156 H1146 0.930 . S
C1156 C1155 1.400 . S
C1156 C1159 1.386 . S
H1157 C1173 0.930 . S
H1158 C1174 0.931 . S
C1159 H1147 0.929 . S
C1159 C1153 1.390 . S
C1159 C1156 1.386 . S
C1160 C1155 1.490 . S
C1160 C1162 1.395 . S
C1160 C1163 1.403 . S
H1161 C1167 0.930 . S
C1162 H1148 0.930 . S
C1162 C1160 1.395 . S
C1162 C1165 1.403 . S
C1163 C1160 1.403 . S
C1163 C1164 1.524 . S
C1163 C1167 1.400 . S
C1164 H1149 0.960 . S
C1164 H1150 0.960 . S
C1164 H1151 0.960 . S
C1164 C1163 1.524 . S
C1165 C1162 1.403 . S
C1165 C1166 1.392 . S
C1165 C1169 1.495 . S
C1166 C1165 1.392 . S
C1166 C1167 1.385 . S
C1166 C1168 1.478 . S
C1167 H1161 0.930 . S
C1167 C1163 1.400 . S
C1167 C1166 1.385 . S
C1168 C1166 1.478 . S
C1168 C1170 1.381 . S
C1168 C1174 1.383 . S
C1169 C1165 1.495 . S
C1169 H1175 0.959 . S
C1169 H1176 0.961 . S
C1169 H1177 0.960 . S
C1170 C1168 1.381 . S
C1170 C1171 1.394 . S
C1170 H1178 0.930 . S
C1171 C1170 1.394 . S
C1171 C1172 1.383 . S
C1171 H1179 0.929 . S
C1172 C1171 1.383 . S
C1172 C1173 1.377 . S
C1173 H1157 0.930 . S
C1173 C1172 1.377 . S
C1173 C1174 1.379 . S
C1174 H1158 0.931 . S
C1174 C1168 1.383 . S
C1174 C1173 1.379 . S
H1175 C1169 0.959 . S
H1176 C1169 0.961 . S
H1177 C1169 0.960 . S
H1178 C1170 0.930 . S
H1179 C1171 0.929 . S
H1180 C1188 0.929 . S
H1181 C1190 0.930 . S
H1182 C1192 0.930 . S
H1183 C1195 0.929 . S
H1184 C1198 0.930 . S
H1185 C1200 0.960 . S
H1186 C1200 0.960 . S
H1187 C1200 0.960 . S
C1188 H1180 0.929 . S
C1188 C1189 1.377 . S
C1188 C1190 1.384 . S
C1189 C1188 1.377 . S
C1189 C1195 1.390 . S
C1190 H1181 0.930 . S
C1190 C1188 1.384 . S
C1190 C1191 1.372 . S
C1191 C1190 1.372 . S
C1191 C1192 1.400 . S
C1191 C1196 1.490 . S
C1192 H1182 0.930 . S
C1192 C1191 1.400 . S
C1192 C1195 1.386 . S
H1193 C1209 0.930 . S
H1194 C1210 0.931 . S
C1195 H1183 0.929 . S
C1195 C1189 1.390 . S
C1195 C1192 1.386 . S
C1196 C1191 1.490 . S
C1196 C1198 1.395 . S
C1196 C1199 1.403 . S
H1197 C1203 0.930 . S
C1198 H1184 0.930 . S
C1198 C1196 1.395 . S
C1198 C1201 1.403 . S
C1199 C1196 1.403 . S
C1199 C1200 1.524 . S
C1199 C1203 1.400 . S
C1200 H1185 0.960 . S
C1200 H1186 0.960 . S
C1200 H1187 0.960 . S
C1200 C1199 1.524 . S
C1201 C1198 1.403 . S
C1201 C1202 1.392 . S
C1201 C1205 1.495 . S
C1202 C1201 1.392 . S
C1202 C1203 1.385 . S
C1202 C1204 1.478 . S
C1203 H1197 0.930 . S
C1203 C1199 1.400 . S
C1203 C1202 1.385 . S
C1204 C1202 1.478 . S
C1204 C1206 1.381 . S
C1204 C1210 1.383 . S
C1205 C1201 1.495 . S
C1205 H1211 0.959 . S
C1205 H1212 0.961 . S
C1205 H1213 0.960 . S
C1206 C1204 1.381 . S
C1206 C1207 1.394 . S
C1206 H1214 0.930 . S
C1207 C1206 1.394 . S
C1207 C1208 1.383 . S
C1207 H1215 0.929 . S
C1208 C1207 1.383 . S
C1208 C1209 1.377 . S
C1209 H1193 0.930 . S
C1209 C1208 1.377 . S
C1209 C1210 1.379 . S
C1210 H1194 0.931 . S
C1210 C1204 1.383 . S
C1210 C1209 1.379 . S
H1211 C1205 0.959 . S
H1212 C1205 0.961 . S
H1213 C1205 0.960 . S
H1214 C1206 0.930 . S
H1215 C1207 0.929 . S
H1216 C1224 0.929 . S
H1217 C1226 0.930 . S
H1218 C1228 0.930 . S
H1219 C1231 0.929 . S
H1220 C1234 0.930 . S
H1221 C1236 0.960 . S
H1222 C1236 0.960 . S
H1223 C1236 0.960 . S
C1224 H1216 0.929 . S
C1224 C1225 1.377 . S
C1224 C1226 1.384 . S
C1225 C1224 1.377 . S
C1225 C1231 1.390 . S
C1226 H1217 0.930 . S
C1226 C1224 1.384 . S
C1226 C1227 1.372 . S
C1227 C1226 1.372 . S
C1227 C1228 1.400 . S
C1227 C1232 1.490 . S
C1228 H1218 0.930 . S
C1228 C1227 1.400 . S
C1228 C1231 1.386 . S
H1229 C1245 0.930 . S
H1230 C1246 0.931 . S
C1231 H1219 0.929 . S
C1231 C1225 1.390 . S
C1231 C1228 1.386 . S
C1232 C1227 1.490 . S
C1232 C1234 1.395 . S
C1232 C1235 1.403 . S
H1233 C1239 0.930 . S
C1234 H1220 0.930 . S
C1234 C1232 1.395 . S
C1234 C1237 1.403 . S
C1235 C1232 1.403 . S
C1235 C1236 1.524 . S
C1235 C1239 1.400 . S
C1236 H1221 0.960 . S
C1236 H1222 0.960 . S
C1236 H1223 0.960 . S
C1236 C1235 1.524 . S
C1237 C1234 1.403 . S
C1237 C1238 1.392 . S
C1237 C1241 1.495 . S
C1238 C1237 1.392 . S
C1238 C1239 1.385 . S
C1238 C1240 1.478 . S
C1239 H1233 0.930 . S
C1239 C1235 1.400 . S
C1239 C1238 1.385 . S
C1240 C1238 1.478 . S
C1240 C1242 1.381 . S
C1240 C1246 1.383 . S
C1241 C1237 1.495 . S
C1241 H1247 0.959 . S
C1241 H1248 0.961 . S
C1241 H1249 0.960 . S
C1242 C1240 1.381 . S
C1242 C1243 1.394 . S
C1242 H1250 0.930 . S
C1243 C1242 1.394 . S
C1243 C1244 1.383 . S
C1243 H1251 0.929 . S
C1244 C1243 1.383 . S
C1244 C1245 1.377 . S
C1245 H1229 0.930 . S
C1245 C1244 1.377 . S
C1245 C1246 1.379 . S
C1246 H1230 0.931 . S
C1246 C1240 1.383 . S
C1246 C1245 1.379 . S
H1247 C1241 0.959 . S
H1248 C1241 0.961 . S
H1249 C1241 0.960 . S
H1250 C1242 0.930 . S
H1251 C1243 0.929 . S
H1252 C1260 0.929 . S
H1253 C1262 0.930 . S
H1254 C1264 0.930 . S
H1255 C1267 0.929 . S
H1256 C1270 0.930 . S
H1257 C1272 0.960 . S
H1258 C1272 0.960 . S
H1259 C1272 0.960 . S
C1260 H1252 0.929 . S
C1260 C1261 1.377 . S
C1260 C1262 1.384 . S
C1261 C1260 1.377 . S
C1261 C1267 1.390 . S
C1262 H1253 0.930 . S
C1262 C1260 1.384 . S
C1262 C1263 1.372 . S
C1263 C1262 1.372 . S
C1263 C1264 1.400 . S
C1263 C1268 1.490 . S
C1264 H1254 0.930 . S
C1264 C1263 1.400 . S
C1264 C1267 1.386 . S
H1265 C1281 0.930 . S
H1266 C1282 0.931 . S
C1267 H1255 0.929 . S
C1267 C1261 1.390 . S
C1267 C1264 1.386 . S
C1268 C1263 1.490 . S
C1268 C1270 1.395 . S
C1268 C1271 1.403 . S
H1269 C1275 0.930 . S
C1270 H1256 0.930 . S
C1270 C1268 1.395 . S
C1270 C1273 1.403 . S
C1271 C1268 1.403 . S
C1271 C1272 1.524 . S
C1271 C1275 1.400 . S
C1272 H1257 0.960 . S
C1272 H1258 0.960 . S
C1272 H1259 0.960 . S
C1272 C1271 1.524 . S
C1273 C1270 1.403 . S
C1273 C1274 1.392 . S
C1273 C1277 1.495 . S
C1274 C1273 1.392 . S
C1274 C1275 1.385 . S
C1274 C1276 1.478 . S
C1275 H1269 0.930 . S
C1275 C1271 1.400 . S
C1275 C1274 1.385 . S
C1276 C1274 1.478 . S
C1276 C1278 1.381 . S
C1276 C1282 1.383 . S
C1277 C1273 1.495 . S
C1277 H1283 0.959 . S
C1277 H1284 0.961 . S
C1277 H1285 0.960 . S
C1278 C1276 1.381 . S
C1278 C1279 1.394 . S
C1278 H1286 0.930 . S
C1279 C1278 1.394 . S
C1279 C1280 1.383 . S
C1279 H1287 0.929 . S
C1280 C1279 1.383 . S
C1280 C1281 1.377 . S
C1281 H1265 0.930 . S
C1281 C1280 1.377 . S
C1281 C1282 1.379 . S
C1282 H1266 0.931 . S
C1282 C1276 1.383 . S
C1282 C1281 1.379 . S
H1283 C1277 0.959 . S
H1284 C1277 0.961 . S
H1285 C1277 0.960 . S
H1286 C1278 0.930 . S
H1287 C1279 0.929 . S
C433 C71 1.683 . S
C452 C144 1.650 . S
C488 C228 1.623 . S
C469 C81 1.649 . S
C524 C227 1.668 . S
C505 C49 1.671 . S
C541 C59 1.638 . S
C560 C143 1.629 . S
C596 C324 1.661 . S
C577 C27 1.679 . S
C632 C408 1.688 . S
C613 C38 1.721 . S
C649 C5 1.669 . S
C668 C407 1.667 . S
C685 C16 1.712 . S
C704 C323 1.713 . S
C740 C146 1.372 . S
C721 C15 1.571 . S
C776 C230 1.433 . S
C757 C4 1.587 . S
C812 C242 1.352 . S
C793 C37 1.585 . S
C848 C158 1.376 . S
C829 C26 1.597 . S
C884 C326 1.515 . S
C865 C60 1.627 . S
C901 C48 1.664 . S
C920 C410 1.475 . S
C956 C398 1.434 . S
C937 C82 1.639 . S
C973 C70 1.675 . S
C992 C314 1.416 . S
C1028 C155 1.510 . S
C1009 C10 1.504 . S
C1064 C239 1.573 . S
C1045 C21 1.565 . S
C1081 C32 1.500 . S
C1100 C240 1.462 . S
C1136 C156 1.536 . S
C1117 C43 1.558 . S
C1172 C311 1.616 . S
C1153 C54 1.612 . S
C1189 C65 1.565 . S
C1208 C395 1.555 . S
C1225 C76 1.606 . S
C1244 C396 1.579 . S
C1261 C87 1.556 . S
C1280 C312 1.521 . S
