# Generated by pormake.
# Topology apo, (3,6)-cn, num edge types: 1
# Building blocks:
#     Node 0, Type 0, BuildingBlock: BETDIP_clean_linker_0, # of connection points: 3
#     Node 1, Type 0, BuildingBlock: BETDIP_clean_linker_0, # of connection points: 3
#     Node 2, Type 0, BuildingBlock: BETDIP_clean_linker_0, # of connection points: 3
#     Node 3, Type 0, BuildingBlock: BETDIP_clean_linker_0, # of connection points: 3
#     Node 4, Type 0, BuildingBlock: BETDIP_clean_linker_0, # of connection points: 3
#     Node 5, Type 0, BuildingBlock: BETDIP_clean_linker_0, # of connection points: 3
#     Node 6, Type 0, BuildingBlock: BETDIP_clean_linker_0, # of connection points: 3
#     Node 7, Type 0, BuildingBlock: BETDIP_clean_linker_0, # of connection points: 3
#     Node 8, Type 1, BuildingBlock: KUMJIN_clean_sbu_1, # of connection points: 6
#     Node 9, Type 1, BuildingBlock: KUMJIN_clean_sbu_1, # of connection points: 6
#     Node 10, Type 1, BuildingBlock: KUMJIN_clean_sbu_1, # of connection points: 6
#     Node 11, Type 1, BuildingBlock: KUMJIN_clean_sbu_1, # of connection points: 6
#     Edge 12, Type (0, 1), BuildingBlock: TEMPAE_clean_linker_10, # of connection points: 2
#     Edge 13, Type (0, 1), BuildingBlock: TEMPAE_clean_linker_10, # of connection points: 2
#     Edge 14, Type (0, 1), BuildingBlock: TEMPAE_clean_linker_10, # of connection points: 2
#     Edge 15, Type (0, 1), BuildingBlock: TEMPAE_clean_linker_10, # of connection points: 2
#     Edge 16, Type (0, 1), BuildingBlock: TEMPAE_clean_linker_10, # of connection points: 2
#     Edge 17, Type (0, 1), BuildingBlock: TEMPAE_clean_linker_10, # of connection points: 2
#     Edge 18, Type (0, 1), BuildingBlock: TEMPAE_clean_linker_10, # of connection points: 2
#     Edge 19, Type (0, 1), BuildingBlock: TEMPAE_clean_linker_10, # of connection points: 2
#     Edge 20, Type (0, 1), BuildingBlock: TEMPAE_clean_linker_10, # of connection points: 2
#     Edge 21, Type (0, 1), BuildingBlock: TEMPAE_clean_linker_10, # of connection points: 2
#     Edge 22, Type (0, 1), BuildingBlock: TEMPAE_clean_linker_10, # of connection points: 2
#     Edge 23, Type (0, 1), BuildingBlock: TEMPAE_clean_linker_10, # of connection points: 2
#     Edge 24, Type (0, 1), BuildingBlock: TEMPAE_clean_linker_10, # of connection points: 2
#     Edge 25, Type (0, 1), BuildingBlock: TEMPAE_clean_linker_10, # of connection points: 2
#     Edge 26, Type (0, 1), BuildingBlock: TEMPAE_clean_linker_10, # of connection points: 2
#     Edge 27, Type (0, 1), BuildingBlock: TEMPAE_clean_linker_10, # of connection points: 2
#     Edge 28, Type (0, 1), BuildingBlock: TEMPAE_clean_linker_10, # of connection points: 2
#     Edge 29, Type (0, 1), BuildingBlock: TEMPAE_clean_linker_10, # of connection points: 2
#     Edge 30, Type (0, 1), BuildingBlock: TEMPAE_clean_linker_10, # of connection points: 2
#     Edge 31, Type (0, 1), BuildingBlock: TEMPAE_clean_linker_10, # of connection points: 2
#     Edge 32, Type (0, 1), BuildingBlock: TEMPAE_clean_linker_10, # of connection points: 2
#     Edge 33, Type (0, 1), BuildingBlock: TEMPAE_clean_linker_10, # of connection points: 2
#     Edge 34, Type (0, 1), BuildingBlock: TEMPAE_clean_linker_10, # of connection points: 2
#     Edge 35, Type (0, 1), BuildingBlock: TEMPAE_clean_linker_10, # of connection points: 2
# Relax obj value: 0.037
# Max RMSD: 0.198
# Mean RMSD: 0.156
data_MOF--net-apo--node1-KUMJIN_clean_sbu_1--node2-BETDIP_clean_linker_0--edge1-TEMPAE_clean_linker_10
_symmetry_space_group_name_H-M    P1
_symmetry_Int_Tables_number       1
_symmetry_cell_setting            triclinic
loop_
_symmetry_equiv_pos_as_xyz
'x, y, z'
_cell_length_a     27.729677
_cell_length_b     42.500444
_cell_length_c     52.556964
_cell_angle_alpha  90.101995
_cell_angle_beta   90.082457
_cell_angle_gamma 90.826059
loop_
_atom_site_label
_atom_site_type_symbol
_atom_site_fract_x
_atom_site_fract_y
_atom_site_fract_z
_atom_type_partial_charge
H0 H 0.26118 0.33812 0.44164 0.0
H1 H 0.2705 0.374 0.36536 0.0
H2 H 0.34892 0.42031 0.42544 0.0
H3 H 0.18176 0.35276 0.37197 0.0
C4 C 0.19694 0.32982 0.37583 0.0
C5 C 0.27569 0.35532 0.42841 0.0
C6 C 0.30552 0.38017 0.43717 0.0
C7 C 0.26266 0.35311 0.40266 0.0
C8 C 0.2799 0.3758 0.38534 0.0
C9 C 0.31144 0.39984 0.39358 0.0
C10 C 0.32425 0.40176 0.41934 0.0
N11 N 0.23397 0.32712 0.39435 0.0
H12 H 0.24766 0.17465 0.94238 0.0
H13 H 0.23802 0.13381 0.86728 0.0
H14 H 0.15169 0.09609 0.92776 0.0
H15 H 0.30903 0.15756 0.86168 0.0
C16 C 0.30796 0.17924 0.87259 0.0
C17 C 0.23242 0.15733 0.92938 0.0
C18 C 0.19759 0.13557 0.93811 0.0
C19 C 0.24769 0.15699 0.90393 0.0
C20 C 0.22778 0.13434 0.88712 0.0
C21 C 0.19323 0.11246 0.89577 0.0
C22 C 0.17798 0.11334 0.92111 0.0
N23 N 0.28155 0.18039 0.89576 0.0
H24 H 0.78757 0.17784 0.57601 0.0
H25 H 0.78123 0.13562 0.64938 0.0
H26 H 0.83191 0.08146 0.5862 0.0
H27 H 0.69175 0.16112 0.63614 0.0
C28 C 0.71162 0.18337 0.6361 0.0
C29 C 0.79274 0.15706 0.58745 0.0
C30 C 0.81197 0.12926 0.57694 0.0
C31 C 0.77891 0.15846 0.61303 0.0
C32 C 0.78885 0.13327 0.62927 0.0
C33 C 0.81086 0.10609 0.61983 0.0
C34 C 0.81932 0.10364 0.5935 0.0
N35 N 0.75565 0.18566 0.62239 0.0
H36 H 0.73438 0.33388 0.07144 0.0
H37 H 0.73811 0.37124 0.14739 0.0
H38 H 0.65938 0.4195 0.08959 0.0
H39 H 0.82003 0.35167 0.14167 0.0
C40 C 0.80759 0.32826 0.13612 0.0
C41 C 0.72439 0.35215 0.08475 0.0
C42 C 0.69509 0.37724 0.07686 0.0
C43 C 0.74137 0.3504 0.10985 0.0
C44 C 0.72704 0.37306 0.12767 0.0
C45 C 0.69677 0.39746 0.12034 0.0
C46 C 0.68163 0.39986 0.095 0.0
N47 N 0.77134 0.32508 0.1171 0.0
H48 H 0.75586 0.6725 0.5676 0.0
H49 H 0.73676 0.63768 0.64388 0.0
H50 H 0.67309 0.58765 0.5808 0.0
H51 H 0.72935 0.69751 0.64623 0.0
C52 C 0.76534 0.70057 0.63833 0.0
C53 C 0.74129 0.65501 0.58058 0.0
C54 C 0.71299 0.62993 0.57124 0.0
C55 C 0.74963 0.65812 0.60678 0.0
C56 C 0.73012 0.63561 0.62362 0.0
C57 C 0.70314 0.60993 0.61425 0.0
C58 C 0.69472 0.60717 0.58805 0.0
N59 N 0.77776 0.68393 0.6159 0.0
H60 H 0.76055 0.83502 0.06858 0.0
H61 H 0.76437 0.87568 0.14341 0.0
H62 H 0.8395 0.92114 0.08149 0.0
H63 H 0.77341 0.82111 0.15227 0.0
C64 C 0.74215 0.81305 0.14144 0.0
C65 C 0.77263 0.85354 0.08139 0.0
C66 C 0.80022 0.87892 0.07208 0.0
C67 C 0.761 0.85182 0.1073 0.0
C68 C 0.77584 0.8763 0.12376 0.0
C69 C 0.80444 0.90166 0.11491 0.0
C70 C 0.81648 0.9025 0.08888 0.0
N71 N 0.73457 0.82529 0.1166 0.0
H72 H 0.24043 0.834 0.43977 0.0
H73 H 0.23333 0.87721 0.36596 0.0
H74 H 0.16724 0.92162 0.43035 0.0
H75 H 0.24282 0.82954 0.35191 0.0
C76 C 0.26591 0.81769 0.36543 0.0
C77 C 0.229 0.8531 0.42762 0.0
C78 C 0.20233 0.87786 0.43788 0.0
C79 C 0.23954 0.85224 0.40159 0.0
C80 C 0.22479 0.87726 0.38598 0.0
C81 C 0.19836 0.90241 0.396 0.0
C82 C 0.18722 0.9024 0.4221 0.0
N83 N 0.2648 0.82598 0.39166 0.0
H84 H 0.26432 0.6692 0.93868 0.0
H85 H 0.27168 0.62855 0.8639 0.0
H86 H 0.33622 0.58134 0.92725 0.0
H87 H 0.26331 0.67763 0.85175 0.0
C88 C 0.23846 0.68798 0.86521 0.0
C89 C 0.27545 0.65027 0.92626 0.0
C90 C 0.30243 0.62526 0.93601 0.0
C91 C 0.26455 0.65185 0.90027 0.0
C92 C 0.27991 0.62765 0.88397 0.0
C93 C 0.30666 0.60235 0.89339 0.0
C94 C 0.3169 0.60116 0.91955 0.0
N95 N 0.23858 0.67817 0.89107 0.0
Eu96 Eu 0.05878 0.10563 0.22963 0.0
C97 C 0.85301 0.06786 0.27103 0.0
N98 N 0.87212 0.09731 0.26918 0.0
C99 C 0.79712 0.11674 0.25351 0.0
C100 C 0.80522 0.06145 0.26313 0.0
C101 C 0.84482 0.12183 0.26129 0.0
C102 C 0.77734 0.08634 0.25417 0.0
C103 C 0.86267 0.01317 0.28258 0.0
C104 C 0.88144 0.04412 0.28079 0.0
C105 C 0.8157 0.00641 0.27386 0.0
C106 C 0.78694 0.03053 0.26433 0.0
Eu107 Eu 0.95218 0.10451 0.28279 0.0
N108 N 0.92662 0.0515 0.28934 0.0
C109 C 0.89122 0.99006 0.29369 0.0
C110 C 0.95268 0.0296 0.30217 0.0
C111 C 0.93607 0.99845 0.30393 0.0
H112 H 0.85967 0.14535 0.26132 0.0
H113 H 0.95751 0.98106 0.31361 0.0
H114 H 0.13583 0.04915 0.2504 0.0
H115 H 0.10616 0.22545 0.2026 0.0
H116 H 0.98562 0.03602 0.31178 0.0
H117 H 0.87823 0.96598 0.29533 0.0
H118 H 0.05628 0.17651 0.20349 0.0
H119 H 0.77563 0.13626 0.2471 0.0
H120 H 0.80091 0.98272 0.27491 0.0
H121 H 0.75053 0.02506 0.25805 0.0
H122 H 0.21236 0.04656 0.274 0.0
H123 H 0.74044 0.0824 0.24801 0.0
H124 H 0.18183 0.22867 0.22763 0.0
N125 N 0.1346 0.0993 0.24996 0.0
C126 C 0.16145 0.12612 0.25296 0.0
C127 C 0.19807 0.06916 0.26861 0.0
C128 C 0.20677 0.1256 0.26519 0.0
C129 C 0.15398 0.07081 0.25577 0.0
C130 C 0.22408 0.09677 0.27388 0.0
N131 N 0.10286 0.15324 0.22915 0.0
C132 C 0.08924 0.17802 0.21444 0.0
C133 C 0.17501 0.18106 0.24197 0.0
C134 C 0.14574 0.15367 0.24166 0.0
C135 C 0.16015 0.20727 0.22801 0.0
C136 C 0.11743 0.20556 0.21386 0.0
H137 H 0.25864 0.09538 0.28342 0.0
H138 H 0.26906 0.15355 0.27678 0.0
H139 H 0.24131 0.20208 0.25634 0.0
O140 O 0.04361 0.10414 0.18843 0.0
O141 O 0.04833 0.14771 0.25585 0.0
O142 O 0.02715 0.12241 0.29219 0.0
O143 O 0.11474 0.09381 0.20263 0.0
O144 O 0.9902 0.13058 0.21852 0.0
O145 O 0.95157 0.1465 0.25571 0.0
O146 O 0.9248 0.10055 0.32203 0.0
O147 O 0.93685 0.08552 0.24288 0.0
O148 O 0.00894 0.06319 0.23252 0.0
O149 O 0.92603 0.14608 0.30243 0.0
O150 O 0.02361 0.08226 0.2932 0.0
O151 O 0.05251 0.06244 0.25522 0.0
C152 C 0.04643 0.14676 0.28076 0.0
C153 C 0.09654 0.07517 0.16139 0.0
C154 C 0.11674 0.06989 0.11621 0.0
C155 C 0.13245 0.03906 0.12128 0.0
C156 C 0.11113 0.04422 0.16573 0.0
C157 C 0.12872 0.02624 0.14567 0.0
C158 C 0.09791 0.0875 0.13661 0.0
C159 C 0.96052 0.14902 0.23104 0.0
C160 C 0.08763 0.09676 0.18266 0.0
C161 C 0.23445 0.15345 0.26717 0.0
C162 C 0.21872 0.18109 0.25548 0.0
C163 C 0.96182 0.0645 0.2303 0.0
C164 C 0.8949 0.14609 0.34566 0.0
C165 C 0.87724 0.1479 0.39114 0.0
C166 C 0.85917 0.17833 0.38814 0.0
C167 C 0.87648 0.17657 0.34316 0.0
C168 C 0.89479 0.13158 0.36982 0.0
C169 C 0.85861 0.19248 0.36426 0.0
C170 C 0.05034 0.06251 0.28025 0.0
C171 C 0.91584 0.13055 0.32316 0.0
H172 H 0.14897 0.02487 0.10668 0.0
H173 H 0.11068 0.03444 0.18476 0.0
H174 H 0.14114 1.00261 0.14921 0.0
H175 H 0.08562 0.11128 0.13364 0.0
H176 H 0.84552 0.19117 0.40438 0.0
H177 H 0.87608 0.18825 0.32486 0.0
H178 H 0.90925 0.1082 0.37216 0.0
H179 H 0.8446 0.21597 0.36214 0.0
Eu180 Eu 0.45055 0.40249 0.73058 0.0
C181 C 0.66747 0.43113 0.7681 0.0
N182 N 0.64218 0.40407 0.76347 0.0
C183 C 0.71108 0.38142 0.74344 0.0
C184 C 0.71578 0.43448 0.76004 0.0
C185 C 0.66339 0.37913 0.75186 0.0
C186 C 0.73735 0.40926 0.74744 0.0
C187 C 0.67024 0.48419 0.78538 0.0
C188 C 0.64474 0.45578 0.78061 0.0
C189 C 0.71843 0.48744 0.7775 0.0
C190 C 0.74106 0.46272 0.76482 0.0
Eu191 Eu 0.56355 0.40192 0.7802 0.0
N192 N 0.59747 0.45244 0.78735 0.0
C193 C 0.64628 0.50873 0.79755 0.0
C194 C 0.57468 0.47584 0.80019 0.0
C195 C 0.5984 0.50447 0.80508 0.0
H196 H 0.64418 0.3571 0.74981 0.0
H197 H 0.57992 0.52308 0.81502 0.0
H198 H 0.37326 0.45622 0.75292 0.0
H199 H 0.43123 0.27453 0.72221 0.0
H200 H 0.53876 0.47243 0.80744 0.0
H201 H 0.66454 0.53095 0.80141 0.0
H202 H 0.47424 0.32541 0.71983 0.0
H203 H 0.72773 0.36157 0.73419 0.0
H204 H 0.73842 0.50914 0.78094 0.0
H205 H 0.77819 0.46569 0.75876 0.0
H206 H 0.28929 0.45764 0.76844 0.0
H207 H 0.7744 0.41092 0.741 0.0
H208 H 0.34585 0.27241 0.73567 0.0
N209 N 0.37215 0.40676 0.74692 0.0
C210 C 0.34566 0.37955 0.7471 0.0
C211 C 0.30477 0.43553 0.76261 0.0
C212 C 0.29728 0.37942 0.75533 0.0
C213 C 0.35252 0.4346 0.75421 0.0
C214 C 0.277 0.40785 0.76314 0.0
N215 N 0.41522 0.35183 0.73348 0.0
C216 C 0.43771 0.32485 0.72654 0.0
C217 C 0.34135 0.32279 0.74121 0.0
C218 C 0.36765 0.35141 0.74011 0.0
C219 C 0.36478 0.29488 0.73494 0.0
C220 C 0.41308 0.29595 0.7275 0.0
H221 H 0.23997 0.40868 0.76964 0.0
H222 H 0.23365 0.35047 0.76208 0.0
H223 H 0.27213 0.30101 0.74975 0.0
O224 O 0.44285 0.38983 0.69032 0.0
O225 O 0.43835 0.38104 0.76999 0.0
O226 O 0.51212 0.36051 0.77808 0.0
O227 O 0.40007 0.42716 0.70615 0.0
O228 O 0.51955 0.37906 0.71728 0.0
O229 O 0.55336 0.36 0.75416 0.0
O230 O 0.56519 0.4029 0.8226 0.0
O231 O 0.57682 0.4292 0.74337 0.0
O232 O 0.50274 0.44346 0.72605 0.0
O233 O 0.61395 0.3733 0.8007 0.0
O234 O 0.49441 0.42632 0.79166 0.0
O235 O 0.46379 0.44632 0.75408 0.0
C236 C 0.46609 0.3622 0.78308 0.0
C237 C 0.41642 0.42938 0.66206 0.0
C238 C 0.4061 0.43227 0.61607 0.0
C239 C 0.42494 0.4631 0.61644 0.0
C240 C 0.4344 0.46043 0.66219 0.0
C241 C 0.43851 0.47717 0.63945 0.0
C242 C 0.40174 0.41551 0.63897 0.0
C243 C 0.54971 0.36053 0.72922 0.0
C244 C 0.41104 0.4114 0.68578 0.0
C245 C 0.27091 0.35099 0.75588 0.0
C246 C 0.29284 0.3228 0.74886 0.0
C247 C 0.55011 0.44563 0.72756 0.0
C248 C 0.62394 0.37055 0.84617 0.0
C249 C 0.63468 0.36788 0.89222 0.0
C250 C 0.671 0.34562 0.88876 0.0
C251 C 0.6606 0.34823 0.84332 0.0
C252 C 0.61121 0.38063 0.87085 0.0
C253 C 0.68392 0.33596 0.86446 0.0
C254 C 0.46771 0.44637 0.77899 0.0
C255 C 0.60047 0.38288 0.82302 0.0
H256 H 0.42832 0.47645 0.59898 0.0
H257 H 0.44513 0.47174 0.67984 0.0
H258 H 0.45223 0.50114 0.63964 0.0
H259 H 0.3871 0.3917 0.63879 0.0
H260 H 0.68965 0.3358 0.90499 0.0
H261 H 0.67151 0.34015 0.82467 0.0
H262 H 0.58326 0.3979 0.87346 0.0
H263 H 0.7121 0.31887 0.862 0.0
Eu264 Eu 0.05571 0.90084 0.73343 0.0
C265 C 0.84059 0.87965 0.76291 0.0
N266 N 0.86728 0.90674 0.7637 0.0
C267 C 0.80474 0.93422 0.74191 0.0
C268 C 0.79565 0.87854 0.75033 0.0
C269 C 0.84909 0.93414 0.75459 0.0
C270 C 0.7782 0.9062 0.73944 0.0
C271 C 0.83141 0.82457 0.77429 0.0
C272 C 0.85844 0.85293 0.77475 0.0
C273 C 0.78717 0.8232 0.76126 0.0
C274 C 0.76937 0.85009 0.74929 0.0
Eu275 Eu 0.94244 0.90421 0.78464 0.0
N276 N 0.90175 0.85483 0.78701 0.0
C277 C 0.84928 0.7985 0.7873 0.0
C278 C 0.91767 0.83008 0.80106 0.0
C279 C 0.8922 0.80144 0.80106 0.0
H280 H 0.86845 0.95609 0.7573 0.0
H281 H 0.90548 0.78173 0.81189 0.0
H282 H 0.13885 0.84922 0.75486 0.0
H283 H 0.08351 0.02102 0.70028 0.0
H284 H 0.94932 0.83241 0.81282 0.0
H285 H 0.82965 0.77628 0.78735 0.0
H286 H 0.03918 0.97074 0.70637 0.0
H287 H 0.79091 0.95593 0.73423 0.0
H288 H 0.76615 0.80153 0.76055 0.0
H289 H 0.73495 0.84871 0.73953 0.0
H290 H 0.22243 0.8502 0.77045 0.0
H291 H 0.74381 0.90633 0.72963 0.0
H292 H 0.16698 0.02712 0.7165 0.0
N293 N 0.13663 0.89868 0.74816 0.0
C294 C 0.16289 0.92588 0.7466 0.0
C295 C 0.20595 0.87176 0.76411 0.0
C296 C 0.21156 0.92721 0.75446 0.0
C297 C 0.15812 0.87147 0.75568 0.0
C298 C 0.23263 0.89984 0.76382 0.0
N299 N 0.09581 0.9495 0.72711 0.0
C300 C 0.07511 0.9735 0.71401 0.0
C301 C 0.16916 0.97992 0.73191 0.0
C302 C 0.14213 0.95189 0.73536 0.0
C303 C 0.14745 0.00517 0.71947 0.0
C304 C 0.10031 1.00185 0.71033 0.0
H305 H 0.26992 0.89989 0.77002 0.0
H306 H 0.27545 0.95691 0.75798 0.0
H307 H 0.23821 1.00313 0.73834 0.0
O308 O 0.04597 0.90302 0.69192 0.0
O309 O 0.05332 0.94209 0.76098 0.0
O310 O 0.018 0.91991 0.79636 0.0
O311 O 0.09659 0.87075 0.70805 0.0
O312 O 0.98494 0.92359 0.72251 0.0
O313 O 0.95772 0.94669 0.75962 0.0
O314 O 0.91111 0.89792 0.82255 0.0
O315 O 0.93293 0.88195 0.74557 0.0
O316 O 0.0062 0.85925 0.7402 0.0
O317 O 0.91063 0.94369 0.80482 0.0
O318 O 1.00286 0.87265 0.79816 0.0
O319 O 0.05902 0.86486 0.76527 0.0
C320 C 0.04487 0.94186 0.78561 0.0
C321 C 0.11691 0.89256 0.66839 0.0
C322 C 0.14535 0.89505 0.62457 0.0
C323 C 0.18881 0.90875 0.63306 0.0
C324 C 0.16086 0.9061 0.67647 0.0
C325 C 0.19649 0.91418 0.6589 0.0
C326 C 0.10927 0.88691 0.64228 0.0
C327 C 0.96206 0.94599 0.73468 0.0
C328 C 0.08016 0.88315 0.68726 0.0
C329 C 0.23814 0.95542 0.75189 0.0
C330 C 0.21699 0.98171 0.74064 0.0
C331 C 0.96006 0.8602 0.73565 0.0
C332 C 0.91158 0.9423 0.85029 0.0
C333 C 0.90718 0.9406 0.89699 0.0
C334 C 0.92233 0.9724 0.8976 0.0
C335 C 0.92748 0.9738 0.8517 0.0
C336 C 0.90187 0.92575 0.87304 0.0
C337 C 0.93281 0.98863 0.8752 0.0
C338 C 0.04082 0.85899 0.78801 0.0
C339 C 0.90097 0.92751 0.8253 0.0
H340 H 0.21699 0.91497 0.61964 0.0
H341 H 0.16807 0.91 0.69639 0.0
H342 H 0.2303 0.92446 0.66535 0.0
H343 H 0.07574 0.87617 0.6358 0.0
H344 H 0.92518 0.98517 0.91538 0.0
H345 H 0.93495 0.98726 0.83464 0.0
H346 H 0.88985 0.90142 0.87199 0.0
H347 H 0.94434 0.01305 0.87605 0.0
Eu348 Eu 0.45509 0.60663 0.23025 0.0
C349 C 0.66889 0.63116 0.26529 0.0
N350 N 0.64352 0.60358 0.2656 0.0
C351 C 0.70908 0.57728 0.24541 0.0
C352 C 0.71476 0.63314 0.25381 0.0
C353 C 0.66366 0.57658 0.25692 0.0
C354 C 0.73446 0.6058 0.24347 0.0
C355 C 0.67469 0.6862 0.27714 0.0
C356 C 0.64892 0.65734 0.27677 0.0
C357 C 0.71977 0.68855 0.26507 0.0
C358 C 0.73972 0.6621 0.25339 0.0
Eu359 Eu 0.56553 0.60459 0.28356 0.0
N360 N 0.60532 0.65423 0.28846 0.0
C361 C 0.65503 0.71162 0.29028 0.0
C362 C 0.58831 0.67813 0.30316 0.0
C363 C 0.61214 0.70736 0.30377 0.0
H364 H 0.64503 0.55443 0.25922 0.0
H365 H 0.59779 0.72642 0.315 0.0
H366 H 0.37169 0.66147 0.24475 0.0
H367 H 0.42316 0.48422 0.20291 0.0
H368 H 0.55712 0.67466 0.31505 0.0
H369 H 0.67361 0.73421 0.29094 0.0
H370 H 0.4683 0.53474 0.20559 0.0
H371 H 0.72459 0.5558 0.2382 0.0
H372 H 0.73993 0.71058 0.26508 0.0
H373 H 0.77483 0.66417 0.24448 0.0
H374 H 0.28722 0.66329 0.25904 0.0
H375 H 0.76967 0.6063 0.23456 0.0
H376 H 0.34051 0.48011 0.22046 0.0
N377 N 0.37298 0.61138 0.24254 0.0
C378 C 0.3462 0.58437 0.24292 0.0
C379 C 0.30351 0.64087 0.25488 0.0
C380 C 0.2974 0.58439 0.25048 0.0
C381 C 0.35162 0.63966 0.24708 0.0
C382 C 0.2765 0.61305 0.25705 0.0
N383 N 0.41264 0.55834 0.22525 0.0
C384 C 0.43245 0.53301 0.21339 0.0
C385 C 0.33921 0.52884 0.23255 0.0
C386 C 0.36656 0.55704 0.23385 0.0
C387 C 0.36028 0.50223 0.22174 0.0
C388 C 0.4069 0.50446 0.21179 0.0
H389 H 0.2391 0.61408 0.2629 0.0
H390 H 0.23319 0.5556 0.25632 0.0
H391 H 0.27001 0.50685 0.24083 0.0
O392 O 0.45901 0.59971 0.1888 0.0
O393 O 0.45851 0.56541 0.25741 0.0
O394 O 0.48866 0.58955 0.29314 0.0
O395 O 0.4269 0.6414 0.204 0.0
O396 O 0.52604 0.58344 0.2205 0.0
O397 O 0.55491 0.5618 0.25785 0.0
O398 O 0.59215 0.60938 0.32272 0.0
O399 O 0.57962 0.62407 0.24411 0.0
O400 O 0.50702 0.64688 0.23845 0.0
O401 O 0.58977 0.5631 0.30437 0.0
O402 O 0.50552 0.63827 0.29432 0.0
O403 O 0.44489 0.64035 0.26313 0.0
C404 C 0.46415 0.56661 0.28217 0.0
C405 C 0.39354 0.6214 0.1661 0.0
C406 C 0.36167 0.61857 0.12298 0.0
C407 C 0.31467 0.61688 0.13279 0.0
C408 C 0.34617 0.61955 0.17555 0.0
C409 C 0.30704 0.61746 0.15896 0.0
C410 C 0.4012 0.62107 0.13966 0.0
C411 C 0.54873 0.56112 0.23293 0.0
C412 C 0.43466 0.62484 0.18369 0.0
C413 C 0.27056 0.5561 0.25031 0.0
C414 C 0.29147 0.52835 0.24142 0.0
C415 C 0.55285 0.64522 0.23321 0.0
C416 C 0.61915 0.56502 0.34815 0.0
C417 C 0.63542 0.5671 0.39384 0.0
C418 C 0.64961 0.5355 0.39296 0.0
C419 C 0.6337 0.53351 0.34776 0.0
C420 C 0.62072 0.58194 0.37126 0.0
C421 C 0.64901 0.51894 0.37004 0.0
C422 C 0.46483 0.64916 0.28483 0.0
C423 C 0.59975 0.57936 0.3248 0.0
H424 H 0.28385 0.61532 0.12013 0.0
H425 H 0.3392 0.62007 0.19573 0.0
H426 H 0.27069 0.61637 0.16642 0.0
H427 H 0.43754 0.62261 0.13213 0.0
H428 H 0.66164 0.52368 0.41003 0.0
H429 H 0.63287 0.52 0.33027 0.0
H430 H 0.6092 0.60619 0.37189 0.0
H431 H 0.66014 0.49465 0.36958 0.0
C432 C 0.13481 0.94045 0.38241 0.0
C433 C 0.18085 0.92784 0.37893 0.0
C434 C 0.11672 0.96317 0.36573 0.0
C435 C 0.14493 0.97318 0.34475 0.0
C436 C 0.19162 0.96096 0.34124 0.0
C437 C 0.20922 0.93869 0.35851 0.0
C438 C 0.06697 0.97604 0.37031 0.0
C439 C 0.22272 0.9711 0.31907 0.0
C440 C 0.07535 0.00762 0.28933 0.0
C441 C 0.07861 0.03977 0.29483 0.0
C442 C 0.09763 0.98558 0.30519 0.0
C443 C 0.12502 0.99622 0.32641 0.0
C444 C 0.13057 0.02889 0.33105 0.0
C445 C 0.10645 0.05027 0.31546 0.0
C446 C 0.0901 0.95093 0.29993 0.0
C447 C 0.16058 0.04124 0.35299 0.0
H448 H 0.11222 0.93201 0.39782 0.0
H449 H 0.24525 0.92972 0.35592 0.0
H450 H 0.06884 1.00207 0.37186 0.0
H451 H 0.04314 0.9702 0.35395 0.0
H452 H 0.05023 0.9665 0.38793 0.0
H453 H 0.25858 0.95979 0.31929 0.0
H454 H 0.20434 0.96501 0.30092 0.0
H455 H 0.22809 0.99702 0.31932 0.0
H456 H 0.05337 0.99969 0.27342 0.0
H457 H 0.10917 0.0753 0.31942 0.0
H458 H 0.06987 0.93994 0.31589 0.0
H459 H 0.12535 0.93902 0.29866 0.0
H460 H 0.0697 0.94657 0.28202 0.0
H461 H 0.14298 0.0348 0.37123 0.0
H462 H 0.1653 0.06723 0.35234 0.0
H463 H 0.19671 0.03037 0.3529 0.0
C464 C 0.37241 0.56595 0.8801 0.0
C465 C 0.32629 0.57812 0.87583 0.0
C466 C 0.39229 0.54379 0.86357 0.0
C467 C 0.36606 0.53406 0.84177 0.0
C468 C 0.3196 0.54617 0.83718 0.0
C469 C 0.30002 0.5678 0.85442 0.0
C470 C 0.44175 0.53108 0.86929 0.0
C471 C 0.29081 0.53646 0.81399 0.0
C472 C 0.44244 0.50092 0.78857 0.0
C473 C 0.439 0.46869 0.79361 0.0
C474 C 0.41776 0.52257 0.80374 0.0
C475 C 0.38796 0.51144 0.82378 0.0
C476 C 0.3825 0.47868 0.82795 0.0
C477 C 0.40886 0.45767 0.81304 0.0
C478 C 0.42513 0.55734 0.79902 0.0
C479 C 0.35013 0.46587 0.84867 0.0
H480 H 0.39362 0.57419 0.89618 0.0
H481 H 0.26407 0.57658 0.8511 0.0
H482 H 0.44007 0.50502 0.87043 0.0
H483 H 0.46698 0.53733 0.85367 0.0
H484 H 0.45679 0.54037 0.88746 0.0
H485 H 0.25525 0.54813 0.81312 0.0
H486 H 0.31128 0.54243 0.79648 0.0
H487 H 0.28482 0.5106 0.81393 0.0
H488 H 0.46598 0.5092 0.77346 0.0
H489 H 0.40588 0.43256 0.81652 0.0
H490 H 0.44359 0.5683 0.81563 0.0
H491 H 0.38983 0.569 0.79686 0.0
H492 H 0.44715 0.56206 0.78176 0.0
H493 H 0.3653 0.47234 0.86755 0.0
H494 H 0.3461 0.43985 0.84768 0.0
H495 H 0.31384 0.4764 0.84735 0.0
C496 C 0.64369 0.59351 0.64726 0.0
C497 C 0.68288 0.58612 0.63175 0.0
C498 C 0.62217 0.57055 0.6629 0.0
C499 C 0.64114 0.53977 0.66337 0.0
C500 C 0.68151 0.53249 0.64807 0.0
C501 C 0.70156 0.55572 0.63216 0.0
C502 C 0.57874 0.57908 0.67862 0.0
C503 C 0.70312 0.50009 0.64832 0.0
C504 C 0.61086 0.48885 0.72062 0.0
C505 C 0.57428 0.46915 0.71105 0.0
C506 C 0.63331 0.51172 0.7053 0.0
C507 C 0.61847 0.51511 0.6797 0.0
C508 C 0.58165 0.4951 0.6698 0.0
C509 C 0.55992 0.47241 0.68565 0.0
C510 C 0.67292 0.53221 0.71651 0.0
C511 C 0.56457 0.49797 0.64263 0.0
H512 H 0.62925 0.61707 0.64667 0.0
H513 H 0.73192 0.5502 0.62004 0.0
H514 H 0.54757 0.56381 0.6732 0.0
H515 H 0.58613 0.5749 0.69908 0.0
H516 H 0.56849 0.60406 0.67612 0.0
H517 H 0.7355 0.49857 0.63598 0.0
H518 H 0.71339 0.49363 0.66802 0.0
H519 H 0.676 0.48244 0.64171 0.0
H520 H 0.62099 0.48708 0.74028 0.0
H521 H 0.53206 0.45691 0.6781 0.0
H522 H 0.6647 0.55744 0.71377 0.0
H523 H 0.70733 0.5276 0.70652 0.0
H524 H 0.67817 0.52789 0.73715 0.0
H525 H 0.54258 0.51946 0.64076 0.0
H526 H 0.54237 0.47731 0.63663 0.0
H527 H 0.59546 0.50041 0.62937 0.0
C528 C 0.83162 0.95755 0.12419 0.0
C529 C 0.8228 0.92668 0.13279 0.0
C530 C 0.85263 0.98051 0.14013 0.0
C531 C 0.86325 0.973 0.16573 0.0
C532 C 0.85204 0.94256 0.17504 0.0
C533 C 0.83302 0.91963 0.15839 0.0
C534 C 0.86467 0.01259 0.12935 0.0
C535 C 0.86106 0.93399 0.2025 0.0
C536 C 0.96265 0.0188 0.20007 0.0
C537 C 0.93647 0.04141 0.21353 0.0
C538 C 0.93927 0.99669 0.18426 0.0
C539 C 0.8883 0.99654 0.18237 0.0
C540 C 0.86163 0.0192 0.19595 0.0
C541 C 0.88615 0.04179 0.21083 0.0
C542 C 0.96921 0.97366 0.16938 0.0
C543 C 0.80719 0.01926 0.19519 0.0
H544 H 0.82256 0.9639 0.10485 0.0
H545 H 0.82731 0.89596 0.16545 0.0
H546 H 0.84625 0.03112 0.14041 0.0
H547 H 0.90405 0.01724 0.13096 0.0
H548 H 0.85403 0.01475 0.10905 0.0
H549 H 0.84546 0.91057 0.20744 0.0
H550 H 0.90042 0.93363 0.20623 0.0
H551 H 0.84538 0.95191 0.21533 0.0
H552 H 1.00162 0.01848 0.20168 0.0
H553 H 0.86572 0.0598 0.22027 0.0
H554 H 0.96085 0.97554 0.14879 0.0
H555 H 0.96014 0.94925 0.17529 0.0
H556 H 0.00854 0.97772 0.17213 0.0
H557 H 0.79395 0.01902 0.17528 0.0
H558 H 0.79204 0.04 0.2051 0.0
H559 H 0.79299 0.99762 0.2045 0.0
C560 C 0.80289 0.07287 0.65951 0.0
C561 C 0.82852 0.08126 0.63744 0.0
C562 C 0.8213 0.05075 0.67674 0.0
C563 C 0.86617 0.03655 0.67167 0.0
C564 C 0.89182 0.04456 0.64931 0.0
C565 C 0.87292 0.06691 0.63263 0.0
C566 C 0.79301 0.04277 0.70044 0.0
C567 C 0.93971 0.02985 0.64315 0.0
C568 C 0.94203 1.00136 0.72438 0.0
C569 C 0.93577 0.96919 0.7196 0.0
C570 C 0.91864 0.0237 0.70926 0.0
C571 C 0.887 0.01339 0.68964 0.0
C572 C 0.87883 0.98077 0.68571 0.0
C573 C 0.90423 0.95903 0.7004 0.0
C574 C 0.92928 0.05822 0.71362 0.0
C575 C 0.84417 0.96884 0.66561 0.0
H576 H 0.76839 0.08354 0.66333 0.0
H577 H 0.89373 0.07368 0.61603 0.0
H578 H 0.78605 0.01702 0.70141 0.0
H579 H 0.81435 0.04936 0.71755 0.0
H580 H 0.75798 0.05509 0.7012 0.0
H581 H 0.9549 0.03844 0.62484 0.0
H582 H 0.96607 0.03511 0.65854 0.0
H583 H 0.9355 1.00388 0.64202 0.0
H584 H 0.96661 0.009 0.73931 0.0
H585 H 0.89894 0.934 0.69713 0.0
H586 H 0.89524 0.07118 0.71635 0.0
H587 H 0.94739 0.0683 0.6966 0.0
H588 H 0.95288 0.06236 0.73043 0.0
H589 H 0.80886 0.98054 0.66757 0.0
H590 H 0.83826 0.94296 0.66676 0.0
H591 H 0.85843 0.97466 0.64645 0.0
C592 C 0.6333 0.4138 0.15048 0.0
C593 C 0.67837 0.41955 0.13943 0.0
C594 C 0.61328 0.43552 0.1674 0.0
C595 C 0.6391 0.46362 0.17322 0.0
C596 C 0.68548 0.46898 0.16263 0.0
C597 C 0.7046 0.4468 0.14573 0.0
C598 C 0.56375 0.42897 0.17824 0.0
C599 C 0.71422 0.49853 0.16859 0.0
C600 C 0.56779 0.53567 0.19127 0.0
C601 C 0.57113 0.53557 0.21792 0.0
C602 C 0.58908 0.51209 0.17661 0.0
C603 C 0.61597 0.4884 0.18878 0.0
C604 C 0.61986 0.48817 0.21562 0.0
C605 C 0.59619 0.51123 0.22991 0.0
C606 C 0.58265 0.51251 0.14806 0.0
C607 C 0.64925 0.46373 0.22922 0.0
H608 H 0.61335 0.39254 0.14545 0.0
H609 H 0.73954 0.45099 0.13703 0.0
H610 H 0.56464 0.43068 0.19929 0.0
H611 H 0.53822 0.44691 0.1713 0.0
H612 H 0.54963 0.40528 0.17284 0.0
H613 H 0.75121 0.49791 0.16052 0.0
H614 H 0.69554 0.51926 0.16068 0.0
H615 H 0.71687 0.50198 0.18948 0.0
H616 H 0.5481 0.55408 0.18174 0.0
H617 H 0.5979 0.51032 0.25049 0.0
H618 H 0.56678 0.48978 0.1415 0.0
H619 H 0.61822 0.51536 0.13866 0.0
H620 H 0.55895 0.53182 0.14167 0.0
H621 H 0.63274 0.44007 0.22632 0.0
H622 H 0.65192 0.46836 0.24999 0.0
H623 H 0.68623 0.46311 0.2212 0.0
C624 C 0.30257 0.44404 0.36266 0.0
C625 C 0.33223 0.42286 0.37544 0.0
C626 C 0.32258 0.46772 0.3471 0.0
C627 C 0.37329 0.46969 0.3439 0.0
C628 C 0.40317 0.44769 0.35628 0.0
C629 C 0.38228 0.42477 0.37215 0.0
C630 C 0.28963 0.49109 0.33461 0.0
C631 C 0.45725 0.44853 0.35292 0.0
C632 C 0.42467 0.51368 0.28694 0.0
C633 C 0.4405 0.54207 0.298 0.0
C634 C 0.40228 0.49007 0.30156 0.0
C635 C 0.39535 0.49499 0.32794 0.0
C636 C 0.41094 0.52369 0.33922 0.0
C637 C 0.43359 0.54682 0.32414 0.0
C638 C 0.38667 0.45971 0.28883 0.0
C639 C 0.40376 0.52996 0.36723 0.0
H640 H 0.26387 0.44264 0.36549 0.0
H641 H 0.40506 0.40828 0.38208 0.0
H642 H 0.29905 0.51525 0.34116 0.0
H643 H 0.29455 0.49063 0.31367 0.0
H644 H 0.25103 0.48628 0.33894 0.0
H645 H 0.47512 0.42891 0.36301 0.0
H646 H 0.46642 0.44716 0.33241 0.0
H647 H 0.47229 0.47111 0.36026 0.0
H648 H 0.43056 0.5096 0.26686 0.0
H649 H 0.44555 0.56874 0.33282 0.0
H650 H 0.34722 0.45607 0.29108 0.0
H651 H 0.4046 0.43954 0.29808 0.0
H652 H 0.39535 0.45942 0.2682 0.0
H653 H 0.36499 0.52743 0.37214 0.0
H654 H 0.41647 0.55388 0.3729 0.0
H655 H 0.42358 0.5124 0.37863 0.0
C656 C 0.19829 0.06045 0.87413 0.0
C657 C 0.17307 0.0882 0.87854 0.0
C658 C 0.17806 0.03621 0.85915 0.0
C659 C 0.13173 0.04009 0.84827 0.0
C660 C 0.10652 0.0684 0.85248 0.0
C661 C 0.12743 0.09207 0.86775 0.0
C662 C 0.20596 0.00636 0.8552 0.0
C663 C 0.05737 0.0736 0.84097 0.0
C664 C 0.09549 0.99083 0.79081 0.0
C665 C 0.06695 0.96695 0.80177 0.0
C666 C 0.11754 0.01435 0.80574 0.0
C667 C 0.10968 0.01467 0.83232 0.0
C668 C 0.08002 0.99109 0.84354 0.0
C669 C 0.05929 0.9674 0.82816 0.0
C670 C 0.14917 0.0389 0.79303 0.0
C671 C 0.07009 0.99093 0.87178 0.0
H672 H 0.23347 0.05755 0.88278 0.0
H673 H 0.10808 0.11361 0.8714 0.0
H674 H 0.1849 0.98593 0.86255 0.0
H675 H 0.21179 1.0023 0.83458 0.0
H676 H 0.24158 0.00711 0.86491 0.0
H677 H 0.04285 0.09707 0.84584 0.0
H678 H 0.05932 0.0715 0.81995 0.0
H679 H 0.03164 0.05523 0.84774 0.0
H680 H 0.10044 0.99142 0.77046 0.0
H681 H 0.03684 0.94933 0.83687 0.0
H682 H 0.18617 0.03813 0.80104 0.0
H683 H 0.13509 0.06274 0.79683 0.0
H684 H 0.15142 0.03544 0.77211 0.0
H685 H 0.10449 0.9892 0.88246 0.0
H686 H 0.04595 0.9711 0.87751 0.0
H687 H 0.05308 0.01332 0.87749 0.0
C688 C 0.21835 0.13088 0.98414 0.0
C689 C 0.18326 0.13448 0.96523 0.0
C690 C 0.20509 0.12438 0.00938 0.0
C691 C 0.15557 0.12202 0.01586 0.0
C692 C 0.1201 0.12815 0.99718 0.0
C693 C 0.13437 0.13385 0.97197 0.0
C694 C 0.24404 0.11798 0.02871 0.0
C695 C 0.06705 0.12737 1.00358 0.0
C696 C 0.12277 0.0646 0.06846 0.0
C697 C 0.12254 0.08398 0.09017 0.0
C698 C 0.13329 0.07677 0.04428 0.0
C699 C 0.14115 0.10952 0.04124 0.0
C700 C 0.1376 0.12965 0.06258 0.0
C701 C 0.12973 0.11662 0.08682 0.0
C702 C 0.13756 0.05433 0.02208 0.0
C703 C 0.14349 0.16489 0.06005 0.0
H704 H 0.25615 0.13129 0.97888 0.0
H705 H 0.10726 0.13706 0.95734 0.0
H706 H 0.23938 0.13314 0.04569 0.0
H707 H 0.24114 0.09316 0.03514 0.0
H708 H 0.28079 0.12218 0.02092 0.0
H709 H 0.04463 0.13675 0.98787 0.0
H710 H 0.0552 0.10281 0.00745 0.0
H711 H 0.06027 0.14132 0.02106 0.0
H712 H 0.11544 0.03963 0.07025 0.0
H713 H 0.13054 0.13222 0.10311 0.0
H714 H 0.17407 0.05653 0.01357 0.0
H715 H 0.11113 0.06034 0.00707 0.0
H716 H 0.13137 0.02942 0.02772 0.0
H717 H 0.18241 0.17115 0.05917 0.0
H718 H 0.1276 0.17744 0.07653 0.0
H719 H 0.1263 0.1735 0.04234 0.0
C720 C 0.32012 0.4146 0.4753 0.0
C721 C 0.31674 0.38424 0.46479 0.0
C722 C 0.33316 0.41934 0.5008 0.0
C723 C 0.34206 0.39307 0.51653 0.0
C724 C 0.33693 0.36228 0.50644 0.0
C725 C 0.32468 0.35822 0.48063 0.0
C726 C 0.33832 0.4526 0.51077 0.0
C727 C 0.34536 0.3337 0.52275 0.0
C728 C 0.42371 0.41312 0.57232 0.0
C729 C 0.3902 0.41813 0.59172 0.0
C730 C 0.40869 0.40288 0.54814 0.0
C731 C 0.35884 0.39829 0.54316 0.0
C732 C 0.32501 0.40216 0.56308 0.0
C733 C 0.34121 0.41183 0.58725 0.0
C734 C 0.44597 0.39852 0.52758 0.0
C735 C 0.27158 0.39779 0.55851 0.0
H736 H 0.31266 0.43487 0.46353 0.0
H737 H 0.32245 0.33467 0.47276 0.0
H738 H 0.31448 0.45592 0.52746 0.0
H739 H 0.37594 0.457 0.51723 0.0
H740 H 0.32927 0.47046 0.49618 0.0
H741 H 0.33708 0.31139 0.51248 0.0
H742 H 0.38354 0.3334 0.52906 0.0
H743 H 0.32272 0.33468 0.54012 0.0
H744 H 0.46163 0.41787 0.57596 0.0
H745 H 0.3154 0.41588 0.60235 0.0
H746 H 0.44206 0.41716 0.513 0.0
H747 H 0.44043 0.37553 0.51791 0.0
H748 H 0.48335 0.39968 0.53521 0.0
H749 H 0.25849 0.417 0.54613 0.0
H750 H 0.25064 0.39807 0.57651 0.0
H751 H 0.26414 0.37527 0.54845 0.0
C752 C 0.70905 0.37073 0.02988 0.0
C753 C 0.67878 0.37998 0.04983 0.0
C754 C 0.6941 0.37258 1.00443 0.0
C755 C 0.64812 0.38478 0.99856 0.0
C756 C 0.61788 0.39512 0.01844 0.0
C757 C 0.63321 0.39215 0.04382 0.0
C758 C 0.72738 0.36098 0.9838 0.0
C759 C 0.56905 0.40883 0.01294 0.0
C760 C 0.64098 0.40537 0.92859 0.0
C761 C 0.62298 0.37699 0.91859 0.0
C762 C 0.64511 0.40965 0.95506 0.0
C763 C 0.63135 0.3848 0.97161 0.0
C764 C 0.60854 0.35749 0.96151 0.0
C765 C 0.6047 0.35393 0.93507 0.0
C766 C 0.66843 0.43948 0.96511 0.0
C767 C 0.59306 0.33047 0.97837 0.0
H768 H 0.74474 0.36208 0.0341 0.0
H769 H 0.60901 0.39897 0.05895 0.0
H770 H 0.70936 0.34181 0.97283 0.0
H771 H 0.73577 0.38031 0.97029 0.0
H772 H 0.76182 0.35199 0.99155 0.0
H773 H 0.55243 0.41918 0.0302 0.0
H774 H 0.57211 0.42732 0.99812 0.0
H775 H 0.54448 0.39019 1.00544 0.0
H776 H 0.6555 0.42308 0.91577 0.0
H777 H 0.59106 0.33192 0.9272 0.0
H778 H 0.70648 0.43481 0.97025 0.0
H779 H 0.64989 0.44766 0.98256 0.0
H780 H 0.6681 0.45862 0.95075 0.0
H781 H 0.6255 0.3179 0.98507 0.0
H782 H 0.56928 0.31339 0.96815 0.0
H783 H 0.57378 0.3391 0.99542 0.0
C784 C 0.80408 0.14735 0.5311 0.0
C785 C 0.82475 0.12701 0.54907 0.0
C786 C 0.81743 0.14663 0.50536 0.0
C787 C 0.84973 0.12351 0.49664 0.0
C788 C 0.86905 0.10185 0.51413 0.0
C789 C 0.85789 0.10462 0.54013 0.0
C790 C 0.79729 0.17101 0.48751 0.0
C791 C 0.90211 0.07597 0.50558 0.0
C792 C 0.84067 0.11429 0.425 0.0
C793 C 0.87804 0.1344 0.417 0.0
C794 C 0.83336 0.10826 0.45103 0.0
C795 C 0.86389 0.12301 0.46928 0.0
C796 C 0.90419 0.1411 0.46101 0.0
C797 C 0.91063 0.14669 0.43492 0.0
C798 C 0.79095 0.08798 0.45905 0.0
C799 C 0.93795 0.15702 0.47972 0.0
H800 H 0.77725 0.1641 0.53686 0.0
H801 H 0.87601 0.08919 0.55323 0.0
H802 H 0.82718 0.18366 0.47768 0.0
H803 H 0.77481 0.15937 0.47267 0.0
H804 H 0.77494 0.1886 0.49755 0.0
H805 H 0.90473 0.05704 0.52005 0.0
H806 H 0.8894 0.06537 0.48741 0.0
H807 H 0.93882 0.08583 0.50235 0.0
H808 H 0.81531 0.105 0.41107 0.0
H809 H 0.93937 0.16238 0.42859 0.0
H810 H 0.76223 0.10309 0.46689 0.0
H811 H 0.80173 0.07145 0.47429 0.0
H812 H 0.7756 0.07428 0.44287 0.0
H813 H 0.91914 0.17686 0.48898 0.0
H814 H 0.97104 0.16638 0.47034 0.0
H815 H 0.94875 0.14048 0.49491 0.0
C816 C 0.79512 0.90666 0.03059 0.0
C817 C 0.81248 0.8814 0.04476 0.0
C818 C 0.81024 0.91169 1.00545 0.0
C819 C 0.84429 0.89126 0.99436 0.0
C820 C 0.86079 0.86504 0.00839 0.0
C821 C 0.84442 0.86032 0.03347 0.0
C822 C 0.7912 0.93968 0.99113 0.0
C823 C 0.89728 0.84283 0.99739 0.0
C824 C 0.85674 0.90205 0.92279 0.0
C825 C 0.89522 0.92391 0.92135 0.0
C826 C 0.84192 0.88931 0.94629 0.0
C827 C 0.86521 0.89924 0.96898 0.0
C828 C 0.90565 0.91984 0.96752 0.0
C829 C 0.92056 0.93146 0.94378 0.0
C830 C 0.79972 0.8665 0.94696 0.0
C831 C 0.93156 0.93116 0.99121 0.0
H832 H 0.77036 0.92288 0.03944 0.0
H833 H 0.85808 0.84093 0.04461 0.0
H834 H 0.82117 0.95654 0.98716 0.0
H835 H 0.77601 0.93205 0.97254 0.0
H836 H 0.76278 0.95214 1.00189 0.0
H837 H 0.90154 0.82146 0.00929 0.0
H838 H 0.88671 0.83555 0.97786 0.0
H839 H 0.93284 0.85501 0.99603 0.0
H840 H 0.83666 0.89585 0.90577 0.0
H841 H 0.95147 0.9473 0.94296 0.0
H842 H 0.7677 0.87847 0.95482 0.0
H843 H 0.80762 0.84633 0.95959 0.0
H844 H 0.79047 0.85735 0.92772 0.0
H845 H 0.90722 0.94631 1.00246 0.0
H846 H 0.96483 0.94493 0.98674 0.0
H847 H 0.94136 0.91096 1.00339 0.0
C848 C 0.72655 0.60698 0.52844 0.0
C849 C 0.70112 0.62758 0.54399 0.0
C850 C 0.71258 0.60196 0.50309 0.0
C851 C 0.6718 0.61766 0.49326 0.0
C852 C 0.64683 0.63925 0.50882 0.0
C853 C 0.66189 0.64396 0.5341 0.0
C854 C 0.74041 0.57893 0.4871 0.0
C855 C 0.60296 0.65621 0.49925 0.0
C856 C 0.66333 0.61206 0.42134 0.0
C857 C 0.63661 0.58403 0.41853 0.0
C858 C 0.67227 0.62485 0.44563 0.0
C859 C 0.65372 0.60926 0.46741 0.0
C860 C 0.62301 0.58262 0.46436 0.0
C861 C 0.61511 0.5702 0.43996 0.0
C862 C 0.70446 0.65362 0.44809 0.0
C863 C 0.60134 0.56579 0.48699 0.0
H864 H 0.75672 0.59428 0.53633 0.0
H865 H 0.6421 0.65967 0.54643 0.0
H866 H 0.71696 0.55839 0.48227 0.0
H867 H 0.75168 0.5901 0.46895 0.0
H868 H 0.77303 0.57029 0.49703 0.0
H869 H 0.59296 0.67599 0.51196 0.0
H870 H 0.60908 0.66551 0.4798 0.0
H871 H 0.57198 0.63944 0.49824 0.0
H872 H 0.67975 0.62287 0.40475 0.0
H873 H 0.59365 0.54884 0.43771 0.0
H874 H 0.74028 0.64654 0.45537 0.0
H875 H 0.68928 0.67052 0.46195 0.0
H876 H 0.70964 0.66575 0.42957 0.0
H877 H 0.63008 0.55316 0.49735 0.0
H878 H 0.57302 0.54842 0.48127 0.0
H879 H 0.58537 0.58286 0.50044 0.0
C880 C 0.28422 0.63169 0.9824 0.0
C881 C 0.31724 0.62465 0.96315 0.0
C882 C 0.29772 0.63047 0.00811 0.0
C883 C 0.34543 0.62211 0.0147 0.0
C884 C 0.37911 0.61533 0.99535 0.0
C885 C 0.3646 0.6167 0.9698 0.0
C886 C 0.2607 0.63771 0.02827 0.0
C887 C 0.43021 0.60626 1.00162 0.0
C888 C 0.38048 0.6453 0.08198 0.0
C889 C 0.36811 0.6178 0.09519 0.0
C890 C 0.37607 0.64657 0.05537 0.0
C891 C 0.35918 0.61963 0.04194 0.0
C892 C 0.35036 0.59114 0.05517 0.0
C893 C 0.35452 0.59067 0.08173 0.0
C894 C 0.38614 0.67729 0.04188 0.0
C895 C 0.33316 0.56174 0.04156 0.0
H896 H 0.24751 0.63756 0.97737 0.0
H897 H 0.39049 0.61167 0.95495 0.0
H898 H 0.25511 0.6169 0.0407 0.0
H899 H 0.2739 0.65732 0.04052 0.0
H900 H 0.22539 0.6443 0.01998 0.0
H901 H 0.45256 0.60314 0.9843 0.0
H902 H 0.44749 0.6245 0.01386 0.0
H903 H 0.43 0.58393 0.01252 0.0
H904 H 0.39066 0.66628 0.09258 0.0
H905 H 0.34499 0.56948 0.09214 0.0
H906 H 0.35162 0.68744 0.03536 0.0
H907 H 0.40868 0.67342 0.02477 0.0
H908 H 0.40468 0.69471 0.05443 0.0
H909 H 0.29516 0.5647 0.03547 0.0
H910 H 0.33506 0.54061 0.05392 0.0
H911 H 0.35489 0.55758 0.02421 0.0
C912 C 0.14145 0.8715 0.47233 0.0
C913 C 0.18912 0.87788 0.46504 0.0
C914 C 0.12801 0.87211 0.49808 0.0
C915 C 0.163 0.87996 0.51678 0.0
C916 C 0.21128 0.88646 0.50936 0.0
C917 C 0.22386 0.88505 0.48353 0.0
C918 C 0.07642 0.86466 0.50524 0.0
C919 C 0.24949 0.89538 0.52868 0.0
C920 C 0.13065 0.91468 0.58089 0.0
C921 C 0.13919 0.8893 0.5971 0.0
C922 C 0.13523 0.91143 0.55444 0.0
C923 C 0.14937 0.88216 0.54411 0.0
C924 C 0.15523 0.85595 0.56041 0.0
C925 C 0.1501 0.85987 0.58682 0.0
C926 C 0.12825 0.9399 0.53778 0.0
C927 C 0.16997 0.82434 0.55012 0.0
H928 H 0.11477 0.86596 0.45783 0.0
H929 H 0.26063 0.89013 0.47768 0.0
H930 H 0.07518 0.84581 0.51981 0.0
H931 H 0.05969 0.88576 0.51375 0.0
H932 H 0.05444 0.85702 0.48859 0.0
H933 H 0.28526 0.89978 0.51977 0.0
H934 H 0.23872 0.91693 0.53905 0.0
H935 H 0.2531 0.87635 0.54295 0.0
H936 H 0.12268 0.93748 0.58904 0.0
H937 H 0.15728 0.84041 0.59952 0.0
H938 H 0.10552 0.93383 0.52104 0.0
H939 H 0.16379 0.94818 0.53054 0.0
H940 H 0.11124 0.95955 0.54826 0.0
H941 H 0.14707 0.81751 0.53363 0.0
H942 H 0.16741 0.80557 0.56476 0.0
H943 H 0.20778 0.82582 0.54329 0.0
C944 C 0.12529 0.30157 0.35804 0.0
C945 C 0.17436 0.30151 0.36425 0.0
C946 C 0.1032 0.27542 0.34625 0.0
C947 C 0.13142 0.24915 0.33954 0.0
C948 C 0.18117 0.24905 0.34574 0.0
C949 C 0.20189 0.27505 0.35849 0.0
C950 C 0.04986 0.27616 0.34048 0.0
C951 C 0.21283 0.22204 0.33805 0.0
C952 C 0.07025 0.17101 0.32263 0.0
C953 C 0.06711 0.1731 0.29603 0.0
C954 C 0.09058 0.1957 0.33712 0.0
C955 C 0.10938 0.22274 0.32466 0.0
C956 C 0.10611 0.22497 0.29785 0.0
C957 C 0.084 0.2005 0.28402 0.0
C958 C 0.09154 0.193 0.36575 0.0
C959 C 0.12682 0.25292 0.28364 0.0
H960 H 0.10408 0.32207 0.36257 0.0
H961 H 0.24003 0.2752 0.36306 0.0
H962 H 0.04411 0.27662 0.3196 0.0
H963 H 0.03175 0.25457 0.34783 0.0
H964 H 0.03227 0.29702 0.34896 0.0
H965 H 0.25061 0.22527 0.34472 0.0
H966 H 0.19829 0.19961 0.34584 0.0
H967 H 0.21296 0.21972 0.317 0.0
H968 H 0.05668 0.15012 0.33219 0.0
H969 H 0.07997 0.20293 0.26371 0.0
H970 H 0.07265 0.21324 0.37438 0.0
H971 H 0.12931 0.19387 0.3727 0.0
H972 H 0.07417 0.17086 0.37255 0.0
H973 H 0.11447 0.27531 0.29211 0.0
H974 H 0.1167 0.25266 0.26319 0.0
H975 H 0.16675 0.25273 0.28511 0.0
C976 C 0.33808 0.23525 0.87664 0.0
C977 C 0.33359 0.20736 0.86245 0.0
C978 C 0.36127 0.26201 0.86637 0.0
C979 C 0.37958 0.26091 0.84123 0.0
C980 C 0.37544 0.23269 0.82698 0.0
C981 C 0.35288 0.20621 0.83786 0.0
C982 C 0.36552 0.29157 0.88222 0.0
C983 C 0.39387 0.23067 0.8 0.0
C984 C 0.3935 0.33569 0.8024 0.0
C985 C 0.44377 0.33869 0.80048 0.0
C986 C 0.37201 0.31085 0.81602 0.0
C987 C 0.40151 0.28944 0.82926 0.0
C988 C 0.45218 0.29407 0.82936 0.0
C989 C 0.47277 0.3183 0.81462 0.0
C990 C 0.31789 0.30656 0.81487 0.0
C991 C 0.48477 0.27281 0.84436 0.0
H992 H 0.32342 0.23625 0.89572 0.0
H993 H 0.34942 0.18466 0.82689 0.0
H994 H 0.40356 0.30003 0.88275 0.0
H995 H 0.34391 0.31048 0.87347 0.0
H996 H 0.35278 0.2879 0.90204 0.0
H997 H 0.38784 0.20698 0.7915 0.0
H998 H 0.37555 0.24831 0.78796 0.0
H999 H 0.43305 0.23625 0.79949 0.0
H1000 H 0.37069 0.35214 0.79265 0.0
H1001 H 0.51169 0.32097 0.81394 0.0
H1002 H 0.30287 0.30048 0.83379 0.0
H1003 H 0.30897 0.2868 0.80176 0.0
H1004 H 0.29976 0.32799 0.80782 0.0
H1005 H 0.47117 0.26999 0.86408 0.0
H1006 H 0.52246 0.28202 0.84515 0.0
H1007 H 0.48499 0.24912 0.83548 0.0
C1008 C 0.63888 0.21174 0.6506 0.0
C1009 C 0.68901 0.21134 0.64754 0.0
C1010 C 0.61625 0.23729 0.6623 0.0
C1011 C 0.64467 0.26261 0.67189 0.0
C1012 C 0.69542 0.26239 0.66872 0.0
C1013 C 0.71699 0.23689 0.65624 0.0
C1014 C 0.562 0.23691 0.66484 0.0
C1015 C 0.72701 0.28856 0.67925 0.0
C1016 C 0.58176 0.33915 0.68816 0.0
C1017 C 0.57439 0.3358 0.71441 0.0
C1018 C 0.6052 0.31574 0.67408 0.0
C1019 C 0.62138 0.2883 0.68654 0.0
C1020 C 0.61404 0.28486 0.71305 0.0
C1021 C 0.5906 0.30859 0.72662 0.0
C1022 C 0.61229 0.32024 0.64585 0.0
C1023 C 0.63056 0.25595 0.72708 0.0
H1024 H 0.6173 0.19198 0.64376 0.0
H1025 H 0.75584 0.23644 0.65408 0.0
H1026 H 0.55187 0.23583 0.68524 0.0
H1027 H 0.54694 0.25892 0.657 0.0
H1028 H 0.54493 0.21655 0.65485 0.0
H1029 H 0.76564 0.28547 0.67441 0.0
H1030 H 0.71515 0.31161 0.67181 0.0
H1031 H 0.72347 0.28942 0.70027 0.0
H1032 H 0.56946 0.36018 0.67864 0.0
H1033 H 0.58468 0.30566 0.74686 0.0
H1034 H 0.59347 0.30106 0.63527 0.0
H1035 H 0.65117 0.31891 0.64107 0.0
H1036 H 0.59846 0.34318 0.63911 0.0
H1037 H 0.61144 0.23479 0.71955 0.0
H1038 H 0.62379 0.25747 0.74787 0.0
H1039 H 0.6697 0.25252 0.72397 0.0
C1040 C 0.87168 0.30499 0.16287 0.0
C1041 C 0.83006 0.3006 0.1481 0.0
C1042 C 0.89303 0.27967 0.17548 0.0
C1043 C 0.87159 0.24932 0.17369 0.0
C1044 C 0.82965 0.24467 0.15863 0.0
C1045 C 0.80954 0.27039 0.14581 0.0
C1046 C 0.93833 0.28548 0.19089 0.0
C1047 C 0.80535 0.21275 0.1566 0.0
C1048 C 0.94848 0.17911 0.1906 0.0
C1049 C 0.93678 0.17433 0.21633 0.0
C1050 C 0.9275 0.20333 0.17648 0.0
C1051 C 0.89271 0.22268 0.18806 0.0
C1052 C 0.87983 0.21757 0.2138 0.0
C1053 C 0.90288 0.194 0.22779 0.0
C1054 C 0.94339 0.20864 0.14933 0.0
C1055 C 0.84207 0.23725 0.2267 0.0
H1056 H 0.88756 0.32837 0.16459 0.0
H1057 H 0.77713 0.26694 0.13454 0.0
H1058 H 0.93113 0.28064 0.21127 0.0
H1059 H 0.96703 0.26925 0.18469 0.0
H1060 H 0.95204 0.31006 0.18909 0.0
H1061 H 0.77368 0.21289 0.14364 0.0
H1062 H 0.83124 0.19509 0.14958 0.0
H1063 H 0.79323 0.20495 0.17572 0.0
H1064 H 0.97482 0.16428 0.18147 0.0
H1065 H 0.89434 0.19121 0.24774 0.0
H1066 H 0.95887 0.23273 0.14732 0.0
H1067 H 0.91196 0.20685 0.13631 0.0
H1068 H 0.97084 0.19146 0.14312 0.0
H1069 H 0.85566 0.26178 0.22887 0.0
H1070 H 0.83235 0.22804 0.24581 0.0
H1071 H 0.80893 0.23801 0.21486 0.0
C1072 C 0.84799 0.72311 0.64685 0.0
C1073 C 0.79778 0.72481 0.64942 0.0
C1074 C 0.87854 0.74501 0.65923 0.0
C1075 C 0.85813 0.76939 0.67396 0.0
C1076 C 0.80737 0.77179 0.67567 0.0
C1077 C 0.77787 0.74918 0.66369 0.0
C1078 C 0.9325 0.74145 0.65727 0.0
C1079 C 0.7842 0.79775 0.69079 0.0
C1080 C 0.92572 0.8068 0.72928 0.0
C1081 C 0.93789 0.83623 0.71926 0.0
C1082 C 0.9009 0.78439 0.71447 0.0
C1083 C 0.88929 0.79148 0.68885 0.0
C1084 C 0.90382 0.8208 0.67834 0.0
C1085 C 0.92751 0.84309 0.69386 0.0
C1086 C 0.88535 0.75371 0.72657 0.0
C1087 C 0.89302 0.82899 0.65101 0.0
H1088 H 0.86341 0.70407 0.63595 0.0
H1089 H 0.739 0.7505 0.66553 0.0
H1090 H 0.94965 0.7639 0.65109 0.0
H1091 H 0.9475 0.73575 0.67627 0.0
H1092 H 0.94265 0.72258 0.64373 0.0
H1093 H 0.74429 0.79749 0.68889 0.0
H1094 H 0.79353 0.79515 0.71117 0.0
H1095 H 0.79826 0.82105 0.68452 0.0
H1096 H 0.93442 0.8017 0.74894 0.0
H1097 H 0.93756 0.86597 0.68625 0.0
H1098 H 0.89643 0.73356 0.71459 0.0
H1099 H 0.84544 0.75277 0.72805 0.0
H1100 H 0.90074 0.75081 0.74594 0.0
H1101 H 0.90656 0.81037 0.63816 0.0
H1102 H 0.90957 0.85188 0.64535 0.0
H1103 H 0.85344 0.8302 0.64817 0.0
C1104 C 0.6668 0.77907 0.14174 0.0
C1105 C 0.71153 0.78767 0.15236 0.0
C1106 C 0.63769 0.75562 0.15315 0.0
C1107 C 0.65403 0.74043 0.17549 0.0
C1108 C 0.69944 0.74886 0.18597 0.0
C1109 C 0.72744 0.77246 0.17436 0.0
C1110 C 0.58934 0.74734 0.14152 0.0
C1111 C 0.71827 0.7332 0.20969 0.0
C1112 C 0.56723 0.70126 0.22189 0.0
C1113 C 0.57589 0.66943 0.21728 0.0
C1114 C 0.59147 0.72473 0.20793 0.0
C1115 C 0.62384 0.71599 0.18838 0.0
C1116 C 0.63086 0.6837 0.18296 0.0
C1117 C 0.60753 0.66076 0.19788 0.0
C1118 C 0.58406 0.7588 0.21486 0.0
C1119 C 0.66399 0.6734 0.16187 0.0
H1120 H 0.65423 0.79096 0.12481 0.0
H1121 H 0.76203 0.7791 0.18257 0.0
H1122 H 0.58699 0.72172 0.13754 0.0
H1123 H 0.56014 0.75286 0.15517 0.0
H1124 H 0.58272 0.76036 0.12357 0.0
H1125 H 0.75464 0.74214 0.21523 0.0
H1126 H 0.69311 0.73724 0.22572 0.0
H1127 H 0.72022 0.7074 0.20672 0.0
H1128 H 0.543 0.70778 0.23714 0.0
H1129 H 0.61378 0.636 0.19433 0.0
H1130 H 0.57435 0.77254 0.19773 0.0
H1131 H 0.6182 0.76901 0.22248 0.0
H1132 H 0.55541 0.7617 0.2294 0.0
H1133 H 0.65513 0.68586 0.14396 0.0
H1134 H 0.66155 0.64763 0.15838 0.0
H1135 H 0.70183 0.67966 0.16683 0.0
C1136 C 0.3208 0.7718 0.37213 0.0
C1137 C 0.29683 0.79233 0.35571 0.0
C1138 C 0.34923 0.74745 0.3624 0.0
C1139 C 0.3541 0.74394 0.33572 0.0
C1140 C 0.33032 0.76487 0.31915 0.0
C1141 C 0.30175 0.78868 0.32937 0.0
C1142 C 0.37379 0.72536 0.38058 0.0
C1143 C 0.33496 0.76211 0.29059 0.0
C1144 C 0.45962 0.70107 0.30656 0.0
C1145 C 0.43816 0.67227 0.29987 0.0
C1146 C 0.43323 0.72415 0.31932 0.0
C1147 C 0.38392 0.71842 0.3249 0.0
C1148 C 0.36228 0.6891 0.31838 0.0
C1149 C 0.38983 0.66629 0.30603 0.0
C1150 C 0.4576 0.75512 0.32584 0.0
C1151 C 0.3097 0.68219 0.32372 0.0
H1152 H 0.31692 0.77449 0.39253 0.0
H1153 H 0.2833 0.80464 0.3167 0.0
H1154 H 0.36128 0.70084 0.37697 0.0
H1155 H 0.41334 0.72608 0.37741 0.0
H1156 H 0.36655 0.73131 0.4008 0.0
H1157 H 0.31465 0.78057 0.28039 0.0
H1158 H 0.37346 0.76397 0.28501 0.0
H1159 H 0.3214 0.73871 0.28418 0.0
H1160 H 0.49635 0.70617 0.30085 0.0
H1161 H 0.37346 0.64385 0.30087 0.0
H1162 H 0.45141 0.76111 0.34612 0.0
H1163 H 0.4418 0.77416 0.31421 0.0
H1164 H 0.49709 0.75472 0.32232 0.0
H1165 H 0.30183 0.68607 0.34416 0.0
H1166 H 0.29908 0.65768 0.31858 0.0
H1167 H 0.28692 0.69856 0.3127 0.0
C1168 C 0.20645 0.72037 0.83007 0.0
C1169 C 0.20695 0.71336 0.85608 0.0
C1170 C 0.17754 0.74436 0.82044 0.0
C1171 C 0.14865 0.76194 0.8373 0.0
C1172 C 0.14883 0.75493 0.86364 0.0
C1173 C 0.17794 0.73057 0.87276 0.0
C1174 C 0.17813 0.75096 0.7922 0.0
C1175 C 0.11854 0.77329 0.88214 0.0
C1176 C 0.11195 0.84191 0.81256 0.0
C1177 C 0.06577 0.83527 0.80311 0.0
C1178 C 0.13882 0.81849 0.82457 0.0
C1179 C 0.1187 0.78782 0.82718 0.0
C1180 C 0.07137 0.78136 0.81821 0.0
C1181 C 0.04563 0.80516 0.80598 0.0
C1182 C 0.18933 0.82624 0.83359 0.0
C1183 C 0.04874 0.74897 0.82047 0.0
H1184 H 0.22878 0.70697 0.81718 0.0
H1185 H 0.17823 0.72524 0.89291 0.0
H1186 H 0.14111 0.74868 0.78431 0.0
H1187 H 0.19068 0.77548 0.78872 0.0
H1188 H 0.20197 0.73472 0.78164 0.0
H1189 H 0.12221 0.76466 0.90198 0.0
H1190 H 0.12927 0.79853 0.88161 0.0
H1191 H 0.07998 0.77172 0.87654 0.0
H1192 H 0.12742 0.86527 0.81002 0.0
H1193 H 0.01062 0.79984 0.79778 0.0
H1194 H 0.21569 0.81247 0.82247 0.0
H1195 H 0.19355 0.81954 0.85386 0.0
H1196 H 0.19848 0.85164 0.83151 0.0
H1197 H 0.06826 0.7323 0.80805 0.0
H1198 H 0.01007 0.74868 0.81487 0.0
H1199 H 0.05175 0.74024 0.84028 0.0
loop_
_geom_bond_atom_site_label_1
_geom_bond_atom_site_label_2
_geom_bond_distance
_geom_bond_site_symmetry_2
_ccdc_geom_bond_type
H0 C5 0.930 . S
H1 C8 0.930 . S
H2 C10 0.930 . S
H3 C4 1.016 . S
C4 H3 1.016 . S
C4 N11 1.286 . S
C5 H0 0.930 . S
C5 C6 1.397 . S
C5 C7 1.361 . S
C6 C5 1.397 . S
C6 C10 1.390 . S
C7 C5 1.361 . S
C7 C8 1.393 . S
C7 N11 1.413 . S
C8 H1 0.930 . S
C8 C7 1.393 . S
C8 C9 1.399 . S
C9 C8 1.399 . S
C9 C10 1.381 . S
C10 H2 0.930 . S
C10 C6 1.390 . S
C10 C9 1.381 . S
N11 C4 1.286 . S
N11 C7 1.413 . S
H12 C17 0.930 . S
H13 C20 0.930 . S
H14 C22 0.930 . S
H15 C16 1.016 . S
C16 H15 1.016 . S
C16 N23 1.286 . S
C17 H12 0.930 . S
C17 C18 1.397 . S
C17 C19 1.361 . S
C18 C17 1.397 . S
C18 C22 1.390 . S
C19 C17 1.361 . S
C19 C20 1.393 . S
C19 N23 1.413 . S
C20 H13 0.930 . S
C20 C19 1.393 . S
C20 C21 1.399 . S
C21 C20 1.399 . S
C21 C22 1.381 . S
C22 H14 0.930 . S
C22 C18 1.390 . S
C22 C21 1.381 . S
N23 C16 1.286 . S
N23 C19 1.413 . S
H24 C29 0.930 . S
H25 C32 0.930 . S
H26 C34 0.930 . S
H27 C28 1.016 . S
C28 H27 1.016 . S
C28 N35 1.286 . S
C29 H24 0.930 . S
C29 C30 1.397 . S
C29 C31 1.361 . S
C30 C29 1.397 . S
C30 C34 1.390 . S
C31 C29 1.361 . S
C31 C32 1.393 . S
C31 N35 1.413 . S
C32 H25 0.930 . S
C32 C31 1.393 . S
C32 C33 1.399 . S
C33 C32 1.399 . S
C33 C34 1.381 . S
C34 H26 0.930 . S
C34 C30 1.390 . S
C34 C33 1.381 . S
N35 C28 1.286 . S
N35 C31 1.413 . S
H36 C41 0.930 . S
H37 C44 0.930 . S
H38 C46 0.930 . S
H39 C40 1.016 . S
C40 H39 1.016 . S
C40 N47 1.286 . S
C41 H36 0.930 . S
C41 C42 1.397 . S
C41 C43 1.361 . S
C42 C41 1.397 . S
C42 C46 1.390 . S
C43 C41 1.361 . S
C43 C44 1.393 . S
C43 N47 1.413 . S
C44 H37 0.930 . S
C44 C43 1.393 . S
C44 C45 1.399 . S
C45 C44 1.399 . S
C45 C46 1.381 . S
C46 H38 0.930 . S
C46 C42 1.390 . S
C46 C45 1.381 . S
N47 C40 1.286 . S
N47 C43 1.413 . S
H48 C53 0.930 . S
H49 C56 0.930 . S
H50 C58 0.930 . S
H51 C52 1.016 . S
C52 H51 1.016 . S
C52 N59 1.286 . S
C53 H48 0.930 . S
C53 C54 1.397 . S
C53 C55 1.361 . S
C54 C53 1.397 . S
C54 C58 1.390 . S
C55 C53 1.361 . S
C55 C56 1.393 . S
C55 N59 1.413 . S
C56 H49 0.930 . S
C56 C55 1.393 . S
C56 C57 1.399 . S
C57 C56 1.399 . S
C57 C58 1.381 . S
C58 H50 0.930 . S
C58 C54 1.390 . S
C58 C57 1.381 . S
N59 C52 1.286 . S
N59 C55 1.413 . S
H60 C65 0.930 . S
H61 C68 0.930 . S
H62 C70 0.930 . S
H63 C64 1.016 . S
C64 H63 1.016 . S
C64 N71 1.286 . S
C65 H60 0.930 . S
C65 C66 1.397 . S
C65 C67 1.361 . S
C66 C65 1.397 . S
C66 C70 1.390 . S
C67 C65 1.361 . S
C67 C68 1.393 . S
C67 N71 1.413 . S
C68 H61 0.930 . S
C68 C67 1.393 . S
C68 C69 1.399 . S
C69 C68 1.399 . S
C69 C70 1.381 . S
C70 H62 0.930 . S
C70 C66 1.390 . S
C70 C69 1.381 . S
N71 C64 1.286 . S
N71 C67 1.413 . S
H72 C77 0.930 . S
H73 C80 0.930 . S
H74 C82 0.930 . S
H75 C76 1.016 . S
C76 H75 1.016 . S
C76 N83 1.286 . S
C77 H72 0.930 . S
C77 C78 1.397 . S
C77 C79 1.361 . S
C78 C77 1.397 . S
C78 C82 1.390 . S
C79 C77 1.361 . S
C79 C80 1.393 . S
C79 N83 1.413 . S
C80 H73 0.930 . S
C80 C79 1.393 . S
C80 C81 1.399 . S
C81 C80 1.399 . S
C81 C82 1.381 . S
C82 H74 0.930 . S
C82 C78 1.390 . S
C82 C81 1.381 . S
N83 C76 1.286 . S
N83 C79 1.413 . S
H84 C89 0.930 . S
H85 C92 0.930 . S
H86 C94 0.930 . S
H87 C88 1.016 . S
C88 H87 1.016 . S
C88 N95 1.286 . S
C89 H84 0.930 . S
C89 C90 1.397 . S
C89 C91 1.361 . S
C90 C89 1.397 . S
C90 C94 1.390 . S
C91 C89 1.361 . S
C91 C92 1.393 . S
C91 N95 1.413 . S
C92 H85 0.930 . S
C92 C91 1.393 . S
C92 C93 1.399 . S
C93 C92 1.399 . S
C93 C94 1.381 . S
C94 H86 0.930 . S
C94 C90 1.390 . S
C94 C93 1.381 . S
N95 C88 1.286 . S
N95 C91 1.413 . S
Eu96 N125 2.600 . S
Eu96 N131 2.562 . S
Eu96 O140 2.462 . S
Eu96 O141 2.373 . S
Eu96 O143 2.432 . S
Eu96 O144 2.290 . S
Eu96 O148 2.347 . S
Eu96 O151 2.372 . S
Eu96 C160 2.787 . S
C97 N98 1.365 . S
C97 C100 1.405 . S
C97 C104 1.448 . S
N98 C97 1.365 . S
N98 C101 1.319 . S
N98 Eu107 2.600 . S
C99 C101 1.397 . S
C99 C102 1.367 . S
C99 H119 0.931 . S
C100 C97 1.405 . S
C100 C102 1.403 . S
C100 C106 1.439 . S
C101 N98 1.319 . S
C101 C99 1.397 . S
C101 H112 0.930 . S
C102 C99 1.367 . S
C102 C100 1.403 . S
C102 H123 0.929 . S
C103 C104 1.430 . S
C103 C105 1.387 . S
C103 C109 1.404 1_545 S
C104 C97 1.448 . S
C104 C103 1.430 . S
C104 N108 1.351 . S
C105 C103 1.387 . S
C105 C106 1.374 . S
C105 H120 0.945 . S
C106 C100 1.439 . S
C106 C105 1.374 . S
C106 H121 0.931 . S
Eu107 N98 2.600 . S
Eu107 N108 2.562 . S
Eu107 O142 2.335 1_655 S
Eu107 O145 2.372 . S
Eu107 O146 2.462 . S
Eu107 O147 2.373 . S
Eu107 O149 2.432 . S
Eu107 O150 2.291 1_655 S
Eu107 C171 2.787 . S
N108 C104 1.351 . S
N108 Eu107 2.562 . S
N108 C110 1.325 . S
C109 C103 1.404 1_565 S
C109 C111 1.366 . S
C109 H117 0.930 . S
C110 N108 1.325 . S
C110 C111 1.416 1_545 S
C110 H116 0.929 . S
C111 C109 1.366 . S
C111 C110 1.416 1_565 S
C111 H113 0.930 . S
H112 C101 0.930 . S
H113 C111 0.930 . S
H114 C129 0.930 . S
H115 C136 0.930 . S
H116 C110 0.929 . S
H117 C109 0.930 . S
H118 C132 0.929 . S
H119 C99 0.931 . S
H120 C105 0.945 . S
H121 C106 0.931 . S
H122 C127 0.931 . S
H123 C102 0.929 . S
H124 C135 0.930 . S
N125 Eu96 2.600 . S
N125 C126 1.365 . S
N125 C129 1.319 . S
C126 N125 1.365 . S
C126 C128 1.405 . S
C126 C134 1.448 . S
C127 H122 0.931 . S
C127 C129 1.397 . S
C127 C130 1.367 . S
C128 C126 1.405 . S
C128 C130 1.403 . S
C128 C161 1.439 . S
C129 H114 0.930 . S
C129 N125 1.319 . S
C129 C127 1.397 . S
C130 C127 1.367 . S
C130 C128 1.403 . S
C130 H137 0.929 . S
N131 Eu96 2.562 . S
N131 C132 1.325 . S
N131 C134 1.351 . S
C132 H118 0.929 . S
C132 N131 1.325 . S
C132 C136 1.416 . S
C133 C134 1.430 . S
C133 C135 1.404 . S
C133 C162 1.387 . S
C134 C126 1.448 . S
C134 N131 1.351 . S
C134 C133 1.430 . S
C135 H124 0.930 . S
C135 C133 1.404 . S
C135 C136 1.366 . S
C136 H115 0.930 . S
C136 C132 1.416 . S
C136 C135 1.366 . S
H137 C130 0.929 . S
H138 C161 0.931 . S
H139 C162 0.931 . S
O140 Eu96 2.462 . S
O140 C160 1.252 . S
O141 Eu96 2.373 . S
O141 C152 1.249 . S
O142 Eu107 2.335 1_455 S
O142 C152 1.264 . S
O143 Eu96 2.432 . S
O143 C160 1.268 . S
O144 Eu96 2.290 . S
O144 C159 1.257 1_455 S
O145 Eu107 2.372 . S
O145 C159 1.257 . S
O146 Eu107 2.462 . S
O146 C171 1.252 . S
O147 Eu107 2.373 . S
O147 C163 1.249 . S
O148 Eu96 2.347 . S
O148 C163 1.249 1_455 S
O149 Eu107 2.432 . S
O149 C171 1.268 . S
O150 Eu107 2.291 1_455 S
O150 C170 1.255 . S
O151 Eu96 2.372 . S
O151 C170 1.257 . S
C152 O141 1.249 . S
C152 O142 1.264 . S
C153 C156 1.382 . S
C153 C158 1.390 . S
C153 C160 1.506 . S
C154 C155 1.398 . S
C154 C158 1.392 . S
C155 C154 1.398 . S
C155 C157 1.372 . S
C155 H172 0.931 . S
C156 C153 1.382 . S
C156 C157 1.390 . S
C156 H173 0.931 . S
C157 C155 1.372 . S
C157 C156 1.390 . S
C157 H174 0.929 . S
C158 C153 1.390 . S
C158 C154 1.392 . S
C158 H175 0.930 . S
C159 O144 1.257 1_655 S
C159 O145 1.257 . S
C160 Eu96 2.787 . S
C160 O140 1.252 . S
C160 O143 1.268 . S
C160 C153 1.506 . S
C161 C128 1.439 . S
C161 H138 0.931 . S
C161 C162 1.374 . S
C162 C133 1.387 . S
C162 H139 0.931 . S
C162 C161 1.374 . S
C163 O147 1.249 . S
C163 O148 1.249 1_655 S
C164 C167 1.382 . S
C164 C168 1.390 . S
C164 C171 1.506 . S
C165 C166 1.398 . S
C165 C168 1.392 . S
C166 C165 1.398 . S
C166 C169 1.372 . S
C166 H176 0.931 . S
C167 C164 1.382 . S
C167 C169 1.390 . S
C167 H177 0.931 . S
C168 C164 1.390 . S
C168 C165 1.392 . S
C168 H178 0.930 . S
C169 C166 1.372 . S
C169 C167 1.390 . S
C169 H179 0.929 . S
C170 O150 1.255 . S
C170 O151 1.257 . S
C171 Eu107 2.787 . S
C171 O146 1.252 . S
C171 O149 1.268 . S
C171 C164 1.506 . S
H172 C155 0.931 . S
H173 C156 0.931 . S
H174 C157 0.929 . S
H175 C158 0.930 . S
H176 C166 0.931 . S
H177 C167 0.931 . S
H178 C168 0.930 . S
H179 C169 0.929 . S
Eu180 N209 2.600 . S
Eu180 N215 2.562 . S
Eu180 O224 2.462 . S
Eu180 O225 2.373 . S
Eu180 O227 2.432 . S
Eu180 O228 2.291 . S
Eu180 O232 2.335 . S
Eu180 O235 2.372 . S
Eu180 C244 2.787 . S
C181 N182 1.365 . S
C181 C184 1.405 . S
C181 C188 1.448 . S
N182 C181 1.365 . S
N182 C185 1.319 . S
N182 Eu191 2.600 . S
C183 C185 1.397 . S
C183 C186 1.367 . S
C183 H203 0.931 . S
C184 C181 1.405 . S
C184 C186 1.403 . S
C184 C190 1.439 . S
C185 N182 1.319 . S
C185 C183 1.397 . S
C185 H196 0.930 . S
C186 C183 1.367 . S
C186 C184 1.403 . S
C186 H207 0.929 . S
C187 C188 1.430 . S
C187 C189 1.387 . S
C187 C193 1.404 . S
C188 C181 1.448 . S
C188 C187 1.430 . S
C188 N192 1.351 . S
C189 C187 1.387 . S
C189 C190 1.374 . S
C189 H204 0.931 . S
C190 C184 1.439 . S
C190 C189 1.374 . S
C190 H205 0.931 . S
Eu191 N182 2.600 . S
Eu191 N192 2.562 . S
Eu191 O226 2.335 . S
Eu191 O229 2.372 . S
Eu191 O230 2.462 . S
Eu191 O231 2.373 . S
Eu191 O233 2.432 . S
Eu191 O234 2.291 . S
Eu191 C255 2.787 . S
N192 C188 1.351 . S
N192 Eu191 2.562 . S
N192 C194 1.325 . S
C193 C187 1.404 . S
C193 C195 1.366 . S
C193 H201 0.930 . S
C194 N192 1.325 . S
C194 C195 1.416 . S
C194 H200 0.929 . S
C195 C193 1.366 . S
C195 C194 1.416 . S
C195 H197 0.930 . S
H196 C185 0.930 . S
H197 C195 0.930 . S
H198 C213 0.930 . S
H199 C220 0.930 . S
H200 C194 0.929 . S
H201 C193 0.930 . S
H202 C216 0.929 . S
H203 C183 0.931 . S
H204 C189 0.931 . S
H205 C190 0.931 . S
H206 C211 0.931 . S
H207 C186 0.929 . S
H208 C219 0.930 . S
N209 Eu180 2.600 . S
N209 C210 1.365 . S
N209 C213 1.319 . S
C210 N209 1.365 . S
C210 C212 1.405 . S
C210 C218 1.448 . S
C211 H206 0.931 . S
C211 C213 1.397 . S
C211 C214 1.367 . S
C212 C210 1.405 . S
C212 C214 1.403 . S
C212 C245 1.439 . S
C213 H198 0.930 . S
C213 N209 1.319 . S
C213 C211 1.397 . S
C214 C211 1.367 . S
C214 C212 1.403 . S
C214 H221 0.929 . S
N215 Eu180 2.562 . S
N215 C216 1.325 . S
N215 C218 1.351 . S
C216 H202 0.929 . S
C216 N215 1.325 . S
C216 C220 1.416 . S
C217 C218 1.430 . S
C217 C219 1.404 . S
C217 C246 1.387 . S
C218 C210 1.448 . S
C218 N215 1.351 . S
C218 C217 1.430 . S
C219 H208 0.930 . S
C219 C217 1.404 . S
C219 C220 1.366 . S
C220 H199 0.930 . S
C220 C216 1.416 . S
C220 C219 1.366 . S
H221 C214 0.929 . S
H222 C245 0.931 . S
H223 C246 0.931 . S
O224 Eu180 2.462 . S
O224 C244 1.252 . S
O225 Eu180 2.373 . S
O225 C236 1.249 . S
O226 Eu191 2.335 . S
O226 C236 1.264 . S
O227 Eu180 2.432 . S
O227 C244 1.268 . S
O228 Eu180 2.291 . S
O228 C243 1.255 . S
O229 Eu191 2.372 . S
O229 C243 1.257 . S
O230 Eu191 2.462 . S
O230 C255 1.252 . S
O231 Eu191 2.373 . S
O231 C247 1.249 . S
O232 Eu180 2.335 . S
O232 C247 1.264 . S
O233 Eu191 2.432 . S
O233 C255 1.268 . S
O234 Eu191 2.291 . S
O234 C254 1.255 . S
O235 Eu180 2.372 . S
O235 C254 1.257 . S
C236 O225 1.249 . S
C236 O226 1.264 . S
C237 C240 1.382 . S
C237 C242 1.390 . S
C237 C244 1.506 . S
C238 C239 1.398 . S
C238 C242 1.392 . S
C239 C238 1.398 . S
C239 C241 1.372 . S
C239 H256 0.931 . S
C240 C237 1.382 . S
C240 C241 1.390 . S
C240 H257 0.931 . S
C241 C239 1.372 . S
C241 C240 1.390 . S
C241 H258 0.929 . S
C242 C237 1.390 . S
C242 C238 1.392 . S
C242 H259 0.930 . S
C243 O228 1.255 . S
C243 O229 1.257 . S
C244 Eu180 2.787 . S
C244 O224 1.252 . S
C244 O227 1.268 . S
C244 C237 1.506 . S
C245 C212 1.439 . S
C245 H222 0.931 . S
C245 C246 1.374 . S
C246 C217 1.387 . S
C246 H223 0.931 . S
C246 C245 1.374 . S
C247 O231 1.249 . S
C247 O232 1.264 . S
C248 C251 1.382 . S
C248 C252 1.390 . S
C248 C255 1.506 . S
C249 C250 1.398 . S
C249 C252 1.392 . S
C250 C249 1.398 . S
C250 C253 1.372 . S
C250 H260 0.931 . S
C251 C248 1.382 . S
C251 C253 1.390 . S
C251 H261 0.931 . S
C252 C248 1.390 . S
C252 C249 1.392 . S
C252 H262 0.930 . S
C253 C250 1.372 . S
C253 C251 1.390 . S
C253 H263 0.929 . S
C254 O234 1.255 . S
C254 O235 1.257 . S
C255 Eu191 2.787 . S
C255 O230 1.252 . S
C255 O233 1.268 . S
C255 C248 1.506 . S
H256 C239 0.931 . S
H257 C240 0.931 . S
H258 C241 0.929 . S
H259 C242 0.930 . S
H260 C250 0.931 . S
H261 C251 0.931 . S
H262 C252 0.930 . S
H263 C253 0.929 . S
Eu264 N293 2.600 . S
Eu264 N299 2.562 . S
Eu264 O308 2.462 . S
Eu264 O309 2.373 . S
Eu264 O311 2.432 . S
Eu264 O312 2.291 . S
Eu264 O316 2.335 . S
Eu264 O319 2.372 . S
Eu264 C328 2.787 . S
C265 N266 1.365 . S
C265 C268 1.405 . S
C265 C272 1.448 . S
N266 C265 1.365 . S
N266 C269 1.319 . S
N266 Eu275 2.600 . S
C267 C269 1.397 . S
C267 C270 1.367 . S
C267 H287 0.931 . S
C268 C265 1.405 . S
C268 C270 1.403 . S
C268 C274 1.439 . S
C269 N266 1.319 . S
C269 C267 1.397 . S
C269 H280 0.930 . S
C270 C267 1.367 . S
C270 C268 1.403 . S
C270 H291 0.929 . S
C271 C272 1.430 . S
C271 C273 1.387 . S
C271 C277 1.404 . S
C272 C265 1.448 . S
C272 C271 1.430 . S
C272 N276 1.351 . S
C273 C271 1.387 . S
C273 C274 1.374 . S
C273 H288 0.931 . S
C274 C268 1.439 . S
C274 C273 1.374 . S
C274 H289 0.931 . S
Eu275 N266 2.600 . S
Eu275 N276 2.562 . S
Eu275 O310 2.335 1_655 S
Eu275 O313 2.372 . S
Eu275 O314 2.462 . S
Eu275 O315 2.373 . S
Eu275 O317 2.432 . S
Eu275 O318 2.291 1_655 S
Eu275 C339 2.787 . S
N276 C272 1.351 . S
N276 Eu275 2.562 . S
N276 C278 1.325 . S
C277 C271 1.404 . S
C277 C279 1.366 . S
C277 H285 0.930 . S
C278 N276 1.325 . S
C278 C279 1.416 . S
C278 H284 0.929 . S
C279 C277 1.366 . S
C279 C278 1.416 . S
C279 H281 0.930 . S
H280 C269 0.930 . S
H281 C279 0.930 . S
H282 C297 0.930 . S
H283 C304 0.930 . S
H284 C278 0.929 . S
H285 C277 0.930 . S
H286 C300 0.929 . S
H287 C267 0.931 . S
H288 C273 0.931 . S
H289 C274 0.931 . S
H290 C295 0.931 . S
H291 C270 0.929 . S
H292 C303 0.930 . S
N293 Eu264 2.600 . S
N293 C294 1.365 . S
N293 C297 1.319 . S
C294 N293 1.365 . S
C294 C296 1.405 . S
C294 C302 1.448 . S
C295 H290 0.931 . S
C295 C297 1.397 . S
C295 C298 1.367 . S
C296 C294 1.405 . S
C296 C298 1.403 . S
C296 C329 1.439 . S
C297 H282 0.930 . S
C297 N293 1.319 . S
C297 C295 1.397 . S
C298 C295 1.367 . S
C298 C296 1.403 . S
C298 H305 0.929 . S
N299 Eu264 2.562 . S
N299 C300 1.325 . S
N299 C302 1.351 . S
C300 H286 0.929 . S
C300 N299 1.325 . S
C300 C304 1.416 1_565 S
C301 C302 1.430 . S
C301 C303 1.404 1_565 S
C301 C330 1.387 . S
C302 C294 1.448 . S
C302 N299 1.351 . S
C302 C301 1.430 . S
C303 H292 0.930 . S
C303 C301 1.404 1_545 S
C303 C304 1.366 . S
C304 H283 0.930 . S
C304 C300 1.416 1_545 S
C304 C303 1.366 . S
H305 C298 0.929 . S
H306 C329 0.931 . S
H307 C330 0.945 . S
O308 Eu264 2.462 . S
O308 C328 1.252 . S
O309 Eu264 2.373 . S
O309 C320 1.249 . S
O310 Eu275 2.335 1_455 S
O310 C320 1.264 . S
O311 Eu264 2.432 . S
O311 C328 1.268 . S
O312 Eu264 2.291 . S
O312 C327 1.255 1_455 S
O313 Eu275 2.372 . S
O313 C327 1.257 . S
O314 Eu275 2.462 . S
O314 C339 1.252 . S
O315 Eu275 2.373 . S
O315 C331 1.249 . S
O316 Eu264 2.335 . S
O316 C331 1.264 1_455 S
O317 Eu275 2.432 . S
O317 C339 1.268 . S
O318 Eu275 2.291 1_455 S
O318 C338 1.255 . S
O319 Eu264 2.372 . S
O319 C338 1.257 . S
C320 O309 1.249 . S
C320 O310 1.264 . S
C321 C324 1.382 . S
C321 C326 1.390 . S
C321 C328 1.506 . S
C322 C323 1.398 . S
C322 C326 1.392 . S
C323 C322 1.398 . S
C323 C325 1.372 . S
C323 H340 0.931 . S
C324 C321 1.382 . S
C324 C325 1.390 . S
C324 H341 0.931 . S
C325 C323 1.372 . S
C325 C324 1.390 . S
C325 H342 0.929 . S
C326 C321 1.390 . S
C326 C322 1.392 . S
C326 H343 0.930 . S
C327 O312 1.255 1_655 S
C327 O313 1.257 . S
C328 Eu264 2.787 . S
C328 O308 1.252 . S
C328 O311 1.268 . S
C328 C321 1.506 . S
C329 C296 1.439 . S
C329 H306 0.931 . S
C329 C330 1.374 . S
C330 C301 1.387 . S
C330 H307 0.945 . S
C330 C329 1.374 . S
C331 O315 1.249 . S
C331 O316 1.264 1_655 S
C332 C335 1.382 . S
C332 C336 1.390 . S
C332 C339 1.506 . S
C333 C334 1.398 . S
C333 C336 1.392 . S
C334 C333 1.398 . S
C334 C337 1.372 . S
C334 H344 0.931 . S
C335 C332 1.382 . S
C335 C337 1.390 . S
C335 H345 0.931 . S
C336 C332 1.390 . S
C336 C333 1.392 . S
C336 H346 0.930 . S
C337 C334 1.372 . S
C337 C335 1.390 . S
C337 H347 0.929 . S
C338 O318 1.255 . S
C338 O319 1.257 . S
C339 Eu275 2.787 . S
C339 O314 1.252 . S
C339 O317 1.268 . S
C339 C332 1.506 . S
H340 C323 0.931 . S
H341 C324 0.931 . S
H342 C325 0.929 . S
H343 C326 0.930 . S
H344 C334 0.931 . S
H345 C335 0.931 . S
H346 C336 0.930 . S
H347 C337 0.929 . S
Eu348 N377 2.600 . S
Eu348 N383 2.562 . S
Eu348 O392 2.462 . S
Eu348 O393 2.373 . S
Eu348 O395 2.432 . S
Eu348 O396 2.291 . S
Eu348 O400 2.335 . S
Eu348 O403 2.372 . S
Eu348 C412 2.787 . S
C349 N350 1.365 . S
C349 C352 1.405 . S
C349 C356 1.448 . S
N350 C349 1.365 . S
N350 C353 1.319 . S
N350 Eu359 2.600 . S
C351 C353 1.397 . S
C351 C354 1.367 . S
C351 H371 0.931 . S
C352 C349 1.405 . S
C352 C354 1.403 . S
C352 C358 1.439 . S
C353 N350 1.319 . S
C353 C351 1.397 . S
C353 H364 0.930 . S
C354 C351 1.367 . S
C354 C352 1.403 . S
C354 H375 0.929 . S
C355 C356 1.430 . S
C355 C357 1.387 . S
C355 C361 1.404 . S
C356 C349 1.448 . S
C356 C355 1.430 . S
C356 N360 1.351 . S
C357 C355 1.387 . S
C357 C358 1.374 . S
C357 H372 0.931 . S
C358 C352 1.439 . S
C358 C357 1.374 . S
C358 H373 0.931 . S
Eu359 N350 2.600 . S
Eu359 N360 2.562 . S
Eu359 O394 2.335 . S
Eu359 O397 2.372 . S
Eu359 O398 2.462 . S
Eu359 O399 2.373 . S
Eu359 O401 2.432 . S
Eu359 O402 2.291 . S
Eu359 C423 2.787 . S
N360 C356 1.351 . S
N360 Eu359 2.562 . S
N360 C362 1.325 . S
C361 C355 1.404 . S
C361 C363 1.366 . S
C361 H369 0.930 . S
C362 N360 1.325 . S
C362 C363 1.416 . S
C362 H368 0.929 . S
C363 C361 1.366 . S
C363 C362 1.416 . S
C363 H365 0.930 . S
H364 C353 0.930 . S
H365 C363 0.930 . S
H366 C381 0.930 . S
H367 C388 0.930 . S
H368 C362 0.929 . S
H369 C361 0.930 . S
H370 C384 0.929 . S
H371 C351 0.931 . S
H372 C357 0.931 . S
H373 C358 0.931 . S
H374 C379 0.931 . S
H375 C354 0.929 . S
H376 C387 0.930 . S
N377 Eu348 2.600 . S
N377 C378 1.365 . S
N377 C381 1.319 . S
C378 N377 1.365 . S
C378 C380 1.405 . S
C378 C386 1.448 . S
C379 H374 0.931 . S
C379 C381 1.397 . S
C379 C382 1.367 . S
C380 C378 1.405 . S
C380 C382 1.403 . S
C380 C413 1.439 . S
C381 H366 0.930 . S
C381 N377 1.319 . S
C381 C379 1.397 . S
C382 C379 1.367 . S
C382 C380 1.403 . S
C382 H389 0.929 . S
N383 Eu348 2.562 . S
N383 C384 1.325 . S
N383 C386 1.351 . S
C384 H370 0.929 . S
C384 N383 1.325 . S
C384 C388 1.416 . S
C385 C386 1.430 . S
C385 C387 1.404 . S
C385 C414 1.387 . S
C386 C378 1.448 . S
C386 N383 1.351 . S
C386 C385 1.430 . S
C387 H376 0.930 . S
C387 C385 1.404 . S
C387 C388 1.366 . S
C388 H367 0.930 . S
C388 C384 1.416 . S
C388 C387 1.366 . S
H389 C382 0.929 . S
H390 C413 0.931 . S
H391 C414 0.931 . S
O392 Eu348 2.462 . S
O392 C412 1.252 . S
O393 Eu348 2.373 . S
O393 C404 1.249 . S
O394 Eu359 2.335 . S
O394 C404 1.264 . S
O395 Eu348 2.432 . S
O395 C412 1.268 . S
O396 Eu348 2.291 . S
O396 C411 1.255 . S
O397 Eu359 2.372 . S
O397 C411 1.257 . S
O398 Eu359 2.462 . S
O398 C423 1.252 . S
O399 Eu359 2.373 . S
O399 C415 1.249 . S
O400 Eu348 2.335 . S
O400 C415 1.264 . S
O401 Eu359 2.432 . S
O401 C423 1.268 . S
O402 Eu359 2.291 . S
O402 C422 1.255 . S
O403 Eu348 2.372 . S
O403 C422 1.257 . S
C404 O393 1.249 . S
C404 O394 1.264 . S
C405 C408 1.382 . S
C405 C410 1.390 . S
C405 C412 1.506 . S
C406 C407 1.398 . S
C406 C410 1.392 . S
C407 C406 1.398 . S
C407 C409 1.372 . S
C407 H424 0.931 . S
C408 C405 1.382 . S
C408 C409 1.390 . S
C408 H425 0.931 . S
C409 C407 1.372 . S
C409 C408 1.390 . S
C409 H426 0.929 . S
C410 C405 1.390 . S
C410 C406 1.392 . S
C410 H427 0.930 . S
C411 O396 1.255 . S
C411 O397 1.257 . S
C412 Eu348 2.787 . S
C412 O392 1.252 . S
C412 O395 1.268 . S
C412 C405 1.506 . S
C413 C380 1.439 . S
C413 H390 0.931 . S
C413 C414 1.374 . S
C414 C385 1.387 . S
C414 H391 0.931 . S
C414 C413 1.374 . S
C415 O399 1.249 . S
C415 O400 1.264 . S
C416 C419 1.382 . S
C416 C420 1.390 . S
C416 C423 1.506 . S
C417 C418 1.398 . S
C417 C420 1.392 . S
C418 C417 1.398 . S
C418 C421 1.372 . S
C418 H428 0.931 . S
C419 C416 1.382 . S
C419 C421 1.390 . S
C419 H429 0.931 . S
C420 C416 1.390 . S
C420 C417 1.392 . S
C420 H430 0.930 . S
C421 C418 1.372 . S
C421 C419 1.390 . S
C421 H431 0.929 . S
C422 O402 1.255 . S
C422 O403 1.257 . S
C423 Eu359 2.787 . S
C423 O398 1.252 . S
C423 O401 1.268 . S
C423 C416 1.506 . S
H424 C407 0.931 . S
H425 C408 0.931 . S
H426 C409 0.929 . S
H427 C410 0.930 . S
H428 C418 0.931 . S
H429 C419 0.931 . S
H430 C420 0.930 . S
H431 C421 0.929 . S
C432 C433 1.391 . S
C432 C434 1.394 . S
C432 H448 0.931 . S
C433 C432 1.391 . S
C433 C437 1.376 . S
C434 C432 1.394 . S
C434 C435 1.369 . S
C434 C438 1.531 . S
C435 C434 1.369 . S
C435 C436 1.410 . S
C435 C443 1.503 . S
C436 C435 1.410 . S
C436 C437 1.392 . S
C436 C439 1.511 . S
C437 C433 1.376 . S
C437 C436 1.392 . S
C437 H449 0.929 . S
C438 C434 1.531 . S
C438 H450 0.960 1_565 S
C438 H451 0.962 . S
C438 H452 0.960 . S
C439 C436 1.511 . S
C439 H453 0.961 . S
C439 H454 0.961 . S
C439 H455 0.961 . S
C440 C441 1.370 1_565 S
C440 C442 1.363 . S
C440 H456 0.931 . S
C441 C440 1.370 1_545 S
C441 C445 1.408 . S
C442 C440 1.363 . S
C442 C443 1.370 . S
C442 C446 1.524 . S
C443 C435 1.503 . S
C443 C442 1.370 . S
C443 C444 1.403 1_565 S
C444 C443 1.403 1_545 S
C444 C445 1.404 . S
C444 C447 1.539 . S
C445 C441 1.408 . S
C445 C444 1.404 . S
C445 H457 0.930 . S
C446 C442 1.524 . S
C446 H458 0.956 . S
C446 H459 0.961 . S
C446 H460 0.961 . S
C447 C444 1.539 . S
C447 H461 0.958 . S
C447 H462 0.961 . S
C447 H463 0.960 . S
H448 C432 0.931 . S
H449 C437 0.929 . S
H450 C438 0.960 1_545 S
H451 C438 0.962 . S
H452 C438 0.960 . S
H453 C439 0.961 . S
H454 C439 0.961 . S
H455 C439 0.961 . S
H456 C440 0.931 . S
H457 C445 0.930 . S
H458 C446 0.956 . S
H459 C446 0.961 . S
H460 C446 0.961 . S
H461 C447 0.958 . S
H462 C447 0.961 . S
H463 C447 0.960 . S
C464 C465 1.391 . S
C464 C466 1.394 . S
C464 H480 0.931 . S
C465 C464 1.391 . S
C465 C469 1.376 . S
C466 C464 1.394 . S
C466 C467 1.369 . S
C466 C470 1.531 . S
C467 C466 1.369 . S
C467 C468 1.410 . S
C467 C475 1.503 . S
C468 C467 1.410 . S
C468 C469 1.392 . S
C468 C471 1.511 . S
C469 C465 1.376 . S
C469 C468 1.392 . S
C469 H481 0.929 . S
C470 C466 1.531 . S
C470 H482 0.960 . S
C470 H483 0.962 . S
C470 H484 0.960 . S
C471 C468 1.511 . S
C471 H485 0.961 . S
C471 H486 0.961 . S
C471 H487 0.961 . S
C472 C473 1.370 . S
C472 C474 1.363 . S
C472 H488 0.931 . S
C473 C472 1.370 . S
C473 C477 1.408 . S
C474 C472 1.363 . S
C474 C475 1.370 . S
C474 C478 1.524 . S
C475 C467 1.503 . S
C475 C474 1.370 . S
C475 C476 1.403 . S
C476 C475 1.403 . S
C476 C477 1.404 . S
C476 C479 1.539 . S
C477 C473 1.408 . S
C477 C476 1.404 . S
C477 H489 0.930 . S
C478 C474 1.524 . S
C478 H490 0.956 . S
C478 H491 0.961 . S
C478 H492 0.961 . S
C479 C476 1.539 . S
C479 H493 0.958 . S
C479 H494 0.961 . S
C479 H495 0.960 . S
H480 C464 0.931 . S
H481 C469 0.929 . S
H482 C470 0.960 . S
H483 C470 0.962 . S
H484 C470 0.960 . S
H485 C471 0.961 . S
H486 C471 0.961 . S
H487 C471 0.961 . S
H488 C472 0.931 . S
H489 C477 0.930 . S
H490 C478 0.956 . S
H491 C478 0.961 . S
H492 C478 0.961 . S
H493 C479 0.958 . S
H494 C479 0.961 . S
H495 C479 0.960 . S
C496 C497 1.391 . S
C496 C498 1.394 . S
C496 H512 0.931 . S
C497 C496 1.391 . S
C497 C501 1.376 . S
C498 C496 1.394 . S
C498 C499 1.369 . S
C498 C502 1.531 . S
C499 C498 1.369 . S
C499 C500 1.410 . S
C499 C507 1.503 . S
C500 C499 1.410 . S
C500 C501 1.392 . S
C500 C503 1.511 . S
C501 C497 1.376 . S
C501 C500 1.392 . S
C501 H513 0.929 . S
C502 C498 1.531 . S
C502 H514 0.960 . S
C502 H515 0.962 . S
C502 H516 0.960 . S
C503 C500 1.511 . S
C503 H517 0.961 . S
C503 H518 0.961 . S
C503 H519 0.961 . S
C504 C505 1.370 . S
C504 C506 1.363 . S
C504 H520 0.931 . S
C505 C504 1.370 . S
C505 C509 1.408 . S
C506 C504 1.363 . S
C506 C507 1.370 . S
C506 C510 1.524 . S
C507 C499 1.503 . S
C507 C506 1.370 . S
C507 C508 1.403 . S
C508 C507 1.403 . S
C508 C509 1.404 . S
C508 C511 1.539 . S
C509 C505 1.408 . S
C509 C508 1.404 . S
C509 H521 0.930 . S
C510 C506 1.524 . S
C510 H522 0.956 . S
C510 H523 0.961 . S
C510 H524 0.961 . S
C511 C508 1.539 . S
C511 H525 0.958 . S
C511 H526 0.961 . S
C511 H527 0.960 . S
H512 C496 0.931 . S
H513 C501 0.929 . S
H514 C502 0.960 . S
H515 C502 0.962 . S
H516 C502 0.960 . S
H517 C503 0.961 . S
H518 C503 0.961 . S
H519 C503 0.961 . S
H520 C504 0.931 . S
H521 C509 0.930 . S
H522 C510 0.956 . S
H523 C510 0.961 . S
H524 C510 0.961 . S
H525 C511 0.958 . S
H526 C511 0.961 . S
H527 C511 0.960 . S
C528 C529 1.391 . S
C528 C530 1.394 . S
C528 H544 0.931 . S
C529 C528 1.391 . S
C529 C533 1.376 . S
C530 C528 1.394 . S
C530 C531 1.369 . S
C530 C534 1.531 1_565 S
C531 C530 1.369 . S
C531 C532 1.410 . S
C531 C539 1.503 . S
C532 C531 1.410 . S
C532 C533 1.392 . S
C532 C535 1.511 . S
C533 C529 1.376 . S
C533 C532 1.392 . S
C533 H545 0.929 . S
C534 C530 1.531 1_545 S
C534 H546 0.960 . S
C534 H547 0.962 . S
C534 H548 0.960 . S
C535 C532 1.511 . S
C535 H549 0.961 . S
C535 H550 0.961 . S
C535 H551 0.961 . S
C536 C537 1.370 . S
C536 C538 1.363 1_545 S
C536 H552 0.931 . S
C537 C536 1.370 . S
C537 C541 1.408 . S
C538 C536 1.363 1_565 S
C538 C539 1.370 . S
C538 C542 1.524 . S
C539 C531 1.503 . S
C539 C538 1.370 . S
C539 C540 1.403 1_565 S
C540 C539 1.403 1_545 S
C540 C541 1.404 . S
C540 C543 1.539 . S
C541 C537 1.408 . S
C541 C540 1.404 . S
C541 H553 0.930 . S
C542 C538 1.524 . S
C542 H554 0.956 . S
C542 H555 0.961 . S
C542 H556 0.961 . S
C543 C540 1.539 . S
C543 H557 0.958 . S
C543 H558 0.961 . S
C543 H559 0.960 1_545 S
H544 C528 0.931 . S
H545 C533 0.929 . S
H546 C534 0.960 . S
H547 C534 0.962 . S
H548 C534 0.960 . S
H549 C535 0.961 . S
H550 C535 0.961 . S
H551 C535 0.961 . S
H552 C536 0.931 . S
H553 C541 0.930 . S
H554 C542 0.956 . S
H555 C542 0.961 . S
H556 C542 0.961 . S
H557 C543 0.958 . S
H558 C543 0.961 . S
H559 C543 0.960 1_565 S
C560 C561 1.391 . S
C560 C562 1.394 . S
C560 H576 0.931 . S
C561 C560 1.391 . S
C561 C565 1.376 . S
C562 C560 1.394 . S
C562 C563 1.369 . S
C562 C566 1.531 . S
C563 C562 1.369 . S
C563 C564 1.410 . S
C563 C571 1.503 . S
C564 C563 1.410 . S
C564 C565 1.392 . S
C564 C567 1.511 . S
C565 C561 1.376 . S
C565 C564 1.392 . S
C565 H577 0.929 . S
C566 C562 1.531 . S
C566 H578 0.960 . S
C566 H579 0.962 . S
C566 H580 0.960 . S
C567 C564 1.511 . S
C567 H581 0.961 . S
C567 H582 0.961 . S
C567 H583 0.961 1_545 S
C568 C569 1.370 1_545 S
C568 C570 1.363 . S
C568 H584 0.931 . S
C569 C568 1.370 1_565 S
C569 C573 1.408 . S
C570 C568 1.363 . S
C570 C571 1.370 . S
C570 C574 1.524 . S
C571 C563 1.503 . S
C571 C570 1.370 . S
C571 C572 1.403 1_545 S
C572 C571 1.403 1_565 S
C572 C573 1.404 . S
C572 C575 1.539 . S
C573 C569 1.408 . S
C573 C572 1.404 . S
C573 H585 0.930 . S
C574 C570 1.524 . S
C574 H586 0.956 . S
C574 H587 0.961 . S
C574 H588 0.961 . S
C575 C572 1.539 . S
C575 H589 0.958 . S
C575 H590 0.961 . S
C575 H591 0.960 . S
H576 C560 0.931 . S
H577 C565 0.929 . S
H578 C566 0.960 . S
H579 C566 0.962 . S
H580 C566 0.960 . S
H581 C567 0.961 . S
H582 C567 0.961 . S
H583 C567 0.961 1_565 S
H584 C568 0.931 . S
H585 C573 0.930 . S
H586 C574 0.956 . S
H587 C574 0.961 . S
H588 C574 0.961 . S
H589 C575 0.958 . S
H590 C575 0.961 . S
H591 C575 0.960 . S
C592 C593 1.391 . S
C592 C594 1.394 . S
C592 H608 0.931 . S
C593 C592 1.391 . S
C593 C597 1.376 . S
C594 C592 1.394 . S
C594 C595 1.369 . S
C594 C598 1.531 . S
C595 C594 1.369 . S
C595 C596 1.410 . S
C595 C603 1.503 . S
C596 C595 1.410 . S
C596 C597 1.392 . S
C596 C599 1.511 . S
C597 C593 1.376 . S
C597 C596 1.392 . S
C597 H609 0.929 . S
C598 C594 1.531 . S
C598 H610 0.960 . S
C598 H611 0.962 . S
C598 H612 0.960 . S
C599 C596 1.511 . S
C599 H613 0.961 . S
C599 H614 0.961 . S
C599 H615 0.961 . S
C600 C601 1.370 . S
C600 C602 1.363 . S
C600 H616 0.931 . S
C601 C600 1.370 . S
C601 C605 1.408 . S
C602 C600 1.363 . S
C602 C603 1.370 . S
C602 C606 1.524 . S
C603 C595 1.503 . S
C603 C602 1.370 . S
C603 C604 1.403 . S
C604 C603 1.403 . S
C604 C605 1.404 . S
C604 C607 1.539 . S
C605 C601 1.408 . S
C605 C604 1.404 . S
C605 H617 0.930 . S
C606 C602 1.524 . S
C606 H618 0.956 . S
C606 H619 0.961 . S
C606 H620 0.961 . S
C607 C604 1.539 . S
C607 H621 0.958 . S
C607 H622 0.961 . S
C607 H623 0.960 . S
H608 C592 0.931 . S
H609 C597 0.929 . S
H610 C598 0.960 . S
H611 C598 0.962 . S
H612 C598 0.960 . S
H613 C599 0.961 . S
H614 C599 0.961 . S
H615 C599 0.961 . S
H616 C600 0.931 . S
H617 C605 0.930 . S
H618 C606 0.956 . S
H619 C606 0.961 . S
H620 C606 0.961 . S
H621 C607 0.958 . S
H622 C607 0.961 . S
H623 C607 0.960 . S
C624 C625 1.391 . S
C624 C626 1.394 . S
C624 H640 0.931 . S
C625 C624 1.391 . S
C625 C629 1.376 . S
C626 C624 1.394 . S
C626 C627 1.369 . S
C626 C630 1.531 . S
C627 C626 1.369 . S
C627 C628 1.410 . S
C627 C635 1.503 . S
C628 C627 1.410 . S
C628 C629 1.392 . S
C628 C631 1.511 . S
C629 C625 1.376 . S
C629 C628 1.392 . S
C629 H641 0.929 . S
C630 C626 1.531 . S
C630 H642 0.960 . S
C630 H643 0.962 . S
C630 H644 0.960 . S
C631 C628 1.511 . S
C631 H645 0.961 . S
C631 H646 0.961 . S
C631 H647 0.961 . S
C632 C633 1.370 . S
C632 C634 1.363 . S
C632 H648 0.931 . S
C633 C632 1.370 . S
C633 C637 1.408 . S
C634 C632 1.363 . S
C634 C635 1.370 . S
C634 C638 1.524 . S
C635 C627 1.503 . S
C635 C634 1.370 . S
C635 C636 1.403 . S
C636 C635 1.403 . S
C636 C637 1.404 . S
C636 C639 1.539 . S
C637 C633 1.408 . S
C637 C636 1.404 . S
C637 H649 0.930 . S
C638 C634 1.524 . S
C638 H650 0.956 . S
C638 H651 0.961 . S
C638 H652 0.961 . S
C639 C636 1.539 . S
C639 H653 0.958 . S
C639 H654 0.961 . S
C639 H655 0.960 . S
H640 C624 0.931 . S
H641 C629 0.929 . S
H642 C630 0.960 . S
H643 C630 0.962 . S
H644 C630 0.960 . S
H645 C631 0.961 . S
H646 C631 0.961 . S
H647 C631 0.961 . S
H648 C632 0.931 . S
H649 C637 0.930 . S
H650 C638 0.956 . S
H651 C638 0.961 . S
H652 C638 0.961 . S
H653 C639 0.958 . S
H654 C639 0.961 . S
H655 C639 0.960 . S
C656 C657 1.391 . S
C656 C658 1.394 . S
C656 H672 0.931 . S
C657 C656 1.391 . S
C657 C661 1.376 . S
C658 C656 1.394 . S
C658 C659 1.369 . S
C658 C662 1.531 1_545 S
C659 C658 1.369 . S
C659 C660 1.410 . S
C659 C667 1.503 . S
C660 C659 1.410 . S
C660 C661 1.392 . S
C660 C663 1.511 . S
C661 C657 1.376 . S
C661 C660 1.392 . S
C661 H673 0.929 . S
C662 C658 1.531 1_565 S
C662 H674 0.960 . S
C662 H675 0.962 . S
C662 H676 0.960 . S
C663 C660 1.511 . S
C663 H677 0.961 . S
C663 H678 0.961 . S
C663 H679 0.961 . S
C664 C665 1.370 . S
C664 C666 1.363 1_565 S
C664 H680 0.931 . S
C665 C664 1.370 . S
C665 C669 1.408 . S
C666 C664 1.363 1_545 S
C666 C667 1.370 . S
C666 C670 1.524 . S
C667 C659 1.503 . S
C667 C666 1.370 . S
C667 C668 1.403 1_545 S
C668 C667 1.403 1_565 S
C668 C669 1.404 . S
C668 C671 1.539 . S
C669 C665 1.408 . S
C669 C668 1.404 . S
C669 H681 0.930 . S
C670 C666 1.524 . S
C670 H682 0.956 . S
C670 H683 0.961 . S
C670 H684 0.961 . S
C671 C668 1.539 . S
C671 H685 0.958 . S
C671 H686 0.961 . S
C671 H687 0.960 1_565 S
H672 C656 0.931 . S
H673 C661 0.929 . S
H674 C662 0.960 . S
H675 C662 0.962 . S
H676 C662 0.960 . S
H677 C663 0.961 . S
H678 C663 0.961 . S
H679 C663 0.961 . S
H680 C664 0.931 . S
H681 C669 0.930 . S
H682 C670 0.956 . S
H683 C670 0.961 . S
H684 C670 0.961 . S
H685 C671 0.958 . S
H686 C671 0.961 . S
H687 C671 0.960 1_545 S
C688 C689 1.391 . S
C688 C690 1.394 1_556 S
C688 H704 0.931 . S
C689 C688 1.391 . S
C689 C693 1.376 . S
C690 C688 1.394 1_554 S
C690 C691 1.369 . S
C690 C694 1.531 . S
C691 C690 1.369 . S
C691 C692 1.410 1_554 S
C691 C699 1.503 . S
C692 C691 1.410 1_556 S
C692 C693 1.392 . S
C692 C695 1.511 . S
C693 C689 1.376 . S
C693 C692 1.392 . S
C693 H705 0.929 . S
C694 C690 1.531 . S
C694 H706 0.960 . S
C694 H707 0.962 . S
C694 H708 0.960 . S
C695 C692 1.511 . S
C695 H709 0.961 . S
C695 H710 0.961 1_556 S
C695 H711 0.961 . S
C696 C697 1.370 . S
C696 C698 1.363 . S
C696 H712 0.931 . S
C697 C696 1.370 . S
C697 C701 1.408 . S
C698 C696 1.363 . S
C698 C699 1.370 . S
C698 C702 1.524 . S
C699 C691 1.503 . S
C699 C698 1.370 . S
C699 C700 1.403 . S
C700 C699 1.403 . S
C700 C701 1.404 . S
C700 C703 1.539 . S
C701 C697 1.408 . S
C701 C700 1.404 . S
C701 H713 0.930 . S
C702 C698 1.524 . S
C702 H714 0.956 . S
C702 H715 0.961 . S
C702 H716 0.961 . S
C703 C700 1.539 . S
C703 H717 0.958 . S
C703 H718 0.961 . S
C703 H719 0.960 . S
H704 C688 0.931 . S
H705 C693 0.929 . S
H706 C694 0.960 . S
H707 C694 0.962 . S
H708 C694 0.960 . S
H709 C695 0.961 . S
H710 C695 0.961 1_554 S
H711 C695 0.961 . S
H712 C696 0.931 . S
H713 C701 0.930 . S
H714 C702 0.956 . S
H715 C702 0.961 . S
H716 C702 0.961 . S
H717 C703 0.958 . S
H718 C703 0.961 . S
H719 C703 0.960 . S
C720 C721 1.391 . S
C720 C722 1.394 . S
C720 H736 0.931 . S
C721 C720 1.391 . S
C721 C725 1.376 . S
C722 C720 1.394 . S
C722 C723 1.369 . S
C722 C726 1.531 . S
C723 C722 1.369 . S
C723 C724 1.410 . S
C723 C731 1.503 . S
C724 C723 1.410 . S
C724 C725 1.392 . S
C724 C727 1.511 . S
C725 C721 1.376 . S
C725 C724 1.392 . S
C725 H737 0.929 . S
C726 C722 1.531 . S
C726 H738 0.960 . S
C726 H739 0.962 . S
C726 H740 0.960 . S
C727 C724 1.511 . S
C727 H741 0.961 . S
C727 H742 0.961 . S
C727 H743 0.961 . S
C728 C729 1.370 . S
C728 C730 1.363 . S
C728 H744 0.931 . S
C729 C728 1.370 . S
C729 C733 1.408 . S
C730 C728 1.363 . S
C730 C731 1.370 . S
C730 C734 1.524 . S
C731 C723 1.503 . S
C731 C730 1.370 . S
C731 C732 1.403 . S
C732 C731 1.403 . S
C732 C733 1.404 . S
C732 C735 1.539 . S
C733 C729 1.408 . S
C733 C732 1.404 . S
C733 H745 0.930 . S
C734 C730 1.524 . S
C734 H746 0.956 . S
C734 H747 0.961 . S
C734 H748 0.961 . S
C735 C732 1.539 . S
C735 H749 0.958 . S
C735 H750 0.961 . S
C735 H751 0.960 . S
H736 C720 0.931 . S
H737 C725 0.929 . S
H738 C726 0.960 . S
H739 C726 0.962 . S
H740 C726 0.960 . S
H741 C727 0.961 . S
H742 C727 0.961 . S
H743 C727 0.961 . S
H744 C728 0.931 . S
H745 C733 0.930 . S
H746 C734 0.956 . S
H747 C734 0.961 . S
H748 C734 0.961 . S
H749 C735 0.958 . S
H750 C735 0.961 . S
H751 C735 0.960 . S
C752 C753 1.391 . S
C752 C754 1.394 1_554 S
C752 H768 0.931 . S
C753 C752 1.391 . S
C753 C757 1.376 . S
C754 C752 1.394 1_556 S
C754 C755 1.369 . S
C754 C758 1.531 . S
C755 C754 1.369 . S
C755 C756 1.410 1_556 S
C755 C763 1.503 . S
C756 C755 1.410 1_554 S
C756 C757 1.392 . S
C756 C759 1.511 . S
C757 C753 1.376 . S
C757 C756 1.392 . S
C757 H769 0.929 . S
C758 C754 1.531 . S
C758 H770 0.960 . S
C758 H771 0.962 . S
C758 H772 0.960 . S
C759 C756 1.511 . S
C759 H773 0.961 . S
C759 H774 0.961 1_554 S
C759 H775 0.961 . S
C760 C761 1.370 . S
C760 C762 1.363 . S
C760 H776 0.931 . S
C761 C760 1.370 . S
C761 C765 1.408 . S
C762 C760 1.363 . S
C762 C763 1.370 . S
C762 C766 1.524 . S
C763 C755 1.503 . S
C763 C762 1.370 . S
C763 C764 1.403 . S
C764 C763 1.403 . S
C764 C765 1.404 . S
C764 C767 1.539 . S
C765 C761 1.408 . S
C765 C764 1.404 . S
C765 H777 0.930 . S
C766 C762 1.524 . S
C766 H778 0.956 . S
C766 H779 0.961 . S
C766 H780 0.961 . S
C767 C764 1.539 . S
C767 H781 0.958 . S
C767 H782 0.961 . S
C767 H783 0.960 . S
H768 C752 0.931 . S
H769 C757 0.929 . S
H770 C758 0.960 . S
H771 C758 0.962 . S
H772 C758 0.960 . S
H773 C759 0.961 . S
H774 C759 0.961 1_556 S
H775 C759 0.961 . S
H776 C760 0.931 . S
H777 C765 0.930 . S
H778 C766 0.956 . S
H779 C766 0.961 . S
H780 C766 0.961 . S
H781 C767 0.958 . S
H782 C767 0.961 . S
H783 C767 0.960 . S
C784 C785 1.391 . S
C784 C786 1.394 . S
C784 H800 0.931 . S
C785 C784 1.391 . S
C785 C789 1.376 . S
C786 C784 1.394 . S
C786 C787 1.369 . S
C786 C790 1.531 . S
C787 C786 1.369 . S
C787 C788 1.410 . S
C787 C795 1.503 . S
C788 C787 1.410 . S
C788 C789 1.392 . S
C788 C791 1.511 . S
C789 C785 1.376 . S
C789 C788 1.392 . S
C789 H801 0.929 . S
C790 C786 1.531 . S
C790 H802 0.960 . S
C790 H803 0.962 . S
C790 H804 0.960 . S
C791 C788 1.511 . S
C791 H805 0.961 . S
C791 H806 0.961 . S
C791 H807 0.961 . S
C792 C793 1.370 . S
C792 C794 1.363 . S
C792 H808 0.931 . S
C793 C792 1.370 . S
C793 C797 1.408 . S
C794 C792 1.363 . S
C794 C795 1.370 . S
C794 C798 1.524 . S
C795 C787 1.503 . S
C795 C794 1.370 . S
C795 C796 1.403 . S
C796 C795 1.403 . S
C796 C797 1.404 . S
C796 C799 1.539 . S
C797 C793 1.408 . S
C797 C796 1.404 . S
C797 H809 0.930 . S
C798 C794 1.524 . S
C798 H810 0.956 . S
C798 H811 0.961 . S
C798 H812 0.961 . S
C799 C796 1.539 . S
C799 H813 0.958 . S
C799 H814 0.961 . S
C799 H815 0.960 . S
H800 C784 0.931 . S
H801 C789 0.929 . S
H802 C790 0.960 . S
H803 C790 0.962 . S
H804 C790 0.960 . S
H805 C791 0.961 . S
H806 C791 0.961 . S
H807 C791 0.961 . S
H808 C792 0.931 . S
H809 C797 0.930 . S
H810 C798 0.956 . S
H811 C798 0.961 . S
H812 C798 0.961 . S
H813 C799 0.958 . S
H814 C799 0.961 . S
H815 C799 0.960 . S
C816 C817 1.391 . S
C816 C818 1.394 . S
C816 H832 0.931 . S
C817 C816 1.391 . S
C817 C821 1.376 . S
C818 C816 1.394 . S
C818 C819 1.369 1_554 S
C818 C822 1.531 1_554 S
C819 C818 1.369 1_556 S
C819 C820 1.410 1_556 S
C819 C827 1.503 . S
C820 C819 1.410 1_554 S
C820 C821 1.392 . S
C820 C823 1.511 . S
C821 C817 1.376 . S
C821 C820 1.392 . S
C821 H833 0.929 . S
C822 C818 1.531 1_556 S
C822 H834 0.960 . S
C822 H835 0.962 . S
C822 H836 0.960 . S
C823 C820 1.511 . S
C823 H837 0.961 . S
C823 H838 0.961 1_554 S
C823 H839 0.961 . S
C824 C825 1.370 . S
C824 C826 1.363 . S
C824 H840 0.931 . S
C825 C824 1.370 . S
C825 C829 1.408 . S
C826 C824 1.363 . S
C826 C827 1.370 . S
C826 C830 1.524 . S
C827 C819 1.503 . S
C827 C826 1.370 . S
C827 C828 1.403 . S
C828 C827 1.403 . S
C828 C829 1.404 . S
C828 C831 1.539 . S
C829 C825 1.408 . S
C829 C828 1.404 . S
C829 H841 0.930 . S
C830 C826 1.524 . S
C830 H842 0.956 . S
C830 H843 0.961 . S
C830 H844 0.961 . S
C831 C828 1.539 . S
C831 H845 0.958 . S
C831 H846 0.961 . S
C831 H847 0.931 1_556 S
H832 C816 0.931 . S
H833 C821 0.929 . S
H834 C822 0.960 . S
H835 C822 0.962 . S
H836 C822 0.960 . S
H837 C823 0.961 . S
H838 C823 0.961 1_556 S
H839 C823 0.961 . S
H840 C824 0.931 . S
H841 C829 0.930 . S
H842 C830 0.956 . S
H843 C830 0.961 . S
H844 C830 0.961 . S
H845 C831 0.958 . S
H846 C831 0.961 . S
H847 C831 0.931 1_554 S
C848 C849 1.391 . S
C848 C850 1.394 . S
C848 H864 0.931 . S
C849 C848 1.391 . S
C849 C853 1.376 . S
C850 C848 1.394 . S
C850 C851 1.369 . S
C850 C854 1.531 . S
C851 C850 1.369 . S
C851 C852 1.410 . S
C851 C859 1.503 . S
C852 C851 1.410 . S
C852 C853 1.392 . S
C852 C855 1.511 . S
C853 C849 1.376 . S
C853 C852 1.392 . S
C853 H865 0.929 . S
C854 C850 1.531 . S
C854 H866 0.960 . S
C854 H867 0.962 . S
C854 H868 0.960 . S
C855 C852 1.511 . S
C855 H869 0.961 . S
C855 H870 0.961 . S
C855 H871 0.961 . S
C856 C857 1.370 . S
C856 C858 1.363 . S
C856 H872 0.931 . S
C857 C856 1.370 . S
C857 C861 1.408 . S
C858 C856 1.363 . S
C858 C859 1.370 . S
C858 C862 1.524 . S
C859 C851 1.503 . S
C859 C858 1.370 . S
C859 C860 1.403 . S
C860 C859 1.403 . S
C860 C861 1.404 . S
C860 C863 1.539 . S
C861 C857 1.408 . S
C861 C860 1.404 . S
C861 H873 0.930 . S
C862 C858 1.524 . S
C862 H874 0.956 . S
C862 H875 0.961 . S
C862 H876 0.961 . S
C863 C860 1.539 . S
C863 H877 0.958 . S
C863 H878 0.961 . S
C863 H879 0.960 . S
H864 C848 0.931 . S
H865 C853 0.929 . S
H866 C854 0.960 . S
H867 C854 0.962 . S
H868 C854 0.960 . S
H869 C855 0.961 . S
H870 C855 0.961 . S
H871 C855 0.961 . S
H872 C856 0.931 . S
H873 C861 0.930 . S
H874 C862 0.956 . S
H875 C862 0.961 . S
H876 C862 0.961 . S
H877 C863 0.958 . S
H878 C863 0.961 . S
H879 C863 0.960 . S
C880 C881 1.391 . S
C880 C882 1.394 1_556 S
C880 H896 0.931 . S
C881 C880 1.391 . S
C881 C885 1.376 . S
C882 C880 1.394 1_554 S
C882 C883 1.369 . S
C882 C886 1.531 . S
C883 C882 1.369 . S
C883 C884 1.410 1_554 S
C883 C891 1.503 . S
C884 C883 1.410 1_556 S
C884 C885 1.392 . S
C884 C887 1.511 . S
C885 C881 1.376 . S
C885 C884 1.392 . S
C885 H897 0.929 . S
C886 C882 1.531 . S
C886 H898 0.960 . S
C886 H899 0.962 . S
C886 H900 0.960 . S
C887 C884 1.511 . S
C887 H901 0.961 . S
C887 H902 0.961 1_556 S
C887 H903 0.961 . S
C888 C889 1.370 . S
C888 C890 1.363 . S
C888 H904 0.931 . S
C889 C888 1.370 . S
C889 C893 1.408 . S
C890 C888 1.363 . S
C890 C891 1.370 . S
C890 C894 1.524 . S
C891 C883 1.503 . S
C891 C890 1.370 . S
C891 C892 1.403 . S
C892 C891 1.403 . S
C892 C893 1.404 . S
C892 C895 1.539 . S
C893 C889 1.408 . S
C893 C892 1.404 . S
C893 H905 0.930 . S
C894 C890 1.524 . S
C894 H906 0.956 . S
C894 H907 0.961 . S
C894 H908 0.961 . S
C895 C892 1.539 . S
C895 H909 0.958 . S
C895 H910 0.961 . S
C895 H911 0.960 . S
H896 C880 0.931 . S
H897 C885 0.929 . S
H898 C886 0.960 . S
H899 C886 0.962 . S
H900 C886 0.960 . S
H901 C887 0.961 . S
H902 C887 0.961 1_554 S
H903 C887 0.961 . S
H904 C888 0.931 . S
H905 C893 0.930 . S
H906 C894 0.956 . S
H907 C894 0.961 . S
H908 C894 0.961 . S
H909 C895 0.958 . S
H910 C895 0.961 . S
H911 C895 0.960 . S
C912 C913 1.391 . S
C912 C914 1.394 . S
C912 H928 0.931 . S
C913 C912 1.391 . S
C913 C917 1.376 . S
C914 C912 1.394 . S
C914 C915 1.369 . S
C914 C918 1.531 . S
C915 C914 1.369 . S
C915 C916 1.410 . S
C915 C923 1.503 . S
C916 C915 1.410 . S
C916 C917 1.392 . S
C916 C919 1.511 . S
C917 C913 1.376 . S
C917 C916 1.392 . S
C917 H929 0.929 . S
C918 C914 1.531 . S
C918 H930 0.960 . S
C918 H931 0.962 . S
C918 H932 0.960 . S
C919 C916 1.511 . S
C919 H933 0.961 . S
C919 H934 0.961 . S
C919 H935 0.961 . S
C920 C921 1.370 . S
C920 C922 1.363 . S
C920 H936 0.931 . S
C921 C920 1.370 . S
C921 C925 1.408 . S
C922 C920 1.363 . S
C922 C923 1.370 . S
C922 C926 1.524 . S
C923 C915 1.503 . S
C923 C922 1.370 . S
C923 C924 1.403 . S
C924 C923 1.403 . S
C924 C925 1.404 . S
C924 C927 1.539 . S
C925 C921 1.408 . S
C925 C924 1.404 . S
C925 H937 0.930 . S
C926 C922 1.524 . S
C926 H938 0.956 . S
C926 H939 0.961 . S
C926 H940 0.961 . S
C927 C924 1.539 . S
C927 H941 0.958 . S
C927 H942 0.961 . S
C927 H943 0.960 . S
H928 C912 0.931 . S
H929 C917 0.929 . S
H930 C918 0.960 . S
H931 C918 0.962 . S
H932 C918 0.960 . S
H933 C919 0.961 . S
H934 C919 0.961 . S
H935 C919 0.961 . S
H936 C920 0.931 . S
H937 C925 0.930 . S
H938 C926 0.956 . S
H939 C926 0.961 . S
H940 C926 0.961 . S
H941 C927 0.958 . S
H942 C927 0.961 . S
H943 C927 0.960 . S
C944 C945 1.391 . S
C944 C946 1.394 . S
C944 H960 0.931 . S
C945 C944 1.391 . S
C945 C949 1.376 . S
C946 C944 1.394 . S
C946 C947 1.369 . S
C946 C950 1.531 . S
C947 C946 1.369 . S
C947 C948 1.410 . S
C947 C955 1.503 . S
C948 C947 1.410 . S
C948 C949 1.392 . S
C948 C951 1.511 . S
C949 C945 1.376 . S
C949 C948 1.392 . S
C949 H961 0.929 . S
C950 C946 1.531 . S
C950 H962 0.960 . S
C950 H963 0.962 . S
C950 H964 0.960 . S
C951 C948 1.511 . S
C951 H965 0.961 . S
C951 H966 0.961 . S
C951 H967 0.961 . S
C952 C953 1.370 . S
C952 C954 1.363 . S
C952 H968 0.931 . S
C953 C952 1.370 . S
C953 C957 1.408 . S
C954 C952 1.363 . S
C954 C955 1.370 . S
C954 C958 1.524 . S
C955 C947 1.503 . S
C955 C954 1.370 . S
C955 C956 1.403 . S
C956 C955 1.403 . S
C956 C957 1.404 . S
C956 C959 1.539 . S
C957 C953 1.408 . S
C957 C956 1.404 . S
C957 H969 0.930 . S
C958 C954 1.524 . S
C958 H970 0.956 . S
C958 H971 0.961 . S
C958 H972 0.961 . S
C959 C956 1.539 . S
C959 H973 0.958 . S
C959 H974 0.961 . S
C959 H975 0.960 . S
H960 C944 0.931 . S
H961 C949 0.929 . S
H962 C950 0.960 . S
H963 C950 0.962 . S
H964 C950 0.960 . S
H965 C951 0.961 . S
H966 C951 0.961 . S
H967 C951 0.961 . S
H968 C952 0.931 . S
H969 C957 0.930 . S
H970 C958 0.956 . S
H971 C958 0.961 . S
H972 C958 0.961 . S
H973 C959 0.958 . S
H974 C959 0.961 . S
H975 C959 0.960 . S
C976 C977 1.391 . S
C976 C978 1.394 . S
C976 H992 0.931 . S
C977 C976 1.391 . S
C977 C981 1.376 . S
C978 C976 1.394 . S
C978 C979 1.369 . S
C978 C982 1.531 . S
C979 C978 1.369 . S
C979 C980 1.410 . S
C979 C987 1.503 . S
C980 C979 1.410 . S
C980 C981 1.392 . S
C980 C983 1.511 . S
C981 C977 1.376 . S
C981 C980 1.392 . S
C981 H993 0.929 . S
C982 C978 1.531 . S
C982 H994 0.960 . S
C982 H995 0.962 . S
C982 H996 0.960 . S
C983 C980 1.511 . S
C983 H997 0.961 . S
C983 H998 0.961 . S
C983 H999 0.961 . S
C984 C985 1.370 . S
C984 C986 1.363 . S
C984 H1000 0.931 . S
C985 C984 1.370 . S
C985 C989 1.408 . S
C986 C984 1.363 . S
C986 C987 1.370 . S
C986 C990 1.524 . S
C987 C979 1.503 . S
C987 C986 1.370 . S
C987 C988 1.403 . S
C988 C987 1.403 . S
C988 C989 1.404 . S
C988 C991 1.539 . S
C989 C985 1.408 . S
C989 C988 1.404 . S
C989 H1001 0.930 . S
C990 C986 1.524 . S
C990 H1002 0.956 . S
C990 H1003 0.961 . S
C990 H1004 0.961 . S
C991 C988 1.539 . S
C991 H1005 0.958 . S
C991 H1006 0.961 . S
C991 H1007 0.960 . S
H992 C976 0.931 . S
H993 C981 0.929 . S
H994 C982 0.960 . S
H995 C982 0.962 . S
H996 C982 0.960 . S
H997 C983 0.961 . S
H998 C983 0.961 . S
H999 C983 0.961 . S
H1000 C984 0.931 . S
H1001 C989 0.930 . S
H1002 C990 0.956 . S
H1003 C990 0.961 . S
H1004 C990 0.961 . S
H1005 C991 0.958 . S
H1006 C991 0.961 . S
H1007 C991 0.960 . S
C1008 C1009 1.391 . S
C1008 C1010 1.394 . S
C1008 H1024 0.931 . S
C1009 C1008 1.391 . S
C1009 C1013 1.376 . S
C1010 C1008 1.394 . S
C1010 C1011 1.369 . S
C1010 C1014 1.531 . S
C1011 C1010 1.369 . S
C1011 C1012 1.410 . S
C1011 C1019 1.503 . S
C1012 C1011 1.410 . S
C1012 C1013 1.392 . S
C1012 C1015 1.511 . S
C1013 C1009 1.376 . S
C1013 C1012 1.392 . S
C1013 H1025 0.929 . S
C1014 C1010 1.531 . S
C1014 H1026 0.960 . S
C1014 H1027 0.962 . S
C1014 H1028 0.960 . S
C1015 C1012 1.511 . S
C1015 H1029 0.961 . S
C1015 H1030 0.961 . S
C1015 H1031 0.961 . S
C1016 C1017 1.370 . S
C1016 C1018 1.363 . S
C1016 H1032 0.931 . S
C1017 C1016 1.370 . S
C1017 C1021 1.408 . S
C1018 C1016 1.363 . S
C1018 C1019 1.370 . S
C1018 C1022 1.524 . S
C1019 C1011 1.503 . S
C1019 C1018 1.370 . S
C1019 C1020 1.403 . S
C1020 C1019 1.403 . S
C1020 C1021 1.404 . S
C1020 C1023 1.539 . S
C1021 C1017 1.408 . S
C1021 C1020 1.404 . S
C1021 H1033 0.930 . S
C1022 C1018 1.524 . S
C1022 H1034 0.956 . S
C1022 H1035 0.961 . S
C1022 H1036 0.961 . S
C1023 C1020 1.539 . S
C1023 H1037 0.958 . S
C1023 H1038 0.961 . S
C1023 H1039 0.960 . S
H1024 C1008 0.931 . S
H1025 C1013 0.929 . S
H1026 C1014 0.960 . S
H1027 C1014 0.962 . S
H1028 C1014 0.960 . S
H1029 C1015 0.961 . S
H1030 C1015 0.961 . S
H1031 C1015 0.961 . S
H1032 C1016 0.931 . S
H1033 C1021 0.930 . S
H1034 C1022 0.956 . S
H1035 C1022 0.961 . S
H1036 C1022 0.961 . S
H1037 C1023 0.958 . S
H1038 C1023 0.961 . S
H1039 C1023 0.960 . S
C1040 C1041 1.391 . S
C1040 C1042 1.394 . S
C1040 H1056 0.931 . S
C1041 C1040 1.391 . S
C1041 C1045 1.376 . S
C1042 C1040 1.394 . S
C1042 C1043 1.369 . S
C1042 C1046 1.531 . S
C1043 C1042 1.369 . S
C1043 C1044 1.410 . S
C1043 C1051 1.503 . S
C1044 C1043 1.410 . S
C1044 C1045 1.392 . S
C1044 C1047 1.511 . S
C1045 C1041 1.376 . S
C1045 C1044 1.392 . S
C1045 H1057 0.929 . S
C1046 C1042 1.531 . S
C1046 H1058 0.960 . S
C1046 H1059 0.962 . S
C1046 H1060 0.960 . S
C1047 C1044 1.511 . S
C1047 H1061 0.961 . S
C1047 H1062 0.961 . S
C1047 H1063 0.961 . S
C1048 C1049 1.370 . S
C1048 C1050 1.363 . S
C1048 H1064 0.931 . S
C1049 C1048 1.370 . S
C1049 C1053 1.408 . S
C1050 C1048 1.363 . S
C1050 C1051 1.370 . S
C1050 C1054 1.524 . S
C1051 C1043 1.503 . S
C1051 C1050 1.370 . S
C1051 C1052 1.403 . S
C1052 C1051 1.403 . S
C1052 C1053 1.404 . S
C1052 C1055 1.539 . S
C1053 C1049 1.408 . S
C1053 C1052 1.404 . S
C1053 H1065 0.930 . S
C1054 C1050 1.524 . S
C1054 H1066 0.956 . S
C1054 H1067 0.961 . S
C1054 H1068 0.961 . S
C1055 C1052 1.539 . S
C1055 H1069 0.958 . S
C1055 H1070 0.961 . S
C1055 H1071 0.960 . S
H1056 C1040 0.931 . S
H1057 C1045 0.929 . S
H1058 C1046 0.960 . S
H1059 C1046 0.962 . S
H1060 C1046 0.960 . S
H1061 C1047 0.961 . S
H1062 C1047 0.961 . S
H1063 C1047 0.961 . S
H1064 C1048 0.931 . S
H1065 C1053 0.930 . S
H1066 C1054 0.956 . S
H1067 C1054 0.961 . S
H1068 C1054 0.961 . S
H1069 C1055 0.958 . S
H1070 C1055 0.961 . S
H1071 C1055 0.960 . S
C1072 C1073 1.391 . S
C1072 C1074 1.394 . S
C1072 H1088 0.931 . S
C1073 C1072 1.391 . S
C1073 C1077 1.376 . S
C1074 C1072 1.394 . S
C1074 C1075 1.369 . S
C1074 C1078 1.531 . S
C1075 C1074 1.369 . S
C1075 C1076 1.410 . S
C1075 C1083 1.503 . S
C1076 C1075 1.410 . S
C1076 C1077 1.392 . S
C1076 C1079 1.511 . S
C1077 C1073 1.376 . S
C1077 C1076 1.392 . S
C1077 H1089 0.929 . S
C1078 C1074 1.531 . S
C1078 H1090 0.960 . S
C1078 H1091 0.962 . S
C1078 H1092 0.960 . S
C1079 C1076 1.511 . S
C1079 H1093 0.961 . S
C1079 H1094 0.961 . S
C1079 H1095 0.961 . S
C1080 C1081 1.370 . S
C1080 C1082 1.363 . S
C1080 H1096 0.931 . S
C1081 C1080 1.370 . S
C1081 C1085 1.408 . S
C1082 C1080 1.363 . S
C1082 C1083 1.370 . S
C1082 C1086 1.524 . S
C1083 C1075 1.503 . S
C1083 C1082 1.370 . S
C1083 C1084 1.403 . S
C1084 C1083 1.403 . S
C1084 C1085 1.404 . S
C1084 C1087 1.539 . S
C1085 C1081 1.408 . S
C1085 C1084 1.404 . S
C1085 H1097 0.930 . S
C1086 C1082 1.524 . S
C1086 H1098 0.956 . S
C1086 H1099 0.961 . S
C1086 H1100 0.961 . S
C1087 C1084 1.539 . S
C1087 H1101 0.958 . S
C1087 H1102 0.961 . S
C1087 H1103 0.960 . S
H1088 C1072 0.931 . S
H1089 C1077 0.929 . S
H1090 C1078 0.960 . S
H1091 C1078 0.962 . S
H1092 C1078 0.960 . S
H1093 C1079 0.961 . S
H1094 C1079 0.961 . S
H1095 C1079 0.961 . S
H1096 C1080 0.931 . S
H1097 C1085 0.930 . S
H1098 C1086 0.956 . S
H1099 C1086 0.961 . S
H1100 C1086 0.961 . S
H1101 C1087 0.958 . S
H1102 C1087 0.961 . S
H1103 C1087 0.960 . S
C1104 C1105 1.391 . S
C1104 C1106 1.394 . S
C1104 H1120 0.931 . S
C1105 C1104 1.391 . S
C1105 C1109 1.376 . S
C1106 C1104 1.394 . S
C1106 C1107 1.369 . S
C1106 C1110 1.531 . S
C1107 C1106 1.369 . S
C1107 C1108 1.410 . S
C1107 C1115 1.503 . S
C1108 C1107 1.410 . S
C1108 C1109 1.392 . S
C1108 C1111 1.511 . S
C1109 C1105 1.376 . S
C1109 C1108 1.392 . S
C1109 H1121 0.929 . S
C1110 C1106 1.531 . S
C1110 H1122 0.960 . S
C1110 H1123 0.962 . S
C1110 H1124 0.960 . S
C1111 C1108 1.511 . S
C1111 H1125 0.961 . S
C1111 H1126 0.961 . S
C1111 H1127 0.961 . S
C1112 C1113 1.370 . S
C1112 C1114 1.363 . S
C1112 H1128 0.931 . S
C1113 C1112 1.370 . S
C1113 C1117 1.408 . S
C1114 C1112 1.363 . S
C1114 C1115 1.370 . S
C1114 C1118 1.524 . S
C1115 C1107 1.503 . S
C1115 C1114 1.370 . S
C1115 C1116 1.403 . S
C1116 C1115 1.403 . S
C1116 C1117 1.404 . S
C1116 C1119 1.539 . S
C1117 C1113 1.408 . S
C1117 C1116 1.404 . S
C1117 H1129 0.930 . S
C1118 C1114 1.524 . S
C1118 H1130 0.956 . S
C1118 H1131 0.961 . S
C1118 H1132 0.961 . S
C1119 C1116 1.539 . S
C1119 H1133 0.958 . S
C1119 H1134 0.961 . S
C1119 H1135 0.960 . S
H1120 C1104 0.931 . S
H1121 C1109 0.929 . S
H1122 C1110 0.960 . S
H1123 C1110 0.962 . S
H1124 C1110 0.960 . S
H1125 C1111 0.961 . S
H1126 C1111 0.961 . S
H1127 C1111 0.961 . S
H1128 C1112 0.931 . S
H1129 C1117 0.930 . S
H1130 C1118 0.956 . S
H1131 C1118 0.961 . S
H1132 C1118 0.961 . S
H1133 C1119 0.958 . S
H1134 C1119 0.961 . S
H1135 C1119 0.960 . S
C1136 C1137 1.391 . S
C1136 C1138 1.394 . S
C1136 H1152 0.931 . S
C1137 C1136 1.391 . S
C1137 C1141 1.376 . S
C1138 C1136 1.394 . S
C1138 C1139 1.369 . S
C1138 C1142 1.531 . S
C1139 C1138 1.369 . S
C1139 C1140 1.410 . S
C1139 C1147 1.503 . S
C1140 C1139 1.410 . S
C1140 C1141 1.392 . S
C1140 C1143 1.511 . S
C1141 C1137 1.376 . S
C1141 C1140 1.392 . S
C1141 H1153 0.929 . S
C1142 C1138 1.531 . S
C1142 H1154 0.960 . S
C1142 H1155 0.962 . S
C1142 H1156 0.960 . S
C1143 C1140 1.511 . S
C1143 H1157 0.961 . S
C1143 H1158 0.961 . S
C1143 H1159 0.961 . S
C1144 C1145 1.370 . S
C1144 C1146 1.363 . S
C1144 H1160 0.931 . S
C1145 C1144 1.370 . S
C1145 C1149 1.408 . S
C1146 C1144 1.363 . S
C1146 C1147 1.370 . S
C1146 C1150 1.524 . S
C1147 C1139 1.503 . S
C1147 C1146 1.370 . S
C1147 C1148 1.403 . S
C1148 C1147 1.403 . S
C1148 C1149 1.404 . S
C1148 C1151 1.539 . S
C1149 C1145 1.408 . S
C1149 C1148 1.404 . S
C1149 H1161 0.930 . S
C1150 C1146 1.524 . S
C1150 H1162 0.956 . S
C1150 H1163 0.961 . S
C1150 H1164 0.961 . S
C1151 C1148 1.539 . S
C1151 H1165 0.958 . S
C1151 H1166 0.961 . S
C1151 H1167 0.960 . S
H1152 C1136 0.931 . S
H1153 C1141 0.929 . S
H1154 C1142 0.960 . S
H1155 C1142 0.962 . S
H1156 C1142 0.960 . S
H1157 C1143 0.961 . S
H1158 C1143 0.961 . S
H1159 C1143 0.961 . S
H1160 C1144 0.931 . S
H1161 C1149 0.930 . S
H1162 C1150 0.956 . S
H1163 C1150 0.961 . S
H1164 C1150 0.961 . S
H1165 C1151 0.958 . S
H1166 C1151 0.961 . S
H1167 C1151 0.960 . S
C1168 C1169 1.391 . S
C1168 C1170 1.394 . S
C1168 H1184 0.931 . S
C1169 C1168 1.391 . S
C1169 C1173 1.376 . S
C1170 C1168 1.394 . S
C1170 C1171 1.369 . S
C1170 C1174 1.531 . S
C1171 C1170 1.369 . S
C1171 C1172 1.410 . S
C1171 C1179 1.503 . S
C1172 C1171 1.410 . S
C1172 C1173 1.392 . S
C1172 C1175 1.511 . S
C1173 C1169 1.376 . S
C1173 C1172 1.392 . S
C1173 H1185 0.929 . S
C1174 C1170 1.531 . S
C1174 H1186 0.960 . S
C1174 H1187 0.962 . S
C1174 H1188 0.960 . S
C1175 C1172 1.511 . S
C1175 H1189 0.961 . S
C1175 H1190 0.961 . S
C1175 H1191 0.961 . S
C1176 C1177 1.370 . S
C1176 C1178 1.363 . S
C1176 H1192 0.931 . S
C1177 C1176 1.370 . S
C1177 C1181 1.408 . S
C1178 C1176 1.363 . S
C1178 C1179 1.370 . S
C1178 C1182 1.524 . S
C1179 C1171 1.503 . S
C1179 C1178 1.370 . S
C1179 C1180 1.403 . S
C1180 C1179 1.403 . S
C1180 C1181 1.404 . S
C1180 C1183 1.539 . S
C1181 C1177 1.408 . S
C1181 C1180 1.404 . S
C1181 H1193 0.930 . S
C1182 C1178 1.524 . S
C1182 H1194 0.956 . S
C1182 H1195 0.961 . S
C1182 H1196 0.961 . S
C1183 C1180 1.539 . S
C1183 H1197 0.958 . S
C1183 H1198 0.961 1_455 S
C1183 H1199 0.960 . S
H1184 C1168 0.931 . S
H1185 C1173 0.929 . S
H1186 C1174 0.960 . S
H1187 C1174 0.962 . S
H1188 C1174 0.960 . S
H1189 C1175 0.961 . S
H1190 C1175 0.961 . S
H1191 C1175 0.961 . S
H1192 C1176 0.931 . S
H1193 C1181 0.930 . S
H1194 C1182 0.956 . S
H1195 C1182 0.961 . S
H1196 C1182 0.961 . S
H1197 C1183 0.958 . S
H1198 C1183 0.961 1_655 S
H1199 C1183 0.960 . S
C433 C81 1.682 . S
C441 C170 1.669 . S
C473 C254 1.669 . S
C465 C93 1.682 . S
C505 C247 1.672 . S
C497 C57 1.667 . S
C529 C69 1.682 . S
C537 C163 1.671 . S
C569 C327 1.671 . S
C561 C33 1.683 . S
C601 C411 1.661 . S
C593 C45 1.684 . S
C625 C9 1.666 . S
C633 C404 1.671 . S
C657 C21 1.662 . S
C665 C320 1.673 . S
C697 C154 1.471 . S
C689 C18 1.606 . S
C729 C238 1.438 . S
C721 C6 1.618 . S
C761 C249 1.400 . S
C753 C42 1.608 . S
C793 C165 1.419 . S
C785 C30 1.601 . S
C825 C333 1.465 . S
C817 C66 1.606 . S
C849 C54 1.606 . S
C857 C417 1.463 . S
C889 C406 1.418 . S
C881 C90 1.614 . S
C913 C78 1.626 . S
C921 C322 1.381 . S
C953 C152 1.538 . S
C945 C4 1.501 . S
C985 C236 1.539 . S
C977 C16 1.529 . S
C1009 C28 1.499 . S
C1017 C243 1.500 . S
C1049 C159 1.504 . S
C1041 C40 1.501 . S
C1081 C331 1.535 . S
C1073 C52 1.530 . S
C1105 C64 1.523 . S
C1113 C415 1.534 . S
C1137 C76 1.500 . S
C1145 C422 1.507 . S
C1169 C88 1.515 . S
C1177 C338 1.508 . S
