# Generated by pormake.
# Topology ptr, (4,4)-cn, num edge types: 1
# Building blocks:
#     Node 0, Type 0, BuildingBlock: UXUYUI_clean_sbu_0, # of connection points: 4
#     Node 1, Type 0, BuildingBlock: UXUYUI_clean_sbu_0, # of connection points: 4
#     Node 2, Type 0, BuildingBlock: UXUYUI_clean_sbu_0, # of connection points: 4
#     Node 3, Type 0, BuildingBlock: UXUYUI_clean_sbu_0, # of connection points: 4
#     Node 4, Type 0, BuildingBlock: UXUYUI_clean_sbu_0, # of connection points: 4
#     Node 5, Type 0, BuildingBlock: UXUYUI_clean_sbu_0, # of connection points: 4
#     Node 6, Type 0, BuildingBlock: UXUYUI_clean_sbu_0, # of connection points: 4
#     Node 7, Type 0, BuildingBlock: UXUYUI_clean_sbu_0, # of connection points: 4
#     Node 8, Type 0, BuildingBlock: UXUYUI_clean_sbu_0, # of connection points: 4
#     Node 9, Type 0, BuildingBlock: UXUYUI_clean_sbu_0, # of connection points: 4
#     Node 10, Type 0, BuildingBlock: UXUYUI_clean_sbu_0, # of connection points: 4
#     Node 11, Type 0, BuildingBlock: UXUYUI_clean_sbu_0, # of connection points: 4
#     Node 12, Type 0, BuildingBlock: UXUYUI_clean_sbu_0, # of connection points: 4
#     Node 13, Type 0, BuildingBlock: UXUYUI_clean_sbu_0, # of connection points: 4
#     Node 14, Type 0, BuildingBlock: UXUYUI_clean_sbu_0, # of connection points: 4
#     Node 15, Type 0, BuildingBlock: UXUYUI_clean_sbu_0, # of connection points: 4
#     Node 16, Type 0, BuildingBlock: UXUYUI_clean_sbu_0, # of connection points: 4
#     Node 17, Type 0, BuildingBlock: UXUYUI_clean_sbu_0, # of connection points: 4
#     Node 18, Type 1, BuildingBlock: NAHDIM_clean_linker_0, # of connection points: 4
#     Node 19, Type 1, BuildingBlock: NAHDIM_clean_linker_0, # of connection points: 4
#     Node 20, Type 1, BuildingBlock: NAHDIM_clean_linker_0, # of connection points: 4
#     Node 21, Type 1, BuildingBlock: NAHDIM_clean_linker_0, # of connection points: 4
#     Node 22, Type 1, BuildingBlock: NAHDIM_clean_linker_0, # of connection points: 4
#     Node 23, Type 1, BuildingBlock: NAHDIM_clean_linker_0, # of connection points: 4
#     Node 24, Type 1, BuildingBlock: NAHDIM_clean_linker_0, # of connection points: 4
#     Node 25, Type 1, BuildingBlock: NAHDIM_clean_linker_0, # of connection points: 4
#     Node 26, Type 1, BuildingBlock: NAHDIM_clean_linker_0, # of connection points: 4
#     Node 27, Type 1, BuildingBlock: NAHDIM_clean_linker_0, # of connection points: 4
#     Node 28, Type 1, BuildingBlock: NAHDIM_clean_linker_0, # of connection points: 4
#     Node 29, Type 1, BuildingBlock: NAHDIM_clean_linker_0, # of connection points: 4
#     Node 30, Type 1, BuildingBlock: NAHDIM_clean_linker_0, # of connection points: 4
#     Node 31, Type 1, BuildingBlock: NAHDIM_clean_linker_0, # of connection points: 4
#     Node 32, Type 1, BuildingBlock: NAHDIM_clean_linker_0, # of connection points: 4
#     Node 33, Type 1, BuildingBlock: NAHDIM_clean_linker_0, # of connection points: 4
#     Node 34, Type 1, BuildingBlock: NAHDIM_clean_linker_0, # of connection points: 4
#     Node 35, Type 1, BuildingBlock: NAHDIM_clean_linker_0, # of connection points: 4
#     Edge 36, Type (0, 1), None
#     Edge 37, Type (0, 1), None
#     Edge 38, Type (0, 1), None
#     Edge 39, Type (0, 1), None
#     Edge 40, Type (0, 1), None
#     Edge 41, Type (0, 1), None
#     Edge 42, Type (0, 1), None
#     Edge 43, Type (0, 1), None
#     Edge 44, Type (0, 1), None
#     Edge 45, Type (0, 1), None
#     Edge 46, Type (0, 1), None
#     Edge 47, Type (0, 1), None
#     Edge 48, Type (0, 1), None
#     Edge 49, Type (0, 1), None
#     Edge 50, Type (0, 1), None
#     Edge 51, Type (0, 1), None
#     Edge 52, Type (0, 1), None
#     Edge 53, Type (0, 1), None
#     Edge 54, Type (0, 1), None
#     Edge 55, Type (0, 1), None
#     Edge 56, Type (0, 1), None
#     Edge 57, Type (0, 1), None
#     Edge 58, Type (0, 1), None
#     Edge 59, Type (0, 1), None
#     Edge 60, Type (0, 1), None
#     Edge 61, Type (0, 1), None
#     Edge 62, Type (0, 1), None
#     Edge 63, Type (0, 1), None
#     Edge 64, Type (0, 1), None
#     Edge 65, Type (0, 1), None
#     Edge 66, Type (0, 1), None
#     Edge 67, Type (0, 1), None
#     Edge 68, Type (0, 1), None
#     Edge 69, Type (0, 1), None
#     Edge 70, Type (0, 1), None
#     Edge 71, Type (0, 1), None
#     Edge 72, Type (0, 1), None
#     Edge 73, Type (0, 1), None
#     Edge 74, Type (0, 1), None
#     Edge 75, Type (0, 1), None
#     Edge 76, Type (0, 1), None
#     Edge 77, Type (0, 1), None
#     Edge 78, Type (0, 1), None
#     Edge 79, Type (0, 1), None
#     Edge 80, Type (0, 1), None
#     Edge 81, Type (0, 1), None
#     Edge 82, Type (0, 1), None
#     Edge 83, Type (0, 1), None
#     Edge 84, Type (0, 1), None
#     Edge 85, Type (0, 1), None
#     Edge 86, Type (0, 1), None
#     Edge 87, Type (0, 1), None
#     Edge 88, Type (0, 1), None
#     Edge 89, Type (0, 1), None
#     Edge 90, Type (0, 1), None
#     Edge 91, Type (0, 1), None
#     Edge 92, Type (0, 1), None
#     Edge 93, Type (0, 1), None
#     Edge 94, Type (0, 1), None
#     Edge 95, Type (0, 1), None
#     Edge 96, Type (0, 1), None
#     Edge 97, Type (0, 1), None
#     Edge 98, Type (0, 1), None
#     Edge 99, Type (0, 1), None
#     Edge 100, Type (0, 1), None
#     Edge 101, Type (0, 1), None
#     Edge 102, Type (0, 1), None
#     Edge 103, Type (0, 1), None
#     Edge 104, Type (0, 1), None
#     Edge 105, Type (0, 1), None
#     Edge 106, Type (0, 1), None
#     Edge 107, Type (0, 1), None
# Relax obj value: 0.120
# Max RMSD: 0.338
# Mean RMSD: 0.137
data_MOF--net-ptr--node1-UXUYUI_clean_sbu_0--node2-NAHDIM_clean_linker_0--edge1-none
_symmetry_space_group_name_H-M    P1
_symmetry_Int_Tables_number       1
_symmetry_cell_setting            triclinic
loop_
_symmetry_equiv_pos_as_xyz
'x, y, z'
_cell_length_a     73.482575
_cell_length_b     73.326547
_cell_length_c     60.298597
_cell_angle_alpha  91.011975
_cell_angle_beta   90.388937
_cell_angle_gamma 120.4286
loop_
_atom_site_label
_atom_site_type_symbol
_atom_site_fract_x
_atom_site_fract_y
_atom_site_fract_z
_atom_type_partial_charge
Li0 Li 0.98975 0.32247 0.99654 0.0
Li1 Li 0.02318 0.3394 0.01418 0.0
Li2 Li 0.99754 0.34897 0.02645 0.0
Li3 Li 0.01357 0.35995 0.98975 0.0
C4 C 0.99925 0.30982 0.04341 0.0
N5 N 0.00703 0.28689 0.0741 0.0
C6 C 0.00291 0.29369 0.03637 0.0
C7 C 0.9994 0.31414 0.0661 0.0
C8 C 0.00676 0.28226 0.05212 0.0
C9 C 0.00349 0.30248 0.08134 0.0
C10 C 0.01543 0.32408 0.96334 0.0
C11 C 0.01419 0.31987 0.92348 0.0
N12 N 0.01074 0.29993 0.92564 0.0
C13 C 0.01204 0.30359 0.96515 0.0
C14 C 0.01669 0.33234 0.94233 0.0
C15 C 0.00965 0.29163 0.94591 0.0
C16 C 0.9642 0.29493 0.96151 0.0
N17 N 0.96919 0.29625 0.98344 0.0
C18 C 0.95188 0.25871 0.98555 0.0
C19 C 0.96226 0.27869 0.99576 0.0
C20 C 0.94833 0.25691 0.96254 0.0
C21 C 0.9537 0.27522 0.9506 0.0
H22 H 0.96976 0.30922 0.9522 0.0
H23 H 0.96576 0.28019 0.01331 0.0
C24 C 0.05064 0.33883 0.04628 0.0
N25 N 0.04473 0.33458 0.02454 0.0
C26 C 0.06209 0.33053 0.05596 0.0
C27 C 0.06261 0.31524 0.02024 0.0
C28 C 0.05125 0.32392 0.01125 0.0
C29 C 0.06745 0.31785 0.04303 0.0
H30 H 0.04514 0.34733 0.0564 0.0
H31 H 0.0466 0.32111 0.99396 0.0
C32 C 0.96192 0.33786 0.99813 0.0
N33 N 0.91888 0.32171 -0.0 0.0
C34 C 0.95264 0.34763 0.98678 0.0
C35 C 0.94928 0.31978 0.01032 0.0
C36 C 0.93086 0.33925 0.98797 0.0
C37 C 0.92756 0.31189 0.01109 0.0
C38 C 0.0487 0.38316 0.01911 0.0
C39 C 0.05717 0.40093 0.03333 0.0
C40 C 0.06191 0.38044 0.00451 0.0
C41 C 0.0787 0.41585 0.03252 0.0
C42 C 0.08335 0.39572 0.00422 0.0
N43 N 0.09123 0.41296 0.0181 0.0
C44 C 0.00355 0.36687 0.06838 0.0
C45 C 0.96993 0.35732 0.05328 0.0
C46 C 0.9994 0.37472 0.08772 0.0
N47 N 0.98886 0.35829 0.05171 0.0
C48 C 0.96506 0.36486 0.07239 0.0
C49 C 0.97991 0.37373 0.08989 0.0
H50 H 0.01857 0.36766 0.06657 0.0
H51 H 0.95866 0.35105 0.03973 0.0
C52 C 0.00584 0.37605 0.95215 0.0
N53 N 0.02088 0.3811 0.96815 0.0
C54 C 0.00902 0.39023 0.93545 0.0
C55 C 0.04311 0.41468 0.95199 0.0
C56 C 0.03917 0.40012 0.96853 0.0
C57 C 0.02799 0.40974 0.93508 0.0
H58 H 0.99136 0.3609 0.95237 0.0
H59 H 0.05069 0.40424 0.98164 0.0
O60 O 0.99518 0.32104 0.02821 0.0
O61 O 0.01802 0.33619 0.98198 0.0
O62 O 0.98317 0.34564 0.99672 0.0
O63 O 0.02774 0.36819 0.0201 0.0
H64 H 0.00288 0.29008 0.01892 0.0
H65 H 0.99629 0.32629 0.07192 0.0
H66 H 0.0095 0.2697 0.04686 0.0
H67 H 0.00375 0.30574 0.09894 0.0
H68 H 0.01509 0.32607 0.90713 0.0
H69 H 0.01098 0.29687 0.98121 0.0
H70 H 0.01973 0.34827 0.94054 0.0
H71 H 0.00692 0.27574 0.9471 0.0
H72 H 0.94762 0.24493 0.99537 0.0
H73 H 0.95096 0.27438 0.93285 0.0
H74 H 0.06557 0.33288 0.07361 0.0
H75 H 0.06659 0.30567 0.00975 0.0
H76 H 0.96218 0.36155 0.97716 0.0
H77 H 0.95616 0.31205 0.01932 0.0
H78 H 0.92347 0.34668 0.97931 0.0
H79 H 0.91761 0.29798 0.02054 0.0
H80 H 0.0472 0.40316 0.04487 0.0
H81 H 0.0557 0.3668 0.99339 0.0
H82 H 0.08547 0.42971 0.04339 0.0
H83 H 0.09372 0.39387 0.99293 0.0
H84 H 0.0114 0.38176 0.10071 0.0
H85 H 0.94998 0.36411 0.0733 0.0
H86 H 0.99679 0.38597 0.92293 0.0
H87 H 0.05779 0.42971 0.9525 0.0
Li88 Li 0.67806 0.66492 0.00421 0.0
Li89 Li 0.65691 0.67543 0.02541 0.0
Li90 Li 0.6463 0.63766 0.0216 0.0
Li91 Li 0.64158 0.65588 0.98976 0.0
C92 C 0.68953 0.66781 0.0495 0.0
N93 N 0.72561 0.68069 0.07505 0.0
C94 C 0.70802 0.68679 0.04516 0.0
C95 C 0.68931 0.65561 0.06717 0.0
C96 C 0.72611 0.69297 0.05816 0.0
C97 C 0.70772 0.66232 0.07981 0.0
C98 C 0.67218 0.70458 0.99442 0.0
C99 C 0.66136 0.73015 0.98804 0.0
N100 N 0.68066 0.7459 0.99525 0.0
C101 C 0.69197 0.72108 0.0016 0.0
C102 C 0.6568 0.70919 0.98745 0.0
C103 C 0.69593 0.74183 0.00197 0.0
C104 C 0.7146 0.68988 0.98076 0.0
N105 N 0.70571 0.67343 0.9948 0.0
C106 C 0.73723 0.6716 0.99584 0.0
C107 C 0.71639 0.664 0.00217 0.0
C108 C 0.74716 0.68927 0.98214 0.0
C109 C 0.73544 0.69819 0.97432 0.0
H110 H 0.70556 0.69673 0.97473 0.0
H111 H 0.70884 0.65083 0.01323 0.0
C112 C 0.6758 0.71239 0.05327 0.0
N113 N 0.65771 0.69788 0.04257 0.0
C114 C 0.67807 0.73146 0.06116 0.0
C115 C 0.6425 0.71963 0.04821 0.0
C116 C 0.64107 0.70098 0.04022 0.0
C117 C 0.66134 0.73537 0.05842 0.0
H118 H 0.68898 0.70982 0.05442 0.0
H119 H 0.62718 0.68956 0.03091 0.0
C120 C 0.64795 0.61723 0.98623 0.0
N121 N 0.63293 0.57454 0.9797 0.0
C122 C 0.6267 0.60351 0.98064 0.0
C123 C 0.66159 0.6093 0.98839 0.0
C124 C 0.6194 0.58195 0.97745 0.0
C125 C 0.65368 0.58765 0.98504 0.0
C126 C 0.60893 0.64283 0.02767 0.0
C127 C 0.59079 0.63077 0.0145 0.0
C128 C 0.60696 0.64703 0.04994 0.0
C129 C 0.57096 0.62317 0.02381 0.0
C130 C 0.58682 0.63923 0.05862 0.0
N131 N 0.5694 0.62757 0.04549 0.0
C132 C 0.60855 0.59566 0.03383 0.0
C133 C 0.6516 0.60437 0.04402 0.0
C134 C 0.59565 0.57002 0.04514 0.0
N135 N 0.63427 0.61032 0.03494 0.0
C136 C 0.64314 0.57955 0.05647 0.0
C137 C 0.61427 0.56533 0.06172 0.0
H138 H 0.59923 0.60127 0.02592 0.0
H139 H 0.66826 0.61542 0.04224 0.0
C140 C 0.62796 0.6445 0.94569 0.0
N141 N 0.62473 0.65268 0.96462 0.0
C142 C 0.61467 0.64006 0.92728 0.0
C143 C 0.59546 0.65327 0.94799 0.0
C144 C 0.60922 0.65757 0.96595 0.0
C145 C 0.59778 0.64388 0.92856 0.0
H146 H 0.64054 0.64092 0.94512 0.0
H147 H 0.60713 0.66421 0.98122 0.0
O148 O 0.67177 0.66106 0.03653 0.0
O149 O 0.66775 0.68403 0.99456 0.0
O150 O 0.65524 0.63826 0.99004 0.0
O151 O 0.62848 0.65099 0.0186 0.0
H152 H 0.70847 0.69655 0.03175 0.0
H153 H 0.67502 0.64118 0.07123 0.0
H154 H 0.74057 0.70752 0.05479 0.0
H155 H 0.70778 0.65294 0.09343 0.0
H156 H 0.64953 0.73389 0.98284 0.0
H157 H 0.70413 0.71793 0.00705 0.0
H158 H 0.64142 0.69672 0.98189 0.0
H159 H 0.71111 0.7547 0.00766 0.0
H160 H 0.74553 0.6639 0.00176 0.0
H161 H 0.74233 0.71151 0.96337 0.0
H162 H 0.69303 0.74327 0.06854 0.0
H163 H 0.62942 0.72223 0.04543 0.0
H164 H 0.61591 0.6094 0.97911 0.0
H165 H 0.67806 0.61972 0.99278 0.0
H166 H 0.60297 0.57111 0.97327 0.0
H167 H 0.66403 0.58126 0.98674 0.0
H168 H 0.59199 0.62691 0.99739 0.0
H169 H 0.62083 0.65638 0.06035 0.0
H170 H 0.55681 0.61375 0.01382 0.0
H171 H 0.58504 0.64249 0.07578 0.0
H172 H 0.57869 0.56095 0.04686 0.0
H173 H 0.65406 0.57619 0.06503 0.0
H174 H 0.6171 0.63306 0.91246 0.0
H175 H 0.58277 0.65666 0.94948 0.0
Li176 Li 0.34214 0.99678 0.98627 0.0
Li177 Li 0.34811 0.01111 0.02498 0.0
Li178 Li 0.31259 0.98948 0.01048 0.0
Li179 Li 0.33381 0.02458 0.99877 0.0
C180 C 0.3252 0.96447 0.0279 0.0
N181 N 0.30511 0.93052 0.05569 0.0
C182 C 0.32221 0.96775 0.05017 0.0
C183 C 0.3178 0.94389 0.01973 0.0
C184 C 0.31208 0.95039 0.06396 0.0
C185 C 0.30773 0.92695 0.03406 0.0
C186 C 0.38241 0.03591 0.00419 0.0
C187 C 0.41227 0.06327 0.02497 0.0
N188 N 0.42375 0.05414 0.01924 0.0
C189 C 0.39453 0.0268 0.99851 0.0
C190 C 0.39136 0.05431 0.01752 0.0
C191 C 0.41539 0.03626 0.00626 0.0
C192 C 0.36257 0.00107 0.94614 0.0
N193 N 0.3536 0.98786 0.96333 0.0
C194 C 0.36416 0.96419 0.94874 0.0
C195 C 0.35424 0.96973 0.96497 0.0
C196 C 0.37375 0.97761 0.93086 0.0
C197 C 0.3729 0.9963 0.92969 0.0
H198 H 0.36212 0.01557 0.94553 0.0
H199 H 0.34746 0.95983 0.97911 0.0
C200 C 0.37067 0.03013 0.06629 0.0
N201 N 0.36661 0.01588 0.04952 0.0
C202 C 0.38455 0.03267 0.0836 0.0
C203 C 0.3892 0.00531 0.06639 0.0
C204 C 0.37567 0.00369 0.04922 0.0
C205 C 0.39379 0.01992 0.08404 0.0
H206 H 0.36321 0.03955 0.0663 0.0
H207 H 0.37227 0.99258 0.03558 0.0
C208 C 0.29839 0.98459 0.96884 0.0
N209 N 0.26098 0.95498 0.94815 0.0
C210 C 0.27966 0.98441 0.97335 0.0
C211 C 0.29811 0.96981 0.95367 0.0
C212 C 0.2609 0.96927 0.96277 0.0
C213 C 0.27904 0.95495 0.94341 0.0
C214 C 0.31906 0.03074 0.03442 0.0
C215 C 0.29838 0.02664 0.03163 0.0
C216 C 0.33495 0.05099 0.04132 0.0
C217 C 0.29393 0.04273 0.03608 0.0
C218 C 0.32988 0.06669 0.0455 0.0
N219 N 0.30964 0.06226 0.04285 0.0
C220 C 0.2764 0.97041 0.03702 0.0
C221 C 0.27552 0.94828 0.00748 0.0
C222 C 0.25648 0.95486 0.04377 0.0
N223 N 0.28518 0.96719 0.01872 0.0
C224 C 0.25574 0.93208 0.01391 0.0
C225 C 0.24568 0.9354 0.03198 0.0
H226 H 0.28497 0.98499 0.04661 0.0
H227 H 0.28325 0.9457 0.99361 0.0
C228 C 0.31463 0.04717 0.98383 0.0
N229 N 0.33356 0.04915 0.98911 0.0
C230 C 0.31317 0.06503 0.97967 0.0
C231 C 0.351 0.08657 0.98481 0.0
C232 C 0.35167 0.06827 0.98915 0.0
C233 C 0.33152 0.08512 0.98035 0.0
H234 H 0.30049 0.03181 0.98381 0.0
H235 H 0.36656 0.06941 0.99312 0.0
O236 O 0.33451 0.98125 0.01399 0.0
O237 O 0.36175 0.02655 0.99724 0.0
O238 O 0.31695 0.99926 0.97902 0.0
O239 O 0.32385 0.01527 0.02977 0.0
H240 H 0.3273 0.98348 0.05668 0.0
H241 H 0.31943 0.94094 0.00245 0.0
H242 H 0.30962 0.95271 0.08121 0.0
H243 H 0.30188 0.91094 0.02793 0.0
H244 H 0.41932 0.07742 0.03542 0.0
H245 H 0.38788 0.01244 0.98847 0.0
H246 H 0.38218 0.06141 0.02245 0.0
H247 H 0.42491 0.02933 0.00205 0.0
H248 H 0.36465 0.94976 0.95036 0.0
H249 H 0.38037 0.00722 0.91636 0.0
H250 H 0.38791 0.04437 0.09661 0.0
H251 H 0.39596 0.9952 0.06564 0.0
H252 H 0.27947 0.99549 0.98527 0.0
H253 H 0.31244 0.96974 0.94989 0.0
H254 H 0.24626 0.96881 0.96628 0.0
H255 H 0.27859 0.94338 0.93169 0.0
H256 H 0.28595 0.01141 0.02549 0.0
H257 H 0.35113 0.05478 0.04284 0.0
H258 H 0.27803 0.03976 0.03388 0.0
H259 H 0.34208 0.08245 0.05066 0.0
H260 H 0.24981 0.95813 0.05819 0.0
H261 H 0.24832 0.91712 0.00479 0.0
H262 H 0.29777 0.06312 0.97649 0.0
H263 H 0.36548 0.10179 0.98549 0.0
Li264 Li 0.01793 0.66891 0.02047 0.0
Li265 Li 0.99402 0.63226 0.02354 0.0
Li266 Li 0.01429 0.64448 0.99052 0.0
Li267 Li 0.98425 0.65109 0.99748 0.0
C268 C 0.04449 0.65803 0.03182 0.0
N269 N 0.08305 0.68287 0.05326 0.0
C270 C 0.04601 0.65839 0.05498 0.0
C271 C 0.06265 0.67034 0.01963 0.0
C272 C 0.06562 0.67103 0.0655 0.0
C273 C 0.08198 0.68278 0.03074 0.0
C274 C 0.97403 0.64813 0.04659 0.0
C275 C 0.93835 0.63329 0.05936 0.0
N276 N 0.94506 0.63273 0.08028 0.0
C277 C 0.98059 0.6475 0.06825 0.0
C278 C 0.95275 0.64101 0.0421 0.0
C279 C 0.96569 0.6396 0.08503 0.0
C280 C 0.04045 0.71326 0.02325 0.0
N281 N 0.03416 0.69567 0.03542 0.0
C282 C 0.0422 0.71612 0.06914 0.0
C283 C 0.03511 0.69681 0.05797 0.0
C284 C 0.04793 0.73437 0.05699 0.0
C285 C 0.0475 0.73288 0.03374 0.0
H286 H 0.03871 0.7119 0.00542 0.0
H287 H 0.02922 0.68261 0.06737 0.0
C288 C 0.99587 0.60682 0.05686 0.0
N289 N 0.98211 0.60971 0.0444 0.0
C290 C 0.98894 0.59414 0.07543 0.0
C291 C 0.95328 0.5852 0.06628 0.0
C292 C 0.96102 0.59858 0.04823 0.0
C293 C 0.9675 0.58373 0.08086 0.0
H294 H 0.0124 0.61502 0.0529 0.0
H295 H 0.95027 0.60087 0.03798 0.0
C296 C 0.02393 0.68035 0.96937 0.0
N297 N 0.04439 0.69753 0.93024 0.0
C298 C 0.01232 0.67823 0.95006 0.0
C299 C 0.04598 0.69154 0.96883 0.0
C300 C 0.02294 0.68695 0.93044 0.0
C301 C 0.05602 0.7 0.94888 0.0
C302 C 0.96962 0.60308 0.99272 0.0
C303 C 0.97722 0.58914 0.99449 0.0
C304 C 0.94788 0.59523 0.9919 0.0
C305 C 0.96286 0.56746 0.99575 0.0
C306 C 0.93403 0.57345 0.99317 0.0
N307 N 0.94175 0.56014 0.99508 0.0
C308 C 0.0445 0.63729 0.96708 0.0
C309 C 0.01586 0.63495 0.94633 0.0
C310 C 0.05328 0.63446 0.94773 0.0
N311 N 0.02646 0.63814 0.9659 0.0
C312 C 0.02408 0.63219 0.92663 0.0
C313 C 0.04316 0.6322 0.92714 0.0
H314 H 0.05225 0.63909 0.98292 0.0
H315 H 0.00124 0.63513 0.94598 0.0
C316 C 0.96711 0.67603 0.99282 0.0
N317 N 0.96547 0.65802 0.98421 0.0
C318 C 0.95824 0.68613 0.98156 0.0
C319 C 0.94553 0.6585 0.9531 0.0
C320 C 0.95455 0.6488 0.96506 0.0
C321 C 0.94769 0.67764 0.96121 0.0
H322 H 0.97645 0.68323 0.00777 0.0
H323 H 0.9542 0.63486 0.95828 0.0
O324 O 0.02536 0.64587 0.02117 0.0
O325 O 0.98832 0.6556 0.02985 0.0
O326 O 0.01379 0.67144 0.98865 0.0
O327 O 0.9834 0.62434 0.99168 0.0
H328 H 0.03214 0.64946 0.06486 0.0
H329 H 0.06188 0.6704 0.00177 0.0
H330 H 0.06694 0.67154 0.08341 0.0
H331 H 0.09612 0.69239 0.02145 0.0
H332 H 0.92182 0.62766 0.05611 0.0
H333 H 0.99689 0.65255 0.07198 0.0
H334 H 0.94735 0.64125 0.02543 0.0
H335 H 0.97051 0.63881 0.10181 0.0
H336 H 0.04216 0.71661 0.0871 0.0
H337 H 0.0516 0.74656 0.0238 0.0
H338 H 0.0004 0.59309 0.08588 0.0
H339 H 0.93651 0.57695 0.06929 0.0
H340 H 0.99529 0.6697 0.95009 0.0
H341 H 0.05526 0.69378 0.98367 0.0
H342 H 0.01411 0.68525 0.91534 0.0
H343 H 0.07307 0.70858 0.94823 0.0
H344 H 0.99404 0.59503 0.99508 0.0
H345 H 0.9418 0.60588 0.99053 0.0
H346 H 0.96849 0.55646 0.99727 0.0
H347 H 0.91716 0.56713 0.99271 0.0
H348 H 0.06802 0.63452 0.94875 0.0
H349 H 0.01582 0.63048 0.91109 0.0
H350 H 0.96057 0.70104 0.9881 0.0
H351 H 0.93793 0.65174 0.9372 0.0
Li352 Li 0.33623 0.35478 0.02197 0.0
Li353 Li 0.37113 0.36145 0.02451 0.0
Li354 Li 0.36094 0.37823 0.99444 0.0
Li355 Li 0.34862 0.33925 0.99486 0.0
C356 C 0.35435 0.3927 0.04092 0.0
N357 N 0.33875 0.41214 0.06824 0.0
C358 C 0.34853 0.38593 0.06262 0.0
C359 C 0.35212 0.40934 0.03314 0.0
C360 C 0.34069 0.39595 0.07616 0.0
C361 C 0.34426 0.41898 0.0472 0.0
C362 C 0.35015 0.32509 0.04339 0.0
C363 C 0.36754 0.30675 0.05642 0.0
N364 N 0.36249 0.30887 0.07759 0.0
C365 C 0.34497 0.32691 0.06527 0.0
C366 C 0.36135 0.31474 0.0389 0.0
C367 C 0.35138 0.31864 0.08233 0.0
C368 C 0.29911 0.32712 0.04329 0.0
N369 N 0.31036 0.34739 0.03637 0.0
C370 C 0.28175 0.35294 0.0446 0.0
C371 C 0.30206 0.36028 0.03678 0.0
C372 C 0.26983 0.33208 0.05187 0.0
C373 C 0.27873 0.31909 0.05112 0.0
H374 H 0.30558 0.31682 0.04176 0.0
H375 H 0.31075 0.37591 0.03006 0.0
C376 C 0.40914 0.36248 0.03668 0.0
N377 N 0.39339 0.36543 0.04423 0.0
C378 C 0.42371 0.36233 0.05158 0.0
C379 C 0.40586 0.36874 0.08158 0.0
C380 C 0.39193 0.36914 0.06611 0.0
C381 C 0.42182 0.36499 0.07442 0.0
H382 H 0.41 0.3596 0.0192 0.0
H383 H 0.37935 0.37147 0.07171 0.0
C384 C 0.31235 0.34828 0.98569 0.0
N385 N 0.27056 0.33708 0.98039 0.0
C386 C 0.29644 0.32703 0.98634 0.0
C387 C 0.30705 0.36382 0.98217 0.0
C388 C 0.27539 0.3217 0.9837 0.0
C389 C 0.28581 0.35783 0.97954 0.0
C390 C 0.38486 0.35722 0.97438 0.0
C391 C 0.38826 0.36736 0.95414 0.0
C392 C 0.38815 0.34012 0.9762 0.0
C393 C 0.39459 0.36001 0.93593 0.0
C394 C 0.39444 0.33322 0.95761 0.0
N395 N 0.39749 0.34321 0.93802 0.0
C396 C 0.38238 0.42156 0.98198 0.0
C397 C 0.358 0.39667 0.95559 0.0
C398 C 0.38587 0.43832 0.96848 0.0
N399 N 0.36824 0.4013 0.97555 0.0
C400 C 0.36132 0.41285 0.94141 0.0
C401 C 0.37505 0.43402 0.94797 0.0
H402 H 0.39043 0.42474 0.9979 0.0
H403 H 0.347 0.38037 0.95084 0.0
C404 C 0.32736 0.29571 0.98656 0.0
N405 N 0.33789 0.31463 0.97642 0.0
C406 C 0.31494 0.27717 0.9741 0.0
C407 C 0.3252 0.2978 0.94085 0.0
C408 C 0.3372 0.31602 0.95401 0.0
C409 C 0.31335 0.27814 0.95099 0.0
H410 H 0.32755 0.29513 0.00444 0.0
H411 H 0.34509 0.33135 0.94646 0.0
O412 O 0.3623 0.38325 0.02745 0.0
O413 O 0.34456 0.33364 0.02651 0.0
O414 O 0.33299 0.35389 0.98896 0.0
O415 O 0.37846 0.36407 0.99234 0.0
H416 H 0.34956 0.37277 0.06883 0.0
H417 H 0.35613 0.41462 0.01635 0.0
H418 H 0.33602 0.39076 0.09292 0.0
H419 H 0.34243 0.43183 0.04134 0.0
H420 H 0.3764 0.29891 0.05319 0.0
H421 H 0.33635 0.33488 0.06911 0.0
H422 H 0.36538 0.31307 0.02209 0.0
H423 H 0.34763 0.3201 0.09934 0.0
H424 H 0.27513 0.36319 0.04426 0.0
H425 H 0.26977 0.3027 0.05586 0.0
H426 H 0.43592 0.35952 0.04544 0.0
H427 H 0.40393 0.37093 0.09904 0.0
H428 H 0.30027 0.31483 0.98922 0.0
H429 H 0.31917 0.38036 0.98185 0.0
H430 H 0.2629 0.30534 0.98438 0.0
H431 H 0.28145 0.36969 0.97696 0.0
H432 H 0.38608 0.38078 0.95247 0.0
H433 H 0.38567 0.33214 0.99173 0.0
H434 H 0.3972 0.36766 0.92015 0.0
H435 H 0.39689 0.3199 0.95875 0.0
H436 H 0.39663 0.45437 0.97425 0.0
H437 H 0.35281 0.4089 0.92568 0.0
H438 H 0.30602 0.26235 0.98255 0.0
H439 H 0.3244 0.29916 0.92307 0.0
Li440 Li 0.65333 0.98559 0.0111 0.0
Li441 Li 0.64551 0.01384 0.01591 0.0
Li442 Li 0.63726 0.99531 0.98162 0.0
Li443 Li 0.6744 0.02062 0.99171 0.0
C444 C 0.61476 0.97346 0.02942 0.0
N445 N 0.59418 0.95391 0.0677 0.0
C446 C 0.62583 0.9785 0.04964 0.0
C447 C 0.59318 0.95855 0.02869 0.0
C448 C 0.61518 0.96838 0.0688 0.0
C449 C 0.58305 0.94886 0.04822 0.0
C450 C 0.68564 0.02787 0.03984 0.0
C451 C 0.71278 0.06272 0.05228 0.0
N452 N 0.71404 0.05469 0.07202 0.0
C453 C 0.68737 0.01992 0.06016 0.0
C454 C 0.69858 0.04941 0.03578 0.0
C455 C 0.70174 0.03376 0.07625 0.0
C456 C 0.67698 0.96987 0.03048 0.0
N457 N 0.65692 0.96438 0.0246 0.0
C458 C 0.64372 0.9296 0.03826 0.0
C459 C 0.64038 0.94464 0.02805 0.0
C460 C 0.66424 0.9349 0.04486 0.0
C461 C 0.68106 0.95527 0.04052 0.0
H462 H 0.68984 0.98562 0.02722 0.0
H463 H 0.62464 0.94055 0.02281 0.0
C464 C 0.60911 0.01589 0.03074 0.0
N465 N 0.63433 0.02619 0.03597 0.0
C466 C 0.59398 0.02395 0.04648 0.0
C467 C 0.6385 0.05621 0.07192 0.0
C468 C 0.64949 0.0451 0.05371 0.0
C469 C 0.60911 0.04044 0.07111 0.0
H470 H 0.60152 0.004 0.01768 0.0
H471 H 0.66616 0.05081 0.05467 0.0
C472 C 0.65792 0.98055 0.95998 0.0
N473 N 0.64768 0.95946 0.91936 0.0
C474 C 0.6669 0.99164 0.94068 0.0
C475 C 0.64388 0.95874 0.95871 0.0
C476 C 0.66149 0.98068 0.92028 0.0
C477 C 0.63886 0.94837 0.93799 0.0
C478 C 0.64463 0.04038 0.98797 0.0
C479 C 0.62424 0.03485 0.98104 0.0
C480 C 0.6579 0.06033 0.99773 0.0
C481 C 0.61739 0.04933 0.98419 0.0
C482 C 0.65045 0.07435 0.00061 0.0
N483 N 0.63052 0.0686 0.99385 0.0
C484 C 0.60008 0.96591 0.95744 0.0
C485 C 0.62362 0.99711 0.93861 0.0
C486 C 0.58646 0.95834 0.93894 0.0
N487 N 0.61829 0.98492 0.95684 0.0
C488 C 0.61052 0.99014 0.91976 0.0
C489 C 0.59171 0.97049 0.91975 0.0
H490 H 0.5963 0.95655 0.97217 0.0
H491 H 0.63822 0.01218 0.93868 0.0
C492 C 0.71656 0.03412 0.98342 0.0
N493 N 0.70151 0.03956 0.98122 0.0
C494 C 0.737 0.04765 0.97617 0.0
C495 C 0.72597 0.07205 0.96454 0.0
C496 C 0.70569 0.05796 0.97183 0.0
C497 C 0.74193 0.06697 0.96674 0.0
H498 H 0.71264 0.0193 0.99091 0.0
H499 H 0.69331 0.06173 0.97016 0.0
O500 O 0.62484 0.98292 0.01032 0.0
O501 O 0.67204 0.01444 0.02369 0.0
O502 O 0.66242 0.9911 0.97999 0.0
O503 O 0.65145 0.02625 0.98545 0.0
H504 H 0.64243 0.9901 0.05058 0.0
H505 H 0.58435 0.95451 0.01317 0.0
H506 H 0.62359 0.97213 0.08454 0.0
H507 H 0.56636 0.93729 0.04789 0.0
H508 H 0.7228 0.07944 0.04939 0.0
H509 H 0.67783 0.00323 0.06346 0.0
H510 H 0.69759 0.05584 0.02015 0.0
H511 H 0.70319 0.02783 0.09207 0.0
H512 H 0.63043 0.91388 0.04081 0.0
H513 H 0.69719 0.95983 0.04475 0.0
H514 H 0.57694 0.0157 0.04516 0.0
H515 H 0.64753 0.06665 0.08568 0.0
H516 H 0.67772 0.00857 0.94145 0.0
H517 H 0.63674 0.94999 0.97354 0.0
H518 H 0.6682 0.98906 0.90516 0.0
H519 H 0.6279 0.93151 0.9367 0.0
H520 H 0.6137 0.01943 0.97358 0.0
H521 H 0.6737 0.06487 0.00324 0.0
H522 H 0.6016 0.04521 0.97903 0.0
H523 H 0.66051 0.08978 0.00828 0.0
H524 H 0.57216 0.94302 0.93946 0.0
H525 H 0.61518 -0.00012 0.90524 0.0
H526 H 0.74888 0.04318 0.97807 0.0
H527 H 0.72916 0.08679 0.95734 0.0
Li528 Li 0.65167 0.66076 0.32999 0.0
Li529 Li 0.67918 0.6743 0.35524 0.0
Li530 Li 0.65277 0.68399 0.36069 0.0
Li531 Li 0.6777 0.6977 0.32718 0.0
C532 C 0.649 0.64279 0.37834 0.0
N533 N 0.65011 0.61775 0.41153 0.0
C534 C 0.65461 0.62756 0.37355 0.0
C535 C 0.64336 0.64479 0.39995 0.0
C536 C 0.65525 0.6152 0.39055 0.0
C537 C 0.64416 0.63212 0.41652 0.0
C538 C 0.68191 0.66192 0.30466 0.0
C539 C 0.6865 0.65894 0.26541 0.0
N540 N 0.68073 0.6383 0.26778 0.0
C541 C 0.67647 0.64078 0.30674 0.0
C542 C 0.68732 0.67115 0.28386 0.0
C543 C 0.67578 0.62907 0.2879 0.0
C544 C 0.63159 0.63756 0.28993 0.0
N545 N 0.63328 0.63627 0.31224 0.0
C546 C 0.61272 0.59861 0.30999 0.0
C547 C 0.62342 0.61737 0.32245 0.0
C548 C 0.61196 0.59931 0.28678 0.0
C549 C 0.62068 0.61915 0.2768 0.0
H550 H 0.63941 0.65284 0.28225 0.0
H551 H 0.62442 0.61679 0.34024 0.0
C552 C 0.69863 0.67055 0.39431 0.0
N553 N 0.69725 0.66781 0.37188 0.0
C554 C 0.70837 0.6621 0.40705 0.0
C555 C 0.71575 0.64891 0.3733 0.0
C556 C 0.70626 0.65798 0.3612 0.0
C557 C 0.71623 0.65028 0.39657 0.0
H558 H 0.6912 0.67833 0.40238 0.0
H559 H 0.70518 0.65628 0.34336 0.0
C560 C 0.62689 0.67518 0.3182 0.0
N561 N 0.5876 0.65438 0.29752 0.0
C562 C 0.62385 0.68175 0.29759 0.0
C563 C 0.60985 0.65819 0.32842 0.0
C564 C 0.60389 0.67099 0.28737 0.0
C565 C 0.59015 0.64783 0.31766 0.0
C566 C 0.70327 0.71357 0.37039 0.0
C567 C 0.7059 0.72293 0.39146 0.0
C568 C 0.7206 0.71437 0.35996 0.0
C569 C 0.72575 0.73261 0.40191 0.0
C570 C 0.74019 0.72418 0.37098 0.0
N571 N 0.74233 0.733 0.39156 0.0
C572 C 0.64544 0.69563 0.40268 0.0
C573 C 0.62112 0.69284 0.37492 0.0
C574 C 0.63538 0.70123 0.41861 0.0
N575 N 0.63813 0.69143 0.38137 0.0
C576 C 0.61045 0.69825 0.39035 0.0
C577 C 0.61757 0.7025 0.41252 0.0
H578 H 0.65903 0.69443 0.40733 0.0
H579 H 0.6159 0.68997 0.35779 0.0
C580 C 0.68486 0.72005 0.28759 0.0
N581 N 0.69222 0.72156 0.30867 0.0
C582 C 0.69471 0.73724 0.27359 0.0
C583 C 0.71959 0.75731 0.30322 0.0
C584 C 0.7091 0.73979 0.31673 0.0
C585 C 0.71243 0.75614 0.28132 0.0
H586 H 0.67142 0.70541 0.28159 0.0
H587 H 0.71438 0.74088 0.33369 0.0
O588 O 0.6486 0.65535 0.36194 0.0
O589 O 0.68241 0.67365 0.32288 0.0
O590 O 0.64641 0.68522 0.32835 0.0
O591 O 0.68389 0.70371 0.35997 0.0
H592 H 0.65875 0.6255 0.35695 0.0
H593 H 0.63823 0.65585 0.40392 0.0
H594 H 0.65989 0.60361 0.38707 0.0
H595 H 0.63998 0.63366 0.43333 0.0
H596 H 0.69052 0.6659 0.24922 0.0
H597 H 0.67245 0.63335 0.32263 0.0
H598 H 0.69225 0.6876 0.28195 0.0
H599 H 0.67125 0.61261 0.28928 0.0
H600 H 0.6056 0.58366 0.31839 0.0
H601 H 0.61979 0.62044 0.25903 0.0
H602 H 0.7089 0.66397 0.42493 0.0
H603 H 0.72201 0.6403 0.36457 0.0
H604 H 0.6367 0.69506 0.28958 0.0
H605 H 0.6119 0.65291 0.34441 0.0
H606 H 0.60134 0.67587 0.27139 0.0
H607 H 0.57689 0.63456 0.32531 0.0
H608 H 0.69281 0.72283 0.39963 0.0
H609 H 0.71888 0.70729 0.34361 0.0
H610 H 0.72799 0.73985 0.41825 0.0
H611 H 0.75367 0.72476 0.36317 0.0
H612 H 0.64153 0.70469 0.43549 0.0
H613 H 0.59696 0.69934 0.38495 0.0
H614 H 0.68852 0.73579 0.25689 0.0
H615 H 0.73304 0.77167 0.3099 0.0
Li616 Li 0.31006 0.9821 0.33657 0.0
Li617 Li 0.31765 0.96786 0.36969 0.0
Li618 Li 0.33791 0.007 0.36272 0.0
Li619 Li 0.34398 0.98194 0.34141 0.0
C620 C 0.29235 0.99336 0.37308 0.0
N621 N 0.26214 0.004 0.3829 0.0
C622 C 0.27414 0.97924 0.38431 0.0
C623 C 0.29533 0.01303 0.36717 0.0
C624 C 0.25901 0.98487 0.38903 0.0
C625 C 0.27985 0.01808 0.3722 0.0
C626 C 0.30145 0.93625 0.3397 0.0
C627 C 0.29505 0.90186 0.34992 0.0
N628 N 0.27452 0.89319 0.34333 0.0
C629 C 0.28032 0.92699 0.3329 0.0
C630 C 0.30893 0.92358 0.34813 0.0
C631 C 0.26694 0.90519 0.3349 0.0
C632 C 0.2947 0.98195 0.29403 0.0
N633 N 0.28908 0.97893 0.31566 0.0
C634 C 0.25419 0.97111 0.30614 0.0
C635 C 0.26923 0.97341 0.32192 0.0
C636 C 0.25957 0.97428 0.28367 0.0
C637 C 0.28011 0.97962 0.27766 0.0
H638 H 0.31051 0.986 0.28949 0.0
H639 H 0.26488 0.97039 0.33907 0.0
C640 C 0.3187 0.947 0.4079 0.0
N641 N 0.30559 0.94718 0.39204 0.0
C642 C 0.3109 0.93166 0.42412 0.0
C643 C 0.27608 0.91712 0.40766 0.0
C644 C 0.28461 0.93272 0.39169 0.0
C645 C 0.28916 0.91661 0.42454 0.0
H646 H 0.3353 0.95871 0.40791 0.0
H647 H 0.27451 0.93311 0.37882 0.0
C648 C 0.34586 0.02294 0.31898 0.0
N649 N 0.35865 0.05995 0.29655 0.0
C650 C 0.366 0.03384 0.30994 0.0
C651 C 0.3321 0.03068 0.31624 0.0
C652 C 0.37221 0.05258 0.29877 0.0
C653 C 0.33889 0.04945 0.30495 0.0
C654 C 0.36715 0.99002 0.37854 0.0
C655 C 0.38496 0.00977 0.38333 0.0
C656 C 0.36894 0.97191 0.37821 0.0
C657 C 0.40435 0.01111 0.3874 0.0
C658 C 0.38862 0.97392 0.3823 0.0
N659 N 0.40577 0.99332 0.38676 0.0
C660 C 0.34193 0.03655 0.39532 0.0
C661 C 0.36846 0.0508 0.36815 0.0
C662 C 0.35075 0.05615 0.40634 0.0
N663 N 0.3507 0.03431 0.37646 0.0
C664 C 0.37789 0.07069 0.37869 0.0
C665 C 0.3689 0.07358 0.39793 0.0
H666 H 0.32814 0.02303 0.40192 0.0
H667 H 0.37559 0.04843 0.35362 0.0
C668 C 0.36011 0.95933 0.31862 0.0
N669 N 0.36524 0.97857 0.32744 0.0
C670 C 0.37596 0.95536 0.31197 0.0
C671 C 0.40196 0.99136 0.32266 0.0
C672 C 0.3856 0.99471 0.32881 0.0
C673 C 0.39723 0.9713 0.3147 0.0
H674 H 0.34378 0.94684 0.31754 0.0
H675 H 0.3892 0.00986 0.33587 0.0
O676 O 0.30728 0.98803 0.3683 0.0
O677 O 0.31474 0.95759 0.33802 0.0
O678 O 0.33955 0.00454 0.32992 0.0
O679 O 0.34811 0.98845 0.37411 0.0
H680 H 0.27165 0.96406 0.38924 0.0
H681 H 0.30956 0.0244 0.35907 0.0
H682 H 0.24478 0.97403 0.39758 0.0
H683 H 0.28195 0.03323 0.36768 0.0
H684 H 0.30059 0.89189 0.35656 0.0
H685 H 0.27427 0.93651 0.32624 0.0
H686 H 0.32523 0.93047 0.35344 0.0
H687 H 0.25053 0.89782 0.32979 0.0
H688 H 0.23841 0.96654 0.3114 0.0
H689 H 0.28473 0.9817 0.26046 0.0
H690 H 0.32196 0.93176 0.43608 0.0
H691 H 0.25939 0.9055 0.40668 0.0
H692 H 0.37676 0.02795 0.31162 0.0
H693 H 0.31626 0.02217 0.32251 0.0
H694 H 0.38781 0.06125 0.29183 0.0
H695 H 0.3284 0.05563 0.30277 0.0
H696 H 0.38386 0.02392 0.38378 0.0
H697 H 0.35533 0.95651 0.37452 0.0
H698 H 0.41828 0.0263 0.39101 0.0
H699 H 0.39026 0.96007 0.38186 0.0
H700 H 0.34363 0.05765 0.42141 0.0
H701 H 0.39216 0.08362 0.37202 0.0
H702 H 0.37171 0.93977 0.3056 0.0
H703 H 0.41815 0.00409 0.32486 0.0
Li704 Li 0.02753 0.33091 0.32762 0.0
Li705 Li 0.02885 0.34834 0.36317 0.0
Li706 Li 0.99509 0.3279 0.34469 0.0
Li707 Li 0.02112 0.36214 0.33069 0.0
C708 C 0.01537 0.30845 0.37391 0.0
N709 N 0.01995 0.29126 0.41243 0.0
C710 C 0.0302 0.30193 0.3752 0.0
C711 C 0.00274 0.3061 0.39209 0.0
C712 C 0.03231 0.2933 0.39485 0.0
C713 C 0.00533 0.29741 0.41145 0.0
C714 C 0.06806 0.37256 0.34389 0.0
C715 C 0.09853 0.40568 0.35582 0.0
N716 N 0.11006 0.39594 0.3572 0.0
C717 C 0.08033 0.36298 0.34525 0.0
C718 C 0.07734 0.39417 0.34905 0.0
C719 C 0.10146 0.37501 0.35208 0.0
C720 C 0.06139 0.33069 0.30001 0.0
N721 N 0.03838 0.31625 0.31121 0.0
C722 C 0.03414 0.27434 0.3032 0.0
C723 C 0.0248 0.29067 0.31419 0.0
C724 C 0.05692 0.28936 0.28472 0.0
C725 C 0.07463 0.31859 0.28765 0.0
H726 H 0.06867 0.34771 0.30016 0.0
H727 H 0.01017 0.28366 0.32313 0.0
C728 C 0.03617 0.36295 0.40859 0.0
N729 N 0.04279 0.35518 0.39182 0.0
C730 C 0.04768 0.37006 0.42855 0.0
C731 C 0.07159 0.35938 0.41431 0.0
C732 C 0.05954 0.35239 0.3948 0.0
C733 C 0.06598 0.36867 0.43149 0.0
H734 H 0.02213 0.36399 0.4064 0.0
H735 H 0.06368 0.3448 0.382 0.0
C736 C 0.98685 0.3236 0.30124 0.0
N737 N 0.94914 0.29955 0.27822 0.0
C738 C 0.97151 0.32951 0.30154 0.0
C739 C 0.98312 0.30559 0.2891 0.0
C740 C 0.9525 0.31708 0.28986 0.0
C741 C 0.96393 0.29362 0.27758 0.0
C742 C 0.00845 0.37452 0.36714 0.0
C743 C 0.99079 0.377 0.36795 0.0
C744 C 0.02829 0.39165 0.37303 0.0
C745 C 0.99332 0.39651 0.3746 0.0
C746 C 0.0302 0.41092 0.37957 0.0
N747 N 0.01282 0.41294 0.38021 0.0
C748 C 0.95428 0.3142 0.36087 0.0
C749 C 0.95706 0.28833 0.33949 0.0
C750 C 0.93271 0.30042 0.36349 0.0
N751 N 0.96586 0.30815 0.34864 0.0
C752 C 0.93552 0.27395 0.34178 0.0
C753 C 0.92302 0.28004 0.35373 0.0
H754 H 0.96181 0.32969 0.36869 0.0
H755 H 0.96677 0.28374 0.33033 0.0
C756 C 0.0453 0.4016 0.31009 0.0
N757 N 0.02568 0.38748 0.31722 0.0
C758 C 0.05065 0.42242 0.30599 0.0
C759 C 0.01495 0.41314 0.3146 0.0
C760 C 0.01022 0.39245 0.31812 0.0
C761 C 0.03567 0.42865 0.30951 0.0
H762 H 0.05714 0.39706 0.30881 0.0
H763 H 0.99453 0.38071 0.32304 0.0
O764 O 0.0134 0.31738 0.35502 0.0
O765 O 0.04733 0.361 0.33691 0.0
O766 O 0.00535 0.33527 0.31297 0.0
O767 O 0.00647 0.35575 0.35982 0.0
H768 H 0.04018 0.30378 0.36128 0.0
H769 H 0.99122 0.31114 0.39132 0.0
H770 H 0.04383 0.28831 0.39617 0.0
H771 H 0.99577 0.2956 0.42573 0.0
H772 H 0.10583 0.42238 0.35991 0.0
H773 H 0.07343 0.34622 0.34181 0.0
H774 H 0.06842 0.40214 0.34773 0.0
H775 H 0.111 0.36767 0.35345 0.0
H776 H 0.02434 0.25729 0.3025 0.0
H777 H 0.08871 0.3275 0.27803 0.0
H778 H 0.0423 0.37677 0.44119 0.0
H779 H 0.08539 0.35773 0.41584 0.0
H780 H 0.97413 0.34333 0.31099 0.0
H781 H 0.99485 0.30083 0.28872 0.0
H782 H 0.9404 0.32135 0.29009 0.0
H783 H 0.96078 0.27958 0.26818 0.0
H784 H 0.97535 0.36426 0.36287 0.0
H785 H 0.04207 0.39003 0.37266 0.0
H786 H 0.97981 0.39866 0.3751 0.0
H787 H 0.04551 0.42427 0.38413 0.0
H788 H 0.92371 0.30565 0.37307 0.0
H789 H 0.92867 0.25828 0.33423 0.0
H790 H 0.06664 0.43378 0.3014 0.0
H791 H 0.0028 0.41719 0.31691 0.0
Li792 Li 0.668 0.99045 0.3558 0.0
Li793 Li 0.64404 0.95297 0.35734 0.0
Li794 Li 0.67101 0.96618 0.32953 0.0
Li795 Li 0.64056 0.97033 0.32599 0.0
C796 C 0.68241 0.95551 0.36932 0.0
N797 N 0.69622 0.9287 0.38299 0.0
C798 C 0.67355 0.93512 0.35997 0.0
C799 C 0.69826 0.96223 0.38564 0.0
C800 C 0.68076 0.92182 0.3671 0.0
C801 C 0.70503 0.94846 0.39231 0.0
C802 C 0.62365 0.9709 0.37479 0.0
C803 C 0.58872 0.95216 0.38996 0.0
N804 N 0.59708 0.95978 0.41056 0.0
C805 C 0.63188 0.97875 0.39606 0.0
C806 C 0.60187 0.9577 0.37164 0.0
C807 C 0.61819 0.97288 0.41395 0.0
C808 C 0.67983 0.03253 0.36202 0.0
N809 N 0.68209 0.01683 0.37077 0.0
C810 C 0.70319 0.03952 0.40076 0.0
C811 C 0.69344 0.01985 0.38974 0.0
C812 C 0.70134 0.05617 0.39197 0.0
C813 C 0.68934 0.05244 0.37244 0.0
H814 H 0.6705 0.02947 0.34699 0.0
H815 H 0.6947 0.00692 0.39638 0.0
C816 C 0.60986 0.91466 0.37387 0.0
N817 N 0.62884 0.93215 0.37881 0.0
C818 C 0.59726 0.90186 0.39084 0.0
C819 C 0.62439 0.92484 0.41745 0.0
C820 C 0.63651 0.93707 0.39999 0.0
C821 C 0.60429 0.90729 0.413 0.0
H822 H 0.60409 0.91118 0.35691 0.0
H823 H 0.65155 0.95123 0.40345 0.0
C824 C 0.68837 0.0058 0.31291 0.0
N825 N 0.72504 0.03224 0.29091 0.0
C826 C 0.68743 0.01077 0.29082 0.0
C827 C 0.70792 0.01435 0.32387 0.0
C828 C 0.70616 0.02417 0.27998 0.0
C829 C 0.72629 0.02766 0.31243 0.0
C830 C 0.62582 0.93064 0.3107 0.0
C831 C 0.63076 0.92184 0.29263 0.0
C832 C 0.6051 0.92624 0.31323 0.0
C833 C 0.61493 0.90907 0.27715 0.0
C834 C 0.58972 0.91341 0.29739 0.0
N835 N 0.59492 0.90517 0.27981 0.0
C836 C 0.70962 0.96724 0.31813 0.0
C837 C 0.68648 0.96425 0.28886 0.0
C838 C 0.7252 0.97043 0.30293 0.0
N839 N 0.69081 0.96448 0.31083 0.0
C840 C 0.70164 0.96768 0.27318 0.0
C841 C 0.7214 0.97115 0.28016 0.0
H842 H 0.71299 0.9681 0.33572 0.0
H843 H 0.67167 0.96278 0.28363 0.0
C844 C 0.61752 0.98821 0.31136 0.0
N845 N 0.62491 0.97541 0.3047 0.0
C846 C 0.61118 0.99772 0.29569 0.0
C847 C 0.61891 0.97955 0.26668 0.0
C848 C 0.6255 0.97072 0.28291 0.0
C849 C 0.61224 0.99374 0.27297 0.0
H850 H 0.61802 0.99226 0.32878 0.0
H851 H 0.63243 0.96134 0.27805 0.0
O852 O 0.67564 0.9689 0.36278 0.0
O853 O 0.63687 0.97595 0.35718 0.0
O854 O 0.67029 0.99205 0.3235 0.0
O855 O 0.64115 0.94324 0.32596 0.0
H856 H 0.66127 0.92955 0.34737 0.0
H857 H 0.70526 0.97796 0.39305 0.0
H858 H 0.67405 0.90601 0.36001 0.0
H859 H 0.7173 0.95347 0.40491 0.0
H860 H 0.57186 0.94179 0.38781 0.0
H861 H 0.64868 0.98896 0.3988 0.0
H862 H 0.59521 0.95173 0.35526 0.0
H863 H 0.62437 0.97865 0.43054 0.0
H864 H 0.71202 0.04172 0.416 0.0
H865 H 0.6873 0.06478 0.36536 0.0
H866 H 0.58183 0.8884 0.38681 0.0
H867 H 0.63034 0.92952 0.43431 0.0
H868 H 0.67241 0.00418 0.2821 0.0
H869 H 0.70891 0.01045 0.3409 0.0
H870 H 0.7057 0.02807 0.26285 0.0
H871 H 0.74154 0.03427 0.32064 0.0
H872 H 0.64661 0.92471 0.29064 0.0
H873 H 0.60101 0.93286 0.32713 0.0
H874 H 0.61855 0.90221 0.26304 0.0
H875 H 0.57366 0.91002 0.29906 0.0
H876 H 0.74036 0.97324 0.3089 0.0
H877 H 0.6982 0.96835 0.25582 0.0
H878 H 0.60657 0.00888 0.30132 0.0
H879 H 0.62033 0.97647 0.24933 0.0
Li880 Li 0.02813 0.69916 0.37201 0.0
Li881 Li 0.99357 0.68982 0.36076 0.0
Li882 Li 0.01211 0.67544 0.34091 0.0
Li883 Li 0.02222 0.71364 0.33671 0.0
C884 C 0.00556 0.66325 0.39117 0.0
N885 N 0.01286 0.64992 0.43112 0.0
C886 C 0.99623 0.6652 0.41052 0.0
C887 C 0.0184 0.65428 0.39212 0.0
C888 C 0.00014 0.65839 0.43055 0.0
C889 C 0.02197 0.64773 0.41249 0.0
C890 C 0.00644 0.7279 0.37763 0.0
C891 C 0.99337 0.75217 0.37652 0.0
N892 N 0.9846 0.74554 0.39672 0.0
C893 C 0.9973 0.72136 0.39839 0.0
C894 C 0.00444 0.74343 0.36659 0.0
C895 C 0.9863 0.73044 0.40775 0.0
C896 C 0.06335 0.70139 0.39375 0.0
N897 N 0.04705 0.70494 0.39659 0.0
C898 C 0.0537 0.7096 0.43572 0.0
C899 C 0.04252 0.7097 0.41695 0.0
C900 C 0.06977 0.70474 0.43342 0.0
C901 C 0.07497 0.70117 0.41205 0.0
H902 H 0.06666 0.69767 0.37742 0.0
H903 H 0.0295 0.71242 0.41882 0.0
C904 C 0.9533 0.66089 0.37553 0.0
N905 N 0.96504 0.68107 0.36847 0.0
C906 C 0.93151 0.65154 0.37756 0.0
C907 C 0.93421 0.68409 0.36557 0.0
C908 C 0.95596 0.69276 0.36362 0.0
C909 C 0.92167 0.6631 0.37223 0.0
H910 H 0.96067 0.65156 0.37834 0.0
H911 H 0.96532 0.70833 0.35694 0.0
C912 C 0.05171 0.6957 0.32796 0.0
N913 N 0.07263 0.6836 0.2986 0.0
C914 C 0.05891 0.70608 0.30791 0.0
C915 C 0.05541 0.67933 0.33318 0.0
C916 C 0.0694 0.6997 0.29327 0.0
C917 C 0.06593 0.67339 0.31809 0.0
C918 C 0.97631 0.68005 0.3198 0.0
C919 C 0.96173 0.65836 0.32027 0.0
C920 C 0.97014 0.69381 0.31148 0.0
C921 C 0.94108 0.65082 0.31264 0.0
C922 C 0.94936 0.68563 0.30394 0.0
N923 N 0.93537 0.66449 0.3047 0.0
C924 C 0.99714 0.63208 0.33513 0.0
C925 C 0.01094 0.65188 0.30258 0.0
C926 C 0.99066 0.61322 0.32329 0.0
N927 N 0.00704 0.65087 0.32467 0.0
C928 C 0.00493 0.6334 0.29012 0.0
C929 C 0.99443 0.61373 0.30046 0.0
H930 H 0.99354 0.63166 0.35252 0.0
H931 H 0.01821 0.66698 0.29455 0.0
C932 C 0.04373 0.75647 0.32248 0.0
N933 N 0.03172 0.73578 0.31607 0.0
C934 C 0.04928 0.77237 0.30702 0.0
C935 C 0.03097 0.74528 0.27854 0.0
C936 C 0.02547 0.72996 0.29458 0.0
C937 C 0.04289 0.76681 0.28467 0.0
H938 H 0.04855 0.76062 0.3397 0.0
H939 H 0.01601 0.71337 0.28997 0.0
O940 O 0.00241 0.67039 0.37149 0.0
O941 O 0.01741 0.71931 0.36824 0.0
O942 O 0.04125 0.70163 0.34243 0.0
O943 O 0.99639 0.68783 0.3279 0.0
H944 H 0.98624 0.67207 0.41014 0.0
H945 H 0.02576 0.65265 0.37736 0.0
H946 H 0.99314 0.65994 0.44566 0.0
H947 H 0.03207 0.64099 0.4135 0.0
H948 H 0.99167 0.76415 0.36812 0.0
H949 H 0.99832 0.70915 0.40703 0.0
H950 H 0.01112 0.74853 0.35041 0.0
H951 H 0.97906 0.72542 0.42374 0.0
H952 H 0.04923 0.7124 0.45194 0.0
H953 H 0.08725 0.69733 0.40963 0.0
H954 H 0.92235 0.63515 0.38224 0.0
H955 H 0.92711 0.69331 0.36085 0.0
H956 H 0.05652 0.71898 0.3037 0.0
H957 H 0.04992 0.67105 0.34855 0.0
H958 H 0.07498 0.70756 0.27767 0.0
H959 H 0.0687 0.66062 0.32184 0.0
H960 H 0.96622 0.64753 0.32682 0.0
H961 H 0.9812 0.71067 0.31118 0.0
H962 H 0.92957 0.6341 0.31312 0.0
H963 H 0.94431 0.6961 0.29759 0.0
H964 H 0.98233 0.59836 0.33178 0.0
H965 H 0.00787 0.63438 0.27249 0.0
H966 H 0.05823 0.78876 0.31258 0.0
H967 H 0.02559 0.74038 0.26154 0.0
Li968 Li 0.30954 0.34377 0.36834 0.0
Li969 Li 0.32001 0.31859 0.36112 0.0
Li970 Li 0.33386 0.35014 0.33921 0.0
Li971 Li 0.29608 0.32051 0.33383 0.0
C972 C 0.34466 0.36014 0.39022 0.0
N973 N 0.35544 0.38408 0.42914 0.0
C974 C 0.34276 0.35062 0.41062 0.0
C975 C 0.35234 0.38188 0.3896 0.0
C976 C 0.34824 0.36299 0.43012 0.0
C977 C 0.35761 0.3937 0.40946 0.0
C978 C 0.28181 0.29349 0.37639 0.0
C979 C 0.25755 0.25582 0.37725 0.0
N980 N 0.2644 0.25553 0.39818 0.0
C981 C 0.2886 0.29278 0.39791 0.0
C982 C 0.26617 0.27482 0.36596 0.0
C983 C 0.27963 0.27346 0.40864 0.0
C984 C 0.30052 0.37479 0.38559 0.0
N985 N 0.30099 0.35699 0.39047 0.0
C986 C 0.28932 0.35758 0.42727 0.0
C987 C 0.29534 0.34821 0.41077 0.0
C988 C 0.28889 0.37607 0.42283 0.0
C989 C 0.2945 0.38466 0.40161 0.0
H990 H 0.30492 0.38141 0.3693 0.0
H991 H 0.29574 0.33407 0.41429 0.0
C992 C 0.34831 0.30812 0.38097 0.0
N993 N 0.32866 0.29949 0.37168 0.0
C994 C 0.35706 0.29546 0.38528 0.0
C995 C 0.325 0.26518 0.37092 0.0
C996 C 0.31695 0.27842 0.36671 0.0
C997 C 0.34537 0.27368 0.38012 0.0
H998 H 0.35767 0.32503 0.38389 0.0
H999 H 0.30187 0.27205 0.35828 0.0
C1000 C 0.31339 0.36726 0.32186 0.0
N1001 N 0.3261 0.3982 0.29043 0.0
C1002 C 0.30454 0.36209 0.30046 0.0
C1003 C 0.32851 0.38823 0.32735 0.0
C1004 C 0.31121 0.37795 0.28479 0.0
C1005 C 0.33479 0.40362 0.31121 0.0
C1006 C 0.33104 0.30905 0.32197 0.0
C1007 C 0.35274 0.31729 0.3248 0.0
C1008 C 0.31834 0.2885 0.31335 0.0
C1009 C 0.36137 0.30472 0.31912 0.0
C1010 C 0.32757 0.27645 0.30783 0.0
N1011 N 0.34871 0.28473 0.31083 0.0
C1012 C 0.37722 0.37912 0.33375 0.0
C1013 C 0.35704 0.3673 0.30027 0.0
C1014 C 0.39598 0.38836 0.32194 0.0
N1015 N 0.3583 0.36848 0.32282 0.0
C1016 C 0.37541 0.37653 0.28779 0.0
C1017 C 0.39523 0.38661 0.29866 0.0
H1018 H 0.3778 0.37921 0.35167 0.0
H1019 H 0.34183 0.3581 0.29202 0.0
C1020 C 0.25343 0.29709 0.31847 0.0
N1021 N 0.27394 0.30531 0.31273 0.0
C1022 C 0.23722 0.28422 0.30339 0.0
C1023 C 0.26361 0.28989 0.27632 0.0
C1024 C 0.27927 0.30227 0.29204 0.0
C1025 C 0.24226 0.28025 0.28205 0.0
H1026 H 0.2497 0.29997 0.33502 0.0
H1027 H 0.29573 0.30924 0.28789 0.0
O1028 O 0.33879 0.3482 0.37098 0.0
O1029 O 0.29034 0.31231 0.36563 0.0
O1030 O 0.30726 0.3519 0.33736 0.0
O1031 O 0.3222 0.32086 0.32811 0.0
H1032 H 0.33698 0.33385 0.41143 0.0
H1033 H 0.35407 0.38953 0.37396 0.0
H1034 H 0.34671 0.3558 0.44603 0.0
H1035 H 0.36341 0.41051 0.40922 0.0
H1036 H 0.24548 0.24127 0.36933 0.0
H1037 H 0.30099 0.30686 0.4061 0.0
H1038 H 0.2609 0.27487 0.34924 0.0
H1039 H 0.28485 0.27271 0.42523 0.0
H1040 H 0.28526 0.35054 0.44346 0.0
H1041 H 0.2945 0.399 0.3976 0.0
H1042 H 0.37308 0.30277 0.39174 0.0
H1043 H 0.31577 0.2486 0.36608 0.0
H1044 H 0.29267 0.34603 0.29596 0.0
H1045 H 0.33546 0.39255 0.34383 0.0
H1046 H 0.30456 0.37414 0.26814 0.0
H1047 H 0.34659 0.41987 0.3152 0.0
H1048 H 0.36277 0.33308 0.33168 0.0
H1049 H 0.30148 0.28181 0.31128 0.0
H1050 H 0.3781 0.31082 0.3214 0.0
H1051 H 0.31792 0.26047 0.30128 0.0
H1052 H 0.41092 0.39583 0.33095 0.0
H1053 H 0.37418 0.37472 0.26988 0.0
H1054 H 0.221 0.2772 0.30857 0.0
H1055 H 0.26811 0.28735 0.26 0.0
Li1056 Li 0.33342 0.9963 0.66736 0.0
Li1057 Li 0.36483 0.02513 0.68222 0.0
Li1058 Li 0.329 0.01837 0.69454 0.0
Li1059 Li 0.34314 0.03177 0.65672 0.0
C1060 C 0.33773 0.98198 0.7063 0.0
N1061 N 0.32696 0.94214 0.7203 0.0
C1062 C 0.34847 0.97211 0.69827 0.0
C1063 C 0.32166 0.97171 0.72162 0.0
C1064 C 0.34273 0.95192 0.70548 0.0
C1065 C 0.31642 0.95154 0.72847 0.0
C1066 C 0.37841 0.02456 0.64248 0.0
C1067 C 0.41285 0.05474 0.63606 0.0
N1068 N 0.41957 0.04155 0.6287 0.0
C1069 C 0.38565 0.0113 0.6348 0.0
C1070 C 0.39211 0.04645 0.64306 0.0
C1071 C 0.40651 0.0202 0.62791 0.0
C1072 C 0.32611 0.961 0.63978 0.0
N1073 N 0.31918 0.96733 0.65752 0.0
C1074 C 0.29064 0.93208 0.66224 0.0
C1075 C 0.30167 0.95341 0.66858 0.0
C1076 C 0.29768 0.92497 0.64429 0.0
C1077 C 0.31561 0.93973 0.63292 0.0
H1078 H 0.33965 0.97248 0.63085 0.0
H1079 H 0.29622 0.95893 0.68232 0.0
C1080 C 0.40244 0.05315 0.70581 0.0
N1081 N 0.39285 0.03502 0.69322 0.0
C1082 C 0.42338 0.06171 0.71296 0.0
C1083 C 0.42393 0.03236 0.69477 0.0
C1084 C 0.4029 0.02422 0.68828 0.0
C1085 C 0.43454 0.05154 0.70694 0.0
H1086 H 0.3939 0.06109 0.71011 0.0
H1087 H 0.39477 0.0095 0.67887 0.0
C1088 C 0.29905 0.99571 0.65108 0.0
N1089 N 0.26744 0.96822 0.6219 0.0
C1090 C 0.30317 0.99566 0.62849 0.0
C1091 C 0.27886 0.98182 0.65883 0.0
C1092 C 0.28698 0.98164 0.614 0.0
C1093 C 0.26309 0.96802 0.64381 0.0
C1094 C 0.35818 0.06571 0.68653 0.0
C1095 C 0.34186 0.06941 0.69199 0.0
C1096 C 0.37814 0.08282 0.68191 0.0
C1097 C 0.34573 0.09014 0.69271 0.0
C1098 C 0.38139 0.10331 0.68277 0.0
N1099 N 0.36526 0.10652 0.68813 0.0
C1100 C 0.32153 0.02441 0.73893 0.0
C1101 C 0.29408 0.01822 0.71353 0.0
C1102 C 0.31081 0.02742 0.75632 0.0
N1103 N 0.31312 0.02012 0.71806 0.0
C1104 C 0.28281 0.02108 0.73041 0.0
C1105 C 0.29132 0.02608 0.75207 0.0
H1106 H 0.33678 0.02594 0.74193 0.0
H1107 H 0.28798 0.01513 0.69667 0.0
C1108 C 0.35704 0.05639 0.61344 0.0
N1109 N 0.34127 0.0491 0.6346 0.0
C1110 C 0.35554 0.07274 0.59292 0.0
C1111 C 0.31678 0.06937 0.62199 0.0
C1112 C 0.32192 0.05337 0.63975 0.0
C1113 C 0.3383 0.08326 0.60185 0.0
H1114 H 0.36835 0.05124 0.61171 0.0
H1115 H 0.31233 0.04662 0.65417 0.0
O1116 O 0.34288 0.0016 0.69922 0.0
O1117 O 0.35816 0.01621 0.64977 0.0
O1118 O 0.31487 0.00892 0.66559 0.0
O1119 O 0.35485 0.04555 0.68648 0.0
H1120 H 0.36081 0.97978 0.68626 0.0
H1121 H 0.31321 0.97916 0.72799 0.0
H1122 H 0.35076 0.94399 0.69924 0.0
H1123 H 0.30395 0.94335 0.74023 0.0
H1124 H 0.42361 0.07166 0.63652 0.0
H1125 H 0.37548 0.99431 0.63452 0.0
H1126 H 0.38674 0.0569 0.64893 0.0
H1127 H 0.41236 0.01011 0.62206 0.0
H1128 H 0.27672 0.92123 0.67125 0.0
H1129 H 0.32138 0.9349 0.61884 0.0
H1130 H 0.43091 0.07633 0.7227 0.0
H1131 H 0.4319 0.0239 0.69008 0.0
H1132 H 0.31879 0.00614 0.62225 0.0
H1133 H 0.27547 0.98146 0.6763 0.0
H1134 H 0.28996 0.98136 0.59649 0.0
H1135 H 0.24742 0.9571 0.64959 0.0
H1136 H 0.32631 0.05644 0.69556 0.0
H1137 H 0.39109 0.08039 0.67791 0.0
H1138 H 0.33321 0.09319 0.69688 0.0
H1139 H 0.39675 0.11667 0.67923 0.0
H1140 H 0.31789 0.0313 0.7728 0.0
H1141 H 0.26786 0.01996 0.72646 0.0
H1142 H 0.36726 0.07984 0.5802 0.0
H1143 H 0.306 0.07471 0.62657 0.0
Li1144 Li 0.00718 0.32929 0.66895 0.0
Li1145 Li 0.98042 0.33583 0.68491 0.0
Li1146 Li 0.97427 0.29816 0.68344 0.0
Li1147 Li 0.97376 0.31659 0.65014 0.0
C1148 C 0.01428 0.33164 0.71285 0.0
N1149 N 0.05126 0.34677 0.73731 0.0
C1150 C 0.02907 0.35329 0.71364 0.0
C1151 C 0.0182 0.31769 0.72458 0.0
C1152 C 0.04771 0.36063 0.72606 0.0
C1153 C 0.03701 0.32565 0.73685 0.0
C1154 C 0.99741 0.36516 0.65226 0.0
C1155 C 0.98192 0.38543 0.63964 0.0
N1156 N 0.00051 0.40361 0.64393 0.0
C1157 C 0.01642 0.38408 0.6564 0.0
C1158 C 0.98006 0.36587 0.64368 0.0
C1159 C 0.01765 0.40333 0.65214 0.0
C1160 C 0.04643 0.35615 0.64989 0.0
N1161 N 0.03646 0.33994 0.66409 0.0
C1162 C 0.06805 0.33865 0.66951 0.0
C1163 C 0.04666 0.33082 0.67353 0.0
C1164 C 0.079 0.35605 0.65567 0.0
C1165 C 0.06782 0.36463 0.64561 0.0
H1166 H 0.03769 0.36233 0.6416 0.0
H1167 H 0.03815 0.31734 0.68401 0.0
C1168 C 0.95475 0.34755 0.70879 0.0
N1169 N 0.97468 0.35492 0.7014 0.0
C1170 C 0.94841 0.36167 0.71597 0.0
C1171 C 0.98376 0.39052 0.70988 0.0
C1172 C 0.98949 0.37581 0.70326 0.0
C1173 C 0.9627 0.38356 0.71519 0.0
H1174 H 0.94344 0.33077 0.708 0.0
H1175 H 0.00553 0.38122 0.69856 0.0
C1176 C 0.9841 0.2887 0.63665 0.0
N1177 N 0.97347 0.26469 0.59784 0.0
C1178 C 0.96666 0.26818 0.6359 0.0
C1179 C 0.99623 0.29699 0.61775 0.0
C1180 C 0.96153 0.25629 0.6161 0.0
C1181 C 0.99056 0.28461 0.59826 0.0
C1182 C 0.93463 0.30203 0.66807 0.0
C1183 C 0.91979 0.28047 0.6654 0.0
C1184 C 0.9288 0.31693 0.663 0.0
C1185 C 0.8995 0.27422 0.65746 0.0
C1186 C 0.90837 0.31006 0.6551 0.0
N1187 N 0.89426 0.28902 0.6525 0.0
C1188 C 0.93957 0.26227 0.70786 0.0
C1189 C 0.97702 0.26029 0.69426 0.0
C1190 C 0.9262 0.23651 0.71891 0.0
N1191 N 0.96303 0.27171 0.69751 0.0
C1192 C 0.96762 0.23432 0.70399 0.0
C1193 C 0.94412 0.22558 0.72169 0.0
H1194 H 0.93217 0.27179 0.70821 0.0
H1195 H 0.99201 0.26852 0.68604 0.0
C1196 C 0.97163 0.32785 0.60598 0.0
N1197 N 0.96146 0.31235 0.62094 0.0
C1198 C 0.96273 0.32617 0.58496 0.0
C1199 C 0.93367 0.29198 0.59465 0.0
C1200 C 0.94322 0.29429 0.61534 0.0
C1201 C 0.94322 0.30812 0.57916 0.0
H1202 H 0.98662 0.34166 0.61041 0.0
H1203 H 0.93608 0.28157 0.62684 0.0
O1204 O 0.99612 0.32411 0.70049 0.0
O1205 O 0.99586 0.34612 0.65651 0.0
O1206 O 0.98908 0.30076 0.6557 0.0
O1207 O 0.95456 0.30846 0.67605 0.0
H1208 H 0.02632 0.36425 0.70448 0.0
H1209 H 0.00689 0.30088 0.72408 0.0
H1210 H 0.05937 0.37733 0.7267 0.0
H1211 H 0.04031 0.31504 0.74596 0.0
H1212 H 0.96858 0.38616 0.63304 0.0
H1213 H 0.02993 0.38397 0.66345 0.0
H1214 H 0.96537 0.35147 0.63998 0.0
H1215 H 0.0322 0.41806 0.65549 0.0
H1216 H 0.07593 0.33116 0.67708 0.0
H1217 H 0.07549 0.37768 0.63437 0.0
H1218 H 0.93225 0.35556 0.72094 0.0
H1219 H 0.99548 0.40722 0.70991 0.0
H1220 H 0.95702 0.26161 0.65036 0.0
H1221 H 0.00974 0.3129 0.6181 0.0
H1222 H 0.94799 0.24043 0.61522 0.0
H1223 H -0.00029 0.29084 0.58345 0.0
H1224 H 0.92405 0.26867 0.66875 0.0
H1225 H 0.93984 0.33364 0.66531 0.0
H1226 H 0.88797 0.25759 0.65511 0.0
H1227 H 0.90371 0.32146 0.65109 0.0
H1228 H 0.91181 0.23082 0.72813 0.0
H1229 H 0.97761 0.22744 0.70461 0.0
H1230 H 0.9711 0.33901 0.5737 0.0
H1231 H 0.91882 0.27767 0.59079 0.0
Li1232 Li 0.66384 0.67899 0.65964 0.0
Li1233 Li 0.64875 0.64778 0.68182 0.0
Li1234 Li 0.68626 0.67736 0.68894 0.0
Li1235 Li 0.67688 0.65325 0.65627 0.0
C1236 C 0.65465 0.69286 0.69648 0.0
N1237 N 0.64544 0.72462 0.70384 0.0
C1238 C 0.6348 0.68969 0.69054 0.0
C1239 C 0.66974 0.71212 0.70634 0.0
C1240 C 0.63047 0.70595 0.69434 0.0
C1241 C 0.6648 0.72799 0.70988 0.0
C1242 C 0.62932 0.63182 0.64307 0.0
C1243 C 0.60841 0.59613 0.62842 0.0
N1244 N 0.59053 0.59662 0.63278 0.0
C1245 C 0.61072 0.63204 0.64724 0.0
C1246 C 0.62818 0.61377 0.63347 0.0
C1247 C 0.59127 0.61405 0.642 0.0
C1248 C 0.63947 0.68993 0.63252 0.0
N1249 N 0.65742 0.698 0.6451 0.0
C1250 C 0.66205 0.73266 0.6439 0.0
C1251 C 0.66909 0.71902 0.65027 0.0
C1252 C 0.6428 0.72449 0.63218 0.0
C1253 C 0.63178 0.70295 0.62592 0.0
H1254 H 0.63056 0.6732 0.62855 0.0
H1255 H 0.68313 0.72497 0.66061 0.0
C1256 C 0.61311 0.63456 0.70826 0.0
N1257 N 0.62314 0.6272 0.69524 0.0
C1258 C 0.59272 0.62086 0.71549 0.0
C1259 C 0.59392 0.59186 0.69729 0.0
C1260 C 0.61424 0.60621 0.69018 0.0
C1261 C 0.58266 0.59928 0.70955 0.0
H1262 H 0.62063 0.65122 0.7124 0.0
H1263 H 0.62245 0.60073 0.67969 0.0
C1264 C 0.71428 0.69744 0.65306 0.0
N1265 N 0.75672 0.72274 0.64427 0.0
C1266 C 0.72806 0.68976 0.65597 0.0
C1267 C 0.72206 0.71791 0.64536 0.0
C1268 C 0.74946 0.70279 0.65151 0.0
C1269 C 0.74357 0.73048 0.64111 0.0
C1270 C 0.68323 0.63457 0.69494 0.0
C1271 C 0.70507 0.64426 0.69817 0.0
C1272 C 0.67041 0.61306 0.69924 0.0
C1273 C 0.71376 0.63217 0.70507 0.0
C1274 C 0.6797 0.60149 0.70609 0.0
N1275 N 0.70101 0.6112 0.70882 0.0
C1276 C 0.70524 0.68263 0.73055 0.0
C1277 C 0.72384 0.71242 0.70784 0.0
C1278 C 0.72078 0.69211 0.74713 0.0
N1279 N 0.70729 0.69264 0.71119 0.0
C1280 C 0.73982 0.72249 0.72397 0.0
C1281 C 0.73863 0.71208 0.74369 0.0
H1282 H 0.69171 0.66706 0.73289 0.0
H1283 H 0.72477 0.72036 0.69264 0.0
C1284 C 0.6994 0.65171 0.61943 0.0
N1285 N 0.68767 0.64028 0.63676 0.0
C1286 C 0.70925 0.64386 0.60577 0.0
C1287 C 0.69378 0.61205 0.62717 0.0
C1288 C 0.68435 0.6206 0.64054 0.0
C1289 C 0.70675 0.6239 0.60977 0.0
H1290 H 0.70143 0.66712 0.61645 0.0
H1291 H 0.67441 0.61151 0.65393 0.0
O1292 O 0.65935 0.67727 0.69252 0.0
O1293 O 0.64854 0.64913 0.64842 0.0
O1294 O 0.69324 0.68496 0.65737 0.0
O1295 O 0.67432 0.64612 0.68828 0.0
H1296 H 0.62297 0.67495 0.68273 0.0
H1297 H 0.68516 0.71486 0.71107 0.0
H1298 H 0.61524 0.70376 0.68966 0.0
H1299 H 0.67637 0.74302 0.71739 0.0
H1300 H 0.6073 0.58202 0.62107 0.0
H1301 H 0.61128 0.64577 0.65487 0.0
H1302 H 0.64238 0.61335 0.63005 0.0
H1303 H 0.57676 0.61391 0.64538 0.0
H1304 H 0.67096 0.74917 0.64909 0.0
H1305 H 0.61689 0.69607 0.61685 0.0
H1306 H 0.58468 0.6272 0.72507 0.0
H1307 H 0.58674 0.5753 0.6925 0.0
H1308 H 0.72227 0.67379 0.66122 0.0
H1309 H 0.71162 0.72405 0.64268 0.0
H1310 H 0.76027 0.69701 0.6537 0.0
H1311 H 0.74981 0.74639 0.63524 0.0
H1312 H 0.71523 0.66099 0.69571 0.0
H1313 H 0.65348 0.60533 0.69718 0.0
H1314 H 0.73065 0.63948 0.70757 0.0
H1315 H 0.66996 0.5848 0.70929 0.0
H1316 H 0.71911 0.68375 0.7623 0.0
H1317 H 0.7531 0.73808 0.72094 0.0
H1318 H 0.71889 0.65336 0.59232 0.0
H1319 H 0.69113 0.59643 0.63052 0.0
Li1320 Li 0.34642 0.3205 0.69354 0.0
Li1321 Li 0.31937 0.28302 0.68895 0.0
Li1322 Li 0.34801 0.30087 0.66175 0.0
Li1323 Li 0.3196 0.30886 0.66258 0.0
C1324 C 0.36522 0.30072 0.71027 0.0
N1325 N 0.39492 0.31176 0.74395 0.0
C1326 C 0.35989 0.28914 0.72972 0.0
C1327 C 0.3857 0.31776 0.70786 0.0
C1328 C 0.37512 0.295 0.74658 0.0
C1329 C 0.40048 0.32314 0.7251 0.0
C1330 C 0.30109 0.30719 0.70882 0.0
C1331 C 0.26682 0.30297 0.71536 0.0
N1332 N 0.27191 0.30752 0.73728 0.0
C1333 C 0.30605 0.31206 0.73137 0.0
C1334 C 0.28138 0.30281 0.7007 0.0
C1335 C 0.29107 0.31205 0.7455 0.0
C1336 C 0.36184 0.36185 0.70464 0.0
N1337 N 0.35995 0.34406 0.71346 0.0
C1338 C 0.37111 0.3612 0.74909 0.0
C1339 C 0.36453 0.34339 0.73522 0.0
C1340 C 0.37256 0.37959 0.74048 0.0
C1341 C 0.36816 0.37986 0.71787 0.0
H1342 H 0.35754 0.36176 0.68745 0.0
H1343 H 0.36216 0.32885 0.74207 0.0
C1344 C 0.28954 0.23894 0.69576 0.0
N1345 N 0.30143 0.25846 0.70546 0.0
C1346 C 0.27473 0.22204 0.70815 0.0
C1347 C 0.2857 0.24533 0.74051 0.0
C1348 C 0.30017 0.26173 0.72751 0.0
C1349 C 0.27253 0.22525 0.73079 0.0
H1350 H 0.2911 0.23658 0.67829 0.0
H1351 H 0.31019 0.27723 0.73494 0.0
C1352 C 0.36429 0.34035 0.64659 0.0
N1353 N 0.39301 0.36262 0.61411 0.0
C1354 C 0.35728 0.34049 0.62502 0.0
C1355 C 0.38588 0.35183 0.65173 0.0
C1356 C 0.37205 0.35179 0.60882 0.0
C1357 C 0.40016 0.36289 0.63505 0.0
C1358 C 0.29795 0.26757 0.64563 0.0
C1359 C 0.29673 0.25842 0.62473 0.0
C1360 C 0.27942 0.26319 0.65635 0.0
C1361 C 0.27694 0.24502 0.6149 0.0
C1362 C 0.25993 0.24969 0.646 0.0
N1363 N 0.2591 0.24097 0.62565 0.0
C1364 C 0.38546 0.30202 0.64651 0.0
C1365 C 0.3602 0.298 0.61924 0.0
C1366 C 0.3999 0.3048 0.63005 0.0
N1367 N 0.36625 0.29917 0.6408 0.0
C1368 C 0.37419 0.301 0.60232 0.0
C1369 C 0.39446 0.30486 0.60766 0.0
H1370 H 0.3899 0.30298 0.66379 0.0
H1371 H 0.34491 0.29599 0.61526 0.0
C1372 C 0.30717 0.33747 0.65632 0.0
N1373 N 0.30486 0.31943 0.64694 0.0
C1374 C 0.29942 0.34881 0.6455 0.0
C1375 C 0.2869 0.32266 0.61552 0.0
C1376 C 0.29494 0.31179 0.62697 0.0
C1377 C 0.28919 0.34147 0.62481 0.0
H1378 H 0.31561 0.34334 0.672 0.0
H1379 H 0.29393 0.29777 0.61957 0.0
O1380 O 0.35054 0.29518 0.69356 0.0
O1381 O 0.3157 0.30743 0.69465 0.0
O1382 O 0.35011 0.32889 0.66254 0.0
O1383 O 0.31722 0.28111 0.65523 0.0
H1384 H 0.34421 0.27572 0.73174 0.0
H1385 H 0.39009 0.32684 0.69292 0.0
H1386 H 0.3712 0.28622 0.76174 0.0
H1387 H 0.41635 0.33638 0.72351 0.0
H1388 H 0.25149 0.29955 0.70929 0.0
H1389 H 0.32123 0.31559 0.73796 0.0
H1390 H 0.27736 0.29947 0.68324 0.0
H1391 H 0.29467 0.31564 0.76302 0.0
H1392 H 0.37434 0.36042 0.76649 0.0
H1393 H 0.36905 0.39368 0.71061 0.0
H1394 H 0.26474 0.20679 0.70004 0.0
H1395 H 0.28442 0.24844 0.75789 0.0
H1396 H 0.34064 0.33168 0.62073 0.0
H1397 H 0.39155 0.35215 0.66841 0.0
H1398 H 0.36686 0.35186 0.59201 0.0
H1399 H 0.41693 0.3717 0.63875 0.0
H1400 H 0.31093 0.26166 0.61618 0.0
H1401 H 0.28009 0.26995 0.67258 0.0
H1402 H 0.27576 0.23785 0.59872 0.0
H1403 H 0.24546 0.24612 0.65415 0.0
H1404 H 0.4154 0.30766 0.63475 0.0
H1405 H 0.36943 0.30092 0.58526 0.0
H1406 H 0.30178 0.36339 0.65301 0.0
H1407 H 0.27941 0.31674 0.59939 0.0
Li1408 Li 0.67501 0.03762 0.68237 0.0
Li1409 Li 0.70697 0.0377 0.68844 0.0
Li1410 Li 0.70155 0.05379 0.65397 0.0
Li1411 Li 0.68255 0.01445 0.66056 0.0
C1412 C 0.69998 0.07665 0.69818 0.0
N1413 N 0.69206 0.10372 0.7233 0.0
C1414 C 0.69342 0.07192 0.72009 0.0
C1415 C 0.70252 0.0952 0.68906 0.0
C1416 C 0.68947 0.08577 0.73251 0.0
C1417 C 0.69846 0.10867 0.70203 0.0
C1418 C 0.68004 0.0055 0.71166 0.0
C1419 C 0.69188 0.9848 0.73111 0.0
N1420 N 0.68577 0.98951 0.75058 0.0
C1421 C 0.67372 0.00999 0.73185 0.0
C1422 C 0.68901 0.99263 0.71126 0.0
C1423 C 0.67677 0.00179 0.75135 0.0
C1424 C 0.63551 0.01875 0.7017 0.0
N1425 N 0.65091 0.03763 0.69415 0.0
C1426 C 0.62812 0.05194 0.69682 0.0
C1427 C 0.64759 0.05412 0.69162 0.0
C1428 C 0.61184 0.03251 0.70435 0.0
C1429 C 0.61574 0.01578 0.70682 0.0
H1430 H 0.63818 0.00557 0.70252 0.0
H1431 H 0.65953 0.06854 0.68433 0.0
C1432 C 0.74229 0.03501 0.70208 0.0
N1433 N 0.72763 0.03972 0.70935 0.0
C1434 C 0.75565 0.03305 0.71717 0.0
C1435 C 0.73917 0.04164 0.7469 0.0
C1436 C 0.7263 0.04367 0.73122 0.0
C1437 C 0.75377 0.03586 0.73995 0.0
H1438 H 0.74318 0.03212 0.68461 0.0
H1439 H 0.71463 0.04745 0.73665 0.0
C1440 C 0.65259 0.02986 0.64463 0.0
N1441 N 0.61333 0.02496 0.63629 0.0
C1442 C 0.63439 0.01009 0.64683 0.0
C1443 C 0.65086 0.04709 0.63797 0.0
C1444 C 0.61467 0.00795 0.64262 0.0
C1445 C 0.63085 0.04429 0.63386 0.0
C1446 C 0.71843 0.02381 0.64158 0.0
C1447 C 0.72317 0.03098 0.61989 0.0
C1448 C 0.71849 0.00546 0.6474 0.0
C1449 C 0.72758 0.01949 0.60428 0.0
C1450 C 0.72295 0.9944 0.63131 0.0
N1451 N 0.72734 0.00158 0.61026 0.0
C1452 C 0.72942 0.09452 0.63707 0.0
C1453 C 0.70362 0.06968 0.61168 0.0
C1454 C 0.73649 0.11033 0.6213 0.0
N1455 N 0.71301 0.07481 0.63212 0.0
C1456 C 0.71046 0.08483 0.59529 0.0
C1457 C 0.72682 0.1056 0.60009 0.0
H1458 H 0.73668 0.09808 0.65344 0.0
H1459 H 0.69066 0.05381 0.60822 0.0
C1460 C 0.65756 0.97024 0.65882 0.0
N1461 N 0.6691 0.98743 0.64621 0.0
C1462 C 0.64568 0.95019 0.64888 0.0
C1463 C 0.65785 0.96591 0.61312 0.0
C1464 C 0.66933 0.9857 0.62375 0.0
C1465 C 0.64568 0.94786 0.62574 0.0
H1466 H 0.65708 0.97214 0.67657 0.0
H1467 H 0.6781 0.99974 0.61408 0.0
O1468 O 0.70404 0.06333 0.68578 0.0
O1469 O 0.67759 0.01376 0.69243 0.0
O1470 O 0.67198 0.03244 0.64942 0.0
O1471 O 0.71384 0.03473 0.65703 0.0
H1472 H 0.69099 0.05752 0.7273 0.0
H1473 H 0.70732 0.09906 0.67209 0.0
H1474 H 0.68426 0.08221 0.74943 0.0
H1475 H 0.7003 0.12303 0.69515 0.0
H1476 H 0.69901 0.97502 0.73105 0.0
H1477 H 0.66672 0.01989 0.73255 0.0
H1478 H 0.6939 0.98891 0.6958 0.0
H1479 H 0.67209 0.00526 0.7671 0.0
H1480 H 0.62546 0.06496 0.69402 0.0
H1481 H 0.60343 0.00032 0.71184 0.0
H1482 H 0.76685 0.02872 0.7112 0.0
H1483 H 0.73734 0.04403 0.76434 0.0
H1484 H 0.63547 0.99663 0.65209 0.0
H1485 H 0.66481 0.06253 0.63633 0.0
H1486 H 0.60043 0.9928 0.64447 0.0
H1487 H 0.62925 0.05751 0.62887 0.0
H1488 H 0.72345 0.04525 0.61512 0.0
H1489 H 0.71495 0.99971 0.6641 0.0
H1490 H 0.73119 0.02483 0.58742 0.0
H1491 H 0.72288 0.9801 0.63556 0.0
H1492 H 0.74919 0.12607 0.62582 0.0
H1493 H 0.70273 0.08051 0.57912 0.0
H1494 H 0.63633 0.93671 0.65916 0.0
H1495 H 0.65811 0.96474 0.59521 0.0
Li1496 Li 0.97236 0.6743 0.69745 0.0
Li1497 Li 0.98057 0.64703 0.68896 0.0
Li1498 Li 0.00201 0.68249 0.67375 0.0
Li1499 Li 0.96477 0.65709 0.65981 0.0
C1500 C 0.00991 0.68638 0.72259 0.0
N1501 N 0.03265 0.71173 0.75864 0.0
C1502 C 0.01148 0.67726 0.74214 0.0
C1503 C 0.0202 0.70838 0.72125 0.0
C1504 C 0.02296 0.69035 0.76022 0.0
C1505 C 0.03154 0.72093 0.73968 0.0
C1506 C 0.9405 0.63407 0.70701 0.0
C1507 C 0.90711 0.6153 0.72542 0.0
N1508 N 0.91727 0.61476 0.74411 0.0
C1509 C 0.95061 0.63336 0.72641 0.0
C1510 C 0.91857 0.62501 0.7065 0.0
C1511 C 0.9386 0.62352 0.74498 0.0
C1512 C 0.95569 0.69947 0.71246 0.0
N1513 N 0.96331 0.68701 0.71933 0.0
C1514 C 0.96271 0.69689 0.75716 0.0
C1515 C 0.96627 0.68506 0.74125 0.0
C1516 C 0.95619 0.71097 0.75046 0.0
C1517 C 0.95224 0.71187 0.72778 0.0
H1518 H 0.9531 0.70046 0.69496 0.0
H1519 H 0.97207 0.67488 0.74639 0.0
C1520 C 0.00202 0.62693 0.70381 0.0
N1521 N 0.98267 0.6235 0.69778 0.0
C1522 C 0.0054 0.60991 0.70545 0.0
C1523 C 0.96858 0.58618 0.69587 0.0
C1524 C 0.96594 0.60366 0.6943 0.0
C1525 C 0.98864 0.58926 0.70093 0.0
H1526 H 0.0151 0.64295 0.70593 0.0
H1527 H 0.95088 0.60152 0.68897 0.0
C1528 C 0.98369 0.70721 0.66016 0.0
N1529 N 0.99534 0.74661 0.64391 0.0
C1530 C 0.97985 0.70933 0.63789 0.0
C1531 C 0.99323 0.72513 0.67422 0.0
C1532 C 0.98592 0.72938 0.62997 0.0
C1533 C 0.99906 0.7449 0.66568 0.0
C1534 C 0.99392 0.63947 0.65038 0.0
C1535 C 0.01431 0.64255 0.65113 0.0
C1536 C 0.97712 0.62014 0.6425 0.0
C1537 C 0.01751 0.62612 0.6442 0.0
C1538 C 0.98098 0.60411 0.6357 0.0
N1539 N 0.00092 0.6074 0.6367 0.0
C1540 C 0.04531 0.70033 0.67669 0.0
C1541 C 0.03547 0.71987 0.65363 0.0
C1542 C 0.06665 0.71517 0.67421 0.0
N1543 N 0.03024 0.70307 0.66674 0.0
C1544 C 0.05662 0.73533 0.65106 0.0
C1545 C 0.07251 0.73332 0.66183 0.0
H1546 H 0.0407 0.68671 0.68687 0.0
H1547 H 0.02335 0.7215 0.64536 0.0
C1548 C 0.92736 0.62889 0.63669 0.0
N1549 N 0.94719 0.64562 0.63436 0.0
C1550 C 0.91566 0.61706 0.61807 0.0
C1551 C 0.94474 0.64045 0.59503 0.0
C1552 C 0.95599 0.65163 0.6141 0.0
C1553 C 0.92443 0.62273 0.59691 0.0
H1554 H 0.92113 0.62399 0.65308 0.0
H1555 H 0.97216 0.66438 0.61288 0.0
O1556 O 0.9986 0.67374 0.7048 0.0
O1557 O 0.95193 0.6438 0.68864 0.0
O1558 O 0.97786 0.68766 0.66813 0.0
O1559 O 0.99037 0.65514 0.65771 0.0
H1560 H 0.00382 0.66024 0.74336 0.0
H1561 H 0.01962 0.71571 0.70611 0.0
H1562 H 0.02419 0.6835 0.7755 0.0
H1563 H 0.03953 0.73799 0.73889 0.0
H1564 H 0.89013 0.60823 0.72526 0.0
H1565 H 0.96755 0.64044 0.72722 0.0
H1566 H 0.91049 0.62554 0.69168 0.0
H1567 H 0.94625 0.6229 0.76011 0.0
H1568 H 0.96586 0.69573 0.77449 0.0
H1569 H 0.94719 0.72247 0.72184 0.0
H1570 H 0.02116 0.61295 0.70908 0.0
H1571 H 0.95537 0.57052 0.69204 0.0
H1572 H 0.97226 0.69566 0.62682 0.0
H1573 H 0.99596 0.72381 0.69158 0.0
H1574 H 0.98311 0.73124 0.61275 0.0
H1575 H 0.00648 0.75888 0.67638 0.0
H1576 H 0.02748 0.65738 0.65721 0.0
H1577 H 0.96121 0.61739 0.64199 0.0
H1578 H 0.03318 0.62822 0.64485 0.0
H1579 H 0.9681 0.58902 0.62974 0.0
H1580 H 0.07834 0.71259 0.68223 0.0
H1581 H 0.06052 0.74883 0.64091 0.0
H1582 H 0.90027 0.60319 0.62031 0.0
H1583 H 0.95218 0.64495 0.57904 0.0
C1584 C 0.23269 0.31202 0.03775 0.0
C1585 C 0.24705 0.32319 0.05798 0.0
C1586 C 0.22722 0.30556 0.09036 0.0
C1587 C 0.22855 0.32231 0.10317 0.0
C1588 C 0.212 0.31911 0.11702 0.0
C1589 C 0.19385 0.29872 0.11795 0.0
C1590 C 0.19322 0.28149 0.10631 0.0
C1591 C 0.21013 0.28512 0.09277 0.0
C1592 C 0.21337 0.33774 0.12963 0.0
C1593 C 0.17415 0.25955 0.1071 0.0
C1594 C 0.05815 0.28683 0.06605 0.0
C1595 C 0.07616 0.30541 0.05386 0.0
C1596 C 0.10556 0.31423 0.07982 0.0
C1597 C 0.10614 0.29554 0.07613 0.0
C1598 C 0.11844 0.29059 0.08981 0.0
C1599 C 0.13118 0.30509 0.10682 0.0
C1600 C 0.13201 0.32474 0.10932 0.0
C1601 C 0.11885 0.32885 0.09601 0.0
C1602 C 0.11747 0.26966 0.0863 0.0
C1603 C 0.14643 0.34129 0.12628 0.0
C1604 C 0.07535 0.29448 0.2395 0.0
C1605 C 0.07318 0.27432 0.23925 0.0
C1606 C 0.08918 0.27118 0.23079 0.0
C1607 C 0.10797 0.2887 0.22306 0.0
C1608 C 0.11036 0.30914 0.2239 0.0
C1609 C 0.09374 0.31161 0.23155 0.0
C1610 C 0.08589 0.24913 0.22996 0.0
C1611 C 0.13037 0.32846 0.21664 0.0
C1612 C 0.22581 0.24456 0.2635 0.0
C1613 C 0.22547 0.26523 0.2655 0.0
C1614 C 0.19314 0.26591 0.26016 0.0
C1615 C 0.17254 0.2503 0.25447 0.0
C1616 C 0.15973 0.25493 0.24118 0.0
C1617 C 0.16756 0.27593 0.23424 0.0
C1618 C 0.18798 0.2921 0.24131 0.0
C1619 C 0.20073 0.28681 0.25388 0.0
C1620 C 0.13806 0.23726 0.23412 0.0
C1621 C 0.19654 0.31487 0.23524 0.0
C1622 C 0.1744 0.29631 0.12783 0.0
C1623 C 0.16164 0.30054 0.11416 0.0
C1624 C 0.14346 0.29964 0.12212 0.0
C1625 C 0.13775 0.29447 0.14444 0.0
C1626 C 0.11927 0.29295 0.15288 0.0
C1627 C 0.11469 0.28955 0.17526 0.0
C1628 C 0.12835 0.28739 0.19001 0.0
C1629 C 0.12473 0.28564 0.21307 0.0
C1630 C 0.1379 0.28218 0.22708 0.0
C1631 C 0.1548 0.28064 0.21867 0.0
C1632 C 0.15927 0.28344 0.19576 0.0
C1633 C 0.17653 0.28271 0.18673 0.0
C1634 C 0.18154 0.28686 0.16445 0.0
C1635 C 0.16911 0.29127 0.15025 0.0
C1636 C 0.15092 0.2908 0.15868 0.0
C1637 C 0.14613 0.2871 0.18149 0.0
C1638 C 0.03963 0.29937 0.27784 0.0
C1639 C 0.04658 0.28684 0.26452 0.0
O1640 O 0.24184 0.30894 0.07496 0.0
O1641 O 0.20543 0.26042 0.27171 0.0
O1642 O 0.06024 0.29808 0.24768 0.0
O1643 O 0.0922 0.31862 0.0686 0.0
H1644 H 0.2447 0.33651 0.06314 0.0
H1645 H 0.21597 0.30602 0.04212 0.0
H1646 H 0.23432 0.29843 0.03202 0.0
H1647 H 0.23675 0.32321 0.02395 0.0
H1648 H 0.24225 0.33799 0.10183 0.0
H1649 H 0.20951 0.27225 0.08301 0.0
H1650 H 0.20211 0.34186 0.12216 0.0
H1651 H 0.22948 0.35189 0.12933 0.0
H1652 H 0.20885 0.33357 0.14715 0.0
H1653 H 0.17695 0.2475 0.09896 0.0
H1654 H 0.16059 0.25933 0.09859 0.0
H1655 H 0.16968 0.25513 0.12458 0.0
H1656 H 0.0824 0.29912 0.04091 0.0
H1657 H 0.06354 0.27685 0.07402 0.0
H1658 H 0.04531 0.27652 0.05407 0.0
H1659 H 0.05165 0.29264 0.07917 0.0
H1660 H 0.09669 0.28447 0.06297 0.0
H1661 H 0.11868 0.34344 0.09839 0.0
H1662 H 0.13272 0.27249 0.07969 0.0
H1663 H 0.10468 0.259 0.07442 0.0
H1664 H 0.11492 0.26151 0.10231 0.0
H1665 H 0.14891 0.35716 0.12251 0.0
H1666 H 0.16202 0.34231 0.12707 0.0
H1667 H 0.13929 0.33692 0.1429 0.0
H1668 H 0.03414 0.2704 0.25969 0.0
H1669 H 0.05886 0.26096 0.24526 0.0
H1670 H 0.09528 0.32712 0.23196 0.0
H1671 H 0.09017 0.24561 0.21345 0.0
H1672 H 0.06931 0.2369 0.23338 0.0
H1673 H 0.09631 0.24802 0.24258 0.0
H1674 H 0.13177 0.34329 0.22352 0.0
H1675 H 0.13028 0.3292 0.19828 0.0
H1676 H 0.14452 0.32777 0.22188 0.0
H1677 H 0.22933 0.27242 0.2488 0.0
H1678 H 0.24132 0.24754 0.2575 0.0
H1679 H 0.21343 0.2336 0.25141 0.0
H1680 H 0.22268 0.23678 0.27981 0.0
H1681 H 0.16682 0.23426 0.25974 0.0
H1682 H 0.21658 0.29893 0.25887 0.0
H1683 H 0.13599 0.2371 0.21584 0.0
H1684 H 0.12593 0.23993 0.24186 0.0
H1685 H 0.1352 0.2215 0.23905 0.0
H1686 H 0.21033 0.32588 0.24588 0.0
H1687 H 0.18416 0.31923 0.23674 0.0
H1688 H 0.20168 0.31703 0.21775 0.0
H1689 H 0.1661 0.30489 0.09708 0.0
H1690 H 0.1083 0.29475 0.14236 0.0
H1691 H 0.10041 0.28888 0.18088 0.0
H1692 H 0.13502 0.28077 0.24477 0.0
H1693 H 0.18665 0.27934 0.19685 0.0
H1694 H 0.1953 0.28664 0.15849 0.0
H1695 H 0.02193 0.29079 0.27536 0.0
H1696 H 0.0424 0.31316 0.26739 0.0
H1697 H 0.05527 0.3033 0.31114 0.0
C1698 C 0.67172 0.90601 0.03616 0.0
C1699 C 0.66807 0.91826 0.05474 0.0
C1700 C 0.69021 0.91707 0.08428 0.0
C1701 C 0.6749 0.90233 0.09835 0.0
C1702 C 0.6798 0.89057 0.11279 0.0
C1703 C 0.70042 0.89358 0.1131 0.0
C1704 C 0.71617 0.90924 0.0998 0.0
C1705 C 0.71089 0.921 0.08571 0.0
C1706 C 0.66277 0.87448 0.1273 0.0
C1707 C 0.73835 0.91305 0.09998 0.0
C1708 C 0.66857 0.76958 0.04277 0.0
C1709 C 0.66388 0.75677 0.06397 0.0
C1710 C 0.68471 0.78593 0.09044 0.0
C1711 C 0.70586 0.80077 0.09516 0.0
C1712 C 0.71162 0.82007 0.10604 0.0
C1713 C 0.6957 0.82419 0.11313 0.0
C1714 C 0.67421 0.80901 0.10881 0.0
C1715 C 0.66895 0.79013 0.09733 0.0
C1716 C 0.73471 0.83602 0.10998 0.0
C1717 C 0.65675 0.81267 0.11639 0.0
C1718 C 0.71192 0.79886 0.2514 0.0
C1719 C 0.7322 0.81605 0.24741 0.0
C1720 C 0.73477 0.83424 0.23717 0.0
C1721 C 0.71675 0.83545 0.23127 0.0
C1722 C 0.69641 0.81871 0.23649 0.0
C1723 C 0.69429 0.80054 0.24625 0.0
C1724 C 0.7567 0.85192 0.23205 0.0
C1725 C 0.67684 0.8197 0.23112 0.0
C1726 C 0.75555 0.00061 0.26649 0.0
C1727 C 0.7387 0.97724 0.26344 0.0
C1728 C 0.74198 0.94654 0.2544 0.0
C1729 C 0.75735 0.94141 0.24919 0.0
C1730 C 0.75218 0.92296 0.23685 0.0
C1731 C 0.73091 0.90892 0.2303 0.0
C1732 C 0.7151 0.91356 0.23644 0.0
C1733 C 0.72086 0.93251 0.24808 0.0
C1734 C 0.7695 0.91854 0.23077 0.0
C1735 C 0.6921 0.89852 0.23078 0.0
C1736 C 0.70467 0.87879 0.12555 0.0
C1737 C 0.70057 0.86013 0.11447 0.0
C1738 C 0.7014 0.84405 0.12565 0.0
C1739 C 0.70634 0.84648 0.1486 0.0
C1740 C 0.70626 0.83017 0.16057 0.0
C1741 C 0.71068 0.83249 0.18321 0.0
C1742 C 0.71523 0.85117 0.19483 0.0
C1743 C 0.71895 0.85331 0.21802 0.0
C1744 C 0.72399 0.87226 0.229 0.0
C1745 C 0.72522 0.88923 0.21746 0.0
C1746 C 0.72087 0.88715 0.19433 0.0
C1747 C 0.72131 0.90361 0.18222 0.0
C1748 C 0.71594 0.90092 0.15969 0.0
C1749 C 0.71066 0.88196 0.14827 0.0
C1750 C 0.71114 0.86556 0.1599 0.0
C1751 C 0.71584 0.86801 0.18302 0.0
C1752 C 0.73268 0.76976 0.2464 0.0
C1753 C 0.72324 0.77502 0.26647 0.0
O1754 O 0.68546 0.92759 0.06912 0.0
O1755 O 0.74806 0.96504 0.26559 0.0
O1756 O 0.70846 0.78025 0.25967 0.0
O1757 O 0.68017 0.76777 0.07936 0.0
H1758 H 0.65368 0.90701 0.06376 0.0
H1759 H 0.67369 0.89323 0.04326 0.0
H1760 H 0.68615 0.91673 0.02687 0.0
H1761 H 0.65797 0.89859 0.02445 0.0
H1762 H 0.65912 0.89994 0.09809 0.0
H1763 H 0.72269 0.9327 0.07506 0.0
H1764 H 0.65938 0.85838 0.12244 0.0
H1765 H 0.64788 0.87487 0.12604 0.0
H1766 H 0.66829 0.87742 0.14489 0.0
H1767 H 0.74917 0.92686 0.08997 0.0
H1768 H 0.73819 0.89879 0.09319 0.0
H1769 H 0.7446 0.91571 0.11728 0.0
H1770 H 0.64869 0.75392 0.07081 0.0
H1771 H 0.6696 0.78497 0.04651 0.0
H1772 H 0.6558 0.76092 0.03013 0.0
H1773 H 0.6838 0.77271 0.03573 0.0
H1774 H 0.7179 0.79735 0.08984 0.0
H1775 H 0.65249 0.7786 0.09426 0.0
H1776 H 0.73826 0.85192 0.10473 0.0
H1777 H 0.74511 0.83165 0.1009 0.0
H1778 H 0.73854 0.83717 0.12796 0.0
H1779 H 0.64094 0.79819 0.11457 0.0
H1780 H 0.65684 0.82524 0.10632 0.0
H1781 H 0.65932 0.81815 0.13403 0.0
H1782 H 0.73622 0.78854 0.27604 0.0
H1783 H 0.74609 0.81527 0.25175 0.0
H1784 H 0.67873 0.78734 0.24964 0.0
H1785 H 0.75788 0.85518 0.21404 0.0
H1786 H 0.76907 0.8482 0.23682 0.0
H1787 H 0.75987 0.86658 0.2411 0.0
H1788 H 0.66269 0.80712 0.23944 0.0
H1789 H 0.67381 0.8177 0.21294 0.0
H1790 H 0.67909 0.83535 0.23621 0.0
H1791 H 0.73223 0.97533 0.24622 0.0
H1792 H 0.74834 0.01068 0.2648 0.0
H1793 H 0.76772 0.0051 0.25358 0.0
H1794 H 0.76342 0.00374 0.28305 0.0
H1795 H 0.77357 0.95224 0.25433 0.0
H1796 H 0.70877 0.93612 0.25248 0.0
H1797 H 0.76835 0.91421 0.21286 0.0
H1798 H 0.76766 0.90493 0.24032 0.0
H1799 H 0.78546 0.93233 0.23443 0.0
H1800 H 0.68156 0.90269 0.23989 0.0
H1801 H 0.68765 0.88204 0.23469 0.0
H1802 H 0.68934 0.89898 0.21273 0.0
H1803 H 0.696 0.85782 0.09704 0.0
H1804 H 0.70261 0.81531 0.15264 0.0
H1805 H 0.71037 0.81936 0.19149 0.0
H1806 H 0.72684 0.87377 0.2468 0.0
H1807 H 0.72543 0.91862 0.19011 0.0
H1808 H 0.71609 0.91392 0.15128 0.0
H1809 H 0.74181 0.78389 0.23617 0.0
H1810 H 0.74358 0.76438 0.25208 0.0
H1811 H 0.72009 0.75715 0.23567 0.0
C1812 C 0.20769 0.91329 0.01992 0.0
C1813 C 0.22387 0.91805 0.0386 0.0
C1814 C 0.20426 0.91095 0.07314 0.0
C1815 C 0.18946 0.91546 0.08205 0.0
C1816 C 0.17507 0.90239 0.09786 0.0
C1817 C 0.17608 0.88477 0.10548 0.0
C1818 C 0.19164 0.88062 0.09718 0.0
C1819 C 0.20556 0.89375 0.08102 0.0
C1820 C 0.15854 0.90719 0.10609 0.0
C1821 C 0.19349 0.86228 0.10536 0.0
C1822 C 0.03233 0.75268 0.07762 0.0
C1823 C 0.05281 0.7548 0.06868 0.0
C1824 C 0.08086 0.77802 0.0954 0.0
C1825 C 0.09612 0.77895 0.11001 0.0
C1826 C 0.11132 0.79814 0.12007 0.0
C1827 C 0.11068 0.81678 0.11598 0.0
C1828 C 0.09502 0.81591 0.10149 0.0
C1829 C 0.08045 0.7966 0.0911 0.0
C1830 C 0.1282 0.79846 0.13478 0.0
C1831 C 0.09372 0.8354 0.0969 0.0
C1832 C 0.07998 0.81552 0.26108 0.0
C1833 C 0.09338 0.80872 0.25289 0.0
C1834 C 0.1104 0.82181 0.23939 0.0
C1835 C 0.11352 0.84182 0.23343 0.0
C1836 C 0.10006 0.84874 0.24198 0.0
C1837 C 0.08367 0.8356 0.25607 0.0
C1838 C 0.12491 0.8142 0.2315 0.0
C1839 C 0.10284 0.86992 0.23612 0.0
C1840 C 0.24979 0.99051 0.25282 0.0
C1841 C 0.24313 0.97055 0.26615 0.0
C1842 C 0.22204 0.93813 0.24361 0.0
C1843 C 0.22127 0.91935 0.23729 0.0
C1844 C 0.20278 0.90217 0.22822 0.0
C1845 C 0.1848 0.90416 0.22471 0.0
C1846 C 0.1855 0.92321 0.23088 0.0
C1847 C 0.20408 0.93999 0.24041 0.0
C1848 C 0.20253 0.88197 0.22222 0.0
C1849 C 0.1667 0.92594 0.2271 0.0
C1850 C 0.16017 0.87013 0.12123 0.0
C1851 C 0.14323 0.85136 0.11253 0.0
C1852 C 0.12701 0.83727 0.12606 0.0
C1853 C 0.12726 0.84226 0.14885 0.0
C1854 C 0.11037 0.8293 0.16259 0.0
C1855 C 0.11121 0.83389 0.18519 0.0
C1856 C 0.12917 0.85132 0.195 0.0
C1857 C 0.13073 0.85546 0.21817 0.0
C1858 C 0.14894 0.87285 0.2273 0.0
C1859 C 0.16557 0.88654 0.21387 0.0
C1860 C 0.16409 0.88293 0.19065 0.0
C1861 C 0.18029 0.89671 0.17659 0.0
C1862 C 0.179 0.89266 0.15383 0.0
C1863 C 0.16149 0.87465 0.14427 0.0
C1864 C 0.14488 0.86069 0.1581 0.0
C1865 C 0.14602 0.86502 0.18126 0.0
C1866 C 0.0273 0.78486 0.26371 0.0
C1867 C 0.04705 0.78326 0.26748 0.0
O1868 O 0.21745 0.924 0.05759 0.0
O1869 O 0.24049 0.95413 0.25224 0.0
O1870 O 0.06356 0.80301 0.2741 0.0
O1871 O 0.06692 0.75888 0.08601 0.0
H1872 H 0.22462 0.90346 0.04103 0.0
H1873 H 0.19176 0.90087 0.02515 0.0
H1874 H 0.20712 0.92774 0.01599 0.0
H1875 H 0.21162 0.90736 0.00469 0.0
H1876 H 0.18886 0.92901 0.07609 0.0
H1877 H 0.21764 0.89073 0.07495 0.0
H1878 H 0.14258 0.89296 0.10397 0.0
H1879 H 0.15886 0.92049 0.09722 0.0
H1880 H 0.16119 0.91136 0.12406 0.0
H1881 H 0.20794 0.8627 0.09934 0.0
H1882 H 0.17952 0.8472 0.0995 0.0
H1883 H 0.19368 0.86235 0.12378 0.0
H1884 H 0.05974 0.76785 0.05662 0.0
H1885 H 0.0208 0.74895 0.06379 0.0
H1886 H 0.0354 0.76764 0.08584 0.0
H1887 H 0.02515 0.73994 0.08996 0.0
H1888 H 0.09633 0.76456 0.1132 0.0
H1889 H 0.06878 0.79624 0.0798 0.0
H1890 H 0.12516 0.80065 0.15234 0.0
H1891 H 0.144 0.81187 0.13063 0.0
H1892 H 0.12856 0.78353 0.13325 0.0
H1893 H 0.07872 0.83148 0.08825 0.0
H1894 H 0.10705 0.8461 0.08629 0.0
H1895 H 0.09507 0.84415 0.11263 0.0
H1896 H 0.05068 0.77803 0.25147 0.0
H1897 H 0.09061 0.79326 0.25729 0.0
H1898 H 0.07327 0.8407 0.26276 0.0
H1899 H 0.12146 0.80928 0.21374 0.0
H1900 H 0.12289 0.80046 0.24099 0.0
H1901 H 0.14166 0.8271 0.233 0.0
H1902 H 0.08934 0.87162 0.24153 0.0
H1903 H 0.10462 0.87219 0.21794 0.0
H1904 H 0.11743 0.88268 0.24435 0.0
H1905 H 0.22806 0.96633 0.27448 0.0
H1906 H 0.25287 0.00394 0.26413 0.0
H1907 H 0.23701 0.98781 0.24094 0.0
H1908 H 0.26422 0.99487 0.24321 0.0
H1909 H 0.23523 0.91812 0.23976 0.0
H1910 H 0.2046 0.9546 0.24486 0.0
H1911 H 0.20186 0.87989 0.2039 0.0
H1912 H 0.18827 0.86815 0.22893 0.0
H1913 H 0.21677 0.88203 0.22864 0.0
H1914 H 0.17029 0.94228 0.2312 0.0
H1915 H 0.15351 0.91478 0.23758 0.0
H1916 H 0.16124 0.92209 0.20952 0.0
H1917 H 0.14274 0.8476 0.09497 0.0
H1918 H 0.09633 0.81547 0.15599 0.0
H1919 H 0.09772 0.82337 0.19493 0.0
H1920 H 0.15024 0.87573 0.24511 0.0
H1921 H 0.19421 0.91076 0.18304 0.0
H1922 H 0.19201 0.9037 0.14385 0.0
H1923 H 0.02278 0.78967 0.27935 0.0
H1924 H 0.01389 0.76944 0.25765 0.0
H1925 H 0.03043 0.79685 0.25101 0.0
C1926 C 0.32888 0.11373 8e-05 0.0
C1927 C 0.33043 0.10499 0.97739 0.0
C1928 C 0.31069 0.11213 0.94868 0.0
C1929 C 0.29029 0.10771 0.94342 0.0
C1930 C 0.28663 0.11879 0.92697 0.0
C1931 C 0.30387 0.13455 0.91526 0.0
C1932 C 0.32458 0.13898 0.92021 0.0
C1933 C 0.32781 0.12769 0.93684 0.0
C1934 C 0.26433 0.11367 0.92209 0.0
C1935 C 0.34323 0.15549 0.90772 0.0
C1936 C 0.28039 0.26106 0.92738 0.0
C1937 C 0.29816 0.25854 0.93754 0.0
C1938 C 0.3051 0.23592 0.91277 0.0
C1939 C 0.32077 0.23535 0.90034 0.0
C1940 C 0.31816 0.21614 0.89211 0.0
C1941 C 0.29914 0.19707 0.89607 0.0
C1942 C 0.28291 0.19755 0.90803 0.0
C1943 C 0.28604 0.21695 0.9163 0.0
C1944 C 0.33588 0.2162 0.87954 0.0
C1945 C 0.26233 0.17751 0.91224 0.0
C1946 C 0.25885 0.17827 0.75244 0.0
C1947 C 0.27997 0.18769 0.75946 0.0
C1948 C 0.28647 0.17721 0.77394 0.0
C1949 C 0.27125 0.15732 0.78229 0.0
C1950 C 0.24997 0.14766 0.77478 0.0
C1951 C 0.24415 0.15813 0.75955 0.0
C1952 C 0.30951 0.18758 0.7805 0.0
C1953 C 0.23326 0.12646 0.78311 0.0
C1954 C 0.27175 0.01381 0.78765 0.0
C1955 C 0.28028 0.03102 0.77024 0.0
C1956 C 0.29123 0.06627 0.78617 0.0
C1957 C 0.30875 0.08663 0.7884 0.0
C1958 C 0.30654 0.10385 0.79485 0.0
C1959 C 0.28626 0.10047 0.79966 0.0
C1960 C 0.26842 0.07986 0.7976 0.0
C1961 C 0.27107 0.06293 0.79087 0.0
C1962 C 0.32592 0.12562 0.79683 0.0
C1963 C 0.24663 0.07571 0.80296 0.0
C1964 C 0.30015 0.14631 0.89778 0.0
C1965 C 0.30092 0.16513 0.90395 0.0
C1966 C 0.29668 0.17656 0.88855 0.0
C1967 C 0.291 0.16883 0.86645 0.0
C1968 C 0.28524 0.17916 0.85092 0.0
C1969 C 0.28018 0.17166 0.82906 0.0
C1970 C 0.28135 0.15396 0.82174 0.0
C1971 C 0.27736 0.14685 0.79927 0.0
C1972 C 0.27895 0.12934 0.79263 0.0
C1973 C 0.28395 0.11835 0.80791 0.0
C1974 C 0.28746 0.12489 0.83049 0.0
C1975 C 0.29191 0.1138 0.84639 0.0
C1976 C 0.29582 0.12062 0.86849 0.0
C1977 C 0.2957 0.13895 0.87547 0.0
C1978 C 0.29104 0.15023 0.85977 0.0
C1979 C 0.28658 0.143 0.83732 0.0
C1980 C 0.23429 0.20777 0.73957 0.0
C1981 C 0.25501 0.20823 0.74416 0.0
O1982 O 0.31275 0.10046 0.96468 0.0
O1983 O 0.29464 0.05037 0.78001 0.0
O1984 O 0.25227 0.1885 0.73904 0.0
O1985 O 0.30907 0.255 0.92101 0.0
H1986 H 0.34533 0.11712 0.96992 0.0
H1987 H 0.32827 0.12843 0.99797 0.0
H1988 H 0.31438 0.10201 0.00864 0.0
H1989 H 0.34288 0.11759 0.01065 0.0
H1990 H 0.27717 0.09554 0.95245 0.0
H1991 H 0.34366 0.13091 0.93995 0.0
H1992 H 0.26321 0.12812 0.92448 0.0
H1993 H 0.25266 0.10113 0.93287 0.0
H1994 H 0.2601 0.10835 0.90449 0.0
H1995 H 0.35838 0.1571 0.91348 0.0
H1996 H 0.34424 0.17106 0.90976 0.0
H1997 H 0.34103 0.15128 0.88973 0.0
H1998 H 0.29096 0.24491 0.94888 0.0
H1999 H 0.27204 0.26452 0.94062 0.0
H2000 H 0.26871 0.24626 0.9185 0.0
H2001 H 0.2867 0.27406 0.91532 0.0
H2002 H 0.33533 0.25004 0.89754 0.0
H2003 H 0.2735 0.21708 0.92544 0.0
H2004 H 0.33053 0.21033 0.86226 0.0
H2005 H 0.34028 0.20533 0.88735 0.0
H2006 H 0.35013 0.23223 0.879 0.0
H2007 H 0.25046 0.18074 0.91979 0.0
H2008 H 0.26522 0.16747 0.92362 0.0
H2009 H 0.25567 0.16834 0.89647 0.0
H2010 H 0.25867 0.21193 0.76225 0.0
H2011 H 0.29135 0.20317 0.75349 0.0
H2012 H 0.22791 0.151 0.75378 0.0
H2013 H 0.31201 0.19509 0.79723 0.0
H2014 H 0.3197 0.20005 0.76875 0.0
H2015 H 0.31463 0.17571 0.78119 0.0
H2016 H 0.21708 0.12256 0.77806 0.0
H2017 H 0.23414 0.12619 0.80148 0.0
H2018 H 0.23603 0.11394 0.77628 0.0
H2019 H 0.26673 0.03166 0.76276 0.0
H2020 H 0.26057 0.9982 0.77976 0.0
H2021 H 0.26319 0.01739 0.80051 0.0
H2022 H 0.2848 0.01288 0.79592 0.0
H2023 H 0.32425 0.089 0.7849 0.0
H2024 H 0.25743 0.04714 0.78978 0.0
H2025 H 0.32872 0.13102 0.81448 0.0
H2026 H 0.32344 0.13708 0.78739 0.0
H2027 H 0.34025 0.1259 0.79061 0.0
H2028 H 0.23441 0.0587 0.80105 0.0
H2029 H 0.24242 0.08496 0.79184 0.0
H2030 H 0.24648 0.08106 0.82027 0.0
H2031 H 0.30493 0.17098 0.92099 0.0
H2032 H 0.28448 0.19309 0.85552 0.0
H2033 H 0.27566 0.18016 0.81792 0.0
H2034 H 0.27628 0.1242 0.77533 0.0
H2035 H 0.29242 0.0997 0.84195 0.0
H2036 H 0.29921 0.11149 0.87997 0.0
H2037 H 0.22952 0.20389 0.7218 0.0
H2038 H 0.23599 0.22336 0.7439 0.0
H2039 H 0.22161 0.19557 0.74983 0.0
C2040 C 0.77926 0.09109 0.97965 0.0
C2041 C 0.76413 0.08229 0.95956 0.0
C2042 C 0.78493 0.08198 0.92866 0.0
C2043 C 0.783 0.09564 0.91412 0.0
C2044 C 0.79906 0.10763 0.89921 0.0
C2045 C 0.81725 0.10568 0.89874 0.0
C2046 C 0.8184 0.09063 0.91212 0.0
C2047 C 0.80206 0.07879 0.92685 0.0
C2048 C 0.79711 0.12322 0.88483 0.0
C2049 C 0.83741 0.08791 0.91171 0.0
C2050 C 0.95879 0.23681 0.93732 0.0
C2051 C 0.94062 0.23593 0.95067 0.0
C2052 C 0.9098 0.21303 0.9269 0.0
C2053 C 0.91032 0.19433 0.93012 0.0
C2054 C 0.89651 0.17568 0.91826 0.0
C2055 C 0.88151 0.17557 0.90339 0.0
C2056 C 0.88007 0.19398 0.90115 0.0
C2057 C 0.89447 0.21257 0.91275 0.0
C2058 C 0.89824 0.15621 0.9213 0.0
C2059 C 0.86363 0.19421 0.88619 0.0
C2060 C 0.92486 0.2115 0.76716 0.0
C2061 C 0.92756 0.19385 0.767 0.0
C2062 C 0.91241 0.17475 0.77637 0.0
C2063 C 0.89399 0.17318 0.78555 0.0
C2064 C 0.89092 0.19075 0.78487 0.0
C2065 C 0.90666 0.20981 0.77617 0.0
C2066 C 0.91632 0.15645 0.77694 0.0
C2067 C 0.87117 0.18962 0.79364 0.0
C2068 C 0.75857 0.00811 0.75779 0.0
C2069 C 0.76651 0.03181 0.75689 0.0
C2070 C 0.80244 0.06162 0.7598 0.0
C2071 C 0.82301 0.06573 0.76313 0.0
C2072 C 0.83836 0.08453 0.77379 0.0
C2073 C 0.83303 0.09977 0.78063 0.0
C2074 C 0.8127 0.09643 0.77562 0.0
C2075 C 0.79752 0.07725 0.76551 0.0
C2076 C 0.85998 0.08772 0.77856 0.0
C2077 C 0.80673 0.11276 0.78171 0.0
C2078 C 0.83623 0.12166 0.88714 0.0
C2079 C 0.8503 0.13981 0.89941 0.0
C2080 C 0.86784 0.15644 0.8896 0.0
C2081 C 0.8716 0.15512 0.86687 0.0
C2082 C 0.88929 0.17153 0.85657 0.0
C2083 C 0.89192 0.17088 0.83385 0.0
C2084 C 0.87703 0.15373 0.82058 0.0
C2085 C 0.87857 0.15379 0.79722 0.0
C2086 C 0.86415 0.13598 0.78462 0.0
C2087 C 0.84795 0.11817 0.79478 0.0
C2088 C 0.84558 0.11828 0.81807 0.0
C2089 C 0.82898 0.10099 0.82881 0.0
C2090 C 0.82594 0.10194 0.85149 0.0
C2091 C 0.83966 0.11999 0.86434 0.0
C2092 C 0.85721 0.13703 0.85409 0.0
C2093 C 0.86004 0.13626 0.83092 0.0
C2094 C 0.96087 0.25308 0.73002 0.0
C2095 C 0.95367 0.23333 0.7424 0.0
O2096 O 0.7708 0.07215 0.94492 0.0
O2097 O 0.78767 0.04233 0.7515 0.0
O2098 O 0.93938 0.23039 0.75882 0.0
O2099 O 0.92391 0.23188 0.9367 0.0
H2100 H 0.76436 0.096 0.95167 0.0
H2101 H 0.79524 0.1032 0.9742 0.0
H2102 H 0.78052 0.07834 0.98792 0.0
H2103 H 0.77372 0.0987 0.99181 0.0
H2104 H 0.76917 0.09728 0.91473 0.0
H2105 H 0.80314 0.06783 0.93785 0.0
H2106 H 0.80943 0.13958 0.88984 0.0
H2107 H 0.7814 0.12187 0.88612 0.0
H2108 H 0.79975 0.12068 0.86722 0.0
H2109 H 0.83472 0.07372 0.92079 0.0
H2110 H 0.85113 0.10209 0.91951 0.0
H2111 H 0.84155 0.08656 0.89432 0.0
H2112 H 0.93542 0.22332 0.96316 0.0
H2113 H 0.95388 0.2214 0.92891 0.0
H2114 H 0.97234 0.24055 0.94858 0.0
H2115 H 0.96414 0.24903 0.92442 0.0
H2116 H 0.92167 0.19415 0.94146 0.0
H2117 H 0.89397 0.22696 0.91063 0.0
H2118 H 0.88364 0.14368 0.92897 0.0
H2119 H 0.91195 0.15941 0.93203 0.0
H2120 H 0.89977 0.14995 0.90494 0.0
H2121 H 0.86196 0.20822 0.88962 0.0
H2122 H 0.84804 0.17966 0.8882 0.0
H2123 H 0.86824 0.19463 0.86864 0.0
H2124 H 0.96611 0.22971 0.74737 0.0
H2125 H 0.9417 0.1951 0.7601 0.0
H2126 H 0.90467 0.22348 0.77605 0.0
H2127 H 0.91477 0.15071 0.79413 0.0
H2128 H 0.9322 0.16078 0.77082 0.0
H2129 H 0.90425 0.14317 0.76643 0.0
H2130 H 0.86893 0.20243 0.78707 0.0
H2131 H 0.87238 0.19137 0.812 0.0
H2132 H 0.85698 0.17413 0.78927 0.0
H2133 H 0.76449 0.03679 0.77385 0.0
H2134 H 0.74155 0.99925 0.76196 0.0
H2135 H 0.76751 0.0052 0.77081 0.0
H2136 H 0.76075 0.00199 0.74164 0.0
H2137 H 0.82673 0.05369 0.7583 0.0
H2138 H 0.78179 0.07446 0.7623 0.0
H2139 H 0.86328 0.08981 0.79672 0.0
H2140 H 0.87214 0.10235 0.7706 0.0
H2141 H 0.86154 0.07421 0.77242 0.0
H2142 H 0.79202 0.10964 0.77301 0.0
H2143 H 0.81965 0.12886 0.77764 0.0
H2144 H 0.80418 0.11254 0.79984 0.0
H2145 H 0.84733 0.14119 0.9168 0.0
H2146 H 0.90111 0.18527 0.86589 0.0
H2147 H 0.90565 0.18414 0.82677 0.0
H2148 H 0.86528 0.13611 0.76669 0.0
H2149 H 0.81787 0.08669 0.81976 0.0
H2150 H 0.81265 0.08842 0.85882 0.0
H2151 H 0.97848 0.2626 0.73322 0.0
H2152 H 0.95759 0.2638 0.74082 0.0
H2153 H 0.94649 0.24158 0.696 0.0
C2154 C 0.78463 0.70405 0.99562 0.0
C2155 C 0.76986 0.69839 0.97532 0.0
C2156 C 0.78548 0.68741 0.94575 0.0
C2157 C 0.80271 0.70769 0.94176 0.0
C2158 C 0.81747 0.71064 0.92553 0.0
C2159 C 0.81506 0.693 0.91311 0.0
C2160 C 0.79753 0.67267 0.9167 0.0
C2161 C 0.78297 0.67016 0.93301 0.0
C2162 C 0.83605 0.73254 0.92209 0.0
C2163 C 0.79453 0.65353 0.90372 0.0
C2164 C 0.95938 0.70391 0.93126 0.0
C2165 C 0.94148 0.69054 0.94716 0.0
C2166 C 0.90963 0.68251 0.92568 0.0
C2167 C 0.89241 0.66674 0.91358 0.0
C2168 C 0.87785 0.6709 0.90314 0.0
C2169 C 0.88066 0.69143 0.90493 0.0
C2170 C 0.89804 0.70754 0.91711 0.0
C2171 C 0.9124 0.70295 0.92736 0.0
C2172 C 0.85941 0.65337 0.89026 0.0
C2173 C 0.90139 0.72958 0.9193 0.0
C2174 C 0.92392 0.72903 0.76876 0.0
C2175 C 0.90847 0.70811 0.77306 0.0
C2176 C 0.88956 0.70359 0.78324 0.0
C2177 C 0.88649 0.72045 0.78995 0.0
C2178 C 0.90171 0.74149 0.78466 0.0
C2179 C 0.9201 0.74544 0.77372 0.0
C2180 C 0.87323 0.68085 0.78746 0.0
C2181 C 0.89891 0.75986 0.79124 0.0
C2182 C 0.74968 0.73085 0.78054 0.0
C2183 C 0.75624 0.72203 0.76092 0.0
C2184 C 0.77885 0.70921 0.77632 0.0
C2185 C 0.77991 0.69098 0.77959 0.0
C2186 C 0.798 0.69208 0.78879 0.0
C2187 C 0.81539 0.71201 0.79522 0.0
C2188 C 0.81463 0.73063 0.79165 0.0
C2189 C 0.79637 0.72908 0.78214 0.0
C2190 C 0.79837 0.67191 0.79202 0.0
C2191 C 0.83294 0.7521 0.79836 0.0
C2192 C 0.83201 0.69554 0.89809 0.0
C2193 C 0.84809 0.69302 0.9072 0.0
C2194 C 0.86505 0.69583 0.89449 0.0
C2195 C 0.86643 0.70181 0.87217 0.0
C2196 C 0.88392 0.70591 0.85932 0.0
C2197 C 0.88489 0.71131 0.8372 0.0
C2198 C 0.86807 0.71209 0.82686 0.0
C2199 C 0.86833 0.71633 0.80402 0.0
C2200 C 0.85115 0.7166 0.79425 0.0
C2201 C 0.83379 0.7131 0.80681 0.0
C2202 C 0.8335 0.70942 0.82979 0.0
C2203 C 0.81654 0.70645 0.84304 0.0
C2204 C 0.81611 0.70218 0.8655 0.0
C2205 C 0.8325 0.70046 0.87547 0.0
C2206 C 0.84985 0.70367 0.86248 0.0
C2207 C 0.85051 0.70848 0.83971 0.0
C2208 C 0.97738 0.7444 0.77254 0.0
C2209 C 0.95516 0.72582 0.76749 0.0
O2210 O 0.77118 0.68362 0.96185 0.0
O2211 O 0.76048 0.70667 0.76796 0.0
O2212 O 0.94274 0.73382 0.76008 0.0
O2213 O 0.92309 0.67726 0.93531 0.0
H2214 H 0.77463 0.71309 0.96607 0.0
H2215 H 0.78169 0.68964 0.00441 0.0
H2216 H 0.80134 0.7125 0.99042 0.0
H2217 H 0.78241 0.71462 0.00731 0.0
H2218 H 0.80511 0.72129 0.95147 0.0
H2219 H 0.76965 0.6546 0.93614 0.0
H2220 H 0.8509 0.7329 0.92662 0.0
H2221 H 0.83507 0.74483 0.93218 0.0
H2222 H 0.83695 0.73657 0.90431 0.0
H2223 H 0.77926 0.63909 0.90727 0.0
H2224 H 0.80755 0.65059 0.90793 0.0
H2225 H 0.79525 0.65649 0.88566 0.0
H2226 H 0.93889 0.70113 0.95847 0.0
H2227 H 0.97419 0.71452 0.94076 0.0
H2228 H 0.95538 0.71393 0.92114 0.0
H2229 H 0.96221 0.69357 0.91984 0.0
H2230 H 0.89042 0.65106 0.91234 0.0
H2231 H 0.92564 0.71547 0.93656 0.0
H2232 H 0.8599 0.65797 0.87274 0.0
H2233 H 0.84438 0.65082 0.89726 0.0
H2234 H 0.8594 0.63822 0.89058 0.0
H2235 H 0.91607 0.74057 0.92877 0.0
H2236 H 0.88777 0.72899 0.92785 0.0
H2237 H 0.90218 0.73602 0.90258 0.0
H2238 H 0.94918 0.71739 0.78338 0.0
H2239 H 0.91127 0.69538 0.76853 0.0
H2240 H 0.93207 0.76149 0.76994 0.0
H2241 H 0.87431 0.67736 0.8051 0.0
H2242 H 0.87568 0.6697 0.77695 0.0
H2243 H 0.85707 0.67795 0.78425 0.0
H2244 H 0.91287 0.77535 0.78722 0.0
H2245 H 0.89608 0.75967 0.80933 0.0
H2246 H 0.88488 0.75834 0.78244 0.0
H2247 H 0.77049 0.73516 0.75324 0.0
H2248 H 0.74591 0.7429 0.77478 0.0
H2249 H 0.76271 0.73852 0.79305 0.0
H2250 H 0.73561 0.718 0.7887 0.0
H2251 H 0.76634 0.67575 0.77498 0.0
H2252 H 0.79581 0.74337 0.77975 0.0
H2253 H 0.79844 0.66905 0.81003 0.0
H2254 H 0.81299 0.67339 0.78504 0.0
H2255 H 0.7845 0.65796 0.78408 0.0
H2256 H 0.82983 0.76509 0.79472 0.0
H2257 H 0.84728 0.75496 0.78942 0.0
H2258 H 0.83635 0.75254 0.81639 0.0
H2259 H 0.84734 0.68873 0.92445 0.0
H2260 H 0.89712 0.7051 0.86626 0.0
H2261 H 0.89887 0.7145 0.82824 0.0
H2262 H 0.8512 0.71934 0.77662 0.0
H2263 H 0.80338 0.70737 0.83619 0.0
H2264 H 0.80266 0.69995 0.87489 0.0
H2265 H 0.98453 0.75342 0.75729 0.0
H2266 H 0.98768 0.73869 0.77927 0.0
H2267 H 0.97665 0.75524 0.78514 0.0
C2268 C 0.88975 0.64189 0.34841 0.0
C2269 C 0.89789 0.65257 0.37123 0.0
C2270 C 0.87826 0.63819 0.40524 0.0
C2271 C 0.88347 0.65738 0.41607 0.0
C2272 C 0.87116 0.65787 0.4335 0.0
C2273 C 0.85333 0.63881 0.44016 0.0
C2274 C 0.8488 0.61934 0.43008 0.0
C2275 C 0.86156 0.6193 0.41291 0.0
C2276 C 0.87676 0.67882 0.44433 0.0
C2277 C 0.82995 0.59869 0.43675 0.0
C2278 C 0.7073 0.62314 0.42565 0.0
C2279 C 0.72435 0.63857 0.40994 0.0
C2280 C 0.75791 0.65045 0.42989 0.0
C2281 C 0.75725 0.63095 0.42848 0.0
C2282 C 0.77348 0.62864 0.43774 0.0
C2283 C 0.79088 0.64624 0.44834 0.0
C2284 C 0.79199 0.66606 0.44916 0.0
C2285 C 0.77534 0.66783 0.44008 0.0
C2286 C 0.77184 0.60726 0.43653 0.0
C2287 C 0.81057 0.68523 0.45996 0.0
C2288 C 0.75483 0.62835 0.58604 0.0
C2289 C 0.75229 0.60879 0.57899 0.0
C2290 C 0.7688 0.60777 0.56855 0.0
C2291 C 0.7883 0.6266 0.56546 0.0
C2292 C 0.79133 0.64607 0.57394 0.0
C2293 C 0.77451 0.64667 0.58405 0.0
C2294 C 0.76515 0.5867 0.55995 0.0
C2295 C 0.81204 0.66641 0.57133 0.0
C2296 C 0.92121 0.59308 0.57313 0.0
C2297 C 0.91357 0.6088 0.57663 0.0
C2298 C 0.87825 0.60403 0.57266 0.0
C2299 C 0.8573 0.58859 0.56805 0.0
C2300 C 0.84277 0.59409 0.56019 0.0
C2301 C 0.84931 0.61568 0.55752 0.0
C2302 C 0.87019 0.63148 0.56348 0.0
C2303 C 0.88455 0.62549 0.57076 0.0
C2304 C 0.82058 0.57679 0.55418 0.0
C2305 C 0.87748 0.65468 0.56164 0.0
C2306 C 0.83804 0.63948 0.45561 0.0
C2307 C 0.82307 0.64371 0.4465 0.0
C2308 C 0.80734 0.6435 0.45948 0.0
C2309 C 0.80657 0.63931 0.48232 0.0
C2310 C 0.79077 0.63879 0.49576 0.0
C2311 C 0.79008 0.63462 0.5182 0.0
C2312 C 0.80507 0.63063 0.52809 0.0
C2313 C 0.80445 0.62637 0.55095 0.0
C2314 C 0.81923 0.62191 0.56017 0.0
C2315 C 0.83473 0.62157 0.54708 0.0
C2316 C 0.8358 0.62614 0.52423 0.0
C2317 C 0.85123 0.62603 0.51056 0.0
C2318 C 0.8522 0.63067 0.48816 0.0
C2319 C 0.83754 0.63519 0.47845 0.0
C2320 C 0.82176 0.6352 0.49186 0.0
C2321 C 0.82094 0.63074 0.51477 0.0
C2322 C 0.70727 0.60975 0.57204 0.0
C2323 C 0.71757 0.61528 0.59531 0.0
O2324 O 0.8888 0.63729 0.38725 0.0
O2325 O 0.89185 0.59756 0.57883 0.0
O2326 O 0.73881 0.63049 0.59431 0.0
O2327 O 0.74207 0.65316 0.42198 0.0
H2328 H 0.89302 0.66465 0.37294 0.0
H2329 H 0.87228 0.6343 0.34751 0.0
H2330 H 0.89403 0.62954 0.34535 0.0
H2331 H 0.89652 0.65375 0.33515 0.0
H2332 H 0.897 0.67197 0.4108 0.0
H2333 H 0.85796 0.60455 0.40468 0.0
H2334 H 0.86479 0.68306 0.43949 0.0
H2335 H 0.89255 0.69174 0.43939 0.0
H2336 H 0.87653 0.67759 0.46267 0.0
H2337 H 0.82859 0.58493 0.42723 0.0
H2338 H 0.81527 0.59924 0.43406 0.0
H2339 H 0.83113 0.59624 0.45469 0.0
H2340 H 0.72849 0.62934 0.39829 0.0
H2341 H 0.71257 0.61326 0.43409 0.0
H2342 H 0.69256 0.61237 0.41614 0.0
H2343 H 0.70376 0.63175 0.43866 0.0
H2344 H 0.74404 0.61729 0.42053 0.0
H2345 H 0.77581 0.68284 0.441 0.0
H2346 H 0.785 0.60834 0.4266 0.0
H2347 H 0.75669 0.59484 0.42885 0.0
H2348 H 0.77332 0.6023 0.45343 0.0
H2349 H 0.81012 0.69993 0.45719 0.0
H2350 H 0.82556 0.68726 0.45341 0.0
H2351 H 0.81062 0.6829 0.4781 0.0
H2352 H 0.71582 0.60073 0.60281 0.0
H2353 H 0.73738 0.59434 0.58103 0.0
H2354 H 0.77645 0.66164 0.58985 0.0
H2355 H 0.76674 0.58707 0.54164 0.0
H2356 H 0.74929 0.57341 0.56414 0.0
H2357 H 0.77732 0.58367 0.56704 0.0
H2358 H 0.81282 0.67967 0.58132 0.0
H2359 H 0.81409 0.67078 0.55361 0.0
H2360 H 0.82538 0.66425 0.57639 0.0
H2361 H 0.91778 0.61862 0.56154 0.0
H2362 H 0.93854 0.60159 0.57064 0.0
H2363 H 0.91335 0.58298 0.55815 0.0
H2364 H 0.91741 0.58272 0.58767 0.0
H2365 H 0.85256 0.57209 0.56991 0.0
H2366 H 0.90062 0.6376 0.5749 0.0
H2367 H 0.81663 0.57854 0.53683 0.0
H2368 H 0.80927 0.57819 0.56515 0.0
H2369 H 0.81841 0.56075 0.55588 0.0
H2370 H 0.89297 0.66491 0.57014 0.0
H2371 H 0.86566 0.65814 0.56887 0.0
H2372 H 0.87905 0.65886 0.54388 0.0
H2373 H 0.82334 0.64668 0.42889 0.0
H2374 H 0.77873 0.64163 0.48912 0.0
H2375 H 0.77754 0.63448 0.52764 0.0
H2376 H 0.81856 0.61849 0.57768 0.0
H2377 H 0.86279 0.62241 0.51702 0.0
H2378 H 0.86449 0.63052 0.47848 0.0
H2379 H 0.71403 0.60217 0.56154 0.0
H2380 H 0.69003 0.59846 0.57319 0.0
H2381 H 0.70976 0.6242 0.56365 0.0
C2382 C 0.36699 0.26157 0.35999 0.0
C2383 C 0.35533 0.26002 0.38144 0.0
C2384 C 0.37114 0.25305 0.41329 0.0
C2385 C 0.35335 0.23673 0.42339 0.0
C2386 C 0.35523 0.22262 0.43733 0.0
C2387 C 0.37532 0.22491 0.44116 0.0
C2388 C 0.39337 0.24175 0.43147 0.0
C2389 C 0.39106 0.25583 0.41787 0.0
C2390 C 0.3357 0.20511 0.44776 0.0
C2391 C 0.415 0.2446 0.43515 0.0
C2392 C 0.39106 0.09361 0.43087 0.0
C2393 C 0.37932 0.0947 0.41022 0.0
C2394 C 0.36675 0.11821 0.42394 0.0
C2395 C 0.38661 0.13687 0.42511 0.0
C2396 C 0.38894 0.15548 0.4348 0.0
C2397 C 0.37104 0.15553 0.44321 0.0
C2398 C 0.35089 0.13713 0.44101 0.0
C2399 C 0.34904 0.11867 0.43144 0.0
C2400 C 0.41063 0.17496 0.43664 0.0
C2401 C 0.33143 0.13681 0.44939 0.0
C2402 C 0.37337 0.1308 0.59036 0.0
C2403 C 0.39378 0.14459 0.58307 0.0
C2404 C 0.398 0.16164 0.56953 0.0
C2405 C 0.38131 0.16485 0.56307 0.0
C2406 C 0.36056 0.15081 0.57015 0.0
C2407 C 0.35678 0.13391 0.58366 0.0
C2408 C 0.42027 0.17626 0.56213 0.0
C2409 C 0.34237 0.15373 0.56347 0.0
C2410 C 0.42747 0.33344 0.59116 0.0
C2411 C 0.41037 0.31005 0.58952 0.0
C2412 C 0.41278 0.27865 0.58137 0.0
C2413 C 0.42745 0.27243 0.57665 0.0
C2414 C 0.4213 0.25315 0.56554 0.0
C2415 C 0.39979 0.2395 0.55964 0.0
C2416 C 0.38468 0.24524 0.56535 0.0
C2417 C 0.39138 0.26491 0.57585 0.0
C2418 C 0.43785 0.24749 0.55988 0.0
C2419 C 0.36148 0.23067 0.56024 0.0
C2420 C 0.37719 0.20915 0.45461 0.0
C2421 C 0.37364 0.19054 0.44386 0.0
C2422 C 0.37373 0.17437 0.45568 0.0
C2423 C 0.37685 0.17644 0.47896 0.0
C2424 C 0.37593 0.15999 0.4915 0.0
C2425 C 0.37856 0.162 0.51444 0.0
C2426 C 0.38284 0.18076 0.52566 0.0
C2427 C 0.3854 0.1829 0.54899 0.0
C2428 C 0.3908 0.20215 0.55952 0.0
C2429 C 0.39322 0.2193 0.54742 0.0
C2430 C 0.38956 0.2171 0.52419 0.0
C2431 C 0.3908 0.23365 0.51158 0.0
C2432 C 0.38643 0.231 0.48886 0.0
C2433 C 0.38156 0.21202 0.47771 0.0
C2434 C 0.381 0.19543 0.48996 0.0
C2435 C 0.38451 0.19778 0.51328 0.0
C2436 C 0.3525 0.08476 0.62714 0.0
C2437 C 0.35169 0.10138 0.61436 0.0
O2438 O 0.36951 0.2664 0.39921 0.0
O2439 O 0.41986 0.29793 0.59124 0.0
O2440 O 0.37035 0.11486 0.60384 0.0
O2441 O 0.36393 0.09941 0.41616 0.0
H2442 H 0.34262 0.2432 0.38295 0.0
H2443 H 0.37397 0.25125 0.36082 0.0
H2444 H 0.37988 0.27811 0.3575 0.0
H2445 H 0.35589 0.25628 0.34551 0.0
H2446 H 0.33802 0.23509 0.42043 0.0
H2447 H 0.40472 0.26869 0.41019 0.0
H2448 H 0.33277 0.18957 0.44127 0.0
H2449 H 0.32148 0.20631 0.44431 0.0
H2450 H 0.33812 0.20551 0.466 0.0
H2451 H 0.42741 0.25831 0.42615 0.0
H2452 H 0.41497 0.23008 0.42953 0.0
H2453 H 0.41907 0.24697 0.45314 0.0
H2454 H 0.39077 0.10704 0.39906 0.0
H2455 H 0.3997 0.1092 0.43964 0.0
H2456 H 0.40277 0.089 0.42601 0.0
H2457 H 0.37981 0.08187 0.44263 0.0
H2458 H 0.40044 0.137 0.4189 0.0
H2459 H 0.33375 0.10431 0.43022 0.0
H2460 H 0.41054 0.18838 0.4285 0.0
H2461 H 0.42293 0.1725 0.42892 0.0
H2462 H 0.41495 0.17952 0.45439 0.0
H2463 H 0.31672 0.12184 0.44477 0.0
H2464 H 0.33048 0.15029 0.44262 0.0
H2465 H 0.33247 0.1387 0.46774 0.0
H2466 H 0.34434 0.10947 0.62319 0.0
H2467 H 0.40647 0.14204 0.58821 0.0
H2468 H 0.34084 0.12321 0.5889 0.0
H2469 H 0.42063 0.17673 0.54373 0.0
H2470 H 0.43141 0.1713 0.56807 0.0
H2471 H 0.42576 0.19257 0.56848 0.0
H2472 H 0.32723 0.14171 0.57075 0.0
H2473 H 0.34053 0.15264 0.54512 0.0
H2474 H 0.34572 0.16971 0.56886 0.0
H2475 H 0.40273 0.30748 0.57282 0.0
H2476 H 0.42026 0.34356 0.58992 0.0
H2477 H 0.43867 0.3373 0.57734 0.0
H2478 H 0.43647 0.33718 0.6071 0.0
H2479 H 0.44388 0.28304 0.58119 0.0
H2480 H 0.3798 0.26934 0.57985 0.0
H2481 H 0.43679 0.24327 0.54195 0.0
H2482 H 0.43495 0.23343 0.56933 0.0
H2483 H 0.4541 0.26062 0.56388 0.0
H2484 H 0.35152 0.23606 0.56856 0.0
H2485 H 0.35641 0.21436 0.56553 0.0
H2486 H 0.35861 0.22999 0.54207 0.0
H2487 H 0.37072 0.18859 0.42607 0.0
H2488 H 0.37286 0.14524 0.48377 0.0
H2489 H 0.37741 0.14872 0.52326 0.0
H2490 H 0.39299 0.20376 0.57742 0.0
H2491 H 0.39481 0.24874 0.51919 0.0
H2492 H 0.38719 0.24412 0.48009 0.0
H2493 H 0.35014 0.0881 0.64487 0.0
H2494 H 0.36976 0.09015 0.62987 0.0
H2495 H 0.32989 0.05467 0.60874 0.0
C2496 C 0.88813 0.26092 0.33354 0.0
C2497 C 0.89954 0.26507 0.35603 0.0
C2498 C 0.88062 0.23338 0.37868 0.0
C2499 C 0.86308 0.23561 0.3833 0.0
C2500 C 0.84796 0.22258 0.39861 0.0
C2501 C 0.85023 0.20682 0.40931 0.0
C2502 C 0.86738 0.20397 0.40408 0.0
C2503 C 0.88236 0.21733 0.38882 0.0
C2504 C 0.82969 0.22583 0.40363 0.0
C2505 C 0.87006 0.18708 0.41493 0.0
C2506 C 0.69799 0.07673 0.42342 0.0
C2507 C 0.71141 0.07754 0.40371 0.0
C2508 C 0.7481 0.10258 0.41573 0.0
C2509 C 0.76701 0.10405 0.42251 0.0
C2510 C 0.78473 0.1236 0.42838 0.0
C2511 C 0.78344 0.14217 0.42742 0.0
C2512 C 0.7645 0.14093 0.42018 0.0
C2513 C 0.74696 0.12112 0.41444 0.0
C2514 C 0.80472 0.12438 0.43602 0.0
C2515 C 0.76271 0.1605 0.41901 0.0
C2516 C 0.76718 0.15193 0.57404 0.0
C2517 C 0.77983 0.1442 0.56595 0.0
C2518 C 0.79586 0.15585 0.55084 0.0
C2519 C 0.79875 0.17532 0.54325 0.0
C2520 C 0.78607 0.18323 0.55171 0.0
C2521 C 0.7706 0.17151 0.56732 0.0
C2522 C 0.80956 0.14727 0.54289 0.0
C2523 C 0.78866 0.2039 0.54409 0.0
C2524 C 0.94331 0.32313 0.54078 0.0
C2525 C 0.93169 0.30532 0.55724 0.0
C2526 C 0.90838 0.27011 0.54043 0.0
C2527 C 0.90564 0.24984 0.53929 0.0
C2528 C 0.88632 0.23233 0.53236 0.0
C2529 C 0.8694 0.2353 0.52626 0.0
C2530 C 0.87208 0.25581 0.5272 0.0
C2531 C 0.89163 0.27307 0.53406 0.0
C2532 C 0.88403 0.21069 0.53134 0.0
C2533 C 0.85437 0.25949 0.52059 0.0
C2534 C 0.83505 0.19386 0.42653 0.0
C2535 C 0.81675 0.1752 0.41982 0.0
C2536 C 0.80161 0.16265 0.43521 0.0
C2537 C 0.80442 0.16903 0.45783 0.0
C2538 C 0.78898 0.15729 0.47354 0.0
C2539 C 0.79208 0.16347 0.49583 0.0
C2540 C 0.81099 0.18129 0.50339 0.0
C2541 C 0.81469 0.18724 0.52617 0.0
C2542 C 0.8338 0.20493 0.53308 0.0
C2543 C 0.84927 0.21709 0.5178 0.0
C2544 C 0.84572 0.21162 0.49495 0.0
C2545 C 0.86083 0.22377 0.47912 0.0
C2546 C 0.85727 0.21817 0.45669 0.0
C2547 C 0.83863 0.19998 0.44925 0.0
C2548 C 0.82319 0.18755 0.46492 0.0
C2549 C 0.82662 0.19351 0.48777 0.0
C2550 C 0.71571 0.12763 0.57917 0.0
C2551 C 0.73316 0.12229 0.58259 0.0
O2552 O 0.89613 0.24621 0.36466 0.0
O2553 O 0.92749 0.28633 0.54739 0.0
O2554 O 0.75171 0.14066 0.58854 0.0
O2555 O 0.73149 0.08295 0.41093 0.0
H2556 H 0.89336 0.27269 0.36741 0.0
H2557 H 0.89345 0.25283 0.32174 0.0
H2558 H 0.87084 0.25069 0.33558 0.0
H2559 H 0.89123 0.27608 0.32638 0.0
H2560 H 0.86102 0.24745 0.3751 0.0
H2561 H 0.89575 0.2155 0.38498 0.0
H2562 H 0.81456 0.21095 0.4 0.0
H2563 H 0.83006 0.2387 0.39383 0.0
H2564 H 0.82998 0.22976 0.42155 0.0
H2565 H 0.88369 0.18623 0.40832 0.0
H2566 H 0.85551 0.17142 0.41235 0.0
H2567 H 0.87245 0.19033 0.4331 0.0
H2568 H 0.71233 0.08935 0.39176 0.0
H2569 H 0.68178 0.07207 0.41764 0.0
H2570 H 0.70501 0.0925 0.43182 0.0
H2571 H 0.697 0.06516 0.43572 0.0
H2572 H 0.76774 0.08968 0.42341 0.0
H2573 H 0.73245 0.12034 0.4093 0.0
H2574 H 0.80836 0.13022 0.45352 0.0
H2575 H 0.81817 0.13565 0.42587 0.0
H2576 H 0.80346 0.10864 0.43486 0.0
H2577 H 0.7471 0.15701 0.41237 0.0
H2578 H 0.77525 0.17227 0.4083 0.0
H2579 H 0.76515 0.16786 0.43584 0.0
H2580 H 0.73487 0.1155 0.56657 0.0
H2581 H 0.77716 0.1291 0.57161 0.0
H2582 H 0.76076 0.17733 0.57393 0.0
H2583 H 0.80518 0.1414 0.52548 0.0
H2584 H 0.80771 0.13399 0.55312 0.0
H2585 H 0.82644 0.15994 0.54327 0.0
H2586 H 0.7762 0.20677 0.5506 0.0
H2587 H 0.78824 0.20407 0.52569 0.0
H2588 H 0.80427 0.21712 0.54985 0.0
H2589 H 0.9168 0.30485 0.56167 0.0
H2590 H 0.94597 0.33838 0.54791 0.0
H2591 H 0.95865 0.32465 0.53628 0.0
H2592 H 0.93357 0.31954 0.52539 0.0
H2593 H 0.91873 0.24776 0.54403 0.0
H2594 H 0.8938 0.2888 0.53399 0.0
H2595 H 0.88009 0.2042 0.51407 0.0
H2596 H 0.87082 0.19974 0.54195 0.0
H2597 H 0.89864 0.211 0.53688 0.0
H2598 H 0.85857 0.2762 0.52338 0.0
H2599 H 0.84005 0.24912 0.53019 0.0
H2600 H 0.85031 0.25522 0.50275 0.0
H2601 H 0.81436 0.17029 0.40245 0.0
H2602 H 0.77426 0.14323 0.46876 0.0
H2603 H 0.77956 0.15391 0.50709 0.0
H2604 H 0.83667 0.20929 0.55059 0.0
H2605 H 0.8756 0.23779 0.48388 0.0
H2606 H 0.86944 0.22816 0.44529 0.0
H2607 H 0.71287 0.1339 0.59486 0.0
H2608 H 0.70076 0.11342 0.57346 0.0
H2609 H 0.72046 0.13982 0.56631 0.0
C2610 C 0.0591 0.46443 0.32721 0.0
C2611 C 0.04195 0.45175 0.30956 0.0
C2612 C 0.04131 0.46897 0.27555 0.0
C2613 C 0.01953 0.46136 0.27415 0.0
C2614 C 0.0116 0.47147 0.26101 0.0
C2615 C 0.02572 0.4893 0.24876 0.0
C2616 C 0.04757 0.49646 0.24946 0.0
C2617 C 0.05507 0.48607 0.26277 0.0
C2618 C 0.98814 0.46315 0.26023 0.0
C2619 C 0.06298 0.51518 0.23625 0.0
C2620 C 0.96736 0.58987 0.27231 0.0
C2621 C 0.98602 0.59335 0.28704 0.0
C2622 C 0.00325 0.57785 0.26519 0.0
C2623 C 0.02119 0.58247 0.25313 0.0
C2624 C 0.02336 0.56634 0.24294 0.0
C2625 C 0.00703 0.54506 0.24476 0.0
C2626 C 0.98892 0.54018 0.25715 0.0
C2627 C 0.98722 0.55659 0.2673 0.0
C2628 C 0.04295 0.57202 0.22998 0.0
C2629 C 0.97122 0.5176 0.2594 0.0
C2630 C 0.9586 0.5385 0.10786 0.0
C2631 C 0.98019 0.54531 0.10908 0.0
C2632 C 0.98739 0.53343 0.12013 0.0
C2633 C 0.97265 0.5144 0.13027 0.0
C2634 C 0.95078 0.50695 0.12808 0.0
C2635 C 0.94401 0.51904 0.11664 0.0
C2636 C 0.01078 0.54146 0.12143 0.0
C2637 C 0.93464 0.48659 0.13844 0.0
C2638 C 0.97484 0.37133 0.13104 0.0
C2639 C 0.9755 0.3832 0.11012 0.0
C2640 C 0.98944 0.42076 0.11973 0.0
C2641 C 0.00622 0.44115 0.11613 0.0
C2642 C 0.00577 0.45902 0.12396 0.0
C2643 C 0.98809 0.45632 0.13584 0.0
C2644 C 0.97087 0.43576 0.13926 0.0
C2645 C 0.97175 0.41815 0.13128 0.0
C2646 C 0.02442 0.48076 0.12013 0.0
C2647 C 0.95183 0.43239 0.15199 0.0
C2648 C 0.01757 0.50034 0.23509 0.0
C2649 C 0.01652 0.51718 0.24488 0.0
C2650 C 0.00848 0.52789 0.2331 0.0
C2651 C 0.00139 0.5218 0.21089 0.0
C2652 C 0.99311 0.53218 0.1986 0.0
C2653 C 0.98617 0.52605 0.17675 0.0
C2654 C 0.98715 0.50925 0.16636 0.0
C2655 C 0.98024 0.50295 0.14409 0.0
C2656 C 0.98086 0.48579 0.1345 0.0
C2657 C 0.98845 0.47482 0.14653 0.0
C2658 C 0.99595 0.48123 0.16857 0.0
C2659 C 0.00414 0.47078 0.18089 0.0
C2660 C 0.01134 0.47708 0.20262 0.0
C2661 C 0.01054 0.49399 0.21291 0.0
C2662 C 0.00243 0.50479 0.20078 0.0
C2663 C 0.9952 0.49844 0.17854 0.0
C2664 C 0.94457 0.57626 0.11468 0.0
C2665 C 0.96046 0.57215 0.10254 0.0
O2666 O 0.04956 0.46019 0.28899 0.0
O2667 O 0.99127 0.40422 0.1122 0.0
O2668 O 0.95148 0.55056 0.09867 0.0
O2669 O 0.00204 0.59434 0.27419 0.0
H2670 H 0.02827 0.4535 0.31425 0.0
H2671 H 0.06243 0.481 0.32798 0.0
H2672 H 0.07402 0.46479 0.32328 0.0
H2673 H 0.05373 0.45746 0.3438 0.0
H2674 H 0.00867 0.44748 0.28318 0.0
H2675 H 0.07182 0.49158 0.26368 0.0
H2676 H 0.98497 0.47582 0.26563 0.0
H2677 H 0.97928 0.4493 0.27099 0.0
H2678 H 0.98208 0.45842 0.24292 0.0
H2679 H 0.07946 0.51859 0.23832 0.0
H2680 H 0.06233 0.52941 0.24156 0.0
H2681 H 0.05847 0.51214 0.21838 0.0
H2682 H 0.98047 0.58005 0.29872 0.0
H2683 H 0.95479 0.58965 0.28265 0.0
H2684 H 0.96046 0.57451 0.26308 0.0
H2685 H 0.97249 0.60261 0.26003 0.0
H2686 H 0.0335 0.59886 0.25162 0.0
H2687 H 0.9732 0.55259 0.27658 0.0
H2688 H 0.03859 0.56744 0.21224 0.0
H2689 H 0.05035 0.56306 0.23615 0.0
H2690 H 0.05474 0.58921 0.23116 0.0
H2691 H 0.95798 0.51643 0.2693 0.0
H2692 H 0.97732 0.50824 0.26751 0.0
H2693 H 0.96503 0.51034 0.24271 0.0
H2694 H 0.97442 0.57824 0.114 0.0
H2695 H 0.99145 0.55997 0.10152 0.0
H2696 H 0.92735 0.51377 0.11527 0.0
H2697 H 0.01653 0.54643 0.1388 0.0
H2698 H 0.01993 0.55517 0.11059 0.0
H2699 H 0.01393 0.52865 0.1166 0.0
H2700 H 0.91825 0.4832 0.13564 0.0
H2701 H 0.93779 0.4874 0.15658 0.0
H2702 H 0.93597 0.47323 0.13138 0.0
H2703 H 0.95984 0.38186 0.10776 0.0
H2704 H 0.96272 0.35429 0.12903 0.0
H2705 H 0.97065 0.37789 0.14557 0.0
H2706 H 0.99042 0.37286 0.13455 0.0
H2707 H 0.01981 0.44299 0.10726 0.0
H2708 H 0.95878 0.4025 0.13462 0.0
H2709 H 0.03174 0.48859 0.13632 0.0
H2710 H 0.01905 0.49066 0.11183 0.0
H2711 H 0.0366 0.48021 0.10979 0.0
H2712 H 0.93899 0.41555 0.15164 0.0
H2713 H 0.94562 0.44212 0.14499 0.0
H2714 H 0.95652 0.43764 0.16954 0.0
H2715 H 0.0218 0.52187 0.26197 0.0
H2716 H 0.99193 0.54519 0.20572 0.0
H2717 H 0.97994 0.53462 0.16815 0.0
H2718 H 0.97537 0.4809 0.1175 0.0
H2719 H 0.00512 0.45762 0.17389 0.0
H2720 H 0.01748 0.46845 0.21125 0.0
H2721 H 0.94216 0.5698 0.13162 0.0
H2722 H 0.95061 0.59353 0.11625 0.0
H2723 H 0.929 0.56839 0.10593 0.0
C2724 C 0.41533 0.37342 0.27737 0.0
C2725 C 0.41525 0.39326 0.28586 0.0
C2726 C 0.43377 0.41924 0.25679 0.0
C2727 C 0.4315 0.43104 0.24021 0.0
C2728 C 0.4489 0.44578 0.22813 0.0
C2729 C 0.46907 0.4484 0.2324 0.0
C2730 C 0.47145 0.43619 0.24885 0.0
C2731 C 0.45388 0.42196 0.26105 0.0
C2732 C 0.44576 0.45883 0.2111 0.0
C2733 C 0.49263 0.43838 0.25384 0.0
C2734 C 0.61659 0.57994 0.2544 0.0
C2735 C 0.60201 0.57895 0.27311 0.0
C2736 C 0.56668 0.55615 0.25658 0.0
C2737 C 0.56721 0.53724 0.25718 0.0
C2738 C 0.55108 0.51856 0.24718 0.0
C2739 C 0.534 0.51871 0.23644 0.0
C2740 C 0.53277 0.53734 0.23683 0.0
C2741 C 0.5492 0.55586 0.24691 0.0
C2742 C 0.55275 0.49886 0.24725 0.0
C2743 C 0.51463 0.5379 0.22571 0.0
C2744 C 0.57996 0.54856 0.09913 0.0
C2745 C 0.58527 0.5333 0.10485 0.0
C2746 C 0.5705 0.51456 0.11516 0.0
C2747 C 0.55006 0.511 0.11957 0.0
C2748 C 0.54455 0.52607 0.11311 0.0
C2749 C 0.55967 0.54472 0.10318 0.0
C2750 C 0.57684 0.49879 0.12182 0.0
C2751 C 0.52282 0.52273 0.11712 0.0
C2752 C 0.43173 0.34021 0.09132 0.0
C2753 C 0.43598 0.3629 0.09126 0.0
C2754 C 0.46895 0.39617 0.09624 0.0
C2755 C 0.48965 0.40277 0.10286 0.0
C2756 C 0.50207 0.42218 0.11422 0.0
C2757 C 0.49371 0.43557 0.11829 0.0
C2758 C 0.47322 0.42955 0.11029 0.0
C2759 C 0.46091 0.40973 0.09969 0.0
C2760 C 0.52393 0.42816 0.12228 0.0
C2761 C 0.46415 0.44386 0.11319 0.0
C2762 C 0.48789 0.46488 0.22078 0.0
C2763 C 0.50122 0.48379 0.23247 0.0
C2764 C 0.51901 0.50013 0.22258 0.0
C2765 C 0.52324 0.49815 0.20014 0.0
C2766 C 0.54047 0.51477 0.18945 0.0
C2767 C 0.54432 0.51286 0.16727 0.0
C2768 C 0.53135 0.4941 0.155 0.0
C2769 C 0.53476 0.4923 0.13222 0.0
C2770 C 0.52231 0.47307 0.12077 0.0
C2771 C 0.50618 0.45557 0.1314 0.0
C2772 C 0.50188 0.45741 0.15395 0.0
C2773 C 0.48535 0.44041 0.16505 0.0
C2774 C 0.48065 0.44279 0.1869 0.0
C2775 C 0.49266 0.46208 0.19868 0.0
C2776 C 0.51009 0.47901 0.18818 0.0
C2777 C 0.51447 0.47681 0.16571 0.0
C2778 C 0.62251 0.59259 0.0688 0.0
C2779 C 0.61393 0.57356 0.08259 0.0
O2780 O 0.41625 0.40553 0.26814 0.0
O2781 O 0.45705 0.37659 0.08679 0.0
O2782 O 0.59381 0.56725 0.08995 0.0
O2783 O 0.58277 0.575 0.26456 0.0
H2784 H 0.42908 0.40248 0.29724 0.0
H2785 H 0.43022 0.37772 0.26878 0.0
H2786 H 0.40203 0.36412 0.26545 0.0
H2787 H 0.41391 0.36325 0.29147 0.0
H2788 H 0.41599 0.4289 0.237 0.0
H2789 H 0.45614 0.41313 0.27385 0.0
H2790 H 0.45726 0.47591 0.21414 0.0
H2791 H 0.42954 0.45636 0.21129 0.0
H2792 H 0.44865 0.45452 0.1943 0.0
H2793 H 0.49115 0.42506 0.26373 0.0
H2794 H 0.50256 0.45331 0.26348 0.0
H2795 H 0.50094 0.43915 0.23826 0.0
H2796 H 0.59962 0.56603 0.28427 0.0
H2797 H 0.6105 0.56407 0.24651 0.0
H2798 H 0.63269 0.5853 0.26112 0.0
H2799 H 0.61761 0.59085 0.2413 0.0
H2800 H 0.58033 0.53688 0.26487 0.0
H2801 H 0.54876 0.57041 0.24671 0.0
H2802 H 0.53806 0.48545 0.25378 0.0
H2803 H 0.56636 0.50097 0.25744 0.0
H2804 H 0.55454 0.49453 0.23 0.0
H2805 H 0.51488 0.55293 0.22935 0.0
H2806 H 0.49939 0.52445 0.23119 0.0
H2807 H 0.51541 0.53611 0.20747 0.0
H2808 H 0.62488 0.57351 0.09544 0.0
H2809 H 0.60095 0.53609 0.10168 0.0
H2810 H 0.55572 0.55655 0.09859 0.0
H2811 H 0.5746 0.49602 0.1399 0.0
H2812 H 0.59354 0.50416 0.11791 0.0
H2813 H 0.56652 0.48342 0.11305 0.0
H2814 H 0.52009 0.53428 0.10817 0.0
H2815 H 0.52096 0.52455 0.13513 0.0
H2816 H 0.5105 0.50647 0.11179 0.0
H2817 H 0.4325 0.36629 0.10833 0.0
H2818 H 0.41483 0.32897 0.09473 0.0
H2819 H 0.4415 0.33873 0.1045 0.0
H2820 H 0.43575 0.33581 0.07512 0.0
H2821 H 0.49578 0.39227 0.09984 0.0
H2822 H 0.4451 0.40495 0.094 0.0
H2823 H 0.52576 0.43234 0.14027 0.0
H2824 H 0.53581 0.44231 0.11343 0.0
H2825 H 0.52738 0.4152 0.11948 0.0
H2826 H 0.44996 0.43875 0.10244 0.0
H2827 H 0.47611 0.46043 0.10933 0.0
H2828 H 0.45953 0.44366 0.1307 0.0
H2829 H 0.49793 0.48566 0.2496 0.0
H2830 H 0.55103 0.52961 0.19799 0.0
H2831 H 0.55767 0.52627 0.15989 0.0
H2832 H 0.52498 0.47178 0.10328 0.0
H2833 H 0.47563 0.42515 0.15689 0.0
H2834 H 0.46754 0.4293 0.19449 0.0
H2835 H 0.63692 0.60501 0.07831 0.0
H2836 H 0.61302 0.60049 0.07251 0.0
H2837 H 0.6241 0.58062 0.0348 0.0
C2838 C 0.41368 0.9503 0.32673 0.0
C2839 C 0.41472 0.96662 0.31051 0.0
C2840 C 0.42882 0.96657 0.27404 0.0
C2841 C 0.44326 0.98831 0.27235 0.0
C2842 C 0.46032 0.99561 0.2579 0.0
C2843 C 0.46278 0.98086 0.24476 0.0
C2844 C 0.44756 0.95905 0.24553 0.0
C2845 C 0.43062 0.95221 0.26006 0.0
C2846 C 0.47596 0.01902 0.25698 0.0
C2847 C 0.44955 0.94294 0.23147 0.0
C2848 C 0.6309 0.02472 0.24852 0.0
C2849 C 0.60937 0.00663 0.25545 0.0
C2850 C 0.57751 0.00922 0.25768 0.0
C2851 C 0.56282 0.9885 0.25044 0.0
C2852 C 0.54271 0.98343 0.24267 0.0
C2853 C 0.53735 0.99943 0.24215 0.0
C2854 C 0.55159 0.01987 0.25099 0.0
C2855 C 0.57147 0.02443 0.25884 0.0
C2856 C 0.52757 0.96131 0.23403 0.0
C2857 C 0.54619 0.03718 0.25112 0.0
C2858 C 0.56914 0.011 0.09986 0.0
C2859 C 0.54975 0.99239 0.10179 0.0
C2860 C 0.53332 0.99209 0.11371 0.0
C2861 C 0.53629 0.01107 0.1236 0.0
C2862 C 0.55566 0.03019 0.12107 0.0
C2863 C 0.57203 0.02994 0.10938 0.0
C2864 C 0.51297 0.97135 0.1162 0.0
C2865 C 0.5592 0.05071 0.13121 0.0
C2866 C 0.39698 0.01714 0.12519 0.0
C2867 C 0.40858 0.02228 0.10305 0.0
C2868 C 0.43359 0.0096 0.10906 0.0
C2869 C 0.43639 0.99236 0.10526 0.0
C2870 C 0.4532 0.99145 0.11518 0.0
C2871 C 0.46789 0.00856 0.12886 0.0
C2872 C 0.4656 0.02646 0.13219 0.0
C2873 C 0.44831 0.0267 0.12248 0.0
C2874 C 0.45511 0.97213 0.11111 0.0
C2875 C 0.48129 0.04526 0.14621 0.0
C2876 C 0.48192 0.98802 0.23128 0.0
C2877 C 0.49983 0.98985 0.24174 0.0
C2878 C 0.51819 0.99574 0.22994 0.0
C2879 C 0.51864 0.9993 0.20695 0.0
C2880 C 0.53649 0.00405 0.19435 0.0
C2881 C 0.53673 0.00735 0.17173 0.0
C2882 C 0.51947 0.0069 0.16097 0.0
C2883 C 0.51962 0.01033 0.13797 0.0
C2884 C 0.50278 0.01109 0.12803 0.0
C2885 C 0.48521 0.00745 0.14032 0.0
C2886 C 0.48411 0.00243 0.16301 0.0
C2887 C 0.466 0.99705 0.17547 0.0
C2888 C 0.46514 0.99215 0.19779 0.0
C2889 C 0.48246 0.99274 0.20857 0.0
C2890 C 0.50085 0.99819 0.19633 0.0
C2891 C 0.50151 0.00261 0.17344 0.0
C2892 C 0.61653 0.02033 0.06993 0.0
C2893 C 0.60544 0.02552 0.08706 0.0
O2894 O 0.41305 0.95893 0.28897 0.0
O2895 O 0.41644 0.00884 0.0995 0.0
O2896 O 0.58449 0.00981 0.08873 0.0
O2897 O 0.59767 0.01527 0.26345 0.0
H2898 H 0.43029 0.98117 0.31371 0.0
H2899 H 0.42732 0.94796 0.32417 0.0
H2900 H 0.39894 0.9348 0.32414 0.0
H2901 H 0.41439 0.95594 0.34413 0.0
H2902 H 0.44129 0.9996 0.28232 0.0
H2903 H 0.41911 0.9355 0.26119 0.0
H2904 H 0.49149 0.0223 0.2636 0.0
H2905 H 0.47086 0.02857 0.26678 0.0
H2906 H 0.47819 0.02418 0.23951 0.0
H2907 H 0.4362 0.92659 0.23376 0.0
H2908 H 0.46453 0.94346 0.23577 0.0
H2909 H 0.45017 0.94685 0.21369 0.0
H2910 H 0.60174 0.99657 0.24032 0.0
H2911 H 0.64059 0.01843 0.24137 0.0
H2912 H 0.63954 0.0353 0.263 0.0
H2913 H 0.62874 0.03419 0.2357 0.0
H2914 H 0.5671 0.97637 0.25053 0.0
H2915 H 0.58279 0.04022 0.26497 0.0
H2916 H 0.52591 0.96151 0.21573 0.0
H2917 H 0.5117 0.95547 0.24114 0.0
H2918 H 0.53301 0.95009 0.23802 0.0
H2919 H 0.55862 0.05195 0.25949 0.0
H2920 H 0.53103 0.03177 0.25969 0.0
H2921 H 0.54409 0.04079 0.2338 0.0
H2922 H 0.61393 0.03177 0.10329 0.0
H2923 H 0.5477 0.97792 0.09426 0.0
H2924 H 0.58698 0.04449 0.10784 0.0
H2925 H 0.50977 0.96783 0.13405 0.0
H2926 H 0.51336 0.95793 0.10782 0.0
H2927 H 0.49968 0.97254 0.10904 0.0
H2928 H 0.57427 0.06452 0.12591 0.0
H2929 H 0.55952 0.04994 0.14957 0.0
H2930 H 0.54597 0.05317 0.12654 0.0
H2931 H 0.42154 0.03907 0.10359 0.0
H2932 H 0.39152 0.02842 0.1291 0.0
H2933 H 0.4077 0.01835 0.13893 0.0
H2934 H 0.38315 0.00079 0.12457 0.0
H2935 H 0.42502 0.97933 0.09475 0.0
H2936 H 0.44647 0.04024 0.12552 0.0
H2937 H 0.45807 0.96649 0.12695 0.0
H2938 H 0.46873 0.97635 0.10022 0.0
H2939 H 0.44073 0.95897 0.10293 0.0
H2940 H 0.47917 0.05912 0.14436 0.0
H2941 H 0.49768 0.04991 0.14167 0.0
H2942 H 0.47931 0.04093 0.16393 0.0
H2943 H 0.49954 0.98682 0.25933 0.0
H2944 H 0.5504 0.00497 0.20174 0.0
H2945 H 0.55078 0.01058 0.16288 0.0
H2946 H 0.50315 0.01407 0.11044 0.0
H2947 H 0.45221 0.99639 0.16807 0.0
H2948 H 0.4508 0.98807 0.20656 0.0
H2949 H 0.60666 0.00274 0.06644 0.0
H2950 H 0.62917 0.01907 0.07936 0.0
H2951 H 0.6238 0.04444 0.04385 0.0
C2952 C 0.57792 0.02208 0.68474 0.0
C2953 C 0.58991 0.0291 0.70699 0.0
C2954 C 0.56601 0.01423 0.738 0.0
C2955 C 0.57169 0.03253 0.75087 0.0
C2956 C 0.55768 0.03288 0.76632 0.0
C2957 C 0.53766 0.01455 0.76889 0.0
C2958 C 0.53227 0.99584 0.75654 0.0
C2959 C 0.54671 0.99587 0.74144 0.0
C2960 C 0.56409 0.0529 0.77965 0.0
C2961 C 0.51104 0.97602 0.75882 0.0
C2962 C 0.47075 0.0825 0.70132 0.0
C2963 C 0.45774 0.06132 0.71275 0.0
C2964 C 0.46676 0.05393 0.7491 0.0
C2965 C 0.45941 0.03229 0.74572 0.0
C2966 C 0.46722 0.02199 0.75873 0.0
C2967 C 0.48278 0.03363 0.77533 0.0
C2968 C 0.48933 0.05517 0.77956 0.0
C2969 C 0.48094 0.06495 0.76656 0.0
C2970 C 0.45943 0.99887 0.75418 0.0
C2971 C 0.50597 0.06812 0.79702 0.0
C2972 C 0.42315 0.98822 0.90509 0.0
C2973 C 0.42158 0.97023 0.89445 0.0
C2974 C 0.43926 0.97108 0.88464 0.0
C2975 C 0.45897 0.99015 0.88582 0.0
C2976 C 0.46084 0.00794 0.89749 0.0
C2977 C 0.44284 0.00676 0.90682 0.0
C2978 C 0.43673 0.95177 0.8724 0.0
C2979 C 0.48169 0.0284 0.89941 0.0
C2980 C 0.58108 0.94499 0.88774 0.0
C2981 C 0.5781 0.96217 0.8989 0.0
C2982 C 0.54466 0.9616 0.89763 0.0
C2983 C 0.52383 0.94758 0.89088 0.0
C2984 C 0.51093 0.95502 0.88262 0.0
C2985 C 0.51893 0.97709 0.88184 0.0
C2986 C 0.53958 0.99134 0.89013 0.0
C2987 C 0.55232 0.98344 0.89771 0.0
C2988 C 0.48895 0.93928 0.87423 0.0
C2989 C 0.54838 0.01493 0.89048 0.0
C2990 C 0.5218 0.01535 0.78326 0.0
C2991 C 0.50998 0.02356 0.77424 0.0
C2992 C 0.49406 0.02408 0.78623 0.0
C2993 C 0.48956 0.01595 0.80785 0.0
C2994 C 0.47307 0.01537 0.82004 0.0
C2995 C 0.46885 0.0074 0.84134 0.0
C2996 C 0.48115 -3e-05 0.85141 0.0
C2997 C 0.47707 0.99199 0.87314 0.0
C2998 C 0.48977 0.98497 0.88274 0.0
C2999 C 0.50627 0.98524 0.871 0.0
C3000 C 0.51023 0.99269 0.84903 0.0
C3001 C 0.52619 0.99251 0.8364 0.0
C3002 C 0.53007 -1e-05 0.8149 0.0
C3003 C 0.51807 0.00783 0.80512 0.0
C3004 C 0.50183 0.00807 0.81745 0.0
C3005 C 0.49779 0.00031 0.83935 0.0
C3006 C 0.37489 0.96945 0.89057 0.0
C3007 C 0.38534 0.97237 0.91353 0.0
O3008 O 0.57891 0.01365 0.72242 0.0
O3009 O 0.55695 0.95357 0.90386 0.0
O3010 O 0.40621 0.98865 0.91347 0.0
O3011 O 0.46092 0.06471 0.7355 0.0
H3012 H 0.59119 0.04438 0.71205 0.0
H3013 H 0.56187 0.01978 0.68666 0.0
H3014 H 0.57636 0.00691 0.67875 0.0
H3015 H 0.58629 0.03431 0.6721 0.0
H3016 H 0.58708 0.04648 0.74896 0.0
H3017 H 0.54271 0.98174 0.73168 0.0
H3018 H 0.5542 0.05961 0.77445 0.0
H3019 H 0.58095 0.06505 0.77742 0.0
H3020 H 0.56134 0.04933 0.79755 0.0
H3021 H 0.50908 0.96298 0.74753 0.0
H3022 H 0.49826 0.97946 0.75515 0.0
H3023 H 0.50911 0.97058 0.77616 0.0
H3024 H 0.46377 0.051 0.70651 0.0
H3025 H 0.46808 0.08033 0.68306 0.0
H3026 H 0.48781 0.08888 0.70485 0.0
H3027 H 0.46659 0.09429 0.70741 0.0
H3028 H 0.44781 0.02352 0.73272 0.0
H3029 H 0.48625 0.08158 0.76922 0.0
H3030 H 0.47196 0.99725 0.74578 0.0
H3031 H 0.44503 0.99129 0.74339 0.0
H3032 H 0.45595 0.99025 0.76998 0.0
H3033 H 0.50957 0.08477 0.79802 0.0
H3034 H 0.52074 0.06809 0.79332 0.0
H3035 H 0.5006 0.06096 0.81349 0.0
H3036 H 0.38456 0.95732 0.91793 0.0
H3037 H 0.4066 0.9556 0.89328 0.0
H3038 H 0.44399 0.0205 0.91523 0.0
H3039 H 0.44146 0.95563 0.85488 0.0
H3040 H 0.42026 0.93824 0.87263 0.0
H3041 H 0.4473 0.94685 0.88005 0.0
H3042 H 0.48109 0.0399 0.9112 0.0
H3043 H 0.48607 0.03569 0.88287 0.0
H3044 H 0.4943 0.02532 0.90497 0.0
H3045 H 0.58314 0.975 0.88665 0.0
H3046 H 0.59794 0.9514 0.8836 0.0
H3047 H 0.57154 0.93934 0.87211 0.0
H3048 H 0.57593 0.93128 0.89874 0.0
H3049 H 0.51797 0.93073 0.89128 0.0
H3050 H 0.56825 0.9943 0.9037 0.0
H3051 H 0.48641 0.94331 0.85726 0.0
H3052 H 0.47726 0.93999 0.8852 0.0
H3053 H 0.48591 0.92281 0.87386 0.0
H3054 H 0.56297 0.02351 0.90092 0.0
H3055 H 0.5365 0.01873 0.89683 0.0
H3056 H 0.55223 0.02083 0.87334 0.0
H3057 H 0.51317 0.02956 0.75752 0.0
H3058 H 0.46319 0.02097 0.81317 0.0
H3059 H 0.45587 0.00727 0.84985 0.0
H3060 H 0.48658 0.97897 0.89944 0.0
H3061 H 0.53588 0.98656 0.84296 0.0
H3062 H 0.54262 0.99957 0.80602 0.0
H3063 H 0.3765 0.98452 0.8849 0.0
H3064 H 0.35786 0.95726 0.89113 0.0
H3065 H 0.38232 0.96412 0.87808 0.0
C3066 C 0.00057 0.57016 0.67606 0.0
C3067 C 0.99245 0.57089 0.69916 0.0
C3068 C 0.00407 0.56042 0.73219 0.0
C3069 C 0.98459 0.54972 0.74289 0.0
C3070 C 0.98138 0.53563 0.75991 0.0
C3071 C 0.998 0.53232 0.76637 0.0
C3072 C 0.01794 0.54386 0.75632 0.0
C3073 C 0.02075 0.55797 0.73951 0.0
C3074 C 0.96012 0.52395 0.77071 0.0
C3075 C 0.03607 0.5408 0.76281 0.0
C3076 C 0.93614 0.39428 0.70471 0.0
C3077 C 0.95562 0.39949 0.71896 0.0
C3078 C 0.9595 0.41854 0.75351 0.0
C3079 C 0.98114 0.43351 0.75334 0.0
C3080 C 0.98925 0.45296 0.76481 0.0
C3081 C 0.97539 0.45748 0.77667 0.0
C3082 C 0.95369 0.44203 0.77763 0.0
C3083 C 0.94605 0.42258 0.76621 0.0
C3084 C 0.01256 0.46885 0.76386 0.0
C3085 C 0.93852 0.4463 0.79023 0.0
C3086 C 0.01695 0.44808 0.90946 0.0
C3087 C 0.03424 0.46338 0.89763 0.0
C3088 C 0.03346 0.48006 0.88758 0.0
C3089 C 0.01517 0.48169 0.88964 0.0
C3090 C 0.99816 0.46695 0.90241 0.0
C3091 C 0.99925 0.45026 0.91208 0.0
C3092 C 0.05189 0.49548 0.874 0.0
C3093 C 0.97849 0.46834 0.905 0.0
C3094 C 0.07146 0.65361 0.90041 0.0
C3095 C 0.05332 0.63152 0.90565 0.0
C3096 C 0.05107 0.59741 0.8994 0.0
C3097 C 0.0634 0.58889 0.89269 0.0
C3098 C 0.05412 0.56826 0.88371 0.0
C3099 C 0.03184 0.5556 0.88213 0.0
C3100 C 0.01921 0.56384 0.88986 0.0
C3101 C 0.02896 0.58475 0.89821 0.0
C3102 C 0.06822 0.5601 0.87592 0.0
C3103 C 0.99543 0.55058 0.88921 0.0
C3104 C 0.9942 0.51565 0.78234 0.0
C3105 C 0.98556 0.49498 0.77391 0.0
C3106 C 0.98351 0.4787 0.78726 0.0
C3107 C 0.99022 0.48307 0.80972 0.0
C3108 C 0.98912 0.46723 0.82336 0.0
C3109 C 0.99641 0.47182 0.84522 0.0
C3110 C 0.0049 0.4924 0.85436 0.0
C3111 C 0.01305 0.49734 0.87633 0.0
C3112 C 0.02109 0.51782 0.8851 0.0
C3113 C 0.02185 0.53387 0.8722 0.0
C3114 C 0.01439 0.52939 0.8499 0.0
C3115 C 0.01576 0.54529 0.83608 0.0
C3116 C 0.0089 0.54079 0.81402 0.0
C3117 C 0.00047 0.52024 0.80492 0.0
C3118 C 0.99862 0.5039 0.81861 0.0
C3119 C 0.00576 0.50852 0.84105 0.0
C3120 C 0.03171 0.41574 0.8942 0.0
C3121 C 0.03189 0.42536 0.91711 0.0
O3122 O 0.00741 0.57313 0.71477 0.0
O3123 O 0.06105 0.61782 0.90697 0.0
O3124 O 0.01639 0.4308 0.91812 0.0
O3125 O 0.95121 0.40036 0.74113 0.0
H3126 H 0.97735 0.55563 0.70081 0.0
H3127 H 0.00323 0.55657 0.67463 0.0
H3128 H 0.01572 0.58494 0.673 0.0
H3129 H 0.9888 0.56812 0.66311 0.0
H3130 H 0.97188 0.5523 0.73798 0.0
H3131 H 0.03581 0.56662 0.73138 0.0
H3132 H 0.95242 0.50684 0.76627 0.0
H3133 H 0.94952 0.52983 0.76545 0.0
H3134 H 0.96212 0.52558 0.78905 0.0
H3135 H 0.05036 0.55052 0.75289 0.0
H3136 H 0.03134 0.52389 0.76058 0.0
H3137 H 0.0402 0.54513 0.78062 0.0
H3138 H 0.96826 0.41525 0.71336 0.0
H3139 H 0.93895 0.39229 0.68698 0.0
H3140 H 0.93285 0.40746 0.70617 0.0
H3141 H 0.92196 0.37965 0.71024 0.0
H3142 H 0.99164 0.43002 0.74407 0.0
H3143 H 0.9294 0.41077 0.76643 0.0
H3144 H 0.01498 0.48271 0.75435 0.0
H3145 H 0.02151 0.46214 0.75581 0.0
H3146 H 0.01913 0.47461 0.78086 0.0
H3147 H 0.92206 0.43273 0.78916 0.0
H3148 H 0.93883 0.46048 0.78357 0.0
H3149 H 0.94351 0.44977 0.80796 0.0
H3150 H 0.04769 0.43965 0.92013 0.0
H3151 H 0.04822 0.46222 0.89563 0.0
H3152 H 0.98605 0.43851 0.92137 0.0
H3153 H 0.04672 0.4945 0.85645 0.0
H3154 H 0.06522 0.49242 0.87452 0.0
H3155 H 0.05762 0.51185 0.88023 0.0
H3156 H 0.96749 0.45688 0.91711 0.0
H3157 H 0.97017 0.46507 0.8887 0.0
H3158 H 0.98277 0.48458 0.9105 0.0
H3159 H 0.04177 0.62659 0.89154 0.0
H3160 H 0.0656 0.66488 0.89914 0.0
H3161 H 0.07846 0.65311 0.88429 0.0
H3162 H 0.08402 0.65947 0.9135 0.0
H3163 H 0.08043 0.59871 0.89397 0.0
H3164 H 0.01929 0.59108 0.90398 0.0
H3165 H 0.06269 0.55177 0.85956 0.0
H3166 H 0.06765 0.54861 0.88803 0.0
H3167 H 0.08491 0.573 0.87454 0.0
H3168 H 0.98797 0.55832 0.89835 0.0
H3169 H 0.99019 0.53489 0.89647 0.0
H3170 H 0.98969 0.54781 0.87172 0.0
H3171 H 0.98093 0.49163 0.75651 0.0
H3172 H 0.98283 0.45114 0.81722 0.0
H3173 H 0.99534 0.45899 0.85482 0.0
H3174 H 0.02743 0.52147 0.90194 0.0
H3175 H 0.02234 0.56145 0.8421 0.0
H3176 H 0.01041 0.55365 0.80413 0.0
H3177 H 0.01577 0.40224 0.88983 0.0
H3178 H 0.04322 0.41016 0.89402 0.0
H3179 H 0.03621 0.4277 0.88117 0.0
C3180 C 0.54617 0.57696 0.69362 0.0
C3181 C 0.55969 0.58472 0.715 0.0
C3182 C 0.54203 0.55572 0.74122 0.0
C3183 C 0.52445 0.55817 0.74479 0.0
C3184 C 0.50892 0.54559 0.75996 0.0
C3185 C 0.51095 0.53025 0.77186 0.0
C3186 C 0.52844 0.52755 0.76819 0.0
C3187 C 0.54373 0.54032 0.75286 0.0
C3188 C 0.49036 0.54875 0.76338 0.0
C3189 C 0.53103 0.51132 0.78063 0.0
C3190 C 0.36027 0.3936 0.77142 0.0
C3191 C 0.3781 0.39863 0.75522 0.0
C3192 C 0.41173 0.42416 0.77355 0.0
C3193 C 0.43045 0.42671 0.78254 0.0
C3194 C 0.44687 0.44665 0.78968 0.0
C3195 C 0.44447 0.4645 0.78763 0.0
C3196 C 0.4256 0.46213 0.77852 0.0
C3197 C 0.40929 0.44194 0.77182 0.0
C3198 C 0.46675 0.44865 0.79957 0.0
C3199 C 0.4226 0.4809 0.77613 0.0
C3200 C 0.41144 0.48167 0.92676 0.0
C3201 C 0.42476 0.47365 0.92242 0.0
C3202 C 0.44258 0.48479 0.90919 0.0
C3203 C 0.44651 0.50388 0.89941 0.0
C3204 C 0.4331 0.51207 0.90411 0.0
C3205 C 0.41591 0.50099 0.91811 0.0
C3206 C 0.45701 0.476 0.90553 0.0
C3207 C 0.43672 0.53235 0.89413 0.0
C3208 C 0.59082 0.65229 0.89053 0.0
C3209 C 0.58183 0.63703 0.90974 0.0
C3210 C 0.55734 0.60008 0.89816 0.0
C3211 C 0.55489 0.57997 0.89931 0.0
C3212 C 0.53558 0.56181 0.89384 0.0
C3213 C 0.51842 0.56396 0.88661 0.0
C3214 C 0.52063 0.58425 0.88583 0.0
C3215 C 0.54014 0.60218 0.89157 0.0
C3216 C 0.53373 0.54039 0.89499 0.0
C3217 C 0.50263 0.587 0.87802 0.0
C3218 C 0.49485 0.51732 0.78838 0.0
C3219 C 0.47781 0.49782 0.78134 0.0
C3220 C 0.46147 0.48552 0.79573 0.0
C3221 C 0.46175 0.49298 0.81757 0.0
C3222 C 0.44496 0.48154 0.83204 0.0
C3223 C 0.44545 0.48902 0.85353 0.0
C3224 C 0.46312 0.50777 0.8617 0.0
C3225 C 0.46424 0.51506 0.88386 0.0
C3226 C 0.48232 0.53352 0.89149 0.0
C3227 C 0.49916 0.54521 0.87741 0.0
C3228 C 0.49804 0.53857 0.85505 0.0
C3229 C 0.51448 0.55038 0.84031 0.0
C3230 C 0.5134 0.54358 0.81843 0.0
C3231 C 0.49599 0.52453 0.81052 0.0
C3232 C 0.47928 0.51237 0.82511 0.0
C3233 C 0.48013 0.51958 0.8473 0.0
C3234 C 0.35711 0.45302 0.93434 0.0
C3235 C 0.37709 0.45148 0.93322 0.0
O3236 O 0.55757 0.5677 0.72678 0.0
O3237 O 0.57679 0.61693 0.90267 0.0
O3238 O 0.39421 0.47097 0.93939 0.0
O3239 O 0.39655 0.40432 0.76694 0.0
H3240 H 0.55438 0.59388 0.72522 0.0
H3241 H 0.55043 0.56707 0.68323 0.0
H3242 H 0.52918 0.56728 0.69757 0.0
H3243 H 0.54843 0.59066 0.68388 0.0
H3244 H 0.52258 0.56977 0.73584 0.0
H3245 H 0.55724 0.53844 0.74999 0.0
H3246 H 0.47538 0.53356 0.76041 0.0
H3247 H 0.49062 0.56078 0.75222 0.0
H3248 H 0.49042 0.55389 0.78083 0.0
H3249 H 0.54569 0.51138 0.77615 0.0
H3250 H 0.51728 0.49531 0.777 0.0
H3251 H 0.53138 0.51443 0.79876 0.0
H3252 H 0.38011 0.41171 0.74453 0.0
H3253 H 0.34526 0.38848 0.76216 0.0
H3254 H 0.36409 0.40792 0.78158 0.0
H3255 H 0.35802 0.38089 0.7828 0.0
H3256 H 0.43214 0.41292 0.78396 0.0
H3257 H 0.39472 0.4403 0.7655 0.0
H3258 H 0.46948 0.45566 0.8166 0.0
H3259 H 0.4805 0.45949 0.78951 0.0
H3260 H 0.46601 0.43316 0.80034 0.0
H3261 H 0.40755 0.47666 0.7674 0.0
H3262 H 0.43591 0.49347 0.76681 0.0
H3263 H 0.42268 0.48762 0.7928 0.0
H3264 H 0.37837 0.44726 0.91565 0.0
H3265 H 0.42127 0.45879 0.92956 0.0
H3266 H 0.4055 0.50704 0.92183 0.0
H3267 H 0.45383 0.46833 0.88882 0.0
H3268 H 0.45454 0.46399 0.91797 0.0
H3269 H 0.47381 0.48885 0.90633 0.0
H3270 H 0.42342 0.53515 0.89722 0.0
H3271 H 0.4389 0.53205 0.87595 0.0
H3272 H 0.45134 0.54588 0.90144 0.0
H3273 H 0.56757 0.63704 0.91587 0.0
H3274 H 0.59517 0.66853 0.89619 0.0
H3275 H 0.57878 0.6472 0.87698 0.0
H3276 H 0.60502 0.6526 0.88382 0.0
H3277 H 0.56831 0.57857 0.90436 0.0
H3278 H 0.54202 0.61773 0.89011 0.0
H3279 H 0.53193 0.53363 0.87795 0.0
H3280 H 0.51946 0.52939 0.90431 0.0
H3281 H 0.54778 0.54125 0.90307 0.0
H3282 H 0.50647 0.60371 0.87946 0.0
H3283 H 0.48838 0.57702 0.88787 0.0
H3284 H 0.49868 0.5816 0.86041 0.0
H3285 H 0.47721 0.49217 0.76445 0.0
H3286 H 0.43114 0.46677 0.82686 0.0
H3287 H 0.4319 0.4797 0.86373 0.0
H3288 H 0.48333 0.53883 0.9086 0.0
H3289 H 0.52838 0.5651 0.84547 0.0
H3290 H 0.52652 0.55333 0.80787 0.0
H3291 H 0.35451 0.45663 0.95161 0.0
H3292 H 0.34306 0.43798 0.92847 0.0
H3293 H 0.35872 0.46585 0.92352 0.0
C3294 C 0.62505 0.74197 0.65015 0.0
C3295 C 0.63307 0.73808 0.62814 0.0
C3296 C 0.64436 0.77063 0.60744 0.0
C3297 C 0.62397 0.76723 0.6034 0.0
C3298 C 0.62094 0.78148 0.59093 0.0
C3299 C 0.63859 0.79932 0.582 0.0
C3300 C 0.65913 0.80293 0.58615 0.0
C3301 C 0.66173 0.78855 0.59893 0.0
C3302 C 0.59882 0.77733 0.58708 0.0
C3303 C 0.67826 0.82177 0.57679 0.0
C3304 C 0.61385 0.92581 0.60165 0.0
C3305 C 0.63221 0.9264 0.61457 0.0
C3306 C 0.64144 0.90348 0.59302 0.0
C3307 C 0.6571 0.90337 0.58015 0.0
C3308 C 0.65473 0.88444 0.57141 0.0
C3309 C 0.63598 0.86513 0.57538 0.0
C3310 C 0.62014 0.865 0.58866 0.0
C3311 C 0.62306 0.88417 0.59746 0.0
C3312 C 0.67212 0.88512 0.55762 0.0
C3313 C 0.59995 0.84465 0.59314 0.0
C3314 C 0.58809 0.86195 0.43822 0.0
C3315 C 0.60969 0.86963 0.44191 0.0
C3316 C 0.61654 0.85733 0.45275 0.0
C3317 C 0.60141 0.83723 0.46062 0.0
C3318 C 0.57967 0.8292 0.45623 0.0
C3319 C 0.57334 0.84158 0.4447 0.0
C3320 C 0.6399 0.86602 0.45617 0.0
C3321 C 0.56308 0.80777 0.46414 0.0
C3322 C 0.59706 0.69296 0.44762 0.0
C3323 C 0.60694 0.70933 0.42937 0.0
C3324 C 0.61926 0.74461 0.44614 0.0
C3325 C 0.63725 0.76441 0.44986 0.0
C3326 C 0.6358 0.78144 0.45861 0.0
C3327 C 0.61581 0.77833 0.46438 0.0
C3328 C 0.59744 0.75841 0.46034 0.0
C3329 C 0.59932 0.74176 0.45107 0.0
C3330 C 0.65571 0.8026 0.4622 0.0
C3331 C 0.57591 0.75458 0.46638 0.0
C3332 C 0.63533 0.81366 0.56759 0.0
C3333 C 0.63702 0.83197 0.57716 0.0
C3334 C 0.63262 0.84525 0.56475 0.0
C3335 C 0.62583 0.83994 0.54236 0.0
C3336 C 0.61988 0.85215 0.52985 0.0
C3337 C 0.61363 0.84702 0.5077 0.0
C3338 C 0.61366 0.82983 0.49701 0.0
C3339 C 0.60818 0.82496 0.47423 0.0
C3340 C 0.60889 0.80805 0.46407 0.0
C3341 C 0.61441 0.79545 0.47621 0.0
C3342 C 0.61919 0.79959 0.49914 0.0
C3343 C 0.62397 0.78667 0.51199 0.0
C3344 C 0.62914 0.79116 0.53441 0.0
C3345 C 0.62987 0.80883 0.54484 0.0
C3346 C 0.62496 0.82195 0.53224 0.0
C3347 C 0.61925 0.81711 0.50945 0.0
C3348 C 0.57239 0.90076 0.43377 0.0
C3349 C 0.59002 0.89552 0.43196 0.0
O3350 O 0.64803 0.7572 0.61943 0.0
O3351 O 0.62205 0.72873 0.43835 0.0
O3352 O 0.58099 0.87388 0.42873 0.0
O3353 O 0.64471 0.92254 0.60043 0.0
H3354 H 0.61949 0.72947 0.61633 0.0
H3355 H 0.63826 0.75063 0.66234 0.0
H3356 H 0.6174 0.75151 0.6476 0.0
H3357 H 0.61318 0.72667 0.65726 0.0
H3358 H 0.61026 0.75357 0.60986 0.0
H3359 H 0.6774 0.79113 0.60216 0.0
H3360 H 0.59803 0.79166 0.59159 0.0
H3361 H 0.58696 0.76387 0.59681 0.0
H3362 H 0.59451 0.7737 0.5692 0.0
H3363 H 0.69314 0.82209 0.58111 0.0
H3364 H 0.67935 0.83658 0.58323 0.0
H3365 H 0.67665 0.82153 0.55845 0.0
H3366 H 0.62569 0.9142 0.62756 0.0
H3367 H 0.60424 0.92955 0.61297 0.0
H3368 H 0.6034 0.90985 0.59414 0.0
H3369 H 0.61978 0.93739 0.58809 0.0
H3370 H 0.67125 0.9183 0.57689 0.0
H3371 H 0.61074 0.88387 0.60743 0.0
H3372 H 0.66661 0.88095 0.54009 0.0
H3373 H 0.67614 0.87329 0.5635 0.0
H3374 H 0.68663 0.901 0.5582 0.0
H3375 H 0.5888 0.84728 0.60313 0.0
H3376 H 0.60364 0.83382 0.60217 0.0
H3377 H 0.59204 0.83663 0.5772 0.0
H3378 H 0.59894 0.90066 0.44808 0.0
H3379 H 0.62121 0.88519 0.43632 0.0
H3380 H 0.55673 0.83572 0.44148 0.0
H3381 H 0.64426 0.87095 0.47383 0.0
H3382 H 0.64951 0.87995 0.44576 0.0
H3383 H 0.64397 0.85367 0.45223 0.0
H3384 H 0.5468 0.80468 0.46116 0.0
H3385 H 0.56533 0.80648 0.48215 0.0
H3386 H 0.56473 0.7953 0.4553 0.0
H3387 H 0.59422 0.71074 0.4209 0.0
H3388 H 0.58557 0.67721 0.44021 0.0
H3389 H 0.58852 0.69758 0.45946 0.0
H3390 H 0.60934 0.69164 0.4571 0.0
H3391 H 0.65254 0.76646 0.44592 0.0
H3392 H 0.58522 0.72652 0.44828 0.0
H3393 H 0.65948 0.80554 0.48023 0.0
H3394 H 0.65343 0.81551 0.45605 0.0
H3395 H 0.66942 0.8033 0.45373 0.0
H3396 H 0.56328 0.73787 0.46331 0.0
H3397 H 0.57219 0.76493 0.45646 0.0
H3398 H 0.57583 0.75876 0.48416 0.0
H3399 H 0.64173 0.83588 0.59449 0.0
H3400 H 0.61985 0.86576 0.53709 0.0
H3401 H 0.60906 0.85692 0.49901 0.0
H3402 H 0.60512 0.80466 0.44651 0.0
H3403 H 0.62376 0.77291 0.50488 0.0
H3404 H 0.63278 0.78072 0.54341 0.0
H3405 H 0.56227 0.89554 0.41852 0.0
H3406 H 0.5792 0.91807 0.43638 0.0
H3407 H 0.56234 0.89257 0.44813 0.0
C3408 C 0.10701 0.75712 0.68231 0.0
C3409 C 0.09542 0.75043 0.65978 0.0
C3410 C 0.1192 0.75412 0.6298 0.0
C3411 C 0.1166 0.76817 0.61645 0.0
C3412 C 0.13202 0.78075 0.60119 0.0
C3413 C 0.15004 0.77869 0.59871 0.0
C3414 C 0.15195 0.76347 0.611 0.0
C3415 C 0.13641 0.75131 0.62638 0.0
C3416 C 0.12931 0.79666 0.58819 0.0
C3417 C 0.17067 0.76048 0.60832 0.0
C3418 C 0.28846 0.88866 0.65512 0.0
C3419 C 0.28588 0.90185 0.63721 0.0
C3420 C 0.25005 0.8793 0.62133 0.0
C3421 C 0.25365 0.86407 0.61106 0.0
C3422 C 0.23759 0.84708 0.59866 0.0
C3423 C 0.21776 0.84566 0.59586 0.0
C3424 C 0.21427 0.86124 0.60576 0.0
C3425 C 0.23041 0.8777 0.61859 0.0
C3426 C 0.24173 0.83047 0.58882 0.0
C3427 C 0.19345 0.86044 0.60296 0.0
C3428 C 0.24389 0.8748 0.45407 0.0
C3429 C 0.24701 0.85797 0.45947 0.0
C3430 C 0.23129 0.84016 0.47018 0.0
C3431 C 0.21213 0.83918 0.47562 0.0
C3432 C 0.20861 0.85566 0.46942 0.0
C3433 C 0.22456 0.87324 0.45865 0.0
C3434 C 0.2354 0.82269 0.47637 0.0
C3435 C 0.18829 0.85502 0.47487 0.0
C3436 C 0.07028 0.67793 0.4577 0.0
C3437 C 0.07992 0.70159 0.45375 0.0
C3438 C 0.11676 0.72954 0.45918 0.0
C3439 C 0.13693 0.73262 0.46268 0.0
C3440 C 0.15306 0.75143 0.47254 0.0
C3441 C 0.14891 0.76767 0.47865 0.0
C3442 C 0.12884 0.76513 0.474 0.0
C3443 C 0.11292 0.74605 0.46433 0.0
C3444 C 0.17438 0.75375 0.47698 0.0
C3445 C 0.12412 0.78242 0.47969 0.0
C3446 C 0.16761 0.79372 0.58472 0.0
C3447 C 0.18443 0.81134 0.59535 0.0
C3448 C 0.20044 0.8275 0.58327 0.0
C3449 C 0.19956 0.82629 0.55983 0.0
C3450 C 0.21469 0.84283 0.5471 0.0
C3451 C 0.21371 0.84143 0.52405 0.0
C3452 C 0.1976 0.82339 0.51282 0.0
C3453 C 0.19652 0.8218 0.48939 0.0
C3454 C 0.18046 0.80359 0.47872 0.0
C3455 C 0.16522 0.78681 0.49091 0.0
C3456 C 0.16581 0.78823 0.51437 0.0
C3457 C 0.15054 0.77178 0.52714 0.0
C3458 C 0.15107 0.77352 0.55019 0.0
C3459 C 0.16709 0.79161 0.56135 0.0
C3460 C 0.18298 0.80812 0.54885 0.0
C3461 C 0.18214 0.80657 0.52533 0.0
C3462 C 0.29221 0.90565 0.46374 0.0
C3463 C 0.28003 0.89902 0.44138 0.0
O3464 O 0.10548 0.74305 0.64603 0.0
O3465 O 0.10145 0.71043 0.45098 0.0
O3466 O 0.25912 0.893 0.44503 0.0
O3467 O 0.26475 0.8955 0.63433 0.0
H3468 H 0.09611 0.76482 0.6532 0.0
H3469 H 0.12292 0.77126 0.6803 0.0
H3470 H 0.10916 0.74439 0.68925 0.0
H3471 H 0.09819 0.76132 0.69426 0.0
H3472 H 0.10264 0.76948 0.6179 0.0
H3473 H 0.13801 0.74003 0.63637 0.0
H3474 H 0.14332 0.81271 0.5908 0.0
H3475 H 0.11499 0.79715 0.59299 0.0
H3476 H 0.1281 0.79264 0.57021 0.0
H3477 H 0.1685 0.74623 0.61686 0.0
H3478 H 0.18501 0.77456 0.61534 0.0
H3479 H 0.17343 0.75906 0.59044 0.0
H3480 H 0.29246 0.89983 0.6214 0.0
H3481 H 0.28052 0.87175 0.64986 0.0
H3482 H 0.28145 0.88979 0.67098 0.0
H3483 H 0.30547 0.89428 0.65804 0.0
H3484 H 0.26877 0.86506 0.61293 0.0
H3485 H 0.22778 0.88952 0.62655 0.0
H3486 H 0.2288 0.8144 0.59298 0.0
H3487 H 0.25696 0.8324 0.59481 0.0
H3488 H 0.24216 0.83152 0.57048 0.0
H3489 H 0.19429 0.87526 0.60897 0.0
H3490 H 0.18119 0.84708 0.61247 0.0
H3491 H 0.18834 0.85762 0.58524 0.0
H3492 H 0.28102 0.88562 0.43382 0.0
H3493 H 0.26178 0.85875 0.45588 0.0
H3494 H 0.22222 0.8862 0.45429 0.0
H3495 H 0.23579 0.82178 0.49471 0.0
H3496 H 0.25056 0.82518 0.46981 0.0
H3497 H 0.22237 0.80724 0.4699 0.0
H3498 H 0.18755 0.86856 0.4679 0.0
H3499 H 0.18673 0.85534 0.49316 0.0
H3500 H 0.17463 0.84004 0.4683 0.0
H3501 H 0.07665 0.70832 0.46889 0.0
H3502 H 0.05299 0.67038 0.46015 0.0
H3503 H 0.07749 0.67561 0.47285 0.0
H3504 H 0.07314 0.66996 0.44343 0.0
H3505 H 0.13981 0.7199 0.45831 0.0
H3506 H 0.09754 0.74408 0.46089 0.0
H3507 H 0.17821 0.75649 0.49502 0.0
H3508 H 0.18672 0.76774 0.46829 0.0
H3509 H 0.17502 0.73957 0.4714 0.0
H3510 H 0.10838 0.77875 0.47328 0.0
H3511 H 0.13638 0.79762 0.47275 0.0
H3512 H 0.12456 0.78463 0.49799 0.0
H3513 H 0.18486 0.81269 0.61333 0.0
H3514 H 0.22743 0.8571 0.55482 0.0
H3515 H 0.22581 0.85469 0.51516 0.0
H3516 H 0.17984 0.80243 0.46074 0.0
H3517 H 0.13787 0.75744 0.51947 0.0
H3518 H 0.13884 0.76046 0.55919 0.0
H3519 H 0.28353 0.89371 0.47651 0.0
H3520 H 0.2944 0.92104 0.46983 0.0
H3521 H 0.3078 0.90682 0.46213 0.0
C3522 C 0.11548 0.37272 0.67255 0.0
C3523 C 0.10221 0.36505 0.65103 0.0
C3524 C 0.12005 0.35257 0.62572 0.0
C3525 C 0.13743 0.37261 0.62121 0.0
C3526 C 0.15272 0.37478 0.60597 0.0
C3527 C 0.15066 0.35659 0.59501 0.0
C3528 C 0.13327 0.33642 0.59954 0.0
C3529 C 0.11822 0.3347 0.61489 0.0
C3530 C 0.1712 0.39651 0.60163 0.0
C3531 C 0.13064 0.3167 0.5882 0.0
C3532 C 0.2976 0.36654 0.59394 0.0
C3533 C 0.28198 0.35438 0.61227 0.0
C3534 C 0.24735 0.34599 0.59712 0.0
C3535 C 0.22826 0.32973 0.58829 0.0
C3536 C 0.21244 0.33365 0.58103 0.0
C3537 C 0.21587 0.35442 0.58277 0.0
C3538 C 0.23497 0.37094 0.59208 0.0
C3539 C 0.25061 0.36661 0.59906 0.0
C3540 C 0.19222 0.31568 0.57112 0.0
C3541 C 0.23899 0.39323 0.59416 0.0
C3542 C 0.25154 0.38854 0.44358 0.0
C3543 C 0.23638 0.36771 0.44858 0.0
C3544 C 0.21818 0.36334 0.46027 0.0
C3545 C 0.21549 0.38028 0.46765 0.0
C3546 C 0.23042 0.40125 0.46178 0.0
C3547 C 0.24813 0.40505 0.44947 0.0
C3548 C 0.20216 0.34069 0.46524 0.0
C3549 C 0.22805 0.4197 0.46913 0.0
C3550 C 0.07132 0.38356 0.47152 0.0
C3551 C 0.08045 0.37753 0.45181 0.0
C3552 C 0.10515 0.36619 0.46406 0.0
C3553 C 0.10799 0.34876 0.46394 0.0
C3554 C 0.12732 0.35084 0.4704 0.0
C3555 C 0.14419 0.37092 0.47732 0.0
C3556 C 0.14164 0.38878 0.47696 0.0
C3557 C 0.12207 0.38623 0.47051 0.0
C3558 C 0.12949 0.33145 0.47064 0.0
C3559 C 0.15932 0.41037 0.48434 0.0
C3560 C 0.16701 0.3587 0.57923 0.0
C3561 C 0.18368 0.35665 0.58747 0.0
C3562 C 0.19986 0.35894 0.57366 0.0
C3563 C 0.19994 0.36412 0.5512 0.0
C3564 C 0.21665 0.36774 0.53724 0.0
C3565 C 0.21635 0.37235 0.51503 0.0
C3566 C 0.19896 0.37275 0.50567 0.0
C3567 C 0.19798 0.37631 0.48279 0.0
C3568 C 0.18014 0.37601 0.47401 0.0
C3569 C 0.16337 0.37259 0.4876 0.0
C3570 C 0.1644 0.36967 0.51059 0.0
C3571 C 0.14803 0.36675 0.52479 0.0
C3572 C 0.14899 0.3635 0.54732 0.0
C3573 C 0.16613 0.3626 0.55646 0.0
C3574 C 0.18278 0.3655 0.54245 0.0
C3575 C 0.18209 0.36941 0.51957 0.0
C3576 C 0.30373 0.40673 0.44964 0.0
C3577 C 0.28361 0.38701 0.44107 0.0
O3578 O 0.10484 0.34964 0.64041 0.0
O3579 O 0.08569 0.36275 0.45847 0.0
O3580 O 0.26966 0.39303 0.43329 0.0
O3581 O 0.2621 0.341 0.60321 0.0
H3582 H 0.10745 0.37889 0.64018 0.0
H3583 H 0.1117 0.35929 0.68353 0.0
H3584 H 0.13254 0.38064 0.66878 0.0
H3585 H 0.11255 0.38431 0.68157 0.0
H3586 H 0.13938 0.38665 0.62961 0.0
H3587 H 0.10486 0.3193 0.6185 0.0
H3588 H 0.1862 0.39692 0.60551 0.0
H3589 H 0.17068 0.4091 0.61164 0.0
H3590 H 0.17134 0.40005 0.58378 0.0
H3591 H 0.11571 0.30229 0.59272 0.0
H3592 H 0.14409 0.3146 0.59286 0.0
H3593 H 0.13082 0.31835 0.56992 0.0
H3594 H 0.2814 0.36585 0.62414 0.0
H3595 H 0.31364 0.37703 0.60121 0.0
H3596 H 0.29272 0.37656 0.58508 0.0
H3597 H 0.2983 0.35543 0.58167 0.0
H3598 H 0.22589 0.31392 0.58687 0.0
H3599 H 0.26532 0.37949 0.60571 0.0
H3600 H 0.19039 0.31913 0.55365 0.0
H3601 H 0.17852 0.31414 0.58037 0.0
H3602 H 0.19182 0.30034 0.57144 0.0
H3603 H 0.25423 0.40414 0.60278 0.0
H3604 H 0.22602 0.39331 0.60343 0.0
H3605 H 0.23916 0.39932 0.57738 0.0
H3606 H 0.2769 0.37631 0.45541 0.0
H3607 H 0.23887 0.35492 0.44341 0.0
H3608 H 0.25985 0.42105 0.44521 0.0
H3609 H 0.2038 0.33767 0.4829 0.0
H3610 H 0.20435 0.32933 0.4548 0.0
H3611 H 0.18587 0.33764 0.46253 0.0
H3612 H 0.24157 0.43512 0.46413 0.0
H3613 H 0.22667 0.41987 0.48745 0.0
H3614 H 0.21333 0.41794 0.46177 0.0
H3615 H 0.09469 0.39208 0.44617 0.0
H3616 H 0.06901 0.39694 0.46729 0.0
H3617 H 0.08249 0.38876 0.48591 0.0
H3618 H 0.05608 0.36978 0.47652 0.0
H3619 H 0.09484 0.33338 0.45899 0.0
H3620 H 0.11998 0.3998 0.47126 0.0
H3621 H 0.13184 0.32812 0.48798 0.0
H3622 H 0.14358 0.33433 0.46119 0.0
H3623 H 0.11537 0.31725 0.46339 0.0
H3624 H 0.15562 0.42301 0.48102 0.0
H3625 H 0.17408 0.41409 0.47574 0.0
H3626 H 0.1623 0.41041 0.50243 0.0
H3627 H 0.18394 0.35297 0.60478 0.0
H3628 H 0.23024 0.3672 0.54337 0.0
H3629 H 0.22979 0.37523 0.50522 0.0
H3630 H 0.17919 0.37825 0.4564 0.0
H3631 H 0.13426 0.36698 0.51869 0.0
H3632 H 0.13595 0.36137 0.55742 0.0
H3633 H 0.31115 0.41839 0.43628 0.0
H3634 H 0.31525 0.40237 0.45592 0.0
H3635 H 0.29987 0.41431 0.46349 0.0
loop_
_geom_bond_atom_site_label_1
_geom_bond_atom_site_label_2
_geom_bond_distance
_geom_bond_site_symmetry_2
_ccdc_geom_bond_type
Li0 N17 1.990 . S
Li0 O60 1.956 1_556 S
Li0 O61 1.970 1_655 S
Li0 O62 1.961 . S
Li1 N25 1.990 . S
Li1 O60 1.970 1_455 S
Li1 O61 1.956 1_554 S
Li1 O63 1.961 . S
Li2 N47 1.990 . S
Li2 O60 1.961 . S
Li2 O62 1.956 1_554 S
Li2 O63 1.970 1_655 S
Li3 N53 1.990 . S
Li3 O61 1.961 . S
Li3 O62 1.970 1_455 S
Li3 O63 1.956 1_556 S
C4 C6 1.348 . S
C4 C7 1.356 . S
C4 O60 1.325 . S
N5 C8 1.314 . S
N5 C9 1.279 . S
C6 C4 1.348 . S
C6 C8 1.353 . S
C6 H64 0.929 1_655 S
C7 C4 1.356 . S
C7 C9 1.358 . S
C7 H65 0.930 . S
C8 N5 1.314 . S
C8 C6 1.353 . S
C8 H66 0.930 . S
C9 N5 1.279 . S
C9 C7 1.358 . S
C9 H67 0.930 . S
C10 C13 1.348 . S
C10 C14 1.356 . S
C10 O61 1.325 . S
C11 N12 1.279 . S
C11 C14 1.358 . S
C11 H68 0.930 . S
N12 C11 1.279 . S
N12 C15 1.314 . S
C13 C10 1.348 . S
C13 C15 1.353 . S
C13 H69 0.929 1_455 S
C14 C10 1.356 . S
C14 C11 1.358 . S
C14 H70 0.930 . S
C15 N12 1.314 . S
C15 C13 1.353 . S
C15 H71 0.930 . S
C16 N17 1.314 . S
C16 C21 1.353 . S
C16 H22 0.930 . S
N17 Li0 1.990 . S
N17 C16 1.314 . S
N17 C19 1.279 . S
C18 C19 1.358 . S
C18 C20 1.356 . S
C18 H72 0.956 . S
C19 N17 1.279 . S
C19 C18 1.358 . S
C19 H23 0.930 1_556 S
C20 C18 1.356 . S
C20 C21 1.348 . S
C21 C16 1.353 . S
C21 C20 1.348 . S
C21 H73 0.929 . S
H22 C16 0.930 . S
H23 C19 0.930 1_554 S
C24 N25 1.314 . S
C24 C26 1.353 . S
C24 H30 0.930 . S
N25 Li1 1.990 . S
N25 C24 1.314 . S
N25 C28 1.279 . S
C26 C24 1.353 . S
C26 C29 1.348 . S
C26 H74 0.929 . S
C27 C28 1.358 . S
C27 C29 1.356 . S
C27 H75 0.930 . S
C28 N25 1.279 . S
C28 C27 1.358 . S
C28 H31 0.930 . S
C29 C26 1.348 . S
C29 C27 1.356 . S
H30 C24 0.930 . S
H31 C28 0.930 . S
C32 C34 1.348 . S
C32 C35 1.356 . S
C32 O62 1.325 . S
N33 C36 1.314 . S
N33 C37 1.279 . S
C34 C32 1.348 . S
C34 C36 1.353 . S
C34 H76 0.929 . S
C35 C32 1.356 . S
C35 C37 1.358 . S
C35 H77 0.930 1_556 S
C36 N33 1.314 . S
C36 C34 1.353 . S
C36 H78 0.930 . S
C37 N33 1.279 . S
C37 C35 1.358 . S
C37 H79 0.930 . S
C38 C39 1.348 . S
C38 C40 1.356 . S
C38 O63 1.325 . S
C39 C38 1.348 . S
C39 C41 1.353 . S
C39 H80 0.929 . S
C40 C38 1.356 . S
C40 C42 1.358 . S
C40 H81 0.930 . S
C41 C39 1.353 . S
C41 N43 1.314 . S
C41 H82 0.930 . S
C42 C40 1.358 . S
C42 N43 1.279 . S
C42 H83 0.930 . S
N43 C41 1.314 . S
N43 C42 1.279 . S
C44 C46 1.353 . S
C44 N47 1.314 . S
C44 H50 0.930 . S
C45 N47 1.279 . S
C45 C48 1.358 . S
C45 H51 0.930 . S
C46 C44 1.353 . S
C46 C49 1.348 . S
C46 H84 0.929 . S
N47 Li2 1.990 . S
N47 C44 1.314 . S
N47 C45 1.279 . S
C48 C45 1.358 . S
C48 C49 1.356 . S
C48 H85 0.930 . S
C49 C46 1.348 . S
C49 C48 1.356 . S
H50 C44 0.930 . S
H51 C45 0.930 . S
C52 N53 1.314 . S
C52 C54 1.353 . S
C52 H58 0.930 . S
N53 Li3 1.990 . S
N53 C52 1.314 . S
N53 C56 1.279 . S
C54 C52 1.353 . S
C54 C57 1.348 . S
C54 H86 0.929 . S
C55 C56 1.358 . S
C55 C57 1.356 . S
C55 H87 0.930 . S
C56 N53 1.279 . S
C56 C55 1.358 . S
C56 H59 0.930 . S
C57 C54 1.348 . S
C57 C55 1.356 . S
H58 C52 0.930 . S
H59 C56 0.930 . S
O60 Li0 1.956 1_554 S
O60 Li1 1.970 1_655 S
O60 Li2 1.961 . S
O60 C4 1.325 . S
O61 Li0 1.970 1_455 S
O61 Li1 1.956 1_556 S
O61 Li3 1.961 . S
O61 C10 1.325 . S
O62 Li0 1.961 . S
O62 Li2 1.956 1_556 S
O62 Li3 1.970 1_655 S
O62 C32 1.325 . S
O63 Li1 1.961 . S
O63 Li2 1.970 1_455 S
O63 Li3 1.956 1_554 S
O63 C38 1.325 . S
H64 C6 0.929 1_455 S
H65 C7 0.930 . S
H66 C8 0.930 . S
H67 C9 0.930 . S
H68 C11 0.930 . S
H69 C13 0.929 1_655 S
H70 C14 0.930 . S
H71 C15 0.930 . S
H72 C18 0.956 . S
H73 C21 0.929 . S
H74 C26 0.929 . S
H75 C27 0.930 . S
H76 C34 0.929 . S
H77 C35 0.930 1_554 S
H78 C36 0.930 . S
H79 C37 0.930 . S
H80 C39 0.929 . S
H81 C40 0.930 . S
H82 C41 0.930 . S
H83 C42 0.930 . S
H84 C46 0.929 . S
H85 C48 0.930 . S
H86 C54 0.929 . S
H87 C55 0.930 . S
Li88 N105 1.990 1_554 S
Li88 O148 1.956 . S
Li88 O149 1.970 1_554 S
Li88 O150 1.961 . S
Li89 N113 1.990 . S
Li89 O148 1.970 . S
Li89 O149 1.956 1_554 S
Li89 O151 1.961 . S
Li90 N135 1.990 . S
Li90 O148 1.961 . S
Li90 O150 1.956 . S
Li90 O151 1.970 . S
Li91 N141 1.990 . S
Li91 O149 1.961 . S
Li91 O150 1.970 1_556 S
Li91 O151 1.956 1_556 S
C92 C94 1.348 . S
C92 C95 1.356 . S
C92 O148 1.325 . S
N93 C96 1.314 . S
N93 C97 1.279 . S
C94 C92 1.348 . S
C94 C96 1.353 . S
C94 H152 0.929 . S
C95 C92 1.356 . S
C95 C97 1.358 . S
C95 H153 0.930 . S
C96 N93 1.314 . S
C96 C94 1.353 . S
C96 H154 0.930 . S
C97 N93 1.279 . S
C97 C95 1.358 . S
C97 H155 0.930 . S
C98 C101 1.348 . S
C98 C102 1.356 . S
C98 O149 1.325 . S
C99 N100 1.279 . S
C99 C102 1.358 . S
C99 H156 0.930 . S
N100 C99 1.279 . S
N100 C103 1.314 . S
C101 C98 1.348 . S
C101 C103 1.353 . S
C101 H157 0.929 . S
C102 C98 1.356 . S
C102 C99 1.358 . S
C102 H158 0.930 . S
C103 N100 1.314 . S
C103 C101 1.353 . S
C103 H159 0.930 . S
C104 N105 1.314 . S
C104 C109 1.353 . S
C104 H110 0.930 . S
N105 Li88 1.990 1_556 S
N105 C104 1.314 . S
N105 C107 1.279 1_556 S
C106 C107 1.358 1_556 S
C106 C108 1.356 . S
C106 H160 0.930 1_556 S
C107 N105 1.279 1_554 S
C107 C106 1.358 1_554 S
C107 H111 0.930 . S
C108 C106 1.356 . S
C108 C109 1.348 . S
C109 C104 1.353 . S
C109 C108 1.348 . S
C109 H161 0.929 . S
H110 C104 0.930 . S
H111 C107 0.930 . S
C112 N113 1.314 . S
C112 C114 1.353 . S
C112 H118 0.930 . S
N113 Li89 1.990 . S
N113 C112 1.314 . S
N113 C116 1.279 . S
C114 C112 1.353 . S
C114 C117 1.348 . S
C114 H162 0.929 . S
C115 C116 1.358 . S
C115 C117 1.356 . S
C115 H163 0.930 . S
C116 N113 1.279 . S
C116 C115 1.358 . S
C116 H119 0.930 . S
C117 C114 1.348 . S
C117 C115 1.356 . S
H118 C112 0.930 . S
H119 C116 0.930 . S
C120 C122 1.348 . S
C120 C123 1.356 . S
C120 O150 1.325 1_556 S
N121 C124 1.314 . S
N121 C125 1.279 . S
C122 C120 1.348 . S
C122 C124 1.353 . S
C122 H164 0.929 . S
C123 C120 1.356 . S
C123 C125 1.358 . S
C123 H165 0.930 1_556 S
C124 N121 1.314 . S
C124 C122 1.353 . S
C124 H166 0.930 . S
C125 N121 1.279 . S
C125 C123 1.358 . S
C125 H167 0.930 . S
C126 C127 1.348 . S
C126 C128 1.356 . S
C126 O151 1.325 . S
C127 C126 1.348 . S
C127 C129 1.353 . S
C127 H168 0.929 . S
C128 C126 1.356 . S
C128 C130 1.358 . S
C128 H169 0.930 . S
C129 C127 1.353 . S
C129 N131 1.314 . S
C129 H170 0.930 . S
C130 C128 1.358 . S
C130 N131 1.279 . S
C130 H171 0.930 . S
N131 C129 1.314 . S
N131 C130 1.279 . S
C132 C134 1.353 . S
C132 N135 1.314 . S
C132 H138 0.930 . S
C133 N135 1.279 . S
C133 C136 1.358 . S
C133 H139 0.930 . S
C134 C132 1.353 . S
C134 C137 1.348 . S
C134 H172 0.929 . S
N135 Li90 1.990 . S
N135 C132 1.314 . S
N135 C133 1.279 . S
C136 C133 1.358 . S
C136 C137 1.356 . S
C136 H173 0.930 . S
C137 C134 1.348 . S
C137 C136 1.356 . S
H138 C132 0.930 . S
H139 C133 0.930 . S
C140 N141 1.314 . S
C140 C142 1.353 . S
C140 H146 0.930 . S
N141 Li91 1.990 . S
N141 C140 1.314 . S
N141 C144 1.279 . S
C142 C140 1.353 . S
C142 C145 1.348 . S
C142 H174 0.929 . S
C143 C144 1.358 . S
C143 C145 1.356 . S
C143 H175 0.930 . S
C144 N141 1.279 . S
C144 C143 1.358 . S
C144 H147 0.930 . S
C145 C142 1.348 . S
C145 C143 1.356 . S
H146 C140 0.930 . S
H147 C144 0.930 . S
O148 Li88 1.956 . S
O148 Li89 1.970 . S
O148 Li90 1.961 . S
O148 C92 1.325 . S
O149 Li88 1.970 1_556 S
O149 Li89 1.956 1_556 S
O149 Li91 1.961 . S
O149 C98 1.325 . S
O150 Li88 1.961 . S
O150 Li90 1.956 . S
O150 Li91 1.970 1_554 S
O150 C120 1.325 1_554 S
O151 Li89 1.961 . S
O151 Li90 1.970 . S
O151 Li91 1.956 1_554 S
O151 C126 1.325 . S
H152 C94 0.929 . S
H153 C95 0.930 . S
H154 C96 0.930 . S
H155 C97 0.930 . S
H156 C99 0.930 . S
H157 C101 0.929 . S
H158 C102 0.930 . S
H159 C103 0.930 . S
H160 C106 0.930 1_554 S
H161 C109 0.929 . S
H162 C114 0.929 . S
H163 C115 0.930 . S
H164 C122 0.929 . S
H165 C123 0.930 1_554 S
H166 C124 0.930 . S
H167 C125 0.930 . S
H168 C127 0.929 . S
H169 C128 0.930 . S
H170 C129 0.930 . S
H171 C130 0.930 . S
H172 C134 0.929 . S
H173 C136 0.930 . S
H174 C142 0.929 . S
H175 C143 0.930 . S
Li176 N193 1.990 . S
Li176 O236 1.956 1_556 S
Li176 O237 1.970 1_565 S
Li176 O238 1.961 . S
Li177 N201 1.990 . S
Li177 O236 1.970 1_545 S
Li177 O237 1.956 1_554 S
Li177 O239 1.961 . S
Li178 N223 1.990 . S
Li178 O236 1.961 . S
Li178 O238 1.956 1_554 S
Li178 O239 1.970 1_565 S
Li179 N229 1.979 1_554 S
Li179 O237 1.958 1_554 S
Li179 O238 1.954 1_544 S
Li179 O239 1.992 . S
C180 C182 1.348 . S
C180 C183 1.356 . S
C180 O236 1.325 . S
N181 C184 1.314 . S
N181 C185 1.279 . S
C182 C180 1.348 . S
C182 C184 1.353 . S
C182 H240 0.929 . S
C183 C180 1.356 . S
C183 C185 1.358 . S
C183 H241 0.930 . S
C184 N181 1.314 . S
C184 C182 1.353 . S
C184 H242 0.930 . S
C185 N181 1.279 . S
C185 C183 1.358 . S
C185 H243 0.930 . S
C186 C189 1.348 . S
C186 C190 1.356 . S
C186 O237 1.325 . S
C187 N188 1.279 . S
C187 C190 1.358 . S
C187 H244 0.930 . S
N188 C187 1.279 . S
N188 C191 1.314 . S
C189 C186 1.348 . S
C189 C191 1.353 . S
C189 H245 0.929 . S
C190 C186 1.356 . S
C190 C187 1.358 . S
C190 H246 0.930 1_556 S
C191 N188 1.314 . S
C191 C189 1.353 . S
C191 H247 0.930 . S
C192 N193 1.314 . S
C192 C197 1.353 . S
C192 H198 0.930 . S
N193 Li176 1.990 . S
N193 C192 1.314 . S
N193 C195 1.279 . S
C194 C195 1.358 . S
C194 C196 1.356 . S
C194 H248 0.930 . S
C195 N193 1.279 . S
C195 C194 1.358 . S
C195 H199 0.930 . S
C196 C194 1.356 . S
C196 C197 1.348 . S
C197 C192 1.353 . S
C197 C196 1.348 . S
C197 H249 0.929 . S
H198 C192 0.930 . S
H199 C195 0.930 . S
C200 N201 1.314 . S
C200 C202 1.353 . S
C200 H206 0.930 . S
N201 Li177 1.990 . S
N201 C200 1.314 . S
N201 C204 1.279 . S
C202 C200 1.353 . S
C202 C205 1.348 . S
C202 H250 0.929 . S
C203 C204 1.358 . S
C203 C205 1.356 . S
C203 H251 0.930 . S
C204 N201 1.279 . S
C204 C203 1.358 . S
C204 H207 0.930 . S
C205 C202 1.348 . S
C205 C203 1.356 . S
H206 C200 0.930 . S
H207 C204 0.930 . S
C208 C210 1.348 . S
C208 C211 1.356 . S
C208 O238 1.325 . S
N209 C212 1.314 . S
N209 C213 1.279 . S
C210 C208 1.348 . S
C210 C212 1.353 . S
C210 H252 0.929 1_565 S
C211 C208 1.356 . S
C211 C213 1.358 . S
C211 H253 0.930 . S
C212 N209 1.314 . S
C212 C210 1.353 . S
C212 H254 0.930 . S
C213 N209 1.279 . S
C213 C211 1.358 . S
C213 H255 0.930 . S
C214 C215 1.348 . S
C214 C216 1.356 . S
C214 O239 1.325 . S
C215 C214 1.348 . S
C215 C217 1.353 . S
C215 H256 0.929 1_545 S
C216 C214 1.356 . S
C216 C218 1.358 . S
C216 H257 0.930 . S
C217 C215 1.353 . S
C217 N219 1.314 . S
C217 H258 0.930 . S
C218 C216 1.358 . S
C218 N219 1.279 . S
C218 H259 0.930 . S
N219 C217 1.314 . S
N219 C218 1.279 . S
C220 C222 1.353 . S
C220 N223 1.314 . S
C220 H226 0.930 . S
C221 N223 1.279 . S
C221 C224 1.358 . S
C221 H227 0.930 . S
C222 C220 1.353 . S
C222 C225 1.348 . S
C222 H260 0.929 . S
N223 Li178 1.990 . S
N223 C220 1.314 . S
N223 C221 1.279 . S
C224 C221 1.358 . S
C224 C225 1.356 . S
C224 H261 0.930 . S
C225 C222 1.348 . S
C225 C224 1.356 . S
H226 C220 0.930 . S
H227 C221 0.930 . S
C228 N229 1.314 . S
C228 C230 1.353 . S
C228 H234 0.930 . S
N229 Li179 1.979 1_556 S
N229 C228 1.314 . S
N229 C232 1.279 1_556 S
C230 C228 1.353 . S
C230 C233 1.348 . S
C230 H262 0.929 . S
C231 C232 1.358 1_556 S
C231 C233 1.356 . S
C231 H263 0.930 1_556 S
C232 N229 1.279 1_554 S
C232 C231 1.358 1_554 S
C232 H235 0.930 . S
C233 C230 1.348 . S
C233 C231 1.356 . S
H234 C228 0.930 . S
H235 C232 0.930 . S
O236 Li176 1.956 1_554 S
O236 Li177 1.970 1_565 S
O236 Li178 1.961 . S
O236 C180 1.325 . S
O237 Li176 1.970 1_545 S
O237 Li177 1.956 1_556 S
O237 Li179 1.958 1_556 S
O237 C186 1.325 . S
O238 Li176 1.961 . S
O238 Li178 1.956 1_556 S
O238 Li179 1.954 1_566 S
O238 C208 1.325 . S
O239 Li177 1.961 . S
O239 Li178 1.970 1_545 S
O239 Li179 1.992 . S
O239 C214 1.325 . S
H240 C182 0.929 . S
H241 C183 0.930 . S
H242 C184 0.930 . S
H243 C185 0.930 . S
H244 C187 0.930 . S
H245 C189 0.929 . S
H246 C190 0.930 1_554 S
H247 C191 0.930 . S
H248 C194 0.930 . S
H249 C197 0.929 . S
H250 C202 0.929 . S
H251 C203 0.930 . S
H252 C210 0.929 1_545 S
H253 C211 0.930 . S
H254 C212 0.930 . S
H255 C213 0.930 . S
H256 C215 0.929 1_565 S
H257 C216 0.930 . S
H258 C217 0.930 . S
H259 C218 0.930 . S
H260 C222 0.929 . S
H261 C224 0.930 . S
H262 C230 0.929 . S
H263 C231 0.930 1_554 S
Li264 N281 1.990 . S
Li264 O324 1.956 . S
Li264 O325 1.970 1_455 S
Li264 O326 1.961 1_554 S
Li265 N289 1.990 . S
Li265 O324 1.970 1_655 S
Li265 O325 1.956 . S
Li265 O327 1.961 . S
Li266 N311 1.990 . S
Li266 O324 1.961 1_556 S
Li266 O326 1.956 . S
Li266 O327 1.970 1_456 S
Li267 N317 1.990 1_554 S
Li267 O325 1.961 . S
Li267 O326 1.970 1_654 S
Li267 O327 1.956 . S
C268 C270 1.348 . S
C268 C271 1.356 . S
C268 O324 1.325 . S
N269 C272 1.314 . S
N269 C273 1.279 . S
C270 C268 1.348 . S
C270 C272 1.353 . S
C270 H328 0.929 . S
C271 C268 1.356 . S
C271 C273 1.358 . S
C271 H329 0.930 . S
C272 N269 1.314 . S
C272 C270 1.353 . S
C272 H330 0.930 . S
C273 N269 1.279 . S
C273 C271 1.358 . S
C273 H331 0.930 . S
C274 C277 1.348 . S
C274 C278 1.356 . S
C274 O325 1.325 . S
C275 N276 1.279 . S
C275 C278 1.358 . S
C275 H332 0.930 . S
N276 C275 1.279 . S
N276 C279 1.314 . S
C277 C274 1.348 . S
C277 C279 1.353 . S
C277 H333 0.929 1_655 S
C278 C274 1.356 . S
C278 C275 1.358 . S
C278 H334 0.930 . S
C279 N276 1.314 . S
C279 C277 1.353 . S
C279 H335 0.930 . S
C280 N281 1.314 . S
C280 C285 1.353 . S
C280 H286 0.930 . S
N281 Li264 1.990 . S
N281 C280 1.314 . S
N281 C283 1.279 . S
C282 C283 1.358 . S
C282 C284 1.356 . S
C282 H336 0.930 . S
C283 N281 1.279 . S
C283 C282 1.358 . S
C283 H287 0.930 . S
C284 C282 1.356 . S
C284 C285 1.348 . S
C285 C280 1.353 . S
C285 C284 1.348 . S
C285 H337 0.929 . S
H286 C280 0.930 . S
H287 C283 0.930 . S
C288 N289 1.314 . S
C288 C290 1.353 . S
C288 H294 0.930 . S
N289 Li265 1.990 . S
N289 C288 1.314 . S
N289 C292 1.279 . S
C290 C288 1.353 . S
C290 C293 1.348 . S
C290 H338 0.929 . S
C291 C292 1.358 . S
C291 C293 1.356 . S
C291 H339 0.930 . S
C292 N289 1.279 . S
C292 C291 1.358 . S
C292 H295 0.930 . S
C293 C290 1.348 . S
C293 C291 1.356 . S
H294 C288 0.930 . S
H295 C292 0.930 . S
C296 C298 1.348 . S
C296 C299 1.356 . S
C296 O326 1.325 . S
N297 C300 1.314 . S
N297 C301 1.279 . S
C298 C296 1.348 . S
C298 C300 1.353 . S
C298 H340 0.929 1_455 S
C299 C296 1.356 . S
C299 C301 1.358 . S
C299 H341 0.930 . S
C300 N297 1.314 . S
C300 C298 1.353 . S
C300 H342 0.930 . S
C301 N297 1.279 . S
C301 C299 1.358 . S
C301 H343 0.930 . S
C302 C303 1.348 . S
C302 C304 1.356 1_556 S
C302 O327 1.325 1_556 S
C303 C302 1.348 . S
C303 C305 1.353 . S
C303 H344 0.929 . S
C304 C302 1.356 1_554 S
C304 C306 1.358 1_554 S
C304 H345 0.930 . S
C305 C303 1.353 . S
C305 N307 1.314 . S
C305 H346 0.930 . S
C306 C304 1.358 1_556 S
C306 N307 1.279 . S
C306 H347 0.930 1_556 S
N307 C305 1.314 . S
N307 C306 1.279 . S
C308 C310 1.353 . S
C308 N311 1.314 . S
C308 H314 0.930 . S
C309 N311 1.279 . S
C309 C312 1.358 . S
C309 H315 0.930 . S
C310 C308 1.353 . S
C310 C313 1.348 . S
C310 H348 0.929 . S
N311 Li266 1.990 . S
N311 C308 1.314 . S
N311 C309 1.279 . S
C312 C309 1.358 . S
C312 C313 1.356 . S
C312 H349 0.930 . S
C313 C310 1.348 . S
C313 C312 1.356 . S
H314 C308 0.930 . S
H315 C309 0.930 . S
C316 N317 1.314 . S
C316 C318 1.353 . S
C316 H322 0.930 1_556 S
N317 Li267 1.990 1_556 S
N317 C316 1.314 . S
N317 C320 1.279 . S
C318 C316 1.353 . S
C318 C321 1.348 . S
C318 H350 0.929 . S
C319 C320 1.358 . S
C319 C321 1.356 . S
C319 H351 0.930 . S
C320 N317 1.279 . S
C320 C319 1.358 . S
C320 H323 0.930 . S
C321 C318 1.348 . S
C321 C319 1.356 . S
H322 C316 0.930 1_554 S
H323 C320 0.930 . S
O324 Li264 1.956 . S
O324 Li265 1.970 1_455 S
O324 Li266 1.961 1_554 S
O324 C268 1.325 . S
O325 Li264 1.970 1_655 S
O325 Li265 1.956 . S
O325 Li267 1.961 . S
O325 C274 1.325 . S
O326 Li264 1.961 1_556 S
O326 Li266 1.956 . S
O326 Li267 1.970 1_456 S
O326 C296 1.325 . S
O327 Li265 1.961 . S
O327 Li266 1.970 1_654 S
O327 Li267 1.956 . S
O327 C302 1.325 1_554 S
H328 C270 0.929 . S
H329 C271 0.930 . S
H330 C272 0.930 . S
H331 C273 0.930 . S
H332 C275 0.930 . S
H333 C277 0.929 1_455 S
H334 C278 0.930 . S
H335 C279 0.930 . S
H336 C282 0.930 . S
H337 C285 0.929 . S
H338 C290 0.929 . S
H339 C291 0.930 . S
H340 C298 0.929 1_655 S
H341 C299 0.930 . S
H342 C300 0.930 . S
H343 C301 0.930 . S
H344 C303 0.929 . S
H345 C304 0.930 . S
H346 C305 0.930 . S
H347 C306 0.930 1_554 S
H348 C310 0.929 . S
H349 C312 0.930 . S
H350 C318 0.929 . S
H351 C319 0.930 . S
Li352 N369 1.990 . S
Li352 O412 1.956 . S
Li352 O413 1.970 . S
Li352 O414 1.961 1_554 S
Li353 N377 1.990 . S
Li353 O412 1.970 . S
Li353 O413 1.956 . S
Li353 O415 1.961 1_554 S
Li354 N399 1.990 . S
Li354 O412 1.961 1_556 S
Li354 O414 1.956 . S
Li354 O415 1.970 . S
Li355 N405 1.990 . S
Li355 O413 1.961 1_556 S
Li355 O414 1.970 . S
Li355 O415 1.956 . S
C356 C358 1.348 . S
C356 C359 1.356 . S
C356 O412 1.325 . S
N357 C360 1.314 . S
N357 C361 1.279 . S
C358 C356 1.348 . S
C358 C360 1.353 . S
C358 H416 0.929 . S
C359 C356 1.356 . S
C359 C361 1.358 . S
C359 H417 0.930 . S
C360 N357 1.314 . S
C360 C358 1.353 . S
C360 H418 0.930 . S
C361 N357 1.279 . S
C361 C359 1.358 . S
C361 H419 0.930 . S
C362 C365 1.348 . S
C362 C366 1.356 . S
C362 O413 1.325 . S
C363 N364 1.279 . S
C363 C366 1.358 . S
C363 H420 0.930 . S
N364 C363 1.279 . S
N364 C367 1.314 . S
C365 C362 1.348 . S
C365 C367 1.353 . S
C365 H421 0.929 . S
C366 C362 1.356 . S
C366 C363 1.358 . S
C366 H422 0.930 . S
C367 N364 1.314 . S
C367 C365 1.353 . S
C367 H423 0.930 . S
C368 N369 1.314 . S
C368 C373 1.353 . S
C368 H374 0.930 . S
N369 Li352 1.990 . S
N369 C368 1.314 . S
N369 C371 1.279 . S
C370 C371 1.358 . S
C370 C372 1.356 . S
C370 H424 0.930 . S
C371 N369 1.279 . S
C371 C370 1.358 . S
C371 H375 0.930 . S
C372 C370 1.356 . S
C372 C373 1.348 . S
C373 C368 1.353 . S
C373 C372 1.348 . S
C373 H425 0.929 . S
H374 C368 0.930 . S
H375 C371 0.930 . S
C376 N377 1.314 . S
C376 C378 1.353 . S
C376 H382 0.930 . S
N377 Li353 1.990 . S
N377 C376 1.314 . S
N377 C380 1.279 . S
C378 C376 1.353 . S
C378 C381 1.348 . S
C378 H426 0.929 . S
C379 C380 1.358 . S
C379 C381 1.356 . S
C379 H427 0.930 . S
C380 N377 1.279 . S
C380 C379 1.358 . S
C380 H383 0.930 . S
C381 C378 1.348 . S
C381 C379 1.356 . S
H382 C376 0.930 . S
H383 C380 0.930 . S
C384 C386 1.348 . S
C384 C387 1.356 . S
C384 O414 1.325 . S
N385 C388 1.314 . S
N385 C389 1.279 . S
C386 C384 1.348 . S
C386 C388 1.353 . S
C386 H428 0.929 . S
C387 C384 1.356 . S
C387 C389 1.358 . S
C387 H429 0.930 . S
C388 N385 1.314 . S
C388 C386 1.353 . S
C388 H430 0.930 . S
C389 N385 1.279 . S
C389 C387 1.358 . S
C389 H431 0.930 . S
C390 C391 1.348 . S
C390 C392 1.356 . S
C390 O415 1.325 . S
C391 C390 1.348 . S
C391 C393 1.353 . S
C391 H432 0.929 . S
C392 C390 1.356 . S
C392 C394 1.358 . S
C392 H433 0.930 1_556 S
C393 C391 1.353 . S
C393 N395 1.314 . S
C393 H434 0.930 . S
C394 C392 1.358 . S
C394 N395 1.279 . S
C394 H435 0.930 . S
N395 C393 1.314 . S
N395 C394 1.279 . S
C396 C398 1.353 . S
C396 N399 1.314 . S
C396 H402 0.930 . S
C397 N399 1.279 . S
C397 C400 1.358 . S
C397 H403 0.930 . S
C398 C396 1.353 . S
C398 C401 1.348 . S
C398 H436 0.929 . S
N399 Li354 1.990 . S
N399 C396 1.314 . S
N399 C397 1.279 . S
C400 C397 1.358 . S
C400 C401 1.356 . S
C400 H437 0.930 . S
C401 C398 1.348 . S
C401 C400 1.356 . S
H402 C396 0.930 . S
H403 C397 0.930 . S
C404 N405 1.314 . S
C404 C406 1.353 . S
C404 H410 0.930 . S
N405 Li355 1.990 . S
N405 C404 1.314 . S
N405 C408 1.279 . S
C406 C404 1.353 . S
C406 C409 1.348 . S
C406 H438 0.929 . S
C407 C408 1.358 . S
C407 C409 1.356 . S
C407 H439 0.930 . S
C408 N405 1.279 . S
C408 C407 1.358 . S
C408 H411 0.930 . S
C409 C406 1.348 . S
C409 C407 1.356 . S
H410 C404 0.930 . S
H411 C408 0.930 . S
O412 Li352 1.956 . S
O412 Li353 1.970 . S
O412 Li354 1.961 1_554 S
O412 C356 1.325 . S
O413 Li352 1.970 . S
O413 Li353 1.956 . S
O413 Li355 1.961 1_554 S
O413 C362 1.325 . S
O414 Li352 1.961 1_556 S
O414 Li354 1.956 . S
O414 Li355 1.970 . S
O414 C384 1.325 . S
O415 Li353 1.961 1_556 S
O415 Li354 1.970 . S
O415 Li355 1.956 . S
O415 C390 1.325 . S
H416 C358 0.929 . S
H417 C359 0.930 . S
H418 C360 0.930 . S
H419 C361 0.930 . S
H420 C363 0.930 . S
H421 C365 0.929 . S
H422 C366 0.930 . S
H423 C367 0.930 . S
H424 C370 0.930 . S
H425 C373 0.929 . S
H426 C378 0.929 . S
H427 C379 0.930 . S
H428 C386 0.929 . S
H429 C387 0.930 . S
H430 C388 0.930 . S
H431 C389 0.930 . S
H432 C391 0.929 . S
H433 C392 0.930 1_554 S
H434 C393 0.930 . S
H435 C394 0.930 . S
H436 C398 0.929 . S
H437 C400 0.930 . S
H438 C406 0.929 . S
H439 C407 0.930 . S
Li440 N457 1.990 . S
Li440 O500 1.956 . S
Li440 O501 1.970 1_565 S
Li440 O502 1.961 1_554 S
Li441 N465 1.990 . S
Li441 O500 1.970 1_545 S
Li441 O501 1.956 . S
Li441 O503 1.961 . S
Li442 N487 1.990 . S
Li442 O500 1.961 1_556 S
Li442 O502 1.956 . S
Li442 O503 1.970 1_566 S
Li443 N493 1.990 1_554 S
Li443 O501 1.961 . S
Li443 O502 1.970 1_544 S
Li443 O503 1.956 . S
C444 C446 1.348 . S
C444 C447 1.356 . S
C444 O500 1.325 . S
N445 C448 1.314 . S
N445 C449 1.279 . S
C446 C444 1.348 . S
C446 C448 1.353 . S
C446 H504 0.929 . S
C447 C444 1.356 . S
C447 C449 1.358 . S
C447 H505 0.930 . S
C448 N445 1.314 . S
C448 C446 1.353 . S
C448 H506 0.930 . S
C449 N445 1.279 . S
C449 C447 1.358 . S
C449 H507 0.930 . S
C450 C453 1.348 . S
C450 C454 1.356 . S
C450 O501 1.325 . S
C451 N452 1.279 . S
C451 C454 1.358 . S
C451 H508 0.930 . S
N452 C451 1.279 . S
N452 C455 1.314 . S
C453 C450 1.348 . S
C453 C455 1.353 . S
C453 H509 0.929 1_545 S
C454 C450 1.356 . S
C454 C451 1.358 . S
C454 H510 0.930 . S
C455 N452 1.314 . S
C455 C453 1.353 . S
C455 H511 0.930 . S
C456 N457 1.314 . S
C456 C461 1.353 . S
C456 H462 0.930 . S
N457 Li440 1.990 . S
N457 C456 1.314 . S
N457 C459 1.279 . S
C458 C459 1.358 . S
C458 C460 1.356 . S
C458 H512 0.930 . S
C459 N457 1.279 . S
C459 C458 1.358 . S
C459 H463 0.930 . S
C460 C458 1.356 . S
C460 C461 1.348 . S
C461 C456 1.353 . S
C461 C460 1.348 . S
C461 H513 0.929 . S
H462 C456 0.930 . S
H463 C459 0.930 . S
C464 N465 1.314 . S
C464 C466 1.353 . S
C464 H470 0.930 . S
N465 Li441 1.990 . S
N465 C464 1.314 . S
N465 C468 1.279 . S
C466 C464 1.353 . S
C466 C469 1.348 . S
C466 H514 0.929 . S
C467 C468 1.358 . S
C467 C469 1.356 . S
C467 H515 0.930 . S
C468 N465 1.279 . S
C468 C467 1.358 . S
C468 H471 0.930 . S
C469 C466 1.348 . S
C469 C467 1.356 . S
H470 C464 0.930 . S
H471 C468 0.930 . S
C472 C474 1.348 . S
C472 C475 1.356 . S
C472 O502 1.325 . S
N473 C476 1.314 . S
N473 C477 1.279 . S
C474 C472 1.348 . S
C474 C476 1.353 . S
C474 H516 0.929 1_565 S
C475 C472 1.356 . S
C475 C477 1.358 . S
C475 H517 0.930 . S
C476 N473 1.314 . S
C476 C474 1.353 . S
C476 H518 0.930 . S
C477 N473 1.279 . S
C477 C475 1.358 . S
C477 H519 0.930 . S
C478 C479 1.348 . S
C478 C480 1.356 1_556 S
C478 O503 1.325 1_556 S
C479 C478 1.348 . S
C479 C481 1.353 . S
C479 H520 0.929 . S
C480 C478 1.356 1_554 S
C480 C482 1.361 . S
C480 H521 0.930 . S
C481 C479 1.353 . S
C481 N483 1.314 . S
C481 H522 0.930 . S
C482 C480 1.361 . S
C482 N483 1.274 1_554 S
C482 H523 0.934 . S
N483 C481 1.314 . S
N483 C482 1.274 1_556 S
C484 C486 1.353 . S
C484 N487 1.314 . S
C484 H490 0.930 . S
C485 N487 1.279 . S
C485 C488 1.358 . S
C485 H491 0.930 . S
C486 C484 1.353 . S
C486 C489 1.348 . S
C486 H524 0.929 . S
N487 Li442 1.990 . S
N487 C484 1.314 . S
N487 C485 1.279 . S
C488 C485 1.358 . S
C488 C489 1.356 . S
C488 H525 0.930 . S
C489 C486 1.348 . S
C489 C488 1.356 . S
H490 C484 0.930 . S
H491 C485 0.930 . S
C492 N493 1.323 . S
C492 C494 1.367 . S
C492 H498 0.905 1_556 S
N493 Li443 1.990 1_556 S
N493 C492 1.323 . S
N493 C496 1.279 . S
C494 C492 1.367 . S
C494 C497 1.348 . S
C494 H526 0.929 . S
C495 C496 1.358 . S
C495 C497 1.356 . S
C495 H527 0.930 . S
C496 N493 1.279 . S
C496 C495 1.358 . S
C496 H499 0.930 . S
C497 C494 1.348 . S
C497 C495 1.356 . S
H498 C492 0.905 1_554 S
H499 C496 0.930 . S
O500 Li440 1.956 . S
O500 Li441 1.970 1_565 S
O500 Li442 1.961 1_554 S
O500 C444 1.325 . S
O501 Li440 1.970 1_545 S
O501 Li441 1.956 . S
O501 Li443 1.961 . S
O501 C450 1.325 . S
O502 Li440 1.961 1_556 S
O502 Li442 1.956 . S
O502 Li443 1.970 1_566 S
O502 C472 1.325 . S
O503 Li441 1.961 . S
O503 Li442 1.970 1_544 S
O503 Li443 1.956 . S
O503 C478 1.325 1_554 S
H504 C446 0.929 . S
H505 C447 0.930 . S
H506 C448 0.930 . S
H507 C449 0.930 . S
H508 C451 0.930 . S
H509 C453 0.929 1_565 S
H510 C454 0.930 . S
H511 C455 0.930 . S
H512 C458 0.930 . S
H513 C461 0.929 . S
H514 C466 0.929 . S
H515 C467 0.930 . S
H516 C474 0.929 1_545 S
H517 C475 0.930 . S
H518 C476 0.930 . S
H519 C477 0.930 . S
H520 C479 0.929 . S
H521 C480 0.930 . S
H522 C481 0.930 . S
H523 C482 0.934 . S
H524 C486 0.929 . S
H525 C488 0.930 . S
H526 C494 0.929 . S
H527 C495 0.930 . S
Li528 N545 1.990 . S
Li528 O588 1.956 . S
Li528 O589 1.970 . S
Li528 O590 1.961 . S
Li529 N553 1.990 . S
Li529 O588 1.970 . S
Li529 O589 1.956 . S
Li529 O591 1.961 . S
Li530 N575 1.990 . S
Li530 O588 1.961 . S
Li530 O590 1.956 . S
Li530 O591 1.970 . S
Li531 N581 1.990 . S
Li531 O589 1.961 . S
Li531 O590 1.970 . S
Li531 O591 1.956 . S
C532 C534 1.348 . S
C532 C535 1.356 . S
C532 O588 1.325 . S
N533 C536 1.314 . S
N533 C537 1.279 . S
C534 C532 1.348 . S
C534 C536 1.353 . S
C534 H592 0.929 . S
C535 C532 1.356 . S
C535 C537 1.358 . S
C535 H593 0.930 . S
C536 N533 1.314 . S
C536 C534 1.353 . S
C536 H594 0.930 . S
C537 N533 1.279 . S
C537 C535 1.358 . S
C537 H595 0.930 . S
C538 C541 1.348 . S
C538 C542 1.356 . S
C538 O589 1.325 . S
C539 N540 1.279 . S
C539 C542 1.358 . S
C539 H596 0.930 . S
N540 C539 1.279 . S
N540 C543 1.314 . S
C541 C538 1.348 . S
C541 C543 1.353 . S
C541 H597 0.929 . S
C542 C538 1.356 . S
C542 C539 1.358 . S
C542 H598 0.930 . S
C543 N540 1.314 . S
C543 C541 1.353 . S
C543 H599 0.930 . S
C544 N545 1.314 . S
C544 C549 1.353 . S
C544 H550 0.930 . S
N545 Li528 1.990 . S
N545 C544 1.314 . S
N545 C547 1.279 . S
C546 C547 1.358 . S
C546 C548 1.356 . S
C546 H600 0.930 . S
C547 N545 1.279 . S
C547 C546 1.358 . S
C547 H551 0.930 . S
C548 C546 1.356 . S
C548 C549 1.348 . S
C549 C544 1.353 . S
C549 C548 1.348 . S
C549 H601 0.929 . S
H550 C544 0.930 . S
H551 C547 0.930 . S
C552 N553 1.314 . S
C552 C554 1.353 . S
C552 H558 0.930 . S
N553 Li529 1.990 . S
N553 C552 1.314 . S
N553 C556 1.279 . S
C554 C552 1.353 . S
C554 C557 1.348 . S
C554 H602 0.929 . S
C555 C556 1.358 . S
C555 C557 1.356 . S
C555 H603 0.930 . S
C556 N553 1.279 . S
C556 C555 1.358 . S
C556 H559 0.930 . S
C557 C554 1.348 . S
C557 C555 1.356 . S
H558 C552 0.930 . S
H559 C556 0.930 . S
C560 C562 1.348 . S
C560 C563 1.356 . S
C560 O590 1.325 . S
N561 C564 1.314 . S
N561 C565 1.279 . S
C562 C560 1.348 . S
C562 C564 1.353 . S
C562 H604 0.929 . S
C563 C560 1.356 . S
C563 C565 1.358 . S
C563 H605 0.930 . S
C564 N561 1.314 . S
C564 C562 1.353 . S
C564 H606 0.930 . S
C565 N561 1.279 . S
C565 C563 1.358 . S
C565 H607 0.930 . S
C566 C567 1.348 . S
C566 C568 1.356 . S
C566 O591 1.325 . S
C567 C566 1.348 . S
C567 C569 1.353 . S
C567 H608 0.929 . S
C568 C566 1.356 . S
C568 C570 1.358 . S
C568 H609 0.930 . S
C569 C567 1.353 . S
C569 N571 1.314 . S
C569 H610 0.930 . S
C570 C568 1.358 . S
C570 N571 1.279 . S
C570 H611 0.930 . S
N571 C569 1.314 . S
N571 C570 1.279 . S
C572 C574 1.353 . S
C572 N575 1.314 . S
C572 H578 0.930 . S
C573 N575 1.279 . S
C573 C576 1.358 . S
C573 H579 0.930 . S
C574 C572 1.353 . S
C574 C577 1.348 . S
C574 H612 0.929 . S
N575 Li530 1.990 . S
N575 C572 1.314 . S
N575 C573 1.279 . S
C576 C573 1.358 . S
C576 C577 1.356 . S
C576 H613 0.930 . S
C577 C574 1.348 . S
C577 C576 1.356 . S
H578 C572 0.930 . S
H579 C573 0.930 . S
C580 N581 1.314 . S
C580 C582 1.353 . S
C580 H586 0.930 . S
N581 Li531 1.990 . S
N581 C580 1.314 . S
N581 C584 1.279 . S
C582 C580 1.353 . S
C582 C585 1.348 . S
C582 H614 0.929 . S
C583 C584 1.358 . S
C583 C585 1.356 . S
C583 H615 0.930 . S
C584 N581 1.279 . S
C584 C583 1.358 . S
C584 H587 0.930 . S
C585 C582 1.348 . S
C585 C583 1.356 . S
H586 C580 0.930 . S
H587 C584 0.930 . S
O588 Li528 1.956 . S
O588 Li529 1.970 . S
O588 Li530 1.961 . S
O588 C532 1.325 . S
O589 Li528 1.970 . S
O589 Li529 1.956 . S
O589 Li531 1.961 . S
O589 C538 1.325 . S
O590 Li528 1.961 . S
O590 Li530 1.956 . S
O590 Li531 1.970 . S
O590 C560 1.325 . S
O591 Li529 1.961 . S
O591 Li530 1.970 . S
O591 Li531 1.956 . S
O591 C566 1.325 . S
H592 C534 0.929 . S
H593 C535 0.930 . S
H594 C536 0.930 . S
H595 C537 0.930 . S
H596 C539 0.930 . S
H597 C541 0.929 . S
H598 C542 0.930 . S
H599 C543 0.930 . S
H600 C546 0.930 . S
H601 C549 0.929 . S
H602 C554 0.929 . S
H603 C555 0.930 . S
H604 C562 0.929 . S
H605 C563 0.930 . S
H606 C564 0.930 . S
H607 C565 0.930 . S
H608 C567 0.929 . S
H609 C568 0.930 . S
H610 C569 0.930 . S
H611 C570 0.930 . S
H612 C574 0.929 . S
H613 C576 0.930 . S
H614 C582 0.929 . S
H615 C583 0.930 . S
Li616 N633 1.990 . S
Li616 O676 1.956 . S
Li616 O677 1.970 . S
Li616 O678 1.963 1_565 S
Li617 N641 1.990 . S
Li617 O676 1.970 . S
Li617 O677 1.956 . S
Li617 O679 1.961 . S
Li618 N663 1.990 . S
Li618 O676 1.961 1_545 S
Li618 O678 1.955 . S
Li618 O679 1.970 1_545 S
Li619 N669 1.990 . S
Li619 O677 1.961 . S
Li619 O678 1.976 1_565 S
Li619 O679 1.956 . S
C620 C622 1.348 . S
C620 C623 1.356 . S
C620 O676 1.325 . S
N621 C624 1.314 . S
N621 C625 1.279 . S
C622 C620 1.348 . S
C622 C624 1.353 . S
C622 H680 0.929 . S
C623 C620 1.356 . S
C623 C625 1.358 . S
C623 H681 0.930 1_565 S
C624 N621 1.314 . S
C624 C622 1.353 . S
C624 H682 0.930 . S
C625 N621 1.279 . S
C625 C623 1.358 . S
C625 H683 0.930 1_565 S
C626 C629 1.348 . S
C626 C630 1.356 . S
C626 O677 1.325 . S
C627 N628 1.279 . S
C627 C630 1.358 . S
C627 H684 0.930 . S
N628 C627 1.279 . S
N628 C631 1.314 . S
C629 C626 1.348 . S
C629 C631 1.353 . S
C629 H685 0.929 . S
C630 C626 1.356 . S
C630 C627 1.358 . S
C630 H686 0.930 . S
C631 N628 1.314 . S
C631 C629 1.353 . S
C631 H687 0.930 . S
C632 N633 1.314 . S
C632 C637 1.353 . S
C632 H638 0.930 . S
N633 Li616 1.990 . S
N633 C632 1.314 . S
N633 C635 1.279 . S
C634 C635 1.358 . S
C634 C636 1.356 . S
C634 H688 0.930 . S
C635 N633 1.279 . S
C635 C634 1.358 . S
C635 H639 0.930 . S
C636 C634 1.356 . S
C636 C637 1.348 . S
C637 C632 1.353 . S
C637 C636 1.348 . S
C637 H689 0.929 . S
H638 C632 0.930 . S
H639 C635 0.930 . S
C640 N641 1.314 . S
C640 C642 1.353 . S
C640 H646 0.930 . S
N641 Li617 1.990 . S
N641 C640 1.314 . S
N641 C644 1.279 . S
C642 C640 1.353 . S
C642 C645 1.348 . S
C642 H690 0.929 . S
C643 C644 1.358 . S
C643 C645 1.356 . S
C643 H691 0.930 . S
C644 N641 1.279 . S
C644 C643 1.358 . S
C644 H647 0.930 . S
C645 C642 1.348 . S
C645 C643 1.356 . S
H646 C640 0.930 . S
H647 C644 0.930 . S
C648 C650 1.348 . S
C648 C651 1.356 . S
C648 O678 1.321 . S
N649 C652 1.314 . S
N649 C653 1.279 . S
C650 C648 1.348 . S
C650 C652 1.353 . S
C650 H692 0.929 . S
C651 C648 1.356 . S
C651 C653 1.358 . S
C651 H693 0.930 . S
C652 N649 1.314 . S
C652 C650 1.353 . S
C652 H694 0.930 . S
C653 N649 1.279 . S
C653 C651 1.358 . S
C653 H695 0.930 . S
C654 C655 1.348 1_565 S
C654 C656 1.356 . S
C654 O679 1.325 . S
C655 C654 1.348 1_545 S
C655 C657 1.353 . S
C655 H696 0.929 . S
C656 C654 1.356 . S
C656 C658 1.358 . S
C656 H697 0.930 . S
C657 C655 1.353 . S
C657 N659 1.314 . S
C657 H698 0.930 . S
C658 C656 1.358 . S
C658 N659 1.279 1_565 S
C658 H699 0.930 . S
N659 C657 1.314 . S
N659 C658 1.279 1_545 S
C660 C662 1.353 . S
C660 N663 1.314 . S
C660 H666 0.930 . S
C661 N663 1.279 . S
C661 C664 1.358 . S
C661 H667 0.930 . S
C662 C660 1.353 . S
C662 C665 1.348 . S
C662 H700 0.929 . S
N663 Li618 1.990 . S
N663 C660 1.314 . S
N663 C661 1.279 . S
C664 C661 1.358 . S
C664 C665 1.356 . S
C664 H701 0.930 . S
C665 C662 1.348 . S
C665 C664 1.356 . S
H666 C660 0.930 . S
H667 C661 0.930 . S
C668 N669 1.314 . S
C668 C670 1.353 . S
C668 H674 0.930 . S
N669 Li619 1.990 . S
N669 C668 1.314 . S
N669 C672 1.279 . S
C670 C668 1.353 . S
C670 C673 1.348 . S
C670 H702 0.929 . S
C671 C672 1.358 . S
C671 C673 1.356 . S
C671 H703 0.930 1_565 S
C672 N669 1.279 . S
C672 C671 1.358 . S
C672 H675 0.937 . S
C673 C670 1.348 . S
C673 C671 1.356 . S
H674 C668 0.930 . S
H675 C672 0.937 . S
O676 Li616 1.956 . S
O676 Li617 1.970 . S
O676 Li618 1.961 1_565 S
O676 C620 1.325 . S
O677 Li616 1.970 . S
O677 Li617 1.956 . S
O677 Li619 1.961 . S
O677 C626 1.325 . S
O678 Li616 1.963 1_545 S
O678 Li618 1.955 . S
O678 Li619 1.976 1_545 S
O678 C648 1.321 . S
O679 Li617 1.961 . S
O679 Li618 1.970 1_565 S
O679 Li619 1.956 . S
O679 C654 1.325 . S
H680 C622 0.929 . S
H681 C623 0.930 1_545 S
H682 C624 0.930 . S
H683 C625 0.930 1_545 S
H684 C627 0.930 . S
H685 C629 0.929 . S
H686 C630 0.930 . S
H687 C631 0.930 . S
H688 C634 0.930 . S
H689 C637 0.929 . S
H690 C642 0.929 . S
H691 C643 0.930 . S
H692 C650 0.929 . S
H693 C651 0.930 . S
H694 C652 0.930 . S
H695 C653 0.930 . S
H696 C655 0.929 . S
H697 C656 0.930 . S
H698 C657 0.930 . S
H699 C658 0.930 . S
H700 C662 0.929 . S
H701 C664 0.930 . S
H702 C670 0.929 . S
H703 C671 0.930 1_545 S
Li704 N721 1.990 . S
Li704 O764 1.956 . S
Li704 O765 1.970 . S
Li704 O766 1.961 . S
Li705 N729 1.990 . S
Li705 O764 1.970 . S
Li705 O765 1.956 . S
Li705 O767 1.961 . S
Li706 N751 1.986 1_455 S
Li706 O764 1.967 . S
Li706 O766 1.956 . S
Li706 O767 1.971 . S
Li707 N757 1.990 . S
Li707 O765 1.961 . S
Li707 O766 1.970 . S
Li707 O767 1.956 . S
C708 C710 1.348 . S
C708 C711 1.356 . S
C708 O764 1.325 . S
N709 C712 1.314 . S
N709 C713 1.279 . S
C710 C708 1.348 . S
C710 C712 1.353 . S
C710 H768 0.929 . S
C711 C708 1.356 . S
C711 C713 1.358 . S
C711 H769 0.935 . S
C712 N709 1.314 . S
C712 C710 1.353 . S
C712 H770 0.930 . S
C713 N709 1.279 . S
C713 C711 1.358 . S
C713 H771 0.930 . S
C714 C717 1.348 . S
C714 C718 1.356 . S
C714 O765 1.325 . S
C715 N716 1.279 . S
C715 C718 1.358 . S
C715 H772 0.930 . S
N716 C715 1.279 . S
N716 C719 1.314 . S
C717 C714 1.348 . S
C717 C719 1.353 . S
C717 H773 0.929 . S
C718 C714 1.356 . S
C718 C715 1.358 . S
C718 H774 0.930 . S
C719 N716 1.314 . S
C719 C717 1.353 . S
C719 H775 0.930 . S
C720 N721 1.314 . S
C720 C725 1.353 . S
C720 H726 0.930 . S
N721 Li704 1.990 . S
N721 C720 1.314 . S
N721 C723 1.279 . S
C722 C723 1.358 . S
C722 C724 1.356 . S
C722 H776 0.930 . S
C723 N721 1.279 . S
C723 C722 1.358 . S
C723 H727 0.930 . S
C724 C722 1.356 . S
C724 C725 1.348 . S
C725 C720 1.353 . S
C725 C724 1.348 . S
C725 H777 0.929 . S
H726 C720 0.930 . S
H727 C723 0.930 . S
C728 N729 1.314 . S
C728 C730 1.353 . S
C728 H734 0.930 . S
N729 Li705 1.990 . S
N729 C728 1.314 . S
N729 C732 1.279 . S
C730 C728 1.353 . S
C730 C733 1.348 . S
C730 H778 0.929 . S
C731 C732 1.358 . S
C731 C733 1.356 . S
C731 H779 0.930 . S
C732 N729 1.279 . S
C732 C731 1.358 . S
C732 H735 0.930 . S
C733 C730 1.348 . S
C733 C731 1.356 . S
H734 C728 0.930 . S
H735 C732 0.930 . S
C736 C738 1.348 . S
C736 C739 1.356 . S
C736 O766 1.325 1_655 S
N737 C740 1.314 . S
N737 C741 1.279 . S
C738 C736 1.348 . S
C738 C740 1.353 . S
C738 H780 0.929 . S
C739 C736 1.356 . S
C739 C741 1.358 . S
C739 H781 0.930 . S
C740 N737 1.314 . S
C740 C738 1.353 . S
C740 H782 0.930 . S
C741 N737 1.279 . S
C741 C739 1.358 . S
C741 H783 0.930 . S
C742 C743 1.348 1_455 S
C742 C744 1.356 . S
C742 O767 1.325 . S
C743 C742 1.348 1_655 S
C743 C745 1.353 . S
C743 H784 0.929 . S
C744 C742 1.356 . S
C744 C746 1.358 . S
C744 H785 0.930 . S
C745 C743 1.353 . S
C745 N747 1.302 1_655 S
C745 H786 0.930 . S
C746 C744 1.358 . S
C746 N747 1.333 . S
C746 H787 0.930 . S
N747 C745 1.302 1_455 S
N747 C746 1.333 . S
C748 C750 1.353 . S
C748 N751 1.314 . S
C748 H754 0.930 . S
C749 N751 1.279 . S
C749 C752 1.358 . S
C749 H755 0.930 . S
C750 C748 1.353 . S
C750 C753 1.348 . S
C750 H788 0.929 . S
N751 Li706 1.986 1_655 S
N751 C748 1.314 . S
N751 C749 1.279 . S
C752 C749 1.358 . S
C752 C753 1.356 . S
C752 H789 0.930 . S
C753 C750 1.348 . S
C753 C752 1.356 . S
H754 C748 0.930 . S
H755 C749 0.930 . S
C756 N757 1.314 . S
C756 C758 1.353 . S
C756 H762 0.930 . S
N757 Li707 1.990 . S
N757 C756 1.314 . S
N757 C760 1.279 . S
C758 C756 1.353 . S
C758 C761 1.348 . S
C758 H790 0.929 . S
C759 C760 1.358 . S
C759 C761 1.356 . S
C759 H791 0.930 . S
C760 N757 1.279 . S
C760 C759 1.358 . S
C760 H763 0.930 . S
C761 C758 1.348 . S
C761 C759 1.356 . S
H762 C756 0.930 . S
H763 C760 0.930 . S
O764 Li704 1.956 . S
O764 Li705 1.970 . S
O764 Li706 1.967 . S
O764 C708 1.325 . S
O765 Li704 1.970 . S
O765 Li705 1.956 . S
O765 Li707 1.961 . S
O765 C714 1.325 . S
O766 Li704 1.961 . S
O766 Li706 1.956 . S
O766 Li707 1.970 . S
O766 C736 1.325 1_455 S
O767 Li705 1.961 . S
O767 Li706 1.971 . S
O767 Li707 1.956 . S
O767 C742 1.325 . S
H768 C710 0.929 . S
H769 C711 0.935 . S
H770 C712 0.930 . S
H771 C713 0.930 . S
H772 C715 0.930 . S
H773 C717 0.929 . S
H774 C718 0.930 . S
H775 C719 0.930 . S
H776 C722 0.930 . S
H777 C725 0.929 . S
H778 C730 0.929 . S
H779 C731 0.930 . S
H780 C738 0.929 . S
H781 C739 0.930 . S
H782 C740 0.930 . S
H783 C741 0.930 . S
H784 C743 0.929 . S
H785 C744 0.930 . S
H786 C745 0.930 . S
H787 C746 0.930 . S
H788 C750 0.929 . S
H789 C752 0.930 . S
H790 C758 0.929 . S
H791 C759 0.930 . S
Li792 N809 1.990 . S
Li792 O852 1.956 1_545 S
Li792 O853 1.970 1_545 S
Li792 O854 1.964 1_545 S
Li793 N817 1.990 . S
Li793 O852 1.970 . S
Li793 O853 1.956 . S
Li793 O855 1.961 . S
Li794 N839 1.990 . S
Li794 O852 1.961 . S
Li794 O854 2.010 . S
Li794 O855 1.970 . S
Li795 N845 1.990 . S
Li795 O853 1.961 . S
Li795 O854 1.979 . S
Li795 O855 1.956 . S
C796 C798 1.348 . S
C796 C799 1.356 . S
C796 O852 1.325 . S
N797 C800 1.314 . S
N797 C801 1.279 . S
C798 C796 1.348 . S
C798 C800 1.353 . S
C798 H856 0.929 . S
C799 C796 1.356 . S
C799 C801 1.358 . S
C799 H857 0.930 . S
C800 N797 1.314 . S
C800 C798 1.353 . S
C800 H858 0.930 . S
C801 N797 1.279 . S
C801 C799 1.358 . S
C801 H859 0.930 . S
C802 C805 1.348 1_565 S
C802 C806 1.356 . S
C802 O853 1.325 . S
C803 N804 1.279 1_565 S
C803 C806 1.358 . S
C803 H860 0.930 . S
N804 C803 1.279 1_545 S
N804 C807 1.314 . S
C805 C802 1.348 1_545 S
C805 C807 1.353 . S
C805 H861 0.929 . S
C806 C802 1.356 . S
C806 C803 1.358 . S
C806 H862 0.930 . S
C807 N804 1.314 . S
C807 C805 1.353 . S
C807 H863 0.930 . S
C808 N809 1.314 . S
C808 C813 1.353 . S
C808 H814 0.930 . S
N809 Li792 1.990 . S
N809 C808 1.314 . S
N809 C811 1.279 . S
C810 C811 1.358 . S
C810 C812 1.356 . S
C810 H864 0.930 . S
C811 N809 1.279 . S
C811 C810 1.358 . S
C811 H815 0.930 . S
C812 C810 1.356 . S
C812 C813 1.348 . S
C813 C808 1.353 . S
C813 C812 1.348 . S
C813 H865 0.929 . S
H814 C808 0.930 . S
H815 C811 0.930 . S
C816 N817 1.314 . S
C816 C818 1.353 . S
C816 H822 0.930 . S
N817 Li793 1.990 . S
N817 C816 1.314 . S
N817 C820 1.279 . S
C818 C816 1.353 . S
C818 C821 1.348 . S
C818 H866 0.929 . S
C819 C820 1.358 . S
C819 C821 1.356 . S
C819 H867 0.930 . S
C820 N817 1.279 . S
C820 C819 1.358 . S
C820 H823 0.930 . S
C821 C818 1.348 . S
C821 C819 1.356 . S
H822 C816 0.930 . S
H823 C820 0.930 . S
C824 C826 1.348 . S
C824 C827 1.356 . S
C824 O854 1.295 1_545 S
N825 C828 1.314 . S
N825 C829 1.279 . S
C826 C824 1.348 . S
C826 C828 1.353 . S
C826 H868 0.929 . S
C827 C824 1.356 . S
C827 C829 1.358 . S
C827 H869 0.930 . S
C828 N825 1.314 . S
C828 C826 1.353 . S
C828 H870 0.930 . S
C829 N825 1.279 . S
C829 C827 1.358 . S
C829 H871 0.930 . S
C830 C831 1.348 . S
C830 C832 1.356 . S
C830 O855 1.325 . S
C831 C830 1.348 . S
C831 C833 1.353 . S
C831 H872 0.929 . S
C832 C830 1.356 . S
C832 C834 1.358 . S
C832 H873 0.930 . S
C833 C831 1.353 . S
C833 N835 1.314 . S
C833 H874 0.930 . S
C834 C832 1.358 . S
C834 N835 1.279 . S
C834 H875 0.930 . S
N835 C833 1.314 . S
N835 C834 1.279 . S
C836 C838 1.353 . S
C836 N839 1.314 . S
C836 H842 0.930 . S
C837 N839 1.279 . S
C837 C840 1.358 . S
C837 H843 0.930 . S
C838 C836 1.353 . S
C838 C841 1.348 . S
C838 H876 0.929 . S
N839 Li794 1.990 . S
N839 C836 1.314 . S
N839 C837 1.279 . S
C840 C837 1.358 . S
C840 C841 1.356 . S
C840 H877 0.930 . S
C841 C838 1.348 . S
C841 C840 1.356 . S
H842 C836 0.930 . S
H843 C837 0.930 . S
C844 N845 1.314 . S
C844 C846 1.366 . S
C844 H850 0.930 1_565 S
N845 Li795 1.990 . S
N845 C844 1.314 . S
N845 C848 1.279 . S
C846 C844 1.366 . S
C846 C849 1.356 . S
C846 H878 0.909 1_565 S
C847 C848 1.358 . S
C847 C849 1.356 . S
C847 H879 0.930 . S
C848 N845 1.279 . S
C848 C847 1.358 . S
C848 H851 0.930 . S
C849 C846 1.356 . S
C849 C847 1.356 . S
H850 C844 0.930 1_545 S
H851 C848 0.930 . S
O852 Li792 1.956 1_565 S
O852 Li793 1.970 . S
O852 Li794 1.961 . S
O852 C796 1.325 . S
O853 Li792 1.970 1_565 S
O853 Li793 1.956 . S
O853 Li795 1.961 . S
O853 C802 1.325 . S
O854 Li792 1.964 1_565 S
O854 Li794 2.010 . S
O854 Li795 1.979 . S
O854 C824 1.295 1_565 S
O855 Li793 1.961 . S
O855 Li794 1.970 . S
O855 Li795 1.956 . S
O855 C830 1.325 . S
H856 C798 0.929 . S
H857 C799 0.930 . S
H858 C800 0.930 . S
H859 C801 0.930 . S
H860 C803 0.930 . S
H861 C805 0.929 . S
H862 C806 0.930 . S
H863 C807 0.930 . S
H864 C810 0.930 . S
H865 C813 0.929 . S
H866 C818 0.929 . S
H867 C819 0.930 . S
H868 C826 0.929 . S
H869 C827 0.930 . S
H870 C828 0.930 . S
H871 C829 0.930 . S
H872 C831 0.929 . S
H873 C832 0.930 . S
H874 C833 0.930 . S
H875 C834 0.930 . S
H876 C838 0.929 . S
H877 C840 0.930 . S
H878 C846 0.909 1_545 S
H879 C847 0.930 . S
Li880 N897 1.990 . S
Li880 O940 1.956 . S
Li880 O941 1.970 . S
Li880 O942 1.961 . S
Li881 N905 1.990 . S
Li881 O940 1.970 1_655 S
Li881 O941 1.956 1_655 S
Li881 O943 1.961 1_655 S
Li882 N927 1.990 . S
Li882 O940 1.961 . S
Li882 O942 1.956 . S
Li882 O943 1.970 . S
Li883 N933 1.990 . S
Li883 O941 1.961 . S
Li883 O942 1.970 . S
Li883 O943 1.956 . S
C884 C886 1.348 1_455 S
C884 C887 1.356 . S
C884 O940 1.325 . S
N885 C888 1.314 . S
N885 C889 1.279 1_655 S
C886 C884 1.348 1_655 S
C886 C888 1.353 . S
C886 H944 0.929 . S
C887 C884 1.356 . S
C887 C889 1.358 . S
C887 H945 0.930 . S
C888 N885 1.314 . S
C888 C886 1.353 . S
C888 H946 0.930 . S
C889 N885 1.279 1_455 S
C889 C887 1.358 . S
C889 H947 0.930 . S
C890 C893 1.348 . S
C890 C894 1.356 . S
C890 O941 1.325 . S
C891 N892 1.279 . S
C891 C894 1.358 . S
C891 H948 0.930 . S
N892 C891 1.279 . S
N892 C895 1.314 . S
C893 C890 1.348 . S
C893 C895 1.353 . S
C893 H949 0.929 . S
C894 C890 1.356 . S
C894 C891 1.358 . S
C894 H950 0.930 . S
C895 N892 1.314 . S
C895 C893 1.353 . S
C895 H951 0.930 . S
C896 N897 1.314 . S
C896 C901 1.353 . S
C896 H902 0.930 . S
N897 Li880 1.990 . S
N897 C896 1.314 . S
N897 C899 1.279 . S
C898 C899 1.358 . S
C898 C900 1.356 . S
C898 H952 0.930 . S
C899 N897 1.279 . S
C899 C898 1.358 . S
C899 H903 0.930 . S
C900 C898 1.356 . S
C900 C901 1.348 . S
C901 C896 1.353 . S
C901 C900 1.348 . S
C901 H953 0.929 . S
H902 C896 0.930 . S
H903 C899 0.930 . S
C904 N905 1.314 . S
C904 C906 1.353 . S
C904 H910 0.930 . S
N905 Li881 1.990 . S
N905 C904 1.314 . S
N905 C908 1.279 . S
C906 C904 1.353 . S
C906 C909 1.348 . S
C906 H954 0.929 . S
C907 C908 1.358 . S
C907 C909 1.356 . S
C907 H955 0.930 . S
C908 N905 1.279 . S
C908 C907 1.358 . S
C908 H911 0.930 . S
C909 C906 1.348 . S
C909 C907 1.356 . S
H910 C904 0.930 . S
H911 C908 0.930 . S
C912 C914 1.348 . S
C912 C915 1.356 . S
C912 O942 1.325 . S
N913 C916 1.314 . S
N913 C917 1.279 . S
C914 C912 1.348 . S
C914 C916 1.353 . S
C914 H956 0.929 . S
C915 C912 1.356 . S
C915 C917 1.358 . S
C915 H957 0.930 . S
C916 N913 1.314 . S
C916 C914 1.353 . S
C916 H958 0.930 . S
C917 N913 1.279 . S
C917 C915 1.358 . S
C917 H959 0.930 . S
C918 C919 1.348 . S
C918 C920 1.356 . S
C918 O943 1.325 1_655 S
C919 C918 1.348 . S
C919 C921 1.353 . S
C919 H960 0.929 . S
C920 C918 1.356 . S
C920 C922 1.358 . S
C920 H961 0.930 . S
C921 C919 1.353 . S
C921 N923 1.314 . S
C921 H962 0.930 . S
C922 C920 1.358 . S
C922 N923 1.279 . S
C922 H963 0.930 . S
N923 C921 1.314 . S
N923 C922 1.279 . S
C924 C926 1.375 1_455 S
C924 N927 1.314 . S
C924 H930 0.930 1_455 S
C925 N927 1.279 . S
C925 C928 1.358 . S
C925 H931 0.930 . S
C926 C924 1.375 1_655 S
C926 C929 1.303 1_655 S
C926 H964 0.955 . S
N927 Li882 1.990 . S
N927 C924 1.314 . S
N927 C925 1.279 . S
C928 C925 1.358 . S
C928 C929 1.356 . S
C928 H965 0.930 . S
C929 C926 1.303 1_455 S
C929 C928 1.356 . S
H930 C924 0.930 1_655 S
H931 C925 0.930 . S
C932 N933 1.314 . S
C932 C934 1.353 . S
C932 H938 0.930 . S
N933 Li883 1.990 . S
N933 C932 1.314 . S
N933 C936 1.279 . S
C934 C932 1.353 . S
C934 C937 1.348 . S
C934 H966 0.929 . S
C935 C936 1.358 . S
C935 C937 1.356 . S
C935 H967 0.930 . S
C936 N933 1.279 . S
C936 C935 1.358 . S
C936 H939 0.930 . S
C937 C934 1.348 . S
C937 C935 1.356 . S
H938 C932 0.930 . S
H939 C936 0.930 . S
O940 Li880 1.956 . S
O940 Li881 1.970 1_455 S
O940 Li882 1.961 . S
O940 C884 1.325 . S
O941 Li880 1.970 . S
O941 Li881 1.956 1_455 S
O941 Li883 1.961 . S
O941 C890 1.325 . S
O942 Li880 1.961 . S
O942 Li882 1.956 . S
O942 Li883 1.970 . S
O942 C912 1.325 . S
O943 Li881 1.961 1_455 S
O943 Li882 1.970 . S
O943 Li883 1.956 . S
O943 C918 1.325 1_455 S
H944 C886 0.929 . S
H945 C887 0.930 . S
H946 C888 0.930 . S
H947 C889 0.930 . S
H948 C891 0.930 . S
H949 C893 0.929 . S
H950 C894 0.930 . S
H951 C895 0.930 . S
H952 C898 0.930 . S
H953 C901 0.929 . S
H954 C906 0.929 . S
H955 C907 0.930 . S
H956 C914 0.929 . S
H957 C915 0.930 . S
H958 C916 0.930 . S
H959 C917 0.930 . S
H960 C919 0.929 . S
H961 C920 0.930 . S
H962 C921 0.930 . S
H963 C922 0.930 . S
H964 C926 0.955 . S
H965 C928 0.930 . S
H966 C934 0.929 . S
H967 C935 0.930 . S
Li968 N985 1.990 . S
Li968 O1028 1.956 . S
Li968 O1029 1.970 . S
Li968 O1030 1.961 . S
Li969 N993 1.990 . S
Li969 O1028 1.970 . S
Li969 O1029 1.956 . S
Li969 O1031 1.961 . S
Li970 N1015 1.990 . S
Li970 O1028 1.961 . S
Li970 O1030 1.956 . S
Li970 O1031 1.970 . S
Li971 N1021 1.990 . S
Li971 O1029 1.961 . S
Li971 O1030 1.970 . S
Li971 O1031 1.956 . S
C972 C974 1.348 . S
C972 C975 1.356 . S
C972 O1028 1.325 . S
N973 C976 1.314 . S
N973 C977 1.279 . S
C974 C972 1.348 . S
C974 C976 1.353 . S
C974 H1032 0.929 . S
C975 C972 1.356 . S
C975 C977 1.358 . S
C975 H1033 0.930 . S
C976 N973 1.314 . S
C976 C974 1.353 . S
C976 H1034 0.930 . S
C977 N973 1.279 . S
C977 C975 1.358 . S
C977 H1035 0.930 . S
C978 C981 1.348 . S
C978 C982 1.356 . S
C978 O1029 1.325 . S
C979 N980 1.279 . S
C979 C982 1.358 . S
C979 H1036 0.930 . S
N980 C979 1.279 . S
N980 C983 1.314 . S
C981 C978 1.348 . S
C981 C983 1.353 . S
C981 H1037 0.929 . S
C982 C978 1.356 . S
C982 C979 1.358 . S
C982 H1038 0.930 . S
C983 N980 1.314 . S
C983 C981 1.353 . S
C983 H1039 0.930 . S
C984 N985 1.314 . S
C984 C989 1.353 . S
C984 H990 0.930 . S
N985 Li968 1.990 . S
N985 C984 1.314 . S
N985 C987 1.279 . S
C986 C987 1.358 . S
C986 C988 1.356 . S
C986 H1040 0.930 . S
C987 N985 1.279 . S
C987 C986 1.358 . S
C987 H991 0.930 . S
C988 C986 1.356 . S
C988 C989 1.348 . S
C989 C984 1.353 . S
C989 C988 1.348 . S
C989 H1041 0.929 . S
H990 C984 0.930 . S
H991 C987 0.930 . S
C992 N993 1.314 . S
C992 C994 1.353 . S
C992 H998 0.930 . S
N993 Li969 1.990 . S
N993 C992 1.314 . S
N993 C996 1.279 . S
C994 C992 1.353 . S
C994 C997 1.348 . S
C994 H1042 0.929 . S
C995 C996 1.358 . S
C995 C997 1.356 . S
C995 H1043 0.930 . S
C996 N993 1.279 . S
C996 C995 1.358 . S
C996 H999 0.930 . S
C997 C994 1.348 . S
C997 C995 1.356 . S
H998 C992 0.930 . S
H999 C996 0.930 . S
C1000 C1002 1.348 . S
C1000 C1003 1.356 . S
C1000 O1030 1.325 . S
N1001 C1004 1.314 . S
N1001 C1005 1.279 . S
C1002 C1000 1.348 . S
C1002 C1004 1.353 . S
C1002 H1044 0.929 . S
C1003 C1000 1.356 . S
C1003 C1005 1.358 . S
C1003 H1045 0.930 . S
C1004 N1001 1.314 . S
C1004 C1002 1.353 . S
C1004 H1046 0.930 . S
C1005 N1001 1.279 . S
C1005 C1003 1.358 . S
C1005 H1047 0.930 . S
C1006 C1007 1.348 . S
C1006 C1008 1.356 . S
C1006 O1031 1.325 . S
C1007 C1006 1.348 . S
C1007 C1009 1.353 . S
C1007 H1048 0.929 . S
C1008 C1006 1.356 . S
C1008 C1010 1.358 . S
C1008 H1049 0.930 . S
C1009 C1007 1.353 . S
C1009 N1011 1.314 . S
C1009 H1050 0.930 . S
C1010 C1008 1.358 . S
C1010 N1011 1.279 . S
C1010 H1051 0.930 . S
N1011 C1009 1.314 . S
N1011 C1010 1.279 . S
C1012 C1014 1.353 . S
C1012 N1015 1.314 . S
C1012 H1018 0.930 . S
C1013 N1015 1.279 . S
C1013 C1016 1.358 . S
C1013 H1019 0.930 . S
C1014 C1012 1.353 . S
C1014 C1017 1.348 . S
C1014 H1052 0.929 . S
N1015 Li970 1.990 . S
N1015 C1012 1.314 . S
N1015 C1013 1.279 . S
C1016 C1013 1.358 . S
C1016 C1017 1.356 . S
C1016 H1053 0.930 . S
C1017 C1014 1.348 . S
C1017 C1016 1.356 . S
H1018 C1012 0.930 . S
H1019 C1013 0.930 . S
C1020 N1021 1.314 . S
C1020 C1022 1.353 . S
C1020 H1026 0.930 . S
N1021 Li971 1.990 . S
N1021 C1020 1.314 . S
N1021 C1024 1.279 . S
C1022 C1020 1.353 . S
C1022 C1025 1.348 . S
C1022 H1054 0.929 . S
C1023 C1024 1.358 . S
C1023 C1025 1.356 . S
C1023 H1055 0.930 . S
C1024 N1021 1.279 . S
C1024 C1023 1.358 . S
C1024 H1027 0.930 . S
C1025 C1022 1.348 . S
C1025 C1023 1.356 . S
H1026 C1020 0.930 . S
H1027 C1024 0.930 . S
O1028 Li968 1.956 . S
O1028 Li969 1.970 . S
O1028 Li970 1.961 . S
O1028 C972 1.325 . S
O1029 Li968 1.970 . S
O1029 Li969 1.956 . S
O1029 Li971 1.961 . S
O1029 C978 1.325 . S
O1030 Li968 1.961 . S
O1030 Li970 1.956 . S
O1030 Li971 1.970 . S
O1030 C1000 1.325 . S
O1031 Li969 1.961 . S
O1031 Li970 1.970 . S
O1031 Li971 1.956 . S
O1031 C1006 1.325 . S
H1032 C974 0.929 . S
H1033 C975 0.930 . S
H1034 C976 0.930 . S
H1035 C977 0.930 . S
H1036 C979 0.930 . S
H1037 C981 0.929 . S
H1038 C982 0.930 . S
H1039 C983 0.930 . S
H1040 C986 0.930 . S
H1041 C989 0.929 . S
H1042 C994 0.929 . S
H1043 C995 0.930 . S
H1044 C1002 0.929 . S
H1045 C1003 0.930 . S
H1046 C1004 0.930 . S
H1047 C1005 0.930 . S
H1048 C1007 0.929 . S
H1049 C1008 0.930 . S
H1050 C1009 0.930 . S
H1051 C1010 0.930 . S
H1052 C1014 0.929 . S
H1053 C1016 0.930 . S
H1054 C1022 0.929 . S
H1055 C1023 0.930 . S
Li1056 N1073 1.990 . S
Li1056 O1116 1.956 1_565 S
Li1056 O1117 1.970 1_565 S
Li1056 O1118 1.961 1_565 S
Li1057 N1081 1.990 . S
Li1057 O1116 1.970 . S
Li1057 O1117 1.956 . S
Li1057 O1119 1.961 . S
Li1058 N1103 1.990 . S
Li1058 O1116 1.961 . S
Li1058 O1118 1.956 . S
Li1058 O1119 1.970 . S
Li1059 N1109 1.990 . S
Li1059 O1117 1.961 . S
Li1059 O1118 1.970 . S
Li1059 O1119 1.956 . S
C1060 C1062 1.348 . S
C1060 C1063 1.356 . S
C1060 O1116 1.325 1_565 S
N1061 C1064 1.314 . S
N1061 C1065 1.279 . S
C1062 C1060 1.348 . S
C1062 C1064 1.353 . S
C1062 H1120 0.929 . S
C1063 C1060 1.356 . S
C1063 C1065 1.358 . S
C1063 H1121 0.930 . S
C1064 N1061 1.314 . S
C1064 C1062 1.353 . S
C1064 H1122 0.930 . S
C1065 N1061 1.279 . S
C1065 C1063 1.358 . S
C1065 H1123 0.930 . S
C1066 C1069 1.348 1_545 S
C1066 C1070 1.356 . S
C1066 O1117 1.325 . S
C1067 N1068 1.279 1_545 S
C1067 C1070 1.358 . S
C1067 H1124 0.930 . S
N1068 C1067 1.279 1_565 S
N1068 C1071 1.314 . S
C1069 C1066 1.348 1_565 S
C1069 C1071 1.353 . S
C1069 H1125 0.929 . S
C1070 C1066 1.356 . S
C1070 C1067 1.358 . S
C1070 H1126 0.930 . S
C1071 N1068 1.314 . S
C1071 C1069 1.353 . S
C1071 H1127 0.930 . S
C1072 N1073 1.314 . S
C1072 C1077 1.353 . S
C1072 H1078 0.930 . S
N1073 Li1056 1.990 . S
N1073 C1072 1.314 . S
N1073 C1075 1.279 . S
C1074 C1075 1.358 . S
C1074 C1076 1.356 . S
C1074 H1128 0.930 . S
C1075 N1073 1.279 . S
C1075 C1074 1.358 . S
C1075 H1079 0.930 . S
C1076 C1074 1.356 . S
C1076 C1077 1.348 . S
C1077 C1072 1.353 . S
C1077 C1076 1.348 . S
C1077 H1129 0.929 . S
H1078 C1072 0.930 . S
H1079 C1075 0.930 . S
C1080 N1081 1.314 . S
C1080 C1082 1.353 . S
C1080 H1086 0.930 . S
N1081 Li1057 1.990 . S
N1081 C1080 1.314 . S
N1081 C1084 1.279 . S
C1082 C1080 1.353 . S
C1082 C1085 1.348 . S
C1082 H1130 0.929 . S
C1083 C1084 1.358 . S
C1083 C1085 1.356 . S
C1083 H1131 0.928 . S
C1084 N1081 1.279 . S
C1084 C1083 1.358 . S
C1084 H1087 0.930 . S
C1085 C1082 1.348 . S
C1085 C1083 1.356 . S
H1086 C1080 0.930 . S
H1087 C1084 0.930 . S
C1088 C1090 1.348 . S
C1088 C1091 1.356 . S
C1088 O1118 1.325 . S
N1089 C1092 1.314 . S
N1089 C1093 1.279 . S
C1090 C1088 1.348 . S
C1090 C1092 1.353 . S
C1090 H1132 0.929 . S
C1091 C1088 1.356 . S
C1091 C1093 1.358 . S
C1091 H1133 0.930 1_545 S
C1092 N1089 1.314 . S
C1092 C1090 1.353 . S
C1092 H1134 0.930 . S
C1093 N1089 1.279 . S
C1093 C1091 1.358 . S
C1093 H1135 0.925 1_545 S
C1094 C1095 1.348 . S
C1094 C1096 1.356 . S
C1094 O1119 1.325 . S
C1095 C1094 1.348 . S
C1095 C1097 1.353 . S
C1095 H1136 0.929 . S
C1096 C1094 1.356 . S
C1096 C1098 1.358 . S
C1096 H1137 0.930 . S
C1097 C1095 1.353 . S
C1097 N1099 1.314 . S
C1097 H1138 0.930 . S
C1098 C1096 1.358 . S
C1098 N1099 1.279 . S
C1098 H1139 0.930 . S
N1099 C1097 1.314 . S
N1099 C1098 1.279 . S
C1100 C1102 1.353 . S
C1100 N1103 1.314 . S
C1100 H1106 0.930 . S
C1101 N1103 1.279 . S
C1101 C1104 1.358 . S
C1101 H1107 0.930 . S
C1102 C1100 1.353 . S
C1102 C1105 1.348 . S
C1102 H1140 0.929 . S
N1103 Li1058 1.990 . S
N1103 C1100 1.314 . S
N1103 C1101 1.279 . S
C1104 C1101 1.358 . S
C1104 C1105 1.356 . S
C1104 H1141 0.930 . S
C1105 C1102 1.348 . S
C1105 C1104 1.356 . S
H1106 C1100 0.930 . S
H1107 C1101 0.930 . S
C1108 N1109 1.314 . S
C1108 C1110 1.353 . S
C1108 H1114 0.930 . S
N1109 Li1059 1.990 . S
N1109 C1108 1.314 . S
N1109 C1112 1.279 . S
C1110 C1108 1.353 . S
C1110 C1113 1.348 . S
C1110 H1142 0.929 . S
C1111 C1112 1.358 . S
C1111 C1113 1.356 . S
C1111 H1143 0.930 . S
C1112 N1109 1.279 . S
C1112 C1111 1.358 . S
C1112 H1115 0.930 . S
C1113 C1110 1.348 . S
C1113 C1111 1.356 . S
H1114 C1108 0.930 . S
H1115 C1112 0.930 . S
O1116 Li1056 1.956 1_545 S
O1116 Li1057 1.970 . S
O1116 Li1058 1.961 . S
O1116 C1060 1.325 1_545 S
O1117 Li1056 1.970 1_545 S
O1117 Li1057 1.956 . S
O1117 Li1059 1.961 . S
O1117 C1066 1.325 . S
O1118 Li1056 1.961 1_545 S
O1118 Li1058 1.956 . S
O1118 Li1059 1.970 . S
O1118 C1088 1.325 . S
O1119 Li1057 1.961 . S
O1119 Li1058 1.970 . S
O1119 Li1059 1.956 . S
O1119 C1094 1.325 . S
H1120 C1062 0.929 . S
H1121 C1063 0.930 . S
H1122 C1064 0.930 . S
H1123 C1065 0.930 . S
H1124 C1067 0.930 . S
H1125 C1069 0.929 . S
H1126 C1070 0.930 . S
H1127 C1071 0.930 . S
H1128 C1074 0.930 . S
H1129 C1077 0.929 . S
H1130 C1082 0.929 . S
H1131 C1083 0.928 . S
H1132 C1090 0.929 . S
H1133 C1091 0.930 1_565 S
H1134 C1092 0.930 . S
H1135 C1093 0.925 1_565 S
H1136 C1095 0.929 . S
H1137 C1096 0.930 . S
H1138 C1097 0.930 . S
H1139 C1098 0.930 . S
H1140 C1102 0.929 . S
H1141 C1104 0.930 . S
H1142 C1110 0.929 . S
H1143 C1111 0.930 . S
Li1144 N1161 1.990 . S
Li1144 O1204 1.956 . S
Li1144 O1205 1.970 1_455 S
Li1144 O1206 1.961 1_455 S
Li1145 N1169 1.990 . S
Li1145 O1204 1.970 1_655 S
Li1145 O1205 1.956 . S
Li1145 O1207 1.961 . S
Li1146 N1191 1.990 . S
Li1146 O1204 1.961 1_655 S
Li1146 O1206 1.956 . S
Li1146 O1207 1.970 . S
Li1147 N1197 1.990 . S
Li1147 O1205 1.961 . S
Li1147 O1206 1.970 . S
Li1147 O1207 1.956 . S
C1148 C1150 1.348 . S
C1148 C1151 1.356 . S
C1148 O1204 1.325 . S
N1149 C1152 1.314 . S
N1149 C1153 1.279 . S
C1150 C1148 1.348 . S
C1150 C1152 1.353 . S
C1150 H1208 0.929 . S
C1151 C1148 1.356 . S
C1151 C1153 1.358 . S
C1151 H1209 0.930 . S
C1152 N1149 1.314 . S
C1152 C1150 1.353 . S
C1152 H1210 0.930 . S
C1153 N1149 1.279 . S
C1153 C1151 1.358 . S
C1153 H1211 0.930 . S
C1154 C1157 1.348 1_655 S
C1154 C1158 1.356 . S
C1154 O1205 1.325 . S
C1155 N1156 1.279 1_655 S
C1155 C1158 1.358 . S
C1155 H1212 0.930 . S
N1156 C1155 1.279 1_455 S
N1156 C1159 1.314 . S
C1157 C1154 1.348 1_455 S
C1157 C1159 1.353 . S
C1157 H1213 0.929 . S
C1158 C1154 1.356 . S
C1158 C1155 1.358 . S
C1158 H1214 0.930 . S
C1159 N1156 1.314 . S
C1159 C1157 1.353 . S
C1159 H1215 0.930 . S
C1160 N1161 1.314 . S
C1160 C1165 1.353 . S
C1160 H1166 0.930 . S
N1161 Li1144 1.990 . S
N1161 C1160 1.314 . S
N1161 C1163 1.279 . S
C1162 C1163 1.358 . S
C1162 C1164 1.356 . S
C1162 H1216 0.930 . S
C1163 N1161 1.279 . S
C1163 C1162 1.358 . S
C1163 H1167 0.930 . S
C1164 C1162 1.356 . S
C1164 C1165 1.348 . S
C1165 C1160 1.353 . S
C1165 C1164 1.348 . S
C1165 H1217 0.929 . S
H1166 C1160 0.930 . S
H1167 C1163 0.930 . S
C1168 N1169 1.314 . S
C1168 C1170 1.353 . S
C1168 H1174 0.930 . S
N1169 Li1145 1.990 . S
N1169 C1168 1.314 . S
N1169 C1172 1.279 . S
C1170 C1168 1.353 . S
C1170 C1173 1.348 . S
C1170 H1218 0.929 . S
C1171 C1172 1.358 . S
C1171 C1173 1.356 . S
C1171 H1219 0.930 1_655 S
C1172 N1169 1.279 . S
C1172 C1171 1.358 . S
C1172 H1175 0.914 1_655 S
C1173 C1170 1.348 . S
C1173 C1171 1.356 . S
H1174 C1168 0.930 . S
H1175 C1172 0.914 1_455 S
C1176 C1178 1.348 . S
C1176 C1179 1.356 . S
C1176 O1206 1.325 . S
N1177 C1180 1.314 . S
N1177 C1181 1.279 . S
C1178 C1176 1.348 . S
C1178 C1180 1.353 . S
C1178 H1220 0.929 . S
C1179 C1176 1.356 . S
C1179 C1181 1.358 . S
C1179 H1221 0.930 1_655 S
C1180 N1177 1.314 . S
C1180 C1178 1.353 . S
C1180 H1222 0.930 . S
C1181 N1177 1.279 . S
C1181 C1179 1.358 . S
C1181 H1223 0.930 1_655 S
C1182 C1183 1.348 . S
C1182 C1184 1.356 . S
C1182 O1207 1.325 . S
C1183 C1182 1.348 . S
C1183 C1185 1.353 . S
C1183 H1224 0.929 . S
C1184 C1182 1.356 . S
C1184 C1186 1.358 . S
C1184 H1225 0.930 . S
C1185 C1183 1.353 . S
C1185 N1187 1.314 . S
C1185 H1226 0.930 . S
C1186 C1184 1.358 . S
C1186 N1187 1.279 . S
C1186 H1227 0.930 . S
N1187 C1185 1.314 . S
N1187 C1186 1.279 . S
C1188 C1190 1.353 . S
C1188 N1191 1.314 . S
C1188 H1194 0.930 . S
C1189 N1191 1.279 . S
C1189 C1192 1.358 . S
C1189 H1195 0.930 . S
C1190 C1188 1.353 . S
C1190 C1193 1.348 . S
C1190 H1228 0.929 . S
N1191 Li1146 1.990 . S
N1191 C1188 1.314 . S
N1191 C1189 1.279 . S
C1192 C1189 1.358 . S
C1192 C1193 1.356 . S
C1192 H1229 0.930 . S
C1193 C1190 1.348 . S
C1193 C1192 1.356 . S
H1194 C1188 0.930 . S
H1195 C1189 0.930 . S
C1196 N1197 1.314 . S
C1196 C1198 1.353 . S
C1196 H1202 0.930 . S
N1197 Li1147 1.990 . S
N1197 C1196 1.314 . S
N1197 C1200 1.279 . S
C1198 C1196 1.353 . S
C1198 C1201 1.348 . S
C1198 H1230 0.929 . S
C1199 C1200 1.358 . S
C1199 C1201 1.356 . S
C1199 H1231 0.930 . S
C1200 N1197 1.279 . S
C1200 C1199 1.358 . S
C1200 H1203 0.930 . S
C1201 C1198 1.348 . S
C1201 C1199 1.356 . S
H1202 C1196 0.930 . S
H1203 C1200 0.930 . S
O1204 Li1144 1.956 . S
O1204 Li1145 1.970 1_455 S
O1204 Li1146 1.961 1_455 S
O1204 C1148 1.325 . S
O1205 Li1144 1.970 1_655 S
O1205 Li1145 1.956 . S
O1205 Li1147 1.961 . S
O1205 C1154 1.325 . S
O1206 Li1144 1.961 1_655 S
O1206 Li1146 1.956 . S
O1206 Li1147 1.970 . S
O1206 C1176 1.325 . S
O1207 Li1145 1.961 . S
O1207 Li1146 1.970 . S
O1207 Li1147 1.956 . S
O1207 C1182 1.325 . S
H1208 C1150 0.929 . S
H1209 C1151 0.930 . S
H1210 C1152 0.930 . S
H1211 C1153 0.930 . S
H1212 C1155 0.930 . S
H1213 C1157 0.929 . S
H1214 C1158 0.930 . S
H1215 C1159 0.930 . S
H1216 C1162 0.930 . S
H1217 C1165 0.929 . S
H1218 C1170 0.929 . S
H1219 C1171 0.930 1_455 S
H1220 C1178 0.929 . S
H1221 C1179 0.930 1_455 S
H1222 C1180 0.930 . S
H1223 C1181 0.930 1_455 S
H1224 C1183 0.929 . S
H1225 C1184 0.930 . S
H1226 C1185 0.930 . S
H1227 C1186 0.930 . S
H1228 C1190 0.929 . S
H1229 C1192 0.930 . S
H1230 C1198 0.929 . S
H1231 C1199 0.930 . S
Li1232 N1249 1.990 . S
Li1232 O1292 1.956 . S
Li1232 O1293 1.970 . S
Li1232 O1294 1.961 . S
Li1233 N1257 1.990 . S
Li1233 O1292 1.970 . S
Li1233 O1293 1.956 . S
Li1233 O1295 1.961 . S
Li1234 N1279 1.990 . S
Li1234 O1292 1.961 . S
Li1234 O1294 1.956 . S
Li1234 O1295 1.970 . S
Li1235 N1285 1.990 . S
Li1235 O1293 1.961 . S
Li1235 O1294 1.970 . S
Li1235 O1295 1.956 . S
C1236 C1238 1.348 . S
C1236 C1239 1.356 . S
C1236 O1292 1.325 . S
N1237 C1240 1.314 . S
N1237 C1241 1.279 . S
C1238 C1236 1.348 . S
C1238 C1240 1.353 . S
C1238 H1296 0.929 . S
C1239 C1236 1.356 . S
C1239 C1241 1.358 . S
C1239 H1297 0.930 . S
C1240 N1237 1.314 . S
C1240 C1238 1.353 . S
C1240 H1298 0.930 . S
C1241 N1237 1.279 . S
C1241 C1239 1.358 . S
C1241 H1299 0.930 . S
C1242 C1245 1.348 . S
C1242 C1246 1.356 . S
C1242 O1293 1.325 . S
C1243 N1244 1.279 . S
C1243 C1246 1.358 . S
C1243 H1300 0.930 . S
N1244 C1243 1.279 . S
N1244 C1247 1.314 . S
C1245 C1242 1.348 . S
C1245 C1247 1.353 . S
C1245 H1301 0.929 . S
C1246 C1242 1.356 . S
C1246 C1243 1.358 . S
C1246 H1302 0.930 . S
C1247 N1244 1.314 . S
C1247 C1245 1.353 . S
C1247 H1303 0.930 . S
C1248 N1249 1.314 . S
C1248 C1253 1.353 . S
C1248 H1254 0.930 . S
N1249 Li1232 1.990 . S
N1249 C1248 1.314 . S
N1249 C1251 1.279 . S
C1250 C1251 1.358 . S
C1250 C1252 1.356 . S
C1250 H1304 0.930 . S
C1251 N1249 1.279 . S
C1251 C1250 1.358 . S
C1251 H1255 0.930 . S
C1252 C1250 1.356 . S
C1252 C1253 1.348 . S
C1253 C1248 1.353 . S
C1253 C1252 1.348 . S
C1253 H1305 0.929 . S
H1254 C1248 0.930 . S
H1255 C1251 0.930 . S
C1256 N1257 1.314 . S
C1256 C1258 1.353 . S
C1256 H1262 0.930 . S
N1257 Li1233 1.990 . S
N1257 C1256 1.314 . S
N1257 C1260 1.279 . S
C1258 C1256 1.353 . S
C1258 C1261 1.348 . S
C1258 H1306 0.929 . S
C1259 C1260 1.358 . S
C1259 C1261 1.356 . S
C1259 H1307 0.930 . S
C1260 N1257 1.279 . S
C1260 C1259 1.358 . S
C1260 H1263 0.930 . S
C1261 C1258 1.348 . S
C1261 C1259 1.356 . S
H1262 C1256 0.930 . S
H1263 C1260 0.930 . S
C1264 C1266 1.348 . S
C1264 C1267 1.356 . S
C1264 O1294 1.325 . S
N1265 C1268 1.314 . S
N1265 C1269 1.279 . S
C1266 C1264 1.348 . S
C1266 C1268 1.353 . S
C1266 H1308 0.929 . S
C1267 C1264 1.356 . S
C1267 C1269 1.358 . S
C1267 H1309 0.930 . S
C1268 N1265 1.314 . S
C1268 C1266 1.353 . S
C1268 H1310 0.930 . S
C1269 N1265 1.279 . S
C1269 C1267 1.358 . S
C1269 H1311 0.930 . S
C1270 C1271 1.348 . S
C1270 C1272 1.356 . S
C1270 O1295 1.325 . S
C1271 C1270 1.348 . S
C1271 C1273 1.353 . S
C1271 H1312 0.929 . S
C1272 C1270 1.356 . S
C1272 C1274 1.358 . S
C1272 H1313 0.930 . S
C1273 C1271 1.353 . S
C1273 N1275 1.314 . S
C1273 H1314 0.930 . S
C1274 C1272 1.358 . S
C1274 N1275 1.279 . S
C1274 H1315 0.930 . S
N1275 C1273 1.314 . S
N1275 C1274 1.279 . S
C1276 C1278 1.353 . S
C1276 N1279 1.314 . S
C1276 H1282 0.930 . S
C1277 N1279 1.279 . S
C1277 C1280 1.358 . S
C1277 H1283 0.930 . S
C1278 C1276 1.353 . S
C1278 C1281 1.348 . S
C1278 H1316 0.929 . S
N1279 Li1234 1.990 . S
N1279 C1276 1.314 . S
N1279 C1277 1.279 . S
C1280 C1277 1.358 . S
C1280 C1281 1.356 . S
C1280 H1317 0.930 . S
C1281 C1278 1.348 . S
C1281 C1280 1.356 . S
H1282 C1276 0.930 . S
H1283 C1277 0.930 . S
C1284 N1285 1.314 . S
C1284 C1286 1.353 . S
C1284 H1290 0.930 . S
N1285 Li1235 1.990 . S
N1285 C1284 1.314 . S
N1285 C1288 1.279 . S
C1286 C1284 1.353 . S
C1286 C1289 1.348 . S
C1286 H1318 0.929 . S
C1287 C1288 1.358 . S
C1287 C1289 1.356 . S
C1287 H1319 0.930 . S
C1288 N1285 1.279 . S
C1288 C1287 1.358 . S
C1288 H1291 0.930 . S
C1289 C1286 1.348 . S
C1289 C1287 1.356 . S
H1290 C1284 0.930 . S
H1291 C1288 0.930 . S
O1292 Li1232 1.956 . S
O1292 Li1233 1.970 . S
O1292 Li1234 1.961 . S
O1292 C1236 1.325 . S
O1293 Li1232 1.970 . S
O1293 Li1233 1.956 . S
O1293 Li1235 1.961 . S
O1293 C1242 1.325 . S
O1294 Li1232 1.961 . S
O1294 Li1234 1.956 . S
O1294 Li1235 1.970 . S
O1294 C1264 1.325 . S
O1295 Li1233 1.961 . S
O1295 Li1234 1.970 . S
O1295 Li1235 1.956 . S
O1295 C1270 1.325 . S
H1296 C1238 0.929 . S
H1297 C1239 0.930 . S
H1298 C1240 0.930 . S
H1299 C1241 0.930 . S
H1300 C1243 0.930 . S
H1301 C1245 0.929 . S
H1302 C1246 0.930 . S
H1303 C1247 0.930 . S
H1304 C1250 0.930 . S
H1305 C1253 0.929 . S
H1306 C1258 0.929 . S
H1307 C1259 0.930 . S
H1308 C1266 0.929 . S
H1309 C1267 0.930 . S
H1310 C1268 0.930 . S
H1311 C1269 0.930 . S
H1312 C1271 0.929 . S
H1313 C1272 0.930 . S
H1314 C1273 0.930 . S
H1315 C1274 0.930 . S
H1316 C1278 0.929 . S
H1317 C1280 0.930 . S
H1318 C1286 0.929 . S
H1319 C1287 0.930 . S
Li1320 N1337 1.990 . S
Li1320 O1380 1.956 . S
Li1320 O1381 1.970 . S
Li1320 O1382 1.961 . S
Li1321 N1345 1.990 . S
Li1321 O1380 1.970 . S
Li1321 O1381 1.956 . S
Li1321 O1383 1.961 . S
Li1322 N1367 1.990 . S
Li1322 O1380 1.961 . S
Li1322 O1382 1.956 . S
Li1322 O1383 1.970 . S
Li1323 N1373 1.990 . S
Li1323 O1381 1.961 . S
Li1323 O1382 1.970 . S
Li1323 O1383 1.956 . S
C1324 C1326 1.348 . S
C1324 C1327 1.356 . S
C1324 O1380 1.325 . S
N1325 C1328 1.314 . S
N1325 C1329 1.279 . S
C1326 C1324 1.348 . S
C1326 C1328 1.353 . S
C1326 H1384 0.929 . S
C1327 C1324 1.356 . S
C1327 C1329 1.358 . S
C1327 H1385 0.930 . S
C1328 N1325 1.314 . S
C1328 C1326 1.353 . S
C1328 H1386 0.930 . S
C1329 N1325 1.279 . S
C1329 C1327 1.358 . S
C1329 H1387 0.930 . S
C1330 C1333 1.348 . S
C1330 C1334 1.356 . S
C1330 O1381 1.325 . S
C1331 N1332 1.279 . S
C1331 C1334 1.358 . S
C1331 H1388 0.930 . S
N1332 C1331 1.279 . S
N1332 C1335 1.314 . S
C1333 C1330 1.348 . S
C1333 C1335 1.353 . S
C1333 H1389 0.929 . S
C1334 C1330 1.356 . S
C1334 C1331 1.358 . S
C1334 H1390 0.930 . S
C1335 N1332 1.314 . S
C1335 C1333 1.353 . S
C1335 H1391 0.930 . S
C1336 N1337 1.314 . S
C1336 C1341 1.353 . S
C1336 H1342 0.930 . S
N1337 Li1320 1.990 . S
N1337 C1336 1.314 . S
N1337 C1339 1.279 . S
C1338 C1339 1.358 . S
C1338 C1340 1.356 . S
C1338 H1392 0.930 . S
C1339 N1337 1.279 . S
C1339 C1338 1.358 . S
C1339 H1343 0.930 . S
C1340 C1338 1.356 . S
C1340 C1341 1.348 . S
C1341 C1336 1.353 . S
C1341 C1340 1.348 . S
C1341 H1393 0.929 . S
H1342 C1336 0.930 . S
H1343 C1339 0.930 . S
C1344 N1345 1.314 . S
C1344 C1346 1.353 . S
C1344 H1350 0.930 . S
N1345 Li1321 1.990 . S
N1345 C1344 1.314 . S
N1345 C1348 1.279 . S
C1346 C1344 1.353 . S
C1346 C1349 1.348 . S
C1346 H1394 0.929 . S
C1347 C1348 1.358 . S
C1347 C1349 1.356 . S
C1347 H1395 0.930 . S
C1348 N1345 1.279 . S
C1348 C1347 1.358 . S
C1348 H1351 0.930 . S
C1349 C1346 1.348 . S
C1349 C1347 1.356 . S
H1350 C1344 0.930 . S
H1351 C1348 0.930 . S
C1352 C1354 1.348 . S
C1352 C1355 1.356 . S
C1352 O1382 1.325 . S
N1353 C1356 1.314 . S
N1353 C1357 1.279 . S
C1354 C1352 1.348 . S
C1354 C1356 1.353 . S
C1354 H1396 0.929 . S
C1355 C1352 1.356 . S
C1355 C1357 1.358 . S
C1355 H1397 0.930 . S
C1356 N1353 1.314 . S
C1356 C1354 1.353 . S
C1356 H1398 0.930 . S
C1357 N1353 1.279 . S
C1357 C1355 1.358 . S
C1357 H1399 0.930 . S
C1358 C1359 1.348 . S
C1358 C1360 1.356 . S
C1358 O1383 1.325 . S
C1359 C1358 1.348 . S
C1359 C1361 1.353 . S
C1359 H1400 0.929 . S
C1360 C1358 1.356 . S
C1360 C1362 1.358 . S
C1360 H1401 0.930 . S
C1361 C1359 1.353 . S
C1361 N1363 1.314 . S
C1361 H1402 0.930 . S
C1362 C1360 1.358 . S
C1362 N1363 1.279 . S
C1362 H1403 0.930 . S
N1363 C1361 1.314 . S
N1363 C1362 1.279 . S
C1364 C1366 1.353 . S
C1364 N1367 1.314 . S
C1364 H1370 0.930 . S
C1365 N1367 1.279 . S
C1365 C1368 1.358 . S
C1365 H1371 0.930 . S
C1366 C1364 1.353 . S
C1366 C1369 1.348 . S
C1366 H1404 0.929 . S
N1367 Li1322 1.990 . S
N1367 C1364 1.314 . S
N1367 C1365 1.279 . S
C1368 C1365 1.358 . S
C1368 C1369 1.356 . S
C1368 H1405 0.930 . S
C1369 C1366 1.348 . S
C1369 C1368 1.356 . S
H1370 C1364 0.930 . S
H1371 C1365 0.930 . S
C1372 N1373 1.314 . S
C1372 C1374 1.353 . S
C1372 H1378 0.930 . S
N1373 Li1323 1.990 . S
N1373 C1372 1.314 . S
N1373 C1376 1.279 . S
C1374 C1372 1.353 . S
C1374 C1377 1.348 . S
C1374 H1406 0.929 . S
C1375 C1376 1.358 . S
C1375 C1377 1.356 . S
C1375 H1407 0.930 . S
C1376 N1373 1.279 . S
C1376 C1375 1.358 . S
C1376 H1379 0.930 . S
C1377 C1374 1.348 . S
C1377 C1375 1.356 . S
H1378 C1372 0.930 . S
H1379 C1376 0.930 . S
O1380 Li1320 1.956 . S
O1380 Li1321 1.970 . S
O1380 Li1322 1.961 . S
O1380 C1324 1.325 . S
O1381 Li1320 1.970 . S
O1381 Li1321 1.956 . S
O1381 Li1323 1.961 . S
O1381 C1330 1.325 . S
O1382 Li1320 1.961 . S
O1382 Li1322 1.956 . S
O1382 Li1323 1.970 . S
O1382 C1352 1.325 . S
O1383 Li1321 1.961 . S
O1383 Li1322 1.970 . S
O1383 Li1323 1.956 . S
O1383 C1358 1.325 . S
H1384 C1326 0.929 . S
H1385 C1327 0.930 . S
H1386 C1328 0.930 . S
H1387 C1329 0.930 . S
H1388 C1331 0.930 . S
H1389 C1333 0.929 . S
H1390 C1334 0.930 . S
H1391 C1335 0.930 . S
H1392 C1338 0.930 . S
H1393 C1341 0.929 . S
H1394 C1346 0.929 . S
H1395 C1347 0.930 . S
H1396 C1354 0.929 . S
H1397 C1355 0.930 . S
H1398 C1356 0.930 . S
H1399 C1357 0.930 . S
H1400 C1359 0.929 . S
H1401 C1360 0.930 . S
H1402 C1361 0.930 . S
H1403 C1362 0.930 . S
H1404 C1366 0.929 . S
H1405 C1368 0.930 . S
H1406 C1374 0.929 . S
H1407 C1375 0.930 . S
Li1408 N1425 1.990 . S
Li1408 O1468 1.956 . S
Li1408 O1469 1.947 1_545 S
Li1408 O1470 1.961 . S
Li1409 N1433 1.990 . S
Li1409 O1468 1.970 . S
Li1409 O1469 1.945 1_545 S
Li1409 O1471 1.961 . S
Li1410 N1455 1.990 . S
Li1410 O1468 1.961 . S
Li1410 O1470 1.956 . S
Li1410 O1471 1.970 . S
Li1411 N1461 1.990 . S
Li1411 O1469 1.966 . S
Li1411 O1470 1.970 1_565 S
Li1411 O1471 1.956 1_565 S
C1412 C1414 1.348 . S
C1412 C1415 1.356 . S
C1412 O1468 1.325 . S
N1413 C1416 1.314 . S
N1413 C1417 1.279 . S
C1414 C1412 1.348 . S
C1414 C1416 1.353 . S
C1414 H1472 0.929 . S
C1415 C1412 1.356 . S
C1415 C1417 1.358 . S
C1415 H1473 0.930 . S
C1416 N1413 1.314 . S
C1416 C1414 1.353 . S
C1416 H1474 0.930 . S
C1417 N1413 1.279 . S
C1417 C1415 1.358 . S
C1417 H1475 0.930 . S
C1418 C1421 1.348 . S
C1418 C1422 1.356 . S
C1418 O1469 1.342 . S
C1419 N1420 1.279 . S
C1419 C1422 1.358 . S
C1419 H1476 0.930 . S
N1420 C1419 1.279 . S
N1420 C1423 1.314 . S
C1421 C1418 1.348 . S
C1421 C1423 1.353 . S
C1421 H1477 0.929 . S
C1422 C1418 1.356 . S
C1422 C1419 1.358 . S
C1422 H1478 0.930 . S
C1423 N1420 1.314 . S
C1423 C1421 1.353 . S
C1423 H1479 0.930 . S
C1424 N1425 1.314 . S
C1424 C1429 1.353 1_545 S
C1424 H1430 0.930 1_545 S
N1425 Li1408 1.990 . S
N1425 C1424 1.314 . S
N1425 C1427 1.279 . S
C1426 C1427 1.358 . S
C1426 C1428 1.356 . S
C1426 H1480 0.930 . S
C1427 N1425 1.279 . S
C1427 C1426 1.358 . S
C1427 H1431 0.930 . S
C1428 C1426 1.356 . S
C1428 C1429 1.348 1_545 S
C1429 C1424 1.353 1_565 S
C1429 C1428 1.348 1_565 S
C1429 H1481 0.929 . S
H1430 C1424 0.930 1_565 S
H1431 C1427 0.930 . S
C1432 N1433 1.314 . S
C1432 C1434 1.353 . S
C1432 H1438 0.930 . S
N1433 Li1409 1.990 . S
N1433 C1432 1.314 . S
N1433 C1436 1.279 . S
C1434 C1432 1.353 . S
C1434 C1437 1.348 . S
C1434 H1482 0.929 . S
C1435 C1436 1.358 . S
C1435 C1437 1.356 . S
C1435 H1483 0.930 . S
C1436 N1433 1.279 . S
C1436 C1435 1.358 . S
C1436 H1439 0.930 . S
C1437 C1434 1.348 . S
C1437 C1435 1.356 . S
H1438 C1432 0.930 . S
H1439 C1436 0.930 . S
C1440 C1442 1.348 1_545 S
C1440 C1443 1.356 . S
C1440 O1470 1.325 . S
N1441 C1444 1.314 . S
N1441 C1445 1.279 1_565 S
C1442 C1440 1.348 1_565 S
C1442 C1444 1.353 . S
C1442 H1484 0.929 . S
C1443 C1440 1.356 . S
C1443 C1445 1.358 . S
C1443 H1485 0.930 . S
C1444 N1441 1.314 . S
C1444 C1442 1.353 . S
C1444 H1486 0.930 . S
C1445 N1441 1.279 1_545 S
C1445 C1443 1.358 . S
C1445 H1487 0.930 . S
C1446 C1447 1.348 . S
C1446 C1448 1.356 . S
C1446 O1471 1.325 . S
C1447 C1446 1.348 . S
C1447 C1449 1.353 . S
C1447 H1488 0.929 . S
C1448 C1446 1.356 . S
C1448 C1450 1.358 . S
C1448 H1489 0.930 . S
C1449 C1447 1.353 . S
C1449 N1451 1.314 . S
C1449 H1490 0.930 . S
C1450 C1448 1.358 . S
C1450 N1451 1.279 . S
C1450 H1491 0.930 . S
N1451 C1449 1.314 . S
N1451 C1450 1.279 . S
C1452 C1454 1.353 . S
C1452 N1455 1.314 . S
C1452 H1458 0.930 . S
C1453 N1455 1.279 . S
C1453 C1456 1.358 . S
C1453 H1459 0.930 . S
C1454 C1452 1.353 . S
C1454 C1457 1.348 . S
C1454 H1492 0.929 . S
N1455 Li1410 1.990 . S
N1455 C1452 1.314 . S
N1455 C1453 1.279 . S
C1456 C1453 1.358 . S
C1456 C1457 1.356 . S
C1456 H1493 0.930 . S
C1457 C1454 1.348 . S
C1457 C1456 1.356 . S
H1458 C1452 0.930 . S
H1459 C1453 0.930 . S
C1460 N1461 1.314 . S
C1460 C1462 1.353 . S
C1460 H1466 0.930 . S
N1461 Li1411 1.990 . S
N1461 C1460 1.314 . S
N1461 C1464 1.279 . S
C1462 C1460 1.353 . S
C1462 C1465 1.348 . S
C1462 H1494 0.929 . S
C1463 C1464 1.358 . S
C1463 C1465 1.356 . S
C1463 H1495 0.930 . S
C1464 N1461 1.279 . S
C1464 C1463 1.358 . S
C1464 H1467 0.930 . S
C1465 C1462 1.348 . S
C1465 C1463 1.356 . S
H1466 C1460 0.930 . S
H1467 C1464 0.930 . S
O1468 Li1408 1.956 . S
O1468 Li1409 1.970 . S
O1468 Li1410 1.961 . S
O1468 C1412 1.325 . S
O1469 Li1408 1.947 1_565 S
O1469 Li1409 1.945 1_565 S
O1469 Li1411 1.966 . S
O1469 C1418 1.342 . S
O1470 Li1408 1.961 . S
O1470 Li1410 1.956 . S
O1470 Li1411 1.970 1_545 S
O1470 C1440 1.325 . S
O1471 Li1409 1.961 . S
O1471 Li1410 1.970 . S
O1471 Li1411 1.956 1_545 S
O1471 C1446 1.325 . S
H1472 C1414 0.929 . S
H1473 C1415 0.930 . S
H1474 C1416 0.930 . S
H1475 C1417 0.930 . S
H1476 C1419 0.930 . S
H1477 C1421 0.929 . S
H1478 C1422 0.930 . S
H1479 C1423 0.930 . S
H1480 C1426 0.930 . S
H1481 C1429 0.929 . S
H1482 C1434 0.929 . S
H1483 C1435 0.930 . S
H1484 C1442 0.929 . S
H1485 C1443 0.930 . S
H1486 C1444 0.930 . S
H1487 C1445 0.930 . S
H1488 C1447 0.929 . S
H1489 C1448 0.930 . S
H1490 C1449 0.930 . S
H1491 C1450 0.930 . S
H1492 C1454 0.929 . S
H1493 C1456 0.930 . S
H1494 C1462 0.929 . S
H1495 C1463 0.930 . S
Li1496 N1513 1.990 . S
Li1496 O1556 1.956 . S
Li1496 O1557 1.970 . S
Li1496 O1558 1.961 . S
Li1497 N1521 1.990 . S
Li1497 O1556 1.970 . S
Li1497 O1557 1.956 . S
Li1497 O1559 1.961 . S
Li1498 N1543 1.990 . S
Li1498 O1556 1.961 1_455 S
Li1498 O1558 1.956 1_455 S
Li1498 O1559 1.970 1_455 S
Li1499 N1549 1.990 . S
Li1499 O1557 1.961 . S
Li1499 O1558 1.970 . S
Li1499 O1559 1.956 . S
C1500 C1502 1.348 . S
C1500 C1503 1.356 . S
C1500 O1556 1.325 1_455 S
N1501 C1504 1.314 . S
N1501 C1505 1.279 . S
C1502 C1500 1.348 . S
C1502 C1504 1.353 . S
C1502 H1560 0.929 . S
C1503 C1500 1.356 . S
C1503 C1505 1.358 . S
C1503 H1561 0.930 . S
C1504 N1501 1.314 . S
C1504 C1502 1.353 . S
C1504 H1562 0.930 . S
C1505 N1501 1.279 . S
C1505 C1503 1.358 . S
C1505 H1563 0.930 . S
C1506 C1509 1.348 . S
C1506 C1510 1.356 . S
C1506 O1557 1.325 . S
C1507 N1508 1.279 . S
C1507 C1510 1.358 . S
C1507 H1564 0.930 . S
N1508 C1507 1.279 . S
N1508 C1511 1.314 . S
C1509 C1506 1.348 . S
C1509 C1511 1.353 . S
C1509 H1565 0.929 . S
C1510 C1506 1.356 . S
C1510 C1507 1.358 . S
C1510 H1566 0.930 . S
C1511 N1508 1.314 . S
C1511 C1509 1.353 . S
C1511 H1567 0.930 . S
C1512 N1513 1.314 . S
C1512 C1517 1.353 . S
C1512 H1518 0.930 . S
N1513 Li1496 1.990 . S
N1513 C1512 1.314 . S
N1513 C1515 1.279 . S
C1514 C1515 1.358 . S
C1514 C1516 1.356 . S
C1514 H1568 0.930 . S
C1515 N1513 1.279 . S
C1515 C1514 1.358 . S
C1515 H1519 0.930 . S
C1516 C1514 1.356 . S
C1516 C1517 1.348 . S
C1517 C1512 1.353 . S
C1517 C1516 1.348 . S
C1517 H1569 0.929 . S
H1518 C1512 0.930 . S
H1519 C1515 0.930 . S
C1520 N1521 1.314 . S
C1520 C1522 1.353 . S
C1520 H1526 0.930 1_655 S
N1521 Li1497 1.990 . S
N1521 C1520 1.314 . S
N1521 C1524 1.279 . S
C1522 C1520 1.353 . S
C1522 C1525 1.348 . S
C1522 H1570 0.929 1_655 S
C1523 C1524 1.358 . S
C1523 C1525 1.356 . S
C1523 H1571 0.930 . S
C1524 N1521 1.279 . S
C1524 C1523 1.358 . S
C1524 H1527 0.930 . S
C1525 C1522 1.348 . S
C1525 C1523 1.356 . S
H1526 C1520 0.930 1_455 S
H1527 C1524 0.930 . S
C1528 C1530 1.348 . S
C1528 C1531 1.356 . S
C1528 O1558 1.325 . S
N1529 C1532 1.314 . S
N1529 C1533 1.279 . S
C1530 C1528 1.348 . S
C1530 C1532 1.353 . S
C1530 H1572 0.929 . S
C1531 C1528 1.356 . S
C1531 C1533 1.358 . S
C1531 H1573 0.930 . S
C1532 N1529 1.314 . S
C1532 C1530 1.353 . S
C1532 H1574 0.930 . S
C1533 N1529 1.279 . S
C1533 C1531 1.358 . S
C1533 H1575 0.930 . S
C1534 C1535 1.348 1_655 S
C1534 C1536 1.356 . S
C1534 O1559 1.325 . S
C1535 C1534 1.348 1_455 S
C1535 C1537 1.353 . S
C1535 H1576 0.929 . S
C1536 C1534 1.356 . S
C1536 C1538 1.358 . S
C1536 H1577 0.930 . S
C1537 C1535 1.353 . S
C1537 N1539 1.315 1_455 S
C1537 H1578 0.930 . S
C1538 C1536 1.358 . S
C1538 N1539 1.289 . S
C1538 H1579 0.930 . S
N1539 C1537 1.315 1_655 S
N1539 C1538 1.289 . S
C1540 C1542 1.353 . S
C1540 N1543 1.314 . S
C1540 H1546 0.930 . S
C1541 N1543 1.279 . S
C1541 C1544 1.358 . S
C1541 H1547 0.930 . S
C1542 C1540 1.353 . S
C1542 C1545 1.348 . S
C1542 H1580 0.929 . S
N1543 Li1498 1.990 . S
N1543 C1540 1.314 . S
N1543 C1541 1.279 . S
C1544 C1541 1.358 . S
C1544 C1545 1.356 . S
C1544 H1581 0.930 . S
C1545 C1542 1.348 . S
C1545 C1544 1.356 . S
H1546 C1540 0.930 . S
H1547 C1541 0.930 . S
C1548 N1549 1.314 . S
C1548 C1550 1.353 . S
C1548 H1554 0.930 . S
N1549 Li1499 1.990 . S
N1549 C1548 1.314 . S
N1549 C1552 1.279 . S
C1550 C1548 1.353 . S
C1550 C1553 1.348 . S
C1550 H1582 0.929 . S
C1551 C1552 1.358 . S
C1551 C1553 1.356 . S
C1551 H1583 0.930 . S
C1552 N1549 1.279 . S
C1552 C1551 1.358 . S
C1552 H1555 0.930 . S
C1553 C1550 1.348 . S
C1553 C1551 1.356 . S
H1554 C1548 0.930 . S
H1555 C1552 0.930 . S
O1556 Li1496 1.956 . S
O1556 Li1497 1.970 . S
O1556 Li1498 1.961 1_655 S
O1556 C1500 1.325 1_655 S
O1557 Li1496 1.970 . S
O1557 Li1497 1.956 . S
O1557 Li1499 1.961 . S
O1557 C1506 1.325 . S
O1558 Li1496 1.961 . S
O1558 Li1498 1.956 1_655 S
O1558 Li1499 1.970 . S
O1558 C1528 1.325 . S
O1559 Li1497 1.961 . S
O1559 Li1498 1.970 1_655 S
O1559 Li1499 1.956 . S
O1559 C1534 1.325 . S
H1560 C1502 0.929 . S
H1561 C1503 0.930 . S
H1562 C1504 0.930 . S
H1563 C1505 0.930 . S
H1564 C1507 0.930 . S
H1565 C1509 0.929 . S
H1566 C1510 0.930 . S
H1567 C1511 0.930 . S
H1568 C1514 0.930 . S
H1569 C1517 0.929 . S
H1570 C1522 0.929 1_455 S
H1571 C1523 0.930 . S
H1572 C1530 0.929 . S
H1573 C1531 0.930 . S
H1574 C1532 0.930 . S
H1575 C1533 0.930 . S
H1576 C1535 0.929 . S
H1577 C1536 0.930 . S
H1578 C1537 0.930 . S
H1579 C1538 0.930 . S
H1580 C1542 0.929 . S
H1581 C1544 0.930 . S
H1582 C1550 0.929 . S
H1583 C1551 0.930 . S
C1584 C1585 1.560 . S
C1584 H1645 0.959 . S
C1584 H1646 0.959 . S
C1584 H1647 0.960 . S
C1585 C1584 1.560 . S
C1585 O1640 1.426 . S
C1585 H1644 0.980 . S
C1586 C1587 1.407 . S
C1586 C1591 1.418 . S
C1586 O1640 1.334 . S
C1587 C1586 1.407 . S
C1587 C1588 1.360 . S
C1587 H1648 0.929 . S
C1588 C1587 1.360 . S
C1588 C1589 1.401 . S
C1588 C1592 1.527 . S
C1589 C1588 1.401 . S
C1589 C1590 1.405 . S
C1589 C1622 1.587 . S
C1590 C1589 1.405 . S
C1590 C1591 1.332 . S
C1590 C1593 1.496 . S
C1591 C1586 1.418 . S
C1591 C1590 1.332 . S
C1591 H1649 0.929 . S
C1592 C1588 1.527 . S
C1592 H1650 0.959 . S
C1592 H1651 0.961 . S
C1592 H1652 0.961 . S
C1593 C1590 1.496 . S
C1593 H1653 0.960 . S
C1593 H1654 0.960 . S
C1593 H1655 0.961 . S
C1594 C1595 1.517 . S
C1594 H1657 0.961 . S
C1594 H1658 0.960 . S
C1594 H1659 0.959 . S
C1595 C1594 1.517 . S
C1595 O1643 1.468 . S
C1595 H1656 0.980 . S
C1596 C1597 1.349 . S
C1596 C1601 1.367 . S
C1596 O1643 1.408 . S
C1597 C1596 1.349 . S
C1597 C1598 1.407 . S
C1597 H1660 0.930 . S
C1598 C1597 1.407 . S
C1598 C1599 1.449 . S
C1598 C1602 1.535 . S
C1599 C1598 1.449 . S
C1599 C1600 1.384 . S
C1599 C1624 1.553 . S
C1600 C1599 1.384 . S
C1600 C1601 1.364 . S
C1600 C1603 1.450 . S
C1601 C1596 1.367 . S
C1601 C1600 1.364 . S
C1601 H1661 0.931 . S
C1602 C1598 1.535 . S
C1602 H1662 0.959 . S
C1602 H1663 0.961 . S
C1602 H1664 0.959 . S
C1603 C1600 1.450 . S
C1603 H1665 0.960 . S
C1603 H1666 0.960 . S
C1603 H1667 0.960 . S
C1604 C1605 1.309 . S
C1604 C1609 1.304 . S
C1604 O1642 1.435 . S
C1605 C1604 1.309 . S
C1605 C1606 1.476 . S
C1605 H1669 0.930 . S
C1606 C1605 1.476 . S
C1606 C1607 1.400 . S
C1606 C1610 1.567 . S
C1607 C1606 1.400 . S
C1607 C1608 1.373 . S
C1607 C1629 1.432 . S
C1608 C1607 1.373 . S
C1608 C1609 1.339 . S
C1608 C1611 1.530 . S
C1609 C1604 1.304 . S
C1609 C1608 1.339 . S
C1609 H1670 0.930 . S
C1610 C1606 1.567 . S
C1610 H1671 0.961 . S
C1610 H1672 0.960 . S
C1610 H1673 0.958 . S
C1611 C1608 1.530 . S
C1611 H1674 0.961 . S
C1611 H1675 0.960 . S
C1611 H1676 0.960 . S
C1612 C1613 1.530 . S
C1612 H1678 0.961 . S
C1612 H1679 0.961 . S
C1612 H1680 0.959 . S
C1613 C1612 1.530 . S
C1613 O1641 1.412 . S
C1613 H1677 0.980 . S
C1614 C1615 1.288 . S
C1614 C1619 1.377 . S
C1614 O1641 1.393 . S
C1615 C1614 1.288 . S
C1615 C1616 1.369 . S
C1615 H1681 0.932 . S
C1616 C1615 1.369 . S
C1616 C1617 1.398 . S
C1616 C1620 1.527 . S
C1617 C1616 1.398 . S
C1617 C1618 1.380 . S
C1617 C1631 1.497 . S
C1618 C1617 1.380 . S
C1618 C1619 1.383 . S
C1618 C1621 1.603 . S
C1619 C1614 1.377 . S
C1619 C1618 1.383 . S
C1619 H1682 0.929 . S
C1620 C1616 1.527 . S
C1620 H1683 0.961 . S
C1620 H1684 0.959 . S
C1620 H1685 0.959 . S
C1621 C1618 1.603 . S
C1621 H1686 0.960 . S
C1621 H1687 0.962 . S
C1621 H1688 0.961 . S
C1622 C1589 1.587 . S
C1622 C1623 1.360 . S
C1622 C1635 1.412 . S
C1623 C1622 1.360 . S
C1623 C1624 1.365 . S
C1623 H1689 0.929 . S
C1624 C1599 1.553 . S
C1624 C1623 1.365 . S
C1624 C1625 1.404 . S
C1625 C1624 1.404 . S
C1625 C1626 1.395 . S
C1625 C1636 1.451 . S
C1626 C1625 1.395 . S
C1626 C1627 1.322 . S
C1626 H1690 0.930 . S
C1627 C1626 1.322 . S
C1627 C1628 1.459 . S
C1627 H1691 0.929 . S
C1628 C1627 1.459 . S
C1628 C1629 1.445 . S
C1628 C1637 1.395 . S
C1629 C1607 1.432 . S
C1629 C1628 1.445 . S
C1629 C1630 1.370 . S
C1630 C1629 1.370 . S
C1630 C1631 1.438 . S
C1630 H1692 0.930 . S
C1631 C1617 1.497 . S
C1631 C1630 1.438 . S
C1631 C1632 1.360 . S
C1632 C1631 1.360 . S
C1632 C1633 1.401 . S
C1632 C1637 1.446 . S
C1633 C1632 1.401 . S
C1633 C1634 1.347 . S
C1633 H1693 0.929 . S
C1634 C1633 1.347 . S
C1634 C1635 1.455 . S
C1634 H1694 0.930 . S
C1635 C1622 1.412 . S
C1635 C1634 1.455 . S
C1635 C1636 1.331 . S
C1636 C1625 1.451 . S
C1636 C1635 1.331 . S
C1636 C1637 1.497 . S
C1637 C1628 1.395 . S
C1637 C1632 1.446 . S
C1637 C1636 1.497 . S
C1638 C1639 1.582 . S
C1638 H1695 0.962 . S
C1638 H1696 0.959 . S
C1638 H1697 0.958 . S
C1639 C1638 1.582 . S
C1639 O1642 1.458 . S
C1639 H1668 0.980 . S
O1640 C1585 1.426 . S
O1640 C1586 1.334 . S
O1641 C1613 1.412 . S
O1641 C1614 1.393 . S
O1642 C1604 1.435 . S
O1642 C1639 1.458 . S
O1643 C1595 1.468 . S
O1643 C1596 1.408 . S
H1644 C1585 0.980 . S
H1645 C1584 0.959 . S
H1646 C1584 0.959 . S
H1647 C1584 0.960 . S
H1648 C1587 0.929 . S
H1649 C1591 0.929 . S
H1650 C1592 0.959 . S
H1651 C1592 0.961 . S
H1652 C1592 0.961 . S
H1653 C1593 0.960 . S
H1654 C1593 0.960 . S
H1655 C1593 0.961 . S
H1656 C1595 0.980 . S
H1657 C1594 0.961 . S
H1658 C1594 0.960 . S
H1659 C1594 0.959 . S
H1660 C1597 0.930 . S
H1661 C1601 0.931 . S
H1662 C1602 0.959 . S
H1663 C1602 0.961 . S
H1664 C1602 0.959 . S
H1665 C1603 0.960 . S
H1666 C1603 0.960 . S
H1667 C1603 0.960 . S
H1668 C1639 0.980 . S
H1669 C1605 0.930 . S
H1670 C1609 0.930 . S
H1671 C1610 0.961 . S
H1672 C1610 0.960 . S
H1673 C1610 0.958 . S
H1674 C1611 0.961 . S
H1675 C1611 0.960 . S
H1676 C1611 0.960 . S
H1677 C1613 0.980 . S
H1678 C1612 0.961 . S
H1679 C1612 0.961 . S
H1680 C1612 0.959 . S
H1681 C1615 0.932 . S
H1682 C1619 0.929 . S
H1683 C1620 0.961 . S
H1684 C1620 0.959 . S
H1685 C1620 0.959 . S
H1686 C1621 0.960 . S
H1687 C1621 0.962 . S
H1688 C1621 0.961 . S
H1689 C1623 0.929 . S
H1690 C1626 0.930 . S
H1691 C1627 0.929 . S
H1692 C1630 0.930 . S
H1693 C1633 0.929 . S
H1694 C1634 0.930 . S
H1695 C1638 0.962 . S
H1696 C1638 0.959 . S
H1697 C1638 0.958 . S
C1698 C1699 1.560 . S
C1698 H1759 0.959 . S
C1698 H1760 0.959 . S
C1698 H1761 0.960 . S
C1699 C1698 1.560 . S
C1699 O1754 1.426 . S
C1699 H1758 0.980 . S
C1700 C1701 1.407 . S
C1700 C1705 1.418 . S
C1700 O1754 1.334 . S
C1701 C1700 1.407 . S
C1701 C1702 1.360 . S
C1701 H1762 0.929 . S
C1702 C1701 1.360 . S
C1702 C1703 1.401 . S
C1702 C1706 1.527 . S
C1703 C1702 1.401 . S
C1703 C1704 1.405 . S
C1703 C1736 1.587 . S
C1704 C1703 1.405 . S
C1704 C1705 1.332 . S
C1704 C1707 1.496 . S
C1705 C1700 1.418 . S
C1705 C1704 1.332 . S
C1705 H1763 0.929 . S
C1706 C1702 1.527 . S
C1706 H1764 0.959 . S
C1706 H1765 0.961 . S
C1706 H1766 0.961 . S
C1707 C1704 1.496 . S
C1707 H1767 0.960 . S
C1707 H1768 0.960 . S
C1707 H1769 0.961 . S
C1708 C1709 1.517 . S
C1708 H1771 0.961 . S
C1708 H1772 0.960 . S
C1708 H1773 0.959 . S
C1709 C1708 1.517 . S
C1709 O1757 1.468 . S
C1709 H1770 0.980 . S
C1710 C1711 1.349 . S
C1710 C1715 1.367 . S
C1710 O1757 1.408 . S
C1711 C1710 1.349 . S
C1711 C1712 1.407 . S
C1711 H1774 0.930 . S
C1712 C1711 1.407 . S
C1712 C1713 1.449 . S
C1712 C1716 1.535 . S
C1713 C1712 1.449 . S
C1713 C1714 1.384 . S
C1713 C1738 1.553 . S
C1714 C1713 1.384 . S
C1714 C1715 1.364 . S
C1714 C1717 1.450 . S
C1715 C1710 1.367 . S
C1715 C1714 1.364 . S
C1715 H1775 0.931 . S
C1716 C1712 1.535 . S
C1716 H1776 0.959 . S
C1716 H1777 0.961 . S
C1716 H1778 0.959 . S
C1717 C1714 1.450 . S
C1717 H1779 0.960 . S
C1717 H1780 0.960 . S
C1717 H1781 0.960 . S
C1718 C1719 1.309 . S
C1718 C1723 1.304 . S
C1718 O1756 1.435 . S
C1719 C1718 1.309 . S
C1719 C1720 1.476 . S
C1719 H1783 0.930 . S
C1720 C1719 1.476 . S
C1720 C1721 1.400 . S
C1720 C1724 1.567 . S
C1721 C1720 1.400 . S
C1721 C1722 1.373 . S
C1721 C1743 1.432 . S
C1722 C1721 1.373 . S
C1722 C1723 1.339 . S
C1722 C1725 1.530 . S
C1723 C1718 1.304 . S
C1723 C1722 1.339 . S
C1723 H1784 0.930 . S
C1724 C1720 1.567 . S
C1724 H1785 0.961 . S
C1724 H1786 0.960 . S
C1724 H1787 0.958 . S
C1725 C1722 1.530 . S
C1725 H1788 0.961 . S
C1725 H1789 0.960 . S
C1725 H1790 0.960 . S
C1726 C1727 1.530 . S
C1726 H1792 0.961 . S
C1726 H1793 0.961 . S
C1726 H1794 0.959 . S
C1727 C1726 1.530 . S
C1727 O1755 1.412 . S
C1727 H1791 0.980 . S
C1728 C1729 1.288 . S
C1728 C1733 1.377 . S
C1728 O1755 1.393 . S
C1729 C1728 1.288 . S
C1729 C1730 1.369 . S
C1729 H1795 0.932 . S
C1730 C1729 1.369 . S
C1730 C1731 1.398 . S
C1730 C1734 1.527 . S
C1731 C1730 1.398 . S
C1731 C1732 1.380 . S
C1731 C1745 1.497 . S
C1732 C1731 1.380 . S
C1732 C1733 1.383 . S
C1732 C1735 1.603 . S
C1733 C1728 1.377 . S
C1733 C1732 1.383 . S
C1733 H1796 0.929 . S
C1734 C1730 1.527 . S
C1734 H1797 0.961 . S
C1734 H1798 0.959 . S
C1734 H1799 0.959 . S
C1735 C1732 1.603 . S
C1735 H1800 0.960 . S
C1735 H1801 0.962 . S
C1735 H1802 0.961 . S
C1736 C1703 1.587 . S
C1736 C1737 1.360 . S
C1736 C1749 1.412 . S
C1737 C1736 1.360 . S
C1737 C1738 1.365 . S
C1737 H1803 0.929 . S
C1738 C1713 1.553 . S
C1738 C1737 1.365 . S
C1738 C1739 1.404 . S
C1739 C1738 1.404 . S
C1739 C1740 1.395 . S
C1739 C1750 1.451 . S
C1740 C1739 1.395 . S
C1740 C1741 1.322 . S
C1740 H1804 0.930 . S
C1741 C1740 1.322 . S
C1741 C1742 1.459 . S
C1741 H1805 0.929 . S
C1742 C1741 1.459 . S
C1742 C1743 1.445 . S
C1742 C1751 1.395 . S
C1743 C1721 1.432 . S
C1743 C1742 1.445 . S
C1743 C1744 1.370 . S
C1744 C1743 1.370 . S
C1744 C1745 1.438 . S
C1744 H1806 0.930 . S
C1745 C1731 1.497 . S
C1745 C1744 1.438 . S
C1745 C1746 1.360 . S
C1746 C1745 1.360 . S
C1746 C1747 1.401 . S
C1746 C1751 1.446 . S
C1747 C1746 1.401 . S
C1747 C1748 1.347 . S
C1747 H1807 0.929 . S
C1748 C1747 1.347 . S
C1748 C1749 1.455 . S
C1748 H1808 0.930 . S
C1749 C1736 1.412 . S
C1749 C1748 1.455 . S
C1749 C1750 1.331 . S
C1750 C1739 1.451 . S
C1750 C1749 1.331 . S
C1750 C1751 1.497 . S
C1751 C1742 1.395 . S
C1751 C1746 1.446 . S
C1751 C1750 1.497 . S
C1752 C1753 1.582 . S
C1752 H1809 0.962 . S
C1752 H1810 0.959 . S
C1752 H1811 0.958 . S
C1753 C1752 1.582 . S
C1753 O1756 1.458 . S
C1753 H1782 0.980 . S
O1754 C1699 1.426 . S
O1754 C1700 1.334 . S
O1755 C1727 1.412 . S
O1755 C1728 1.393 . S
O1756 C1718 1.435 . S
O1756 C1753 1.458 . S
O1757 C1709 1.468 . S
O1757 C1710 1.408 . S
H1758 C1699 0.980 . S
H1759 C1698 0.959 . S
H1760 C1698 0.959 . S
H1761 C1698 0.960 . S
H1762 C1701 0.929 . S
H1763 C1705 0.929 . S
H1764 C1706 0.959 . S
H1765 C1706 0.961 . S
H1766 C1706 0.961 . S
H1767 C1707 0.960 . S
H1768 C1707 0.960 . S
H1769 C1707 0.961 . S
H1770 C1709 0.980 . S
H1771 C1708 0.961 . S
H1772 C1708 0.960 . S
H1773 C1708 0.959 . S
H1774 C1711 0.930 . S
H1775 C1715 0.931 . S
H1776 C1716 0.959 . S
H1777 C1716 0.961 . S
H1778 C1716 0.959 . S
H1779 C1717 0.960 . S
H1780 C1717 0.960 . S
H1781 C1717 0.960 . S
H1782 C1753 0.980 . S
H1783 C1719 0.930 . S
H1784 C1723 0.930 . S
H1785 C1724 0.961 . S
H1786 C1724 0.960 . S
H1787 C1724 0.958 . S
H1788 C1725 0.961 . S
H1789 C1725 0.960 . S
H1790 C1725 0.960 . S
H1791 C1727 0.980 . S
H1792 C1726 0.961 . S
H1793 C1726 0.961 . S
H1794 C1726 0.959 . S
H1795 C1729 0.932 . S
H1796 C1733 0.929 . S
H1797 C1734 0.961 . S
H1798 C1734 0.959 . S
H1799 C1734 0.959 . S
H1800 C1735 0.960 . S
H1801 C1735 0.962 . S
H1802 C1735 0.961 . S
H1803 C1737 0.929 . S
H1804 C1740 0.930 . S
H1805 C1741 0.929 . S
H1806 C1744 0.930 . S
H1807 C1747 0.929 . S
H1808 C1748 0.930 . S
H1809 C1752 0.962 . S
H1810 C1752 0.959 . S
H1811 C1752 0.958 . S
C1812 C1813 1.560 . S
C1812 H1873 0.959 . S
C1812 H1874 0.959 . S
C1812 H1875 0.960 . S
C1813 C1812 1.560 . S
C1813 O1868 1.426 . S
C1813 H1872 0.980 . S
C1814 C1815 1.407 . S
C1814 C1819 1.418 . S
C1814 O1868 1.334 . S
C1815 C1814 1.407 . S
C1815 C1816 1.360 . S
C1815 H1876 0.929 . S
C1816 C1815 1.360 . S
C1816 C1817 1.401 . S
C1816 C1820 1.527 . S
C1817 C1816 1.401 . S
C1817 C1818 1.405 . S
C1817 C1850 1.587 . S
C1818 C1817 1.405 . S
C1818 C1819 1.332 . S
C1818 C1821 1.496 . S
C1819 C1814 1.418 . S
C1819 C1818 1.332 . S
C1819 H1877 0.929 . S
C1820 C1816 1.527 . S
C1820 H1878 0.959 . S
C1820 H1879 0.961 . S
C1820 H1880 0.961 . S
C1821 C1818 1.496 . S
C1821 H1881 0.960 . S
C1821 H1882 0.960 . S
C1821 H1883 0.961 . S
C1822 C1823 1.517 . S
C1822 H1885 0.961 . S
C1822 H1886 0.960 . S
C1822 H1887 0.959 . S
C1823 C1822 1.517 . S
C1823 O1871 1.468 . S
C1823 H1884 0.980 . S
C1824 C1825 1.349 . S
C1824 C1829 1.367 . S
C1824 O1871 1.408 . S
C1825 C1824 1.349 . S
C1825 C1826 1.407 . S
C1825 H1888 0.930 . S
C1826 C1825 1.407 . S
C1826 C1827 1.449 . S
C1826 C1830 1.535 . S
C1827 C1826 1.449 . S
C1827 C1828 1.384 . S
C1827 C1852 1.553 . S
C1828 C1827 1.384 . S
C1828 C1829 1.364 . S
C1828 C1831 1.450 . S
C1829 C1824 1.367 . S
C1829 C1828 1.364 . S
C1829 H1889 0.931 . S
C1830 C1826 1.535 . S
C1830 H1890 0.959 . S
C1830 H1891 0.961 . S
C1830 H1892 0.959 . S
C1831 C1828 1.450 . S
C1831 H1893 0.960 . S
C1831 H1894 0.960 . S
C1831 H1895 0.960 . S
C1832 C1833 1.309 . S
C1832 C1837 1.304 . S
C1832 O1870 1.435 . S
C1833 C1832 1.309 . S
C1833 C1834 1.476 . S
C1833 H1897 0.930 . S
C1834 C1833 1.476 . S
C1834 C1835 1.400 . S
C1834 C1838 1.567 . S
C1835 C1834 1.400 . S
C1835 C1836 1.373 . S
C1835 C1857 1.432 . S
C1836 C1835 1.373 . S
C1836 C1837 1.339 . S
C1836 C1839 1.530 . S
C1837 C1832 1.304 . S
C1837 C1836 1.339 . S
C1837 H1898 0.930 . S
C1838 C1834 1.567 . S
C1838 H1899 0.961 . S
C1838 H1900 0.960 . S
C1838 H1901 0.958 . S
C1839 C1836 1.530 . S
C1839 H1902 0.961 . S
C1839 H1903 0.960 . S
C1839 H1904 0.960 . S
C1840 C1841 1.530 . S
C1840 H1906 0.961 . S
C1840 H1907 0.961 . S
C1840 H1908 0.959 . S
C1841 C1840 1.530 . S
C1841 O1869 1.412 . S
C1841 H1905 0.980 . S
C1842 C1843 1.288 . S
C1842 C1847 1.377 . S
C1842 O1869 1.393 . S
C1843 C1842 1.288 . S
C1843 C1844 1.369 . S
C1843 H1909 0.932 . S
C1844 C1843 1.369 . S
C1844 C1845 1.398 . S
C1844 C1848 1.527 . S
C1845 C1844 1.398 . S
C1845 C1846 1.380 . S
C1845 C1859 1.497 . S
C1846 C1845 1.380 . S
C1846 C1847 1.383 . S
C1846 C1849 1.603 . S
C1847 C1842 1.377 . S
C1847 C1846 1.383 . S
C1847 H1910 0.929 . S
C1848 C1844 1.527 . S
C1848 H1911 0.961 . S
C1848 H1912 0.959 . S
C1848 H1913 0.959 . S
C1849 C1846 1.603 . S
C1849 H1914 0.960 . S
C1849 H1915 0.962 . S
C1849 H1916 0.961 . S
C1850 C1817 1.587 . S
C1850 C1851 1.360 . S
C1850 C1863 1.412 . S
C1851 C1850 1.360 . S
C1851 C1852 1.365 . S
C1851 H1917 0.929 . S
C1852 C1827 1.553 . S
C1852 C1851 1.365 . S
C1852 C1853 1.404 . S
C1853 C1852 1.404 . S
C1853 C1854 1.395 . S
C1853 C1864 1.451 . S
C1854 C1853 1.395 . S
C1854 C1855 1.322 . S
C1854 H1918 0.930 . S
C1855 C1854 1.322 . S
C1855 C1856 1.459 . S
C1855 H1919 0.929 . S
C1856 C1855 1.459 . S
C1856 C1857 1.445 . S
C1856 C1865 1.395 . S
C1857 C1835 1.432 . S
C1857 C1856 1.445 . S
C1857 C1858 1.370 . S
C1858 C1857 1.370 . S
C1858 C1859 1.438 . S
C1858 H1920 0.930 . S
C1859 C1845 1.497 . S
C1859 C1858 1.438 . S
C1859 C1860 1.360 . S
C1860 C1859 1.360 . S
C1860 C1861 1.401 . S
C1860 C1865 1.446 . S
C1861 C1860 1.401 . S
C1861 C1862 1.347 . S
C1861 H1921 0.929 . S
C1862 C1861 1.347 . S
C1862 C1863 1.455 . S
C1862 H1922 0.930 . S
C1863 C1850 1.412 . S
C1863 C1862 1.455 . S
C1863 C1864 1.331 . S
C1864 C1853 1.451 . S
C1864 C1863 1.331 . S
C1864 C1865 1.497 . S
C1865 C1856 1.395 . S
C1865 C1860 1.446 . S
C1865 C1864 1.497 . S
C1866 C1867 1.582 . S
C1866 H1923 0.962 . S
C1866 H1924 0.959 . S
C1866 H1925 0.958 . S
C1867 C1866 1.582 . S
C1867 O1870 1.458 . S
C1867 H1896 0.980 . S
O1868 C1813 1.426 . S
O1868 C1814 1.334 . S
O1869 C1841 1.412 . S
O1869 C1842 1.393 . S
O1870 C1832 1.435 . S
O1870 C1867 1.458 . S
O1871 C1823 1.468 . S
O1871 C1824 1.408 . S
H1872 C1813 0.980 . S
H1873 C1812 0.959 . S
H1874 C1812 0.959 . S
H1875 C1812 0.960 . S
H1876 C1815 0.929 . S
H1877 C1819 0.929 . S
H1878 C1820 0.959 . S
H1879 C1820 0.961 . S
H1880 C1820 0.961 . S
H1881 C1821 0.960 . S
H1882 C1821 0.960 . S
H1883 C1821 0.961 . S
H1884 C1823 0.980 . S
H1885 C1822 0.961 . S
H1886 C1822 0.960 . S
H1887 C1822 0.959 . S
H1888 C1825 0.930 . S
H1889 C1829 0.931 . S
H1890 C1830 0.959 . S
H1891 C1830 0.961 . S
H1892 C1830 0.959 . S
H1893 C1831 0.960 . S
H1894 C1831 0.960 . S
H1895 C1831 0.960 . S
H1896 C1867 0.980 . S
H1897 C1833 0.930 . S
H1898 C1837 0.930 . S
H1899 C1838 0.961 . S
H1900 C1838 0.960 . S
H1901 C1838 0.958 . S
H1902 C1839 0.961 . S
H1903 C1839 0.960 . S
H1904 C1839 0.960 . S
H1905 C1841 0.980 . S
H1906 C1840 0.961 . S
H1907 C1840 0.961 . S
H1908 C1840 0.959 . S
H1909 C1843 0.932 . S
H1910 C1847 0.929 . S
H1911 C1848 0.961 . S
H1912 C1848 0.959 . S
H1913 C1848 0.959 . S
H1914 C1849 0.960 . S
H1915 C1849 0.962 . S
H1916 C1849 0.961 . S
H1917 C1851 0.929 . S
H1918 C1854 0.930 . S
H1919 C1855 0.929 . S
H1920 C1858 0.930 . S
H1921 C1861 0.929 . S
H1922 C1862 0.930 . S
H1923 C1866 0.962 . S
H1924 C1866 0.959 . S
H1925 C1866 0.958 . S
C1926 C1927 1.560 . S
C1926 H1987 0.959 . S
C1926 H1988 0.959 . S
C1926 H1989 0.960 . S
C1927 C1926 1.560 . S
C1927 O1982 1.426 . S
C1927 H1986 0.980 . S
C1928 C1929 1.407 . S
C1928 C1933 1.418 . S
C1928 O1982 1.334 . S
C1929 C1928 1.407 . S
C1929 C1930 1.360 . S
C1929 H1990 0.929 . S
C1930 C1929 1.360 . S
C1930 C1931 1.401 . S
C1930 C1934 1.527 . S
C1931 C1930 1.401 . S
C1931 C1932 1.405 . S
C1931 C1964 1.587 . S
C1932 C1931 1.405 . S
C1932 C1933 1.332 . S
C1932 C1935 1.496 . S
C1933 C1928 1.418 . S
C1933 C1932 1.332 . S
C1933 H1991 0.929 . S
C1934 C1930 1.527 . S
C1934 H1992 0.959 . S
C1934 H1993 0.961 . S
C1934 H1994 0.961 . S
C1935 C1932 1.496 . S
C1935 H1995 0.960 . S
C1935 H1996 0.960 . S
C1935 H1997 0.961 . S
C1936 C1937 1.517 . S
C1936 H1999 0.961 . S
C1936 H2000 0.960 . S
C1936 H2001 0.959 . S
C1937 C1936 1.517 . S
C1937 O1985 1.468 . S
C1937 H1998 0.980 . S
C1938 C1939 1.349 . S
C1938 C1943 1.367 . S
C1938 O1985 1.408 . S
C1939 C1938 1.349 . S
C1939 C1940 1.407 . S
C1939 H2002 0.930 . S
C1940 C1939 1.407 . S
C1940 C1941 1.449 . S
C1940 C1944 1.535 . S
C1941 C1940 1.449 . S
C1941 C1942 1.384 . S
C1941 C1966 1.553 . S
C1942 C1941 1.384 . S
C1942 C1943 1.364 . S
C1942 C1945 1.450 . S
C1943 C1938 1.367 . S
C1943 C1942 1.364 . S
C1943 H2003 0.931 . S
C1944 C1940 1.535 . S
C1944 H2004 0.959 . S
C1944 H2005 0.961 . S
C1944 H2006 0.959 . S
C1945 C1942 1.450 . S
C1945 H2007 0.960 . S
C1945 H2008 0.960 . S
C1945 H2009 0.960 . S
C1946 C1947 1.309 . S
C1946 C1951 1.304 . S
C1946 O1984 1.435 . S
C1947 C1946 1.309 . S
C1947 C1948 1.476 . S
C1947 H2011 0.930 . S
C1948 C1947 1.476 . S
C1948 C1949 1.400 . S
C1948 C1952 1.567 . S
C1949 C1948 1.400 . S
C1949 C1950 1.373 . S
C1949 C1971 1.432 . S
C1950 C1949 1.373 . S
C1950 C1951 1.339 . S
C1950 C1953 1.530 . S
C1951 C1946 1.304 . S
C1951 C1950 1.339 . S
C1951 H2012 0.930 . S
C1952 C1948 1.567 . S
C1952 H2013 0.961 . S
C1952 H2014 0.960 . S
C1952 H2015 0.958 . S
C1953 C1950 1.530 . S
C1953 H2016 0.961 . S
C1953 H2017 0.960 . S
C1953 H2018 0.960 . S
C1954 C1955 1.530 . S
C1954 H2020 0.961 . S
C1954 H2021 0.961 . S
C1954 H2022 0.959 . S
C1955 C1954 1.530 . S
C1955 O1983 1.412 . S
C1955 H2019 0.980 . S
C1956 C1957 1.288 . S
C1956 C1961 1.377 . S
C1956 O1983 1.393 . S
C1957 C1956 1.288 . S
C1957 C1958 1.369 . S
C1957 H2023 0.932 . S
C1958 C1957 1.369 . S
C1958 C1959 1.398 . S
C1958 C1962 1.527 . S
C1959 C1958 1.398 . S
C1959 C1960 1.380 . S
C1959 C1973 1.497 . S
C1960 C1959 1.380 . S
C1960 C1961 1.383 . S
C1960 C1963 1.603 . S
C1961 C1956 1.377 . S
C1961 C1960 1.383 . S
C1961 H2024 0.929 . S
C1962 C1958 1.527 . S
C1962 H2025 0.961 . S
C1962 H2026 0.959 . S
C1962 H2027 0.959 . S
C1963 C1960 1.603 . S
C1963 H2028 0.960 . S
C1963 H2029 0.962 . S
C1963 H2030 0.961 . S
C1964 C1931 1.587 . S
C1964 C1965 1.360 . S
C1964 C1977 1.412 . S
C1965 C1964 1.360 . S
C1965 C1966 1.365 . S
C1965 H2031 0.929 . S
C1966 C1941 1.553 . S
C1966 C1965 1.365 . S
C1966 C1967 1.404 . S
C1967 C1966 1.404 . S
C1967 C1968 1.395 . S
C1967 C1978 1.451 . S
C1968 C1967 1.395 . S
C1968 C1969 1.322 . S
C1968 H2032 0.930 . S
C1969 C1968 1.322 . S
C1969 C1970 1.459 . S
C1969 H2033 0.929 . S
C1970 C1969 1.459 . S
C1970 C1971 1.445 . S
C1970 C1979 1.395 . S
C1971 C1949 1.432 . S
C1971 C1970 1.445 . S
C1971 C1972 1.370 . S
C1972 C1971 1.370 . S
C1972 C1973 1.438 . S
C1972 H2034 0.930 . S
C1973 C1959 1.497 . S
C1973 C1972 1.438 . S
C1973 C1974 1.360 . S
C1974 C1973 1.360 . S
C1974 C1975 1.401 . S
C1974 C1979 1.446 . S
C1975 C1974 1.401 . S
C1975 C1976 1.347 . S
C1975 H2035 0.929 . S
C1976 C1975 1.347 . S
C1976 C1977 1.455 . S
C1976 H2036 0.930 . S
C1977 C1964 1.412 . S
C1977 C1976 1.455 . S
C1977 C1978 1.331 . S
C1978 C1967 1.451 . S
C1978 C1977 1.331 . S
C1978 C1979 1.497 . S
C1979 C1970 1.395 . S
C1979 C1974 1.446 . S
C1979 C1978 1.497 . S
C1980 C1981 1.582 . S
C1980 H2037 0.962 . S
C1980 H2038 0.959 . S
C1980 H2039 0.958 . S
C1981 C1980 1.582 . S
C1981 O1984 1.458 . S
C1981 H2010 0.980 . S
O1982 C1927 1.426 . S
O1982 C1928 1.334 . S
O1983 C1955 1.412 . S
O1983 C1956 1.393 . S
O1984 C1946 1.435 . S
O1984 C1981 1.458 . S
O1985 C1937 1.468 . S
O1985 C1938 1.408 . S
H1986 C1927 0.980 . S
H1987 C1926 0.959 . S
H1988 C1926 0.959 . S
H1989 C1926 0.960 . S
H1990 C1929 0.929 . S
H1991 C1933 0.929 . S
H1992 C1934 0.959 . S
H1993 C1934 0.961 . S
H1994 C1934 0.961 . S
H1995 C1935 0.960 . S
H1996 C1935 0.960 . S
H1997 C1935 0.961 . S
H1998 C1937 0.980 . S
H1999 C1936 0.961 . S
H2000 C1936 0.960 . S
H2001 C1936 0.959 . S
H2002 C1939 0.930 . S
H2003 C1943 0.931 . S
H2004 C1944 0.959 . S
H2005 C1944 0.961 . S
H2006 C1944 0.959 . S
H2007 C1945 0.960 . S
H2008 C1945 0.960 . S
H2009 C1945 0.960 . S
H2010 C1981 0.980 . S
H2011 C1947 0.930 . S
H2012 C1951 0.930 . S
H2013 C1952 0.961 . S
H2014 C1952 0.960 . S
H2015 C1952 0.958 . S
H2016 C1953 0.961 . S
H2017 C1953 0.960 . S
H2018 C1953 0.960 . S
H2019 C1955 0.980 . S
H2020 C1954 0.961 . S
H2021 C1954 0.961 . S
H2022 C1954 0.959 . S
H2023 C1957 0.932 . S
H2024 C1961 0.929 . S
H2025 C1962 0.961 . S
H2026 C1962 0.959 . S
H2027 C1962 0.959 . S
H2028 C1963 0.960 . S
H2029 C1963 0.962 . S
H2030 C1963 0.961 . S
H2031 C1965 0.929 . S
H2032 C1968 0.930 . S
H2033 C1969 0.929 . S
H2034 C1972 0.930 . S
H2035 C1975 0.929 . S
H2036 C1976 0.930 . S
H2037 C1980 0.962 . S
H2038 C1980 0.959 . S
H2039 C1980 0.958 . S
C2040 C2041 1.560 . S
C2040 H2101 0.959 . S
C2040 H2102 0.959 . S
C2040 H2103 0.960 1_556 S
C2041 C2040 1.560 . S
C2041 O2096 1.426 . S
C2041 H2100 0.980 . S
C2042 C2043 1.407 . S
C2042 C2047 1.418 . S
C2042 O2096 1.334 . S
C2043 C2042 1.407 . S
C2043 C2044 1.360 . S
C2043 H2104 0.929 . S
C2044 C2043 1.360 . S
C2044 C2045 1.401 . S
C2044 C2048 1.527 . S
C2045 C2044 1.401 . S
C2045 C2046 1.405 . S
C2045 C2078 1.587 . S
C2046 C2045 1.405 . S
C2046 C2047 1.332 . S
C2046 C2049 1.496 . S
C2047 C2042 1.418 . S
C2047 C2046 1.332 . S
C2047 H2105 0.929 . S
C2048 C2044 1.527 . S
C2048 H2106 0.959 . S
C2048 H2107 0.961 . S
C2048 H2108 0.961 . S
C2049 C2046 1.496 . S
C2049 H2109 0.960 . S
C2049 H2110 0.960 . S
C2049 H2111 0.961 . S
C2050 C2051 1.517 . S
C2050 H2113 0.961 . S
C2050 H2114 0.960 . S
C2050 H2115 0.959 . S
C2051 C2050 1.517 . S
C2051 O2099 1.468 . S
C2051 H2112 0.980 . S
C2052 C2053 1.349 . S
C2052 C2057 1.367 . S
C2052 O2099 1.408 . S
C2053 C2052 1.349 . S
C2053 C2054 1.407 . S
C2053 H2116 0.930 . S
C2054 C2053 1.407 . S
C2054 C2055 1.449 . S
C2054 C2058 1.535 . S
C2055 C2054 1.449 . S
C2055 C2056 1.384 . S
C2055 C2080 1.553 . S
C2056 C2055 1.384 . S
C2056 C2057 1.364 . S
C2056 C2059 1.450 . S
C2057 C2052 1.367 . S
C2057 C2056 1.364 . S
C2057 H2117 0.931 . S
C2058 C2054 1.535 . S
C2058 H2118 0.959 . S
C2058 H2119 0.961 . S
C2058 H2120 0.959 . S
C2059 C2056 1.450 . S
C2059 H2121 0.960 . S
C2059 H2122 0.960 . S
C2059 H2123 0.960 . S
C2060 C2061 1.309 . S
C2060 C2065 1.304 . S
C2060 O2098 1.435 . S
C2061 C2060 1.309 . S
C2061 C2062 1.476 . S
C2061 H2125 0.930 . S
C2062 C2061 1.476 . S
C2062 C2063 1.400 . S
C2062 C2066 1.567 . S
C2063 C2062 1.400 . S
C2063 C2064 1.373 . S
C2063 C2085 1.432 . S
C2064 C2063 1.373 . S
C2064 C2065 1.339 . S
C2064 C2067 1.530 . S
C2065 C2060 1.304 . S
C2065 C2064 1.339 . S
C2065 H2126 0.930 . S
C2066 C2062 1.567 . S
C2066 H2127 0.961 . S
C2066 H2128 0.960 . S
C2066 H2129 0.958 . S
C2067 C2064 1.530 . S
C2067 H2130 0.961 . S
C2067 H2131 0.960 . S
C2067 H2132 0.960 . S
C2068 C2069 1.530 . S
C2068 H2134 0.961 . S
C2068 H2135 0.961 . S
C2068 H2136 0.959 . S
C2069 C2068 1.530 . S
C2069 O2097 1.412 . S
C2069 H2133 0.980 . S
C2070 C2071 1.288 . S
C2070 C2075 1.377 . S
C2070 O2097 1.393 . S
C2071 C2070 1.288 . S
C2071 C2072 1.369 . S
C2071 H2137 0.932 . S
C2072 C2071 1.369 . S
C2072 C2073 1.398 . S
C2072 C2076 1.527 . S
C2073 C2072 1.398 . S
C2073 C2074 1.380 . S
C2073 C2087 1.497 . S
C2074 C2073 1.380 . S
C2074 C2075 1.383 . S
C2074 C2077 1.603 . S
C2075 C2070 1.377 . S
C2075 C2074 1.383 . S
C2075 H2138 0.929 . S
C2076 C2072 1.527 . S
C2076 H2139 0.961 . S
C2076 H2140 0.959 . S
C2076 H2141 0.959 . S
C2077 C2074 1.603 . S
C2077 H2142 0.960 . S
C2077 H2143 0.962 . S
C2077 H2144 0.961 . S
C2078 C2045 1.587 . S
C2078 C2079 1.360 . S
C2078 C2091 1.412 . S
C2079 C2078 1.360 . S
C2079 C2080 1.365 . S
C2079 H2145 0.929 . S
C2080 C2055 1.553 . S
C2080 C2079 1.365 . S
C2080 C2081 1.404 . S
C2081 C2080 1.404 . S
C2081 C2082 1.395 . S
C2081 C2092 1.451 . S
C2082 C2081 1.395 . S
C2082 C2083 1.322 . S
C2082 H2146 0.930 . S
C2083 C2082 1.322 . S
C2083 C2084 1.459 . S
C2083 H2147 0.929 . S
C2084 C2083 1.459 . S
C2084 C2085 1.445 . S
C2084 C2093 1.395 . S
C2085 C2063 1.432 . S
C2085 C2084 1.445 . S
C2085 C2086 1.370 . S
C2086 C2085 1.370 . S
C2086 C2087 1.438 . S
C2086 H2148 0.930 . S
C2087 C2073 1.497 . S
C2087 C2086 1.438 . S
C2087 C2088 1.360 . S
C2088 C2087 1.360 . S
C2088 C2089 1.401 . S
C2088 C2093 1.446 . S
C2089 C2088 1.401 . S
C2089 C2090 1.347 . S
C2089 H2149 0.929 . S
C2090 C2089 1.347 . S
C2090 C2091 1.455 . S
C2090 H2150 0.930 . S
C2091 C2078 1.412 . S
C2091 C2090 1.455 . S
C2091 C2092 1.331 . S
C2092 C2081 1.451 . S
C2092 C2091 1.331 . S
C2092 C2093 1.497 . S
C2093 C2084 1.395 . S
C2093 C2088 1.446 . S
C2093 C2092 1.497 . S
C2094 C2095 1.582 . S
C2094 H2151 0.962 . S
C2094 H2152 0.959 . S
C2094 H2153 0.958 . S
C2095 C2094 1.582 . S
C2095 O2098 1.458 . S
C2095 H2124 0.980 . S
O2096 C2041 1.426 . S
O2096 C2042 1.334 . S
O2097 C2069 1.412 . S
O2097 C2070 1.393 . S
O2098 C2060 1.435 . S
O2098 C2095 1.458 . S
O2099 C2051 1.468 . S
O2099 C2052 1.408 . S
H2100 C2041 0.980 . S
H2101 C2040 0.959 . S
H2102 C2040 0.959 . S
H2103 C2040 0.960 1_554 S
H2104 C2043 0.929 . S
H2105 C2047 0.929 . S
H2106 C2048 0.959 . S
H2107 C2048 0.961 . S
H2108 C2048 0.961 . S
H2109 C2049 0.960 . S
H2110 C2049 0.960 . S
H2111 C2049 0.961 . S
H2112 C2051 0.980 . S
H2113 C2050 0.961 . S
H2114 C2050 0.960 . S
H2115 C2050 0.959 . S
H2116 C2053 0.930 . S
H2117 C2057 0.931 . S
H2118 C2058 0.959 . S
H2119 C2058 0.961 . S
H2120 C2058 0.959 . S
H2121 C2059 0.960 . S
H2122 C2059 0.960 . S
H2123 C2059 0.960 . S
H2124 C2095 0.980 . S
H2125 C2061 0.930 . S
H2126 C2065 0.930 . S
H2127 C2066 0.961 . S
H2128 C2066 0.960 . S
H2129 C2066 0.958 . S
H2130 C2067 0.961 . S
H2131 C2067 0.960 . S
H2132 C2067 0.960 . S
H2133 C2069 0.980 . S
H2134 C2068 0.961 . S
H2135 C2068 0.961 . S
H2136 C2068 0.959 . S
H2137 C2071 0.932 . S
H2138 C2075 0.929 . S
H2139 C2076 0.961 . S
H2140 C2076 0.959 . S
H2141 C2076 0.959 . S
H2142 C2077 0.960 . S
H2143 C2077 0.962 . S
H2144 C2077 0.961 . S
H2145 C2079 0.929 . S
H2146 C2082 0.930 . S
H2147 C2083 0.929 . S
H2148 C2086 0.930 . S
H2149 C2089 0.929 . S
H2150 C2090 0.930 . S
H2151 C2094 0.962 . S
H2152 C2094 0.959 . S
H2153 C2094 0.958 . S
C2154 C2155 1.560 . S
C2154 H2215 0.949 1_556 S
C2154 H2216 0.959 . S
C2154 H2217 0.960 1_556 S
C2155 C2154 1.560 . S
C2155 O2210 1.426 . S
C2155 H2214 0.980 . S
C2156 C2157 1.407 . S
C2156 C2161 1.418 . S
C2156 O2210 1.334 . S
C2157 C2156 1.407 . S
C2157 C2158 1.360 . S
C2157 H2218 0.929 . S
C2158 C2157 1.360 . S
C2158 C2159 1.401 . S
C2158 C2162 1.527 . S
C2159 C2158 1.401 . S
C2159 C2160 1.405 . S
C2159 C2192 1.587 . S
C2160 C2159 1.405 . S
C2160 C2161 1.332 . S
C2160 C2163 1.496 . S
C2161 C2156 1.418 . S
C2161 C2160 1.332 . S
C2161 H2219 0.929 . S
C2162 C2158 1.527 . S
C2162 H2220 0.959 . S
C2162 H2221 0.961 . S
C2162 H2222 0.961 . S
C2163 C2160 1.496 . S
C2163 H2223 0.960 . S
C2163 H2224 0.960 . S
C2163 H2225 0.961 . S
C2164 C2165 1.517 . S
C2164 H2227 0.961 . S
C2164 H2228 0.960 . S
C2164 H2229 0.959 . S
C2165 C2164 1.517 . S
C2165 O2213 1.468 . S
C2165 H2226 0.980 . S
C2166 C2167 1.349 . S
C2166 C2171 1.367 . S
C2166 O2213 1.408 . S
C2167 C2166 1.349 . S
C2167 C2168 1.407 . S
C2167 H2230 0.930 . S
C2168 C2167 1.407 . S
C2168 C2169 1.449 . S
C2168 C2172 1.535 . S
C2169 C2168 1.449 . S
C2169 C2170 1.384 . S
C2169 C2194 1.553 . S
C2170 C2169 1.384 . S
C2170 C2171 1.364 . S
C2170 C2173 1.450 . S
C2171 C2166 1.367 . S
C2171 C2170 1.364 . S
C2171 H2231 0.931 . S
C2172 C2168 1.535 . S
C2172 H2232 0.959 . S
C2172 H2233 0.961 . S
C2172 H2234 0.959 . S
C2173 C2170 1.450 . S
C2173 H2235 0.960 . S
C2173 H2236 0.960 . S
C2173 H2237 0.960 . S
C2174 C2175 1.309 . S
C2174 C2179 1.304 . S
C2174 O2212 1.435 . S
C2175 C2174 1.309 . S
C2175 C2176 1.476 . S
C2175 H2239 0.930 . S
C2176 C2175 1.476 . S
C2176 C2177 1.400 . S
C2176 C2180 1.567 . S
C2177 C2176 1.400 . S
C2177 C2178 1.373 . S
C2177 C2199 1.432 . S
C2178 C2177 1.373 . S
C2178 C2179 1.339 . S
C2178 C2181 1.530 . S
C2179 C2174 1.304 . S
C2179 C2178 1.339 . S
C2179 H2240 0.930 . S
C2180 C2176 1.567 . S
C2180 H2241 0.961 . S
C2180 H2242 0.960 . S
C2180 H2243 0.958 . S
C2181 C2178 1.530 . S
C2181 H2244 0.961 . S
C2181 H2245 0.960 . S
C2181 H2246 0.960 . S
C2182 C2183 1.530 . S
C2182 H2248 0.961 . S
C2182 H2249 0.961 . S
C2182 H2250 0.959 . S
C2183 C2182 1.530 . S
C2183 O2211 1.412 . S
C2183 H2247 0.980 . S
C2184 C2185 1.288 . S
C2184 C2189 1.377 . S
C2184 O2211 1.393 . S
C2185 C2184 1.288 . S
C2185 C2186 1.369 . S
C2185 H2251 0.932 . S
C2186 C2185 1.369 . S
C2186 C2187 1.398 . S
C2186 C2190 1.527 . S
C2187 C2186 1.398 . S
C2187 C2188 1.380 . S
C2187 C2201 1.497 . S
C2188 C2187 1.380 . S
C2188 C2189 1.383 . S
C2188 C2191 1.603 . S
C2189 C2184 1.377 . S
C2189 C2188 1.383 . S
C2189 H2252 0.929 . S
C2190 C2186 1.527 . S
C2190 H2253 0.961 . S
C2190 H2254 0.959 . S
C2190 H2255 0.959 . S
C2191 C2188 1.603 . S
C2191 H2256 0.960 . S
C2191 H2257 0.962 . S
C2191 H2258 0.961 . S
C2192 C2159 1.587 . S
C2192 C2193 1.360 . S
C2192 C2205 1.412 . S
C2193 C2192 1.360 . S
C2193 C2194 1.365 . S
C2193 H2259 0.929 . S
C2194 C2169 1.553 . S
C2194 C2193 1.365 . S
C2194 C2195 1.404 . S
C2195 C2194 1.404 . S
C2195 C2196 1.395 . S
C2195 C2206 1.451 . S
C2196 C2195 1.395 . S
C2196 C2197 1.322 . S
C2196 H2260 0.930 . S
C2197 C2196 1.322 . S
C2197 C2198 1.459 . S
C2197 H2261 0.929 . S
C2198 C2197 1.459 . S
C2198 C2199 1.445 . S
C2198 C2207 1.395 . S
C2199 C2177 1.432 . S
C2199 C2198 1.445 . S
C2199 C2200 1.370 . S
C2200 C2199 1.370 . S
C2200 C2201 1.438 . S
C2200 H2262 0.930 . S
C2201 C2187 1.497 . S
C2201 C2200 1.438 . S
C2201 C2202 1.360 . S
C2202 C2201 1.360 . S
C2202 C2203 1.401 . S
C2202 C2207 1.446 . S
C2203 C2202 1.401 . S
C2203 C2204 1.347 . S
C2203 H2263 0.929 . S
C2204 C2203 1.347 . S
C2204 C2205 1.455 . S
C2204 H2264 0.930 . S
C2205 C2192 1.412 . S
C2205 C2204 1.455 . S
C2205 C2206 1.331 . S
C2206 C2195 1.451 . S
C2206 C2205 1.331 . S
C2206 C2207 1.497 . S
C2207 C2198 1.395 . S
C2207 C2202 1.446 . S
C2207 C2206 1.497 . S
C2208 C2209 1.582 . S
C2208 H2265 0.962 . S
C2208 H2266 0.959 . S
C2208 H2267 0.958 . S
C2209 C2208 1.582 . S
C2209 O2212 1.458 . S
C2209 H2238 0.980 . S
O2210 C2155 1.426 . S
O2210 C2156 1.334 . S
O2211 C2183 1.412 . S
O2211 C2184 1.393 . S
O2212 C2174 1.435 . S
O2212 C2209 1.458 . S
O2213 C2165 1.468 . S
O2213 C2166 1.408 . S
H2214 C2155 0.980 . S
H2215 C2154 0.949 1_554 S
H2216 C2154 0.959 . S
H2217 C2154 0.960 1_554 S
H2218 C2157 0.929 . S
H2219 C2161 0.929 . S
H2220 C2162 0.959 . S
H2221 C2162 0.961 . S
H2222 C2162 0.961 . S
H2223 C2163 0.960 . S
H2224 C2163 0.960 . S
H2225 C2163 0.961 . S
H2226 C2165 0.980 . S
H2227 C2164 0.961 . S
H2228 C2164 0.960 . S
H2229 C2164 0.959 . S
H2230 C2167 0.930 . S
H2231 C2171 0.931 . S
H2232 C2172 0.959 . S
H2233 C2172 0.961 . S
H2234 C2172 0.959 . S
H2235 C2173 0.960 . S
H2236 C2173 0.960 . S
H2237 C2173 0.960 . S
H2238 C2209 0.980 . S
H2239 C2175 0.930 . S
H2240 C2179 0.930 . S
H2241 C2180 0.961 . S
H2242 C2180 0.960 . S
H2243 C2180 0.958 . S
H2244 C2181 0.961 . S
H2245 C2181 0.960 . S
H2246 C2181 0.960 . S
H2247 C2183 0.980 . S
H2248 C2182 0.961 . S
H2249 C2182 0.961 . S
H2250 C2182 0.959 . S
H2251 C2185 0.932 . S
H2252 C2189 0.929 . S
H2253 C2190 0.961 . S
H2254 C2190 0.959 . S
H2255 C2190 0.959 . S
H2256 C2191 0.960 . S
H2257 C2191 0.962 . S
H2258 C2191 0.961 . S
H2259 C2193 0.929 . S
H2260 C2196 0.930 . S
H2261 C2197 0.929 . S
H2262 C2200 0.930 . S
H2263 C2203 0.929 . S
H2264 C2204 0.930 . S
H2265 C2208 0.962 . S
H2266 C2208 0.959 . S
H2267 C2208 0.958 . S
C2268 C2269 1.560 . S
C2268 H2329 0.959 . S
C2268 H2330 0.959 . S
C2268 H2331 0.960 . S
C2269 C2268 1.560 . S
C2269 O2324 1.426 . S
C2269 H2328 0.980 . S
C2270 C2271 1.407 . S
C2270 C2275 1.418 . S
C2270 O2324 1.334 . S
C2271 C2270 1.407 . S
C2271 C2272 1.360 . S
C2271 H2332 0.929 . S
C2272 C2271 1.360 . S
C2272 C2273 1.401 . S
C2272 C2276 1.527 . S
C2273 C2272 1.401 . S
C2273 C2274 1.405 . S
C2273 C2306 1.587 . S
C2274 C2273 1.405 . S
C2274 C2275 1.332 . S
C2274 C2277 1.496 . S
C2275 C2270 1.418 . S
C2275 C2274 1.332 . S
C2275 H2333 0.929 . S
C2276 C2272 1.527 . S
C2276 H2334 0.959 . S
C2276 H2335 0.961 . S
C2276 H2336 0.961 . S
C2277 C2274 1.496 . S
C2277 H2337 0.960 . S
C2277 H2338 0.960 . S
C2277 H2339 0.961 . S
C2278 C2279 1.517 . S
C2278 H2341 0.961 . S
C2278 H2342 0.960 . S
C2278 H2343 0.959 . S
C2279 C2278 1.517 . S
C2279 O2327 1.468 . S
C2279 H2340 0.980 . S
C2280 C2281 1.349 . S
C2280 C2285 1.367 . S
C2280 O2327 1.408 . S
C2281 C2280 1.349 . S
C2281 C2282 1.407 . S
C2281 H2344 0.930 . S
C2282 C2281 1.407 . S
C2282 C2283 1.449 . S
C2282 C2286 1.535 . S
C2283 C2282 1.449 . S
C2283 C2284 1.384 . S
C2283 C2308 1.553 . S
C2284 C2283 1.384 . S
C2284 C2285 1.364 . S
C2284 C2287 1.450 . S
C2285 C2280 1.367 . S
C2285 C2284 1.364 . S
C2285 H2345 0.931 . S
C2286 C2282 1.535 . S
C2286 H2346 0.959 . S
C2286 H2347 0.961 . S
C2286 H2348 0.959 . S
C2287 C2284 1.450 . S
C2287 H2349 0.960 . S
C2287 H2350 0.960 . S
C2287 H2351 0.960 . S
C2288 C2289 1.309 . S
C2288 C2293 1.304 . S
C2288 O2326 1.435 . S
C2289 C2288 1.309 . S
C2289 C2290 1.476 . S
C2289 H2353 0.930 . S
C2290 C2289 1.476 . S
C2290 C2291 1.400 . S
C2290 C2294 1.567 . S
C2291 C2290 1.400 . S
C2291 C2292 1.373 . S
C2291 C2313 1.432 . S
C2292 C2291 1.373 . S
C2292 C2293 1.339 . S
C2292 C2295 1.530 . S
C2293 C2288 1.304 . S
C2293 C2292 1.339 . S
C2293 H2354 0.930 . S
C2294 C2290 1.567 . S
C2294 H2355 0.961 . S
C2294 H2356 0.960 . S
C2294 H2357 0.958 . S
C2295 C2292 1.530 . S
C2295 H2358 0.961 . S
C2295 H2359 0.960 . S
C2295 H2360 0.960 . S
C2296 C2297 1.530 . S
C2296 H2362 0.961 . S
C2296 H2363 0.961 . S
C2296 H2364 0.959 . S
C2297 C2296 1.530 . S
C2297 O2325 1.412 . S
C2297 H2361 0.980 . S
C2298 C2299 1.288 . S
C2298 C2303 1.377 . S
C2298 O2325 1.393 . S
C2299 C2298 1.288 . S
C2299 C2300 1.369 . S
C2299 H2365 0.932 . S
C2300 C2299 1.369 . S
C2300 C2301 1.398 . S
C2300 C2304 1.527 . S
C2301 C2300 1.398 . S
C2301 C2302 1.380 . S
C2301 C2315 1.497 . S
C2302 C2301 1.380 . S
C2302 C2303 1.383 . S
C2302 C2305 1.603 . S
C2303 C2298 1.377 . S
C2303 C2302 1.383 . S
C2303 H2366 0.929 . S
C2304 C2300 1.527 . S
C2304 H2367 0.961 . S
C2304 H2368 0.959 . S
C2304 H2369 0.959 . S
C2305 C2302 1.603 . S
C2305 H2370 0.960 . S
C2305 H2371 0.962 . S
C2305 H2372 0.961 . S
C2306 C2273 1.587 . S
C2306 C2307 1.360 . S
C2306 C2319 1.412 . S
C2307 C2306 1.360 . S
C2307 C2308 1.365 . S
C2307 H2373 0.929 . S
C2308 C2283 1.553 . S
C2308 C2307 1.365 . S
C2308 C2309 1.404 . S
C2309 C2308 1.404 . S
C2309 C2310 1.395 . S
C2309 C2320 1.451 . S
C2310 C2309 1.395 . S
C2310 C2311 1.322 . S
C2310 H2374 0.930 . S
C2311 C2310 1.322 . S
C2311 C2312 1.459 . S
C2311 H2375 0.929 . S
C2312 C2311 1.459 . S
C2312 C2313 1.445 . S
C2312 C2321 1.395 . S
C2313 C2291 1.432 . S
C2313 C2312 1.445 . S
C2313 C2314 1.370 . S
C2314 C2313 1.370 . S
C2314 C2315 1.438 . S
C2314 H2376 0.930 . S
C2315 C2301 1.497 . S
C2315 C2314 1.438 . S
C2315 C2316 1.360 . S
C2316 C2315 1.360 . S
C2316 C2317 1.401 . S
C2316 C2321 1.446 . S
C2317 C2316 1.401 . S
C2317 C2318 1.347 . S
C2317 H2377 0.929 . S
C2318 C2317 1.347 . S
C2318 C2319 1.455 . S
C2318 H2378 0.930 . S
C2319 C2306 1.412 . S
C2319 C2318 1.455 . S
C2319 C2320 1.331 . S
C2320 C2309 1.451 . S
C2320 C2319 1.331 . S
C2320 C2321 1.497 . S
C2321 C2312 1.395 . S
C2321 C2316 1.446 . S
C2321 C2320 1.497 . S
C2322 C2323 1.582 . S
C2322 H2379 0.962 . S
C2322 H2380 0.959 . S
C2322 H2381 0.958 . S
C2323 C2322 1.582 . S
C2323 O2326 1.458 . S
C2323 H2352 0.980 . S
O2324 C2269 1.426 . S
O2324 C2270 1.334 . S
O2325 C2297 1.412 . S
O2325 C2298 1.393 . S
O2326 C2288 1.435 . S
O2326 C2323 1.458 . S
O2327 C2279 1.468 . S
O2327 C2280 1.408 . S
H2328 C2269 0.980 . S
H2329 C2268 0.959 . S
H2330 C2268 0.959 . S
H2331 C2268 0.960 . S
H2332 C2271 0.929 . S
H2333 C2275 0.929 . S
H2334 C2276 0.959 . S
H2335 C2276 0.961 . S
H2336 C2276 0.961 . S
H2337 C2277 0.960 . S
H2338 C2277 0.960 . S
H2339 C2277 0.961 . S
H2340 C2279 0.980 . S
H2341 C2278 0.961 . S
H2342 C2278 0.960 . S
H2343 C2278 0.959 . S
H2344 C2281 0.930 . S
H2345 C2285 0.931 . S
H2346 C2286 0.959 . S
H2347 C2286 0.961 . S
H2348 C2286 0.959 . S
H2349 C2287 0.960 . S
H2350 C2287 0.960 . S
H2351 C2287 0.960 . S
H2352 C2323 0.980 . S
H2353 C2289 0.930 . S
H2354 C2293 0.930 . S
H2355 C2294 0.961 . S
H2356 C2294 0.960 . S
H2357 C2294 0.958 . S
H2358 C2295 0.961 . S
H2359 C2295 0.960 . S
H2360 C2295 0.960 . S
H2361 C2297 0.980 . S
H2362 C2296 0.961 . S
H2363 C2296 0.961 . S
H2364 C2296 0.959 . S
H2365 C2299 0.932 . S
H2366 C2303 0.929 . S
H2367 C2304 0.961 . S
H2368 C2304 0.959 . S
H2369 C2304 0.959 . S
H2370 C2305 0.960 . S
H2371 C2305 0.962 . S
H2372 C2305 0.961 . S
H2373 C2307 0.929 . S
H2374 C2310 0.930 . S
H2375 C2311 0.929 . S
H2376 C2314 0.930 . S
H2377 C2317 0.929 . S
H2378 C2318 0.930 . S
H2379 C2322 0.962 . S
H2380 C2322 0.959 . S
H2381 C2322 0.958 . S
C2382 C2383 1.560 . S
C2382 H2443 0.959 . S
C2382 H2444 0.959 . S
C2382 H2445 0.960 . S
C2383 C2382 1.560 . S
C2383 O2438 1.426 . S
C2383 H2442 0.980 . S
C2384 C2385 1.407 . S
C2384 C2389 1.418 . S
C2384 O2438 1.334 . S
C2385 C2384 1.407 . S
C2385 C2386 1.360 . S
C2385 H2446 0.929 . S
C2386 C2385 1.360 . S
C2386 C2387 1.401 . S
C2386 C2390 1.527 . S
C2387 C2386 1.401 . S
C2387 C2388 1.405 . S
C2387 C2420 1.587 . S
C2388 C2387 1.405 . S
C2388 C2389 1.332 . S
C2388 C2391 1.496 . S
C2389 C2384 1.418 . S
C2389 C2388 1.332 . S
C2389 H2447 0.929 . S
C2390 C2386 1.527 . S
C2390 H2448 0.959 . S
C2390 H2449 0.961 . S
C2390 H2450 0.961 . S
C2391 C2388 1.496 . S
C2391 H2451 0.960 . S
C2391 H2452 0.960 . S
C2391 H2453 0.961 . S
C2392 C2393 1.517 . S
C2392 H2455 0.961 . S
C2392 H2456 0.960 . S
C2392 H2457 0.959 . S
C2393 C2392 1.517 . S
C2393 O2441 1.468 . S
C2393 H2454 0.980 . S
C2394 C2395 1.349 . S
C2394 C2399 1.367 . S
C2394 O2441 1.408 . S
C2395 C2394 1.349 . S
C2395 C2396 1.407 . S
C2395 H2458 0.930 . S
C2396 C2395 1.407 . S
C2396 C2397 1.449 . S
C2396 C2400 1.535 . S
C2397 C2396 1.449 . S
C2397 C2398 1.384 . S
C2397 C2422 1.553 . S
C2398 C2397 1.384 . S
C2398 C2399 1.364 . S
C2398 C2401 1.450 . S
C2399 C2394 1.367 . S
C2399 C2398 1.364 . S
C2399 H2459 0.931 . S
C2400 C2396 1.535 . S
C2400 H2460 0.959 . S
C2400 H2461 0.961 . S
C2400 H2462 0.959 . S
C2401 C2398 1.450 . S
C2401 H2463 0.960 . S
C2401 H2464 0.960 . S
C2401 H2465 0.960 . S
C2402 C2403 1.309 . S
C2402 C2407 1.304 . S
C2402 O2440 1.435 . S
C2403 C2402 1.309 . S
C2403 C2404 1.476 . S
C2403 H2467 0.930 . S
C2404 C2403 1.476 . S
C2404 C2405 1.400 . S
C2404 C2408 1.567 . S
C2405 C2404 1.400 . S
C2405 C2406 1.373 . S
C2405 C2427 1.432 . S
C2406 C2405 1.373 . S
C2406 C2407 1.339 . S
C2406 C2409 1.530 . S
C2407 C2402 1.304 . S
C2407 C2406 1.339 . S
C2407 H2468 0.930 . S
C2408 C2404 1.567 . S
C2408 H2469 0.961 . S
C2408 H2470 0.960 . S
C2408 H2471 0.958 . S
C2409 C2406 1.530 . S
C2409 H2472 0.961 . S
C2409 H2473 0.960 . S
C2409 H2474 0.960 . S
C2410 C2411 1.530 . S
C2410 H2476 0.961 . S
C2410 H2477 0.961 . S
C2410 H2478 0.959 . S
C2411 C2410 1.530 . S
C2411 O2439 1.412 . S
C2411 H2475 0.980 . S
C2412 C2413 1.288 . S
C2412 C2417 1.377 . S
C2412 O2439 1.393 . S
C2413 C2412 1.288 . S
C2413 C2414 1.369 . S
C2413 H2479 0.932 . S
C2414 C2413 1.369 . S
C2414 C2415 1.398 . S
C2414 C2418 1.527 . S
C2415 C2414 1.398 . S
C2415 C2416 1.380 . S
C2415 C2429 1.497 . S
C2416 C2415 1.380 . S
C2416 C2417 1.383 . S
C2416 C2419 1.603 . S
C2417 C2412 1.377 . S
C2417 C2416 1.383 . S
C2417 H2480 0.929 . S
C2418 C2414 1.527 . S
C2418 H2481 0.961 . S
C2418 H2482 0.959 . S
C2418 H2483 0.959 . S
C2419 C2416 1.603 . S
C2419 H2484 0.960 . S
C2419 H2485 0.962 . S
C2419 H2486 0.961 . S
C2420 C2387 1.587 . S
C2420 C2421 1.360 . S
C2420 C2433 1.412 . S
C2421 C2420 1.360 . S
C2421 C2422 1.365 . S
C2421 H2487 0.929 . S
C2422 C2397 1.553 . S
C2422 C2421 1.365 . S
C2422 C2423 1.404 . S
C2423 C2422 1.404 . S
C2423 C2424 1.395 . S
C2423 C2434 1.451 . S
C2424 C2423 1.395 . S
C2424 C2425 1.322 . S
C2424 H2488 0.930 . S
C2425 C2424 1.322 . S
C2425 C2426 1.459 . S
C2425 H2489 0.929 . S
C2426 C2425 1.459 . S
C2426 C2427 1.445 . S
C2426 C2435 1.395 . S
C2427 C2405 1.432 . S
C2427 C2426 1.445 . S
C2427 C2428 1.370 . S
C2428 C2427 1.370 . S
C2428 C2429 1.438 . S
C2428 H2490 0.930 . S
C2429 C2415 1.497 . S
C2429 C2428 1.438 . S
C2429 C2430 1.360 . S
C2430 C2429 1.360 . S
C2430 C2431 1.401 . S
C2430 C2435 1.446 . S
C2431 C2430 1.401 . S
C2431 C2432 1.347 . S
C2431 H2491 0.929 . S
C2432 C2431 1.347 . S
C2432 C2433 1.455 . S
C2432 H2492 0.930 . S
C2433 C2420 1.412 . S
C2433 C2432 1.455 . S
C2433 C2434 1.331 . S
C2434 C2423 1.451 . S
C2434 C2433 1.331 . S
C2434 C2435 1.497 . S
C2435 C2426 1.395 . S
C2435 C2430 1.446 . S
C2435 C2434 1.497 . S
C2436 C2437 1.582 . S
C2436 H2493 0.962 . S
C2436 H2494 0.959 . S
C2436 H2495 0.958 . S
C2437 C2436 1.582 . S
C2437 O2440 1.458 . S
C2437 H2466 0.980 . S
O2438 C2383 1.426 . S
O2438 C2384 1.334 . S
O2439 C2411 1.412 . S
O2439 C2412 1.393 . S
O2440 C2402 1.435 . S
O2440 C2437 1.458 . S
O2441 C2393 1.468 . S
O2441 C2394 1.408 . S
H2442 C2383 0.980 . S
H2443 C2382 0.959 . S
H2444 C2382 0.959 . S
H2445 C2382 0.960 . S
H2446 C2385 0.929 . S
H2447 C2389 0.929 . S
H2448 C2390 0.959 . S
H2449 C2390 0.961 . S
H2450 C2390 0.961 . S
H2451 C2391 0.960 . S
H2452 C2391 0.960 . S
H2453 C2391 0.961 . S
H2454 C2393 0.980 . S
H2455 C2392 0.961 . S
H2456 C2392 0.960 . S
H2457 C2392 0.959 . S
H2458 C2395 0.930 . S
H2459 C2399 0.931 . S
H2460 C2400 0.959 . S
H2461 C2400 0.961 . S
H2462 C2400 0.959 . S
H2463 C2401 0.960 . S
H2464 C2401 0.960 . S
H2465 C2401 0.960 . S
H2466 C2437 0.980 . S
H2467 C2403 0.930 . S
H2468 C2407 0.930 . S
H2469 C2408 0.961 . S
H2470 C2408 0.960 . S
H2471 C2408 0.958 . S
H2472 C2409 0.961 . S
H2473 C2409 0.960 . S
H2474 C2409 0.960 . S
H2475 C2411 0.980 . S
H2476 C2410 0.961 . S
H2477 C2410 0.961 . S
H2478 C2410 0.959 . S
H2479 C2413 0.932 . S
H2480 C2417 0.929 . S
H2481 C2418 0.961 . S
H2482 C2418 0.959 . S
H2483 C2418 0.959 . S
H2484 C2419 0.960 . S
H2485 C2419 0.962 . S
H2486 C2419 0.961 . S
H2487 C2421 0.929 . S
H2488 C2424 0.930 . S
H2489 C2425 0.929 . S
H2490 C2428 0.930 . S
H2491 C2431 0.929 . S
H2492 C2432 0.930 . S
H2493 C2436 0.962 . S
H2494 C2436 0.959 . S
H2495 C2436 0.958 . S
C2496 C2497 1.560 . S
C2496 H2557 0.959 . S
C2496 H2558 0.959 . S
C2496 H2559 0.960 . S
C2497 C2496 1.560 . S
C2497 O2552 1.426 . S
C2497 H2556 0.980 . S
C2498 C2499 1.407 . S
C2498 C2503 1.418 . S
C2498 O2552 1.334 . S
C2499 C2498 1.407 . S
C2499 C2500 1.360 . S
C2499 H2560 0.929 . S
C2500 C2499 1.360 . S
C2500 C2501 1.401 . S
C2500 C2504 1.527 . S
C2501 C2500 1.401 . S
C2501 C2502 1.405 . S
C2501 C2534 1.587 . S
C2502 C2501 1.405 . S
C2502 C2503 1.332 . S
C2502 C2505 1.496 . S
C2503 C2498 1.418 . S
C2503 C2502 1.332 . S
C2503 H2561 0.929 . S
C2504 C2500 1.527 . S
C2504 H2562 0.959 . S
C2504 H2563 0.961 . S
C2504 H2564 0.961 . S
C2505 C2502 1.496 . S
C2505 H2565 0.960 . S
C2505 H2566 0.960 . S
C2505 H2567 0.961 . S
C2506 C2507 1.517 . S
C2506 H2569 0.961 . S
C2506 H2570 0.960 . S
C2506 H2571 0.959 . S
C2507 C2506 1.517 . S
C2507 O2555 1.468 . S
C2507 H2568 0.980 . S
C2508 C2509 1.349 . S
C2508 C2513 1.367 . S
C2508 O2555 1.408 . S
C2509 C2508 1.349 . S
C2509 C2510 1.407 . S
C2509 H2572 0.930 . S
C2510 C2509 1.407 . S
C2510 C2511 1.449 . S
C2510 C2514 1.535 . S
C2511 C2510 1.449 . S
C2511 C2512 1.384 . S
C2511 C2536 1.553 . S
C2512 C2511 1.384 . S
C2512 C2513 1.364 . S
C2512 C2515 1.450 . S
C2513 C2508 1.367 . S
C2513 C2512 1.364 . S
C2513 H2573 0.931 . S
C2514 C2510 1.535 . S
C2514 H2574 0.959 . S
C2514 H2575 0.961 . S
C2514 H2576 0.959 . S
C2515 C2512 1.450 . S
C2515 H2577 0.960 . S
C2515 H2578 0.960 . S
C2515 H2579 0.960 . S
C2516 C2517 1.309 . S
C2516 C2521 1.304 . S
C2516 O2554 1.435 . S
C2517 C2516 1.309 . S
C2517 C2518 1.476 . S
C2517 H2581 0.930 . S
C2518 C2517 1.476 . S
C2518 C2519 1.400 . S
C2518 C2522 1.567 . S
C2519 C2518 1.400 . S
C2519 C2520 1.373 . S
C2519 C2541 1.432 . S
C2520 C2519 1.373 . S
C2520 C2521 1.339 . S
C2520 C2523 1.530 . S
C2521 C2516 1.304 . S
C2521 C2520 1.339 . S
C2521 H2582 0.930 . S
C2522 C2518 1.567 . S
C2522 H2583 0.961 . S
C2522 H2584 0.960 . S
C2522 H2585 0.958 . S
C2523 C2520 1.530 . S
C2523 H2586 0.961 . S
C2523 H2587 0.960 . S
C2523 H2588 0.960 . S
C2524 C2525 1.530 . S
C2524 H2590 0.961 . S
C2524 H2591 0.961 . S
C2524 H2592 0.959 . S
C2525 C2524 1.530 . S
C2525 O2553 1.412 . S
C2525 H2589 0.980 . S
C2526 C2527 1.288 . S
C2526 C2531 1.377 . S
C2526 O2553 1.393 . S
C2527 C2526 1.288 . S
C2527 C2528 1.369 . S
C2527 H2593 0.932 . S
C2528 C2527 1.369 . S
C2528 C2529 1.398 . S
C2528 C2532 1.527 . S
C2529 C2528 1.398 . S
C2529 C2530 1.380 . S
C2529 C2543 1.497 . S
C2530 C2529 1.380 . S
C2530 C2531 1.383 . S
C2530 C2533 1.603 . S
C2531 C2526 1.377 . S
C2531 C2530 1.383 . S
C2531 H2594 0.929 . S
C2532 C2528 1.527 . S
C2532 H2595 0.961 . S
C2532 H2596 0.959 . S
C2532 H2597 0.959 . S
C2533 C2530 1.603 . S
C2533 H2598 0.960 . S
C2533 H2599 0.962 . S
C2533 H2600 0.961 . S
C2534 C2501 1.587 . S
C2534 C2535 1.360 . S
C2534 C2547 1.412 . S
C2535 C2534 1.360 . S
C2535 C2536 1.365 . S
C2535 H2601 0.929 . S
C2536 C2511 1.553 . S
C2536 C2535 1.365 . S
C2536 C2537 1.404 . S
C2537 C2536 1.404 . S
C2537 C2538 1.395 . S
C2537 C2548 1.451 . S
C2538 C2537 1.395 . S
C2538 C2539 1.322 . S
C2538 H2602 0.930 . S
C2539 C2538 1.322 . S
C2539 C2540 1.459 . S
C2539 H2603 0.929 . S
C2540 C2539 1.459 . S
C2540 C2541 1.445 . S
C2540 C2549 1.395 . S
C2541 C2519 1.432 . S
C2541 C2540 1.445 . S
C2541 C2542 1.370 . S
C2542 C2541 1.370 . S
C2542 C2543 1.438 . S
C2542 H2604 0.930 . S
C2543 C2529 1.497 . S
C2543 C2542 1.438 . S
C2543 C2544 1.360 . S
C2544 C2543 1.360 . S
C2544 C2545 1.401 . S
C2544 C2549 1.446 . S
C2545 C2544 1.401 . S
C2545 C2546 1.347 . S
C2545 H2605 0.929 . S
C2546 C2545 1.347 . S
C2546 C2547 1.455 . S
C2546 H2606 0.930 . S
C2547 C2534 1.412 . S
C2547 C2546 1.455 . S
C2547 C2548 1.331 . S
C2548 C2537 1.451 . S
C2548 C2547 1.331 . S
C2548 C2549 1.497 . S
C2549 C2540 1.395 . S
C2549 C2544 1.446 . S
C2549 C2548 1.497 . S
C2550 C2551 1.582 . S
C2550 H2607 0.962 . S
C2550 H2608 0.959 . S
C2550 H2609 0.958 . S
C2551 C2550 1.582 . S
C2551 O2554 1.458 . S
C2551 H2580 0.980 . S
O2552 C2497 1.426 . S
O2552 C2498 1.334 . S
O2553 C2525 1.412 . S
O2553 C2526 1.393 . S
O2554 C2516 1.435 . S
O2554 C2551 1.458 . S
O2555 C2507 1.468 . S
O2555 C2508 1.408 . S
H2556 C2497 0.980 . S
H2557 C2496 0.959 . S
H2558 C2496 0.959 . S
H2559 C2496 0.960 . S
H2560 C2499 0.929 . S
H2561 C2503 0.929 . S
H2562 C2504 0.959 . S
H2563 C2504 0.961 . S
H2564 C2504 0.961 . S
H2565 C2505 0.960 . S
H2566 C2505 0.960 . S
H2567 C2505 0.961 . S
H2568 C2507 0.980 . S
H2569 C2506 0.961 . S
H2570 C2506 0.960 . S
H2571 C2506 0.959 . S
H2572 C2509 0.930 . S
H2573 C2513 0.931 . S
H2574 C2514 0.959 . S
H2575 C2514 0.961 . S
H2576 C2514 0.959 . S
H2577 C2515 0.960 . S
H2578 C2515 0.960 . S
H2579 C2515 0.960 . S
H2580 C2551 0.980 . S
H2581 C2517 0.930 . S
H2582 C2521 0.930 . S
H2583 C2522 0.961 . S
H2584 C2522 0.960 . S
H2585 C2522 0.958 . S
H2586 C2523 0.961 . S
H2587 C2523 0.960 . S
H2588 C2523 0.960 . S
H2589 C2525 0.980 . S
H2590 C2524 0.961 . S
H2591 C2524 0.961 . S
H2592 C2524 0.959 . S
H2593 C2527 0.932 . S
H2594 C2531 0.929 . S
H2595 C2532 0.961 . S
H2596 C2532 0.959 . S
H2597 C2532 0.959 . S
H2598 C2533 0.960 . S
H2599 C2533 0.962 . S
H2600 C2533 0.961 . S
H2601 C2535 0.929 . S
H2602 C2538 0.930 . S
H2603 C2539 0.929 . S
H2604 C2542 0.930 . S
H2605 C2545 0.929 . S
H2606 C2546 0.930 . S
H2607 C2550 0.962 . S
H2608 C2550 0.959 . S
H2609 C2550 0.958 . S
C2610 C2611 1.560 . S
C2610 H2671 0.959 . S
C2610 H2672 0.959 . S
C2610 H2673 0.960 . S
C2611 C2610 1.560 . S
C2611 O2666 1.426 . S
C2611 H2670 0.980 . S
C2612 C2613 1.407 1_455 S
C2612 C2617 1.418 . S
C2612 O2666 1.334 . S
C2613 C2612 1.407 1_655 S
C2613 C2614 1.360 . S
C2613 H2674 0.929 . S
C2614 C2613 1.360 . S
C2614 C2615 1.401 1_655 S
C2614 C2618 1.527 . S
C2615 C2614 1.401 1_455 S
C2615 C2616 1.405 . S
C2615 C2648 1.587 1_455 S
C2616 C2615 1.405 . S
C2616 C2617 1.332 . S
C2616 C2619 1.496 . S
C2617 C2612 1.418 . S
C2617 C2616 1.332 . S
C2617 H2675 0.929 . S
C2618 C2614 1.527 . S
C2618 H2676 0.959 . S
C2618 H2677 0.961 . S
C2618 H2678 0.961 . S
C2619 C2616 1.496 . S
C2619 H2679 0.960 . S
C2619 H2680 0.960 . S
C2619 H2681 0.961 . S
C2620 C2621 1.517 . S
C2620 H2683 0.962 . S
C2620 H2684 0.960 . S
C2620 H2685 0.959 . S
C2621 C2620 1.517 . S
C2621 O2669 1.468 . S
C2621 H2682 0.980 1_655 S
C2622 C2623 1.349 . S
C2622 C2627 1.367 . S
C2622 O2669 1.408 . S
C2623 C2622 1.349 . S
C2623 C2624 1.407 1_655 S
C2623 H2686 0.930 1_655 S
C2624 C2623 1.407 1_455 S
C2624 C2625 1.449 1_455 S
C2624 C2628 1.535 . S
C2625 C2624 1.449 1_655 S
C2625 C2626 1.384 . S
C2625 C2650 1.553 . S
C2626 C2625 1.384 . S
C2626 C2627 1.364 . S
C2626 C2629 1.450 . S
C2627 C2622 1.367 . S
C2627 C2626 1.364 . S
C2627 H2687 0.931 . S
C2628 C2624 1.535 . S
C2628 H2688 0.959 . S
C2628 H2689 0.961 . S
C2628 H2690 0.959 . S
C2629 C2626 1.450 . S
C2629 H2691 0.960 . S
C2629 H2692 0.960 . S
C2629 H2693 0.960 . S
C2630 C2631 1.309 . S
C2630 C2635 1.304 . S
C2630 O2668 1.435 . S
C2631 C2630 1.309 . S
C2631 C2632 1.473 . S
C2631 H2695 0.930 1_655 S
C2632 C2631 1.473 . S
C2632 C2633 1.398 . S
C2632 C2636 1.571 1_655 S
C2633 C2632 1.398 . S
C2633 C2634 1.373 . S
C2633 C2655 1.432 . S
C2634 C2633 1.373 . S
C2634 C2635 1.339 . S
C2634 C2637 1.530 . S
C2635 C2630 1.304 . S
C2635 C2634 1.339 . S
C2635 H2696 0.930 . S
C2636 C2632 1.571 1_455 S
C2636 H2697 0.961 . S
C2636 H2698 0.960 . S
C2636 H2699 0.958 . S
C2637 C2634 1.530 . S
C2637 H2700 0.961 . S
C2637 H2701 0.960 . S
C2637 H2702 0.960 . S
C2638 C2639 1.491 1_455 S
C2638 H2704 0.961 . S
C2638 H2705 0.961 . S
C2638 H2706 0.959 . S
C2639 C2638 1.491 1_655 S
C2639 O2667 1.404 1_655 S
C2639 H2703 0.992 . S
C2640 C2641 1.288 . S
C2640 C2645 1.377 1_455 S
C2640 O2667 1.393 . S
C2641 C2640 1.288 . S
C2641 C2642 1.369 . S
C2641 H2707 0.932 . S
C2642 C2641 1.369 . S
C2642 C2643 1.398 1_455 S
C2642 C2646 1.527 . S
C2643 C2642 1.398 1_655 S
C2643 C2644 1.380 . S
C2643 C2657 1.497 . S
C2644 C2643 1.380 . S
C2644 C2645 1.383 . S
C2644 C2647 1.603 . S
C2645 C2640 1.377 1_655 S
C2645 C2644 1.383 . S
C2645 H2708 0.929 . S
C2646 C2642 1.527 . S
C2646 H2709 0.961 . S
C2646 H2710 0.959 . S
C2646 H2711 0.959 . S
C2647 C2644 1.603 . S
C2647 H2712 0.960 . S
C2647 H2713 0.962 . S
C2647 H2714 0.961 . S
C2648 C2615 1.587 1_655 S
C2648 C2649 1.360 . S
C2648 C2661 1.412 . S
C2649 C2648 1.360 . S
C2649 C2650 1.365 . S
C2649 H2715 0.929 . S
C2650 C2625 1.553 . S
C2650 C2649 1.365 . S
C2650 C2651 1.404 . S
C2651 C2650 1.404 . S
C2651 C2652 1.395 . S
C2651 C2662 1.451 . S
C2652 C2651 1.395 . S
C2652 C2653 1.322 . S
C2652 H2716 0.930 . S
C2653 C2652 1.322 . S
C2653 C2654 1.459 . S
C2653 H2717 0.929 . S
C2654 C2653 1.459 . S
C2654 C2655 1.445 . S
C2654 C2663 1.395 . S
C2655 C2633 1.432 . S
C2655 C2654 1.445 . S
C2655 C2656 1.370 . S
C2656 C2655 1.370 . S
C2656 C2657 1.438 . S
C2656 H2718 0.930 . S
C2657 C2643 1.497 . S
C2657 C2656 1.438 . S
C2657 C2658 1.360 . S
C2658 C2657 1.360 . S
C2658 C2659 1.401 . S
C2658 C2663 1.446 . S
C2659 C2658 1.401 . S
C2659 C2660 1.347 . S
C2659 H2719 0.929 . S
C2660 C2659 1.347 . S
C2660 C2661 1.455 . S
C2660 H2720 0.930 . S
C2661 C2648 1.412 . S
C2661 C2660 1.455 . S
C2661 C2662 1.331 . S
C2662 C2651 1.451 . S
C2662 C2661 1.331 . S
C2662 C2663 1.497 . S
C2663 C2654 1.395 . S
C2663 C2658 1.446 . S
C2663 C2662 1.497 . S
C2664 C2665 1.582 . S
C2664 H2721 0.962 . S
C2664 H2722 0.959 . S
C2664 H2723 0.958 . S
C2665 C2664 1.582 . S
C2665 O2668 1.458 . S
C2665 H2694 0.980 . S
O2666 C2611 1.426 . S
O2666 C2612 1.334 . S
O2667 C2639 1.404 1_455 S
O2667 C2640 1.393 . S
O2668 C2630 1.435 . S
O2668 C2665 1.458 . S
O2669 C2621 1.468 . S
O2669 C2622 1.408 . S
H2670 C2611 0.980 . S
H2671 C2610 0.959 . S
H2672 C2610 0.959 . S
H2673 C2610 0.960 . S
H2674 C2613 0.929 . S
H2675 C2617 0.929 . S
H2676 C2618 0.959 . S
H2677 C2618 0.961 . S
H2678 C2618 0.961 . S
H2679 C2619 0.960 . S
H2680 C2619 0.960 . S
H2681 C2619 0.961 . S
H2682 C2621 0.980 1_455 S
H2683 C2620 0.962 . S
H2684 C2620 0.960 . S
H2685 C2620 0.959 . S
H2686 C2623 0.930 1_455 S
H2687 C2627 0.931 . S
H2688 C2628 0.959 . S
H2689 C2628 0.961 . S
H2690 C2628 0.959 . S
H2691 C2629 0.960 . S
H2692 C2629 0.960 . S
H2693 C2629 0.960 . S
H2694 C2665 0.980 . S
H2695 C2631 0.930 1_455 S
H2696 C2635 0.930 . S
H2697 C2636 0.961 . S
H2698 C2636 0.960 . S
H2699 C2636 0.958 . S
H2700 C2637 0.961 . S
H2701 C2637 0.960 . S
H2702 C2637 0.960 . S
H2703 C2639 0.992 . S
H2704 C2638 0.961 . S
H2705 C2638 0.961 . S
H2706 C2638 0.959 . S
H2707 C2641 0.932 . S
H2708 C2645 0.929 . S
H2709 C2646 0.961 . S
H2710 C2646 0.959 . S
H2711 C2646 0.959 . S
H2712 C2647 0.960 . S
H2713 C2647 0.962 . S
H2714 C2647 0.961 . S
H2715 C2649 0.929 . S
H2716 C2652 0.930 . S
H2717 C2653 0.929 . S
H2718 C2656 0.930 . S
H2719 C2659 0.929 . S
H2720 C2660 0.930 . S
H2721 C2664 0.962 . S
H2722 C2664 0.959 . S
H2723 C2664 0.958 . S
C2724 C2725 1.560 . S
C2724 H2785 0.959 . S
C2724 H2786 0.959 . S
C2724 H2787 0.960 . S
C2725 C2724 1.560 . S
C2725 O2780 1.426 . S
C2725 H2784 0.980 . S
C2726 C2727 1.407 . S
C2726 C2731 1.418 . S
C2726 O2780 1.334 . S
C2727 C2726 1.407 . S
C2727 C2728 1.360 . S
C2727 H2788 0.929 . S
C2728 C2727 1.360 . S
C2728 C2729 1.401 . S
C2728 C2732 1.527 . S
C2729 C2728 1.401 . S
C2729 C2730 1.405 . S
C2729 C2762 1.587 . S
C2730 C2729 1.405 . S
C2730 C2731 1.332 . S
C2730 C2733 1.496 . S
C2731 C2726 1.418 . S
C2731 C2730 1.332 . S
C2731 H2789 0.929 . S
C2732 C2728 1.527 . S
C2732 H2790 0.959 . S
C2732 H2791 0.961 . S
C2732 H2792 0.961 . S
C2733 C2730 1.496 . S
C2733 H2793 0.960 . S
C2733 H2794 0.960 . S
C2733 H2795 0.961 . S
C2734 C2735 1.517 . S
C2734 H2797 0.961 . S
C2734 H2798 0.960 . S
C2734 H2799 0.959 . S
C2735 C2734 1.517 . S
C2735 O2783 1.468 . S
C2735 H2796 0.980 . S
C2736 C2737 1.349 . S
C2736 C2741 1.367 . S
C2736 O2783 1.408 . S
C2737 C2736 1.349 . S
C2737 C2738 1.407 . S
C2737 H2800 0.930 . S
C2738 C2737 1.407 . S
C2738 C2739 1.449 . S
C2738 C2742 1.535 . S
C2739 C2738 1.449 . S
C2739 C2740 1.384 . S
C2739 C2764 1.553 . S
C2740 C2739 1.384 . S
C2740 C2741 1.364 . S
C2740 C2743 1.450 . S
C2741 C2736 1.367 . S
C2741 C2740 1.364 . S
C2741 H2801 0.931 . S
C2742 C2738 1.535 . S
C2742 H2802 0.959 . S
C2742 H2803 0.961 . S
C2742 H2804 0.959 . S
C2743 C2740 1.450 . S
C2743 H2805 0.960 . S
C2743 H2806 0.960 . S
C2743 H2807 0.960 . S
C2744 C2745 1.309 . S
C2744 C2749 1.304 . S
C2744 O2782 1.435 . S
C2745 C2744 1.309 . S
C2745 C2746 1.476 . S
C2745 H2809 0.930 . S
C2746 C2745 1.476 . S
C2746 C2747 1.400 . S
C2746 C2750 1.567 . S
C2747 C2746 1.400 . S
C2747 C2748 1.373 . S
C2747 C2769 1.432 . S
C2748 C2747 1.373 . S
C2748 C2749 1.339 . S
C2748 C2751 1.530 . S
C2749 C2744 1.304 . S
C2749 C2748 1.339 . S
C2749 H2810 0.930 . S
C2750 C2746 1.567 . S
C2750 H2811 0.961 . S
C2750 H2812 0.960 . S
C2750 H2813 0.958 . S
C2751 C2748 1.530 . S
C2751 H2814 0.961 . S
C2751 H2815 0.960 . S
C2751 H2816 0.960 . S
C2752 C2753 1.530 . S
C2752 H2818 0.961 . S
C2752 H2819 0.961 . S
C2752 H2820 0.959 . S
C2753 C2752 1.530 . S
C2753 O2781 1.412 . S
C2753 H2817 0.980 . S
C2754 C2755 1.288 . S
C2754 C2759 1.377 . S
C2754 O2781 1.393 . S
C2755 C2754 1.288 . S
C2755 C2756 1.369 . S
C2755 H2821 0.932 . S
C2756 C2755 1.369 . S
C2756 C2757 1.398 . S
C2756 C2760 1.527 . S
C2757 C2756 1.398 . S
C2757 C2758 1.380 . S
C2757 C2771 1.497 . S
C2758 C2757 1.380 . S
C2758 C2759 1.383 . S
C2758 C2761 1.603 . S
C2759 C2754 1.377 . S
C2759 C2758 1.383 . S
C2759 H2822 0.929 . S
C2760 C2756 1.527 . S
C2760 H2823 0.961 . S
C2760 H2824 0.959 . S
C2760 H2825 0.959 . S
C2761 C2758 1.603 . S
C2761 H2826 0.960 . S
C2761 H2827 0.962 . S
C2761 H2828 0.961 . S
C2762 C2729 1.587 . S
C2762 C2763 1.360 . S
C2762 C2775 1.412 . S
C2763 C2762 1.360 . S
C2763 C2764 1.365 . S
C2763 H2829 0.929 . S
C2764 C2739 1.553 . S
C2764 C2763 1.365 . S
C2764 C2765 1.404 . S
C2765 C2764 1.404 . S
C2765 C2766 1.395 . S
C2765 C2776 1.451 . S
C2766 C2765 1.395 . S
C2766 C2767 1.322 . S
C2766 H2830 0.930 . S
C2767 C2766 1.322 . S
C2767 C2768 1.459 . S
C2767 H2831 0.929 . S
C2768 C2767 1.459 . S
C2768 C2769 1.445 . S
C2768 C2777 1.395 . S
C2769 C2747 1.432 . S
C2769 C2768 1.445 . S
C2769 C2770 1.370 . S
C2770 C2769 1.370 . S
C2770 C2771 1.438 . S
C2770 H2832 0.930 . S
C2771 C2757 1.497 . S
C2771 C2770 1.438 . S
C2771 C2772 1.360 . S
C2772 C2771 1.360 . S
C2772 C2773 1.401 . S
C2772 C2777 1.446 . S
C2773 C2772 1.401 . S
C2773 C2774 1.347 . S
C2773 H2833 0.929 . S
C2774 C2773 1.347 . S
C2774 C2775 1.455 . S
C2774 H2834 0.930 . S
C2775 C2762 1.412 . S
C2775 C2774 1.455 . S
C2775 C2776 1.331 . S
C2776 C2765 1.451 . S
C2776 C2775 1.331 . S
C2776 C2777 1.497 . S
C2777 C2768 1.395 . S
C2777 C2772 1.446 . S
C2777 C2776 1.497 . S
C2778 C2779 1.582 . S
C2778 H2835 0.962 . S
C2778 H2836 0.959 . S
C2778 H2837 0.958 . S
C2779 C2778 1.582 . S
C2779 O2782 1.458 . S
C2779 H2808 0.980 . S
O2780 C2725 1.426 . S
O2780 C2726 1.334 . S
O2781 C2753 1.412 . S
O2781 C2754 1.393 . S
O2782 C2744 1.435 . S
O2782 C2779 1.458 . S
O2783 C2735 1.468 . S
O2783 C2736 1.408 . S
H2784 C2725 0.980 . S
H2785 C2724 0.959 . S
H2786 C2724 0.959 . S
H2787 C2724 0.960 . S
H2788 C2727 0.929 . S
H2789 C2731 0.929 . S
H2790 C2732 0.959 . S
H2791 C2732 0.961 . S
H2792 C2732 0.961 . S
H2793 C2733 0.960 . S
H2794 C2733 0.960 . S
H2795 C2733 0.961 . S
H2796 C2735 0.980 . S
H2797 C2734 0.961 . S
H2798 C2734 0.960 . S
H2799 C2734 0.959 . S
H2800 C2737 0.930 . S
H2801 C2741 0.931 . S
H2802 C2742 0.959 . S
H2803 C2742 0.961 . S
H2804 C2742 0.959 . S
H2805 C2743 0.960 . S
H2806 C2743 0.960 . S
H2807 C2743 0.960 . S
H2808 C2779 0.980 . S
H2809 C2745 0.930 . S
H2810 C2749 0.930 . S
H2811 C2750 0.961 . S
H2812 C2750 0.960 . S
H2813 C2750 0.958 . S
H2814 C2751 0.961 . S
H2815 C2751 0.960 . S
H2816 C2751 0.960 . S
H2817 C2753 0.980 . S
H2818 C2752 0.961 . S
H2819 C2752 0.961 . S
H2820 C2752 0.959 . S
H2821 C2755 0.932 . S
H2822 C2759 0.929 . S
H2823 C2760 0.961 . S
H2824 C2760 0.959 . S
H2825 C2760 0.959 . S
H2826 C2761 0.960 . S
H2827 C2761 0.962 . S
H2828 C2761 0.961 . S
H2829 C2763 0.929 . S
H2830 C2766 0.930 . S
H2831 C2767 0.929 . S
H2832 C2770 0.930 . S
H2833 C2773 0.929 . S
H2834 C2774 0.930 . S
H2835 C2778 0.962 . S
H2836 C2778 0.959 . S
H2837 C2778 0.958 . S
C2838 C2839 1.560 . S
C2838 H2899 0.959 . S
C2838 H2900 0.959 . S
C2838 H2901 0.960 . S
C2839 C2838 1.560 . S
C2839 O2894 1.426 . S
C2839 H2898 0.980 . S
C2840 C2841 1.407 1_565 S
C2840 C2845 1.418 . S
C2840 O2894 1.334 . S
C2841 C2840 1.407 1_545 S
C2841 C2842 1.360 . S
C2841 H2902 0.929 . S
C2842 C2841 1.360 . S
C2842 C2843 1.401 1_545 S
C2842 C2846 1.527 . S
C2843 C2842 1.401 1_565 S
C2843 C2844 1.405 . S
C2843 C2876 1.587 1_565 S
C2844 C2843 1.405 . S
C2844 C2845 1.332 . S
C2844 C2847 1.496 . S
C2845 C2840 1.418 . S
C2845 C2844 1.332 . S
C2845 H2903 0.929 . S
C2846 C2842 1.527 . S
C2846 H2904 0.959 . S
C2846 H2905 0.961 . S
C2846 H2906 0.961 . S
C2847 C2844 1.496 . S
C2847 H2907 0.960 . S
C2847 H2908 0.960 . S
C2847 H2909 0.961 . S
C2848 C2849 1.517 . S
C2848 H2911 0.961 1_545 S
C2848 H2912 0.960 . S
C2848 H2913 0.959 . S
C2849 C2848 1.517 . S
C2849 O2897 1.468 . S
C2849 H2910 0.980 1_545 S
C2850 C2851 1.381 . S
C2850 C2855 1.367 . S
C2850 O2897 1.408 . S
C2851 C2850 1.381 . S
C2851 C2852 1.427 1_545 S
C2851 H2914 0.879 1_545 S
C2852 C2851 1.427 1_565 S
C2852 C2853 1.449 1_565 S
C2852 C2856 1.535 . S
C2853 C2852 1.449 1_545 S
C2853 C2854 1.384 . S
C2853 C2878 1.553 . S
C2854 C2853 1.384 . S
C2854 C2855 1.364 . S
C2854 C2857 1.450 . S
C2855 C2850 1.367 . S
C2855 C2854 1.364 . S
C2855 H2915 0.931 . S
C2856 C2852 1.535 . S
C2856 H2916 0.959 . S
C2856 H2917 0.961 . S
C2856 H2918 0.959 . S
C2857 C2854 1.450 . S
C2857 H2919 0.960 . S
C2857 H2920 0.960 . S
C2857 H2921 0.960 . S
C2858 C2859 1.309 . S
C2858 C2863 1.304 . S
C2858 O2896 1.435 . S
C2859 C2858 1.309 . S
C2859 C2860 1.488 1_545 S
C2859 H2923 0.930 1_545 S
C2860 C2859 1.488 1_565 S
C2860 C2861 1.359 1_565 S
C2860 C2864 1.595 . S
C2861 C2860 1.359 1_545 S
C2861 C2862 1.373 . S
C2861 C2883 1.432 . S
C2862 C2861 1.373 . S
C2862 C2863 1.339 . S
C2862 C2865 1.530 . S
C2863 C2858 1.304 . S
C2863 C2862 1.339 . S
C2863 H2924 0.930 . S
C2864 C2860 1.595 . S
C2864 H2925 0.961 . S
C2864 H2926 0.960 . S
C2864 H2927 0.958 . S
C2865 C2862 1.530 . S
C2865 H2928 0.961 . S
C2865 H2929 0.960 . S
C2865 H2930 0.960 . S
C2866 C2867 1.530 1_565 S
C2866 H2932 0.961 . S
C2866 H2933 0.961 . S
C2866 H2934 0.959 . S
C2867 C2866 1.530 1_545 S
C2867 O2895 1.412 1_545 S
C2867 H2931 0.980 . S
C2868 C2869 1.288 . S
C2868 C2873 1.377 1_565 S
C2868 O2895 1.393 . S
C2869 C2868 1.288 . S
C2869 C2870 1.369 . S
C2869 H2935 0.932 . S
C2870 C2869 1.369 . S
C2870 C2871 1.398 1_565 S
C2870 C2874 1.527 . S
C2871 C2870 1.398 1_545 S
C2871 C2872 1.380 . S
C2871 C2885 1.497 . S
C2872 C2871 1.380 . S
C2872 C2873 1.383 . S
C2872 C2875 1.603 . S
C2873 C2868 1.377 1_545 S
C2873 C2872 1.383 . S
C2873 H2936 0.929 . S
C2874 C2870 1.527 . S
C2874 H2937 0.961 . S
C2874 H2938 0.959 . S
C2874 H2939 0.959 . S
C2875 C2872 1.603 . S
C2875 H2940 0.960 . S
C2875 H2941 0.962 . S
C2875 H2942 0.961 . S
C2876 C2843 1.587 1_545 S
C2876 C2877 1.360 . S
C2876 C2889 1.412 . S
C2877 C2876 1.360 . S
C2877 C2878 1.365 . S
C2877 H2943 0.929 . S
C2878 C2853 1.553 . S
C2878 C2877 1.365 . S
C2878 C2879 1.404 . S
C2879 C2878 1.404 . S
C2879 C2880 1.395 . S
C2879 C2890 1.451 . S
C2880 C2879 1.395 . S
C2880 C2881 1.322 . S
C2880 H2944 0.930 . S
C2881 C2880 1.322 . S
C2881 C2882 1.459 . S
C2881 H2945 0.929 . S
C2882 C2881 1.459 . S
C2882 C2883 1.445 . S
C2882 C2891 1.395 . S
C2883 C2861 1.432 . S
C2883 C2882 1.445 . S
C2883 C2884 1.370 . S
C2884 C2883 1.370 . S
C2884 C2885 1.438 . S
C2884 H2946 0.930 . S
C2885 C2871 1.497 . S
C2885 C2884 1.438 . S
C2885 C2886 1.360 . S
C2886 C2885 1.360 . S
C2886 C2887 1.401 . S
C2886 C2891 1.446 . S
C2887 C2886 1.401 . S
C2887 C2888 1.347 . S
C2887 H2947 0.929 . S
C2888 C2887 1.347 . S
C2888 C2889 1.455 . S
C2888 H2948 0.930 . S
C2889 C2876 1.412 . S
C2889 C2888 1.455 . S
C2889 C2890 1.331 . S
C2890 C2879 1.451 . S
C2890 C2889 1.331 . S
C2890 C2891 1.497 . S
C2891 C2882 1.395 . S
C2891 C2886 1.446 . S
C2891 C2890 1.497 . S
C2892 C2893 1.582 . S
C2892 H2949 0.962 . S
C2892 H2950 0.959 . S
C2892 H2951 0.958 . S
C2893 C2892 1.582 . S
C2893 O2896 1.458 . S
C2893 H2922 0.980 . S
O2894 C2839 1.426 . S
O2894 C2840 1.334 . S
O2895 C2867 1.412 1_565 S
O2895 C2868 1.393 . S
O2896 C2858 1.435 . S
O2896 C2893 1.458 . S
O2897 C2849 1.468 . S
O2897 C2850 1.408 . S
H2898 C2839 0.980 . S
H2899 C2838 0.959 . S
H2900 C2838 0.959 . S
H2901 C2838 0.960 . S
H2902 C2841 0.929 . S
H2903 C2845 0.929 . S
H2904 C2846 0.959 . S
H2905 C2846 0.961 . S
H2906 C2846 0.961 . S
H2907 C2847 0.960 . S
H2908 C2847 0.960 . S
H2909 C2847 0.961 . S
H2910 C2849 0.980 1_565 S
H2911 C2848 0.961 1_565 S
H2912 C2848 0.960 . S
H2913 C2848 0.959 . S
H2914 C2851 0.879 1_565 S
H2915 C2855 0.931 . S
H2916 C2856 0.959 . S
H2917 C2856 0.961 . S
H2918 C2856 0.959 . S
H2919 C2857 0.960 . S
H2920 C2857 0.960 . S
H2921 C2857 0.960 . S
H2922 C2893 0.980 . S
H2923 C2859 0.930 1_565 S
H2924 C2863 0.930 . S
H2925 C2864 0.961 . S
H2926 C2864 0.960 . S
H2927 C2864 0.958 . S
H2928 C2865 0.961 . S
H2929 C2865 0.960 . S
H2930 C2865 0.960 . S
H2931 C2867 0.980 . S
H2932 C2866 0.961 . S
H2933 C2866 0.961 . S
H2934 C2866 0.959 . S
H2935 C2869 0.932 . S
H2936 C2873 0.929 . S
H2937 C2874 0.961 . S
H2938 C2874 0.959 . S
H2939 C2874 0.959 . S
H2940 C2875 0.960 . S
H2941 C2875 0.962 . S
H2942 C2875 0.961 . S
H2943 C2877 0.929 . S
H2944 C2880 0.930 . S
H2945 C2881 0.929 . S
H2946 C2884 0.930 . S
H2947 C2887 0.929 . S
H2948 C2888 0.930 . S
H2949 C2892 0.962 . S
H2950 C2892 0.959 . S
H2951 C2892 0.958 . S
C2952 C2953 1.560 . S
C2952 H3013 0.959 . S
C2952 H3014 0.959 . S
C2952 H3015 0.960 . S
C2953 C2952 1.560 . S
C2953 O3008 1.426 . S
C2953 H3012 0.980 1_565 S
C2954 C2955 1.407 1_565 S
C2954 C2959 1.418 . S
C2954 O3008 1.334 . S
C2955 C2954 1.407 1_545 S
C2955 C2956 1.360 . S
C2955 H3016 0.929 . S
C2956 C2955 1.360 . S
C2956 C2957 1.401 . S
C2956 C2960 1.527 . S
C2957 C2956 1.401 . S
C2957 C2958 1.405 1_545 S
C2957 C2990 1.587 . S
C2958 C2957 1.405 1_565 S
C2958 C2959 1.332 . S
C2958 C2961 1.496 . S
C2959 C2954 1.418 . S
C2959 C2958 1.332 . S
C2959 H3017 0.929 . S
C2960 C2956 1.527 . S
C2960 H3018 0.959 . S
C2960 H3019 0.961 . S
C2960 H3020 0.961 . S
C2961 C2958 1.496 . S
C2961 H3021 0.960 . S
C2961 H3022 0.960 . S
C2961 H3023 0.961 . S
C2962 C2963 1.517 . S
C2962 H3025 0.961 . S
C2962 H3026 0.960 . S
C2962 H3027 0.959 . S
C2963 C2962 1.517 . S
C2963 O3011 1.468 . S
C2963 H3024 0.980 . S
C2964 C2965 1.349 . S
C2964 C2969 1.367 . S
C2964 O3011 1.408 . S
C2965 C2964 1.349 . S
C2965 C2966 1.407 . S
C2965 H3028 0.937 . S
C2966 C2965 1.407 . S
C2966 C2967 1.449 . S
C2966 C2970 1.535 1_545 S
C2967 C2966 1.449 . S
C2967 C2968 1.384 . S
C2967 C2992 1.553 . S
C2968 C2967 1.384 . S
C2968 C2969 1.364 . S
C2968 C2971 1.450 . S
C2969 C2964 1.367 . S
C2969 C2968 1.364 . S
C2969 H3029 0.931 . S
C2970 C2966 1.535 1_565 S
C2970 H3030 0.959 . S
C2970 H3031 0.961 . S
C2970 H3032 0.959 . S
C2971 C2968 1.450 . S
C2971 H3033 0.960 . S
C2971 H3034 0.960 . S
C2971 H3035 0.960 . S
C2972 C2973 1.309 1_545 S
C2972 C2977 1.304 . S
C2972 O3010 1.435 . S
C2973 C2972 1.309 1_565 S
C2973 C2974 1.476 . S
C2973 H3037 0.930 . S
C2974 C2973 1.476 . S
C2974 C2975 1.400 1_565 S
C2974 C2978 1.567 . S
C2975 C2974 1.400 1_545 S
C2975 C2976 1.373 . S
C2975 C2997 1.432 . S
C2976 C2975 1.373 . S
C2976 C2977 1.339 . S
C2976 C2979 1.530 . S
C2977 C2972 1.304 . S
C2977 C2976 1.339 . S
C2977 H3038 0.930 . S
C2978 C2974 1.567 . S
C2978 H3039 0.961 . S
C2978 H3040 0.960 . S
C2978 H3041 0.958 . S
C2979 C2976 1.530 . S
C2979 H3042 0.961 . S
C2979 H3043 0.960 . S
C2979 H3044 0.960 . S
C2980 C2981 1.530 . S
C2980 H3046 0.961 . S
C2980 H3047 0.961 . S
C2980 H3048 0.959 . S
C2981 C2980 1.530 . S
C2981 O3009 1.412 . S
C2981 H3045 0.980 . S
C2982 C2983 1.288 . S
C2982 C2987 1.377 1_565 S
C2982 O3009 1.393 . S
C2983 C2982 1.288 . S
C2983 C2984 1.369 . S
C2983 H3049 0.932 . S
C2984 C2983 1.369 . S
C2984 C2985 1.398 . S
C2984 C2988 1.527 . S
C2985 C2984 1.398 . S
C2985 C2986 1.380 1_565 S
C2985 C2999 1.497 1_565 S
C2986 C2985 1.380 1_545 S
C2986 C2987 1.383 . S
C2986 C2989 1.603 . S
C2987 C2982 1.377 1_545 S
C2987 C2986 1.383 . S
C2987 H3050 0.929 . S
C2988 C2984 1.527 . S
C2988 H3051 0.961 . S
C2988 H3052 0.959 . S
C2988 H3053 0.959 . S
C2989 C2986 1.603 . S
C2989 H3054 0.960 . S
C2989 H3055 0.962 . S
C2989 H3056 0.961 . S
C2990 C2957 1.587 . S
C2990 C2991 1.360 . S
C2990 C3003 1.412 . S
C2991 C2990 1.360 . S
C2991 C2992 1.365 . S
C2991 H3057 0.929 . S
C2992 C2967 1.553 . S
C2992 C2991 1.365 . S
C2992 C2993 1.404 . S
C2993 C2992 1.404 . S
C2993 C2994 1.395 . S
C2993 C3004 1.451 . S
C2994 C2993 1.395 . S
C2994 C2995 1.322 . S
C2994 H3058 0.930 . S
C2995 C2994 1.322 . S
C2995 C2996 1.459 . S
C2995 H3059 0.929 . S
C2996 C2995 1.459 . S
C2996 C2997 1.445 . S
C2996 C3005 1.395 . S
C2997 C2975 1.432 . S
C2997 C2996 1.445 . S
C2997 C2998 1.370 . S
C2998 C2997 1.370 . S
C2998 C2999 1.438 . S
C2998 H3060 0.930 . S
C2999 C2985 1.497 1_545 S
C2999 C2998 1.438 . S
C2999 C3000 1.360 . S
C3000 C2999 1.360 . S
C3000 C3001 1.401 . S
C3000 C3005 1.446 . S
C3001 C3000 1.401 . S
C3001 C3002 1.347 . S
C3001 H3061 0.959 . S
C3002 C3001 1.347 . S
C3002 C3003 1.455 . S
C3002 H3062 0.930 . S
C3003 C2990 1.412 . S
C3003 C3002 1.455 . S
C3003 C3004 1.331 . S
C3004 C2993 1.451 . S
C3004 C3003 1.331 . S
C3004 C3005 1.497 . S
C3005 C2996 1.395 . S
C3005 C3000 1.446 . S
C3005 C3004 1.497 . S
C3006 C3007 1.623 . S
C3006 H3063 0.962 . S
C3006 H3064 0.959 . S
C3006 H3065 0.958 . S
C3007 C3006 1.623 . S
C3007 O3010 1.474 . S
C3007 H3036 0.981 1_545 S
O3008 C2953 1.426 . S
O3008 C2954 1.334 . S
O3009 C2981 1.412 . S
O3009 C2982 1.393 . S
O3010 C2972 1.435 . S
O3010 C3007 1.474 . S
O3011 C2963 1.468 . S
O3011 C2964 1.408 . S
H3012 C2953 0.980 1_545 S
H3013 C2952 0.959 . S
H3014 C2952 0.959 . S
H3015 C2952 0.960 . S
H3016 C2955 0.929 . S
H3017 C2959 0.929 . S
H3018 C2960 0.959 . S
H3019 C2960 0.961 . S
H3020 C2960 0.961 . S
H3021 C2961 0.960 . S
H3022 C2961 0.960 . S
H3023 C2961 0.961 . S
H3024 C2963 0.980 . S
H3025 C2962 0.961 . S
H3026 C2962 0.960 . S
H3027 C2962 0.959 . S
H3028 C2965 0.937 . S
H3029 C2969 0.931 . S
H3030 C2970 0.959 . S
H3031 C2970 0.961 . S
H3032 C2970 0.959 . S
H3033 C2971 0.960 . S
H3034 C2971 0.960 . S
H3035 C2971 0.960 . S
H3036 C3007 0.981 1_565 S
H3037 C2973 0.930 . S
H3038 C2977 0.930 . S
H3039 C2978 0.961 . S
H3040 C2978 0.960 . S
H3041 C2978 0.958 . S
H3042 C2979 0.961 . S
H3043 C2979 0.960 . S
H3044 C2979 0.960 . S
H3045 C2981 0.980 . S
H3046 C2980 0.961 . S
H3047 C2980 0.961 . S
H3048 C2980 0.959 . S
H3049 C2983 0.932 . S
H3050 C2987 0.929 . S
H3051 C2988 0.961 . S
H3052 C2988 0.959 . S
H3053 C2988 0.959 . S
H3054 C2989 0.960 . S
H3055 C2989 0.962 . S
H3056 C2989 0.961 . S
H3057 C2991 0.929 . S
H3058 C2994 0.930 . S
H3059 C2995 0.929 . S
H3060 C2998 0.930 . S
H3061 C3001 0.959 . S
H3062 C3002 0.930 . S
H3063 C3006 0.962 . S
H3064 C3006 0.959 . S
H3065 C3006 0.958 . S
C3066 C3067 1.560 . S
C3066 H3127 0.959 . S
C3066 H3128 0.959 . S
C3066 H3129 0.960 . S
C3067 C3066 1.560 . S
C3067 O3122 1.426 . S
C3067 H3126 0.980 1_455 S
C3068 C3069 1.407 1_455 S
C3068 C3073 1.418 . S
C3068 O3122 1.334 . S
C3069 C3068 1.407 1_655 S
C3069 C3070 1.360 . S
C3069 H3130 0.929 . S
C3070 C3069 1.360 . S
C3070 C3071 1.401 . S
C3070 C3074 1.527 . S
C3071 C3070 1.401 . S
C3071 C3072 1.405 1_655 S
C3071 C3104 1.587 . S
C3072 C3071 1.405 1_455 S
C3072 C3073 1.332 . S
C3072 C3075 1.496 . S
C3073 C3068 1.418 . S
C3073 C3072 1.332 . S
C3073 H3131 0.929 . S
C3074 C3070 1.527 . S
C3074 H3132 0.959 . S
C3074 H3133 0.961 . S
C3074 H3134 0.961 . S
C3075 C3072 1.496 . S
C3075 H3135 0.960 . S
C3075 H3136 0.960 . S
C3075 H3137 0.961 . S
C3076 C3077 1.517 . S
C3076 H3139 0.961 . S
C3076 H3140 0.960 . S
C3076 H3141 0.959 . S
C3077 C3076 1.517 . S
C3077 O3125 1.468 . S
C3077 H3138 0.980 . S
C3078 C3079 1.349 . S
C3078 C3083 1.367 . S
C3078 O3125 1.408 . S
C3079 C3078 1.349 . S
C3079 C3080 1.407 . S
C3079 H3142 0.929 . S
C3080 C3079 1.407 . S
C3080 C3081 1.449 . S
C3080 C3084 1.535 1_655 S
C3081 C3080 1.449 . S
C3081 C3082 1.384 . S
C3081 C3106 1.553 . S
C3082 C3081 1.384 . S
C3082 C3083 1.364 . S
C3082 C3085 1.450 . S
C3083 C3078 1.367 . S
C3083 C3082 1.364 . S
C3083 H3143 0.931 . S
C3084 C3080 1.535 1_455 S
C3084 H3144 0.959 . S
C3084 H3145 0.961 . S
C3084 H3146 0.959 . S
C3085 C3082 1.450 . S
C3085 H3147 0.960 . S
C3085 H3148 0.960 . S
C3085 H3149 0.960 . S
C3086 C3087 1.309 1_655 S
C3086 C3091 1.304 . S
C3086 O3124 1.435 . S
C3087 C3086 1.309 1_455 S
C3087 C3088 1.476 . S
C3087 H3151 0.930 . S
C3088 C3087 1.476 . S
C3088 C3089 1.400 1_455 S
C3088 C3092 1.567 . S
C3089 C3088 1.400 1_655 S
C3089 C3090 1.373 . S
C3089 C3111 1.432 . S
C3090 C3089 1.373 . S
C3090 C3091 1.339 . S
C3090 C3093 1.530 . S
C3091 C3086 1.304 . S
C3091 C3090 1.339 . S
C3091 H3152 0.930 . S
C3092 C3088 1.567 . S
C3092 H3153 0.961 . S
C3092 H3154 0.960 . S
C3092 H3155 0.958 . S
C3093 C3090 1.530 . S
C3093 H3156 0.961 . S
C3093 H3157 0.960 . S
C3093 H3158 0.960 . S
C3094 C3095 1.530 . S
C3094 H3160 0.961 . S
C3094 H3161 0.961 . S
C3094 H3162 0.959 . S
C3095 C3094 1.530 . S
C3095 O3123 1.412 . S
C3095 H3159 0.997 . S
C3096 C3097 1.288 . S
C3096 C3101 1.377 1_455 S
C3096 O3123 1.393 . S
C3097 C3096 1.288 . S
C3097 C3098 1.369 . S
C3097 H3163 0.932 . S
C3098 C3097 1.369 . S
C3098 C3099 1.398 . S
C3098 C3102 1.527 . S
C3099 C3098 1.398 . S
C3099 C3100 1.380 1_455 S
C3099 C3113 1.497 1_455 S
C3100 C3099 1.380 1_655 S
C3100 C3101 1.383 . S
C3100 C3103 1.603 . S
C3101 C3096 1.377 1_655 S
C3101 C3100 1.383 . S
C3101 H3164 0.929 . S
C3102 C3098 1.527 . S
C3102 H3165 0.961 . S
C3102 H3166 0.959 . S
C3102 H3167 0.959 . S
C3103 C3100 1.603 . S
C3103 H3168 0.960 . S
C3103 H3169 0.962 . S
C3103 H3170 0.961 . S
C3104 C3071 1.587 . S
C3104 C3105 1.360 . S
C3104 C3117 1.412 . S
C3105 C3104 1.360 . S
C3105 C3106 1.365 . S
C3105 H3171 0.929 . S
C3106 C3081 1.553 . S
C3106 C3105 1.365 . S
C3106 C3107 1.404 . S
C3107 C3106 1.404 . S
C3107 C3108 1.395 . S
C3107 C3118 1.451 . S
C3108 C3107 1.395 . S
C3108 C3109 1.322 . S
C3108 H3172 0.930 . S
C3109 C3108 1.322 . S
C3109 C3110 1.459 . S
C3109 H3173 0.929 . S
C3110 C3109 1.459 . S
C3110 C3111 1.445 . S
C3110 C3119 1.395 . S
C3111 C3089 1.432 . S
C3111 C3110 1.445 . S
C3111 C3112 1.370 . S
C3112 C3111 1.370 . S
C3112 C3113 1.438 . S
C3112 H3174 0.930 . S
C3113 C3099 1.497 1_655 S
C3113 C3112 1.438 . S
C3113 C3114 1.360 . S
C3114 C3113 1.360 . S
C3114 C3115 1.401 . S
C3114 C3119 1.446 . S
C3115 C3114 1.401 . S
C3115 C3116 1.347 . S
C3115 H3175 0.929 . S
C3116 C3115 1.347 . S
C3116 C3117 1.455 . S
C3116 H3176 0.930 . S
C3117 C3104 1.412 . S
C3117 C3116 1.455 . S
C3117 C3118 1.331 . S
C3118 C3107 1.451 . S
C3118 C3117 1.331 . S
C3118 C3119 1.497 . S
C3119 C3110 1.395 . S
C3119 C3114 1.446 . S
C3119 C3118 1.497 . S
C3120 C3121 1.582 1_655 S
C3120 H3177 0.933 1_655 S
C3120 H3178 0.959 . S
C3120 H3179 0.958 . S
C3121 C3120 1.582 1_455 S
C3121 O3124 1.458 1_455 S
C3121 H3150 0.980 . S
O3122 C3067 1.426 . S
O3122 C3068 1.334 . S
O3123 C3095 1.412 . S
O3123 C3096 1.393 . S
O3124 C3086 1.435 . S
O3124 C3121 1.458 1_655 S
O3125 C3077 1.468 . S
O3125 C3078 1.408 . S
H3126 C3067 0.980 1_655 S
H3127 C3066 0.959 . S
H3128 C3066 0.959 . S
H3129 C3066 0.960 . S
H3130 C3069 0.929 . S
H3131 C3073 0.929 . S
H3132 C3074 0.959 . S
H3133 C3074 0.961 . S
H3134 C3074 0.961 . S
H3135 C3075 0.960 . S
H3136 C3075 0.960 . S
H3137 C3075 0.961 . S
H3138 C3077 0.980 . S
H3139 C3076 0.961 . S
H3140 C3076 0.960 . S
H3141 C3076 0.959 . S
H3142 C3079 0.929 . S
H3143 C3083 0.931 . S
H3144 C3084 0.959 . S
H3145 C3084 0.961 . S
H3146 C3084 0.959 . S
H3147 C3085 0.960 . S
H3148 C3085 0.960 . S
H3149 C3085 0.960 . S
H3150 C3121 0.980 . S
H3151 C3087 0.930 . S
H3152 C3091 0.930 . S
H3153 C3092 0.961 . S
H3154 C3092 0.960 . S
H3155 C3092 0.958 . S
H3156 C3093 0.961 . S
H3157 C3093 0.960 . S
H3158 C3093 0.960 . S
H3159 C3095 0.997 . S
H3160 C3094 0.961 . S
H3161 C3094 0.961 . S
H3162 C3094 0.959 . S
H3163 C3097 0.932 . S
H3164 C3101 0.929 . S
H3165 C3102 0.961 . S
H3166 C3102 0.959 . S
H3167 C3102 0.959 . S
H3168 C3103 0.960 . S
H3169 C3103 0.962 . S
H3170 C3103 0.961 . S
H3171 C3105 0.929 . S
H3172 C3108 0.930 . S
H3173 C3109 0.929 . S
H3174 C3112 0.930 . S
H3175 C3115 0.929 . S
H3176 C3116 0.930 . S
H3177 C3120 0.933 1_455 S
H3178 C3120 0.959 . S
H3179 C3120 0.958 . S
C3180 C3181 1.560 . S
C3180 H3241 0.959 . S
C3180 H3242 0.959 . S
C3180 H3243 0.960 . S
C3181 C3180 1.560 . S
C3181 O3236 1.426 . S
C3181 H3240 0.980 . S
C3182 C3183 1.407 . S
C3182 C3187 1.418 . S
C3182 O3236 1.334 . S
C3183 C3182 1.407 . S
C3183 C3184 1.360 . S
C3183 H3244 0.929 . S
C3184 C3183 1.360 . S
C3184 C3185 1.401 . S
C3184 C3188 1.527 . S
C3185 C3184 1.401 . S
C3185 C3186 1.405 . S
C3185 C3218 1.587 . S
C3186 C3185 1.405 . S
C3186 C3187 1.332 . S
C3186 C3189 1.496 . S
C3187 C3182 1.418 . S
C3187 C3186 1.332 . S
C3187 H3245 0.929 . S
C3188 C3184 1.527 . S
C3188 H3246 0.959 . S
C3188 H3247 0.961 . S
C3188 H3248 0.961 . S
C3189 C3186 1.496 . S
C3189 H3249 0.960 . S
C3189 H3250 0.960 . S
C3189 H3251 0.961 . S
C3190 C3191 1.517 . S
C3190 H3253 0.961 . S
C3190 H3254 0.960 . S
C3190 H3255 0.959 . S
C3191 C3190 1.517 . S
C3191 O3239 1.468 . S
C3191 H3252 0.980 . S
C3192 C3193 1.349 . S
C3192 C3197 1.367 . S
C3192 O3239 1.408 . S
C3193 C3192 1.349 . S
C3193 C3194 1.407 . S
C3193 H3256 0.930 . S
C3194 C3193 1.407 . S
C3194 C3195 1.449 . S
C3194 C3198 1.535 . S
C3195 C3194 1.449 . S
C3195 C3196 1.384 . S
C3195 C3220 1.553 . S
C3196 C3195 1.384 . S
C3196 C3197 1.364 . S
C3196 C3199 1.450 . S
C3197 C3192 1.367 . S
C3197 C3196 1.364 . S
C3197 H3257 0.931 . S
C3198 C3194 1.535 . S
C3198 H3258 0.959 . S
C3198 H3259 0.961 . S
C3198 H3260 0.959 . S
C3199 C3196 1.450 . S
C3199 H3261 0.960 . S
C3199 H3262 0.960 . S
C3199 H3263 0.960 . S
C3200 C3201 1.309 . S
C3200 C3205 1.304 . S
C3200 O3238 1.435 . S
C3201 C3200 1.309 . S
C3201 C3202 1.476 . S
C3201 H3265 0.930 . S
C3202 C3201 1.476 . S
C3202 C3203 1.400 . S
C3202 C3206 1.567 . S
C3203 C3202 1.400 . S
C3203 C3204 1.373 . S
C3203 C3225 1.432 . S
C3204 C3203 1.373 . S
C3204 C3205 1.339 . S
C3204 C3207 1.530 . S
C3205 C3200 1.304 . S
C3205 C3204 1.339 . S
C3205 H3266 0.930 . S
C3206 C3202 1.567 . S
C3206 H3267 0.961 . S
C3206 H3268 0.960 . S
C3206 H3269 0.958 . S
C3207 C3204 1.530 . S
C3207 H3270 0.961 . S
C3207 H3271 0.960 . S
C3207 H3272 0.960 . S
C3208 C3209 1.530 . S
C3208 H3274 0.961 . S
C3208 H3275 0.961 . S
C3208 H3276 0.959 . S
C3209 C3208 1.530 . S
C3209 O3237 1.412 . S
C3209 H3273 0.980 . S
C3210 C3211 1.288 . S
C3210 C3215 1.377 . S
C3210 O3237 1.393 . S
C3211 C3210 1.288 . S
C3211 C3212 1.369 . S
C3211 H3277 0.932 . S
C3212 C3211 1.369 . S
C3212 C3213 1.398 . S
C3212 C3216 1.527 . S
C3213 C3212 1.398 . S
C3213 C3214 1.380 . S
C3213 C3227 1.497 . S
C3214 C3213 1.380 . S
C3214 C3215 1.383 . S
C3214 C3217 1.603 . S
C3215 C3210 1.377 . S
C3215 C3214 1.383 . S
C3215 H3278 0.929 . S
C3216 C3212 1.527 . S
C3216 H3279 0.961 . S
C3216 H3280 0.959 . S
C3216 H3281 0.959 . S
C3217 C3214 1.603 . S
C3217 H3282 0.960 . S
C3217 H3283 0.962 . S
C3217 H3284 0.961 . S
C3218 C3185 1.587 . S
C3218 C3219 1.360 . S
C3218 C3231 1.412 . S
C3219 C3218 1.360 . S
C3219 C3220 1.365 . S
C3219 H3285 0.929 . S
C3220 C3195 1.553 . S
C3220 C3219 1.365 . S
C3220 C3221 1.404 . S
C3221 C3220 1.404 . S
C3221 C3222 1.395 . S
C3221 C3232 1.451 . S
C3222 C3221 1.395 . S
C3222 C3223 1.322 . S
C3222 H3286 0.930 . S
C3223 C3222 1.322 . S
C3223 C3224 1.459 . S
C3223 H3287 0.929 . S
C3224 C3223 1.459 . S
C3224 C3225 1.445 . S
C3224 C3233 1.395 . S
C3225 C3203 1.432 . S
C3225 C3224 1.445 . S
C3225 C3226 1.370 . S
C3226 C3225 1.370 . S
C3226 C3227 1.438 . S
C3226 H3288 0.930 . S
C3227 C3213 1.497 . S
C3227 C3226 1.438 . S
C3227 C3228 1.360 . S
C3228 C3227 1.360 . S
C3228 C3229 1.401 . S
C3228 C3233 1.446 . S
C3229 C3228 1.401 . S
C3229 C3230 1.347 . S
C3229 H3289 0.929 . S
C3230 C3229 1.347 . S
C3230 C3231 1.455 . S
C3230 H3290 0.930 . S
C3231 C3218 1.412 . S
C3231 C3230 1.455 . S
C3231 C3232 1.331 . S
C3232 C3221 1.451 . S
C3232 C3231 1.331 . S
C3232 C3233 1.497 . S
C3233 C3224 1.395 . S
C3233 C3228 1.446 . S
C3233 C3232 1.497 . S
C3234 C3235 1.582 . S
C3234 H3291 0.962 . S
C3234 H3292 0.959 . S
C3234 H3293 0.958 . S
C3235 C3234 1.582 . S
C3235 O3238 1.458 . S
C3235 H3264 0.980 . S
O3236 C3181 1.426 . S
O3236 C3182 1.334 . S
O3237 C3209 1.412 . S
O3237 C3210 1.393 . S
O3238 C3200 1.435 . S
O3238 C3235 1.458 . S
O3239 C3191 1.468 . S
O3239 C3192 1.408 . S
H3240 C3181 0.980 . S
H3241 C3180 0.959 . S
H3242 C3180 0.959 . S
H3243 C3180 0.960 . S
H3244 C3183 0.929 . S
H3245 C3187 0.929 . S
H3246 C3188 0.959 . S
H3247 C3188 0.961 . S
H3248 C3188 0.961 . S
H3249 C3189 0.960 . S
H3250 C3189 0.960 . S
H3251 C3189 0.961 . S
H3252 C3191 0.980 . S
H3253 C3190 0.961 . S
H3254 C3190 0.960 . S
H3255 C3190 0.959 . S
H3256 C3193 0.930 . S
H3257 C3197 0.931 . S
H3258 C3198 0.959 . S
H3259 C3198 0.961 . S
H3260 C3198 0.959 . S
H3261 C3199 0.960 . S
H3262 C3199 0.960 . S
H3263 C3199 0.960 . S
H3264 C3235 0.980 . S
H3265 C3201 0.930 . S
H3266 C3205 0.930 . S
H3267 C3206 0.961 . S
H3268 C3206 0.960 . S
H3269 C3206 0.958 . S
H3270 C3207 0.961 . S
H3271 C3207 0.960 . S
H3272 C3207 0.960 . S
H3273 C3209 0.980 . S
H3274 C3208 0.961 . S
H3275 C3208 0.961 . S
H3276 C3208 0.959 . S
H3277 C3211 0.932 . S
H3278 C3215 0.929 . S
H3279 C3216 0.961 . S
H3280 C3216 0.959 . S
H3281 C3216 0.959 . S
H3282 C3217 0.960 . S
H3283 C3217 0.962 . S
H3284 C3217 0.961 . S
H3285 C3219 0.929 . S
H3286 C3222 0.930 . S
H3287 C3223 0.929 . S
H3288 C3226 0.930 . S
H3289 C3229 0.929 . S
H3290 C3230 0.930 . S
H3291 C3234 0.962 . S
H3292 C3234 0.959 . S
H3293 C3234 0.958 . S
C3294 C3295 1.560 . S
C3294 H3355 0.959 . S
C3294 H3356 0.959 . S
C3294 H3357 0.960 . S
C3295 C3294 1.560 . S
C3295 O3350 1.426 . S
C3295 H3354 0.980 . S
C3296 C3297 1.407 . S
C3296 C3301 1.418 . S
C3296 O3350 1.334 . S
C3297 C3296 1.407 . S
C3297 C3298 1.360 . S
C3297 H3358 0.929 . S
C3298 C3297 1.360 . S
C3298 C3299 1.401 . S
C3298 C3302 1.527 . S
C3299 C3298 1.401 . S
C3299 C3300 1.405 . S
C3299 C3332 1.587 . S
C3300 C3299 1.405 . S
C3300 C3301 1.332 . S
C3300 C3303 1.496 . S
C3301 C3296 1.418 . S
C3301 C3300 1.332 . S
C3301 H3359 0.929 . S
C3302 C3298 1.527 . S
C3302 H3360 0.959 . S
C3302 H3361 0.961 . S
C3302 H3362 0.961 . S
C3303 C3300 1.496 . S
C3303 H3363 0.960 . S
C3303 H3364 0.960 . S
C3303 H3365 0.961 . S
C3304 C3305 1.517 . S
C3304 H3367 0.961 . S
C3304 H3368 0.960 . S
C3304 H3369 0.959 . S
C3305 C3304 1.517 . S
C3305 O3353 1.468 . S
C3305 H3366 0.980 . S
C3306 C3307 1.349 . S
C3306 C3311 1.367 . S
C3306 O3353 1.408 . S
C3307 C3306 1.349 . S
C3307 C3308 1.407 . S
C3307 H3370 0.930 . S
C3308 C3307 1.407 . S
C3308 C3309 1.449 . S
C3308 C3312 1.535 . S
C3309 C3308 1.449 . S
C3309 C3310 1.384 . S
C3309 C3334 1.553 . S
C3310 C3309 1.384 . S
C3310 C3311 1.364 . S
C3310 C3313 1.450 . S
C3311 C3306 1.367 . S
C3311 C3310 1.364 . S
C3311 H3371 0.931 . S
C3312 C3308 1.535 . S
C3312 H3372 0.959 . S
C3312 H3373 0.961 . S
C3312 H3374 0.959 . S
C3313 C3310 1.450 . S
C3313 H3375 0.960 . S
C3313 H3376 0.960 . S
C3313 H3377 0.960 . S
C3314 C3315 1.309 . S
C3314 C3319 1.304 . S
C3314 O3352 1.435 . S
C3315 C3314 1.309 . S
C3315 C3316 1.476 . S
C3315 H3379 0.930 . S
C3316 C3315 1.476 . S
C3316 C3317 1.400 . S
C3316 C3320 1.567 . S
C3317 C3316 1.400 . S
C3317 C3318 1.373 . S
C3317 C3339 1.432 . S
C3318 C3317 1.373 . S
C3318 C3319 1.339 . S
C3318 C3321 1.530 . S
C3319 C3314 1.304 . S
C3319 C3318 1.339 . S
C3319 H3380 0.930 . S
C3320 C3316 1.567 . S
C3320 H3381 0.961 . S
C3320 H3382 0.960 . S
C3320 H3383 0.958 . S
C3321 C3318 1.530 . S
C3321 H3384 0.961 . S
C3321 H3385 0.960 . S
C3321 H3386 0.960 . S
C3322 C3323 1.530 . S
C3322 H3388 0.961 . S
C3322 H3389 0.961 . S
C3322 H3390 0.959 . S
C3323 C3322 1.530 . S
C3323 O3351 1.412 . S
C3323 H3387 0.980 . S
C3324 C3325 1.288 . S
C3324 C3329 1.377 . S
C3324 O3351 1.393 . S
C3325 C3324 1.288 . S
C3325 C3326 1.369 . S
C3325 H3391 0.932 . S
C3326 C3325 1.369 . S
C3326 C3327 1.398 . S
C3326 C3330 1.527 . S
C3327 C3326 1.398 . S
C3327 C3328 1.380 . S
C3327 C3341 1.497 . S
C3328 C3327 1.380 . S
C3328 C3329 1.383 . S
C3328 C3331 1.603 . S
C3329 C3324 1.377 . S
C3329 C3328 1.383 . S
C3329 H3392 0.929 . S
C3330 C3326 1.527 . S
C3330 H3393 0.961 . S
C3330 H3394 0.959 . S
C3330 H3395 0.959 . S
C3331 C3328 1.603 . S
C3331 H3396 0.960 . S
C3331 H3397 0.962 . S
C3331 H3398 0.961 . S
C3332 C3299 1.587 . S
C3332 C3333 1.360 . S
C3332 C3345 1.412 . S
C3333 C3332 1.360 . S
C3333 C3334 1.365 . S
C3333 H3399 0.929 . S
C3334 C3309 1.553 . S
C3334 C3333 1.365 . S
C3334 C3335 1.404 . S
C3335 C3334 1.404 . S
C3335 C3336 1.395 . S
C3335 C3346 1.451 . S
C3336 C3335 1.395 . S
C3336 C3337 1.322 . S
C3336 H3400 0.930 . S
C3337 C3336 1.322 . S
C3337 C3338 1.459 . S
C3337 H3401 0.929 . S
C3338 C3337 1.459 . S
C3338 C3339 1.445 . S
C3338 C3347 1.395 . S
C3339 C3317 1.432 . S
C3339 C3338 1.445 . S
C3339 C3340 1.370 . S
C3340 C3339 1.370 . S
C3340 C3341 1.438 . S
C3340 H3402 0.930 . S
C3341 C3327 1.497 . S
C3341 C3340 1.438 . S
C3341 C3342 1.360 . S
C3342 C3341 1.360 . S
C3342 C3343 1.401 . S
C3342 C3347 1.446 . S
C3343 C3342 1.401 . S
C3343 C3344 1.347 . S
C3343 H3403 0.929 . S
C3344 C3343 1.347 . S
C3344 C3345 1.455 . S
C3344 H3404 0.930 . S
C3345 C3332 1.412 . S
C3345 C3344 1.455 . S
C3345 C3346 1.331 . S
C3346 C3335 1.451 . S
C3346 C3345 1.331 . S
C3346 C3347 1.497 . S
C3347 C3338 1.395 . S
C3347 C3342 1.446 . S
C3347 C3346 1.497 . S
C3348 C3349 1.582 . S
C3348 H3405 0.962 . S
C3348 H3406 0.959 . S
C3348 H3407 0.958 . S
C3349 C3348 1.582 . S
C3349 O3352 1.458 . S
C3349 H3378 0.980 . S
O3350 C3295 1.426 . S
O3350 C3296 1.334 . S
O3351 C3323 1.412 . S
O3351 C3324 1.393 . S
O3352 C3314 1.435 . S
O3352 C3349 1.458 . S
O3353 C3305 1.468 . S
O3353 C3306 1.408 . S
H3354 C3295 0.980 . S
H3355 C3294 0.959 . S
H3356 C3294 0.959 . S
H3357 C3294 0.960 . S
H3358 C3297 0.929 . S
H3359 C3301 0.929 . S
H3360 C3302 0.959 . S
H3361 C3302 0.961 . S
H3362 C3302 0.961 . S
H3363 C3303 0.960 . S
H3364 C3303 0.960 . S
H3365 C3303 0.961 . S
H3366 C3305 0.980 . S
H3367 C3304 0.961 . S
H3368 C3304 0.960 . S
H3369 C3304 0.959 . S
H3370 C3307 0.930 . S
H3371 C3311 0.931 . S
H3372 C3312 0.959 . S
H3373 C3312 0.961 . S
H3374 C3312 0.959 . S
H3375 C3313 0.960 . S
H3376 C3313 0.960 . S
H3377 C3313 0.960 . S
H3378 C3349 0.980 . S
H3379 C3315 0.930 . S
H3380 C3319 0.930 . S
H3381 C3320 0.961 . S
H3382 C3320 0.960 . S
H3383 C3320 0.958 . S
H3384 C3321 0.961 . S
H3385 C3321 0.960 . S
H3386 C3321 0.960 . S
H3387 C3323 0.980 . S
H3388 C3322 0.961 . S
H3389 C3322 0.961 . S
H3390 C3322 0.959 . S
H3391 C3325 0.932 . S
H3392 C3329 0.929 . S
H3393 C3330 0.961 . S
H3394 C3330 0.959 . S
H3395 C3330 0.959 . S
H3396 C3331 0.960 . S
H3397 C3331 0.962 . S
H3398 C3331 0.961 . S
H3399 C3333 0.929 . S
H3400 C3336 0.930 . S
H3401 C3337 0.929 . S
H3402 C3340 0.930 . S
H3403 C3343 0.929 . S
H3404 C3344 0.930 . S
H3405 C3348 0.962 . S
H3406 C3348 0.959 . S
H3407 C3348 0.958 . S
C3408 C3409 1.560 . S
C3408 H3469 0.959 . S
C3408 H3470 0.959 . S
C3408 H3471 0.960 . S
C3409 C3408 1.560 . S
C3409 O3464 1.426 . S
C3409 H3468 0.980 . S
C3410 C3411 1.407 . S
C3410 C3415 1.418 . S
C3410 O3464 1.334 . S
C3411 C3410 1.407 . S
C3411 C3412 1.360 . S
C3411 H3472 0.929 . S
C3412 C3411 1.360 . S
C3412 C3413 1.401 . S
C3412 C3416 1.527 . S
C3413 C3412 1.401 . S
C3413 C3414 1.405 . S
C3413 C3446 1.587 . S
C3414 C3413 1.405 . S
C3414 C3415 1.332 . S
C3414 C3417 1.496 . S
C3415 C3410 1.418 . S
C3415 C3414 1.332 . S
C3415 H3473 0.929 . S
C3416 C3412 1.527 . S
C3416 H3474 0.959 . S
C3416 H3475 0.961 . S
C3416 H3476 0.961 . S
C3417 C3414 1.496 . S
C3417 H3477 0.960 . S
C3417 H3478 0.960 . S
C3417 H3479 0.961 . S
C3418 C3419 1.517 . S
C3418 H3481 0.961 . S
C3418 H3482 0.960 . S
C3418 H3483 0.959 . S
C3419 C3418 1.517 . S
C3419 O3467 1.468 . S
C3419 H3480 0.980 . S
C3420 C3421 1.349 . S
C3420 C3425 1.367 . S
C3420 O3467 1.408 . S
C3421 C3420 1.349 . S
C3421 C3422 1.407 . S
C3421 H3484 0.930 . S
C3422 C3421 1.407 . S
C3422 C3423 1.449 . S
C3422 C3426 1.535 . S
C3423 C3422 1.449 . S
C3423 C3424 1.384 . S
C3423 C3448 1.553 . S
C3424 C3423 1.384 . S
C3424 C3425 1.364 . S
C3424 C3427 1.450 . S
C3425 C3420 1.367 . S
C3425 C3424 1.364 . S
C3425 H3485 0.931 . S
C3426 C3422 1.535 . S
C3426 H3486 0.959 . S
C3426 H3487 0.961 . S
C3426 H3488 0.959 . S
C3427 C3424 1.450 . S
C3427 H3489 0.960 . S
C3427 H3490 0.960 . S
C3427 H3491 0.960 . S
C3428 C3429 1.309 . S
C3428 C3433 1.304 . S
C3428 O3466 1.435 . S
C3429 C3428 1.309 . S
C3429 C3430 1.476 . S
C3429 H3493 0.930 . S
C3430 C3429 1.476 . S
C3430 C3431 1.400 . S
C3430 C3434 1.567 . S
C3431 C3430 1.400 . S
C3431 C3432 1.373 . S
C3431 C3453 1.432 . S
C3432 C3431 1.373 . S
C3432 C3433 1.339 . S
C3432 C3435 1.530 . S
C3433 C3428 1.304 . S
C3433 C3432 1.339 . S
C3433 H3494 0.930 . S
C3434 C3430 1.567 . S
C3434 H3495 0.961 . S
C3434 H3496 0.960 . S
C3434 H3497 0.958 . S
C3435 C3432 1.530 . S
C3435 H3498 0.961 . S
C3435 H3499 0.960 . S
C3435 H3500 0.960 . S
C3436 C3437 1.530 . S
C3436 H3502 0.961 . S
C3436 H3503 0.961 . S
C3436 H3504 0.959 . S
C3437 C3436 1.530 . S
C3437 O3465 1.412 . S
C3437 H3501 0.980 . S
C3438 C3439 1.288 . S
C3438 C3443 1.377 . S
C3438 O3465 1.393 . S
C3439 C3438 1.288 . S
C3439 C3440 1.369 . S
C3439 H3505 0.932 . S
C3440 C3439 1.369 . S
C3440 C3441 1.398 . S
C3440 C3444 1.527 . S
C3441 C3440 1.398 . S
C3441 C3442 1.380 . S
C3441 C3455 1.497 . S
C3442 C3441 1.380 . S
C3442 C3443 1.383 . S
C3442 C3445 1.603 . S
C3443 C3438 1.377 . S
C3443 C3442 1.383 . S
C3443 H3506 0.929 . S
C3444 C3440 1.527 . S
C3444 H3507 0.961 . S
C3444 H3508 0.959 . S
C3444 H3509 0.959 . S
C3445 C3442 1.603 . S
C3445 H3510 0.960 . S
C3445 H3511 0.962 . S
C3445 H3512 0.961 . S
C3446 C3413 1.587 . S
C3446 C3447 1.360 . S
C3446 C3459 1.412 . S
C3447 C3446 1.360 . S
C3447 C3448 1.365 . S
C3447 H3513 0.929 . S
C3448 C3423 1.553 . S
C3448 C3447 1.365 . S
C3448 C3449 1.404 . S
C3449 C3448 1.404 . S
C3449 C3450 1.395 . S
C3449 C3460 1.451 . S
C3450 C3449 1.395 . S
C3450 C3451 1.322 . S
C3450 H3514 0.930 . S
C3451 C3450 1.322 . S
C3451 C3452 1.459 . S
C3451 H3515 0.929 . S
C3452 C3451 1.459 . S
C3452 C3453 1.445 . S
C3452 C3461 1.395 . S
C3453 C3431 1.432 . S
C3453 C3452 1.445 . S
C3453 C3454 1.370 . S
C3454 C3453 1.370 . S
C3454 C3455 1.438 . S
C3454 H3516 0.930 . S
C3455 C3441 1.497 . S
C3455 C3454 1.438 . S
C3455 C3456 1.360 . S
C3456 C3455 1.360 . S
C3456 C3457 1.401 . S
C3456 C3461 1.446 . S
C3457 C3456 1.401 . S
C3457 C3458 1.347 . S
C3457 H3517 0.929 . S
C3458 C3457 1.347 . S
C3458 C3459 1.455 . S
C3458 H3518 0.930 . S
C3459 C3446 1.412 . S
C3459 C3458 1.455 . S
C3459 C3460 1.331 . S
C3460 C3449 1.451 . S
C3460 C3459 1.331 . S
C3460 C3461 1.497 . S
C3461 C3452 1.395 . S
C3461 C3456 1.446 . S
C3461 C3460 1.497 . S
C3462 C3463 1.582 . S
C3462 H3519 0.962 . S
C3462 H3520 0.959 . S
C3462 H3521 0.958 . S
C3463 C3462 1.582 . S
C3463 O3466 1.458 . S
C3463 H3492 0.980 . S
O3464 C3409 1.426 . S
O3464 C3410 1.334 . S
O3465 C3437 1.412 . S
O3465 C3438 1.393 . S
O3466 C3428 1.435 . S
O3466 C3463 1.458 . S
O3467 C3419 1.468 . S
O3467 C3420 1.408 . S
H3468 C3409 0.980 . S
H3469 C3408 0.959 . S
H3470 C3408 0.959 . S
H3471 C3408 0.960 . S
H3472 C3411 0.929 . S
H3473 C3415 0.929 . S
H3474 C3416 0.959 . S
H3475 C3416 0.961 . S
H3476 C3416 0.961 . S
H3477 C3417 0.960 . S
H3478 C3417 0.960 . S
H3479 C3417 0.961 . S
H3480 C3419 0.980 . S
H3481 C3418 0.961 . S
H3482 C3418 0.960 . S
H3483 C3418 0.959 . S
H3484 C3421 0.930 . S
H3485 C3425 0.931 . S
H3486 C3426 0.959 . S
H3487 C3426 0.961 . S
H3488 C3426 0.959 . S
H3489 C3427 0.960 . S
H3490 C3427 0.960 . S
H3491 C3427 0.960 . S
H3492 C3463 0.980 . S
H3493 C3429 0.930 . S
H3494 C3433 0.930 . S
H3495 C3434 0.961 . S
H3496 C3434 0.960 . S
H3497 C3434 0.958 . S
H3498 C3435 0.961 . S
H3499 C3435 0.960 . S
H3500 C3435 0.960 . S
H3501 C3437 0.980 . S
H3502 C3436 0.961 . S
H3503 C3436 0.961 . S
H3504 C3436 0.959 . S
H3505 C3439 0.932 . S
H3506 C3443 0.929 . S
H3507 C3444 0.961 . S
H3508 C3444 0.959 . S
H3509 C3444 0.959 . S
H3510 C3445 0.960 . S
H3511 C3445 0.962 . S
H3512 C3445 0.961 . S
H3513 C3447 0.929 . S
H3514 C3450 0.930 . S
H3515 C3451 0.929 . S
H3516 C3454 0.930 . S
H3517 C3457 0.929 . S
H3518 C3458 0.930 . S
H3519 C3462 0.962 . S
H3520 C3462 0.959 . S
H3521 C3462 0.958 . S
C3522 C3523 1.560 . S
C3522 H3583 0.959 . S
C3522 H3584 0.959 . S
C3522 H3585 0.960 . S
C3523 C3522 1.560 . S
C3523 O3578 1.426 . S
C3523 H3582 0.980 . S
C3524 C3525 1.407 . S
C3524 C3529 1.418 . S
C3524 O3578 1.334 . S
C3525 C3524 1.407 . S
C3525 C3526 1.360 . S
C3525 H3586 0.929 . S
C3526 C3525 1.360 . S
C3526 C3527 1.401 . S
C3526 C3530 1.527 . S
C3527 C3526 1.401 . S
C3527 C3528 1.405 . S
C3527 C3560 1.587 . S
C3528 C3527 1.405 . S
C3528 C3529 1.332 . S
C3528 C3531 1.496 . S
C3529 C3524 1.418 . S
C3529 C3528 1.332 . S
C3529 H3587 0.929 . S
C3530 C3526 1.527 . S
C3530 H3588 0.959 . S
C3530 H3589 0.961 . S
C3530 H3590 0.961 . S
C3531 C3528 1.496 . S
C3531 H3591 0.960 . S
C3531 H3592 0.960 . S
C3531 H3593 0.961 . S
C3532 C3533 1.517 . S
C3532 H3595 0.961 . S
C3532 H3596 0.960 . S
C3532 H3597 0.959 . S
C3533 C3532 1.517 . S
C3533 O3581 1.468 . S
C3533 H3594 0.980 . S
C3534 C3535 1.349 . S
C3534 C3539 1.367 . S
C3534 O3581 1.408 . S
C3535 C3534 1.349 . S
C3535 C3536 1.407 . S
C3535 H3598 0.930 . S
C3536 C3535 1.407 . S
C3536 C3537 1.449 . S
C3536 C3540 1.535 . S
C3537 C3536 1.449 . S
C3537 C3538 1.384 . S
C3537 C3562 1.553 . S
C3538 C3537 1.384 . S
C3538 C3539 1.364 . S
C3538 C3541 1.450 . S
C3539 C3534 1.367 . S
C3539 C3538 1.364 . S
C3539 H3599 0.931 . S
C3540 C3536 1.535 . S
C3540 H3600 0.959 . S
C3540 H3601 0.961 . S
C3540 H3602 0.959 . S
C3541 C3538 1.450 . S
C3541 H3603 0.960 . S
C3541 H3604 0.960 . S
C3541 H3605 0.960 . S
C3542 C3543 1.309 . S
C3542 C3547 1.304 . S
C3542 O3580 1.435 . S
C3543 C3542 1.309 . S
C3543 C3544 1.476 . S
C3543 H3607 0.930 . S
C3544 C3543 1.476 . S
C3544 C3545 1.400 . S
C3544 C3548 1.567 . S
C3545 C3544 1.400 . S
C3545 C3546 1.373 . S
C3545 C3567 1.432 . S
C3546 C3545 1.373 . S
C3546 C3547 1.339 . S
C3546 C3549 1.530 . S
C3547 C3542 1.304 . S
C3547 C3546 1.339 . S
C3547 H3608 0.930 . S
C3548 C3544 1.567 . S
C3548 H3609 0.961 . S
C3548 H3610 0.960 . S
C3548 H3611 0.958 . S
C3549 C3546 1.530 . S
C3549 H3612 0.961 . S
C3549 H3613 0.960 . S
C3549 H3614 0.960 . S
C3550 C3551 1.530 . S
C3550 H3616 0.961 . S
C3550 H3617 0.961 . S
C3550 H3618 0.959 . S
C3551 C3550 1.530 . S
C3551 O3579 1.412 . S
C3551 H3615 0.980 . S
C3552 C3553 1.288 . S
C3552 C3557 1.377 . S
C3552 O3579 1.393 . S
C3553 C3552 1.288 . S
C3553 C3554 1.369 . S
C3553 H3619 0.932 . S
C3554 C3553 1.369 . S
C3554 C3555 1.398 . S
C3554 C3558 1.527 . S
C3555 C3554 1.398 . S
C3555 C3556 1.380 . S
C3555 C3569 1.497 . S
C3556 C3555 1.380 . S
C3556 C3557 1.383 . S
C3556 C3559 1.603 . S
C3557 C3552 1.377 . S
C3557 C3556 1.383 . S
C3557 H3620 0.929 . S
C3558 C3554 1.527 . S
C3558 H3621 0.961 . S
C3558 H3622 0.959 . S
C3558 H3623 0.959 . S
C3559 C3556 1.603 . S
C3559 H3624 0.960 . S
C3559 H3625 0.962 . S
C3559 H3626 0.961 . S
C3560 C3527 1.587 . S
C3560 C3561 1.360 . S
C3560 C3573 1.412 . S
C3561 C3560 1.360 . S
C3561 C3562 1.365 . S
C3561 H3627 0.929 . S
C3562 C3537 1.553 . S
C3562 C3561 1.365 . S
C3562 C3563 1.404 . S
C3563 C3562 1.404 . S
C3563 C3564 1.395 . S
C3563 C3574 1.451 . S
C3564 C3563 1.395 . S
C3564 C3565 1.322 . S
C3564 H3628 0.930 . S
C3565 C3564 1.322 . S
C3565 C3566 1.459 . S
C3565 H3629 0.929 . S
C3566 C3565 1.459 . S
C3566 C3567 1.445 . S
C3566 C3575 1.395 . S
C3567 C3545 1.432 . S
C3567 C3566 1.445 . S
C3567 C3568 1.370 . S
C3568 C3567 1.370 . S
C3568 C3569 1.438 . S
C3568 H3630 0.930 . S
C3569 C3555 1.497 . S
C3569 C3568 1.438 . S
C3569 C3570 1.360 . S
C3570 C3569 1.360 . S
C3570 C3571 1.401 . S
C3570 C3575 1.446 . S
C3571 C3570 1.401 . S
C3571 C3572 1.347 . S
C3571 H3631 0.929 . S
C3572 C3571 1.347 . S
C3572 C3573 1.455 . S
C3572 H3632 0.930 . S
C3573 C3560 1.412 . S
C3573 C3572 1.455 . S
C3573 C3574 1.331 . S
C3574 C3563 1.451 . S
C3574 C3573 1.331 . S
C3574 C3575 1.497 . S
C3575 C3566 1.395 . S
C3575 C3570 1.446 . S
C3575 C3574 1.497 . S
C3576 C3577 1.582 . S
C3576 H3633 0.962 . S
C3576 H3634 0.959 . S
C3576 H3635 0.958 . S
C3577 C3576 1.582 . S
C3577 O3580 1.458 . S
C3577 H3606 0.980 . S
O3578 C3523 1.426 . S
O3578 C3524 1.334 . S
O3579 C3551 1.412 . S
O3579 C3552 1.393 . S
O3580 C3542 1.435 . S
O3580 C3577 1.458 . S
O3581 C3533 1.468 . S
O3581 C3534 1.408 . S
H3582 C3523 0.980 . S
H3583 C3522 0.959 . S
H3584 C3522 0.959 . S
H3585 C3522 0.960 . S
H3586 C3525 0.929 . S
H3587 C3529 0.929 . S
H3588 C3530 0.959 . S
H3589 C3530 0.961 . S
H3590 C3530 0.961 . S
H3591 C3531 0.960 . S
H3592 C3531 0.960 . S
H3593 C3531 0.961 . S
H3594 C3533 0.980 . S
H3595 C3532 0.961 . S
H3596 C3532 0.960 . S
H3597 C3532 0.959 . S
H3598 C3535 0.930 . S
H3599 C3539 0.931 . S
H3600 C3540 0.959 . S
H3601 C3540 0.961 . S
H3602 C3540 0.959 . S
H3603 C3541 0.960 . S
H3604 C3541 0.960 . S
H3605 C3541 0.960 . S
H3606 C3577 0.980 . S
H3607 C3543 0.930 . S
H3608 C3547 0.930 . S
H3609 C3548 0.961 . S
H3610 C3548 0.960 . S
H3611 C3548 0.958 . S
H3612 C3549 0.961 . S
H3613 C3549 0.960 . S
H3614 C3549 0.960 . S
H3615 C3551 0.980 . S
H3616 C3550 0.961 . S
H3617 C3550 0.961 . S
H3618 C3550 0.959 . S
H3619 C3553 0.932 . S
H3620 C3557 0.929 . S
H3621 C3558 0.961 . S
H3622 C3558 0.959 . S
H3623 C3558 0.959 . S
H3624 C3559 0.960 . S
H3625 C3559 0.962 . S
H3626 C3559 0.961 . S
H3627 C3561 0.929 . S
H3628 C3564 0.930 . S
H3629 C3565 0.929 . S
H3630 C3568 0.930 . S
H3631 C3571 0.929 . S
H3632 C3572 0.930 . S
H3633 C3576 0.962 . S
H3634 C3576 0.959 . S
H3635 C3576 0.958 . S
C49 C2639 2.103 . S
C137 C2779 1.170 . S
C2867 C205 2.322 . S
C196 C3007 2.296 1_565 S
C57 C3121 2.408 . S
C145 C3209 1.348 . S
C313 C3095 1.858 . S
C3235 C401 1.636 . S
C2981 C489 1.860 . S
C469 C2893 1.809 . S
C2665 C293 1.639 . S
C381 C2753 1.655 . S
C577 C3323 1.543 . S
C645 C3463 1.686 . S
C3551 C733 1.540 . S
C724 C1639 1.428 . S
C585 C1753 1.382 . S
C636 C1841 1.673 . S
C841 C1727 1.699 . S
C937 C1867 2.063 . S
C1613 C1025 1.829 . S
C3577 C988 2.094 . S
C3349 C821 1.972 . S
C3437 C900 2.197 . S
C1105 C1955 1.319 . S
C1193 C2095 1.558 . S
C1281 C2183 1.509 . S
C1289 C2323 1.650 . S
C2437 C1113 1.420 . S
C2525 C1201 1.804 . S
C2411 C1369 1.902 . S
C2551 C1457 2.231 . S
C1553 C2297 1.920 . S
C2209 C1516 1.893 . S
C1349 C1981 1.848 . S
C2069 C1437 2.030 . S
C1595 C29 2.930 . S
C117 C1709 2.651 . S
C1813 C225 3.085 . S
C1927 C233 2.837 . S
C2051 C20 2.936 . S
C2155 C108 2.780 . S
C321 C2165 4.211 . S
C409 C1937 4.019 . S
C497 C2041 4.414 . S
C460 C1699 4.109 . S
C1823 C284 4.379 . S
C372 C1585 4.034 . S
C2279 C557 2.485 . S
C665 C2393 2.247 . S
C753 C2497 2.569 . S
C2611 C761 0.818 . S
C548 C2735 2.367 . S
C673 C2839 0.738 . S
C849 C2849 1.181 1_565 S
C929 C2621 1.225 1_455 S
C2725 C1017 3.802 . S
C997 C2383 3.904 . S
C812 C2507 3.661 . S
C2269 C909 3.674 . S
C2963 C1085 0.324 . S
C1173 C3077 0.514 . S
C1261 C3181 2.533 . S
C3295 C1252 2.652 . S
C3419 C1076 2.334 . S
C1164 C3523 2.436 . S
C1377 C3533 3.871 . S
C1465 C3305 3.602 . S
C3409 C1545 3.780 . S
C3067 C1525 1.348 1_455 S
C3191 C1340 3.737 . S
C1428 C2953 1.266 1_545 S
