# Generated by pormake.
# Topology anh, (6,3)-cn, num edge types: 1
# Building blocks:
#     Node 0, Type 0, BuildingBlock: INOVEN_clean_sbu_0, # of connection points: 6
#     Node 1, Type 0, BuildingBlock: INOVEN_clean_sbu_0, # of connection points: 6
#     Node 2, Type 0, BuildingBlock: INOVEN_clean_sbu_0, # of connection points: 6
#     Node 3, Type 1, BuildingBlock: QEWDON_clean_linker_0, # of connection points: 3
#     Node 4, Type 1, BuildingBlock: QEWDON_clean_linker_0, # of connection points: 3
#     Node 5, Type 1, BuildingBlock: QEWDON_clean_linker_0, # of connection points: 3
#     Node 6, Type 1, BuildingBlock: QEWDON_clean_linker_0, # of connection points: 3
#     Node 7, Type 1, BuildingBlock: QEWDON_clean_linker_0, # of connection points: 3
#     Node 8, Type 1, BuildingBlock: QEWDON_clean_linker_0, # of connection points: 3
#     Edge 9, Type (0, 1), BuildingBlock: MIFKUJ_clean_linker_0, # of connection points: 2
#     Edge 10, Type (0, 1), BuildingBlock: MIFKUJ_clean_linker_0, # of connection points: 2
#     Edge 11, Type (0, 1), BuildingBlock: MIFKUJ_clean_linker_0, # of connection points: 2
#     Edge 12, Type (0, 1), BuildingBlock: MIFKUJ_clean_linker_0, # of connection points: 2
#     Edge 13, Type (0, 1), BuildingBlock: MIFKUJ_clean_linker_0, # of connection points: 2
#     Edge 14, Type (0, 1), BuildingBlock: MIFKUJ_clean_linker_0, # of connection points: 2
#     Edge 15, Type (0, 1), BuildingBlock: MIFKUJ_clean_linker_0, # of connection points: 2
#     Edge 16, Type (0, 1), BuildingBlock: MIFKUJ_clean_linker_0, # of connection points: 2
#     Edge 17, Type (0, 1), BuildingBlock: MIFKUJ_clean_linker_0, # of connection points: 2
#     Edge 18, Type (0, 1), BuildingBlock: MIFKUJ_clean_linker_0, # of connection points: 2
#     Edge 19, Type (0, 1), BuildingBlock: MIFKUJ_clean_linker_0, # of connection points: 2
#     Edge 20, Type (0, 1), BuildingBlock: MIFKUJ_clean_linker_0, # of connection points: 2
#     Edge 21, Type (0, 1), BuildingBlock: MIFKUJ_clean_linker_0, # of connection points: 2
#     Edge 22, Type (0, 1), BuildingBlock: MIFKUJ_clean_linker_0, # of connection points: 2
#     Edge 23, Type (0, 1), BuildingBlock: MIFKUJ_clean_linker_0, # of connection points: 2
#     Edge 24, Type (0, 1), BuildingBlock: MIFKUJ_clean_linker_0, # of connection points: 2
#     Edge 25, Type (0, 1), BuildingBlock: MIFKUJ_clean_linker_0, # of connection points: 2
#     Edge 26, Type (0, 1), BuildingBlock: MIFKUJ_clean_linker_0, # of connection points: 2
# Relax obj value: 0.104
# Max RMSD: 0.160
# Mean RMSD: 0.123
data_MOF--net-anh--node1-INOVEN_clean_sbu_0--node2-QEWDON_clean_linker_0--edge1-MIFKUJ_clean_linker_0
_symmetry_space_group_name_H-M    P1
_symmetry_Int_Tables_number       1
_symmetry_cell_setting            triclinic
loop_
_symmetry_equiv_pos_as_xyz
'x, y, z'
_cell_length_a     41.498722
_cell_length_b     48.496266
_cell_length_c     62.614905
_cell_angle_alpha  97.267898
_cell_angle_beta   91.364646
_cell_angle_gamma 127.9074
loop_
_atom_site_label
_atom_site_type_symbol
_atom_site_fract_x
_atom_site_fract_y
_atom_site_fract_z
_atom_type_partial_charge
Gd0 Gd 0.10005 0.54861 0.14375 0.0
Gd1 Gd 1.05591 0.57713 0.16229 0.0
C2 C 0.15141 0.63295 0.15789 0.0
C3 C 0.13057 0.52405 0.1206 0.0
C4 C 0.17281 0.53665 0.12033 0.0
C5 C 0.20492 0.56815 0.13411 0.0
C6 C 0.18116 0.51681 0.10708 0.0
C7 C 0.25338 0.55869 0.12257 0.0
C8 C 0.22125 0.5278 0.10814 0.0
C9 C 0.24488 0.57908 0.13525 0.0
C10 C 0.11161 0.56622 0.18751 0.0
C11 C 1.00398 0.4914 0.14973 0.0
C12 C 1.01443 0.58942 0.18571 0.0
C13 C 0.97992 0.56638 0.19763 0.0
C14 C 0.95598 0.576 0.20507 0.0
C15 C 0.9678 0.53268 0.19932 0.0
C16 C 0.90497 0.51648 0.21259 0.0
C17 C 0.93038 0.50777 0.20652 0.0
C18 C 0.91879 0.55124 0.2127 0.0
C19 C 0.06611 0.57965 0.11995 0.0
O20 O 0.14706 0.60752 0.14407 0.0
O21 O 0.12209 0.62615 0.16972 0.0
O22 O 0.11464 0.5127 0.13835 0.0
O23 O 0.12363 0.54478 0.11406 0.0
O24 O 0.13988 0.57048 0.17633 0.0
O25 O 0.07881 0.55137 0.17512 0.0
O26 O 1.00428 0.51824 0.1574 0.0
O27 O 1.03676 0.49633 0.14277 0.0
O28 O 1.00603 0.5799 0.16453 0.0
O29 O 1.04992 0.59816 0.19321 0.0
O30 O 0.06825 0.60397 0.13299 0.0
O31 O 1.05668 0.55492 0.12966 0.0
H32 H 0.19883 0.58377 0.14444 0.0
H33 H 0.15663 0.49258 0.09623 0.0
H34 H 0.22697 0.51185 0.09791 0.0
H35 H 0.26872 0.60271 0.14673 0.0
H36 H 0.96486 0.60188 0.20386 0.0
H37 H 0.98599 0.52481 0.19394 0.0
H38 H 0.92019 0.48108 0.20608 0.0
H39 H 0.89932 0.55836 0.217 0.0
Gd40 Gd 0.63588 0.06396 0.48406 0.0
Gd41 Gd 0.57928 0.08234 0.47733 0.0
C42 C 0.53621 1.00149 0.47586 0.0
C43 C 0.67175 0.03868 0.496 0.0
C44 C 0.66 1.0044 0.49991 0.0
C45 C 0.68211 0.99325 0.49163 0.0
C46 C 0.6268 0.98233 0.51127 0.0
C47 C 0.63797 0.93825 0.50575 0.0
C48 C 0.61603 0.94959 0.51427 0.0
C49 C 0.67117 0.96049 0.49445 0.0
C50 C 0.62216 0.06929 0.44309 0.0
C51 C 0.67982 0.14553 0.48543 0.0
C52 C 0.54443 0.10817 0.46489 0.0
C53 C 0.55272 0.14288 0.4691 0.0
C54 C 0.52476 0.14533 0.47947 0.0
C55 C 0.58824 0.17368 0.46341 0.0
C56 C 0.56834 0.2089 0.47942 0.0
C57 C 0.59587 0.20638 0.46846 0.0
C58 C 0.53252 0.17793 0.48464 0.0
C59 C 0.59203 0.07667 0.51835 0.0
O60 O 0.57203 0.01272 0.48556 0.0
O61 O 0.53286 0.0233 0.4673 0.0
O62 O 0.66538 0.04029 0.47581 0.0
O63 O 0.66248 0.05483 0.50975 0.0
O64 O 0.65778 0.08079 0.45208 0.0
O65 O 0.59541 0.05454 0.45575 0.0
O66 O 0.64273 0.13557 0.47948 0.0
O67 O 0.68536 0.12288 0.4903 0.0
O68 O 0.53449 0.09128 0.48129 0.0
O69 O 0.56911 0.10595 0.45354 0.0
O70 O 0.55711 0.06664 0.50935 0.0
O71 O 0.61919 0.09133 0.50584 0.0
H72 H 0.7078 0.00987 0.48283 0.0
H73 H 0.60902 0.99022 0.51767 0.0
H74 H 0.59007 0.93285 0.52287 0.0
H75 H 0.68891 0.95265 0.4879 0.0
H76 H 0.49698 0.12197 0.48382 0.0
H77 H 0.6104 0.1727 0.45534 0.0
H78 H 0.62376 0.22981 0.46426 0.0
H79 H 0.51034 0.17888 0.49272 0.0
Gd80 Gd 0.66772 0.59757 0.83742 0.0
Gd81 Gd 0.61138 0.52039 0.84236 0.0
C82 C 0.56884 0.55764 0.84159 0.0
C83 C 0.70047 0.65753 0.82487 0.0
C84 C 0.68917 0.6806 0.82282 0.0
C85 C 0.72006 0.7175 0.82659 0.0
C86 C 0.64799 0.66639 0.81756 0.0
C87 C 0.66888 0.72592 0.81976 0.0
C88 C 0.63793 0.68887 0.81596 0.0
C89 C 0.71004 0.73999 0.82512 0.0
C90 C 0.66453 0.58623 0.87853 0.0
C91 C 0.71116 0.5609 0.83961 0.0
C92 C 0.57966 0.46023 0.85429 0.0
C93 C 0.58811 0.43485 0.8505 0.0
C94 C 0.61248 0.43744 0.8345 0.0
C95 C 0.57243 0.40824 0.86307 0.0
C96 C 0.60489 0.3864 0.8434 0.0
C97 C 0.58078 0.38423 0.8596 0.0
C98 C 0.62065 0.41338 0.83091 0.0
C99 C 0.61445 0.53147 0.80113 0.0
O100 O 0.60314 0.58321 0.83431 0.0
O101 O 0.56667 0.53206 0.84892 0.0
O102 O 0.70786 0.65512 0.84468 0.0
O103 O 0.67903 0.627 0.81153 0.0
O104 O 0.69791 0.61166 0.87173 0.0
O105 O 0.63447 0.56971 0.86379 0.0
O106 O 0.67516 0.53342 0.84442 0.0
O107 O 0.71519 0.58838 0.83411 0.0
O108 O 0.56415 0.46334 0.83717 0.0
O109 O 0.60894 0.49087 0.8664 0.0
O110 O 0.58134 0.50598 0.80805 0.0
O111 O 0.64464 0.54811 0.81584 0.0
H112 H 0.75199 0.72894 0.83069 0.0
H113 H 0.62364 0.63797 0.81459 0.0
H114 H 0.60593 0.6773 0.81196 0.0
H115 H 0.73458 0.76841 0.82789 0.0
H116 H 0.62496 0.45797 0.82467 0.0
H117 H 0.55394 0.40614 0.87566 0.0
H118 H 0.56876 0.36428 0.8698 0.0
H119 H 0.63872 0.4156 0.81807 0.0
H120 H 0.58875 0.10503 0.20884 0.0
C121 C 0.56507 0.07684 0.20307 0.0
C122 C 0.54511 0.0545 0.21834 0.0
C123 C 0.55289 0.06308 0.1806 0.0
H124 H 0.49743 1.00119 0.22316 0.0
C125 C 0.51281 0.0183 0.21127 0.0
C126 C 0.50069 1.00375 0.18912 0.0
C127 C 0.52143 0.02604 0.17387 0.0
C128 C 0.5701 0.08749 0.16431 0.0
H129 H 0.512 0.01451 0.15677 0.0
C130 C 0.6109 0.11997 0.16784 0.0
C131 C 0.62488 0.14385 0.15313 0.0
C132 C 0.54436 0.07928 0.14547 0.0
H133 H 0.51259 0.05543 0.14236 0.0
C134 C 0.55862 0.10232 0.13062 0.0
H135 H 0.63148 0.12714 0.18215 0.0
C136 C 0.59841 0.1344 0.13443 0.0
H137 H 0.60853 0.15203 0.12275 0.0
H138 H 0.53839 0.09555 0.11626 0.0
H139 H 0.57761 0.5851 0.57246 0.0
C140 C 0.58409 0.56753 0.56566 0.0
C141 C 0.60315 0.55918 0.57933 0.0
C142 C 0.57179 0.55205 0.5435 0.0
H143 H 0.62371 0.52818 0.58153 0.0
C144 C 0.60987 0.53518 0.57079 0.0
C145 C 0.59675 0.51856 0.54889 0.0
C146 C 0.57856 0.52777 0.53527 0.0
C147 C 0.54915 0.55905 0.52927 0.0
H148 H 0.56827 0.51504 0.51836 0.0
C149 C 0.56129 0.59357 0.53034 0.0
C150 C 0.54 0.59983 0.51644 0.0
C151 C 0.51483 0.53085 0.51447 0.0
H152 H 0.50401 0.5039 0.51359 0.0
C153 C 0.49356 0.53693 0.50083 0.0
H154 H 0.58788 0.61565 0.5415 0.0
C155 C 0.50608 0.57113 0.50171 0.0
H156 H 0.48884 0.57509 0.49104 0.0
H157 H 0.46715 0.51499 0.48956 0.0
H158 H 0.1556 0.56423 0.8879 0.0
C159 C 0.1324 0.5648 0.88026 0.0
C160 C 0.10964 0.57069 0.89364 0.0
C161 C 0.12488 0.5591 0.85741 0.0
H162 H 1.05981 0.57343 0.89483 0.0
C163 C 0.07793 0.56992 0.88434 0.0
C164 C 0.06827 0.56377 0.86185 0.0
C165 C 0.09242 0.55907 0.8484 0.0
C166 C 0.14893 0.551 0.84327 0.0
H167 H 0.08549 0.55529 0.83104 0.0
C168 C 0.18887 0.56101 0.8504 0.0
C169 C 0.2092 0.55202 0.83632 0.0
C170 C 0.1305 0.53121 0.82214 0.0
H171 H 0.09995 0.52128 0.81599 0.0
C172 C 0.15025 0.5226 0.80849 0.0
H173 H 0.20454 0.57623 0.86644 0.0
C174 C 0.1889 0.53291 0.81538 0.0
H175 H 0.20282 0.52527 0.80423 0.0
H176 H 0.13513 0.50735 0.79236 0.0
H177 H 0.06374 0.54626 0.42501 0.0
C178 C 0.09236 0.57217 0.43168 0.0
C179 C 0.12221 0.59142 0.41791 0.0
C180 C 0.09884 0.58688 0.45377 0.0
H181 H 0.18063 0.64123 0.41554 0.0
C182 C 0.15826 0.62575 0.42627 0.0
C183 C 0.16526 0.64108 0.44805 0.0
C184 C 0.13607 0.62123 0.46187 0.0
C185 C 0.06561 0.56797 0.46795 0.0
H186 H 0.1418 0.63316 0.47876 0.0
C187 C 1.03992 0.53059 0.4665 0.0
C188 C 1.00873 0.51356 0.48011 0.0
C189 C 1.05881 0.58766 0.48288 0.0
H190 H 0.07681 0.6161 0.48402 0.0
C191 C 1.02804 0.57093 0.49624 0.0
H192 H 1.04469 0.5149 0.45521 0.0
C193 C 1.00326 0.53428 0.49494 0.0
H194 H 0.97918 0.52203 0.50532 0.0
H195 H 1.02313 0.58647 0.50756 0.0
H196 H 0.60593 0.0189 0.74825 0.0
C197 C 0.61381 0.04391 0.75612 0.0
C198 C 0.62751 0.07105 0.74403 0.0
C199 C 0.60881 0.04854 0.7781 0.0
H200 H 0.64485 0.1232 0.7446 0.0
C201 C 0.63629 0.10296 0.75413 0.0
C202 C 0.63088 0.10779 0.77593 0.0
C203 C 0.61796 0.08077 0.78787 0.0
C204 C 0.59179 0.01933 0.79076 0.0
H205 H 0.61455 0.08475 0.80484 0.0
C206 C 0.60528 0.99871 0.78966 0.0
C207 C 0.59062 0.97282 0.80288 0.0
C208 C 0.56232 0.01258 0.8046 0.0
H209 H 0.55056 0.02732 0.80544 0.0
C210 C 0.54756 0.98667 0.81752 0.0
H211 H 0.62806 1.00356 0.77918 0.0
C212 C 0.56187 0.9671 0.81683 0.0
H213 H 0.55021 0.94719 0.82707 0.0
H214 H 0.52505 0.98185 0.82816 0.0
H215 H 0.63638 0.55317 0.09807 0.0
C216 C 0.6332 0.53238 0.10506 0.0
C217 C 0.62634 0.50338 0.09151 0.0
C218 C 0.6378 0.53555 0.12763 0.0
H219 H 0.61801 0.45462 0.0904 0.0
C220 C 0.62312 0.47696 0.10079 0.0
C221 C 0.62612 0.4793 0.12349 0.0
C222 C 0.634 0.509 0.13674 0.0
C223 C 0.64548 0.56618 0.14182 0.0
H224 H 0.63767 0.51178 0.15427 0.0
C225 C 0.61546 0.57089 0.14128 0.0
C226 C 0.62058 0.59829 0.15579 0.0
C227 C 0.68164 0.58973 0.15653 0.0
H228 H 0.7052 0.58647 0.15709 0.0
C229 C 0.68758 0.61775 0.17054 0.0
H230 H 0.58764 0.5526 0.12982 0.0
C231 C 0.65719 0.62203 0.17026 0.0
H232 H 0.66187 0.64328 0.18169 0.0
H233 H 0.71554 0.63587 0.18186 0.0
H234 H 0.32867 0.62504 0.12856 0.0
H235 H 0.3963 0.64048 0.13761 0.0
H236 H 0.33934 0.52931 0.13242 0.0
H237 H 0.27175 0.5138 0.12434 0.0
H238 H 0.392 0.56782 0.16909 0.0
H239 H 0.39261 0.5772 0.09256 0.0
H240 H 0.38834 0.60126 0.06112 0.0
H241 H 0.49101 0.70673 0.0924 0.0
H242 H 0.49555 0.68332 0.12414 0.0
H243 H 0.5387 0.54397 0.15349 0.0
H244 H 0.4822 0.5467 0.15141 0.0
H245 H 0.56885 0.66082 0.15795 0.0
H246 H 0.62601 0.65808 0.15905 0.0
H247 H 0.50811 0.63313 0.12587 0.0
H248 H 0.51443 0.62225 0.19987 0.0
H249 H 0.51918 0.59811 0.23111 0.0
H250 H 0.4041 0.49629 0.20534 0.0
H251 H 0.3989 0.51964 0.17379 0.0
C252 C 0.3306 0.60391 0.12936 0.0
C253 C 0.29483 0.56818 0.12573 0.0
C254 C 0.36926 0.61277 0.13437 0.0
C255 C 0.37277 0.58602 0.13564 0.0
C256 C 0.33725 0.55036 0.13157 0.0
C257 C 0.29867 0.54151 0.12668 0.0
C258 C 0.41313 0.59477 0.14175 0.0
C259 C 0.41736 0.58194 0.15959 0.0
C260 C 0.44676 0.61459 0.12993 0.0
C261 C 0.4441 0.62857 0.11081 0.0
C262 C 0.41406 0.60555 0.09279 0.0
C263 C 0.41163 0.61907 0.07491 0.0
C264 C 0.4393 0.65552 0.07479 0.0
C265 C 0.46954 0.67852 0.09253 0.0
C266 C 0.47208 0.66514 0.11046 0.0
C267 C 0.54584 0.56969 0.1544 0.0
C268 C 0.58679 0.6008 0.15621 0.0
C269 C 0.5135 0.57126 0.15352 0.0
C270 C 0.52133 0.60401 0.15486 0.0
C271 C 0.5622 0.63529 0.15703 0.0
C272 C 0.59476 0.63372 0.15779 0.0
C273 C 0.48633 0.60479 0.15266 0.0
C274 C 0.48312 0.61959 0.13566 0.0
C275 C 0.4536 0.58683 0.16531 0.0
C276 C 0.45638 0.57271 0.1844 0.0
C277 C 0.49024 0.59465 0.20079 0.0
C278 C 0.493 0.58111 0.21857 0.0
C279 C 0.46198 0.54569 0.2202 0.0
C280 C 0.42809 0.52374 0.20407 0.0
C281 C 0.42518 0.53714 0.18625 0.0
H282 H 0.46419 0.53525 0.23397 0.0
H283 H 0.43737 0.66592 0.06093 0.0
H284 H 0.68411 0.2045 0.49331 0.0
H285 H 0.74304 0.26577 0.49178 0.0
H286 H 0.8154 0.23184 0.47469 0.0
H287 H 0.75733 0.17099 0.47776 0.0
H288 H 0.86283 0.29074 0.49909 0.0
H289 H 0.7659 0.251 0.43635 0.0
H290 H 0.69788 0.22525 0.4173 0.0
H291 H 0.70336 0.31049 0.45212 0.0
H292 H 0.77119 0.33652 0.47161 0.0
H293 H 0.96805 0.46083 0.44394 0.0
H294 H 0.91605 0.39662 0.44287 0.0
H295 H 0.93353 0.41385 0.51286 0.0
H296 H 0.98588 0.47747 0.51397 0.0
H297 H 0.84347 0.36153 0.45792 0.0
H298 H 0.91469 0.34331 0.53071 0.0
H299 H 0.98323 0.36668 0.5476 0.0
H300 H 1.03137 0.39371 0.48714 0.0
H301 H 0.96302 0.37005 0.46981 0.0
C302 C 0.71275 0.21023 0.48944 0.0
C303 C 0.71612 0.18295 0.48567 0.0
C304 C 0.74639 0.24527 0.48832 0.0
C305 C 0.78365 0.25361 0.4825 0.0
C306 C 0.78716 0.22635 0.47915 0.0
C307 C 0.7539 0.1915 0.48091 0.0
C308 C 0.81889 0.29057 0.47988 0.0
C309 C 0.85846 0.30607 0.49002 0.0
C310 C 0.8138 0.31069 0.46767 0.0
C311 C 0.77355 0.29561 0.45551 0.0
C312 C 0.75257 0.26422 0.43997 0.0
C313 C 0.71403 0.24957 0.4291 0.0
C314 C 0.69634 0.26626 0.43349 0.0
C315 C 0.71715 0.29765 0.44872 0.0
C316 C 0.75566 0.31238 0.45966 0.0
C317 C 0.96141 0.45077 0.45905 0.0
C318 C 0.98102 0.47429 0.47903 0.0
C319 C 0.93141 0.41411 0.45844 0.0
C320 C 0.92083 0.40024 0.47778 0.0
C321 C 0.94134 0.42367 0.49769 0.0
C322 C 0.97113 0.46015 0.49831 0.0
C323 C 0.88705 0.36168 0.47742 0.0
C324 C 0.84778 0.34597 0.4668 0.0
C325 C 0.89258 0.34108 0.48875 0.0
C326 C 0.93377 0.35518 0.49902 0.0
C327 C 0.93986 0.35411 0.52099 0.0
C328 C 0.97869 0.36743 0.53065 0.0
C329 C 1.01166 0.38176 0.51847 0.0
C330 C 1.00584 0.38272 0.49658 0.0
C331 C 0.96707 0.36941 0.48684 0.0
H332 H 1.04169 0.39207 0.52597 0.0
H333 H 0.66656 0.25497 0.42508 0.0
H334 H 0.69665 0.78626 0.84785 0.0
H335 H 0.68256 0.82766 0.84406 0.0
H336 H 0.60374 0.76142 0.78402 0.0
H337 H 0.61797 0.71991 0.78765 0.0
H338 H 0.66237 0.83409 0.78138 0.0
H339 H 0.55637 0.76294 0.82686 0.0
H340 H 0.52939 0.73411 0.85883 0.0
H341 H 0.61815 0.83389 0.90125 0.0
H342 H 0.64493 0.86348 0.86957 0.0
H343 H 0.57831 0.92408 0.76958 0.0
H344 H 0.59293 0.88243 0.77133 0.0
H345 H 0.65055 0.93283 0.83753 0.0
H346 H 0.63402 0.97313 0.83602 0.0
H347 H 0.60143 0.86644 0.83627 0.0
H348 H 0.70537 0.9395 0.79268 0.0
H349 H 0.73429 0.97104 0.76195 0.0
H350 H 0.65737 0.87198 0.71723 0.0
H351 H 0.62757 0.83986 0.74768 0.0
C352 C 0.6763 0.78052 0.83385 0.0
C353 C 0.65858 0.74998 0.81798 0.0
C354 C 0.66802 0.80402 0.83179 0.0
C355 C 0.64199 0.79751 0.8138 0.0
C356 C 0.62389 0.76687 0.79803 0.0
C357 C 0.63186 0.74314 0.80018 0.0
C358 C 0.63515 0.82356 0.81111 0.0
C359 C 0.64846 0.84086 0.79317 0.0
C360 C 0.61836 0.83318 0.82688 0.0
C361 C 0.60284 0.81531 0.84589 0.0
C362 C 0.57026 0.77865 0.84302 0.0
C363 C 0.55493 0.76221 0.86106 0.0
C364 C 0.57233 0.78207 0.88202 0.0
C365 C 0.60479 0.81851 0.885 0.0
C366 C 0.61987 0.83517 0.86702 0.0
C367 C 0.59478 0.92653 0.78431 0.0
C368 C 0.60522 0.95168 0.80265 0.0
C369 C 0.60325 0.90284 0.78532 0.0
C370 C 0.62313 0.90453 0.80454 0.0
C371 C 0.63502 0.93079 0.82256 0.0
C372 C 0.62585 0.95395 0.82167 0.0
C373 C 0.62891 0.87749 0.80652 0.0
C374 C 0.61536 0.85987 0.82437 0.0
C375 C 0.64615 0.86808 0.79082 0.0
C376 C 0.66392 0.88732 0.77246 0.0
C377 C 0.69436 0.92447 0.77628 0.0
C378 C 0.71097 0.94244 0.75891 0.0
C379 C 0.69759 0.92353 0.73765 0.0
C380 C 0.66766 0.88659 0.73371 0.0
C381 C 0.65093 0.86849 0.75102 0.0
H382 H 0.71049 0.9375 0.72423 0.0
H383 H 0.5605 0.76924 0.89596 0.0
H384 H 0.86089 0.51233 0.24565 0.0
H385 H 0.7856 0.47438 0.24301 0.0
H386 H 0.77649 0.42178 0.1794 0.0
H387 H 0.85071 0.45793 0.18267 0.0
H388 H 0.75124 0.48546 0.21734 0.0
H389 H 0.68725 0.35183 0.1571 0.0
H390 H 0.68742 0.30126 0.15707 0.0
H391 H 0.7185 0.32823 0.22638 0.0
H392 H 0.71748 0.37854 0.22697 0.0
H393 H 0.66555 0.45144 0.1136 0.0
H394 H 0.68237 0.42534 0.138 0.0
H395 H 0.60267 0.42309 0.18192 0.0
H396 H 0.58507 0.44865 0.15737 0.0
H397 H 0.64736 0.37039 0.1684 0.0
H398 H 0.66399 0.47621 0.22346 0.0
H399 H 0.66459 0.52761 0.22413 0.0
H400 H 0.73058 0.55443 0.1687 0.0
H401 H 0.73023 0.50321 0.16777 0.0
C402 C 0.84245 0.49144 0.23163 0.0
C403 C 0.86129 0.48815 0.21428 0.0
C404 C 0.7995 0.46972 0.2301 0.0
C405 C 0.77499 0.44525 0.21093 0.0
C406 C 0.7941 0.43975 0.19458 0.0
C407 C 0.83683 0.46084 0.19632 0.0
C408 C 0.73265 0.43319 0.20523 0.0
C409 C 0.72771 0.45953 0.20758 0.0
C410 C 0.70139 0.39944 0.19245 0.0
C411 C 0.70209 0.36906 0.19208 0.0
C412 C 0.69365 0.34684 0.1724 0.0
C413 C 0.69401 0.31819 0.17229 0.0
C414 C 0.70285 0.31144 0.19173 0.0
C415 C 0.71152 0.33342 0.21134 0.0
C416 C 0.71111 0.36206 0.21156 0.0
C417 C 0.64988 0.44364 0.12785 0.0
C418 C 0.62496 0.45299 0.13392 0.0
C419 C 0.65933 0.4285 0.14176 0.0
C420 C 0.64415 0.42277 0.16187 0.0
C421 C 0.61467 0.42735 0.16647 0.0
C422 C 0.6051 0.44238 0.15255 0.0
C423 C 0.66851 0.42336 0.17975 0.0
C424 C 0.6699 0.39516 0.17945 0.0
C425 C 0.69625 0.45507 0.19489 0.0
C426 C 0.69695 0.48601 0.19552 0.0
C427 C 0.67866 0.49319 0.21148 0.0
C428 C 0.6789 0.52222 0.21188 0.0
C429 C 0.69759 0.54428 0.19646 0.0
C430 C 0.7161 0.53737 0.18063 0.0
C431 C 0.71586 0.50835 0.18015 0.0
H432 H 0.69773 0.56672 0.19681 0.0
H433 H 0.70313 0.28926 0.19164 0.0
H434 H 0.46061 0.96614 0.4523 0.0
H435 H 0.39885 0.9054 0.45193 0.0
H436 H 0.46506 0.89141 0.49766 0.0
H437 H 0.52748 0.95198 0.49759 0.0
H438 H 0.41803 0.83346 0.46891 0.0
H439 H 0.39484 0.90485 0.51335 0.0
H440 H 0.39109 0.95341 0.52412 0.0
H441 H 0.29677 0.90977 0.47059 0.0
H442 H 0.30037 0.86121 0.45929 0.0
H443 H 0.22498 0.66942 0.48276 0.0
H444 H 0.28875 0.73123 0.49237 0.0
H445 H 0.2514 0.75902 0.43955 0.0
H446 H 0.18818 0.69768 0.42994 0.0
H447 H 0.28503 0.80983 0.47797 0.0
H448 H 0.3199 0.74439 0.43143 0.0
H449 H 0.32233 0.69464 0.42285 0.0
H450 H 0.39269 0.72633 0.48494 0.0
H451 H 0.39098 0.77648 0.49378 0.0
C452 C 0.46214 0.95018 0.46227 0.0
C453 C 0.49903 0.96408 0.47506 0.0
C454 C 0.42664 0.91543 0.46215 0.0
C455 C 0.42686 0.89389 0.47514 0.0
C456 C 0.46392 0.90745 0.48758 0.0
C457 C 0.49964 0.94216 0.48754 0.0
C458 C 0.38842 0.85727 0.4755 0.0
C459 C 0.38918 0.8285 0.4713 0.0
C460 C 0.3505 0.85039 0.47865 0.0
C461 C 0.34812 0.87952 0.48538 0.0
C462 C 0.37351 0.90574 0.50378 0.0
C463 C 0.37138 0.93325 0.50999 0.0
C464 C 0.34377 0.93471 0.49802 0.0
C465 C 0.31816 0.90861 0.47984 0.0
C466 C 0.3202 0.88106 0.47353 0.0
C467 C 0.23029 0.68893 0.47344 0.0
C468 C 0.20189 0.67879 0.45552 0.0
C469 C 0.26671 0.72411 0.47885 0.0
C470 C 0.27497 0.74968 0.46655 0.0
C471 C 0.24573 0.73979 0.44925 0.0
C472 C 0.20973 0.70472 0.44372 0.0
C473 C 0.31472 0.7864 0.47082 0.0
C474 C 0.31414 0.81509 0.47591 0.0
C475 C 0.35282 0.79324 0.46888 0.0
C476 C 0.35516 0.76398 0.46329 0.0
C477 C 0.33594 0.74074 0.44322 0.0
C478 C 0.33725 0.71253 0.4383 0.0
C479 C 0.35768 0.70734 0.45334 0.0
C480 C 0.37695 0.73043 0.4733 0.0
C481 C 0.37602 0.75885 0.47822 0.0
H482 H 0.3586 0.68545 0.44953 0.0
H483 H 0.34216 0.95603 0.50286 0.0
H484 H 0.67561 0.39819 0.83226 0.0
H485 H 0.68663 0.35429 0.82293 0.0
H486 H 0.56427 0.27187 0.83634 0.0
H487 H 0.55222 0.31515 0.84487 0.0
H488 H 0.6263 0.26928 0.85391 0.0
H489 H 0.57788 0.27876 0.7862 0.0
H490 H 0.57997 0.31105 0.75815 0.0
H491 H 0.70145 0.34718 0.74823 0.0
H492 H 0.70029 0.31549 0.77648 0.0
H493 H 0.57833 0.10951 0.80019 0.0
H494 H 0.58196 0.16067 0.81427 0.0
H495 H 0.69564 0.22907 0.7875 0.0
H496 H 0.69182 0.17756 0.77305 0.0
H497 H 0.64639 0.24377 0.77827 0.0
H498 H 0.69354 0.23039 0.84311 0.0
H499 H 0.69314 0.1991 0.87134 0.0
H500 H 0.57808 0.17225 0.88745 0.0
H501 H 0.57747 0.20297 0.85909 0.0
C502 C 0.65084 0.37069 0.83307 0.0
C503 C 0.61285 0.36025 0.83916 0.0
C504 C 0.65736 0.34571 0.82788 0.0
C505 C 0.62618 0.30986 0.82885 0.0
C506 C 0.58877 0.29947 0.83558 0.0
C507 C 0.58204 0.32434 0.84055 0.0
C508 C 0.63185 0.28285 0.82207 0.0
C509 C 0.63041 0.26345 0.83735 0.0
C510 C 0.63852 0.27615 0.80064 0.0
C511 C 0.6392 0.29512 0.78363 0.0
C512 C 0.60519 0.29386 0.77818 0.0
C513 C 0.60617 0.312 0.76222 0.0
C514 C 0.64087 0.33125 0.75146 0.0
C515 C 0.67462 0.33231 0.75661 0.0
C516 C 0.67381 0.31426 0.77258 0.0
C517 C 0.60453 0.13553 0.79764 0.0
C518 C 0.63498 0.13955 0.78565 0.0
C519 C 0.60659 0.16481 0.80571 0.0
C520 C 0.63942 0.19888 0.80226 0.0
C521 C 0.67008 0.20306 0.79043 0.0
C522 C 0.66787 0.17365 0.78218 0.0
C523 C 0.64029 0.22962 0.81004 0.0
C524 C 0.64288 0.24978 0.79493 0.0
C525 C 0.63506 0.23721 0.83171 0.0
C526 C 0.63533 0.21878 0.84885 0.0
C527 C 0.668 0.2176 0.85256 0.0
C528 C 0.66797 0.2 0.86861 0.0
C529 C 0.63557 0.18364 0.88115 0.0
C530 C 0.60315 0.18492 0.87771 0.0
C531 C 0.603 0.20247 0.86167 0.0
H532 H 0.6356 0.17002 0.89356 0.0
H533 H 0.64157 0.34526 0.73911 0.0
H534 H 0.62952 0.88861 0.47472 0.0
H535 H 0.61186 0.83149 0.47894 0.0
H536 H 0.6021 0.85132 0.54666 0.0
H537 H 0.62004 0.90881 0.54256 0.0
H538 H 0.6477 0.82627 0.53875 0.0
H539 H 0.51808 0.79586 0.5133 0.0
H540 H 0.47123 0.79628 0.48869 0.0
H541 H 0.48629 0.74167 0.43542 0.0
H542 H 0.53426 0.74184 0.45958 0.0
H543 H 0.55804 0.64851 0.55202 0.0
H544 H 0.57375 0.70628 0.5524 0.0
H545 H 0.56669 0.69055 0.48253 0.0
H546 H 0.55015 0.63266 0.48209 0.0
H547 H 0.52648 0.71369 0.49426 0.0
H548 H 0.66016 0.74892 0.51739 0.0
H549 H 0.71135 0.75148 0.54037 0.0
H550 H 0.69116 0.79777 0.59623 0.0
H551 H 0.63943 0.79505 0.57362 0.0
C552 C 0.62375 0.88087 0.49053 0.0
C553 C 0.62619 0.90319 0.50832 0.0
C554 C 0.61346 0.84816 0.49289 0.0
C555 C 0.60547 0.8371 0.51309 0.0
C556 C 0.60811 0.85937 0.53094 0.0
C557 C 0.61805 0.89203 0.52854 0.0
C558 C 0.59443 0.80224 0.51541 0.0
C559 C 0.62082 0.80153 0.52932 0.0
C560 C 0.55984 0.77014 0.50272 0.0
C561 C 0.53014 0.76918 0.48824 0.0
C562 C 0.51171 0.7842 0.4963 0.0
C563 C 0.48497 0.78437 0.48242 0.0
C564 C 0.47588 0.7691 0.46049 0.0
C565 C 0.49343 0.75355 0.4524 0.0
C566 C 0.52045 0.75355 0.46619 0.0
C567 C 0.56034 0.65764 0.53679 0.0
C568 C 0.55278 0.63606 0.51703 0.0
C569 C 0.5693 0.69065 0.53701 0.0
C570 C 0.57162 0.70296 0.51748 0.0
C571 C 0.56481 0.68162 0.49779 0.0
C572 C 0.55543 0.64855 0.49756 0.0
C573 C 0.58022 0.73762 0.51734 0.0
C574 C 0.55324 0.73831 0.50384 0.0
C575 C 0.61452 0.76975 0.53024 0.0
C576 C 0.64559 0.7714 0.54386 0.0
C577 C 0.66639 0.75937 0.53461 0.0
C578 C 0.69555 0.7609 0.54756 0.0
C579 C 0.7044 0.77468 0.56976 0.0
C580 C 0.68421 0.78704 0.57904 0.0
C581 C 0.65499 0.78553 0.56616 0.0
H582 H 0.727 0.77585 0.57975 0.0
H583 H 0.45515 0.76925 0.44977 0.0
H584 H 0.71274 0.50577 0.8448 0.0
H585 H 0.7711 0.50496 0.84614 0.0
H586 H 0.85188 0.6144 0.838 0.0
H587 H 0.79312 0.61486 0.83584 0.0
H588 H 0.87714 0.58428 0.81624 0.0
H589 H 0.84425 0.58117 0.88951 0.0
H590 H 0.79919 0.55775 0.91824 0.0
H591 H 0.77576 0.45784 0.90082 0.0
H592 H 0.82022 0.4805 0.8718 0.0
H593 H 0.06696 0.61615 0.85002 0.0
H594 H 1.00745 0.6153 0.84477 0.0
H595 H 0.92643 0.5055 0.85218 0.0
H596 H 0.98614 0.50682 0.85788 0.0
H597 H 0.90117 0.53555 0.87401 0.0
H598 H 0.93383 0.53808 0.80111 0.0
H599 H 0.97779 0.56048 0.77189 0.0
H600 H 1.00092 0.66042 0.78819 0.0
H601 H 0.95749 0.63875 0.8177 0.0
C602 C 0.74286 0.52979 0.84329 0.0
C603 C 0.74759 0.56045 0.84029 0.0
C604 C 0.77672 0.52941 0.84424 0.0
C605 C 0.81708 0.55987 0.84269 0.0
C606 C 0.82167 0.59036 0.83936 0.0
C607 C 0.78771 0.59064 0.83818 0.0
C608 C 0.85416 0.56002 0.84442 0.0
C609 C 0.88247 0.57403 0.82913 0.0
C610 C 0.86166 0.54596 0.86077 0.0
C611 C 0.83531 0.53245 0.87837 0.0
C612 C 0.82933 0.55415 0.89175 0.0
C613 C 0.80391 0.54102 0.90808 0.0
C614 C 0.78462 0.50633 0.91134 0.0
C615 C 0.79073 0.48471 0.89828 0.0
C616 C 0.81606 0.49769 0.8819 0.0
C617 C 1.03634 0.59148 0.8498 0.0
C618 C 1.0316 0.56119 0.85361 0.0
C619 C 1.00196 0.59099 0.84689 0.0
C620 C 0.96136 0.56015 0.84773 0.0
C621 C 0.95677 0.52978 0.85132 0.0
C622 C 0.99112 0.53034 0.85427 0.0
C623 C 0.92416 0.55981 0.84582 0.0
C624 C 0.89585 0.5458 0.86111 0.0
C625 C 0.91664 0.57381 0.82946 0.0
C626 C 0.94275 0.58691 0.81175 0.0
C627 C 0.94854 0.56492 0.79856 0.0
C628 C 0.97332 0.57747 0.78193 0.0
C629 C 0.99223 0.61189 0.77823 0.0
C630 C 0.98631 0.63379 0.79111 0.0
C631 C 0.96158 0.62138 0.80777 0.0
H632 H 1.0114 0.62155 0.76534 0.0
H633 H 0.76498 0.49622 0.924 0.0
H634 H 0.16686 0.69299 0.18025 0.0
H635 H 0.22784 0.75455 0.182 0.0
H636 H 0.2833 0.71983 0.14129 0.0
H637 H 0.22211 0.6578 0.1394 0.0
H638 H 0.33873 0.77355 0.17637 0.0
H639 H 0.24463 0.75305 0.11925 0.0
H640 H 0.17798 0.73295 0.10173 0.0
H641 H 0.18296 0.80855 0.14868 0.0
H642 H 0.24935 0.8287 0.16672 0.0
H643 H 0.49663 0.95316 0.16093 0.0
H644 H 0.43889 0.88902 0.15222 0.0
H645 H 0.3672 0.90433 0.19325 0.0
H646 H 0.42464 0.96801 0.20209 0.0
H647 H 0.32216 0.85901 0.15358 0.0
H648 H 0.41254 0.87514 0.21247 0.0
H649 H 0.47907 0.89531 0.23026 0.0
H650 H 0.48111 0.82804 0.17961 0.0
H651 H 0.41483 0.80789 0.16132 0.0
C652 C 0.192 0.69828 0.17171 0.0
C653 C 0.18939 0.67032 0.1596 0.0
C654 C 0.22685 0.73359 0.17267 0.0
C655 C 0.26 0.74188 0.16159 0.0
C656 C 0.25806 0.71407 0.14992 0.0
C657 C 0.22297 0.67863 0.14881 0.0
C658 C 0.29621 0.77969 0.16207 0.0
C659 C 0.33526 0.7921 0.17099 0.0
C660 C 0.29166 0.80405 0.15532 0.0
C661 C 0.25184 0.79218 0.14445 0.0
C662 C 0.23137 0.7652 0.12595 0.0
C663 C 0.19365 0.75382 0.11591 0.0
C664 C 0.17621 0.76942 0.12411 0.0
C665 C 0.1965 0.79647 0.14235 0.0
C666 C 0.23419 0.8079 0.15248 0.0
C667 C 0.46835 0.94277 0.16787 0.0
C668 C 0.46513 0.96546 0.18226 0.0
C669 C 0.43551 0.90619 0.16298 0.0
C670 C 0.39881 0.89186 0.1722 0.0
C671 C 0.39517 0.91475 0.18596 0.0
C672 C 0.42806 0.95109 0.19107 0.0
C673 C 0.36445 0.85295 0.1682 0.0
C674 C 0.32572 0.84035 0.15865 0.0
C675 C 0.36933 0.82847 0.17434 0.0
C676 C 0.409 0.84035 0.18538 0.0
C677 C 0.42736 0.8649 0.20502 0.0
C678 C 0.46499 0.87629 0.21521 0.0
C679 C 0.48437 0.86306 0.20603 0.0
C680 C 0.46609 0.83832 0.18667 0.0
C681 C 0.42849 0.8269 0.17639 0.0
H682 H 0.5135 0.8719 0.21395 0.0
H683 H 0.14701 0.76058 0.11631 0.0
H684 H 0.56121 0.23548 0.51843 0.0
H685 H 0.56997 0.29022 0.52838 0.0
H686 H 0.60316 0.31567 0.46494 0.0
H687 H 0.59497 0.26085 0.45496 0.0
H688 H 0.65034 0.37446 0.49595 0.0
H689 H 0.50597 0.27976 0.47673 0.0
H690 H 0.43956 0.22139 0.47776 0.0
H691 H 0.44467 0.25382 0.54564 0.0
H692 H 0.51143 0.31223 0.5451 0.0
H693 H 0.61663 0.50436 0.50953 0.0
H694 H 0.61509 0.45384 0.49597 0.0
H695 H 0.57995 0.41643 0.55665 0.0
H696 H 0.57973 0.46572 0.56991 0.0
H697 H 0.53265 0.36371 0.52357 0.0
H698 H 0.6788 0.45762 0.54297 0.0
H699 H 0.74523 0.51589 0.54177 0.0
H700 H 0.73621 0.48515 0.47315 0.0
H701 H 0.66943 0.42683 0.4739 0.0
C702 C 0.57035 0.2527 0.50657 0.0
C703 C 0.57675 0.24357 0.48578 0.0
C704 C 0.57536 0.28401 0.51228 0.0
C705 C 0.58629 0.30669 0.49724 0.0
C706 C 0.59444 0.29846 0.47676 0.0
C707 C 0.58977 0.26717 0.47108 0.0
C708 C 0.58789 0.33829 0.50285 0.0
C709 C 0.6244 0.37209 0.50167 0.0
C710 C 0.55422 0.33529 0.51057 0.0
C711 C 0.51387 0.30029 0.5109 0.0
C712 C 0.49306 0.27437 0.49191 0.0
C713 C 0.45534 0.24128 0.4924 0.0
C714 C 0.43795 0.23388 0.51176 0.0
C715 C 0.45819 0.25958 0.53066 0.0
C716 C 0.49595 0.2927 0.53026 0.0
C717 C 0.60853 0.48534 0.51996 0.0
C718 C 0.59855 0.4893 0.54087 0.0
C719 C 0.60803 0.45664 0.51226 0.0
C720 C 0.59775 0.43146 0.52536 0.0
C721 C 0.58809 0.43553 0.54625 0.0
C722 C 0.58844 0.46403 0.55391 0.0
C723 C 0.59542 0.40002 0.51719 0.0
C724 C 0.55858 0.36614 0.51776 0.0
C725 C 0.62873 0.40303 0.50889 0.0
C726 C 0.66892 0.43802 0.50845 0.0
C727 C 0.69082 0.46339 0.52759 0.0
C728 C 0.72857 0.49641 0.527 0.0
C729 C 0.74487 0.50426 0.50739 0.0
C730 C 0.72351 0.47906 0.48833 0.0
C731 C 0.68573 0.44601 0.48883 0.0
H732 H 0.7741 0.52983 0.50696 0.0
H733 H 0.40875 0.20824 0.51211 0.0
H734 H 0.54961 0.59055 0.8171 0.0
H735 H 0.49147 0.59153 0.81751 0.0
H736 H 0.44795 0.52876 0.86824 0.0
H737 H 0.50494 0.52597 0.86684 0.0
H738 H 0.38403 0.50722 0.84509 0.0
H739 H 0.50215 0.62866 0.87439 0.0
H740 H 0.57177 0.68397 0.8731 0.0
H741 H 0.5292 0.69361 0.81346 0.0
H742 H 0.45928 0.63827 0.81437 0.0
H743 H 0.23549 0.53358 0.86921 0.0
H744 H 0.29744 0.53732 0.87245 0.0
H745 H 0.33861 0.59221 0.81811 0.0
H746 H 0.27738 0.58891 0.81514 0.0
H747 H 0.40455 0.61912 0.84438 0.0
H748 H 0.28818 0.49921 0.81449 0.0
H749 H 0.21942 0.44169 0.81322 0.0
H750 H 0.25927 0.42806 0.87211 0.0
H751 H 0.32816 0.48577 0.87389 0.0
C752 C 0.52786 0.57704 0.82845 0.0
C753 C 0.53277 0.55845 0.84207 0.0
C754 C 0.49435 0.57787 0.82885 0.0
C755 C 0.46493 0.56119 0.84342 0.0
C756 C 0.46964 0.5422 0.85684 0.0
C757 C 0.50265 0.54067 0.85608 0.0
C758 C 0.42931 0.56303 0.84452 0.0
C759 C 0.38903 0.53199 0.84537 0.0
C760 C 0.4343 0.59483 0.84427 0.0
C761 C 0.47557 0.62921 0.84438 0.0
C762 C 0.50763 0.64263 0.86103 0.0
C763 C 0.54714 0.67392 0.86034 0.0
C764 C 0.55493 0.69212 0.84313 0.0
C765 C 0.52311 0.67935 0.82672 0.0
C766 C 0.48349 0.64813 0.82737 0.0
C767 C 0.25833 0.5474 0.85837 0.0
C768 C 0.25115 0.5613 0.84207 0.0
C769 C 0.29374 0.54904 0.85997 0.0
C770 C 0.32326 0.56449 0.84525 0.0
C771 C 0.31701 0.58 0.82975 0.0
C772 C 0.28171 0.57823 0.82811 0.0
C773 C 0.35942 0.56336 0.84524 0.0
C774 C 0.39973 0.59448 0.84443 0.0
C775 C 0.35448 0.53163 0.84546 0.0
C776 C 0.31314 0.49698 0.84446 0.0
C777 C 0.28217 0.48407 0.82726 0.0
C778 C 0.2432 0.45142 0.82643 0.0
C779 C 0.23494 0.43128 0.84261 0.0
C780 C 0.26569 0.44372 0.85962 0.0
C781 C 0.3047 0.47639 0.86054 0.0
H782 H 0.20475 0.406 0.84193 0.0
H783 H 0.58553 0.71631 0.84262 0.0
H784 H 0.92753 0.46999 0.15715 0.0
H785 H 0.86687 0.41082 0.16076 0.0
H786 H 0.9345 0.37077 0.14893 0.0
H787 H 0.99504 0.42985 0.14456 0.0
H788 H 0.86312 0.32481 0.12857 0.0
H789 H 0.91125 0.3881 0.20062 0.0
H790 H 0.93354 0.43382 0.2327 0.0
H791 H 0.8144 0.4085 0.22686 0.0
H792 H 0.79218 0.36413 0.19398 0.0
H793 H 0.70053 0.15998 0.16213 0.0
H794 H 0.76872 0.21841 0.16445 0.0
H795 H 0.71026 0.26553 0.1549 0.0
H796 H 0.64254 0.20775 0.15272 0.0
H797 H 0.78059 0.3057 0.18915 0.0
H798 H 0.73879 0.24634 0.11347 0.0
H799 H 0.71735 0.19698 0.08416 0.0
H800 H 0.82876 0.21228 0.10148 0.0
H801 H 0.85056 0.26143 0.13111 0.0
C802 C 0.92953 0.44861 0.15518 0.0
C803 C 0.96628 0.45479 0.15051 0.0
C804 C 0.89479 0.41471 0.15748 0.0
C805 C 0.89607 0.3862 0.15558 0.0
C806 C 0.93256 0.39221 0.15055 0.0
C807 C 0.9672 0.42606 0.148 0.0
C808 C 0.85906 0.35001 0.15819 0.0
C809 C 0.84569 0.32077 0.14209 0.0
C810 C 0.83576 0.34429 0.17575 0.0
C811 C 0.85003 0.37276 0.1947 0.0
C812 C 0.89001 0.39271 0.2059 0.0
C813 C 0.90268 0.41845 0.22424 0.0
C814 C 0.87543 0.42412 0.23179 0.0
C815 C 0.83555 0.40421 0.22094 0.0
C816 C 0.82298 0.3789 0.20237 0.0
C817 C 0.70239 0.183 0.16096 0.0
C818 C 0.66628 0.17933 0.15719 0.0
C819 C 0.74124 0.21626 0.16217 0.0
C820 C 0.74445 0.24633 0.15991 0.0
C821 C 0.70845 0.24281 0.15695 0.0
C822 C 0.66982 0.20973 0.15555 0.0
C823 C 0.78493 0.28129 0.15947 0.0
C824 C 0.79868 0.31013 0.17589 0.0
C825 C 0.80906 0.2866 0.14253 0.0
C826 C 0.79604 0.25723 0.12465 0.0
C827 C 0.75852 0.23895 0.11115 0.0
C828 C 0.74635 0.21107 0.09446 0.0
C829 C 0.77162 0.20142 0.09101 0.0
C830 C 0.80918 0.21973 0.1042 0.0
C831 C 0.82146 0.2476 0.12094 0.0
H832 H 0.76215 0.17983 0.07807 0.0
H833 H 0.88522 0.44395 0.24603 0.0
H834 H 1.05668 0.52785 0.09075 0.0
H835 H 0.07099 0.52964 0.05305 0.0
H836 H 0.10495 0.63434 0.05927 0.0
H837 H 0.09167 0.63307 0.0973 0.0
H838 H 1.04965 0.58556 0.0211 0.0
H839 H 0.17842 0.62901 0.05977 0.0
H840 H 0.22144 0.6262 0.0858 0.0
H841 H 0.18316 0.52852 0.04742 0.0
H842 H 0.13928 0.5304 0.02132 0.0
H843 H 0.12617 0.62583 0.92261 0.0
H844 H 0.12639 0.63043 0.96196 0.0
H845 H 0.10808 0.53213 0.95818 0.0
H846 H 0.10892 0.52798 0.91868 0.0
H847 H 0.15674 0.57788 -0.0044 0.0
H848 H 1.02685 0.53162 0.95806 0.0
H849 H 0.98012 0.53058 0.93228 0.0
H850 H 1.01575 0.62852 0.96881 0.0
H851 H 0.06331 0.63048 -0.0054 0.0
C852 C 0.06761 0.55141 0.08416 0.0
C853 C 0.07358 0.58052 0.09701 0.0
C854 C 0.07567 0.55235 0.06261 0.0
C855 C 0.08939 0.58225 0.05344 0.0
C856 C 0.0945 0.61107 0.06609 0.0
C857 C 0.08692 0.61032 0.08777 0.0
C858 C 0.09792 0.58313 0.03056 0.0
C859 C 0.07352 0.5845 0.01558 0.0
C860 C 0.12814 0.58049 0.0233 0.0
C861 C 0.15531 0.57972 0.03865 0.0
C862 C 0.17896 0.60681 0.05693 0.0
C863 C 0.20352 0.60539 0.0717 0.0
C864 C 0.20503 0.5772 0.06825 0.0
C865 C 0.18198 0.55036 0.05004 0.0
C866 C 0.15728 0.5516 0.03524 0.0
C867 C 0.12307 0.60562 0.93026 0.0
C868 C 0.1172 0.57641 0.91765 0.0
C869 C 0.12306 0.60818 0.95272 0.0
C870 C 0.11629 0.5812 0.96299 0.0
C871 C 0.11318 0.55318 0.95061 0.0
C872 C 0.11369 0.55083 0.92808 0.0
C873 C 0.10878 0.5808 0.98612 0.0
C874 C 0.13309 0.57922 0.00112 0.0
C875 C 0.07803 0.58274 -0.00658 0.0
C876 C 1.04895 0.58138 0.97815 0.0
C877 C 1.02493 0.55306 0.96052 0.0
C878 C 0.99828 0.5523 0.9459 0.0
C879 C 0.99503 0.57951 0.94888 0.0
C880 C 1.01835 0.60749 0.96651 0.0
C881 C 1.04515 0.60844 0.98114 0.0
H882 H 0.97439 0.57887 0.93754 0.0
H883 H 0.22417 0.57624 0.07967 0.0
H884 H 0.67683 0.11589 0.41842 0.0
H885 H 0.66268 0.11885 0.3808 0.0
H886 H 0.53463 0.02981 0.37954 0.0
H887 H 0.54825 0.0276 0.41742 0.0
H888 H 0.58503 0.02927 0.3431 0.0
H889 H 0.53905 0.08952 0.38038 0.0
H890 H 0.54582 0.13372 0.40858 0.0
H891 H 0.64982 0.21813 0.38227 0.0
H892 H 0.64444 0.17431 0.35427 0.0
H893 H 0.49901 0.05531 0.24809 0.0
H894 H 0.51394 0.06579 0.28774 0.0
H895 H 0.63273 0.09213 0.28112 0.0
H896 H 0.6182 0.08246 0.24146 0.0
H897 H 0.58285 0.12351 0.32196 0.0
H898 H 0.6303 0.03387 0.31004 0.0
H899 H 0.61917 0.98695 0.28221 0.0
H900 H 0.5016 0.95615 0.25809 0.0
H901 H 0.51167 1.00234 0.28605 0.0
C902 C 0.64566 0.0971 0.41011 0.0
C903 C 0.61361 0.07146 0.42068 0.0
C904 C 0.63764 0.09887 0.38873 0.0
C905 C 0.59767 0.07454 0.37753 0.0
C906 C 0.56565 0.04879 0.38801 0.0
C907 C 0.57344 0.04762 0.40958 0.0
C908 C 0.58963 0.07546 0.35463 0.0
C909 C 0.58461 0.04988 0.33847 0.0
C910 C 0.58847 0.10207 0.34874 0.0
C911 C 0.5917 0.12859 0.3654 0.0
C912 C 0.56374 0.11748 0.38078 0.0
C913 C 0.56727 0.14246 0.39671 0.0
C914 C 0.59828 0.17869 0.39725 0.0
C915 C 0.62585 0.19002 0.38185 0.0
C916 C 0.62262 0.16512 0.36596 0.0
C917 C 0.52883 0.06453 0.25522 0.0
C918 C 0.55756 0.06819 0.2419 0.0
C919 C 0.53736 0.07059 0.27779 0.0
C920 C 0.57432 0.07956 0.28728 0.0
C921 C 0.60409 0.08532 0.27405 0.0
C922 C 0.59585 0.07987 0.25148 0.0
C923 C 0.57915 0.07774 0.31043 0.0
C924 C 0.58353 0.10306 0.32662 0.0
C925 C 0.5789 0.05044 0.31643 0.0
C926 C 0.57203 0.02188 0.29996 0.0
C927 C 0.60201 0.01696 0.29886 0.0
C928 C 0.59587 0.99048 0.28307 0.0
C929 C 0.55978 0.96867 0.26834 0.0
C930 C 0.52962 0.97314 0.26945 0.0
C931 C 0.53555 0.99948 0.28526 0.0
H932 H 0.55513 0.94825 0.25609 0.0
H933 H 0.60077 0.19793 0.40955 0.0
H934 H 0.68251 0.58042 0.7831 0.0
H935 H 0.68471 0.59339 0.74632 0.0
H936 H 0.55281 0.5128 0.73248 0.0
H937 H 0.55047 0.49989 0.76918 0.0
H938 H 0.59057 0.50704 0.70003 0.0
H939 H 0.59338 0.59901 0.74071 0.0
H940 H 0.61793 0.64899 0.7702 0.0
H941 H 0.7375 0.71009 0.74886 0.0
H942 H 0.71354 0.66034 0.71914 0.0
H943 H 0.54823 0.55014 0.60619 0.0
H944 H 0.55631 0.5559 0.64577 0.0
H945 H 0.68352 0.59998 0.6457 0.0
H946 H 0.6753 0.59341 0.60596 0.0
H947 H 0.65097 0.62725 0.68508 0.0
H948 H 0.64503 0.5291 0.64533 0.0
H949 H 0.61451 0.47959 0.61441 0.0
H950 H 0.49477 0.4297 0.63459 0.0
H951 H 0.52457 0.47942 0.66536 0.0
C952 C 0.654 0.56567 0.77223 0.0
C953 C 0.61629 0.53929 0.77898 0.0
C954 C 0.65528 0.57314 0.75126 0.0
C955 C 0.61887 0.55426 0.73672 0.0
C956 C 0.58126 0.52769 0.74343 0.0
C957 C 0.57996 0.52035 0.76439 0.0
C958 C 0.61994 0.5615 0.71431 0.0
C959 C 0.60364 0.53332 0.69686 0.0
C960 C 0.63719 0.59581 0.71007 0.0
C961 C 0.65179 0.62584 0.72784 0.0
C962 C 0.625 0.62301 0.7424 0.0
C963 C 0.63879 0.65133 0.75914 0.0
C964 C 0.67935 0.68265 0.7615 0.0
C965 C 0.70612 0.68578 0.74703 0.0
C966 C 0.69241 0.65757 0.73019 0.0
C967 C 0.5783 0.56229 0.6147 0.0
C968 C 0.61114 0.57128 0.60312 0.0
C969 C 0.58287 0.56556 0.63727 0.0
C970 C 0.6205 0.57837 0.64855 0.0
C971 C 0.65439 0.59034 0.63723 0.0
C972 C 0.64962 0.58645 0.6146 0.0
C973 C 0.62194 0.57288 0.67112 0.0
C974 C 0.63845 0.6012 0.68845 0.0
C975 C 0.6046 0.53867 0.67536 0.0
C976 C 0.58693 0.50807 0.65748 0.0
C977 C 0.61216 0.50767 0.64307 0.0
C978 C 0.59501 0.47959 0.62558 0.0
C979 C 0.55271 0.45155 0.62251 0.0
C980 C 0.52752 0.45147 0.63698 0.0
C981 C 0.54452 0.47958 0.65444 0.0
H982 H 0.53948 0.42986 0.60894 0.0
H983 H 0.68998 0.70455 0.77448 0.0
H984 H 0.53424 0.0274 0.54035 0.0
H985 H 0.54309 0.02068 0.57753 0.0
H986 H 0.67287 0.10898 0.58344 0.0
H987 H 0.66433 0.11432 0.5456 0.0
H988 H 0.66369 0.06273 0.6048 0.0
H989 H 0.59953 0.11757 0.60331 0.0
H990 H 0.54786 0.12397 0.59105 0.0
H991 H 0.45224 0.02597 0.61092 0.0
H992 H 0.50329 0.01876 0.62304 0.0
H993 H 0.68933 0.11519 0.72095 0.0
H994 H 0.68612 0.11006 0.68136 0.0
H995 H 0.56426 0.00943 0.67406 0.0
H996 H 0.56737 0.01437 0.71361 0.0
H997 H 0.56968 0.06017 0.65354 0.0
H998 H 0.63916 0.00994 0.65794 0.0
H999 H 0.69412 1.00825 0.67143 0.0
H1000 H 0.7842 0.10423 0.64785 0.0
H1001 H 0.72983 0.10679 0.6345 0.0
C1002 C 0.56469 0.04521 0.54956 0.0
C1003 C 0.59851 0.07174 0.54033 0.0
C1004 C 0.56973 0.04146 0.57084 0.0
C1005 C 0.60842 0.06501 0.58359 0.0
C1006 C 0.64263 0.09065 0.57403 0.0
C1007 C 0.63776 0.09381 0.55248 0.0
C1008 C 0.61264 0.06374 0.60706 0.0
C1009 C 0.6434 0.06256 0.61549 0.0
C1010 C 0.58593 0.0631 0.62107 0.0
C1011 C 0.55518 0.06746 0.61389 0.0
C1012 C 0.56745 0.09728 0.60494 0.0
C1013 C 0.53828 0.10106 0.59803 0.0
C1014 C 0.49678 0.07535 0.60015 0.0
C1015 C 0.48438 0.04584 0.60925 0.0
C1016 C 0.51342 0.0419 0.61616 0.0
C1017 C 0.66224 0.09164 0.71085 0.0
C1018 C 0.62858 0.06519 0.72031 0.0
C1019 C 0.6605 0.08868 0.68827 0.0
C1020 C 0.62496 0.05935 0.6748 0.0
C1021 C 0.59201 0.0322 0.68419 0.0
C1022 C 0.59392 0.03495 0.70676 0.0
C1023 C 0.62042 0.05891 0.65118 0.0
C1024 C 0.58972 0.06005 0.64277 0.0
C1025 C 0.64771 0.06026 0.63741 0.0
C1026 C 0.68044 0.05872 0.6454 0.0
C1027 C 0.67073 0.03087 0.65581 0.0
C1028 C 0.70177 0.02971 0.66339 0.0
C1029 C 0.74264 0.05616 0.66055 0.0
C1030 C 0.75253 0.08378 0.65007 0.0
C1031 C 0.72161 0.08507 0.64246 0.0
H1032 H 0.76663 0.05522 0.66643 0.0
H1033 H 0.47424 0.07833 0.59479 0.0
H1034 H 0.72626 0.62027 0.91236 0.0
H1035 H 0.7222 0.60371 0.94824 0.0
H1036 H 0.59386 0.51435 0.92919 0.0
H1037 H 0.59728 0.53145 0.89367 0.0
H1038 H 0.66682 0.59502 0.97898 0.0
H1039 H 0.58424 0.44448 0.94967 0.0
H1040 H 0.58251 0.40629 0.9188 0.0
H1041 H 0.70305 0.49444 0.90769 0.0
H1042 H 0.70604 0.53287 0.93879 0.0
H1043 H 0.57833 0.50948 0.06558 0.0
H1044 H 0.58483 0.51888 0.02796 0.0
H1045 H 0.67905 0.50623 0.02666 0.0
H1046 H 0.67183 0.49592 0.06425 0.0
H1047 H 0.63233 0.47942 0.98735 0.0
H1048 H 0.70615 0.58776 0.03902 0.0
H1049 H 0.71443 0.62851 0.07062 0.0
H1050 H 0.62447 0.63092 0.03767 0.0
H1051 H 0.61512 0.58967 0.00601 0.0
C1052 C 0.69718 0.59721 0.9159 0.0
C1053 C 0.66216 0.57694 0.90024 0.0
C1054 C 0.69493 0.58781 0.93633 0.0
C1055 C 0.65786 0.55764 0.94117 0.0
C1056 C 0.62283 0.53749 0.9256 0.0
C1057 C 0.62485 0.54727 0.90536 0.0
C1058 C 0.65529 0.5474 0.96266 0.0
C1059 C 0.65935 0.5698 0.98086 0.0
C1060 C 0.6465 0.51486 0.96503 0.0
C1061 C 0.64513 0.49166 0.94646 0.0
C1062 C 0.61047 0.45566 0.94072 0.0
C1063 C 0.60932 0.43396 0.9232 0.0
C1064 C 0.6427 0.44794 0.91134 0.0
C1065 C 0.67726 0.48364 0.91692 0.0
C1066 C 0.67867 0.5054 0.93448 0.0
C1067 C 0.59977 0.50796 0.05708 0.0
C1068 C 0.62488 0.50235 0.06779 0.0
C1069 C 0.60355 0.51341 0.03565 0.0
C1070 C 0.63311 0.51408 0.02471 0.0
C1071 C 0.65618 0.50597 0.03485 0.0
C1072 C 0.65203 0.50006 0.05627 0.0
C1073 C 0.64246 0.52654 0.00361 0.0
C1074 C 0.63979 0.50463 0.9855 0.0
C1075 C 0.65355 0.56001 0.00137 0.0
C1076 C 0.65972 0.58541 0.02021 0.0
C1077 C 0.68798 0.59683 0.03856 0.0
C1078 C 0.69286 0.62001 0.05648 0.0
C1079 C 0.66994 0.63224 0.05617 0.0
C1080 C 0.64218 0.6214 0.0379 0.0
C1081 C 0.63709 0.59814 0.01995 0.0
H1082 H 0.67374 0.65017 0.07006 0.0
H1083 H 0.6419 0.43111 0.89786 0.0
H1084 H 0.17542 0.58618 0.21702 0.0
H1085 H 0.17525 0.58647 0.2563 0.0
H1086 H 1.05135 0.55237 0.2507 0.0
H1087 H 1.05144 0.55189 0.21172 0.0
H1088 H 0.1 0.6053 0.28554 0.0
H1089 H 0.067 0.49346 0.25475 0.0
H1090 H 0.07808 0.4546 0.23289 0.0
H1091 H 0.19227 0.50509 0.27323 0.0
H1092 H 0.18214 0.54463 0.29516 0.0
H1093 H 1.05358 0.56181 0.38915 0.0
H1094 H 1.04824 0.55149 0.34942 0.0
H1095 H 0.17056 0.58213 0.35372 0.0
H1096 H 0.17558 0.59155 0.39332 0.0
H1097 H 0.12159 0.52968 0.31933 0.0
H1098 H 0.15611 0.64252 0.34936 0.0
H1099 H 0.14606 0.68209 0.37126 0.0
H1100 H 1.03044 0.63084 0.33216 0.0
H1101 H 1.03951 0.59056 0.31024 0.0
C1102 C 0.14834 0.57902 0.22425 0.0
C1103 C 0.11341 0.56906 0.21134 0.0
C1104 C 0.14818 0.57902 0.24663 0.0
C1105 C 0.11312 0.56913 0.25638 0.0
C1106 C 0.07873 0.56012 0.24355 0.0
C1107 C 0.07882 0.5599 0.22126 0.0
C1108 C 0.11178 0.56766 0.27989 0.0
C1109 C 0.10422 0.58843 0.29287 0.0
C1110 C 0.11798 0.54612 0.28952 0.0
C1111 C 0.12402 0.52224 0.27645 0.0
C1112 C 0.09463 0.49647 0.25885 0.0
C1113 C 0.10071 0.47429 0.24647 0.0
C1114 C 0.13591 0.47744 0.25163 0.0
C1115 C 0.16505 0.50272 0.26923 0.0
C1116 C 0.15914 0.525 0.28165 0.0
C1117 C 0.07876 0.56522 0.3816 0.0
C1118 C 0.11517 0.57784 0.3943 0.0
C1119 C 0.07586 0.55967 0.35891 0.0
C1120 C 0.1094 0.56683 0.34863 0.0
C1121 C 0.14444 0.57668 0.36128 0.0
C1122 C 0.14732 0.58219 0.3839 0.0
C1123 C 0.10968 0.56725 0.32496 0.0
C1124 C 0.11718 0.54641 0.31197 0.0
C1125 C 0.10359 0.58886 0.3153 0.0
C1126 C 0.09827 0.61328 0.32831 0.0
C1127 C 0.1284 0.63953 0.34554 0.0
C1128 C 0.1229 0.66209 0.35794 0.0
C1129 C 0.08758 0.65892 0.35314 0.0
C1130 C 1.05774 0.63323 0.33588 0.0
C1131 C 0.06305 0.61052 0.32346 0.0
H1132 H 0.08337 0.67642 0.36276 0.0
H1133 H 0.14056 0.46024 0.24202 0.0
loop_
_geom_bond_atom_site_label_1
_geom_bond_atom_site_label_2
_geom_bond_distance
_geom_bond_site_symmetry_2
_ccdc_geom_bond_type
Gd0 C3 2.818 . S
Gd0 O20 2.377 . S
Gd0 O22 2.448 . S
Gd0 O23 2.506 . S
Gd0 O24 2.435 . S
Gd0 O25 2.717 . S
Gd0 O27 2.374 1_455 S
Gd0 O31 2.327 . S
Gd1 C12 2.818 1_455 S
Gd1 O21 2.395 . S
Gd1 O25 2.327 . S
Gd1 O26 2.377 1_455 S
Gd1 O28 2.448 1_455 S
Gd1 O29 2.506 1_455 S
Gd1 O30 2.435 . S
Gd1 O31 2.717 . S
C2 O20 1.240 . S
C2 O21 1.240 . S
C3 Gd0 2.818 . S
C3 C4 1.510 . S
C3 O22 1.249 . S
C3 O23 1.252 . S
C4 C3 1.510 . S
C4 C5 1.404 . S
C4 C6 1.352 . S
C5 C4 1.404 . S
C5 C9 1.389 . S
C5 H32 0.930 . S
C6 C4 1.352 . S
C6 C8 1.374 . S
C6 H33 0.931 . S
C7 C8 1.359 . S
C7 C9 1.364 . S
C8 C6 1.374 . S
C8 C7 1.359 . S
C8 H34 0.931 . S
C9 C5 1.389 . S
C9 C7 1.364 . S
C9 H35 0.931 . S
C10 O24 1.256 . S
C10 O25 1.257 . S
C11 O26 1.240 . S
C11 O27 1.267 . S
C12 Gd1 2.818 1_655 S
C12 C13 1.510 . S
C12 O28 1.249 . S
C12 O29 1.252 . S
C13 C12 1.510 . S
C13 C14 1.404 . S
C13 C15 1.352 . S
C14 C13 1.404 . S
C14 C18 1.389 . S
C14 H36 0.930 . S
C15 C13 1.352 . S
C15 C17 1.374 . S
C15 H37 0.931 . S
C16 C17 1.359 . S
C16 C18 1.364 . S
C17 C15 1.374 . S
C17 C16 1.359 . S
C17 H38 0.931 . S
C18 C14 1.389 . S
C18 C16 1.364 . S
C18 H39 0.931 . S
C19 O30 1.256 . S
C19 O31 1.257 . S
O20 Gd0 2.377 . S
O20 C2 1.240 . S
O21 Gd1 2.395 . S
O21 C2 1.240 . S
O22 Gd0 2.448 . S
O22 C3 1.249 . S
O23 Gd0 2.506 . S
O23 C3 1.252 . S
O24 Gd0 2.435 . S
O24 C10 1.256 . S
O25 Gd0 2.717 . S
O25 Gd1 2.327 . S
O25 C10 1.257 . S
O26 Gd1 2.377 1_655 S
O26 C11 1.240 . S
O27 Gd0 2.374 1_655 S
O27 C11 1.267 . S
O28 Gd1 2.448 1_655 S
O28 C12 1.249 . S
O29 Gd1 2.506 1_655 S
O29 C12 1.252 . S
O30 Gd1 2.435 . S
O30 C19 1.256 . S
O31 Gd0 2.327 . S
O31 Gd1 2.717 . S
O31 C19 1.257 . S
H32 C5 0.930 . S
H33 C6 0.931 . S
H34 C8 0.931 . S
H35 C9 0.931 . S
H36 C14 0.930 . S
H37 C15 0.931 . S
H38 C17 0.931 . S
H39 C18 0.931 . S
Gd40 C43 2.818 1_545 S
Gd40 O60 2.377 1_545 S
Gd40 O62 2.448 1_545 S
Gd40 O63 2.506 1_545 S
Gd40 O64 2.435 . S
Gd40 O65 2.717 . S
Gd40 O67 2.395 . S
Gd40 O71 2.327 . S
Gd41 C52 2.818 . S
Gd41 O61 2.395 . S
Gd41 O65 2.327 . S
Gd41 O66 2.377 . S
Gd41 O68 2.448 . S
Gd41 O69 2.506 . S
Gd41 O70 2.435 . S
Gd41 O71 2.717 . S
C42 O60 1.240 . S
C42 O61 1.240 1_565 S
C43 Gd40 2.818 1_565 S
C43 C44 1.510 . S
C43 O62 1.249 . S
C43 O63 1.252 . S
C44 C43 1.510 . S
C44 C45 1.404 . S
C44 C46 1.352 . S
C45 C44 1.404 . S
C45 C49 1.389 . S
C45 H72 0.930 . S
C46 C44 1.352 . S
C46 C48 1.374 . S
C46 H73 0.931 . S
C47 C48 1.359 . S
C47 C49 1.364 . S
C48 C46 1.374 . S
C48 C47 1.359 . S
C48 H74 0.931 . S
C49 C45 1.389 . S
C49 C47 1.364 . S
C49 H75 0.931 . S
C50 O64 1.256 . S
C50 O65 1.257 . S
C51 O66 1.240 . S
C51 O67 1.240 . S
C52 Gd41 2.818 . S
C52 C53 1.510 . S
C52 O68 1.249 . S
C52 O69 1.252 . S
C53 C52 1.510 . S
C53 C54 1.404 . S
C53 C55 1.352 . S
C54 C53 1.404 . S
C54 C58 1.389 . S
C54 H76 0.930 . S
C55 C53 1.352 . S
C55 C57 1.374 . S
C55 H77 0.931 . S
C56 C57 1.359 . S
C56 C58 1.364 . S
C57 C55 1.374 . S
C57 C56 1.359 . S
C57 H78 0.931 . S
C58 C54 1.389 . S
C58 C56 1.364 . S
C58 H79 0.931 . S
C59 O70 1.256 . S
C59 O71 1.257 . S
O60 Gd40 2.377 1_565 S
O60 C42 1.240 . S
O61 Gd41 2.395 . S
O61 C42 1.240 1_545 S
O62 Gd40 2.448 1_565 S
O62 C43 1.249 . S
O63 Gd40 2.506 1_565 S
O63 C43 1.252 . S
O64 Gd40 2.435 . S
O64 C50 1.256 . S
O65 Gd40 2.717 . S
O65 Gd41 2.327 . S
O65 C50 1.257 . S
O66 Gd41 2.377 . S
O66 C51 1.240 . S
O67 Gd40 2.395 . S
O67 C51 1.240 . S
O68 Gd41 2.448 . S
O68 C52 1.249 . S
O69 Gd41 2.506 . S
O69 C52 1.252 . S
O70 Gd41 2.435 . S
O70 C59 1.256 . S
O71 Gd40 2.327 . S
O71 Gd41 2.717 . S
O71 C59 1.257 . S
H72 C45 0.930 . S
H73 C46 0.931 . S
H74 C48 0.931 . S
H75 C49 0.931 . S
H76 C54 0.930 . S
H77 C55 0.931 . S
H78 C57 0.931 . S
H79 C58 0.931 . S
Gd80 C83 2.818 . S
Gd80 O100 2.377 . S
Gd80 O102 2.448 . S
Gd80 O103 2.506 . S
Gd80 O104 2.435 . S
Gd80 O105 2.717 . S
Gd80 O107 2.395 . S
Gd80 O111 2.327 . S
Gd81 C92 2.818 . S
Gd81 O101 2.395 . S
Gd81 O105 2.327 . S
Gd81 O106 2.377 . S
Gd81 O108 2.448 . S
Gd81 O109 2.506 . S
Gd81 O110 2.435 . S
Gd81 O111 2.717 . S
C82 O100 1.240 . S
C82 O101 1.240 . S
C83 Gd80 2.818 . S
C83 C84 1.510 . S
C83 O102 1.249 . S
C83 O103 1.252 . S
C84 C83 1.510 . S
C84 C85 1.404 . S
C84 C86 1.352 . S
C85 C84 1.404 . S
C85 C89 1.389 . S
C85 H112 0.930 . S
C86 C84 1.352 . S
C86 C88 1.374 . S
C86 H113 0.931 . S
C87 C88 1.359 . S
C87 C89 1.364 . S
C88 C86 1.374 . S
C88 C87 1.359 . S
C88 H114 0.931 . S
C89 C85 1.389 . S
C89 C87 1.364 . S
C89 H115 0.931 . S
C90 O104 1.256 . S
C90 O105 1.257 . S
C91 O106 1.240 . S
C91 O107 1.240 . S
C92 Gd81 2.818 . S
C92 C93 1.510 . S
C92 O108 1.249 . S
C92 O109 1.252 . S
C93 C92 1.510 . S
C93 C94 1.404 . S
C93 C95 1.352 . S
C94 C93 1.404 . S
C94 C98 1.389 . S
C94 H116 0.930 . S
C95 C93 1.352 . S
C95 C97 1.374 . S
C95 H117 0.931 . S
C96 C97 1.359 . S
C96 C98 1.364 . S
C97 C95 1.374 . S
C97 C96 1.359 . S
C97 H118 0.931 . S
C98 C94 1.389 . S
C98 C96 1.364 . S
C98 H119 0.931 . S
C99 O110 1.256 . S
C99 O111 1.257 . S
O100 Gd80 2.377 . S
O100 C82 1.240 . S
O101 Gd81 2.395 . S
O101 C82 1.240 . S
O102 Gd80 2.448 . S
O102 C83 1.249 . S
O103 Gd80 2.506 . S
O103 C83 1.252 . S
O104 Gd80 2.435 . S
O104 C90 1.256 . S
O105 Gd80 2.717 . S
O105 Gd81 2.327 . S
O105 C90 1.257 . S
O106 Gd81 2.377 . S
O106 C91 1.240 . S
O107 Gd80 2.395 . S
O107 C91 1.240 . S
O108 Gd81 2.448 . S
O108 C92 1.249 . S
O109 Gd81 2.506 . S
O109 C92 1.252 . S
O110 Gd81 2.435 . S
O110 C99 1.256 . S
O111 Gd80 2.327 . S
O111 Gd81 2.717 . S
O111 C99 1.257 . S
H112 C85 0.930 . S
H113 C86 0.931 . S
H114 C88 0.931 . S
H115 C89 0.931 . S
H116 C94 0.930 . S
H117 C95 0.931 . S
H118 C97 0.931 . S
H119 C98 0.931 . S
H120 C121 0.949 . S
C121 H120 0.949 . S
C121 C122 1.395 . S
C121 C123 1.391 . S
C122 C121 1.395 . S
C122 C125 1.390 . S
C123 C121 1.391 . S
C123 C127 1.387 . S
C123 C128 1.491 . S
H124 C125 0.950 . S
C125 C122 1.390 . S
C125 H124 0.950 . S
C125 C126 1.378 . S
C126 C125 1.378 . S
C126 C127 1.409 . S
C127 C123 1.387 . S
C127 C126 1.409 . S
C127 H129 0.951 . S
C128 C123 1.491 . S
C128 C130 1.382 . S
C128 C132 1.404 . S
H129 C127 0.951 . S
C130 C128 1.382 . S
C130 C131 1.390 . S
C130 H135 0.949 . S
C131 C130 1.390 . S
C131 C136 1.399 . S
C132 C128 1.404 . S
C132 H133 0.950 . S
C132 C134 1.375 . S
H133 C132 0.950 . S
C134 C132 1.375 . S
C134 C136 1.382 . S
C134 H138 0.950 . S
H135 C130 0.949 . S
C136 C131 1.399 . S
C136 C134 1.382 . S
C136 H137 0.952 . S
H137 C136 0.952 . S
H138 C134 0.950 . S
H139 C140 0.949 . S
C140 H139 0.949 . S
C140 C141 1.395 . S
C140 C142 1.391 . S
C141 C140 1.395 . S
C141 C144 1.390 . S
C142 C140 1.391 . S
C142 C146 1.387 . S
C142 C147 1.491 . S
H143 C144 0.950 . S
C144 C141 1.390 . S
C144 H143 0.950 . S
C144 C145 1.378 . S
C145 C144 1.378 . S
C145 C146 1.409 . S
C146 C142 1.387 . S
C146 C145 1.409 . S
C146 H148 0.951 . S
C147 C142 1.491 . S
C147 C149 1.382 . S
C147 C151 1.404 . S
H148 C146 0.951 . S
C149 C147 1.382 . S
C149 C150 1.390 . S
C149 H154 0.949 . S
C150 C149 1.390 . S
C150 C155 1.399 . S
C151 C147 1.404 . S
C151 H152 0.950 . S
C151 C153 1.375 . S
H152 C151 0.950 . S
C153 C151 1.375 . S
C153 C155 1.382 . S
C153 H157 0.950 . S
H154 C149 0.949 . S
C155 C150 1.399 . S
C155 C153 1.382 . S
C155 H156 0.952 . S
H156 C155 0.952 . S
H157 C153 0.950 . S
H158 C159 0.949 . S
C159 H158 0.949 . S
C159 C160 1.395 . S
C159 C161 1.391 . S
C160 C159 1.395 . S
C160 C163 1.390 . S
C161 C159 1.391 . S
C161 C165 1.387 . S
C161 C166 1.491 . S
H162 C163 0.950 . S
C163 C160 1.390 . S
C163 H162 0.950 . S
C163 C164 1.378 . S
C164 C163 1.378 . S
C164 C165 1.409 . S
C165 C161 1.387 . S
C165 C164 1.409 . S
C165 H167 0.951 . S
C166 C161 1.491 . S
C166 C168 1.382 . S
C166 C170 1.404 . S
H167 C165 0.951 . S
C168 C166 1.382 . S
C168 C169 1.390 . S
C168 H173 0.949 . S
C169 C168 1.390 . S
C169 C174 1.399 . S
C170 C166 1.404 . S
C170 H171 0.950 . S
C170 C172 1.375 . S
H171 C170 0.950 . S
C172 C170 1.375 . S
C172 C174 1.382 . S
C172 H176 0.950 . S
H173 C168 0.949 . S
C174 C169 1.399 . S
C174 C172 1.382 . S
C174 H175 0.952 . S
H175 C174 0.952 . S
H176 C172 0.950 . S
H177 C178 0.949 . S
C178 H177 0.949 . S
C178 C179 1.395 1_655 S
C178 C180 1.393 1_655 S
C179 C178 1.395 1_455 S
C179 C182 1.390 . S
C180 C178 1.393 1_455 S
C180 C184 1.392 . S
C180 C185 1.485 1_455 S
H181 C182 0.950 . S
C182 C179 1.390 . S
C182 H181 0.950 . S
C182 C183 1.378 . S
C183 C182 1.378 . S
C183 C184 1.409 . S
C184 C180 1.392 . S
C184 C183 1.409 . S
C184 H186 0.951 . S
C185 C180 1.485 1_655 S
C185 C187 1.382 . S
C185 C189 1.404 . S
H186 C184 0.951 . S
C187 C185 1.382 . S
C187 C188 1.390 . S
C187 H192 0.949 . S
C188 C187 1.390 . S
C188 C193 1.399 . S
C189 C185 1.404 . S
C189 H190 0.950 . S
C189 C191 1.375 . S
H190 C189 0.950 . S
C191 C189 1.375 . S
C191 C193 1.382 . S
C191 H195 0.950 . S
H192 C187 0.949 . S
C193 C188 1.399 . S
C193 C191 1.382 . S
C193 H194 0.952 . S
H194 C193 0.952 . S
H195 C191 0.950 . S
H196 C197 0.949 . S
C197 H196 0.949 . S
C197 C198 1.395 . S
C197 C199 1.391 . S
C198 C197 1.395 . S
C198 C201 1.390 . S
C199 C197 1.391 . S
C199 C203 1.387 . S
C199 C204 1.491 . S
H200 C201 0.950 . S
C201 C198 1.390 . S
C201 H200 0.950 . S
C201 C202 1.378 . S
C202 C201 1.378 . S
C202 C203 1.409 . S
C203 C199 1.387 . S
C203 C202 1.409 . S
C203 H205 0.951 . S
C204 C199 1.491 . S
C204 C206 1.382 1_545 S
C204 C208 1.404 . S
H205 C203 0.951 . S
C206 C204 1.382 1_565 S
C206 C207 1.390 . S
C206 H211 0.948 . S
C207 C206 1.390 . S
C207 C212 1.399 . S
C208 C204 1.404 . S
C208 H209 0.950 . S
C208 C210 1.375 1_545 S
H209 C208 0.950 . S
C210 C208 1.375 1_565 S
C210 C212 1.382 . S
C210 H214 0.950 . S
H211 C206 0.948 . S
C212 C207 1.399 . S
C212 C210 1.382 . S
C212 H213 0.952 . S
H213 C212 0.952 . S
H214 C210 0.950 . S
H215 C216 0.949 . S
C216 H215 0.949 . S
C216 C217 1.395 . S
C216 C218 1.391 . S
C217 C216 1.395 . S
C217 C220 1.390 . S
C218 C216 1.391 . S
C218 C222 1.387 . S
C218 C223 1.491 . S
H219 C220 0.950 . S
C220 C217 1.390 . S
C220 H219 0.950 . S
C220 C221 1.378 . S
C221 C220 1.378 . S
C221 C222 1.409 . S
C222 C218 1.387 . S
C222 C221 1.409 . S
C222 H224 0.951 . S
C223 C218 1.491 . S
C223 C225 1.382 . S
C223 C227 1.404 . S
H224 C222 0.951 . S
C225 C223 1.382 . S
C225 C226 1.390 . S
C225 H230 0.949 . S
C226 C225 1.390 . S
C226 C231 1.399 . S
C227 C223 1.404 . S
C227 H228 0.950 . S
C227 C229 1.375 . S
H228 C227 0.950 . S
C229 C227 1.375 . S
C229 C231 1.382 . S
C229 H233 0.950 . S
H230 C225 0.949 . S
C231 C226 1.399 . S
C231 C229 1.382 . S
C231 H232 0.952 . S
H232 C231 0.952 . S
H233 C229 0.950 . S
H234 C252 0.951 . S
H235 C254 0.951 . S
H236 C256 0.950 . S
H237 C257 0.950 . S
H238 C259 0.950 . S
H239 C262 0.950 . S
H240 C263 0.950 . S
H241 C265 0.950 . S
H242 C266 0.950 . S
H243 C267 0.951 . S
H244 C269 0.951 . S
H245 C271 0.950 . S
H246 C272 0.950 . S
H247 C274 0.950 . S
H248 C277 0.950 . S
H249 C278 0.950 . S
H250 C280 0.950 . S
H251 C281 0.950 . S
C252 H234 0.951 . S
C252 C253 1.366 . S
C252 C254 1.388 . S
C253 C252 1.366 . S
C253 C257 1.385 . S
C254 H235 0.951 . S
C254 C252 1.388 . S
C254 C255 1.366 . S
C255 C254 1.366 . S
C255 C256 1.414 . S
C255 C258 1.499 . S
C256 H236 0.950 . S
C256 C255 1.414 . S
C256 C257 1.374 . S
C257 H237 0.950 . S
C257 C253 1.385 . S
C257 C256 1.374 . S
C258 C255 1.499 . S
C258 C259 1.373 . S
C258 C260 1.389 . S
C259 H238 0.950 . S
C259 C258 1.373 . S
C259 C275 1.377 . S
C260 C258 1.389 . S
C260 C261 1.524 . S
C260 C274 1.377 . S
C261 C260 1.524 . S
C261 C262 1.397 . S
C261 C266 1.363 . S
C262 H239 0.950 . S
C262 C261 1.397 . S
C262 C263 1.334 . S
C263 H240 0.950 . S
C263 C262 1.334 . S
C263 C264 1.287 . S
C264 C263 1.287 . S
C264 C265 1.524 . S
C264 H283 0.913 . S
C265 H241 0.950 . S
C265 C264 1.524 . S
C265 C266 1.415 . S
C266 H242 0.950 . S
C266 C261 1.363 . S
C266 C265 1.415 . S
C267 H243 0.951 . S
C267 C268 1.366 . S
C267 C269 1.388 . S
C268 C267 1.366 . S
C268 C272 1.385 . S
C269 H244 0.951 . S
C269 C267 1.388 . S
C269 C270 1.366 . S
C270 C269 1.366 . S
C270 C271 1.414 . S
C270 C273 1.499 . S
C271 H245 0.950 . S
C271 C270 1.414 . S
C271 C272 1.374 . S
C272 H246 0.950 . S
C272 C268 1.385 . S
C272 C271 1.374 . S
C273 C270 1.499 . S
C273 C274 1.373 . S
C273 C275 1.389 . S
C274 H247 0.950 . S
C274 C260 1.377 . S
C274 C273 1.373 . S
C275 C259 1.377 . S
C275 C273 1.389 . S
C275 C276 1.524 . S
C276 C275 1.524 . S
C276 C277 1.397 . S
C276 C281 1.363 . S
C277 H248 0.950 . S
C277 C276 1.397 . S
C277 C278 1.334 . S
C278 H249 0.950 . S
C278 C277 1.334 . S
C278 C279 1.287 . S
C279 C278 1.287 . S
C279 C280 1.524 . S
C279 H282 0.999 . S
C280 H250 0.950 . S
C280 C279 1.524 . S
C280 C281 1.415 . S
C281 H251 0.950 . S
C281 C276 1.363 . S
C281 C280 1.415 . S
H282 C279 0.999 . S
H283 C264 0.913 . S
H284 C302 0.951 . S
H285 C304 0.951 . S
H286 C306 0.950 . S
H287 C307 0.950 . S
H288 C309 0.950 . S
H289 C312 0.950 . S
H290 C313 0.950 . S
H291 C315 0.950 . S
H292 C316 0.950 . S
H293 C317 0.951 . S
H294 C319 0.951 . S
H295 C321 0.950 . S
H296 C322 0.950 . S
H297 C324 0.950 . S
H298 C327 0.950 . S
H299 C328 0.950 . S
H300 C330 0.950 . S
H301 C331 0.950 . S
C302 H284 0.951 . S
C302 C303 1.366 . S
C302 C304 1.388 . S
C303 C302 1.366 . S
C303 C307 1.385 . S
C304 H285 0.951 . S
C304 C302 1.388 . S
C304 C305 1.366 . S
C305 C304 1.366 . S
C305 C306 1.414 . S
C305 C308 1.499 . S
C306 H286 0.950 . S
C306 C305 1.414 . S
C306 C307 1.374 . S
C307 H287 0.950 . S
C307 C303 1.385 . S
C307 C306 1.374 . S
C308 C305 1.499 . S
C308 C309 1.373 . S
C308 C310 1.389 . S
C309 H288 0.950 . S
C309 C308 1.373 . S
C309 C325 1.377 . S
C310 C308 1.389 . S
C310 C311 1.524 . S
C310 C324 1.377 . S
C311 C310 1.524 . S
C311 C312 1.397 . S
C311 C316 1.363 . S
C312 H289 0.950 . S
C312 C311 1.397 . S
C312 C313 1.334 . S
C313 H290 0.950 . S
C313 C312 1.334 . S
C313 C314 1.287 . S
C314 C313 1.287 . S
C314 C315 1.524 . S
C314 H333 0.913 . S
C315 H291 0.950 . S
C315 C314 1.524 . S
C315 C316 1.415 . S
C316 H292 0.950 . S
C316 C311 1.363 . S
C316 C315 1.415 . S
C317 H293 0.951 . S
C317 C318 1.366 . S
C317 C319 1.388 . S
C318 C317 1.366 . S
C318 C322 1.385 . S
C319 H294 0.951 . S
C319 C317 1.388 . S
C319 C320 1.366 . S
C320 C319 1.366 . S
C320 C321 1.414 . S
C320 C323 1.499 . S
C321 H295 0.950 . S
C321 C320 1.414 . S
C321 C322 1.374 . S
C322 H296 0.950 . S
C322 C318 1.385 . S
C322 C321 1.374 . S
C323 C320 1.499 . S
C323 C324 1.373 . S
C323 C325 1.389 . S
C324 H297 0.950 . S
C324 C310 1.377 . S
C324 C323 1.373 . S
C325 C309 1.377 . S
C325 C323 1.389 . S
C325 C326 1.524 . S
C326 C325 1.524 . S
C326 C327 1.397 . S
C326 C331 1.363 . S
C327 H298 0.950 . S
C327 C326 1.397 . S
C327 C328 1.334 . S
C328 H299 0.950 . S
C328 C327 1.334 . S
C328 C329 1.287 . S
C329 C328 1.287 . S
C329 C330 1.524 . S
C329 H332 0.999 . S
C330 H300 0.950 . S
C330 C329 1.524 . S
C330 C331 1.415 . S
C331 H301 0.950 . S
C331 C326 1.363 . S
C331 C330 1.415 . S
H332 C329 0.999 . S
H333 C314 0.913 . S
H334 C352 0.951 . S
H335 C354 0.951 . S
H336 C356 0.950 . S
H337 C357 0.950 . S
H338 C359 0.950 . S
H339 C362 0.950 . S
H340 C363 0.950 . S
H341 C365 0.950 . S
H342 C366 0.950 . S
H343 C367 0.951 . S
H344 C369 0.951 . S
H345 C371 0.950 . S
H346 C372 0.950 . S
H347 C374 0.950 . S
H348 C377 0.950 . S
H349 C378 0.950 . S
H350 C380 0.950 . S
H351 C381 0.950 . S
C352 H334 0.951 . S
C352 C353 1.366 . S
C352 C354 1.388 . S
C353 C352 1.366 . S
C353 C357 1.385 . S
C354 H335 0.951 . S
C354 C352 1.388 . S
C354 C355 1.366 . S
C355 C354 1.366 . S
C355 C356 1.414 . S
C355 C358 1.499 . S
C356 H336 0.950 . S
C356 C355 1.414 . S
C356 C357 1.374 . S
C357 H337 0.950 . S
C357 C353 1.385 . S
C357 C356 1.374 . S
C358 C355 1.499 . S
C358 C359 1.373 . S
C358 C360 1.389 . S
C359 H338 0.950 . S
C359 C358 1.373 . S
C359 C375 1.377 . S
C360 C358 1.389 . S
C360 C361 1.524 . S
C360 C374 1.377 . S
C361 C360 1.524 . S
C361 C362 1.397 . S
C361 C366 1.363 . S
C362 H339 0.950 . S
C362 C361 1.397 . S
C362 C363 1.334 . S
C363 H340 0.950 . S
C363 C362 1.334 . S
C363 C364 1.287 . S
C364 C363 1.287 . S
C364 C365 1.524 . S
C364 H383 0.913 . S
C365 H341 0.950 . S
C365 C364 1.524 . S
C365 C366 1.415 . S
C366 H342 0.950 . S
C366 C361 1.363 . S
C366 C365 1.415 . S
C367 H343 0.951 . S
C367 C368 1.366 . S
C367 C369 1.388 . S
C368 C367 1.366 . S
C368 C372 1.385 . S
C369 H344 0.951 . S
C369 C367 1.388 . S
C369 C370 1.366 . S
C370 C369 1.366 . S
C370 C371 1.414 . S
C370 C373 1.499 . S
C371 H345 0.950 . S
C371 C370 1.414 . S
C371 C372 1.374 . S
C372 H346 0.950 . S
C372 C368 1.385 . S
C372 C371 1.374 . S
C373 C370 1.499 . S
C373 C374 1.373 . S
C373 C375 1.389 . S
C374 H347 0.950 . S
C374 C360 1.377 . S
C374 C373 1.373 . S
C375 C359 1.377 . S
C375 C373 1.389 . S
C375 C376 1.524 . S
C376 C375 1.524 . S
C376 C377 1.397 . S
C376 C381 1.363 . S
C377 H348 0.950 . S
C377 C376 1.397 . S
C377 C378 1.334 . S
C378 H349 0.950 . S
C378 C377 1.334 . S
C378 C379 1.287 . S
C379 C378 1.287 . S
C379 C380 1.524 . S
C379 H382 0.999 . S
C380 H350 0.950 . S
C380 C379 1.524 . S
C380 C381 1.415 . S
C381 H351 0.950 . S
C381 C376 1.363 . S
C381 C380 1.415 . S
H382 C379 0.999 . S
H383 C364 0.913 . S
H384 C402 0.951 . S
H385 C404 0.951 . S
H386 C406 0.950 . S
H387 C407 0.950 . S
H388 C409 0.950 . S
H389 C412 0.950 . S
H390 C413 0.950 . S
H391 C415 0.950 . S
H392 C416 0.950 . S
H393 C417 0.951 . S
H394 C419 0.951 . S
H395 C421 0.950 . S
H396 C422 0.950 . S
H397 C424 0.950 . S
H398 C427 0.950 . S
H399 C428 0.950 . S
H400 C430 0.950 . S
H401 C431 0.950 . S
C402 H384 0.951 . S
C402 C403 1.366 . S
C402 C404 1.388 . S
C403 C402 1.366 . S
C403 C407 1.385 . S
C404 H385 0.951 . S
C404 C402 1.388 . S
C404 C405 1.366 . S
C405 C404 1.366 . S
C405 C406 1.414 . S
C405 C408 1.499 . S
C406 H386 0.950 . S
C406 C405 1.414 . S
C406 C407 1.374 . S
C407 H387 0.950 . S
C407 C403 1.385 . S
C407 C406 1.374 . S
C408 C405 1.499 . S
C408 C409 1.373 . S
C408 C410 1.389 . S
C409 H388 0.950 . S
C409 C408 1.373 . S
C409 C425 1.377 . S
C410 C408 1.389 . S
C410 C411 1.524 . S
C410 C424 1.377 . S
C411 C410 1.524 . S
C411 C412 1.397 . S
C411 C416 1.363 . S
C412 H389 0.950 . S
C412 C411 1.397 . S
C412 C413 1.334 . S
C413 H390 0.950 . S
C413 C412 1.334 . S
C413 C414 1.287 . S
C414 C413 1.287 . S
C414 C415 1.524 . S
C414 H433 0.913 . S
C415 H391 0.950 . S
C415 C414 1.524 . S
C415 C416 1.415 . S
C416 H392 0.950 . S
C416 C411 1.363 . S
C416 C415 1.415 . S
C417 H393 0.951 . S
C417 C418 1.366 . S
C417 C419 1.388 . S
C418 C417 1.366 . S
C418 C422 1.385 . S
C419 H394 0.951 . S
C419 C417 1.388 . S
C419 C420 1.366 . S
C420 C419 1.366 . S
C420 C421 1.414 . S
C420 C423 1.499 . S
C421 H395 0.950 . S
C421 C420 1.414 . S
C421 C422 1.374 . S
C422 H396 0.950 . S
C422 C418 1.385 . S
C422 C421 1.374 . S
C423 C420 1.499 . S
C423 C424 1.373 . S
C423 C425 1.389 . S
C424 H397 0.950 . S
C424 C410 1.377 . S
C424 C423 1.373 . S
C425 C409 1.377 . S
C425 C423 1.389 . S
C425 C426 1.524 . S
C426 C425 1.524 . S
C426 C427 1.397 . S
C426 C431 1.363 . S
C427 H398 0.950 . S
C427 C426 1.397 . S
C427 C428 1.334 . S
C428 H399 0.950 . S
C428 C427 1.334 . S
C428 C429 1.287 . S
C429 C428 1.287 . S
C429 C430 1.524 . S
C429 H432 0.999 . S
C430 H400 0.950 . S
C430 C429 1.524 . S
C430 C431 1.415 . S
C431 H401 0.950 . S
C431 C426 1.363 . S
C431 C430 1.415 . S
H432 C429 0.999 . S
H433 C414 0.913 . S
H434 C452 0.951 . S
H435 C454 0.951 . S
H436 C456 0.950 . S
H437 C457 0.950 . S
H438 C459 0.950 . S
H439 C462 0.950 . S
H440 C463 0.950 . S
H441 C465 0.950 . S
H442 C466 0.950 . S
H443 C467 0.951 . S
H444 C469 0.951 . S
H445 C471 0.950 . S
H446 C472 0.950 . S
H447 C474 0.950 . S
H448 C477 0.950 . S
H449 C478 0.950 . S
H450 C480 0.950 . S
H451 C481 0.950 . S
C452 H434 0.951 . S
C452 C453 1.366 . S
C452 C454 1.388 . S
C453 C452 1.366 . S
C453 C457 1.385 . S
C454 H435 0.951 . S
C454 C452 1.388 . S
C454 C455 1.366 . S
C455 C454 1.366 . S
C455 C456 1.414 . S
C455 C458 1.499 . S
C456 H436 0.950 . S
C456 C455 1.414 . S
C456 C457 1.374 . S
C457 H437 0.950 . S
C457 C453 1.385 . S
C457 C456 1.374 . S
C458 C455 1.499 . S
C458 C459 1.373 . S
C458 C460 1.389 . S
C459 H438 0.950 . S
C459 C458 1.373 . S
C459 C475 1.377 . S
C460 C458 1.389 . S
C460 C461 1.524 . S
C460 C474 1.377 . S
C461 C460 1.524 . S
C461 C462 1.397 . S
C461 C466 1.363 . S
C462 H439 0.950 . S
C462 C461 1.397 . S
C462 C463 1.334 . S
C463 H440 0.950 . S
C463 C462 1.334 . S
C463 C464 1.287 . S
C464 C463 1.287 . S
C464 C465 1.524 . S
C464 H483 0.913 . S
C465 H441 0.950 . S
C465 C464 1.524 . S
C465 C466 1.415 . S
C466 H442 0.950 . S
C466 C461 1.363 . S
C466 C465 1.415 . S
C467 H443 0.951 . S
C467 C468 1.366 . S
C467 C469 1.388 . S
C468 C467 1.366 . S
C468 C472 1.385 . S
C469 H444 0.951 . S
C469 C467 1.388 . S
C469 C470 1.366 . S
C470 C469 1.366 . S
C470 C471 1.414 . S
C470 C473 1.499 . S
C471 H445 0.950 . S
C471 C470 1.414 . S
C471 C472 1.374 . S
C472 H446 0.950 . S
C472 C468 1.385 . S
C472 C471 1.374 . S
C473 C470 1.499 . S
C473 C474 1.373 . S
C473 C475 1.389 . S
C474 H447 0.950 . S
C474 C460 1.377 . S
C474 C473 1.373 . S
C475 C459 1.377 . S
C475 C473 1.389 . S
C475 C476 1.524 . S
C476 C475 1.524 . S
C476 C477 1.397 . S
C476 C481 1.363 . S
C477 H448 0.950 . S
C477 C476 1.397 . S
C477 C478 1.334 . S
C478 H449 0.950 . S
C478 C477 1.334 . S
C478 C479 1.287 . S
C479 C478 1.287 . S
C479 C480 1.524 . S
C479 H482 0.999 . S
C480 H450 0.950 . S
C480 C479 1.524 . S
C480 C481 1.415 . S
C481 H451 0.950 . S
C481 C476 1.363 . S
C481 C480 1.415 . S
H482 C479 0.999 . S
H483 C464 0.913 . S
H484 C502 0.951 . S
H485 C504 0.951 . S
H486 C506 0.950 . S
H487 C507 0.950 . S
H488 C509 0.950 . S
H489 C512 0.950 . S
H490 C513 0.950 . S
H491 C515 0.950 . S
H492 C516 0.950 . S
H493 C517 0.951 . S
H494 C519 0.951 . S
H495 C521 0.950 . S
H496 C522 0.950 . S
H497 C524 0.950 . S
H498 C527 0.950 . S
H499 C528 0.950 . S
H500 C530 0.950 . S
H501 C531 0.950 . S
C502 H484 0.951 . S
C502 C503 1.366 . S
C502 C504 1.388 . S
C503 C502 1.366 . S
C503 C507 1.385 . S
C504 H485 0.951 . S
C504 C502 1.388 . S
C504 C505 1.366 . S
C505 C504 1.366 . S
C505 C506 1.414 . S
C505 C508 1.499 . S
C506 H486 0.950 . S
C506 C505 1.414 . S
C506 C507 1.374 . S
C507 H487 0.950 . S
C507 C503 1.385 . S
C507 C506 1.374 . S
C508 C505 1.499 . S
C508 C509 1.373 . S
C508 C510 1.389 . S
C509 H488 0.950 . S
C509 C508 1.373 . S
C509 C525 1.377 . S
C510 C508 1.389 . S
C510 C511 1.524 . S
C510 C524 1.377 . S
C511 C510 1.524 . S
C511 C512 1.397 . S
C511 C516 1.363 . S
C512 H489 0.950 . S
C512 C511 1.397 . S
C512 C513 1.334 . S
C513 H490 0.950 . S
C513 C512 1.334 . S
C513 C514 1.287 . S
C514 C513 1.287 . S
C514 C515 1.524 . S
C514 H533 0.913 . S
C515 H491 0.950 . S
C515 C514 1.524 . S
C515 C516 1.415 . S
C516 H492 0.950 . S
C516 C511 1.363 . S
C516 C515 1.415 . S
C517 H493 0.951 . S
C517 C518 1.366 . S
C517 C519 1.388 . S
C518 C517 1.366 . S
C518 C522 1.385 . S
C519 H494 0.951 . S
C519 C517 1.388 . S
C519 C520 1.366 . S
C520 C519 1.366 . S
C520 C521 1.414 . S
C520 C523 1.499 . S
C521 H495 0.950 . S
C521 C520 1.414 . S
C521 C522 1.374 . S
C522 H496 0.950 . S
C522 C518 1.385 . S
C522 C521 1.374 . S
C523 C520 1.499 . S
C523 C524 1.373 . S
C523 C525 1.389 . S
C524 H497 0.950 . S
C524 C510 1.377 . S
C524 C523 1.373 . S
C525 C509 1.377 . S
C525 C523 1.389 . S
C525 C526 1.524 . S
C526 C525 1.524 . S
C526 C527 1.397 . S
C526 C531 1.363 . S
C527 H498 0.950 . S
C527 C526 1.397 . S
C527 C528 1.334 . S
C528 H499 0.950 . S
C528 C527 1.334 . S
C528 C529 1.287 . S
C529 C528 1.287 . S
C529 C530 1.524 . S
C529 H532 0.999 . S
C530 H500 0.950 . S
C530 C529 1.524 . S
C530 C531 1.415 . S
C531 H501 0.950 . S
C531 C526 1.363 . S
C531 C530 1.415 . S
H532 C529 0.999 . S
H533 C514 0.913 . S
H534 C552 0.951 . S
H535 C554 0.951 . S
H536 C556 0.950 . S
H537 C557 0.950 . S
H538 C559 0.950 . S
H539 C562 0.950 . S
H540 C563 0.950 . S
H541 C565 0.950 . S
H542 C566 0.950 . S
H543 C567 0.951 . S
H544 C569 0.951 . S
H545 C571 0.950 . S
H546 C572 0.950 . S
H547 C574 0.950 . S
H548 C577 0.950 . S
H549 C578 0.950 . S
H550 C580 0.950 . S
H551 C581 0.950 . S
C552 H534 0.951 . S
C552 C553 1.366 . S
C552 C554 1.388 . S
C553 C552 1.366 . S
C553 C557 1.385 . S
C554 H535 0.951 . S
C554 C552 1.388 . S
C554 C555 1.366 . S
C555 C554 1.366 . S
C555 C556 1.414 . S
C555 C558 1.499 . S
C556 H536 0.950 . S
C556 C555 1.414 . S
C556 C557 1.374 . S
C557 H537 0.950 . S
C557 C553 1.385 . S
C557 C556 1.374 . S
C558 C555 1.499 . S
C558 C559 1.373 . S
C558 C560 1.389 . S
C559 H538 0.950 . S
C559 C558 1.373 . S
C559 C575 1.377 . S
C560 C558 1.389 . S
C560 C561 1.524 . S
C560 C574 1.377 . S
C561 C560 1.524 . S
C561 C562 1.397 . S
C561 C566 1.363 . S
C562 H539 0.950 . S
C562 C561 1.397 . S
C562 C563 1.334 . S
C563 H540 0.950 . S
C563 C562 1.334 . S
C563 C564 1.287 . S
C564 C563 1.287 . S
C564 C565 1.524 . S
C564 H583 0.913 . S
C565 H541 0.950 . S
C565 C564 1.524 . S
C565 C566 1.415 . S
C566 H542 0.950 . S
C566 C561 1.363 . S
C566 C565 1.415 . S
C567 H543 0.951 . S
C567 C568 1.366 . S
C567 C569 1.388 . S
C568 C567 1.366 . S
C568 C572 1.385 . S
C569 H544 0.951 . S
C569 C567 1.388 . S
C569 C570 1.366 . S
C570 C569 1.366 . S
C570 C571 1.414 . S
C570 C573 1.499 . S
C571 H545 0.950 . S
C571 C570 1.414 . S
C571 C572 1.374 . S
C572 H546 0.950 . S
C572 C568 1.385 . S
C572 C571 1.374 . S
C573 C570 1.499 . S
C573 C574 1.373 . S
C573 C575 1.389 . S
C574 H547 0.950 . S
C574 C560 1.377 . S
C574 C573 1.373 . S
C575 C559 1.377 . S
C575 C573 1.389 . S
C575 C576 1.524 . S
C576 C575 1.524 . S
C576 C577 1.397 . S
C576 C581 1.363 . S
C577 H548 0.950 . S
C577 C576 1.397 . S
C577 C578 1.334 . S
C578 H549 0.950 . S
C578 C577 1.334 . S
C578 C579 1.287 . S
C579 C578 1.287 . S
C579 C580 1.524 . S
C579 H582 0.999 . S
C580 H550 0.950 . S
C580 C579 1.524 . S
C580 C581 1.415 . S
C581 H551 0.950 . S
C581 C576 1.363 . S
C581 C580 1.415 . S
H582 C579 0.999 . S
H583 C564 0.913 . S
H584 C602 0.951 . S
H585 C604 0.951 . S
H586 C606 0.950 . S
H587 C607 0.950 . S
H588 C609 0.950 . S
H589 C612 0.950 . S
H590 C613 0.950 . S
H591 C615 0.950 . S
H592 C616 0.950 . S
H593 C617 0.951 . S
H594 C619 0.951 . S
H595 C621 0.950 . S
H596 C622 0.950 . S
H597 C624 0.950 . S
H598 C627 0.950 . S
H599 C628 0.950 . S
H600 C630 0.950 . S
H601 C631 0.950 . S
C602 H584 0.951 . S
C602 C603 1.366 . S
C602 C604 1.388 . S
C603 C602 1.366 . S
C603 C607 1.385 . S
C604 H585 0.951 . S
C604 C602 1.388 . S
C604 C605 1.366 . S
C605 C604 1.366 . S
C605 C606 1.414 . S
C605 C608 1.499 . S
C606 H586 0.950 . S
C606 C605 1.414 . S
C606 C607 1.374 . S
C607 H587 0.950 . S
C607 C603 1.385 . S
C607 C606 1.374 . S
C608 C605 1.499 . S
C608 C609 1.373 . S
C608 C610 1.389 . S
C609 H588 0.950 . S
C609 C608 1.373 . S
C609 C625 1.377 . S
C610 C608 1.389 . S
C610 C611 1.524 . S
C610 C624 1.377 . S
C611 C610 1.524 . S
C611 C612 1.397 . S
C611 C616 1.363 . S
C612 H589 0.950 . S
C612 C611 1.397 . S
C612 C613 1.334 . S
C613 H590 0.950 . S
C613 C612 1.334 . S
C613 C614 1.287 . S
C614 C613 1.287 . S
C614 C615 1.524 . S
C614 H633 0.913 . S
C615 H591 0.950 . S
C615 C614 1.524 . S
C615 C616 1.415 . S
C616 H592 0.950 . S
C616 C611 1.363 . S
C616 C615 1.415 . S
C617 H593 0.951 . S
C617 C618 1.366 . S
C617 C619 1.388 . S
C618 C617 1.366 . S
C618 C622 1.385 . S
C619 H594 0.951 . S
C619 C617 1.388 . S
C619 C620 1.366 . S
C620 C619 1.366 . S
C620 C621 1.414 . S
C620 C623 1.499 . S
C621 H595 0.950 . S
C621 C620 1.414 . S
C621 C622 1.374 . S
C622 H596 0.950 . S
C622 C618 1.385 . S
C622 C621 1.374 . S
C623 C620 1.499 . S
C623 C624 1.373 . S
C623 C625 1.389 . S
C624 H597 0.950 . S
C624 C610 1.377 . S
C624 C623 1.373 . S
C625 C609 1.377 . S
C625 C623 1.389 . S
C625 C626 1.524 . S
C626 C625 1.524 . S
C626 C627 1.397 . S
C626 C631 1.363 . S
C627 H598 0.950 . S
C627 C626 1.397 . S
C627 C628 1.334 . S
C628 H599 0.950 . S
C628 C627 1.334 . S
C628 C629 1.287 . S
C629 C628 1.287 . S
C629 C630 1.524 . S
C629 H632 0.999 . S
C630 H600 0.950 . S
C630 C629 1.524 . S
C630 C631 1.415 . S
C631 H601 0.950 . S
C631 C626 1.363 . S
C631 C630 1.415 . S
H632 C629 0.999 . S
H633 C614 0.913 . S
H634 C652 0.951 . S
H635 C654 0.951 . S
H636 C656 0.950 . S
H637 C657 0.950 . S
H638 C659 0.950 . S
H639 C662 0.950 . S
H640 C663 0.950 . S
H641 C665 0.950 . S
H642 C666 0.950 . S
H643 C667 0.951 . S
H644 C669 0.951 . S
H645 C671 0.950 . S
H646 C672 0.950 . S
H647 C674 0.950 . S
H648 C677 0.950 . S
H649 C678 0.950 . S
H650 C680 0.950 . S
H651 C681 0.950 . S
C652 H634 0.951 . S
C652 C653 1.366 . S
C652 C654 1.388 . S
C653 C652 1.366 . S
C653 C657 1.385 . S
C654 H635 0.951 . S
C654 C652 1.388 . S
C654 C655 1.366 . S
C655 C654 1.366 . S
C655 C656 1.414 . S
C655 C658 1.499 . S
C656 H636 0.950 . S
C656 C655 1.414 . S
C656 C657 1.374 . S
C657 H637 0.950 . S
C657 C653 1.385 . S
C657 C656 1.374 . S
C658 C655 1.499 . S
C658 C659 1.373 . S
C658 C660 1.389 . S
C659 H638 0.950 . S
C659 C658 1.373 . S
C659 C675 1.377 . S
C660 C658 1.389 . S
C660 C661 1.524 . S
C660 C674 1.377 . S
C661 C660 1.524 . S
C661 C662 1.397 . S
C661 C666 1.363 . S
C662 H639 0.950 . S
C662 C661 1.397 . S
C662 C663 1.334 . S
C663 H640 0.950 . S
C663 C662 1.334 . S
C663 C664 1.287 . S
C664 C663 1.287 . S
C664 C665 1.524 . S
C664 H683 0.913 . S
C665 H641 0.950 . S
C665 C664 1.524 . S
C665 C666 1.415 . S
C666 H642 0.950 . S
C666 C661 1.363 . S
C666 C665 1.415 . S
C667 H643 0.951 . S
C667 C668 1.366 . S
C667 C669 1.388 . S
C668 C667 1.366 . S
C668 C672 1.385 . S
C669 H644 0.951 . S
C669 C667 1.388 . S
C669 C670 1.366 . S
C670 C669 1.366 . S
C670 C671 1.414 . S
C670 C673 1.499 . S
C671 H645 0.950 . S
C671 C670 1.414 . S
C671 C672 1.374 . S
C672 H646 0.950 . S
C672 C668 1.385 . S
C672 C671 1.374 . S
C673 C670 1.499 . S
C673 C674 1.373 . S
C673 C675 1.389 . S
C674 H647 0.950 . S
C674 C660 1.377 . S
C674 C673 1.373 . S
C675 C659 1.377 . S
C675 C673 1.389 . S
C675 C676 1.524 . S
C676 C675 1.524 . S
C676 C677 1.397 . S
C676 C681 1.363 . S
C677 H648 0.950 . S
C677 C676 1.397 . S
C677 C678 1.334 . S
C678 H649 0.950 . S
C678 C677 1.334 . S
C678 C679 1.287 . S
C679 C678 1.287 . S
C679 C680 1.524 . S
C679 H682 0.999 . S
C680 H650 0.950 . S
C680 C679 1.524 . S
C680 C681 1.415 . S
C681 H651 0.950 . S
C681 C676 1.363 . S
C681 C680 1.415 . S
H682 C679 0.999 . S
H683 C664 0.913 . S
H684 C702 0.951 . S
H685 C704 0.951 . S
H686 C706 0.950 . S
H687 C707 0.950 . S
H688 C709 0.950 . S
H689 C712 0.950 . S
H690 C713 0.950 . S
H691 C715 0.950 . S
H692 C716 0.950 . S
H693 C717 0.951 . S
H694 C719 0.951 . S
H695 C721 0.950 . S
H696 C722 0.950 . S
H697 C724 0.950 . S
H698 C727 0.950 . S
H699 C728 0.950 . S
H700 C730 0.950 . S
H701 C731 0.950 . S
C702 H684 0.951 . S
C702 C703 1.366 . S
C702 C704 1.388 . S
C703 C702 1.366 . S
C703 C707 1.385 . S
C704 H685 0.951 . S
C704 C702 1.388 . S
C704 C705 1.366 . S
C705 C704 1.366 . S
C705 C706 1.414 . S
C705 C708 1.499 . S
C706 H686 0.950 . S
C706 C705 1.414 . S
C706 C707 1.374 . S
C707 H687 0.950 . S
C707 C703 1.385 . S
C707 C706 1.374 . S
C708 C705 1.499 . S
C708 C709 1.373 . S
C708 C710 1.389 . S
C709 H688 0.950 . S
C709 C708 1.373 . S
C709 C725 1.377 . S
C710 C708 1.389 . S
C710 C711 1.524 . S
C710 C724 1.377 . S
C711 C710 1.524 . S
C711 C712 1.397 . S
C711 C716 1.363 . S
C712 H689 0.950 . S
C712 C711 1.397 . S
C712 C713 1.334 . S
C713 H690 0.950 . S
C713 C712 1.334 . S
C713 C714 1.287 . S
C714 C713 1.287 . S
C714 C715 1.524 . S
C714 H733 0.913 . S
C715 H691 0.950 . S
C715 C714 1.524 . S
C715 C716 1.415 . S
C716 H692 0.950 . S
C716 C711 1.363 . S
C716 C715 1.415 . S
C717 H693 0.951 . S
C717 C718 1.366 . S
C717 C719 1.388 . S
C718 C717 1.366 . S
C718 C722 1.385 . S
C719 H694 0.951 . S
C719 C717 1.388 . S
C719 C720 1.366 . S
C720 C719 1.366 . S
C720 C721 1.414 . S
C720 C723 1.499 . S
C721 H695 0.950 . S
C721 C720 1.414 . S
C721 C722 1.374 . S
C722 H696 0.950 . S
C722 C718 1.385 . S
C722 C721 1.374 . S
C723 C720 1.499 . S
C723 C724 1.373 . S
C723 C725 1.389 . S
C724 H697 0.950 . S
C724 C710 1.377 . S
C724 C723 1.373 . S
C725 C709 1.377 . S
C725 C723 1.389 . S
C725 C726 1.524 . S
C726 C725 1.524 . S
C726 C727 1.397 . S
C726 C731 1.363 . S
C727 H698 0.950 . S
C727 C726 1.397 . S
C727 C728 1.334 . S
C728 H699 0.950 . S
C728 C727 1.334 . S
C728 C729 1.287 . S
C729 C728 1.287 . S
C729 C730 1.524 . S
C729 H732 0.999 . S
C730 H700 0.950 . S
C730 C729 1.524 . S
C730 C731 1.415 . S
C731 H701 0.950 . S
C731 C726 1.363 . S
C731 C730 1.415 . S
H732 C729 0.999 . S
H733 C714 0.913 . S
H734 C752 0.951 . S
H735 C754 0.951 . S
H736 C756 0.950 . S
H737 C757 0.950 . S
H738 C759 0.950 . S
H739 C762 0.950 . S
H740 C763 0.950 . S
H741 C765 0.950 . S
H742 C766 0.950 . S
H743 C767 0.951 . S
H744 C769 0.951 . S
H745 C771 0.950 . S
H746 C772 0.950 . S
H747 C774 0.950 . S
H748 C777 0.950 . S
H749 C778 0.950 . S
H750 C780 0.950 . S
H751 C781 0.950 . S
C752 H734 0.951 . S
C752 C753 1.366 . S
C752 C754 1.388 . S
C753 C752 1.366 . S
C753 C757 1.385 . S
C754 H735 0.951 . S
C754 C752 1.388 . S
C754 C755 1.366 . S
C755 C754 1.366 . S
C755 C756 1.414 . S
C755 C758 1.499 . S
C756 H736 0.950 . S
C756 C755 1.414 . S
C756 C757 1.374 . S
C757 H737 0.950 . S
C757 C753 1.385 . S
C757 C756 1.374 . S
C758 C755 1.499 . S
C758 C759 1.373 . S
C758 C760 1.389 . S
C759 H738 0.950 . S
C759 C758 1.373 . S
C759 C775 1.377 . S
C760 C758 1.389 . S
C760 C761 1.524 . S
C760 C774 1.377 . S
C761 C760 1.524 . S
C761 C762 1.397 . S
C761 C766 1.363 . S
C762 H739 0.950 . S
C762 C761 1.397 . S
C762 C763 1.334 . S
C763 H740 0.950 . S
C763 C762 1.334 . S
C763 C764 1.287 . S
C764 C763 1.287 . S
C764 C765 1.524 . S
C764 H783 0.913 . S
C765 H741 0.950 . S
C765 C764 1.524 . S
C765 C766 1.415 . S
C766 H742 0.950 . S
C766 C761 1.363 . S
C766 C765 1.415 . S
C767 H743 0.951 . S
C767 C768 1.366 . S
C767 C769 1.388 . S
C768 C767 1.366 . S
C768 C772 1.385 . S
C769 H744 0.951 . S
C769 C767 1.388 . S
C769 C770 1.366 . S
C770 C769 1.366 . S
C770 C771 1.414 . S
C770 C773 1.499 . S
C771 H745 0.950 . S
C771 C770 1.414 . S
C771 C772 1.374 . S
C772 H746 0.950 . S
C772 C768 1.385 . S
C772 C771 1.374 . S
C773 C770 1.499 . S
C773 C774 1.373 . S
C773 C775 1.389 . S
C774 H747 0.950 . S
C774 C760 1.377 . S
C774 C773 1.373 . S
C775 C759 1.377 . S
C775 C773 1.389 . S
C775 C776 1.524 . S
C776 C775 1.524 . S
C776 C777 1.397 . S
C776 C781 1.363 . S
C777 H748 0.950 . S
C777 C776 1.397 . S
C777 C778 1.334 . S
C778 H749 0.950 . S
C778 C777 1.334 . S
C778 C779 1.287 . S
C779 C778 1.287 . S
C779 C780 1.524 . S
C779 H782 0.999 . S
C780 H750 0.950 . S
C780 C779 1.524 . S
C780 C781 1.415 . S
C781 H751 0.950 . S
C781 C776 1.363 . S
C781 C780 1.415 . S
H782 C779 0.999 . S
H783 C764 0.913 . S
H784 C802 0.951 . S
H785 C804 0.951 . S
H786 C806 0.950 . S
H787 C807 0.950 . S
H788 C809 0.950 . S
H789 C812 0.950 . S
H790 C813 0.950 . S
H791 C815 0.950 . S
H792 C816 0.950 . S
H793 C817 0.951 . S
H794 C819 0.951 . S
H795 C821 0.950 . S
H796 C822 0.950 . S
H797 C824 0.950 . S
H798 C827 0.950 . S
H799 C828 0.950 . S
H800 C830 0.950 . S
H801 C831 0.950 . S
C802 H784 0.951 . S
C802 C803 1.366 . S
C802 C804 1.388 . S
C803 C802 1.366 . S
C803 C807 1.385 . S
C804 H785 0.951 . S
C804 C802 1.388 . S
C804 C805 1.366 . S
C805 C804 1.366 . S
C805 C806 1.414 . S
C805 C808 1.499 . S
C806 H786 0.950 . S
C806 C805 1.414 . S
C806 C807 1.374 . S
C807 H787 0.950 . S
C807 C803 1.385 . S
C807 C806 1.374 . S
C808 C805 1.499 . S
C808 C809 1.373 . S
C808 C810 1.389 . S
C809 H788 0.950 . S
C809 C808 1.373 . S
C809 C825 1.377 . S
C810 C808 1.389 . S
C810 C811 1.524 . S
C810 C824 1.377 . S
C811 C810 1.524 . S
C811 C812 1.397 . S
C811 C816 1.363 . S
C812 H789 0.950 . S
C812 C811 1.397 . S
C812 C813 1.334 . S
C813 H790 0.950 . S
C813 C812 1.334 . S
C813 C814 1.287 . S
C814 C813 1.287 . S
C814 C815 1.524 . S
C814 H833 0.913 . S
C815 H791 0.950 . S
C815 C814 1.524 . S
C815 C816 1.415 . S
C816 H792 0.950 . S
C816 C811 1.363 . S
C816 C815 1.415 . S
C817 H793 0.951 . S
C817 C818 1.366 . S
C817 C819 1.388 . S
C818 C817 1.366 . S
C818 C822 1.385 . S
C819 H794 0.951 . S
C819 C817 1.388 . S
C819 C820 1.366 . S
C820 C819 1.366 . S
C820 C821 1.414 . S
C820 C823 1.499 . S
C821 H795 0.950 . S
C821 C820 1.414 . S
C821 C822 1.374 . S
C822 H796 0.950 . S
C822 C818 1.385 . S
C822 C821 1.374 . S
C823 C820 1.499 . S
C823 C824 1.373 . S
C823 C825 1.389 . S
C824 H797 0.950 . S
C824 C810 1.377 . S
C824 C823 1.373 . S
C825 C809 1.377 . S
C825 C823 1.389 . S
C825 C826 1.524 . S
C826 C825 1.524 . S
C826 C827 1.397 . S
C826 C831 1.363 . S
C827 H798 0.950 . S
C827 C826 1.397 . S
C827 C828 1.334 . S
C828 H799 0.950 . S
C828 C827 1.334 . S
C828 C829 1.287 . S
C829 C828 1.287 . S
C829 C830 1.524 . S
C829 H832 0.999 . S
C830 H800 0.950 . S
C830 C829 1.524 . S
C830 C831 1.415 . S
C831 H801 0.950 . S
C831 C826 1.363 . S
C831 C830 1.415 . S
H832 C829 0.999 . S
H833 C814 0.913 . S
H834 C852 0.951 . S
H835 C854 0.951 . S
H836 C856 0.950 . S
H837 C857 0.950 . S
H838 C859 0.950 1_655 S
H839 C862 0.950 . S
H840 C863 0.950 . S
H841 C865 0.950 . S
H842 C866 0.950 . S
H843 C867 0.951 . S
H844 C869 0.951 . S
H845 C871 0.950 . S
H846 C872 0.950 . S
H847 C874 0.950 . S
H848 C877 0.950 . S
H849 C878 0.950 . S
H850 C880 0.950 . S
H851 C881 0.950 . S
C852 H834 0.951 . S
C852 C853 1.366 . S
C852 C854 1.388 . S
C853 C852 1.366 . S
C853 C857 1.385 . S
C854 H835 0.951 . S
C854 C852 1.388 . S
C854 C855 1.366 . S
C855 C854 1.366 . S
C855 C856 1.414 . S
C855 C858 1.499 . S
C856 H836 0.950 . S
C856 C855 1.414 . S
C856 C857 1.374 . S
C857 H837 0.950 . S
C857 C853 1.385 . S
C857 C856 1.374 . S
C858 C855 1.499 . S
C858 C859 1.373 . S
C858 C860 1.389 . S
C859 H838 0.950 1_455 S
C859 C858 1.373 . S
C859 C875 1.328 1_554 S
C860 C858 1.389 . S
C860 C861 1.524 . S
C860 C874 1.377 . S
C861 C860 1.524 . S
C861 C862 1.397 . S
C861 C866 1.363 . S
C862 H839 0.950 . S
C862 C861 1.397 . S
C862 C863 1.334 . S
C863 H840 0.950 . S
C863 C862 1.334 . S
C863 C864 1.287 . S
C864 C863 1.287 . S
C864 C865 1.524 . S
C864 H883 0.913 . S
C865 H841 0.950 . S
C865 C864 1.524 . S
C865 C866 1.415 . S
C866 H842 0.950 . S
C866 C861 1.363 . S
C866 C865 1.415 . S
C867 H843 0.951 . S
C867 C868 1.366 . S
C867 C869 1.388 . S
C868 C867 1.366 . S
C868 C872 1.385 . S
C869 H844 0.951 . S
C869 C867 1.388 . S
C869 C870 1.366 . S
C870 C869 1.366 . S
C870 C871 1.414 . S
C870 C873 1.499 . S
C871 H845 0.950 . S
C871 C870 1.414 . S
C871 C872 1.374 . S
C872 H846 0.950 . S
C872 C868 1.385 . S
C872 C871 1.374 . S
C873 C870 1.499 . S
C873 C874 1.373 1_556 S
C873 C875 1.412 . S
C874 H847 0.950 . S
C874 C860 1.377 . S
C874 C873 1.373 1_554 S
C875 C859 1.328 1_556 S
C875 C873 1.412 . S
C875 C876 1.548 1_455 S
C876 C875 1.548 1_655 S
C876 C877 1.397 . S
C876 C881 1.363 . S
C877 H848 0.950 . S
C877 C876 1.397 . S
C877 C878 1.334 . S
C878 H849 0.950 . S
C878 C877 1.334 . S
C878 C879 1.287 . S
C879 C878 1.287 . S
C879 C880 1.524 . S
C879 H882 0.999 . S
C880 H850 0.950 . S
C880 C879 1.524 . S
C880 C881 1.415 . S
C881 H851 0.950 . S
C881 C876 1.363 . S
C881 C880 1.415 . S
H882 C879 0.999 . S
H883 C864 0.913 . S
H884 C902 0.951 . S
H885 C904 0.951 . S
H886 C906 0.950 1_565 S
H887 C907 0.950 1_565 S
H888 C909 0.950 . S
H889 C912 0.950 . S
H890 C913 0.950 . S
H891 C915 0.950 . S
H892 C916 0.950 . S
H893 C917 0.951 . S
H894 C919 0.951 . S
H895 C921 0.950 . S
H896 C922 0.950 . S
H897 C924 0.950 . S
H898 C927 0.950 . S
H899 C928 0.950 1_545 S
H900 C930 0.950 . S
H901 C931 0.950 . S
C902 H884 0.951 . S
C902 C903 1.366 . S
C902 C904 1.388 . S
C903 C902 1.366 . S
C903 C907 1.385 . S
C904 H885 0.951 . S
C904 C902 1.388 . S
C904 C905 1.366 . S
C905 C904 1.366 . S
C905 C906 1.414 . S
C905 C908 1.499 . S
C906 H886 0.950 1_545 S
C906 C905 1.414 . S
C906 C907 1.374 . S
C907 H887 0.950 1_545 S
C907 C903 1.385 . S
C907 C906 1.374 . S
C908 C905 1.499 . S
C908 C909 1.373 . S
C908 C910 1.389 . S
C909 H888 0.950 . S
C909 C908 1.373 . S
C909 C925 1.377 . S
C910 C908 1.389 . S
C910 C911 1.524 . S
C910 C924 1.377 . S
C911 C910 1.524 . S
C911 C912 1.397 . S
C911 C916 1.363 . S
C912 H889 0.950 . S
C912 C911 1.397 . S
C912 C913 1.334 . S
C913 H890 0.950 . S
C913 C912 1.334 . S
C913 C914 1.287 . S
C914 C913 1.287 . S
C914 C915 1.524 . S
C914 H933 0.913 . S
C915 H891 0.950 . S
C915 C914 1.524 . S
C915 C916 1.415 . S
C916 H892 0.950 . S
C916 C911 1.363 . S
C916 C915 1.415 . S
C917 H893 0.951 . S
C917 C918 1.366 . S
C917 C919 1.388 . S
C918 C917 1.366 . S
C918 C922 1.385 . S
C919 H894 0.951 . S
C919 C917 1.388 . S
C919 C920 1.366 . S
C920 C919 1.366 . S
C920 C921 1.414 . S
C920 C923 1.499 . S
C921 H895 0.950 . S
C921 C920 1.414 . S
C921 C922 1.374 . S
C922 H896 0.950 . S
C922 C918 1.385 . S
C922 C921 1.374 . S
C923 C920 1.499 . S
C923 C924 1.373 . S
C923 C925 1.389 . S
C924 H897 0.950 . S
C924 C910 1.377 . S
C924 C923 1.373 . S
C925 C909 1.377 . S
C925 C923 1.389 . S
C925 C926 1.524 . S
C926 C925 1.524 . S
C926 C927 1.397 . S
C926 C931 1.363 1_545 S
C927 H898 0.950 . S
C927 C926 1.397 . S
C927 C928 1.334 1_545 S
C928 H899 0.950 1_565 S
C928 C927 1.334 1_565 S
C928 C929 1.287 . S
C929 C928 1.287 . S
C929 C930 1.524 . S
C929 H932 0.999 . S
C930 H900 0.950 . S
C930 C929 1.524 . S
C930 C931 1.415 . S
C931 H901 0.950 . S
C931 C926 1.363 1_565 S
C931 C930 1.415 . S
H932 C929 0.999 . S
H933 C914 0.913 . S
H934 C952 0.951 . S
H935 C954 0.951 . S
H936 C956 0.950 . S
H937 C957 0.950 . S
H938 C959 0.950 . S
H939 C962 0.950 . S
H940 C963 0.950 . S
H941 C965 0.950 . S
H942 C966 0.950 . S
H943 C967 0.951 . S
H944 C969 0.951 . S
H945 C971 0.950 . S
H946 C972 0.950 . S
H947 C974 0.950 . S
H948 C977 0.950 . S
H949 C978 0.950 . S
H950 C980 0.950 . S
H951 C981 0.950 . S
C952 H934 0.951 . S
C952 C953 1.366 . S
C952 C954 1.388 . S
C953 C952 1.366 . S
C953 C957 1.385 . S
C954 H935 0.951 . S
C954 C952 1.388 . S
C954 C955 1.366 . S
C955 C954 1.366 . S
C955 C956 1.414 . S
C955 C958 1.499 . S
C956 H936 0.950 . S
C956 C955 1.414 . S
C956 C957 1.374 . S
C957 H937 0.950 . S
C957 C953 1.385 . S
C957 C956 1.374 . S
C958 C955 1.499 . S
C958 C959 1.373 . S
C958 C960 1.389 . S
C959 H938 0.950 . S
C959 C958 1.373 . S
C959 C975 1.377 . S
C960 C958 1.389 . S
C960 C961 1.524 . S
C960 C974 1.377 . S
C961 C960 1.524 . S
C961 C962 1.397 . S
C961 C966 1.363 . S
C962 H939 0.950 . S
C962 C961 1.397 . S
C962 C963 1.334 . S
C963 H940 0.950 . S
C963 C962 1.334 . S
C963 C964 1.287 . S
C964 C963 1.287 . S
C964 C965 1.524 . S
C964 H983 0.913 . S
C965 H941 0.950 . S
C965 C964 1.524 . S
C965 C966 1.415 . S
C966 H942 0.950 . S
C966 C961 1.363 . S
C966 C965 1.415 . S
C967 H943 0.951 . S
C967 C968 1.366 . S
C967 C969 1.388 . S
C968 C967 1.366 . S
C968 C972 1.385 . S
C969 H944 0.951 . S
C969 C967 1.388 . S
C969 C970 1.366 . S
C970 C969 1.366 . S
C970 C971 1.414 . S
C970 C973 1.499 . S
C971 H945 0.950 . S
C971 C970 1.414 . S
C971 C972 1.374 . S
C972 H946 0.950 . S
C972 C968 1.385 . S
C972 C971 1.374 . S
C973 C970 1.499 . S
C973 C974 1.373 . S
C973 C975 1.389 . S
C974 H947 0.950 . S
C974 C960 1.377 . S
C974 C973 1.373 . S
C975 C959 1.377 . S
C975 C973 1.389 . S
C975 C976 1.524 . S
C976 C975 1.524 . S
C976 C977 1.397 . S
C976 C981 1.363 . S
C977 H948 0.950 . S
C977 C976 1.397 . S
C977 C978 1.334 . S
C978 H949 0.950 . S
C978 C977 1.334 . S
C978 C979 1.287 . S
C979 C978 1.287 . S
C979 C980 1.524 . S
C979 H982 0.999 . S
C980 H950 0.950 . S
C980 C979 1.524 . S
C980 C981 1.415 . S
C981 H951 0.950 . S
C981 C976 1.363 . S
C981 C980 1.415 . S
H982 C979 0.999 . S
H983 C964 0.913 . S
H984 C1002 0.965 . S
H985 C1004 0.934 1_565 S
H986 C1006 0.950 . S
H987 C1007 0.950 . S
H988 C1009 0.950 . S
H989 C1012 0.950 . S
H990 C1013 0.950 . S
H991 C1015 0.950 . S
H992 C1016 0.950 . S
H993 C1017 0.951 . S
H994 C1019 0.951 . S
H995 C1021 0.950 1_565 S
H996 C1022 0.950 1_565 S
H997 C1024 0.950 . S
H998 C1027 0.950 . S
H999 C1028 0.950 . S
H1000 C1030 0.950 . S
H1001 C1031 0.950 . S
C1002 H984 0.965 . S
C1002 C1003 1.366 . S
C1002 C1004 1.388 . S
C1003 C1002 1.366 . S
C1003 C1007 1.385 . S
C1004 H985 0.934 1_545 S
C1004 C1002 1.388 . S
C1004 C1005 1.366 . S
C1005 C1004 1.366 . S
C1005 C1006 1.414 . S
C1005 C1008 1.499 . S
C1006 H986 0.950 . S
C1006 C1005 1.414 . S
C1006 C1007 1.374 . S
C1007 H987 0.950 . S
C1007 C1003 1.385 . S
C1007 C1006 1.374 . S
C1008 C1005 1.499 . S
C1008 C1009 1.373 . S
C1008 C1010 1.389 . S
C1009 H988 0.950 . S
C1009 C1008 1.373 . S
C1009 C1025 1.377 . S
C1010 C1008 1.389 . S
C1010 C1011 1.524 . S
C1010 C1024 1.377 . S
C1011 C1010 1.524 . S
C1011 C1012 1.397 . S
C1011 C1016 1.363 1_545 S
C1012 H989 0.950 . S
C1012 C1011 1.397 . S
C1012 C1013 1.334 . S
C1013 H990 0.950 . S
C1013 C1012 1.334 . S
C1013 C1014 1.287 1_545 S
C1014 C1013 1.287 1_565 S
C1014 C1015 1.524 . S
C1014 H1033 0.913 . S
C1015 H991 0.950 . S
C1015 C1014 1.524 . S
C1015 C1016 1.415 . S
C1016 H992 0.950 . S
C1016 C1011 1.363 1_565 S
C1016 C1015 1.415 . S
C1017 H993 0.951 . S
C1017 C1018 1.366 . S
C1017 C1019 1.388 . S
C1018 C1017 1.366 . S
C1018 C1022 1.385 . S
C1019 H994 0.951 . S
C1019 C1017 1.388 . S
C1019 C1020 1.366 . S
C1020 C1019 1.366 . S
C1020 C1021 1.414 . S
C1020 C1023 1.499 . S
C1021 H995 0.950 1_545 S
C1021 C1020 1.414 . S
C1021 C1022 1.374 . S
C1022 H996 0.950 1_545 S
C1022 C1018 1.385 . S
C1022 C1021 1.374 . S
C1023 C1020 1.499 . S
C1023 C1024 1.373 . S
C1023 C1025 1.389 . S
C1024 H997 0.950 . S
C1024 C1010 1.377 . S
C1024 C1023 1.373 . S
C1025 C1009 1.377 . S
C1025 C1023 1.389 . S
C1025 C1026 1.524 . S
C1026 C1025 1.524 . S
C1026 C1027 1.397 . S
C1026 C1031 1.363 . S
C1027 H998 0.950 . S
C1027 C1026 1.397 . S
C1027 C1028 1.334 . S
C1028 H999 0.950 . S
C1028 C1027 1.334 . S
C1028 C1029 1.287 . S
C1029 C1028 1.287 . S
C1029 C1030 1.524 . S
C1029 H1032 0.999 . S
C1030 H1000 0.950 . S
C1030 C1029 1.524 . S
C1030 C1031 1.415 . S
C1031 H1001 0.950 . S
C1031 C1026 1.363 . S
C1031 C1030 1.415 . S
H1032 C1029 0.999 . S
H1033 C1014 0.913 . S
H1034 C1052 0.951 . S
H1035 C1054 0.951 . S
H1036 C1056 0.950 . S
H1037 C1057 0.950 . S
H1038 C1059 0.950 . S
H1039 C1062 0.950 . S
H1040 C1063 0.950 . S
H1041 C1065 0.950 . S
H1042 C1066 0.950 . S
H1043 C1067 0.951 . S
H1044 C1069 0.951 . S
H1045 C1071 0.950 . S
H1046 C1072 0.950 . S
H1047 C1074 0.943 1_554 S
H1048 C1077 0.950 . S
H1049 C1078 0.950 . S
H1050 C1080 0.950 . S
H1051 C1081 0.950 1_556 S
C1052 H1034 0.951 . S
C1052 C1053 1.366 . S
C1052 C1054 1.388 . S
C1053 C1052 1.366 . S
C1053 C1057 1.385 . S
C1054 H1035 0.951 . S
C1054 C1052 1.388 . S
C1054 C1055 1.366 . S
C1055 C1054 1.366 . S
C1055 C1056 1.414 . S
C1055 C1058 1.499 . S
C1056 H1036 0.950 . S
C1056 C1055 1.414 . S
C1056 C1057 1.374 . S
C1057 H1037 0.950 . S
C1057 C1053 1.385 . S
C1057 C1056 1.374 . S
C1058 C1055 1.499 . S
C1058 C1059 1.373 . S
C1058 C1060 1.389 . S
C1059 H1038 0.950 . S
C1059 C1058 1.373 . S
C1059 C1075 1.377 1_556 S
C1060 C1058 1.389 . S
C1060 C1061 1.524 . S
C1060 C1074 1.377 . S
C1061 C1060 1.524 . S
C1061 C1062 1.397 . S
C1061 C1066 1.363 . S
C1062 H1039 0.950 . S
C1062 C1061 1.397 . S
C1062 C1063 1.334 . S
C1063 H1040 0.950 . S
C1063 C1062 1.334 . S
C1063 C1064 1.287 . S
C1064 C1063 1.287 . S
C1064 C1065 1.524 . S
C1064 H1083 0.913 . S
C1065 H1041 0.950 . S
C1065 C1064 1.524 . S
C1065 C1066 1.415 . S
C1066 H1042 0.950 . S
C1066 C1061 1.363 . S
C1066 C1065 1.415 . S
C1067 H1043 0.951 . S
C1067 C1068 1.366 . S
C1067 C1069 1.388 . S
C1068 C1067 1.366 . S
C1068 C1072 1.385 . S
C1069 H1044 0.951 . S
C1069 C1067 1.388 . S
C1069 C1070 1.366 . S
C1070 C1069 1.366 . S
C1070 C1071 1.414 . S
C1070 C1073 1.499 . S
C1071 H1045 0.950 . S
C1071 C1070 1.414 . S
C1071 C1072 1.374 . S
C1072 H1046 0.950 . S
C1072 C1068 1.385 . S
C1072 C1071 1.374 . S
C1073 C1070 1.499 . S
C1073 C1074 1.373 1_554 S
C1073 C1075 1.389 . S
C1074 H1047 0.943 1_556 S
C1074 C1060 1.377 . S
C1074 C1073 1.373 1_556 S
C1075 C1059 1.377 1_554 S
C1075 C1073 1.389 . S
C1075 C1076 1.524 . S
C1076 C1075 1.524 . S
C1076 C1077 1.397 . S
C1076 C1081 1.363 . S
C1077 H1048 0.950 . S
C1077 C1076 1.397 . S
C1077 C1078 1.334 . S
C1078 H1049 0.950 . S
C1078 C1077 1.334 . S
C1078 C1079 1.287 . S
C1079 C1078 1.287 . S
C1079 C1080 1.524 . S
C1079 H1082 0.999 . S
C1080 H1050 0.950 . S
C1080 C1079 1.524 . S
C1080 C1081 1.415 . S
C1081 H1051 0.950 1_554 S
C1081 C1076 1.363 . S
C1081 C1080 1.415 . S
H1082 C1079 0.999 . S
H1083 C1064 0.913 . S
H1084 C1102 0.951 . S
H1085 C1104 0.951 . S
H1086 C1106 0.950 1_655 S
H1087 C1107 0.950 1_655 S
H1088 C1109 0.950 1_655 S
H1089 C1112 0.950 . S
H1090 C1113 0.950 . S
H1091 C1115 0.950 . S
H1092 C1116 0.950 . S
H1093 C1117 0.951 . S
H1094 C1119 0.951 . S
H1095 C1121 0.950 . S
H1096 C1122 0.950 . S
H1097 C1124 0.950 . S
H1098 C1127 0.950 1_455 S
H1099 C1128 0.950 . S
H1100 C1130 0.950 . S
H1101 C1131 0.950 . S
C1102 H1084 0.951 . S
C1102 C1103 1.366 . S
C1102 C1104 1.388 . S
C1103 C1102 1.366 . S
C1103 C1107 1.385 . S
C1104 H1085 0.951 . S
C1104 C1102 1.388 . S
C1104 C1105 1.366 . S
C1105 C1104 1.366 . S
C1105 C1106 1.414 . S
C1105 C1108 1.499 . S
C1106 H1086 0.950 1_455 S
C1106 C1105 1.414 . S
C1106 C1107 1.374 . S
C1107 H1087 0.950 1_455 S
C1107 C1103 1.385 . S
C1107 C1106 1.374 . S
C1108 C1105 1.499 . S
C1108 C1109 1.373 . S
C1108 C1110 1.389 . S
C1109 H1088 0.950 1_455 S
C1109 C1108 1.373 . S
C1109 C1125 1.377 . S
C1110 C1108 1.389 . S
C1110 C1111 1.524 . S
C1110 C1124 1.377 . S
C1111 C1110 1.524 . S
C1111 C1112 1.397 . S
C1111 C1116 1.363 . S
C1112 H1089 0.950 . S
C1112 C1111 1.397 . S
C1112 C1113 1.334 . S
C1113 H1090 0.950 . S
C1113 C1112 1.334 . S
C1113 C1114 1.287 . S
C1114 C1113 1.287 . S
C1114 C1115 1.524 . S
C1114 H1133 0.913 . S
C1115 H1091 0.950 . S
C1115 C1114 1.524 . S
C1115 C1116 1.415 . S
C1116 H1092 0.950 . S
C1116 C1111 1.363 . S
C1116 C1115 1.415 . S
C1117 H1093 0.951 . S
C1117 C1118 1.366 1_655 S
C1117 C1119 1.388 . S
C1118 C1117 1.366 1_455 S
C1118 C1122 1.385 . S
C1119 H1094 0.951 . S
C1119 C1117 1.388 . S
C1119 C1120 1.366 1_655 S
C1120 C1119 1.366 1_455 S
C1120 C1121 1.414 . S
C1120 C1123 1.499 . S
C1121 H1095 0.950 . S
C1121 C1120 1.414 . S
C1121 C1122 1.374 . S
C1122 H1096 0.950 . S
C1122 C1118 1.385 . S
C1122 C1121 1.374 . S
C1123 C1120 1.499 . S
C1123 C1124 1.373 . S
C1123 C1125 1.389 . S
C1124 H1097 0.950 . S
C1124 C1110 1.377 . S
C1124 C1123 1.373 . S
C1125 C1109 1.377 . S
C1125 C1123 1.389 . S
C1125 C1126 1.524 1_455 S
C1126 C1125 1.524 1_655 S
C1126 C1127 1.397 . S
C1126 C1131 1.363 . S
C1127 H1098 0.950 1_655 S
C1127 C1126 1.397 . S
C1127 C1128 1.334 . S
C1128 H1099 0.950 . S
C1128 C1127 1.334 . S
C1128 C1129 1.287 . S
C1129 C1128 1.287 . S
C1129 C1130 1.524 . S
C1129 H1132 0.999 . S
C1130 H1100 0.950 . S
C1130 C1129 1.524 . S
C1130 C1131 1.415 . S
C1131 H1101 0.950 . S
C1131 C1126 1.363 . S
C1131 C1130 1.415 . S
H1132 C1129 0.999 . S
H1133 C1114 0.913 . S
C253 C7 0.681 . S
C268 C226 0.699 . S
C303 C51 1.980 . S
C318 C188 1.910 . S
C353 C87 1.266 . S
C368 C207 1.216 . S
C403 C16 0.156 . S
C418 C221 0.208 . S
C468 C183 1.850 . S
C453 C42 1.883 . S
C518 C202 1.095 . S
C503 C96 1.110 . S
C553 C47 1.321 . S
C568 C150 1.254 . S
C603 C91 3.034 . S
C618 C164 2.996 1_655 S
C653 C2 1.896 . S
C668 C126 1.872 1_565 S
C718 C145 1.084 . S
C703 C56 1.097 . S
C768 C169 2.995 . S
C753 C82 3.065 . S
C803 C11 1.985 . S
C818 C131 1.920 . S
C868 C160 1.703 . S
C853 C19 1.687 . S
C903 C50 1.482 . S
C918 C122 1.537 . S
C953 C99 1.563 . S
C968 C141 1.575 . S
C1018 C198 1.566 . S
C1003 C59 1.573 . S
C1068 C217 1.413 . S
C1053 C90 1.385 . S
C1103 C10 1.452 . S
C1118 C179 1.489 . S
