# Generated by pormake.
# Topology rtl, (3,6)-cn, num edge types: 1
# Building blocks:
#     Node 0, Type 0, BuildingBlock: CUQRIR_clean_linker_1, # of connection points: 3
#     Node 1, Type 0, BuildingBlock: CUQRIR_clean_linker_1, # of connection points: 3
#     Node 2, Type 0, BuildingBlock: CUQRIR_clean_linker_1, # of connection points: 3
#     Node 3, Type 0, BuildingBlock: CUQRIR_clean_linker_1, # of connection points: 3
#     Node 4, Type 1, BuildingBlock: VOLQOD_clean_sbu_1, # of connection points: 6
#     Node 5, Type 1, BuildingBlock: VOLQOD_clean_sbu_1, # of connection points: 6
#     Edge 6, Type (0, 1), BuildingBlock: FUNLAD_clean_linker_1, # of connection points: 2
#     Edge 7, Type (0, 1), BuildingBlock: FUNLAD_clean_linker_1, # of connection points: 2
#     Edge 8, Type (0, 1), BuildingBlock: FUNLAD_clean_linker_1, # of connection points: 2
#     Edge 9, Type (0, 1), BuildingBlock: FUNLAD_clean_linker_1, # of connection points: 2
#     Edge 10, Type (0, 1), BuildingBlock: FUNLAD_clean_linker_1, # of connection points: 2
#     Edge 11, Type (0, 1), BuildingBlock: FUNLAD_clean_linker_1, # of connection points: 2
#     Edge 12, Type (0, 1), BuildingBlock: FUNLAD_clean_linker_1, # of connection points: 2
#     Edge 13, Type (0, 1), BuildingBlock: FUNLAD_clean_linker_1, # of connection points: 2
#     Edge 14, Type (0, 1), BuildingBlock: FUNLAD_clean_linker_1, # of connection points: 2
#     Edge 15, Type (0, 1), BuildingBlock: FUNLAD_clean_linker_1, # of connection points: 2
#     Edge 16, Type (0, 1), BuildingBlock: FUNLAD_clean_linker_1, # of connection points: 2
#     Edge 17, Type (0, 1), BuildingBlock: FUNLAD_clean_linker_1, # of connection points: 2
# Relax obj value: 0.040
# Max RMSD: 0.143
# Mean RMSD: 0.104
data_MOF--net-rtl--node1-VOLQOD_clean_sbu_1--node2-CUQRIR_clean_linker_1--edge1-FUNLAD_clean_linker_1
_symmetry_space_group_name_H-M    P1
_symmetry_Int_Tables_number       1
_symmetry_cell_setting            triclinic
loop_
_symmetry_equiv_pos_as_xyz
'x, y, z'
_cell_length_a     36.653544
_cell_length_b     36.975195
_cell_length_c     20.97192
_cell_angle_alpha  90.054754
_cell_angle_beta   90.268775
_cell_angle_gamma 89.936382
loop_
_atom_site_label
_atom_site_type_symbol
_atom_site_fract_x
_atom_site_fract_y
_atom_site_fract_z
_atom_type_partial_charge
C0 C 0.19859 0.77489 0.93627 0.0
N1 N 0.17616 0.80116 0.95876 0.0
N2 N 0.21644 0.75826 0.98499 0.0
C3 C 0.20187 0.76418 0.8672 0.0
C4 C 0.20328 0.77479 0.03799 0.0
N5 N 0.17904 0.80085 0.0218 0.0
C6 C 0.20996 0.76231 0.1053 0.0
H7 H 0.17664 0.77075 0.84023 0.0
H8 H 0.20728 0.73487 0.86194 0.0
H9 H 0.22504 0.77906 0.84577 0.0
H10 H 0.23475 0.77577 0.12437 0.0
H11 H 0.21401 0.7327 0.10679 0.0
H12 H 0.18665 0.76917 0.13658 0.0
C13 C 0.72089 0.71315 0.57517 0.0
N14 N 0.69485 0.68908 0.55814 0.0
N15 N 0.72825 0.73581 0.52637 0.0
C16 C 0.73829 0.71563 0.64012 0.0
C17 C 0.70562 0.72475 0.47892 0.0
N18 N 0.68571 0.69583 0.49792 0.0
C19 C 0.6987 0.74564 0.41861 0.0
H20 H 0.72365 0.73639 0.66843 0.0
H21 H 0.76719 0.72418 0.63609 0.0
H22 H 0.73696 0.68952 0.66595 0.0
H23 H 0.70393 0.77486 0.42612 0.0
H24 H 0.67001 0.74231 0.40274 0.0
H25 H 0.71711 0.73564 0.38063 0.0
C26 C 0.81398 0.24696 0.03883 0.0
N27 N 0.83519 0.21917 0.01963 0.0
N28 N 0.795 0.26072 0.98919 0.0
C29 C 0.81134 0.26084 0.10616 0.0
C30 C 0.80618 0.24091 0.93835 0.0
N31 N 0.83025 0.21491 0.95717 0.0
C32 C 0.79958 0.25192 0.8703 0.0
H33 H 0.78231 0.26513 0.11892 0.0
H34 H 0.82524 0.28743 0.10921 0.0
H35 H 0.82402 0.24218 0.14114 0.0
H36 H 0.79028 0.28037 0.86698 0.0
H37 H 0.77849 0.23422 0.84865 0.0
H38 H 0.82519 0.2495 0.84288 0.0
C39 C 0.29628 0.27316 0.48074 0.0
N40 N 0.31649 0.30226 0.49774 0.0
N41 N 0.26968 0.26708 0.52389 0.0
C42 C 0.30268 0.25036 0.42248 0.0
C43 C 0.27458 0.29328 0.56821 0.0
N44 N 0.30342 0.31432 0.55279 0.0
C45 C 0.25231 0.29674 0.62798 0.0
H46 H 0.28497 0.26037 0.38324 0.0
H47 H 0.29549 0.22169 0.43151 0.0
H48 H 0.33157 0.252 0.40724 0.0
H49 H 0.25244 0.27063 0.65404 0.0
H50 H 0.22365 0.30293 0.61487 0.0
H51 H 0.26224 0.31856 0.65971 0.0
O52 O 0.92068 0.95772 0.48572 0.0
Zn53 Zn 0.9443 0.00699 0.48372 0.0
O54 O 0.99762 0.00327 0.48596 0.0
Zn55 Zn 0.01686 0.02357 0.56631 0.0
Zn56 Zn 0.0116 0.95245 0.47851 0.0
Zn57 Zn 0.01775 0.02983 0.41369 0.0
O58 O 0.05369 0.06347 0.5485 0.0
O59 O 0.0493 0.07065 0.44341 0.0
O60 O 0.92633 0.03546 0.55941 0.0
O61 O 0.97594 0.04594 0.61818 0.0
O62 O 0.04187 0.98478 0.61951 0.0
O63 O 0.04166 0.93726 0.55429 0.0
O64 O 0.04116 0.9431 0.39945 0.0
O65 O 0.9268 0.0323 0.40358 0.0
O66 O 0.04859 0.99776 0.35766 0.0
O67 O 0.97821 0.05059 0.35819 0.0
C68 C 0.93345 0.92578 0.481 0.0
C69 C 0.0623 0.0799 0.49727 0.0
C70 C 0.05044 0.9521 0.60692 0.0
C71 C 0.94164 0.04875 0.60876 0.0
C72 C 0.05436 0.96384 0.35698 0.0
C73 C 0.94355 0.04879 0.35924 0.0
O74 O 0.96754 0.91994 0.47625 0.0
O75 O 0.57956 0.46258 0.00682 0.0
Zn76 Zn 0.55102 0.50934 0.01097 0.0
O77 O 0.49875 0.50024 0.02294 0.0
Zn78 Zn 0.47132 0.51963 0.95004 0.0
Zn79 Zn 0.49061 0.44799 0.0302 0.0
Zn80 Zn 0.4817 0.52409 0.10071 0.0
O81 O 0.43341 0.55612 0.97742 0.0
O82 O 0.44518 0.56336 0.08069 0.0
O83 O 0.56034 0.53689 0.92921 0.0
O84 O 0.50473 0.54514 0.88899 0.0
O85 O 0.44686 0.47966 0.90055 0.0
O86 O 0.46007 0.43015 0.95625 0.0
O87 O 0.46495 0.43518 0.11252 0.0
O88 O 0.57123 0.53826 0.08491 0.0
O89 O 0.45609 0.4887 0.15845 0.0
O90 O 0.52377 0.54646 0.14916 0.0
C91 C 0.57073 0.42958 0.01488 0.0
C92 C 0.42752 0.57182 0.03049 0.0
C93 C 0.44503 0.44557 0.90866 0.0
C94 C 0.53912 0.54933 0.88616 0.0
C95 C 0.45243 0.45448 0.15784 0.0
C96 C 0.5575 0.55038 0.13638 0.0
O97 O 0.53795 0.42035 0.02601 0.0
H98 H 0.25777 0.20938 0.52486 0.0
C99 C 0.24588 0.23629 0.52702 0.0
H100 H 0.19772 0.26712 0.53043 0.0
H101 H 0.15347 0.09565 0.45219 0.0
H102 H 0.19209 0.10342 0.35974 0.0
H103 H 0.22536 0.16054 0.34254 0.0
H104 H 0.22129 0.20949 0.41893 0.0
C105 C 0.2095 0.24018 0.52915 0.0
C106 C 0.18468 0.20829 0.53308 0.0
C107 C 0.18503 0.18119 0.48504 0.0
C108 C 0.16333 0.14959 0.49199 0.0
C109 C 0.1673 0.12127 0.44696 0.0
C110 C 0.1897 0.12522 0.39397 0.0
C111 C 0.2086 0.15726 0.3845 0.0
C112 C 0.20634 0.18503 0.42923 0.0
H113 H 0.08861 0.128 0.45696 0.0
C114 C 0.08797 0.1105 0.4986 0.0
H115 H 0.1116 0.09903 0.58831 0.0
H116 H 0.17764 0.25457 0.6345 0.0
H117 H 0.13598 0.24847 0.72307 0.0
H118 H 0.09434 0.19628 0.72996 0.0
H119 H 0.09454 0.14963 0.64877 0.0
C120 C 0.11189 0.11618 0.54627 0.0
C121 C 0.13838 0.14679 0.54342 0.0
C122 C 0.13752 0.17415 0.59079 0.0
C123 C 0.16095 0.20471 0.586 0.0
C124 C 0.16009 0.23113 0.63496 0.0
C125 C 0.1363 0.22793 0.68624 0.0
C126 C 0.1129 0.19854 0.69016 0.0
C127 C 0.11334 0.1719 0.64317 0.0
H128 H 0.23689 0.70788 0.9432 0.0
C129 C 0.24122 0.72795 0.98028 0.0
H130 H 0.27734 0.74548 0.05282 0.0
H131 H 0.33324 0.57947 0.07036 0.0
H132 H 0.28624 0.57633 0.15092 0.0
H133 H 0.24414 0.62749 0.16808 0.0
H134 H 0.24861 0.68177 0.1039 0.0
C135 C 0.27108 0.72505 0.01731 0.0
C136 C 0.2974 0.69475 0.00857 0.0
C137 C 0.29524 0.66361 0.04771 0.0
C138 C 0.32033 0.63463 0.03928 0.0
C139 C 0.31608 0.60299 0.07659 0.0
C140 C 0.28893 0.60065 0.12264 0.0
C141 C 0.26518 0.6294 0.13218 0.0
C142 C 0.26806 0.66047 0.09508 0.0
H143 H 0.39721 0.61498 0.07997 0.0
C144 C 0.39954 0.60043 0.03507 0.0
H145 H 0.3789 0.5946 0.9414 0.0
H146 H 0.30868 0.75037 0.92501 0.0
H147 H 0.35584 0.75375 0.84448 0.0
H148 H 0.40037 0.70425 0.83148 0.0
H149 H 0.39798 0.65102 0.89872 0.0
C150 C 0.37651 0.60839 0.98698 0.0
C151 C 0.34854 0.63749 0.99335 0.0
C152 C 0.35028 0.66841 0.95346 0.0
C153 C 0.32469 0.69705 0.96109 0.0
C154 C 0.32731 0.72776 0.92106 0.0
C155 C 0.3543 0.7301 0.87472 0.0
C156 C 0.37936 0.70222 0.8674 0.0
C157 C 0.37761 0.67175 0.90628 0.0
H158 H 0.75395 0.78278 0.57067 0.0
C159 C 0.75265 0.76628 0.52779 0.0
H160 H 0.7754 0.7558 0.4376 0.0
H161 H 0.83569 0.91341 0.39114 0.0
H162 H 0.79062 0.90766 0.30681 0.0
H163 H 0.75008 0.85454 0.30144 0.0
H164 H 0.75452 0.80681 0.38006 0.0
C165 C 0.7759 0.77281 0.47982 0.0
C166 C 0.80169 0.80397 0.48178 0.0
C167 C 0.79876 0.83167 0.43528 0.0
C168 C 0.82194 0.86247 0.43866 0.0
C169 C 0.81856 0.8896 0.39131 0.0
C170 C 0.79283 0.88663 0.34252 0.0
C171 C 0.77002 0.85673 0.33949 0.0
C172 C 0.77282 0.82951 0.38511 0.0
H173 H 0.92033 0.86773 0.47333 0.0
C174 C 0.90862 0.89441 0.481 0.0
H175 H 0.86022 0.92413 0.49689 0.0
H176 H 0.81975 0.75264 0.57101 0.0
H177 H 0.86348 0.7592 0.65723 0.0
H178 H 0.89939 0.81521 0.66928 0.0
H179 H 0.89237 0.86455 0.59422 0.0
C180 C 0.87255 0.89762 0.49074 0.0
C181 C 0.84807 0.8655 0.48841 0.0
C182 C 0.8511 0.83776 0.53487 0.0
C183 C 0.82873 0.80644 0.53032 0.0
C184 C 0.83441 0.77793 0.57437 0.0
C185 C 0.85973 0.78117 0.62374 0.0
C186 C 0.88007 0.81262 0.63034 0.0
C187 C 0.87594 0.84066 0.58658 0.0
H188 H 0.77589 0.31281 0.0249 0.0
C189 C 0.77009 0.29085 0.99186 0.0
H190 H 0.73096 0.26801 0.9297 0.0
H191 H 0.63938 0.38457 0.11343 0.0
H192 H 0.6536 0.3434 0.19991 0.0
H193 H 0.69231 0.28976 0.18178 0.0
H194 H 0.71762 0.27751 0.07746 0.0
C195 C 0.73777 0.29026 0.96142 0.0
C196 C 0.71048 0.31972 0.97058 0.0
C197 C 0.69423 0.32536 0.03113 0.0
C198 C 0.67017 0.35507 0.04069 0.0
C199 C 0.65641 0.36148 0.1027 0.0
C200 C 0.66457 0.33819 0.15295 0.0
C201 C 0.68649 0.3081 0.14282 0.0
C202 C 0.70115 0.30158 0.08275 0.0
H203 H 0.58982 0.37301 0.01635 0.0
C204 C 0.59858 0.40086 0.01005 0.0
H205 H 0.64282 0.43528 0.98854 0.0
H206 H 0.7353 0.31551 0.84794 0.0
H207 H 0.71872 0.35492 0.76013 0.0
H208 H 0.67511 0.40499 0.77559 0.0
H209 H 0.648 0.41607 0.87903 0.0
C210 C 0.6338 0.40775 0.99723 0.0
C211 C 0.66062 0.37782 0.98875 0.0
C212 C 0.67616 0.37164 0.92788 0.0
C213 C 0.70107 0.34255 0.91879 0.0
C214 C 0.71623 0.33713 0.85753 0.0
C215 C 0.7069 0.35953 0.80664 0.0
C216 C 0.68236 0.38773 0.81536 0.0
C217 C 0.66704 0.39381 0.87508 0.0
H218 H 0.12808 0.82233 0.05948 0.0
C219 C 0.15761 0.82272 0.06428 0.0
H220 H 0.20307 0.84437 0.11206 0.0
H221 H 0.05116 0.93871 0.18927 0.0
H222 H 0.04711 0.95435 0.07731 0.0
H223 H 0.09219 0.93106 1.00043 0.0
H224 H 0.14092 0.89115 0.03499 0.0
C225 C 0.17351 0.84398 0.1082 0.0
C226 C 0.15144 0.86445 0.15566 0.0
C227 C 0.12467 0.88979 0.13538 0.0
C228 C 0.10023 0.9052 0.18043 0.0
C229 C 0.07173 0.92779 0.15789 0.0
C230 C 0.06889 0.93678 0.09355 0.0
C231 C 0.09414 0.92353 0.05022 0.0
C232 C 0.12177 0.90034 0.07061 0.0
H233 H 0.09323 0.96714 0.27701 0.0
C234 C 0.07739 0.94861 0.30605 0.0
H235 H 0.06366 0.89419 0.3239 0.0
H236 H 0.20195 0.81952 0.21166 0.0
H237 H 0.20902 0.80756 0.32437 0.0
H238 H 0.169 0.83705 0.40309 0.0
H239 H 0.12143 0.87839 0.3693 0.0
C240 C 0.07904 0.9129 0.29449 0.0
C241 C 0.10435 0.89729 0.24634 0.0
C242 C 0.13256 0.87368 0.26695 0.0
C243 C 0.15602 0.85713 0.22161 0.0
C244 C 0.18342 0.83306 0.2437 0.0
C245 C 0.18786 0.82595 0.30846 0.0
C246 C 0.16532 0.84252 0.35276 0.0
C247 C 0.138 0.86613 0.33259 0.0
H248 H 0.69795 0.64374 0.62434 0.0
C249 C 0.67956 0.66165 0.59859 0.0
H250 H 0.6256 0.68103 0.59079 0.0
H251 H 0.56514 0.53556 0.71993 0.0
H252 H 0.54796 0.52443 0.60987 0.0
H253 H 0.56734 0.56587 0.52446 0.0
H254 H 0.60505 0.61816 0.5484 0.0
C255 C 0.64406 0.66207 0.61382 0.0
C256 C 0.62978 0.63886 0.66598 0.0
C257 C 0.6072 0.60889 0.65141 0.0
C258 C 0.5949 0.58574 0.70106 0.0
C259 C 0.574 0.55489 0.68459 0.0
C260 C 0.56421 0.54798 0.62147 0.0
C261 C 0.57526 0.57123 0.57333 0.0
C262 C 0.5968 0.60118 0.58774 0.0
H263 H 0.53496 0.5839 0.80084 0.0
C264 C 0.55406 0.56959 0.83163 0.0
H265 H 0.60938 0.55702 0.84936 0.0
H266 H 0.66883 0.69671 0.71119 0.0
H267 H 0.6849 0.70884 0.82126 0.0
H268 H 0.66424 0.66841 0.90731 0.0
H269 H 0.62731 0.61574 0.88369 0.0
C270 C 0.58988 0.5707 0.81849 0.0
C271 C 0.60416 0.59344 0.76552 0.0
C272 C 0.62647 0.62368 0.78008 0.0
C273 C 0.63893 0.64664 0.73038 0.0
C274 C 0.65974 0.67761 0.74667 0.0
C275 C 0.66887 0.68511 0.80983 0.0
C276 C 0.65719 0.66239 0.85826 0.0
C277 C 0.63607 0.63214 0.84393 0.0
H278 H 0.87643 0.21326 0.09409 0.0
C279 C 0.85946 0.19875 0.05996 0.0
H280 H 0.83866 0.14786 0.03297 0.0
H281 H 0.97241 0.06694 0.17072 0.0
H282 H 0.99235 0.06242 0.06091 0.0
H283 H 0.96043 0.09585 0.97543 0.0
H284 H 0.90795 0.13351 0.99938 0.0
C285 C 0.85695 0.16269 0.0642 0.0
C286 C 0.87643 0.14287 0.11582 0.0
C287 C 0.90783 0.12214 0.10167 0.0
C288 C 0.92697 0.10398 0.15139 0.0
C289 C 0.95735 0.08213 0.13525 0.0
C290 C 0.96905 0.0792 0.07231 0.0
C291 C 0.95106 0.09795 0.02418 0.0
C292 C 0.92086 0.11931 0.03846 0.0
H293 H 0.89312 0.06006 0.30461 0.0
C294 C 0.92207 0.0662 0.30807 0.0
H295 H 0.96601 0.09601 0.27041 0.0
H296 H 0.81429 0.17612 0.15816 0.0
H297 H 0.79672 0.18511 0.26838 0.0
H298 H 0.83477 0.16122 0.35611 0.0
H299 H 0.88978 0.12731 0.33411 0.0
C300 C 0.93701 0.09011 0.26754 0.0
C301 C 0.91556 0.10791 0.21568 0.0
C302 C 0.88469 0.1297 0.22997 0.0
C303 C 0.8642 0.14578 0.17968 0.0
C304 C 0.83188 0.16495 0.19473 0.0
C305 C 0.82133 0.1701 0.25777 0.0
C306 C 0.84265 0.15649 0.30712 0.0
C307 C 0.87401 0.13664 0.29371 0.0
H308 H 0.30199 0.36286 0.61198 0.0
C309 C 0.31948 0.34197 0.59217 0.0
H310 H 0.37111 0.31696 0.59555 0.0
H311 H 0.45456 0.45106 0.71541 0.0
H312 H 0.48287 0.44696 0.61141 0.0
H313 H 0.45954 0.4045 0.53017 0.0
H314 H 0.40749 0.36612 0.55223 0.0
C315 C 0.35396 0.33866 0.61341 0.0
C316 C 0.36907 0.36307 0.66358 0.0
C317 C 0.39915 0.3857 0.64964 0.0
C318 C 0.41256 0.41022 0.69655 0.0
C319 C 0.44302 0.43214 0.68153 0.0
C320 C 0.45961 0.43001 0.62202 0.0
C321 C 0.44648 0.4061 0.57628 0.0
C322 C 0.41655 0.38424 0.58956 0.0
H323 H 0.42615 0.39369 0.86868 0.0
C324 C 0.42647 0.42276 0.8608 0.0
H325 H 0.41265 0.46514 0.79755 0.0
H326 H 0.31834 0.31652 0.71256 0.0
H327 H 0.28846 0.32144 0.81518 0.0
H328 H 0.30585 0.36954 0.89113 0.0
H329 H 0.35396 0.41204 0.86554 0.0
C330 C 0.41135 0.43632 0.80735 0.0
C331 C 0.39585 0.41202 0.7574 0.0
C332 C 0.36571 0.38936 0.77127 0.0
C333 C 0.35351 0.3637 0.72545 0.0
C334 C 0.32635 0.33855 0.74339 0.0
C335 C 0.30946 0.3407 0.80262 0.0
C336 C 0.31942 0.3676 0.84551 0.0
C337 C 0.34727 0.39166 0.83037 0.0
H338 H 0.63503 0.66607 0.48006 0.0
C339 C 0.66082 0.67455 0.45984 0.0
H340 H 0.69606 0.67118 0.38108 0.0
H341 H 0.57799 0.53691 0.32816 0.0
H342 H 0.60251 0.50972 0.42457 0.0
H343 H 0.64721 0.54243 0.49126 0.0
H344 H 0.66728 0.6026 0.46263 0.0
C345 C 0.66991 0.66344 0.40093 0.0
C346 C 0.6443 0.64249 0.35964 0.0
C347 C 0.63305 0.60712 0.37703 0.0
C348 C 0.60796 0.58785 0.33767 0.0
C349 C 0.59712 0.55264 0.35613 0.0
C350 C 0.61106 0.53667 0.41122 0.0
C351 C 0.6362 0.55511 0.44881 0.0
C352 C 0.64722 0.58985 0.43211 0.0
H353 H 0.60955 0.57506 0.16657 0.0
C354 C 0.58155 0.57009 0.18106 0.0
H355 H 0.54258 0.57695 0.25425 0.0
H356 H 0.66264 0.70832 0.309 0.0
H357 H 0.63865 0.73506 0.21226 0.0
H358 H 0.59342 0.70254 0.14637 0.0
H359 H 0.57231 0.64297 0.17672 0.0
C360 C 0.57004 0.58261 0.23774 0.0
C361 C 0.5949 0.60354 0.28029 0.0
C362 C 0.60624 0.6388 0.26277 0.0
C363 C 0.63149 0.65798 0.3018 0.0
C364 C 0.64303 0.69276 0.28207 0.0
C365 C 0.62952 0.70843 0.22641 0.0
C366 C 0.60414 0.6901 0.18925 0.0
C367 C 0.59246 0.65575 0.20704 0.0
H368 H 0.87954 0.18505 0.9312 0.0
C369 C 0.85146 0.19069 0.9176 0.0
H370 H 0.80898 0.17803 0.85294 0.0
H371 H 0.92457 0.14149 0.6349 0.0
H372 H 0.89896 0.19758 0.59515 0.0
H373 H 0.85416 0.23189 0.65857 0.0
H374 H 0.83522 0.2104 0.76232 0.0
C375 C 0.83726 0.17378 0.86628 0.0
C376 C 0.86015 0.1502 0.82454 0.0
C377 C 0.86956 0.16207 0.76244 0.0
C378 C 0.89418 0.14147 0.72468 0.0
C379 C 0.90489 0.15525 0.66458 0.0
C380 C 0.8906 0.18758 0.64132 0.0
C381 C 0.86551 0.20696 0.67712 0.0
C382 C 0.85508 0.1945 0.73695 0.0
H383 H 0.88988 0.07221 0.64234 0.0
C384 C 0.91867 0.06915 0.65399 0.0
H385 H 0.96037 0.08202 0.72036 0.0
H386 H 0.84179 0.11599 0.93511 0.0
H387 H 0.8655 0.05864 0.97354 0.0
H388 H 0.90958 0.02368 0.90964 0.0
H389 H 0.92956 0.04551 0.80634 0.0
C390 C 0.93195 0.08534 0.70662 0.0
C391 C 0.90791 0.10802 0.74768 0.0
C392 C 0.89764 0.09557 0.80891 0.0
C393 C 0.87321 0.11634 0.84684 0.0
C394 C 0.8615 0.10207 0.90583 0.0
C395 C 0.87458 0.06898 0.92803 0.0
C396 C 0.89936 0.04929 0.89201 0.0
C397 C 0.91068 0.06217 0.83292 0.0
H398 H 0.37064 0.32473 0.479 0.0
C399 C 0.34349 0.32039 0.45964 0.0
H400 H 0.30722 0.32896 0.38344 0.0
H401 H 0.44881 0.44049 0.33157 0.0
H402 H 0.43408 0.46841 0.43291 0.0
H403 H 0.38414 0.44464 0.49917 0.0
H404 H 0.35026 0.39155 0.46647 0.0
C405 C 0.33468 0.33328 0.40165 0.0
C406 C 0.36173 0.35091 0.35869 0.0
C407 C 0.37985 0.38324 0.37705 0.0
C408 C 0.4063 0.39901 0.33603 0.0
C409 C 0.42656 0.42906 0.3585 0.0
C410 C 0.41863 0.44514 0.4169 0.0
C411 C 0.39069 0.43162 0.45439 0.0
C412 C 0.37163 0.40089 0.43522 0.0
H413 H 0.41044 0.45364 0.23263 0.0
C414 C 0.43119 0.43741 0.20922 0.0
H415 H 0.45754 0.38695 0.20405 0.0
H416 H 0.33211 0.28906 0.30827 0.0
H417 H 0.34274 0.26442 0.20317 0.0
H418 H 0.38431 0.2948 0.1283 0.0
H419 H 0.41582 0.34961 0.15849 0.0
C420 C 0.43656 0.40293 0.22736 0.0
C421 C 0.41202 0.38454 0.27402 0.0
C422 C 0.39323 0.35269 0.25512 0.0
C423 C 0.36848 0.33566 0.29772 0.0
C424 C 0.35077 0.30348 0.27782 0.0
C425 C 0.35664 0.28896 0.21747 0.0
C426 C 0.38007 0.30603 0.17539 0.0
C427 C 0.39814 0.33751 0.1936 0.0
H428 H 0.12551 0.83124 0.94307 0.0
C429 C 0.15218 0.82496 0.92354 0.0
H430 H 0.19056 0.83815 0.85301 0.0
H431 H 0.03022 0.88466 0.72291 0.0
H432 H 0.01284 0.82174 0.7339 0.0
H433 H 0.05367 0.77818 0.78761 0.0
H434 H 0.11142 0.79748 0.83228 0.0
C435 C 0.16275 0.84137 0.86962 0.0
C436 C 0.1384 0.86688 0.83445 0.0
C437 C 0.1056 0.85451 0.80548 0.0
C438 C 0.08322 0.87904 0.7706 0.0
C439 C 0.04926 0.8667 0.74652 0.0
C440 C 0.03877 0.83072 0.75304 0.0
C441 C 0.06167 0.80625 0.78355 0.0
C442 C 0.09472 0.81782 0.80947 0.0
H443 H 0.08191 0.90442 0.63714 0.0
C444 C 0.07085 0.93007 0.65361 0.0
H445 H 0.06421 0.9649 0.73262 0.0
H446 H 0.19733 0.90029 0.88924 0.0
H447 H 0.21514 0.96299 0.87613 0.0
H448 H 0.17862 0.00435 0.80916 0.0
H449 H 0.12383 0.98343 0.75556 0.0
C450 C 0.0748 0.93927 0.71529 0.0
C451 C 0.09499 0.91517 0.76044 0.0
C452 C 0.12716 0.92777 0.79092 0.0
C453 C 0.14869 0.90369 0.82839 0.0
C454 C 0.18036 0.91719 0.85919 0.0
C455 C 0.19084 0.95316 0.85225 0.0
C456 C 0.17025 0.97646 0.81462 0.0
C457 C 0.13881 0.96407 0.78412 0.0
loop_
_geom_bond_atom_site_label_1
_geom_bond_atom_site_label_2
_geom_bond_distance
_geom_bond_site_symmetry_2
_ccdc_geom_bond_type
C0 N1 1.317 . S
C0 N2 1.348 1_556 S
C0 C3 1.485 . S
N1 C0 1.317 . S
N1 N5 1.370 1_556 S
N2 C0 1.348 1_554 S
N2 C4 1.346 . S
C3 C0 1.485 . S
C3 H7 0.960 . S
C3 H8 0.961 . S
C3 H9 0.960 . S
C4 N2 1.346 . S
C4 N5 1.307 . S
C4 C6 1.486 . S
N5 N1 1.370 1_554 S
N5 C4 1.307 . S
C6 C4 1.486 . S
C6 H10 0.960 . S
C6 H11 0.960 . S
C6 H12 0.959 . S
H7 C3 0.960 . S
H8 C3 0.961 . S
H9 C3 0.960 . S
H10 C6 0.960 . S
H11 C6 0.960 . S
H12 C6 0.959 . S
C13 N14 1.317 . S
C13 N15 1.348 . S
C13 C16 1.485 . S
N14 C13 1.317 . S
N14 N18 1.370 . S
N15 C13 1.348 . S
N15 C17 1.346 . S
C16 C13 1.485 . S
C16 H20 0.960 . S
C16 H21 0.961 . S
C16 H22 0.960 . S
C17 N15 1.346 . S
C17 N18 1.307 . S
C17 C19 1.486 . S
N18 N14 1.370 . S
N18 C17 1.307 . S
C19 C17 1.486 . S
C19 H23 0.960 . S
C19 H24 0.960 . S
C19 H25 0.959 . S
H20 C16 0.960 . S
H21 C16 0.961 . S
H22 C16 0.960 . S
H23 C19 0.960 . S
H24 C19 0.960 . S
H25 C19 0.959 . S
C26 N27 1.317 . S
C26 N28 1.348 . S
C26 C29 1.485 . S
N27 C26 1.317 . S
N27 N31 1.370 1_554 S
N28 C26 1.348 . S
N28 C30 1.346 1_554 S
C29 C26 1.485 . S
C29 H33 0.960 . S
C29 H34 0.961 . S
C29 H35 0.960 . S
C30 N28 1.346 1_556 S
C30 N31 1.307 . S
C30 C32 1.486 . S
N31 N27 1.370 1_556 S
N31 C30 1.307 . S
C32 C30 1.486 . S
C32 H36 0.960 . S
C32 H37 0.960 . S
C32 H38 0.959 . S
H33 C29 0.960 . S
H34 C29 0.961 . S
H35 C29 0.960 . S
H36 C32 0.960 . S
H37 C32 0.960 . S
H38 C32 0.959 . S
C39 N40 1.317 . S
C39 N41 1.348 . S
C39 C42 1.485 . S
N40 C39 1.317 . S
N40 N44 1.370 . S
N41 C39 1.348 . S
N41 C43 1.346 . S
C42 C39 1.485 . S
C42 H46 0.960 . S
C42 H47 0.961 . S
C42 H48 0.960 . S
C43 N41 1.346 . S
C43 N44 1.307 . S
C43 C45 1.486 . S
N44 N40 1.370 . S
N44 C43 1.307 . S
C45 C43 1.486 . S
C45 H49 0.960 . S
C45 H50 0.960 . S
C45 H51 0.959 . S
H46 C42 0.960 . S
H47 C42 0.961 . S
H48 C42 0.960 . S
H49 C45 0.960 . S
H50 C45 0.960 . S
H51 C45 0.959 . S
O52 Zn53 1.953 1_565 S
O52 C68 1.225 . S
Zn53 O52 1.953 1_545 S
Zn53 O54 1.949 1_655 S
Zn53 O60 1.919 . S
Zn53 O65 1.924 . S
O54 Zn53 1.949 1_455 S
O54 Zn55 1.923 . S
O54 Zn56 1.950 1_545 S
O54 Zn57 1.945 . S
Zn55 O54 1.923 . S
Zn55 O58 1.933 . S
Zn55 O61 1.941 1_455 S
Zn55 O62 1.965 1_545 S
Zn56 O54 1.950 1_565 S
Zn56 O63 1.938 . S
Zn56 O64 1.906 . S
Zn56 O74 1.953 1_455 S
Zn57 O54 1.945 . S
Zn57 O59 1.932 . S
Zn57 O66 1.977 1_545 S
Zn57 O67 1.910 1_455 S
O58 Zn55 1.933 . S
O58 C69 1.226 . S
O59 Zn57 1.932 . S
O59 C69 1.307 . S
O60 Zn53 1.919 . S
O60 C71 1.253 . S
O61 Zn55 1.941 1_655 S
O61 C71 1.283 . S
O62 Zn55 1.965 1_565 S
O62 C70 1.303 . S
O63 Zn56 1.938 . S
O63 C70 1.247 . S
O64 Zn56 1.906 . S
O64 C72 1.304 . S
O65 Zn53 1.924 . S
O65 C73 1.311 . S
O66 Zn57 1.977 1_565 S
O66 C72 1.272 . S
O67 Zn57 1.910 1_655 S
O67 C73 1.231 . S
C68 O52 1.225 . S
C68 O74 1.298 . S
C69 O58 1.226 . S
C69 O59 1.307 . S
C70 O62 1.303 . S
C70 O63 1.247 . S
C71 O60 1.253 . S
C71 O61 1.283 . S
C72 O64 1.304 . S
C72 O66 1.272 . S
C73 O65 1.311 . S
C73 O67 1.231 . S
O74 Zn56 1.953 1_655 S
O74 C68 1.298 . S
O75 Zn76 1.953 . S
O75 C91 1.225 . S
Zn76 O75 1.953 . S
Zn76 O77 1.949 1_556 S
Zn76 O83 1.919 . S
Zn76 O88 1.924 1_556 S
O77 Zn76 1.949 1_554 S
O77 Zn78 1.923 1_554 S
O77 Zn79 1.950 . S
O77 Zn80 1.945 . S
Zn78 O77 1.923 1_556 S
Zn78 O81 1.933 . S
Zn78 O84 1.941 . S
Zn78 O85 1.965 . S
Zn79 O77 1.950 . S
Zn79 O86 1.938 1_554 S
Zn79 O87 1.906 . S
Zn79 O97 1.953 . S
Zn80 O77 1.945 . S
Zn80 O82 1.932 . S
Zn80 O89 1.977 . S
Zn80 O90 1.910 . S
O81 Zn78 1.933 . S
O81 C92 1.226 1_556 S
O82 Zn80 1.932 . S
O82 C92 1.307 . S
O83 Zn76 1.919 . S
O83 C94 1.253 . S
O84 Zn78 1.941 . S
O84 C94 1.283 . S
O85 Zn78 1.965 . S
O85 C93 1.303 . S
O86 Zn79 1.938 1_556 S
O86 C93 1.247 . S
O87 Zn79 1.906 . S
O87 C95 1.304 . S
O88 Zn76 1.924 1_554 S
O88 C96 1.311 . S
O89 Zn80 1.977 . S
O89 C95 1.272 . S
O90 Zn80 1.910 . S
O90 C96 1.231 . S
C91 O75 1.225 . S
C91 O97 1.298 1_556 S
C92 O81 1.226 1_554 S
C92 O82 1.307 . S
C93 O85 1.303 . S
C93 O86 1.247 . S
C94 O83 1.253 . S
C94 O84 1.283 . S
C95 O87 1.304 . S
C95 O89 1.272 . S
C96 O88 1.311 . S
C96 O90 1.231 . S
O97 Zn79 1.953 . S
O97 C91 1.298 1_554 S
H98 C99 0.951 . S
C99 H98 0.951 . S
C99 C105 1.265 . S
H100 C105 0.950 . S
H101 C109 0.949 . S
H102 C110 0.950 . S
H103 C111 0.951 . S
H104 C112 0.951 . S
C105 C99 1.265 . S
C105 H100 0.950 . S
C105 C106 1.478 . S
C106 C105 1.478 . S
C106 C107 1.397 . S
C106 C123 1.394 . S
C107 C106 1.397 . S
C107 C108 1.438 . S
C107 C112 1.429 . S
C108 C107 1.438 . S
C108 C109 1.428 . S
C108 C121 1.394 . S
C109 H101 0.949 . S
C109 C108 1.428 . S
C109 C110 1.345 . S
C110 H102 0.950 . S
C110 C109 1.345 . S
C110 C111 1.424 . S
C111 H103 0.951 . S
C111 C110 1.424 . S
C111 C112 1.347 . S
C112 H104 0.951 . S
C112 C107 1.429 . S
C112 C111 1.347 . S
H113 C114 0.951 . S
C114 H113 0.951 . S
C114 C120 1.265 . S
H115 C120 0.950 . S
H116 C124 0.949 . S
H117 C125 0.950 . S
H118 C126 0.951 . S
H119 C127 0.951 . S
C120 C114 1.265 . S
C120 H115 0.950 . S
C120 C121 1.478 . S
C121 C108 1.394 . S
C121 C120 1.478 . S
C121 C122 1.397 . S
C122 C121 1.397 . S
C122 C123 1.438 . S
C122 C127 1.429 . S
C123 C106 1.394 . S
C123 C122 1.438 . S
C123 C124 1.428 . S
C124 H116 0.949 . S
C124 C123 1.428 . S
C124 C125 1.345 . S
C125 H117 0.950 . S
C125 C124 1.345 . S
C125 C126 1.424 . S
C126 H118 0.951 . S
C126 C125 1.424 . S
C126 C127 1.347 . S
C127 H119 0.951 . S
C127 C122 1.429 . S
C127 C126 1.347 . S
H128 C129 0.948 1_556 S
C129 H128 0.948 1_554 S
C129 C135 1.267 . S
H130 C135 0.950 . S
H131 C139 0.949 . S
H132 C140 0.950 . S
H133 C141 0.951 . S
H134 C142 0.951 . S
C135 C129 1.267 . S
C135 H130 0.950 . S
C135 C136 1.478 . S
C136 C135 1.478 . S
C136 C137 1.397 . S
C136 C153 1.394 1_554 S
C137 C136 1.397 . S
C137 C138 1.438 . S
C137 C142 1.429 . S
C138 C137 1.438 . S
C138 C139 1.428 . S
C138 C151 1.394 1_554 S
C139 H131 0.949 . S
C139 C138 1.428 . S
C139 C140 1.345 . S
C140 H132 0.950 . S
C140 C139 1.345 . S
C140 C141 1.424 . S
C141 H133 0.951 . S
C141 C140 1.424 . S
C141 C142 1.347 . S
C142 H134 0.951 . S
C142 C137 1.429 . S
C142 C141 1.347 . S
H143 C144 0.951 . S
C144 H143 0.951 . S
C144 C150 1.265 1_554 S
H145 C150 0.950 . S
H146 C154 0.949 . S
H147 C155 0.950 . S
H148 C156 0.951 . S
H149 C157 0.951 . S
C150 C144 1.265 1_556 S
C150 H145 0.950 . S
C150 C151 1.478 . S
C151 C138 1.394 1_556 S
C151 C150 1.478 . S
C151 C152 1.397 . S
C152 C151 1.397 . S
C152 C153 1.438 . S
C152 C157 1.429 . S
C153 C136 1.394 1_556 S
C153 C152 1.438 . S
C153 C154 1.428 . S
C154 H146 0.949 . S
C154 C153 1.428 . S
C154 C155 1.345 . S
C155 H147 0.950 . S
C155 C154 1.345 . S
C155 C156 1.424 . S
C156 H148 0.951 . S
C156 C155 1.424 . S
C156 C157 1.347 . S
C157 H149 0.951 . S
C157 C152 1.429 . S
C157 C156 1.347 . S
H158 C159 0.951 . S
C159 H158 0.951 . S
C159 C165 1.265 . S
H160 C165 0.950 . S
H161 C169 0.949 . S
H162 C170 0.950 . S
H163 C171 0.951 . S
H164 C172 0.951 . S
C165 C159 1.265 . S
C165 H160 0.950 . S
C165 C166 1.478 . S
C166 C165 1.478 . S
C166 C167 1.397 . S
C166 C183 1.394 . S
C167 C166 1.397 . S
C167 C168 1.438 . S
C167 C172 1.429 . S
C168 C167 1.438 . S
C168 C169 1.428 . S
C168 C181 1.394 . S
C169 H161 0.949 . S
C169 C168 1.428 . S
C169 C170 1.345 . S
C170 H162 0.950 . S
C170 C169 1.345 . S
C170 C171 1.424 . S
C171 H163 0.951 . S
C171 C170 1.424 . S
C171 C172 1.347 . S
C172 H164 0.951 . S
C172 C167 1.429 . S
C172 C171 1.347 . S
H173 C174 0.951 . S
C174 H173 0.951 . S
C174 C180 1.265 . S
H175 C180 0.950 . S
H176 C184 0.949 . S
H177 C185 0.950 . S
H178 C186 0.951 . S
H179 C187 0.951 . S
C180 C174 1.265 . S
C180 H175 0.950 . S
C180 C181 1.478 . S
C181 C168 1.394 . S
C181 C180 1.478 . S
C181 C182 1.397 . S
C182 C181 1.397 . S
C182 C183 1.438 . S
C182 C187 1.429 . S
C183 C166 1.394 . S
C183 C182 1.438 . S
C183 C184 1.428 . S
C184 H176 0.949 . S
C184 C183 1.428 . S
C184 C185 1.345 . S
C185 H177 0.950 . S
C185 C184 1.345 . S
C185 C186 1.424 . S
C186 H178 0.951 . S
C186 C185 1.424 . S
C186 C187 1.347 . S
C187 H179 0.951 . S
C187 C182 1.429 . S
C187 C186 1.347 . S
H188 C189 0.951 . S
C189 H188 0.951 . S
C189 C195 1.265 1_554 S
H190 C195 0.950 . S
H191 C199 0.949 . S
H192 C200 0.950 . S
H193 C201 0.951 . S
H194 C202 0.951 1_556 S
C195 C189 1.265 1_556 S
C195 H190 0.950 . S
C195 C196 1.478 . S
C196 C195 1.478 . S
C196 C197 1.397 1_556 S
C196 C213 1.394 . S
C197 C196 1.397 1_554 S
C197 C198 1.438 . S
C197 C202 1.429 . S
C198 C197 1.438 . S
C198 C199 1.428 . S
C198 C211 1.394 . S
C199 H191 0.949 . S
C199 C198 1.428 . S
C199 C200 1.345 . S
C200 H192 0.950 . S
C200 C199 1.345 . S
C200 C201 1.424 . S
C201 H193 0.951 . S
C201 C200 1.424 . S
C201 C202 1.347 . S
C202 H194 0.951 1_554 S
C202 C197 1.429 . S
C202 C201 1.347 . S
H203 C204 0.951 . S
C204 H203 0.951 . S
C204 C210 1.265 1_556 S
H205 C210 0.950 . S
H206 C214 0.949 . S
H207 C215 0.950 . S
H208 C216 0.951 . S
H209 C217 0.951 1_554 S
C210 C204 1.265 1_554 S
C210 H205 0.950 . S
C210 C211 1.478 . S
C211 C198 1.394 . S
C211 C210 1.478 . S
C211 C212 1.394 1_554 S
C212 C211 1.394 1_556 S
C212 C213 1.440 . S
C212 C217 1.430 . S
C213 C196 1.394 . S
C213 C212 1.440 . S
C213 C214 1.428 . S
C214 H206 0.949 . S
C214 C213 1.428 . S
C214 C215 1.345 . S
C215 H207 0.950 . S
C215 C214 1.345 . S
C215 C216 1.424 . S
C216 H208 0.951 . S
C216 C215 1.424 . S
C216 C217 1.347 . S
C217 H209 0.951 1_556 S
C217 C212 1.430 . S
C217 C216 1.347 . S
H218 C219 0.951 . S
C219 H218 0.951 . S
C219 C225 1.265 . S
H220 C225 0.950 . S
H221 C229 0.949 . S
H222 C230 0.950 1_545 S
H223 C231 0.951 . S
H224 C232 0.951 . S
C225 C219 1.265 . S
C225 H220 0.950 . S
C225 C226 1.478 . S
C226 C225 1.478 . S
C226 C227 1.397 . S
C226 C243 1.394 . S
C227 C226 1.397 . S
C227 C228 1.438 . S
C227 C232 1.429 . S
C228 C227 1.438 . S
C228 C229 1.428 . S
C228 C241 1.394 . S
C229 H221 0.949 . S
C229 C228 1.428 . S
C229 C230 1.345 . S
C230 H222 0.950 1_565 S
C230 C229 1.345 . S
C230 C231 1.424 . S
C231 H223 0.951 . S
C231 C230 1.424 . S
C231 C232 1.347 . S
C232 H224 0.951 . S
C232 C227 1.429 . S
C232 C231 1.347 . S
H233 C234 0.951 . S
C234 H233 0.951 . S
C234 C240 1.265 . S
H235 C240 0.950 . S
H236 C244 0.949 . S
H237 C245 0.950 . S
H238 C246 0.951 . S
H239 C247 0.951 . S
C240 C234 1.265 . S
C240 H235 0.950 . S
C240 C241 1.478 . S
C241 C228 1.394 . S
C241 C240 1.478 . S
C241 C242 1.397 . S
C242 C241 1.397 . S
C242 C243 1.438 . S
C242 C247 1.429 . S
C243 C226 1.394 . S
C243 C242 1.438 . S
C243 C244 1.428 . S
C244 H236 0.949 . S
C244 C243 1.428 . S
C244 C245 1.345 . S
C245 H237 0.950 . S
C245 C244 1.345 . S
C245 C246 1.424 . S
C246 H238 0.951 . S
C246 C245 1.424 . S
C246 C247 1.347 . S
C247 H239 0.951 . S
C247 C242 1.429 . S
C247 C246 1.347 . S
H248 C249 0.951 . S
C249 H248 0.951 . S
C249 C255 1.265 . S
H250 C255 0.950 . S
H251 C259 0.949 . S
H252 C260 0.950 . S
H253 C261 0.951 . S
H254 C262 0.951 . S
C255 C249 1.265 . S
C255 H250 0.950 . S
C255 C256 1.478 . S
C256 C255 1.478 . S
C256 C257 1.397 . S
C256 C273 1.394 . S
C257 C256 1.397 . S
C257 C258 1.438 . S
C257 C262 1.429 . S
C258 C257 1.438 . S
C258 C259 1.428 . S
C258 C271 1.394 . S
C259 H251 0.949 . S
C259 C258 1.428 . S
C259 C260 1.345 . S
C260 H252 0.950 . S
C260 C259 1.345 . S
C260 C261 1.424 . S
C261 H253 0.951 . S
C261 C260 1.424 . S
C261 C262 1.347 . S
C262 H254 0.951 . S
C262 C257 1.429 . S
C262 C261 1.347 . S
H263 C264 0.951 . S
C264 H263 0.951 . S
C264 C270 1.265 . S
H265 C270 0.950 . S
H266 C274 0.949 . S
H267 C275 0.950 . S
H268 C276 0.951 . S
H269 C277 0.951 . S
C270 C264 1.265 . S
C270 H265 0.950 . S
C270 C271 1.478 . S
C271 C258 1.394 . S
C271 C270 1.478 . S
C271 C272 1.397 . S
C272 C271 1.397 . S
C272 C273 1.438 . S
C272 C277 1.429 . S
C273 C256 1.394 . S
C273 C272 1.438 . S
C273 C274 1.428 . S
C274 H266 0.949 . S
C274 C273 1.428 . S
C274 C275 1.345 . S
C275 H267 0.950 . S
C275 C274 1.345 . S
C275 C276 1.424 . S
C276 H268 0.951 . S
C276 C275 1.424 . S
C276 C277 1.347 . S
C277 H269 0.951 . S
C277 C272 1.429 . S
C277 C276 1.347 . S
H278 C279 0.951 . S
C279 H278 0.951 . S
C279 C285 1.265 . S
H280 C285 0.950 . S
H281 C289 0.949 . S
H282 C290 0.950 . S
H283 C291 0.951 . S
H284 C292 0.951 . S
C285 C279 1.265 . S
C285 H280 0.950 . S
C285 C286 1.478 . S
C286 C285 1.478 . S
C286 C287 1.397 . S
C286 C303 1.394 . S
C287 C286 1.397 . S
C287 C288 1.438 . S
C287 C292 1.429 . S
C288 C287 1.438 . S
C288 C289 1.428 . S
C288 C301 1.394 . S
C289 H281 0.949 . S
C289 C288 1.428 . S
C289 C290 1.345 . S
C290 H282 0.950 . S
C290 C289 1.345 . S
C290 C291 1.424 . S
C291 H283 0.951 . S
C291 C290 1.424 . S
C291 C292 1.347 . S
C292 H284 0.951 . S
C292 C287 1.429 . S
C292 C291 1.347 . S
H293 C294 0.951 . S
C294 H293 0.951 . S
C294 C300 1.265 . S
H295 C300 0.950 . S
H296 C304 0.949 . S
H297 C305 0.950 . S
H298 C306 0.951 . S
H299 C307 0.951 . S
C300 C294 1.265 . S
C300 H295 0.950 . S
C300 C301 1.478 . S
C301 C288 1.394 . S
C301 C300 1.478 . S
C301 C302 1.397 . S
C302 C301 1.397 . S
C302 C303 1.438 . S
C302 C307 1.429 . S
C303 C286 1.394 . S
C303 C302 1.438 . S
C303 C304 1.428 . S
C304 H296 0.949 . S
C304 C303 1.428 . S
C304 C305 1.345 . S
C305 H297 0.950 . S
C305 C304 1.345 . S
C305 C306 1.424 . S
C306 H298 0.951 . S
C306 C305 1.424 . S
C306 C307 1.347 . S
C307 H299 0.951 . S
C307 C302 1.429 . S
C307 C306 1.347 . S
H308 C309 0.951 . S
C309 H308 0.951 . S
C309 C315 1.265 . S
H310 C315 0.950 . S
H311 C319 0.949 . S
H312 C320 0.950 . S
H313 C321 0.951 . S
H314 C322 0.951 . S
C315 C309 1.265 . S
C315 H310 0.950 . S
C315 C316 1.478 . S
C316 C315 1.478 . S
C316 C317 1.397 . S
C316 C333 1.394 . S
C317 C316 1.397 . S
C317 C318 1.438 . S
C317 C322 1.429 . S
C318 C317 1.438 . S
C318 C319 1.428 . S
C318 C331 1.394 . S
C319 H311 0.949 . S
C319 C318 1.428 . S
C319 C320 1.345 . S
C320 H312 0.950 . S
C320 C319 1.345 . S
C320 C321 1.424 . S
C321 H313 0.951 . S
C321 C320 1.424 . S
C321 C322 1.347 . S
C322 H314 0.951 . S
C322 C317 1.429 . S
C322 C321 1.347 . S
H323 C324 0.951 . S
C324 H323 0.951 . S
C324 C330 1.265 . S
H325 C330 0.950 . S
H326 C334 0.949 . S
H327 C335 0.950 . S
H328 C336 0.951 . S
H329 C337 0.951 . S
C330 C324 1.265 . S
C330 H325 0.950 . S
C330 C331 1.478 . S
C331 C318 1.394 . S
C331 C330 1.478 . S
C331 C332 1.397 . S
C332 C331 1.397 . S
C332 C333 1.438 . S
C332 C337 1.429 . S
C333 C316 1.394 . S
C333 C332 1.438 . S
C333 C334 1.428 . S
C334 H326 0.949 . S
C334 C333 1.428 . S
C334 C335 1.345 . S
C335 H327 0.950 . S
C335 C334 1.345 . S
C335 C336 1.424 . S
C336 H328 0.951 . S
C336 C335 1.424 . S
C336 C337 1.347 . S
C337 H329 0.951 . S
C337 C332 1.429 . S
C337 C336 1.347 . S
H338 C339 0.951 . S
C339 H338 0.951 . S
C339 C345 1.265 . S
H340 C345 0.950 . S
H341 C349 0.949 . S
H342 C350 0.950 . S
H343 C351 0.951 . S
H344 C352 0.951 . S
C345 C339 1.265 . S
C345 H340 0.950 . S
C345 C346 1.478 . S
C346 C345 1.478 . S
C346 C347 1.397 . S
C346 C363 1.394 . S
C347 C346 1.397 . S
C347 C348 1.438 . S
C347 C352 1.429 . S
C348 C347 1.438 . S
C348 C349 1.428 . S
C348 C361 1.394 . S
C349 H341 0.949 . S
C349 C348 1.428 . S
C349 C350 1.345 . S
C350 H342 0.950 . S
C350 C349 1.345 . S
C350 C351 1.424 . S
C351 H343 0.951 . S
C351 C350 1.424 . S
C351 C352 1.347 . S
C352 H344 0.951 . S
C352 C347 1.429 . S
C352 C351 1.347 . S
H353 C354 0.951 . S
C354 H353 0.951 . S
C354 C360 1.265 . S
H355 C360 0.950 . S
H356 C364 0.949 . S
H357 C365 0.950 . S
H358 C366 0.951 . S
H359 C367 0.951 . S
C360 C354 1.265 . S
C360 H355 0.950 . S
C360 C361 1.478 . S
C361 C348 1.394 . S
C361 C360 1.478 . S
C361 C362 1.397 . S
C362 C361 1.397 . S
C362 C363 1.438 . S
C362 C367 1.429 . S
C363 C346 1.394 . S
C363 C362 1.438 . S
C363 C364 1.428 . S
C364 H356 0.949 . S
C364 C363 1.428 . S
C364 C365 1.345 . S
C365 H357 0.950 . S
C365 C364 1.345 . S
C365 C366 1.424 . S
C366 H358 0.951 . S
C366 C365 1.424 . S
C366 C367 1.347 . S
C367 H359 0.951 . S
C367 C362 1.429 . S
C367 C366 1.347 . S
H368 C369 0.951 . S
C369 H368 0.951 . S
C369 C375 1.265 . S
H370 C375 0.950 . S
H371 C379 0.949 . S
H372 C380 0.950 . S
H373 C381 0.951 . S
H374 C382 0.951 . S
C375 C369 1.265 . S
C375 H370 0.950 . S
C375 C376 1.478 . S
C376 C375 1.478 . S
C376 C377 1.397 . S
C376 C393 1.394 . S
C377 C376 1.397 . S
C377 C378 1.438 . S
C377 C382 1.429 . S
C378 C377 1.438 . S
C378 C379 1.428 . S
C378 C391 1.394 . S
C379 H371 0.949 . S
C379 C378 1.428 . S
C379 C380 1.345 . S
C380 H372 0.950 . S
C380 C379 1.345 . S
C380 C381 1.424 . S
C381 H373 0.951 . S
C381 C380 1.424 . S
C381 C382 1.347 . S
C382 H374 0.951 . S
C382 C377 1.429 . S
C382 C381 1.347 . S
H383 C384 0.951 . S
C384 H383 0.951 . S
C384 C390 1.265 . S
H385 C390 0.950 . S
H386 C394 0.949 . S
H387 C395 0.950 . S
H388 C396 0.951 . S
H389 C397 0.951 . S
C390 C384 1.265 . S
C390 H385 0.950 . S
C390 C391 1.478 . S
C391 C378 1.394 . S
C391 C390 1.478 . S
C391 C392 1.397 . S
C392 C391 1.397 . S
C392 C393 1.438 . S
C392 C397 1.429 . S
C393 C376 1.394 . S
C393 C392 1.438 . S
C393 C394 1.428 . S
C394 H386 0.949 . S
C394 C393 1.428 . S
C394 C395 1.345 . S
C395 H387 0.950 . S
C395 C394 1.345 . S
C395 C396 1.424 . S
C396 H388 0.951 . S
C396 C395 1.424 . S
C396 C397 1.347 . S
C397 H389 0.951 . S
C397 C392 1.429 . S
C397 C396 1.347 . S
H398 C399 0.951 . S
C399 H398 0.951 . S
C399 C405 1.265 . S
H400 C405 0.950 . S
H401 C409 0.949 . S
H402 C410 0.950 . S
H403 C411 0.951 . S
H404 C412 0.951 . S
C405 C399 1.265 . S
C405 H400 0.950 . S
C405 C406 1.478 . S
C406 C405 1.478 . S
C406 C407 1.397 . S
C406 C423 1.394 . S
C407 C406 1.397 . S
C407 C408 1.438 . S
C407 C412 1.429 . S
C408 C407 1.438 . S
C408 C409 1.428 . S
C408 C421 1.394 . S
C409 H401 0.949 . S
C409 C408 1.428 . S
C409 C410 1.345 . S
C410 H402 0.950 . S
C410 C409 1.345 . S
C410 C411 1.424 . S
C411 H403 0.951 . S
C411 C410 1.424 . S
C411 C412 1.347 . S
C412 H404 0.951 . S
C412 C407 1.429 . S
C412 C411 1.347 . S
H413 C414 0.951 . S
C414 H413 0.951 . S
C414 C420 1.265 . S
H415 C420 0.950 . S
H416 C424 0.949 . S
H417 C425 0.950 . S
H418 C426 0.951 . S
H419 C427 0.951 . S
C420 C414 1.265 . S
C420 H415 0.950 . S
C420 C421 1.478 . S
C421 C408 1.394 . S
C421 C420 1.478 . S
C421 C422 1.397 . S
C422 C421 1.397 . S
C422 C423 1.438 . S
C422 C427 1.429 . S
C423 C406 1.394 . S
C423 C422 1.438 . S
C423 C424 1.428 . S
C424 H416 0.949 . S
C424 C423 1.428 . S
C424 C425 1.345 . S
C425 H417 0.950 . S
C425 C424 1.345 . S
C425 C426 1.424 . S
C426 H418 0.951 . S
C426 C425 1.424 . S
C426 C427 1.347 . S
C427 H419 0.951 . S
C427 C422 1.429 . S
C427 C426 1.347 . S
H428 C429 0.951 . S
C429 H428 0.951 . S
C429 C435 1.265 . S
H430 C435 0.950 . S
H431 C439 0.949 . S
H432 C440 0.950 . S
H433 C441 0.951 . S
H434 C442 0.951 . S
C435 C429 1.265 . S
C435 H430 0.950 . S
C435 C436 1.478 . S
C436 C435 1.478 . S
C436 C437 1.397 . S
C436 C453 1.394 . S
C437 C436 1.397 . S
C437 C438 1.438 . S
C437 C442 1.429 . S
C438 C437 1.438 . S
C438 C439 1.428 . S
C438 C451 1.394 . S
C439 H431 0.949 . S
C439 C438 1.428 . S
C439 C440 1.345 . S
C440 H432 0.950 . S
C440 C439 1.345 . S
C440 C441 1.424 . S
C441 H433 0.951 . S
C441 C440 1.424 . S
C441 C442 1.347 . S
C442 H434 0.951 . S
C442 C437 1.429 . S
C442 C441 1.347 . S
H443 C444 0.951 . S
C444 H443 0.951 . S
C444 C450 1.265 . S
H445 C450 0.950 . S
H446 C454 0.949 . S
H447 C455 0.950 . S
H448 C456 0.951 . S
H449 C457 0.951 . S
C450 C444 1.265 . S
C450 H445 0.950 . S
C450 C451 1.478 . S
C451 C438 1.394 . S
C451 C450 1.478 . S
C451 C452 1.397 . S
C452 C451 1.397 . S
C452 C453 1.438 . S
C452 C457 1.429 . S
C453 C436 1.394 . S
C453 C452 1.438 . S
C453 C454 1.428 . S
C454 H446 0.949 . S
C454 C453 1.428 . S
C454 C455 1.345 . S
C455 H447 0.950 . S
C455 C454 1.345 . S
C455 C456 1.424 . S
C456 H448 0.951 . S
C456 C455 1.424 . S
C456 C457 1.347 . S
C457 H449 0.951 . S
C457 C452 1.429 . S
C457 C456 1.347 . S
C114 C69 1.491 . S
C99 N41 1.480 . S
C129 N2 1.488 . S
C144 C92 1.491 . S
C159 N15 1.521 . S
C174 C68 1.521 . S
C189 N28 1.512 . S
C204 C91 1.518 . S
C234 C72 1.473 . S
C219 N5 1.483 . S
C264 C94 1.478 . S
C249 N14 1.507 . S
C279 N27 1.469 . S
C294 C73 1.473 . S
C309 N44 1.515 . S
C324 C93 1.500 . S
C354 C96 1.474 . S
C339 N18 1.490 . S
C384 C71 1.437 . S
C369 N31 1.518 . S
C414 C95 1.473 . S
C399 N40 1.471 . S
C429 N1 1.523 . S
C444 C70 1.413 . S
