# Generated by pormake.
# Topology ssa, (4,4)-cn, num edge types: 1
# Building blocks:
#     Node 0, Type 0, BuildingBlock: ESEHIV_clean_sbu_0, # of connection points: 4
#     Node 1, Type 0, BuildingBlock: ESEHIV_clean_sbu_0, # of connection points: 4
#     Node 2, Type 0, BuildingBlock: ESEHIV_clean_sbu_0, # of connection points: 4
#     Node 3, Type 0, BuildingBlock: ESEHIV_clean_sbu_0, # of connection points: 4
#     Node 4, Type 0, BuildingBlock: ESEHIV_clean_sbu_0, # of connection points: 4
#     Node 5, Type 0, BuildingBlock: ESEHIV_clean_sbu_0, # of connection points: 4
#     Node 6, Type 1, BuildingBlock: GIZVER_clean_linker_0, # of connection points: 4
#     Node 7, Type 1, BuildingBlock: GIZVER_clean_linker_0, # of connection points: 4
#     Node 8, Type 1, BuildingBlock: GIZVER_clean_linker_0, # of connection points: 4
#     Node 9, Type 1, BuildingBlock: GIZVER_clean_linker_0, # of connection points: 4
#     Node 10, Type 1, BuildingBlock: GIZVER_clean_linker_0, # of connection points: 4
#     Node 11, Type 1, BuildingBlock: GIZVER_clean_linker_0, # of connection points: 4
#     Edge 12, Type (0, 1), BuildingBlock: MIFKUJ_clean_linker_0, # of connection points: 2
#     Edge 13, Type (0, 1), BuildingBlock: MIFKUJ_clean_linker_0, # of connection points: 2
#     Edge 14, Type (0, 1), BuildingBlock: MIFKUJ_clean_linker_0, # of connection points: 2
#     Edge 15, Type (0, 1), BuildingBlock: MIFKUJ_clean_linker_0, # of connection points: 2
#     Edge 16, Type (0, 1), BuildingBlock: MIFKUJ_clean_linker_0, # of connection points: 2
#     Edge 17, Type (0, 1), BuildingBlock: MIFKUJ_clean_linker_0, # of connection points: 2
#     Edge 18, Type (0, 1), BuildingBlock: MIFKUJ_clean_linker_0, # of connection points: 2
#     Edge 19, Type (0, 1), BuildingBlock: MIFKUJ_clean_linker_0, # of connection points: 2
#     Edge 20, Type (0, 1), BuildingBlock: MIFKUJ_clean_linker_0, # of connection points: 2
#     Edge 21, Type (0, 1), BuildingBlock: MIFKUJ_clean_linker_0, # of connection points: 2
#     Edge 22, Type (0, 1), BuildingBlock: MIFKUJ_clean_linker_0, # of connection points: 2
#     Edge 23, Type (0, 1), BuildingBlock: MIFKUJ_clean_linker_0, # of connection points: 2
#     Edge 24, Type (0, 1), BuildingBlock: MIFKUJ_clean_linker_0, # of connection points: 2
#     Edge 25, Type (0, 1), BuildingBlock: MIFKUJ_clean_linker_0, # of connection points: 2
#     Edge 26, Type (0, 1), BuildingBlock: MIFKUJ_clean_linker_0, # of connection points: 2
#     Edge 27, Type (0, 1), BuildingBlock: MIFKUJ_clean_linker_0, # of connection points: 2
#     Edge 28, Type (0, 1), BuildingBlock: MIFKUJ_clean_linker_0, # of connection points: 2
#     Edge 29, Type (0, 1), BuildingBlock: MIFKUJ_clean_linker_0, # of connection points: 2
#     Edge 30, Type (0, 1), BuildingBlock: MIFKUJ_clean_linker_0, # of connection points: 2
#     Edge 31, Type (0, 1), BuildingBlock: MIFKUJ_clean_linker_0, # of connection points: 2
#     Edge 32, Type (0, 1), BuildingBlock: MIFKUJ_clean_linker_0, # of connection points: 2
#     Edge 33, Type (0, 1), BuildingBlock: MIFKUJ_clean_linker_0, # of connection points: 2
#     Edge 34, Type (0, 1), BuildingBlock: MIFKUJ_clean_linker_0, # of connection points: 2
#     Edge 35, Type (0, 1), BuildingBlock: MIFKUJ_clean_linker_0, # of connection points: 2
# Relax obj value: 0.004
# Max RMSD: 0.106
# Mean RMSD: 0.064
data_MOF--net-ssa--node1-ESEHIV_clean_sbu_0--node2-GIZVER_clean_linker_0--edge1-MIFKUJ_clean_linker_0
_symmetry_space_group_name_H-M    P1
_symmetry_Int_Tables_number       1
_symmetry_cell_setting            triclinic
loop_
_symmetry_equiv_pos_as_xyz
'x, y, z'
_cell_length_a     69.569369
_cell_length_b     73.192655
_cell_length_c     38.726306
_cell_angle_alpha  88.182116
_cell_angle_beta   90.999054
_cell_angle_gamma 121.66072
loop_
_atom_site_label
_atom_site_type_symbol
_atom_site_fract_x
_atom_site_fract_y
_atom_site_fract_z
_atom_type_partial_charge
Cu0 Cu 1.00595 0.50168 0.02234 0.0
N1 N 0.98162 0.4737 0.03102 0.0
N2 N 0.95108 0.44137 0.02039 0.0
C3 C 0.96466 0.4619 0.0089 0.0
C4 C 0.95993 0.44035 0.05123 0.0
C5 C 0.97878 0.46022 0.05757 0.0
O6 O 0.99621 0.51537 0.98843 0.0
C7 C 0.05221 0.51591 0.00764 0.0
O8 O 0.05505 0.53486 0.00086 0.0
H9 H 0.96301 0.46806 0.98409 0.0
H10 H 0.99014 0.46427 0.07932 0.0
N11 N 0.01379 0.51864 0.06118 0.0
N12 N 0.03461 0.54822 0.09169 0.0
C13 C 0.02875 0.53992 0.05998 0.0
C14 C 1.0095 0.51326 0.09496 0.0
C15 C 0.02233 0.53156 0.1139 0.0
C16 C 0.99024 0.5106 0.95716 0.0
O17 O 0.99377 0.49676 0.94219 0.0
H18 H 0.03584 0.54906 0.03621 0.0
H19 H 0.99876 0.49712 0.10525 0.0
O20 O 0.03229 0.49981 0.01243 0.0
H21 H 0.95367 0.4262 0.06782 0.0
H22 H 0.02363 0.53229 0.14178 0.0
Cu23 Cu 0.5027 0.01021 0.48756 0.0
N24 N 0.5104 1.00246 0.44684 0.0
N25 N 0.51637 0.98175 0.41292 0.0
C26 C 0.51234 0.98515 0.44529 0.0
C27 C 0.51703 0.99759 0.39316 0.0
C28 C 0.5135 0.01047 0.41423 0.0
O29 O 0.47581 0.98381 0.50416 0.0
C30 C 0.54544 0.03982 0.50614 0.0
O31 O 0.54352 0.04668 0.47525 0.0
H32 H 0.51002 0.97477 0.46743 0.0
H33 H 0.51306 0.02449 0.40614 0.0
N34 N 0.49639 0.03217 0.48222 0.0
N35 N 0.49363 0.05992 0.49829 0.0
C36 C 0.4975 0.04428 0.50853 0.0
C37 C 0.49145 0.04023 0.45413 0.0
C38 C 0.48974 0.0573 0.46392 0.0
C39 C 0.45756 0.97884 0.48823 0.0
O40 O 0.45791 0.99264 0.46537 0.0
H41 H 0.50127 0.04156 0.53469 0.0
H42 H 0.48925 0.03423 0.42834 0.0
O43 O 0.52893 0.0221 0.51794 0.0
H44 H 0.51984 0.99968 0.36554 0.0
H45 H 0.48625 0.06714 0.44673 0.0
Cu46 Cu 0.51721 0.49999 0.03093 0.0
N47 N 0.5142 0.47396 0.04498 0.0
N48 N 0.51009 0.44181 0.03882 0.0
C49 C 0.50863 0.45784 0.02342 0.0
C50 C 0.51684 0.4481 0.0715 0.0
C51 C 0.51934 0.46797 0.07525 0.0
O52 O 0.53619 0.50868 0.99004 0.0
C53 C 0.47353 0.48652 0.04787 0.0
O54 O 0.47967 0.47932 0.07471 0.0
H55 H 0.50463 0.4584 0.99642 0.0
H56 H 0.52507 0.47758 0.09809 0.0
N57 N 0.53102 0.52089 0.06448 0.0
N58 N 0.54071 0.55088 0.09222 0.0
C59 C 0.5263 0.53623 0.06963 0.0
C60 C 0.54897 0.52585 0.08468 0.0
C61 C 0.555 0.54438 0.10184 0.0
C62 C 0.55467 0.52664 0.98636 0.0
O63 O 0.55943 0.54219 0.00742 0.0
H64 H 0.5133 0.53725 0.05555 0.0
H65 H 0.55762 0.51714 0.08571 0.0
O66 O 0.48747 0.49579 0.02308 0.0
H67 H 0.52 0.43914 0.09115 0.0
H68 H 0.56908 0.55266 0.11944 0.0
Cu69 Cu 0.01956 0.49445 0.5339 0.0
N70 N 0.04483 0.49257 0.54399 0.0
N71 N 0.07663 0.49347 0.53194 0.0
C72 C 0.05961 0.49545 0.51938 0.0
C73 C 0.07233 0.489 0.56604 0.0
C74 C 0.05271 0.4886 0.57348 0.0
O75 O 0.03032 0.51686 0.49782 0.0
C76 C 0.99118 0.44953 0.53439 0.0
O77 O 1.0079 0.45051 0.55218 0.0
H78 H 0.05754 0.49853 0.49247 0.0
H79 H 0.04466 0.48536 0.59844 0.0
N80 N 1.00878 0.50177 0.57141 0.0
N81 N 0.98369 0.505 0.6017 0.0
C82 C 0.98847 0.49982 0.57123 0.0
C83 C 0.01738 0.50846 0.60309 0.0
C84 C 1.00193 0.51051 0.62185 0.0
C85 C 0.03992 0.53644 0.50637 0.0
O86 O 0.039 0.54083 0.53868 0.0
H87 H 0.97748 0.49472 0.54888 0.0
H88 H 0.03357 0.51146 0.61201 0.0
O89 O 0.99378 0.46674 0.5206 0.0
H90 H 0.08264 0.48634 0.58428 0.0
H91 H 1.00387 0.51529 0.64845 0.0
Cu92 Cu 0.51736 0.01576 0.03987 0.0
N93 N 0.5159 0.0395 0.05166 0.0
N94 N 0.51554 0.0697 0.04356 0.0
C95 C 0.52057 0.05599 0.02984 0.0
C96 C 0.50741 0.0615 0.07543 0.0
C97 C 0.50771 0.04285 0.08039 0.0
O98 O 0.52956 0.02267 0.99321 0.0
C99 C 0.48151 0.97144 0.03642 0.0
O100 O 0.49593 0.9686 0.01956 0.0
H101 H 0.52635 0.05725 0.00363 0.0
H102 H 0.5016 0.03209 0.10277 0.0
N103 N 0.53739 0.01296 0.06906 0.0
N104 N 0.55434 0.99751 0.09535 0.0
C105 C 0.53509 0.99442 0.08093 0.0
C106 C 0.55872 0.02837 0.07674 0.0
C107 C 0.56927 0.01887 0.09287 0.0
C108 C 0.54617 0.02126 0.98373 0.0
O109 O 0.55185 0.00954 0.00245 0.0
H110 H 0.52015 0.97881 0.07695 0.0
H111 H 0.56644 0.04513 0.06919 0.0
O112 O 0.48727 0.99029 0.04509 0.0
H113 H 0.50123 0.0682 0.09354 0.0
H114 H 0.58675 0.02691 0.101 0.0
Cu115 Cu 0.50828 0.50144 0.49055 0.0
N116 N 0.52227 0.52298 0.45613 0.0
N117 N 0.53347 0.55413 0.42801 0.0
C118 C 0.52142 0.54094 0.45461 0.0
C119 C 0.54216 0.54402 0.41176 0.0
C120 C 0.53533 0.52483 0.42935 0.0
O121 O 0.47756 0.49533 0.49471 0.0
C122 C 0.546 0.52665 0.53486 0.0
O123 O 0.55237 0.54183 0.51093 0.0
H124 H 0.51233 0.54444 0.47289 0.0
H125 H 0.53999 0.51332 0.42342 0.0
N126 N 0.50586 0.47581 0.47861 0.0
N127 N 0.50196 0.44373 0.48802 0.0
C128 C 0.50291 0.46074 0.50233 0.0
C129 C 0.50673 0.46807 0.44796 0.0
C130 C 0.5045 0.44827 0.45375 0.0
C131 C 0.47169 0.50772 0.50655 0.0
O132 O 0.48657 0.52488 0.52316 0.0
H133 H 0.50189 0.46247 0.52979 0.0
H134 H 0.50876 0.47613 0.42321 0.0
O135 O 0.52658 0.50955 0.53268 0.0
H136 H 0.55317 0.55034 0.38947 0.0
H137 H 0.50448 0.43795 0.43432 0.0
H138 H 0.25615 0.52644 0.1806 0.0
H139 H 0.2554 0.52163 0.29187 0.0
H140 H 0.1933 0.49743 0.2355 0.0
H141 H 0.29039 0.54858 0.21354 0.0
H142 H 0.28951 0.54885 0.25932 0.0
H143 H 0.30063 0.52589 0.18488 0.0
H144 H 0.33331 0.50058 0.24743 0.0
H145 H 0.295 0.52341 0.29594 0.0
C146 C 0.24684 0.52069 0.20466 0.0
C147 C 0.2232 0.51079 0.20425 0.0
C148 C 0.25859 0.52414 0.23625 0.0
C149 C 0.24638 0.51782 0.26749 0.0
C150 C 0.22285 0.50851 0.26735 0.0
C151 C 0.21144 0.5044 0.23564 0.0
C152 C 0.28412 0.53794 0.23707 0.0
C153 C 0.2955 0.5251 0.23999 0.0
C154 C 0.30373 0.521 0.21004 0.0
C155 C 0.31771 0.5125 0.21273 0.0
C156 C 0.32224 0.50684 0.24543 0.0
C157 C 0.31409 0.51055 0.27563 0.0
C158 C 0.30069 0.51973 0.27276 0.0
H159 H 0.73553 0.22299 0.6909 0.0
H160 H 0.72934 0.22541 0.80097 0.0
H161 H 0.70392 0.16489 0.7533 0.0
H162 H 0.73687 0.25378 0.71716 0.0
H163 H 0.73518 0.25508 0.76264 0.0
H164 H 0.77315 0.26647 0.68861 0.0
H165 H 0.83209 0.30995 0.74676 0.0
H166 H 0.769 0.26931 0.79917 0.0
C167 C 0.73108 0.21497 0.71608 0.0
C168 C 0.71997 0.19242 0.71853 0.0
C169 C 0.73498 0.22711 0.74583 0.0
C170 C 0.72769 0.21641 0.77825 0.0
C171 C 0.71692 0.19395 0.78099 0.0
C172 C 0.71367 0.18229 0.75124 0.0
C173 C 0.74295 0.2507 0.74215 0.0
C174 C 0.76838 0.26532 0.74393 0.0
C175 C 0.78126 0.27256 0.71329 0.0
C176 C 0.80437 0.28845 0.71431 0.0
C177 C 0.8145 0.29705 0.74609 0.0
C178 C 0.80189 0.29043 0.7767 0.0
C179 C 0.77896 0.27408 0.77571 0.0
H180 H 0.52545 0.74329 0.18996 0.0
H181 H 0.52214 0.74665 0.30056 0.0
H182 H 0.55437 0.71626 0.25718 0.0
H183 H 0.50332 0.75618 0.21312 0.0
H184 H 0.49481 0.74922 0.2571 0.0
H185 H 0.54037 0.79174 0.19922 0.0
H186 H 0.55169 0.84255 0.2653 0.0
H187 H 0.50558 0.77719 0.29686 0.0
C188 C 0.53018 0.74087 0.21573 0.0
C189 C 0.5414 0.72964 0.22018 0.0
C190 C 0.52399 0.74793 0.24468 0.0
C191 C 0.52839 0.74284 0.27816 0.0
C192 C 0.53967 0.73169 0.28257 0.0
C193 C 0.54678 0.72591 0.25358 0.0
C194 C 0.50986 0.75801 0.24002 0.0
C195 C 0.52286 0.78161 0.24833 0.0
C196 C 0.53787 0.79694 0.22373 0.0
C197 C 0.54853 0.819 0.22996 0.0
C198 C 0.5445 0.82556 0.26115 0.0
C199 C 0.52888 0.81071 0.28501 0.0
C200 C 0.51819 0.78868 0.27884 0.0
H201 H 0.75508 0.54366 0.702 0.0
H202 H 0.75873 0.54228 0.81333 0.0
H203 H 0.69456 0.51599 0.76237 0.0
H204 H 0.79105 0.56497 0.73053 0.0
H205 H 0.79188 0.56837 0.77598 0.0
H206 H 0.7902 0.53242 0.70731 0.0
H207 H 0.82753 0.51195 0.76945 0.0
H208 H 0.80704 0.55217 0.813 0.0
C209 C 0.74678 0.53857 0.72692 0.0
C210 C 0.72316 0.52846 0.7287 0.0
C211 C 0.75976 0.543 0.75744 0.0
C212 C 0.74881 0.53776 0.78977 0.0
C213 C 0.72521 0.52775 0.79164 0.0
C214 C 0.71264 0.52267 0.76102 0.0
C215 C 0.78531 0.55604 0.75573 0.0
C216 C 0.79561 0.54232 0.76052 0.0
C217 C 0.79694 0.53135 0.73222 0.0
C218 C 0.80831 0.52021 0.73553 0.0
C219 C 0.81783 0.51967 0.76735 0.0
C220 C 0.81789 0.53145 0.79501 0.0
C221 C 0.80649 0.54256 0.79185 0.0
H222 H 0.29435 0.77395 0.2224 0.0
H223 H 0.289 0.77037 0.33342 0.0
H224 H 0.32555 0.83176 0.28042 0.0
H225 H 0.28251 0.74046 0.25279 0.0
H226 H 0.28543 0.74004 0.29851 0.0
H227 H 0.24747 0.73859 0.22694 0.0
H228 H 0.18761 0.69646 0.28619 0.0
H229 H 0.25247 0.72343 0.3341 0.0
C230 C 0.29747 0.78185 0.24687 0.0
C231 C 0.31027 0.80441 0.24761 0.0
C232 C 0.28943 0.76943 0.27774 0.0
C233 C 0.29445 0.77984 0.30954 0.0
C234 C 0.30723 0.80238 0.31064 0.0
C235 C 0.31473 0.81442 0.27956 0.0
C236 C 0.27834 0.74528 0.27716 0.0
C237 C 0.2529 0.73348 0.28064 0.0
C238 C 0.23944 0.73103 0.25138 0.0
C239 C 0.21576 0.71782 0.25317 0.0
C240 C 0.20573 0.7076 0.28476 0.0
C241 C 0.21875 0.70952 0.3138 0.0
C242 C 0.24235 0.72258 0.3119 0.0
H243 H 0.47679 0.25825 0.82483 0.0
H244 H 0.47702 0.26158 0.7134 0.0
H245 H 0.49788 0.31813 0.7715 0.0
H246 H 0.4531 0.2261 0.79109 0.0
H247 H 0.45283 0.22756 0.74525 0.0
H248 H 0.48409 0.22474 0.82237 0.0
H249 H 0.50962 0.19202 0.76633 0.0
H250 H 0.47674 0.22012 0.71186 0.0
C251 C 0.48093 0.26763 0.80088 0.0
C252 C 0.48822 0.2895 0.80179 0.0
C253 C 0.47697 0.2574 0.76898 0.0
C254 C 0.48106 0.26953 0.73795 0.0
C255 C 0.48831 0.29142 0.7387 0.0
C256 C 0.49237 0.30127 0.7707 0.0
C257 C 0.46428 0.23315 0.76807 0.0
C258 C 0.47956 0.22424 0.76711 0.0
C259 C 0.4875 0.21996 0.79814 0.0
C260 C 0.49849 0.20838 0.79821 0.0
C261 C 0.50225 0.2019 0.76653 0.0
C262 C 0.49457 0.2061 0.73531 0.0
C263 C 0.48337 0.21744 0.73574 0.0
H264 H 0.09702 0.54787 0.00805 0.0
H265 H 0.12849 0.54613 0.0334 0.0
H266 H 0.08375 0.47854 0.05607 0.0
H267 H 0.05218 0.48012 0.03093 0.0
H268 H 0.10789 0.50034 0.11266 0.0
H269 H 0.12369 0.49554 0.99385 0.0
H270 H 0.13106 0.50717 0.93254 0.0
H271 H 0.1898 0.56694 0.96104 0.0
H272 H 0.18261 0.55578 0.02259 0.0
H273 H 0.18515 0.47587 0.1794 0.0
H274 H 0.15877 0.47604 0.13699 0.0
H275 H 0.20517 0.54358 0.11611 0.0
H276 H 0.23179 0.54338 0.15833 0.0
H277 H 0.18113 0.5226 0.05742 0.0
H278 H 0.16562 0.52903 0.17467 0.0
H279 H 0.15939 0.51872 0.23656 0.0
H280 H 0.10057 0.45804 0.21187 0.0
H281 H 0.10673 0.46782 0.14973 0.0
C282 C 0.09393 0.53251 0.01774 0.0
C283 C 0.07198 0.51414 0.01741 0.0
C284 C 0.11199 0.53155 0.03226 0.0
C285 C 0.10853 0.51219 0.04667 0.0
C286 C 0.08684 0.49367 0.0452 0.0
C287 C 0.0688 0.49459 0.0306 0.0
C288 C 0.12705 0.5115 0.06541 0.0
C289 C 0.12374 0.50486 0.10035 0.0
C290 C 0.1481 0.51818 0.04983 0.0
C291 C 0.15248 0.5249 0.01285 0.0
C292 C 0.13808 0.51123 0.98707 0.0
C293 C 0.14224 0.51773 0.95227 0.0
C294 C 0.16086 0.5378 0.94291 0.0
C295 C 0.17538 0.55141 0.96833 0.0
C296 C 0.17127 0.54499 0.00318 0.0
C297 C 0.19002 0.49059 0.16495 0.0
C298 C 0.21047 0.50963 0.17228 0.0
C299 C 0.17489 0.49071 0.14086 0.0
C300 C 0.17974 0.50993 0.12393 0.0
C301 C 0.20101 0.52857 0.12894 0.0
C302 C 0.21627 0.52843 0.15296 0.0
C303 C 0.1617 0.51099 0.10434 0.0
C304 C 0.16519 0.51792 0.06953 0.0
C305 C 0.14084 0.50483 0.12011 0.0
C306 C 0.13677 0.49908 0.15751 0.0
C307 C 0.15144 0.51343 0.18242 0.0
C308 C 0.14793 0.50768 0.21755 0.0
C309 C 0.12963 0.48772 0.22814 0.0
C310 C 0.11476 0.47349 0.20362 0.0
C311 C 0.11825 0.47913 0.16844 0.0
H312 H 0.12694 0.48329 0.25535 0.0
H313 H 0.16406 0.5428 0.91595 0.0
H314 H 0.56387 0.02896 0.56077 0.0
H315 H 0.59804 0.05344 0.59363 0.0
H316 H 0.60532 0.10719 0.53278 0.0
H317 H 0.57227 0.08292 0.49921 0.0
H318 H 0.64406 0.11312 0.53944 0.0
H319 H 0.58358 0.09321 0.61936 0.0
H320 H 0.55034 0.06902 0.65535 0.0
H321 H 0.58829 0.04623 0.71002 0.0
H322 H 0.62169 0.07009 0.674 0.0
H323 H 0.69987 0.19842 0.66145 0.0
H324 H 0.67538 0.17113 0.62022 0.0
H325 H 0.69291 0.12736 0.66607 0.0
H326 H 0.71827 0.15488 0.70642 0.0
H327 H 0.64484 0.11387 0.66741 0.0
H328 H 0.70737 0.14 0.58924 0.0
H329 H 0.73969 0.16776 0.55501 0.0
H330 H 0.69584 0.18277 0.49849 0.0
H331 H 0.66329 0.15531 0.53273 0.0
C332 C 0.57286 0.04601 0.55453 0.0
C333 C 0.56548 0.054 0.52732 0.0
C334 C 0.59233 0.06002 0.57337 0.0
C335 C 0.60432 0.08229 0.5659 0.0
C336 C 0.59666 0.09014 0.53893 0.0
C337 C 0.57764 0.07619 0.51977 0.0
C338 C 0.62479 0.0977 0.58581 0.0
C339 C 0.64408 0.11329 0.56744 0.0
C340 C 0.6252 0.09784 0.62241 0.0
C341 C 0.60502 0.0832 0.64365 0.0
C342 C 0.58476 0.08287 0.63881 0.0
C343 C 0.56591 0.06925 0.65926 0.0
C344 C 0.56717 0.05604 0.68487 0.0
C345 C 0.58731 0.05643 0.6901 0.0
C346 C 0.6062 0.06999 0.66967 0.0
C347 C 0.69938 0.18338 0.6618 0.0
C348 C 0.71084 0.17876 0.68758 0.0
C349 C 0.68518 0.1677 0.63839 0.0
C350 C 0.68212 0.14716 0.6405 0.0
C351 C 0.69491 0.14307 0.66426 0.0
C352 C 0.7094 0.15883 0.68725 0.0
C353 C 0.66363 0.12935 0.62093 0.0
C354 C 0.64478 0.11338 0.63942 0.0
C355 C 0.66337 0.12924 0.5845 0.0
C356 C 0.68291 0.14569 0.56375 0.0
C357 C 0.70464 0.14934 0.56972 0.0
C358 C 0.723 0.165 0.55026 0.0
C359 C 0.71983 0.17705 0.52464 0.0
C360 C 0.69828 0.17343 0.51836 0.0
C361 C 0.67986 0.1578 0.53775 0.0
H362 H 0.73407 0.18916 0.50961 0.0
H363 H 0.55258 0.04555 0.70073 0.0
H364 H 0.578 0.58887 0.1087 0.0
H365 H 0.57976 0.62204 0.12266 0.0
H366 H 0.50751 0.59032 0.11049 0.0
H367 H 0.50574 0.55717 0.09594 0.0
H368 H 0.52746 0.62945 0.08153 0.0
H369 H 0.53228 0.60061 0.19335 0.0
H370 H 0.54787 0.58566 0.23539 0.0
H371 H 0.6137 0.6425 0.22366 0.0
H372 H 0.59843 0.65785 0.18181 0.0
H373 H 0.50806 0.69906 0.18078 0.0
H374 H 0.50988 0.67137 0.15 0.0
H375 H 0.58191 0.70503 0.16676 0.0
H376 H 0.5799 0.73235 0.19857 0.0
H377 H 0.56365 0.66603 0.19051 0.0
H378 H 0.55683 0.69673 0.0834 0.0
H379 H 0.5403 0.71108 0.04209 0.0
H380 H 0.47751 0.65039 0.0443 0.0
H381 H 0.49355 0.63576 0.08598 0.0
C382 C 0.56246 0.58889 0.10934 0.0
C383 C 0.54171 0.57032 0.10144 0.0
C384 C 0.56349 0.60789 0.11726 0.0
C385 C 0.54373 0.60866 0.11808 0.0
C386 C 0.523 0.59018 0.10996 0.0
C387 C 0.522 0.57122 0.1017 0.0
C388 C 0.54466 0.62865 0.1278 0.0
C389 C 0.53518 0.63737 0.10551 0.0
C390 C 0.55515 0.63928 0.15869 0.0
C391 C 0.56426 0.63029 0.18435 0.0
C392 C 0.55008 0.60989 0.19976 0.0
C393 C 0.55884 0.60138 0.22359 0.0
C394 C 0.58176 0.61312 0.23218 0.0
C395 C 0.59595 0.63344 0.21702 0.0
C396 C 0.58723 0.6421 0.19341 0.0
C397 C 0.52441 0.70104 0.17648 0.0
C398 C 0.54387 0.71789 0.19182 0.0
C399 C 0.52545 0.68512 0.15899 0.0
C400 C 0.54604 0.68599 0.15607 0.0
C401 C 0.5658 0.7039 0.1688 0.0
C402 C 0.56471 0.71964 0.18663 0.0
C403 C 0.54652 0.66705 0.14418 0.0
C404 C 0.55615 0.65837 0.16627 0.0
C405 C 0.53604 0.65646 0.11319 0.0
C406 C 0.52636 0.6652 0.08803 0.0
C407 C 0.53944 0.68649 0.07528 0.0
C408 C 0.53017 0.69466 0.05175 0.0
C409 C 0.50786 0.68167 0.04063 0.0
C410 C 0.49479 0.66045 0.05295 0.0
C411 C 0.50398 0.65219 0.07648 0.0
H412 H 0.50071 0.68803 0.02242 0.0
H413 H 0.58853 0.60651 0.25061 0.0
H414 H 0.94254 0.48252 0.5704 0.0
H415 H 0.90838 0.4821 0.58491 0.0
H416 H 0.9437 0.52531 0.66794 0.0
H417 H 0.9781 0.5261 0.65336 0.0
H418 H 0.90351 0.49327 0.68893 0.0
H419 H 0.93225 0.54286 0.5915 0.0
H420 H 0.94571 0.55439 0.53165 0.0
H421 H 0.88187 0.50421 0.49306 0.0
H422 H 0.86814 0.49221 0.55273 0.0
H423 H 0.83482 0.54545 0.6828 0.0
H424 H 0.86005 0.53859 0.65026 0.0
H425 H 0.82449 0.47303 0.68907 0.0
H426 H 0.79975 0.48017 0.72269 0.0
H427 H 0.86297 0.51373 0.60471 0.0
H428 H 0.86152 0.46024 0.71656 0.0
H429 H 0.85033 0.45191 0.77792 0.0
H430 H 0.86454 0.51593 0.79025 0.0
H431 H 0.87568 0.5246 0.72893 0.0
C432 C 0.94327 0.49224 0.59142 0.0
C433 C 0.9633 0.50449 0.61055 0.0
C434 C 0.92361 0.4919 0.59974 0.0
C435 C 0.92351 0.50383 0.6273 0.0
C436 C 0.94335 0.51592 0.64661 0.0
C437 C 0.96304 0.51629 0.6383 0.0
C438 C 0.9027 0.50353 0.63649 0.0
C439 C 0.8946 0.49763 0.67042 0.0
C440 C 0.89106 0.50927 0.61241 0.0
C441 C 0.89926 0.51651 0.57656 0.0
C442 C 0.92115 0.53419 0.57024 0.0
C443 C 0.92881 0.54082 0.53636 0.0
C444 C 0.91468 0.53 0.50857 0.0
C445 C 0.89282 0.51256 0.51461 0.0
C446 C 0.88508 0.50584 0.54845 0.0
C447 C 0.83164 0.52928 0.68294 0.0
C448 C 0.81542 0.51335 0.7053 0.0
C449 C 0.84622 0.5254 0.66456 0.0
C450 C 0.84464 0.50549 0.66813 0.0
C451 C 0.82638 0.48868 0.68662 0.0
C452 C 0.81202 0.49265 0.7054 0.0
C453 C 0.86386 0.50353 0.65719 0.0
C454 C 0.87168 0.50903 0.62301 0.0
C455 C 0.87559 0.49783 0.68119 0.0
C456 C 0.86913 0.49294 0.71812 0.0
C457 C 0.86223 0.47252 0.7324 0.0
C458 C 0.85584 0.46773 0.7671 0.0
C459 C 0.85648 0.48331 0.78783 0.0
C460 C 0.86382 0.50382 0.77405 0.0
C461 C 0.8701 0.50866 0.7393 0.0
H462 H 0.85131 0.47948 0.81457 0.0
H463 H 0.92064 0.53517 0.48235 0.0
H464 H 0.46713 0.92868 0.03372 0.0
H465 H 0.43426 0.89847 0.06246 0.0
H466 H 0.41458 0.94146 0.09862 0.0
H467 H 0.44757 0.97175 0.07052 0.0
H468 H 0.41447 0.91711 0.15016 0.0
H469 H 0.38459 0.90426 0.03492 0.0
H470 H 0.38428 0.89844 0.97249 0.0
H471 H 0.38697 0.84191 0.99397 0.0
H472 H 0.3876 0.84754 0.05655 0.0
H473 H 0.31191 0.84108 0.22597 0.0
H474 H 0.33703 0.86732 0.18225 0.0
H475 H 0.35975 0.82501 0.15514 0.0
H476 H 0.33453 0.79861 0.19887 0.0
H477 H 0.35753 0.84824 0.09775 0.0
H478 H 0.38887 0.86183 0.2123 0.0
H479 H 0.38862 0.86707 0.27484 0.0
H480 H 0.38358 0.9224 0.25426 0.0
H481 H 0.38337 0.91725 0.19155 0.0
C482 C 0.45562 0.93168 0.04731 0.0
C483 C 0.46008 0.9527 0.04987 0.0
C484 C 0.43675 0.91433 0.06368 0.0
C485 C 0.42182 0.91761 0.08267 0.0
C486 C 0.42585 0.93849 0.08425 0.0
C487 C 0.44472 0.95582 0.06803 0.0
C488 C 0.40294 0.89965 0.10291 0.0
C489 C 0.40183 0.90222 0.13846 0.0
C490 C 0.38678 0.87989 0.08804 0.0
C491 C 0.38636 0.87645 0.05043 0.0
C492 C 0.3853 0.89068 0.02633 0.0
C493 C 0.38503 0.8874 0.99092 0.0
C494 C 0.38567 0.86985 0.97927 0.0
C495 C 0.38651 0.85551 0.00302 0.0
C496 C 0.3868 0.85873 0.03847 0.0
C497 C 0.32189 0.83717 0.21016 0.0
C498 C 0.32143 0.81788 0.21612 0.0
C499 C 0.33625 0.85217 0.18521 0.0
C500 C 0.35061 0.84831 0.1659 0.0
C501 C 0.34887 0.82835 0.1698 0.0
C502 C 0.3344 0.81325 0.19474 0.0
C503 C 0.369 0.86595 0.14466 0.0
C504 C 0.37013 0.86324 0.10918 0.0
C505 C 0.38529 0.88562 0.15953 0.0
C506 C 0.38588 0.88902 0.19723 0.0
C507 C 0.38756 0.87503 0.22111 0.0
C508 C 0.38751 0.87798 0.25659 0.0
C509 C 0.38603 0.89502 0.26852 0.0
C510 C 0.38469 0.90919 0.24498 0.0
C511 C 0.38466 0.90626 0.20946 0.0
H512 H 0.38598 0.89728 0.296 0.0
H513 H 0.38545 0.86733 0.95184 0.0
H514 H 0.47755 0.4251 0.5458 0.0
H515 H 0.4764 0.39637 0.58114 0.0
H516 H 0.51908 0.39114 0.50774 0.0
H517 H 0.52014 0.42004 0.47188 0.0
H518 H 0.48471 0.35063 0.53672 0.0
H519 H 0.54372 0.41898 0.57533 0.0
H520 H 0.55933 0.45661 0.59061 0.0
H521 H 0.51266 0.43615 0.67508 0.0
H522 H 0.49646 0.3983 0.65987 0.0
H523 H 0.50855 0.29495 0.67609 0.0
H524 H 0.51227 0.31844 0.62628 0.0
H525 H 0.47326 0.33877 0.68043 0.0
H526 H 0.46946 0.31555 0.72956 0.0
H527 H 0.51251 0.37265 0.65619 0.0
H528 H 0.45117 0.30484 0.61378 0.0
H529 H 0.43368 0.26729 0.59612 0.0
H530 H 0.48484 0.28677 0.5188 0.0
H531 H 0.50281 0.32443 0.53634 0.0
C532 C 0.48659 0.41777 0.53704 0.0
C533 C 0.49926 0.42508 0.50639 0.0
C534 C 0.48584 0.40128 0.55717 0.0
C535 C 0.49799 0.39188 0.54739 0.0
C536 C 0.50963 0.39822 0.51579 0.0
C537 C 0.51024 0.41472 0.49537 0.0
C538 C 0.49982 0.37683 0.5719 0.0
C539 C 0.49118 0.35549 0.56265 0.0
C540 C 0.50825 0.38318 0.60574 0.0
C541 C 0.51877 0.40581 0.61628 0.0
C542 C 0.53676 0.4225 0.59713 0.0
C543 C 0.54569 0.44387 0.60576 0.0
C544 C 0.53689 0.44878 0.63368 0.0
C545 C 0.51939 0.4323 0.65338 0.0
C546 C 0.51034 0.41088 0.64479 0.0
C547 C 0.50058 0.30427 0.67702 0.0
C548 C 0.48908 0.30374 0.70693 0.0
C549 C 0.50272 0.31767 0.64865 0.0
C550 C 0.49321 0.33052 0.64979 0.0
C551 C 0.48099 0.32925 0.67912 0.0
C552 C 0.47888 0.31599 0.70723 0.0
C553 C 0.49658 0.34616 0.62155 0.0
C554 C 0.50639 0.36778 0.6301 0.0
C555 C 0.48929 0.34 0.58719 0.0
C556 C 0.47849 0.3174 0.57667 0.0
C557 C 0.45881 0.30109 0.59324 0.0
C558 C 0.44878 0.2798 0.5832 0.0
C559 C 0.45819 0.27464 0.55644 0.0
C560 C 0.4776 0.29078 0.53958 0.0
C561 C 0.48771 0.3121 0.54955 0.0
H562 H 0.4504 0.25815 0.5487 0.0
H563 H 0.54358 0.46535 0.64002 0.0
H564 H 0.53634 0.96352 0.44763 0.0
H565 H 0.53738 0.93197 0.43098 0.0
H566 H 0.50081 0.92793 0.33764 0.0
H567 H 0.50025 0.95985 0.35381 0.0
H568 H 0.48289 0.88797 0.38255 0.0
H569 H 0.55045 0.94442 0.32701 0.0
H570 H 0.5877 0.97802 0.32415 0.0
H571 H 0.61429 0.95129 0.39679 0.0
H572 H 0.5771 0.91759 0.40031 0.0
H573 H 0.49226 0.81412 0.28175 0.0
H574 H 0.48794 0.84063 0.31135 0.0
H575 H 0.54482 0.85483 0.37675 0.0
H576 H 0.54989 0.82911 0.34532 0.0
H577 H 0.55244 0.88952 0.35075 0.0
H578 H 0.48723 0.83294 0.40675 0.0
H579 H 0.45032 0.79929 0.41373 0.0
H580 H 0.4193 0.82526 0.34864 0.0
H581 H 0.45609 0.85895 0.34075 0.0
C582 C 0.52868 0.95597 0.42345 0.0
C583 C 0.5182 0.96408 0.402 0.0
C584 C 0.52935 0.93804 0.41394 0.0
C585 C 0.51912 0.92763 0.38315 0.0
C586 C 0.50878 0.93576 0.36151 0.0
C587 C 0.50861 0.95404 0.37062 0.0
C588 C 0.51868 0.90788 0.37411 0.0
C589 C 0.49801 0.88822 0.37533 0.0
C590 C 0.53858 0.90823 0.36603 0.0
C591 C 0.56091 0.92856 0.36415 0.0
C592 C 0.56418 0.94578 0.34258 0.0
C593 C 0.5853 0.96482 0.34078 0.0
C594 C 0.60334 0.96681 0.36034 0.0
C595 C 0.6003 0.94974 0.38168 0.0
C596 C 0.5792 0.93065 0.38355 0.0
C597 C 0.5031 0.82215 0.30361 0.0
C598 C 0.52113 0.81933 0.31175 0.0
C599 C 0.50071 0.83743 0.32053 0.0
C600 C 0.51602 0.84987 0.34652 0.0
C601 C 0.53283 0.84558 0.35674 0.0
C602 C 0.53552 0.83062 0.33923 0.0
C603 C 0.5165 0.86917 0.35923 0.0
C604 C 0.53722 0.88894 0.35856 0.0
C605 C 0.49667 0.8688 0.36861 0.0
C606 C 0.47451 0.84843 0.37289 0.0
C607 C 0.47259 0.83141 0.39362 0.0
C608 C 0.45167 0.81234 0.3978 0.0
C609 C 0.43249 0.81012 0.38157 0.0
C610 C 0.43418 0.82699 0.36116 0.0
C611 C 0.45507 0.84609 0.35684 0.0
H612 H 0.41631 0.79535 0.38487 0.0
H613 H 0.61968 0.98157 0.35892 0.0
H614 H 0.59746 0.56127 0.9764 0.0
H615 H 0.62886 0.5619 0.94792 0.0
H616 H 0.5844 0.49626 0.91818 0.0
H617 H 0.55293 0.49537 0.94694 0.0
H618 H 0.6224 0.50181 0.9479 0.0
H619 H 0.60417 0.53732 0.85861 0.0
H620 H 0.59679 0.56451 0.83384 0.0
H621 H 0.66341 0.61472 0.86277 0.0
H622 H 0.67109 0.58781 0.88811 0.0
H623 H 0.68698 0.49262 0.8173 0.0
H624 H 0.66082 0.49309 0.85786 0.0
H625 H 0.70983 0.55933 0.87927 0.0
H626 H 0.73584 0.55904 0.8378 0.0
H627 H 0.67159 0.55512 0.85805 0.0
H628 H 0.69078 0.51865 0.94303 0.0
H629 H 0.69774 0.4909 0.96638 0.0
H630 H 0.62913 0.44193 0.94455 0.0
H631 H 0.62182 0.46935 0.92063 0.0
C632 C 0.59423 0.54707 0.96328 0.0
C633 C 0.57265 0.52826 0.96404 0.0
C634 C 0.61224 0.54746 0.94701 0.0
C635 C 0.60901 0.5291 0.93099 0.0
C636 C 0.58731 0.51057 0.93057 0.0
C637 C 0.56929 0.51016 0.9468 0.0
C638 C 0.62841 0.52893 0.91592 0.0
C639 C 0.63304 0.51332 0.92797 0.0
C640 C 0.64271 0.54436 0.89074 0.0
C641 C 0.63811 0.56056 0.87561 0.0
C642 C 0.61717 0.55417 0.85997 0.0
C643 C 0.61295 0.56953 0.84576 0.0
C644 C 0.6296 0.59133 0.84683 0.0
C645 C 0.65052 0.59782 0.86202 0.0
C646 C 0.65482 0.58252 0.87628 0.0
C647 C 0.69249 0.50702 0.83169 0.0
C648 C 0.71338 0.52582 0.8243 0.0
C649 C 0.67752 0.50729 0.85492 0.0
C650 C 0.68327 0.52629 0.87156 0.0
C651 C 0.70499 0.54451 0.86664 0.0
C652 C 0.71997 0.54426 0.84328 0.0
C653 C 0.66559 0.5279 0.88983 0.0
C654 C 0.66119 0.54376 0.8783 0.0
C655 C 0.65147 0.51263 0.91538 0.0
C656 C 0.6558 0.49607 0.9298 0.0
C657 C 0.67721 0.50195 0.94296 0.0
C658 C 0.68122 0.48628 0.95635 0.0
C659 C 0.6639 0.46467 0.95689 0.0
C660 C 0.64253 0.45868 0.94411 0.0
C661 C 0.63844 0.47429 0.93068 0.0
H662 H 0.66704 0.45256 0.96726 0.0
H663 H 0.6263 0.6032 0.8358 0.0
H664 H 0.05447 0.57885 0.50957 0.0
H665 H 0.08574 0.60877 0.47765 0.0
H666 H 0.09393 0.56408 0.41931 0.0
H667 H 0.06244 0.53397 0.45106 0.0
H668 H 0.13416 0.59636 0.4497 0.0
H669 H 0.07396 0.59109 0.37947 0.0
H670 H 0.03798 0.58922 0.36827 0.0
H671 H 0.06482 0.65102 0.41279 0.0
H672 H 0.10088 0.65313 0.4247 0.0
H673 H 0.21278 0.67038 0.32526 0.0
H674 H 0.18337 0.64134 0.36094 0.0
H675 H 0.16728 0.6857 0.4029 0.0
H676 H 0.19609 0.71453 0.36561 0.0
H677 H 0.1309 0.6533 0.38195 0.0
H678 H 0.19103 0.65946 0.45231 0.0
H679 H 0.22699 0.66167 0.46541 0.0
H680 H 0.20083 0.59917 0.42398 0.0
H681 H 0.16481 0.59669 0.41018 0.0
C682 C 0.0626 0.57537 0.48941 0.0
C683 C 0.0559 0.55405 0.4827 0.0
C684 C 0.08049 0.59249 0.47122 0.0
C685 C 0.0922 0.58867 0.44614 0.0
C686 C 0.08512 0.56738 0.43858 0.0
C687 C 0.06698 0.55019 0.45649 0.0
C688 C 0.11255 0.60696 0.42929 0.0
C689 C 0.13347 0.60869 0.43444 0.0
C690 C 0.11171 0.62339 0.41046 0.0
C691 C 0.09005 0.62217 0.40328 0.0
C692 C 0.07212 0.6042 0.38715 0.0
C693 C 0.05173 0.60311 0.38061 0.0
C694 C 0.04909 0.61996 0.38989 0.0
C695 C 0.06687 0.63797 0.40565 0.0
C696 C 0.0873 0.63912 0.41227 0.0
C697 C 0.2036 0.67406 0.34325 0.0
C698 C 0.20699 0.69472 0.3434 0.0
C699 C 0.18668 0.65743 0.3636 0.0
C700 C 0.17306 0.66123 0.38497 0.0
C701 C 0.17749 0.68229 0.38669 0.0
C702 C 0.19417 0.69885 0.36584 0.0
C703 C 0.15279 0.64294 0.40241 0.0
C704 C 0.13179 0.64112 0.39734 0.0
C705 C 0.15362 0.62655 0.42164 0.0
C706 C 0.17528 0.62798 0.42993 0.0
C707 C 0.193 0.64625 0.44574 0.0
C708 C 0.21339 0.64754 0.45334 0.0
C709 C 0.21622 0.63059 0.44546 0.0
C710 C 0.19863 0.61229 0.43004 0.0
C711 C 0.17821 0.61093 0.42236 0.0
H712 H 0.23201 0.63162 0.45136 0.0
H713 H 0.03329 0.61909 0.3848 0.0
H714 H 0.48777 0.08479 0.05291 0.0
H715 H 0.48678 0.11293 0.01845 0.0
H716 H 0.54363 0.12324 0.95895 0.0
H717 H 0.5449 0.09536 0.99359 0.0
H718 H 0.54635 0.16148 0.97371 0.0
H719 H 0.49207 0.09222 0.92799 0.0
H720 H 0.45937 0.05505 0.93124 0.0
H721 H 0.41705 0.0779 0.96338 0.0
H722 H 0.4496 0.11521 0.96077 0.0
H723 H 0.53544 0.20548 0.814 0.0
H724 H 0.53986 0.18619 0.86296 0.0
H725 H 0.4774 0.17413 0.90631 0.0
H726 H 0.47227 0.19245 0.85649 0.0
H727 H 0.47678 0.13844 0.90505 0.0
H728 H 0.53038 0.20841 0.94456 0.0
H729 H 0.56311 0.24553 0.94086 0.0
H730 H 0.60674 0.22202 0.92067 0.0
H731 H 0.57422 0.18476 0.92377 0.0
C732 C 0.50033 0.09333 0.03295 0.0
C733 C 0.5163 0.08771 0.02581 0.0
C734 C 0.49965 0.10932 0.01313 0.0
C735 C 0.51499 0.12003 0.98589 0.0
C736 C 0.53161 0.11517 0.97979 0.0
C737 C 0.5322 0.0991 -0.00058 0.0
C738 C 0.51285 0.13529 0.9623 0.0
C739 C 0.53121 0.15647 0.95853 0.0
C740 C 0.4929 0.12886 0.9431 0.0
C741 C 0.47331 0.10646 0.94459 0.0
C742 C 0.47583 0.0893 0.93604 0.0
C743 C 0.45732 0.06821 0.93771 0.0
C744 C 0.43616 0.06411 0.94762 0.0
C745 C 0.43346 0.0811 0.95578 0.0
C746 C 0.45193 0.10221 0.9542 0.0
C747 C 0.52274 0.19893 0.83414 0.0
C748 C 0.50342 0.20043 0.8311 0.0
C749 C 0.52542 0.18807 0.86237 0.0
C750 C 0.50903 0.17875 0.88856 0.0
C751 C 0.49029 0.18117 0.88648 0.0
C752 C 0.48751 0.19189 0.8581 0.0
C753 C 0.51035 0.1648 0.91619 0.0
C754 C 0.49184 0.14372 0.92059 0.0
C755 C 0.53017 0.17138 0.93596 0.0
C756 C 0.54981 0.19378 0.93415 0.0
C757 C 0.54692 0.21116 0.93907 0.0
C758 C 0.56545 0.23222 0.93713 0.0
C759 C 0.58698 0.23613 0.93047 0.0
C760 C 0.59005 0.21897 0.92581 0.0
C761 C 0.57157 0.19787 0.92771 0.0
H762 H 0.60131 0.25245 0.92897 0.0
H763 H 0.42185 0.04778 0.94888 0.0
H764 H 0.43624 0.47317 0.47543 0.0
H765 H 0.40446 0.47187 0.44531 0.0
H766 H 0.42646 0.53553 0.47904 0.0
H767 H 0.45827 0.53688 0.50973 0.0
H768 H 0.37938 0.50964 0.47574 0.0
H769 H 0.4429 0.53079 0.40306 0.0
H770 H 0.47344 0.52784 0.3779 0.0
H771 H 0.42446 0.46753 0.33422 0.0
H772 H 0.39361 0.46994 0.35969 0.0
H773 H 0.33324 0.53851 0.32887 0.0
H774 H 0.35494 0.53594 0.37738 0.0
H775 H 0.33622 0.47259 0.34634 0.0
H776 H 0.31453 0.47507 0.29806 0.0
H777 H 0.38156 0.49933 0.35016 0.0
H778 H 0.31755 0.48007 0.42206 0.0
H779 H 0.28818 0.48493 0.44688 0.0
H780 H 0.33932 0.54436 0.49046 0.0
H781 H 0.36901 0.54 0.46547 0.0
C782 C 0.43409 0.48673 0.47716 0.0
C783 C 0.45002 0.50524 0.49467 0.0
C784 C 0.41589 0.48597 0.45985 0.0
C785 C 0.41331 0.50377 0.45933 0.0
C786 C 0.42814 0.52163 0.47898 0.0
C787 C 0.44635 0.52237 0.4965 0.0
C788 C 0.39677 0.50453 0.43528 0.0
C789 C 0.37993 0.50758 0.44824 0.0
C790 C 0.39746 0.50182 0.39937 0.0
C791 C 0.41595 0.50044 0.38358 0.0
C792 C 0.43864 0.51682 0.3883 0.0
C793 C 0.45601 0.51525 0.37397 0.0
C794 C 0.45089 0.49748 0.35454 0.0
C795 C 0.42839 0.48127 0.34933 0.0
C796 C 0.41096 0.48273 0.3637 0.0
C797 C 0.3331 0.52375 0.33315 0.0
C798 C 0.32228 0.50704 0.30953 0.0
C799 C 0.3456 0.52232 0.36081 0.0
C800 C 0.34738 0.50412 0.3654 0.0
C801 C 0.33526 0.48685 0.34322 0.0
C802 C 0.32281 0.48826 0.31569 0.0
C803 C 0.36371 0.5039 0.39058 0.0
C804 C 0.38079 0.50121 0.37769 0.0
C805 C 0.36334 0.50724 0.42634 0.0
C806 C 0.34551 0.50981 0.4416 0.0
C807 C 0.32254 0.49426 0.43669 0.0
C808 C 0.30583 0.49691 0.45084 0.0
C809 C 0.31188 0.51498 0.47015 0.0
C810 C 0.33466 0.53039 0.47546 0.0
C811 C 0.35143 0.52783 0.46134 0.0
H812 H 0.29892 0.51701 0.48106 0.0
H813 H 0.46436 0.49629 0.34345 0.0
H814 H 0.92872 0.4445 0.96413 0.0
H815 H 0.89966 0.41537 0.93059 0.0
H816 H 0.90068 0.36913 0.001 0.0
H817 H 0.93086 0.3982 0.03387 0.0
H818 H 0.89997 0.35795 0.93683 0.0
H819 H 0.85709 0.3793 -0.0001 0.0
H820 H 0.84744 0.40456 0.02269 0.0
H821 H 0.83806 0.42166 0.91943 0.0
H822 H 0.84798 0.39676 0.89596 0.0
H823 H 0.80625 0.27581 0.84094 0.0
H824 H 0.82714 0.29784 0.89083 0.0
H825 H 0.84173 0.35498 0.83268 0.0
H826 H 0.82111 0.33318 0.78328 0.0
H827 H 0.83032 0.35595 0.89956 0.0
H828 H 0.87988 0.34059 0.83739 0.0
H829 H 0.89103 0.31681 0.81282 0.0
H830 H 0.88816 0.28934 0.91367 0.0
H831 H 0.87667 0.31277 0.93876 0.0
C832 C 0.92301 0.42823 0.97265 0.0
C833 C 0.93249 0.42396 0.00191 0.0
C834 C 0.90603 0.4115 0.95356 0.0
C835 C 0.89761 0.39001 0.96354 0.0
C836 C 0.90678 0.38558 0.99287 0.0
C837 C 0.92399 0.40233 0.01185 0.0
C838 C 0.87999 0.37234 0.94231 0.0
C839 C 0.88448 0.35723 0.92939 0.0
C840 C 0.85989 0.37152 0.93205 0.0
C841 C 0.85348 0.38626 0.94614 0.0
C842 C 0.85311 0.38854 0.98202 0.0
C843 C 0.84757 0.40279 0.99507 0.0
C844 C 0.84218 0.41474 0.97253 0.0
C845 C 0.8422 0.41237 0.93688 0.0
C846 C 0.84777 0.39817 0.92369 0.0
C847 C 0.8137 0.29303 0.83917 0.0
C848 C 0.8123 0.30287 0.80829 0.0
C849 C 0.82567 0.30559 0.86752 0.0
C850 C 0.83614 0.32808 0.86536 0.0
C851 C 0.83381 0.3377 0.83498 0.0
C852 C 0.82213 0.32525 0.80672 0.0
C853 C 0.85063 0.34201 0.89365 0.0
C854 C 0.84556 0.35642 0.90778 0.0
C855 C 0.87023 0.34227 0.90491 0.0
C856 C 0.87712 0.3282 0.88987 0.0
C857 C 0.88142 0.32933 0.85427 0.0
C858 C 0.88784 0.31595 0.84026 0.0
C859 C 0.89022 0.30152 0.86165 0.0
C860 C 0.88625 0.30049 0.89712 0.0
C861 C 0.87978 0.31381 0.91125 0.0
H862 H 0.89521 0.29118 0.85077 0.0
H863 H 0.83795 0.4258 0.98268 0.0
H864 H 0.97292 0.53238 0.98657 0.0
H865 H 0.94409 0.53863 0.96335 0.0
H866 H 0.94504 0.51099 0.86711 0.0
H867 H 0.97333 0.50376 0.89087 0.0
H868 H 0.93937 0.56029 0.91514 0.0
H869 H 0.89462 0.48595 0.83003 0.0
H870 H 0.88805 0.44945 0.82741 0.0
H871 H 0.8958 0.44783 0.93755 0.0
H872 H 0.90227 0.48422 0.94077 0.0
H873 H 0.861 0.5642 0.7995 0.0
H874 H 0.89098 0.56395 0.83266 0.0
H875 H 0.84126 0.50563 0.88605 0.0
H876 H 0.81139 0.50533 0.85104 0.0
H877 H 0.87044 0.49928 0.86441 0.0
H878 H 0.8775 0.55753 0.92662 0.0
H879 H 0.8814 0.59258 0.93509 0.0
H880 H 0.94479 0.62439 0.88132 0.0
H881 H 0.94113 0.58951 0.87213 0.0
C882 C 0.96721 0.52777 0.96031 0.0
C883 C 0.97535 0.51734 0.94072 0.0
C884 C 0.95066 0.53141 0.94701 0.0
C885 C 0.94191 0.5249 0.91368 0.0
C886 C 0.95099 0.51565 0.89326 0.0
C887 C 0.96736 0.5117 0.90676 0.0
C888 C 0.92279 0.52712 0.90107 0.0
C889 C 0.92432 0.54696 0.90392 0.0
C890 C 0.90282 0.50967 0.8872 0.0
C891 C 0.89913 0.48785 0.88557 0.0
C892 C 0.89488 0.47776 0.85366 0.0
C893 C 0.89123 0.45712 0.85207 0.0
C894 C 0.8917 0.44639 0.88225 0.0
C895 C 0.89569 0.45623 0.91413 0.0
C896 C 0.89936 0.47687 0.91586 0.0
C897 C 0.85645 0.55189 0.81947 0.0
C898 C 0.83388 0.53507 0.82339 0.0
C899 C 0.87363 0.5517 0.83844 0.0
C900 C 0.86856 0.53485 0.86226 0.0
C901 C 0.84574 0.51881 0.86787 0.0
C902 C 0.82859 0.51878 0.84832 0.0
C903 C 0.88702 0.53254 0.87789 0.0
C904 C 0.88544 0.51268 0.87552 0.0
C905 C 0.90665 0.54984 0.89291 0.0
C906 C 0.90895 0.57087 0.89847 0.0
C907 C 0.8922 0.57199 0.9164 0.0
C908 C 0.89438 0.59183 0.92136 0.0
C909 C 0.91331 0.6107 0.90869 0.0
C910 C 0.93013 0.60976 0.8911 0.0
C911 C 0.92802 0.58996 0.88606 0.0
H912 H 0.91496 0.62604 0.91255 0.0
H913 H 0.88889 0.43042 0.88089 0.0
H914 H 0.45366 0.94171 0.51562 0.0
H915 H 0.4226 0.90483 0.50521 0.0
H916 H 0.38561 0.92946 0.45164 0.0
H917 H 0.41585 0.9659 0.46307 0.0
H918 H 0.3568 0.89278 0.48215 0.0
H919 H 0.42472 0.91973 0.41149 0.0
H920 H 0.4654 0.93365 0.40613 0.0
H921 H 0.45573 0.87546 0.45309 0.0
H922 H 0.41501 0.86145 0.45967 0.0
H923 H 0.30683 0.83769 0.33001 0.0
H924 H 0.32709 0.8608 0.37831 0.0
H925 H 0.34658 0.8164 0.41429 0.0
H926 H 0.32662 0.79336 0.36536 0.0
H927 H 0.38242 0.8558 0.4075 0.0
H928 H 0.3118 0.82558 0.46362 0.0
H929 H 0.27139 0.81274 0.4697 0.0
H930 H 0.28544 0.87655 0.44852 0.0
H931 H 0.32589 0.88974 0.4418 0.0
C932 C 0.43857 0.93919 0.50264 0.0
C933 C 0.4374 0.95675 0.48961 0.0
C934 C 0.42088 0.91811 0.49649 0.0
C935 C 0.40197 0.91432 0.4768 0.0
C936 C 0.40001 0.93184 0.46666 0.0
C937 C 0.41746 0.95277 0.47305 0.0
C938 C 0.38561 0.89284 0.4626 0.0
C939 C 0.36236 0.88461 0.46595 0.0
C940 C 0.39276 0.88176 0.44218 0.0
C941 C 0.41695 0.88972 0.43661 0.0
C942 C 0.4313 0.90995 0.42077 0.0
C943 C 0.45436 0.91787 0.41759 0.0
C944 C 0.46316 0.90551 0.42953 0.0
C945 C 0.44888 0.88507 0.44415 0.0
C946 C 0.42583 0.87715 0.44769 0.0
C947 C 0.315 0.8326 0.34867 0.0
C948 C 0.31519 0.81375 0.34383 0.0
C949 C 0.32646 0.84576 0.37645 0.0
C950 C 0.33829 0.84031 0.40016 0.0
C951 C 0.33751 0.8209 0.39643 0.0
C952 C 0.32595 0.80766 0.36862 0.0
C953 C 0.35359 0.85622 0.42589 0.0
C954 C 0.37668 0.86346 0.42456 0.0
C955 C 0.34625 0.86644 0.44792 0.0
C956 C 0.32192 0.85863 0.45209 0.0
C957 C 0.30627 0.83686 0.46005 0.0
C958 C 0.28335 0.82952 0.46363 0.0
C959 C 0.27585 0.84381 0.45947 0.0
C960 C 0.29127 0.86549 0.45176 0.0
C961 C 0.31421 0.87292 0.44813 0.0
H962 H 0.2581 0.8381 0.46225 0.0
H963 H 0.48103 0.91175 0.42755 0.0
H964 H 0.48155 0.42074 0.98628 0.0
H965 H 0.47749 0.3902 0.95588 0.0
H966 H 0.52666 0.38903 0.02377 0.0
H967 H 0.53107 0.41997 0.05406 0.0
H968 H 0.53504 0.38656 0.95567 0.0
H969 H 0.47219 0.34989 0.03175 0.0
H970 H 0.43788 0.34292 0.06165 0.0
H971 H 0.40371 0.33299 0.96431 0.0
H972 H 0.43792 0.34021 0.93375 0.0
H973 H 0.51254 0.29406 0.8612 0.0
H974 H 0.5159 0.31524 0.91176 0.0
H975 H 0.4682 0.32942 0.86522 0.0
H976 H 0.46481 0.3084 0.81534 0.0
H977 H 0.46049 0.32111 0.93344 0.0
H978 H 0.52474 0.36428 0.85784 0.0
H979 H 0.55915 0.37276 0.8265 0.0
H980 H 0.59053 0.37133 0.92219 0.0
H981 H 0.55614 0.36253 0.95405 0.0
C982 C 0.49148 0.41399 0.9948 0.0
C983 C 0.50666 0.42283 0.02256 0.0
C984 C 0.489 0.39639 0.97759 0.0
C985 C 0.5016 0.38716 0.98774 0.0
C986 C 0.51668 0.39582 0.01561 0.0
C987 C 0.51906 0.4134 0.03305 0.0
C988 C 0.49958 0.36911 0.96801 0.0
C989 C 0.51883 0.37199 0.9515 0.0
C990 C 0.47839 0.35023 0.96217 0.0
C991 C 0.45769 0.34571 0.98044 0.0
C992 C 0.45741 0.34636 0.01669 0.0
C993 C 0.43797 0.34234 0.03376 0.0
C994 C 0.41864 0.33754 0.01489 0.0
C995 C 0.4187 0.3367 0.9789 0.0
C996 C 0.4381 0.34072 0.96169 0.0
C997 C 0.50256 0.30145 0.86223 0.0
C998 C 0.48859 0.29981 0.83436 0.0
C999 C 0.50455 0.3136 0.89093 0.0
C1000 C 0.49245 0.3241 0.89212 0.0
C1001 C 0.47769 0.3215 0.86496 0.0
C1002 C 0.47585 0.30958 0.83639 0.0
C1003 C 0.49581 0.33886 0.92031 0.0
C1004 C 0.47679 0.3354 0.93836 0.0
C1005 C 0.51718 0.35726 0.9274 0.0
C1006 C 0.53777 0.36243 0.90825 0.0
C1007 C 0.5389 0.36556 0.87215 0.0
C1008 C 0.55841 0.37047 0.8543 0.0
C1009 C 0.57699 0.3725 0.87233 0.0
C1010 C 0.57611 0.36968 0.90825 0.0
C1011 C 0.55661 0.36473 0.92621 0.0
H1012 H 0.59209 0.37632 0.85847 0.0
H1013 H 0.40361 0.33444 0.02815 0.0
H1014 H 0.09482 0.51724 0.47343 0.0
H1015 H 0.12197 0.51656 0.43548 0.0
H1016 H 0.12776 0.47336 0.50705 0.0
H1017 H 0.09997 0.47357 0.54519 0.0
H1018 H 0.17073 0.50827 0.47416 0.0
H1019 H 0.09669 0.45035 0.44523 0.0
H1020 H 0.05605 0.43351 0.43274 0.0
H1021 H 0.07124 0.47604 0.34468 0.0
H1022 H 0.11197 0.4934 0.35699 0.0
H1023 H 0.22417 0.48984 0.32971 0.0
H1024 H 0.20148 0.48425 0.38159 0.0
H1025 H 0.17114 0.51593 0.3293 0.0
H1026 H 0.19342 0.52141 0.27808 0.0
H1027 H 0.1397 0.47927 0.35865 0.0
H1028 H 0.21254 0.5404 0.39206 0.0
H1029 H 0.25335 0.55864 0.40442 0.0
H1030 H 0.24073 0.51093 0.48306 0.0
H1031 H 0.19984 0.49227 0.47086 0.0
C1032 C 0.1018 0.50756 0.48122 0.0
C1033 C 0.09484 0.49509 0.51203 0.0
C1034 C 0.11747 0.50733 0.4596 0.0
C1035 C 0.12662 0.4947 0.46827 0.0
C1036 C 0.12083 0.48319 0.49994 0.0
C1037 C 0.10498 0.48335 0.52167 0.0
C1038 C 0.1408 0.4925 0.44263 0.0
C1039 C 0.16393 0.50152 0.44912 0.0
C1040 C 0.13189 0.48383 0.40995 0.0
C1041 C 0.1074 0.47327 0.40219 0.0
C1042 C 0.09137 0.45622 0.42336 0.0
C1043 C 0.06831 0.44657 0.41629 0.0
C1044 C 0.06107 0.45372 0.38797 0.0
C1045 C 0.07687 0.47052 0.36662 0.0
C1046 C 0.09995 0.48026 0.37361 0.0
C1047 C 0.21272 0.49568 0.32954 0.0
C1048 C 0.21027 0.50572 0.29967 0.0
C1049 C 0.19981 0.4925 0.35912 0.0
C1050 C 0.18451 0.49958 0.35927 0.0
C1051 C 0.18258 0.51008 0.3297 0.0
C1052 C 0.1953 0.51314 0.30036 0.0
C1053 C 0.1699 0.49588 0.3895 0.0
C1054 C 0.14654 0.48563 0.38388 0.0
C1055 C 0.17867 0.5035 0.4228 0.0
C1056 C 0.20319 0.5148 0.43026 0.0
C1057 C 0.21849 0.53372 0.41181 0.0
C1058 C 0.24163 0.54415 0.41882 0.0
C1059 C 0.24963 0.53591 0.44443 0.0
C1060 C 0.23451 0.51727 0.46318 0.0
C1061 C 0.21135 0.50676 0.45625 0.0
H1062 H 0.26755 0.544 0.44981 0.0
H1063 H 0.04321 0.44623 0.38254 0.0
H1064 H 0.54416 0.05358 0.94949 0.0
H1065 H 0.57435 0.08391 0.91713 0.0
H1066 H 0.61534 0.05575 0.9273 0.0
H1067 H 0.5854 0.02558 0.96072 0.0
H1068 H 0.63924 0.0959 0.9446 0.0
H1069 H 0.59238 0.05945 0.8481 0.0
H1070 H 0.5576 0.04118 0.81315 0.0
H1071 H 0.55399 0.09799 0.81144 0.0
H1072 H 0.58865 0.11655 0.84671 0.0
H1073 H 0.72091 0.16305 0.81537 0.0
H1074 H 0.69291 0.1352 0.85456 0.0
H1075 H 0.65641 0.16798 0.85497 0.0
H1076 H 0.68447 0.19589 0.81575 0.0
H1077 H 0.63055 0.12628 0.83335 0.0
H1078 H 0.67979 0.16297 0.9283 0.0
H1079 H 0.71577 0.18052 0.96039 0.0
H1080 H 0.71598 0.12194 0.96196 0.0
H1081 H 0.68014 0.1041 0.92945 0.0
C1082 C 0.55939 0.05356 0.94432 0.0
C1083 C 0.56235 0.03714 0.95796 0.0
C1084 C 0.57669 0.07097 0.92568 0.0
C1085 C 0.59721 0.07219 0.9197 0.0
C1086 C 0.59975 0.05527 0.93175 0.0
C1087 C 0.58251 0.03792 0.95064 0.0
C1088 C 0.61644 0.09171 0.90288 0.0
C1089 C 0.6374 0.10235 0.92001 0.0
C1090 C 0.61399 0.1005 0.87121 0.0
C1091 C 0.59299 0.08931 0.85036 0.0
C1092 C 0.58406 0.06798 0.84055 0.0
C1093 C 0.5644 0.05759 0.8206 0.0
C1094 C 0.55356 0.0684 0.81016 0.0
C1095 C 0.56239 0.08963 0.81959 0.0
C1096 C 0.58206 0.1001 0.83952 0.0
C1097 C 0.70743 0.16475 0.82503 0.0
C1098 C 0.7049 0.18166 0.81275 0.0
C1099 C 0.69138 0.1488 0.84729 0.0
C1100 C 0.67248 0.14944 0.85753 0.0
C1101 C 0.67085 0.16717 0.84734 0.0
C1102 C 0.68703 0.18325 0.8253 0.0
C1103 C 0.65323 0.13043 0.87511 0.0
C1104 C 0.63231 0.11986 0.85804 0.0
C1105 C 0.65582 0.12157 0.90654 0.0
C1106 C 0.67736 0.13225 0.92616 0.0
C1107 C 0.6876 0.15387 0.93522 0.0
C1108 C 0.70795 0.16387 0.95355 0.0
C1109 C 0.71818 0.15237 0.96314 0.0
C1110 C 0.70804 0.13083 0.95449 0.0
C1111 C 0.68769 0.12077 0.93615 0.0
H1112 H 0.73394 0.16013 0.97733 0.0
H1113 H 0.53835 0.06033 0.79469 0.0
H1114 H 0.53766 0.57249 0.36463 0.0
H1115 H 0.54172 0.6073 0.3513 0.0
H1116 H 0.54152 0.61788 0.4603 0.0
H1117 H 0.53687 0.58292 0.47349 0.0
H1118 H 0.51687 0.62959 0.43037 0.0
H1119 H 0.59026 0.64433 0.41033 0.0
H1120 H 0.62054 0.64022 0.38728 0.0
H1121 H 0.60426 0.65084 0.28414 0.0
H1122 H 0.57333 0.65422 0.30633 0.0
H1123 H 0.57622 0.74095 0.32234 0.0
H1124 H 0.57826 0.7157 0.36302 0.0
H1125 H 0.50621 0.67225 0.3532 0.0
H1126 H 0.50417 0.69807 0.31461 0.0
H1127 H 0.57251 0.68129 0.34479 0.0
H1128 H 0.48356 0.63277 0.4112 0.0
H1129 H 0.45743 0.64014 0.44107 0.0
H1130 H 0.5124 0.70342 0.4643 0.0
H1131 H 0.53894 0.69634 0.43503 0.0
C1132 C 0.53869 0.58237 0.38565 0.0
C1133 C 0.5369 0.57499 0.42004 0.0
C1134 C 0.54105 0.60228 0.37809 0.0
C1135 C 0.54218 0.61541 0.40482 0.0
C1136 C 0.54059 0.60808 0.4392 0.0
C1137 C 0.53792 0.58808 0.44672 0.0
C1138 C 0.54444 0.6365 0.39687 0.0
C1139 C 0.52912 0.64097 0.41179 0.0
C1140 C 0.56099 0.65182 0.37373 0.0
C1141 C 0.5793 0.64934 0.36004 0.0
C1142 C 0.59291 0.64549 0.38267 0.0
C1143 C 0.61019 0.64326 0.36973 0.0
C1144 C 0.61421 0.6451 0.33421 0.0
C1145 C 0.60097 0.64919 0.31157 0.0
C1146 C 0.58355 0.65125 0.32432 0.0
C1147 C 0.56072 0.72657 0.33067 0.0
C1148 C 0.54 0.72154 0.31591 0.0
C1149 C 0.56189 0.71196 0.35347 0.0
C1150 C 0.54243 0.69187 0.36119 0.0
C1151 C 0.52146 0.68771 0.34852 0.0
C1152 C 0.52024 0.70254 0.32644 0.0
C1153 C 0.54438 0.67412 0.3773 0.0
C1154 C 0.56047 0.67017 0.36383 0.0
C1155 C 0.52911 0.65973 0.40278 0.0
C1156 C 0.51324 0.66404 0.42069 0.0
C1157 C 0.49011 0.64821 0.42285 0.0
C1158 C 0.47522 0.65236 0.43964 0.0
C1159 C 0.48324 0.67225 0.4545 0.0
C1160 C 0.50619 0.68803 0.45267 0.0
C1161 C 0.52117 0.68398 0.43593 0.0
H1162 H 0.47168 0.67543 0.46747 0.0
H1163 H 0.62766 0.64347 0.32423 0.0
H1164 H 0.47957 0.08762 0.48079 0.0
H1165 H 0.48051 0.1148 0.51681 0.0
H1166 H 0.50899 0.09638 0.60052 0.0
H1167 H 0.50882 0.06966 0.56481 0.0
H1168 H 0.47328 0.10014 0.62138 0.0
H1169 H 0.54229 0.14074 0.55646 0.0
H1170 H 0.56524 0.15429 0.50338 0.0
H1171 H 0.52893 0.18432 0.46978 0.0
H1172 H 0.50553 0.17069 0.52248 0.0
H1173 H 0.53135 0.20759 0.70808 0.0
H1174 H 0.53153 0.18529 0.66224 0.0
H1175 H 0.46023 0.15845 0.64615 0.0
H1176 H 0.46001 0.18083 0.69173 0.0
H1177 H 0.51748 0.17798 0.59046 0.0
H1178 H 0.4378 0.10315 0.64509 0.0
H1179 H 0.41664 0.08991 0.69991 0.0
H1180 H 0.47783 0.1287 0.75694 0.0
H1181 H 0.49937 0.14186 0.70253 0.0
C1182 C 0.48625 0.08934 0.50668 0.0
C1183 C 0.49406 0.07612 0.51954 0.0
C1184 C 0.4867 0.10494 0.52732 0.0
C1185 C 0.49483 0.10763 0.56135 0.0
C1186 C 0.50251 0.09449 0.57438 0.0
C1187 C 0.5023 0.07907 0.55374 0.0
C1188 C 0.49525 0.12401 0.5836 0.0
C1189 C 0.48284 0.11713 0.61447 0.0
C1190 C 0.5079 0.14621 0.57482 0.0
C1191 C 0.52201 0.1545 0.54322 0.0
C1192 C 0.53907 0.15008 0.53761 0.0
C1193 C 0.55219 0.1578 0.50763 0.0
C1194 C 0.5485 0.17011 0.48318 0.0
C1195 C 0.53174 0.17476 0.48872 0.0
C1196 C 0.51856 0.16705 0.51865 0.0
C1197 C 0.51586 0.19731 0.69413 0.0
C1198 C 0.49567 0.19593 0.70343 0.0
C1199 C 0.51599 0.18465 0.66792 0.0
C1200 C 0.49587 0.17012 0.651 0.0
C1201 C 0.47593 0.16955 0.65895 0.0
C1202 C 0.47585 0.18242 0.68484 0.0
C1203 C 0.49527 0.15403 0.62789 0.0
C1204 C 0.50768 0.16095 0.59703 0.0
C1205 C 0.48281 0.13185 0.6368 0.0
C1206 C 0.47012 0.12367 0.66972 0.0
C1207 C 0.44673 0.10878 0.66935 0.0
C1208 C 0.43468 0.10128 0.70034 0.0
C1209 C 0.44587 0.10852 0.73188 0.0
C1210 C 0.46916 0.12317 0.7325 0.0
C1211 C 0.48129 0.13066 0.70158 0.0
H1212 H 0.4365 0.10272 0.75584 0.0
H1213 H 0.55868 0.17608 0.45998 0.0
H1214 H 0.4401 0.46556 0.09533 0.0
H1215 H 0.40793 0.46927 0.10435 0.0
H1216 H 0.42575 0.51056 0.01337 0.0
H1217 H 0.45874 0.50735 0.00469 0.0
H1218 H 0.41872 0.52852 0.06364 0.0
H1219 H 0.37528 0.46008 0.01725 0.0
H1220 H 0.36232 0.42225 0.00687 0.0
H1221 H 0.34149 0.40561 0.11274 0.0
H1222 H 0.35462 0.44337 0.12394 0.0
H1223 H 0.30066 0.49396 0.14985 0.0
H1224 H 0.32164 0.49025 0.10267 0.0
H1225 H 0.38333 0.52549 0.16125 0.0
H1226 H 0.36271 0.52948 0.20749 0.0
H1227 H 0.34356 0.46961 0.10439 0.0
H1228 H 0.42834 0.55322 0.11268 0.0
H1229 H 0.44027 0.59117 0.11869 0.0
H1230 H 0.37603 0.57777 0.08004 0.0
H1231 H 0.36382 0.53981 0.07317 0.0
C1232 C 0.43705 0.47515 0.07679 0.0
C1233 C 0.45211 0.48626 0.04938 0.0
C1234 C 0.41842 0.4771 0.08182 0.0
C1235 C 0.41412 0.48998 0.05932 0.0
C1236 C 0.42862 0.50044 0.03101 0.0
C1237 C 0.44742 0.49854 0.02599 0.0
C1238 C 0.3961 0.49425 0.06818 0.0
C1239 C 0.40216 0.51564 0.07205 0.0
C1240 C 0.37412 0.47747 0.07796 0.0
C1241 C 0.36598 0.45463 0.07143 0.0
C1242 C 0.36804 0.44838 0.03838 0.0
C1243 C 0.36065 0.42694 0.03234 0.0
C1244 C 0.35109 0.41154 0.05913 0.0
C1245 C 0.34886 0.41755 0.092 0.0
C1246 C 0.35623 0.43897 0.09819 0.0
C1247 C 0.31876 0.50121 0.15215 0.0
C1248 C 0.33005 0.51182 0.18238 0.0
C1249 C 0.33071 0.49904 0.12534 0.0
C1250 C 0.35414 0.50779 0.1282 0.0
C1251 C 0.36539 0.51895 0.15799 0.0
C1252 C 0.35353 0.52102 0.18464 0.0
C1253 C 0.36688 0.50381 0.10208 0.0
C1254 C 0.35985 0.48249 0.095 0.0
C1255 C 0.38777 0.52066 0.08866 0.0
C1256 C 0.39513 0.54359 0.09249 0.0
C1257 C 0.4168 0.55837 0.10519 0.0
C1258 C 0.4236 0.5799 0.10881 0.0
C1259 C 0.40891 0.58687 0.0998 0.0
C1260 C 0.38738 0.57234 0.08709 0.0
C1261 C 0.3805 0.5508 0.08336 0.0
H1262 H 0.41421 0.60354 0.10264 0.0
H1263 H 0.34539 0.39495 0.05441 0.0
H1264 H 0.94981 0.44493 0.52197 0.0
H1265 H 0.91283 0.41419 0.53913 0.0
H1266 H 0.94436 0.37931 0.57297 0.0
H1267 H 0.98109 0.40964 0.55537 0.0
H1268 H 0.9047 0.35236 0.54633 0.0
H1269 H 0.93385 0.40846 0.62861 0.0
H1270 H 0.94784 0.44441 0.65144 0.0
H1271 H 0.88563 0.43987 0.6227 0.0
H1272 H 0.87137 0.40398 0.59914 0.0
H1273 H 0.8439 0.29205 0.69648 0.0
H1274 H 0.87025 0.31575 0.65137 0.0
H1275 H 0.8223 0.33287 0.61703 0.0
H1276 H 0.79571 0.30884 0.66192 0.0
H1277 H 0.86517 0.36801 0.63517 0.0
H1278 H 0.83471 0.30694 0.56329 0.0
H1279 H 0.82224 0.2697 0.54913 0.0
H1280 H 0.88946 0.2829 0.56625 0.0
H1281 H 0.90228 0.32014 0.58103 0.0
C1282 C 0.94877 0.43048 0.53215 0.0
C1283 C 0.96844 0.4298 0.53754 0.0
C1284 C 0.92763 0.41298 0.54224 0.0
C1285 C 0.92583 0.39455 0.55798 0.0
C1286 C 0.94526 0.39332 0.56102 0.0
C1287 C 0.96631 0.41074 0.551 0.0
C1288 C 0.9043 0.37726 0.57394 0.0
C1289 C 0.89605 0.3558 0.56573 0.0
C1290 C 0.89277 0.38168 0.59901 0.0
C1291 C 0.90166 0.40365 0.61169 0.0
C1292 C 0.92327 0.41524 0.62671 0.0
C1293 C 0.93121 0.43557 0.63989 0.0
C1294 C 0.9176 0.44437 0.63861 0.0
C1295 C 0.89613 0.43299 0.62372 0.0
C1296 C 0.88812 0.41267 0.6104 0.0
C1297 C 0.83871 0.30032 0.67851 0.0
C1298 C 0.81774 0.29851 0.68241 0.0
C1299 C 0.85376 0.31386 0.65279 0.0
C1300 C 0.84823 0.32606 0.63079 0.0
C1301 C 0.82685 0.32352 0.63362 0.0
C1302 C 0.81162 0.30969 0.65904 0.0
C1303 C 0.8658 0.34317 0.60789 0.0
C1304 C 0.87341 0.36461 0.61502 0.0
C1305 C 0.87704 0.33869 0.58252 0.0
C1306 C 0.86943 0.31632 0.57346 0.0
C1307 C 0.8468 0.30187 0.56429 0.0
C1308 C 0.83968 0.28076 0.55611 0.0
C1309 C 0.85504 0.27393 0.55684 0.0
C1310 C 0.87758 0.28821 0.56569 0.0
C1311 C 0.88479 0.30933 0.57392 0.0
H1312 H 0.84949 0.25758 0.5505 0.0
H1313 H 0.92366 0.45995 0.64933 0.0
H1314 H 0.52512 0.95975 0.12736 0.0
H1315 H 0.53179 0.93096 0.14418 0.0
H1316 H 0.59968 0.96881 0.1045 0.0
H1317 H 0.59311 0.99774 0.08781 0.0
H1318 H 0.57419 0.92395 0.08389 0.0
H1319 H 0.59565 0.96693 0.18537 0.0
H1320 H 0.58977 0.98627 0.23096 0.0
H1321 H 0.53124 0.92743 0.26655 0.0
H1322 H 0.53657 0.90778 0.22082 0.0
H1323 H 0.59 0.85571 0.23231 0.0
H1324 H 0.60018 0.88896 0.20042 0.0
H1325 H 0.54174 0.85392 0.13517 0.0
H1326 H 0.53151 0.82069 0.1671 0.0
H1327 H 0.56969 0.90128 0.20706 0.0
H1328 H 0.5494 0.88507 0.0613 0.0
H1329 H 0.5544 0.86545 0.01518 0.0
H1330 H 0.61162 0.87071 0.06865 0.0
H1331 H 0.60718 0.89063 0.11484 0.0
C1332 C 0.54145 0.96191 0.12228 0.0
C1333 C 0.55863 0.98102 0.10649 0.0
C1334 C 0.54525 0.9455 0.13189 0.0
C1335 C 0.56622 0.94779 0.12555 0.0
C1336 C 0.58338 0.96676 0.10955 0.0
C1337 C 0.57969 0.98333 0.10038 0.0
C1338 C 0.5702 0.93043 0.13627 0.0
C1339 C 0.57337 0.91901 0.1108 0.0
C1340 C 0.56936 0.92423 0.17141 0.0
C1341 C 0.56638 0.93592 0.19942 0.0
C1342 C 0.58143 0.95814 0.20275 0.0
C1343 C 0.57821 0.96916 0.22863 0.0
C1344 C 0.56007 0.95812 0.25148 0.0
C1345 C 0.54524 0.93598 0.24873 0.0
C1346 C 0.54837 0.92489 0.22286 0.0
C1347 C 0.58004 0.85494 0.20996 0.0
C1348 C 0.55988 0.83569 0.20233 0.0
C1349 C 0.58574 0.87397 0.19196 0.0
C1350 C 0.57153 0.87398 0.16579 0.0
C1351 C 0.55302 0.8543 0.15517 0.0
C1352 C 0.54726 0.83524 0.17328 0.0
C1353 C 0.57334 0.89442 0.15465 0.0
C1354 C 0.57097 0.90635 0.18012 0.0
C1355 C 0.57486 0.90098 0.11955 0.0
C1356 C 0.57784 0.88922 0.09168 0.0
C1357 C 0.56313 0.88214 0.06314 0.0
C1358 C 0.56584 0.87094 0.037 0.0
C1359 C 0.58328 0.86679 0.03903 0.0
C1360 C 0.59807 0.87387 0.06717 0.0
C1361 C 0.59543 0.88508 0.09338 0.0
H1362 H 0.58535 0.85811 0.01876 0.0
H1363 H 0.55753 0.96671 0.27134 0.0
H1364 H 0.54402 0.49354 0.57334 0.0
H1365 H 0.57507 0.49391 0.60451 0.0
H1366 H 0.61809 0.56173 0.58222 0.0
H1367 H 0.58735 0.56146 0.55024 0.0
H1368 H 0.63944 0.54256 0.56728 0.0
H1369 H 0.59644 0.53972 0.66479 0.0
H1370 H 0.56307 0.52592 0.70225 0.0
H1371 H 0.55978 0.46589 0.71574 0.0
H1372 H 0.59282 0.47914 0.67772 0.0
H1373 H 0.72819 0.56085 0.6857 0.0
H1374 H 0.69875 0.56009 0.64904 0.0
H1375 H 0.65615 0.49179 0.66842 0.0
H1376 H 0.68542 0.49267 0.70558 0.0
H1377 H 0.63474 0.51113 0.68438 0.0
H1378 H 0.67751 0.51382 0.58658 0.0
H1379 H 0.71141 0.52791 0.55023 0.0
H1380 H 0.71562 0.58845 0.53871 0.0
H1381 H 0.6819 0.57482 0.5754 0.0
C1382 C 0.55991 0.50866 0.5757 0.0
C1383 C 0.56317 0.52749 0.55924 0.0
C1384 C 0.57768 0.50882 0.59355 0.0
C1385 C 0.59896 0.52782 0.59585 0.0
C1386 C 0.60191 0.54682 0.5807 0.0
C1387 C 0.58424 0.54666 0.56259 0.0
C1388 C 0.61844 0.52764 0.61222 0.0
C1389 C 0.63849 0.53595 0.59311 0.0
C1390 C 0.61709 0.51847 0.64554 0.0
C1391 C 0.597 0.51037 0.66807 0.0
C1392 C 0.58846 0.52349 0.67542 0.0
C1393 C 0.56962 0.51578 0.69681 0.0
C1394 C 0.55928 0.49503 0.71131 0.0
C1395 C 0.56781 0.48197 0.70452 0.0
C1396 C 0.58658 0.48956 0.683 0.0
C1397 C 0.71293 0.54555 0.68088 0.0
C1398 C 0.70911 0.52679 0.69829 0.0
C1399 C 0.69602 0.54513 0.6601 0.0
C1400 C 0.6751 0.52588 0.65607 0.0
C1401 C 0.67204 0.50685 0.67129 0.0
C1402 C 0.68885 0.50731 0.6922 0.0
C1403 C 0.65565 0.52594 0.63939 0.0
C1404 C 0.63563 0.51765 0.65849 0.0
C1405 C 0.65704 0.53514 0.60615 0.0
C1406 C 0.67729 0.54336 0.58401 0.0
C1407 C 0.68576 0.5302 0.57653 0.0
C1408 C 0.70493 0.53809 0.55581 0.0
C1409 C 0.71569 0.55908 0.54223 0.0
C1410 C 0.70728 0.57221 0.54927 0.0
C1411 C 0.68813 0.5644 0.56999 0.0
H1412 H 0.73053 0.56516 0.5262 0.0
H1413 H 0.5447 0.48909 0.72786 0.0
H1414 H 0.07343 0.57224 0.05578 0.0
H1415 H 0.10584 0.60709 0.0713 0.0
H1416 H 0.07057 0.607 0.1618 0.0
H1417 H 0.03786 0.57191 0.1463 0.0
H1418 H 0.09635 0.64863 0.12068 0.0
H1419 H 0.10452 0.5913 0.17436 0.0
H1420 H 0.1057 0.55831 0.17048 0.0
H1421 H 0.16057 0.59019 0.0983 0.0
H1422 H 0.15953 0.62331 0.10149 0.0
H1423 H 0.1743 0.71309 0.24551 0.0
H1424 H 0.14548 0.68998 0.20473 0.0
H1425 H 0.19516 0.68478 0.14779 0.0
H1426 H 0.22374 0.70651 0.19063 0.0
H1427 H 0.164 0.64773 0.16056 0.0
H1428 H 0.16191 0.70645 0.11226 0.0
H1429 H 0.16125 0.7398 0.10941 0.0
H1430 H 0.09719 0.70771 0.16123 0.0
H1431 H 0.09758 0.67423 0.16488 0.0
C1432 C 0.07235 0.5798 0.07861 0.0
C1433 C 0.05306 0.56938 0.09983 0.0
C1434 C 0.09093 0.59968 0.08748 0.0
C1435 C 0.09055 0.60958 0.11761 0.0
C1436 C 0.07108 0.59961 0.1383 0.0
C1437 C 0.05253 0.57955 0.12964 0.0
C1438 C 0.11113 0.62941 0.12903 0.0
C1439 C 0.11117 0.64857 0.12968 0.0
C1440 C 0.13075 0.6294 0.13896 0.0
C1441 C 0.13181 0.6097 0.13792 0.0
C1442 C 0.11676 0.59123 0.15755 0.0
C1443 C 0.11741 0.57252 0.15549 0.0
C1444 C 0.13315 0.57213 0.13408 0.0
C1445 C 0.14837 0.5905 0.11484 0.0
C1446 C 0.14778 0.60926 0.1168 0.0
C1447 C 0.17924 0.7075 0.22377 0.0
C1448 C 0.20119 0.71123 0.22181 0.0
C1449 C 0.16271 0.69439 0.20008 0.0
C1450 C 0.16794 0.68538 0.17301 0.0
C1451 C 0.19055 0.69127 0.16863 0.0
C1452 C 0.20702 0.704 0.19291 0.0
C1453 C 0.14938 0.66736 0.15332 0.0
C1454 C 0.14956 0.64829 0.15106 0.0
C1455 C 0.13022 0.66769 0.14104 0.0
C1456 C 0.12985 0.68781 0.139 0.0
C1457 C 0.14775 0.70652 0.12328 0.0
C1458 C 0.14741 0.72546 0.12148 0.0
C1459 C 0.1292 0.72588 0.13517 0.0
C1460 C 0.11128 0.70736 0.15063 0.0
C1461 C 0.11153 0.68838 0.15251 0.0
H1462 H 0.12897 0.74056 0.13375 0.0
H1463 H 0.13359 0.55762 0.13244 0.0
loop_
_geom_bond_atom_site_label_1
_geom_bond_atom_site_label_2
_geom_bond_distance
_geom_bond_site_symmetry_2
_ccdc_geom_bond_type
Cu0 N1 1.999 1_454 S
Cu0 O6 1.974 1_454 S
Cu0 N11 1.985 . S
Cu0 O20 1.959 . S
N1 Cu0 1.999 1_656 S
N1 C3 1.263 . S
N1 C5 1.389 1_556 S
N2 C3 1.358 . S
N2 C4 1.400 . S
C3 N1 1.263 . S
C3 N2 1.358 . S
C3 H9 0.930 . S
C4 N2 1.400 . S
C4 C5 1.351 1_556 S
C4 H21 0.928 1_556 S
C5 N1 1.389 1_554 S
C5 C4 1.351 1_554 S
C5 H10 0.930 . S
O6 Cu0 1.974 1_656 S
O6 C16 1.282 . S
C7 O8 1.261 1_554 S
C7 O20 1.251 . S
O8 C7 1.261 1_556 S
H9 C3 0.930 . S
H10 C5 0.930 . S
N11 Cu0 1.985 . S
N11 C13 1.335 . S
N11 C14 1.390 . S
N12 C13 1.345 . S
N12 C15 1.336 . S
C13 N11 1.335 . S
C13 N12 1.345 . S
C13 H18 0.930 . S
C14 N11 1.390 . S
C14 C15 1.346 . S
C14 H19 0.930 1_554 S
C15 N12 1.336 . S
C15 C14 1.346 . S
C15 H22 0.929 . S
C16 O6 1.282 . S
C16 O17 1.216 1_655 S
O17 C16 1.216 1_455 S
H18 C13 0.930 . S
H19 C14 0.930 1_556 S
O20 Cu0 1.959 . S
O20 C7 1.251 . S
H21 C4 0.928 1_554 S
H22 C15 0.929 . S
Cu23 N24 1.999 . S
Cu23 O29 1.974 . S
Cu23 N34 1.985 1_565 S
Cu23 O43 1.959 1_565 S
N24 Cu23 1.999 . S
N24 C26 1.263 . S
N24 C28 1.389 . S
N25 C26 1.358 . S
N25 C27 1.400 . S
C26 N24 1.263 . S
C26 N25 1.358 . S
C26 H32 0.930 . S
C27 N25 1.400 . S
C27 C28 1.351 . S
C27 H44 0.930 . S
C28 N24 1.389 . S
C28 C27 1.351 . S
C28 H33 0.930 . S
O29 Cu23 1.974 . S
O29 C39 1.282 . S
C30 O31 1.261 . S
C30 O43 1.251 . S
O31 C30 1.261 . S
H32 C26 0.930 . S
H33 C28 0.930 . S
N34 Cu23 1.985 1_545 S
N34 C36 1.335 . S
N34 C37 1.390 . S
N35 C36 1.345 . S
N35 C38 1.336 . S
C36 N34 1.335 . S
C36 N35 1.345 . S
C36 H41 0.930 . S
C37 N34 1.390 . S
C37 C38 1.346 . S
C37 H42 0.930 . S
C38 N35 1.336 . S
C38 C37 1.346 . S
C38 H45 0.929 . S
C39 O29 1.282 . S
C39 O40 1.216 . S
O40 C39 1.216 . S
H41 C36 0.930 . S
H42 C37 0.930 . S
O43 Cu23 1.959 1_545 S
O43 C30 1.251 . S
H44 C27 0.930 . S
H45 C38 0.929 . S
Cu46 N47 1.999 1_554 S
Cu46 O52 1.974 1_554 S
Cu46 N57 1.985 . S
Cu46 O66 1.959 . S
N47 Cu46 1.999 1_556 S
N47 C49 1.263 . S
N47 C51 1.389 . S
N48 C49 1.358 . S
N48 C50 1.400 . S
C49 N47 1.263 . S
C49 N48 1.358 . S
C49 H55 0.930 . S
C50 N48 1.400 . S
C50 C51 1.351 . S
C50 H67 0.930 . S
C51 N47 1.389 . S
C51 C50 1.351 . S
C51 H56 0.930 . S
O52 Cu46 1.974 1_556 S
O52 C62 1.282 1_556 S
C53 O54 1.261 . S
C53 O66 1.251 . S
O54 C53 1.261 . S
H55 C49 0.930 . S
H56 C51 0.930 . S
N57 Cu46 1.985 . S
N57 C59 1.335 . S
N57 C60 1.390 . S
N58 C59 1.345 . S
N58 C61 1.336 . S
C59 N57 1.335 . S
C59 N58 1.345 . S
C59 H64 0.930 . S
C60 N57 1.390 . S
C60 C61 1.346 . S
C60 H65 0.930 . S
C61 N58 1.336 . S
C61 C60 1.346 . S
C61 H68 0.929 . S
C62 O52 1.282 1_554 S
C62 O63 1.216 . S
O63 C62 1.216 . S
H64 C59 0.930 . S
H65 C60 0.930 . S
O66 Cu46 1.959 . S
O66 C53 1.251 . S
H67 C50 0.930 . S
H68 C61 0.929 . S
Cu69 N70 1.999 1_655 S
Cu69 O75 1.974 1_655 S
Cu69 N80 1.985 . S
Cu69 O89 1.959 . S
N70 Cu69 1.999 1_455 S
N70 C72 1.263 . S
N70 C74 1.393 1_455 S
N71 C72 1.358 . S
N71 C73 1.400 . S
C72 N70 1.263 . S
C72 N71 1.358 . S
C72 H78 0.930 . S
C73 N71 1.400 . S
C73 C74 1.307 1_455 S
C73 H90 0.930 . S
C74 N70 1.393 1_655 S
C74 C73 1.307 1_655 S
C74 H79 0.965 . S
O75 Cu69 1.974 1_455 S
O75 C85 1.282 . S
C76 O77 1.261 . S
C76 O89 1.251 . S
O77 C76 1.261 . S
H78 C72 0.930 . S
H79 C74 0.965 . S
N80 Cu69 1.985 . S
N80 C82 1.335 . S
N80 C83 1.390 . S
N81 C82 1.345 . S
N81 C84 1.336 . S
C82 N80 1.335 . S
C82 N81 1.345 . S
C82 H87 0.930 . S
C83 N80 1.390 . S
C83 C84 1.346 . S
C83 H88 0.930 1_655 S
C84 N81 1.336 . S
C84 C83 1.346 . S
C84 H91 0.929 . S
C85 O75 1.282 . S
C85 O86 1.216 . S
O86 C85 1.216 . S
H87 C82 0.930 . S
H88 C83 0.930 1_455 S
O89 Cu69 1.959 . S
O89 C76 1.251 . S
H90 C73 0.930 . S
H91 C84 0.929 . S
Cu92 N93 1.999 . S
Cu92 O98 1.974 . S
Cu92 N103 1.985 1_545 S
Cu92 O112 1.959 1_545 S
N93 Cu92 1.999 . S
N93 C95 1.263 1_554 S
N93 C97 1.389 . S
N94 C95 1.358 . S
N94 C96 1.400 1_556 S
C95 N93 1.263 1_556 S
C95 N94 1.358 . S
C95 H101 0.930 . S
C96 N94 1.400 1_554 S
C96 C97 1.351 . S
C96 H113 0.930 . S
C97 N93 1.389 . S
C97 C96 1.351 . S
C97 H102 0.930 . S
O98 Cu92 1.974 . S
O98 C108 1.282 1_554 S
C99 O100 1.261 . S
C99 O112 1.251 . S
O100 C99 1.261 . S
H101 C95 0.930 . S
H102 C97 0.930 . S
N103 Cu92 1.985 1_565 S
N103 C105 1.335 . S
N103 C106 1.390 . S
N104 C105 1.345 . S
N104 C107 1.336 . S
C105 N103 1.335 . S
C105 N104 1.345 . S
C105 H110 0.930 . S
C106 N103 1.390 . S
C106 C107 1.346 . S
C106 H111 0.911 1_565 S
C107 N104 1.336 . S
C107 C106 1.346 . S
C107 H114 0.929 . S
C108 O98 1.282 1_556 S
C108 O109 1.216 . S
O109 C108 1.216 . S
H110 C105 0.930 . S
H111 C106 0.911 1_545 S
O112 Cu92 1.959 1_565 S
O112 C99 1.251 . S
H113 C96 0.930 . S
H114 C107 0.929 . S
Cu115 N116 1.999 . S
Cu115 O121 1.974 . S
Cu115 N126 1.985 . S
Cu115 O135 1.959 . S
N116 Cu115 1.999 . S
N116 C118 1.263 . S
N116 C120 1.389 . S
N117 C118 1.358 . S
N117 C119 1.400 . S
C118 N116 1.263 . S
C118 N117 1.358 . S
C118 H124 0.930 . S
C119 N117 1.400 . S
C119 C120 1.351 . S
C119 H136 0.930 . S
C120 N116 1.389 . S
C120 C119 1.351 . S
C120 H125 0.930 . S
O121 Cu115 1.974 . S
O121 C131 1.282 . S
C122 O123 1.261 . S
C122 O135 1.251 . S
O123 C122 1.261 . S
H124 C118 0.930 . S
H125 C120 0.930 . S
N126 Cu115 1.985 . S
N126 C128 1.335 . S
N126 C129 1.390 . S
N127 C128 1.345 . S
N127 C130 1.336 . S
C128 N126 1.335 . S
C128 N127 1.345 . S
C128 H133 0.930 . S
C129 N126 1.390 . S
C129 C130 1.346 . S
C129 H134 0.930 . S
C130 N127 1.336 . S
C130 C129 1.346 . S
C130 H137 0.929 . S
C131 O121 1.282 . S
C131 O132 1.216 . S
O132 C131 1.216 . S
H133 C128 0.930 . S
H134 C129 0.930 . S
O135 Cu115 1.959 . S
O135 C122 1.251 . S
H136 C119 0.930 . S
H137 C130 0.929 . S
H138 C146 0.930 . S
H139 C149 0.930 . S
H140 C151 0.930 . S
H141 C152 0.970 . S
H142 C152 0.970 . S
H143 C154 0.930 . S
H144 C156 0.930 . S
H145 C158 0.930 . S
C146 H138 0.930 . S
C146 C147 1.382 . S
C146 C148 1.426 . S
C147 C146 1.382 . S
C147 C151 1.389 . S
C148 C146 1.426 . S
C148 C149 1.375 . S
C148 C152 1.532 . S
C149 H139 0.930 . S
C149 C148 1.375 . S
C149 C150 1.416 . S
C150 C149 1.416 . S
C150 C151 1.371 . S
C151 H140 0.930 . S
C151 C147 1.389 . S
C151 C150 1.371 . S
C152 H141 0.970 . S
C152 H142 0.970 . S
C152 C148 1.532 . S
C152 C153 1.499 . S
C153 C152 1.499 . S
C153 C154 1.370 . S
C153 C158 1.415 . S
C154 H143 0.930 . S
C154 C153 1.370 . S
C154 C155 1.407 . S
C155 C154 1.407 . S
C155 C156 1.365 . S
C156 H144 0.930 . S
C156 C155 1.365 . S
C156 C157 1.393 . S
C157 C156 1.393 . S
C157 C158 1.387 . S
C158 H145 0.930 . S
C158 C153 1.415 . S
C158 C157 1.387 . S
H159 C167 0.930 . S
H160 C170 0.930 . S
H161 C172 0.930 . S
H162 C173 0.970 . S
H163 C173 0.970 . S
H164 C175 0.930 . S
H165 C177 0.930 . S
H166 C179 0.930 . S
C167 H159 0.930 . S
C167 C168 1.382 . S
C167 C169 1.426 . S
C168 C167 1.382 . S
C168 C172 1.389 . S
C169 C167 1.426 . S
C169 C170 1.375 . S
C169 C173 1.532 . S
C170 H160 0.930 . S
C170 C169 1.375 . S
C170 C171 1.416 . S
C171 C170 1.416 . S
C171 C172 1.371 . S
C172 H161 0.930 . S
C172 C168 1.389 . S
C172 C171 1.371 . S
C173 H162 0.970 . S
C173 H163 0.970 . S
C173 C169 1.532 . S
C173 C174 1.499 . S
C174 C173 1.499 . S
C174 C175 1.370 . S
C174 C179 1.415 . S
C175 H164 0.930 . S
C175 C174 1.370 . S
C175 C176 1.407 . S
C176 C175 1.407 . S
C176 C177 1.365 . S
C177 H165 0.930 . S
C177 C176 1.365 . S
C177 C178 1.393 . S
C178 C177 1.393 . S
C178 C179 1.387 . S
C179 H166 0.930 . S
C179 C174 1.415 . S
C179 C178 1.387 . S
H180 C188 0.930 . S
H181 C191 0.930 . S
H182 C193 0.930 . S
H183 C194 0.970 . S
H184 C194 0.970 . S
H185 C196 0.930 . S
H186 C198 0.930 . S
H187 C200 0.930 . S
C188 H180 0.930 . S
C188 C189 1.382 . S
C188 C190 1.426 . S
C189 C188 1.382 . S
C189 C193 1.389 . S
C190 C188 1.426 . S
C190 C191 1.375 . S
C190 C194 1.532 . S
C191 H181 0.930 . S
C191 C190 1.375 . S
C191 C192 1.416 . S
C192 C191 1.416 . S
C192 C193 1.371 . S
C193 H182 0.930 . S
C193 C189 1.389 . S
C193 C192 1.371 . S
C194 H183 0.970 . S
C194 H184 0.970 . S
C194 C190 1.532 . S
C194 C195 1.499 . S
C195 C194 1.499 . S
C195 C196 1.370 . S
C195 C200 1.415 . S
C196 H185 0.930 . S
C196 C195 1.370 . S
C196 C197 1.407 . S
C197 C196 1.407 . S
C197 C198 1.365 . S
C198 H186 0.930 . S
C198 C197 1.365 . S
C198 C199 1.393 . S
C199 C198 1.393 . S
C199 C200 1.387 . S
C200 H187 0.930 . S
C200 C195 1.415 . S
C200 C199 1.387 . S
H201 C209 0.930 . S
H202 C212 0.930 . S
H203 C214 0.930 . S
H204 C215 0.970 . S
H205 C215 0.970 . S
H206 C217 0.930 . S
H207 C219 0.930 . S
H208 C221 0.930 . S
C209 H201 0.930 . S
C209 C210 1.382 . S
C209 C211 1.426 . S
C210 C209 1.382 . S
C210 C214 1.389 . S
C211 C209 1.426 . S
C211 C212 1.375 . S
C211 C215 1.532 . S
C212 H202 0.930 . S
C212 C211 1.375 . S
C212 C213 1.416 . S
C213 C212 1.416 . S
C213 C214 1.371 . S
C214 H203 0.930 . S
C214 C210 1.389 . S
C214 C213 1.371 . S
C215 H204 0.970 . S
C215 H205 0.970 . S
C215 C211 1.532 . S
C215 C216 1.499 . S
C216 C215 1.499 . S
C216 C217 1.370 . S
C216 C221 1.415 . S
C217 H206 0.930 . S
C217 C216 1.370 . S
C217 C218 1.407 . S
C218 C217 1.407 . S
C218 C219 1.365 . S
C219 H207 0.930 . S
C219 C218 1.365 . S
C219 C220 1.393 . S
C220 C219 1.393 . S
C220 C221 1.387 . S
C221 H208 0.930 . S
C221 C216 1.415 . S
C221 C220 1.387 . S
H222 C230 0.930 . S
H223 C233 0.930 . S
H224 C235 0.930 . S
H225 C236 0.970 . S
H226 C236 0.970 . S
H227 C238 0.930 . S
H228 C240 0.930 . S
H229 C242 0.930 . S
C230 H222 0.930 . S
C230 C231 1.382 . S
C230 C232 1.426 . S
C231 C230 1.382 . S
C231 C235 1.389 . S
C232 C230 1.426 . S
C232 C233 1.375 . S
C232 C236 1.532 . S
C233 H223 0.930 . S
C233 C232 1.375 . S
C233 C234 1.416 . S
C234 C233 1.416 . S
C234 C235 1.371 . S
C235 H224 0.930 . S
C235 C231 1.389 . S
C235 C234 1.371 . S
C236 H225 0.970 . S
C236 H226 0.970 . S
C236 C232 1.532 . S
C236 C237 1.499 . S
C237 C236 1.499 . S
C237 C238 1.370 . S
C237 C242 1.415 . S
C238 H227 0.930 . S
C238 C237 1.370 . S
C238 C239 1.407 . S
C239 C238 1.407 . S
C239 C240 1.365 . S
C240 H228 0.930 . S
C240 C239 1.365 . S
C240 C241 1.393 . S
C241 C240 1.393 . S
C241 C242 1.387 . S
C242 H229 0.930 . S
C242 C237 1.415 . S
C242 C241 1.387 . S
H243 C251 0.930 . S
H244 C254 0.930 . S
H245 C256 0.930 . S
H246 C257 0.970 . S
H247 C257 0.970 . S
H248 C259 0.930 . S
H249 C261 0.930 . S
H250 C263 0.930 . S
C251 H243 0.930 . S
C251 C252 1.382 . S
C251 C253 1.426 . S
C252 C251 1.382 . S
C252 C256 1.389 . S
C253 C251 1.426 . S
C253 C254 1.375 . S
C253 C257 1.532 . S
C254 H244 0.930 . S
C254 C253 1.375 . S
C254 C255 1.416 . S
C255 C254 1.416 . S
C255 C256 1.371 . S
C256 H245 0.930 . S
C256 C252 1.389 . S
C256 C255 1.371 . S
C257 H246 0.970 . S
C257 H247 0.970 . S
C257 C253 1.532 . S
C257 C258 1.499 . S
C258 C257 1.499 . S
C258 C259 1.370 . S
C258 C263 1.415 . S
C259 H248 0.930 . S
C259 C258 1.370 . S
C259 C260 1.407 . S
C260 C259 1.407 . S
C260 C261 1.365 . S
C261 H249 0.930 . S
C261 C260 1.365 . S
C261 C262 1.393 . S
C262 C261 1.393 . S
C262 C263 1.387 . S
C263 H250 0.930 . S
C263 C258 1.415 . S
C263 C262 1.387 . S
H264 C282 0.951 . S
H265 C284 0.951 . S
H266 C286 0.950 . S
H267 C287 0.950 . S
H268 C289 0.950 . S
H269 C292 0.950 . S
H270 C293 0.950 . S
H271 C295 0.950 . S
H272 C296 0.950 . S
H273 C297 0.951 . S
H274 C299 0.951 . S
H275 C301 0.950 . S
H276 C302 0.950 . S
H277 C304 0.950 . S
H278 C307 0.950 . S
H279 C308 0.950 . S
H280 C310 0.950 . S
H281 C311 0.950 . S
C282 H264 0.951 . S
C282 C283 1.366 . S
C282 C284 1.388 . S
C283 C282 1.366 . S
C283 C287 1.385 . S
C284 H265 0.951 . S
C284 C282 1.388 . S
C284 C285 1.366 . S
C285 C284 1.366 . S
C285 C286 1.414 . S
C285 C288 1.499 . S
C286 H266 0.950 . S
C286 C285 1.414 . S
C286 C287 1.374 . S
C287 H267 0.950 . S
C287 C283 1.385 . S
C287 C286 1.374 . S
C288 C285 1.499 . S
C288 C289 1.373 . S
C288 C290 1.389 . S
C289 H268 0.950 . S
C289 C288 1.373 . S
C289 C305 1.377 . S
C290 C288 1.389 . S
C290 C291 1.524 . S
C290 C304 1.377 . S
C291 C290 1.524 . S
C291 C292 1.397 . S
C291 C296 1.363 . S
C292 H269 0.950 . S
C292 C291 1.397 . S
C292 C293 1.334 1_554 S
C293 H270 0.950 . S
C293 C292 1.334 1_556 S
C293 C294 1.287 . S
C294 C293 1.287 . S
C294 C295 1.524 . S
C294 H313 0.913 . S
C295 H271 0.950 . S
C295 C294 1.524 . S
C295 C296 1.415 1_556 S
C296 H272 0.950 . S
C296 C291 1.363 . S
C296 C295 1.415 1_554 S
C297 H273 0.951 . S
C297 C298 1.366 . S
C297 C299 1.388 . S
C298 C297 1.366 . S
C298 C302 1.385 . S
C299 H274 0.951 . S
C299 C297 1.388 . S
C299 C300 1.366 . S
C300 C299 1.366 . S
C300 C301 1.414 . S
C300 C303 1.499 . S
C301 H275 0.950 . S
C301 C300 1.414 . S
C301 C302 1.374 . S
C302 H276 0.950 . S
C302 C298 1.385 . S
C302 C301 1.374 . S
C303 C300 1.499 . S
C303 C304 1.373 . S
C303 C305 1.389 . S
C304 H277 0.950 . S
C304 C290 1.377 . S
C304 C303 1.373 . S
C305 C289 1.377 . S
C305 C303 1.389 . S
C305 C306 1.524 . S
C306 C305 1.524 . S
C306 C307 1.397 . S
C306 C311 1.363 . S
C307 H278 0.950 . S
C307 C306 1.397 . S
C307 C308 1.334 . S
C308 H279 0.950 . S
C308 C307 1.334 . S
C308 C309 1.287 . S
C309 C308 1.287 . S
C309 C310 1.524 . S
C309 H312 0.999 . S
C310 H280 0.950 . S
C310 C309 1.524 . S
C310 C311 1.415 . S
C311 H281 0.950 . S
C311 C306 1.363 . S
C311 C310 1.415 . S
H312 C309 0.999 . S
H313 C294 0.913 . S
H314 C332 0.951 . S
H315 C334 0.951 . S
H316 C336 0.950 . S
H317 C337 0.950 . S
H318 C339 0.950 . S
H319 C342 0.950 . S
H320 C343 0.950 . S
H321 C345 0.950 . S
H322 C346 0.950 . S
H323 C347 0.951 . S
H324 C349 0.951 . S
H325 C351 0.950 . S
H326 C352 0.950 . S
H327 C354 0.950 . S
H328 C357 0.950 . S
H329 C358 0.950 . S
H330 C360 0.950 . S
H331 C361 0.950 . S
C332 H314 0.951 . S
C332 C333 1.366 . S
C332 C334 1.388 . S
C333 C332 1.366 . S
C333 C337 1.385 . S
C334 H315 0.951 . S
C334 C332 1.388 . S
C334 C335 1.366 . S
C335 C334 1.366 . S
C335 C336 1.414 . S
C335 C338 1.499 . S
C336 H316 0.950 . S
C336 C335 1.414 . S
C336 C337 1.374 . S
C337 H317 0.950 . S
C337 C333 1.385 . S
C337 C336 1.374 . S
C338 C335 1.499 . S
C338 C339 1.373 . S
C338 C340 1.389 . S
C339 H318 0.950 . S
C339 C338 1.373 . S
C339 C355 1.377 . S
C340 C338 1.389 . S
C340 C341 1.524 . S
C340 C354 1.377 . S
C341 C340 1.524 . S
C341 C342 1.397 . S
C341 C346 1.363 . S
C342 H319 0.950 . S
C342 C341 1.397 . S
C342 C343 1.334 . S
C343 H320 0.950 . S
C343 C342 1.334 . S
C343 C344 1.287 . S
C344 C343 1.287 . S
C344 C345 1.524 . S
C344 H363 0.913 . S
C345 H321 0.950 . S
C345 C344 1.524 . S
C345 C346 1.415 . S
C346 H322 0.950 . S
C346 C341 1.363 . S
C346 C345 1.415 . S
C347 H323 0.951 . S
C347 C348 1.366 . S
C347 C349 1.388 . S
C348 C347 1.366 . S
C348 C352 1.385 . S
C349 H324 0.951 . S
C349 C347 1.388 . S
C349 C350 1.366 . S
C350 C349 1.366 . S
C350 C351 1.414 . S
C350 C353 1.499 . S
C351 H325 0.950 . S
C351 C350 1.414 . S
C351 C352 1.374 . S
C352 H326 0.950 . S
C352 C348 1.385 . S
C352 C351 1.374 . S
C353 C350 1.499 . S
C353 C354 1.373 . S
C353 C355 1.389 . S
C354 H327 0.950 . S
C354 C340 1.377 . S
C354 C353 1.373 . S
C355 C339 1.377 . S
C355 C353 1.389 . S
C355 C356 1.524 . S
C356 C355 1.524 . S
C356 C357 1.397 . S
C356 C361 1.363 . S
C357 H328 0.950 . S
C357 C356 1.397 . S
C357 C358 1.334 . S
C358 H329 0.950 . S
C358 C357 1.334 . S
C358 C359 1.287 . S
C359 C358 1.287 . S
C359 C360 1.524 . S
C359 H362 0.999 . S
C360 H330 0.950 . S
C360 C359 1.524 . S
C360 C361 1.415 . S
C361 H331 0.950 . S
C361 C356 1.363 . S
C361 C360 1.415 . S
H362 C359 0.999 . S
H363 C344 0.913 . S
H364 C382 0.951 . S
H365 C384 0.951 . S
H366 C386 0.950 . S
H367 C387 0.950 . S
H368 C389 0.950 . S
H369 C392 0.950 . S
H370 C393 0.950 . S
H371 C395 0.950 . S
H372 C396 0.950 . S
H373 C397 0.951 . S
H374 C399 0.951 . S
H375 C401 0.950 . S
H376 C402 0.950 . S
H377 C404 0.950 . S
H378 C407 0.950 . S
H379 C408 0.950 . S
H380 C410 0.950 . S
H381 C411 0.950 . S
C382 H364 0.951 . S
C382 C383 1.366 . S
C382 C384 1.388 . S
C383 C382 1.366 . S
C383 C387 1.385 . S
C384 H365 0.951 . S
C384 C382 1.388 . S
C384 C385 1.366 . S
C385 C384 1.366 . S
C385 C386 1.414 . S
C385 C388 1.499 . S
C386 H366 0.950 . S
C386 C385 1.414 . S
C386 C387 1.374 . S
C387 H367 0.950 . S
C387 C383 1.385 . S
C387 C386 1.374 . S
C388 C385 1.499 . S
C388 C389 1.373 . S
C388 C390 1.389 . S
C389 H368 0.950 . S
C389 C388 1.373 . S
C389 C405 1.377 . S
C390 C388 1.389 . S
C390 C391 1.524 . S
C390 C404 1.377 . S
C391 C390 1.524 . S
C391 C392 1.397 . S
C391 C396 1.363 . S
C392 H369 0.950 . S
C392 C391 1.397 . S
C392 C393 1.334 . S
C393 H370 0.950 . S
C393 C392 1.334 . S
C393 C394 1.287 . S
C394 C393 1.287 . S
C394 C395 1.524 . S
C394 H413 0.913 . S
C395 H371 0.950 . S
C395 C394 1.524 . S
C395 C396 1.415 . S
C396 H372 0.950 . S
C396 C391 1.363 . S
C396 C395 1.415 . S
C397 H373 0.951 . S
C397 C398 1.366 . S
C397 C399 1.388 . S
C398 C397 1.366 . S
C398 C402 1.385 . S
C399 H374 0.951 . S
C399 C397 1.388 . S
C399 C400 1.366 . S
C400 C399 1.366 . S
C400 C401 1.414 . S
C400 C403 1.499 . S
C401 H375 0.950 . S
C401 C400 1.414 . S
C401 C402 1.374 . S
C402 H376 0.950 . S
C402 C398 1.385 . S
C402 C401 1.374 . S
C403 C400 1.499 . S
C403 C404 1.373 . S
C403 C405 1.389 . S
C404 H377 0.950 . S
C404 C390 1.377 . S
C404 C403 1.373 . S
C405 C389 1.377 . S
C405 C403 1.389 . S
C405 C406 1.524 . S
C406 C405 1.524 . S
C406 C407 1.397 . S
C406 C411 1.363 . S
C407 H378 0.950 . S
C407 C406 1.397 . S
C407 C408 1.334 . S
C408 H379 0.950 . S
C408 C407 1.334 . S
C408 C409 1.287 . S
C409 C408 1.287 . S
C409 C410 1.524 . S
C409 H412 0.999 . S
C410 H380 0.950 . S
C410 C409 1.524 . S
C410 C411 1.415 . S
C411 H381 0.950 . S
C411 C406 1.363 . S
C411 C410 1.415 . S
H412 C409 0.999 . S
H413 C394 0.913 . S
H414 C432 0.951 . S
H415 C434 0.951 . S
H416 C436 0.950 . S
H417 C437 0.950 . S
H418 C439 0.950 . S
H419 C442 0.950 . S
H420 C443 0.950 . S
H421 C445 0.950 . S
H422 C446 0.950 . S
H423 C447 0.951 . S
H424 C449 0.951 . S
H425 C451 0.950 . S
H426 C452 0.950 . S
H427 C454 0.950 . S
H428 C457 0.950 . S
H429 C458 0.950 . S
H430 C460 0.950 . S
H431 C461 0.950 . S
C432 H414 0.951 . S
C432 C433 1.366 . S
C432 C434 1.388 . S
C433 C432 1.366 . S
C433 C437 1.385 . S
C434 H415 0.951 . S
C434 C432 1.388 . S
C434 C435 1.366 . S
C435 C434 1.366 . S
C435 C436 1.414 . S
C435 C438 1.499 . S
C436 H416 0.950 . S
C436 C435 1.414 . S
C436 C437 1.374 . S
C437 H417 0.950 . S
C437 C433 1.385 . S
C437 C436 1.374 . S
C438 C435 1.499 . S
C438 C439 1.373 . S
C438 C440 1.389 . S
C439 H418 0.950 . S
C439 C438 1.373 . S
C439 C455 1.377 . S
C440 C438 1.389 . S
C440 C441 1.524 . S
C440 C454 1.377 . S
C441 C440 1.524 . S
C441 C442 1.397 . S
C441 C446 1.363 . S
C442 H419 0.950 . S
C442 C441 1.397 . S
C442 C443 1.334 . S
C443 H420 0.950 . S
C443 C442 1.334 . S
C443 C444 1.287 . S
C444 C443 1.287 . S
C444 C445 1.524 . S
C444 H463 0.913 . S
C445 H421 0.950 . S
C445 C444 1.524 . S
C445 C446 1.415 . S
C446 H422 0.950 . S
C446 C441 1.363 . S
C446 C445 1.415 . S
C447 H423 0.951 . S
C447 C448 1.366 . S
C447 C449 1.388 . S
C448 C447 1.366 . S
C448 C452 1.385 . S
C449 H424 0.951 . S
C449 C447 1.388 . S
C449 C450 1.366 . S
C450 C449 1.366 . S
C450 C451 1.414 . S
C450 C453 1.499 . S
C451 H425 0.950 . S
C451 C450 1.414 . S
C451 C452 1.374 . S
C452 H426 0.950 . S
C452 C448 1.385 . S
C452 C451 1.374 . S
C453 C450 1.499 . S
C453 C454 1.373 . S
C453 C455 1.389 . S
C454 H427 0.950 . S
C454 C440 1.377 . S
C454 C453 1.373 . S
C455 C439 1.377 . S
C455 C453 1.389 . S
C455 C456 1.524 . S
C456 C455 1.524 . S
C456 C457 1.397 . S
C456 C461 1.363 . S
C457 H428 0.950 . S
C457 C456 1.397 . S
C457 C458 1.334 . S
C458 H429 0.950 . S
C458 C457 1.334 . S
C458 C459 1.287 . S
C459 C458 1.287 . S
C459 C460 1.524 . S
C459 H462 0.999 . S
C460 H430 0.950 . S
C460 C459 1.524 . S
C460 C461 1.415 . S
C461 H431 0.950 . S
C461 C456 1.363 . S
C461 C460 1.415 . S
H462 C459 0.999 . S
H463 C444 0.913 . S
H464 C482 0.951 . S
H465 C484 0.951 . S
H466 C486 0.950 . S
H467 C487 0.950 . S
H468 C489 0.950 . S
H469 C492 0.950 . S
H470 C493 0.930 1_556 S
H471 C495 0.950 . S
H472 C496 0.950 . S
H473 C497 0.951 . S
H474 C499 0.951 . S
H475 C501 0.950 . S
H476 C502 0.950 . S
H477 C504 0.950 . S
H478 C507 0.950 . S
H479 C508 0.950 . S
H480 C510 0.950 . S
H481 C511 0.950 . S
C482 H464 0.951 . S
C482 C483 1.366 . S
C482 C484 1.388 . S
C483 C482 1.366 . S
C483 C487 1.385 . S
C484 H465 0.951 . S
C484 C482 1.388 . S
C484 C485 1.366 . S
C485 C484 1.366 . S
C485 C486 1.414 . S
C485 C488 1.499 . S
C486 H466 0.950 . S
C486 C485 1.414 . S
C486 C487 1.374 . S
C487 H467 0.950 . S
C487 C483 1.385 . S
C487 C486 1.374 . S
C488 C485 1.499 . S
C488 C489 1.373 . S
C488 C490 1.389 . S
C489 H468 0.950 . S
C489 C488 1.373 . S
C489 C505 1.377 . S
C490 C488 1.389 . S
C490 C491 1.524 . S
C490 C504 1.377 . S
C491 C490 1.524 . S
C491 C492 1.397 . S
C491 C496 1.363 . S
C492 H469 0.950 . S
C492 C491 1.397 . S
C492 C493 1.334 . S
C493 H470 0.930 1_554 S
C493 C492 1.334 . S
C493 C494 1.287 . S
C494 C493 1.287 . S
C494 C495 1.524 . S
C494 H513 0.913 . S
C495 H471 0.950 . S
C495 C494 1.524 . S
C495 C496 1.415 . S
C496 H472 0.950 . S
C496 C491 1.363 . S
C496 C495 1.415 . S
C497 H473 0.951 . S
C497 C498 1.366 . S
C497 C499 1.388 . S
C498 C497 1.366 . S
C498 C502 1.385 . S
C499 H474 0.951 . S
C499 C497 1.388 . S
C499 C500 1.366 . S
C500 C499 1.366 . S
C500 C501 1.414 . S
C500 C503 1.499 . S
C501 H475 0.950 . S
C501 C500 1.414 . S
C501 C502 1.374 . S
C502 H476 0.950 . S
C502 C498 1.385 . S
C502 C501 1.374 . S
C503 C500 1.499 . S
C503 C504 1.373 . S
C503 C505 1.389 . S
C504 H477 0.950 . S
C504 C490 1.377 . S
C504 C503 1.373 . S
C505 C489 1.377 . S
C505 C503 1.389 . S
C505 C506 1.524 . S
C506 C505 1.524 . S
C506 C507 1.397 . S
C506 C511 1.363 . S
C507 H478 0.950 . S
C507 C506 1.397 . S
C507 C508 1.334 . S
C508 H479 0.950 . S
C508 C507 1.334 . S
C508 C509 1.287 . S
C509 C508 1.287 . S
C509 C510 1.524 . S
C509 H512 0.999 . S
C510 H480 0.950 . S
C510 C509 1.524 . S
C510 C511 1.415 . S
C511 H481 0.950 . S
C511 C506 1.363 . S
C511 C510 1.415 . S
H512 C509 0.999 . S
H513 C494 0.913 . S
H514 C532 0.951 . S
H515 C534 0.951 . S
H516 C536 0.950 . S
H517 C537 0.950 . S
H518 C539 0.950 . S
H519 C542 0.950 . S
H520 C543 0.950 . S
H521 C545 0.950 . S
H522 C546 0.950 . S
H523 C547 0.951 . S
H524 C549 0.951 . S
H525 C551 0.950 . S
H526 C552 0.950 . S
H527 C554 0.950 . S
H528 C557 0.950 . S
H529 C558 0.950 . S
H530 C560 0.950 . S
H531 C561 0.950 . S
C532 H514 0.951 . S
C532 C533 1.366 . S
C532 C534 1.388 . S
C533 C532 1.366 . S
C533 C537 1.385 . S
C534 H515 0.951 . S
C534 C532 1.388 . S
C534 C535 1.366 . S
C535 C534 1.366 . S
C535 C536 1.414 . S
C535 C538 1.499 . S
C536 H516 0.950 . S
C536 C535 1.414 . S
C536 C537 1.374 . S
C537 H517 0.950 . S
C537 C533 1.385 . S
C537 C536 1.374 . S
C538 C535 1.499 . S
C538 C539 1.373 . S
C538 C540 1.389 . S
C539 H518 0.950 . S
C539 C538 1.373 . S
C539 C555 1.377 . S
C540 C538 1.389 . S
C540 C541 1.524 . S
C540 C554 1.377 . S
C541 C540 1.524 . S
C541 C542 1.397 . S
C541 C546 1.363 . S
C542 H519 0.950 . S
C542 C541 1.397 . S
C542 C543 1.334 . S
C543 H520 0.950 . S
C543 C542 1.334 . S
C543 C544 1.287 . S
C544 C543 1.287 . S
C544 C545 1.524 . S
C544 H563 0.913 . S
C545 H521 0.950 . S
C545 C544 1.524 . S
C545 C546 1.415 . S
C546 H522 0.950 . S
C546 C541 1.363 . S
C546 C545 1.415 . S
C547 H523 0.951 . S
C547 C548 1.366 . S
C547 C549 1.388 . S
C548 C547 1.366 . S
C548 C552 1.385 . S
C549 H524 0.951 . S
C549 C547 1.388 . S
C549 C550 1.366 . S
C550 C549 1.366 . S
C550 C551 1.414 . S
C550 C553 1.499 . S
C551 H525 0.950 . S
C551 C550 1.414 . S
C551 C552 1.374 . S
C552 H526 0.950 . S
C552 C548 1.385 . S
C552 C551 1.374 . S
C553 C550 1.499 . S
C553 C554 1.373 . S
C553 C555 1.389 . S
C554 H527 0.950 . S
C554 C540 1.377 . S
C554 C553 1.373 . S
C555 C539 1.377 . S
C555 C553 1.389 . S
C555 C556 1.524 . S
C556 C555 1.524 . S
C556 C557 1.397 . S
C556 C561 1.363 . S
C557 H528 0.950 . S
C557 C556 1.397 . S
C557 C558 1.334 . S
C558 H529 0.950 . S
C558 C557 1.334 . S
C558 C559 1.287 . S
C559 C558 1.287 . S
C559 C560 1.524 . S
C559 H562 0.999 . S
C560 H530 0.950 . S
C560 C559 1.524 . S
C560 C561 1.415 . S
C561 H531 0.950 . S
C561 C556 1.363 . S
C561 C560 1.415 . S
H562 C559 0.999 . S
H563 C544 0.913 . S
H564 C582 0.951 . S
H565 C584 0.951 . S
H566 C586 0.950 . S
H567 C587 0.950 . S
H568 C589 0.950 . S
H569 C592 0.950 . S
H570 C593 0.950 . S
H571 C595 0.950 . S
H572 C596 0.950 . S
H573 C597 0.951 . S
H574 C599 0.951 . S
H575 C601 0.950 . S
H576 C602 0.950 . S
H577 C604 0.950 . S
H578 C607 0.950 . S
H579 C608 0.950 . S
H580 C610 0.950 . S
H581 C611 0.950 . S
C582 H564 0.951 . S
C582 C583 1.366 . S
C582 C584 1.388 . S
C583 C582 1.366 . S
C583 C587 1.385 . S
C584 H565 0.951 . S
C584 C582 1.388 . S
C584 C585 1.366 . S
C585 C584 1.366 . S
C585 C586 1.414 . S
C585 C588 1.499 . S
C586 H566 0.950 . S
C586 C585 1.414 . S
C586 C587 1.374 . S
C587 H567 0.950 . S
C587 C583 1.385 . S
C587 C586 1.374 . S
C588 C585 1.499 . S
C588 C589 1.373 . S
C588 C590 1.389 . S
C589 H568 0.950 . S
C589 C588 1.373 . S
C589 C605 1.377 . S
C590 C588 1.389 . S
C590 C591 1.524 . S
C590 C604 1.377 . S
C591 C590 1.524 . S
C591 C592 1.397 . S
C591 C596 1.363 . S
C592 H569 0.950 . S
C592 C591 1.397 . S
C592 C593 1.334 . S
C593 H570 0.950 . S
C593 C592 1.334 . S
C593 C594 1.287 . S
C594 C593 1.287 . S
C594 C595 1.524 . S
C594 H613 0.913 . S
C595 H571 0.950 . S
C595 C594 1.524 . S
C595 C596 1.415 . S
C596 H572 0.950 . S
C596 C591 1.363 . S
C596 C595 1.415 . S
C597 H573 0.951 . S
C597 C598 1.366 . S
C597 C599 1.388 . S
C598 C597 1.366 . S
C598 C602 1.385 . S
C599 H574 0.951 . S
C599 C597 1.388 . S
C599 C600 1.366 . S
C600 C599 1.366 . S
C600 C601 1.414 . S
C600 C603 1.499 . S
C601 H575 0.950 . S
C601 C600 1.414 . S
C601 C602 1.374 . S
C602 H576 0.950 . S
C602 C598 1.385 . S
C602 C601 1.374 . S
C603 C600 1.499 . S
C603 C604 1.373 . S
C603 C605 1.389 . S
C604 H577 0.950 . S
C604 C590 1.377 . S
C604 C603 1.373 . S
C605 C589 1.377 . S
C605 C603 1.389 . S
C605 C606 1.524 . S
C606 C605 1.524 . S
C606 C607 1.397 . S
C606 C611 1.363 . S
C607 H578 0.950 . S
C607 C606 1.397 . S
C607 C608 1.334 . S
C608 H579 0.950 . S
C608 C607 1.334 . S
C608 C609 1.287 . S
C609 C608 1.287 . S
C609 C610 1.524 . S
C609 H612 0.999 . S
C610 H580 0.950 . S
C610 C609 1.524 . S
C610 C611 1.415 . S
C611 H581 0.950 . S
C611 C606 1.363 . S
C611 C610 1.415 . S
H612 C609 0.999 . S
H613 C594 0.913 . S
H614 C632 0.951 . S
H615 C634 0.951 . S
H616 C636 0.950 . S
H617 C637 0.950 . S
H618 C639 0.950 . S
H619 C642 0.950 . S
H620 C643 0.950 . S
H621 C645 0.950 . S
H622 C646 0.950 . S
H623 C647 0.951 . S
H624 C649 0.951 . S
H625 C651 0.950 . S
H626 C652 0.950 . S
H627 C654 0.950 . S
H628 C657 0.950 . S
H629 C658 0.950 . S
H630 C660 0.950 . S
H631 C661 0.950 . S
C632 H614 0.951 . S
C632 C633 1.366 . S
C632 C634 1.388 . S
C633 C632 1.366 . S
C633 C637 1.385 . S
C634 H615 0.951 . S
C634 C632 1.388 . S
C634 C635 1.366 . S
C635 C634 1.366 . S
C635 C636 1.414 . S
C635 C638 1.499 . S
C636 H616 0.950 . S
C636 C635 1.414 . S
C636 C637 1.374 . S
C637 H617 0.950 . S
C637 C633 1.385 . S
C637 C636 1.374 . S
C638 C635 1.499 . S
C638 C639 1.373 . S
C638 C640 1.389 . S
C639 H618 0.950 . S
C639 C638 1.373 . S
C639 C655 1.377 . S
C640 C638 1.389 . S
C640 C641 1.524 . S
C640 C654 1.377 . S
C641 C640 1.524 . S
C641 C642 1.397 . S
C641 C646 1.363 . S
C642 H619 0.950 . S
C642 C641 1.397 . S
C642 C643 1.334 . S
C643 H620 0.950 . S
C643 C642 1.334 . S
C643 C644 1.287 . S
C644 C643 1.287 . S
C644 C645 1.524 . S
C644 H663 0.913 . S
C645 H621 0.950 . S
C645 C644 1.524 . S
C645 C646 1.415 . S
C646 H622 0.950 . S
C646 C641 1.363 . S
C646 C645 1.415 . S
C647 H623 0.951 . S
C647 C648 1.366 . S
C647 C649 1.388 . S
C648 C647 1.366 . S
C648 C652 1.385 . S
C649 H624 0.951 . S
C649 C647 1.388 . S
C649 C650 1.366 . S
C650 C649 1.366 . S
C650 C651 1.414 . S
C650 C653 1.499 . S
C651 H625 0.950 . S
C651 C650 1.414 . S
C651 C652 1.374 . S
C652 H626 0.950 . S
C652 C648 1.385 . S
C652 C651 1.374 . S
C653 C650 1.499 . S
C653 C654 1.373 . S
C653 C655 1.389 . S
C654 H627 0.950 . S
C654 C640 1.377 . S
C654 C653 1.373 . S
C655 C639 1.377 . S
C655 C653 1.389 . S
C655 C656 1.524 . S
C656 C655 1.524 . S
C656 C657 1.397 . S
C656 C661 1.363 . S
C657 H628 0.950 . S
C657 C656 1.397 . S
C657 C658 1.334 . S
C658 H629 0.950 . S
C658 C657 1.334 . S
C658 C659 1.287 . S
C659 C658 1.287 . S
C659 C660 1.524 . S
C659 H662 0.999 . S
C660 H630 0.950 . S
C660 C659 1.524 . S
C660 C661 1.415 . S
C661 H631 0.950 . S
C661 C656 1.363 . S
C661 C660 1.415 . S
H662 C659 0.999 . S
H663 C644 0.913 . S
H664 C682 0.951 . S
H665 C684 0.951 . S
H666 C686 0.950 . S
H667 C687 0.950 . S
H668 C689 0.950 . S
H669 C692 0.950 . S
H670 C693 0.950 . S
H671 C695 0.950 . S
H672 C696 0.950 . S
H673 C697 0.951 . S
H674 C699 0.951 . S
H675 C701 0.950 . S
H676 C702 0.950 . S
H677 C704 0.950 . S
H678 C707 0.950 . S
H679 C708 0.950 . S
H680 C710 0.950 . S
H681 C711 0.950 . S
C682 H664 0.951 . S
C682 C683 1.366 . S
C682 C684 1.388 . S
C683 C682 1.366 . S
C683 C687 1.385 . S
C684 H665 0.951 . S
C684 C682 1.388 . S
C684 C685 1.366 . S
C685 C684 1.366 . S
C685 C686 1.414 . S
C685 C688 1.499 . S
C686 H666 0.950 . S
C686 C685 1.414 . S
C686 C687 1.374 . S
C687 H667 0.950 . S
C687 C683 1.385 . S
C687 C686 1.374 . S
C688 C685 1.499 . S
C688 C689 1.373 . S
C688 C690 1.389 . S
C689 H668 0.950 . S
C689 C688 1.373 . S
C689 C705 1.377 . S
C690 C688 1.389 . S
C690 C691 1.524 . S
C690 C704 1.377 . S
C691 C690 1.524 . S
C691 C692 1.397 . S
C691 C696 1.363 . S
C692 H669 0.950 . S
C692 C691 1.397 . S
C692 C693 1.334 . S
C693 H670 0.950 . S
C693 C692 1.334 . S
C693 C694 1.287 . S
C694 C693 1.287 . S
C694 C695 1.524 . S
C694 H713 0.913 . S
C695 H671 0.950 . S
C695 C694 1.524 . S
C695 C696 1.415 . S
C696 H672 0.950 . S
C696 C691 1.363 . S
C696 C695 1.415 . S
C697 H673 0.951 . S
C697 C698 1.366 . S
C697 C699 1.388 . S
C698 C697 1.366 . S
C698 C702 1.385 . S
C699 H674 0.951 . S
C699 C697 1.388 . S
C699 C700 1.366 . S
C700 C699 1.366 . S
C700 C701 1.414 . S
C700 C703 1.499 . S
C701 H675 0.950 . S
C701 C700 1.414 . S
C701 C702 1.374 . S
C702 H676 0.950 . S
C702 C698 1.385 . S
C702 C701 1.374 . S
C703 C700 1.499 . S
C703 C704 1.373 . S
C703 C705 1.389 . S
C704 H677 0.950 . S
C704 C690 1.377 . S
C704 C703 1.373 . S
C705 C689 1.377 . S
C705 C703 1.389 . S
C705 C706 1.524 . S
C706 C705 1.524 . S
C706 C707 1.397 . S
C706 C711 1.363 . S
C707 H678 0.950 . S
C707 C706 1.397 . S
C707 C708 1.334 . S
C708 H679 0.950 . S
C708 C707 1.334 . S
C708 C709 1.287 . S
C709 C708 1.287 . S
C709 C710 1.524 . S
C709 H712 0.999 . S
C710 H680 0.950 . S
C710 C709 1.524 . S
C710 C711 1.415 . S
C711 H681 0.950 . S
C711 C706 1.363 . S
C711 C710 1.415 . S
H712 C709 0.999 . S
H713 C694 0.913 . S
H714 C732 0.951 . S
H715 C734 0.951 . S
H716 C736 0.950 . S
H717 C737 0.950 . S
H718 C739 0.950 . S
H719 C742 0.950 . S
H720 C743 0.950 . S
H721 C745 0.950 . S
H722 C746 0.950 . S
H723 C747 0.951 . S
H724 C749 0.951 . S
H725 C751 0.950 . S
H726 C752 0.950 . S
H727 C754 0.950 . S
H728 C757 0.950 . S
H729 C758 0.950 . S
H730 C760 0.950 . S
H731 C761 0.950 . S
C732 H714 0.951 . S
C732 C733 1.366 . S
C732 C734 1.388 . S
C733 C732 1.366 . S
C733 C737 1.385 . S
C734 H715 0.951 . S
C734 C732 1.388 . S
C734 C735 1.366 . S
C735 C734 1.366 . S
C735 C736 1.414 . S
C735 C738 1.499 . S
C736 H716 0.950 . S
C736 C735 1.414 . S
C736 C737 1.374 . S
C737 H717 0.950 . S
C737 C733 1.385 . S
C737 C736 1.374 . S
C738 C735 1.499 . S
C738 C739 1.373 . S
C738 C740 1.389 . S
C739 H718 0.950 . S
C739 C738 1.373 . S
C739 C755 1.377 . S
C740 C738 1.389 . S
C740 C741 1.524 . S
C740 C754 1.377 . S
C741 C740 1.524 . S
C741 C742 1.397 . S
C741 C746 1.363 . S
C742 H719 0.950 . S
C742 C741 1.397 . S
C742 C743 1.334 . S
C743 H720 0.950 . S
C743 C742 1.334 . S
C743 C744 1.287 . S
C744 C743 1.287 . S
C744 C745 1.524 . S
C744 H763 0.913 . S
C745 H721 0.950 . S
C745 C744 1.524 . S
C745 C746 1.415 . S
C746 H722 0.950 . S
C746 C741 1.363 . S
C746 C745 1.415 . S
C747 H723 0.951 . S
C747 C748 1.366 . S
C747 C749 1.388 . S
C748 C747 1.366 . S
C748 C752 1.385 . S
C749 H724 0.951 . S
C749 C747 1.388 . S
C749 C750 1.366 . S
C750 C749 1.366 . S
C750 C751 1.414 . S
C750 C753 1.499 . S
C751 H725 0.950 . S
C751 C750 1.414 . S
C751 C752 1.374 . S
C752 H726 0.950 . S
C752 C748 1.385 . S
C752 C751 1.374 . S
C753 C750 1.499 . S
C753 C754 1.373 . S
C753 C755 1.389 . S
C754 H727 0.950 . S
C754 C740 1.377 . S
C754 C753 1.373 . S
C755 C739 1.377 . S
C755 C753 1.389 . S
C755 C756 1.524 . S
C756 C755 1.524 . S
C756 C757 1.397 . S
C756 C761 1.363 . S
C757 H728 0.950 . S
C757 C756 1.397 . S
C757 C758 1.334 . S
C758 H729 0.950 . S
C758 C757 1.334 . S
C758 C759 1.287 . S
C759 C758 1.287 . S
C759 C760 1.524 . S
C759 H762 0.999 . S
C760 H730 0.950 . S
C760 C759 1.524 . S
C760 C761 1.415 . S
C761 H731 0.950 . S
C761 C756 1.363 . S
C761 C760 1.415 . S
H762 C759 0.999 . S
H763 C744 0.913 . S
H764 C782 0.951 . S
H765 C784 0.951 . S
H766 C786 0.950 . S
H767 C787 0.950 . S
H768 C789 0.950 . S
H769 C792 0.950 . S
H770 C793 0.950 . S
H771 C795 0.950 . S
H772 C796 0.950 . S
H773 C797 0.951 . S
H774 C799 0.951 . S
H775 C801 0.950 . S
H776 C802 0.950 . S
H777 C804 0.950 . S
H778 C807 0.950 . S
H779 C808 0.950 . S
H780 C810 0.950 . S
H781 C811 0.950 . S
C782 H764 0.951 . S
C782 C783 1.366 . S
C782 C784 1.388 . S
C783 C782 1.366 . S
C783 C787 1.385 . S
C784 H765 0.951 . S
C784 C782 1.388 . S
C784 C785 1.366 . S
C785 C784 1.366 . S
C785 C786 1.414 . S
C785 C788 1.499 . S
C786 H766 0.950 . S
C786 C785 1.414 . S
C786 C787 1.374 . S
C787 H767 0.950 . S
C787 C783 1.385 . S
C787 C786 1.374 . S
C788 C785 1.499 . S
C788 C789 1.373 . S
C788 C790 1.389 . S
C789 H768 0.950 . S
C789 C788 1.373 . S
C789 C805 1.377 . S
C790 C788 1.389 . S
C790 C791 1.524 . S
C790 C804 1.377 . S
C791 C790 1.524 . S
C791 C792 1.397 . S
C791 C796 1.363 . S
C792 H769 0.950 . S
C792 C791 1.397 . S
C792 C793 1.334 . S
C793 H770 0.950 . S
C793 C792 1.334 . S
C793 C794 1.287 . S
C794 C793 1.287 . S
C794 C795 1.524 . S
C794 H813 0.913 . S
C795 H771 0.950 . S
C795 C794 1.524 . S
C795 C796 1.415 . S
C796 H772 0.950 . S
C796 C791 1.363 . S
C796 C795 1.415 . S
C797 H773 0.951 . S
C797 C798 1.366 . S
C797 C799 1.388 . S
C798 C797 1.366 . S
C798 C802 1.385 . S
C799 H774 0.951 . S
C799 C797 1.388 . S
C799 C800 1.366 . S
C800 C799 1.366 . S
C800 C801 1.414 . S
C800 C803 1.499 . S
C801 H775 0.950 . S
C801 C800 1.414 . S
C801 C802 1.374 . S
C802 H776 0.950 . S
C802 C798 1.385 . S
C802 C801 1.374 . S
C803 C800 1.499 . S
C803 C804 1.373 . S
C803 C805 1.389 . S
C804 H777 0.950 . S
C804 C790 1.377 . S
C804 C803 1.373 . S
C805 C789 1.377 . S
C805 C803 1.389 . S
C805 C806 1.524 . S
C806 C805 1.524 . S
C806 C807 1.397 . S
C806 C811 1.363 . S
C807 H778 0.950 . S
C807 C806 1.397 . S
C807 C808 1.334 . S
C808 H779 0.950 . S
C808 C807 1.334 . S
C808 C809 1.287 . S
C809 C808 1.287 . S
C809 C810 1.524 . S
C809 H812 0.999 . S
C810 H780 0.950 . S
C810 C809 1.524 . S
C810 C811 1.415 . S
C811 H781 0.950 . S
C811 C806 1.363 . S
C811 C810 1.415 . S
H812 C809 0.999 . S
H813 C794 0.913 . S
H814 C832 0.951 . S
H815 C834 0.951 . S
H816 C836 0.950 . S
H817 C837 0.950 . S
H818 C839 0.950 . S
H819 C842 0.950 . S
H820 C843 0.950 . S
H821 C845 0.950 . S
H822 C846 0.950 . S
H823 C847 0.951 . S
H824 C849 0.951 . S
H825 C851 0.950 . S
H826 C852 0.950 . S
H827 C854 0.950 . S
H828 C857 0.950 . S
H829 C858 0.950 . S
H830 C860 0.950 . S
H831 C861 0.950 . S
C832 H814 0.951 . S
C832 C833 1.366 . S
C832 C834 1.388 . S
C833 C832 1.366 . S
C833 C837 1.385 . S
C834 H815 0.951 . S
C834 C832 1.388 . S
C834 C835 1.366 . S
C835 C834 1.366 . S
C835 C836 1.414 . S
C835 C838 1.499 . S
C836 H816 0.950 . S
C836 C835 1.414 . S
C836 C837 1.374 . S
C837 H817 0.950 . S
C837 C833 1.385 . S
C837 C836 1.374 . S
C838 C835 1.499 . S
C838 C839 1.373 . S
C838 C840 1.389 . S
C839 H818 0.950 . S
C839 C838 1.373 . S
C839 C855 1.377 . S
C840 C838 1.389 . S
C840 C841 1.524 . S
C840 C854 1.377 . S
C841 C840 1.524 . S
C841 C842 1.397 . S
C841 C846 1.363 . S
C842 H819 0.950 . S
C842 C841 1.397 . S
C842 C843 1.334 . S
C843 H820 0.950 . S
C843 C842 1.334 . S
C843 C844 1.287 . S
C844 C843 1.287 . S
C844 C845 1.524 . S
C844 H863 0.913 . S
C845 H821 0.950 . S
C845 C844 1.524 . S
C845 C846 1.415 . S
C846 H822 0.950 . S
C846 C841 1.363 . S
C846 C845 1.415 . S
C847 H823 0.951 . S
C847 C848 1.366 . S
C847 C849 1.388 . S
C848 C847 1.366 . S
C848 C852 1.385 . S
C849 H824 0.951 . S
C849 C847 1.388 . S
C849 C850 1.366 . S
C850 C849 1.366 . S
C850 C851 1.414 . S
C850 C853 1.499 . S
C851 H825 0.950 . S
C851 C850 1.414 . S
C851 C852 1.374 . S
C852 H826 0.950 . S
C852 C848 1.385 . S
C852 C851 1.374 . S
C853 C850 1.499 . S
C853 C854 1.373 . S
C853 C855 1.389 . S
C854 H827 0.950 . S
C854 C840 1.377 . S
C854 C853 1.373 . S
C855 C839 1.377 . S
C855 C853 1.389 . S
C855 C856 1.524 . S
C856 C855 1.524 . S
C856 C857 1.397 . S
C856 C861 1.363 . S
C857 H828 0.950 . S
C857 C856 1.397 . S
C857 C858 1.334 . S
C858 H829 0.950 . S
C858 C857 1.334 . S
C858 C859 1.287 . S
C859 C858 1.287 . S
C859 C860 1.524 . S
C859 H862 0.999 . S
C860 H830 0.950 . S
C860 C859 1.524 . S
C860 C861 1.415 . S
C861 H831 0.950 . S
C861 C856 1.363 . S
C861 C860 1.415 . S
H862 C859 0.999 . S
H863 C844 0.913 . S
H864 C882 0.951 . S
H865 C884 0.951 . S
H866 C886 0.950 . S
H867 C887 0.950 . S
H868 C889 0.950 . S
H869 C892 0.950 . S
H870 C893 0.950 . S
H871 C895 0.950 . S
H872 C896 0.950 . S
H873 C897 0.951 . S
H874 C899 0.951 . S
H875 C901 0.950 . S
H876 C902 0.950 . S
H877 C904 0.950 . S
H878 C907 0.950 . S
H879 C908 0.950 . S
H880 C910 0.950 . S
H881 C911 0.950 . S
C882 H864 0.951 . S
C882 C883 1.366 . S
C882 C884 1.388 . S
C883 C882 1.366 . S
C883 C887 1.385 . S
C884 H865 0.951 . S
C884 C882 1.388 . S
C884 C885 1.366 . S
C885 C884 1.366 . S
C885 C886 1.414 . S
C885 C888 1.499 . S
C886 H866 0.950 . S
C886 C885 1.414 . S
C886 C887 1.374 . S
C887 H867 0.950 . S
C887 C883 1.385 . S
C887 C886 1.374 . S
C888 C885 1.499 . S
C888 C889 1.373 . S
C888 C890 1.389 . S
C889 H868 0.950 . S
C889 C888 1.373 . S
C889 C905 1.377 . S
C890 C888 1.389 . S
C890 C891 1.524 . S
C890 C904 1.377 . S
C891 C890 1.524 . S
C891 C892 1.397 . S
C891 C896 1.363 . S
C892 H869 0.950 . S
C892 C891 1.397 . S
C892 C893 1.334 . S
C893 H870 0.950 . S
C893 C892 1.334 . S
C893 C894 1.287 . S
C894 C893 1.287 . S
C894 C895 1.524 . S
C894 H913 0.913 . S
C895 H871 0.950 . S
C895 C894 1.524 . S
C895 C896 1.415 . S
C896 H872 0.950 . S
C896 C891 1.363 . S
C896 C895 1.415 . S
C897 H873 0.951 . S
C897 C898 1.366 . S
C897 C899 1.388 . S
C898 C897 1.366 . S
C898 C902 1.385 . S
C899 H874 0.951 . S
C899 C897 1.388 . S
C899 C900 1.366 . S
C900 C899 1.366 . S
C900 C901 1.414 . S
C900 C903 1.499 . S
C901 H875 0.950 . S
C901 C900 1.414 . S
C901 C902 1.374 . S
C902 H876 0.950 . S
C902 C898 1.385 . S
C902 C901 1.374 . S
C903 C900 1.499 . S
C903 C904 1.373 . S
C903 C905 1.389 . S
C904 H877 0.950 . S
C904 C890 1.377 . S
C904 C903 1.373 . S
C905 C889 1.377 . S
C905 C903 1.389 . S
C905 C906 1.524 . S
C906 C905 1.524 . S
C906 C907 1.397 . S
C906 C911 1.363 . S
C907 H878 0.950 . S
C907 C906 1.397 . S
C907 C908 1.334 . S
C908 H879 0.950 . S
C908 C907 1.334 . S
C908 C909 1.287 . S
C909 C908 1.287 . S
C909 C910 1.524 . S
C909 H912 0.999 . S
C910 H880 0.950 . S
C910 C909 1.524 . S
C910 C911 1.415 . S
C911 H881 0.950 . S
C911 C906 1.363 . S
C911 C910 1.415 . S
H912 C909 0.999 . S
H913 C894 0.913 . S
H914 C932 0.951 . S
H915 C934 0.951 . S
H916 C936 0.950 . S
H917 C937 0.950 . S
H918 C939 0.950 . S
H919 C942 0.950 . S
H920 C943 0.950 . S
H921 C945 0.950 . S
H922 C946 0.950 . S
H923 C947 0.951 . S
H924 C949 0.951 . S
H925 C951 0.950 . S
H926 C952 0.950 . S
H927 C954 0.950 . S
H928 C957 0.950 . S
H929 C958 0.950 . S
H930 C960 0.950 . S
H931 C961 0.950 . S
C932 H914 0.951 . S
C932 C933 1.366 . S
C932 C934 1.388 . S
C933 C932 1.366 . S
C933 C937 1.385 . S
C934 H915 0.951 . S
C934 C932 1.388 . S
C934 C935 1.366 . S
C935 C934 1.366 . S
C935 C936 1.414 . S
C935 C938 1.499 . S
C936 H916 0.950 . S
C936 C935 1.414 . S
C936 C937 1.374 . S
C937 H917 0.950 . S
C937 C933 1.385 . S
C937 C936 1.374 . S
C938 C935 1.499 . S
C938 C939 1.373 . S
C938 C940 1.389 . S
C939 H918 0.950 . S
C939 C938 1.373 . S
C939 C955 1.377 . S
C940 C938 1.389 . S
C940 C941 1.524 . S
C940 C954 1.377 . S
C941 C940 1.524 . S
C941 C942 1.397 . S
C941 C946 1.363 . S
C942 H919 0.950 . S
C942 C941 1.397 . S
C942 C943 1.334 . S
C943 H920 0.950 . S
C943 C942 1.334 . S
C943 C944 1.287 . S
C944 C943 1.287 . S
C944 C945 1.524 . S
C944 H963 0.913 . S
C945 H921 0.950 . S
C945 C944 1.524 . S
C945 C946 1.415 . S
C946 H922 0.950 . S
C946 C941 1.363 . S
C946 C945 1.415 . S
C947 H923 0.951 . S
C947 C948 1.366 . S
C947 C949 1.388 . S
C948 C947 1.366 . S
C948 C952 1.385 . S
C949 H924 0.951 . S
C949 C947 1.388 . S
C949 C950 1.366 . S
C950 C949 1.366 . S
C950 C951 1.414 . S
C950 C953 1.499 . S
C951 H925 0.950 . S
C951 C950 1.414 . S
C951 C952 1.374 . S
C952 H926 0.950 . S
C952 C948 1.385 . S
C952 C951 1.374 . S
C953 C950 1.499 . S
C953 C954 1.373 . S
C953 C955 1.389 . S
C954 H927 0.950 . S
C954 C940 1.377 . S
C954 C953 1.373 . S
C955 C939 1.377 . S
C955 C953 1.389 . S
C955 C956 1.524 . S
C956 C955 1.524 . S
C956 C957 1.397 . S
C956 C961 1.363 . S
C957 H928 0.950 . S
C957 C956 1.397 . S
C957 C958 1.334 . S
C958 H929 0.950 . S
C958 C957 1.334 . S
C958 C959 1.287 . S
C959 C958 1.287 . S
C959 C960 1.524 . S
C959 H962 0.999 . S
C960 H930 0.950 . S
C960 C959 1.524 . S
C960 C961 1.415 . S
C961 H931 0.950 . S
C961 C956 1.363 . S
C961 C960 1.415 . S
H962 C959 0.999 . S
H963 C944 0.913 . S
H964 C982 0.951 . S
H965 C984 0.951 . S
H966 C986 0.950 . S
H967 C987 0.950 . S
H968 C989 0.950 . S
H969 C992 0.950 . S
H970 C993 0.950 1_554 S
H971 C995 0.950 . S
H972 C996 0.950 . S
H973 C997 0.951 . S
H974 C999 0.951 . S
H975 C1001 0.950 . S
H976 C1002 0.950 . S
H977 C1004 0.950 . S
H978 C1007 0.950 . S
H979 C1008 0.950 . S
H980 C1010 0.950 . S
H981 C1011 0.950 . S
C982 H964 0.951 . S
C982 C983 1.366 . S
C982 C984 1.388 . S
C983 C982 1.366 . S
C983 C987 1.385 . S
C984 H965 0.951 . S
C984 C982 1.388 . S
C984 C985 1.366 . S
C985 C984 1.366 . S
C985 C986 1.414 . S
C985 C988 1.499 . S
C986 H966 0.950 . S
C986 C985 1.414 . S
C986 C987 1.374 . S
C987 H967 0.950 . S
C987 C983 1.385 . S
C987 C986 1.374 . S
C988 C985 1.499 . S
C988 C989 1.373 . S
C988 C990 1.389 . S
C989 H968 0.950 . S
C989 C988 1.373 . S
C989 C1005 1.377 . S
C990 C988 1.389 . S
C990 C991 1.524 . S
C990 C1004 1.377 . S
C991 C990 1.524 . S
C991 C992 1.397 . S
C991 C996 1.363 . S
C992 H969 0.950 . S
C992 C991 1.397 . S
C992 C993 1.334 . S
C993 H970 0.950 1_556 S
C993 C992 1.334 . S
C993 C994 1.287 . S
C994 C993 1.287 . S
C994 C995 1.524 . S
C994 H1013 0.913 . S
C995 H971 0.950 . S
C995 C994 1.524 . S
C995 C996 1.415 . S
C996 H972 0.950 . S
C996 C991 1.363 . S
C996 C995 1.415 . S
C997 H973 0.951 . S
C997 C998 1.366 . S
C997 C999 1.388 . S
C998 C997 1.366 . S
C998 C1002 1.385 . S
C999 H974 0.951 . S
C999 C997 1.388 . S
C999 C1000 1.366 . S
C1000 C999 1.366 . S
C1000 C1001 1.414 . S
C1000 C1003 1.499 . S
C1001 H975 0.950 . S
C1001 C1000 1.414 . S
C1001 C1002 1.374 . S
C1002 H976 0.950 . S
C1002 C998 1.385 . S
C1002 C1001 1.374 . S
C1003 C1000 1.499 . S
C1003 C1004 1.373 . S
C1003 C1005 1.389 . S
C1004 H977 0.950 . S
C1004 C990 1.377 . S
C1004 C1003 1.373 . S
C1005 C989 1.377 . S
C1005 C1003 1.389 . S
C1005 C1006 1.524 . S
C1006 C1005 1.524 . S
C1006 C1007 1.397 . S
C1006 C1011 1.363 . S
C1007 H978 0.950 . S
C1007 C1006 1.397 . S
C1007 C1008 1.334 . S
C1008 H979 0.950 . S
C1008 C1007 1.334 . S
C1008 C1009 1.287 . S
C1009 C1008 1.287 . S
C1009 C1010 1.524 . S
C1009 H1012 0.999 . S
C1010 H980 0.950 . S
C1010 C1009 1.524 . S
C1010 C1011 1.415 . S
C1011 H981 0.950 . S
C1011 C1006 1.363 . S
C1011 C1010 1.415 . S
H1012 C1009 0.999 . S
H1013 C994 0.913 . S
H1014 C1032 0.951 . S
H1015 C1034 0.951 . S
H1016 C1036 0.950 . S
H1017 C1037 0.950 . S
H1018 C1039 0.950 . S
H1019 C1042 0.950 . S
H1020 C1043 0.950 . S
H1021 C1045 0.950 . S
H1022 C1046 0.950 . S
H1023 C1047 0.951 . S
H1024 C1049 0.951 . S
H1025 C1051 0.950 . S
H1026 C1052 0.950 . S
H1027 C1054 0.950 . S
H1028 C1057 0.950 . S
H1029 C1058 0.950 . S
H1030 C1060 0.950 . S
H1031 C1061 0.950 . S
C1032 H1014 0.951 . S
C1032 C1033 1.366 . S
C1032 C1034 1.388 . S
C1033 C1032 1.366 . S
C1033 C1037 1.385 . S
C1034 H1015 0.951 . S
C1034 C1032 1.388 . S
C1034 C1035 1.366 . S
C1035 C1034 1.366 . S
C1035 C1036 1.414 . S
C1035 C1038 1.499 . S
C1036 H1016 0.950 . S
C1036 C1035 1.414 . S
C1036 C1037 1.374 . S
C1037 H1017 0.950 . S
C1037 C1033 1.385 . S
C1037 C1036 1.374 . S
C1038 C1035 1.499 . S
C1038 C1039 1.373 . S
C1038 C1040 1.389 . S
C1039 H1018 0.950 . S
C1039 C1038 1.373 . S
C1039 C1055 1.377 . S
C1040 C1038 1.389 . S
C1040 C1041 1.524 . S
C1040 C1054 1.377 . S
C1041 C1040 1.524 . S
C1041 C1042 1.397 . S
C1041 C1046 1.363 . S
C1042 H1019 0.950 . S
C1042 C1041 1.397 . S
C1042 C1043 1.334 . S
C1043 H1020 0.950 . S
C1043 C1042 1.334 . S
C1043 C1044 1.287 . S
C1044 C1043 1.287 . S
C1044 C1045 1.524 . S
C1044 H1063 0.913 . S
C1045 H1021 0.950 . S
C1045 C1044 1.524 . S
C1045 C1046 1.415 . S
C1046 H1022 0.950 . S
C1046 C1041 1.363 . S
C1046 C1045 1.415 . S
C1047 H1023 0.951 . S
C1047 C1048 1.366 . S
C1047 C1049 1.388 . S
C1048 C1047 1.366 . S
C1048 C1052 1.385 . S
C1049 H1024 0.951 . S
C1049 C1047 1.388 . S
C1049 C1050 1.366 . S
C1050 C1049 1.366 . S
C1050 C1051 1.414 . S
C1050 C1053 1.499 . S
C1051 H1025 0.950 . S
C1051 C1050 1.414 . S
C1051 C1052 1.374 . S
C1052 H1026 0.950 . S
C1052 C1048 1.385 . S
C1052 C1051 1.374 . S
C1053 C1050 1.499 . S
C1053 C1054 1.373 . S
C1053 C1055 1.389 . S
C1054 H1027 0.950 . S
C1054 C1040 1.377 . S
C1054 C1053 1.373 . S
C1055 C1039 1.377 . S
C1055 C1053 1.389 . S
C1055 C1056 1.524 . S
C1056 C1055 1.524 . S
C1056 C1057 1.397 . S
C1056 C1061 1.363 . S
C1057 H1028 0.950 . S
C1057 C1056 1.397 . S
C1057 C1058 1.334 . S
C1058 H1029 0.950 . S
C1058 C1057 1.334 . S
C1058 C1059 1.287 . S
C1059 C1058 1.287 . S
C1059 C1060 1.524 . S
C1059 H1062 0.999 . S
C1060 H1030 0.950 . S
C1060 C1059 1.524 . S
C1060 C1061 1.415 . S
C1061 H1031 0.950 . S
C1061 C1056 1.363 . S
C1061 C1060 1.415 . S
H1062 C1059 0.999 . S
H1063 C1044 0.913 . S
H1064 C1082 0.951 . S
H1065 C1084 0.951 . S
H1066 C1086 0.950 . S
H1067 C1087 0.950 . S
H1068 C1089 0.950 . S
H1069 C1092 0.950 . S
H1070 C1093 0.950 . S
H1071 C1095 0.950 . S
H1072 C1096 0.950 . S
H1073 C1097 0.951 . S
H1074 C1099 0.951 . S
H1075 C1101 0.950 . S
H1076 C1102 0.950 . S
H1077 C1104 0.950 . S
H1078 C1107 0.950 . S
H1079 C1108 0.950 . S
H1080 C1110 0.950 . S
H1081 C1111 0.950 . S
C1082 H1064 0.951 . S
C1082 C1083 1.366 . S
C1082 C1084 1.388 . S
C1083 C1082 1.366 . S
C1083 C1087 1.385 . S
C1084 H1065 0.951 . S
C1084 C1082 1.388 . S
C1084 C1085 1.366 . S
C1085 C1084 1.366 . S
C1085 C1086 1.414 . S
C1085 C1088 1.499 . S
C1086 H1066 0.950 . S
C1086 C1085 1.414 . S
C1086 C1087 1.374 . S
C1087 H1067 0.950 . S
C1087 C1083 1.385 . S
C1087 C1086 1.374 . S
C1088 C1085 1.499 . S
C1088 C1089 1.373 . S
C1088 C1090 1.389 . S
C1089 H1068 0.950 . S
C1089 C1088 1.373 . S
C1089 C1105 1.377 . S
C1090 C1088 1.389 . S
C1090 C1091 1.524 . S
C1090 C1104 1.377 . S
C1091 C1090 1.524 . S
C1091 C1092 1.397 . S
C1091 C1096 1.363 . S
C1092 H1069 0.950 . S
C1092 C1091 1.397 . S
C1092 C1093 1.334 . S
C1093 H1070 0.950 . S
C1093 C1092 1.334 . S
C1093 C1094 1.287 . S
C1094 C1093 1.287 . S
C1094 C1095 1.524 . S
C1094 H1113 0.913 . S
C1095 H1071 0.950 . S
C1095 C1094 1.524 . S
C1095 C1096 1.415 . S
C1096 H1072 0.950 . S
C1096 C1091 1.363 . S
C1096 C1095 1.415 . S
C1097 H1073 0.951 . S
C1097 C1098 1.366 . S
C1097 C1099 1.388 . S
C1098 C1097 1.366 . S
C1098 C1102 1.385 . S
C1099 H1074 0.951 . S
C1099 C1097 1.388 . S
C1099 C1100 1.366 . S
C1100 C1099 1.366 . S
C1100 C1101 1.414 . S
C1100 C1103 1.499 . S
C1101 H1075 0.950 . S
C1101 C1100 1.414 . S
C1101 C1102 1.374 . S
C1102 H1076 0.950 . S
C1102 C1098 1.385 . S
C1102 C1101 1.374 . S
C1103 C1100 1.499 . S
C1103 C1104 1.373 . S
C1103 C1105 1.389 . S
C1104 H1077 0.950 . S
C1104 C1090 1.377 . S
C1104 C1103 1.373 . S
C1105 C1089 1.377 . S
C1105 C1103 1.389 . S
C1105 C1106 1.524 . S
C1106 C1105 1.524 . S
C1106 C1107 1.397 . S
C1106 C1111 1.363 . S
C1107 H1078 0.950 . S
C1107 C1106 1.397 . S
C1107 C1108 1.334 . S
C1108 H1079 0.950 . S
C1108 C1107 1.334 . S
C1108 C1109 1.287 . S
C1109 C1108 1.287 . S
C1109 C1110 1.524 . S
C1109 H1112 0.999 . S
C1110 H1080 0.950 . S
C1110 C1109 1.524 . S
C1110 C1111 1.415 . S
C1111 H1081 0.950 . S
C1111 C1106 1.363 . S
C1111 C1110 1.415 . S
H1112 C1109 0.999 . S
H1113 C1094 0.913 . S
H1114 C1132 0.951 . S
H1115 C1134 0.951 . S
H1116 C1136 0.950 . S
H1117 C1137 0.950 . S
H1118 C1139 0.950 . S
H1119 C1142 0.950 . S
H1120 C1143 0.950 . S
H1121 C1145 0.950 . S
H1122 C1146 0.950 . S
H1123 C1147 0.951 . S
H1124 C1149 0.951 . S
H1125 C1151 0.950 . S
H1126 C1152 0.950 . S
H1127 C1154 0.950 . S
H1128 C1157 0.950 . S
H1129 C1158 0.950 . S
H1130 C1160 0.950 . S
H1131 C1161 0.950 . S
C1132 H1114 0.951 . S
C1132 C1133 1.366 . S
C1132 C1134 1.388 . S
C1133 C1132 1.366 . S
C1133 C1137 1.385 . S
C1134 H1115 0.951 . S
C1134 C1132 1.388 . S
C1134 C1135 1.366 . S
C1135 C1134 1.366 . S
C1135 C1136 1.414 . S
C1135 C1138 1.499 . S
C1136 H1116 0.950 . S
C1136 C1135 1.414 . S
C1136 C1137 1.374 . S
C1137 H1117 0.950 . S
C1137 C1133 1.385 . S
C1137 C1136 1.374 . S
C1138 C1135 1.499 . S
C1138 C1139 1.373 . S
C1138 C1140 1.389 . S
C1139 H1118 0.950 . S
C1139 C1138 1.373 . S
C1139 C1155 1.377 . S
C1140 C1138 1.389 . S
C1140 C1141 1.524 . S
C1140 C1154 1.377 . S
C1141 C1140 1.524 . S
C1141 C1142 1.397 . S
C1141 C1146 1.363 . S
C1142 H1119 0.950 . S
C1142 C1141 1.397 . S
C1142 C1143 1.334 . S
C1143 H1120 0.950 . S
C1143 C1142 1.334 . S
C1143 C1144 1.287 . S
C1144 C1143 1.287 . S
C1144 C1145 1.524 . S
C1144 H1163 0.913 . S
C1145 H1121 0.950 . S
C1145 C1144 1.524 . S
C1145 C1146 1.415 . S
C1146 H1122 0.950 . S
C1146 C1141 1.363 . S
C1146 C1145 1.415 . S
C1147 H1123 0.951 . S
C1147 C1148 1.366 . S
C1147 C1149 1.388 . S
C1148 C1147 1.366 . S
C1148 C1152 1.385 . S
C1149 H1124 0.951 . S
C1149 C1147 1.388 . S
C1149 C1150 1.366 . S
C1150 C1149 1.366 . S
C1150 C1151 1.414 . S
C1150 C1153 1.499 . S
C1151 H1125 0.950 . S
C1151 C1150 1.414 . S
C1151 C1152 1.374 . S
C1152 H1126 0.950 . S
C1152 C1148 1.385 . S
C1152 C1151 1.374 . S
C1153 C1150 1.499 . S
C1153 C1154 1.373 . S
C1153 C1155 1.389 . S
C1154 H1127 0.950 . S
C1154 C1140 1.377 . S
C1154 C1153 1.373 . S
C1155 C1139 1.377 . S
C1155 C1153 1.389 . S
C1155 C1156 1.524 . S
C1156 C1155 1.524 . S
C1156 C1157 1.397 . S
C1156 C1161 1.363 . S
C1157 H1128 0.950 . S
C1157 C1156 1.397 . S
C1157 C1158 1.334 . S
C1158 H1129 0.950 . S
C1158 C1157 1.334 . S
C1158 C1159 1.287 . S
C1159 C1158 1.287 . S
C1159 C1160 1.524 . S
C1159 H1162 0.999 . S
C1160 H1130 0.950 . S
C1160 C1159 1.524 . S
C1160 C1161 1.415 . S
C1161 H1131 0.950 . S
C1161 C1156 1.363 . S
C1161 C1160 1.415 . S
H1162 C1159 0.999 . S
H1163 C1144 0.913 . S
H1164 C1182 0.951 . S
H1165 C1184 0.951 . S
H1166 C1186 0.950 . S
H1167 C1187 0.950 . S
H1168 C1189 0.950 . S
H1169 C1192 0.950 . S
H1170 C1193 0.950 . S
H1171 C1195 0.950 . S
H1172 C1196 0.950 . S
H1173 C1197 0.951 . S
H1174 C1199 0.951 . S
H1175 C1201 0.950 . S
H1176 C1202 0.950 . S
H1177 C1204 0.950 . S
H1178 C1207 0.950 . S
H1179 C1208 0.950 . S
H1180 C1210 0.950 . S
H1181 C1211 0.950 . S
C1182 H1164 0.951 . S
C1182 C1183 1.366 . S
C1182 C1184 1.388 . S
C1183 C1182 1.366 . S
C1183 C1187 1.385 . S
C1184 H1165 0.951 . S
C1184 C1182 1.388 . S
C1184 C1185 1.366 . S
C1185 C1184 1.366 . S
C1185 C1186 1.414 . S
C1185 C1188 1.499 . S
C1186 H1166 0.950 . S
C1186 C1185 1.414 . S
C1186 C1187 1.374 . S
C1187 H1167 0.950 . S
C1187 C1183 1.385 . S
C1187 C1186 1.374 . S
C1188 C1185 1.499 . S
C1188 C1189 1.373 . S
C1188 C1190 1.389 . S
C1189 H1168 0.950 . S
C1189 C1188 1.373 . S
C1189 C1205 1.377 . S
C1190 C1188 1.389 . S
C1190 C1191 1.524 . S
C1190 C1204 1.377 . S
C1191 C1190 1.524 . S
C1191 C1192 1.397 . S
C1191 C1196 1.363 . S
C1192 H1169 0.950 . S
C1192 C1191 1.397 . S
C1192 C1193 1.334 . S
C1193 H1170 0.950 . S
C1193 C1192 1.334 . S
C1193 C1194 1.287 . S
C1194 C1193 1.287 . S
C1194 C1195 1.524 . S
C1194 H1213 0.913 . S
C1195 H1171 0.950 . S
C1195 C1194 1.524 . S
C1195 C1196 1.415 . S
C1196 H1172 0.950 . S
C1196 C1191 1.363 . S
C1196 C1195 1.415 . S
C1197 H1173 0.951 . S
C1197 C1198 1.366 . S
C1197 C1199 1.388 . S
C1198 C1197 1.366 . S
C1198 C1202 1.385 . S
C1199 H1174 0.951 . S
C1199 C1197 1.388 . S
C1199 C1200 1.366 . S
C1200 C1199 1.366 . S
C1200 C1201 1.414 . S
C1200 C1203 1.499 . S
C1201 H1175 0.950 . S
C1201 C1200 1.414 . S
C1201 C1202 1.374 . S
C1202 H1176 0.950 . S
C1202 C1198 1.385 . S
C1202 C1201 1.374 . S
C1203 C1200 1.499 . S
C1203 C1204 1.373 . S
C1203 C1205 1.389 . S
C1204 H1177 0.950 . S
C1204 C1190 1.377 . S
C1204 C1203 1.373 . S
C1205 C1189 1.377 . S
C1205 C1203 1.389 . S
C1205 C1206 1.524 . S
C1206 C1205 1.524 . S
C1206 C1207 1.397 . S
C1206 C1211 1.363 . S
C1207 H1178 0.950 . S
C1207 C1206 1.397 . S
C1207 C1208 1.334 . S
C1208 H1179 0.950 . S
C1208 C1207 1.334 . S
C1208 C1209 1.287 . S
C1209 C1208 1.287 . S
C1209 C1210 1.524 . S
C1209 H1212 0.999 . S
C1210 H1180 0.950 . S
C1210 C1209 1.524 . S
C1210 C1211 1.415 . S
C1211 H1181 0.950 . S
C1211 C1206 1.363 . S
C1211 C1210 1.415 . S
H1212 C1209 0.999 . S
H1213 C1194 0.913 . S
H1214 C1232 0.951 . S
H1215 C1234 0.951 . S
H1216 C1236 0.950 . S
H1217 C1237 0.950 . S
H1218 C1239 0.950 . S
H1219 C1242 0.950 . S
H1220 C1243 0.950 . S
H1221 C1245 0.950 . S
H1222 C1246 0.950 . S
H1223 C1247 0.951 . S
H1224 C1249 0.951 . S
H1225 C1251 0.950 . S
H1226 C1252 0.950 . S
H1227 C1254 0.950 . S
H1228 C1257 0.950 . S
H1229 C1258 0.950 . S
H1230 C1260 0.950 . S
H1231 C1261 0.950 . S
C1232 H1214 0.951 . S
C1232 C1233 1.366 . S
C1232 C1234 1.388 . S
C1233 C1232 1.366 . S
C1233 C1237 1.385 . S
C1234 H1215 0.951 . S
C1234 C1232 1.388 . S
C1234 C1235 1.366 . S
C1235 C1234 1.366 . S
C1235 C1236 1.414 . S
C1235 C1238 1.499 . S
C1236 H1216 0.950 . S
C1236 C1235 1.414 . S
C1236 C1237 1.374 . S
C1237 H1217 0.950 . S
C1237 C1233 1.385 . S
C1237 C1236 1.374 . S
C1238 C1235 1.499 . S
C1238 C1239 1.373 . S
C1238 C1240 1.389 . S
C1239 H1218 0.950 . S
C1239 C1238 1.373 . S
C1239 C1255 1.377 . S
C1240 C1238 1.389 . S
C1240 C1241 1.524 . S
C1240 C1254 1.377 . S
C1241 C1240 1.524 . S
C1241 C1242 1.397 . S
C1241 C1246 1.363 . S
C1242 H1219 0.950 . S
C1242 C1241 1.397 . S
C1242 C1243 1.334 . S
C1243 H1220 0.950 . S
C1243 C1242 1.334 . S
C1243 C1244 1.287 . S
C1244 C1243 1.287 . S
C1244 C1245 1.524 . S
C1244 H1263 0.913 . S
C1245 H1221 0.950 . S
C1245 C1244 1.524 . S
C1245 C1246 1.415 . S
C1246 H1222 0.950 . S
C1246 C1241 1.363 . S
C1246 C1245 1.415 . S
C1247 H1223 0.951 . S
C1247 C1248 1.366 . S
C1247 C1249 1.388 . S
C1248 C1247 1.366 . S
C1248 C1252 1.385 . S
C1249 H1224 0.951 . S
C1249 C1247 1.388 . S
C1249 C1250 1.366 . S
C1250 C1249 1.366 . S
C1250 C1251 1.414 . S
C1250 C1253 1.499 . S
C1251 H1225 0.950 . S
C1251 C1250 1.414 . S
C1251 C1252 1.374 . S
C1252 H1226 0.950 . S
C1252 C1248 1.385 . S
C1252 C1251 1.374 . S
C1253 C1250 1.499 . S
C1253 C1254 1.373 . S
C1253 C1255 1.389 . S
C1254 H1227 0.950 . S
C1254 C1240 1.377 . S
C1254 C1253 1.373 . S
C1255 C1239 1.377 . S
C1255 C1253 1.389 . S
C1255 C1256 1.524 . S
C1256 C1255 1.524 . S
C1256 C1257 1.397 . S
C1256 C1261 1.363 . S
C1257 H1228 0.950 . S
C1257 C1256 1.397 . S
C1257 C1258 1.334 . S
C1258 H1229 0.950 . S
C1258 C1257 1.334 . S
C1258 C1259 1.287 . S
C1259 C1258 1.287 . S
C1259 C1260 1.524 . S
C1259 H1262 0.999 . S
C1260 H1230 0.950 . S
C1260 C1259 1.524 . S
C1260 C1261 1.415 . S
C1261 H1231 0.950 . S
C1261 C1256 1.363 . S
C1261 C1260 1.415 . S
H1262 C1259 0.999 . S
H1263 C1244 0.913 . S
H1264 C1282 0.951 . S
H1265 C1284 0.951 . S
H1266 C1286 0.950 . S
H1267 C1287 0.950 . S
H1268 C1289 0.950 . S
H1269 C1292 0.950 . S
H1270 C1293 0.950 . S
H1271 C1295 0.950 . S
H1272 C1296 0.950 . S
H1273 C1297 0.951 . S
H1274 C1299 0.951 . S
H1275 C1301 0.950 . S
H1276 C1302 0.950 . S
H1277 C1304 0.950 . S
H1278 C1307 0.950 . S
H1279 C1308 0.950 . S
H1280 C1310 0.950 . S
H1281 C1311 0.950 . S
C1282 H1264 0.951 . S
C1282 C1283 1.366 . S
C1282 C1284 1.388 . S
C1283 C1282 1.366 . S
C1283 C1287 1.385 . S
C1284 H1265 0.951 . S
C1284 C1282 1.388 . S
C1284 C1285 1.366 . S
C1285 C1284 1.366 . S
C1285 C1286 1.414 . S
C1285 C1288 1.499 . S
C1286 H1266 0.950 . S
C1286 C1285 1.414 . S
C1286 C1287 1.374 . S
C1287 H1267 0.950 . S
C1287 C1283 1.385 . S
C1287 C1286 1.374 . S
C1288 C1285 1.499 . S
C1288 C1289 1.373 . S
C1288 C1290 1.389 . S
C1289 H1268 0.950 . S
C1289 C1288 1.373 . S
C1289 C1305 1.377 . S
C1290 C1288 1.389 . S
C1290 C1291 1.524 . S
C1290 C1304 1.377 . S
C1291 C1290 1.524 . S
C1291 C1292 1.397 . S
C1291 C1296 1.363 . S
C1292 H1269 0.950 . S
C1292 C1291 1.397 . S
C1292 C1293 1.334 . S
C1293 H1270 0.950 . S
C1293 C1292 1.334 . S
C1293 C1294 1.287 . S
C1294 C1293 1.287 . S
C1294 C1295 1.524 . S
C1294 H1313 0.913 . S
C1295 H1271 0.950 . S
C1295 C1294 1.524 . S
C1295 C1296 1.415 . S
C1296 H1272 0.950 . S
C1296 C1291 1.363 . S
C1296 C1295 1.415 . S
C1297 H1273 0.951 . S
C1297 C1298 1.366 . S
C1297 C1299 1.388 . S
C1298 C1297 1.366 . S
C1298 C1302 1.385 . S
C1299 H1274 0.951 . S
C1299 C1297 1.388 . S
C1299 C1300 1.366 . S
C1300 C1299 1.366 . S
C1300 C1301 1.414 . S
C1300 C1303 1.499 . S
C1301 H1275 0.950 . S
C1301 C1300 1.414 . S
C1301 C1302 1.374 . S
C1302 H1276 0.950 . S
C1302 C1298 1.385 . S
C1302 C1301 1.374 . S
C1303 C1300 1.499 . S
C1303 C1304 1.373 . S
C1303 C1305 1.389 . S
C1304 H1277 0.950 . S
C1304 C1290 1.377 . S
C1304 C1303 1.373 . S
C1305 C1289 1.377 . S
C1305 C1303 1.389 . S
C1305 C1306 1.524 . S
C1306 C1305 1.524 . S
C1306 C1307 1.397 . S
C1306 C1311 1.363 . S
C1307 H1278 0.950 . S
C1307 C1306 1.397 . S
C1307 C1308 1.334 . S
C1308 H1279 0.950 . S
C1308 C1307 1.334 . S
C1308 C1309 1.287 . S
C1309 C1308 1.287 . S
C1309 C1310 1.524 . S
C1309 H1312 0.999 . S
C1310 H1280 0.950 . S
C1310 C1309 1.524 . S
C1310 C1311 1.415 . S
C1311 H1281 0.950 . S
C1311 C1306 1.363 . S
C1311 C1310 1.415 . S
H1312 C1309 0.999 . S
H1313 C1294 0.913 . S
H1314 C1332 0.951 . S
H1315 C1334 0.951 . S
H1316 C1336 0.950 . S
H1317 C1337 0.950 . S
H1318 C1339 0.950 . S
H1319 C1342 0.950 . S
H1320 C1343 0.950 . S
H1321 C1345 0.950 . S
H1322 C1346 0.950 . S
H1323 C1347 0.951 . S
H1324 C1349 0.951 . S
H1325 C1351 0.950 . S
H1326 C1352 0.950 . S
H1327 C1354 0.950 . S
H1328 C1357 0.950 . S
H1329 C1358 0.950 . S
H1330 C1360 0.950 . S
H1331 C1361 0.950 . S
C1332 H1314 0.951 . S
C1332 C1333 1.366 . S
C1332 C1334 1.388 . S
C1333 C1332 1.366 . S
C1333 C1337 1.385 . S
C1334 H1315 0.951 . S
C1334 C1332 1.388 . S
C1334 C1335 1.366 . S
C1335 C1334 1.366 . S
C1335 C1336 1.414 . S
C1335 C1338 1.499 . S
C1336 H1316 0.950 . S
C1336 C1335 1.414 . S
C1336 C1337 1.374 . S
C1337 H1317 0.950 . S
C1337 C1333 1.385 . S
C1337 C1336 1.374 . S
C1338 C1335 1.499 . S
C1338 C1339 1.373 . S
C1338 C1340 1.389 . S
C1339 H1318 0.950 . S
C1339 C1338 1.373 . S
C1339 C1355 1.377 . S
C1340 C1338 1.389 . S
C1340 C1341 1.524 . S
C1340 C1354 1.377 . S
C1341 C1340 1.524 . S
C1341 C1342 1.397 . S
C1341 C1346 1.363 . S
C1342 H1319 0.950 . S
C1342 C1341 1.397 . S
C1342 C1343 1.334 . S
C1343 H1320 0.950 . S
C1343 C1342 1.334 . S
C1343 C1344 1.287 . S
C1344 C1343 1.287 . S
C1344 C1345 1.524 . S
C1344 H1363 0.913 . S
C1345 H1321 0.950 . S
C1345 C1344 1.524 . S
C1345 C1346 1.415 . S
C1346 H1322 0.950 . S
C1346 C1341 1.363 . S
C1346 C1345 1.415 . S
C1347 H1323 0.951 . S
C1347 C1348 1.366 . S
C1347 C1349 1.388 . S
C1348 C1347 1.366 . S
C1348 C1352 1.385 . S
C1349 H1324 0.951 . S
C1349 C1347 1.388 . S
C1349 C1350 1.366 . S
C1350 C1349 1.366 . S
C1350 C1351 1.414 . S
C1350 C1353 1.499 . S
C1351 H1325 0.950 . S
C1351 C1350 1.414 . S
C1351 C1352 1.374 . S
C1352 H1326 0.950 . S
C1352 C1348 1.385 . S
C1352 C1351 1.374 . S
C1353 C1350 1.499 . S
C1353 C1354 1.373 . S
C1353 C1355 1.389 . S
C1354 H1327 0.950 . S
C1354 C1340 1.377 . S
C1354 C1353 1.373 . S
C1355 C1339 1.377 . S
C1355 C1353 1.389 . S
C1355 C1356 1.524 . S
C1356 C1355 1.524 . S
C1356 C1357 1.397 . S
C1356 C1361 1.363 . S
C1357 H1328 0.950 . S
C1357 C1356 1.397 . S
C1357 C1358 1.334 . S
C1358 H1329 0.950 . S
C1358 C1357 1.334 . S
C1358 C1359 1.287 . S
C1359 C1358 1.287 . S
C1359 C1360 1.524 . S
C1359 H1362 0.999 . S
C1360 H1330 0.950 . S
C1360 C1359 1.524 . S
C1360 C1361 1.415 . S
C1361 H1331 0.950 . S
C1361 C1356 1.363 . S
C1361 C1360 1.415 . S
H1362 C1359 0.999 . S
H1363 C1344 0.913 . S
H1364 C1382 0.951 . S
H1365 C1384 0.951 . S
H1366 C1386 0.950 . S
H1367 C1387 0.950 . S
H1368 C1389 0.950 . S
H1369 C1392 0.950 . S
H1370 C1393 0.950 . S
H1371 C1395 0.950 . S
H1372 C1396 0.950 . S
H1373 C1397 0.951 . S
H1374 C1399 0.951 . S
H1375 C1401 0.950 . S
H1376 C1402 0.950 . S
H1377 C1404 0.950 . S
H1378 C1407 0.950 . S
H1379 C1408 0.950 . S
H1380 C1410 0.950 . S
H1381 C1411 0.950 . S
C1382 H1364 0.951 . S
C1382 C1383 1.366 . S
C1382 C1384 1.388 . S
C1383 C1382 1.366 . S
C1383 C1387 1.385 . S
C1384 H1365 0.951 . S
C1384 C1382 1.388 . S
C1384 C1385 1.366 . S
C1385 C1384 1.366 . S
C1385 C1386 1.414 . S
C1385 C1388 1.499 . S
C1386 H1366 0.950 . S
C1386 C1385 1.414 . S
C1386 C1387 1.374 . S
C1387 H1367 0.950 . S
C1387 C1383 1.385 . S
C1387 C1386 1.374 . S
C1388 C1385 1.499 . S
C1388 C1389 1.373 . S
C1388 C1390 1.389 . S
C1389 H1368 0.950 . S
C1389 C1388 1.373 . S
C1389 C1405 1.377 . S
C1390 C1388 1.389 . S
C1390 C1391 1.524 . S
C1390 C1404 1.377 . S
C1391 C1390 1.524 . S
C1391 C1392 1.397 . S
C1391 C1396 1.363 . S
C1392 H1369 0.950 . S
C1392 C1391 1.397 . S
C1392 C1393 1.334 . S
C1393 H1370 0.950 . S
C1393 C1392 1.334 . S
C1393 C1394 1.287 . S
C1394 C1393 1.287 . S
C1394 C1395 1.524 . S
C1394 H1413 0.913 . S
C1395 H1371 0.950 . S
C1395 C1394 1.524 . S
C1395 C1396 1.415 . S
C1396 H1372 0.950 . S
C1396 C1391 1.363 . S
C1396 C1395 1.415 . S
C1397 H1373 0.951 . S
C1397 C1398 1.366 . S
C1397 C1399 1.388 . S
C1398 C1397 1.366 . S
C1398 C1402 1.385 . S
C1399 H1374 0.951 . S
C1399 C1397 1.388 . S
C1399 C1400 1.366 . S
C1400 C1399 1.366 . S
C1400 C1401 1.414 . S
C1400 C1403 1.499 . S
C1401 H1375 0.950 . S
C1401 C1400 1.414 . S
C1401 C1402 1.374 . S
C1402 H1376 0.950 . S
C1402 C1398 1.385 . S
C1402 C1401 1.374 . S
C1403 C1400 1.499 . S
C1403 C1404 1.373 . S
C1403 C1405 1.389 . S
C1404 H1377 0.950 . S
C1404 C1390 1.377 . S
C1404 C1403 1.373 . S
C1405 C1389 1.377 . S
C1405 C1403 1.389 . S
C1405 C1406 1.524 . S
C1406 C1405 1.524 . S
C1406 C1407 1.397 . S
C1406 C1411 1.363 . S
C1407 H1378 0.950 . S
C1407 C1406 1.397 . S
C1407 C1408 1.334 . S
C1408 H1379 0.950 . S
C1408 C1407 1.334 . S
C1408 C1409 1.287 . S
C1409 C1408 1.287 . S
C1409 C1410 1.524 . S
C1409 H1412 0.999 . S
C1410 H1380 0.950 . S
C1410 C1409 1.524 . S
C1410 C1411 1.415 . S
C1411 H1381 0.950 . S
C1411 C1406 1.363 . S
C1411 C1410 1.415 . S
H1412 C1409 0.999 . S
H1413 C1394 0.913 . S
H1414 C1432 0.951 . S
H1415 C1434 0.951 . S
H1416 C1436 0.950 . S
H1417 C1437 0.950 . S
H1418 C1439 0.950 . S
H1419 C1442 0.950 . S
H1420 C1443 0.950 . S
H1421 C1445 0.950 . S
H1422 C1446 0.950 . S
H1423 C1447 0.951 . S
H1424 C1449 0.951 . S
H1425 C1451 0.950 . S
H1426 C1452 0.950 . S
H1427 C1454 0.950 . S
H1428 C1457 0.950 . S
H1429 C1458 0.950 . S
H1430 C1460 0.950 . S
H1431 C1461 0.950 . S
C1432 H1414 0.951 . S
C1432 C1433 1.366 . S
C1432 C1434 1.388 . S
C1433 C1432 1.366 . S
C1433 C1437 1.385 . S
C1434 H1415 0.951 . S
C1434 C1432 1.388 . S
C1434 C1435 1.366 . S
C1435 C1434 1.366 . S
C1435 C1436 1.414 . S
C1435 C1438 1.499 . S
C1436 H1416 0.950 . S
C1436 C1435 1.414 . S
C1436 C1437 1.374 . S
C1437 H1417 0.950 . S
C1437 C1433 1.385 . S
C1437 C1436 1.374 . S
C1438 C1435 1.499 . S
C1438 C1439 1.373 . S
C1438 C1440 1.389 . S
C1439 H1418 0.950 . S
C1439 C1438 1.373 . S
C1439 C1455 1.377 . S
C1440 C1438 1.389 . S
C1440 C1441 1.524 . S
C1440 C1454 1.377 . S
C1441 C1440 1.524 . S
C1441 C1442 1.397 . S
C1441 C1446 1.363 . S
C1442 H1419 0.950 . S
C1442 C1441 1.397 . S
C1442 C1443 1.334 . S
C1443 H1420 0.950 . S
C1443 C1442 1.334 . S
C1443 C1444 1.287 . S
C1444 C1443 1.287 . S
C1444 C1445 1.524 . S
C1444 H1463 0.913 . S
C1445 H1421 0.950 . S
C1445 C1444 1.524 . S
C1445 C1446 1.415 . S
C1446 H1422 0.950 . S
C1446 C1441 1.363 . S
C1446 C1445 1.415 . S
C1447 H1423 0.951 . S
C1447 C1448 1.366 . S
C1447 C1449 1.388 . S
C1448 C1447 1.366 . S
C1448 C1452 1.385 . S
C1449 H1424 0.951 . S
C1449 C1447 1.388 . S
C1449 C1450 1.366 . S
C1450 C1449 1.366 . S
C1450 C1451 1.414 . S
C1450 C1453 1.499 . S
C1451 H1425 0.950 . S
C1451 C1450 1.414 . S
C1451 C1452 1.374 . S
C1452 H1426 0.950 . S
C1452 C1448 1.385 . S
C1452 C1451 1.374 . S
C1453 C1450 1.499 . S
C1453 C1454 1.373 . S
C1453 C1455 1.389 . S
C1454 H1427 0.950 . S
C1454 C1440 1.377 . S
C1454 C1453 1.373 . S
C1455 C1439 1.377 . S
C1455 C1453 1.389 . S
C1455 C1456 1.524 . S
C1456 C1455 1.524 . S
C1456 C1457 1.397 . S
C1456 C1461 1.363 . S
C1457 H1428 0.950 . S
C1457 C1456 1.397 . S
C1457 C1458 1.334 . S
C1458 H1429 0.950 . S
C1458 C1457 1.334 . S
C1458 C1459 1.287 . S
C1459 C1458 1.287 . S
C1459 C1460 1.524 . S
C1459 H1462 0.999 . S
C1460 H1430 0.950 . S
C1460 C1459 1.524 . S
C1460 C1461 1.415 . S
C1461 H1431 0.950 . S
C1461 C1456 1.363 . S
C1461 C1460 1.415 . S
H1462 C1459 0.999 . S
H1463 C1444 0.913 . S
C283 C7 1.747 . S
C298 C147 1.601 . S
C333 C30 1.543 . S
C348 C168 1.416 . S
C398 C189 1.502 . S
C383 N58 1.603 . S
C448 C218 1.373 . S
C433 N81 1.394 . S
C498 C231 1.516 . S
C483 C99 1.631 . S
C548 C255 1.384 . S
C533 N127 1.419 . S
C583 N25 1.588 . S
C598 C199 1.505 . S
C633 C62 1.533 1_556 S
C648 C213 1.458 . S
C698 C241 1.575 . S
C683 C85 1.691 . S
C748 C260 1.401 . S
C733 N94 1.438 . S
C783 C131 1.662 . S
C798 C157 1.562 . S
C848 C178 1.331 . S
C833 N2 1.390 . S
C898 C220 1.642 . S
C883 C16 1.728 . S
C933 C39 1.542 . S
C948 C234 1.381 . S
C998 C252 1.583 . S
C983 N48 1.626 . S
C1033 N71 1.425 . S
C1048 C150 1.312 . S
C1083 C108 1.674 . S
C1098 C171 1.517 . S
C1133 N117 1.449 . S
C1148 C192 1.316 . S
C1183 N35 1.613 . S
C1198 C262 1.579 . S
C1248 C155 1.422 . S
C1233 C53 1.579 . S
C1283 C76 1.765 . S
C1298 C176 1.588 . S
C1333 N104 1.455 . S
C1348 C197 1.333 . S
C1383 C122 1.659 . S
C1398 C210 1.588 . S
C1433 N12 1.398 . S
C1448 C239 1.302 . S
