# Generated by pormake.
# Topology ptr, (4,4)-cn, num edge types: 1
# Building blocks:
#     Node 0, Type 0, BuildingBlock: TATPOV_clean_sbu_0, # of connection points: 4
#     Node 1, Type 0, BuildingBlock: TATPOV_clean_sbu_0, # of connection points: 4
#     Node 2, Type 0, BuildingBlock: TATPOV_clean_sbu_0, # of connection points: 4
#     Node 3, Type 0, BuildingBlock: TATPOV_clean_sbu_0, # of connection points: 4
#     Node 4, Type 0, BuildingBlock: TATPOV_clean_sbu_0, # of connection points: 4
#     Node 5, Type 0, BuildingBlock: TATPOV_clean_sbu_0, # of connection points: 4
#     Node 6, Type 0, BuildingBlock: TATPOV_clean_sbu_0, # of connection points: 4
#     Node 7, Type 0, BuildingBlock: TATPOV_clean_sbu_0, # of connection points: 4
#     Node 8, Type 0, BuildingBlock: TATPOV_clean_sbu_0, # of connection points: 4
#     Node 9, Type 0, BuildingBlock: TATPOV_clean_sbu_0, # of connection points: 4
#     Node 10, Type 0, BuildingBlock: TATPOV_clean_sbu_0, # of connection points: 4
#     Node 11, Type 0, BuildingBlock: TATPOV_clean_sbu_0, # of connection points: 4
#     Node 12, Type 0, BuildingBlock: TATPOV_clean_sbu_0, # of connection points: 4
#     Node 13, Type 0, BuildingBlock: TATPOV_clean_sbu_0, # of connection points: 4
#     Node 14, Type 0, BuildingBlock: TATPOV_clean_sbu_0, # of connection points: 4
#     Node 15, Type 0, BuildingBlock: TATPOV_clean_sbu_0, # of connection points: 4
#     Node 16, Type 0, BuildingBlock: TATPOV_clean_sbu_0, # of connection points: 4
#     Node 17, Type 0, BuildingBlock: TATPOV_clean_sbu_0, # of connection points: 4
#     Node 18, Type 1, BuildingBlock: KUFVIS_clean_linker_0, # of connection points: 4
#     Node 19, Type 1, BuildingBlock: KUFVIS_clean_linker_0, # of connection points: 4
#     Node 20, Type 1, BuildingBlock: KUFVIS_clean_linker_0, # of connection points: 4
#     Node 21, Type 1, BuildingBlock: KUFVIS_clean_linker_0, # of connection points: 4
#     Node 22, Type 1, BuildingBlock: KUFVIS_clean_linker_0, # of connection points: 4
#     Node 23, Type 1, BuildingBlock: KUFVIS_clean_linker_0, # of connection points: 4
#     Node 24, Type 1, BuildingBlock: KUFVIS_clean_linker_0, # of connection points: 4
#     Node 25, Type 1, BuildingBlock: KUFVIS_clean_linker_0, # of connection points: 4
#     Node 26, Type 1, BuildingBlock: KUFVIS_clean_linker_0, # of connection points: 4
#     Node 27, Type 1, BuildingBlock: KUFVIS_clean_linker_0, # of connection points: 4
#     Node 28, Type 1, BuildingBlock: KUFVIS_clean_linker_0, # of connection points: 4
#     Node 29, Type 1, BuildingBlock: KUFVIS_clean_linker_0, # of connection points: 4
#     Node 30, Type 1, BuildingBlock: KUFVIS_clean_linker_0, # of connection points: 4
#     Node 31, Type 1, BuildingBlock: KUFVIS_clean_linker_0, # of connection points: 4
#     Node 32, Type 1, BuildingBlock: KUFVIS_clean_linker_0, # of connection points: 4
#     Node 33, Type 1, BuildingBlock: KUFVIS_clean_linker_0, # of connection points: 4
#     Node 34, Type 1, BuildingBlock: KUFVIS_clean_linker_0, # of connection points: 4
#     Node 35, Type 1, BuildingBlock: KUFVIS_clean_linker_0, # of connection points: 4
#     Edge 36, Type (0, 1), BuildingBlock: XIVTED_clean_linker_0, # of connection points: 2
#     Edge 37, Type (0, 1), BuildingBlock: XIVTED_clean_linker_0, # of connection points: 2
#     Edge 38, Type (0, 1), BuildingBlock: XIVTED_clean_linker_0, # of connection points: 2
#     Edge 39, Type (0, 1), BuildingBlock: XIVTED_clean_linker_0, # of connection points: 2
#     Edge 40, Type (0, 1), BuildingBlock: XIVTED_clean_linker_0, # of connection points: 2
#     Edge 41, Type (0, 1), BuildingBlock: XIVTED_clean_linker_0, # of connection points: 2
#     Edge 42, Type (0, 1), BuildingBlock: XIVTED_clean_linker_0, # of connection points: 2
#     Edge 43, Type (0, 1), BuildingBlock: XIVTED_clean_linker_0, # of connection points: 2
#     Edge 44, Type (0, 1), BuildingBlock: XIVTED_clean_linker_0, # of connection points: 2
#     Edge 45, Type (0, 1), BuildingBlock: XIVTED_clean_linker_0, # of connection points: 2
#     Edge 46, Type (0, 1), BuildingBlock: XIVTED_clean_linker_0, # of connection points: 2
#     Edge 47, Type (0, 1), BuildingBlock: XIVTED_clean_linker_0, # of connection points: 2
#     Edge 48, Type (0, 1), BuildingBlock: XIVTED_clean_linker_0, # of connection points: 2
#     Edge 49, Type (0, 1), BuildingBlock: XIVTED_clean_linker_0, # of connection points: 2
#     Edge 50, Type (0, 1), BuildingBlock: XIVTED_clean_linker_0, # of connection points: 2
#     Edge 51, Type (0, 1), BuildingBlock: XIVTED_clean_linker_0, # of connection points: 2
#     Edge 52, Type (0, 1), BuildingBlock: XIVTED_clean_linker_0, # of connection points: 2
#     Edge 53, Type (0, 1), BuildingBlock: XIVTED_clean_linker_0, # of connection points: 2
#     Edge 54, Type (0, 1), BuildingBlock: XIVTED_clean_linker_0, # of connection points: 2
#     Edge 55, Type (0, 1), BuildingBlock: XIVTED_clean_linker_0, # of connection points: 2
#     Edge 56, Type (0, 1), BuildingBlock: XIVTED_clean_linker_0, # of connection points: 2
#     Edge 57, Type (0, 1), BuildingBlock: XIVTED_clean_linker_0, # of connection points: 2
#     Edge 58, Type (0, 1), BuildingBlock: XIVTED_clean_linker_0, # of connection points: 2
#     Edge 59, Type (0, 1), BuildingBlock: XIVTED_clean_linker_0, # of connection points: 2
#     Edge 60, Type (0, 1), BuildingBlock: XIVTED_clean_linker_0, # of connection points: 2
#     Edge 61, Type (0, 1), BuildingBlock: XIVTED_clean_linker_0, # of connection points: 2
#     Edge 62, Type (0, 1), BuildingBlock: XIVTED_clean_linker_0, # of connection points: 2
#     Edge 63, Type (0, 1), BuildingBlock: XIVTED_clean_linker_0, # of connection points: 2
#     Edge 64, Type (0, 1), BuildingBlock: XIVTED_clean_linker_0, # of connection points: 2
#     Edge 65, Type (0, 1), BuildingBlock: XIVTED_clean_linker_0, # of connection points: 2
#     Edge 66, Type (0, 1), BuildingBlock: XIVTED_clean_linker_0, # of connection points: 2
#     Edge 67, Type (0, 1), BuildingBlock: XIVTED_clean_linker_0, # of connection points: 2
#     Edge 68, Type (0, 1), BuildingBlock: XIVTED_clean_linker_0, # of connection points: 2
#     Edge 69, Type (0, 1), BuildingBlock: XIVTED_clean_linker_0, # of connection points: 2
#     Edge 70, Type (0, 1), BuildingBlock: XIVTED_clean_linker_0, # of connection points: 2
#     Edge 71, Type (0, 1), BuildingBlock: XIVTED_clean_linker_0, # of connection points: 2
#     Edge 72, Type (0, 1), BuildingBlock: XIVTED_clean_linker_0, # of connection points: 2
#     Edge 73, Type (0, 1), BuildingBlock: XIVTED_clean_linker_0, # of connection points: 2
#     Edge 74, Type (0, 1), BuildingBlock: XIVTED_clean_linker_0, # of connection points: 2
#     Edge 75, Type (0, 1), BuildingBlock: XIVTED_clean_linker_0, # of connection points: 2
#     Edge 76, Type (0, 1), BuildingBlock: XIVTED_clean_linker_0, # of connection points: 2
#     Edge 77, Type (0, 1), BuildingBlock: XIVTED_clean_linker_0, # of connection points: 2
#     Edge 78, Type (0, 1), BuildingBlock: XIVTED_clean_linker_0, # of connection points: 2
#     Edge 79, Type (0, 1), BuildingBlock: XIVTED_clean_linker_0, # of connection points: 2
#     Edge 80, Type (0, 1), BuildingBlock: XIVTED_clean_linker_0, # of connection points: 2
#     Edge 81, Type (0, 1), BuildingBlock: XIVTED_clean_linker_0, # of connection points: 2
#     Edge 82, Type (0, 1), BuildingBlock: XIVTED_clean_linker_0, # of connection points: 2
#     Edge 83, Type (0, 1), BuildingBlock: XIVTED_clean_linker_0, # of connection points: 2
#     Edge 84, Type (0, 1), BuildingBlock: XIVTED_clean_linker_0, # of connection points: 2
#     Edge 85, Type (0, 1), BuildingBlock: XIVTED_clean_linker_0, # of connection points: 2
#     Edge 86, Type (0, 1), BuildingBlock: XIVTED_clean_linker_0, # of connection points: 2
#     Edge 87, Type (0, 1), BuildingBlock: XIVTED_clean_linker_0, # of connection points: 2
#     Edge 88, Type (0, 1), BuildingBlock: XIVTED_clean_linker_0, # of connection points: 2
#     Edge 89, Type (0, 1), BuildingBlock: XIVTED_clean_linker_0, # of connection points: 2
#     Edge 90, Type (0, 1), BuildingBlock: XIVTED_clean_linker_0, # of connection points: 2
#     Edge 91, Type (0, 1), BuildingBlock: XIVTED_clean_linker_0, # of connection points: 2
#     Edge 92, Type (0, 1), BuildingBlock: XIVTED_clean_linker_0, # of connection points: 2
#     Edge 93, Type (0, 1), BuildingBlock: XIVTED_clean_linker_0, # of connection points: 2
#     Edge 94, Type (0, 1), BuildingBlock: XIVTED_clean_linker_0, # of connection points: 2
#     Edge 95, Type (0, 1), BuildingBlock: XIVTED_clean_linker_0, # of connection points: 2
#     Edge 96, Type (0, 1), BuildingBlock: XIVTED_clean_linker_0, # of connection points: 2
#     Edge 97, Type (0, 1), BuildingBlock: XIVTED_clean_linker_0, # of connection points: 2
#     Edge 98, Type (0, 1), BuildingBlock: XIVTED_clean_linker_0, # of connection points: 2
#     Edge 99, Type (0, 1), BuildingBlock: XIVTED_clean_linker_0, # of connection points: 2
#     Edge 100, Type (0, 1), BuildingBlock: XIVTED_clean_linker_0, # of connection points: 2
#     Edge 101, Type (0, 1), BuildingBlock: XIVTED_clean_linker_0, # of connection points: 2
#     Edge 102, Type (0, 1), BuildingBlock: XIVTED_clean_linker_0, # of connection points: 2
#     Edge 103, Type (0, 1), BuildingBlock: XIVTED_clean_linker_0, # of connection points: 2
#     Edge 104, Type (0, 1), BuildingBlock: XIVTED_clean_linker_0, # of connection points: 2
#     Edge 105, Type (0, 1), BuildingBlock: XIVTED_clean_linker_0, # of connection points: 2
#     Edge 106, Type (0, 1), BuildingBlock: XIVTED_clean_linker_0, # of connection points: 2
#     Edge 107, Type (0, 1), BuildingBlock: XIVTED_clean_linker_0, # of connection points: 2
# Relax obj value: 0.070
# Max RMSD: 0.192
# Mean RMSD: 0.120
data_MOF--net-ptr--node1-TATPOV_clean_sbu_0--node2-KUFVIS_clean_linker_0--edge1-XIVTED_clean_linker_0
_symmetry_space_group_name_H-M    P1
_symmetry_Int_Tables_number       1
_symmetry_cell_setting            triclinic
loop_
_symmetry_equiv_pos_as_xyz
'x, y, z'
_cell_length_a     78.211848
_cell_length_b     79.196446
_cell_length_c     48.223785
_cell_angle_alpha  89.407057
_cell_angle_beta   91.353077
_cell_angle_gamma 121.24547
loop_
_atom_site_label
_atom_site_type_symbol
_atom_site_fract_x
_atom_site_fract_y
_atom_site_fract_z
_atom_type_partial_charge
Zn0 Zn 0.97754 0.37441 0.01414 0.0
Zn1 Zn 1.01305 0.37817 0.00955 0.0
O2 O 0.9928 0.34771 0.01077 0.0
O3 O 0.96357 0.34486 0.01625 0.0
O4 O 0.04011 0.38054 0.00838 0.0
O5 O 0.98635 0.39092 0.04855 0.0
O6 O 0.01599 0.39437 0.04487 0.0
C7 C 0.97391 0.3369 0.01382 0.0
C8 C 0.99807 0.39533 0.96474 0.0
O9 O 1.01169 0.39233 0.97401 0.0
O10 O 0.9819 0.38858 0.9777 0.0
C11 C 0.04365 0.36906 -0.00532 0.0
O12 O 0.0292 0.3549 0.97962 0.0
C13 C 1.00419 0.39825 0.05732 0.0
Zn14 Zn 0.65346 0.60949 0.00053 0.0
Zn15 Zn 0.6539 0.642 0.00819 0.0
O16 O 0.68426 0.65053 0.00676 0.0
O17 O 0.68289 0.62238 0.0004 0.0
O18 O 0.6543 0.66787 0.01256 0.0
O19 O 0.63948 0.59819 0.03568 0.0
O20 O 0.63944 0.62552 0.04338 0.0
C21 C 0.69309 0.64085 0.00406 0.0
C22 C 0.63055 0.61404 0.95876 0.0
O23 O 0.636 0.6298 0.97249 0.0
O24 O 0.63693 0.60285 0.96596 0.0
C25 C 0.66775 0.68429 0.00248 0.0
O26 O 0.68254 0.68503 0.98904 0.0
C27 C 0.63485 0.60812 0.05074 0.0
Zn28 Zn 0.38465 0.98085 0.01424 0.0
Zn29 Zn 0.38917 0.01653 0.01018 0.0
O30 O 0.35862 0.99725 0.01593 0.0
O31 O 0.35499 0.96772 0.01681 0.0
O32 O 0.39231 0.04362 0.0058 0.0
O33 O 0.39635 0.98337 0.97733 0.0
O34 O 0.40029 0.01291 0.9733 0.0
C35 C 0.34743 0.97847 0.01738 0.0
C36 C 0.41148 1.00799 0.05603 0.0
O37 O 0.40746 0.02001 0.04407 0.0
O38 O 0.40318 0.9903 0.04763 0.0
C39 C 0.3829 0.0495 0.02013 0.0
O40 O 0.37037 0.03764 0.03885 0.0
C41 C 0.40217 0.99903 0.96356 0.0
Zn42 Zn 0.06291 0.65184 -0.00361 0.0
Zn43 Zn 0.02868 0.65097 -0.00024 0.0
O44 O 0.05143 0.68055 -0.00087 0.0
O45 O 0.07988 0.68151 -0.00429 0.0
O46 O 1.00449 0.65398 0.00042 0.0
O47 O 0.05318 0.63597 0.96125 0.0
O48 O 0.0242 0.63407 0.96452 0.0
C49 C 0.07046 0.69047 -0.00256 0.0
C50 C 0.04011 0.63117 0.04498 0.0
O51 O 0.02764 0.63571 0.0355 0.0
O52 O 0.05623 0.63675 0.03239 0.0
C53 C 0.98635 0.64039 0.00353 0.0
O54 O 0.98195 0.6221 0.00707 0.0
C55 C 0.03551 0.62947 0.9522 0.0
Zn56 Zn 0.37098 0.41028 0.00284 0.0
Zn57 Zn 0.3725 0.37811 0.00101 0.0
O58 O 0.34215 0.36901 -0.00057 0.0
O59 O 0.34139 0.39636 -0.00253 0.0
O60 O 0.37084 0.35161 -0.00051 0.0
O61 O 0.38862 0.42108 0.97032 0.0
O62 O 0.38921 0.39371 0.96666 0.0
C63 C 0.33226 0.37771 -0.00265 0.0
C64 C 0.39082 0.40663 0.05074 0.0
O65 O 0.38781 0.39125 0.03794 0.0
O66 O 0.38397 0.41681 0.04063 0.0
C67 C 0.38416 0.34798 0.00789 0.0
O68 O 0.40111 0.36237 0.01842 0.0
C69 C 0.39456 0.41106 0.9581 0.0
Zn70 Zn 0.64847 0.04356 0.00622 0.0
Zn71 Zn 0.64589 0.00953 0.00276 0.0
O72 O 0.67662 0.03095 0.00471 0.0
O73 O 0.67808 0.0592 0.01034 0.0
O74 O 0.64585 0.98374 0.00118 0.0
O75 O 0.63142 0.03506 0.03939 0.0
O76 O 0.62948 1.00636 0.03803 0.0
C77 C 0.6869 0.04969 0.00817 0.0
C78 C 0.62811 0.02333 0.95646 0.0
O79 O 0.6308 0.00989 0.96664 0.0
O80 O 0.63513 0.03961 0.96908 0.0
C81 C 0.63013 0.9668 0.00396 0.0
O82 O 0.61292 0.96565 0.00722 0.0
C83 C 0.62487 0.01797 0.04922 0.0
Zn84 Zn 0.63798 0.71044 0.34904 0.0
Zn85 Zn 0.67178 0.71045 0.34425 0.0
O86 O 0.6495 0.68059 0.3459 0.0
O87 O 0.6216 0.68085 0.34889 0.0
O88 O 0.69791 0.71055 0.34304 0.0
O89 O 0.64728 0.72542 0.38446 0.0
O90 O 0.67618 0.72743 0.37949 0.0
C91 C 0.63045 0.67131 0.34753 0.0
C92 C 0.65926 0.73027 0.29996 0.0
O93 O 0.67112 0.72456 0.30808 0.0
O94 O 0.64414 0.72626 0.31399 0.0
C95 C 0.70012 0.69769 0.33068 0.0
O96 O 0.68482 0.68332 0.31703 0.0
C97 C 0.66509 0.7319 0.3927 0.0
Zn98 Zn 0.30633 0.93362 0.33042 0.0
Zn99 Zn 0.31129 0.96797 0.34393 0.0
O100 O 0.34039 0.97478 0.3352 0.0
O101 O 0.33521 0.94591 0.32207 0.0
O102 O 0.31362 0.99401 0.35411 0.0
O103 O 0.29726 0.9228 0.36813 0.0
O104 O 0.29979 0.95089 0.37948 0.0
C105 C 0.34714 0.96409 0.3269 0.0
C106 C 0.28107 0.94207 0.29785 0.0
O107 O 0.29027 0.95823 0.31149 0.0
O108 O 0.28543 0.92893 0.30187 0.0
C109 C 0.32176 0.00936 0.33888 0.0
O110 O 0.33022 0.00908 0.31581 0.0
C111 C 0.29523 0.93333 0.38572 0.0
Zn112 Zn 0.04853 0.31062 0.34702 0.0
Zn113 Zn 0.04898 0.34381 0.34339 0.0
O114 O 0.01907 0.32125 0.34794 0.0
O115 O 0.01929 0.29373 0.3527 0.0
O116 O 0.04625 0.36804 0.34 0.0
O117 O 0.05894 0.31384 0.30901 0.0
O118 O 0.06176 0.34295 0.30632 0.0
C119 C 1.00969 0.30254 0.35131 0.0
C120 C 0.0749 0.33883 0.38763 0.0
O121 O 0.06846 0.34944 0.37716 0.0
O122 O 0.06833 0.32156 0.3785 0.0
C123 C 0.05981 0.38584 0.34535 0.0
O124 O 0.07761 0.38975 0.35369 0.0
C125 C 0.06426 0.32964 0.29585 0.0
Zn126 Zn 0.72689 0.98107 0.33265 0.0
Zn127 Zn 0.69102 0.97781 0.33343 0.0
O128 O 0.71164 1.00795 0.33302 0.0
O129 O 0.74103 0.01078 0.32994 0.0
O130 O 0.66421 0.97632 0.33293 0.0
O131 O 0.7186 0.96395 0.29871 0.0
O132 O 0.68969 0.96259 0.29776 0.0
C133 C 0.7306 0.01874 0.33114 0.0
C134 C 0.70415 0.96032 0.38066 0.0
O135 O 0.69088 0.96313 0.36946 0.0
O136 O 0.72099 0.96727 0.36947 0.0
C137 C 0.66167 0.98931 0.34427 0.0
O138 O 0.67676 1.00412 0.3576 0.0
C139 C 0.70162 0.95796 0.28748 0.0
Zn140 Zn 0.03672 0.74316 0.33971 0.0
Zn141 Zn 0.03969 0.7118 0.33488 0.0
O142 O 1.0087 0.70038 0.33352 0.0
O143 O 1.00706 0.72728 0.33505 0.0
O144 O 0.04254 0.68777 0.33101 0.0
O145 O 0.05344 0.7556 0.30666 0.0
O146 O 0.05532 0.72908 0.30103 0.0
C147 C 0.99839 0.7087 0.33302 0.0
C148 C 0.05753 0.73942 0.386 0.0
O149 O 0.05463 0.72444 0.37222 0.0
O150 O 0.05038 0.74962 0.37705 0.0
C151 C 0.03184 0.67147 0.34358 0.0
O152 O 0.01783 0.66957 0.3601 0.0
C153 C 0.05971 0.74631 0.29325 0.0
Zn154 Zn 0.32138 0.37657 0.3408 0.0
Zn155 Zn 0.31728 0.34173 0.33739 0.0
O156 O 0.34803 0.36234 0.33998 0.0
O157 O 0.35102 0.39121 0.34622 0.0
O158 O 0.31734 0.31611 0.33545 0.0
O159 O 0.30364 0.36792 0.37337 0.0
O160 O 0.30061 0.33871 0.37229 0.0
C161 C 0.35902 0.38094 0.34407 0.0
C162 C 0.30084 0.35652 0.29077 0.0
O163 O 0.30266 0.34264 0.30128 0.0
O164 O 0.3086 0.373 0.3031 0.0
C165 C 0.30229 0.29891 0.33091 0.0
O166 O 0.28458 0.29672 0.32677 0.0
C167 C 0.29638 0.35071 0.38316 0.0
Zn168 Zn 0.30305 0.04068 0.67869 0.0
Zn169 Zn 0.3379 0.04226 0.67908 0.0
O170 O 0.31616 0.0121 0.67803 0.0
O171 O 0.28751 0.01113 0.67749 0.0
O172 O 0.36444 0.0431 0.6804 0.0
O173 O 0.30966 0.05481 0.71501 0.0
O174 O 0.33904 0.0573 0.71492 0.0
C175 C 0.29703 1.0022 0.67759 0.0
C176 C 0.32779 0.0631 0.63317 0.0
O177 O 0.33975 0.05824 0.64373 0.0
O178 O 0.311 0.05709 0.64404 0.0
C179 C 0.36771 0.03158 0.6663 0.0
O180 O 0.35341 0.01839 0.64996 0.0
C181 C 0.3267 0.061 0.72617 0.0
Zn182 Zn 0.97457 0.27166 0.65956 0.0
Zn183 Zn 0.97926 0.30603 0.66858 0.0
O184 O 1.00839 0.31123 0.66427 0.0
O185 O 1.00358 0.28172 0.65666 0.0
O186 O 0.98385 0.33356 0.67421 0.0
O187 O 0.96131 0.26167 0.6956 0.0
O188 O 0.96463 0.29048 0.7042 0.0
C189 C 0.01541 0.30007 0.65993 0.0
C190 C 0.95248 0.27965 0.62009 0.0
O191 O 0.96013 0.29574 0.63384 0.0
O192 O 0.957 0.26689 0.62643 0.0
C193 C 0.96939 0.33662 0.67439 0.0
O194 O 0.95101 0.32155 0.67135 0.0
C195 C 0.95839 0.27263 0.71121 0.0
Zn196 Zn 0.72566 0.64992 0.68685 0.0
Zn197 Zn 0.72357 0.68231 0.67932 0.0
O198 O 0.69403 0.65971 0.68417 0.0
O199 O 0.69613 0.63352 0.69312 0.0
O200 O 0.72226 0.70723 0.67413 0.0
O201 O 0.73552 0.65223 0.64857 0.0
O202 O 0.73592 0.68007 0.6428 0.0
C203 C 0.68562 0.64132 0.68963 0.0
C204 C 0.75056 0.68034 0.72544 0.0
O205 O 0.74253 0.68913 0.71373 0.0
O206 O 0.74602 0.6633 0.71754 0.0
C207 C 0.70871 0.70958 0.6842 0.0
O208 O 0.69442 0.69522 0.69858 0.0
C209 C 0.73932 0.667 0.63375 0.0
Zn210 Zn 0.39346 0.31533 0.65677 0.0
Zn211 Zn 0.35934 0.31456 0.66453 0.0
O212 O 0.38167 0.34398 0.66125 0.0
O213 O 0.4094 0.3449 0.65125 0.0
O214 O 0.33503 0.3173 0.66821 0.0
O215 O 0.38046 0.29605 0.62529 0.0
O216 O 0.35284 0.2968 0.62975 0.0
C217 C 0.40023 0.35386 0.65568 0.0
C218 C 0.37523 0.29812 0.70921 0.0
O219 O 0.36135 0.30092 0.70041 0.0
O220 O 0.39066 0.30381 0.69489 0.0
C221 C 0.31687 0.30332 0.66947 0.0
O222 O 0.31268 0.28496 0.66938 0.0
C223 C 0.36269 0.29038 0.6176 0.0
Zn224 Zn 0.70859 0.07924 0.67984 0.0
Zn225 Zn 0.70973 0.04711 0.6725 0.0
O226 O 0.67898 0.03675 0.67271 0.0
O227 O 0.67881 0.06434 0.67655 0.0
O228 O 0.71145 0.02263 0.66712 0.0
O229 O 0.72452 0.0916 0.6461 0.0
O230 O 0.7246 0.06432 0.63825 0.0
C231 C 0.66939 0.04578 0.67362 0.0
C232 C 0.73014 0.07402 0.72371 0.0
O233 O 0.72607 0.05893 0.70922 0.0
O234 O 0.72336 0.08483 0.71624 0.0
C235 C 0.70111 1.00655 0.68033 0.0
O236 O 0.68806 1.00515 0.69829 0.0
C237 C 0.72956 0.08187 0.6313 0.0
Zn238 Zn 0.98315 0.71059 0.66948 0.0
Zn239 Zn 0.97733 0.67463 0.66752 0.0
O240 O 1.00834 0.69371 0.67067 0.0
O241 O 1.01273 0.72332 0.67509 0.0
O242 O 0.97394 0.6473 0.66767 0.0
O243 O 0.96535 0.70332 0.70197 0.0
O244 O 0.9611 0.67358 0.70174 0.0
C245 C 0.01996 0.7123 0.67412 0.0
C246 C 0.96255 0.69017 0.61956 0.0
O247 O 0.96375 0.6761 0.6307 0.0
O248 O 0.97061 0.7068 0.63152 0.0
C249 C 0.98676 0.6437 0.65803 0.0
O250 O 1.00276 0.65802 0.64621 0.0
C251 C 0.95749 0.68615 0.71213 0.0
H252 H 0.22786 0.32856 0.10297 0.0
H253 H 0.18524 0.33677 0.05674 0.0
H254 H 0.19261 0.34628 0.14565 0.0
H255 H 0.16134 0.3374 0.14406 0.0
H256 H 0.12978 0.36182 0.10399 0.0
H257 H 0.17255 0.35589 0.05804 0.0
C258 C 0.21566 0.33135 0.10255 0.0
C259 C 0.2103 0.33623 0.12725 0.0
C260 C 0.20715 0.33216 0.07706 0.0
C261 C 0.19195 0.33669 0.07656 0.0
C262 C 0.18584 0.34129 0.10134 0.0
C263 C 0.19576 0.34157 0.12648 0.0
C264 C 0.16979 0.34646 0.10131 0.0
C265 C 0.15906 0.34405 0.12576 0.0
C266 C 0.14521 0.35022 0.12709 0.0
C267 C 0.14114 0.35786 0.1034 0.0
C268 C 0.15053 0.35937 0.07844 0.0
C269 C 0.16502 0.35394 0.07737 0.0
H270 H 0.65698 0.88875 0.09778 0.0
H271 H 0.64979 0.83925 0.05239 0.0
H272 H 0.67794 0.85297 0.13407 0.0
H273 H 0.65977 0.82025 0.1386 0.0
H274 H 0.67012 0.77864 0.09794 0.0
H275 H 0.66614 0.8221 0.04948 0.0
C276 C 0.65933 0.87643 0.09666 0.0
C277 C 0.66803 0.87215 0.11918 0.0
C278 C 0.65349 0.86516 0.07237 0.0
C279 C 0.65511 0.84828 0.07092 0.0
C280 C 0.66316 0.84305 0.09379 0.0
C281 C 0.67033 0.85573 0.11723 0.0
C282 C 0.66396 0.82442 0.09415 0.0
C283 C 0.66284 0.81502 0.11983 0.0
C284 C 0.66514 0.79858 0.12158 0.0
C285 C 0.66791 0.79107 0.09713 0.0
C286 C 0.66748 0.79893 0.07126 0.0
C287 C 0.66579 0.81578 0.06961 0.0
H288 H 0.222 0.92637 0.12104 0.0
H289 H 0.19821 0.87339 0.07249 0.0
H290 H 0.16682 0.87539 0.14375 0.0
H291 H 0.16394 0.84611 0.14993 0.0
H292 H 0.12422 0.79407 0.10339 0.0
H293 H 0.16429 0.84766 0.06026 0.0
C294 C 0.2101 0.91136 0.11681 0.0
C295 C 0.1949 0.9016 0.13602 0.0
C296 C 0.21164 0.90138 0.09399 0.0
C297 C 0.19654 0.88151 0.08908 0.0
C298 C 0.18022 0.87176 0.10713 0.0
C299 C 0.17919 0.88245 0.12967 0.0
C300 C 0.16556 0.84995 0.10525 0.0
C301 C 0.15806 0.83907 0.12998 0.0
C302 C 0.14289 0.81911 0.12956 0.0
C303 C 0.13605 0.8095 0.10404 0.0
C304 C 0.14394 0.81956 0.07914 0.0
C305 C 0.15868 0.83984 0.07962 0.0
H306 H 0.37528 0.13474 0.91259 0.0
H307 H 0.38279 0.18519 0.95604 0.0
H308 H 0.35785 0.17178 0.87217 0.0
H309 H 0.37283 0.2034 0.86772 0.0
H310 H 0.36545 0.24707 0.90722 0.0
H311 H 0.36844 0.20356 0.95725 0.0
C312 C 0.37415 0.14783 0.91282 0.0
C313 C 0.36681 0.1526 0.88934 0.0
C314 C 0.37938 0.15917 0.93698 0.0
C315 C 0.37797 0.1762 0.93747 0.0
C316 C 0.37078 0.1816 0.91371 0.0
C317 C 0.36446 0.16897 0.89021 0.0
C318 C 0.37002 0.20029 0.91263 0.0
C319 C 0.37059 0.20912 0.88665 0.0
C320 C 0.3682 0.22546 0.88451 0.0
C321 C 0.3665 0.23394 0.90866 0.0
C322 C 0.36713 0.22645 0.93477 0.0
C323 C 0.36864 0.2095 0.93689 0.0
H324 H 0.79976 0.10541 0.9086 0.0
H325 H 0.83986 0.15685 0.95646 0.0
H326 H 0.8506 0.15282 0.8697 0.0
H327 H 0.86146 0.18384 0.86954 0.0
H328 H 0.91177 0.23245 0.90986 0.0
H329 H 0.87249 0.18116 0.95752 0.0
C330 C 0.81371 0.1195 0.91016 0.0
C331 C 0.82429 0.12837 0.88613 0.0
C332 C 0.81961 0.1294 0.93572 0.0
C333 C 0.8363 0.14884 0.93708 0.0
C334 C 0.84777 0.15792 0.91323 0.0
C335 C 0.84193 0.14689 0.88823 0.0
C336 C 0.865 0.17907 0.91333 0.0
C337 C 0.87046 0.18991 0.88825 0.0
C338 C 0.88756 0.20882 0.88666 0.0
C339 C 0.89859 0.21775 0.91085 0.0
C340 C 0.89293 0.20807 0.93644 0.0
C341 C 0.87626 0.18866 0.93773 0.0
H342 H 0.81445 0.70672 0.92195 0.0
H343 H 0.84066 0.67544 0.95789 0.0
H344 H 0.8519 0.69511 0.87284 0.0
H345 H 0.8565 0.6711 0.86781 0.0
H346 H 0.89876 0.65748 0.90213 0.0
H347 H 0.87094 0.6784 0.95591 0.0
C348 C 0.82416 0.70084 0.92012 0.0
C349 C 0.83174 0.70082 0.89415 0.0
C350 C 0.82691 0.6914 0.94303 0.0
C351 C 0.83927 0.68344 0.94052 0.0
C352 C 0.84894 0.685 0.91539 0.0
C353 C 0.84511 0.69401 0.89247 0.0
C354 C 0.86195 0.67624 0.91229 0.0
C355 C 0.86473 0.67061 0.88579 0.0
C356 C 0.87846 0.66455 0.88174 0.0
C357 C 0.88795 0.66197 0.90487 0.0
C358 C 0.88475 0.66634 0.93155 0.0
C359 C 0.87224 0.67399 0.93529 0.0
H360 H 0.89248 0.66247 0.4292 0.0
H361 H 0.84832 0.66797 0.38217 0.0
H362 H 0.85595 0.67893 0.47082 0.0
H363 H 0.82433 0.66732 0.47001 0.0
H364 H 0.78818 0.68701 0.43134 0.0
H365 H 0.83242 0.68467 0.38342 0.0
C366 C 0.87994 0.66475 0.42848 0.0
C367 C 0.87433 0.66961 0.45292 0.0
C368 C 0.87111 0.66475 0.40287 0.0
C369 C 0.8553 0.66847 0.40202 0.0
C370 C 0.84876 0.6728 0.42669 0.0
C371 C 0.85924 0.67417 0.45181 0.0
C372 C 0.83138 0.6761 0.42687 0.0
C373 C 0.82089 0.67311 0.45174 0.0
C374 C 0.80595 0.67775 0.45372 0.0
C375 C 0.80027 0.68411 0.43015 0.0
C376 C 0.80936 0.68609 0.40475 0.0
C377 C 0.8251 0.68236 0.40304 0.0
H378 H 0.3153 0.21618 0.42804 0.0
H379 H 0.32747 0.17632 0.38621 0.0
H380 H 0.33078 0.18033 0.47603 0.0
H381 H 0.34844 0.16756 0.47439 0.0
H382 H 0.34009 0.11348 0.44362 0.0
H383 H 0.32128 0.14575 0.39292 0.0
C384 C 0.31947 0.20509 0.42925 0.0
C385 C 0.3243 0.20017 0.45492 0.0
C386 C 0.32063 0.19661 0.40467 0.0
C387 C 0.32595 0.18214 0.40558 0.0
C388 C 0.32939 0.17553 0.43143 0.0
C389 C 0.32831 0.18478 0.45592 0.0
C390 C 0.33404 0.15917 0.43336 0.0
C391 C 0.34295 0.15678 0.45789 0.0
C392 C 0.34449 0.14006 0.46219 0.0
C393 C 0.33921 0.1266 0.44052 0.0
C394 C 0.33146 0.12895 0.41538 0.0
C395 C 0.32849 0.14497 0.41187 0.0
H396 H 0.88828 0.25371 0.43827 0.0
H397 H 0.85278 0.20053 0.39158 0.0
H398 H 0.83308 0.20793 0.47118 0.0
H399 H 0.82489 0.17721 0.47617 0.0
H400 H 0.77993 0.12519 0.43429 0.0
H401 H 0.81982 0.17617 0.38653 0.0
C402 C 0.87432 0.23972 0.43578 0.0
C403 C 0.86134 0.2318 0.45806 0.0
C404 C 0.87091 0.22884 0.4114 0.0
C405 C 0.85435 0.20941 0.40947 0.0
C406 C 0.84054 0.20133 0.43122 0.0
C407 C 0.84372 0.21334 0.45459 0.0
C408 C 0.82401 0.17999 0.43134 0.0
C409 C 0.81738 0.17 0.45692 0.0
C410 C 0.80131 0.15046 0.45822 0.0
C411 C 0.79233 0.14035 0.43355 0.0
C412 C 0.79922 0.1494 0.40779 0.0
C413 C 0.81496 0.16925 0.40659 0.0
H414 H 0.04288 0.46837 0.2415 0.0
H415 H 0.03673 0.51033 0.28894 0.0
H416 H 0.04165 0.51522 0.19933 0.0
H417 H 0.02317 0.52735 0.2011 0.0
H418 H 0.03006 0.57905 0.2386 0.0
H419 H 0.04389 0.54173 0.28675 0.0
C420 C 0.04217 0.48169 0.24218 0.0
C421 C 0.04162 0.49071 0.21751 0.0
C422 C 0.04098 0.48902 0.26784 0.0
C423 C 0.03859 0.50549 0.26895 0.0
C424 C 0.0381 0.51509 0.24413 0.0
C425 C 0.04059 0.50783 0.21871 0.0
C426 C 0.0346 0.53221 0.24385 0.0
C427 C 0.02772 0.53685 0.21909 0.0
C428 C 0.02676 0.554 0.21667 0.0
C429 C 0.03063 0.56567 0.24014 0.0
C430 C 0.03616 0.56094 0.26548 0.0
C431 C 0.03856 0.54449 0.26734 0.0
H432 H 0.46353 0.43724 0.23868 0.0
H433 H 0.51063 0.4838 0.2874 0.0
H434 H 0.50459 0.4914 0.19927 0.0
H435 H 0.53665 0.51073 0.20094 0.0
H436 H 0.5769 0.56366 0.24514 0.0
H437 H 0.52778 0.51651 0.28806 0.0
C438 C 0.47708 0.4517 0.23989 0.0
C439 C 0.48377 0.46316 0.21595 0.0
C440 C 0.4863 0.45931 0.26573 0.0
C441 C 0.50343 0.4784 0.26735 0.0
C442 C 0.51094 0.49023 0.24328 0.0
C443 C 0.50032 0.48248 0.21784 0.0
C444 C 0.52947 0.51059 0.24437 0.0
C445 C 0.54073 0.51898 0.22013 0.0
C446 C 0.55726 0.53835 0.22007 0.0
C447 C 0.56377 0.54888 0.24491 0.0
C448 C 0.55355 0.54083 0.26947 0.0
C449 C 0.53606 0.52198 0.26913 0.0
H450 H 0.47121 0.0263 0.24189 0.0
H451 H 0.49884 0.99959 0.28746 0.0
H452 H 0.52166 0.02713 0.20816 0.0
H453 H 0.52116 0.99903 0.2024 0.0
H454 H 0.5642 0.98746 0.23952 0.0
H455 H 0.53288 1.00614 0.29089 0.0
C456 C 0.48347 0.02369 0.24421 0.0
C457 C 0.496 0.02739 0.22188 0.0
C458 C 0.4848 0.01431 0.26831 0.0
C459 C 0.49887 1.00822 0.26987 0.0
C460 C 0.51217 0.01244 0.24792 0.0
C461 C 0.51127 0.02317 0.22491 0.0
C462 C 0.52554 1.00407 0.24681 0.0
C463 C 0.52917 0.99865 0.22077 0.0
C464 C 0.54361 0.99342 0.2177 0.0
C465 C 0.55276 0.99119 0.2415 0.0
C466 C 0.54848 0.99508 0.26793 0.0
C467 C 0.53527 1.00206 0.27061 0.0
H468 H 0.55996 0.99651 0.76499 0.0
H469 H 0.51753 1.00396 0.71675 0.0
H470 H 0.52271 0.01231 0.80595 0.0
H471 H 0.49161 1.00205 0.80414 0.0
H472 H 0.45724 0.02346 0.76482 0.0
H473 H 0.50101 0.01981 0.71768 0.0
C474 C 0.5475 0.9989 0.76399 0.0
C475 C 0.54132 1.00321 0.78837 0.0
C476 C 0.53947 0.99979 0.73814 0.0
C477 C 0.5238 1.00371 0.73686 0.0
C478 C 0.5166 1.00738 0.76144 0.0
C479 C 0.52636 1.00793 0.78691 0.0
C480 C 0.49946 0.01109 0.76118 0.0
C481 C 0.48873 1.00821 0.78581 0.0
C482 C 0.47422 0.01345 0.7875 0.0
C483 C 0.46907 0.02017 0.76384 0.0
C484 C 0.47823 0.0219 0.7386 0.0
C485 C 0.49363 0.01766 0.73719 0.0
H486 H 0.98574 0.55375 0.77011 0.0
H487 H 0.99205 0.51172 0.72321 0.0
H488 H 0.99238 0.51025 0.81327 0.0
H489 H 1.01084 0.49824 0.80984 0.0
H490 H 1.00489 0.4469 0.77261 0.0
H491 H 0.98529 0.48058 0.72669 0.0
C492 C 0.98707 0.54078 0.76972 0.0
C493 C 0.98984 0.53322 0.79451 0.0
C494 C 0.98727 0.53271 0.74415 0.0
C495 C 0.99085 0.517 0.74323 0.0
C496 C 0.99308 0.50855 0.76815 0.0
C497 C 0.99177 0.5166 0.79363 0.0
C498 C 0.99727 0.4919 0.76823 0.0
C499 C 1.00588 0.48842 0.79219 0.0
C500 C 1.00796 0.47191 0.79431 0.0
C501 C 1.00356 0.45985 0.77114 0.0
C502 C 0.99599 0.46328 0.74657 0.0
C503 C 0.99226 0.4789 0.74529 0.0
H504 H 0.56475 0.58441 0.77586 0.0
H505 H 0.5295 0.53174 0.72798 0.0
H506 H 0.51131 0.53695 0.81005 0.0
H507 H 0.5015 0.5059 0.81233 0.0
H508 H 0.45551 0.45596 0.76779 0.0
H509 H 0.49687 0.50776 0.72281 0.0
C510 C 0.55105 0.57018 0.77339 0.0
C511 C 0.53863 0.56161 0.79606 0.0
C512 C 0.5475 0.55972 0.74858 0.0
C513 C 0.53121 0.54016 0.74647 0.0
C514 C 0.51783 0.53142 0.76862 0.0
C515 C 0.52139 0.54284 0.79285 0.0
C516 C 0.50106 0.51014 0.76775 0.0
C517 C 0.49402 0.49942 0.79275 0.0
C518 C 0.47737 0.48013 0.79307 0.0
C519 C 0.4684 0.47088 0.76788 0.0
C520 C 0.47572 0.48061 0.74264 0.0
C521 C 0.49188 0.50027 0.74249 0.0
H522 H 0.70824 0.80142 0.57808 0.0
H523 H 0.70039 0.842 0.6263 0.0
H524 H 0.70556 0.84785 0.53688 0.0
H525 H 0.68527 0.85805 0.53933 0.0
H526 H 0.69191 0.90982 0.57636 0.0
H527 H 0.70783 0.87381 0.62401 0.0
C528 C 0.70718 0.81453 0.57898 0.0
C529 C 0.70617 0.82347 0.55447 0.0
C530 C 0.7058 0.82156 0.6048 0.0
C531 C 0.70253 0.83746 0.60624 0.0
C532 C 0.70178 0.84707 0.58161 0.0
C533 C 0.70469 0.84032 0.55607 0.0
C534 C 0.69755 0.86366 0.58161 0.0
C535 C 0.68991 0.86774 0.55714 0.0
C536 C 0.68861 0.88469 0.55467 0.0
C537 C 0.69271 0.89656 0.57798 0.0
C538 C 0.699 0.89233 0.6031 0.0
C539 C 0.70183 0.87615 0.6049 0.0
H540 H 0.12709 0.76787 0.57453 0.0
H541 H 0.17477 0.81203 0.62554 0.0
H542 H 0.17182 0.8213 0.53726 0.0
H543 H 0.20422 0.83825 0.54083 0.0
H544 H 0.24503 0.89052 0.58599 0.0
H545 H 0.19291 0.84524 0.62638 0.0
C546 C 0.14119 0.7818 0.57643 0.0
C547 C 0.14911 0.79344 0.55286 0.0
C548 C 0.15002 0.78864 0.60271 0.0
C549 C 0.16788 0.80714 0.60518 0.0
C550 C 0.1766 0.81907 0.58151 0.0
C551 C 0.16648 0.81216 0.55558 0.0
C552 C 0.19592 0.83873 0.58349 0.0
C553 C 0.20817 0.84654 0.55998 0.0
C554 C 0.22534 0.86549 0.56048 0.0
C555 C 0.2315 0.87601 0.58534 0.0
C556 C 0.22014 0.86859 0.60916 0.0
C557 C 0.20208 0.85021 0.60817 0.0
H558 H 0.13629 0.35705 0.57174 0.0
H559 H 0.16554 0.3319 0.61694 0.0
H560 H 0.18681 0.35872 0.53671 0.0
H561 H 0.18975 0.33287 0.53136 0.0
H562 H 0.23247 0.32183 0.57095 0.0
H563 H 0.19832 0.33797 0.6206 0.0
C564 C 0.14872 0.35467 0.57368 0.0
C565 C 0.16103 0.35849 0.55102 0.0
C566 C 0.15069 0.34578 0.59785 0.0
C567 C 0.16506 0.34007 0.59911 0.0
C568 C 0.17814 0.34429 0.57682 0.0
C569 C 0.17653 0.35453 0.55363 0.0
C570 C 0.19238 0.33687 0.5761 0.0
C571 C 0.19726 0.33239 0.55022 0.0
C572 C 0.21209 0.32758 0.54799 0.0
C573 C 0.22079 0.3253 0.57224 0.0
C574 C 0.21549 0.32847 0.59834 0.0
C575 C 0.20157 0.33463 0.60038 0.0
H576 H 0.04009 0.41475 0.08665 0.0
H577 H 0.01607 0.48501 0.1743 0.0
H578 H 0.98495 0.41482 0.08054 0.0
H579 H 0.06207 0.47314 0.19992 0.0
H580 H 1.00869 0.46393 0.13388 0.0
H581 H 0.05174 0.43974 0.12364 0.0
C582 C 0.03043 0.41994 0.0931 0.0
C583 C 1.01146 0.41257 0.08057 0.0
C584 C 0.02053 0.46605 0.1482 0.0
C585 C 0.02482 0.44131 0.12225 0.0
C586 C 0.02492 0.47831 0.17112 0.0
C587 C 0.03963 0.48076 0.19064 0.0
C588 C 0.03091 0.45616 0.14464 0.0
C589 C 0.05042 0.47142 0.18557 0.0
C590 C 0.0371 0.43421 0.11412 0.0
C591 C 0.99961 0.41991 0.08966 0.0
N592 N 0.04576 0.45941 0.16313 0.0
N593 N 1.00651 0.43388 0.1098 0.0
H594 H 0.62006 0.62295 0.08883 0.0
H595 H 0.56931 0.52336 0.17892 0.0
H596 H 0.62364 0.5716 0.07051 0.0
H597 H 0.56877 0.57553 0.20225 0.0
H598 H 0.58784 0.54054 0.13748 0.0
H599 H 0.6003 0.60578 0.12973 0.0
C600 C 0.61677 0.60816 0.09342 0.0
C601 C 0.62354 0.59875 0.07619 0.0
C602 C 0.58366 0.54825 0.15166 0.0
C603 C 0.60091 0.57901 0.12262 0.0
C604 C 0.57297 0.53837 0.17519 0.0
C605 C 0.56764 0.54807 0.19411 0.0
C606 C 0.58899 0.56795 0.14696 0.0
C607 C 0.57289 0.56762 0.18839 0.0
C608 C 0.60547 0.59834 0.11669 0.0
C609 C 0.61878 0.57951 0.0831 0.0
N610 N 0.58331 0.57693 0.16536 0.0
N611 N 0.60777 0.57032 0.10567 0.0
H612 H 0.42619 0.04069 0.0902 0.0
H613 H 0.49748 0.01192 0.17221 0.0
H614 H 0.43199 0.99055 0.07274 0.0
H615 H 0.4804 0.05084 0.2075 0.0
H616 H 0.48045 0.0112 0.12926 0.0
H617 H 0.4514 0.05028 0.12795 0.0
C618 C 0.4328 0.03178 0.0942 0.0
C619 C 0.42679 0.01464 0.07857 0.0
C620 C 0.48063 0.02013 0.14626 0.0
C621 C 0.45575 0.02573 0.12097 0.0
C622 C 0.49067 0.02082 0.17081 0.0
C623 C 0.49019 0.03123 0.19389 0.0
C624 C 0.46982 0.02977 0.14462 0.0
C625 C 0.48076 0.04221 0.19051 0.0
C626 C 0.44716 0.03727 0.11564 0.0
C627 C 0.4359 1.0037 0.08449 0.0
N628 N 0.47063 0.04093 0.16649 0.0
N629 N 0.44987 0.00942 0.10513 0.0
H630 H 0.40683 0.97141 0.93739 0.0
H631 H 0.4674 0.04076 0.81043 0.0
H632 H 0.41993 0.03131 0.9288 0.0
H633 H 0.45818 0.98274 0.82444 0.0
H634 H 0.44938 0.0375 0.85281 0.0
H635 H 0.42451 0.97513 0.89496 0.0
C636 C 0.41337 0.98538 0.92653 0.0
C637 C 0.41193 1.00112 0.9368 0.0
C638 C 0.45134 0.02551 0.84667 0.0
C639 C 0.43238 1.00548 0.88796 0.0
C640 C 0.46156 0.02733 0.82246 0.0
C641 C 0.46422 0.01195 0.8139 0.0
C642 C 0.44365 1.00816 0.86238 0.0
C643 C 0.45661 0.995 0.83041 0.0
C644 C 0.42354 0.98749 0.90227 0.0
C645 C 0.42068 0.0188 0.92167 0.0
N646 N 0.4466 0.99353 0.85381 0.0
N647 N 0.43059 0.02052 0.89798 0.0
H648 H 0.97573 0.41084 0.94749 0.0
H649 H 0.03193 0.45661 0.80677 0.0
H650 H 0.02805 0.40896 0.92622 0.0
H651 H 0.99167 0.47143 0.84382 0.0
H652 H 0.03159 0.43944 0.8496 0.0
H653 H 0.98139 0.43247 0.90833 0.0
C654 C 0.9884 0.41489 0.93449 0.0
C655 C 1.00137 0.40793 0.94012 0.0
C656 C 0.02314 0.44676 0.84846 0.0
C657 C 1.00801 0.43298 0.89499 0.0
C658 C 0.02332 0.45656 0.82407 0.0
C659 C 1.01168 0.46535 0.82161 0.0
C660 C 1.01104 0.44555 0.87036 0.0
C661 C 1.00096 0.46499 0.84476 0.0
C662 C 0.99172 0.42743 0.9122 0.0
C663 C 0.01764 0.41392 0.92259 0.0
N664 N 1.00068 0.45501 0.86795 0.0
N665 N 0.02043 0.42601 0.90062 0.0
H666 H 0.60833 0.57699 0.93788 0.0
H667 H 0.5585 0.60093 0.81206 0.0
H668 H 0.61721 0.63532 0.92894 0.0
H669 H 0.53698 0.54226 0.84394 0.0
H670 H 0.57909 0.6147 0.85443 0.0
H671 H 0.58226 0.56488 0.90238 0.0
C672 C 0.60488 0.58735 0.92831 0.0
C673 C 0.61516 0.60729 0.93628 0.0
C674 C 0.56946 0.59884 0.85234 0.0
C675 C 0.58492 0.59331 0.89532 0.0
C676 C 0.5577 0.59095 0.8282 0.0
C677 C 0.54622 0.57036 0.82413 0.0
C678 C 0.56983 0.58602 0.87233 0.0
C679 C 0.54553 0.55818 0.84596 0.0
C680 C 0.58977 0.58032 0.90818 0.0
C681 C 0.60973 0.61986 0.9233 0.0
N682 N 0.55746 0.56619 0.8688 0.0
N683 N 0.59508 0.61269 0.90315 0.0
H684 H 0.05497 0.61411 0.92619 0.0
H685 H 0.96932 0.55021 0.8142 0.0
H686 H 0.9986 0.6119 0.92513 0.0
H687 H 0.0188 0.54228 0.83409 0.0
H688 H 0.97937 0.57324 0.85339 0.0
H689 H 0.04208 0.58904 0.89022 0.0
C690 C 0.03987 0.60845 0.91829 0.0
C691 C 0.02787 0.61521 0.92879 0.0
C692 C 0.98783 0.56623 0.84935 0.0
C693 C 1.0129 0.58615 0.88735 0.0
C694 C 0.98212 0.5531 0.82702 0.0
C695 C 0.99328 0.54434 0.82078 0.0
C696 C 1.00497 0.57081 0.86529 0.0
C697 C 1.00963 0.54851 0.83821 0.0
C698 C 0.03246 0.59397 0.89781 0.0
C699 C 1.0084 0.60716 0.91764 0.0
N700 N 0.01509 0.56159 0.8594 0.0
N701 N 1.00151 0.59307 0.89741 0.0
H702 H 0.40727 0.394 0.92017 0.0
H703 H 0.47242 0.49642 0.83954 0.0
H704 H 0.41355 0.44958 0.94297 0.0
H705 H 0.46148 0.44095 0.80716 0.0
H706 H 0.45445 0.47945 0.88103 0.0
H707 H 0.42992 0.41078 0.88135 0.0
C708 C 0.41341 0.40967 0.91709 0.0
C709 C 0.40833 0.42033 0.9347 0.0
C710 C 0.45604 0.47095 0.86496 0.0
C711 C 0.43427 0.43955 0.8908 0.0
C712 C 0.46651 0.4807 0.84132 0.0
C713 C 0.46838 0.47011 0.81968 0.0
C714 C 0.44721 0.45037 0.86709 0.0
C715 C 0.46009 0.44966 0.82311 0.0
C716 C 0.42632 0.41922 0.89499 0.0
C717 C 0.4168 0.44063 0.92984 0.0
N718 N 0.44973 0.44041 0.84629 0.0
N719 N 0.42926 0.4495 0.90843 0.0
H720 H 0.62015 0.04939 0.9309 0.0
H721 H 0.55101 0.9768 0.80915 0.0
H722 H 0.60746 0.9896 0.92415 0.0
H723 H 0.55643 0.0326 0.82741 0.0
H724 H 0.57205 0.981 0.85011 0.0
H725 H 0.59796 0.04357 0.89144 0.0
C726 C 0.61277 0.035 0.92104 0.0
C727 C 0.6157 0.01993 0.931 0.0
C728 C 0.56848 0.99222 0.84529 0.0
C729 C 0.58997 0.01314 0.8855 0.0
C730 C 0.55649 0.98985 0.82195 0.0
C731 C 0.55197 1.00439 0.81487 0.0
C732 C 0.57616 0.00936 0.86152 0.0
C733 C 0.55934 0.02094 0.83222 0.0
C734 C 0.59997 0.03167 0.89851 0.0
C735 C 0.60568 1.00164 0.91719 0.0
N736 N 0.57119 0.02303 0.85458 0.0
N737 N 0.59323 0.99875 0.8951 0.0
H738 H 0.61044 0.98453 0.08209 0.0
H739 H 0.54866 0.01752 0.17378 0.0
H740 H 0.60745 0.03705 0.06972 0.0
H741 H 0.55662 0.96928 0.19792 0.0
H742 H 0.56571 0.02077 0.13108 0.0
H743 H 0.58746 0.9755 0.12112 0.0
C744 C 0.60497 0.99411 0.08751 0.0
C745 C 0.61106 0.01167 0.07277 0.0
C746 C 0.56364 0.00934 0.14556 0.0
C747 C 0.58472 1.00134 0.11681 0.0
C748 C 0.55359 1.00728 0.16993 0.0
C749 C 0.55122 0.99316 0.18976 0.0
C750 C 0.57167 0.99738 0.14085 0.0
C751 C 0.55842 0.98064 0.18352 0.0
C752 C 0.59186 0.98894 0.10969 0.0
C753 C 0.60342 0.02348 0.08057 0.0
N754 N 0.56853 0.98318 0.15971 0.0
N755 N 0.59073 0.01811 0.10194 0.0
H756 H 1.0104 0.62006 0.08346 0.0
H757 H 0.04329 0.55335 0.16778 0.0
H758 H 0.05955 0.6127 0.06259 0.0
H759 H 1.0051 0.57162 0.20277 0.0
H760 H 0.044 0.57004 0.12479 0.0
H761 H 1.0039 0.59839 0.12385 0.0
C762 C 0.01979 0.61392 0.08732 0.0
C763 C 0.03566 0.61837 0.06973 0.0
C764 C 0.0353 0.57027 0.14177 0.0
C765 C 0.0281 0.59341 0.11537 0.0
C766 C 0.03468 0.56051 0.16626 0.0
C767 C 0.02425 0.56118 0.18908 0.0
C768 C 0.02543 0.58086 0.13991 0.0
C769 C 1.01362 0.571 0.18586 0.0
C770 C 0.01606 0.60155 0.1103 0.0
C771 C 0.04728 0.60991 0.07565 0.0
N772 N 0.01461 0.58061 0.16181 0.0
N773 N 0.04325 0.59787 0.09785 0.0
H774 H 0.40091 0.43964 0.08073 0.0
H775 H 0.47031 0.42698 0.19238 0.0
H776 H 0.41069 0.39078 0.07817 0.0
H777 H 0.47021 0.48096 0.18027 0.0
H778 H 0.44755 0.41254 0.15215 0.0
H779 H 0.42456 0.4536 0.11949 0.0
C780 C 0.40792 0.43172 0.08842 0.0
C781 C 0.40378 0.41397 0.07604 0.0
C782 C 0.45267 0.42759 0.15814 0.0
C783 C 0.43116 0.43012 0.12062 0.0
C784 C 0.46564 0.43584 0.18105 0.0
C785 C 0.47214 0.45519 0.18964 0.0
C786 C 0.44596 0.43871 0.14393 0.0
C787 C 0.46572 0.46607 0.17421 0.0
C788 C 0.42156 0.43982 0.11052 0.0
C789 C 0.41339 0.40447 0.08706 0.0
N790 N 0.45285 0.45761 0.15227 0.0
N791 N 0.42666 0.41267 0.10876 0.0
H792 H 0.70147 0.74739 0.42083 0.0
H793 H 0.68066 0.81859 0.51163 0.0
H794 H 0.64707 0.74897 0.41778 0.0
H795 H 0.7259 0.80529 0.53592 0.0
H796 H 0.67275 0.79786 0.47085 0.0
H797 H 0.71425 0.77219 0.45832 0.0
C798 C 0.69221 0.75286 0.42805 0.0
C799 C 0.67312 0.746 0.41622 0.0
C800 C 0.68454 0.79958 0.48496 0.0
C801 C 0.68776 0.77448 0.45837 0.0
C802 C 0.68926 0.81166 0.50812 0.0
C803 C 0.7039 0.81362 0.5274 0.0
C804 C 0.69445 0.78928 0.48092 0.0
C805 C 0.71429 0.80394 0.52181 0.0
C806 C 0.69953 0.76701 0.44933 0.0
C807 C 0.66181 0.75367 0.42628 0.0
N808 N 0.70926 0.79203 0.49915 0.0
N809 N 0.66932 0.76749 0.4466 0.0
H810 H 0.28488 0.94923 0.42798 0.0
H811 H 0.23704 0.85021 0.51904 0.0
H812 H 0.28564 0.89704 0.40508 0.0
H813 H 0.23793 0.90296 0.54335 0.0
H814 H 0.25509 0.86723 0.47708 0.0
H815 H 0.26836 0.93284 0.47104 0.0
C816 C 0.28171 0.93442 0.43207 0.0
C817 C 0.28658 0.92449 0.41282 0.0
C818 C 0.25139 0.8751 0.49167 0.0
C819 C 0.26758 0.9056 0.46185 0.0
C820 C 0.241 0.86534 0.5155 0.0
C821 C 0.23614 0.87523 0.53477 0.0
C822 C 0.2568 0.89483 0.48704 0.0
C823 C 0.24171 0.89488 0.52927 0.0
C824 C 0.27223 0.92503 0.4566 0.0
C825 C 0.28209 0.90527 0.41921 0.0
N826 N 0.25172 0.90402 0.50594 0.0
N827 N 0.27279 0.89644 0.44309 0.0
H828 H 0.08629 0.36916 0.42556 0.0
H829 H 0.16324 0.34469 0.50021 0.0
H830 H 0.10052 0.32621 0.39832 0.0
H831 H 0.14459 0.3815 0.53843 0.0
H832 H 0.14629 0.34476 0.45763 0.0
H833 H 0.11212 0.37941 0.46264 0.0
C834 C 0.09492 0.36203 0.42723 0.0
C835 C 0.09099 0.34656 0.40919 0.0
C836 C 0.14606 0.35304 0.47519 0.0
C837 C 0.12059 0.35836 0.45089 0.0
C838 C 0.15605 0.35326 0.49958 0.0
C839 C 0.1551 0.36279 0.52338 0.0
C840 C 0.13472 0.36216 0.47447 0.0
C841 C 0.14524 0.37343 0.52092 0.0
C842 C 0.10963 0.36788 0.44831 0.0
C843 C 0.1027 0.33792 0.41208 0.0
N844 N 0.13509 0.37252 0.49709 0.0
N845 N 0.11683 0.34387 0.43251 0.0
H846 H 0.06743 0.30233 0.26641 0.0
H847 H 0.13859 0.37744 0.15097 0.0
H848 H 0.08497 0.3638 0.26505 0.0
H849 H 0.12657 0.3181 0.16127 0.0
H850 H 0.11803 0.37274 0.19118 0.0
H851 H 0.08734 0.30768 0.2258 0.0
C852 C 0.07539 0.31699 0.25747 0.0
C853 C 0.07462 0.3327 0.26934 0.0
C854 C 0.11997 0.36079 0.18472 0.0
C855 C 0.09769 0.33894 0.22263 0.0
C856 C 0.13166 0.36344 0.1618 0.0
C857 C 0.13425 0.34811 0.15279 0.0
C858 C 0.11068 0.34262 0.19863 0.0
C859 C 0.12514 0.33036 0.16767 0.0
C860 C 0.08685 0.32003 0.23427 0.0
C861 C 0.08514 0.35128 0.25659 0.0
N862 N 0.11367 0.32807 0.18976 0.0
N863 N 0.09635 0.35392 0.23394 0.0
H864 H 0.65607 0.76251 0.29334 0.0
H865 H 0.65019 0.7591 0.13202 0.0
H866 H 0.67056 0.72465 0.24914 0.0
H867 H 0.67859 0.81581 0.17336 0.0
H868 H 0.65191 0.74398 0.17535 0.0
H869 H 0.6591 0.78045 0.25018 0.0
C870 C 0.66004 0.7581 0.27452 0.0
C871 C 0.66307 0.74212 0.27463 0.0
C872 C 0.65785 0.75975 0.17478 0.0
C873 C 0.666 0.76214 0.22539 0.0
C874 C 0.65698 0.7685 0.15002 0.0
C875 C 0.66462 0.78897 0.14864 0.0
C876 C 0.66578 0.77133 0.19871 0.0
C877 C 0.67237 0.80001 0.17327 0.0
C878 C 0.66182 0.76835 0.25004 0.0
C879 C 0.66821 0.73696 0.24983 0.0
N880 N 0.67262 0.79102 0.19737 0.0
N881 N 0.66916 0.74674 0.22598 0.0
H882 H 0.24854 0.90615 0.28739 0.0
H883 H 0.21317 0.94035 0.15515 0.0
H884 H 0.27469 0.96758 0.26584 0.0
H885 H 0.18615 0.88017 0.18403 0.0
H886 H 0.23081 0.95177 0.19992 0.0
H887 H 0.22147 0.89757 0.25419 0.0
C888 C 0.24856 0.91788 0.27558 0.0
C889 C 0.26411 0.93756 0.27889 0.0
C890 C 0.2206 0.9361 0.19663 0.0
C891 C 0.23305 0.9278 0.24038 0.0
C892 C 0.21049 0.92953 0.17104 0.0
C893 C 0.19874 0.90917 0.16515 0.0
C894 C 0.21877 0.92221 0.21649 0.0
C895 C 0.19522 0.89598 0.18707 0.0
C896 C 0.23297 0.91298 0.25671 0.0
C897 C 0.26308 0.95219 0.26359 0.0
N898 N 0.20555 0.90271 0.21142 0.0
N899 N 0.24799 0.94697 0.24451 0.0
H900 H 0.68017 0.95716 0.24114 0.0
H901 H 0.66736 0.86097 0.17387 0.0
H902 H 0.7095 0.92892 0.27878 0.0
H903 H 0.68268 0.91216 0.1233 0.0
H904 H 0.67528 0.88155 0.21532 0.0
H905 H 0.67227 0.93598 0.19992 0.0
C906 C 0.68474 0.94639 0.24079 0.0
C907 C 0.69559 0.94481 0.26316 0.0
C908 C 0.67681 0.88812 0.19502 0.0
C909 C 0.68632 0.9205 0.21683 0.0
C910 C 0.6725 0.87647 0.1713 0.0
C911 C 0.67411 0.88466 0.14476 0.0
C912 C 0.68226 0.90793 0.19226 0.0
C913 C 0.68053 0.90488 0.14312 0.0
C914 C 0.68036 0.93445 0.21735 0.0
C915 C 0.70127 0.93068 0.26177 0.0
N916 N 0.6841 0.91573 0.1665 0.0
N917 N 0.69642 0.91892 0.23906 0.0
H918 H 0.07561 0.73164 0.25665 0.0
H919 H 0.13261 0.83364 0.17298 0.0
H920 H 0.07369 0.78383 0.27543 0.0
H921 H 0.13029 0.78082 0.14517 0.0
H922 H 0.11376 0.81588 0.21351 0.0
H923 H 0.09766 0.74944 0.21776 0.0
C924 C 0.07978 0.74677 0.25262 0.0
C925 C 0.07271 0.7562 0.26929 0.0
C926 C 0.11741 0.80813 0.19865 0.0
C927 C 0.09794 0.77661 0.22523 0.0
C928 C 0.12839 0.81836 0.17559 0.0
C929 C 0.13303 0.80872 0.15556 0.0
C930 C 0.11089 0.78803 0.20183 0.0
C931 C 0.1268 0.78876 0.15991 0.0
C932 C 0.09236 0.75691 0.23049 0.0
C933 C 0.07864 0.77586 0.26317 0.0
N934 N 0.11596 0.77903 0.18254 0.0
N935 N 0.09087 0.78534 0.24174 0.0
H936 H 0.29429 0.38332 0.26437 0.0
H937 H 0.21939 0.30936 0.14784 0.0
H938 H 0.27829 0.32237 0.25996 0.0
H939 H 0.22738 0.36638 0.16513 0.0
H940 H 0.24156 0.31375 0.18746 0.0
H941 H 0.27127 0.37757 0.22594 0.0
C942 C 0.28604 0.3687 0.25521 0.0
C943 C 0.28825 0.35328 0.26556 0.0
C944 C 0.23831 0.3252 0.18273 0.0
C945 C 0.26156 0.34657 0.22134 0.0
C946 C 0.22566 0.32272 0.16017 0.0
C947 C 0.22153 0.33754 0.15321 0.0
C948 C 0.24707 0.34274 0.19827 0.0
C949 C 0.22997 0.3545 0.16991 0.0
C950 C 0.27276 0.36542 0.2333 0.0
C951 C 0.2771 0.3347 0.25267 0.0
N952 N 0.24246 0.3567 0.19149 0.0
N953 N 0.2642 0.33185 0.23122 0.0
H954 H 0.28037 0.3171 0.41592 0.0
H955 H 0.21858 0.35207 0.50404 0.0
H956 H 0.2797 0.37078 0.40267 0.0
H957 H 0.22498 0.30313 0.52945 0.0
H958 H 0.23659 0.35523 0.46218 0.0
H959 H 0.25679 0.30864 0.45401 0.0
C960 C 0.27529 0.32705 0.42095 0.0
C961 C 0.2822 0.34476 0.40623 0.0
C962 C 0.23396 0.34368 0.47677 0.0
C963 C 0.25516 0.33509 0.44922 0.0
C964 C 0.22341 0.34169 0.50061 0.0
C965 C 0.22033 0.32739 0.52053 0.0
C966 C 0.24172 0.3314 0.47268 0.0
C967 C 0.22733 0.31462 0.51493 0.0
C968 C 0.26183 0.32221 0.44261 0.0
C969 C 0.27503 0.35707 0.41353 0.0
N970 N 0.23788 0.31704 0.49164 0.0
N971 N 0.26198 0.352 0.4344 0.0
H972 H 0.7252 0.94407 0.40044 0.0
H973 H 0.66653 0.90181 0.54037 0.0
H974 H 0.67325 0.94769 0.41759 0.0
H975 H 0.70552 0.88428 0.50611 0.0
H976 H 0.66817 0.91879 0.4967 0.0
H977 H 0.71833 0.92303 0.44063 0.0
C978 C 0.71234 0.94051 0.41275 0.0
C979 C 0.69985 0.9478 0.40566 0.0
C980 C 0.67606 0.91092 0.49866 0.0
C981 C 0.69182 0.92344 0.45205 0.0
C982 C 0.67517 0.90126 0.52355 0.0
C983 C 0.68601 0.89169 0.52701 0.0
C984 C 0.6881 0.91123 0.47729 0.0
C985 C 0.69679 0.8913 0.50443 0.0
C986 C 0.70833 0.92831 0.43565 0.0
C987 C 0.68329 0.94243 0.42234 0.0
N988 N 0.69777 0.90114 0.48076 0.0
N989 N 0.67983 0.93068 0.44498 0.0
H990 H 0.07561 0.72173 0.41323 0.0
H991 H 0.13874 0.81348 0.51632 0.0
H992 H 0.07002 0.77316 0.41563 0.0
H993 H 0.13376 0.75709 0.52879 0.0
H994 H 0.11688 0.80012 0.47519 0.0
H995 H 0.09945 0.73523 0.4526 0.0
C996 C 0.07927 0.73575 0.4221 0.0
C997 C 0.07074 0.74627 0.4111 0.0
C998 C 0.12066 0.79068 0.48682 0.0
C999 C 0.09821 0.76193 0.4557 0.0
C1000 C 0.13331 0.79838 0.51011 0.0
C1001 C 0.13802 0.78636 0.52599 0.0
C1002 C 0.11273 0.77084 0.47924 0.0
C1003 C 0.13033 0.76679 0.51721 0.0
C1004 C 0.09292 0.74347 0.44449 0.0
C1005 C 0.07613 0.76444 0.42338 0.0
N1006 N 0.11802 0.75961 0.49447 0.0
N1007 N 0.08955 0.7717 0.44486 0.0
H1008 H 0.30378 0.07174 0.75396 0.0
H1009 H 0.38914 0.13969 0.86501 0.0
H1010 H 0.36269 0.07951 0.75517 0.0
H1011 H 0.33281 0.13713 0.85649 0.0
H1012 H 0.37956 0.11708 0.8257 0.0
H1013 H 0.31381 0.09453 0.79279 0.0
C1014 C 0.31883 0.07814 0.76248 0.0
C1015 C 0.33243 0.07368 0.75118 0.0
C1016 C 0.36932 0.12151 0.83231 0.0
C1017 C 0.34405 0.10003 0.79578 0.0
C1018 C 0.37475 0.13438 0.85477 0.0
C1019 C 0.36169 0.1402 0.86409 0.0
C1020 C 0.35062 0.11429 0.81911 0.0
C1021 C 0.34337 0.1331 0.84987 0.0
C1022 C 0.32456 0.09126 0.78463 0.0
C1023 C 0.3517 0.08248 0.7632 0.0
N1024 N 0.33832 0.12041 0.82819 0.0
N1025 N 0.35694 0.09527 0.78484 0.0
H1026 H 0.93945 0.2341 0.72643 0.0
H1027 H 0.90372 0.24815 0.8733 0.0
H1028 H 0.95064 0.29078 0.75391 0.0
H1029 H 0.88863 0.19203 0.83816 0.0
H1030 H 0.9199 0.26435 0.82988 0.0
H1031 H 0.92019 0.21894 0.7674 0.0
C1032 C 0.93793 0.24345 0.74115 0.0
C1033 C 0.94685 0.26384 0.73671 0.0
C1034 C 0.91284 0.24847 0.83163 0.0
C1035 C 0.92449 0.24631 0.78417 0.0
C1036 C 0.90366 0.23921 0.8564 0.0
C1037 C 0.89492 0.21869 0.85947 0.0
C1038 C 0.91336 0.23712 0.80988 0.0
C1039 C 0.895 0.20783 0.83675 0.0
C1040 C 0.92677 0.23469 0.7646 0.0
C1041 C 0.94409 0.27503 0.75656 0.0
N1042 N 0.90422 0.21719 0.81309 0.0
N1043 N 0.93322 0.26611 0.77959 0.0
H1044 H 0.74982 0.70129 0.76979 0.0
H1045 H 0.8491 0.71522 0.84263 0.0
H1046 H 0.78521 0.68068 0.73225 0.0
H1047 H 0.79388 0.69475 0.8861 0.0
H1048 H 0.83186 0.71534 0.79961 0.0
H1049 H 0.7728 0.71238 0.81045 0.0
C1050 C 0.76267 0.69954 0.76988 0.0
C1051 C 0.76557 0.68986 0.748 0.0
C1052 C 0.82385 0.71131 0.8189 0.0
C1053 C 0.79191 0.70282 0.79363 0.0
C1054 C 0.83357 0.71103 0.8435 0.0
C1055 C 0.82309 0.70478 0.86851 0.0
C1056 C 0.8037 0.70588 0.8194 0.0
C1057 C 0.80304 0.70013 0.86795 0.0
C1058 C 0.7757 0.70582 0.79296 0.0
C1059 C 0.78238 0.68786 0.749 0.0
N1060 N 0.79407 0.70073 0.84388 0.0
N1061 N 0.79493 0.69422 0.77152 0.0
H1062 H 0.75291 0.69776 0.59643 0.0
H1063 H 0.79189 0.64762 0.49155 0.0
H1064 H 0.74628 0.64056 0.60869 0.0
H1065 H 0.79773 0.70418 0.47652 0.0
H1066 H 0.7753 0.64511 0.53498 0.0
H1067 H 0.76913 0.7006 0.55224 0.0
C1068 C 0.75477 0.68579 0.58981 0.0
C1069 C 0.74828 0.66895 0.60635 0.0
C1070 C 0.78019 0.65809 0.5222 0.0
C1071 C 0.76684 0.6721 0.55607 0.0
C1072 C 0.78979 0.65956 0.4975 0.0
C1073 C 0.79618 0.67611 0.48042 0.0
C1074 C 0.777 0.6733 0.52994 0.0
C1075 C 0.79282 0.69105 0.48895 0.0
C1076 C 0.76405 0.68743 0.56464 0.0
C1077 C 0.75109 0.65388 0.59675 0.0
N1078 N 0.78347 0.6893 0.51313 0.0
N1079 N 0.76018 0.65585 0.57235 0.0
H1080 H 0.3585 0.07411 0.59652 0.0
H1081 H 0.33011 0.14382 0.51128 0.0
H1082 H 0.3106 0.08376 0.61591 0.0
H1083 H 0.36679 0.12335 0.47734 0.0
H1084 H 0.32955 0.12805 0.55509 0.0
H1085 H 0.3671 0.097 0.55714 0.0
C1086 C 0.34985 0.08105 0.59257 0.0
C1087 C 0.33365 0.07681 0.60932 0.0
C1088 C 0.33795 0.1272 0.53819 0.0
C1089 C 0.34362 0.10317 0.56492 0.0
C1090 C 0.33852 0.13647 0.51322 0.0
C1091 C 0.34829 0.13471 0.49039 0.0
C1092 C 0.34716 0.11601 0.54046 0.0
C1093 C 0.35872 0.12474 0.49423 0.0
C1094 C 0.35478 0.09411 0.57019 0.0
C1095 C 0.32303 0.08632 0.60338 0.0
N1096 N 0.35766 0.11551 0.51867 0.0
N1097 N 0.3282 0.099 0.58175 0.0
H1098 H 0.94431 0.30443 0.58909 0.0
H1099 H 0.85548 0.21225 0.50731 0.0
H1100 H 0.92445 0.24302 0.60255 0.0
H1101 H 0.88433 0.27131 0.47354 0.0
H1102 H 0.87455 0.22549 0.55003 0.0
H1103 H 0.91782 0.29426 0.55296 0.0
C1104 C 0.93438 0.28888 0.58455 0.0
C1105 C 0.9368 0.27457 0.59849 0.0
C1106 C 0.87655 0.23563 0.53342 0.0
C1107 C 0.90638 0.26292 0.55815 0.0
C1108 C 0.86536 0.2281 0.50899 0.0
C1109 C 0.86854 0.24058 0.48628 0.0
C1110 C 0.89124 0.25577 0.53528 0.0
C1111 C 0.88183 0.26102 0.49013 0.0
C1112 C 0.91929 0.28311 0.56407 0.0
C1113 C 0.92344 0.25462 0.59203 0.0
N1114 N 0.89303 0.26796 0.51395 0.0
N1115 N 0.90889 0.24944 0.57242 0.0
H1116 H 0.36439 0.25729 0.61291 0.0
H1117 H 0.3369 0.23972 0.45735 0.0
H1118 H 0.33999 0.28928 0.57257 0.0
H1119 H 0.31758 0.18881 0.51043 0.0
H1120 H 0.34176 0.25966 0.49794 0.0
H1121 H 0.35128 0.23337 0.57464 0.0
C1122 C 0.35613 0.25917 0.59602 0.0
C1123 C 0.35329 0.27526 0.59568 0.0
C1124 C 0.3362 0.24405 0.50056 0.0
C1125 C 0.33872 0.24831 0.55185 0.0
C1126 C 0.33323 0.23248 0.47733 0.0
C1127 C 0.32654 0.21223 0.48003 0.0
C1128 C 0.33321 0.23567 0.52696 0.0
C1129 C 0.32306 0.2043 0.50701 0.0
C1130 C 0.34858 0.24548 0.57438 0.0
C1131 C 0.34243 0.27703 0.5735 0.0
N1132 N 0.32674 0.21611 0.52945 0.0
N1133 N 0.33587 0.2639 0.55207 0.0
H1134 H 0.74104 0.06566 0.59057 0.0
H1135 H 0.79562 0.16665 0.50423 0.0
H1136 H 0.74549 0.12009 0.61535 0.0
H1137 H 0.78852 0.11222 0.47391 0.0
H1138 H 0.77996 0.15007 0.54724 0.0
H1139 H 0.76054 0.08254 0.54933 0.0
C1140 C 0.74613 0.08111 0.5874 0.0
C1141 C 0.74149 0.09142 0.60637 0.0
C1142 C 0.78188 0.14172 0.53126 0.0
C1143 C 0.76381 0.11077 0.55953 0.0
C1144 C 0.791 0.15126 0.50675 0.0
C1145 C 0.7933 0.1408 0.48534 0.0
C1146 C 0.77491 0.12152 0.53448 0.0
C1147 C 0.78674 0.12077 0.48969 0.0
C1148 C 0.75725 0.09073 0.5639 0.0
C1149 C 0.74853 0.11145 0.60127 0.0
N1150 N 0.77774 0.11173 0.51373 0.0
N1151 N 0.75927 0.12041 0.5784 0.0
H1152 H 0.95628 0.717 0.59259 0.0
H1153 H 0.88371 0.64317 0.47417 0.0
H1154 H 0.94057 0.65613 0.58839 0.0
H1155 H 0.89078 0.69989 0.49072 0.0
H1156 H 0.90534 0.6477 0.51452 0.0
H1157 H 0.93392 0.71132 0.55327 0.0
C1158 C 0.94824 0.70243 0.5833 0.0
C1159 C 0.95033 0.687 0.59396 0.0
C1160 C 0.90203 0.65907 0.50946 0.0
C1161 C 0.92443 0.68038 0.54871 0.0
C1162 C 0.8897 0.65651 0.48647 0.0
C1163 C 0.88547 0.67119 0.47911 0.0
C1164 C 0.91037 0.67656 0.52505 0.0
C1165 C 0.89351 0.68813 0.4958 0.0
C1166 C 0.93534 0.69918 0.56087 0.0
C1167 C 0.93945 0.66846 0.58089 0.0
N1168 N 0.90569 0.69041 0.51784 0.0
N1169 N 0.92695 0.66566 0.55894 0.0
H1170 H 0.94152 0.70713 0.73095 0.0
H1171 H 0.88778 0.638 0.86073 0.0
H1172 H 0.94127 0.65313 0.7458 0.0
H1173 H 0.885 0.68948 0.83842 0.0
H1174 H 0.90493 0.64124 0.81733 0.0
H1175 H 0.91891 0.69917 0.76899 0.0
C1176 C 0.93674 0.69356 0.74227 0.0
C1177 C 0.94351 0.68087 0.73529 0.0
C1178 C 0.90027 0.65162 0.8218 0.0
C1179 C 0.91735 0.6716 0.77925 0.0
C1180 C 0.8905 0.64981 0.84656 0.0
C1181 C 0.88509 0.66361 0.85343 0.0
C1182 C 0.90472 0.6674 0.80387 0.0
C1183 C 0.88872 0.6784 0.83406 0.0
C1184 C 0.92368 0.68896 0.76399 0.0
C1185 C 0.93651 0.66338 0.75058 0.0
N1186 N 0.89848 0.68001 0.8104 0.0
N1187 N 0.92392 0.65932 0.77205 0.0
H1188 H 0.34485 0.28332 0.74714 0.0
H1189 H 0.39356 0.23418 0.8412 0.0
H1190 H 0.40116 0.28789 0.73068 0.0
H1191 H 0.34244 0.23697 0.866 0.0
H1192 H 0.39449 0.25118 0.79812 0.0
H1193 H 0.34202 0.26427 0.78911 0.0
C1194 C 0.35663 0.28041 0.75236 0.0
C1195 C 0.37328 0.28729 0.73535 0.0
C1196 C 0.38301 0.24802 0.81294 0.0
C1197 C 0.37004 0.26536 0.78303 0.0
C1198 C 0.38239 0.23816 0.83741 0.0
C1199 C 0.36798 0.23425 0.85724 0.0
C1200 C 0.36907 0.25395 0.80818 0.0
C1201 C 0.35398 0.23995 0.85139 0.0
C1202 C 0.35499 0.2695 0.77626 0.0
C1203 C 0.38805 0.28298 0.74311 0.0
N1204 N 0.3549 0.24955 0.82743 0.0
N1205 N 0.38605 0.27229 0.76626 0.0
H1206 H 0.74516 0.05348 0.75138 0.0
H1207 H 0.8222 0.14825 0.84101 0.0
H1208 H 0.74844 0.10963 0.74974 0.0
H1209 H 0.8039 0.08935 0.86884 0.0
H1210 H 0.80074 0.13426 0.80002 0.0
H1211 H 0.77087 0.06626 0.78881 0.0
C1212 C 0.75118 0.0684 0.75892 0.0
C1213 C 0.74453 0.08045 0.74749 0.0
C1214 C 0.80158 0.12438 0.81492 0.0
C1215 C 0.77415 0.0952 0.78946 0.0
C1216 C 0.81409 0.13237 0.83819 0.0
C1217 C 0.81479 0.11997 0.85859 0.0
C1218 C 0.78964 0.1038 0.81184 0.0
C1219 C 0.8036 0.09945 0.85382 0.0
C1220 C 0.76586 0.07567 0.78015 0.0
C1221 C 0.75293 0.0997 0.75796 0.0
N1222 N 0.79131 0.09196 0.83103 0.0
N1223 N 0.76733 0.10647 0.77814 0.0
H1224 H 0.05432 0.34306 0.97666 0.0
H1225 H 0.15493 0.39514 0.06783 0.0
H1226 H 0.07779 0.39838 0.02017 0.0
H1227 H 0.12803 0.33618 0.03507 0.0
H1228 H 0.13203 0.4004 0.03885 0.0
H1229 H 0.08547 0.34383 0.98747 0.0
C1230 C 0.06611 0.35551 0.98814 0.0
C1231 C 0.06328 0.37051 -0.00206 0.0
C1232 C 0.13147 0.38649 0.03731 0.0
C1233 C 0.099 0.3715 0.01026 0.0
C1234 C 0.14476 0.38362 0.05354 0.0
C1235 C 0.14333 0.36523 0.05372 0.0
C1236 C 0.11645 0.37073 0.02151 0.0
C1237 C 0.12966 0.35062 0.03529 0.0
C1238 C 0.0839 0.35594 -0.00571 0.0
C1239 C 0.07916 0.38633 0.01255 0.0
N1240 N 0.11642 0.35351 0.02034 0.0
N1241 N 0.09622 0.3863 0.01849 0.0
H1242 H 0.63605 0.68727 0.01889 0.0
H1243 H 0.69975 0.80197 0.04601 0.0
H1244 H 0.69745 0.72278 -0.0061 0.0
H1245 H 0.63539 0.7689 0.0448 0.0
H1246 H 0.69938 0.77444 0.0226 0.0
H1247 H 0.63539 0.71745 0.02613 0.0
C1248 C 0.64939 0.70141 0.01485 0.0
C1249 C 0.66688 0.70246 0.00601 0.0
C1250 C 0.68531 0.77343 0.02655 0.0
C1251 C 0.66626 0.73719 0.01431 0.0
C1252 C 0.68555 0.78931 0.03945 0.0
C1253 C 0.66758 0.7878 0.0469 0.0
C1254 C 0.66696 0.75576 0.02174 0.0
C1255 C 0.64955 0.77076 0.03893 0.0
C1256 C 0.64896 0.71866 0.01878 0.0
C1257 C 0.68365 0.72124 0.00085 0.0
N1258 N 0.64969 0.75523 0.02738 0.0
N1259 N 0.68301 0.73784 0.00541 0.0
H1260 H 0.32781 0.99259 0.04628 0.0
H1261 H 0.21726 0.90131 0.03731 0.0
H1262 H 0.31792 0.94232 -0.00128 0.0
H1263 H 0.24959 0.92402 0.11508 0.0
H1264 H 0.24922 0.92122 0.01288 0.0
H1265 H 0.29281 0.97347 0.06074 0.0
C1266 C 0.31813 0.97776 0.03827 0.0
C1267 C 0.32574 0.96888 0.02164 0.0
C1268 C 0.24902 0.92182 0.03529 0.0
C1269 C 0.28594 0.94727 0.03759 0.0
C1270 C 0.23093 0.91041 0.0492 0.0
C1271 C 0.23058 0.91143 0.07825 0.0
C1272 C 0.26653 0.9345 0.05063 0.0
C1273 C 0.24885 0.92336 0.09265 0.0
C1274 C 0.29828 0.96689 0.04656 0.0
C1275 C 0.3126 0.94956 0.0119 0.0
N1276 N 0.26594 0.93463 0.0787 0.0
N1277 N 0.29329 0.93927 0.02018 0.0
H1278 H 0.36059 0.0642 0.04017 0.0
H1279 H 0.41447 0.16046 0.94497 0.0
H1280 H 0.41088 0.07975 0.98829 0.0
H1281 H 0.35705 0.13894 0.98137 0.0
H1282 H 0.41828 0.13621 0.97192 0.0
H1283 H 0.36341 0.09571 0.02846 0.0
C1284 C 0.37235 0.0743 0.02654 0.0
C1285 C 0.38536 0.06917 0.01491 0.0
C1286 C 0.4051 0.13716 0.97472 0.0
C1287 C 0.38877 0.10539 0.00167 0.0
C1288 C 0.40312 0.15126 0.95974 0.0
C1289 C 0.38551 0.15179 0.96119 0.0
C1290 C 0.38926 0.12336 0.99107 0.0
C1291 C 0.37096 0.13916 0.98 0.0
C1292 C 0.37396 0.09231 0.01991 0.0
C1293 C 0.40036 0.08293 -0.00251 0.0
N1294 N 0.37297 0.12518 -0.00616 0.0
N1295 N 0.40157 0.10032 -0.00871 0.0
H1296 H 0.98891 0.31374 -0.00162 0.0
H1297 H 0.87959 0.21994 0.97931 0.0
H1298 H 0.93512 0.3101 0.02653 0.0
H1299 H 0.93259 0.2237 0.94812 0.0
H1300 H 0.90069 0.24923 0.00793 0.0
H1301 H 0.96977 0.27802 0.99003 0.0
C1302 C 0.97317 0.30541 0.00324 0.0
C1303 C 0.96354 0.31502 0.01263 0.0
C1304 C 0.90775 0.24334 -0.00453 0.0
C1305 C 0.94152 0.27415 0.00309 0.0
C1306 C 0.89566 0.22642 0.97948 0.0
C1307 C 0.90441 0.21955 0.96126 0.0
C1308 C 0.92868 0.25349 -0.0071 0.0
C1309 C 0.92533 0.22866 0.96189 0.0
C1310 C 0.96223 0.285 -0.00153 0.0
C1311 C 0.94312 0.30341 0.01876 0.0
N1312 N 0.93678 0.24544 0.97692 0.0
N1313 N 0.93277 0.28369 0.01354 0.0
H1314 H 0.72178 0.68057 -0.00035 0.0
H1315 H 0.80491 0.6558 0.96897 0.0
H1316 H 0.71477 0.6232 0.01139 0.0
H1317 H 0.81692 0.71546 0.97011 0.0
H1318 H 0.77427 0.64502 -0.00609 0.0
H1319 H 0.75807 0.69493 -0.00373 0.0
C1320 C 0.72787 0.67106 0.00187 0.0
C1321 C 0.71518 0.6506 0.00512 0.0
C1322 C 0.78378 0.66057 0.98929 0.0
C1323 C 0.75652 0.66685 0.00145 0.0
C1324 C 0.80152 0.6668 0.97535 0.0
C1325 C 0.81326 0.68648 0.96672 0.0
C1326 C 0.77757 0.67405 -0.0058 0.0
C1327 C 0.80796 0.70001 0.97563 0.0
C1328 C 0.74858 0.67925 4e-05 0.0
C1329 C 0.72389 0.63899 0.00817 0.0
N1330 N 0.79019 0.69346 0.98813 0.0
N1331 N 0.74391 0.64722 0.00593 0.0
H1332 H 0.99044 0.67681 -0.00144 0.0
H1333 H 0.87578 0.63229 0.95755 0.0
H1334 H 0.94563 0.61475 0.00293 0.0
H1335 H 0.92023 0.69431 0.95484 0.0
H1336 H 0.89971 0.62628 0.98266 0.0
H1337 H 0.96404 0.6841 0.99007 0.0
C1338 C 0.97503 0.6647 -0.00203 0.0
C1339 C 0.9703 0.64508 0.00108 0.0
C1340 C 0.90412 0.6413 0.97731 0.0
C1341 C 0.93989 0.65337 -0.00872 0.0
C1342 C 0.89036 0.64474 0.96333 0.0
C1343 C 0.89603 0.66383 0.95455 0.0
C1344 C 0.92381 0.65706 0.98201 0.0
C1345 C 0.91525 0.67942 0.96172 0.0
C1346 C 0.95993 0.66889 -0.00682 0.0
C1347 C 0.95002 0.63007 0.00039 0.0
N1348 N 0.92857 0.67566 0.97465 0.0
N1349 N 0.9356 0.6345 -0.00475 0.0
H1350 H 0.41094 0.33575 0.01686 0.0
H1351 H 0.33594 0.22837 0.95434 0.0
H1352 H 0.34956 0.31406 -0.00775 0.0
H1353 H 0.399 0.25196 0.96719 0.0
H1354 H 0.33904 0.25649 0.97961 0.0
H1355 H 0.40545 0.3028 0.00854 0.0
C1356 C 0.39626 0.32405 0.00995 0.0
C1357 C 0.38077 0.3278 0.00488 0.0
C1358 C 0.35213 0.25529 0.97766 0.0
C1359 C 0.37435 0.28997 -0.00446 0.0
C1360 C 0.35027 0.23904 0.96367 0.0
C1361 C 0.3672 0.23779 0.95897 0.0
C1362 C 0.37114 0.27055 0.98666 0.0
C1363 C 0.38556 0.25228 0.97076 0.0
C1364 C 0.39314 0.30522 0.00525 0.0
C1365 C 0.36203 0.31197 -0.0039 0.0
N1366 N 0.38714 0.26828 0.98362 0.0
N1367 N 0.35941 0.29385 -0.00845 0.0
H1368 H 0.71206 0.03613 -0.00367 0.0
H1369 H 0.80226 0.14438 0.96811 0.0
H1370 H 0.7124 0.08896 0.01861 0.0
H1371 H 0.80525 0.09216 0.95564 0.0
H1372 H 0.77206 0.12478 -0.00487 0.0
H1373 H 0.74813 0.05628 0.98882 0.0
C1374 C 0.71974 0.05189 6e-05 0.0
C1375 C 0.70908 0.06088 0.00758 0.0
C1376 C 0.77957 0.11767 0.98709 0.0
C1377 C 0.75032 0.08408 -0.00113 0.0
C1378 C 0.79698 0.12895 0.97195 0.0
C1379 C 0.80606 0.1198 0.95933 0.0
C1380 C 0.77114 0.0971 0.98929 0.0
C1381 C 0.79847 0.09969 0.96474 0.0
C1382 C 0.74035 0.06342 -0.00422 0.0
C1383 C 0.71988 0.08139 0.01231 0.0
N1384 N 0.7812 0.08891 0.97876 0.0
N1385 N 0.7398 0.09229 0.00749 0.0
H1386 H 0.60025 0.92894 0.01572 0.0
H1387 H 0.6755 0.88941 0.03073 0.0
H1388 H 0.66293 0.96332 -0.00353 0.0
H1389 H 0.61633 0.85952 0.0641 0.0
H1390 H 0.66817 0.91237 0.00651 0.0
H1391 H 0.60338 0.90006 0.02313 0.0
C1392 C 0.61464 0.9304 0.01275 0.0
C1393 C 0.63142 0.94872 0.00581 0.0
C1394 C 0.65653 0.90042 0.01839 0.0
C1395 C 0.63507 0.91555 0.01419 0.0
C1396 C 0.6606 0.88708 0.03177 0.0
C1397 C 0.64639 0.8724 0.04908 0.0
C1398 C 0.63817 0.89914 0.02258 0.0
C1399 C 0.62754 0.87044 0.05055 0.0
C1400 C 0.6164 0.91386 0.01698 0.0
C1401 C 0.64963 0.94959 0.00209 0.0
N1402 N 0.62408 0.88385 0.03787 0.0
N1403 N 0.651 0.93332 0.00655 0.0
H1404 H 0.05566 0.71497 0.00379 0.0
H1405 H 0.16235 0.80604 0.04682 0.0
H1406 H 0.11104 0.71597 -0.0042 0.0
H1407 H 0.10713 0.80494 0.05535 0.0
H1408 H 0.14483 0.7765 0.01746 0.0
H1409 H 0.07483 0.75048 0.01306 0.0
C1410 C 0.07184 0.72267 0.00364 0.0
C1411 C 0.08172 0.71235 -0.0005 0.0
C1412 C 0.13663 0.78304 0.025 0.0
C1413 C 0.10382 0.75308 0.01021 0.0
C1414 C 0.14673 0.80009 0.04138 0.0
C1415 C 0.13614 0.80789 0.05333 0.0
C1416 C 0.11577 0.77366 0.02097 0.0
C1417 C 0.11579 0.79937 0.0463 0.0
C1418 C 0.0828 0.74299 0.00889 0.0
C1419 C 0.10274 0.72322 -0.00072 0.0
N1420 N 0.10617 0.78249 0.03104 0.0
N1421 N 0.11306 0.74289 0.00494 0.0
H1422 H 0.30747 0.39064 0.98062 0.0
H1423 H 0.21724 0.30517 0.06206 0.0
H1424 H 0.30656 0.33923 0.01315 0.0
H1425 H 0.22083 0.35892 0.03492 0.0
H1426 H 0.24469 0.31222 0.03151 0.0
H1427 H 0.27165 0.37448 0.98803 0.0
C1428 C 0.29966 0.37581 0.98898 0.0
C1429 C 0.31012 0.36645 -0.00307 0.0
C1430 C 0.23911 0.32219 0.03159 0.0
C1431 C 0.26901 0.3479 0.00574 0.0
C1432 C 0.22332 0.31809 0.04885 0.0
C1433 C 0.2171 0.33174 0.05149 0.0
C1434 C 0.24875 0.34012 0.01702 0.0
C1435 C 0.22529 0.3481 0.03372 0.0
C1436 C 0.27916 0.36656 -0.00686 0.0
C1437 C 0.29914 0.34708 0.00709 0.0
N1438 N 0.24105 0.3521 0.01776 0.0
N1439 N 0.27923 0.3386 0.01176 0.0
H1440 H 0.70842 0.66978 0.31348 0.0
H1441 H 0.8143 0.72192 0.39306 0.0
H1442 H 0.73567 0.72652 0.3541 0.0
H1443 H 0.78353 0.66163 0.3647 0.0
H1444 H 0.78987 0.72693 0.36754 0.0
H1445 H 0.73916 0.66935 0.32217 0.0
C1446 C 0.72092 0.68226 0.32395 0.0
C1447 C 0.71931 0.69809 0.3334 0.0
C1448 C 0.78875 0.71275 0.36614 0.0
C1449 C 0.75466 0.69772 0.34329 0.0
C1450 C 0.80293 0.71002 0.38029 0.0
C1451 C 0.80101 0.6914 0.38071 0.0
C1452 C 0.77238 0.69666 0.35259 0.0
C1453 C 0.78567 0.67628 0.36454 0.0
C1454 C 0.7385 0.682 0.32888 0.0
C1455 C 0.7361 0.71389 0.34672 0.0
N1456 N 0.7717 0.67911 0.35155 0.0
N1457 N 0.75296 0.71322 0.35144 0.0
H1458 H 0.29899 0.0125 0.37845 0.0
H1459 H 0.35211 0.12919 0.37044 0.0
H1460 H 0.3427 0.04666 0.3166 0.0
H1461 H 0.29823 0.0924 0.41546 0.0
H1462 H 0.34786 0.09961 0.3476 0.0
H1463 H 0.29803 0.04179 0.39095 0.0
C1464 C 0.30841 0.02617 0.36749 0.0
C1465 C 0.32106 0.02712 0.34657 0.0
C1466 C 0.33663 0.09804 0.36185 0.0
C1467 C 0.32001 0.06086 0.36079 0.0
C1468 C 0.33891 0.11495 0.37454 0.0
C1469 C 0.32531 0.11319 0.39445 0.0
C1470 C 0.32087 0.07927 0.36965 0.0
C1471 C 0.30883 0.09435 0.39984 0.0
C1472 C 0.30775 0.04289 0.3745 0.0
C1473 C 0.33277 0.04525 0.33293 0.0
N1474 N 0.30725 0.07811 0.38789 0.0
N1475 N 0.33212 0.06144 0.34045 0.0
H1476 H 0.98562 0.26241 0.35349 0.0
H1477 H 0.88767 0.2648 0.38631 0.0
H1478 H 0.98331 0.31572 0.35336 0.0
H1479 H 0.89135 0.2124 0.39113 0.0
H1480 H 0.92043 0.28235 0.36473 0.0
H1481 H 0.94956 0.24304 0.35903 0.0
C1482 C 0.97753 0.27008 0.35455 0.0
C1483 C 0.98762 0.2908 0.35338 0.0
C1484 C 0.91391 0.2669 0.36991 0.0
C1485 C 0.94609 0.26854 0.35966 0.0
C1486 C 0.89514 0.25684 0.38197 0.0
C1487 C 0.88693 0.23719 0.39068 0.0
C1488 C 0.92459 0.25728 0.36674 0.0
C1489 C 0.89716 0.22752 0.38466 0.0
C1490 C 0.95687 0.25895 0.35759 0.0
C1491 C 0.97622 0.29982 0.35447 0.0
N1492 N 0.91565 0.23778 0.37352 0.0
N1493 N 0.95608 0.28863 0.35782 0.0
H1494 H 0.02401 0.38287 0.33218 0.0
H1495 H 0.07355 0.49739 0.29977 0.0
H1496 H 0.08621 0.4259 0.34919 0.0
H1497 H 1.01073 0.45484 0.28883 0.0
H1498 H 0.07748 0.47276 0.32564 0.0
H1499 H 0.01799 0.40972 0.32253 0.0
C1500 C 0.0364 0.39797 0.33405 0.0
C1501 C 0.05571 0.40208 0.3412 0.0
C1502 C 0.06269 0.46895 0.31838 0.0
C1503 C 0.0489 0.43305 0.33013 0.0
C1504 C 0.06041 0.48315 0.30406 0.0
C1505 C 0.04174 0.4782 0.29256 0.0
C1506 C 0.04623 0.44957 0.32076 0.0
C1507 C 0.0253 0.45931 0.2978 0.0
C1508 C 0.03293 0.41333 0.32864 0.0
C1509 C 0.07111 0.42198 0.34354 0.0
N1510 N 0.02798 0.44557 0.31106 0.0
N1511 N 0.06742 0.43669 0.33773 0.0
H1512 H 0.58997 0.64752 0.35276 0.0
H1513 H 0.58871 0.55278 0.29673 0.0
H1514 H 0.64297 0.64508 0.33878 0.0
H1515 H 0.53709 0.55883 0.29672 0.0
H1516 H 0.60715 0.58275 0.32492 0.0
H1517 H 0.56947 0.61211 0.34414 0.0
C1518 C 0.59736 0.63952 0.34818 0.0
C1519 C 0.61827 0.64943 0.346 0.0
C1520 C 0.59162 0.57725 0.31948 0.0
C1521 C 0.59472 0.60869 0.33612 0.0
C1522 C 0.58102 0.56 0.30374 0.0
C1523 C 0.56139 0.5534 0.2945 0.0
C1524 C 0.58255 0.58805 0.32577 0.0
C1525 C 0.55215 0.5634 0.30365 0.0
C1526 C 0.58559 0.61925 0.34331 0.0
C1527 C 0.62692 0.63814 0.34038 0.0
N1528 N 0.56295 0.58048 0.31837 0.0
N1529 N 0.61509 0.61842 0.33529 0.0
H1530 H 0.36548 0.94324 0.3196 0.0
H1531 H 0.47321 0.03726 0.29389 0.0
H1532 H 0.37855 1.00302 0.32838 0.0
H1533 H 0.45902 0.97709 0.28733 0.0
H1534 H 0.44051 0.02549 0.31418 0.0
H1535 H 0.40081 0.95572 0.31405 0.0
C1536 C 0.37578 0.95906 0.32033 0.0
C1537 C 0.3689 0.97212 0.32407 0.0
C1538 C 0.4447 0.01487 0.30894 0.0
C1539 C 0.40978 0.98659 0.31776 0.0
C1540 C 0.46344 0.02159 0.29763 0.0
C1541 C 0.46875 1.00809 0.28877 0.0
C1542 C 0.43113 0.99449 0.31124 0.0
C1543 C 0.45556 0.98799 0.29396 0.0
C1544 C 0.39606 0.96618 0.31732 0.0
C1545 C 0.38313 0.99243 0.32528 0.0
N1546 N 0.43722 0.98177 0.30438 0.0
N1547 N 0.4029 0.99906 0.32184 0.0
H1548 H 0.62572 0.95853 0.32515 0.0
H1549 H 0.57775 0.02438 0.30041 0.0
H1550 H 0.6537 0.01847 0.3551 0.0
H1551 H 0.54594 0.96154 0.28679 0.0
H1552 H 0.60382 0.02199 0.32634 0.0
H1553 H 0.59501 0.95867 0.31554 0.0
C1554 C 0.62536 0.97168 0.3299 0.0
C1555 C 0.6424 0.98858 0.34067 0.0
C1556 C 0.59085 1.00862 0.31841 0.0
C1557 C 0.60722 0.98892 0.32952 0.0
C1558 C 0.57585 0.00998 0.30396 0.0
C1559 C 0.5597 0.99312 0.29161 0.0
C1560 C 0.58973 0.99031 0.32007 0.0
C1561 C 0.55815 0.97485 0.29616 0.0
C1562 C 0.60777 0.97174 0.32453 0.0
C1563 C 0.64096 1.00513 0.34665 0.0
N1564 N 0.57314 0.97398 0.30955 0.0
N1565 N 0.62379 1.00499 0.34063 0.0
H1566 H 1.0081 0.63297 0.36035 0.0
H1567 H 0.06984 0.59624 0.2762 0.0
H1568 H 0.06214 0.67141 0.31612 0.0
H1569 H 1.01017 0.55716 0.305 0.0
H1570 H 0.07105 0.62349 0.30156 0.0
H1571 H 1.01198 0.60498 0.34963 0.0
C1572 C 0.02088 0.63558 0.3486 0.0
C1573 C 0.03469 0.65458 0.33884 0.0
C1574 C 0.05789 0.60885 0.30305 0.0
C1575 C 0.0393 0.62257 0.32672 0.0
C1576 C 0.05736 0.59324 0.28899 0.0
C1577 C 0.04 0.57442 0.28891 0.0
C1578 C 0.04083 0.60565 0.31687 0.0
C1579 C 0.02395 0.57141 0.305 0.0
C1580 C 0.02309 0.61958 0.34252 0.0
C1581 C 0.051 0.65703 0.32381 0.0
N1582 N 0.02461 0.58693 0.31801 0.0
N1583 N 0.05278 0.64122 0.31811 0.0
H1584 H 0.38607 0.41833 0.36187 0.0
H1585 H 0.47265 0.42056 0.27788 0.0
H1586 H 0.38243 0.36677 0.32627 0.0
H1587 H 0.47438 0.47222 0.30913 0.0
H1588 H 0.4443 0.39987 0.30755 0.0
H1589 H 0.42197 0.43694 0.35425 0.0
C1590 C 0.39287 0.41082 0.35278 0.0
C1591 C 0.38113 0.39106 0.34409 0.0
C1592 C 0.45123 0.41576 0.30858 0.0
C1593 C 0.42234 0.41242 0.33508 0.0
C1594 C 0.46753 0.42759 0.29184 0.0
C1595 C 0.47558 0.44808 0.29071 0.0
C1596 C 0.44286 0.42452 0.32407 0.0
C1597 C 0.46852 0.45647 0.30926 0.0
C1598 C 0.41342 0.42148 0.3485 0.0
C1599 C 0.39085 0.38204 0.33294 0.0
N1600 N 0.45221 0.44461 0.32467 0.0
N1601 N 0.41085 0.3929 0.32825 0.0
H1602 H 0.27286 0.2596 0.32971 0.0
H1603 H 0.34926 0.22524 0.37276 0.0
H1604 H 0.337 0.29828 0.33513 0.0
H1605 H 0.28544 0.18876 0.38071 0.0
H1606 H 0.34468 0.24904 0.34583 0.0
H1607 H 0.27699 0.23125 0.33676 0.0
C1608 C 0.28783 0.26214 0.33206 0.0
C1609 C 0.30459 0.28142 0.33227 0.0
C1610 C 0.3316 0.23552 0.35263 0.0
C1611 C 0.30942 0.24895 0.34021 0.0
C1612 C 0.33422 0.22175 0.36752 0.0
C1613 C 0.31769 0.20497 0.37872 0.0
C1614 C 0.31231 0.23253 0.34918 0.0
C1615 C 0.29853 0.20142 0.3721 0.0
C1616 C 0.29017 0.24592 0.33604 0.0
C1617 C 0.32362 0.28374 0.3352 0.0
N1618 N 0.29637 0.21528 0.35825 0.0
N1619 N 0.32549 0.26775 0.33931 0.0
H1620 H 0.77031 0.046 0.32403 0.0
H1621 H 0.76079 0.13218 0.38865 0.0
H1622 H 0.71405 0.0414 0.34067 0.0
H1623 H 0.81698 0.13681 0.37259 0.0
H1624 H 0.74356 0.10217 0.36038 0.0
H1625 H 0.78745 0.08154 0.3319 0.0
C1626 C 0.7615 0.05247 0.32904 0.0
C1627 C 0.74071 0.04058 0.33222 0.0
C1628 C 0.75971 0.11001 0.36229 0.0
C1629 C 0.76035 0.08141 0.34136 0.0
C1630 C 0.76955 0.12728 0.37812 0.0
C1631 C 0.79028 0.13688 0.38288 0.0
C1632 C 0.77068 0.10214 0.35159 0.0
C1633 C 0.80098 0.12985 0.36923 0.0
C1634 C 0.77132 0.07282 0.33346 0.0
C1635 C 0.73011 0.04991 0.33835 0.0
N1636 N 0.79101 0.11263 0.35468 0.0
N1637 N 0.74008 0.06971 0.34312 0.0
H1638 H 0.97242 0.66966 0.34678 0.0
H1639 H 0.88503 0.69097 0.36006 0.0
H1640 H 0.97385 0.72162 0.31558 0.0
H1641 H 0.88134 0.63762 0.38941 0.0
H1642 H 0.91325 0.69759 0.3316 0.0
H1643 H 0.93607 0.6536 0.35182 0.0
C1644 C 0.96505 0.67752 0.34045 0.0
C1645 C 0.97623 0.69717 0.33141 0.0
C1646 C 0.90596 0.68411 0.34364 0.0
C1647 C 0.93478 0.67899 0.33712 0.0
C1648 C 0.88959 0.68019 0.35958 0.0
C1649 C 0.88117 0.66399 0.3776 0.0
C1650 C 0.91405 0.67188 0.34611 0.0
C1651 C 0.88774 0.65052 0.37617 0.0
C1652 C 0.9443 0.66837 0.34333 0.0
C1653 C 0.9659 0.70662 0.32331 0.0
N1654 N 0.90419 0.65507 0.36143 0.0
N1655 N 0.94587 0.69758 0.32673 0.0
H1656 H 0.37741 1.00528 0.64651 0.0
H1657 H 0.48302 0.0577 0.72708 0.0
H1658 H 0.40227 0.05971 0.69271 0.0
H1659 H 0.45294 0.99761 0.69798 0.0
H1660 H 0.45811 0.06235 0.70224 0.0
H1661 H 0.4086 1.00558 0.65463 0.0
C1662 C 0.38948 0.01741 0.65812 0.0
C1663 C 0.38708 0.03237 0.66925 0.0
C1664 C 0.45728 0.04831 0.70051 0.0
C1665 C 0.42295 0.03288 0.67836 0.0
C1666 C 0.47173 0.0458 0.71423 0.0
C1667 C 0.47009 0.02729 0.71437 0.0
C1668 C 0.44097 0.03215 0.68701 0.0
C1669 C 0.45486 0.01216 0.69807 0.0
C1670 C 0.4073 0.01757 0.66271 0.0
C1671 C 0.40332 0.04774 0.68401 0.0
N1672 N 0.44063 0.01479 0.68548 0.0
N1673 N 0.42047 0.04752 0.68826 0.0
H1674 H 1.00542 0.37168 0.67653 0.0
H1675 H 0.95889 0.43408 0.72897 0.0
H1676 H 0.94188 0.34777 0.6815 0.0
H1677 H 0.02166 0.45873 0.71533 0.0
H1678 H 0.95169 0.40376 0.70513 0.0
H1679 H 1.01125 0.40458 0.68557 0.0
C1680 C 0.99267 0.37334 0.67941 0.0
C1681 C 0.97313 0.35685 0.67854 0.0
C1682 C 0.967 0.416 0.70661 0.0
C1683 C 0.9797 0.39462 0.68894 0.0
C1684 C 0.97105 0.43341 0.71982 0.0
C1685 C 0.99086 0.44894 0.72381 0.0
C1686 C 0.98294 0.41408 0.69774 0.0
C1687 C 1.00617 0.44713 0.71236 0.0
C1688 C 0.996 0.39218 0.68445 0.0
C1689 C 0.95721 0.36 0.68218 0.0
N1690 N 1.00193 0.42992 0.70027 0.0
N1691 N 0.96085 0.37845 0.6875 0.0
H1692 H 0.65763 0.65251 0.68754 0.0
H1693 H 0.56846 0.5445 0.72628 0.0
H1694 H 0.66328 0.60123 0.69525 0.0
H1695 H 0.56302 0.59594 0.72454 0.0
H1696 H 0.60104 0.56373 0.70447 0.0
H1697 H 0.62138 0.63109 0.69243 0.0
C1698 C 0.65127 0.63677 0.69012 0.0
C1699 C 0.66358 0.62872 0.69143 0.0
C1700 C 0.59254 0.57072 0.70826 0.0
C1701 C 0.62212 0.60411 0.69676 0.0
C1702 C 0.5738 0.55964 0.72033 0.0
C1703 C 0.56319 0.56873 0.72741 0.0
C1704 C 0.60069 0.59102 0.70345 0.0
C1705 C 0.5709 0.58848 0.71958 0.0
C1706 C 0.63056 0.62453 0.6928 0.0
C1707 C 0.65445 0.60817 0.69453 0.0
N1708 N 0.58936 0.59909 0.70851 0.0
N1709 N 0.63435 0.59663 0.69728 0.0
H1710 H 0.67847 0.71675 0.69285 0.0
H1711 H 0.7393 0.82545 0.62858 0.0
H1712 H 0.73913 0.74485 0.66449 0.0
H1713 H 0.67512 0.79197 0.63361 0.0
H1714 H 0.74084 0.79951 0.6545 0.0
H1715 H 0.67835 0.74703 0.68223 0.0
C1716 C 0.69183 0.72932 0.68461 0.0
C1717 C 0.70878 0.72816 0.67926 0.0
C1718 C 0.72643 0.79806 0.65068 0.0
C1719 C 0.70879 0.76294 0.66744 0.0
C1720 C 0.7256 0.81304 0.63636 0.0
C1721 C 0.70708 0.81092 0.62935 0.0
C1722 C 0.70859 0.78076 0.65784 0.0
C1723 C 0.68969 0.79426 0.63908 0.0
C1724 C 0.69173 0.7466 0.67859 0.0
C1725 C 0.72566 0.74497 0.66866 0.0
N1726 N 0.69083 0.77964 0.65249 0.0
N1727 N 0.72521 0.76161 0.66304 0.0
H1728 H 0.31129 0.97708 0.67211 0.0
H1729 H 0.2519 0.87779 0.64334 0.0
H1730 H 0.25653 0.97729 0.67994 0.0
H1731 H 0.20555 0.89084 0.62769 0.0
H1732 H 0.27126 0.90883 0.6689 0.0
H1733 H 0.29162 0.9414 0.66535 0.0
C1734 C 0.29514 0.96957 0.6729 0.0
C1735 C 0.2856 0.98029 0.67627 0.0
C1736 C 0.2568 0.90494 0.66022 0.0
C1737 C 0.26275 0.93915 0.66915 0.0
C1738 C 0.2455 0.88692 0.64628 0.0
C1739 C 0.22712 0.88181 0.63353 0.0
C1740 C 0.2498 0.91808 0.66081 0.0
C1741 C 0.21958 0.89421 0.63747 0.0
C1742 C 0.28381 0.94905 0.66931 0.0
C1743 C 0.26459 0.96973 0.67709 0.0
N1744 N 0.23112 0.91197 0.65032 0.0
N1745 N 0.25393 0.94985 0.67321 0.0
H1746 H 0.0465 0.33901 0.65905 0.0
H1747 H 0.12592 0.30916 0.61982 0.0
H1748 H 0.03419 0.2792 0.6577 0.0
H1749 H 0.13968 0.36933 0.62287 0.0
H1750 H 0.09422 0.29855 0.64245 0.0
H1751 H 0.0821 0.35102 0.65303 0.0
C1752 C 0.05127 0.32843 0.65773 0.0
C1753 C 0.03725 0.30807 0.65843 0.0
C1754 C 0.10435 0.31415 0.63875 0.0
C1755 C 0.07792 0.32165 0.65169 0.0
C1756 C 0.12259 0.32021 0.62618 0.0
C1757 C 0.13531 0.34011 0.61925 0.0
C1758 C 0.09878 0.32807 0.64417 0.0
C1759 C 0.13013 0.3538 0.62765 0.0
C1760 C 0.0716 0.33527 0.65436 0.0
C1761 C 0.04435 0.29503 0.65683 0.0
N1762 N 0.1121 0.3475 0.63915 0.0
N1763 N 0.06409 0.30203 0.65331 0.0
H1764 H 0.3203 0.33961 0.66856 0.0
H1765 H 0.20583 0.29454 0.62529 0.0
H1766 H 0.27624 0.27721 0.66738 0.0
H1767 H 0.25014 0.3566 0.62319 0.0
H1768 H 0.22961 0.28858 0.65092 0.0
H1769 H 0.29357 0.3466 0.66113 0.0
C1770 C 0.30498 0.32735 0.66704 0.0
C1771 C 0.30058 0.30776 0.66819 0.0
C1772 C 0.23399 0.30361 0.64565 0.0
C1773 C 0.2698 0.31571 0.6596 0.0
C1774 C 0.22029 0.30702 0.63143 0.0
C1775 C 0.22599 0.32611 0.62255 0.0
C1776 C 0.25365 0.31938 0.65056 0.0
C1777 C 0.24511 0.34173 0.63014 0.0
C1778 C 0.2897 0.33138 0.66283 0.0
C1779 C 0.28041 0.29254 0.66633 0.0
N1780 N 0.25838 0.33799 0.64329 0.0
N1781 N 0.26582 0.29683 0.66181 0.0
H1782 H 0.73052 1.00603 0.65132 0.0
H1783 H 0.67443 0.88929 0.64431 0.0
H1784 H 0.67729 0.96813 0.69744 0.0
H1785 H 0.73292 0.92782 0.61139 0.0
H1786 H 0.67711 0.91736 0.66945 0.0
H1787 H 0.73325 0.97748 0.64062 0.0
C1788 C 0.71943 0.99171 0.65931 0.0
C1789 C 0.70351 0.98947 0.67504 0.0
C1790 C 0.68965 0.9196 0.65745 0.0
C1791 C 0.70654 0.95656 0.6628 0.0
C1792 C 0.68823 0.90351 0.64348 0.0
C1793 C 0.70361 0.90627 0.62616 0.0
C1794 C 0.70641 0.93861 0.65353 0.0
C1795 C 0.7209 0.92509 0.62494 0.0
C1796 C 0.72107 0.97539 0.65332 0.0
C1797 C 0.68974 0.97055 0.68508 0.0
N1798 N 0.72169 0.94062 0.638 0.0
N1799 N 0.69142 0.95479 0.67851 0.0
H1800 H 0.04223 0.69594 0.66003 0.0
H1801 H 0.13899 0.8022 0.64642 0.0
H1802 H 0.048 0.74985 0.69007 0.0
H1803 H 0.13345 0.7492 0.61333 0.0
H1804 H 0.10973 0.78192 0.67473 0.0
H1805 H 0.07851 0.71362 0.65399 0.0
C1806 C 0.05115 0.71138 0.66584 0.0
C1807 C 0.042 0.72153 0.67492 0.0
C1808 C 0.1152 0.77467 0.66187 0.0
C1809 C 0.08348 0.74186 0.66805 0.0
C1810 C 0.13211 0.78629 0.64599 0.0
C1811 C 0.13836 0.77734 0.62711 0.0
C1812 C 0.10443 0.75401 0.65856 0.0
C1813 C 0.12883 0.75664 0.6273 0.0
C1814 C 0.07187 0.72148 0.66239 0.0
C1815 C 0.05434 0.7415 0.68239 0.0
N1816 N 0.11201 0.74566 0.64218 0.0
N1817 N 0.07435 0.75106 0.6784 0.0
H1818 H 0.95424 0.60965 0.67707 0.0
H1819 H 0.01612 0.55764 0.70844 0.0
H1820 H 0.01454 0.63311 0.64944 0.0
H1821 H 0.95359 0.53126 0.72562 0.0
H1822 H 0.01454 0.58262 0.6798 0.0
H1823 H 0.95241 0.57873 0.68902 0.0
C1824 C 0.96704 0.60825 0.67326 0.0
C1825 C 0.98466 0.62413 0.66255 0.0
C1826 C 1.00099 0.57102 0.68911 0.0
C1827 C 0.98273 0.58868 0.67641 0.0
C1828 C 1.00186 0.5566 0.70509 0.0
C1829 C 0.98492 0.54233 0.71913 0.0
C1830 C 0.98313 0.57127 0.6876 0.0
C1831 C 0.96691 0.54194 0.71486 0.0
C1832 C 0.96598 0.59053 0.68002 0.0
C1833 C 1.0007 0.62133 0.65784 0.0
N1834 N 0.96657 0.5564 0.6999 0.0
N1835 N 0.99945 0.60408 0.66516 0.0
H1836 H 0.44024 0.37957 0.64724 0.0
H1837 H 0.43774 0.46644 0.72333 0.0
H1838 H 0.38617 0.37816 0.66831 0.0
H1839 H 0.49194 0.46739 0.70571 0.0
H1840 H 0.41915 0.43814 0.69217 0.0
H1841 H 0.45949 0.41482 0.65805 0.0
C1842 C 0.43235 0.38671 0.6537 0.0
C1843 C 0.41156 0.37575 0.6574 0.0
C1844 C 0.43519 0.44483 0.69443 0.0
C1845 C 0.4336 0.41618 0.66996 0.0
C1846 C 0.44582 0.46113 0.71195 0.0
C1847 C 0.46634 0.46916 0.71699 0.0
C1848 C 0.44513 0.43631 0.6823 0.0
C1849 C 0.47613 0.46162 0.70217 0.0
C1850 C 0.44338 0.40688 0.65987 0.0
C1851 C 0.40218 0.38591 0.66554 0.0
N1852 N 0.46536 0.44532 0.68592 0.0
N1853 N 0.4133 0.40546 0.67194 0.0
H1854 H 0.64642 0.06055 0.6565 0.0
H1855 H 0.54904 0.97253 0.72286 0.0
H1856 H 0.64191 1.00686 0.68628 0.0
H1857 H 0.55627 0.02835 0.69867 0.0
H1858 H 0.57875 0.9805 0.69672 0.0
H1859 H 0.61035 0.0451 0.65983 0.0
C1860 C 0.63778 0.04538 0.66352 0.0
C1861 C 0.64726 0.03512 0.67174 0.0
C1862 C 0.5735 0.99075 0.69636 0.0
C1863 C 0.60574 0.01731 0.67583 0.0
C1864 C 0.55638 0.98609 0.71098 0.0
C1865 C 0.55043 0.99999 0.71333 0.0
C1866 C 0.58471 0.00944 0.68407 0.0
C1867 C 0.56041 0.01728 0.69755 0.0
C1868 C 0.61713 0.03654 0.6653 0.0
C1869 C 0.63523 0.01538 0.68005 0.0
N1870 N 0.57737 0.02175 0.68417 0.0
N1871 N 0.61511 1.00723 0.68241 0.0
loop_
_geom_bond_atom_site_label_1
_geom_bond_atom_site_label_2
_geom_bond_distance
_geom_bond_site_symmetry_2
_ccdc_geom_bond_type
Zn0 O3 2.031 1_554 S
Zn0 O5 2.049 . S
Zn0 O10 2.067 1_554 S
Zn1 O2 1.962 1_455 S
Zn1 O4 1.986 . S
Zn1 O6 1.996 1_455 S
Zn1 O9 1.943 1_554 S
O2 Zn1 1.962 1_655 S
O2 C7 1.254 1_554 S
O3 Zn0 2.031 1_556 S
O3 C7 1.269 . S
O4 Zn1 1.986 . S
O4 C11 1.262 . S
O5 Zn0 2.049 . S
O5 C13 1.260 . S
O6 Zn1 1.996 1_655 S
O6 C13 1.257 . S
C7 O2 1.254 1_556 S
C7 O3 1.269 . S
C8 O9 1.249 . S
C8 O10 1.270 1_455 S
O9 Zn1 1.943 1_556 S
O9 C8 1.249 . S
O10 Zn0 2.067 1_556 S
O10 C8 1.270 1_655 S
C11 O4 1.262 . S
C11 O12 1.232 . S
O12 C11 1.232 . S
C13 O5 1.260 . S
C13 O6 1.257 . S
Zn14 O17 2.031 1_554 S
Zn14 O19 2.049 . S
Zn14 O24 2.067 1_554 S
Zn15 O16 1.962 . S
Zn15 O18 1.986 . S
Zn15 O20 1.996 . S
Zn15 O23 1.943 1_554 S
O16 Zn15 1.962 . S
O16 C21 1.254 1_554 S
O17 Zn14 2.031 1_556 S
O17 C21 1.269 . S
O18 Zn15 1.986 . S
O18 C25 1.262 . S
O19 Zn14 2.049 . S
O19 C27 1.260 . S
O20 Zn15 1.996 . S
O20 C27 1.257 . S
C21 O16 1.254 1_556 S
C21 O17 1.269 . S
C22 O23 1.249 . S
C22 O24 1.270 . S
O23 Zn15 1.943 1_556 S
O23 C22 1.249 . S
O24 Zn14 2.067 1_556 S
O24 C22 1.270 . S
C25 O18 1.262 . S
C25 O26 1.232 . S
O26 C25 1.232 . S
C27 O19 1.260 . S
C27 O20 1.257 . S
Zn28 O31 2.031 . S
Zn28 O33 2.049 1_554 S
Zn28 O38 2.067 . S
Zn29 O30 1.962 1_545 S
Zn29 O32 1.986 1_554 S
Zn29 O34 1.996 1_544 S
Zn29 O37 1.943 . S
O30 Zn29 1.962 1_565 S
O30 C35 1.254 . S
O31 Zn28 2.031 . S
O31 C35 1.269 . S
O32 Zn29 1.986 1_556 S
O32 C39 1.262 . S
O33 Zn28 2.049 1_556 S
O33 C41 1.260 . S
O34 Zn29 1.996 1_566 S
O34 C41 1.257 . S
C35 O30 1.254 . S
C35 O31 1.269 . S
C36 O37 1.249 . S
C36 O38 1.270 1_545 S
O37 Zn29 1.943 . S
O37 C36 1.249 . S
O38 Zn28 2.067 . S
O38 C36 1.270 1_565 S
C39 O32 1.262 . S
C39 O40 1.232 1_556 S
O40 C39 1.232 1_554 S
C41 O33 1.260 . S
C41 O34 1.257 . S
Zn42 O45 2.031 . S
Zn42 O47 2.049 1_554 S
Zn42 O52 2.067 . S
Zn43 O44 1.962 1_655 S
Zn43 O46 1.986 1_554 S
Zn43 O48 1.996 1_654 S
Zn43 O51 1.943 . S
O44 Zn43 1.962 1_455 S
O44 C49 1.254 . S
O45 Zn42 2.031 . S
O45 C49 1.269 . S
O46 Zn43 1.986 1_556 S
O46 C53 1.262 . S
O47 Zn42 2.049 1_556 S
O47 C55 1.260 . S
O48 Zn43 1.996 1_456 S
O48 C55 1.257 . S
C49 O44 1.254 . S
C49 O45 1.269 . S
C50 O51 1.249 . S
C50 O52 1.270 1_655 S
O51 Zn43 1.943 . S
O51 C50 1.249 . S
O52 Zn42 2.067 . S
O52 C50 1.270 1_455 S
C53 O46 1.262 . S
C53 O54 1.232 1_556 S
O54 C53 1.232 1_554 S
C55 O47 1.260 . S
C55 O48 1.257 . S
Zn56 O59 2.031 . S
Zn56 O61 2.049 1_554 S
Zn56 O66 2.067 . S
Zn57 O58 1.962 . S
Zn57 O60 1.986 1_554 S
Zn57 O62 1.996 1_554 S
Zn57 O65 1.943 . S
O58 Zn57 1.962 . S
O58 C63 1.254 . S
O59 Zn56 2.031 . S
O59 C63 1.269 . S
O60 Zn57 1.986 1_556 S
O60 C67 1.262 . S
O61 Zn56 2.049 1_556 S
O61 C69 1.260 . S
O62 Zn57 1.996 1_556 S
O62 C69 1.257 . S
C63 O58 1.254 . S
C63 O59 1.269 . S
C64 O65 1.249 . S
C64 O66 1.270 . S
O65 Zn57 1.943 . S
O65 C64 1.249 . S
O66 Zn56 2.067 . S
O66 C64 1.270 . S
C67 O60 1.262 . S
C67 O68 1.232 1_556 S
O68 C67 1.232 1_554 S
C69 O61 1.260 . S
C69 O62 1.257 . S
Zn70 O73 2.031 1_554 S
Zn70 O75 2.049 . S
Zn70 O80 2.067 1_554 S
Zn71 O72 1.962 1_565 S
Zn71 O74 1.986 . S
Zn71 O76 1.996 1_565 S
Zn71 O79 1.943 1_554 S
O72 Zn71 1.962 1_545 S
O72 C77 1.254 . S
O73 Zn70 2.031 1_556 S
O73 C77 1.269 1_556 S
O74 Zn71 1.986 . S
O74 C81 1.262 . S
O75 Zn70 2.049 . S
O75 C83 1.260 . S
O76 Zn71 1.996 1_545 S
O76 C83 1.257 . S
C77 O72 1.254 . S
C77 O73 1.269 1_554 S
C78 O79 1.249 . S
C78 O80 1.270 1_565 S
O79 Zn71 1.943 1_556 S
O79 C78 1.249 . S
O80 Zn70 2.067 1_556 S
O80 C78 1.270 1_545 S
C81 O74 1.262 . S
C81 O82 1.232 . S
O82 C81 1.232 . S
C83 O75 1.260 . S
C83 O76 1.257 . S
Zn84 O87 2.031 . S
Zn84 O89 2.049 . S
Zn84 O94 2.067 . S
Zn85 O86 1.962 . S
Zn85 O88 1.986 . S
Zn85 O90 1.996 . S
Zn85 O93 1.943 . S
O86 Zn85 1.962 . S
O86 C91 1.254 . S
O87 Zn84 2.031 . S
O87 C91 1.269 . S
O88 Zn85 1.986 . S
O88 C95 1.262 . S
O89 Zn84 2.049 . S
O89 C97 1.260 . S
O90 Zn85 1.996 . S
O90 C97 1.257 . S
C91 O86 1.254 . S
C91 O87 1.269 . S
C92 O93 1.249 . S
C92 O94 1.270 . S
O93 Zn85 1.943 . S
O93 C92 1.249 . S
O94 Zn84 2.067 . S
O94 C92 1.270 . S
C95 O88 1.262 . S
C95 O96 1.232 . S
O96 C95 1.232 . S
C97 O89 1.260 . S
C97 O90 1.257 . S
Zn98 O101 2.031 . S
Zn98 O103 2.049 . S
Zn98 O108 2.067 . S
Zn99 O100 1.962 . S
Zn99 O102 1.986 1_565 S
Zn99 O104 1.996 . S
Zn99 O107 1.943 . S
O100 Zn99 1.962 . S
O100 C105 1.254 . S
O101 Zn98 2.031 . S
O101 C105 1.269 . S
O102 Zn99 1.986 1_545 S
O102 C109 1.262 . S
O103 Zn98 2.049 . S
O103 C111 1.260 . S
O104 Zn99 1.996 . S
O104 C111 1.257 . S
C105 O100 1.254 . S
C105 O101 1.269 . S
C106 O107 1.249 . S
C106 O108 1.270 . S
O107 Zn99 1.943 . S
O107 C106 1.249 . S
O108 Zn98 2.067 . S
O108 C106 1.270 . S
C109 O102 1.262 . S
C109 O110 1.232 . S
O110 C109 1.232 . S
C111 O103 1.260 . S
C111 O104 1.257 . S
Zn112 O115 2.031 . S
Zn112 O117 2.049 . S
Zn112 O122 2.067 . S
Zn113 O114 1.962 1_455 S
Zn113 O116 1.986 . S
Zn113 O118 1.996 . S
Zn113 O121 1.943 . S
O114 Zn113 1.962 1_655 S
O114 C119 1.254 . S
O115 Zn112 2.031 . S
O115 C119 1.269 1_455 S
O116 Zn113 1.986 . S
O116 C123 1.262 . S
O117 Zn112 2.049 . S
O117 C125 1.260 . S
O118 Zn113 1.996 . S
O118 C125 1.257 . S
C119 O114 1.254 . S
C119 O115 1.269 1_655 S
C120 O121 1.249 . S
C120 O122 1.270 . S
O121 Zn113 1.943 . S
O121 C120 1.249 . S
O122 Zn112 2.067 . S
O122 C120 1.270 . S
C123 O116 1.262 . S
C123 O124 1.232 . S
O124 C123 1.232 . S
C125 O117 1.260 . S
C125 O118 1.257 . S
Zn126 O129 2.031 . S
Zn126 O131 2.049 . S
Zn126 O136 2.067 . S
Zn127 O128 1.962 1_565 S
Zn127 O130 1.986 . S
Zn127 O132 1.996 . S
Zn127 O135 1.943 . S
O128 Zn127 1.962 1_545 S
O128 C133 1.254 . S
O129 Zn126 2.031 . S
O129 C133 1.269 1_565 S
O130 Zn127 1.986 . S
O130 C137 1.262 . S
O131 Zn126 2.049 . S
O131 C139 1.260 . S
O132 Zn127 1.996 . S
O132 C139 1.257 . S
C133 O128 1.254 . S
C133 O129 1.269 1_545 S
C134 O135 1.249 . S
C134 O136 1.270 . S
O135 Zn127 1.943 . S
O135 C134 1.249 . S
O136 Zn126 2.067 . S
O136 C134 1.270 . S
C137 O130 1.262 . S
C137 O138 1.232 . S
O138 C137 1.232 . S
C139 O131 1.260 . S
C139 O132 1.257 . S
Zn140 O143 2.047 . S
Zn140 O145 2.049 . S
Zn140 O150 2.067 . S
Zn141 O142 1.962 1_455 S
Zn141 O144 1.986 . S
Zn141 O146 1.996 . S
Zn141 O149 1.943 . S
O142 Zn141 1.962 1_655 S
O142 C147 1.254 . S
O143 Zn140 2.047 . S
O143 C147 1.255 1_455 S
O144 Zn141 1.986 . S
O144 C151 1.262 . S
O145 Zn140 2.049 . S
O145 C153 1.260 . S
O146 Zn141 1.996 . S
O146 C153 1.257 . S
C147 O142 1.254 . S
C147 O143 1.255 1_655 S
C148 O149 1.249 . S
C148 O150 1.270 . S
O149 Zn141 1.943 . S
O149 C148 1.249 . S
O150 Zn140 2.067 . S
O150 C148 1.270 . S
C151 O144 1.262 . S
C151 O152 1.232 . S
O152 C151 1.232 . S
C153 O145 1.260 . S
C153 O146 1.257 . S
Zn154 O157 2.031 . S
Zn154 O159 2.049 . S
Zn154 O164 2.067 . S
Zn155 O156 1.962 . S
Zn155 O158 1.986 . S
Zn155 O160 1.996 . S
Zn155 O163 1.943 . S
O156 Zn155 1.962 . S
O156 C161 1.254 . S
O157 Zn154 2.031 . S
O157 C161 1.269 . S
O158 Zn155 1.986 . S
O158 C165 1.262 . S
O159 Zn154 2.049 . S
O159 C167 1.260 . S
O160 Zn155 1.996 . S
O160 C167 1.257 . S
C161 O156 1.254 . S
C161 O157 1.269 . S
C162 O163 1.249 . S
C162 O164 1.270 . S
O163 Zn155 1.943 . S
O163 C162 1.249 . S
O164 Zn154 2.067 . S
O164 C162 1.270 . S
C165 O158 1.262 . S
C165 O166 1.232 . S
O166 C165 1.232 . S
C167 O159 1.260 . S
C167 O160 1.257 . S
Zn168 O171 2.031 . S
Zn168 O173 2.049 . S
Zn168 O178 2.067 . S
Zn169 O170 1.962 1_545 S
Zn169 O172 1.986 . S
Zn169 O174 1.996 . S
Zn169 O177 1.943 . S
O170 Zn169 1.962 1_565 S
O170 C175 1.254 . S
O171 Zn168 2.031 . S
O171 C175 1.269 1_545 S
O172 Zn169 1.986 . S
O172 C179 1.262 . S
O173 Zn168 2.049 . S
O173 C181 1.260 . S
O174 Zn169 1.996 . S
O174 C181 1.257 . S
C175 O170 1.254 . S
C175 O171 1.269 1_565 S
C176 O177 1.249 . S
C176 O178 1.270 . S
O177 Zn169 1.943 . S
O177 C176 1.249 . S
O178 Zn168 2.067 . S
O178 C176 1.270 . S
C179 O172 1.262 . S
C179 O180 1.232 . S
O180 C179 1.232 . S
C181 O173 1.260 . S
C181 O174 1.257 . S
Zn182 O185 2.028 1_655 S
Zn182 O187 2.049 . S
Zn182 O192 2.067 . S
Zn183 O184 1.962 1_655 S
Zn183 O186 1.986 . S
Zn183 O188 1.996 . S
Zn183 O191 1.943 . S
O184 Zn183 1.962 1_455 S
O184 C189 1.254 . S
O185 Zn182 2.028 1_455 S
O185 C189 1.272 . S
O186 Zn183 1.986 . S
O186 C193 1.262 . S
O187 Zn182 2.049 . S
O187 C195 1.260 . S
O188 Zn183 1.996 . S
O188 C195 1.257 . S
C189 O184 1.254 . S
C189 O185 1.272 . S
C190 O191 1.249 . S
C190 O192 1.270 . S
O191 Zn183 1.943 . S
O191 C190 1.249 . S
O192 Zn182 2.067 . S
O192 C190 1.270 . S
C193 O186 1.262 . S
C193 O194 1.232 . S
O194 C193 1.232 . S
C195 O187 1.260 . S
C195 O188 1.257 . S
Zn196 O199 2.031 . S
Zn196 O201 2.049 . S
Zn196 O206 2.067 . S
Zn197 O198 1.962 . S
Zn197 O200 1.986 . S
Zn197 O202 1.996 . S
Zn197 O205 1.943 . S
O198 Zn197 1.962 . S
O198 C203 1.254 . S
O199 Zn196 2.031 . S
O199 C203 1.269 . S
O200 Zn197 1.986 . S
O200 C207 1.262 . S
O201 Zn196 2.049 . S
O201 C209 1.260 . S
O202 Zn197 1.996 . S
O202 C209 1.257 . S
C203 O198 1.254 . S
C203 O199 1.269 . S
C204 O205 1.249 . S
C204 O206 1.270 . S
O205 Zn197 1.943 . S
O205 C204 1.249 . S
O206 Zn196 2.067 . S
O206 C204 1.270 . S
C207 O200 1.262 . S
C207 O208 1.232 . S
O208 C207 1.232 . S
C209 O201 1.260 . S
C209 O202 1.257 . S
Zn210 O213 2.031 . S
Zn210 O215 2.049 . S
Zn210 O220 2.067 . S
Zn211 O212 1.962 . S
Zn211 O214 1.986 . S
Zn211 O216 1.996 . S
Zn211 O219 1.943 . S
O212 Zn211 1.962 . S
O212 C217 1.254 . S
O213 Zn210 2.031 . S
O213 C217 1.269 . S
O214 Zn211 1.986 . S
O214 C221 1.262 . S
O215 Zn210 2.049 . S
O215 C223 1.260 . S
O216 Zn211 1.996 . S
O216 C223 1.257 . S
C217 O212 1.254 . S
C217 O213 1.269 . S
C218 O219 1.249 . S
C218 O220 1.270 . S
O219 Zn211 1.943 . S
O219 C218 1.249 . S
O220 Zn210 2.067 . S
O220 C218 1.270 . S
C221 O214 1.262 . S
C221 O222 1.232 . S
O222 C221 1.232 . S
C223 O215 1.260 . S
C223 O216 1.257 . S
Zn224 O227 2.031 . S
Zn224 O229 2.049 . S
Zn224 O234 2.067 . S
Zn225 O226 1.962 . S
Zn225 O228 1.986 1_545 S
Zn225 O230 1.996 . S
Zn225 O233 1.943 . S
O226 Zn225 1.962 . S
O226 C231 1.254 . S
O227 Zn224 2.031 . S
O227 C231 1.269 . S
O228 Zn225 1.986 1_565 S
O228 C235 1.262 . S
O229 Zn224 2.049 . S
O229 C237 1.260 . S
O230 Zn225 1.996 . S
O230 C237 1.257 . S
C231 O226 1.254 . S
C231 O227 1.269 . S
C232 O233 1.249 . S
C232 O234 1.270 . S
O233 Zn225 1.943 . S
O233 C232 1.249 . S
O234 Zn224 2.067 . S
O234 C232 1.270 . S
C235 O228 1.262 . S
C235 O236 1.232 . S
O236 C235 1.232 . S
C237 O229 1.260 . S
C237 O230 1.257 . S
Zn238 O241 2.031 . S
Zn238 O243 2.049 . S
Zn238 O248 2.067 . S
Zn239 O240 1.962 1_655 S
Zn239 O242 1.986 . S
Zn239 O244 1.996 . S
Zn239 O247 1.943 . S
O240 Zn239 1.962 1_455 S
O240 C245 1.254 . S
O241 Zn238 2.031 . S
O241 C245 1.269 1_655 S
O242 Zn239 1.986 . S
O242 C249 1.262 . S
O243 Zn238 2.049 . S
O243 C251 1.260 . S
O244 Zn239 1.996 . S
O244 C251 1.257 . S
C245 O240 1.254 . S
C245 O241 1.269 1_455 S
C246 O247 1.249 . S
C246 O248 1.270 . S
O247 Zn239 1.943 . S
O247 C246 1.249 . S
O248 Zn238 2.067 . S
O248 C246 1.270 . S
C249 O242 1.262 . S
C249 O250 1.232 . S
O250 C249 1.232 . S
C251 O243 1.260 . S
C251 O244 1.257 . S
H252 C258 0.930 . S
H253 C261 0.931 . S
H254 C263 0.931 . S
H255 C265 0.930 . S
H256 C267 0.930 . S
H257 C269 0.931 . S
C258 H252 0.930 . S
C258 C259 1.380 . S
C258 C260 1.394 . S
C259 C258 1.380 . S
C259 C263 1.382 . S
C260 C258 1.394 . S
C260 C261 1.400 . S
C261 H253 0.931 . S
C261 C260 1.400 . S
C261 C262 1.375 . S
C262 C261 1.375 . S
C262 C263 1.415 . S
C262 C264 1.501 . S
C263 H254 0.931 . S
C263 C259 1.382 . S
C263 C262 1.415 . S
C264 C262 1.501 . S
C264 C265 1.384 . S
C264 C269 1.408 . S
C265 H255 0.930 . S
C265 C264 1.384 . S
C265 C266 1.389 . S
C266 C265 1.389 . S
C266 C267 1.405 . S
C267 H256 0.930 . S
C267 C266 1.405 . S
C267 C268 1.364 . S
C268 C267 1.364 . S
C268 C269 1.400 . S
C269 H257 0.931 . S
C269 C264 1.408 . S
C269 C268 1.400 . S
H270 C276 0.930 . S
H271 C279 0.931 . S
H272 C281 0.931 . S
H273 C283 0.930 . S
H274 C285 0.930 . S
H275 C287 0.931 . S
C276 H270 0.930 . S
C276 C277 1.380 . S
C276 C278 1.394 . S
C277 C276 1.380 . S
C277 C281 1.382 . S
C278 C276 1.394 . S
C278 C279 1.400 . S
C279 H271 0.931 . S
C279 C278 1.400 . S
C279 C280 1.375 . S
C280 C279 1.375 . S
C280 C281 1.415 . S
C280 C282 1.501 . S
C281 H272 0.931 . S
C281 C277 1.382 . S
C281 C280 1.415 . S
C282 C280 1.501 . S
C282 C283 1.384 . S
C282 C287 1.408 . S
C283 H273 0.930 . S
C283 C282 1.384 . S
C283 C284 1.389 . S
C284 C283 1.389 . S
C284 C285 1.405 . S
C285 H274 0.930 . S
C285 C284 1.405 . S
C285 C286 1.364 . S
C286 C285 1.364 . S
C286 C287 1.400 . S
C287 H275 0.931 . S
C287 C282 1.408 . S
C287 C286 1.400 . S
H288 C294 0.930 . S
H289 C297 0.931 . S
H290 C299 0.931 . S
H291 C301 0.930 . S
H292 C303 0.930 . S
H293 C305 0.931 . S
C294 H288 0.930 . S
C294 C295 1.380 . S
C294 C296 1.394 . S
C295 C294 1.380 . S
C295 C299 1.382 . S
C296 C294 1.394 . S
C296 C297 1.400 . S
C297 H289 0.931 . S
C297 C296 1.400 . S
C297 C298 1.375 . S
C298 C297 1.375 . S
C298 C299 1.415 . S
C298 C300 1.501 . S
C299 H290 0.931 . S
C299 C295 1.382 . S
C299 C298 1.415 . S
C300 C298 1.501 . S
C300 C301 1.384 . S
C300 C305 1.408 . S
C301 H291 0.930 . S
C301 C300 1.384 . S
C301 C302 1.389 . S
C302 C301 1.389 . S
C302 C303 1.405 . S
C303 H292 0.930 . S
C303 C302 1.405 . S
C303 C304 1.364 . S
C304 C303 1.364 . S
C304 C305 1.400 . S
C305 H293 0.931 . S
C305 C300 1.408 . S
C305 C304 1.400 . S
H306 C312 0.930 . S
H307 C315 0.931 . S
H308 C317 0.931 . S
H309 C319 0.930 . S
H310 C321 0.930 . S
H311 C323 0.931 . S
C312 H306 0.930 . S
C312 C313 1.380 . S
C312 C314 1.394 . S
C313 C312 1.380 . S
C313 C317 1.382 . S
C314 C312 1.394 . S
C314 C315 1.400 . S
C315 H307 0.931 . S
C315 C314 1.400 . S
C315 C316 1.375 . S
C316 C315 1.375 . S
C316 C317 1.415 . S
C316 C318 1.501 . S
C317 H308 0.931 . S
C317 C313 1.382 . S
C317 C316 1.415 . S
C318 C316 1.501 . S
C318 C319 1.384 . S
C318 C323 1.408 . S
C319 H309 0.930 . S
C319 C318 1.384 . S
C319 C320 1.389 . S
C320 C319 1.389 . S
C320 C321 1.405 . S
C321 H310 0.930 . S
C321 C320 1.405 . S
C321 C322 1.364 . S
C322 C321 1.364 . S
C322 C323 1.400 . S
C323 H311 0.931 . S
C323 C318 1.408 . S
C323 C322 1.400 . S
H324 C330 0.930 . S
H325 C333 0.931 . S
H326 C335 0.931 . S
H327 C337 0.930 . S
H328 C339 0.930 . S
H329 C341 0.931 . S
C330 H324 0.930 . S
C330 C331 1.380 . S
C330 C332 1.394 . S
C331 C330 1.380 . S
C331 C335 1.382 . S
C332 C330 1.394 . S
C332 C333 1.400 . S
C333 H325 0.931 . S
C333 C332 1.400 . S
C333 C334 1.375 . S
C334 C333 1.375 . S
C334 C335 1.415 . S
C334 C336 1.501 . S
C335 H326 0.931 . S
C335 C331 1.382 . S
C335 C334 1.415 . S
C336 C334 1.501 . S
C336 C337 1.384 . S
C336 C341 1.408 . S
C337 H327 0.930 . S
C337 C336 1.384 . S
C337 C338 1.389 . S
C338 C337 1.389 . S
C338 C339 1.405 . S
C339 H328 0.930 . S
C339 C338 1.405 . S
C339 C340 1.364 . S
C340 C339 1.364 . S
C340 C341 1.400 . S
C341 H329 0.931 . S
C341 C336 1.408 . S
C341 C340 1.400 . S
H342 C348 0.930 . S
H343 C351 0.931 . S
H344 C353 0.931 . S
H345 C355 0.930 . S
H346 C357 0.930 . S
H347 C359 0.931 . S
C348 H342 0.930 . S
C348 C349 1.380 . S
C348 C350 1.394 . S
C349 C348 1.380 . S
C349 C353 1.382 . S
C350 C348 1.394 . S
C350 C351 1.400 . S
C351 H343 0.931 . S
C351 C350 1.400 . S
C351 C352 1.375 . S
C352 C351 1.375 . S
C352 C353 1.415 . S
C352 C354 1.501 . S
C353 H344 0.931 . S
C353 C349 1.382 . S
C353 C352 1.415 . S
C354 C352 1.501 . S
C354 C355 1.384 . S
C354 C359 1.408 . S
C355 H345 0.930 . S
C355 C354 1.384 . S
C355 C356 1.389 . S
C356 C355 1.389 . S
C356 C357 1.405 . S
C357 H346 0.930 . S
C357 C356 1.405 . S
C357 C358 1.364 . S
C358 C357 1.364 . S
C358 C359 1.400 . S
C359 H347 0.931 . S
C359 C354 1.408 . S
C359 C358 1.400 . S
H360 C366 0.930 . S
H361 C369 0.931 . S
H362 C371 0.931 . S
H363 C373 0.930 . S
H364 C375 0.930 . S
H365 C377 0.931 . S
C366 H360 0.930 . S
C366 C367 1.380 . S
C366 C368 1.394 . S
C367 C366 1.380 . S
C367 C371 1.382 . S
C368 C366 1.394 . S
C368 C369 1.400 . S
C369 H361 0.931 . S
C369 C368 1.400 . S
C369 C370 1.375 . S
C370 C369 1.375 . S
C370 C371 1.415 . S
C370 C372 1.501 . S
C371 H362 0.931 . S
C371 C367 1.382 . S
C371 C370 1.415 . S
C372 C370 1.501 . S
C372 C373 1.384 . S
C372 C377 1.408 . S
C373 H363 0.930 . S
C373 C372 1.384 . S
C373 C374 1.389 . S
C374 C373 1.389 . S
C374 C375 1.405 . S
C375 H364 0.930 . S
C375 C374 1.405 . S
C375 C376 1.364 . S
C376 C375 1.364 . S
C376 C377 1.400 . S
C377 H365 0.931 . S
C377 C372 1.408 . S
C377 C376 1.400 . S
H378 C384 0.930 . S
H379 C387 0.931 . S
H380 C389 0.931 . S
H381 C391 0.930 . S
H382 C393 0.930 . S
H383 C395 0.931 . S
C384 H378 0.930 . S
C384 C385 1.380 . S
C384 C386 1.394 . S
C385 C384 1.380 . S
C385 C389 1.382 . S
C386 C384 1.394 . S
C386 C387 1.400 . S
C387 H379 0.931 . S
C387 C386 1.400 . S
C387 C388 1.375 . S
C388 C387 1.375 . S
C388 C389 1.415 . S
C388 C390 1.501 . S
C389 H380 0.931 . S
C389 C385 1.382 . S
C389 C388 1.415 . S
C390 C388 1.501 . S
C390 C391 1.384 . S
C390 C395 1.408 . S
C391 H381 0.930 . S
C391 C390 1.384 . S
C391 C392 1.389 . S
C392 C391 1.389 . S
C392 C393 1.405 . S
C393 H382 0.930 . S
C393 C392 1.405 . S
C393 C394 1.364 . S
C394 C393 1.364 . S
C394 C395 1.400 . S
C395 H383 0.931 . S
C395 C390 1.408 . S
C395 C394 1.400 . S
H396 C402 0.930 . S
H397 C405 0.931 . S
H398 C407 0.931 . S
H399 C409 0.930 . S
H400 C411 0.930 . S
H401 C413 0.931 . S
C402 H396 0.930 . S
C402 C403 1.380 . S
C402 C404 1.394 . S
C403 C402 1.380 . S
C403 C407 1.382 . S
C404 C402 1.394 . S
C404 C405 1.400 . S
C405 H397 0.931 . S
C405 C404 1.400 . S
C405 C406 1.375 . S
C406 C405 1.375 . S
C406 C407 1.415 . S
C406 C408 1.501 . S
C407 H398 0.931 . S
C407 C403 1.382 . S
C407 C406 1.415 . S
C408 C406 1.501 . S
C408 C409 1.384 . S
C408 C413 1.408 . S
C409 H399 0.930 . S
C409 C408 1.384 . S
C409 C410 1.389 . S
C410 C409 1.389 . S
C410 C411 1.405 . S
C411 H400 0.930 . S
C411 C410 1.405 . S
C411 C412 1.364 . S
C412 C411 1.364 . S
C412 C413 1.400 . S
C413 H401 0.931 . S
C413 C408 1.408 . S
C413 C412 1.400 . S
H414 C420 0.930 . S
H415 C423 0.931 . S
H416 C425 0.931 . S
H417 C427 0.930 . S
H418 C429 0.930 . S
H419 C431 0.941 . S
C420 H414 0.930 . S
C420 C421 1.380 . S
C420 C422 1.394 1_655 S
C421 C420 1.380 . S
C421 C425 1.382 . S
C422 C420 1.394 1_455 S
C422 C423 1.400 . S
C423 H415 0.931 . S
C423 C422 1.400 . S
C423 C424 1.375 . S
C424 C423 1.375 . S
C424 C425 1.415 1_455 S
C424 C426 1.501 . S
C425 H416 0.931 . S
C425 C421 1.382 . S
C425 C424 1.415 1_655 S
C426 C424 1.501 . S
C426 C427 1.384 . S
C426 C431 1.421 . S
C427 H417 0.930 . S
C427 C426 1.384 . S
C427 C428 1.389 . S
C428 C427 1.389 . S
C428 C429 1.405 . S
C429 H418 0.930 . S
C429 C428 1.405 . S
C429 C430 1.360 . S
C430 C429 1.360 . S
C430 C431 1.388 . S
C431 H419 0.941 . S
C431 C426 1.421 . S
C431 C430 1.388 . S
H432 C438 0.930 . S
H433 C441 0.931 . S
H434 C443 0.931 . S
H435 C445 0.930 . S
H436 C447 0.930 . S
H437 C449 0.931 . S
C438 H432 0.930 . S
C438 C439 1.380 . S
C438 C440 1.394 . S
C439 C438 1.380 . S
C439 C443 1.382 . S
C440 C438 1.394 . S
C440 C441 1.400 . S
C441 H433 0.931 . S
C441 C440 1.400 . S
C441 C442 1.375 . S
C442 C441 1.375 . S
C442 C443 1.415 . S
C442 C444 1.501 . S
C443 H434 0.931 . S
C443 C439 1.382 . S
C443 C442 1.415 . S
C444 C442 1.501 . S
C444 C445 1.384 . S
C444 C449 1.408 . S
C445 H435 0.930 . S
C445 C444 1.384 . S
C445 C446 1.389 . S
C446 C445 1.389 . S
C446 C447 1.405 . S
C447 H436 0.930 . S
C447 C446 1.405 . S
C447 C448 1.364 . S
C448 C447 1.364 . S
C448 C449 1.400 . S
C449 H437 0.931 . S
C449 C444 1.408 . S
C449 C448 1.400 . S
H450 C456 0.930 . S
H451 C459 0.931 . S
H452 C461 0.931 . S
H453 C463 0.930 . S
H454 C465 0.930 . S
H455 C467 0.937 . S
C456 H450 0.930 . S
C456 C457 1.380 . S
C456 C458 1.394 1_545 S
C457 C456 1.380 . S
C457 C461 1.382 . S
C458 C456 1.394 1_565 S
C458 C459 1.400 . S
C459 H451 0.931 . S
C459 C458 1.400 . S
C459 C460 1.375 . S
C460 C459 1.375 . S
C460 C461 1.415 1_565 S
C460 C462 1.501 . S
C461 H452 0.931 . S
C461 C457 1.382 . S
C461 C460 1.415 1_545 S
C462 C460 1.501 . S
C462 C463 1.384 . S
C462 C467 1.408 . S
C463 H453 0.930 . S
C463 C462 1.384 . S
C463 C464 1.389 . S
C464 C463 1.389 . S
C464 C465 1.405 . S
C465 H454 0.930 . S
C465 C464 1.405 . S
C465 C466 1.364 . S
C466 C465 1.364 . S
C466 C467 1.400 . S
C467 H455 0.937 . S
C467 C462 1.408 . S
C467 C466 1.400 . S
H468 C474 0.964 . S
H469 C477 0.931 . S
H470 C479 0.923 . S
H471 C481 0.930 . S
H472 C483 0.945 . S
H473 C485 0.931 . S
C474 H468 0.964 . S
C474 C475 1.378 1_545 S
C474 C476 1.393 1_545 S
C475 C474 1.378 1_565 S
C475 C479 1.402 . S
C476 C474 1.393 1_565 S
C476 C477 1.400 . S
C477 H469 0.931 . S
C477 C476 1.400 . S
C477 C478 1.375 . S
C478 C477 1.375 . S
C478 C479 1.407 . S
C478 C480 1.501 . S
C479 H470 0.923 . S
C479 C475 1.402 . S
C479 C478 1.407 . S
C480 C478 1.501 . S
C480 C481 1.384 . S
C480 C485 1.408 1_565 S
C481 H471 0.930 . S
C481 C480 1.384 . S
C481 C482 1.389 . S
C482 C481 1.389 . S
C482 C483 1.418 . S
C483 H472 0.945 . S
C483 C482 1.418 . S
C483 C484 1.369 1_565 S
C484 C483 1.369 1_545 S
C484 C485 1.400 . S
C485 H473 0.931 . S
C485 C480 1.408 1_545 S
C485 C484 1.400 . S
H486 C492 0.971 . S
H487 C495 0.931 . S
H488 C497 0.934 . S
H489 C499 0.930 . S
H490 C501 0.930 . S
H491 C503 0.931 . S
C492 H486 0.971 . S
C492 C493 1.372 . S
C492 C494 1.369 1_655 S
C493 C492 1.372 . S
C493 C497 1.354 1_655 S
C494 C492 1.369 1_455 S
C494 C495 1.412 . S
C495 H487 0.931 . S
C495 C494 1.412 . S
C495 C496 1.375 . S
C496 C495 1.375 . S
C496 C497 1.420 . S
C496 C498 1.501 . S
C497 H488 0.934 . S
C497 C493 1.354 1_455 S
C497 C496 1.420 . S
C498 C496 1.501 . S
C498 C499 1.384 . S
C498 C503 1.408 1_455 S
C499 H489 0.930 . S
C499 C498 1.384 . S
C499 C500 1.389 . S
C500 C499 1.389 . S
C500 C501 1.405 . S
C501 H490 0.930 . S
C501 C500 1.405 . S
C501 C502 1.364 1_455 S
C502 C501 1.364 1_655 S
C502 C503 1.400 . S
C503 H491 0.931 . S
C503 C498 1.408 1_655 S
C503 C502 1.400 . S
H504 C510 0.930 . S
H505 C513 0.931 . S
H506 C515 0.931 . S
H507 C517 0.930 . S
H508 C519 0.930 . S
H509 C521 0.931 . S
C510 H504 0.930 . S
C510 C511 1.380 . S
C510 C512 1.394 . S
C511 C510 1.380 . S
C511 C515 1.382 . S
C512 C510 1.394 . S
C512 C513 1.400 . S
C513 H505 0.931 . S
C513 C512 1.400 . S
C513 C514 1.375 . S
C514 C513 1.375 . S
C514 C515 1.415 . S
C514 C516 1.501 . S
C515 H506 0.931 . S
C515 C511 1.382 . S
C515 C514 1.415 . S
C516 C514 1.501 . S
C516 C517 1.384 . S
C516 C521 1.408 . S
C517 H507 0.930 . S
C517 C516 1.384 . S
C517 C518 1.389 . S
C518 C517 1.389 . S
C518 C519 1.405 . S
C519 H508 0.930 . S
C519 C518 1.405 . S
C519 C520 1.364 . S
C520 C519 1.364 . S
C520 C521 1.400 . S
C521 H509 0.931 . S
C521 C516 1.408 . S
C521 C520 1.400 . S
H522 C528 0.930 . S
H523 C531 0.931 . S
H524 C533 0.931 . S
H525 C535 0.930 . S
H526 C537 0.930 . S
H527 C539 0.931 . S
C528 H522 0.930 . S
C528 C529 1.380 . S
C528 C530 1.394 . S
C529 C528 1.380 . S
C529 C533 1.382 . S
C530 C528 1.394 . S
C530 C531 1.400 . S
C531 H523 0.931 . S
C531 C530 1.400 . S
C531 C532 1.375 . S
C532 C531 1.375 . S
C532 C533 1.415 . S
C532 C534 1.501 . S
C533 H524 0.931 . S
C533 C529 1.382 . S
C533 C532 1.415 . S
C534 C532 1.501 . S
C534 C535 1.384 . S
C534 C539 1.408 . S
C535 H525 0.930 . S
C535 C534 1.384 . S
C535 C536 1.389 . S
C536 C535 1.389 . S
C536 C537 1.405 . S
C537 H526 0.930 . S
C537 C536 1.405 . S
C537 C538 1.364 . S
C538 C537 1.364 . S
C538 C539 1.400 . S
C539 H527 0.931 . S
C539 C534 1.408 . S
C539 C538 1.400 . S
H540 C546 0.930 . S
H541 C549 0.931 . S
H542 C551 0.931 . S
H543 C553 0.930 . S
H544 C555 0.930 . S
H545 C557 0.931 . S
C546 H540 0.930 . S
C546 C547 1.380 . S
C546 C548 1.394 . S
C547 C546 1.380 . S
C547 C551 1.382 . S
C548 C546 1.394 . S
C548 C549 1.400 . S
C549 H541 0.931 . S
C549 C548 1.400 . S
C549 C550 1.375 . S
C550 C549 1.375 . S
C550 C551 1.415 . S
C550 C552 1.501 . S
C551 H542 0.931 . S
C551 C547 1.382 . S
C551 C550 1.415 . S
C552 C550 1.501 . S
C552 C553 1.384 . S
C552 C557 1.408 . S
C553 H543 0.930 . S
C553 C552 1.384 . S
C553 C554 1.389 . S
C554 C553 1.389 . S
C554 C555 1.405 . S
C555 H544 0.930 . S
C555 C554 1.405 . S
C555 C556 1.364 . S
C556 C555 1.364 . S
C556 C557 1.400 . S
C557 H545 0.931 . S
C557 C552 1.408 . S
C557 C556 1.400 . S
H558 C564 0.930 . S
H559 C567 0.931 . S
H560 C569 0.931 . S
H561 C571 0.930 . S
H562 C573 0.930 . S
H563 C575 0.931 . S
C564 H558 0.930 . S
C564 C565 1.380 . S
C564 C566 1.394 . S
C565 C564 1.380 . S
C565 C569 1.382 . S
C566 C564 1.394 . S
C566 C567 1.400 . S
C567 H559 0.931 . S
C567 C566 1.400 . S
C567 C568 1.375 . S
C568 C567 1.375 . S
C568 C569 1.415 . S
C568 C570 1.501 . S
C569 H560 0.931 . S
C569 C565 1.382 . S
C569 C568 1.415 . S
C570 C568 1.501 . S
C570 C571 1.384 . S
C570 C575 1.408 . S
C571 H561 0.930 . S
C571 C570 1.384 . S
C571 C572 1.389 . S
C572 C571 1.389 . S
C572 C573 1.405 . S
C573 H562 0.930 . S
C573 C572 1.405 . S
C573 C574 1.364 . S
C574 C573 1.364 . S
C574 C575 1.400 . S
C575 H563 0.931 . S
C575 C570 1.408 . S
C575 C574 1.400 . S
H576 C582 0.930 . S
H577 C586 0.930 . S
H578 C591 0.929 . S
H579 C589 0.929 . S
H580 C584 0.929 . S
H581 C590 0.929 . S
C582 H576 0.930 . S
C582 C583 1.367 1_455 S
C582 C590 1.378 . S
C583 C582 1.367 1_655 S
C583 C591 1.433 . S
C584 H580 0.929 . S
C584 C586 1.378 . S
C584 C588 1.350 . S
C585 C588 1.463 . S
C585 C590 1.350 1_655 S
C585 N593 1.427 . S
C586 H577 0.930 . S
C586 C584 1.378 . S
C586 C587 1.367 . S
C587 C586 1.367 . S
C587 C589 1.433 1_655 S
C588 C584 1.350 . S
C588 C585 1.463 . S
C588 N592 1.427 1_655 S
C589 H579 0.929 . S
C589 C587 1.433 1_455 S
C589 N592 1.384 . S
C590 H581 0.929 . S
C590 C582 1.378 . S
C590 C585 1.350 1_455 S
C591 H578 0.929 . S
C591 C583 1.433 . S
C591 N593 1.384 . S
N592 C588 1.427 1_455 S
N592 C589 1.384 . S
N593 C585 1.427 . S
N593 C591 1.384 . S
H594 C600 0.930 . S
H595 C604 0.930 . S
H596 C609 0.929 . S
H597 C607 0.929 . S
H598 C602 0.929 . S
H599 C608 0.929 . S
C600 H594 0.930 . S
C600 C601 1.367 . S
C600 C608 1.378 . S
C601 C600 1.367 . S
C601 C609 1.433 . S
C602 H598 0.929 . S
C602 C604 1.378 . S
C602 C606 1.350 . S
C603 C606 1.463 . S
C603 C608 1.350 . S
C603 N611 1.427 . S
C604 H595 0.930 . S
C604 C602 1.378 . S
C604 C605 1.367 . S
C605 C604 1.367 . S
C605 C607 1.433 . S
C606 C602 1.350 . S
C606 C603 1.463 . S
C606 N610 1.427 . S
C607 H597 0.929 . S
C607 C605 1.433 . S
C607 N610 1.384 . S
C608 H599 0.929 . S
C608 C600 1.378 . S
C608 C603 1.350 . S
C609 H596 0.929 . S
C609 C601 1.433 . S
C609 N611 1.384 . S
N610 C606 1.427 . S
N610 C607 1.384 . S
N611 C603 1.427 . S
N611 C609 1.384 . S
H612 C618 0.930 . S
H613 C622 0.930 . S
H614 C627 0.929 . S
H615 C625 0.929 . S
H616 C620 0.929 . S
H617 C626 0.929 . S
C618 H612 0.930 . S
C618 C619 1.367 . S
C618 C626 1.378 . S
C619 C618 1.367 . S
C619 C627 1.433 1_545 S
C620 H616 0.929 . S
C620 C622 1.378 . S
C620 C624 1.350 1_565 S
C621 C624 1.463 . S
C621 C626 1.350 . S
C621 N629 1.427 1_545 S
C622 H613 0.930 . S
C622 C620 1.378 . S
C622 C623 1.367 1_565 S
C623 C622 1.367 1_545 S
C623 C625 1.433 . S
C624 C620 1.350 1_545 S
C624 C621 1.463 . S
C624 N628 1.427 . S
C625 H615 0.929 . S
C625 C623 1.433 . S
C625 N628 1.384 . S
C626 H617 0.929 . S
C626 C618 1.378 . S
C626 C621 1.350 . S
C627 H614 0.929 . S
C627 C619 1.433 1_565 S
C627 N629 1.384 . S
N628 C624 1.427 . S
N628 C625 1.384 . S
N629 C621 1.427 1_565 S
N629 C627 1.384 . S
H630 C636 0.930 . S
H631 C640 0.930 . S
H632 C645 0.929 . S
H633 C643 0.929 . S
H634 C638 0.929 . S
H635 C644 0.929 . S
C636 H630 0.930 . S
C636 C637 1.367 . S
C636 C644 1.378 . S
C637 C636 1.367 . S
C637 C645 1.433 1_565 S
C638 H634 0.929 . S
C638 C640 1.378 . S
C638 C642 1.350 1_545 S
C639 C642 1.463 . S
C639 C644 1.350 . S
C639 N647 1.427 1_565 S
C640 H631 0.930 . S
C640 C638 1.378 . S
C640 C641 1.367 1_545 S
C641 C640 1.367 1_565 S
C641 C643 1.433 . S
C642 C638 1.350 1_565 S
C642 C639 1.463 . S
C642 N646 1.427 . S
C643 H633 0.929 . S
C643 C641 1.433 . S
C643 N646 1.384 . S
C644 H635 0.929 . S
C644 C636 1.378 . S
C644 C639 1.350 . S
C645 H632 0.929 . S
C645 C637 1.433 1_545 S
C645 N647 1.384 . S
N646 C642 1.427 . S
N646 C643 1.384 . S
N647 C639 1.427 1_545 S
N647 C645 1.384 . S
H648 C654 0.930 . S
H649 C658 0.930 1_655 S
H650 C663 0.933 1_655 S
H651 C661 0.929 . S
H652 C656 0.954 1_655 S
H653 C662 0.929 . S
C654 H648 0.930 . S
C654 C655 1.367 . S
C654 C662 1.378 . S
C655 C654 1.367 . S
C655 C663 1.433 . S
C656 H652 0.954 1_455 S
C656 C658 1.378 . S
C656 C660 1.350 . S
C657 C660 1.463 . S
C657 C662 1.350 . S
C657 N665 1.427 . S
C658 H649 0.930 1_455 S
C658 C656 1.378 . S
C658 C659 1.367 . S
C659 C658 1.367 . S
C659 C661 1.433 . S
C660 C656 1.350 . S
C660 C657 1.463 . S
C660 N664 1.427 . S
C661 H651 0.929 . S
C661 C659 1.433 . S
C661 N664 1.384 . S
C662 H653 0.929 . S
C662 C654 1.378 . S
C662 C657 1.350 . S
C663 H650 0.933 1_455 S
C663 C655 1.433 . S
C663 N665 1.384 . S
N664 C660 1.427 . S
N664 C661 1.384 . S
N665 C657 1.427 . S
N665 C663 1.384 . S
H666 C672 0.930 . S
H667 C676 0.930 . S
H668 C681 0.929 . S
H669 C679 0.929 . S
H670 C674 0.929 . S
H671 C680 0.929 . S
C672 H666 0.930 . S
C672 C673 1.367 . S
C672 C680 1.378 . S
C673 C672 1.367 . S
C673 C681 1.433 . S
C674 H670 0.929 . S
C674 C676 1.378 . S
C674 C678 1.350 . S
C675 C678 1.463 . S
C675 C680 1.350 . S
C675 N683 1.427 . S
C676 H667 0.930 . S
C676 C674 1.378 . S
C676 C677 1.367 . S
C677 C676 1.367 . S
C677 C679 1.433 . S
C678 C674 1.350 . S
C678 C675 1.463 . S
C678 N682 1.427 . S
C679 H669 0.929 . S
C679 C677 1.433 . S
C679 N682 1.384 . S
C680 H671 0.929 . S
C680 C672 1.378 . S
C680 C675 1.350 . S
C681 H668 0.929 . S
C681 C673 1.433 . S
C681 N683 1.384 . S
N682 C678 1.427 . S
N682 C679 1.384 . S
N683 C675 1.427 . S
N683 C681 1.384 . S
H684 C690 0.930 . S
H685 C694 0.930 . S
H686 C699 0.929 . S
H687 C697 0.929 . S
H688 C692 0.929 . S
H689 C698 0.929 . S
C690 H684 0.930 . S
C690 C691 1.367 . S
C690 C698 1.378 . S
C691 C690 1.367 . S
C691 C699 1.433 1_455 S
C692 H688 0.929 . S
C692 C694 1.378 . S
C692 C696 1.350 1_655 S
C693 C696 1.463 . S
C693 C698 1.350 . S
C693 N701 1.427 1_455 S
C694 H685 0.930 . S
C694 C692 1.378 . S
C694 C695 1.370 . S
C695 C694 1.370 . S
C695 C697 1.432 1_655 S
C696 C692 1.350 1_455 S
C696 C693 1.463 . S
C696 N700 1.427 . S
C697 H687 0.929 . S
C697 C695 1.432 1_455 S
C697 N700 1.384 . S
C698 H689 0.929 . S
C698 C690 1.378 . S
C698 C693 1.350 . S
C699 H686 0.929 . S
C699 C691 1.433 1_655 S
C699 N701 1.384 . S
N700 C696 1.427 . S
N700 C697 1.384 . S
N701 C693 1.427 1_655 S
N701 C699 1.384 . S
H702 C708 0.930 . S
H703 C712 0.930 . S
H704 C717 0.929 . S
H705 C715 0.929 . S
H706 C710 0.929 . S
H707 C716 0.929 . S
C708 H702 0.930 . S
C708 C709 1.367 . S
C708 C716 1.378 . S
C709 C708 1.367 . S
C709 C717 1.433 . S
C710 H706 0.929 . S
C710 C712 1.378 . S
C710 C714 1.350 . S
C711 C714 1.463 . S
C711 C716 1.350 . S
C711 N719 1.427 . S
C712 H703 0.930 . S
C712 C710 1.378 . S
C712 C713 1.367 . S
C713 C712 1.367 . S
C713 C715 1.433 . S
C714 C710 1.350 . S
C714 C711 1.463 . S
C714 N718 1.427 . S
C715 H705 0.929 . S
C715 C713 1.433 . S
C715 N718 1.384 . S
C716 H707 0.929 . S
C716 C708 1.378 . S
C716 C711 1.350 . S
C717 H704 0.929 . S
C717 C709 1.433 . S
C717 N719 1.384 . S
N718 C714 1.427 . S
N718 C715 1.384 . S
N719 C711 1.427 . S
N719 C717 1.384 . S
H720 C726 0.930 . S
H721 C730 0.930 . S
H722 C735 0.929 . S
H723 C733 0.929 . S
H724 C728 0.929 . S
H725 C734 0.929 . S
C726 H720 0.930 . S
C726 C727 1.367 1_545 S
C726 C734 1.378 . S
C727 C726 1.367 1_565 S
C727 C735 1.433 . S
C728 H724 0.929 . S
C728 C730 1.378 . S
C728 C732 1.350 . S
C729 C732 1.463 . S
C729 C734 1.350 1_565 S
C729 N737 1.427 . S
C730 H721 0.930 . S
C730 C728 1.378 . S
C730 C731 1.423 . S
C731 C730 1.423 . S
C731 C733 1.401 1_565 S
C732 C728 1.350 . S
C732 C729 1.463 . S
C732 N736 1.427 1_565 S
C733 H723 0.929 . S
C733 C731 1.401 1_545 S
C733 N736 1.384 . S
C734 H725 0.929 . S
C734 C726 1.378 . S
C734 C729 1.350 1_545 S
C735 H722 0.929 . S
C735 C727 1.433 . S
C735 N737 1.384 . S
N736 C732 1.427 1_545 S
N736 C733 1.384 . S
N737 C729 1.427 . S
N737 C735 1.384 . S
H738 C744 0.930 . S
H739 C748 0.930 . S
H740 C753 0.929 . S
H741 C751 0.929 . S
H742 C746 0.929 . S
H743 C752 0.929 . S
C744 H738 0.930 . S
C744 C745 1.367 1_565 S
C744 C752 1.378 . S
C745 C744 1.367 1_545 S
C745 C753 1.433 . S
C746 H742 0.929 . S
C746 C748 1.378 . S
C746 C750 1.350 . S
C747 C750 1.463 . S
C747 C752 1.350 1_545 S
C747 N755 1.427 . S
C748 H739 0.930 . S
C748 C746 1.378 . S
C748 C749 1.379 . S
C749 C748 1.379 . S
C749 C751 1.414 1_545 S
C750 C746 1.350 . S
C750 C747 1.463 . S
C750 N754 1.427 1_545 S
C751 H741 0.929 . S
C751 C749 1.414 1_565 S
C751 N754 1.384 . S
C752 H743 0.929 . S
C752 C744 1.378 . S
C752 C747 1.350 1_565 S
C753 H740 0.929 . S
C753 C745 1.433 . S
C753 N755 1.384 . S
N754 C750 1.427 1_565 S
N754 C751 1.384 . S
N755 C747 1.427 . S
N755 C753 1.384 . S
H756 C762 0.930 . S
H757 C766 0.933 . S
H758 C771 0.929 . S
H759 C769 0.922 . S
H760 C764 0.929 . S
H761 C770 0.929 . S
C762 H756 0.930 . S
C762 C763 1.367 . S
C762 C770 1.378 . S
C763 C762 1.367 . S
C763 C771 1.433 . S
C764 H760 0.929 . S
C764 C766 1.393 . S
C764 C768 1.350 . S
C765 C768 1.463 . S
C765 C770 1.350 . S
C765 N773 1.427 . S
C766 H757 0.933 . S
C766 C764 1.393 . S
C766 C767 1.357 . S
C767 C766 1.357 . S
C767 C769 1.439 . S
C768 C764 1.350 . S
C768 C765 1.463 . S
C768 N772 1.427 . S
C769 H759 0.922 . S
C769 C767 1.439 . S
C769 N772 1.413 . S
C770 H761 0.929 . S
C770 C762 1.378 . S
C770 C765 1.350 . S
C771 H758 0.929 . S
C771 C763 1.433 . S
C771 N773 1.384 . S
N772 C768 1.427 . S
N772 C769 1.413 . S
N773 C765 1.427 . S
N773 C771 1.384 . S
H774 C780 0.930 . S
H775 C784 0.930 . S
H776 C789 0.929 . S
H777 C787 0.929 . S
H778 C782 0.929 . S
H779 C788 0.929 . S
C780 H774 0.930 . S
C780 C781 1.367 . S
C780 C788 1.378 . S
C781 C780 1.367 . S
C781 C789 1.433 . S
C782 H778 0.929 . S
C782 C784 1.378 . S
C782 C786 1.350 . S
C783 C786 1.463 . S
C783 C788 1.350 . S
C783 N791 1.427 . S
C784 H775 0.930 . S
C784 C782 1.378 . S
C784 C785 1.367 . S
C785 C784 1.367 . S
C785 C787 1.433 . S
C786 C782 1.350 . S
C786 C783 1.463 . S
C786 N790 1.427 . S
C787 H777 0.929 . S
C787 C785 1.433 . S
C787 N790 1.384 . S
C788 H779 0.929 . S
C788 C780 1.378 . S
C788 C783 1.350 . S
C789 H776 0.929 . S
C789 C781 1.433 . S
C789 N791 1.384 . S
N790 C786 1.427 . S
N790 C787 1.384 . S
N791 C783 1.427 . S
N791 C789 1.384 . S
H792 C798 0.930 . S
H793 C802 0.930 . S
H794 C807 0.929 . S
H795 C805 0.929 . S
H796 C800 0.929 . S
H797 C806 0.929 . S
C798 H792 0.930 . S
C798 C799 1.367 . S
C798 C806 1.378 . S
C799 C798 1.367 . S
C799 C807 1.433 . S
C800 H796 0.929 . S
C800 C802 1.378 . S
C800 C804 1.350 . S
C801 C804 1.463 . S
C801 C806 1.350 . S
C801 N809 1.427 . S
C802 H793 0.930 . S
C802 C800 1.378 . S
C802 C803 1.367 . S
C803 C802 1.367 . S
C803 C805 1.433 . S
C804 C800 1.350 . S
C804 C801 1.463 . S
C804 N808 1.427 . S
C805 H795 0.929 . S
C805 C803 1.433 . S
C805 N808 1.384 . S
C806 H797 0.929 . S
C806 C798 1.378 . S
C806 C801 1.350 . S
C807 H794 0.929 . S
C807 C799 1.433 . S
C807 N809 1.384 . S
N808 C804 1.427 . S
N808 C805 1.384 . S
N809 C801 1.427 . S
N809 C807 1.384 . S
H810 C816 0.930 . S
H811 C820 0.930 . S
H812 C825 0.929 . S
H813 C823 0.929 . S
H814 C818 0.929 . S
H815 C824 0.929 . S
C816 H810 0.930 . S
C816 C817 1.367 . S
C816 C824 1.378 . S
C817 C816 1.367 . S
C817 C825 1.433 . S
C818 H814 0.929 . S
C818 C820 1.378 . S
C818 C822 1.350 . S
C819 C822 1.463 . S
C819 C824 1.350 . S
C819 N827 1.427 . S
C820 H811 0.930 . S
C820 C818 1.378 . S
C820 C821 1.367 . S
C821 C820 1.367 . S
C821 C823 1.433 . S
C822 C818 1.350 . S
C822 C819 1.463 . S
C822 N826 1.427 . S
C823 H813 0.929 . S
C823 C821 1.433 . S
C823 N826 1.384 . S
C824 H815 0.929 . S
C824 C816 1.378 . S
C824 C819 1.350 . S
C825 H812 0.929 . S
C825 C817 1.433 . S
C825 N827 1.384 . S
N826 C822 1.427 . S
N826 C823 1.384 . S
N827 C819 1.427 . S
N827 C825 1.384 . S
H828 C834 0.930 . S
H829 C838 0.930 . S
H830 C843 0.929 . S
H831 C841 0.929 . S
H832 C836 0.929 . S
H833 C842 0.929 . S
C834 H828 0.930 . S
C834 C835 1.367 . S
C834 C842 1.378 . S
C835 C834 1.367 . S
C835 C843 1.433 . S
C836 H832 0.929 . S
C836 C838 1.378 . S
C836 C840 1.350 . S
C837 C840 1.463 . S
C837 C842 1.350 . S
C837 N845 1.427 . S
C838 H829 0.930 . S
C838 C836 1.378 . S
C838 C839 1.367 . S
C839 C838 1.367 . S
C839 C841 1.433 . S
C840 C836 1.350 . S
C840 C837 1.463 . S
C840 N844 1.427 . S
C841 H831 0.929 . S
C841 C839 1.433 . S
C841 N844 1.384 . S
C842 H833 0.929 . S
C842 C834 1.378 . S
C842 C837 1.350 . S
C843 H830 0.929 . S
C843 C835 1.433 . S
C843 N845 1.384 . S
N844 C840 1.427 . S
N844 C841 1.384 . S
N845 C837 1.427 . S
N845 C843 1.384 . S
H846 C852 0.930 . S
H847 C856 0.930 . S
H848 C861 0.929 . S
H849 C859 0.929 . S
H850 C854 0.929 . S
H851 C860 0.929 . S
C852 H846 0.930 . S
C852 C853 1.367 . S
C852 C860 1.378 . S
C853 C852 1.367 . S
C853 C861 1.433 . S
C854 H850 0.929 . S
C854 C856 1.378 . S
C854 C858 1.350 . S
C855 C858 1.463 . S
C855 C860 1.350 . S
C855 N863 1.427 . S
C856 H847 0.930 . S
C856 C854 1.378 . S
C856 C857 1.367 . S
C857 C856 1.367 . S
C857 C859 1.433 . S
C858 C854 1.350 . S
C858 C855 1.463 . S
C858 N862 1.427 . S
C859 H849 0.929 . S
C859 C857 1.433 . S
C859 N862 1.384 . S
C860 H851 0.929 . S
C860 C852 1.378 . S
C860 C855 1.350 . S
C861 H848 0.929 . S
C861 C853 1.433 . S
C861 N863 1.384 . S
N862 C858 1.427 . S
N862 C859 1.384 . S
N863 C855 1.427 . S
N863 C861 1.384 . S
H864 C870 0.930 . S
H865 C874 0.930 . S
H866 C879 0.929 . S
H867 C877 0.929 . S
H868 C872 0.929 . S
H869 C878 0.929 . S
C870 H864 0.930 . S
C870 C871 1.367 . S
C870 C878 1.378 . S
C871 C870 1.367 . S
C871 C879 1.433 . S
C872 H868 0.929 . S
C872 C874 1.378 . S
C872 C876 1.350 . S
C873 C876 1.463 . S
C873 C878 1.350 . S
C873 N881 1.427 . S
C874 H865 0.930 . S
C874 C872 1.378 . S
C874 C875 1.367 . S
C875 C874 1.367 . S
C875 C877 1.433 . S
C876 C872 1.350 . S
C876 C873 1.463 . S
C876 N880 1.427 . S
C877 H867 0.929 . S
C877 C875 1.433 . S
C877 N880 1.384 . S
C878 H869 0.929 . S
C878 C870 1.378 . S
C878 C873 1.350 . S
C879 H866 0.929 . S
C879 C871 1.433 . S
C879 N881 1.384 . S
N880 C876 1.427 . S
N880 C877 1.384 . S
N881 C873 1.427 . S
N881 C879 1.384 . S
H882 C888 0.930 . S
H883 C892 0.930 . S
H884 C897 0.929 . S
H885 C895 0.929 . S
H886 C890 0.929 . S
H887 C896 0.929 . S
C888 H882 0.930 . S
C888 C889 1.367 . S
C888 C896 1.378 . S
C889 C888 1.367 . S
C889 C897 1.433 . S
C890 H886 0.929 . S
C890 C892 1.378 . S
C890 C894 1.350 . S
C891 C894 1.463 . S
C891 C896 1.350 . S
C891 N899 1.427 . S
C892 H883 0.930 . S
C892 C890 1.378 . S
C892 C893 1.367 . S
C893 C892 1.367 . S
C893 C895 1.433 . S
C894 C890 1.350 . S
C894 C891 1.463 . S
C894 N898 1.427 . S
C895 H885 0.929 . S
C895 C893 1.433 . S
C895 N898 1.384 . S
C896 H887 0.929 . S
C896 C888 1.378 . S
C896 C891 1.350 . S
C897 H884 0.929 . S
C897 C889 1.433 . S
C897 N899 1.384 . S
N898 C894 1.427 . S
N898 C895 1.384 . S
N899 C891 1.427 . S
N899 C897 1.384 . S
H900 C906 0.930 . S
H901 C910 0.930 . S
H902 C915 0.929 . S
H903 C913 0.929 . S
H904 C908 0.929 . S
H905 C914 0.929 . S
C906 H900 0.930 . S
C906 C907 1.367 . S
C906 C914 1.378 . S
C907 C906 1.367 . S
C907 C915 1.433 . S
C908 H904 0.929 . S
C908 C910 1.378 . S
C908 C912 1.350 . S
C909 C912 1.463 . S
C909 C914 1.350 . S
C909 N917 1.427 . S
C910 H901 0.930 . S
C910 C908 1.378 . S
C910 C911 1.367 . S
C911 C910 1.367 . S
C911 C913 1.433 . S
C912 C908 1.350 . S
C912 C909 1.463 . S
C912 N916 1.427 . S
C913 H903 0.929 . S
C913 C911 1.433 . S
C913 N916 1.384 . S
C914 H905 0.929 . S
C914 C906 1.378 . S
C914 C909 1.350 . S
C915 H902 0.929 . S
C915 C907 1.433 . S
C915 N917 1.384 . S
N916 C912 1.427 . S
N916 C913 1.384 . S
N917 C909 1.427 . S
N917 C915 1.384 . S
H918 C924 0.930 . S
H919 C928 0.930 . S
H920 C933 0.929 . S
H921 C931 0.929 . S
H922 C926 0.929 . S
H923 C932 0.929 . S
C924 H918 0.930 . S
C924 C925 1.367 . S
C924 C932 1.378 . S
C925 C924 1.367 . S
C925 C933 1.433 . S
C926 H922 0.929 . S
C926 C928 1.378 . S
C926 C930 1.350 . S
C927 C930 1.463 . S
C927 C932 1.350 . S
C927 N935 1.427 . S
C928 H919 0.930 . S
C928 C926 1.378 . S
C928 C929 1.367 . S
C929 C928 1.367 . S
C929 C931 1.433 . S
C930 C926 1.350 . S
C930 C927 1.463 . S
C930 N934 1.427 . S
C931 H921 0.929 . S
C931 C929 1.433 . S
C931 N934 1.384 . S
C932 H923 0.929 . S
C932 C924 1.378 . S
C932 C927 1.350 . S
C933 H920 0.929 . S
C933 C925 1.433 . S
C933 N935 1.384 . S
N934 C930 1.427 . S
N934 C931 1.384 . S
N935 C927 1.427 . S
N935 C933 1.384 . S
H936 C942 0.930 . S
H937 C946 0.930 . S
H938 C951 0.929 . S
H939 C949 0.929 . S
H940 C944 0.929 . S
H941 C950 0.929 . S
C942 H936 0.930 . S
C942 C943 1.367 . S
C942 C950 1.378 . S
C943 C942 1.367 . S
C943 C951 1.433 . S
C944 H940 0.929 . S
C944 C946 1.378 . S
C944 C948 1.350 . S
C945 C948 1.463 . S
C945 C950 1.350 . S
C945 N953 1.427 . S
C946 H937 0.930 . S
C946 C944 1.378 . S
C946 C947 1.367 . S
C947 C946 1.367 . S
C947 C949 1.433 . S
C948 C944 1.350 . S
C948 C945 1.463 . S
C948 N952 1.427 . S
C949 H939 0.929 . S
C949 C947 1.433 . S
C949 N952 1.384 . S
C950 H941 0.929 . S
C950 C942 1.378 . S
C950 C945 1.350 . S
C951 H938 0.929 . S
C951 C943 1.433 . S
C951 N953 1.384 . S
N952 C948 1.427 . S
N952 C949 1.384 . S
N953 C945 1.427 . S
N953 C951 1.384 . S
H954 C960 0.930 . S
H955 C964 0.930 . S
H956 C969 0.929 . S
H957 C967 0.929 . S
H958 C962 0.929 . S
H959 C968 0.929 . S
C960 H954 0.930 . S
C960 C961 1.367 . S
C960 C968 1.378 . S
C961 C960 1.367 . S
C961 C969 1.433 . S
C962 H958 0.929 . S
C962 C964 1.378 . S
C962 C966 1.350 . S
C963 C966 1.463 . S
C963 C968 1.350 . S
C963 N971 1.427 . S
C964 H955 0.930 . S
C964 C962 1.378 . S
C964 C965 1.367 . S
C965 C964 1.367 . S
C965 C967 1.433 . S
C966 C962 1.350 . S
C966 C963 1.463 . S
C966 N970 1.427 . S
C967 H957 0.929 . S
C967 C965 1.433 . S
C967 N970 1.384 . S
C968 H959 0.929 . S
C968 C960 1.378 . S
C968 C963 1.350 . S
C969 H956 0.929 . S
C969 C961 1.433 . S
C969 N971 1.384 . S
N970 C966 1.427 . S
N970 C967 1.384 . S
N971 C963 1.427 . S
N971 C969 1.384 . S
H972 C978 0.930 . S
H973 C982 0.930 . S
H974 C987 0.929 . S
H975 C985 0.929 . S
H976 C980 0.929 . S
H977 C986 0.929 . S
C978 H972 0.930 . S
C978 C979 1.367 . S
C978 C986 1.378 . S
C979 C978 1.367 . S
C979 C987 1.433 . S
C980 H976 0.929 . S
C980 C982 1.378 . S
C980 C984 1.350 . S
C981 C984 1.463 . S
C981 C986 1.350 . S
C981 N989 1.427 . S
C982 H973 0.930 . S
C982 C980 1.378 . S
C982 C983 1.367 . S
C983 C982 1.367 . S
C983 C985 1.433 . S
C984 C980 1.350 . S
C984 C981 1.463 . S
C984 N988 1.427 . S
C985 H975 0.929 . S
C985 C983 1.433 . S
C985 N988 1.384 . S
C986 H977 0.929 . S
C986 C978 1.378 . S
C986 C981 1.350 . S
C987 H974 0.929 . S
C987 C979 1.433 . S
C987 N989 1.384 . S
N988 C984 1.427 . S
N988 C985 1.384 . S
N989 C981 1.427 . S
N989 C987 1.384 . S
H990 C996 0.930 . S
H991 C1000 0.930 . S
H992 C1005 0.929 . S
H993 C1003 0.929 . S
H994 C998 0.929 . S
H995 C1004 0.929 . S
C996 H990 0.930 . S
C996 C997 1.367 . S
C996 C1004 1.378 . S
C997 C996 1.367 . S
C997 C1005 1.433 . S
C998 H994 0.929 . S
C998 C1000 1.378 . S
C998 C1002 1.350 . S
C999 C1002 1.463 . S
C999 C1004 1.350 . S
C999 N1007 1.427 . S
C1000 H991 0.930 . S
C1000 C998 1.378 . S
C1000 C1001 1.367 . S
C1001 C1000 1.367 . S
C1001 C1003 1.433 . S
C1002 C998 1.350 . S
C1002 C999 1.463 . S
C1002 N1006 1.427 . S
C1003 H993 0.929 . S
C1003 C1001 1.433 . S
C1003 N1006 1.384 . S
C1004 H995 0.929 . S
C1004 C996 1.378 . S
C1004 C999 1.350 . S
C1005 H992 0.929 . S
C1005 C997 1.433 . S
C1005 N1007 1.384 . S
N1006 C1002 1.427 . S
N1006 C1003 1.384 . S
N1007 C999 1.427 . S
N1007 C1005 1.384 . S
H1008 C1014 0.930 . S
H1009 C1018 0.930 . S
H1010 C1023 0.929 . S
H1011 C1021 0.929 . S
H1012 C1016 0.929 . S
H1013 C1022 0.929 . S
C1014 H1008 0.930 . S
C1014 C1015 1.367 . S
C1014 C1022 1.378 . S
C1015 C1014 1.367 . S
C1015 C1023 1.433 . S
C1016 H1012 0.929 . S
C1016 C1018 1.378 . S
C1016 C1020 1.350 . S
C1017 C1020 1.463 . S
C1017 C1022 1.350 . S
C1017 N1025 1.427 . S
C1018 H1009 0.930 . S
C1018 C1016 1.378 . S
C1018 C1019 1.367 . S
C1019 C1018 1.367 . S
C1019 C1021 1.433 . S
C1020 C1016 1.350 . S
C1020 C1017 1.463 . S
C1020 N1024 1.427 . S
C1021 H1011 0.929 . S
C1021 C1019 1.433 . S
C1021 N1024 1.384 . S
C1022 H1013 0.929 . S
C1022 C1014 1.378 . S
C1022 C1017 1.350 . S
C1023 H1010 0.929 . S
C1023 C1015 1.433 . S
C1023 N1025 1.384 . S
N1024 C1020 1.427 . S
N1024 C1021 1.384 . S
N1025 C1017 1.427 . S
N1025 C1023 1.384 . S
H1026 C1032 0.930 . S
H1027 C1036 0.930 . S
H1028 C1041 0.929 . S
H1029 C1039 0.929 . S
H1030 C1034 0.929 . S
H1031 C1040 0.929 . S
C1032 H1026 0.930 . S
C1032 C1033 1.367 . S
C1032 C1040 1.378 . S
C1033 C1032 1.367 . S
C1033 C1041 1.433 . S
C1034 H1030 0.929 . S
C1034 C1036 1.378 . S
C1034 C1038 1.350 . S
C1035 C1038 1.463 . S
C1035 C1040 1.350 . S
C1035 N1043 1.427 . S
C1036 H1027 0.930 . S
C1036 C1034 1.378 . S
C1036 C1037 1.367 . S
C1037 C1036 1.367 . S
C1037 C1039 1.433 . S
C1038 C1034 1.350 . S
C1038 C1035 1.463 . S
C1038 N1042 1.427 . S
C1039 H1029 0.929 . S
C1039 C1037 1.433 . S
C1039 N1042 1.384 . S
C1040 H1031 0.929 . S
C1040 C1032 1.378 . S
C1040 C1035 1.350 . S
C1041 H1028 0.929 . S
C1041 C1033 1.433 . S
C1041 N1043 1.384 . S
N1042 C1038 1.427 . S
N1042 C1039 1.384 . S
N1043 C1035 1.427 . S
N1043 C1041 1.384 . S
H1044 C1050 0.930 . S
H1045 C1054 0.930 . S
H1046 C1059 0.929 . S
H1047 C1057 0.929 . S
H1048 C1052 0.929 . S
H1049 C1058 0.929 . S
C1050 H1044 0.930 . S
C1050 C1051 1.367 . S
C1050 C1058 1.378 . S
C1051 C1050 1.367 . S
C1051 C1059 1.433 . S
C1052 H1048 0.929 . S
C1052 C1054 1.378 . S
C1052 C1056 1.350 . S
C1053 C1056 1.463 . S
C1053 C1058 1.350 . S
C1053 N1061 1.427 . S
C1054 H1045 0.930 . S
C1054 C1052 1.378 . S
C1054 C1055 1.367 . S
C1055 C1054 1.367 . S
C1055 C1057 1.433 . S
C1056 C1052 1.350 . S
C1056 C1053 1.463 . S
C1056 N1060 1.427 . S
C1057 H1047 0.929 . S
C1057 C1055 1.433 . S
C1057 N1060 1.384 . S
C1058 H1049 0.929 . S
C1058 C1050 1.378 . S
C1058 C1053 1.350 . S
C1059 H1046 0.929 . S
C1059 C1051 1.433 . S
C1059 N1061 1.384 . S
N1060 C1056 1.427 . S
N1060 C1057 1.384 . S
N1061 C1053 1.427 . S
N1061 C1059 1.384 . S
H1062 C1068 0.930 . S
H1063 C1072 0.930 . S
H1064 C1077 0.929 . S
H1065 C1075 0.929 . S
H1066 C1070 0.929 . S
H1067 C1076 0.929 . S
C1068 H1062 0.930 . S
C1068 C1069 1.367 . S
C1068 C1076 1.378 . S
C1069 C1068 1.367 . S
C1069 C1077 1.433 . S
C1070 H1066 0.929 . S
C1070 C1072 1.378 . S
C1070 C1074 1.350 . S
C1071 C1074 1.463 . S
C1071 C1076 1.350 . S
C1071 N1079 1.427 . S
C1072 H1063 0.930 . S
C1072 C1070 1.378 . S
C1072 C1073 1.367 . S
C1073 C1072 1.367 . S
C1073 C1075 1.433 . S
C1074 C1070 1.350 . S
C1074 C1071 1.463 . S
C1074 N1078 1.427 . S
C1075 H1065 0.929 . S
C1075 C1073 1.433 . S
C1075 N1078 1.384 . S
C1076 H1067 0.929 . S
C1076 C1068 1.378 . S
C1076 C1071 1.350 . S
C1077 H1064 0.929 . S
C1077 C1069 1.433 . S
C1077 N1079 1.384 . S
N1078 C1074 1.427 . S
N1078 C1075 1.384 . S
N1079 C1071 1.427 . S
N1079 C1077 1.384 . S
H1080 C1086 0.930 . S
H1081 C1090 0.930 . S
H1082 C1095 0.929 . S
H1083 C1093 0.929 . S
H1084 C1088 0.929 . S
H1085 C1094 0.929 . S
C1086 H1080 0.930 . S
C1086 C1087 1.367 . S
C1086 C1094 1.378 . S
C1087 C1086 1.367 . S
C1087 C1095 1.433 . S
C1088 H1084 0.929 . S
C1088 C1090 1.378 . S
C1088 C1092 1.350 . S
C1089 C1092 1.463 . S
C1089 C1094 1.350 . S
C1089 N1097 1.427 . S
C1090 H1081 0.930 . S
C1090 C1088 1.378 . S
C1090 C1091 1.367 . S
C1091 C1090 1.367 . S
C1091 C1093 1.433 . S
C1092 C1088 1.350 . S
C1092 C1089 1.463 . S
C1092 N1096 1.427 . S
C1093 H1083 0.929 . S
C1093 C1091 1.433 . S
C1093 N1096 1.384 . S
C1094 H1085 0.929 . S
C1094 C1086 1.378 . S
C1094 C1089 1.350 . S
C1095 H1082 0.929 . S
C1095 C1087 1.433 . S
C1095 N1097 1.384 . S
N1096 C1092 1.427 . S
N1096 C1093 1.384 . S
N1097 C1089 1.427 . S
N1097 C1095 1.384 . S
H1098 C1104 0.930 . S
H1099 C1108 0.930 . S
H1100 C1113 0.929 . S
H1101 C1111 0.929 . S
H1102 C1106 0.929 . S
H1103 C1112 0.929 . S
C1104 H1098 0.930 . S
C1104 C1105 1.367 . S
C1104 C1112 1.378 . S
C1105 C1104 1.367 . S
C1105 C1113 1.433 . S
C1106 H1102 0.929 . S
C1106 C1108 1.378 . S
C1106 C1110 1.350 . S
C1107 C1110 1.463 . S
C1107 C1112 1.350 . S
C1107 N1115 1.427 . S
C1108 H1099 0.930 . S
C1108 C1106 1.378 . S
C1108 C1109 1.367 . S
C1109 C1108 1.367 . S
C1109 C1111 1.433 . S
C1110 C1106 1.350 . S
C1110 C1107 1.463 . S
C1110 N1114 1.427 . S
C1111 H1101 0.929 . S
C1111 C1109 1.433 . S
C1111 N1114 1.384 . S
C1112 H1103 0.929 . S
C1112 C1104 1.378 . S
C1112 C1107 1.350 . S
C1113 H1100 0.929 . S
C1113 C1105 1.433 . S
C1113 N1115 1.384 . S
N1114 C1110 1.427 . S
N1114 C1111 1.384 . S
N1115 C1107 1.427 . S
N1115 C1113 1.384 . S
H1116 C1122 0.930 . S
H1117 C1126 0.930 . S
H1118 C1131 0.929 . S
H1119 C1129 0.929 . S
H1120 C1124 0.929 . S
H1121 C1130 0.929 . S
C1122 H1116 0.930 . S
C1122 C1123 1.367 . S
C1122 C1130 1.378 . S
C1123 C1122 1.367 . S
C1123 C1131 1.433 . S
C1124 H1120 0.929 . S
C1124 C1126 1.378 . S
C1124 C1128 1.350 . S
C1125 C1128 1.463 . S
C1125 C1130 1.350 . S
C1125 N1133 1.427 . S
C1126 H1117 0.930 . S
C1126 C1124 1.378 . S
C1126 C1127 1.367 . S
C1127 C1126 1.367 . S
C1127 C1129 1.433 . S
C1128 C1124 1.350 . S
C1128 C1125 1.463 . S
C1128 N1132 1.427 . S
C1129 H1119 0.929 . S
C1129 C1127 1.433 . S
C1129 N1132 1.384 . S
C1130 H1121 0.929 . S
C1130 C1122 1.378 . S
C1130 C1125 1.350 . S
C1131 H1118 0.929 . S
C1131 C1123 1.433 . S
C1131 N1133 1.384 . S
N1132 C1128 1.427 . S
N1132 C1129 1.384 . S
N1133 C1125 1.427 . S
N1133 C1131 1.384 . S
H1134 C1140 0.930 . S
H1135 C1144 0.930 . S
H1136 C1149 0.929 . S
H1137 C1147 0.929 . S
H1138 C1142 0.929 . S
H1139 C1148 0.929 . S
C1140 H1134 0.930 . S
C1140 C1141 1.367 . S
C1140 C1148 1.378 . S
C1141 C1140 1.367 . S
C1141 C1149 1.433 . S
C1142 H1138 0.929 . S
C1142 C1144 1.378 . S
C1142 C1146 1.350 . S
C1143 C1146 1.463 . S
C1143 C1148 1.350 . S
C1143 N1151 1.427 . S
C1144 H1135 0.930 . S
C1144 C1142 1.378 . S
C1144 C1145 1.367 . S
C1145 C1144 1.367 . S
C1145 C1147 1.433 . S
C1146 C1142 1.350 . S
C1146 C1143 1.463 . S
C1146 N1150 1.427 . S
C1147 H1137 0.929 . S
C1147 C1145 1.433 . S
C1147 N1150 1.384 . S
C1148 H1139 0.929 . S
C1148 C1140 1.378 . S
C1148 C1143 1.350 . S
C1149 H1136 0.929 . S
C1149 C1141 1.433 . S
C1149 N1151 1.384 . S
N1150 C1146 1.427 . S
N1150 C1147 1.384 . S
N1151 C1143 1.427 . S
N1151 C1149 1.384 . S
H1152 C1158 0.930 . S
H1153 C1162 0.930 . S
H1154 C1167 0.929 . S
H1155 C1165 0.929 . S
H1156 C1160 0.929 . S
H1157 C1166 0.929 . S
C1158 H1152 0.930 . S
C1158 C1159 1.367 . S
C1158 C1166 1.378 . S
C1159 C1158 1.367 . S
C1159 C1167 1.433 . S
C1160 H1156 0.929 . S
C1160 C1162 1.378 . S
C1160 C1164 1.350 . S
C1161 C1164 1.463 . S
C1161 C1166 1.350 . S
C1161 N1169 1.427 . S
C1162 H1153 0.930 . S
C1162 C1160 1.378 . S
C1162 C1163 1.367 . S
C1163 C1162 1.367 . S
C1163 C1165 1.433 . S
C1164 C1160 1.350 . S
C1164 C1161 1.463 . S
C1164 N1168 1.427 . S
C1165 H1155 0.929 . S
C1165 C1163 1.433 . S
C1165 N1168 1.384 . S
C1166 H1157 0.929 . S
C1166 C1158 1.378 . S
C1166 C1161 1.350 . S
C1167 H1154 0.929 . S
C1167 C1159 1.433 . S
C1167 N1169 1.384 . S
N1168 C1164 1.427 . S
N1168 C1165 1.384 . S
N1169 C1161 1.427 . S
N1169 C1167 1.384 . S
H1170 C1176 0.930 . S
H1171 C1180 0.930 . S
H1172 C1185 0.929 . S
H1173 C1183 0.929 . S
H1174 C1178 0.929 . S
H1175 C1184 0.929 . S
C1176 H1170 0.930 . S
C1176 C1177 1.367 . S
C1176 C1184 1.378 . S
C1177 C1176 1.367 . S
C1177 C1185 1.433 . S
C1178 H1174 0.929 . S
C1178 C1180 1.378 . S
C1178 C1182 1.350 . S
C1179 C1182 1.463 . S
C1179 C1184 1.350 . S
C1179 N1187 1.427 . S
C1180 H1171 0.930 . S
C1180 C1178 1.378 . S
C1180 C1181 1.367 . S
C1181 C1180 1.367 . S
C1181 C1183 1.433 . S
C1182 C1178 1.350 . S
C1182 C1179 1.463 . S
C1182 N1186 1.427 . S
C1183 H1173 0.929 . S
C1183 C1181 1.433 . S
C1183 N1186 1.384 . S
C1184 H1175 0.929 . S
C1184 C1176 1.378 . S
C1184 C1179 1.350 . S
C1185 H1172 0.929 . S
C1185 C1177 1.433 . S
C1185 N1187 1.384 . S
N1186 C1182 1.427 . S
N1186 C1183 1.384 . S
N1187 C1179 1.427 . S
N1187 C1185 1.384 . S
H1188 C1194 0.930 . S
H1189 C1198 0.930 . S
H1190 C1203 0.929 . S
H1191 C1201 0.929 . S
H1192 C1196 0.929 . S
H1193 C1202 0.929 . S
C1194 H1188 0.930 . S
C1194 C1195 1.367 . S
C1194 C1202 1.378 . S
C1195 C1194 1.367 . S
C1195 C1203 1.433 . S
C1196 H1192 0.929 . S
C1196 C1198 1.378 . S
C1196 C1200 1.350 . S
C1197 C1200 1.463 . S
C1197 C1202 1.350 . S
C1197 N1205 1.427 . S
C1198 H1189 0.930 . S
C1198 C1196 1.378 . S
C1198 C1199 1.367 . S
C1199 C1198 1.367 . S
C1199 C1201 1.433 . S
C1200 C1196 1.350 . S
C1200 C1197 1.463 . S
C1200 N1204 1.427 . S
C1201 H1191 0.929 . S
C1201 C1199 1.433 . S
C1201 N1204 1.384 . S
C1202 H1193 0.929 . S
C1202 C1194 1.378 . S
C1202 C1197 1.350 . S
C1203 H1190 0.929 . S
C1203 C1195 1.433 . S
C1203 N1205 1.384 . S
N1204 C1200 1.427 . S
N1204 C1201 1.384 . S
N1205 C1197 1.427 . S
N1205 C1203 1.384 . S
H1206 C1212 0.930 . S
H1207 C1216 0.930 . S
H1208 C1221 0.929 . S
H1209 C1219 0.929 . S
H1210 C1214 0.929 . S
H1211 C1220 0.929 . S
C1212 H1206 0.930 . S
C1212 C1213 1.367 . S
C1212 C1220 1.378 . S
C1213 C1212 1.367 . S
C1213 C1221 1.433 . S
C1214 H1210 0.929 . S
C1214 C1216 1.378 . S
C1214 C1218 1.350 . S
C1215 C1218 1.463 . S
C1215 C1220 1.350 . S
C1215 N1223 1.427 . S
C1216 H1207 0.930 . S
C1216 C1214 1.378 . S
C1216 C1217 1.367 . S
C1217 C1216 1.367 . S
C1217 C1219 1.433 . S
C1218 C1214 1.350 . S
C1218 C1215 1.463 . S
C1218 N1222 1.427 . S
C1219 H1209 0.929 . S
C1219 C1217 1.433 . S
C1219 N1222 1.384 . S
C1220 H1211 0.929 . S
C1220 C1212 1.378 . S
C1220 C1215 1.350 . S
C1221 H1208 0.929 . S
C1221 C1213 1.433 . S
C1221 N1223 1.384 . S
N1222 C1218 1.427 . S
N1222 C1219 1.384 . S
N1223 C1215 1.427 . S
N1223 C1221 1.384 . S
H1224 C1230 0.930 . S
H1225 C1234 0.930 . S
H1226 C1239 0.929 . S
H1227 C1237 0.929 . S
H1228 C1232 0.929 . S
H1229 C1238 0.929 . S
C1230 H1224 0.930 . S
C1230 C1231 1.367 . S
C1230 C1238 1.378 . S
C1231 C1230 1.367 . S
C1231 C1239 1.433 . S
C1232 H1228 0.929 . S
C1232 C1234 1.378 . S
C1232 C1236 1.350 . S
C1233 C1236 1.463 . S
C1233 C1238 1.350 . S
C1233 N1241 1.427 . S
C1234 H1225 0.930 . S
C1234 C1232 1.378 . S
C1234 C1235 1.367 . S
C1235 C1234 1.367 . S
C1235 C1237 1.433 . S
C1236 C1232 1.350 . S
C1236 C1233 1.463 . S
C1236 N1240 1.427 . S
C1237 H1227 0.929 . S
C1237 C1235 1.433 . S
C1237 N1240 1.384 . S
C1238 H1229 0.929 . S
C1238 C1230 1.378 . S
C1238 C1233 1.350 . S
C1239 H1226 0.929 . S
C1239 C1231 1.433 . S
C1239 N1241 1.384 . S
N1240 C1236 1.427 . S
N1240 C1237 1.384 . S
N1241 C1233 1.427 . S
N1241 C1239 1.384 . S
H1242 C1248 0.930 . S
H1243 C1252 0.930 . S
H1244 C1257 0.929 . S
H1245 C1255 0.929 . S
H1246 C1250 0.929 . S
H1247 C1256 0.929 . S
C1248 H1242 0.930 . S
C1248 C1249 1.367 . S
C1248 C1256 1.378 . S
C1249 C1248 1.367 . S
C1249 C1257 1.433 . S
C1250 H1246 0.929 . S
C1250 C1252 1.378 . S
C1250 C1254 1.350 . S
C1251 C1254 1.463 . S
C1251 C1256 1.350 . S
C1251 N1259 1.427 . S
C1252 H1243 0.930 . S
C1252 C1250 1.378 . S
C1252 C1253 1.367 . S
C1253 C1252 1.367 . S
C1253 C1255 1.433 . S
C1254 C1250 1.350 . S
C1254 C1251 1.463 . S
C1254 N1258 1.427 . S
C1255 H1245 0.929 . S
C1255 C1253 1.433 . S
C1255 N1258 1.384 . S
C1256 H1247 0.929 . S
C1256 C1248 1.378 . S
C1256 C1251 1.350 . S
C1257 H1244 0.929 . S
C1257 C1249 1.433 . S
C1257 N1259 1.384 . S
N1258 C1254 1.427 . S
N1258 C1255 1.384 . S
N1259 C1251 1.427 . S
N1259 C1257 1.384 . S
H1260 C1266 0.930 . S
H1261 C1270 0.930 . S
H1262 C1275 0.960 . S
H1263 C1273 0.929 . S
H1264 C1268 0.929 . S
H1265 C1274 0.929 . S
C1266 H1260 0.930 . S
C1266 C1267 1.367 . S
C1266 C1274 1.378 . S
C1267 C1266 1.367 . S
C1267 C1275 1.433 . S
C1268 H1264 0.929 . S
C1268 C1270 1.378 . S
C1268 C1272 1.350 . S
C1269 C1272 1.463 . S
C1269 C1274 1.350 . S
C1269 N1277 1.427 . S
C1270 H1261 0.930 . S
C1270 C1268 1.378 . S
C1270 C1271 1.367 . S
C1271 C1270 1.367 . S
C1271 C1273 1.433 . S
C1272 C1268 1.350 . S
C1272 C1269 1.463 . S
C1272 N1276 1.427 . S
C1273 H1263 0.929 . S
C1273 C1271 1.433 . S
C1273 N1276 1.384 . S
C1274 H1265 0.929 . S
C1274 C1266 1.378 . S
C1274 C1269 1.350 . S
C1275 H1262 0.960 . S
C1275 C1267 1.433 . S
C1275 N1277 1.384 . S
N1276 C1272 1.427 . S
N1276 C1273 1.384 . S
N1277 C1269 1.427 . S
N1277 C1275 1.384 . S
H1278 C1284 0.930 . S
H1279 C1288 0.930 . S
H1280 C1293 0.929 . S
H1281 C1291 0.929 . S
H1282 C1286 0.929 . S
H1283 C1292 0.929 1_554 S
C1284 H1278 0.930 . S
C1284 C1285 1.367 1_554 S
C1284 C1292 1.378 1_554 S
C1285 C1284 1.367 1_556 S
C1285 C1293 1.433 . S
C1286 H1282 0.929 . S
C1286 C1288 1.378 . S
C1286 C1290 1.350 . S
C1287 C1290 1.463 . S
C1287 C1292 1.350 . S
C1287 N1295 1.427 . S
C1288 H1279 0.930 . S
C1288 C1286 1.378 . S
C1288 C1289 1.367 . S
C1289 C1288 1.367 . S
C1289 C1291 1.433 . S
C1290 C1286 1.350 . S
C1290 C1287 1.463 . S
C1290 N1294 1.427 . S
C1291 H1281 0.929 . S
C1291 C1289 1.433 . S
C1291 N1294 1.384 . S
C1292 H1283 0.929 1_556 S
C1292 C1284 1.378 1_556 S
C1292 C1287 1.350 . S
C1293 H1280 0.929 . S
C1293 C1285 1.433 . S
C1293 N1295 1.384 . S
N1294 C1290 1.427 . S
N1294 C1291 1.384 . S
N1295 C1287 1.427 . S
N1295 C1293 1.384 . S
H1296 C1302 0.930 . S
H1297 C1306 0.930 . S
H1298 C1311 0.929 . S
H1299 C1309 0.929 . S
H1300 C1304 0.929 . S
H1301 C1310 0.929 . S
C1302 H1296 0.930 . S
C1302 C1303 1.367 . S
C1302 C1310 1.378 . S
C1303 C1302 1.367 . S
C1303 C1311 1.433 1_556 S
C1304 H1300 0.929 . S
C1304 C1306 1.378 . S
C1304 C1308 1.350 . S
C1305 C1308 1.463 . S
C1305 C1310 1.350 . S
C1305 N1313 1.427 . S
C1306 H1297 0.930 . S
C1306 C1304 1.378 . S
C1306 C1307 1.367 . S
C1307 C1306 1.367 . S
C1307 C1309 1.433 . S
C1308 C1304 1.350 . S
C1308 C1305 1.463 . S
C1308 N1312 1.427 . S
C1309 H1299 0.929 . S
C1309 C1307 1.433 . S
C1309 N1312 1.384 . S
C1310 H1301 0.929 . S
C1310 C1302 1.378 . S
C1310 C1305 1.350 . S
C1311 H1298 0.929 . S
C1311 C1303 1.433 1_554 S
C1311 N1313 1.384 1_554 S
N1312 C1308 1.427 . S
N1312 C1309 1.384 . S
N1313 C1305 1.427 . S
N1313 C1311 1.384 1_556 S
H1314 C1320 0.930 . S
H1315 C1324 0.930 . S
H1316 C1329 0.929 . S
H1317 C1327 0.929 . S
H1318 C1322 0.929 . S
H1319 C1328 0.929 1_554 S
C1320 H1314 0.930 . S
C1320 C1321 1.367 1_554 S
C1320 C1328 1.378 1_554 S
C1321 C1320 1.367 1_556 S
C1321 C1329 1.433 . S
C1322 H1318 0.929 . S
C1322 C1324 1.378 . S
C1322 C1326 1.350 . S
C1323 C1326 1.463 . S
C1323 C1328 1.350 . S
C1323 N1331 1.427 . S
C1324 H1315 0.930 . S
C1324 C1322 1.378 . S
C1324 C1325 1.367 . S
C1325 C1324 1.367 . S
C1325 C1327 1.433 . S
C1326 C1322 1.350 . S
C1326 C1323 1.463 . S
C1326 N1330 1.427 . S
C1327 H1317 0.929 . S
C1327 C1325 1.433 . S
C1327 N1330 1.384 . S
C1328 H1319 0.929 1_556 S
C1328 C1320 1.378 1_556 S
C1328 C1323 1.350 . S
C1329 H1316 0.929 . S
C1329 C1321 1.433 . S
C1329 N1331 1.384 . S
N1330 C1326 1.427 . S
N1330 C1327 1.384 . S
N1331 C1323 1.427 . S
N1331 C1329 1.384 . S
H1332 C1338 0.930 . S
H1333 C1342 0.930 . S
H1334 C1347 0.929 . S
H1335 C1345 0.929 . S
H1336 C1340 0.929 . S
H1337 C1346 0.929 . S
C1338 H1332 0.930 . S
C1338 C1339 1.367 . S
C1338 C1346 1.378 . S
C1339 C1338 1.367 . S
C1339 C1347 1.433 1_556 S
C1340 H1336 0.929 . S
C1340 C1342 1.378 . S
C1340 C1344 1.350 . S
C1341 C1344 1.463 . S
C1341 C1346 1.350 . S
C1341 N1349 1.427 . S
C1342 H1333 0.930 . S
C1342 C1340 1.378 . S
C1342 C1343 1.367 . S
C1343 C1342 1.367 . S
C1343 C1345 1.433 . S
C1344 C1340 1.350 . S
C1344 C1341 1.463 . S
C1344 N1348 1.427 . S
C1345 H1335 0.929 . S
C1345 C1343 1.433 . S
C1345 N1348 1.384 . S
C1346 H1337 0.929 . S
C1346 C1338 1.378 . S
C1346 C1341 1.350 . S
C1347 H1334 0.929 . S
C1347 C1339 1.433 1_554 S
C1347 N1349 1.384 1_554 S
N1348 C1344 1.427 . S
N1348 C1345 1.384 . S
N1349 C1341 1.427 . S
N1349 C1347 1.384 1_556 S
H1350 C1356 0.921 1_554 S
H1351 C1360 0.930 . S
H1352 C1365 0.929 . S
H1353 C1363 0.929 . S
H1354 C1358 0.929 . S
H1355 C1364 0.929 . S
C1356 H1350 0.921 1_556 S
C1356 C1357 1.367 . S
C1356 C1364 1.378 . S
C1357 C1356 1.367 . S
C1357 C1365 1.433 . S
C1358 H1354 0.929 . S
C1358 C1360 1.378 . S
C1358 C1362 1.350 . S
C1359 C1362 1.463 . S
C1359 C1364 1.350 . S
C1359 N1367 1.427 . S
C1360 H1351 0.930 . S
C1360 C1358 1.378 . S
C1360 C1361 1.367 . S
C1361 C1360 1.367 . S
C1361 C1363 1.433 . S
C1362 C1358 1.350 . S
C1362 C1359 1.463 . S
C1362 N1366 1.427 . S
C1363 H1353 0.929 . S
C1363 C1361 1.433 . S
C1363 N1366 1.384 . S
C1364 H1355 0.929 . S
C1364 C1356 1.378 . S
C1364 C1359 1.350 . S
C1365 H1352 0.929 . S
C1365 C1357 1.433 . S
C1365 N1367 1.384 . S
N1366 C1362 1.427 . S
N1366 C1363 1.384 . S
N1367 C1359 1.427 . S
N1367 C1365 1.384 . S
H1368 C1374 0.930 . S
H1369 C1378 0.930 . S
H1370 C1383 0.929 . S
H1371 C1381 0.929 . S
H1372 C1376 0.929 . S
H1373 C1382 0.929 1_554 S
C1374 H1368 0.930 . S
C1374 C1375 1.367 1_554 S
C1374 C1382 1.378 1_554 S
C1375 C1374 1.367 1_556 S
C1375 C1383 1.433 . S
C1376 H1372 0.929 . S
C1376 C1378 1.378 . S
C1376 C1380 1.350 . S
C1377 C1380 1.463 . S
C1377 C1382 1.350 . S
C1377 N1385 1.427 . S
C1378 H1369 0.930 . S
C1378 C1376 1.378 . S
C1378 C1379 1.367 . S
C1379 C1378 1.367 . S
C1379 C1381 1.433 . S
C1380 C1376 1.350 . S
C1380 C1377 1.463 . S
C1380 N1384 1.427 . S
C1381 H1371 0.929 . S
C1381 C1379 1.433 . S
C1381 N1384 1.384 . S
C1382 H1373 0.929 1_556 S
C1382 C1374 1.378 1_556 S
C1382 C1377 1.350 . S
C1383 H1370 0.929 . S
C1383 C1375 1.433 . S
C1383 N1385 1.384 . S
N1384 C1380 1.427 . S
N1384 C1381 1.384 . S
N1385 C1377 1.427 . S
N1385 C1383 1.384 . S
H1386 C1392 0.930 . S
H1387 C1396 0.930 . S
H1388 C1401 0.929 . S
H1389 C1399 0.929 . S
H1390 C1394 0.929 . S
H1391 C1400 0.929 . S
C1392 H1386 0.930 . S
C1392 C1393 1.367 . S
C1392 C1400 1.378 . S
C1393 C1392 1.367 . S
C1393 C1401 1.433 . S
C1394 H1390 0.929 . S
C1394 C1396 1.378 . S
C1394 C1398 1.350 . S
C1395 C1398 1.463 . S
C1395 C1400 1.350 . S
C1395 N1403 1.427 . S
C1396 H1387 0.930 . S
C1396 C1394 1.378 . S
C1396 C1397 1.367 . S
C1397 C1396 1.367 . S
C1397 C1399 1.433 . S
C1398 C1394 1.350 . S
C1398 C1395 1.463 . S
C1398 N1402 1.427 . S
C1399 H1389 0.929 . S
C1399 C1397 1.433 . S
C1399 N1402 1.384 . S
C1400 H1391 0.929 . S
C1400 C1392 1.378 . S
C1400 C1395 1.350 . S
C1401 H1388 0.929 . S
C1401 C1393 1.433 . S
C1401 N1403 1.384 . S
N1402 C1398 1.427 . S
N1402 C1399 1.384 . S
N1403 C1395 1.427 . S
N1403 C1401 1.384 . S
H1404 C1410 0.930 . S
H1405 C1414 0.930 . S
H1406 C1419 0.929 . S
H1407 C1417 0.929 . S
H1408 C1412 0.929 . S
H1409 C1418 0.929 . S
C1410 H1404 0.930 . S
C1410 C1411 1.367 . S
C1410 C1418 1.378 . S
C1411 C1410 1.367 . S
C1411 C1419 1.433 . S
C1412 H1408 0.929 . S
C1412 C1414 1.378 . S
C1412 C1416 1.350 . S
C1413 C1416 1.463 . S
C1413 C1418 1.350 . S
C1413 N1421 1.427 . S
C1414 H1405 0.930 . S
C1414 C1412 1.378 . S
C1414 C1415 1.367 . S
C1415 C1414 1.367 . S
C1415 C1417 1.433 . S
C1416 C1412 1.350 . S
C1416 C1413 1.463 . S
C1416 N1420 1.427 . S
C1417 H1407 0.929 . S
C1417 C1415 1.433 . S
C1417 N1420 1.384 . S
C1418 H1409 0.929 . S
C1418 C1410 1.378 . S
C1418 C1413 1.350 . S
C1419 H1406 0.929 . S
C1419 C1411 1.433 . S
C1419 N1421 1.384 . S
N1420 C1416 1.427 . S
N1420 C1417 1.384 . S
N1421 C1413 1.427 . S
N1421 C1419 1.384 . S
H1422 C1428 0.930 . S
H1423 C1432 0.930 . S
H1424 C1437 0.929 . S
H1425 C1435 0.929 . S
H1426 C1430 0.929 . S
H1427 C1436 0.929 . S
C1428 H1422 0.930 . S
C1428 C1429 1.367 . S
C1428 C1436 1.378 . S
C1429 C1428 1.367 . S
C1429 C1437 1.433 . S
C1430 H1426 0.929 . S
C1430 C1432 1.378 . S
C1430 C1434 1.350 . S
C1431 C1434 1.463 . S
C1431 C1436 1.350 . S
C1431 N1439 1.427 . S
C1432 H1423 0.930 . S
C1432 C1430 1.378 . S
C1432 C1433 1.367 . S
C1433 C1432 1.367 . S
C1433 C1435 1.433 . S
C1434 C1430 1.350 . S
C1434 C1431 1.463 . S
C1434 N1438 1.427 . S
C1435 H1425 0.929 . S
C1435 C1433 1.433 . S
C1435 N1438 1.384 . S
C1436 H1427 0.929 . S
C1436 C1428 1.378 . S
C1436 C1431 1.350 . S
C1437 H1424 0.929 . S
C1437 C1429 1.433 . S
C1437 N1439 1.384 . S
N1438 C1434 1.427 . S
N1438 C1435 1.384 . S
N1439 C1431 1.427 . S
N1439 C1437 1.384 . S
H1440 C1446 0.930 . S
H1441 C1450 0.930 . S
H1442 C1455 0.929 . S
H1443 C1453 0.929 . S
H1444 C1448 0.929 . S
H1445 C1454 0.929 . S
C1446 H1440 0.930 . S
C1446 C1447 1.367 . S
C1446 C1454 1.378 . S
C1447 C1446 1.367 . S
C1447 C1455 1.433 . S
C1448 H1444 0.929 . S
C1448 C1450 1.378 . S
C1448 C1452 1.350 . S
C1449 C1452 1.463 . S
C1449 C1454 1.350 . S
C1449 N1457 1.427 . S
C1450 H1441 0.930 . S
C1450 C1448 1.378 . S
C1450 C1451 1.367 . S
C1451 C1450 1.367 . S
C1451 C1453 1.433 . S
C1452 C1448 1.350 . S
C1452 C1449 1.463 . S
C1452 N1456 1.427 . S
C1453 H1443 0.929 . S
C1453 C1451 1.433 . S
C1453 N1456 1.384 . S
C1454 H1445 0.929 . S
C1454 C1446 1.378 . S
C1454 C1449 1.350 . S
C1455 H1442 0.929 . S
C1455 C1447 1.433 . S
C1455 N1457 1.384 . S
N1456 C1452 1.427 . S
N1456 C1453 1.384 . S
N1457 C1449 1.427 . S
N1457 C1455 1.384 . S
H1458 C1464 0.930 . S
H1459 C1468 0.930 . S
H1460 C1473 0.929 . S
H1461 C1471 0.929 . S
H1462 C1466 0.929 . S
H1463 C1472 0.929 . S
C1464 H1458 0.930 . S
C1464 C1465 1.367 . S
C1464 C1472 1.378 . S
C1465 C1464 1.367 . S
C1465 C1473 1.433 . S
C1466 H1462 0.929 . S
C1466 C1468 1.378 . S
C1466 C1470 1.350 . S
C1467 C1470 1.463 . S
C1467 C1472 1.350 . S
C1467 N1475 1.427 . S
C1468 H1459 0.930 . S
C1468 C1466 1.378 . S
C1468 C1469 1.367 . S
C1469 C1468 1.367 . S
C1469 C1471 1.433 . S
C1470 C1466 1.350 . S
C1470 C1467 1.463 . S
C1470 N1474 1.427 . S
C1471 H1461 0.929 . S
C1471 C1469 1.433 . S
C1471 N1474 1.384 . S
C1472 H1463 0.929 . S
C1472 C1464 1.378 . S
C1472 C1467 1.350 . S
C1473 H1460 0.929 . S
C1473 C1465 1.433 . S
C1473 N1475 1.384 . S
N1474 C1470 1.427 . S
N1474 C1471 1.384 . S
N1475 C1467 1.427 . S
N1475 C1473 1.384 . S
H1476 C1482 0.930 . S
H1477 C1486 0.930 . S
H1478 C1491 0.929 . S
H1479 C1489 0.929 . S
H1480 C1484 0.929 . S
H1481 C1490 0.929 . S
C1482 H1476 0.930 . S
C1482 C1483 1.367 . S
C1482 C1490 1.378 . S
C1483 C1482 1.367 . S
C1483 C1491 1.433 . S
C1484 H1480 0.929 . S
C1484 C1486 1.378 . S
C1484 C1488 1.350 . S
C1485 C1488 1.463 . S
C1485 C1490 1.350 . S
C1485 N1493 1.427 . S
C1486 H1477 0.930 . S
C1486 C1484 1.378 . S
C1486 C1487 1.367 . S
C1487 C1486 1.367 . S
C1487 C1489 1.433 . S
C1488 C1484 1.350 . S
C1488 C1485 1.463 . S
C1488 N1492 1.427 . S
C1489 H1479 0.929 . S
C1489 C1487 1.433 . S
C1489 N1492 1.384 . S
C1490 H1481 0.929 . S
C1490 C1482 1.378 . S
C1490 C1485 1.350 . S
C1491 H1478 0.929 . S
C1491 C1483 1.433 . S
C1491 N1493 1.384 . S
N1492 C1488 1.427 . S
N1492 C1489 1.384 . S
N1493 C1485 1.427 . S
N1493 C1491 1.384 . S
H1494 C1500 0.930 . S
H1495 C1504 0.930 . S
H1496 C1509 0.929 . S
H1497 C1507 0.929 . S
H1498 C1502 0.929 . S
H1499 C1508 0.929 1_655 S
C1500 H1494 0.930 . S
C1500 C1501 1.367 . S
C1500 C1508 1.378 . S
C1501 C1500 1.367 . S
C1501 C1509 1.433 . S
C1502 H1498 0.929 . S
C1502 C1504 1.378 . S
C1502 C1506 1.350 . S
C1503 C1506 1.463 . S
C1503 C1508 1.350 . S
C1503 N1511 1.427 . S
C1504 H1495 0.930 . S
C1504 C1502 1.378 . S
C1504 C1505 1.367 . S
C1505 C1504 1.367 . S
C1505 C1507 1.433 1_455 S
C1506 C1502 1.350 . S
C1506 C1503 1.463 . S
C1506 N1510 1.447 . S
C1507 H1497 0.929 . S
C1507 C1505 1.433 1_655 S
C1507 N1510 1.359 1_655 S
C1508 H1499 0.929 1_455 S
C1508 C1500 1.378 . S
C1508 C1503 1.350 . S
C1509 H1496 0.929 . S
C1509 C1501 1.433 . S
C1509 N1511 1.384 . S
N1510 C1506 1.447 . S
N1510 C1507 1.359 1_455 S
N1511 C1503 1.427 . S
N1511 C1509 1.384 . S
H1512 C1518 0.930 . S
H1513 C1522 0.930 . S
H1514 C1527 0.929 . S
H1515 C1525 0.929 . S
H1516 C1520 0.929 . S
H1517 C1526 0.929 . S
C1518 H1512 0.930 . S
C1518 C1519 1.367 . S
C1518 C1526 1.378 . S
C1519 C1518 1.367 . S
C1519 C1527 1.433 . S
C1520 H1516 0.929 . S
C1520 C1522 1.378 . S
C1520 C1524 1.350 . S
C1521 C1524 1.463 . S
C1521 C1526 1.350 . S
C1521 N1529 1.427 . S
C1522 H1513 0.930 . S
C1522 C1520 1.378 . S
C1522 C1523 1.367 . S
C1523 C1522 1.367 . S
C1523 C1525 1.433 . S
C1524 C1520 1.350 . S
C1524 C1521 1.463 . S
C1524 N1528 1.427 . S
C1525 H1515 0.929 . S
C1525 C1523 1.433 . S
C1525 N1528 1.384 . S
C1526 H1517 0.929 . S
C1526 C1518 1.378 . S
C1526 C1521 1.350 . S
C1527 H1514 0.929 . S
C1527 C1519 1.433 . S
C1527 N1529 1.384 . S
N1528 C1524 1.427 . S
N1528 C1525 1.384 . S
N1529 C1521 1.427 . S
N1529 C1527 1.384 . S
H1530 C1536 0.930 . S
H1531 C1540 0.930 . S
H1532 C1545 0.929 . S
H1533 C1543 0.929 . S
H1534 C1538 0.929 . S
H1535 C1544 0.929 . S
C1536 H1530 0.930 . S
C1536 C1537 1.367 . S
C1536 C1544 1.378 . S
C1537 C1536 1.367 . S
C1537 C1545 1.433 1_565 S
C1538 H1534 0.929 . S
C1538 C1540 1.378 . S
C1538 C1542 1.350 1_545 S
C1539 C1542 1.463 . S
C1539 C1544 1.350 . S
C1539 N1547 1.427 1_565 S
C1540 H1531 0.930 . S
C1540 C1538 1.378 . S
C1540 C1541 1.367 1_545 S
C1541 C1540 1.367 1_565 S
C1541 C1543 1.433 . S
C1542 C1538 1.350 1_565 S
C1542 C1539 1.463 . S
C1542 N1546 1.427 . S
C1543 H1533 0.929 . S
C1543 C1541 1.433 . S
C1543 N1546 1.384 . S
C1544 H1535 0.929 . S
C1544 C1536 1.378 . S
C1544 C1539 1.350 . S
C1545 H1532 0.929 . S
C1545 C1537 1.433 1_545 S
C1545 N1547 1.384 . S
N1546 C1542 1.427 . S
N1546 C1543 1.384 . S
N1547 C1539 1.427 1_545 S
N1547 C1545 1.384 . S
H1548 C1554 0.930 . S
H1549 C1558 0.930 . S
H1550 C1563 0.929 1_545 S
H1551 C1561 0.929 . S
H1552 C1556 0.929 . S
H1553 C1562 0.929 . S
C1554 H1548 0.930 . S
C1554 C1555 1.367 . S
C1554 C1562 1.378 . S
C1555 C1554 1.367 . S
C1555 C1563 1.433 . S
C1556 H1552 0.929 . S
C1556 C1558 1.378 . S
C1556 C1560 1.350 1_545 S
C1557 C1560 1.463 . S
C1557 C1562 1.350 . S
C1557 N1565 1.427 . S
C1558 H1549 0.930 . S
C1558 C1556 1.378 . S
C1558 C1559 1.367 1_545 S
C1559 C1558 1.367 1_565 S
C1559 C1561 1.433 . S
C1560 C1556 1.350 1_565 S
C1560 C1557 1.463 . S
C1560 N1564 1.427 . S
C1561 H1551 0.929 . S
C1561 C1559 1.433 . S
C1561 N1564 1.384 . S
C1562 H1553 0.929 . S
C1562 C1554 1.378 . S
C1562 C1557 1.350 . S
C1563 H1550 0.929 1_565 S
C1563 C1555 1.433 . S
C1563 N1565 1.384 . S
N1564 C1560 1.427 . S
N1564 C1561 1.384 . S
N1565 C1557 1.427 . S
N1565 C1563 1.384 . S
H1566 C1572 0.930 . S
H1567 C1576 0.930 . S
H1568 C1581 0.929 . S
H1569 C1579 0.929 . S
H1570 C1574 0.929 . S
H1571 C1580 0.929 . S
C1572 H1566 0.930 . S
C1572 C1573 1.367 1_655 S
C1572 C1580 1.378 . S
C1573 C1572 1.367 1_455 S
C1573 C1581 1.433 . S
C1574 H1570 0.929 . S
C1574 C1576 1.378 . S
C1574 C1578 1.350 . S
C1575 C1578 1.463 . S
C1575 C1580 1.350 1_455 S
C1575 N1583 1.427 . S
C1576 H1567 0.930 . S
C1576 C1574 1.378 . S
C1576 C1577 1.391 . S
C1577 C1576 1.391 . S
C1577 C1579 1.393 1_455 S
C1578 C1574 1.350 . S
C1578 C1575 1.463 . S
C1578 N1582 1.427 1_455 S
C1579 H1569 0.929 . S
C1579 C1577 1.393 1_655 S
C1579 N1582 1.384 . S
C1580 H1571 0.929 . S
C1580 C1572 1.378 . S
C1580 C1575 1.350 1_655 S
C1581 H1568 0.929 . S
C1581 C1573 1.433 . S
C1581 N1583 1.384 . S
N1582 C1578 1.427 1_655 S
N1582 C1579 1.384 . S
N1583 C1575 1.427 . S
N1583 C1581 1.384 . S
H1584 C1590 0.930 . S
H1585 C1594 0.930 . S
H1586 C1599 0.929 . S
H1587 C1597 0.929 . S
H1588 C1592 0.929 . S
H1589 C1598 0.929 . S
C1590 H1584 0.930 . S
C1590 C1591 1.367 . S
C1590 C1598 1.378 . S
C1591 C1590 1.367 . S
C1591 C1599 1.433 . S
C1592 H1588 0.929 . S
C1592 C1594 1.378 . S
C1592 C1596 1.350 . S
C1593 C1596 1.463 . S
C1593 C1598 1.350 . S
C1593 N1601 1.427 . S
C1594 H1585 0.930 . S
C1594 C1592 1.378 . S
C1594 C1595 1.367 . S
C1595 C1594 1.367 . S
C1595 C1597 1.433 . S
C1596 C1592 1.350 . S
C1596 C1593 1.463 . S
C1596 N1600 1.427 . S
C1597 H1587 0.929 . S
C1597 C1595 1.433 . S
C1597 N1600 1.384 . S
C1598 H1589 0.929 . S
C1598 C1590 1.378 . S
C1598 C1593 1.350 . S
C1599 H1586 0.929 . S
C1599 C1591 1.433 . S
C1599 N1601 1.384 . S
N1600 C1596 1.427 . S
N1600 C1597 1.384 . S
N1601 C1593 1.427 . S
N1601 C1599 1.384 . S
H1602 C1608 0.930 . S
H1603 C1612 0.930 . S
H1604 C1617 0.929 . S
H1605 C1615 0.929 . S
H1606 C1610 0.929 . S
H1607 C1616 0.929 . S
C1608 H1602 0.930 . S
C1608 C1609 1.367 . S
C1608 C1616 1.378 . S
C1609 C1608 1.367 . S
C1609 C1617 1.433 . S
C1610 H1606 0.929 . S
C1610 C1612 1.378 . S
C1610 C1614 1.350 . S
C1611 C1614 1.463 . S
C1611 C1616 1.350 . S
C1611 N1619 1.427 . S
C1612 H1603 0.930 . S
C1612 C1610 1.378 . S
C1612 C1613 1.367 . S
C1613 C1612 1.367 . S
C1613 C1615 1.433 . S
C1614 C1610 1.350 . S
C1614 C1611 1.463 . S
C1614 N1618 1.427 . S
C1615 H1605 0.929 . S
C1615 C1613 1.433 . S
C1615 N1618 1.384 . S
C1616 H1607 0.929 . S
C1616 C1608 1.378 . S
C1616 C1611 1.350 . S
C1617 H1604 0.929 . S
C1617 C1609 1.433 . S
C1617 N1619 1.384 . S
N1618 C1614 1.427 . S
N1618 C1615 1.384 . S
N1619 C1611 1.427 . S
N1619 C1617 1.384 . S
H1620 C1626 0.930 . S
H1621 C1630 0.930 . S
H1622 C1635 0.929 . S
H1623 C1633 0.929 . S
H1624 C1628 0.929 . S
H1625 C1634 0.929 . S
C1626 H1620 0.930 . S
C1626 C1627 1.367 . S
C1626 C1634 1.378 . S
C1627 C1626 1.367 . S
C1627 C1635 1.433 . S
C1628 H1624 0.929 . S
C1628 C1630 1.378 . S
C1628 C1632 1.350 . S
C1629 C1632 1.463 . S
C1629 C1634 1.350 . S
C1629 N1637 1.427 . S
C1630 H1621 0.930 . S
C1630 C1628 1.378 . S
C1630 C1631 1.367 . S
C1631 C1630 1.367 . S
C1631 C1633 1.433 . S
C1632 C1628 1.350 . S
C1632 C1629 1.463 . S
C1632 N1636 1.427 . S
C1633 H1623 0.929 . S
C1633 C1631 1.433 . S
C1633 N1636 1.384 . S
C1634 H1625 0.929 . S
C1634 C1626 1.378 . S
C1634 C1629 1.350 . S
C1635 H1622 0.929 . S
C1635 C1627 1.433 . S
C1635 N1637 1.384 . S
N1636 C1632 1.427 . S
N1636 C1633 1.384 . S
N1637 C1629 1.427 . S
N1637 C1635 1.384 . S
H1638 C1644 0.930 . S
H1639 C1648 0.930 . S
H1640 C1653 0.929 . S
H1641 C1651 0.929 . S
H1642 C1646 0.929 . S
H1643 C1652 0.929 . S
C1644 H1638 0.930 . S
C1644 C1645 1.367 . S
C1644 C1652 1.378 . S
C1645 C1644 1.367 . S
C1645 C1653 1.433 . S
C1646 H1642 0.929 . S
C1646 C1648 1.378 . S
C1646 C1650 1.350 . S
C1647 C1650 1.463 . S
C1647 C1652 1.350 . S
C1647 N1655 1.427 . S
C1648 H1639 0.930 . S
C1648 C1646 1.378 . S
C1648 C1649 1.367 . S
C1649 C1648 1.367 . S
C1649 C1651 1.433 . S
C1650 C1646 1.350 . S
C1650 C1647 1.463 . S
C1650 N1654 1.427 . S
C1651 H1641 0.929 . S
C1651 C1649 1.433 . S
C1651 N1654 1.384 . S
C1652 H1643 0.929 . S
C1652 C1644 1.378 . S
C1652 C1647 1.350 . S
C1653 H1640 0.929 . S
C1653 C1645 1.433 . S
C1653 N1655 1.384 . S
N1654 C1650 1.427 . S
N1654 C1651 1.384 . S
N1655 C1647 1.427 . S
N1655 C1653 1.384 . S
H1656 C1662 0.928 . S
H1657 C1666 0.930 . S
H1658 C1671 0.929 . S
H1659 C1669 0.929 . S
H1660 C1664 0.929 . S
H1661 C1670 0.929 . S
C1662 H1656 0.928 . S
C1662 C1663 1.372 1_565 S
C1662 C1670 1.374 . S
C1663 C1662 1.372 1_545 S
C1663 C1671 1.433 . S
C1664 H1660 0.929 . S
C1664 C1666 1.378 . S
C1664 C1668 1.350 . S
C1665 C1668 1.463 . S
C1665 C1670 1.350 1_545 S
C1665 N1673 1.427 . S
C1666 H1657 0.930 . S
C1666 C1664 1.378 . S
C1666 C1667 1.367 . S
C1667 C1666 1.367 . S
C1667 C1669 1.433 1_545 S
C1668 C1664 1.350 . S
C1668 C1665 1.463 . S
C1668 N1672 1.427 1_545 S
C1669 H1659 0.929 . S
C1669 C1667 1.433 1_565 S
C1669 N1672 1.384 . S
C1670 H1661 0.929 . S
C1670 C1662 1.374 . S
C1670 C1665 1.350 1_565 S
C1671 H1658 0.929 . S
C1671 C1663 1.433 . S
C1671 N1673 1.384 . S
N1672 C1668 1.427 1_565 S
N1672 C1669 1.384 . S
N1673 C1665 1.427 . S
N1673 C1671 1.384 . S
H1674 C1680 0.930 1_455 S
H1675 C1684 0.930 . S
H1676 C1689 0.929 . S
H1677 C1687 0.929 . S
H1678 C1682 0.929 . S
H1679 C1688 0.914 1_455 S
C1680 H1674 0.930 1_655 S
C1680 C1681 1.367 . S
C1680 C1688 1.359 . S
C1681 C1680 1.367 . S
C1681 C1689 1.433 . S
C1682 H1678 0.929 . S
C1682 C1684 1.378 . S
C1682 C1686 1.350 . S
C1683 C1686 1.463 . S
C1683 C1688 1.386 . S
C1683 N1691 1.427 . S
C1684 H1675 0.930 . S
C1684 C1682 1.378 . S
C1684 C1685 1.367 . S
C1685 C1684 1.367 . S
C1685 C1687 1.433 1_655 S
C1686 C1682 1.350 . S
C1686 C1683 1.463 . S
C1686 N1690 1.427 1_655 S
C1687 H1677 0.929 . S
C1687 C1685 1.433 1_455 S
C1687 N1690 1.384 . S
C1688 H1679 0.914 1_655 S
C1688 C1680 1.359 . S
C1688 C1683 1.386 . S
C1689 H1676 0.929 . S
C1689 C1681 1.433 . S
C1689 N1691 1.384 . S
N1690 C1686 1.427 1_455 S
N1690 C1687 1.384 . S
N1691 C1683 1.427 . S
N1691 C1689 1.384 . S
H1692 C1698 0.930 . S
H1693 C1702 0.930 . S
H1694 C1707 0.929 . S
H1695 C1705 0.929 . S
H1696 C1700 0.929 . S
H1697 C1706 0.929 . S
C1698 H1692 0.930 . S
C1698 C1699 1.367 . S
C1698 C1706 1.378 . S
C1699 C1698 1.367 . S
C1699 C1707 1.433 . S
C1700 H1696 0.929 . S
C1700 C1702 1.378 . S
C1700 C1704 1.350 . S
C1701 C1704 1.463 . S
C1701 C1706 1.350 . S
C1701 N1709 1.427 . S
C1702 H1693 0.930 . S
C1702 C1700 1.378 . S
C1702 C1703 1.367 . S
C1703 C1702 1.367 . S
C1703 C1705 1.433 . S
C1704 C1700 1.350 . S
C1704 C1701 1.463 . S
C1704 N1708 1.427 . S
C1705 H1695 0.929 . S
C1705 C1703 1.433 . S
C1705 N1708 1.384 . S
C1706 H1697 0.929 . S
C1706 C1698 1.378 . S
C1706 C1701 1.350 . S
C1707 H1694 0.929 . S
C1707 C1699 1.433 . S
C1707 N1709 1.384 . S
N1708 C1704 1.427 . S
N1708 C1705 1.384 . S
N1709 C1701 1.427 . S
N1709 C1707 1.384 . S
H1710 C1716 0.930 . S
H1711 C1720 0.930 . S
H1712 C1725 0.929 . S
H1713 C1723 0.929 . S
H1714 C1718 0.929 . S
H1715 C1724 0.929 . S
C1716 H1710 0.930 . S
C1716 C1717 1.367 . S
C1716 C1724 1.378 . S
C1717 C1716 1.367 . S
C1717 C1725 1.433 . S
C1718 H1714 0.929 . S
C1718 C1720 1.378 . S
C1718 C1722 1.350 . S
C1719 C1722 1.463 . S
C1719 C1724 1.350 . S
C1719 N1727 1.427 . S
C1720 H1711 0.930 . S
C1720 C1718 1.378 . S
C1720 C1721 1.367 . S
C1721 C1720 1.367 . S
C1721 C1723 1.433 . S
C1722 C1718 1.350 . S
C1722 C1719 1.463 . S
C1722 N1726 1.427 . S
C1723 H1713 0.929 . S
C1723 C1721 1.433 . S
C1723 N1726 1.384 . S
C1724 H1715 0.929 . S
C1724 C1716 1.378 . S
C1724 C1719 1.350 . S
C1725 H1712 0.929 . S
C1725 C1717 1.433 . S
C1725 N1727 1.384 . S
N1726 C1722 1.427 . S
N1726 C1723 1.384 . S
N1727 C1719 1.427 . S
N1727 C1725 1.384 . S
H1728 C1734 0.930 . S
H1729 C1738 0.930 . S
H1730 C1743 0.929 . S
H1731 C1741 0.929 . S
H1732 C1736 0.929 . S
H1733 C1742 0.929 . S
C1734 H1728 0.930 . S
C1734 C1735 1.367 . S
C1734 C1742 1.378 . S
C1735 C1734 1.367 . S
C1735 C1743 1.433 . S
C1736 H1732 0.929 . S
C1736 C1738 1.378 . S
C1736 C1740 1.350 . S
C1737 C1740 1.463 . S
C1737 C1742 1.350 . S
C1737 N1745 1.427 . S
C1738 H1729 0.930 . S
C1738 C1736 1.378 . S
C1738 C1739 1.367 . S
C1739 C1738 1.367 . S
C1739 C1741 1.433 . S
C1740 C1736 1.350 . S
C1740 C1737 1.463 . S
C1740 N1744 1.427 . S
C1741 H1731 0.929 . S
C1741 C1739 1.433 . S
C1741 N1744 1.384 . S
C1742 H1733 0.929 . S
C1742 C1734 1.378 . S
C1742 C1737 1.350 . S
C1743 H1730 0.929 . S
C1743 C1735 1.433 . S
C1743 N1745 1.384 . S
N1744 C1740 1.427 . S
N1744 C1741 1.384 . S
N1745 C1737 1.427 . S
N1745 C1743 1.384 . S
H1746 C1752 0.930 . S
H1747 C1756 0.930 . S
H1748 C1761 0.929 . S
H1749 C1759 0.929 . S
H1750 C1754 0.929 . S
H1751 C1760 0.929 . S
C1752 H1746 0.930 . S
C1752 C1753 1.367 . S
C1752 C1760 1.378 . S
C1753 C1752 1.367 . S
C1753 C1761 1.433 . S
C1754 H1750 0.929 . S
C1754 C1756 1.378 . S
C1754 C1758 1.350 . S
C1755 C1758 1.463 . S
C1755 C1760 1.350 . S
C1755 N1763 1.427 . S
C1756 H1747 0.930 . S
C1756 C1754 1.378 . S
C1756 C1757 1.367 . S
C1757 C1756 1.367 . S
C1757 C1759 1.433 . S
C1758 C1754 1.350 . S
C1758 C1755 1.463 . S
C1758 N1762 1.427 . S
C1759 H1749 0.929 . S
C1759 C1757 1.433 . S
C1759 N1762 1.384 . S
C1760 H1751 0.929 . S
C1760 C1752 1.378 . S
C1760 C1755 1.350 . S
C1761 H1748 0.929 . S
C1761 C1753 1.433 . S
C1761 N1763 1.384 . S
N1762 C1758 1.427 . S
N1762 C1759 1.384 . S
N1763 C1755 1.427 . S
N1763 C1761 1.384 . S
H1764 C1770 0.930 . S
H1765 C1774 0.930 . S
H1766 C1779 0.929 . S
H1767 C1777 0.929 . S
H1768 C1772 0.929 . S
H1769 C1778 0.929 . S
C1770 H1764 0.930 . S
C1770 C1771 1.367 . S
C1770 C1778 1.378 . S
C1771 C1770 1.367 . S
C1771 C1779 1.433 . S
C1772 H1768 0.929 . S
C1772 C1774 1.378 . S
C1772 C1776 1.350 . S
C1773 C1776 1.463 . S
C1773 C1778 1.350 . S
C1773 N1781 1.427 . S
C1774 H1765 0.930 . S
C1774 C1772 1.378 . S
C1774 C1775 1.367 . S
C1775 C1774 1.367 . S
C1775 C1777 1.433 . S
C1776 C1772 1.350 . S
C1776 C1773 1.463 . S
C1776 N1780 1.427 . S
C1777 H1767 0.929 . S
C1777 C1775 1.433 . S
C1777 N1780 1.384 . S
C1778 H1769 0.929 . S
C1778 C1770 1.378 . S
C1778 C1773 1.350 . S
C1779 H1766 0.929 . S
C1779 C1771 1.433 . S
C1779 N1781 1.384 . S
N1780 C1776 1.427 . S
N1780 C1777 1.384 . S
N1781 C1773 1.427 . S
N1781 C1779 1.384 . S
H1782 C1788 0.930 . S
H1783 C1792 0.930 . S
H1784 C1797 0.929 . S
H1785 C1795 0.929 . S
H1786 C1790 0.929 . S
H1787 C1796 0.929 . S
C1788 H1782 0.930 . S
C1788 C1789 1.367 . S
C1788 C1796 1.378 . S
C1789 C1788 1.367 . S
C1789 C1797 1.433 . S
C1790 H1786 0.929 . S
C1790 C1792 1.378 . S
C1790 C1794 1.350 . S
C1791 C1794 1.463 . S
C1791 C1796 1.350 . S
C1791 N1799 1.427 . S
C1792 H1783 0.930 . S
C1792 C1790 1.378 . S
C1792 C1793 1.367 . S
C1793 C1792 1.367 . S
C1793 C1795 1.433 . S
C1794 C1790 1.350 . S
C1794 C1791 1.463 . S
C1794 N1798 1.427 . S
C1795 H1785 0.929 . S
C1795 C1793 1.433 . S
C1795 N1798 1.384 . S
C1796 H1787 0.929 . S
C1796 C1788 1.378 . S
C1796 C1791 1.350 . S
C1797 H1784 0.929 . S
C1797 C1789 1.433 . S
C1797 N1799 1.384 . S
N1798 C1794 1.427 . S
N1798 C1795 1.384 . S
N1799 C1791 1.427 . S
N1799 C1797 1.384 . S
H1800 C1806 0.930 . S
H1801 C1810 0.930 . S
H1802 C1815 0.929 . S
H1803 C1813 0.929 . S
H1804 C1808 0.929 . S
H1805 C1814 0.929 . S
C1806 H1800 0.930 . S
C1806 C1807 1.367 . S
C1806 C1814 1.378 . S
C1807 C1806 1.367 . S
C1807 C1815 1.433 . S
C1808 H1804 0.929 . S
C1808 C1810 1.378 . S
C1808 C1812 1.350 . S
C1809 C1812 1.463 . S
C1809 C1814 1.350 . S
C1809 N1817 1.427 . S
C1810 H1801 0.930 . S
C1810 C1808 1.378 . S
C1810 C1811 1.367 . S
C1811 C1810 1.367 . S
C1811 C1813 1.433 . S
C1812 C1808 1.350 . S
C1812 C1809 1.463 . S
C1812 N1816 1.427 . S
C1813 H1803 0.929 . S
C1813 C1811 1.433 . S
C1813 N1816 1.384 . S
C1814 H1805 0.929 . S
C1814 C1806 1.378 . S
C1814 C1809 1.350 . S
C1815 H1802 0.929 . S
C1815 C1807 1.433 . S
C1815 N1817 1.384 . S
N1816 C1812 1.427 . S
N1816 C1813 1.384 . S
N1817 C1809 1.427 . S
N1817 C1815 1.384 . S
H1818 C1824 0.930 . S
H1819 C1828 0.930 . S
H1820 C1833 0.940 . S
H1821 C1831 0.929 . S
H1822 C1826 0.929 . S
H1823 C1832 0.929 . S
C1824 H1818 0.930 . S
C1824 C1825 1.367 . S
C1824 C1832 1.378 . S
C1825 C1824 1.367 . S
C1825 C1833 1.433 . S
C1826 H1822 0.929 . S
C1826 C1828 1.378 . S
C1826 C1830 1.350 1_455 S
C1827 C1830 1.463 . S
C1827 C1832 1.350 . S
C1827 N1835 1.427 . S
C1828 H1819 0.930 . S
C1828 C1826 1.378 . S
C1828 C1829 1.367 1_455 S
C1829 C1828 1.367 1_655 S
C1829 C1831 1.433 . S
C1830 C1826 1.350 1_655 S
C1830 C1827 1.463 . S
C1830 N1834 1.427 . S
C1831 H1821 0.929 . S
C1831 C1829 1.433 . S
C1831 N1834 1.384 . S
C1832 H1823 0.929 . S
C1832 C1824 1.378 . S
C1832 C1827 1.350 . S
C1833 H1820 0.940 . S
C1833 C1825 1.433 . S
C1833 N1835 1.384 . S
N1834 C1830 1.427 . S
N1834 C1831 1.384 . S
N1835 C1827 1.427 . S
N1835 C1833 1.384 . S
H1836 C1842 0.930 . S
H1837 C1846 0.930 . S
H1838 C1851 0.929 . S
H1839 C1849 0.929 . S
H1840 C1844 0.929 . S
H1841 C1850 0.929 . S
C1842 H1836 0.930 . S
C1842 C1843 1.367 . S
C1842 C1850 1.378 . S
C1843 C1842 1.367 . S
C1843 C1851 1.433 . S
C1844 H1840 0.929 . S
C1844 C1846 1.378 . S
C1844 C1848 1.350 . S
C1845 C1848 1.463 . S
C1845 C1850 1.350 . S
C1845 N1853 1.427 . S
C1846 H1837 0.930 . S
C1846 C1844 1.378 . S
C1846 C1847 1.367 . S
C1847 C1846 1.367 . S
C1847 C1849 1.433 . S
C1848 C1844 1.350 . S
C1848 C1845 1.463 . S
C1848 N1852 1.427 . S
C1849 H1839 0.929 . S
C1849 C1847 1.433 . S
C1849 N1852 1.384 . S
C1850 H1841 0.929 . S
C1850 C1842 1.378 . S
C1850 C1845 1.350 . S
C1851 H1838 0.929 . S
C1851 C1843 1.433 . S
C1851 N1853 1.384 . S
N1852 C1848 1.427 . S
N1852 C1849 1.384 . S
N1853 C1845 1.427 . S
N1853 C1851 1.384 . S
H1854 C1860 0.930 . S
H1855 C1864 0.930 . S
H1856 C1869 0.906 1_565 S
H1857 C1867 0.929 . S
H1858 C1862 0.929 . S
H1859 C1868 0.929 . S
C1860 H1854 0.930 . S
C1860 C1861 1.367 . S
C1860 C1868 1.378 . S
C1861 C1860 1.367 . S
C1861 C1869 1.444 . S
C1862 H1858 0.929 . S
C1862 C1864 1.378 . S
C1862 C1866 1.350 1_565 S
C1863 C1866 1.463 . S
C1863 C1868 1.350 . S
C1863 N1871 1.427 1_545 S
C1864 H1855 0.930 . S
C1864 C1862 1.378 . S
C1864 C1865 1.362 . S
C1865 C1864 1.362 . S
C1865 C1867 1.435 1_565 S
C1866 C1862 1.350 1_545 S
C1866 C1863 1.463 . S
C1866 N1870 1.427 . S
C1867 H1857 0.929 . S
C1867 C1865 1.435 1_545 S
C1867 N1870 1.384 . S
C1868 H1859 0.929 . S
C1868 C1860 1.378 . S
C1868 C1863 1.350 . S
C1869 H1856 0.906 1_545 S
C1869 C1861 1.444 . S
C1869 N1871 1.398 1_545 S
N1870 C1866 1.427 . S
N1870 C1867 1.384 . S
N1871 C1863 1.427 1_565 S
N1871 C1869 1.398 1_565 S
C583 C13 1.493 . S
C587 C421 1.553 . S
C601 C27 1.399 . S
C605 C446 1.460 . S
C623 C457 1.543 . S
C619 C36 1.474 . S
C637 C41 1.457 . S
C641 C482 1.534 . S
C655 C8 1.547 . S
C659 C500 1.634 . S
C673 C22 1.453 . S
C677 C511 1.530 . S
C691 C55 1.485 . S
C695 C493 1.556 . S
C713 C518 1.455 . S
C709 C69 1.396 . S
C731 C475 1.525 . S
C727 C78 1.458 . S
C745 C83 1.472 . S
C749 C464 1.531 1_545 S
C767 C428 1.626 1_655 S
C763 C50 1.542 . S
C781 C64 1.452 . S
C785 C439 1.529 . S
C799 C97 1.518 . S
C803 C529 1.593 . S
C817 C111 1.411 . S
C821 C554 1.481 . S
C839 C565 1.569 . S
C835 C120 1.521 . S
C853 C125 1.477 . S
C857 C266 1.560 . S
C871 C92 1.620 . S
C875 C284 1.682 . S
C889 C106 1.480 . S
C893 C295 1.552 . S
C907 C139 1.493 . S
C911 C277 1.563 . S
C925 C153 1.408 . S
C929 C302 1.463 . S
C947 C259 1.572 . S
C943 C162 1.496 . S
C965 C572 1.567 . S
C961 C167 1.493 . S
C983 C536 1.652 . S
C979 C134 1.580 . S
C1001 C547 1.550 . S
C997 C148 1.481 . S
C1015 C181 1.496 . S
C1019 C313 1.570 . S
C1033 C195 1.395 . S
C1037 C338 1.465 . S
C1051 C204 1.523 . S
C1055 C349 1.582 . S
C1069 C209 1.498 . S
C1073 C374 1.579 . S
C1091 C392 1.685 . S
C1087 C176 1.626 . S
C1109 C403 1.554 . S
C1105 C190 1.502 . S
C1127 C385 1.579 . S
C1123 C223 1.497 . S
C1145 C410 1.478 . S
C1141 C237 1.416 . S
C1159 C246 1.484 . S
C1163 C367 1.558 . S
C1181 C356 1.533 . S
C1177 C251 1.456 . S
C1195 C218 1.586 . S
C1199 C320 1.654 . S
C1217 C331 1.551 . S
C1213 C232 1.479 . S
C1235 C268 1.326 . S
C1231 C11 1.387 . S
C1249 C25 1.282 . S
C1253 C286 1.229 . S
C1271 C296 1.317 . S
C1267 C35 1.369 . S
C1289 C314 1.300 . S
C1285 C39 1.368 . S
C1307 C340 1.398 . S
C1303 C7 1.465 . S
C1325 C350 1.275 . S
C1321 C21 1.352 . S
C1339 C53 1.420 . S
C1343 C358 1.357 . S
C1357 C67 1.314 . S
C1361 C322 1.238 . S
C1375 C77 1.383 1_556 S
C1379 C332 1.301 . S
C1393 C81 1.421 . S
C1397 C278 1.346 . S
C1415 C304 1.398 . S
C1411 C49 1.486 . S
C1429 C63 1.386 . S
C1433 C260 1.319 . S
C1451 C376 1.315 . S
C1447 C95 1.375 . S
C1465 C109 1.316 . S
C1469 C394 1.274 . S
C1483 C119 1.414 . S
C1487 C404 1.345 . S
C1505 C422 1.261 . S
C1501 C123 1.312 . S
C1519 C91 1.455 . S
C1523 C448 1.387 . S
C1537 C105 1.312 . S
C1541 C458 1.264 . S
C1555 C137 1.362 . S
C1559 C466 1.291 . S
C1573 C151 1.244 . S
C1577 C430 1.191 . S
C1595 C440 1.336 . S
C1591 C161 1.395 . S
C1609 C165 1.411 . S
C1613 C386 1.328 . S
C1627 C133 1.509 . S
C1631 C412 1.414 . S
C1649 C368 1.361 . S
C1645 C147 1.433 . S
C1667 C484 1.288 . S
C1663 C179 1.353 . S
C1681 C193 1.230 . S
C1685 C502 1.188 . S
C1699 C203 1.370 . S
C1703 C512 1.304 . S
C1721 C530 1.301 . S
C1717 C207 1.361 . S
C1739 C556 1.416 . S
C1735 C175 1.487 . S
C1753 C189 1.404 . S
C1757 C566 1.331 . S
C1771 C221 1.410 . S
C1775 C574 1.333 . S
C1789 C235 1.350 . S
C1793 C538 1.282 . S
C1811 C548 1.352 . S
C1807 C245 1.435 . S
C1829 C494 1.255 1_655 S
C1825 C249 1.318 . S
C1847 C520 1.395 . S
C1843 C217 1.481 . S
C1861 C231 1.340 . S
C1865 C476 1.290 . S
