# Generated by pormake.
# Topology ptr, (4,4)-cn, num edge types: 1
# Building blocks:
#     Node 0, Type 0, BuildingBlock: QUQFOY_clean_sbu_1, # of connection points: 4
#     Node 1, Type 0, BuildingBlock: QUQFOY_clean_sbu_1, # of connection points: 4
#     Node 2, Type 0, BuildingBlock: QUQFOY_clean_sbu_1, # of connection points: 4
#     Node 3, Type 0, BuildingBlock: QUQFOY_clean_sbu_1, # of connection points: 4
#     Node 4, Type 0, BuildingBlock: QUQFOY_clean_sbu_1, # of connection points: 4
#     Node 5, Type 0, BuildingBlock: QUQFOY_clean_sbu_1, # of connection points: 4
#     Node 6, Type 0, BuildingBlock: QUQFOY_clean_sbu_1, # of connection points: 4
#     Node 7, Type 0, BuildingBlock: QUQFOY_clean_sbu_1, # of connection points: 4
#     Node 8, Type 0, BuildingBlock: QUQFOY_clean_sbu_1, # of connection points: 4
#     Node 9, Type 0, BuildingBlock: QUQFOY_clean_sbu_1, # of connection points: 4
#     Node 10, Type 0, BuildingBlock: QUQFOY_clean_sbu_1, # of connection points: 4
#     Node 11, Type 0, BuildingBlock: QUQFOY_clean_sbu_1, # of connection points: 4
#     Node 12, Type 0, BuildingBlock: QUQFOY_clean_sbu_1, # of connection points: 4
#     Node 13, Type 0, BuildingBlock: QUQFOY_clean_sbu_1, # of connection points: 4
#     Node 14, Type 0, BuildingBlock: QUQFOY_clean_sbu_1, # of connection points: 4
#     Node 15, Type 0, BuildingBlock: QUQFOY_clean_sbu_1, # of connection points: 4
#     Node 16, Type 0, BuildingBlock: QUQFOY_clean_sbu_1, # of connection points: 4
#     Node 17, Type 0, BuildingBlock: QUQFOY_clean_sbu_1, # of connection points: 4
#     Node 18, Type 1, BuildingBlock: GIZVER_clean_linker_0, # of connection points: 4
#     Node 19, Type 1, BuildingBlock: GIZVER_clean_linker_0, # of connection points: 4
#     Node 20, Type 1, BuildingBlock: GIZVER_clean_linker_0, # of connection points: 4
#     Node 21, Type 1, BuildingBlock: GIZVER_clean_linker_0, # of connection points: 4
#     Node 22, Type 1, BuildingBlock: GIZVER_clean_linker_0, # of connection points: 4
#     Node 23, Type 1, BuildingBlock: GIZVER_clean_linker_0, # of connection points: 4
#     Node 24, Type 1, BuildingBlock: GIZVER_clean_linker_0, # of connection points: 4
#     Node 25, Type 1, BuildingBlock: GIZVER_clean_linker_0, # of connection points: 4
#     Node 26, Type 1, BuildingBlock: GIZVER_clean_linker_0, # of connection points: 4
#     Node 27, Type 1, BuildingBlock: GIZVER_clean_linker_0, # of connection points: 4
#     Node 28, Type 1, BuildingBlock: GIZVER_clean_linker_0, # of connection points: 4
#     Node 29, Type 1, BuildingBlock: GIZVER_clean_linker_0, # of connection points: 4
#     Node 30, Type 1, BuildingBlock: GIZVER_clean_linker_0, # of connection points: 4
#     Node 31, Type 1, BuildingBlock: GIZVER_clean_linker_0, # of connection points: 4
#     Node 32, Type 1, BuildingBlock: GIZVER_clean_linker_0, # of connection points: 4
#     Node 33, Type 1, BuildingBlock: GIZVER_clean_linker_0, # of connection points: 4
#     Node 34, Type 1, BuildingBlock: GIZVER_clean_linker_0, # of connection points: 4
#     Node 35, Type 1, BuildingBlock: GIZVER_clean_linker_0, # of connection points: 4
#     Edge 36, Type (0, 1), BuildingBlock: UVAHIK_clean_linker_0, # of connection points: 2
#     Edge 37, Type (0, 1), BuildingBlock: UVAHIK_clean_linker_0, # of connection points: 2
#     Edge 38, Type (0, 1), BuildingBlock: UVAHIK_clean_linker_0, # of connection points: 2
#     Edge 39, Type (0, 1), BuildingBlock: UVAHIK_clean_linker_0, # of connection points: 2
#     Edge 40, Type (0, 1), BuildingBlock: UVAHIK_clean_linker_0, # of connection points: 2
#     Edge 41, Type (0, 1), BuildingBlock: UVAHIK_clean_linker_0, # of connection points: 2
#     Edge 42, Type (0, 1), BuildingBlock: UVAHIK_clean_linker_0, # of connection points: 2
#     Edge 43, Type (0, 1), BuildingBlock: UVAHIK_clean_linker_0, # of connection points: 2
#     Edge 44, Type (0, 1), BuildingBlock: UVAHIK_clean_linker_0, # of connection points: 2
#     Edge 45, Type (0, 1), BuildingBlock: UVAHIK_clean_linker_0, # of connection points: 2
#     Edge 46, Type (0, 1), BuildingBlock: UVAHIK_clean_linker_0, # of connection points: 2
#     Edge 47, Type (0, 1), BuildingBlock: UVAHIK_clean_linker_0, # of connection points: 2
#     Edge 48, Type (0, 1), BuildingBlock: UVAHIK_clean_linker_0, # of connection points: 2
#     Edge 49, Type (0, 1), BuildingBlock: UVAHIK_clean_linker_0, # of connection points: 2
#     Edge 50, Type (0, 1), BuildingBlock: UVAHIK_clean_linker_0, # of connection points: 2
#     Edge 51, Type (0, 1), BuildingBlock: UVAHIK_clean_linker_0, # of connection points: 2
#     Edge 52, Type (0, 1), BuildingBlock: UVAHIK_clean_linker_0, # of connection points: 2
#     Edge 53, Type (0, 1), BuildingBlock: UVAHIK_clean_linker_0, # of connection points: 2
#     Edge 54, Type (0, 1), BuildingBlock: UVAHIK_clean_linker_0, # of connection points: 2
#     Edge 55, Type (0, 1), BuildingBlock: UVAHIK_clean_linker_0, # of connection points: 2
#     Edge 56, Type (0, 1), BuildingBlock: UVAHIK_clean_linker_0, # of connection points: 2
#     Edge 57, Type (0, 1), BuildingBlock: UVAHIK_clean_linker_0, # of connection points: 2
#     Edge 58, Type (0, 1), BuildingBlock: UVAHIK_clean_linker_0, # of connection points: 2
#     Edge 59, Type (0, 1), BuildingBlock: UVAHIK_clean_linker_0, # of connection points: 2
#     Edge 60, Type (0, 1), BuildingBlock: UVAHIK_clean_linker_0, # of connection points: 2
#     Edge 61, Type (0, 1), BuildingBlock: UVAHIK_clean_linker_0, # of connection points: 2
#     Edge 62, Type (0, 1), BuildingBlock: UVAHIK_clean_linker_0, # of connection points: 2
#     Edge 63, Type (0, 1), BuildingBlock: UVAHIK_clean_linker_0, # of connection points: 2
#     Edge 64, Type (0, 1), BuildingBlock: UVAHIK_clean_linker_0, # of connection points: 2
#     Edge 65, Type (0, 1), BuildingBlock: UVAHIK_clean_linker_0, # of connection points: 2
#     Edge 66, Type (0, 1), BuildingBlock: UVAHIK_clean_linker_0, # of connection points: 2
#     Edge 67, Type (0, 1), BuildingBlock: UVAHIK_clean_linker_0, # of connection points: 2
#     Edge 68, Type (0, 1), BuildingBlock: UVAHIK_clean_linker_0, # of connection points: 2
#     Edge 69, Type (0, 1), BuildingBlock: UVAHIK_clean_linker_0, # of connection points: 2
#     Edge 70, Type (0, 1), BuildingBlock: UVAHIK_clean_linker_0, # of connection points: 2
#     Edge 71, Type (0, 1), BuildingBlock: UVAHIK_clean_linker_0, # of connection points: 2
#     Edge 72, Type (0, 1), BuildingBlock: UVAHIK_clean_linker_0, # of connection points: 2
#     Edge 73, Type (0, 1), BuildingBlock: UVAHIK_clean_linker_0, # of connection points: 2
#     Edge 74, Type (0, 1), BuildingBlock: UVAHIK_clean_linker_0, # of connection points: 2
#     Edge 75, Type (0, 1), BuildingBlock: UVAHIK_clean_linker_0, # of connection points: 2
#     Edge 76, Type (0, 1), BuildingBlock: UVAHIK_clean_linker_0, # of connection points: 2
#     Edge 77, Type (0, 1), BuildingBlock: UVAHIK_clean_linker_0, # of connection points: 2
#     Edge 78, Type (0, 1), BuildingBlock: UVAHIK_clean_linker_0, # of connection points: 2
#     Edge 79, Type (0, 1), BuildingBlock: UVAHIK_clean_linker_0, # of connection points: 2
#     Edge 80, Type (0, 1), BuildingBlock: UVAHIK_clean_linker_0, # of connection points: 2
#     Edge 81, Type (0, 1), BuildingBlock: UVAHIK_clean_linker_0, # of connection points: 2
#     Edge 82, Type (0, 1), BuildingBlock: UVAHIK_clean_linker_0, # of connection points: 2
#     Edge 83, Type (0, 1), BuildingBlock: UVAHIK_clean_linker_0, # of connection points: 2
#     Edge 84, Type (0, 1), BuildingBlock: UVAHIK_clean_linker_0, # of connection points: 2
#     Edge 85, Type (0, 1), BuildingBlock: UVAHIK_clean_linker_0, # of connection points: 2
#     Edge 86, Type (0, 1), BuildingBlock: UVAHIK_clean_linker_0, # of connection points: 2
#     Edge 87, Type (0, 1), BuildingBlock: UVAHIK_clean_linker_0, # of connection points: 2
#     Edge 88, Type (0, 1), BuildingBlock: UVAHIK_clean_linker_0, # of connection points: 2
#     Edge 89, Type (0, 1), BuildingBlock: UVAHIK_clean_linker_0, # of connection points: 2
#     Edge 90, Type (0, 1), BuildingBlock: UVAHIK_clean_linker_0, # of connection points: 2
#     Edge 91, Type (0, 1), BuildingBlock: UVAHIK_clean_linker_0, # of connection points: 2
#     Edge 92, Type (0, 1), BuildingBlock: UVAHIK_clean_linker_0, # of connection points: 2
#     Edge 93, Type (0, 1), BuildingBlock: UVAHIK_clean_linker_0, # of connection points: 2
#     Edge 94, Type (0, 1), BuildingBlock: UVAHIK_clean_linker_0, # of connection points: 2
#     Edge 95, Type (0, 1), BuildingBlock: UVAHIK_clean_linker_0, # of connection points: 2
#     Edge 96, Type (0, 1), BuildingBlock: UVAHIK_clean_linker_0, # of connection points: 2
#     Edge 97, Type (0, 1), BuildingBlock: UVAHIK_clean_linker_0, # of connection points: 2
#     Edge 98, Type (0, 1), BuildingBlock: UVAHIK_clean_linker_0, # of connection points: 2
#     Edge 99, Type (0, 1), BuildingBlock: UVAHIK_clean_linker_0, # of connection points: 2
#     Edge 100, Type (0, 1), BuildingBlock: UVAHIK_clean_linker_0, # of connection points: 2
#     Edge 101, Type (0, 1), BuildingBlock: UVAHIK_clean_linker_0, # of connection points: 2
#     Edge 102, Type (0, 1), BuildingBlock: UVAHIK_clean_linker_0, # of connection points: 2
#     Edge 103, Type (0, 1), BuildingBlock: UVAHIK_clean_linker_0, # of connection points: 2
#     Edge 104, Type (0, 1), BuildingBlock: UVAHIK_clean_linker_0, # of connection points: 2
#     Edge 105, Type (0, 1), BuildingBlock: UVAHIK_clean_linker_0, # of connection points: 2
#     Edge 106, Type (0, 1), BuildingBlock: UVAHIK_clean_linker_0, # of connection points: 2
#     Edge 107, Type (0, 1), BuildingBlock: UVAHIK_clean_linker_0, # of connection points: 2
# Relax obj value: 0.021
# Max RMSD: 0.063
# Mean RMSD: 0.054
data_MOF--net-ptr--node1-QUQFOY_clean_sbu_1--node2-GIZVER_clean_linker_0--edge1-UVAHIK_clean_linker_0
_symmetry_space_group_name_H-M    P1
_symmetry_Int_Tables_number       1
_symmetry_cell_setting            triclinic
loop_
_symmetry_equiv_pos_as_xyz
'x, y, z'
_cell_length_a     103.94661
_cell_length_b     103.91647
_cell_length_c     64.206992
_cell_angle_alpha  90.211959
_cell_angle_beta   90.221875
_cell_angle_gamma 120.00606
loop_
_atom_site_label
_atom_site_type_symbol
_atom_site_fract_x
_atom_site_fract_y
_atom_site_fract_z
_atom_type_partial_charge
O0 O 0.0242 0.39669 0.03329 0.0
Cd1 Cd 0.0282 0.38789 0.00689 0.0
Cd2 Cd 0.99757 0.37268 0.0052 0.0
O3 O 0.9997 0.38375 0.03297 0.0
O4 O 0.0497 0.39415 0.00918 0.0
O5 O 0.03197 0.37061 0.00874 0.0
C6 C 0.04595 0.38033 0.01005 0.0
C7 C 0.98018 0.34721 0.00312 0.0
C8 C 0.01181 0.39353 0.04133 0.0
C9 C 0.01414 0.39414 0.97035 0.0
O10 O 1.00167 0.38502 0.97828 0.0
O11 O 0.02617 0.3965 0.97897 0.0
O12 O 0.97616 0.35711 0.00308 0.0
O13 O 0.99422 0.35177 0.00453 0.0
O14 O 0.6207 0.62876 0.03948 0.0
Cd15 Cd 0.62892 0.64043 0.01209 0.0
Cd16 Cd 0.64404 0.6251 0.01185 0.0
O17 O 0.63394 0.61752 0.0403 0.0
O18 O 0.62337 0.65623 0.01325 0.0
O19 O 0.64666 0.66122 0.0123 0.0
C20 C 0.63732 0.66597 0.0133 0.0
C21 C 0.66939 0.63309 0.00836 0.0
C22 C 0.62423 0.62002 0.04833 0.0
C23 C 0.62166 0.61845 0.97738 0.0
O24 O 0.6307 0.61524 0.98608 0.0
O25 O 0.61979 0.62878 0.98469 0.0
O26 O 0.65961 0.61925 0.01048 0.0
O27 O 0.66481 0.64258 0.00854 0.0
O28 O 0.3987 0.01768 0.98332 0.0
Cd29 Cd 0.38958 0.02133 0.00976 0.0
Cd30 Cd 0.37426 0.99112 0.01031 0.0
O31 O 0.38517 0.99321 0.98267 0.0
O32 O 0.39591 0.04288 0.00924 0.0
O33 O 0.37238 0.02515 0.00713 0.0
C34 C 0.38213 0.03916 0.00746 0.0
C35 C 0.34852 0.97533 0.01226 0.0
C36 C 0.39525 1.00528 0.97483 0.0
C37 C 0.39539 1.00653 0.04584 0.0
O38 O 0.38659 0.99421 0.03703 0.0
O39 O 0.39754 0.01866 0.03801 0.0
O40 O 0.35751 0.97019 0.01125 0.0
O41 O 0.35416 0.98959 0.01183 0.0
O42 O 0.99679 0.61629 0.98118 0.0
Cd43 Cd 0.9934 0.6253 0.00798 0.0
Cd44 Cd 0.02356 0.64017 0.00951 0.0
O45 O 0.02127 0.62942 0.9815 0.0
O46 O 0.97246 0.62105 0.00636 0.0
O47 O 0.9918 0.64384 0.00641 0.0
C48 C 0.97756 0.63518 0.00554 0.0
C49 C 0.04092 0.66559 0.01221 0.0
C50 C 1.0092 0.61963 0.97305 0.0
C51 C 1.00743 0.61859 0.0441 0.0
O52 O 0.01984 0.62747 0.03584 0.0
O53 O 0.99539 0.61659 0.03595 0.0
O54 O 0.04497 0.65575 0.01097 0.0
O55 O 0.02685 0.66102 0.0117 0.0
O56 O 0.39837 0.38445 0.98328 0.0
Cd57 Cd 0.38944 0.37225 0.00998 0.0
Cd58 Cd 0.3751 0.38816 0.01136 0.0
O59 O 0.38565 0.39624 0.98321 0.0
O60 O 0.39345 0.3554 0.00841 0.0
O61 O 0.37076 0.35219 0.00851 0.0
C62 C 0.37929 0.34647 0.00765 0.0
C63 C 0.34986 0.38076 0.01417 0.0
C64 C 0.39521 0.39361 0.97493 0.0
C65 C 0.39693 0.3932 0.04604 0.0
O66 O 0.388 0.3968 0.03795 0.0
O67 O 0.39876 0.38312 0.0377 0.0
O68 O 0.35998 0.39457 0.01328 0.0
O69 O 0.35405 0.37098 0.01314 0.0
O70 O 0.6231 0.99452 0.0371 0.0
Cd71 Cd 0.63188 0.99079 0.01051 0.0
Cd72 Cd 0.6471 0.02142 0.0101 0.0
O73 O 0.63608 0.01903 0.03787 0.0
O74 O 0.6261 0.96939 0.0122 0.0
O75 O 0.64948 0.98751 0.01179 0.0
C76 C 0.64001 0.97346 0.01283 0.0
C77 C 0.67255 0.03885 0.00807 0.0
C78 C 0.62626 1.00681 0.04568 0.0
C79 C 0.62556 1.00517 0.97463 0.0
O80 O 0.6347 0.01753 0.9831 0.0
O81 O 0.62316 0.99302 0.98272 0.0
O82 O 0.66265 0.04286 0.0085 0.0
O83 O 0.66802 0.02481 0.00916 0.0
O84 O 0.69051 0.73015 0.36649 0.0
Cd85 Cd 0.6943 0.72107 0.3402 0.0
Cd86 Cd 0.66355 0.70557 0.33943 0.0
O87 O 0.66602 0.71693 0.36706 0.0
O88 O 0.71588 0.72756 0.34207 0.0
O89 O 0.69831 0.70396 0.3424 0.0
C90 C 0.71227 0.71379 0.34332 0.0
C91 C 0.64612 0.68009 0.33768 0.0
C92 C 0.67823 0.72694 0.37493 0.0
C93 C 0.67955 0.72657 0.30381 0.0
O94 O 0.66725 0.71756 0.31226 0.0
O95 O 0.69175 0.72914 0.3121 0.0
O96 O 0.64212 0.68999 0.3378 0.0
O97 O 0.66017 0.68464 0.33887 0.0
O98 O 0.28828 0.96498 0.37239 0.0
Cd99 Cd 0.2968 0.97697 0.34531 0.0
Cd100 Cd 0.31213 0.96173 0.34511 0.0
O101 O 0.30146 0.95368 0.37312 0.0
O102 O 0.29121 0.99275 0.34657 0.0
O103 O 0.31452 0.99777 0.34596 0.0
C104 C 0.30517 1.0025 0.34685 0.0
C105 C 0.33748 0.96945 0.34258 0.0
C106 C 0.29167 0.95608 0.38107 0.0
C107 C 0.29032 0.95559 0.30997 0.0
O108 O 0.29936 0.9524 0.3187 0.0
O109 O 0.28809 0.96561 0.31761 0.0
O110 O 0.32752 0.95563 0.34416 0.0
O111 O 0.33308 0.97909 0.34277 0.0
O112 O 0.0653 0.35128 0.31199 0.0
Cd113 Cd 0.05634 0.35478 0.3387 0.0
Cd114 Cd 0.04173 0.32445 0.33997 0.0
O115 O 0.05221 0.32678 0.31189 0.0
O116 O 0.06075 0.37578 0.33721 0.0
O117 O 0.03789 0.35657 0.33699 0.0
C118 C 0.04664 0.3708 0.33629 0.0
C119 C 0.01659 0.30634 0.34305 0.0
C120 C 0.06195 0.33885 0.30367 0.0
C121 C 0.06354 0.3411 0.37466 0.0
O122 O 0.05482 0.32861 0.36619 0.0
O123 O 0.06522 0.35304 0.36672 0.0
O124 O 0.0268 0.30283 0.34143 0.0
O125 O 0.0206 0.32029 0.3426 0.0
O126 O 0.66698 0.95013 0.31283 0.0
Cd127 Cd 0.66388 0.9595 0.33947 0.0
Cd128 Cd 0.69419 0.97448 0.34012 0.0
O129 O 0.69147 0.96315 0.31254 0.0
O130 O 0.64252 0.95387 0.33879 0.0
O131 O 0.66079 0.97718 0.33739 0.0
C132 C 0.64669 0.96779 0.33741 0.0
C133 C 0.71133 1.0 0.34155 0.0
C134 C 0.67929 0.95328 0.30448 0.0
C135 C 0.67872 0.95367 0.37562 0.0
O136 O 0.69102 0.96241 0.36697 0.0
O137 O 0.66657 0.95149 0.36761 0.0
O138 O 0.71553 0.99026 0.34064 0.0
O139 O 0.69723 0.99526 0.34146 0.0
O140 O 0.06628 0.7196 0.31683 0.0
Cd141 Cd 0.05709 0.70704 0.34317 0.0
Cd142 Cd 0.04231 0.72269 0.34374 0.0
O143 O 0.05335 0.73116 0.31599 0.0
O144 O 0.06293 0.69145 0.34206 0.0
O145 O 0.03955 0.68615 0.34083 0.0
C146 C 0.04906 0.6816 0.34058 0.0
C147 C 0.0168 0.71423 0.34559 0.0
C148 C 0.06318 0.72872 0.30823 0.0
C149 C 0.06346 0.72778 0.37933 0.0
O150 O 0.05461 0.73132 0.3708 0.0
O151 O 0.06557 0.71782 0.37119 0.0
O152 O 0.0265 0.7282 0.34522 0.0
O153 O 0.02158 0.70491 0.34455 0.0
O154 O 0.289 0.32822 0.36896 0.0
Cd155 Cd 0.29784 0.32451 0.34242 0.0
Cd156 Cd 0.31267 0.35524 0.34168 0.0
O157 O 0.30181 0.35273 0.36963 0.0
O158 O 0.29226 0.30317 0.34436 0.0
O159 O 0.31557 0.32145 0.34384 0.0
C160 C 0.3062 0.30737 0.34502 0.0
C161 C 0.33786 0.37344 0.339 0.0
C162 C 0.29209 0.3405 0.37752 0.0
C163 C 0.29104 0.33847 0.30647 0.0
O164 O 0.29998 0.35092 0.31489 0.0
O165 O 0.28896 0.32643 0.31458 0.0
O166 O 0.32756 0.37688 0.33988 0.0
O167 O 0.3339 0.35952 0.34007 0.0
O168 O 0.35694 0.06497 0.70275 0.0
Cd169 Cd 0.36156 0.05614 0.67693 0.0
Cd170 Cd 0.33072 0.04166 0.67324 0.0
O171 O 0.33244 0.0525 0.7011 0.0
O172 O 0.38301 0.06248 0.6806 0.0
O173 O 0.3654 0.03891 0.67934 0.0
C174 C 0.37932 0.04867 0.68139 0.0
C175 C 0.31229 0.01658 0.6699 0.0
C176 C 0.34441 0.06204 0.71002 0.0
C177 C 0.34901 0.06333 0.63941 0.0
O178 O 0.33617 0.05448 0.64659 0.0
O179 O 0.36059 0.06511 0.64878 0.0
O180 O 0.3091 0.02707 0.66991 0.0
O181 O 0.32609 0.02029 0.67204 0.0
O182 O 0.95289 0.29547 0.70849 0.0
Cd183 Cd 0.96072 0.30753 0.68132 0.0
Cd184 Cd 0.97532 0.29147 0.67915 0.0
O185 O 0.96557 0.28365 0.70773 0.0
O186 O 0.95433 0.32267 0.68347 0.0
O187 O 0.9779 0.3287 0.68195 0.0
C188 C 0.96813 0.33286 0.68349 0.0
C189 C 1.00054 0.29911 0.67481 0.0
C190 C 0.95624 0.28636 0.71655 0.0
C191 C 0.95256 0.28585 0.64576 0.0
O192 O 0.96151 0.28219 0.65362 0.0
O193 O 0.95115 0.29626 0.65386 0.0
O194 O 0.9906 0.28529 0.67658 0.0
O195 O 0.99619 0.30877 0.67576 0.0
O196 O 0.73333 0.68573 0.64498 0.0
Cd197 Cd 0.72412 0.68885 0.6717 0.0
Cd198 Cd 0.70946 0.65854 0.67224 0.0
O199 O 0.72023 0.66124 0.64433 0.0
O200 O 0.72855 0.70987 0.67074 0.0
O201 O 0.7057 0.69066 0.6699 0.0
C202 C 0.71445 0.7049 0.66959 0.0
C203 C 0.68423 0.64058 0.67449 0.0
C204 C 0.73005 0.6734 0.6364 0.0
C205 C 0.73093 0.67466 0.70745 0.0
O206 O 0.72225 0.66227 0.69869 0.0
O207 O 0.73272 0.6867 0.69973 0.0
O208 O 0.69436 0.63696 0.67285 0.0
O209 O 0.68838 0.65456 0.67462 0.0
O210 O 0.33124 0.28497 0.64482 0.0
Cd211 Cd 0.32827 0.29456 0.67134 0.0
Cd212 Cd 0.35833 0.30964 0.67135 0.0
O213 O 0.3557 0.29823 0.64382 0.0
O214 O 0.30718 0.28994 0.67043 0.0
O215 O 0.32627 0.31284 0.66921 0.0
C216 C 0.31205 0.30401 0.66904 0.0
C217 C 0.3744 0.33537 0.67313 0.0
C218 C 0.34345 0.28813 0.63617 0.0
C219 C 0.34333 0.28902 0.70727 0.0
O220 O 0.35548 0.29775 0.69827 0.0
O221 O 0.33104 0.28667 0.69956 0.0
O222 O 0.37936 0.32623 0.6721 0.0
O223 O 0.36017 0.32989 0.67272 0.0
O224 O 0.73248 0.05369 0.65296 0.0
Cd225 Cd 0.72361 0.04062 0.67897 0.0
Cd226 Cd 0.70828 0.05584 0.68093 0.0
O227 O 0.71916 0.06486 0.65325 0.0
O228 O 0.72983 0.02535 0.67694 0.0
O229 O 0.70631 0.01962 0.67624 0.0
C230 C 0.71601 0.01532 0.6755 0.0
C231 C 0.68278 0.04743 0.68317 0.0
C232 C 0.7291 0.06279 0.64499 0.0
C233 C 0.72977 0.06065 0.71597 0.0
O234 O 0.7207 0.06411 0.70799 0.0
O235 O 0.73208 0.05101 0.70722 0.0
O236 O 0.69252 0.06139 0.68319 0.0
O237 O 0.68751 0.03809 0.68154 0.0
O238 O 0.95667 0.66275 0.70082 0.0
Cd239 Cd 0.96549 0.65898 0.67432 0.0
Cd240 Cd 0.98057 0.68964 0.67372 0.0
O241 O 0.96954 0.68726 0.70148 0.0
O242 O 0.95973 0.63759 0.67622 0.0
O243 O 0.9831 0.65572 0.67583 0.0
C244 C 0.97364 0.64167 0.67697 0.0
C245 C 1.00597 0.7072 0.67161 0.0
C246 C 0.95977 0.67504 0.70934 0.0
C247 C 0.95911 0.67317 0.63825 0.0
O248 O 0.96816 0.68557 0.64669 0.0
O249 O 0.95678 0.66107 0.64642 0.0
O250 O 0.996 0.7111 0.67198 0.0
O251 O 1.00155 0.69318 0.67282 0.0
H252 H 0.15754 0.32296 0.1398 0.0
H253 H 0.15628 0.32985 0.07377 0.0
H254 H 0.13683 0.34697 0.1166 0.0
H255 H 0.16104 0.30708 0.11272 0.0
H256 H 0.16391 0.31272 0.08612 0.0
H257 H 0.18038 0.32262 0.14003 0.0
H258 H 0.22512 0.34696 0.11741 0.0
H259 H 0.18863 0.32998 0.0741 0.0
C260 C 0.15479 0.32785 0.12689 0.0
C261 C 0.14716 0.33558 0.13071 0.0
C262 C 0.15853 0.32607 0.10642 0.0
C263 C 0.15407 0.33171 0.08965 0.0
C264 C 0.14636 0.33936 0.0934 0.0
C265 C 0.14325 0.3415 0.11388 0.0
C266 C 0.16599 0.31698 0.10242 0.0
C267 C 0.18254 0.32583 0.10665 0.0
C268 C 0.18802 0.32757 0.12721 0.0
C269 C 0.20338 0.33538 0.13121 0.0
C270 C 0.21323 0.34142 0.11453 0.0
C271 C 0.20802 0.33938 0.09398 0.0
C272 C 0.19266 0.3317 0.09003 0.0
H273 H 0.69289 0.83498 0.13739 0.0
H274 H 0.68638 0.82689 0.07119 0.0
H275 H 0.66928 0.79029 0.11373 0.0
H276 H 0.70885 0.85441 0.1105 0.0
H277 H 0.70319 0.85163 0.08383 0.0
H278 H 0.69274 0.85751 0.13765 0.0
H279 H 0.66997 0.87958 0.11492 0.0
H280 H 0.68687 0.86018 0.07157 0.0
C281 C 0.68807 0.82737 0.12436 0.0
C282 C 0.68039 0.812 0.12801 0.0
C283 C 0.68988 0.8329 0.10392 0.0
C284 C 0.68443 0.82281 0.08704 0.0
C285 C 0.67688 0.80742 0.09058 0.0
C286 C 0.67463 0.80217 0.11106 0.0
C287 C 0.69894 0.84946 0.10006 0.0
C288 C 0.69015 0.85724 0.10418 0.0
C289 C 0.68814 0.86062 0.12476 0.0
C290 C 0.68066 0.86848 0.12875 0.0
C291 C 0.67515 0.87292 0.11198 0.0
C292 C 0.67748 0.87013 0.09138 0.0
C293 C 0.68488 0.86217 0.0875 0.0
H294 H 0.17239 0.82385 0.14381 0.0
H295 H 0.1681 0.81548 0.07771 0.0
H296 H 0.12952 0.79546 0.1168 0.0
H297 H 0.19334 0.82517 0.12077 0.0
H298 H 0.19205 0.82647 0.09334 0.0
H299 H 0.19477 0.84566 0.14429 0.0
H300 H 0.22065 0.88894 0.11772 0.0
H301 H 0.20137 0.85034 0.07797 0.0
C302 C 0.1655 0.81919 0.13007 0.0
C303 C 0.15008 0.81011 0.13238 0.0
C304 C 0.1721 0.82152 0.11031 0.0
C305 C 0.16304 0.81435 0.09282 0.0
C306 C 0.14761 0.80491 0.09499 0.0
C307 C 0.14125 0.80327 0.11475 0.0
C308 C 0.18886 0.82936 0.10842 0.0
C309 C 0.19631 0.84609 0.11072 0.0
C310 C 0.19881 0.85263 0.13065 0.0
C311 C 0.20733 0.86812 0.13322 0.0
C312 C 0.2133 0.87708 0.11562 0.0
C313 C 0.2114 0.87081 0.09567 0.0
C314 C 0.20263 0.8553 0.09326 0.0
H315 H 0.35754 0.19494 0.87314 0.0
H316 H 0.35704 0.19932 0.93979 0.0
H317 H 0.33873 0.21949 0.90023 0.0
H318 H 0.37552 0.1924 0.8971 0.0
H319 H 0.37255 0.19104 0.92446 0.0
H320 H 0.35335 0.17144 0.87393 0.0
H321 H 0.34337 0.12894 0.89743 0.0
H322 H 0.36349 0.16706 0.93779 0.0
C323 C 0.35396 0.19836 0.88684 0.0
C324 C 0.3469 0.20679 0.8844 0.0
C325 C 0.35721 0.19512 0.9068 0.0
C326 C 0.35377 0.20095 0.92442 0.0
C327 C 0.34708 0.20977 0.92216 0.0
C328 C 0.34326 0.21216 0.90215 0.0
C329 C 0.36669 0.1879 0.90915 0.0
C330 C 0.35814 0.17111 0.90671 0.0
C331 C 0.35253 0.16458 0.88703 0.0
C332 C 0.34687 0.14931 0.88371 0.0
C333 C 0.34685 0.14054 0.90023 0.0
C334 C 0.35297 0.14688 0.91962 0.0
C335 C 0.35822 0.16207 0.92303 0.0
H336 H 0.86273 0.17743 0.88324 0.0
H337 H 0.86556 0.18589 0.94942 0.0
H338 H 0.88436 0.22223 0.90644 0.0
H339 H 0.85979 0.15815 0.91032 0.0
H340 H 0.85713 0.16104 0.93698 0.0
H341 H 0.84032 0.15488 0.88326 0.0
H342 H 0.79569 0.13287 0.90634 0.0
H343 H 0.83237 0.15248 0.9494 0.0
C344 C 0.86575 0.1851 0.89622 0.0
C345 C 0.87343 0.20045 0.8924 0.0
C346 C 0.86238 0.17968 0.91674 0.0
C347 C 0.8674 0.18988 0.93353 0.0
C348 C 0.87523 0.20525 0.9298 0.0
C349 C 0.87784 0.21038 0.90926 0.0
C350 C 0.8549 0.16314 0.92075 0.0
C351 C 0.8383 0.15531 0.91675 0.0
C352 C 0.83273 0.15182 0.89621 0.0
C353 C 0.81735 0.14393 0.89235 0.0
C354 C 0.80755 0.13954 0.90919 0.0
C355 C 0.81285 0.14241 0.92974 0.0
C356 C 0.82824 0.15042 0.9335 0.0
H357 H 0.84835 0.6599 0.87118 0.0
H358 H 0.85267 0.65758 0.93759 0.0
H359 H 0.89149 0.67736 0.899 0.0
H360 H 0.82766 0.64076 0.89377 0.0
H361 H 0.82894 0.64278 0.92133 0.0
H362 H 0.82669 0.66112 0.87187 0.0
H363 H 0.79792 0.67472 0.89952 0.0
H364 H 0.81756 0.65504 0.93757 0.0
C365 C 0.85525 0.66281 0.88502 0.0
C366 C 0.87075 0.66986 0.88291 0.0
C367 C 0.8486 0.6587 0.90477 0.0
C368 C 0.85771 0.66143 0.92246 0.0
C369 C 0.87323 0.66824 0.92051 0.0
C370 C 0.87962 0.6728 0.90076 0.0
C371 C 0.83188 0.64916 0.90655 0.0
C372 C 0.82385 0.65793 0.90514 0.0
C373 C 0.82181 0.66287 0.88567 0.0
C374 C 0.81273 0.66926 0.8837 0.0
C375 C 0.80568 0.6707 0.90138 0.0
C376 C 0.80715 0.66545 0.92085 0.0
C377 C 0.81654 0.65936 0.9227 0.0
H378 H 0.82618 0.65878 0.47217 0.0
H379 H 0.82438 0.66539 0.40616 0.0
H380 H 0.80518 0.68259 0.4493 0.0
H381 H 0.82946 0.6428 0.44506 0.0
H382 H 0.83207 0.64829 0.41841 0.0
H383 H 0.84905 0.65873 0.47206 0.0
H384 H 0.89359 0.68205 0.44862 0.0
H385 H 0.85671 0.66496 0.40592 0.0
C386 C 0.82334 0.66363 0.45931 0.0
C387 C 0.81569 0.67133 0.46324 0.0
C388 C 0.82695 0.66179 0.43878 0.0
C389 C 0.82232 0.66733 0.42208 0.0
C390 C 0.81458 0.67495 0.42594 0.0
C391 C 0.81163 0.67716 0.44648 0.0
C392 C 0.83433 0.65265 0.43467 0.0
C393 C 0.85093 0.66145 0.4386 0.0
C394 C 0.85659 0.66342 0.45907 0.0
C395 C 0.87199 0.67105 0.46279 0.0
C396 C 0.8817 0.67672 0.4459 0.0
C397 C 0.87631 0.67443 0.4254 0.0
C398 C 0.86091 0.6669 0.42178 0.0
H399 H 0.36509 0.17143 0.47081 0.0
H400 H 0.35389 0.16388 0.40542 0.0
H401 H 0.34263 0.127 0.44587 0.0
H402 H 0.37745 0.19168 0.44502 0.0
H403 H 0.37191 0.18865 0.41831 0.0
H404 H 0.35943 0.19209 0.47211 0.0
H405 H 0.33554 0.21304 0.44932 0.0
H406 H 0.35521 0.19643 0.40601 0.0
C407 C 0.35969 0.16386 0.45788 0.0
C408 C 0.35379 0.14852 0.46076 0.0
C409 C 0.35958 0.16952 0.43798 0.0
C410 C 0.35346 0.15962 0.42095 0.0
C411 C 0.34722 0.14427 0.42388 0.0
C412 C 0.34719 0.13885 0.4438 0.0
C413 C 0.3676 0.18613 0.4345 0.0
C414 C 0.35777 0.19276 0.43858 0.0
C415 C 0.35491 0.19527 0.45919 0.0
C416 C 0.34672 0.20243 0.46314 0.0
C417 C 0.34127 0.2069 0.44633 0.0
C418 C 0.34439 0.20493 0.42575 0.0
C419 C 0.35255 0.19774 0.42191 0.0
H420 H 0.83537 0.15124 0.47979 0.0
H421 H 0.83611 0.14888 0.41295 0.0
H422 H 0.79455 0.12723 0.4454 0.0
H423 H 0.85785 0.15522 0.46028 0.0
H424 H 0.8584 0.15659 0.43266 0.0
H425 H 0.85531 0.17568 0.48126 0.0
H426 H 0.88732 0.21879 0.4589 0.0
H427 H 0.87252 0.18068 0.41901 0.0
C428 C 0.82948 0.14815 0.46504 0.0
C429 C 0.81392 0.13914 0.46484 0.0
C430 C 0.83757 0.15207 0.44632 0.0
C431 C 0.8299 0.14664 0.42728 0.0
C432 C 0.81436 0.13746 0.42684 0.0
C433 C 0.80651 0.13439 0.4456 0.0
C434 C 0.85436 0.15957 0.44691 0.0
C435 C 0.862 0.17632 0.44923 0.0
C436 C 0.86177 0.18271 0.46853 0.0
C437 C 0.87068 0.19807 0.47195 0.0
C438 C 0.87985 0.20704 0.45594 0.0
C439 C 0.88078 0.20086 0.43698 0.0
C440 C 0.87148 0.18555 0.4334 0.0
H441 H 0.02168 0.52341 0.20786 0.0
H442 H 0.02713 0.53237 0.27381 0.0
H443 H 1.00728 0.55163 0.23534 0.0
H444 H 0.04215 0.52275 0.23057 0.0
H445 H 0.03968 0.52114 0.258 0.0
H446 H 0.02358 0.50235 0.2067 0.0
H447 H 1.00615 0.45886 0.23259 0.0
H448 H 0.02502 0.49709 0.27303 0.0
C449 C 0.01969 0.52814 0.22167 0.0
C450 C 0.01312 0.53703 0.21959 0.0
C451 C 0.02445 0.52605 0.24129 0.0
C452 C 0.02284 0.53331 0.25884 0.0
C453 C 0.01662 0.54258 0.25687 0.0
C454 C 0.01142 0.54397 0.23727 0.0
C455 C 0.03353 0.51835 0.24291 0.0
C456 C 0.02439 0.50162 0.2403 0.0
C457 C 0.02056 0.49526 0.22023 0.0
C458 C 0.01368 0.4798 0.2174 0.0
C459 C 1.01058 0.47069 0.23487 0.0
C460 C 0.01479 0.47679 0.25495 0.0
C461 C 0.02144 0.49227 0.25762 0.0
H462 H 0.52934 0.51133 0.21411 0.0
H463 H 0.53198 0.51945 0.28036 0.0
H464 H 0.55099 0.55602 0.23776 0.0
H465 H 0.52653 0.49198 0.24125 0.0
H466 H 0.52335 0.49464 0.26778 0.0
H467 H 0.50746 0.48811 0.21354 0.0
H468 H 0.46244 0.46669 0.23513 0.0
H469 H 0.49838 0.48666 0.27929 0.0
C470 C 0.53234 0.51894 0.22716 0.0
C471 C 0.54007 0.53431 0.22351 0.0
C472 C 0.52889 0.51341 0.24762 0.0
C473 C 0.53387 0.52352 0.26451 0.0
C474 C 0.54174 0.53892 0.26095 0.0
C475 C 0.54443 0.54415 0.24047 0.0
C476 C 0.52141 0.49684 0.25145 0.0
C477 C 0.50489 0.48898 0.24686 0.0
C478 C 0.49965 0.48524 0.22619 0.0
C479 C 0.48434 0.47739 0.22182 0.0
C480 C 0.47427 0.47327 0.23829 0.0
C481 C 0.47923 0.47641 0.25897 0.0
C482 C 0.49454 0.48439 0.26326 0.0
H483 H 0.51509 0.99318 0.20739 0.0
H484 H 0.51934 0.99003 0.27363 0.0
H485 H 0.55804 0.00868 0.23475 0.0
H486 H 0.49424 0.97392 0.22999 0.0
H487 H 0.49556 0.97593 0.25754 0.0
H488 H 0.49318 0.99399 0.208 0.0
H489 H 0.46543 0.00872 0.23601 0.0
H490 H 0.48514 0.98909 0.27402 0.0
C491 C 0.52199 0.99571 0.22118 0.0
C492 C 0.53745 1.00228 0.21898 0.0
C493 C 0.51536 0.99157 0.24094 0.0
C494 C 0.52443 0.99385 0.25853 0.0
C495 C 0.53989 1.00004 0.25647 0.0
C496 C 0.54627 1.00461 0.23671 0.0
C497 C 0.49862 0.98234 0.24277 0.0
C498 C 0.49089 0.99139 0.2414 0.0
C499 C 0.48864 0.9961 0.22188 0.0
C500 C 0.47974 1.00268 0.21998 0.0
C501 C 0.4731 1.00458 0.23779 0.0
C502 C 0.47477 0.99955 0.25733 0.0
C503 C 0.48398 0.99326 0.2591 0.0
H504 H 0.49177 0.99108 0.81031 0.0
H505 H 0.49043 0.99897 0.74462 0.0
H506 H 0.47086 0.01525 0.78858 0.0
H507 H 0.49543 0.97576 0.78264 0.0
H508 H 0.49798 0.98158 0.75614 0.0
H509 H 0.51498 0.99173 0.80986 0.0
H510 H 0.55951 0.01511 0.7864 0.0
H511 H 0.52263 0.99815 0.74373 0.0
C512 C 0.489 0.99616 0.79767 0.0
C513 C 0.4813 1.00376 0.80197 0.0
C514 C 0.49277 0.99474 0.77705 0.0
C515 C 0.48823 1.00057 0.76062 0.0
C516 C 0.48044 0.00809 0.76485 0.0
C517 C 0.47733 0.00989 0.78549 0.0
C518 C 0.50024 0.98573 0.7725 0.0
C519 C 0.51684 0.99456 0.77641 0.0
C520 C 0.52251 0.99646 0.79687 0.0
C521 C 0.53791 1.00408 0.80058 0.0
C522 C 0.54762 0.00979 0.78369 0.0
C523 C 0.54223 0.00757 0.7632 0.0
C524 C 0.52682 1.00005 0.75959 0.0
H525 H 0.02756 0.50449 0.80587 0.0
H526 H 0.0186 0.49518 0.74019 0.0
H527 H 1.00324 0.45938 0.78385 0.0
H528 H 0.0422 0.52357 0.77837 0.0
H529 H 0.03621 0.52015 0.75183 0.0
H530 H 0.02537 0.52601 0.80557 0.0
H531 H 1.00275 0.54806 0.78217 0.0
H532 H 0.02035 0.52903 0.73935 0.0
C533 C 0.02231 0.49664 0.7932 0.0
C534 C 0.01483 0.48133 0.79739 0.0
C535 C 0.02334 0.5018 0.77264 0.0
C536 C 0.01729 0.4914 0.75616 0.0
C537 C 1.00995 0.4761 0.76028 0.0
C538 C 1.0085 0.47121 0.78086 0.0
C539 C 0.03217 0.51828 0.76817 0.0
C540 C 0.02323 0.52593 0.77204 0.0
C541 C 0.02093 0.52918 0.79255 0.0
C542 C 0.01335 0.53697 0.79631 0.0
C543 C 1.00802 0.54146 0.77939 0.0
C544 C 1.01063 0.5388 0.75887 0.0
C545 C 0.01814 0.53092 0.75521 0.0
H546 H 0.5042 0.48597 0.81071 0.0
H547 H 0.50036 0.4812 0.74397 0.0
H548 H 0.46123 0.46203 0.78199 0.0
H549 H 0.52494 0.48784 0.78774 0.0
H550 H 0.52388 0.48942 0.7603 0.0
H551 H 0.52422 0.50888 0.81077 0.0
H552 H 0.55697 0.55141 0.78782 0.0
H553 H 0.53881 0.51348 0.74707 0.0
C554 C 0.49744 0.48259 0.79671 0.0
C555 C 0.48191 0.47448 0.79853 0.0
C556 C 0.50425 0.48558 0.77703 0.0
C557 C 0.49524 0.47976 0.7591 0.0
C558 C 0.47968 0.47123 0.76077 0.0
C559 C 0.47316 0.46912 0.78048 0.0
C560 C 0.52097 0.49255 0.77542 0.0
C561 C 0.52941 0.50933 0.77805 0.0
C562 C 0.53034 0.51578 0.79777 0.0
C563 C 0.54001 0.53102 0.80126 0.0
C564 C 0.54885 0.53982 0.7849 0.0
C565 C 0.54864 0.53356 0.76547 0.0
C566 C 0.53859 0.51841 0.76187 0.0
H567 H 0.69158 0.85859 0.541 0.0
H568 H 0.69597 0.8669 0.60713 0.0
H569 H 0.67699 0.88675 0.56814 0.0
H570 H 0.71135 0.85725 0.56414 0.0
H571 H 0.7087 0.85571 0.59153 0.0
H572 H 0.69244 0.83696 0.54017 0.0
H573 H 0.67456 0.79344 0.56615 0.0
H574 H 0.69393 0.83172 0.6065 0.0
C575 C 0.6894 0.86321 0.55476 0.0
C576 C 0.68298 0.87223 0.5525 0.0
C577 C 0.69378 0.86087 0.57451 0.0
C578 C 0.69195 0.86802 0.59203 0.0
C579 C 0.68586 0.87738 0.5899 0.0
C580 C 0.68102 0.87902 0.57016 0.0
C581 C 0.70265 0.85297 0.57637 0.0
C582 C 0.69333 0.83625 0.57377 0.0
C583 C 0.68938 0.82988 0.55371 0.0
C584 C 0.68231 0.8144 0.55092 0.0
C585 C 0.67914 0.80529 0.5684 0.0
C586 C 0.68345 0.8114 0.58847 0.0
C587 C 0.69029 0.8269 0.5911 0.0
H588 H 0.19619 0.84634 0.54601 0.0
H589 H 0.19788 0.85523 0.61199 0.0
H590 H 0.21665 0.89128 0.56857 0.0
H591 H 0.19301 0.82732 0.57344 0.0
H592 H 0.19024 0.83038 0.6 0.0
H593 H 0.17352 0.82378 0.54612 0.0
H594 H 0.12884 0.80136 0.569 0.0
H595 H 0.16539 0.82148 0.61222 0.0
C596 C 0.19889 0.85409 0.55884 0.0
C597 C 0.20636 0.86941 0.55481 0.0
C598 C 0.19529 0.84879 0.5794 0.0
C599 C 0.19988 0.8591 0.59604 0.0
C600 C 0.20749 0.87443 0.59207 0.0
C601 C 0.21033 0.87943 0.5715 0.0
C602 C 0.18801 0.83229 0.58367 0.0
C603 C 0.17141 0.82427 0.57959 0.0
C604 C 0.16589 0.82066 0.55904 0.0
C605 C 0.15053 0.8126 0.55511 0.0
C606 C 0.14069 0.80816 0.5719 0.0
C607 C 0.14593 0.81114 0.59247 0.0
C608 C 0.16131 0.81932 0.5963 0.0
H609 H 0.18013 0.3258 0.53846 0.0
H610 H 0.18492 0.32436 0.60493 0.0
H611 H 0.22347 0.34389 0.56583 0.0
H612 H 0.15956 0.30706 0.56148 0.0
H613 H 0.16108 0.30931 0.58902 0.0
H614 H 0.15909 0.3279 0.53952 0.0
H615 H 0.1299 0.34109 0.56682 0.0
H616 H 0.14905 0.32097 0.60493 0.0
C617 C 0.18712 0.32894 0.55223 0.0
C618 C 0.20261 0.33606 0.54994 0.0
C619 C 0.18061 0.32508 0.5721 0.0
C620 C 0.18985 0.32806 0.58971 0.0
C621 C 0.20536 0.33492 0.58756 0.0
C622 C 0.2116 0.33927 0.56771 0.0
C623 C 0.1639 0.31557 0.57414 0.0
C624 C 0.15584 0.32432 0.57269 0.0
C625 C 0.15403 0.32947 0.55327 0.0
C626 C 0.14495 0.33584 0.55121 0.0
C627 C 0.13765 0.33706 0.56877 0.0
C628 C 0.13886 0.33157 0.58817 0.0
C629 C 0.14824 0.32548 0.59011 0.0
C630 C 0.99821 0.39806 0.07016 0.0
C631 C 0.01155 0.40208 0.05972 0.0
C632 C 0.99793 0.40676 0.08666 0.0
C633 C 0.02274 0.43638 0.12412 0.0
H634 H 0.98894 0.44229 0.13021 0.0
C635 C 0.02386 0.4788 0.18257 0.0
C636 C 0.01181 0.47312 0.19635 0.0
C637 C 0.02322 0.4709 0.16456 0.0
C638 C 0.99842 0.4407 0.1287 0.0
H639 H 0.03505 0.41841 0.05848 0.0
H640 H 0.03449 0.43367 0.08674 0.0
H641 H 0.98913 0.4265 0.10204 0.0
H642 H 0.9893 0.45525 0.20144 0.0
H643 H 0.98811 0.4415 0.16978 0.0
H644 H 0.0321 0.45072 0.1506 0.0
C645 C 0.02429 0.42364 0.0826 0.0
C646 C 0.99851 0.43158 0.11266 0.0
C647 C 0.0246 0.41489 0.06628 0.0
C648 C 0.99876 0.45986 0.19108 0.0
C649 C 0.99806 0.45202 0.17296 0.0
C650 C 0.02272 0.4456 0.13997 0.0
C651 C 0.01095 0.41974 0.09298 0.0
C652 C 1.01068 0.42929 0.11018 0.0
C653 C 1.01047 0.45722 0.15989 0.0
C654 C 1.01057 0.44786 0.14244 0.0
H655 H 0.98796 0.38823 0.06554 0.0
H656 H 0.9875 0.40326 0.0945 0.0
H657 H 0.03216 0.43465 0.12303 0.0
H658 H 0.03412 0.48891 0.18632 0.0
H659 H 0.03288 0.47525 0.15462 0.0
C660 C 0.61764 0.5999 0.07467 0.0
C661 C 0.61604 0.61172 0.06709 0.0
C662 C 0.6088 0.59109 0.09101 0.0
C663 C 0.58567 0.5905 0.13474 0.0
H664 H 0.56722 0.54767 0.12951 0.0
C665 C 0.54365 0.55236 0.19535 0.0
C666 C 0.54523 0.54045 0.20242 0.0
C667 C 0.55099 0.56013 0.17747 0.0
C668 C 0.57238 0.5596 0.13132 0.0
H669 H 0.60418 0.62379 0.07124 0.0
H670 H 0.58888 0.6085 0.09984 0.0
H671 H 0.58346 0.56358 0.10197 0.0
H672 H 0.55518 0.52689 0.19584 0.0
H673 H 0.56817 0.54055 0.1647 0.0
H674 H 0.57489 0.58664 0.16418 0.0
C675 C 0.59697 0.60605 0.09312 0.0
C676 C 0.5817 0.56872 0.11554 0.0
C677 C 0.60572 0.6148 0.07668 0.0
C678 C 0.55362 0.53592 0.19059 0.0
C679 C 0.56109 0.54379 0.17276 0.0
C680 C 0.57644 0.58141 0.15055 0.0
C681 C 0.59825 0.59397 0.10026 0.0
C682 C 0.58845 0.58427 0.11709 0.0
C683 C 0.56022 0.55628 0.16634 0.0
C684 C 0.56965 0.56583 0.14906 0.0
H685 H 0.62546 0.5972 0.06765 0.0
H686 H 0.61019 0.58199 0.09638 0.0
H687 H 0.59086 0.60244 0.13653 0.0
H688 H 0.53715 0.55599 0.20413 0.0
H689 H 0.54974 0.56943 0.17269 0.0
C690 C 0.40462 0.99404 0.07011 0.0
C691 C 0.40415 1.00684 0.0643 0.0
C692 C 0.41401 0.99465 0.08619 0.0
C693 C 0.43416 0.01567 0.13274 0.0
H694 H 0.45848 0.99758 0.12331 0.0
C695 C 0.47511 0.01871 0.19558 0.0
C696 C 0.4753 1.00549 0.19928 0.0
C697 C 0.4683 0.02022 0.17768 0.0
C698 C 0.45169 1.00257 0.12629 0.0
H699 H 0.41286 0.03021 0.07133 0.0
H700 H 0.42908 0.03117 0.09967 0.0
H701 H 0.44202 0.99706 0.09572 0.0
H702 H 0.46903 0.98372 0.18682 0.0
H703 H 0.45695 0.98621 0.15577 0.0
H704 H 0.44338 0.02078 0.16347 0.0
C705 C 0.42222 0.0207 0.09165 0.0
C706 C 0.44227 1.00228 0.11047 0.0
C707 C 0.41295 0.02014 0.0754 0.0
C708 C 0.46924 0.99412 0.18421 0.0
C709 C 0.46229 0.99556 0.16641 0.0
C710 C 0.44347 0.01583 0.14864 0.0
C711 C 0.42302 0.00802 0.09698 0.0
C712 C 0.43332 0.00872 0.11359 0.0
C713 C 0.46136 0.00847 0.16319 0.0
C714 C 0.45228 0.0092 0.14569 0.0
H715 H 0.39802 0.98362 0.06188 0.0
H716 H 0.41424 0.98465 0.09016 0.0
H717 H 0.4273 0.0206 0.13564 0.0
H718 H 0.47978 0.02767 0.20692 0.0
H719 H 0.46812 0.03046 0.17548 0.0
C720 C 0.41464 0.01801 0.94736 0.0
C721 C 0.40384 1.00481 0.95674 0.0
C722 C 0.42365 0.01763 0.93153 0.0
C723 C 0.42666 0.99242 0.89321 0.0
H724 H 0.46817 0.02319 0.8925 0.0
C725 C 0.46751 0.99084 0.83427 0.0
C726 C 0.47585 1.00409 0.82317 0.0
C727 C 0.45989 0.99067 0.85229 0.0
C728 C 0.4566 0.01454 0.89248 0.0
H729 H 0.39389 0.98081 0.95651 0.0
H730 H 0.40971 0.98017 0.92917 0.0
H731 H 0.45197 0.02336 0.91976 0.0
H732 H 0.48357 0.02769 0.82289 0.0
H733 H 0.47041 0.02745 0.85441 0.0
H734 H 0.43132 0.98362 0.8659 0.0
C735 C 0.4111 0.99082 0.93382 0.0
C736 C 0.44728 0.01468 0.90802 0.0
C737 C 0.40204 0.99119 0.94957 0.0
C738 C 0.47719 0.01732 0.83114 0.0
C739 C 0.46969 0.01718 0.84922 0.0
C740 C 0.436 0.99223 0.87775 0.0
C741 C 0.42214 1.00405 0.92475 0.0
C742 C 0.43215 1.0037 0.90847 0.0
C743 C 0.4606 1.00378 0.85964 0.0
C744 C 0.45104 1.00337 0.87709 0.0
H745 H 0.41629 0.02869 0.95243 0.0
H746 H 0.43182 0.02802 0.92461 0.0
H747 H 0.41504 0.9839 0.89287 0.0
H748 H 0.46618 0.98046 0.82838 0.0
H749 H 0.45312 0.98021 0.86014 0.0
C750 C 1.0015 0.40049 0.94213 0.0
C751 C 0.01468 0.40305 0.95202 0.0
C752 C 1.00188 0.40983 0.92623 0.0
C753 C 0.02703 0.43828 0.88862 0.0
H754 H 0.99609 0.44877 0.88749 0.0
C755 C 0.02808 0.4805 0.82961 0.0
C756 C 0.01473 0.47556 0.81853 0.0
C757 C 0.02841 0.47307 0.84758 0.0
C758 C 1.00478 0.44591 0.88757 0.0
H759 H 0.03864 0.41731 0.95253 0.0
H760 H 0.03928 0.43367 0.92501 0.0
H761 H 0.99603 0.4324 0.91466 0.0
H762 H 0.99114 0.45967 0.8182 0.0
H763 H 0.99167 0.44678 0.84959 0.0
H764 H 0.03573 0.45177 0.86147 0.0
C765 C 0.02865 0.42433 0.92937 0.0
C766 C 1.00471 0.43646 0.90307 0.0
C767 C 0.02828 0.41495 0.94521 0.0
C768 C 1.00158 0.46367 0.82644 0.0
C769 C 1.00189 0.45633 0.84446 0.0
C770 C 0.02713 0.44778 0.87318 0.0
C771 C 0.01544 0.42202 0.91988 0.0
C772 C 0.01575 0.43238 0.90366 0.0
C773 C 0.01538 0.46067 0.85489 0.0
C774 C 0.01592 0.45159 0.87235 0.0
H775 H 0.99082 0.39139 0.94689 0.0
H776 H 0.99151 0.40752 0.91897 0.0
H777 H 0.0356 0.43525 0.88842 0.0
H778 H 0.0384 0.48956 0.82376 0.0
H779 H 0.03894 0.47679 0.85545 0.0
C780 C 0.61164 0.59571 0.95487 0.0
C781 C 0.61255 0.60937 0.95948 0.0
C782 C 0.60234 0.58659 0.93893 0.0
C783 C 0.57017 0.58014 0.90563 0.0
H784 H 0.58277 0.55712 0.87269 0.0
C785 C 0.54454 0.55148 0.82623 0.0
C786 C 0.54314 0.53749 0.82256 0.0
C787 C 0.55087 0.5592 0.84479 0.0
C788 C 0.579 0.56332 0.88195 0.0
H789 H 0.60459 0.62431 0.95064 0.0
H790 H 0.58877 0.60865 0.92224 0.0
H791 H 0.59889 0.57335 0.90021 0.0
H792 H 0.5465 0.52025 0.83588 0.0
H793 H 0.55756 0.53374 0.86831 0.0
H794 H 0.55047 0.5704 0.88657 0.0
C795 C 0.59493 0.60477 0.93135 0.0
C796 C 0.58824 0.57264 0.89777 0.0
C797 C 0.60412 0.61382 0.94751 0.0
C798 C 0.54729 0.53094 0.83836 0.0
C799 C 0.55377 0.53873 0.85681 0.0
C800 C 0.56099 0.57093 0.88957 0.0
C801 C 0.59384 0.59097 0.92693 0.0
C802 C 0.58396 0.58116 0.9099 0.0
C803 C 0.5561 0.55314 0.85989 0.0
C804 C 0.56531 0.56239 0.87763 0.0
H805 H 0.61784 0.59184 0.96392 0.0
H806 H 0.60161 0.57595 0.93633 0.0
H807 H 0.56637 0.58633 0.91482 0.0
H808 H 0.54144 0.55676 0.81427 0.0
H809 H 0.55256 0.5703 0.84672 0.0
C810 C 0.99655 0.60098 0.94425 0.0
C811 C 1.0097 0.6113 0.95455 0.0
C812 C 0.99696 0.59227 0.92788 0.0
C813 C 0.02259 0.58966 0.89009 0.0
H814 H 0.99118 0.54851 0.8857 0.0
C815 C 0.02514 0.54979 0.82997 0.0
C816 C 0.01232 0.54204 0.81756 0.0
C817 C 0.02481 0.55704 0.84819 0.0
C818 C 1.0 0.55999 0.88671 0.0
H819 H 0.03361 0.62067 0.95548 0.0
H820 H 0.03429 0.60536 0.92727 0.0
H821 H 0.99067 0.56412 0.91381 0.0
H822 H 0.98891 0.53495 0.81511 0.0
H823 H 0.98828 0.54748 0.84703 0.0
H824 H 0.03193 0.58548 0.86303 0.0
C825 C 0.02367 0.60413 0.93156 0.0
C826 C 0.99968 0.56898 0.90274 0.0
C827 C 0.02328 0.6129 0.94782 0.0
C828 C 0.99896 0.5409 0.82438 0.0
C829 C 0.99859 0.54802 0.84268 0.0
C830 C 0.02297 0.58064 0.87418 0.0
C831 C 1.01051 0.5936 0.92148 0.0
C832 C 0.01091 0.58397 0.90455 0.0
C833 C 0.01161 0.55654 0.85445 0.0
C834 C 0.01163 0.56574 0.87223 0.0
H835 H 0.9859 0.59949 0.94898 0.0
H836 H 0.98663 0.58449 0.92022 0.0
H837 H 0.0313 0.60119 0.89076 0.0
H838 H 0.03562 0.55096 0.82499 0.0
H839 H 0.03497 0.56337 0.8571 0.0
C840 C 0.41615 0.40158 0.94972 0.0
C841 C 0.40352 0.40207 0.95635 0.0
C842 C 0.42478 0.4105 0.93335 0.0
C843 C 0.424 0.43095 0.88742 0.0
H844 H 0.46682 0.45285 0.89456 0.0
C845 C 0.46184 0.47038 0.82369 0.0
C846 C 0.47469 0.46969 0.81915 0.0
C847 C 0.45369 0.46376 0.84167 0.0
C848 C 0.4549 0.44671 0.89221 0.0
H849 H 0.38985 0.41206 0.95054 0.0
H850 H 0.40486 0.4275 0.92171 0.0
H851 H 0.45115 0.43736 0.92277 0.0
H852 H 0.48932 0.4619 0.83013 0.0
H853 H 0.47505 0.45018 0.86131 0.0
H854 H 0.42768 0.43988 0.85668 0.0
C855 C 0.40807 0.42023 0.92929 0.0
C856 C 0.44592 0.43785 0.9084 0.0
C857 C 0.3995 0.41141 0.94583 0.0
C858 C 0.47958 0.46281 0.83338 0.0
C859 C 0.47137 0.45607 0.85127 0.0
C860 C 0.43298 0.4397 0.87115 0.0
C861 C 0.42092 0.42002 0.92309 0.0
C862 C 0.43039 0.42979 0.90612 0.0
C863 C 0.45812 0.45616 0.85541 0.0
C864 C 0.44856 0.44762 0.87326 0.0
H865 H 0.41958 0.39454 0.95746 0.0
H866 H 0.43451 0.40995 0.92871 0.0
H867 H 0.41207 0.42475 0.88515 0.0
H868 H 0.45788 0.47571 0.81302 0.0
H869 H 0.44374 0.46435 0.84457 0.0
C870 C 0.61983 0.01831 0.94652 0.0
C871 C 0.61684 1.00496 0.95614 0.0
C872 C 0.61084 0.01826 0.93025 0.0
C873 C 0.57318 0.99618 0.90803 0.0
H874 H 0.59067 0.02089 0.85956 0.0
C875 C 0.53975 0.99185 0.83313 0.0
C876 C 0.54421 1.00487 0.82163 0.0
C877 C 0.54774 0.99211 0.85088 0.0
C878 C 0.58556 0.01411 0.87314 0.0
H879 H 0.60217 0.98104 0.95584 0.0
H880 H 0.58652 0.98099 0.92735 0.0
H881 H 0.60671 0.02062 0.88704 0.0
H882 H 0.55977 0.02851 0.82044 0.0
H883 H 0.57345 0.02909 0.85171 0.0
H884 H 0.55201 0.98969 0.89414 0.0
C885 C 0.59576 0.9915 0.93258 0.0
C886 C 0.59479 0.01392 0.88886 0.0
C887 C 0.60481 0.99153 0.94879 0.0
C888 C 0.55619 0.0183 0.82895 0.0
C889 C 0.56409 0.01858 0.84674 0.0
C890 C 0.56393 0.99642 0.89233 0.0
C891 C 0.59859 1.00488 0.92326 0.0
C892 C 0.58872 1.00494 0.90648 0.0
C893 C 0.5603 1.0054 0.85752 0.0
C894 C 0.57 1.0054 0.87468 0.0
H895 H 0.62898 0.02886 0.9518 0.0
H896 H 0.61326 0.02877 0.9235 0.0
H897 H 0.56816 0.98929 0.92156 0.0
H898 H 0.53066 0.98132 0.82769 0.0
H899 H 0.54455 0.98173 0.8587 0.0
C900 C 0.62146 0.02002 0.07495 0.0
C901 C 0.61757 1.00683 0.06395 0.0
C902 C 0.61256 0.02009 0.09122 0.0
C903 C 0.58226 0.99472 0.12688 0.0
H904 H 0.57647 0.02856 0.13396 0.0
C905 C 0.53885 0.99282 0.18366 0.0
C906 C 0.5444 1.00457 0.19816 0.0
C907 C 0.54705 0.99376 0.16595 0.0
C908 C 0.57802 0.01905 0.13217 0.0
H909 H 0.60125 0.98335 0.06154 0.0
H910 H 0.58563 0.98353 0.08936 0.0
H911 H 0.59273 0.02878 0.1064 0.0
H912 H 0.56233 0.02686 0.20484 0.0
H913 H 0.57657 0.02859 0.17367 0.0
H914 H 0.56738 0.98493 0.15245 0.0
C915 C 0.59572 0.99379 0.08585 0.0
C916 C 0.58742 0.0192 0.11648 0.0
C917 C 0.60468 0.99369 0.06977 0.0
C918 C 0.55781 0.01765 0.19389 0.0
C919 C 0.56594 0.01864 0.17606 0.0
C920 C 0.57275 0.99451 0.14236 0.0
C921 C 0.59948 1.00699 0.09676 0.0
C922 C 0.58967 1.00702 0.11364 0.0
C923 C 0.56088 1.00651 0.16228 0.0
C924 C 0.57053 1.00666 0.14518 0.0
H925 H 0.63133 0.03033 0.0709 0.0
H926 H 0.61596 0.03041 0.09948 0.0
H927 H 0.58394 0.98527 0.12553 0.0
H928 H 0.52863 0.98255 0.18665 0.0
H929 H 0.54281 0.9843 0.15545 0.0
C930 C 0.01976 0.60927 0.06851 0.0
C931 C 1.00697 0.60969 0.06238 0.0
C932 C 0.01914 0.59995 0.08458 0.0
C933 C 0.99832 0.58032 0.13092 0.0
H934 H 0.01677 0.55622 0.12245 0.0
C935 C 0.99667 0.54108 0.19507 0.0
C936 C 1.00999 0.54107 0.1988 0.0
C937 C 0.99482 0.54744 0.17698 0.0
C938 C 0.01167 0.56296 0.12517 0.0
H939 H 0.98358 0.60091 0.06879 0.0
H940 H 0.98259 0.58482 0.09718 0.0
H941 H 0.01683 0.57204 0.09442 0.0
H942 H 0.03161 0.54723 0.18623 0.0
H943 H 0.02855 0.55855 0.15487 0.0
H944 H 0.99361 0.57175 0.16185 0.0
C945 C 0.99306 0.59166 0.08938 0.0
C946 C 0.01169 0.572 0.10908 0.0
C947 C 0.99363 0.60086 0.07311 0.0
C948 C 0.02114 0.54688 0.18361 0.0
C949 C 0.01936 0.55339 0.16562 0.0
C950 C 0.99843 0.57141 0.14709 0.0
C951 C 1.00577 0.59097 0.09508 0.0
C952 C 1.00515 0.58088 0.11186 0.0
C953 C 1.00633 0.55411 0.16232 0.0
C954 C 1.00523 0.5627 0.14452 0.0
H955 H 0.03022 0.61589 0.06058 0.0
H956 H 0.02916 0.5998 0.08884 0.0
H957 H 0.9933 0.58715 0.13356 0.0
H958 H 0.98788 0.53659 0.2065 0.0
H959 H 0.9845 0.54746 0.17475 0.0
C960 C 0.41795 0.39974 0.0711 0.0
C961 C 0.4061 0.4016 0.06433 0.0
C962 C 0.42743 0.40863 0.08712 0.0
C963 C 0.43972 0.44445 0.11464 0.0
H964 H 0.45482 0.42801 0.15573 0.0
C965 C 0.46659 0.47334 0.19272 0.0
C966 C 0.47854 0.47204 0.2005 0.0
C967 C 0.4593 0.46603 0.17437 0.0
C968 C 0.45089 0.43283 0.14417 0.0
H969 H 0.39465 0.41396 0.06962 0.0
H970 H 0.41092 0.42915 0.09787 0.0
H971 H 0.43837 0.41208 0.12809 0.0
H972 H 0.49265 0.4626 0.19472 0.0
H973 H 0.47994 0.44984 0.16248 0.0
H974 H 0.45198 0.46512 0.13111 0.0
C975 C 0.41314 0.42109 0.09045 0.0
C976 C 0.44143 0.42368 0.12833 0.0
C977 C 0.40371 0.41227 0.07436 0.0
C978 C 0.48355 0.4639 0.18899 0.0
C979 C 0.47617 0.45646 0.17069 0.0
C980 C 0.44911 0.45357 0.13056 0.0
C981 C 0.42525 0.41953 0.09685 0.0
C982 C 0.43562 0.42934 0.11345 0.0
C983 C 0.46373 0.45715 0.16347 0.0
C984 C 0.45472 0.44783 0.1456 0.0
H985 H 0.42017 0.39169 0.06366 0.0
H986 H 0.43671 0.4072 0.09148 0.0
H987 H 0.43572 0.44928 0.10321 0.0
H988 H 0.46253 0.47958 0.20129 0.0
H989 H 0.44972 0.46673 0.1693 0.0
C990 C 0.69132 0.74855 0.39943 0.0
C991 C 0.67819 0.73568 0.39323 0.0
C992 C 0.69123 0.75744 0.41571 0.0
C993 C 0.66591 0.76568 0.44638 0.0
H994 H 0.69994 0.78492 0.48356 0.0
C995 C 0.66708 0.79446 0.52474 0.0
C996 C 0.68024 0.80766 0.52987 0.0
C997 C 0.66618 0.78654 0.50662 0.0
C998 C 0.69043 0.77979 0.47313 0.0
H999 H 0.65468 0.72191 0.39966 0.0
H1000 H 0.6546 0.7372 0.42855 0.0
H1001 H 0.69961 0.76868 0.45596 0.0
H1002 H 0.70254 0.82325 0.51956 0.0
H1003 H 0.70094 0.80946 0.48784 0.0
H1004 H 0.65661 0.77657 0.46414 0.0
C1005 C 0.66492 0.74062 0.42045 0.0
C1006 C 0.69023 0.77046 0.45728 0.0
C1007 C 0.66499 0.73177 0.404 0.0
C1008 C 0.6922 0.8132 0.51593 0.0
C1009 C 0.69135 0.80521 0.49791 0.0
C1010 C 0.66605 0.77492 0.46242 0.0
C1011 C 0.67803 0.75364 0.42642 0.0
C1012 C 0.67801 0.76332 0.44361 0.0
C1013 C 0.67849 0.79159 0.49337 0.0
C1014 C 0.67835 0.78213 0.47589 0.0
H1015 H 0.70167 0.75199 0.39138 0.0
H1016 H 0.70149 0.7675 0.41957 0.0
H1017 H 0.6564 0.76057 0.43598 0.0
H1018 H 0.65769 0.78996 0.53521 0.0
H1019 H 0.65614 0.77606 0.50356 0.0
C1020 C 0.27265 0.9503 0.40885 0.0
C1021 C 0.28327 0.94754 0.39957 0.0
C1022 C 0.26375 0.94137 0.42505 0.0
C1023 C 0.24898 0.90404 0.4475 0.0
H1024 H 0.24084 0.92153 0.49548 0.0
C1025 C 0.22044 0.87114 0.52239 0.0
C1026 C 0.2116 0.87538 0.53367 0.0
C1027 C 0.22801 0.879 0.50461 0.0
C1028 C 0.24277 0.91641 0.48203 0.0
H1029 H 0.29307 0.93336 0.40044 0.0
H1030 H 0.27759 0.91784 0.4288 0.0
H1031 H 0.25699 0.93754 0.46814 0.0
H1032 H 0.2028 0.89036 0.53442 0.0
H1033 H 0.21559 0.90379 0.50308 0.0
H1034 H 0.23472 0.88289 0.4614 0.0
C1035 C 0.27605 0.92683 0.42335 0.0
C1036 C 0.25209 0.92563 0.46639 0.0
C1037 C 0.28501 0.93582 0.40722 0.0
C1038 C 0.20965 0.88695 0.52607 0.0
C1039 C 0.2171 0.89472 0.50825 0.0
C1040 C 0.23957 0.8948 0.46313 0.0
C1041 C 0.26522 0.92941 0.4323 0.0
C1042 C 0.25534 0.91956 0.44897 0.0
C1043 C 0.2268 0.89121 0.49772 0.0
C1044 C 0.23635 0.90087 0.4806 0.0
H1045 H 0.27097 0.9592 0.40334 0.0
H1046 H 0.25544 0.94359 0.43152 0.0
H1047 H 0.2511 0.89902 0.43412 0.0
H1048 H 0.22227 0.86237 0.52806 0.0
H1049 H 0.23544 0.87603 0.49698 0.0
C1050 C 0.07345 0.32918 0.39878 0.0
C1051 C 0.0726 0.34177 0.39297 0.0
C1052 C 0.08287 0.33002 0.41494 0.0
C1053 C 0.10189 0.35074 0.46206 0.0
H1054 H 0.12702 0.33346 0.45345 0.0
C1055 C 0.14081 0.35243 0.52723 0.0
C1056 C 0.14111 0.33922 0.53044 0.0
C1057 C 0.13459 0.35442 0.50903 0.0
C1058 C 0.11999 0.33823 0.45621 0.0
H1059 H 0.08074 0.36504 0.4 0.0
H1060 H 0.09702 0.36639 0.42857 0.0
H1061 H 0.11121 0.33325 0.42512 0.0
H1062 H 0.13563 0.31796 0.51685 0.0
H1063 H 0.12456 0.32125 0.48531 0.0
H1064 H 0.11015 0.35523 0.49332 0.0
C1065 C 0.09043 0.35591 0.42045 0.0
C1066 C 0.11096 0.33813 0.43994 0.0
C1067 C 0.08113 0.35514 0.40408 0.0
C1068 C 0.13575 0.32835 0.51465 0.0
C1069 C 0.12939 0.33026 0.49656 0.0
C1070 C 0.11079 0.3507 0.47841 0.0
C1071 C 0.09155 0.34341 0.42584 0.0
C1072 C 0.1017 0.34424 0.44278 0.0
C1073 C 0.12835 0.34315 0.49375 0.0
C1074 C 0.11986 0.3443 0.47578 0.0
H1075 H 0.06707 0.31872 0.39055 0.0
H1076 H 0.08335 0.32015 0.41896 0.0
H1077 H 0.09476 0.35541 0.46473 0.0
H1078 H 0.14495 0.36101 0.53913 0.0
H1079 H 0.13433 0.36464 0.50721 0.0
C1080 C 0.08096 0.35153 0.27568 0.0
C1081 C 0.07035 0.33836 0.28534 0.0
C1082 C 0.08984 0.35112 0.25968 0.0
C1083 C 0.09274 0.32568 0.2216 0.0
H1084 H 0.13421 0.35651 0.22022 0.0
C1085 C 0.13342 0.32323 0.16329 0.0
C1086 C 0.14172 0.33628 0.15177 0.0
C1087 C 0.12585 0.32337 0.18118 0.0
C1088 C 0.12265 0.34785 0.22038 0.0
H1089 H 0.06058 0.31438 0.2854 0.0
H1090 H 0.07617 0.31369 0.2578 0.0
H1091 H 0.11813 0.35697 0.24744 0.0
H1092 H 0.14944 0.35986 0.15062 0.0
H1093 H 0.13633 0.36016 0.18193 0.0
H1094 H 0.0973 0.31656 0.19456 0.0
C1095 C 0.07752 0.32434 0.26235 0.0
C1096 C 0.11339 0.34815 0.2359 0.0
C1097 C 0.06858 0.32474 0.27826 0.0
C1098 C 0.14307 0.34964 0.1592 0.0
C1099 C 0.13561 0.34981 0.17716 0.0
C1100 C 0.10202 0.32533 0.20618 0.0
C1101 C 0.08838 0.33754 0.25301 0.0
C1102 C 0.09829 0.33713 0.23662 0.0
C1103 C 0.12655 0.33659 0.18799 0.0
C1104 C 0.11705 0.33646 0.20531 0.0
H1105 H 0.08258 0.36222 0.28068 0.0
H1106 H 0.09788 0.36148 0.25256 0.0
H1107 H 0.08114 0.31713 0.22146 0.0
H1108 H 0.13209 0.31275 0.15783 0.0
H1109 H 0.1191 0.31305 0.18937 0.0
C1110 C 0.69308 0.7469 0.27777 0.0
C1111 C 0.67968 0.73499 0.28512 0.0
C1112 C 0.69304 0.75571 0.26137 0.0
C1113 C 0.6705 0.75606 0.21714 0.0
H1114 H 0.69478 0.79892 0.2221 0.0
C1115 C 0.66618 0.79394 0.15622 0.0
C1116 C 0.67961 0.80585 0.14908 0.0
C1117 C 0.66589 0.78622 0.17414 0.0
C1118 C 0.68804 0.78698 0.22038 0.0
H1119 H 0.65577 0.72279 0.28056 0.0
H1120 H 0.65575 0.73809 0.2519 0.0
H1121 H 0.6952 0.78314 0.24989 0.0
H1122 H 0.70315 0.81946 0.15556 0.0
H1123 H 0.70273 0.8059 0.18679 0.0
H1124 H 0.66351 0.75978 0.18756 0.0
C1125 C 0.66628 0.7406 0.25881 0.0
C1126 C 0.68829 0.77793 0.23629 0.0
C1127 C 0.6663 0.73185 0.27529 0.0
C1128 C 0.69262 0.81042 0.16086 0.0
C1129 C 0.69235 0.80262 0.17873 0.0
C1130 C 0.6703 0.76508 0.20121 0.0
C1131 C 0.67963 0.75274 0.25184 0.0
C1132 C 0.67951 0.76237 0.23485 0.0
C1133 C 0.67905 0.79013 0.18523 0.0
C1134 C 0.67904 0.78066 0.20261 0.0
H1135 H 0.70359 0.74965 0.28498 0.0
H1136 H 0.70353 0.76485 0.25615 0.0
H1137 H 0.66378 0.74411 0.21542 0.0
H1138 H 0.65597 0.79027 0.1475 0.0
H1139 H 0.65538 0.77692 0.17898 0.0
C1140 C 0.28182 0.93391 0.28564 0.0
C1141 C 0.28163 0.94685 0.29157 0.0
C1142 C 0.27289 0.92503 0.26924 0.0
C1143 C 0.23961 0.91703 0.2377 0.0
H1144 H 0.25436 0.89751 0.20128 0.0
C1145 C 0.21228 0.88829 0.15905 0.0
C1146 C 0.21209 0.87499 0.1542 0.0
C1147 C 0.2193 0.89624 0.1772 0.0
C1148 C 0.25001 0.90273 0.21148 0.0
H1149 H 0.27211 0.96076 0.28455 0.0
H1150 H 0.25687 0.9455 0.25548 0.0
H1151 H 0.27019 0.9137 0.22909 0.0
H1152 H 0.21852 0.85926 0.16501 0.0
H1153 H 0.2307 0.87309 0.19676 0.0
H1154 H 0.21953 0.90628 0.21952 0.0
C1155 C 0.26365 0.94201 0.26386 0.0
C1156 C 0.25908 0.91202 0.22746 0.0
C1157 C 0.27249 0.95084 0.28043 0.0
C1158 C 0.21836 0.86939 0.16842 0.0
C1159 C 0.22548 0.8774 0.18646 0.0
C1160 C 0.23057 0.90783 0.22154 0.0
C1161 C 0.26364 0.92891 0.25816 0.0
C1162 C 0.254 0.91926 0.24086 0.0
C1163 C 0.22638 0.8911 0.19074 0.0
C1164 C 0.23566 0.90053 0.20833 0.0
H1165 H 0.28861 0.93041 0.29398 0.0
H1166 H 0.27303 0.91491 0.26558 0.0
H1167 H 0.23522 0.92221 0.24789 0.0
H1168 H 0.20751 0.89283 0.14837 0.0
H1169 H 0.21985 0.90678 0.18007 0.0
C1170 C 0.66621 0.93422 0.27629 0.0
C1171 C 0.6795 0.94464 0.28619 0.0
C1172 C 0.66637 0.92526 0.26008 0.0
C1173 C 0.69143 0.92206 0.22192 0.0
H1174 H 0.65985 0.88092 0.21868 0.0
C1175 C 0.69295 0.8815 0.16208 0.0
C1176 C 0.67995 0.8737 0.15002 0.0
C1177 C 0.6929 0.8889 0.18029 0.0
C1178 C 0.66872 0.89239 0.21937 0.0
H1179 H 0.70341 0.9539 0.2866 0.0
H1180 H 0.70366 0.93816 0.25868 0.0
H1181 H 0.6598 0.8969 0.24661 0.0
H1182 H 0.65654 0.86669 0.14821 0.0
H1183 H 0.65641 0.87951 0.1801 0.0
H1184 H 0.70036 0.91752 0.19472 0.0
C1185 C 0.69311 0.93705 0.26315 0.0
C1186 C 0.66866 0.90159 0.23529 0.0
C1187 C 0.69297 0.94607 0.27925 0.0
C1188 C 0.66671 0.87267 0.1572 0.0
C1189 C 0.66664 0.87996 0.17549 0.0
C1190 C 0.69155 0.91284 0.20612 0.0
C1191 C 0.67981 0.92644 0.25347 0.0
C1192 C 0.67996 0.91658 0.23668 0.0
C1193 C 0.67983 0.88853 0.18688 0.0
C1194 C 0.68015 0.89794 0.20458 0.0
H1195 H 0.65564 0.93286 0.28119 0.0
H1196 H 0.65594 0.91743 0.25272 0.0
H1197 H 0.70019 0.93358 0.22227 0.0
H1198 H 0.70333 0.88258 0.15683 0.0
H1199 H 0.70319 0.89528 0.18891 0.0
C1200 C 0.0677 0.74623 0.2786 0.0
C1201 C 0.07183 0.73728 0.28991 0.0
C1202 C 0.07646 0.75495 0.26211 0.0
C1203 C 0.10663 0.75951 0.22642 0.0
H1204 H 0.11167 0.79869 0.21772 0.0
C1205 C 0.14908 0.80004 0.16803 0.0
C1206 C 0.14323 0.80571 0.15328 0.0
C1207 C 0.14111 0.79311 0.186 0.0
C1208 C 0.11033 0.78776 0.21997 0.0
H1209 H 0.08842 0.73053 0.29274 0.0
H1210 H 0.10379 0.74593 0.26453 0.0
H1211 H 0.09585 0.78321 0.24594 0.0
H1212 H 0.12496 0.80946 0.14636 0.0
H1213 H 0.11109 0.79752 0.17797 0.0
H1214 H 0.12127 0.76417 0.20064 0.0
C1215 C 0.09363 0.74599 0.26795 0.0
C1216 C 0.10118 0.77883 0.23603 0.0
C1217 C 0.08482 0.73717 0.28425 0.0
C1218 C 0.12971 0.80516 0.15749 0.0
C1219 C 0.1218 0.79837 0.17558 0.0
C1220 C 0.11588 0.76849 0.21056 0.0
C1221 C 0.08961 0.75504 0.25667 0.0
C1222 C 0.0992 0.76457 0.23946 0.0
C1223 C 0.1272 0.79184 0.18967 0.0
C1224 C 0.11782 0.7827 0.20715 0.0
H1225 H 0.05774 0.74654 0.28252 0.0
H1226 H 0.07286 0.76157 0.25357 0.0
H1227 H 0.10515 0.7485 0.22822 0.0
H1228 H 0.1594 0.80016 0.1651 0.0
H1229 H 0.1456 0.78831 0.19673 0.0
C1230 C 0.27045 0.3244 0.28055 0.0
C1231 C 0.28222 0.33799 0.28796 0.0
C1232 C 0.26134 0.3241 0.26423 0.0
C1233 C 0.25998 0.3462 0.22035 0.0
H1234 H 0.21726 0.32103 0.22496 0.0
C1235 C 0.2212 0.34971 0.15996 0.0
C1236 C 0.20954 0.33618 0.15236 0.0
C1237 C 0.22904 0.35011 0.17787 0.0
C1238 C 0.22917 0.32802 0.22335 0.0
H1239 H 0.29382 0.36189 0.28364 0.0
H1240 H 0.27799 0.36132 0.25517 0.0
H1241 H 0.23345 0.32104 0.25267 0.0
H1242 H 0.19644 0.31254 0.15805 0.0
H1243 H 0.21023 0.31314 0.1893 0.0
H1244 H 0.25582 0.35304 0.19097 0.0
C1245 C 0.27583 0.3509 0.26194 0.0
C1246 C 0.23845 0.32801 0.23921 0.0
C1247 C 0.28488 0.35122 0.27832 0.0
C1248 C 0.20529 0.32314 0.16371 0.0
C1249 C 0.21323 0.32351 0.18159 0.0
C1250 C 0.25074 0.34616 0.20448 0.0
C1251 C 0.26385 0.33736 0.25486 0.0
C1252 C 0.25396 0.33713 0.23789 0.0
C1253 C 0.2255 0.33694 0.18851 0.0
C1254 C 0.2352 0.33712 0.20579 0.0
H1255 H 0.26806 0.314 0.28762 0.0
H1256 H 0.25232 0.31347 0.25894 0.0
H1257 H 0.27189 0.35317 0.21871 0.0
H1258 H 0.22461 0.35994 0.15157 0.0
H1259 H 0.23817 0.3607 0.18306 0.0
C1260 C 0.27074 0.32723 0.40195 0.0
C1261 C 0.28339 0.34047 0.39581 0.0
C1262 C 0.26172 0.32728 0.41797 0.0
C1263 C 0.25257 0.35246 0.44754 0.0
H1264 H 0.23347 0.31874 0.48463 0.0
C1265 C 0.22266 0.35137 0.5244 0.0
C1266 C 0.20954 0.33812 0.52914 0.0
C1267 C 0.23084 0.35228 0.50667 0.0
C1268 C 0.23857 0.32815 0.47422 0.0
H1269 H 0.2967 0.36411 0.40217 0.0
H1270 H 0.28121 0.36411 0.43064 0.0
H1271 H 0.2502 0.31917 0.45792 0.0
H1272 H 0.19434 0.31567 0.51853 0.0
H1273 H 0.2086 0.31727 0.48751 0.0
H1274 H 0.24116 0.36158 0.46445 0.0
C1275 C 0.27804 0.35374 0.42267 0.0
C1276 C 0.24818 0.32841 0.45888 0.0
C1277 C 0.28701 0.35372 0.40647 0.0
C1278 C 0.20432 0.32607 0.51518 0.0
C1279 C 0.21258 0.32693 0.49757 0.0
C1280 C 0.24306 0.35227 0.46308 0.0
C1281 C 0.26518 0.34054 0.42849 0.0
C1282 C 0.25526 0.34053 0.44524 0.0
C1283 C 0.22614 0.33989 0.49346 0.0
C1284 C 0.2359 0.34006 0.4765 0.0
H1285 H 0.26752 0.31684 0.39399 0.0
H1286 H 0.2518 0.31693 0.42173 0.0
H1287 H 0.25762 0.36188 0.43714 0.0
H1288 H 0.22692 0.36082 0.53491 0.0
H1289 H 0.24126 0.36239 0.50394 0.0
C1290 C 0.69129 0.94479 0.40034 0.0
C1291 C 0.67846 0.94513 0.3942 0.0
C1292 C 0.69077 0.9357 0.41669 0.0
C1293 C 0.66996 0.91645 0.46336 0.0
H1294 H 0.68823 0.89214 0.45549 0.0
C1295 C 0.66707 0.87668 0.5275 0.0
C1296 C 0.68026 0.87651 0.53164 0.0
C1297 C 0.66558 0.88323 0.50937 0.0
C1298 C 0.68319 0.89894 0.45805 0.0
H1299 H 0.65511 0.93647 0.40087 0.0
H1300 H 0.6543 0.92078 0.42966 0.0
H1301 H 0.68859 0.90798 0.42729 0.0
H1302 H 0.70203 0.88259 0.51976 0.0
H1303 H 0.69959 0.89424 0.4883 0.0
H1304 H 0.66495 0.90787 0.49427 0.0
C1305 C 0.66473 0.92751 0.42171 0.0
C1306 C 0.68339 0.90801 0.44186 0.0
C1307 C 0.6652 0.93648 0.4052 0.0
C1308 C 0.69165 0.88237 0.51681 0.0
C1309 C 0.69023 0.88907 0.49877 0.0
C1310 C 0.66988 0.90751 0.47962 0.0
C1311 C 0.67746 0.92686 0.42742 0.0
C1312 C 0.67687 0.91694 0.44441 0.0
C1313 C 0.67733 0.88994 0.49508 0.0
C1314 C 0.67658 0.8987 0.47724 0.0
H1315 H 0.70168 0.95128 0.39221 0.0
H1316 H 0.70081 0.93558 0.42095 0.0
H1317 H 0.66497 0.92332 0.46584 0.0
H1318 H 0.65808 0.87215 0.53865 0.0
H1319 H 0.65534 0.88337 0.50682 0.0
C1320 C 0.06954 0.74661 0.40781 0.0
C1321 C 0.07229 0.73616 0.39786 0.0
C1322 C 0.07872 0.75547 0.42408 0.0
C1323 C 0.10716 0.75858 0.46223 0.0
H1324 H 0.1169 0.79978 0.46521 0.0
C1325 C 0.1496 0.79935 0.52198 0.0
C1326 C 0.14448 0.80724 0.53389 0.0
C1327 C 0.14204 0.79184 0.50383 0.0
C1328 C 0.11425 0.78829 0.46459 0.0
H1329 H 0.08674 0.72667 0.39749 0.0
H1330 H 0.10285 0.74225 0.42554 0.0
H1331 H 0.1007 0.78377 0.43736 0.0
H1332 H 0.12808 0.81425 0.53552 0.0
H1333 H 0.11496 0.80126 0.50373 0.0
H1334 H 0.12077 0.76315 0.48945 0.0
C1335 C 0.09347 0.74347 0.42104 0.0
C1336 C 0.10489 0.77907 0.44872 0.0
C1337 C 0.08423 0.73454 0.40488 0.0
C1338 C 0.13223 0.80822 0.52663 0.0
C1339 C 0.12476 0.80083 0.50841 0.0
C1340 C 0.1166 0.76782 0.478 0.0
C1341 C 0.09094 0.75417 0.43071 0.0
C1342 C 0.10111 0.76405 0.44743 0.0
C1343 C 0.12932 0.79219 0.49715 0.0
C1344 C 0.12016 0.78275 0.47946 0.0
H1345 H 0.0604 0.74811 0.40287 0.0
H1346 H 0.07624 0.76336 0.43144 0.0
H1347 H 0.10434 0.74704 0.46195 0.0
H1348 H 0.15893 0.79831 0.5273 0.0
H1349 H 0.1459 0.78541 0.49532 0.0
C1350 C 0.33053 0.06646 0.73857 0.0
C1351 C 0.34388 0.07075 0.728 0.0
C1352 C 0.32998 0.07532 0.75464 0.0
C1353 C 0.35456 0.10659 0.79032 0.0
H1354 H 0.31937 0.11003 0.79755 0.0
C1355 C 0.35466 0.14915 0.84705 0.0
C1356 C 0.3437 0.14279 0.86245 0.0
C1357 C 0.35358 0.1412 0.8289 0.0
C1358 C 0.32925 0.10916 0.79565 0.0
H1359 H 0.3671 0.08779 0.72595 0.0
H1360 H 0.36606 0.10337 0.75329 0.0
H1361 H 0.31991 0.09402 0.76995 0.0
H1362 H 0.32249 0.12369 0.87028 0.0
H1363 H 0.32045 0.1099 0.83825 0.0
H1364 H 0.36398 0.12194 0.81576 0.0
C1365 C 0.35607 0.09297 0.74974 0.0
C1366 C 0.32955 0.0999 0.77997 0.0
C1367 C 0.35666 0.08403 0.73393 0.0
C1368 C 0.33107 0.12885 0.8586 0.0
C1369 C 0.3299 0.12097 0.8403 0.0
C1370 C 0.35434 0.11599 0.80571 0.0
C1371 C 0.34273 0.08877 0.76033 0.0
C1372 C 0.34222 0.09848 0.77712 0.0
C1373 C 0.34146 0.12683 0.82571 0.0
C1374 C 0.3417 0.11737 0.80855 0.0
H1375 H 0.32048 0.05627 0.73439 0.0
H1376 H 0.31957 0.07156 0.76265 0.0
H1377 H 0.36438 0.10555 0.78903 0.0
H1378 H 0.36459 0.1598 0.8497 0.0
H1379 H 0.36257 0.14602 0.81777 0.0
C1380 C 0.94981 0.26596 0.74239 0.0
C1381 C 0.94828 0.27794 0.73536 0.0
C1382 C 0.94117 0.25709 0.75882 0.0
C1383 C 0.91871 0.25652 0.80354 0.0
H1384 H 0.9 0.21368 0.79797 0.0
C1385 C 0.87682 0.21838 0.86418 0.0
C1386 C 0.87846 0.2065 0.87124 0.0
C1387 C 0.8841 0.22613 0.84625 0.0
C1388 C 0.90523 0.22562 0.79985 0.0
H1389 H 0.93671 0.2902 0.74058 0.0
H1390 H 0.92174 0.27478 0.76927 0.0
H1391 H 0.91603 0.22963 0.77028 0.0
H1392 H 0.88838 0.19293 0.86456 0.0
H1393 H 0.90123 0.20653 0.83328 0.0
H1394 H 0.90817 0.25262 0.83317 0.0
C1395 C 0.92964 0.27227 0.76208 0.0
C1396 C 0.91444 0.23475 0.784 0.0
C1397 C 0.93821 0.28109 0.74558 0.0
C1398 C 0.8868 0.20195 0.85933 0.0
C1399 C 0.89418 0.20978 0.84143 0.0
C1400 C 0.90958 0.2474 0.8194 0.0
C1401 C 0.93087 0.26005 0.76871 0.0
C1402 C 0.92127 0.25031 0.78566 0.0
C1403 C 0.8933 0.22226 0.83506 0.0
C1404 C 0.90268 0.23183 0.81776 0.0
H1405 H 0.95744 0.2632 0.73488 0.0
H1406 H 0.94253 0.24788 0.76377 0.0
H1407 H 0.92398 0.26846 0.80544 0.0
H1408 H 0.87036 0.22203 0.87301 0.0
H1409 H 0.88284 0.23543 0.84149 0.0
C1410 C 0.7484 0.6884 0.7371 0.0
C1411 C 0.73983 0.67512 0.72583 0.0
C1412 C 0.7576 0.68901 0.75349 0.0
C1413 C 0.77782 0.67085 0.77284 0.0
H1414 H 0.77743 0.68825 0.82615 0.0
C1415 C 0.80309 0.66142 0.84739 0.0
C1416 C 0.80866 0.67244 0.86296 0.0
C1417 C 0.79655 0.66319 0.82937 0.0
C1418 C 0.77795 0.68363 0.81125 0.0
H1419 H 0.73411 0.65201 0.72319 0.0
H1420 H 0.75022 0.65315 0.75168 0.0
H1421 H 0.76196 0.68845 0.79768 0.0
H1422 H 0.81268 0.69435 0.87136 0.0
H1423 H 0.80175 0.69772 0.83958 0.0
H1424 H 0.79384 0.66609 0.78624 0.0
C1425 C 0.74985 0.66309 0.74774 0.0
C1426 C 0.769 0.68368 0.79497 0.0
C1427 C 0.74053 0.66242 0.73154 0.0
C1428 C 0.80838 0.68565 0.85962 0.0
C1429 C 0.80199 0.68749 0.84151 0.0
C1430 C 0.78689 0.67094 0.78903 0.0
C1431 C 0.75858 0.67641 0.75878 0.0
C1432 C 0.76867 0.67709 0.77571 0.0
C1433 C 0.79555 0.67609 0.82644 0.0
C1434 C 0.78692 0.67714 0.80857 0.0
H1435 H 0.74813 0.69838 0.7331 0.0
H1436 H 0.76424 0.69943 0.76171 0.0
H1437 H 0.77797 0.66591 0.75802 0.0
H1438 H 0.80296 0.65103 0.84969 0.0
H1439 H 0.79159 0.65408 0.81829 0.0
C1440 C 0.73689 0.65956 0.61082 0.0
C1441 C 0.73857 0.6731 0.6181 0.0
C1442 C 0.74591 0.65932 0.59492 0.0
C1443 C 0.78181 0.68344 0.56867 0.0
H1444 H 0.7659 0.65203 0.52706 0.0
C1445 C 0.81158 0.68531 0.49184 0.0
C1446 C 0.81031 0.67198 0.48436 0.0
C1447 C 0.80413 0.68541 0.50984 0.0
C1448 C 0.77057 0.66075 0.53876 0.0
H1449 H 0.75075 0.69699 0.61382 0.0
H1450 H 0.76619 0.69654 0.58568 0.0
H1451 H 0.74966 0.65239 0.55398 0.0
H1452 H 0.80081 0.64847 0.49037 0.0
H1453 H 0.78782 0.64865 0.52197 0.0
H1454 H 0.80266 0.69196 0.55301 0.0
C1455 C 0.75815 0.68612 0.59264 0.0
C1456 C 0.76125 0.66098 0.55419 0.0
C1457 C 0.74919 0.68637 0.60866 0.0
C1458 C 0.80209 0.65891 0.49587 0.0
C1459 C 0.79451 0.65899 0.5138 0.0
C1460 C 0.79111 0.68326 0.55313 0.0
C1461 C 0.75677 0.6726 0.58576 0.0
C1462 C 0.76672 0.67235 0.56932 0.0
C1463 C 0.79513 0.67216 0.52065 0.0
C1464 C 0.78558 0.67193 0.53797 0.0
H1465 H 0.72889 0.64913 0.61781 0.0
H1466 H 0.74462 0.64872 0.59022 0.0
H1467 H 0.7865 0.69221 0.58029 0.0
H1468 H 0.81788 0.69554 0.48327 0.0
H1469 H 0.80478 0.69572 0.51465 0.0
C1470 C 0.36452 0.08431 0.61523 0.0
C1471 C 0.35052 0.07252 0.62095 0.0
C1472 C 0.36584 0.09379 0.59896 0.0
C1473 C 0.34378 0.10604 0.56762 0.0
H1474 H 0.37713 0.12033 0.52994 0.0
C1475 C 0.36052 0.13204 0.48044 0.0
C1476 C 0.3556 0.14241 0.48073 0.0
C1477 C 0.36113 0.12515 0.49868 0.0
C1478 C 0.36772 0.11643 0.54029 0.0
H1479 H 0.32696 0.06123 0.61364 0.0
H1480 H 0.32932 0.07749 0.58487 0.0
H1481 H 0.37518 0.10428 0.55864 0.0
H1482 H 0.34809 0.15421 0.50056 0.0
H1483 H 0.34935 0.14225 0.53281 0.0
H1484 H 0.336 0.11769 0.54864 0.0
C1485 C 0.33925 0.07966 0.59332 0.0
C1486 C 0.36669 0.10733 0.55691 0.0
C1487 C 0.33791 0.07024 0.60969 0.0
C1488 C 0.35188 0.14622 0.49989 0.0
C1489 C 0.35249 0.13928 0.51828 0.0
C1490 C 0.34479 0.1151 0.5509 0.0
C1491 C 0.35321 0.09166 0.58788 0.0
C1492 C 0.3546 0.10185 0.57065 0.0
C1493 C 0.35695 0.12851 0.51782 0.0
C1494 C 0.35665 0.12021 0.53684 0.0
H1495 H 0.37445 0.08648 0.62365 0.0
H1496 H 0.37675 0.103 0.59539 0.0
H1497 H 0.33446 0.10226 0.57811 0.0
H1498 H 0.3637 0.12905 0.46595 0.0
H1499 H 0.36446 0.11682 0.49762 0.0
C1500 C 0.93425 0.282 0.61734 0.0
C1501 C 0.94287 0.27715 0.62805 0.0
C1502 C 0.92435 0.27321 0.60161 0.0
C1503 C 0.90252 0.23453 0.58349 0.0
H1504 H 0.90295 0.25154 0.52972 0.0
C1505 C 0.87756 0.19905 0.50941 0.0
C1506 C 0.87282 0.20465 0.49306 0.0
C1507 C 0.8834 0.20732 0.52771 0.0
C1508 C 0.90238 0.24662 0.54477 0.0
H1509 H 0.9479 0.25928 0.63047 0.0
H1510 H 0.93056 0.24397 0.60315 0.0
H1511 H 0.91896 0.26749 0.55763 0.0
H1512 H 0.86925 0.2226 0.48364 0.0
H1513 H 0.87883 0.23678 0.51596 0.0
H1514 H 0.88594 0.21367 0.57076 0.0
C1515 C 0.93144 0.25454 0.607 0.0
C1516 C 0.91165 0.25579 0.56072 0.0
C1517 C 0.94148 0.26339 0.62251 0.0
C1518 C 0.87288 0.21808 0.49602 0.0
C1519 C 0.87855 0.22627 0.51443 0.0
C1520 C 0.89309 0.22538 0.56762 0.0
C1521 C 0.92271 0.2593 0.59648 0.0
C1522 C 0.91203 0.24979 0.5801 0.0
C1523 C 0.88449 0.22131 0.53015 0.0
C1524 C 0.8931 0.23125 0.5479 0.0
H1525 H 0.93505 0.29252 0.62123 0.0
H1526 H 0.91773 0.27714 0.59376 0.0
H1527 H 0.90242 0.22966 0.59842 0.0
H1528 H 0.87784 0.18884 0.5074 0.0
H1529 H 0.88796 0.20316 0.53931 0.0
C1530 C 0.33004 0.26846 0.60885 0.0
C1531 C 0.34348 0.27922 0.61807 0.0
C1532 C 0.32999 0.2592 0.59294 0.0
C1533 C 0.35228 0.24377 0.57141 0.0
H1534 H 0.32734 0.23569 0.52253 0.0
C1535 C 0.35808 0.21572 0.49666 0.0
C1536 C 0.34533 0.20713 0.48445 0.0
C1537 C 0.35731 0.22299 0.5146 0.0
C1538 C 0.33417 0.23757 0.53624 0.0
H1539 H 0.36743 0.28883 0.61748 0.0
H1540 H 0.3673 0.2727 0.58968 0.0
H1541 H 0.32721 0.25193 0.54981 0.0
H1542 H 0.3216 0.19843 0.48221 0.0
H1543 H 0.32011 0.21067 0.51387 0.0
H1544 H 0.35923 0.22939 0.55786 0.0
C1545 C 0.35681 0.27135 0.59492 0.0
C1546 C 0.33414 0.24696 0.55184 0.0
C1547 C 0.35687 0.28068 0.61073 0.0
C1548 C 0.33162 0.20508 0.4913 0.0
C1549 C 0.33081 0.21223 0.5093 0.0
C1550 C 0.35224 0.23428 0.55585 0.0
C1551 C 0.34336 0.26042 0.58598 0.0
C1552 C 0.34326 0.25025 0.56955 0.0
C1553 C 0.34373 0.22172 0.52076 0.0
C1554 C 0.34323 0.23112 0.538 0.0
H1555 H 0.31951 0.267 0.61414 0.0
H1556 H 0.31943 0.25083 0.58645 0.0
H1557 H 0.35927 0.24591 0.58503 0.0
H1558 H 0.36882 0.21763 0.49159 0.0
H1559 H 0.36751 0.23027 0.52291 0.0
C1560 C 0.73282 0.08044 0.61589 0.0
C1561 C 0.73744 0.07169 0.62671 0.0
C1562 C 0.74113 0.08928 0.5992 0.0
C1563 C 0.77868 0.10764 0.57674 0.0
H1564 H 0.75868 0.10528 0.52457 0.0
C1565 C 0.80882 0.14184 0.50267 0.0
C1566 C 0.80544 0.13309 0.48449 0.0
C1567 C 0.80062 0.13586 0.52092 0.0
C1568 C 0.7644 0.10612 0.5391 0.0
H1569 H 0.75447 0.06544 0.62846 0.0
H1570 H 0.76892 0.08089 0.59945 0.0
H1571 H 0.74408 0.09183 0.5549 0.0
H1572 H 0.79126 0.1109 0.4718 0.0
H1573 H 0.77682 0.10081 0.50315 0.0
H1574 H 0.79904 0.12171 0.56072 0.0
C1575 C 0.75892 0.08095 0.60395 0.0
C1576 C 0.75604 0.0985 0.55647 0.0
C1577 C 0.75054 0.07199 0.62044 0.0
C1578 C 0.79387 0.1182 0.48517 0.0
C1579 C 0.7856 0.11234 0.5032 0.0
C1580 C 0.78704 0.11543 0.55941 0.0
C1581 C 0.75432 0.08971 0.59317 0.0
C1582 C 0.76312 0.09892 0.57534 0.0
C1583 C 0.78882 0.12109 0.52123 0.0
C1584 C 0.77999 0.11446 0.5403 0.0
H1585 H 0.72281 0.08049 0.62034 0.0
H1586 H 0.73735 0.09595 0.59119 0.0
H1587 H 0.78441 0.10828 0.59117 0.0
H1588 H 0.81765 0.15334 0.50271 0.0
H1589 H 0.80335 0.14283 0.53469 0.0
C1590 C 0.93845 0.65936 0.61233 0.0
C1591 C 0.95042 0.67284 0.61966 0.0
C1592 C 0.92945 0.65922 0.59598 0.0
C1593 C 0.92862 0.68138 0.55181 0.0
H1594 H 0.88582 0.65712 0.55675 0.0
C1595 C 0.89024 0.6854 0.49113 0.0
C1596 C 0.87827 0.67193 0.48387 0.0
C1597 C 0.89809 0.68578 0.50903 0.0
C1598 C 0.89775 0.66386 0.55504 0.0
H1599 H 0.96251 0.69672 0.61511 0.0
H1600 H 0.94688 0.69644 0.58655 0.0
H1601 H 0.90186 0.6569 0.58449 0.0
H1602 H 0.8647 0.64842 0.49015 0.0
H1603 H 0.8785 0.64899 0.52135 0.0
H1604 H 0.92462 0.68818 0.5223 0.0
C1605 C 0.94447 0.68597 0.59344 0.0
C1606 C 0.90694 0.66371 0.57092 0.0
C1607 C 0.95341 0.68613 0.60987 0.0
C1608 C 0.87378 0.65898 0.49554 0.0
C1609 C 0.88173 0.65932 0.51339 0.0
C1610 C 0.91946 0.68147 0.53591 0.0
C1611 C 0.93228 0.67254 0.58647 0.0
C1612 C 0.92248 0.67249 0.56949 0.0
C1613 C 0.89427 0.67266 0.51999 0.0
C1614 C 0.90389 0.67275 0.53732 0.0
H1615 H 0.93581 0.64891 0.61952 0.0
H1616 H 0.92026 0.64867 0.59077 0.0
H1617 H 0.94055 0.6881 0.55009 0.0
H1618 H 0.89384 0.69557 0.4825 0.0
H1619 H 0.90743 0.69631 0.51395 0.0
C1620 C 0.95484 0.68825 0.73849 0.0
C1621 C 0.95109 0.67504 0.72764 0.0
C1622 C 0.94597 0.68826 0.75484 0.0
C1623 C 0.91617 0.66281 0.79104 0.0
H1624 H 0.90954 0.69616 0.79774 0.0
C1625 C 0.87249 0.66025 0.84786 0.0
C1626 C 0.87778 0.67212 0.86215 0.0
C1627 C 0.88075 0.66125 0.83019 0.0
C1628 C 0.91133 0.68679 0.79606 0.0
H1629 H 0.93503 0.65146 0.72557 0.0
H1630 H 0.91946 0.65154 0.75353 0.0
H1631 H 0.92583 0.69655 0.77009 0.0
H1632 H 0.89533 0.69466 0.86847 0.0
H1633 H 0.90969 0.69649 0.83739 0.0
H1634 H 0.90151 0.65299 0.81681 0.0
C1635 C 0.92943 0.66187 0.74984 0.0
C1636 C 0.92074 0.68704 0.78032 0.0
C1637 C 0.93836 0.66183 0.73368 0.0
C1638 C 0.89101 0.68534 0.85771 0.0
C1639 C 0.8992 0.6864 0.83992 0.0
C1640 C 0.90666 0.6625 0.80658 0.0
C1641 C 0.93306 0.67508 0.76061 0.0
C1642 C 0.92328 0.67504 0.77759 0.0
C1643 C 0.8944 0.67418 0.82635 0.0
C1644 C 0.90412 0.67447 0.80926 0.0
H1645 H 0.96459 0.69862 0.73427 0.0
H1646 H 0.94926 0.6986 0.76298 0.0
H1647 H 0.91808 0.65351 0.78977 0.0
H1648 H 0.86243 0.64986 0.85097 0.0
H1649 H 0.8767 0.65172 0.81986 0.0
C1650 C 0.35665 0.28124 0.73234 0.0
C1651 C 0.34346 0.28078 0.726 0.0
C1652 C 0.35664 0.27259 0.74894 0.0
C1653 C 0.33141 0.23936 0.77991 0.0
H1654 H 0.36527 0.25465 0.81744 0.0
C1655 C 0.33209 0.21196 0.85824 0.0
C1656 C 0.34522 0.21196 0.86358 0.0
C1657 C 0.33138 0.2191 0.84022 0.0
C1658 C 0.35581 0.25015 0.80693 0.0
H1659 H 0.31997 0.27111 0.73255 0.0
H1660 H 0.32004 0.25633 0.76192 0.0
H1661 H 0.36499 0.27028 0.78952 0.0
H1662 H 0.36771 0.21897 0.85385 0.0
H1663 H 0.36644 0.23137 0.82231 0.0
H1664 H 0.32212 0.21933 0.7978 0.0
C1665 C 0.33033 0.26311 0.75372 0.0
C1666 C 0.35564 0.25911 0.7909 0.0
C1667 C 0.33032 0.2717 0.73698 0.0
C1668 C 0.35739 0.21865 0.85004 0.0
C1669 C 0.35673 0.2259 0.83212 0.0
C1670 C 0.33153 0.23043 0.79609 0.0
C1671 C 0.34347 0.26333 0.75978 0.0
C1672 C 0.34346 0.25383 0.77713 0.0
C1673 C 0.34384 0.22652 0.8273 0.0
C1674 C 0.34376 0.23572 0.80972 0.0
H1675 H 0.36696 0.28801 0.72415 0.0
H1676 H 0.36692 0.27289 0.75292 0.0
H1677 H 0.32195 0.23482 0.76942 0.0
H1678 H 0.32253 0.20686 0.8684 0.0
H1679 H 0.32132 0.21943 0.83696 0.0
C1680 C 0.73585 0.07909 0.74502 0.0
C1681 C 0.73863 0.06882 0.7346 0.0
C1682 C 0.74508 0.08779 0.76136 0.0
C1683 C 0.7737 0.09063 0.79889 0.0
H1684 H 0.78342 0.13179 0.80281 0.0
C1685 C 0.81626 0.13084 0.85898 0.0
C1686 C 0.81123 0.1387 0.87112 0.0
C1687 C 0.80865 0.12347 0.84078 0.0
C1688 C 0.78078 0.12031 0.80194 0.0
H1689 H 0.75318 0.05946 0.7335 0.0
H1690 H 0.76937 0.07475 0.7617 0.0
H1691 H 0.76712 0.11602 0.77487 0.0
H1692 H 0.79492 0.14581 0.87311 0.0
H1693 H 0.7817 0.13306 0.84127 0.0
H1694 H 0.78739 0.09496 0.82595 0.0
C1695 C 0.75993 0.07596 0.75749 0.0
C1696 C 0.77136 0.11123 0.78601 0.0
C1697 C 0.75065 0.0672 0.74124 0.0
C1698 C 0.799 0.13979 0.86406 0.0
C1699 C 0.79148 0.13254 0.84579 0.0
C1700 C 0.78319 0.09974 0.81473 0.0
C1701 C 0.75737 0.0865 0.7676 0.0
C1702 C 0.76759 0.09623 0.78438 0.0
C1703 C 0.79595 0.12393 0.83429 0.0
C1704 C 0.78674 0.11464 0.81653 0.0
H1705 H 0.72665 0.08059 0.74038 0.0
H1706 H 0.74258 0.09556 0.76907 0.0
H1707 H 0.77089 0.0791 0.79833 0.0
H1708 H 0.82558 0.1297 0.86415 0.0
H1709 H 0.81246 0.11707 0.83209 0.0
C1710 C 0.07238 0.387 0.01586 0.0
C1711 C 0.05739 0.37598 0.01333 0.0
C1712 C 0.08316 0.38316 0.02055 0.0
C1713 C 0.09158 0.35259 0.02044 0.0
H1714 H 0.11767 0.37473 0.06646 0.0
C1715 C 0.12681 0.33305 0.06645 0.0
C1716 C 0.13985 0.34382 0.07638 0.0
C1717 C 0.11808 0.33728 0.0549 0.0
C1718 C 0.11076 0.36862 0.05326 0.0
H1719 H 0.04208 0.35221 0.01299 0.0
H1720 H 0.061 0.34549 0.02122 0.0
H1721 H 0.0997 0.38128 0.05383 0.0
H1722 H 0.15461 0.36737 0.08103 0.0
H1723 H 0.13991 0.37489 0.05994 0.0
H1724 H 0.10267 0.33987 0.01996 0.0
C1725 C 0.06437 0.35711 0.01949 0.0
C1726 C 0.10036 0.37235 0.0461 0.0
C1727 C 0.05352 0.36097 0.01489 0.0
C1728 C 0.14464 0.3589 0.07333 0.0
C1729 C 0.13607 0.36315 0.06153 0.0
C1730 C 0.10212 0.34892 0.02751 0.0
C1731 C 0.07926 0.3682 0.02277 0.0
C1732 C 0.09058 0.36434 0.0297 0.0
C1733 C 0.12232 0.35239 0.05298 0.0
C1734 C 0.11181 0.35684 0.04413 0.0
H1735 H 0.07579 0.39867 0.01464 0.0
H1736 H 0.09456 0.39195 0.02268 0.0
H1737 H 0.08427 0.34629 0.00766 0.0
H1738 H 0.12277 0.32134 0.06897 0.0
H1739 H 0.10755 0.32865 0.04873 0.0
C1740 C 0.65737 0.69291 0.01349 0.0
C1741 C 0.6423 0.68203 0.01518 0.0
C1742 C 0.66195 0.70799 0.01627 0.0
C1743 C 0.64735 0.73443 0.02024 0.0
H1744 H 0.68323 0.75809 0.05268 0.0
C1745 C 0.65832 0.78438 0.07194 0.0
C1746 C 0.67285 0.7965 0.07341 0.0
C1747 C 0.65521 0.77209 0.05949 0.0
C1748 C 0.67333 0.75173 0.04326 0.0
H1749 H 0.62021 0.67849 0.0209 0.0
H1750 H 0.62816 0.70452 0.02636 0.0
H1751 H 0.67681 0.73316 0.04154 0.0
H1752 H 0.69538 0.80564 0.06236 0.0
H1753 H 0.68997 0.78402 0.04062 0.0
H1754 H 0.64352 0.75281 0.02308 0.0
C1755 C 0.63647 0.70158 0.02234 0.0
C1756 C 0.66963 0.73741 0.03683 0.0
C1757 C 0.6319 0.68657 0.01938 0.0
C1758 C 0.68404 0.79651 0.06123 0.0
C1759 C 0.68098 0.78409 0.04901 0.0
C1760 C 0.65096 0.74869 0.0269 0.0
C1761 C 0.65157 0.71252 0.02099 0.0
C1762 C 0.65641 0.72841 0.02564 0.0
C1763 C 0.66663 0.77157 0.04854 0.0
C1764 C 0.66384 0.75738 0.03883 0.0
H1765 H 0.66565 0.68978 0.01015 0.0
H1766 H 0.67364 0.71608 0.01481 0.0
H1767 H 0.63727 0.728 0.01122 0.0
H1768 H 0.64955 0.78408 0.08137 0.0
H1769 H 0.64407 0.76257 0.05959 0.0
C1770 C 0.32263 0.97054 0.01869 0.0
C1771 C 0.33233 0.96509 0.01468 0.0
C1772 C 0.30756 0.96073 0.02261 0.0
C1773 C 0.27785 0.92099 0.01843 0.0
H1774 H 0.26193 0.9301 0.06718 0.0
C1775 C 0.22987 0.87649 0.06724 0.0
C1776 C 0.22075 0.88042 0.07845 0.0
C1777 C 0.24138 0.88696 0.05487 0.0
C1778 C 0.26601 0.92747 0.05324 0.0
H1779 H 0.33369 0.94505 0.01089 0.0
H1780 H 0.30757 0.92803 0.01783 0.0
H1781 H 0.2862 0.94842 0.05422 0.0
H1782 H 0.21564 0.89796 0.08395 0.0
H1783 H 0.23551 0.91616 0.06201 0.0
H1784 H 0.25779 0.89984 0.01784 0.0
C1785 C 0.31151 0.93985 0.01779 0.0
C1786 C 0.27998 0.93801 0.04582 0.0
C1787 C 0.32654 0.94964 0.01397 0.0
C1788 C 0.22259 0.89466 0.07564 0.0
C1789 C 0.23405 0.90511 0.0632 0.0
C1790 C 0.26383 0.91044 0.02583 0.0
C1791 C 0.30186 0.94526 0.02249 0.0
C1792 C 0.28623 0.93477 0.02863 0.0
C1793 C 0.24398 0.90159 0.05337 0.0
C1794 C 0.25787 0.91342 0.04362 0.0
H1795 H 0.32673 0.98238 0.01929 0.0
H1796 H 0.3004 0.96525 0.02598 0.0
H1797 H 0.28223 0.91823 0.00494 0.0
H1798 H 0.22886 0.86568 0.06928 0.0
H1799 H 0.24884 0.88385 0.04768 0.0
C1800 C 0.36418 0.04736 -0.00386 0.0
C1801 C 0.3779 0.05073 0.00503 0.0
C1802 C 0.36108 0.05873 0.99166 0.0
C1803 C 0.38123 0.09905 0.98089 0.0
H1804 H 0.34167 0.09401 0.97935 0.0
C1805 C 0.3499 0.13364 0.95368 0.0
C1806 C 0.35668 0.13819 0.93415 0.0
C1807 C 0.3526 0.12408 0.96602 0.0
C1808 C 0.35283 0.09569 0.98001 0.0
H1809 H 0.39865 0.06847 0.01758 0.0
H1810 H 0.39308 0.08814 0.01047 0.0
H1811 H 0.34557 0.0748 -0.00491 0.0
H1812 H 0.3718 0.13683 0.91238 0.0
H1813 H 0.37654 0.12035 0.93367 0.0
H1814 H 0.38851 0.11984 0.96582 0.0
C1815 C 0.38489 0.07684 0.00623 0.0
C1816 C 0.35503 0.08459 0.98878 0.0
C1817 C 0.38807 0.06554 0.01042 0.0
C1818 C 0.36649 0.13348 0.92744 0.0
C1819 C 0.36925 0.1241 0.93971 0.0
C1820 C 0.37904 0.1101 0.97224 0.0
C1821 C 0.37156 0.07367 -0.00381 0.0
C1822 C 0.36923 0.086 0.98894 0.0
C1823 C 0.36226 0.11914 0.95905 0.0
C1824 C 0.36476 0.1084 0.97117 0.0
H1825 H 0.35613 0.03604 0.9918 0.0
H1826 H 0.35075 0.05585 0.98377 0.0
H1827 H 0.3923 0.10052 0.98045 0.0
H1828 H 0.34224 0.13711 0.95908 0.0
H1829 H 0.3471 0.12049 0.9809 0.0
C1830 C 0.9729 0.32016 0.00296 0.0
C1831 C 0.96893 0.33121 0.00113 0.0
C1832 C 0.9622 0.30512 0.00041 0.0
C1833 C 0.92104 0.27919 -0.00241 0.0
H1834 H 0.93205 0.25455 0.96548 0.0
C1835 C 0.88026 0.22849 0.9483 0.0
C1836 C 0.88254 0.21629 0.94677 0.0
C1837 C 0.88987 0.24093 0.96026 0.0
C1838 C 0.92884 0.26118 0.97482 0.0
H1839 H 0.95057 0.33507 -0.00465 0.0
H1840 H 0.93212 0.30909 0.99035 0.0
H1841 H 0.95105 0.27956 0.97564 0.0
H1842 H 0.89611 0.20715 0.95728 0.0
H1843 H 0.91301 0.229 0.9782 0.0
H1844 H 0.89866 0.26097 -0.00426 0.0
C1845 C 0.94337 0.31189 0.99427 0.0
C1846 C 0.93976 0.27555 0.98068 0.0
C1847 C 0.95402 0.32686 -0.00304 0.0
C1848 C 0.89401 0.21635 0.95846 0.0
C1849 C 0.90377 0.2289 0.97021 0.0
C1850 C 0.9101 0.26487 0.99154 0.0
C1851 C 0.94729 0.30078 -0.00414 0.0
C1852 C 0.93597 0.28489 0.99174 0.0
C1853 C 0.90208 0.24152 0.97065 0.0
C1854 C 0.91384 0.25581 0.97974 0.0
H1855 H 0.98429 0.32314 0.00628 0.0
H1856 H 0.96562 0.29689 0.00201 0.0
H1857 H 0.91773 0.28589 0.00653 0.0
H1858 H 0.87159 0.22875 0.93922 0.0
H1859 H 0.88833 0.2505 0.96014 0.0
C1860 C 0.68994 0.62719 0.00691 0.0
C1861 C 0.68522 0.63767 0.00498 0.0
C1862 C 0.7045 0.63097 0.0021 0.0
C1863 C 0.74244 0.66265 0.99205 0.0
H1864 H 0.74598 0.63319 0.95927 0.0
C1865 C 0.79342 0.67551 0.9412 0.0
C1866 C 0.79692 0.66421 0.93792 0.0
C1867 C 0.7813 0.67298 0.9535 0.0
C1868 C 0.7453 0.64146 0.96877 0.0
H1869 H 0.69229 0.66052 -0.00283 0.0
H1870 H 0.71772 0.66709 0.9884 0.0
H1871 H 0.72189 0.62751 0.97244 0.0
H1872 H 0.79109 0.64178 0.94647 0.0
H1873 H 0.77029 0.63753 0.96844 0.0
H1874 H 0.76591 0.67673 0.98784 0.0
C1875 C 0.71018 0.65597 0.99389 0.0
C1876 C 0.73142 0.6382 0.97632 0.0
C1877 C 0.69557 0.65219 -0.00119 0.0
C1878 C 0.78878 0.65076 0.9487 0.0
C1879 C 0.77669 0.64824 0.96105 0.0
C1880 C 0.75638 0.66593 0.98446 0.0
C1881 C 0.71473 0.64531 -0.00491 0.0
C1882 C 0.72976 0.64877 0.98795 0.0
C1883 C 0.77241 0.65908 0.96289 0.0
C1884 C 0.75796 0.65539 0.9726 0.0
H1885 H 0.6823 0.61594 0.01183 0.0
H1886 H 0.70768 0.62256 0.00365 0.0
H1887 H 0.74159 0.67099 0.00115 0.0
H1888 H 0.79958 0.68607 0.93332 0.0
H1889 H 0.77836 0.68159 0.95453 0.0
C1890 C 0.95184 0.63138 0.00309 0.0
C1891 C 0.96729 0.64109 0.00288 0.0
C1892 C 0.94205 0.63662 -0.00088 0.0
C1893 C 0.94024 0.66652 0.97156 0.0
H1894 H 0.90195 0.6502 -0.00145 0.0
C1895 C 0.89697 0.68076 0.94125 0.0
C1896 C 0.88276 0.66837 0.93794 0.0
C1897 C 0.90737 0.67965 0.95385 0.0
C1898 C 0.91259 0.65486 0.99083 0.0
H1899 H 0.98455 0.66405 -0.00101 0.0
H1900 H 0.9674 0.67323 0.99204 0.0
H1901 H 0.92031 0.64408 0.01167 0.0
H1902 H 0.86802 0.64542 0.9464 0.0
H1903 H 0.8861 0.64343 0.96829 0.0
H1904 H 0.9324 0.67685 0.95026 0.0
C1905 C 0.96289 0.66152 -0.00488 0.0
C1906 C 0.92311 0.65135 -0.00165 0.0
C1907 C 0.97271 0.65627 -0.0008 0.0
C1908 C 0.8788 0.65521 0.94882 0.0
C1909 C 0.88922 0.65408 0.96136 0.0
C1910 C 0.92972 0.67001 0.96402 0.0
C1911 C 0.94743 0.65171 -0.00523 0.0
C1912 C 0.93695 0.65687 0.98852 0.0
C1913 C 0.90383 0.6661 0.96336 0.0
C1914 C 0.91563 0.66397 0.97327 0.0
H1915 H 0.94727 0.61962 0.0059 0.0
H1916 H 0.93024 0.62871 -0.0013 0.0
H1917 H 0.95069 0.67082 0.96343 0.0
H1918 H 0.90028 0.69109 0.93319 0.0
H1919 H 0.9184 0.68924 0.95543 0.0
C1920 C 0.35804 0.32062 0.00093 0.0
C1921 C 0.37321 0.33025 0.00509 0.0
C1922 C 0.35267 0.3055 -0.00312 0.0
C1923 C 0.36231 0.27556 0.00103 0.0
H1924 H 0.33769 0.25976 0.9516 0.0
C1925 C 0.35928 0.22774 0.9516 0.0
C1926 C 0.34644 0.21877 0.93974 0.0
C1927 C 0.36012 0.23913 0.96426 0.0
C1928 C 0.34427 0.2638 0.96573 0.0
H1929 H 0.39452 0.33144 0.00902 0.0
H1930 H 0.38521 0.30523 0.0019 0.0
H1931 H 0.34365 0.28406 0.96489 0.0
H1932 H 0.3239 0.21373 0.93339 0.0
H1933 H 0.32521 0.23337 0.95588 0.0
H1934 H 0.36326 0.25544 0.00151 0.0
C1935 C 0.37741 0.30927 0.0019 0.0
C1936 C 0.34771 0.27779 0.97334 0.0
C1937 C 0.38277 0.32435 0.00582 0.0
C1938 C 0.334 0.22058 0.94222 0.0
C1939 C 0.3348 0.23191 0.95496 0.0
C1940 C 0.35882 0.26152 0.99346 0.0
C1941 C 0.36234 0.29969 -0.00295 0.0
C1942 C 0.35708 0.28401 0.99077 0.0
C1943 C 0.34809 0.24175 0.96542 0.0
C1944 C 0.35005 0.25561 0.97541 0.0
H1945 H 0.35037 0.3248 0.0003 0.0
H1946 H 0.34097 0.29839 0.99337 0.0
H1947 H 0.36936 0.27994 0.0147 0.0
H1948 H 0.36912 0.22676 0.94983 0.0
H1949 H 0.37058 0.24652 0.97192 0.0
C1950 C 0.69271 0.06495 0.00142 0.0
C1951 C 0.68849 0.0501 0.00569 0.0
C1952 C 0.70759 0.07554 -0.00192 0.0
C1953 C 0.74346 0.07878 0.98284 0.0
H1954 H 0.75851 0.12027 -0.00324 0.0
C1955 C 0.80217 0.12406 0.95864 0.0
C1956 C 0.80198 0.13527 0.94673 0.0
C1957 C 0.78985 0.11452 0.97066 0.0
C1958 C 0.75448 0.10871 0.99287 0.0
H1959 H 0.69671 0.03483 0.01038 0.0
H1960 H 0.7228 0.05341 0.00505 0.0
H1961 H 0.73396 0.1015 0.00875 0.0
H1962 H 0.7893 0.14595 0.939 0.0
H1963 H 0.76795 0.12961 0.96044 0.0
H1964 H 0.76399 0.08608 0.96682 0.0
C1965 C 0.71454 0.05681 0.00383 0.0
C1966 C 0.74037 0.09794 -0.0004 0.0
C1967 C 0.69958 0.04616 0.00701 0.0
C1968 C 0.78975 0.13748 0.94824 0.0
C1969 C 0.77754 0.12811 0.96049 0.0
C1970 C 0.75765 0.08954 0.97633 0.0
C1971 C 0.71874 0.07163 -0.0009 0.0
C1972 C 0.73448 0.08286 0.99419 0.0
C1973 C 0.77722 0.11617 0.97119 0.0
C1974 C 0.76317 0.10466 0.98083 0.0
H1975 H 0.68446 0.06837 0.00018 0.0
H1976 H 0.71026 0.08671 0.99406 0.0
H1977 H 0.73931 0.06735 0.97811 0.0
H1978 H 0.81138 0.122 0.95748 0.0
H1979 H 0.78994 0.10548 0.97887 0.0
C1980 C 0.65983 0.96626 0.0141 0.0
C1981 C 0.64479 0.96227 0.01534 0.0
C1982 C 0.66419 0.95565 0.01734 0.0
C1983 C 0.64902 0.91454 0.02157 0.0
H1984 H 0.68462 0.92648 0.05446 0.0
C1985 C 0.6592 0.8751 0.07302 0.0
C1986 C 0.67366 0.87732 0.07448 0.0
C1987 C 0.65628 0.88446 0.06079 0.0
C1988 C 0.67479 0.92301 0.04493 0.0
H1989 H 0.62253 0.94395 0.02077 0.0
H1990 H 0.63009 0.92568 0.02701 0.0
H1991 H 0.67856 0.94517 0.04314 0.0
H1992 H 0.69626 0.89059 0.06367 0.0
H1993 H 0.6912 0.90711 0.04233 0.0
H1994 H 0.64491 0.89223 0.02443 0.0
C1995 C 0.63856 0.93686 0.02301 0.0
C1996 C 0.6713 0.93374 0.03839 0.0
C1997 C 0.63421 0.94741 0.01959 0.0
C1998 C 0.68498 0.88853 0.06255 0.0
C1999 C 0.68212 0.89807 0.05055 0.0
C2000 C 0.65243 0.90379 0.02833 0.0
C2001 C 0.65362 0.94081 0.02205 0.0
C2002 C 0.6582 0.92962 0.02699 0.0
C2003 C 0.66783 0.89639 0.05006 0.0
C2004 C 0.66521 0.90788 0.04041 0.0
H2005 H 0.66825 0.9776 0.01074 0.0
H2006 H 0.67586 0.95909 0.01618 0.0
H2007 H 0.63903 0.91096 0.01239 0.0
H2008 H 0.65033 0.86662 0.08227 0.0
H2009 H 0.64519 0.88295 0.06087 0.0
C2010 C 0.06733 0.68624 0.01246 0.0
C2011 C 0.05218 0.68152 0.01486 0.0
C2012 C 0.07816 0.70096 0.01653 0.0
C2013 C 0.08443 0.73912 0.02558 0.0
H2014 H 0.11837 0.74371 0.05713 0.0
C2015 C 0.12346 0.79106 0.07522 0.0
C2016 C 0.13835 0.79469 0.07789 0.0
C2017 C 0.11367 0.77879 0.06308 0.0
C2018 C 0.10915 0.74273 0.04795 0.0
H2019 H 0.0365 0.68873 0.02273 0.0
H2020 H 0.05548 0.71445 0.03032 0.0
H2021 H 0.09974 0.71925 0.04495 0.0
H2022 H 0.15489 0.789 0.06834 0.0
H2023 H 0.13796 0.76794 0.04668 0.0
H2024 H 0.09377 0.76268 0.02924 0.0
C2025 C 0.05897 0.70678 0.02498 0.0
C2026 C 0.09841 0.72864 0.04097 0.0
C2027 C 0.04808 0.69202 0.02074 0.0
C2028 C 0.14353 0.78659 0.0666 0.0
C2029 C 0.13375 0.77436 0.05441 0.0
C2030 C 0.09522 0.75327 0.03264 0.0
C2031 C 0.07417 0.71136 0.02331 0.0
C2032 C 0.08585 0.7266 0.0298 0.0
C2033 C 0.11856 0.7699 0.05328 0.0
C2034 C 0.10767 0.75523 0.04403 0.0
H2035 H 0.07087 0.67848 0.0077 0.0
H2036 H 0.08973 0.70414 0.01461 0.0
H2037 H 0.07499 0.73799 0.01683 0.0
H2038 H 0.11916 0.79719 0.08353 0.0
H2039 H 0.10206 0.77571 0.06256 0.0
C2040 C 0.33015 0.38753 0.01947 0.0
C2041 C 0.33407 0.37647 0.0171 0.0
C2042 C 0.31551 0.38373 0.02374 0.0
C2043 C 0.27648 0.35325 0.02248 0.0
H2044 H 0.27211 0.37509 0.06836 0.0
C2045 C 0.22139 0.33332 0.06717 0.0
C2046 C 0.21903 0.34399 0.07711 0.0
C2047 C 0.23441 0.33767 0.05586 0.0
C2048 C 0.27303 0.36907 0.05519 0.0
H2049 H 0.32552 0.35269 0.01659 0.0
H2050 H 0.29984 0.34603 0.02407 0.0
H2051 H 0.29674 0.38171 0.05642 0.0
H2052 H 0.22771 0.3675 0.08201 0.0
H2053 H 0.25005 0.37523 0.06133 0.0
H2054 H 0.25268 0.34055 0.02134 0.0
C2055 C 0.30815 0.35766 0.02255 0.0
C2056 C 0.28722 0.37283 0.04842 0.0
C2057 C 0.32287 0.36147 0.01838 0.0
C2058 C 0.22928 0.3591 0.07428 0.0
C2059 C 0.24217 0.36347 0.06272 0.0
C2060 C 0.2622 0.34954 0.02915 0.0
C2061 C 0.30438 0.36877 0.02566 0.0
C2062 C 0.28914 0.36492 0.0321 0.0
C2063 C 0.24526 0.3528 0.0542 0.0
C2064 C 0.26029 0.35735 0.04571 0.0
H2065 H 0.33845 0.39919 0.01846 0.0
H2066 H 0.31292 0.39254 0.02576 0.0
H2067 H 0.27761 0.34703 0.00975 0.0
H2068 H 0.21374 0.32158 0.06951 0.0
H2069 H 0.23639 0.3291 0.0497 0.0
C2070 C 0.72017 0.69469 0.34834 0.0
C2071 C 0.72386 0.70964 0.34661 0.0
C2072 C 0.73116 0.69103 0.35293 0.0
C2073 C 0.76732 0.70676 0.37918 0.0
H2074 H 0.77004 0.67451 0.35309 0.0
C2075 C 0.81235 0.69425 0.406 0.0
C2076 C 0.80783 0.67923 0.40902 0.0
C2077 C 0.80355 0.69829 0.39433 0.0
C2078 C 0.76938 0.6835 0.36064 0.0
H2079 H 0.74209 0.73243 0.3476 0.0
H2080 H 0.76111 0.72605 0.35562 0.0
H2081 H 0.75133 0.68054 0.34095 0.0
H2082 H 0.79099 0.65664 0.40171 0.0
H2083 H 0.77537 0.66357 0.38171 0.0
H2084 H 0.78483 0.70947 0.3994 0.0
C2085 C 0.74974 0.71716 0.35363 0.0
C2086 C 0.75866 0.68694 0.35365 0.0
C2087 C 0.73882 0.7208 0.34895 0.0
C2088 C 0.79482 0.66831 0.3992 0.0
C2089 C 0.78587 0.67232 0.38779 0.0
C2090 C 0.7779 0.70325 0.38627 0.0
C2091 C 0.74602 0.70226 0.35601 0.0
C2092 C 0.75752 0.69862 0.36288 0.0
C2093 C 0.78983 0.68736 0.38589 0.0
C2094 C 0.7791 0.69156 0.37715 0.0
H2095 H 0.70877 0.68583 0.34659 0.0
H2096 H 0.72794 0.67945 0.35478 0.0
H2097 H 0.76655 0.71564 0.3869 0.0
H2098 H 0.82229 0.70284 0.41362 0.0
H2099 H 0.8072 0.70998 0.39274 0.0
C2100 C 0.32513 0.02945 0.34653 0.0
C2101 C 0.31013 0.01855 0.34881 0.0
C2102 C 0.32971 0.04454 0.34922 0.0
C2103 C 0.31503 0.0709 0.35421 0.0
H2104 H 0.3519 0.0951 0.38432 0.0
C2105 C 0.3278 0.12155 0.4057 0.0
C2106 C 0.34239 0.13362 0.40628 0.0
C2107 C 0.32418 0.10915 0.39317 0.0
C2108 C 0.34171 0.08859 0.37554 0.0
H2109 H 0.28814 0.01496 0.35555 0.0
H2110 H 0.29611 0.041 0.36092 0.0
H2111 H 0.34519 0.07003 0.37358 0.0
H2112 H 0.36446 0.14258 0.3936 0.0
H2113 H 0.35818 0.12081 0.37169 0.0
H2114 H 0.31123 0.08929 0.35737 0.0
C2115 C 0.30436 0.03808 0.35647 0.0
C2116 C 0.33784 0.07418 0.36933 0.0
C2117 C 0.29979 0.02307 0.35356 0.0
C2118 C 0.35308 0.13351 0.39311 0.0
C2119 C 0.34953 0.121 0.3808 0.0
C2120 C 0.31881 0.08525 0.36067 0.0
C2121 C 0.3194 0.04906 0.35447 0.0
C2122 C 0.32429 0.06499 0.35896 0.0
C2123 C 0.33517 0.10848 0.38129 0.0
C2124 C 0.33207 0.09415 0.37174 0.0
H2125 H 0.33336 0.02634 0.34274 0.0
H2126 H 0.34135 0.05265 0.34723 0.0
H2127 H 0.30468 0.06433 0.34581 0.0
H2128 H 0.31946 0.12132 0.41601 0.0
H2129 H 0.31307 0.09965 0.39402 0.0
C2130 C 0.99027 0.29824 0.3532 0.0
C2131 C 1.00093 0.29465 0.34637 0.0
C2132 C 0.97597 0.28699 0.35865 0.0
C2133 C 0.95737 0.24849 0.37756 0.0
H2134 H 0.92135 0.25059 0.3712 0.0
C2135 C 0.89134 0.21178 0.40178 0.0
C2136 C 0.8934 0.21003 0.423 0.0
C2137 C 0.90358 0.22113 0.38934 0.0
C2138 C 0.93128 0.24975 0.37283 0.0
H2139 H 1.00464 0.27645 0.33853 0.0
H2140 H 0.97977 0.25693 0.3476 0.0
H2141 H 0.94423 0.26904 0.35407 0.0
H2142 H 0.90976 0.21613 0.44768 0.0
H2143 H 0.93091 0.23221 0.42618 0.0
H2144 H 0.94459 0.22943 0.39652 0.0
C2145 C 0.9825 0.2684 0.3493 0.0
C2146 C 0.94441 0.2604 0.36322 0.0
C2147 C 0.99676 0.27961 0.34402 0.0
C2148 C 0.90784 0.21741 0.4314 0.0
C2149 C 0.91998 0.22652 0.41904 0.0
C2150 C 0.94433 0.23795 0.38716 0.0
C2151 C 0.97205 0.27193 0.35726 0.0
C2152 C 0.95768 0.26002 0.36576 0.0
C2153 C 0.91803 0.22856 0.3979 0.0
C2154 C 0.93121 0.23863 0.38529 0.0
H2155 H 0.99313 0.30973 0.35517 0.0
H2156 H 0.96825 0.29012 0.36486 0.0
H2157 H 0.96738 0.24791 0.3801 0.0
H2158 H 0.8803 0.20619 0.39497 0.0
H2159 H 0.90178 0.22246 0.37306 0.0
C2160 C 0.05066 0.39661 0.33455 0.0
C2161 C 0.04086 0.38118 0.33382 0.0
C2162 C 0.04554 0.40654 0.33086 0.0
C2163 C 0.01588 0.40891 0.30325 0.0
H2164 H 0.03225 0.44686 0.33192 0.0
C2165 C 1.00207 0.45278 0.27458 0.0
C2166 C 0.01448 0.46703 0.27204 0.0
C2167 C 1.00306 0.44217 0.28676 0.0
C2168 C 0.02758 0.43633 0.32373 0.0
H2169 H 0.01786 0.36408 0.32924 0.0
H2170 H 1.00889 0.38146 0.32275 0.0
H2171 H 0.0382 0.42824 0.3443 0.0
H2172 H 0.03736 0.48162 0.28143 0.0
H2173 H 0.03915 0.46318 0.30256 0.0
H2174 H 1.00573 0.41712 0.28221 0.0
C2175 C 0.02059 0.38585 0.32605 0.0
C2176 C 0.031 0.42565 0.33083 0.0
C2177 C 0.02571 0.3759 0.32986 0.0
C2178 C 0.02754 0.47081 0.28327 0.0
C2179 C 0.02857 0.46017 0.29537 0.0
C2180 C 0.01251 0.41959 0.29613 0.0
C2181 C 0.03048 0.4013 0.32627 0.0
C2182 C 0.02544 0.41194 0.3204 0.0
C2183 C 0.01652 0.44554 0.29658 0.0
C2184 C 0.01856 0.43356 0.306 0.0
H2185 H 0.0624 0.40107 0.33759 0.0
H2186 H 0.05351 0.41833 0.33088 0.0
H2187 H 0.01157 0.39856 0.29467 0.0
H2188 H 0.99182 0.4496 0.26623 0.0
H2189 H 0.99345 0.43113 0.28775 0.0
C2190 C 0.61995 0.65978 0.33141 0.0
C2191 C 0.63486 0.66409 0.33558 0.0
C2192 C 0.60933 0.64484 0.32837 0.0
C2193 C 0.60589 0.60873 0.31369 0.0
H2194 H 0.56463 0.59389 0.32807 0.0
C2195 C 0.56034 0.54977 0.28987 0.0
C2196 C 0.54898 0.54985 0.27805 0.0
C2197 C 0.57 0.5622 0.3019 0.0
C2198 C 0.57612 0.59785 0.32406 0.0
H2199 H 0.65021 0.65598 0.3404 0.0
H2200 H 0.63158 0.62978 0.33557 0.0
H2201 H 0.58358 0.61863 0.33969 0.0
H2202 H 0.53815 0.56243 0.27055 0.0
H2203 H 0.55472 0.58396 0.29198 0.0
H2204 H 0.59834 0.58796 0.29788 0.0
C2205 C 0.62815 0.63802 0.33422 0.0
C2206 C 0.58699 0.61208 0.33058 0.0
C2207 C 0.63883 0.65304 0.3371 0.0
C2208 C 0.54674 0.56206 0.27972 0.0
C2209 C 0.55624 0.57437 0.29196 0.0
C2210 C 0.59503 0.59444 0.30737 0.0
C2211 C 0.61326 0.63372 0.3296 0.0
C2212 C 0.60198 0.61789 0.32498 0.0
C2213 C 0.56833 0.57482 0.30253 0.0
C2214 C 0.57998 0.58899 0.31204 0.0
H2215 H 0.6165 0.668 0.33003 0.0
H2216 H 0.5981 0.64208 0.32443 0.0
H2217 H 0.61724 0.61282 0.30882 0.0
H2218 H 0.56241 0.54057 0.2886 0.0
H2219 H 0.57916 0.56219 0.31001 0.0
C2220 C 0.36389 0.98834 0.33375 0.0
C2221 C 0.35331 0.97386 0.33978 0.0
C2222 C 0.3785 0.99193 0.32926 0.0
C2223 C 0.39945 0.97364 0.31262 0.0
H2224 H 0.43416 0.01201 0.32414 0.0
C2225 C 0.45661 0.98535 0.2856 0.0
C2226 C 0.46481 0.99867 0.27458 0.0
C2227 C 0.44462 0.98308 0.29799 0.0
C2228 C 0.42457 1.00125 0.32078 0.0
H2229 H 0.35001 0.95203 0.34693 0.0
H2230 H 0.37541 0.95832 0.33954 0.0
H2231 H 0.40985 1.00662 0.33703 0.0
H2232 H 0.46775 0.02061 0.26962 0.0
H2233 H 0.44669 0.01657 0.29089 0.0
H2234 H 0.41394 0.96832 0.29599 0.0
C2235 C 0.37239 0.96684 0.33773 0.0
C2236 C 0.41063 0.99818 0.32813 0.0
C2237 C 0.35782 0.96325 0.34208 0.0
C2238 C 0.46153 0.01014 0.2777 0.0
C2239 C 0.4495 0.00785 0.29003 0.0
C2240 C 0.41333 0.97669 0.30533 0.0
C2241 C 0.38285 0.98112 0.3308 0.0
C2242 C 0.39787 0.98435 0.324 0.0
C2243 C 0.4405 0.99406 0.2996 0.0
C2244 C 0.42607 0.99056 0.30915 0.0
H2245 H 0.36077 0.99677 0.33183 0.0
H2246 H 0.38622 1.00301 0.32382 0.0
H2247 H 0.38987 0.963 0.30872 0.0
H2248 H 0.45875 0.97624 0.28351 0.0
H2249 H 0.43813 0.97244 0.30553 0.0
C2250 C 0.63962 0.98711 0.32909 0.0
C2251 C 0.63551 0.97257 0.33518 0.0
C2252 C 0.62875 0.99105 0.32521 0.0
C2253 C 0.58914 0.97347 0.3104 0.0
H2254 H 0.59415 0.01239 0.32177 0.0
C2255 C 0.54403 0.98618 0.28517 0.0
C2256 C 0.54917 0.99933 0.27368 0.0
C2257 C 0.55385 0.98387 0.29738 0.0
C2258 C 0.5926 1.00147 0.31848 0.0
H2259 H 0.61684 0.95104 0.34312 0.0
H2260 H 0.59802 0.95796 0.33681 0.0
H2261 H 0.61299 1.00652 0.33381 0.0
H2262 H 0.56833 0.02097 0.2678 0.0
H2263 H 0.58552 0.01682 0.28873 0.0
H2264 H 0.56903 0.96847 0.29468 0.0
C2265 C 0.60957 0.96623 0.33446 0.0
C2266 C 0.60342 0.99813 0.32532 0.0
C2267 C 0.62038 0.96228 0.33818 0.0
C2268 C 0.56407 0.01063 0.27623 0.0
C2269 C 0.57391 0.00829 0.28836 0.0
C2270 C 0.57837 0.9768 0.30362 0.0
C2271 C 0.61357 0.98055 0.32744 0.0
C2272 C 0.60186 0.9841 0.32122 0.0
C2273 C 0.56905 0.9946 0.29831 0.0
C2274 C 0.57998 0.99086 0.30741 0.0
H2275 H 0.65118 0.99529 0.32665 0.0
H2276 H 0.63223 1.00214 0.31968 0.0
H2277 H 0.5877 0.96267 0.30652 0.0
H2278 H 0.53267 0.9772 0.28355 0.0
H2279 H 0.54966 0.97333 0.30525 0.0
C2280 C 0.05494 0.66103 0.34024 0.0
C2281 C 0.04444 0.66568 0.33787 0.0
C2282 C 0.05112 0.64635 0.33602 0.0
C2283 C 0.0194 0.60814 0.32673 0.0
H2284 H 0.04868 0.60397 0.29476 0.0
C2285 C 1.00642 0.55632 0.27694 0.0
C2286 C 0.01776 0.55285 0.27396 0.0
C2287 C 1.00894 0.56858 0.2891 0.0
C2288 C 0.04046 0.60483 0.30405 0.0
H2289 H 0.0215 0.65839 0.32993 0.0
H2290 H 0.01487 0.63273 0.32214 0.0
H2291 H 0.05439 0.62832 0.30719 0.0
H2292 H 0.04021 0.55883 0.28299 0.0
H2293 H 0.04442 0.57985 0.30474 0.0
H2294 H 1.00532 0.58457 0.323 0.0
C2295 C 0.02604 0.64043 0.32754 0.0
C2296 C 0.04374 0.61886 0.31117 0.0
C2297 C 0.02985 0.65515 0.3319 0.0
C2298 C 0.0312 0.56111 0.28497 0.0
C2299 C 0.03369 0.57333 0.2972 0.0
C2300 C 0.0161 0.59404 0.31956 0.0
C2301 C 0.03672 0.63592 0.32915 0.0
C2302 C 0.03324 0.62074 0.3225 0.0
C2303 C 0.02284 0.57761 0.29865 0.0
C2304 C 0.02657 0.59224 0.308 0.0
H2305 H 0.06623 0.6688 0.34505 0.0
H2306 H 0.05955 0.64321 0.33789 0.0
H2307 H 0.01111 0.60916 0.3356 0.0
H2308 H 0.99587 0.55006 0.26887 0.0
H2309 H 1.00032 0.57151 0.28986 0.0
C2310 C 0.36498 0.38163 0.33463 0.0
C2311 C 0.35357 0.38514 0.33592 0.0
C2312 C 0.37959 0.3927 0.33025 0.0
C2313 C 0.39982 0.42858 0.30383 0.0
H2314 H 0.43483 0.43212 0.331 0.0
C2315 C 0.45733 0.47396 0.27812 0.0
C2316 C 0.46804 0.46965 0.27558 0.0
C2317 C 0.44443 0.46511 0.28947 0.0
C2318 C 0.42518 0.43123 0.32315 0.0
H2319 H 0.34872 0.40315 0.33432 0.0
H2320 H 0.37407 0.42231 0.32664 0.0
H2321 H 0.41011 0.41331 0.34272 0.0
H2322 H 0.47406 0.45314 0.28344 0.0
H2323 H 0.4514 0.43743 0.30288 0.0
H2324 H 0.41461 0.44596 0.28374 0.0
C2325 C 0.37172 0.41101 0.32883 0.0
C2326 C 0.41102 0.42045 0.32989 0.0
C2327 C 0.35719 0.40001 0.33333 0.0
C2328 C 0.46606 0.45681 0.28556 0.0
C2329 C 0.45303 0.4478 0.29666 0.0
C2330 C 0.41391 0.43922 0.29698 0.0
C2331 C 0.38306 0.40746 0.32691 0.0
C2332 C 0.39818 0.41902 0.32027 0.0
C2333 C 0.44177 0.45154 0.29807 0.0
C2334 C 0.42682 0.44073 0.3065 0.0
H2335 H 0.36257 0.37029 0.33659 0.0
H2336 H 0.38807 0.3896 0.32874 0.0
H2337 H 0.39017 0.42759 0.29582 0.0
H2338 H 0.45859 0.48377 0.27036 0.0
H2339 H 0.43623 0.46859 0.29068 0.0
C2340 C 0.30062 0.28143 0.35204 0.0
C2341 C 0.31111 0.29631 0.34778 0.0
C2342 C 0.30509 0.27101 0.35574 0.0
C2343 C 0.33792 0.26835 0.37207 0.0
H2344 H 0.31204 0.22675 0.35811 0.0
C2345 C 0.35204 0.22363 0.39725 0.0
C2346 C 0.34066 0.21227 0.40894 0.0
C2347 C 0.34916 0.2331 0.38514 0.0
C2348 C 0.31941 0.23834 0.36203 0.0
H2349 H 0.33456 0.31182 0.34346 0.0
H2350 H 0.3424 0.29353 0.34942 0.0
H2351 H 0.30599 0.24525 0.34556 0.0
H2352 H 0.31723 0.20126 0.41615 0.0
H2353 H 0.31207 0.21752 0.3946 0.0
H2354 H 0.35125 0.26135 0.38866 0.0
C2355 C 0.33069 0.28997 0.35035 0.0
C2356 C 0.31591 0.24896 0.35496 0.0
C2357 C 0.3262 0.30046 0.34682 0.0
C2358 C 0.32615 0.20987 0.40714 0.0
C2359 C 0.32322 0.21918 0.39481 0.0
C2360 C 0.3415 0.25775 0.37892 0.0
C2361 C 0.3202 0.27512 0.35508 0.0
C2362 C 0.3249 0.26407 0.36036 0.0
C2363 C 0.3348 0.23123 0.38429 0.0
C2364 C 0.33209 0.24259 0.3744 0.0
H2365 H 0.2889 0.27785 0.35301 0.0
H2366 H 0.29668 0.2598 0.35974 0.0
H2367 H 0.34503 0.27981 0.3768 0.0
H2368 H 0.36336 0.22582 0.3986 0.0
H2369 H 0.35826 0.24223 0.37708 0.0
C2370 C 0.73763 0.02083 0.34076 0.0
C2371 C 0.72248 0.01602 0.34342 0.0
C2372 C 0.7484 0.03566 0.34426 0.0
C2373 C 0.75448 0.07383 0.35234 0.0
H2374 H 0.78813 0.07875 0.38494 0.0
C2375 C 0.79175 0.12525 0.40363 0.0
C2376 C 0.80639 0.1286 0.40798 0.0
C2377 C 0.7826 0.11341 0.39038 0.0
C2378 C 0.77903 0.0777 0.37542 0.0
H2379 H 0.70671 0.02317 0.35105 0.0
H2380 H 0.72559 0.04909 0.35763 0.0
H2381 H 0.76983 0.05425 0.3726 0.0
H2382 H 0.82339 0.12321 0.39981 0.0
H2383 H 0.80768 0.10305 0.37607 0.0
H2384 H 0.76359 0.09737 0.35582 0.0
C2385 C 0.72912 0.0414 0.35254 0.0
C2386 C 0.76846 0.06358 0.36836 0.0
C2387 C 0.7183 0.02653 0.34889 0.0
C2388 C 0.81218 0.12098 0.39687 0.0
C2389 C 0.80308 0.10922 0.38349 0.0
C2390 C 0.76511 0.08804 0.35943 0.0
C2391 C 0.74433 0.04608 0.3507 0.0
C2392 C 0.75596 0.0614 0.35691 0.0
C2393 C 0.78795 0.10476 0.38102 0.0
C2394 C 0.77745 0.09012 0.37126 0.0
H2395 H 0.74123 0.01307 0.3363 0.0
H2396 H 0.75998 0.03892 0.34225 0.0
H2397 H 0.74508 0.07258 0.34336 0.0
H2398 H 0.78702 0.13108 0.41169 0.0
H2399 H 0.77104 0.11037 0.38881 0.0
C2400 C 0.98992 0.69412 0.34627 0.0
C2401 C 1.00079 0.70923 0.34788 0.0
C2402 C 0.97489 0.68952 0.34941 0.0
C2403 C 0.94844 0.70404 0.35439 0.0
H2404 H 0.92543 0.66827 0.38662 0.0
C2405 C 0.89919 0.69301 0.40696 0.0
C2406 C 0.88711 0.67847 0.40824 0.0
C2407 C 0.91135 0.69614 0.39439 0.0
C2408 C 0.9316 0.67814 0.37727 0.0
H2409 H 1.00437 0.73134 0.35386 0.0
H2410 H 0.97844 0.72336 0.35995 0.0
H2411 H 0.95019 0.67474 0.37502 0.0
H2412 H 0.87788 0.65594 0.39674 0.0
H2413 H 0.89927 0.66138 0.37481 0.0
H2414 H 0.93005 0.70779 0.35778 0.0
C2415 C 0.98133 0.71503 0.35572 0.0
C2416 C 0.94583 0.68187 0.37057 0.0
C2417 C 0.99629 0.71962 0.35238 0.0
C2418 C 0.88699 0.66728 0.39578 0.0
C2419 C 0.89927 0.67036 0.38344 0.0
C2420 C 0.93428 0.7004 0.36133 0.0
C2421 C 0.97041 0.6999 0.35442 0.0
C2422 C 0.9546 0.69505 0.35943 0.0
C2423 C 0.91177 0.68473 0.38313 0.0
C2424 C 0.92583 0.68756 0.37318 0.0
H2425 H 0.99302 0.68584 0.3427 0.0
H2426 H 0.9668 0.67781 0.34798 0.0
H2427 H 0.95468 0.71408 0.34542 0.0
H2428 H 0.89957 0.70178 0.41661 0.0
H2429 H 0.92084 0.7073 0.39462 0.0
C2430 C 0.40561 0.05546 0.68882 0.0
C2431 C 0.39076 0.04439 0.68528 0.0
C2432 C 0.41637 0.05166 0.69384 0.0
C2433 C 0.42536 0.02151 0.69262 0.0
H2434 H 0.45033 0.04264 0.74006 0.0
C2435 C 0.46105 1.00199 0.73766 0.0
C2436 C 0.47382 0.01273 0.74816 0.0
C2437 C 0.45217 1.00619 0.72641 0.0
C2438 C 0.44373 0.03682 0.72648 0.0
H2439 H 0.37568 0.0206 0.68356 0.0
H2440 H 0.39458 0.01395 0.69235 0.0
H2441 H 0.43222 0.04904 0.72752 0.0
H2442 H 0.48797 0.03623 0.75414 0.0
H2443 H 0.47302 0.04372 0.73358 0.0
H2444 H 0.43692 0.00926 0.69162 0.0
C2445 C 0.39785 0.02558 0.69117 0.0
C2446 C 0.43325 0.04046 0.71937 0.0
C2447 C 0.38702 0.02939 0.68625 0.0
C2448 C 0.47821 0.02778 0.74599 0.0
C2449 C 0.46949 0.03201 0.7345 0.0
C2450 C 0.43599 0.01794 0.69964 0.0
C2451 C 0.4126 0.03669 0.69538 0.0
C2452 C 0.4239 0.03283 0.70242 0.0
C2453 C 0.45598 0.02123 0.72537 0.0
C2454 C 0.44529 0.02552 0.71674 0.0
H2455 H 0.40893 0.06712 0.6881 0.0
H2456 H 0.42767 0.06048 0.6967 0.0
H2457 H 0.41838 0.01552 0.67941 0.0
H2458 H 0.45732 0.99029 0.73948 0.0
H2459 H 0.44184 0.99754 0.71976 0.0
C2460 C 0.9874 0.36 0.68682 0.0
C2461 C 0.97241 0.34871 0.68603 0.0
C2462 C 0.99122 0.37479 0.69068 0.0
C2463 C 0.97636 0.39611 0.71642 0.0
H2464 H 1.00796 0.43019 0.68838 0.0
C2465 C 0.99003 0.45446 0.74093 0.0
C2466 C 1.00515 0.46484 0.74352 0.0
C2467 C 0.98557 0.44136 0.72963 0.0
C2468 C 0.99916 0.4208 0.69645 0.0
H2469 H 0.94968 0.34423 0.68788 0.0
H2470 H 0.95634 0.36988 0.69459 0.0
H2471 H 1.00145 0.40506 0.67734 0.0
H2472 H 0.02748 0.47012 0.73579 0.0
H2473 H 0.01981 0.44712 0.71641 0.0
H2474 H 0.97432 0.41158 0.73604 0.0
C2475 C 0.96516 0.36732 0.69247 0.0
C2476 C 0.99544 0.40641 0.69011 0.0
C2477 C 0.96135 0.35261 0.68854 0.0
C2478 C 0.01573 0.46237 0.7336 0.0
C2479 C 0.0113 0.44915 0.72254 0.0
C2480 C 0.98013 0.41042 0.72285 0.0
C2481 C 0.98012 0.37855 0.69394 0.0
C2482 C 0.98401 0.39391 0.70007 0.0
C2483 C 0.99617 0.43819 0.72114 0.0
C2484 C 0.9916 0.423 0.71302 0.0
H2485 H 0.99619 0.35737 0.68491 0.0
H2486 H 1.00286 0.38319 0.69184 0.0
H2487 H 0.96769 0.38673 0.72469 0.0
H2488 H 0.98171 0.4561 0.74866 0.0
H2489 H 0.97381 0.43338 0.72842 0.0
C2490 C 0.664 0.61404 0.67259 0.0
C2491 C 0.66848 0.62894 0.67713 0.0
C2492 C 0.64962 0.60272 0.67715 0.0
C2493 C 0.61193 0.59479 0.69387 0.0
H2494 H 0.61116 0.56086 0.72008 0.0
C2495 C 0.57561 0.54795 0.75808 0.0
C2496 C 0.56098 0.54234 0.75094 0.0
C2497 C 0.58761 0.55719 0.74557 0.0
C2498 C 0.61115 0.57022 0.71272 0.0
H2499 H 0.66118 0.64373 0.68912 0.0
H2500 H 0.63615 0.6239 0.69771 0.0
H2501 H 0.63399 0.57995 0.7046 0.0
H2502 H 0.54732 0.54167 0.725 0.0
H2503 H 0.56854 0.5581 0.7028 0.0
H2504 H 0.58915 0.58524 0.70313 0.0
C2505 C 0.64366 0.62096 0.69026 0.0
C2506 C 0.62423 0.58113 0.70361 0.0
C2507 C 0.65804 0.63234 0.68545 0.0
C2508 C 0.55853 0.54587 0.73077 0.0
C2509 C 0.57064 0.55531 0.7182 0.0
C2510 C 0.59878 0.58382 0.70306 0.0
C2511 C 0.6394 0.60596 0.68665 0.0
C2512 C 0.62491 0.59372 0.6944 0.0
C2513 C 0.58531 0.5611 0.72555 0.0
C2514 C 0.59838 0.5716 0.71304 0.0
H2515 H 0.67171 0.61106 0.66589 0.0
H2516 H 0.64664 0.59135 0.67365 0.0
H2517 H 0.612 0.60423 0.68668 0.0
H2518 H 0.57778 0.54535 0.77357 0.0
H2519 H 0.59872 0.5616 0.75186 0.0
C2520 C 0.7185 0.73073 0.66821 0.0
C2521 C 0.70869 0.71531 0.66725 0.0
C2522 C 0.71342 0.74069 0.6646 0.0
C2523 C 0.68392 0.74326 0.63681 0.0
H2524 H 0.70033 0.78114 0.66566 0.0
C2525 C 0.67053 0.7874 0.60811 0.0
C2526 C 0.68303 0.80159 0.60558 0.0
C2527 C 0.67139 0.77674 0.62032 0.0
C2528 C 0.69565 0.77062 0.65743 0.0
H2529 H 0.68571 0.69826 0.66238 0.0
H2530 H 0.67681 0.7157 0.65604 0.0
H2531 H 0.70612 0.76241 0.67805 0.0
H2532 H 0.70592 0.81604 0.61502 0.0
H2533 H 0.70749 0.7975 0.63623 0.0
H2534 H 0.67392 0.75159 0.61573 0.0
C2535 C 0.68848 0.72006 0.65945 0.0
C2536 C 0.69897 0.75988 0.66453 0.0
C2537 C 0.69357 0.71007 0.66317 0.0
C2538 C 0.69604 0.80527 0.61686 0.0
C2539 C 0.69694 0.79458 0.629 0.0
C2540 C 0.68064 0.75399 0.62969 0.0
C2541 C 0.69839 0.7355 0.65986 0.0
C2542 C 0.69341 0.74619 0.65402 0.0
C2543 C 0.68481 0.78 0.63019 0.0
C2544 C 0.68671 0.76795 0.63963 0.0
H2545 H 0.73022 0.73516 0.67135 0.0
H2546 H 0.72141 0.75248 0.66478 0.0
H2547 H 0.6796 0.73293 0.62817 0.0
H2548 H 0.66031 0.7843 0.59973 0.0
H2549 H 0.66173 0.76573 0.62129 0.0
C2550 C 0.30366 0.98927 0.66632 0.0
C2551 C 0.30042 1.00088 0.66685 0.0
C2552 C 0.29242 0.97463 0.6622 0.0
C2553 C 0.25628 0.95418 0.63563 0.0
H2554 H 0.25247 0.91964 0.66416 0.0
C2555 C 0.2101 0.89644 0.61135 0.0
C2556 C 0.2143 0.88564 0.60887 0.0
C2557 C 0.21914 0.90948 0.6226 0.0
C2558 C 0.25343 0.92916 0.65595 0.0
H2559 H 0.2827 1.0061 0.66418 0.0
H2560 H 0.26323 0.9807 0.65703 0.0
H2561 H 0.27165 0.94455 0.67523 0.0
H2562 H 0.23075 0.87954 0.6169 0.0
H2563 H 0.24676 0.90242 0.63622 0.0
H2564 H 0.23856 0.93904 0.61588 0.0
C2565 C 0.27446 0.9829 0.65955 0.0
C2566 C 0.26442 0.94343 0.66231 0.0
C2567 C 0.28564 0.99746 0.66374 0.0
C2568 C 0.22717 0.88762 0.61896 0.0
C2569 C 0.23635 0.90078 0.62997 0.0
C2570 C 0.24541 0.93999 0.6292 0.0
C2571 C 0.27773 0.97133 0.65842 0.0
C2572 C 0.26597 0.9561 0.65218 0.0
C2573 C 0.23276 0.91215 0.63118 0.0
C2574 C 0.24381 0.92724 0.63922 0.0
H2575 H 0.31493 0.99153 0.66869 0.0
H2576 H 0.29531 0.96597 0.6613 0.0
H2577 H 0.25734 0.96368 0.62722 0.0
H2578 H 0.20028 0.89518 0.60353 0.0
H2579 H 0.21578 0.91779 0.62367 0.0
C2580 C 0.02682 0.31812 0.66551 0.0
C2581 C 0.01629 0.30351 0.67111 0.0
C2582 C 0.04138 0.32181 0.66048 0.0
C2583 C 0.06242 0.30402 0.64187 0.0
H2584 H 0.09706 0.34209 0.655 0.0
C2585 C 0.12001 0.3165 0.61528 0.0
C2586 C 0.1284 0.33012 0.60501 0.0
C2587 C 0.10776 0.31386 0.62736 0.0
C2588 C 0.08749 0.33142 0.65117 0.0
H2589 H 0.01301 0.2815 0.67676 0.0
H2590 H 0.03833 0.28796 0.66842 0.0
H2591 H 0.07268 0.33635 0.66806 0.0
H2592 H 0.1313 0.35212 0.60099 0.0
H2593 H 0.10983 0.34746 0.62178 0.0
H2594 H 0.07703 0.29914 0.62467 0.0
C2595 C 0.03531 0.29652 0.66739 0.0
C2596 C 0.07351 0.32815 0.65861 0.0
C2597 C 0.02078 0.29283 0.67229 0.0
C2598 C 0.12496 0.34144 0.6085 0.0
C2599 C 0.11269 0.33879 0.62055 0.0
C2600 C 0.07634 0.30727 0.63448 0.0
C2601 C 0.04573 0.31097 0.66102 0.0
C2602 C 0.06078 0.31442 0.65394 0.0
C2603 C 0.10359 0.32476 0.62944 0.0
C2604 C 0.08906 0.32104 0.6389 0.0
H2605 H 0.0237 0.32661 0.66445 0.0
H2606 H 0.04907 0.33302 0.65549 0.0
H2607 H 0.05286 0.29347 0.63755 0.0
H2608 H 0.12226 0.30749 0.61286 0.0
H2609 H 0.10117 0.30302 0.63435 0.0
C2610 C 0.30669 0.32477 0.66279 0.0
C2611 C 0.30155 0.30966 0.66662 0.0
C2612 C 0.29663 0.32977 0.65907 0.0
C2613 C 0.25675 0.31903 0.66369 0.0
H2614 H 0.26498 0.34439 0.61566 0.0
C2615 C 0.21137 0.32218 0.61579 0.0
C2616 C 0.21505 0.33527 0.60491 0.0
C2617 C 0.22203 0.32122 0.62802 0.0
C2618 C 0.26259 0.33758 0.62941 0.0
H2619 H 0.28179 0.28805 0.67024 0.0
H2620 H 0.26434 0.29672 0.66364 0.0
H2621 H 0.28368 0.33869 0.62801 0.0
H2622 H 0.2323 0.35806 0.59991 0.0
H2623 H 0.25082 0.35653 0.62164 0.0
H2624 H 0.23546 0.31759 0.66468 0.0
C2625 C 0.27611 0.30476 0.66368 0.0
C2626 C 0.27335 0.33429 0.63648 0.0
C2627 C 0.28614 0.29977 0.66731 0.0
C2628 C 0.2292 0.34779 0.60798 0.0
C2629 C 0.23984 0.34686 0.62028 0.0
C2630 C 0.24598 0.32235 0.65664 0.0
C2631 C 0.28121 0.31978 0.65922 0.0
C2632 C 0.27045 0.3247 0.65341 0.0
C2633 C 0.23659 0.33337 0.6297 0.0
C2634 C 0.24864 0.33142 0.63912 0.0
H2635 H 0.31848 0.33268 0.66222 0.0
H2636 H 0.30092 0.34144 0.6559 0.0
H2637 H 0.25425 0.3118 0.677 0.0
H2638 H 0.20062 0.31229 0.61354 0.0
H2639 H 0.21912 0.31062 0.63491 0.0
C2640 C 0.72233 0.99507 0.67446 0.0
C2641 C 0.71165 0.9995 0.67235 0.0
C2642 C 0.71874 0.98048 0.66996 0.0
C2643 C 0.68734 0.94213 0.66024 0.0
H2644 H 0.71703 0.93856 0.6284 0.0
C2645 C 0.67529 0.89084 0.6098 0.0
C2646 C 0.68673 0.88749 0.60706 0.0
C2647 C 0.67758 0.90297 0.62207 0.0
C2648 C 0.70871 0.93926 0.63764 0.0
H2649 H 0.68864 0.99193 0.66453 0.0
H2650 H 0.68241 0.96646 0.65621 0.0
H2651 H 0.72239 0.96276 0.64105 0.0
H2652 H 0.70911 0.89355 0.61654 0.0
H2653 H 0.71295 0.9144 0.6384 0.0
H2654 H 0.67351 0.91855 0.65619 0.0
C2655 C 0.69354 0.97424 0.66164 0.0
C2656 C 0.71178 0.95319 0.6449 0.0
C2657 C 0.69713 0.98886 0.6663 0.0
C2658 C 0.70003 0.89575 0.61835 0.0
C2659 C 0.70231 0.90786 0.63065 0.0
C2660 C 0.68424 0.92812 0.65291 0.0
C2661 C 0.7044 0.96994 0.66304 0.0
C2662 C 0.70113 0.95486 0.65619 0.0
C2663 C 0.69136 0.91202 0.63192 0.0
C2664 C 0.69487 0.92654 0.6414 0.0
H2665 H 0.73359 1.00293 0.67932 0.0
H2666 H 0.7273 0.97752 0.67168 0.0
H2667 H 0.67894 0.94297 0.66908 0.0
H2668 H 0.66484 0.88458 0.60149 0.0
H2669 H 0.66889 0.90582 0.62267 0.0
C2670 C 0.02599 0.73331 0.66471 0.0
C2671 C 0.02189 0.71851 0.66913 0.0
C2672 C 0.04084 0.74396 0.66126 0.0
C2673 C 0.0768 0.7474 0.64603 0.0
H2674 H 0.09158 0.78892 0.65945 0.0
C2675 C 0.13535 0.79288 0.62149 0.0
C2676 C 0.13504 0.80397 0.60943 0.0
C2677 C 0.12306 0.78333 0.63356 0.0
C2678 C 0.08763 0.77736 0.6557 0.0
H2679 H 0.03028 0.7034 0.67401 0.0
H2680 H 0.05631 0.72209 0.6685 0.0
H2681 H 0.06712 0.77009 0.67164 0.0
H2682 H 0.12219 0.81443 0.60147 0.0
H2683 H 0.1009 0.79806 0.62298 0.0
H2684 H 0.09731 0.75476 0.62997 0.0
C2685 C 0.04798 0.72541 0.66724 0.0
C2686 C 0.07356 0.76655 0.66255 0.0
C2687 C 0.03306 0.71469 0.67051 0.0
C2688 C 0.12273 0.80605 0.61082 0.0
C2689 C 0.11056 0.79667 0.62311 0.0
C2690 C 0.09094 0.7582 0.63941 0.0
C2691 C 0.05206 0.74017 0.66234 0.0
C2692 C 0.06777 0.75145 0.65732 0.0
C2693 C 0.11035 0.78485 0.63399 0.0
C2694 C 0.09636 0.77333 0.64373 0.0
H2695 H 0.01768 0.73665 0.66341 0.0
H2696 H 0.04341 0.75508 0.65712 0.0
H2697 H 0.07271 0.73596 0.64144 0.0
H2698 H 0.14464 0.79093 0.62043 0.0
H2699 H 0.12325 0.77438 0.6419 0.0
C2700 C 0.96782 0.61566 0.6841 0.0
C2701 C 0.97842 0.63051 0.67977 0.0
C2702 C 0.97217 0.60515 0.68786 0.0
C2703 C 1.00483 0.6022 0.70422 0.0
H2704 H 0.97859 0.5606 0.69064 0.0
C2705 C 0.01837 0.55716 0.72994 0.0
C2706 C 1.00695 0.546 0.74182 0.0
C2707 C 0.01559 0.56664 0.71766 0.0
C2708 C 0.98606 0.57219 0.69444 0.0
H2709 H 1.0019 0.64585 0.67541 0.0
H2710 H 1.00952 0.62739 0.68147 0.0
H2711 H 0.97277 0.57922 0.67791 0.0
H2712 H 0.98357 0.53534 0.74924 0.0
H2713 H 0.97859 0.55158 0.72736 0.0
H2714 H 0.01804 0.59508 0.72088 0.0
C2715 C 0.99783 0.62394 0.6824 0.0
C2716 C 0.9827 0.58287 0.68728 0.0
C2717 C 0.99347 0.63452 0.67881 0.0
C2718 C 0.99251 0.54378 0.74005 0.0
C2719 C 0.98969 0.55309 0.72754 0.0
C2720 C 1.00829 0.59152 0.71116 0.0
C2721 C 0.98724 0.60913 0.6872 0.0
C2722 C 0.99181 0.59799 0.69256 0.0
C2723 C 1.00131 0.56496 0.71682 0.0
C2724 C 0.99875 0.57637 0.70678 0.0
H2725 H 0.95613 0.61219 0.68507 0.0
H2726 H 0.96369 0.59399 0.69191 0.0
H2727 H 0.01204 0.61366 0.70887 0.0
H2728 H 0.02963 0.55922 0.73128 0.0
H2729 H 0.02473 0.57563 0.70945 0.0
C2730 C 0.37954 0.36142 0.67966 0.0
C2731 C 0.3848 0.35155 0.67566 0.0
C2732 C 0.3895 0.37646 0.68386 0.0
C2733 C 0.42941 0.40581 0.68085 0.0
H2734 H 0.42037 0.42184 0.72963 0.0
C2735 C 0.47401 0.45308 0.73161 0.0
C2736 C 0.4702 0.46226 0.74296 0.0
C2737 C 0.46353 0.44179 0.71869 0.0
C2738 C 0.42299 0.41774 0.71568 0.0
H2739 H 0.40468 0.34989 0.67216 0.0
H2740 H 0.42194 0.37596 0.67958 0.0
H2741 H 0.40188 0.39773 0.71591 0.0
H2742 H 0.45292 0.46776 0.74814 0.0
H2743 H 0.43472 0.44827 0.72524 0.0
H2744 H 0.45072 0.42567 0.68105 0.0
C2745 C 0.41016 0.37217 0.67931 0.0
C2746 C 0.41235 0.40385 0.70782 0.0
C2747 C 0.40023 0.35716 0.67521 0.0
C2748 C 0.45612 0.46075 0.73973 0.0
C2749 C 0.44566 0.4495 0.72674 0.0
C2750 C 0.44006 0.41973 0.6887 0.0
C2751 C 0.40493 0.38197 0.68405 0.0
C2752 C 0.41555 0.39755 0.69061 0.0
C2753 C 0.44903 0.43947 0.71678 0.0
C2754 C 0.43711 0.42573 0.70651 0.0
H2755 H 0.36773 0.35746 0.68006 0.0
H2756 H 0.38511 0.38374 0.68722 0.0
H2757 H 0.43215 0.40138 0.66736 0.0
H2758 H 0.48469 0.45384 0.73396 0.0
H2759 H 0.46652 0.43424 0.71141 0.0
C2760 C 0.66233 0.05284 0.69047 0.0
C2761 C 0.66678 0.04244 0.68562 0.0
C2762 C 0.64739 0.04827 0.69387 0.0
C2763 C 0.61178 0.01508 0.70826 0.0
H2764 H 0.59617 0.04122 0.69597 0.0
C2765 C 0.55294 1.0005 0.73352 0.0
C2766 C 0.55304 0.01166 0.74604 0.0
C2767 C 0.56524 1.00361 0.7212 0.0
C2768 C 0.60035 0.03377 0.6994 0.0
H2769 H 0.65891 0.0191 0.67993 0.0
H2770 H 0.63272 0.0111 0.68536 0.0
H2771 H 0.62081 0.04752 0.68365 0.0
H2772 H 0.5655 0.03494 0.75455 0.0
H2773 H 0.58681 0.04051 0.73262 0.0
H2774 H 0.59133 1.00141 0.72416 0.0
C2775 C 0.64084 0.02279 0.68699 0.0
C2776 C 0.61452 0.03741 0.69247 0.0
C2777 C 0.65586 0.02737 0.68377 0.0
C2778 C 0.56513 0.0262 0.74485 0.0
C2779 C 0.57731 0.02936 0.73232 0.0
C2780 C 0.59755 0.01135 0.71496 0.0
C2781 C 0.63642 0.03317 0.69231 0.0
C2782 C 0.62061 0.02833 0.69732 0.0
C2783 C 0.57775 0.01799 0.72099 0.0
C2784 C 0.59183 0.02084 0.71106 0.0
H2785 H 0.67045 0.06453 0.69213 0.0
H2786 H 0.64454 0.05658 0.69834 0.0
H2787 H 0.6161 0.00788 0.71255 0.0
H2788 H 0.54383 0.98916 0.73441 0.0
H2789 H 0.56524 0.99466 0.71252 0.0
loop_
_geom_bond_atom_site_label_1
_geom_bond_atom_site_label_2
_geom_bond_distance
_geom_bond_site_symmetry_2
_ccdc_geom_bond_type
O0 Cd1 2.223 . S
O0 C8 1.315 . S
Cd1 O0 2.223 . S
Cd1 O4 2.297 . S
Cd1 O5 2.439 . S
Cd1 O11 2.240 1_554 S
Cd2 O3 2.240 . S
Cd2 O10 2.223 1_554 S
Cd2 O12 2.297 1_554 S
Cd2 O13 2.449 . S
O3 Cd2 2.240 . S
O3 C8 1.279 1_655 S
O4 Cd1 2.297 . S
O4 C6 1.247 . S
O5 Cd1 2.439 . S
O5 C6 1.208 . S
C6 O4 1.247 . S
C6 O5 1.208 . S
C7 O12 1.247 . S
C7 O13 1.196 1_556 S
C8 O0 1.315 . S
C8 O3 1.279 1_455 S
C9 O10 1.315 . S
C9 O11 1.279 1_655 S
O10 Cd2 2.223 1_556 S
O10 C9 1.315 . S
O11 Cd1 2.240 1_556 S
O11 C9 1.279 1_455 S
O12 Cd2 2.297 1_556 S
O12 C7 1.247 . S
O13 Cd2 2.449 . S
O13 C7 1.196 1_554 S
O14 Cd15 2.223 . S
O14 C22 1.315 . S
Cd15 O14 2.223 . S
Cd15 O18 2.297 . S
Cd15 O19 2.439 . S
Cd15 O25 2.240 1_554 S
Cd16 O17 2.240 . S
Cd16 O24 2.223 1_554 S
Cd16 O26 2.297 1_554 S
Cd16 O27 2.451 . S
O17 Cd16 2.240 . S
O17 C22 1.279 . S
O18 Cd15 2.297 . S
O18 C20 1.247 . S
O19 Cd15 2.439 . S
O19 C20 1.208 . S
C20 O18 1.247 . S
C20 O19 1.208 . S
C21 O26 1.247 . S
C21 O27 1.194 1_556 S
C22 O14 1.315 . S
C22 O17 1.279 . S
C23 O24 1.315 . S
C23 O25 1.279 . S
O24 Cd16 2.223 1_556 S
O24 C23 1.315 . S
O25 Cd15 2.240 1_556 S
O25 C23 1.279 . S
O26 Cd16 2.297 1_556 S
O26 C21 1.247 . S
O27 Cd16 2.451 . S
O27 C21 1.194 1_554 S
O28 Cd29 2.223 1_556 S
O28 C36 1.315 . S
Cd29 O28 2.223 1_554 S
Cd29 O32 2.297 1_554 S
Cd29 O33 2.455 . S
Cd29 O39 2.240 . S
Cd30 O31 2.240 1_554 S
Cd30 O38 2.223 . S
Cd30 O40 2.297 . S
Cd30 O41 2.439 . S
O31 Cd30 2.240 1_556 S
O31 C36 1.279 1_565 S
O32 Cd29 2.297 1_556 S
O32 C34 1.247 . S
O33 Cd29 2.455 . S
O33 C34 1.190 1_554 S
C34 O32 1.247 . S
C34 O33 1.190 1_556 S
C35 O40 1.247 . S
C35 O41 1.208 . S
C36 O28 1.315 . S
C36 O31 1.279 1_545 S
C37 O38 1.315 . S
C37 O39 1.279 1_565 S
O38 Cd30 2.223 . S
O38 C37 1.315 . S
O39 Cd29 2.240 . S
O39 C37 1.279 1_545 S
O40 Cd30 2.297 . S
O40 C35 1.247 . S
O41 Cd30 2.439 . S
O41 C35 1.208 . S
O42 Cd43 2.223 1_556 S
O42 C50 1.315 . S
Cd43 O42 2.223 1_554 S
Cd43 O46 2.297 1_554 S
Cd43 O47 2.425 1_554 S
Cd43 O53 2.240 . S
Cd44 O45 2.240 1_554 S
Cd44 O52 2.223 . S
Cd44 O54 2.297 . S
Cd44 O55 2.439 . S
O45 Cd44 2.240 1_556 S
O45 C50 1.279 1_455 S
O46 Cd43 2.297 1_556 S
O46 C48 1.247 . S
O47 Cd43 2.425 1_556 S
O47 C48 1.225 . S
C48 O46 1.247 . S
C48 O47 1.225 . S
C49 O54 1.247 . S
C49 O55 1.208 . S
C50 O42 1.315 . S
C50 O45 1.279 1_655 S
C51 O52 1.315 . S
C51 O53 1.279 1_455 S
O52 Cd44 2.223 . S
O52 C51 1.315 . S
O53 Cd43 2.240 . S
O53 C51 1.279 1_655 S
O54 Cd44 2.297 . S
O54 C49 1.247 . S
O55 Cd44 2.439 . S
O55 C49 1.208 . S
O56 Cd57 2.223 1_556 S
O56 C64 1.315 . S
Cd57 O56 2.223 1_554 S
Cd57 O60 2.297 1_554 S
Cd57 O61 2.427 1_554 S
Cd57 O67 2.240 . S
Cd58 O59 2.240 1_554 S
Cd58 O66 2.223 . S
Cd58 O68 2.297 . S
Cd58 O69 2.439 . S
O59 Cd58 2.240 1_556 S
O59 C64 1.279 . S
O60 Cd57 2.297 1_556 S
O60 C62 1.247 . S
O61 Cd57 2.427 1_556 S
O61 C62 1.223 . S
C62 O60 1.247 . S
C62 O61 1.223 . S
C63 O68 1.247 . S
C63 O69 1.208 . S
C64 O56 1.315 . S
C64 O59 1.279 . S
C65 O66 1.315 . S
C65 O67 1.279 . S
O66 Cd58 2.223 . S
O66 C65 1.315 . S
O67 Cd57 2.240 . S
O67 C65 1.279 . S
O68 Cd58 2.297 . S
O68 C63 1.247 . S
O69 Cd58 2.439 . S
O69 C63 1.208 . S
O70 Cd71 2.223 . S
O70 C78 1.315 . S
Cd71 O70 2.223 . S
Cd71 O74 2.297 . S
Cd71 O75 2.439 . S
Cd71 O81 2.240 1_554 S
Cd72 O73 2.240 . S
Cd72 O80 2.223 1_554 S
Cd72 O82 2.297 1_554 S
Cd72 O83 2.431 1_554 S
O73 Cd72 2.240 . S
O73 C78 1.279 1_545 S
O74 Cd71 2.297 . S
O74 C76 1.247 . S
O75 Cd71 2.439 . S
O75 C76 1.208 . S
C76 O74 1.247 . S
C76 O75 1.208 . S
C77 O82 1.247 . S
C77 O83 1.217 . S
C78 O70 1.315 . S
C78 O73 1.279 1_565 S
C79 O80 1.315 . S
C79 O81 1.279 1_545 S
O80 Cd72 2.223 1_556 S
O80 C79 1.315 . S
O81 Cd71 2.240 1_556 S
O81 C79 1.279 1_565 S
O82 Cd72 2.297 1_556 S
O82 C77 1.247 . S
O83 Cd72 2.431 1_556 S
O83 C77 1.217 . S
O84 Cd85 2.223 . S
O84 C92 1.315 . S
Cd85 O84 2.223 . S
Cd85 O88 2.297 . S
Cd85 O89 2.439 . S
Cd85 O95 2.240 . S
Cd86 O87 2.240 . S
Cd86 O94 2.223 . S
Cd86 O96 2.297 . S
Cd86 O97 2.439 . S
O87 Cd86 2.240 . S
O87 C92 1.279 . S
O88 Cd85 2.297 . S
O88 C90 1.247 . S
O89 Cd85 2.439 . S
O89 C90 1.208 . S
C90 O88 1.247 . S
C90 O89 1.208 . S
C91 O96 1.247 . S
C91 O97 1.208 . S
C92 O84 1.315 . S
C92 O87 1.279 . S
C93 O94 1.315 . S
C93 O95 1.279 . S
O94 Cd86 2.223 . S
O94 C93 1.315 . S
O95 Cd85 2.240 . S
O95 C93 1.279 . S
O96 Cd86 2.297 . S
O96 C91 1.247 . S
O97 Cd86 2.439 . S
O97 C91 1.208 . S
O98 Cd99 2.223 . S
O98 C106 1.315 . S
Cd99 O98 2.223 . S
Cd99 O102 2.297 1_565 S
Cd99 O103 2.439 1_565 S
Cd99 O109 2.240 . S
Cd100 O101 2.240 . S
Cd100 O108 2.223 . S
Cd100 O110 2.297 . S
Cd100 O111 2.439 . S
O101 Cd100 2.240 . S
O101 C106 1.279 . S
O102 Cd99 2.297 1_545 S
O102 C104 1.247 . S
O103 Cd99 2.439 1_545 S
O103 C104 1.208 . S
C104 O102 1.247 . S
C104 O103 1.208 . S
C105 O110 1.247 . S
C105 O111 1.208 . S
C106 O98 1.315 . S
C106 O101 1.279 . S
C107 O108 1.315 . S
C107 O109 1.279 . S
O108 Cd100 2.223 . S
O108 C107 1.315 . S
O109 Cd99 2.240 . S
O109 C107 1.279 . S
O110 Cd100 2.297 . S
O110 C105 1.247 . S
O111 Cd100 2.439 . S
O111 C105 1.208 . S
O112 Cd113 2.223 . S
O112 C120 1.315 . S
Cd113 O112 2.223 . S
Cd113 O116 2.297 . S
Cd113 O117 2.439 . S
Cd113 O123 2.240 . S
Cd114 O115 2.240 . S
Cd114 O122 2.223 . S
Cd114 O124 2.297 1_455 S
Cd114 O125 2.439 1_455 S
O115 Cd114 2.240 . S
O115 C120 1.279 . S
O116 Cd113 2.297 . S
O116 C118 1.247 . S
O117 Cd113 2.439 . S
O117 C118 1.208 . S
C118 O116 1.247 . S
C118 O117 1.208 . S
C119 O124 1.247 . S
C119 O125 1.208 . S
C120 O112 1.315 . S
C120 O115 1.279 . S
C121 O122 1.315 . S
C121 O123 1.279 . S
O122 Cd114 2.223 . S
O122 C121 1.315 . S
O123 Cd113 2.240 . S
O123 C121 1.279 . S
O124 Cd114 2.297 1_655 S
O124 C119 1.247 . S
O125 Cd114 2.439 1_655 S
O125 C119 1.208 . S
O126 Cd127 2.223 . S
O126 C134 1.315 . S
Cd127 O126 2.223 . S
Cd127 O130 2.297 . S
Cd127 O131 2.439 . S
Cd127 O137 2.240 . S
Cd128 O129 2.240 . S
Cd128 O136 2.223 . S
Cd128 O138 2.297 1_565 S
Cd128 O139 2.439 1_565 S
O129 Cd128 2.240 . S
O129 C134 1.279 . S
O130 Cd127 2.297 . S
O130 C132 1.247 . S
O131 Cd127 2.439 . S
O131 C132 1.208 . S
C132 O130 1.247 . S
C132 O131 1.208 . S
C133 O138 1.247 . S
C133 O139 1.208 . S
C134 O126 1.315 . S
C134 O129 1.279 . S
C135 O136 1.315 . S
C135 O137 1.279 . S
O136 Cd128 2.223 . S
O136 C135 1.315 . S
O137 Cd127 2.240 . S
O137 C135 1.279 . S
O138 Cd128 2.297 1_545 S
O138 C133 1.247 . S
O139 Cd128 2.439 1_545 S
O139 C133 1.208 . S
O140 Cd141 2.223 . S
O140 C148 1.315 . S
Cd141 O140 2.223 . S
Cd141 O144 2.297 . S
Cd141 O145 2.439 . S
Cd141 O151 2.240 . S
Cd142 O143 2.240 . S
Cd142 O150 2.223 . S
Cd142 O152 2.297 1_455 S
Cd142 O153 2.439 1_455 S
O143 Cd142 2.240 . S
O143 C148 1.279 . S
O144 Cd141 2.297 . S
O144 C146 1.247 . S
O145 Cd141 2.439 . S
O145 C146 1.208 . S
C146 O144 1.247 . S
C146 O145 1.208 . S
C147 O152 1.247 . S
C147 O153 1.208 . S
C148 O140 1.315 . S
C148 O143 1.279 . S
C149 O150 1.315 . S
C149 O151 1.279 . S
O150 Cd142 2.223 . S
O150 C149 1.315 . S
O151 Cd141 2.240 . S
O151 C149 1.279 . S
O152 Cd142 2.297 1_655 S
O152 C147 1.247 . S
O153 Cd142 2.439 1_655 S
O153 C147 1.208 . S
O154 Cd155 2.223 . S
O154 C162 1.315 . S
Cd155 O154 2.223 . S
Cd155 O158 2.297 . S
Cd155 O159 2.439 . S
Cd155 O165 2.240 . S
Cd156 O157 2.240 . S
Cd156 O164 2.223 . S
Cd156 O166 2.297 . S
Cd156 O167 2.439 . S
O157 Cd156 2.240 . S
O157 C162 1.279 . S
O158 Cd155 2.297 . S
O158 C160 1.247 . S
O159 Cd155 2.439 . S
O159 C160 1.208 . S
C160 O158 1.247 . S
C160 O159 1.208 . S
C161 O166 1.247 . S
C161 O167 1.208 . S
C162 O154 1.315 . S
C162 O157 1.279 . S
C163 O164 1.315 . S
C163 O165 1.279 . S
O164 Cd156 2.223 . S
O164 C163 1.315 . S
O165 Cd155 2.240 . S
O165 C163 1.279 . S
O166 Cd156 2.297 . S
O166 C161 1.247 . S
O167 Cd156 2.439 . S
O167 C161 1.208 . S
O168 Cd169 2.223 . S
O168 C176 1.315 . S
Cd169 O168 2.223 . S
Cd169 O172 2.297 . S
Cd169 O173 2.439 . S
Cd169 O179 2.240 . S
Cd170 O171 2.240 . S
Cd170 O178 2.223 . S
Cd170 O180 2.297 1_545 S
Cd170 O181 2.439 1_545 S
O171 Cd170 2.240 . S
O171 C176 1.279 . S
O172 Cd169 2.297 . S
O172 C174 1.247 . S
O173 Cd169 2.439 . S
O173 C174 1.208 . S
C174 O172 1.247 . S
C174 O173 1.208 . S
C175 O180 1.247 . S
C175 O181 1.208 . S
C176 O168 1.315 . S
C176 O171 1.279 . S
C177 O178 1.315 . S
C177 O179 1.279 . S
O178 Cd170 2.223 . S
O178 C177 1.315 . S
O179 Cd169 2.240 . S
O179 C177 1.279 . S
O180 Cd170 2.297 1_565 S
O180 C175 1.247 . S
O181 Cd170 2.439 1_565 S
O181 C175 1.208 . S
O182 Cd183 2.223 . S
O182 C190 1.315 . S
Cd183 O182 2.223 . S
Cd183 O186 2.297 . S
Cd183 O187 2.439 . S
Cd183 O193 2.240 . S
Cd184 O185 2.240 . S
Cd184 O192 2.223 . S
Cd184 O194 2.297 1_655 S
Cd184 O195 2.439 1_655 S
O185 Cd184 2.240 . S
O185 C190 1.279 . S
O186 Cd183 2.297 . S
O186 C188 1.247 . S
O187 Cd183 2.439 . S
O187 C188 1.208 . S
C188 O186 1.247 . S
C188 O187 1.208 . S
C189 O194 1.247 . S
C189 O195 1.208 . S
C190 O182 1.315 . S
C190 O185 1.279 . S
C191 O192 1.315 . S
C191 O193 1.279 . S
O192 Cd184 2.223 . S
O192 C191 1.315 . S
O193 Cd183 2.240 . S
O193 C191 1.279 . S
O194 Cd184 2.297 1_455 S
O194 C189 1.247 . S
O195 Cd184 2.439 1_455 S
O195 C189 1.208 . S
O196 Cd197 2.223 . S
O196 C204 1.315 . S
Cd197 O196 2.223 . S
Cd197 O200 2.297 . S
Cd197 O201 2.439 . S
Cd197 O207 2.240 . S
Cd198 O199 2.240 . S
Cd198 O206 2.223 . S
Cd198 O208 2.297 . S
Cd198 O209 2.439 . S
O199 Cd198 2.240 . S
O199 C204 1.279 . S
O200 Cd197 2.297 . S
O200 C202 1.247 . S
O201 Cd197 2.439 . S
O201 C202 1.208 . S
C202 O200 1.247 . S
C202 O201 1.208 . S
C203 O208 1.247 . S
C203 O209 1.208 . S
C204 O196 1.315 . S
C204 O199 1.279 . S
C205 O206 1.315 . S
C205 O207 1.279 . S
O206 Cd198 2.223 . S
O206 C205 1.315 . S
O207 Cd197 2.240 . S
O207 C205 1.279 . S
O208 Cd198 2.297 . S
O208 C203 1.247 . S
O209 Cd198 2.439 . S
O209 C203 1.208 . S
O210 Cd211 2.223 . S
O210 C218 1.315 . S
Cd211 O210 2.223 . S
Cd211 O214 2.297 . S
Cd211 O215 2.439 . S
Cd211 O221 2.240 . S
Cd212 O213 2.240 . S
Cd212 O220 2.223 . S
Cd212 O222 2.297 . S
Cd212 O223 2.439 . S
O213 Cd212 2.240 . S
O213 C218 1.279 . S
O214 Cd211 2.297 . S
O214 C216 1.247 . S
O215 Cd211 2.439 . S
O215 C216 1.208 . S
C216 O214 1.247 . S
C216 O215 1.208 . S
C217 O222 1.247 . S
C217 O223 1.208 . S
C218 O210 1.315 . S
C218 O213 1.279 . S
C219 O220 1.315 . S
C219 O221 1.279 . S
O220 Cd212 2.223 . S
O220 C219 1.315 . S
O221 Cd211 2.240 . S
O221 C219 1.279 . S
O222 Cd212 2.297 . S
O222 C217 1.247 . S
O223 Cd212 2.439 . S
O223 C217 1.208 . S
O224 Cd225 2.223 . S
O224 C232 1.315 . S
Cd225 O224 2.223 . S
Cd225 O228 2.297 1_545 S
Cd225 O229 2.439 1_545 S
Cd225 O235 2.240 . S
Cd226 O227 2.240 . S
Cd226 O234 2.223 . S
Cd226 O236 2.297 . S
Cd226 O237 2.439 . S
O227 Cd226 2.240 . S
O227 C232 1.279 . S
O228 Cd225 2.297 1_565 S
O228 C230 1.247 . S
O229 Cd225 2.439 1_565 S
O229 C230 1.208 . S
C230 O228 1.247 . S
C230 O229 1.208 . S
C231 O236 1.247 . S
C231 O237 1.208 . S
C232 O224 1.315 . S
C232 O227 1.279 . S
C233 O234 1.315 . S
C233 O235 1.279 . S
O234 Cd226 2.223 . S
O234 C233 1.315 . S
O235 Cd225 2.240 . S
O235 C233 1.279 . S
O236 Cd226 2.297 . S
O236 C231 1.247 . S
O237 Cd226 2.439 . S
O237 C231 1.208 . S
O238 Cd239 2.223 . S
O238 C246 1.315 . S
Cd239 O238 2.223 . S
Cd239 O242 2.297 . S
Cd239 O243 2.439 . S
Cd239 O249 2.240 . S
Cd240 O241 2.240 . S
Cd240 O248 2.223 . S
Cd240 O250 2.297 1_655 S
Cd240 O251 2.439 1_655 S
O241 Cd240 2.240 . S
O241 C246 1.279 . S
O242 Cd239 2.297 . S
O242 C244 1.247 . S
O243 Cd239 2.439 . S
O243 C244 1.208 . S
C244 O242 1.247 . S
C244 O243 1.208 . S
C245 O250 1.247 . S
C245 O251 1.208 . S
C246 O238 1.315 . S
C246 O241 1.279 . S
C247 O248 1.315 . S
C247 O249 1.279 . S
O248 Cd240 2.223 . S
O248 C247 1.315 . S
O249 Cd239 2.240 . S
O249 C247 1.279 . S
O250 Cd240 2.297 1_455 S
O250 C245 1.247 . S
O251 Cd240 2.439 1_455 S
O251 C245 1.208 . S
H252 C260 0.930 . S
H253 C263 0.930 . S
H254 C265 0.930 . S
H255 C266 0.970 . S
H256 C266 0.970 . S
H257 C268 0.930 . S
H258 C270 0.930 . S
H259 C272 0.930 . S
C260 H252 0.930 . S
C260 C261 1.382 . S
C260 C262 1.426 . S
C261 C260 1.382 . S
C261 C265 1.389 . S
C262 C260 1.426 . S
C262 C263 1.375 . S
C262 C266 1.532 . S
C263 H253 0.930 . S
C263 C262 1.375 . S
C263 C264 1.416 . S
C264 C263 1.416 . S
C264 C265 1.371 . S
C265 H254 0.930 . S
C265 C261 1.389 . S
C265 C264 1.371 . S
C266 H255 0.970 . S
C266 H256 0.970 . S
C266 C262 1.532 . S
C266 C267 1.499 . S
C267 C266 1.499 . S
C267 C268 1.370 . S
C267 C272 1.415 . S
C268 H257 0.930 . S
C268 C267 1.370 . S
C268 C269 1.407 . S
C269 C268 1.407 . S
C269 C270 1.365 . S
C270 H258 0.930 . S
C270 C269 1.365 . S
C270 C271 1.393 . S
C271 C270 1.393 . S
C271 C272 1.387 . S
C272 H259 0.930 . S
C272 C267 1.415 . S
C272 C271 1.387 . S
H273 C281 0.930 . S
H274 C284 0.930 . S
H275 C286 0.930 . S
H276 C287 0.970 . S
H277 C287 0.970 . S
H278 C289 0.930 . S
H279 C291 0.930 . S
H280 C293 0.930 . S
C281 H273 0.930 . S
C281 C282 1.382 . S
C281 C283 1.426 . S
C282 C281 1.382 . S
C282 C286 1.389 . S
C283 C281 1.426 . S
C283 C284 1.375 . S
C283 C287 1.532 . S
C284 H274 0.930 . S
C284 C283 1.375 . S
C284 C285 1.416 . S
C285 C284 1.416 . S
C285 C286 1.371 . S
C286 H275 0.930 . S
C286 C282 1.389 . S
C286 C285 1.371 . S
C287 H276 0.970 . S
C287 H277 0.970 . S
C287 C283 1.532 . S
C287 C288 1.499 . S
C288 C287 1.499 . S
C288 C289 1.370 . S
C288 C293 1.415 . S
C289 H278 0.930 . S
C289 C288 1.370 . S
C289 C290 1.407 . S
C290 C289 1.407 . S
C290 C291 1.365 . S
C291 H279 0.930 . S
C291 C290 1.365 . S
C291 C292 1.393 . S
C292 C291 1.393 . S
C292 C293 1.387 . S
C293 H280 0.930 . S
C293 C288 1.415 . S
C293 C292 1.387 . S
H294 C302 0.930 . S
H295 C305 0.930 . S
H296 C307 0.930 . S
H297 C308 0.970 . S
H298 C308 0.970 . S
H299 C310 0.930 . S
H300 C312 0.930 . S
H301 C314 0.930 . S
C302 H294 0.930 . S
C302 C303 1.382 . S
C302 C304 1.426 . S
C303 C302 1.382 . S
C303 C307 1.389 . S
C304 C302 1.426 . S
C304 C305 1.375 . S
C304 C308 1.532 . S
C305 H295 0.930 . S
C305 C304 1.375 . S
C305 C306 1.416 . S
C306 C305 1.416 . S
C306 C307 1.371 . S
C307 H296 0.930 . S
C307 C303 1.389 . S
C307 C306 1.371 . S
C308 H297 0.970 . S
C308 H298 0.970 . S
C308 C304 1.532 . S
C308 C309 1.499 . S
C309 C308 1.499 . S
C309 C310 1.370 . S
C309 C314 1.415 . S
C310 H299 0.930 . S
C310 C309 1.370 . S
C310 C311 1.407 . S
C311 C310 1.407 . S
C311 C312 1.365 . S
C312 H300 0.930 . S
C312 C311 1.365 . S
C312 C313 1.393 . S
C313 C312 1.393 . S
C313 C314 1.387 . S
C314 H301 0.930 . S
C314 C309 1.415 . S
C314 C313 1.387 . S
H315 C323 0.930 . S
H316 C326 0.930 . S
H317 C328 0.930 . S
H318 C329 0.970 . S
H319 C329 0.970 . S
H320 C331 0.930 . S
H321 C333 0.930 . S
H322 C335 0.930 . S
C323 H315 0.930 . S
C323 C324 1.382 . S
C323 C325 1.426 . S
C324 C323 1.382 . S
C324 C328 1.389 . S
C325 C323 1.426 . S
C325 C326 1.375 . S
C325 C329 1.532 . S
C326 H316 0.930 . S
C326 C325 1.375 . S
C326 C327 1.416 . S
C327 C326 1.416 . S
C327 C328 1.371 . S
C328 H317 0.930 . S
C328 C324 1.389 . S
C328 C327 1.371 . S
C329 H318 0.970 . S
C329 H319 0.970 . S
C329 C325 1.532 . S
C329 C330 1.499 . S
C330 C329 1.499 . S
C330 C331 1.370 . S
C330 C335 1.415 . S
C331 H320 0.930 . S
C331 C330 1.370 . S
C331 C332 1.407 . S
C332 C331 1.407 . S
C332 C333 1.365 . S
C333 H321 0.930 . S
C333 C332 1.365 . S
C333 C334 1.393 . S
C334 C333 1.393 . S
C334 C335 1.387 . S
C335 H322 0.930 . S
C335 C330 1.415 . S
C335 C334 1.387 . S
H336 C344 0.930 . S
H337 C347 0.930 . S
H338 C349 0.930 . S
H339 C350 0.970 . S
H340 C350 0.970 . S
H341 C352 0.930 . S
H342 C354 0.930 . S
H343 C356 0.930 . S
C344 H336 0.930 . S
C344 C345 1.382 . S
C344 C346 1.426 . S
C345 C344 1.382 . S
C345 C349 1.389 . S
C346 C344 1.426 . S
C346 C347 1.375 . S
C346 C350 1.532 . S
C347 H337 0.930 . S
C347 C346 1.375 . S
C347 C348 1.416 . S
C348 C347 1.416 . S
C348 C349 1.371 . S
C349 H338 0.930 . S
C349 C345 1.389 . S
C349 C348 1.371 . S
C350 H339 0.970 . S
C350 H340 0.970 . S
C350 C346 1.532 . S
C350 C351 1.499 . S
C351 C350 1.499 . S
C351 C352 1.370 . S
C351 C356 1.415 . S
C352 H341 0.930 . S
C352 C351 1.370 . S
C352 C353 1.407 . S
C353 C352 1.407 . S
C353 C354 1.365 . S
C354 H342 0.930 . S
C354 C353 1.365 . S
C354 C355 1.393 . S
C355 C354 1.393 . S
C355 C356 1.387 . S
C356 H343 0.930 . S
C356 C351 1.415 . S
C356 C355 1.387 . S
H357 C365 0.930 . S
H358 C368 0.930 . S
H359 C370 0.930 . S
H360 C371 0.970 . S
H361 C371 0.970 . S
H362 C373 0.930 . S
H363 C375 0.930 . S
H364 C377 0.930 . S
C365 H357 0.930 . S
C365 C366 1.382 . S
C365 C367 1.426 . S
C366 C365 1.382 . S
C366 C370 1.389 . S
C367 C365 1.426 . S
C367 C368 1.375 . S
C367 C371 1.532 . S
C368 H358 0.930 . S
C368 C367 1.375 . S
C368 C369 1.416 . S
C369 C368 1.416 . S
C369 C370 1.371 . S
C370 H359 0.930 . S
C370 C366 1.389 . S
C370 C369 1.371 . S
C371 H360 0.970 . S
C371 H361 0.970 . S
C371 C367 1.532 . S
C371 C372 1.499 . S
C372 C371 1.499 . S
C372 C373 1.370 . S
C372 C377 1.415 . S
C373 H362 0.930 . S
C373 C372 1.370 . S
C373 C374 1.407 . S
C374 C373 1.407 . S
C374 C375 1.365 . S
C375 H363 0.930 . S
C375 C374 1.365 . S
C375 C376 1.393 . S
C376 C375 1.393 . S
C376 C377 1.387 . S
C377 H364 0.930 . S
C377 C372 1.415 . S
C377 C376 1.387 . S
H378 C386 0.930 . S
H379 C389 0.930 . S
H380 C391 0.930 . S
H381 C392 0.970 . S
H382 C392 0.970 . S
H383 C394 0.930 . S
H384 C396 0.930 . S
H385 C398 0.930 . S
C386 H378 0.930 . S
C386 C387 1.382 . S
C386 C388 1.426 . S
C387 C386 1.382 . S
C387 C391 1.389 . S
C388 C386 1.426 . S
C388 C389 1.375 . S
C388 C392 1.532 . S
C389 H379 0.930 . S
C389 C388 1.375 . S
C389 C390 1.416 . S
C390 C389 1.416 . S
C390 C391 1.371 . S
C391 H380 0.930 . S
C391 C387 1.389 . S
C391 C390 1.371 . S
C392 H381 0.970 . S
C392 H382 0.970 . S
C392 C388 1.532 . S
C392 C393 1.499 . S
C393 C392 1.499 . S
C393 C394 1.370 . S
C393 C398 1.415 . S
C394 H383 0.930 . S
C394 C393 1.370 . S
C394 C395 1.407 . S
C395 C394 1.407 . S
C395 C396 1.365 . S
C396 H384 0.930 . S
C396 C395 1.365 . S
C396 C397 1.393 . S
C397 C396 1.393 . S
C397 C398 1.387 . S
C398 H385 0.930 . S
C398 C393 1.415 . S
C398 C397 1.387 . S
H399 C407 0.930 . S
H400 C410 0.930 . S
H401 C412 0.930 . S
H402 C413 0.970 . S
H403 C413 0.970 . S
H404 C415 0.930 . S
H405 C417 0.930 . S
H406 C419 0.930 . S
C407 H399 0.930 . S
C407 C408 1.382 . S
C407 C409 1.426 . S
C408 C407 1.382 . S
C408 C412 1.389 . S
C409 C407 1.426 . S
C409 C410 1.375 . S
C409 C413 1.532 . S
C410 H400 0.930 . S
C410 C409 1.375 . S
C410 C411 1.416 . S
C411 C410 1.416 . S
C411 C412 1.371 . S
C412 H401 0.930 . S
C412 C408 1.389 . S
C412 C411 1.371 . S
C413 H402 0.970 . S
C413 H403 0.970 . S
C413 C409 1.532 . S
C413 C414 1.499 . S
C414 C413 1.499 . S
C414 C415 1.370 . S
C414 C419 1.415 . S
C415 H404 0.930 . S
C415 C414 1.370 . S
C415 C416 1.407 . S
C416 C415 1.407 . S
C416 C417 1.365 . S
C417 H405 0.930 . S
C417 C416 1.365 . S
C417 C418 1.393 . S
C418 C417 1.393 . S
C418 C419 1.387 . S
C419 H406 0.930 . S
C419 C414 1.415 . S
C419 C418 1.387 . S
H420 C428 0.930 . S
H421 C431 0.930 . S
H422 C433 0.930 . S
H423 C434 0.970 . S
H424 C434 0.970 . S
H425 C436 0.930 . S
H426 C438 0.930 . S
H427 C440 0.930 . S
C428 H420 0.930 . S
C428 C429 1.382 . S
C428 C430 1.426 . S
C429 C428 1.382 . S
C429 C433 1.389 . S
C430 C428 1.426 . S
C430 C431 1.375 . S
C430 C434 1.532 . S
C431 H421 0.930 . S
C431 C430 1.375 . S
C431 C432 1.416 . S
C432 C431 1.416 . S
C432 C433 1.371 . S
C433 H422 0.930 . S
C433 C429 1.389 . S
C433 C432 1.371 . S
C434 H423 0.970 . S
C434 H424 0.970 . S
C434 C430 1.532 . S
C434 C435 1.499 . S
C435 C434 1.499 . S
C435 C436 1.370 . S
C435 C440 1.415 . S
C436 H425 0.930 . S
C436 C435 1.370 . S
C436 C437 1.407 . S
C437 C436 1.407 . S
C437 C438 1.365 . S
C438 H426 0.930 . S
C438 C437 1.365 . S
C438 C439 1.393 . S
C439 C438 1.393 . S
C439 C440 1.387 . S
C440 H427 0.930 . S
C440 C435 1.415 . S
C440 C439 1.387 . S
H441 C449 0.930 . S
H442 C452 0.930 . S
H443 C454 0.930 . S
H444 C455 0.970 . S
H445 C455 0.970 . S
H446 C457 0.930 . S
H447 C459 0.930 . S
H448 C461 0.930 . S
C449 H441 0.930 . S
C449 C450 1.382 . S
C449 C451 1.426 . S
C450 C449 1.382 . S
C450 C454 1.389 1_455 S
C451 C449 1.426 . S
C451 C452 1.375 . S
C451 C455 1.532 . S
C452 H442 0.930 . S
C452 C451 1.375 . S
C452 C453 1.416 . S
C453 C452 1.416 . S
C453 C454 1.371 1_455 S
C454 H443 0.930 . S
C454 C450 1.389 1_655 S
C454 C453 1.371 1_655 S
C455 H444 0.970 . S
C455 H445 0.970 . S
C455 C451 1.532 . S
C455 C456 1.499 . S
C456 C455 1.499 . S
C456 C457 1.370 . S
C456 C461 1.415 . S
C457 H446 0.930 . S
C457 C456 1.370 . S
C457 C458 1.412 . S
C458 C457 1.412 . S
C458 C459 1.370 1_455 S
C459 H447 0.930 . S
C459 C458 1.370 1_655 S
C459 C460 1.393 1_655 S
C460 C459 1.393 1_455 S
C460 C461 1.387 . S
C461 H448 0.930 . S
C461 C456 1.415 . S
C461 C460 1.387 . S
H462 C470 0.930 . S
H463 C473 0.930 . S
H464 C475 0.930 . S
H465 C476 0.970 . S
H466 C476 0.970 . S
H467 C478 0.930 . S
H468 C480 0.930 . S
H469 C482 0.930 . S
C470 H462 0.930 . S
C470 C471 1.382 . S
C470 C472 1.426 . S
C471 C470 1.382 . S
C471 C475 1.389 . S
C472 C470 1.426 . S
C472 C473 1.375 . S
C472 C476 1.532 . S
C473 H463 0.930 . S
C473 C472 1.375 . S
C473 C474 1.416 . S
C474 C473 1.416 . S
C474 C475 1.371 . S
C475 H464 0.930 . S
C475 C471 1.389 . S
C475 C474 1.371 . S
C476 H465 0.970 . S
C476 H466 0.970 . S
C476 C472 1.532 . S
C476 C477 1.499 . S
C477 C476 1.499 . S
C477 C478 1.370 . S
C477 C482 1.415 . S
C478 H467 0.930 . S
C478 C477 1.370 . S
C478 C479 1.407 . S
C479 C478 1.407 . S
C479 C480 1.365 . S
C480 H468 0.930 . S
C480 C479 1.365 . S
C480 C481 1.393 . S
C481 C480 1.393 . S
C481 C482 1.387 . S
C482 H469 0.930 . S
C482 C477 1.415 . S
C482 C481 1.387 . S
H483 C491 0.930 . S
H484 C494 0.930 . S
H485 C496 0.930 . S
H486 C497 0.970 . S
H487 C497 0.970 . S
H488 C499 0.930 . S
H489 C501 0.930 . S
H490 C503 0.930 . S
C491 H483 0.930 . S
C491 C492 1.382 . S
C491 C493 1.426 . S
C492 C491 1.382 . S
C492 C496 1.389 1_565 S
C493 C491 1.426 . S
C493 C494 1.375 . S
C493 C497 1.532 . S
C494 H484 0.930 . S
C494 C493 1.375 . S
C494 C495 1.416 . S
C495 C494 1.416 . S
C495 C496 1.371 1_565 S
C496 H485 0.930 . S
C496 C492 1.389 1_545 S
C496 C495 1.371 1_545 S
C497 H486 0.970 . S
C497 H487 0.970 . S
C497 C493 1.532 . S
C497 C498 1.499 . S
C498 C497 1.499 . S
C498 C499 1.370 . S
C498 C503 1.415 . S
C499 H488 0.930 . S
C499 C498 1.370 . S
C499 C500 1.458 . S
C500 C499 1.458 . S
C500 C501 1.345 1_565 S
C501 H489 0.930 . S
C501 C500 1.345 1_545 S
C501 C502 1.393 1_545 S
C502 C501 1.393 1_565 S
C502 C503 1.387 . S
C503 H490 0.930 . S
C503 C498 1.415 . S
C503 C502 1.387 . S
H504 C512 0.930 . S
H505 C515 0.930 . S
H506 C517 0.930 . S
H507 C518 0.970 . S
H508 C518 0.970 . S
H509 C520 0.930 . S
H510 C522 0.930 . S
H511 C524 0.930 . S
C512 H504 0.930 . S
C512 C513 1.382 . S
C512 C514 1.426 . S
C513 C512 1.382 . S
C513 C517 1.389 1_565 S
C514 C512 1.426 . S
C514 C515 1.375 . S
C514 C518 1.532 . S
C515 H505 0.930 . S
C515 C514 1.375 . S
C515 C516 1.416 . S
C516 C515 1.416 . S
C516 C517 1.371 1_565 S
C517 H506 0.930 . S
C517 C513 1.389 1_545 S
C517 C516 1.371 1_545 S
C518 H507 0.970 . S
C518 H508 0.970 . S
C518 C514 1.532 . S
C518 C519 1.499 . S
C519 C518 1.499 . S
C519 C520 1.370 . S
C519 C524 1.415 . S
C520 H509 0.930 . S
C520 C519 1.370 . S
C520 C521 1.407 . S
C521 C520 1.407 . S
C521 C522 1.365 1_565 S
C522 H510 0.930 . S
C522 C521 1.365 1_545 S
C522 C523 1.393 1_545 S
C523 C522 1.393 1_565 S
C523 C524 1.387 . S
C524 H511 0.930 . S
C524 C519 1.415 . S
C524 C523 1.387 . S
H525 C533 0.930 . S
H526 C536 0.930 . S
H527 C538 0.930 . S
H528 C539 0.970 . S
H529 C539 0.970 . S
H530 C541 0.930 . S
H531 C543 0.930 . S
H532 C545 0.930 . S
C533 H525 0.930 . S
C533 C534 1.382 . S
C533 C535 1.426 . S
C534 C533 1.382 . S
C534 C538 1.389 1_455 S
C535 C533 1.426 . S
C535 C536 1.375 . S
C535 C539 1.532 . S
C536 H526 0.930 . S
C536 C535 1.375 . S
C536 C537 1.416 . S
C537 C536 1.416 . S
C537 C538 1.371 1_455 S
C538 H527 0.930 . S
C538 C534 1.389 1_655 S
C538 C537 1.371 1_655 S
C539 H528 0.970 . S
C539 H529 0.970 . S
C539 C535 1.532 . S
C539 C540 1.499 . S
C540 C539 1.499 . S
C540 C541 1.370 . S
C540 C545 1.415 . S
C541 H530 0.930 . S
C541 C540 1.370 . S
C541 C542 1.407 . S
C542 C541 1.407 . S
C542 C543 1.365 1_455 S
C543 H531 0.930 . S
C543 C542 1.365 1_655 S
C543 C544 1.393 1_655 S
C544 C543 1.393 1_455 S
C544 C545 1.387 . S
C545 H532 0.930 . S
C545 C540 1.415 . S
C545 C544 1.387 . S
H546 C554 0.930 . S
H547 C557 0.930 . S
H548 C559 0.930 . S
H549 C560 0.970 . S
H550 C560 0.970 . S
H551 C562 0.930 . S
H552 C564 0.930 . S
H553 C566 0.930 . S
C554 H546 0.930 . S
C554 C555 1.382 . S
C554 C556 1.426 . S
C555 C554 1.382 . S
C555 C559 1.389 . S
C556 C554 1.426 . S
C556 C557 1.375 . S
C556 C560 1.532 . S
C557 H547 0.930 . S
C557 C556 1.375 . S
C557 C558 1.416 . S
C558 C557 1.416 . S
C558 C559 1.371 . S
C559 H548 0.930 . S
C559 C555 1.389 . S
C559 C558 1.371 . S
C560 H549 0.970 . S
C560 H550 0.970 . S
C560 C556 1.532 . S
C560 C561 1.499 . S
C561 C560 1.499 . S
C561 C562 1.370 . S
C561 C566 1.415 . S
C562 H551 0.930 . S
C562 C561 1.370 . S
C562 C563 1.407 . S
C563 C562 1.407 . S
C563 C564 1.365 . S
C564 H552 0.930 . S
C564 C563 1.365 . S
C564 C565 1.393 . S
C565 C564 1.393 . S
C565 C566 1.387 . S
C566 H553 0.930 . S
C566 C561 1.415 . S
C566 C565 1.387 . S
H567 C575 0.930 . S
H568 C578 0.930 . S
H569 C580 0.930 . S
H570 C581 0.970 . S
H571 C581 0.970 . S
H572 C583 0.930 . S
H573 C585 0.930 . S
H574 C587 0.930 . S
C575 H567 0.930 . S
C575 C576 1.382 . S
C575 C577 1.426 . S
C576 C575 1.382 . S
C576 C580 1.389 . S
C577 C575 1.426 . S
C577 C578 1.375 . S
C577 C581 1.532 . S
C578 H568 0.930 . S
C578 C577 1.375 . S
C578 C579 1.416 . S
C579 C578 1.416 . S
C579 C580 1.371 . S
C580 H569 0.930 . S
C580 C576 1.389 . S
C580 C579 1.371 . S
C581 H570 0.970 . S
C581 H571 0.970 . S
C581 C577 1.532 . S
C581 C582 1.499 . S
C582 C581 1.499 . S
C582 C583 1.370 . S
C582 C587 1.415 . S
C583 H572 0.930 . S
C583 C582 1.370 . S
C583 C584 1.407 . S
C584 C583 1.407 . S
C584 C585 1.365 . S
C585 H573 0.930 . S
C585 C584 1.365 . S
C585 C586 1.393 . S
C586 C585 1.393 . S
C586 C587 1.387 . S
C587 H574 0.930 . S
C587 C582 1.415 . S
C587 C586 1.387 . S
H588 C596 0.930 . S
H589 C599 0.930 . S
H590 C601 0.930 . S
H591 C602 0.970 . S
H592 C602 0.970 . S
H593 C604 0.930 . S
H594 C606 0.930 . S
H595 C608 0.930 . S
C596 H588 0.930 . S
C596 C597 1.382 . S
C596 C598 1.426 . S
C597 C596 1.382 . S
C597 C601 1.389 . S
C598 C596 1.426 . S
C598 C599 1.375 . S
C598 C602 1.532 . S
C599 H589 0.930 . S
C599 C598 1.375 . S
C599 C600 1.416 . S
C600 C599 1.416 . S
C600 C601 1.371 . S
C601 H590 0.930 . S
C601 C597 1.389 . S
C601 C600 1.371 . S
C602 H591 0.970 . S
C602 H592 0.970 . S
C602 C598 1.532 . S
C602 C603 1.499 . S
C603 C602 1.499 . S
C603 C604 1.370 . S
C603 C608 1.415 . S
C604 H593 0.930 . S
C604 C603 1.370 . S
C604 C605 1.407 . S
C605 C604 1.407 . S
C605 C606 1.365 . S
C606 H594 0.930 . S
C606 C605 1.365 . S
C606 C607 1.393 . S
C607 C606 1.393 . S
C607 C608 1.387 . S
C608 H595 0.930 . S
C608 C603 1.415 . S
C608 C607 1.387 . S
H609 C617 0.930 . S
H610 C620 0.930 . S
H611 C622 0.930 . S
H612 C623 0.970 . S
H613 C623 0.970 . S
H614 C625 0.930 . S
H615 C627 0.930 . S
H616 C629 0.930 . S
C617 H609 0.930 . S
C617 C618 1.382 . S
C617 C619 1.426 . S
C618 C617 1.382 . S
C618 C622 1.389 . S
C619 C617 1.426 . S
C619 C620 1.375 . S
C619 C623 1.532 . S
C620 H610 0.930 . S
C620 C619 1.375 . S
C620 C621 1.416 . S
C621 C620 1.416 . S
C621 C622 1.371 . S
C622 H611 0.930 . S
C622 C618 1.389 . S
C622 C621 1.371 . S
C623 H612 0.970 . S
C623 H613 0.970 . S
C623 C619 1.532 . S
C623 C624 1.499 . S
C624 C623 1.499 . S
C624 C625 1.370 . S
C624 C629 1.415 . S
C625 H614 0.930 . S
C625 C624 1.370 . S
C625 C626 1.407 . S
C626 C625 1.407 . S
C626 C627 1.365 . S
C627 H615 0.930 . S
C627 C626 1.365 . S
C627 C628 1.393 . S
C628 C627 1.393 . S
C628 C629 1.387 . S
C629 H616 0.930 . S
C629 C624 1.415 . S
C629 C628 1.387 . S
C630 C631 1.280 1_655 S
C630 C632 1.327 . S
C630 H655 0.950 . S
C631 C630 1.280 1_455 S
C631 C647 1.389 . S
C632 C630 1.327 . S
C632 C651 1.433 1_655 S
C632 H656 0.950 . S
C633 C650 1.574 . S
C633 C652 1.348 1_455 S
C633 H657 0.949 . S
H634 C638 0.949 . S
C635 C636 1.349 1_455 S
C635 C637 1.327 . S
C635 H658 0.950 . S
C636 C635 1.349 1_655 S
C636 C648 1.349 . S
C637 C635 1.327 . S
C637 C653 1.429 1_455 S
C637 H659 0.950 . S
C638 H634 0.949 . S
C638 C646 1.574 . S
C638 C654 1.368 . S
H639 C647 0.950 . S
H640 C645 0.950 . S
H641 C646 0.949 . S
H642 C648 0.950 . S
H643 C649 0.950 . S
H644 C650 0.949 . S
C645 H640 0.950 . S
C645 C647 1.327 . S
C645 C651 1.420 . S
C646 C638 1.574 . S
C646 H641 0.949 . S
C646 C652 1.399 . S
C647 C631 1.389 . S
C647 H639 0.950 . S
C647 C645 1.327 . S
C648 C636 1.349 . S
C648 H642 0.950 . S
C648 C649 1.327 . S
C649 H643 0.950 . S
C649 C648 1.327 . S
C649 C653 1.429 . S
C650 C633 1.574 . S
C650 H644 0.949 . S
C650 C654 1.368 1_455 S
C651 C632 1.433 1_455 S
C651 C645 1.420 . S
C651 C652 1.513 1_455 S
C652 C633 1.348 1_655 S
C652 C646 1.399 . S
C652 C651 1.513 1_655 S
C653 C637 1.429 1_655 S
C653 C649 1.429 . S
C653 C654 1.523 . S
C654 C638 1.368 . S
C654 C650 1.368 1_655 S
C654 C653 1.523 . S
H655 C630 0.950 . S
H656 C632 0.950 . S
H657 C633 0.949 . S
H658 C635 0.950 . S
H659 C637 0.950 . S
C660 C661 1.349 . S
C660 C662 1.327 . S
C660 H685 0.950 . S
C661 C660 1.349 . S
C661 C677 1.349 . S
C662 C660 1.327 . S
C662 C681 1.429 . S
C662 H686 0.950 . S
C663 C680 1.574 . S
C663 C682 1.368 . S
C663 H687 0.949 . S
H664 C668 0.949 . S
C665 C666 1.349 . S
C665 C667 1.327 . S
C665 H688 0.950 . S
C666 C665 1.349 . S
C666 C678 1.349 . S
C667 C665 1.327 . S
C667 C683 1.429 . S
C667 H689 0.950 . S
C668 H664 0.949 . S
C668 C676 1.574 . S
C668 C684 1.368 . S
H669 C677 0.950 . S
H670 C675 0.950 . S
H671 C676 0.949 . S
H672 C678 0.950 . S
H673 C679 0.950 . S
H674 C680 0.949 . S
C675 H670 0.950 . S
C675 C677 1.327 . S
C675 C681 1.429 . S
C676 C668 1.574 . S
C676 H671 0.949 . S
C676 C682 1.368 . S
C677 C661 1.349 . S
C677 H669 0.950 . S
C677 C675 1.327 . S
C678 C666 1.349 . S
C678 H672 0.950 . S
C678 C679 1.327 . S
C679 H673 0.950 . S
C679 C678 1.327 . S
C679 C683 1.429 . S
C680 C663 1.574 . S
C680 H674 0.949 . S
C680 C684 1.368 . S
C681 C662 1.429 . S
C681 C675 1.429 . S
C681 C682 1.523 . S
C682 C663 1.368 . S
C682 C676 1.368 . S
C682 C681 1.523 . S
C683 C667 1.429 . S
C683 C679 1.429 . S
C683 C684 1.523 . S
C684 C668 1.368 . S
C684 C680 1.368 . S
C684 C683 1.523 . S
H685 C660 0.950 . S
H686 C662 0.950 . S
H687 C663 0.949 . S
H688 C665 0.950 . S
H689 C667 0.950 . S
C690 C691 1.396 . S
C690 C692 1.327 . S
C690 H715 0.950 . S
C691 C690 1.396 . S
C691 C707 1.321 1_565 S
C692 C690 1.327 . S
C692 C711 1.426 1_565 S
C692 H716 0.950 . S
C693 C710 1.574 . S
C693 C712 1.399 . S
C693 H717 0.949 . S
H694 C698 0.949 . S
C695 C696 1.349 . S
C695 C697 1.327 . S
C695 H718 0.950 . S
C696 C695 1.349 . S
C696 C708 1.349 1_545 S
C697 C695 1.327 . S
C697 C713 1.429 . S
C697 H719 0.950 . S
C698 H694 0.949 . S
C698 C706 1.574 . S
C698 C714 1.368 1_565 S
H699 C707 0.950 . S
H700 C705 0.950 . S
H701 C706 0.949 . S
H702 C708 0.950 . S
H703 C709 0.950 . S
H704 C710 0.949 . S
C705 H700 0.950 . S
C705 C707 1.327 . S
C705 C711 1.432 . S
C706 C698 1.574 . S
C706 H701 0.949 . S
C706 C712 1.325 1_565 S
C707 C691 1.321 1_545 S
C707 H699 0.950 . S
C707 C705 1.327 . S
C708 C696 1.349 1_565 S
C708 H702 0.950 . S
C708 C709 1.327 . S
C709 H703 0.950 . S
C709 C708 1.327 . S
C709 C713 1.429 1_565 S
C710 C693 1.574 . S
C710 H704 0.949 . S
C710 C714 1.368 . S
C711 C692 1.426 1_545 S
C711 C705 1.432 . S
C711 C712 1.539 . S
C712 C693 1.399 . S
C712 C706 1.325 1_545 S
C712 C711 1.539 . S
C713 C697 1.429 . S
C713 C709 1.429 1_545 S
C713 C714 1.523 . S
C714 C698 1.368 1_545 S
C714 C710 1.368 . S
C714 C713 1.523 . S
H715 C690 0.950 . S
H716 C692 0.950 . S
H717 C693 0.949 . S
H718 C695 0.950 . S
H719 C697 0.950 . S
C720 C721 1.363 . S
C720 C722 1.327 . S
C720 H745 0.950 . S
C721 C720 1.363 . S
C721 C737 1.315 1_545 S
C722 C720 1.327 . S
C722 C741 1.425 1_545 S
C722 H746 0.950 . S
C723 C740 1.574 . S
C723 C742 1.400 . S
C723 H747 0.949 . S
H724 C728 0.949 . S
C725 C726 1.349 . S
C725 C727 1.327 . S
C725 H748 0.950 . S
C726 C725 1.349 . S
C726 C738 1.349 1_565 S
C727 C725 1.327 . S
C727 C743 1.429 . S
C727 H749 0.950 . S
C728 H724 0.949 . S
C728 C736 1.574 . S
C728 C744 1.368 1_545 S
H729 C737 0.950 . S
H730 C735 0.950 . S
H731 C736 0.949 . S
H732 C738 0.950 . S
H733 C739 0.950 . S
H734 C740 0.949 . S
C735 H730 0.950 . S
C735 C737 1.327 . S
C735 C741 1.430 . S
C736 C728 1.574 . S
C736 H731 0.949 . S
C736 C742 1.353 1_545 S
C737 C721 1.315 1_565 S
C737 H729 0.950 . S
C737 C735 1.327 . S
C738 C726 1.349 1_545 S
C738 H732 0.950 . S
C738 C739 1.327 . S
C739 H733 0.950 . S
C739 C738 1.327 . S
C739 C743 1.429 1_545 S
C740 C723 1.574 . S
C740 H734 0.949 . S
C740 C744 1.368 . S
C741 C722 1.425 1_565 S
C741 C735 1.430 . S
C741 C742 1.506 . S
C742 C723 1.400 . S
C742 C736 1.353 1_565 S
C742 C741 1.506 . S
C743 C727 1.429 . S
C743 C739 1.429 1_565 S
C743 C744 1.523 . S
C744 C728 1.368 1_565 S
C744 C740 1.368 . S
C744 C743 1.523 . S
H745 C720 0.950 . S
H746 C722 0.950 . S
H747 C723 0.949 . S
H748 C725 0.950 . S
H749 C727 0.950 . S
C750 C751 1.371 . S
C750 C752 1.334 1_655 S
C750 H775 0.950 . S
C751 C750 1.371 . S
C751 C767 1.350 . S
C752 C750 1.334 1_455 S
C752 C771 1.429 . S
C752 H776 0.964 . S
C753 C770 1.591 . S
C753 C772 1.370 . S
C753 H777 0.965 . S
H754 C758 0.949 . S
C755 C756 1.349 . S
C755 C757 1.327 . S
C755 H778 0.950 . S
C756 C755 1.349 . S
C756 C768 1.349 . S
C757 C755 1.327 . S
C757 C773 1.429 . S
C757 H779 0.950 . S
C758 H754 0.949 . S
C758 C766 1.574 . S
C758 C774 1.368 . S
H759 C767 0.965 . S
H760 C765 0.950 . S
H761 C766 0.949 . S
H762 C768 0.950 . S
H763 C769 0.950 . S
H764 C770 0.949 . S
C765 H760 0.950 . S
C765 C767 1.341 . S
C765 C771 1.443 1_655 S
C766 C758 1.574 . S
C766 H761 0.949 . S
C766 C772 1.347 . S
C767 C751 1.350 . S
C767 H759 0.965 . S
C767 C765 1.341 . S
C768 C756 1.349 . S
C768 H762 0.950 . S
C768 C769 1.327 . S
C769 H763 0.950 . S
C769 C768 1.327 . S
C769 C773 1.429 . S
C770 C753 1.591 . S
C770 H764 0.949 . S
C770 C774 1.337 . S
C771 C752 1.429 . S
C771 C765 1.443 1_455 S
C771 C772 1.540 . S
C772 C753 1.370 . S
C772 C766 1.347 . S
C772 C771 1.540 . S
C773 C757 1.429 . S
C773 C769 1.429 . S
C773 C774 1.523 . S
C774 C758 1.368 . S
C774 C770 1.337 . S
C774 C773 1.523 . S
H775 C750 0.950 . S
H776 C752 0.964 . S
H777 C753 0.965 . S
H778 C755 0.950 . S
H779 C757 0.950 . S
C780 C781 1.349 . S
C780 C782 1.327 . S
C780 H805 0.950 . S
C781 C780 1.349 . S
C781 C797 1.349 . S
C782 C780 1.327 . S
C782 C801 1.429 . S
C782 H806 0.950 . S
C783 C800 1.574 . S
C783 C802 1.368 . S
C783 H807 0.949 . S
H784 C788 0.949 . S
C785 C786 1.349 . S
C785 C787 1.327 . S
C785 H808 0.950 . S
C786 C785 1.349 . S
C786 C798 1.349 . S
C787 C785 1.327 . S
C787 C803 1.429 . S
C787 H809 0.950 . S
C788 H784 0.949 . S
C788 C796 1.574 . S
C788 C804 1.368 . S
H789 C797 0.950 . S
H790 C795 0.950 . S
H791 C796 0.949 . S
H792 C798 0.950 . S
H793 C799 0.950 . S
H794 C800 0.949 . S
C795 H790 0.950 . S
C795 C797 1.327 . S
C795 C801 1.429 . S
C796 C788 1.574 . S
C796 H791 0.949 . S
C796 C802 1.368 . S
C797 C781 1.349 . S
C797 H789 0.950 . S
C797 C795 1.327 . S
C798 C786 1.349 . S
C798 H792 0.950 . S
C798 C799 1.327 . S
C799 H793 0.950 . S
C799 C798 1.327 . S
C799 C803 1.429 . S
C800 C783 1.574 . S
C800 H794 0.949 . S
C800 C804 1.368 . S
C801 C782 1.429 . S
C801 C795 1.429 . S
C801 C802 1.523 . S
C802 C783 1.368 . S
C802 C796 1.368 . S
C802 C801 1.523 . S
C803 C787 1.429 . S
C803 C799 1.429 . S
C803 C804 1.523 . S
C804 C788 1.368 . S
C804 C800 1.368 . S
C804 C803 1.523 . S
H805 C780 0.950 . S
H806 C782 0.950 . S
H807 C783 0.949 . S
H808 C785 0.950 . S
H809 C787 0.950 . S
C810 C811 1.351 . S
C810 C812 1.327 . S
C810 H835 0.950 . S
C811 C810 1.351 . S
C811 C827 1.322 1_655 S
C812 C810 1.327 . S
C812 C831 1.447 . S
C812 H836 0.950 . S
C813 C830 1.574 . S
C813 C832 1.358 1_455 S
C813 H837 0.949 . S
H814 C818 0.949 . S
C815 C816 1.349 . S
C815 C817 1.327 . S
C815 H838 0.950 . S
C816 C815 1.349 . S
C816 C828 1.342 1_455 S
C817 C815 1.327 . S
C817 C833 1.425 . S
C817 H839 0.950 . S
C818 H814 0.949 . S
C818 C826 1.574 . S
C818 C834 1.369 . S
H819 C827 0.950 . S
H820 C825 0.950 . S
H821 C826 0.949 . S
H822 C828 0.950 . S
H823 C829 0.950 . S
H824 C830 0.949 . S
C825 H820 0.950 . S
C825 C827 1.327 . S
C825 C831 1.430 1_455 S
C826 C818 1.574 . S
C826 H821 0.949 . S
C826 C832 1.371 . S
C827 C811 1.322 1_455 S
C827 H819 0.950 . S
C827 C825 1.327 . S
C828 C816 1.342 1_655 S
C828 H822 0.950 . S
C828 C829 1.327 . S
C829 H823 0.950 . S
C829 C828 1.327 . S
C829 C833 1.428 1_655 S
C830 C813 1.574 . S
C830 H824 0.949 . S
C830 C834 1.368 1_455 S
C831 C812 1.447 . S
C831 C825 1.430 1_655 S
C831 C832 1.517 . S
C832 C813 1.358 1_655 S
C832 C826 1.371 . S
C832 C831 1.517 . S
C833 C817 1.425 . S
C833 C829 1.428 1_455 S
C833 C834 1.526 1_455 S
C834 C818 1.369 . S
C834 C830 1.368 1_655 S
C834 C833 1.526 1_655 S
H835 C810 0.950 . S
H836 C812 0.950 . S
H837 C813 0.949 . S
H838 C815 0.950 . S
H839 C817 0.950 . S
C840 C841 1.349 . S
C840 C842 1.327 . S
C840 H865 0.950 . S
C841 C840 1.349 . S
C841 C857 1.349 . S
C842 C840 1.327 . S
C842 C861 1.429 . S
C842 H866 0.950 . S
C843 C860 1.574 . S
C843 C862 1.368 . S
C843 H867 0.949 . S
H844 C848 0.949 . S
C845 C846 1.349 . S
C845 C847 1.327 . S
C845 H868 0.950 . S
C846 C845 1.349 . S
C846 C858 1.349 . S
C847 C845 1.327 . S
C847 C863 1.429 . S
C847 H869 0.950 . S
C848 H844 0.949 . S
C848 C856 1.574 . S
C848 C864 1.368 . S
H849 C857 0.950 . S
H850 C855 0.950 . S
H851 C856 0.949 . S
H852 C858 0.950 . S
H853 C859 0.950 . S
H854 C860 0.949 . S
C855 H850 0.950 . S
C855 C857 1.327 . S
C855 C861 1.429 . S
C856 C848 1.574 . S
C856 H851 0.949 . S
C856 C862 1.368 . S
C857 C841 1.349 . S
C857 H849 0.950 . S
C857 C855 1.327 . S
C858 C846 1.349 . S
C858 H852 0.950 . S
C858 C859 1.327 . S
C859 H853 0.950 . S
C859 C858 1.327 . S
C859 C863 1.429 . S
C860 C843 1.574 . S
C860 H854 0.949 . S
C860 C864 1.368 . S
C861 C842 1.429 . S
C861 C855 1.429 . S
C861 C862 1.523 . S
C862 C843 1.368 . S
C862 C856 1.368 . S
C862 C861 1.523 . S
C863 C847 1.429 . S
C863 C859 1.429 . S
C863 C864 1.523 . S
C864 C848 1.368 . S
C864 C860 1.368 . S
C864 C863 1.523 . S
H865 C840 0.950 . S
H866 C842 0.950 . S
H867 C843 0.949 . S
H868 C845 0.950 . S
H869 C847 0.950 . S
C870 C871 1.398 . S
C870 C872 1.327 . S
C870 H895 0.950 . S
C871 C870 1.398 . S
C871 C887 1.331 1_545 S
C872 C870 1.327 . S
C872 C891 1.441 . S
C872 H896 0.950 . S
C873 C890 1.574 . S
C873 C892 1.356 1_565 S
C873 H897 0.949 . S
H874 C878 0.949 . S
C875 C876 1.346 . S
C875 C877 1.327 . S
C875 H898 0.950 . S
C876 C875 1.346 . S
C876 C888 1.350 1_565 S
C877 C875 1.327 . S
C877 C893 1.427 1_565 S
C877 H899 0.950 . S
C878 H874 0.949 . S
C878 C886 1.574 . S
C878 C894 1.375 . S
H879 C887 0.950 . S
H880 C885 0.950 . S
H881 C886 0.949 . S
H882 C888 0.950 . S
H883 C889 0.950 . S
H884 C890 0.949 . S
C885 H880 0.950 . S
C885 C887 1.327 . S
C885 C891 1.395 1_565 S
C886 C878 1.574 . S
C886 H881 0.949 . S
C886 C892 1.394 . S
C887 C871 1.331 1_565 S
C887 H879 0.950 . S
C887 C885 1.327 . S
C888 C876 1.350 1_545 S
C888 H882 0.950 . S
C888 C889 1.327 . S
C889 H883 0.950 . S
C889 C888 1.327 . S
C889 C893 1.433 . S
C890 C873 1.574 . S
C890 H884 0.949 . S
C890 C894 1.357 1_565 S
C891 C872 1.441 . S
C891 C885 1.395 1_545 S
C891 C892 1.528 . S
C892 C873 1.356 1_545 S
C892 C886 1.394 . S
C892 C891 1.528 . S
C893 C877 1.427 1_545 S
C893 C889 1.433 . S
C893 C894 1.528 . S
C894 C878 1.375 . S
C894 C890 1.357 1_545 S
C894 C893 1.528 . S
H895 C870 0.950 . S
H896 C872 0.950 . S
H897 C873 0.949 . S
H898 C875 0.950 . S
H899 C877 0.950 . S
C900 C901 1.303 1_545 S
C900 C902 1.327 . S
C900 H925 0.950 . S
C901 C900 1.303 1_565 S
C901 C917 1.377 . S
C902 C900 1.327 . S
C902 C921 1.415 1_545 S
C902 H926 0.950 . S
C903 C920 1.574 . S
C903 C922 1.378 . S
C903 H927 0.949 . S
H904 C908 0.949 . S
C905 C906 1.330 1_565 S
C905 C907 1.327 . S
C905 H928 0.950 . S
C906 C905 1.330 1_545 S
C906 C918 1.360 . S
C907 C905 1.327 . S
C907 C923 1.430 1_565 S
C907 H929 0.950 . S
C908 H904 0.949 . S
C908 C916 1.574 . S
C908 C924 1.373 1_545 S
H909 C917 0.950 . S
H910 C915 0.950 . S
H911 C916 0.949 . S
H912 C918 0.950 . S
H913 C919 0.950 . S
H914 C920 0.949 . S
C915 H910 0.950 . S
C915 C917 1.327 . S
C915 C921 1.453 . S
C916 C908 1.574 . S
C916 H911 0.949 . S
C916 C922 1.355 1_545 S
C917 C901 1.377 . S
C917 H909 0.950 . S
C917 C915 1.327 . S
C918 C906 1.360 . S
C918 H912 0.950 . S
C918 C919 1.327 . S
C919 H913 0.950 . S
C919 C918 1.327 . S
C919 C923 1.426 . S
C920 C903 1.574 . S
C920 H914 0.949 . S
C920 C924 1.362 . S
C921 C902 1.415 1_565 S
C921 C915 1.453 . S
C921 C922 1.518 . S
C922 C903 1.378 . S
C922 C916 1.355 1_565 S
C922 C921 1.518 . S
C923 C907 1.430 1_545 S
C923 C919 1.426 . S
C923 C924 1.527 1_545 S
C924 C908 1.373 1_565 S
C924 C920 1.362 . S
C924 C923 1.527 1_565 S
H925 C900 0.950 . S
H926 C902 0.950 . S
H927 C903 0.949 . S
H928 C905 0.950 . S
H929 C907 0.950 . S
C930 C931 1.419 . S
C930 C932 1.327 . S
C930 H955 0.950 . S
C931 C930 1.419 . S
C931 C947 1.314 1_455 S
C932 C930 1.327 . S
C932 C951 1.453 . S
C932 H956 0.950 . S
C933 C950 1.574 . S
C933 C952 1.346 1_655 S
C933 H957 0.949 . S
H934 C938 0.949 . S
C935 C936 1.349 . S
C935 C937 1.327 . S
C935 H958 0.950 . S
C936 C935 1.349 . S
C936 C948 1.349 1_655 S
C937 C935 1.327 . S
C937 C953 1.426 1_655 S
C937 H959 0.950 . S
C938 H934 0.949 . S
C938 C946 1.574 . S
C938 C954 1.379 . S
H939 C947 0.950 . S
H940 C945 0.950 . S
H941 C946 0.949 . S
H942 C948 0.950 . S
H943 C949 0.950 . S
H944 C950 0.949 . S
C945 H940 0.950 . S
C945 C947 1.327 . S
C945 C951 1.381 1_655 S
C946 C938 1.574 . S
C946 H941 0.949 . S
C946 C952 1.405 . S
C947 C931 1.314 1_655 S
C947 H939 0.950 . S
C947 C945 1.327 . S
C948 C936 1.349 1_455 S
C948 H942 0.950 . S
C948 C949 1.327 . S
C949 H943 0.950 . S
C949 C948 1.327 . S
C949 C953 1.433 . S
C950 C933 1.574 . S
C950 H944 0.949 . S
C950 C954 1.352 1_655 S
C951 C932 1.453 . S
C951 C945 1.381 1_455 S
C951 C952 1.528 . S
C952 C933 1.346 1_455 S
C952 C946 1.405 . S
C952 C951 1.528 . S
C953 C937 1.426 1_455 S
C953 C949 1.433 . S
C953 C954 1.528 . S
C954 C938 1.379 . S
C954 C950 1.352 1_455 S
C954 C953 1.528 . S
H955 C930 0.950 . S
H956 C932 0.950 . S
H957 C933 0.949 . S
H958 C935 0.950 . S
H959 C937 0.950 . S
C960 C961 1.349 . S
C960 C962 1.327 . S
C960 H985 0.950 . S
C961 C960 1.349 . S
C961 C977 1.349 . S
C962 C960 1.327 . S
C962 C981 1.429 . S
C962 H986 0.950 . S
C963 C980 1.574 . S
C963 C982 1.368 . S
C963 H987 0.949 . S
H964 C968 0.949 . S
C965 C966 1.349 . S
C965 C967 1.327 . S
C965 H988 0.950 . S
C966 C965 1.349 . S
C966 C978 1.349 . S
C967 C965 1.327 . S
C967 C983 1.429 . S
C967 H989 0.950 . S
C968 H964 0.949 . S
C968 C976 1.574 . S
C968 C984 1.368 . S
H969 C977 0.950 . S
H970 C975 0.950 . S
H971 C976 0.949 . S
H972 C978 0.950 . S
H973 C979 0.950 . S
H974 C980 0.949 . S
C975 H970 0.950 . S
C975 C977 1.327 . S
C975 C981 1.429 . S
C976 C968 1.574 . S
C976 H971 0.949 . S
C976 C982 1.368 . S
C977 C961 1.349 . S
C977 H969 0.950 . S
C977 C975 1.327 . S
C978 C966 1.349 . S
C978 H972 0.950 . S
C978 C979 1.327 . S
C979 H973 0.950 . S
C979 C978 1.327 . S
C979 C983 1.429 . S
C980 C963 1.574 . S
C980 H974 0.949 . S
C980 C984 1.368 . S
C981 C962 1.429 . S
C981 C975 1.429 . S
C981 C982 1.523 . S
C982 C963 1.368 . S
C982 C976 1.368 . S
C982 C981 1.523 . S
C983 C967 1.429 . S
C983 C979 1.429 . S
C983 C984 1.523 . S
C984 C968 1.368 . S
C984 C980 1.368 . S
C984 C983 1.523 . S
H985 C960 0.950 . S
H986 C962 0.950 . S
H987 C963 0.949 . S
H988 C965 0.950 . S
H989 C967 0.950 . S
C990 C991 1.349 . S
C990 C992 1.327 . S
C990 H1015 0.950 . S
C991 C990 1.349 . S
C991 C1007 1.349 . S
C992 C990 1.327 . S
C992 C1011 1.429 . S
C992 H1016 0.950 . S
C993 C1010 1.574 . S
C993 C1012 1.368 . S
C993 H1017 0.949 . S
H994 C998 0.949 . S
C995 C996 1.349 . S
C995 C997 1.327 . S
C995 H1018 0.950 . S
C996 C995 1.349 . S
C996 C1008 1.349 . S
C997 C995 1.327 . S
C997 C1013 1.429 . S
C997 H1019 0.950 . S
C998 H994 0.949 . S
C998 C1006 1.574 . S
C998 C1014 1.368 . S
H999 C1007 0.950 . S
H1000 C1005 0.950 . S
H1001 C1006 0.949 . S
H1002 C1008 0.950 . S
H1003 C1009 0.950 . S
H1004 C1010 0.949 . S
C1005 H1000 0.950 . S
C1005 C1007 1.327 . S
C1005 C1011 1.429 . S
C1006 C998 1.574 . S
C1006 H1001 0.949 . S
C1006 C1012 1.368 . S
C1007 C991 1.349 . S
C1007 H999 0.950 . S
C1007 C1005 1.327 . S
C1008 C996 1.349 . S
C1008 H1002 0.950 . S
C1008 C1009 1.327 . S
C1009 H1003 0.950 . S
C1009 C1008 1.327 . S
C1009 C1013 1.429 . S
C1010 C993 1.574 . S
C1010 H1004 0.949 . S
C1010 C1014 1.368 . S
C1011 C992 1.429 . S
C1011 C1005 1.429 . S
C1011 C1012 1.523 . S
C1012 C993 1.368 . S
C1012 C1006 1.368 . S
C1012 C1011 1.523 . S
C1013 C997 1.429 . S
C1013 C1009 1.429 . S
C1013 C1014 1.523 . S
C1014 C998 1.368 . S
C1014 C1010 1.368 . S
C1014 C1013 1.523 . S
H1015 C990 0.950 . S
H1016 C992 0.950 . S
H1017 C993 0.949 . S
H1018 C995 0.950 . S
H1019 C997 0.950 . S
C1020 C1021 1.349 . S
C1020 C1022 1.327 . S
C1020 H1045 0.950 . S
C1021 C1020 1.349 . S
C1021 C1037 1.349 . S
C1022 C1020 1.327 . S
C1022 C1041 1.429 . S
C1022 H1046 0.950 . S
C1023 C1040 1.574 . S
C1023 C1042 1.368 . S
C1023 H1047 0.949 . S
H1024 C1028 0.949 . S
C1025 C1026 1.349 . S
C1025 C1027 1.327 . S
C1025 H1048 0.950 . S
C1026 C1025 1.349 . S
C1026 C1038 1.349 . S
C1027 C1025 1.327 . S
C1027 C1043 1.429 . S
C1027 H1049 0.950 . S
C1028 H1024 0.949 . S
C1028 C1036 1.574 . S
C1028 C1044 1.368 . S
H1029 C1037 0.950 . S
H1030 C1035 0.950 . S
H1031 C1036 0.949 . S
H1032 C1038 0.950 . S
H1033 C1039 0.950 . S
H1034 C1040 0.949 . S
C1035 H1030 0.950 . S
C1035 C1037 1.327 . S
C1035 C1041 1.429 . S
C1036 C1028 1.574 . S
C1036 H1031 0.949 . S
C1036 C1042 1.368 . S
C1037 C1021 1.349 . S
C1037 H1029 0.950 . S
C1037 C1035 1.327 . S
C1038 C1026 1.349 . S
C1038 H1032 0.950 . S
C1038 C1039 1.327 . S
C1039 H1033 0.950 . S
C1039 C1038 1.327 . S
C1039 C1043 1.429 . S
C1040 C1023 1.574 . S
C1040 H1034 0.949 . S
C1040 C1044 1.368 . S
C1041 C1022 1.429 . S
C1041 C1035 1.429 . S
C1041 C1042 1.523 . S
C1042 C1023 1.368 . S
C1042 C1036 1.368 . S
C1042 C1041 1.523 . S
C1043 C1027 1.429 . S
C1043 C1039 1.429 . S
C1043 C1044 1.523 . S
C1044 C1028 1.368 . S
C1044 C1040 1.368 . S
C1044 C1043 1.523 . S
H1045 C1020 0.950 . S
H1046 C1022 0.950 . S
H1047 C1023 0.949 . S
H1048 C1025 0.950 . S
H1049 C1027 0.950 . S
C1050 C1051 1.349 . S
C1050 C1052 1.327 . S
C1050 H1075 0.950 . S
C1051 C1050 1.349 . S
C1051 C1067 1.349 . S
C1052 C1050 1.327 . S
C1052 C1071 1.429 . S
C1052 H1076 0.950 . S
C1053 C1070 1.574 . S
C1053 C1072 1.368 . S
C1053 H1077 0.949 . S
H1054 C1058 0.949 . S
C1055 C1056 1.349 . S
C1055 C1057 1.327 . S
C1055 H1078 0.950 . S
C1056 C1055 1.349 . S
C1056 C1068 1.349 . S
C1057 C1055 1.327 . S
C1057 C1073 1.429 . S
C1057 H1079 0.950 . S
C1058 H1054 0.949 . S
C1058 C1066 1.574 . S
C1058 C1074 1.368 . S
H1059 C1067 0.950 . S
H1060 C1065 0.950 . S
H1061 C1066 0.949 . S
H1062 C1068 0.950 . S
H1063 C1069 0.950 . S
H1064 C1070 0.949 . S
C1065 H1060 0.950 . S
C1065 C1067 1.327 . S
C1065 C1071 1.429 . S
C1066 C1058 1.574 . S
C1066 H1061 0.949 . S
C1066 C1072 1.368 . S
C1067 C1051 1.349 . S
C1067 H1059 0.950 . S
C1067 C1065 1.327 . S
C1068 C1056 1.349 . S
C1068 H1062 0.950 . S
C1068 C1069 1.327 . S
C1069 H1063 0.950 . S
C1069 C1068 1.327 . S
C1069 C1073 1.429 . S
C1070 C1053 1.574 . S
C1070 H1064 0.949 . S
C1070 C1074 1.368 . S
C1071 C1052 1.429 . S
C1071 C1065 1.429 . S
C1071 C1072 1.523 . S
C1072 C1053 1.368 . S
C1072 C1066 1.368 . S
C1072 C1071 1.523 . S
C1073 C1057 1.429 . S
C1073 C1069 1.429 . S
C1073 C1074 1.523 . S
C1074 C1058 1.368 . S
C1074 C1070 1.368 . S
C1074 C1073 1.523 . S
H1075 C1050 0.950 . S
H1076 C1052 0.950 . S
H1077 C1053 0.949 . S
H1078 C1055 0.950 . S
H1079 C1057 0.950 . S
C1080 C1081 1.349 . S
C1080 C1082 1.327 . S
C1080 H1105 0.950 . S
C1081 C1080 1.349 . S
C1081 C1097 1.349 . S
C1082 C1080 1.327 . S
C1082 C1101 1.429 . S
C1082 H1106 0.950 . S
C1083 C1100 1.574 . S
C1083 C1102 1.368 . S
C1083 H1107 0.949 . S
H1084 C1088 0.949 . S
C1085 C1086 1.349 . S
C1085 C1087 1.327 . S
C1085 H1108 0.950 . S
C1086 C1085 1.349 . S
C1086 C1098 1.349 . S
C1087 C1085 1.327 . S
C1087 C1103 1.429 . S
C1087 H1109 0.950 . S
C1088 H1084 0.949 . S
C1088 C1096 1.574 . S
C1088 C1104 1.368 . S
H1089 C1097 0.950 . S
H1090 C1095 0.950 . S
H1091 C1096 0.949 . S
H1092 C1098 0.950 . S
H1093 C1099 0.950 . S
H1094 C1100 0.949 . S
C1095 H1090 0.950 . S
C1095 C1097 1.327 . S
C1095 C1101 1.429 . S
C1096 C1088 1.574 . S
C1096 H1091 0.949 . S
C1096 C1102 1.368 . S
C1097 C1081 1.349 . S
C1097 H1089 0.950 . S
C1097 C1095 1.327 . S
C1098 C1086 1.349 . S
C1098 H1092 0.950 . S
C1098 C1099 1.327 . S
C1099 H1093 0.950 . S
C1099 C1098 1.327 . S
C1099 C1103 1.429 . S
C1100 C1083 1.574 . S
C1100 H1094 0.949 . S
C1100 C1104 1.368 . S
C1101 C1082 1.429 . S
C1101 C1095 1.429 . S
C1101 C1102 1.523 . S
C1102 C1083 1.368 . S
C1102 C1096 1.368 . S
C1102 C1101 1.523 . S
C1103 C1087 1.429 . S
C1103 C1099 1.429 . S
C1103 C1104 1.523 . S
C1104 C1088 1.368 . S
C1104 C1100 1.368 . S
C1104 C1103 1.523 . S
H1105 C1080 0.950 . S
H1106 C1082 0.950 . S
H1107 C1083 0.949 . S
H1108 C1085 0.950 . S
H1109 C1087 0.950 . S
C1110 C1111 1.349 . S
C1110 C1112 1.327 . S
C1110 H1135 0.950 . S
C1111 C1110 1.349 . S
C1111 C1127 1.349 . S
C1112 C1110 1.327 . S
C1112 C1131 1.429 . S
C1112 H1136 0.950 . S
C1113 C1130 1.574 . S
C1113 C1132 1.368 . S
C1113 H1137 0.949 . S
H1114 C1118 0.949 . S
C1115 C1116 1.349 . S
C1115 C1117 1.327 . S
C1115 H1138 0.950 . S
C1116 C1115 1.349 . S
C1116 C1128 1.349 . S
C1117 C1115 1.327 . S
C1117 C1133 1.429 . S
C1117 H1139 0.950 . S
C1118 H1114 0.949 . S
C1118 C1126 1.574 . S
C1118 C1134 1.368 . S
H1119 C1127 0.950 . S
H1120 C1125 0.950 . S
H1121 C1126 0.949 . S
H1122 C1128 0.950 . S
H1123 C1129 0.950 . S
H1124 C1130 0.949 . S
C1125 H1120 0.950 . S
C1125 C1127 1.327 . S
C1125 C1131 1.429 . S
C1126 C1118 1.574 . S
C1126 H1121 0.949 . S
C1126 C1132 1.368 . S
C1127 C1111 1.349 . S
C1127 H1119 0.950 . S
C1127 C1125 1.327 . S
C1128 C1116 1.349 . S
C1128 H1122 0.950 . S
C1128 C1129 1.327 . S
C1129 H1123 0.950 . S
C1129 C1128 1.327 . S
C1129 C1133 1.429 . S
C1130 C1113 1.574 . S
C1130 H1124 0.949 . S
C1130 C1134 1.368 . S
C1131 C1112 1.429 . S
C1131 C1125 1.429 . S
C1131 C1132 1.523 . S
C1132 C1113 1.368 . S
C1132 C1126 1.368 . S
C1132 C1131 1.523 . S
C1133 C1117 1.429 . S
C1133 C1129 1.429 . S
C1133 C1134 1.523 . S
C1134 C1118 1.368 . S
C1134 C1130 1.368 . S
C1134 C1133 1.523 . S
H1135 C1110 0.950 . S
H1136 C1112 0.950 . S
H1137 C1113 0.949 . S
H1138 C1115 0.950 . S
H1139 C1117 0.950 . S
C1140 C1141 1.349 . S
C1140 C1142 1.327 . S
C1140 H1165 0.950 . S
C1141 C1140 1.349 . S
C1141 C1157 1.349 . S
C1142 C1140 1.327 . S
C1142 C1161 1.429 . S
C1142 H1166 0.950 . S
C1143 C1160 1.574 . S
C1143 C1162 1.368 . S
C1143 H1167 0.949 . S
H1144 C1148 0.949 . S
C1145 C1146 1.349 . S
C1145 C1147 1.327 . S
C1145 H1168 0.950 . S
C1146 C1145 1.349 . S
C1146 C1158 1.349 . S
C1147 C1145 1.327 . S
C1147 C1163 1.429 . S
C1147 H1169 0.950 . S
C1148 H1144 0.949 . S
C1148 C1156 1.574 . S
C1148 C1164 1.368 . S
H1149 C1157 0.950 . S
H1150 C1155 0.950 . S
H1151 C1156 0.949 . S
H1152 C1158 0.950 . S
H1153 C1159 0.950 . S
H1154 C1160 0.949 . S
C1155 H1150 0.950 . S
C1155 C1157 1.327 . S
C1155 C1161 1.429 . S
C1156 C1148 1.574 . S
C1156 H1151 0.949 . S
C1156 C1162 1.368 . S
C1157 C1141 1.349 . S
C1157 H1149 0.950 . S
C1157 C1155 1.327 . S
C1158 C1146 1.349 . S
C1158 H1152 0.950 . S
C1158 C1159 1.327 . S
C1159 H1153 0.950 . S
C1159 C1158 1.327 . S
C1159 C1163 1.429 . S
C1160 C1143 1.574 . S
C1160 H1154 0.949 . S
C1160 C1164 1.368 . S
C1161 C1142 1.429 . S
C1161 C1155 1.429 . S
C1161 C1162 1.523 . S
C1162 C1143 1.368 . S
C1162 C1156 1.368 . S
C1162 C1161 1.523 . S
C1163 C1147 1.429 . S
C1163 C1159 1.429 . S
C1163 C1164 1.523 . S
C1164 C1148 1.368 . S
C1164 C1160 1.368 . S
C1164 C1163 1.523 . S
H1165 C1140 0.950 . S
H1166 C1142 0.950 . S
H1167 C1143 0.949 . S
H1168 C1145 0.950 . S
H1169 C1147 0.950 . S
C1170 C1171 1.349 . S
C1170 C1172 1.327 . S
C1170 H1195 0.950 . S
C1171 C1170 1.349 . S
C1171 C1187 1.349 . S
C1172 C1170 1.327 . S
C1172 C1191 1.429 . S
C1172 H1196 0.950 . S
C1173 C1190 1.574 . S
C1173 C1192 1.368 . S
C1173 H1197 0.949 . S
H1174 C1178 0.949 . S
C1175 C1176 1.349 . S
C1175 C1177 1.327 . S
C1175 H1198 0.950 . S
C1176 C1175 1.349 . S
C1176 C1188 1.349 . S
C1177 C1175 1.327 . S
C1177 C1193 1.429 . S
C1177 H1199 0.950 . S
C1178 H1174 0.949 . S
C1178 C1186 1.574 . S
C1178 C1194 1.368 . S
H1179 C1187 0.950 . S
H1180 C1185 0.950 . S
H1181 C1186 0.949 . S
H1182 C1188 0.950 . S
H1183 C1189 0.950 . S
H1184 C1190 0.949 . S
C1185 H1180 0.950 . S
C1185 C1187 1.327 . S
C1185 C1191 1.429 . S
C1186 C1178 1.574 . S
C1186 H1181 0.949 . S
C1186 C1192 1.368 . S
C1187 C1171 1.349 . S
C1187 H1179 0.950 . S
C1187 C1185 1.327 . S
C1188 C1176 1.349 . S
C1188 H1182 0.950 . S
C1188 C1189 1.327 . S
C1189 H1183 0.950 . S
C1189 C1188 1.327 . S
C1189 C1193 1.429 . S
C1190 C1173 1.574 . S
C1190 H1184 0.949 . S
C1190 C1194 1.368 . S
C1191 C1172 1.429 . S
C1191 C1185 1.429 . S
C1191 C1192 1.523 . S
C1192 C1173 1.368 . S
C1192 C1186 1.368 . S
C1192 C1191 1.523 . S
C1193 C1177 1.429 . S
C1193 C1189 1.429 . S
C1193 C1194 1.523 . S
C1194 C1178 1.368 . S
C1194 C1190 1.368 . S
C1194 C1193 1.523 . S
H1195 C1170 0.950 . S
H1196 C1172 0.950 . S
H1197 C1173 0.949 . S
H1198 C1175 0.950 . S
H1199 C1177 0.950 . S
C1200 C1201 1.349 . S
C1200 C1202 1.327 . S
C1200 H1225 0.950 . S
C1201 C1200 1.349 . S
C1201 C1217 1.349 . S
C1202 C1200 1.327 . S
C1202 C1221 1.429 . S
C1202 H1226 0.950 . S
C1203 C1220 1.574 . S
C1203 C1222 1.368 . S
C1203 H1227 0.949 . S
H1204 C1208 0.949 . S
C1205 C1206 1.349 . S
C1205 C1207 1.327 . S
C1205 H1228 0.950 . S
C1206 C1205 1.349 . S
C1206 C1218 1.349 . S
C1207 C1205 1.327 . S
C1207 C1223 1.429 . S
C1207 H1229 0.950 . S
C1208 H1204 0.949 . S
C1208 C1216 1.574 . S
C1208 C1224 1.368 . S
H1209 C1217 0.950 . S
H1210 C1215 0.950 . S
H1211 C1216 0.949 . S
H1212 C1218 0.950 . S
H1213 C1219 0.950 . S
H1214 C1220 0.949 . S
C1215 H1210 0.950 . S
C1215 C1217 1.327 . S
C1215 C1221 1.429 . S
C1216 C1208 1.574 . S
C1216 H1211 0.949 . S
C1216 C1222 1.368 . S
C1217 C1201 1.349 . S
C1217 H1209 0.950 . S
C1217 C1215 1.327 . S
C1218 C1206 1.349 . S
C1218 H1212 0.950 . S
C1218 C1219 1.327 . S
C1219 H1213 0.950 . S
C1219 C1218 1.327 . S
C1219 C1223 1.429 . S
C1220 C1203 1.574 . S
C1220 H1214 0.949 . S
C1220 C1224 1.368 . S
C1221 C1202 1.429 . S
C1221 C1215 1.429 . S
C1221 C1222 1.523 . S
C1222 C1203 1.368 . S
C1222 C1216 1.368 . S
C1222 C1221 1.523 . S
C1223 C1207 1.429 . S
C1223 C1219 1.429 . S
C1223 C1224 1.523 . S
C1224 C1208 1.368 . S
C1224 C1220 1.368 . S
C1224 C1223 1.523 . S
H1225 C1200 0.950 . S
H1226 C1202 0.950 . S
H1227 C1203 0.949 . S
H1228 C1205 0.950 . S
H1229 C1207 0.950 . S
C1230 C1231 1.349 . S
C1230 C1232 1.327 . S
C1230 H1255 0.950 . S
C1231 C1230 1.349 . S
C1231 C1247 1.349 . S
C1232 C1230 1.327 . S
C1232 C1251 1.429 . S
C1232 H1256 0.950 . S
C1233 C1250 1.574 . S
C1233 C1252 1.368 . S
C1233 H1257 0.949 . S
H1234 C1238 0.949 . S
C1235 C1236 1.349 . S
C1235 C1237 1.327 . S
C1235 H1258 0.950 . S
C1236 C1235 1.349 . S
C1236 C1248 1.349 . S
C1237 C1235 1.327 . S
C1237 C1253 1.429 . S
C1237 H1259 0.950 . S
C1238 H1234 0.949 . S
C1238 C1246 1.574 . S
C1238 C1254 1.368 . S
H1239 C1247 0.950 . S
H1240 C1245 0.950 . S
H1241 C1246 0.949 . S
H1242 C1248 0.950 . S
H1243 C1249 0.950 . S
H1244 C1250 0.949 . S
C1245 H1240 0.950 . S
C1245 C1247 1.327 . S
C1245 C1251 1.429 . S
C1246 C1238 1.574 . S
C1246 H1241 0.949 . S
C1246 C1252 1.368 . S
C1247 C1231 1.349 . S
C1247 H1239 0.950 . S
C1247 C1245 1.327 . S
C1248 C1236 1.349 . S
C1248 H1242 0.950 . S
C1248 C1249 1.327 . S
C1249 H1243 0.950 . S
C1249 C1248 1.327 . S
C1249 C1253 1.429 . S
C1250 C1233 1.574 . S
C1250 H1244 0.949 . S
C1250 C1254 1.368 . S
C1251 C1232 1.429 . S
C1251 C1245 1.429 . S
C1251 C1252 1.523 . S
C1252 C1233 1.368 . S
C1252 C1246 1.368 . S
C1252 C1251 1.523 . S
C1253 C1237 1.429 . S
C1253 C1249 1.429 . S
C1253 C1254 1.523 . S
C1254 C1238 1.368 . S
C1254 C1250 1.368 . S
C1254 C1253 1.523 . S
H1255 C1230 0.950 . S
H1256 C1232 0.950 . S
H1257 C1233 0.949 . S
H1258 C1235 0.950 . S
H1259 C1237 0.950 . S
C1260 C1261 1.349 . S
C1260 C1262 1.327 . S
C1260 H1285 0.950 . S
C1261 C1260 1.349 . S
C1261 C1277 1.349 . S
C1262 C1260 1.327 . S
C1262 C1281 1.429 . S
C1262 H1286 0.950 . S
C1263 C1280 1.574 . S
C1263 C1282 1.368 . S
C1263 H1287 0.949 . S
H1264 C1268 0.949 . S
C1265 C1266 1.349 . S
C1265 C1267 1.327 . S
C1265 H1288 0.950 . S
C1266 C1265 1.349 . S
C1266 C1278 1.349 . S
C1267 C1265 1.327 . S
C1267 C1283 1.429 . S
C1267 H1289 0.950 . S
C1268 H1264 0.949 . S
C1268 C1276 1.574 . S
C1268 C1284 1.368 . S
H1269 C1277 0.950 . S
H1270 C1275 0.950 . S
H1271 C1276 0.949 . S
H1272 C1278 0.950 . S
H1273 C1279 0.950 . S
H1274 C1280 0.949 . S
C1275 H1270 0.950 . S
C1275 C1277 1.327 . S
C1275 C1281 1.429 . S
C1276 C1268 1.574 . S
C1276 H1271 0.949 . S
C1276 C1282 1.368 . S
C1277 C1261 1.349 . S
C1277 H1269 0.950 . S
C1277 C1275 1.327 . S
C1278 C1266 1.349 . S
C1278 H1272 0.950 . S
C1278 C1279 1.327 . S
C1279 H1273 0.950 . S
C1279 C1278 1.327 . S
C1279 C1283 1.429 . S
C1280 C1263 1.574 . S
C1280 H1274 0.949 . S
C1280 C1284 1.368 . S
C1281 C1262 1.429 . S
C1281 C1275 1.429 . S
C1281 C1282 1.523 . S
C1282 C1263 1.368 . S
C1282 C1276 1.368 . S
C1282 C1281 1.523 . S
C1283 C1267 1.429 . S
C1283 C1279 1.429 . S
C1283 C1284 1.523 . S
C1284 C1268 1.368 . S
C1284 C1280 1.368 . S
C1284 C1283 1.523 . S
H1285 C1260 0.950 . S
H1286 C1262 0.950 . S
H1287 C1263 0.949 . S
H1288 C1265 0.950 . S
H1289 C1267 0.950 . S
C1290 C1291 1.349 . S
C1290 C1292 1.327 . S
C1290 H1315 0.950 . S
C1291 C1290 1.349 . S
C1291 C1307 1.349 . S
C1292 C1290 1.327 . S
C1292 C1311 1.429 . S
C1292 H1316 0.950 . S
C1293 C1310 1.574 . S
C1293 C1312 1.368 . S
C1293 H1317 0.949 . S
H1294 C1298 0.949 . S
C1295 C1296 1.349 . S
C1295 C1297 1.327 . S
C1295 H1318 0.950 . S
C1296 C1295 1.349 . S
C1296 C1308 1.349 . S
C1297 C1295 1.327 . S
C1297 C1313 1.429 . S
C1297 H1319 0.950 . S
C1298 H1294 0.949 . S
C1298 C1306 1.574 . S
C1298 C1314 1.368 . S
H1299 C1307 0.950 . S
H1300 C1305 0.950 . S
H1301 C1306 0.949 . S
H1302 C1308 0.950 . S
H1303 C1309 0.950 . S
H1304 C1310 0.949 . S
C1305 H1300 0.950 . S
C1305 C1307 1.327 . S
C1305 C1311 1.429 . S
C1306 C1298 1.574 . S
C1306 H1301 0.949 . S
C1306 C1312 1.368 . S
C1307 C1291 1.349 . S
C1307 H1299 0.950 . S
C1307 C1305 1.327 . S
C1308 C1296 1.349 . S
C1308 H1302 0.950 . S
C1308 C1309 1.327 . S
C1309 H1303 0.950 . S
C1309 C1308 1.327 . S
C1309 C1313 1.429 . S
C1310 C1293 1.574 . S
C1310 H1304 0.949 . S
C1310 C1314 1.368 . S
C1311 C1292 1.429 . S
C1311 C1305 1.429 . S
C1311 C1312 1.523 . S
C1312 C1293 1.368 . S
C1312 C1306 1.368 . S
C1312 C1311 1.523 . S
C1313 C1297 1.429 . S
C1313 C1309 1.429 . S
C1313 C1314 1.523 . S
C1314 C1298 1.368 . S
C1314 C1310 1.368 . S
C1314 C1313 1.523 . S
H1315 C1290 0.950 . S
H1316 C1292 0.950 . S
H1317 C1293 0.949 . S
H1318 C1295 0.950 . S
H1319 C1297 0.950 . S
C1320 C1321 1.349 . S
C1320 C1322 1.327 . S
C1320 H1345 0.950 . S
C1321 C1320 1.349 . S
C1321 C1337 1.349 . S
C1322 C1320 1.327 . S
C1322 C1341 1.429 . S
C1322 H1346 0.950 . S
C1323 C1340 1.574 . S
C1323 C1342 1.368 . S
C1323 H1347 0.949 . S
H1324 C1328 0.949 . S
C1325 C1326 1.349 . S
C1325 C1327 1.327 . S
C1325 H1348 0.950 . S
C1326 C1325 1.349 . S
C1326 C1338 1.349 . S
C1327 C1325 1.327 . S
C1327 C1343 1.429 . S
C1327 H1349 0.950 . S
C1328 H1324 0.949 . S
C1328 C1336 1.574 . S
C1328 C1344 1.368 . S
H1329 C1337 0.950 . S
H1330 C1335 0.950 . S
H1331 C1336 0.949 . S
H1332 C1338 0.950 . S
H1333 C1339 0.950 . S
H1334 C1340 0.949 . S
C1335 H1330 0.950 . S
C1335 C1337 1.327 . S
C1335 C1341 1.429 . S
C1336 C1328 1.574 . S
C1336 H1331 0.949 . S
C1336 C1342 1.368 . S
C1337 C1321 1.349 . S
C1337 H1329 0.950 . S
C1337 C1335 1.327 . S
C1338 C1326 1.349 . S
C1338 H1332 0.950 . S
C1338 C1339 1.327 . S
C1339 H1333 0.950 . S
C1339 C1338 1.327 . S
C1339 C1343 1.429 . S
C1340 C1323 1.574 . S
C1340 H1334 0.949 . S
C1340 C1344 1.368 . S
C1341 C1322 1.429 . S
C1341 C1335 1.429 . S
C1341 C1342 1.523 . S
C1342 C1323 1.368 . S
C1342 C1336 1.368 . S
C1342 C1341 1.523 . S
C1343 C1327 1.429 . S
C1343 C1339 1.429 . S
C1343 C1344 1.523 . S
C1344 C1328 1.368 . S
C1344 C1340 1.368 . S
C1344 C1343 1.523 . S
H1345 C1320 0.950 . S
H1346 C1322 0.950 . S
H1347 C1323 0.949 . S
H1348 C1325 0.950 . S
H1349 C1327 0.950 . S
C1350 C1351 1.349 . S
C1350 C1352 1.327 . S
C1350 H1375 0.950 . S
C1351 C1350 1.349 . S
C1351 C1367 1.349 . S
C1352 C1350 1.327 . S
C1352 C1371 1.429 . S
C1352 H1376 0.950 . S
C1353 C1370 1.574 . S
C1353 C1372 1.368 . S
C1353 H1377 0.949 . S
H1354 C1358 0.949 . S
C1355 C1356 1.349 . S
C1355 C1357 1.327 . S
C1355 H1378 0.950 . S
C1356 C1355 1.349 . S
C1356 C1368 1.349 . S
C1357 C1355 1.327 . S
C1357 C1373 1.429 . S
C1357 H1379 0.950 . S
C1358 H1354 0.949 . S
C1358 C1366 1.574 . S
C1358 C1374 1.368 . S
H1359 C1367 0.950 . S
H1360 C1365 0.950 . S
H1361 C1366 0.949 . S
H1362 C1368 0.950 . S
H1363 C1369 0.950 . S
H1364 C1370 0.949 . S
C1365 H1360 0.950 . S
C1365 C1367 1.327 . S
C1365 C1371 1.429 . S
C1366 C1358 1.574 . S
C1366 H1361 0.949 . S
C1366 C1372 1.368 . S
C1367 C1351 1.349 . S
C1367 H1359 0.950 . S
C1367 C1365 1.327 . S
C1368 C1356 1.349 . S
C1368 H1362 0.950 . S
C1368 C1369 1.327 . S
C1369 H1363 0.950 . S
C1369 C1368 1.327 . S
C1369 C1373 1.429 . S
C1370 C1353 1.574 . S
C1370 H1364 0.949 . S
C1370 C1374 1.368 . S
C1371 C1352 1.429 . S
C1371 C1365 1.429 . S
C1371 C1372 1.523 . S
C1372 C1353 1.368 . S
C1372 C1366 1.368 . S
C1372 C1371 1.523 . S
C1373 C1357 1.429 . S
C1373 C1369 1.429 . S
C1373 C1374 1.523 . S
C1374 C1358 1.368 . S
C1374 C1370 1.368 . S
C1374 C1373 1.523 . S
H1375 C1350 0.950 . S
H1376 C1352 0.950 . S
H1377 C1353 0.949 . S
H1378 C1355 0.950 . S
H1379 C1357 0.950 . S
C1380 C1381 1.349 . S
C1380 C1382 1.327 . S
C1380 H1405 0.950 . S
C1381 C1380 1.349 . S
C1381 C1397 1.349 . S
C1382 C1380 1.327 . S
C1382 C1401 1.429 . S
C1382 H1406 0.950 . S
C1383 C1400 1.574 . S
C1383 C1402 1.368 . S
C1383 H1407 0.949 . S
H1384 C1388 0.949 . S
C1385 C1386 1.349 . S
C1385 C1387 1.327 . S
C1385 H1408 0.950 . S
C1386 C1385 1.349 . S
C1386 C1398 1.349 . S
C1387 C1385 1.327 . S
C1387 C1403 1.429 . S
C1387 H1409 0.950 . S
C1388 H1384 0.949 . S
C1388 C1396 1.574 . S
C1388 C1404 1.368 . S
H1389 C1397 0.950 . S
H1390 C1395 0.950 . S
H1391 C1396 0.949 . S
H1392 C1398 0.950 . S
H1393 C1399 0.950 . S
H1394 C1400 0.949 . S
C1395 H1390 0.950 . S
C1395 C1397 1.327 . S
C1395 C1401 1.429 . S
C1396 C1388 1.574 . S
C1396 H1391 0.949 . S
C1396 C1402 1.368 . S
C1397 C1381 1.349 . S
C1397 H1389 0.950 . S
C1397 C1395 1.327 . S
C1398 C1386 1.349 . S
C1398 H1392 0.950 . S
C1398 C1399 1.327 . S
C1399 H1393 0.950 . S
C1399 C1398 1.327 . S
C1399 C1403 1.429 . S
C1400 C1383 1.574 . S
C1400 H1394 0.949 . S
C1400 C1404 1.368 . S
C1401 C1382 1.429 . S
C1401 C1395 1.429 . S
C1401 C1402 1.523 . S
C1402 C1383 1.368 . S
C1402 C1396 1.368 . S
C1402 C1401 1.523 . S
C1403 C1387 1.429 . S
C1403 C1399 1.429 . S
C1403 C1404 1.523 . S
C1404 C1388 1.368 . S
C1404 C1400 1.368 . S
C1404 C1403 1.523 . S
H1405 C1380 0.950 . S
H1406 C1382 0.950 . S
H1407 C1383 0.949 . S
H1408 C1385 0.950 . S
H1409 C1387 0.950 . S
C1410 C1411 1.349 . S
C1410 C1412 1.327 . S
C1410 H1435 0.950 . S
C1411 C1410 1.349 . S
C1411 C1427 1.349 . S
C1412 C1410 1.327 . S
C1412 C1431 1.429 . S
C1412 H1436 0.950 . S
C1413 C1430 1.574 . S
C1413 C1432 1.368 . S
C1413 H1437 0.949 . S
H1414 C1418 0.949 . S
C1415 C1416 1.349 . S
C1415 C1417 1.327 . S
C1415 H1438 0.950 . S
C1416 C1415 1.349 . S
C1416 C1428 1.349 . S
C1417 C1415 1.327 . S
C1417 C1433 1.429 . S
C1417 H1439 0.950 . S
C1418 H1414 0.949 . S
C1418 C1426 1.574 . S
C1418 C1434 1.368 . S
H1419 C1427 0.950 . S
H1420 C1425 0.950 . S
H1421 C1426 0.949 . S
H1422 C1428 0.950 . S
H1423 C1429 0.950 . S
H1424 C1430 0.949 . S
C1425 H1420 0.950 . S
C1425 C1427 1.327 . S
C1425 C1431 1.429 . S
C1426 C1418 1.574 . S
C1426 H1421 0.949 . S
C1426 C1432 1.368 . S
C1427 C1411 1.349 . S
C1427 H1419 0.950 . S
C1427 C1425 1.327 . S
C1428 C1416 1.349 . S
C1428 H1422 0.950 . S
C1428 C1429 1.327 . S
C1429 H1423 0.950 . S
C1429 C1428 1.327 . S
C1429 C1433 1.429 . S
C1430 C1413 1.574 . S
C1430 H1424 0.949 . S
C1430 C1434 1.368 . S
C1431 C1412 1.429 . S
C1431 C1425 1.429 . S
C1431 C1432 1.523 . S
C1432 C1413 1.368 . S
C1432 C1426 1.368 . S
C1432 C1431 1.523 . S
C1433 C1417 1.429 . S
C1433 C1429 1.429 . S
C1433 C1434 1.523 . S
C1434 C1418 1.368 . S
C1434 C1430 1.368 . S
C1434 C1433 1.523 . S
H1435 C1410 0.950 . S
H1436 C1412 0.950 . S
H1437 C1413 0.949 . S
H1438 C1415 0.950 . S
H1439 C1417 0.950 . S
C1440 C1441 1.349 . S
C1440 C1442 1.327 . S
C1440 H1465 0.950 . S
C1441 C1440 1.349 . S
C1441 C1457 1.349 . S
C1442 C1440 1.327 . S
C1442 C1461 1.429 . S
C1442 H1466 0.950 . S
C1443 C1460 1.574 . S
C1443 C1462 1.368 . S
C1443 H1467 0.949 . S
H1444 C1448 0.949 . S
C1445 C1446 1.349 . S
C1445 C1447 1.327 . S
C1445 H1468 0.950 . S
C1446 C1445 1.349 . S
C1446 C1458 1.349 . S
C1447 C1445 1.327 . S
C1447 C1463 1.429 . S
C1447 H1469 0.950 . S
C1448 H1444 0.949 . S
C1448 C1456 1.574 . S
C1448 C1464 1.368 . S
H1449 C1457 0.950 . S
H1450 C1455 0.950 . S
H1451 C1456 0.949 . S
H1452 C1458 0.950 . S
H1453 C1459 0.950 . S
H1454 C1460 0.949 . S
C1455 H1450 0.950 . S
C1455 C1457 1.327 . S
C1455 C1461 1.429 . S
C1456 C1448 1.574 . S
C1456 H1451 0.949 . S
C1456 C1462 1.368 . S
C1457 C1441 1.349 . S
C1457 H1449 0.950 . S
C1457 C1455 1.327 . S
C1458 C1446 1.349 . S
C1458 H1452 0.950 . S
C1458 C1459 1.327 . S
C1459 H1453 0.950 . S
C1459 C1458 1.327 . S
C1459 C1463 1.429 . S
C1460 C1443 1.574 . S
C1460 H1454 0.949 . S
C1460 C1464 1.368 . S
C1461 C1442 1.429 . S
C1461 C1455 1.429 . S
C1461 C1462 1.523 . S
C1462 C1443 1.368 . S
C1462 C1456 1.368 . S
C1462 C1461 1.523 . S
C1463 C1447 1.429 . S
C1463 C1459 1.429 . S
C1463 C1464 1.523 . S
C1464 C1448 1.368 . S
C1464 C1460 1.368 . S
C1464 C1463 1.523 . S
H1465 C1440 0.950 . S
H1466 C1442 0.950 . S
H1467 C1443 0.949 . S
H1468 C1445 0.950 . S
H1469 C1447 0.950 . S
C1470 C1471 1.349 . S
C1470 C1472 1.327 . S
C1470 H1495 0.950 . S
C1471 C1470 1.349 . S
C1471 C1487 1.349 . S
C1472 C1470 1.327 . S
C1472 C1491 1.429 . S
C1472 H1496 0.950 . S
C1473 C1490 1.574 . S
C1473 C1492 1.368 . S
C1473 H1497 0.949 . S
H1474 C1478 0.949 . S
C1475 C1476 1.349 . S
C1475 C1477 1.327 . S
C1475 H1498 0.950 . S
C1476 C1475 1.349 . S
C1476 C1488 1.349 . S
C1477 C1475 1.327 . S
C1477 C1493 1.429 . S
C1477 H1499 0.950 . S
C1478 H1474 0.949 . S
C1478 C1486 1.574 . S
C1478 C1494 1.368 . S
H1479 C1487 0.950 . S
H1480 C1485 0.950 . S
H1481 C1486 0.949 . S
H1482 C1488 0.950 . S
H1483 C1489 0.950 . S
H1484 C1490 0.949 . S
C1485 H1480 0.950 . S
C1485 C1487 1.327 . S
C1485 C1491 1.429 . S
C1486 C1478 1.574 . S
C1486 H1481 0.949 . S
C1486 C1492 1.368 . S
C1487 C1471 1.349 . S
C1487 H1479 0.950 . S
C1487 C1485 1.327 . S
C1488 C1476 1.349 . S
C1488 H1482 0.950 . S
C1488 C1489 1.327 . S
C1489 H1483 0.950 . S
C1489 C1488 1.327 . S
C1489 C1493 1.429 . S
C1490 C1473 1.574 . S
C1490 H1484 0.949 . S
C1490 C1494 1.368 . S
C1491 C1472 1.429 . S
C1491 C1485 1.429 . S
C1491 C1492 1.523 . S
C1492 C1473 1.368 . S
C1492 C1486 1.368 . S
C1492 C1491 1.523 . S
C1493 C1477 1.429 . S
C1493 C1489 1.429 . S
C1493 C1494 1.523 . S
C1494 C1478 1.368 . S
C1494 C1490 1.368 . S
C1494 C1493 1.523 . S
H1495 C1470 0.950 . S
H1496 C1472 0.950 . S
H1497 C1473 0.949 . S
H1498 C1475 0.950 . S
H1499 C1477 0.950 . S
C1500 C1501 1.349 . S
C1500 C1502 1.327 . S
C1500 H1525 0.950 . S
C1501 C1500 1.349 . S
C1501 C1517 1.349 . S
C1502 C1500 1.327 . S
C1502 C1521 1.429 . S
C1502 H1526 0.950 . S
C1503 C1520 1.574 . S
C1503 C1522 1.368 . S
C1503 H1527 0.949 . S
H1504 C1508 0.949 . S
C1505 C1506 1.349 . S
C1505 C1507 1.327 . S
C1505 H1528 0.950 . S
C1506 C1505 1.349 . S
C1506 C1518 1.349 . S
C1507 C1505 1.327 . S
C1507 C1523 1.429 . S
C1507 H1529 0.950 . S
C1508 H1504 0.949 . S
C1508 C1516 1.574 . S
C1508 C1524 1.368 . S
H1509 C1517 0.950 . S
H1510 C1515 0.950 . S
H1511 C1516 0.949 . S
H1512 C1518 0.950 . S
H1513 C1519 0.950 . S
H1514 C1520 0.949 . S
C1515 H1510 0.950 . S
C1515 C1517 1.327 . S
C1515 C1521 1.429 . S
C1516 C1508 1.574 . S
C1516 H1511 0.949 . S
C1516 C1522 1.368 . S
C1517 C1501 1.349 . S
C1517 H1509 0.950 . S
C1517 C1515 1.327 . S
C1518 C1506 1.349 . S
C1518 H1512 0.950 . S
C1518 C1519 1.327 . S
C1519 H1513 0.950 . S
C1519 C1518 1.327 . S
C1519 C1523 1.429 . S
C1520 C1503 1.574 . S
C1520 H1514 0.949 . S
C1520 C1524 1.368 . S
C1521 C1502 1.429 . S
C1521 C1515 1.429 . S
C1521 C1522 1.523 . S
C1522 C1503 1.368 . S
C1522 C1516 1.368 . S
C1522 C1521 1.523 . S
C1523 C1507 1.429 . S
C1523 C1519 1.429 . S
C1523 C1524 1.523 . S
C1524 C1508 1.368 . S
C1524 C1520 1.368 . S
C1524 C1523 1.523 . S
H1525 C1500 0.950 . S
H1526 C1502 0.950 . S
H1527 C1503 0.949 . S
H1528 C1505 0.950 . S
H1529 C1507 0.950 . S
C1530 C1531 1.349 . S
C1530 C1532 1.327 . S
C1530 H1555 0.950 . S
C1531 C1530 1.349 . S
C1531 C1547 1.349 . S
C1532 C1530 1.327 . S
C1532 C1551 1.429 . S
C1532 H1556 0.950 . S
C1533 C1550 1.574 . S
C1533 C1552 1.368 . S
C1533 H1557 0.949 . S
H1534 C1538 0.949 . S
C1535 C1536 1.349 . S
C1535 C1537 1.327 . S
C1535 H1558 0.950 . S
C1536 C1535 1.349 . S
C1536 C1548 1.349 . S
C1537 C1535 1.327 . S
C1537 C1553 1.429 . S
C1537 H1559 0.950 . S
C1538 H1534 0.949 . S
C1538 C1546 1.574 . S
C1538 C1554 1.368 . S
H1539 C1547 0.950 . S
H1540 C1545 0.950 . S
H1541 C1546 0.949 . S
H1542 C1548 0.950 . S
H1543 C1549 0.950 . S
H1544 C1550 0.949 . S
C1545 H1540 0.950 . S
C1545 C1547 1.327 . S
C1545 C1551 1.429 . S
C1546 C1538 1.574 . S
C1546 H1541 0.949 . S
C1546 C1552 1.368 . S
C1547 C1531 1.349 . S
C1547 H1539 0.950 . S
C1547 C1545 1.327 . S
C1548 C1536 1.349 . S
C1548 H1542 0.950 . S
C1548 C1549 1.327 . S
C1549 H1543 0.950 . S
C1549 C1548 1.327 . S
C1549 C1553 1.429 . S
C1550 C1533 1.574 . S
C1550 H1544 0.949 . S
C1550 C1554 1.368 . S
C1551 C1532 1.429 . S
C1551 C1545 1.429 . S
C1551 C1552 1.523 . S
C1552 C1533 1.368 . S
C1552 C1546 1.368 . S
C1552 C1551 1.523 . S
C1553 C1537 1.429 . S
C1553 C1549 1.429 . S
C1553 C1554 1.523 . S
C1554 C1538 1.368 . S
C1554 C1550 1.368 . S
C1554 C1553 1.523 . S
H1555 C1530 0.950 . S
H1556 C1532 0.950 . S
H1557 C1533 0.949 . S
H1558 C1535 0.950 . S
H1559 C1537 0.950 . S
C1560 C1561 1.349 . S
C1560 C1562 1.327 . S
C1560 H1585 0.950 . S
C1561 C1560 1.349 . S
C1561 C1577 1.349 . S
C1562 C1560 1.327 . S
C1562 C1581 1.429 . S
C1562 H1586 0.950 . S
C1563 C1580 1.574 . S
C1563 C1582 1.368 . S
C1563 H1587 0.949 . S
H1564 C1568 0.949 . S
C1565 C1566 1.349 . S
C1565 C1567 1.327 . S
C1565 H1588 0.950 . S
C1566 C1565 1.349 . S
C1566 C1578 1.349 . S
C1567 C1565 1.327 . S
C1567 C1583 1.429 . S
C1567 H1589 0.950 . S
C1568 H1564 0.949 . S
C1568 C1576 1.574 . S
C1568 C1584 1.368 . S
H1569 C1577 0.950 . S
H1570 C1575 0.950 . S
H1571 C1576 0.949 . S
H1572 C1578 0.950 . S
H1573 C1579 0.950 . S
H1574 C1580 0.949 . S
C1575 H1570 0.950 . S
C1575 C1577 1.327 . S
C1575 C1581 1.429 . S
C1576 C1568 1.574 . S
C1576 H1571 0.949 . S
C1576 C1582 1.368 . S
C1577 C1561 1.349 . S
C1577 H1569 0.950 . S
C1577 C1575 1.327 . S
C1578 C1566 1.349 . S
C1578 H1572 0.950 . S
C1578 C1579 1.327 . S
C1579 H1573 0.950 . S
C1579 C1578 1.327 . S
C1579 C1583 1.429 . S
C1580 C1563 1.574 . S
C1580 H1574 0.949 . S
C1580 C1584 1.368 . S
C1581 C1562 1.429 . S
C1581 C1575 1.429 . S
C1581 C1582 1.523 . S
C1582 C1563 1.368 . S
C1582 C1576 1.368 . S
C1582 C1581 1.523 . S
C1583 C1567 1.429 . S
C1583 C1579 1.429 . S
C1583 C1584 1.523 . S
C1584 C1568 1.368 . S
C1584 C1580 1.368 . S
C1584 C1583 1.523 . S
H1585 C1560 0.950 . S
H1586 C1562 0.950 . S
H1587 C1563 0.949 . S
H1588 C1565 0.950 . S
H1589 C1567 0.950 . S
C1590 C1591 1.349 . S
C1590 C1592 1.327 . S
C1590 H1615 0.950 . S
C1591 C1590 1.349 . S
C1591 C1607 1.349 . S
C1592 C1590 1.327 . S
C1592 C1611 1.429 . S
C1592 H1616 0.950 . S
C1593 C1610 1.574 . S
C1593 C1612 1.368 . S
C1593 H1617 0.949 . S
H1594 C1598 0.949 . S
C1595 C1596 1.349 . S
C1595 C1597 1.327 . S
C1595 H1618 0.950 . S
C1596 C1595 1.349 . S
C1596 C1608 1.349 . S
C1597 C1595 1.327 . S
C1597 C1613 1.429 . S
C1597 H1619 0.950 . S
C1598 H1594 0.949 . S
C1598 C1606 1.574 . S
C1598 C1614 1.368 . S
H1599 C1607 0.950 . S
H1600 C1605 0.950 . S
H1601 C1606 0.949 . S
H1602 C1608 0.950 . S
H1603 C1609 0.950 . S
H1604 C1610 0.949 . S
C1605 H1600 0.950 . S
C1605 C1607 1.327 . S
C1605 C1611 1.429 . S
C1606 C1598 1.574 . S
C1606 H1601 0.949 . S
C1606 C1612 1.368 . S
C1607 C1591 1.349 . S
C1607 H1599 0.950 . S
C1607 C1605 1.327 . S
C1608 C1596 1.349 . S
C1608 H1602 0.950 . S
C1608 C1609 1.327 . S
C1609 H1603 0.950 . S
C1609 C1608 1.327 . S
C1609 C1613 1.429 . S
C1610 C1593 1.574 . S
C1610 H1604 0.949 . S
C1610 C1614 1.368 . S
C1611 C1592 1.429 . S
C1611 C1605 1.429 . S
C1611 C1612 1.523 . S
C1612 C1593 1.368 . S
C1612 C1606 1.368 . S
C1612 C1611 1.523 . S
C1613 C1597 1.429 . S
C1613 C1609 1.429 . S
C1613 C1614 1.523 . S
C1614 C1598 1.368 . S
C1614 C1610 1.368 . S
C1614 C1613 1.523 . S
H1615 C1590 0.950 . S
H1616 C1592 0.950 . S
H1617 C1593 0.949 . S
H1618 C1595 0.950 . S
H1619 C1597 0.950 . S
C1620 C1621 1.349 . S
C1620 C1622 1.327 . S
C1620 H1645 0.950 . S
C1621 C1620 1.349 . S
C1621 C1637 1.349 . S
C1622 C1620 1.327 . S
C1622 C1641 1.429 . S
C1622 H1646 0.950 . S
C1623 C1640 1.574 . S
C1623 C1642 1.368 . S
C1623 H1647 0.949 . S
H1624 C1628 0.949 . S
C1625 C1626 1.349 . S
C1625 C1627 1.327 . S
C1625 H1648 0.950 . S
C1626 C1625 1.349 . S
C1626 C1638 1.349 . S
C1627 C1625 1.327 . S
C1627 C1643 1.429 . S
C1627 H1649 0.950 . S
C1628 H1624 0.949 . S
C1628 C1636 1.574 . S
C1628 C1644 1.368 . S
H1629 C1637 0.950 . S
H1630 C1635 0.950 . S
H1631 C1636 0.949 . S
H1632 C1638 0.950 . S
H1633 C1639 0.950 . S
H1634 C1640 0.949 . S
C1635 H1630 0.950 . S
C1635 C1637 1.327 . S
C1635 C1641 1.429 . S
C1636 C1628 1.574 . S
C1636 H1631 0.949 . S
C1636 C1642 1.368 . S
C1637 C1621 1.349 . S
C1637 H1629 0.950 . S
C1637 C1635 1.327 . S
C1638 C1626 1.349 . S
C1638 H1632 0.950 . S
C1638 C1639 1.327 . S
C1639 H1633 0.950 . S
C1639 C1638 1.327 . S
C1639 C1643 1.429 . S
C1640 C1623 1.574 . S
C1640 H1634 0.949 . S
C1640 C1644 1.368 . S
C1641 C1622 1.429 . S
C1641 C1635 1.429 . S
C1641 C1642 1.523 . S
C1642 C1623 1.368 . S
C1642 C1636 1.368 . S
C1642 C1641 1.523 . S
C1643 C1627 1.429 . S
C1643 C1639 1.429 . S
C1643 C1644 1.523 . S
C1644 C1628 1.368 . S
C1644 C1640 1.368 . S
C1644 C1643 1.523 . S
H1645 C1620 0.950 . S
H1646 C1622 0.950 . S
H1647 C1623 0.949 . S
H1648 C1625 0.950 . S
H1649 C1627 0.950 . S
C1650 C1651 1.349 . S
C1650 C1652 1.327 . S
C1650 H1675 0.950 . S
C1651 C1650 1.349 . S
C1651 C1667 1.349 . S
C1652 C1650 1.327 . S
C1652 C1671 1.429 . S
C1652 H1676 0.950 . S
C1653 C1670 1.574 . S
C1653 C1672 1.368 . S
C1653 H1677 0.949 . S
H1654 C1658 0.949 . S
C1655 C1656 1.349 . S
C1655 C1657 1.327 . S
C1655 H1678 0.950 . S
C1656 C1655 1.349 . S
C1656 C1668 1.349 . S
C1657 C1655 1.327 . S
C1657 C1673 1.429 . S
C1657 H1679 0.950 . S
C1658 H1654 0.949 . S
C1658 C1666 1.574 . S
C1658 C1674 1.368 . S
H1659 C1667 0.950 . S
H1660 C1665 0.950 . S
H1661 C1666 0.949 . S
H1662 C1668 0.950 . S
H1663 C1669 0.950 . S
H1664 C1670 0.949 . S
C1665 H1660 0.950 . S
C1665 C1667 1.327 . S
C1665 C1671 1.429 . S
C1666 C1658 1.574 . S
C1666 H1661 0.949 . S
C1666 C1672 1.368 . S
C1667 C1651 1.349 . S
C1667 H1659 0.950 . S
C1667 C1665 1.327 . S
C1668 C1656 1.349 . S
C1668 H1662 0.950 . S
C1668 C1669 1.327 . S
C1669 H1663 0.950 . S
C1669 C1668 1.327 . S
C1669 C1673 1.429 . S
C1670 C1653 1.574 . S
C1670 H1664 0.949 . S
C1670 C1674 1.368 . S
C1671 C1652 1.429 . S
C1671 C1665 1.429 . S
C1671 C1672 1.523 . S
C1672 C1653 1.368 . S
C1672 C1666 1.368 . S
C1672 C1671 1.523 . S
C1673 C1657 1.429 . S
C1673 C1669 1.429 . S
C1673 C1674 1.523 . S
C1674 C1658 1.368 . S
C1674 C1670 1.368 . S
C1674 C1673 1.523 . S
H1675 C1650 0.950 . S
H1676 C1652 0.950 . S
H1677 C1653 0.949 . S
H1678 C1655 0.950 . S
H1679 C1657 0.950 . S
C1680 C1681 1.349 . S
C1680 C1682 1.327 . S
C1680 H1705 0.950 . S
C1681 C1680 1.349 . S
C1681 C1697 1.349 . S
C1682 C1680 1.327 . S
C1682 C1701 1.429 . S
C1682 H1706 0.950 . S
C1683 C1700 1.574 . S
C1683 C1702 1.368 . S
C1683 H1707 0.949 . S
H1684 C1688 0.949 . S
C1685 C1686 1.349 . S
C1685 C1687 1.327 . S
C1685 H1708 0.950 . S
C1686 C1685 1.349 . S
C1686 C1698 1.349 . S
C1687 C1685 1.327 . S
C1687 C1703 1.429 . S
C1687 H1709 0.950 . S
C1688 H1684 0.949 . S
C1688 C1696 1.574 . S
C1688 C1704 1.368 . S
H1689 C1697 0.950 . S
H1690 C1695 0.950 . S
H1691 C1696 0.949 . S
H1692 C1698 0.950 . S
H1693 C1699 0.950 . S
H1694 C1700 0.949 . S
C1695 H1690 0.950 . S
C1695 C1697 1.327 . S
C1695 C1701 1.429 . S
C1696 C1688 1.574 . S
C1696 H1691 0.949 . S
C1696 C1702 1.368 . S
C1697 C1681 1.349 . S
C1697 H1689 0.950 . S
C1697 C1695 1.327 . S
C1698 C1686 1.349 . S
C1698 H1692 0.950 . S
C1698 C1699 1.327 . S
C1699 H1693 0.950 . S
C1699 C1698 1.327 . S
C1699 C1703 1.429 . S
C1700 C1683 1.574 . S
C1700 H1694 0.949 . S
C1700 C1704 1.368 . S
C1701 C1682 1.429 . S
C1701 C1695 1.429 . S
C1701 C1702 1.523 . S
C1702 C1683 1.368 . S
C1702 C1696 1.368 . S
C1702 C1701 1.523 . S
C1703 C1687 1.429 . S
C1703 C1699 1.429 . S
C1703 C1704 1.523 . S
C1704 C1688 1.368 . S
C1704 C1700 1.368 . S
C1704 C1703 1.523 . S
H1705 C1680 0.950 . S
H1706 C1682 0.950 . S
H1707 C1683 0.949 . S
H1708 C1685 0.950 . S
H1709 C1687 0.950 . S
C1710 C1711 1.349 . S
C1710 C1712 1.327 . S
C1710 H1735 0.950 . S
C1711 C1710 1.349 . S
C1711 C1727 1.349 . S
C1712 C1710 1.327 . S
C1712 C1731 1.429 . S
C1712 H1736 0.950 . S
C1713 C1730 1.574 . S
C1713 C1732 1.368 . S
C1713 H1737 0.949 . S
H1714 C1718 0.949 . S
C1715 C1716 1.349 . S
C1715 C1717 1.327 . S
C1715 H1738 0.950 . S
C1716 C1715 1.349 . S
C1716 C1728 1.349 . S
C1717 C1715 1.327 . S
C1717 C1733 1.429 . S
C1717 H1739 0.950 . S
C1718 H1714 0.949 . S
C1718 C1726 1.574 . S
C1718 C1734 1.368 . S
H1719 C1727 0.950 . S
H1720 C1725 0.950 . S
H1721 C1726 0.949 . S
H1722 C1728 0.950 . S
H1723 C1729 0.950 . S
H1724 C1730 0.949 . S
C1725 H1720 0.950 . S
C1725 C1727 1.327 . S
C1725 C1731 1.429 . S
C1726 C1718 1.574 . S
C1726 H1721 0.949 . S
C1726 C1732 1.368 . S
C1727 C1711 1.349 . S
C1727 H1719 0.950 . S
C1727 C1725 1.327 . S
C1728 C1716 1.349 . S
C1728 H1722 0.950 . S
C1728 C1729 1.327 . S
C1729 H1723 0.950 . S
C1729 C1728 1.327 . S
C1729 C1733 1.429 . S
C1730 C1713 1.574 . S
C1730 H1724 0.949 . S
C1730 C1734 1.368 . S
C1731 C1712 1.429 . S
C1731 C1725 1.429 . S
C1731 C1732 1.523 . S
C1732 C1713 1.368 . S
C1732 C1726 1.368 . S
C1732 C1731 1.523 . S
C1733 C1717 1.429 . S
C1733 C1729 1.429 . S
C1733 C1734 1.523 . S
C1734 C1718 1.368 . S
C1734 C1730 1.368 . S
C1734 C1733 1.523 . S
H1735 C1710 0.950 . S
H1736 C1712 0.950 . S
H1737 C1713 0.949 . S
H1738 C1715 0.950 . S
H1739 C1717 0.950 . S
C1740 C1741 1.349 . S
C1740 C1742 1.327 . S
C1740 H1765 0.950 . S
C1741 C1740 1.349 . S
C1741 C1757 1.349 . S
C1742 C1740 1.327 . S
C1742 C1761 1.429 . S
C1742 H1766 0.950 . S
C1743 C1760 1.574 . S
C1743 C1762 1.368 . S
C1743 H1767 0.949 . S
H1744 C1748 0.949 . S
C1745 C1746 1.349 . S
C1745 C1747 1.327 . S
C1745 H1768 0.950 . S
C1746 C1745 1.349 . S
C1746 C1758 1.349 . S
C1747 C1745 1.327 . S
C1747 C1763 1.429 . S
C1747 H1769 0.950 . S
C1748 H1744 0.949 . S
C1748 C1756 1.574 . S
C1748 C1764 1.368 . S
H1749 C1757 0.950 . S
H1750 C1755 0.950 . S
H1751 C1756 0.949 . S
H1752 C1758 0.950 . S
H1753 C1759 0.950 . S
H1754 C1760 0.949 . S
C1755 H1750 0.950 . S
C1755 C1757 1.327 . S
C1755 C1761 1.429 . S
C1756 C1748 1.574 . S
C1756 H1751 0.949 . S
C1756 C1762 1.368 . S
C1757 C1741 1.349 . S
C1757 H1749 0.950 . S
C1757 C1755 1.327 . S
C1758 C1746 1.349 . S
C1758 H1752 0.950 . S
C1758 C1759 1.327 . S
C1759 H1753 0.950 . S
C1759 C1758 1.327 . S
C1759 C1763 1.429 . S
C1760 C1743 1.574 . S
C1760 H1754 0.949 . S
C1760 C1764 1.368 . S
C1761 C1742 1.429 . S
C1761 C1755 1.429 . S
C1761 C1762 1.523 . S
C1762 C1743 1.368 . S
C1762 C1756 1.368 . S
C1762 C1761 1.523 . S
C1763 C1747 1.429 . S
C1763 C1759 1.429 . S
C1763 C1764 1.523 . S
C1764 C1748 1.368 . S
C1764 C1760 1.368 . S
C1764 C1763 1.523 . S
H1765 C1740 0.950 . S
H1766 C1742 0.950 . S
H1767 C1743 0.949 . S
H1768 C1745 0.950 . S
H1769 C1747 0.950 . S
C1770 C1771 1.349 . S
C1770 C1772 1.327 . S
C1770 H1795 0.950 . S
C1771 C1770 1.349 . S
C1771 C1787 1.349 . S
C1772 C1770 1.327 . S
C1772 C1791 1.429 . S
C1772 H1796 0.950 . S
C1773 C1790 1.574 . S
C1773 C1792 1.368 . S
C1773 H1797 0.949 . S
H1774 C1778 0.949 . S
C1775 C1776 1.349 . S
C1775 C1777 1.327 . S
C1775 H1798 0.950 . S
C1776 C1775 1.349 . S
C1776 C1788 1.349 . S
C1777 C1775 1.327 . S
C1777 C1793 1.429 . S
C1777 H1799 0.950 . S
C1778 H1774 0.949 . S
C1778 C1786 1.574 . S
C1778 C1794 1.368 . S
H1779 C1787 0.950 . S
H1780 C1785 0.950 . S
H1781 C1786 0.949 . S
H1782 C1788 0.950 . S
H1783 C1789 0.950 . S
H1784 C1790 0.949 . S
C1785 H1780 0.950 . S
C1785 C1787 1.327 . S
C1785 C1791 1.429 . S
C1786 C1778 1.574 . S
C1786 H1781 0.949 . S
C1786 C1792 1.368 . S
C1787 C1771 1.349 . S
C1787 H1779 0.950 . S
C1787 C1785 1.327 . S
C1788 C1776 1.349 . S
C1788 H1782 0.950 . S
C1788 C1789 1.327 . S
C1789 H1783 0.950 . S
C1789 C1788 1.327 . S
C1789 C1793 1.429 . S
C1790 C1773 1.574 . S
C1790 H1784 0.949 . S
C1790 C1794 1.368 . S
C1791 C1772 1.429 . S
C1791 C1785 1.429 . S
C1791 C1792 1.523 . S
C1792 C1773 1.368 . S
C1792 C1786 1.368 . S
C1792 C1791 1.523 . S
C1793 C1777 1.429 . S
C1793 C1789 1.429 . S
C1793 C1794 1.523 . S
C1794 C1778 1.368 . S
C1794 C1790 1.368 . S
C1794 C1793 1.523 . S
H1795 C1770 0.950 . S
H1796 C1772 0.950 . S
H1797 C1773 0.949 . S
H1798 C1775 0.950 . S
H1799 C1777 0.950 . S
C1800 C1801 1.349 . S
C1800 C1802 1.327 . S
C1800 H1825 0.950 . S
C1801 C1800 1.349 . S
C1801 C1817 1.349 . S
C1802 C1800 1.327 . S
C1802 C1821 1.429 . S
C1802 H1826 0.950 . S
C1803 C1820 1.574 . S
C1803 C1822 1.368 . S
C1803 H1827 0.949 . S
H1804 C1808 0.949 . S
C1805 C1806 1.349 . S
C1805 C1807 1.327 . S
C1805 H1828 0.950 . S
C1806 C1805 1.349 . S
C1806 C1818 1.349 . S
C1807 C1805 1.327 . S
C1807 C1823 1.429 . S
C1807 H1829 0.950 . S
C1808 H1804 0.949 . S
C1808 C1816 1.574 . S
C1808 C1824 1.368 . S
H1809 C1817 0.950 1_554 S
H1810 C1815 0.950 . S
H1811 C1816 0.949 . S
H1812 C1818 0.950 . S
H1813 C1819 0.950 . S
H1814 C1820 0.949 . S
C1815 H1810 0.950 . S
C1815 C1817 1.327 . S
C1815 C1821 1.429 . S
C1816 C1808 1.574 . S
C1816 H1811 0.949 . S
C1816 C1822 1.368 . S
C1817 C1801 1.349 . S
C1817 H1809 0.950 1_556 S
C1817 C1815 1.327 . S
C1818 C1806 1.349 . S
C1818 H1812 0.950 . S
C1818 C1819 1.327 . S
C1819 H1813 0.950 . S
C1819 C1818 1.327 . S
C1819 C1823 1.429 . S
C1820 C1803 1.574 . S
C1820 H1814 0.949 . S
C1820 C1824 1.368 . S
C1821 C1802 1.429 . S
C1821 C1815 1.429 . S
C1821 C1822 1.523 . S
C1822 C1803 1.368 . S
C1822 C1816 1.368 . S
C1822 C1821 1.523 . S
C1823 C1807 1.429 . S
C1823 C1819 1.429 . S
C1823 C1824 1.523 . S
C1824 C1808 1.368 . S
C1824 C1820 1.368 . S
C1824 C1823 1.523 . S
H1825 C1800 0.950 . S
H1826 C1802 0.950 . S
H1827 C1803 0.949 . S
H1828 C1805 0.950 . S
H1829 C1807 0.950 . S
C1830 C1831 1.349 . S
C1830 C1832 1.327 . S
C1830 H1855 0.950 . S
C1831 C1830 1.349 . S
C1831 C1847 1.349 . S
C1832 C1830 1.327 . S
C1832 C1851 1.429 . S
C1832 H1856 0.950 . S
C1833 C1850 1.574 . S
C1833 C1852 1.368 . S
C1833 H1857 0.949 . S
H1834 C1838 0.949 . S
C1835 C1836 1.349 . S
C1835 C1837 1.327 . S
C1835 H1858 0.950 . S
C1836 C1835 1.349 . S
C1836 C1848 1.349 . S
C1837 C1835 1.327 . S
C1837 C1853 1.429 . S
C1837 H1859 0.950 . S
C1838 H1834 0.949 . S
C1838 C1846 1.574 . S
C1838 C1854 1.368 . S
H1839 C1847 0.950 1_554 S
H1840 C1845 0.950 . S
H1841 C1846 0.949 . S
H1842 C1848 0.950 . S
H1843 C1849 0.950 . S
H1844 C1850 0.949 . S
C1845 H1840 0.950 . S
C1845 C1847 1.327 . S
C1845 C1851 1.429 . S
C1846 C1838 1.574 . S
C1846 H1841 0.949 . S
C1846 C1852 1.368 . S
C1847 C1831 1.349 . S
C1847 H1839 0.950 1_556 S
C1847 C1845 1.327 . S
C1848 C1836 1.349 . S
C1848 H1842 0.950 . S
C1848 C1849 1.327 . S
C1849 H1843 0.950 . S
C1849 C1848 1.327 . S
C1849 C1853 1.429 . S
C1850 C1833 1.574 . S
C1850 H1844 0.949 . S
C1850 C1854 1.368 . S
C1851 C1832 1.429 . S
C1851 C1845 1.429 . S
C1851 C1852 1.523 . S
C1852 C1833 1.368 . S
C1852 C1846 1.368 . S
C1852 C1851 1.523 . S
C1853 C1837 1.429 . S
C1853 C1849 1.429 . S
C1853 C1854 1.523 . S
C1854 C1838 1.368 . S
C1854 C1850 1.368 . S
C1854 C1853 1.523 . S
H1855 C1830 0.950 . S
H1856 C1832 0.950 . S
H1857 C1833 0.949 . S
H1858 C1835 0.950 . S
H1859 C1837 0.950 . S
C1860 C1861 1.349 . S
C1860 C1862 1.327 . S
C1860 H1885 0.950 . S
C1861 C1860 1.349 . S
C1861 C1877 1.349 . S
C1862 C1860 1.327 . S
C1862 C1881 1.429 . S
C1862 H1886 0.950 . S
C1863 C1880 1.574 . S
C1863 C1882 1.368 . S
C1863 H1887 0.949 . S
H1864 C1868 0.949 . S
C1865 C1866 1.349 . S
C1865 C1867 1.327 . S
C1865 H1888 0.950 . S
C1866 C1865 1.349 . S
C1866 C1878 1.349 . S
C1867 C1865 1.327 . S
C1867 C1883 1.429 . S
C1867 H1889 0.950 . S
C1868 H1864 0.949 . S
C1868 C1876 1.574 . S
C1868 C1884 1.368 . S
H1869 C1877 0.950 . S
H1870 C1875 0.950 . S
H1871 C1876 0.949 . S
H1872 C1878 0.950 . S
H1873 C1879 0.950 . S
H1874 C1880 0.949 . S
C1875 H1870 0.950 . S
C1875 C1877 1.327 . S
C1875 C1881 1.429 . S
C1876 C1868 1.574 . S
C1876 H1871 0.949 . S
C1876 C1882 1.368 . S
C1877 C1861 1.349 . S
C1877 H1869 0.950 . S
C1877 C1875 1.327 . S
C1878 C1866 1.349 . S
C1878 H1872 0.950 . S
C1878 C1879 1.327 . S
C1879 H1873 0.950 . S
C1879 C1878 1.327 . S
C1879 C1883 1.429 . S
C1880 C1863 1.574 . S
C1880 H1874 0.949 . S
C1880 C1884 1.368 . S
C1881 C1862 1.429 . S
C1881 C1875 1.429 . S
C1881 C1882 1.523 . S
C1882 C1863 1.368 . S
C1882 C1876 1.368 . S
C1882 C1881 1.523 . S
C1883 C1867 1.429 . S
C1883 C1879 1.429 . S
C1883 C1884 1.523 . S
C1884 C1868 1.368 . S
C1884 C1880 1.368 . S
C1884 C1883 1.523 . S
H1885 C1860 0.950 . S
H1886 C1862 0.950 . S
H1887 C1863 0.949 . S
H1888 C1865 0.950 . S
H1889 C1867 0.950 . S
C1890 C1891 1.349 . S
C1890 C1892 1.327 . S
C1890 H1915 0.950 . S
C1891 C1890 1.349 . S
C1891 C1907 1.349 . S
C1892 C1890 1.327 . S
C1892 C1911 1.429 . S
C1892 H1916 0.950 . S
C1893 C1910 1.574 . S
C1893 C1912 1.368 . S
C1893 H1917 0.949 . S
H1894 C1898 0.949 . S
C1895 C1896 1.349 . S
C1895 C1897 1.327 . S
C1895 H1918 0.950 . S
C1896 C1895 1.349 . S
C1896 C1908 1.349 . S
C1897 C1895 1.327 . S
C1897 C1913 1.429 . S
C1897 H1919 0.950 . S
C1898 H1894 0.949 . S
C1898 C1906 1.574 . S
C1898 C1914 1.368 . S
H1899 C1907 0.950 . S
H1900 C1905 0.950 . S
H1901 C1906 0.949 . S
H1902 C1908 0.950 . S
H1903 C1909 0.950 . S
H1904 C1910 0.949 . S
C1905 H1900 0.950 . S
C1905 C1907 1.327 . S
C1905 C1911 1.429 . S
C1906 C1898 1.574 . S
C1906 H1901 0.949 . S
C1906 C1912 1.368 . S
C1907 C1891 1.349 . S
C1907 H1899 0.950 . S
C1907 C1905 1.327 . S
C1908 C1896 1.349 . S
C1908 H1902 0.950 . S
C1908 C1909 1.327 . S
C1909 H1903 0.950 . S
C1909 C1908 1.327 . S
C1909 C1913 1.429 . S
C1910 C1893 1.574 . S
C1910 H1904 0.949 . S
C1910 C1914 1.368 . S
C1911 C1892 1.429 . S
C1911 C1905 1.429 . S
C1911 C1912 1.523 . S
C1912 C1893 1.368 . S
C1912 C1906 1.368 . S
C1912 C1911 1.523 . S
C1913 C1897 1.429 . S
C1913 C1909 1.429 . S
C1913 C1914 1.523 . S
C1914 C1898 1.368 . S
C1914 C1910 1.368 . S
C1914 C1913 1.523 . S
H1915 C1890 0.950 . S
H1916 C1892 0.950 . S
H1917 C1893 0.949 . S
H1918 C1895 0.950 . S
H1919 C1897 0.950 . S
C1920 C1921 1.349 . S
C1920 C1922 1.327 . S
C1920 H1945 0.950 . S
C1921 C1920 1.349 . S
C1921 C1937 1.349 . S
C1922 C1920 1.327 . S
C1922 C1941 1.429 . S
C1922 H1946 0.950 . S
C1923 C1940 1.574 . S
C1923 C1942 1.368 . S
C1923 H1947 0.949 . S
H1924 C1928 0.949 . S
C1925 C1926 1.349 . S
C1925 C1927 1.327 . S
C1925 H1948 0.950 . S
C1926 C1925 1.349 . S
C1926 C1938 1.349 . S
C1927 C1925 1.327 . S
C1927 C1943 1.429 . S
C1927 H1949 0.950 . S
C1928 H1924 0.949 . S
C1928 C1936 1.574 . S
C1928 C1944 1.368 . S
H1929 C1937 0.950 1_554 S
H1930 C1935 0.950 . S
H1931 C1936 0.949 . S
H1932 C1938 0.950 . S
H1933 C1939 0.950 . S
H1934 C1940 0.949 . S
C1935 H1930 0.950 . S
C1935 C1937 1.327 . S
C1935 C1941 1.429 . S
C1936 C1928 1.574 . S
C1936 H1931 0.949 . S
C1936 C1942 1.368 . S
C1937 C1921 1.349 . S
C1937 H1929 0.950 1_556 S
C1937 C1935 1.327 . S
C1938 C1926 1.349 . S
C1938 H1932 0.950 . S
C1938 C1939 1.327 . S
C1939 H1933 0.950 . S
C1939 C1938 1.327 . S
C1939 C1943 1.429 . S
C1940 C1923 1.574 . S
C1940 H1934 0.949 . S
C1940 C1944 1.368 . S
C1941 C1922 1.429 . S
C1941 C1935 1.429 . S
C1941 C1942 1.523 . S
C1942 C1923 1.368 . S
C1942 C1936 1.368 . S
C1942 C1941 1.523 . S
C1943 C1927 1.429 . S
C1943 C1939 1.429 . S
C1943 C1944 1.523 . S
C1944 C1928 1.368 . S
C1944 C1940 1.368 . S
C1944 C1943 1.523 . S
H1945 C1920 0.950 . S
H1946 C1922 0.950 . S
H1947 C1923 0.949 . S
H1948 C1925 0.950 . S
H1949 C1927 0.950 . S
C1950 C1951 1.349 . S
C1950 C1952 1.327 . S
C1950 H1975 0.950 1_556 S
C1951 C1950 1.349 . S
C1951 C1967 1.349 . S
C1952 C1950 1.327 . S
C1952 C1971 1.429 . S
C1952 H1976 0.950 . S
C1953 C1970 1.574 . S
C1953 C1972 1.368 . S
C1953 H1977 0.949 . S
H1954 C1958 0.949 . S
C1955 C1956 1.349 . S
C1955 C1957 1.327 . S
C1955 H1978 0.950 . S
C1956 C1955 1.349 . S
C1956 C1968 1.349 . S
C1957 C1955 1.327 . S
C1957 C1973 1.429 . S
C1957 H1979 0.950 . S
C1958 H1954 0.949 . S
C1958 C1966 1.574 . S
C1958 C1974 1.368 . S
H1959 C1967 0.950 . S
H1960 C1965 0.950 . S
H1961 C1966 0.949 . S
H1962 C1968 0.950 . S
H1963 C1969 0.950 . S
H1964 C1970 0.949 . S
C1965 H1960 0.950 . S
C1965 C1967 1.327 . S
C1965 C1971 1.429 . S
C1966 C1958 1.574 . S
C1966 H1961 0.949 . S
C1966 C1972 1.368 . S
C1967 C1951 1.349 . S
C1967 H1959 0.950 . S
C1967 C1965 1.327 . S
C1968 C1956 1.349 . S
C1968 H1962 0.950 . S
C1968 C1969 1.327 . S
C1969 H1963 0.950 . S
C1969 C1968 1.327 . S
C1969 C1973 1.429 . S
C1970 C1953 1.574 . S
C1970 H1964 0.949 . S
C1970 C1974 1.368 . S
C1971 C1952 1.429 . S
C1971 C1965 1.429 . S
C1971 C1972 1.523 . S
C1972 C1953 1.368 . S
C1972 C1966 1.368 . S
C1972 C1971 1.523 . S
C1973 C1957 1.429 . S
C1973 C1969 1.429 . S
C1973 C1974 1.523 . S
C1974 C1958 1.368 . S
C1974 C1970 1.368 . S
C1974 C1973 1.523 . S
H1975 C1950 0.950 1_554 S
H1976 C1952 0.950 . S
H1977 C1953 0.949 . S
H1978 C1955 0.950 . S
H1979 C1957 0.950 . S
C1980 C1981 1.349 . S
C1980 C1982 1.327 . S
C1980 H2005 0.950 . S
C1981 C1980 1.349 . S
C1981 C1997 1.349 . S
C1982 C1980 1.327 . S
C1982 C2001 1.429 . S
C1982 H2006 0.950 . S
C1983 C2000 1.574 . S
C1983 C2002 1.368 . S
C1983 H2007 0.949 . S
H1984 C1988 0.949 . S
C1985 C1986 1.349 . S
C1985 C1987 1.327 . S
C1985 H2008 0.950 . S
C1986 C1985 1.349 . S
C1986 C1998 1.349 . S
C1987 C1985 1.327 . S
C1987 C2003 1.429 . S
C1987 H2009 0.950 . S
C1988 H1984 0.949 . S
C1988 C1996 1.574 . S
C1988 C2004 1.368 . S
H1989 C1997 0.950 . S
H1990 C1995 0.950 . S
H1991 C1996 0.949 . S
H1992 C1998 0.950 . S
H1993 C1999 0.950 . S
H1994 C2000 0.949 . S
C1995 H1990 0.950 . S
C1995 C1997 1.327 . S
C1995 C2001 1.429 . S
C1996 C1988 1.574 . S
C1996 H1991 0.949 . S
C1996 C2002 1.368 . S
C1997 C1981 1.349 . S
C1997 H1989 0.950 . S
C1997 C1995 1.327 . S
C1998 C1986 1.349 . S
C1998 H1992 0.950 . S
C1998 C1999 1.327 . S
C1999 H1993 0.950 . S
C1999 C1998 1.327 . S
C1999 C2003 1.429 . S
C2000 C1983 1.574 . S
C2000 H1994 0.949 . S
C2000 C2004 1.368 . S
C2001 C1982 1.429 . S
C2001 C1995 1.429 . S
C2001 C2002 1.523 . S
C2002 C1983 1.368 . S
C2002 C1996 1.368 . S
C2002 C2001 1.523 . S
C2003 C1987 1.429 . S
C2003 C1999 1.429 . S
C2003 C2004 1.523 . S
C2004 C1988 1.368 . S
C2004 C2000 1.368 . S
C2004 C2003 1.523 . S
H2005 C1980 0.950 . S
H2006 C1982 0.950 . S
H2007 C1983 0.949 . S
H2008 C1985 0.950 . S
H2009 C1987 0.950 . S
C2010 C2011 1.349 . S
C2010 C2012 1.327 . S
C2010 H2035 0.950 . S
C2011 C2010 1.349 . S
C2011 C2027 1.349 . S
C2012 C2010 1.327 . S
C2012 C2031 1.429 . S
C2012 H2036 0.950 . S
C2013 C2030 1.574 . S
C2013 C2032 1.368 . S
C2013 H2037 0.949 . S
H2014 C2018 0.949 . S
C2015 C2016 1.349 . S
C2015 C2017 1.327 . S
C2015 H2038 0.950 . S
C2016 C2015 1.349 . S
C2016 C2028 1.349 . S
C2017 C2015 1.327 . S
C2017 C2033 1.429 . S
C2017 H2039 0.950 . S
C2018 H2014 0.949 . S
C2018 C2026 1.574 . S
C2018 C2034 1.368 . S
H2019 C2027 0.950 . S
H2020 C2025 0.950 . S
H2021 C2026 0.949 . S
H2022 C2028 0.950 . S
H2023 C2029 0.950 . S
H2024 C2030 0.949 . S
C2025 H2020 0.950 . S
C2025 C2027 1.327 . S
C2025 C2031 1.429 . S
C2026 C2018 1.574 . S
C2026 H2021 0.949 . S
C2026 C2032 1.368 . S
C2027 C2011 1.349 . S
C2027 H2019 0.950 . S
C2027 C2025 1.327 . S
C2028 C2016 1.349 . S
C2028 H2022 0.950 . S
C2028 C2029 1.327 . S
C2029 H2023 0.950 . S
C2029 C2028 1.327 . S
C2029 C2033 1.429 . S
C2030 C2013 1.574 . S
C2030 H2024 0.949 . S
C2030 C2034 1.368 . S
C2031 C2012 1.429 . S
C2031 C2025 1.429 . S
C2031 C2032 1.523 . S
C2032 C2013 1.368 . S
C2032 C2026 1.368 . S
C2032 C2031 1.523 . S
C2033 C2017 1.429 . S
C2033 C2029 1.429 . S
C2033 C2034 1.523 . S
C2034 C2018 1.368 . S
C2034 C2030 1.368 . S
C2034 C2033 1.523 . S
H2035 C2010 0.950 . S
H2036 C2012 0.950 . S
H2037 C2013 0.949 . S
H2038 C2015 0.950 . S
H2039 C2017 0.950 . S
C2040 C2041 1.349 . S
C2040 C2042 1.327 . S
C2040 H2065 0.950 . S
C2041 C2040 1.349 . S
C2041 C2057 1.349 . S
C2042 C2040 1.327 . S
C2042 C2061 1.429 . S
C2042 H2066 0.950 . S
C2043 C2060 1.574 . S
C2043 C2062 1.368 . S
C2043 H2067 0.949 . S
H2044 C2048 0.949 . S
C2045 C2046 1.349 . S
C2045 C2047 1.327 . S
C2045 H2068 0.950 . S
C2046 C2045 1.349 . S
C2046 C2058 1.349 . S
C2047 C2045 1.327 . S
C2047 C2063 1.429 . S
C2047 H2069 0.950 . S
C2048 H2044 0.949 . S
C2048 C2056 1.574 . S
C2048 C2064 1.368 . S
H2049 C2057 0.950 . S
H2050 C2055 0.950 . S
H2051 C2056 0.949 . S
H2052 C2058 0.950 . S
H2053 C2059 0.950 . S
H2054 C2060 0.949 . S
C2055 H2050 0.950 . S
C2055 C2057 1.327 . S
C2055 C2061 1.429 . S
C2056 C2048 1.574 . S
C2056 H2051 0.949 . S
C2056 C2062 1.368 . S
C2057 C2041 1.349 . S
C2057 H2049 0.950 . S
C2057 C2055 1.327 . S
C2058 C2046 1.349 . S
C2058 H2052 0.950 . S
C2058 C2059 1.327 . S
C2059 H2053 0.950 . S
C2059 C2058 1.327 . S
C2059 C2063 1.429 . S
C2060 C2043 1.574 . S
C2060 H2054 0.949 . S
C2060 C2064 1.368 . S
C2061 C2042 1.429 . S
C2061 C2055 1.429 . S
C2061 C2062 1.523 . S
C2062 C2043 1.368 . S
C2062 C2056 1.368 . S
C2062 C2061 1.523 . S
C2063 C2047 1.429 . S
C2063 C2059 1.429 . S
C2063 C2064 1.523 . S
C2064 C2048 1.368 . S
C2064 C2060 1.368 . S
C2064 C2063 1.523 . S
H2065 C2040 0.950 . S
H2066 C2042 0.950 . S
H2067 C2043 0.949 . S
H2068 C2045 0.950 . S
H2069 C2047 0.950 . S
C2070 C2071 1.349 . S
C2070 C2072 1.327 . S
C2070 H2095 0.950 . S
C2071 C2070 1.349 . S
C2071 C2087 1.349 . S
C2072 C2070 1.327 . S
C2072 C2091 1.429 . S
C2072 H2096 0.950 . S
C2073 C2090 1.574 . S
C2073 C2092 1.368 . S
C2073 H2097 0.949 . S
H2074 C2078 0.949 . S
C2075 C2076 1.349 . S
C2075 C2077 1.327 . S
C2075 H2098 0.950 . S
C2076 C2075 1.349 . S
C2076 C2088 1.349 . S
C2077 C2075 1.327 . S
C2077 C2093 1.429 . S
C2077 H2099 0.950 . S
C2078 H2074 0.949 . S
C2078 C2086 1.574 . S
C2078 C2094 1.368 . S
H2079 C2087 0.950 . S
H2080 C2085 0.950 . S
H2081 C2086 0.949 . S
H2082 C2088 0.950 . S
H2083 C2089 0.950 . S
H2084 C2090 0.949 . S
C2085 H2080 0.950 . S
C2085 C2087 1.327 . S
C2085 C2091 1.429 . S
C2086 C2078 1.574 . S
C2086 H2081 0.949 . S
C2086 C2092 1.368 . S
C2087 C2071 1.349 . S
C2087 H2079 0.950 . S
C2087 C2085 1.327 . S
C2088 C2076 1.349 . S
C2088 H2082 0.950 . S
C2088 C2089 1.327 . S
C2089 H2083 0.950 . S
C2089 C2088 1.327 . S
C2089 C2093 1.429 . S
C2090 C2073 1.574 . S
C2090 H2084 0.949 . S
C2090 C2094 1.368 . S
C2091 C2072 1.429 . S
C2091 C2085 1.429 . S
C2091 C2092 1.523 . S
C2092 C2073 1.368 . S
C2092 C2086 1.368 . S
C2092 C2091 1.523 . S
C2093 C2077 1.429 . S
C2093 C2089 1.429 . S
C2093 C2094 1.523 . S
C2094 C2078 1.368 . S
C2094 C2090 1.368 . S
C2094 C2093 1.523 . S
H2095 C2070 0.950 . S
H2096 C2072 0.950 . S
H2097 C2073 0.949 . S
H2098 C2075 0.950 . S
H2099 C2077 0.950 . S
C2100 C2101 1.349 . S
C2100 C2102 1.327 . S
C2100 H2125 0.950 . S
C2101 C2100 1.349 . S
C2101 C2117 1.349 . S
C2102 C2100 1.327 . S
C2102 C2121 1.429 . S
C2102 H2126 0.950 . S
C2103 C2120 1.574 . S
C2103 C2122 1.368 . S
C2103 H2127 0.949 . S
H2104 C2108 0.949 . S
C2105 C2106 1.349 . S
C2105 C2107 1.327 . S
C2105 H2128 0.950 . S
C2106 C2105 1.349 . S
C2106 C2118 1.349 . S
C2107 C2105 1.327 . S
C2107 C2123 1.429 . S
C2107 H2129 0.950 . S
C2108 H2104 0.949 . S
C2108 C2116 1.574 . S
C2108 C2124 1.368 . S
H2109 C2117 0.950 . S
H2110 C2115 0.950 . S
H2111 C2116 0.949 . S
H2112 C2118 0.950 . S
H2113 C2119 0.950 . S
H2114 C2120 0.949 . S
C2115 H2110 0.950 . S
C2115 C2117 1.327 . S
C2115 C2121 1.429 . S
C2116 C2108 1.574 . S
C2116 H2111 0.949 . S
C2116 C2122 1.368 . S
C2117 C2101 1.349 . S
C2117 H2109 0.950 . S
C2117 C2115 1.327 . S
C2118 C2106 1.349 . S
C2118 H2112 0.950 . S
C2118 C2119 1.327 . S
C2119 H2113 0.950 . S
C2119 C2118 1.327 . S
C2119 C2123 1.429 . S
C2120 C2103 1.574 . S
C2120 H2114 0.949 . S
C2120 C2124 1.368 . S
C2121 C2102 1.429 . S
C2121 C2115 1.429 . S
C2121 C2122 1.523 . S
C2122 C2103 1.368 . S
C2122 C2116 1.368 . S
C2122 C2121 1.523 . S
C2123 C2107 1.429 . S
C2123 C2119 1.429 . S
C2123 C2124 1.523 . S
C2124 C2108 1.368 . S
C2124 C2120 1.368 . S
C2124 C2123 1.523 . S
H2125 C2100 0.950 . S
H2126 C2102 0.950 . S
H2127 C2103 0.949 . S
H2128 C2105 0.950 . S
H2129 C2107 0.950 . S
C2130 C2131 1.349 . S
C2130 C2132 1.327 . S
C2130 H2155 0.950 . S
C2131 C2130 1.349 . S
C2131 C2147 1.349 . S
C2132 C2130 1.327 . S
C2132 C2151 1.429 . S
C2132 H2156 0.950 . S
C2133 C2150 1.574 . S
C2133 C2152 1.368 . S
C2133 H2157 0.949 . S
H2134 C2138 0.949 . S
C2135 C2136 1.349 . S
C2135 C2137 1.327 . S
C2135 H2158 0.950 . S
C2136 C2135 1.349 . S
C2136 C2148 1.349 . S
C2137 C2135 1.327 . S
C2137 C2153 1.429 . S
C2137 H2159 0.950 . S
C2138 H2134 0.949 . S
C2138 C2146 1.574 . S
C2138 C2154 1.368 . S
H2139 C2147 0.950 . S
H2140 C2145 0.950 . S
H2141 C2146 0.949 . S
H2142 C2148 0.950 . S
H2143 C2149 0.950 . S
H2144 C2150 0.949 . S
C2145 H2140 0.950 . S
C2145 C2147 1.327 . S
C2145 C2151 1.429 . S
C2146 C2138 1.574 . S
C2146 H2141 0.949 . S
C2146 C2152 1.368 . S
C2147 C2131 1.349 . S
C2147 H2139 0.950 . S
C2147 C2145 1.327 . S
C2148 C2136 1.349 . S
C2148 H2142 0.950 . S
C2148 C2149 1.327 . S
C2149 H2143 0.950 . S
C2149 C2148 1.327 . S
C2149 C2153 1.429 . S
C2150 C2133 1.574 . S
C2150 H2144 0.949 . S
C2150 C2154 1.368 . S
C2151 C2132 1.429 . S
C2151 C2145 1.429 . S
C2151 C2152 1.523 . S
C2152 C2133 1.368 . S
C2152 C2146 1.368 . S
C2152 C2151 1.523 . S
C2153 C2137 1.429 . S
C2153 C2149 1.429 . S
C2153 C2154 1.523 . S
C2154 C2138 1.368 . S
C2154 C2150 1.368 . S
C2154 C2153 1.523 . S
H2155 C2130 0.950 . S
H2156 C2132 0.950 . S
H2157 C2133 0.949 . S
H2158 C2135 0.950 . S
H2159 C2137 0.950 . S
C2160 C2161 1.349 . S
C2160 C2162 1.327 . S
C2160 H2185 0.950 . S
C2161 C2160 1.349 . S
C2161 C2177 1.349 . S
C2162 C2160 1.327 . S
C2162 C2181 1.429 . S
C2162 H2186 0.950 . S
C2163 C2180 1.574 . S
C2163 C2182 1.368 1_655 S
C2163 H2187 0.949 . S
H2164 C2168 0.949 . S
C2165 C2166 1.349 1_655 S
C2165 C2167 1.327 . S
C2165 H2188 0.950 . S
C2166 C2165 1.349 1_455 S
C2166 C2178 1.349 . S
C2167 C2165 1.327 . S
C2167 C2183 1.429 1_655 S
C2167 H2189 0.950 . S
C2168 H2164 0.949 . S
C2168 C2176 1.574 . S
C2168 C2184 1.368 . S
H2169 C2177 0.950 1_655 S
H2170 C2175 0.905 1_655 S
H2171 C2176 0.949 . S
H2172 C2178 0.950 . S
H2173 C2179 0.950 . S
H2174 C2180 0.949 . S
C2175 H2170 0.905 1_455 S
C2175 C2177 1.376 . S
C2175 C2181 1.432 . S
C2176 C2168 1.574 . S
C2176 H2171 0.949 . S
C2176 C2182 1.368 . S
C2177 C2161 1.349 . S
C2177 H2169 0.950 1_455 S
C2177 C2175 1.376 . S
C2178 C2166 1.349 . S
C2178 H2172 0.950 . S
C2178 C2179 1.327 . S
C2179 H2173 0.950 . S
C2179 C2178 1.327 . S
C2179 C2183 1.429 . S
C2180 C2163 1.574 . S
C2180 H2174 0.949 . S
C2180 C2184 1.368 1_655 S
C2181 C2162 1.429 . S
C2181 C2175 1.432 . S
C2181 C2182 1.523 . S
C2182 C2163 1.368 1_455 S
C2182 C2176 1.368 . S
C2182 C2181 1.523 . S
C2183 C2167 1.429 1_455 S
C2183 C2179 1.429 . S
C2183 C2184 1.523 . S
C2184 C2168 1.368 . S
C2184 C2180 1.368 1_455 S
C2184 C2183 1.523 . S
H2185 C2160 0.950 . S
H2186 C2162 0.950 . S
H2187 C2163 0.949 . S
H2188 C2165 0.950 . S
H2189 C2167 0.950 . S
C2190 C2191 1.349 . S
C2190 C2192 1.327 . S
C2190 H2215 0.950 . S
C2191 C2190 1.349 . S
C2191 C2207 1.349 . S
C2192 C2190 1.327 . S
C2192 C2211 1.429 . S
C2192 H2216 0.950 . S
C2193 C2210 1.574 . S
C2193 C2212 1.368 . S
C2193 H2217 0.949 . S
H2194 C2198 0.949 . S
C2195 C2196 1.349 . S
C2195 C2197 1.327 . S
C2195 H2218 0.950 . S
C2196 C2195 1.349 . S
C2196 C2208 1.349 . S
C2197 C2195 1.327 . S
C2197 C2213 1.429 . S
C2197 H2219 0.950 . S
C2198 H2194 0.949 . S
C2198 C2206 1.574 . S
C2198 C2214 1.368 . S
H2199 C2207 0.950 . S
H2200 C2205 0.950 . S
H2201 C2206 0.949 . S
H2202 C2208 0.950 . S
H2203 C2209 0.950 . S
H2204 C2210 0.949 . S
C2205 H2200 0.950 . S
C2205 C2207 1.327 . S
C2205 C2211 1.429 . S
C2206 C2198 1.574 . S
C2206 H2201 0.949 . S
C2206 C2212 1.368 . S
C2207 C2191 1.349 . S
C2207 H2199 0.950 . S
C2207 C2205 1.327 . S
C2208 C2196 1.349 . S
C2208 H2202 0.950 . S
C2208 C2209 1.327 . S
C2209 H2203 0.950 . S
C2209 C2208 1.327 . S
C2209 C2213 1.429 . S
C2210 C2193 1.574 . S
C2210 H2204 0.949 . S
C2210 C2214 1.368 . S
C2211 C2192 1.429 . S
C2211 C2205 1.429 . S
C2211 C2212 1.523 . S
C2212 C2193 1.368 . S
C2212 C2206 1.368 . S
C2212 C2211 1.523 . S
C2213 C2197 1.429 . S
C2213 C2209 1.429 . S
C2213 C2214 1.523 . S
C2214 C2198 1.368 . S
C2214 C2210 1.368 . S
C2214 C2213 1.523 . S
H2215 C2190 0.950 . S
H2216 C2192 0.950 . S
H2217 C2193 0.949 . S
H2218 C2195 0.950 . S
H2219 C2197 0.950 . S
C2220 C2221 1.349 1_545 S
C2220 C2222 1.327 . S
C2220 H2245 0.950 . S
C2221 C2220 1.349 1_565 S
C2221 C2237 1.349 . S
C2222 C2220 1.327 . S
C2222 C2241 1.429 1_545 S
C2222 H2246 0.950 . S
C2223 C2240 1.574 . S
C2223 C2242 1.368 . S
C2223 H2247 0.949 . S
H2224 C2228 0.949 . S
C2225 C2226 1.349 . S
C2225 C2227 1.327 . S
C2225 H2248 0.950 . S
C2226 C2225 1.349 . S
C2226 C2238 1.349 1_565 S
C2227 C2225 1.327 . S
C2227 C2243 1.429 . S
C2227 H2249 0.950 . S
C2228 H2224 0.949 . S
C2228 C2236 1.574 . S
C2228 C2244 1.368 1_545 S
H2229 C2237 0.950 . S
H2230 C2235 0.950 . S
H2231 C2236 0.949 . S
H2232 C2238 0.950 . S
H2233 C2239 0.950 . S
H2234 C2240 0.949 . S
C2235 H2230 0.950 . S
C2235 C2237 1.327 . S
C2235 C2241 1.429 . S
C2236 C2228 1.574 . S
C2236 H2231 0.949 . S
C2236 C2242 1.368 1_545 S
C2237 C2221 1.349 . S
C2237 H2229 0.950 . S
C2237 C2235 1.327 . S
C2238 C2226 1.349 1_545 S
C2238 H2232 0.950 . S
C2238 C2239 1.327 . S
C2239 H2233 0.950 . S
C2239 C2238 1.327 . S
C2239 C2243 1.429 1_545 S
C2240 C2223 1.574 . S
C2240 H2234 0.949 . S
C2240 C2244 1.368 . S
C2241 C2222 1.429 1_565 S
C2241 C2235 1.429 . S
C2241 C2242 1.523 . S
C2242 C2223 1.368 . S
C2242 C2236 1.368 1_565 S
C2242 C2241 1.523 . S
C2243 C2227 1.429 . S
C2243 C2239 1.429 1_565 S
C2243 C2244 1.523 . S
C2244 C2228 1.368 1_565 S
C2244 C2240 1.368 . S
C2244 C2243 1.523 . S
H2245 C2220 0.950 . S
H2246 C2222 0.950 . S
H2247 C2223 0.949 . S
H2248 C2225 0.950 . S
H2249 C2227 0.950 . S
C2250 C2251 1.349 1_545 S
C2250 C2252 1.327 . S
C2250 H2275 0.950 . S
C2251 C2250 1.349 1_565 S
C2251 C2267 1.349 . S
C2252 C2250 1.327 . S
C2252 C2271 1.429 1_545 S
C2252 H2276 0.950 . S
C2253 C2270 1.574 . S
C2253 C2272 1.368 . S
C2253 H2277 0.949 . S
H2254 C2258 0.949 . S
C2255 C2256 1.428 . S
C2255 C2257 1.327 . S
C2255 H2278 0.950 . S
C2256 C2255 1.428 . S
C2256 C2268 1.312 1_565 S
C2257 C2255 1.327 . S
C2257 C2273 1.429 . S
C2257 H2279 0.950 . S
C2258 H2254 0.949 . S
C2258 C2266 1.574 . S
C2258 C2274 1.368 1_545 S
H2259 C2267 0.950 . S
H2260 C2265 0.950 . S
H2261 C2266 0.949 . S
H2262 C2268 0.950 . S
H2263 C2269 0.950 . S
H2264 C2270 0.949 . S
C2265 H2260 0.950 . S
C2265 C2267 1.327 . S
C2265 C2271 1.429 . S
C2266 C2258 1.574 . S
C2266 H2261 0.949 . S
C2266 C2272 1.368 1_545 S
C2267 C2251 1.349 . S
C2267 H2259 0.950 . S
C2267 C2265 1.327 . S
C2268 C2256 1.312 1_545 S
C2268 H2262 0.950 . S
C2268 C2269 1.327 . S
C2269 H2263 0.950 . S
C2269 C2268 1.327 . S
C2269 C2273 1.429 1_545 S
C2270 C2253 1.574 . S
C2270 H2264 0.949 . S
C2270 C2274 1.368 . S
C2271 C2252 1.429 1_565 S
C2271 C2265 1.429 . S
C2271 C2272 1.523 . S
C2272 C2253 1.368 . S
C2272 C2266 1.368 1_565 S
C2272 C2271 1.523 . S
C2273 C2257 1.429 . S
C2273 C2269 1.429 1_565 S
C2273 C2274 1.523 . S
C2274 C2258 1.368 1_565 S
C2274 C2270 1.368 . S
C2274 C2273 1.523 . S
H2275 C2250 0.950 . S
H2276 C2252 0.950 . S
H2277 C2253 0.949 . S
H2278 C2255 0.950 . S
H2279 C2257 0.950 . S
C2280 C2281 1.349 . S
C2280 C2282 1.327 . S
C2280 H2305 0.950 . S
C2281 C2280 1.349 . S
C2281 C2297 1.349 1_455 S
C2282 C2280 1.327 . S
C2282 C2301 1.429 . S
C2282 H2306 0.950 . S
C2283 C2300 1.574 . S
C2283 C2302 1.368 1_655 S
C2283 H2307 0.949 . S
H2284 C2288 0.949 . S
C2285 C2286 1.299 1_655 S
C2285 C2287 1.327 . S
C2285 H2308 0.950 . S
C2286 C2285 1.299 1_455 S
C2286 C2298 1.371 . S
C2287 C2285 1.327 . S
C2287 C2303 1.429 1_655 S
C2287 H2309 0.950 . S
C2288 H2284 0.949 . S
C2288 C2296 1.574 . S
C2288 C2304 1.368 . S
H2289 C2297 0.950 . S
H2290 C2295 0.950 . S
H2291 C2296 0.949 . S
H2292 C2298 0.950 . S
H2293 C2299 0.950 . S
H2294 C2300 0.949 . S
C2295 H2290 0.950 . S
C2295 C2297 1.327 . S
C2295 C2301 1.429 1_655 S
C2296 C2288 1.574 . S
C2296 H2291 0.949 . S
C2296 C2302 1.368 . S
C2297 C2281 1.349 1_655 S
C2297 H2289 0.950 . S
C2297 C2295 1.327 . S
C2298 C2286 1.371 . S
C2298 H2292 0.950 . S
C2298 C2299 1.327 . S
C2299 H2293 0.950 . S
C2299 C2298 1.327 . S
C2299 C2303 1.429 . S
C2300 C2283 1.574 . S
C2300 H2294 0.949 . S
C2300 C2304 1.368 1_655 S
C2301 C2282 1.429 . S
C2301 C2295 1.429 1_455 S
C2301 C2302 1.523 . S
C2302 C2283 1.368 1_455 S
C2302 C2296 1.368 . S
C2302 C2301 1.523 . S
C2303 C2287 1.429 1_455 S
C2303 C2299 1.429 . S
C2303 C2304 1.523 . S
C2304 C2288 1.368 . S
C2304 C2300 1.368 1_455 S
C2304 C2303 1.523 . S
H2305 C2280 0.950 . S
H2306 C2282 0.950 . S
H2307 C2283 0.949 . S
H2308 C2285 0.950 . S
H2309 C2287 0.950 . S
C2310 C2311 1.349 . S
C2310 C2312 1.327 . S
C2310 H2335 0.950 . S
C2311 C2310 1.349 . S
C2311 C2327 1.349 . S
C2312 C2310 1.327 . S
C2312 C2331 1.429 . S
C2312 H2336 0.950 . S
C2313 C2330 1.574 . S
C2313 C2332 1.368 . S
C2313 H2337 0.949 . S
H2314 C2318 0.949 . S
C2315 C2316 1.349 . S
C2315 C2317 1.327 . S
C2315 H2338 0.950 . S
C2316 C2315 1.349 . S
C2316 C2328 1.349 . S
C2317 C2315 1.327 . S
C2317 C2333 1.429 . S
C2317 H2339 0.950 . S
C2318 H2314 0.949 . S
C2318 C2326 1.574 . S
C2318 C2334 1.368 . S
H2319 C2327 0.950 . S
H2320 C2325 0.950 . S
H2321 C2326 0.949 . S
H2322 C2328 0.950 . S
H2323 C2329 0.950 . S
H2324 C2330 0.949 . S
C2325 H2320 0.950 . S
C2325 C2327 1.327 . S
C2325 C2331 1.429 . S
C2326 C2318 1.574 . S
C2326 H2321 0.949 . S
C2326 C2332 1.368 . S
C2327 C2311 1.349 . S
C2327 H2319 0.950 . S
C2327 C2325 1.327 . S
C2328 C2316 1.349 . S
C2328 H2322 0.950 . S
C2328 C2329 1.327 . S
C2329 H2323 0.950 . S
C2329 C2328 1.327 . S
C2329 C2333 1.429 . S
C2330 C2313 1.574 . S
C2330 H2324 0.949 . S
C2330 C2334 1.368 . S
C2331 C2312 1.429 . S
C2331 C2325 1.429 . S
C2331 C2332 1.523 . S
C2332 C2313 1.368 . S
C2332 C2326 1.368 . S
C2332 C2331 1.523 . S
C2333 C2317 1.429 . S
C2333 C2329 1.429 . S
C2333 C2334 1.523 . S
C2334 C2318 1.368 . S
C2334 C2330 1.368 . S
C2334 C2333 1.523 . S
H2335 C2310 0.950 . S
H2336 C2312 0.950 . S
H2337 C2313 0.949 . S
H2338 C2315 0.950 . S
H2339 C2317 0.950 . S
C2340 C2341 1.349 . S
C2340 C2342 1.327 . S
C2340 H2365 0.950 . S
C2341 C2340 1.349 . S
C2341 C2357 1.349 . S
C2342 C2340 1.327 . S
C2342 C2361 1.429 . S
C2342 H2366 0.950 . S
C2343 C2360 1.574 . S
C2343 C2362 1.368 . S
C2343 H2367 0.949 . S
H2344 C2348 0.949 . S
C2345 C2346 1.349 . S
C2345 C2347 1.327 . S
C2345 H2368 0.950 . S
C2346 C2345 1.349 . S
C2346 C2358 1.349 . S
C2347 C2345 1.327 . S
C2347 C2363 1.429 . S
C2347 H2369 0.950 . S
C2348 H2344 0.949 . S
C2348 C2356 1.574 . S
C2348 C2364 1.368 . S
H2349 C2357 0.950 . S
H2350 C2355 0.950 . S
H2351 C2356 0.949 . S
H2352 C2358 0.950 . S
H2353 C2359 0.950 . S
H2354 C2360 0.949 . S
C2355 H2350 0.950 . S
C2355 C2357 1.327 . S
C2355 C2361 1.429 . S
C2356 C2348 1.574 . S
C2356 H2351 0.949 . S
C2356 C2362 1.368 . S
C2357 C2341 1.349 . S
C2357 H2349 0.950 . S
C2357 C2355 1.327 . S
C2358 C2346 1.349 . S
C2358 H2352 0.950 . S
C2358 C2359 1.327 . S
C2359 H2353 0.950 . S
C2359 C2358 1.327 . S
C2359 C2363 1.429 . S
C2360 C2343 1.574 . S
C2360 H2354 0.949 . S
C2360 C2364 1.368 . S
C2361 C2342 1.429 . S
C2361 C2355 1.429 . S
C2361 C2362 1.523 . S
C2362 C2343 1.368 . S
C2362 C2356 1.368 . S
C2362 C2361 1.523 . S
C2363 C2347 1.429 . S
C2363 C2359 1.429 . S
C2363 C2364 1.523 . S
C2364 C2348 1.368 . S
C2364 C2360 1.368 . S
C2364 C2363 1.523 . S
H2365 C2340 0.950 . S
H2366 C2342 0.950 . S
H2367 C2343 0.949 . S
H2368 C2345 0.950 . S
H2369 C2347 0.950 . S
C2370 C2371 1.349 . S
C2370 C2372 1.327 . S
C2370 H2395 0.950 . S
C2371 C2370 1.349 . S
C2371 C2387 1.349 . S
C2372 C2370 1.327 . S
C2372 C2391 1.429 . S
C2372 H2396 0.950 . S
C2373 C2390 1.574 . S
C2373 C2392 1.368 . S
C2373 H2397 0.949 . S
H2374 C2378 0.949 . S
C2375 C2376 1.349 . S
C2375 C2377 1.327 . S
C2375 H2398 0.950 . S
C2376 C2375 1.349 . S
C2376 C2388 1.349 . S
C2377 C2375 1.327 . S
C2377 C2393 1.429 . S
C2377 H2399 0.950 . S
C2378 H2374 0.949 . S
C2378 C2386 1.574 . S
C2378 C2394 1.368 . S
H2379 C2387 0.950 . S
H2380 C2385 0.950 . S
H2381 C2386 0.949 . S
H2382 C2388 0.950 . S
H2383 C2389 0.950 . S
H2384 C2390 0.949 . S
C2385 H2380 0.950 . S
C2385 C2387 1.327 . S
C2385 C2391 1.429 . S
C2386 C2378 1.574 . S
C2386 H2381 0.949 . S
C2386 C2392 1.368 . S
C2387 C2371 1.349 . S
C2387 H2379 0.950 . S
C2387 C2385 1.327 . S
C2388 C2376 1.349 . S
C2388 H2382 0.950 . S
C2388 C2389 1.327 . S
C2389 H2383 0.950 . S
C2389 C2388 1.327 . S
C2389 C2393 1.429 . S
C2390 C2373 1.574 . S
C2390 H2384 0.949 . S
C2390 C2394 1.368 . S
C2391 C2372 1.429 . S
C2391 C2385 1.429 . S
C2391 C2392 1.523 . S
C2392 C2373 1.368 . S
C2392 C2386 1.368 . S
C2392 C2391 1.523 . S
C2393 C2377 1.429 . S
C2393 C2389 1.429 . S
C2393 C2394 1.523 . S
C2394 C2378 1.368 . S
C2394 C2390 1.368 . S
C2394 C2393 1.523 . S
H2395 C2370 0.950 . S
H2396 C2372 0.950 . S
H2397 C2373 0.949 . S
H2398 C2375 0.950 . S
H2399 C2377 0.950 . S
C2400 C2401 1.349 . S
C2400 C2402 1.327 . S
C2400 H2425 0.950 . S
C2401 C2400 1.349 . S
C2401 C2417 1.349 . S
C2402 C2400 1.327 . S
C2402 C2421 1.429 . S
C2402 H2426 0.950 . S
C2403 C2420 1.574 . S
C2403 C2422 1.368 . S
C2403 H2427 0.949 . S
H2404 C2408 0.949 . S
C2405 C2406 1.349 . S
C2405 C2407 1.327 . S
C2405 H2428 0.950 . S
C2406 C2405 1.349 . S
C2406 C2418 1.349 . S
C2407 C2405 1.327 . S
C2407 C2423 1.429 . S
C2407 H2429 0.950 . S
C2408 H2404 0.949 . S
C2408 C2416 1.574 . S
C2408 C2424 1.368 . S
H2409 C2417 0.950 . S
H2410 C2415 0.950 . S
H2411 C2416 0.949 . S
H2412 C2418 0.950 . S
H2413 C2419 0.950 . S
H2414 C2420 0.949 . S
C2415 H2410 0.950 . S
C2415 C2417 1.327 . S
C2415 C2421 1.429 . S
C2416 C2408 1.574 . S
C2416 H2411 0.949 . S
C2416 C2422 1.368 . S
C2417 C2401 1.349 . S
C2417 H2409 0.950 . S
C2417 C2415 1.327 . S
C2418 C2406 1.349 . S
C2418 H2412 0.950 . S
C2418 C2419 1.327 . S
C2419 H2413 0.950 . S
C2419 C2418 1.327 . S
C2419 C2423 1.429 . S
C2420 C2403 1.574 . S
C2420 H2414 0.949 . S
C2420 C2424 1.368 . S
C2421 C2402 1.429 . S
C2421 C2415 1.429 . S
C2421 C2422 1.523 . S
C2422 C2403 1.368 . S
C2422 C2416 1.368 . S
C2422 C2421 1.523 . S
C2423 C2407 1.429 . S
C2423 C2419 1.429 . S
C2423 C2424 1.523 . S
C2424 C2408 1.368 . S
C2424 C2420 1.368 . S
C2424 C2423 1.523 . S
H2425 C2400 0.950 . S
H2426 C2402 0.950 . S
H2427 C2403 0.949 . S
H2428 C2405 0.950 . S
H2429 C2407 0.950 . S
C2430 C2431 1.349 . S
C2430 C2432 1.327 . S
C2430 H2455 0.950 . S
C2431 C2430 1.349 . S
C2431 C2447 1.288 1_545 S
C2432 C2430 1.327 . S
C2432 C2451 1.429 . S
C2432 H2456 0.950 . S
C2433 C2450 1.574 . S
C2433 C2452 1.368 1_565 S
C2433 H2457 0.949 . S
H2434 C2438 0.949 . S
C2435 C2436 1.349 1_565 S
C2435 C2437 1.327 . S
C2435 H2458 0.950 . S
C2436 C2435 1.349 1_545 S
C2436 C2448 1.349 . S
C2437 C2435 1.327 . S
C2437 C2453 1.429 1_565 S
C2437 H2459 0.950 . S
C2438 H2434 0.949 . S
C2438 C2446 1.574 . S
C2438 C2454 1.368 . S
H2439 C2447 0.979 . S
H2440 C2445 0.950 . S
H2441 C2446 0.949 . S
H2442 C2448 0.950 . S
H2443 C2449 0.950 . S
H2444 C2450 0.949 . S
C2445 H2440 0.950 . S
C2445 C2447 1.362 . S
C2445 C2451 1.429 1_565 S
C2446 C2438 1.574 . S
C2446 H2441 0.949 . S
C2446 C2452 1.368 . S
C2447 C2431 1.288 1_565 S
C2447 H2439 0.979 . S
C2447 C2445 1.362 . S
C2448 C2436 1.349 . S
C2448 H2442 0.950 . S
C2448 C2449 1.327 . S
C2449 H2443 0.950 . S
C2449 C2448 1.327 . S
C2449 C2453 1.429 . S
C2450 C2433 1.574 . S
C2450 H2444 0.949 . S
C2450 C2454 1.368 1_565 S
C2451 C2432 1.429 . S
C2451 C2445 1.429 1_545 S
C2451 C2452 1.523 . S
C2452 C2433 1.368 1_545 S
C2452 C2446 1.368 . S
C2452 C2451 1.523 . S
C2453 C2437 1.429 1_545 S
C2453 C2449 1.429 . S
C2453 C2454 1.523 . S
C2454 C2438 1.368 . S
C2454 C2450 1.368 1_545 S
C2454 C2453 1.523 . S
H2455 C2430 0.950 . S
H2456 C2432 0.950 . S
H2457 C2433 0.949 . S
H2458 C2435 0.950 . S
H2459 C2437 0.950 . S
C2460 C2461 1.349 . S
C2460 C2462 1.327 . S
C2460 H2485 0.950 1_655 S
C2461 C2460 1.349 . S
C2461 C2477 1.349 . S
C2462 C2460 1.327 . S
C2462 C2481 1.429 . S
C2462 H2486 0.950 1_655 S
C2463 C2480 1.574 . S
C2463 C2482 1.368 . S
C2463 H2487 0.949 . S
H2464 C2468 0.949 . S
C2465 C2466 1.349 . S
C2465 C2467 1.327 . S
C2465 H2488 0.950 . S
C2466 C2465 1.349 . S
C2466 C2478 1.349 1_655 S
C2467 C2465 1.327 . S
C2467 C2483 1.429 . S
C2467 H2489 0.950 . S
C2468 H2464 0.949 . S
C2468 C2476 1.555 . S
C2468 C2484 1.368 1_455 S
H2469 C2477 0.950 . S
H2470 C2475 0.950 . S
H2471 C2476 0.973 . S
H2472 C2478 0.950 . S
H2473 C2479 0.950 . S
H2474 C2480 0.949 . S
C2475 H2470 0.950 . S
C2475 C2477 1.327 . S
C2475 C2481 1.429 . S
C2476 C2468 1.555 . S
C2476 H2471 0.973 . S
C2476 C2482 1.363 1_455 S
C2477 C2461 1.349 . S
C2477 H2469 0.950 . S
C2477 C2475 1.327 . S
C2478 C2466 1.349 1_455 S
C2478 H2472 0.950 . S
C2478 C2479 1.327 . S
C2479 H2473 0.950 . S
C2479 C2478 1.327 . S
C2479 C2483 1.429 1_455 S
C2480 C2463 1.574 . S
C2480 H2474 0.949 . S
C2480 C2484 1.368 . S
C2481 C2462 1.429 . S
C2481 C2475 1.429 . S
C2481 C2482 1.523 . S
C2482 C2463 1.368 . S
C2482 C2476 1.363 1_655 S
C2482 C2481 1.523 . S
C2483 C2467 1.429 . S
C2483 C2479 1.429 1_655 S
C2483 C2484 1.523 . S
C2484 C2468 1.368 1_655 S
C2484 C2480 1.368 . S
C2484 C2483 1.523 . S
H2485 C2460 0.950 1_455 S
H2486 C2462 0.950 1_455 S
H2487 C2463 0.949 . S
H2488 C2465 0.950 . S
H2489 C2467 0.950 . S
C2490 C2491 1.349 . S
C2490 C2492 1.327 . S
C2490 H2515 0.950 . S
C2491 C2490 1.349 . S
C2491 C2507 1.349 . S
C2492 C2490 1.327 . S
C2492 C2511 1.429 . S
C2492 H2516 0.950 . S
C2493 C2510 1.574 . S
C2493 C2512 1.368 . S
C2493 H2517 0.949 . S
H2494 C2498 0.949 . S
C2495 C2496 1.349 . S
C2495 C2497 1.327 . S
C2495 H2518 0.950 . S
C2496 C2495 1.349 . S
C2496 C2508 1.349 . S
C2497 C2495 1.327 . S
C2497 C2513 1.429 . S
C2497 H2519 0.950 . S
C2498 H2494 0.949 . S
C2498 C2506 1.574 . S
C2498 C2514 1.368 . S
H2499 C2507 0.950 . S
H2500 C2505 0.950 . S
H2501 C2506 0.949 . S
H2502 C2508 0.950 . S
H2503 C2509 0.950 . S
H2504 C2510 0.949 . S
C2505 H2500 0.950 . S
C2505 C2507 1.327 . S
C2505 C2511 1.429 . S
C2506 C2498 1.574 . S
C2506 H2501 0.949 . S
C2506 C2512 1.368 . S
C2507 C2491 1.349 . S
C2507 H2499 0.950 . S
C2507 C2505 1.327 . S
C2508 C2496 1.349 . S
C2508 H2502 0.950 . S
C2508 C2509 1.327 . S
C2509 H2503 0.950 . S
C2509 C2508 1.327 . S
C2509 C2513 1.429 . S
C2510 C2493 1.574 . S
C2510 H2504 0.949 . S
C2510 C2514 1.368 . S
C2511 C2492 1.429 . S
C2511 C2505 1.429 . S
C2511 C2512 1.523 . S
C2512 C2493 1.368 . S
C2512 C2506 1.368 . S
C2512 C2511 1.523 . S
C2513 C2497 1.429 . S
C2513 C2509 1.429 . S
C2513 C2514 1.523 . S
C2514 C2498 1.368 . S
C2514 C2510 1.368 . S
C2514 C2513 1.523 . S
H2515 C2490 0.950 . S
H2516 C2492 0.950 . S
H2517 C2493 0.949 . S
H2518 C2495 0.950 . S
H2519 C2497 0.950 . S
C2520 C2521 1.349 . S
C2520 C2522 1.327 . S
C2520 H2545 0.950 . S
C2521 C2520 1.349 . S
C2521 C2537 1.349 . S
C2522 C2520 1.327 . S
C2522 C2541 1.429 . S
C2522 H2546 0.950 . S
C2523 C2540 1.574 . S
C2523 C2542 1.368 . S
C2523 H2547 0.949 . S
H2524 C2528 0.949 . S
C2525 C2526 1.349 . S
C2525 C2527 1.327 . S
C2525 H2548 0.950 . S
C2526 C2525 1.349 . S
C2526 C2538 1.349 . S
C2527 C2525 1.327 . S
C2527 C2543 1.429 . S
C2527 H2549 0.950 . S
C2528 H2524 0.949 . S
C2528 C2536 1.574 . S
C2528 C2544 1.368 . S
H2529 C2537 0.950 . S
H2530 C2535 0.950 . S
H2531 C2536 0.949 . S
H2532 C2538 0.950 . S
H2533 C2539 0.950 . S
H2534 C2540 0.949 . S
C2535 H2530 0.950 . S
C2535 C2537 1.327 . S
C2535 C2541 1.429 . S
C2536 C2528 1.574 . S
C2536 H2531 0.949 . S
C2536 C2542 1.368 . S
C2537 C2521 1.349 . S
C2537 H2529 0.950 . S
C2537 C2535 1.327 . S
C2538 C2526 1.349 . S
C2538 H2532 0.950 . S
C2538 C2539 1.327 . S
C2539 H2533 0.950 . S
C2539 C2538 1.327 . S
C2539 C2543 1.429 . S
C2540 C2523 1.574 . S
C2540 H2534 0.949 . S
C2540 C2544 1.368 . S
C2541 C2522 1.429 . S
C2541 C2535 1.429 . S
C2541 C2542 1.523 . S
C2542 C2523 1.368 . S
C2542 C2536 1.368 . S
C2542 C2541 1.523 . S
C2543 C2527 1.429 . S
C2543 C2539 1.429 . S
C2543 C2544 1.523 . S
C2544 C2528 1.368 . S
C2544 C2540 1.368 . S
C2544 C2543 1.523 . S
H2545 C2520 0.950 . S
H2546 C2522 0.950 . S
H2547 C2523 0.949 . S
H2548 C2525 0.950 . S
H2549 C2527 0.950 . S
C2550 C2551 1.349 . S
C2550 C2552 1.327 . S
C2550 H2575 0.950 . S
C2551 C2550 1.349 . S
C2551 C2567 1.349 . S
C2552 C2550 1.327 . S
C2552 C2571 1.429 . S
C2552 H2576 0.950 . S
C2553 C2570 1.574 . S
C2553 C2572 1.368 . S
C2553 H2577 0.949 . S
H2554 C2558 0.949 . S
C2555 C2556 1.349 . S
C2555 C2557 1.327 . S
C2555 H2578 0.950 . S
C2556 C2555 1.349 . S
C2556 C2568 1.349 . S
C2557 C2555 1.327 . S
C2557 C2573 1.429 . S
C2557 H2579 0.950 . S
C2558 H2554 0.949 . S
C2558 C2566 1.574 . S
C2558 C2574 1.368 . S
H2559 C2567 0.950 . S
H2560 C2565 0.950 . S
H2561 C2566 0.949 . S
H2562 C2568 0.950 . S
H2563 C2569 0.950 . S
H2564 C2570 0.949 . S
C2565 H2560 0.950 . S
C2565 C2567 1.327 . S
C2565 C2571 1.429 . S
C2566 C2558 1.574 . S
C2566 H2561 0.949 . S
C2566 C2572 1.368 . S
C2567 C2551 1.349 . S
C2567 H2559 0.950 . S
C2567 C2565 1.327 . S
C2568 C2556 1.349 . S
C2568 H2562 0.950 . S
C2568 C2569 1.327 . S
C2569 H2563 0.950 . S
C2569 C2568 1.327 . S
C2569 C2573 1.429 . S
C2570 C2553 1.574 . S
C2570 H2564 0.949 . S
C2570 C2574 1.368 . S
C2571 C2552 1.429 . S
C2571 C2565 1.429 . S
C2571 C2572 1.523 . S
C2572 C2553 1.368 . S
C2572 C2566 1.368 . S
C2572 C2571 1.523 . S
C2573 C2557 1.429 . S
C2573 C2569 1.429 . S
C2573 C2574 1.523 . S
C2574 C2558 1.368 . S
C2574 C2570 1.368 . S
C2574 C2573 1.523 . S
H2575 C2550 0.950 . S
H2576 C2552 0.950 . S
H2577 C2553 0.949 . S
H2578 C2555 0.950 . S
H2579 C2557 0.950 . S
C2580 C2581 1.349 . S
C2580 C2582 1.327 . S
C2580 H2605 0.950 . S
C2581 C2580 1.349 . S
C2581 C2597 1.349 . S
C2582 C2580 1.327 . S
C2582 C2601 1.429 . S
C2582 H2606 0.950 . S
C2583 C2600 1.574 . S
C2583 C2602 1.368 . S
C2583 H2607 0.949 . S
H2584 C2588 0.949 . S
C2585 C2586 1.349 . S
C2585 C2587 1.327 . S
C2585 H2608 0.950 . S
C2586 C2585 1.349 . S
C2586 C2598 1.349 . S
C2587 C2585 1.327 . S
C2587 C2603 1.429 . S
C2587 H2609 0.950 . S
C2588 H2584 0.949 . S
C2588 C2596 1.574 . S
C2588 C2604 1.368 . S
H2589 C2597 0.950 . S
H2590 C2595 0.950 . S
H2591 C2596 0.949 . S
H2592 C2598 0.950 . S
H2593 C2599 0.950 . S
H2594 C2600 0.949 . S
C2595 H2590 0.950 . S
C2595 C2597 1.327 . S
C2595 C2601 1.429 . S
C2596 C2588 1.574 . S
C2596 H2591 0.949 . S
C2596 C2602 1.368 . S
C2597 C2581 1.349 . S
C2597 H2589 0.950 . S
C2597 C2595 1.327 . S
C2598 C2586 1.349 . S
C2598 H2592 0.950 . S
C2598 C2599 1.327 . S
C2599 H2593 0.950 . S
C2599 C2598 1.327 . S
C2599 C2603 1.429 . S
C2600 C2583 1.574 . S
C2600 H2594 0.949 . S
C2600 C2604 1.368 . S
C2601 C2582 1.429 . S
C2601 C2595 1.429 . S
C2601 C2602 1.523 . S
C2602 C2583 1.368 . S
C2602 C2596 1.368 . S
C2602 C2601 1.523 . S
C2603 C2587 1.429 . S
C2603 C2599 1.429 . S
C2603 C2604 1.523 . S
C2604 C2588 1.368 . S
C2604 C2600 1.368 . S
C2604 C2603 1.523 . S
H2605 C2580 0.950 . S
H2606 C2582 0.950 . S
H2607 C2583 0.949 . S
H2608 C2585 0.950 . S
H2609 C2587 0.950 . S
C2610 C2611 1.349 . S
C2610 C2612 1.327 . S
C2610 H2635 0.950 . S
C2611 C2610 1.349 . S
C2611 C2627 1.349 . S
C2612 C2610 1.327 . S
C2612 C2631 1.429 . S
C2612 H2636 0.950 . S
C2613 C2630 1.574 . S
C2613 C2632 1.368 . S
C2613 H2637 0.949 . S
H2614 C2618 0.949 . S
C2615 C2616 1.349 . S
C2615 C2617 1.327 . S
C2615 H2638 0.950 . S
C2616 C2615 1.349 . S
C2616 C2628 1.349 . S
C2617 C2615 1.327 . S
C2617 C2633 1.429 . S
C2617 H2639 0.950 . S
C2618 H2614 0.949 . S
C2618 C2626 1.574 . S
C2618 C2634 1.368 . S
H2619 C2627 0.950 . S
H2620 C2625 0.950 . S
H2621 C2626 0.949 . S
H2622 C2628 0.950 . S
H2623 C2629 0.950 . S
H2624 C2630 0.949 . S
C2625 H2620 0.950 . S
C2625 C2627 1.327 . S
C2625 C2631 1.429 . S
C2626 C2618 1.574 . S
C2626 H2621 0.949 . S
C2626 C2632 1.368 . S
C2627 C2611 1.349 . S
C2627 H2619 0.950 . S
C2627 C2625 1.327 . S
C2628 C2616 1.349 . S
C2628 H2622 0.950 . S
C2628 C2629 1.327 . S
C2629 H2623 0.950 . S
C2629 C2628 1.327 . S
C2629 C2633 1.429 . S
C2630 C2613 1.574 . S
C2630 H2624 0.949 . S
C2630 C2634 1.368 . S
C2631 C2612 1.429 . S
C2631 C2625 1.429 . S
C2631 C2632 1.523 . S
C2632 C2613 1.368 . S
C2632 C2626 1.368 . S
C2632 C2631 1.523 . S
C2633 C2617 1.429 . S
C2633 C2629 1.429 . S
C2633 C2634 1.523 . S
C2634 C2618 1.368 . S
C2634 C2630 1.368 . S
C2634 C2633 1.523 . S
H2635 C2610 0.950 . S
H2636 C2612 0.950 . S
H2637 C2613 0.949 . S
H2638 C2615 0.950 . S
H2639 C2617 0.950 . S
C2640 C2641 1.349 . S
C2640 C2642 1.327 . S
C2640 H2665 0.950 . S
C2641 C2640 1.349 . S
C2641 C2657 1.349 . S
C2642 C2640 1.327 . S
C2642 C2661 1.429 . S
C2642 H2666 0.950 . S
C2643 C2660 1.574 . S
C2643 C2662 1.368 . S
C2643 H2667 0.949 . S
H2644 C2648 0.949 . S
C2645 C2646 1.349 . S
C2645 C2647 1.327 . S
C2645 H2668 0.950 . S
C2646 C2645 1.349 . S
C2646 C2658 1.349 . S
C2647 C2645 1.327 . S
C2647 C2663 1.429 . S
C2647 H2669 0.950 . S
C2648 H2644 0.949 . S
C2648 C2656 1.574 . S
C2648 C2664 1.368 . S
H2649 C2657 0.950 . S
H2650 C2655 0.950 . S
H2651 C2656 0.949 . S
H2652 C2658 0.950 . S
H2653 C2659 0.950 . S
H2654 C2660 0.949 . S
C2655 H2650 0.950 . S
C2655 C2657 1.327 . S
C2655 C2661 1.429 . S
C2656 C2648 1.574 . S
C2656 H2651 0.949 . S
C2656 C2662 1.368 . S
C2657 C2641 1.349 . S
C2657 H2649 0.950 . S
C2657 C2655 1.327 . S
C2658 C2646 1.349 . S
C2658 H2652 0.950 . S
C2658 C2659 1.327 . S
C2659 H2653 0.950 . S
C2659 C2658 1.327 . S
C2659 C2663 1.429 . S
C2660 C2643 1.574 . S
C2660 H2654 0.949 . S
C2660 C2664 1.368 . S
C2661 C2642 1.429 . S
C2661 C2655 1.429 . S
C2661 C2662 1.523 . S
C2662 C2643 1.368 . S
C2662 C2656 1.368 . S
C2662 C2661 1.523 . S
C2663 C2647 1.429 . S
C2663 C2659 1.429 . S
C2663 C2664 1.523 . S
C2664 C2648 1.368 . S
C2664 C2660 1.368 . S
C2664 C2663 1.523 . S
H2665 C2640 0.950 . S
H2666 C2642 0.950 . S
H2667 C2643 0.949 . S
H2668 C2645 0.950 . S
H2669 C2647 0.950 . S
C2670 C2671 1.349 . S
C2670 C2672 1.327 . S
C2670 H2695 0.950 . S
C2671 C2670 1.349 . S
C2671 C2687 1.349 . S
C2672 C2670 1.327 . S
C2672 C2691 1.429 . S
C2672 H2696 0.950 . S
C2673 C2690 1.574 . S
C2673 C2692 1.368 . S
C2673 H2697 0.949 . S
H2674 C2678 0.949 . S
C2675 C2676 1.349 . S
C2675 C2677 1.327 . S
C2675 H2698 0.950 . S
C2676 C2675 1.349 . S
C2676 C2688 1.349 . S
C2677 C2675 1.327 . S
C2677 C2693 1.429 . S
C2677 H2699 0.950 . S
C2678 H2674 0.949 . S
C2678 C2686 1.574 . S
C2678 C2694 1.368 . S
H2679 C2687 0.950 . S
H2680 C2685 0.950 . S
H2681 C2686 0.949 . S
H2682 C2688 0.950 . S
H2683 C2689 0.950 . S
H2684 C2690 0.949 . S
C2685 H2680 0.950 . S
C2685 C2687 1.327 . S
C2685 C2691 1.429 . S
C2686 C2678 1.574 . S
C2686 H2681 0.949 . S
C2686 C2692 1.368 . S
C2687 C2671 1.349 . S
C2687 H2679 0.950 . S
C2687 C2685 1.327 . S
C2688 C2676 1.349 . S
C2688 H2682 0.950 . S
C2688 C2689 1.327 . S
C2689 H2683 0.950 . S
C2689 C2688 1.327 . S
C2689 C2693 1.429 . S
C2690 C2673 1.574 . S
C2690 H2684 0.949 . S
C2690 C2694 1.368 . S
C2691 C2672 1.429 . S
C2691 C2685 1.429 . S
C2691 C2692 1.523 . S
C2692 C2673 1.368 . S
C2692 C2686 1.368 . S
C2692 C2691 1.523 . S
C2693 C2677 1.429 . S
C2693 C2689 1.429 . S
C2693 C2694 1.523 . S
C2694 C2678 1.368 . S
C2694 C2690 1.368 . S
C2694 C2693 1.523 . S
H2695 C2670 0.950 . S
H2696 C2672 0.950 . S
H2697 C2673 0.949 . S
H2698 C2675 0.950 . S
H2699 C2677 0.950 . S
C2700 C2701 1.349 . S
C2700 C2702 1.327 . S
C2700 H2725 0.950 . S
C2701 C2700 1.349 . S
C2701 C2717 1.356 . S
C2702 C2700 1.327 . S
C2702 C2721 1.429 . S
C2702 H2726 0.950 . S
C2703 C2720 1.574 . S
C2703 C2722 1.368 1_455 S
C2703 H2727 0.949 . S
H2704 C2708 0.949 . S
C2705 C2706 1.349 1_455 S
C2705 C2707 1.327 . S
C2705 H2728 0.950 . S
C2706 C2705 1.349 1_655 S
C2706 C2718 1.349 . S
C2707 C2705 1.327 . S
C2707 C2723 1.429 1_455 S
C2707 H2729 0.950 . S
C2708 H2704 0.949 . S
C2708 C2716 1.574 . S
C2708 C2724 1.368 . S
H2709 C2717 0.948 1_455 S
H2710 C2715 0.950 . S
H2711 C2716 0.949 . S
H2712 C2718 0.950 . S
H2713 C2719 0.950 . S
H2714 C2720 0.949 . S
C2715 H2710 0.950 . S
C2715 C2717 1.321 1_455 S
C2715 C2721 1.429 1_455 S
C2716 C2708 1.574 . S
C2716 H2711 0.949 . S
C2716 C2722 1.368 . S
C2717 C2701 1.356 . S
C2717 H2709 0.948 1_655 S
C2717 C2715 1.321 1_655 S
C2718 C2706 1.349 . S
C2718 H2712 0.950 . S
C2718 C2719 1.327 . S
C2719 H2713 0.950 . S
C2719 C2718 1.327 . S
C2719 C2723 1.429 . S
C2720 C2703 1.574 . S
C2720 H2714 0.949 . S
C2720 C2724 1.368 1_455 S
C2721 C2702 1.429 . S
C2721 C2715 1.429 1_655 S
C2721 C2722 1.523 . S
C2722 C2703 1.368 1_655 S
C2722 C2716 1.368 . S
C2722 C2721 1.523 . S
C2723 C2707 1.429 1_655 S
C2723 C2719 1.429 . S
C2723 C2724 1.523 . S
C2724 C2708 1.368 . S
C2724 C2720 1.368 1_655 S
C2724 C2723 1.523 . S
H2725 C2700 0.950 . S
H2726 C2702 0.950 . S
H2727 C2703 0.949 . S
H2728 C2705 0.950 . S
H2729 C2707 0.950 . S
C2730 C2731 1.349 . S
C2730 C2732 1.327 . S
C2730 H2755 0.950 . S
C2731 C2730 1.349 . S
C2731 C2747 1.349 . S
C2732 C2730 1.327 . S
C2732 C2751 1.429 . S
C2732 H2756 0.950 . S
C2733 C2750 1.574 . S
C2733 C2752 1.368 . S
C2733 H2757 0.949 . S
H2734 C2738 0.949 . S
C2735 C2736 1.349 . S
C2735 C2737 1.327 . S
C2735 H2758 0.950 . S
C2736 C2735 1.349 . S
C2736 C2748 1.349 . S
C2737 C2735 1.327 . S
C2737 C2753 1.429 . S
C2737 H2759 0.950 . S
C2738 H2734 0.949 . S
C2738 C2746 1.574 . S
C2738 C2754 1.368 . S
H2739 C2747 0.950 . S
H2740 C2745 0.950 . S
H2741 C2746 0.949 . S
H2742 C2748 0.950 . S
H2743 C2749 0.950 . S
H2744 C2750 0.949 . S
C2745 H2740 0.950 . S
C2745 C2747 1.327 . S
C2745 C2751 1.429 . S
C2746 C2738 1.574 . S
C2746 H2741 0.949 . S
C2746 C2752 1.368 . S
C2747 C2731 1.349 . S
C2747 H2739 0.950 . S
C2747 C2745 1.327 . S
C2748 C2736 1.349 . S
C2748 H2742 0.950 . S
C2748 C2749 1.327 . S
C2749 H2743 0.950 . S
C2749 C2748 1.327 . S
C2749 C2753 1.429 . S
C2750 C2733 1.574 . S
C2750 H2744 0.949 . S
C2750 C2754 1.368 . S
C2751 C2732 1.429 . S
C2751 C2745 1.429 . S
C2751 C2752 1.523 . S
C2752 C2733 1.368 . S
C2752 C2746 1.368 . S
C2752 C2751 1.523 . S
C2753 C2737 1.429 . S
C2753 C2749 1.429 . S
C2753 C2754 1.523 . S
C2754 C2738 1.368 . S
C2754 C2750 1.368 . S
C2754 C2753 1.523 . S
H2755 C2730 0.950 . S
H2756 C2732 0.950 . S
H2757 C2733 0.949 . S
H2758 C2735 0.950 . S
H2759 C2737 0.950 . S
C2760 C2761 1.349 . S
C2760 C2762 1.327 . S
C2760 H2785 0.950 . S
C2761 C2760 1.349 . S
C2761 C2777 1.349 1_545 S
C2762 C2760 1.327 . S
C2762 C2781 1.429 . S
C2762 H2786 0.950 . S
C2763 C2780 1.574 . S
C2763 C2782 1.368 1_565 S
C2763 H2787 0.949 . S
H2764 C2768 0.949 . S
C2765 C2766 1.264 1_565 S
C2765 C2767 1.327 . S
C2765 H2788 0.950 . S
C2766 C2765 1.264 1_545 S
C2766 C2778 1.403 . S
C2767 C2765 1.327 . S
C2767 C2783 1.429 1_565 S
C2767 H2789 0.950 . S
C2768 H2764 0.949 . S
C2768 C2776 1.574 . S
C2768 C2784 1.368 . S
H2769 C2777 0.950 . S
H2770 C2775 0.950 . S
H2771 C2776 0.949 . S
H2772 C2778 0.950 . S
H2773 C2779 0.950 . S
H2774 C2780 0.949 . S
C2775 H2770 0.950 . S
C2775 C2777 1.327 . S
C2775 C2781 1.429 1_565 S
C2776 C2768 1.574 . S
C2776 H2771 0.949 . S
C2776 C2782 1.368 . S
C2777 C2761 1.349 1_565 S
C2777 H2769 0.950 . S
C2777 C2775 1.327 . S
C2778 C2766 1.403 . S
C2778 H2772 0.950 . S
C2778 C2779 1.327 . S
C2779 H2773 0.950 . S
C2779 C2778 1.327 . S
C2779 C2783 1.429 . S
C2780 C2763 1.574 . S
C2780 H2774 0.949 . S
C2780 C2784 1.368 1_565 S
C2781 C2762 1.429 . S
C2781 C2775 1.429 1_545 S
C2781 C2782 1.523 . S
C2782 C2763 1.368 1_545 S
C2782 C2776 1.368 . S
C2782 C2781 1.523 . S
C2783 C2767 1.429 1_545 S
C2783 C2779 1.429 . S
C2783 C2784 1.523 . S
C2784 C2768 1.368 . S
C2784 C2780 1.368 1_545 S
C2784 C2783 1.523 . S
H2785 C2760 0.950 . S
H2786 C2762 0.950 . S
H2787 C2763 0.949 . S
H2788 C2765 0.950 . S
H2789 C2767 0.950 . S
C631 C8 1.599 . S
C636 C458 1.508 1_655 S
C661 C22 1.555 . S
C666 C471 1.522 . S
C696 C500 1.463 1_545 S
C691 C37 1.541 . S
C721 C36 1.574 . S
C726 C513 1.509 . S
C751 C9 1.546 . S
C756 C534 1.526 . S
C781 C23 1.556 . S
C786 C563 1.494 . S
C811 C50 1.587 . S
C816 C542 1.506 . S
C846 C555 1.500 . S
C841 C64 1.546 . S
C876 C521 1.499 . S
C871 C79 1.526 . S
C901 C78 1.563 . S
C906 C492 1.494 1_545 S
C936 C450 1.503 1_655 S
C931 C51 1.530 . S
C961 C65 1.547 . S
C966 C479 1.504 . S
C991 C92 1.565 . S
C996 C584 1.502 . S
C1021 C106 1.558 . S
C1026 C597 1.525 . S
C1056 C626 1.492 . S
C1051 C121 1.554 . S
C1081 C120 1.548 . S
C1086 C261 1.516 . S
C1111 C93 1.559 . S
C1116 C282 1.526 . S
C1141 C107 1.557 . S
C1146 C311 1.495 . S
C1171 C134 1.553 . S
C1176 C290 1.509 . S
C1201 C148 1.547 . S
C1206 C303 1.501 . S
C1236 C269 1.502 . S
C1231 C163 1.545 . S
C1266 C618 1.497 . S
C1261 C162 1.542 . S
C1296 C576 1.504 . S
C1291 C135 1.551 . S
C1326 C605 1.508 . S
C1321 C149 1.551 . S
C1351 C176 1.562 . S
C1356 C332 1.499 . S
C1381 C190 1.556 . S
C1386 C345 1.523 . S
C1411 C205 1.553 . S
C1416 C374 1.491 . S
C1441 C204 1.552 . S
C1446 C387 1.519 . S
C1476 C408 1.527 . S
C1471 C177 1.560 . S
C1506 C437 1.497 . S
C1501 C191 1.560 . S
C1536 C416 1.513 . S
C1531 C218 1.556 . S
C1566 C429 1.503 . S
C1561 C232 1.549 . S
C1591 C247 1.545 . S
C1596 C395 1.502 . S
C1626 C366 1.494 . S
C1621 C246 1.539 . S
C1651 C219 1.550 . S
C1656 C324 1.504 . S
C1686 C353 1.505 . S
C1681 C233 1.548 . S
C1716 C264 1.419 . S
C1711 C6 1.489 . S
C1741 C20 1.482 . S
C1746 C285 1.407 . S
C1776 C313 1.431 . S
C1771 C35 1.483 . S
C1806 C334 1.425 . S
C1801 C34 1.475 . S
C1836 C348 1.412 . S
C1831 C7 1.489 . S
C1866 C376 1.432 . S
C1861 C21 1.483 . S
C1891 C48 1.501 . S
C1896 C369 1.417 . S
C1921 C62 1.489 . S
C1926 C327 1.399 . S
C1951 C77 1.489 . S
C1956 C355 1.441 . S
C1981 C76 1.482 . S
C1986 C292 1.444 . S
C2016 C306 1.403 . S
C2011 C49 1.492 . S
C2041 C63 1.490 . S
C2046 C271 1.444 . S
C2076 C390 1.419 . S
C2071 C90 1.495 . S
C2101 C104 1.488 . S
C2106 C411 1.412 . S
C2131 C119 1.484 . S
C2136 C439 1.434 . S
C2166 C460 1.425 . S
C2161 C118 1.467 . S
C2191 C91 1.488 . S
C2196 C474 1.412 . S
C2221 C105 1.484 . S
C2226 C502 1.439 . S
C2251 C132 1.499 . S
C2256 C495 1.391 . S
C2281 C146 1.490 . S
C2286 C453 1.446 . S
C2316 C481 1.444 . S
C2311 C161 1.489 . S
C2341 C160 1.482 . S
C2346 C418 1.436 . S
C2371 C133 1.496 . S
C2376 C432 1.405 . S
C2406 C397 1.449 . S
C2401 C147 1.494 . S
C2436 C516 1.417 1_545 S
C2431 C174 1.486 . S
C2461 C188 1.483 . S
C2466 C537 1.409 1_655 S
C2491 C203 1.483 . S
C2496 C565 1.432 . S
C2526 C586 1.425 . S
C2521 C202 1.475 . S
C2556 C600 1.415 . S
C2551 C175 1.490 . S
C2581 C189 1.488 . S
C2586 C628 1.437 . S
C2611 C216 1.502 . S
C2616 C621 1.410 . S
C2641 C230 1.493 . S
C2646 C579 1.403 . S
C2676 C607 1.446 . S
C2671 C245 1.491 . S
C2706 C544 1.434 1_655 S
C2701 C244 1.472 . S
C2736 C558 1.404 . S
C2731 C217 1.494 . S
C2761 C231 1.490 . S
C2766 C523 1.465 1_545 S
