# Generated by pormake.
# Topology apo, (3,6)-cn, num edge types: 1
# Building blocks:
#     Node 0, Type 0, BuildingBlock: BELTOD_clean_linker_0, # of connection points: 3
#     Node 1, Type 0, BuildingBlock: BELTOD_clean_linker_0, # of connection points: 3
#     Node 2, Type 0, BuildingBlock: BELTOD_clean_linker_0, # of connection points: 3
#     Node 3, Type 0, BuildingBlock: BELTOD_clean_linker_0, # of connection points: 3
#     Node 4, Type 0, BuildingBlock: BELTOD_clean_linker_0, # of connection points: 3
#     Node 5, Type 0, BuildingBlock: BELTOD_clean_linker_0, # of connection points: 3
#     Node 6, Type 0, BuildingBlock: BELTOD_clean_linker_0, # of connection points: 3
#     Node 7, Type 0, BuildingBlock: BELTOD_clean_linker_0, # of connection points: 3
#     Node 8, Type 1, BuildingBlock: KUMBUR_clean_sbu_1, # of connection points: 6
#     Node 9, Type 1, BuildingBlock: KUMBUR_clean_sbu_1, # of connection points: 6
#     Node 10, Type 1, BuildingBlock: KUMBUR_clean_sbu_1, # of connection points: 6
#     Node 11, Type 1, BuildingBlock: KUMBUR_clean_sbu_1, # of connection points: 6
#     Edge 12, Type (0, 1), BuildingBlock: OJICUG_clean_linker_0, # of connection points: 2
#     Edge 13, Type (0, 1), BuildingBlock: OJICUG_clean_linker_0, # of connection points: 2
#     Edge 14, Type (0, 1), BuildingBlock: OJICUG_clean_linker_0, # of connection points: 2
#     Edge 15, Type (0, 1), BuildingBlock: OJICUG_clean_linker_0, # of connection points: 2
#     Edge 16, Type (0, 1), BuildingBlock: OJICUG_clean_linker_0, # of connection points: 2
#     Edge 17, Type (0, 1), BuildingBlock: OJICUG_clean_linker_0, # of connection points: 2
#     Edge 18, Type (0, 1), BuildingBlock: OJICUG_clean_linker_0, # of connection points: 2
#     Edge 19, Type (0, 1), BuildingBlock: OJICUG_clean_linker_0, # of connection points: 2
#     Edge 20, Type (0, 1), BuildingBlock: OJICUG_clean_linker_0, # of connection points: 2
#     Edge 21, Type (0, 1), BuildingBlock: OJICUG_clean_linker_0, # of connection points: 2
#     Edge 22, Type (0, 1), BuildingBlock: OJICUG_clean_linker_0, # of connection points: 2
#     Edge 23, Type (0, 1), BuildingBlock: OJICUG_clean_linker_0, # of connection points: 2
#     Edge 24, Type (0, 1), BuildingBlock: OJICUG_clean_linker_0, # of connection points: 2
#     Edge 25, Type (0, 1), BuildingBlock: OJICUG_clean_linker_0, # of connection points: 2
#     Edge 26, Type (0, 1), BuildingBlock: OJICUG_clean_linker_0, # of connection points: 2
#     Edge 27, Type (0, 1), BuildingBlock: OJICUG_clean_linker_0, # of connection points: 2
#     Edge 28, Type (0, 1), BuildingBlock: OJICUG_clean_linker_0, # of connection points: 2
#     Edge 29, Type (0, 1), BuildingBlock: OJICUG_clean_linker_0, # of connection points: 2
#     Edge 30, Type (0, 1), BuildingBlock: OJICUG_clean_linker_0, # of connection points: 2
#     Edge 31, Type (0, 1), BuildingBlock: OJICUG_clean_linker_0, # of connection points: 2
#     Edge 32, Type (0, 1), BuildingBlock: OJICUG_clean_linker_0, # of connection points: 2
#     Edge 33, Type (0, 1), BuildingBlock: OJICUG_clean_linker_0, # of connection points: 2
#     Edge 34, Type (0, 1), BuildingBlock: OJICUG_clean_linker_0, # of connection points: 2
#     Edge 35, Type (0, 1), BuildingBlock: OJICUG_clean_linker_0, # of connection points: 2
# Relax obj value: 0.007
# Max RMSD: 0.128
# Mean RMSD: 0.093
data_MOF--net-apo--node1-KUMBUR_clean_sbu_1--node2-BELTOD_clean_linker_0--edge1-OJICUG_clean_linker_0
_symmetry_space_group_name_H-M    P1
_symmetry_Int_Tables_number       1
_symmetry_cell_setting            triclinic
loop_
_symmetry_equiv_pos_as_xyz
'x, y, z'
_cell_length_a     21.125381
_cell_length_b     36.645493
_cell_length_c     47.441281
_cell_angle_alpha  89.56696
_cell_angle_beta   90.042345
_cell_angle_gamma 90.384241
loop_
_atom_site_label
_atom_site_type_symbol
_atom_site_fract_x
_atom_site_fract_y
_atom_site_fract_z
_atom_type_partial_charge
P0 P 0.36332 0.35239 0.39802 0.0
H1 H 0.36658 0.30371 0.4467 0.0
H2 H 0.36238 0.31489 0.49739 0.0
H3 H 0.32456 0.4289 0.48063 0.0
H4 H 0.32551 0.41703 0.43035 0.0
H5 H 0.35452 0.3283 0.3404 0.0
H6 H 0.27842 0.29025 0.31504 0.0
H7 H 0.16869 0.277 0.39127 0.0
H8 H 0.24492 0.31561 0.41658 0.0
H9 H 0.46498 0.40607 0.39828 0.0
H10 H 0.28111 0.39446 0.3596 0.0
O11 O 0.4321 0.33049 0.39588 0.0
H12 H 0.48123 0.46387 0.37302 0.0
H13 H 0.29756 0.45189 0.33396 0.0
C14 C 0.34742 0.35958 0.4348 0.0
C15 C 0.35605 0.33091 0.45405 0.0
C16 C 0.35427 0.33747 0.48301 0.0
C17 C 0.3444 0.37298 0.4932 0.0
C18 C 0.33198 0.40118 0.4737 0.0
C19 C 0.33306 0.39446 0.44477 0.0
C20 C 0.30522 0.32483 0.38027 0.0
C21 C 0.31388 0.31738 0.35162 0.0
C22 C 0.2703 0.29581 0.33714 0.0
C23 C 0.2176 0.28087 0.3512 0.0
C24 C 0.20913 0.28812 0.38002 0.0
C25 C 0.25254 0.31019 0.39445 0.0
C26 C 0.37284 0.39549 0.38011 0.0
C27 C 0.42826 0.41592 0.38427 0.0
C28 C 0.43725 0.44902 0.37003 0.0
C29 C 0.3909 0.46208 0.35133 0.0
C30 C 0.33444 0.44209 0.34791 0.0
C31 C 0.32516 0.40922 0.36248 0.0
P32 P 0.30928 0.09444 0.9073 0.0
H33 H 0.33253 0.0617 0.85269 0.0
H34 H 0.27022 0.02019 0.82309 0.0
H35 H 0.11673 0.02414 0.88296 0.0
H36 H 0.17784 0.06657 0.9119 0.0
H37 H 0.40362 0.15074 0.91849 0.0
H38 H 0.43587 0.20565 0.89226 0.0
H39 H 0.28003 0.18947 0.83462 0.0
H40 H 0.24777 0.13487 0.86098 0.0
H41 H 0.27925 0.03771 0.94756 0.0
H42 H 0.26574 0.15504 0.94355 0.0
O43 O 0.37898 0.07365 0.91038 0.0
H44 H 0.23204 0.0377 0.99448 0.0
H45 H 0.21929 0.15522 0.99108 0.0
C46 C 0.26055 0.0665 0.88481 0.0
C47 C 0.28528 0.05384 0.85931 0.0
C48 C 0.2497 0.03028 0.84243 0.0
C49 C 0.18916 0.01873 0.85103 0.0
C50 C 0.16373 0.03228 0.87616 0.0
C51 C 0.19882 0.05643 0.89273 0.0
C52 C 0.32406 0.13843 0.8914 0.0
C53 C 0.37571 0.15946 0.90053 0.0
C54 C 0.39397 0.19084 0.8856 0.0
C55 C 0.36089 0.20151 0.86122 0.0
C56 C 0.30692 0.18151 0.8531 0.0
C57 C 0.2884 0.15033 0.8682 0.0
C58 C 0.27574 0.0963 0.94209 0.0
C59 C 0.26617 0.0635 0.95686 0.0
C60 C 0.23886 0.0635 0.98356 0.0
C61 C 0.22156 0.09643 0.99626 0.0
C62 C 0.23224 0.12948 0.98169 0.0
C63 C 0.25872 0.12939 0.95459 0.0
P64 P 0.86801 0.14655 0.61401 0.0
H65 H 0.87793 0.20476 0.5728 0.0
H66 H 0.8587 0.20823 0.52209 0.0
H67 H 0.79976 0.09509 0.52257 0.0
H68 H 0.81981 0.09178 0.57351 0.0
H69 H 0.88197 0.18556 0.6667 0.0
H70 H 0.80895 0.22138 0.69503 0.0
H71 H 0.66184 0.20347 0.63318 0.0
H72 H 0.73572 0.16801 0.60476 0.0
H73 H 0.95041 0.08408 0.60651 0.0
H74 H 0.78564 0.1099 0.65605 0.0
O75 O 0.9409 0.16355 0.61806 0.0
H76 H 0.96269 0.02715 0.63315 0.0
H77 H 0.79781 0.05325 0.6827 0.0
C78 C 0.85071 0.14801 0.57683 0.0
C79 C 0.86073 0.18072 0.56199 0.0
C80 C 0.84941 0.18271 0.53302 0.0
C81 C 0.82767 0.15194 0.51826 0.0
C82 C 0.81719 0.11915 0.53329 0.0
C83 C 0.82836 0.11725 0.56241 0.0
C84 C 0.81471 0.1751 0.6333 0.0
C85 C 0.83423 0.18979 0.65907 0.0
C86 C 0.79218 0.20982 0.67543 0.0
C87 C 0.72958 0.2153 0.66635 0.0
C88 C 0.71001 0.20017 0.64055 0.0
C89 C 0.75218 0.18001 0.62424 0.0
C90 C 0.86771 0.10146 0.62943 0.0
C91 C 0.9162 0.07717 0.62273 0.0
C92 C 0.92309 0.04465 0.63797 0.0
C93 C 0.88161 0.03596 0.66028 0.0
C94 C 0.83113 0.05953 0.66598 0.0
C95 C 0.82402 0.09191 0.65058 0.0
P96 P 0.79535 0.40277 0.10531 0.0
H97 H 0.81435 0.4336 0.1605 0.0
H98 H 0.7535 0.47548 0.18931 0.0
H99 H 0.6059 0.47674 0.12615 0.0
H100 H 0.66802 0.4351 0.09712 0.0
H101 H 0.91833 0.37854 0.12676 0.0
H102 H 0.94981 0.32849 0.15799 0.0
H103 H 0.75579 0.29153 0.16255 0.0
H104 H 0.72361 0.34293 0.13221 0.0
H105 H 0.77148 0.44469 0.05411 0.0
H106 H 0.74517 0.33334 0.08191 0.0
O107 O 0.86008 0.42741 0.098 0.0
H108 H 0.73772 0.42783 1.00668 0.0
H109 H 0.70821 0.3167 0.03534 0.0
C110 C 0.74572 0.43116 0.12673 0.0
C111 C 0.76859 0.44262 0.15296 0.0
C112 C 0.73352 0.46647 0.1695 0.0
C113 C 0.67462 0.4795 0.16013 0.0
C114 C 0.65138 0.46756 0.13388 0.0
C115 C 0.68668 0.44356 0.11731 0.0
C116 C 0.8187 0.36406 0.12662 0.0
C117 C 0.88237 0.35972 0.13431 0.0
C118 C 0.90039 0.33124 0.15228 0.0
C119 C 0.85519 0.30626 0.16253 0.0
C120 C 0.79148 0.3104 0.15472 0.0
C121 C 0.77321 0.33953 0.1373 0.0
C122 C 0.76123 0.39037 0.07169 0.0
C123 C 0.75739 0.41672 0.05015 0.0
C124 C 0.73772 0.40702 0.023 0.0
C125 C 0.72087 0.3707 0.01685 0.0
C126 C 0.72237 0.34473 0.03891 0.0
C127 C 0.74274 0.35439 0.06592 0.0
P128 P 0.78469 0.60465 0.60572 0.0
H129 H 0.83061 0.64227 0.55565 0.0
H130 H 0.7923 0.64309 0.50715 0.0
H131 H 0.61674 0.59307 0.53457 0.0
H132 H 0.65629 0.59151 0.58293 0.0
H133 H 0.90913 0.63047 0.62346 0.0
H134 H 0.94467 0.68017 0.65267 0.0
H135 H 0.7507 0.71479 0.66332 0.0
H136 H 0.71602 0.66617 0.63153 0.0
H137 H 0.75772 0.52793 0.59754 0.0
H138 H 0.7095 0.6096 0.6588 0.0
O139 O 0.85005 0.58226 0.5966 0.0
H140 H 0.70227 0.48167 0.62563 0.0
H141 H 0.65409 0.5635 0.68689 0.0
C142 C 0.74681 0.61637 0.57283 0.0
C143 C 0.7831 0.63249 0.55133 0.0
C144 C 0.76094 0.63302 0.52353 0.0
C145 C 0.70179 0.61748 0.51674 0.0
C146 C 0.66313 0.60447 0.53889 0.0
C147 C 0.68555 0.6038 0.56668 0.0
C148 C 0.80964 0.64402 0.6257 0.0
C149 C 0.874 0.64884 0.63177 0.0
C150 C 0.89432 0.67723 0.64901 0.0
C151 C 0.85064 0.70116 0.66138 0.0
C152 C 0.78604 0.69706 0.65437 0.0
C153 C 0.76591 0.66903 0.63636 0.0
C154 C 0.73859 0.57223 0.62611 0.0
C155 C 0.73509 0.53598 0.61698 0.0
C156 C 0.7036 0.50951 0.63311 0.0
C157 C 0.67436 0.51885 0.65864 0.0
C158 C 0.67595 0.55549 0.66726 0.0
C159 C 0.70792 0.58195 0.65116 0.0
P160 P 0.83034 0.86285 0.11343 0.0
H161 H 0.89308 0.87074 0.16709 0.0
H162 H 0.91625 0.9227 0.19714 0.0
H163 H 0.81524 0.99331 0.13947 0.0
H164 H 0.78941 0.9404 0.11015 0.0
H165 H 0.82104 0.78356 0.11648 0.0
H166 H 0.75305 0.7421 0.14315 0.0
H167 H 0.64351 0.83384 0.17206 0.0
H168 H 0.71378 0.87532 0.14593 0.0
H169 H 0.87615 0.92037 0.07541 0.0
H170 H 0.75231 0.82661 0.0705 0.0
O171 O 0.89936 0.84098 0.11295 0.0
H172 H 0.86575 0.93001 0.02456 0.0
H173 H 0.74313 0.83561 0.01945 0.0
C174 C 0.84172 0.90193 0.13584 0.0
C175 C 0.87572 0.89739 0.16094 0.0
C176 C 0.88915 0.92722 0.17806 0.0
C177 C 0.8691 0.96247 0.1704 0.0
C178 C 0.83171 0.96663 0.14598 0.0
C179 C 0.81762 0.93647 0.12896 0.0
C180 C 0.77317 0.83253 0.12962 0.0
C181 C 0.78217 0.79475 0.12842 0.0
C182 C 0.74276 0.77099 0.1436 0.0
C183 C 0.69283 0.78449 0.16009 0.0
C184 C 0.68222 0.82244 0.16014 0.0
C185 C 0.72202 0.84623 0.14499 0.0
C186 C 0.81297 0.87365 0.07704 0.0
C187 C 0.84518 0.90249 0.06357 0.0
C188 C 0.83971 0.90779 0.03443 0.0
C189 C 0.8035 0.88361 0.01804 0.0
C190 C 0.77144 0.85464 0.03155 0.0
C191 C 0.77611 0.84973 0.06079 0.0
P192 P 0.30448 0.90288 0.40941 0.0
H193 H 0.36 0.88677 0.46398 0.0
H194 H 0.31594 0.86733 0.50903 0.0
H195 H 0.12803 0.86831 0.47287 0.0
H196 H 0.17324 0.88736 0.42733 0.0
H197 H 0.38173 0.89663 0.35953 0.0
H198 H 0.41005 0.84549 0.32959 0.0
H199 H 0.29234 0.77385 0.38034 0.0
H200 H 0.26536 0.82521 0.41063 0.0
H201 H 0.29374 0.98183 0.41127 0.0
H202 H 0.20915 0.89342 0.36471 0.0
O203 O 0.37301 0.92393 0.41632 0.0
H204 H 0.2387 0.02589 0.38148 0.0
H205 H 0.15265 0.93745 0.33501 0.0
C206 C 0.26975 0.88927 0.44252 0.0
C207 C 0.30925 0.88312 0.46575 0.0
C208 C 0.28387 0.87211 0.49159 0.0
C209 C 0.21827 0.86672 0.49475 0.0
C210 C 0.17875 0.87218 0.47117 0.0
C211 C 0.20438 0.88333 0.44521 0.0
C212 C 0.32246 0.86455 0.38751 0.0
C213 C 0.36214 0.86987 0.36422 0.0
C214 C 0.37773 0.84066 0.34695 0.0
C215 C 0.35351 0.80553 0.35257 0.0
C216 C 0.31249 0.80046 0.37568 0.0
C217 C 0.29691 0.82982 0.39298 0.0
C218 C 0.25624 0.93447 0.38992 0.0
C219 C 0.26269 0.97191 0.39481 0.0
C220 C 0.231 0.99707 0.37778 0.0
C221 C 0.1917 0.98521 0.35565 0.0
C222 C 0.18356 0.94749 0.35148 0.0
C223 C 0.21539 0.9223 0.3686 0.0
P224 P 0.36391 0.64279 0.89458 0.0
H225 H 0.42978 0.62403 0.84354 0.0
H226 H 0.44081 0.56758 0.8174 0.0
H227 H 0.32082 0.51197 0.87802 0.0
H228 H 0.31109 0.56897 0.90454 0.0
H229 H 0.34818 0.72138 0.89126 0.0
H230 H 0.2733 0.76042 0.86623 0.0
H231 H 0.17515 0.66482 0.83548 0.0
H232 H 0.25059 0.62584 0.86059 0.0
H233 H 0.42267 0.59766 0.93821 0.0
H234 H 0.27369 0.67743 0.93283 0.0
O235 O 0.43347 0.66439 0.89194 0.0
H236 H 0.41864 0.60059 0.98995 0.0
H237 H 0.27012 0.68057 0.98399 0.0
C238 C 0.37103 0.60035 0.87627 0.0
C239 C 0.40615 0.59964 0.85131 0.0
C240 C 0.41168 0.56742 0.83618 0.0
C241 C 0.38145 0.53526 0.84555 0.0
C242 C 0.34518 0.53621 0.87043 0.0
C243 C 0.33966 0.56867 0.8856 0.0
C244 C 0.30568 0.6708 0.87731 0.0
C245 C 0.31051 0.70883 0.87915 0.0
C246 C 0.26738 0.7311 0.865 0.0
C247 C 0.21852 0.71569 0.84873 0.0
C248 C 0.21287 0.67746 0.8475 0.0
C249 C 0.25587 0.65517 0.8619 0.0
C250 C 0.3485 0.63728 0.93165 0.0
C251 C 0.38794 0.61497 0.94812 0.0
C252 C 0.38577 0.61668 0.9776 0.0
C253 C 0.3448 0.64122 0.99079 0.0
C254 C 0.30274 0.6618 0.97423 0.0
C255 C 0.3046 0.65987 0.94493 0.0
Tb256 Tb 0.07815 0.14296 0.22911 0.0
C257 C 0.802 0.10797 0.26685 0.0
N258 N 0.83391 0.14029 0.26737 0.0
C259 C 0.74298 0.17112 0.24883 0.0
C260 C 0.73973 0.10582 0.25627 0.0
C261 C 0.80487 0.17187 0.25929 0.0
C262 C 0.71042 0.13793 0.24709 0.0
C263 C 0.80146 0.04263 0.27555 0.0
C264 C 0.83236 0.0768 0.27661 0.0
C265 C 0.73967 0.04029 0.26471 0.0
C266 C 0.70882 0.07181 0.25519 0.0
Tb267 Tb 0.93388 0.13776 0.28518 0.0
N268 N 0.89263 0.07995 0.28655 0.0
C269 C 0.83366 0.01181 0.28535 0.0
C270 C 0.92325 0.05015 0.29715 0.0
C271 C 0.8946 0.01565 0.29638 0.0
H272 H 0.8285 0.1979 0.26139 0.0
H273 H 0.91939 0.99206 0.30453 0.0
H274 H 0.18648 0.0815 0.25067 0.0
H275 H 0.10953 0.28432 0.20053 0.0
H276 H 0.9692 0.0526 0.30666 0.0
H277 H 0.81165 0.98503 0.2848 0.0
H278 H 0.05561 0.22402 0.20092 0.0
H279 H 0.72027 0.1962 0.24231 0.0
H280 H 0.71525 0.01424 0.26367 0.0
H281 H 0.66105 0.06958 0.24702 0.0
H282 H 0.28869 0.0828 0.27536 0.0
H283 H 0.66251 0.13744 0.23893 0.0
H284 H 0.21062 0.29251 0.22632 0.0
N285 N 0.17669 0.13942 0.24952 0.0
C286 C 0.20794 0.17177 0.25224 0.0
C287 C 0.26593 0.10812 0.2695 0.0
C288 C 0.26806 0.17376 0.26509 0.0
C289 C 0.20688 0.10756 0.25614 0.0
C290 C 0.29608 0.14144 0.27457 0.0
N291 N 0.1241 0.19935 0.2276 0.0
C292 C 0.09934 0.22766 0.2124 0.0
C293 C 0.21406 0.23628 0.24061 0.0
C294 C 0.18156 0.20261 0.24022 0.0
C295 C 0.18713 0.26614 0.22654 0.0
C296 C 0.12997 0.26164 0.21202 0.0
H297 H 0.34221 0.14176 0.28457 0.0
H298 H 0.34514 0.20981 0.27711 0.0
H299 H 0.29775 0.26461 0.25566 0.0
O300 O 0.05685 0.14444 0.18573 0.0
O301 O 0.06193 0.18756 0.25869 0.0
O302 O 0.02661 0.15826 0.29826 0.0
O303 O 0.14888 0.12879 0.20017 0.0
O304 O 0.98501 0.16495 0.21743 0.0
O305 O 0.94109 0.18696 0.25872 0.0
O306 O 0.90541 0.12446 0.32645 0.0
O307 O 0.92415 0.1122 0.24326 0.0
O308 O 0.02419 0.09222 0.23244 0.0
O309 O 0.89502 0.17931 0.3101 0.0
O310 O 0.02165 0.11075 0.298 0.0
O311 O 0.07835 0.09493 0.25775 0.0
C312 C 0.05967 0.18422 0.28613 0.0
C313 C 0.11261 0.10218 0.15841 0.0
C314 C 0.13101 0.08042 0.11065 0.0
C315 C 0.11806 0.04459 0.12011 0.0
C316 C 0.10015 0.06637 0.16743 0.0
C317 C 0.10245 0.03774 0.14827 0.0
C318 C 0.12764 0.10918 0.13009 0.0
C319 C 0.9493 0.18822 0.23117 0.0
C320 C 0.1121 0.13239 0.17846 0.0
C321 C 0.2993 0.20766 0.26699 0.0
C322 C 0.27243 0.23885 0.25468 0.0
C323 C 0.96232 0.08846 0.23155 0.0
C324 C 0.83137 0.16186 0.34968 0.0
C325 C 0.78812 0.16356 0.39742 0.0
C326 C 0.72954 0.17437 0.38615 0.0
C327 C 0.7725 0.17231 0.33876 0.0
C328 C 0.8387 0.15714 0.37892 0.0
C329 C 0.72179 0.17843 0.357 0.0
C330 C 0.06575 0.09186 0.28502 0.0
C331 C 0.88747 0.15756 0.33175 0.0
H332 H 0.12136 0.02166 0.10594 0.0
H333 H 0.0896 0.0606 0.18931 0.0
H334 H 0.09304 0.01008 0.15535 0.0
H335 H 0.13678 0.13703 0.12331 0.0
H336 H 0.68965 0.17944 0.39988 0.0
H337 H 0.76589 0.17615 0.31633 0.0
H338 H 0.88456 0.14956 0.38736 0.0
H339 H 0.67644 0.18668 0.34855 0.0
Tb340 Tb 0.43972 0.35576 0.73114 0.0
C341 C 0.70496 0.4075 0.76111 0.0
N342 N 0.68242 0.37275 0.76203 0.0
C343 C 0.77476 0.35181 0.73785 0.0
C344 C 0.76215 0.4161 0.74725 0.0
C345 C 0.71741 0.34476 0.75163 0.0
C346 C 0.7969 0.38771 0.73534 0.0
C347 C 0.69081 0.47098 0.77307 0.0
C348 C 0.66967 0.43442 0.77384 0.0
C349 C 0.74678 0.48003 0.75851 0.0
C350 C 0.7825 0.45262 0.74572 0.0
Tb351 Tb 0.58837 0.36386 0.78462 0.0
N352 N 0.61572 0.42451 0.78767 0.0
C353 C 0.6559 0.49715 0.78755 0.0
C354 C 0.58529 0.44939 0.80401 0.0
C355 C 0.60361 0.48615 0.80355 0.0
H356 H 0.70158 0.31695 0.75423 0.0
H357 H 0.57818 0.50584 0.81603 0.0
H358 H 0.33817 0.42051 0.75165 0.0
H359 H 0.39669 0.2147 0.70706 0.0
H360 H 0.54841 0.441 0.81826 0.0
H361 H 0.67039 0.52557 0.78745 0.0
H362 H 0.45583 0.27333 0.70587 0.0
H363 H 0.80196 0.32954 0.72931 0.0
H364 H 0.76346 0.50803 0.75749 0.0
H365 H 0.826 0.4599 0.73491 0.0
H366 H 0.23572 0.42294 0.77602 0.0
H367 H 0.8412 0.39313 0.72455 0.0
H368 H 0.29583 0.20992 0.73347 0.0
N369 N 0.34303 0.36239 0.75242 0.0
C370 C 0.30945 0.33099 0.75637 0.0
C371 C 0.25647 0.39681 0.77114 0.0
C372 C 0.24902 0.33114 0.76897 0.0
C373 C 0.31559 0.39527 0.75796 0.0
C374 C 0.22351 0.36455 0.77716 0.0
N375 N 0.39031 0.30048 0.73229 0.0
C376 C 0.41218 0.2712 0.71764 0.0
C377 C 0.2979 0.26639 0.74665 0.0
C378 C 0.33335 0.29905 0.74543 0.0
C379 C 0.32173 0.23553 0.73312 0.0
C380 C 0.37868 0.23812 0.71818 0.0
H381 H 0.17719 0.36587 0.78688 0.0
H382 H 0.16853 0.29779 0.78153 0.0
H383 H 0.21141 0.24103 0.76195 0.0
O384 O 0.45925 0.35288 0.68772 0.0
O385 O 0.45852 0.31208 0.76188 0.0
O386 O 0.49878 0.34141 0.80053 0.0
O387 O 0.36772 0.36915 0.70242 0.0
O388 O 0.52812 0.32943 0.71875 0.0
O389 O 0.58276 0.31341 0.75972 0.0
O390 O 0.63188 0.3748 0.82374 0.0
O391 O 0.59355 0.38215 0.74034 0.0
O392 O 0.49601 0.40598 0.73099 0.0
O393 O 0.63746 0.32171 0.80514 0.0
O394 O 0.49827 0.38765 0.79859 0.0
O395 O 0.44663 0.40476 0.75746 0.0
C396 C 0.46509 0.31506 0.78927 0.0
C397 C 0.40186 0.39356 0.65914 0.0
C398 C 0.38529 0.41098 0.61009 0.0
C399 C 0.39247 0.44784 0.6175 0.0
C400 C 0.40972 0.43038 0.66628 0.0
C401 C 0.40507 0.4574 0.64545 0.0
C402 C 0.39028 0.38397 0.63109 0.0
C403 C 0.56997 0.30949 0.73257 0.0
C404 C 0.40361 0.36464 0.68057 0.0
C405 C 0.21482 0.29826 0.7717 0.0
C406 C 0.23916 0.26595 0.7605 0.0
C407 C 0.55781 0.40704 0.72843 0.0
C408 C 0.63047 0.32428 0.85499 0.0
C409 C 0.63917 0.3223 0.90639 0.0
C410 C 0.60013 0.29114 0.90687 0.0
C411 C 0.59103 0.29322 0.85608 0.0
C412 C 0.65385 0.33904 0.88035 0.0
C413 C 0.57589 0.27691 0.88188 0.0
C414 C 0.45635 0.40756 0.78481 0.0
C415 C 0.64818 0.34102 0.82759 0.0
H416 H 0.38924 0.46916 0.60163 0.0
H417 H 0.41878 0.43817 0.6879 0.0
H418 H 0.41102 0.48582 0.65099 0.0
H419 H 0.38395 0.35545 0.6257 0.0
H420 H 0.58807 0.27792 0.92667 0.0
H421 H 0.57205 0.28134 0.837 0.0
H422 H 0.68438 0.36293 0.87979 0.0
H423 H 0.54554 0.25299 0.88249 0.0
Tb424 Tb 0.0772 0.86522 0.72823 0.0
C425 C 0.80263 0.83416 0.77021 0.0
N426 N 0.8349 0.86634 0.7693 0.0
C427 C 0.74348 0.89641 0.7505 0.0
C428 C 0.73986 0.83162 0.7603 0.0
C429 C 0.80588 0.89752 0.76033 0.0
C430 C 0.71047 0.86327 0.75024 0.0
C431 C 0.80157 0.76957 0.78169 0.0
C432 C 0.8331 0.80358 0.78091 0.0
C433 C 0.73932 0.76676 0.77142 0.0
C434 C 0.70849 0.79772 0.76084 0.0
Tb435 Tb 0.93579 0.86474 0.78615 0.0
N436 N 0.89362 0.80725 0.79048 0.0
C437 C 0.83336 0.73945 0.79295 0.0
C438 C 0.92355 0.77828 0.80277 0.0
C439 C 0.89434 0.74393 0.80379 0.0
H440 H 0.82991 0.92353 0.7613 0.0
H441 H 0.91863 0.721 0.81326 0.0
H442 H 0.18093 0.80174 0.75027 0.0
H443 H 0.12087 0.00423 0.69606 0.0
H444 H 0.9692 0.78135 0.81249 0.0
H445 H 0.81082 0.71282 0.79389 0.0
H446 H 0.06141 0.94577 0.69843 0.0
H447 H 0.72073 0.92118 0.74333 0.0
H448 H 0.71442 0.74081 0.77179 0.0
H449 H 0.66031 0.79518 0.75322 0.0
H450 H 0.28329 0.8008 0.7749 0.0
H451 H 0.66216 0.86251 0.74258 0.0
H452 H 0.22289 0.01056 0.72142 0.0
N453 N 0.17547 0.85977 0.74866 0.0
C454 C 0.20948 0.89129 0.75069 0.0
C455 C 0.2625 0.82658 0.76876 0.0
C456 C 0.27006 0.89196 0.76319 0.0
C457 C 0.20329 0.82731 0.75554 0.0
C458 C 0.29548 0.85918 0.77317 0.0
N459 N 0.12775 0.92031 0.72573 0.0
C460 C 0.10551 0.94861 0.70972 0.0
C461 C 0.22119 0.95505 0.73744 0.0
C462 C 0.18562 0.92241 0.73809 0.0
C463 C 0.19693 0.98499 0.72252 0.0
C464 C 0.13928 0.98155 0.70822 0.0
H465 H 0.34183 0.85849 0.78295 0.0
H466 H 0.3507 0.92609 0.7739 0.0
H467 H 0.30784 0.98138 0.75128 0.0
O468 O 0.05715 0.87004 0.6849 0.0
O469 O 0.06594 0.91147 0.7569 0.0
O470 O 0.03156 0.88261 0.79659 0.0
O471 O 0.14414 0.84626 0.69913 0.0
O472 O 0.98474 0.88784 0.71732 0.0
O473 O 0.94231 0.91265 0.75787 0.0
O474 O 0.90656 0.85508 0.82799 0.0
O475 O 0.92018 0.83967 0.74453 0.0
O476 O 0.01726 0.81642 0.73179 0.0
O477 O 0.90402 0.90927 0.80996 0.0
O478 O 0.02345 0.83621 0.79785 0.0
O479 O 0.07286 0.81718 0.7566 0.0
C480 C 0.0608 0.90989 0.78435 0.0
C481 C 0.10731 0.82914 0.65416 0.0
C482 C 0.12639 0.81756 0.60424 0.0
C483 C 0.10999 0.78066 0.60883 0.0
C484 C 0.09085 0.79242 0.65839 0.0
C485 C 0.092 0.76833 0.63569 0.0
C486 C 0.12397 0.84163 0.62717 0.0
C487 C 0.95216 0.91316 0.73032 0.0
C488 C 0.11002 0.85514 0.67743 0.0
C489 C 0.30438 0.92494 0.76411 0.0
C490 C 0.28008 0.95641 0.75116 0.0
C491 C 0.95495 0.81495 0.73201 0.0
C492 C 0.8369 0.89695 0.84952 0.0
C493 C 0.79032 0.90146 0.89657 0.0
C494 C 0.73619 0.91727 0.88452 0.0
C495 C 0.78222 0.91251 0.83788 0.0
C496 C 0.8403 0.891 0.87885 0.0
C497 C 0.73205 0.92242 0.85535 0.0
C498 C 0.06311 0.81502 0.7841 0.0
C499 C 0.89311 0.88914 0.83225 0.0
H500 H 0.11227 0.76113 0.59186 0.0
H501 H 0.07779 0.78243 0.67915 0.0
H502 H 0.07978 0.73989 0.63898 0.0
H503 H 0.13536 0.87029 0.62419 0.0
H504 H 0.69699 0.92548 0.89768 0.0
H505 H 0.77862 0.9176 0.81547 0.0
H506 H 0.88282 0.87943 0.888 0.0
H507 H 0.69009 0.93458 0.84628 0.0
Tb508 Tb 0.4233 0.63856 0.23006 0.0
C509 C 0.69541 0.67522 0.26694 0.0
N510 N 0.6678 0.64185 0.26456 0.0
C511 C 0.75818 0.61999 0.23945 0.0
C512 C 0.75459 0.68285 0.25451 0.0
C513 C 0.69911 0.61389 0.252 0.0
C514 C 0.78572 0.65476 0.24039 0.0
C515 C 0.69109 0.73649 0.28541 0.0
C516 C 0.66387 0.70157 0.28205 0.0
C517 C 0.74916 0.74478 0.2723 0.0
C518 C 0.78091 0.71798 0.25692 0.0
Tb519 Tb 0.57087 0.63468 0.28494 0.0
N520 N 0.60788 0.69238 0.29443 0.0
C521 C 0.65992 0.76166 0.30241 0.0
C522 C 0.58054 0.71578 0.31303 0.0
C523 C 0.605 0.751 0.3167 0.0
H524 H 0.67877 0.58682 0.25172 0.0
H525 H 0.58215 0.76965 0.33099 0.0
H526 H 0.3262 0.6945 0.26591 0.0
H527 H 0.38201 0.50439 0.18824 0.0
H528 H 0.5411 0.70719 0.32582 0.0
H529 H 0.67913 0.78883 0.30551 0.0
H530 H 0.43881 0.56314 0.19347 0.0
H531 H 0.78252 0.59787 0.22917 0.0
H532 H 0.77055 0.77158 0.27444 0.0
H533 H 0.82617 0.72453 0.24735 0.0
H534 H 0.22913 0.68862 0.29376 0.0
H535 H 0.83146 0.65943 0.23064 0.0
H536 H 0.28342 0.49268 0.2151 0.0
N537 N 0.33112 0.63797 0.25585 0.0
C538 C 0.29732 0.6062 0.25481 0.0
C539 C 0.24858 0.66493 0.28348 0.0
C540 C 0.23948 0.60203 0.26935 0.0
C541 C 0.30526 0.66786 0.2684 0.0
C542 C 0.21612 0.63167 0.28443 0.0
N543 N 0.3747 0.58356 0.22395 0.0
C544 C 0.39649 0.558 0.20562 0.0
C545 C 0.28487 0.54543 0.2354 0.0
C546 C 0.31914 0.57836 0.23786 0.0
C547 C 0.30834 0.51839 0.21758 0.0
C548 C 0.36411 0.52486 0.20244 0.0
H549 H 0.17178 0.62963 0.29582 0.0
H550 H 0.16151 0.56513 0.27878 0.0
H551 H 0.20159 0.51546 0.24921 0.0
O552 O 0.42772 0.6416 0.18489 0.0
O553 O 0.43636 0.59083 0.2576 0.0
O554 O 0.47499 0.61857 0.2965 0.0
O555 O 0.34892 0.66337 0.20897 0.0
O556 O 0.5098 0.61175 0.21513 0.0
O557 O 0.56078 0.58879 0.2553 0.0
O558 O 0.61221 0.63659 0.32554 0.0
O559 O 0.58372 0.6569 0.24226 0.0
O560 O 0.48972 0.68482 0.23125 0.0
O561 O 0.60314 0.58528 0.30281 0.0
O562 O 0.48431 0.66272 0.29853 0.0
O563 O 0.43605 0.68565 0.25819 0.0
C564 C 0.4464 0.59091 0.28481 0.0
C565 C 0.34114 0.67249 0.15901 0.0
C566 C 0.32627 0.67593 0.1081 0.0
C567 C 0.27843 0.70188 0.11208 0.0
C568 C 0.29323 0.69859 0.16236 0.0
C569 C 0.26207 0.71305 0.13903 0.0
C570 C 0.3574 0.66094 0.13173 0.0
C571 C 0.54756 0.58808 0.22794 0.0
C572 C 0.37356 0.65838 0.18432 0.0
C573 C 0.2058 0.5689 0.26759 0.0
C574 C 0.22846 0.54066 0.25066 0.0
C575 C 0.55182 0.68359 0.23065 0.0
C576 C 0.65084 0.58207 0.34965 0.0
C577 C 0.67453 0.57631 0.40001 0.0
C578 C 0.7016 0.54204 0.39483 0.0
C579 C 0.67784 0.54772 0.34517 0.0
C580 C 0.64999 0.59659 0.37714 0.0
C581 C 0.70343 0.52801 0.36762 0.0
C582 C 0.44926 0.68721 0.28535 0.0
C583 C 0.62124 0.60158 0.32577 0.0
H584 H 0.25335 0.71345 0.09423 0.0
H585 H 0.27991 0.7081 0.18308 0.0
H586 H 0.22526 0.7331 0.14185 0.0
H587 H 0.39443 0.64098 0.12886 0.0
H588 H 0.72175 0.52611 0.41191 0.0
H589 H 0.67912 0.53604 0.32427 0.0
H590 H 0.62845 0.62287 0.3809 0.0
H591 H 0.72438 0.50159 0.36396 0.0
C592 C 0.13342 0.04386 0.34881 0.0
C593 C 0.15959 0.01227 0.33714 0.0
H594 H 0.08441 0.09376 0.34145 0.0
C595 C 0.15562 0.00719 0.30779 0.0
H596 H 0.13484 0.04844 0.37133 0.0
C597 C 0.12607 0.03322 0.29055 0.0
C598 C 0.10003 0.06476 0.30238 0.0
H599 H 0.17584 0.98327 0.29811 0.0
H600 H 0.12276 0.02839 0.2681 0.0
C601 C 0.1041 0.06975 0.33166 0.0
C602 C 0.39251 0.5012 0.8002 0.0
C603 C 0.39059 0.50082 0.82984 0.0
H604 H 0.41511 0.47204 0.76271 0.0
C605 C 0.40307 0.46802 0.84429 0.0
H606 H 0.38192 0.52585 0.78843 0.0
C607 C 0.42099 0.43694 0.82947 0.0
C608 C 0.42707 0.43816 0.79999 0.0
H609 H 0.40229 0.46685 0.8671 0.0
H610 H 0.43292 0.41243 0.84118 0.0
C611 C 0.41079 0.47024 0.78543 0.0
C612 C 0.58501 0.49624 0.68931 0.0
C613 C 0.64396 0.49022 0.67648 0.0
H614 H 0.51139 0.4745 0.71576 0.0
C615 C 0.67402 0.45651 0.68081 0.0
H616 H 0.56044 0.5218 0.68617 0.0
C617 C 0.64578 0.42944 0.69752 0.0
C618 C 0.58708 0.43552 0.71042 0.0
H619 H 0.71979 0.45116 0.67149 0.0
H620 H 0.6698 0.40363 0.70019 0.0
C621 C 0.55672 0.46908 0.70604 0.0
C622 C 0.95302 0.99569 0.19755 0.0
C623 C 0.89085 0.99466 0.18696 0.0
H624 H 0.02307 0.02521 0.22055 0.0
C625 C 0.85114 0.02466 0.19195 0.0
H626 H 0.98545 0.97349 0.19381 0.0
C627 C 0.87356 0.05507 0.20688 0.0
C628 C 0.93608 0.05603 0.21705 0.0
H629 H 0.80279 0.02464 0.18436 0.0
H630 H 0.84235 0.078 0.21001 0.0
C631 C 0.97504 0.02574 0.21256 0.0
C632 C 0.8902 0.00592 0.70796 0.0
C633 C 0.89325 0.00346 0.67839 0.0
H634 H 0.90663 0.97934 0.74773 0.0
C635 C 0.91113 0.9703 0.66627 0.0
H636 H 0.8771 0.03127 0.71793 0.0
C637 C 0.92778 0.94067 0.68326 0.0
C638 C 0.92741 0.94352 0.71284 0.0
H639 H 0.91303 0.96739 0.64358 0.0
H640 H 0.94237 0.91574 0.6731 0.0
C641 C 0.90721 0.97623 0.72504 0.0
C642 C 0.60839 0.53609 0.1646 0.0
C643 C 0.63899 0.50629 0.17741 0.0
H644 H 0.55606 0.58528 0.17038 0.0
C645 C 0.63754 0.50313 0.20699 0.0
H646 H 0.60924 0.53968 0.14193 0.0
C647 C 0.60739 0.52943 0.22334 0.0
C648 C 0.57785 0.55957 0.21055 0.0
H649 H 0.65972 0.48025 0.21757 0.0
H650 H 0.60746 0.52613 0.24605 0.0
C651 C 0.57818 0.56238 0.18096 0.0
C652 C 0.42746 0.5271 0.34739 0.0
C653 C 0.40269 0.49565 0.3346 0.0
H654 H 0.46011 0.58205 0.34173 0.0
C655 C 0.3917 0.49588 0.30541 0.0
H656 H 0.43616 0.52764 0.36989 0.0
C657 C 0.40608 0.52679 0.28925 0.0
C658 C 0.43066 0.55833 0.30199 0.0
H659 H 0.37365 0.47178 0.29494 0.0
H660 H 0.39897 0.52562 0.26671 0.0
C661 C 0.44104 0.55822 0.33126 0.0
C662 C 0.13021 0.95964 0.84697 0.0
C663 C 0.1535 0.99173 0.83423 0.0
H664 H 0.08338 0.90825 0.84108 0.0
C665 C 0.14375 0.99747 0.8053 0.0
H666 H 0.13734 0.95462 0.86928 0.0
C667 C 0.11164 0.9714 0.78933 0.0
C668 C 0.09068 0.93855 0.80173 0.0
H669 H 0.16049 0.02227 0.79511 0.0
H670 H 0.10321 0.97704 0.76728 0.0
C671 C 0.0994 0.93316 0.83083 0.0
C672 C 0.14455 0.07095 0.03129 0.0
C673 C 0.19357 0.09569 0.02487 0.0
H674 H 0.08503 0.04755 0.06311 0.0
C675 C 0.21871 0.1175 0.0464 0.0
H676 H 0.12374 0.05419 0.01496 0.0
C677 C 0.19736 0.11327 0.07415 0.0
C678 C 0.14994 0.08741 0.08084 0.0
H679 H 0.25686 0.13661 0.042 0.0
H680 H 0.21989 0.12924 0.09049 0.0
C681 C 0.12272 0.06701 0.05891 0.0
C682 C 0.39886 0.36366 0.53977 0.0
C683 C 0.35177 0.38119 0.52373 0.0
H684 H 0.44636 0.35948 0.57955 0.0
C685 C 0.31466 0.40805 0.53669 0.0
H686 H 0.42932 0.34342 0.53043 0.0
C687 C 0.32551 0.41777 0.56473 0.0
C688 C 0.37305 0.40049 0.58051 0.0
H689 H 0.27728 0.42169 0.52518 0.0
H690 H 0.29644 0.43863 0.57417 0.0
C691 C 0.40907 0.37304 0.56788 0.0
C692 C 0.6693 0.3831 0.96948 0.0
C693 C 0.70317 0.35956 0.98758 0.0
H694 H 0.62327 0.38991 0.92932 0.0
C695 C 0.71959 0.3248 0.97756 0.0
H696 H 0.6553 0.40995 0.97639 0.0
C697 C 0.70019 0.31326 0.95091 0.0
C698 C 0.66499 0.33639 0.93328 0.0
H699 H 0.7473 0.30624 0.99035 0.0
H700 H 0.71222 0.28601 0.9441 0.0
C701 C 0.65079 0.3717 0.94251 0.0
C702 C 0.83658 0.12648 0.46928 0.0
C703 C 0.81625 0.15431 0.48733 0.0
H704 H 0.84389 0.10766 0.42668 0.0
C705 C 0.78606 0.18495 0.47556 0.0
H706 H 0.86057 0.10272 0.47765 0.0
C707 C 0.7764 0.18771 0.44646 0.0
C708 C 0.79718 0.16006 0.4284 0.0
H709 H 0.76951 0.20677 0.48889 0.0
H710 H 0.75354 0.21182 0.43803 0.0
C711 C 0.82752 0.12944 0.4401 0.0
C712 C 0.78794 0.92243 0.97477 0.0
C713 C 0.80061 0.88814 0.98688 0.0
H714 H 0.77425 0.95336 0.9367 0.0
C715 C 0.81116 0.85831 0.96902 0.0
H716 H 0.77964 0.94588 0.988 0.0
C717 C 0.80905 0.86272 0.93967 0.0
C718 C 0.79505 0.89687 0.92763 0.0
H719 H 0.82174 0.83165 0.97778 0.0
H720 H 0.81725 0.83932 0.92637 0.0
C721 C 0.7846 0.92667 0.94547 0.0
C722 C 0.7016 0.63471 0.46488 0.0
C723 C 0.6849 0.61015 0.48671 0.0
H724 H 0.71072 0.64346 0.42018 0.0
C725 C 0.65808 0.57628 0.47939 0.0
H726 H 0.72169 0.66119 0.46972 0.0
C727 C 0.65169 0.56632 0.45119 0.0
C728 C 0.6719 0.58988 0.42946 0.0
H729 H 0.64527 0.55641 0.49543 0.0
H730 H 0.63302 0.53947 0.44637 0.0
C731 C 0.69488 0.62471 0.43651 0.0
C732 C 0.35615 0.68473 0.03031 0.0
C733 C 0.34941 0.64853 0.02133 0.0
H734 H 0.35591 0.72148 0.06504 0.0
C735 C 0.34399 0.62044 0.04155 0.0
H736 H 0.36198 0.70676 0.01515 0.0
C737 C 0.34053 0.62893 0.0703 0.0
C738 C 0.34274 0.66552 0.07897 0.0
H739 H 0.33919 0.59229 0.03504 0.0
H740 H 0.33253 0.60721 0.08553 0.0
C741 C 0.35299 0.69312 0.05881 0.0
C742 C 0.21728 0.8698 0.54757 0.0
C743 C 0.19205 0.85526 0.5226 0.0
H744 H 0.21818 0.86876 0.5925 0.0
C745 C 0.14352 0.82891 0.52461 0.0
H746 H 0.25398 0.89056 0.54685 0.0
C747 C 0.1217 0.8169 0.551 0.0
C748 C 0.14802 0.83087 0.576 0.0
H749 H 0.12331 0.81695 0.50582 0.0
H750 H 0.08412 0.79668 0.55176 0.0
C751 C 0.19595 0.85761 0.57385 0.0
C752 C 0.15004 0.26811 0.30908 0.0
C753 C 0.17266 0.25726 0.33568 0.0
H754 H 0.09413 0.25399 0.27313 0.0
C755 C 0.15452 0.22306 0.34666 0.0
H756 H 0.16255 0.29457 0.30032 0.0
C757 C 0.11651 0.19952 0.33079 0.0
C758 C 0.09581 0.20994 0.30377 0.0
H759 H 0.17157 0.214 0.36707 0.0
H760 H 0.10491 0.1728 0.33931 0.0
C761 C 0.11137 0.24482 0.29345 0.0
C762 C 0.40589 0.26474 0.85446 0.0
C763 C 0.3856 0.2314 0.84299 0.0
H764 H 0.44593 0.31772 0.84637 0.0
C765 C 0.39192 0.22583 0.81389 0.0
H766 H 0.40186 0.26966 0.87687 0.0
C767 C 0.41836 0.25286 0.79665 0.0
C768 C 0.43763 0.28648 0.80788 0.0
H769 H 0.37815 0.20009 0.80454 0.0
H770 H 0.42495 0.24699 0.77459 0.0
C771 C 0.43118 0.29217 0.83702 0.0
C772 C 0.64614 0.26321 0.67026 0.0
C773 C 0.68558 0.23754 0.68343 0.0
H774 H 0.57912 0.30592 0.67535 0.0
C775 C 0.68423 0.23429 0.71301 0.0
H776 H 0.64651 0.26669 0.64757 0.0
C777 C 0.64542 0.25689 0.72907 0.0
C778 C 0.60754 0.28337 0.71589 0.0
H779 H 0.71336 0.21434 0.72375 0.0
H780 H 0.64586 0.25398 0.75181 0.0
C781 C 0.60759 0.28581 0.68628 0.0
C782 C 0.86557 0.23956 0.17295 0.0
C783 C 0.87503 0.2759 0.1812 0.0
H784 H 0.88293 0.18309 0.18236 0.0
C785 C 0.90627 0.28312 0.20673 0.0
H786 H 0.84185 0.23342 0.15328 0.0
C787 C 0.9281 0.25443 0.22368 0.0
C788 C 0.92066 0.21819 0.21488 0.0
H789 H 0.91415 0.31098 0.21344 0.0
H790 H 0.95299 0.26057 0.24307 0.0
C791 C 0.8891 0.21092 0.18947 0.0
C792 C 0.92719 0.72344 0.69832 0.0
C793 C 0.87328 0.72977 0.68148 0.0
H794 H 0.9953 0.74548 0.72707 0.0
C795 C 0.84312 0.76387 0.68356 0.0
H796 H 0.95048 0.69723 0.69845 0.0
C797 C 0.86783 0.7912 0.70105 0.0
C798 C 0.92394 0.78526 0.71624 0.0
H799 H 0.80174 0.77005 0.671 0.0
H800 H 0.8447 0.81747 0.7017 0.0
C801 C 0.9527 0.75098 0.71507 0.0
C802 C 0.63272 0.76955 0.20477 0.0
C803 C 0.65379 0.7591 0.17783 0.0
H804 H 0.58301 0.75368 0.2425 0.0
C805 C 0.63927 0.72361 0.16844 0.0
H806 H 0.6439 0.7963 0.21301 0.0
C807 C 0.60606 0.69906 0.18572 0.0
C808 C 0.58561 0.7097 0.21246 0.0
H809 H 0.65349 0.7147 0.1477 0.0
H810 H 0.59608 0.67178 0.17817 0.0
C811 C 0.59842 0.74514 0.22181 0.0
C812 C 0.38823 0.74056 0.34755 0.0
C813 C 0.37323 0.77425 0.33496 0.0
H814 H 0.42359 0.68657 0.34168 0.0
C815 C 0.38044 0.77839 0.30562 0.0
H816 H 0.38379 0.73654 0.3701 0.0
C817 C 0.40415 0.74992 0.28941 0.0
C818 C 0.42097 0.71669 0.30218 0.0
H819 H 0.3683 0.80379 0.2952 0.0
H820 H 0.41045 0.75416 0.26696 0.0
C821 C 0.41168 0.71206 0.33131 0.0
C822 C 0.1592 0.73185 0.80446 0.0
C823 C 0.1749 0.73965 0.83261 0.0
H824 H 0.11103 0.74953 0.76699 0.0
C825 C 0.15092 0.77146 0.84491 0.0
H826 H 0.17725 0.70765 0.79436 0.0
C827 C 0.11356 0.79544 0.82923 0.0
C828 C 0.09966 0.78828 0.80084 0.0
H829 H 0.16142 0.77795 0.86666 0.0
H830 H 0.09685 0.82007 0.83919 0.0
C831 C 0.12187 0.75595 0.78872 0.0
loop_
_geom_bond_atom_site_label_1
_geom_bond_atom_site_label_2
_geom_bond_distance
_geom_bond_site_symmetry_2
_ccdc_geom_bond_type
P0 O11 1.490 . S
P0 C14 1.812 . S
P0 C20 1.803 . S
P0 C26 1.819 . S
H1 C15 0.941 . S
H2 C16 0.939 . S
H3 C18 0.940 . S
H4 C19 0.940 . S
H5 C21 0.939 . S
H6 C22 0.942 . S
H7 C24 0.940 . S
H8 C25 0.939 . S
H9 C27 0.941 . S
H10 C31 0.939 . S
O11 P0 1.490 . S
H12 C28 0.939 . S
H13 C30 0.940 . S
C14 P0 1.812 . S
C14 C15 1.389 . S
C14 C19 1.391 . S
C15 H1 0.941 . S
C15 C14 1.389 . S
C15 C16 1.397 . S
C16 H2 0.939 . S
C16 C15 1.397 . S
C16 C17 1.378 . S
C17 C16 1.378 . S
C17 C18 1.378 . S
C18 H3 0.940 . S
C18 C17 1.378 . S
C18 C19 1.396 . S
C19 H4 0.940 . S
C19 C14 1.391 . S
C19 C18 1.396 . S
C20 P0 1.803 . S
C20 C21 1.378 . S
C20 C25 1.400 . S
C21 H5 0.939 . S
C21 C20 1.378 . S
C21 C22 1.361 . S
C22 H6 0.942 . S
C22 C21 1.361 . S
C22 C23 1.369 . S
C23 C22 1.369 . S
C23 C24 1.404 . S
C24 H7 0.940 . S
C24 C23 1.404 . S
C24 C25 1.389 . S
C25 H8 0.939 . S
C25 C20 1.400 . S
C25 C24 1.389 . S
C26 P0 1.819 . S
C26 C27 1.391 . S
C26 C31 1.391 . S
C27 H9 0.941 . S
C27 C26 1.391 . S
C27 C28 1.396 . S
C28 H12 0.939 . S
C28 C27 1.396 . S
C28 C29 1.397 . S
C29 C28 1.397 . S
C29 C30 1.385 . S
C30 H13 0.940 . S
C30 C29 1.385 . S
C30 C31 1.388 . S
C31 H10 0.939 . S
C31 C26 1.391 . S
C31 C30 1.388 . S
P32 O43 1.490 . S
P32 C46 1.812 . S
P32 C52 1.803 . S
P32 C58 1.819 . S
H33 C47 0.941 . S
H34 C48 0.939 1_565 S
H35 C50 0.940 . S
H36 C51 0.940 . S
H37 C53 0.939 . S
H38 C54 0.942 . S
H39 C56 0.940 . S
H40 C57 0.939 . S
H41 C59 0.941 . S
H42 C63 0.939 . S
O43 P32 1.490 . S
H44 C60 0.939 . S
H45 C62 0.940 . S
C46 P32 1.812 . S
C46 C47 1.389 . S
C46 C51 1.391 . S
C47 H33 0.941 . S
C47 C46 1.389 . S
C47 C48 1.397 . S
C48 H34 0.939 1_545 S
C48 C47 1.397 . S
C48 C49 1.378 . S
C49 C48 1.378 . S
C49 C50 1.378 . S
C50 H35 0.940 . S
C50 C49 1.378 . S
C50 C51 1.396 . S
C51 H36 0.940 . S
C51 C46 1.391 . S
C51 C50 1.396 . S
C52 P32 1.803 . S
C52 C53 1.378 . S
C52 C57 1.400 . S
C53 H37 0.939 . S
C53 C52 1.378 . S
C53 C54 1.361 . S
C54 H38 0.942 . S
C54 C53 1.361 . S
C54 C55 1.369 . S
C55 C54 1.369 . S
C55 C56 1.404 . S
C56 H39 0.940 . S
C56 C55 1.404 . S
C56 C57 1.389 . S
C57 H40 0.939 . S
C57 C52 1.400 . S
C57 C56 1.389 . S
C58 P32 1.819 . S
C58 C59 1.391 . S
C58 C63 1.391 . S
C59 H41 0.941 . S
C59 C58 1.391 . S
C59 C60 1.396 . S
C60 H44 0.939 . S
C60 C59 1.396 . S
C60 C61 1.397 . S
C61 C60 1.397 . S
C61 C62 1.385 . S
C62 H45 0.940 . S
C62 C61 1.385 . S
C62 C63 1.388 . S
C63 H42 0.939 . S
C63 C58 1.391 . S
C63 C62 1.388 . S
P64 O75 1.490 . S
P64 C78 1.812 . S
P64 C84 1.803 . S
P64 C90 1.819 . S
H65 C79 0.941 . S
H66 C80 0.939 . S
H67 C82 0.940 . S
H68 C83 0.940 . S
H69 C85 0.939 . S
H70 C86 0.942 . S
H71 C88 0.940 . S
H72 C89 0.939 . S
H73 C91 0.941 . S
H74 C95 0.939 . S
O75 P64 1.490 . S
H76 C92 0.939 . S
H77 C94 0.940 . S
C78 P64 1.812 . S
C78 C79 1.389 . S
C78 C83 1.391 . S
C79 H65 0.941 . S
C79 C78 1.389 . S
C79 C80 1.397 . S
C80 H66 0.939 . S
C80 C79 1.397 . S
C80 C81 1.378 . S
C81 C80 1.378 . S
C81 C82 1.378 . S
C82 H67 0.940 . S
C82 C81 1.378 . S
C82 C83 1.396 . S
C83 H68 0.940 . S
C83 C78 1.391 . S
C83 C82 1.396 . S
C84 P64 1.803 . S
C84 C85 1.378 . S
C84 C89 1.400 . S
C85 H69 0.939 . S
C85 C84 1.378 . S
C85 C86 1.361 . S
C86 H70 0.942 . S
C86 C85 1.361 . S
C86 C87 1.369 . S
C87 C86 1.369 . S
C87 C88 1.404 . S
C88 H71 0.940 . S
C88 C87 1.404 . S
C88 C89 1.389 . S
C89 H72 0.939 . S
C89 C84 1.400 . S
C89 C88 1.389 . S
C90 P64 1.819 . S
C90 C91 1.391 . S
C90 C95 1.391 . S
C91 H73 0.941 . S
C91 C90 1.391 . S
C91 C92 1.396 . S
C92 H76 0.939 . S
C92 C91 1.396 . S
C92 C93 1.397 . S
C93 C92 1.397 . S
C93 C94 1.385 . S
C94 H77 0.940 . S
C94 C93 1.385 . S
C94 C95 1.388 . S
C95 H74 0.939 . S
C95 C90 1.391 . S
C95 C94 1.388 . S
P96 O107 1.490 . S
P96 C110 1.812 . S
P96 C116 1.803 . S
P96 C122 1.819 . S
H97 C111 0.941 . S
H98 C112 0.939 . S
H99 C114 0.940 . S
H100 C115 0.940 . S
H101 C117 0.939 . S
H102 C118 0.942 . S
H103 C120 0.940 . S
H104 C121 0.939 . S
H105 C123 0.941 . S
H106 C127 0.939 . S
O107 P96 1.490 . S
H108 C124 0.939 . S
H109 C126 0.940 . S
C110 P96 1.812 . S
C110 C111 1.389 . S
C110 C115 1.391 . S
C111 H97 0.941 . S
C111 C110 1.389 . S
C111 C112 1.397 . S
C112 H98 0.939 . S
C112 C111 1.397 . S
C112 C113 1.378 . S
C113 C112 1.378 . S
C113 C114 1.378 . S
C114 H99 0.940 . S
C114 C113 1.378 . S
C114 C115 1.396 . S
C115 H100 0.940 . S
C115 C110 1.391 . S
C115 C114 1.396 . S
C116 P96 1.803 . S
C116 C117 1.378 . S
C116 C121 1.400 . S
C117 H101 0.939 . S
C117 C116 1.378 . S
C117 C118 1.361 . S
C118 H102 0.942 . S
C118 C117 1.361 . S
C118 C119 1.369 . S
C119 C118 1.369 . S
C119 C120 1.404 . S
C120 H103 0.940 . S
C120 C119 1.404 . S
C120 C121 1.389 . S
C121 H104 0.939 . S
C121 C116 1.400 . S
C121 C120 1.389 . S
C122 P96 1.819 . S
C122 C123 1.391 . S
C122 C127 1.391 . S
C123 H105 0.941 . S
C123 C122 1.391 . S
C123 C124 1.396 . S
C124 H108 0.939 . S
C124 C123 1.396 . S
C124 C125 1.397 . S
C125 C124 1.397 . S
C125 C126 1.385 . S
C126 H109 0.940 . S
C126 C125 1.385 . S
C126 C127 1.388 . S
C127 H106 0.939 . S
C127 C122 1.391 . S
C127 C126 1.388 . S
P128 O139 1.490 . S
P128 C142 1.812 . S
P128 C148 1.803 . S
P128 C154 1.819 . S
H129 C143 0.941 . S
H130 C144 0.939 . S
H131 C146 0.940 . S
H132 C147 0.940 . S
H133 C149 0.939 . S
H134 C150 0.942 . S
H135 C152 0.940 . S
H136 C153 0.939 . S
H137 C155 0.941 . S
H138 C159 0.939 . S
O139 P128 1.490 . S
H140 C156 0.939 . S
H141 C158 0.940 . S
C142 P128 1.812 . S
C142 C143 1.389 . S
C142 C147 1.391 . S
C143 H129 0.941 . S
C143 C142 1.389 . S
C143 C144 1.397 . S
C144 H130 0.939 . S
C144 C143 1.397 . S
C144 C145 1.378 . S
C145 C144 1.378 . S
C145 C146 1.378 . S
C146 H131 0.940 . S
C146 C145 1.378 . S
C146 C147 1.396 . S
C147 H132 0.940 . S
C147 C142 1.391 . S
C147 C146 1.396 . S
C148 P128 1.803 . S
C148 C149 1.378 . S
C148 C153 1.400 . S
C149 H133 0.939 . S
C149 C148 1.378 . S
C149 C150 1.361 . S
C150 H134 0.942 . S
C150 C149 1.361 . S
C150 C151 1.369 . S
C151 C150 1.369 . S
C151 C152 1.404 . S
C152 H135 0.940 . S
C152 C151 1.404 . S
C152 C153 1.389 . S
C153 H136 0.939 . S
C153 C148 1.400 . S
C153 C152 1.389 . S
C154 P128 1.819 . S
C154 C155 1.391 . S
C154 C159 1.391 . S
C155 H137 0.941 . S
C155 C154 1.391 . S
C155 C156 1.396 . S
C156 H140 0.939 . S
C156 C155 1.396 . S
C156 C157 1.397 . S
C157 C156 1.397 . S
C157 C158 1.385 . S
C158 H141 0.940 . S
C158 C157 1.385 . S
C158 C159 1.388 . S
C159 H138 0.939 . S
C159 C154 1.391 . S
C159 C158 1.388 . S
P160 O171 1.490 . S
P160 C174 1.812 . S
P160 C180 1.803 . S
P160 C186 1.819 . S
H161 C175 0.941 . S
H162 C176 0.939 . S
H163 C178 0.940 . S
H164 C179 0.940 . S
H165 C181 0.939 . S
H166 C182 0.942 . S
H167 C184 0.940 . S
H168 C185 0.939 . S
H169 C187 0.941 . S
H170 C191 0.939 . S
O171 P160 1.490 . S
H172 C188 0.939 . S
H173 C190 0.940 . S
C174 P160 1.812 . S
C174 C175 1.389 . S
C174 C179 1.391 . S
C175 H161 0.941 . S
C175 C174 1.389 . S
C175 C176 1.397 . S
C176 H162 0.939 . S
C176 C175 1.397 . S
C176 C177 1.378 . S
C177 C176 1.378 . S
C177 C178 1.378 . S
C178 H163 0.940 . S
C178 C177 1.378 . S
C178 C179 1.396 . S
C179 H164 0.940 . S
C179 C174 1.391 . S
C179 C178 1.396 . S
C180 P160 1.803 . S
C180 C181 1.378 . S
C180 C185 1.400 . S
C181 H165 0.939 . S
C181 C180 1.378 . S
C181 C182 1.361 . S
C182 H166 0.942 . S
C182 C181 1.361 . S
C182 C183 1.369 . S
C183 C182 1.369 . S
C183 C184 1.404 . S
C184 H167 0.940 . S
C184 C183 1.404 . S
C184 C185 1.389 . S
C185 H168 0.939 . S
C185 C180 1.400 . S
C185 C184 1.389 . S
C186 P160 1.819 . S
C186 C187 1.391 . S
C186 C191 1.391 . S
C187 H169 0.941 . S
C187 C186 1.391 . S
C187 C188 1.396 . S
C188 H172 0.939 . S
C188 C187 1.396 . S
C188 C189 1.397 . S
C189 C188 1.397 . S
C189 C190 1.385 . S
C190 H173 0.940 . S
C190 C189 1.385 . S
C190 C191 1.388 . S
C191 H170 0.939 . S
C191 C186 1.391 . S
C191 C190 1.388 . S
P192 O203 1.490 . S
P192 C206 1.812 . S
P192 C212 1.803 . S
P192 C218 1.819 . S
H193 C207 0.941 . S
H194 C208 0.939 . S
H195 C210 0.940 . S
H196 C211 0.940 . S
H197 C213 0.939 . S
H198 C214 0.942 . S
H199 C216 0.940 . S
H200 C217 0.939 . S
H201 C219 0.941 . S
H202 C223 0.939 . S
O203 P192 1.490 . S
H204 C220 0.939 1_545 S
H205 C222 0.940 . S
C206 P192 1.812 . S
C206 C207 1.389 . S
C206 C211 1.391 . S
C207 H193 0.941 . S
C207 C206 1.389 . S
C207 C208 1.397 . S
C208 H194 0.939 . S
C208 C207 1.397 . S
C208 C209 1.378 . S
C209 C208 1.378 . S
C209 C210 1.378 . S
C210 H195 0.940 . S
C210 C209 1.378 . S
C210 C211 1.396 . S
C211 H196 0.940 . S
C211 C206 1.391 . S
C211 C210 1.396 . S
C212 P192 1.803 . S
C212 C213 1.378 . S
C212 C217 1.400 . S
C213 H197 0.939 . S
C213 C212 1.378 . S
C213 C214 1.361 . S
C214 H198 0.942 . S
C214 C213 1.361 . S
C214 C215 1.369 . S
C215 C214 1.369 . S
C215 C216 1.404 . S
C216 H199 0.940 . S
C216 C215 1.404 . S
C216 C217 1.389 . S
C217 H200 0.939 . S
C217 C212 1.400 . S
C217 C216 1.389 . S
C218 P192 1.819 . S
C218 C219 1.391 . S
C218 C223 1.391 . S
C219 H201 0.941 . S
C219 C218 1.391 . S
C219 C220 1.396 . S
C220 H204 0.939 1_565 S
C220 C219 1.396 . S
C220 C221 1.397 . S
C221 C220 1.397 . S
C221 C222 1.385 . S
C222 H205 0.940 . S
C222 C221 1.385 . S
C222 C223 1.388 . S
C223 H202 0.939 . S
C223 C218 1.391 . S
C223 C222 1.388 . S
P224 O235 1.490 . S
P224 C238 1.812 . S
P224 C244 1.803 . S
P224 C250 1.819 . S
H225 C239 0.941 . S
H226 C240 0.939 . S
H227 C242 0.940 . S
H228 C243 0.940 . S
H229 C245 0.939 . S
H230 C246 0.942 . S
H231 C248 0.940 . S
H232 C249 0.939 . S
H233 C251 0.941 . S
H234 C255 0.939 . S
O235 P224 1.490 . S
H236 C252 0.939 . S
H237 C254 0.940 . S
C238 P224 1.812 . S
C238 C239 1.389 . S
C238 C243 1.391 . S
C239 H225 0.941 . S
C239 C238 1.389 . S
C239 C240 1.397 . S
C240 H226 0.939 . S
C240 C239 1.397 . S
C240 C241 1.378 . S
C241 C240 1.378 . S
C241 C242 1.378 . S
C242 H227 0.940 . S
C242 C241 1.378 . S
C242 C243 1.396 . S
C243 H228 0.940 . S
C243 C238 1.391 . S
C243 C242 1.396 . S
C244 P224 1.803 . S
C244 C245 1.378 . S
C244 C249 1.400 . S
C245 H229 0.939 . S
C245 C244 1.378 . S
C245 C246 1.361 . S
C246 H230 0.942 . S
C246 C245 1.361 . S
C246 C247 1.369 . S
C247 C246 1.369 . S
C247 C248 1.404 . S
C248 H231 0.940 . S
C248 C247 1.404 . S
C248 C249 1.389 . S
C249 H232 0.939 . S
C249 C244 1.400 . S
C249 C248 1.389 . S
C250 P224 1.819 . S
C250 C251 1.391 . S
C250 C255 1.391 . S
C251 H233 0.941 . S
C251 C250 1.391 . S
C251 C252 1.396 . S
C252 H236 0.939 . S
C252 C251 1.396 . S
C252 C253 1.397 . S
C253 C252 1.397 . S
C253 C254 1.385 . S
C254 H237 0.940 . S
C254 C253 1.385 . S
C254 C255 1.388 . S
C255 H234 0.939 . S
C255 C250 1.391 . S
C255 C254 1.388 . S
Tb256 N285 2.617 . S
Tb256 N291 2.572 . S
Tb256 O300 2.465 . S
Tb256 O301 2.387 . S
Tb256 O303 2.428 . S
Tb256 O304 2.308 . S
Tb256 O308 2.349 . S
Tb256 O311 2.393 . S
Tb256 C320 2.802 . S
C257 N258 1.379 . S
C257 C260 1.416 . S
C257 C264 1.424 . S
N258 C257 1.379 . S
N258 C261 1.334 . S
N258 Tb267 2.617 . S
C259 C261 1.390 . S
C259 C262 1.339 . S
C259 H279 0.930 . S
C260 C257 1.416 . S
C260 C262 1.416 . S
C260 C266 1.448 . S
C261 N258 1.334 . S
C261 C259 1.390 . S
C261 H272 0.930 . S
C262 C259 1.339 . S
C262 C260 1.416 . S
C262 H283 0.930 . S
C263 C264 1.413 . S
C263 C265 1.427 . S
C263 C269 1.416 . S
C264 C257 1.424 . S
C264 C263 1.413 . S
C264 N268 1.361 . S
C265 C263 1.427 . S
C265 C266 1.328 . S
C265 H280 0.929 . S
C266 C260 1.448 . S
C266 C265 1.328 . S
C266 H281 0.930 . S
Tb267 N258 2.617 . S
Tb267 N268 2.572 . S
Tb267 O302 2.349 1_655 S
Tb267 O305 2.393 . S
Tb267 O306 2.465 . S
Tb267 O307 2.387 . S
Tb267 O309 2.428 . S
Tb267 O310 2.308 1_655 S
Tb267 C331 2.802 . S
N268 C264 1.361 . S
N268 Tb267 2.572 . S
N268 C270 1.340 . S
C269 C263 1.416 . S
C269 C271 1.332 . S
C269 H277 0.931 1_545 S
C270 N268 1.340 . S
C270 C271 1.407 . S
C270 H276 0.930 . S
C271 C269 1.332 . S
C271 C270 1.407 . S
C271 H273 0.929 1_545 S
H272 C261 0.930 . S
H273 C271 0.929 1_565 S
H274 C289 0.930 . S
H275 C296 0.929 . S
H276 C270 0.930 . S
H277 C269 0.931 1_565 S
H278 C292 0.930 . S
H279 C259 0.930 . S
H280 C265 0.929 . S
H281 C266 0.930 . S
H282 C287 0.930 . S
H283 C262 0.930 . S
H284 C295 0.931 . S
N285 Tb256 2.617 . S
N285 C286 1.379 . S
N285 C289 1.334 . S
C286 N285 1.379 . S
C286 C288 1.416 . S
C286 C294 1.424 . S
C287 H282 0.930 . S
C287 C289 1.390 . S
C287 C290 1.339 . S
C288 C286 1.416 . S
C288 C290 1.416 . S
C288 C321 1.448 . S
C289 H274 0.930 . S
C289 N285 1.334 . S
C289 C287 1.390 . S
C290 C287 1.339 . S
C290 C288 1.416 . S
C290 H297 0.930 . S
N291 Tb256 2.572 . S
N291 C292 1.340 . S
N291 C294 1.361 . S
C292 H278 0.930 . S
C292 N291 1.340 . S
C292 C296 1.407 . S
C293 C294 1.413 . S
C293 C295 1.416 . S
C293 C322 1.427 . S
C294 C286 1.424 . S
C294 N291 1.361 . S
C294 C293 1.413 . S
C295 H284 0.931 . S
C295 C293 1.416 . S
C295 C296 1.332 . S
C296 H275 0.929 . S
C296 C292 1.407 . S
C296 C295 1.332 . S
H297 C290 0.930 . S
H298 C321 0.930 . S
H299 C322 0.929 . S
O300 Tb256 2.465 . S
O300 C320 1.264 . S
O301 Tb256 2.387 . S
O301 C312 1.264 . S
O302 Tb267 2.349 1_455 S
O302 C312 1.243 . S
O303 Tb256 2.428 . S
O303 C320 1.256 . S
O304 Tb256 2.308 . S
O304 C319 1.266 1_455 S
O305 Tb267 2.393 . S
O305 C319 1.248 . S
O306 Tb267 2.465 . S
O306 C331 1.264 . S
O307 Tb267 2.387 . S
O307 C323 1.264 . S
O308 Tb256 2.349 . S
O308 C323 1.243 1_455 S
O309 Tb267 2.428 . S
O309 C331 1.256 . S
O310 Tb267 2.308 1_455 S
O310 C330 1.266 . S
O311 Tb256 2.393 . S
O311 C330 1.248 . S
C312 O301 1.264 . S
C312 O302 1.243 . S
C313 C316 1.399 . S
C313 C318 1.383 . S
C313 C320 1.496 . S
C314 C315 1.399 . S
C314 C318 1.389 . S
C315 C314 1.399 . S
C315 C317 1.380 . S
C315 H332 0.929 . S
C316 C313 1.399 . S
C316 C317 1.392 . S
C316 H333 0.929 . S
C317 C315 1.380 . S
C317 C316 1.392 . S
C317 H334 0.929 . S
C318 C313 1.383 . S
C318 C314 1.389 . S
C318 H335 0.931 . S
C319 O304 1.266 1_655 S
C319 O305 1.248 . S
C320 Tb256 2.802 . S
C320 O300 1.264 . S
C320 O303 1.256 . S
C320 C313 1.496 . S
C321 C288 1.448 . S
C321 H298 0.930 . S
C321 C322 1.328 . S
C322 C293 1.427 . S
C322 H299 0.929 . S
C322 C321 1.328 . S
C323 O307 1.264 . S
C323 O308 1.243 1_655 S
C324 C327 1.399 . S
C324 C328 1.383 . S
C324 C331 1.496 . S
C325 C326 1.399 . S
C325 C328 1.389 . S
C326 C325 1.399 . S
C326 C329 1.380 . S
C326 H336 0.929 . S
C327 C324 1.399 . S
C327 C329 1.392 . S
C327 H337 0.929 . S
C328 C324 1.383 . S
C328 C325 1.389 . S
C328 H338 0.931 . S
C329 C326 1.380 . S
C329 C327 1.392 . S
C329 H339 0.929 . S
C330 O310 1.266 . S
C330 O311 1.248 . S
C331 Tb267 2.802 . S
C331 O306 1.264 . S
C331 O309 1.256 . S
C331 C324 1.496 . S
H332 C315 0.929 . S
H333 C316 0.929 . S
H334 C317 0.929 . S
H335 C318 0.931 . S
H336 C326 0.929 . S
H337 C327 0.929 . S
H338 C328 0.931 . S
H339 C329 0.929 . S
Tb340 N369 2.617 . S
Tb340 N375 2.572 . S
Tb340 O384 2.465 . S
Tb340 O385 2.387 . S
Tb340 O387 2.428 . S
Tb340 O388 2.308 . S
Tb340 O392 2.349 . S
Tb340 O395 2.393 . S
Tb340 C404 2.802 . S
C341 N342 1.379 . S
C341 C344 1.416 . S
C341 C348 1.424 . S
N342 C341 1.379 . S
N342 C345 1.334 . S
N342 Tb351 2.617 . S
C343 C345 1.390 . S
C343 C346 1.339 . S
C343 H363 0.930 . S
C344 C341 1.416 . S
C344 C346 1.416 . S
C344 C350 1.448 . S
C345 N342 1.334 . S
C345 C343 1.390 . S
C345 H356 0.930 . S
C346 C343 1.339 . S
C346 C344 1.416 . S
C346 H367 0.930 . S
C347 C348 1.413 . S
C347 C349 1.427 . S
C347 C353 1.416 . S
C348 C341 1.424 . S
C348 C347 1.413 . S
C348 N352 1.361 . S
C349 C347 1.427 . S
C349 C350 1.328 . S
C349 H364 0.929 . S
C350 C344 1.448 . S
C350 C349 1.328 . S
C350 H365 0.930 . S
Tb351 N342 2.617 . S
Tb351 N352 2.572 . S
Tb351 O386 2.349 . S
Tb351 O389 2.393 . S
Tb351 O390 2.465 . S
Tb351 O391 2.387 . S
Tb351 O393 2.428 . S
Tb351 O394 2.308 . S
Tb351 C415 2.802 . S
N352 C348 1.361 . S
N352 Tb351 2.572 . S
N352 C354 1.340 . S
C353 C347 1.416 . S
C353 C355 1.332 . S
C353 H361 0.931 . S
C354 N352 1.340 . S
C354 C355 1.407 . S
C354 H360 0.930 . S
C355 C353 1.332 . S
C355 C354 1.407 . S
C355 H357 0.929 . S
H356 C345 0.930 . S
H357 C355 0.929 . S
H358 C373 0.930 . S
H359 C380 0.929 . S
H360 C354 0.930 . S
H361 C353 0.931 . S
H362 C376 0.930 . S
H363 C343 0.930 . S
H364 C349 0.929 . S
H365 C350 0.930 . S
H366 C371 0.930 . S
H367 C346 0.930 . S
H368 C379 0.931 . S
N369 Tb340 2.617 . S
N369 C370 1.379 . S
N369 C373 1.334 . S
C370 N369 1.379 . S
C370 C372 1.416 . S
C370 C378 1.424 . S
C371 H366 0.930 . S
C371 C373 1.390 . S
C371 C374 1.339 . S
C372 C370 1.416 . S
C372 C374 1.416 . S
C372 C405 1.448 . S
C373 H358 0.930 . S
C373 N369 1.334 . S
C373 C371 1.390 . S
C374 C371 1.339 . S
C374 C372 1.416 . S
C374 H381 0.930 . S
N375 Tb340 2.572 . S
N375 C376 1.340 . S
N375 C378 1.361 . S
C376 H362 0.930 . S
C376 N375 1.340 . S
C376 C380 1.407 . S
C377 C378 1.413 . S
C377 C379 1.416 . S
C377 C406 1.427 . S
C378 C370 1.424 . S
C378 N375 1.361 . S
C378 C377 1.413 . S
C379 H368 0.931 . S
C379 C377 1.416 . S
C379 C380 1.332 . S
C380 H359 0.929 . S
C380 C376 1.407 . S
C380 C379 1.332 . S
H381 C374 0.930 . S
H382 C405 0.930 . S
H383 C406 0.929 . S
O384 Tb340 2.465 . S
O384 C404 1.264 . S
O385 Tb340 2.387 . S
O385 C396 1.264 . S
O386 Tb351 2.349 . S
O386 C396 1.243 . S
O387 Tb340 2.428 . S
O387 C404 1.256 . S
O388 Tb340 2.308 . S
O388 C403 1.266 . S
O389 Tb351 2.393 . S
O389 C403 1.248 . S
O390 Tb351 2.465 . S
O390 C415 1.264 . S
O391 Tb351 2.387 . S
O391 C407 1.264 . S
O392 Tb340 2.349 . S
O392 C407 1.243 . S
O393 Tb351 2.428 . S
O393 C415 1.256 . S
O394 Tb351 2.308 . S
O394 C414 1.266 . S
O395 Tb340 2.393 . S
O395 C414 1.248 . S
C396 O385 1.264 . S
C396 O386 1.243 . S
C397 C400 1.399 . S
C397 C402 1.383 . S
C397 C404 1.496 . S
C398 C399 1.399 . S
C398 C402 1.389 . S
C399 C398 1.399 . S
C399 C401 1.380 . S
C399 H416 0.929 . S
C400 C397 1.399 . S
C400 C401 1.392 . S
C400 H417 0.929 . S
C401 C399 1.380 . S
C401 C400 1.392 . S
C401 H418 0.929 . S
C402 C397 1.383 . S
C402 C398 1.389 . S
C402 H419 0.931 . S
C403 O388 1.266 . S
C403 O389 1.248 . S
C404 Tb340 2.802 . S
C404 O384 1.264 . S
C404 O387 1.256 . S
C404 C397 1.496 . S
C405 C372 1.448 . S
C405 H382 0.930 . S
C405 C406 1.328 . S
C406 C377 1.427 . S
C406 H383 0.929 . S
C406 C405 1.328 . S
C407 O391 1.264 . S
C407 O392 1.243 . S
C408 C411 1.399 . S
C408 C412 1.383 . S
C408 C415 1.496 . S
C409 C410 1.399 . S
C409 C412 1.389 . S
C410 C409 1.399 . S
C410 C413 1.380 . S
C410 H420 0.929 . S
C411 C408 1.399 . S
C411 C413 1.392 . S
C411 H421 0.929 . S
C412 C408 1.383 . S
C412 C409 1.389 . S
C412 H422 0.931 . S
C413 C410 1.380 . S
C413 C411 1.392 . S
C413 H423 0.929 . S
C414 O394 1.266 . S
C414 O395 1.248 . S
C415 Tb351 2.802 . S
C415 O390 1.264 . S
C415 O393 1.256 . S
C415 C408 1.496 . S
H416 C399 0.929 . S
H417 C400 0.929 . S
H418 C401 0.929 . S
H419 C402 0.931 . S
H420 C410 0.929 . S
H421 C411 0.929 . S
H422 C412 0.931 . S
H423 C413 0.929 . S
Tb424 N453 2.617 . S
Tb424 N459 2.572 . S
Tb424 O468 2.465 . S
Tb424 O469 2.387 . S
Tb424 O471 2.428 . S
Tb424 O472 2.307 . S
Tb424 O476 2.345 1_455 S
Tb424 O479 2.393 . S
Tb424 C488 2.802 . S
C425 N426 1.379 . S
C425 C428 1.416 . S
C425 C432 1.424 . S
N426 C425 1.379 . S
N426 C429 1.334 . S
N426 Tb435 2.617 . S
C427 C429 1.390 . S
C427 C430 1.339 . S
C427 H447 0.930 . S
C428 C425 1.416 . S
C428 C430 1.416 . S
C428 C434 1.448 . S
C429 N426 1.334 . S
C429 C427 1.390 . S
C429 H440 0.930 . S
C430 C427 1.339 . S
C430 C428 1.416 . S
C430 H451 0.930 . S
C431 C432 1.413 . S
C431 C433 1.427 . S
C431 C437 1.416 . S
C432 C425 1.424 . S
C432 C431 1.413 . S
C432 N436 1.361 . S
C433 C431 1.427 . S
C433 C434 1.328 . S
C433 H448 0.929 . S
C434 C428 1.448 . S
C434 C433 1.328 . S
C434 H449 0.930 . S
Tb435 N426 2.617 . S
Tb435 N436 2.572 . S
Tb435 O470 2.349 1_655 S
Tb435 O473 2.393 . S
Tb435 O474 2.465 . S
Tb435 O475 2.387 . S
Tb435 O477 2.428 . S
Tb435 O478 2.308 1_655 S
Tb435 C499 2.802 . S
N436 C432 1.361 . S
N436 Tb435 2.572 . S
N436 C438 1.340 . S
C437 C431 1.416 . S
C437 C439 1.332 . S
C437 H445 0.931 . S
C438 N436 1.340 . S
C438 C439 1.407 . S
C438 H444 0.930 . S
C439 C437 1.332 . S
C439 C438 1.407 . S
C439 H441 0.929 . S
H440 C429 0.930 . S
H441 C439 0.929 . S
H442 C457 0.930 . S
H443 C464 0.929 1_545 S
H444 C438 0.930 . S
H445 C437 0.931 . S
H446 C460 0.930 . S
H447 C427 0.930 . S
H448 C433 0.929 . S
H449 C434 0.930 . S
H450 C455 0.930 . S
H451 C430 0.930 . S
H452 C463 0.931 1_545 S
N453 Tb424 2.617 . S
N453 C454 1.379 . S
N453 C457 1.334 . S
C454 N453 1.379 . S
C454 C456 1.416 . S
C454 C462 1.424 . S
C455 H450 0.930 . S
C455 C457 1.390 . S
C455 C458 1.339 . S
C456 C454 1.416 . S
C456 C458 1.416 . S
C456 C489 1.448 . S
C457 H442 0.930 . S
C457 N453 1.334 . S
C457 C455 1.390 . S
C458 C455 1.339 . S
C458 C456 1.416 . S
C458 H465 0.930 . S
N459 Tb424 2.572 . S
N459 C460 1.340 . S
N459 C462 1.361 . S
C460 H446 0.930 . S
C460 N459 1.340 . S
C460 C464 1.407 . S
C461 C462 1.413 . S
C461 C463 1.416 . S
C461 C490 1.427 . S
C462 C454 1.424 . S
C462 N459 1.361 . S
C462 C461 1.413 . S
C463 H452 0.931 1_565 S
C463 C461 1.416 . S
C463 C464 1.332 . S
C464 H443 0.929 1_565 S
C464 C460 1.407 . S
C464 C463 1.332 . S
H465 C458 0.930 . S
H466 C489 0.930 . S
H467 C490 0.929 . S
O468 Tb424 2.465 . S
O468 C488 1.264 . S
O469 Tb424 2.387 . S
O469 C480 1.264 . S
O470 Tb435 2.349 1_455 S
O470 C480 1.243 . S
O471 Tb424 2.428 . S
O471 C488 1.256 . S
O472 Tb424 2.307 . S
O472 C487 1.267 1_455 S
O473 Tb435 2.393 . S
O473 C487 1.248 . S
O474 Tb435 2.465 . S
O474 C499 1.264 . S
O475 Tb435 2.387 . S
O475 C491 1.264 . S
O476 Tb424 2.345 1_655 S
O476 C491 1.248 . S
O477 Tb435 2.428 . S
O477 C499 1.256 . S
O478 Tb435 2.308 1_455 S
O478 C498 1.266 . S
O479 Tb424 2.393 . S
O479 C498 1.248 . S
C480 O469 1.264 . S
C480 O470 1.243 . S
C481 C484 1.399 . S
C481 C486 1.383 . S
C481 C488 1.496 . S
C482 C483 1.399 . S
C482 C486 1.389 . S
C483 C482 1.399 . S
C483 C485 1.380 . S
C483 H500 0.929 . S
C484 C481 1.399 . S
C484 C485 1.392 . S
C484 H501 0.929 . S
C485 C483 1.380 . S
C485 C484 1.392 . S
C485 H502 0.929 . S
C486 C481 1.383 . S
C486 C482 1.389 . S
C486 H503 0.931 . S
C487 O472 1.267 1_655 S
C487 O473 1.248 . S
C488 Tb424 2.802 . S
C488 O468 1.264 . S
C488 O471 1.256 . S
C488 C481 1.496 . S
C489 C456 1.448 . S
C489 H466 0.930 . S
C489 C490 1.328 . S
C490 C461 1.427 . S
C490 H467 0.929 . S
C490 C489 1.328 . S
C491 O475 1.264 . S
C491 O476 1.248 . S
C492 C495 1.399 . S
C492 C496 1.383 . S
C492 C499 1.496 . S
C493 C494 1.399 . S
C493 C496 1.389 . S
C494 C493 1.399 . S
C494 C497 1.380 . S
C494 H504 0.929 . S
C495 C492 1.399 . S
C495 C497 1.392 . S
C495 H505 0.929 . S
C496 C492 1.383 . S
C496 C493 1.389 . S
C496 H506 0.931 . S
C497 C494 1.380 . S
C497 C495 1.392 . S
C497 H507 0.929 . S
C498 O478 1.266 . S
C498 O479 1.248 . S
C499 Tb435 2.802 . S
C499 O474 1.264 . S
C499 O477 1.256 . S
C499 C492 1.496 . S
H500 C483 0.929 . S
H501 C484 0.929 . S
H502 C485 0.929 . S
H503 C486 0.931 . S
H504 C494 0.929 . S
H505 C495 0.929 . S
H506 C496 0.931 . S
H507 C497 0.929 . S
Tb508 N537 2.617 . S
Tb508 N543 2.572 . S
Tb508 O552 2.465 . S
Tb508 O553 2.387 . S
Tb508 O555 2.428 . S
Tb508 O556 2.308 . S
Tb508 O560 2.349 . S
Tb508 O563 2.393 . S
Tb508 C572 2.802 . S
C509 N510 1.379 . S
C509 C512 1.416 . S
C509 C516 1.424 . S
N510 C509 1.379 . S
N510 C513 1.334 . S
N510 Tb519 2.617 . S
C511 C513 1.390 . S
C511 C514 1.339 . S
C511 H531 0.930 . S
C512 C509 1.416 . S
C512 C514 1.416 . S
C512 C518 1.448 . S
C513 N510 1.334 . S
C513 C511 1.390 . S
C513 H524 0.930 . S
C514 C511 1.339 . S
C514 C512 1.416 . S
C514 H535 0.930 . S
C515 C516 1.413 . S
C515 C517 1.427 . S
C515 C521 1.416 . S
C516 C509 1.424 . S
C516 C515 1.413 . S
C516 N520 1.361 . S
C517 C515 1.427 . S
C517 C518 1.328 . S
C517 H532 0.929 . S
C518 C512 1.448 . S
C518 C517 1.328 . S
C518 H533 0.930 . S
Tb519 N510 2.617 . S
Tb519 N520 2.572 . S
Tb519 O554 2.349 . S
Tb519 O557 2.393 . S
Tb519 O558 2.465 . S
Tb519 O559 2.387 . S
Tb519 O561 2.428 . S
Tb519 O562 2.308 . S
Tb519 C583 2.802 . S
N520 C516 1.361 . S
N520 Tb519 2.572 . S
N520 C522 1.340 . S
C521 C515 1.416 . S
C521 C523 1.332 . S
C521 H529 0.931 . S
C522 N520 1.340 . S
C522 C523 1.407 . S
C522 H528 0.930 . S
C523 C521 1.332 . S
C523 C522 1.407 . S
C523 H525 0.929 . S
H524 C513 0.930 . S
H525 C523 0.929 . S
H526 C541 0.930 . S
H527 C548 0.929 . S
H528 C522 0.930 . S
H529 C521 0.931 . S
H530 C544 0.930 . S
H531 C511 0.930 . S
H532 C517 0.929 . S
H533 C518 0.930 . S
H534 C539 0.930 . S
H535 C514 0.930 . S
H536 C547 0.931 . S
N537 Tb508 2.617 . S
N537 C538 1.379 . S
N537 C541 1.334 . S
C538 N537 1.379 . S
C538 C540 1.416 . S
C538 C546 1.424 . S
C539 H534 0.930 . S
C539 C541 1.390 . S
C539 C542 1.339 . S
C540 C538 1.416 . S
C540 C542 1.416 . S
C540 C573 1.448 . S
C541 H526 0.930 . S
C541 N537 1.334 . S
C541 C539 1.390 . S
C542 C539 1.339 . S
C542 C540 1.416 . S
C542 H549 0.930 . S
N543 Tb508 2.572 . S
N543 C544 1.340 . S
N543 C546 1.361 . S
C544 H530 0.930 . S
C544 N543 1.340 . S
C544 C548 1.407 . S
C545 C546 1.413 . S
C545 C547 1.416 . S
C545 C574 1.427 . S
C546 C538 1.424 . S
C546 N543 1.361 . S
C546 C545 1.413 . S
C547 H536 0.931 . S
C547 C545 1.416 . S
C547 C548 1.332 . S
C548 H527 0.929 . S
C548 C544 1.407 . S
C548 C547 1.332 . S
H549 C542 0.930 . S
H550 C573 0.930 . S
H551 C574 0.929 . S
O552 Tb508 2.465 . S
O552 C572 1.264 . S
O553 Tb508 2.387 . S
O553 C564 1.264 . S
O554 Tb519 2.349 . S
O554 C564 1.243 . S
O555 Tb508 2.428 . S
O555 C572 1.256 . S
O556 Tb508 2.308 . S
O556 C571 1.266 . S
O557 Tb519 2.393 . S
O557 C571 1.248 . S
O558 Tb519 2.465 . S
O558 C583 1.264 . S
O559 Tb519 2.387 . S
O559 C575 1.264 . S
O560 Tb508 2.349 . S
O560 C575 1.243 . S
O561 Tb519 2.428 . S
O561 C583 1.256 . S
O562 Tb519 2.308 . S
O562 C582 1.266 . S
O563 Tb508 2.393 . S
O563 C582 1.248 . S
C564 O553 1.264 . S
C564 O554 1.243 . S
C565 C568 1.399 . S
C565 C570 1.383 . S
C565 C572 1.496 . S
C566 C567 1.399 . S
C566 C570 1.389 . S
C567 C566 1.399 . S
C567 C569 1.380 . S
C567 H584 0.929 . S
C568 C565 1.399 . S
C568 C569 1.392 . S
C568 H585 0.929 . S
C569 C567 1.380 . S
C569 C568 1.392 . S
C569 H586 0.929 . S
C570 C565 1.383 . S
C570 C566 1.389 . S
C570 H587 0.931 . S
C571 O556 1.266 . S
C571 O557 1.248 . S
C572 Tb508 2.802 . S
C572 O552 1.264 . S
C572 O555 1.256 . S
C572 C565 1.496 . S
C573 C540 1.448 . S
C573 H550 0.930 . S
C573 C574 1.328 . S
C574 C545 1.427 . S
C574 H551 0.929 . S
C574 C573 1.328 . S
C575 O559 1.264 . S
C575 O560 1.243 . S
C576 C579 1.399 . S
C576 C580 1.383 . S
C576 C583 1.496 . S
C577 C578 1.399 . S
C577 C580 1.389 . S
C578 C577 1.399 . S
C578 C581 1.380 . S
C578 H588 0.929 . S
C579 C576 1.399 . S
C579 C581 1.392 . S
C579 H589 0.929 . S
C580 C576 1.383 . S
C580 C577 1.389 . S
C580 H590 0.931 . S
C581 C578 1.380 . S
C581 C579 1.392 . S
C581 H591 0.929 . S
C582 O562 1.266 . S
C582 O563 1.248 . S
C583 Tb519 2.802 . S
C583 O558 1.264 . S
C583 O561 1.256 . S
C583 C576 1.496 . S
H584 C567 0.929 . S
H585 C568 0.929 . S
H586 C569 0.929 . S
H587 C570 0.931 . S
H588 C578 0.929 . S
H589 C579 0.929 . S
H590 C580 0.931 . S
H591 C581 0.929 . S
C592 C593 1.402 . S
C592 H596 0.950 . S
C592 C601 1.390 . S
C593 C592 1.402 . S
C593 C595 1.386 1_545 S
H594 C601 0.950 . S
C595 C593 1.386 1_565 S
C595 C597 1.390 1_565 S
C595 H599 0.950 . S
H596 C592 0.950 . S
C597 C595 1.390 1_545 S
C597 C598 1.387 . S
C597 H600 0.950 . S
C598 C597 1.387 . S
C598 C601 1.387 . S
H599 C595 0.950 . S
H600 C597 0.950 . S
C601 C592 1.390 . S
C601 H594 0.950 . S
C601 C598 1.387 . S
C602 C603 1.387 . S
C602 H606 0.950 . S
C602 C611 1.390 . S
C603 C602 1.387 . S
C603 C605 1.387 . S
H604 C611 0.950 . S
C605 C603 1.387 . S
C605 C607 1.390 . S
C605 H609 0.950 . S
H606 C602 0.950 . S
C607 C605 1.390 . S
C607 C608 1.387 . S
C607 H610 0.950 . S
C608 C607 1.387 . S
C608 C611 1.387 . S
H609 C605 0.950 . S
H610 C607 0.950 . S
C611 C602 1.390 . S
C611 H604 0.950 . S
C611 C608 1.387 . S
C612 C613 1.387 . S
C612 H616 0.950 . S
C612 C621 1.390 . S
C613 C612 1.387 . S
C613 C615 1.387 . S
H614 C621 0.950 . S
C615 C613 1.387 . S
C615 C617 1.390 . S
C615 H619 0.950 . S
H616 C612 0.950 . S
C617 C615 1.390 . S
C617 C618 1.387 . S
C617 H620 0.950 . S
C618 C617 1.387 . S
C618 C621 1.387 . S
H619 C615 0.950 . S
H620 C617 0.950 . S
C621 C612 1.390 . S
C621 H614 0.950 . S
C621 C618 1.387 . S
C622 C623 1.387 1_565 S
C622 H626 0.950 . S
C622 C631 1.390 1_565 S
C623 C622 1.387 1_545 S
C623 C625 1.387 . S
H624 C631 0.950 . S
C625 C623 1.387 . S
C625 C627 1.390 . S
C625 H629 0.950 . S
H626 C622 0.950 . S
C627 C625 1.390 . S
C627 C628 1.387 . S
C627 H630 0.950 . S
C628 C627 1.387 . S
C628 C631 1.387 . S
H629 C625 0.950 . S
H630 C627 0.950 . S
C631 C622 1.390 1_545 S
C631 H624 0.950 . S
C631 C628 1.387 . S
C632 C633 1.393 . S
C632 H636 0.950 . S
C632 C641 1.390 . S
C633 C632 1.393 . S
C633 C635 1.394 . S
H634 C641 0.950 . S
C635 C633 1.394 . S
C635 C637 1.390 . S
C635 H639 0.950 . S
H636 C632 0.950 . S
C637 C635 1.390 . S
C637 C638 1.387 . S
C637 H640 0.950 . S
C638 C637 1.387 . S
C638 C641 1.387 . S
H639 C635 0.950 . S
H640 C637 0.950 . S
C641 C632 1.390 . S
C641 H634 0.950 . S
C641 C638 1.387 . S
C642 C643 1.387 . S
C642 H646 0.950 . S
C642 C651 1.390 . S
C643 C642 1.387 . S
C643 C645 1.387 . S
H644 C651 0.950 . S
C645 C643 1.387 . S
C645 C647 1.390 . S
C645 H649 0.950 . S
H646 C642 0.950 . S
C647 C645 1.390 . S
C647 C648 1.387 . S
C647 H650 0.950 . S
C648 C647 1.387 . S
C648 C651 1.387 . S
H649 C645 0.950 . S
H650 C647 0.950 . S
C651 C642 1.390 . S
C651 H644 0.950 . S
C651 C648 1.387 . S
C652 C653 1.387 . S
C652 H656 0.950 . S
C652 C661 1.390 . S
C653 C652 1.387 . S
C653 C655 1.387 . S
H654 C661 0.950 . S
C655 C653 1.387 . S
C655 C657 1.390 . S
C655 H659 0.950 . S
H656 C652 0.950 . S
C657 C655 1.390 . S
C657 C658 1.387 . S
C657 H660 0.950 . S
C658 C657 1.387 . S
C658 C661 1.387 . S
H659 C655 0.950 . S
H660 C657 0.950 . S
C661 C652 1.390 . S
C661 H654 0.950 . S
C661 C658 1.387 . S
C662 C663 1.387 . S
C662 H666 0.950 . S
C662 C671 1.390 . S
C663 C662 1.387 . S
C663 C665 1.387 . S
H664 C671 0.950 . S
C665 C663 1.387 . S
C665 C667 1.390 . S
C665 H669 0.950 1_565 S
H666 C662 0.950 . S
C667 C665 1.390 . S
C667 C668 1.387 . S
C667 H670 0.950 . S
C668 C667 1.387 . S
C668 C671 1.387 . S
H669 C665 0.950 1_545 S
H670 C667 0.950 . S
C671 C662 1.390 . S
C671 H664 0.950 . S
C671 C668 1.387 . S
C672 C673 1.387 . S
C672 H676 0.950 . S
C672 C681 1.390 . S
C673 C672 1.387 . S
C673 C675 1.387 . S
H674 C681 0.950 . S
C675 C673 1.387 . S
C675 C677 1.390 . S
C675 H679 0.950 . S
H676 C672 0.950 . S
C677 C675 1.390 . S
C677 C678 1.387 . S
C677 H680 0.950 . S
C678 C677 1.387 . S
C678 C681 1.387 . S
H679 C675 0.950 . S
H680 C677 0.950 . S
C681 C672 1.390 . S
C681 H674 0.950 . S
C681 C678 1.387 . S
C682 C683 1.387 . S
C682 H686 0.950 . S
C682 C691 1.390 . S
C683 C682 1.387 . S
C683 C685 1.387 . S
H684 C691 0.950 . S
C685 C683 1.387 . S
C685 C687 1.390 . S
C685 H689 0.950 . S
H686 C682 0.950 . S
C687 C685 1.390 . S
C687 C688 1.387 . S
C687 H690 0.950 . S
C688 C687 1.387 . S
C688 C691 1.387 . S
H689 C685 0.950 . S
H690 C687 0.950 . S
C691 C682 1.390 . S
C691 H684 0.950 . S
C691 C688 1.387 . S
C692 C693 1.387 . S
C692 H696 0.950 . S
C692 C701 1.390 . S
C693 C692 1.387 . S
C693 C695 1.387 . S
H694 C701 0.950 . S
C695 C693 1.387 . S
C695 C697 1.390 . S
C695 H699 0.950 . S
H696 C692 0.950 . S
C697 C695 1.390 . S
C697 C698 1.387 . S
C697 H700 0.950 . S
C698 C697 1.387 . S
C698 C701 1.387 . S
H699 C695 0.950 . S
H700 C697 0.950 . S
C701 C692 1.390 . S
C701 H694 0.950 . S
C701 C698 1.387 . S
C702 C703 1.387 . S
C702 H706 0.950 . S
C702 C711 1.390 . S
C703 C702 1.387 . S
C703 C705 1.387 . S
H704 C711 0.950 . S
C705 C703 1.387 . S
C705 C707 1.390 . S
C705 H709 0.950 . S
H706 C702 0.950 . S
C707 C705 1.390 . S
C707 C708 1.387 . S
C707 H710 0.950 . S
C708 C707 1.387 . S
C708 C711 1.387 . S
H709 C705 0.950 . S
H710 C707 0.950 . S
C711 C702 1.390 . S
C711 H704 0.950 . S
C711 C708 1.387 . S
C712 C713 1.387 . S
C712 H716 0.950 . S
C712 C721 1.390 . S
C713 C712 1.387 . S
C713 C715 1.387 . S
H714 C721 0.950 . S
C715 C713 1.387 . S
C715 C717 1.390 . S
C715 H719 0.950 . S
H716 C712 0.950 . S
C717 C715 1.390 . S
C717 C718 1.387 . S
C717 H720 0.950 . S
C718 C717 1.387 . S
C718 C721 1.387 . S
H719 C715 0.950 . S
H720 C717 0.950 . S
C721 C712 1.390 . S
C721 H714 0.950 . S
C721 C718 1.387 . S
C722 C723 1.387 . S
C722 H726 0.950 . S
C722 C731 1.390 . S
C723 C722 1.387 . S
C723 C725 1.387 . S
H724 C731 0.950 . S
C725 C723 1.387 . S
C725 C727 1.390 . S
C725 H729 0.950 . S
H726 C722 0.950 . S
C727 C725 1.390 . S
C727 C728 1.387 . S
C727 H730 0.950 . S
C728 C727 1.387 . S
C728 C731 1.387 . S
H729 C725 0.950 . S
H730 C727 0.950 . S
C731 C722 1.390 . S
C731 H724 0.950 . S
C731 C728 1.387 . S
C732 C733 1.387 . S
C732 H736 0.950 . S
C732 C741 1.390 . S
C733 C732 1.387 . S
C733 C735 1.387 . S
H734 C741 0.950 . S
C735 C733 1.387 . S
C735 C737 1.390 . S
C735 H739 0.950 . S
H736 C732 0.950 . S
C737 C735 1.390 . S
C737 C738 1.387 . S
C737 H740 0.950 . S
C738 C737 1.387 . S
C738 C741 1.387 . S
H739 C735 0.950 . S
H740 C737 0.950 . S
C741 C732 1.390 . S
C741 H734 0.950 . S
C741 C738 1.387 . S
C742 C743 1.387 . S
C742 H746 0.950 . S
C742 C751 1.390 . S
C743 C742 1.387 . S
C743 C745 1.387 . S
H744 C751 0.950 . S
C745 C743 1.387 . S
C745 C747 1.390 . S
C745 H749 0.950 . S
H746 C742 0.950 . S
C747 C745 1.390 . S
C747 C748 1.387 . S
C747 H750 0.950 . S
C748 C747 1.387 . S
C748 C751 1.387 . S
H749 C745 0.950 . S
H750 C747 0.950 . S
C751 C742 1.390 . S
C751 H744 0.950 . S
C751 C748 1.387 . S
C752 C753 1.387 . S
C752 H756 0.950 . S
C752 C761 1.390 . S
C753 C752 1.387 . S
C753 C755 1.387 . S
H754 C761 0.950 . S
C755 C753 1.387 . S
C755 C757 1.390 . S
C755 H759 0.950 . S
H756 C752 0.950 . S
C757 C755 1.390 . S
C757 C758 1.387 . S
C757 H760 0.950 . S
C758 C757 1.387 . S
C758 C761 1.387 . S
H759 C755 0.950 . S
H760 C757 0.950 . S
C761 C752 1.390 . S
C761 H754 0.950 . S
C761 C758 1.387 . S
C762 C763 1.387 . S
C762 H766 0.950 . S
C762 C771 1.390 . S
C763 C762 1.387 . S
C763 C765 1.387 . S
H764 C771 0.950 . S
C765 C763 1.387 . S
C765 C767 1.390 . S
C765 H769 0.950 . S
H766 C762 0.950 . S
C767 C765 1.390 . S
C767 C768 1.387 . S
C767 H770 0.950 . S
C768 C767 1.387 . S
C768 C771 1.387 . S
H769 C765 0.950 . S
H770 C767 0.950 . S
C771 C762 1.390 . S
C771 H764 0.950 . S
C771 C768 1.387 . S
C772 C773 1.387 . S
C772 H776 0.950 . S
C772 C781 1.390 . S
C773 C772 1.387 . S
C773 C775 1.387 . S
H774 C781 0.950 . S
C775 C773 1.387 . S
C775 C777 1.390 . S
C775 H779 0.950 . S
H776 C772 0.950 . S
C777 C775 1.390 . S
C777 C778 1.387 . S
C777 H780 0.950 . S
C778 C777 1.387 . S
C778 C781 1.387 . S
H779 C775 0.950 . S
H780 C777 0.950 . S
C781 C772 1.390 . S
C781 H774 0.950 . S
C781 C778 1.387 . S
C782 C783 1.387 . S
C782 H786 0.950 . S
C782 C791 1.390 . S
C783 C782 1.387 . S
C783 C785 1.387 . S
H784 C791 0.950 . S
C785 C783 1.387 . S
C785 C787 1.390 . S
C785 H789 0.950 . S
H786 C782 0.950 . S
C787 C785 1.390 . S
C787 C788 1.387 . S
C787 H790 0.950 1_655 S
C788 C787 1.387 . S
C788 C791 1.387 . S
H789 C785 0.950 . S
H790 C787 0.950 1_455 S
C791 C782 1.390 . S
C791 H784 0.950 . S
C791 C788 1.387 . S
C792 C793 1.387 . S
C792 H796 0.950 . S
C792 C801 1.390 . S
C793 C792 1.387 . S
C793 C795 1.387 . S
H794 C801 0.950 . S
C795 C793 1.387 . S
C795 C797 1.390 . S
C795 H799 0.950 . S
H796 C792 0.950 . S
C797 C795 1.390 . S
C797 C798 1.387 . S
C797 H800 0.950 . S
C798 C797 1.387 . S
C798 C801 1.387 . S
H799 C795 0.950 . S
H800 C797 0.950 . S
C801 C792 1.390 . S
C801 H794 0.950 . S
C801 C798 1.387 . S
C802 C803 1.387 . S
C802 H806 0.950 . S
C802 C811 1.390 . S
C803 C802 1.387 . S
C803 C805 1.387 . S
H804 C811 0.950 . S
C805 C803 1.387 . S
C805 C807 1.390 . S
C805 H809 0.950 . S
H806 C802 0.950 . S
C807 C805 1.390 . S
C807 C808 1.387 . S
C807 H810 0.950 . S
C808 C807 1.387 . S
C808 C811 1.387 . S
H809 C805 0.950 . S
H810 C807 0.950 . S
C811 C802 1.390 . S
C811 H804 0.950 . S
C811 C808 1.387 . S
C812 C813 1.387 . S
C812 H816 0.950 . S
C812 C821 1.390 . S
C813 C812 1.387 . S
C813 C815 1.387 . S
H814 C821 0.950 . S
C815 C813 1.387 . S
C815 C817 1.390 . S
C815 H819 0.950 . S
H816 C812 0.950 . S
C817 C815 1.390 . S
C817 C818 1.387 . S
C817 H820 0.950 . S
C818 C817 1.387 . S
C818 C821 1.387 . S
H819 C815 0.950 . S
H820 C817 0.950 . S
C821 C812 1.390 . S
C821 H814 0.950 . S
C821 C818 1.387 . S
C822 C823 1.387 . S
C822 H826 0.950 . S
C822 C831 1.390 . S
C823 C822 1.387 . S
C823 C825 1.387 . S
H824 C831 0.950 . S
C825 C823 1.387 . S
C825 C827 1.390 . S
C825 H829 0.950 . S
H826 C822 0.950 . S
C827 C825 1.390 . S
C827 C828 1.387 . S
C827 H830 0.950 . S
C828 C827 1.387 . S
C828 C831 1.387 . S
H829 C825 0.950 . S
H830 C827 0.950 . S
C831 C822 1.390 . S
C831 H824 0.950 . S
C831 C828 1.387 . S
C593 C221 1.469 1_545 S
C598 C330 1.480 . S
C608 C414 1.485 . S
C603 C241 1.450 . S
C618 C407 1.486 . S
C613 C157 1.476 . S
C623 C177 1.439 1_545 S
C628 C323 1.491 . S
C638 C487 1.480 . S
C633 C93 1.429 1_565 S
C648 C571 1.484 . S
C643 C113 1.491 . S
C653 C29 1.432 . S
C658 C564 1.487 . S
C663 C49 1.491 1_565 S
C668 C480 1.492 . S
C678 C314 1.316 . S
C673 C61 1.516 1_554 S
C688 C398 1.322 . S
C683 C17 1.462 . S
C698 C409 1.394 . S
C693 C125 1.526 1_556 S
C708 C325 1.393 . S
C703 C81 1.481 . S
C718 C493 1.319 . S
C713 C189 1.450 1_556 S
C723 C145 1.510 . S
C728 C577 1.320 . S
C738 C566 1.392 . S
C733 C253 1.468 1_554 S
C743 C209 1.520 . S
C748 C482 1.395 . S
C758 C312 1.550 . S
C753 C23 1.494 . S
C768 C396 1.564 . S
C763 C55 1.553 . S
C773 C87 1.490 . S
C778 C403 1.533 . S
C788 C319 1.546 . S
C783 C119 1.538 . S
C798 C491 1.550 . S
C793 C151 1.548 . S
C803 C183 1.490 . S
C808 C575 1.564 . S
C813 C215 1.536 . S
C818 C582 1.534 . S
C823 C247 1.486 . S
C828 C498 1.546 . S
