# Generated by pormake.
# Topology ctn, (3,4)-cn, num edge types: 1
# Building blocks:
#     Node 0, Type 0, BuildingBlock: CUQRIR_clean_linker_1, # of connection points: 3
#     Node 1, Type 0, BuildingBlock: CUQRIR_clean_linker_1, # of connection points: 3
#     Node 2, Type 0, BuildingBlock: CUQRIR_clean_linker_1, # of connection points: 3
#     Node 3, Type 0, BuildingBlock: CUQRIR_clean_linker_1, # of connection points: 3
#     Node 4, Type 0, BuildingBlock: CUQRIR_clean_linker_1, # of connection points: 3
#     Node 5, Type 0, BuildingBlock: CUQRIR_clean_linker_1, # of connection points: 3
#     Node 6, Type 0, BuildingBlock: CUQRIR_clean_linker_1, # of connection points: 3
#     Node 7, Type 0, BuildingBlock: CUQRIR_clean_linker_1, # of connection points: 3
#     Node 8, Type 0, BuildingBlock: CUQRIR_clean_linker_1, # of connection points: 3
#     Node 9, Type 0, BuildingBlock: CUQRIR_clean_linker_1, # of connection points: 3
#     Node 10, Type 0, BuildingBlock: CUQRIR_clean_linker_1, # of connection points: 3
#     Node 11, Type 0, BuildingBlock: CUQRIR_clean_linker_1, # of connection points: 3
#     Node 12, Type 0, BuildingBlock: CUQRIR_clean_linker_1, # of connection points: 3
#     Node 13, Type 0, BuildingBlock: CUQRIR_clean_linker_1, # of connection points: 3
#     Node 14, Type 0, BuildingBlock: CUQRIR_clean_linker_1, # of connection points: 3
#     Node 15, Type 0, BuildingBlock: CUQRIR_clean_linker_1, # of connection points: 3
#     Node 16, Type 1, BuildingBlock: KUFVIS_clean_sbu_0, # of connection points: 4
#     Node 17, Type 1, BuildingBlock: KUFVIS_clean_sbu_0, # of connection points: 4
#     Node 18, Type 1, BuildingBlock: KUFVIS_clean_sbu_0, # of connection points: 4
#     Node 19, Type 1, BuildingBlock: KUFVIS_clean_sbu_0, # of connection points: 4
#     Node 20, Type 1, BuildingBlock: KUFVIS_clean_sbu_0, # of connection points: 4
#     Node 21, Type 1, BuildingBlock: KUFVIS_clean_sbu_0, # of connection points: 4
#     Node 22, Type 1, BuildingBlock: KUFVIS_clean_sbu_0, # of connection points: 4
#     Node 23, Type 1, BuildingBlock: KUFVIS_clean_sbu_0, # of connection points: 4
#     Node 24, Type 1, BuildingBlock: KUFVIS_clean_sbu_0, # of connection points: 4
#     Node 25, Type 1, BuildingBlock: KUFVIS_clean_sbu_0, # of connection points: 4
#     Node 26, Type 1, BuildingBlock: KUFVIS_clean_sbu_0, # of connection points: 4
#     Node 27, Type 1, BuildingBlock: KUFVIS_clean_sbu_0, # of connection points: 4
#     Edge 28, Type (0, 1), None
#     Edge 29, Type (0, 1), None
#     Edge 30, Type (0, 1), None
#     Edge 31, Type (0, 1), None
#     Edge 32, Type (0, 1), None
#     Edge 33, Type (0, 1), None
#     Edge 34, Type (0, 1), None
#     Edge 35, Type (0, 1), None
#     Edge 36, Type (0, 1), None
#     Edge 37, Type (0, 1), None
#     Edge 38, Type (0, 1), None
#     Edge 39, Type (0, 1), None
#     Edge 40, Type (0, 1), None
#     Edge 41, Type (0, 1), None
#     Edge 42, Type (0, 1), None
#     Edge 43, Type (0, 1), None
#     Edge 44, Type (0, 1), None
#     Edge 45, Type (0, 1), None
#     Edge 46, Type (0, 1), None
#     Edge 47, Type (0, 1), None
#     Edge 48, Type (0, 1), None
#     Edge 49, Type (0, 1), None
#     Edge 50, Type (0, 1), None
#     Edge 51, Type (0, 1), None
#     Edge 52, Type (0, 1), None
#     Edge 53, Type (0, 1), None
#     Edge 54, Type (0, 1), None
#     Edge 55, Type (0, 1), None
#     Edge 56, Type (0, 1), None
#     Edge 57, Type (0, 1), None
#     Edge 58, Type (0, 1), None
#     Edge 59, Type (0, 1), None
#     Edge 60, Type (0, 1), None
#     Edge 61, Type (0, 1), None
#     Edge 62, Type (0, 1), None
#     Edge 63, Type (0, 1), None
#     Edge 64, Type (0, 1), None
#     Edge 65, Type (0, 1), None
#     Edge 66, Type (0, 1), None
#     Edge 67, Type (0, 1), None
#     Edge 68, Type (0, 1), None
#     Edge 69, Type (0, 1), None
#     Edge 70, Type (0, 1), None
#     Edge 71, Type (0, 1), None
#     Edge 72, Type (0, 1), None
#     Edge 73, Type (0, 1), None
#     Edge 74, Type (0, 1), None
#     Edge 75, Type (0, 1), None
# Relax obj value: 0.110
# Max RMSD: 0.205
# Mean RMSD: 0.132
data_MOF--net-ctn--node1-KUFVIS_clean_sbu_0--node2-CUQRIR_clean_linker_1--edge1-none
_symmetry_space_group_name_H-M    P1
_symmetry_Int_Tables_number       1
_symmetry_cell_setting            triclinic
loop_
_symmetry_equiv_pos_as_xyz
'x, y, z'
_cell_length_a     19.390352
_cell_length_b     18.544627
_cell_length_c     18.042576
_cell_angle_alpha  97.969599
_cell_angle_beta   91.788107
_cell_angle_gamma 95.193705
loop_
_atom_site_label
_atom_site_type_symbol
_atom_site_fract_x
_atom_site_fract_y
_atom_site_fract_z
_atom_type_partial_charge
C0 C 0.05282 0.96596 0.14146 0.0
N1 N 0.09252 0.01177 0.10304 0.0
N2 N 1.01009 1.00267 0.18696 0.0
C3 C 1.02527 0.89145 0.10195 0.0
C4 C 1.01416 0.06956 0.16231 0.0
N5 N 0.06234 0.07583 0.10777 0.0
C6 C 0.96177 0.12344 0.1876 0.0
H7 H 0.05476 0.87435 0.05241 0.0
H8 H 0.97123 0.89367 0.08092 0.0
H9 H 1.02276 0.85065 0.14106 0.0
H10 H 0.95629 0.12359 0.24815 0.0
H11 H 0.91042 0.10444 0.16023 0.0
H12 H 0.97021 0.18051 0.17931 0.0
C13 C 0.31943 0.66619 0.23285 0.0
N14 N 0.32549 0.63616 0.29708 0.0
N15 N 0.32384 0.74043 0.24462 0.0
C16 C 0.32575 0.62121 0.15824 0.0
C17 C 0.33954 0.75217 0.32174 0.0
N18 N 0.3534 0.68965 0.35119 0.0
C19 C 0.31518 0.81403 0.37339 0.0
H20 H 0.38033 0.62974 0.14398 0.0
H21 H 0.29434 0.63781 0.11291 0.0
H22 H 0.31344 0.56204 0.16088 0.0
H23 H 0.29401 0.85548 0.34338 0.0
H24 H 0.3573 0.83946 0.41374 0.0
H25 H 0.27482 0.79098 0.40714 0.0
C26 C 1.00155 0.51164 0.13649 0.0
N27 N 0.04952 0.46335 0.14795 0.0
N28 N 0.9692 0.49829 0.06713 0.0
C29 C 0.99117 0.57905 0.18956 0.0
C30 C 1.00915 0.44812 1.03277 0.0
N31 N 0.05469 0.42143 0.08087 0.0
C32 C 1.00764 0.42738 0.9504 0.0
H33 H 0.95237 0.56377 0.22935 0.0
H34 H 0.98211 0.62298 0.157 0.0
H35 H 0.03488 0.60647 0.22381 0.0
H36 H 0.05959 0.41276 0.93469 0.0
H37 H 0.99464 0.47424 0.92264 0.0
H38 H 0.9697 0.37932 0.93415 0.0
C39 C 0.69984 0.73529 0.24519 0.0
N40 N 0.73821 0.77338 0.19764 0.0
N41 N 0.6595 0.77852 0.28791 0.0
C42 C 0.68878 0.65324 0.24155 0.0
C43 C 0.67539 0.84544 0.26983 0.0
N44 N 0.727 0.84544 0.21993 0.0
C45 C 0.65009 0.91342 0.31343 0.0
H46 H 0.63442 0.63397 0.22318 0.0
H47 H 0.69443 0.63679 0.2974 0.0
H48 H 0.72515 0.62314 0.2077 0.0
H49 H 0.67586 0.92395 0.3702 0.0
H50 H 0.59385 0.90526 0.31951 0.0
H51 H 0.65853 0.96282 0.28583 0.0
C52 C 0.99653 0.99997 0.52678 0.0
N53 N 0.05929 0.97862 0.5454 0.0
N54 N 0.99588 0.02961 0.46227 0.0
C55 C 0.93428 0.99451 0.57476 0.0
C56 C 0.06321 0.03176 0.44383 0.0
N57 N 0.10434 0.00903 0.49768 0.0
C58 C 0.08409 0.02962 0.36412 0.0
H59 H 0.90627 0.93926 0.5635 0.0
H60 H 0.89739 0.03324 0.56117 0.0
H61 H 0.95066 0.00583 0.63506 0.0
H62 H 0.05389 0.0641 0.33293 0.0
H63 H 0.07176 0.97324 0.33629 0.0
H64 H 0.14023 0.04298 0.35885 0.0
C65 C 0.1626 0.73319 0.8751 0.0
N66 N 0.22507 0.728 0.91039 0.0
N67 N 0.16881 0.73408 0.80145 0.0
C68 C 0.09359 0.73881 0.91146 0.0
C69 C 0.23665 0.72993 0.79204 0.0
N70 N 0.26752 0.71078 0.85404 0.0
C71 C 0.27079 0.7348 0.71899 0.0
H72 H 0.05596 0.76187 0.87616 0.0
H73 H 0.09846 0.77335 0.96603 0.0
H74 H 0.0707 0.68326 0.91853 0.0
H75 H 0.25045 0.77902 0.69233 0.0
H76 H 0.25925 0.68222 0.68147 0.0
H77 H 0.3277 0.74742 0.72768 0.0
C78 C 0.97378 0.48813 0.49525 0.0
N79 N 1.01161 0.54948 0.47889 0.0
N80 N 0.91539 0.50519 0.53125 0.0
C81 C 0.99539 0.41188 0.47904 0.0
C82 C 0.91966 0.57882 0.53659 0.0
N83 N 0.97982 0.60728 0.51026 0.0
C84 C 0.86738 0.62409 0.57762 0.0
H85 H 0.99015 0.39271 0.41849 0.0
H86 H 0.96481 0.37378 0.51041 0.0
H87 H 0.05105 0.41131 0.49342 0.0
H88 H 0.86584 0.6123 0.63598 0.0
H89 H 0.81419 0.60811 0.55431 0.0
H90 H 0.87866 0.68354 0.57605 0.0
C91 C 0.84615 0.8235 0.91066 0.0
N92 N 0.87883 0.76229 0.88693 0.0
N93 N 0.82026 0.85223 0.85144 0.0
C94 C 0.82498 0.84197 0.99158 0.0
C95 C 0.85278 0.82304 0.79314 0.0
N96 N 0.88954 0.77101 0.8132 0.0
C97 C 0.83919 0.83626 0.71269 0.0
H98 H 0.76957 0.85166 0.99356 0.0
H99 H 0.85674 0.88904 1.0227 0.0
H100 H 0.83624 0.79921 1.02588 0.0
H101 H 0.78338 0.84129 0.70128 0.0
H102 H 0.8545 0.79136 0.67112 0.0
H103 H 0.86873 0.88826 0.70377 0.0
C104 C 0.34615 0.3235 0.41066 0.0
N105 N 0.37883 0.26229 0.38693 0.0
N106 N 0.32026 0.35223 0.35144 0.0
C107 C 0.32498 0.34197 0.49158 0.0
C108 C 0.35278 0.32304 0.29314 0.0
N109 N 0.38954 0.27101 0.3132 0.0
C110 C 0.33919 0.33626 0.21269 0.0
H111 H 0.26957 0.35166 0.49356 0.0
H112 H 0.35674 0.38904 0.5227 0.0
H113 H 0.33624 0.29921 0.52588 0.0
H114 H 0.28338 0.34129 0.20128 0.0
H115 H 0.3545 0.29136 0.17112 0.0
H116 H 0.36873 0.38826 0.20377 0.0
C117 C 0.50155 0.01164 0.63649 0.0
N118 N 0.54952 0.96335 0.64795 0.0
N119 N 0.4692 0.99829 0.56713 0.0
C120 C 0.49117 0.07905 0.68956 0.0
C121 C 0.50915 0.94812 0.53277 0.0
N122 N 0.55469 0.92143 0.58087 0.0
C123 C 0.50764 0.92738 0.4504 0.0
H124 H 0.45237 0.06377 0.72935 0.0
H125 H 0.48211 0.12298 0.657 0.0
H126 H 0.53488 0.10647 0.72381 0.0
H127 H 0.55959 0.91276 0.43469 0.0
H128 H 0.49464 0.97424 0.42264 0.0
H129 H 0.4697 0.87932 0.43415 0.0
C130 C 0.19984 0.23529 0.74519 0.0
N131 N 0.23821 0.27338 0.69764 0.0
N132 N 0.1595 0.27852 0.78791 0.0
C133 C 0.18878 0.15324 0.74155 0.0
C134 C 0.17539 0.34544 0.76983 0.0
N135 N 0.227 0.34544 0.71993 0.0
C136 C 0.15009 0.41342 0.81343 0.0
H137 H 0.13442 0.13397 0.72318 0.0
H138 H 0.19443 0.13679 0.7974 0.0
H139 H 0.22515 0.12314 0.7077 0.0
H140 H 0.17586 0.42395 0.8702 0.0
H141 H 0.09385 0.40526 0.81951 0.0
H142 H 0.15853 0.46282 0.78583 0.0
C143 C 0.81943 0.16619 0.73285 0.0
N144 N 0.82549 0.13616 0.79708 0.0
N145 N 0.82384 0.24043 0.74462 0.0
C146 C 0.82575 0.12121 0.65824 0.0
C147 C 0.83954 0.25217 0.82174 0.0
N148 N 0.8534 0.18965 0.85119 0.0
C149 C 0.81518 0.31402 0.87339 0.0
H150 H 0.88033 0.12974 0.64398 0.0
H151 H 0.79434 0.13781 0.61291 0.0
H152 H 0.81344 0.06204 0.66088 0.0
H153 H 0.79401 0.35548 0.84338 0.0
H154 H 0.8573 0.33946 0.91374 0.0
H155 H 0.77482 0.29098 0.90714 0.0
C156 C 0.55282 0.46596 0.64146 0.0
N157 N 0.59252 0.51177 0.60304 0.0
N158 N 0.51009 0.50267 0.68696 0.0
C159 C 0.52527 0.39145 0.60195 0.0
C160 C 0.51416 0.56956 0.66231 0.0
N161 N 0.56234 0.57583 0.60777 0.0
C162 C 0.46177 0.62344 0.6876 0.0
H163 H 0.55476 0.37435 0.55241 0.0
H164 H 0.47123 0.39366 0.58092 0.0
H165 H 0.52276 0.35065 0.64106 0.0
H166 H 0.45629 0.62359 0.74815 0.0
H167 H 0.41042 0.60444 0.66023 0.0
H168 H 0.47021 0.68051 0.67931 0.0
C169 C 0.49653 0.49997 1.02678 0.0
N170 N 0.55929 0.47862 0.0454 0.0
N171 N 0.49588 0.52961 0.96227 0.0
C172 C 0.43428 0.49451 0.07476 0.0
C173 C 0.56321 0.53176 0.94383 0.0
N174 N 0.60434 0.50903 0.99768 0.0
C175 C 0.58409 0.52962 0.86412 0.0
H176 H 0.40627 0.43926 0.0635 0.0
H177 H 0.39739 0.53324 0.06117 0.0
H178 H 0.45066 0.50583 0.13506 0.0
H179 H 0.55389 0.5641 0.83293 0.0
H180 H 0.57176 0.47324 0.83629 0.0
H181 H 0.64023 0.54298 0.85885 0.0
C182 C 0.6626 0.23319 0.3751 0.0
N183 N 0.72507 0.228 0.41039 0.0
N184 N 0.66881 0.23408 0.30145 0.0
C185 C 0.59359 0.23881 0.41146 0.0
C186 C 0.73665 0.22993 0.29204 0.0
N187 N 0.76752 0.21078 0.35404 0.0
C188 C 0.77079 0.2348 0.21899 0.0
H189 H 0.55596 0.26187 0.37616 0.0
H190 H 0.59846 0.27335 0.46603 0.0
H191 H 0.5707 0.18326 0.41853 0.0
H192 H 0.75045 0.27902 0.19233 0.0
H193 H 0.75925 0.18222 0.18147 0.0
H194 H 0.8277 0.24742 0.22768 0.0
C195 C 0.47378 0.98813 0.99525 0.0
N196 N 0.51161 0.04948 0.97889 0.0
N197 N 0.41539 0.00519 1.03125 0.0
C198 C 0.49539 0.91188 0.97904 0.0
C199 C 0.41966 0.07882 0.03659 0.0
N200 N 0.47981 0.10728 1.01026 0.0
C201 C 0.36738 0.12409 0.07762 0.0
H202 H 0.49015 0.89271 0.91849 0.0
H203 H 0.46481 0.87378 1.01041 0.0
H204 H 0.55105 0.91131 0.99342 0.0
H205 H 0.36584 0.1123 0.13598 0.0
H206 H 0.31419 0.10811 0.05431 0.0
H207 H 0.37866 0.18354 0.07605 0.0
Mn208 Mn 0.25249 0.86078 0.09655 0.0
Mn209 Mn 0.22208 0.93228 0.93694 0.0
C210 C 0.24681 0.78001 0.97247 0.0
C211 C 0.30725 0.78658 0.19093 0.0
C212 C 0.15524 0.99148 0.07408 0.0
O213 O 0.34781 0.91014 0.07075 0.0
O214 O 0.30158 0.9827 0.99958 0.0
C215 C 0.34905 0.88805 0.86533 0.0
N216 N 0.27996 0.8941 0.86221 0.0
C217 C 0.28498 0.93426 0.74356 0.0
C218 C 0.35639 0.92853 0.744 0.0
C219 C 0.38853 0.90322 0.8044 0.0
C220 C 0.24723 0.90878 0.80045 0.0
H221 H 0.37254 0.87222 0.91417 0.0
C222 C 0.3541 0.96247 1.03182 0.0
O223 O 0.2921 0.85268 0.20696 0.0
O224 O 0.29728 0.76514 0.11943 0.0
N225 N 0.14725 0.89842 0.86794 0.0
C226 C 0.07953 0.90885 0.88027 0.0
C227 C 0.04039 0.93928 0.82811 0.0
C228 C 0.0728 0.96342 0.76658 0.0
C229 C 0.14264 0.95255 0.7558 0.0
C230 C 0.17661 0.9141 0.80453 0.0
H231 H 0.05723 0.89911 0.93238 0.0
O232 O 0.27767 0.76329 1.03182 0.0
O233 O 0.22058 0.84205 0.98687 0.0
O234 O 0.19975 0.96221 0.11481 0.0
O235 O 0.15689 0.97986 1.00392 0.0
C236 C 0.18156 0.98463 0.70273 0.0
C237 C 0.25218 0.97434 0.69586 0.0
H238 H 0.38723 0.94607 0.69984 0.0
H239 H 0.44383 0.89974 0.80511 0.0
H240 H 0.987 0.94882 0.83806 0.0
H241 H 0.04442 0.99259 0.72958 0.0
H242 H 0.15644 0.01678 0.66648 0.0
H243 H 0.28302 1.00099 0.6573 0.0
Mn244 Mn 0.1877 0.48288 0.34495 0.0
Mn245 Mn 0.11826 0.61523 0.30025 0.0
C246 C 0.27196 0.58228 0.30722 0.0
C247 C 0.26785 0.39332 0.34369 0.0
C248 C 0.08704 0.46749 0.21757 0.0
O249 O 0.08979 0.49125 0.39933 0.0
O250 O 0.0781 0.60963 0.39914 0.0
C251 C 0.1375 0.75899 0.39084 0.0
N252 N 0.1463 0.7154 0.32582 0.0
C253 C 0.15302 0.81794 0.26133 0.0
C254 C 0.15654 0.86469 0.32905 0.0
C255 C 0.14597 0.83504 0.39478 0.0
C256 C 0.15202 0.74352 0.26211 0.0
H257 H 0.12364 0.7357 0.43819 0.0
C258 C 0.0617 0.55034 0.42546 0.0
O259 O 0.20737 0.38177 0.36948 0.0
O260 O 0.27851 0.45015 0.31061 0.0
N261 N 0.15377 0.62443 0.20397 0.0
C262 C 0.16701 0.57483 0.14421 0.0
C263 C 0.16374 0.59429 0.07252 0.0
C264 C 0.15232 0.66594 0.06457 0.0
C265 C 0.14916 0.71846 0.12785 0.0
C266 C 0.15234 0.69518 0.19716 0.0
H267 H 0.18278 0.52203 0.15031 0.0
O268 O 0.28322 0.51433 0.29884 0.0
O269 O 0.21066 0.59099 0.33462 0.0
O270 O 0.14284 0.43953 0.23134 0.0
O271 O 0.07336 0.51344 0.27101 0.0
C272 C 0.14422 0.79302 0.12618 0.0
C273 C 0.14776 0.84248 0.1932 0.0
H274 H 0.16795 0.92275 0.33066 0.0
H275 H 0.14373 0.87024 0.44741 0.0
H276 H 0.17185 0.55503 1.02404 0.0
H277 H 0.15119 0.67987 1.00984 0.0
H278 H 0.14034 0.81376 0.07459 0.0
H279 H 0.14433 0.89941 0.19474 0.0
Mn280 Mn 0.79948 0.59438 1.02519 0.0
Mn281 Mn 0.68533 0.69914 0.96342 0.0
C282 C 0.67423 0.54142 1.0101 0.0
C283 C 0.90854 0.5284 0.04519 0.0
C284 C 0.74889 0.73675 0.12391 0.0
O285 O 0.86112 0.67235 0.96818 0.0
O286 O 0.77289 0.70726 0.90764 0.0
C287 C 0.66574 0.68945 0.80093 0.0
N288 N 0.63714 0.68266 0.86823 0.0
C289 C 0.53485 0.735 0.83001 0.0
C290 C 0.56707 0.75018 0.76476 0.0
C291 C 0.63153 0.72462 0.74867 0.0
C292 C 0.57346 0.70479 0.88216 0.0
H293 H 0.71665 0.67285 0.78892 0.0
C294 C 0.83867 0.70372 0.91313 0.0
O295 O 0.88391 0.57779 0.08744 0.0
O296 O 0.86757 0.50926 0.98654 0.0
N297 N 0.59707 0.68957 1.00461 0.0
C298 C 0.57858 0.67704 0.07375 0.0
C299 C 0.50986 0.68343 0.09383 0.0
C300 C 0.46216 0.70525 0.04279 0.0
C301 C 0.48292 0.71556 0.97093 0.0
C302 C 0.55049 0.7029 0.95313 0.0
H303 H 0.61651 0.66339 0.11239 0.0
O304 O 0.71969 0.51915 0.0531 0.0
O305 O 0.7031 0.59332 0.97386 0.0
O306 O 0.77262 0.67382 0.11472 0.0
O307 O 0.72183 0.75614 0.0657 0.0
C308 C 0.44007 0.73857 0.91639 0.0
C309 C 0.46674 0.7505 0.84664 0.0
H310 H 0.542 0.77997 0.72577 0.0
H311 H 0.65574 0.73392 0.69713 0.0
H312 H 0.49499 0.67464 0.14936 0.0
H313 H 0.41007 0.71389 0.05904 0.0
H314 H 0.38784 0.75004 0.92894 0.0
H315 H 0.43418 0.76967 0.80542 0.0
Mn316 Mn 0.83811 0.02788 0.29284 0.0
Mn317 Mn 0.89193 0.89021 0.35223 0.0
C318 C 0.77616 0.90663 0.23652 0.0
C319 C 0.79627 0.14448 0.33911 0.0
C320 C 0.95466 0.97325 0.22376 0.0
O321 O 0.93019 0.06281 0.36255 0.0
O322 O 0.89029 0.97913 0.42075 0.0
C323 C 0.79371 0.87694 0.47516 0.0
N324 N 0.83078 0.8457 0.41816 0.0
C325 C 0.79018 0.72529 0.44179 0.0
C326 C 0.75458 0.75587 0.50307 0.0
C327 C 0.75573 0.83223 0.51928 0.0
C328 C 0.82827 0.7729 0.40101 0.0
H329 H 0.7931 0.93557 0.4873 0.0
C330 C 0.93667 0.02855 0.4178 0.0
O331 O 0.83481 0.13274 0.28242 0.0
O332 O 0.7766 0.08583 0.36834 0.0
N333 N 0.88717 0.7987 0.29603 0.0
C334 C 0.90546 0.78222 0.22501 0.0
C335 C 0.89514 0.71055 0.19215 0.0
C336 C 0.86613 0.65649 0.23345 0.0
C337 C 0.85002 0.67461 0.30747 0.0
C338 C 0.85837 0.748 0.33594 0.0
H339 H 0.92263 0.82419 0.19256 0.0
O340 O 0.76065 0.96982 0.22082 0.0
O341 O 0.81444 0.92036 0.29869 0.0
O342 O 0.89742 0.99597 0.2107 0.0
O343 O 0.96182 0.93553 0.27924 0.0
C344 C 0.81816 0.62415 0.35046 0.0
C345 C 0.78661 0.6497 0.41692 0.0
H346 H 0.72438 0.72134 0.53634 0.0
H347 H 0.72702 0.85657 0.56524 0.0
H348 H 0.90574 0.69986 0.13364 0.0
H349 H 0.85161 0.60141 0.20789 0.0
H350 H 0.81227 0.56643 0.32992 0.0
H351 H 0.7559 0.61114 0.44526 0.0
Mn352 Mn 0.29948 0.09438 0.52519 0.0
Mn353 Mn 0.18533 0.19914 0.46342 0.0
C354 C 0.17423 0.04142 0.5101 0.0
C355 C 0.40854 0.0284 0.54519 0.0
C356 C 0.24889 0.23675 0.62391 0.0
O357 O 0.36112 0.17235 0.46818 0.0
O358 O 0.27289 0.20726 0.40764 0.0
C359 C 0.16574 0.18945 0.30093 0.0
N360 N 0.13714 0.18266 0.36823 0.0
C361 C 0.03485 0.235 0.33001 0.0
C362 C 0.06707 0.25018 0.26476 0.0
C363 C 0.13153 0.22462 0.24867 0.0
C364 C 0.07346 0.20479 0.38216 0.0
H365 H 0.21665 0.17285 0.28892 0.0
C366 C 0.33867 0.20372 0.41313 0.0
O367 O 0.38391 0.07779 0.58744 0.0
O368 O 0.36757 0.00926 0.48654 0.0
N369 N 0.09707 0.18957 0.50461 0.0
C370 C 0.07858 0.17704 0.57375 0.0
C371 C 1.00986 0.18343 0.59383 0.0
C372 C 0.96216 0.20525 0.54279 0.0
C373 C 0.98292 0.21556 0.47093 0.0
C374 C 0.05049 0.2029 0.45313 0.0
H375 H 0.11651 0.16339 0.61239 0.0
O376 O 0.21969 0.01915 0.5531 0.0
O377 O 0.2031 0.09332 0.47386 0.0
O378 O 0.27262 0.17382 0.61472 0.0
O379 O 0.22183 0.25614 0.5657 0.0
C380 C 0.94007 0.23857 0.41639 0.0
C381 C 0.96674 0.2505 0.34664 0.0
H382 H 0.042 0.27997 0.22577 0.0
H383 H 0.15574 0.23392 0.19713 0.0
H384 H 0.99499 0.17464 0.64936 0.0
H385 H 0.91007 0.21389 0.55904 0.0
H386 H 0.88784 0.25004 0.42894 0.0
H387 H 0.93418 0.26967 0.30542 0.0
Mn388 Mn 0.33811 0.52788 0.79284 0.0
Mn389 Mn 0.39193 0.39021 0.85223 0.0
C390 C 0.27616 0.40663 0.73652 0.0
C391 C 0.29627 0.64448 0.83911 0.0
C392 C 0.45466 0.47325 0.72376 0.0
O393 O 0.43019 0.56281 0.86255 0.0
O394 O 0.39029 0.47913 0.92075 0.0
C395 C 0.29371 0.37694 0.97516 0.0
N396 N 0.33078 0.3457 0.91816 0.0
C397 C 0.29018 0.22529 0.94179 0.0
C398 C 0.25458 0.25587 1.00307 0.0
C399 C 0.25573 0.33223 1.01928 0.0
C400 C 0.32827 0.2729 0.90101 0.0
H401 H 0.2931 0.43557 0.9873 0.0
C402 C 0.43667 0.52855 0.9178 0.0
O403 O 0.33481 0.63274 0.78242 0.0
O404 O 0.2766 0.58583 0.86834 0.0
N405 N 0.38717 0.2987 0.79603 0.0
C406 C 0.40546 0.28222 0.72501 0.0
C407 C 0.39514 0.21055 0.69215 0.0
C408 C 0.36613 0.15649 0.73345 0.0
C409 C 0.35002 0.17461 0.80747 0.0
C410 C 0.35837 0.248 0.83594 0.0
H411 H 0.42263 0.32419 0.69256 0.0
O412 O 0.26065 0.46982 0.72082 0.0
O413 O 0.31444 0.42036 0.79869 0.0
O414 O 0.39742 0.49597 0.7107 0.0
O415 O 0.46182 0.43553 0.77924 0.0
C416 C 0.31816 0.12415 0.85046 0.0
C417 C 0.28661 0.1497 0.91692 0.0
H418 H 0.22438 0.22134 0.03634 0.0
H419 H 0.22702 0.35657 0.06524 0.0
H420 H 0.40574 0.19986 0.63364 0.0
H421 H 0.35161 0.10141 0.70789 0.0
H422 H 0.31227 0.06643 0.82992 0.0
H423 H 0.2559 0.11114 0.94526 0.0
Mn424 Mn 0.75249 0.36078 0.59655 0.0
Mn425 Mn 0.72208 0.43228 0.43694 0.0
C426 C 0.74681 0.28001 0.47247 0.0
C427 C 0.80725 0.28658 0.69093 0.0
C428 C 0.65524 0.49148 0.57408 0.0
O429 O 0.84781 0.41014 0.57075 0.0
O430 O 0.80158 0.4827 0.49958 0.0
C431 C 0.84905 0.38805 0.36533 0.0
N432 N 0.77996 0.3941 0.36221 0.0
C433 C 0.78498 0.43426 0.24356 0.0
C434 C 0.85639 0.42853 0.244 0.0
C435 C 0.88853 0.40322 0.3044 0.0
C436 C 0.74723 0.40878 0.30045 0.0
H437 H 0.87254 0.37222 0.41417 0.0
C438 C 0.8541 0.46247 0.53182 0.0
O439 O 0.7921 0.35268 0.70696 0.0
O440 O 0.79728 0.26514 0.61943 0.0
N441 N 0.64725 0.39842 0.36794 0.0
C442 C 0.57953 0.40885 0.38027 0.0
C443 C 0.54039 0.43928 0.32811 0.0
C444 C 0.5728 0.46342 0.26658 0.0
C445 C 0.64264 0.45255 0.2558 0.0
C446 C 0.67661 0.4141 0.30453 0.0
H447 H 0.55723 0.39911 0.43238 0.0
O448 O 0.77767 0.26329 0.53182 0.0
O449 O 0.72058 0.34205 0.48687 0.0
O450 O 0.69975 0.46221 0.61481 0.0
O451 O 0.65689 0.47986 0.50392 0.0
C452 C 0.68156 0.48463 0.20273 0.0
C453 C 0.75218 0.47434 0.19586 0.0
H454 H 0.88723 0.44607 0.19984 0.0
H455 H 0.94383 0.39974 0.30511 0.0
H456 H 0.487 0.44882 0.33806 0.0
H457 H 0.54442 0.49259 0.22958 0.0
H458 H 0.65644 0.51678 0.16648 0.0
H459 H 0.78302 0.50099 0.1573 0.0
Mn460 Mn 0.6877 0.98288 0.84495 0.0
Mn461 Mn 0.61826 0.11523 0.80025 0.0
C462 C 0.77196 0.08228 0.80722 0.0
C463 C 0.76785 0.89332 0.84369 0.0
C464 C 0.58704 0.96749 0.71757 0.0
O465 O 0.58979 0.99125 0.89933 0.0
O466 O 0.5781 0.10963 0.89914 0.0
C467 C 0.6375 0.25899 0.89084 0.0
N468 N 0.6463 0.2154 0.82582 0.0
C469 C 0.65302 0.31794 0.76133 0.0
C470 C 0.65654 0.36469 0.82905 0.0
C471 C 0.64597 0.33504 0.89478 0.0
C472 C 0.65202 0.24352 0.76211 0.0
H473 H 0.62364 0.2357 0.93819 0.0
C474 C 0.5617 0.05034 0.92546 0.0
O475 O 0.70737 0.88177 0.86948 0.0
O476 O 0.77851 0.95015 0.81061 0.0
N477 N 0.65377 0.12443 0.70397 0.0
C478 C 0.66701 0.07483 0.64421 0.0
C479 C 0.66374 0.09429 0.57252 0.0
C480 C 0.65232 0.16594 0.56457 0.0
C481 C 0.64916 0.21846 0.62785 0.0
C482 C 0.65234 0.19518 0.69716 0.0
H483 H 0.68278 0.02203 0.65031 0.0
O484 O 0.78322 0.01433 0.79884 0.0
O485 O 0.71066 0.09099 0.83462 0.0
O486 O 0.64284 0.93953 0.73134 0.0
O487 O 0.57336 0.01344 0.77101 0.0
C488 C 0.64422 0.29302 0.62618 0.0
C489 C 0.64776 0.34248 0.6932 0.0
H490 H 0.66795 0.42275 0.83066 0.0
H491 H 0.64373 0.37024 0.94741 0.0
H492 H 0.67185 0.05503 0.52404 0.0
H493 H 0.65119 0.17987 0.50984 0.0
H494 H 0.64034 0.31376 0.57459 0.0
H495 H 0.64433 0.39941 0.69474 0.0
Mn496 Mn 0.04411 0.21757 0.93255 0.0
Mn497 Mn 0.9454 0.22266 0.0612 0.0
C498 C 0.91958 0.18648 0.8899 0.0
C499 C 0.11672 0.25878 0.8419 0.0
C500 C 0.06421 0.13319 0.06267 0.0
O501 O 0.08236 0.30901 1.01817 0.0
O502 O 0.99132 0.31876 0.09144 0.0
C503 C 0.84483 0.33121 0.06558 0.0
N504 N 0.85942 0.26024 0.0557 0.0
C505 C 0.74098 0.21751 1.03381 0.0
C506 C 0.72346 0.28915 0.04766 0.0
C507 C 0.77594 0.34664 0.05995 0.0
C508 C 0.81012 0.20523 0.03924 0.0
H509 H 0.88531 0.37537 0.07608 0.0
C510 C 0.04884 0.34603 0.07087 0.0
O511 O 0.13177 0.20914 0.88086 0.0
O512 O 0.05901 0.2871 0.85617 0.0
N513 N 0.89892 0.12793 1.0301 0.0
C514 C 0.92215 0.06347 0.99904 0.0
C515 C 0.87621 0.00526 0.96996 0.0
C516 C 0.80611 0.01043 0.97856 0.0
C517 C 0.78334 0.07785 0.99893 0.0
C518 C 0.8309 0.13612 1.02491 0.0
H519 H 0.97372 0.05241 0.9928 0.0
O520 O 0.96946 0.15361 0.85716 0.0
O521 O 0.94506 0.23136 0.95045 0.0
O522 O 0.06724 0.12575 0.99177 0.0
O523 O 0.03834 0.19053 0.08649 0.0
C524 C 0.71447 0.08851 0.99322 0.0
C525 C 0.69295 0.15743 1.01353 0.0
H526 H 0.67026 0.30018 0.04527 0.0
H527 H 0.76344 0.40194 0.06285 0.0
H528 H 0.89661 0.95715 0.94241 0.0
H529 H 0.76869 0.9643 0.96814 0.0
H530 H 0.67857 0.0415 0.97999 0.0
H531 H 0.63953 0.16199 1.01697 0.0
Mn532 Mn 0.54411 0.71757 0.43255 0.0
Mn533 Mn 0.4454 0.72266 0.5612 0.0
C534 C 0.41958 0.68648 0.3899 0.0
C535 C 0.61672 0.75878 0.3419 0.0
C536 C 0.56421 0.63319 0.56267 0.0
O537 O 0.58236 0.80901 0.51817 0.0
O538 O 0.49132 0.81876 0.59144 0.0
C539 C 0.34483 0.83121 0.56558 0.0
N540 N 0.35942 0.76024 0.5557 0.0
C541 C 0.24098 0.71751 0.53381 0.0
C542 C 0.22346 0.78915 0.54766 0.0
C543 C 0.27594 0.84664 0.55995 0.0
C544 C 0.31012 0.70523 0.53924 0.0
H545 H 0.38531 0.87537 0.57608 0.0
C546 C 0.54884 0.84603 0.57087 0.0
O547 O 0.63177 0.70914 0.38086 0.0
O548 O 0.55901 0.7871 0.35617 0.0
N549 N 0.39892 0.62793 0.5301 0.0
C550 C 0.42215 0.56347 0.49904 0.0
C551 C 0.37621 0.50526 0.46996 0.0
C552 C 0.30611 0.51043 0.47856 0.0
C553 C 0.28334 0.57785 0.49893 0.0
C554 C 0.3309 0.63612 0.52491 0.0
H555 H 0.47372 0.55241 0.4928 0.0
O556 O 0.46946 0.65361 0.35716 0.0
O557 O 0.44506 0.73136 0.45045 0.0
O558 O 0.56724 0.62575 0.49177 0.0
O559 O 0.53834 0.69053 0.58649 0.0
C560 C 0.21447 0.5885 0.49322 0.0
C561 C 0.19295 0.65743 0.51353 0.0
H562 H 0.17026 0.80018 0.54527 0.0
H563 H 0.26344 0.90194 0.56285 0.0
H564 H 0.39661 0.45715 0.44241 0.0
H565 H 0.26869 0.4643 0.46814 0.0
H566 H 0.17857 0.5415 0.47999 0.0
H567 H 0.13953 0.66199 0.51697 0.0
Mn568 Mn 0.0479 0.78965 0.63187 0.0
Mn569 Mn 0.99291 0.6186 0.68871 0.0
C570 C 1.01246 0.67063 0.55045 0.0
C571 C 0.05657 0.91012 0.57378 0.0
C572 C 0.11698 0.71891 0.74811 0.0
O573 O 0.97942 0.79492 0.73067 0.0
O574 O 0.93295 0.67999 0.74352 0.0
C575 C 0.9185 0.54135 0.79675 0.0
N576 N 0.96987 0.54344 0.74712 0.0
C577 C 0.97255 0.41328 0.73472 0.0
C578 C 0.92556 0.41163 0.79004 0.0
C579 C 0.89457 0.47443 0.81811 0.0
C580 C 0.99247 0.48078 0.71319 0.0
H581 H 0.89439 0.58963 0.81811 0.0
C582 C 0.94074 0.74776 0.76651 0.0
O583 O 0.10541 0.88734 0.60965 0.0
O584 O 1.00023 0.86586 0.57526 0.0
N585 N 0.0581 0.5547 0.64487 0.0
C586 C 0.12545 0.57226 0.63118 0.0
C587 C 0.17035 0.5172 0.61737 0.0
C588 C 0.14486 0.44401 0.61164 0.0
C589 C 0.07966 0.4281 0.63831 0.0
C590 C 0.04034 0.48667 0.66028 0.0
H591 H 0.14613 0.62772 0.63595 0.0
O592 O 0.04392 0.72368 0.52437 0.0
O593 O 1.00316 0.68811 0.61863 0.0
O594 O 0.12347 0.74571 0.68702 0.0
O595 O 0.06705 0.67135 0.75817 0.0
C596 C 0.05733 0.35858 0.6548 0.0
C597 C 1.00238 0.35065 0.7025 0.0
H598 H 0.91666 0.36219 0.81222 0.0
H599 H 0.85288 0.47131 0.8558 0.0
H600 H 0.22508 0.53111 0.6134 0.0
H601 H 0.17893 0.40158 0.59709 0.0
H602 H 0.08691 0.31319 0.63782 0.0
H603 H 0.9873 0.29769 0.71892 0.0
Mn604 Mn 0.5479 0.28965 0.13187 0.0
Mn605 Mn 0.49291 0.1186 0.18871 0.0
C606 C 0.51246 0.17063 0.05045 0.0
C607 C 0.55658 0.41012 0.07378 0.0
C608 C 0.61698 0.21891 0.24811 0.0
O609 O 0.47942 0.29492 0.23067 0.0
O610 O 0.43295 0.17999 0.24352 0.0
C611 C 0.4185 0.04135 0.29675 0.0
N612 N 0.46987 0.04344 0.24712 0.0
C613 C 0.47255 0.91328 0.23472 0.0
C614 C 0.42556 0.91163 0.29004 0.0
C615 C 0.39457 0.97442 0.31811 0.0
C616 C 0.49247 0.98078 0.21318 0.0
H617 H 0.39439 0.08963 0.31811 0.0
C618 C 0.44074 0.24776 0.26651 0.0
O619 O 0.60541 0.38734 0.10965 0.0
O620 O 0.50023 0.36586 0.07526 0.0
N621 N 0.5581 0.0547 0.14487 0.0
C622 C 0.62545 0.07226 0.13118 0.0
C623 C 0.67035 0.0172 0.11737 0.0
C624 C 0.64486 0.94401 0.11164 0.0
C625 C 0.57966 0.9281 0.13831 0.0
C626 C 0.54034 0.98667 0.16028 0.0
H627 H 0.64613 0.12772 0.13595 0.0
O628 O 0.54392 0.22368 1.02437 0.0
O629 O 0.50317 0.18811 0.11863 0.0
O630 O 0.62347 0.24571 0.18702 0.0
O631 O 0.56705 0.17135 0.25817 0.0
C632 C 0.55733 0.85858 0.1548 0.0
C633 C 0.50238 0.85065 0.2025 0.0
H634 H 0.41666 0.86219 0.31222 0.0
H635 H 0.35289 0.97131 0.3558 0.0
H636 H 0.72508 0.03111 0.1134 0.0
H637 H 0.67893 0.90158 0.09709 0.0
H638 H 0.58691 0.81319 0.13782 0.0
H639 H 0.4873 0.79769 0.21892 0.0
loop_
_geom_bond_atom_site_label_1
_geom_bond_atom_site_label_2
_geom_bond_distance
_geom_bond_site_symmetry_2
_ccdc_geom_bond_type
C0 N1 1.318 . S
C0 N2 1.348 1_465 S
C0 C3 1.485 . S
N1 C0 1.318 . S
N1 N5 1.368 1_565 S
N2 C0 1.348 1_645 S
N2 C4 1.346 . S
C3 C0 1.485 . S
C3 H7 0.960 . S
C3 H8 0.961 . S
C3 H9 0.960 . S
C4 N2 1.346 . S
C4 N5 1.307 1_655 S
C4 C6 1.486 . S
N5 N1 1.368 1_545 S
N5 C4 1.307 1_455 S
C6 C4 1.486 . S
C6 H10 0.960 . S
C6 H11 0.960 . S
C6 H12 0.959 . S
H7 C3 0.960 . S
H8 C3 0.961 . S
H9 C3 0.960 . S
H10 C6 0.960 . S
H11 C6 0.960 . S
H12 C6 0.959 . S
C13 N14 1.317 . S
C13 N15 1.348 . S
C13 C16 1.485 . S
N14 C13 1.317 . S
N14 N18 1.370 . S
N15 C13 1.348 . S
N15 C17 1.346 . S
C16 C13 1.485 . S
C16 H20 0.960 . S
C16 H21 0.961 . S
C16 H22 0.960 . S
C17 N15 1.346 . S
C17 N18 1.307 . S
C17 C19 1.486 . S
N18 N14 1.370 . S
N18 C17 1.307 . S
C19 C17 1.486 . S
C19 H23 0.960 . S
C19 H24 0.960 . S
C19 H25 0.959 . S
H20 C16 0.960 . S
H21 C16 0.961 . S
H22 C16 0.960 . S
H23 C19 0.960 . S
H24 C19 0.960 . S
H25 C19 0.959 . S
C26 N27 1.317 1_655 S
C26 N28 1.348 . S
C26 C29 1.485 . S
N27 C26 1.317 1_455 S
N27 N31 1.370 1_455 S
N28 C26 1.348 . S
N28 C30 1.346 . S
C29 C26 1.485 . S
C29 H33 0.960 . S
C29 H34 0.961 . S
C29 H35 0.960 1_655 S
C30 N28 1.346 . S
C30 N31 1.307 . S
C30 C32 1.486 1_554 S
N31 N27 1.370 1_655 S
N31 C30 1.307 . S
C32 C30 1.486 1_556 S
C32 H36 0.960 . S
C32 H37 0.960 . S
C32 H38 0.959 . S
H33 C29 0.960 . S
H34 C29 0.961 . S
H35 C29 0.960 1_455 S
H36 C32 0.960 . S
H37 C32 0.960 . S
H38 C32 0.959 . S
C39 N40 1.317 . S
C39 N41 1.348 . S
C39 C42 1.485 . S
N40 C39 1.317 . S
N40 N44 1.370 . S
N41 C39 1.348 . S
N41 C43 1.346 . S
C42 C39 1.485 . S
C42 H46 0.960 . S
C42 H47 0.961 . S
C42 H48 0.960 . S
C43 N41 1.346 . S
C43 N44 1.307 . S
C43 C45 1.486 . S
N44 N40 1.370 . S
N44 C43 1.307 . S
C45 C43 1.486 . S
C45 H49 0.960 . S
C45 H50 0.960 . S
C45 H51 0.959 . S
H46 C42 0.960 . S
H47 C42 0.961 . S
H48 C42 0.960 . S
H49 C45 0.960 . S
H50 C45 0.960 . S
H51 C45 0.959 . S
C52 N53 1.317 1_655 S
C52 N54 1.348 1_565 S
C52 C55 1.485 . S
N53 C52 1.317 1_455 S
N53 N57 1.370 1_565 S
N54 C52 1.348 1_545 S
N54 C56 1.346 1_655 S
C55 C52 1.485 . S
C55 H59 0.960 . S
C55 H60 0.961 . S
C55 H61 0.960 . S
C56 N54 1.346 1_455 S
C56 N57 1.307 . S
C56 C58 1.486 . S
N57 N53 1.370 1_545 S
N57 C56 1.307 . S
C58 C56 1.486 . S
C58 H62 0.960 . S
C58 H63 0.960 . S
C58 H64 0.959 . S
H59 C55 0.960 . S
H60 C55 0.961 . S
H61 C55 0.960 . S
H62 C58 0.960 . S
H63 C58 0.960 . S
H64 C58 0.959 . S
C65 N66 1.317 . S
C65 N67 1.348 . S
C65 C68 1.485 . S
N66 C65 1.317 . S
N66 N70 1.370 . S
N67 C65 1.348 . S
N67 C69 1.346 . S
C68 C65 1.485 . S
C68 H72 0.960 . S
C68 H73 0.961 . S
C68 H74 0.960 . S
C69 N67 1.346 . S
C69 N70 1.307 . S
C69 C71 1.486 . S
N70 N66 1.370 . S
N70 C69 1.307 . S
C71 C69 1.486 . S
C71 H75 0.960 . S
C71 H76 0.960 . S
C71 H77 0.959 . S
H72 C68 0.960 . S
H73 C68 0.961 . S
H74 C68 0.960 . S
H75 C71 0.960 . S
H76 C71 0.960 . S
H77 C71 0.959 . S
C78 N79 1.317 1_655 S
C78 N80 1.348 . S
C78 C81 1.485 . S
N79 C78 1.317 1_455 S
N79 N83 1.370 1_455 S
N80 C78 1.348 . S
N80 C82 1.346 . S
C81 C78 1.485 . S
C81 H85 0.960 . S
C81 H86 0.961 . S
C81 H87 0.960 1_655 S
C82 N80 1.346 . S
C82 N83 1.307 . S
C82 C84 1.486 . S
N83 N79 1.370 1_655 S
N83 C82 1.307 . S
C84 C82 1.486 . S
C84 H88 0.960 . S
C84 H89 0.960 . S
C84 H90 0.959 . S
H85 C81 0.960 . S
H86 C81 0.961 . S
H87 C81 0.960 1_455 S
H88 C84 0.960 . S
H89 C84 0.960 . S
H90 C84 0.959 . S
C91 N92 1.317 . S
C91 N93 1.348 . S
C91 C94 1.485 . S
N92 C91 1.317 . S
N92 N96 1.370 . S
N93 C91 1.348 . S
N93 C95 1.346 . S
C94 C91 1.485 . S
C94 H98 0.960 . S
C94 H99 0.961 . S
C94 H100 0.960 . S
C95 N93 1.346 . S
C95 N96 1.307 . S
C95 C97 1.486 . S
N96 N92 1.370 . S
N96 C95 1.307 . S
C97 C95 1.486 . S
C97 H101 0.960 . S
C97 H102 0.960 . S
C97 H103 0.959 . S
H98 C94 0.960 . S
H99 C94 0.961 . S
H100 C94 0.960 . S
H101 C97 0.960 . S
H102 C97 0.960 . S
H103 C97 0.959 . S
C104 N105 1.317 . S
C104 N106 1.348 . S
C104 C107 1.485 . S
N105 C104 1.317 . S
N105 N109 1.370 . S
N106 C104 1.348 . S
N106 C108 1.346 . S
C107 C104 1.485 . S
C107 H111 0.960 . S
C107 H112 0.961 . S
C107 H113 0.960 . S
C108 N106 1.346 . S
C108 N109 1.307 . S
C108 C110 1.486 . S
N109 N105 1.370 . S
N109 C108 1.307 . S
C110 C108 1.486 . S
C110 H114 0.960 . S
C110 H115 0.960 . S
C110 H116 0.959 . S
H111 C107 0.960 . S
H112 C107 0.961 . S
H113 C107 0.960 . S
H114 C110 0.960 . S
H115 C110 0.960 . S
H116 C110 0.959 . S
C117 N118 1.317 1_545 S
C117 N119 1.348 . S
C117 C120 1.485 . S
N118 C117 1.317 1_565 S
N118 N122 1.370 . S
N119 C117 1.348 . S
N119 C121 1.346 1_545 S
C120 C117 1.485 . S
C120 H124 0.960 . S
C120 H125 0.961 . S
C120 H126 0.960 . S
C121 N119 1.346 1_565 S
C121 N122 1.307 . S
C121 C123 1.486 . S
N122 N118 1.370 . S
N122 C121 1.307 . S
C123 C121 1.486 . S
C123 H127 0.960 . S
C123 H128 0.960 . S
C123 H129 0.959 . S
H124 C120 0.960 . S
H125 C120 0.961 . S
H126 C120 0.960 . S
H127 C123 0.960 . S
H128 C123 0.960 . S
H129 C123 0.959 . S
C130 N131 1.317 . S
C130 N132 1.348 . S
C130 C133 1.485 . S
N131 C130 1.317 . S
N131 N135 1.370 . S
N132 C130 1.348 . S
N132 C134 1.346 . S
C133 C130 1.485 . S
C133 H137 0.960 . S
C133 H138 0.961 . S
C133 H139 0.960 . S
C134 N132 1.346 . S
C134 N135 1.307 . S
C134 C136 1.486 . S
N135 N131 1.370 . S
N135 C134 1.307 . S
C136 C134 1.486 . S
C136 H140 0.960 . S
C136 H141 0.960 . S
C136 H142 0.959 . S
H137 C133 0.960 . S
H138 C133 0.961 . S
H139 C133 0.960 . S
H140 C136 0.960 . S
H141 C136 0.960 . S
H142 C136 0.959 . S
C143 N144 1.317 . S
C143 N145 1.348 . S
C143 C146 1.485 . S
N144 C143 1.317 . S
N144 N148 1.370 . S
N145 C143 1.348 . S
N145 C147 1.346 . S
C146 C143 1.485 . S
C146 H150 0.960 . S
C146 H151 0.961 . S
C146 H152 0.960 . S
C147 N145 1.346 . S
C147 N148 1.307 . S
C147 C149 1.486 . S
N148 N144 1.370 . S
N148 C147 1.307 . S
C149 C147 1.486 . S
C149 H153 0.960 . S
C149 H154 0.960 . S
C149 H155 0.959 . S
H150 C146 0.960 . S
H151 C146 0.961 . S
H152 C146 0.960 . S
H153 C149 0.960 . S
H154 C149 0.960 . S
H155 C149 0.959 . S
C156 N157 1.317 . S
C156 N158 1.348 . S
C156 C159 1.485 . S
N157 C156 1.317 . S
N157 N161 1.370 . S
N158 C156 1.348 . S
N158 C160 1.346 . S
C159 C156 1.485 . S
C159 H163 0.960 . S
C159 H164 0.961 . S
C159 H165 0.960 . S
C160 N158 1.346 . S
C160 N161 1.307 . S
C160 C162 1.486 . S
N161 N157 1.370 . S
N161 C160 1.307 . S
C162 C160 1.486 . S
C162 H166 0.960 . S
C162 H167 0.960 . S
C162 H168 0.959 . S
H163 C159 0.960 . S
H164 C159 0.961 . S
H165 C159 0.960 . S
H166 C162 0.960 . S
H167 C162 0.960 . S
H168 C162 0.959 . S
C169 N170 1.317 1_556 S
C169 N171 1.348 . S
C169 C172 1.485 1_556 S
N170 C169 1.317 1_554 S
N170 N174 1.370 . S
N171 C169 1.348 . S
N171 C173 1.346 . S
C172 C169 1.485 1_554 S
C172 H176 0.960 1_554 S
C172 H177 0.963 . S
C172 H178 0.960 . S
C173 N171 1.346 . S
C173 N174 1.307 1_556 S
C173 C175 1.486 . S
N174 N170 1.370 . S
N174 C173 1.307 1_554 S
C175 C173 1.486 . S
C175 H179 0.960 . S
C175 H180 0.960 . S
C175 H181 0.959 . S
H176 C172 0.960 1_556 S
H177 C172 0.963 . S
H178 C172 0.960 . S
H179 C175 0.960 . S
H180 C175 0.960 . S
H181 C175 0.959 . S
C182 N183 1.317 . S
C182 N184 1.348 . S
C182 C185 1.485 . S
N183 C182 1.317 . S
N183 N187 1.370 . S
N184 C182 1.348 . S
N184 C186 1.346 . S
C185 C182 1.485 . S
C185 H189 0.960 . S
C185 H190 0.961 . S
C185 H191 0.960 . S
C186 N184 1.346 . S
C186 N187 1.307 . S
C186 C188 1.486 . S
N187 N183 1.370 . S
N187 C186 1.307 . S
C188 C186 1.486 . S
C188 H192 0.960 . S
C188 H193 0.960 . S
C188 H194 0.959 . S
H189 C185 0.960 . S
H190 C185 0.961 . S
H191 C185 0.960 . S
H192 C188 0.960 . S
H193 C188 0.960 . S
H194 C188 0.959 . S
C195 N196 1.317 1_565 S
C195 N197 1.348 1_566 S
C195 C198 1.485 . S
N196 C195 1.317 1_545 S
N196 N200 1.370 1_556 S
N197 C195 1.348 1_544 S
N197 C199 1.346 . S
C198 C195 1.485 . S
C198 H202 0.960 . S
C198 H203 0.961 . S
C198 H204 0.960 . S
C199 N197 1.346 . S
C199 N200 1.307 . S
C199 C201 1.486 . S
N200 N196 1.370 1_554 S
N200 C199 1.307 . S
C201 C199 1.486 . S
C201 H205 0.960 . S
C201 H206 0.960 . S
C201 H207 0.959 . S
H202 C198 0.960 . S
H203 C198 0.961 . S
H204 C198 0.960 . S
H205 C201 0.960 . S
H206 C201 0.960 . S
H207 C201 0.959 . S
Mn208 O213 2.095 . S
Mn208 O223 2.162 . S
Mn208 O224 2.297 . S
Mn208 O232 2.385 1_554 S
Mn208 O233 2.209 1_554 S
Mn208 O234 2.094 . S
Mn209 O214 2.121 . S
Mn209 N216 2.257 . S
Mn209 N225 2.282 . S
Mn209 O233 2.215 . S
Mn209 O235 2.117 . S
C210 O232 1.234 . S
C210 O233 1.283 . S
C211 O223 1.281 . S
C211 O224 1.236 . S
C212 O234 1.240 . S
C212 O235 1.264 1_554 S
O213 Mn208 2.095 . S
O213 C222 1.250 . S
O214 Mn209 2.121 . S
O214 C222 1.258 1_556 S
C215 N216 1.326 . S
C215 C219 1.460 . S
C215 H221 0.929 . S
N216 Mn209 2.257 . S
N216 C215 1.326 . S
N216 C220 1.362 . S
C217 C218 1.258 . S
C217 C220 1.431 . S
C217 C237 1.449 . S
C218 C217 1.258 . S
C218 C219 1.477 . S
C218 H238 0.931 . S
C219 C215 1.460 . S
C219 C218 1.477 . S
C219 H239 0.930 . S
C220 N216 1.362 . S
C220 C217 1.431 . S
C220 C230 1.476 . S
H221 C215 0.929 . S
C222 O213 1.250 . S
C222 O214 1.258 1_554 S
O223 Mn208 2.162 . S
O223 C211 1.281 . S
O224 Mn208 2.297 . S
O224 C211 1.236 . S
N225 Mn209 2.282 . S
N225 C226 1.328 . S
N225 C230 1.318 . S
C226 N225 1.328 . S
C226 C227 1.457 . S
C226 H231 0.929 . S
C227 C226 1.457 . S
C227 C228 1.291 . S
C227 H240 0.932 . S
C228 C227 1.291 . S
C228 C229 1.373 . S
C228 H241 0.929 . S
C229 C228 1.373 . S
C229 C230 1.396 . S
C229 C236 1.403 . S
C230 C220 1.476 . S
C230 N225 1.318 . S
C230 C229 1.396 . S
H231 C226 0.929 . S
O232 Mn208 2.385 1_556 S
O232 C210 1.234 . S
O233 Mn208 2.209 1_556 S
O233 Mn209 2.215 . S
O233 C210 1.283 . S
O234 Mn208 2.094 . S
O234 C212 1.240 . S
O235 Mn209 2.117 . S
O235 C212 1.264 1_556 S
C236 C229 1.403 . S
C236 C237 1.399 . S
C236 H242 0.929 . S
C237 C217 1.449 . S
C237 C236 1.399 . S
C237 H243 0.930 . S
H238 C218 0.931 . S
H239 C219 0.930 . S
H240 C227 0.932 . S
H241 C228 0.929 . S
H242 C236 0.929 . S
H243 C237 0.930 . S
Mn244 O249 2.095 . S
Mn244 O259 2.162 . S
Mn244 O260 2.297 . S
Mn244 O268 2.385 . S
Mn244 O269 2.209 . S
Mn244 O270 2.094 . S
Mn245 O250 2.121 . S
Mn245 N252 2.257 . S
Mn245 N261 2.282 . S
Mn245 O269 2.215 . S
Mn245 O271 2.117 . S
C246 O268 1.234 . S
C246 O269 1.283 . S
C247 O259 1.281 . S
C247 O260 1.236 . S
C248 O270 1.240 . S
C248 O271 1.264 . S
O249 Mn244 2.095 . S
O249 C258 1.250 . S
O250 Mn245 2.121 . S
O250 C258 1.258 . S
C251 N252 1.326 . S
C251 C255 1.460 . S
C251 H257 0.929 . S
N252 Mn245 2.257 . S
N252 C251 1.326 . S
N252 C256 1.362 . S
C253 C254 1.258 . S
C253 C256 1.431 . S
C253 C273 1.449 . S
C254 C253 1.258 . S
C254 C255 1.477 . S
C254 H274 0.931 . S
C255 C251 1.460 . S
C255 C254 1.477 . S
C255 H275 0.930 . S
C256 N252 1.362 . S
C256 C253 1.431 . S
C256 C266 1.476 . S
H257 C251 0.929 . S
C258 O249 1.250 . S
C258 O250 1.258 . S
O259 Mn244 2.162 . S
O259 C247 1.281 . S
O260 Mn244 2.297 . S
O260 C247 1.236 . S
N261 Mn245 2.282 . S
N261 C262 1.328 . S
N261 C266 1.318 . S
C262 N261 1.328 . S
C262 C263 1.457 . S
C262 H267 0.929 . S
C263 C262 1.457 . S
C263 C264 1.291 . S
C263 H276 0.931 . S
C264 C263 1.291 . S
C264 C265 1.373 . S
C264 H277 0.929 . S
C265 C264 1.373 . S
C265 C266 1.396 . S
C265 C272 1.403 . S
C266 C256 1.476 . S
C266 N261 1.318 . S
C266 C265 1.396 . S
H267 C262 0.929 . S
O268 Mn244 2.385 . S
O268 C246 1.234 . S
O269 Mn244 2.209 . S
O269 Mn245 2.215 . S
O269 C246 1.283 . S
O270 Mn244 2.094 . S
O270 C248 1.240 . S
O271 Mn245 2.117 . S
O271 C248 1.264 . S
C272 C265 1.403 . S
C272 C273 1.399 . S
C272 H278 0.929 . S
C273 C253 1.449 . S
C273 C272 1.399 . S
C273 H279 0.930 . S
H274 C254 0.931 . S
H275 C255 0.930 . S
H276 C263 0.931 . S
H277 C264 0.929 . S
H278 C272 0.929 . S
H279 C273 0.930 . S
Mn280 O285 2.095 1_554 S
Mn280 O295 2.162 . S
Mn280 O296 2.297 1_554 S
Mn280 O304 2.385 . S
Mn280 O305 2.209 1_554 S
Mn280 O306 2.094 . S
Mn281 O286 2.121 . S
Mn281 N288 2.257 . S
Mn281 N297 2.282 1_556 S
Mn281 O305 2.215 . S
Mn281 O307 2.117 1_556 S
C282 O304 1.234 . S
C282 O305 1.283 1_554 S
C283 O295 1.281 . S
C283 O296 1.236 1_554 S
C284 O306 1.240 . S
C284 O307 1.264 . S
O285 Mn280 2.095 1_556 S
O285 C294 1.250 . S
O286 Mn281 2.121 . S
O286 C294 1.258 . S
C287 N288 1.326 . S
C287 C291 1.460 . S
C287 H293 0.929 . S
N288 Mn281 2.257 . S
N288 C287 1.326 . S
N288 C292 1.362 . S
C289 C290 1.258 . S
C289 C292 1.431 . S
C289 C309 1.449 . S
C290 C289 1.258 . S
C290 C291 1.477 . S
C290 H310 0.931 . S
C291 C287 1.460 . S
C291 C290 1.477 . S
C291 H311 0.930 . S
C292 N288 1.362 . S
C292 C289 1.431 . S
C292 C302 1.476 . S
H293 C287 0.929 . S
C294 O285 1.250 . S
C294 O286 1.258 . S
O295 Mn280 2.162 . S
O295 C283 1.281 . S
O296 Mn280 2.297 1_556 S
O296 C283 1.236 1_556 S
N297 Mn281 2.282 1_554 S
N297 C298 1.328 . S
N297 C302 1.318 1_554 S
C298 N297 1.328 . S
C298 C299 1.457 . S
C298 H303 0.929 . S
C299 C298 1.457 . S
C299 C300 1.291 . S
C299 H312 0.931 . S
C300 C299 1.291 . S
C300 C301 1.373 1_554 S
C300 H313 0.929 . S
C301 C300 1.373 1_556 S
C301 C302 1.396 . S
C301 C308 1.403 . S
C302 C292 1.476 . S
C302 N297 1.318 1_556 S
C302 C301 1.396 . S
H303 C298 0.929 . S
O304 Mn280 2.385 . S
O304 C282 1.234 . S
O305 Mn280 2.209 1_556 S
O305 Mn281 2.215 . S
O305 C282 1.283 1_556 S
O306 Mn280 2.094 . S
O306 C284 1.240 . S
O307 Mn281 2.117 1_554 S
O307 C284 1.264 . S
C308 C301 1.403 . S
C308 C309 1.399 . S
C308 H314 0.929 . S
C309 C289 1.449 . S
C309 C308 1.399 . S
C309 H315 0.930 . S
H310 C290 0.931 . S
H311 C291 0.930 . S
H312 C299 0.931 . S
H313 C300 0.929 . S
H314 C308 0.929 . S
H315 C309 0.930 . S
Mn316 O321 2.095 . S
Mn316 O331 2.162 . S
Mn316 O332 2.297 . S
Mn316 O340 2.385 1_545 S
Mn316 O341 2.209 1_545 S
Mn316 O342 2.094 . S
Mn317 O322 2.121 . S
Mn317 N324 2.257 . S
Mn317 N333 2.282 . S
Mn317 O341 2.215 . S
Mn317 O343 2.117 . S
C318 O340 1.234 . S
C318 O341 1.283 . S
C319 O331 1.281 . S
C319 O332 1.236 . S
C320 O342 1.240 . S
C320 O343 1.264 1_545 S
O321 Mn316 2.095 . S
O321 C330 1.250 . S
O322 Mn317 2.121 . S
O322 C330 1.259 1_565 S
C323 N324 1.326 . S
C323 C327 1.460 . S
C323 H329 0.929 . S
N324 Mn317 2.257 . S
N324 C323 1.326 . S
N324 C328 1.362 . S
C325 C326 1.258 . S
C325 C328 1.431 . S
C325 C345 1.449 . S
C326 C325 1.258 . S
C326 C327 1.477 . S
C326 H346 0.931 . S
C327 C323 1.460 . S
C327 C326 1.477 . S
C327 H347 0.930 . S
C328 N324 1.362 . S
C328 C325 1.431 . S
C328 C338 1.476 . S
H329 C323 0.929 . S
C330 O321 1.250 . S
C330 O322 1.259 1_545 S
O331 Mn316 2.162 . S
O331 C319 1.281 . S
O332 Mn316 2.297 . S
O332 C319 1.236 . S
N333 Mn317 2.282 . S
N333 C334 1.328 . S
N333 C338 1.318 . S
C334 N333 1.328 . S
C334 C335 1.457 . S
C334 H339 0.929 . S
C335 C334 1.457 . S
C335 C336 1.291 . S
C335 H348 0.931 . S
C336 C335 1.291 . S
C336 C337 1.373 . S
C336 H349 0.929 . S
C337 C336 1.373 . S
C337 C338 1.396 . S
C337 C344 1.403 . S
C338 C328 1.476 . S
C338 N333 1.318 . S
C338 C337 1.396 . S
H339 C334 0.929 . S
O340 Mn316 2.385 1_565 S
O340 C318 1.234 . S
O341 Mn316 2.209 1_565 S
O341 Mn317 2.215 . S
O341 C318 1.283 . S
O342 Mn316 2.094 . S
O342 C320 1.240 . S
O343 Mn317 2.117 . S
O343 C320 1.264 1_565 S
C344 C337 1.403 . S
C344 C345 1.399 . S
C344 H350 0.929 . S
C345 C325 1.449 . S
C345 C344 1.399 . S
C345 H351 0.930 . S
H346 C326 0.931 . S
H347 C327 0.930 . S
H348 C335 0.931 . S
H349 C336 0.929 . S
H350 C344 0.929 . S
H351 C345 0.930 . S
Mn352 O357 2.095 . S
Mn352 O367 2.162 . S
Mn352 O368 2.297 . S
Mn352 O376 2.385 . S
Mn352 O377 2.209 . S
Mn352 O378 2.094 . S
Mn353 O358 2.121 . S
Mn353 N360 2.257 . S
Mn353 N369 2.282 . S
Mn353 O377 2.215 . S
Mn353 O379 2.117 . S
C354 O376 1.234 . S
C354 O377 1.283 . S
C355 O367 1.281 . S
C355 O368 1.236 . S
C356 O378 1.240 . S
C356 O379 1.264 . S
O357 Mn352 2.095 . S
O357 C366 1.250 . S
O358 Mn353 2.121 . S
O358 C366 1.258 . S
C359 N360 1.326 . S
C359 C363 1.460 . S
C359 H365 0.929 . S
N360 Mn353 2.257 . S
N360 C359 1.326 . S
N360 C364 1.362 . S
C361 C362 1.258 1_655 S
C361 C364 1.431 1_655 S
C361 C381 1.449 . S
C362 C361 1.258 1_455 S
C362 C363 1.477 . S
C362 H382 0.931 1_455 S
C363 C359 1.460 . S
C363 C362 1.477 . S
C363 H383 0.930 . S
C364 N360 1.362 . S
C364 C361 1.431 1_455 S
C364 C374 1.476 . S
H365 C359 0.929 . S
C366 O357 1.250 . S
C366 O358 1.258 . S
O367 Mn352 2.162 . S
O367 C355 1.281 . S
O368 Mn352 2.297 . S
O368 C355 1.236 . S
N369 Mn353 2.282 . S
N369 C370 1.328 . S
N369 C374 1.318 . S
C370 N369 1.328 . S
C370 C371 1.457 1_455 S
C370 H375 0.929 . S
C371 C370 1.457 1_655 S
C371 C372 1.291 . S
C371 H384 0.931 . S
C372 C371 1.291 . S
C372 C373 1.373 . S
C372 H385 0.929 . S
C373 C372 1.373 . S
C373 C374 1.396 1_655 S
C373 C380 1.403 . S
C374 C364 1.476 . S
C374 N369 1.318 . S
C374 C373 1.396 1_455 S
H375 C370 0.929 . S
O376 Mn352 2.385 . S
O376 C354 1.234 . S
O377 Mn352 2.209 . S
O377 Mn353 2.215 . S
O377 C354 1.283 . S
O378 Mn352 2.094 . S
O378 C356 1.240 . S
O379 Mn353 2.117 . S
O379 C356 1.264 . S
C380 C373 1.403 . S
C380 C381 1.399 . S
C380 H386 0.929 . S
C381 C361 1.449 . S
C381 C380 1.399 . S
C381 H387 0.930 . S
H382 C362 0.931 1_655 S
H383 C363 0.930 . S
H384 C371 0.931 . S
H385 C372 0.929 . S
H386 C380 0.929 . S
H387 C381 0.930 . S
Mn388 O393 2.095 . S
Mn388 O403 2.162 . S
Mn388 O404 2.297 . S
Mn388 O412 2.385 . S
Mn388 O413 2.209 . S
Mn388 O414 2.094 . S
Mn389 O394 2.121 . S
Mn389 N396 2.257 . S
Mn389 N405 2.282 . S
Mn389 O413 2.215 . S
Mn389 O415 2.117 . S
C390 O412 1.234 . S
C390 O413 1.283 . S
C391 O403 1.281 . S
C391 O404 1.236 . S
C392 O414 1.240 . S
C392 O415 1.264 . S
O393 Mn388 2.095 . S
O393 C402 1.250 . S
O394 Mn389 2.121 . S
O394 C402 1.258 . S
C395 N396 1.326 . S
C395 C399 1.460 . S
C395 H401 0.929 . S
N396 Mn389 2.257 . S
N396 C395 1.326 . S
N396 C400 1.362 . S
C397 C398 1.258 . S
C397 C400 1.431 . S
C397 C417 1.449 . S
C398 C397 1.258 . S
C398 C399 1.477 . S
C398 H418 0.931 . S
C399 C395 1.460 . S
C399 C398 1.477 . S
C399 H419 0.930 . S
C400 N396 1.362 . S
C400 C397 1.431 . S
C400 C410 1.476 . S
H401 C395 0.929 . S
C402 O393 1.250 . S
C402 O394 1.258 . S
O403 Mn388 2.162 . S
O403 C391 1.281 . S
O404 Mn388 2.297 . S
O404 C391 1.236 . S
N405 Mn389 2.282 . S
N405 C406 1.328 . S
N405 C410 1.318 . S
C406 N405 1.328 . S
C406 C407 1.457 . S
C406 H411 0.929 . S
C407 C406 1.457 . S
C407 C408 1.291 . S
C407 H420 0.931 . S
C408 C407 1.291 . S
C408 C409 1.373 . S
C408 H421 0.929 . S
C409 C408 1.373 . S
C409 C410 1.396 . S
C409 C416 1.403 . S
C410 C400 1.476 . S
C410 N405 1.318 . S
C410 C409 1.396 . S
H411 C406 0.929 . S
O412 Mn388 2.385 . S
O412 C390 1.234 . S
O413 Mn388 2.209 . S
O413 Mn389 2.215 . S
O413 C390 1.283 . S
O414 Mn388 2.094 . S
O414 C392 1.240 . S
O415 Mn389 2.117 . S
O415 C392 1.264 . S
C416 C409 1.403 . S
C416 C417 1.399 . S
C416 H422 0.929 . S
C417 C397 1.449 . S
C417 C416 1.399 . S
C417 H423 0.930 . S
H418 C398 0.931 . S
H419 C399 0.930 . S
H420 C407 0.931 . S
H421 C408 0.929 . S
H422 C416 0.929 . S
H423 C417 0.930 . S
Mn424 O429 2.095 . S
Mn424 O439 2.162 . S
Mn424 O440 2.297 . S
Mn424 O448 2.385 . S
Mn424 O449 2.209 . S
Mn424 O450 2.094 . S
Mn425 O430 2.121 . S
Mn425 N432 2.257 . S
Mn425 N441 2.282 . S
Mn425 O449 2.215 . S
Mn425 O451 2.117 . S
C426 O448 1.234 . S
C426 O449 1.283 . S
C427 O439 1.281 . S
C427 O440 1.236 . S
C428 O450 1.240 . S
C428 O451 1.264 . S
O429 Mn424 2.095 . S
O429 C438 1.250 . S
O430 Mn425 2.121 . S
O430 C438 1.258 . S
C431 N432 1.326 . S
C431 C435 1.460 . S
C431 H437 0.929 . S
N432 Mn425 2.257 . S
N432 C431 1.326 . S
N432 C436 1.362 . S
C433 C434 1.258 . S
C433 C436 1.431 . S
C433 C453 1.449 . S
C434 C433 1.258 . S
C434 C435 1.477 . S
C434 H454 0.931 . S
C435 C431 1.460 . S
C435 C434 1.477 . S
C435 H455 0.930 . S
C436 N432 1.362 . S
C436 C433 1.431 . S
C436 C446 1.476 . S
H437 C431 0.929 . S
C438 O429 1.250 . S
C438 O430 1.258 . S
O439 Mn424 2.162 . S
O439 C427 1.281 . S
O440 Mn424 2.297 . S
O440 C427 1.236 . S
N441 Mn425 2.282 . S
N441 C442 1.328 . S
N441 C446 1.318 . S
C442 N441 1.328 . S
C442 C443 1.457 . S
C442 H447 0.929 . S
C443 C442 1.457 . S
C443 C444 1.291 . S
C443 H456 0.931 . S
C444 C443 1.291 . S
C444 C445 1.373 . S
C444 H457 0.929 . S
C445 C444 1.373 . S
C445 C446 1.396 . S
C445 C452 1.403 . S
C446 C436 1.476 . S
C446 N441 1.318 . S
C446 C445 1.396 . S
H447 C442 0.929 . S
O448 Mn424 2.385 . S
O448 C426 1.234 . S
O449 Mn424 2.209 . S
O449 Mn425 2.215 . S
O449 C426 1.283 . S
O450 Mn424 2.094 . S
O450 C428 1.240 . S
O451 Mn425 2.117 . S
O451 C428 1.264 . S
C452 C445 1.403 . S
C452 C453 1.399 . S
C452 H458 0.929 . S
C453 C433 1.449 . S
C453 C452 1.399 . S
C453 H459 0.930 . S
H454 C434 0.931 . S
H455 C435 0.930 . S
H456 C443 0.931 . S
H457 C444 0.929 . S
H458 C452 0.929 . S
H459 C453 0.930 . S
Mn460 O465 2.095 . S
Mn460 O475 2.163 1_545 S
Mn460 O476 2.297 1_545 S
Mn460 O484 2.384 . S
Mn460 O485 2.207 . S
Mn460 O486 2.094 1_545 S
Mn461 O466 2.121 . S
Mn461 N468 2.257 . S
Mn461 N477 2.282 . S
Mn461 O485 2.215 . S
Mn461 O487 2.117 . S
C462 O484 1.234 . S
C462 O485 1.283 . S
C463 O475 1.281 . S
C463 O476 1.236 . S
C464 O486 1.240 1_545 S
C464 O487 1.264 . S
O465 Mn460 2.095 . S
O465 C474 1.250 . S
O466 Mn461 2.121 . S
O466 C474 1.258 . S
C467 N468 1.326 . S
C467 C471 1.460 . S
C467 H473 0.929 . S
N468 Mn461 2.257 . S
N468 C467 1.326 . S
N468 C472 1.362 . S
C469 C470 1.258 . S
C469 C472 1.431 . S
C469 C489 1.449 . S
C470 C469 1.258 . S
C470 C471 1.477 . S
C470 H490 0.931 . S
C471 C467 1.460 . S
C471 C470 1.477 . S
C471 H491 0.930 1_556 S
C472 N468 1.362 . S
C472 C469 1.431 . S
C472 C482 1.476 . S
H473 C467 0.929 . S
C474 O465 1.250 . S
C474 O466 1.258 . S
O475 Mn460 2.163 1_565 S
O475 C463 1.281 . S
O476 Mn460 2.297 1_565 S
O476 C463 1.236 . S
N477 Mn461 2.282 . S
N477 C478 1.328 . S
N477 C482 1.318 . S
C478 N477 1.328 . S
C478 C479 1.457 . S
C478 H483 0.929 . S
C479 C478 1.457 . S
C479 C480 1.291 . S
C479 H492 0.931 . S
C480 C479 1.291 . S
C480 C481 1.373 . S
C480 H493 0.929 . S
C481 C480 1.373 . S
C481 C482 1.396 . S
C481 C488 1.403 . S
C482 C472 1.476 . S
C482 N477 1.318 . S
C482 C481 1.396 . S
H483 C478 0.929 . S
O484 Mn460 2.384 . S
O484 C462 1.234 . S
O485 Mn460 2.207 . S
O485 Mn461 2.215 . S
O485 C462 1.283 . S
O486 Mn460 2.094 1_565 S
O486 C464 1.240 1_565 S
O487 Mn461 2.117 . S
O487 C464 1.264 . S
C488 C481 1.403 . S
C488 C489 1.399 . S
C488 H494 0.929 . S
C489 C469 1.449 . S
C489 C488 1.399 . S
C489 H495 0.930 . S
H490 C470 0.931 . S
H491 C471 0.930 1_554 S
H492 C479 0.931 . S
H493 C480 0.929 . S
H494 C488 0.929 . S
H495 C489 0.930 . S
Mn496 O501 2.095 . S
Mn496 O511 2.162 . S
Mn496 O512 2.297 . S
Mn496 O520 2.385 1_455 S
Mn496 O521 2.209 1_455 S
Mn496 O522 2.094 . S
Mn497 O502 2.121 1_556 S
Mn497 N504 2.257 . S
Mn497 N513 2.282 . S
Mn497 O521 2.215 . S
Mn497 O523 2.117 1_556 S
C498 O520 1.234 . S
C498 O521 1.283 . S
C499 O511 1.281 . S
C499 O512 1.236 . S
C500 O522 1.240 1_655 S
C500 O523 1.264 1_556 S
O501 Mn496 2.095 . S
O501 C510 1.250 1_456 S
O502 Mn497 2.121 1_554 S
O502 C510 1.258 . S
C503 N504 1.326 . S
C503 C507 1.460 . S
C503 H509 0.929 . S
N504 Mn497 2.257 . S
N504 C503 1.326 . S
N504 C508 1.362 . S
C505 C506 1.258 . S
C505 C508 1.431 . S
C505 C525 1.449 . S
C506 C505 1.258 . S
C506 C507 1.477 . S
C506 H526 0.931 . S
C507 C503 1.460 . S
C507 C506 1.477 . S
C507 H527 0.930 . S
C508 N504 1.362 . S
C508 C505 1.431 . S
C508 C518 1.476 . S
H509 C503 0.929 . S
C510 O501 1.250 1_654 S
C510 O502 1.258 . S
O511 Mn496 2.162 . S
O511 C499 1.281 . S
O512 Mn496 2.297 . S
O512 C499 1.236 . S
N513 Mn497 2.282 . S
N513 C514 1.328 . S
N513 C518 1.318 . S
C514 N513 1.328 . S
C514 C515 1.457 1_545 S
C514 H519 0.929 . S
C515 C514 1.457 1_565 S
C515 C516 1.289 1_565 S
C515 H528 0.931 . S
C516 C515 1.289 1_545 S
C516 C517 1.378 . S
C516 H529 0.926 1_545 S
C517 C516 1.378 . S
C517 C518 1.396 . S
C517 C524 1.403 . S
C518 C508 1.476 . S
C518 N513 1.318 . S
C518 C517 1.396 . S
H519 C514 0.929 . S
O520 Mn496 2.385 1_655 S
O520 C498 1.234 . S
O521 Mn496 2.209 1_655 S
O521 Mn497 2.215 . S
O521 C498 1.283 . S
O522 Mn496 2.094 . S
O522 C500 1.240 1_455 S
O523 Mn497 2.117 1_554 S
O523 C500 1.264 1_554 S
C524 C517 1.403 . S
C524 C525 1.399 . S
C524 H530 0.929 . S
C525 C505 1.449 . S
C525 C524 1.399 . S
C525 H531 0.930 . S
H526 C506 0.931 . S
H527 C507 0.930 . S
H528 C515 0.931 . S
H529 C516 0.926 1_565 S
H530 C524 0.929 . S
H531 C525 0.930 . S
Mn532 O537 2.095 . S
Mn532 O547 2.162 . S
Mn532 O548 2.297 . S
Mn532 O556 2.385 . S
Mn532 O557 2.209 . S
Mn532 O558 2.094 . S
Mn533 O538 2.121 . S
Mn533 N540 2.257 . S
Mn533 N549 2.282 . S
Mn533 O557 2.215 . S
Mn533 O559 2.117 . S
C534 O556 1.234 . S
C534 O557 1.283 . S
C535 O547 1.281 . S
C535 O548 1.236 . S
C536 O558 1.240 . S
C536 O559 1.264 . S
O537 Mn532 2.095 . S
O537 C546 1.250 . S
O538 Mn533 2.121 . S
O538 C546 1.258 . S
C539 N540 1.326 . S
C539 C543 1.460 . S
C539 H545 0.929 . S
N540 Mn533 2.257 . S
N540 C539 1.326 . S
N540 C544 1.362 . S
C541 C542 1.258 . S
C541 C544 1.431 . S
C541 C561 1.449 . S
C542 C541 1.258 . S
C542 C543 1.477 . S
C542 H562 0.931 . S
C543 C539 1.460 . S
C543 C542 1.477 . S
C543 H563 0.930 . S
C544 N540 1.362 . S
C544 C541 1.431 . S
C544 C554 1.476 . S
H545 C539 0.929 . S
C546 O537 1.250 . S
C546 O538 1.258 . S
O547 Mn532 2.162 . S
O547 C535 1.281 . S
O548 Mn532 2.297 . S
O548 C535 1.236 . S
N549 Mn533 2.282 . S
N549 C550 1.328 . S
N549 C554 1.318 . S
C550 N549 1.328 . S
C550 C551 1.457 . S
C550 H555 0.929 . S
C551 C550 1.457 . S
C551 C552 1.291 . S
C551 H564 0.931 . S
C552 C551 1.291 . S
C552 C553 1.373 . S
C552 H565 0.929 . S
C553 C552 1.373 . S
C553 C554 1.396 . S
C553 C560 1.403 . S
C554 C544 1.476 . S
C554 N549 1.318 . S
C554 C553 1.396 . S
H555 C550 0.929 . S
O556 Mn532 2.385 . S
O556 C534 1.234 . S
O557 Mn532 2.209 . S
O557 Mn533 2.215 . S
O557 C534 1.283 . S
O558 Mn532 2.094 . S
O558 C536 1.240 . S
O559 Mn533 2.117 . S
O559 C536 1.264 . S
C560 C553 1.403 . S
C560 C561 1.399 . S
C560 H566 0.929 . S
C561 C541 1.449 . S
C561 C560 1.399 . S
C561 H567 0.930 . S
H562 C542 0.931 . S
H563 C543 0.930 . S
H564 C551 0.931 . S
H565 C552 0.929 . S
H566 C560 0.929 . S
H567 C561 0.930 . S
Mn568 O573 2.095 1_455 S
Mn568 O583 2.162 . S
Mn568 O584 2.297 1_455 S
Mn568 O592 2.385 . S
Mn568 O593 2.209 1_455 S
Mn568 O594 2.094 . S
Mn569 O574 2.121 . S
Mn569 N576 2.257 . S
Mn569 N585 2.282 1_655 S
Mn569 O593 2.215 . S
Mn569 O595 2.117 1_655 S
C570 O592 1.234 . S
C570 O593 1.283 1_455 S
C571 O583 1.281 . S
C571 O584 1.236 1_455 S
C572 O594 1.240 . S
C572 O595 1.264 . S
O573 Mn568 2.095 1_655 S
O573 C582 1.250 . S
O574 Mn569 2.121 . S
O574 C582 1.258 . S
C575 N576 1.326 . S
C575 C579 1.460 . S
C575 H581 0.929 . S
N576 Mn569 2.257 . S
N576 C575 1.326 . S
N576 C580 1.362 . S
C577 C578 1.258 . S
C577 C580 1.431 . S
C577 C597 1.449 . S
C578 C577 1.258 . S
C578 C579 1.477 . S
C578 H598 0.931 . S
C579 C575 1.460 . S
C579 C578 1.477 . S
C579 H599 0.930 . S
C580 N576 1.362 . S
C580 C577 1.431 . S
C580 C590 1.476 . S
H581 C575 0.929 . S
C582 O573 1.250 . S
C582 O574 1.258 . S
O583 Mn568 2.162 . S
O583 C571 1.281 . S
O584 Mn568 2.297 1_655 S
O584 C571 1.236 1_655 S
N585 Mn569 2.282 1_455 S
N585 C586 1.328 . S
N585 C590 1.318 1_455 S
C586 N585 1.328 . S
C586 C587 1.457 . S
C586 H591 0.929 . S
C587 C586 1.457 . S
C587 C588 1.291 . S
C587 H600 0.931 . S
C588 C587 1.291 . S
C588 C589 1.373 1_455 S
C588 H601 0.929 . S
C589 C588 1.373 1_655 S
C589 C590 1.396 . S
C589 C596 1.403 . S
C590 C580 1.476 . S
C590 N585 1.318 1_655 S
C590 C589 1.396 . S
H591 C586 0.929 . S
O592 Mn568 2.385 . S
O592 C570 1.234 . S
O593 Mn568 2.209 1_655 S
O593 Mn569 2.215 . S
O593 C570 1.283 1_655 S
O594 Mn568 2.094 . S
O594 C572 1.240 . S
O595 Mn569 2.117 1_455 S
O595 C572 1.264 . S
C596 C589 1.403 . S
C596 C597 1.399 . S
C596 H602 0.929 . S
C597 C577 1.449 . S
C597 C596 1.399 . S
C597 H603 0.930 . S
H598 C578 0.931 . S
H599 C579 0.930 . S
H600 C587 0.931 . S
H601 C588 0.929 . S
H602 C596 0.929 . S
H603 C597 0.930 . S
Mn604 O609 2.095 . S
Mn604 O619 2.162 . S
Mn604 O620 2.297 . S
Mn604 O628 2.385 . S
Mn604 O629 2.209 . S
Mn604 O630 2.094 . S
Mn605 O610 2.121 . S
Mn605 N612 2.257 . S
Mn605 N621 2.282 . S
Mn605 O629 2.215 . S
Mn605 O631 2.117 . S
C606 O628 1.234 . S
C606 O629 1.283 . S
C607 O619 1.281 . S
C607 O620 1.236 . S
C608 O630 1.240 . S
C608 O631 1.264 . S
O609 Mn604 2.095 . S
O609 C618 1.250 . S
O610 Mn605 2.121 . S
O610 C618 1.258 . S
C611 N612 1.326 . S
C611 C615 1.460 . S
C611 H617 0.929 . S
N612 Mn605 2.257 . S
N612 C611 1.326 . S
N612 C616 1.362 . S
C613 C614 1.258 . S
C613 C616 1.431 1_565 S
C613 C633 1.449 . S
C614 C613 1.258 . S
C614 C615 1.477 1_565 S
C614 H634 0.931 . S
C615 C611 1.460 . S
C615 C614 1.477 1_545 S
C615 H635 0.930 . S
C616 N612 1.362 . S
C616 C613 1.431 1_545 S
C616 C626 1.476 1_545 S
H617 C611 0.929 . S
C618 O609 1.250 . S
C618 O610 1.258 . S
O619 Mn604 2.162 . S
O619 C607 1.281 . S
O620 Mn604 2.297 . S
O620 C607 1.236 . S
N621 Mn605 2.282 . S
N621 C622 1.328 . S
N621 C626 1.318 1_545 S
C622 N621 1.328 . S
C622 C623 1.457 1_545 S
C622 H627 0.929 . S
C623 C622 1.457 1_565 S
C623 C624 1.291 . S
C623 H636 0.931 . S
C624 C623 1.291 . S
C624 C625 1.373 . S
C624 H637 0.929 . S
C625 C624 1.373 . S
C625 C626 1.396 . S
C625 C632 1.403 . S
C626 C616 1.476 1_565 S
C626 N621 1.318 1_565 S
C626 C625 1.396 . S
H627 C622 0.929 . S
O628 Mn604 2.385 . S
O628 C606 1.234 . S
O629 Mn604 2.209 . S
O629 Mn605 2.215 . S
O629 C606 1.283 . S
O630 Mn604 2.094 . S
O630 C608 1.240 . S
O631 Mn605 2.117 . S
O631 C608 1.264 . S
C632 C625 1.403 . S
C632 C633 1.399 . S
C632 H638 0.929 . S
C633 C613 1.449 . S
C633 C632 1.399 . S
C633 H639 0.930 . S
H634 C614 0.931 . S
H635 C615 0.930 . S
H636 C623 0.931 . S
H637 C624 0.929 . S
H638 C632 0.929 . S
H639 C633 0.930 . S
C210 N66 1.139 . S
C258 N79 1.585 . S
N92 C294 1.627 . S
C330 N54 1.355 . S
C356 N131 1.392 . S
C392 N158 1.301 . S
N145 C427 1.561 . S
C464 N118 1.755 1_545 S
N148 C498 1.998 . S
C546 N122 1.734 . S
N132 C499 1.307 . S
C536 N161 1.605 . S
N96 C582 1.723 . S
N53 C571 1.715 . S
N67 C572 1.247 . S
N83 C570 1.541 1_655 S
N44 C318 1.313 . S
N187 C319 1.577 . S
C222 N197 1.374 1_565 S
C247 N106 1.406 . S
N57 C354 1.932 . S
C462 N144 1.419 . S
C355 N119 1.524 . S
C428 N157 1.830 . S
C426 N183 1.140 . S
N196 C474 1.585 . S
N105 C366 1.627 . S
C402 N171 1.355 . S
N40 C284 1.393 . S
C320 N2 1.301 . S
C211 N15 1.562 . S
C248 N27 1.756 . S
N18 C534 1.997 . S
N31 C510 1.734 . S
N41 C535 1.307 . S
N5 C500 1.605 1_454 S
C618 N109 1.723 . S
C607 N170 1.715 . S
C608 N184 1.247 . S
N200 C606 1.541 . S
N135 C390 1.313 . S
C391 N70 1.577 . S
C438 N80 1.374 . S
C463 N93 1.406 . S
N174 C282 1.932 . S
C246 N14 1.419 . S
N28 C283 1.524 . S
C212 N1 1.830 . S
