# Generated by pormake.
# Topology nom, (4,4)-cn, num edge types: 1
# Building blocks:
#     Node 0, Type 0, BuildingBlock: KUFVIS_clean_linker_0, # of connection points: 4
#     Node 1, Type 0, BuildingBlock: KUFVIS_clean_linker_0, # of connection points: 4
#     Node 2, Type 0, BuildingBlock: KUFVIS_clean_linker_0, # of connection points: 4
#     Node 3, Type 0, BuildingBlock: KUFVIS_clean_linker_0, # of connection points: 4
#     Node 4, Type 0, BuildingBlock: KUFVIS_clean_linker_0, # of connection points: 4
#     Node 5, Type 0, BuildingBlock: KUFVIS_clean_linker_0, # of connection points: 4
#     Node 6, Type 1, BuildingBlock: GALJAG_clean_sbu_0, # of connection points: 4
#     Node 7, Type 1, BuildingBlock: GALJAG_clean_sbu_0, # of connection points: 4
#     Node 8, Type 1, BuildingBlock: GALJAG_clean_sbu_0, # of connection points: 4
#     Node 9, Type 1, BuildingBlock: GALJAG_clean_sbu_0, # of connection points: 4
#     Node 10, Type 1, BuildingBlock: GALJAG_clean_sbu_0, # of connection points: 4
#     Node 11, Type 1, BuildingBlock: GALJAG_clean_sbu_0, # of connection points: 4
#     Edge 12, Type (0, 1), BuildingBlock: XUDNAN_clean_linker_2, # of connection points: 2
#     Edge 13, Type (0, 1), BuildingBlock: XUDNAN_clean_linker_2, # of connection points: 2
#     Edge 14, Type (0, 1), BuildingBlock: XUDNAN_clean_linker_2, # of connection points: 2
#     Edge 15, Type (0, 1), BuildingBlock: XUDNAN_clean_linker_2, # of connection points: 2
#     Edge 16, Type (0, 1), BuildingBlock: XUDNAN_clean_linker_2, # of connection points: 2
#     Edge 17, Type (0, 1), BuildingBlock: XUDNAN_clean_linker_2, # of connection points: 2
#     Edge 18, Type (0, 1), BuildingBlock: XUDNAN_clean_linker_2, # of connection points: 2
#     Edge 19, Type (0, 1), BuildingBlock: XUDNAN_clean_linker_2, # of connection points: 2
#     Edge 20, Type (0, 1), BuildingBlock: XUDNAN_clean_linker_2, # of connection points: 2
#     Edge 21, Type (0, 1), BuildingBlock: XUDNAN_clean_linker_2, # of connection points: 2
#     Edge 22, Type (0, 1), BuildingBlock: XUDNAN_clean_linker_2, # of connection points: 2
#     Edge 23, Type (0, 1), BuildingBlock: XUDNAN_clean_linker_2, # of connection points: 2
#     Edge 24, Type (0, 1), BuildingBlock: XUDNAN_clean_linker_2, # of connection points: 2
#     Edge 25, Type (0, 1), BuildingBlock: XUDNAN_clean_linker_2, # of connection points: 2
#     Edge 26, Type (0, 1), BuildingBlock: XUDNAN_clean_linker_2, # of connection points: 2
#     Edge 27, Type (0, 1), BuildingBlock: XUDNAN_clean_linker_2, # of connection points: 2
#     Edge 28, Type (0, 1), BuildingBlock: XUDNAN_clean_linker_2, # of connection points: 2
#     Edge 29, Type (0, 1), BuildingBlock: XUDNAN_clean_linker_2, # of connection points: 2
#     Edge 30, Type (0, 1), BuildingBlock: XUDNAN_clean_linker_2, # of connection points: 2
#     Edge 31, Type (0, 1), BuildingBlock: XUDNAN_clean_linker_2, # of connection points: 2
#     Edge 32, Type (0, 1), BuildingBlock: XUDNAN_clean_linker_2, # of connection points: 2
#     Edge 33, Type (0, 1), BuildingBlock: XUDNAN_clean_linker_2, # of connection points: 2
#     Edge 34, Type (0, 1), BuildingBlock: XUDNAN_clean_linker_2, # of connection points: 2
#     Edge 35, Type (0, 1), BuildingBlock: XUDNAN_clean_linker_2, # of connection points: 2
# Relax obj value: 0.012
# Max RMSD: 0.070
# Mean RMSD: 0.062
data_MOF--net-nom--node1-GALJAG_clean_sbu_0--node2-KUFVIS_clean_linker_0--edge1-XUDNAN_clean_linker_2
_symmetry_space_group_name_H-M    P1
_symmetry_Int_Tables_number       1
_symmetry_cell_setting            triclinic
loop_
_symmetry_equiv_pos_as_xyz
'x, y, z'
_cell_length_a     45.237464
_cell_length_b     45.176938
_cell_length_c     48.09075
_cell_angle_alpha  90.134406
_cell_angle_beta   90.027067
_cell_angle_gamma 120.10413
loop_
_atom_site_label
_atom_site_type_symbol
_atom_site_fract_x
_atom_site_fract_y
_atom_site_fract_z
_atom_type_partial_charge
H0 H 0.14877 0.61 0.34709 0.0
H1 H 0.07483 0.5838 0.28226 0.0
H2 H 0.04319 0.54165 0.3648 0.0
H3 H 0.99708 0.54522 0.35441 0.0
H4 H 0.92168 0.49757 0.29047 0.0
H5 H 0.02683 0.5359 0.27062 0.0
C6 C 0.12254 0.59525 0.33997 0.0
C7 C 0.09688 0.57539 0.35906 0.0
C8 C 0.11503 0.59727 0.31204 0.0
C9 C 0.0806 0.58091 0.30357 0.0
C10 C 0.05392 0.561 0.32252 0.0
C11 C 0.06272 0.55794 0.35013 0.0
C12 C 1.01709 0.54331 0.31366 0.0
C13 C 0.99089 0.53692 0.33302 0.0
C14 C 0.95632 0.51935 0.32497 0.0
C15 C 0.94819 0.51022 0.29704 0.0
C16 C 0.97344 0.51666 0.27736 0.0
C17 C 1.00772 0.53234 0.28584 0.0
H18 H 0.56373 0.14178 0.5153 0.0
H19 H 0.51628 0.06897 0.44919 0.0
H20 H 0.52425 0.03559 0.53181 0.0
H21 H 0.4728 0.99054 0.5195 0.0
H22 H 0.45121 0.91547 0.4562 0.0
H23 H 0.51777 0.02121 0.43762 0.0
C24 C 0.55113 0.11558 0.50781 0.0
C25 C 0.54439 0.08939 0.52657 0.0
C26 C 0.54225 0.10867 0.47969 0.0
C27 C 0.52438 0.07437 0.47067 0.0
C28 C 0.51721 0.04733 0.48932 0.0
C29 C 0.5283 0.05547 0.51719 0.0
C30 C 0.49828 1.01074 0.47994 0.0
C31 C 0.47674 0.98441 0.49855 0.0
C32 C 0.45942 0.94997 0.49005 0.0
C33 C 0.46339 0.94203 0.4627 0.0
C34 C 0.48328 0.96757 0.44354 0.0
C35 C 0.50142 1.00179 0.45235 0.0
H36 H 0.56348 0.44704 0.62225 0.0
H37 H 0.50755 0.46523 0.68543 0.0
H38 H 0.52084 0.51048 0.60385 0.0
H39 H 0.47002 0.50584 0.61491 0.0
H40 H 0.44468 0.55449 0.67956 0.0
H41 H 0.51262 0.51669 0.69739 0.0
C42 C 0.54905 0.45899 0.62895 0.0
C43 C 0.5428 0.47856 0.60993 0.0
C44 C 0.53645 0.4539 0.65617 0.0
C45 C 0.51795 0.46977 0.6646 0.0
C46 C 0.51206 0.49055 0.64596 0.0
C47 C 0.52457 0.49451 0.61853 0.0
C48 C 0.49326 0.50831 0.65513 0.0
C49 C 0.47298 0.51458 0.63625 0.0
C50 C 0.45662 0.53255 0.64477 0.0
C51 C 0.45907 0.54259 0.67261 0.0
C52 C 0.47899 0.53685 0.69172 0.0
C53 C 0.49627 0.52 0.6828 0.0
H54 H 0.14483 0.55304 0.79259 0.0
H55 H 0.06789 0.49783 0.85402 0.0
H56 H 0.04062 0.51981 0.77337 0.0
H57 H 0.9924 0.46982 0.78165 0.0
H58 H 0.91671 0.44179 0.84524 0.0
H59 H 0.02244 0.50313 0.86667 0.0
C60 C 0.11819 0.53927 0.79878 0.0
C61 C 0.09349 0.53633 0.77984 0.0
C62 C 0.10934 0.52586 0.82563 0.0
C63 C 0.07475 0.50912 0.83352 0.0
C64 C 0.04923 0.50635 0.81482 0.0
C65 C 0.05923 0.52072 0.78802 0.0
C66 C 1.01235 0.48853 0.82312 0.0
C67 C 0.98611 0.47094 0.80319 0.0
C68 C 0.9515 0.45492 0.81088 0.0
C69 C 0.94329 0.4549 0.83895 0.0
C70 C 0.96865 0.47177 0.85911 0.0
C71 C 1.00307 0.48919 0.85106 0.0
H72 H 0.50173 0.90975 0.00682 0.0
H73 H 0.55477 0.98601 0.94469 0.0
H74 H 0.54287 0.01526 0.02805 0.0
H75 H 0.59167 0.0628 0.01781 0.0
H76 H 0.61841 0.13843 0.95434 0.0
H77 H 0.55234 0.03305 0.934 0.0
C78 C 0.5156 0.93647 0.00079 0.0
C79 C 0.52222 0.96165 0.0207 0.0
C80 C 0.52646 0.94498 0.97328 0.0
C81 C 0.5453 0.97966 0.96576 0.0
C82 C 0.55143 1.00577 0.98526 0.0
C83 C 0.53922 0.99615 0.01271 0.0
C84 C 0.57002 0.04277 0.97692 0.0
C85 C 0.58949 0.06904 -0.00352 0.0
C86 C 0.60599 0.10372 0.98869 0.0
C87 C 0.60483 0.11187 0.96081 0.0
C88 C 0.58598 0.08656 0.94109 0.0
C89 C 0.56792 0.0522 0.9493 0.0
H90 H 0.50994 0.61608 0.12459 0.0
H91 H 0.55931 0.59111 0.18879 0.0
H92 H 0.54641 0.54752 0.10613 0.0
H93 H 0.594 0.5473 0.11633 0.0
H94 H 0.62185 0.50102 0.181 0.0
H95 H 0.559 0.54384 0.2008 0.0
C96 C 0.5227 0.60247 0.13144 0.0
C97 C 0.52817 0.58246 0.11232 0.0
C98 C 0.53242 0.60446 0.15929 0.0
C99 C 0.55042 0.58801 0.16754 0.0
C100 C 0.55624 0.56734 0.14853 0.0
C101 C 0.54395 0.56415 0.121 0.0
C102 C 0.57431 0.54859 0.15739 0.0
C103 C 0.59229 0.53988 0.13789 0.0
C104 C 0.60817 0.52131 0.14607 0.0
C105 C 0.60773 0.51325 0.17418 0.0
C106 C 0.59033 0.52152 0.19386 0.0
C107 C 0.57336 0.53878 0.18542 0.0
In108 In 0.65938 0.4086 0.40347 0.0
O109 O 0.71444 0.44463 0.41766 0.0
O110 O 0.70672 0.41234 0.383 0.0
C111 C 0.62725 0.42202 0.44458 0.0
C112 C 0.64827 0.44108 0.36133 0.0
C113 C 0.63058 0.33986 0.40837 0.0
O114 O 0.65749 0.42783 0.44717 0.0
O115 O 0.61305 0.40828 0.42188 0.0
O116 O 0.62221 0.35365 0.38954 0.0
O117 O 0.65359 0.36069 0.42462 0.0
C118 C 0.72781 0.4353 0.39916 0.0
O119 O 0.64106 0.41028 0.35946 0.0
O120 O 0.66222 0.45563 0.38388 0.0
In121 In 0.27616 0.65176 0.57101 0.0
O122 O 0.28655 0.60808 0.56091 0.0
O123 O 0.32323 0.64951 0.58517 0.0
C124 C 0.2283 0.62832 0.53053 0.0
C125 C 0.23645 0.6351 0.61675 0.0
C126 C 0.31839 0.71979 0.56332 0.0
O127 O 0.25786 0.63267 0.52657 0.0
O128 O 0.22333 0.6361 0.55454 0.0
O129 O 0.31478 0.70554 0.58655 0.0
O130 O 0.30119 0.69973 0.54387 0.0
C131 C 0.31455 0.62106 0.5739 0.0
O132 O 0.24595 0.66241 0.60346 0.0
O133 O 0.24798 0.61669 0.60758 0.0
In134 In 0.65467 0.2734 0.73476 0.0
O135 O 0.70867 0.29553 0.71669 0.0
O136 O 0.70285 0.31839 0.75323 0.0
C137 C 0.63528 0.22658 0.69368 0.0
C138 C 0.62895 0.2292 0.77784 0.0
C139 C 0.62793 0.31481 0.72898 0.0
O140 O 0.6586 0.23179 0.71075 0.0
O141 O 0.62248 0.24555 0.69694 0.0
O142 O 0.63332 0.3061 0.75252 0.0
O143 O 0.63653 0.30317 0.70858 0.0
C144 C 0.72298 0.31797 0.73534 0.0
O145 O 0.61023 0.23338 0.7608 0.0
O146 O 0.66052 0.24818 0.77379 0.0
In147 In 0.40809 0.64439 0.90364 0.0
O148 O 0.35469 0.62889 0.92001 0.0
O149 O 0.35931 0.61977 0.8774 0.0
C150 C 0.42624 0.62304 0.94958 0.0
C151 C 0.4307 0.61925 0.86316 0.0
C152 C 0.43859 0.71369 0.9048 0.0
O153 O 0.4436 0.65315 0.94047 0.0
O154 O 0.39916 0.60427 0.93624 0.0
O155 O 0.40982 0.69428 0.91561 0.0
O156 O 0.45196 0.69821 0.89318 0.0
C157 C 0.33976 0.61717 0.8971 0.0
O158 O 0.42563 0.64397 0.85893 0.0
O159 O 0.42409 0.60738 0.88746 0.0
In160 In 0.78723 0.40138 0.06955 0.0
O161 O 0.83076 0.40072 0.09294 0.0
O162 O 0.80887 0.4281 0.11117 0.0
C163 C 0.7455 0.33272 0.06545 0.0
C164 C 0.74618 0.42893 0.07334 0.0
C165 C 0.83117 0.427 0.02642 0.0
O166 O 0.7681 0.34644 0.08405 0.0
O167 O 0.74361 0.3536 0.04918 0.0
O168 O 0.80787 0.39605 0.02761 0.0
O169 O 0.83156 0.44518 0.04646 0.0
C170 C 0.83137 0.41946 0.11263 0.0
O171 O 0.76868 0.43744 0.05478 0.0
O172 O 0.74412 0.40628 0.08986 0.0
In173 In 0.41297 0.78448 0.23378 0.0
O174 O 0.41761 0.7405 0.21478 0.0
O175 O 0.45045 0.7677 0.24852 0.0
C176 C 0.43907 0.82933 0.27647 0.0
C177 C 0.42976 0.82682 0.18966 0.0
C178 C 0.34449 0.74247 0.23845 0.0
O179 O 0.45708 0.82911 0.2566 0.0
O180 O 0.40804 0.80628 0.27528 0.0
O181 O 0.35779 0.76512 0.21992 0.0
O182 O 0.36569 0.74073 0.25446 0.0
C183 C 0.44129 0.74405 0.23081 0.0
O184 O 0.43736 0.80355 0.19114 0.0
O185 O 0.41282 0.82801 0.20996 0.0
H186 H 0.17584 0.59825 0.31033 0.0
H187 H 0.12026 0.64152 0.27009 0.0
H188 H 0.17195 0.6797 0.24273 0.0
H189 H 0.25006 0.67567 0.32089 0.0
H190 H 0.27865 0.65923 0.31576 0.0
H191 H 0.23596 0.63142 0.32815 0.0
H192 H 0.22474 0.58962 0.28721 0.0
H193 H 0.26756 0.61723 0.27474 0.0
H194 H 0.23158 0.60533 0.25201 0.0
H195 H 0.23203 0.71717 0.22327 0.0
H196 H 0.29428 0.75093 0.21446 0.0
H197 H 0.31033 0.6854 0.27072 0.0
C198 C 0.17428 0.61547 0.29555 0.0
C199 C 0.14393 0.61694 0.29246 0.0
C200 C 0.14302 0.63959 0.27262 0.0
C201 C 0.17234 0.66149 0.25709 0.0
C202 C 0.20225 0.66033 0.26164 0.0
C203 C 0.20327 0.63776 0.28039 0.0
C204 C 0.23905 0.64351 0.28368 0.0
C205 C 0.25166 0.65303 0.3139 0.0
C206 C 0.24083 0.61205 0.27381 0.0
C207 C 0.25838 0.67347 0.26432 0.0
C208 C 0.23672 0.68248 0.25137 0.0
C209 C 0.24911 0.71012 0.23315 0.0
C210 C 0.28449 0.72914 0.22828 0.0
C211 C 0.30709 0.72078 0.24195 0.0
C212 C 0.29368 0.69237 0.25996 0.0
H213 H 0.6026 0.16923 0.47884 0.0
H214 H 0.50402 0.11496 0.43766 0.0
H215 H 0.5184 0.16733 0.41091 0.0
H216 H 0.60043 0.24382 0.49014 0.0
H217 H 0.64564 0.27221 0.48544 0.0
H218 H 0.63011 0.2292 0.49737 0.0
H219 H 0.66067 0.2182 0.45643 0.0
H220 H 0.67655 0.26133 0.44444 0.0
H221 H 0.6523 0.22576 0.42128 0.0
H222 H 0.54195 0.22794 0.39216 0.0
H223 H 0.57146 0.29044 0.38393 0.0
H224 H 0.65215 0.30468 0.44065 0.0
C225 C 0.58406 0.16811 0.46398 0.0
C226 C 0.55207 0.13796 0.46045 0.0
C227 C 0.52883 0.1376 0.44051 0.0
C228 C 0.53674 0.16729 0.42534 0.0
C229 C 0.56799 0.19701 0.43033 0.0
C230 C 0.59128 0.19747 0.44917 0.0
C231 C 0.62161 0.23309 0.45291 0.0
C232 C 0.62459 0.24528 0.48326 0.0
C233 C 0.65474 0.23468 0.44317 0.0
C234 C 0.61153 0.25297 0.43371 0.0
C235 C 0.58084 0.23174 0.42046 0.0
C236 C 0.56609 0.24469 0.40228 0.0
C237 C 0.58301 0.2802 0.39776 0.0
C238 C 0.61403 0.30235 0.41171 0.0
C239 C 0.62847 0.28838 0.4297 0.0
H240 H 0.4595 0.59394 0.64034 0.0
H241 H 0.40819 0.49121 0.60611 0.0
H242 H 0.36916 0.50461 0.5798 0.0
H243 H 0.3866 0.59751 0.6535 0.0
H244 H 0.40471 0.64222 0.64535 0.0
H245 H 0.43187 0.62643 0.65737 0.0
H246 H 0.46952 0.65045 0.61334 0.0
H247 H 0.44262 0.66664 0.60126 0.0
H248 H 0.44997 0.63849 0.57942 0.0
H249 H 0.3313 0.52761 0.56206 0.0
H250 H 0.29928 0.55798 0.55384 0.0
H251 H 0.37515 0.64469 0.60136 0.0
C252 C 0.44046 0.57442 0.62688 0.0
C253 C 0.43681 0.54151 0.62526 0.0
C254 C 0.41166 0.5167 0.6074 0.0
C255 C 0.38932 0.52408 0.5925 0.0
C256 C 0.39275 0.55643 0.59557 0.0
C257 C 0.41799 0.58127 0.61217 0.0
C258 C 0.41477 0.61296 0.61408 0.0
C259 C 0.40914 0.62017 0.64436 0.0
C260 C 0.44608 0.64397 0.60125 0.0
C261 C 0.38317 0.60188 0.59657 0.0
C262 C 0.37098 0.56939 0.58576 0.0
C263 C 0.34094 0.55322 0.57012 0.0
C264 C 0.32289 0.57064 0.56561 0.0
C265 C 0.33479 0.60373 0.57689 0.0
C266 C 0.36553 0.61954 0.59227 0.0
H267 H 0.89234 0.45716 0.80922 0.0
H268 H 0.94601 0.4134 0.76651 0.0
H269 H 0.89475 0.37872 0.73736 0.0
H270 H 0.81714 0.38096 0.81656 0.0
H271 H 0.78952 0.39874 0.81269 0.0
H272 H 0.83221 0.42497 0.82578 0.0
H273 H 0.84493 0.46927 0.78675 0.0
H274 H 0.80211 0.4432 0.77356 0.0
H275 H 0.83818 0.45553 0.75093 0.0
H276 H 0.83482 0.3437 0.7169 0.0
H277 H 0.77239 0.31062 0.70851 0.0
H278 H 0.75803 0.37475 0.7678 0.0
C279 C 0.8936 0.44064 0.79349 0.0
C280 C 0.92322 0.43793 0.79025 0.0
C281 C 0.9238 0.41626 0.76918 0.0
C282 C 0.89474 0.39637 0.7526 0.0
C283 C 0.86542 0.39856 0.75733 0.0
C284 C 0.8648 0.42029 0.77728 0.0
C285 C 0.82937 0.41531 0.78081 0.0
C286 C 0.8163 0.40433 0.81072 0.0
C287 C 0.82862 0.44776 0.7725 0.0
C288 C 0.80972 0.38662 0.76029 0.0
C289 C 0.83097 0.37772 0.74646 0.0
C290 C 0.81809 0.35076 0.7274 0.0
C291 C 0.78262 0.33213 0.72275 0.0
C292 C 0.76046 0.34019 0.73751 0.0
C293 C 0.77437 0.36812 0.75613 0.0
H294 H 0.46439 0.88799 0.96579 0.0
H295 H 0.56902 0.9374 0.93662 0.0
H296 H 0.55596 0.88469 0.91062 0.0
H297 H 0.45811 0.81129 0.98093 0.0
H298 H 0.41396 0.78495 0.9709 0.0
H299 H 0.42955 0.82823 0.98224 0.0
H300 H 0.40898 0.8418 0.93621 0.0
H301 H 0.39287 0.79833 0.92479 0.0
H302 H 0.42274 0.83338 0.90345 0.0
H303 H 0.53309 0.82348 0.89365 0.0
H304 H 0.50269 0.76074 0.88645 0.0
H305 H 0.41388 0.75186 0.92862 0.0
C306 C 0.48435 0.88803 0.95333 0.0
C307 C 0.51771 0.91674 0.95314 0.0
C308 C 0.54319 0.91583 0.93672 0.0
C309 C 0.53599 0.88594 0.92203 0.0
C310 C 0.50316 0.85743 0.92383 0.0
C311 C 0.47767 0.85849 0.93887 0.0
C312 C 0.44557 0.82375 0.94008 0.0
C313 C 0.43628 0.81134 0.97032 0.0
C314 C 0.41578 0.82436 0.92524 0.0
C315 C 0.45718 0.80254 0.92414 0.0
C316 C 0.49027 0.8224 0.91455 0.0
C317 C 0.50701 0.80786 0.9007 0.0
C318 C 0.48958 0.77219 0.89676 0.0
C319 C 0.45589 0.75145 0.9069 0.0
C320 C 0.43949 0.76704 0.92041 0.0
H321 H 0.60628 0.46 0.14501 0.0
H322 H 0.65103 0.55772 0.10264 0.0
H323 H 0.68709 0.54163 0.07501 0.0
H324 H 0.68219 0.46111 0.15487 0.0
H325 H 0.66466 0.41567 0.15068 0.0
H326 H 0.63793 0.4319 0.16285 0.0
H327 H 0.59517 0.40064 0.12264 0.0
H328 H 0.62166 0.384 0.11042 0.0
H329 H 0.61022 0.40797 0.08724 0.0
H330 H 0.72288 0.51701 0.05594 0.0
H331 H 0.75544 0.48717 0.04792 0.0
H332 H 0.68967 0.40802 0.10594 0.0
C333 C 0.62328 0.47792 0.12962 0.0
C334 C 0.62588 0.51021 0.12606 0.0
C335 C 0.64825 0.53269 0.10552 0.0
C336 C 0.66895 0.5238 0.08983 0.0
C337 C 0.66684 0.49235 0.09492 0.0
C338 C 0.64439 0.46974 0.11429 0.0
C339 C 0.64926 0.43922 0.11818 0.0
C340 C 0.6591 0.43687 0.14843 0.0
C341 C 0.61717 0.40599 0.10906 0.0
C342 C 0.67867 0.44851 0.09852 0.0
C343 C 0.68808 0.47889 0.08485 0.0
C344 C 0.71547 0.49308 0.06635 0.0
C345 C 0.73383 0.47597 0.06194 0.0
C346 C 0.72507 0.44531 0.07634 0.0
C347 C 0.69691 0.43136 0.0946 0.0
H348 H 0.39787 0.89327 0.4784 0.0
H349 H 0.4723 0.94149 0.5446 0.0
H350 H 0.44095 0.88891 0.57287 0.0
H351 H 0.32211 0.83974 0.52182 0.0
H352 H 0.30649 0.80454 0.49759 0.0
H353 H 0.33108 0.8479 0.48523 0.0
H354 H 0.37355 0.83302 0.46169 0.0
H355 H 0.34946 0.78983 0.47426 0.0
H356 H 0.3943 0.81546 0.48238 0.0
H357 H 0.40467 0.82835 0.59152 0.0
H358 H 0.36687 0.76615 0.59899 0.0
H359 H 0.31978 0.75745 0.51853 0.0
C360 C 0.40734 0.89307 0.49905 0.0
C361 C 0.43763 0.9215 0.50927 0.0
C362 C 0.44893 0.92022 0.53648 0.0
C363 C 0.43139 0.89037 0.55259 0.0
C364 C 0.40262 0.86217 0.54117 0.0
C365 C 0.3906 0.86346 0.51505 0.0
C366 C 0.36133 0.82898 0.5062 0.0
C367 C 0.3283 0.83039 0.50251 0.0
C368 C 0.37021 0.81608 0.47957 0.0
C369 C 0.35917 0.8077 0.53113 0.0
C370 C 0.38276 0.82732 0.55132 0.0
C371 C 0.38595 0.81287 0.57593 0.0
C372 C 0.36446 0.77754 0.57996 0.0
C373 C 0.34053 0.75704 0.55928 0.0
C374 C 0.3379 0.77247 0.53466 0.0
H375 H 0.53479 0.39408 0.64329 0.0
H376 H 0.55491 0.46461 0.71164 0.0
H377 H 0.57588 0.4331 0.73998 0.0
H378 H 0.51278 0.31682 0.68369 0.0
H379 H 0.53507 0.30399 0.65986 0.0
H380 H 0.51583 0.32805 0.64744 0.0
H381 H 0.57422 0.37369 0.6272 0.0
H382 H 0.59371 0.35004 0.63979 0.0
H383 H 0.61095 0.39416 0.6498 0.0
H384 H 0.59984 0.39632 0.75907 0.0
H385 H 0.6252 0.35932 0.76646 0.0
H386 H 0.59448 0.31818 0.68319 0.0
C387 C 0.54323 0.40282 0.66434 0.0
C388 C 0.54337 0.43201 0.67516 0.0
C389 C 0.55416 0.4421 0.70297 0.0
C390 C 0.56632 0.42446 0.71915 0.0
C391 C 0.56752 0.39688 0.70717 0.0
C392 C 0.55613 0.38616 0.68036 0.0
C393 C 0.56322 0.35835 0.67097 0.0
C394 C 0.52973 0.32481 0.66516 0.0
C395 C 0.58693 0.36976 0.64544 0.0
C396 C 0.58102 0.35539 0.69648 0.0
C397 C 0.58274 0.37726 0.71741 0.0
C398 C 0.59847 0.37904 0.74283 0.0
C399 C 0.61282 0.35802 0.74684 0.0
C400 C 0.61196 0.33616 0.72531 0.0
C401 C 0.59573 0.33485 0.69994 0.0
H402 H 0.16489 0.5193 0.81415 0.0
H403 H 0.11774 0.54639 0.88039 0.0
H404 H 0.17046 0.56769 0.90855 0.0
H405 H 0.21966 0.49793 0.85772 0.0
H406 H 0.25425 0.51743 0.8331 0.0
H407 H 0.21064 0.49784 0.82119 0.0
H408 H 0.2244 0.55461 0.79712 0.0
H409 H 0.2678 0.57457 0.80931 0.0
H410 H 0.24188 0.59339 0.81743 0.0
H411 H 0.23139 0.5931 0.92663 0.0
H412 H 0.29386 0.619 0.93325 0.0
H413 H 0.30128 0.57902 0.85311 0.0
C414 C 0.1653 0.52895 0.83487 0.0
C415 C 0.13719 0.53121 0.84509 0.0
C416 C 0.13875 0.54395 0.8723 0.0
C417 C 0.1687 0.55632 0.88835 0.0
C418 C 0.1967 0.55561 0.87686 0.0
C419 C 0.19504 0.54192 0.85079 0.0
C420 C 0.22945 0.54746 0.84167 0.0
C421 C 0.22843 0.51312 0.83823 0.0
C422 C 0.24158 0.56877 0.81481 0.0
C423 C 0.25112 0.56731 0.86632 0.0
C424 C 0.23177 0.57128 0.88666 0.0
C425 C 0.24665 0.58979 0.91095 0.0
C426 C 0.28213 0.6045 0.91449 0.0
C427 C 0.30235 0.60108 0.89365 0.0
C428 C 0.28649 0.58211 0.86937 0.0
H429 H 0.60479 0.16344 0.99135 0.0
H430 H 0.64947 0.10908 0.03139 0.0
H431 H 0.686 0.16059 0.05989 0.0
H432 H 0.68114 0.23884 0.98247 0.0
H433 H 0.66367 0.26658 0.98762 0.0
H434 H 0.63688 0.22388 0.97457 0.0
H435 H 0.59417 0.21106 0.01492 0.0
H436 H 0.62076 0.25389 0.02806 0.0
H437 H 0.60925 0.21769 0.05035 0.0
H438 H 0.72201 0.22068 0.0803 0.0
H439 H 0.75468 0.28301 0.08963 0.0
H440 H 0.6887 0.29785 0.03292 0.0
C441 C 0.62196 0.16209 0.00634 0.0
C442 C 0.62437 0.1322 0.00901 0.0
C443 C 0.64688 0.13151 0.02915 0.0
C444 C 0.66782 0.16072 0.04533 0.0
C445 C 0.66582 0.19028 0.04114 0.0
C446 C 0.6433 0.191 0.02213 0.0
C447 C 0.64823 0.22653 0.01919 0.0
C448 C 0.65807 0.23972 0.98919 0.0
C449 C 0.6162 0.22733 0.02871 0.0
C450 C 0.67768 0.24611 0.03905 0.0
C451 C 0.68713 0.22475 0.05195 0.0
C452 C 0.71457 0.23749 0.07047 0.0
C453 C 0.73297 0.27292 0.07564 0.0
C454 C 0.7242 0.29521 0.06197 0.0
C455 C 0.69595 0.28143 0.04372 0.0
H456 H 0.47095 0.60154 0.16227 0.0
H457 H 0.57141 0.65057 0.20044 0.0
H458 H 0.55636 0.68791 0.22762 0.0
H459 H 0.46957 0.67591 0.1505 0.0
H460 H 0.42443 0.65784 0.1565 0.0
H461 H 0.44061 0.63096 0.14453 0.0
H462 H 0.41293 0.5907 0.18668 0.0
H463 H 0.39635 0.61734 0.19872 0.0
H464 H 0.42244 0.60815 0.22142 0.0
H465 H 0.53194 0.72419 0.24646 0.0
H466 H 0.50156 0.75628 0.25441 0.0
H467 H 0.41926 0.68537 0.20063 0.0
C468 C 0.48971 0.61979 0.17665 0.0
C469 C 0.52246 0.62327 0.17914 0.0
C470 C 0.54607 0.64722 0.19839 0.0
C471 C 0.53775 0.6686 0.21381 0.0
C472 C 0.50571 0.66551 0.20976 0.0
C473 C 0.48205 0.6415 0.19168 0.0
C474 C 0.45086 0.64534 0.1886 0.0
C475 C 0.44612 0.65298 0.15824 0.0
C476 C 0.41875 0.61349 0.19952 0.0
C477 C 0.4609 0.67594 0.2072 0.0
C478 C 0.49229 0.68689 0.21968 0.0
C479 C 0.50723 0.71558 0.23699 0.0
C480 C 0.48981 0.73365 0.24136 0.0
C481 C 0.45809 0.72329 0.2281 0.0
C482 C 0.44342 0.69385 0.21108 0.0
H483 H 0.89592 0.45902 0.32746 0.0
H484 H 0.95185 0.55854 0.36722 0.0
H485 H 0.90046 0.54505 0.39502 0.0
H486 H 0.822 0.46193 0.3172 0.0
H487 H 0.79325 0.41685 0.32247 0.0
H488 H 0.83585 0.43159 0.31002 0.0
H489 H 0.84706 0.40137 0.35106 0.0
H490 H 0.8043 0.38625 0.36357 0.0
H491 H 0.84034 0.41058 0.38623 0.0
H492 H 0.84044 0.52256 0.41457 0.0
H493 H 0.77816 0.49424 0.4232 0.0
H494 H 0.76179 0.41189 0.36731 0.0
C495 C 0.89763 0.4779 0.34228 0.0
C496 C 0.92792 0.50994 0.34507 0.0
C497 C 0.92908 0.53369 0.36494 0.0
C498 C 0.89995 0.52628 0.38071 0.0
C499 C 0.87 0.495 0.37638 0.0
C500 C 0.86881 0.47119 0.35767 0.0
C501 C 0.83298 0.44108 0.35447 0.0
C502 C 0.82029 0.43769 0.32426 0.0
C503 C 0.83107 0.40785 0.36444 0.0
C504 C 0.81381 0.45192 0.37379 0.0
C505 C 0.83558 0.48276 0.38669 0.0
C506 C 0.82329 0.49829 0.40476 0.0
C507 C 0.78789 0.48204 0.40952 0.0
C508 C 0.76521 0.45092 0.39588 0.0
C509 C 0.77851 0.43563 0.37805 0.0
H510 H 0.15192 0.57167 0.37835 0.0
H511 H 0.06428 0.57851 0.40622 0.0
H512 H 0.08579 0.58676 0.45449 0.0
H513 H 0.16323 0.53128 0.44153 0.0
H514 H 0.20913 0.55648 0.4393 0.0
H515 H 0.1836 0.54474 0.40809 0.0
H516 H 0.21238 0.60868 0.39428 0.0
H517 H 0.23768 0.62068 0.42553 0.0
H518 H 0.21103 0.63885 0.41811 0.0
H519 H 0.12042 0.60159 0.49837 0.0
H520 H 0.16476 0.62071 0.53478 0.0
H521 H 0.23139 0.60746 0.4775 0.0
C522 C 0.1369 0.57433 0.39465 0.0
C523 C 0.1064 0.57446 0.38849 0.0
C524 C 0.08743 0.5778 0.41046 0.0
C525 C 0.09955 0.58268 0.43793 0.0
C526 C 0.13056 0.58402 0.44301 0.0
C527 C 0.14885 0.57968 0.42199 0.0
C528 C 0.18301 0.58554 0.43231 0.0
C529 C 0.18483 0.55254 0.43019 0.0
C530 C 0.21276 0.6152 0.41663 0.0
C531 C 0.18161 0.59492 0.46228 0.0
C532 C 0.15094 0.59339 0.46815 0.0
C533 C 0.14433 0.60245 0.49412 0.0
C534 C 0.16974 0.6134 0.51461 0.0
C535 C 0.20149 0.61553 0.50893 0.0
C536 C 0.20731 0.60592 0.48246 0.0
H537 H 0.52827 0.12712 0.56046 0.0
H538 H 0.58571 0.07407 0.55767 0.0
H539 H 0.61238 0.09992 0.60308 0.0
H540 H 0.5929 0.20338 0.58424 0.0
H541 H 0.56716 0.2136 0.60645 0.0
H542 H 0.5482 0.18636 0.57669 0.0
H543 H 0.50274 0.1387 0.60807 0.0
H544 H 0.52115 0.16606 0.63798 0.0
H545 H 0.51627 0.12394 0.6376 0.0
H546 H 0.63848 0.13826 0.64534 0.0
H547 H 0.65894 0.18258 0.68222 0.0
H548 H 0.58434 0.21046 0.6561 0.0
C549 C 0.54571 0.12018 0.56988 0.0
C550 C 0.55492 0.09858 0.55586 0.0
C551 C 0.57806 0.09023 0.56844 0.0
C552 C 0.59339 0.10492 0.59408 0.0
C553 C 0.58486 0.12744 0.60682 0.0
C554 C 0.56109 0.13454 0.5953 0.0
C555 C 0.55822 0.16154 0.61172 0.0
C556 C 0.56717 0.19307 0.5937 0.0
C557 C 0.52247 0.14666 0.62462 0.0
C558 C 0.58502 0.16959 0.63374 0.0
C559 C 0.5999 0.14947 0.63085 0.0
C560 C 0.6266 0.15373 0.64805 0.0
C561 C 0.63817 0.17906 0.66881 0.0
C562 C 0.62317 0.19987 0.67198 0.0
C563 C 0.5962 0.19484 0.65425 0.0
H564 H 0.48326 0.59613 0.71063 0.0
H565 H 0.47671 0.50191 0.7391 0.0
H566 H 0.46978 0.51627 0.78737 0.0
H567 H 0.52531 0.64921 0.77307 0.0
H568 H 0.50024 0.67002 0.77097 0.0
H569 H 0.51107 0.65547 0.73972 0.0
H570 H 0.44686 0.62008 0.72677 0.0
H571 H 0.43577 0.63415 0.75805 0.0
H572 H 0.41726 0.58905 0.75108 0.0
H573 H 0.45638 0.53721 0.8313 0.0
H574 H 0.43837 0.56335 0.86774 0.0
H575 H 0.45021 0.6421 0.80981 0.0
C576 C 0.48089 0.57871 0.72705 0.0
C577 C 0.48047 0.54784 0.72107 0.0
C578 C 0.47761 0.52593 0.7432 0.0
C579 C 0.47348 0.5338 0.77066 0.0
C580 C 0.47242 0.56369 0.77558 0.0
C581 C 0.47629 0.58592 0.75439 0.0
C582 C 0.47085 0.61457 0.76459 0.0
C583 C 0.50384 0.64938 0.76194 0.0
C584 C 0.44091 0.61442 0.74921 0.0
C585 C 0.46223 0.60442 0.79471 0.0
C586 C 0.46382 0.57532 0.80074 0.0
C587 C 0.45547 0.56022 0.82691 0.0
C588 C 0.44515 0.5752 0.84742 0.0
C589 C 0.44291 0.60474 0.84155 0.0
C590 C 0.45182 0.61961 0.8149 0.0
H591 H 0.92197 0.41667 0.88853 0.0
H592 H 0.99045 0.52622 0.89498 0.0
H593 H 0.96494 0.52639 0.94054 0.0
H594 H 0.85016 0.41666 0.91271 0.0
H595 H 0.83282 0.37682 0.93134 0.0
H596 H 0.85995 0.38436 0.90172 0.0
H597 H 0.90083 0.37285 0.9316 0.0
H598 H 0.87351 0.36467 0.96127 0.0
H599 H 0.91819 0.39654 0.96341 0.0
H600 H 0.92722 0.51512 0.98275 0.0
H601 H 0.88286 0.49304 0.01934 0.0
H602 H 0.83815 0.39125 0.98355 0.0
C603 C 0.93206 0.4406 0.8998 0.0
C604 C 0.95815 0.47145 0.88833 0.0
C605 C 0.97076 0.50226 0.90363 0.0
C606 C 0.95627 0.5026 0.92939 0.0
C607 C 0.92946 0.47188 0.93948 0.0
C608 C 0.91779 0.44139 0.92527 0.0
C609 C 0.88717 0.41229 0.93938 0.0
C610 C 0.85568 0.39664 0.92014 0.0
C611 C 0.89543 0.38498 0.94952 0.0
C612 C 0.8828 0.43124 0.96347 0.0
C613 C 0.90756 0.46552 0.96337 0.0
C614 C 0.90795 0.48827 0.98318 0.0
C615 C 0.88257 0.47554 0.00377 0.0
C616 C 0.85709 0.44047 0.0042 0.0
C617 C 0.8573 0.41818 0.98374 0.0
H618 H 0.53029 0.91556 0.05115 0.0
H619 H 0.48739 0.98242 0.05509 0.0
H620 H 0.46101 0.95712 0.10053 0.0
H621 H 0.45834 0.84286 0.07546 0.0
H622 H 0.48142 0.82677 0.09482 0.0
H623 H 0.50074 0.85338 0.06489 0.0
H624 H 0.55278 0.89578 0.09467 0.0
H625 H 0.53388 0.86902 0.12466 0.0
H626 H 0.54592 0.91356 0.12595 0.0
H627 H 0.43502 0.92025 0.14344 0.0
H628 H 0.41386 0.87713 0.18103 0.0
H629 H 0.47232 0.83336 0.14695 0.0
C630 C 0.51575 0.92526 0.06177 0.0
C631 C 0.51077 0.95087 0.04966 0.0
C632 C 0.49178 0.96306 0.06421 0.0
C633 C 0.47657 0.94869 0.08989 0.0
C634 C 0.48085 0.92239 0.10065 0.0
C635 C 0.50029 0.91108 0.08711 0.0
C636 C 0.49935 0.88114 0.10191 0.0
C637 C 0.48405 0.84916 0.08315 0.0
C638 C 0.5351 0.89045 0.11243 0.0
C639 C 0.47576 0.8768 0.12571 0.0
C640 C 0.46554 0.90096 0.12482 0.0
C641 C 0.44309 0.90142 0.14443 0.0
C642 C 0.43111 0.87676 0.1656 0.0
C643 C 0.44141 0.85189 0.1668 0.0
C644 C 0.46394 0.85199 0.14652 0.0
H645 H 0.57965 0.46078 0.21443 0.0
H646 H 0.60579 0.56341 0.23931 0.0
H647 H 0.61991 0.55251 0.28656 0.0
H648 H 0.54529 0.4183 0.28264 0.0
H649 H 0.56348 0.39108 0.27822 0.0
H650 H 0.55001 0.40522 0.24826 0.0
H651 H 0.61053 0.42984 0.22714 0.0
H652 H 0.62443 0.41645 0.25719 0.0
H653 H 0.64714 0.46069 0.24672 0.0
H654 H 0.63885 0.53314 0.32856 0.0
H655 H 0.6564 0.50514 0.36368 0.0
H656 H 0.61888 0.41556 0.31058 0.0
C657 C 0.58749 0.48064 0.23007 0.0
C658 C 0.59161 0.51292 0.22336 0.0
C659 C 0.60204 0.53837 0.24422 0.0
C660 C 0.61032 0.53246 0.271 0.0
C661 C 0.60767 0.5009 0.27648 0.0
C662 C 0.59596 0.47521 0.25671 0.0
C663 C 0.59791 0.4446 0.26699 0.0
C664 C 0.56203 0.41293 0.26916 0.0
C665 C 0.6214 0.43751 0.24841 0.0
C666 C 0.61349 0.45741 0.29539 0.0
C667 C 0.61874 0.48983 0.30056 0.0
C668 C 0.63438 0.50757 0.3249 0.0
C669 C 0.64447 0.49155 0.34462 0.0
C670 C 0.63896 0.45819 0.33981 0.0
C671 C 0.6233 0.44102 0.31485 0.0
H672 H 0.42898 0.92403 0.41196 0.0
H673 H 0.53942 0.98669 0.41008 0.0
H674 H 0.54016 0.96074 0.36472 0.0
H675 H 0.42516 0.84991 0.389 0.0
H676 H 0.38657 0.83485 0.3689 0.0
H677 H 0.39434 0.86234 0.39841 0.0
H678 H 0.38765 0.90552 0.36743 0.0
H679 H 0.37929 0.87788 0.33782 0.0
H680 H 0.41318 0.92188 0.33645 0.0
H681 H 0.52857 0.92289 0.32211 0.0
H682 H 0.50586 0.87851 0.28527 0.0
H683 H 0.40334 0.83933 0.31747 0.0
C684 C 0.45331 0.93281 0.40173 0.0
C685 C 0.48418 0.95729 0.41443 0.0
C686 C 0.51549 0.96822 0.40048 0.0
C687 C 0.51611 0.95347 0.37485 0.0
C688 C 0.4852 0.92811 0.36358 0.0
C689 C 0.45436 0.91818 0.37652 0.0
C690 C 0.42492 0.8886 0.36161 0.0
C691 C 0.4067 0.85708 0.38061 0.0
C692 C 0.39979 0.89912 0.35014 0.0
C693 C 0.44398 0.88278 0.33847 0.0
C694 C 0.47866 0.90599 0.3397 0.0
C695 C 0.50143 0.90483 0.32083 0.0
C696 C 0.48833 0.87947 0.30009 0.0
C697 C 0.45288 0.85548 0.29863 0.0
C698 C 0.43057 0.85728 0.31811 0.0
H699 H 0.60453 0.48976 0.59104 0.0
H700 H 0.50424 0.46749 0.56316 0.0
H701 H 0.51712 0.45524 0.51597 0.0
H702 H 0.65113 0.5258 0.52397 0.0
H703 H 0.6767 0.5059 0.52901 0.0
H704 H 0.6621 0.51949 0.55864 0.0
H705 H 0.63457 0.45814 0.5787 0.0
H706 H 0.64832 0.4441 0.54893 0.0
H707 H 0.60371 0.42258 0.55814 0.0
H708 H 0.53713 0.43631 0.47454 0.0
H709 H 0.56488 0.4173 0.44035 0.0
H710 H 0.65163 0.45054 0.49585 0.0
C711 C 0.5857 0.48332 0.57476 0.0
C712 C 0.55343 0.47964 0.58064 0.0
C713 C 0.52931 0.47098 0.55893 0.0
C714 C 0.53633 0.46373 0.53215 0.0
C715 C 0.56766 0.46563 0.52749 0.0
C716 C 0.59221 0.4758 0.54808 0.0
C717 C 0.62248 0.47274 0.5386 0.0
C718 C 0.65503 0.50809 0.53748 0.0
C719 C 0.62753 0.44791 0.5572 0.0
C720 C 0.61065 0.45813 0.50977 0.0
C721 C 0.57911 0.45448 0.50366 0.0
C722 C 0.56209 0.43963 0.4789 0.0
C723 C 0.57794 0.42867 0.45972 0.0
C724 C 0.61041 0.43251 0.46548 0.0
C725 C 0.62689 0.44746 0.49084 0.0
H726 H 0.12942 0.52009 0.74426 0.0
H727 H 0.08462 0.58477 0.75302 0.0
H728 H 0.11439 0.6159 0.71012 0.0
H729 H 0.20947 0.58328 0.72504 0.0
H730 H 0.21754 0.55795 0.7005 0.0
H731 H 0.18877 0.53751 0.72905 0.0
H732 H 0.14048 0.49821 0.69486 0.0
H733 H 0.16932 0.518 0.66614 0.0
H734 H 0.129 0.51701 0.66688 0.0
H735 H 0.15541 0.64454 0.67018 0.0
H736 H 0.1995 0.66475 0.63345 0.0
H737 H 0.21686 0.5806 0.65138 0.0
C738 C 0.12511 0.54015 0.7366 0.0
C739 C 0.1047 0.55006 0.7516 0.0
C740 C 0.09983 0.57663 0.74142 0.0
C741 C 0.1168 0.59451 0.71726 0.0
C742 C 0.13806 0.58506 0.70359 0.0
C743 C 0.14171 0.55805 0.71265 0.0
C744 C 0.16761 0.55423 0.6955 0.0
C745 C 0.19761 0.55851 0.71361 0.0
C746 C 0.15058 0.51982 0.67991 0.0
C747 C 0.17872 0.58386 0.67574 0.0
C748 C 0.1614 0.60134 0.68066 0.0
C749 C 0.16871 0.63072 0.66587 0.0
C750 C 0.19396 0.64214 0.64523 0.0
C751 C 0.21148 0.62416 0.6396 0.0
C752 C 0.20373 0.59473 0.65514 0.0
H753 H 0.6401 0.12907 0.90899 0.0
H754 H 0.52947 0.06961 0.90906 0.0
H755 H 0.52814 0.0972 0.86491 0.0
H756 H 0.64669 0.20481 0.8885 0.0
H757 H 0.68404 0.21881 0.86707 0.0
H758 H 0.67657 0.19045 0.89575 0.0
H759 H 0.67938 0.14652 0.8627 0.0
H760 H 0.68756 0.17506 0.8339 0.0
H761 H 0.6523 0.13173 0.83235 0.0
H762 H 0.53925 0.13711 0.8242 0.0
H763 H 0.5618 0.18252 0.78842 0.0
H764 H 0.66512 0.2161 0.81638 0.0
C765 C 0.61563 0.12121 0.89928 0.0
C766 C 0.58487 0.09721 0.91223 0.0
C767 C 0.55329 0.08764 0.89916 0.0
C768 C 0.55234 0.10333 0.87424 0.0
C769 C 0.5832 0.12819 0.8627 0.0
C770 C 0.61428 0.13664 0.87462 0.0
C771 C 0.64372 0.16581 0.85948 0.0
C772 C 0.66392 0.19679 0.87886 0.0
C773 C 0.66711 0.15407 0.84632 0.0
C774 C 0.62439 0.17321 0.83758 0.0
C775 C 0.58954 0.15115 0.83958 0.0
C776 C 0.56651 0.15419 0.82223 0.0
C777 C 0.57952 0.18016 0.80211 0.0
C778 C 0.61518 0.20278 0.79968 0.0
C779 C 0.63774 0.19914 0.8177 0.0
H780 H 0.54296 0.63522 0.07753 0.0
H781 H 0.48313 0.5248 0.08382 0.0
H782 H 0.45208 0.52266 0.04068 0.0
H783 H 0.47741 0.64795 0.05831 0.0
H784 H 0.50148 0.68253 0.03442 0.0
H785 H 0.52288 0.67516 0.06279 0.0
H786 H 0.56416 0.66986 0.02849 0.0
H787 H 0.54344 0.67806 -5e-05 0.0
H788 H 0.54697 0.64004 -0.00011 0.0
H789 H 0.42212 0.53376 0.00126 0.0
H790 H 0.39988 0.55638 0.96516 0.0
H791 H 0.47996 0.65973 0.98486 0.0
C792 C 0.5241 0.61054 0.06923 0.0
C793 C 0.51548 0.58012 0.08366 0.0
C794 C 0.49037 0.54826 0.07266 0.0
C795 C 0.4725 0.54689 0.04836 0.0
C796 C 0.48048 0.57759 0.03533 0.0
C797 C 0.5062 0.60877 0.04508 0.0
C798 C 0.50836 0.63822 0.02853 0.0
C799 C 0.50215 0.66237 0.04713 0.0
C800 C 0.54277 0.65768 0.0133 0.0
C801 C 0.4792 0.61887 0.00837 0.0
C802 C 0.46344 0.58393 0.01257 0.0
C803 C 0.43463 0.56101 -0.00253 0.0
C804 C 0.42203 0.57412 0.9772 0.0
C805 C 0.43829 0.60978 0.97223 0.0
C806 C 0.46716 0.63234 0.98811 0.0
H807 H 0.92934 0.52735 0.24645 0.0
H808 H 0.99201 0.47975 0.24335 0.0
H809 H 0.96488 0.45215 0.19857 0.0
H810 H 0.85484 0.45638 0.22506 0.0
H811 H 0.83904 0.47927 0.20508 0.0
H812 H 0.86737 0.49992 0.23395 0.0
H813 H 0.90946 0.54919 0.20193 0.0
H814 H 0.88093 0.52905 0.17297 0.0
H815 H 0.92484 0.53931 0.17068 0.0
H816 H 0.92574 0.42456 0.15705 0.0
H817 H 0.88044 0.40185 0.12109 0.0
H818 H 0.84205 0.46586 0.1535 0.0
C819 C 0.93791 0.51171 0.23602 0.0
C820 C 0.96276 0.50564 0.24825 0.0
C821 C 0.97333 0.48506 0.23408 0.0
C822 C 0.95789 0.46913 0.20878 0.0
C823 C 0.93217 0.47431 0.19803 0.0
C824 C 0.92259 0.49547 0.21109 0.0
C825 C 0.89252 0.4948 0.19672 0.0
C826 C 0.86163 0.48181 0.21637 0.0
C827 C 0.90255 0.53019 0.18486 0.0
C828 C 0.88603 0.4693 0.17382 0.0
C829 C 0.90931 0.45798 0.17469 0.0
C830 C 0.90763 0.43353 0.15603 0.0
C831 C 0.88172 0.42066 0.1358 0.0
C832 C 0.85772 0.43205 0.13461 0.0
C833 C 0.85998 0.45662 0.15394 0.0
loop_
_geom_bond_atom_site_label_1
_geom_bond_atom_site_label_2
_geom_bond_distance
_geom_bond_site_symmetry_2
_ccdc_geom_bond_type
H0 C6 0.930 . S
H1 C9 0.931 . S
H2 C11 0.931 . S
H3 C13 0.930 . S
H4 C15 0.930 . S
H5 C17 0.931 1_455 S
C6 H0 0.930 . S
C6 C7 1.380 . S
C6 C8 1.394 . S
C7 C6 1.380 . S
C7 C11 1.382 . S
C8 C6 1.394 . S
C8 C9 1.400 . S
C9 H1 0.931 . S
C9 C8 1.400 . S
C9 C10 1.375 . S
C10 C9 1.375 . S
C10 C11 1.415 . S
C10 C12 1.501 1_455 S
C11 H2 0.931 . S
C11 C7 1.382 . S
C11 C10 1.415 . S
C12 C10 1.501 1_655 S
C12 C13 1.384 . S
C12 C17 1.408 . S
C13 H3 0.930 . S
C13 C12 1.384 . S
C13 C14 1.389 . S
C14 C13 1.389 . S
C14 C15 1.405 . S
C15 H4 0.930 . S
C15 C14 1.405 . S
C15 C16 1.364 . S
C16 C15 1.364 . S
C16 C17 1.400 . S
C17 H5 0.931 1_655 S
C17 C12 1.408 . S
C17 C16 1.400 . S
H18 C24 0.930 . S
H19 C27 0.931 . S
H20 C29 0.931 . S
H21 C31 0.930 . S
H22 C33 0.930 . S
H23 C35 0.931 1_545 S
C24 H18 0.930 . S
C24 C25 1.380 . S
C24 C26 1.394 . S
C25 C24 1.380 . S
C25 C29 1.382 . S
C26 C24 1.394 . S
C26 C27 1.400 . S
C27 H19 0.931 . S
C27 C26 1.400 . S
C27 C28 1.375 . S
C28 C27 1.375 . S
C28 C29 1.415 . S
C28 C30 1.501 1_545 S
C29 H20 0.931 . S
C29 C25 1.382 . S
C29 C28 1.415 . S
C30 C28 1.501 1_565 S
C30 C31 1.384 . S
C30 C35 1.408 . S
C31 H21 0.930 . S
C31 C30 1.384 . S
C31 C32 1.389 . S
C32 C31 1.389 . S
C32 C33 1.405 . S
C33 H22 0.930 . S
C33 C32 1.405 . S
C33 C34 1.364 . S
C34 C33 1.364 . S
C34 C35 1.400 . S
C35 H23 0.931 1_565 S
C35 C30 1.408 . S
C35 C34 1.400 . S
H36 C42 0.930 . S
H37 C45 0.931 . S
H38 C47 0.931 . S
H39 C49 0.930 . S
H40 C51 0.930 . S
H41 C53 0.931 . S
C42 H36 0.930 . S
C42 C43 1.380 . S
C42 C44 1.394 . S
C43 C42 1.380 . S
C43 C47 1.382 . S
C44 C42 1.394 . S
C44 C45 1.400 . S
C45 H37 0.931 . S
C45 C44 1.400 . S
C45 C46 1.375 . S
C46 C45 1.375 . S
C46 C47 1.415 . S
C46 C48 1.501 . S
C47 H38 0.931 . S
C47 C43 1.382 . S
C47 C46 1.415 . S
C48 C46 1.501 . S
C48 C49 1.384 . S
C48 C53 1.408 . S
C49 H39 0.930 . S
C49 C48 1.384 . S
C49 C50 1.389 . S
C50 C49 1.389 . S
C50 C51 1.405 . S
C51 H40 0.930 . S
C51 C50 1.405 . S
C51 C52 1.364 . S
C52 C51 1.364 . S
C52 C53 1.400 . S
C53 H41 0.931 . S
C53 C48 1.408 . S
C53 C52 1.400 . S
H54 C60 0.930 . S
H55 C63 0.931 . S
H56 C65 0.931 . S
H57 C67 0.930 . S
H58 C69 0.930 . S
H59 C71 0.931 1_455 S
C60 H54 0.930 . S
C60 C61 1.380 . S
C60 C62 1.394 . S
C61 C60 1.380 . S
C61 C65 1.382 . S
C62 C60 1.394 . S
C62 C63 1.400 . S
C63 H55 0.931 . S
C63 C62 1.400 . S
C63 C64 1.375 . S
C64 C63 1.375 . S
C64 C65 1.415 . S
C64 C66 1.501 1_455 S
C65 H56 0.931 . S
C65 C61 1.382 . S
C65 C64 1.415 . S
C66 C64 1.501 1_655 S
C66 C67 1.384 . S
C66 C71 1.408 . S
C67 H57 0.930 . S
C67 C66 1.384 . S
C67 C68 1.389 . S
C68 C67 1.389 . S
C68 C69 1.405 . S
C69 H58 0.930 . S
C69 C68 1.405 . S
C69 C70 1.364 . S
C70 C69 1.364 . S
C70 C71 1.400 . S
C71 H59 0.931 1_655 S
C71 C66 1.408 . S
C71 C70 1.400 . S
H72 C78 0.930 . S
H73 C81 0.931 . S
H74 C83 0.931 1_545 S
H75 C85 0.930 . S
H76 C87 0.930 . S
H77 C89 0.931 . S
C78 H72 0.930 . S
C78 C79 1.380 . S
C78 C80 1.394 1_554 S
C79 C78 1.380 . S
C79 C83 1.382 . S
C80 C78 1.394 1_556 S
C80 C81 1.400 . S
C81 H73 0.931 . S
C81 C80 1.400 . S
C81 C82 1.375 . S
C82 C81 1.375 . S
C82 C83 1.415 1_556 S
C82 C84 1.501 1_565 S
C83 H74 0.931 1_565 S
C83 C79 1.382 . S
C83 C82 1.415 1_554 S
C84 C82 1.501 1_545 S
C84 C85 1.384 1_556 S
C84 C89 1.408 . S
C85 H75 0.930 . S
C85 C84 1.384 1_554 S
C85 C86 1.389 1_554 S
C86 C85 1.389 1_556 S
C86 C87 1.405 . S
C87 H76 0.930 . S
C87 C86 1.405 . S
C87 C88 1.364 . S
C88 C87 1.364 . S
C88 C89 1.400 . S
C89 H77 0.931 . S
C89 C84 1.408 . S
C89 C88 1.400 . S
H90 C96 0.930 . S
H91 C99 0.931 . S
H92 C101 0.931 . S
H93 C103 0.930 . S
H94 C105 0.930 . S
H95 C107 0.931 . S
C96 H90 0.930 . S
C96 C97 1.380 . S
C96 C98 1.394 . S
C97 C96 1.380 . S
C97 C101 1.382 . S
C98 C96 1.394 . S
C98 C99 1.400 . S
C99 H91 0.931 . S
C99 C98 1.400 . S
C99 C100 1.375 . S
C100 C99 1.375 . S
C100 C101 1.415 . S
C100 C102 1.501 . S
C101 H92 0.931 . S
C101 C97 1.382 . S
C101 C100 1.415 . S
C102 C100 1.501 . S
C102 C103 1.384 . S
C102 C107 1.408 . S
C103 H93 0.930 . S
C103 C102 1.384 . S
C103 C104 1.389 . S
C104 C103 1.389 . S
C104 C105 1.405 . S
C105 H94 0.930 . S
C105 C104 1.405 . S
C105 C106 1.364 . S
C106 C105 1.364 . S
C106 C107 1.400 . S
C107 H95 0.931 . S
C107 C102 1.408 . S
C107 C106 1.400 . S
In108 O109 2.294 . S
In108 O110 2.326 . S
In108 O114 2.266 . S
In108 O115 2.326 . S
In108 O116 2.266 . S
In108 O117 2.326 . S
In108 O119 2.294 . S
In108 O120 2.326 . S
O109 In108 2.294 . S
O109 C118 1.240 . S
O110 In108 2.326 . S
O110 C118 1.252 . S
C111 O114 1.252 . S
C111 O115 1.260 . S
C112 O119 1.240 . S
C112 O120 1.252 . S
C113 O116 1.252 . S
C113 O117 1.260 . S
O114 In108 2.266 . S
O114 C111 1.252 . S
O115 In108 2.326 . S
O115 C111 1.260 . S
O116 In108 2.266 . S
O116 C113 1.252 . S
O117 In108 2.326 . S
O117 C113 1.260 . S
C118 O109 1.240 . S
C118 O110 1.252 . S
O119 In108 2.294 . S
O119 C112 1.240 . S
O120 In108 2.326 . S
O120 C112 1.252 . S
In121 O122 2.294 . S
In121 O123 2.326 . S
In121 O127 2.266 . S
In121 O128 2.326 . S
In121 O129 2.266 . S
In121 O130 2.326 . S
In121 O132 2.294 . S
In121 O133 2.326 . S
O122 In121 2.294 . S
O122 C131 1.240 . S
O123 In121 2.326 . S
O123 C131 1.252 . S
C124 O127 1.252 . S
C124 O128 1.260 . S
C125 O132 1.240 . S
C125 O133 1.252 . S
C126 O129 1.252 . S
C126 O130 1.260 . S
O127 In121 2.266 . S
O127 C124 1.252 . S
O128 In121 2.326 . S
O128 C124 1.260 . S
O129 In121 2.266 . S
O129 C126 1.252 . S
O130 In121 2.326 . S
O130 C126 1.260 . S
C131 O122 1.240 . S
C131 O123 1.252 . S
O132 In121 2.294 . S
O132 C125 1.240 . S
O133 In121 2.326 . S
O133 C125 1.252 . S
In134 O135 2.294 . S
In134 O136 2.326 . S
In134 O140 2.266 . S
In134 O141 2.326 . S
In134 O142 2.266 . S
In134 O143 2.326 . S
In134 O145 2.294 . S
In134 O146 2.326 . S
O135 In134 2.294 . S
O135 C144 1.240 . S
O136 In134 2.326 . S
O136 C144 1.252 . S
C137 O140 1.252 . S
C137 O141 1.260 . S
C138 O145 1.240 . S
C138 O146 1.252 . S
C139 O142 1.252 . S
C139 O143 1.260 . S
O140 In134 2.266 . S
O140 C137 1.252 . S
O141 In134 2.326 . S
O141 C137 1.260 . S
O142 In134 2.266 . S
O142 C139 1.252 . S
O143 In134 2.326 . S
O143 C139 1.260 . S
C144 O135 1.240 . S
C144 O136 1.252 . S
O145 In134 2.294 . S
O145 C138 1.240 . S
O146 In134 2.326 . S
O146 C138 1.252 . S
In147 O148 2.294 . S
In147 O149 2.326 . S
In147 O153 2.266 . S
In147 O154 2.326 . S
In147 O155 2.266 . S
In147 O156 2.326 . S
In147 O158 2.294 . S
In147 O159 2.326 . S
O148 In147 2.294 . S
O148 C157 1.240 . S
O149 In147 2.326 . S
O149 C157 1.252 . S
C150 O153 1.252 . S
C150 O154 1.260 . S
C151 O158 1.240 . S
C151 O159 1.252 . S
C152 O155 1.252 . S
C152 O156 1.260 . S
O153 In147 2.266 . S
O153 C150 1.252 . S
O154 In147 2.326 . S
O154 C150 1.260 . S
O155 In147 2.266 . S
O155 C152 1.252 . S
O156 In147 2.326 . S
O156 C152 1.260 . S
C157 O148 1.240 . S
C157 O149 1.252 . S
O158 In147 2.294 . S
O158 C151 1.240 . S
O159 In147 2.326 . S
O159 C151 1.252 . S
In160 O161 2.294 . S
In160 O162 2.326 . S
In160 O166 2.266 . S
In160 O167 2.326 . S
In160 O168 2.266 . S
In160 O169 2.326 . S
In160 O171 2.294 . S
In160 O172 2.326 . S
O161 In160 2.294 . S
O161 C170 1.240 . S
O162 In160 2.326 . S
O162 C170 1.252 . S
C163 O166 1.252 . S
C163 O167 1.260 . S
C164 O171 1.240 . S
C164 O172 1.252 . S
C165 O168 1.252 . S
C165 O169 1.260 . S
O166 In160 2.266 . S
O166 C163 1.252 . S
O167 In160 2.326 . S
O167 C163 1.260 . S
O168 In160 2.266 . S
O168 C165 1.252 . S
O169 In160 2.326 . S
O169 C165 1.260 . S
C170 O161 1.240 . S
C170 O162 1.252 . S
O171 In160 2.294 . S
O171 C164 1.240 . S
O172 In160 2.326 . S
O172 C164 1.252 . S
In173 O174 2.294 . S
In173 O175 2.326 . S
In173 O179 2.266 . S
In173 O180 2.326 . S
In173 O181 2.266 . S
In173 O182 2.326 . S
In173 O184 2.294 . S
In173 O185 2.326 . S
O174 In173 2.294 . S
O174 C183 1.240 . S
O175 In173 2.326 . S
O175 C183 1.252 . S
C176 O179 1.252 . S
C176 O180 1.260 . S
C177 O184 1.240 . S
C177 O185 1.252 . S
C178 O181 1.252 . S
C178 O182 1.260 . S
O179 In173 2.266 . S
O179 C176 1.252 . S
O180 In173 2.326 . S
O180 C176 1.260 . S
O181 In173 2.266 . S
O181 C178 1.252 . S
O182 In173 2.326 . S
O182 C178 1.260 . S
C183 O174 1.240 . S
C183 O175 1.252 . S
O184 In173 2.294 . S
O184 C177 1.240 . S
O185 In173 2.326 . S
O185 C177 1.252 . S
H186 C198 0.930 . S
H187 C200 0.930 . S
H188 C201 0.930 . S
H189 C205 0.959 . S
H190 C205 0.959 . S
H191 C205 0.961 . S
H192 C206 0.960 . S
H193 C206 0.961 . S
H194 C206 0.959 . S
H195 C209 0.929 . S
H196 C210 0.931 . S
H197 C212 0.930 . S
C198 H186 0.930 . S
C198 C199 1.399 . S
C198 C203 1.399 . S
C199 C198 1.399 . S
C199 C200 1.376 . S
C200 H187 0.930 . S
C200 C199 1.376 . S
C200 C201 1.388 . S
C201 H188 0.930 . S
C201 C200 1.388 . S
C201 C202 1.390 . S
C202 C201 1.390 . S
C202 C203 1.394 . S
C202 C208 1.465 . S
C203 C198 1.399 . S
C203 C202 1.394 . S
C203 C204 1.516 . S
C204 C203 1.516 . S
C204 C205 1.502 . S
C204 C206 1.561 . S
C204 C207 1.526 . S
C205 H189 0.959 . S
C205 H190 0.959 . S
C205 H191 0.961 . S
C205 C204 1.502 . S
C206 H192 0.960 . S
C206 H193 0.961 . S
C206 H194 0.959 . S
C206 C204 1.561 . S
C207 C204 1.526 . S
C207 C208 1.396 . S
C207 C212 1.390 . S
C208 C202 1.465 . S
C208 C207 1.396 . S
C208 C209 1.399 . S
C209 H195 0.929 . S
C209 C208 1.399 . S
C209 C210 1.385 . S
C210 H196 0.931 . S
C210 C209 1.385 . S
C210 C211 1.389 . S
C211 C210 1.389 . S
C211 C212 1.387 . S
C212 H197 0.930 . S
C212 C207 1.390 . S
C212 C211 1.387 . S
H213 C225 0.930 . S
H214 C227 0.930 . S
H215 C228 0.930 . S
H216 C232 0.959 . S
H217 C232 0.959 . S
H218 C232 0.961 . S
H219 C233 0.960 . S
H220 C233 0.961 . S
H221 C233 0.959 . S
H222 C236 0.929 . S
H223 C237 0.931 . S
H224 C239 0.930 . S
C225 H213 0.930 . S
C225 C226 1.399 . S
C225 C230 1.399 . S
C226 C225 1.399 . S
C226 C227 1.376 . S
C227 H214 0.930 . S
C227 C226 1.376 . S
C227 C228 1.388 . S
C228 H215 0.930 . S
C228 C227 1.388 . S
C228 C229 1.390 . S
C229 C228 1.390 . S
C229 C230 1.394 . S
C229 C235 1.465 . S
C230 C225 1.399 . S
C230 C229 1.394 . S
C230 C231 1.516 . S
C231 C230 1.516 . S
C231 C232 1.502 . S
C231 C233 1.561 . S
C231 C234 1.526 . S
C232 H216 0.959 . S
C232 H217 0.959 . S
C232 H218 0.961 . S
C232 C231 1.502 . S
C233 H219 0.960 . S
C233 H220 0.961 . S
C233 H221 0.959 . S
C233 C231 1.561 . S
C234 C231 1.526 . S
C234 C235 1.396 . S
C234 C239 1.390 . S
C235 C229 1.465 . S
C235 C234 1.396 . S
C235 C236 1.399 . S
C236 H222 0.929 . S
C236 C235 1.399 . S
C236 C237 1.385 . S
C237 H223 0.931 . S
C237 C236 1.385 . S
C237 C238 1.389 . S
C238 C237 1.389 . S
C238 C239 1.387 . S
C239 H224 0.930 . S
C239 C234 1.390 . S
C239 C238 1.387 . S
H240 C252 0.930 . S
H241 C254 0.930 . S
H242 C255 0.930 . S
H243 C259 0.959 . S
H244 C259 0.959 . S
H245 C259 0.961 . S
H246 C260 0.960 . S
H247 C260 0.961 . S
H248 C260 0.959 . S
H249 C263 0.929 . S
H250 C264 0.931 . S
H251 C266 0.930 . S
C252 H240 0.930 . S
C252 C253 1.399 . S
C252 C257 1.399 . S
C253 C252 1.399 . S
C253 C254 1.376 . S
C254 H241 0.930 . S
C254 C253 1.376 . S
C254 C255 1.388 . S
C255 H242 0.930 . S
C255 C254 1.388 . S
C255 C256 1.390 . S
C256 C255 1.390 . S
C256 C257 1.394 . S
C256 C262 1.465 . S
C257 C252 1.399 . S
C257 C256 1.394 . S
C257 C258 1.516 . S
C258 C257 1.516 . S
C258 C259 1.502 . S
C258 C260 1.561 . S
C258 C261 1.526 . S
C259 H243 0.959 . S
C259 H244 0.959 . S
C259 H245 0.961 . S
C259 C258 1.502 . S
C260 H246 0.960 . S
C260 H247 0.961 . S
C260 H248 0.959 . S
C260 C258 1.561 . S
C261 C258 1.526 . S
C261 C262 1.396 . S
C261 C266 1.390 . S
C262 C256 1.465 . S
C262 C261 1.396 . S
C262 C263 1.399 . S
C263 H249 0.929 . S
C263 C262 1.399 . S
C263 C264 1.385 . S
C264 H250 0.931 . S
C264 C263 1.385 . S
C264 C265 1.389 . S
C265 C264 1.389 . S
C265 C266 1.387 . S
C266 H251 0.930 . S
C266 C261 1.390 . S
C266 C265 1.387 . S
H267 C279 0.930 . S
H268 C281 0.930 . S
H269 C282 0.930 . S
H270 C286 0.959 . S
H271 C286 0.959 . S
H272 C286 0.961 . S
H273 C287 0.960 . S
H274 C287 0.961 . S
H275 C287 0.959 . S
H276 C290 0.929 . S
H277 C291 0.931 . S
H278 C293 0.930 . S
C279 H267 0.930 . S
C279 C280 1.399 . S
C279 C284 1.399 . S
C280 C279 1.399 . S
C280 C281 1.376 . S
C281 H268 0.930 . S
C281 C280 1.376 . S
C281 C282 1.388 . S
C282 H269 0.930 . S
C282 C281 1.388 . S
C282 C283 1.390 . S
C283 C282 1.390 . S
C283 C284 1.394 . S
C283 C289 1.465 . S
C284 C279 1.399 . S
C284 C283 1.394 . S
C284 C285 1.516 . S
C285 C284 1.516 . S
C285 C286 1.502 . S
C285 C287 1.561 . S
C285 C288 1.526 . S
C286 H270 0.959 . S
C286 H271 0.959 . S
C286 H272 0.961 . S
C286 C285 1.502 . S
C287 H273 0.960 . S
C287 H274 0.961 . S
C287 H275 0.959 . S
C287 C285 1.561 . S
C288 C285 1.526 . S
C288 C289 1.396 . S
C288 C293 1.390 . S
C289 C283 1.465 . S
C289 C288 1.396 . S
C289 C290 1.399 . S
C290 H276 0.929 . S
C290 C289 1.399 . S
C290 C291 1.385 . S
C291 H277 0.931 . S
C291 C290 1.385 . S
C291 C292 1.389 . S
C292 C291 1.389 . S
C292 C293 1.387 . S
C293 H278 0.930 . S
C293 C288 1.390 . S
C293 C292 1.387 . S
H294 C306 0.930 . S
H295 C308 0.930 1_554 S
H296 C309 0.930 1_554 S
H297 C313 0.959 . S
H298 C313 0.959 . S
H299 C313 0.961 . S
H300 C314 0.960 . S
H301 C314 0.961 . S
H302 C314 0.959 . S
H303 C317 0.929 . S
H304 C318 0.931 . S
H305 C320 0.930 . S
C306 H294 0.930 . S
C306 C307 1.399 . S
C306 C311 1.399 . S
C307 C306 1.399 . S
C307 C308 1.376 . S
C308 H295 0.930 1_556 S
C308 C307 1.376 . S
C308 C309 1.388 . S
C309 H296 0.930 1_556 S
C309 C308 1.388 . S
C309 C310 1.390 . S
C310 C309 1.390 . S
C310 C311 1.394 . S
C310 C316 1.465 . S
C311 C306 1.399 . S
C311 C310 1.394 . S
C311 C312 1.516 . S
C312 C311 1.516 . S
C312 C313 1.502 . S
C312 C314 1.561 . S
C312 C315 1.526 . S
C313 H297 0.959 . S
C313 H298 0.959 . S
C313 H299 0.961 . S
C313 C312 1.502 . S
C314 H300 0.960 . S
C314 H301 0.961 . S
C314 H302 0.959 . S
C314 C312 1.561 . S
C315 C312 1.526 . S
C315 C316 1.396 . S
C315 C320 1.390 . S
C316 C310 1.465 . S
C316 C315 1.396 . S
C316 C317 1.399 . S
C317 H303 0.929 . S
C317 C316 1.399 . S
C317 C318 1.385 . S
C318 H304 0.931 . S
C318 C317 1.385 . S
C318 C319 1.389 . S
C319 C318 1.389 . S
C319 C320 1.387 . S
C320 H305 0.930 . S
C320 C315 1.390 . S
C320 C319 1.387 . S
H321 C333 0.930 . S
H322 C335 0.930 . S
H323 C336 0.930 . S
H324 C340 0.959 . S
H325 C340 0.959 . S
H326 C340 0.961 . S
H327 C341 0.960 . S
H328 C341 0.961 . S
H329 C341 0.959 . S
H330 C344 0.929 . S
H331 C345 0.931 . S
H332 C347 0.930 . S
C333 H321 0.930 . S
C333 C334 1.399 . S
C333 C338 1.399 . S
C334 C333 1.399 . S
C334 C335 1.376 . S
C335 H322 0.930 . S
C335 C334 1.376 . S
C335 C336 1.388 . S
C336 H323 0.930 . S
C336 C335 1.388 . S
C336 C337 1.390 . S
C337 C336 1.390 . S
C337 C338 1.394 . S
C337 C343 1.465 . S
C338 C333 1.399 . S
C338 C337 1.394 . S
C338 C339 1.516 . S
C339 C338 1.516 . S
C339 C340 1.502 . S
C339 C341 1.561 . S
C339 C342 1.526 . S
C340 H324 0.959 . S
C340 H325 0.959 . S
C340 H326 0.961 . S
C340 C339 1.502 . S
C341 H327 0.960 . S
C341 H328 0.961 . S
C341 H329 0.959 . S
C341 C339 1.561 . S
C342 C339 1.526 . S
C342 C343 1.396 . S
C342 C347 1.390 . S
C343 C337 1.465 . S
C343 C342 1.396 . S
C343 C344 1.399 . S
C344 H330 0.929 . S
C344 C343 1.399 . S
C344 C345 1.385 . S
C345 H331 0.931 . S
C345 C344 1.385 . S
C345 C346 1.389 . S
C346 C345 1.389 . S
C346 C347 1.387 . S
C347 H332 0.930 . S
C347 C342 1.390 . S
C347 C346 1.387 . S
H348 C360 0.930 . S
H349 C362 0.930 . S
H350 C363 0.930 . S
H351 C367 0.959 . S
H352 C367 0.959 . S
H353 C367 0.961 . S
H354 C368 0.960 . S
H355 C368 0.961 . S
H356 C368 0.959 . S
H357 C371 0.929 . S
H358 C372 0.931 . S
H359 C374 0.930 . S
C360 H348 0.930 . S
C360 C361 1.399 . S
C360 C365 1.399 . S
C361 C360 1.399 . S
C361 C362 1.376 . S
C362 H349 0.930 . S
C362 C361 1.376 . S
C362 C363 1.388 . S
C363 H350 0.930 . S
C363 C362 1.388 . S
C363 C364 1.390 . S
C364 C363 1.390 . S
C364 C365 1.394 . S
C364 C370 1.465 . S
C365 C360 1.399 . S
C365 C364 1.394 . S
C365 C366 1.516 . S
C366 C365 1.516 . S
C366 C367 1.502 . S
C366 C368 1.561 . S
C366 C369 1.526 . S
C367 H351 0.959 . S
C367 H352 0.959 . S
C367 H353 0.961 . S
C367 C366 1.502 . S
C368 H354 0.960 . S
C368 H355 0.961 . S
C368 H356 0.959 . S
C368 C366 1.561 . S
C369 C366 1.526 . S
C369 C370 1.396 . S
C369 C374 1.390 . S
C370 C364 1.465 . S
C370 C369 1.396 . S
C370 C371 1.399 . S
C371 H357 0.929 . S
C371 C370 1.399 . S
C371 C372 1.385 . S
C372 H358 0.931 . S
C372 C371 1.385 . S
C372 C373 1.389 . S
C373 C372 1.389 . S
C373 C374 1.387 . S
C374 H359 0.930 . S
C374 C369 1.390 . S
C374 C373 1.387 . S
H375 C387 0.930 . S
H376 C389 0.930 . S
H377 C390 0.930 . S
H378 C394 0.959 . S
H379 C394 0.959 . S
H380 C394 0.961 . S
H381 C395 0.960 . S
H382 C395 0.961 . S
H383 C395 0.959 . S
H384 C398 0.929 . S
H385 C399 0.931 . S
H386 C401 0.930 . S
C387 H375 0.930 . S
C387 C388 1.399 . S
C387 C392 1.399 . S
C388 C387 1.399 . S
C388 C389 1.376 . S
C389 H376 0.930 . S
C389 C388 1.376 . S
C389 C390 1.388 . S
C390 H377 0.930 . S
C390 C389 1.388 . S
C390 C391 1.390 . S
C391 C390 1.390 . S
C391 C392 1.394 . S
C391 C397 1.465 . S
C392 C387 1.399 . S
C392 C391 1.394 . S
C392 C393 1.516 . S
C393 C392 1.516 . S
C393 C394 1.502 . S
C393 C395 1.561 . S
C393 C396 1.526 . S
C394 H378 0.959 . S
C394 H379 0.959 . S
C394 H380 0.961 . S
C394 C393 1.502 . S
C395 H381 0.960 . S
C395 H382 0.961 . S
C395 H383 0.959 . S
C395 C393 1.561 . S
C396 C393 1.526 . S
C396 C397 1.396 . S
C396 C401 1.390 . S
C397 C391 1.465 . S
C397 C396 1.396 . S
C397 C398 1.399 . S
C398 H384 0.929 . S
C398 C397 1.399 . S
C398 C399 1.385 . S
C399 H385 0.931 . S
C399 C398 1.385 . S
C399 C400 1.389 . S
C400 C399 1.389 . S
C400 C401 1.387 . S
C401 H386 0.930 . S
C401 C396 1.390 . S
C401 C400 1.387 . S
H402 C414 0.930 . S
H403 C416 0.930 . S
H404 C417 0.930 . S
H405 C421 0.959 . S
H406 C421 0.959 . S
H407 C421 0.961 . S
H408 C422 0.960 . S
H409 C422 0.961 . S
H410 C422 0.959 . S
H411 C425 0.929 . S
H412 C426 0.931 . S
H413 C428 0.930 . S
C414 H402 0.930 . S
C414 C415 1.399 . S
C414 C419 1.399 . S
C415 C414 1.399 . S
C415 C416 1.376 . S
C416 H403 0.930 . S
C416 C415 1.376 . S
C416 C417 1.388 . S
C417 H404 0.930 . S
C417 C416 1.388 . S
C417 C418 1.390 . S
C418 C417 1.390 . S
C418 C419 1.394 . S
C418 C424 1.465 . S
C419 C414 1.399 . S
C419 C418 1.394 . S
C419 C420 1.516 . S
C420 C419 1.516 . S
C420 C421 1.502 . S
C420 C422 1.561 . S
C420 C423 1.526 . S
C421 H405 0.959 . S
C421 H406 0.959 . S
C421 H407 0.961 . S
C421 C420 1.502 . S
C422 H408 0.960 . S
C422 H409 0.961 . S
C422 H410 0.959 . S
C422 C420 1.561 . S
C423 C420 1.526 . S
C423 C424 1.396 . S
C423 C428 1.390 . S
C424 C418 1.465 . S
C424 C423 1.396 . S
C424 C425 1.399 . S
C425 H411 0.929 . S
C425 C424 1.399 . S
C425 C426 1.385 . S
C426 H412 0.931 . S
C426 C425 1.385 . S
C426 C427 1.389 . S
C427 C426 1.389 . S
C427 C428 1.387 . S
C428 H413 0.930 . S
C428 C423 1.390 . S
C428 C427 1.387 . S
H429 C441 0.930 . S
H430 C443 0.930 . S
H431 C444 0.930 . S
H432 C448 0.959 . S
H433 C448 0.959 . S
H434 C448 0.961 . S
H435 C449 0.960 . S
H436 C449 0.961 . S
H437 C449 0.959 1_554 S
H438 C452 0.929 . S
H439 C453 0.931 . S
H440 C455 0.930 . S
C441 H429 0.930 . S
C441 C442 1.399 1_556 S
C441 C446 1.399 1_556 S
C442 C441 1.399 1_554 S
C442 C443 1.376 . S
C443 H430 0.930 . S
C443 C442 1.376 . S
C443 C444 1.388 . S
C444 H431 0.930 . S
C444 C443 1.388 . S
C444 C445 1.390 . S
C445 C444 1.390 . S
C445 C446 1.394 . S
C445 C451 1.465 . S
C446 C441 1.399 1_554 S
C446 C445 1.394 . S
C446 C447 1.507 1_554 S
C447 C446 1.507 1_556 S
C447 C448 1.521 . S
C447 C449 1.567 . S
C447 C450 1.507 1_556 S
C448 H432 0.959 . S
C448 H433 0.959 . S
C448 H434 0.961 . S
C448 C447 1.521 . S
C449 H435 0.960 . S
C449 H436 0.961 . S
C449 H437 0.959 1_556 S
C449 C447 1.567 . S
C450 C447 1.507 1_554 S
C450 C451 1.396 . S
C450 C455 1.390 . S
C451 C445 1.465 . S
C451 C450 1.396 . S
C451 C452 1.399 . S
C452 H438 0.929 . S
C452 C451 1.399 . S
C452 C453 1.385 . S
C453 H439 0.931 . S
C453 C452 1.385 . S
C453 C454 1.389 . S
C454 C453 1.389 . S
C454 C455 1.387 . S
C455 H440 0.930 . S
C455 C450 1.390 . S
C455 C454 1.387 . S
H456 C468 0.930 . S
H457 C470 0.930 . S
H458 C471 0.930 . S
H459 C475 0.959 . S
H460 C475 0.959 . S
H461 C475 0.961 . S
H462 C476 0.960 . S
H463 C476 0.961 . S
H464 C476 0.959 . S
H465 C479 0.929 . S
H466 C480 0.931 . S
H467 C482 0.930 . S
C468 H456 0.930 . S
C468 C469 1.399 . S
C468 C473 1.399 . S
C469 C468 1.399 . S
C469 C470 1.376 . S
C470 H457 0.930 . S
C470 C469 1.376 . S
C470 C471 1.388 . S
C471 H458 0.930 . S
C471 C470 1.388 . S
C471 C472 1.390 . S
C472 C471 1.390 . S
C472 C473 1.394 . S
C472 C478 1.465 . S
C473 C468 1.399 . S
C473 C472 1.394 . S
C473 C474 1.516 . S
C474 C473 1.516 . S
C474 C475 1.502 . S
C474 C476 1.561 . S
C474 C477 1.526 . S
C475 H459 0.959 . S
C475 H460 0.959 . S
C475 H461 0.961 . S
C475 C474 1.502 . S
C476 H462 0.960 . S
C476 H463 0.961 . S
C476 H464 0.959 . S
C476 C474 1.561 . S
C477 C474 1.526 . S
C477 C478 1.396 . S
C477 C482 1.390 . S
C478 C472 1.465 . S
C478 C477 1.396 . S
C478 C479 1.399 . S
C479 H465 0.929 . S
C479 C478 1.399 . S
C479 C480 1.385 . S
C480 H466 0.931 . S
C480 C479 1.385 . S
C480 C481 1.389 . S
C481 C480 1.389 . S
C481 C482 1.387 . S
C482 H467 0.930 . S
C482 C477 1.390 . S
C482 C481 1.387 . S
H483 C495 0.930 . S
H484 C497 0.930 . S
H485 C498 0.930 . S
H486 C502 0.959 . S
H487 C502 0.959 . S
H488 C502 0.961 . S
H489 C503 0.960 . S
H490 C503 0.961 . S
H491 C503 0.959 . S
H492 C506 0.929 . S
H493 C507 0.931 . S
H494 C509 0.930 . S
C495 H483 0.930 . S
C495 C496 1.399 . S
C495 C500 1.399 . S
C496 C495 1.399 . S
C496 C497 1.376 . S
C497 H484 0.930 . S
C497 C496 1.376 . S
C497 C498 1.388 . S
C498 H485 0.930 . S
C498 C497 1.388 . S
C498 C499 1.390 . S
C499 C498 1.390 . S
C499 C500 1.394 . S
C499 C505 1.465 . S
C500 C495 1.399 . S
C500 C499 1.394 . S
C500 C501 1.516 . S
C501 C500 1.516 . S
C501 C502 1.502 . S
C501 C503 1.561 . S
C501 C504 1.526 . S
C502 H486 0.959 . S
C502 H487 0.959 . S
C502 H488 0.961 . S
C502 C501 1.502 . S
C503 H489 0.960 . S
C503 H490 0.961 . S
C503 H491 0.959 . S
C503 C501 1.561 . S
C504 C501 1.526 . S
C504 C505 1.396 . S
C504 C509 1.390 . S
C505 C499 1.465 . S
C505 C504 1.396 . S
C505 C506 1.399 . S
C506 H492 0.929 . S
C506 C505 1.399 . S
C506 C507 1.385 . S
C507 H493 0.931 . S
C507 C506 1.385 . S
C507 C508 1.389 . S
C508 C507 1.389 . S
C508 C509 1.387 . S
C509 H494 0.930 . S
C509 C504 1.390 . S
C509 C508 1.387 . S
H510 C522 0.930 . S
H511 C524 0.930 . S
H512 C525 0.930 . S
H513 C529 0.959 . S
H514 C529 0.959 . S
H515 C529 0.961 . S
H516 C530 0.960 . S
H517 C530 0.961 . S
H518 C530 0.959 . S
H519 C533 0.929 . S
H520 C534 0.931 . S
H521 C536 0.930 . S
C522 H510 0.930 . S
C522 C523 1.399 . S
C522 C527 1.399 . S
C523 C522 1.399 . S
C523 C524 1.376 . S
C524 H511 0.930 . S
C524 C523 1.376 . S
C524 C525 1.388 . S
C525 H512 0.930 . S
C525 C524 1.388 . S
C525 C526 1.390 . S
C526 C525 1.390 . S
C526 C527 1.394 . S
C526 C532 1.465 . S
C527 C522 1.399 . S
C527 C526 1.394 . S
C527 C528 1.516 . S
C528 C527 1.516 . S
C528 C529 1.502 . S
C528 C530 1.561 . S
C528 C531 1.526 . S
C529 H513 0.959 . S
C529 H514 0.959 . S
C529 H515 0.961 . S
C529 C528 1.502 . S
C530 H516 0.960 . S
C530 H517 0.961 . S
C530 H518 0.959 . S
C530 C528 1.561 . S
C531 C528 1.526 . S
C531 C532 1.396 . S
C531 C536 1.390 . S
C532 C526 1.465 . S
C532 C531 1.396 . S
C532 C533 1.399 . S
C533 H519 0.929 . S
C533 C532 1.399 . S
C533 C534 1.385 . S
C534 H520 0.931 . S
C534 C533 1.385 . S
C534 C535 1.389 . S
C535 C534 1.389 . S
C535 C536 1.387 . S
C536 H521 0.930 . S
C536 C531 1.390 . S
C536 C535 1.387 . S
H537 C549 0.930 . S
H538 C551 0.930 . S
H539 C552 0.930 . S
H540 C556 0.959 . S
H541 C556 0.959 . S
H542 C556 0.961 . S
H543 C557 0.960 . S
H544 C557 0.961 . S
H545 C557 0.959 . S
H546 C560 0.929 . S
H547 C561 0.931 . S
H548 C563 0.930 . S
C549 H537 0.930 . S
C549 C550 1.399 . S
C549 C554 1.399 . S
C550 C549 1.399 . S
C550 C551 1.376 . S
C551 H538 0.930 . S
C551 C550 1.376 . S
C551 C552 1.388 . S
C552 H539 0.930 . S
C552 C551 1.388 . S
C552 C553 1.390 . S
C553 C552 1.390 . S
C553 C554 1.394 . S
C553 C559 1.465 . S
C554 C549 1.399 . S
C554 C553 1.394 . S
C554 C555 1.516 . S
C555 C554 1.516 . S
C555 C556 1.502 . S
C555 C557 1.561 . S
C555 C558 1.526 . S
C556 H540 0.959 . S
C556 H541 0.959 . S
C556 H542 0.961 . S
C556 C555 1.502 . S
C557 H543 0.960 . S
C557 H544 0.961 . S
C557 H545 0.959 . S
C557 C555 1.561 . S
C558 C555 1.526 . S
C558 C559 1.396 . S
C558 C563 1.390 . S
C559 C553 1.465 . S
C559 C558 1.396 . S
C559 C560 1.399 . S
C560 H546 0.929 . S
C560 C559 1.399 . S
C560 C561 1.385 . S
C561 H547 0.931 . S
C561 C560 1.385 . S
C561 C562 1.389 . S
C562 C561 1.389 . S
C562 C563 1.387 . S
C563 H548 0.930 . S
C563 C558 1.390 . S
C563 C562 1.387 . S
H564 C576 0.930 . S
H565 C578 0.930 . S
H566 C579 0.930 . S
H567 C583 0.959 . S
H568 C583 0.959 . S
H569 C583 0.961 . S
H570 C584 0.960 . S
H571 C584 0.961 . S
H572 C584 0.959 . S
H573 C587 0.929 . S
H574 C588 0.931 . S
H575 C590 0.930 . S
C576 H564 0.930 . S
C576 C577 1.399 . S
C576 C581 1.399 . S
C577 C576 1.399 . S
C577 C578 1.376 . S
C578 H565 0.930 . S
C578 C577 1.376 . S
C578 C579 1.388 . S
C579 H566 0.930 . S
C579 C578 1.388 . S
C579 C580 1.390 . S
C580 C579 1.390 . S
C580 C581 1.394 . S
C580 C586 1.465 . S
C581 C576 1.399 . S
C581 C580 1.394 . S
C581 C582 1.516 . S
C582 C581 1.516 . S
C582 C583 1.502 . S
C582 C584 1.561 . S
C582 C585 1.526 . S
C583 H567 0.959 . S
C583 H568 0.959 . S
C583 H569 0.961 . S
C583 C582 1.502 . S
C584 H570 0.960 . S
C584 H571 0.961 . S
C584 H572 0.959 . S
C584 C582 1.561 . S
C585 C582 1.526 . S
C585 C586 1.396 . S
C585 C590 1.390 . S
C586 C580 1.465 . S
C586 C585 1.396 . S
C586 C587 1.399 . S
C587 H573 0.929 . S
C587 C586 1.399 . S
C587 C588 1.385 . S
C588 H574 0.931 . S
C588 C587 1.385 . S
C588 C589 1.389 . S
C589 C588 1.389 . S
C589 C590 1.387 . S
C590 H575 0.930 . S
C590 C585 1.390 . S
C590 C589 1.387 . S
H591 C603 0.930 . S
H592 C605 0.930 . S
H593 C606 0.930 . S
H594 C610 0.959 . S
H595 C610 0.959 . S
H596 C610 0.961 . S
H597 C611 0.960 . S
H598 C611 0.961 . S
H599 C611 0.959 . S
H600 C614 0.929 1_554 S
H601 C615 0.931 . S
H602 C617 0.930 . S
C603 H591 0.930 . S
C603 C604 1.399 . S
C603 C608 1.399 . S
C604 C603 1.399 . S
C604 C605 1.376 . S
C605 H592 0.930 . S
C605 C604 1.376 . S
C605 C606 1.388 . S
C606 H593 0.930 . S
C606 C605 1.388 . S
C606 C607 1.390 . S
C607 C606 1.390 . S
C607 C608 1.394 . S
C607 C613 1.465 . S
C608 C603 1.399 . S
C608 C607 1.394 . S
C608 C609 1.516 . S
C609 C608 1.516 . S
C609 C610 1.502 . S
C609 C611 1.561 . S
C609 C612 1.526 . S
C610 H594 0.959 . S
C610 H595 0.959 . S
C610 H596 0.961 . S
C610 C609 1.502 . S
C611 H597 0.960 . S
C611 H598 0.961 . S
C611 H599 0.959 . S
C611 C609 1.561 . S
C612 C609 1.526 . S
C612 C613 1.396 . S
C612 C617 1.390 . S
C613 C607 1.465 . S
C613 C612 1.396 . S
C613 C614 1.399 . S
C614 H600 0.929 1_556 S
C614 C613 1.399 . S
C614 C615 1.385 1_556 S
C615 H601 0.931 . S
C615 C614 1.385 1_554 S
C615 C616 1.389 . S
C616 C615 1.389 . S
C616 C617 1.387 1_554 S
C617 H602 0.930 . S
C617 C612 1.390 . S
C617 C616 1.387 1_556 S
H618 C630 0.930 . S
H619 C632 0.930 . S
H620 C633 0.930 . S
H621 C637 0.959 . S
H622 C637 0.959 . S
H623 C637 0.961 . S
H624 C638 0.960 . S
H625 C638 0.961 . S
H626 C638 0.959 . S
H627 C641 0.929 . S
H628 C642 0.931 . S
H629 C644 0.930 . S
C630 H618 0.930 . S
C630 C631 1.399 . S
C630 C635 1.399 . S
C631 C630 1.399 . S
C631 C632 1.376 . S
C632 H619 0.930 . S
C632 C631 1.376 . S
C632 C633 1.388 . S
C633 H620 0.930 . S
C633 C632 1.388 . S
C633 C634 1.390 . S
C634 C633 1.390 . S
C634 C635 1.394 . S
C634 C640 1.465 . S
C635 C630 1.399 . S
C635 C634 1.394 . S
C635 C636 1.516 . S
C636 C635 1.516 . S
C636 C637 1.502 . S
C636 C638 1.561 . S
C636 C639 1.526 . S
C637 H621 0.959 . S
C637 H622 0.959 . S
C637 H623 0.961 . S
C637 C636 1.502 . S
C638 H624 0.960 . S
C638 H625 0.961 . S
C638 H626 0.959 . S
C638 C636 1.561 . S
C639 C636 1.526 . S
C639 C640 1.396 . S
C639 C644 1.390 . S
C640 C634 1.465 . S
C640 C639 1.396 . S
C640 C641 1.399 . S
C641 H627 0.929 . S
C641 C640 1.399 . S
C641 C642 1.385 . S
C642 H628 0.931 . S
C642 C641 1.385 . S
C642 C643 1.389 . S
C643 C642 1.389 . S
C643 C644 1.387 . S
C644 H629 0.930 . S
C644 C639 1.390 . S
C644 C643 1.387 . S
H645 C657 0.930 . S
H646 C659 0.930 . S
H647 C660 0.930 . S
H648 C664 0.959 . S
H649 C664 0.959 . S
H650 C664 0.961 . S
H651 C665 0.960 . S
H652 C665 0.961 . S
H653 C665 0.959 . S
H654 C668 0.929 . S
H655 C669 0.931 . S
H656 C671 0.930 . S
C657 H645 0.930 . S
C657 C658 1.399 . S
C657 C662 1.399 . S
C658 C657 1.399 . S
C658 C659 1.376 . S
C659 H646 0.930 . S
C659 C658 1.376 . S
C659 C660 1.388 . S
C660 H647 0.930 . S
C660 C659 1.388 . S
C660 C661 1.390 . S
C661 C660 1.390 . S
C661 C662 1.394 . S
C661 C667 1.465 . S
C662 C657 1.399 . S
C662 C661 1.394 . S
C662 C663 1.516 . S
C663 C662 1.516 . S
C663 C664 1.502 . S
C663 C665 1.561 . S
C663 C666 1.526 . S
C664 H648 0.959 . S
C664 H649 0.959 . S
C664 H650 0.961 . S
C664 C663 1.502 . S
C665 H651 0.960 . S
C665 H652 0.961 . S
C665 H653 0.959 . S
C665 C663 1.561 . S
C666 C663 1.526 . S
C666 C667 1.396 . S
C666 C671 1.390 . S
C667 C661 1.465 . S
C667 C666 1.396 . S
C667 C668 1.399 . S
C668 H654 0.929 . S
C668 C667 1.399 . S
C668 C669 1.385 . S
C669 H655 0.931 . S
C669 C668 1.385 . S
C669 C670 1.389 . S
C670 C669 1.389 . S
C670 C671 1.387 . S
C671 H656 0.930 . S
C671 C666 1.390 . S
C671 C670 1.387 . S
H672 C684 0.930 . S
H673 C686 0.930 . S
H674 C687 0.930 . S
H675 C691 0.959 . S
H676 C691 0.959 . S
H677 C691 0.961 . S
H678 C692 0.960 . S
H679 C692 0.961 . S
H680 C692 0.959 . S
H681 C695 0.929 . S
H682 C696 0.931 . S
H683 C698 0.930 . S
C684 H672 0.930 . S
C684 C685 1.399 . S
C684 C689 1.399 . S
C685 C684 1.399 . S
C685 C686 1.376 . S
C686 H673 0.930 . S
C686 C685 1.376 . S
C686 C687 1.388 . S
C687 H674 0.930 . S
C687 C686 1.388 . S
C687 C688 1.390 . S
C688 C687 1.390 . S
C688 C689 1.394 . S
C688 C694 1.465 . S
C689 C684 1.399 . S
C689 C688 1.394 . S
C689 C690 1.516 . S
C690 C689 1.516 . S
C690 C691 1.502 . S
C690 C692 1.561 . S
C690 C693 1.526 . S
C691 H675 0.959 . S
C691 H676 0.959 . S
C691 H677 0.961 . S
C691 C690 1.502 . S
C692 H678 0.960 . S
C692 H679 0.961 . S
C692 H680 0.959 . S
C692 C690 1.561 . S
C693 C690 1.526 . S
C693 C694 1.396 . S
C693 C698 1.390 . S
C694 C688 1.465 . S
C694 C693 1.396 . S
C694 C695 1.399 . S
C695 H681 0.929 . S
C695 C694 1.399 . S
C695 C696 1.385 . S
C696 H682 0.931 . S
C696 C695 1.385 . S
C696 C697 1.389 . S
C697 C696 1.389 . S
C697 C698 1.387 . S
C698 H683 0.930 . S
C698 C693 1.390 . S
C698 C697 1.387 . S
H699 C711 0.930 . S
H700 C713 0.930 . S
H701 C714 0.930 . S
H702 C718 0.959 . S
H703 C718 0.959 . S
H704 C718 0.961 . S
H705 C719 0.960 . S
H706 C719 0.961 . S
H707 C719 0.959 . S
H708 C722 0.929 . S
H709 C723 0.931 . S
H710 C725 0.930 . S
C711 H699 0.930 . S
C711 C712 1.399 . S
C711 C716 1.399 . S
C712 C711 1.399 . S
C712 C713 1.376 . S
C713 H700 0.930 . S
C713 C712 1.376 . S
C713 C714 1.388 . S
C714 H701 0.930 . S
C714 C713 1.388 . S
C714 C715 1.390 . S
C715 C714 1.390 . S
C715 C716 1.394 . S
C715 C721 1.465 . S
C716 C711 1.399 . S
C716 C715 1.394 . S
C716 C717 1.516 . S
C717 C716 1.516 . S
C717 C718 1.502 . S
C717 C719 1.561 . S
C717 C720 1.526 . S
C718 H702 0.959 . S
C718 H703 0.959 . S
C718 H704 0.961 . S
C718 C717 1.502 . S
C719 H705 0.960 . S
C719 H706 0.961 . S
C719 H707 0.959 . S
C719 C717 1.561 . S
C720 C717 1.526 . S
C720 C721 1.396 . S
C720 C725 1.390 . S
C721 C715 1.465 . S
C721 C720 1.396 . S
C721 C722 1.399 . S
C722 H708 0.929 . S
C722 C721 1.399 . S
C722 C723 1.385 . S
C723 H709 0.931 . S
C723 C722 1.385 . S
C723 C724 1.389 . S
C724 C723 1.389 . S
C724 C725 1.387 . S
C725 H710 0.930 . S
C725 C720 1.390 . S
C725 C724 1.387 . S
H726 C738 0.930 . S
H727 C740 0.930 . S
H728 C741 0.930 . S
H729 C745 0.959 . S
H730 C745 0.959 . S
H731 C745 0.961 . S
H732 C746 0.960 . S
H733 C746 0.961 . S
H734 C746 0.959 . S
H735 C749 0.929 . S
H736 C750 0.931 . S
H737 C752 0.930 . S
C738 H726 0.930 . S
C738 C739 1.399 . S
C738 C743 1.399 . S
C739 C738 1.399 . S
C739 C740 1.376 . S
C740 H727 0.930 . S
C740 C739 1.376 . S
C740 C741 1.388 . S
C741 H728 0.930 . S
C741 C740 1.388 . S
C741 C742 1.390 . S
C742 C741 1.390 . S
C742 C743 1.394 . S
C742 C748 1.465 . S
C743 C738 1.399 . S
C743 C742 1.394 . S
C743 C744 1.516 . S
C744 C743 1.516 . S
C744 C745 1.502 . S
C744 C746 1.561 . S
C744 C747 1.526 . S
C745 H729 0.959 . S
C745 H730 0.959 . S
C745 H731 0.961 . S
C745 C744 1.502 . S
C746 H732 0.960 . S
C746 H733 0.961 . S
C746 H734 0.959 . S
C746 C744 1.561 . S
C747 C744 1.526 . S
C747 C748 1.396 . S
C747 C752 1.390 . S
C748 C742 1.465 . S
C748 C747 1.396 . S
C748 C749 1.399 . S
C749 H735 0.929 . S
C749 C748 1.399 . S
C749 C750 1.385 . S
C750 H736 0.931 . S
C750 C749 1.385 . S
C750 C751 1.389 . S
C751 C750 1.389 . S
C751 C752 1.387 . S
C752 H737 0.930 . S
C752 C747 1.390 . S
C752 C751 1.387 . S
H753 C765 0.930 . S
H754 C767 0.930 . S
H755 C768 0.930 . S
H756 C772 0.959 . S
H757 C772 0.959 . S
H758 C772 0.961 . S
H759 C773 0.960 . S
H760 C773 0.961 . S
H761 C773 0.959 . S
H762 C776 0.929 . S
H763 C777 0.931 . S
H764 C779 0.930 . S
C765 H753 0.930 . S
C765 C766 1.399 . S
C765 C770 1.399 . S
C766 C765 1.399 . S
C766 C767 1.376 . S
C767 H754 0.930 . S
C767 C766 1.376 . S
C767 C768 1.388 . S
C768 H755 0.930 . S
C768 C767 1.388 . S
C768 C769 1.390 . S
C769 C768 1.390 . S
C769 C770 1.394 . S
C769 C775 1.465 . S
C770 C765 1.399 . S
C770 C769 1.394 . S
C770 C771 1.516 . S
C771 C770 1.516 . S
C771 C772 1.502 . S
C771 C773 1.561 . S
C771 C774 1.526 . S
C772 H756 0.959 . S
C772 H757 0.959 . S
C772 H758 0.961 . S
C772 C771 1.502 . S
C773 H759 0.960 . S
C773 H760 0.961 . S
C773 H761 0.959 . S
C773 C771 1.561 . S
C774 C771 1.526 . S
C774 C775 1.396 . S
C774 C779 1.390 . S
C775 C769 1.465 . S
C775 C774 1.396 . S
C775 C776 1.399 . S
C776 H762 0.929 . S
C776 C775 1.399 . S
C776 C777 1.385 . S
C777 H763 0.931 . S
C777 C776 1.385 . S
C777 C778 1.389 . S
C778 C777 1.389 . S
C778 C779 1.387 . S
C779 H764 0.930 . S
C779 C774 1.390 . S
C779 C778 1.387 . S
H780 C792 0.930 . S
H781 C794 0.930 . S
H782 C795 0.930 . S
H783 C799 0.959 . S
H784 C799 0.959 . S
H785 C799 0.961 . S
H786 C800 0.960 . S
H787 C800 0.961 . S
H788 C800 0.959 . S
H789 C803 0.929 . S
H790 C804 0.931 . S
H791 C806 0.930 . S
C792 H780 0.930 . S
C792 C793 1.399 . S
C792 C797 1.399 . S
C793 C792 1.399 . S
C793 C794 1.376 . S
C794 H781 0.930 . S
C794 C793 1.376 . S
C794 C795 1.388 . S
C795 H782 0.930 . S
C795 C794 1.388 . S
C795 C796 1.390 . S
C796 C795 1.390 . S
C796 C797 1.394 . S
C796 C802 1.465 . S
C797 C792 1.399 . S
C797 C796 1.394 . S
C797 C798 1.516 . S
C798 C797 1.516 . S
C798 C799 1.502 . S
C798 C800 1.561 . S
C798 C801 1.526 . S
C799 H783 0.959 . S
C799 H784 0.959 . S
C799 H785 0.961 . S
C799 C798 1.502 . S
C800 H786 0.960 . S
C800 H787 0.961 . S
C800 H788 0.959 . S
C800 C798 1.561 . S
C801 C798 1.526 . S
C801 C802 1.396 . S
C801 C806 1.390 . S
C802 C796 1.465 . S
C802 C801 1.396 . S
C802 C803 1.399 1_554 S
C803 H789 0.929 . S
C803 C802 1.399 1_556 S
C803 C804 1.385 . S
C804 H790 0.931 . S
C804 C803 1.385 . S
C804 C805 1.389 . S
C805 C804 1.389 . S
C805 C806 1.387 1_556 S
C806 H791 0.930 . S
C806 C801 1.390 . S
C806 C805 1.387 1_554 S
H807 C819 0.930 . S
H808 C821 0.930 . S
H809 C822 0.930 . S
H810 C826 0.959 . S
H811 C826 0.959 . S
H812 C826 0.961 . S
H813 C827 0.960 . S
H814 C827 0.961 . S
H815 C827 0.959 . S
H816 C830 0.929 . S
H817 C831 0.931 . S
H818 C833 0.930 . S
C819 H807 0.930 . S
C819 C820 1.399 . S
C819 C824 1.399 . S
C820 C819 1.399 . S
C820 C821 1.376 . S
C821 H808 0.930 . S
C821 C820 1.376 . S
C821 C822 1.388 . S
C822 H809 0.930 . S
C822 C821 1.388 . S
C822 C823 1.390 . S
C823 C822 1.390 . S
C823 C824 1.394 . S
C823 C829 1.465 . S
C824 C819 1.399 . S
C824 C823 1.394 . S
C824 C825 1.516 . S
C825 C824 1.516 . S
C825 C826 1.502 . S
C825 C827 1.561 . S
C825 C828 1.526 . S
C826 H810 0.959 . S
C826 H811 0.959 . S
C826 H812 0.961 . S
C826 C825 1.502 . S
C827 H813 0.960 . S
C827 H814 0.961 . S
C827 H815 0.959 . S
C827 C825 1.561 . S
C828 C825 1.526 . S
C828 C829 1.396 . S
C828 C833 1.390 . S
C829 C823 1.465 . S
C829 C828 1.396 . S
C829 C830 1.399 . S
C830 H816 0.929 . S
C830 C829 1.399 . S
C830 C831 1.385 . S
C831 H817 0.931 . S
C831 C830 1.385 . S
C831 C832 1.389 . S
C832 C831 1.389 . S
C832 C833 1.387 . S
C833 H818 0.930 . S
C833 C828 1.390 . S
C833 C832 1.387 . S
C211 C178 1.589 . S
C199 C8 1.553 . S
C226 C26 1.543 . S
C238 C113 1.595 . S
C253 C50 1.573 . S
C265 C131 1.593 . S
C280 C68 1.546 . S
C292 C144 1.579 . S
C319 C152 1.597 . S
C307 C80 1.528 . S
C334 C104 1.522 . S
C346 C164 1.595 . S
C361 C32 1.582 . S
C373 C126 1.612 . S
C388 C44 1.586 . S
C400 C139 1.597 . S
C415 C62 1.549 . S
C427 C157 1.600 . S
C454 C163 1.603 . S
C442 C86 1.590 1_554 S
C481 C183 1.579 . S
C469 C98 1.527 . S
C508 C118 1.593 . S
C496 C14 1.586 . S
C523 C7 1.527 . S
C535 C124 1.579 . S
C550 C25 1.508 . S
C562 C137 1.583 . S
C589 C151 1.575 . S
C577 C52 1.504 . S
C604 C70 1.572 . S
C616 C165 1.581 . S
C643 C177 1.571 . S
C631 C79 1.557 . S
C670 C112 1.574 . S
C658 C106 1.499 . S
C697 C176 1.578 . S
C685 C34 1.550 . S
C712 C43 1.497 . S
C724 C111 1.581 . S
C751 C125 1.578 . S
C739 C61 1.562 . S
C766 C88 1.544 . S
C778 C138 1.571 . S
C793 C97 1.566 . S
C805 C150 1.577 . S
C820 C16 1.559 . S
C832 C170 1.578 . S
