# Generated by pormake.
# Topology pts, (4,4)-cn, num edge types: 1
# Building blocks:
#     Node 0, Type 0, BuildingBlock: GIZVER_clean_linker_0, # of connection points: 4
#     Node 1, Type 0, BuildingBlock: GIZVER_clean_linker_0, # of connection points: 4
#     Node 2, Type 1, BuildingBlock: UXUYUI_clean_sbu_0, # of connection points: 4
#     Node 3, Type 1, BuildingBlock: UXUYUI_clean_sbu_0, # of connection points: 4
#     Edge 4, Type (0, 1), BuildingBlock: OJICUG_clean_linker_0, # of connection points: 2
#     Edge 5, Type (0, 1), BuildingBlock: OJICUG_clean_linker_0, # of connection points: 2
#     Edge 6, Type (0, 1), BuildingBlock: OJICUG_clean_linker_0, # of connection points: 2
#     Edge 7, Type (0, 1), BuildingBlock: OJICUG_clean_linker_0, # of connection points: 2
#     Edge 8, Type (0, 1), BuildingBlock: OJICUG_clean_linker_0, # of connection points: 2
#     Edge 9, Type (0, 1), BuildingBlock: OJICUG_clean_linker_0, # of connection points: 2
#     Edge 10, Type (0, 1), BuildingBlock: OJICUG_clean_linker_0, # of connection points: 2
#     Edge 11, Type (0, 1), BuildingBlock: OJICUG_clean_linker_0, # of connection points: 2
# Relax obj value: 0.010
# Max RMSD: 0.058
# Mean RMSD: 0.057
data_MOF--net-pts--node1-UXUYUI_clean_sbu_0--node2-GIZVER_clean_linker_0--edge1-OJICUG_clean_linker_0
_symmetry_space_group_name_H-M    P1
_symmetry_Int_Tables_number       1
_symmetry_cell_setting            triclinic
loop_
_symmetry_equiv_pos_as_xyz
'x, y, z'
_cell_length_a     24.258663
_cell_length_b     24.252283
_cell_length_c     35.372529
_cell_angle_alpha  90.386301
_cell_angle_beta   89.609166
_cell_angle_gamma 89.96229
loop_
_atom_site_label
_atom_site_type_symbol
_atom_site_fract_x
_atom_site_fract_y
_atom_site_fract_z
_atom_type_partial_charge
H0 H 0.61089 0.10146 0.0217 0.0
H1 H 0.60755 0.10465 0.90003 0.0
H2 H 0.74466 1.03161 0.95722 0.0
H3 H 0.55204 0.16736 -0.01164 0.0
H4 H 0.55144 0.16956 0.93798 0.0
H5 H 0.49473 0.10101 0.02298 0.0
H6 H 0.35916 1.0307 -0.0382 0.0
H7 H 0.49219 0.10753 0.90132 0.0
C8 C 0.62921 0.09023 -0.0053 0.0
C9 C 0.68012 0.06255 -0.00645 0.0
C10 C 0.60282 0.10546 -0.03898 0.0
C11 C 0.62729 0.092 0.92596 0.0
C12 C 0.67813 0.06429 0.9244 0.0
C13 C 0.70379 0.04965 0.95829 0.0
C14 C 0.55179 0.141 -0.03752 0.0
C15 C 0.50005 0.10656 -0.03785 0.0
C16 C 0.47541 0.09018 -0.0036 0.0
C17 C 0.42467 0.06228 -0.00352 0.0
C18 C 0.3997 0.04951 -0.03813 0.0
C19 C 0.42349 0.06571 0.92747 0.0
C20 C 0.47403 0.09389 0.92773 0.0
H21 H 0.10213 0.61023 0.40001 0.0
H22 H 0.10537 0.60689 0.52168 0.0
H23 H 1.03233 0.74404 0.4645 0.0
H24 H 0.16804 0.55138 0.43334 0.0
H25 H 0.17024 0.55077 0.48372 0.0
H26 H 0.1017 0.49405 0.39873 0.0
H27 H 1.0314 0.35845 0.45993 0.0
H28 H 0.10822 0.49151 0.52039 0.0
C29 C 0.09092 0.62856 0.42701 0.0
C30 C 0.06324 0.67947 0.42817 0.0
C31 C 0.10616 0.60216 0.46069 0.0
C32 C 0.0927 0.62664 0.49575 0.0
C33 C 0.065 0.67749 0.49732 0.0
C34 C 0.05036 0.70316 0.46343 0.0
C35 C 0.14169 0.55113 0.45922 0.0
C36 C 0.10726 0.49937 0.45956 0.0
C37 C 0.09087 0.47473 0.42531 0.0
C38 C 0.06297 0.42398 0.42524 0.0
C39 C 0.05021 0.399 0.45985 0.0
C40 C 0.06641 0.4228 0.49425 0.0
C41 C 0.09458 0.47334 0.49398 0.0
Li42 Li 0.04954 0.10042 0.23386 0.0
Li43 Li 0.04745 0.99859 0.23568 0.0
Li44 Li 0.10107 0.04889 0.18777 0.0
Li45 Li 0.99926 0.04681 0.18594 0.0
C46 C 0.16617 0.04018 0.24626 0.0
N47 N 0.27837 1.02086 0.24845 0.0
C48 C 0.1861 0.98804 0.25577 0.0
C49 C 0.20331 0.0826 0.23807 0.0
C50 C 0.24298 0.9791 0.25671 0.0
C51 C 0.25988 0.07196 0.23923 0.0
C52 C 0.95201 1.03267 0.26883 0.0
C53 C 0.88636 0.96671 0.29273 0.0
N54 N 0.88754 0.99233 0.32704 0.0
C55 C 0.95236 0.05857 0.30425 0.0
C56 C 0.91852 0.9866 0.2629 0.0
C57 C 0.91952 0.03747 0.33335 0.0
C58 C 1.00142 0.19746 0.26543 0.0
N59 N 0.04786 0.16605 0.26375 0.0
C60 C 0.09504 0.22883 0.30446 0.0
C61 C 0.09409 0.18065 0.28276 0.0
C62 C 0.0478 0.26228 0.30682 0.0
C63 C 1.00049 0.24608 0.2869 0.0
H64 H 0.96514 0.18467 0.25009 0.0
H65 H 0.13013 0.15457 0.28139 0.0
C66 C 0.05296 0.88411 0.25072 0.0
N67 N 0.04599 0.9348 0.26679 0.0
C68 C 0.05272 0.83685 0.27313 0.0
C69 C 0.03773 0.89493 0.32808 0.0
C70 C 0.03953 0.94102 0.30477 0.0
C71 C 0.04441 0.8421 0.31225 0.0
H72 H 0.05932 0.8804 0.22054 0.0
H73 H 0.03612 0.98183 0.31699 0.0
C74 C 0.04087 0.16556 0.17539 0.0
N75 N 1.02158 0.2778 0.17323 0.0
C76 C 0.98874 0.18552 0.16589 0.0
C77 C 0.08329 0.2027 0.18358 0.0
C78 C 0.97982 0.24241 0.16496 0.0
C79 C 0.07266 0.25928 0.18244 0.0
C80 C 1.03337 0.95137 0.15276 0.0
C81 C 0.0593 0.95179 0.11736 0.0
C82 C 0.98733 0.91783 0.15866 0.0
C83 C 0.03825 0.91897 0.08823 0.0
C84 C 0.96749 0.8857 0.12879 0.0
N85 N 0.99313 0.88694 0.09449 0.0
C86 C 0.1981 1.00076 0.15623 0.0
C87 C 0.1813 0.09345 0.13888 0.0
C88 C 0.24673 0.99982 0.13478 0.0
N89 N 0.1667 0.0472 0.15789 0.0
C90 C 0.22949 0.09439 0.1172 0.0
C91 C 0.26294 0.04713 0.11485 0.0
H92 H 0.18531 0.96446 0.17157 0.0
H93 H 0.15523 0.12949 0.14023 0.0
C94 C 0.88481 0.05238 0.17093 0.0
N95 N 0.93548 0.04537 0.15484 0.0
C96 C 0.83754 0.05213 0.14853 0.0
C97 C 0.89557 0.03709 0.09357 0.0
C98 C 0.94167 0.03888 0.11687 0.0
C99 C 0.84277 0.04379 0.10941 0.0
H100 H 0.88112 0.05876 0.2011 0.0
H101 H 0.98245 0.03545 0.10463 0.0
O102 O 0.11061 0.04949 0.24457 0.0
O103 O 0.98416 0.05247 0.24009 0.0
O104 O 0.05016 0.10998 0.17706 0.0
O105 O 0.05312 0.98349 0.18153 0.0
H106 H 0.15802 0.95471 0.26214 0.0
H107 H 0.18863 0.12303 0.23017 0.0
H108 H 0.25898 0.9389 0.2639 0.0
H109 H 0.28906 0.10425 0.23263 0.0
H110 H 0.86046 0.9309 0.28861 0.0
H111 H 0.97808 0.09425 0.30932 0.0
H112 H 0.9176 0.96629 0.2356 0.0
H113 H 0.91957 0.0569 0.36096 0.0
H114 H 0.13198 0.23891 0.32007 0.0
H115 H 0.96322 0.27066 0.2879 0.0
H116 H 0.05853 0.7967 0.26009 0.0
H117 H 1.03245 0.90054 0.3583 0.0
H118 H 0.95542 0.15744 0.15951 0.0
H119 H 0.1237 0.18799 0.19147 0.0
H120 H 0.93963 0.25844 0.15778 0.0
H121 H 0.10496 0.28846 0.18904 0.0
H122 H 0.09496 0.97755 0.11232 0.0
H123 H 0.96699 0.91686 0.18595 0.0
H124 H 0.0577 0.91907 0.06062 0.0
H125 H 0.9317 0.85977 0.13288 0.0
H126 H 0.2713 0.96254 0.1338 0.0
H127 H 0.23958 0.13133 0.10159 0.0
H128 H 0.79742 0.05798 0.16158 0.0
H129 H 0.90116 1.03177 0.06335 0.0
Li130 Li 1.00244 0.05415 0.73423 0.0
Li131 Li 0.10217 0.053 0.73555 0.0
Li132 Li 0.05368 0.1015 0.68626 0.0
Li133 Li 0.05485 1.00174 0.68759 0.0
C134 C 0.05392 0.13564 0.77807 0.0
N135 N 0.05656 0.17081 0.85252 0.0
C136 C 0.04498 0.09818 0.80735 0.0
C137 C 0.06416 0.19099 0.78668 0.0
C138 C 0.04648 0.11676 0.84479 0.0
C139 C 0.06533 0.20797 0.82449 0.0
C140 C 0.07848 0.94247 0.75167 0.0
C141 C 0.15827 0.88355 0.74593 0.0
N142 N 0.13373 0.84648 0.76931 0.0
C143 C 0.05403 0.90382 0.7756 0.0
C144 C 0.13101 0.93231 0.73667 0.0
C145 C 0.08265 0.85553 0.7842 0.0
C146 C 0.90688 1.00673 0.76562 0.0
N147 N 0.93518 0.0548 0.76236 0.0
C148 C 0.86711 0.10251 0.79911 0.0
C149 C 0.9158 0.10245 0.77792 0.0
C150 C 0.83743 0.05321 0.80389 0.0
C151 C 0.85757 1.005 0.78624 0.0
H152 H 0.92288 0.96966 0.75235 0.0
H153 H 0.93848 0.1404 0.77434 0.0
C154 C 0.21213 0.07973 0.75448 0.0
N155 N 0.16581 0.05381 0.76691 0.0
C156 C 0.25982 0.07988 0.77649 0.0
C157 C 0.21103 1.02669 0.82358 0.0
C158 C 0.16442 1.02771 0.80078 0.0
C159 C 0.25969 0.05286 0.81152 0.0
H160 H 0.212 0.10019 0.72741 0.0
H161 H 0.12709 1.00754 0.81015 0.0
C162 C 0.94318 0.07778 0.67015 0.0
N163 N 0.84721 0.13303 0.65251 0.0
C164 C 0.90454 0.05332 0.64623 0.0
C165 C 0.93302 0.13032 0.68515 0.0
C166 C 0.85627 0.08193 0.63763 0.0
C167 C 0.88426 0.15758 0.67589 0.0
C168 C 0.13631 0.05325 0.64374 0.0
C169 C 0.09886 0.04429 0.61446 0.0
C170 C 0.19165 0.0635 0.63513 0.0
C171 C 0.11744 0.0458 0.57702 0.0
C172 C 0.20863 0.06468 0.59732 0.0
N173 N 0.17148 0.05589 0.56929 0.0
C174 C 0.08038 0.21148 0.66731 0.0
C175 C 1.02839 0.16373 0.62102 0.0
C176 C 0.08053 0.25917 0.64528 0.0
N177 N 0.05447 0.16514 0.65489 0.0
C178 C 1.02737 0.21034 0.59821 0.0
C179 C 0.05353 0.25902 0.61026 0.0
H180 H 0.10083 0.21137 0.69438 0.0
H181 H 1.00823 0.12639 0.61167 0.0
C182 C 1.00744 0.90618 0.65617 0.0
N183 N 0.0555 0.93448 0.65945 0.0
C184 C 1.00571 0.85687 0.63553 0.0
C185 C 0.10321 0.86641 0.62269 0.0
C186 C 0.10314 0.91509 0.64389 0.0
C187 C 0.05391 0.83674 0.61788 0.0
H188 H 0.97037 0.92218 0.66944 0.0
H189 H 0.14109 0.93777 0.64749 0.0
O190 O 0.053 0.11861 0.74111 0.0
O191 O 0.05069 0.98977 0.74297 0.0
O192 O 0.99048 0.05 0.67885 0.0
O193 O 0.11927 0.05232 0.6807 0.0
H194 H 0.03673 0.05524 0.80133 0.0
H195 H 0.07112 0.22055 0.76436 0.0
H196 H 0.03962 0.08819 0.8677 0.0
H197 H 0.07323 0.2507 0.83155 0.0
H198 H 0.19893 0.87517 0.73454 0.0
H199 H 1.01335 0.9111 0.78739 0.0
H200 H 0.15063 0.96176 0.71813 0.0
H201 H 0.06423 0.82525 0.8027 0.0
H202 H 0.854 0.14057 0.81257 0.0
H203 H 0.83578 0.96622 0.78854 0.0
H204 H 0.29645 0.10045 0.76609 0.0
H205 H 0.20862 1.0064 0.85072 0.0
H206 H 0.91183 1.01263 0.63444 0.0
H207 H 0.96245 0.14995 0.70368 0.0
H208 H 0.82599 0.06351 0.61913 0.0
H209 H 0.87588 0.19826 0.68728 0.0
H210 H 0.05594 0.03603 0.62048 0.0
H211 H 0.22119 0.07047 0.65745 0.0
H212 H 0.08889 0.03892 0.55411 0.0
H213 H 0.25134 0.07258 0.59026 0.0
H214 H 0.10109 0.29582 0.65568 0.0
H215 H 1.00709 0.20791 0.57107 0.0
H216 H 0.96694 0.83509 0.6332 0.0
H217 H 0.14127 0.85331 0.60923 0.0
C218 C 0.38599 0.09681 0.05802 0.0
C219 C 0.39296 0.05334 0.03197 0.0
H220 H 0.33984 0.12861 0.10514 0.0
C221 C 0.3623 1.00471 0.03697 0.0
H222 H 0.40874 0.13493 0.05484 0.0
C223 C 0.32225 1.00137 0.06544 0.0
C224 C 0.31209 0.04662 0.08953 0.0
H225 H 0.36717 0.97034 0.01751 0.0
H226 H 0.29693 0.96468 0.06694 0.0
C227 C 0.34595 0.09347 0.08651 0.0
C228 C 1.01003 0.36275 0.53672 0.0
C229 C 0.05985 0.39025 0.52933 0.0
H230 H 0.96866 0.30049 0.56866 0.0
C231 C 0.10568 0.37937 0.55218 0.0
H232 H 0.97394 0.37078 0.51974 0.0
C233 C 0.10289 0.33866 0.57998 0.0
C234 C 0.05417 0.30821 0.58542 0.0
H235 H 0.14477 0.39954 0.54683 0.0
H236 H 0.13987 0.32873 0.59552 0.0
C237 C 1.00719 0.32225 0.56451 0.0
C238 C 0.7183 0.09414 0.05597 0.0
C239 C 0.71282 0.05261 0.02828 0.0
H240 H 0.76404 0.1236 0.10376 0.0
C241 C 0.74536 1.00476 0.03111 0.0
H242 H 0.69427 0.1317 0.05447 0.0
C243 C 0.78595 1.00082 0.0587 0.0
C244 C 0.79402 0.04404 0.08459 0.0
H245 H 0.74138 0.97151 0.01071 0.0
H246 H 0.81244 0.96482 0.05899 0.0
C247 C 0.75844 0.08973 0.08404 0.0
C248 C 1.00923 0.73992 0.5394 0.0
C249 C 0.05714 0.70829 0.53343 0.0
H250 H 0.97096 0.80581 0.56997 0.0
C251 C 0.10064 0.71331 0.55924 0.0
H252 H 0.97463 0.73634 0.52034 0.0
C253 C 0.09815 0.75255 0.58837 0.0
C254 C 0.05232 0.78791 0.59209 0.0
H255 H 0.13816 0.68962 0.55547 0.0
H256 H 0.13323 0.75676 0.60692 0.0
C257 C 1.00697 0.77951 0.56818 0.0
C258 C 0.36345 1.00933 0.88501 0.0
C259 C 0.39094 0.05916 0.8924 0.0
H260 H 0.30118 0.96796 0.85308 0.0
C261 C 0.38005 0.10501 0.86955 0.0
H262 H 0.37148 0.97322 0.90198 0.0
C263 C 0.33933 0.10223 0.84177 0.0
C264 C 0.30889 0.0535 0.83633 0.0
H265 H 0.40021 0.14411 0.8749 0.0
H266 H 0.32939 0.13922 0.82623 0.0
C267 C 0.32294 1.0065 0.85723 0.0
C268 C 1.00541 0.36159 0.38475 0.0
C269 C 0.05403 0.39227 0.38974 0.0
H270 H 0.96539 0.29623 0.35477 0.0
C271 C 0.09748 0.38532 0.36368 0.0
H272 H 0.97106 0.36645 0.40423 0.0
C273 C 0.09413 0.34529 0.33518 0.0
C274 C 0.04729 0.31142 0.33216 0.0
H275 H 0.13559 0.40808 0.36685 0.0
H276 H 0.12924 0.3392 0.31653 0.0
C277 C 1.00207 0.32156 0.35627 0.0
C278 C 0.71398 0.09995 0.86249 0.0
C279 C 0.70893 0.05642 0.88829 0.0
H280 H 0.75748 0.13255 0.81483 0.0
C281 C 0.74054 1.0085 0.88232 0.0
H282 H 0.6903 0.13748 0.86626 0.0
C283 C 0.78015 1.00624 0.85355 0.0
C284 C 0.78858 0.05161 0.82966 0.0
H285 H 0.73695 0.97387 0.90138 0.0
H286 H 0.80643 0.97021 0.85176 0.0
C287 C 0.75323 0.09745 0.83337 0.0
C288 C 0.09478 0.71764 0.36572 0.0
C289 C 0.05328 0.71218 0.39343 0.0
H290 H 0.12419 0.76334 0.31789 0.0
C291 C 1.00544 0.74473 0.39061 0.0
H292 H 0.13233 0.6936 0.36721 0.0
C293 C 1.00148 0.78531 0.363 0.0
C294 C 0.04468 0.79335 0.33709 0.0
H295 H 0.97222 0.74077 0.41103 0.0
H296 H 0.9655 0.8118 0.36273 0.0
C297 C 0.09034 0.75777 0.33763 0.0
loop_
_geom_bond_atom_site_label_1
_geom_bond_atom_site_label_2
_geom_bond_distance
_geom_bond_site_symmetry_2
_ccdc_geom_bond_type
H0 C8 0.930 . S
H1 C11 0.930 . S
H2 C13 0.930 1_565 S
H3 C14 0.970 . S
H4 C14 0.970 1_556 S
H5 C16 0.930 . S
H6 C18 0.930 1_565 S
H7 C20 0.930 . S
C8 H0 0.930 . S
C8 C9 1.382 . S
C8 C10 1.426 . S
C9 C8 1.382 . S
C9 C13 1.389 . S
C10 C8 1.426 . S
C10 C11 1.375 1_554 S
C10 C14 1.532 . S
C11 H1 0.930 . S
C11 C10 1.375 1_556 S
C11 C12 1.416 . S
C12 C11 1.416 . S
C12 C13 1.371 1_556 S
C13 H2 0.930 1_545 S
C13 C9 1.389 . S
C13 C12 1.371 1_554 S
C14 H3 0.970 . S
C14 H4 0.970 1_554 S
C14 C10 1.532 . S
C14 C15 1.499 . S
C15 C14 1.499 . S
C15 C16 1.370 . S
C15 C20 1.415 1_554 S
C16 H5 0.930 . S
C16 C15 1.370 . S
C16 C17 1.407 . S
C17 C16 1.407 . S
C17 C18 1.365 . S
C18 H6 0.930 1_545 S
C18 C17 1.365 . S
C18 C19 1.393 1_554 S
C19 C18 1.393 1_556 S
C19 C20 1.387 . S
C20 H7 0.930 . S
C20 C15 1.415 1_556 S
C20 C19 1.387 . S
H21 C29 0.930 . S
H22 C32 0.930 . S
H23 C34 0.930 1_655 S
H24 C35 0.970 . S
H25 C35 0.970 . S
H26 C37 0.930 . S
H27 C39 0.930 1_655 S
H28 C41 0.930 . S
C29 H21 0.930 . S
C29 C30 1.382 . S
C29 C31 1.426 . S
C30 C29 1.382 . S
C30 C34 1.389 . S
C31 C29 1.426 . S
C31 C32 1.375 . S
C31 C35 1.532 . S
C32 H22 0.930 . S
C32 C31 1.375 . S
C32 C33 1.416 . S
C33 C32 1.416 . S
C33 C34 1.371 . S
C34 H23 0.930 1_455 S
C34 C30 1.389 . S
C34 C33 1.371 . S
C35 H24 0.970 . S
C35 H25 0.970 . S
C35 C31 1.532 . S
C35 C36 1.499 . S
C36 C35 1.499 . S
C36 C37 1.370 . S
C36 C41 1.415 . S
C37 H26 0.930 . S
C37 C36 1.370 . S
C37 C38 1.407 . S
C38 C37 1.407 . S
C38 C39 1.365 . S
C39 H27 0.930 1_455 S
C39 C38 1.365 . S
C39 C40 1.393 . S
C40 C39 1.393 . S
C40 C41 1.387 . S
C41 H28 0.930 . S
C41 C36 1.415 . S
C41 C40 1.387 . S
Li42 N59 1.990 . S
Li42 O102 1.956 . S
Li42 O103 1.970 1_455 S
Li42 O104 1.961 . S
Li43 N67 1.990 . S
Li43 O102 1.970 1_565 S
Li43 O103 1.956 1_465 S
Li43 O105 1.961 . S
Li44 N89 1.990 . S
Li44 O102 1.961 . S
Li44 O104 1.956 . S
Li44 O105 1.970 1_545 S
Li45 N95 1.990 . S
Li45 O103 1.961 . S
Li45 O104 1.970 1_655 S
Li45 O105 1.956 1_645 S
C46 C48 1.348 1_545 S
C46 C49 1.356 . S
C46 O102 1.325 . S
N47 C50 1.314 1_545 S
N47 C51 1.279 . S
C48 C46 1.348 1_565 S
C48 C50 1.353 . S
C48 H106 0.929 . S
C49 C46 1.356 . S
C49 C51 1.358 . S
C49 H107 0.930 . S
C50 N47 1.314 1_565 S
C50 C48 1.353 . S
C50 H108 0.930 . S
C51 N47 1.279 . S
C51 C49 1.358 . S
C51 H109 0.930 . S
C52 C55 1.348 . S
C52 C56 1.356 1_545 S
C52 O103 1.325 . S
C53 N54 1.279 1_565 S
C53 C56 1.358 . S
C53 H110 0.930 . S
N54 C53 1.279 1_545 S
N54 C57 1.314 . S
C55 C52 1.348 . S
C55 C57 1.353 . S
C55 H111 0.929 . S
C56 C52 1.356 1_565 S
C56 C53 1.358 . S
C56 H112 0.930 . S
C57 N54 1.314 . S
C57 C55 1.353 . S
C57 H113 0.930 . S
C58 N59 1.314 1_655 S
C58 C63 1.353 . S
C58 H64 0.930 . S
N59 Li42 1.990 . S
N59 C58 1.314 1_455 S
N59 C61 1.279 . S
C60 C61 1.358 . S
C60 C62 1.356 . S
C60 H114 0.930 . S
C61 N59 1.279 . S
C61 C60 1.358 . S
C61 H65 0.930 . S
C62 C60 1.356 . S
C62 C63 1.348 1_455 S
C63 C58 1.353 . S
C63 C62 1.348 1_655 S
C63 H115 0.929 . S
H64 C58 0.930 . S
H65 C61 0.930 . S
C66 N67 1.314 . S
C66 C68 1.353 . S
C66 H72 0.930 . S
N67 Li43 1.990 . S
N67 C66 1.314 . S
N67 C70 1.279 1_455 S
C68 C66 1.353 . S
C68 C71 1.348 . S
C68 H116 0.929 . S
C69 C70 1.358 . S
C69 C71 1.356 1_655 S
C69 H117 0.930 . S
C70 N67 1.279 1_655 S
C70 C69 1.358 . S
C70 H73 0.930 . S
C71 C68 1.348 . S
C71 C69 1.356 1_455 S
H72 C66 0.930 . S
H73 C70 0.930 . S
C74 C76 1.348 1_455 S
C74 C77 1.356 . S
C74 O104 1.325 . S
N75 C78 1.314 1_455 S
N75 C79 1.279 . S
C76 C74 1.348 1_655 S
C76 C78 1.353 . S
C76 H118 0.929 . S
C77 C74 1.356 . S
C77 C79 1.358 . S
C77 H119 0.930 . S
C78 N75 1.314 1_655 S
C78 C76 1.353 . S
C78 H120 0.930 . S
C79 N75 1.279 . S
C79 C77 1.358 . S
C79 H121 0.930 . S
C80 C81 1.348 . S
C80 C82 1.356 1_455 S
C80 O105 1.325 . S
C81 C80 1.348 . S
C81 C83 1.353 . S
C81 H122 0.929 . S
C82 C80 1.356 1_655 S
C82 C84 1.358 . S
C82 H123 0.930 . S
C83 C81 1.353 . S
C83 N85 1.314 . S
C83 H124 0.930 . S
C84 C82 1.358 . S
C84 N85 1.279 1_655 S
C84 H125 0.930 . S
N85 C83 1.314 . S
N85 C84 1.279 1_455 S
C86 C88 1.353 . S
C86 N89 1.314 1_565 S
C86 H92 0.930 . S
C87 N89 1.279 . S
C87 C90 1.358 . S
C87 H93 0.930 . S
C88 C86 1.353 . S
C88 C91 1.348 1_565 S
C88 H126 0.929 . S
N89 Li44 1.990 . S
N89 C86 1.314 1_545 S
N89 C87 1.279 . S
C90 C87 1.358 . S
C90 C91 1.356 . S
C90 H127 0.930 . S
C91 C88 1.348 1_545 S
C91 C90 1.356 . S
H92 C86 0.930 . S
H93 C87 0.930 . S
C94 N95 1.314 . S
C94 C96 1.353 . S
C94 H100 0.930 . S
N95 Li45 1.990 . S
N95 C94 1.314 . S
N95 C98 1.279 1_545 S
C96 C94 1.353 . S
C96 C99 1.348 . S
C96 H128 0.929 . S
C97 C98 1.358 . S
C97 C99 1.356 1_565 S
C97 H129 0.930 . S
C98 N95 1.279 1_565 S
C98 C97 1.358 . S
C98 H101 0.930 . S
C99 C96 1.348 . S
C99 C97 1.356 1_545 S
H100 C94 0.930 . S
H101 C98 0.930 . S
O102 Li42 1.956 . S
O102 Li43 1.970 1_545 S
O102 Li44 1.961 . S
O102 C46 1.325 . S
O103 Li42 1.970 1_655 S
O103 Li43 1.956 1_645 S
O103 Li45 1.961 . S
O103 C52 1.325 . S
O104 Li42 1.961 . S
O104 Li44 1.956 . S
O104 Li45 1.970 1_455 S
O104 C74 1.325 . S
O105 Li43 1.961 . S
O105 Li44 1.970 1_565 S
O105 Li45 1.956 1_465 S
O105 C80 1.325 . S
H106 C48 0.929 . S
H107 C49 0.930 . S
H108 C50 0.930 . S
H109 C51 0.930 . S
H110 C53 0.930 . S
H111 C55 0.929 . S
H112 C56 0.930 . S
H113 C57 0.930 . S
H114 C60 0.930 . S
H115 C63 0.929 . S
H116 C68 0.929 . S
H117 C69 0.930 . S
H118 C76 0.929 . S
H119 C77 0.930 . S
H120 C78 0.930 . S
H121 C79 0.930 . S
H122 C81 0.929 . S
H123 C82 0.930 . S
H124 C83 0.930 . S
H125 C84 0.930 . S
H126 C88 0.929 . S
H127 C90 0.930 . S
H128 C96 0.929 . S
H129 C97 0.930 . S
Li130 N147 1.990 . S
Li130 O190 1.956 1_655 S
Li130 O191 1.970 1_645 S
Li130 O192 1.961 . S
Li131 N155 1.990 . S
Li131 O190 1.970 . S
Li131 O191 1.956 1_545 S
Li131 O193 1.961 . S
Li132 N177 1.990 . S
Li132 O190 1.961 . S
Li132 O192 1.956 1_455 S
Li132 O193 1.970 . S
Li133 N183 1.990 . S
Li133 O191 1.961 . S
Li133 O192 1.970 1_465 S
Li133 O193 1.956 1_565 S
C134 C136 1.348 . S
C134 C137 1.356 1_455 S
C134 O190 1.325 . S
N135 C138 1.314 . S
N135 C139 1.279 1_455 S
C136 C134 1.348 . S
C136 C138 1.353 . S
C136 H194 0.929 . S
C137 C134 1.356 1_655 S
C137 C139 1.358 . S
C137 H195 0.930 . S
C138 N135 1.314 . S
C138 C136 1.353 . S
C138 H196 0.930 . S
C139 N135 1.279 1_655 S
C139 C137 1.358 . S
C139 H197 0.930 . S
C140 C143 1.348 1_455 S
C140 C144 1.356 . S
C140 O191 1.325 . S
C141 N142 1.279 . S
C141 C144 1.358 . S
C141 H198 0.930 . S
N142 C141 1.279 . S
N142 C145 1.314 1_455 S
C143 C140 1.348 1_655 S
C143 C145 1.353 . S
C143 H199 0.929 . S
C144 C140 1.356 . S
C144 C141 1.358 . S
C144 H200 0.930 . S
C145 N142 1.314 1_655 S
C145 C143 1.353 . S
C145 H201 0.930 . S
C146 N147 1.314 1_565 S
C146 C151 1.353 . S
C146 H152 0.930 . S
N147 Li130 1.990 . S
N147 C146 1.314 1_545 S
N147 C149 1.279 . S
C148 C149 1.358 . S
C148 C150 1.356 . S
C148 H202 0.930 . S
C149 N147 1.279 . S
C149 C148 1.358 . S
C149 H153 0.930 . S
C150 C148 1.356 . S
C150 C151 1.348 1_545 S
C151 C146 1.353 . S
C151 C150 1.348 1_565 S
C151 H203 0.929 . S
H152 C146 0.930 . S
H153 C149 0.930 . S
C154 N155 1.314 . S
C154 C156 1.353 . S
C154 H160 0.930 . S
N155 Li131 1.990 . S
N155 C154 1.314 . S
N155 C158 1.279 1_545 S
C156 C154 1.353 . S
C156 C159 1.348 . S
C156 H204 0.929 . S
C157 C158 1.358 . S
C157 C159 1.356 1_565 S
C157 H205 0.930 . S
C158 N155 1.279 1_565 S
C158 C157 1.358 . S
C158 H161 0.930 . S
C159 C156 1.348 . S
C159 C157 1.356 1_545 S
H160 C154 0.930 . S
H161 C158 0.930 . S
C162 C164 1.348 1_545 S
C162 C165 1.356 . S
C162 O192 1.325 . S
N163 C166 1.314 1_545 S
N163 C167 1.279 . S
C164 C162 1.348 1_565 S
C164 C166 1.353 . S
C164 H206 0.929 . S
C165 C162 1.356 . S
C165 C167 1.358 . S
C165 H207 0.930 . S
C166 N163 1.314 1_565 S
C166 C164 1.353 . S
C166 H208 0.930 . S
C167 N163 1.279 . S
C167 C165 1.358 . S
C167 H209 0.930 . S
C168 C169 1.348 . S
C168 C170 1.356 1_545 S
C168 O193 1.325 . S
C169 C168 1.348 . S
C169 C171 1.353 . S
C169 H210 0.929 . S
C170 C168 1.356 1_565 S
C170 C172 1.358 . S
C170 H211 0.930 . S
C171 C169 1.353 . S
C171 N173 1.314 . S
C171 H212 0.930 . S
C172 C170 1.358 . S
C172 N173 1.279 1_565 S
C172 H213 0.930 . S
N173 C171 1.314 . S
N173 C172 1.279 1_545 S
C174 C176 1.353 . S
C174 N177 1.314 . S
C174 H180 0.930 . S
C175 N177 1.279 1_655 S
C175 C178 1.358 . S
C175 H181 0.930 . S
C176 C174 1.353 . S
C176 C179 1.348 . S
C176 H214 0.929 . S
N177 Li132 1.990 . S
N177 C174 1.314 . S
N177 C175 1.279 1_455 S
C178 C175 1.358 . S
C178 C179 1.356 1_655 S
C178 H215 0.930 . S
C179 C176 1.348 . S
C179 C178 1.356 1_455 S
H180 C174 0.930 . S
H181 C175 0.930 . S
C182 N183 1.314 1_655 S
C182 C184 1.353 . S
C182 H188 0.930 . S
N183 Li133 1.990 . S
N183 C182 1.314 1_455 S
N183 C186 1.279 . S
C184 C182 1.353 . S
C184 C187 1.348 1_655 S
C184 H216 0.929 . S
C185 C186 1.358 . S
C185 C187 1.356 . S
C185 H217 0.930 . S
C186 N183 1.279 . S
C186 C185 1.358 . S
C186 H189 0.930 . S
C187 C184 1.348 1_455 S
C187 C185 1.356 . S
H188 C182 0.930 . S
H189 C186 0.930 . S
O190 Li130 1.956 1_455 S
O190 Li131 1.970 . S
O190 Li132 1.961 . S
O190 C134 1.325 . S
O191 Li130 1.970 1_465 S
O191 Li131 1.956 1_565 S
O191 Li133 1.961 . S
O191 C140 1.325 . S
O192 Li130 1.961 . S
O192 Li132 1.956 1_655 S
O192 Li133 1.970 1_645 S
O192 C162 1.325 . S
O193 Li131 1.961 . S
O193 Li132 1.970 . S
O193 Li133 1.956 1_545 S
O193 C168 1.325 . S
H194 C136 0.929 . S
H195 C137 0.930 . S
H196 C138 0.930 . S
H197 C139 0.930 . S
H198 C141 0.930 . S
H199 C143 0.929 . S
H200 C144 0.930 . S
H201 C145 0.930 . S
H202 C148 0.930 . S
H203 C151 0.929 . S
H204 C156 0.929 . S
H205 C157 0.930 . S
H206 C164 0.929 . S
H207 C165 0.930 . S
H208 C166 0.930 . S
H209 C167 0.930 . S
H210 C169 0.929 . S
H211 C170 0.930 . S
H212 C171 0.930 . S
H213 C172 0.930 . S
H214 C176 0.929 . S
H215 C178 0.930 . S
H216 C184 0.929 . S
H217 C185 0.930 . S
C218 C219 1.387 . S
C218 H222 0.950 . S
C218 C227 1.390 . S
C219 C218 1.387 . S
C219 C221 1.387 1_545 S
H220 C227 0.950 . S
C221 C219 1.387 1_565 S
C221 C223 1.390 . S
C221 H225 0.950 . S
H222 C218 0.950 . S
C223 C221 1.390 . S
C223 C224 1.387 1_565 S
C223 H226 0.950 . S
C224 C223 1.387 1_545 S
C224 C227 1.387 . S
H225 C221 0.950 . S
H226 C223 0.950 . S
C227 C218 1.390 . S
C227 H220 0.950 . S
C227 C224 1.387 . S
C228 C229 1.387 1_655 S
C228 H232 0.950 . S
C228 C237 1.390 . S
C229 C228 1.387 1_455 S
C229 C231 1.387 . S
H230 C237 0.950 . S
C231 C229 1.387 . S
C231 C233 1.390 . S
C231 H235 0.950 . S
H232 C228 0.950 . S
C233 C231 1.390 . S
C233 C234 1.387 . S
C233 H236 0.950 . S
C234 C233 1.387 . S
C234 C237 1.387 1_455 S
H235 C231 0.950 . S
H236 C233 0.950 . S
C237 C228 1.390 . S
C237 H230 0.950 . S
C237 C234 1.387 1_655 S
C238 C239 1.387 . S
C238 H242 0.950 . S
C238 C247 1.390 . S
C239 C238 1.387 . S
C239 C241 1.387 1_545 S
H240 C247 0.950 . S
C241 C239 1.387 1_565 S
C241 C243 1.390 . S
C241 H245 0.950 . S
H242 C238 0.950 . S
C243 C241 1.390 . S
C243 C244 1.387 1_565 S
C243 H246 0.950 . S
C244 C243 1.387 1_545 S
C244 C247 1.387 . S
H245 C241 0.950 . S
H246 C243 0.950 . S
C247 C238 1.390 . S
C247 H240 0.950 . S
C247 C244 1.387 . S
C248 C249 1.387 1_655 S
C248 H252 0.950 . S
C248 C257 1.390 . S
C249 C248 1.387 1_455 S
C249 C251 1.387 . S
H250 C257 0.950 . S
C251 C249 1.387 . S
C251 C253 1.390 . S
C251 H255 0.950 . S
H252 C248 0.950 . S
C253 C251 1.390 . S
C253 C254 1.387 . S
C253 H256 0.950 . S
C254 C253 1.387 . S
C254 C257 1.387 1_455 S
H255 C251 0.950 . S
H256 C253 0.950 . S
C257 C248 1.390 . S
C257 H250 0.950 . S
C257 C254 1.387 1_655 S
C258 C259 1.387 1_565 S
C258 H262 0.950 . S
C258 C267 1.390 . S
C259 C258 1.387 1_545 S
C259 C261 1.387 . S
H260 C267 0.950 . S
C261 C259 1.387 . S
C261 C263 1.390 . S
C261 H265 0.950 . S
H262 C258 0.950 . S
C263 C261 1.390 . S
C263 C264 1.387 . S
C263 H266 0.950 . S
C264 C263 1.387 . S
C264 C267 1.387 1_545 S
H265 C261 0.950 . S
H266 C263 0.950 . S
C267 C258 1.390 . S
C267 H260 0.950 . S
C267 C264 1.387 1_565 S
C268 C269 1.387 1_655 S
C268 H272 0.950 . S
C268 C277 1.390 . S
C269 C268 1.387 1_455 S
C269 C271 1.387 . S
H270 C277 0.950 . S
C271 C269 1.387 . S
C271 C273 1.390 . S
C271 H275 0.950 . S
H272 C268 0.950 . S
C273 C271 1.390 . S
C273 C274 1.387 . S
C273 H276 0.950 . S
C274 C273 1.387 . S
C274 C277 1.387 1_455 S
H275 C271 0.950 . S
H276 C273 0.950 . S
C277 C268 1.390 . S
C277 H270 0.950 . S
C277 C274 1.387 1_655 S
C278 C279 1.387 . S
C278 H282 0.950 . S
C278 C287 1.390 . S
C279 C278 1.387 . S
C279 C281 1.387 1_545 S
H280 C287 0.950 . S
C281 C279 1.387 1_565 S
C281 C283 1.390 . S
C281 H285 0.950 . S
H282 C278 0.950 . S
C283 C281 1.390 . S
C283 C284 1.387 1_565 S
C283 H286 0.950 . S
C284 C283 1.387 1_545 S
C284 C287 1.387 . S
H285 C281 0.950 . S
H286 C283 0.950 . S
C287 C278 1.390 . S
C287 H280 0.950 . S
C287 C284 1.387 . S
C288 C289 1.387 . S
C288 H292 0.950 . S
C288 C297 1.390 . S
C289 C288 1.387 . S
C289 C291 1.387 1_455 S
H290 C297 0.950 . S
C291 C289 1.387 1_655 S
C291 C293 1.390 . S
C291 H295 0.950 . S
H292 C288 0.950 . S
C293 C291 1.390 . S
C293 C294 1.387 1_655 S
C293 H296 0.950 . S
C294 C293 1.387 1_455 S
C294 C297 1.387 . S
H295 C291 0.950 . S
H296 C293 0.950 . S
C297 C288 1.390 . S
C297 H290 0.950 . S
C297 C294 1.387 . S
C224 C91 1.551 . S
C219 C17 1.449 . S
C234 C179 1.541 . S
C229 C40 1.469 . S
C244 C99 1.552 . S
C239 C9 1.464 . S
C254 C187 1.543 . S
C249 C33 1.432 . S
C264 C159 1.541 . S
C259 C19 1.469 . S
C274 C62 1.551 . S
C269 C38 1.445 . S
C284 C150 1.544 . S
C279 C12 1.435 . S
C289 C30 1.464 . S
C294 C71 1.552 . S
