# Generated by pormake.
# Topology anh, (6,3)-cn, num edge types: 1
# Building blocks:
#     Node 0, Type 0, BuildingBlock: CUKXOW_clean_sbu_0, # of connection points: 6
#     Node 1, Type 0, BuildingBlock: CUKXOW_clean_sbu_0, # of connection points: 6
#     Node 2, Type 0, BuildingBlock: CUKXOW_clean_sbu_0, # of connection points: 6
#     Node 3, Type 1, BuildingBlock: BELTOD_clean_linker_0, # of connection points: 3
#     Node 4, Type 1, BuildingBlock: BELTOD_clean_linker_0, # of connection points: 3
#     Node 5, Type 1, BuildingBlock: BELTOD_clean_linker_0, # of connection points: 3
#     Node 6, Type 1, BuildingBlock: BELTOD_clean_linker_0, # of connection points: 3
#     Node 7, Type 1, BuildingBlock: BELTOD_clean_linker_0, # of connection points: 3
#     Node 8, Type 1, BuildingBlock: BELTOD_clean_linker_0, # of connection points: 3
#     Edge 9, Type (0, 1), BuildingBlock: EZIPEK_clean_linker_0, # of connection points: 2
#     Edge 10, Type (0, 1), BuildingBlock: EZIPEK_clean_linker_0, # of connection points: 2
#     Edge 11, Type (0, 1), BuildingBlock: EZIPEK_clean_linker_0, # of connection points: 2
#     Edge 12, Type (0, 1), BuildingBlock: EZIPEK_clean_linker_0, # of connection points: 2
#     Edge 13, Type (0, 1), BuildingBlock: EZIPEK_clean_linker_0, # of connection points: 2
#     Edge 14, Type (0, 1), BuildingBlock: EZIPEK_clean_linker_0, # of connection points: 2
#     Edge 15, Type (0, 1), BuildingBlock: EZIPEK_clean_linker_0, # of connection points: 2
#     Edge 16, Type (0, 1), BuildingBlock: EZIPEK_clean_linker_0, # of connection points: 2
#     Edge 17, Type (0, 1), BuildingBlock: EZIPEK_clean_linker_0, # of connection points: 2
#     Edge 18, Type (0, 1), BuildingBlock: EZIPEK_clean_linker_0, # of connection points: 2
#     Edge 19, Type (0, 1), BuildingBlock: EZIPEK_clean_linker_0, # of connection points: 2
#     Edge 20, Type (0, 1), BuildingBlock: EZIPEK_clean_linker_0, # of connection points: 2
#     Edge 21, Type (0, 1), BuildingBlock: EZIPEK_clean_linker_0, # of connection points: 2
#     Edge 22, Type (0, 1), BuildingBlock: EZIPEK_clean_linker_0, # of connection points: 2
#     Edge 23, Type (0, 1), BuildingBlock: EZIPEK_clean_linker_0, # of connection points: 2
#     Edge 24, Type (0, 1), BuildingBlock: EZIPEK_clean_linker_0, # of connection points: 2
#     Edge 25, Type (0, 1), BuildingBlock: EZIPEK_clean_linker_0, # of connection points: 2
#     Edge 26, Type (0, 1), BuildingBlock: EZIPEK_clean_linker_0, # of connection points: 2
# Relax obj value: 0.127
# Max RMSD: 0.188
# Mean RMSD: 0.133
data_MOF--net-anh--node1-CUKXOW_clean_sbu_0--node2-BELTOD_clean_linker_0--edge1-EZIPEK_clean_linker_0
_symmetry_space_group_name_H-M    P1
_symmetry_Int_Tables_number       1
_symmetry_cell_setting            triclinic
loop_
_symmetry_equiv_pos_as_xyz
'x, y, z'
_cell_length_a     24.914003
_cell_length_b     24.063256
_cell_length_c     45.255862
_cell_angle_alpha  95.086402
_cell_angle_beta   89.913877
_cell_angle_gamma 112.8511
loop_
_atom_site_label
_atom_site_type_symbol
_atom_site_fract_x
_atom_site_fract_y
_atom_site_fract_z
_atom_type_partial_charge
Tb0 Tb 0.08509 0.59221 0.16502 0.0
C1 C 0.05049 0.50983 0.21845 0.0
Tb2 Tb 1.00944 0.45778 0.15209 0.0
O3 O 1.01264 0.62108 0.15995 0.0
O4 O 0.99709 0.53504 0.17165 0.0
O5 O 0.08274 0.56343 0.20955 0.0
C6 C 0.91537 0.354 0.14435 0.0
O7 O 1.01465 0.46398 0.20043 0.0
C8 C 0.12363 0.48478 0.15427 0.0
C9 C 0.04259 0.53997 0.09885 0.0
O10 O 0.96902 0.35857 0.1448 0.0
O11 O 0.91498 0.40791 0.14708 0.0
O12 O 0.08396 0.43254 0.15918 0.0
O13 O 0.09752 0.51558 0.14432 0.0
O14 O 1.00887 0.48673 0.10776 0.0
O15 O 0.0807 0.58439 0.1168 0.0
C16 C 0.18153 0.69193 0.17647 0.0
O17 O 0.13171 0.69117 0.16754 0.0
O18 O 0.17646 0.63723 0.17963 0.0
C19 C 0.97212 0.56798 0.16276 0.0
Tb20 Tb 0.49497 0.9853 0.49732 0.0
C21 C 0.56502 0.01951 0.43932 0.0
Tb22 Tb 0.62232 0.07349 0.50419 0.0
O23 O 0.47032 0.0554 0.48093 0.0
O24 O 0.54057 0.07846 0.51136 0.0
O25 O 0.51771 0.98072 0.45089 0.0
C26 C 0.7168 0.17407 0.50116 0.0
O27 O 0.60845 0.06142 0.45582 0.0
C28 C 0.60678 0.95953 0.50572 0.0
C29 C 0.55386 0.03317 0.56219 0.0
O30 O 0.66479 0.16623 0.49216 0.0
O31 O 0.71578 0.12549 0.51188 0.0
O32 O 0.65354 0.00478 0.51613 0.0
O33 O 0.57694 0.98054 0.49117 0.0
O34 O 0.60054 0.07349 0.5508 0.0
O35 O 0.50859 0.9947 0.54554 0.0
C36 C 0.39989 0.88461 0.49817 0.0
O37 O 0.39998 0.93818 0.49623 0.0
O38 O 0.45297 0.88801 0.49997 0.0
C39 C 0.5141 0.09958 0.49471 0.0
Tb40 Tb 0.46832 0.50807 0.82486 0.0
C41 C 0.52967 0.51074 0.885 0.0
Tb42 Tb 0.59179 0.51468 0.82415 0.0
O43 O 0.43299 0.41447 0.83707 0.0
O44 O 0.50856 0.4467 0.81283 0.0
O45 O 0.49326 0.52976 0.87191 0.0
C46 C 0.68974 0.49649 0.82698 0.0
O47 O 0.56671 0.4934 0.86951 0.0
C48 C 0.58257 0.61962 0.82241 0.0
C49 C 0.52848 0.50723 0.76278 0.0
O50 O 0.64436 0.46269 0.81042 0.0
O51 O 0.67954 0.53937 0.84215 0.0
O52 O 0.62594 0.60791 0.81195 0.0
O53 O 0.55142 0.57578 0.83635 0.0
O54 O 0.57616 0.50899 0.77658 0.0
O55 O 0.48091 0.50437 0.77697 0.0
C56 C 0.38408 0.54895 0.82102 0.0
O57 O 0.43642 0.57487 0.81183 0.0
O58 O 0.37873 0.49919 0.83218 0.0
C59 C 0.47712 0.40334 0.82694 0.0
P60 P 0.61236 0.95773 0.21209 0.0
H61 H 0.54324 0.84826 0.17395 0.0
H62 H 0.43783 0.79592 0.16465 0.0
H63 H 0.41094 0.94579 0.21223 0.0
H64 H 0.51675 0.99872 0.2214 0.0
H65 H 0.73522 0.03062 0.22089 0.0
H66 H 0.80072 0.12355 0.20085 0.0
H67 H 0.65773 0.12645 0.14834 0.0
H68 H 0.59176 0.03297 0.16845 0.0
H69 H 0.59331 0.87982 0.25999 0.0
H70 H 0.62353 0.06651 0.25089 0.0
O71 O 0.64077 0.90571 0.20506 0.0
H72 H 0.58234 0.89646 0.3136 0.0
H73 H 0.6124 0.08299 0.30455 0.0
C74 C 0.53769 0.92707 0.19863 0.0
C75 C 0.515 0.8707 0.18176 0.0
C76 C 0.45492 0.8408 0.17645 0.0
C77 C 0.41696 0.86696 0.18798 0.0
C78 C 0.4398 0.92509 0.2032 0.0
C79 C 0.50001 0.95512 0.2084 0.0
C80 C 0.65878 0.02513 0.1962 0.0
C81 C 0.71794 0.05099 0.20494 0.0
C82 C 0.75528 0.10374 0.19348 0.0
C83 C 0.734 0.13136 0.17302 0.0
C84 C 0.67484 0.10529 0.16395 0.0
C85 C 0.6373 0.05227 0.17551 0.0
C86 C 0.61075 0.97233 0.25167 0.0
C87 C 0.59853 0.92456 0.26959 0.0
C88 C 0.5919 0.93386 0.30005 0.0
C89 C 0.59671 0.99091 0.31286 0.0
C90 C 0.60878 0.03876 0.29495 0.0
C91 C 0.61553 0.02943 0.26447 0.0
P92 P 0.63704 0.55836 0.54356 0.0
H93 H 0.69496 0.47474 0.53496 0.0
H94 H 0.65907 0.36627 0.51991 0.0
H95 H 0.49016 0.36475 0.49809 0.0
H96 H 0.5267 0.47478 0.5125 0.0
H97 H 0.70228 0.66235 0.51138 0.0
H98 H 0.68332 0.75098 0.50081 0.0
H99 H 0.50743 0.66649 0.52961 0.0
H100 H 0.52648 0.57749 0.54072 0.0
H101 H 0.69477 0.60562 0.60207 0.0
H102 H 0.52178 0.49208 0.56706 0.0
O103 O 0.70981 0.58664 0.54598 0.0
H104 H 0.66077 0.58892 0.65265 0.0
H105 H 0.48795 0.47647 0.61766 0.0
C106 C 0.61377 0.48327 0.5245 0.0
C107 C 0.65076 0.45193 0.52597 0.0
C108 C 0.63025 0.38982 0.51759 0.0
C109 C 0.57206 0.35765 0.50804 0.0
C110 C 0.53534 0.38907 0.50536 0.0
C111 C 0.55623 0.45173 0.51344 0.0
C112 C 0.61617 0.61344 0.52738 0.0
C113 C 0.65914 0.6619 0.5149 0.0
C114 C 0.64844 0.71267 0.50886 0.0
C115 C 0.59436 0.7156 0.51488 0.0
C116 C 0.54959 0.66511 0.525 0.0
C117 C 0.56052 0.61431 0.53131 0.0
C118 C 0.61103 0.54959 0.5807 0.0
C119 C 0.64957 0.57737 0.60515 0.0
C120 C 0.63028 0.56794 0.63398 0.0
C121 C 0.5721 0.53119 0.63866 0.0
C122 C 0.53307 0.50475 0.61432 0.0
C123 C 0.5525 0.51375 0.58549 0.0
P124 P 0.0892 0.72087 0.89811 0.0
H125 H 0.16224 0.75984 0.84743 0.0
H126 H 0.23599 0.72642 0.82467 0.0
H127 H 0.22412 0.61743 0.897 0.0
H128 H 0.15196 0.65056 0.91973 0.0
H129 H 0.97879 0.73132 0.88836 0.0
H130 H 0.8876 0.65966 0.86374 0.0
H131 H 0.97564 0.54683 0.82839 0.0
H132 H 0.06678 0.61809 0.85286 0.0
H133 H 0.12561 0.76997 0.95966 0.0
H134 H 1.01126 0.6005 0.91309 0.0
O135 O 0.10277 0.79474 0.90142 0.0
H136 H 0.10957 0.72126 0.00629 0.0
H137 H 0.99581 0.55258 0.95926 0.0
C138 C 0.15199 0.7082 0.88536 0.0
C139 C 0.1767 0.72997 0.8587 0.0
C140 C 0.21804 0.71054 0.8456 0.0
C141 C 0.23437 0.66894 0.85909 0.0
C142 C 0.21138 0.64918 0.88627 0.0
C143 C 0.1704 0.66857 0.89932 0.0
C144 C 0.02968 0.68069 0.87209 0.0
C145 C 0.9791 0.69258 0.87432 0.0
C146 C 0.92718 0.6516 0.86049 0.0
C147 C 0.92542 0.59828 0.84445 0.0
C148 C 0.97668 0.58812 0.84054 0.0
C149 C 0.02868 0.62917 0.85438 0.0
C150 C 0.06863 0.68945 0.93301 0.0
C151 C 0.09594 0.72303 0.95956 0.0
C152 C 0.0871 0.69527 0.98602 0.0
C153 C 0.05131 0.63355 0.98603 0.0
C154 C 0.02307 0.60037 0.95962 0.0
C155 C 0.03174 0.62807 0.9333 0.0
P156 P 0.11906 0.45294 0.43772 0.0
H157 H 0.09659 0.53292 0.48554 0.0
H158 H 0.15577 0.63697 0.50579 0.0
H159 H 0.29886 0.63417 0.45283 0.0
H160 H 0.24007 0.53013 0.43262 0.0
H161 H 0.07257 0.34262 0.46816 0.0
H162 H 0.97486 0.28485 0.48514 0.0
H163 H 0.9182 0.42406 0.4621 0.0
H164 H 1.01572 0.4813 0.4442 0.0
H165 H 0.05667 0.36819 0.38779 0.0
H166 H 0.14277 0.56235 0.40619 0.0
O167 O 0.15605 0.40797 0.43548 0.0
H168 H 0.03524 0.38135 0.33651 0.0
H169 H 0.12291 0.57506 0.35488 0.0
C170 C 0.16407 0.52386 0.45752 0.0
C171 C 0.14091 0.55405 0.47861 0.0
C172 C 0.17456 0.61332 0.49023 0.0
C173 C 0.23123 0.6428 0.48056 0.0
C174 C 0.25509 0.61176 0.46046 0.0
C175 C 0.22172 0.55254 0.44907 0.0
C176 C 0.05107 0.416 0.45488 0.0
C177 C 0.03951 0.36123 0.46712 0.0
C178 C 0.98397 0.32838 0.47685 0.0
C179 C 0.93977 0.35038 0.4747 0.0
C180 C 0.95211 0.40675 0.46393 0.0
C181 C 1.00747 0.43916 0.45377 0.0
C182 C 0.10229 0.46405 0.40062 0.0
C183 C 0.07098 0.41349 0.38082 0.0
C184 C 0.05854 0.42095 0.35172 0.0
C185 C 0.07777 0.47915 0.34203 0.0
C186 C 0.10785 0.52986 0.36204 0.0
C187 C 0.11961 0.52241 0.39125 0.0
P188 P 0.60698 0.04719 0.79069 0.0
H189 H 0.66251 0.1774 0.80457 0.0
H190 H 0.62364 0.25533 0.81592 0.0
H191 H 0.45189 0.11713 0.82236 0.0
H192 H 0.49136 0.03817 0.81168 0.0
H193 H 0.64915 1.00144 0.83943 0.0
H194 H 0.63581 0.89832 0.84905 0.0
H195 H 0.49878 0.82576 0.78123 0.0
H196 H 0.5126 0.92911 0.77127 0.0
H197 H 0.51049 0.0528 0.75479 0.0
H198 H 0.66871 0.02286 0.73945 0.0
O199 O 0.67941 0.0775 0.79567 0.0
H200 H 0.49406 0.04897 0.70131 0.0
H201 H 0.65142 0.01818 0.68566 0.0
C202 C 0.58005 0.10173 0.80775 0.0
C203 C 0.61687 0.16341 0.80953 0.0
C204 C 0.59467 0.2081 0.81578 0.0
C205 C 0.53497 0.19202 0.81988 0.0
C206 C 0.49821 0.13037 0.81939 0.0
C207 C 0.52075 0.08542 0.81355 0.0
C208 C 0.58246 0.97316 0.80436 0.0
C209 C 0.61497 0.9635 0.82721 0.0
C210 C 0.60747 0.90459 0.8327 0.0
C211 C 0.56681 0.8543 0.81562 0.0
C212 C 0.53053 0.8639 0.79459 0.0
C213 C 0.53838 0.92296 0.78896 0.0
C214 C 0.59179 0.03973 0.75125 0.0
C215 C 0.54186 0.04561 0.7401 0.0
C216 C 0.53222 0.04325 0.70954 0.0
C217 C 0.57192 0.03405 0.68974 0.0
C218 C 0.62067 0.02586 0.70075 0.0
C219 C 0.63046 0.02856 0.73136 0.0
P220 P 0.52726 0.46299 0.11206 0.0
H221 H 0.59639 0.52324 0.16923 0.0
H222 H 0.69951 0.54773 0.18417 0.0
H223 H 0.72898 0.48129 0.09668 0.0
H224 H 0.62799 0.45722 0.082 0.0
H225 H 0.48858 0.5635 0.10256 0.0
H226 H 0.39588 0.57375 0.11229 0.0
H227 H 0.34676 0.42509 0.16676 0.0
H228 H 0.43907 0.41393 0.15672 0.0
H229 H 0.47244 0.38006 0.05901 0.0
H230 H 0.58164 0.56929 0.0791 0.0
O231 O 0.50238 0.38843 0.11452 0.0
H232 H 0.47502 0.39417 0.00599 0.0
H233 H 0.58192 0.58398 0.02603 0.0
C234 C 0.60428 0.49051 0.12405 0.0
C235 C 0.62532 0.51503 0.15315 0.0
C236 C 0.68409 0.52835 0.16176 0.0
C237 C 0.72252 0.51636 0.14155 0.0
C238 C 0.70085 0.49126 0.11273 0.0
C239 C 0.64288 0.47824 0.10424 0.0
C240 C 0.47166 0.48746 0.12863 0.0
C241 C 0.45899 0.53385 0.11722 0.0
C242 C 0.4055 0.5396 0.12263 0.0
C243 C 0.36351 0.49958 0.13989 0.0
C244 C 0.37799 0.45632 0.15319 0.0
C245 C 0.43128 0.45037 0.14764 0.0
C246 C 0.5269 0.47367 0.07302 0.0
C247 C 0.4967 0.42469 0.0521 0.0
C248 C 0.49811 0.43269 0.02184 0.0
C249 C 0.52878 0.49008 0.01207 0.0
C250 C 0.55821 0.53931 0.03309 0.0
C251 C 0.55779 0.53098 0.0633 0.0
C252 C 0.20205 0.46933 0.1226 0.0
C253 C 0.18652 0.49416 0.14939 0.0
C254 C 0.28893 0.52973 0.1681 0.0
C255 C 0.30312 0.50011 0.14256 0.0
N256 N 0.27184 0.43653 0.09654 0.0
N257 N 0.21378 0.54042 0.19946 0.0
C258 C 0.2593 0.46882 0.12 0.0
C259 C 0.22973 0.52254 0.17257 0.0
N260 N 0.16199 0.44641 0.09947 0.0
N261 N 0.33244 0.56586 0.18792 0.0
H262 H 0.17154 0.53698 0.20341 0.0
H263 H 0.2411 0.55453 0.2184 0.0
H264 H 0.37583 0.57132 0.1856 0.0
H265 H 0.32652 0.59427 0.2052 0.0
H266 H 0.17187 0.43392 0.0782 0.0
H267 H 0.11939 0.44409 0.10087 0.0
H268 H 0.24068 0.4069 0.0811 0.0
H269 H 0.31319 0.43607 0.09351 0.0
C270 C 0.78859 0.22701 0.46432 0.0
C271 C 0.77043 0.22425 0.49407 0.0
C272 C 0.86163 0.30802 0.51106 0.0
C273 C 0.87943 0.31126 0.48126 0.0
N274 N 0.857 0.28245 0.42885 0.0
N275 N 0.78304 0.26726 0.5449 0.0
C276 C 0.84177 0.27366 0.45765 0.0
C277 C 0.80501 0.26641 0.51723 0.0
N278 N 0.75675 0.18289 0.44273 0.0
N279 N 0.8995 0.34368 0.53341 0.0
H280 H 0.74169 0.23711 0.55001 0.0
H281 H 0.80351 0.30039 0.56219 0.0
H282 H 0.9402 0.37664 0.52948 0.0
H283 H 0.89207 0.33886 0.55585 0.0
H284 H 0.77126 0.17794 0.42147 0.0
H285 H 0.71726 0.148 0.44653 0.0
H286 H 0.82853 0.26158 0.41068 0.0
H287 H 0.8969 0.31411 0.42295 0.0
C288 C 0.56008 0.70807 0.84595 0.0
C289 C 0.57598 0.67868 0.82074 0.0
C290 C 0.59092 0.76738 0.79343 0.0
C291 C 0.56781 0.7928 0.81716 0.0
N292 N 0.52277 0.78355 0.86454 0.0
N293 N 0.59744 0.67749 0.7685 0.0
C294 C 0.54982 0.76176 0.84294 0.0
C295 C 0.58879 0.70755 0.79394 0.0
N296 N 0.5589 0.68758 0.87326 0.0
N297 N 0.61757 0.80142 0.77093 0.0
H298 H 0.59561 0.63346 0.76726 0.0
H299 H 0.60033 0.69384 0.74774 0.0
H300 H 0.62107 0.84576 0.76975 0.0
H301 H 0.6414 0.78795 0.75498 0.0
H302 H 0.55305 0.71051 0.89281 0.0
H303 H 0.57032 0.65147 0.87704 0.0
H304 H 0.50462 0.76065 0.88287 0.0
H305 H 0.51429 0.82238 0.8629 0.0
C306 C 0.88876 0.58245 0.13641 0.0
C307 C 0.90729 0.55272 0.15785 0.0
C308 C 0.80321 0.49673 0.1683 0.0
C309 C 0.78607 0.53151 0.14937 0.0
N310 N 0.81519 0.61759 0.12083 0.0
N311 N 0.87993 0.49124 0.19924 0.0
C312 C 0.82979 0.57755 0.13521 0.0
C313 C 0.86389 0.51234 0.17516 0.0
N314 N 0.92638 0.61292 0.11582 0.0
N315 N 0.76172 0.44751 0.17919 0.0
H316 H 0.92305 0.50304 0.20608 0.0
H317 H 0.85024 0.46702 0.2143 0.0
H318 H 0.71721 0.43512 0.17504 0.0
H319 H 0.77175 0.41627 0.19015 0.0
H320 H 0.91342 0.63015 0.09806 0.0
H321 H 0.96839 0.61408 0.11378 0.0
H322 H 0.84604 0.65611 0.11284 0.0
H323 H 0.77274 0.61588 0.11967 0.0
C324 C 0.34463 0.78692 0.51897 0.0
C325 C 0.34818 0.82728 0.49732 0.0
C326 C 0.2617 0.75088 0.471 0.0
C327 C 0.26505 0.70771 0.48947 0.0
N328 N 0.30904 0.68265 0.53088 0.0
N329 N 0.31289 0.84684 0.45117 0.0
C330 C 0.30592 0.72529 0.51368 0.0
C331 C 0.30674 0.80966 0.47322 0.0
N332 N 0.37754 0.808 0.5448 0.0
N333 N 0.21589 0.73526 0.45104 0.0
H334 H 0.34566 0.88994 0.45137 0.0
H335 H 0.28822 0.83319 0.43133 0.0
H336 H 0.18288 0.69199 0.44832 0.0
H337 H 0.20772 0.76646 0.43915 0.0
H338 H 0.37342 0.78211 0.56257 0.0
H339 H 0.40507 0.85343 0.54966 0.0
H340 H 0.34252 0.69112 0.54655 0.0
H341 H 0.27952 0.63758 0.52836 0.0
C342 C 0.49152 0.32008 0.85213 0.0
C343 C 0.48208 0.34335 0.82568 0.0
C344 C 0.50002 0.26261 0.79564 0.0
C345 C 0.51115 0.24029 0.82201 0.0
N346 N 0.50754 0.23978 0.87511 0.0
N347 N 0.45897 0.32593 0.77322 0.0
C348 C 0.50355 0.2665 0.85022 0.0
C349 C 0.48102 0.31142 0.79768 0.0
N350 N 0.49085 0.35037 0.87902 0.0
N351 N 0.50909 0.23811 0.76861 0.0
H352 H 0.44299 0.36019 0.77415 0.0
H353 H 0.4514 0.30063 0.75264 0.0
H354 H 0.51988 0.20022 0.76601 0.0
H355 H 0.50925 0.2574 0.74888 0.0
H356 H 0.50492 0.34125 0.89897 0.0
H357 H 0.47761 0.38646 0.8813 0.0
H358 H 0.49708 0.25263 0.89617 0.0
H359 H 0.51769 0.20153 0.87444 0.0
C360 C 0.57671 0.84993 0.48319 0.0
C361 C 0.59569 0.89419 0.50831 0.0
C362 C 0.60051 0.81592 0.53876 0.0
C363 C 0.58753 0.77411 0.51312 0.0
N364 N 0.5643 0.74956 0.4609 0.0
N365 N 0.62938 0.91939 0.55992 0.0
C366 C 0.57502 0.7904 0.48543 0.0
C367 C 0.60834 0.87703 0.53605 0.0
N368 N 0.56193 0.86482 0.45685 0.0
N369 N 0.6044 0.79684 0.56599 0.0
H370 H 0.62865 0.96245 0.56103 0.0
H371 H 0.64899 0.91241 0.57876 0.0
H372 H 0.60116 0.75318 0.5689 0.0
H373 H 0.60598 0.82247 0.58599 0.0
H374 H 0.53911 0.83313 0.43946 0.0
H375 H 0.57119 0.90894 0.45226 0.0
H376 H 0.56236 0.76007 0.43923 0.0
H377 H 0.55991 0.70489 0.46208 0.0
C378 C 0.77306 0.48908 0.85312 0.0
C379 C 0.74776 0.4943 0.82614 0.0
C380 C 0.84356 0.54859 0.8068 0.0
C381 C 0.86819 0.55053 0.83521 0.0
N382 N 0.86168 0.50778 0.88185 0.0
N383 N 0.75694 0.50844 0.77416 0.0
C384 C 0.83456 0.51495 0.8571 0.0
C385 C 0.78259 0.51644 0.80172 0.0
N386 N 0.7377 0.4625 0.87531 0.0
N387 N 0.87789 0.58064 0.78556 0.0
H388 H 0.71229 0.48453 0.77014 0.0
H389 H 0.78006 0.52027 0.75497 0.0
H390 H 0.92301 0.60288 0.78859 0.0
H391 H 0.86186 0.58698 0.76547 0.0
H392 H 0.75242 0.4629 0.89686 0.0
H393 H 0.69254 0.44073 0.87199 0.0
H394 H 0.84026 0.47947 0.89792 0.0
H395 H 0.9069 0.52681 0.88513 0.0
C396 C 0.26788 0.75704 0.20859 0.0
C397 C 0.23712 0.74539 0.18093 0.0
C398 C 0.31989 0.82531 0.16067 0.0
C399 C 0.35338 0.83019 0.18675 0.0
N400 N 0.36145 0.79877 0.23518 0.0
N401 N 0.23452 0.76457 0.12955 0.0
C402 C 0.32782 0.79599 0.21079 0.0
C403 C 0.26284 0.77917 0.15675 0.0
N404 N 0.23925 0.73162 0.2329 0.0
N405 N 0.34279 0.86485 0.1397 0.0
H406 H 0.19276 0.73118 0.12564 0.0
H407 H 0.25391 0.78252 0.11028 0.0
H408 H 0.38479 0.89853 0.14185 0.0
H409 H 0.31869 0.86774 0.12155 0.0
H410 H 0.25758 0.74281 0.25436 0.0
H411 H 0.19502 0.70357 0.23206 0.0
H412 H 0.34718 0.76941 0.25172 0.0
H413 H 0.4052 0.82794 0.23806 0.0
C414 C 0.54268 0.1989 0.47226 0.0
C415 C 0.52201 0.16431 0.49678 0.0
C416 C 0.52899 0.25585 0.5279 0.0
C417 C 0.5493 0.29039 0.50335 0.0
N418 N 0.56558 0.29453 0.45104 0.0
N419 N 0.48113 0.15635 0.54525 0.0
C420 C 0.55286 0.26168 0.47511 0.0
C421 C 0.51095 0.1918 0.52385 0.0
N422 N 0.55487 0.17226 0.44664 0.0
N423 N 0.52862 0.28451 0.55534 0.0
H424 H 0.46644 0.1092 0.54284 0.0
H425 H 0.46641 0.17294 0.56424 0.0
H426 H 0.53895 0.331 0.55901 0.0
H427 H 0.52158 0.26295 0.57479 0.0
H428 H 0.57677 0.19605 0.42922 0.0
H429 H 0.54589 0.12615 0.44343 0.0
H430 H 0.5632 0.27547 0.42928 0.0
H431 H 0.57425 0.34076 0.45257 0.0
C432 C 0.36525 0.629 0.85232 0.0
C433 C 0.34688 0.58237 0.82857 0.0
C434 C 0.25562 0.59625 0.82246 0.0
C435 C 0.27553 0.64489 0.84526 0.0
N436 N 0.35369 0.71695 0.8769 0.0
N437 N 0.28038 0.52789 0.7876 0.0
C438 C 0.33198 0.6644 0.85849 0.0
C439 C 0.29382 0.56799 0.81247 0.0
N440 N 0.41255 0.63719 0.87012 0.0
N441 N 0.1995 0.57535 0.81141 0.0
H442 H 0.3072 0.5057 0.78016 0.0
H443 H 0.24514 0.52006 0.77317 0.0
H444 H 0.1706 0.59562 0.81782 0.0
H445 H 0.1804 0.53575 0.79728 0.0
H446 H 0.42313 0.66509 0.88998 0.0
H447 H 0.43806 0.61179 0.86672 0.0
H448 H 0.39669 0.73644 0.88506 0.0
H449 H 0.3302 0.74413 0.88173 0.0
C450 C 0.8473 0.24671 0.12873 0.0
C451 C 0.86476 0.29826 0.14982 0.0
C452 C 0.7863 0.24343 0.18199 0.0
C453 C 0.77389 0.18979 0.16288 0.0
N454 N 0.7939 0.13797 0.11891 0.0
N455 N 0.85806 0.34215 0.19924 0.0
C456 C 0.80448 0.19079 0.13632 0.0
C457 C 0.83581 0.29603 0.17707 0.0
N458 N 0.87089 0.25163 0.10132 0.0
N459 N 0.75074 0.24399 0.20497 0.0
H460 H 0.8962 0.38019 0.19749 0.0
H461 H 0.84227 0.33991 0.22061 0.0
H462 H 0.71444 0.20589 0.20948 0.0
H463 H 0.75396 0.28344 0.21773 0.0
H464 H 0.85604 0.21751 0.08389 0.0
H465 H 0.90247 0.29192 0.09524 0.0
H466 H 0.8192 0.13424 0.10112 0.0
H467 H 0.76152 0.09673 0.12334 0.0
C468 C 0.98956 0.55236 0.0544 0.0
C469 C 0.04087 0.55078 0.06724 0.0
C470 C 0.09465 0.59054 0.02322 0.0
C471 C 0.04655 0.60237 0.01326 0.0
N472 N 0.94945 0.59922 0.02012 0.0
N473 N 0.14238 0.56646 0.06386 0.0
C474 C 0.99401 0.58386 0.02883 0.0
C475 C 0.09342 0.56902 0.05152 0.0
N476 N 0.93666 0.52416 0.06652 0.0
N477 N 0.14073 0.59833 0.00525 0.0
H478 H 0.14203 0.54618 0.08331 0.0
H479 H 0.18379 0.58656 0.05553 0.0
H480 H 0.14289 0.61368 0.98425 0.0
H481 H 0.1744 0.58465 0.00989 0.0
H482 H 0.8973 0.51838 0.05617 0.0
H483 H 0.9312 0.50221 0.08577 0.0
H484 H 0.91292 0.59349 0.03268 0.0
H485 H 0.95106 0.62245 0.00153 0.0
C486 C 0.52893 0.01157 0.38647 0.0
C487 C 0.57265 0.01241 0.40685 0.0
C488 C 0.6347 0.00706 0.36544 0.0
C489 C 0.58884 1.00019 0.34516 0.0
N490 N 0.48908 0.9867 0.3359 0.0
N491 N 0.66185 0.99747 0.41536 0.0
C492 C 0.53498 0.99985 0.35553 0.0
C493 C 0.62425 0.0067 0.39627 0.0
N494 N 0.48279 0.02435 0.39647 0.0
N495 N 0.68866 0.01501 0.35527 0.0
H496 H 0.65517 0.99435 0.43799 0.0
H497 H 0.69665 0.98651 0.40832 0.0
H498 H 0.69784 0.01487 0.33276 0.0
H499 H 0.72546 0.02716 0.36921 0.0
H500 H 0.45327 0.03121 0.38246 0.0
H501 H 0.47661 0.03338 0.41887 0.0
H502 H 0.44684 0.97884 0.34241 0.0
H503 H 0.49212 0.97885 0.31303 0.0
C504 C 0.51773 0.55213 0.71581 0.0
C505 C 0.52887 0.50677 0.72988 0.0
C506 C 0.55541 0.46943 0.68198 0.0
C507 C 0.55248 0.51994 0.66928 0.0
N508 N 0.5336 0.61106 0.67344 0.0
N509 N 0.55562 0.42005 0.72633 0.0
C510 C 0.53365 0.56129 0.6859 0.0
C511 C 0.54656 0.46451 0.71285 0.0
N512 N 0.4923 0.58685 0.73083 0.0
N513 N 0.56606 0.42586 0.66434 0.0
H514 H 0.54422 0.41094 0.74805 0.0
H515 H 0.57618 0.39324 0.71649 0.0
H516 H 0.5744 0.42894 0.64182 0.0
H517 H 0.56265 0.38456 0.67125 0.0
H518 H 0.47606 0.61441 0.72055 0.0
H519 H 0.48407 0.58629 0.75333 0.0
H520 H 0.52845 0.64751 0.68545 0.0
H521 H 0.54253 0.618 0.65122 0.0
C522 C 0.53532 0.97654 0.60835 0.0
C523 C 0.55188 0.03225 0.59507 0.0
C524 C 0.58118 0.08888 0.64419 0.0
C525 C 0.56272 0.0335 0.65735 0.0
N526 N 0.51024 0.92531 0.6533 0.0
N527 N 0.5738 0.13971 0.60156 0.0
C528 C 0.53587 0.97754 0.63982 0.0
C529 C 0.56999 0.08799 0.61336 0.0
N530 N 0.52216 0.92283 0.59125 0.0
N531 N 0.61063 0.14238 0.66101 0.0
H532 H 0.56317 0.1405 0.57939 0.0
H533 H 0.58111 0.18032 0.61435 0.0
H534 H 0.61849 0.14509 0.68384 0.0
H535 H 0.63113 0.18348 0.65197 0.0
H536 H 0.51724 0.88255 0.59993 0.0
H537 H 0.52129 0.91852 0.56819 0.0
H538 H 0.48387 0.88407 0.64195 0.0
H539 H 0.511 0.92418 0.67628 0.0
C540 C 0.58275 0.52928 0.93455 0.0
C541 C 0.5292 0.50869 0.91784 0.0
C542 C 0.47648 0.48732 0.96409 0.0
C543 C 0.52941 0.49845 0.9798 0.0
N544 N 0.63231 0.51922 0.97841 0.0
N545 N 0.42399 0.45604 0.91681 0.0
C546 C 0.58247 0.51641 0.9646 0.0
C547 C 0.47563 0.48463 0.9326 0.0
N548 N 0.63373 0.56361 0.92228 0.0
N549 N 0.42719 0.48075 0.97921 0.0
H550 H 0.42075 0.44976 0.89374 0.0
H551 H 0.38486 0.43247 0.92668 0.0
H552 H 0.42631 0.48383 0.00233 0.0
H553 H 0.38895 0.47865 0.96894 0.0
H554 H 0.67311 0.58404 0.93444 0.0
H555 H 0.63552 0.57782 0.90106 0.0
H556 H 0.67069 0.52612 0.96726 0.0
H557 H 0.6338 0.5087 0.00018 0.0
C558 C 0.08878 0.46774 0.25821 0.0
C559 C 0.05543 0.50054 0.25001 0.0
C560 C 0.03139 0.51388 0.302 0.0
C561 C 0.06974 0.4867 0.31038 0.0
N562 N 0.14452 0.44947 0.29715 0.0
N563 N 1.001 0.56196 0.26412 0.0
C564 C 0.10106 0.46676 0.28867 0.0
C565 C 0.0286 0.52592 0.27194 0.0
N566 N 0.1083 0.43685 0.23697 0.0
N567 N 0.99623 0.52619 0.32253 0.0
H568 H 0.99677 0.57046 0.24223 0.0
H569 H 0.98607 0.58699 0.2795 0.0
H570 H 0.9968 0.51747 0.34467 0.0
H571 H 0.96308 0.54013 0.31715 0.0
H572 H 0.1272 0.40679 0.2418 0.0
H573 H 0.10116 0.4371 0.21437 0.0
H574 H 0.17314 0.44106 0.28234 0.0
H575 H 0.15589 0.44928 0.3193 0.0
loop_
_geom_bond_atom_site_label_1
_geom_bond_atom_site_label_2
_geom_bond_distance
_geom_bond_site_symmetry_2
_ccdc_geom_bond_type
Tb0 O3 2.453 1_455 S
Tb0 O4 2.596 1_455 S
Tb0 O5 2.374 . S
Tb0 O13 2.343 . S
Tb0 O15 2.353 . S
Tb0 O17 2.427 . S
Tb0 O18 2.513 . S
C1 O5 1.251 . S
C1 O7 1.263 . S
Tb2 O4 2.343 1_455 S
Tb2 O7 2.353 . S
Tb2 O10 2.427 1_455 S
Tb2 O11 2.513 1_455 S
Tb2 O12 2.453 . S
Tb2 O13 2.596 . S
Tb2 O14 2.374 . S
O3 Tb0 2.453 1_655 S
O3 C19 1.245 . S
O4 Tb0 2.596 1_655 S
O4 Tb2 2.343 1_655 S
O4 C19 1.259 . S
O5 Tb0 2.374 . S
O5 C1 1.251 . S
C6 O10 1.275 . S
C6 O11 1.246 . S
O7 C1 1.263 . S
O7 Tb2 2.353 . S
C8 O12 1.245 . S
C8 O13 1.259 . S
C9 O14 1.250 . S
C9 O15 1.263 . S
O10 Tb2 2.427 1_655 S
O10 C6 1.275 . S
O11 Tb2 2.513 1_655 S
O11 C6 1.246 . S
O12 Tb2 2.453 . S
O12 C8 1.245 . S
O13 Tb0 2.343 . S
O13 Tb2 2.596 . S
O13 C8 1.259 . S
O14 Tb2 2.374 . S
O14 C9 1.250 . S
O15 Tb0 2.353 . S
O15 C9 1.263 . S
C16 O17 1.275 . S
C16 O18 1.246 . S
O17 Tb0 2.427 . S
O17 C16 1.275 . S
O18 Tb0 2.513 . S
O18 C16 1.246 . S
C19 O3 1.245 . S
C19 O4 1.259 . S
Tb20 O23 2.453 . S
Tb20 O24 2.596 . S
Tb20 O25 2.374 . S
Tb20 O33 2.343 1_545 S
Tb20 O35 2.353 . S
Tb20 O37 2.427 1_545 S
Tb20 O38 2.513 1_545 S
C21 O25 1.251 . S
C21 O27 1.263 . S
Tb22 O24 2.343 . S
Tb22 O27 2.353 . S
Tb22 O30 2.427 . S
Tb22 O31 2.513 . S
Tb22 O32 2.453 1_545 S
Tb22 O33 2.596 1_545 S
Tb22 O34 2.374 . S
O23 Tb20 2.453 . S
O23 C39 1.245 . S
O24 Tb20 2.596 . S
O24 Tb22 2.343 . S
O24 C39 1.259 . S
O25 Tb20 2.374 . S
O25 C21 1.251 . S
C26 O30 1.275 . S
C26 O31 1.246 . S
O27 C21 1.263 . S
O27 Tb22 2.353 . S
C28 O32 1.245 . S
C28 O33 1.259 . S
C29 O34 1.250 . S
C29 O35 1.263 . S
O30 Tb22 2.427 . S
O30 C26 1.275 . S
O31 Tb22 2.513 . S
O31 C26 1.246 . S
O32 Tb22 2.453 1_565 S
O32 C28 1.245 . S
O33 Tb20 2.343 1_565 S
O33 Tb22 2.596 1_565 S
O33 C28 1.259 . S
O34 Tb22 2.374 . S
O34 C29 1.250 . S
O35 Tb20 2.353 . S
O35 C29 1.263 . S
C36 O37 1.275 . S
C36 O38 1.246 . S
O37 Tb20 2.427 1_565 S
O37 C36 1.275 . S
O38 Tb20 2.513 1_565 S
O38 C36 1.246 . S
C39 O23 1.245 . S
C39 O24 1.259 . S
Tb40 O43 2.453 . S
Tb40 O44 2.596 . S
Tb40 O45 2.374 . S
Tb40 O53 2.343 . S
Tb40 O55 2.353 . S
Tb40 O57 2.427 . S
Tb40 O58 2.513 . S
C41 O45 1.251 . S
C41 O47 1.263 . S
Tb42 O44 2.343 . S
Tb42 O47 2.353 . S
Tb42 O50 2.427 . S
Tb42 O51 2.513 . S
Tb42 O52 2.453 . S
Tb42 O53 2.596 . S
Tb42 O54 2.374 . S
O43 Tb40 2.453 . S
O43 C59 1.245 . S
O44 Tb40 2.596 . S
O44 Tb42 2.343 . S
O44 C59 1.259 . S
O45 Tb40 2.374 . S
O45 C41 1.251 . S
C46 O50 1.275 . S
C46 O51 1.246 . S
O47 C41 1.263 . S
O47 Tb42 2.353 . S
C48 O52 1.245 . S
C48 O53 1.259 . S
C49 O54 1.250 . S
C49 O55 1.263 . S
O50 Tb42 2.427 . S
O50 C46 1.275 . S
O51 Tb42 2.513 . S
O51 C46 1.246 . S
O52 Tb42 2.453 . S
O52 C48 1.245 . S
O53 Tb40 2.343 . S
O53 Tb42 2.596 . S
O53 C48 1.259 . S
O54 Tb42 2.374 . S
O54 C49 1.250 . S
O55 Tb40 2.353 . S
O55 C49 1.263 . S
C56 O57 1.275 . S
C56 O58 1.246 . S
O57 Tb40 2.427 . S
O57 C56 1.275 . S
O58 Tb40 2.513 . S
O58 C56 1.246 . S
C59 O43 1.245 . S
C59 O44 1.259 . S
P60 O71 1.490 . S
P60 C74 1.812 . S
P60 C80 1.803 1_565 S
P60 C86 1.819 1_565 S
H61 C75 0.941 . S
H62 C76 0.939 . S
H63 C78 0.940 . S
H64 C79 0.938 1_545 S
H65 C81 0.939 . S
H66 C82 0.942 . S
H67 C84 0.940 . S
H68 C85 0.939 . S
H69 C87 0.941 . S
H70 C91 0.939 . S
O71 P60 1.490 . S
H72 C88 0.939 . S
H73 C90 0.940 . S
C74 P60 1.812 . S
C74 C75 1.389 . S
C74 C79 1.391 . S
C75 H61 0.941 . S
C75 C74 1.389 . S
C75 C76 1.397 . S
C76 H62 0.939 . S
C76 C75 1.397 . S
C76 C77 1.378 . S
C77 C76 1.378 . S
C77 C78 1.378 . S
C78 H63 0.940 . S
C78 C77 1.378 . S
C78 C79 1.396 . S
C79 H64 0.938 1_565 S
C79 C74 1.391 . S
C79 C78 1.396 . S
C80 P60 1.803 1_545 S
C80 C81 1.378 . S
C80 C85 1.400 . S
C81 H65 0.939 . S
C81 C80 1.378 . S
C81 C82 1.361 . S
C82 H66 0.942 . S
C82 C81 1.361 . S
C82 C83 1.369 . S
C83 C82 1.369 . S
C83 C84 1.404 . S
C84 H67 0.940 . S
C84 C83 1.404 . S
C84 C85 1.389 . S
C85 H68 0.939 . S
C85 C80 1.400 . S
C85 C84 1.389 . S
C86 P60 1.819 1_545 S
C86 C87 1.391 1_545 S
C86 C91 1.391 . S
C87 H69 0.941 . S
C87 C86 1.391 1_565 S
C87 C88 1.396 . S
C88 H72 0.939 . S
C88 C87 1.396 . S
C88 C89 1.397 1_565 S
C89 C88 1.397 1_545 S
C89 C90 1.385 . S
C90 H73 0.940 . S
C90 C89 1.385 . S
C90 C91 1.388 . S
C91 H70 0.939 . S
C91 C86 1.391 . S
C91 C90 1.388 . S
P92 O103 1.490 . S
P92 C106 1.812 . S
P92 C112 1.803 . S
P92 C118 1.819 . S
H93 C107 0.941 . S
H94 C108 0.939 . S
H95 C110 0.940 . S
H96 C111 0.940 . S
H97 C113 0.939 . S
H98 C114 0.942 . S
H99 C116 0.940 . S
H100 C117 0.939 . S
H101 C119 0.941 . S
H102 C123 0.939 . S
O103 P92 1.490 . S
H104 C120 0.939 . S
H105 C122 0.940 . S
C106 P92 1.812 . S
C106 C107 1.389 . S
C106 C111 1.391 . S
C107 H93 0.941 . S
C107 C106 1.389 . S
C107 C108 1.397 . S
C108 H94 0.939 . S
C108 C107 1.397 . S
C108 C109 1.378 . S
C109 C108 1.378 . S
C109 C110 1.378 . S
C110 H95 0.940 . S
C110 C109 1.378 . S
C110 C111 1.396 . S
C111 H96 0.940 . S
C111 C106 1.391 . S
C111 C110 1.396 . S
C112 P92 1.803 . S
C112 C113 1.378 . S
C112 C117 1.400 . S
C113 H97 0.939 . S
C113 C112 1.378 . S
C113 C114 1.361 . S
C114 H98 0.942 . S
C114 C113 1.361 . S
C114 C115 1.369 . S
C115 C114 1.369 . S
C115 C116 1.404 . S
C116 H99 0.940 . S
C116 C115 1.404 . S
C116 C117 1.389 . S
C117 H100 0.939 . S
C117 C112 1.400 . S
C117 C116 1.389 . S
C118 P92 1.819 . S
C118 C119 1.391 . S
C118 C123 1.391 . S
C119 H101 0.941 . S
C119 C118 1.391 . S
C119 C120 1.396 . S
C120 H104 0.939 . S
C120 C119 1.396 . S
C120 C121 1.397 . S
C121 C120 1.397 . S
C121 C122 1.385 . S
C122 H105 0.940 . S
C122 C121 1.385 . S
C122 C123 1.388 . S
C123 H102 0.939 . S
C123 C118 1.391 . S
C123 C122 1.388 . S
P124 O135 1.490 . S
P124 C138 1.812 . S
P124 C144 1.803 . S
P124 C150 1.819 . S
H125 C139 0.941 . S
H126 C140 0.939 . S
H127 C142 0.940 . S
H128 C143 0.940 . S
H129 C145 0.939 . S
H130 C146 0.942 . S
H131 C148 0.940 . S
H132 C149 0.939 . S
H133 C151 0.941 . S
H134 C155 0.939 . S
O135 P124 1.490 . S
H136 C152 0.939 . S
H137 C154 0.940 1_655 S
C138 P124 1.812 . S
C138 C139 1.389 . S
C138 C143 1.391 . S
C139 H125 0.941 . S
C139 C138 1.389 . S
C139 C140 1.397 . S
C140 H126 0.939 . S
C140 C139 1.397 . S
C140 C141 1.378 . S
C141 C140 1.378 . S
C141 C142 1.378 . S
C142 H127 0.940 . S
C142 C141 1.378 . S
C142 C143 1.396 . S
C143 H128 0.940 . S
C143 C138 1.391 . S
C143 C142 1.396 . S
C144 P124 1.803 . S
C144 C145 1.378 . S
C144 C149 1.400 . S
C145 H129 0.939 . S
C145 C144 1.378 . S
C145 C146 1.361 1_455 S
C146 H130 0.942 . S
C146 C145 1.361 1_655 S
C146 C147 1.369 . S
C147 C146 1.369 . S
C147 C148 1.404 . S
C148 H131 0.940 . S
C148 C147 1.404 . S
C148 C149 1.389 1_655 S
C149 H132 0.939 . S
C149 C144 1.400 . S
C149 C148 1.389 1_455 S
C150 P124 1.819 . S
C150 C151 1.391 . S
C150 C155 1.391 . S
C151 H133 0.941 . S
C151 C150 1.391 . S
C151 C152 1.396 . S
C152 H136 0.939 . S
C152 C151 1.396 . S
C152 C153 1.397 . S
C153 C152 1.397 . S
C153 C154 1.385 . S
C154 H137 0.940 1_455 S
C154 C153 1.385 . S
C154 C155 1.388 . S
C155 H134 0.939 . S
C155 C150 1.391 . S
C155 C154 1.388 . S
P156 O167 1.490 . S
P156 C170 1.812 . S
P156 C176 1.803 1_455 S
P156 C182 1.819 . S
H157 C171 0.941 . S
H158 C172 0.939 . S
H159 C174 0.940 . S
H160 C175 0.940 . S
H161 C177 0.939 . S
H162 C178 0.942 . S
H163 C180 0.940 . S
H164 C181 0.939 . S
H165 C183 0.941 . S
H166 C187 0.939 . S
O167 P156 1.490 . S
H168 C184 0.939 . S
H169 C186 0.940 . S
C170 P156 1.812 . S
C170 C171 1.389 . S
C170 C175 1.391 . S
C171 H157 0.941 . S
C171 C170 1.389 . S
C171 C172 1.397 . S
C172 H158 0.939 . S
C172 C171 1.397 . S
C172 C173 1.378 . S
C173 C172 1.378 . S
C173 C174 1.378 . S
C174 H159 0.940 . S
C174 C173 1.378 . S
C174 C175 1.396 . S
C175 H160 0.940 . S
C175 C170 1.391 . S
C175 C174 1.396 . S
C176 P156 1.803 1_655 S
C176 C177 1.378 . S
C176 C181 1.400 . S
C177 H161 0.939 . S
C177 C176 1.378 . S
C177 C178 1.361 . S
C178 H162 0.942 . S
C178 C177 1.361 . S
C178 C179 1.369 . S
C179 C178 1.369 . S
C179 C180 1.404 . S
C180 H163 0.940 . S
C180 C179 1.404 . S
C180 C181 1.389 . S
C181 H164 0.939 . S
C181 C176 1.400 . S
C181 C180 1.389 . S
C182 P156 1.819 . S
C182 C183 1.391 . S
C182 C187 1.391 1_455 S
C183 H165 0.941 . S
C183 C182 1.391 . S
C183 C184 1.396 . S
C184 H168 0.939 . S
C184 C183 1.396 . S
C184 C185 1.397 . S
C185 C184 1.397 . S
C185 C186 1.385 1_455 S
C186 H169 0.940 . S
C186 C185 1.385 1_655 S
C186 C187 1.388 . S
C187 H166 0.939 . S
C187 C182 1.391 1_655 S
C187 C186 1.388 . S
P188 O199 1.490 . S
P188 C202 1.812 . S
P188 C208 1.803 1_545 S
P188 C214 1.819 . S
H189 C203 0.941 . S
H190 C204 0.939 . S
H191 C206 0.940 . S
H192 C207 0.940 . S
H193 C209 0.939 . S
H194 C210 0.942 . S
H195 C212 0.940 . S
H196 C213 0.939 . S
H197 C215 0.941 . S
H198 C219 0.939 . S
O199 P188 1.490 . S
H200 C216 0.939 . S
H201 C218 0.940 . S
C202 P188 1.812 . S
C202 C203 1.389 . S
C202 C207 1.391 . S
C203 H189 0.941 . S
C203 C202 1.389 . S
C203 C204 1.397 . S
C204 H190 0.939 . S
C204 C203 1.397 . S
C204 C205 1.378 . S
C205 C204 1.378 . S
C205 C206 1.378 . S
C206 H191 0.940 . S
C206 C205 1.378 . S
C206 C207 1.396 . S
C207 H192 0.940 . S
C207 C202 1.391 . S
C207 C206 1.396 . S
C208 P188 1.803 1_565 S
C208 C209 1.378 . S
C208 C213 1.400 . S
C209 H193 0.939 . S
C209 C208 1.378 . S
C209 C210 1.361 . S
C210 H194 0.942 . S
C210 C209 1.361 . S
C210 C211 1.369 . S
C211 C210 1.369 . S
C211 C212 1.404 . S
C212 H195 0.940 . S
C212 C211 1.404 . S
C212 C213 1.389 . S
C213 H196 0.939 . S
C213 C208 1.400 . S
C213 C212 1.389 . S
C214 P188 1.819 . S
C214 C215 1.391 . S
C214 C219 1.391 1_545 S
C215 H197 0.941 . S
C215 C214 1.391 . S
C215 C216 1.396 . S
C216 H200 0.939 . S
C216 C215 1.396 . S
C216 C217 1.397 . S
C217 C216 1.397 . S
C217 C218 1.385 1_545 S
C218 H201 0.940 . S
C218 C217 1.385 1_565 S
C218 C219 1.388 . S
C219 H198 0.939 . S
C219 C214 1.391 1_565 S
C219 C218 1.388 . S
P220 O231 1.490 . S
P220 C234 1.812 . S
P220 C240 1.803 . S
P220 C246 1.819 . S
H221 C235 0.941 . S
H222 C236 0.939 . S
H223 C238 0.940 . S
H224 C239 0.940 . S
H225 C241 0.939 . S
H226 C242 0.942 . S
H227 C244 0.940 . S
H228 C245 0.939 . S
H229 C247 0.941 . S
H230 C251 0.939 . S
O231 P220 1.490 . S
H232 C248 0.939 . S
H233 C250 0.940 . S
C234 P220 1.812 . S
C234 C235 1.389 . S
C234 C239 1.391 . S
C235 H221 0.941 . S
C235 C234 1.389 . S
C235 C236 1.397 . S
C236 H222 0.939 . S
C236 C235 1.397 . S
C236 C237 1.378 . S
C237 C236 1.378 . S
C237 C238 1.378 . S
C238 H223 0.940 . S
C238 C237 1.378 . S
C238 C239 1.396 . S
C239 H224 0.940 . S
C239 C234 1.391 . S
C239 C238 1.396 . S
C240 P220 1.803 . S
C240 C241 1.378 . S
C240 C245 1.400 . S
C241 H225 0.939 . S
C241 C240 1.378 . S
C241 C242 1.361 . S
C242 H226 0.942 . S
C242 C241 1.361 . S
C242 C243 1.369 . S
C243 C242 1.369 . S
C243 C244 1.404 . S
C244 H227 0.940 . S
C244 C243 1.404 . S
C244 C245 1.389 . S
C245 H228 0.939 . S
C245 C240 1.400 . S
C245 C244 1.389 . S
C246 P220 1.819 . S
C246 C247 1.391 . S
C246 C251 1.391 . S
C247 H229 0.941 . S
C247 C246 1.391 . S
C247 C248 1.396 . S
C248 H232 0.939 . S
C248 C247 1.396 . S
C248 C249 1.397 . S
C249 C248 1.397 . S
C249 C250 1.385 . S
C250 H233 0.940 . S
C250 C249 1.385 . S
C250 C251 1.388 . S
C251 H230 0.939 . S
C251 C246 1.391 . S
C251 C250 1.388 . S
C252 C253 1.363 . S
C252 C258 1.379 . S
C252 N260 1.356 . S
C253 C252 1.363 . S
C253 C259 1.363 . S
C254 C255 1.363 . S
C254 C259 1.379 . S
C254 N261 1.356 . S
C255 C254 1.363 . S
C255 C258 1.363 . S
N256 C258 1.356 . S
N256 H268 0.984 . S
N256 H269 0.985 . S
N257 C259 1.356 . S
N257 H262 0.984 . S
N257 H263 0.985 . S
C258 C252 1.379 . S
C258 C255 1.363 . S
C258 N256 1.356 . S
C259 C253 1.363 . S
C259 C254 1.379 . S
C259 N257 1.356 . S
N260 C252 1.356 . S
N260 H266 0.984 . S
N260 H267 0.984 . S
N261 C254 1.356 . S
N261 H264 0.984 . S
N261 H265 0.985 . S
H262 N257 0.984 . S
H263 N257 0.985 . S
H264 N261 0.984 . S
H265 N261 0.985 . S
H266 N260 0.984 . S
H267 N260 0.984 . S
H268 N256 0.984 . S
H269 N256 0.985 . S
C270 C271 1.363 . S
C270 C276 1.379 . S
C270 N278 1.356 . S
C271 C270 1.363 . S
C271 C277 1.363 . S
C272 C273 1.363 . S
C272 C277 1.379 . S
C272 N279 1.356 . S
C273 C272 1.363 . S
C273 C276 1.363 . S
N274 C276 1.356 . S
N274 H286 0.984 . S
N274 H287 0.985 . S
N275 C277 1.356 . S
N275 H280 0.984 . S
N275 H281 0.985 . S
C276 C270 1.379 . S
C276 C273 1.363 . S
C276 N274 1.356 . S
C277 C271 1.363 . S
C277 C272 1.379 . S
C277 N275 1.356 . S
N278 C270 1.356 . S
N278 H284 0.984 . S
N278 H285 0.984 . S
N279 C272 1.356 . S
N279 H282 0.984 . S
N279 H283 0.985 . S
H280 N275 0.984 . S
H281 N275 0.985 . S
H282 N279 0.984 . S
H283 N279 0.985 . S
H284 N278 0.984 . S
H285 N278 0.984 . S
H286 N274 0.984 . S
H287 N274 0.985 . S
C288 C289 1.363 . S
C288 C294 1.379 . S
C288 N296 1.356 . S
C289 C288 1.363 . S
C289 C295 1.363 . S
C290 C291 1.363 . S
C290 C295 1.379 . S
C290 N297 1.356 . S
C291 C290 1.363 . S
C291 C294 1.363 . S
N292 C294 1.356 . S
N292 H304 0.984 . S
N292 H305 0.985 . S
N293 C295 1.356 . S
N293 H298 0.984 . S
N293 H299 0.985 . S
C294 C288 1.379 . S
C294 C291 1.363 . S
C294 N292 1.356 . S
C295 C289 1.363 . S
C295 C290 1.379 . S
C295 N293 1.356 . S
N296 C288 1.356 . S
N296 H302 0.984 . S
N296 H303 0.984 . S
N297 C290 1.356 . S
N297 H300 0.984 . S
N297 H301 0.985 . S
H298 N293 0.984 . S
H299 N293 0.985 . S
H300 N297 0.984 . S
H301 N297 0.985 . S
H302 N296 0.984 . S
H303 N296 0.984 . S
H304 N292 0.984 . S
H305 N292 0.985 . S
C306 C307 1.363 . S
C306 C312 1.379 . S
C306 N314 1.356 . S
C307 C306 1.363 . S
C307 C313 1.363 . S
C308 C309 1.363 . S
C308 C313 1.379 . S
C308 N315 1.356 . S
C309 C308 1.363 . S
C309 C312 1.363 . S
N310 C312 1.356 . S
N310 H322 0.984 . S
N310 H323 0.985 . S
N311 C313 1.356 . S
N311 H316 0.984 . S
N311 H317 0.985 . S
C312 C306 1.379 . S
C312 C309 1.363 . S
C312 N310 1.356 . S
C313 C307 1.363 . S
C313 C308 1.379 . S
C313 N311 1.356 . S
N314 C306 1.356 . S
N314 H320 0.984 . S
N314 H321 0.984 . S
N315 C308 1.356 . S
N315 H318 0.984 . S
N315 H319 0.985 . S
H316 N311 0.984 . S
H317 N311 0.985 . S
H318 N315 0.984 . S
H319 N315 0.985 . S
H320 N314 0.984 . S
H321 N314 0.984 . S
H322 N310 0.984 . S
H323 N310 0.985 . S
C324 C325 1.363 . S
C324 C330 1.379 . S
C324 N332 1.356 . S
C325 C324 1.363 . S
C325 C331 1.363 . S
C326 C327 1.363 . S
C326 C331 1.379 . S
C326 N333 1.356 . S
C327 C326 1.363 . S
C327 C330 1.363 . S
N328 C330 1.356 . S
N328 H340 0.984 . S
N328 H341 0.985 . S
N329 C331 1.356 . S
N329 H334 0.984 . S
N329 H335 0.985 . S
C330 C324 1.379 . S
C330 C327 1.363 . S
C330 N328 1.356 . S
C331 C325 1.363 . S
C331 C326 1.379 . S
C331 N329 1.356 . S
N332 C324 1.356 . S
N332 H338 0.984 . S
N332 H339 0.984 . S
N333 C326 1.356 . S
N333 H336 0.984 . S
N333 H337 0.985 . S
H334 N329 0.984 . S
H335 N329 0.985 . S
H336 N333 0.984 . S
H337 N333 0.985 . S
H338 N332 0.984 . S
H339 N332 0.984 . S
H340 N328 0.984 . S
H341 N328 0.985 . S
C342 C343 1.363 . S
C342 C348 1.379 . S
C342 N350 1.356 . S
C343 C342 1.363 . S
C343 C349 1.363 . S
C344 C345 1.363 . S
C344 C349 1.379 . S
C344 N351 1.356 . S
C345 C344 1.363 . S
C345 C348 1.363 . S
N346 C348 1.356 . S
N346 H358 0.984 . S
N346 H359 0.985 . S
N347 C349 1.356 . S
N347 H352 0.984 . S
N347 H353 0.985 . S
C348 C342 1.379 . S
C348 C345 1.363 . S
C348 N346 1.356 . S
C349 C343 1.363 . S
C349 C344 1.379 . S
C349 N347 1.356 . S
N350 C342 1.356 . S
N350 H356 0.984 . S
N350 H357 0.984 . S
N351 C344 1.356 . S
N351 H354 0.984 . S
N351 H355 0.985 . S
H352 N347 0.984 . S
H353 N347 0.985 . S
H354 N351 0.984 . S
H355 N351 0.985 . S
H356 N350 0.984 . S
H357 N350 0.984 . S
H358 N346 0.984 . S
H359 N346 0.985 . S
C360 C361 1.363 . S
C360 C366 1.379 . S
C360 N368 1.356 . S
C361 C360 1.363 . S
C361 C367 1.363 . S
C362 C363 1.363 . S
C362 C367 1.379 . S
C362 N369 1.356 . S
C363 C362 1.363 . S
C363 C366 1.363 . S
N364 C366 1.356 . S
N364 H376 0.984 . S
N364 H377 0.985 . S
N365 C367 1.356 . S
N365 H370 0.984 . S
N365 H371 0.985 . S
C366 C360 1.379 . S
C366 C363 1.363 . S
C366 N364 1.356 . S
C367 C361 1.363 . S
C367 C362 1.379 . S
C367 N365 1.356 . S
N368 C360 1.356 . S
N368 H374 0.984 . S
N368 H375 0.984 . S
N369 C362 1.356 . S
N369 H372 0.984 . S
N369 H373 0.985 . S
H370 N365 0.984 . S
H371 N365 0.985 . S
H372 N369 0.984 . S
H373 N369 0.985 . S
H374 N368 0.984 . S
H375 N368 0.984 . S
H376 N364 0.984 . S
H377 N364 0.985 . S
C378 C379 1.363 . S
C378 C384 1.379 . S
C378 N386 1.356 . S
C379 C378 1.363 . S
C379 C385 1.363 . S
C380 C381 1.363 . S
C380 C385 1.379 . S
C380 N387 1.356 . S
C381 C380 1.363 . S
C381 C384 1.363 . S
N382 C384 1.356 . S
N382 H394 0.984 . S
N382 H395 0.985 . S
N383 C385 1.356 . S
N383 H388 0.984 . S
N383 H389 0.985 . S
C384 C378 1.379 . S
C384 C381 1.363 . S
C384 N382 1.356 . S
C385 C379 1.363 . S
C385 C380 1.379 . S
C385 N383 1.356 . S
N386 C378 1.356 . S
N386 H392 0.984 . S
N386 H393 0.984 . S
N387 C380 1.356 . S
N387 H390 0.984 . S
N387 H391 0.985 . S
H388 N383 0.984 . S
H389 N383 0.985 . S
H390 N387 0.984 . S
H391 N387 0.985 . S
H392 N386 0.984 . S
H393 N386 0.984 . S
H394 N382 0.984 . S
H395 N382 0.985 . S
C396 C397 1.363 . S
C396 C402 1.379 . S
C396 N404 1.356 . S
C397 C396 1.363 . S
C397 C403 1.363 . S
C398 C399 1.363 . S
C398 C403 1.379 . S
C398 N405 1.356 . S
C399 C398 1.363 . S
C399 C402 1.363 . S
N400 C402 1.356 . S
N400 H412 0.984 . S
N400 H413 0.985 . S
N401 C403 1.356 . S
N401 H406 0.984 . S
N401 H407 0.985 . S
C402 C396 1.379 . S
C402 C399 1.363 . S
C402 N400 1.356 . S
C403 C397 1.363 . S
C403 C398 1.379 . S
C403 N401 1.356 . S
N404 C396 1.356 . S
N404 H410 0.984 . S
N404 H411 0.984 . S
N405 C398 1.356 . S
N405 H408 0.984 . S
N405 H409 0.985 . S
H406 N401 0.984 . S
H407 N401 0.985 . S
H408 N405 0.984 . S
H409 N405 0.985 . S
H410 N404 0.984 . S
H411 N404 0.984 . S
H412 N400 0.984 . S
H413 N400 0.985 . S
C414 C415 1.363 . S
C414 C420 1.379 . S
C414 N422 1.356 . S
C415 C414 1.363 . S
C415 C421 1.363 . S
C416 C417 1.363 . S
C416 C421 1.379 . S
C416 N423 1.356 . S
C417 C416 1.363 . S
C417 C420 1.363 . S
N418 C420 1.356 . S
N418 H430 0.984 . S
N418 H431 0.985 . S
N419 C421 1.356 . S
N419 H424 0.984 . S
N419 H425 0.985 . S
C420 C414 1.379 . S
C420 C417 1.363 . S
C420 N418 1.356 . S
C421 C415 1.363 . S
C421 C416 1.379 . S
C421 N419 1.356 . S
N422 C414 1.356 . S
N422 H428 0.984 . S
N422 H429 0.984 . S
N423 C416 1.356 . S
N423 H426 0.984 . S
N423 H427 0.985 . S
H424 N419 0.984 . S
H425 N419 0.985 . S
H426 N423 0.984 . S
H427 N423 0.985 . S
H428 N422 0.984 . S
H429 N422 0.984 . S
H430 N418 0.984 . S
H431 N418 0.985 . S
C432 C433 1.363 . S
C432 C438 1.379 . S
C432 N440 1.356 . S
C433 C432 1.363 . S
C433 C439 1.363 . S
C434 C435 1.363 . S
C434 C439 1.379 . S
C434 N441 1.356 . S
C435 C434 1.363 . S
C435 C438 1.363 . S
N436 C438 1.356 . S
N436 H448 0.984 . S
N436 H449 0.985 . S
N437 C439 1.356 . S
N437 H442 0.984 . S
N437 H443 0.985 . S
C438 C432 1.379 . S
C438 C435 1.363 . S
C438 N436 1.356 . S
C439 C433 1.363 . S
C439 C434 1.379 . S
C439 N437 1.356 . S
N440 C432 1.356 . S
N440 H446 0.984 . S
N440 H447 0.984 . S
N441 C434 1.356 . S
N441 H444 0.984 . S
N441 H445 0.985 . S
H442 N437 0.984 . S
H443 N437 0.985 . S
H444 N441 0.984 . S
H445 N441 0.985 . S
H446 N440 0.984 . S
H447 N440 0.984 . S
H448 N436 0.984 . S
H449 N436 0.985 . S
C450 C451 1.363 . S
C450 C456 1.379 . S
C450 N458 1.356 . S
C451 C450 1.363 . S
C451 C457 1.363 . S
C452 C453 1.363 . S
C452 C457 1.379 . S
C452 N459 1.356 . S
C453 C452 1.363 . S
C453 C456 1.363 . S
N454 C456 1.356 . S
N454 H466 0.984 . S
N454 H467 0.985 . S
N455 C457 1.356 . S
N455 H460 0.984 . S
N455 H461 0.985 . S
C456 C450 1.379 . S
C456 C453 1.363 . S
C456 N454 1.356 . S
C457 C451 1.363 . S
C457 C452 1.379 . S
C457 N455 1.356 . S
N458 C450 1.356 . S
N458 H464 0.984 . S
N458 H465 0.984 . S
N459 C452 1.356 . S
N459 H462 0.984 . S
N459 H463 0.985 . S
H460 N455 0.984 . S
H461 N455 0.985 . S
H462 N459 0.984 . S
H463 N459 0.985 . S
H464 N458 0.984 . S
H465 N458 0.984 . S
H466 N454 0.984 . S
H467 N454 0.985 . S
C468 C469 1.363 . S
C468 C474 1.379 . S
C468 N476 1.356 1_455 S
C469 C468 1.363 . S
C469 C475 1.363 . S
C470 C471 1.363 . S
C470 C475 1.379 . S
C470 N477 1.356 . S
C471 C470 1.363 . S
C471 C474 1.363 . S
N472 C474 1.356 1_655 S
N472 H484 0.984 . S
N472 H485 0.985 1_554 S
N473 C475 1.356 . S
N473 H478 0.984 . S
N473 H479 0.985 . S
C474 C468 1.379 . S
C474 C471 1.363 . S
C474 N472 1.356 1_455 S
C475 C469 1.363 . S
C475 C470 1.379 . S
C475 N473 1.356 . S
N476 C468 1.356 1_655 S
N476 H482 0.984 . S
N476 H483 0.984 . S
N477 C470 1.356 . S
N477 H480 0.984 1_554 S
N477 H481 0.985 . S
H478 N473 0.984 . S
H479 N473 0.985 . S
H480 N477 0.984 1_556 S
H481 N477 0.985 . S
H482 N476 0.984 . S
H483 N476 0.984 . S
H484 N472 0.984 . S
H485 N472 0.985 1_556 S
C486 C487 1.363 . S
C486 C492 1.379 . S
C486 N494 1.356 . S
C487 C486 1.363 . S
C487 C493 1.363 . S
C488 C489 1.363 . S
C488 C493 1.379 . S
C488 N495 1.356 1_545 S
C489 C488 1.363 . S
C489 C492 1.363 . S
N490 C492 1.356 . S
N490 H502 0.984 . S
N490 H503 0.985 . S
N491 C493 1.356 1_565 S
N491 H496 0.984 . S
N491 H497 0.985 . S
C492 C486 1.379 . S
C492 C489 1.363 . S
C492 N490 1.356 . S
C493 C487 1.363 . S
C493 C488 1.379 . S
C493 N491 1.356 1_545 S
N494 C486 1.356 . S
N494 H500 0.984 . S
N494 H501 0.984 . S
N495 C488 1.356 1_565 S
N495 H498 0.984 . S
N495 H499 0.985 . S
H496 N491 0.984 . S
H497 N491 0.985 . S
H498 N495 0.984 . S
H499 N495 0.985 . S
H500 N494 0.984 . S
H501 N494 0.984 . S
H502 N490 0.984 . S
H503 N490 0.985 . S
C504 C505 1.363 . S
C504 C510 1.379 . S
C504 N512 1.356 . S
C505 C504 1.363 . S
C505 C511 1.363 . S
C506 C507 1.363 . S
C506 C511 1.379 . S
C506 N513 1.356 . S
C507 C506 1.363 . S
C507 C510 1.363 . S
N508 C510 1.356 . S
N508 H520 0.984 . S
N508 H521 0.985 . S
N509 C511 1.356 . S
N509 H514 0.984 . S
N509 H515 0.985 . S
C510 C504 1.379 . S
C510 C507 1.363 . S
C510 N508 1.356 . S
C511 C505 1.363 . S
C511 C506 1.379 . S
C511 N509 1.356 . S
N512 C504 1.356 . S
N512 H518 0.984 . S
N512 H519 0.984 . S
N513 C506 1.356 . S
N513 H516 0.984 . S
N513 H517 0.985 . S
H514 N509 0.984 . S
H515 N509 0.985 . S
H516 N513 0.984 . S
H517 N513 0.985 . S
H518 N512 0.984 . S
H519 N512 0.984 . S
H520 N508 0.984 . S
H521 N508 0.985 . S
C522 C523 1.363 1_565 S
C522 C528 1.379 . S
C522 N530 1.356 . S
C523 C522 1.363 1_545 S
C523 C529 1.363 . S
C524 C525 1.363 . S
C524 C529 1.379 . S
C524 N531 1.356 . S
C525 C524 1.363 . S
C525 C528 1.363 1_545 S
N526 C528 1.356 . S
N526 H538 0.984 . S
N526 H539 0.985 . S
N527 C529 1.356 . S
N527 H532 0.984 . S
N527 H533 0.985 . S
C528 C522 1.379 . S
C528 C525 1.363 1_565 S
C528 N526 1.356 . S
C529 C523 1.363 . S
C529 C524 1.379 . S
C529 N527 1.356 . S
N530 C522 1.356 . S
N530 H536 0.984 . S
N530 H537 0.984 . S
N531 C524 1.356 . S
N531 H534 0.984 . S
N531 H535 0.985 . S
H532 N527 0.984 . S
H533 N527 0.985 . S
H534 N531 0.984 . S
H535 N531 0.985 . S
H536 N530 0.984 . S
H537 N530 0.984 . S
H538 N526 0.984 . S
H539 N526 0.985 . S
C540 C541 1.363 . S
C540 C546 1.379 . S
C540 N548 1.356 . S
C541 C540 1.363 . S
C541 C547 1.363 . S
C542 C543 1.363 . S
C542 C547 1.379 . S
C542 N549 1.356 . S
C543 C542 1.363 . S
C543 C546 1.363 . S
N544 C546 1.356 1_554 S
N544 H556 0.984 . S
N544 H557 0.985 . S
N545 C547 1.356 . S
N545 H550 0.984 . S
N545 H551 0.985 . S
C546 C540 1.379 . S
C546 C543 1.363 . S
C546 N544 1.356 1_556 S
C547 C541 1.363 . S
C547 C542 1.379 . S
C547 N545 1.356 . S
N548 C540 1.356 . S
N548 H554 0.984 . S
N548 H555 0.984 . S
N549 C542 1.356 . S
N549 H552 0.984 1_556 S
N549 H553 0.985 . S
H550 N545 0.984 . S
H551 N545 0.985 . S
H552 N549 0.984 1_554 S
H553 N549 0.985 . S
H554 N548 0.984 . S
H555 N548 0.984 . S
H556 N544 0.984 . S
H557 N544 0.985 . S
C558 C559 1.363 . S
C558 C564 1.379 . S
C558 N566 1.356 . S
C559 C558 1.363 . S
C559 C565 1.363 1_455 S
C560 C561 1.363 1_655 S
C560 C565 1.379 . S
C560 N567 1.356 . S
C561 C560 1.363 1_455 S
C561 C564 1.363 . S
N562 C564 1.356 . S
N562 H574 0.984 . S
N562 H575 0.985 . S
N563 C565 1.356 . S
N563 H568 0.984 . S
N563 H569 0.985 . S
C564 C558 1.379 . S
C564 C561 1.363 . S
C564 N562 1.356 . S
C565 C559 1.363 1_655 S
C565 C560 1.379 . S
C565 N563 1.356 . S
N566 C558 1.356 . S
N566 H572 0.984 . S
N566 H573 0.984 . S
N567 C560 1.356 . S
N567 H570 0.984 . S
N567 H571 0.985 . S
H568 N563 0.984 . S
H569 N563 0.985 . S
H570 N567 0.984 . S
H571 N567 0.985 . S
H572 N566 0.984 . S
H573 N566 0.984 . S
H574 N562 0.984 . S
H575 N562 0.985 . S
C253 C8 1.981 . S
C255 C243 2.032 . S
C271 C26 1.389 . S
C273 C179 1.356 . S
C289 C48 1.545 . S
C291 C211 1.566 . S
C307 C19 1.894 . S
C309 C237 1.924 . S
C327 C173 1.463 . S
C325 C36 1.483 . S
C345 C205 1.708 . S
C343 C59 1.695 . S
C361 C28 1.564 . S
C363 C115 1.588 . S
C379 C46 1.215 . S
C381 C147 1.228 . S
C397 C16 1.537 . S
C399 C77 1.502 . S
C417 C109 1.689 . S
C415 C39 1.682 . S
C435 C141 1.078 . S
C433 C56 1.073 . S
C451 C6 1.454 . S
C453 C83 1.379 . S
C471 C153 1.435 1_554 S
C469 C9 1.412 . S
C487 C21 1.503 . S
C489 C89 1.469 . S
C505 C49 1.473 . S
C507 C121 1.451 . S
C525 C217 1.442 . S
C523 C29 1.470 . S
C543 C249 1.567 1_556 S
C541 C41 1.567 . S
C559 C1 1.498 . S
C561 C185 1.469 . S
