# Generated by pormake.
# Topology anh, (6,3)-cn, num edge types: 1
# Building blocks:
#     Node 0, Type 0, BuildingBlock: PAMTOO_clean_sbu_0, # of connection points: 6
#     Node 1, Type 0, BuildingBlock: PAMTOO_clean_sbu_0, # of connection points: 6
#     Node 2, Type 0, BuildingBlock: PAMTOO_clean_sbu_0, # of connection points: 6
#     Node 3, Type 1, BuildingBlock: BELTOD_clean_linker_0, # of connection points: 3
#     Node 4, Type 1, BuildingBlock: BELTOD_clean_linker_0, # of connection points: 3
#     Node 5, Type 1, BuildingBlock: BELTOD_clean_linker_0, # of connection points: 3
#     Node 6, Type 1, BuildingBlock: BELTOD_clean_linker_0, # of connection points: 3
#     Node 7, Type 1, BuildingBlock: BELTOD_clean_linker_0, # of connection points: 3
#     Node 8, Type 1, BuildingBlock: BELTOD_clean_linker_0, # of connection points: 3
#     Edge 9, Type (0, 1), BuildingBlock: KIFKEQ_clean_linker_1, # of connection points: 2
#     Edge 10, Type (0, 1), BuildingBlock: KIFKEQ_clean_linker_1, # of connection points: 2
#     Edge 11, Type (0, 1), BuildingBlock: KIFKEQ_clean_linker_1, # of connection points: 2
#     Edge 12, Type (0, 1), BuildingBlock: KIFKEQ_clean_linker_1, # of connection points: 2
#     Edge 13, Type (0, 1), BuildingBlock: KIFKEQ_clean_linker_1, # of connection points: 2
#     Edge 14, Type (0, 1), BuildingBlock: KIFKEQ_clean_linker_1, # of connection points: 2
#     Edge 15, Type (0, 1), BuildingBlock: KIFKEQ_clean_linker_1, # of connection points: 2
#     Edge 16, Type (0, 1), BuildingBlock: KIFKEQ_clean_linker_1, # of connection points: 2
#     Edge 17, Type (0, 1), BuildingBlock: KIFKEQ_clean_linker_1, # of connection points: 2
#     Edge 18, Type (0, 1), BuildingBlock: KIFKEQ_clean_linker_1, # of connection points: 2
#     Edge 19, Type (0, 1), BuildingBlock: KIFKEQ_clean_linker_1, # of connection points: 2
#     Edge 20, Type (0, 1), BuildingBlock: KIFKEQ_clean_linker_1, # of connection points: 2
#     Edge 21, Type (0, 1), BuildingBlock: KIFKEQ_clean_linker_1, # of connection points: 2
#     Edge 22, Type (0, 1), BuildingBlock: KIFKEQ_clean_linker_1, # of connection points: 2
#     Edge 23, Type (0, 1), BuildingBlock: KIFKEQ_clean_linker_1, # of connection points: 2
#     Edge 24, Type (0, 1), BuildingBlock: KIFKEQ_clean_linker_1, # of connection points: 2
#     Edge 25, Type (0, 1), BuildingBlock: KIFKEQ_clean_linker_1, # of connection points: 2
#     Edge 26, Type (0, 1), BuildingBlock: KIFKEQ_clean_linker_1, # of connection points: 2
# Relax obj value: 0.176
# Max RMSD: 0.192
# Mean RMSD: 0.148
data_MOF--net-anh--node1-PAMTOO_clean_sbu_0--node2-BELTOD_clean_linker_0--edge1-KIFKEQ_clean_linker_1
_symmetry_space_group_name_H-M    P1
_symmetry_Int_Tables_number       1
_symmetry_cell_setting            triclinic
loop_
_symmetry_equiv_pos_as_xyz
'x, y, z'
_cell_length_a     35.406191
_cell_length_b     33.902338
_cell_length_c     62.036649
_cell_angle_alpha  89.991327
_cell_angle_beta   95.735507
_cell_angle_gamma 106.10604
loop_
_atom_site_label
_atom_site_type_symbol
_atom_site_fract_x
_atom_site_fract_y
_atom_site_fract_z
_atom_type_partial_charge
Dy0 Dy 1.03826 0.60442 0.1461 0.0
Dy1 Dy 1.00869 0.50502 0.13648 0.0
C2 C 1.01866 0.56768 0.09886 0.0
O3 O 0.97277 0.5883 0.15064 0.0
O4 O 0.95234 0.52473 0.13341 0.0
O5 O 0.0628 0.66439 0.13355 0.0
O6 O 0.04843 0.65858 0.16678 0.0
O7 O 1.00349 0.51618 0.1714 0.0
O8 O 0.05406 0.57489 0.17642 0.0
O9 O 0.07547 0.51837 0.14127 0.0
O10 O 0.09369 0.58859 0.13812 0.0
O11 O 1.00999 0.44378 0.14517 0.0
O12 O 0.97165 0.45269 0.11721 0.0
C13 C 0.94413 0.5566 0.14206 0.0
O14 O 1.00888 0.59167 0.11246 0.0
O15 O 1.02838 0.53493 0.10578 0.0
C16 C 0.10519 0.71224 0.15917 0.0
C17 C 0.18116 0.76649 0.17088 0.0
C18 C 0.16277 0.76512 0.14964 0.0
C19 C 0.12517 0.73849 0.1439 0.0
C20 C 0.12328 0.71397 0.18053 0.0
C21 C 0.16083 0.74093 0.18633 0.0
C22 C 0.06607 0.68308 0.15231 0.0
C23 C 1.03061 0.54234 0.18423 0.0
C24 C 0.10289 0.55336 0.13931 0.0
C25 C 0.94742 0.39522 0.13852 0.0
C26 C 0.88305 0.33546 0.15343 0.0
C27 C 0.90321 0.37069 0.16627 0.0
C28 C 0.93488 0.40033 0.15885 0.0
C29 C 0.92742 0.36035 0.1256 0.0
C30 C 0.89551 0.33079 0.13294 0.0
C31 C 0.98087 0.42632 0.1306 0.0
H32 H 0.17742 0.78483 0.13745 0.0
H33 H 0.11181 0.73814 0.12737 0.0
H34 H 0.10871 0.69422 0.19273 0.0
H35 H 0.17435 0.7411 0.2028 0.0
H36 H 0.89496 0.37518 0.18223 0.0
H37 H 0.9497 0.42716 0.16907 0.0
H38 H 0.93641 0.35603 0.10978 0.0
H39 H 0.88038 0.30449 0.12243 0.0
Dy40 Dy 0.51791 0.00221 0.52181 0.0
Dy41 Dy 0.61544 0.03117 0.5256 0.0
C42 C 0.56912 0.0131 0.56723 0.0
O43 O 0.53314 0.07062 0.51854 0.0
O44 O 0.59867 0.08836 0.53236 0.0
O45 O 0.46347 0.97443 0.53554 0.0
O46 O 0.46181 0.99629 0.50277 0.0
O47 O 0.59262 0.04594 0.49272 0.0
O48 O 0.5379 0.99128 0.48979 0.0
O49 O 0.59842 0.96341 0.51816 0.0
O50 O 0.53566 0.94478 0.5288 0.0
O51 O 0.66951 0.03235 0.51205 0.0
O52 O 0.67169 0.06216 0.54326 0.0
C53 C 0.56609 0.0983 0.52587 0.0
O54 O 0.53945 0.02267 0.55617 0.0
O55 O 0.59789 0.00601 0.55746 0.0
C56 C 0.41324 0.93588 0.50997 0.0
C57 C 0.35893 0.86057 0.49525 0.0
C58 C 0.39802 0.86227 0.50322 0.0
C59 C 0.42493 0.89956 0.51041 0.0
C60 C 0.37436 0.93447 0.50213 0.0
C61 C 0.34742 0.89717 0.49482 0.0
C62 C 0.44154 0.97523 0.51745 0.0
C63 C 0.5647 0.01913 0.48071 0.0
C64 C 0.56719 0.9353 0.52355 0.0
C65 C 0.72137 0.09252 0.52098 0.0
C66 C 0.77933 0.16121 0.50794 0.0
C67 C 0.73954 0.15327 0.49927 0.0
C68 C 0.7108 0.11926 0.50577 0.0
C69 C 0.76075 0.10058 0.52991 0.0
C70 C 0.78946 0.13462 0.5235 0.0
C71 C 0.69176 0.05615 0.52766 0.0
H72 H 0.40781 0.83471 0.50412 0.0
H73 H 0.45487 0.9 0.51636 0.0
H74 H 0.36491 0.96227 0.50156 0.0
H75 H 0.31777 0.89713 0.4885 0.0
H76 H 0.73072 0.17281 0.48711 0.0
H77 H 0.68041 0.11358 0.49878 0.0
H78 H 0.76933 0.08044 0.54182 0.0
H79 H 0.81961 0.14017 0.53081 0.0
Dy80 Dy 0.5854 0.4665 0.84821 0.0
Dy81 Dy 0.48923 0.43952 0.83528 0.0
C82 C 0.54839 0.45926 0.79951 0.0
O83 O 0.56909 0.52533 0.85113 0.0
O84 O 0.50835 0.50757 0.83102 0.0
O85 O 0.6387 0.4992 0.86792 0.0
O86 O 0.64144 0.459 0.84123 0.0
O87 O 0.50142 0.46232 0.86991 0.0
O88 O 0.55855 0.44452 0.87848 0.0
O89 O 0.50122 0.37945 0.84314 0.0
O90 O 0.56838 0.399 0.84109 0.0
O91 O 0.42954 0.41771 0.84424 0.0
O92 O 0.43965 0.43292 0.81102 0.0
C93 C 0.53889 0.53532 0.84084 0.0
O94 O 0.57428 0.48301 0.81391 0.0
O95 O 0.51765 0.4316 0.80557 0.0
C96 C 0.69492 0.51745 0.84848 0.0
C97 C 0.75972 0.57501 0.83328 0.0
C98 C 0.72344 0.58421 0.8337 0.0
C99 C 0.69112 0.55547 0.84112 0.0
C100 C 0.73089 0.5081 0.8479 0.0
C101 C 0.76301 0.53657 0.84034 0.0
C102 C 0.66142 0.48635 0.85591 0.0
C103 C 0.52763 0.4541 0.88442 0.0
C104 C 0.53492 0.37055 0.8424 0.0
C105 C 0.38986 0.45475 0.82582 0.0
C106 C 0.35005 0.51421 0.83291 0.0
C107 C 0.38424 0.52431 0.82203 0.0
C108 C 0.4039 0.49491 0.81852 0.0
C109 C 0.35481 0.44401 0.83586 0.0
C110 C 0.33498 0.47348 0.83935 0.0
C111 C 0.4142 0.42596 0.82536 0.0
H112 H 0.72011 0.61356 0.82829 0.0
H113 H 0.66326 0.56291 0.84114 0.0
H114 H 0.73416 0.47874 0.85336 0.0
H115 H 0.79078 0.52889 0.84057 0.0
H116 H 0.39697 0.55544 0.81713 0.0
H117 H 0.43101 0.50413 0.81083 0.0
H118 H 0.34359 0.41327 0.8417 0.0
H119 H 0.30839 0.46464 0.84753 0.0
P120 P 0.58703 0.00201 0.24538 0.0
H121 H 0.55475 0.95745 0.20438 0.0
H122 H 0.48715 0.92455 0.18869 0.0
H123 H 0.44253 0.97366 0.24199 0.0
H124 H 0.50997 0.00791 0.25688 0.0
H125 H 0.66495 0.05509 0.26019 0.0
H126 H 0.70978 0.11347 0.24439 0.0
H127 H 0.62226 0.10674 0.18975 0.0
H128 H 0.57726 0.04842 0.20581 0.0
H129 H 0.56387 0.9415 0.27812 0.0
H130 H 0.60173 0.07365 0.27554 0.0
O131 O 0.60894 0.96511 0.24194 0.0
H132 H 0.5577 0.94666 0.31691 0.0
H133 H 0.59677 0.0789 0.3145 0.0
C134 C 0.53744 0.9845 0.23198 0.0
C135 C 0.53034 0.96169 0.21244 0.0
C136 C 0.49161 0.94254 0.20362 0.0
C137 C 0.45918 0.94565 0.21427 0.0
C138 C 0.46657 0.9706 0.23323 0.0
C139 C 0.50532 0.99005 0.2419 0.0
C140 C 0.6174 0.04797 0.23447 0.0
C141 C 0.65504 0.06671 0.24504 0.0
C142 C 0.68067 0.10009 0.23597 0.0
C143 C 0.6695 0.11489 0.21586 0.0
C144 C 0.63174 0.09597 0.20524 0.0
C145 C 0.60588 0.06279 0.21448 0.0
C146 C 0.58433 0.00711 0.27408 0.0
C147 C 0.57132 0.9716 0.28596 0.0
C148 C 0.56754 0.97457 0.30805 0.0
C149 C 0.57702 0.01317 0.31868 0.0
C150 C 0.58978 0.04878 0.30672 0.0
C151 C 0.59283 0.04577 0.28449 0.0
P152 P 0.62215 0.53323 0.57199 0.0
H153 H 0.66998 0.47759 0.56696 0.0
H154 H 0.65493 0.40721 0.55341 0.0
H155 H 0.53418 0.4072 0.53442 0.0
H156 H 0.54982 0.47882 0.54802 0.0
H157 H 0.64536 0.5835 0.53496 0.0
H158 H 0.63046 0.64616 0.52187 0.0
H159 H 0.54153 0.63082 0.56641 0.0
H160 H 0.55648 0.56812 0.57937 0.0
H161 H 0.6576 0.57409 0.61346 0.0
H162 H 0.55405 0.47708 0.59014 0.0
O163 O 0.67121 0.55288 0.5744 0.0
H164 H 0.64088 0.56211 0.65055 0.0
H165 H 0.53672 0.46535 0.6272 0.0
C166 C 0.61124 0.48384 0.55816 0.0
C167 C 0.64048 0.46305 0.55937 0.0
C168 C 0.6318 0.42259 0.5516 0.0
C169 C 0.59339 0.40154 0.5427 0.0
C170 C 0.56405 0.42256 0.54121 0.0
C171 C 0.573 0.46353 0.54879 0.0
C172 C 0.60238 0.57132 0.55829 0.0
C173 C 0.62194 0.59301 0.54151 0.0
C174 C 0.61365 0.62905 0.53419 0.0
C175 C 0.58531 0.6439 0.54337 0.0
C176 C 0.56352 0.62025 0.55899 0.0
C177 C 0.57208 0.58431 0.56643 0.0
C178 C 0.60767 0.5258 0.59907 0.0
C179 C 0.63118 0.55026 0.6163 0.0
C180 C 0.62138 0.54359 0.63751 0.0
C181 C 0.5876 0.51251 0.64189 0.0
C182 C 0.56335 0.48897 0.62444 0.0
C183 C 0.57321 0.49572 0.60321 0.0
P184 P 0.13711 0.78885 0.90351 0.0
H185 H 0.18916 0.80741 0.86894 0.0
H186 H 0.23608 0.77322 0.85642 0.0
H187 H 0.21992 0.69405 0.9113 0.0
H188 H 0.17349 0.72756 0.92355 0.0
H189 H 0.06722 0.81765 0.89473 0.0
H190 H 1.00744 0.79232 0.86978 0.0
H191 H 0.06261 0.71217 0.83839 0.0
H192 H 0.12092 0.73561 0.86412 0.0
H193 H 0.15758 0.80327 0.95025 0.0
H194 H 0.07234 0.71431 0.90742 0.0
O195 O 0.1535 0.83924 0.90901 0.0
H196 H 0.13433 0.76256 0.98146 0.0
H197 H 0.04896 0.67394 0.93838 0.0
C198 C 0.17744 0.76983 0.89701 0.0
C199 C 0.19645 0.78326 0.87848 0.0
C200 C 0.22301 0.76363 0.87129 0.0
C201 C 0.23146 0.7309 0.88285 0.0
C202 C 0.21428 0.71943 0.90217 0.0
C203 C 0.18741 0.73858 0.90913 0.0
C204 C 0.09876 0.77898 0.88122 0.0
C205 C 0.06681 0.79551 0.88206 0.0
C206 C 1.03267 0.78108 0.86767 0.0
C207 C 1.03003 0.74989 0.85215 0.0
C208 C 0.06337 0.73572 0.85035 0.0
C209 C 0.09714 0.74963 0.86496 0.0
C210 C 0.11604 0.76247 0.92658 0.0
C211 C 0.13334 0.77551 0.94761 0.0
C212 C 0.12034 0.75202 0.96536 0.0
C213 C 0.08978 0.71512 0.96232 0.0
C214 C 0.07214 0.70252 0.94124 0.0
C215 C 0.08545 0.72575 0.92352 0.0
P216 P 0.09993 0.45763 0.41524 0.0
H217 H 0.18397 0.49812 0.41861 0.0
H218 H 0.22396 0.56601 0.43204 0.0
H219 H 0.11936 0.59345 0.45055 0.0
H220 H 0.0793 0.52501 0.43699 0.0
H221 H 1.0211 0.40733 0.39844 0.0
H222 H 0.96548 0.36655 0.41622 0.0
H223 H 1.0276 0.41275 0.47863 0.0
H224 H 0.08357 0.45333 0.46062 0.0
H225 H 0.13088 0.4379 0.3759 0.0
H226 H 1.04496 0.49808 0.39275 0.0
O227 O 0.1276 0.42491 0.41731 0.0
H228 H 0.1174 0.45203 0.33777 0.0
H229 H 1.03154 0.51285 0.35449 0.0
C230 C 0.12889 0.50618 0.42734 0.0
C231 C 0.16968 0.51847 0.42586 0.0
C232 C 0.19245 0.55745 0.43333 0.0
C233 C 0.1748 0.58509 0.44234 0.0
C234 C 0.13383 0.57262 0.44393 0.0
C235 C 0.11095 0.53356 0.43624 0.0
C236 C 0.05609 0.43432 0.42817 0.0
C237 C 1.02237 0.40974 0.41591 0.0
C238 C 0.99049 0.38632 0.42612 0.0
C239 C 0.99199 0.38645 0.44886 0.0
C240 C 1.02557 0.41181 0.4611 0.0
C241 C 0.05742 0.43535 0.45082 0.0
C242 C 0.08841 0.46637 0.38706 0.0
C243 C 0.10888 0.45393 0.37137 0.0
C244 C 0.10138 0.46234 0.34958 0.0
C245 C 0.07338 0.48356 0.3431 0.0
C246 C 0.05288 0.49597 0.35893 0.0
C247 C 0.06057 0.48767 0.38077 0.0
P248 P 0.60025 0.97273 0.804 0.0
H249 H 0.63953 0.03908 0.83548 0.0
H250 H 0.6227 0.10092 0.84588 0.0
H251 H 0.50676 0.05452 0.81105 0.0
H252 H 0.52383 0.9921 0.80069 0.0
H253 H 0.63759 0.92542 0.83415 0.0
H254 H 0.61956 0.85343 0.84351 0.0
H255 H 0.50576 0.83516 0.8064 0.0
H256 H 0.52449 0.90782 0.7968 0.0
H257 H 0.59601 0.03968 0.7752 0.0
H258 H 0.58242 0.90965 0.76881 0.0
O259 O 0.64955 0.98646 0.80799 0.0
H260 H 0.58636 0.04392 0.736 0.0
H261 H 0.57125 0.91333 0.7295 0.0
C262 C 0.58313 0.01121 0.81705 0.0
C263 C 0.61012 0.04157 0.83049 0.0
C264 C 0.60055 0.07712 0.83632 0.0
C265 C 0.56372 0.083 0.82889 0.0
C266 C 0.5354 0.05091 0.81699 0.0
C267 C 0.54508 0.01521 0.81111 0.0
C268 C 0.5827 0.92183 0.81441 0.0
C269 C 0.6085 0.90619 0.82825 0.0
C270 C 0.59801 0.86486 0.83372 0.0
C271 C 0.56134 0.83819 0.82552 0.0
C272 C 0.53452 0.85463 0.81268 0.0
C273 C 0.54503 0.89621 0.80732 0.0
C274 C 0.58838 0.97405 0.77509 0.0
C275 C 0.58975 0.01173 0.76541 0.0
C276 C 0.58419 0.01413 0.74291 0.0
C277 C 0.57757 0.97889 0.72952 0.0
C278 C 0.57639 0.94113 0.73928 0.0
C279 C 0.5822 0.93884 0.76184 0.0
P280 P 0.50991 0.51638 0.1186 0.0
H281 H 0.56111 0.48557 0.1511 0.0
H282 H 0.63209 0.49639 0.15722 0.0
H283 H 0.64967 0.59734 0.11348 0.0
H284 H 0.57828 0.58738 0.10813 0.0
H285 H 0.47003 0.52145 0.15789 0.0
H286 H 0.40576 0.53196 0.16313 0.0
H287 H 0.39314 0.56691 0.09651 0.0
H288 H 0.45683 0.55702 0.09154 0.0
H289 H 0.49174 0.44185 0.09074 0.0
H290 H 0.52556 0.57286 0.08221 0.0
O291 O 0.4949 0.46951 0.1286 0.0
H292 H 0.49206 0.43053 0.05207 0.0
H293 H 0.52762 0.56172 0.04355 0.0
C294 C 0.56305 0.53513 0.12882 0.0
C295 C 0.5799 0.5108 0.14311 0.0
C296 C 0.62113 0.51664 0.14636 0.0
C297 C 0.64762 0.54703 0.13539 0.0
C298 C 0.63093 0.57335 0.12225 0.0
C299 C 0.58949 0.56756 0.11909 0.0
C300 C 0.46977 0.53894 0.12439 0.0
C301 C 0.4542 0.53281 0.14457 0.0
C302 C 0.41666 0.53809 0.14743 0.0
C303 C 0.39311 0.54988 0.13021 0.0
C304 C 0.40981 0.55819 0.11038 0.0
C305 C 0.44712 0.55265 0.10751 0.0
C306 C 0.50877 0.50832 0.08959 0.0
C307 C 0.49939 0.46833 0.08065 0.0
C308 C 0.49991 0.46181 0.05843 0.0
C309 C 0.51008 0.49518 0.04461 0.0
C310 C 0.51928 0.53525 0.05361 0.0
C311 C 0.51864 0.54169 0.07585 0.0
H312 H 0.13522 0.48751 0.14166 0.0
H313 H 0.16858 0.61883 0.13467 0.0
H314 H 0.20372 0.4872 0.13981 0.0
H315 H 0.2372 0.61874 0.13323 0.0
H316 H 0.35231 0.60228 0.11082 0.0
H317 H 0.28405 0.6027 0.11283 0.0
H318 H 0.26886 0.50288 0.15722 0.0
H319 H 0.33671 0.50141 0.15455 0.0
C320 C 0.15707 0.51647 0.1398 0.0
C321 C 0.1456 0.55317 0.13829 0.0
C322 C 0.19684 0.51636 0.13888 0.0
C323 C 0.22699 0.55295 0.13636 0.0
C324 C 0.21541 0.58966 0.13485 0.0
C325 C 0.17567 0.58977 0.13583 0.0
C326 C 0.33456 0.5801 0.12094 0.0
C327 C 0.35098 0.55174 0.13245 0.0
C328 C 0.29506 0.58066 0.12231 0.0
C329 C 0.26993 0.55279 0.1352 0.0
C330 C 0.28644 0.52464 0.14685 0.0
C331 C 0.32601 0.52419 0.14555 0.0
H332 H 0.77451 0.23914 0.49878 0.0
H333 H 0.85438 0.16299 0.49994 0.0
H334 H 0.82535 0.29622 0.48596 0.0
H335 H 0.90507 0.21999 0.48741 0.0
H336 H 0.99994 0.3394 0.48389 0.0
H337 H 0.94833 0.28768 0.49957 0.0
H338 H 0.86025 0.31512 0.45329 0.0
H339 H 0.91184 0.36786 0.43799 0.0
C340 C 0.8028 0.23448 0.49623 0.0
C341 C 0.81033 0.19643 0.50046 0.0
C342 C 0.83195 0.26723 0.48893 0.0
C343 C 0.86933 0.26273 0.48578 0.0
C344 C 0.87686 0.22476 0.49008 0.0
C345 C 0.84775 0.19204 0.49728 0.0
C346 C 0.9695 0.33504 0.47733 0.0
C347 C 0.96005 0.35773 0.45964 0.0
C348 C 0.93996 0.30502 0.48615 0.0
C349 C 0.90022 0.29699 0.47754 0.0
C350 C 0.89055 0.32068 0.46036 0.0
C351 C 0.92014 0.35064 0.45148 0.0
H352 H 0.48199 0.56851 0.82155 0.0
H353 H 0.59767 0.60239 0.85767 0.0
H354 H 0.48385 0.6407 0.81915 0.0
H355 H 0.5998 0.67464 0.8549 0.0
H356 H 0.57805 0.79942 0.86269 0.0
H357 H 0.5705 0.72627 0.8673 0.0
H358 H 0.51811 0.70168 0.80104 0.0
H359 H 0.52573 0.77476 0.79642 0.0
C360 C 0.50783 0.59127 0.829 0.0
C361 C 0.53968 0.57942 0.83979 0.0
C362 C 0.50897 0.63279 0.82752 0.0
C363 C 0.54198 0.66363 0.8368 0.0
C364 C 0.57364 0.65176 0.84781 0.0
C365 C 0.57252 0.61024 0.84928 0.0
C366 C 0.56483 0.77841 0.84911 0.0
C367 C 0.55268 0.79314 0.82914 0.0
C368 C 0.56057 0.73643 0.85174 0.0
C369 C 0.54399 0.708 0.8345 0.0
C370 C 0.53061 0.72256 0.81476 0.0
C371 C 0.53489 0.76456 0.81212 0.0
H372 H 0.91179 0.61634 0.15707 0.0
H373 H 0.87757 0.49636 0.12573 0.0
H374 H 0.84204 0.61499 0.15596 0.0
H375 H 0.80844 0.49533 0.12413 0.0
H376 H 0.68394 0.48438 0.14059 0.0
H377 H 0.75357 0.48773 0.14316 0.0
H378 H 0.7829 0.61879 0.13515 0.0
H379 H 0.71287 0.6157 0.13358 0.0
C380 C 0.88956 0.58964 0.14988 0.0
C381 C 0.90105 0.55644 0.14158 0.0
C382 C 0.84919 0.58894 0.14909 0.0
C383 C 0.81859 0.55494 0.14001 0.0
C384 C 0.83034 0.5219 0.13167 0.0
C385 C 0.87051 0.52262 0.13245 0.0
C386 C 0.70496 0.51422 0.1397 0.0
C387 C 0.6917 0.54976 0.13699 0.0
C388 C 0.74545 0.51606 0.14084 0.0
C389 C 0.7749 0.55353 0.13925 0.0
C390 C 0.76178 0.58922 0.13666 0.0
C391 C 0.72112 0.58736 0.13549 0.0
H392 H 0.27987 0.83194 0.50048 0.0
H393 H 0.37364 0.79911 0.47175 0.0
H394 H 0.23362 0.76702 0.487 0.0
H395 H 0.32809 0.73355 0.45934 0.0
H396 H 0.23055 0.63778 0.42089 0.0
H397 H 0.27324 0.70502 0.43321 0.0
H398 H 0.21752 0.69418 0.49267 0.0
H399 H 0.17416 0.62702 0.48002 0.0
C400 C 0.29064 0.81095 0.49127 0.0
C401 C 0.33055 0.82085 0.48721 0.0
C402 C 0.2642 0.77347 0.48377 0.0
C403 C 0.27704 0.74498 0.47205 0.0
C404 C 0.31696 0.75492 0.46804 0.0
C405 C 0.34329 0.79237 0.47544 0.0
C406 C 0.22747 0.64975 0.43661 0.0
C407 C 0.19925 0.62696 0.44957 0.0
C408 C 0.25202 0.68827 0.44372 0.0
C409 C 0.2492 0.70493 0.46406 0.0
C410 C 0.22028 0.68252 0.47683 0.0
C411 C 0.19548 0.644 0.46962 0.0
H412 H 0.59832 0.34221 0.85421 0.0
H413 H 0.47427 0.30058 0.83106 0.0
H414 H 0.60284 0.2723 0.85237 0.0
H415 H 0.4791 0.23004 0.82834 0.0
H416 H 0.49827 0.1017 0.84195 0.0
H417 H 0.48899 0.17019 0.84665 0.0
H418 H 0.60409 0.22469 0.82526 0.0
H419 H 0.61353 0.15706 0.82127 0.0
C420 C 0.57195 0.31806 0.84861 0.0
C421 C 0.53603 0.3271 0.84254 0.0
C422 C 0.57459 0.27784 0.84742 0.0
C423 C 0.54155 0.24538 0.83976 0.0
C424 C 0.50515 0.25414 0.83438 0.0
C425 C 0.50238 0.2946 0.83586 0.0
C426 C 0.5215 0.12848 0.83834 0.0
C427 C 0.55693 0.12404 0.83165 0.0
C428 C 0.51616 0.1677 0.84094 0.0
C429 C 0.54602 0.20322 0.83667 0.0
C430 C 0.5809 0.19835 0.8294 0.0
C431 C 0.58634 0.15945 0.82704 0.0
H432 H 0.51614 0.87128 0.54188 0.0
H433 H 0.61989 0.90034 0.50723 0.0
H434 H 0.51953 0.80084 0.54528 0.0
H435 H 0.62233 0.82942 0.50975 0.0
H436 H 0.64427 0.71461 0.54064 0.0
H437 H 0.63868 0.78365 0.53465 0.0
H438 H 0.51127 0.73682 0.52814 0.0
H439 H 0.51717 0.66765 0.53492 0.0
C440 C 0.53942 0.86253 0.53472 0.0
C441 C 0.56794 0.89168 0.52443 0.0
C442 C 0.54122 0.82189 0.53654 0.0
C443 C 0.57133 0.80909 0.52789 0.0
C444 C 0.5992 0.83811 0.51706 0.0
C445 C 0.59767 0.87886 0.51548 0.0
C446 C 0.61504 0.71895 0.53764 0.0
C447 C 0.58116 0.68554 0.53816 0.0
C448 C 0.61178 0.75867 0.53413 0.0
C449 C 0.57449 0.7662 0.53082 0.0
C450 C 0.54053 0.73255 0.53098 0.0
C451 C 0.54384 0.69278 0.53475 0.0
H452 H 0.78605 0.65572 0.84608 0.0
H453 H 0.81357 0.56423 0.80687 0.0
H454 H 0.85112 0.7023 0.84274 0.0
H455 H 0.87868 0.61108 0.80323 0.0
H456 H 1.00059 0.66753 0.84388 0.0
H457 H 0.93355 0.6299 0.83136 0.0
H458 H 0.90269 0.74386 0.82207 0.0
H459 H 0.97081 0.78213 0.8345 0.0
C460 C 0.80553 0.64613 0.83612 0.0
C461 C 0.79513 0.6061 0.82711 0.0
C462 C 0.84282 0.67289 0.83412 0.0
C463 C 0.87032 0.66012 0.82301 0.0
C464 C 0.85842 0.62148 0.81226 0.0
C465 C 0.82122 0.59466 0.81436 0.0
C466 C 0.98013 0.68487 0.83841 0.0
C467 C 0.99116 0.72798 0.84039 0.0
C468 C 0.94144 0.66313 0.83118 0.0
C469 C 0.91264 0.68385 0.82584 0.0
C470 C 0.92415 0.72704 0.82636 0.0
C471 C 0.96309 0.74892 0.83352 0.0
H472 H 0.24519 0.77833 0.14796 0.0
H473 H 0.20873 0.81668 0.207 0.0
H474 H 0.31187 0.82317 0.15746 0.0
H475 H 0.27569 0.8612 0.21665 0.0
H476 H 0.3898 0.96747 0.21452 0.0
H477 H 0.32253 0.92504 0.20388 0.0
H478 H 0.36812 0.82571 0.18551 0.0
H479 H 0.43513 0.86742 0.19662 0.0
C480 C 0.25138 0.79652 0.16292 0.0
C481 C 0.22168 0.79399 0.17673 0.0
C482 C 0.28965 0.82194 0.16843 0.0
C483 C 0.29905 0.84573 0.1878 0.0
C484 C 0.26927 0.84353 0.20152 0.0
C485 C 0.23105 0.81775 0.1961 0.0
C486 C 0.38554 0.93652 0.20834 0.0
C487 C 0.41812 0.92103 0.20644 0.0
C488 C 0.34695 0.91223 0.20222 0.0
C489 C 0.34001 0.87202 0.19386 0.0
C490 C 0.37251 0.85677 0.19161 0.0
C491 C 0.41102 0.88085 0.1979 0.0
H492 H 0.5046 0.13325 0.51756 0.0
H493 H 0.6305 0.16392 0.53618 0.0
H494 H 0.50785 0.20636 0.51899 0.0
H495 H 0.6335 0.23618 0.53785 0.0
H496 H 0.63695 0.36456 0.51988 0.0
H497 H 0.62768 0.2913 0.514 0.0
H498 H 0.52031 0.26454 0.54544 0.0
H499 H 0.52956 0.33818 0.55125 0.0
C500 C 0.53291 0.15545 0.52196 0.0
C501 C 0.56726 0.14252 0.52675 0.0
C502 C 0.53473 0.19735 0.52286 0.0
C503 C 0.57098 0.22724 0.52837 0.0
C504 C 0.60519 0.21417 0.53315 0.0
C505 C 0.60336 0.17251 0.53237 0.0
C506 C 0.61118 0.34307 0.5254 0.0
C507 C 0.58426 0.35724 0.53627 0.0
C508 C 0.60592 0.30104 0.52209 0.0
C509 C 0.57361 0.27193 0.52958 0.0
C510 C 0.54544 0.28608 0.53939 0.0
C511 C 0.55071 0.32831 0.54269 0.0
H512 H 0.32207 0.52479 0.87128 0.0
H513 H 0.33849 0.57803 0.8084 0.0
H514 H 0.29654 0.58047 0.88219 0.0
H515 H 0.31454 0.63492 0.81972 0.0
H516 H 0.22432 0.70041 0.84155 0.0
H517 H 0.25421 0.64939 0.82853 0.0
H518 H 0.32059 0.65321 0.89124 0.0
H519 H 0.29021 0.70379 0.9043 0.0
C520 C 0.31993 0.5482 0.85971 0.0
C521 C 0.33218 0.54687 0.83894 0.0
C522 C 0.30594 0.58054 0.8661 0.0
C523 C 0.304 0.61242 0.85192 0.0
C524 C 0.3156 0.61078 0.831 0.0
C525 C 0.32955 0.57834 0.82458 0.0
C526 C 0.24602 0.69105 0.85237 0.0
C527 C 0.25479 0.70581 0.87397 0.0
C528 C 0.26306 0.66174 0.84494 0.0
C529 C 0.28928 0.64677 0.85896 0.0
C530 C 0.29974 0.66338 0.8802 0.0
C531 C 0.28258 0.69251 0.88764 0.0
H532 H 0.86431 0.25156 0.14783 0.0
H533 H 0.82554 0.34695 0.17745 0.0
H534 H 0.81059 0.19963 0.16181 0.0
H535 H 0.77245 0.29482 0.19183 0.0
H536 H 0.71647 0.18667 0.2352 0.0
H537 H 0.76641 0.24032 0.21932 0.0
H538 H 0.73682 0.17368 0.15783 0.0
H539 H 0.68716 0.11972 0.1738 0.0
C540 C 0.84415 0.26158 0.1571 0.0
C541 C 0.84951 0.30362 0.16151 0.0
C542 C 0.81335 0.23173 0.16515 0.0
C543 C 0.7873 0.24309 0.17797 0.0
C544 C 0.79236 0.28505 0.18225 0.0
C545 C 0.82294 0.31493 0.17405 0.0
C546 C 0.72058 0.18354 0.21828 0.0
C547 C 0.69792 0.14891 0.20577 0.0
C548 C 0.74897 0.21441 0.20914 0.0
C549 C 0.75565 0.21122 0.18733 0.0
C550 C 0.73261 0.17686 0.17473 0.0
C551 C 0.70391 0.14617 0.18382 0.0
H552 H 0.98353 0.61972 0.077 0.0
H553 H 0.06458 0.54697 0.07025 0.0
H554 H 0.99852 0.6509 0.04236 0.0
H555 H 0.07967 0.57839 0.03542 0.0
H556 H 0.13649 0.69305 0.99512 0.0
H557 H 0.11562 0.65112 0.02614 0.0
H558 H 0.99342 0.6359 0.00237 0.0
H559 H 1.01432 0.67824 0.97144 0.0
C560 C 1.00406 0.60987 0.06791 0.0
C561 C 1.02304 0.58106 0.07637 0.0
C562 C 1.0125 0.62762 0.04803 0.0
C563 C 1.04047 0.61729 0.03628 0.0
C564 C 0.05825 0.58717 0.04427 0.0
C565 C 0.04938 0.56896 0.06408 0.0
C566 C 0.10519 0.68082 0.99657 0.0
C567 C 0.07703 0.68917 0.98097 0.0
C568 C 0.09324 0.65638 0.01415 0.0
C569 C 0.0529 0.64013 0.01662 0.0
C570 C 1.02472 0.64814 0.0009 0.0
C571 C 1.03666 0.67222 0.98319 0.0
H572 H 0.60142 0.08218 0.45613 0.0
H573 H 0.52778 0.95685 0.45144 0.0
H574 H 0.60235 0.08262 0.41697 0.0
H575 H 0.53037 0.95629 0.41239 0.0
H576 H 0.514 0.97626 0.34049 0.0
H577 H 0.50911 0.97952 0.37935 0.0
H578 H 0.62912 0.05817 0.38882 0.0
H579 H 0.63289 0.05635 0.34984 0.0
C580 C 0.58563 0.0546 0.44671 0.0
C581 C 0.56453 0.01948 0.45686 0.0
C582 C 0.58638 0.0547 0.42422 0.0
C583 C 0.56663 0.01942 0.41134 0.0
C584 C 0.54537 0.98433 0.4216 0.0
C585 C 0.54406 0.9845 0.44406 0.0
C586 C 0.53918 0.99435 0.35096 0.0
C587 C 0.5738 0.01607 0.34222 0.0
C588 C 0.53655 0.99605 0.37326 0.0
C589 C 0.56878 0.01894 0.38742 0.0
C590 C 0.60338 0.04083 0.37852 0.0
C591 C 0.6057 0.03968 0.35617 0.0
H592 H 0.60762 0.5148 0.78166 0.0
H593 H 0.50008 0.41779 0.76451 0.0
H594 H 0.61491 0.52687 0.74349 0.0
H595 H 0.50723 0.43038 0.72612 0.0
H596 H 0.56124 0.43773 0.66034 0.0
H597 H 0.55025 0.42394 0.69816 0.0
H598 H 0.58271 0.55436 0.71269 0.0
H599 H 0.59351 0.56817 0.67491 0.0
C600 C 0.58548 0.496 0.76976 0.0
C601 C 0.55322 0.46532 0.77618 0.0
C602 C 0.58954 0.50317 0.74784 0.0
C603 C 0.56149 0.47982 0.73176 0.0
C604 C 0.52948 0.44872 0.73813 0.0
C605 C 0.52534 0.44159 0.76012 0.0
C606 C 0.56545 0.46347 0.67154 0.0
C607 C 0.57849 0.50407 0.66461 0.0
C608 C 0.55919 0.45554 0.69322 0.0
C609 C 0.56592 0.48804 0.70847 0.0
C610 C 0.57801 0.52862 0.70143 0.0
C611 C 0.5842 0.53654 0.67978 0.0
H612 H 0.5096 0.0121 0.59244 0.0
H613 H 0.62976 0.00413 0.59584 0.0
H614 H 0.50983 0.00212 0.63138 0.0
H615 H 0.63043 0.99548 0.63477 0.0
H616 H 0.60761 0.93935 0.69979 0.0
H617 H 0.60365 0.94653 0.66069 0.0
H618 H 0.53724 0.03497 0.66577 0.0
H619 H 0.53922 0.02597 0.70476 0.0
C620 C 0.53619 0.0086 0.60152 0.0
C621 C 0.56962 0.00881 0.59101 0.0
C622 C 0.53638 0.00303 0.62387 0.0
C623 C 0.57009 0.99778 0.63625 0.0
C624 C 0.60367 0.99857 0.62572 0.0
C625 C 0.60339 0.00385 0.60338 0.0
C626 C 0.5915 0.95975 0.69256 0.0
C627 C 0.57377 0.98209 0.70549 0.0
C628 C 0.58975 0.96436 0.67013 0.0
C629 C 0.57044 0.99163 0.66004 0.0
C630 C 0.55211 0.01345 0.67292 0.0
C631 C 0.55367 0.00867 0.69535 0.0
H632 H 0.57944 0.44619 0.91884 0.0
H633 H 0.46689 0.47142 0.90316 0.0
H634 H 0.57452 0.45582 0.9572 0.0
H635 H 0.46148 0.48001 0.94166 0.0
H636 H 0.48626 0.53726 0.01044 0.0
H637 H 0.49013 0.52668 0.97196 0.0
H638 H 0.53922 0.42529 0.9867 0.0
H639 H 0.53719 0.43717 0.02519 0.0
C640 C 0.55343 0.4534 0.92357 0.0
C641 C 0.52358 0.45806 0.90786 0.0
C642 C 0.55051 0.45873 0.94563 0.0
C643 C 0.51759 0.46871 0.95261 0.0
C644 C 0.48753 0.47294 0.93689 0.0
C645 C 0.4905 0.46772 0.9148 0.0
C646 C 0.49826 0.51298 0.00551 0.0
C647 C 0.51149 0.48816 0.021 0.0
C648 C 0.49999 0.50654 0.98338 0.0
C649 C 0.51495 0.47508 0.97615 0.0
C650 C 0.52794 0.45012 0.99164 0.0
C651 C 0.5263 0.45661 0.01375 0.0
H652 H 0.08484 0.58895 0.21525 0.0
H653 H 0.98715 0.47865 0.20645 0.0
H654 H 0.09393 0.57577 0.25373 0.0
H655 H 0.99668 0.46526 0.24498 0.0
H656 H 1.00239 0.47719 0.31925 0.0
H657 H 0.99091 0.49266 0.28105 0.0
H658 H 0.11671 0.52612 0.27642 0.0
H659 H 0.1282 0.5118 0.31463 0.0
C660 C 0.06527 0.56189 0.2215 0.0
C661 C 1.03533 0.53479 0.20773 0.0
C662 C 0.07064 0.55424 0.24356 0.0
C663 C 1.04615 0.51938 0.2524 0.0
C664 C 1.0158 0.4926 0.23871 0.0
C665 C 1.01049 0.50017 0.2166 0.0
C666 C 1.02757 0.48822 0.3101 0.0
C667 C 0.06619 0.4932 0.31995 0.0
C668 C 1.02098 0.49668 0.28819 0.0
C669 C 0.0529 0.5106 0.27571 0.0
C670 C 0.09151 0.51585 0.28563 0.0
C671 C 0.09807 0.50721 0.30747 0.0
loop_
_geom_bond_atom_site_label_1
_geom_bond_atom_site_label_2
_geom_bond_distance
_geom_bond_site_symmetry_2
_ccdc_geom_bond_type
Dy0 O3 2.307 1_455 S
Dy0 O5 2.395 . S
Dy0 O6 2.379 . S
Dy0 O8 2.339 . S
Dy0 O10 2.298 . S
Dy0 O14 2.275 . S
Dy0 C22 2.738 . S
Dy1 O4 2.298 . S
Dy1 O7 2.275 1_655 S
Dy1 O9 2.307 1_655 S
Dy1 O11 2.395 . S
Dy1 O12 2.379 . S
Dy1 O15 2.339 . S
Dy1 C31 2.738 . S
C2 O14 1.254 . S
C2 O15 1.257 1_455 S
O3 Dy0 2.307 1_655 S
O3 C13 1.266 . S
O4 Dy1 2.298 . S
O4 C13 1.236 . S
O5 Dy0 2.395 . S
O5 C22 1.255 . S
O6 Dy0 2.379 . S
O6 C22 1.249 . S
O7 Dy1 2.275 1_455 S
O7 C23 1.254 . S
O8 Dy0 2.339 . S
O8 C23 1.257 . S
O9 Dy1 2.307 1_455 S
O9 C24 1.266 . S
O10 Dy0 2.298 . S
O10 C24 1.236 . S
O11 Dy1 2.395 . S
O11 C31 1.255 . S
O12 Dy1 2.379 . S
O12 C31 1.249 . S
C13 O3 1.266 . S
C13 O4 1.236 . S
O14 Dy0 2.275 . S
O14 C2 1.254 . S
O15 Dy1 2.339 . S
O15 C2 1.257 1_655 S
C16 C19 1.344 . S
C16 C20 1.328 . S
C16 C22 1.516 . S
C17 C18 1.304 . S
C17 C21 1.323 . S
C18 C17 1.304 . S
C18 C19 1.371 . S
C18 H32 0.930 . S
C19 C16 1.344 . S
C19 C18 1.371 . S
C19 H33 0.931 . S
C20 C16 1.328 . S
C20 C21 1.433 . S
C20 H34 0.931 . S
C21 C17 1.323 . S
C21 C20 1.433 . S
C21 H35 0.933 . S
C22 Dy0 2.738 . S
C22 O5 1.255 . S
C22 O6 1.249 . S
C22 C16 1.516 . S
C23 O7 1.254 . S
C23 O8 1.257 . S
C24 O9 1.266 . S
C24 O10 1.236 . S
C25 C28 1.344 . S
C25 C29 1.328 . S
C25 C31 1.516 . S
C26 C27 1.304 . S
C26 C30 1.323 . S
C27 C26 1.304 . S
C27 C28 1.371 . S
C27 H36 0.930 . S
C28 C25 1.344 . S
C28 C27 1.371 . S
C28 H37 0.931 . S
C29 C25 1.328 . S
C29 C30 1.433 . S
C29 H38 0.931 . S
C30 C26 1.323 . S
C30 C29 1.433 . S
C30 H39 0.933 . S
C31 Dy1 2.738 . S
C31 O11 1.255 . S
C31 O12 1.249 . S
C31 C25 1.516 . S
H32 C18 0.930 . S
H33 C19 0.931 . S
H34 C20 0.931 . S
H35 C21 0.933 . S
H36 C27 0.930 . S
H37 C28 0.931 . S
H38 C29 0.931 . S
H39 C30 0.933 . S
Dy40 O43 2.307 . S
Dy40 O45 2.395 1_545 S
Dy40 O46 2.379 1_545 S
Dy40 O48 2.339 . S
Dy40 O50 2.298 1_545 S
Dy40 O54 2.275 . S
Dy40 C62 2.738 1_545 S
Dy41 O44 2.298 . S
Dy41 O47 2.275 . S
Dy41 O49 2.307 1_545 S
Dy41 O51 2.395 . S
Dy41 O52 2.379 . S
Dy41 O55 2.339 . S
Dy41 C71 2.738 . S
C42 O54 1.254 . S
C42 O55 1.257 . S
O43 Dy40 2.307 . S
O43 C53 1.266 . S
O44 Dy41 2.298 . S
O44 C53 1.236 . S
O45 Dy40 2.395 1_565 S
O45 C62 1.255 . S
O46 Dy40 2.379 1_565 S
O46 C62 1.249 . S
O47 Dy41 2.275 . S
O47 C63 1.254 . S
O48 Dy40 2.339 . S
O48 C63 1.257 . S
O49 Dy41 2.307 1_565 S
O49 C64 1.266 . S
O50 Dy40 2.298 1_565 S
O50 C64 1.236 . S
O51 Dy41 2.395 . S
O51 C71 1.255 . S
O52 Dy41 2.379 . S
O52 C71 1.249 . S
C53 O43 1.266 . S
C53 O44 1.236 . S
O54 Dy40 2.275 . S
O54 C42 1.254 . S
O55 Dy41 2.339 . S
O55 C42 1.257 . S
C56 C59 1.344 . S
C56 C60 1.328 . S
C56 C62 1.516 . S
C57 C58 1.304 . S
C57 C61 1.323 . S
C58 C57 1.304 . S
C58 C59 1.371 . S
C58 H72 0.930 . S
C59 C56 1.344 . S
C59 C58 1.371 . S
C59 H73 0.931 . S
C60 C56 1.328 . S
C60 C61 1.433 . S
C60 H74 0.931 . S
C61 C57 1.323 . S
C61 C60 1.433 . S
C61 H75 0.933 . S
C62 Dy40 2.738 1_565 S
C62 O45 1.255 . S
C62 O46 1.249 . S
C62 C56 1.516 . S
C63 O47 1.254 . S
C63 O48 1.257 . S
C64 O49 1.266 . S
C64 O50 1.236 . S
C65 C68 1.344 . S
C65 C69 1.328 . S
C65 C71 1.516 . S
C66 C67 1.304 . S
C66 C70 1.323 . S
C67 C66 1.304 . S
C67 C68 1.371 . S
C67 H76 0.930 . S
C68 C65 1.344 . S
C68 C67 1.371 . S
C68 H77 0.931 . S
C69 C65 1.328 . S
C69 C70 1.433 . S
C69 H78 0.931 . S
C70 C66 1.323 . S
C70 C69 1.433 . S
C70 H79 0.933 . S
C71 Dy41 2.738 . S
C71 O51 1.255 . S
C71 O52 1.249 . S
C71 C65 1.516 . S
H72 C58 0.930 . S
H73 C59 0.931 . S
H74 C60 0.931 . S
H75 C61 0.933 . S
H76 C67 0.930 . S
H77 C68 0.931 . S
H78 C69 0.931 . S
H79 C70 0.933 . S
Dy80 O83 2.307 . S
Dy80 O85 2.395 . S
Dy80 O86 2.379 . S
Dy80 O88 2.339 . S
Dy80 O90 2.298 . S
Dy80 O94 2.275 . S
Dy80 C102 2.738 . S
Dy81 O84 2.298 . S
Dy81 O87 2.275 . S
Dy81 O89 2.307 . S
Dy81 O91 2.395 . S
Dy81 O92 2.379 . S
Dy81 O95 2.339 . S
Dy81 C111 2.738 . S
C82 O94 1.254 . S
C82 O95 1.257 . S
O83 Dy80 2.307 . S
O83 C93 1.266 . S
O84 Dy81 2.298 . S
O84 C93 1.236 . S
O85 Dy80 2.395 . S
O85 C102 1.255 . S
O86 Dy80 2.379 . S
O86 C102 1.249 . S
O87 Dy81 2.275 . S
O87 C103 1.254 . S
O88 Dy80 2.339 . S
O88 C103 1.257 . S
O89 Dy81 2.307 . S
O89 C104 1.266 . S
O90 Dy80 2.298 . S
O90 C104 1.236 . S
O91 Dy81 2.395 . S
O91 C111 1.255 . S
O92 Dy81 2.379 . S
O92 C111 1.249 . S
C93 O83 1.266 . S
C93 O84 1.236 . S
O94 Dy80 2.275 . S
O94 C82 1.254 . S
O95 Dy81 2.339 . S
O95 C82 1.257 . S
C96 C99 1.344 . S
C96 C100 1.328 . S
C96 C102 1.516 . S
C97 C98 1.304 . S
C97 C101 1.323 . S
C98 C97 1.304 . S
C98 C99 1.371 . S
C98 H112 0.930 . S
C99 C96 1.344 . S
C99 C98 1.371 . S
C99 H113 0.931 . S
C100 C96 1.328 . S
C100 C101 1.433 . S
C100 H114 0.931 . S
C101 C97 1.323 . S
C101 C100 1.433 . S
C101 H115 0.933 . S
C102 Dy80 2.738 . S
C102 O85 1.255 . S
C102 O86 1.249 . S
C102 C96 1.516 . S
C103 O87 1.254 . S
C103 O88 1.257 . S
C104 O89 1.266 . S
C104 O90 1.236 . S
C105 C108 1.344 . S
C105 C109 1.328 . S
C105 C111 1.516 . S
C106 C107 1.304 . S
C106 C110 1.323 . S
C107 C106 1.304 . S
C107 C108 1.371 . S
C107 H116 0.930 . S
C108 C105 1.344 . S
C108 C107 1.371 . S
C108 H117 0.931 . S
C109 C105 1.328 . S
C109 C110 1.433 . S
C109 H118 0.931 . S
C110 C106 1.323 . S
C110 C109 1.433 . S
C110 H119 0.933 . S
C111 Dy81 2.738 . S
C111 O91 1.255 . S
C111 O92 1.249 . S
C111 C105 1.516 . S
H112 C98 0.930 . S
H113 C99 0.931 . S
H114 C100 0.931 . S
H115 C101 0.933 . S
H116 C107 0.930 . S
H117 C108 0.931 . S
H118 C109 0.931 . S
H119 C110 0.933 . S
P120 O131 1.490 1_545 S
P120 C134 1.812 1_545 S
P120 C140 1.803 . S
P120 C146 1.819 . S
H121 C135 0.941 . S
H122 C136 0.939 . S
H123 C138 0.930 1_545 S
H124 C139 0.940 . S
H125 C141 0.939 . S
H126 C142 0.942 . S
H127 C144 0.940 . S
H128 C145 0.939 . S
H129 C147 0.944 . S
H130 C151 0.939 . S
O131 P120 1.490 1_565 S
H132 C148 0.939 1_565 S
H133 C150 0.940 . S
C134 P120 1.812 1_565 S
C134 C135 1.389 . S
C134 C139 1.391 1_565 S
C135 H121 0.941 . S
C135 C134 1.389 . S
C135 C136 1.397 . S
C136 H122 0.939 . S
C136 C135 1.397 . S
C136 C137 1.378 . S
C137 C136 1.378 . S
C137 C138 1.378 . S
C138 H123 0.930 1_565 S
C138 C137 1.378 . S
C138 C139 1.396 1_565 S
C139 H124 0.940 . S
C139 C134 1.391 1_545 S
C139 C138 1.396 1_545 S
C140 P120 1.803 . S
C140 C141 1.378 . S
C140 C145 1.400 . S
C141 H125 0.939 . S
C141 C140 1.378 . S
C141 C142 1.361 . S
C142 H126 0.942 . S
C142 C141 1.361 . S
C142 C143 1.369 . S
C143 C142 1.369 . S
C143 C144 1.404 . S
C144 H127 0.940 . S
C144 C143 1.404 . S
C144 C145 1.389 . S
C145 H128 0.939 . S
C145 C140 1.400 . S
C145 C144 1.389 . S
C146 P120 1.819 . S
C146 C147 1.389 1_545 S
C146 C151 1.391 . S
C147 H129 0.944 . S
C147 C146 1.389 1_565 S
C147 C148 1.396 1_565 S
C148 H132 0.939 1_545 S
C148 C147 1.396 1_545 S
C148 C149 1.397 . S
C149 C148 1.397 . S
C149 C150 1.385 . S
C150 H133 0.940 . S
C150 C149 1.385 . S
C150 C151 1.388 . S
C151 H130 0.939 . S
C151 C146 1.391 . S
C151 C150 1.388 . S
P152 O163 1.490 . S
P152 C166 1.812 . S
P152 C172 1.803 . S
P152 C178 1.819 . S
H153 C167 0.941 . S
H154 C168 0.939 . S
H155 C170 0.940 . S
H156 C171 0.940 . S
H157 C173 0.939 . S
H158 C174 0.942 . S
H159 C176 0.940 . S
H160 C177 0.939 . S
H161 C179 0.941 . S
H162 C183 0.939 . S
O163 P152 1.490 . S
H164 C180 0.939 . S
H165 C182 0.940 . S
C166 P152 1.812 . S
C166 C167 1.389 . S
C166 C171 1.391 . S
C167 H153 0.941 . S
C167 C166 1.389 . S
C167 C168 1.397 . S
C168 H154 0.939 . S
C168 C167 1.397 . S
C168 C169 1.378 . S
C169 C168 1.378 . S
C169 C170 1.378 . S
C170 H155 0.940 . S
C170 C169 1.378 . S
C170 C171 1.396 . S
C171 H156 0.940 . S
C171 C166 1.391 . S
C171 C170 1.396 . S
C172 P152 1.803 . S
C172 C173 1.378 . S
C172 C177 1.400 . S
C173 H157 0.939 . S
C173 C172 1.378 . S
C173 C174 1.361 . S
C174 H158 0.942 . S
C174 C173 1.361 . S
C174 C175 1.369 . S
C175 C174 1.369 . S
C175 C176 1.404 . S
C176 H159 0.940 . S
C176 C175 1.404 . S
C176 C177 1.389 . S
C177 H160 0.939 . S
C177 C172 1.400 . S
C177 C176 1.389 . S
C178 P152 1.819 . S
C178 C179 1.391 . S
C178 C183 1.391 . S
C179 H161 0.941 . S
C179 C178 1.391 . S
C179 C180 1.396 . S
C180 H164 0.939 . S
C180 C179 1.396 . S
C180 C181 1.397 . S
C181 C180 1.397 . S
C181 C182 1.385 . S
C182 H165 0.940 . S
C182 C181 1.385 . S
C182 C183 1.388 . S
C183 H162 0.939 . S
C183 C178 1.391 . S
C183 C182 1.388 . S
P184 O195 1.490 . S
P184 C198 1.812 . S
P184 C204 1.803 1_455 S
P184 C210 1.819 . S
H185 C199 0.941 . S
H186 C200 0.939 . S
H187 C202 0.940 . S
H188 C203 0.940 . S
H189 C205 0.939 . S
H190 C206 0.942 . S
H191 C208 0.940 . S
H192 C209 0.939 . S
H193 C211 0.941 . S
H194 C215 0.939 . S
O195 P184 1.490 . S
H196 C212 0.939 . S
H197 C214 0.940 . S
C198 P184 1.812 . S
C198 C199 1.389 . S
C198 C203 1.391 . S
C199 H185 0.941 . S
C199 C198 1.389 . S
C199 C200 1.397 . S
C200 H186 0.939 . S
C200 C199 1.397 . S
C200 C201 1.378 . S
C201 C200 1.378 . S
C201 C202 1.378 . S
C202 H187 0.940 . S
C202 C201 1.378 . S
C202 C203 1.396 . S
C203 H188 0.940 . S
C203 C198 1.391 . S
C203 C202 1.396 . S
C204 P184 1.803 1_655 S
C204 C205 1.378 . S
C204 C209 1.400 . S
C205 H189 0.939 . S
C205 C204 1.378 . S
C205 C206 1.361 . S
C206 H190 0.942 . S
C206 C205 1.361 . S
C206 C207 1.369 . S
C207 C206 1.369 . S
C207 C208 1.404 . S
C208 H191 0.940 . S
C208 C207 1.404 . S
C208 C209 1.389 . S
C209 H192 0.939 . S
C209 C204 1.400 . S
C209 C208 1.389 . S
C210 P184 1.819 . S
C210 C211 1.391 . S
C210 C215 1.391 1_455 S
C211 H193 0.941 . S
C211 C210 1.391 . S
C211 C212 1.396 . S
C212 H196 0.939 . S
C212 C211 1.396 . S
C212 C213 1.397 . S
C213 C212 1.397 . S
C213 C214 1.385 1_455 S
C214 H197 0.940 . S
C214 C213 1.385 1_655 S
C214 C215 1.388 . S
C215 H194 0.939 . S
C215 C210 1.391 1_655 S
C215 C214 1.388 . S
P216 O227 1.490 . S
P216 C230 1.812 . S
P216 C236 1.803 1_455 S
P216 C242 1.819 . S
H217 C231 0.941 . S
H218 C232 0.939 . S
H219 C234 0.940 . S
H220 C235 0.940 . S
H221 C237 0.939 . S
H222 C238 0.942 . S
H223 C240 0.940 . S
H224 C241 0.939 . S
H225 C243 0.941 . S
H226 C247 0.939 . S
O227 P216 1.490 . S
H228 C244 0.939 . S
H229 C246 0.940 . S
C230 P216 1.812 . S
C230 C231 1.389 . S
C230 C235 1.391 . S
C231 H217 0.941 . S
C231 C230 1.389 . S
C231 C232 1.397 . S
C232 H218 0.939 . S
C232 C231 1.397 . S
C232 C233 1.378 . S
C233 C232 1.378 . S
C233 C234 1.378 . S
C234 H219 0.940 . S
C234 C233 1.378 . S
C234 C235 1.396 . S
C235 H220 0.940 . S
C235 C230 1.391 . S
C235 C234 1.396 . S
C236 P216 1.803 1_655 S
C236 C237 1.378 . S
C236 C241 1.400 . S
C237 H221 0.939 . S
C237 C236 1.378 . S
C237 C238 1.361 . S
C238 H222 0.942 . S
C238 C237 1.361 . S
C238 C239 1.369 . S
C239 C238 1.369 . S
C239 C240 1.404 . S
C240 H223 0.940 . S
C240 C239 1.404 . S
C240 C241 1.389 . S
C241 H224 0.939 . S
C241 C236 1.400 . S
C241 C240 1.389 . S
C242 P216 1.819 . S
C242 C243 1.391 . S
C242 C247 1.391 1_455 S
C243 H225 0.941 . S
C243 C242 1.391 . S
C243 C244 1.396 . S
C244 H228 0.939 . S
C244 C243 1.396 . S
C244 C245 1.397 . S
C245 C244 1.397 . S
C245 C246 1.385 1_455 S
C246 H229 0.940 . S
C246 C245 1.385 1_655 S
C246 C247 1.388 . S
C247 H226 0.939 . S
C247 C242 1.391 1_655 S
C247 C246 1.388 . S
P248 O259 1.490 . S
P248 C262 1.812 . S
P248 C268 1.803 1_545 S
P248 C274 1.819 . S
H249 C263 0.941 . S
H250 C264 0.939 . S
H251 C266 0.940 . S
H252 C267 0.940 . S
H253 C269 0.939 . S
H254 C270 0.942 . S
H255 C272 0.940 . S
H256 C273 0.939 . S
H257 C275 0.941 . S
H258 C279 0.939 . S
O259 P248 1.490 . S
H260 C276 0.939 . S
H261 C278 0.940 . S
C262 P248 1.812 . S
C262 C263 1.389 . S
C262 C267 1.391 . S
C263 H249 0.941 . S
C263 C262 1.389 . S
C263 C264 1.397 . S
C264 H250 0.939 . S
C264 C263 1.397 . S
C264 C265 1.378 . S
C265 C264 1.378 . S
C265 C266 1.378 . S
C266 H251 0.940 . S
C266 C265 1.378 . S
C266 C267 1.396 . S
C267 H252 0.940 . S
C267 C262 1.391 . S
C267 C266 1.396 . S
C268 P248 1.803 1_565 S
C268 C269 1.378 . S
C268 C273 1.400 . S
C269 H253 0.939 . S
C269 C268 1.378 . S
C269 C270 1.361 . S
C270 H254 0.942 . S
C270 C269 1.361 . S
C270 C271 1.369 . S
C271 C270 1.369 . S
C271 C272 1.404 . S
C272 H255 0.940 . S
C272 C271 1.404 . S
C272 C273 1.389 . S
C273 H256 0.939 . S
C273 C268 1.400 . S
C273 C272 1.389 . S
C274 P248 1.819 . S
C274 C275 1.391 . S
C274 C279 1.391 1_545 S
C275 H257 0.941 . S
C275 C274 1.391 . S
C275 C276 1.396 . S
C276 H260 0.939 . S
C276 C275 1.396 . S
C276 C277 1.397 . S
C277 C276 1.397 . S
C277 C278 1.385 1_545 S
C278 H261 0.940 . S
C278 C277 1.385 1_565 S
C278 C279 1.388 . S
C279 H258 0.939 . S
C279 C274 1.391 1_565 S
C279 C278 1.388 . S
P280 O291 1.490 . S
P280 C294 1.812 . S
P280 C300 1.803 . S
P280 C306 1.819 . S
H281 C295 0.941 . S
H282 C296 0.939 . S
H283 C298 0.940 . S
H284 C299 0.940 . S
H285 C301 0.939 . S
H286 C302 0.942 . S
H287 C304 0.940 . S
H288 C305 0.939 . S
H289 C307 0.941 . S
H290 C311 0.939 . S
O291 P280 1.490 . S
H292 C308 0.939 . S
H293 C310 0.940 . S
C294 P280 1.812 . S
C294 C295 1.389 . S
C294 C299 1.391 . S
C295 H281 0.941 . S
C295 C294 1.389 . S
C295 C296 1.397 . S
C296 H282 0.939 . S
C296 C295 1.397 . S
C296 C297 1.378 . S
C297 C296 1.378 . S
C297 C298 1.378 . S
C298 H283 0.940 . S
C298 C297 1.378 . S
C298 C299 1.396 . S
C299 H284 0.940 . S
C299 C294 1.391 . S
C299 C298 1.396 . S
C300 P280 1.803 . S
C300 C301 1.378 . S
C300 C305 1.400 . S
C301 H285 0.939 . S
C301 C300 1.378 . S
C301 C302 1.361 . S
C302 H286 0.942 . S
C302 C301 1.361 . S
C302 C303 1.369 . S
C303 C302 1.369 . S
C303 C304 1.404 . S
C304 H287 0.940 . S
C304 C303 1.404 . S
C304 C305 1.389 . S
C305 H288 0.939 . S
C305 C300 1.400 . S
C305 C304 1.389 . S
C306 P280 1.819 . S
C306 C307 1.391 . S
C306 C311 1.391 . S
C307 H289 0.941 . S
C307 C306 1.391 . S
C307 C308 1.396 . S
C308 H292 0.939 . S
C308 C307 1.396 . S
C308 C309 1.397 . S
C309 C308 1.397 . S
C309 C310 1.385 . S
C310 H293 0.940 . S
C310 C309 1.385 . S
C310 C311 1.388 . S
C311 H290 0.939 . S
C311 C306 1.391 . S
C311 C310 1.388 . S
H312 C320 0.950 . S
H313 C325 0.950 . S
H314 C322 0.950 . S
H315 C324 0.950 . S
H316 C326 0.950 . S
H317 C328 0.950 . S
H318 C330 0.950 . S
H319 C331 0.950 . S
C320 H312 0.950 . S
C320 C321 1.386 . S
C320 C322 1.391 . S
C321 C320 1.386 . S
C321 C325 1.393 . S
C322 H314 0.950 . S
C322 C320 1.391 . S
C322 C323 1.400 . S
C323 C322 1.400 . S
C323 C324 1.398 . S
C323 C329 1.491 . S
C324 H315 0.950 . S
C324 C323 1.398 . S
C324 C325 1.391 . S
C325 H313 0.950 . S
C325 C321 1.393 . S
C325 C324 1.391 . S
C326 H316 0.950 . S
C326 C327 1.386 . S
C326 C328 1.391 . S
C327 C326 1.386 . S
C327 C331 1.393 . S
C328 H317 0.950 . S
C328 C326 1.391 . S
C328 C329 1.400 . S
C329 C323 1.491 . S
C329 C328 1.400 . S
C329 C330 1.398 . S
C330 H318 0.950 . S
C330 C329 1.398 . S
C330 C331 1.391 . S
C331 H319 0.950 . S
C331 C327 1.393 . S
C331 C330 1.391 . S
H332 C340 0.950 . S
H333 C345 0.950 . S
H334 C342 0.950 . S
H335 C344 0.950 . S
H336 C346 0.950 . S
H337 C348 0.950 . S
H338 C350 0.950 . S
H339 C351 0.950 . S
C340 H332 0.950 . S
C340 C341 1.386 . S
C340 C342 1.391 . S
C341 C340 1.386 . S
C341 C345 1.393 . S
C342 H334 0.950 . S
C342 C340 1.391 . S
C342 C343 1.400 . S
C343 C342 1.400 . S
C343 C344 1.398 . S
C343 C349 1.491 . S
C344 H335 0.950 . S
C344 C343 1.398 . S
C344 C345 1.391 . S
C345 H333 0.950 . S
C345 C341 1.393 . S
C345 C344 1.391 . S
C346 H336 0.950 . S
C346 C347 1.386 . S
C346 C348 1.391 . S
C347 C346 1.386 . S
C347 C351 1.393 . S
C348 H337 0.950 . S
C348 C346 1.391 . S
C348 C349 1.400 . S
C349 C343 1.491 . S
C349 C348 1.400 . S
C349 C350 1.398 . S
C350 H338 0.950 . S
C350 C349 1.398 . S
C350 C351 1.391 . S
C351 H339 0.950 . S
C351 C347 1.393 . S
C351 C350 1.391 . S
H352 C360 0.950 . S
H353 C365 0.950 . S
H354 C362 0.950 . S
H355 C364 0.950 . S
H356 C366 0.950 . S
H357 C368 0.950 . S
H358 C370 0.950 . S
H359 C371 0.950 . S
C360 H352 0.950 . S
C360 C361 1.386 . S
C360 C362 1.391 . S
C361 C360 1.386 . S
C361 C365 1.393 . S
C362 H354 0.950 . S
C362 C360 1.391 . S
C362 C363 1.400 . S
C363 C362 1.400 . S
C363 C364 1.398 . S
C363 C369 1.491 . S
C364 H355 0.950 . S
C364 C363 1.398 . S
C364 C365 1.391 . S
C365 H353 0.950 . S
C365 C361 1.393 . S
C365 C364 1.391 . S
C366 H356 0.950 . S
C366 C367 1.386 . S
C366 C368 1.391 . S
C367 C366 1.386 . S
C367 C371 1.393 . S
C368 H357 0.950 . S
C368 C366 1.391 . S
C368 C369 1.400 . S
C369 C363 1.491 . S
C369 C368 1.400 . S
C369 C370 1.398 . S
C370 H358 0.950 . S
C370 C369 1.398 . S
C370 C371 1.391 . S
C371 H359 0.950 . S
C371 C367 1.393 . S
C371 C370 1.391 . S
H372 C380 0.950 . S
H373 C385 0.950 . S
H374 C382 0.950 . S
H375 C384 0.950 . S
H376 C386 0.950 . S
H377 C388 0.950 . S
H378 C390 0.950 . S
H379 C391 0.950 . S
C380 H372 0.950 . S
C380 C381 1.386 . S
C380 C382 1.391 . S
C381 C380 1.386 . S
C381 C385 1.393 . S
C382 H374 0.950 . S
C382 C380 1.391 . S
C382 C383 1.400 . S
C383 C382 1.400 . S
C383 C384 1.398 . S
C383 C389 1.491 . S
C384 H375 0.950 . S
C384 C383 1.398 . S
C384 C385 1.391 . S
C385 H373 0.950 . S
C385 C381 1.393 . S
C385 C384 1.391 . S
C386 H376 0.950 . S
C386 C387 1.386 . S
C386 C388 1.391 . S
C387 C386 1.386 . S
C387 C391 1.393 . S
C388 H377 0.950 . S
C388 C386 1.391 . S
C388 C389 1.400 . S
C389 C383 1.491 . S
C389 C388 1.400 . S
C389 C390 1.398 . S
C390 H378 0.950 . S
C390 C389 1.398 . S
C390 C391 1.391 . S
C391 H379 0.950 . S
C391 C387 1.393 . S
C391 C390 1.391 . S
H392 C400 0.950 . S
H393 C405 0.950 . S
H394 C402 0.950 . S
H395 C404 0.950 . S
H396 C406 0.950 . S
H397 C408 0.950 . S
H398 C410 0.950 . S
H399 C411 0.950 . S
C400 H392 0.950 . S
C400 C401 1.386 . S
C400 C402 1.391 . S
C401 C400 1.386 . S
C401 C405 1.393 . S
C402 H394 0.950 . S
C402 C400 1.391 . S
C402 C403 1.400 . S
C403 C402 1.400 . S
C403 C404 1.398 . S
C403 C409 1.491 . S
C404 H395 0.950 . S
C404 C403 1.398 . S
C404 C405 1.391 . S
C405 H393 0.950 . S
C405 C401 1.393 . S
C405 C404 1.391 . S
C406 H396 0.950 . S
C406 C407 1.386 . S
C406 C408 1.391 . S
C407 C406 1.386 . S
C407 C411 1.393 . S
C408 H397 0.950 . S
C408 C406 1.391 . S
C408 C409 1.400 . S
C409 C403 1.491 . S
C409 C408 1.400 . S
C409 C410 1.398 . S
C410 H398 0.950 . S
C410 C409 1.398 . S
C410 C411 1.391 . S
C411 H399 0.950 . S
C411 C407 1.393 . S
C411 C410 1.391 . S
H412 C420 0.950 . S
H413 C425 0.950 . S
H414 C422 0.950 . S
H415 C424 0.950 . S
H416 C426 0.950 . S
H417 C428 0.950 . S
H418 C430 0.950 . S
H419 C431 0.950 . S
C420 H412 0.950 . S
C420 C421 1.386 . S
C420 C422 1.391 . S
C421 C420 1.386 . S
C421 C425 1.393 . S
C422 H414 0.950 . S
C422 C420 1.391 . S
C422 C423 1.400 . S
C423 C422 1.400 . S
C423 C424 1.398 . S
C423 C429 1.491 . S
C424 H415 0.950 . S
C424 C423 1.398 . S
C424 C425 1.391 . S
C425 H413 0.950 . S
C425 C421 1.393 . S
C425 C424 1.391 . S
C426 H416 0.950 . S
C426 C427 1.386 . S
C426 C428 1.391 . S
C427 C426 1.386 . S
C427 C431 1.393 . S
C428 H417 0.950 . S
C428 C426 1.391 . S
C428 C429 1.400 . S
C429 C423 1.491 . S
C429 C428 1.400 . S
C429 C430 1.398 . S
C430 H418 0.950 . S
C430 C429 1.398 . S
C430 C431 1.391 . S
C431 H419 0.950 . S
C431 C427 1.393 . S
C431 C430 1.391 . S
H432 C440 0.950 . S
H433 C445 0.950 . S
H434 C442 0.950 . S
H435 C444 0.950 . S
H436 C446 0.950 . S
H437 C448 0.950 . S
H438 C450 0.950 . S
H439 C451 0.950 . S
C440 H432 0.950 . S
C440 C441 1.386 . S
C440 C442 1.391 . S
C441 C440 1.386 . S
C441 C445 1.393 . S
C442 H434 0.950 . S
C442 C440 1.391 . S
C442 C443 1.400 . S
C443 C442 1.400 . S
C443 C444 1.398 . S
C443 C449 1.491 . S
C444 H435 0.950 . S
C444 C443 1.398 . S
C444 C445 1.391 . S
C445 H433 0.950 . S
C445 C441 1.393 . S
C445 C444 1.391 . S
C446 H436 0.950 . S
C446 C447 1.386 . S
C446 C448 1.391 . S
C447 C446 1.386 . S
C447 C451 1.393 . S
C448 H437 0.950 . S
C448 C446 1.391 . S
C448 C449 1.400 . S
C449 C443 1.491 . S
C449 C448 1.400 . S
C449 C450 1.398 . S
C450 H438 0.950 . S
C450 C449 1.398 . S
C450 C451 1.391 . S
C451 H439 0.950 . S
C451 C447 1.393 . S
C451 C450 1.391 . S
H452 C460 0.950 . S
H453 C465 0.950 . S
H454 C462 0.950 . S
H455 C464 0.950 . S
H456 C466 0.950 . S
H457 C468 0.950 . S
H458 C470 0.950 . S
H459 C471 0.950 . S
C460 H452 0.950 . S
C460 C461 1.386 . S
C460 C462 1.391 . S
C461 C460 1.386 . S
C461 C465 1.393 . S
C462 H454 0.950 . S
C462 C460 1.391 . S
C462 C463 1.400 . S
C463 C462 1.400 . S
C463 C464 1.398 . S
C463 C469 1.491 . S
C464 H455 0.950 . S
C464 C463 1.398 . S
C464 C465 1.391 . S
C465 H453 0.950 . S
C465 C461 1.393 . S
C465 C464 1.391 . S
C466 H456 0.950 . S
C466 C467 1.386 . S
C466 C468 1.391 . S
C467 C466 1.386 . S
C467 C471 1.393 . S
C468 H457 0.950 . S
C468 C466 1.391 . S
C468 C469 1.400 . S
C469 C463 1.491 . S
C469 C468 1.400 . S
C469 C470 1.398 . S
C470 H458 0.950 . S
C470 C469 1.398 . S
C470 C471 1.391 . S
C471 H459 0.950 . S
C471 C467 1.393 . S
C471 C470 1.391 . S
H472 C480 0.950 . S
H473 C485 0.950 . S
H474 C482 0.950 . S
H475 C484 0.950 . S
H476 C486 0.950 . S
H477 C488 0.950 . S
H478 C490 0.950 . S
H479 C491 0.950 . S
C480 H472 0.950 . S
C480 C481 1.386 . S
C480 C482 1.391 . S
C481 C480 1.386 . S
C481 C485 1.393 . S
C482 H474 0.950 . S
C482 C480 1.391 . S
C482 C483 1.400 . S
C483 C482 1.400 . S
C483 C484 1.398 . S
C483 C489 1.491 . S
C484 H475 0.950 . S
C484 C483 1.398 . S
C484 C485 1.391 . S
C485 H473 0.950 . S
C485 C481 1.393 . S
C485 C484 1.391 . S
C486 H476 0.950 . S
C486 C487 1.386 . S
C486 C488 1.391 . S
C487 C486 1.386 . S
C487 C491 1.393 . S
C488 H477 0.950 . S
C488 C486 1.391 . S
C488 C489 1.400 . S
C489 C483 1.491 . S
C489 C488 1.400 . S
C489 C490 1.398 . S
C490 H478 0.950 . S
C490 C489 1.398 . S
C490 C491 1.391 . S
C491 H479 0.950 . S
C491 C487 1.393 . S
C491 C490 1.391 . S
H492 C500 0.950 . S
H493 C505 0.950 . S
H494 C502 0.950 . S
H495 C504 0.950 . S
H496 C506 0.950 . S
H497 C508 0.950 . S
H498 C510 0.950 . S
H499 C511 0.950 . S
C500 H492 0.950 . S
C500 C501 1.386 . S
C500 C502 1.391 . S
C501 C500 1.386 . S
C501 C505 1.393 . S
C502 H494 0.950 . S
C502 C500 1.391 . S
C502 C503 1.400 . S
C503 C502 1.400 . S
C503 C504 1.398 . S
C503 C509 1.491 . S
C504 H495 0.950 . S
C504 C503 1.398 . S
C504 C505 1.391 . S
C505 H493 0.950 . S
C505 C501 1.393 . S
C505 C504 1.391 . S
C506 H496 0.950 . S
C506 C507 1.386 . S
C506 C508 1.391 . S
C507 C506 1.386 . S
C507 C511 1.393 . S
C508 H497 0.950 . S
C508 C506 1.391 . S
C508 C509 1.400 . S
C509 C503 1.491 . S
C509 C508 1.400 . S
C509 C510 1.398 . S
C510 H498 0.950 . S
C510 C509 1.398 . S
C510 C511 1.391 . S
C511 H499 0.950 . S
C511 C507 1.393 . S
C511 C510 1.391 . S
H512 C520 0.950 . S
H513 C525 0.950 . S
H514 C522 0.950 . S
H515 C524 0.950 . S
H516 C526 0.950 . S
H517 C528 0.950 . S
H518 C530 0.950 . S
H519 C531 0.950 . S
C520 H512 0.950 . S
C520 C521 1.386 . S
C520 C522 1.391 . S
C521 C520 1.386 . S
C521 C525 1.393 . S
C522 H514 0.950 . S
C522 C520 1.391 . S
C522 C523 1.400 . S
C523 C522 1.400 . S
C523 C524 1.398 . S
C523 C529 1.491 . S
C524 H515 0.950 . S
C524 C523 1.398 . S
C524 C525 1.391 . S
C525 H513 0.950 . S
C525 C521 1.393 . S
C525 C524 1.391 . S
C526 H516 0.950 . S
C526 C527 1.386 . S
C526 C528 1.391 . S
C527 C526 1.386 . S
C527 C531 1.393 . S
C528 H517 0.950 . S
C528 C526 1.391 . S
C528 C529 1.400 . S
C529 C523 1.491 . S
C529 C528 1.400 . S
C529 C530 1.398 . S
C530 H518 0.950 . S
C530 C529 1.398 . S
C530 C531 1.391 . S
C531 H519 0.950 . S
C531 C527 1.393 . S
C531 C530 1.391 . S
H532 C540 0.950 . S
H533 C545 0.950 . S
H534 C542 0.950 . S
H535 C544 0.950 . S
H536 C546 0.950 . S
H537 C548 0.950 . S
H538 C550 0.950 . S
H539 C551 0.950 . S
C540 H532 0.950 . S
C540 C541 1.386 . S
C540 C542 1.391 . S
C541 C540 1.386 . S
C541 C545 1.393 . S
C542 H534 0.950 . S
C542 C540 1.391 . S
C542 C543 1.400 . S
C543 C542 1.400 . S
C543 C544 1.398 . S
C543 C549 1.491 . S
C544 H535 0.950 . S
C544 C543 1.398 . S
C544 C545 1.391 . S
C545 H533 0.950 . S
C545 C541 1.393 . S
C545 C544 1.391 . S
C546 H536 0.950 . S
C546 C547 1.386 . S
C546 C548 1.391 . S
C547 C546 1.386 . S
C547 C551 1.393 . S
C548 H537 0.950 . S
C548 C546 1.391 . S
C548 C549 1.400 . S
C549 C543 1.491 . S
C549 C548 1.400 . S
C549 C550 1.398 . S
C550 H538 0.950 . S
C550 C549 1.398 . S
C550 C551 1.391 . S
C551 H539 0.950 . S
C551 C547 1.393 . S
C551 C550 1.391 . S
H552 C560 0.950 . S
H553 C565 0.950 . S
H554 C562 0.950 . S
H555 C564 0.950 . S
H556 C566 0.935 1_556 S
H557 C568 0.950 . S
H558 C570 0.950 . S
H559 C571 0.950 1_556 S
C560 H552 0.950 . S
C560 C561 1.386 1_655 S
C560 C562 1.391 . S
C561 C560 1.386 1_455 S
C561 C565 1.393 . S
C562 H554 0.950 . S
C562 C560 1.391 . S
C562 C563 1.400 1_655 S
C563 C562 1.400 1_455 S
C563 C564 1.398 . S
C563 C569 1.491 . S
C564 H555 0.950 . S
C564 C563 1.398 . S
C564 C565 1.391 . S
C565 H553 0.950 . S
C565 C561 1.393 . S
C565 C564 1.391 . S
C566 H556 0.935 1_554 S
C566 C567 1.386 1_554 S
C566 C568 1.391 . S
C567 C566 1.386 1_556 S
C567 C571 1.393 1_456 S
C568 H557 0.950 . S
C568 C566 1.391 . S
C568 C569 1.400 . S
C569 C563 1.491 . S
C569 C568 1.400 . S
C569 C570 1.398 1_455 S
C570 H558 0.950 . S
C570 C569 1.398 1_655 S
C570 C571 1.391 . S
C571 H559 0.950 1_554 S
C571 C567 1.393 1_654 S
C571 C570 1.391 . S
H572 C580 0.950 . S
H573 C585 0.950 1_565 S
H574 C582 0.950 . S
H575 C584 0.950 1_565 S
H576 C586 0.950 1_565 S
H577 C588 0.950 1_565 S
H578 C590 0.950 . S
H579 C591 0.950 . S
C580 H572 0.950 . S
C580 C581 1.386 . S
C580 C582 1.391 . S
C581 C580 1.386 . S
C581 C585 1.393 . S
C582 H574 0.950 . S
C582 C580 1.391 . S
C582 C583 1.400 . S
C583 C582 1.400 . S
C583 C584 1.398 . S
C583 C589 1.491 . S
C584 H575 0.950 1_545 S
C584 C583 1.398 . S
C584 C585 1.391 . S
C585 H573 0.950 1_545 S
C585 C581 1.393 . S
C585 C584 1.391 . S
C586 H576 0.950 1_545 S
C586 C587 1.386 . S
C586 C588 1.391 . S
C587 C586 1.386 . S
C587 C591 1.393 . S
C588 H577 0.950 1_545 S
C588 C586 1.391 . S
C588 C589 1.400 . S
C589 C583 1.491 . S
C589 C588 1.400 . S
C589 C590 1.398 . S
C590 H578 0.950 . S
C590 C589 1.398 . S
C590 C591 1.391 . S
C591 H579 0.950 . S
C591 C587 1.393 . S
C591 C590 1.391 . S
H592 C600 0.950 . S
H593 C605 0.950 . S
H594 C602 0.950 . S
H595 C604 0.950 . S
H596 C606 0.950 . S
H597 C608 0.950 . S
H598 C610 0.950 . S
H599 C611 0.950 . S
C600 H592 0.950 . S
C600 C601 1.386 . S
C600 C602 1.391 . S
C601 C600 1.386 . S
C601 C605 1.393 . S
C602 H594 0.950 . S
C602 C600 1.391 . S
C602 C603 1.400 . S
C603 C602 1.400 . S
C603 C604 1.398 . S
C603 C609 1.491 . S
C604 H595 0.950 . S
C604 C603 1.398 . S
C604 C605 1.391 . S
C605 H593 0.950 . S
C605 C601 1.393 . S
C605 C604 1.391 . S
C606 H596 0.950 . S
C606 C607 1.386 . S
C606 C608 1.391 . S
C607 C606 1.386 . S
C607 C611 1.393 . S
C608 H597 0.950 . S
C608 C606 1.391 . S
C608 C609 1.400 . S
C609 C603 1.491 . S
C609 C608 1.400 . S
C609 C610 1.398 . S
C610 H598 0.950 . S
C610 C609 1.398 . S
C610 C611 1.391 . S
C611 H599 0.950 . S
C611 C607 1.393 . S
C611 C610 1.391 . S
H612 C620 0.950 . S
H613 C625 0.950 . S
H614 C622 0.950 . S
H615 C624 0.950 . S
H616 C626 0.950 . S
H617 C628 0.950 . S
H618 C630 0.950 . S
H619 C631 0.950 . S
C620 H612 0.950 . S
C620 C621 1.386 . S
C620 C622 1.391 . S
C621 C620 1.386 . S
C621 C625 1.393 1_545 S
C622 H614 0.950 . S
C622 C620 1.391 . S
C622 C623 1.400 . S
C623 C622 1.400 . S
C623 C624 1.398 1_545 S
C623 C629 1.491 . S
C624 H615 0.950 . S
C624 C623 1.398 1_565 S
C624 C625 1.391 . S
C625 H613 0.950 . S
C625 C621 1.393 1_565 S
C625 C624 1.391 . S
C626 H616 0.950 . S
C626 C627 1.386 1_565 S
C626 C628 1.391 . S
C627 C626 1.386 1_545 S
C627 C631 1.393 . S
C628 H617 0.950 . S
C628 C626 1.391 . S
C628 C629 1.400 1_565 S
C629 C623 1.491 . S
C629 C628 1.400 1_545 S
C629 C630 1.398 . S
C630 H618 0.950 . S
C630 C629 1.398 . S
C630 C631 1.391 . S
C631 H619 0.950 . S
C631 C627 1.393 . S
C631 C630 1.391 . S
H632 C640 0.950 . S
H633 C645 0.950 . S
H634 C642 0.950 . S
H635 C644 0.950 . S
H636 C646 0.958 . S
H637 C648 0.950 . S
H638 C650 0.950 . S
H639 C651 0.950 . S
C640 H632 0.950 . S
C640 C641 1.386 . S
C640 C642 1.391 . S
C641 C640 1.386 . S
C641 C645 1.393 . S
C642 H634 0.950 . S
C642 C640 1.391 . S
C642 C643 1.400 . S
C643 C642 1.400 . S
C643 C644 1.398 . S
C643 C649 1.491 . S
C644 H635 0.950 . S
C644 C643 1.398 . S
C644 C645 1.391 . S
C645 H633 0.950 . S
C645 C641 1.393 . S
C645 C644 1.391 . S
C646 H636 0.958 . S
C646 C647 1.393 . S
C646 C648 1.375 1_554 S
C647 C646 1.393 . S
C647 C651 1.393 . S
C648 H637 0.950 . S
C648 C646 1.375 1_556 S
C648 C649 1.400 . S
C649 C643 1.491 . S
C649 C648 1.400 . S
C649 C650 1.398 . S
C650 H638 0.950 . S
C650 C649 1.398 . S
C650 C651 1.391 1_556 S
C651 H639 0.950 . S
C651 C647 1.393 . S
C651 C650 1.391 1_554 S
H652 C660 0.950 . S
H653 C665 0.950 . S
H654 C662 0.950 . S
H655 C664 0.951 1_655 S
H656 C666 0.949 . S
H657 C668 0.950 . S
H658 C670 0.950 . S
H659 C671 0.961 . S
C660 H652 0.950 . S
C660 C661 1.386 . S
C660 C662 1.391 . S
C661 C660 1.386 . S
C661 C665 1.393 . S
C662 H654 0.950 . S
C662 C660 1.391 . S
C662 C663 1.400 . S
C663 C662 1.400 . S
C663 C664 1.397 . S
C663 C669 1.491 . S
C664 H655 0.951 1_455 S
C664 C663 1.397 . S
C664 C665 1.391 . S
C665 H653 0.950 . S
C665 C661 1.393 . S
C665 C664 1.391 . S
C666 H656 0.949 . S
C666 C667 1.379 . S
C666 C668 1.394 . S
C667 C666 1.379 . S
C667 C671 1.392 . S
C668 H657 0.950 . S
C668 C666 1.394 . S
C668 C669 1.400 . S
C669 C663 1.491 . S
C669 C668 1.400 . S
C669 C670 1.398 . S
C670 H658 0.950 . S
C670 C669 1.398 . S
C670 C671 1.391 . S
C671 H659 0.961 . S
C671 C667 1.392 . S
C671 C670 1.391 . S
C321 C24 2.901 . S
C327 C303 2.825 . S
C341 C66 1.154 . S
C347 C239 1.140 . S
C361 C93 1.804 . S
C367 C271 1.744 . S
C381 C13 3.051 . S
C387 C297 3.010 . S
C407 C233 1.242 . S
C401 C57 1.250 . S
C427 C265 1.850 . S
C421 C104 1.913 . S
C441 C64 1.917 . S
C447 C175 1.858 . S
C461 C97 0.485 . S
C467 C207 0.477 . S
C481 C17 1.290 . S
C487 C137 1.289 . S
C507 C169 1.764 . S
C501 C53 1.786 . S
C527 C201 0.305 . S
C521 C106 0.417 . S
C541 C26 1.155 . S
C547 C143 1.169 . S
C567 C213 1.080 . S
C561 C2 1.084 . S
C581 C63 1.462 . S
C587 C149 1.475 . S
C601 C82 1.374 . S
C607 C181 1.367 . S
C627 C277 1.357 . S
C621 C42 1.393 . S
C647 C309 1.740 . S
C641 C103 1.737 . S
C661 C23 1.479 . S
C667 C245 1.461 . S
