# Generated by pormake.
# Topology zzz, (3,6)-cn, num edge types: 1
# Building blocks:
#     Node 0, Type 0, BuildingBlock: INOVEN_clean_linker_0, # of connection points: 3
#     Node 1, Type 0, BuildingBlock: INOVEN_clean_linker_0, # of connection points: 3
#     Node 2, Type 0, BuildingBlock: INOVEN_clean_linker_0, # of connection points: 3
#     Node 3, Type 0, BuildingBlock: INOVEN_clean_linker_0, # of connection points: 3
#     Node 4, Type 0, BuildingBlock: INOVEN_clean_linker_0, # of connection points: 3
#     Node 5, Type 0, BuildingBlock: INOVEN_clean_linker_0, # of connection points: 3
#     Node 6, Type 0, BuildingBlock: INOVEN_clean_linker_0, # of connection points: 3
#     Node 7, Type 0, BuildingBlock: INOVEN_clean_linker_0, # of connection points: 3
#     Node 8, Type 1, BuildingBlock: MIFKUJ_clean_sbu_0, # of connection points: 6
#     Node 9, Type 1, BuildingBlock: MIFKUJ_clean_sbu_0, # of connection points: 6
#     Node 10, Type 1, BuildingBlock: MIFKUJ_clean_sbu_0, # of connection points: 6
#     Node 11, Type 1, BuildingBlock: MIFKUJ_clean_sbu_0, # of connection points: 6
#     Edge 12, Type (0, 1), BuildingBlock: CIFDUS_clean_linker_0, # of connection points: 2
#     Edge 13, Type (0, 1), BuildingBlock: CIFDUS_clean_linker_0, # of connection points: 2
#     Edge 14, Type (0, 1), BuildingBlock: CIFDUS_clean_linker_0, # of connection points: 2
#     Edge 15, Type (0, 1), BuildingBlock: CIFDUS_clean_linker_0, # of connection points: 2
#     Edge 16, Type (0, 1), BuildingBlock: CIFDUS_clean_linker_0, # of connection points: 2
#     Edge 17, Type (0, 1), BuildingBlock: CIFDUS_clean_linker_0, # of connection points: 2
#     Edge 18, Type (0, 1), BuildingBlock: CIFDUS_clean_linker_0, # of connection points: 2
#     Edge 19, Type (0, 1), BuildingBlock: CIFDUS_clean_linker_0, # of connection points: 2
#     Edge 20, Type (0, 1), BuildingBlock: CIFDUS_clean_linker_0, # of connection points: 2
#     Edge 21, Type (0, 1), BuildingBlock: CIFDUS_clean_linker_0, # of connection points: 2
#     Edge 22, Type (0, 1), BuildingBlock: CIFDUS_clean_linker_0, # of connection points: 2
#     Edge 23, Type (0, 1), BuildingBlock: CIFDUS_clean_linker_0, # of connection points: 2
#     Edge 24, Type (0, 1), BuildingBlock: CIFDUS_clean_linker_0, # of connection points: 2
#     Edge 25, Type (0, 1), BuildingBlock: CIFDUS_clean_linker_0, # of connection points: 2
#     Edge 26, Type (0, 1), BuildingBlock: CIFDUS_clean_linker_0, # of connection points: 2
#     Edge 27, Type (0, 1), BuildingBlock: CIFDUS_clean_linker_0, # of connection points: 2
#     Edge 28, Type (0, 1), BuildingBlock: CIFDUS_clean_linker_0, # of connection points: 2
#     Edge 29, Type (0, 1), BuildingBlock: CIFDUS_clean_linker_0, # of connection points: 2
#     Edge 30, Type (0, 1), BuildingBlock: CIFDUS_clean_linker_0, # of connection points: 2
#     Edge 31, Type (0, 1), BuildingBlock: CIFDUS_clean_linker_0, # of connection points: 2
#     Edge 32, Type (0, 1), BuildingBlock: CIFDUS_clean_linker_0, # of connection points: 2
#     Edge 33, Type (0, 1), BuildingBlock: CIFDUS_clean_linker_0, # of connection points: 2
#     Edge 34, Type (0, 1), BuildingBlock: CIFDUS_clean_linker_0, # of connection points: 2
#     Edge 35, Type (0, 1), BuildingBlock: CIFDUS_clean_linker_0, # of connection points: 2
# Relax obj value: 0.123
# Max RMSD: 0.123
# Mean RMSD: 0.086
data_MOF--net-zzz--node1-MIFKUJ_clean_sbu_0--node2-INOVEN_clean_linker_0--edge1-CIFDUS_clean_linker_0
_symmetry_space_group_name_H-M    P1
_symmetry_Int_Tables_number       1
_symmetry_cell_setting            triclinic
loop_
_symmetry_equiv_pos_as_xyz
'x, y, z'
_cell_length_a     44.364626
_cell_length_b     44.211444
_cell_length_c     14.23167
_cell_angle_alpha  89.760139
_cell_angle_beta   90.345128
_cell_angle_gamma 89.652682
loop_
_atom_site_label
_atom_site_type_symbol
_atom_site_fract_x
_atom_site_fract_y
_atom_site_fract_z
_atom_type_partial_charge
H0 H 0.74059 0.47247 0.25738 0.0
H1 H 0.81874 0.51069 0.12388 0.0
H2 H 0.73842 0.49734 0.96407 0.0
N3 N 0.70502 0.47539 0.09735 0.0
N4 N 0.68726 0.49149 0.04997 0.0
C5 C 0.7512 0.4828 0.19702 0.0
C6 C 0.78144 0.49327 0.20321 0.0
C7 C 0.73494 0.48605 0.11116 0.0
C8 C 0.74974 0.49731 0.03186 0.0
C9 C 0.77974 0.50571 0.03656 0.0
C10 C 0.79495 0.50506 0.12242 0.0
H11 H 0.96327 0.71711 0.24853 0.0
H12 H 0.93797 0.8079 0.16734 0.0
H13 H 0.93571 0.73806 0.96375 0.0
N14 N 0.95336 0.69264 0.07397 0.0
N15 N 0.94159 0.68432 -0.00162 0.0
C16 C 0.95394 0.73274 0.19716 0.0
C17 C 0.94936 0.76359 0.22068 0.0
C18 C 0.94718 0.72277 0.10478 0.0
C19 C 0.93786 0.7443 0.03709 0.0
C20 C 0.93538 0.77467 0.05959 0.0
C21 C 0.93915 0.78386 0.15181 0.0
H22 H 0.77697 0.01228 0.26389 0.0
H23 H 0.69693 0.98758 0.10877 0.0
H24 H 0.77996 0.99761 0.96406 0.0
N25 N 0.81437 0.00913 0.10908 0.0
N26 N 0.82974 0.99315 0.05477 0.0
C27 C 0.76604 0.00562 0.19906 0.0
C28 C 0.73451 1e-05 0.19677 0.0
C29 C 0.78295 0.00305 0.11483 0.0
C30 C 0.76787 0.99697 0.03006 0.0
C31 C 0.73719 0.99169 0.02843 0.0
C32 C 0.72105 0.99162 0.11172 0.0
H33 H 0.53945 0.77685 0.24451 0.0
H34 H 0.55167 0.68785 0.12744 0.0
H35 H 0.55597 0.76491 0.94794 0.0
N36 N 0.54793 0.80683 0.07682 0.0
N37 N 0.5633 0.81675 0.01024 0.0
C38 C 0.54462 0.76239 0.18547 0.0
C39 C 0.54675 0.73056 0.19779 0.0
C40 C 0.5495 0.77512 0.09524 0.0
C41 C 0.5542 0.75576 0.0185 0.0
C42 C 0.55493 0.72463 0.0302 0.0
C43 C 0.5522 0.71228 0.11968 0.0
H44 H 0.27875 0.50495 0.96624 0.0
H45 H 0.19363 0.48471 0.09819 0.0
H46 H 0.27172 0.49609 0.26813 0.0
N47 N 0.31021 0.50801 0.13352 0.0
N48 N 0.31665 0.525 0.2007 0.0
C49 C 0.26557 0.49994 0.0281 0.0
C50 C 0.23427 0.49341 0.01952 0.0
C51 C 0.27927 0.50092 0.11865 0.0
C52 C 0.26174 0.49515 0.19844 0.0
C53 C 0.23136 0.48892 0.18965 0.0
C54 C 0.21784 0.48795 0.10157 0.0
H55 H 0.05787 0.28446 0.96565 0.0
H56 H 0.06186 0.19191 0.05757 0.0
H57 H 0.05352 0.26222 0.26113 0.0
N58 N 0.05025 0.30814 0.1398 0.0
N59 N 0.03614 0.31365 0.21354 0.0
C60 C 0.05917 0.26801 0.02215 0.0
C61 C 0.06236 0.23694 0.00183 0.0
C62 C 0.0559 0.27733 0.1164 0.0
C63 C 0.056 0.25537 0.18857 0.0
C64 C 0.05782 0.2246 0.16806 0.0
C65 C 0.06187 0.21578 0.07502 0.0
H66 H 0.22158 0.00655 0.95141 0.0
H67 H 0.3136 0.00883 0.05176 0.0
H68 H 0.24212 0.01614 0.24789 0.0
N69 N 0.19646 0.00981 0.128 0.0
N70 N 0.19064 0.00143 0.20992 0.0
C71 C 0.23765 0.00868 0.00851 0.0
C72 C 0.26907 0.00807 0.9904 0.0
C73 C 0.22755 0.01112 0.1027 0.0
C74 C 0.24908 0.01384 0.17536 0.0
C75 C 0.27963 0.01232 0.15678 0.0
C76 C 0.28952 0.00977 0.06512 0.0
H77 H 0.4734 0.22485 0.96433 0.0
H78 H 0.45491 0.31151 0.08985 0.0
H79 H 0.46297 0.23342 0.26389 0.0
N80 N 0.47187 0.1934 0.13091 0.0
N81 N 0.45979 0.18059 0.1994 0.0
C82 C 0.46714 0.23822 0.02481 0.0
C83 C 0.46234 0.26983 0.01559 0.0
C84 C 0.46499 0.22449 0.11469 0.0
C85 C 0.46078 0.24293 0.19377 0.0
C86 C 0.45803 0.27401 0.18428 0.0
C87 C 0.45626 0.28701 0.09556 0.0
Zn88 Zn 0.00889 0.04816 0.61709 0.0
Zn89 Zn 0.00645 0.95076 0.61242 0.0
C90 C 0.00685 0.10361 0.70204 0.0
O91 O 0.98001 0.0994 0.66491 0.0
C92 C 0.0118 0.90451 0.48223 0.0
O93 O 0.03875 0.90675 0.5201 0.0
O94 O 0.00276 0.07059 0.49693 0.0
O95 O 0.03767 0.01341 0.58433 0.0
O96 O 0.04771 0.96466 0.57875 0.0
C97 C 0.02912 0.07741 0.46965 0.0
O98 O 0.05261 0.06756 0.51751 0.0
O99 O 0.0261 0.0821 0.69765 0.0
C100 C 0.98499 0.90435 0.71338 0.0
O101 O 0.96326 0.91088 0.65344 0.0
O102 O 0.00866 0.92035 0.71415 0.0
O103 O 0.98128 0.98598 0.6642 0.0
O104 O 0.97063 0.03408 0.68196 0.0
O105 O 0.99193 0.92451 0.5021 0.0
C106 C 0.05552 0.99178 0.56404 0.0
C107 C 0.96459 0.00656 0.69967 0.0
Zn108 Zn 0.46392 0.9884 0.61316 0.0
Zn109 Zn 0.54573 0.01328 0.63334 0.0
C110 C 0.41429 0.96996 0.71956 0.0
O111 O 0.4231 0.94448 0.68092 0.0
C112 C 0.58434 0.01931 0.48828 0.0
O113 O 0.58237 0.04579 0.52923 0.0
O114 O 0.44018 0.97622 0.50199 0.0
O115 O 0.48238 0.02842 0.5776 0.0
O116 O 0.5253 0.05219 0.59464 0.0
C117 C 0.42058 0.997 0.49154 0.0
O118 O 0.42225 0.02121 0.54439 0.0
O119 O 0.43065 0.99333 0.70978 0.0
C120 C 0.5943 0.99269 0.71468 0.0
O121 O 0.58065 0.9701 0.67327 0.0
O122 O 0.58276 0.01913 0.71006 0.0
O123 O 0.52363 0.98475 0.72506 0.0
O124 O 0.491 0.95474 0.65519 0.0
O125 O 0.56695 0.99803 0.51492 0.0
C126 C 0.4984 0.0517 0.56431 0.0
C127 C 0.5123 0.95871 0.71327 0.0
Zn128 Zn 0.50846 0.45649 0.60696 0.0
Zn129 Zn 0.50627 0.53971 0.62241 0.0
C130 C 0.51596 0.4154 0.75064 0.0
O131 O 0.54247 0.41695 0.7105 0.0
C132 C 0.51278 0.58505 0.49494 0.0
O133 O 0.48519 0.5868 0.52764 0.0
O134 O 0.50853 0.42056 0.52379 0.0
O135 O 0.47581 0.48253 0.54228 0.0
O136 O 0.4655 0.53046 0.57021 0.0
C137 C 0.48196 0.40976 0.52828 0.0
O138 O 0.4613 0.42431 0.57639 0.0
O139 O 0.49553 0.4343 0.726 0.0
C140 C 0.53435 0.57958 0.72603 0.0
O141 O 0.55515 0.5623 0.68821 0.0
O142 O 0.50658 0.57426 0.71018 0.0
O143 O 0.52497 0.5083 0.71167 0.0
O144 O 0.55017 0.47346 0.6368 0.0
O145 O 0.52878 0.56183 0.51695 0.0
C146 C 0.45984 0.50608 0.52714 0.0
C147 C 0.54885 0.49267 0.70273 0.0
Zn148 Zn 0.03642 0.51209 0.58459 0.0
Zn149 Zn 0.97351 0.49113 0.65953 0.0
C150 C 0.08819 0.51491 0.70555 0.0
O151 O 0.08859 0.54176 0.66566 0.0
C152 C 0.93002 0.48578 0.51991 0.0
O153 O 0.9319 0.45913 0.56078 0.0
O154 O 0.06674 0.52524 0.49141 0.0
O155 O 0.01603 0.47695 0.51526 0.0
O156 O 0.99275 0.45187 0.62707 0.0
C157 C 0.08387 0.50261 0.47689 0.0
O158 O 0.07653 0.47619 0.5123 0.0
O159 O 0.06557 0.49775 0.69008 0.0
C160 C 0.92581 0.51329 0.74454 0.0
O161 O 0.93895 0.53605 0.70236 0.0
O162 O 0.93774 0.48702 0.74113 0.0
O163 O 0.99891 0.51875 0.74221 0.0
O164 O 0.01284 0.54883 0.62924 0.0
O165 O 0.94968 0.50573 0.54196 0.0
C166 C 0.00537 0.45234 0.54723 0.0
C167 C 0.00562 0.54502 0.71442 0.0
H168 H 0.18182 0.97943 0.37462 0.0
H169 H 0.13669 0.02576 0.14753 0.0
H170 H 0.09055 0.02974 0.24303 0.0
H171 H 0.06333 0.01905 0.39351 0.0
H172 H 0.11041 0.97232 0.61732 0.0
H173 H 0.15594 0.96996 0.52216 0.0
C174 C 0.16164 0.9901 0.34612 0.0
C175 C 0.16222 0.00175 0.25469 0.0
C176 C 0.13598 0.99284 0.40194 0.0
C177 C 0.13644 0.0161 0.21754 0.0
C178 C 0.11029 0.01867 0.27267 0.0
C179 C 0.08393 0.00932 0.42213 0.0
C180 C 0.08397 0.99671 0.51344 0.0
C181 C 0.1099 0.00729 0.36552 0.0
C182 C 0.11023 0.98283 0.54838 0.0
C183 C 0.13608 0.98116 0.49361 0.0
H184 H 0.42868 0.14881 0.31872 0.0
H185 H 0.51388 0.15202 0.17661 0.0
H186 H 0.53405 0.11251 0.28173 0.0
H187 H 0.52818 0.07974 0.4226 0.0
H188 H 0.44243 0.07698 0.56321 0.0
H189 H 0.42163 0.11375 0.45113 0.0
C190 C 0.45134 0.14003 0.30923 0.0
C191 C 0.46955 0.15277 0.23956 0.0
C192 C 0.46284 0.11804 0.37137 0.0
C193 C 0.49919 0.142 0.22847 0.0
C194 C 0.51084 0.1198 0.28966 0.0
C195 C 0.50506 0.08753 0.42912 0.0
C196 C 0.48691 0.07605 0.50188 0.0
C197 C 0.4931 0.10828 0.36309 0.0
C198 C 0.45678 0.08559 0.50809 0.0
C199 C 0.44489 0.10652 0.44387 0.0
H200 H 0.36217 0.48384 0.20669 0.0
H201 H 0.33492 0.57309 0.29174 0.0
H202 H 0.37772 0.57585 0.40036 0.0
H203 H 0.41968 0.55092 0.48264 0.0
H204 H 0.44606 0.4604 0.40422 0.0
H205 H 0.40703 0.45998 0.28231 0.0
C206 C 0.3664 0.50427 0.24637 0.0
C207 C 0.34593 0.52868 0.23974 0.0
C208 C 0.39042 0.50508 0.312 0.0
C209 C 0.35094 0.55451 0.2942 0.0
C210 C 0.3751 0.55585 0.35732 0.0
C211 C 0.41694 0.53104 0.43911 0.0
C212 C 0.43551 0.50553 0.45437 0.0
C213 C 0.39442 0.53091 0.36902 0.0
C214 C 0.43174 0.48017 0.39588 0.0
C215 C 0.40953 0.47998 0.32538 0.0
H216 H 1.00122 0.3242 0.35486 0.0
H217 H 0.06073 0.36775 0.15975 0.0
H218 H 0.05538 0.41567 0.24578 0.0
H219 H 0.03583 0.44387 0.38283 0.0
H220 H 0.9773 0.39864 0.57951 0.0
H221 H 0.98005 0.35258 0.48643 0.0
C222 C 0.01253 0.34446 0.33067 0.0
C223 C 0.03099 0.34277 0.25153 0.0
C224 C 0.00974 0.37138 0.38128 0.0
C225 C 0.04607 0.36874 0.22021 0.0
C226 C 0.04316 0.39598 0.26981 0.0
C227 C 0.02356 0.42399 0.40517 0.0
C228 C 0.00655 0.42469 0.48874 0.0
C229 C 0.02541 0.39739 0.35146 0.0
C230 C 0.99078 0.39871 0.5163 0.0
C231 C 0.99226 0.37236 0.46294 0.0
H232 H 0.86847 0.95464 0.98498 0.0
H233 H 0.85354 0.04934 0.03528 0.0
H234 H 0.89467 0.0621 0.92769 0.0
H235 H 0.93145 0.04601 0.80695 0.0
H236 H 0.94586 0.95093 0.75883 0.0
H237 H 0.9085 0.93844 0.87705 0.0
C238 C 0.87512 0.978 0.97491 0.0
C239 C 0.85853 0.0009 0.01924 0.0
C240 C 0.89812 0.98503 0.91108 0.0
C241 C 0.86658 0.03124 0.00409 0.0
C242 C 0.88972 0.0385 0.9411 0.0
C243 C 0.92641 0.02253 0.82201 0.0
C244 C 0.94117 0.99931 0.77148 0.0
C245 C 0.90502 0.01557 0.89186 0.0
C246 C 0.93458 0.96914 0.79418 0.0
C247 C 0.9133 0.96202 0.86271 0.0
H248 H 0.51892 0.85937 0.03448 0.0
H249 H 0.60029 0.83752 0.88535 0.0
H250 H 0.59199 0.88003 0.77834 0.0
H251 H 0.55913 0.91997 0.71755 0.0
H252 H 0.47858 0.94452 0.86647 0.0
H253 H 0.48851 0.90427 0.98277 0.0
C254 C 0.53523 0.86465 0.98054 0.0
C255 C 0.56053 0.84572 0.96799 0.0
C256 C 0.53004 0.88913 0.91818 0.0
C257 C 0.58111 0.85231 0.89668 0.0
C258 C 0.57616 0.8763 0.83489 0.0
C259 C 0.54418 0.917 0.7767 0.0
C260 C 0.51834 0.93507 0.78414 0.0
C261 C 0.55036 0.89437 0.84348 0.0
C262 C 0.49857 0.93052 0.85951 0.0
C263 C 0.50433 0.90766 0.92603 0.0
H264 H 0.6354 0.52071 0.0451 0.0
H265 H 0.68053 0.4405 0.94929 0.0
H266 H 0.64114 0.43283 0.82969 0.0
H267 H 0.59668 0.45315 0.74006 0.0
H268 H 0.55009 0.53135 0.84991 0.0
H269 H 0.58693 0.53565 0.97489 0.0
C270 C 0.63579 0.50084 0.00064 0.0
C271 C 0.66034 0.48091 0.00717 0.0
C272 C 0.61323 0.49681 0.9321 0.0
C273 C 0.66124 0.45563 0.94753 0.0
C274 C 0.63902 0.45163 0.87785 0.0
C275 C 0.59453 0.47102 0.79153 0.0
C276 C 0.57114 0.49269 0.78213 0.0
C277 C 0.61538 0.47275 0.8672 0.0
C278 C 0.56836 0.51505 0.85194 0.0
C279 C 0.58931 0.5174 0.92479 0.0
H280 H 0.98376 0.64021 0.03892 0.0
H281 H 0.91595 0.66992 0.84085 0.0
H282 H 0.93166 0.63121 0.72941 0.0
H283 H 0.96602 0.59041 0.68486 0.0
H284 H 0.02964 0.55526 0.88749 0.0
H285 H 0.01511 0.59483 -0.00039 0.0
C286 C 0.97217 0.6377 0.97218 0.0
C287 C 0.94866 0.65776 0.94733 0.0
C288 C 0.98119 0.61497 0.90839 0.0
C289 C 0.93389 0.6544 0.86081 0.0
C290 C 0.94308 0.63257 0.79681 0.0
C291 C 0.97685 0.59167 0.75328 0.0
C292 C 0.99932 0.57064 0.77739 0.0
C293 C 0.96706 0.61313 0.81896 0.0
C294 C 0.01266 0.57179 0.86711 0.0
C295 C 0.00416 0.59418 0.9314 0.0
H296 H 0.08382 0.16927 0.18727 0.0
H297 H 0.01607 0.22738 0.3092 0.0
H298 H 0.99935 0.18594 0.40941 0.0
H299 H 0.00262 0.13229 0.45732 0.0
H300 H 0.06915 0.07441 0.32986 0.0
H301 H 0.08627 0.11615 0.23126 0.0
C302 C 0.06524 0.17287 0.23521 0.0
C303 C 0.05111 0.20131 0.23993 0.0
C304 C 0.05472 0.14868 0.28876 0.0
C305 C 0.02768 0.20583 0.30476 0.0
C306 C 0.01769 0.182 0.36091 0.0
C307 C 0.02023 0.1288 0.40581 0.0
C308 C 0.03423 0.10042 0.39821 0.0
C309 C 0.03059 0.15315 0.35187 0.0
C310 C 0.0578 0.09609 0.33456 0.0
C311 C 0.06784 0.11998 0.27949 0.0
H312 H 0.31986 0.9685 0.19437 0.0
H313 H 0.28799 0.05549 0.28851 0.0
H314 H 0.3288 0.05754 0.40487 0.0
H315 H 0.37507 0.03645 0.46906 0.0
H316 H 0.40778 0.94944 0.37551 0.0
H317 H 0.3646 0.94532 0.26848 0.0
C318 C 0.32191 0.98771 0.24117 0.0
C319 C 0.30163 0.01202 0.23334 0.0
C320 C 0.34542 0.98878 0.30641 0.0
C321 C 0.30368 0.03669 0.29427 0.0
C322 C 0.32696 0.03789 0.35995 0.0
C323 C 0.37286 0.01654 0.42531 0.0
C324 C 0.3948 0.99357 0.42822 0.0
C325 C 0.34827 0.01439 0.36481 0.0
C326 C 0.39135 0.96766 0.37273 0.0
C327 C 0.3667 0.96525 0.31207 0.0
H328 H 0.42279 0.30174 0.31268 0.0
H329 H 0.51459 0.28982 0.22282 0.0
H330 H 0.53126 0.32991 0.32832 0.0
H331 H 0.51858 0.37197 0.43169 0.0
H332 H 0.42653 0.3841 0.52191 0.0
H333 H 0.41114 0.34003 0.4324 0.0
C334 C 0.44645 0.30758 0.31863 0.0
C335 C 0.46757 0.29333 0.26145 0.0
C336 C 0.45574 0.33082 0.37833 0.0
C337 C 0.49821 0.30077 0.26776 0.0
C338 C 0.50766 0.32371 0.32721 0.0
C339 C 0.49522 0.36483 0.43214 0.0
C340 C 0.47364 0.38165 0.48091 0.0
C341 C 0.48646 0.33954 0.38048 0.0
C342 C 0.44353 0.37182 0.48299 0.0
C343 C 0.43465 0.34659 0.43207 0.0
H344 H 0.2038 0.53542 0.27053 0.0
H345 H 0.21416 0.43859 0.28272 0.0
H346 H 0.16923 0.43469 0.38115 0.0
H347 H 0.12362 0.45819 0.44094 0.0
H348 H 0.11086 0.55493 0.41911 0.0
H349 H 0.16032 0.55972 0.34565 0.0
C350 C 0.19668 0.5137 0.29818 0.0
C351 C 0.21194 0.48732 0.27154 0.0
C352 C 0.17012 0.51164 0.34971 0.0
C353 C 0.20268 0.45906 0.30469 0.0
C354 C 0.17687 0.45687 0.35934 0.0
C355 C 0.13165 0.48039 0.42055 0.0
C356 C 0.11345 0.50611 0.43323 0.0
C357 C 0.15976 0.48288 0.37834 0.0
C358 C 0.12429 0.53474 0.40784 0.0
C359 C 0.15259 0.53751 0.36673 0.0
H360 H 0.98569 0.80419 0.0254 0.0
H361 H 0.89418 0.79395 0.92821 0.0
H362 H 0.90231 0.83303 0.80748 0.0
H363 H 0.93495 0.8711 0.73682 0.0
H364 H 0.02661 0.88117 0.83601 0.0
H365 H 0.01904 0.8405 0.94991 0.0
C366 C 0.96758 0.81072 0.97763 0.0
C367 C 0.93926 0.79714 0.98545 0.0
C368 C 0.97249 0.83284 0.90984 0.0
C369 C 0.91595 0.80475 0.92302 0.0
C370 C 0.92066 0.8269 0.8546 0.0
C371 C 0.95332 0.86438 0.78318 0.0
C372 C 0.98116 0.87927 0.77933 0.0
C373 C 0.94873 0.8413 0.84844 0.0
C374 C 0.00487 0.87021 0.83891 0.0
C375 C 1.00058 0.84701 0.9037 0.0
H376 H 0.70195 0.94761 0.96236 0.0
H377 H 0.7334 0.03762 0.9035 0.0
H378 H 0.6915 0.04596 0.7938 0.0
H379 H 0.64153 0.03032 0.73665 0.0
H380 H 0.60989 0.94045 0.79998 0.0
H381 H 0.65606 0.92931 0.88697 0.0
C382 C 0.70012 0.96852 0.92238 0.0
C383 C 0.72024 0.992 0.94016 0.0
C384 C 0.67548 0.9735 0.8631 0.0
C385 C 0.71805 0.0192 0.88934 0.0
C386 C 0.69387 0.02415 0.82822 0.0
C387 C 0.64494 0.00837 0.76958 0.0
C388 C 0.62239 0.98649 0.76451 0.0
C389 C 0.67164 0.002 0.81854 0.0
C390 C 0.62703 0.95774 0.80454 0.0
C391 C 0.6534 0.95128 0.85376 0.0
H392 H 0.58918 0.67532 -0.0019 0.0
H393 H 0.51589 0.72861 0.88355 0.0
H394 H 0.50326 0.68798 0.77483 0.0
H395 H 0.50884 0.63481 0.72873 0.0
H396 H 0.58234 0.58171 0.84275 0.0
H397 H 0.59876 0.62447 0.93767 0.0
C398 C 0.57093 0.67816 0.94762 0.0
C399 C 0.55326 0.70447 0.94887 0.0
C400 C 0.56324 0.65447 0.88796 0.0
C401 C 0.52985 0.70842 0.88304 0.0
C402 C 0.52233 0.68508 0.82206 0.0
C403 C 0.52833 0.63276 0.77484 0.0
C404 C 0.54385 0.60525 0.78196 0.0
C405 C 0.53804 0.65757 0.82702 0.0
C406 C 0.56975 0.60274 0.83855 0.0
C407 C 0.57927 0.62715 0.89202 0.0
H408 H 0.81429 0.55226 0.98068 0.0
H409 H 0.78627 0.46229 0.90637 0.0
H410 H 0.82936 0.45692 0.80192 0.0
H411 H 0.87938 0.47458 0.7551 0.0
H412 H 0.90745 0.56471 0.82876 0.0
H413 H 0.85995 0.57344 0.91042 0.0
C414 C 0.81713 0.53206 0.93848 0.0
C415 C 0.79765 0.50765 0.95089 0.0
C416 C 0.84236 0.52881 0.88123 0.0
C417 C 0.80112 0.48141 0.8967 0.0
C418 C 0.82597 0.47814 0.83842 0.0
C419 C 0.87494 0.49606 0.78918 0.0
C420 C 0.89692 0.51856 0.78963 0.0
C421 C 0.84754 0.50106 0.8344 0.0
C422 C 0.89083 0.54684 0.83009 0.0
C423 C 0.86372 0.55191 0.87614 0.0
H424 H 0.01187 0.23017 0.90176 0.0
H425 H 0.10694 0.21075 0.89933 0.0
H426 H 0.09824 0.1664 0.80065 0.0
H427 H 0.06239 0.12802 0.74098 0.0
H428 H 0.96691 0.14685 0.75409 0.0
H429 H 0.97681 0.19588 0.824 0.0
C430 C 0.03078 0.2172 0.87492 0.0
C431 C 0.05998 0.22388 0.90675 0.0
C432 C 0.02534 0.19059 0.82411 0.0
C433 C 0.08431 0.20642 0.87386 0.0
C434 C 0.07922 0.18054 0.81971 0.0
C435 C 0.04382 0.14292 0.75895 0.0
C436 C 0.01394 0.13344 0.74384 0.0
C437 C 0.04965 0.17145 0.79912 0.0
C438 C 0.99013 0.15332 0.76581 0.0
C439 C 0.99574 0.18154 0.80535 0.0
H440 H 0.2879 0.95604 0.9142 0.0
H441 H 0.28606 0.05232 0.87011 0.0
H442 H 0.33281 0.04921 0.78034 0.0
H443 H 0.37852 0.02008 0.73834 0.0
H444 H 0.38104 0.92385 0.7898 0.0
H445 H 0.33025 0.92596 0.85447 0.0
C446 C 0.29681 0.97603 0.87995 0.0
C447 C 0.28324 0.00429 0.89747 0.0
C448 C 0.32476 0.97426 0.83413 0.0
C449 C 0.29556 0.03022 0.85539 0.0
C450 C 0.32284 0.02853 0.80655 0.0
C451 C 0.36795 -0.00038 0.764 0.0
C452 C 0.38382 0.97195 0.76127 0.0
C453 C 0.33844 0.0009 0.8 0.0
C454 C 0.36951 0.9455 0.79244 0.0
C455 C 0.34035 0.94664 0.82873 0.0
H456 H 0.51563 0.29479 0.98526 0.0
H457 H 0.42595 0.2888 0.87078 0.0
H458 H 0.43392 0.33543 0.77996 0.0
H459 H 0.46495 0.38099 0.7474 0.0
H460 H 0.55313 0.38783 0.87453 0.0
H461 H 0.54678 0.33862 0.94995 0.0
C462 C 0.49839 0.30298 0.93685 0.0
C463 C 0.47064 0.28787 0.93209 0.0
C464 C 0.50231 0.33089 0.89146 0.0
C465 C 0.44788 0.29942 0.87275 0.0
C466 C 0.45218 0.32654 0.82303 0.0
C467 C 0.48246 0.37185 0.79303 0.0
C468 C 0.50926 0.38822 0.8071 0.0
C469 C 0.47888 0.34311 0.83489 0.0
C470 C 0.53217 0.3758 0.86397 0.0
C471 C 0.52872 0.34751 0.90605 0.0
H472 H 0.19031 0.45539 0.95857 0.0
H473 H 0.23625 0.53754 0.8828 0.0
H474 H 0.19535 0.55036 0.77278 0.0
H475 H 0.14301 0.54232 0.71855 0.0
H476 H 0.095 0.4628 0.80918 0.0
H477 H 0.13958 0.44566 0.89688 0.0
C478 C 0.19167 0.4759 0.91673 0.0
C479 C 0.21622 0.49574 0.93044 0.0
C480 C 0.16702 0.48424 0.8595 0.0
C481 C 0.21785 0.5218 0.87395 0.0
C482 C 0.19408 0.52944 0.81244 0.0
C483 C 0.14221 0.5212 0.75743 0.0
C484 C 0.11535 0.50411 0.75834 0.0
C485 C 0.16792 0.51159 0.80833 0.0
C486 C 0.11511 0.47657 0.80786 0.0
C487 C 0.1407 0.46668 0.85761 0.0
H488 H 0.00546 0.7825 0.25539 0.0
H489 H 0.916 0.78157 0.36999 0.0
H490 H 0.92684 0.82737 0.45999 0.0
H491 H 0.95965 0.87175 0.48804 0.0
H492 H 0.04864 0.8729 0.36806 0.0
H493 H 0.03992 0.82368 0.29598 0.0
C494 C 0.98897 0.7914 0.30424 0.0
C495 C 0.96021 0.77824 0.30769 0.0
C496 C 0.99476 0.81882 0.35066 0.0
C497 C 0.9386 0.7907 0.36848 0.0
C498 C 0.94453 0.81744 0.4177 0.0
C499 C 0.97692 0.86134 0.4451 0.0
C500 C 0.00445 0.87635 0.43113 0.0
C501 C 0.97203 0.83251 0.40566 0.0
C502 C 0.02703 0.86209 0.37813 0.0
C503 C 0.0222 0.83377 0.33782 0.0
H504 H 0.68705 0.0376 0.1958 0.0
H505 H 0.73272 0.97191 0.37061 0.0
H506 H 0.68857 0.96988 0.47474 0.0
H507 H 0.63511 0.98473 0.50877 0.0
H508 H 0.58966 0.04741 0.32256 0.0
H509 H 0.63489 0.05135 0.22644 0.0
C510 C 0.6876 0.02327 0.25794 0.0
C511 C 0.71327 0.00515 0.27601 0.0
C512 C 0.66155 0.02058 0.31243 0.0
C513 C 0.71356 0.98652 0.35619 0.0
C514 C 0.68802 0.98487 0.41431 0.0
C515 C 0.635 0.99844 0.44537 0.0
C516 C 0.60885 0.015 0.42041 0.0
C517 C 0.66151 0.0011 0.39135 0.0
C518 C 0.60925 0.0338 0.34096 0.0
C519 C 0.63525 0.03646 0.28714 0.0
H520 H 0.58257 0.69122 0.29275 0.0
H521 H 0.49333 0.7301 0.29011 0.0
H522 H 0.47485 0.68756 0.38366 0.0
H523 H 0.48263 0.63627 0.4455 0.0
H524 H 0.5713 0.59552 0.44041 0.0
H525 H 0.59139 0.64154 0.36793 0.0
C526 C 0.55938 0.69097 0.31649 0.0
C527 C 0.5394 0.71401 0.28563 0.0
C528 C 0.5486 0.66548 0.36498 0.0
C529 C 0.50927 0.71316 0.31485 0.0
C530 C 0.49858 0.6884 0.36629 0.0
C531 C 0.50642 0.63733 0.42884 0.0
C532 C 0.52535 0.61213 0.44712 0.0
C533 C 0.51777 0.66387 0.38796 0.0
C534 C 0.55611 0.61424 0.42558 0.0
C535 C 0.56764 0.64069 0.38506 0.0
H536 H 0.81707 0.53496 0.28832 0.0
H537 H 0.79402 0.44044 0.29602 0.0
H538 H 0.83869 0.42982 0.3931 0.0
H539 H 0.88657 0.44665 0.46287 0.0
H540 H 0.91083 0.54098 0.45063 0.0
H541 H 0.86378 0.55234 0.36601 0.0
C542 C 0.82136 0.51217 0.31379 0.0
C543 C 0.8019 0.48855 0.28586 0.0
C544 C 0.84783 0.50609 0.366 0.0
C545 C 0.80804 0.4591 0.31824 0.0
C546 C 0.83397 0.45297 0.37216 0.0
C547 C 0.88171 0.46976 0.44171 0.0
C548 C 0.9026 0.4929 0.46237 0.0
C549 C 0.85446 0.47614 0.39401 0.0
C550 C 0.89558 0.52266 0.43454 0.0
C551 C 0.86849 0.52919 0.38694 0.0
loop_
_geom_bond_atom_site_label_1
_geom_bond_atom_site_label_2
_geom_bond_distance
_geom_bond_site_symmetry_2
_ccdc_geom_bond_type
H0 C5 0.929 . S
H1 C10 0.931 . S
H2 C8 0.930 . S
N3 N4 1.234 1_554 S
N3 C7 1.453 . S
N4 N3 1.234 1_556 S
C5 H0 0.929 . S
C5 C6 1.373 . S
C5 C7 1.368 . S
C6 C5 1.373 . S
C6 C10 1.397 . S
C7 N3 1.453 . S
C7 C5 1.368 . S
C7 C8 1.373 1_554 S
C8 H2 0.930 . S
C8 C7 1.373 1_556 S
C8 C9 1.371 . S
C9 C8 1.371 . S
C9 C10 1.383 1_556 S
C10 H1 0.931 . S
C10 C6 1.397 . S
C10 C9 1.383 1_554 S
H11 C16 0.929 . S
H12 C21 0.931 . S
H13 C19 0.930 . S
N14 N15 1.234 1_554 S
N14 C18 1.453 . S
N15 N14 1.234 1_556 S
C16 H11 0.929 . S
C16 C17 1.373 . S
C16 C18 1.368 . S
C17 C16 1.373 . S
C17 C21 1.397 . S
C18 N14 1.453 . S
C18 C16 1.368 . S
C18 C19 1.373 1_554 S
C19 H13 0.930 . S
C19 C18 1.373 1_556 S
C19 C20 1.371 . S
C20 C19 1.371 . S
C20 C21 1.383 1_556 S
C21 H12 0.931 . S
C21 C17 1.397 . S
C21 C20 1.383 1_554 S
H22 C27 0.929 . S
H23 C32 0.931 . S
H24 C30 0.930 . S
N25 N26 1.224 1_544 S
N25 C29 1.453 . S
N26 N25 1.224 1_566 S
C27 H22 0.929 . S
C27 C28 1.373 . S
C27 C29 1.368 . S
C28 C27 1.373 . S
C28 C32 1.397 1_545 S
C29 N25 1.453 . S
C29 C27 1.368 . S
C29 C30 1.373 1_554 S
C30 H24 0.930 . S
C30 C29 1.373 1_556 S
C30 C31 1.374 . S
C31 C30 1.374 . S
C31 C32 1.382 1_546 S
C32 H23 0.931 . S
C32 C28 1.397 1_565 S
C32 C31 1.382 1_564 S
H33 C38 0.929 . S
H34 C43 0.931 . S
H35 C41 0.930 . S
N36 N37 1.234 1_554 S
N36 C40 1.453 . S
N37 N36 1.234 1_556 S
C38 H33 0.929 . S
C38 C39 1.373 . S
C38 C40 1.368 . S
C39 C38 1.373 . S
C39 C43 1.397 . S
C40 N36 1.453 . S
C40 C38 1.368 . S
C40 C41 1.373 1_554 S
C41 H35 0.930 . S
C41 C40 1.373 1_556 S
C41 C42 1.371 . S
C42 C41 1.371 . S
C42 C43 1.383 1_556 S
C43 H34 0.931 . S
C43 C39 1.397 . S
C43 C42 1.383 1_554 S
H44 C49 0.929 . S
H45 C54 0.931 . S
H46 C52 0.930 . S
N47 N48 1.234 . S
N47 C51 1.453 . S
N48 N47 1.234 . S
C49 H44 0.929 . S
C49 C50 1.373 . S
C49 C51 1.368 . S
C50 C49 1.373 . S
C50 C54 1.397 . S
C51 N47 1.453 . S
C51 C49 1.368 . S
C51 C52 1.373 . S
C52 H46 0.930 . S
C52 C51 1.373 . S
C52 C53 1.371 . S
C53 C52 1.371 . S
C53 C54 1.383 . S
C54 H45 0.931 . S
C54 C50 1.397 . S
C54 C53 1.383 . S
H55 C60 0.929 . S
H56 C65 0.931 . S
H57 C63 0.930 . S
N58 N59 1.234 . S
N58 C62 1.453 . S
N59 N58 1.234 . S
C60 H55 0.929 . S
C60 C61 1.373 . S
C60 C62 1.368 . S
C61 C60 1.373 . S
C61 C65 1.397 . S
C62 N58 1.453 . S
C62 C60 1.368 . S
C62 C63 1.373 . S
C63 H57 0.930 . S
C63 C62 1.373 . S
C63 C64 1.371 . S
C64 C63 1.371 . S
C64 C65 1.383 . S
C65 H56 0.931 . S
C65 C61 1.397 . S
C65 C64 1.383 . S
H66 C71 0.929 . S
H67 C76 0.931 . S
H68 C74 0.930 . S
N69 N70 1.227 1_545 S
N69 C73 1.453 . S
N70 N69 1.227 1_565 S
C71 H66 0.929 . S
C71 C72 1.373 . S
C71 C73 1.368 . S
C72 C71 1.373 . S
C72 C76 1.397 1_545 S
C73 N69 1.453 . S
C73 C71 1.368 . S
C73 C74 1.373 . S
C74 H68 0.930 . S
C74 C73 1.373 . S
C74 C75 1.375 . S
C75 C74 1.375 . S
C75 C76 1.381 1_545 S
C76 H67 0.931 . S
C76 C72 1.397 1_565 S
C76 C75 1.381 1_565 S
H77 C82 0.929 . S
H78 C87 0.931 . S
H79 C85 0.930 . S
N80 N81 1.234 . S
N80 C84 1.453 . S
N81 N80 1.234 . S
C82 H77 0.929 . S
C82 C83 1.373 . S
C82 C84 1.368 . S
C83 C82 1.373 . S
C83 C87 1.397 . S
C84 N80 1.453 . S
C84 C82 1.368 . S
C84 C85 1.373 . S
C85 H79 0.930 . S
C85 C84 1.373 . S
C85 C86 1.371 . S
C86 C85 1.371 . S
C86 C87 1.383 . S
C87 H78 0.931 . S
C87 C83 1.397 . S
C87 C86 1.383 . S
Zn88 O94 1.969 1_455 S
Zn88 O95 1.965 . S
Zn88 O99 2.024 . S
Zn88 O104 1.969 1_455 S
Zn89 O96 1.985 . S
Zn89 O102 1.976 . S
Zn89 O103 1.957 1_455 S
Zn89 O105 2.014 1_455 S
C90 O91 1.229 . S
C90 O99 1.058 . S
O91 C90 1.229 . S
C92 O93 1.229 1_655 S
C92 O105 1.058 . S
O93 C92 1.229 1_455 S
O94 Zn88 1.969 1_655 S
O94 C97 1.267 1_655 S
O95 Zn88 1.965 . S
O95 C106 1.260 1_545 S
O96 Zn89 1.985 . S
O96 C106 1.258 . S
C97 O94 1.267 1_455 S
C97 O98 1.228 . S
O98 C97 1.228 . S
O99 Zn88 2.024 . S
O99 C90 1.058 . S
C100 O101 1.228 . S
C100 O102 1.267 1_655 S
O101 C100 1.228 . S
O102 Zn89 1.976 . S
O102 C100 1.267 1_455 S
O103 Zn89 1.957 1_655 S
O103 C107 1.260 1_565 S
O104 Zn88 1.969 1_655 S
O104 C107 1.258 . S
O105 Zn89 2.014 1_655 S
O105 C92 1.058 . S
C106 O95 1.260 1_565 S
C106 O96 1.258 . S
C107 O103 1.260 1_545 S
C107 O104 1.258 . S
Zn108 O114 1.969 . S
Zn108 O115 1.965 1_565 S
Zn108 O119 2.024 1_565 S
Zn108 O124 1.969 . S
Zn109 O116 1.969 . S
Zn109 O122 1.969 . S
Zn109 O123 1.965 1_545 S
Zn109 O125 2.024 1_545 S
C110 O111 1.229 1_545 S
C110 O119 1.058 . S
O111 C110 1.229 1_565 S
C112 O113 1.229 1_565 S
C112 O125 1.058 . S
O113 C112 1.229 1_545 S
O114 Zn108 1.969 . S
O114 C117 1.267 . S
O115 Zn108 1.965 1_545 S
O115 C126 1.260 . S
O116 Zn109 1.969 . S
O116 C126 1.258 . S
C117 O114 1.267 . S
C117 O118 1.228 1_565 S
O118 C117 1.228 1_545 S
O119 Zn108 2.024 1_545 S
O119 C110 1.058 . S
C120 O121 1.228 1_545 S
C120 O122 1.267 . S
O121 C120 1.228 1_565 S
O122 Zn109 1.969 . S
O122 C120 1.267 . S
O123 Zn109 1.965 1_565 S
O123 C127 1.260 . S
O124 Zn108 1.969 . S
O124 C127 1.258 . S
O125 Zn109 2.024 1_565 S
O125 C112 1.058 . S
C126 O115 1.260 . S
C126 O116 1.258 . S
C127 O123 1.260 . S
C127 O124 1.258 . S
Zn128 O134 1.969 . S
Zn128 O135 1.965 . S
Zn128 O139 2.024 . S
Zn128 O144 1.969 . S
Zn129 O136 1.969 . S
Zn129 O142 1.969 . S
Zn129 O143 1.965 . S
Zn129 O145 2.024 . S
C130 O131 1.229 . S
C130 O139 1.058 . S
O131 C130 1.229 . S
C132 O133 1.229 . S
C132 O145 1.058 . S
O133 C132 1.229 . S
O134 Zn128 1.969 . S
O134 C137 1.267 . S
O135 Zn128 1.965 . S
O135 C146 1.260 . S
O136 Zn129 1.969 . S
O136 C146 1.258 . S
C137 O134 1.267 . S
C137 O138 1.228 . S
O138 C137 1.228 . S
O139 Zn128 2.024 . S
O139 C130 1.058 . S
C140 O141 1.228 . S
C140 O142 1.267 . S
O141 C140 1.228 . S
O142 Zn129 1.969 . S
O142 C140 1.267 . S
O143 Zn129 1.965 . S
O143 C147 1.260 . S
O144 Zn128 1.969 . S
O144 C147 1.258 . S
O145 Zn129 2.024 . S
O145 C132 1.058 . S
C146 O135 1.260 . S
C146 O136 1.258 . S
C147 O143 1.260 . S
C147 O144 1.258 . S
Zn148 O154 1.969 . S
Zn148 O155 1.965 . S
Zn148 O159 2.024 . S
Zn148 O164 1.969 . S
Zn149 O156 1.969 . S
Zn149 O162 1.969 . S
Zn149 O163 1.965 . S
Zn149 O165 2.024 . S
C150 O151 1.229 . S
C150 O159 1.058 . S
O151 C150 1.229 . S
C152 O153 1.229 . S
C152 O165 1.058 . S
O153 C152 1.229 . S
O154 Zn148 1.969 . S
O154 C157 1.267 . S
O155 Zn148 1.965 . S
O155 C166 1.260 . S
O156 Zn149 1.969 . S
O156 C166 1.258 1_655 S
C157 O154 1.267 . S
C157 O158 1.228 . S
O158 C157 1.228 . S
O159 Zn148 2.024 . S
O159 C150 1.058 . S
C160 O161 1.228 . S
C160 O162 1.267 . S
O161 C160 1.228 . S
O162 Zn149 1.969 . S
O162 C160 1.267 . S
O163 Zn149 1.965 . S
O163 C167 1.260 1_655 S
O164 Zn148 1.969 . S
O164 C167 1.258 . S
O165 Zn149 2.024 . S
O165 C152 1.058 . S
C166 O155 1.260 . S
C166 O156 1.258 1_455 S
C167 O163 1.260 1_455 S
C167 O164 1.258 . S
H168 C174 0.930 . S
H169 C177 0.930 . S
H170 C178 0.930 . S
H171 C179 0.930 . S
H172 C182 0.930 . S
H173 C183 0.930 . S
C174 H168 0.930 . S
C174 C175 1.356 . S
C174 C176 1.415 . S
C175 C174 1.356 . S
C175 C177 1.418 1_565 S
C176 C174 1.415 . S
C176 C181 1.425 1_565 S
C176 C183 1.409 . S
C177 H169 0.930 . S
C177 C175 1.418 1_545 S
C177 C178 1.362 . S
C178 H170 0.930 . S
C178 C177 1.362 . S
C178 C181 1.409 . S
C179 H171 0.930 . S
C179 C180 1.355 1_545 S
C179 C181 1.415 . S
C180 C179 1.355 1_565 S
C180 C182 1.419 . S
C181 C176 1.425 1_545 S
C181 C178 1.409 . S
C181 C179 1.415 . S
C182 H172 0.930 . S
C182 C180 1.419 . S
C182 C183 1.362 . S
C183 H173 0.930 . S
C183 C176 1.409 . S
C183 C182 1.362 . S
H184 C190 0.930 . S
H185 C193 0.930 . S
H186 C194 0.930 . S
H187 C195 0.930 . S
H188 C198 0.930 . S
H189 C199 0.930 . S
C190 H184 0.930 . S
C190 C191 1.355 . S
C190 C192 1.415 . S
C191 C190 1.355 . S
C191 C193 1.419 . S
C192 C190 1.415 . S
C192 C197 1.425 . S
C192 C199 1.409 . S
C193 H185 0.930 . S
C193 C191 1.419 . S
C193 C194 1.362 . S
C194 H186 0.930 . S
C194 C193 1.362 . S
C194 C197 1.409 . S
C195 H187 0.930 . S
C195 C196 1.355 . S
C195 C197 1.415 . S
C196 C195 1.355 . S
C196 C198 1.419 . S
C197 C192 1.425 . S
C197 C194 1.409 . S
C197 C195 1.415 . S
C198 H188 0.930 . S
C198 C196 1.419 . S
C198 C199 1.362 . S
C199 H189 0.930 . S
C199 C192 1.409 . S
C199 C198 1.362 . S
H200 C206 0.930 . S
H201 C209 0.930 . S
H202 C210 0.930 . S
H203 C211 0.930 . S
H204 C214 0.930 . S
H205 C215 0.930 . S
C206 H200 0.930 . S
C206 C207 1.355 . S
C206 C208 1.415 . S
C207 C206 1.355 . S
C207 C209 1.419 . S
C208 C206 1.415 . S
C208 C213 1.425 . S
C208 C215 1.409 . S
C209 H201 0.930 . S
C209 C207 1.419 . S
C209 C210 1.362 . S
C210 H202 0.930 . S
C210 C209 1.362 . S
C210 C213 1.409 . S
C211 H203 0.930 . S
C211 C212 1.355 . S
C211 C213 1.415 . S
C212 C211 1.355 . S
C212 C214 1.419 . S
C213 C208 1.425 . S
C213 C210 1.409 . S
C213 C211 1.415 . S
C214 H204 0.930 . S
C214 C212 1.419 . S
C214 C215 1.362 . S
C215 H205 0.930 . S
C215 C208 1.409 . S
C215 C214 1.362 . S
H216 C222 0.930 . S
H217 C225 0.930 . S
H218 C226 0.930 . S
H219 C227 0.930 . S
H220 C230 0.930 . S
H221 C231 0.930 1_655 S
C222 H216 0.930 . S
C222 C223 1.355 . S
C222 C224 1.415 . S
C223 C222 1.355 . S
C223 C225 1.419 . S
C224 C222 1.415 . S
C224 C229 1.425 . S
C224 C231 1.409 . S
C225 H217 0.930 . S
C225 C223 1.419 . S
C225 C226 1.362 . S
C226 H218 0.930 . S
C226 C225 1.362 . S
C226 C229 1.409 . S
C227 H219 0.930 . S
C227 C228 1.355 . S
C227 C229 1.415 . S
C228 C227 1.355 . S
C228 C230 1.419 1_455 S
C229 C224 1.425 . S
C229 C226 1.409 . S
C229 C227 1.415 . S
C230 H220 0.930 . S
C230 C228 1.419 1_655 S
C230 C231 1.362 1_655 S
C231 H221 0.930 1_455 S
C231 C224 1.409 . S
C231 C230 1.362 1_455 S
H232 C238 0.930 . S
H233 C241 0.930 . S
H234 C242 0.930 . S
H235 C243 0.930 . S
H236 C246 0.930 . S
H237 C247 0.930 . S
C238 H232 0.930 . S
C238 C239 1.355 1_565 S
C238 C240 1.415 . S
C239 C238 1.355 1_545 S
C239 C241 1.419 . S
C240 C238 1.415 . S
C240 C245 1.425 1_565 S
C240 C247 1.409 . S
C241 H233 0.930 . S
C241 C239 1.419 . S
C241 C242 1.362 . S
C242 H234 0.930 . S
C242 C241 1.362 . S
C242 C245 1.409 . S
C243 H235 0.930 . S
C243 C244 1.338 1_545 S
C243 C245 1.415 . S
C244 C243 1.338 1_565 S
C244 C246 1.441 . S
C245 C240 1.425 1_545 S
C245 C242 1.409 . S
C245 C243 1.415 . S
C246 H236 0.930 . S
C246 C244 1.441 . S
C246 C247 1.362 . S
C247 H237 0.930 . S
C247 C240 1.409 . S
C247 C246 1.362 . S
H248 C254 0.930 1_554 S
H249 C257 0.930 . S
H250 C258 0.930 . S
H251 C259 0.930 . S
H252 C262 0.930 . S
H253 C263 0.930 . S
C254 H248 0.930 1_556 S
C254 C255 1.355 . S
C254 C256 1.415 . S
C255 C254 1.355 . S
C255 C257 1.419 . S
C256 C254 1.415 . S
C256 C261 1.425 . S
C256 C263 1.409 . S
C257 H249 0.930 . S
C257 C255 1.419 . S
C257 C258 1.362 . S
C258 H250 0.930 . S
C258 C257 1.362 . S
C258 C261 1.409 . S
C259 H251 0.930 . S
C259 C260 1.355 . S
C259 C261 1.415 . S
C260 C259 1.355 . S
C260 C262 1.419 . S
C261 C256 1.425 . S
C261 C258 1.409 . S
C261 C259 1.415 . S
C262 H252 0.930 . S
C262 C260 1.419 . S
C262 C263 1.362 . S
C263 H253 0.930 . S
C263 C256 1.409 . S
C263 C262 1.362 . S
H264 C270 0.930 1_554 S
H265 C273 0.930 . S
H266 C274 0.930 . S
H267 C275 0.930 . S
H268 C278 0.930 . S
H269 C279 0.930 . S
C270 H264 0.930 1_556 S
C270 C271 1.355 . S
C270 C272 1.415 . S
C271 C270 1.355 . S
C271 C273 1.419 . S
C272 C270 1.415 . S
C272 C277 1.425 . S
C272 C279 1.409 . S
C273 H265 0.930 . S
C273 C271 1.419 . S
C273 C274 1.362 . S
C274 H266 0.930 . S
C274 C273 1.362 . S
C274 C277 1.409 . S
C275 H267 0.930 . S
C275 C276 1.355 . S
C275 C277 1.415 . S
C276 C275 1.355 . S
C276 C278 1.419 . S
C277 C272 1.425 . S
C277 C274 1.409 . S
C277 C275 1.415 . S
C278 H268 0.930 . S
C278 C276 1.419 . S
C278 C279 1.362 . S
C279 H269 0.930 . S
C279 C272 1.409 . S
C279 C278 1.362 . S
H280 C286 0.930 1_554 S
H281 C289 0.930 . S
H282 C290 0.930 . S
H283 C291 0.930 . S
H284 C294 0.916 1_455 S
H285 C295 0.939 . S
C286 H280 0.930 1_556 S
C286 C287 1.355 . S
C286 C288 1.415 . S
C287 C286 1.355 . S
C287 C289 1.419 . S
C288 C286 1.415 . S
C288 C293 1.425 . S
C288 C295 1.409 . S
C289 H281 0.930 . S
C289 C287 1.419 . S
C289 C290 1.362 . S
C290 H282 0.930 . S
C290 C289 1.362 . S
C290 C293 1.409 . S
C291 H283 0.930 . S
C291 C292 1.355 . S
C291 C293 1.415 . S
C292 C291 1.355 . S
C292 C294 1.428 . S
C293 C288 1.425 . S
C293 C290 1.409 . S
C293 C291 1.415 . S
C294 H284 0.916 1_655 S
C294 C292 1.428 . S
C294 C295 1.368 . S
C295 H285 0.939 . S
C295 C288 1.409 . S
C295 C294 1.368 . S
H296 C302 0.930 . S
H297 C305 0.930 . S
H298 C306 0.930 . S
H299 C307 0.942 . S
H300 C310 0.930 . S
H301 C311 0.930 . S
C302 H296 0.930 . S
C302 C303 1.355 . S
C302 C304 1.415 . S
C303 C302 1.355 . S
C303 C305 1.419 . S
C304 C302 1.415 . S
C304 C309 1.425 . S
C304 C311 1.409 . S
C305 H297 0.930 . S
C305 C303 1.419 . S
C305 C306 1.362 . S
C306 H298 0.930 . S
C306 C305 1.362 . S
C306 C309 1.409 . S
C307 H299 0.942 . S
C307 C308 1.355 . S
C307 C309 1.415 . S
C308 C307 1.355 . S
C308 C310 1.419 . S
C309 C304 1.425 . S
C309 C306 1.409 . S
C309 C307 1.415 . S
C310 H300 0.930 . S
C310 C308 1.419 . S
C310 C311 1.362 . S
C311 H301 0.930 . S
C311 C304 1.409 . S
C311 C310 1.362 . S
H312 C318 0.930 . S
H313 C321 0.930 . S
H314 C322 0.930 . S
H315 C323 0.930 . S
H316 C326 0.930 . S
H317 C327 0.930 . S
C318 H312 0.930 . S
C318 C319 1.355 1_565 S
C318 C320 1.415 . S
C319 C318 1.355 1_545 S
C319 C321 1.419 . S
C320 C318 1.415 . S
C320 C325 1.425 1_565 S
C320 C327 1.409 . S
C321 H313 0.930 . S
C321 C319 1.419 . S
C321 C322 1.362 . S
C322 H314 0.930 . S
C322 C321 1.362 . S
C322 C325 1.409 . S
C323 H315 0.930 . S
C323 C324 1.355 1_545 S
C323 C325 1.415 . S
C324 C323 1.355 1_565 S
C324 C326 1.419 . S
C325 C320 1.425 1_545 S
C325 C322 1.409 . S
C325 C323 1.415 . S
C326 H316 0.930 . S
C326 C324 1.419 . S
C326 C327 1.362 . S
C327 H317 0.930 . S
C327 C320 1.409 . S
C327 C326 1.362 . S
H328 C334 0.930 . S
H329 C337 0.930 . S
H330 C338 0.930 . S
H331 C339 0.930 . S
H332 C342 0.930 . S
H333 C343 0.930 . S
C334 H328 0.930 . S
C334 C335 1.355 . S
C334 C336 1.415 . S
C335 C334 1.355 . S
C335 C337 1.419 . S
C336 C334 1.415 . S
C336 C341 1.425 . S
C336 C343 1.409 . S
C337 H329 0.930 . S
C337 C335 1.419 . S
C337 C338 1.362 . S
C338 H330 0.930 . S
C338 C337 1.362 . S
C338 C341 1.409 . S
C339 H331 0.930 . S
C339 C340 1.355 . S
C339 C341 1.415 . S
C340 C339 1.355 . S
C340 C342 1.419 . S
C341 C336 1.425 . S
C341 C338 1.409 . S
C341 C339 1.415 . S
C342 H332 0.930 . S
C342 C340 1.419 . S
C342 C343 1.362 . S
C343 H333 0.930 . S
C343 C336 1.409 . S
C343 C342 1.362 . S
H344 C350 0.930 . S
H345 C353 0.930 . S
H346 C354 0.930 . S
H347 C355 0.930 . S
H348 C358 0.930 . S
H349 C359 0.930 . S
C350 H344 0.930 . S
C350 C351 1.355 . S
C350 C352 1.415 . S
C351 C350 1.355 . S
C351 C353 1.419 . S
C352 C350 1.415 . S
C352 C357 1.425 . S
C352 C359 1.409 . S
C353 H345 0.930 . S
C353 C351 1.419 . S
C353 C354 1.362 . S
C354 H346 0.930 . S
C354 C353 1.362 . S
C354 C357 1.409 . S
C355 H347 0.930 . S
C355 C356 1.355 . S
C355 C357 1.415 . S
C356 C355 1.355 . S
C356 C358 1.419 . S
C357 C352 1.425 . S
C357 C354 1.409 . S
C357 C355 1.415 . S
C358 H348 0.930 . S
C358 C356 1.419 . S
C358 C359 1.362 . S
C359 H349 0.930 . S
C359 C352 1.409 . S
C359 C358 1.362 . S
H360 C366 0.934 . S
H361 C369 0.930 . S
H362 C370 0.930 . S
H363 C371 0.930 . S
H364 C374 0.930 . S
H365 C375 0.930 . S
C366 H360 0.934 . S
C366 C367 1.355 . S
C366 C368 1.415 . S
C367 C366 1.355 . S
C367 C369 1.419 . S
C368 C366 1.415 . S
C368 C373 1.425 . S
C368 C375 1.409 1_655 S
C369 H361 0.930 . S
C369 C367 1.419 . S
C369 C370 1.362 . S
C370 H362 0.930 . S
C370 C369 1.362 . S
C370 C373 1.409 . S
C371 H363 0.930 . S
C371 C372 1.355 1_655 S
C371 C373 1.415 . S
C372 C371 1.355 1_455 S
C372 C374 1.419 . S
C373 C368 1.425 . S
C373 C370 1.409 . S
C373 C371 1.415 . S
C374 H364 0.930 . S
C374 C372 1.419 . S
C374 C375 1.362 . S
C375 H365 0.930 . S
C375 C368 1.409 1_455 S
C375 C374 1.362 . S
H376 C382 0.930 . S
H377 C385 0.930 . S
H378 C386 0.930 . S
H379 C387 0.930 . S
H380 C390 0.930 . S
H381 C391 0.930 . S
C382 H376 0.930 . S
C382 C383 1.355 1_565 S
C382 C384 1.415 . S
C383 C382 1.355 1_545 S
C383 C385 1.419 . S
C384 C382 1.415 . S
C384 C389 1.425 1_565 S
C384 C391 1.409 . S
C385 H377 0.930 . S
C385 C383 1.419 . S
C385 C386 1.362 . S
C386 H378 0.930 . S
C386 C385 1.362 . S
C386 C389 1.409 . S
C387 H379 0.930 . S
C387 C388 1.355 . S
C387 C389 1.415 . S
C388 C387 1.355 . S
C388 C390 1.419 1_545 S
C389 C384 1.425 1_545 S
C389 C386 1.409 . S
C389 C387 1.415 . S
C390 H380 0.930 . S
C390 C388 1.419 1_565 S
C390 C391 1.362 . S
C391 H381 0.930 . S
C391 C384 1.409 . S
C391 C390 1.362 . S
H392 C398 0.930 . S
H393 C401 0.930 . S
H394 C402 0.930 . S
H395 C403 0.930 . S
H396 C406 0.930 . S
H397 C407 0.930 . S
C398 H392 0.930 . S
C398 C399 1.355 . S
C398 C400 1.415 . S
C399 C398 1.355 . S
C399 C401 1.419 . S
C400 C398 1.415 . S
C400 C405 1.425 . S
C400 C407 1.409 . S
C401 H393 0.930 . S
C401 C399 1.419 . S
C401 C402 1.362 . S
C402 H394 0.930 . S
C402 C401 1.362 . S
C402 C405 1.409 . S
C403 H395 0.930 . S
C403 C404 1.355 . S
C403 C405 1.415 . S
C404 C403 1.355 . S
C404 C406 1.419 . S
C405 C400 1.425 . S
C405 C402 1.409 . S
C405 C403 1.415 . S
C406 H396 0.930 . S
C406 C404 1.419 . S
C406 C407 1.362 . S
C407 H397 0.930 . S
C407 C400 1.409 . S
C407 C406 1.362 . S
H408 C414 0.930 . S
H409 C417 0.930 . S
H410 C418 0.930 . S
H411 C419 0.930 . S
H412 C422 0.930 . S
H413 C423 0.930 . S
C414 H408 0.930 . S
C414 C415 1.355 . S
C414 C416 1.415 . S
C415 C414 1.355 . S
C415 C417 1.419 . S
C416 C414 1.415 . S
C416 C421 1.425 . S
C416 C423 1.409 . S
C417 H409 0.930 . S
C417 C415 1.419 . S
C417 C418 1.362 . S
C418 H410 0.930 . S
C418 C417 1.362 . S
C418 C421 1.409 . S
C419 H411 0.930 . S
C419 C420 1.355 . S
C419 C421 1.415 . S
C420 C419 1.355 . S
C420 C422 1.419 . S
C421 C416 1.425 . S
C421 C418 1.409 . S
C421 C419 1.415 . S
C422 H412 0.930 . S
C422 C420 1.419 . S
C422 C423 1.362 . S
C423 H413 0.930 . S
C423 C416 1.409 . S
C423 C422 1.362 . S
H424 C430 0.930 . S
H425 C433 0.930 . S
H426 C434 0.930 . S
H427 C435 0.930 . S
H428 C438 0.930 1_655 S
H429 C439 0.930 1_655 S
C430 H424 0.930 . S
C430 C431 1.355 1_556 S
C430 C432 1.415 . S
C431 C430 1.355 1_554 S
C431 C433 1.419 . S
C432 C430 1.415 . S
C432 C437 1.425 . S
C432 C439 1.409 . S
C433 H425 0.930 . S
C433 C431 1.419 . S
C433 C434 1.362 . S
C434 H426 0.930 . S
C434 C433 1.362 . S
C434 C437 1.409 1_554 S
C435 H427 0.930 . S
C435 C436 1.355 . S
C435 C437 1.415 . S
C436 C435 1.355 . S
C436 C438 1.419 . S
C437 C432 1.425 . S
C437 C434 1.409 1_556 S
C437 C435 1.415 . S
C438 H428 0.930 1_455 S
C438 C436 1.419 . S
C438 C439 1.362 . S
C439 H429 0.930 1_455 S
C439 C432 1.409 . S
C439 C438 1.362 . S
H440 C446 0.930 . S
H441 C449 0.930 . S
H442 C450 0.930 1_554 S
H443 C451 0.930 . S
H444 C454 0.930 . S
H445 C455 0.930 . S
C446 H440 0.930 . S
C446 C447 1.355 1_565 S
C446 C448 1.415 . S
C447 C446 1.355 1_545 S
C447 C449 1.419 1_556 S
C448 C446 1.415 . S
C448 C453 1.425 1_565 S
C448 C455 1.409 . S
C449 H441 0.930 . S
C449 C447 1.419 1_554 S
C449 C450 1.362 1_554 S
C450 H442 0.930 1_556 S
C450 C449 1.362 1_556 S
C450 C453 1.409 . S
C451 H443 0.930 . S
C451 C452 1.355 . S
C451 C453 1.415 . S
C452 C451 1.355 . S
C452 C454 1.419 1_545 S
C453 C448 1.425 1_545 S
C453 C450 1.409 . S
C453 C451 1.415 . S
C454 H444 0.930 . S
C454 C452 1.419 1_565 S
C454 C455 1.362 . S
C455 H445 0.930 . S
C455 C448 1.409 . S
C455 C454 1.362 . S
H456 C462 0.930 1_554 S
H457 C465 0.930 . S
H458 C466 0.930 . S
H459 C467 0.930 . S
H460 C470 0.930 . S
H461 C471 0.930 . S
C462 H456 0.930 1_556 S
C462 C463 1.355 . S
C462 C464 1.415 . S
C463 C462 1.355 . S
C463 C465 1.419 . S
C464 C462 1.415 . S
C464 C469 1.425 . S
C464 C471 1.409 . S
C465 H457 0.930 . S
C465 C463 1.419 . S
C465 C466 1.362 . S
C466 H458 0.930 . S
C466 C465 1.362 . S
C466 C469 1.409 . S
C467 H459 0.930 . S
C467 C468 1.355 . S
C467 C469 1.415 . S
C468 C467 1.355 . S
C468 C470 1.419 . S
C469 C464 1.425 . S
C469 C466 1.409 . S
C469 C467 1.415 . S
C470 H460 0.930 . S
C470 C468 1.419 . S
C470 C471 1.362 . S
C471 H461 0.930 . S
C471 C464 1.409 . S
C471 C470 1.362 . S
H472 C478 0.930 . S
H473 C481 0.930 . S
H474 C482 0.930 . S
H475 C483 0.930 . S
H476 C486 0.930 . S
H477 C487 0.930 1_554 S
C478 H472 0.930 . S
C478 C479 1.355 1_554 S
C478 C480 1.415 1_554 S
C479 C478 1.355 1_556 S
C479 C481 1.419 . S
C480 C478 1.415 1_556 S
C480 C485 1.425 . S
C480 C487 1.409 . S
C481 H473 0.930 . S
C481 C479 1.419 . S
C481 C482 1.362 . S
C482 H474 0.930 . S
C482 C481 1.362 . S
C482 C485 1.409 . S
C483 H475 0.930 . S
C483 C484 1.355 . S
C483 C485 1.415 . S
C484 C483 1.355 . S
C484 C486 1.419 . S
C485 C480 1.425 . S
C485 C482 1.409 . S
C485 C483 1.415 . S
C486 H476 0.930 . S
C486 C484 1.419 . S
C486 C487 1.362 . S
C487 H477 0.930 1_556 S
C487 C480 1.409 . S
C487 C486 1.362 . S
H488 C494 0.930 . S
H489 C497 0.930 . S
H490 C498 0.930 . S
H491 C499 0.930 . S
H492 C502 0.930 . S
H493 C503 0.930 . S
C494 H488 0.930 . S
C494 C495 1.355 . S
C494 C496 1.415 . S
C495 C494 1.355 . S
C495 C497 1.419 . S
C496 C494 1.415 . S
C496 C501 1.425 . S
C496 C503 1.409 1_655 S
C497 H489 0.930 . S
C497 C495 1.419 . S
C497 C498 1.362 . S
C498 H490 0.930 . S
C498 C497 1.362 . S
C498 C501 1.409 . S
C499 H491 0.930 . S
C499 C500 1.355 . S
C499 C501 1.415 . S
C500 C499 1.355 . S
C500 C502 1.419 1_655 S
C501 C496 1.425 . S
C501 C498 1.409 . S
C501 C499 1.415 . S
C502 H492 0.930 . S
C502 C500 1.419 1_455 S
C502 C503 1.362 . S
C503 H493 0.930 . S
C503 C496 1.409 1_455 S
C503 C502 1.362 . S
H504 C510 0.930 . S
H505 C513 0.930 . S
H506 C514 0.930 . S
H507 C515 0.930 . S
H508 C518 0.930 . S
H509 C519 0.930 . S
C510 H504 0.930 . S
C510 C511 1.355 1_545 S
C510 C512 1.415 . S
C511 C510 1.355 1_565 S
C511 C513 1.419 . S
C512 C510 1.415 . S
C512 C517 1.425 1_545 S
C512 C519 1.409 . S
C513 H505 0.930 . S
C513 C511 1.419 . S
C513 C514 1.362 . S
C514 H506 0.930 . S
C514 C513 1.362 . S
C514 C517 1.409 . S
C515 H507 0.930 . S
C515 C516 1.355 . S
C515 C517 1.415 . S
C516 C515 1.355 . S
C516 C518 1.419 1_565 S
C517 C512 1.425 1_565 S
C517 C514 1.409 . S
C517 C515 1.415 . S
C518 H508 0.930 . S
C518 C516 1.419 1_545 S
C518 C519 1.362 . S
C519 H509 0.930 . S
C519 C512 1.409 . S
C519 C518 1.362 . S
H520 C526 0.930 . S
H521 C529 0.930 . S
H522 C530 0.930 . S
H523 C531 0.930 . S
H524 C534 0.930 . S
H525 C535 0.930 . S
C526 H520 0.930 . S
C526 C527 1.355 . S
C526 C528 1.415 . S
C527 C526 1.355 . S
C527 C529 1.419 . S
C528 C526 1.415 . S
C528 C533 1.425 . S
C528 C535 1.409 . S
C529 H521 0.930 . S
C529 C527 1.419 . S
C529 C530 1.362 . S
C530 H522 0.930 . S
C530 C529 1.362 . S
C530 C533 1.409 . S
C531 H523 0.930 . S
C531 C532 1.355 . S
C531 C533 1.415 . S
C532 C531 1.355 . S
C532 C534 1.419 . S
C533 C528 1.425 . S
C533 C530 1.409 . S
C533 C531 1.415 . S
C534 H524 0.930 . S
C534 C532 1.419 . S
C534 C535 1.362 . S
C535 H525 0.930 . S
C535 C528 1.409 . S
C535 C534 1.362 . S
H536 C542 0.930 . S
H537 C545 0.930 . S
H538 C546 0.930 . S
H539 C547 0.930 . S
H540 C550 0.930 . S
H541 C551 0.930 . S
C542 H536 0.930 . S
C542 C543 1.355 . S
C542 C544 1.415 . S
C543 C542 1.355 . S
C543 C545 1.419 . S
C544 C542 1.415 . S
C544 C549 1.425 . S
C544 C551 1.409 . S
C545 H537 0.930 . S
C545 C543 1.419 . S
C545 C546 1.362 . S
C546 H538 0.930 . S
C546 C545 1.362 . S
C546 C549 1.409 . S
C547 H539 0.930 . S
C547 C548 1.355 . S
C547 C549 1.415 . S
C548 C547 1.355 . S
C548 C550 1.419 . S
C549 C544 1.425 . S
C549 C546 1.409 . S
C549 C547 1.415 . S
C550 H540 0.930 . S
C550 C548 1.419 . S
C550 C551 1.362 . S
C551 H541 0.930 . S
C551 C544 1.409 . S
C551 C550 1.362 . S
C175 N70 1.500 . S
C180 C106 1.508 . S
C196 C126 1.561 . S
C191 N81 1.490 . S
C212 C146 1.439 . S
C207 N48 1.418 . S
C228 C166 1.576 . S
C223 N59 1.560 . S
C244 C107 1.466 1_565 S
C239 N26 1.442 1_545 S
C255 N37 1.497 . S
C260 C127 1.530 . S
C271 N4 1.432 . S
C276 C147 1.457 . S
C287 N15 1.490 . S
C292 C167 1.526 1_655 S
C308 C97 0.924 . S
C303 C64 0.967 . S
C324 C117 0.959 . S
C319 C75 0.933 . S
C340 C137 0.864 . S
C335 C86 0.895 . S
C351 C53 0.900 . S
C356 C157 0.927 . S
C367 C20 0.978 . S
C372 C100 0.992 1_455 S
C388 C120 0.882 . S
C383 C31 0.934 . S
C404 C140 0.924 . S
C399 C42 0.959 . S
C415 C9 0.914 . S
C420 C160 0.865 . S
C431 C61 1.520 . S
C436 C90 1.439 . S
C447 C72 1.473 1_556 S
C452 C110 1.397 . S
C468 C130 1.463 . S
C463 C83 1.550 1_556 S
C484 C150 1.462 . S
C479 C50 1.531 1_556 S
C495 C17 1.554 . S
C500 C92 1.469 . S
C516 C112 1.483 . S
C511 C28 1.553 1_565 S
C532 C132 1.448 . S
C527 C39 1.499 . S
C543 C6 1.467 . S
C548 C152 1.398 . S
