# Generated by pormake.
# Topology cml, (3,6)-cn, num edge types: 1
# Building blocks:
#     Node 0, Type 0, BuildingBlock: MIDCAF_clean_linker_0, # of connection points: 3
#     Node 1, Type 0, BuildingBlock: MIDCAF_clean_linker_0, # of connection points: 3
#     Node 2, Type 0, BuildingBlock: MIDCAF_clean_linker_0, # of connection points: 3
#     Node 3, Type 0, BuildingBlock: MIDCAF_clean_linker_0, # of connection points: 3
#     Node 4, Type 0, BuildingBlock: MIDCAF_clean_linker_0, # of connection points: 3
#     Node 5, Type 0, BuildingBlock: MIDCAF_clean_linker_0, # of connection points: 3
#     Node 6, Type 0, BuildingBlock: MIDCAF_clean_linker_0, # of connection points: 3
#     Node 7, Type 0, BuildingBlock: MIDCAF_clean_linker_0, # of connection points: 3
#     Node 8, Type 1, BuildingBlock: IZENUY_clean_sbu_0, # of connection points: 6
#     Node 9, Type 1, BuildingBlock: IZENUY_clean_sbu_0, # of connection points: 6
#     Node 10, Type 1, BuildingBlock: IZENUY_clean_sbu_0, # of connection points: 6
#     Node 11, Type 1, BuildingBlock: IZENUY_clean_sbu_0, # of connection points: 6
#     Edge 12, Type (0, 1), BuildingBlock: EYOCIG_clean_linker_4, # of connection points: 2
#     Edge 13, Type (0, 1), BuildingBlock: EYOCIG_clean_linker_4, # of connection points: 2
#     Edge 14, Type (0, 1), BuildingBlock: EYOCIG_clean_linker_4, # of connection points: 2
#     Edge 15, Type (0, 1), BuildingBlock: EYOCIG_clean_linker_4, # of connection points: 2
#     Edge 16, Type (0, 1), BuildingBlock: EYOCIG_clean_linker_4, # of connection points: 2
#     Edge 17, Type (0, 1), BuildingBlock: EYOCIG_clean_linker_4, # of connection points: 2
#     Edge 18, Type (0, 1), BuildingBlock: EYOCIG_clean_linker_4, # of connection points: 2
#     Edge 19, Type (0, 1), BuildingBlock: EYOCIG_clean_linker_4, # of connection points: 2
#     Edge 20, Type (0, 1), BuildingBlock: EYOCIG_clean_linker_4, # of connection points: 2
#     Edge 21, Type (0, 1), BuildingBlock: EYOCIG_clean_linker_4, # of connection points: 2
#     Edge 22, Type (0, 1), BuildingBlock: EYOCIG_clean_linker_4, # of connection points: 2
#     Edge 23, Type (0, 1), BuildingBlock: EYOCIG_clean_linker_4, # of connection points: 2
#     Edge 24, Type (0, 1), BuildingBlock: EYOCIG_clean_linker_4, # of connection points: 2
#     Edge 25, Type (0, 1), BuildingBlock: EYOCIG_clean_linker_4, # of connection points: 2
#     Edge 26, Type (0, 1), BuildingBlock: EYOCIG_clean_linker_4, # of connection points: 2
#     Edge 27, Type (0, 1), BuildingBlock: EYOCIG_clean_linker_4, # of connection points: 2
#     Edge 28, Type (0, 1), BuildingBlock: EYOCIG_clean_linker_4, # of connection points: 2
#     Edge 29, Type (0, 1), BuildingBlock: EYOCIG_clean_linker_4, # of connection points: 2
#     Edge 30, Type (0, 1), BuildingBlock: EYOCIG_clean_linker_4, # of connection points: 2
#     Edge 31, Type (0, 1), BuildingBlock: EYOCIG_clean_linker_4, # of connection points: 2
#     Edge 32, Type (0, 1), BuildingBlock: EYOCIG_clean_linker_4, # of connection points: 2
#     Edge 33, Type (0, 1), BuildingBlock: EYOCIG_clean_linker_4, # of connection points: 2
#     Edge 34, Type (0, 1), BuildingBlock: EYOCIG_clean_linker_4, # of connection points: 2
#     Edge 35, Type (0, 1), BuildingBlock: EYOCIG_clean_linker_4, # of connection points: 2
# Relax obj value: 0.057
# Max RMSD: 0.073
# Mean RMSD: 0.069
data_MOF--net-cml--node1-IZENUY_clean_sbu_0--node2-MIDCAF_clean_linker_0--edge1-EYOCIG_clean_linker_4
_symmetry_space_group_name_H-M    P1
_symmetry_Int_Tables_number       1
_symmetry_cell_setting            triclinic
loop_
_symmetry_equiv_pos_as_xyz
'x, y, z'
_cell_length_a     35.238596
_cell_length_b     41.557431
_cell_length_c     38.494971
_cell_angle_alpha  90.005856
_cell_angle_beta   90.029501
_cell_angle_gamma 89.879275
loop_
_atom_site_label
_atom_site_type_symbol
_atom_site_fract_x
_atom_site_fract_y
_atom_site_fract_z
_atom_type_partial_charge
C0 C 0.34838 0.39847 0.12728 0.0
C1 C 0.33987 0.36983 0.14458 0.0
C2 C 0.31304 0.34865 0.13055 0.0
C3 C 0.29586 0.35557 0.09856 0.0
H4 H 0.20938 0.32853 0.02854 0.0
H5 H 0.16344 0.29273 1.00046 0.0
H6 H 0.17489 0.34585 0.9049 0.0
H7 H 0.2206 0.38171 0.9324 0.0
H8 H 0.26679 0.44872 0.93258 0.0
H9 H 0.29514 0.49418 0.90117 0.0
H10 H 0.38023 0.50342 0.98101 0.0
H11 H 0.35253 0.45851 0.01248 0.0
H12 H 0.33923 0.42753 0.08247 0.0
H13 H 0.36904 0.41509 0.13787 0.0
H14 H 0.30625 0.32637 0.14374 0.0
H15 H 0.27594 0.33846 0.08776 0.0
N16 N 0.26239 0.37185 0.03096 0.0
N17 N 0.26345 0.40365 0.98043 0.0
N18 N 0.30409 0.41545 0.0267 0.0
C19 C 0.24888 0.37837 0.99854 0.0
C20 C 0.2911 0.42231 0.99442 0.0
C21 C 0.28999 0.39048 0.04523 0.0
C22 C 0.21916 0.35782 0.98264 0.0
C23 C 0.20201 0.33276 1.00161 0.0
C24 C 0.17565 0.31234 0.98568 0.0
C25 C 0.16622 0.31664 0.95062 0.0
C26 C 0.18205 0.34219 0.93201 0.0
C27 C 0.20826 0.36262 0.94783 0.0
C28 C 0.30738 0.44985 0.97505 0.0
C29 C 0.29148 0.46047 0.94348 0.0
C30 C 0.30749 0.48649 0.92559 0.0
C31 C 0.3396 0.50199 0.93899 0.0
C32 C 0.35529 0.49173 0.97044 0.0
C33 C 0.33937 0.46595 0.98835 0.0
C34 C 0.30546 0.38376 0.08031 0.0
C35 C 0.33137 0.40541 0.09546 0.0
C36 C 0.67278 0.60483 0.62724 0.0
C37 C 0.68118 0.63356 0.64443 0.0
C38 C 0.70807 0.65467 0.63038 0.0
C39 C 0.72539 0.64759 0.59851 0.0
H40 H 0.81154 0.67477 0.52835 0.0
H41 H 0.85729 0.71056 0.50007 0.0
H42 H 0.84648 0.6566 0.40498 0.0
H43 H 0.80097 0.62073 0.43266 0.0
H44 H 0.75453 0.55416 0.43272 0.0
H45 H 0.72609 0.50873 0.40127 0.0
H46 H 0.64109 0.49953 0.48111 0.0
H47 H 0.66888 0.5444 0.51262 0.0
H48 H 0.68213 0.57555 0.58263 0.0
H49 H 0.65209 0.58824 0.63784 0.0
H50 H 0.71481 0.67702 0.64348 0.0
H51 H 0.74534 0.66466 0.5877 0.0
N52 N 0.75898 0.63109 0.53105 0.0
N53 N 0.75792 0.59919 0.48059 0.0
N54 N 0.71732 0.58745 0.52685 0.0
C55 C 0.77248 0.6245 0.49865 0.0
C56 C 0.7303 0.58055 0.49459 0.0
C57 C 0.73142 0.61247 0.54535 0.0
C58 C 0.80211 0.64505 0.48269 0.0
C59 C 0.81902 0.67034 0.50148 0.0
C60 C 0.84525 0.69076 0.48545 0.0
C61 C 0.85478 0.6862 0.45047 0.0
C62 C 0.83922 0.66044 0.43202 0.0
C63 C 0.81312 0.64001 0.44795 0.0
C64 C 0.714 0.55303 0.47521 0.0
C65 C 0.72985 0.54242 0.44361 0.0
C66 C 0.71379 0.51643 0.42569 0.0
C67 C 0.68168 0.50095 0.43909 0.0
C68 C 0.66603 0.51121 0.47055 0.0
C69 C 0.682 0.53695 0.48848 0.0
C70 C 0.71587 0.61931 0.58037 0.0
C71 C 0.68993 0.59773 0.59553 0.0
C72 C 0.67353 0.40243 0.12554 0.0
C73 C 0.68691 0.37665 0.14545 0.0
C74 C 0.71963 0.36006 0.13489 0.0
C75 C 0.73806 0.36857 0.10392 0.0
H76 H 0.81132 0.33262 0.02761 0.0
H77 H 0.85251 0.29438 0.99728 0.0
H78 H 0.86031 0.35919 0.91022 0.0
H79 H 0.81925 0.39769 0.94012 0.0
H80 H 0.7515 0.44975 0.92953 0.0
H81 H 0.71769 0.49136 0.89631 0.0
H82 H 0.65897 0.52107 0.98915 0.0
H83 H 0.69228 0.48006 0.02249 0.0
H84 H 0.68017 0.43071 0.07976 0.0
H85 H 0.6483 0.41553 0.13335 0.0
H86 H 0.73039 0.3401 0.1501 0.0
H87 H 0.76284 0.35498 0.09597 0.0
N88 N 0.76888 0.38303 0.03479 0.0
N89 N 0.76885 0.41535 0.98462 0.0
N90 N 0.72792 0.42729 0.03071 0.0
C91 C 0.78293 0.38974 1.0026 0.0
C92 C 0.74143 0.43434 0.99863 0.0
C93 C 0.74135 0.40185 0.04905 0.0
C94 C 0.81133 0.36809 0.98613 0.0
C95 C 0.82206 0.339 1.00219 0.0
C96 C 0.84562 0.31708 0.98491 0.0
C97 C 0.85886 0.32391 0.95142 0.0
C98 C 0.84998 0.35347 0.93599 0.0
C99 C 0.82641 0.37541 0.95317 0.0
C100 C 0.72437 0.46127 0.97867 0.0
C101 C 0.73178 0.4654 0.94298 0.0
C102 C 0.71253 0.48914 0.92395 0.0
C103 C 0.68584 0.509 0.94041 0.0
C104 C 0.67948 0.50583 0.97607 0.0
C105 C 0.69853 0.48224 0.99505 0.0
C106 C 0.72403 0.39388 0.08321 0.0
C107 C 0.69189 0.41104 0.0948 0.0
C108 C 0.34791 0.60079 0.62542 0.0
C109 C 0.33445 0.62663 0.6452 0.0
C110 C 0.30168 0.64309 0.63456 0.0
C111 C 0.28327 0.63442 0.60362 0.0
H112 H 0.21018 0.67024 0.52748 0.0
H113 H 0.16903 0.70853 0.49717 0.0
H114 H 0.16108 0.64378 0.41004 0.0
H115 H 0.2021 0.60521 0.43993 0.0
H116 H 0.26941 0.55317 0.42935 0.0
H117 H 0.30262 0.51136 0.39596 0.0
H118 H 0.36226 0.4817 0.48838 0.0
H119 H 0.32954 0.52295 0.5219 0.0
H120 H 0.34134 0.57232 0.57974 0.0
H121 H 0.37318 0.58779 0.63331 0.0
H122 H 0.29085 0.66309 0.64968 0.0
H123 H 0.25845 0.64792 0.59561 0.0
N124 N 0.25255 0.61981 0.53459 0.0
N125 N 0.25259 0.58758 0.48439 0.0
N126 N 0.29362 0.57562 0.53046 0.0
C127 C 0.23848 0.61314 0.5024 0.0
C128 C 0.28007 0.56861 0.49836 0.0
C129 C 0.28012 0.60103 0.54884 0.0
C130 C 0.21008 0.63479 0.48596 0.0
C131 C 0.1994 0.66387 0.50204 0.0
C132 C 0.17587 0.68583 0.48479 0.0
C133 C 0.1626 0.67902 0.45129 0.0
C134 C 0.17143 0.64947 0.43583 0.0
C135 C 0.19497 0.6275 0.45299 0.0
C136 C 0.29702 0.54168 0.47831 0.0
C137 C 0.28922 0.5375 0.44268 0.0
C138 C 0.30812 0.51364 0.42355 0.0
C139 C 0.33486 0.4937 0.43986 0.0
C140 C 0.34168 0.49698 0.47544 0.0
C141 C 0.32298 0.52071 0.49452 0.0
C142 C 0.29739 0.60906 0.58301 0.0
C143 C 0.32957 0.59202 0.59471 0.0
C144 C 0.84835 0.89764 0.12766 0.0
C145 C 0.83956 0.86899 0.14484 0.0
C146 C 0.81261 0.84801 0.13065 0.0
C147 C 0.79556 0.85515 0.09867 0.0
H148 H 0.7098 0.82801 0.02843 0.0
H149 H 0.66411 0.7922 1.00004 0.0
H150 H 0.67498 0.84619 0.905 0.0
H151 H 0.72043 0.88207 0.93277 0.0
H152 H 0.76685 0.94822 0.93271 0.0
H153 H 0.79551 0.99317 0.90074 0.0
H154 H 0.88044 0.00305 0.98062 0.0
H155 H 0.8524 0.95861 0.01268 0.0
H156 H 0.83952 0.92691 0.08294 0.0
H157 H 0.86912 0.9141 0.13837 0.0
H158 H 0.80561 0.82571 0.14373 0.0
H159 H 0.77553 0.83819 0.08777 0.0
N160 N 0.76237 0.87169 0.03118 0.0
N161 N 0.76341 0.90359 0.98076 0.0
N162 N 0.80406 0.91534 0.02705 0.0
C163 C 0.74887 0.87829 0.99879 0.0
C164 C 0.79104 0.92224 0.99478 0.0
C165 C 0.78995 0.89029 0.04551 0.0
C166 C 0.71926 0.85775 0.98279 0.0
C167 C 0.70235 0.83244 1.00155 0.0
C168 C 0.67614 0.81201 0.98546 0.0
C169 C 0.66665 0.81658 0.95046 0.0
C170 C 0.68221 0.84235 0.93205 0.0
C171 C 0.70827 0.86279 0.94803 0.0
C172 C 0.80735 0.94968 0.97527 0.0
C173 C 0.79156 0.96001 0.94352 0.0
C174 C 0.80775 0.98574 0.92529 0.0
C175 C 0.83993 1.00125 0.93852 0.0
C176 C 0.85546 0.99133 0.97017 0.0
C177 C 0.83935 0.96584 0.98842 0.0
C178 C 0.80541 0.88337 0.08056 0.0
C179 C 0.83146 0.9048 0.09583 0.0
C180 C 0.17292 0.10487 0.62726 0.0
C181 C 0.18133 0.13361 0.64445 0.0
C182 C 0.20824 0.15471 0.6304 0.0
C183 C 0.22555 0.14763 0.59852 0.0
H184 H 0.31163 0.17489 0.52821 0.0
H185 H 0.35726 0.21071 0.4998 0.0
H186 H 0.34639 0.1566 0.40481 0.0
H187 H 0.301 0.12072 0.43261 0.0
H188 H 0.25436 0.05428 0.43261 0.0
H189 H 0.2256 0.00907 0.40105 0.0
H190 H 0.14089 0.99979 0.48113 0.0
H191 H 0.16899 0.04445 0.51275 0.0
H192 H 0.18227 0.07559 0.58265 0.0
H193 H 0.15223 0.08829 0.63786 0.0
H194 H 0.21498 0.17705 0.6435 0.0
H195 H 0.24551 0.16469 0.58771 0.0
N196 N 0.25911 0.13114 0.53103 0.0
N197 N 0.25798 0.09923 0.48057 0.0
N198 N 0.21744 0.0875 0.52687 0.0
C199 C 0.27257 0.12454 0.49861 0.0
C200 C 0.23038 0.08059 0.4946 0.0
C201 C 0.23156 0.11251 0.54535 0.0
C202 C 0.30217 0.1451 0.4826 0.0
C203 C 0.31907 0.17044 0.50134 0.0
C204 C 0.34525 0.19087 0.48523 0.0
C205 C 0.35472 0.18628 0.45024 0.0
C206 C 0.33918 0.16047 0.43186 0.0
C207 C 0.31314 0.14002 0.44785 0.0
C208 C 0.21398 0.05311 0.47522 0.0
C209 C 0.22967 0.04257 0.44354 0.0
C210 C 0.21343 0.0167 0.42555 0.0
C211 C 0.18129 1.00128 0.43897 0.0
C212 C 0.16584 0.01144 0.47054 0.0
C213 C 0.18199 0.03706 0.48854 0.0
C214 C 0.21602 0.11935 0.58038 0.0
C215 C 0.19007 0.09777 0.59555 0.0
C216 C 0.17356 0.90209 0.1256 0.0
C217 C 0.18696 0.87625 0.14541 0.0
C218 C 0.21971 0.85974 0.13481 0.0
C219 C 0.23815 0.86836 0.10388 0.0
H220 H 0.31137 0.8326 0.02737 0.0
H221 H 0.35259 0.79451 0.99683 0.0
H222 H 0.36034 0.85971 0.9101 0.0
H223 H 0.31923 0.89804 0.94019 0.0
H224 H 0.25149 0.94988 0.92968 0.0
H225 H 0.21778 0.99158 0.89649 0.0
H226 H 0.15897 0.02119 0.98932 0.0
H227 H 0.19219 0.98008 0.02263 0.0
H228 H 0.18018 0.93051 0.07992 0.0
H229 H 0.14831 0.91513 0.13344 0.0
H230 H 0.2305 0.83974 0.14997 0.0
H231 H 0.26295 0.85482 0.0959 0.0
N232 N 0.26891 0.88302 0.03478 0.0
N233 N 0.26881 0.91544 0.98469 0.0
N234 N 0.22789 0.92726 0.03081 0.0
C235 C 0.28294 0.88981 1.0026 0.0
C236 C 0.24137 0.93437 0.99874 0.0
C237 C 0.24137 0.90179 0.0491 0.0
C238 C 0.31136 0.86825 0.98605 0.0
C239 C 0.32211 0.8391 1.00197 0.0
C240 C 0.34569 0.81726 0.98459 0.0
C241 C 0.35892 0.82426 0.95114 0.0
C242 C 0.35002 0.85387 0.93585 0.0
C243 C 0.32643 0.87571 0.95313 0.0
C244 C 0.2243 0.96134 0.97882 0.0
C245 C 0.23176 0.96553 0.94314 0.0
C246 C 0.21256 0.98932 0.92412 0.0
C247 C 0.18587 0.00919 0.94058 0.0
C248 C 0.17947 0.00595 0.97624 0.0
C249 C 0.19847 0.9823 0.9952 0.0
C250 C 0.22408 0.89372 0.08324 0.0
C251 C 0.19193 0.91081 0.0949 0.0
C252 C 0.84803 0.10093 0.6254 0.0
C253 C 0.8347 0.12682 0.64518 0.0
C254 C 0.8019 0.14329 0.63455 0.0
C255 C 0.7834 0.1346 0.60365 0.0
H256 H 0.70984 0.17028 0.5272 0.0
H257 H 0.6682 0.20816 0.49678 0.0
H258 H 0.66041 0.14285 0.41012 0.0
H259 H 0.70192 0.10474 0.44009 0.0
H260 H 0.7694 0.05324 0.4294 0.0
H261 H 0.80261 0.01147 0.39598 0.0
H262 H 0.8623 0.98175 0.48835 0.0
H263 H 0.82959 0.02299 0.52191 0.0
H264 H 0.84131 0.0724 0.57978 0.0
H265 H 0.87329 0.0879 0.63326 0.0
H266 H 0.79114 0.16333 0.64966 0.0
H267 H 0.75859 0.14812 0.59565 0.0
N268 N 0.7525 0.11989 0.53459 0.0
N269 N 0.75256 0.08757 0.48444 0.0
N270 N 0.79364 0.07572 0.53049 0.0
C271 C 0.73842 0.11313 0.50241 0.0
C272 C 0.78009 0.06866 0.4984 0.0
C273 C 0.78012 0.10115 0.54886 0.0
C274 C 0.70984 0.1346 0.48592 0.0
C275 C 0.69899 0.16372 0.50185 0.0
C276 C 0.67517 0.18542 0.48453 0.0
C277 C 0.66178 0.17833 0.45114 0.0
C278 C 0.67082 0.14876 0.43584 0.0
C279 C 0.69465 0.12705 0.45304 0.0
C280 C 0.79705 0.04174 0.47835 0.0
C281 C 0.78922 0.03756 0.44272 0.0
C282 C 0.80812 0.01373 0.42357 0.0
C283 C 0.83488 0.99379 0.43984 0.0
C284 C 0.84172 0.99705 0.47543 0.0
C285 C 0.82301 0.02076 0.49453 0.0
C286 C 0.79744 0.10921 0.58303 0.0
C287 C 0.8296 0.09214 0.59473 0.0
Fe288 Fe 0.01365 0.80768 0.31122 0.0
Fe289 Fe 0.01305 0.84315 0.38393 0.0
O290 O 0.01322 0.8448 0.33659 0.0
Fe291 Fe 0.01285 0.88377 0.31458 0.0
O292 O 0.97616 0.87316 0.28389 0.0
O293 O 0.97598 0.82021 0.28198 0.0
O294 O 0.97717 0.78771 0.33659 0.0
C295 C 0.96473 0.79145 0.36692 0.0
C296 C 0.06348 0.84785 0.27274 0.0
O297 O 0.97609 0.81331 0.38677 0.0
C298 C 0.06288 0.89494 0.37077 0.0
O299 O 0.05083 0.78831 0.33633 0.0
O300 O 0.04939 0.81252 0.38727 0.0
O301 O 0.05041 0.87373 0.28448 0.0
O302 O 0.05071 0.82081 0.28149 0.0
C303 C 0.96243 0.89471 0.37035 0.0
O304 O 0.05054 0.87248 0.38934 0.0
O305 O 0.04946 0.90139 0.34142 0.0
C306 C 0.06187 0.7912 0.36721 0.0
O307 O 0.97597 0.87305 0.38938 0.0
O308 O 0.97513 0.90069 0.34067 0.0
C309 C 0.96304 0.84709 0.27287 0.0
Fe310 Fe 1.0074 0.15959 0.88363 0.0
Fe311 Fe 1.00831 0.11934 0.81458 0.0
O312 O 1.0079 0.15801 0.83656 0.0
Fe313 Fe 1.00803 0.19498 0.81145 0.0
O314 O 0.04888 0.21168 0.83411 0.0
O315 O 0.03957 0.19337 0.88721 0.0
O316 O 0.04865 0.13369 0.88809 0.0
C317 C 0.05817 0.1089 0.87152 0.0
C318 C 0.95932 0.21088 0.86807 0.0
O319 O 0.04135 0.10008 0.84436 0.0
C320 C 0.9581 0.15651 0.77274 0.0
O321 O 0.97459 0.12627 0.88943 0.0
O322 O 0.9674 0.10433 0.83779 0.0
O323 O 0.97562 0.21688 0.83975 0.0
O324 O 0.96656 0.1861 0.88563 0.0
C325 C 0.05824 0.15455 0.77321 0.0
O326 O 0.9754 0.13099 0.78042 0.0
O327 O 0.96685 0.18335 0.78568 0.0
C328 C 0.95801 0.1073 0.86906 0.0
O329 O 0.04926 0.12897 0.78837 0.0
O330 O 0.0411 0.1807 0.7784 0.0
C331 C 0.05616 0.21163 0.86617 0.0
Fe332 Fe 0.51346 0.30794 0.31096 0.0
Fe333 Fe 0.5131 0.34288 0.38398 0.0
O334 O 0.51329 0.34488 0.33666 0.0
Fe335 Fe 0.5132 0.38401 0.31499 0.0
O336 O 0.4763 0.37391 0.28434 0.0
O337 O 0.4763 0.32102 0.28145 0.0
O338 O 0.47641 0.28821 0.33588 0.0
C339 C 0.46434 0.29156 0.3664 0.0
C340 C 0.56372 0.34809 0.27298 0.0
O341 O 0.4762 0.31297 0.38657 0.0
C342 C 0.56327 0.39456 0.37125 0.0
O343 O 0.55005 0.28791 0.3362 0.0
O344 O 0.54945 0.31226 0.38707 0.0
O345 O 0.55053 0.37396 0.28465 0.0
O346 O 0.55102 0.32101 0.28172 0.0
C347 C 0.46274 0.3947 0.37082 0.0
O348 O 0.55057 0.37218 0.38973 0.0
O349 O 0.55008 0.40115 0.34186 0.0
C350 C 0.56136 0.29072 0.367 0.0
O351 O 0.47596 0.3727 0.3896 0.0
O352 O 0.47574 0.401 0.34133 0.0
C353 C 0.46335 0.348 0.27276 0.0
Fe354 Fe 0.5079 0.65998 0.88395 0.0
Fe355 Fe 0.50792 0.61915 0.81474 0.0
O356 O 0.50782 0.65818 0.83661 0.0
Fe357 Fe 0.50771 0.69523 0.81111 0.0
O358 O 0.54467 0.71486 0.83627 0.0
O359 O 0.54486 0.68982 0.88679 0.0
O360 O 0.54491 0.63006 0.88956 0.0
C361 C 0.55808 0.60807 0.87076 0.0
C362 C 0.4596 0.71215 0.86705 0.0
O363 O 0.54525 0.60197 0.84114 0.0
C364 C 0.45756 0.6553 0.77276 0.0
O365 O 0.47036 0.63071 0.88944 0.0
O366 O 0.47092 0.60193 0.84141 0.0
O367 O 0.47101 0.7151 0.83631 0.0
O368 O 0.47158 0.69061 0.88709 0.0
C369 C 0.55789 0.65533 0.7728 0.0
O370 O 0.4707 0.62937 0.78434 0.0
O371 O 0.47026 0.68232 0.78167 0.0
C372 C 0.45768 0.60841 0.87081 0.0
O373 O 0.54493 0.62937 0.78425 0.0
O374 O 0.54495 0.68229 0.78163 0.0
C375 C 0.55673 0.71134 0.86677 0.0
C376 C 0.12285 0.27558 0.91635 0.0
C377 C 0.14247 0.2938 0.93281 0.0
C378 C 0.10101 0.254 0.89628 0.0
C379 C 0.0811 0.23544 0.88056 0.0
C380 C 0.89795 0.72721 0.41615 0.0
C381 C 0.8784 0.70898 0.43256 0.0
C382 C 0.91992 0.74889 0.39649 0.0
C383 C 0.94027 0.7675 0.38146 0.0
C384 C 0.89677 0.27985 0.91574 0.0
C385 C 0.87949 0.2999 0.93203 0.0
C386 C 0.91694 0.25589 0.8973 0.0
C387 C 0.93636 0.23563 0.88354 0.0
C388 C 0.12484 0.723 0.41538 0.0
C389 C 0.14206 0.70306 0.43187 0.0
C390 C 0.10476 0.74662 0.39638 0.0
C391 C 0.08529 0.76642 0.38194 0.0
C392 C 0.62361 0.77551 0.91605 0.0
C393 C 0.64311 0.79377 0.93249 0.0
C394 C 0.60168 0.75382 0.89634 0.0
C395 C 0.5813 0.73524 0.88128 0.0
C396 C 0.39764 0.22733 0.41569 0.0
C397 C 0.37821 0.2091 0.43222 0.0
C398 C 0.41948 0.24899 0.39587 0.0
C399 C 0.4398 0.26757 0.38076 0.0
C400 C 0.39678 0.78047 0.91511 0.0
C401 C 0.37953 0.80036 0.93161 0.0
C402 C 0.41687 0.75686 0.89613 0.0
C403 C 0.43628 0.73703 0.8817 0.0
C404 C 0.62358 0.22198 0.41514 0.0
C405 C 0.64099 0.20215 0.43162 0.0
C406 C 0.60357 0.24565 0.39615 0.0
C407 C 0.5844 0.26565 0.38168 0.0
C408 C 0.3768 0.54864 0.90759 0.0
C409 C 0.35811 0.52738 0.92015 0.0
C410 C 0.40298 0.57124 0.8946 0.0
C411 C 0.42794 0.5885 0.88422 0.0
C412 C 0.64435 0.45428 0.40784 0.0
C413 C 0.66313 0.47554 0.42029 0.0
C414 C 0.61805 0.43166 0.39505 0.0
C415 C 0.59306 0.41439 0.38475 0.0
C416 C 0.64181 0.5506 0.90766 0.0
C417 C 0.66285 0.53126 0.92089 0.0
C418 C 0.61397 0.57174 0.89438 0.0
C419 C 0.58845 0.58851 0.88391 0.0
C420 C 0.37837 0.45177 0.40708 0.0
C421 C 0.35748 0.47127 0.42023 0.0
C422 C 0.40632 0.43061 0.39403 0.0
C423 C 0.43208 0.414 0.3838 0.0
C424 C 0.87749 0.04735 0.90648 0.0
C425 C 0.85866 0.02632 0.91934 0.0
C426 C 0.90372 0.06978 0.89318 0.0
C427 C 0.92854 0.08702 0.88244 0.0
C428 C 0.14365 0.95494 0.40745 0.0
C429 C 0.16253 0.97606 0.42006 0.0
C430 C 0.1174 0.93238 0.39448 0.0
C431 C 0.09252 0.915 0.38412 0.0
C432 C 0.14192 0.05094 0.90785 0.0
C433 C 0.16293 0.03153 0.92106 0.0
C434 C 0.1141 0.07224 0.89469 0.0
C435 C 0.08864 0.08924 0.88448 0.0
C436 C 0.87829 0.95189 0.40688 0.0
C437 C 0.85748 0.97137 0.42016 0.0
C438 C 0.90614 0.93074 0.39366 0.0
C439 C 0.93184 0.91411 0.38333 0.0
C440 C 0.38101 0.35674 0.20016 0.0
C441 C 0.3613 0.36132 0.17506 0.0
C442 C 0.408 0.35233 0.22682 0.0
C443 C 0.43324 0.34957 0.24774 0.0
C444 C 0.63994 0.64682 0.69989 0.0
C445 C 0.65969 0.64216 0.67484 0.0
C446 C 0.61303 0.65119 0.72663 0.0
C447 C 0.58788 0.65387 0.74766 0.0
C448 C 0.64527 0.36009 0.19985 0.0
C449 C 0.66547 0.36645 0.17545 0.0
C450 C 0.61845 0.35383 0.22636 0.0
C451 C 0.59356 0.34998 0.24754 0.0
C452 C 0.37605 0.64349 0.69953 0.0
C453 C 0.35585 0.63701 0.67516 0.0
C454 C 0.40288 0.64978 0.72606 0.0
C455 C 0.42775 0.65355 0.74727 0.0
C456 C 0.88043 0.85551 0.20049 0.0
C457 C 0.86082 0.86025 0.17536 0.0
C458 C 0.90743 0.85104 0.22714 0.0
C459 C 0.93278 0.84836 0.24797 0.0
C460 C 0.14006 0.14692 0.6999 0.0
C461 C 0.15983 0.14224 0.67485 0.0
C462 C 0.11312 0.15113 0.72666 0.0
C463 C 0.08799 0.15339 0.74776 0.0
C464 C 0.1452 0.85958 0.1997 0.0
C465 C 0.1655 0.86595 0.17537 0.0
C466 C 0.11826 0.8534 0.22615 0.0
C467 C 0.09334 0.84966 0.24731 0.0
C468 C 0.87657 0.1438 0.69942 0.0
C469 C 0.85628 0.13724 0.67509 0.0
C470 C 0.90337 0.15037 0.72599 0.0
C471 C 0.92802 0.15456 0.7474 0.0
loop_
_geom_bond_atom_site_label_1
_geom_bond_atom_site_label_2
_geom_bond_distance
_geom_bond_site_symmetry_2
_ccdc_geom_bond_type
C0 C1 1.384 . S
C0 H13 0.947 . S
C0 C35 1.382 . S
C1 C0 1.384 . S
C1 C2 1.378 . S
C2 C1 1.378 . S
C2 C3 1.378 . S
C2 H14 0.952 . S
C3 C2 1.378 . S
C3 H15 0.950 . S
C3 C34 1.383 . S
H4 C23 0.947 1_554 S
H5 C24 0.953 . S
H6 C26 0.953 . S
H7 C27 0.945 . S
H8 C29 0.952 . S
H9 C30 0.949 . S
H10 C32 0.950 . S
H11 C33 0.948 1_554 S
H12 C35 0.951 . S
H13 C0 0.947 . S
H14 C2 0.952 . S
H15 C3 0.950 . S
N16 C19 1.382 1_554 S
N16 C21 1.363 . S
N17 C19 1.371 . S
N17 C20 1.372 . S
N18 C20 1.361 1_554 S
N18 C21 1.377 . S
C19 N16 1.382 1_556 S
C19 N17 1.371 . S
C19 C22 1.480 . S
C20 N17 1.372 . S
C20 N18 1.361 1_556 S
C20 C28 1.457 . S
C21 N16 1.363 . S
C21 N18 1.377 . S
C21 C34 1.479 . S
C22 C19 1.480 . S
C22 C23 1.383 . S
C22 C27 1.385 . S
C23 H4 0.947 1_556 S
C23 C22 1.383 . S
C23 C24 1.388 . S
C24 H5 0.953 . S
C24 C23 1.388 . S
C24 C25 1.384 . S
C25 C24 1.384 . S
C25 C26 1.377 . S
C26 H6 0.953 . S
C26 C25 1.377 . S
C26 C27 1.369 . S
C27 H7 0.945 . S
C27 C22 1.385 . S
C27 C26 1.369 . S
C28 C20 1.457 . S
C28 C29 1.372 . S
C28 C33 1.364 . S
C29 H8 0.952 . S
C29 C28 1.372 . S
C29 C30 1.389 . S
C30 H9 0.949 . S
C30 C29 1.389 . S
C30 C31 1.387 . S
C31 C30 1.387 . S
C31 C32 1.372 . S
C32 H10 0.950 . S
C32 C31 1.372 . S
C32 C33 1.379 . S
C33 H11 0.948 1_556 S
C33 C28 1.364 . S
C33 C32 1.379 . S
C34 C3 1.383 . S
C34 C21 1.479 . S
C34 C35 1.398 . S
C35 C0 1.382 . S
C35 H12 0.951 . S
C35 C34 1.398 . S
C36 C37 1.384 . S
C36 H49 0.947 . S
C36 C71 1.382 . S
C37 C36 1.384 . S
C37 C38 1.378 . S
C38 C37 1.378 . S
C38 C39 1.378 . S
C38 H50 0.952 . S
C39 C38 1.378 . S
C39 H51 0.950 . S
C39 C70 1.383 . S
H40 C59 0.947 . S
H41 C60 0.946 . S
H42 C62 0.953 . S
H43 C63 0.945 . S
H44 C65 0.952 . S
H45 C66 0.949 . S
H46 C68 0.950 . S
H47 C69 0.948 . S
H48 C71 0.951 . S
H49 C36 0.947 . S
H50 C38 0.952 . S
H51 C39 0.950 . S
N52 C55 1.382 . S
N52 C57 1.363 . S
N53 C55 1.371 . S
N53 C56 1.372 . S
N54 C56 1.361 . S
N54 C57 1.377 . S
C55 N52 1.382 . S
C55 N53 1.371 . S
C55 C58 1.480 . S
C56 N53 1.372 . S
C56 N54 1.361 . S
C56 C64 1.457 . S
C57 N52 1.363 . S
C57 N54 1.377 . S
C57 C70 1.479 . S
C58 C55 1.480 . S
C58 C59 1.383 . S
C58 C63 1.385 . S
C59 H40 0.947 . S
C59 C58 1.383 . S
C59 C60 1.388 . S
C60 H41 0.946 . S
C60 C59 1.388 . S
C60 C61 1.384 . S
C61 C60 1.384 . S
C61 C62 1.377 . S
C62 H42 0.953 . S
C62 C61 1.377 . S
C62 C63 1.369 . S
C63 H43 0.945 . S
C63 C58 1.385 . S
C63 C62 1.369 . S
C64 C56 1.457 . S
C64 C65 1.372 . S
C64 C69 1.364 . S
C65 H44 0.952 . S
C65 C64 1.372 . S
C65 C66 1.389 . S
C66 H45 0.949 . S
C66 C65 1.389 . S
C66 C67 1.387 . S
C67 C66 1.387 . S
C67 C68 1.372 . S
C68 H46 0.950 . S
C68 C67 1.372 . S
C68 C69 1.379 . S
C69 H47 0.948 . S
C69 C64 1.364 . S
C69 C68 1.379 . S
C70 C39 1.383 . S
C70 C57 1.479 . S
C70 C71 1.398 . S
C71 C36 1.382 . S
C71 H48 0.951 . S
C71 C70 1.398 . S
C72 C73 1.384 . S
C72 H85 0.947 . S
C72 C107 1.382 . S
C73 C72 1.384 . S
C73 C74 1.378 . S
C74 C73 1.378 . S
C74 C75 1.378 . S
C74 H86 0.952 . S
C75 C74 1.378 . S
C75 H87 0.950 . S
C75 C106 1.383 . S
H76 C95 0.947 1_554 S
H77 C96 0.946 . S
H78 C98 0.953 . S
H79 C99 0.945 . S
H80 C101 0.952 . S
H81 C102 0.949 . S
H82 C104 0.950 . S
H83 C105 0.948 1_554 S
H84 C107 0.951 . S
H85 C72 0.947 . S
H86 C74 0.952 . S
H87 C75 0.950 . S
N88 C91 1.382 1_554 S
N88 C93 1.363 . S
N89 C91 1.371 . S
N89 C92 1.372 . S
N90 C92 1.361 1_554 S
N90 C93 1.377 . S
C91 N88 1.382 1_556 S
C91 N89 1.371 . S
C91 C94 1.480 . S
C92 N89 1.372 . S
C92 N90 1.361 1_556 S
C92 C100 1.457 . S
C93 N88 1.363 . S
C93 N90 1.377 . S
C93 C106 1.479 . S
C94 C91 1.480 . S
C94 C95 1.383 . S
C94 C99 1.385 . S
C95 H76 0.947 1_556 S
C95 C94 1.383 . S
C95 C96 1.388 . S
C96 H77 0.946 . S
C96 C95 1.388 . S
C96 C97 1.384 . S
C97 C96 1.384 . S
C97 C98 1.377 . S
C98 H78 0.953 . S
C98 C97 1.377 . S
C98 C99 1.369 . S
C99 H79 0.945 . S
C99 C94 1.385 . S
C99 C98 1.369 . S
C100 C92 1.457 . S
C100 C101 1.372 . S
C100 C105 1.364 . S
C101 H80 0.952 . S
C101 C100 1.372 . S
C101 C102 1.389 . S
C102 H81 0.949 . S
C102 C101 1.389 . S
C102 C103 1.387 . S
C103 C102 1.387 . S
C103 C104 1.372 . S
C104 H82 0.950 . S
C104 C103 1.372 . S
C104 C105 1.379 . S
C105 H83 0.948 1_556 S
C105 C100 1.364 . S
C105 C104 1.379 . S
C106 C75 1.383 . S
C106 C93 1.479 . S
C106 C107 1.398 . S
C107 C72 1.382 . S
C107 H84 0.951 . S
C107 C106 1.398 . S
C108 C109 1.384 . S
C108 H121 0.947 . S
C108 C143 1.382 . S
C109 C108 1.384 . S
C109 C110 1.378 . S
C110 C109 1.378 . S
C110 C111 1.378 . S
C110 H122 0.952 . S
C111 C110 1.378 . S
C111 H123 0.950 . S
C111 C142 1.383 . S
H112 C131 0.947 . S
H113 C132 0.946 . S
H114 C134 0.953 . S
H115 C135 0.945 . S
H116 C137 0.952 . S
H117 C138 0.949 . S
H118 C140 0.950 . S
H119 C141 0.948 . S
H120 C143 0.951 . S
H121 C108 0.947 . S
H122 C110 0.952 . S
H123 C111 0.950 . S
N124 C127 1.382 . S
N124 C129 1.363 . S
N125 C127 1.371 . S
N125 C128 1.372 . S
N126 C128 1.361 . S
N126 C129 1.377 . S
C127 N124 1.382 . S
C127 N125 1.371 . S
C127 C130 1.480 . S
C128 N125 1.372 . S
C128 N126 1.361 . S
C128 C136 1.457 . S
C129 N124 1.363 . S
C129 N126 1.377 . S
C129 C142 1.479 . S
C130 C127 1.480 . S
C130 C131 1.383 . S
C130 C135 1.385 . S
C131 H112 0.947 . S
C131 C130 1.383 . S
C131 C132 1.388 . S
C132 H113 0.946 . S
C132 C131 1.388 . S
C132 C133 1.384 . S
C133 C132 1.384 . S
C133 C134 1.377 . S
C134 H114 0.953 . S
C134 C133 1.377 . S
C134 C135 1.369 . S
C135 H115 0.945 . S
C135 C130 1.385 . S
C135 C134 1.369 . S
C136 C128 1.457 . S
C136 C137 1.372 . S
C136 C141 1.364 . S
C137 H116 0.952 . S
C137 C136 1.372 . S
C137 C138 1.389 . S
C138 H117 0.949 . S
C138 C137 1.389 . S
C138 C139 1.387 . S
C139 C138 1.387 . S
C139 C140 1.372 . S
C140 H118 0.950 . S
C140 C139 1.372 . S
C140 C141 1.379 . S
C141 H119 0.948 . S
C141 C136 1.364 . S
C141 C140 1.379 . S
C142 C111 1.383 . S
C142 C129 1.479 . S
C142 C143 1.398 . S
C143 C108 1.382 . S
C143 H120 0.951 . S
C143 C142 1.398 . S
C144 C145 1.384 . S
C144 H157 0.947 . S
C144 C179 1.382 . S
C145 C144 1.384 . S
C145 C146 1.378 . S
C146 C145 1.378 . S
C146 C147 1.378 . S
C146 H158 0.952 . S
C147 C146 1.378 . S
C147 H159 0.950 . S
C147 C178 1.383 . S
H148 C167 0.947 1_554 S
H149 C168 0.953 . S
H150 C170 0.953 . S
H151 C171 0.945 . S
H152 C173 0.952 . S
H153 C174 0.949 . S
H154 C176 0.950 1_545 S
H155 C177 0.948 1_554 S
H156 C179 0.951 . S
H157 C144 0.947 . S
H158 C146 0.952 . S
H159 C147 0.950 . S
N160 C163 1.382 1_554 S
N160 C165 1.363 . S
N161 C163 1.371 . S
N161 C164 1.372 . S
N162 C164 1.361 1_554 S
N162 C165 1.377 . S
C163 N160 1.382 1_556 S
C163 N161 1.371 . S
C163 C166 1.480 . S
C164 N161 1.372 . S
C164 N162 1.361 1_556 S
C164 C172 1.457 . S
C165 N160 1.363 . S
C165 N162 1.377 . S
C165 C178 1.479 . S
C166 C163 1.480 . S
C166 C167 1.383 . S
C166 C171 1.385 . S
C167 H148 0.947 1_556 S
C167 C166 1.383 . S
C167 C168 1.388 . S
C168 H149 0.953 . S
C168 C167 1.388 . S
C168 C169 1.384 . S
C169 C168 1.384 . S
C169 C170 1.377 . S
C170 H150 0.953 . S
C170 C169 1.377 . S
C170 C171 1.369 . S
C171 H151 0.945 . S
C171 C166 1.385 . S
C171 C170 1.369 . S
C172 C164 1.457 . S
C172 C173 1.372 . S
C172 C177 1.364 . S
C173 H152 0.952 . S
C173 C172 1.372 . S
C173 C174 1.389 . S
C174 H153 0.949 . S
C174 C173 1.389 . S
C174 C175 1.401 . S
C175 C174 1.401 . S
C175 C176 1.381 . S
C176 H154 0.950 1_565 S
C176 C175 1.381 . S
C176 C177 1.379 . S
C177 H155 0.948 1_556 S
C177 C172 1.364 . S
C177 C176 1.379 . S
C178 C147 1.383 . S
C178 C165 1.479 . S
C178 C179 1.398 . S
C179 C144 1.382 . S
C179 H156 0.951 . S
C179 C178 1.398 . S
C180 C181 1.384 . S
C180 H193 0.947 . S
C180 C215 1.382 . S
C181 C180 1.384 . S
C181 C182 1.378 . S
C182 C181 1.378 . S
C182 C183 1.378 . S
C182 H194 0.952 . S
C183 C182 1.378 . S
C183 H195 0.950 . S
C183 C214 1.383 . S
H184 C203 0.947 . S
H185 C204 0.946 . S
H186 C206 0.953 . S
H187 C207 0.945 . S
H188 C209 0.952 . S
H189 C210 0.949 . S
H190 C212 0.950 1_565 S
H191 C213 0.948 . S
H192 C215 0.951 . S
H193 C180 0.947 . S
H194 C182 0.952 . S
H195 C183 0.950 . S
N196 C199 1.382 . S
N196 C201 1.363 . S
N197 C199 1.371 . S
N197 C200 1.372 . S
N198 C200 1.361 . S
N198 C201 1.377 . S
C199 N196 1.382 . S
C199 N197 1.371 . S
C199 C202 1.480 . S
C200 N197 1.372 . S
C200 N198 1.361 . S
C200 C208 1.457 . S
C201 N196 1.363 . S
C201 N198 1.377 . S
C201 C214 1.479 . S
C202 C199 1.480 . S
C202 C203 1.383 . S
C202 C207 1.385 . S
C203 H184 0.947 . S
C203 C202 1.383 . S
C203 C204 1.388 . S
C204 H185 0.946 . S
C204 C203 1.388 . S
C204 C205 1.384 . S
C205 C204 1.384 . S
C205 C206 1.377 . S
C206 H186 0.953 . S
C206 C205 1.377 . S
C206 C207 1.369 . S
C207 H187 0.945 . S
C207 C202 1.385 . S
C207 C206 1.369 . S
C208 C200 1.457 . S
C208 C209 1.372 . S
C208 C213 1.364 . S
C209 H188 0.952 . S
C209 C208 1.372 . S
C209 C210 1.389 . S
C210 H189 0.949 . S
C210 C209 1.389 . S
C210 C211 1.401 . S
C211 C210 1.401 . S
C211 C212 1.381 . S
C212 H190 0.950 1_545 S
C212 C211 1.381 . S
C212 C213 1.379 . S
C213 H191 0.948 . S
C213 C208 1.364 . S
C213 C212 1.379 . S
C214 C183 1.383 . S
C214 C201 1.479 . S
C214 C215 1.398 . S
C215 C180 1.382 . S
C215 H192 0.951 . S
C215 C214 1.398 . S
C216 C217 1.384 . S
C216 H229 0.947 . S
C216 C251 1.382 . S
C217 C216 1.384 . S
C217 C218 1.378 . S
C218 C217 1.378 . S
C218 C219 1.378 . S
C218 H230 0.952 . S
C219 C218 1.378 . S
C219 H231 0.950 . S
C219 C250 1.383 . S
H220 C239 0.947 1_554 S
H221 C240 0.946 . S
H222 C242 0.953 . S
H223 C243 0.945 . S
H224 C245 0.952 . S
H225 C246 0.949 . S
H226 C248 0.950 . S
H227 C249 0.948 1_554 S
H228 C251 0.951 . S
H229 C216 0.947 . S
H230 C218 0.952 . S
H231 C219 0.950 . S
N232 C235 1.382 1_554 S
N232 C237 1.363 . S
N233 C235 1.371 . S
N233 C236 1.372 . S
N234 C236 1.361 1_554 S
N234 C237 1.377 . S
C235 N232 1.382 1_556 S
C235 N233 1.371 . S
C235 C238 1.480 . S
C236 N233 1.372 . S
C236 N234 1.361 1_556 S
C236 C244 1.457 . S
C237 N232 1.363 . S
C237 N234 1.377 . S
C237 C250 1.479 . S
C238 C235 1.480 . S
C238 C239 1.383 . S
C238 C243 1.385 . S
C239 H220 0.947 1_556 S
C239 C238 1.383 . S
C239 C240 1.388 . S
C240 H221 0.946 . S
C240 C239 1.388 . S
C240 C241 1.384 . S
C241 C240 1.384 . S
C241 C242 1.377 . S
C242 H222 0.953 . S
C242 C241 1.377 . S
C242 C243 1.369 . S
C243 H223 0.945 . S
C243 C238 1.385 . S
C243 C242 1.369 . S
C244 C236 1.457 . S
C244 C245 1.372 . S
C244 C249 1.364 . S
C245 H224 0.952 . S
C245 C244 1.372 . S
C245 C246 1.389 . S
C246 H225 0.949 . S
C246 C245 1.389 . S
C246 C247 1.387 1_565 S
C247 C246 1.387 1_545 S
C247 C248 1.372 . S
C248 H226 0.950 . S
C248 C247 1.372 . S
C248 C249 1.379 1_545 S
C249 H227 0.948 1_556 S
C249 C244 1.364 . S
C249 C248 1.379 1_565 S
C250 C219 1.383 . S
C250 C237 1.479 . S
C250 C251 1.398 . S
C251 C216 1.382 . S
C251 H228 0.951 . S
C251 C250 1.398 . S
C252 C253 1.384 . S
C252 H265 0.947 . S
C252 C287 1.382 . S
C253 C252 1.384 . S
C253 C254 1.378 . S
C254 C253 1.378 . S
C254 C255 1.378 . S
C254 H266 0.952 . S
C255 C254 1.378 . S
C255 H267 0.950 . S
C255 C286 1.383 . S
H256 C275 0.947 . S
H257 C276 0.946 . S
H258 C278 0.953 . S
H259 C279 0.945 . S
H260 C281 0.952 . S
H261 C282 0.949 . S
H262 C284 0.950 . S
H263 C285 0.948 . S
H264 C287 0.951 . S
H265 C252 0.947 . S
H266 C254 0.952 . S
H267 C255 0.950 . S
N268 C271 1.382 . S
N268 C273 1.363 . S
N269 C271 1.371 . S
N269 C272 1.372 . S
N270 C272 1.361 . S
N270 C273 1.377 . S
C271 N268 1.382 . S
C271 N269 1.371 . S
C271 C274 1.480 . S
C272 N269 1.372 . S
C272 N270 1.361 . S
C272 C280 1.457 . S
C273 N268 1.363 . S
C273 N270 1.377 . S
C273 C286 1.479 . S
C274 C271 1.480 . S
C274 C275 1.383 . S
C274 C279 1.385 . S
C275 H256 0.947 . S
C275 C274 1.383 . S
C275 C276 1.388 . S
C276 H257 0.946 . S
C276 C275 1.388 . S
C276 C277 1.384 . S
C277 C276 1.384 . S
C277 C278 1.377 . S
C278 H258 0.953 . S
C278 C277 1.377 . S
C278 C279 1.369 . S
C279 H259 0.945 . S
C279 C274 1.385 . S
C279 C278 1.369 . S
C280 C272 1.457 . S
C280 C281 1.372 . S
C280 C285 1.364 . S
C281 H260 0.952 . S
C281 C280 1.372 . S
C281 C282 1.389 . S
C282 H261 0.949 . S
C282 C281 1.389 . S
C282 C283 1.387 1_545 S
C283 C282 1.387 1_565 S
C283 C284 1.372 . S
C284 H262 0.950 . S
C284 C283 1.372 . S
C284 C285 1.379 1_565 S
C285 H263 0.948 . S
C285 C280 1.364 . S
C285 C284 1.379 1_545 S
C286 C255 1.383 . S
C286 C273 1.479 . S
C286 C287 1.398 . S
C287 C252 1.382 . S
C287 H264 0.951 . S
C287 C286 1.398 . S
Fe288 O290 1.918 . S
Fe288 O293 1.997 1_455 S
Fe288 O294 2.002 1_455 S
Fe288 O299 1.976 . S
Fe288 O302 1.996 . S
Fe289 O290 1.918 . S
Fe289 O297 1.997 1_455 S
Fe289 O300 1.996 . S
Fe289 O304 1.976 . S
Fe289 O307 2.002 1_455 S
O290 Fe288 1.918 . S
O290 Fe289 1.918 . S
O290 Fe291 1.918 . S
Fe291 O290 1.918 . S
Fe291 O292 2.002 1_455 S
Fe291 O301 1.976 . S
Fe291 O305 1.996 . S
Fe291 O308 1.997 1_455 S
O292 Fe291 2.002 1_655 S
O292 C309 1.295 . S
O293 Fe288 1.997 1_655 S
O293 C309 1.235 . S
O294 Fe288 2.002 1_655 S
O294 C295 1.295 . S
C295 O294 1.295 . S
C295 O297 1.235 . S
C296 O301 1.287 . S
C296 O302 1.255 . S
O297 Fe289 1.997 1_655 S
O297 C295 1.235 . S
C298 O304 1.287 . S
C298 O305 1.255 . S
O299 Fe288 1.976 . S
O299 C306 1.287 . S
O300 Fe289 1.996 . S
O300 C306 1.255 . S
O301 Fe291 1.976 . S
O301 C296 1.287 . S
O302 Fe288 1.996 . S
O302 C296 1.255 . S
C303 O307 1.295 . S
C303 O308 1.235 . S
O304 Fe289 1.976 . S
O304 C298 1.287 . S
O305 Fe291 1.996 . S
O305 C298 1.255 . S
C306 O299 1.287 . S
C306 O300 1.255 . S
O307 Fe289 2.002 1_655 S
O307 C303 1.295 . S
O308 Fe291 1.997 1_655 S
O308 C303 1.235 . S
C309 O292 1.295 . S
C309 O293 1.235 . S
Fe310 O312 1.918 . S
Fe310 O315 1.997 1_655 S
Fe310 O316 2.002 1_655 S
Fe310 O321 1.976 . S
Fe310 O324 1.996 . S
Fe311 O312 1.918 . S
Fe311 O319 1.997 1_655 S
Fe311 O322 1.996 . S
Fe311 O326 1.976 . S
Fe311 O329 2.002 1_655 S
O312 Fe310 1.918 . S
O312 Fe311 1.918 . S
O312 Fe313 1.918 . S
Fe313 O312 1.918 . S
Fe313 O314 2.002 1_655 S
Fe313 O323 1.976 . S
Fe313 O327 1.996 . S
Fe313 O330 1.997 1_655 S
O314 Fe313 2.002 1_455 S
O314 C331 1.295 . S
O315 Fe310 1.997 1_455 S
O315 C331 1.235 . S
O316 Fe310 2.002 1_455 S
O316 C317 1.295 . S
C317 O316 1.295 . S
C317 O319 1.235 . S
C318 O323 1.287 . S
C318 O324 1.255 . S
O319 Fe311 1.997 1_455 S
O319 C317 1.235 . S
C320 O326 1.287 . S
C320 O327 1.255 . S
O321 Fe310 1.976 . S
O321 C328 1.287 . S
O322 Fe311 1.996 . S
O322 C328 1.255 . S
O323 Fe313 1.976 . S
O323 C318 1.287 . S
O324 Fe310 1.996 . S
O324 C318 1.255 . S
C325 O329 1.295 . S
C325 O330 1.235 . S
O326 Fe311 1.976 . S
O326 C320 1.287 . S
O327 Fe313 1.996 . S
O327 C320 1.255 . S
C328 O321 1.287 . S
C328 O322 1.255 . S
O329 Fe311 2.002 1_455 S
O329 C325 1.295 . S
O330 Fe313 1.997 1_455 S
O330 C325 1.235 . S
C331 O314 1.295 . S
C331 O315 1.235 . S
Fe332 O334 1.918 . S
Fe332 O337 1.997 . S
Fe332 O338 2.002 . S
Fe332 O343 1.976 . S
Fe332 O346 1.996 . S
Fe333 O334 1.918 . S
Fe333 O341 1.997 . S
Fe333 O344 1.996 . S
Fe333 O348 1.976 . S
Fe333 O351 2.002 . S
O334 Fe332 1.918 . S
O334 Fe333 1.918 . S
O334 Fe335 1.918 . S
Fe335 O334 1.918 . S
Fe335 O336 2.002 . S
Fe335 O345 1.976 . S
Fe335 O349 1.996 . S
Fe335 O352 1.997 . S
O336 Fe335 2.002 . S
O336 C353 1.295 . S
O337 Fe332 1.997 . S
O337 C353 1.235 . S
O338 Fe332 2.002 . S
O338 C339 1.295 . S
C339 O338 1.295 . S
C339 O341 1.235 . S
C340 O345 1.287 . S
C340 O346 1.255 . S
O341 Fe333 1.997 . S
O341 C339 1.235 . S
C342 O348 1.287 . S
C342 O349 1.255 . S
O343 Fe332 1.976 . S
O343 C350 1.287 . S
O344 Fe333 1.996 . S
O344 C350 1.255 . S
O345 Fe335 1.976 . S
O345 C340 1.287 . S
O346 Fe332 1.996 . S
O346 C340 1.255 . S
C347 O351 1.295 . S
C347 O352 1.235 . S
O348 Fe333 1.976 . S
O348 C342 1.287 . S
O349 Fe335 1.996 . S
O349 C342 1.255 . S
C350 O343 1.287 . S
C350 O344 1.255 . S
O351 Fe333 2.002 . S
O351 C347 1.295 . S
O352 Fe335 1.997 . S
O352 C347 1.235 . S
C353 O336 1.295 . S
C353 O337 1.235 . S
Fe354 O356 1.918 . S
Fe354 O359 1.997 . S
Fe354 O360 2.002 . S
Fe354 O365 1.976 . S
Fe354 O368 1.996 . S
Fe355 O356 1.918 . S
Fe355 O363 1.997 . S
Fe355 O366 1.996 . S
Fe355 O370 1.976 . S
Fe355 O373 2.002 . S
O356 Fe354 1.918 . S
O356 Fe355 1.918 . S
O356 Fe357 1.918 . S
Fe357 O356 1.918 . S
Fe357 O358 2.002 . S
Fe357 O367 1.976 . S
Fe357 O371 1.996 . S
Fe357 O374 1.997 . S
O358 Fe357 2.002 . S
O358 C375 1.295 . S
O359 Fe354 1.997 . S
O359 C375 1.235 . S
O360 Fe354 2.002 . S
O360 C361 1.295 . S
C361 O360 1.295 . S
C361 O363 1.235 . S
C362 O367 1.287 . S
C362 O368 1.255 . S
O363 Fe355 1.997 . S
O363 C361 1.235 . S
C364 O370 1.287 . S
C364 O371 1.255 . S
O365 Fe354 1.976 . S
O365 C372 1.287 . S
O366 Fe355 1.996 . S
O366 C372 1.255 . S
O367 Fe357 1.976 . S
O367 C362 1.287 . S
O368 Fe354 1.996 . S
O368 C362 1.255 . S
C369 O373 1.295 . S
C369 O374 1.235 . S
O370 Fe355 1.976 . S
O370 C364 1.287 . S
O371 Fe357 1.996 . S
O371 C364 1.255 . S
C372 O365 1.287 . S
C372 O366 1.255 . S
O373 Fe355 2.002 . S
O373 C369 1.295 . S
O374 Fe357 1.997 . S
O374 C369 1.235 . S
C375 O358 1.295 . S
C375 O359 1.235 . S
C376 C377 1.170 . S
C376 C378 1.380 . S
C377 C376 1.170 . S
C378 C376 1.380 . S
C378 C379 1.170 . S
C379 C378 1.170 . S
C380 C381 1.170 . S
C380 C382 1.380 . S
C381 C380 1.170 . S
C382 C380 1.380 . S
C382 C383 1.170 . S
C383 C382 1.170 . S
C384 C385 1.170 . S
C384 C386 1.380 . S
C385 C384 1.170 . S
C386 C384 1.380 . S
C386 C387 1.170 . S
C387 C386 1.170 . S
C388 C389 1.170 . S
C388 C390 1.380 . S
C389 C388 1.170 . S
C390 C388 1.380 . S
C390 C391 1.170 . S
C391 C390 1.170 . S
C392 C393 1.170 . S
C392 C394 1.380 . S
C393 C392 1.170 . S
C394 C392 1.380 . S
C394 C395 1.170 . S
C395 C394 1.170 . S
C396 C397 1.170 . S
C396 C398 1.380 . S
C397 C396 1.170 . S
C398 C396 1.380 . S
C398 C399 1.170 . S
C399 C398 1.170 . S
C400 C401 1.170 . S
C400 C402 1.380 . S
C401 C400 1.170 . S
C402 C400 1.380 . S
C402 C403 1.170 . S
C403 C402 1.170 . S
C404 C405 1.170 . S
C404 C406 1.380 . S
C405 C404 1.170 . S
C406 C404 1.380 . S
C406 C407 1.170 . S
C407 C406 1.170 . S
C408 C409 1.170 . S
C408 C410 1.380 . S
C409 C408 1.170 . S
C410 C408 1.380 . S
C410 C411 1.170 . S
C411 C410 1.170 . S
C412 C413 1.170 . S
C412 C414 1.380 . S
C413 C412 1.170 . S
C414 C412 1.380 . S
C414 C415 1.170 . S
C415 C414 1.170 . S
C416 C417 1.170 . S
C416 C418 1.380 . S
C417 C416 1.170 . S
C418 C416 1.380 . S
C418 C419 1.170 . S
C419 C418 1.170 . S
C420 C421 1.170 . S
C420 C422 1.380 . S
C421 C420 1.170 . S
C422 C420 1.380 . S
C422 C423 1.170 . S
C423 C422 1.170 . S
C424 C425 1.170 . S
C424 C426 1.380 . S
C425 C424 1.170 . S
C426 C424 1.380 . S
C426 C427 1.170 . S
C427 C426 1.170 . S
C428 C429 1.170 . S
C428 C430 1.380 . S
C429 C428 1.170 . S
C430 C428 1.380 . S
C430 C431 1.170 . S
C431 C430 1.170 . S
C432 C433 1.170 . S
C432 C434 1.380 . S
C433 C432 1.170 . S
C434 C432 1.380 . S
C434 C435 1.170 . S
C435 C434 1.170 . S
C436 C437 1.170 . S
C436 C438 1.380 . S
C437 C436 1.170 . S
C438 C436 1.380 . S
C438 C439 1.170 . S
C439 C438 1.170 . S
C440 C441 1.170 . S
C440 C442 1.380 . S
C441 C440 1.170 . S
C442 C440 1.380 . S
C442 C443 1.170 . S
C443 C442 1.170 . S
C444 C445 1.170 . S
C444 C446 1.380 . S
C445 C444 1.170 . S
C446 C444 1.380 . S
C446 C447 1.170 . S
C447 C446 1.170 . S
C448 C449 1.170 . S
C448 C450 1.380 . S
C449 C448 1.170 . S
C450 C448 1.380 . S
C450 C451 1.170 . S
C451 C450 1.170 . S
C452 C453 1.170 . S
C452 C454 1.380 . S
C453 C452 1.170 . S
C454 C452 1.380 . S
C454 C455 1.170 . S
C455 C454 1.170 . S
C456 C457 1.170 . S
C456 C458 1.380 . S
C457 C456 1.170 . S
C458 C456 1.380 . S
C458 C459 1.170 . S
C459 C458 1.170 . S
C460 C461 1.170 . S
C460 C462 1.380 . S
C461 C460 1.170 . S
C462 C460 1.380 . S
C462 C463 1.170 . S
C463 C462 1.170 . S
C464 C465 1.170 . S
C464 C466 1.380 . S
C465 C464 1.170 . S
C466 C464 1.380 . S
C466 C467 1.170 . S
C467 C466 1.170 . S
C468 C469 1.170 . S
C468 C470 1.380 . S
C469 C468 1.170 . S
C470 C468 1.380 . S
C470 C471 1.170 . S
C471 C470 1.170 . S
C377 C25 1.540 . S
C379 C331 1.553 . S
C383 C295 1.559 . S
C381 C61 1.532 . S
C387 C318 1.545 . S
C385 C97 1.548 . S
C391 C306 1.550 . S
C389 C133 1.547 . S
C395 C375 1.559 . S
C393 C169 1.532 . S
C399 C339 1.560 . S
C397 C205 1.528 . S
C401 C241 1.547 . S
C403 C362 1.553 . S
C407 C350 1.548 . S
C405 C277 1.555 . S
C409 C31 1.505 . S
C411 C372 1.565 . S
C415 C342 1.565 . S
C413 C67 1.503 . S
C417 C103 1.551 . S
C419 C361 1.588 . S
C421 C139 1.577 . S
C423 C347 1.596 . S
C427 C328 1.563 . S
C425 C175 1.482 1_545 S
C429 C211 1.469 1_565 S
C431 C298 1.566 . S
C435 C317 1.589 . S
C433 C247 1.553 . S
C439 C303 1.596 . S
C437 C283 1.576 . S
C443 C353 1.560 . S
C441 C1 1.531 . S
C447 C369 1.564 . S
C445 C37 1.517 . S
C449 C73 1.538 . S
C451 C340 1.542 . S
C455 C364 1.547 . S
C453 C109 1.542 . S
C459 C309 1.573 . S
C457 C145 1.534 . S
C461 C181 1.520 . S
C463 C325 1.562 . S
C465 C217 1.543 . S
C467 C296 1.546 . S
C469 C253 1.540 . S
C471 C320 1.549 . S
