# Generated by pormake.
# Topology bpr, (3,3)-cn, num edge types: 1
# Building blocks:
#     Node 0, Type 0, BuildingBlock: OLANEW_clean_sbu_2, # of connection points: 3
#     Node 1, Type 0, BuildingBlock: OLANEW_clean_sbu_2, # of connection points: 3
#     Node 2, Type 0, BuildingBlock: OLANEW_clean_sbu_2, # of connection points: 3
#     Node 3, Type 0, BuildingBlock: OLANEW_clean_sbu_2, # of connection points: 3
#     Node 4, Type 0, BuildingBlock: OLANEW_clean_sbu_2, # of connection points: 3
#     Node 5, Type 0, BuildingBlock: OLANEW_clean_sbu_2, # of connection points: 3
#     Node 6, Type 0, BuildingBlock: OLANEW_clean_sbu_2, # of connection points: 3
#     Node 7, Type 0, BuildingBlock: OLANEW_clean_sbu_2, # of connection points: 3
#     Node 8, Type 0, BuildingBlock: OLANEW_clean_sbu_2, # of connection points: 3
#     Node 9, Type 0, BuildingBlock: OLANEW_clean_sbu_2, # of connection points: 3
#     Node 10, Type 0, BuildingBlock: OLANEW_clean_sbu_2, # of connection points: 3
#     Node 11, Type 0, BuildingBlock: OLANEW_clean_sbu_2, # of connection points: 3
#     Node 12, Type 0, BuildingBlock: OLANEW_clean_sbu_2, # of connection points: 3
#     Node 13, Type 0, BuildingBlock: OLANEW_clean_sbu_2, # of connection points: 3
#     Node 14, Type 0, BuildingBlock: OLANEW_clean_sbu_2, # of connection points: 3
#     Node 15, Type 0, BuildingBlock: OLANEW_clean_sbu_2, # of connection points: 3
#     Node 16, Type 0, BuildingBlock: OLANEW_clean_sbu_2, # of connection points: 3
#     Node 17, Type 0, BuildingBlock: OLANEW_clean_sbu_2, # of connection points: 3
#     Node 18, Type 0, BuildingBlock: OLANEW_clean_sbu_2, # of connection points: 3
#     Node 19, Type 0, BuildingBlock: OLANEW_clean_sbu_2, # of connection points: 3
#     Node 20, Type 0, BuildingBlock: OLANEW_clean_sbu_2, # of connection points: 3
#     Node 21, Type 0, BuildingBlock: OLANEW_clean_sbu_2, # of connection points: 3
#     Node 22, Type 0, BuildingBlock: OLANEW_clean_sbu_2, # of connection points: 3
#     Node 23, Type 0, BuildingBlock: OLANEW_clean_sbu_2, # of connection points: 3
#     Node 24, Type 0, BuildingBlock: OLANEW_clean_sbu_2, # of connection points: 3
#     Node 25, Type 0, BuildingBlock: OLANEW_clean_sbu_2, # of connection points: 3
#     Node 26, Type 0, BuildingBlock: OLANEW_clean_sbu_2, # of connection points: 3
#     Node 27, Type 0, BuildingBlock: OLANEW_clean_sbu_2, # of connection points: 3
#     Node 28, Type 0, BuildingBlock: OLANEW_clean_sbu_2, # of connection points: 3
#     Node 29, Type 0, BuildingBlock: OLANEW_clean_sbu_2, # of connection points: 3
#     Node 30, Type 0, BuildingBlock: OLANEW_clean_sbu_2, # of connection points: 3
#     Node 31, Type 0, BuildingBlock: OLANEW_clean_sbu_2, # of connection points: 3
#     Node 32, Type 0, BuildingBlock: OLANEW_clean_sbu_2, # of connection points: 3
#     Node 33, Type 0, BuildingBlock: OLANEW_clean_sbu_2, # of connection points: 3
#     Node 34, Type 0, BuildingBlock: OLANEW_clean_sbu_2, # of connection points: 3
#     Node 35, Type 0, BuildingBlock: OLANEW_clean_sbu_2, # of connection points: 3
#     Node 36, Type 0, BuildingBlock: OLANEW_clean_sbu_2, # of connection points: 3
#     Node 37, Type 0, BuildingBlock: OLANEW_clean_sbu_2, # of connection points: 3
#     Node 38, Type 0, BuildingBlock: OLANEW_clean_sbu_2, # of connection points: 3
#     Node 39, Type 0, BuildingBlock: OLANEW_clean_sbu_2, # of connection points: 3
#     Node 40, Type 0, BuildingBlock: OLANEW_clean_sbu_2, # of connection points: 3
#     Node 41, Type 0, BuildingBlock: OLANEW_clean_sbu_2, # of connection points: 3
#     Node 42, Type 0, BuildingBlock: OLANEW_clean_sbu_2, # of connection points: 3
#     Node 43, Type 0, BuildingBlock: OLANEW_clean_sbu_2, # of connection points: 3
#     Node 44, Type 0, BuildingBlock: OLANEW_clean_sbu_2, # of connection points: 3
#     Node 45, Type 0, BuildingBlock: OLANEW_clean_sbu_2, # of connection points: 3
#     Node 46, Type 0, BuildingBlock: OLANEW_clean_sbu_2, # of connection points: 3
#     Node 47, Type 0, BuildingBlock: OLANEW_clean_sbu_2, # of connection points: 3
#     Node 48, Type 1, BuildingBlock: QEWDON_clean_linker_0, # of connection points: 3
#     Node 49, Type 1, BuildingBlock: QEWDON_clean_linker_0, # of connection points: 3
#     Node 50, Type 1, BuildingBlock: QEWDON_clean_linker_0, # of connection points: 3
#     Node 51, Type 1, BuildingBlock: QEWDON_clean_linker_0, # of connection points: 3
#     Node 52, Type 1, BuildingBlock: QEWDON_clean_linker_0, # of connection points: 3
#     Node 53, Type 1, BuildingBlock: QEWDON_clean_linker_0, # of connection points: 3
#     Node 54, Type 1, BuildingBlock: QEWDON_clean_linker_0, # of connection points: 3
#     Node 55, Type 1, BuildingBlock: QEWDON_clean_linker_0, # of connection points: 3
#     Node 56, Type 1, BuildingBlock: QEWDON_clean_linker_0, # of connection points: 3
#     Node 57, Type 1, BuildingBlock: QEWDON_clean_linker_0, # of connection points: 3
#     Node 58, Type 1, BuildingBlock: QEWDON_clean_linker_0, # of connection points: 3
#     Node 59, Type 1, BuildingBlock: QEWDON_clean_linker_0, # of connection points: 3
#     Node 60, Type 1, BuildingBlock: QEWDON_clean_linker_0, # of connection points: 3
#     Node 61, Type 1, BuildingBlock: QEWDON_clean_linker_0, # of connection points: 3
#     Node 62, Type 1, BuildingBlock: QEWDON_clean_linker_0, # of connection points: 3
#     Node 63, Type 1, BuildingBlock: QEWDON_clean_linker_0, # of connection points: 3
#     Node 64, Type 1, BuildingBlock: QEWDON_clean_linker_0, # of connection points: 3
#     Node 65, Type 1, BuildingBlock: QEWDON_clean_linker_0, # of connection points: 3
#     Node 66, Type 1, BuildingBlock: QEWDON_clean_linker_0, # of connection points: 3
#     Node 67, Type 1, BuildingBlock: QEWDON_clean_linker_0, # of connection points: 3
#     Node 68, Type 1, BuildingBlock: QEWDON_clean_linker_0, # of connection points: 3
#     Node 69, Type 1, BuildingBlock: QEWDON_clean_linker_0, # of connection points: 3
#     Node 70, Type 1, BuildingBlock: QEWDON_clean_linker_0, # of connection points: 3
#     Node 71, Type 1, BuildingBlock: QEWDON_clean_linker_0, # of connection points: 3
#     Node 72, Type 1, BuildingBlock: QEWDON_clean_linker_0, # of connection points: 3
#     Node 73, Type 1, BuildingBlock: QEWDON_clean_linker_0, # of connection points: 3
#     Node 74, Type 1, BuildingBlock: QEWDON_clean_linker_0, # of connection points: 3
#     Node 75, Type 1, BuildingBlock: QEWDON_clean_linker_0, # of connection points: 3
#     Node 76, Type 1, BuildingBlock: QEWDON_clean_linker_0, # of connection points: 3
#     Node 77, Type 1, BuildingBlock: QEWDON_clean_linker_0, # of connection points: 3
#     Node 78, Type 1, BuildingBlock: QEWDON_clean_linker_0, # of connection points: 3
#     Node 79, Type 1, BuildingBlock: QEWDON_clean_linker_0, # of connection points: 3
#     Node 80, Type 1, BuildingBlock: QEWDON_clean_linker_0, # of connection points: 3
#     Node 81, Type 1, BuildingBlock: QEWDON_clean_linker_0, # of connection points: 3
#     Node 82, Type 1, BuildingBlock: QEWDON_clean_linker_0, # of connection points: 3
#     Node 83, Type 1, BuildingBlock: QEWDON_clean_linker_0, # of connection points: 3
#     Node 84, Type 1, BuildingBlock: QEWDON_clean_linker_0, # of connection points: 3
#     Node 85, Type 1, BuildingBlock: QEWDON_clean_linker_0, # of connection points: 3
#     Node 86, Type 1, BuildingBlock: QEWDON_clean_linker_0, # of connection points: 3
#     Node 87, Type 1, BuildingBlock: QEWDON_clean_linker_0, # of connection points: 3
#     Node 88, Type 1, BuildingBlock: QEWDON_clean_linker_0, # of connection points: 3
#     Node 89, Type 1, BuildingBlock: QEWDON_clean_linker_0, # of connection points: 3
#     Node 90, Type 1, BuildingBlock: QEWDON_clean_linker_0, # of connection points: 3
#     Node 91, Type 1, BuildingBlock: QEWDON_clean_linker_0, # of connection points: 3
#     Node 92, Type 1, BuildingBlock: QEWDON_clean_linker_0, # of connection points: 3
#     Node 93, Type 1, BuildingBlock: QEWDON_clean_linker_0, # of connection points: 3
#     Node 94, Type 1, BuildingBlock: QEWDON_clean_linker_0, # of connection points: 3
#     Node 95, Type 1, BuildingBlock: QEWDON_clean_linker_0, # of connection points: 3
#     Edge 96, Type (0, 1), BuildingBlock: OJICUG_clean_linker_0, # of connection points: 2
#     Edge 97, Type (0, 1), BuildingBlock: OJICUG_clean_linker_0, # of connection points: 2
#     Edge 98, Type (0, 1), BuildingBlock: OJICUG_clean_linker_0, # of connection points: 2
#     Edge 99, Type (0, 1), BuildingBlock: OJICUG_clean_linker_0, # of connection points: 2
#     Edge 100, Type (0, 1), BuildingBlock: OJICUG_clean_linker_0, # of connection points: 2
#     Edge 101, Type (0, 1), BuildingBlock: OJICUG_clean_linker_0, # of connection points: 2
#     Edge 102, Type (0, 1), BuildingBlock: OJICUG_clean_linker_0, # of connection points: 2
#     Edge 103, Type (0, 1), BuildingBlock: OJICUG_clean_linker_0, # of connection points: 2
#     Edge 104, Type (0, 1), BuildingBlock: OJICUG_clean_linker_0, # of connection points: 2
#     Edge 105, Type (0, 1), BuildingBlock: OJICUG_clean_linker_0, # of connection points: 2
#     Edge 106, Type (0, 1), BuildingBlock: OJICUG_clean_linker_0, # of connection points: 2
#     Edge 107, Type (0, 1), BuildingBlock: OJICUG_clean_linker_0, # of connection points: 2
#     Edge 108, Type (0, 1), BuildingBlock: OJICUG_clean_linker_0, # of connection points: 2
#     Edge 109, Type (0, 1), BuildingBlock: OJICUG_clean_linker_0, # of connection points: 2
#     Edge 110, Type (0, 1), BuildingBlock: OJICUG_clean_linker_0, # of connection points: 2
#     Edge 111, Type (0, 1), BuildingBlock: OJICUG_clean_linker_0, # of connection points: 2
#     Edge 112, Type (0, 1), BuildingBlock: OJICUG_clean_linker_0, # of connection points: 2
#     Edge 113, Type (0, 1), BuildingBlock: OJICUG_clean_linker_0, # of connection points: 2
#     Edge 114, Type (0, 1), BuildingBlock: OJICUG_clean_linker_0, # of connection points: 2
#     Edge 115, Type (0, 1), BuildingBlock: OJICUG_clean_linker_0, # of connection points: 2
#     Edge 116, Type (0, 1), BuildingBlock: OJICUG_clean_linker_0, # of connection points: 2
#     Edge 117, Type (0, 1), BuildingBlock: OJICUG_clean_linker_0, # of connection points: 2
#     Edge 118, Type (0, 1), BuildingBlock: OJICUG_clean_linker_0, # of connection points: 2
#     Edge 119, Type (0, 1), BuildingBlock: OJICUG_clean_linker_0, # of connection points: 2
#     Edge 120, Type (0, 1), BuildingBlock: OJICUG_clean_linker_0, # of connection points: 2
#     Edge 121, Type (0, 1), BuildingBlock: OJICUG_clean_linker_0, # of connection points: 2
#     Edge 122, Type (0, 1), BuildingBlock: OJICUG_clean_linker_0, # of connection points: 2
#     Edge 123, Type (0, 1), BuildingBlock: OJICUG_clean_linker_0, # of connection points: 2
#     Edge 124, Type (0, 1), BuildingBlock: OJICUG_clean_linker_0, # of connection points: 2
#     Edge 125, Type (0, 1), BuildingBlock: OJICUG_clean_linker_0, # of connection points: 2
#     Edge 126, Type (0, 1), BuildingBlock: OJICUG_clean_linker_0, # of connection points: 2
#     Edge 127, Type (0, 1), BuildingBlock: OJICUG_clean_linker_0, # of connection points: 2
#     Edge 128, Type (0, 1), BuildingBlock: OJICUG_clean_linker_0, # of connection points: 2
#     Edge 129, Type (0, 1), BuildingBlock: OJICUG_clean_linker_0, # of connection points: 2
#     Edge 130, Type (0, 1), BuildingBlock: OJICUG_clean_linker_0, # of connection points: 2
#     Edge 131, Type (0, 1), BuildingBlock: OJICUG_clean_linker_0, # of connection points: 2
#     Edge 132, Type (0, 1), BuildingBlock: OJICUG_clean_linker_0, # of connection points: 2
#     Edge 133, Type (0, 1), BuildingBlock: OJICUG_clean_linker_0, # of connection points: 2
#     Edge 134, Type (0, 1), BuildingBlock: OJICUG_clean_linker_0, # of connection points: 2
#     Edge 135, Type (0, 1), BuildingBlock: OJICUG_clean_linker_0, # of connection points: 2
#     Edge 136, Type (0, 1), BuildingBlock: OJICUG_clean_linker_0, # of connection points: 2
#     Edge 137, Type (0, 1), BuildingBlock: OJICUG_clean_linker_0, # of connection points: 2
#     Edge 138, Type (0, 1), BuildingBlock: OJICUG_clean_linker_0, # of connection points: 2
#     Edge 139, Type (0, 1), BuildingBlock: OJICUG_clean_linker_0, # of connection points: 2
#     Edge 140, Type (0, 1), BuildingBlock: OJICUG_clean_linker_0, # of connection points: 2
#     Edge 141, Type (0, 1), BuildingBlock: OJICUG_clean_linker_0, # of connection points: 2
#     Edge 142, Type (0, 1), BuildingBlock: OJICUG_clean_linker_0, # of connection points: 2
#     Edge 143, Type (0, 1), BuildingBlock: OJICUG_clean_linker_0, # of connection points: 2
#     Edge 144, Type (0, 1), BuildingBlock: OJICUG_clean_linker_0, # of connection points: 2
#     Edge 145, Type (0, 1), BuildingBlock: OJICUG_clean_linker_0, # of connection points: 2
#     Edge 146, Type (0, 1), BuildingBlock: OJICUG_clean_linker_0, # of connection points: 2
#     Edge 147, Type (0, 1), BuildingBlock: OJICUG_clean_linker_0, # of connection points: 2
#     Edge 148, Type (0, 1), BuildingBlock: OJICUG_clean_linker_0, # of connection points: 2
#     Edge 149, Type (0, 1), BuildingBlock: OJICUG_clean_linker_0, # of connection points: 2
#     Edge 150, Type (0, 1), BuildingBlock: OJICUG_clean_linker_0, # of connection points: 2
#     Edge 151, Type (0, 1), BuildingBlock: OJICUG_clean_linker_0, # of connection points: 2
#     Edge 152, Type (0, 1), BuildingBlock: OJICUG_clean_linker_0, # of connection points: 2
#     Edge 153, Type (0, 1), BuildingBlock: OJICUG_clean_linker_0, # of connection points: 2
#     Edge 154, Type (0, 1), BuildingBlock: OJICUG_clean_linker_0, # of connection points: 2
#     Edge 155, Type (0, 1), BuildingBlock: OJICUG_clean_linker_0, # of connection points: 2
#     Edge 156, Type (0, 1), BuildingBlock: OJICUG_clean_linker_0, # of connection points: 2
#     Edge 157, Type (0, 1), BuildingBlock: OJICUG_clean_linker_0, # of connection points: 2
#     Edge 158, Type (0, 1), BuildingBlock: OJICUG_clean_linker_0, # of connection points: 2
#     Edge 159, Type (0, 1), BuildingBlock: OJICUG_clean_linker_0, # of connection points: 2
#     Edge 160, Type (0, 1), BuildingBlock: OJICUG_clean_linker_0, # of connection points: 2
#     Edge 161, Type (0, 1), BuildingBlock: OJICUG_clean_linker_0, # of connection points: 2
#     Edge 162, Type (0, 1), BuildingBlock: OJICUG_clean_linker_0, # of connection points: 2
#     Edge 163, Type (0, 1), BuildingBlock: OJICUG_clean_linker_0, # of connection points: 2
#     Edge 164, Type (0, 1), BuildingBlock: OJICUG_clean_linker_0, # of connection points: 2
#     Edge 165, Type (0, 1), BuildingBlock: OJICUG_clean_linker_0, # of connection points: 2
#     Edge 166, Type (0, 1), BuildingBlock: OJICUG_clean_linker_0, # of connection points: 2
#     Edge 167, Type (0, 1), BuildingBlock: OJICUG_clean_linker_0, # of connection points: 2
#     Edge 168, Type (0, 1), BuildingBlock: OJICUG_clean_linker_0, # of connection points: 2
#     Edge 169, Type (0, 1), BuildingBlock: OJICUG_clean_linker_0, # of connection points: 2
#     Edge 170, Type (0, 1), BuildingBlock: OJICUG_clean_linker_0, # of connection points: 2
#     Edge 171, Type (0, 1), BuildingBlock: OJICUG_clean_linker_0, # of connection points: 2
#     Edge 172, Type (0, 1), BuildingBlock: OJICUG_clean_linker_0, # of connection points: 2
#     Edge 173, Type (0, 1), BuildingBlock: OJICUG_clean_linker_0, # of connection points: 2
#     Edge 174, Type (0, 1), BuildingBlock: OJICUG_clean_linker_0, # of connection points: 2
#     Edge 175, Type (0, 1), BuildingBlock: OJICUG_clean_linker_0, # of connection points: 2
#     Edge 176, Type (0, 1), BuildingBlock: OJICUG_clean_linker_0, # of connection points: 2
#     Edge 177, Type (0, 1), BuildingBlock: OJICUG_clean_linker_0, # of connection points: 2
#     Edge 178, Type (0, 1), BuildingBlock: OJICUG_clean_linker_0, # of connection points: 2
#     Edge 179, Type (0, 1), BuildingBlock: OJICUG_clean_linker_0, # of connection points: 2
#     Edge 180, Type (0, 1), BuildingBlock: OJICUG_clean_linker_0, # of connection points: 2
#     Edge 181, Type (0, 1), BuildingBlock: OJICUG_clean_linker_0, # of connection points: 2
#     Edge 182, Type (0, 1), BuildingBlock: OJICUG_clean_linker_0, # of connection points: 2
#     Edge 183, Type (0, 1), BuildingBlock: OJICUG_clean_linker_0, # of connection points: 2
#     Edge 184, Type (0, 1), BuildingBlock: OJICUG_clean_linker_0, # of connection points: 2
#     Edge 185, Type (0, 1), BuildingBlock: OJICUG_clean_linker_0, # of connection points: 2
#     Edge 186, Type (0, 1), BuildingBlock: OJICUG_clean_linker_0, # of connection points: 2
#     Edge 187, Type (0, 1), BuildingBlock: OJICUG_clean_linker_0, # of connection points: 2
#     Edge 188, Type (0, 1), BuildingBlock: OJICUG_clean_linker_0, # of connection points: 2
#     Edge 189, Type (0, 1), BuildingBlock: OJICUG_clean_linker_0, # of connection points: 2
#     Edge 190, Type (0, 1), BuildingBlock: OJICUG_clean_linker_0, # of connection points: 2
#     Edge 191, Type (0, 1), BuildingBlock: OJICUG_clean_linker_0, # of connection points: 2
#     Edge 192, Type (0, 1), BuildingBlock: OJICUG_clean_linker_0, # of connection points: 2
#     Edge 193, Type (0, 1), BuildingBlock: OJICUG_clean_linker_0, # of connection points: 2
#     Edge 194, Type (0, 1), BuildingBlock: OJICUG_clean_linker_0, # of connection points: 2
#     Edge 195, Type (0, 1), BuildingBlock: OJICUG_clean_linker_0, # of connection points: 2
#     Edge 196, Type (0, 1), BuildingBlock: OJICUG_clean_linker_0, # of connection points: 2
#     Edge 197, Type (0, 1), BuildingBlock: OJICUG_clean_linker_0, # of connection points: 2
#     Edge 198, Type (0, 1), BuildingBlock: OJICUG_clean_linker_0, # of connection points: 2
#     Edge 199, Type (0, 1), BuildingBlock: OJICUG_clean_linker_0, # of connection points: 2
#     Edge 200, Type (0, 1), BuildingBlock: OJICUG_clean_linker_0, # of connection points: 2
#     Edge 201, Type (0, 1), BuildingBlock: OJICUG_clean_linker_0, # of connection points: 2
#     Edge 202, Type (0, 1), BuildingBlock: OJICUG_clean_linker_0, # of connection points: 2
#     Edge 203, Type (0, 1), BuildingBlock: OJICUG_clean_linker_0, # of connection points: 2
#     Edge 204, Type (0, 1), BuildingBlock: OJICUG_clean_linker_0, # of connection points: 2
#     Edge 205, Type (0, 1), BuildingBlock: OJICUG_clean_linker_0, # of connection points: 2
#     Edge 206, Type (0, 1), BuildingBlock: OJICUG_clean_linker_0, # of connection points: 2
#     Edge 207, Type (0, 1), BuildingBlock: OJICUG_clean_linker_0, # of connection points: 2
#     Edge 208, Type (0, 1), BuildingBlock: OJICUG_clean_linker_0, # of connection points: 2
#     Edge 209, Type (0, 1), BuildingBlock: OJICUG_clean_linker_0, # of connection points: 2
#     Edge 210, Type (0, 1), BuildingBlock: OJICUG_clean_linker_0, # of connection points: 2
#     Edge 211, Type (0, 1), BuildingBlock: OJICUG_clean_linker_0, # of connection points: 2
#     Edge 212, Type (0, 1), BuildingBlock: OJICUG_clean_linker_0, # of connection points: 2
#     Edge 213, Type (0, 1), BuildingBlock: OJICUG_clean_linker_0, # of connection points: 2
#     Edge 214, Type (0, 1), BuildingBlock: OJICUG_clean_linker_0, # of connection points: 2
#     Edge 215, Type (0, 1), BuildingBlock: OJICUG_clean_linker_0, # of connection points: 2
#     Edge 216, Type (0, 1), BuildingBlock: OJICUG_clean_linker_0, # of connection points: 2
#     Edge 217, Type (0, 1), BuildingBlock: OJICUG_clean_linker_0, # of connection points: 2
#     Edge 218, Type (0, 1), BuildingBlock: OJICUG_clean_linker_0, # of connection points: 2
#     Edge 219, Type (0, 1), BuildingBlock: OJICUG_clean_linker_0, # of connection points: 2
#     Edge 220, Type (0, 1), BuildingBlock: OJICUG_clean_linker_0, # of connection points: 2
#     Edge 221, Type (0, 1), BuildingBlock: OJICUG_clean_linker_0, # of connection points: 2
#     Edge 222, Type (0, 1), BuildingBlock: OJICUG_clean_linker_0, # of connection points: 2
#     Edge 223, Type (0, 1), BuildingBlock: OJICUG_clean_linker_0, # of connection points: 2
#     Edge 224, Type (0, 1), BuildingBlock: OJICUG_clean_linker_0, # of connection points: 2
#     Edge 225, Type (0, 1), BuildingBlock: OJICUG_clean_linker_0, # of connection points: 2
#     Edge 226, Type (0, 1), BuildingBlock: OJICUG_clean_linker_0, # of connection points: 2
#     Edge 227, Type (0, 1), BuildingBlock: OJICUG_clean_linker_0, # of connection points: 2
#     Edge 228, Type (0, 1), BuildingBlock: OJICUG_clean_linker_0, # of connection points: 2
#     Edge 229, Type (0, 1), BuildingBlock: OJICUG_clean_linker_0, # of connection points: 2
#     Edge 230, Type (0, 1), BuildingBlock: OJICUG_clean_linker_0, # of connection points: 2
#     Edge 231, Type (0, 1), BuildingBlock: OJICUG_clean_linker_0, # of connection points: 2
#     Edge 232, Type (0, 1), BuildingBlock: OJICUG_clean_linker_0, # of connection points: 2
#     Edge 233, Type (0, 1), BuildingBlock: OJICUG_clean_linker_0, # of connection points: 2
#     Edge 234, Type (0, 1), BuildingBlock: OJICUG_clean_linker_0, # of connection points: 2
#     Edge 235, Type (0, 1), BuildingBlock: OJICUG_clean_linker_0, # of connection points: 2
#     Edge 236, Type (0, 1), BuildingBlock: OJICUG_clean_linker_0, # of connection points: 2
#     Edge 237, Type (0, 1), BuildingBlock: OJICUG_clean_linker_0, # of connection points: 2
#     Edge 238, Type (0, 1), BuildingBlock: OJICUG_clean_linker_0, # of connection points: 2
#     Edge 239, Type (0, 1), BuildingBlock: OJICUG_clean_linker_0, # of connection points: 2
# Relax obj value: 0.020
# Max RMSD: 0.191
# Mean RMSD: 0.077
data_MOF--net-bpr--node1-OLANEW_clean_sbu_2--node2-QEWDON_clean_linker_0--edge1-OJICUG_clean_linker_0
_symmetry_space_group_name_H-M    P1
_symmetry_Int_Tables_number       1
_symmetry_cell_setting            triclinic
loop_
_symmetry_equiv_pos_as_xyz
'x, y, z'
_cell_length_a     64.028256
_cell_length_b     69.816436
_cell_length_c     68.615175
_cell_angle_alpha  86.435949
_cell_angle_beta   96.695401
_cell_angle_gamma 109.83129
loop_
_atom_site_label
_atom_site_type_symbol
_atom_site_fract_x
_atom_site_fract_y
_atom_site_fract_z
_atom_type_partial_charge
O0 O 0.00122 0.37178 0.28447 0.0
Cd1 Cd 0.98188 0.37641 0.25262 0.0
O2 O 0.9795 0.33985 0.28658 0.0
Cd3 Cd 0.9526 0.34613 0.26765 0.0
O4 O 0.92224 0.35158 0.27343 0.0
C5 C 0.9088 0.33714 0.28263 0.0
O6 O 0.91321 0.3201 0.28608 0.0
C7 C -0.00313 0.35427 0.29279 0.0
C8 C -0.0022 0.35879 0.22473 0.0
O9 O 0.00722 0.37759 0.22901 0.0
O10 O 0.98046 0.34851 0.2332 0.0
O11 O 0.82054 0.83465 0.55827 0.0
Cd12 Cd 0.82221 0.81473 0.53083 0.0
O13 O 0.81411 0.80863 0.57925 0.0
Cd14 Cd 0.81401 0.78496 0.55994 0.0
O15 O 0.81374 0.75359 0.56003 0.0
C16 C 0.82518 0.74826 0.5744 0.0
O17 O 0.8371 0.76199 0.58722 0.0
C18 C 0.81714 0.82738 0.57551 0.0
C19 C 0.81953 0.83573 0.49519 0.0
O20 O 0.83813 0.83925 0.50594 0.0
O21 O 0.80218 0.82222 0.50123 0.0
O22 O 0.46592 0.65374 0.84255 0.0
Cd23 Cd 0.48263 0.65031 0.81328 0.0
O24 O 0.43128 0.63961 0.82966 0.0
Cd25 Cd 0.43909 0.63926 0.79962 0.0
O26 O 0.42975 0.6468 0.76926 0.0
C27 C 0.41304 0.63442 0.75953 0.0
O28 O 0.40298 0.61647 0.76741 0.0
C29 C 0.44512 0.64727 0.84429 0.0
C30 C 0.52349 0.64485 0.8251 0.0
O31 O 0.52213 0.66268 0.82178 0.0
O32 O 0.50555 0.62949 0.82238 0.0
O33 O 0.63067 0.21857 0.08307 0.0
Cd34 Cd 0.64136 0.25141 0.06549 0.0
O35 O 0.63059 0.20179 0.05703 0.0
Cd36 Cd 0.62089 0.17384 0.0405 0.0
O37 O 0.60244 0.15287 0.0172 0.0
C38 C 0.61013 0.14088 0.00951 0.0
O39 O 0.63005 0.14038 0.0161 0.0
C40 C 0.6276 0.20181 0.075 0.0
C41 C 0.65691 0.28313 0.09197 0.0
O42 O 0.63602 0.27518 0.08653 0.0
O43 O 0.67043 0.2762 0.08475 0.0
O44 O 0.1007 0.59914 0.25852 0.0
Cd45 Cd 0.07142 0.58646 0.28077 0.0
O46 O 0.1051 0.63141 0.26203 0.0
Cd47 Cd 0.07342 0.6233 0.27453 0.0
O48 O 0.03858 0.61472 0.2623 0.0
C49 C 0.03456 0.60558 0.24612 0.0
O50 O 0.05086 0.60156 0.23916 0.0
C51 C 0.11115 0.61787 0.25509 0.0
C52 C 0.08753 0.57288 0.31665 0.0
O53 O 0.08016 0.56108 0.30199 0.0
O54 O 0.0872 0.59114 0.31441 0.0
O55 O 0.59559 0.75517 0.47603 0.0
Cd56 Cd 0.5967 0.73038 0.50258 0.0
O57 O 0.60218 0.7814 0.49494 0.0
Cd58 Cd 0.60012 0.76658 0.52394 0.0
O59 O 0.59656 0.77725 0.55228 0.0
C60 C 0.58654 0.79028 0.55057 0.0
O61 O 0.57877 0.79471 0.53292 0.0
C62 C 0.59917 0.77404 0.47795 0.0
C63 C 0.60226 0.69713 0.48599 0.0
O64 O 0.58283 0.69696 0.48905 0.0
O65 O 0.61909 0.71271 0.49136 0.0
O66 O 0.40695 0.37595 0.74289 0.0
Cd67 Cd 0.41035 0.36167 0.77618 0.0
O68 O 0.4345 0.36701 0.73484 0.0
Cd69 Cd 0.45913 0.36761 0.71492 0.0
O70 O 0.48885 0.37474 0.69922 0.0
C71 C 0.49091 0.3864 0.68406 0.0
O72 O 0.47462 0.39336 0.67766 0.0
C73 C 0.41951 0.3751 0.73016 0.0
C74 C 0.37982 0.36713 0.79941 0.0
O75 O 0.39962 0.38003 0.79946 0.0
O76 O 0.37449 0.35166 0.78842 0.0
O77 O 0.84945 0.20405 0.9305 0.0
Cd78 Cd 0.83234 0.21722 0.9544 0.0
O79 O 0.86133 0.1845 0.9522 0.0
Cd80 Cd 0.8499 0.19266 0.97819 0.0
O81 O 0.84237 0.18445 0.00844 0.0
C82 C 0.85849 0.1878 0.02192 0.0
O83 O 0.87887 0.19745 0.01737 0.0
C84 C 0.85927 0.19101 0.93461 0.0
C85 C 0.83016 0.25584 0.94374 0.0
O86 O 0.8458 0.25366 0.95619 0.0
O87 O 0.81553 0.23979 0.93629 0.0
O88 O 0.32249 0.07044 0.38853 0.0
Cd89 Cd 0.28636 0.0437 0.38138 0.0
O90 O 0.31366 0.07455 0.41766 0.0
Cd91 Cd 0.27795 0.06209 0.40825 0.0
O92 O 0.25156 0.07268 0.39338 0.0
C93 C 0.25915 0.09093 0.38691 0.0
O94 O 0.28078 0.10057 0.38967 0.0
C95 C 0.32816 0.07812 0.40549 0.0
C96 C 0.28922 0.00688 0.39775 0.0
O97 O 0.29118 0.01109 0.37947 0.0
O98 O 0.28543 0.01979 0.40809 0.0
O99 O 0.18447 0.03727 0.71641 0.0
Cd100 Cd 0.20008 0.01055 0.72729 0.0
O101 O 0.19714 0.03864 0.68784 0.0
Cd102 Cd 0.21032 0.05702 0.66233 0.0
O103 O 0.23835 0.0834 0.65501 0.0
C104 C 0.24619 0.09645 0.66842 0.0
O105 O 0.23592 0.0938 0.68439 0.0
C106 C 0.18765 0.04563 0.69953 0.0
C107 C 0.17789 0.97297 0.71038 0.0
O108 O 0.17211 0.97776 0.72616 0.0
O109 O 0.19399 0.98619 0.70233 0.0
O110 O 0.16374 0.93101 0.8916 0.0
Cd111 Cd 0.19947 0.95879 0.89164 0.0
O112 O 0.15189 0.94313 0.86372 0.0
Cd113 Cd 0.17328 0.97438 0.8706 0.0
O114 O 0.17613 0.00245 0.88512 0.0
C115 C 0.16641 0.01444 0.87689 0.0
O116 O 0.15632 0.01055 0.85906 0.0
C117 C 0.14969 0.92873 0.87647 0.0
C118 C 0.22769 0.94578 0.87152 0.0
O119 O 0.22912 0.94499 0.89032 0.0
O120 O 0.21342 0.95316 0.86234 0.0
O121 O 0.35989 0.97861 0.08919 0.0
Cd122 Cd 0.36084 0.00297 0.06189 0.0
O123 O 0.32599 0.97772 0.09254 0.0
Cd124 Cd 0.29379 0.96795 0.10471 0.0
O125 O 0.25829 0.95609 0.10869 0.0
C126 C 0.25058 0.94138 0.12062 0.0
O127 O 0.26446 0.93374 0.13124 0.0
C128 C 0.34229 0.97142 0.09789 0.0
C129 C 0.36386 0.04071 0.07522 0.0
O130 O 0.34483 0.02697 0.07117 0.0
O131 O 0.38143 0.0366 0.07281 0.0
O132 O 0.32978 0.32281 0.05255 0.0
Cd133 Cd 0.32496 0.30233 0.02362 0.0
O134 O 0.36572 0.32746 0.05606 0.0
Cd135 Cd 0.36136 0.30015 0.04008 0.0
O136 O 0.35508 0.26814 0.0485 0.0
C137 C 0.34498 0.26267 0.06387 0.0
O138 O 0.33882 0.27603 0.07228 0.0
C139 C 0.34926 0.33182 0.06078 0.0
C140 C 0.32215 0.3263 0.98997 0.0
O141 O 0.34111 0.32704 -0.00106 0.0
O142 O 0.3045 0.31392 0.99664 0.0
O143 O 0.92322 0.8874 0.23217 0.0
Cd144 Cd 0.92974 0.87655 0.26626 0.0
O145 O 0.94826 0.8756 0.22307 0.0
Cd146 Cd 0.9683 0.87158 0.20082 0.0
O147 O 0.9937 0.87501 0.18083 0.0
C148 C 0.99017 0.87883 0.16262 0.0
O149 O 0.97062 0.88003 0.1557 0.0
C150 C 0.93343 0.88393 0.21871 0.0
C151 C 0.89511 0.87474 0.28841 0.0
O152 O 0.91347 0.88977 0.28998 0.0
O153 O 0.89311 0.86072 0.27643 0.0
O154 O 0.11383 0.70718 0.56552 0.0
Cd155 Cd 0.131 0.74113 0.55143 0.0
O156 O 0.12499 0.69101 0.5446 0.0
Cd157 Cd 0.12626 0.66345 0.53185 0.0
O158 O 0.12335 0.63788 0.51351 0.0
C159 C 0.12395 0.62098 0.52112 0.0
O160 O 0.12662 0.61903 0.54033 0.0
C161 C 0.11512 0.69072 0.55971 0.0
C162 C 0.14092 0.76919 0.58131 0.0
O163 O 0.12334 0.76629 0.56924 0.0
O164 O 0.15394 0.75925 0.57894 0.0
O165 O 0.96111 0.64908 0.69853 0.0
Cd166 Cd 0.99191 0.64944 0.72328 0.0
O167 O 0.93716 0.65536 0.71564 0.0
Cd168 Cd 0.9579 0.65882 0.7438 0.0
O169 O 0.96862 0.66191 0.77532 0.0
C170 C 0.95643 0.64945 0.78709 0.0
O171 O 0.93846 0.63504 0.77984 0.0
C172 C 0.94244 0.65153 0.69938 0.0
C173 C 0.02235 0.63864 0.70403 0.0
O174 O 0.00633 0.62502 0.71179 0.0
O175 O 0.02447 0.65736 0.70601 0.0
O176 O 0.11679 0.12661 0.46849 0.0
Cd177 Cd 0.10273 0.11907 0.50079 0.0
O178 O 0.10941 0.15498 0.46781 0.0
Cd179 Cd 0.10504 0.18415 0.45831 0.0
O180 O 0.09461 0.21058 0.44998 0.0
C181 C 0.07402 0.20754 0.44488 0.0
O182 O 0.06002 0.18874 0.44461 0.0
C183 C 0.116 0.14272 0.45919 0.0
C184 C 0.13328 0.13571 0.53282 0.0
O185 O 0.13015 0.11764 0.52733 0.0
O186 O 0.12237 0.14604 0.52287 0.0
O187 O 0.54218 0.34543 0.21098 0.0
Cd188 Cd 0.50644 0.33312 0.225 0.0
O189 O 0.54065 0.3762 0.20421 0.0
Cd190 Cd 0.50752 0.37045 0.21344 0.0
O191 O 0.4751 0.37479 0.21021 0.0
C192 C 0.45716 0.35995 0.20655 0.0
O193 O 0.4582 0.3415 0.20615 0.0
C194 C 0.5509 0.36346 0.20433 0.0
C195 C 0.51477 0.32715 0.26529 0.0
O196 O 0.51189 0.31286 0.25334 0.0
O197 O 0.51311 0.34406 0.2582 0.0
O198 O 0.31658 0.80076 0.94494 0.0
Cd199 Cd 0.32118 0.78563 0.97759 0.0
O200 O 0.3083 0.82625 0.95529 0.0
Cd201 Cd 0.30934 0.81599 0.98602 0.0
O202 O 0.31071 0.81305 0.01801 0.0
C203 C 0.30722 0.82697 0.02685 0.0
O204 O 0.30293 0.84186 0.01638 0.0
C205 C 0.31183 0.81697 0.94131 0.0
C206 C 0.35067 0.76391 0.9777 0.0
O207 O 0.32951 0.75489 0.97496 0.0
O208 O 0.35783 0.7831 0.98068 0.0
O209 O 0.91609 0.36933 0.82406 0.0
Cd210 Cd 0.93743 0.3699 0.79657 0.0
O211 O 0.92343 0.40236 0.82622 0.0
Cd212 Cd 0.9507 0.40649 0.80818 0.0
O213 O 0.97891 0.3963 0.80507 0.0
C214 C -0.00268 0.40347 0.81569 0.0
O215 O 3e-05 0.41857 0.82731 0.0
C216 C 0.91298 0.3842 0.83164 0.0
C217 C 0.91321 0.37035 0.76007 0.0
O218 O 0.91147 0.3536 0.76963 0.0
O219 O 0.92632 0.38695 0.76782 0.0
O220 O 0.40427 0.23316 0.5861 0.0
Cd221 Cd 0.41418 0.25541 0.55727 0.0
O222 O 0.42024 0.21123 0.57946 0.0
Cd223 Cd 0.42918 0.22356 0.55038 0.0
O224 O 0.43133 0.21604 0.52038 0.0
C225 C 0.44663 0.20917 0.51725 0.0
O226 O 0.46159 0.20837 0.53182 0.0
C227 C 0.4095 0.21733 0.59073 0.0
C228 C 0.41852 0.29542 0.56543 0.0
O229 O 0.39943 0.28236 0.56005 0.0
O230 O 0.43563 0.28963 0.56682 0.0
O231 O 0.6437 0.67705 0.32035 0.0
Cd232 Cd 0.65325 0.70289 0.29404 0.0
O233 O 0.60955 0.67753 0.31464 0.0
Cd234 Cd 0.57425 0.67004 0.31902 0.0
O235 O 0.53957 0.66816 0.31991 0.0
C236 C 0.53153 0.66775 0.33608 0.0
O237 O 0.54423 0.66792 0.35261 0.0
C238 C 0.62384 0.67123 0.32503 0.0
C239 C 0.63679 0.69001 0.25593 0.0
O240 O 0.65644 0.69071 0.2631 0.0
O241 O 0.62465 0.69487 0.26699 0.0
O242 O 0.12758 0.77336 0.08796 0.0
Cd243 Cd 0.12335 0.73963 0.07666 0.0
O244 O 0.09722 0.77183 0.06881 0.0
Cd245 Cd 0.07483 0.78542 0.05143 0.0
O246 O 0.05948 0.79005 0.02221 0.0
C247 C 0.07169 0.80184 0.01004 0.0
O248 O 0.09258 0.81207 0.016 0.0
C249 C 0.11335 0.78159 0.08089 0.0
C250 C 0.1389 0.71587 0.10487 0.0
O251 O 0.15201 0.72785 0.0932 0.0
O252 O 0.11856 0.71534 0.10331 0.0
O253 O 0.61858 0.96767 0.59023 0.0
Cd254 Cd 0.63621 -0.00107 0.57162 0.0
O255 O 0.65106 0.96967 0.60574 0.0
Cd256 Cd 0.67643 0.95926 0.62285 0.0
O257 O 0.70714 0.95511 0.6368 0.0
C258 C 0.71687 0.94572 0.62781 0.0
O259 O 0.70775 0.93812 0.61058 0.0
C260 C 0.63032 0.95986 0.6022 0.0
C261 C 0.64802 0.03617 0.58996 0.0
O262 O 0.62864 0.02831 0.58066 0.0
O263 O 0.66147 0.02599 0.59126 0.0
O264 O 0.81594 0.00245 0.41448 0.0
Cd265 Cd 0.80474 0.03133 0.42174 0.0
O266 O 0.7814 0.98809 0.40217 0.0
Cd267 Cd 0.75151 0.96299 0.39193 0.0
O268 O 0.72026 0.93767 0.38681 0.0
C269 C 0.70789 0.93243 0.40075 0.0
O270 O 0.71443 0.94248 0.41718 0.0
C271 C 0.80092 0.98718 0.4065 0.0
C272 C 0.83785 0.06915 0.41804 0.0
O273 O 0.8364 0.05914 0.43442 0.0
O274 O 0.82375 0.06118 0.40346 0.0
O275 O 0.80144 0.01791 0.11382 0.0
Cd276 Cd 0.78378 0.98118 0.10844 0.0
O277 O 0.76818 0.02061 0.11289 0.0
Cd278 Cd 0.74414 0.03643 0.11511 0.0
O279 O 0.71629 0.04702 0.11895 0.0
C280 C 0.69809 0.03996 0.10799 0.0
O281 O 0.69685 0.027 0.09445 0.0
C282 C 0.78931 0.02897 0.11438 0.0
C283 C 0.81293 0.95867 0.11186 0.0
O284 O 0.80926 0.96769 0.09563 0.0
O285 O 0.80317 0.9606 0.12653 0.0
O286 O 0.67875 0.03027 0.90604 0.0
Cd287 Cd 0.70481 0.01142 0.90717 0.0
O288 O 0.68714 0.04256 0.87654 0.0
Cd289 Cd 0.71664 0.03358 0.87698 0.0
O290 O 0.75245 0.04423 0.87485 0.0
C291 C 0.75921 0.0513 0.85833 0.0
O292 O 0.74438 0.05004 0.84309 0.0
C293 C 0.67525 0.04034 0.89066 0.0
C294 C 0.67861 0.97106 0.90082 0.0
O295 O 0.68711 0.97694 0.91818 0.0
O296 O 0.68325 0.98398 0.88652 0.0
O297 O 0.68596 0.68347 0.96999 0.0
Cd298 Cd 0.69878 0.70418 -0.00072 0.0
O299 O 0.66918 0.70542 0.96065 0.0
Cd300 Cd 0.64802 0.72098 0.94403 0.0
O301 O 0.63285 0.74451 0.93621 0.0
C302 C 0.61464 0.74331 0.94271 0.0
O303 O 0.60451 0.7272 0.9533 0.0
C304 C 0.67371 0.68967 0.95703 0.0
C305 C 0.67933 0.68474 0.03267 0.0
O306 O 0.66955 0.69458 0.02067 0.0
O307 O 0.6981 0.68395 0.02874 0.0
O308 O 0.14058 0.18789 0.81608 0.0
Cd309 Cd 0.14127 0.20966 0.78666 0.0
O310 O 0.10441 0.18034 0.81106 0.0
Cd311 Cd 0.06918 0.16601 0.81571 0.0
O312 O 0.03291 0.15679 0.81449 0.0
C313 C 0.02371 0.16528 0.82507 0.0
O314 O 0.03634 0.17926 0.83737 0.0
C315 C 0.12137 0.17835 0.82148 0.0
C316 C 0.15047 0.19309 0.7542 0.0
O317 O 0.16605 0.20626 0.7646 0.0
O318 O 0.13056 0.1878 0.75915 0.0
O319 O 0.84444 0.29856 0.44176 0.0
Cd320 Cd 0.85537 0.28462 0.47333 0.0
O321 O 0.83806 0.32454 0.45333 0.0
Cd322 Cd 0.84319 0.31533 0.48408 0.0
O323 O 0.84363 0.31117 0.51599 0.0
C324 C 0.83746 0.3233 0.52512 0.0
O325 O 0.83141 0.33752 0.51503 0.0
C326 C 0.83913 0.31456 0.43881 0.0
C327 C 0.88379 0.2631 0.46755 0.0
O328 O 0.89146 0.28226 0.4707 0.0
O329 O 0.8627 0.25401 0.46749 0.0
O330 O 0.5043 0.87844 0.79953 0.0
Cd331 Cd 0.47978 0.87519 0.76903 0.0
O332 O 0.4892 0.84593 0.80693 0.0
Cd333 Cd 0.45775 0.84598 0.79066 0.0
O334 O 0.42719 0.85194 0.79509 0.0
C335 C 0.42792 0.8594 0.81171 0.0
O336 O 0.44633 0.86304 0.8237 0.0
C337 C 0.50489 0.8628 0.80982 0.0
C338 C 0.50098 0.86249 0.74157 0.0
O339 O 0.50447 0.88146 0.74379 0.0
O340 O 0.48675 0.84956 0.75173 0.0
O341 O 0.98471 0.17603 0.30351 0.0
Cd342 Cd 0.00527 0.17581 0.2758 0.0
O343 O 0.97471 0.1427 0.30627 0.0
Cd344 Cd 0.97623 0.14081 0.27485 0.0
O345 O 0.95659 0.14365 0.24721 0.0
C346 C 0.93809 0.14566 0.24973 0.0
O347 O 0.93301 0.14549 0.26777 0.0
C348 C 0.97674 0.15969 0.31344 0.0
C349 C 0.04375 0.16878 0.29297 0.0
O350 O 0.04273 0.18682 0.29102 0.0
O351 O 0.02694 0.15405 0.28588 0.0
O352 O 0.57553 0.13469 0.71856 0.0
Cd353 Cd 0.54511 0.12466 0.73982 0.0
O354 O 0.58991 0.16675 0.72714 0.0
Cd355 Cd 0.56355 0.16293 0.74587 0.0
O356 O 0.52809 0.15685 0.74718 0.0
C357 C 0.51837 0.16237 0.73176 0.0
O358 O 0.53042 0.17182 0.71758 0.0
C359 C 0.59014 0.15225 0.71692 0.0
C360 C 0.55608 0.11192 0.7778 0.0
O361 O 0.54999 0.09948 0.7636 0.0
O362 O 0.55732 0.13045 0.77399 0.0
O363 O 0.11071 0.26633 0.97189 0.0
Cd364 Cd 0.10792 0.24096 -0.0014 0.0
O365 O 0.07518 0.26318 0.96985 0.0
Cd366 Cd 0.07239 0.25087 -0.00015 0.0
O367 O 0.07318 0.26204 0.02913 0.0
C368 C 0.07167 0.27977 0.02869 0.0
O369 O 0.06945 0.2887 0.01152 0.0
C370 C 0.09396 0.27014 0.96292 0.0
C371 C 0.11061 0.20627 0.98241 0.0
O372 O 0.09187 0.20915 0.98241 0.0
O373 O 0.12807 0.21945 0.99075 0.0
O374 O 0.34026 0.72355 0.44307 0.0
Cd375 Cd 0.32622 0.7407 0.46597 0.0
O376 O 0.34878 0.70369 0.46657 0.0
Cd377 Cd 0.33524 0.71215 0.49111 0.0
O378 O 0.32706 0.70057 0.52056 0.0
C379 C 0.34319 0.70243 0.53381 0.0
O380 O 0.36357 0.71267 0.52961 0.0
C381 C 0.34856 0.70973 0.44871 0.0
C382 C 0.32692 0.77926 0.45172 0.0
O383 O 0.34433 0.77646 0.46083 0.0
O384 O 0.30901 0.76382 0.44937 0.0
O385 O 0.82057 0.54997 0.88603 0.0
Cd386 Cd 0.78724 0.5198 0.88064 0.0
O387 O 0.80992 0.55436 0.91432 0.0
Cd388 Cd 0.77458 0.53863 0.90525 0.0
O389 O 0.74297 0.5425 0.89318 0.0
C390 C 0.73946 0.55814 0.89862 0.0
O391 O 0.75414 0.57 0.91157 0.0
C392 C 0.82486 0.55866 0.90249 0.0
C393 C 0.79725 0.4857 0.89669 0.0
O394 O 0.79245 0.49767 0.90743 0.0
O395 O 0.79691 0.4895 0.87816 0.0
O396 O 0.70105 0.5663 0.1592 0.0
Cd397 Cd 0.73047 0.55199 0.17055 0.0
O398 O 0.70142 0.57936 0.18766 0.0
Cd399 Cd 0.73112 0.57233 0.19927 0.0
O400 O 0.76653 0.57782 0.19827 0.0
C401 C 0.77919 0.59628 0.19732 0.0
O402 O 0.77057 0.61079 0.19813 0.0
C403 C 0.69317 0.57586 0.16993 0.0
C404 C 0.71371 0.50962 0.17289 0.0
O405 O 0.71373 0.52039 0.18737 0.0
O406 O 0.72174 0.51893 0.15732 0.0
O407 O 0.66783 0.41543 0.3964 0.0
Cd408 Cd 0.70328 0.44353 0.39995 0.0
O409 O 0.64322 0.43155 0.39236 0.0
Cd410 Cd 0.66384 0.46327 0.39781 0.0
O411 O 0.65714 0.49106 0.40382 0.0
C412 C 0.63708 0.48997 0.39847 0.0
O413 O 0.62364 0.47348 0.3896 0.0
C414 C 0.64776 0.41512 0.39309 0.0
C415 C 0.73258 0.43243 0.37946 0.0
O416 O 0.73037 0.42715 0.39753 0.0
O417 O 0.72162 0.44362 0.3713 0.0
O418 O 0.8613 0.46271 0.59637 0.0
Cd419 Cd 0.85932 0.48637 0.56902 0.0
O420 O 0.82876 0.46204 0.60401 0.0
Cd421 Cd 0.79942 0.45252 0.62044 0.0
O422 O 0.76574 0.44504 0.62917 0.0
C423 C 0.75656 0.42875 0.63874 0.0
O424 O 0.76793 0.41644 0.64413 0.0
C425 C 0.84534 0.45574 0.60709 0.0
C426 C 0.85929 0.52357 0.58133 0.0
O427 O 0.84099 0.50874 0.5779 0.0
O428 O 0.87759 0.52074 0.57897 0.0
O429 O 0.47117 0.1479 0.20317 0.0
Cd430 Cd 0.49816 0.14297 0.2296 0.0
O431 O 0.44817 0.1548 0.22086 0.0
Cd432 Cd 0.46782 0.1535 0.24887 0.0
O433 O 0.47837 0.15346 0.28034 0.0
C434 C 0.46995 0.1625 0.2911 0.0
O435 O 0.45603 0.17145 0.28275 0.0
C436 C 0.45349 0.15208 0.20423 0.0
C437 C 0.52993 0.13252 0.21203 0.0
O438 O 0.51195 0.11885 0.21672 0.0
O439 O 0.53323 0.15101 0.21626 0.0
O440 O 0.00667 0.82192 0.70931 0.0
Cd441 Cd 0.97516 0.81776 0.72805 0.0
O442 O 0.00371 0.84959 0.69388 0.0
Cd443 Cd 0.97303 0.84869 0.70552 0.0
O444 O 0.94155 0.85449 0.70527 0.0
C445 C 0.94175 0.87277 0.70522 0.0
O446 O 0.96105 0.88762 0.70668 0.0
C447 C 0.01382 0.83671 0.69731 0.0
C448 C 0.99155 0.82289 0.76754 0.0
O449 O 0.98495 0.80532 0.75979 0.0
O450 O 0.9898 0.83802 0.75672 0.0
O451 O 0.39854 0.89549 0.32062 0.0
Cd452 Cd 0.42258 0.89422 0.29585 0.0
O453 O 0.425 0.91581 0.34063 0.0
Cd454 Cd 0.45129 0.91331 0.32439 0.0
O455 O 0.47712 0.89971 0.32251 0.0
C456 C 0.4859 0.89525 0.33898 0.0
O457 O 0.47949 0.89977 0.35509 0.0
C458 C 0.4045 0.90571 0.33624 0.0
C459 C 0.40039 0.89211 0.25807 0.0
O460 O 0.39801 0.87607 0.26895 0.0
O461 O 0.41335 0.90919 0.26499 0.0
O462 O 0.92411 0.71644 0.09995 0.0
Cd463 Cd 0.93383 0.74237 0.07359 0.0
O464 O 0.93505 0.69502 0.0849 0.0
Cd465 Cd 0.9415 0.71096 0.05657 0.0
O466 O 0.94184 0.70396 0.02589 0.0
C467 C 0.93564 0.68491 0.02315 0.0
O468 O 0.93004 0.6724 0.03826 0.0
C469 C 0.92757 0.69954 0.09973 0.0
C470 C 0.92027 0.77624 0.07646 0.0
O471 O 0.9081 0.76083 0.06634 0.0
O472 O 0.93862 0.77547 0.0856 0.0
O473 O 0.60763 0.30323 0.55949 0.0
Cd474 Cd 0.60033 0.27323 0.53983 0.0
O475 O 0.5744 0.29413 0.57003 0.0
Cd476 Cd 0.56204 0.27131 0.5473 0.0
O477 O 0.55618 0.26254 0.5166 0.0
C478 C 0.54738 0.2729 0.50458 0.0
O479 O 0.54139 0.28723 0.51139 0.0
C480 C 0.59439 0.30628 0.57045 0.0
C481 C 0.61316 0.2441 0.56315 0.0
O482 O 0.62701 0.25729 0.55287 0.0
O483 O 0.59316 0.24445 0.56205 0.0
O484 O 0.12953 0.45271 0.09491 0.0
Cd485 Cd 0.14752 0.48617 0.07999 0.0
O486 O 0.16286 0.45109 0.10375 0.0
Cd487 Cd 0.1875 0.43766 0.11737 0.0
O488 O 0.21724 0.432 0.13171 0.0
C489 C 0.22971 0.42641 0.12186 0.0
O490 O 0.22404 0.42338 0.10298 0.0
C491 C 0.14176 0.44268 0.10264 0.0
C492 C 0.16363 0.51918 0.10494 0.0
O493 O 0.14387 0.5142 0.09602 0.0
O494 O 0.17552 0.50814 0.10254 0.0
O495 O 0.30643 0.49693 0.96424 0.0
Cd496 Cd 0.29645 0.52322 0.979 0.0
O497 O 0.27322 0.48818 0.94814 0.0
Cd498 Cd 0.2437 0.46916 0.93035 0.0
O499 O 0.21435 0.44683 0.9156 0.0
C500 C 0.19757 0.43876 0.92519 0.0
O501 O 0.19849 0.44456 0.94322 0.0
C502 C 0.29191 0.48535 0.95202 0.0
C503 C 0.32365 0.562 0.96845 0.0
O504 O 0.32849 0.55318 0.98443 0.0
O505 O 0.30585 0.55253 0.9576 0.0
O506 O 0.30327 0.52531 0.61264 0.0
Cd507 Cd 0.29094 0.48929 0.60398 0.0
O508 O 0.26819 0.52352 0.60917 0.0
Cd509 Cd 0.23991 0.53436 0.61016 0.0
O510 O 0.20795 0.53876 0.61225 0.0
C511 C 0.20661 0.55419 0.62025 0.0
O512 O 0.22503 0.56828 0.62721 0.0
C513 C 0.28874 0.53402 0.61269 0.0
C514 C 0.32246 0.46961 0.61315 0.0
O515 O 0.32244 0.48034 0.59729 0.0
O516 O 0.30789 0.46853 0.62488 0.0
O517 O 0.24705 0.51846 0.39937 0.0
Cd518 Cd 0.28132 0.51126 0.39611 0.0
O519 O 0.22812 0.48664 0.40619 0.0
Cd520 Cd 0.1987 0.45989 0.41066 0.0
O521 O 0.17017 0.43161 0.41066 0.0
C522 C 0.16797 0.4187 0.39764 0.0
O523 O 0.18298 0.42279 0.38506 0.0
C524 C 0.22884 0.50505 0.40342 0.0
C525 C 0.31574 0.54798 0.39092 0.0
O526 O 0.30346 0.53831 0.37613 0.0
O527 O 0.31205 0.54002 0.40806 0.0
H528 H 0.08615 0.35737 0.14479 0.0
C529 C 0.08439 0.34823 0.1321 0.0
C530 C 0.0955 0.35725 0.11566 0.0
C531 C 0.07158 0.32738 0.13243 0.0
H532 H 0.10196 0.35234 0.08661 0.0
C533 C 0.09352 0.34534 0.09937 0.0
C534 C 0.08042 0.32463 0.0992 0.0
C535 C 0.06967 0.31572 0.11586 0.0
C536 C 0.06023 0.31772 0.15003 0.0
H537 H 0.05922 0.29983 0.1157 0.0
C538 C 0.04931 0.3278 0.16026 0.0
C539 C 0.03855 0.31861 0.17692 0.0
C540 C 0.06029 0.29829 0.1567 0.0
H541 H 0.06881 0.29027 0.14934 0.0
C542 C 0.04967 0.28911 0.17318 0.0
H543 H 0.04874 0.34259 0.155 0.0
C544 C 0.03889 0.29915 0.18325 0.0
H545 H 0.03113 0.2918 0.1962 0.0
H546 H 0.04994 0.2742 0.17827 0.0
H547 H 0.81125 0.90699 0.3706 0.0
C548 C 0.81229 0.8993 0.38471 0.0
C549 C 0.81392 0.90957 0.40218 0.0
C550 C 0.81141 0.87889 0.38539 0.0
H551 H 0.81633 0.90678 0.43391 0.0
C552 C 0.81548 0.89929 0.42033 0.0
C553 C 0.81468 0.87894 0.42112 0.0
C554 C 0.81243 0.8688 0.40362 0.0
C555 C 0.80877 0.86757 0.36724 0.0
H556 H 0.81181 0.85305 0.40419 0.0
C557 C 0.82494 0.87391 0.35379 0.0
C558 C 0.82382 0.86163 0.33781 0.0
C559 C 0.79085 0.84934 0.36421 0.0
H560 H 0.77824 0.8442 0.37442 0.0
C561 C 0.78923 0.8374 0.34822 0.0
H562 H 0.83864 0.88808 0.35619 0.0
C563 C 0.80566 0.8433 0.33528 0.0
H564 H 0.80435 0.83307 0.32363 0.0
H565 H 0.77546 0.82324 0.34612 0.0
H566 H 0.32727 0.62101 0.65394 0.0
C567 C 0.32858 0.63043 0.64067 0.0
C568 C 0.32059 0.62122 0.62238 0.0
C569 C 0.33768 0.65175 0.64194 0.0
H570 H 0.31628 0.62658 0.59107 0.0
C571 C 0.32184 0.63358 0.60527 0.0
C572 C 0.33129 0.65486 0.60627 0.0
C573 C 0.3391 0.66379 0.62464 0.0
C574 C 0.34575 0.66161 0.66124 0.0
H575 H 0.34646 0.68021 0.62544 0.0
C576 C 0.35848 0.65384 0.67568 0.0
C577 C 0.36687 0.66379 0.69359 0.0
C578 C 0.34115 0.67925 0.66514 0.0
H579 H 0.3311 0.6854 0.65447 0.0
C580 C 0.34933 0.68907 0.68291 0.0
H581 H 0.36242 0.64043 0.67277 0.0
C582 C 0.36217 0.68148 0.69704 0.0
H583 H 0.36814 0.68927 0.71081 0.0
H584 H 0.34565 0.70261 0.68577 0.0
H585 H 0.59625 0.07108 0.9102 0.0
C586 C 0.59104 0.07493 0.89531 0.0
C587 C 0.60239 0.07266 0.87973 0.0
C588 C 0.57291 0.08214 0.89183 0.0
H589 H 0.60383 0.07604 0.84833 0.0
C590 C 0.59538 0.07784 0.86053 0.0
C591 C 0.57769 0.08557 0.85689 0.0
C592 C 0.56644 0.08756 0.8726 0.0
C593 C 0.56066 0.08389 0.9083 0.0
H594 H 0.55265 0.09339 0.86987 0.0
C595 C 0.57231 0.09353 0.92565 0.0
C596 C 0.56075 0.0953 0.94132 0.0
C597 C 0.53725 0.07591 0.90674 0.0
H598 H 0.52791 0.06829 0.89358 0.0
C599 C 0.5257 0.07739 0.92229 0.0
H600 H 0.59034 0.1002 0.92666 0.0
C601 C 0.53731 0.08699 0.93948 0.0
H602 H 0.52793 0.08781 0.95137 0.0
H603 H 0.50766 0.07104 0.92104 0.0
H604 H 0.15025 0.52517 0.43742 0.0
C605 C 0.14324 0.53072 0.42401 0.0
C606 C 0.15225 0.53099 0.40623 0.0
C607 C 0.1254 0.53794 0.42473 0.0
H608 H 0.14923 0.53808 0.37517 0.0
C609 C 0.14272 0.53815 0.38905 0.0
C610 C 0.12479 0.54536 0.38955 0.0
C611 C 0.11641 0.54549 0.40756 0.0
C612 C 0.11527 0.53632 0.44326 0.0
H613 H 0.10235 0.5507 0.40812 0.0
C614 C 0.11889 0.55364 0.45434 0.0
C615 C 0.10974 0.55177 0.47239 0.0
C616 C 0.10225 0.51714 0.45009 0.0
H617 H 0.09935 0.50365 0.44172 0.0
C618 C 0.09278 0.51522 0.46772 0.0
H619 H 0.12933 0.56838 0.44917 0.0
C620 C 0.09648 0.53237 0.47881 0.0
H621 H 0.08881 0.53044 0.49239 0.0
H622 H 0.08259 0.50039 0.47283 0.0
H623 H 0.59209 0.87787 0.65629 0.0
C624 C 0.59092 0.86743 0.64484 0.0
C625 C 0.59605 0.87508 0.62591 0.0
C626 C 0.58422 0.84634 0.64899 0.0
H627 H 0.59881 0.8673 0.59664 0.0
C628 C 0.59442 0.86143 0.61116 0.0
C629 C 0.58782 0.84036 0.61504 0.0
C630 C 0.5829 0.83294 0.63404 0.0
C631 C 0.57829 0.83817 0.66883 0.0
H632 H 0.57738 0.81665 0.63704 0.0
C633 C 0.56387 0.8448 0.67854 0.0
C634 C 0.55749 0.8364 0.69702 0.0
C635 C 0.58656 0.82323 0.67792 0.0
H636 H 0.59782 0.81798 0.67084 0.0
C637 C 0.58054 0.81505 0.69633 0.0
H638 H 0.55704 0.856 0.67142 0.0
C639 C 0.56608 0.82152 0.70582 0.0
H640 H 0.56181 0.81502 0.72017 0.0
H641 H 0.58709 0.80363 0.70327 0.0
H642 H 0.30216 0.42374 0.89044 0.0
C643 C 0.30504 0.41252 0.90107 0.0
C644 C 0.30728 0.41615 0.92129 0.0
C645 C 0.30664 0.39452 0.89432 0.0
H646 H 0.31263 0.40356 0.95034 0.0
C647 C 0.31153 0.40149 0.93468 0.0
C648 C 0.31326 0.38351 0.92812 0.0
C649 C 0.31079 0.38005 0.90794 0.0
C650 C 0.30292 0.39048 0.87304 0.0
H651 H 0.31169 0.36597 0.90288 0.0
C652 C 0.31862 0.38535 0.86361 0.0
C653 C 0.31494 0.38158 0.84335 0.0
C654 C 0.28348 0.39175 0.86207 0.0
H655 H 0.27114 0.3956 0.86905 0.0
C656 C 0.27964 0.38777 0.84206 0.0
H657 H 0.33369 0.38444 0.87201 0.0
C658 C 0.29522 0.3827 0.83273 0.0
H659 H 0.29205 0.38005 0.8171 0.0
H660 H 0.26458 0.38872 0.83372 0.0
H661 H 0.83998 0.11855 0.14854 0.0
C662 C 0.8419 0.12675 0.13455 0.0
C663 C 0.83285 0.1162 0.11707 0.0
C664 C 0.85242 0.148 0.13408 0.0
H665 H 0.82843 0.11887 0.08549 0.0
C666 C 0.83489 0.12703 0.09904 0.0
C667 C 0.84587 0.14818 0.0983 0.0
C668 C 0.8545 0.15854 0.11589 0.0
C669 C 0.86033 0.15948 0.15252 0.0
H670 H 0.86274 0.17491 0.11545 0.0
C671 C 0.8734 0.15318 0.16783 0.0
C672 C 0.88074 0.16424 0.18525 0.0
C673 C 0.8547 0.17694 0.15483 0.0
H674 H 0.84449 0.182 0.14335 0.0
C675 C 0.86191 0.18789 0.17206 0.0
H676 H 0.87784 0.13974 0.16618 0.0
C677 C 0.87483 0.18162 0.18719 0.0
H678 H 0.88044 0.19054 0.20034 0.0
H679 H 0.85747 0.20131 0.17369 0.0
H680 H 0.16312 0.14602 0.37986 0.0
C681 C 0.14932 0.147 0.36959 0.0
C682 C 0.13072 0.14956 0.37678 0.0
C683 C 0.15059 0.14656 0.34924 0.0
H684 H 0.09906 0.15415 0.36839 0.0
C685 C 0.1136 0.15224 0.36327 0.0
C686 C 0.11471 0.15208 0.34304 0.0
C687 C 0.13282 0.14868 0.33611 0.0
C688 C 0.17088 0.14502 0.34161 0.0
H689 H 0.13323 0.14821 0.3204 0.0
C690 C 0.18314 0.13333 0.35165 0.0
C691 C 0.20281 0.13279 0.34475 0.0
C692 C 0.17854 0.15589 0.32437 0.0
H693 H 0.17005 0.16551 0.31652 0.0
C694 C 0.19762 0.15491 0.31721 0.0
H695 H 0.17765 0.12492 0.36498 0.0
C696 C 0.20971 0.14349 0.32729 0.0
H697 H 0.22457 0.1431 0.32146 0.0
H698 H 0.20325 0.16328 0.30391 0.0
H699 H 0.10838 0.83432 0.66772 0.0
C700 C 0.11604 0.85038 0.67078 0.0
C701 C 0.10273 0.86153 0.6754 0.0
C702 C 0.13928 0.8599 0.67056 0.0
H703 H 0.10263 0.89062 0.68407 0.0
C704 C 0.1128 0.88213 0.68005 0.0
C705 C 0.13589 0.89172 0.68038 0.0
C706 C 0.14896 0.88065 0.67521 0.0
C707 C 0.15382 0.84828 0.66628 0.0
H708 H 0.16683 0.8881 0.67532 0.0
C709 C 0.14749 0.83434 0.65087 0.0
C710 C 0.16205 0.82437 0.64615 0.0
C711 C 0.17459 0.85161 0.67737 0.0
H712 H 0.17975 0.86182 0.68962 0.0
C713 C 0.18903 0.84186 0.67281 0.0
H714 H 0.13137 0.83148 0.6425 0.0
C715 C 0.18299 0.82855 0.65723 0.0
H716 H 0.19495 0.82176 0.65377 0.0
H717 H 0.20511 0.84478 0.68129 0.0
H718 H 0.29539 0.86667 0.8608 0.0
C719 C 0.3106 0.86721 0.85499 0.0
C720 C 0.32339 0.85596 0.86471 0.0
C721 C 0.3171 0.8787 0.83772 0.0
H722 H 0.35272 0.84747 0.86435 0.0
C723 C 0.34267 0.85599 0.85687 0.0
C724 C 0.34937 0.86708 0.83964 0.0
C725 C 0.33663 0.87846 0.83019 0.0
C726 C 0.30375 0.89106 0.8276 0.0
H727 H 0.34243 0.88759 0.8173 0.0
C728 C 0.2922 0.90023 0.83829 0.0
C729 C 0.27992 0.91215 0.82872 0.0
C730 C 0.30259 0.89388 0.80706 0.0
H731 H 0.31052 0.88664 0.79819 0.0
C732 C 0.29096 0.906 0.79756 0.0
H733 H 0.2927 0.89805 0.85406 0.0
C734 C 0.27988 0.91519 0.80824 0.0
H735 H 0.27132 0.92475 0.80036 0.0
H736 H 0.29049 0.90825 0.78178 0.0
H737 H 0.37554 0.16439 0.13848 0.0
C738 C 0.37455 0.15119 0.13042 0.0
C739 C 0.39026 0.1412 0.13533 0.0
C740 C 0.35711 0.14376 0.11546 0.0
H741 H 0.39998 0.1157 0.12911 0.0
C742 C 0.38849 0.12396 0.12486 0.0
C743 C 0.37123 0.11646 0.10982 0.0
C744 C 0.35555 0.12645 0.10526 0.0
C745 C 0.33962 0.15321 0.11113 0.0
H746 H 0.34207 0.12082 0.09371 0.0
C747 C 0.34475 0.17324 0.10351 0.0
C748 C 0.32775 0.18182 0.09875 0.0
C749 C 0.31746 0.1418 0.11408 0.0
H750 H 0.31321 0.12631 0.11987 0.0
C751 C 0.30063 0.15033 0.10966 0.0
H752 H 0.36186 0.18202 0.10116 0.0
C753 C 0.30569 0.1702 0.10203 0.0
H754 H 0.29225 0.17634 0.09836 0.0
H755 H 0.28357 0.14146 0.112 0.0
H756 H 0.09482 0.86426 0.09631 0.0
C757 C 0.1118 0.87309 0.10154 0.0
C758 C 0.12886 0.86444 0.10268 0.0
C759 C 0.1167 0.8936 0.10614 0.0
H760 H 0.16409 0.87016 0.11065 0.0
C761 C 0.15078 0.87658 0.10922 0.0
C762 C 0.15604 0.89723 0.11326 0.0
C763 C 0.13889 0.90566 0.11165 0.0
C764 C 0.09878 0.90271 0.10447 0.0
H765 H 0.14276 0.92158 0.11486 0.0
C766 C 0.07991 0.89413 0.11485 0.0
C767 C 0.06322 0.90323 0.11377 0.0
C768 C 0.10073 0.92032 0.09277 0.0
H769 H 0.1151 0.92715 0.08464 0.0
C770 C 0.08407 0.92918 0.09134 0.0
H771 H 0.07843 0.88056 0.12395 0.0
C772 C 0.06547 0.92077 0.10178 0.0
H773 H 0.05313 0.92832 0.10082 0.0
H774 H 0.0857 0.94277 0.08227 0.0
H775 H 0.34208 0.91538 0.40251 0.0
C776 C 0.33825 0.89962 0.40734 0.0
C777 C 0.34657 0.88705 0.39761 0.0
C778 C 0.32528 0.89185 0.4232 0.0
H779 H 0.35029 0.85754 0.39738 0.0
C780 C 0.34312 0.867 0.40442 0.0
C781 C 0.3309 0.85913 0.42043 0.0
C782 C 0.32132 0.87129 0.42925 0.0
C783 C 0.31637 0.90513 0.4338 0.0
H784 H 0.31124 0.86468 0.44115 0.0
C785 C 0.31117 0.92173 0.42421 0.0
C786 C 0.30283 0.93416 0.43434 0.0
C787 C 0.31319 0.90137 0.45386 0.0
H788 H 0.3178 0.88948 0.46216 0.0
C789 C 0.30422 0.91309 0.46373 0.0
H790 H 0.31379 0.92512 0.40892 0.0
C791 C 0.2989 0.92921 0.45408 0.0
H792 H 0.29174 0.93783 0.46222 0.0
H793 H 0.30154 0.90976 0.47905 0.0
H794 H 0.40282 0.16044 0.66889 0.0
C795 C 0.38503 0.15634 0.66962 0.0
C796 C 0.37259 0.16495 0.65573 0.0
C797 C 0.37452 0.14211 0.68395 0.0
H798 H 0.33944 0.16459 0.6447 0.0
C799 C 0.34933 0.15882 0.65591 0.0
C800 C 0.33861 0.14463 0.67 0.0
C801 C 0.35134 0.13686 0.68428 0.0
C802 C 0.38736 0.13165 0.69763 0.0
H803 H 0.3429 0.12597 0.69517 0.0
C804 C 0.40986 0.14176 0.70444 0.0
C805 C 0.42242 0.13143 0.71617 0.0
C806 C 0.37744 0.11108 0.70332 0.0
H807 H 0.36043 0.10248 0.69798 0.0
C808 C 0.38956 0.10101 0.71552 0.0
H809 H 0.41771 0.15767 0.70058 0.0
C810 C 0.41192 0.11103 0.72184 0.0
H811 H 0.42117 0.10255 0.73059 0.0
H812 H 0.38174 0.08518 0.71968 0.0
H813 H 0.12503 0.11211 0.89261 0.0
C814 C 0.12426 0.12191 0.90394 0.0
C815 C 0.11978 0.13996 0.8983 0.0
C816 C 0.12687 0.11624 0.92398 0.0
H817 H 0.11405 0.16615 0.90861 0.0
C818 C 0.11741 0.15215 0.91278 0.0
C819 C 0.1201 0.14695 0.93268 0.0
C820 C 0.12543 0.12939 0.93825 0.0
C821 C 0.12999 0.0963 0.93006 0.0
H822 H 0.12801 0.1259 0.95375 0.0
C823 C 0.14081 0.08705 0.91865 0.0
C824 C 0.14286 0.06792 0.92425 0.0
C825 C 0.12137 0.08594 0.94723 0.0
H826 H 0.11218 0.09192 0.95607 0.0
C827 C 0.12388 0.06731 0.95306 0.0
H828 H 0.14779 0.09467 0.90548 0.0
C829 C 0.1345 0.05833 0.9417 0.0
H830 H 0.13548 0.0435 0.94626 0.0
H831 H 0.11712 0.05957 0.96626 0.0
H832 H 0.85709 0.39429 0.90086 0.0
C833 C 0.85044 0.37828 0.90487 0.0
C834 C 0.85572 0.36389 0.89464 0.0
C835 C 0.83769 0.3722 0.92102 0.0
H836 H 0.85105 0.33184 0.89268 0.0
C837 C 0.84751 0.34324 0.90047 0.0
C838 C 0.8358 0.33709 0.91699 0.0
C839 C 0.83067 0.35149 0.92704 0.0
C840 C 0.83237 0.38737 0.9322 0.0
H841 H 0.82114 0.3464 0.93956 0.0
C842 C 0.8271 0.40389 0.92259 0.0
C843 C 0.82101 0.41758 0.93321 0.0
C844 C 0.83211 0.38509 0.95271 0.0
H845 H 0.83677 0.37306 0.96073 0.0
C846 C 0.82586 0.39833 0.96322 0.0
H847 H 0.82765 0.40599 0.90688 0.0
C848 C 0.82009 0.41425 0.95361 0.0
H849 H 0.81473 0.42383 0.96226 0.0
H850 H 0.82537 0.39617 0.97895 0.0
H851 H 0.92988 0.62778 0.16319 0.0
C852 C 0.91346 0.62492 0.16785 0.0
C853 C 0.90111 0.63776 0.16111 0.0
C854 C 0.9043 0.60784 0.17993 0.0
H855 H 0.8697 0.6428 0.16142 0.0
C856 C 0.8797 0.63353 0.16715 0.0
C857 C 0.87047 0.61659 0.17946 0.0
C858 C 0.883 0.60392 0.18582 0.0
C859 C 0.91601 0.59299 0.18524 0.0
H860 H 0.87614 0.59082 0.19533 0.0
C861 C 0.93741 0.59895 0.19556 0.0
C862 C 0.94805 0.58447 0.20097 0.0
C863 C 0.90537 0.57251 0.18024 0.0
H864 H 0.88888 0.56762 0.17227 0.0
C865 C 0.91595 0.55818 0.18535 0.0
H866 H 0.94565 0.61474 0.19947 0.0
C867 C 0.93714 0.56407 0.19566 0.0
H868 H 0.94486 0.5526 0.19977 0.0
H869 H 0.90764 0.54243 0.18142 0.0
H870 H 0.6046 0.60031 0.39354 0.0
C871 C 0.60625 0.61056 0.40529 0.0
C872 C 0.61039 0.63139 0.40094 0.0
C873 C 0.6027 0.60276 0.42453 0.0
H874 H 0.61509 0.66061 0.41286 0.0
C875 C 0.61189 0.64452 0.41611 0.0
C876 C 0.6085 0.63705 0.43532 0.0
C877 C 0.60386 0.61619 0.43944 0.0
C878 C 0.59603 0.58047 0.42881 0.0
H879 H 0.60112 0.61044 0.45431 0.0
C880 C 0.60655 0.56831 0.42097 0.0
C881 C 0.59937 0.5471 0.42462 0.0
C882 C 0.57846 0.57113 0.44049 0.0
H883 H 0.56979 0.57996 0.44645 0.0
C884 C 0.5715 0.55019 0.44426 0.0
H885 H 0.6201 0.57525 0.41193 0.0
C886 C 0.58179 0.53822 0.43636 0.0
H887 H 0.57608 0.52197 0.43951 0.0
H888 H 0.55794 0.54317 0.45324 0.0
H889 H 0.80322 0.35721 0.3619 0.0
C890 C 0.81499 0.35599 0.35233 0.0
C891 C 0.82977 0.3455 0.35917 0.0
C892 C 0.81468 0.36406 0.33298 0.0
H893 H 0.856 0.33532 0.3517 0.0
C894 C 0.84423 0.34302 0.34643 0.0
C895 C 0.84408 0.35072 0.32707 0.0
C896 C 0.8296 0.36156 0.32055 0.0
C897 C 0.79805 0.37413 0.32545 0.0
H898 H 0.82972 0.36772 0.30567 0.0
C899 C 0.79152 0.38614 0.33772 0.0
C900 C 0.77495 0.39474 0.33084 0.0
C901 C 0.78796 0.37116 0.30602 0.0
H902 H 0.79206 0.36165 0.29627 0.0
C903 C 0.77189 0.37995 0.29901 0.0
H904 H 0.79944 0.38892 0.35259 0.0
C905 C 0.76532 0.39155 0.31129 0.0
H906 H 0.75222 0.39753 0.30558 0.0
H907 H 0.76415 0.3774 0.28408 0.0
H908 H 0.66228 0.63123 0.88511 0.0
C909 C 0.64633 0.63168 0.87826 0.0
C910 C 0.63668 0.64457 0.88586 0.0
C911 C 0.636 0.62012 0.86148 0.0
H912 H 0.60904 0.65589 0.88234 0.0
C913 C 0.61668 0.64613 0.87641 0.0
C914 C 0.60608 0.63483 0.85971 0.0
C915 C 0.61556 0.62158 0.85256 0.0
C916 C 0.64696 0.60732 0.85276 0.0
H917 H 0.60712 0.61266 0.83983 0.0
C918 C 0.66014 0.59763 0.86467 0.0
C919 C 0.67143 0.5865 0.85629 0.0
C920 C 0.64496 0.60531 0.83226 0.0
H921 H 0.6356 0.61294 0.8225 0.0
C922 C 0.65559 0.59386 0.82394 0.0
H923 H 0.66158 0.59863 0.88049 0.0
C924 C 0.66879 0.58459 0.8358 0.0
H925 H 0.6775 0.57646 0.82882 0.0
H926 H 0.65398 0.59256 0.80816 0.0
H927 H 0.9245 0.62181 0.89902 0.0
C928 C 0.92533 0.63033 0.91192 0.0
C929 C 0.90748 0.62405 0.92364 0.0
C930 C 0.94462 0.64706 0.91704 0.0
H931 H 0.89559 0.63031 0.94991 0.0
C932 C 0.90937 0.63458 0.94092 0.0
C933 C 0.92882 0.65072 0.9468 0.0
C934 C 0.94619 0.65718 0.93458 0.0
C935 C 0.96329 0.65342 0.90429 0.0
H936 H 0.96106 0.66985 0.93893 0.0
C937 C 0.95885 0.65256 0.88368 0.0
C938 C 0.9763 0.65754 0.87151 0.0
C939 C 0.98564 0.65984 0.91258 0.0
H940 H 0.98974 0.66035 0.92834 0.0
C941 C 0.00304 0.66517 0.9006 0.0
H942 H 0.94174 0.64822 0.87707 0.0
C943 C -0.00154 0.66397 0.88023 0.0
H944 H 0.01229 0.66767 0.87135 0.0
H945 H 0.02016 0.66995 0.90716 0.0
H946 H 0.19018 0.12686 0.65214 0.0
C947 C 0.1846 0.13433 0.66284 0.0
C948 C 0.17779 0.12417 0.68059 0.0
C949 C 0.18533 0.15457 0.65921 0.0
H950 H 0.16508 0.12661 0.70783 0.0
C951 C 0.17082 0.13432 0.69427 0.0
C952 C 0.17178 0.15459 0.69092 0.0
C953 C 0.17927 0.16472 0.67346 0.0
C954 C 0.19252 0.16525 0.64057 0.0
H955 H 0.17989 0.18037 0.67078 0.0
C956 C 0.1817 0.15688 0.62248 0.0
C957 C 0.18734 0.1677 0.60476 0.0
C958 C 0.20949 0.18432 0.64081 0.0
H959 H 0.21806 0.19103 0.65459 0.0
C960 C 0.21555 0.19488 0.62326 0.0
H961 H 0.1682 0.1424 0.62229 0.0
C962 C 0.20448 0.18672 0.60534 0.0
H963 H 0.2093 0.19528 0.59192 0.0
H964 H 0.2287 0.20954 0.62356 0.0
H965 H 0.58234 0.32131 0.39767 0.0
C966 C 0.573 0.32139 0.38345 0.0
C967 C 0.57766 0.33952 0.37213 0.0
C968 C 0.55644 0.30339 0.37648 0.0
H969 H 0.57011 0.35332 0.34454 0.0
C970 C 0.56587 0.33952 0.35358 0.0
C971 C 0.54947 0.32173 0.34623 0.0
C972 C 0.54476 0.30375 0.35782 0.0
C973 C 0.55129 0.28424 0.38862 0.0
H974 H 0.53172 0.2901 0.35243 0.0
C975 C 0.55041 0.28465 0.409 0.0
C976 C 0.54549 0.26659 0.42059 0.0
C977 C 0.54717 0.26541 0.37993 0.0
H978 H 0.54801 0.26457 0.36434 0.0
C979 C 0.54225 0.24746 0.39132 0.0
H980 H 0.55359 0.29906 0.41586 0.0
C981 C 0.54141 0.24799 0.4115 0.0
H982 H 0.53733 0.23381 0.41996 0.0
H983 H 0.53908 0.23305 0.38446 0.0
H984 H 0.32102 0.88362 0.1278 0.0
C985 C 0.33002 0.88454 0.14229 0.0
C986 C 0.33994 0.90361 0.15094 0.0
C987 C 0.33212 0.86679 0.15184 0.0
H988 H 0.35836 0.9195 0.17671 0.0
C989 C 0.35131 0.90482 0.16985 0.0
C990 C 0.35333 0.88723 0.17994 0.0
C991 C 0.3439 0.86833 0.17063 0.0
C992 C 0.32236 0.84682 0.14192 0.0
H993 H 0.3463 0.85486 0.17779 0.0
C994 C 0.32226 0.84579 0.12147 0.0
C995 C 0.31205 0.82729 0.11171 0.0
C996 C 0.31268 0.82874 0.15265 0.0
H997 H 0.31214 0.82894 0.16835 0.0
C998 C 0.30306 0.8102 0.14312 0.0
H999 H 0.33033 0.85942 0.11306 0.0
C1000 C 0.30264 0.80943 0.12278 0.0
H1001 H 0.29452 0.79497 0.11569 0.0
H1002 H 0.29555 0.7964 0.15151 0.0
H1003 H 0.83385 0.36867 0.6305 0.0
C1004 C 0.84258 0.36888 0.64504 0.0
C1005 C 0.85037 0.38704 0.65544 0.0
C1006 C 0.84657 0.35125 0.65295 0.0
H1007 H 0.86719 0.40139 0.68239 0.0
C1008 C 0.86159 0.38739 0.67431 0.0
C1009 C 0.86534 0.3698 0.68278 0.0
C1010 C 0.85794 0.35187 0.67185 0.0
C1011 C 0.83948 0.33246 0.64119 0.0
H1012 H 0.86172 0.33854 0.67777 0.0
C1013 C 0.84126 0.33381 0.62084 0.0
C1014 C 0.83415 0.31624 0.60945 0.0
C1015 C 0.8308 0.31311 0.65012 0.0
H1016 H 0.82893 0.31151 0.66568 0.0
C1017 C 0.82404 0.29558 0.63897 0.0
H1018 H 0.84856 0.34857 0.61385 0.0
C1019 C 0.82564 0.29708 0.61877 0.0
H1020 H 0.81981 0.28327 0.6104 0.0
H1021 H 0.81727 0.28077 0.64598 0.0
H1022 H 0.4323 0.12939 0.40331 0.0
C1023 C 0.43407 0.13949 0.41521 0.0
C1024 C 0.41586 0.13701 0.42594 0.0
C1025 C 0.4548 0.15463 0.42 0.0
H1026 H 0.40485 0.14841 0.44998 0.0
C1027 C 0.41874 0.14998 0.44167 0.0
C1028 C 0.43945 0.16495 0.4469 0.0
C1029 C 0.45741 0.16715 0.436 0.0
C1030 C 0.47359 0.15761 0.40803 0.0
H1031 H 0.47327 0.179 0.43964 0.0
C1032 C 0.46994 0.15785 0.38741 0.0
C1033 C 0.48764 0.16099 0.37585 0.0
C1034 C 0.49525 0.16049 0.41706 0.0
H1035 H 0.49853 0.16026 0.4329 0.0
C1036 C 0.51286 0.16342 0.40568 0.0
H1037 H 0.45328 0.15569 0.38036 0.0
C1038 C 0.50913 0.16367 0.38521 0.0
H1039 H 0.52313 0.1663 0.37672 0.0
H1040 H 0.52949 0.16559 0.41276 0.0
H1041 H 0.62206 0.62461 0.15492 0.0
C1042 C 0.62756 0.63083 0.1408 0.0
C1043 C 0.64109 0.62271 0.13167 0.0
C1044 C 0.62165 0.64731 0.1322 0.0
H1045 H 0.65837 0.62453 0.10615 0.0
C1046 C 0.64778 0.63061 0.11321 0.0
C1047 C 0.64199 0.64702 0.10424 0.0
C1048 C 0.62875 0.65519 0.11381 0.0
C1049 C 0.60992 0.65746 0.14331 0.0
H1050 H 0.62506 0.66845 0.1075 0.0
C1051 C 0.61634 0.66106 0.16344 0.0
C1052 C 0.60625 0.67151 0.17411 0.0
C1053 C 0.59291 0.6642 0.13388 0.0
H1054 H 0.58753 0.66155 0.11843 0.0
C1055 C 0.58259 0.67436 0.14439 0.0
H1056 H 0.62946 0.65591 0.17077 0.0
C1057 C 0.58922 0.67807 0.16432 0.0
H1058 H 0.58129 0.68643 0.17193 0.0
H1059 H 0.56952 0.67954 0.137 0.0
H1060 H 0.08001 0.84026 0.89294 0.0
C1061 C 0.06829 0.83929 0.88002 0.0
C1062 C 0.07276 0.85511 0.86567 0.0
C1063 C 0.04923 0.82178 0.87748 0.0
H1064 H 0.0612 0.86469 0.83708 0.0
C1065 C 0.05799 0.85284 0.84838 0.0
C1066 C 0.0393 0.83514 0.84527 0.0
C1067 C 0.03476 0.82001 0.86014 0.0
C1068 C 0.04474 0.80496 0.89256 0.0
H1069 H 0.01984 0.80675 0.85815 0.0
C1070 C 0.04915 0.80911 0.91276 0.0
C1071 C 0.04482 0.79315 0.92693 0.0
C1072 C 0.03602 0.78452 0.88677 0.0
H1073 H 0.03293 0.78071 0.8714 0.0
C1074 C 0.03151 0.76868 0.90076 0.0
H1075 H 0.05559 0.82474 0.91749 0.0
C1076 C 0.03584 0.77291 0.92069 0.0
H1077 H 0.03266 0.7603 0.93123 0.0
H1078 H 0.02487 0.75304 0.89611 0.0
H1079 H 0.81903 0.90043 0.63235 0.0
C1080 C 0.83096 0.89709 0.64336 0.0
C1081 C 0.8372 0.88 0.64119 0.0
C1082 C 0.84027 0.90993 0.65948 0.0
H1083 H 0.85881 0.86334 0.65266 0.0
C1084 C 0.85322 0.87598 0.65495 0.0
C1085 C 0.86318 0.88879 0.67081 0.0
C1086 C 0.85647 0.90562 0.67314 0.0
C1087 C 0.83347 0.92803 0.66171 0.0
H1088 H 0.86384 0.91527 0.68563 0.0
C1089 C 0.81128 0.92725 0.65625 0.0
C1090 C 0.80489 0.94449 0.65755 0.0
C1091 C 0.84916 0.94636 0.66889 0.0
H1092 H 0.86646 0.94772 0.67286 0.0
C1093 C 0.84283 0.96339 0.67061 0.0
H1094 H 0.79883 0.91313 0.65116 0.0
C1095 C 0.82089 0.96253 0.66494 0.0
H1096 H 0.81658 0.97614 0.66592 0.0
H1097 H 0.85508 0.97743 0.67606 0.0
H1098 H 0.96467 0.1892 0.39781 0.0
C1099 C 0.94972 0.17654 0.4004 0.0
C1100 C 0.9414 0.1606 0.38703 0.0
C1101 C 0.93876 0.1763 0.41707 0.0
H1102 H 0.91549 0.132 0.38032 0.0
C1103 C 0.92203 0.14434 0.39059 0.0
C1104 C 0.91097 0.14373 0.40721 0.0
C1105 C 0.9194 0.15981 0.42042 0.0
C1106 C 0.94754 0.19334 0.43093 0.0
H1107 H 0.91094 0.15949 0.4333 0.0
C1108 C 0.93344 0.20325 0.43652 0.0
C1109 C 0.94179 0.21979 0.44931 0.0
C1110 C 0.97016 0.20001 0.43832 0.0
H1111 H 0.98134 0.1926 0.43426 0.0
C1112 C 0.97848 0.21616 0.45124 0.0
H1113 H 0.91615 0.19848 0.43033 0.0
C1114 C 0.96446 0.22602 0.4567 0.0
H1115 H 0.97138 0.23843 0.46683 0.0
H1116 H -0.00412 0.22107 0.45705 0.0
H1117 H 0.60895 0.10987 0.11033 0.0
C1118 C 0.60267 0.11228 0.12363 0.0
C1119 C 0.60027 0.13116 0.12663 0.0
C1120 C 0.59583 0.09601 0.13724 0.0
H1121 H 0.58969 0.14808 0.14643 0.0
C1122 C 0.59142 0.1336 0.14378 0.0
C1123 C 0.58403 0.11743 0.15731 0.0
C1124 C 0.58641 0.09869 0.15396 0.0
C1125 C 0.59728 0.07581 0.13345 0.0
H1126 H 0.58097 0.08615 0.1644 0.0
C1127 C 0.61707 0.074 0.12797 0.0
C1128 C 0.6182 0.05474 0.12435 0.0
C1129 C 0.57864 0.05816 0.13523 0.0
H1130 H 0.56317 0.05914 0.13924 0.0
C1131 C 0.57966 0.0391 0.13157 0.0
H1132 H 0.63153 0.08754 0.12659 0.0
C1133 C 0.59926 0.03735 0.12617 0.0
H1134 H 0.59969 0.02232 0.12373 0.0
H1135 H 0.5652 0.0256 0.13297 0.0
H1136 H 0.55719 0.8429 0.8886 0.0
C1137 C 0.57203 0.85631 0.88894 0.0
C1138 C 0.57543 0.87033 0.87303 0.0
C1139 C 0.58716 0.86007 0.90588 0.0
H1140 H 0.5983 0.89758 0.86123 0.0
C1141 C 0.5949 0.88755 0.87401 0.0
C1142 C 0.60964 0.89218 0.89131 0.0
C1143 C 0.6055 0.87816 0.90725 0.0
C1144 C 0.5834 0.84541 0.92257 0.0
H1145 H 0.61619 0.88131 0.92093 0.0
C1146 C 0.58797 0.8272 0.92175 0.0
C1147 C 0.58542 0.81352 0.93798 0.0
C1148 C 0.5759 0.84987 0.93955 0.0
H1149 H 0.5724 0.86392 0.9404 0.0
C1150 C 0.57287 0.8362 0.95555 0.0
H1151 H 0.59375 0.82387 0.90854 0.0
C1152 C 0.57764 0.81818 0.95484 0.0
H1153 H 0.57579 0.80816 0.9677 0.0
H1154 H 0.56709 0.83971 0.96865 0.0
H1155 H 0.89581 0.16348 0.85701 0.0
C1156 C 0.8821 0.14916 0.85714 0.0
C1157 C 0.86849 0.14441 0.87258 0.0
C1158 C 0.87768 0.13556 0.84168 0.0
H1159 H 0.8397 0.12279 0.88422 0.0
C1160 C 0.8506 0.12601 0.87258 0.0
C1161 C 0.84576 0.11245 0.85712 0.0
C1162 C 0.85942 0.11733 0.84171 0.0
C1163 C 0.89175 0.14042 0.82521 0.0
H1164 H 0.85592 0.10688 0.82975 0.0
C1165 C 0.915 0.14514 0.82877 0.0
C1166 C 0.9282 0.14845 0.81303 0.0
C1167 C 0.88181 0.13949 0.80578 0.0
H1168 H 0.86393 0.13593 0.80271 0.0
C1169 C 0.89486 0.1432 0.79014 0.0
H1170 H 0.92263 0.14539 0.84375 0.0
C1171 C 0.91789 0.14757 0.79369 0.0
H1172 H 0.92766 0.15037 0.7813 0.0
H1173 H 0.88709 0.14255 0.7752 0.0
H1174 H 0.6558 0.1477 0.65271 0.0
C1175 C 0.65166 0.15889 0.64279 0.0
C1176 C 0.63809 0.16927 0.64844 0.0
C1177 C 0.66037 0.16327 0.62456 0.0
H1178 H 0.622 0.19144 0.6396 0.0
C1179 C 0.63277 0.18365 0.63539 0.0
C1180 C 0.64083 0.18776 0.61685 0.0
C1181 C 0.65501 0.17775 0.61171 0.0
C1182 C 0.67481 0.15248 0.61871 0.0
H1183 H 0.66125 0.18063 0.5974 0.0
C1184 C 0.66686 0.13116 0.61744 0.0
C1185 C 0.68016 0.12089 0.61089 0.0
C1186 C 0.69635 0.16356 0.61378 0.0
H1187 H 0.70273 0.18001 0.61464 0.0
C1188 C 0.70985 0.15345 0.60778 0.0
H1189 H 0.65017 0.12266 0.62117 0.0
C1190 C 0.70184 0.13229 0.60626 0.0
H1191 H 0.7124 0.12494 0.60091 0.0
H1192 H 0.72646 0.16208 0.604 0.0
H1193 H 0.57616 0.81184 0.39375 0.0
C1194 C 0.59081 0.82545 0.39404 0.0
C1195 C 0.60699 0.829 0.41031 0.0
C1196 C 0.5928 0.83999 0.37864 0.0
H1197 H 0.63845 0.84946 0.42294 0.0
C1198 C 0.6256 0.84692 0.41067 0.0
C1199 C 0.62796 0.86147 0.39527 0.0
C1200 C 0.61138 0.85795 0.37931 0.0
C1201 C 0.57473 0.83693 0.36245 0.0
H1202 H 0.61276 0.86925 0.36752 0.0
C1203 C 0.56283 0.85063 0.35947 0.0
C1204 C 0.54462 0.84723 0.34491 0.0
C1205 C 0.56871 0.81993 0.3505 0.0
H1206 H 0.57765 0.80916 0.35266 0.0
C1207 C 0.55113 0.81679 0.33562 0.0
H1208 H 0.56747 0.86368 0.36882 0.0
C1209 C 0.53909 0.83028 0.33285 0.0
H1210 H 0.52504 0.82708 0.32165 0.0
H1211 H 0.54657 0.80366 0.32641 0.0
H1212 H 0.91473 0.88161 0.12433 0.0
C1213 C 0.90233 0.8891 0.12302 0.0
C1214 C 0.89862 0.89793 0.13961 0.0
C1215 C 0.89045 0.89014 0.10463 0.0
H1216 H 0.88026 0.91547 0.14993 0.0
C1217 C 0.88331 0.90858 0.13735 0.0
C1218 C 0.87172 0.91037 0.11902 0.0
C1219 C 0.87517 0.90083 0.10282 0.0
C1220 C 0.89387 0.87997 0.08734 0.0
H1221 H 0.86552 0.90135 0.08886 0.0
C1222 C 0.89732 0.86096 0.08945 0.0
C1223 C 0.9 0.85121 0.07301 0.0
C1224 C 0.8935 0.88915 0.06851 0.0
H1225 H 0.89142 0.90392 0.06636 0.0
C1226 C 0.8961 0.87951 0.05221 0.0
H1227 H 0.89734 0.85345 0.10375 0.0
C1228 C 0.89923 0.86065 0.05438 0.0
H1229 H 0.90145 0.85358 0.04152 0.0
H1230 H 0.89579 0.88674 0.03781 0.0
H1231 H 0.18269 0.61981 0.19357 0.0
C1232 C 0.17887 0.63163 0.18438 0.0
C1233 C 0.16518 0.64161 0.19061 0.0
C1234 C 0.18776 0.63694 0.16628 0.0
H1235 H 0.14924 0.66412 0.1828 0.0
C1236 C 0.16021 0.6567 0.1783 0.0
C1237 C 0.16857 0.6618 0.15993 0.0
C1238 C 0.18271 0.65205 0.15419 0.0
C1239 C 0.20137 0.62596 0.15935 0.0
H1240 H 0.189 0.6555 0.13993 0.0
C1241 C 0.19123 0.60591 0.15291 0.0
C1242 C 0.20369 0.59586 0.14463 0.0
C1243 C 0.2242 0.63591 0.158 0.0
H1244 H 0.23219 0.65144 0.16277 0.0
C1245 C 0.23682 0.62588 0.15035 0.0
H1246 H 0.17355 0.59837 0.15398 0.0
C1247 C 0.22667 0.60605 0.1436 0.0
H1248 H 0.23673 0.59898 0.13705 0.0
H1249 H 0.25445 0.63364 0.14929 0.0
H1250 H 0.08196 0.31647 0.87834 0.0
C1251 C 0.09417 0.33085 0.88311 0.0
C1252 C 0.10653 0.33198 0.90157 0.0
C1253 C 0.09752 0.3483 0.87082 0.0
H1254 H 0.13179 0.35162 0.92185 0.0
C1255 C 0.12223 0.35068 0.9076 0.0
C1256 C 0.12571 0.3682 0.89552 0.0
C1257 C 0.11329 0.36693 0.8771 0.0
C1258 C 0.08466 0.34711 0.85132 0.0
H1259 H 0.1159 0.3804 0.86765 0.0
C1260 C 0.07158 0.35966 0.84648 0.0
C1261 C 0.05931 0.3587 0.8279 0.0
C1262 C 0.08552 0.33352 0.83747 0.0
H1263 H 0.09554 0.32376 0.84092 0.0
C1264 C 0.07378 0.33274 0.81891 0.0
H1265 H 0.07046 0.36965 0.85749 0.0
C1266 C 0.06081 0.34523 0.8141 0.0
H1267 H 0.052 0.34435 0.79954 0.0
H1268 H 0.07473 0.32239 0.8082 0.0
H1269 H 0.42464 0.39311 0.63797 0.0
C1270 C 0.41279 0.40121 0.63548 0.0
C1271 C 0.40311 0.40548 0.65135 0.0
C1272 C 0.40787 0.40783 0.61633 0.0
H1273 H 0.38074 0.42007 0.65963 0.0
C1274 C 0.38843 0.41674 0.64763 0.0
C1275 C 0.38351 0.42376 0.62854 0.0
C1276 C 0.39335 0.41914 0.61297 0.0
C1277 C 0.41809 0.403 0.59982 0.0
H1278 H 0.38931 0.42389 0.59809 0.0
C1279 C 0.41677 0.38283 0.59687 0.0
C1280 C 0.42675 0.37826 0.58137 0.0
C1281 C 0.42939 0.41858 0.58703 0.0
H1282 H 0.43067 0.43422 0.58905 0.0
C1283 C 0.43952 0.41414 0.57176 0.0
H1284 H 0.40794 0.37071 0.60661 0.0
C1285 C 0.43831 0.39413 0.56896 0.0
H1286 H 0.44604 0.391 0.55687 0.0
H1287 H 0.44832 0.42625 0.56204 0.0
H1288 H 0.10051 0.60411 0.60683 0.0
C1289 C 0.09337 0.6082 0.61883 0.0
C1290 C 0.08828 0.62634 0.61759 0.0
C1291 C 0.08864 0.59489 0.63521 0.0
H1292 H 0.07464 0.64503 0.63251 0.0
C1293 C 0.07846 0.63103 0.63315 0.0
C1294 C 0.07333 0.61783 0.64954 0.0
C1295 C 0.07853 0.59978 0.65044 0.0
C1296 C 0.09397 0.57571 0.63634 0.0
H1297 H 0.07507 0.58968 0.66319 0.0
C1298 C 0.11483 0.57564 0.63173 0.0
C1299 C 0.11993 0.55746 0.63298 0.0
C1300 C 0.07819 0.55735 0.64213 0.0
H1301 H 0.06195 0.55692 0.64557 0.0
C1302 C 0.08309 0.53929 0.64329 0.0
H1303 H 0.12709 0.58975 0.62726 0.0
C1304 C 0.10379 0.5393 0.63879 0.0
H1305 H 0.10728 0.52512 0.64018 0.0
H1306 H 0.07082 0.52522 0.64777 0.0
H1307 H 0.34232 0.39378 0.12581 0.0
C1308 C 0.35301 0.389 0.13705 0.0
C1309 C 0.36327 0.37531 0.13225 0.0
C1310 C 0.35742 0.39727 0.15593 0.0
H1311 H 0.38573 0.35911 0.14282 0.0
C1312 C 0.37768 0.36959 0.14654 0.0
C1313 C 0.38233 0.3776 0.16539 0.0
C1314 C 0.37213 0.3914 0.17003 0.0
C1315 C 0.34735 0.41256 0.16069 0.0
H1316 H 0.37561 0.39744 0.18467 0.0
C1317 C 0.32538 0.41092 0.15315 0.0
C1318 C 0.31607 0.42565 0.15723 0.0
C1319 C 0.35984 0.42917 0.17254 0.0
H1320 H 0.37693 0.43122 0.17824 0.0
C1321 C 0.35059 0.44367 0.17682 0.0
H1322 H 0.31537 0.39802 0.14433 0.0
C1323 C 0.32889 0.44198 0.16923 0.0
H1324 H 0.32233 0.45372 0.17241 0.0
H1325 H 0.36041 0.45643 0.18587 0.0
H1326 H 0.6433 0.36319 0.17512 0.0
C1327 C 0.65164 0.37954 0.17533 0.0
C1328 C 0.64015 0.39239 0.17988 0.0
C1329 C 0.67406 0.38766 0.17135 0.0
H1330 H 0.64285 0.42365 0.18376 0.0
C1331 C 0.65137 0.41355 0.1801 0.0
C1332 C 0.67357 0.4219 0.17568 0.0
C1333 C 0.68484 0.40884 0.1714 0.0
C1334 C 0.68653 0.37403 0.1678 0.0
H1335 H 0.7021 0.41516 0.16824 0.0
C1336 C 0.67799 0.35886 0.15362 0.0
C1337 C 0.68995 0.34595 0.15024 0.0
C1338 C 0.70715 0.37622 0.17868 0.0
H1339 H 0.71399 0.38772 0.18976 0.0
C1340 C 0.71893 0.36333 0.17563 0.0
H1341 H 0.66235 0.35755 0.1449 0.0
C1342 C 0.71043 0.34828 0.16157 0.0
H1343 H 0.71983 0.33834 0.15974 0.0
H1344 H 0.7347 0.36497 0.18423 0.0
H1345 H 0.85991 0.65004 0.6322 0.0
C1346 C 0.86002 0.6363 0.62575 0.0
C1347 C 0.87686 0.62803 0.63238 0.0
C1348 C 0.84312 0.62664 0.61102 0.0
H1349 H 0.88905 0.60317 0.62975 0.0
C1350 C 0.87662 0.61003 0.62414 0.0
C1351 C 0.85993 0.60024 0.60944 0.0
C1352 C 0.84329 0.60869 0.60292 0.0
C1353 C 0.82489 0.63486 0.60423 0.0
H1354 H 0.83053 0.60141 0.59133 0.0
C1355 C 0.82957 0.65565 0.59926 0.0
C1356 C 0.81224 0.66315 0.59198 0.0
C1357 C 0.80264 0.62167 0.60218 0.0
H1358 H 0.79855 0.60564 0.60609 0.0
C1359 C 0.78542 0.62905 0.5952 0.0
H1360 H 0.84672 0.66583 0.60047 0.0
C1361 C 0.79013 0.64962 0.59008 0.0
H1362 H 0.77641 0.65498 0.58489 0.0
H1363 H 0.76833 0.61879 0.59376 0.0
H1364 H 0.5972 0.38123 0.62161 0.0
C1365 C 0.61481 0.38622 0.6268 0.0
C1366 C 0.62821 0.3754 0.62164 0.0
C1367 C 0.62434 0.40429 0.63741 0.0
H1368 H 0.66159 0.37417 0.62392 0.0
C1369 C 0.65114 0.38241 0.62788 0.0
C1370 C 0.66102 0.40052 0.63818 0.0
C1371 C 0.64752 0.41137 0.64296 0.0
C1372 C 0.61038 0.41654 0.64144 0.0
H1373 H 0.65512 0.4254 0.65091 0.0
C1374 C 0.58912 0.40715 0.64803 0.0
C1375 C 0.57579 0.41882 0.65139 0.0
C1376 C 0.61814 0.43777 0.63825 0.0
H1377 H 0.63424 0.4454 0.63289 0.0
C1378 C 0.60502 0.44938 0.64157 0.0
H1379 H 0.58296 0.3908 0.65052 0.0
C1380 C 0.58401 0.44003 0.64808 0.0
H1381 H 0.57432 0.44946 0.65081 0.0
H1382 H 0.61117 0.46571 0.63906 0.0
H1383 H 0.43292 0.68474 0.92339 0.0
C1384 C 0.42006 0.67151 0.92869 0.0
C1385 C 0.41189 0.65365 0.91773 0.0
C1386 C 0.41106 0.67264 0.94613 0.0
H1387 H 0.38914 0.62272 0.91669 0.0
C1388 C 0.39502 0.63678 0.92471 0.0
C1389 C 0.38615 0.63761 0.94226 0.0
C1390 C 0.39413 0.65565 0.95286 0.0
C1391 C 0.41912 0.69167 0.95723 0.0
H1392 H 0.38725 0.65648 0.96637 0.0
C1393 C 0.40426 0.70176 0.96048 0.0
C1394 C 0.41174 0.71997 0.971 0.0
C1395 C 0.44164 0.69983 0.96452 0.0
H1396 H 0.45333 0.69226 0.96212 0.0
C1397 C 0.44915 0.71765 0.97525 0.0
H1398 H 0.38704 0.69567 0.95423 0.0
C1399 C 0.43436 0.72764 0.97855 0.0
H1400 H 0.44066 0.74133 0.98709 0.0
H1401 H 0.4665 0.72375 0.98106 0.0
H1402 H 0.0239 0.31621 0.37386 0.0
C1403 C 0.04109 0.32603 0.37673 0.0
C1404 C 0.05065 0.3414 0.36301 0.0
C1405 C 0.05346 0.32333 0.39434 0.0
H1406 H 0.08044 0.36609 0.35684 0.0
C1407 C 0.07284 0.35414 0.36725 0.0
C1408 C 0.08522 0.35201 0.38503 0.0
C1409 C 0.07551 0.33643 0.39849 0.0
C1410 C 0.04296 0.30693 0.40841 0.0
H1411 H 0.08496 0.33466 0.41225 0.0
C1412 C 0.05206 0.29141 0.41379 0.0
C1413 C 0.041 0.27486 0.42587 0.0
C1414 C 0.02301 0.30609 0.41559 0.0
H1415 H 0.01572 0.31788 0.41157 0.0
C1416 C 0.01229 0.29002 0.42797 0.0
H1417 H 0.06715 0.29178 0.40783 0.0
C1418 C 0.02113 0.27445 0.43303 0.0
H1419 H 0.01242 0.26208 0.44258 0.0
H1420 H -0.00305 0.28951 0.43351 0.0
H1421 H 0.39717 0.69078 0.37763 0.0
C1422 C 0.3899 0.67435 0.379 0.0
C1423 C 0.37607 0.66564 0.39389 0.0
C1424 C 0.39505 0.6619 0.36631 0.0
H1425 H 0.35552 0.63765 0.40665 0.0
C1426 C 0.36691 0.64438 0.39563 0.0
C1427 C 0.37151 0.63172 0.38287 0.0
C1428 C 0.38579 0.64059 0.36828 0.0
C1429 C 0.41014 0.67128 0.35102 0.0
H1430 H 0.38955 0.63098 0.35837 0.0
C1431 C 0.42972 0.66657 0.3503 0.0
C1432 C 0.44463 0.6762 0.33629 0.0
C1433 C 0.40534 0.68548 0.33745 0.0
H1434 H 0.39035 0.68932 0.33779 0.0
C1435 C 0.4198 0.69475 0.32328 0.0
H1436 H 0.43347 0.65567 0.36084 0.0
C1437 C 0.43934 0.69022 0.3227 0.0
H1438 H 0.45056 0.69808 0.31191 0.0
H1439 H 0.41598 0.70568 0.31286 0.0
C1440 C 0.11023 0.41455 0.11573 0.0
C1441 C 0.13139 0.42119 0.10877 0.0
H1442 H 0.08243 0.38901 0.12375 0.0
C1443 C 0.14137 0.40673 0.10561 0.0
H1444 H 0.10211 0.42539 0.11815 0.0
C1445 C 0.13006 0.38598 0.10862 0.0
C1446 C 0.10861 0.37929 0.11497 0.0
H1447 H 0.15735 0.4113 0.09971 0.0
H1448 H 0.13781 0.37509 0.10542 0.0
C1449 C 0.09903 0.39378 0.119 0.0
C1450 C 0.79366 0.95445 0.38929 0.0
C1451 C 0.80572 0.96821 0.404 0.0
H1452 H 0.78663 0.92511 0.37722 0.0
C1453 C 0.82213 0.96342 0.4168 0.0
H1454 H 0.78164 0.95808 0.37863 0.0
C1455 C 0.82544 0.94475 0.4157 0.0
C1456 C 0.81246 0.93044 0.40171 0.0
H1457 H 0.83193 0.97384 0.42813 0.0
H1458 H 0.83789 0.94135 0.42607 0.0
C1459 C 0.7969 0.93573 0.38821 0.0
C1460 C 0.28415 0.56816 0.60653 0.0
C1461 C 0.2959 0.55607 0.61634 0.0
H1462 H 0.28267 0.59822 0.60086 0.0
C1463 C 0.31543 0.56547 0.62865 0.0
H1464 H 0.26945 0.56147 0.59647 0.0
C1465 C 0.32309 0.58655 0.63107 0.0
C1466 C 0.31156 0.5987 0.62097 0.0
H1467 H 0.3249 0.55652 0.63627 0.0
H1468 H 0.33842 0.59343 0.64038 0.0
C1469 C 0.29191 0.58925 0.6088 0.0
C1470 C 0.65747 0.06498 0.87497 0.0
C1471 C 0.65718 0.04924 0.88882 0.0
H1472 H 0.64099 0.08519 0.86177 0.0
C1473 C 0.63917 0.04172 0.90028 0.0
H1474 H 0.67126 0.07127 0.86608 0.0
C1475 C 0.62145 0.0494 0.89749 0.0
C1476 C 0.62156 0.06495 0.88337 0.0
H1477 H 0.63844 0.02951 0.91101 0.0
H1478 H 0.60744 0.04276 0.90605 0.0
C1479 C 0.64 0.07286 0.8724 0.0
C1480 C 0.20726 0.52844 0.39326 0.0
C1481 C 0.20888 0.51111 0.40402 0.0
H1482 H 0.18841 0.54837 0.38568 0.0
C1483 C 0.19181 0.50041 0.41574 0.0
H1484 H 0.22023 0.53714 0.38422 0.0
C1485 C 0.17337 0.50675 0.41643 0.0
C1486 C 0.1717 0.52402 0.40552 0.0
H1487 H 0.19292 0.48749 0.42478 0.0
H1488 H 0.1604 0.49808 0.42545 0.0
C1489 C 0.18892 0.53479 0.39397 0.0
C1490 C 0.6289 0.93171 0.62741 0.0
C1491 C 0.6203 0.93873 0.60969 0.0
H1492 H 0.62781 0.90594 0.64659 0.0
C1493 C 0.60238 0.92503 0.59838 0.0
H1494 H 0.64218 0.94203 0.63677 0.0
C1495 C 0.59407 0.90453 0.60404 0.0
C1496 C 0.60333 0.89726 0.62127 0.0
H1497 H 0.59527 0.92998 0.5847 0.0
H1498 H 0.58064 0.89423 0.59472 0.0
C1499 C 0.62044 0.91113 0.63319 0.0
C1500 C 0.28514 0.45975 0.92571 0.0
C1501 C 0.29649 0.46832 0.94354 0.0
H1502 H 0.27894 0.43632 0.90506 0.0
C1503 C 0.31253 0.46052 0.95331 0.0
H1504 H 0.27367 0.46607 0.91717 0.0
C1505 C 0.31644 0.44399 0.94586 0.0
C1506 C 0.30427 0.4347 0.92851 0.0
H1507 H 0.32189 0.467 0.96691 0.0
H1508 H 0.32901 0.4385 0.95378 0.0
C1509 C 0.28872 0.44297 0.91843 0.0
C1510 C 0.78974 0.06442 0.10588 0.0
C1511 C 0.79976 0.05126 0.11619 0.0
H1512 H 0.79237 0.0953 0.09813 0.0
C1513 C 0.82049 0.05959 0.12729 0.0
H1514 H 0.7741 0.05844 0.09676 0.0
C1515 C 0.83097 0.08073 0.12809 0.0
C1516 C 0.82113 0.09387 0.11744 0.0
H1517 H 0.82863 0.04975 0.13528 0.0
H1518 H 0.84707 0.08678 0.13654 0.0
C1519 C 0.80034 0.08551 0.10645 0.0
C1520 C 0.13279 0.13437 0.43102 0.0
C1521 C 0.12168 0.14612 0.43857 0.0
H1522 H 0.14408 0.12595 0.40576 0.0
C1523 C 0.11471 0.15979 0.42579 0.0
H1524 H 0.13832 0.12357 0.44038 0.0
C1525 C 0.11854 0.16155 0.40602 0.0
C1526 C 0.1289 0.14926 0.3983 0.0
H1527 H 0.10546 0.16857 0.43066 0.0
H1528 H 0.11293 0.17232 0.39672 0.0
C1529 C 0.13629 0.13586 0.41115 0.0
C1530 C 0.04923 0.8291 0.69558 0.0
C1531 C 0.03497 0.84012 0.68865 0.0
H1532 H 0.08211 0.82719 0.69656 0.0
C1533 C 0.0421 0.8559 0.67464 0.0
H1534 H 0.04418 0.81676 0.70628 0.0
C1535 C 0.06365 0.86169 0.66899 0.0
C1536 C 0.07856 0.85185 0.67723 0.0
H1537 H 0.03144 0.8645 0.66876 0.0
H1538 H 0.06913 0.87466 0.65903 0.0
C1539 C 0.07089 0.83494 0.68991 0.0
C1540 C 0.31671 0.81603 0.90571 0.0
C1541 C 0.31197 0.8258 0.92108 0.0
H1542 H 0.32353 0.8177 0.87574 0.0
C1543 C 0.30885 0.84473 0.91718 0.0
H1544 H 0.31902 0.80136 0.90812 0.0
C1545 C 0.31154 0.85412 0.89859 0.0
C1546 C 0.31741 0.84481 0.88353 0.0
H1547 H 0.30511 0.85265 0.92867 0.0
H1548 H 0.31002 0.86913 0.89629 0.0
C1549 C 0.31939 0.82541 0.88715 0.0
C1550 C 0.41716 0.15377 0.18726 0.0
C1551 C 0.43838 0.15231 0.18618 0.0
H1552 H 0.38526 0.15143 0.17197 0.0
C1553 C 0.44446 0.14964 0.16777 0.0
H1554 H 0.41197 0.15592 0.2012 0.0
C1555 C 0.42923 0.14726 0.15104 0.0
C1556 C 0.40755 0.14743 0.15231 0.0
H1557 H 0.46075 0.1487 0.16634 0.0
H1558 H 0.43419 0.14458 0.13717 0.0
C1559 C 0.40189 0.15135 0.17048 0.0
C1560 C 0.09965 0.80784 0.09276 0.0
C1561 C 0.11663 0.80273 0.08554 0.0
H1562 H 0.0904 0.83098 0.10479 0.0
C1563 C 0.13718 0.81787 0.0833 0.0
H1564 H 0.08367 0.79626 0.09465 0.0
C1565 C 0.14079 0.8379 0.08825 0.0
C1566 C 0.12425 0.84312 0.09638 0.0
H1567 H 0.15038 0.81426 0.07748 0.0
H1568 H 0.15664 0.84923 0.08557 0.0
C1569 C 0.10352 0.82778 0.09843 0.0
C1570 C 0.36692 0.88861 0.34801 0.0
C1571 C 0.38808 0.90373 0.35045 0.0
H1572 H 0.3372 0.87155 0.36119 0.0
C1573 C 0.39417 0.9152 0.36764 0.0
H1574 H 0.36164 0.87952 0.33496 0.0
C1575 C 0.37994 0.91075 0.38258 0.0
C1576 C 0.35958 0.89463 0.38062 0.0
H1577 H 0.41031 0.92701 0.36994 0.0
H1578 H 0.38543 0.91907 0.3961 0.0
C1579 C 0.3529 0.884 0.36301 0.0
C1580 C 0.40806 0.18793 0.61409 0.0
C1581 C 0.40173 0.20508 0.60855 0.0
H1582 H 0.40376 0.16178 0.63325 0.0
C1583 C 0.38679 0.20961 0.61946 0.0
H1584 H 0.41955 0.184 0.60602 0.0
C1585 C 0.37775 0.19684 0.63507 0.0
C1586 C 0.38356 0.17936 0.6402 0.0
H1587 H 0.38159 0.22271 0.61563 0.0
H1588 H 0.36599 0.20051 0.64301 0.0
C1589 C 0.39911 0.17524 0.62976 0.0
C1590 C 0.10199 0.16449 0.85154 0.0
C1591 C 0.11921 0.16606 0.83996 0.0
H1592 H 0.08835 0.15449 0.87889 0.0
C1593 C 0.13545 0.15721 0.84698 0.0
H1594 H 0.08966 0.17168 0.8469 0.0
C1595 C 0.13488 0.14755 0.8655 0.0
C1596 C 0.11821 0.1468 0.87743 0.0
H1597 H 0.14895 0.15824 0.83836 0.0
H1598 H 0.14813 0.14162 0.8709 0.0
C1599 C 0.10145 0.15489 0.87003 0.0
C1600 C 0.89912 0.3642 0.86133 0.0
C1601 C 0.89878 0.38006 0.8479 0.0
H1602 H 0.88713 0.34761 0.88707 0.0
C1603 C 0.88495 0.39146 0.85028 0.0
H1604 H 0.91003 0.35548 0.8601 0.0
C1605 C 0.87094 0.38641 0.86547 0.0
C1606 C 0.87097 0.37018 0.87876 0.0
H1607 H 0.88449 0.40384 0.84009 0.0
H1608 H 0.8598 0.39493 0.86653 0.0
C1609 C 0.88576 0.35958 0.87673 0.0
C1610 C 0.91229 0.68808 0.13233 0.0
C1611 C 0.92221 0.68453 0.1163 0.0
H1612 H 0.89818 0.67625 0.15923 0.0
C1613 C 0.92628 0.666 0.11581 0.0
H1614 H 0.90899 0.7022 0.13323 0.0
C1615 C 0.92004 0.65115 0.13062 0.0
C1616 C 0.90956 0.65442 0.14638 0.0
H1617 H 0.9339 0.6627 0.10372 0.0
H1618 H 0.92273 0.6368 0.12932 0.0
C1619 C 0.90601 0.67317 0.14719 0.0
C1620 C 0.60329 0.66218 0.35488 0.0
C1621 C 0.6183 0.6589 0.3432 0.0
H1622 H 0.58885 0.65581 0.38213 0.0
C1623 C 0.62971 0.64539 0.35013 0.0
H1624 H 0.59488 0.67303 0.35035 0.0
C1625 C 0.62647 0.63567 0.36857 0.0
C1626 C 0.61207 0.6396 0.38051 0.0
H1627 H 0.64152 0.64272 0.34148 0.0
H1628 H 0.63591 0.62578 0.37383 0.0
C1629 C 0.60017 0.6526 0.37328 0.0
C1630 C 0.83185 0.34084 0.41479 0.0
C1631 C 0.83502 0.32191 0.41846 0.0
H1632 H 0.82783 0.36321 0.39319 0.0
C1633 C 0.83503 0.31032 0.40244 0.0
H1634 H 0.83172 0.35015 0.4268 0.0
C1635 C 0.83263 0.31772 0.38325 0.0
C1636 C 0.83027 0.33696 0.37956 0.0
H1637 H 0.8372 0.29558 0.4047 0.0
H1638 H 0.83283 0.30842 0.37126 0.0
C1639 C 0.8295 0.34829 0.39554 0.0
C1640 C 0.65777 0.6879 0.92167 0.0
C1641 C 0.6648 0.67842 0.93858 0.0
H1642 H 0.64361 0.6847 0.8917 0.0
C1643 C 0.66364 0.658 0.93768 0.0
H1644 H 0.65937 0.70381 0.92151 0.0
C1645 C 0.65498 0.64713 0.92044 0.0
C1646 C 0.64728 0.65644 0.90375 0.0
H1647 H 0.66908 0.65028 0.95042 0.0
H1648 H 0.65377 0.63128 0.92034 0.0
C1649 C 0.64898 0.677 0.90448 0.0
C1650 C 0.85899 0.58655 0.89307 0.0
C1651 C 0.84673 0.57436 0.90769 0.0
H1652 H 0.88721 0.61223 0.88655 0.0
C1653 C 0.85501 0.57793 0.92746 0.0
H1654 H 0.85288 0.58421 0.87771 0.0
C1655 C 0.875 0.59358 0.93256 0.0
C1656 C 0.88693 0.60645 0.91803 0.0
H1657 H 0.84602 0.56859 0.93902 0.0
H1658 H 0.88102 0.59558 0.94796 0.0
C1659 C 0.87874 0.60257 0.89818 0.0
C1660 C 0.18799 0.07942 0.70939 0.0
C1661 C 0.18346 0.06498 0.69479 0.0
H1662 H 0.19062 0.10957 0.71625 0.0
C1663 C 0.17612 0.06967 0.67558 0.0
H1664 H 0.19387 0.07624 0.72428 0.0
C1665 C 0.17389 0.08873 0.67095 0.0
C1666 C 0.17906 0.10349 0.68545 0.0
H1667 H 0.17211 0.0586 0.66414 0.0
H1668 H 0.16811 0.09189 0.65603 0.0
C1669 C 0.18603 0.09851 0.70475 0.0
C1670 C 0.63362 0.3769 0.39148 0.0
C1671 C 0.62949 0.39551 0.38922 0.0
H1672 H 0.62037 0.34453 0.38797 0.0
C1673 C 0.60782 0.39531 0.3825 0.0
H1674 H 0.6501 0.3765 0.39669 0.0
C1675 C 0.59089 0.37705 0.37749 0.0
C1676 C 0.59518 0.35854 0.37922 0.0
H1677 H 0.60399 0.40932 0.38065 0.0
H1678 H 0.57446 0.37742 0.372 0.0
C1679 C 0.61659 0.35857 0.38661 0.0
C1680 C 0.32072 0.9394 0.11524 0.0
C1681 C 0.34085 0.9554 0.1133 0.0
H1682 H 0.30453 0.91056 0.12898 0.0
C1683 C 0.36021 0.95504 0.12506 0.0
H1684 H 0.30568 0.93891 0.10599 0.0
C1685 C 0.35961 0.93873 0.13812 0.0
C1686 C 0.33968 0.92229 0.13947 0.0
H1687 H 0.37597 0.96716 0.12381 0.0
H1688 H 0.37499 0.9385 0.14642 0.0
C1689 C 0.32013 0.92301 0.12821 0.0
C1690 C 0.86623 0.43969 0.632 0.0
C1691 C 0.84581 0.43966 0.62196 0.0
H1692 H 0.88351 0.42312 0.65091 0.0
C1693 C 0.82642 0.42301 0.6246 0.0
H1694 H 0.88142 0.45233 0.63014 0.0
C1695 C 0.82767 0.4062 0.63627 0.0
C1696 C 0.84826 0.40592 0.64571 0.0
H1697 H 0.81056 0.42238 0.6167 0.0
H1698 H 0.81269 0.39312 0.63739 0.0
C1699 C 0.86741 0.42306 0.64394 0.0
C1700 C 0.3591 0.09649 0.43046 0.0
C1701 C 0.35113 0.09206 0.41073 0.0
H1702 H 0.38593 0.11346 0.45078 0.0
C1703 C 0.36491 0.10187 0.39605 0.0
H1704 H 0.34896 0.08905 0.44213 0.0
C1705 C 0.38593 0.11629 0.40096 0.0
C1706 C 0.39383 0.12103 0.42071 0.0
H1707 H 0.35917 0.09889 0.3807 0.0
H1708 H 0.39571 0.12413 0.3892 0.0
C1709 C 0.38026 0.11065 0.4354 0.0
C1710 C 0.66706 0.58123 0.14163 0.0
C1711 C 0.67635 0.58497 0.1612 0.0
H1712 H 0.64797 0.5898 0.11706 0.0
C1713 C 0.67129 0.59923 0.17167 0.0
H1714 H 0.67041 0.57017 0.13322 0.0
C1715 C 0.6587 0.61065 0.16234 0.0
C1716 C 0.65069 0.60794 0.14237 0.0
H1717 H 0.67813 0.60246 0.18678 0.0
H1718 H 0.65647 0.62248 0.17051 0.0
C1719 C 0.65429 0.59255 0.13234 0.0
C1720 C 0.12226 0.90215 0.85497 0.0
C1721 C 0.13061 0.90963 0.87383 0.0
H1722 H 0.09851 0.87869 0.83763 0.0
C1723 C 0.12028 0.89896 0.89006 0.0
H1724 H 0.13012 0.91 0.84222 0.0
C1725 C 0.1015 0.88141 0.88744 0.0
C1726 C 0.093 0.87377 0.86853 0.0
H1727 H 0.12632 0.90454 0.90476 0.0
H1728 H 0.09344 0.87412 0.90026 0.0
C1729 C 0.10393 0.88427 0.85237 0.0
C1730 C 0.81593 0.83272 0.61097 0.0
C1731 C 0.81866 0.84091 0.59181 0.0
H1732 H 0.81939 0.83878 0.64157 0.0
C1733 C 0.82478 0.86214 0.58883 0.0
H1734 H 0.811 0.81644 0.6138 0.0
C1735 C 0.82947 0.87495 0.60485 0.0
C1736 C 0.82821 0.86671 0.62406 0.0
H1737 H 0.82693 0.86893 0.57426 0.0
H1738 H 0.83531 0.8913 0.60231 0.0
C1739 C 0.82071 0.84549 0.6269 0.0
C1740 C 0.96255 0.14259 0.34473 0.0
C1741 C 0.96928 0.16035 0.33293 0.0
H1742 H 0.94914 0.12891 0.37131 0.0
C1743 C 0.96823 0.17857 0.3397 0.0
H1744 H 0.96341 0.12836 0.34007 0.0
C1745 C 0.95984 0.17884 0.35757 0.0
C1746 C 0.9524 0.16091 0.36906 0.0
H1747 H 0.97334 0.19254 0.33097 0.0
H1748 H 0.95843 0.19293 0.36204 0.0
C1749 C 0.9543 0.14289 0.36262 0.0
C1750 C 0.60101 0.17915 0.09692 0.0
C1751 C 0.61941 0.18265 0.08633 0.0
H1752 H 0.57961 0.15962 0.11675 0.0
C1753 C 0.6307 0.16849 0.08783 0.0
H1754 H 0.5919 0.18979 0.09576 0.0
C1755 C 0.62438 0.15156 0.10066 0.0
C1756 C 0.60627 0.14827 0.11182 0.0
H1757 H 0.64504 0.17102 0.07979 0.0
H1758 H 0.63418 0.14151 0.10229 0.0
C1759 C 0.59422 0.16196 0.10918 0.0
C1760 C 0.53692 0.8837 0.83228 0.0
C1761 C 0.52336 0.86448 0.82544 0.0
H1762 H 0.56327 0.90056 0.85287 0.0
C1763 C 0.52738 0.84704 0.83393 0.0
H1764 H 0.53413 0.89743 0.82618 0.0
C1765 C 0.54459 0.84884 0.84904 0.0
C1766 C 0.55795 0.86811 0.85613 0.0
H1767 H 0.51726 0.83201 0.82887 0.0
H1768 H 0.5474 0.83514 0.85514 0.0
C1769 C 0.55382 0.88549 0.84752 0.0
C1770 C 0.87247 0.16424 0.92302 0.0
C1771 C 0.86608 0.18158 0.91877 0.0
H1772 H 0.87835 0.13889 0.9115 0.0
C1773 C 0.86403 0.18829 0.8991 0.0
H1774 H 0.87432 0.15866 0.93799 0.0
C1775 C 0.86678 0.17706 0.88395 0.0
C1776 C 0.87141 0.15891 0.88826 0.0
H1777 H 0.85924 0.20162 0.89533 0.0
H1778 H 0.86378 0.1818 0.86885 0.0
C1779 C 0.8749 0.15293 0.9079 0.0
C1780 C 0.61765 0.17649 0.69612 0.0
C1781 C 0.60547 0.15634 0.7014 0.0
H1782 H 0.6376 0.19634 0.67521 0.0
C1783 C 0.60614 0.14036 0.69024 0.0
H1784 H 0.61756 0.18917 0.7044 0.0
C1785 C 0.6177 0.14451 0.67354 0.0
C1786 C 0.62864 0.16472 0.66759 0.0
H1787 H 0.597 0.12466 0.69394 0.0
H1788 H 0.61712 0.13195 0.66472 0.0
C1789 C 0.62902 0.18063 0.67933 0.0
C1790 C 0.59604 0.7802 0.44132 0.0
C1791 C 0.60037 0.78779 0.46044 0.0
H1792 H 0.59473 0.78731 0.4104 0.0
C1793 C 0.60626 0.80889 0.46281 0.0
H1794 H 0.59142 0.76403 0.43899 0.0
C1795 C 0.60817 0.82211 0.44652 0.0
C1796 C 0.60418 0.81461 0.42743 0.0
H1797 H 0.60961 0.81529 0.47729 0.0
H1798 H 0.61273 0.83828 0.44889 0.0
C1799 C 0.59784 0.79349 0.42496 0.0
C1800 C 0.92342 0.8741 0.18372 0.0
C1801 C 0.9272 0.88864 0.1981 0.0
H1802 H 0.91074 0.86518 0.15433 0.0
C1803 C 0.92307 0.90686 0.19295 0.0
H1804 H 0.92613 0.85976 0.18746 0.0
C1805 C 0.91494 0.91036 0.17374 0.0
C1806 C 0.90994 0.89536 0.15944 0.0
H1807 H 0.92598 0.91833 0.20383 0.0
H1808 H 0.91226 0.92473 0.17027 0.0
C1809 C 0.91466 0.8773 0.16466 0.0
C1810 C 0.13167 0.60903 0.22998 0.0
C1811 C 0.12827 0.62384 0.24101 0.0
H1812 H 0.14588 0.60303 0.20527 0.0
C1813 C 0.13948 0.64452 0.23684 0.0
H1814 H 0.12332 0.59296 0.23282 0.0
C1815 C 0.15254 0.65028 0.22113 0.0
C1816 C 0.15462 0.63549 0.20921 0.0
H1817 H 0.13742 0.65633 0.24517 0.0
H1818 H 0.16038 0.66635 0.21789 0.0
C1819 C 0.14469 0.6148 0.21421 0.0
C1820 C 0.07826 0.28791 0.93502 0.0
C1821 C 0.09673 0.28393 0.94538 0.0
H1822 H 0.06691 0.30616 0.9128 0.0
C1823 C 0.11813 0.29439 0.93966 0.0
H1824 H 0.06153 0.28003 0.93898 0.0
C1825 C 0.12115 0.30933 0.92475 0.0
C1826 C 0.10284 0.31402 0.9151 0.0
H1827 H 0.1327 0.29163 0.94721 0.0
H1828 H 0.13793 0.31766 0.92113 0.0
C1829 C 0.08129 0.30276 0.91996 0.0
C1830 C 0.41684 0.37241 0.69382 0.0
C1831 C 0.41654 0.38339 0.71015 0.0
H1832 H 0.41189 0.37015 0.66266 0.0
C1833 C 0.41226 0.40182 0.7072 0.0
H1834 H 0.41967 0.35794 0.69576 0.0
C1835 C 0.4085 0.40925 0.68819 0.0
C1836 C 0.40819 0.39807 0.67168 0.0
H1837 H 0.41204 0.41058 0.71962 0.0
H1838 H 0.40591 0.42382 0.68654 0.0
C1839 C 0.41246 0.37952 0.67482 0.0
C1840 C 0.11921 0.65932 0.57667 0.0
C1841 C 0.10626 0.67187 0.57143 0.0
H1842 H 0.12414 0.6355 0.59578 0.0
C1843 C 0.08625 0.66797 0.57983 0.0
H1844 H 0.1349 0.66226 0.57058 0.0
C1845 C 0.07973 0.65235 0.59387 0.0
C1846 C 0.0935 0.64071 0.60038 0.0
H1847 H 0.07593 0.67741 0.57592 0.0
H1848 H 0.06419 0.64984 0.60004 0.0
C1849 C 0.113 0.64399 0.59114 0.0
C1850 C 0.37439 0.35593 0.08573 0.0
C1851 C 0.35267 0.34572 0.07719 0.0
H1852 H 0.39469 0.37362 0.10962 0.0
C1853 C 0.33443 0.34744 0.08569 0.0
H1854 H 0.38883 0.35516 0.07945 0.0
C1855 C 0.33784 0.35804 0.10311 0.0
C1856 C 0.35953 0.36702 0.11229 0.0
H1857 H 0.31749 0.33981 0.07942 0.0
H1858 H 0.3235 0.35827 0.10992 0.0
C1859 C 0.37777 0.36646 0.10306 0.0
C1860 C 0.58017 0.38751 0.18508 0.0
C1861 C 0.57317 0.3699 0.19704 0.0
H1862 H 0.60631 0.40791 0.16965 0.0
C1863 C 0.58788 0.35898 0.20237 0.0
H1864 H 0.56912 0.39611 0.18047 0.0
C1865 C 0.60946 0.36599 0.19648 0.0
C1866 C 0.61669 0.38393 0.18492 0.0
H1867 H 0.58297 0.34536 0.21161 0.0
H1868 H 0.62069 0.35769 0.20153 0.0
C1869 C 0.60157 0.39434 0.17896 0.0
C1870 C 0.90429 0.648 0.68249 0.0
C1871 C 0.92628 0.64841 0.68155 0.0
H1872 H 0.87133 0.64128 0.66757 0.0
C1873 C 0.93234 0.64437 0.66359 0.0
H1874 H 0.89909 0.65113 0.69607 0.0
C1875 C 0.9165 0.63886 0.64733 0.0
C1876 C 0.89423 0.63725 0.6486 0.0
H1877 H 0.94917 0.64479 0.66223 0.0
H1878 H 0.92154 0.63521 0.63389 0.0
C1879 C 0.8884 0.64248 0.66615 0.0
C1880 C 0.62314 0.33912 0.58117 0.0
C1881 C 0.60244 0.32402 0.58343 0.0
H1882 H 0.64705 0.36728 0.59094 0.0
C1883 C 0.58982 0.32613 0.59812 0.0
H1884 H 0.63317 0.33814 0.56985 0.0
C1885 C 0.598 0.34285 0.61052 0.0
C1886 C 0.6189 0.35776 0.6084 0.0
H1887 H 0.57378 0.31475 0.60021 0.0
H1888 H 0.58816 0.3439 0.62197 0.0
C1889 C 0.63118 0.3558 0.59338 0.0
C1890 C 0.41382 0.64158 0.86505 0.0
C1891 C 0.43683 0.64899 0.86316 0.0
H1892 H 0.38796 0.63757 0.88358 0.0
C1893 C 0.45167 0.6583 0.87933 0.0
H1894 H 0.40189 0.63443 0.85289 0.0
C1895 C 0.44363 0.66006 0.897 0.0
C1896 C 0.42061 0.65248 0.89889 0.0
H1897 H 0.4695 0.66421 0.87835 0.0
H1898 H 0.45544 0.66705 0.90929 0.0
C1899 C 0.40582 0.6433 0.88268 0.0
C1900 C 0.00905 0.33107 0.31736 0.0
C1901 C 0.01131 0.3509 0.31018 0.0
H1902 H 0.02003 0.31248 0.33932 0.0
C1903 C 0.0269 0.36753 0.32021 0.0
H1904 H -0.00275 0.31793 0.30989 0.0
C1905 C 0.03964 0.36443 0.33729 0.0
C1906 C 0.03733 0.34461 0.3446 0.0
H1907 H 0.02891 0.383 0.31516 0.0
H1908 H 0.05095 0.37764 0.34498 0.0
C1909 C 0.022 0.32796 0.33432 0.0
C1910 C 0.35674 0.70532 0.4145 0.0
C1911 C 0.35729 0.69984 0.43459 0.0
H1912 H 0.36241 0.69881 0.38576 0.0
C1913 C 0.36558 0.68407 0.44119 0.0
H1914 H 0.35054 0.71746 0.40896 0.0
C1915 C 0.3723 0.67349 0.42799 0.0
C1916 C 0.37101 0.67844 0.40786 0.0
H1917 H 0.36647 0.67952 0.45656 0.0
H1918 H 0.37824 0.66119 0.43353 0.0
C1919 C 0.36362 0.69474 0.40124 0.0
C1920 C 0.07643 0.28191 0.06555 0.0
C1921 C 0.07313 0.29066 0.04693 0.0
H1922 H 0.08146 0.28582 0.09674 0.0
C1923 C 0.07167 0.31034 0.04574 0.0
H1924 H 0.07763 0.26677 0.06697 0.0
C1925 C 0.0738 0.32117 0.0627 0.0
C1926 C 0.07747 0.31262 0.08131 0.0
H1927 H 0.069 0.31753 0.03167 0.0
H1928 H 0.07247 0.33626 0.06121 0.0
C1929 C 0.07854 0.29278 0.08259 0.0
C1930 C 0.85462 0.8635 0.29311 0.0
C1931 C 0.8769 0.8732 0.30043 0.0
H1932 H 0.82041 0.85344 0.29855 0.0
C1933 C 0.88162 0.88054 0.31959 0.0
H1934 H 0.85052 0.85798 0.27826 0.0
C1935 C 0.86443 0.87725 0.3316 0.0
C1936 C 0.84203 0.86701 0.32452 0.0
H1937 H 0.89871 0.88801 0.3256 0.0
H1938 H 0.8689 0.88206 0.34666 0.0
C1939 C 0.83738 0.86076 0.30487 0.0
C1940 C 0.31886 0.67629 0.55575 0.0
C1941 C 0.33947 0.69135 0.55289 0.0
H1942 H 0.30014 0.65287 0.57487 0.0
C1943 C 0.35704 0.69479 0.56801 0.0
H1944 H 0.30501 0.67321 0.54436 0.0
C1945 C 0.35422 0.68318 0.58544 0.0
C1946 C 0.33382 0.66776 0.58809 0.0
H1947 H 0.37313 0.70625 0.56627 0.0
H1948 H 0.36822 0.68591 0.59665 0.0
C1949 C 0.31611 0.66453 0.57313 0.0
C1950 C 0.56361 0.08578 0.80165 0.0
C1951 C 0.56132 0.10505 0.79805 0.0
H1952 H 0.57052 0.0645 0.82312 0.0
C1953 C 0.56395 0.11765 0.814 0.0
H1954 H 0.56164 0.0757 0.78968 0.0
C1955 C 0.56882 0.11114 0.83314 0.0
C1956 C 0.57142 0.09201 0.83669 0.0
H1957 H 0.56221 0.13255 0.81172 0.0
H1958 H 0.57101 0.12126 0.84513 0.0
C1959 C 0.56874 0.07938 0.82077 0.0
C1960 C 0.11733 0.60528 0.48797 0.0
C1961 C 0.12105 0.60356 0.50853 0.0
H1962 H 0.11066 0.59031 0.46046 0.0
C1963 C 0.12161 0.58488 0.517 0.0
H1964 H 0.11679 0.61946 0.48096 0.0
C1965 C 0.11823 0.56823 0.50525 0.0
C1966 C 0.11415 0.56982 0.48472 0.0
H1967 H 0.12456 0.58303 0.53276 0.0
H1968 H 0.11891 0.5541 0.51229 0.0
C1969 C 0.11394 0.5886 0.4762 0.0
C1970 C 0.5305 0.87007 0.71838 0.0
C1971 C 0.51405 0.85576 0.72868 0.0
H1972 H 0.55722 0.87522 0.70043 0.0
C1973 C 0.51123 0.83498 0.72758 0.0
H1974 H 0.53313 0.8862 0.71895 0.0
C1975 C 0.52501 0.82871 0.71697 0.0
C1976 C 0.54193 0.84305 0.70718 0.0
H1977 H 0.49868 0.82355 0.73528 0.0
H1978 H 0.52252 0.81259 0.71656 0.0
C1979 C 0.54426 0.86378 0.70772 0.0
C1980 C 0.30122 0.33555 0.95978 0.0
C1981 C 0.32065 0.34007 0.97301 0.0
H1982 H 0.28396 0.34574 0.93476 0.0
C1983 C 0.33821 0.35843 0.97051 0.0
H1984 H 0.28746 0.32149 0.96133 0.0
C1985 C 0.336 0.37238 0.95558 0.0
C1986 C 0.31646 0.36798 0.94261 0.0
H1987 H 0.35332 0.36236 0.98054 0.0
H1988 H 0.34941 0.38677 0.95434 0.0
C1989 C 0.29925 0.34932 0.94456 0.0
C1990 C 0.92748 0.14882 0.21346 0.0
C1991 C 0.92287 0.14911 0.23296 0.0
H1992 H 0.91765 0.15328 0.18298 0.0
C1993 C 0.90367 0.15331 0.23648 0.0
H1994 H 0.9421 0.14558 0.21026 0.0
C1995 C 0.88979 0.15772 0.22094 0.0
C1996 C 0.89466 0.15794 0.20149 0.0
H1997 H 0.89952 0.15355 0.2513 0.0
H1998 H 0.87528 0.16112 0.22418 0.0
C1999 C 0.91344 0.15311 0.19785 0.0
C2000 C 0.06682 0.14639 0.30327 0.0
C2001 C 0.06303 0.16497 0.30446 0.0
H2002 H 0.08658 0.12785 0.31445 0.0
C2003 C 0.07697 0.17948 0.31782 0.0
H2004 H 0.05633 0.13492 0.29311 0.0
C2005 C 0.09383 0.17524 0.33022 0.0
C2006 C 0.09739 0.15659 0.32923 0.0
H2007 H 0.0744 0.19387 0.31918 0.0
H2008 H 0.10404 0.18649 0.34071 0.0
C2009 C 0.08406 0.14233 0.31542 0.0
C2010 C 0.13756 0.79946 0.59686 0.0
C2011 C 0.14583 0.78316 0.59783 0.0
H2012 H 0.13674 0.82566 0.61091 0.0
C2013 C 0.15879 0.78011 0.61489 0.0
H2014 H 0.12754 0.80217 0.58383 0.0
C2015 C 0.16344 0.7931 0.63068 0.0
C2016 C 0.15579 0.80986 0.62963 0.0
H2017 H 0.16508 0.76746 0.61618 0.0
H2018 H 0.173 0.78986 0.64375 0.0
C2019 C 0.14268 0.81281 0.61249 0.0
C2020 C 0.38864 0.86017 0.80536 0.0
C2021 C 0.40817 0.86277 0.81818 0.0
H2022 H 0.35468 0.85973 0.80209 0.0
C2023 C 0.40853 0.86804 0.8377 0.0
H2024 H 0.38786 0.85619 0.79022 0.0
C2025 C 0.38962 0.86995 0.84445 0.0
C2026 C 0.36992 0.86681 0.83182 0.0
H2027 H 0.42331 0.87026 0.84796 0.0
H2028 H 0.39031 0.87366 0.85966 0.0
C2029 C 0.36972 0.8623 0.8121 0.0
C2030 C 0.35011 0.22844 0.06581 0.0
C2031 C 0.34072 0.24195 0.07264 0.0
H2032 H 0.35348 0.19882 0.06882 0.0
C2033 C 0.32744 0.23565 0.08833 0.0
H2034 H 0.36049 0.23286 0.0538 0.0
C2035 C 0.32345 0.21623 0.09689 0.0
C2036 C 0.33277 0.2027 0.09006 0.0
H2037 H 0.32 0.24569 0.094 0.0
H2038 H 0.31314 0.21184 0.10895 0.0
C2039 C 0.34626 0.20902 0.07451 0.0
C2040 C 0.02971 0.88328 0.15733 0.0
C2041 C 0.00837 0.88338 0.14971 0.0
H2042 H 0.06372 0.88955 0.15203 0.0
C2043 C 0.0049 0.88877 0.12982 0.0
H2044 H 0.03297 0.87918 0.17258 0.0
C2045 C 0.02252 0.89462 0.11801 0.0
C2046 C 0.04403 0.89518 0.1258 0.0
H2047 H 0.98865 0.88888 0.12342 0.0
H2048 H 0.01934 0.89892 0.1028 0.0
C2049 C 0.04733 0.88911 0.14551 0.0
C2050 C 0.30793 0.80428 0.43873 0.0
C2051 C 0.32767 0.7997 0.44392 0.0
H2052 H 0.29349 0.8269 0.42743 0.0
C2053 C 0.3483 0.81485 0.44149 0.0
H2054 H 0.2918 0.79292 0.44051 0.0
C2055 C 0.3492 0.83406 0.43377 0.0
C2056 C 0.32952 0.83866 0.42862 0.0
H2057 H 0.36379 0.8118 0.44532 0.0
H2058 H 0.36534 0.84542 0.43197 0.0
C2059 C 0.30887 0.82369 0.43133 0.0
C2060 C 0.48054 0.14512 0.7433 0.0
C2061 C 0.49377 0.15639 0.7288 0.0
H2062 H 0.44753 0.12877 0.75088 0.0
C2063 C 0.48326 0.1608 0.71079 0.0
H2064 H 0.48814 0.14158 0.75738 0.0
C2065 C 0.46007 0.15332 0.70701 0.0
C2066 C 0.44682 0.14133 0.72118 0.0
H2067 H 0.49296 0.16946 0.6993 0.0
H2068 H 0.45262 0.15621 0.69263 0.0
C2069 C 0.45729 0.13769 0.73954 0.0
C2070 C 0.09435 0.17833 0.95834 0.0
C2071 C 0.11223 0.18916 0.97168 0.0
H2072 H 0.083 0.15649 0.93549 0.0
C2073 C 0.13215 0.18455 0.9734 0.0
H2074 H 0.0788 0.18151 0.95664 0.0
C2075 C 0.13439 0.16996 0.96143 0.0
C2076 C 0.11689 0.16003 0.94739 0.0
H2077 H 0.14619 0.1926 0.98358 0.0
H2078 H 0.15011 0.16713 0.9625 0.0
C2079 C 0.09673 0.16405 0.94621 0.0
C2080 C 0.38643 0.07584 0.08637 0.0
C2081 C 0.36554 0.06054 0.08294 0.0
H2082 H 0.40453 0.10566 0.09712 0.0
C2083 C 0.34639 0.06415 0.08751 0.0
H2084 H 0.40149 0.0736 0.08288 0.0
C2085 C 0.34815 0.08247 0.09582 0.0
C2086 C 0.36911 0.0976 0.09968 0.0
H2087 H 0.33005 0.05264 0.08507 0.0
H2088 H 0.33317 0.08452 0.09977 0.0
C2089 C 0.38818 0.09419 0.0946 0.0
C2090 C 0.81393 0.46957 0.92486 0.0
C2091 C 0.80359 0.46837 0.90559 0.0
H2092 H 0.82866 0.45527 0.94817 0.0
C2093 C 0.79957 0.45064 0.89506 0.0
H2094 H 0.81759 0.48321 0.93321 0.0
C2095 C 0.80519 0.43415 0.90389 0.0
C2096 C 0.81549 0.43525 0.92331 0.0
H2097 H 0.79156 0.44932 0.88016 0.0
H2098 H 0.80101 0.42044 0.89559 0.0
C2099 C 0.82012 0.4534 0.93348 0.0
C2100 C 0.81713 0.62177 0.19379 0.0
C2101 C 0.80284 0.6014 0.19379 0.0
H2102 H 0.84978 0.64253 0.18958 0.0
C2103 C 0.81109 0.58606 0.1895 0.0
H2104 H 0.81129 0.63395 0.19709 0.0
C2105 C 0.83302 0.59101 0.18495 0.0
C2106 C 0.8473 0.6114 0.18476 0.0
H2107 H 0.80046 0.57024 0.18922 0.0
H2108 H 0.83861 0.57885 0.18114 0.0
C2109 C 0.83914 0.62672 0.18936 0.0
C2110 C 0.64202 0.52388 0.41275 0.0
C2111 C 0.62815 0.50583 0.40357 0.0
H2112 H 0.64376 0.55135 0.42643 0.0
C2113 C 0.60511 0.50244 0.40007 0.0
H2114 H 0.65984 0.52698 0.41558 0.0
C2115 C 0.596 0.51623 0.40636 0.0
C2116 C 0.60969 0.53388 0.41613 0.0
H2117 H 0.59391 0.48879 0.39295 0.0
H2118 H 0.5781 0.5129 0.40389 0.0
C2119 C 0.63286 0.53786 0.41887 0.0
C2120 C 0.21743 0.91357 0.13196 0.0
C2121 C 0.22615 0.93159 0.12088 0.0
H2122 H 0.18832 0.88875 0.13852 0.0
C2123 C 0.21129 0.93936 0.10899 0.0
H2124 H 0.22838 0.90725 0.14139 0.0
C2125 C 0.18834 0.92875 0.10737 0.0
C2126 C 0.17977 0.91012 0.11755 0.0
H2127 H 0.21744 0.95327 0.10035 0.0
H2128 H 0.17745 0.9346 0.09734 0.0
C2129 C 0.19449 0.90293 0.13028 0.0
C2130 C 0.17363 0.94687 0.68529 0.0
C2131 C 0.16672 0.95252 0.70212 0.0
H2132 H 0.16918 0.92323 0.66508 0.0
C2133 C 0.14942 0.93818 0.71145 0.0
H2134 H 0.18693 0.95759 0.67777 0.0
C2135 C 0.13941 0.91857 0.70426 0.0
C2136 C 0.14637 0.91282 0.68752 0.0
H2137 H 0.14377 0.94199 0.72449 0.0
H2138 H 0.12647 0.90775 0.71208 0.0
C2139 C 0.16357 0.92719 0.67808 0.0
C2140 C 0.7535 0.4086 0.37549 0.0
C2141 C 0.74601 0.42458 0.36794 0.0
H2142 H 0.76815 0.38645 0.36969 0.0
C2143 C 0.74997 0.43189 0.34871 0.0
H2144 H 0.75067 0.40258 0.39025 0.0
C2145 C 0.76031 0.42284 0.33699 0.0
C2146 C 0.76671 0.4061 0.34414 0.0
H2147 H 0.74461 0.44432 0.34251 0.0
H2148 H 0.76286 0.42872 0.32215 0.0
C2149 C 0.76365 0.39941 0.3637 0.0
C2150 C 0.70536 0.55234 0.87445 0.0
C2151 C 0.72047 0.56415 0.88921 0.0
H2152 H 0.67769 0.54986 0.85279 0.0
C2153 C 0.71808 0.5825 0.89413 0.0
H2154 H 0.70661 0.53805 0.87039 0.0
C2155 C 0.70163 0.58935 0.88396 0.0
C2156 C 0.6871 0.57798 0.86863 0.0
H2157 H 0.72939 0.59198 0.90546 0.0
H2158 H 0.70096 0.604 0.88757 0.0
C2159 C 0.68885 0.55917 0.8643 0.0
C2160 C 0.94118 0.68943 0.98709 0.0
C2161 C 0.9344 0.67662 0.0035 0.0
H2162 H 0.94475 0.69133 0.95619 0.0
C2163 C 0.92624 0.65543 0.00107 0.0
H2164 H 0.9476 0.70582 0.98849 0.0
C2165 C 0.92463 0.64722 0.98273 0.0
C2166 C 0.93115 0.65993 0.96626 0.0
H2167 H 0.92097 0.64507 0.01336 0.0
H2168 H 0.91838 0.6308 0.98148 0.0
C2169 C 0.93965 0.68115 0.96864 0.0
C2170 C 0.1757 0.19288 0.72901 0.0
C2171 C 0.1554 0.1839 0.73724 0.0
H2172 H 0.19661 0.19071 0.70758 0.0
C2173 C 0.14005 0.16574 0.72944 0.0
H2174 H 0.18779 0.20692 0.73466 0.0
C2175 C 0.14522 0.15641 0.71413 0.0
C2176 C 0.16564 0.16524 0.70611 0.0
H2177 H 0.12428 0.15847 0.73549 0.0
H2178 H 0.13333 0.14219 0.70863 0.0
C2179 C 0.18069 0.18371 0.71346 0.0
C2180 C 0.53561 0.2816 0.47005 0.0
C2181 C 0.54554 0.27013 0.48315 0.0
H2182 H 0.52745 0.28922 0.44013 0.0
C2183 C 0.5546 0.25679 0.47551 0.0
H2184 H 0.52835 0.29193 0.47544 0.0
C2185 C 0.55427 0.25539 0.45522 0.0
C2186 C 0.54484 0.26726 0.44213 0.0
H2187 H 0.56242 0.24777 0.48519 0.0
H2188 H 0.56197 0.24542 0.44981 0.0
C2189 C 0.53524 0.28016 0.44979 0.0
C2190 C 0.39552 0.90685 0.22429 0.0
C2191 C 0.38843 0.89093 0.23814 0.0
H2192 H 0.39065 0.91792 0.19497 0.0
C2193 C 0.36976 0.87383 0.23281 0.0
H2194 H 0.40997 0.92016 0.22794 0.0
C2195 C 0.3583 0.87274 0.21406 0.0
C2196 C 0.36547 0.88856 0.20003 0.0
H2197 H 0.36378 0.86139 0.24323 0.0
H2198 H 0.34363 0.85956 0.21068 0.0
C2199 C 0.38431 0.90561 0.20541 0.0
C2200 C 0.82998 0.33502 0.55651 0.0
C2201 C 0.83684 0.32145 0.54669 0.0
H2202 H 0.82349 0.34386 0.58386 0.0
C2203 C 0.8429 0.30612 0.55768 0.0
H2204 H 0.82511 0.34697 0.54851 0.0
C2205 C 0.84207 0.3044 0.57803 0.0
C2206 C 0.83521 0.318 0.58784 0.0
H2207 H 0.8483 0.29543 0.55057 0.0
H2208 H 0.84704 0.29256 0.58612 0.0
C2209 C 0.82917 0.33332 0.57682 0.0
C2210 C 0.48925 0.15233 0.32197 0.0
C2211 C 0.47509 0.16251 0.31272 0.0
H2212 H 0.50415 0.14369 0.34917 0.0
C2213 C 0.46548 0.17248 0.32436 0.0
H2214 H 0.49689 0.14447 0.31343 0.0
C2215 C 0.4697 0.17209 0.34478 0.0
C2216 C 0.48363 0.16172 0.35408 0.0
H2217 H 0.45458 0.18055 0.31773 0.0
H2218 H 0.46215 0.18006 0.3533 0.0
C2219 C 0.49349 0.15195 0.34244 0.0
C2220 C 0.6823 0.66764 0.06545 0.0
C2221 C 0.66951 0.6749 0.05076 0.0
H2222 H 0.68401 0.65384 0.09394 0.0
C2223 C 0.6475 0.67294 0.05369 0.0
H2224 H 0.69939 0.66911 0.06374 0.0
C2225 C 0.63846 0.6638 0.07096 0.0
C2226 C 0.6513 0.65655 0.0857 0.0
H2227 H 0.6372 0.67837 0.04261 0.0
H2228 H 0.62135 0.66224 0.07268 0.0
C2229 C 0.67338 0.65872 0.08274 0.0
C2230 C 0.00649 0.80953 0.79876 0.0
C2231 C 0.00201 0.82575 0.78804 0.0
H2232 H 0.02202 0.79986 0.82493 0.0
C2233 C 0.00874 0.8449 0.79673 0.0
H2234 H 0.00161 0.7946 0.79248 0.0
C2235 C 0.02025 0.84788 0.81554 0.0
C2236 C 0.02537 0.8318 0.82601 0.0
H2237 H 0.00544 0.85769 0.78889 0.0
H2238 H 0.02531 0.86284 0.82179 0.0
C2239 C 0.01809 0.81253 0.81746 0.0
C2240 C 0.90021 0.86143 0.69768 0.0
C2241 C 0.92076 0.87733 0.70022 0.0
H2242 H 0.86563 0.85268 0.68687 0.0
C2243 C 0.92131 0.89746 0.69591 0.0
H2244 H 0.89912 0.84578 0.70111 0.0
C2245 C 0.90209 0.90139 0.68766 0.0
C2246 C 0.88198 0.88528 0.68362 0.0
H2247 H 0.93684 0.91009 0.69782 0.0
H2248 H 0.90339 0.91689 0.68323 0.0
C2249 C 0.88102 0.86537 0.6895 0.0
C2250 C 0.89066 0.23062 0.46208 0.0
C2251 C 0.89876 0.25192 0.46359 0.0
H2252 H 0.89791 0.20374 0.45685 0.0
C2253 C 0.92119 0.26254 0.46075 0.0
H2254 H 0.87348 0.22198 0.46427 0.0
C2255 C 0.93512 0.25212 0.45622 0.0
C2256 C 0.92702 0.2308 0.45457 0.0
H2257 H 0.92793 0.27897 0.46169 0.0
H2258 H 0.95214 0.26087 0.45361 0.0
C2259 C 0.90464 0.22017 0.45769 0.0
C2260 C 0.56602 0.14215 0.197 0.0
C2261 C 0.5455 0.12742 0.20059 0.0
H2262 H 0.59473 0.15029 0.18108 0.0
C2263 C 0.53914 0.1084 0.1917 0.0
H2264 H 0.57154 0.15687 0.20381 0.0
C2265 C 0.5523 0.10472 0.17844 0.0
C2266 C 0.57217 0.11993 0.1739 0.0
H2267 H 0.52343 0.0967 0.19419 0.0
H2268 H 0.54623 0.09037 0.17093 0.0
C2269 C 0.57927 0.13841 0.1839 0.0
C2270 C 0.58629 0.75959 0.94759 0.0
C2271 C 0.60611 0.76065 0.93998 0.0
H2272 H 0.56397 0.77528 0.95262 0.0
C2273 C 0.61835 0.77885 0.93068 0.0
H2274 H 0.57638 0.74576 0.95474 0.0
C2275 C 0.61134 0.79582 0.92961 0.0
C2276 C 0.59187 0.79497 0.93776 0.0
H2277 H 0.63372 0.78021 0.92468 0.0
H2278 H 0.62162 0.80982 0.92299 0.0
C2279 C 0.57924 0.77655 0.94648 0.0
C2280 C 0.98883 0.16974 0.83421 0.0
C2281 C -0.00083 0.16033 0.82268 0.0
H2282 H 0.95831 0.17347 0.84013 0.0
C2283 C 0.9859 0.14659 0.80838 0.0
H2284 H -0.00143 0.1804 0.84536 0.0
C2285 C 0.9629 0.14265 0.80539 0.0
C2286 C 0.95259 0.1523 0.81668 0.0
H2287 H 0.9933 0.13901 0.79929 0.0
H2288 H 0.95315 0.13196 0.79426 0.0
C2289 C 0.96576 0.16572 0.83127 0.0
C2290 C 0.60477 0.21498 0.58753 0.0
C2291 C 0.62017 0.22928 0.57633 0.0
H2292 H 0.59913 0.19054 0.60883 0.0
C2293 C 0.6424 0.22963 0.57827 0.0
H2294 H 0.5875 0.21424 0.58634 0.0
C2295 C 0.64913 0.21611 0.59132 0.0
C2296 C 0.63377 0.20198 0.60272 0.0
H2297 H 0.6547 0.2405 0.56988 0.0
H2298 H 0.66645 0.21697 0.59274 0.0
C2299 C 0.61148 0.20149 0.60054 0.0
C2300 C 0.51088 0.8788 0.35865 0.0
C2301 C 0.50196 0.88404 0.34022 0.0
H2302 H 0.53098 0.86295 0.37456 0.0
C2303 C 0.5079 0.87778 0.32321 0.0
H2304 H 0.50664 0.88333 0.37206 0.0
C2305 C 0.52208 0.86615 0.32466 0.0
C2306 C 0.53064 0.86059 0.34314 0.0
H2307 H 0.50136 0.88161 0.30878 0.0
H2308 H 0.52628 0.86148 0.31131 0.0
C2309 C 0.525 0.86721 0.36009 0.0
C2310 C 0.92551 0.81043 0.08991 0.0
C2311 C 0.91388 0.79474 0.07677 0.0
H2312 H 0.93004 0.84052 0.09916 0.0
C2313 C 0.89675 0.79733 0.06321 0.0
H2314 H 0.93876 0.80889 0.10056 0.0
C2315 C 0.89193 0.81548 0.06232 0.0
C2316 C 0.90391 0.83135 0.07512 0.0
H2317 H 0.88745 0.78556 0.0529 0.0
H2318 H 0.87895 0.8172 0.05144 0.0
C2319 C 0.92046 0.8285 0.08918 0.0
C2320 C 0.66445 0.93356 0.90831 0.0
C2321 C 0.66216 0.9506 0.89756 0.0
H2322 H 0.6505 0.90155 0.91398 0.0
C2323 C 0.64313 0.94832 0.88435 0.0
H2324 H 0.67907 0.93501 0.91857 0.0
C2325 C 0.62624 0.92948 0.88239 0.0
C2326 C 0.6283 0.91215 0.89303 0.0
H2327 H 0.64083 0.96136 0.87615 0.0
H2328 H 0.61128 0.92882 0.87292 0.0
C2329 C 0.64789 0.91444 0.9058 0.0
C2330 C 0.16155 0.55193 0.11602 0.0
C2331 C 0.17294 0.53785 0.11667 0.0
H2332 H 0.16242 0.58133 0.1239 0.0
C2333 C 0.19391 0.5424 0.12764 0.0
H2334 H 0.1454 0.54893 0.10763 0.0
C2335 C 0.20357 0.56091 0.13725 0.0
C2336 C 0.19257 0.57537 0.13599 0.0
H2337 H 0.20305 0.5318 0.12854 0.0
H2338 H 0.2198 0.56396 0.1455 0.0
C2339 C 0.17128 0.5705 0.12548 0.0
C2340 C 0.16111 0.4111 0.92861 0.0
C2341 C 0.17805 0.42196 0.91684 0.0
H2342 H 0.13114 0.38569 0.93097 0.0
C2343 C 0.17664 0.41595 0.8974 0.0
H2344 H 0.1616 0.41538 0.9436 0.0
C2345 C 0.15908 0.39897 0.89014 0.0
C2346 C 0.14274 0.3876 0.90224 0.0
H2347 H 0.18938 0.42407 0.88793 0.0
H2348 H 0.15878 0.39424 0.87534 0.0
C2349 C 0.14369 0.39406 0.92141 0.0
C2350 C 0.33469 0.44257 0.63178 0.0
C2351 C 0.3384 0.45834 0.61748 0.0
H2352 H 0.3454 0.4189 0.64602 0.0
C2353 C 0.35713 0.46283 0.60699 0.0
H2354 H 0.32029 0.43861 0.64 0.0
C2355 C 0.37184 0.4518 0.61072 0.0
C2356 C 0.36801 0.43578 0.62483 0.0
H2357 H 0.36052 0.47497 0.59594 0.0
H2358 H 0.38634 0.45597 0.6026 0.0
C2359 C 0.34921 0.43133 0.63531 0.0
C2360 C 0.7896 0.07458 0.83955 0.0
C2361 C 0.78281 0.06408 0.85712 0.0
H2362 H 0.81488 0.09818 0.82578 0.0
C2363 C 0.79812 0.06771 0.87404 0.0
H2364 H 0.77826 0.07206 0.82622 0.0
C2365 C 0.81916 0.08261 0.87374 0.0
C2366 C 0.82533 0.09417 0.85653 0.0
H2367 H 0.79351 0.05973 0.88777 0.0
H2368 H 0.83029 0.08564 0.88719 0.0
C2369 C 0.81066 0.08949 0.83925 0.0
C2370 C 0.87148 0.09757 0.43167 0.0
C2371 C 0.85556 0.08911 0.41585 0.0
H2372 H 0.90149 0.1216 0.44136 0.0
C2373 C 0.85705 0.09965 0.39767 0.0
H2374 H 0.87072 0.08987 0.4459 0.0
C2375 C 0.87454 0.11782 0.39514 0.0
C2376 C 0.89096 0.12588 0.41072 0.0
H2377 H 0.84495 0.09368 0.38523 0.0
H2378 H 0.87545 0.12541 0.38084 0.0
C2379 C 0.889 0.11582 0.42913 0.0
C2380 C 0.18275 0.57204 0.63249 0.0
C2381 C 0.18447 0.55572 0.62253 0.0
H2382 H 0.16109 0.58533 0.64373 0.0
C2383 C 0.16479 0.54049 0.61527 0.0
H2384 H 0.19757 0.58403 0.63827 0.0
C2385 C 0.1439 0.54131 0.6183 0.0
C2386 C 0.14216 0.55736 0.62868 0.0
H2387 H 0.16547 0.52777 0.60742 0.0
H2388 H 0.12908 0.5293 0.61256 0.0
C2389 C 0.16183 0.57286 0.63552 0.0
C2390 C 0.26544 0.41953 0.12021 0.0
C2391 C 0.2511 0.42479 0.13125 0.0
H2392 H 0.29722 0.41581 0.1197 0.0
C2393 C 0.25783 0.4293 0.15117 0.0
H2394 H 0.26078 0.41596 0.10484 0.0
C2395 C 0.27868 0.42914 0.1597 0.0
C2396 C 0.29328 0.42442 0.14853 0.0
H2397 H 0.24715 0.43331 0.16013 0.0
H2398 H 0.28344 0.43283 0.17504 0.0
C2399 C 0.28629 0.41933 0.12876 0.0
C2400 C 0.57547 0.81701 0.56486 0.0
C2401 C 0.58531 0.80172 0.56763 0.0
H2402 H 0.56836 0.84098 0.57768 0.0
C2403 C 0.59485 0.79837 0.5865 0.0
H2404 H 0.56783 0.81993 0.55058 0.0
C2405 C 0.59514 0.81052 0.6021 0.0
C2406 C 0.58602 0.8263 0.59908 0.0
H2407 H 0.60255 0.78669 0.58912 0.0
H2408 H 0.60315 0.80802 0.61636 0.0
C2409 C 0.57585 0.82916 0.58038 0.0
C2410 C 0.34089 0.35784 0.80884 0.0
C2411 C 0.36345 0.37019 0.8114 0.0
H2412 H 0.30791 0.3517 0.81703 0.0
C2413 C 0.37011 0.38573 0.82522 0.0
H2414 H 0.33522 0.34571 0.79836 0.0
C2415 C 0.35446 0.38906 0.83601 0.0
C2416 C 0.33181 0.37705 0.83305 0.0
H2417 H 0.38738 0.39547 0.82758 0.0
H2418 H 0.35999 0.40142 0.84625 0.0
C2419 C 0.32523 0.36131 0.81948 0.0
C2420 C 0.87243 0.18328 0.05696 0.0
C2421 C 0.85471 0.179 0.04193 0.0
H2422 H 0.88353 0.17685 0.08651 0.0
C2423 C 0.83374 0.16521 0.04588 0.0
H2424 H 0.88878 0.19383 0.0544 0.0
C2425 C 0.83078 0.15543 0.06427 0.0
C2426 C 0.84865 0.15935 0.07913 0.0
H2427 H 0.81973 0.16157 0.03463 0.0
H2428 H 0.81451 0.1447 0.06683 0.0
C2429 C 0.86941 0.17362 0.07538 0.0
C2430 C 0.10145 0.57746 0.35241 0.0
C2431 C 0.09646 0.56567 0.3355 0.0
H2432 H 0.11421 0.58019 0.38283 0.0
C2433 C 0.10037 0.54699 0.33667 0.0
H2434 H 0.09857 0.5919 0.35199 0.0
C2435 C 0.10943 0.54039 0.35424 0.0
C2436 C 0.11458 0.55223 0.3711 0.0
H2437 H 0.09669 0.53753 0.32393 0.0
H2438 H 0.11232 0.52595 0.35467 0.0
C2439 C 0.11029 0.57073 0.37008 0.0
C2440 C 0.57661 0.13033 0.98473 0.0
C2441 C 0.59714 0.1285 0.99262 0.0
H2442 H 0.5493 0.12162 0.96229 0.0
C2443 C 0.60536 0.11521 0.98384 0.0
H2444 H 0.56981 0.14047 0.99109 0.0
C2445 C 0.59345 0.10422 0.96736 0.0
C2446 C 0.57308 0.10632 0.95929 0.0
H2447 H 0.62107 0.11338 0.98959 0.0
H2448 H 0.60018 0.09405 0.96097 0.0
C2449 C 0.56476 0.11941 0.96826 0.0
C2450 C -0.00296 0.32823 0.20697 0.0
C2451 C 0.0073 0.34897 0.2112 0.0
H2452 H -0.00139 0.30251 0.19257 0.0
C2453 C 0.02733 0.35993 0.20321 0.0
H2454 H 0.98154 0.31937 0.2128 0.0
C2455 C 0.03722 0.35021 0.19171 0.0
C2456 C 0.02729 0.32931 0.18795 0.0
H2457 H 0.03569 0.37592 0.20621 0.0
H2458 H 0.05301 0.35893 0.1863 0.0
C2459 C 0.0069 0.31853 0.19547 0.0
C2460 C 0.80023 0.83903 0.4619 0.0
C2461 C 0.81814 0.84692 0.47634 0.0
H2462 H 0.78528 0.84295 0.43296 0.0
C2463 C 0.83477 0.86557 0.47258 0.0
H2464 H 0.7872 0.82468 0.46438 0.0
C2465 C 0.83344 0.87616 0.45475 0.0
C2466 C 0.81573 0.86808 0.44023 0.0
H2467 H 0.84872 0.87206 0.48347 0.0
H2468 H 0.84645 0.8905 0.45217 0.0
C2469 C 0.79916 0.84941 0.44393 0.0
C2470 C 0.38418 0.62782 0.73042 0.0
C2471 C 0.40301 0.64127 0.74104 0.0
H2472 H 0.35799 0.62442 0.707 0.0
C2473 C 0.41095 0.6618 0.7348 0.0
H2474 H 0.37768 0.6119 0.7348 0.0
C2475 C 0.39962 0.66895 0.71897 0.0
C2476 C 0.38021 0.6557 0.70893 0.0
H2477 H 0.42546 0.67256 0.74258 0.0
H2478 H 0.40579 0.68496 0.71481 0.0
C2479 C 0.37294 0.63496 0.71446 0.0
C2480 C 0.54663 0.62261 0.83577 0.0
C2481 C 0.54497 0.64217 0.83269 0.0
H2482 H 0.56731 0.60492 0.84674 0.0
C2483 C 0.56382 0.65922 0.83774 0.0
H2484 H 0.5324 0.60915 0.83202 0.0
C2485 C 0.5837 0.65678 0.84619 0.0
C2486 C 0.58524 0.63723 0.8497 0.0
H2487 H 0.56314 0.67451 0.83552 0.0
H2488 H 0.59789 0.67022 0.85009 0.0
C2489 C 0.56662 0.62016 0.84413 0.0
C2490 C 0.65035 0.30417 0.1174 0.0
C2491 C 0.66518 0.29957 0.10642 0.0
H2492 H 0.64649 0.32198 0.14013 0.0
C2493 C 0.68808 0.3106 0.10964 0.0
H2494 H 0.6326 0.29587 0.11532 0.0
C2495 C 0.69602 0.3258 0.12361 0.0
C2496 C 0.68128 0.33018 0.13491 0.0
H2497 H 0.69992 0.30754 0.1013 0.0
H2498 H 0.71375 0.33419 0.12545 0.0
C2499 C 0.65831 0.31923 0.13155 0.0
C2500 C 0.88771 0.35947 0.29131 0.0
C2501 C 0.89038 0.34024 0.29179 0.0
H2502 H 0.87096 0.37793 0.30219 0.0
C2503 C 0.87639 0.32422 0.30259 0.0
H2504 H 0.89822 0.37213 0.28312 0.0
C2505 C 0.86089 0.32756 0.31345 0.0
C2506 C 0.85896 0.34698 0.31379 0.0
H2507 H 0.87783 0.30918 0.30315 0.0
H2508 H 0.85068 0.31497 0.32193 0.0
C2509 C 0.87209 0.3628 0.30219 0.0
C2510 C 0.80892 0.7115 0.56535 0.0
C2511 C 0.82342 0.72664 0.57783 0.0
H2512 H 0.79427 0.67962 0.55988 0.0
C2513 C 0.83528 0.72079 0.59434 0.0
H2514 H 0.79962 0.71548 0.55245 0.0
C2515 C 0.83212 0.70023 0.59865 0.0
C2516 C 0.817 0.68505 0.58657 0.0
H2517 H 0.84662 0.73207 0.60425 0.0
H2518 H 0.84095 0.6962 0.61183 0.0
C2519 C 0.80574 0.69094 0.56968 0.0
C2520 C 0.51491 0.4075 0.65889 0.0
C2521 C 0.51205 0.39334 0.67468 0.0
H2522 H 0.53712 0.42641 0.639 0.0
C2523 C 0.52993 0.38665 0.68195 0.0
H2524 H 0.50146 0.41289 0.65283 0.0
C2525 C 0.55043 0.39444 0.67402 0.0
C2526 C 0.55351 0.40916 0.6587 0.0
H2527 H 0.52829 0.37571 0.69408 0.0
H2528 H 0.56409 0.38947 0.68035 0.0
C2529 C 0.5354 0.41533 0.65102 0.0
C2530 C 0.84055 0.29305 0.94982 0.0
C2531 C 0.82948 0.27635 0.93771 0.0
H2532 H 0.85058 0.3254 0.95284 0.0
C2533 C 0.81861 0.27958 0.91943 0.0
H2534 H 0.84896 0.29099 0.96402 0.0
C2535 C 0.81982 0.29929 0.91294 0.0
C2536 C 0.83141 0.31602 0.92485 0.0
H2537 H 0.80997 0.26699 0.90979 0.0
H2538 H 0.8122 0.30156 0.89843 0.0
C2539 C 0.84131 0.31269 0.94352 0.0
C2540 C -0.00423 0.60734 0.24012 0.0
C2541 C 0.01232 0.60021 0.23477 0.0
H2542 H 0.96246 0.60805 0.2335 0.0
C2543 C 0.00767 0.5882 0.21807 0.0
H2544 H -0.00112 0.61669 0.25286 0.0
C2545 C 0.9869 0.58328 0.20704 0.0
C2546 C 0.97034 0.59038 0.21236 0.0
H2547 H 0.02006 0.58251 0.21349 0.0
H2548 H 0.98383 0.57401 0.19423 0.0
C2549 C 0.97501 0.60255 0.22895 0.0
C2550 C 0.62458 0.68386 0.46617 0.0
C2551 C 0.60501 0.68056 0.47522 0.0
H2552 H 0.64095 0.67258 0.44632 0.0
C2553 C 0.58748 0.66192 0.47253 0.0
H2554 H 0.63836 0.69807 0.46792 0.0
C2555 C 0.58916 0.64722 0.46042 0.0
C2556 C 0.60822 0.65105 0.45054 0.0
H2557 H 0.57222 0.65892 0.47937 0.0
H2558 H 0.57511 0.63329 0.45801 0.0
C2559 C 0.62608 0.66933 0.45379 0.0
C2560 C 0.83933 0.54599 0.59155 0.0
C2561 C 0.85933 0.54335 0.58793 0.0
H2562 H 0.82386 0.56593 0.60136 0.0
C2563 C 0.87942 0.55974 0.59085 0.0
H2564 H 0.82357 0.53364 0.58946 0.0
C2565 C 0.87955 0.57829 0.59749 0.0
C2566 C 0.85961 0.58085 0.60142 0.0
H2567 H 0.8951 0.55825 0.58807 0.0
H2568 H 0.89531 0.59065 0.59954 0.0
C2569 C 0.83947 0.56453 0.59824 0.0
C2570 C 0.29884 0.98737 0.42705 0.0
C2571 C 0.29208 0.98806 0.40691 0.0
H2572 H 0.30853 0.97048 0.4512 0.0
C2573 C 0.28868 0.97091 0.39569 0.0
H2574 H 0.3019 0.00046 0.43603 0.0
C2575 C 0.2918 0.9533 0.40453 0.0
C2576 C 0.29887 0.95263 0.42472 0.0
H2577 H 0.28337 0.97102 0.38012 0.0
H2578 H 0.28845 0.9402 0.39551 0.0
C2579 C 0.30248 0.97002 0.43578 0.0
C2580 C 0.28014 0.12204 0.68493 0.0
C2581 C 0.26854 0.112 0.66775 0.0
H2582 H 0.31162 0.14043 0.69908 0.0
C2583 C 0.27947 0.11527 0.65061 0.0
H2584 H 0.27217 0.11992 0.69836 0.0
C2585 C 0.30198 0.12721 0.65101 0.0
C2586 C 0.31398 0.1359 0.6686 0.0
H2587 H 0.27093 0.10785 0.63712 0.0
H2588 H 0.31035 0.12854 0.63789 0.0
C2589 C 0.30271 0.13376 0.68538 0.0
C2590 C 0.15099 0.04266 0.87974 0.0
C2591 C 0.16357 0.03065 0.88826 0.0
H2592 H 0.13466 0.06393 0.88442 0.0
C2593 C 0.17161 0.03301 0.90823 0.0
H2594 H 0.14463 0.04133 0.86437 0.0
C2595 C 0.16595 0.04604 0.91969 0.0
C2596 C 0.15217 0.05705 0.91145 0.0
H2597 H 0.1815 0.02415 0.91525 0.0
H2598 H 0.17175 0.04697 0.93519 0.0
C2599 C 0.14538 0.05574 0.8912 0.0
C2600 C 0.7212 0.40292 0.64871 0.0
C2601 C 0.73257 0.42261 0.64163 0.0
H2602 H 0.68956 0.38058 0.65347 0.0
C2603 C 0.72041 0.43581 0.63589 0.0
H2604 H 0.73006 0.39243 0.65339 0.0
C2605 C 0.69722 0.42903 0.63605 0.0
C2606 C 0.68571 0.4089 0.64185 0.0
H2607 H 0.72868 0.45113 0.63051 0.0
H2608 H 0.68818 0.43918 0.63053 0.0
C2609 C 0.698 0.39612 0.64875 0.0
C2610 C 0.69282 0.47723 0.19001 0.0
C2611 C 0.7043 0.48713 0.17399 0.0
H2612 H 0.67424 0.44882 0.20315 0.0
C2613 C 0.70628 0.47535 0.15887 0.0
H2614 H 0.69103 0.48585 0.20192 0.0
C2615 C 0.69672 0.45413 0.15963 0.0
C2616 C 0.68483 0.44429 0.17543 0.0
H2617 H 0.71506 0.48252 0.14635 0.0
H2618 H 0.69816 0.44546 0.1476 0.0
C2619 C 0.68311 0.45604 0.19068 0.0
C2620 C 0.26145 0.93561 0.86961 0.0
C2621 C 0.24145 0.93771 0.86065 0.0
H2622 H 0.28974 0.92673 0.8665 0.0
C2623 C 0.23426 0.93149 0.84123 0.0
H2624 H 0.26745 0.94037 0.88456 0.0
C2625 C 0.2466 0.92308 0.83107 0.0
C2626 C 0.26682 0.9211 0.83985 0.0
H2627 H 0.21875 0.93266 0.83401 0.0
H2628 H 0.23998 0.9178 0.81638 0.0
C2629 C 0.27412 0.92761 0.85927 0.0
C2630 C 0.221 0.09197 0.37403 0.0
C2631 C 0.24433 0.10139 0.37644 0.0
H2632 H 0.18947 0.09452 0.36209 0.0
C2633 C 0.25366 0.12121 0.36871 0.0
H2634 H 0.21329 0.07673 0.37987 0.0
C2635 C 0.24011 0.13131 0.35863 0.0
C2636 C 0.21684 0.1219 0.356 0.0
H2637 H 0.27153 0.12899 0.37037 0.0
H2638 H 0.24791 0.14662 0.35298 0.0
C2639 C 0.20736 0.10218 0.36396 0.0
C2640 C 0.46282 0.19209 0.49491 0.0
C2641 C 0.44598 0.19984 0.49828 0.0
H2642 H 0.47392 0.17495 0.47608 0.0
C2643 C 0.42774 0.19723 0.48393 0.0
H2644 H 0.47713 0.19386 0.50564 0.0
C2645 C 0.4259 0.18637 0.46701 0.0
C2646 C 0.44233 0.17797 0.464 0.0
H2647 H 0.41451 0.20306 0.48602 0.0
H2648 H 0.41147 0.18432 0.45638 0.0
C2649 C 0.46104 0.18132 0.47794 0.0
C2650 C 0.60606 0.67989 0.22841 0.0
C2651 C 0.62875 0.68457 0.23525 0.0
H2652 H 0.58105 0.67157 0.20396 0.0
C2653 C 0.64391 0.68477 0.22195 0.0
H2654 H 0.59397 0.67956 0.23834 0.0
C2655 C 0.63662 0.68066 0.20219 0.0
C2656 C 0.61391 0.6759 0.19525 0.0
H2657 H 0.66154 0.68855 0.22671 0.0
H2658 H 0.64895 0.68162 0.19229 0.0
C2659 C 0.5987 0.67547 0.20866 0.0
C2660 C 0.0424 0.78835 0.98203 0.0
C2661 C 0.06355 0.80172 0.98891 0.0
H2662 H 0.01979 0.77535 0.95704 0.0
C2663 C 0.07759 0.81369 0.97523 0.0
H2664 H 0.03111 0.779 0.99217 0.0
C2665 C 0.0711 0.81155 0.95508 0.0
C2666 C 0.05047 0.79736 0.94821 0.0
H2667 H 0.09396 0.8242 0.98003 0.0
H2668 H 0.08269 0.82033 0.9449 0.0
C2669 C 0.03596 0.78616 0.9619 0.0
C2670 C 0.90658 0.38772 0.72804 0.0
C2671 C 0.90067 0.37044 0.74055 0.0
H2672 H 0.90064 0.40093 0.69989 0.0
C2673 C 0.88286 0.3531 0.73412 0.0
H2674 H 0.92032 0.40128 0.73253 0.0
C2675 C 0.87125 0.35302 0.71555 0.0
C2676 C 0.87735 0.37017 0.70282 0.0
H2677 H 0.87779 0.33959 0.74349 0.0
H2678 H 0.85736 0.3395 0.71125 0.0
C2679 C 0.89517 0.38755 0.70934 0.0
C2680 C 0.31316 0.81109 0.06002 0.0
C2681 C 0.30823 0.82671 0.04854 0.0
H2682 H 0.31845 0.79909 0.089 0.0
C2683 C 0.30437 0.84231 0.05798 0.0
H2684 H 0.31624 0.79886 0.05319 0.0
C2685 C 0.30556 0.84239 0.07841 0.0
C2686 C 0.31066 0.82689 0.08994 0.0
H2687 H 0.30042 0.85452 0.0496 0.0
H2688 H 0.30224 0.85453 0.08518 0.0
C2689 C 0.31433 0.81117 0.08052 0.0
C2690 C 0.94885 0.63699 0.82145 0.0
C2691 C 0.96186 0.65145 0.80864 0.0
H2692 H 0.94337 0.62738 0.85118 0.0
C2693 C 0.97976 0.66793 0.81664 0.0
H2694 H 0.93499 0.62405 0.8158 0.0
C2695 C 0.98443 0.66997 0.837 0.0
C2696 C 0.97135 0.65553 0.84983 0.0
H2697 H 0.99007 0.67939 0.80719 0.0
H2698 H -0.00188 0.68302 0.84268 0.0
C2699 C 0.95355 0.63898 0.84177 0.0
C2700 C 0.15648 0.13145 0.56378 0.0
C2701 C 0.14829 0.14412 0.55062 0.0
H2702 H 0.17526 0.12897 0.59125 0.0
C2703 C 0.15375 0.16473 0.55507 0.0
H2704 H 0.15254 0.11549 0.56078 0.0
C2705 C 0.16684 0.17244 0.57244 0.0
C2706 C 0.17457 0.15967 0.58582 0.0
H2707 H 0.14771 0.17489 0.54525 0.0
H2708 H 0.17038 0.18829 0.57564 0.0
C2709 C 0.16938 0.13912 0.58126 0.0
C2710 C 0.52633 0.30732 0.29368 0.0
C2711 C 0.52117 0.32466 0.28648 0.0
H2712 H 0.5395 0.29287 0.31815 0.0
C2713 C 0.52359 0.3402 0.29949 0.0
H2714 H 0.52465 0.29507 0.28403 0.0
C2715 C 0.53189 0.33884 0.31909 0.0
C2716 C 0.53808 0.32197 0.32609 0.0
H2717 H 0.51957 0.35367 0.29445 0.0
H2718 H 0.53385 0.35122 0.32868 0.0
C2719 C 0.53474 0.30601 0.31328 0.0
C2720 C 0.41746 0.3481 0.19163 0.0
C2721 C 0.43621 0.36391 0.19947 0.0
H2722 H 0.38543 0.34004 0.17492 0.0
C2723 C 0.43553 0.38389 0.19852 0.0
H2724 H 0.41733 0.33252 0.19227 0.0
C2725 C 0.4172 0.38817 0.18861 0.0
C2726 C 0.39927 0.37256 0.17942 0.0
H2727 H 0.44963 0.39641 0.20456 0.0
H2728 H 0.41773 0.40386 0.18707 0.0
C2729 C 0.3992 0.35239 0.18166 0.0
C2730 C 0.38901 0.76322 0.97483 0.0
C2731 C 0.36638 0.75265 0.97687 0.0
H2732 H 0.42082 0.76134 0.97081 0.0
C2733 C 0.35884 0.73125 0.97756 0.0
H2734 H 0.39531 0.77971 0.97412 0.0
C2735 C 0.3736 0.72065 0.97608 0.0
C2736 C 0.39619 0.7312 0.97359 0.0
H2737 H 0.34152 0.72267 0.97927 0.0
H2738 H 0.36725 0.70418 0.97693 0.0
C2739 C 0.40369 0.75264 0.97307 0.0
C2740 C 0.03193 0.61259 0.68666 0.0
C2741 C 0.037 0.63293 0.69197 0.0
H2742 H 0.03922 0.59191 0.66896 0.0
C2743 C 0.05526 0.64797 0.68449 0.0
H2744 H 0.01794 0.60063 0.69215 0.0
C2745 C 0.06762 0.64293 0.67137 0.0
C2746 C 0.06189 0.62275 0.66527 0.0
H2747 H 0.05975 0.66375 0.68842 0.0
H2748 H 0.08145 0.65494 0.66573 0.0
C2749 C 0.04421 0.60757 0.67343 0.0
C2750 C 0.04292 0.22125 0.43439 0.0
C2751 C 0.06578 0.22483 0.43971 0.0
H2752 H 0.01732 0.23418 0.42552 0.0
C2753 C 0.08054 0.24504 0.4402 0.0
H2754 H 0.03108 0.20589 0.43376 0.0
C2755 C 0.07257 0.2613 0.43561 0.0
C2756 C 0.04968 0.25769 0.4305 0.0
H2757 H 0.09825 0.24833 0.44424 0.0
H2758 H 0.08428 0.27671 0.43637 0.0
C2759 C 0.03498 0.23748 0.42981 0.0
C2760 C 0.49532 0.66882 0.31851 0.0
C2761 C 0.50865 0.66839 0.33622 0.0
H2762 H 0.46456 0.67125 0.30465 0.0
C2763 C 0.50021 0.66939 0.35401 0.0
H2764 H 0.50123 0.66795 0.30454 0.0
C2765 C 0.47919 0.67137 0.35406 0.0
C2766 C 0.46614 0.67241 0.33631 0.0
H2767 H 0.51002 0.66909 0.36792 0.0
H2768 H 0.4735 0.67278 0.36799 0.0
C2769 C 0.47433 0.67081 0.31856 0.0
C2770 C 0.16925 0.7036 0.12149 0.0
C2771 C 0.14681 0.70264 0.11942 0.0
H2772 H 0.19383 0.69168 0.13613 0.0
C2773 C 0.13178 0.68853 0.13106 0.0
H2774 H 0.18126 0.71435 0.11277 0.0
C2775 C 0.13893 0.67547 0.14428 0.0
C2776 C 0.16133 0.67627 0.14629 0.0
H2777 H 0.11436 0.68732 0.12976 0.0
H2778 H 0.12675 0.66441 0.15262 0.0
C2779 C 0.17644 0.69055 0.1348 0.0
C2780 C 0.00868 0.37373 0.80899 0.0
C2781 C 0.01414 0.39307 0.817 0.0
H2782 H 0.01825 0.34758 0.80654 0.0
C2783 C 0.03516 0.40161 0.82757 0.0
H2784 H 0.99257 0.36664 0.80087 0.0
C2785 C 0.05011 0.39078 0.83058 0.0
C2786 C 0.0443 0.37104 0.82328 0.0
H2787 H 0.03994 0.41655 0.83382 0.0
H2788 H 0.06615 0.39781 0.83883 0.0
C2789 C 0.0235 0.36281 0.81218 0.0
C2790 C 0.40182 0.32149 0.57288 0.0
C2791 C 0.42072 0.31654 0.56987 0.0
H2792 H 0.38899 0.34487 0.5791 0.0
C2793 C 0.4417 0.33198 0.57107 0.0
H2794 H 0.38543 0.30991 0.57212 0.0
C2795 C 0.44367 0.35201 0.57486 0.0
C2796 C 0.42477 0.35693 0.57786 0.0
H2797 H 0.45657 0.32866 0.56882 0.0
H2798 H 0.46001 0.36365 0.57557 0.0
C2799 C 0.40385 0.34145 0.57699 0.0
C2800 C 0.14333 0.38829 0.37881 0.0
C2801 C 0.14796 0.40015 0.39562 0.0
H2802 H 0.11985 0.36359 0.36239 0.0
C2803 C 0.13273 0.39466 0.40989 0.0
H2804 H 0.15474 0.39202 0.36758 0.0
C2805 C 0.11285 0.37818 0.407 0.0
C2806 C 0.10776 0.36706 0.38969 0.0
H2807 H 0.13588 0.40342 0.42306 0.0
H2808 H 0.10098 0.37476 0.41783 0.0
C2809 C 0.12338 0.372 0.37583 0.0
C2810 C 0.67687 0.06588 0.60704 0.0
C2811 C 0.65528 0.05706 0.59757 0.0
H2812 H 0.70152 0.09283 0.61905 0.0
C2813 C 0.64133 0.06896 0.59401 0.0
H2814 H 0.688 0.0571 0.6101 0.0
C2815 C 0.64915 0.08948 0.59898 0.0
C2816 C 0.67108 0.09856 0.60768 0.0
H2817 H 0.62461 0.06265 0.58671 0.0
H2818 H 0.63829 0.09843 0.59521 0.0
C2819 C 0.68468 0.0864 0.61205 0.0
C2820 C 0.67438 0.90817 0.41505 0.0
C2821 C 0.68685 0.91489 0.39889 0.0
H2822 H 0.6459 0.88621 0.42647 0.0
C2823 C 0.67923 0.90442 0.38118 0.0
H2824 H 0.67969 0.91594 0.42888 0.0
C2825 C 0.65979 0.88735 0.37981 0.0
C2826 C 0.6477 0.88036 0.39616 0.0
H2827 H 0.68843 0.90924 0.36844 0.0
H2828 H 0.65456 0.8793 0.36613 0.0
C2829 C 0.65506 0.89109 0.41371 0.0
C2830 C 0.84101 0.94654 0.09846 0.0
C2831 C 0.82776 0.94618 0.11353 0.0
H2832 H 0.86548 0.93586 0.08849 0.0
C2833 C 0.82863 0.93359 0.13018 0.0
H2834 H 0.84075 0.95609 0.08545 0.0
C2835 C 0.84251 0.9217 0.13178 0.0
C2836 C 0.85608 0.92228 0.11687 0.0
H2837 H 0.81846 0.93277 0.14196 0.0
H2838 H 0.84246 0.91196 0.14469 0.0
C2839 C 0.85507 0.9348 0.10015 0.0
C2840 C 0.34494 0.57923 0.40495 0.0
C2841 C 0.33259 0.56839 0.38844 0.0
H2842 H 0.36732 0.60768 0.41605 0.0
C2843 C 0.33529 0.57787 0.36976 0.0
H2844 H 0.34342 0.57234 0.41954 0.0
C2845 C 0.34904 0.59817 0.36778 0.0
C2846 C 0.36026 0.60936 0.38445 0.0
H2847 H 0.32609 0.5699 0.35673 0.0
H2848 H 0.34991 0.60542 0.35333 0.0
C2849 C 0.35861 0.59949 0.40298 0.0
C2850 C 0.33554 0.58986 0.94319 0.0
C2851 C 0.33861 0.58219 0.96233 0.0
H2852 H 0.34818 0.61352 0.92189 0.0
C2853 C 0.35662 0.59361 0.97525 0.0
H2854 H 0.3218 0.58146 0.93289 0.0
C2855 C 0.37161 0.61206 0.96897 0.0
C2856 C 0.36899 0.61929 0.9496 0.0
H2857 H 0.35937 0.58813 0.99012 0.0
H2858 H 0.38571 0.6203 0.97903 0.0
C2859 C 0.35065 0.60817 0.93686 0.0
C2860 C 0.65755 0.03557 0.10031 0.0
C2861 C 0.67812 0.04511 0.11122 0.0
H2862 H 0.62264 0.03134 0.09573 0.0
C2863 C 0.67911 0.05893 0.12568 0.0
H2864 H 0.65617 0.02495 0.08899 0.0
C2865 C 0.65981 0.06262 0.12952 0.0
C2866 C 0.63911 0.05247 0.11907 0.0
H2867 H 0.69471 0.06659 0.13431 0.0
H2868 H 0.66095 0.07286 0.14113 0.0
C2869 C 0.63828 0.03917 0.10422 0.0
C2870 C 0.74937 0.95373 0.65384 0.0
C2871 C 0.73882 0.94444 0.63603 0.0
H2872 H 0.77837 0.96081 0.67472 0.0
C2873 C 0.74981 0.93453 0.62578 0.0
H2874 H 0.74134 0.96143 0.66214 0.0
C2875 C 0.77105 0.93426 0.63295 0.0
C2876 C 0.78181 0.94389 0.65054 0.0
H2877 H 0.74218 0.92725 0.61201 0.0
H2878 H 0.77929 0.92695 0.62442 0.0
C2879 C 0.77065 0.95347 0.661 0.0
loop_
_geom_bond_atom_site_label_1
_geom_bond_atom_site_label_2
_geom_bond_distance
_geom_bond_site_symmetry_2
_ccdc_geom_bond_type
O0 Cd1 2.321 . S
O0 C7 1.275 . S
Cd1 O0 2.321 . S
Cd1 O9 2.405 . S
Cd1 O10 2.377 1_455 S
O2 Cd3 2.385 . S
O2 C7 1.255 1_655 S
Cd3 O2 2.385 . S
Cd3 O4 2.317 . S
O4 Cd3 2.317 . S
O4 C5 1.232 . S
C5 O4 1.232 . S
C5 O6 1.218 . S
O6 C5 1.218 . S
C7 O0 1.275 . S
C7 O2 1.255 1_455 S
C8 O9 1.258 . S
C8 O10 1.256 1_455 S
O9 Cd1 2.405 . S
O9 C8 1.258 . S
O10 Cd1 2.377 1_655 S
O10 C8 1.256 1_655 S
O11 Cd12 2.300 . S
O11 C18 1.275 . S
Cd12 O11 2.300 . S
Cd12 O20 2.381 . S
Cd12 O21 2.378 . S
O13 Cd14 2.385 . S
O13 C18 1.255 . S
Cd14 O13 2.385 . S
Cd14 O15 2.317 . S
O15 Cd14 2.317 . S
O15 C16 1.232 . S
C16 O15 1.232 . S
C16 O17 1.218 . S
O17 C16 1.218 . S
C18 O11 1.275 . S
C18 O13 1.255 . S
C19 O20 1.258 . S
C19 O21 1.256 . S
O20 Cd12 2.381 . S
O20 C19 1.258 . S
O21 Cd12 2.378 . S
O21 C19 1.256 . S
O22 Cd23 2.300 . S
O22 C29 1.275 . S
Cd23 O22 2.300 . S
Cd23 O31 2.381 . S
Cd23 O32 2.378 . S
O24 Cd25 2.385 . S
O24 C29 1.255 . S
Cd25 O24 2.385 . S
Cd25 O26 2.317 . S
O26 Cd25 2.317 . S
O26 C27 1.232 . S
C27 O26 1.232 . S
C27 O28 1.218 . S
O28 C27 1.218 . S
C29 O22 1.275 . S
C29 O24 1.255 . S
C30 O31 1.258 . S
C30 O32 1.256 . S
O31 Cd23 2.381 . S
O31 C30 1.258 . S
O32 Cd23 2.378 . S
O32 C30 1.256 . S
O33 Cd34 2.300 . S
O33 C40 1.275 . S
Cd34 O33 2.300 . S
Cd34 O42 2.381 . S
Cd34 O43 2.378 . S
O35 Cd36 2.385 . S
O35 C40 1.255 . S
Cd36 O35 2.385 . S
Cd36 O37 2.317 . S
O37 Cd36 2.317 . S
O37 C38 1.232 . S
C38 O37 1.232 . S
C38 O39 1.218 . S
O39 C38 1.218 . S
C40 O33 1.275 . S
C40 O35 1.255 . S
C41 O42 1.258 . S
C41 O43 1.256 . S
O42 Cd34 2.381 . S
O42 C41 1.258 . S
O43 Cd34 2.378 . S
O43 C41 1.256 . S
O44 Cd45 2.300 . S
O44 C51 1.275 . S
Cd45 O44 2.300 . S
Cd45 O53 2.381 . S
Cd45 O54 2.378 . S
O46 Cd47 2.385 . S
O46 C51 1.255 . S
Cd47 O46 2.385 . S
Cd47 O48 2.317 . S
O48 Cd47 2.317 . S
O48 C49 1.232 . S
C49 O48 1.232 . S
C49 O50 1.218 . S
O50 C49 1.218 . S
C51 O44 1.275 . S
C51 O46 1.255 . S
C52 O53 1.258 . S
C52 O54 1.256 . S
O53 Cd45 2.381 . S
O53 C52 1.258 . S
O54 Cd45 2.378 . S
O54 C52 1.256 . S
O55 Cd56 2.300 . S
O55 C62 1.275 . S
Cd56 O55 2.300 . S
Cd56 O64 2.381 . S
Cd56 O65 2.378 . S
O57 Cd58 2.385 . S
O57 C62 1.255 . S
Cd58 O57 2.385 . S
Cd58 O59 2.317 . S
O59 Cd58 2.317 . S
O59 C60 1.232 . S
C60 O59 1.232 . S
C60 O61 1.218 . S
O61 C60 1.218 . S
C62 O55 1.275 . S
C62 O57 1.255 . S
C63 O64 1.258 . S
C63 O65 1.256 . S
O64 Cd56 2.381 . S
O64 C63 1.258 . S
O65 Cd56 2.378 . S
O65 C63 1.256 . S
O66 Cd67 2.300 . S
O66 C73 1.275 . S
Cd67 O66 2.300 . S
Cd67 O75 2.381 . S
Cd67 O76 2.378 . S
O68 Cd69 2.385 . S
O68 C73 1.255 . S
Cd69 O68 2.385 . S
Cd69 O70 2.317 . S
O70 Cd69 2.317 . S
O70 C71 1.232 . S
C71 O70 1.232 . S
C71 O72 1.218 . S
O72 C71 1.218 . S
C73 O66 1.275 . S
C73 O68 1.255 . S
C74 O75 1.258 . S
C74 O76 1.256 . S
O75 Cd67 2.381 . S
O75 C74 1.258 . S
O76 Cd67 2.378 . S
O76 C74 1.256 . S
O77 Cd78 2.300 . S
O77 C84 1.275 . S
Cd78 O77 2.300 . S
Cd78 O86 2.381 . S
Cd78 O87 2.378 . S
O79 Cd80 2.385 . S
O79 C84 1.255 . S
Cd80 O79 2.385 . S
Cd80 O81 2.317 1_556 S
O81 Cd80 2.317 1_554 S
O81 C82 1.232 . S
C82 O81 1.232 . S
C82 O83 1.218 . S
O83 C82 1.218 . S
C84 O77 1.275 . S
C84 O79 1.255 . S
C85 O86 1.258 . S
C85 O87 1.256 . S
O86 Cd78 2.381 . S
O86 C85 1.258 . S
O87 Cd78 2.378 . S
O87 C85 1.256 . S
O88 Cd89 2.300 . S
O88 C95 1.275 . S
Cd89 O88 2.300 . S
Cd89 O97 2.381 1_545 S
Cd89 O98 2.378 1_545 S
O90 Cd91 2.385 . S
O90 C95 1.255 . S
Cd91 O90 2.385 . S
Cd91 O92 2.317 . S
O92 Cd91 2.317 . S
O92 C93 1.232 . S
C93 O92 1.232 . S
C93 O94 1.218 . S
O94 C93 1.218 . S
C95 O88 1.275 . S
C95 O90 1.255 . S
C96 O97 1.258 . S
C96 O98 1.256 . S
O97 Cd89 2.381 1_565 S
O97 C96 1.258 . S
O98 Cd89 2.378 1_565 S
O98 C96 1.256 . S
O99 Cd100 2.300 . S
O99 C106 1.275 . S
Cd100 O99 2.300 . S
Cd100 O108 2.381 1_545 S
Cd100 O109 2.378 1_545 S
O101 Cd102 2.385 . S
O101 C106 1.255 . S
Cd102 O101 2.385 . S
Cd102 O103 2.317 . S
O103 Cd102 2.317 . S
O103 C104 1.232 . S
C104 O103 1.232 . S
C104 O105 1.218 . S
O105 C104 1.218 . S
C106 O99 1.275 . S
C106 O101 1.255 . S
C107 O108 1.258 . S
C107 O109 1.256 . S
O108 Cd100 2.381 1_565 S
O108 C107 1.258 . S
O109 Cd100 2.378 1_565 S
O109 C107 1.256 . S
O110 Cd111 2.300 . S
O110 C117 1.275 . S
Cd111 O110 2.300 . S
Cd111 O119 2.381 . S
Cd111 O120 2.378 . S
O112 Cd113 2.385 1_565 S
O112 C117 1.255 . S
Cd113 O112 2.385 1_545 S
Cd113 O114 2.317 . S
O114 Cd113 2.317 . S
O114 C115 1.232 . S
C115 O114 1.232 . S
C115 O116 1.218 . S
O116 C115 1.218 . S
C117 O110 1.275 . S
C117 O112 1.255 . S
C118 O119 1.258 . S
C118 O120 1.256 . S
O119 Cd111 2.381 . S
O119 C118 1.258 . S
O120 Cd111 2.378 . S
O120 C118 1.256 . S
O121 Cd122 2.350 . S
O121 C128 1.275 . S
Cd122 O121 2.350 . S
Cd122 O130 2.352 1_565 S
Cd122 O131 2.319 1_565 S
O123 Cd124 2.385 . S
O123 C128 1.255 . S
Cd124 O123 2.385 . S
Cd124 O125 2.317 . S
O125 Cd124 2.317 . S
O125 C126 1.232 . S
C126 O125 1.232 . S
C126 O127 1.218 . S
O127 C126 1.218 . S
C128 O121 1.275 . S
C128 O123 1.255 . S
C129 O130 1.258 . S
C129 O131 1.256 . S
O130 Cd122 2.352 1_545 S
O130 C129 1.258 . S
O131 Cd122 2.319 1_545 S
O131 C129 1.256 . S
O132 Cd133 2.300 . S
O132 C139 1.275 . S
Cd133 O132 2.300 . S
Cd133 O141 2.381 . S
Cd133 O142 2.323 1_554 S
O134 Cd135 2.385 . S
O134 C139 1.255 . S
Cd135 O134 2.385 . S
Cd135 O136 2.317 . S
O136 Cd135 2.317 . S
O136 C137 1.232 . S
C137 O136 1.232 . S
C137 O138 1.218 . S
O138 C137 1.218 . S
C139 O132 1.275 . S
C139 O134 1.255 . S
C140 O141 1.258 1_556 S
C140 O142 1.264 . S
O141 Cd133 2.381 . S
O141 C140 1.258 1_554 S
O142 Cd133 2.323 1_556 S
O142 C140 1.264 . S
O143 Cd144 2.300 . S
O143 C150 1.275 . S
Cd144 O143 2.300 . S
Cd144 O152 2.381 . S
Cd144 O153 2.378 . S
O145 Cd146 2.385 . S
O145 C150 1.255 . S
Cd146 O145 2.385 . S
Cd146 O147 2.317 . S
O147 Cd146 2.317 . S
O147 C148 1.232 . S
C148 O147 1.232 . S
C148 O149 1.218 . S
O149 C148 1.218 . S
C150 O143 1.275 . S
C150 O145 1.255 . S
C151 O152 1.258 . S
C151 O153 1.256 . S
O152 Cd144 2.381 . S
O152 C151 1.258 . S
O153 Cd144 2.378 . S
O153 C151 1.256 . S
O154 Cd155 2.300 . S
O154 C161 1.275 . S
Cd155 O154 2.300 . S
Cd155 O163 2.381 . S
Cd155 O164 2.378 . S
O156 Cd157 2.385 . S
O156 C161 1.255 . S
Cd157 O156 2.385 . S
Cd157 O158 2.317 . S
O158 Cd157 2.317 . S
O158 C159 1.232 . S
C159 O158 1.232 . S
C159 O160 1.218 . S
O160 C159 1.218 . S
C161 O154 1.275 . S
C161 O156 1.255 . S
C162 O163 1.258 . S
C162 O164 1.256 . S
O163 Cd155 2.381 . S
O163 C162 1.258 . S
O164 Cd155 2.378 . S
O164 C162 1.256 . S
O165 Cd166 2.300 1_655 S
O165 C172 1.275 . S
Cd166 O165 2.300 1_455 S
Cd166 O174 2.381 . S
Cd166 O175 2.378 . S
O167 Cd168 2.385 1_655 S
O167 C172 1.255 . S
Cd168 O167 2.385 1_455 S
Cd168 O169 2.317 . S
O169 Cd168 2.317 . S
O169 C170 1.232 1_455 S
C170 O169 1.232 1_655 S
C170 O171 1.218 . S
O171 C170 1.218 . S
C172 O165 1.275 . S
C172 O167 1.255 . S
C173 O174 1.258 . S
C173 O175 1.256 . S
O174 Cd166 2.381 . S
O174 C173 1.258 . S
O175 Cd166 2.378 . S
O175 C173 1.256 . S
O176 Cd177 2.300 . S
O176 C183 1.275 . S
Cd177 O176 2.300 . S
Cd177 O185 2.381 . S
Cd177 O186 2.378 . S
O178 Cd179 2.385 . S
O178 C183 1.255 . S
Cd179 O178 2.385 . S
Cd179 O180 2.317 . S
O180 Cd179 2.317 . S
O180 C181 1.232 . S
C181 O180 1.232 . S
C181 O182 1.218 . S
O182 C181 1.218 . S
C183 O176 1.275 . S
C183 O178 1.255 . S
C184 O185 1.258 . S
C184 O186 1.256 . S
O185 Cd177 2.381 . S
O185 C184 1.258 . S
O186 Cd177 2.378 . S
O186 C184 1.256 . S
O187 Cd188 2.300 . S
O187 C194 1.275 . S
Cd188 O187 2.300 . S
Cd188 O196 2.381 . S
Cd188 O197 2.378 . S
O189 Cd190 2.385 . S
O189 C194 1.255 . S
Cd190 O189 2.385 . S
Cd190 O191 2.317 . S
O191 Cd190 2.317 . S
O191 C192 1.232 . S
C192 O191 1.232 . S
C192 O193 1.218 . S
O193 C192 1.218 . S
C194 O187 1.275 . S
C194 O189 1.255 . S
C195 O196 1.258 . S
C195 O197 1.256 . S
O196 Cd188 2.381 . S
O196 C195 1.258 . S
O197 Cd188 2.378 . S
O197 C195 1.256 . S
O198 Cd199 2.300 . S
O198 C205 1.275 . S
Cd199 O198 2.300 . S
Cd199 O207 2.381 . S
Cd199 O208 2.378 . S
O200 Cd201 2.385 1_556 S
O200 C205 1.255 . S
Cd201 O200 2.385 1_554 S
Cd201 O202 2.317 . S
O202 Cd201 2.317 . S
O202 C203 1.232 . S
C203 O202 1.232 . S
C203 O204 1.218 . S
O204 C203 1.218 . S
C205 O198 1.275 . S
C205 O200 1.255 . S
C206 O207 1.258 . S
C206 O208 1.256 . S
O207 Cd199 2.381 . S
O207 C206 1.258 . S
O208 Cd199 2.378 . S
O208 C206 1.256 . S
O209 Cd210 2.300 . S
O209 C216 1.275 . S
Cd210 O209 2.300 . S
Cd210 O218 2.381 . S
Cd210 O219 2.378 . S
O211 Cd212 2.385 . S
O211 C216 1.255 . S
Cd212 O211 2.385 . S
Cd212 O213 2.317 . S
O213 Cd212 2.317 . S
O213 C214 1.232 . S
C214 O213 1.232 . S
C214 O215 1.218 . S
O215 C214 1.218 . S
C216 O209 1.275 . S
C216 O211 1.255 . S
C217 O218 1.258 . S
C217 O219 1.256 . S
O218 Cd210 2.381 . S
O218 C217 1.258 . S
O219 Cd210 2.378 . S
O219 C217 1.256 . S
O220 Cd221 2.300 . S
O220 C227 1.275 . S
Cd221 O220 2.300 . S
Cd221 O229 2.381 . S
Cd221 O230 2.378 . S
O222 Cd223 2.385 . S
O222 C227 1.255 . S
Cd223 O222 2.385 . S
Cd223 O224 2.317 . S
O224 Cd223 2.317 . S
O224 C225 1.232 . S
C225 O224 1.232 . S
C225 O226 1.218 . S
O226 C225 1.218 . S
C227 O220 1.275 . S
C227 O222 1.255 . S
C228 O229 1.258 . S
C228 O230 1.256 . S
O229 Cd221 2.381 . S
O229 C228 1.258 . S
O230 Cd221 2.378 . S
O230 C228 1.256 . S
O231 Cd232 2.300 . S
O231 C238 1.275 . S
Cd232 O231 2.300 . S
Cd232 O240 2.381 . S
Cd232 O241 2.378 . S
O233 Cd234 2.385 . S
O233 C238 1.255 . S
Cd234 O233 2.385 . S
Cd234 O235 2.317 . S
O235 Cd234 2.317 . S
O235 C236 1.232 . S
C236 O235 1.232 . S
C236 O237 1.218 . S
O237 C236 1.218 . S
C238 O231 1.275 . S
C238 O233 1.255 . S
C239 O240 1.258 . S
C239 O241 1.256 . S
O240 Cd232 2.381 . S
O240 C239 1.258 . S
O241 Cd232 2.378 . S
O241 C239 1.256 . S
O242 Cd243 2.300 . S
O242 C249 1.275 . S
Cd243 O242 2.300 . S
Cd243 O251 2.381 . S
Cd243 O252 2.378 . S
O244 Cd245 2.385 . S
O244 C249 1.255 . S
Cd245 O244 2.385 . S
Cd245 O246 2.317 . S
O246 Cd245 2.317 . S
O246 C247 1.232 . S
C247 O246 1.232 . S
C247 O248 1.218 . S
O248 C247 1.218 . S
C249 O242 1.275 . S
C249 O244 1.255 . S
C250 O251 1.258 . S
C250 O252 1.256 . S
O251 Cd243 2.381 . S
O251 C250 1.258 . S
O252 Cd243 2.378 . S
O252 C250 1.256 . S
O253 Cd254 2.300 . S
O253 C260 1.275 . S
Cd254 O253 2.300 . S
Cd254 O262 2.381 1_565 S
Cd254 O263 2.378 1_565 S
O255 Cd256 2.385 . S
O255 C260 1.255 . S
Cd256 O255 2.385 . S
Cd256 O257 2.317 . S
O257 Cd256 2.317 . S
O257 C258 1.232 . S
C258 O257 1.232 . S
C258 O259 1.218 . S
O259 C258 1.218 . S
C260 O253 1.275 . S
C260 O255 1.255 . S
C261 O262 1.258 . S
C261 O263 1.256 . S
O262 Cd254 2.381 1_545 S
O262 C261 1.258 . S
O263 Cd254 2.378 1_545 S
O263 C261 1.256 . S
O264 Cd265 2.300 . S
O264 C271 1.275 . S
Cd265 O264 2.300 . S
Cd265 O273 2.381 1_565 S
Cd265 O274 2.378 1_565 S
O266 Cd267 2.385 . S
O266 C271 1.255 . S
Cd267 O266 2.385 . S
Cd267 O268 2.317 . S
O268 Cd267 2.317 . S
O268 C269 1.232 . S
C269 O268 1.232 . S
C269 O270 1.218 . S
O270 C269 1.218 . S
C271 O264 1.275 . S
C271 O266 1.255 . S
C272 O273 1.258 . S
C272 O274 1.256 . S
O273 Cd265 2.381 1_545 S
O273 C272 1.258 . S
O274 Cd265 2.378 1_545 S
O274 C272 1.256 . S
O275 Cd276 2.300 1_545 S
O275 C282 1.275 . S
Cd276 O275 2.300 1_565 S
Cd276 O284 2.381 . S
Cd276 O285 2.378 . S
O277 Cd278 2.385 . S
O277 C282 1.255 . S
Cd278 O277 2.385 . S
Cd278 O279 2.317 . S
O279 Cd278 2.317 . S
O279 C280 1.232 . S
C280 O279 1.232 . S
C280 O281 1.218 . S
O281 C280 1.218 . S
C282 O275 1.275 . S
C282 O277 1.255 . S
C283 O284 1.258 . S
C283 O285 1.256 . S
O284 Cd276 2.381 . S
O284 C283 1.258 . S
O285 Cd276 2.378 . S
O285 C283 1.256 . S
O286 Cd287 2.300 . S
O286 C293 1.275 . S
Cd287 O286 2.300 . S
Cd287 O295 2.381 1_545 S
Cd287 O296 2.378 1_545 S
O288 Cd289 2.385 . S
O288 C293 1.255 . S
Cd289 O288 2.385 . S
Cd289 O290 2.317 . S
O290 Cd289 2.317 . S
O290 C291 1.232 . S
C291 O290 1.232 . S
C291 O292 1.218 . S
O292 C291 1.218 . S
C293 O286 1.275 . S
C293 O288 1.255 . S
C294 O295 1.258 . S
C294 O296 1.256 . S
O295 Cd287 2.381 1_565 S
O295 C294 1.258 . S
O296 Cd287 2.378 1_565 S
O296 C294 1.256 . S
O297 Cd298 2.300 1_556 S
O297 C304 1.275 . S
Cd298 O297 2.300 1_554 S
Cd298 O306 2.381 . S
Cd298 O307 2.378 . S
O299 Cd300 2.385 . S
O299 C304 1.255 . S
Cd300 O299 2.385 . S
Cd300 O301 2.317 . S
O301 Cd300 2.317 . S
O301 C302 1.232 . S
C302 O301 1.232 . S
C302 O303 1.218 . S
O303 C302 1.218 . S
C304 O297 1.275 . S
C304 O299 1.255 . S
C305 O306 1.258 . S
C305 O307 1.256 . S
O306 Cd298 2.381 . S
O306 C305 1.258 . S
O307 Cd298 2.378 . S
O307 C305 1.256 . S
O308 Cd309 2.300 . S
O308 C315 1.275 . S
Cd309 O308 2.300 . S
Cd309 O317 2.381 . S
Cd309 O318 2.378 . S
O310 Cd311 2.385 . S
O310 C315 1.255 . S
Cd311 O310 2.385 . S
Cd311 O312 2.317 . S
O312 Cd311 2.317 . S
O312 C313 1.232 . S
C313 O312 1.232 . S
C313 O314 1.218 . S
O314 C313 1.218 . S
C315 O308 1.275 . S
C315 O310 1.255 . S
C316 O317 1.258 . S
C316 O318 1.256 . S
O317 Cd309 2.381 . S
O317 C316 1.258 . S
O318 Cd309 2.378 . S
O318 C316 1.256 . S
O319 Cd320 2.300 . S
O319 C326 1.275 . S
Cd320 O319 2.300 . S
Cd320 O328 2.381 . S
Cd320 O329 2.378 . S
O321 Cd322 2.385 . S
O321 C326 1.255 . S
Cd322 O321 2.385 . S
Cd322 O323 2.317 . S
O323 Cd322 2.317 . S
O323 C324 1.232 . S
C324 O323 1.232 . S
C324 O325 1.218 . S
O325 C324 1.218 . S
C326 O319 1.275 . S
C326 O321 1.255 . S
C327 O328 1.258 . S
C327 O329 1.256 . S
O328 Cd320 2.381 . S
O328 C327 1.258 . S
O329 Cd320 2.378 . S
O329 C327 1.256 . S
O330 Cd331 2.300 . S
O330 C337 1.275 . S
Cd331 O330 2.300 . S
Cd331 O339 2.381 . S
Cd331 O340 2.378 . S
O332 Cd333 2.385 . S
O332 C337 1.255 . S
Cd333 O332 2.385 . S
Cd333 O334 2.317 . S
O334 Cd333 2.317 . S
O334 C335 1.232 . S
C335 O334 1.232 . S
C335 O336 1.218 . S
O336 C335 1.218 . S
C337 O330 1.275 . S
C337 O332 1.255 . S
C338 O339 1.258 . S
C338 O340 1.256 . S
O339 Cd331 2.381 . S
O339 C338 1.258 . S
O340 Cd331 2.378 . S
O340 C338 1.256 . S
O341 Cd342 2.300 . S
O341 C348 1.275 . S
Cd342 O341 2.300 . S
Cd342 O350 2.381 1_655 S
Cd342 O351 2.378 1_655 S
O343 Cd344 2.385 . S
O343 C348 1.255 . S
Cd344 O343 2.385 . S
Cd344 O345 2.317 . S
O345 Cd344 2.317 . S
O345 C346 1.232 . S
C346 O345 1.232 . S
C346 O347 1.218 . S
O347 C346 1.218 . S
C348 O341 1.275 . S
C348 O343 1.255 . S
C349 O350 1.258 . S
C349 O351 1.256 . S
O350 Cd342 2.381 1_455 S
O350 C349 1.258 . S
O351 Cd342 2.378 1_455 S
O351 C349 1.256 . S
O352 Cd353 2.300 . S
O352 C359 1.275 . S
Cd353 O352 2.300 . S
Cd353 O361 2.381 . S
Cd353 O362 2.378 . S
O354 Cd355 2.385 . S
O354 C359 1.255 . S
Cd355 O354 2.385 . S
Cd355 O356 2.317 . S
O356 Cd355 2.317 . S
O356 C357 1.232 . S
C357 O356 1.232 . S
C357 O358 1.218 . S
O358 C357 1.218 . S
C359 O352 1.275 . S
C359 O354 1.255 . S
C360 O361 1.258 . S
C360 O362 1.256 . S
O361 Cd353 2.381 . S
O361 C360 1.258 . S
O362 Cd353 2.378 . S
O362 C360 1.256 . S
O363 Cd364 2.300 . S
O363 C370 1.275 . S
Cd364 O363 2.300 . S
Cd364 O372 2.381 . S
Cd364 O373 2.378 . S
O365 Cd366 2.385 1_556 S
O365 C370 1.255 . S
Cd366 O365 2.385 1_554 S
Cd366 O367 2.317 . S
O367 Cd366 2.317 . S
O367 C368 1.232 . S
C368 O367 1.232 . S
C368 O369 1.218 . S
O369 C368 1.218 . S
C370 O363 1.275 . S
C370 O365 1.255 . S
C371 O372 1.258 . S
C371 O373 1.256 . S
O372 Cd364 2.381 . S
O372 C371 1.258 . S
O373 Cd364 2.378 . S
O373 C371 1.256 . S
O374 Cd375 2.300 . S
O374 C381 1.275 . S
Cd375 O374 2.300 . S
Cd375 O383 2.381 . S
Cd375 O384 2.378 . S
O376 Cd377 2.385 . S
O376 C381 1.255 . S
Cd377 O376 2.385 . S
Cd377 O378 2.317 . S
O378 Cd377 2.317 . S
O378 C379 1.232 . S
C379 O378 1.232 . S
C379 O380 1.218 . S
O380 C379 1.218 . S
C381 O374 1.275 . S
C381 O376 1.255 . S
C382 O383 1.258 . S
C382 O384 1.256 . S
O383 Cd375 2.381 . S
O383 C382 1.258 . S
O384 Cd375 2.378 . S
O384 C382 1.256 . S
O385 Cd386 2.300 . S
O385 C392 1.275 . S
Cd386 O385 2.300 . S
Cd386 O394 2.381 . S
Cd386 O395 2.378 . S
O387 Cd388 2.385 . S
O387 C392 1.255 . S
Cd388 O387 2.385 . S
Cd388 O389 2.317 . S
O389 Cd388 2.317 . S
O389 C390 1.232 . S
C390 O389 1.232 . S
C390 O391 1.218 . S
O391 C390 1.218 . S
C392 O385 1.275 . S
C392 O387 1.255 . S
C393 O394 1.258 . S
C393 O395 1.256 . S
O394 Cd386 2.381 . S
O394 C393 1.258 . S
O395 Cd386 2.378 . S
O395 C393 1.256 . S
O396 Cd397 2.300 . S
O396 C403 1.275 . S
Cd397 O396 2.300 . S
Cd397 O405 2.381 . S
Cd397 O406 2.378 . S
O398 Cd399 2.385 . S
O398 C403 1.255 . S
Cd399 O398 2.385 . S
Cd399 O400 2.317 . S
O400 Cd399 2.317 . S
O400 C401 1.232 . S
C401 O400 1.232 . S
C401 O402 1.218 . S
O402 C401 1.218 . S
C403 O396 1.275 . S
C403 O398 1.255 . S
C404 O405 1.258 . S
C404 O406 1.256 . S
O405 Cd397 2.381 . S
O405 C404 1.258 . S
O406 Cd397 2.378 . S
O406 C404 1.256 . S
O407 Cd408 2.300 . S
O407 C414 1.275 . S
Cd408 O407 2.300 . S
Cd408 O416 2.381 . S
Cd408 O417 2.378 . S
O409 Cd410 2.385 . S
O409 C414 1.255 . S
Cd410 O409 2.385 . S
Cd410 O411 2.317 . S
O411 Cd410 2.317 . S
O411 C412 1.232 . S
C412 O411 1.232 . S
C412 O413 1.218 . S
O413 C412 1.218 . S
C414 O407 1.275 . S
C414 O409 1.255 . S
C415 O416 1.258 . S
C415 O417 1.256 . S
O416 Cd408 2.381 . S
O416 C415 1.258 . S
O417 Cd408 2.378 . S
O417 C415 1.256 . S
O418 Cd419 2.300 . S
O418 C425 1.275 . S
Cd419 O418 2.300 . S
Cd419 O427 2.381 . S
Cd419 O428 2.378 . S
O420 Cd421 2.385 . S
O420 C425 1.255 . S
Cd421 O420 2.385 . S
Cd421 O422 2.317 . S
O422 Cd421 2.317 . S
O422 C423 1.232 . S
C423 O422 1.232 . S
C423 O424 1.218 . S
O424 C423 1.218 . S
C425 O418 1.275 . S
C425 O420 1.255 . S
C426 O427 1.258 . S
C426 O428 1.256 . S
O427 Cd419 2.381 . S
O427 C426 1.258 . S
O428 Cd419 2.378 . S
O428 C426 1.256 . S
O429 Cd430 2.300 . S
O429 C436 1.275 . S
Cd430 O429 2.300 . S
Cd430 O438 2.381 . S
Cd430 O439 2.378 . S
O431 Cd432 2.385 . S
O431 C436 1.255 . S
Cd432 O431 2.385 . S
Cd432 O433 2.317 . S
O433 Cd432 2.317 . S
O433 C434 1.232 . S
C434 O433 1.232 . S
C434 O435 1.218 . S
O435 C434 1.218 . S
C436 O429 1.275 . S
C436 O431 1.255 . S
C437 O438 1.258 . S
C437 O439 1.256 . S
O438 Cd430 2.381 . S
O438 C437 1.258 . S
O439 Cd430 2.378 . S
O439 C437 1.256 . S
O440 Cd441 2.300 . S
O440 C447 1.275 . S
Cd441 O440 2.300 . S
Cd441 O449 2.381 . S
Cd441 O450 2.378 . S
O442 Cd443 2.385 . S
O442 C447 1.255 . S
Cd443 O442 2.385 . S
Cd443 O444 2.317 1_455 S
O444 Cd443 2.317 1_655 S
O444 C445 1.232 . S
C445 O444 1.232 . S
C445 O446 1.218 . S
O446 C445 1.218 . S
C447 O440 1.275 . S
C447 O442 1.255 . S
C448 O449 1.258 . S
C448 O450 1.256 . S
O449 Cd441 2.381 . S
O449 C448 1.258 . S
O450 Cd441 2.378 . S
O450 C448 1.256 . S
O451 Cd452 2.300 . S
O451 C458 1.275 . S
Cd452 O451 2.300 . S
Cd452 O460 2.381 . S
Cd452 O461 2.378 . S
O453 Cd454 2.385 . S
O453 C458 1.255 . S
Cd454 O453 2.385 . S
Cd454 O455 2.317 . S
O455 Cd454 2.317 . S
O455 C456 1.232 . S
C456 O455 1.232 . S
C456 O457 1.218 . S
O457 C456 1.218 . S
C458 O451 1.275 . S
C458 O453 1.255 . S
C459 O460 1.258 . S
C459 O461 1.256 . S
O460 Cd452 2.381 . S
O460 C459 1.258 . S
O461 Cd452 2.378 . S
O461 C459 1.256 . S
O462 Cd463 2.300 . S
O462 C469 1.275 . S
Cd463 O462 2.300 . S
Cd463 O471 2.381 . S
Cd463 O472 2.378 . S
O464 Cd465 2.385 1_554 S
O464 C469 1.255 . S
Cd465 O464 2.385 1_556 S
Cd465 O466 2.317 . S
O466 Cd465 2.317 . S
O466 C467 1.232 . S
C467 O466 1.232 . S
C467 O468 1.218 . S
O468 C467 1.218 . S
C469 O462 1.275 . S
C469 O464 1.255 . S
C470 O471 1.258 . S
C470 O472 1.256 . S
O471 Cd463 2.381 . S
O471 C470 1.258 . S
O472 Cd463 2.378 . S
O472 C470 1.256 . S
O473 Cd474 2.300 . S
O473 C480 1.275 . S
Cd474 O473 2.300 . S
Cd474 O482 2.381 . S
Cd474 O483 2.378 . S
O475 Cd476 2.385 . S
O475 C480 1.255 . S
Cd476 O475 2.385 . S
Cd476 O477 2.317 . S
O477 Cd476 2.317 . S
O477 C478 1.232 . S
C478 O477 1.232 . S
C478 O479 1.218 . S
O479 C478 1.218 . S
C480 O473 1.275 . S
C480 O475 1.255 . S
C481 O482 1.258 . S
C481 O483 1.256 . S
O482 Cd474 2.381 . S
O482 C481 1.258 . S
O483 Cd474 2.378 . S
O483 C481 1.256 . S
O484 Cd485 2.300 . S
O484 C491 1.275 . S
Cd485 O484 2.300 . S
Cd485 O493 2.381 . S
Cd485 O494 2.378 . S
O486 Cd487 2.385 . S
O486 C491 1.255 . S
Cd487 O486 2.385 . S
Cd487 O488 2.317 . S
O488 Cd487 2.317 . S
O488 C489 1.232 . S
C489 O488 1.232 . S
C489 O490 1.218 . S
O490 C489 1.218 . S
C491 O484 1.275 . S
C491 O486 1.255 . S
C492 O493 1.258 . S
C492 O494 1.256 . S
O493 Cd485 2.381 . S
O493 C492 1.258 . S
O494 Cd485 2.378 . S
O494 C492 1.256 . S
O495 Cd496 2.300 . S
O495 C502 1.275 . S
Cd496 O495 2.300 . S
Cd496 O504 2.381 . S
Cd496 O505 2.378 . S
O497 Cd498 2.385 . S
O497 C502 1.255 . S
Cd498 O497 2.385 . S
Cd498 O499 2.317 . S
O499 Cd498 2.317 . S
O499 C500 1.232 . S
C500 O499 1.232 . S
C500 O501 1.218 . S
O501 C500 1.218 . S
C502 O495 1.275 . S
C502 O497 1.255 . S
C503 O504 1.258 . S
C503 O505 1.256 . S
O504 Cd496 2.381 . S
O504 C503 1.258 . S
O505 Cd496 2.378 . S
O505 C503 1.256 . S
O506 Cd507 2.300 . S
O506 C513 1.275 . S
Cd507 O506 2.300 . S
Cd507 O515 2.381 . S
Cd507 O516 2.378 . S
O508 Cd509 2.385 . S
O508 C513 1.255 . S
Cd509 O508 2.385 . S
Cd509 O510 2.317 . S
O510 Cd509 2.317 . S
O510 C511 1.232 . S
C511 O510 1.232 . S
C511 O512 1.218 . S
O512 C511 1.218 . S
C513 O506 1.275 . S
C513 O508 1.255 . S
C514 O515 1.258 . S
C514 O516 1.256 . S
O515 Cd507 2.381 . S
O515 C514 1.258 . S
O516 Cd507 2.378 . S
O516 C514 1.256 . S
O517 Cd518 2.300 . S
O517 C524 1.275 . S
Cd518 O517 2.300 . S
Cd518 O526 2.381 . S
Cd518 O527 2.378 . S
O519 Cd520 2.385 . S
O519 C524 1.255 . S
Cd520 O519 2.385 . S
Cd520 O521 2.317 . S
O521 Cd520 2.317 . S
O521 C522 1.232 . S
C522 O521 1.232 . S
C522 O523 1.218 . S
O523 C522 1.218 . S
C524 O517 1.275 . S
C524 O519 1.255 . S
C525 O526 1.258 . S
C525 O527 1.256 . S
O526 Cd518 2.381 . S
O526 C525 1.258 . S
O527 Cd518 2.378 . S
O527 C525 1.256 . S
H528 C529 0.949 . S
C529 H528 0.949 . S
C529 C530 1.395 . S
C529 C531 1.391 . S
C530 C529 1.395 . S
C530 C533 1.390 . S
C531 C529 1.391 . S
C531 C535 1.387 . S
C531 C536 1.491 . S
H532 C533 0.950 . S
C533 C530 1.390 . S
C533 H532 0.950 . S
C533 C534 1.378 . S
C534 C533 1.378 . S
C534 C535 1.409 . S
C535 C531 1.387 . S
C535 C534 1.409 . S
C535 H537 0.951 . S
C536 C531 1.491 . S
C536 C538 1.382 . S
C536 C540 1.404 . S
H537 C535 0.951 . S
C538 C536 1.382 . S
C538 C539 1.390 . S
C538 H543 0.949 . S
C539 C538 1.390 . S
C539 C544 1.399 . S
C540 C536 1.404 . S
C540 H541 0.950 . S
C540 C542 1.375 . S
H541 C540 0.950 . S
C542 C540 1.375 . S
C542 C544 1.382 . S
C542 H546 0.950 . S
H543 C538 0.949 . S
C544 C539 1.399 . S
C544 C542 1.382 . S
C544 H545 0.952 . S
H545 C544 0.952 . S
H546 C542 0.950 . S
H547 C548 0.949 . S
C548 H547 0.949 . S
C548 C549 1.395 . S
C548 C550 1.391 . S
C549 C548 1.395 . S
C549 C552 1.390 . S
C550 C548 1.391 . S
C550 C554 1.387 . S
C550 C555 1.491 . S
H551 C552 0.950 . S
C552 C549 1.390 . S
C552 H551 0.950 . S
C552 C553 1.378 . S
C553 C552 1.378 . S
C553 C554 1.409 . S
C554 C550 1.387 . S
C554 C553 1.409 . S
C554 H556 0.951 . S
C555 C550 1.491 . S
C555 C557 1.382 . S
C555 C559 1.404 . S
H556 C554 0.951 . S
C557 C555 1.382 . S
C557 C558 1.390 . S
C557 H562 0.949 . S
C558 C557 1.390 . S
C558 C563 1.399 . S
C559 C555 1.404 . S
C559 H560 0.950 . S
C559 C561 1.375 . S
H560 C559 0.950 . S
C561 C559 1.375 . S
C561 C563 1.382 . S
C561 H565 0.950 . S
H562 C557 0.949 . S
C563 C558 1.399 . S
C563 C561 1.382 . S
C563 H564 0.952 . S
H564 C563 0.952 . S
H565 C561 0.950 . S
H566 C567 0.949 . S
C567 H566 0.949 . S
C567 C568 1.395 . S
C567 C569 1.391 . S
C568 C567 1.395 . S
C568 C571 1.390 . S
C569 C567 1.391 . S
C569 C573 1.387 . S
C569 C574 1.491 . S
H570 C571 0.950 . S
C571 C568 1.390 . S
C571 H570 0.950 . S
C571 C572 1.378 . S
C572 C571 1.378 . S
C572 C573 1.409 . S
C573 C569 1.387 . S
C573 C572 1.409 . S
C573 H575 0.951 . S
C574 C569 1.491 . S
C574 C576 1.382 . S
C574 C578 1.404 . S
H575 C573 0.951 . S
C576 C574 1.382 . S
C576 C577 1.390 . S
C576 H581 0.949 . S
C577 C576 1.390 . S
C577 C582 1.399 . S
C578 C574 1.404 . S
C578 H579 0.950 . S
C578 C580 1.375 . S
H579 C578 0.950 . S
C580 C578 1.375 . S
C580 C582 1.382 . S
C580 H584 0.950 . S
H581 C576 0.949 . S
C582 C577 1.399 . S
C582 C580 1.382 . S
C582 H583 0.952 . S
H583 C582 0.952 . S
H584 C580 0.950 . S
H585 C586 0.949 . S
C586 H585 0.949 . S
C586 C587 1.395 . S
C586 C588 1.391 . S
C587 C586 1.395 . S
C587 C590 1.390 . S
C588 C586 1.391 . S
C588 C592 1.387 . S
C588 C593 1.491 . S
H589 C590 0.950 . S
C590 C587 1.390 . S
C590 H589 0.950 . S
C590 C591 1.378 . S
C591 C590 1.378 . S
C591 C592 1.409 . S
C592 C588 1.387 . S
C592 C591 1.409 . S
C592 H594 0.951 . S
C593 C588 1.491 . S
C593 C595 1.382 . S
C593 C597 1.404 . S
H594 C592 0.951 . S
C595 C593 1.382 . S
C595 C596 1.390 . S
C595 H600 0.949 . S
C596 C595 1.390 . S
C596 C601 1.399 . S
C597 C593 1.404 . S
C597 H598 0.950 . S
C597 C599 1.375 . S
H598 C597 0.950 . S
C599 C597 1.375 . S
C599 C601 1.382 . S
C599 H603 0.950 . S
H600 C595 0.949 . S
C601 C596 1.399 . S
C601 C599 1.382 . S
C601 H602 0.952 . S
H602 C601 0.952 . S
H603 C599 0.950 . S
H604 C605 0.949 . S
C605 H604 0.949 . S
C605 C606 1.395 . S
C605 C607 1.391 . S
C606 C605 1.395 . S
C606 C609 1.390 . S
C607 C605 1.391 . S
C607 C611 1.387 . S
C607 C612 1.491 . S
H608 C609 0.950 . S
C609 C606 1.390 . S
C609 H608 0.950 . S
C609 C610 1.378 . S
C610 C609 1.378 . S
C610 C611 1.409 . S
C611 C607 1.387 . S
C611 C610 1.409 . S
C611 H613 0.951 . S
C612 C607 1.491 . S
C612 C614 1.382 . S
C612 C616 1.404 . S
H613 C611 0.951 . S
C614 C612 1.382 . S
C614 C615 1.390 . S
C614 H619 0.949 . S
C615 C614 1.390 . S
C615 C620 1.399 . S
C616 C612 1.404 . S
C616 H617 0.950 . S
C616 C618 1.375 . S
H617 C616 0.950 . S
C618 C616 1.375 . S
C618 C620 1.382 . S
C618 H622 0.950 . S
H619 C614 0.949 . S
C620 C615 1.399 . S
C620 C618 1.382 . S
C620 H621 0.952 . S
H621 C620 0.952 . S
H622 C618 0.950 . S
H623 C624 0.949 . S
C624 H623 0.949 . S
C624 C625 1.395 . S
C624 C626 1.391 . S
C625 C624 1.395 . S
C625 C628 1.390 . S
C626 C624 1.391 . S
C626 C630 1.387 . S
C626 C631 1.491 . S
H627 C628 0.950 . S
C628 C625 1.390 . S
C628 H627 0.950 . S
C628 C629 1.378 . S
C629 C628 1.378 . S
C629 C630 1.409 . S
C630 C626 1.387 . S
C630 C629 1.409 . S
C630 H632 0.951 . S
C631 C626 1.491 . S
C631 C633 1.382 . S
C631 C635 1.404 . S
H632 C630 0.951 . S
C633 C631 1.382 . S
C633 C634 1.390 . S
C633 H638 0.949 . S
C634 C633 1.390 . S
C634 C639 1.399 . S
C635 C631 1.404 . S
C635 H636 0.950 . S
C635 C637 1.375 . S
H636 C635 0.950 . S
C637 C635 1.375 . S
C637 C639 1.382 . S
C637 H641 0.950 . S
H638 C633 0.949 . S
C639 C634 1.399 . S
C639 C637 1.382 . S
C639 H640 0.952 . S
H640 C639 0.952 . S
H641 C637 0.950 . S
H642 C643 0.949 . S
C643 H642 0.949 . S
C643 C644 1.395 . S
C643 C645 1.391 . S
C644 C643 1.395 . S
C644 C647 1.390 . S
C645 C643 1.391 . S
C645 C649 1.387 . S
C645 C650 1.491 . S
H646 C647 0.950 . S
C647 C644 1.390 . S
C647 H646 0.950 . S
C647 C648 1.378 . S
C648 C647 1.378 . S
C648 C649 1.409 . S
C649 C645 1.387 . S
C649 C648 1.409 . S
C649 H651 0.951 . S
C650 C645 1.491 . S
C650 C652 1.382 . S
C650 C654 1.404 . S
H651 C649 0.951 . S
C652 C650 1.382 . S
C652 C653 1.390 . S
C652 H657 0.949 . S
C653 C652 1.390 . S
C653 C658 1.399 . S
C654 C650 1.404 . S
C654 H655 0.950 . S
C654 C656 1.375 . S
H655 C654 0.950 . S
C656 C654 1.375 . S
C656 C658 1.382 . S
C656 H660 0.950 . S
H657 C652 0.949 . S
C658 C653 1.399 . S
C658 C656 1.382 . S
C658 H659 0.952 . S
H659 C658 0.952 . S
H660 C656 0.950 . S
H661 C662 0.949 . S
C662 H661 0.949 . S
C662 C663 1.395 . S
C662 C664 1.391 . S
C663 C662 1.395 . S
C663 C666 1.390 . S
C664 C662 1.391 . S
C664 C668 1.387 . S
C664 C669 1.491 . S
H665 C666 0.950 . S
C666 C663 1.390 . S
C666 H665 0.950 . S
C666 C667 1.378 . S
C667 C666 1.378 . S
C667 C668 1.409 . S
C668 C664 1.387 . S
C668 C667 1.409 . S
C668 H670 0.951 . S
C669 C664 1.491 . S
C669 C671 1.382 . S
C669 C673 1.404 . S
H670 C668 0.951 . S
C671 C669 1.382 . S
C671 C672 1.390 . S
C671 H676 0.949 . S
C672 C671 1.390 . S
C672 C677 1.399 . S
C673 C669 1.404 . S
C673 H674 0.950 . S
C673 C675 1.375 . S
H674 C673 0.950 . S
C675 C673 1.375 . S
C675 C677 1.382 . S
C675 H679 0.950 . S
H676 C671 0.949 . S
C677 C672 1.399 . S
C677 C675 1.382 . S
C677 H678 0.952 . S
H678 C677 0.952 . S
H679 C675 0.950 . S
H680 C681 0.949 . S
C681 H680 0.949 . S
C681 C682 1.395 . S
C681 C683 1.391 . S
C682 C681 1.395 . S
C682 C685 1.390 . S
C683 C681 1.391 . S
C683 C687 1.387 . S
C683 C688 1.491 . S
H684 C685 0.950 . S
C685 C682 1.390 . S
C685 H684 0.950 . S
C685 C686 1.378 . S
C686 C685 1.378 . S
C686 C687 1.409 . S
C687 C683 1.387 . S
C687 C686 1.409 . S
C687 H689 0.951 . S
C688 C683 1.491 . S
C688 C690 1.382 . S
C688 C692 1.404 . S
H689 C687 0.951 . S
C690 C688 1.382 . S
C690 C691 1.390 . S
C690 H695 0.949 . S
C691 C690 1.390 . S
C691 C696 1.399 . S
C692 C688 1.404 . S
C692 H693 0.950 . S
C692 C694 1.375 . S
H693 C692 0.950 . S
C694 C692 1.375 . S
C694 C696 1.382 . S
C694 H698 0.950 . S
H695 C690 0.949 . S
C696 C691 1.399 . S
C696 C694 1.382 . S
C696 H697 0.952 . S
H697 C696 0.952 . S
H698 C694 0.950 . S
H699 C700 0.949 . S
C700 H699 0.949 . S
C700 C701 1.395 . S
C700 C702 1.391 . S
C701 C700 1.395 . S
C701 C704 1.390 . S
C702 C700 1.391 . S
C702 C706 1.387 . S
C702 C707 1.491 . S
H703 C704 0.950 . S
C704 C701 1.390 . S
C704 H703 0.950 . S
C704 C705 1.378 . S
C705 C704 1.378 . S
C705 C706 1.409 . S
C706 C702 1.387 . S
C706 C705 1.409 . S
C706 H708 0.951 . S
C707 C702 1.491 . S
C707 C709 1.382 . S
C707 C711 1.404 . S
H708 C706 0.951 . S
C709 C707 1.382 . S
C709 C710 1.390 . S
C709 H714 0.949 . S
C710 C709 1.390 . S
C710 C715 1.399 . S
C711 C707 1.404 . S
C711 H712 0.950 . S
C711 C713 1.375 . S
H712 C711 0.950 . S
C713 C711 1.375 . S
C713 C715 1.382 . S
C713 H717 0.950 . S
H714 C709 0.949 . S
C715 C710 1.399 . S
C715 C713 1.382 . S
C715 H716 0.952 . S
H716 C715 0.952 . S
H717 C713 0.950 . S
H718 C719 0.949 . S
C719 H718 0.949 . S
C719 C720 1.395 . S
C719 C721 1.391 . S
C720 C719 1.395 . S
C720 C723 1.390 . S
C721 C719 1.391 . S
C721 C725 1.387 . S
C721 C726 1.491 . S
H722 C723 0.950 . S
C723 C720 1.390 . S
C723 H722 0.950 . S
C723 C724 1.378 . S
C724 C723 1.378 . S
C724 C725 1.409 . S
C725 C721 1.387 . S
C725 C724 1.409 . S
C725 H727 0.951 . S
C726 C721 1.491 . S
C726 C728 1.382 . S
C726 C730 1.404 . S
H727 C725 0.951 . S
C728 C726 1.382 . S
C728 C729 1.390 . S
C728 H733 0.949 . S
C729 C728 1.390 . S
C729 C734 1.399 . S
C730 C726 1.404 . S
C730 H731 0.950 . S
C730 C732 1.375 . S
H731 C730 0.950 . S
C732 C730 1.375 . S
C732 C734 1.382 . S
C732 H736 0.950 . S
H733 C728 0.949 . S
C734 C729 1.399 . S
C734 C732 1.382 . S
C734 H735 0.952 . S
H735 C734 0.952 . S
H736 C732 0.950 . S
H737 C738 0.949 . S
C738 H737 0.949 . S
C738 C739 1.395 . S
C738 C740 1.391 . S
C739 C738 1.395 . S
C739 C742 1.390 . S
C740 C738 1.391 . S
C740 C744 1.387 . S
C740 C745 1.491 . S
H741 C742 0.950 . S
C742 C739 1.390 . S
C742 H741 0.950 . S
C742 C743 1.378 . S
C743 C742 1.378 . S
C743 C744 1.409 . S
C744 C740 1.387 . S
C744 C743 1.409 . S
C744 H746 0.951 . S
C745 C740 1.491 . S
C745 C747 1.382 . S
C745 C749 1.404 . S
H746 C744 0.951 . S
C747 C745 1.382 . S
C747 C748 1.390 . S
C747 H752 0.949 . S
C748 C747 1.390 . S
C748 C753 1.399 . S
C749 C745 1.404 . S
C749 H750 0.950 . S
C749 C751 1.375 . S
H750 C749 0.950 . S
C751 C749 1.375 . S
C751 C753 1.382 . S
C751 H755 0.950 . S
H752 C747 0.949 . S
C753 C748 1.399 . S
C753 C751 1.382 . S
C753 H754 0.952 . S
H754 C753 0.952 . S
H755 C751 0.950 . S
H756 C757 0.949 . S
C757 H756 0.949 . S
C757 C758 1.395 . S
C757 C759 1.391 . S
C758 C757 1.395 . S
C758 C761 1.390 . S
C759 C757 1.391 . S
C759 C763 1.387 . S
C759 C764 1.491 . S
H760 C761 0.950 . S
C761 C758 1.390 . S
C761 H760 0.950 . S
C761 C762 1.378 . S
C762 C761 1.378 . S
C762 C763 1.409 . S
C763 C759 1.387 . S
C763 C762 1.409 . S
C763 H765 0.951 . S
C764 C759 1.491 . S
C764 C766 1.382 . S
C764 C768 1.404 . S
H765 C763 0.951 . S
C766 C764 1.382 . S
C766 C767 1.390 . S
C766 H771 0.949 . S
C767 C766 1.390 . S
C767 C772 1.399 . S
C768 C764 1.404 . S
C768 H769 0.950 . S
C768 C770 1.375 . S
H769 C768 0.950 . S
C770 C768 1.375 . S
C770 C772 1.382 . S
C770 H774 0.950 . S
H771 C766 0.949 . S
C772 C767 1.399 . S
C772 C770 1.382 . S
C772 H773 0.952 . S
H773 C772 0.952 . S
H774 C770 0.950 . S
H775 C776 0.949 . S
C776 H775 0.949 . S
C776 C777 1.395 . S
C776 C778 1.391 . S
C777 C776 1.395 . S
C777 C780 1.390 . S
C778 C776 1.391 . S
C778 C782 1.387 . S
C778 C783 1.491 . S
H779 C780 0.950 . S
C780 C777 1.390 . S
C780 H779 0.950 . S
C780 C781 1.378 . S
C781 C780 1.378 . S
C781 C782 1.409 . S
C782 C778 1.387 . S
C782 C781 1.409 . S
C782 H784 0.951 . S
C783 C778 1.491 . S
C783 C785 1.382 . S
C783 C787 1.404 . S
H784 C782 0.951 . S
C785 C783 1.382 . S
C785 C786 1.390 . S
C785 H790 0.949 . S
C786 C785 1.390 . S
C786 C791 1.399 . S
C787 C783 1.404 . S
C787 H788 0.950 . S
C787 C789 1.375 . S
H788 C787 0.950 . S
C789 C787 1.375 . S
C789 C791 1.382 . S
C789 H793 0.950 . S
H790 C785 0.949 . S
C791 C786 1.399 . S
C791 C789 1.382 . S
C791 H792 0.952 . S
H792 C791 0.952 . S
H793 C789 0.950 . S
H794 C795 0.949 . S
C795 H794 0.949 . S
C795 C796 1.395 . S
C795 C797 1.391 . S
C796 C795 1.395 . S
C796 C799 1.390 . S
C797 C795 1.391 . S
C797 C801 1.387 . S
C797 C802 1.491 . S
H798 C799 0.950 . S
C799 C796 1.390 . S
C799 H798 0.950 . S
C799 C800 1.378 . S
C800 C799 1.378 . S
C800 C801 1.409 . S
C801 C797 1.387 . S
C801 C800 1.409 . S
C801 H803 0.951 . S
C802 C797 1.491 . S
C802 C804 1.382 . S
C802 C806 1.404 . S
H803 C801 0.951 . S
C804 C802 1.382 . S
C804 C805 1.390 . S
C804 H809 0.949 . S
C805 C804 1.390 . S
C805 C810 1.399 . S
C806 C802 1.404 . S
C806 H807 0.950 . S
C806 C808 1.375 . S
H807 C806 0.950 . S
C808 C806 1.375 . S
C808 C810 1.382 . S
C808 H812 0.950 . S
H809 C804 0.949 . S
C810 C805 1.399 . S
C810 C808 1.382 . S
C810 H811 0.952 . S
H811 C810 0.952 . S
H812 C808 0.950 . S
H813 C814 0.949 . S
C814 H813 0.949 . S
C814 C815 1.395 . S
C814 C816 1.391 . S
C815 C814 1.395 . S
C815 C818 1.390 . S
C816 C814 1.391 . S
C816 C820 1.387 . S
C816 C821 1.491 . S
H817 C818 0.950 . S
C818 C815 1.390 . S
C818 H817 0.950 . S
C818 C819 1.378 . S
C819 C818 1.378 . S
C819 C820 1.409 . S
C820 C816 1.387 . S
C820 C819 1.409 . S
C820 H822 0.951 . S
C821 C816 1.491 . S
C821 C823 1.382 . S
C821 C825 1.404 . S
H822 C820 0.951 . S
C823 C821 1.382 . S
C823 C824 1.390 . S
C823 H828 0.949 . S
C824 C823 1.390 . S
C824 C829 1.399 . S
C825 C821 1.404 . S
C825 H826 0.950 . S
C825 C827 1.375 . S
H826 C825 0.950 . S
C827 C825 1.375 . S
C827 C829 1.382 . S
C827 H831 0.950 . S
H828 C823 0.949 . S
C829 C824 1.399 . S
C829 C827 1.382 . S
C829 H830 0.952 . S
H830 C829 0.952 . S
H831 C827 0.950 . S
H832 C833 0.949 . S
C833 H832 0.949 . S
C833 C834 1.395 . S
C833 C835 1.391 . S
C834 C833 1.395 . S
C834 C837 1.390 . S
C835 C833 1.391 . S
C835 C839 1.387 . S
C835 C840 1.491 . S
H836 C837 0.950 . S
C837 C834 1.390 . S
C837 H836 0.950 . S
C837 C838 1.378 . S
C838 C837 1.378 . S
C838 C839 1.409 . S
C839 C835 1.387 . S
C839 C838 1.409 . S
C839 H841 0.951 . S
C840 C835 1.491 . S
C840 C842 1.382 . S
C840 C844 1.404 . S
H841 C839 0.951 . S
C842 C840 1.382 . S
C842 C843 1.390 . S
C842 H847 0.949 . S
C843 C842 1.390 . S
C843 C848 1.399 . S
C844 C840 1.404 . S
C844 H845 0.950 . S
C844 C846 1.375 . S
H845 C844 0.950 . S
C846 C844 1.375 . S
C846 C848 1.382 . S
C846 H850 0.950 . S
H847 C842 0.949 . S
C848 C843 1.399 . S
C848 C846 1.382 . S
C848 H849 0.952 . S
H849 C848 0.952 . S
H850 C846 0.950 . S
H851 C852 0.949 . S
C852 H851 0.949 . S
C852 C853 1.395 . S
C852 C854 1.391 . S
C853 C852 1.395 . S
C853 C856 1.390 . S
C854 C852 1.391 . S
C854 C858 1.387 . S
C854 C859 1.491 . S
H855 C856 0.950 . S
C856 C853 1.390 . S
C856 H855 0.950 . S
C856 C857 1.378 . S
C857 C856 1.378 . S
C857 C858 1.409 . S
C858 C854 1.387 . S
C858 C857 1.409 . S
C858 H860 0.951 . S
C859 C854 1.491 . S
C859 C861 1.382 . S
C859 C863 1.404 . S
H860 C858 0.951 . S
C861 C859 1.382 . S
C861 C862 1.390 . S
C861 H866 0.949 . S
C862 C861 1.390 . S
C862 C867 1.399 . S
C863 C859 1.404 . S
C863 H864 0.950 . S
C863 C865 1.375 . S
H864 C863 0.950 . S
C865 C863 1.375 . S
C865 C867 1.382 . S
C865 H869 0.950 . S
H866 C861 0.949 . S
C867 C862 1.399 . S
C867 C865 1.382 . S
C867 H868 0.952 . S
H868 C867 0.952 . S
H869 C865 0.950 . S
H870 C871 0.949 . S
C871 H870 0.949 . S
C871 C872 1.395 . S
C871 C873 1.391 . S
C872 C871 1.395 . S
C872 C875 1.390 . S
C873 C871 1.391 . S
C873 C877 1.387 . S
C873 C878 1.491 . S
H874 C875 0.950 . S
C875 C872 1.390 . S
C875 H874 0.950 . S
C875 C876 1.378 . S
C876 C875 1.378 . S
C876 C877 1.409 . S
C877 C873 1.387 . S
C877 C876 1.409 . S
C877 H879 0.951 . S
C878 C873 1.491 . S
C878 C880 1.382 . S
C878 C882 1.404 . S
H879 C877 0.951 . S
C880 C878 1.382 . S
C880 C881 1.390 . S
C880 H885 0.949 . S
C881 C880 1.390 . S
C881 C886 1.399 . S
C882 C878 1.404 . S
C882 H883 0.950 . S
C882 C884 1.375 . S
H883 C882 0.950 . S
C884 C882 1.375 . S
C884 C886 1.382 . S
C884 H888 0.950 . S
H885 C880 0.949 . S
C886 C881 1.399 . S
C886 C884 1.382 . S
C886 H887 0.952 . S
H887 C886 0.952 . S
H888 C884 0.950 . S
H889 C890 0.949 . S
C890 H889 0.949 . S
C890 C891 1.395 . S
C890 C892 1.391 . S
C891 C890 1.395 . S
C891 C894 1.390 . S
C892 C890 1.391 . S
C892 C896 1.387 . S
C892 C897 1.491 . S
H893 C894 0.950 . S
C894 C891 1.390 . S
C894 H893 0.950 . S
C894 C895 1.378 . S
C895 C894 1.378 . S
C895 C896 1.409 . S
C896 C892 1.387 . S
C896 C895 1.409 . S
C896 H898 0.951 . S
C897 C892 1.491 . S
C897 C899 1.382 . S
C897 C901 1.404 . S
H898 C896 0.951 . S
C899 C897 1.382 . S
C899 C900 1.390 . S
C899 H904 0.949 . S
C900 C899 1.390 . S
C900 C905 1.399 . S
C901 C897 1.404 . S
C901 H902 0.950 . S
C901 C903 1.375 . S
H902 C901 0.950 . S
C903 C901 1.375 . S
C903 C905 1.382 . S
C903 H907 0.950 . S
H904 C899 0.949 . S
C905 C900 1.399 . S
C905 C903 1.382 . S
C905 H906 0.952 . S
H906 C905 0.952 . S
H907 C903 0.950 . S
H908 C909 0.949 . S
C909 H908 0.949 . S
C909 C910 1.395 . S
C909 C911 1.391 . S
C910 C909 1.395 . S
C910 C913 1.390 . S
C911 C909 1.391 . S
C911 C915 1.387 . S
C911 C916 1.491 . S
H912 C913 0.950 . S
C913 C910 1.390 . S
C913 H912 0.950 . S
C913 C914 1.378 . S
C914 C913 1.378 . S
C914 C915 1.409 . S
C915 C911 1.387 . S
C915 C914 1.409 . S
C915 H917 0.951 . S
C916 C911 1.491 . S
C916 C918 1.382 . S
C916 C920 1.404 . S
H917 C915 0.951 . S
C918 C916 1.382 . S
C918 C919 1.390 . S
C918 H923 0.949 . S
C919 C918 1.390 . S
C919 C924 1.399 . S
C920 C916 1.404 . S
C920 H921 0.950 . S
C920 C922 1.375 . S
H921 C920 0.950 . S
C922 C920 1.375 . S
C922 C924 1.382 . S
C922 H926 0.950 . S
H923 C918 0.949 . S
C924 C919 1.399 . S
C924 C922 1.382 . S
C924 H925 0.952 . S
H925 C924 0.952 . S
H926 C922 0.950 . S
H927 C928 0.949 . S
C928 H927 0.949 . S
C928 C929 1.395 . S
C928 C930 1.391 . S
C929 C928 1.395 . S
C929 C932 1.390 . S
C930 C928 1.391 . S
C930 C934 1.387 . S
C930 C935 1.491 . S
H931 C932 0.950 . S
C932 C929 1.390 . S
C932 H931 0.950 . S
C932 C933 1.378 . S
C933 C932 1.378 . S
C933 C934 1.409 . S
C934 C930 1.387 . S
C934 C933 1.409 . S
C934 H936 0.951 . S
C935 C930 1.491 . S
C935 C937 1.382 . S
C935 C939 1.404 . S
H936 C934 0.951 . S
C937 C935 1.382 . S
C937 C938 1.390 . S
C937 H942 0.949 . S
C938 C937 1.390 . S
C938 C943 1.399 . S
C939 C935 1.404 . S
C939 H940 0.950 . S
C939 C941 1.375 . S
H940 C939 0.950 . S
C941 C939 1.375 . S
C941 C943 1.382 . S
C941 H945 0.931 1_655 S
H942 C937 0.949 . S
C943 C938 1.399 . S
C943 C941 1.382 . S
C943 H944 0.952 . S
H944 C943 0.952 . S
H945 C941 0.931 1_455 S
H946 C947 0.949 . S
C947 H946 0.949 . S
C947 C948 1.395 . S
C947 C949 1.391 . S
C948 C947 1.395 . S
C948 C951 1.390 . S
C949 C947 1.391 . S
C949 C953 1.387 . S
C949 C954 1.491 . S
H950 C951 0.950 . S
C951 C948 1.390 . S
C951 H950 0.950 . S
C951 C952 1.378 . S
C952 C951 1.378 . S
C952 C953 1.409 . S
C953 C949 1.387 . S
C953 C952 1.409 . S
C953 H955 0.951 . S
C954 C949 1.491 . S
C954 C956 1.382 . S
C954 C958 1.404 . S
H955 C953 0.951 . S
C956 C954 1.382 . S
C956 C957 1.390 . S
C956 H961 0.949 . S
C957 C956 1.390 . S
C957 C962 1.399 . S
C958 C954 1.404 . S
C958 H959 0.950 . S
C958 C960 1.375 . S
H959 C958 0.950 . S
C960 C958 1.375 . S
C960 C962 1.382 . S
C960 H964 0.950 . S
H961 C956 0.949 . S
C962 C957 1.399 . S
C962 C960 1.382 . S
C962 H963 0.952 . S
H963 C962 0.952 . S
H964 C960 0.950 . S
H965 C966 0.949 . S
C966 H965 0.949 . S
C966 C967 1.395 . S
C966 C968 1.391 . S
C967 C966 1.395 . S
C967 C970 1.390 . S
C968 C966 1.391 . S
C968 C972 1.387 . S
C968 C973 1.491 . S
H969 C970 0.950 . S
C970 C967 1.390 . S
C970 H969 0.950 . S
C970 C971 1.378 . S
C971 C970 1.378 . S
C971 C972 1.409 . S
C972 C968 1.387 . S
C972 C971 1.409 . S
C972 H974 0.951 . S
C973 C968 1.491 . S
C973 C975 1.382 . S
C973 C977 1.404 . S
H974 C972 0.951 . S
C975 C973 1.382 . S
C975 C976 1.390 . S
C975 H980 0.949 . S
C976 C975 1.390 . S
C976 C981 1.399 . S
C977 C973 1.404 . S
C977 H978 0.950 . S
C977 C979 1.375 . S
H978 C977 0.950 . S
C979 C977 1.375 . S
C979 C981 1.382 . S
C979 H983 0.950 . S
H980 C975 0.949 . S
C981 C976 1.399 . S
C981 C979 1.382 . S
C981 H982 0.952 . S
H982 C981 0.952 . S
H983 C979 0.950 . S
H984 C985 0.949 . S
C985 H984 0.949 . S
C985 C986 1.395 . S
C985 C987 1.391 . S
C986 C985 1.395 . S
C986 C989 1.390 . S
C987 C985 1.391 . S
C987 C991 1.387 . S
C987 C992 1.491 . S
H988 C989 0.950 . S
C989 C986 1.390 . S
C989 H988 0.950 . S
C989 C990 1.378 . S
C990 C989 1.378 . S
C990 C991 1.409 . S
C991 C987 1.387 . S
C991 C990 1.409 . S
C991 H993 0.951 . S
C992 C987 1.491 . S
C992 C994 1.382 . S
C992 C996 1.404 . S
H993 C991 0.951 . S
C994 C992 1.382 . S
C994 C995 1.390 . S
C994 H999 0.949 . S
C995 C994 1.390 . S
C995 C1000 1.399 . S
C996 C992 1.404 . S
C996 H997 0.950 . S
C996 C998 1.375 . S
H997 C996 0.950 . S
C998 C996 1.375 . S
C998 C1000 1.382 . S
C998 H1002 0.950 . S
H999 C994 0.949 . S
C1000 C995 1.399 . S
C1000 C998 1.382 . S
C1000 H1001 0.952 . S
H1001 C1000 0.952 . S
H1002 C998 0.950 . S
H1003 C1004 0.949 . S
C1004 H1003 0.949 . S
C1004 C1005 1.395 . S
C1004 C1006 1.391 . S
C1005 C1004 1.395 . S
C1005 C1008 1.390 . S
C1006 C1004 1.391 . S
C1006 C1010 1.387 . S
C1006 C1011 1.491 . S
H1007 C1008 0.950 . S
C1008 C1005 1.390 . S
C1008 H1007 0.950 . S
C1008 C1009 1.378 . S
C1009 C1008 1.378 . S
C1009 C1010 1.409 . S
C1010 C1006 1.387 . S
C1010 C1009 1.409 . S
C1010 H1012 0.951 . S
C1011 C1006 1.491 . S
C1011 C1013 1.382 . S
C1011 C1015 1.404 . S
H1012 C1010 0.951 . S
C1013 C1011 1.382 . S
C1013 C1014 1.390 . S
C1013 H1018 0.949 . S
C1014 C1013 1.390 . S
C1014 C1019 1.399 . S
C1015 C1011 1.404 . S
C1015 H1016 0.950 . S
C1015 C1017 1.375 . S
H1016 C1015 0.950 . S
C1017 C1015 1.375 . S
C1017 C1019 1.382 . S
C1017 H1021 0.950 . S
H1018 C1013 0.949 . S
C1019 C1014 1.399 . S
C1019 C1017 1.382 . S
C1019 H1020 0.952 . S
H1020 C1019 0.952 . S
H1021 C1017 0.950 . S
H1022 C1023 0.949 . S
C1023 H1022 0.949 . S
C1023 C1024 1.395 . S
C1023 C1025 1.391 . S
C1024 C1023 1.395 . S
C1024 C1027 1.390 . S
C1025 C1023 1.391 . S
C1025 C1029 1.387 . S
C1025 C1030 1.491 . S
H1026 C1027 0.950 . S
C1027 C1024 1.390 . S
C1027 H1026 0.950 . S
C1027 C1028 1.378 . S
C1028 C1027 1.378 . S
C1028 C1029 1.409 . S
C1029 C1025 1.387 . S
C1029 C1028 1.409 . S
C1029 H1031 0.951 . S
C1030 C1025 1.491 . S
C1030 C1032 1.382 . S
C1030 C1034 1.404 . S
H1031 C1029 0.951 . S
C1032 C1030 1.382 . S
C1032 C1033 1.390 . S
C1032 H1037 0.949 . S
C1033 C1032 1.390 . S
C1033 C1038 1.399 . S
C1034 C1030 1.404 . S
C1034 H1035 0.950 . S
C1034 C1036 1.375 . S
H1035 C1034 0.950 . S
C1036 C1034 1.375 . S
C1036 C1038 1.382 . S
C1036 H1040 0.950 . S
H1037 C1032 0.949 . S
C1038 C1033 1.399 . S
C1038 C1036 1.382 . S
C1038 H1039 0.952 . S
H1039 C1038 0.952 . S
H1040 C1036 0.950 . S
H1041 C1042 0.949 . S
C1042 H1041 0.949 . S
C1042 C1043 1.395 . S
C1042 C1044 1.391 . S
C1043 C1042 1.395 . S
C1043 C1046 1.390 . S
C1044 C1042 1.391 . S
C1044 C1048 1.387 . S
C1044 C1049 1.491 . S
H1045 C1046 0.950 . S
C1046 C1043 1.390 . S
C1046 H1045 0.950 . S
C1046 C1047 1.378 . S
C1047 C1046 1.378 . S
C1047 C1048 1.409 . S
C1048 C1044 1.387 . S
C1048 C1047 1.409 . S
C1048 H1050 0.951 . S
C1049 C1044 1.491 . S
C1049 C1051 1.382 . S
C1049 C1053 1.404 . S
H1050 C1048 0.951 . S
C1051 C1049 1.382 . S
C1051 C1052 1.390 . S
C1051 H1056 0.949 . S
C1052 C1051 1.390 . S
C1052 C1057 1.399 . S
C1053 C1049 1.404 . S
C1053 H1054 0.950 . S
C1053 C1055 1.375 . S
H1054 C1053 0.950 . S
C1055 C1053 1.375 . S
C1055 C1057 1.382 . S
C1055 H1059 0.950 . S
H1056 C1051 0.949 . S
C1057 C1052 1.399 . S
C1057 C1055 1.382 . S
C1057 H1058 0.952 . S
H1058 C1057 0.952 . S
H1059 C1055 0.950 . S
H1060 C1061 0.949 . S
C1061 H1060 0.949 . S
C1061 C1062 1.395 . S
C1061 C1063 1.391 . S
C1062 C1061 1.395 . S
C1062 C1065 1.390 . S
C1063 C1061 1.391 . S
C1063 C1067 1.387 . S
C1063 C1068 1.491 . S
H1064 C1065 0.950 . S
C1065 C1062 1.390 . S
C1065 H1064 0.950 . S
C1065 C1066 1.378 . S
C1066 C1065 1.378 . S
C1066 C1067 1.409 . S
C1067 C1063 1.387 . S
C1067 C1066 1.409 . S
C1067 H1069 0.951 . S
C1068 C1063 1.491 . S
C1068 C1070 1.382 . S
C1068 C1072 1.404 . S
H1069 C1067 0.951 . S
C1070 C1068 1.382 . S
C1070 C1071 1.390 . S
C1070 H1075 0.949 . S
C1071 C1070 1.390 . S
C1071 C1076 1.399 . S
C1072 C1068 1.404 . S
C1072 H1073 0.950 . S
C1072 C1074 1.375 . S
H1073 C1072 0.950 . S
C1074 C1072 1.375 . S
C1074 C1076 1.382 . S
C1074 H1078 0.950 . S
H1075 C1070 0.949 . S
C1076 C1071 1.399 . S
C1076 C1074 1.382 . S
C1076 H1077 0.952 . S
H1077 C1076 0.952 . S
H1078 C1074 0.950 . S
H1079 C1080 0.949 . S
C1080 H1079 0.949 . S
C1080 C1081 1.395 . S
C1080 C1082 1.391 . S
C1081 C1080 1.395 . S
C1081 C1084 1.390 . S
C1082 C1080 1.391 . S
C1082 C1086 1.387 . S
C1082 C1087 1.491 . S
H1083 C1084 0.950 . S
C1084 C1081 1.390 . S
C1084 H1083 0.950 . S
C1084 C1085 1.378 . S
C1085 C1084 1.378 . S
C1085 C1086 1.409 . S
C1086 C1082 1.387 . S
C1086 C1085 1.409 . S
C1086 H1088 0.951 . S
C1087 C1082 1.491 . S
C1087 C1089 1.382 . S
C1087 C1091 1.404 . S
H1088 C1086 0.951 . S
C1089 C1087 1.382 . S
C1089 C1090 1.390 . S
C1089 H1094 0.949 . S
C1090 C1089 1.390 . S
C1090 C1095 1.399 . S
C1091 C1087 1.404 . S
C1091 H1092 0.950 . S
C1091 C1093 1.375 . S
H1092 C1091 0.950 . S
C1093 C1091 1.375 . S
C1093 C1095 1.382 . S
C1093 H1097 0.950 . S
H1094 C1089 0.949 . S
C1095 C1090 1.399 . S
C1095 C1093 1.382 . S
C1095 H1096 0.952 . S
H1096 C1095 0.952 . S
H1097 C1093 0.950 . S
H1098 C1099 0.949 . S
C1099 H1098 0.949 . S
C1099 C1100 1.395 . S
C1099 C1101 1.391 . S
C1100 C1099 1.395 . S
C1100 C1103 1.390 . S
C1101 C1099 1.391 . S
C1101 C1105 1.387 . S
C1101 C1106 1.491 . S
H1102 C1103 0.950 . S
C1103 C1100 1.390 . S
C1103 H1102 0.950 . S
C1103 C1104 1.378 . S
C1104 C1103 1.378 . S
C1104 C1105 1.409 . S
C1105 C1101 1.387 . S
C1105 C1104 1.409 . S
C1105 H1107 0.951 . S
C1106 C1101 1.491 . S
C1106 C1108 1.382 . S
C1106 C1110 1.404 . S
H1107 C1105 0.951 . S
C1108 C1106 1.382 . S
C1108 C1109 1.390 . S
C1108 H1113 0.949 . S
C1109 C1108 1.390 . S
C1109 C1114 1.399 . S
C1110 C1106 1.404 . S
C1110 H1111 0.950 . S
C1110 C1112 1.375 . S
H1111 C1110 0.950 . S
C1112 C1110 1.375 . S
C1112 C1114 1.382 . S
C1112 H1116 0.950 . S
H1113 C1108 0.949 . S
C1114 C1109 1.399 . S
C1114 C1112 1.382 . S
C1114 H1115 0.952 . S
H1115 C1114 0.952 . S
H1116 C1112 0.950 . S
H1117 C1118 0.949 . S
C1118 H1117 0.949 . S
C1118 C1119 1.395 . S
C1118 C1120 1.391 . S
C1119 C1118 1.395 . S
C1119 C1122 1.390 . S
C1120 C1118 1.391 . S
C1120 C1124 1.387 . S
C1120 C1125 1.491 . S
H1121 C1122 0.950 . S
C1122 C1119 1.390 . S
C1122 H1121 0.950 . S
C1122 C1123 1.378 . S
C1123 C1122 1.378 . S
C1123 C1124 1.409 . S
C1124 C1120 1.387 . S
C1124 C1123 1.409 . S
C1124 H1126 0.951 . S
C1125 C1120 1.491 . S
C1125 C1127 1.382 . S
C1125 C1129 1.404 . S
H1126 C1124 0.951 . S
C1127 C1125 1.382 . S
C1127 C1128 1.390 . S
C1127 H1132 0.949 . S
C1128 C1127 1.390 . S
C1128 C1133 1.399 . S
C1129 C1125 1.404 . S
C1129 H1130 0.950 . S
C1129 C1131 1.375 . S
H1130 C1129 0.950 . S
C1131 C1129 1.375 . S
C1131 C1133 1.382 . S
C1131 H1135 0.950 1_545 S
H1132 C1127 0.949 . S
C1133 C1128 1.399 . S
C1133 C1131 1.382 . S
C1133 H1134 0.952 . S
H1134 C1133 0.952 . S
H1135 C1131 0.950 1_565 S
H1136 C1137 0.949 . S
C1137 H1136 0.949 . S
C1137 C1138 1.395 . S
C1137 C1139 1.391 . S
C1138 C1137 1.395 . S
C1138 C1141 1.390 . S
C1139 C1137 1.391 . S
C1139 C1143 1.387 . S
C1139 C1144 1.491 . S
H1140 C1141 0.950 . S
C1141 C1138 1.390 . S
C1141 H1140 0.950 . S
C1141 C1142 1.378 . S
C1142 C1141 1.378 . S
C1142 C1143 1.409 . S
C1143 C1139 1.387 . S
C1143 C1142 1.409 . S
C1143 H1145 0.951 . S
C1144 C1139 1.491 . S
C1144 C1146 1.382 . S
C1144 C1148 1.404 . S
H1145 C1143 0.951 . S
C1146 C1144 1.382 . S
C1146 C1147 1.390 . S
C1146 H1151 0.949 . S
C1147 C1146 1.390 . S
C1147 C1152 1.399 . S
C1148 C1144 1.404 . S
C1148 H1149 0.950 . S
C1148 C1150 1.375 . S
H1149 C1148 0.950 . S
C1150 C1148 1.375 . S
C1150 C1152 1.382 . S
C1150 H1154 0.950 . S
H1151 C1146 0.949 . S
C1152 C1147 1.399 . S
C1152 C1150 1.382 . S
C1152 H1153 0.952 . S
H1153 C1152 0.952 . S
H1154 C1150 0.950 . S
H1155 C1156 0.949 . S
C1156 H1155 0.949 . S
C1156 C1157 1.395 . S
C1156 C1158 1.391 . S
C1157 C1156 1.395 . S
C1157 C1160 1.390 . S
C1158 C1156 1.391 . S
C1158 C1162 1.387 . S
C1158 C1163 1.491 . S
H1159 C1160 0.950 . S
C1160 C1157 1.390 . S
C1160 H1159 0.950 . S
C1160 C1161 1.378 . S
C1161 C1160 1.378 . S
C1161 C1162 1.409 . S
C1162 C1158 1.387 . S
C1162 C1161 1.409 . S
C1162 H1164 0.951 . S
C1163 C1158 1.491 . S
C1163 C1165 1.382 . S
C1163 C1167 1.404 . S
H1164 C1162 0.951 . S
C1165 C1163 1.382 . S
C1165 C1166 1.390 . S
C1165 H1170 0.949 . S
C1166 C1165 1.390 . S
C1166 C1171 1.399 . S
C1167 C1163 1.404 . S
C1167 H1168 0.950 . S
C1167 C1169 1.375 . S
H1168 C1167 0.950 . S
C1169 C1167 1.375 . S
C1169 C1171 1.382 . S
C1169 H1173 0.950 . S
H1170 C1165 0.949 . S
C1171 C1166 1.399 . S
C1171 C1169 1.382 . S
C1171 H1172 0.952 . S
H1172 C1171 0.952 . S
H1173 C1169 0.950 . S
H1174 C1175 0.949 . S
C1175 H1174 0.949 . S
C1175 C1176 1.395 . S
C1175 C1177 1.391 . S
C1176 C1175 1.395 . S
C1176 C1179 1.390 . S
C1177 C1175 1.391 . S
C1177 C1181 1.387 . S
C1177 C1182 1.491 . S
H1178 C1179 0.950 . S
C1179 C1176 1.390 . S
C1179 H1178 0.950 . S
C1179 C1180 1.378 . S
C1180 C1179 1.378 . S
C1180 C1181 1.409 . S
C1181 C1177 1.387 . S
C1181 C1180 1.409 . S
C1181 H1183 0.951 . S
C1182 C1177 1.491 . S
C1182 C1184 1.382 . S
C1182 C1186 1.404 . S
H1183 C1181 0.951 . S
C1184 C1182 1.382 . S
C1184 C1185 1.390 . S
C1184 H1189 0.949 . S
C1185 C1184 1.390 . S
C1185 C1190 1.399 . S
C1186 C1182 1.404 . S
C1186 H1187 0.950 . S
C1186 C1188 1.375 . S
H1187 C1186 0.950 . S
C1188 C1186 1.375 . S
C1188 C1190 1.382 . S
C1188 H1192 0.950 . S
H1189 C1184 0.949 . S
C1190 C1185 1.399 . S
C1190 C1188 1.382 . S
C1190 H1191 0.952 . S
H1191 C1190 0.952 . S
H1192 C1188 0.950 . S
H1193 C1194 0.949 . S
C1194 H1193 0.949 . S
C1194 C1195 1.395 . S
C1194 C1196 1.391 . S
C1195 C1194 1.395 . S
C1195 C1198 1.390 . S
C1196 C1194 1.391 . S
C1196 C1200 1.387 . S
C1196 C1201 1.491 . S
H1197 C1198 0.950 . S
C1198 C1195 1.390 . S
C1198 H1197 0.950 . S
C1198 C1199 1.378 . S
C1199 C1198 1.378 . S
C1199 C1200 1.409 . S
C1200 C1196 1.387 . S
C1200 C1199 1.409 . S
C1200 H1202 0.951 . S
C1201 C1196 1.491 . S
C1201 C1203 1.382 . S
C1201 C1205 1.404 . S
H1202 C1200 0.951 . S
C1203 C1201 1.382 . S
C1203 C1204 1.390 . S
C1203 H1208 0.949 . S
C1204 C1203 1.390 . S
C1204 C1209 1.399 . S
C1205 C1201 1.404 . S
C1205 H1206 0.950 . S
C1205 C1207 1.375 . S
H1206 C1205 0.950 . S
C1207 C1205 1.375 . S
C1207 C1209 1.382 . S
C1207 H1211 0.950 . S
H1208 C1203 0.949 . S
C1209 C1204 1.399 . S
C1209 C1207 1.382 . S
C1209 H1210 0.952 . S
H1210 C1209 0.952 . S
H1211 C1207 0.950 . S
H1212 C1213 0.949 . S
C1213 H1212 0.949 . S
C1213 C1214 1.395 . S
C1213 C1215 1.391 . S
C1214 C1213 1.395 . S
C1214 C1217 1.390 . S
C1215 C1213 1.391 . S
C1215 C1219 1.387 . S
C1215 C1220 1.491 . S
H1216 C1217 0.950 . S
C1217 C1214 1.390 . S
C1217 H1216 0.950 . S
C1217 C1218 1.378 . S
C1218 C1217 1.378 . S
C1218 C1219 1.409 . S
C1219 C1215 1.387 . S
C1219 C1218 1.409 . S
C1219 H1221 0.951 . S
C1220 C1215 1.491 . S
C1220 C1222 1.382 . S
C1220 C1224 1.404 . S
H1221 C1219 0.951 . S
C1222 C1220 1.382 . S
C1222 C1223 1.390 . S
C1222 H1227 0.949 . S
C1223 C1222 1.390 . S
C1223 C1228 1.399 . S
C1224 C1220 1.404 . S
C1224 H1225 0.950 . S
C1224 C1226 1.375 . S
H1225 C1224 0.950 . S
C1226 C1224 1.375 . S
C1226 C1228 1.382 . S
C1226 H1230 0.950 . S
H1227 C1222 0.949 . S
C1228 C1223 1.399 . S
C1228 C1226 1.382 . S
C1228 H1229 0.952 . S
H1229 C1228 0.952 . S
H1230 C1226 0.950 . S
H1231 C1232 0.949 . S
C1232 H1231 0.949 . S
C1232 C1233 1.395 . S
C1232 C1234 1.391 . S
C1233 C1232 1.395 . S
C1233 C1236 1.390 . S
C1234 C1232 1.391 . S
C1234 C1238 1.387 . S
C1234 C1239 1.491 . S
H1235 C1236 0.950 . S
C1236 C1233 1.390 . S
C1236 H1235 0.950 . S
C1236 C1237 1.378 . S
C1237 C1236 1.378 . S
C1237 C1238 1.409 . S
C1238 C1234 1.387 . S
C1238 C1237 1.409 . S
C1238 H1240 0.951 . S
C1239 C1234 1.491 . S
C1239 C1241 1.382 . S
C1239 C1243 1.404 . S
H1240 C1238 0.951 . S
C1241 C1239 1.382 . S
C1241 C1242 1.390 . S
C1241 H1246 0.949 . S
C1242 C1241 1.390 . S
C1242 C1247 1.399 . S
C1243 C1239 1.404 . S
C1243 H1244 0.950 . S
C1243 C1245 1.375 . S
H1244 C1243 0.950 . S
C1245 C1243 1.375 . S
C1245 C1247 1.382 . S
C1245 H1249 0.950 . S
H1246 C1241 0.949 . S
C1247 C1242 1.399 . S
C1247 C1245 1.382 . S
C1247 H1248 0.952 . S
H1248 C1247 0.952 . S
H1249 C1245 0.950 . S
H1250 C1251 0.949 . S
C1251 H1250 0.949 . S
C1251 C1252 1.395 . S
C1251 C1253 1.391 . S
C1252 C1251 1.395 . S
C1252 C1255 1.390 . S
C1253 C1251 1.391 . S
C1253 C1257 1.387 . S
C1253 C1258 1.491 . S
H1254 C1255 0.950 . S
C1255 C1252 1.390 . S
C1255 H1254 0.950 . S
C1255 C1256 1.378 . S
C1256 C1255 1.378 . S
C1256 C1257 1.409 . S
C1257 C1253 1.387 . S
C1257 C1256 1.409 . S
C1257 H1259 0.951 . S
C1258 C1253 1.491 . S
C1258 C1260 1.382 . S
C1258 C1262 1.404 . S
H1259 C1257 0.951 . S
C1260 C1258 1.382 . S
C1260 C1261 1.390 . S
C1260 H1265 0.949 . S
C1261 C1260 1.390 . S
C1261 C1266 1.399 . S
C1262 C1258 1.404 . S
C1262 H1263 0.950 . S
C1262 C1264 1.375 . S
H1263 C1262 0.950 . S
C1264 C1262 1.375 . S
C1264 C1266 1.382 . S
C1264 H1268 0.950 . S
H1265 C1260 0.949 . S
C1266 C1261 1.399 . S
C1266 C1264 1.382 . S
C1266 H1267 0.952 . S
H1267 C1266 0.952 . S
H1268 C1264 0.950 . S
H1269 C1270 0.949 . S
C1270 H1269 0.949 . S
C1270 C1271 1.395 . S
C1270 C1272 1.391 . S
C1271 C1270 1.395 . S
C1271 C1274 1.390 . S
C1272 C1270 1.391 . S
C1272 C1276 1.387 . S
C1272 C1277 1.491 . S
H1273 C1274 0.950 . S
C1274 C1271 1.390 . S
C1274 H1273 0.950 . S
C1274 C1275 1.378 . S
C1275 C1274 1.378 . S
C1275 C1276 1.409 . S
C1276 C1272 1.387 . S
C1276 C1275 1.409 . S
C1276 H1278 0.951 . S
C1277 C1272 1.491 . S
C1277 C1279 1.382 . S
C1277 C1281 1.404 . S
H1278 C1276 0.951 . S
C1279 C1277 1.382 . S
C1279 C1280 1.390 . S
C1279 H1284 0.949 . S
C1280 C1279 1.390 . S
C1280 C1285 1.399 . S
C1281 C1277 1.404 . S
C1281 H1282 0.950 . S
C1281 C1283 1.375 . S
H1282 C1281 0.950 . S
C1283 C1281 1.375 . S
C1283 C1285 1.382 . S
C1283 H1287 0.950 . S
H1284 C1279 0.949 . S
C1285 C1280 1.399 . S
C1285 C1283 1.382 . S
C1285 H1286 0.952 . S
H1286 C1285 0.952 . S
H1287 C1283 0.950 . S
H1288 C1289 0.949 . S
C1289 H1288 0.949 . S
C1289 C1290 1.395 . S
C1289 C1291 1.391 . S
C1290 C1289 1.395 . S
C1290 C1293 1.390 . S
C1291 C1289 1.391 . S
C1291 C1295 1.387 . S
C1291 C1296 1.491 . S
H1292 C1293 0.950 . S
C1293 C1290 1.390 . S
C1293 H1292 0.950 . S
C1293 C1294 1.378 . S
C1294 C1293 1.378 . S
C1294 C1295 1.409 . S
C1295 C1291 1.387 . S
C1295 C1294 1.409 . S
C1295 H1297 0.951 . S
C1296 C1291 1.491 . S
C1296 C1298 1.382 . S
C1296 C1300 1.404 . S
H1297 C1295 0.951 . S
C1298 C1296 1.382 . S
C1298 C1299 1.390 . S
C1298 H1303 0.949 . S
C1299 C1298 1.390 . S
C1299 C1304 1.399 . S
C1300 C1296 1.404 . S
C1300 H1301 0.950 . S
C1300 C1302 1.375 . S
H1301 C1300 0.950 . S
C1302 C1300 1.375 . S
C1302 C1304 1.382 . S
C1302 H1306 0.950 . S
H1303 C1298 0.949 . S
C1304 C1299 1.399 . S
C1304 C1302 1.382 . S
C1304 H1305 0.952 . S
H1305 C1304 0.952 . S
H1306 C1302 0.950 . S
H1307 C1308 0.949 . S
C1308 H1307 0.949 . S
C1308 C1309 1.395 . S
C1308 C1310 1.391 . S
C1309 C1308 1.395 . S
C1309 C1312 1.390 . S
C1310 C1308 1.391 . S
C1310 C1314 1.387 . S
C1310 C1315 1.491 . S
H1311 C1312 0.950 . S
C1312 C1309 1.390 . S
C1312 H1311 0.950 . S
C1312 C1313 1.378 . S
C1313 C1312 1.378 . S
C1313 C1314 1.409 . S
C1314 C1310 1.387 . S
C1314 C1313 1.409 . S
C1314 H1316 0.951 . S
C1315 C1310 1.491 . S
C1315 C1317 1.382 . S
C1315 C1319 1.404 . S
H1316 C1314 0.951 . S
C1317 C1315 1.382 . S
C1317 C1318 1.390 . S
C1317 H1322 0.949 . S
C1318 C1317 1.390 . S
C1318 C1323 1.399 . S
C1319 C1315 1.404 . S
C1319 H1320 0.950 . S
C1319 C1321 1.375 . S
H1320 C1319 0.950 . S
C1321 C1319 1.375 . S
C1321 C1323 1.382 . S
C1321 H1325 0.950 . S
H1322 C1317 0.949 . S
C1323 C1318 1.399 . S
C1323 C1321 1.382 . S
C1323 H1324 0.952 . S
H1324 C1323 0.952 . S
H1325 C1321 0.950 . S
H1326 C1327 0.949 . S
C1327 H1326 0.949 . S
C1327 C1328 1.395 . S
C1327 C1329 1.391 . S
C1328 C1327 1.395 . S
C1328 C1331 1.390 . S
C1329 C1327 1.391 . S
C1329 C1333 1.387 . S
C1329 C1334 1.491 . S
H1330 C1331 0.950 . S
C1331 C1328 1.390 . S
C1331 H1330 0.950 . S
C1331 C1332 1.378 . S
C1332 C1331 1.378 . S
C1332 C1333 1.409 . S
C1333 C1329 1.387 . S
C1333 C1332 1.409 . S
C1333 H1335 0.951 . S
C1334 C1329 1.491 . S
C1334 C1336 1.382 . S
C1334 C1338 1.404 . S
H1335 C1333 0.951 . S
C1336 C1334 1.382 . S
C1336 C1337 1.390 . S
C1336 H1341 0.949 . S
C1337 C1336 1.390 . S
C1337 C1342 1.399 . S
C1338 C1334 1.404 . S
C1338 H1339 0.950 . S
C1338 C1340 1.375 . S
H1339 C1338 0.950 . S
C1340 C1338 1.375 . S
C1340 C1342 1.382 . S
C1340 H1344 0.950 . S
H1341 C1336 0.949 . S
C1342 C1337 1.399 . S
C1342 C1340 1.382 . S
C1342 H1343 0.952 . S
H1343 C1342 0.952 . S
H1344 C1340 0.950 . S
H1345 C1346 0.949 . S
C1346 H1345 0.949 . S
C1346 C1347 1.395 . S
C1346 C1348 1.391 . S
C1347 C1346 1.395 . S
C1347 C1350 1.390 . S
C1348 C1346 1.391 . S
C1348 C1352 1.387 . S
C1348 C1353 1.491 . S
H1349 C1350 0.950 . S
C1350 C1347 1.390 . S
C1350 H1349 0.950 . S
C1350 C1351 1.378 . S
C1351 C1350 1.378 . S
C1351 C1352 1.409 . S
C1352 C1348 1.387 . S
C1352 C1351 1.409 . S
C1352 H1354 0.951 . S
C1353 C1348 1.491 . S
C1353 C1355 1.382 . S
C1353 C1357 1.404 . S
H1354 C1352 0.951 . S
C1355 C1353 1.382 . S
C1355 C1356 1.390 . S
C1355 H1360 0.949 . S
C1356 C1355 1.390 . S
C1356 C1361 1.399 . S
C1357 C1353 1.404 . S
C1357 H1358 0.950 . S
C1357 C1359 1.375 . S
H1358 C1357 0.950 . S
C1359 C1357 1.375 . S
C1359 C1361 1.382 . S
C1359 H1363 0.950 . S
H1360 C1355 0.949 . S
C1361 C1356 1.399 . S
C1361 C1359 1.382 . S
C1361 H1362 0.952 . S
H1362 C1361 0.952 . S
H1363 C1359 0.950 . S
H1364 C1365 0.949 . S
C1365 H1364 0.949 . S
C1365 C1366 1.395 . S
C1365 C1367 1.391 . S
C1366 C1365 1.395 . S
C1366 C1369 1.390 . S
C1367 C1365 1.391 . S
C1367 C1371 1.387 . S
C1367 C1372 1.491 . S
H1368 C1369 0.950 . S
C1369 C1366 1.390 . S
C1369 H1368 0.950 . S
C1369 C1370 1.378 . S
C1370 C1369 1.378 . S
C1370 C1371 1.409 . S
C1371 C1367 1.387 . S
C1371 C1370 1.409 . S
C1371 H1373 0.951 . S
C1372 C1367 1.491 . S
C1372 C1374 1.382 . S
C1372 C1376 1.404 . S
H1373 C1371 0.951 . S
C1374 C1372 1.382 . S
C1374 C1375 1.390 . S
C1374 H1379 0.949 . S
C1375 C1374 1.390 . S
C1375 C1380 1.399 . S
C1376 C1372 1.404 . S
C1376 H1377 0.950 . S
C1376 C1378 1.375 . S
H1377 C1376 0.950 . S
C1378 C1376 1.375 . S
C1378 C1380 1.382 . S
C1378 H1382 0.950 . S
H1379 C1374 0.949 . S
C1380 C1375 1.399 . S
C1380 C1378 1.382 . S
C1380 H1381 0.952 . S
H1381 C1380 0.952 . S
H1382 C1378 0.950 . S
H1383 C1384 0.949 . S
C1384 H1383 0.949 . S
C1384 C1385 1.395 . S
C1384 C1386 1.391 . S
C1385 C1384 1.395 . S
C1385 C1388 1.390 . S
C1386 C1384 1.391 . S
C1386 C1390 1.387 . S
C1386 C1391 1.491 . S
H1387 C1388 0.950 . S
C1388 C1385 1.390 . S
C1388 H1387 0.950 . S
C1388 C1389 1.378 . S
C1389 C1388 1.378 . S
C1389 C1390 1.409 . S
C1390 C1386 1.387 . S
C1390 C1389 1.409 . S
C1390 H1392 0.951 . S
C1391 C1386 1.491 . S
C1391 C1393 1.382 . S
C1391 C1395 1.404 . S
H1392 C1390 0.951 . S
C1393 C1391 1.382 . S
C1393 C1394 1.390 . S
C1393 H1398 0.949 . S
C1394 C1393 1.390 . S
C1394 C1399 1.399 . S
C1395 C1391 1.404 . S
C1395 H1396 0.950 . S
C1395 C1397 1.375 . S
H1396 C1395 0.950 . S
C1397 C1395 1.375 . S
C1397 C1399 1.382 . S
C1397 H1401 0.950 . S
H1398 C1393 0.949 . S
C1399 C1394 1.399 . S
C1399 C1397 1.382 . S
C1399 H1400 0.952 . S
H1400 C1399 0.952 . S
H1401 C1397 0.950 . S
H1402 C1403 0.949 . S
C1403 H1402 0.949 . S
C1403 C1404 1.395 . S
C1403 C1405 1.391 . S
C1404 C1403 1.395 . S
C1404 C1407 1.390 . S
C1405 C1403 1.391 . S
C1405 C1409 1.387 . S
C1405 C1410 1.491 . S
H1406 C1407 0.950 . S
C1407 C1404 1.390 . S
C1407 H1406 0.950 . S
C1407 C1408 1.378 . S
C1408 C1407 1.378 . S
C1408 C1409 1.409 . S
C1409 C1405 1.387 . S
C1409 C1408 1.409 . S
C1409 H1411 0.951 . S
C1410 C1405 1.491 . S
C1410 C1412 1.382 . S
C1410 C1414 1.404 . S
H1411 C1409 0.951 . S
C1412 C1410 1.382 . S
C1412 C1413 1.390 . S
C1412 H1417 0.949 . S
C1413 C1412 1.390 . S
C1413 C1418 1.399 . S
C1414 C1410 1.404 . S
C1414 H1415 0.950 . S
C1414 C1416 1.375 . S
H1415 C1414 0.950 . S
C1416 C1414 1.375 . S
C1416 C1418 1.382 . S
C1416 H1420 0.950 . S
H1417 C1412 0.949 . S
C1418 C1413 1.399 . S
C1418 C1416 1.382 . S
C1418 H1419 0.952 . S
H1419 C1418 0.952 . S
H1420 C1416 0.950 . S
H1421 C1422 0.949 . S
C1422 H1421 0.949 . S
C1422 C1423 1.395 . S
C1422 C1424 1.391 . S
C1423 C1422 1.395 . S
C1423 C1426 1.390 . S
C1424 C1422 1.391 . S
C1424 C1428 1.387 . S
C1424 C1429 1.491 . S
H1425 C1426 0.950 . S
C1426 C1423 1.390 . S
C1426 H1425 0.950 . S
C1426 C1427 1.378 . S
C1427 C1426 1.378 . S
C1427 C1428 1.409 . S
C1428 C1424 1.387 . S
C1428 C1427 1.409 . S
C1428 H1430 0.951 . S
C1429 C1424 1.491 . S
C1429 C1431 1.382 . S
C1429 C1433 1.404 . S
H1430 C1428 0.951 . S
C1431 C1429 1.382 . S
C1431 C1432 1.390 . S
C1431 H1436 0.949 . S
C1432 C1431 1.390 . S
C1432 C1437 1.399 . S
C1433 C1429 1.404 . S
C1433 H1434 0.950 . S
C1433 C1435 1.375 . S
H1434 C1433 0.950 . S
C1435 C1433 1.375 . S
C1435 C1437 1.382 . S
C1435 H1439 0.950 . S
H1436 C1431 0.949 . S
C1437 C1432 1.399 . S
C1437 C1435 1.382 . S
C1437 H1438 0.952 . S
H1438 C1437 0.952 . S
H1439 C1435 0.950 . S
C1440 C1441 1.387 . S
C1440 H1444 0.950 . S
C1440 C1449 1.390 . S
C1441 C1440 1.387 . S
C1441 C1443 1.387 . S
H1442 C1449 0.950 . S
C1443 C1441 1.387 . S
C1443 C1445 1.390 . S
C1443 H1447 0.950 . S
H1444 C1440 0.950 . S
C1445 C1443 1.390 . S
C1445 C1446 1.387 . S
C1445 H1448 0.950 . S
C1446 C1445 1.387 . S
C1446 C1449 1.387 . S
H1447 C1443 0.950 . S
H1448 C1445 0.950 . S
C1449 C1440 1.390 . S
C1449 H1442 0.950 . S
C1449 C1446 1.387 . S
C1450 C1451 1.387 . S
C1450 H1454 0.950 . S
C1450 C1459 1.390 . S
C1451 C1450 1.387 . S
C1451 C1453 1.387 . S
H1452 C1459 0.950 . S
C1453 C1451 1.387 . S
C1453 C1455 1.390 . S
C1453 H1457 0.950 . S
H1454 C1450 0.950 . S
C1455 C1453 1.390 . S
C1455 C1456 1.387 . S
C1455 H1458 0.950 . S
C1456 C1455 1.387 . S
C1456 C1459 1.387 . S
H1457 C1453 0.950 . S
H1458 C1455 0.950 . S
C1459 C1450 1.390 . S
C1459 H1452 0.950 . S
C1459 C1456 1.387 . S
C1460 C1461 1.387 . S
C1460 H1464 0.950 . S
C1460 C1469 1.390 . S
C1461 C1460 1.387 . S
C1461 C1463 1.387 . S
H1462 C1469 0.950 . S
C1463 C1461 1.387 . S
C1463 C1465 1.390 . S
C1463 H1467 0.950 . S
H1464 C1460 0.950 . S
C1465 C1463 1.390 . S
C1465 C1466 1.387 . S
C1465 H1468 0.950 . S
C1466 C1465 1.387 . S
C1466 C1469 1.387 . S
H1467 C1463 0.950 . S
H1468 C1465 0.950 . S
C1469 C1460 1.390 . S
C1469 H1462 0.950 . S
C1469 C1466 1.387 . S
C1470 C1471 1.387 . S
C1470 H1474 0.950 . S
C1470 C1479 1.390 . S
C1471 C1470 1.387 . S
C1471 C1473 1.387 . S
H1472 C1479 0.950 . S
C1473 C1471 1.387 . S
C1473 C1475 1.390 . S
C1473 H1477 0.950 . S
H1474 C1470 0.950 . S
C1475 C1473 1.390 . S
C1475 C1476 1.387 . S
C1475 H1478 0.950 . S
C1476 C1475 1.387 . S
C1476 C1479 1.387 . S
H1477 C1473 0.950 . S
H1478 C1475 0.950 . S
C1479 C1470 1.390 . S
C1479 H1472 0.950 . S
C1479 C1476 1.387 . S
C1480 C1481 1.387 . S
C1480 H1484 0.950 . S
C1480 C1489 1.390 . S
C1481 C1480 1.387 . S
C1481 C1483 1.387 . S
H1482 C1489 0.950 . S
C1483 C1481 1.387 . S
C1483 C1485 1.390 . S
C1483 H1487 0.950 . S
H1484 C1480 0.950 . S
C1485 C1483 1.390 . S
C1485 C1486 1.387 . S
C1485 H1488 0.950 . S
C1486 C1485 1.387 . S
C1486 C1489 1.387 . S
H1487 C1483 0.950 . S
H1488 C1485 0.950 . S
C1489 C1480 1.390 . S
C1489 H1482 0.950 . S
C1489 C1486 1.387 . S
C1490 C1491 1.387 . S
C1490 H1494 0.950 . S
C1490 C1499 1.390 . S
C1491 C1490 1.387 . S
C1491 C1493 1.387 . S
H1492 C1499 0.950 . S
C1493 C1491 1.387 . S
C1493 C1495 1.390 . S
C1493 H1497 0.950 . S
H1494 C1490 0.950 . S
C1495 C1493 1.390 . S
C1495 C1496 1.387 . S
C1495 H1498 0.950 . S
C1496 C1495 1.387 . S
C1496 C1499 1.387 . S
H1497 C1493 0.950 . S
H1498 C1495 0.950 . S
C1499 C1490 1.390 . S
C1499 H1492 0.950 . S
C1499 C1496 1.387 . S
C1500 C1501 1.387 . S
C1500 H1504 0.950 . S
C1500 C1509 1.390 . S
C1501 C1500 1.387 . S
C1501 C1503 1.387 . S
H1502 C1509 0.950 . S
C1503 C1501 1.387 . S
C1503 C1505 1.390 . S
C1503 H1507 0.950 . S
H1504 C1500 0.950 . S
C1505 C1503 1.390 . S
C1505 C1506 1.387 . S
C1505 H1508 0.950 . S
C1506 C1505 1.387 . S
C1506 C1509 1.387 . S
H1507 C1503 0.950 . S
H1508 C1505 0.950 . S
C1509 C1500 1.390 . S
C1509 H1502 0.950 . S
C1509 C1506 1.387 . S
C1510 C1511 1.387 . S
C1510 H1514 0.950 . S
C1510 C1519 1.390 . S
C1511 C1510 1.387 . S
C1511 C1513 1.387 . S
H1512 C1519 0.950 . S
C1513 C1511 1.387 . S
C1513 C1515 1.390 . S
C1513 H1517 0.950 . S
H1514 C1510 0.950 . S
C1515 C1513 1.390 . S
C1515 C1516 1.387 . S
C1515 H1518 0.950 . S
C1516 C1515 1.387 . S
C1516 C1519 1.387 . S
H1517 C1513 0.950 . S
H1518 C1515 0.950 . S
C1519 C1510 1.390 . S
C1519 H1512 0.950 . S
C1519 C1516 1.387 . S
C1520 C1521 1.387 . S
C1520 H1524 0.950 . S
C1520 C1529 1.390 . S
C1521 C1520 1.387 . S
C1521 C1523 1.387 . S
H1522 C1529 0.950 . S
C1523 C1521 1.387 . S
C1523 C1525 1.390 . S
C1523 H1527 0.950 . S
H1524 C1520 0.950 . S
C1525 C1523 1.390 . S
C1525 C1526 1.387 . S
C1525 H1528 0.950 . S
C1526 C1525 1.387 . S
C1526 C1529 1.387 . S
H1527 C1523 0.950 . S
H1528 C1525 0.950 . S
C1529 C1520 1.390 . S
C1529 H1522 0.950 . S
C1529 C1526 1.387 . S
C1530 C1531 1.387 . S
C1530 H1534 0.950 . S
C1530 C1539 1.390 . S
C1531 C1530 1.387 . S
C1531 C1533 1.387 . S
H1532 C1539 0.950 . S
C1533 C1531 1.387 . S
C1533 C1535 1.390 . S
C1533 H1537 0.950 . S
H1534 C1530 0.950 . S
C1535 C1533 1.390 . S
C1535 C1536 1.387 . S
C1535 H1538 0.950 . S
C1536 C1535 1.387 . S
C1536 C1539 1.387 . S
H1537 C1533 0.950 . S
H1538 C1535 0.950 . S
C1539 C1530 1.390 . S
C1539 H1532 0.950 . S
C1539 C1536 1.387 . S
C1540 C1541 1.387 . S
C1540 H1544 0.950 . S
C1540 C1549 1.390 . S
C1541 C1540 1.387 . S
C1541 C1543 1.387 . S
H1542 C1549 0.950 . S
C1543 C1541 1.387 . S
C1543 C1545 1.390 . S
C1543 H1547 0.950 . S
H1544 C1540 0.950 . S
C1545 C1543 1.390 . S
C1545 C1546 1.387 . S
C1545 H1548 0.950 . S
C1546 C1545 1.387 . S
C1546 C1549 1.387 . S
H1547 C1543 0.950 . S
H1548 C1545 0.950 . S
C1549 C1540 1.390 . S
C1549 H1542 0.950 . S
C1549 C1546 1.387 . S
C1550 C1551 1.387 . S
C1550 H1554 0.950 . S
C1550 C1559 1.390 . S
C1551 C1550 1.387 . S
C1551 C1553 1.387 . S
H1552 C1559 0.950 . S
C1553 C1551 1.387 . S
C1553 C1555 1.390 . S
C1553 H1557 0.950 . S
H1554 C1550 0.950 . S
C1555 C1553 1.390 . S
C1555 C1556 1.387 . S
C1555 H1558 0.950 . S
C1556 C1555 1.387 . S
C1556 C1559 1.387 . S
H1557 C1553 0.950 . S
H1558 C1555 0.950 . S
C1559 C1550 1.390 . S
C1559 H1552 0.950 . S
C1559 C1556 1.387 . S
C1560 C1561 1.387 . S
C1560 H1564 0.950 . S
C1560 C1569 1.390 . S
C1561 C1560 1.387 . S
C1561 C1563 1.387 . S
H1562 C1569 0.950 . S
C1563 C1561 1.387 . S
C1563 C1565 1.390 . S
C1563 H1567 0.950 . S
H1564 C1560 0.950 . S
C1565 C1563 1.390 . S
C1565 C1566 1.387 . S
C1565 H1568 0.950 . S
C1566 C1565 1.387 . S
C1566 C1569 1.387 . S
H1567 C1563 0.950 . S
H1568 C1565 0.950 . S
C1569 C1560 1.390 . S
C1569 H1562 0.950 . S
C1569 C1566 1.387 . S
C1570 C1571 1.387 . S
C1570 H1574 0.950 . S
C1570 C1579 1.390 . S
C1571 C1570 1.387 . S
C1571 C1573 1.387 . S
H1572 C1579 0.950 . S
C1573 C1571 1.387 . S
C1573 C1575 1.390 . S
C1573 H1577 0.950 . S
H1574 C1570 0.950 . S
C1575 C1573 1.390 . S
C1575 C1576 1.387 . S
C1575 H1578 0.950 . S
C1576 C1575 1.387 . S
C1576 C1579 1.387 . S
H1577 C1573 0.950 . S
H1578 C1575 0.950 . S
C1579 C1570 1.390 . S
C1579 H1572 0.950 . S
C1579 C1576 1.387 . S
C1580 C1581 1.387 . S
C1580 H1584 0.950 . S
C1580 C1589 1.390 . S
C1581 C1580 1.387 . S
C1581 C1583 1.387 . S
H1582 C1589 0.950 . S
C1583 C1581 1.387 . S
C1583 C1585 1.390 . S
C1583 H1587 0.950 . S
H1584 C1580 0.950 . S
C1585 C1583 1.390 . S
C1585 C1586 1.387 . S
C1585 H1588 0.950 . S
C1586 C1585 1.387 . S
C1586 C1589 1.387 . S
H1587 C1583 0.950 . S
H1588 C1585 0.950 . S
C1589 C1580 1.390 . S
C1589 H1582 0.950 . S
C1589 C1586 1.387 . S
C1590 C1591 1.387 . S
C1590 H1594 0.950 . S
C1590 C1599 1.390 . S
C1591 C1590 1.387 . S
C1591 C1593 1.387 . S
H1592 C1599 0.950 . S
C1593 C1591 1.387 . S
C1593 C1595 1.390 . S
C1593 H1597 0.950 . S
H1594 C1590 0.950 . S
C1595 C1593 1.390 . S
C1595 C1596 1.387 . S
C1595 H1598 0.950 . S
C1596 C1595 1.387 . S
C1596 C1599 1.387 . S
H1597 C1593 0.950 . S
H1598 C1595 0.950 . S
C1599 C1590 1.390 . S
C1599 H1592 0.950 . S
C1599 C1596 1.387 . S
C1600 C1601 1.387 . S
C1600 H1604 0.950 . S
C1600 C1609 1.390 . S
C1601 C1600 1.387 . S
C1601 C1603 1.387 . S
H1602 C1609 0.950 . S
C1603 C1601 1.387 . S
C1603 C1605 1.390 . S
C1603 H1607 0.950 . S
H1604 C1600 0.950 . S
C1605 C1603 1.390 . S
C1605 C1606 1.387 . S
C1605 H1608 0.950 . S
C1606 C1605 1.387 . S
C1606 C1609 1.387 . S
H1607 C1603 0.950 . S
H1608 C1605 0.950 . S
C1609 C1600 1.390 . S
C1609 H1602 0.950 . S
C1609 C1606 1.387 . S
C1610 C1611 1.387 . S
C1610 H1614 0.950 . S
C1610 C1619 1.390 . S
C1611 C1610 1.387 . S
C1611 C1613 1.387 . S
H1612 C1619 0.950 . S
C1613 C1611 1.387 . S
C1613 C1615 1.390 . S
C1613 H1617 0.950 . S
H1614 C1610 0.950 . S
C1615 C1613 1.390 . S
C1615 C1616 1.387 . S
C1615 H1618 0.950 . S
C1616 C1615 1.387 . S
C1616 C1619 1.387 . S
H1617 C1613 0.950 . S
H1618 C1615 0.950 . S
C1619 C1610 1.390 . S
C1619 H1612 0.950 . S
C1619 C1616 1.387 . S
C1620 C1621 1.387 . S
C1620 H1624 0.950 . S
C1620 C1629 1.390 . S
C1621 C1620 1.387 . S
C1621 C1623 1.387 . S
H1622 C1629 0.950 . S
C1623 C1621 1.387 . S
C1623 C1625 1.390 . S
C1623 H1627 0.950 . S
H1624 C1620 0.950 . S
C1625 C1623 1.390 . S
C1625 C1626 1.387 . S
C1625 H1628 0.950 . S
C1626 C1625 1.387 . S
C1626 C1629 1.387 . S
H1627 C1623 0.950 . S
H1628 C1625 0.950 . S
C1629 C1620 1.390 . S
C1629 H1622 0.950 . S
C1629 C1626 1.387 . S
C1630 C1631 1.387 . S
C1630 H1634 0.950 . S
C1630 C1639 1.390 . S
C1631 C1630 1.387 . S
C1631 C1633 1.387 . S
H1632 C1639 0.950 . S
C1633 C1631 1.387 . S
C1633 C1635 1.390 . S
C1633 H1637 0.950 . S
H1634 C1630 0.950 . S
C1635 C1633 1.390 . S
C1635 C1636 1.387 . S
C1635 H1638 0.950 . S
C1636 C1635 1.387 . S
C1636 C1639 1.387 . S
H1637 C1633 0.950 . S
H1638 C1635 0.950 . S
C1639 C1630 1.390 . S
C1639 H1632 0.950 . S
C1639 C1636 1.387 . S
C1640 C1641 1.387 . S
C1640 H1644 0.950 . S
C1640 C1649 1.390 . S
C1641 C1640 1.387 . S
C1641 C1643 1.387 . S
H1642 C1649 0.950 . S
C1643 C1641 1.387 . S
C1643 C1645 1.390 . S
C1643 H1647 0.950 . S
H1644 C1640 0.950 . S
C1645 C1643 1.390 . S
C1645 C1646 1.387 . S
C1645 H1648 0.950 . S
C1646 C1645 1.387 . S
C1646 C1649 1.387 . S
H1647 C1643 0.950 . S
H1648 C1645 0.950 . S
C1649 C1640 1.390 . S
C1649 H1642 0.950 . S
C1649 C1646 1.387 . S
C1650 C1651 1.387 . S
C1650 H1654 0.950 . S
C1650 C1659 1.390 . S
C1651 C1650 1.387 . S
C1651 C1653 1.387 . S
H1652 C1659 0.950 . S
C1653 C1651 1.387 . S
C1653 C1655 1.390 . S
C1653 H1657 0.950 . S
H1654 C1650 0.950 . S
C1655 C1653 1.390 . S
C1655 C1656 1.387 . S
C1655 H1658 0.950 . S
C1656 C1655 1.387 . S
C1656 C1659 1.387 . S
H1657 C1653 0.950 . S
H1658 C1655 0.950 . S
C1659 C1650 1.390 . S
C1659 H1652 0.950 . S
C1659 C1656 1.387 . S
C1660 C1661 1.387 . S
C1660 H1664 0.950 . S
C1660 C1669 1.390 . S
C1661 C1660 1.387 . S
C1661 C1663 1.387 . S
H1662 C1669 0.950 . S
C1663 C1661 1.387 . S
C1663 C1665 1.390 . S
C1663 H1667 0.950 . S
H1664 C1660 0.950 . S
C1665 C1663 1.390 . S
C1665 C1666 1.387 . S
C1665 H1668 0.950 . S
C1666 C1665 1.387 . S
C1666 C1669 1.387 . S
H1667 C1663 0.950 . S
H1668 C1665 0.950 . S
C1669 C1660 1.390 . S
C1669 H1662 0.950 . S
C1669 C1666 1.387 . S
C1670 C1671 1.387 . S
C1670 H1674 0.950 . S
C1670 C1679 1.390 . S
C1671 C1670 1.387 . S
C1671 C1673 1.387 . S
H1672 C1679 0.950 . S
C1673 C1671 1.387 . S
C1673 C1675 1.390 . S
C1673 H1677 0.950 . S
H1674 C1670 0.950 . S
C1675 C1673 1.390 . S
C1675 C1676 1.387 . S
C1675 H1678 0.950 . S
C1676 C1675 1.387 . S
C1676 C1679 1.387 . S
H1677 C1673 0.950 . S
H1678 C1675 0.950 . S
C1679 C1670 1.390 . S
C1679 H1672 0.950 . S
C1679 C1676 1.387 . S
C1680 C1681 1.387 . S
C1680 H1684 0.950 . S
C1680 C1689 1.390 . S
C1681 C1680 1.387 . S
C1681 C1683 1.387 . S
H1682 C1689 0.950 . S
C1683 C1681 1.387 . S
C1683 C1685 1.390 . S
C1683 H1687 0.950 . S
H1684 C1680 0.950 . S
C1685 C1683 1.390 . S
C1685 C1686 1.387 . S
C1685 H1688 0.950 . S
C1686 C1685 1.387 . S
C1686 C1689 1.387 . S
H1687 C1683 0.950 . S
H1688 C1685 0.950 . S
C1689 C1680 1.390 . S
C1689 H1682 0.950 . S
C1689 C1686 1.387 . S
C1690 C1691 1.387 . S
C1690 H1694 0.950 . S
C1690 C1699 1.390 . S
C1691 C1690 1.387 . S
C1691 C1693 1.387 . S
H1692 C1699 0.950 . S
C1693 C1691 1.387 . S
C1693 C1695 1.390 . S
C1693 H1697 0.950 . S
H1694 C1690 0.950 . S
C1695 C1693 1.390 . S
C1695 C1696 1.387 . S
C1695 H1698 0.950 . S
C1696 C1695 1.387 . S
C1696 C1699 1.387 . S
H1697 C1693 0.950 . S
H1698 C1695 0.950 . S
C1699 C1690 1.390 . S
C1699 H1692 0.950 . S
C1699 C1696 1.387 . S
C1700 C1701 1.387 . S
C1700 H1704 0.950 . S
C1700 C1709 1.390 . S
C1701 C1700 1.387 . S
C1701 C1703 1.387 . S
H1702 C1709 0.950 . S
C1703 C1701 1.387 . S
C1703 C1705 1.390 . S
C1703 H1707 0.950 . S
H1704 C1700 0.950 . S
C1705 C1703 1.390 . S
C1705 C1706 1.387 . S
C1705 H1708 0.950 . S
C1706 C1705 1.387 . S
C1706 C1709 1.387 . S
H1707 C1703 0.950 . S
H1708 C1705 0.950 . S
C1709 C1700 1.390 . S
C1709 H1702 0.950 . S
C1709 C1706 1.387 . S
C1710 C1711 1.387 . S
C1710 H1714 0.950 . S
C1710 C1719 1.390 . S
C1711 C1710 1.387 . S
C1711 C1713 1.387 . S
H1712 C1719 0.950 . S
C1713 C1711 1.387 . S
C1713 C1715 1.390 . S
C1713 H1717 0.950 . S
H1714 C1710 0.950 . S
C1715 C1713 1.390 . S
C1715 C1716 1.387 . S
C1715 H1718 0.950 . S
C1716 C1715 1.387 . S
C1716 C1719 1.387 . S
H1717 C1713 0.950 . S
H1718 C1715 0.950 . S
C1719 C1710 1.390 . S
C1719 H1712 0.950 . S
C1719 C1716 1.387 . S
C1720 C1721 1.387 . S
C1720 H1724 0.950 . S
C1720 C1729 1.390 . S
C1721 C1720 1.387 . S
C1721 C1723 1.387 . S
H1722 C1729 0.950 . S
C1723 C1721 1.387 . S
C1723 C1725 1.390 . S
C1723 H1727 0.950 . S
H1724 C1720 0.950 . S
C1725 C1723 1.390 . S
C1725 C1726 1.387 . S
C1725 H1728 0.950 . S
C1726 C1725 1.387 . S
C1726 C1729 1.387 . S
H1727 C1723 0.950 . S
H1728 C1725 0.950 . S
C1729 C1720 1.390 . S
C1729 H1722 0.950 . S
C1729 C1726 1.387 . S
C1730 C1731 1.387 . S
C1730 H1734 0.950 . S
C1730 C1739 1.390 . S
C1731 C1730 1.387 . S
C1731 C1733 1.387 . S
H1732 C1739 0.950 . S
C1733 C1731 1.387 . S
C1733 C1735 1.390 . S
C1733 H1737 0.950 . S
H1734 C1730 0.950 . S
C1735 C1733 1.390 . S
C1735 C1736 1.387 . S
C1735 H1738 0.950 . S
C1736 C1735 1.387 . S
C1736 C1739 1.387 . S
H1737 C1733 0.950 . S
H1738 C1735 0.950 . S
C1739 C1730 1.390 . S
C1739 H1732 0.950 . S
C1739 C1736 1.387 . S
C1740 C1741 1.387 . S
C1740 H1744 0.950 . S
C1740 C1749 1.390 . S
C1741 C1740 1.387 . S
C1741 C1743 1.387 . S
H1742 C1749 0.950 . S
C1743 C1741 1.387 . S
C1743 C1745 1.390 . S
C1743 H1747 0.950 . S
H1744 C1740 0.950 . S
C1745 C1743 1.390 . S
C1745 C1746 1.387 . S
C1745 H1748 0.950 . S
C1746 C1745 1.387 . S
C1746 C1749 1.387 . S
H1747 C1743 0.950 . S
H1748 C1745 0.950 . S
C1749 C1740 1.390 . S
C1749 H1742 0.950 . S
C1749 C1746 1.387 . S
C1750 C1751 1.387 . S
C1750 H1754 0.950 . S
C1750 C1759 1.390 . S
C1751 C1750 1.387 . S
C1751 C1753 1.387 . S
H1752 C1759 0.950 . S
C1753 C1751 1.387 . S
C1753 C1755 1.390 . S
C1753 H1757 0.950 . S
H1754 C1750 0.950 . S
C1755 C1753 1.390 . S
C1755 C1756 1.387 . S
C1755 H1758 0.950 . S
C1756 C1755 1.387 . S
C1756 C1759 1.387 . S
H1757 C1753 0.950 . S
H1758 C1755 0.950 . S
C1759 C1750 1.390 . S
C1759 H1752 0.950 . S
C1759 C1756 1.387 . S
C1760 C1761 1.387 . S
C1760 H1764 0.950 . S
C1760 C1769 1.390 . S
C1761 C1760 1.387 . S
C1761 C1763 1.387 . S
H1762 C1769 0.950 . S
C1763 C1761 1.387 . S
C1763 C1765 1.390 . S
C1763 H1767 0.950 . S
H1764 C1760 0.950 . S
C1765 C1763 1.390 . S
C1765 C1766 1.387 . S
C1765 H1768 0.950 . S
C1766 C1765 1.387 . S
C1766 C1769 1.387 . S
H1767 C1763 0.950 . S
H1768 C1765 0.950 . S
C1769 C1760 1.390 . S
C1769 H1762 0.950 . S
C1769 C1766 1.387 . S
C1770 C1771 1.387 . S
C1770 H1774 0.950 . S
C1770 C1779 1.390 . S
C1771 C1770 1.387 . S
C1771 C1773 1.387 . S
H1772 C1779 0.950 . S
C1773 C1771 1.387 . S
C1773 C1775 1.390 . S
C1773 H1777 0.950 . S
H1774 C1770 0.950 . S
C1775 C1773 1.390 . S
C1775 C1776 1.387 . S
C1775 H1778 0.950 . S
C1776 C1775 1.387 . S
C1776 C1779 1.387 . S
H1777 C1773 0.950 . S
H1778 C1775 0.950 . S
C1779 C1770 1.390 . S
C1779 H1772 0.950 . S
C1779 C1776 1.387 . S
C1780 C1781 1.387 . S
C1780 H1784 0.950 . S
C1780 C1789 1.390 . S
C1781 C1780 1.387 . S
C1781 C1783 1.387 . S
H1782 C1789 0.950 . S
C1783 C1781 1.387 . S
C1783 C1785 1.390 . S
C1783 H1787 0.950 . S
H1784 C1780 0.950 . S
C1785 C1783 1.390 . S
C1785 C1786 1.387 . S
C1785 H1788 0.950 . S
C1786 C1785 1.387 . S
C1786 C1789 1.387 . S
H1787 C1783 0.950 . S
H1788 C1785 0.950 . S
C1789 C1780 1.390 . S
C1789 H1782 0.950 . S
C1789 C1786 1.387 . S
C1790 C1791 1.387 . S
C1790 H1794 0.950 . S
C1790 C1799 1.390 . S
C1791 C1790 1.387 . S
C1791 C1793 1.387 . S
H1792 C1799 0.950 . S
C1793 C1791 1.387 . S
C1793 C1795 1.390 . S
C1793 H1797 0.950 . S
H1794 C1790 0.950 . S
C1795 C1793 1.390 . S
C1795 C1796 1.387 . S
C1795 H1798 0.950 . S
C1796 C1795 1.387 . S
C1796 C1799 1.387 . S
H1797 C1793 0.950 . S
H1798 C1795 0.950 . S
C1799 C1790 1.390 . S
C1799 H1792 0.950 . S
C1799 C1796 1.387 . S
C1800 C1801 1.387 . S
C1800 H1804 0.950 . S
C1800 C1809 1.390 . S
C1801 C1800 1.387 . S
C1801 C1803 1.387 . S
H1802 C1809 0.950 . S
C1803 C1801 1.387 . S
C1803 C1805 1.390 . S
C1803 H1807 0.950 . S
H1804 C1800 0.950 . S
C1805 C1803 1.390 . S
C1805 C1806 1.387 . S
C1805 H1808 0.950 . S
C1806 C1805 1.387 . S
C1806 C1809 1.387 . S
H1807 C1803 0.950 . S
H1808 C1805 0.950 . S
C1809 C1800 1.390 . S
C1809 H1802 0.950 . S
C1809 C1806 1.387 . S
C1810 C1811 1.387 . S
C1810 H1814 0.950 . S
C1810 C1819 1.390 . S
C1811 C1810 1.387 . S
C1811 C1813 1.387 . S
H1812 C1819 0.950 . S
C1813 C1811 1.387 . S
C1813 C1815 1.390 . S
C1813 H1817 0.950 . S
H1814 C1810 0.950 . S
C1815 C1813 1.390 . S
C1815 C1816 1.387 . S
C1815 H1818 0.950 . S
C1816 C1815 1.387 . S
C1816 C1819 1.387 . S
H1817 C1813 0.950 . S
H1818 C1815 0.950 . S
C1819 C1810 1.390 . S
C1819 H1812 0.950 . S
C1819 C1816 1.387 . S
C1820 C1821 1.387 . S
C1820 H1824 0.950 . S
C1820 C1829 1.390 . S
C1821 C1820 1.387 . S
C1821 C1823 1.387 . S
H1822 C1829 0.950 . S
C1823 C1821 1.387 . S
C1823 C1825 1.390 . S
C1823 H1827 0.950 . S
H1824 C1820 0.950 . S
C1825 C1823 1.390 . S
C1825 C1826 1.387 . S
C1825 H1828 0.950 . S
C1826 C1825 1.387 . S
C1826 C1829 1.387 . S
H1827 C1823 0.950 . S
H1828 C1825 0.950 . S
C1829 C1820 1.390 . S
C1829 H1822 0.950 . S
C1829 C1826 1.387 . S
C1830 C1831 1.387 . S
C1830 H1834 0.950 . S
C1830 C1839 1.390 . S
C1831 C1830 1.387 . S
C1831 C1833 1.387 . S
H1832 C1839 0.950 . S
C1833 C1831 1.387 . S
C1833 C1835 1.390 . S
C1833 H1837 0.950 . S
H1834 C1830 0.950 . S
C1835 C1833 1.390 . S
C1835 C1836 1.387 . S
C1835 H1838 0.950 . S
C1836 C1835 1.387 . S
C1836 C1839 1.387 . S
H1837 C1833 0.950 . S
H1838 C1835 0.950 . S
C1839 C1830 1.390 . S
C1839 H1832 0.950 . S
C1839 C1836 1.387 . S
C1840 C1841 1.387 . S
C1840 H1844 0.950 . S
C1840 C1849 1.390 . S
C1841 C1840 1.387 . S
C1841 C1843 1.387 . S
H1842 C1849 0.950 . S
C1843 C1841 1.387 . S
C1843 C1845 1.390 . S
C1843 H1847 0.950 . S
H1844 C1840 0.950 . S
C1845 C1843 1.390 . S
C1845 C1846 1.387 . S
C1845 H1848 0.950 . S
C1846 C1845 1.387 . S
C1846 C1849 1.387 . S
H1847 C1843 0.950 . S
H1848 C1845 0.950 . S
C1849 C1840 1.390 . S
C1849 H1842 0.950 . S
C1849 C1846 1.387 . S
C1850 C1851 1.387 . S
C1850 H1854 0.950 . S
C1850 C1859 1.390 . S
C1851 C1850 1.387 . S
C1851 C1853 1.387 . S
H1852 C1859 0.950 . S
C1853 C1851 1.387 . S
C1853 C1855 1.390 . S
C1853 H1857 0.950 . S
H1854 C1850 0.950 . S
C1855 C1853 1.390 . S
C1855 C1856 1.387 . S
C1855 H1858 0.950 . S
C1856 C1855 1.387 . S
C1856 C1859 1.387 . S
H1857 C1853 0.950 . S
H1858 C1855 0.950 . S
C1859 C1850 1.390 . S
C1859 H1852 0.950 . S
C1859 C1856 1.387 . S
C1860 C1861 1.387 . S
C1860 H1864 0.950 . S
C1860 C1869 1.390 . S
C1861 C1860 1.387 . S
C1861 C1863 1.387 . S
H1862 C1869 0.950 . S
C1863 C1861 1.387 . S
C1863 C1865 1.390 . S
C1863 H1867 0.950 . S
H1864 C1860 0.950 . S
C1865 C1863 1.390 . S
C1865 C1866 1.387 . S
C1865 H1868 0.950 . S
C1866 C1865 1.387 . S
C1866 C1869 1.387 . S
H1867 C1863 0.950 . S
H1868 C1865 0.950 . S
C1869 C1860 1.390 . S
C1869 H1862 0.950 . S
C1869 C1866 1.387 . S
C1870 C1871 1.387 . S
C1870 H1874 0.950 . S
C1870 C1879 1.390 . S
C1871 C1870 1.387 . S
C1871 C1873 1.387 . S
H1872 C1879 0.950 . S
C1873 C1871 1.387 . S
C1873 C1875 1.390 . S
C1873 H1877 0.950 . S
H1874 C1870 0.950 . S
C1875 C1873 1.390 . S
C1875 C1876 1.387 . S
C1875 H1878 0.950 . S
C1876 C1875 1.387 . S
C1876 C1879 1.387 . S
H1877 C1873 0.950 . S
H1878 C1875 0.950 . S
C1879 C1870 1.390 . S
C1879 H1872 0.950 . S
C1879 C1876 1.387 . S
C1880 C1881 1.387 . S
C1880 H1884 0.950 . S
C1880 C1889 1.390 . S
C1881 C1880 1.387 . S
C1881 C1883 1.387 . S
H1882 C1889 0.950 . S
C1883 C1881 1.387 . S
C1883 C1885 1.390 . S
C1883 H1887 0.950 . S
H1884 C1880 0.950 . S
C1885 C1883 1.390 . S
C1885 C1886 1.387 . S
C1885 H1888 0.950 . S
C1886 C1885 1.387 . S
C1886 C1889 1.387 . S
H1887 C1883 0.950 . S
H1888 C1885 0.950 . S
C1889 C1880 1.390 . S
C1889 H1882 0.950 . S
C1889 C1886 1.387 . S
C1890 C1891 1.387 . S
C1890 H1894 0.950 . S
C1890 C1899 1.390 . S
C1891 C1890 1.387 . S
C1891 C1893 1.387 . S
H1892 C1899 0.950 . S
C1893 C1891 1.387 . S
C1893 C1895 1.390 . S
C1893 H1897 0.950 . S
H1894 C1890 0.950 . S
C1895 C1893 1.390 . S
C1895 C1896 1.387 . S
C1895 H1898 0.950 . S
C1896 C1895 1.387 . S
C1896 C1899 1.387 . S
H1897 C1893 0.950 . S
H1898 C1895 0.950 . S
C1899 C1890 1.390 . S
C1899 H1892 0.950 . S
C1899 C1896 1.387 . S
C1900 C1901 1.387 . S
C1900 H1904 0.950 . S
C1900 C1909 1.390 . S
C1901 C1900 1.387 . S
C1901 C1903 1.387 . S
H1902 C1909 0.950 . S
C1903 C1901 1.387 . S
C1903 C1905 1.390 . S
C1903 H1907 0.950 . S
H1904 C1900 0.950 . S
C1905 C1903 1.390 . S
C1905 C1906 1.387 . S
C1905 H1908 0.950 . S
C1906 C1905 1.387 . S
C1906 C1909 1.387 . S
H1907 C1903 0.950 . S
H1908 C1905 0.950 . S
C1909 C1900 1.390 . S
C1909 H1902 0.950 . S
C1909 C1906 1.387 . S
C1910 C1911 1.387 . S
C1910 H1914 0.950 . S
C1910 C1919 1.390 . S
C1911 C1910 1.387 . S
C1911 C1913 1.387 . S
H1912 C1919 0.950 . S
C1913 C1911 1.387 . S
C1913 C1915 1.390 . S
C1913 H1917 0.950 . S
H1914 C1910 0.950 . S
C1915 C1913 1.390 . S
C1915 C1916 1.387 . S
C1915 H1918 0.950 . S
C1916 C1915 1.387 . S
C1916 C1919 1.387 . S
H1917 C1913 0.950 . S
H1918 C1915 0.950 . S
C1919 C1910 1.390 . S
C1919 H1912 0.950 . S
C1919 C1916 1.387 . S
C1920 C1921 1.387 . S
C1920 H1924 0.950 . S
C1920 C1929 1.390 . S
C1921 C1920 1.387 . S
C1921 C1923 1.387 . S
H1922 C1929 0.950 . S
C1923 C1921 1.387 . S
C1923 C1925 1.390 . S
C1923 H1927 0.950 . S
H1924 C1920 0.950 . S
C1925 C1923 1.390 . S
C1925 C1926 1.387 . S
C1925 H1928 0.950 . S
C1926 C1925 1.387 . S
C1926 C1929 1.387 . S
H1927 C1923 0.950 . S
H1928 C1925 0.950 . S
C1929 C1920 1.390 . S
C1929 H1922 0.950 . S
C1929 C1926 1.387 . S
C1930 C1931 1.387 . S
C1930 H1934 0.950 . S
C1930 C1939 1.390 . S
C1931 C1930 1.387 . S
C1931 C1933 1.387 . S
H1932 C1939 0.950 . S
C1933 C1931 1.387 . S
C1933 C1935 1.390 . S
C1933 H1937 0.950 . S
H1934 C1930 0.950 . S
C1935 C1933 1.390 . S
C1935 C1936 1.387 . S
C1935 H1938 0.950 . S
C1936 C1935 1.387 . S
C1936 C1939 1.387 . S
H1937 C1933 0.950 . S
H1938 C1935 0.950 . S
C1939 C1930 1.390 . S
C1939 H1932 0.950 . S
C1939 C1936 1.387 . S
C1940 C1941 1.387 . S
C1940 H1944 0.950 . S
C1940 C1949 1.390 . S
C1941 C1940 1.387 . S
C1941 C1943 1.387 . S
H1942 C1949 0.950 . S
C1943 C1941 1.387 . S
C1943 C1945 1.390 . S
C1943 H1947 0.950 . S
H1944 C1940 0.950 . S
C1945 C1943 1.390 . S
C1945 C1946 1.387 . S
C1945 H1948 0.950 . S
C1946 C1945 1.387 . S
C1946 C1949 1.387 . S
H1947 C1943 0.950 . S
H1948 C1945 0.950 . S
C1949 C1940 1.390 . S
C1949 H1942 0.950 . S
C1949 C1946 1.387 . S
C1950 C1951 1.387 . S
C1950 H1954 0.950 . S
C1950 C1959 1.390 . S
C1951 C1950 1.387 . S
C1951 C1953 1.387 . S
H1952 C1959 0.950 . S
C1953 C1951 1.387 . S
C1953 C1955 1.390 . S
C1953 H1957 0.950 . S
H1954 C1950 0.950 . S
C1955 C1953 1.390 . S
C1955 C1956 1.387 . S
C1955 H1958 0.950 . S
C1956 C1955 1.387 . S
C1956 C1959 1.387 . S
H1957 C1953 0.950 . S
H1958 C1955 0.950 . S
C1959 C1950 1.390 . S
C1959 H1952 0.950 . S
C1959 C1956 1.387 . S
C1960 C1961 1.387 . S
C1960 H1964 0.950 . S
C1960 C1969 1.390 . S
C1961 C1960 1.387 . S
C1961 C1963 1.387 . S
H1962 C1969 0.950 . S
C1963 C1961 1.387 . S
C1963 C1965 1.390 . S
C1963 H1967 0.950 . S
H1964 C1960 0.950 . S
C1965 C1963 1.390 . S
C1965 C1966 1.387 . S
C1965 H1968 0.950 . S
C1966 C1965 1.387 . S
C1966 C1969 1.387 . S
H1967 C1963 0.950 . S
H1968 C1965 0.950 . S
C1969 C1960 1.390 . S
C1969 H1962 0.950 . S
C1969 C1966 1.387 . S
C1970 C1971 1.387 . S
C1970 H1974 0.950 . S
C1970 C1979 1.390 . S
C1971 C1970 1.387 . S
C1971 C1973 1.387 . S
H1972 C1979 0.950 . S
C1973 C1971 1.387 . S
C1973 C1975 1.390 . S
C1973 H1977 0.950 . S
H1974 C1970 0.950 . S
C1975 C1973 1.390 . S
C1975 C1976 1.387 . S
C1975 H1978 0.950 . S
C1976 C1975 1.387 . S
C1976 C1979 1.387 . S
H1977 C1973 0.950 . S
H1978 C1975 0.950 . S
C1979 C1970 1.390 . S
C1979 H1972 0.950 . S
C1979 C1976 1.387 . S
C1980 C1981 1.387 . S
C1980 H1984 0.950 . S
C1980 C1989 1.390 . S
C1981 C1980 1.387 . S
C1981 C1983 1.387 . S
H1982 C1989 0.950 . S
C1983 C1981 1.387 . S
C1983 C1985 1.390 . S
C1983 H1987 0.950 . S
H1984 C1980 0.950 . S
C1985 C1983 1.390 . S
C1985 C1986 1.387 . S
C1985 H1988 0.950 . S
C1986 C1985 1.387 . S
C1986 C1989 1.387 . S
H1987 C1983 0.950 . S
H1988 C1985 0.950 . S
C1989 C1980 1.390 . S
C1989 H1982 0.950 . S
C1989 C1986 1.387 . S
C1990 C1991 1.387 . S
C1990 H1994 0.950 . S
C1990 C1999 1.390 . S
C1991 C1990 1.387 . S
C1991 C1993 1.387 . S
H1992 C1999 0.950 . S
C1993 C1991 1.387 . S
C1993 C1995 1.390 . S
C1993 H1997 0.950 . S
H1994 C1990 0.950 . S
C1995 C1993 1.390 . S
C1995 C1996 1.387 . S
C1995 H1998 0.950 . S
C1996 C1995 1.387 . S
C1996 C1999 1.387 . S
H1997 C1993 0.950 . S
H1998 C1995 0.950 . S
C1999 C1990 1.390 . S
C1999 H1992 0.950 . S
C1999 C1996 1.387 . S
C2000 C2001 1.387 . S
C2000 H2004 0.950 . S
C2000 C2009 1.390 . S
C2001 C2000 1.387 . S
C2001 C2003 1.387 . S
H2002 C2009 0.950 . S
C2003 C2001 1.387 . S
C2003 C2005 1.390 . S
C2003 H2007 0.950 . S
H2004 C2000 0.950 . S
C2005 C2003 1.390 . S
C2005 C2006 1.387 . S
C2005 H2008 0.950 . S
C2006 C2005 1.387 . S
C2006 C2009 1.387 . S
H2007 C2003 0.950 . S
H2008 C2005 0.950 . S
C2009 C2000 1.390 . S
C2009 H2002 0.950 . S
C2009 C2006 1.387 . S
C2010 C2011 1.387 . S
C2010 H2014 0.950 . S
C2010 C2019 1.390 . S
C2011 C2010 1.387 . S
C2011 C2013 1.387 . S
H2012 C2019 0.950 . S
C2013 C2011 1.387 . S
C2013 C2015 1.390 . S
C2013 H2017 0.950 . S
H2014 C2010 0.950 . S
C2015 C2013 1.390 . S
C2015 C2016 1.387 . S
C2015 H2018 0.950 . S
C2016 C2015 1.387 . S
C2016 C2019 1.387 . S
H2017 C2013 0.950 . S
H2018 C2015 0.950 . S
C2019 C2010 1.390 . S
C2019 H2012 0.950 . S
C2019 C2016 1.387 . S
C2020 C2021 1.387 . S
C2020 H2024 0.950 . S
C2020 C2029 1.390 . S
C2021 C2020 1.387 . S
C2021 C2023 1.387 . S
H2022 C2029 0.950 . S
C2023 C2021 1.387 . S
C2023 C2025 1.390 . S
C2023 H2027 0.950 . S
H2024 C2020 0.950 . S
C2025 C2023 1.390 . S
C2025 C2026 1.387 . S
C2025 H2028 0.950 . S
C2026 C2025 1.387 . S
C2026 C2029 1.387 . S
H2027 C2023 0.950 . S
H2028 C2025 0.950 . S
C2029 C2020 1.390 . S
C2029 H2022 0.950 . S
C2029 C2026 1.387 . S
C2030 C2031 1.387 . S
C2030 H2034 0.950 . S
C2030 C2039 1.390 . S
C2031 C2030 1.387 . S
C2031 C2033 1.387 . S
H2032 C2039 0.950 . S
C2033 C2031 1.387 . S
C2033 C2035 1.390 . S
C2033 H2037 0.950 . S
H2034 C2030 0.950 . S
C2035 C2033 1.390 . S
C2035 C2036 1.387 . S
C2035 H2038 0.950 . S
C2036 C2035 1.387 . S
C2036 C2039 1.387 . S
H2037 C2033 0.950 . S
H2038 C2035 0.950 . S
C2039 C2030 1.390 . S
C2039 H2032 0.950 . S
C2039 C2036 1.387 . S
C2040 C2041 1.387 1_455 S
C2040 H2044 0.932 1_455 S
C2040 C2049 1.390 . S
C2041 C2040 1.387 1_655 S
C2041 C2043 1.387 . S
H2042 C2049 0.950 . S
C2043 C2041 1.387 . S
C2043 C2045 1.390 1_655 S
C2043 H2047 0.950 . S
H2044 C2040 0.932 1_655 S
C2045 C2043 1.390 1_455 S
C2045 C2046 1.387 . S
C2045 H2048 0.950 . S
C2046 C2045 1.387 . S
C2046 C2049 1.387 . S
H2047 C2043 0.950 . S
H2048 C2045 0.950 . S
C2049 C2040 1.390 . S
C2049 H2042 0.950 . S
C2049 C2046 1.387 . S
C2050 C2051 1.387 . S
C2050 H2054 0.950 . S
C2050 C2059 1.390 . S
C2051 C2050 1.387 . S
C2051 C2053 1.387 . S
H2052 C2059 0.950 . S
C2053 C2051 1.387 . S
C2053 C2055 1.390 . S
C2053 H2057 0.950 . S
H2054 C2050 0.950 . S
C2055 C2053 1.390 . S
C2055 C2056 1.387 . S
C2055 H2058 0.950 . S
C2056 C2055 1.387 . S
C2056 C2059 1.387 . S
H2057 C2053 0.950 . S
H2058 C2055 0.950 . S
C2059 C2050 1.390 . S
C2059 H2052 0.950 . S
C2059 C2056 1.387 . S
C2060 C2061 1.387 . S
C2060 H2064 0.950 . S
C2060 C2069 1.390 . S
C2061 C2060 1.387 . S
C2061 C2063 1.387 . S
H2062 C2069 0.950 . S
C2063 C2061 1.387 . S
C2063 C2065 1.390 . S
C2063 H2067 0.950 . S
H2064 C2060 0.950 . S
C2065 C2063 1.390 . S
C2065 C2066 1.387 . S
C2065 H2068 0.950 . S
C2066 C2065 1.387 . S
C2066 C2069 1.387 . S
H2067 C2063 0.950 . S
H2068 C2065 0.950 . S
C2069 C2060 1.390 . S
C2069 H2062 0.950 . S
C2069 C2066 1.387 . S
C2070 C2071 1.387 . S
C2070 H2074 0.950 . S
C2070 C2079 1.390 . S
C2071 C2070 1.387 . S
C2071 C2073 1.387 . S
H2072 C2079 0.950 . S
C2073 C2071 1.387 . S
C2073 C2075 1.390 . S
C2073 H2077 0.950 . S
H2074 C2070 0.950 . S
C2075 C2073 1.390 . S
C2075 C2076 1.387 . S
C2075 H2078 0.950 . S
C2076 C2075 1.387 . S
C2076 C2079 1.387 . S
H2077 C2073 0.950 . S
H2078 C2075 0.950 . S
C2079 C2070 1.390 . S
C2079 H2072 0.950 . S
C2079 C2076 1.387 . S
C2080 C2081 1.387 . S
C2080 H2084 0.950 . S
C2080 C2089 1.390 . S
C2081 C2080 1.387 . S
C2081 C2083 1.387 . S
H2082 C2089 0.950 . S
C2083 C2081 1.387 . S
C2083 C2085 1.390 . S
C2083 H2087 0.950 . S
H2084 C2080 0.950 . S
C2085 C2083 1.390 . S
C2085 C2086 1.387 . S
C2085 H2088 0.950 . S
C2086 C2085 1.387 . S
C2086 C2089 1.387 . S
H2087 C2083 0.950 . S
H2088 C2085 0.950 . S
C2089 C2080 1.390 . S
C2089 H2082 0.950 . S
C2089 C2086 1.387 . S
C2090 C2091 1.387 . S
C2090 H2094 0.950 . S
C2090 C2099 1.390 . S
C2091 C2090 1.387 . S
C2091 C2093 1.387 . S
H2092 C2099 0.950 . S
C2093 C2091 1.387 . S
C2093 C2095 1.390 . S
C2093 H2097 0.950 . S
H2094 C2090 0.950 . S
C2095 C2093 1.390 . S
C2095 C2096 1.387 . S
C2095 H2098 0.950 . S
C2096 C2095 1.387 . S
C2096 C2099 1.387 . S
H2097 C2093 0.950 . S
H2098 C2095 0.950 . S
C2099 C2090 1.390 . S
C2099 H2092 0.950 . S
C2099 C2096 1.387 . S
C2100 C2101 1.387 . S
C2100 H2104 0.950 . S
C2100 C2109 1.390 . S
C2101 C2100 1.387 . S
C2101 C2103 1.387 . S
H2102 C2109 0.950 . S
C2103 C2101 1.387 . S
C2103 C2105 1.390 . S
C2103 H2107 0.950 . S
H2104 C2100 0.950 . S
C2105 C2103 1.390 . S
C2105 C2106 1.387 . S
C2105 H2108 0.950 . S
C2106 C2105 1.387 . S
C2106 C2109 1.387 . S
H2107 C2103 0.950 . S
H2108 C2105 0.950 . S
C2109 C2100 1.390 . S
C2109 H2102 0.950 . S
C2109 C2106 1.387 . S
C2110 C2111 1.387 . S
C2110 H2114 0.950 . S
C2110 C2119 1.390 . S
C2111 C2110 1.387 . S
C2111 C2113 1.387 . S
H2112 C2119 0.950 . S
C2113 C2111 1.387 . S
C2113 C2115 1.390 . S
C2113 H2117 0.950 . S
H2114 C2110 0.950 . S
C2115 C2113 1.390 . S
C2115 C2116 1.387 . S
C2115 H2118 0.950 . S
C2116 C2115 1.387 . S
C2116 C2119 1.387 . S
H2117 C2113 0.950 . S
H2118 C2115 0.950 . S
C2119 C2110 1.390 . S
C2119 H2112 0.950 . S
C2119 C2116 1.387 . S
C2120 C2121 1.387 . S
C2120 H2124 0.950 . S
C2120 C2129 1.390 . S
C2121 C2120 1.387 . S
C2121 C2123 1.387 . S
H2122 C2129 0.950 . S
C2123 C2121 1.387 . S
C2123 C2125 1.390 . S
C2123 H2127 0.950 . S
H2124 C2120 0.950 . S
C2125 C2123 1.390 . S
C2125 C2126 1.387 . S
C2125 H2128 0.950 . S
C2126 C2125 1.387 . S
C2126 C2129 1.387 . S
H2127 C2123 0.950 . S
H2128 C2125 0.950 . S
C2129 C2120 1.390 . S
C2129 H2122 0.950 . S
C2129 C2126 1.387 . S
C2130 C2131 1.387 . S
C2130 H2134 0.950 . S
C2130 C2139 1.390 . S
C2131 C2130 1.387 . S
C2131 C2133 1.387 . S
H2132 C2139 0.950 . S
C2133 C2131 1.387 . S
C2133 C2135 1.390 . S
C2133 H2137 0.950 . S
H2134 C2130 0.950 . S
C2135 C2133 1.390 . S
C2135 C2136 1.387 . S
C2135 H2138 0.950 . S
C2136 C2135 1.387 . S
C2136 C2139 1.387 . S
H2137 C2133 0.950 . S
H2138 C2135 0.950 . S
C2139 C2130 1.390 . S
C2139 H2132 0.950 . S
C2139 C2136 1.387 . S
C2140 C2141 1.387 . S
C2140 H2144 0.950 . S
C2140 C2149 1.390 . S
C2141 C2140 1.387 . S
C2141 C2143 1.387 . S
H2142 C2149 0.950 . S
C2143 C2141 1.387 . S
C2143 C2145 1.390 . S
C2143 H2147 0.950 . S
H2144 C2140 0.950 . S
C2145 C2143 1.390 . S
C2145 C2146 1.387 . S
C2145 H2148 0.950 . S
C2146 C2145 1.387 . S
C2146 C2149 1.387 . S
H2147 C2143 0.950 . S
H2148 C2145 0.950 . S
C2149 C2140 1.390 . S
C2149 H2142 0.950 . S
C2149 C2146 1.387 . S
C2150 C2151 1.387 . S
C2150 H2154 0.950 . S
C2150 C2159 1.390 . S
C2151 C2150 1.387 . S
C2151 C2153 1.387 . S
H2152 C2159 0.950 . S
C2153 C2151 1.387 . S
C2153 C2155 1.390 . S
C2153 H2157 0.950 . S
H2154 C2150 0.950 . S
C2155 C2153 1.390 . S
C2155 C2156 1.387 . S
C2155 H2158 0.950 . S
C2156 C2155 1.387 . S
C2156 C2159 1.387 . S
H2157 C2153 0.950 . S
H2158 C2155 0.950 . S
C2159 C2150 1.390 . S
C2159 H2152 0.950 . S
C2159 C2156 1.387 . S
C2160 C2161 1.387 . S
C2160 H2164 0.950 . S
C2160 C2169 1.390 . S
C2161 C2160 1.387 . S
C2161 C2163 1.387 . S
H2162 C2169 0.950 . S
C2163 C2161 1.387 . S
C2163 C2165 1.390 . S
C2163 H2167 0.950 . S
H2164 C2160 0.950 . S
C2165 C2163 1.390 . S
C2165 C2166 1.387 . S
C2165 H2168 0.950 . S
C2166 C2165 1.387 . S
C2166 C2169 1.387 . S
H2167 C2163 0.950 . S
H2168 C2165 0.950 . S
C2169 C2160 1.390 . S
C2169 H2162 0.950 . S
C2169 C2166 1.387 . S
C2170 C2171 1.387 . S
C2170 H2174 0.950 . S
C2170 C2179 1.390 . S
C2171 C2170 1.387 . S
C2171 C2173 1.387 . S
H2172 C2179 0.950 . S
C2173 C2171 1.387 . S
C2173 C2175 1.390 . S
C2173 H2177 0.950 . S
H2174 C2170 0.950 . S
C2175 C2173 1.390 . S
C2175 C2176 1.387 . S
C2175 H2178 0.950 . S
C2176 C2175 1.387 . S
C2176 C2179 1.387 . S
H2177 C2173 0.950 . S
H2178 C2175 0.950 . S
C2179 C2170 1.390 . S
C2179 H2172 0.950 . S
C2179 C2176 1.387 . S
C2180 C2181 1.387 . S
C2180 H2184 0.950 . S
C2180 C2189 1.390 . S
C2181 C2180 1.387 . S
C2181 C2183 1.387 . S
H2182 C2189 0.950 . S
C2183 C2181 1.387 . S
C2183 C2185 1.390 . S
C2183 H2187 0.950 . S
H2184 C2180 0.950 . S
C2185 C2183 1.390 . S
C2185 C2186 1.387 . S
C2185 H2188 0.950 . S
C2186 C2185 1.387 . S
C2186 C2189 1.387 . S
H2187 C2183 0.950 . S
H2188 C2185 0.950 . S
C2189 C2180 1.390 . S
C2189 H2182 0.950 . S
C2189 C2186 1.387 . S
C2190 C2191 1.387 . S
C2190 H2194 0.950 . S
C2190 C2199 1.390 . S
C2191 C2190 1.387 . S
C2191 C2193 1.387 . S
H2192 C2199 0.950 . S
C2193 C2191 1.387 . S
C2193 C2195 1.390 . S
C2193 H2197 0.950 . S
H2194 C2190 0.950 . S
C2195 C2193 1.390 . S
C2195 C2196 1.387 . S
C2195 H2198 0.950 . S
C2196 C2195 1.387 . S
C2196 C2199 1.387 . S
H2197 C2193 0.950 . S
H2198 C2195 0.950 . S
C2199 C2190 1.390 . S
C2199 H2192 0.950 . S
C2199 C2196 1.387 . S
C2200 C2201 1.387 . S
C2200 H2204 0.950 . S
C2200 C2209 1.390 . S
C2201 C2200 1.387 . S
C2201 C2203 1.387 . S
H2202 C2209 0.950 . S
C2203 C2201 1.387 . S
C2203 C2205 1.390 . S
C2203 H2207 0.950 . S
H2204 C2200 0.950 . S
C2205 C2203 1.390 . S
C2205 C2206 1.387 . S
C2205 H2208 0.950 . S
C2206 C2205 1.387 . S
C2206 C2209 1.387 . S
H2207 C2203 0.950 . S
H2208 C2205 0.950 . S
C2209 C2200 1.390 . S
C2209 H2202 0.950 . S
C2209 C2206 1.387 . S
C2210 C2211 1.387 . S
C2210 H2214 0.950 . S
C2210 C2219 1.390 . S
C2211 C2210 1.387 . S
C2211 C2213 1.387 . S
H2212 C2219 0.950 . S
C2213 C2211 1.387 . S
C2213 C2215 1.390 . S
C2213 H2217 0.950 . S
H2214 C2210 0.950 . S
C2215 C2213 1.390 . S
C2215 C2216 1.387 . S
C2215 H2218 0.950 . S
C2216 C2215 1.387 . S
C2216 C2219 1.387 . S
H2217 C2213 0.950 . S
H2218 C2215 0.950 . S
C2219 C2210 1.390 . S
C2219 H2212 0.950 . S
C2219 C2216 1.387 . S
C2220 C2221 1.387 . S
C2220 H2224 0.950 . S
C2220 C2229 1.390 . S
C2221 C2220 1.387 . S
C2221 C2223 1.387 . S
H2222 C2229 0.950 . S
C2223 C2221 1.387 . S
C2223 C2225 1.390 . S
C2223 H2227 0.950 . S
H2224 C2220 0.950 . S
C2225 C2223 1.390 . S
C2225 C2226 1.387 . S
C2225 H2228 0.950 . S
C2226 C2225 1.387 . S
C2226 C2229 1.387 . S
H2227 C2223 0.950 . S
H2228 C2225 0.950 . S
C2229 C2220 1.390 . S
C2229 H2222 0.950 . S
C2229 C2226 1.387 . S
C2230 C2231 1.387 . S
C2230 H2234 0.950 . S
C2230 C2239 1.390 . S
C2231 C2230 1.387 . S
C2231 C2233 1.387 . S
H2232 C2239 0.950 . S
C2233 C2231 1.387 . S
C2233 C2235 1.390 . S
C2233 H2237 0.950 . S
H2234 C2230 0.950 . S
C2235 C2233 1.390 . S
C2235 C2236 1.387 . S
C2235 H2238 0.950 . S
C2236 C2235 1.387 . S
C2236 C2239 1.387 . S
H2237 C2233 0.950 . S
H2238 C2235 0.950 . S
C2239 C2230 1.390 . S
C2239 H2232 0.950 . S
C2239 C2236 1.387 . S
C2240 C2241 1.387 . S
C2240 H2244 0.950 . S
C2240 C2249 1.390 . S
C2241 C2240 1.387 . S
C2241 C2243 1.387 . S
H2242 C2249 0.950 . S
C2243 C2241 1.387 . S
C2243 C2245 1.390 . S
C2243 H2247 0.950 . S
H2244 C2240 0.950 . S
C2245 C2243 1.390 . S
C2245 C2246 1.387 . S
C2245 H2248 0.950 . S
C2246 C2245 1.387 . S
C2246 C2249 1.387 . S
H2247 C2243 0.950 . S
H2248 C2245 0.950 . S
C2249 C2240 1.390 . S
C2249 H2242 0.950 . S
C2249 C2246 1.387 . S
C2250 C2251 1.387 . S
C2250 H2254 0.950 . S
C2250 C2259 1.390 . S
C2251 C2250 1.387 . S
C2251 C2253 1.387 . S
H2252 C2259 0.950 . S
C2253 C2251 1.387 . S
C2253 C2255 1.390 . S
C2253 H2257 0.950 . S
H2254 C2250 0.950 . S
C2255 C2253 1.390 . S
C2255 C2256 1.387 . S
C2255 H2258 0.950 . S
C2256 C2255 1.387 . S
C2256 C2259 1.387 . S
H2257 C2253 0.950 . S
H2258 C2255 0.950 . S
C2259 C2250 1.390 . S
C2259 H2252 0.950 . S
C2259 C2256 1.387 . S
C2260 C2261 1.387 . S
C2260 H2264 0.950 . S
C2260 C2269 1.390 . S
C2261 C2260 1.387 . S
C2261 C2263 1.387 . S
H2262 C2269 0.950 . S
C2263 C2261 1.387 . S
C2263 C2265 1.390 . S
C2263 H2267 0.950 . S
H2264 C2260 0.950 . S
C2265 C2263 1.390 . S
C2265 C2266 1.387 . S
C2265 H2268 0.950 . S
C2266 C2265 1.387 . S
C2266 C2269 1.387 . S
H2267 C2263 0.950 . S
H2268 C2265 0.950 . S
C2269 C2260 1.390 . S
C2269 H2262 0.950 . S
C2269 C2266 1.387 . S
C2270 C2271 1.387 . S
C2270 H2274 0.950 . S
C2270 C2279 1.390 . S
C2271 C2270 1.387 . S
C2271 C2273 1.387 . S
H2272 C2279 0.950 . S
C2273 C2271 1.387 . S
C2273 C2275 1.390 . S
C2273 H2277 0.950 . S
H2274 C2270 0.950 . S
C2275 C2273 1.390 . S
C2275 C2276 1.387 . S
C2275 H2278 0.950 . S
C2276 C2275 1.387 . S
C2276 C2279 1.387 . S
H2277 C2273 0.950 . S
H2278 C2275 0.950 . S
C2279 C2270 1.390 . S
C2279 H2272 0.950 . S
C2279 C2276 1.387 . S
C2280 C2281 1.387 . S
C2280 H2284 0.950 . S
C2280 C2289 1.390 1_455 S
C2281 C2280 1.387 . S
C2281 C2283 1.387 1_455 S
H2282 C2289 0.950 . S
C2283 C2281 1.387 1_655 S
C2283 C2285 1.390 . S
C2283 H2287 0.950 . S
H2284 C2280 0.950 . S
C2285 C2283 1.390 . S
C2285 C2286 1.387 . S
C2285 H2288 0.950 . S
C2286 C2285 1.387 . S
C2286 C2289 1.387 . S
H2287 C2283 0.950 . S
H2288 C2285 0.950 . S
C2289 C2280 1.390 1_655 S
C2289 H2282 0.950 . S
C2289 C2286 1.387 . S
C2290 C2291 1.387 . S
C2290 H2294 0.950 . S
C2290 C2299 1.390 . S
C2291 C2290 1.387 . S
C2291 C2293 1.387 . S
H2292 C2299 0.950 . S
C2293 C2291 1.387 . S
C2293 C2295 1.390 . S
C2293 H2297 0.950 . S
H2294 C2290 0.950 . S
C2295 C2293 1.390 . S
C2295 C2296 1.387 . S
C2295 H2298 0.950 . S
C2296 C2295 1.387 . S
C2296 C2299 1.387 . S
H2297 C2293 0.950 . S
H2298 C2295 0.950 . S
C2299 C2290 1.390 . S
C2299 H2292 0.950 . S
C2299 C2296 1.387 . S
C2300 C2301 1.387 . S
C2300 H2304 0.950 . S
C2300 C2309 1.390 . S
C2301 C2300 1.387 . S
C2301 C2303 1.387 . S
H2302 C2309 0.950 . S
C2303 C2301 1.387 . S
C2303 C2305 1.390 . S
C2303 H2307 0.950 . S
H2304 C2300 0.950 . S
C2305 C2303 1.390 . S
C2305 C2306 1.387 . S
C2305 H2308 0.950 . S
C2306 C2305 1.387 . S
C2306 C2309 1.387 . S
H2307 C2303 0.950 . S
H2308 C2305 0.950 . S
C2309 C2300 1.390 . S
C2309 H2302 0.950 . S
C2309 C2306 1.387 . S
C2310 C2311 1.387 . S
C2310 H2314 0.950 . S
C2310 C2319 1.390 . S
C2311 C2310 1.387 . S
C2311 C2313 1.387 . S
H2312 C2319 0.950 . S
C2313 C2311 1.387 . S
C2313 C2315 1.390 . S
C2313 H2317 0.950 . S
H2314 C2310 0.950 . S
C2315 C2313 1.390 . S
C2315 C2316 1.387 . S
C2315 H2318 0.950 . S
C2316 C2315 1.387 . S
C2316 C2319 1.387 . S
H2317 C2313 0.950 . S
H2318 C2315 0.950 . S
C2319 C2310 1.390 . S
C2319 H2312 0.950 . S
C2319 C2316 1.387 . S
C2320 C2321 1.387 . S
C2320 H2324 0.950 . S
C2320 C2329 1.390 . S
C2321 C2320 1.387 . S
C2321 C2323 1.387 . S
H2322 C2329 0.950 . S
C2323 C2321 1.387 . S
C2323 C2325 1.390 . S
C2323 H2327 0.950 . S
H2324 C2320 0.950 . S
C2325 C2323 1.390 . S
C2325 C2326 1.387 . S
C2325 H2328 0.950 . S
C2326 C2325 1.387 . S
C2326 C2329 1.387 . S
H2327 C2323 0.950 . S
H2328 C2325 0.950 . S
C2329 C2320 1.390 . S
C2329 H2322 0.950 . S
C2329 C2326 1.387 . S
C2330 C2331 1.387 . S
C2330 H2334 0.950 . S
C2330 C2339 1.390 . S
C2331 C2330 1.387 . S
C2331 C2333 1.387 . S
H2332 C2339 0.950 . S
C2333 C2331 1.387 . S
C2333 C2335 1.390 . S
C2333 H2337 0.950 . S
H2334 C2330 0.950 . S
C2335 C2333 1.390 . S
C2335 C2336 1.387 . S
C2335 H2338 0.950 . S
C2336 C2335 1.387 . S
C2336 C2339 1.387 . S
H2337 C2333 0.950 . S
H2338 C2335 0.950 . S
C2339 C2330 1.390 . S
C2339 H2332 0.950 . S
C2339 C2336 1.387 . S
C2340 C2341 1.387 . S
C2340 H2344 0.950 . S
C2340 C2349 1.390 . S
C2341 C2340 1.387 . S
C2341 C2343 1.387 . S
H2342 C2349 0.950 . S
C2343 C2341 1.387 . S
C2343 C2345 1.390 . S
C2343 H2347 0.950 . S
H2344 C2340 0.950 . S
C2345 C2343 1.390 . S
C2345 C2346 1.387 . S
C2345 H2348 0.950 . S
C2346 C2345 1.387 . S
C2346 C2349 1.387 . S
H2347 C2343 0.950 . S
H2348 C2345 0.950 . S
C2349 C2340 1.390 . S
C2349 H2342 0.950 . S
C2349 C2346 1.387 . S
C2350 C2351 1.387 . S
C2350 H2354 0.950 . S
C2350 C2359 1.390 . S
C2351 C2350 1.387 . S
C2351 C2353 1.387 . S
H2352 C2359 0.950 . S
C2353 C2351 1.387 . S
C2353 C2355 1.390 . S
C2353 H2357 0.950 . S
H2354 C2350 0.950 . S
C2355 C2353 1.390 . S
C2355 C2356 1.387 . S
C2355 H2358 0.950 . S
C2356 C2355 1.387 . S
C2356 C2359 1.387 . S
H2357 C2353 0.950 . S
H2358 C2355 0.950 . S
C2359 C2350 1.390 . S
C2359 H2352 0.950 . S
C2359 C2356 1.387 . S
C2360 C2361 1.387 . S
C2360 H2364 0.950 . S
C2360 C2369 1.390 . S
C2361 C2360 1.387 . S
C2361 C2363 1.387 . S
H2362 C2369 0.950 . S
C2363 C2361 1.387 . S
C2363 C2365 1.390 . S
C2363 H2367 0.950 . S
H2364 C2360 0.950 . S
C2365 C2363 1.390 . S
C2365 C2366 1.387 . S
C2365 H2368 0.950 . S
C2366 C2365 1.387 . S
C2366 C2369 1.387 . S
H2367 C2363 0.950 . S
H2368 C2365 0.950 . S
C2369 C2360 1.390 . S
C2369 H2362 0.950 . S
C2369 C2366 1.387 . S
C2370 C2371 1.387 . S
C2370 H2374 0.950 . S
C2370 C2379 1.390 . S
C2371 C2370 1.387 . S
C2371 C2373 1.387 . S
H2372 C2379 0.950 . S
C2373 C2371 1.387 . S
C2373 C2375 1.390 . S
C2373 H2377 0.950 . S
H2374 C2370 0.950 . S
C2375 C2373 1.390 . S
C2375 C2376 1.387 . S
C2375 H2378 0.950 . S
C2376 C2375 1.387 . S
C2376 C2379 1.387 . S
H2377 C2373 0.950 . S
H2378 C2375 0.950 . S
C2379 C2370 1.390 . S
C2379 H2372 0.950 . S
C2379 C2376 1.387 . S
C2380 C2381 1.387 . S
C2380 H2384 0.950 . S
C2380 C2389 1.390 . S
C2381 C2380 1.387 . S
C2381 C2383 1.387 . S
H2382 C2389 0.950 . S
C2383 C2381 1.387 . S
C2383 C2385 1.390 . S
C2383 H2387 0.950 . S
H2384 C2380 0.950 . S
C2385 C2383 1.390 . S
C2385 C2386 1.387 . S
C2385 H2388 0.950 . S
C2386 C2385 1.387 . S
C2386 C2389 1.387 . S
H2387 C2383 0.950 . S
H2388 C2385 0.950 . S
C2389 C2380 1.390 . S
C2389 H2382 0.950 . S
C2389 C2386 1.387 . S
C2390 C2391 1.387 . S
C2390 H2394 0.950 . S
C2390 C2399 1.390 . S
C2391 C2390 1.387 . S
C2391 C2393 1.387 . S
H2392 C2399 0.950 . S
C2393 C2391 1.387 . S
C2393 C2395 1.390 . S
C2393 H2397 0.950 . S
H2394 C2390 0.950 . S
C2395 C2393 1.390 . S
C2395 C2396 1.387 . S
C2395 H2398 0.950 . S
C2396 C2395 1.387 . S
C2396 C2399 1.387 . S
H2397 C2393 0.950 . S
H2398 C2395 0.950 . S
C2399 C2390 1.390 . S
C2399 H2392 0.950 . S
C2399 C2396 1.387 . S
C2400 C2401 1.387 . S
C2400 H2404 0.950 . S
C2400 C2409 1.390 . S
C2401 C2400 1.387 . S
C2401 C2403 1.387 . S
H2402 C2409 0.950 . S
C2403 C2401 1.387 . S
C2403 C2405 1.390 . S
C2403 H2407 0.950 . S
H2404 C2400 0.950 . S
C2405 C2403 1.390 . S
C2405 C2406 1.387 . S
C2405 H2408 0.950 . S
C2406 C2405 1.387 . S
C2406 C2409 1.387 . S
H2407 C2403 0.950 . S
H2408 C2405 0.950 . S
C2409 C2400 1.390 . S
C2409 H2402 0.950 . S
C2409 C2406 1.387 . S
C2410 C2411 1.387 . S
C2410 H2414 0.950 . S
C2410 C2419 1.390 . S
C2411 C2410 1.387 . S
C2411 C2413 1.387 . S
H2412 C2419 0.950 . S
C2413 C2411 1.387 . S
C2413 C2415 1.390 . S
C2413 H2417 0.950 . S
H2414 C2410 0.950 . S
C2415 C2413 1.390 . S
C2415 C2416 1.387 . S
C2415 H2418 0.950 . S
C2416 C2415 1.387 . S
C2416 C2419 1.387 . S
H2417 C2413 0.950 . S
H2418 C2415 0.950 . S
C2419 C2410 1.390 . S
C2419 H2412 0.950 . S
C2419 C2416 1.387 . S
C2420 C2421 1.387 . S
C2420 H2424 0.950 . S
C2420 C2429 1.390 . S
C2421 C2420 1.387 . S
C2421 C2423 1.387 . S
H2422 C2429 0.950 . S
C2423 C2421 1.387 . S
C2423 C2425 1.390 . S
C2423 H2427 0.950 . S
H2424 C2420 0.950 . S
C2425 C2423 1.390 . S
C2425 C2426 1.387 . S
C2425 H2428 0.950 . S
C2426 C2425 1.387 . S
C2426 C2429 1.387 . S
H2427 C2423 0.950 . S
H2428 C2425 0.950 . S
C2429 C2420 1.390 . S
C2429 H2422 0.950 . S
C2429 C2426 1.387 . S
C2430 C2431 1.387 . S
C2430 H2434 0.950 . S
C2430 C2439 1.390 . S
C2431 C2430 1.387 . S
C2431 C2433 1.387 . S
H2432 C2439 0.950 . S
C2433 C2431 1.387 . S
C2433 C2435 1.390 . S
C2433 H2437 0.950 . S
H2434 C2430 0.950 . S
C2435 C2433 1.390 . S
C2435 C2436 1.387 . S
C2435 H2438 0.950 . S
C2436 C2435 1.387 . S
C2436 C2439 1.387 . S
H2437 C2433 0.950 . S
H2438 C2435 0.950 . S
C2439 C2430 1.390 . S
C2439 H2432 0.950 . S
C2439 C2436 1.387 . S
C2440 C2441 1.387 1_556 S
C2440 H2444 0.950 . S
C2440 C2449 1.390 . S
C2441 C2440 1.387 1_554 S
C2441 C2443 1.387 . S
H2442 C2449 0.950 . S
C2443 C2441 1.387 . S
C2443 C2445 1.390 1_554 S
C2443 H2447 0.950 . S
H2444 C2440 0.950 . S
C2445 C2443 1.390 1_556 S
C2445 C2446 1.387 . S
C2445 H2448 0.950 . S
C2446 C2445 1.387 . S
C2446 C2449 1.387 . S
H2447 C2443 0.950 . S
H2448 C2445 0.950 . S
C2449 C2440 1.390 . S
C2449 H2442 0.950 . S
C2449 C2446 1.387 . S
C2450 C2451 1.387 . S
C2450 H2454 0.950 1_455 S
C2450 C2459 1.390 . S
C2451 C2450 1.387 . S
C2451 C2453 1.387 . S
H2452 C2459 0.950 . S
C2453 C2451 1.387 . S
C2453 C2455 1.390 . S
C2453 H2457 0.950 . S
H2454 C2450 0.950 1_655 S
C2455 C2453 1.390 . S
C2455 C2456 1.387 . S
C2455 H2458 0.950 . S
C2456 C2455 1.387 . S
C2456 C2459 1.387 . S
H2457 C2453 0.950 . S
H2458 C2455 0.950 . S
C2459 C2450 1.390 . S
C2459 H2452 0.950 . S
C2459 C2456 1.387 . S
C2460 C2461 1.387 . S
C2460 H2464 0.950 . S
C2460 C2469 1.390 . S
C2461 C2460 1.387 . S
C2461 C2463 1.387 . S
H2462 C2469 0.950 . S
C2463 C2461 1.387 . S
C2463 C2465 1.390 . S
C2463 H2467 0.950 . S
H2464 C2460 0.950 . S
C2465 C2463 1.390 . S
C2465 C2466 1.387 . S
C2465 H2468 0.950 . S
C2466 C2465 1.387 . S
C2466 C2469 1.387 . S
H2467 C2463 0.950 . S
H2468 C2465 0.950 . S
C2469 C2460 1.390 . S
C2469 H2462 0.950 . S
C2469 C2466 1.387 . S
C2470 C2471 1.387 . S
C2470 H2474 0.950 . S
C2470 C2479 1.390 . S
C2471 C2470 1.387 . S
C2471 C2473 1.387 . S
H2472 C2479 0.950 . S
C2473 C2471 1.387 . S
C2473 C2475 1.390 . S
C2473 H2477 0.950 . S
H2474 C2470 0.950 . S
C2475 C2473 1.390 . S
C2475 C2476 1.387 . S
C2475 H2478 0.950 . S
C2476 C2475 1.387 . S
C2476 C2479 1.387 . S
H2477 C2473 0.950 . S
H2478 C2475 0.950 . S
C2479 C2470 1.390 . S
C2479 H2472 0.950 . S
C2479 C2476 1.387 . S
C2480 C2481 1.387 . S
C2480 H2484 0.950 . S
C2480 C2489 1.390 . S
C2481 C2480 1.387 . S
C2481 C2483 1.387 . S
H2482 C2489 0.950 . S
C2483 C2481 1.387 . S
C2483 C2485 1.390 . S
C2483 H2487 0.950 . S
H2484 C2480 0.950 . S
C2485 C2483 1.390 . S
C2485 C2486 1.387 . S
C2485 H2488 0.950 . S
C2486 C2485 1.387 . S
C2486 C2489 1.387 . S
H2487 C2483 0.950 . S
H2488 C2485 0.950 . S
C2489 C2480 1.390 . S
C2489 H2482 0.950 . S
C2489 C2486 1.387 . S
C2490 C2491 1.387 . S
C2490 H2494 0.950 . S
C2490 C2499 1.390 . S
C2491 C2490 1.387 . S
C2491 C2493 1.387 . S
H2492 C2499 0.950 . S
C2493 C2491 1.387 . S
C2493 C2495 1.390 . S
C2493 H2497 0.950 . S
H2494 C2490 0.950 . S
C2495 C2493 1.390 . S
C2495 C2496 1.387 . S
C2495 H2498 0.950 . S
C2496 C2495 1.387 . S
C2496 C2499 1.387 . S
H2497 C2493 0.950 . S
H2498 C2495 0.950 . S
C2499 C2490 1.390 . S
C2499 H2492 0.950 . S
C2499 C2496 1.387 . S
C2500 C2501 1.387 . S
C2500 H2504 0.950 . S
C2500 C2509 1.390 . S
C2501 C2500 1.387 . S
C2501 C2503 1.387 . S
H2502 C2509 0.950 . S
C2503 C2501 1.387 . S
C2503 C2505 1.390 . S
C2503 H2507 0.950 . S
H2504 C2500 0.950 . S
C2505 C2503 1.390 . S
C2505 C2506 1.387 . S
C2505 H2508 0.950 . S
C2506 C2505 1.387 . S
C2506 C2509 1.387 . S
H2507 C2503 0.950 . S
H2508 C2505 0.950 . S
C2509 C2500 1.390 . S
C2509 H2502 0.950 . S
C2509 C2506 1.387 . S
C2510 C2511 1.387 . S
C2510 H2514 0.950 . S
C2510 C2519 1.390 . S
C2511 C2510 1.387 . S
C2511 C2513 1.387 . S
H2512 C2519 0.950 . S
C2513 C2511 1.387 . S
C2513 C2515 1.390 . S
C2513 H2517 0.950 . S
H2514 C2510 0.950 . S
C2515 C2513 1.390 . S
C2515 C2516 1.387 . S
C2515 H2518 0.950 . S
C2516 C2515 1.387 . S
C2516 C2519 1.387 . S
H2517 C2513 0.950 . S
H2518 C2515 0.950 . S
C2519 C2510 1.390 . S
C2519 H2512 0.950 . S
C2519 C2516 1.387 . S
C2520 C2521 1.387 . S
C2520 H2524 0.950 . S
C2520 C2529 1.390 . S
C2521 C2520 1.387 . S
C2521 C2523 1.387 . S
H2522 C2529 0.950 . S
C2523 C2521 1.387 . S
C2523 C2525 1.390 . S
C2523 H2527 0.950 . S
H2524 C2520 0.950 . S
C2525 C2523 1.390 . S
C2525 C2526 1.387 . S
C2525 H2528 0.950 . S
C2526 C2525 1.387 . S
C2526 C2529 1.387 . S
H2527 C2523 0.950 . S
H2528 C2525 0.950 . S
C2529 C2520 1.390 . S
C2529 H2522 0.950 . S
C2529 C2526 1.387 . S
C2530 C2531 1.387 . S
C2530 H2534 0.950 . S
C2530 C2539 1.390 . S
C2531 C2530 1.387 . S
C2531 C2533 1.387 . S
H2532 C2539 0.950 . S
C2533 C2531 1.387 . S
C2533 C2535 1.390 . S
C2533 H2537 0.950 . S
H2534 C2530 0.950 . S
C2535 C2533 1.390 . S
C2535 C2536 1.387 . S
C2535 H2538 0.950 . S
C2536 C2535 1.387 . S
C2536 C2539 1.387 . S
H2537 C2533 0.950 . S
H2538 C2535 0.950 . S
C2539 C2530 1.390 . S
C2539 H2532 0.950 . S
C2539 C2536 1.387 . S
C2540 C2541 1.387 1_655 S
C2540 H2544 0.950 . S
C2540 C2549 1.390 . S
C2541 C2540 1.387 1_455 S
C2541 C2543 1.387 . S
H2542 C2549 0.950 . S
C2543 C2541 1.387 . S
C2543 C2545 1.390 1_455 S
C2543 H2547 0.950 . S
H2544 C2540 0.950 . S
C2545 C2543 1.390 1_655 S
C2545 C2546 1.387 . S
C2545 H2548 0.950 . S
C2546 C2545 1.387 . S
C2546 C2549 1.387 . S
H2547 C2543 0.950 . S
H2548 C2545 0.950 . S
C2549 C2540 1.390 . S
C2549 H2542 0.950 . S
C2549 C2546 1.387 . S
C2550 C2551 1.387 . S
C2550 H2554 0.950 . S
C2550 C2559 1.390 . S
C2551 C2550 1.387 . S
C2551 C2553 1.387 . S
H2552 C2559 0.950 . S
C2553 C2551 1.387 . S
C2553 C2555 1.390 . S
C2553 H2557 0.950 . S
H2554 C2550 0.950 . S
C2555 C2553 1.390 . S
C2555 C2556 1.387 . S
C2555 H2558 0.950 . S
C2556 C2555 1.387 . S
C2556 C2559 1.387 . S
H2557 C2553 0.950 . S
H2558 C2555 0.950 . S
C2559 C2550 1.390 . S
C2559 H2552 0.950 . S
C2559 C2556 1.387 . S
C2560 C2561 1.387 . S
C2560 H2564 0.950 . S
C2560 C2569 1.390 . S
C2561 C2560 1.387 . S
C2561 C2563 1.387 . S
H2562 C2569 0.950 . S
C2563 C2561 1.387 . S
C2563 C2565 1.390 . S
C2563 H2567 0.950 . S
H2564 C2560 0.950 . S
C2565 C2563 1.390 . S
C2565 C2566 1.387 . S
C2565 H2568 0.950 . S
C2566 C2565 1.387 . S
C2566 C2569 1.387 . S
H2567 C2563 0.950 . S
H2568 C2565 0.950 . S
C2569 C2560 1.390 . S
C2569 H2562 0.950 . S
C2569 C2566 1.387 . S
C2570 C2571 1.387 . S
C2570 H2574 0.950 . S
C2570 C2579 1.390 . S
C2571 C2570 1.387 . S
C2571 C2573 1.387 . S
H2572 C2579 0.950 . S
C2573 C2571 1.387 . S
C2573 C2575 1.390 . S
C2573 H2577 0.950 . S
H2574 C2570 0.950 . S
C2575 C2573 1.390 . S
C2575 C2576 1.387 . S
C2575 H2578 0.950 . S
C2576 C2575 1.387 . S
C2576 C2579 1.387 . S
H2577 C2573 0.950 . S
H2578 C2575 0.950 . S
C2579 C2570 1.390 . S
C2579 H2572 0.950 . S
C2579 C2576 1.387 . S
C2580 C2581 1.387 . S
C2580 H2584 0.950 . S
C2580 C2589 1.390 . S
C2581 C2580 1.387 . S
C2581 C2583 1.387 . S
H2582 C2589 0.950 . S
C2583 C2581 1.387 . S
C2583 C2585 1.390 . S
C2583 H2587 0.950 . S
H2584 C2580 0.950 . S
C2585 C2583 1.390 . S
C2585 C2586 1.387 . S
C2585 H2588 0.950 . S
C2586 C2585 1.387 . S
C2586 C2589 1.387 . S
H2587 C2583 0.950 . S
H2588 C2585 0.950 . S
C2589 C2580 1.390 . S
C2589 H2582 0.950 . S
C2589 C2586 1.387 . S
C2590 C2591 1.387 . S
C2590 H2594 0.950 . S
C2590 C2599 1.390 . S
C2591 C2590 1.387 . S
C2591 C2593 1.387 . S
H2592 C2599 0.950 . S
C2593 C2591 1.387 . S
C2593 C2595 1.390 . S
C2593 H2597 0.950 . S
H2594 C2590 0.950 . S
C2595 C2593 1.390 . S
C2595 C2596 1.387 . S
C2595 H2598 0.950 . S
C2596 C2595 1.387 . S
C2596 C2599 1.387 . S
H2597 C2593 0.950 . S
H2598 C2595 0.950 . S
C2599 C2590 1.390 . S
C2599 H2592 0.950 . S
C2599 C2596 1.387 . S
C2600 C2601 1.387 . S
C2600 H2604 0.950 . S
C2600 C2609 1.390 . S
C2601 C2600 1.387 . S
C2601 C2603 1.387 . S
H2602 C2609 0.950 . S
C2603 C2601 1.387 . S
C2603 C2605 1.390 . S
C2603 H2607 0.950 . S
H2604 C2600 0.950 . S
C2605 C2603 1.390 . S
C2605 C2606 1.387 . S
C2605 H2608 0.950 . S
C2606 C2605 1.387 . S
C2606 C2609 1.387 . S
H2607 C2603 0.950 . S
H2608 C2605 0.950 . S
C2609 C2600 1.390 . S
C2609 H2602 0.950 . S
C2609 C2606 1.387 . S
C2610 C2611 1.387 . S
C2610 H2614 0.950 . S
C2610 C2619 1.390 . S
C2611 C2610 1.387 . S
C2611 C2613 1.387 . S
H2612 C2619 0.950 . S
C2613 C2611 1.387 . S
C2613 C2615 1.390 . S
C2613 H2617 0.950 . S
H2614 C2610 0.950 . S
C2615 C2613 1.390 . S
C2615 C2616 1.387 . S
C2615 H2618 0.950 . S
C2616 C2615 1.387 . S
C2616 C2619 1.387 . S
H2617 C2613 0.950 . S
H2618 C2615 0.950 . S
C2619 C2610 1.390 . S
C2619 H2612 0.950 . S
C2619 C2616 1.387 . S
C2620 C2621 1.387 . S
C2620 H2624 0.950 . S
C2620 C2629 1.390 . S
C2621 C2620 1.387 . S
C2621 C2623 1.387 . S
H2622 C2629 0.950 . S
C2623 C2621 1.387 . S
C2623 C2625 1.390 . S
C2623 H2627 0.950 . S
H2624 C2620 0.950 . S
C2625 C2623 1.390 . S
C2625 C2626 1.387 . S
C2625 H2628 0.950 . S
C2626 C2625 1.387 . S
C2626 C2629 1.387 . S
H2627 C2623 0.950 . S
H2628 C2625 0.950 . S
C2629 C2620 1.390 . S
C2629 H2622 0.950 . S
C2629 C2626 1.387 . S
C2630 C2631 1.387 . S
C2630 H2634 0.950 . S
C2630 C2639 1.390 . S
C2631 C2630 1.387 . S
C2631 C2633 1.387 . S
H2632 C2639 0.950 . S
C2633 C2631 1.387 . S
C2633 C2635 1.390 . S
C2633 H2637 0.950 . S
H2634 C2630 0.950 . S
C2635 C2633 1.390 . S
C2635 C2636 1.387 . S
C2635 H2638 0.950 . S
C2636 C2635 1.387 . S
C2636 C2639 1.387 . S
H2637 C2633 0.950 . S
H2638 C2635 0.950 . S
C2639 C2630 1.390 . S
C2639 H2632 0.950 . S
C2639 C2636 1.387 . S
C2640 C2641 1.387 . S
C2640 H2644 0.950 . S
C2640 C2649 1.390 . S
C2641 C2640 1.387 . S
C2641 C2643 1.387 . S
H2642 C2649 0.950 . S
C2643 C2641 1.387 . S
C2643 C2645 1.390 . S
C2643 H2647 0.950 . S
H2644 C2640 0.950 . S
C2645 C2643 1.390 . S
C2645 C2646 1.387 . S
C2645 H2648 0.950 . S
C2646 C2645 1.387 . S
C2646 C2649 1.387 . S
H2647 C2643 0.950 . S
H2648 C2645 0.950 . S
C2649 C2640 1.390 . S
C2649 H2642 0.950 . S
C2649 C2646 1.387 . S
C2650 C2651 1.387 . S
C2650 H2654 0.950 . S
C2650 C2659 1.390 . S
C2651 C2650 1.387 . S
C2651 C2653 1.387 . S
H2652 C2659 0.950 . S
C2653 C2651 1.387 . S
C2653 C2655 1.390 . S
C2653 H2657 0.950 . S
H2654 C2650 0.950 . S
C2655 C2653 1.390 . S
C2655 C2656 1.387 . S
C2655 H2658 0.950 . S
C2656 C2655 1.387 . S
C2656 C2659 1.387 . S
H2657 C2653 0.950 . S
H2658 C2655 0.950 . S
C2659 C2650 1.390 . S
C2659 H2652 0.950 . S
C2659 C2656 1.387 . S
C2660 C2661 1.387 . S
C2660 H2664 0.950 . S
C2660 C2669 1.390 1_554 S
C2661 C2660 1.387 . S
C2661 C2663 1.387 . S
H2662 C2669 0.950 . S
C2663 C2661 1.387 . S
C2663 C2665 1.374 1_554 S
C2663 H2667 0.950 . S
H2664 C2660 0.950 . S
C2665 C2663 1.374 1_556 S
C2665 C2666 1.404 . S
C2665 H2668 0.950 . S
C2666 C2665 1.404 . S
C2666 C2669 1.387 . S
H2667 C2663 0.950 . S
H2668 C2665 0.950 . S
C2669 C2660 1.390 1_556 S
C2669 H2662 0.950 . S
C2669 C2666 1.387 . S
C2670 C2671 1.387 . S
C2670 H2674 0.950 . S
C2670 C2679 1.390 . S
C2671 C2670 1.387 . S
C2671 C2673 1.387 . S
H2672 C2679 0.950 . S
C2673 C2671 1.387 . S
C2673 C2675 1.390 . S
C2673 H2677 0.950 . S
H2674 C2670 0.950 . S
C2675 C2673 1.390 . S
C2675 C2676 1.387 . S
C2675 H2678 0.950 . S
C2676 C2675 1.387 . S
C2676 C2679 1.387 . S
H2677 C2673 0.950 . S
H2678 C2675 0.950 . S
C2679 C2670 1.390 . S
C2679 H2672 0.950 . S
C2679 C2676 1.387 . S
C2680 C2681 1.387 . S
C2680 H2684 0.950 . S
C2680 C2689 1.390 . S
C2681 C2680 1.387 . S
C2681 C2683 1.387 . S
H2682 C2689 0.950 . S
C2683 C2681 1.387 . S
C2683 C2685 1.390 . S
C2683 H2687 0.950 . S
H2684 C2680 0.950 . S
C2685 C2683 1.390 . S
C2685 C2686 1.387 . S
C2685 H2688 0.950 . S
C2686 C2685 1.387 . S
C2686 C2689 1.387 . S
H2687 C2683 0.950 . S
H2688 C2685 0.950 . S
C2689 C2680 1.390 . S
C2689 H2682 0.950 . S
C2689 C2686 1.387 . S
C2690 C2691 1.387 . S
C2690 H2694 0.950 . S
C2690 C2699 1.390 . S
C2691 C2690 1.387 . S
C2691 C2693 1.387 . S
H2692 C2699 0.950 . S
C2693 C2691 1.387 . S
C2693 C2695 1.390 . S
C2693 H2697 0.950 1_655 S
H2694 C2690 0.950 . S
C2695 C2693 1.390 . S
C2695 C2696 1.387 . S
C2695 H2698 0.950 . S
C2696 C2695 1.387 . S
C2696 C2699 1.387 . S
H2697 C2693 0.950 1_455 S
H2698 C2695 0.950 . S
C2699 C2690 1.390 . S
C2699 H2692 0.950 . S
C2699 C2696 1.387 . S
C2700 C2701 1.387 . S
C2700 H2704 0.950 . S
C2700 C2709 1.390 . S
C2701 C2700 1.387 . S
C2701 C2703 1.387 . S
H2702 C2709 0.950 . S
C2703 C2701 1.387 . S
C2703 C2705 1.390 . S
C2703 H2707 0.950 . S
H2704 C2700 0.950 . S
C2705 C2703 1.390 . S
C2705 C2706 1.387 . S
C2705 H2708 0.950 . S
C2706 C2705 1.387 . S
C2706 C2709 1.387 . S
H2707 C2703 0.950 . S
H2708 C2705 0.950 . S
C2709 C2700 1.390 . S
C2709 H2702 0.950 . S
C2709 C2706 1.387 . S
C2710 C2711 1.387 . S
C2710 H2714 0.950 . S
C2710 C2719 1.390 . S
C2711 C2710 1.387 . S
C2711 C2713 1.387 . S
H2712 C2719 0.950 . S
C2713 C2711 1.387 . S
C2713 C2715 1.390 . S
C2713 H2717 0.950 . S
H2714 C2710 0.950 . S
C2715 C2713 1.390 . S
C2715 C2716 1.387 . S
C2715 H2718 0.950 . S
C2716 C2715 1.387 . S
C2716 C2719 1.387 . S
H2717 C2713 0.950 . S
H2718 C2715 0.950 . S
C2719 C2710 1.390 . S
C2719 H2712 0.950 . S
C2719 C2716 1.387 . S
C2720 C2721 1.387 . S
C2720 H2724 0.950 . S
C2720 C2729 1.390 . S
C2721 C2720 1.387 . S
C2721 C2723 1.387 . S
H2722 C2729 0.950 . S
C2723 C2721 1.387 . S
C2723 C2725 1.390 . S
C2723 H2727 0.950 . S
H2724 C2720 0.950 . S
C2725 C2723 1.390 . S
C2725 C2726 1.387 . S
C2725 H2728 0.950 . S
C2726 C2725 1.387 . S
C2726 C2729 1.387 . S
H2727 C2723 0.950 . S
H2728 C2725 0.950 . S
C2729 C2720 1.390 . S
C2729 H2722 0.950 . S
C2729 C2726 1.387 . S
C2730 C2731 1.387 . S
C2730 H2734 0.950 . S
C2730 C2739 1.390 . S
C2731 C2730 1.387 . S
C2731 C2733 1.387 . S
H2732 C2739 0.950 . S
C2733 C2731 1.387 . S
C2733 C2735 1.390 . S
C2733 H2737 0.950 . S
H2734 C2730 0.950 . S
C2735 C2733 1.390 . S
C2735 C2736 1.387 . S
C2735 H2738 0.950 . S
C2736 C2735 1.387 . S
C2736 C2739 1.387 . S
H2737 C2733 0.950 . S
H2738 C2735 0.950 . S
C2739 C2730 1.390 . S
C2739 H2732 0.950 . S
C2739 C2736 1.387 . S
C2740 C2741 1.387 . S
C2740 H2744 0.950 . S
C2740 C2749 1.390 . S
C2741 C2740 1.387 . S
C2741 C2743 1.387 . S
H2742 C2749 0.950 . S
C2743 C2741 1.387 . S
C2743 C2745 1.390 . S
C2743 H2747 0.950 . S
H2744 C2740 0.950 . S
C2745 C2743 1.390 . S
C2745 C2746 1.387 . S
C2745 H2748 0.950 . S
C2746 C2745 1.387 . S
C2746 C2749 1.387 . S
H2747 C2743 0.950 . S
H2748 C2745 0.950 . S
C2749 C2740 1.390 . S
C2749 H2742 0.950 . S
C2749 C2746 1.387 . S
C2750 C2751 1.387 . S
C2750 H2754 0.950 . S
C2750 C2759 1.390 . S
C2751 C2750 1.387 . S
C2751 C2753 1.387 . S
H2752 C2759 0.950 . S
C2753 C2751 1.387 . S
C2753 C2755 1.390 . S
C2753 H2757 0.950 . S
H2754 C2750 0.950 . S
C2755 C2753 1.390 . S
C2755 C2756 1.387 . S
C2755 H2758 0.950 . S
C2756 C2755 1.387 . S
C2756 C2759 1.387 . S
H2757 C2753 0.950 . S
H2758 C2755 0.950 . S
C2759 C2750 1.390 . S
C2759 H2752 0.950 . S
C2759 C2756 1.387 . S
C2760 C2761 1.387 . S
C2760 H2764 0.950 . S
C2760 C2769 1.390 . S
C2761 C2760 1.387 . S
C2761 C2763 1.387 . S
H2762 C2769 0.950 . S
C2763 C2761 1.387 . S
C2763 C2765 1.390 . S
C2763 H2767 0.950 . S
H2764 C2760 0.950 . S
C2765 C2763 1.390 . S
C2765 C2766 1.387 . S
C2765 H2768 0.950 . S
C2766 C2765 1.387 . S
C2766 C2769 1.387 . S
H2767 C2763 0.950 . S
H2768 C2765 0.950 . S
C2769 C2760 1.390 . S
C2769 H2762 0.950 . S
C2769 C2766 1.387 . S
C2770 C2771 1.387 . S
C2770 H2774 0.950 . S
C2770 C2779 1.390 . S
C2771 C2770 1.387 . S
C2771 C2773 1.387 . S
H2772 C2779 0.950 . S
C2773 C2771 1.387 . S
C2773 C2775 1.390 . S
C2773 H2777 0.950 . S
H2774 C2770 0.950 . S
C2775 C2773 1.390 . S
C2775 C2776 1.387 . S
C2775 H2778 0.950 . S
C2776 C2775 1.387 . S
C2776 C2779 1.387 . S
H2777 C2773 0.950 . S
H2778 C2775 0.950 . S
C2779 C2770 1.390 . S
C2779 H2772 0.950 . S
C2779 C2776 1.387 . S
C2780 C2781 1.387 . S
C2780 H2784 0.950 . S
C2780 C2789 1.390 1_655 S
C2781 C2780 1.387 . S
C2781 C2783 1.387 . S
H2782 C2789 0.950 . S
C2783 C2781 1.387 . S
C2783 C2785 1.390 . S
C2783 H2787 0.950 . S
H2784 C2780 0.950 . S
C2785 C2783 1.390 . S
C2785 C2786 1.387 1_655 S
C2785 H2788 0.950 . S
C2786 C2785 1.387 1_455 S
C2786 C2789 1.387 . S
H2787 C2783 0.950 . S
H2788 C2785 0.950 . S
C2789 C2780 1.390 1_455 S
C2789 H2782 0.950 . S
C2789 C2786 1.387 . S
C2790 C2791 1.387 . S
C2790 H2794 0.950 . S
C2790 C2799 1.390 . S
C2791 C2790 1.387 . S
C2791 C2793 1.387 . S
H2792 C2799 0.950 . S
C2793 C2791 1.387 . S
C2793 C2795 1.390 . S
C2793 H2797 0.950 . S
H2794 C2790 0.950 . S
C2795 C2793 1.390 . S
C2795 C2796 1.387 . S
C2795 H2798 0.950 . S
C2796 C2795 1.387 . S
C2796 C2799 1.387 . S
H2797 C2793 0.950 . S
H2798 C2795 0.950 . S
C2799 C2790 1.390 . S
C2799 H2792 0.950 . S
C2799 C2796 1.387 . S
C2800 C2801 1.387 . S
C2800 H2804 0.950 . S
C2800 C2809 1.390 . S
C2801 C2800 1.387 . S
C2801 C2803 1.387 . S
H2802 C2809 0.950 . S
C2803 C2801 1.387 . S
C2803 C2805 1.390 . S
C2803 H2807 0.950 . S
H2804 C2800 0.950 . S
C2805 C2803 1.390 . S
C2805 C2806 1.387 . S
C2805 H2808 0.950 . S
C2806 C2805 1.387 . S
C2806 C2809 1.387 . S
H2807 C2803 0.950 . S
H2808 C2805 0.950 . S
C2809 C2800 1.390 . S
C2809 H2802 0.950 . S
C2809 C2806 1.387 . S
C2810 C2811 1.387 . S
C2810 H2814 0.950 . S
C2810 C2819 1.390 . S
C2811 C2810 1.387 . S
C2811 C2813 1.387 . S
H2812 C2819 0.950 . S
C2813 C2811 1.387 . S
C2813 C2815 1.390 . S
C2813 H2817 0.950 . S
H2814 C2810 0.950 . S
C2815 C2813 1.390 . S
C2815 C2816 1.387 . S
C2815 H2818 0.950 . S
C2816 C2815 1.387 . S
C2816 C2819 1.387 . S
H2817 C2813 0.950 . S
H2818 C2815 0.950 . S
C2819 C2810 1.390 . S
C2819 H2812 0.950 . S
C2819 C2816 1.387 . S
C2820 C2821 1.387 . S
C2820 H2824 0.950 . S
C2820 C2829 1.390 . S
C2821 C2820 1.387 . S
C2821 C2823 1.387 . S
H2822 C2829 0.950 . S
C2823 C2821 1.387 . S
C2823 C2825 1.390 . S
C2823 H2827 0.950 . S
H2824 C2820 0.950 . S
C2825 C2823 1.390 . S
C2825 C2826 1.387 . S
C2825 H2828 0.950 . S
C2826 C2825 1.387 . S
C2826 C2829 1.387 . S
H2827 C2823 0.950 . S
H2828 C2825 0.950 . S
C2829 C2820 1.390 . S
C2829 H2822 0.950 . S
C2829 C2826 1.387 . S
C2830 C2831 1.387 . S
C2830 H2834 0.950 . S
C2830 C2839 1.390 . S
C2831 C2830 1.387 . S
C2831 C2833 1.387 . S
H2832 C2839 0.950 . S
C2833 C2831 1.387 . S
C2833 C2835 1.390 . S
C2833 H2837 0.950 . S
H2834 C2830 0.950 . S
C2835 C2833 1.390 . S
C2835 C2836 1.387 . S
C2835 H2838 0.950 . S
C2836 C2835 1.387 . S
C2836 C2839 1.387 . S
H2837 C2833 0.950 . S
H2838 C2835 0.950 . S
C2839 C2830 1.390 . S
C2839 H2832 0.950 . S
C2839 C2836 1.387 . S
C2840 C2841 1.387 . S
C2840 H2844 0.950 . S
C2840 C2849 1.390 . S
C2841 C2840 1.387 . S
C2841 C2843 1.387 . S
H2842 C2849 0.950 . S
C2843 C2841 1.387 . S
C2843 C2845 1.390 . S
C2843 H2847 0.950 . S
H2844 C2840 0.950 . S
C2845 C2843 1.390 . S
C2845 C2846 1.387 . S
C2845 H2848 0.950 . S
C2846 C2845 1.387 . S
C2846 C2849 1.387 . S
H2847 C2843 0.950 . S
H2848 C2845 0.950 . S
C2849 C2840 1.390 . S
C2849 H2842 0.950 . S
C2849 C2846 1.387 . S
C2850 C2851 1.387 . S
C2850 H2854 0.950 . S
C2850 C2859 1.390 . S
C2851 C2850 1.387 . S
C2851 C2853 1.387 . S
H2852 C2859 0.950 . S
C2853 C2851 1.387 . S
C2853 C2855 1.390 . S
C2853 H2857 0.950 . S
H2854 C2850 0.950 . S
C2855 C2853 1.390 . S
C2855 C2856 1.387 . S
C2855 H2858 0.950 . S
C2856 C2855 1.387 . S
C2856 C2859 1.387 . S
H2857 C2853 0.950 . S
H2858 C2855 0.950 . S
C2859 C2850 1.390 . S
C2859 H2852 0.950 . S
C2859 C2856 1.387 . S
C2860 C2861 1.387 . S
C2860 H2864 0.950 . S
C2860 C2869 1.390 . S
C2861 C2860 1.387 . S
C2861 C2863 1.387 . S
H2862 C2869 0.950 . S
C2863 C2861 1.387 . S
C2863 C2865 1.390 . S
C2863 H2867 0.950 . S
H2864 C2860 0.950 . S
C2865 C2863 1.390 . S
C2865 C2866 1.387 . S
C2865 H2868 0.950 . S
C2866 C2865 1.387 . S
C2866 C2869 1.387 . S
H2867 C2863 0.950 . S
H2868 C2865 0.950 . S
C2869 C2860 1.390 . S
C2869 H2862 0.950 . S
C2869 C2866 1.387 . S
C2870 C2871 1.387 . S
C2870 H2874 0.950 . S
C2870 C2879 1.390 . S
C2871 C2870 1.387 . S
C2871 C2873 1.387 . S
H2872 C2879 0.950 . S
C2873 C2871 1.387 . S
C2873 C2875 1.390 . S
C2873 H2877 0.950 . S
H2874 C2870 0.950 . S
C2875 C2873 1.390 . S
C2875 C2876 1.387 . S
C2875 H2878 0.950 . S
C2876 C2875 1.387 . S
C2876 C2879 1.387 . S
H2877 C2873 0.950 . S
H2878 C2875 0.950 . S
C2879 C2870 1.390 . S
C2879 H2872 0.950 . S
C2879 C2876 1.387 . S
C1441 C491 1.537 . S
C1446 C530 1.665 . S
C1451 C271 1.573 . S
C1456 C549 1.618 . S
C1466 C568 1.513 . S
C1461 C513 1.459 . S
C1471 C293 1.724 . S
C1476 C587 1.649 . S
C1481 C524 1.598 . S
C1486 C606 1.657 . S
C1491 C260 1.508 . S
C1496 C625 1.601 . S
C1501 C502 1.599 . S
C1506 C644 1.649 . S
C1511 C282 1.409 . S
C1516 C663 1.462 . S
C1521 C183 1.564 . S
C1526 C682 1.584 . S
C1531 C447 1.368 . S
C1536 C701 1.332 . S
C1541 C205 1.614 . S
C1546 C720 1.583 . S
C1551 C436 1.533 . S
C1556 C739 1.524 . S
C1561 C249 1.437 . S
C1566 C758 1.439 . S
C1576 C777 1.710 . S
C1571 C458 1.659 . S
C1586 C796 1.767 . S
C1581 C227 1.676 . S
C1591 C315 1.383 . S
C1596 C815 1.447 . S
C1606 C834 1.667 . S
C1601 C216 1.622 . S
C1616 C853 1.548 . S
C1611 C469 1.506 . S
C1621 C238 1.382 . S
C1626 C872 1.496 . S
C1631 C326 1.645 . S
C1636 C891 1.621 . S
C1646 C910 1.509 . S
C1641 C304 1.475 . S
C1651 C392 1.505 . S
C1656 C929 1.468 . S
C1666 C948 1.769 . S
C1661 C106 1.671 . S
C1676 C967 1.577 . S
C1671 C414 1.618 . S
C1686 C986 1.592 . S
C1681 C128 1.565 . S
C1696 C1005 1.581 . S
C1691 C425 1.553 . S
C1701 C95 1.437 . S
C1706 C1024 1.394 . S
C1716 C1043 1.606 . S
C1711 C403 1.686 . S
C1721 C117 1.636 . S
C1726 C1062 1.590 . S
C1736 C1081 1.570 . S
C1731 C18 1.598 . S
C1746 C1100 1.575 . S
C1741 C348 1.614 . S
C1751 C40 1.475 . S
C1756 C1119 1.522 . S
C1766 C1138 1.452 . S
C1761 C337 1.453 . S
C1776 C1157 1.474 . S
C1771 C84 1.507 . S
C1781 C359 1.533 . S
C1786 C1176 1.509 . S
C1796 C1195 1.434 . S
C1791 C62 1.494 . S
C1806 C1214 1.672 . S
C1801 C150 1.576 . S
C1811 C51 1.570 . S
C1816 C1233 1.543 . S
C1826 C1252 1.347 . S
C1821 C370 1.398 . S
C1831 C73 1.557 . S
C1836 C1271 1.660 . S
C1846 C1290 1.455 . S
C1841 C161 1.447 . S
C1851 C139 1.584 . S
C1856 C1309 1.542 . S
C1861 C194 1.444 . S
C1866 C1328 1.383 . S
C1876 C1347 1.397 . S
C1871 C172 1.405 . S
C1881 C480 1.461 . S
C1886 C1366 1.464 . S
C1891 C29 1.580 . S
C1896 C1385 1.549 . S
C1906 C1404 1.349 . S
C1901 C7 1.348 . S
C1916 C1423 1.439 . S
C1911 C381 1.482 . S
C1921 C368 1.520 . S
C1926 C534 1.630 . S
C1931 C151 1.634 . S
C1936 C558 1.747 . S
C1941 C379 1.492 . S
C1946 C572 1.615 . S
C1956 C591 1.693 . S
C1951 C360 1.692 . S
C1961 C159 1.278 . S
C1966 C615 1.432 . S
C1971 C338 1.537 . S
C1976 C634 1.451 . S
C1986 C648 1.857 . S
C1981 C140 1.868 . S
C1991 C346 1.540 . S
C1996 C672 1.567 . S
C2001 C349 1.644 . S
C2006 C686 1.602 . S
C2016 C710 1.464 . S
C2011 C162 1.561 . S
C2021 C335 1.675 . S
C2026 C724 1.694 . S
C2036 C748 1.624 . S
C2031 C137 1.563 . S
C2041 C148 1.289 . S
C2046 C767 1.475 . S
C2051 C382 1.638 . S
C2056 C781 1.651 . S
C2066 C805 1.610 . S
C2061 C357 1.566 . S
C2076 C819 1.635 . S
C2071 C371 1.643 . S
C2081 C129 1.669 . S
C2086 C743 1.683 . S
C2091 C393 1.597 . S
C2096 C843 1.390 . S
C2101 C401 1.604 . S
C2106 C857 1.717 . S
C2116 C881 1.856 . S
C2111 C412 1.804 . S
C2126 C762 1.733 . S
C2121 C126 1.400 . S
C2131 C107 1.690 . S
C2136 C705 1.739 . S
C2141 C415 1.606 . S
C2146 C900 1.408 . S
C2156 C919 1.707 . S
C2151 C390 1.624 . S
C2166 C933 1.579 . S
C2161 C467 1.185 . S
C2171 C316 1.754 . S
C2176 C952 1.846 . S
C2186 C976 1.410 . S
C2181 C478 1.279 . S
C2196 C990 1.827 . S
C2191 C459 1.755 . S
C2201 C324 1.655 . S
C2206 C1014 1.619 . S
C2211 C434 1.438 . S
C2216 C1033 1.614 . S
C2221 C305 1.536 . S
C2226 C1047 1.588 . S
C2236 C1066 1.571 . S
C2231 C448 1.583 . S
C2246 C1085 1.576 . S
C2241 C445 1.411 . S
C2251 C327 1.643 . S
C2256 C1109 1.471 . S
C2266 C1123 1.530 . S
C2261 C437 1.563 . S
C2271 C302 1.296 . S
C2276 C1147 1.532 . S
C2286 C1166 1.498 . S
C2281 C313 1.227 . S
C2291 C481 1.536 . S
C2296 C1180 1.516 . S
C2306 C1204 1.533 . S
C2301 C456 1.295 . S
C2311 C470 1.478 . S
C2316 C1223 1.433 . S
C2321 C294 1.736 . S
C2326 C1142 1.713 . S
C2331 C492 1.619 . S
C2336 C1242 1.622 . S
C2341 C500 1.296 . S
C2346 C1256 1.682 . S
C2356 C1275 1.624 . S
C2351 C514 1.557 . S
C2361 C291 1.684 . S
C2366 C1161 1.730 . S
C2371 C272 1.796 . S
C2376 C1104 1.884 . S
C2386 C1299 1.620 . S
C2381 C511 1.221 . S
C2391 C489 1.190 . S
C2396 C1318 1.621 . S
C2406 C629 1.590 . S
C2401 C60 1.513 . S
C2416 C653 1.766 . S
C2411 C74 1.638 . S
C2426 C667 1.616 . S
C2421 C82 1.506 . S
C2436 C610 1.664 . S
C2431 C52 1.674 . S
C2446 C596 1.443 . S
C2441 C38 1.288 . S
C2451 C8 1.519 . S
C2456 C539 1.481 . S
C2461 C19 1.891 . S
C2466 C553 1.873 . S
C2471 C27 1.550 . S
C2476 C577 1.583 . S
C2481 C30 1.622 . S
C2486 C914 1.598 . S
C2491 C41 1.561 . S
C2496 C1337 1.498 . S
C2501 C5 1.528 . S
C2506 C895 1.626 . S
C2511 C16 1.535 . S
C2516 C1356 1.586 . S
C2521 C71 1.268 . S
C2526 C1375 1.468 . S
C2536 C838 1.647 . S
C2531 C85 1.641 . S
C2541 C49 1.537 . S
C2546 C862 1.590 . S
C2551 C63 1.623 . S
C2556 C876 1.584 . S
C2566 C1351 1.618 . S
C2561 C426 1.609 . S
C2571 C96 1.576 . S
C2576 C786 1.397 . S
C2581 C104 1.550 . S
C2586 C800 2.021 . S
C2591 C115 1.716 . S
C2596 C824 1.762 . S
C2606 C1370 1.707 . S
C2601 C423 1.393 . S
C2616 C1332 1.680 . S
C2611 C404 1.681 . S
C2626 C729 1.400 . S
C2621 C118 1.635 . S
C2631 C93 1.745 . S
C2636 C691 1.835 . S
C2641 C225 1.300 . S
C2646 C1028 1.716 . S
C2651 C239 1.629 . S
C2656 C1052 1.504 . S
C2661 C247 1.251 . S
C2666 C1071 1.405 . S
C2671 C217 1.750 . S
C2676 C1009 1.817 . S
C2686 C995 1.591 . S
C2681 C203 1.625 . S
C2696 C938 1.530 . S
C2691 C170 1.308 . S
C2706 C957 1.358 . S
C2701 C184 1.377 . S
C2711 C195 1.627 . S
C2716 C971 1.595 . S
C2726 C1313 1.629 . S
C2721 C192 1.538 . S
C2731 C206 1.604 . S
C2736 C1394 1.444 . S
C2741 C173 1.459 . S
C2746 C1294 1.427 . S
C2756 C1413 1.485 . S
C2751 C181 1.257 . S
C2761 C236 1.196 . S
C2766 C1432 1.537 . S
C2776 C1237 1.482 . S
C2771 C250 1.504 . S
C2781 C214 1.274 . S
C2786 C1261 1.517 . S
C2791 C228 1.521 . S
C2796 C1280 1.505 . S
C2801 C522 1.366 . S
C2806 C1408 1.742 . S
C2816 C1185 1.532 . S
C2811 C261 1.543 . S
C2821 C269 1.336 . S
C2826 C1199 1.706 . S
C2831 C283 1.561 . S
C2836 C1218 1.649 . S
C2841 C525 1.678 . S
C2846 C1427 1.745 . S
C2851 C503 1.745 . S
C2856 C1389 1.840 . S
C2866 C1128 1.674 . S
C2861 C280 1.247 . S
C2876 C1090 1.566 . S
C2871 C258 1.164 . S
