# Generated by pormake.
# Topology cml, (3,6)-cn, num edge types: 1
# Building blocks:
#     Node 0, Type 0, BuildingBlock: MIDCAF_clean_linker_0, # of connection points: 3
#     Node 1, Type 0, BuildingBlock: MIDCAF_clean_linker_0, # of connection points: 3
#     Node 2, Type 0, BuildingBlock: MIDCAF_clean_linker_0, # of connection points: 3
#     Node 3, Type 0, BuildingBlock: MIDCAF_clean_linker_0, # of connection points: 3
#     Node 4, Type 0, BuildingBlock: MIDCAF_clean_linker_0, # of connection points: 3
#     Node 5, Type 0, BuildingBlock: MIDCAF_clean_linker_0, # of connection points: 3
#     Node 6, Type 0, BuildingBlock: MIDCAF_clean_linker_0, # of connection points: 3
#     Node 7, Type 0, BuildingBlock: MIDCAF_clean_linker_0, # of connection points: 3
#     Node 8, Type 1, BuildingBlock: IZENUY_clean_sbu_0, # of connection points: 6
#     Node 9, Type 1, BuildingBlock: IZENUY_clean_sbu_0, # of connection points: 6
#     Node 10, Type 1, BuildingBlock: IZENUY_clean_sbu_0, # of connection points: 6
#     Node 11, Type 1, BuildingBlock: IZENUY_clean_sbu_0, # of connection points: 6
#     Edge 12, Type (0, 1), None
#     Edge 13, Type (0, 1), None
#     Edge 14, Type (0, 1), None
#     Edge 15, Type (0, 1), None
#     Edge 16, Type (0, 1), None
#     Edge 17, Type (0, 1), None
#     Edge 18, Type (0, 1), None
#     Edge 19, Type (0, 1), None
#     Edge 20, Type (0, 1), None
#     Edge 21, Type (0, 1), None
#     Edge 22, Type (0, 1), None
#     Edge 23, Type (0, 1), None
#     Edge 24, Type (0, 1), None
#     Edge 25, Type (0, 1), None
#     Edge 26, Type (0, 1), None
#     Edge 27, Type (0, 1), None
#     Edge 28, Type (0, 1), None
#     Edge 29, Type (0, 1), None
#     Edge 30, Type (0, 1), None
#     Edge 31, Type (0, 1), None
#     Edge 32, Type (0, 1), None
#     Edge 33, Type (0, 1), None
#     Edge 34, Type (0, 1), None
#     Edge 35, Type (0, 1), None
# Relax obj value: 0.057
# Max RMSD: 0.073
# Mean RMSD: 0.070
data_MOF--net-cml--node1-IZENUY_clean_sbu_0--node2-MIDCAF_clean_linker_0--edge1-none
_symmetry_space_group_name_H-M    P1
_symmetry_Int_Tables_number       1
_symmetry_cell_setting            triclinic
loop_
_symmetry_equiv_pos_as_xyz
'x, y, z'
_cell_length_a     23.441043
_cell_length_b     27.61769
_cell_length_c     25.638341
_cell_angle_alpha  90.000003
_cell_angle_beta   90.000005
_cell_angle_gamma 90.712286
loop_
_atom_site_label
_atom_site_type_symbol
_atom_site_fract_x
_atom_site_fract_y
_atom_site_fract_z
_atom_type_partial_charge
C0 C 0.37652 0.39842 0.192 0.0
C1 C 0.3945 0.35202 0.20649 0.0
C2 C 0.37431 0.31169 0.17814 0.0
C3 C 0.34063 0.31835 0.13334 0.0
H4 H 0.2166 0.26008 0.02116 0.0
H5 H 0.14769 0.20598 0.97956 0.0
H6 H 0.12243 0.31104 0.85704 0.0
H7 H 0.19157 0.36507 0.8984 0.0
H8 H 0.31996 0.43664 0.88574 0.0
H9 H 0.37486 0.5015 0.84364 0.0
H10 H 0.3886 0.57659 0.991 0.0
H11 H 0.33474 0.51139 0.03322 0.0
H12 H 0.33253 0.44161 0.13652 0.0
H13 H 0.3904 0.43014 0.21368 0.0
H14 H 0.38744 0.2755 0.18855 0.0
H15 H 0.32857 0.28713 0.11008 0.0
N16 N 0.26856 0.34212 0.03936 0.0
N17 N 0.26637 0.39291 0.96561 0.0
N18 N 0.31846 0.41621 0.03942 0.0
C19 C 0.24937 0.3514 0.99011 0.0
C20 C 0.30081 0.42551 0.99023 0.0
C21 C 0.30291 0.37477 0.06426 0.0
C22 C 0.20955 0.31717 0.96345 0.0
C23 C 0.19662 0.27164 0.98524 0.0
C24 C 0.1571 0.2405 0.96123 0.0
C25 C 0.12915 0.25425 0.91503 0.0
C26 C 0.14292 0.29934 0.89267 0.0
C27 C 0.18274 0.33034 0.91647 0.0
C28 C 0.32371 0.46867 0.96285 0.0
C29 C 0.33357 0.46752 0.90886 0.0
C30 C 0.36522 0.50453 0.88484 0.0
C31 C 0.38658 0.5438 0.91418 0.0
C32 C 0.37279 0.5468 0.96736 0.0
C33 C 0.34215 0.50935 0.99157 0.0
C34 C 0.32694 0.36537 0.11664 0.0
C35 C 0.34326 0.405 0.14773 0.0
C36 C 0.64346 0.60228 0.692 0.0
C37 C 0.62548 0.64868 0.70649 0.0
C38 C 0.64567 0.689 0.67814 0.0
C39 C 0.67935 0.68234 0.63334 0.0
H40 H 0.80338 0.74061 0.52116 0.0
H41 H 0.87229 0.79472 0.47956 0.0
H42 H 0.89755 0.68966 0.35704 0.0
H43 H 0.8284 0.63562 0.3984 0.0
H44 H 0.70001 0.56406 0.38574 0.0
H45 H 0.64512 0.4992 0.34364 0.0
H46 H 0.63138 0.42411 0.491 0.0
H47 H 0.68523 0.4893 0.53322 0.0
H48 H 0.68745 0.55909 0.63652 0.0
H49 H 0.62958 0.57056 0.71368 0.0
H50 H 0.63253 0.7252 0.68855 0.0
H51 H 0.6914 0.71357 0.61008 0.0
N52 N 0.75142 0.65858 0.53936 0.0
N53 N 0.75361 0.60778 0.46561 0.0
N54 N 0.70152 0.58448 0.53942 0.0
C55 C 0.7706 0.6493 0.49011 0.0
C56 C 0.71916 0.57518 0.49023 0.0
C57 C 0.71707 0.62592 0.56426 0.0
C58 C 0.81043 0.68352 0.46345 0.0
C59 C 0.82336 0.72906 0.48524 0.0
C60 C 0.86288 0.7602 0.46123 0.0
C61 C 0.89083 0.74644 0.41503 0.0
C62 C 0.87706 0.70135 0.39267 0.0
C63 C 0.83724 0.67036 0.41647 0.0
C64 C 0.69627 0.53202 0.46285 0.0
C65 C 0.68641 0.53318 0.40886 0.0
C66 C 0.65476 0.49616 0.38484 0.0
C67 C 0.6334 0.45689 0.41418 0.0
C68 C 0.64718 0.45389 0.46736 0.0
C69 C 0.67782 0.49135 0.49157 0.0
C70 C 0.69303 0.63533 0.61664 0.0
C71 C 0.67672 0.5957 0.64773 0.0
C72 C 0.65315 0.3993 0.18761 0.0
C73 C 0.62924 0.35428 0.20194 0.0
C74 C 0.63954 0.31375 0.1701 0.0
C75 C 0.67011 0.31889 0.12334 0.0
H76 H 0.82015 0.27523 0.02358 0.0
H77 H 0.89231 0.22489 0.98442 0.0
H78 H 0.87053 0.29841 0.83712 0.0
H79 H 0.79782 0.3495 0.87659 0.0
H80 H 0.68913 0.43383 0.8728 0.0
H81 H 0.63297 0.49814 0.83232 0.0
H82 H 0.61739 0.56807 0.98241 0.0
H83 H 0.6727 0.50459 0.02227 0.0
H84 H 0.6977 0.44025 0.12936 0.0
H85 H 0.64653 0.43129 0.21119 0.0
H86 H 0.62205 0.2785 0.18023 0.0
H87 H 0.67503 0.2877 0.09818 0.0
N88 N 0.7451 0.34134 0.02912 0.0
N89 N 0.74275 0.38947 0.95327 0.0
N90 N 0.69286 0.41294 0.02807 0.0
C91 C 0.76204 0.34964 0.97894 0.0
C92 C 0.7082 0.42132 0.97792 0.0
C93 C 0.71065 0.37316 0.05381 0.0
C94 C 0.80322 0.31676 0.95345 0.0
C95 C 0.83026 0.28071 0.98277 0.0
C96 C 0.87201 0.25188 0.96029 0.0
C97 C 0.88771 0.25799 0.90774 0.0
C98 C 0.85958 0.29296 0.87776 0.0
C99 C 0.81794 0.32224 0.90046 0.0
C100 C 0.6843 0.46371 0.95084 0.0
C101 C 0.67466 0.46358 0.89671 0.0
C102 C 0.64241 0.50029 0.87362 0.0
C103 C 0.61962 0.53754 0.90443 0.0
C104 C 0.63323 0.53936 0.95773 0.0
C105 C 0.66504 0.50291 0.98063 0.0
C106 C 0.68987 0.36475 0.1074 0.0
C107 C 0.68254 0.40453 0.14065 0.0
C108 C 0.36683 0.60139 0.68761 0.0
C109 C 0.39074 0.64641 0.70194 0.0
C110 C 0.38044 0.68695 0.6701 0.0
C111 C 0.34986 0.68181 0.62334 0.0
H112 H 0.19983 0.72546 0.52358 0.0
H113 H 0.12767 0.77581 0.48442 0.0
H114 H 0.14944 0.70229 0.33712 0.0
H115 H 0.22215 0.6512 0.37659 0.0
H116 H 0.33085 0.56687 0.3728 0.0
H117 H 0.38701 0.50256 0.33232 0.0
H118 H 0.40258 0.43263 0.48241 0.0
H119 H 0.34727 0.4961 0.52227 0.0
H120 H 0.32228 0.56044 0.62936 0.0
H121 H 0.37345 0.56941 0.71119 0.0
H122 H 0.39793 0.72219 0.68023 0.0
H123 H 0.34495 0.71299 0.59818 0.0
N124 N 0.27487 0.65935 0.52912 0.0
N125 N 0.27723 0.61123 0.45327 0.0
N126 N 0.32711 0.58775 0.52807 0.0
C127 C 0.25793 0.65105 0.47894 0.0
C128 C 0.31178 0.57938 0.47792 0.0
C129 C 0.30933 0.62754 0.55381 0.0
C130 C 0.21675 0.68394 0.45345 0.0
C131 C 0.18972 0.71999 0.48277 0.0
C132 C 0.14797 0.74882 0.46029 0.0
C133 C 0.13227 0.74271 0.40774 0.0
C134 C 0.1604 0.70774 0.37776 0.0
C135 C 0.20204 0.67846 0.40046 0.0
C136 C 0.33568 0.53699 0.45084 0.0
C137 C 0.34532 0.53712 0.39671 0.0
C138 C 0.37756 0.5004 0.37362 0.0
C139 C 0.40036 0.46316 0.40443 0.0
C140 C 0.38675 0.46134 0.45773 0.0
C141 C 0.35494 0.49779 0.48063 0.0
C142 C 0.3301 0.63595 0.6074 0.0
C143 C 0.33744 0.59616 0.64065 0.0
C144 C 0.87652 0.89842 0.192 0.0
C145 C 0.8945 0.85202 0.20649 0.0
C146 C 0.87431 0.81169 0.17814 0.0
C147 C 0.84063 0.81835 0.13334 0.0
H148 H 0.7166 0.76008 0.02116 0.0
H149 H 0.64769 0.70598 0.97956 0.0
H150 H 0.62242 0.81104 0.85704 0.0
H151 H 0.69157 0.86507 0.8984 0.0
H152 H 0.81996 0.93664 0.88574 0.0
H153 H 0.87486 0.0015 0.84364 0.0
H154 H 0.8886 0.07659 0.991 0.0
H155 H 0.83474 0.01139 0.03322 0.0
H156 H 0.83253 0.94161 0.13652 0.0
H157 H 0.8904 0.93014 0.21368 0.0
H158 H 0.88744 0.7755 0.18855 0.0
H159 H 0.82857 0.78713 0.11008 0.0
N160 N 0.76856 0.84212 0.03936 0.0
N161 N 0.76637 0.89291 0.96561 0.0
N162 N 0.81846 0.91622 0.03942 0.0
C163 C 0.74937 0.8514 0.99011 0.0
C164 C 0.80081 0.92551 0.99023 0.0
C165 C 0.80291 0.87477 0.06426 0.0
C166 C 0.70955 0.81718 0.96345 0.0
C167 C 0.69662 0.77164 0.98524 0.0
C168 C 0.6571 0.7405 0.96123 0.0
C169 C 0.62915 0.75425 0.91503 0.0
C170 C 0.64291 0.79934 0.89267 0.0
C171 C 0.68274 0.83034 0.91647 0.0
C172 C 0.82371 0.96867 0.96285 0.0
C173 C 0.83357 0.96752 0.90886 0.0
C174 C 0.86522 0.00454 0.88484 0.0
C175 C 0.88657 0.0438 0.91418 0.0
C176 C 0.87279 0.0468 0.96736 0.0
C177 C 0.84215 0.00935 0.99157 0.0
C178 C 0.82694 0.86537 0.11664 0.0
C179 C 0.84326 0.905 0.14773 0.0
C180 C 0.14346 0.10228 0.692 0.0
C181 C 0.12548 0.14868 0.70649 0.0
C182 C 0.14567 0.189 0.67814 0.0
C183 C 0.17935 0.18234 0.63334 0.0
H184 H 0.30338 0.24061 0.52116 0.0
H185 H 0.37229 0.29472 0.47956 0.0
H186 H 0.39755 0.18966 0.35704 0.0
H187 H 0.32841 0.13562 0.3984 0.0
H188 H 0.20001 0.06406 0.38574 0.0
H189 H 0.14512 0.9992 0.34364 0.0
H190 H 0.13138 0.92411 0.491 0.0
H191 H 0.18523 0.9893 0.53322 0.0
H192 H 0.18745 0.05909 0.63652 0.0
H193 H 0.12957 0.07056 0.71368 0.0
H194 H 0.13253 0.2252 0.68855 0.0
H195 H 0.1914 0.21357 0.61008 0.0
N196 N 0.25142 0.15858 0.53936 0.0
N197 N 0.25361 0.10778 0.46561 0.0
N198 N 0.20152 0.08448 0.53942 0.0
C199 C 0.2706 0.1493 0.49011 0.0
C200 C 0.21916 0.07518 0.49023 0.0
C201 C 0.21707 0.12592 0.56426 0.0
C202 C 0.31043 0.18352 0.46345 0.0
C203 C 0.32336 0.22906 0.48524 0.0
C204 C 0.36288 0.2602 0.46123 0.0
C205 C 0.39083 0.24644 0.41503 0.0
C206 C 0.37706 0.20135 0.39267 0.0
C207 C 0.33724 0.17036 0.41647 0.0
C208 C 0.19627 0.03202 0.46285 0.0
C209 C 0.18641 0.03318 0.40886 0.0
C210 C 0.15476 0.99616 0.38484 0.0
C211 C 0.1334 0.95689 0.41418 0.0
C212 C 0.14719 0.95389 0.46736 0.0
C213 C 0.17782 0.99135 0.49157 0.0
C214 C 0.19303 0.13533 0.61664 0.0
C215 C 0.17672 0.0957 0.64773 0.0
C216 C 0.15315 0.8993 0.18761 0.0
C217 C 0.12924 0.85428 0.20194 0.0
C218 C 0.13954 0.81375 0.1701 0.0
C219 C 0.17011 0.81888 0.12334 0.0
H220 H 0.32015 0.77523 0.02358 0.0
H221 H 0.39231 0.72488 0.98442 0.0
H222 H 0.37053 0.79841 0.83712 0.0
H223 H 0.29782 0.8495 0.87659 0.0
H224 H 0.18913 0.93383 0.8728 0.0
H225 H 0.13297 0.99814 0.83232 0.0
H226 H 0.11739 0.06807 0.98241 0.0
H227 H 0.1727 0.00459 0.02227 0.0
H228 H 0.1977 0.94025 0.12936 0.0
H229 H 0.14653 0.93129 0.21119 0.0
H230 H 0.12205 0.7785 0.18023 0.0
H231 H 0.17503 0.7877 0.09818 0.0
N232 N 0.2451 0.84134 0.02912 0.0
N233 N 0.24275 0.88947 0.95327 0.0
N234 N 0.19286 0.91294 0.02807 0.0
C235 C 0.26204 0.84964 0.97894 0.0
C236 C 0.2082 0.92132 0.97792 0.0
C237 C 0.21065 0.87316 0.05381 0.0
C238 C 0.30322 0.81676 0.95345 0.0
C239 C 0.33025 0.78071 0.98277 0.0
C240 C 0.37201 0.75188 0.96029 0.0
C241 C 0.38771 0.75799 0.90774 0.0
C242 C 0.35958 0.79296 0.87776 0.0
C243 C 0.31794 0.82224 0.90046 0.0
C244 C 0.1843 0.96371 0.95084 0.0
C245 C 0.17466 0.96358 0.89671 0.0
C246 C 0.14241 1.00029 0.87362 0.0
C247 C 0.11962 0.03754 0.90443 0.0
C248 C 0.13323 0.03936 0.95773 0.0
C249 C 0.16504 0.00291 0.98063 0.0
C250 C 0.18987 0.86475 0.1074 0.0
C251 C 0.18254 0.90453 0.14065 0.0
C252 C 0.86683 0.10139 0.68761 0.0
C253 C 0.89074 0.14641 0.70194 0.0
C254 C 0.88044 0.18695 0.6701 0.0
C255 C 0.84986 0.18181 0.62334 0.0
H256 H 0.69983 0.22546 0.52358 0.0
H257 H 0.62767 0.27581 0.48442 0.0
H258 H 0.64944 0.20229 0.33712 0.0
H259 H 0.72215 0.1512 0.37659 0.0
H260 H 0.83085 0.06687 0.3728 0.0
H261 H 0.88701 0.00256 0.33232 0.0
H262 H 0.90258 0.93263 0.48241 0.0
H263 H 0.84727 0.9961 0.52227 0.0
H264 H 0.82228 0.06044 0.62936 0.0
H265 H 0.87345 0.06941 0.71119 0.0
H266 H 0.89793 0.22219 0.68023 0.0
H267 H 0.84495 0.21299 0.59818 0.0
N268 N 0.77487 0.15935 0.52912 0.0
N269 N 0.77723 0.11123 0.45327 0.0
N270 N 0.82711 0.08775 0.52807 0.0
C271 C 0.75793 0.15105 0.47894 0.0
C272 C 0.81178 0.07938 0.47792 0.0
C273 C 0.80933 0.12754 0.55381 0.0
C274 C 0.71675 0.18394 0.45345 0.0
C275 C 0.68972 0.21999 0.48277 0.0
C276 C 0.64797 0.24882 0.46029 0.0
C277 C 0.63227 0.24271 0.40774 0.0
C278 C 0.6604 0.20774 0.37776 0.0
C279 C 0.70204 0.17846 0.40046 0.0
C280 C 0.83568 0.03699 0.45084 0.0
C281 C 0.84532 0.03712 0.39671 0.0
C282 C 0.87756 0.0004 0.37362 0.0
C283 C 0.90036 0.96316 0.40443 0.0
C284 C 0.88675 0.96134 0.45773 0.0
C285 C 0.85494 0.99779 0.48063 0.0
C286 C 0.8301 0.13595 0.6074 0.0
C287 C 0.83744 0.09616 0.64065 0.0
Fe288 Fe 0.01162 0.79365 0.3063 0.0
Fe289 Fe 0.01376 0.85043 0.40969 0.0
O290 O 0.01393 0.84968 0.34061 0.0
Fe291 Fe 0.01682 0.90509 0.30593 0.0
O292 O 0.97425 0.88298 0.25114 0.0
O293 O 0.94573 0.80953 0.27277 0.0
O294 O 0.96704 0.76215 0.35535 0.0
C295 C 0.93566 0.77813 0.3917 0.0
C296 C 0.0893 0.85134 0.24675 0.0
O297 O 0.94585 0.8188 0.41215 0.0
C298 C 0.09172 0.92264 0.39081 0.0
O299 O 0.07738 0.7738 0.33702 0.0
O300 O 0.05335 0.79424 0.41679 0.0
O301 O 0.08285 0.88847 0.27465 0.0
O302 O 0.05569 0.8152 0.25116 0.0
C303 C 0.94212 0.92858 0.38332 0.0
O304 O 0.08183 0.8824 0.41245 0.0
O305 O 0.06008 0.93758 0.3544 0.0
C306 C 0.08601 0.77248 0.38562 0.0
O307 O 0.97402 0.90673 0.41516 0.0
O308 O 0.95068 0.92574 0.33488 0.0
C309 C 0.93919 0.84804 0.24696 0.0
Fe310 Fe 1.00622 0.15027 0.90969 0.0
Fe311 Fe 1.00316 0.0956 0.80593 0.0
O312 O 1.00605 0.15102 0.84061 0.0
Fe313 Fe 0.00836 0.20705 0.8063 0.0
O314 O 0.05293 0.23855 0.85535 0.0
O315 O 0.07413 0.18189 0.91215 0.0
O316 O 0.04596 0.09396 0.91516 0.0
C317 C 0.07785 0.07212 0.88332 0.0
C318 C 0.93396 0.22822 0.88562 0.0
O319 O 0.06929 0.07496 0.83488 0.0
C320 C 0.93067 0.14936 0.74675 0.0
O321 O 0.93815 0.11829 0.91245 0.0
O322 O 0.9599 0.06312 0.8544 0.0
O323 O 0.9426 0.2269 0.83702 0.0
O324 O 0.96663 0.20646 0.91679 0.0
C325 C 0.08079 0.15266 0.74696 0.0
O326 O 0.93713 0.11223 0.77465 0.0
O327 O 0.96429 0.1855 0.75116 0.0
C328 C 0.92826 0.07805 0.89081 0.0
O329 O 0.04572 0.11771 0.75114 0.0
O330 O 0.07425 0.19116 0.77277 0.0
C331 C 0.08432 0.22257 0.8917 0.0
Fe332 Fe 0.51162 0.29365 0.3063 0.0
Fe333 Fe 0.51376 0.35043 0.40969 0.0
O334 O 0.51393 0.34968 0.34061 0.0
Fe335 Fe 0.51682 0.40509 0.30593 0.0
O336 O 0.47425 0.38298 0.25114 0.0
O337 O 0.44573 0.30953 0.27277 0.0
O338 O 0.46704 0.26215 0.35535 0.0
C339 C 0.43566 0.27813 0.3917 0.0
C340 C 0.5893 0.35134 0.24675 0.0
O341 O 0.44585 0.3188 0.41215 0.0
C342 C 0.59172 0.42264 0.39081 0.0
O343 O 0.57738 0.2738 0.33702 0.0
O344 O 0.55335 0.29424 0.41679 0.0
O345 O 0.58285 0.38847 0.27465 0.0
O346 O 0.55569 0.3152 0.25116 0.0
C347 C 0.44212 0.42858 0.38332 0.0
O348 O 0.58183 0.3824 0.41245 0.0
O349 O 0.56008 0.43758 0.3544 0.0
C350 C 0.58601 0.27248 0.38562 0.0
O351 O 0.47402 0.40673 0.41516 0.0
O352 O 0.45068 0.42574 0.33488 0.0
C353 C 0.43919 0.34804 0.24696 0.0
Fe354 Fe 0.50622 0.65027 0.90969 0.0
Fe355 Fe 0.50316 0.5956 0.80593 0.0
O356 O 0.50605 0.65102 0.84061 0.0
Fe357 Fe 0.50836 0.70705 0.8063 0.0
O358 O 0.55293 0.73855 0.85535 0.0
O359 O 0.57413 0.68189 0.91215 0.0
O360 O 0.54596 0.59396 0.91516 0.0
C361 C 0.57785 0.57212 0.88332 0.0
C362 C 0.43396 0.72822 0.88562 0.0
O363 O 0.56929 0.57496 0.83488 0.0
C364 C 0.43067 0.64936 0.74675 0.0
O365 O 0.43815 0.61829 0.91245 0.0
O366 O 0.4599 0.56312 0.8544 0.0
O367 O 0.4426 0.7269 0.83702 0.0
O368 O 0.46663 0.70646 0.91679 0.0
C369 C 0.58079 0.65266 0.74696 0.0
O370 O 0.43713 0.61223 0.77465 0.0
O371 O 0.46429 0.6855 0.75116 0.0
C372 C 0.42826 0.57805 0.89081 0.0
O373 O 0.54572 0.61771 0.75114 0.0
O374 O 0.57425 0.69116 0.77277 0.0
C375 C 0.58432 0.72257 0.8917 0.0
loop_
_geom_bond_atom_site_label_1
_geom_bond_atom_site_label_2
_geom_bond_distance
_geom_bond_site_symmetry_2
_ccdc_geom_bond_type
C0 C1 1.384 . S
C0 H13 0.947 . S
C0 C35 1.382 . S
C1 C0 1.384 . S
C1 C2 1.378 . S
C2 C1 1.378 . S
C2 C3 1.378 . S
C2 H14 0.952 . S
C3 C2 1.378 . S
C3 H15 0.950 . S
C3 C34 1.383 . S
H4 C23 0.947 1_554 S
H5 C24 0.946 . S
H6 C26 0.953 . S
H7 C27 0.945 . S
H8 C29 0.952 . S
H9 C30 0.949 . S
H10 C32 0.950 . S
H11 C33 0.940 1_554 S
H12 C35 0.951 . S
H13 C0 0.947 . S
H14 C2 0.952 . S
H15 C3 0.950 . S
N16 C19 1.382 1_554 S
N16 C21 1.363 . S
N17 C19 1.371 . S
N17 C20 1.372 . S
N18 C20 1.361 1_554 S
N18 C21 1.377 . S
C19 N16 1.382 1_556 S
C19 N17 1.371 . S
C19 C22 1.480 . S
C20 N17 1.372 . S
C20 N18 1.361 1_556 S
C20 C28 1.457 . S
C21 N16 1.363 . S
C21 N18 1.377 . S
C21 C34 1.479 . S
C22 C19 1.480 . S
C22 C23 1.383 . S
C22 C27 1.385 . S
C23 H4 0.947 1_556 S
C23 C22 1.383 . S
C23 C24 1.388 . S
C24 H5 0.946 . S
C24 C23 1.388 . S
C24 C25 1.384 . S
C25 C24 1.384 . S
C25 C26 1.377 . S
C26 H6 0.953 . S
C26 C25 1.377 . S
C26 C27 1.369 . S
C27 H7 0.945 . S
C27 C22 1.385 . S
C27 C26 1.369 . S
C28 C20 1.457 . S
C28 C29 1.372 . S
C28 C33 1.364 . S
C29 H8 0.952 . S
C29 C28 1.372 . S
C29 C30 1.389 . S
C30 H9 0.949 . S
C30 C29 1.389 . S
C30 C31 1.387 . S
C31 C30 1.387 . S
C31 C32 1.372 . S
C32 H10 0.950 . S
C32 C31 1.372 . S
C32 C33 1.379 . S
C33 H11 0.940 1_556 S
C33 C28 1.364 . S
C33 C32 1.379 . S
C34 C3 1.383 . S
C34 C21 1.479 . S
C34 C35 1.398 . S
C35 C0 1.382 . S
C35 H12 0.951 . S
C35 C34 1.398 . S
C36 C37 1.384 . S
C36 H49 0.947 . S
C36 C71 1.382 . S
C37 C36 1.384 . S
C37 C38 1.378 . S
C38 C37 1.378 . S
C38 C39 1.378 . S
C38 H50 0.952 . S
C39 C38 1.378 . S
C39 H51 0.950 . S
C39 C70 1.383 . S
H40 C59 0.947 . S
H41 C60 0.946 . S
H42 C62 0.953 . S
H43 C63 0.945 . S
H44 C65 0.952 . S
H45 C66 0.949 . S
H46 C68 0.950 . S
H47 C69 0.948 . S
H48 C71 0.951 . S
H49 C36 0.947 . S
H50 C38 0.952 . S
H51 C39 0.950 . S
N52 C55 1.382 . S
N52 C57 1.363 . S
N53 C55 1.371 . S
N53 C56 1.372 . S
N54 C56 1.361 . S
N54 C57 1.377 . S
C55 N52 1.382 . S
C55 N53 1.371 . S
C55 C58 1.480 . S
C56 N53 1.372 . S
C56 N54 1.361 . S
C56 C64 1.457 . S
C57 N52 1.363 . S
C57 N54 1.377 . S
C57 C70 1.479 . S
C58 C55 1.480 . S
C58 C59 1.383 . S
C58 C63 1.385 . S
C59 H40 0.947 . S
C59 C58 1.383 . S
C59 C60 1.388 . S
C60 H41 0.946 . S
C60 C59 1.388 . S
C60 C61 1.384 . S
C61 C60 1.384 . S
C61 C62 1.377 . S
C62 H42 0.953 . S
C62 C61 1.377 . S
C62 C63 1.369 . S
C63 H43 0.945 . S
C63 C58 1.385 . S
C63 C62 1.369 . S
C64 C56 1.457 . S
C64 C65 1.372 . S
C64 C69 1.364 . S
C65 H44 0.952 . S
C65 C64 1.372 . S
C65 C66 1.389 . S
C66 H45 0.949 . S
C66 C65 1.389 . S
C66 C67 1.387 . S
C67 C66 1.387 . S
C67 C68 1.372 . S
C68 H46 0.950 . S
C68 C67 1.372 . S
C68 C69 1.379 . S
C69 H47 0.948 . S
C69 C64 1.364 . S
C69 C68 1.379 . S
C70 C39 1.383 . S
C70 C57 1.479 . S
C70 C71 1.398 . S
C71 C36 1.382 . S
C71 H48 0.951 . S
C71 C70 1.398 . S
C72 C73 1.384 . S
C72 H85 0.947 . S
C72 C107 1.382 . S
C73 C72 1.384 . S
C73 C74 1.378 . S
C74 C73 1.378 . S
C74 C75 1.378 . S
C74 H86 0.952 . S
C75 C74 1.378 . S
C75 H87 0.950 . S
C75 C106 1.383 . S
H76 C95 0.947 1_554 S
H77 C96 0.946 . S
H78 C98 0.953 . S
H79 C99 0.945 . S
H80 C101 0.952 . S
H81 C102 0.949 . S
H82 C104 0.950 . S
H83 C105 0.948 1_554 S
H84 C107 0.951 . S
H85 C72 0.947 . S
H86 C74 0.952 . S
H87 C75 0.950 . S
N88 C91 1.382 1_554 S
N88 C93 1.363 . S
N89 C91 1.371 . S
N89 C92 1.372 . S
N90 C92 1.361 1_554 S
N90 C93 1.377 . S
C91 N88 1.382 1_556 S
C91 N89 1.371 . S
C91 C94 1.480 . S
C92 N89 1.372 . S
C92 N90 1.361 1_556 S
C92 C100 1.457 . S
C93 N88 1.363 . S
C93 N90 1.377 . S
C93 C106 1.479 . S
C94 C91 1.480 . S
C94 C95 1.383 . S
C94 C99 1.385 . S
C95 H76 0.947 1_556 S
C95 C94 1.383 . S
C95 C96 1.388 . S
C96 H77 0.946 . S
C96 C95 1.388 . S
C96 C97 1.384 . S
C97 C96 1.384 . S
C97 C98 1.377 . S
C98 H78 0.953 . S
C98 C97 1.377 . S
C98 C99 1.369 . S
C99 H79 0.945 . S
C99 C94 1.385 . S
C99 C98 1.369 . S
C100 C92 1.457 . S
C100 C101 1.372 . S
C100 C105 1.364 . S
C101 H80 0.952 . S
C101 C100 1.372 . S
C101 C102 1.389 . S
C102 H81 0.949 . S
C102 C101 1.389 . S
C102 C103 1.387 . S
C103 C102 1.387 . S
C103 C104 1.372 . S
C104 H82 0.950 . S
C104 C103 1.372 . S
C104 C105 1.379 . S
C105 H83 0.948 1_556 S
C105 C100 1.364 . S
C105 C104 1.379 . S
C106 C75 1.383 . S
C106 C93 1.479 . S
C106 C107 1.398 . S
C107 C72 1.382 . S
C107 H84 0.951 . S
C107 C106 1.398 . S
C108 C109 1.384 . S
C108 H121 0.947 . S
C108 C143 1.382 . S
C109 C108 1.384 . S
C109 C110 1.378 . S
C110 C109 1.378 . S
C110 C111 1.378 . S
C110 H122 0.952 . S
C111 C110 1.378 . S
C111 H123 0.950 . S
C111 C142 1.383 . S
H112 C131 0.947 . S
H113 C132 0.946 . S
H114 C134 0.953 . S
H115 C135 0.945 . S
H116 C137 0.952 . S
H117 C138 0.949 . S
H118 C140 0.950 . S
H119 C141 0.948 . S
H120 C143 0.951 . S
H121 C108 0.947 . S
H122 C110 0.952 . S
H123 C111 0.950 . S
N124 C127 1.382 . S
N124 C129 1.363 . S
N125 C127 1.371 . S
N125 C128 1.372 . S
N126 C128 1.361 . S
N126 C129 1.377 . S
C127 N124 1.382 . S
C127 N125 1.371 . S
C127 C130 1.480 . S
C128 N125 1.372 . S
C128 N126 1.361 . S
C128 C136 1.457 . S
C129 N124 1.363 . S
C129 N126 1.377 . S
C129 C142 1.479 . S
C130 C127 1.480 . S
C130 C131 1.383 . S
C130 C135 1.385 . S
C131 H112 0.947 . S
C131 C130 1.383 . S
C131 C132 1.388 . S
C132 H113 0.946 . S
C132 C131 1.388 . S
C132 C133 1.384 . S
C133 C132 1.384 . S
C133 C134 1.377 . S
C134 H114 0.953 . S
C134 C133 1.377 . S
C134 C135 1.369 . S
C135 H115 0.945 . S
C135 C130 1.385 . S
C135 C134 1.369 . S
C136 C128 1.457 . S
C136 C137 1.372 . S
C136 C141 1.364 . S
C137 H116 0.952 . S
C137 C136 1.372 . S
C137 C138 1.389 . S
C138 H117 0.949 . S
C138 C137 1.389 . S
C138 C139 1.387 . S
C139 C138 1.387 . S
C139 C140 1.372 . S
C140 H118 0.950 . S
C140 C139 1.372 . S
C140 C141 1.379 . S
C141 H119 0.948 . S
C141 C136 1.364 . S
C141 C140 1.379 . S
C142 C111 1.383 . S
C142 C129 1.479 . S
C142 C143 1.398 . S
C143 C108 1.382 . S
C143 H120 0.951 . S
C143 C142 1.398 . S
C144 C145 1.384 . S
C144 H157 0.947 . S
C144 C179 1.382 . S
C145 C144 1.384 . S
C145 C146 1.378 . S
C146 C145 1.378 . S
C146 C147 1.378 . S
C146 H158 0.952 . S
C147 C146 1.378 . S
C147 H159 0.950 . S
C147 C178 1.383 . S
H148 C167 0.947 1_554 S
H149 C168 0.946 . S
H150 C170 0.953 . S
H151 C171 0.945 . S
H152 C173 0.952 . S
H153 C174 0.949 . S
H154 C176 0.950 . S
H155 C177 0.940 1_554 S
H156 C179 0.951 . S
H157 C144 0.947 . S
H158 C146 0.952 . S
H159 C147 0.950 . S
N160 C163 1.382 1_554 S
N160 C165 1.363 . S
N161 C163 1.371 . S
N161 C164 1.372 . S
N162 C164 1.361 1_554 S
N162 C165 1.377 . S
C163 N160 1.382 1_556 S
C163 N161 1.371 . S
C163 C166 1.480 . S
C164 N161 1.372 . S
C164 N162 1.361 1_556 S
C164 C172 1.457 . S
C165 N160 1.363 . S
C165 N162 1.377 . S
C165 C178 1.479 . S
C166 C163 1.480 . S
C166 C167 1.383 . S
C166 C171 1.385 . S
C167 H148 0.947 1_556 S
C167 C166 1.383 . S
C167 C168 1.388 . S
C168 H149 0.946 . S
C168 C167 1.388 . S
C168 C169 1.384 . S
C169 C168 1.384 . S
C169 C170 1.377 . S
C170 H150 0.953 . S
C170 C169 1.377 . S
C170 C171 1.369 . S
C171 H151 0.945 . S
C171 C166 1.385 . S
C171 C170 1.369 . S
C172 C164 1.457 . S
C172 C173 1.372 . S
C172 C177 1.364 . S
C173 H152 0.952 . S
C173 C172 1.372 . S
C173 C174 1.389 1_565 S
C174 H153 0.949 . S
C174 C173 1.389 1_545 S
C174 C175 1.387 . S
C175 C174 1.387 . S
C175 C176 1.372 . S
C176 H154 0.950 . S
C176 C175 1.372 . S
C176 C177 1.379 1_545 S
C177 H155 0.940 1_556 S
C177 C172 1.364 . S
C177 C176 1.379 1_565 S
C178 C147 1.383 . S
C178 C165 1.479 . S
C178 C179 1.398 . S
C179 C144 1.382 . S
C179 H156 0.951 . S
C179 C178 1.398 . S
C180 C181 1.384 . S
C180 H193 0.947 . S
C180 C215 1.382 . S
C181 C180 1.384 . S
C181 C182 1.378 . S
C182 C181 1.378 . S
C182 C183 1.378 . S
C182 H194 0.952 . S
C183 C182 1.378 . S
C183 H195 0.950 . S
C183 C214 1.383 . S
H184 C203 0.947 . S
H185 C204 0.946 . S
H186 C206 0.953 . S
H187 C207 0.945 . S
H188 C209 0.952 . S
H189 C210 0.949 . S
H190 C212 0.950 . S
H191 C213 0.948 . S
H192 C215 0.951 . S
H193 C180 0.947 . S
H194 C182 0.952 . S
H195 C183 0.950 . S
N196 C199 1.382 . S
N196 C201 1.363 . S
N197 C199 1.371 . S
N197 C200 1.372 . S
N198 C200 1.361 . S
N198 C201 1.377 . S
C199 N196 1.382 . S
C199 N197 1.371 . S
C199 C202 1.480 . S
C200 N197 1.372 . S
C200 N198 1.361 . S
C200 C208 1.457 . S
C201 N196 1.363 . S
C201 N198 1.377 . S
C201 C214 1.479 . S
C202 C199 1.480 . S
C202 C203 1.383 . S
C202 C207 1.385 . S
C203 H184 0.947 . S
C203 C202 1.383 . S
C203 C204 1.388 . S
C204 H185 0.946 . S
C204 C203 1.388 . S
C204 C205 1.384 . S
C205 C204 1.384 . S
C205 C206 1.377 . S
C206 H186 0.953 . S
C206 C205 1.377 . S
C206 C207 1.369 . S
C207 H187 0.945 . S
C207 C202 1.385 . S
C207 C206 1.369 . S
C208 C200 1.457 . S
C208 C209 1.372 . S
C208 C213 1.364 . S
C209 H188 0.952 . S
C209 C208 1.372 . S
C209 C210 1.389 1_545 S
C210 H189 0.949 . S
C210 C209 1.389 1_565 S
C210 C211 1.387 . S
C211 C210 1.387 . S
C211 C212 1.372 . S
C212 H190 0.950 . S
C212 C211 1.372 . S
C212 C213 1.379 1_565 S
C213 H191 0.948 . S
C213 C208 1.364 . S
C213 C212 1.379 1_545 S
C214 C183 1.383 . S
C214 C201 1.479 . S
C214 C215 1.398 . S
C215 C180 1.382 . S
C215 H192 0.951 . S
C215 C214 1.398 . S
C216 C217 1.384 . S
C216 H229 0.947 . S
C216 C251 1.382 . S
C217 C216 1.384 . S
C217 C218 1.378 . S
C218 C217 1.378 . S
C218 C219 1.378 . S
C218 H230 0.952 . S
C219 C218 1.378 . S
C219 H231 0.950 . S
C219 C250 1.383 . S
H220 C239 0.947 1_554 S
H221 C240 0.946 . S
H222 C242 0.953 . S
H223 C243 0.945 . S
H224 C245 0.952 . S
H225 C246 0.949 . S
H226 C248 0.950 . S
H227 C249 0.948 1_554 S
H228 C251 0.951 . S
H229 C216 0.947 . S
H230 C218 0.952 . S
H231 C219 0.950 . S
N232 C235 1.382 1_554 S
N232 C237 1.363 . S
N233 C235 1.371 . S
N233 C236 1.372 . S
N234 C236 1.361 1_554 S
N234 C237 1.377 . S
C235 N232 1.382 1_556 S
C235 N233 1.371 . S
C235 C238 1.480 . S
C236 N233 1.372 . S
C236 N234 1.361 1_556 S
C236 C244 1.457 . S
C237 N232 1.363 . S
C237 N234 1.377 . S
C237 C250 1.479 . S
C238 C235 1.480 . S
C238 C239 1.383 . S
C238 C243 1.385 . S
C239 H220 0.947 1_556 S
C239 C238 1.383 . S
C239 C240 1.388 . S
C240 H221 0.946 . S
C240 C239 1.388 . S
C240 C241 1.384 . S
C241 C240 1.384 . S
C241 C242 1.377 . S
C242 H222 0.953 . S
C242 C241 1.377 . S
C242 C243 1.369 . S
C243 H223 0.945 . S
C243 C238 1.385 . S
C243 C242 1.369 . S
C244 C236 1.457 . S
C244 C245 1.372 . S
C244 C249 1.364 1_565 S
C245 H224 0.952 . S
C245 C244 1.372 . S
C245 C246 1.389 1_565 S
C246 H225 0.949 . S
C246 C245 1.389 1_545 S
C246 C247 1.387 . S
C247 C246 1.387 . S
C247 C248 1.372 . S
C248 H226 0.950 . S
C248 C247 1.372 . S
C248 C249 1.379 . S
C249 H227 0.948 1_556 S
C249 C244 1.364 1_545 S
C249 C248 1.379 . S
C250 C219 1.383 . S
C250 C237 1.479 . S
C250 C251 1.398 . S
C251 C216 1.382 . S
C251 H228 0.951 . S
C251 C250 1.398 . S
C252 C253 1.384 . S
C252 H265 0.947 . S
C252 C287 1.382 . S
C253 C252 1.384 . S
C253 C254 1.378 . S
C254 C253 1.378 . S
C254 C255 1.378 . S
C254 H266 0.952 . S
C255 C254 1.378 . S
C255 H267 0.950 . S
C255 C286 1.383 . S
H256 C275 0.947 . S
H257 C276 0.946 . S
H258 C278 0.953 . S
H259 C279 0.945 . S
H260 C281 0.952 . S
H261 C282 0.949 . S
H262 C284 0.950 . S
H263 C285 0.948 . S
H264 C287 0.951 . S
H265 C252 0.947 . S
H266 C254 0.952 . S
H267 C255 0.950 . S
N268 C271 1.382 . S
N268 C273 1.363 . S
N269 C271 1.371 . S
N269 C272 1.372 . S
N270 C272 1.361 . S
N270 C273 1.377 . S
C271 N268 1.382 . S
C271 N269 1.371 . S
C271 C274 1.480 . S
C272 N269 1.372 . S
C272 N270 1.361 . S
C272 C280 1.457 . S
C273 N268 1.363 . S
C273 N270 1.377 . S
C273 C286 1.479 . S
C274 C271 1.480 . S
C274 C275 1.383 . S
C274 C279 1.385 . S
C275 H256 0.947 . S
C275 C274 1.383 . S
C275 C276 1.388 . S
C276 H257 0.946 . S
C276 C275 1.388 . S
C276 C277 1.384 . S
C277 C276 1.384 . S
C277 C278 1.377 . S
C278 H258 0.953 . S
C278 C277 1.377 . S
C278 C279 1.369 . S
C279 H259 0.945 . S
C279 C274 1.385 . S
C279 C278 1.369 . S
C280 C272 1.457 . S
C280 C281 1.372 . S
C280 C285 1.364 1_545 S
C281 H260 0.952 . S
C281 C280 1.372 . S
C281 C282 1.389 1_545 S
C282 H261 0.949 . S
C282 C281 1.389 1_565 S
C282 C283 1.387 . S
C283 C282 1.387 . S
C283 C284 1.372 . S
C284 H262 0.950 . S
C284 C283 1.372 . S
C284 C285 1.379 . S
C285 H263 0.948 . S
C285 C280 1.364 1_565 S
C285 C284 1.379 . S
C286 C255 1.383 . S
C286 C273 1.479 . S
C286 C287 1.398 . S
C287 C252 1.382 . S
C287 H264 0.951 . S
C287 C286 1.398 . S
Fe288 O290 1.918 . S
Fe288 O293 1.997 1_455 S
Fe288 O294 2.002 1_455 S
Fe288 O299 1.976 . S
Fe288 O302 1.996 . S
Fe289 O290 1.918 . S
Fe289 O297 1.997 1_455 S
Fe289 O300 1.996 . S
Fe289 O304 1.976 . S
Fe289 O307 2.002 1_455 S
O290 Fe288 1.918 . S
O290 Fe289 1.918 . S
O290 Fe291 1.918 . S
Fe291 O290 1.918 . S
Fe291 O292 2.002 1_455 S
Fe291 O301 1.976 . S
Fe291 O305 1.996 . S
Fe291 O308 1.997 1_455 S
O292 Fe291 2.002 1_655 S
O292 C309 1.295 . S
O293 Fe288 1.997 1_655 S
O293 C309 1.235 . S
O294 Fe288 2.002 1_655 S
O294 C295 1.295 . S
C295 O294 1.295 . S
C295 O297 1.235 . S
C296 O301 1.287 . S
C296 O302 1.255 . S
O297 Fe289 1.997 1_655 S
O297 C295 1.235 . S
C298 O304 1.287 . S
C298 O305 1.255 . S
O299 Fe288 1.976 . S
O299 C306 1.287 . S
O300 Fe289 1.996 . S
O300 C306 1.255 . S
O301 Fe291 1.976 . S
O301 C296 1.287 . S
O302 Fe288 1.996 . S
O302 C296 1.255 . S
C303 O307 1.295 . S
C303 O308 1.235 . S
O304 Fe289 1.976 . S
O304 C298 1.287 . S
O305 Fe291 1.996 . S
O305 C298 1.255 . S
C306 O299 1.287 . S
C306 O300 1.255 . S
O307 Fe289 2.002 1_655 S
O307 C303 1.295 . S
O308 Fe291 1.997 1_655 S
O308 C303 1.235 . S
C309 O292 1.295 . S
C309 O293 1.235 . S
Fe310 O312 1.918 . S
Fe310 O315 1.986 1_655 S
Fe310 O316 1.992 1_655 S
Fe310 O321 1.986 . S
Fe310 O324 2.006 . S
Fe311 O312 1.918 . S
Fe311 O319 1.987 1_655 S
Fe311 O322 2.005 . S
Fe311 O326 1.986 . S
Fe311 O329 1.992 1_655 S
O312 Fe310 1.918 . S
O312 Fe311 1.918 . S
O312 Fe313 1.918 . S
Fe313 O312 1.918 . S
Fe313 O314 1.993 1_655 S
Fe313 O323 1.985 . S
Fe313 O327 2.005 . S
Fe313 O330 1.987 1_655 S
O314 Fe313 1.993 1_455 S
O314 C331 1.295 . S
O315 Fe310 1.986 1_455 S
O315 C331 1.235 . S
O316 Fe310 1.992 1_455 S
O316 C317 1.295 . S
C317 O316 1.295 . S
C317 O319 1.235 . S
C318 O323 1.287 . S
C318 O324 1.255 . S
O319 Fe311 1.987 1_455 S
O319 C317 1.235 . S
C320 O326 1.287 . S
C320 O327 1.255 . S
O321 Fe310 1.986 . S
O321 C328 1.287 . S
O322 Fe311 2.005 . S
O322 C328 1.255 . S
O323 Fe313 1.985 . S
O323 C318 1.287 . S
O324 Fe310 2.006 . S
O324 C318 1.255 . S
C325 O329 1.295 . S
C325 O330 1.235 . S
O326 Fe311 1.986 . S
O326 C320 1.287 . S
O327 Fe313 2.005 . S
O327 C320 1.255 . S
C328 O321 1.287 . S
C328 O322 1.255 . S
O329 Fe311 1.992 1_455 S
O329 C325 1.295 . S
O330 Fe313 1.987 1_455 S
O330 C325 1.235 . S
C331 O314 1.295 . S
C331 O315 1.235 . S
Fe332 O334 1.918 . S
Fe332 O337 1.997 . S
Fe332 O338 2.002 . S
Fe332 O343 1.976 . S
Fe332 O346 1.996 . S
Fe333 O334 1.918 . S
Fe333 O341 1.997 . S
Fe333 O344 1.996 . S
Fe333 O348 1.976 . S
Fe333 O351 2.002 . S
O334 Fe332 1.918 . S
O334 Fe333 1.918 . S
O334 Fe335 1.918 . S
Fe335 O334 1.918 . S
Fe335 O336 2.002 . S
Fe335 O345 1.976 . S
Fe335 O349 1.996 . S
Fe335 O352 1.997 . S
O336 Fe335 2.002 . S
O336 C353 1.295 . S
O337 Fe332 1.997 . S
O337 C353 1.235 . S
O338 Fe332 2.002 . S
O338 C339 1.295 . S
C339 O338 1.295 . S
C339 O341 1.235 . S
C340 O345 1.287 . S
C340 O346 1.255 . S
O341 Fe333 1.997 . S
O341 C339 1.235 . S
C342 O348 1.287 . S
C342 O349 1.255 . S
O343 Fe332 1.976 . S
O343 C350 1.287 . S
O344 Fe333 1.996 . S
O344 C350 1.255 . S
O345 Fe335 1.976 . S
O345 C340 1.287 . S
O346 Fe332 1.996 . S
O346 C340 1.255 . S
C347 O351 1.295 . S
C347 O352 1.235 . S
O348 Fe333 1.976 . S
O348 C342 1.287 . S
O349 Fe335 1.996 . S
O349 C342 1.255 . S
C350 O343 1.287 . S
C350 O344 1.255 . S
O351 Fe333 2.002 . S
O351 C347 1.295 . S
O352 Fe335 1.997 . S
O352 C347 1.235 . S
C353 O336 1.295 . S
C353 O337 1.235 . S
Fe354 O356 1.918 . S
Fe354 O359 1.997 . S
Fe354 O360 2.002 . S
Fe354 O365 1.976 . S
Fe354 O368 1.996 . S
Fe355 O356 1.918 . S
Fe355 O363 1.997 . S
Fe355 O366 1.996 . S
Fe355 O370 1.976 . S
Fe355 O373 2.002 . S
O356 Fe354 1.918 . S
O356 Fe355 1.918 . S
O356 Fe357 1.918 . S
Fe357 O356 1.918 . S
Fe357 O358 2.002 . S
Fe357 O367 1.976 . S
Fe357 O371 1.996 . S
Fe357 O374 1.997 . S
O358 Fe357 2.002 . S
O358 C375 1.295 . S
O359 Fe354 1.997 . S
O359 C375 1.235 . S
O360 Fe354 2.002 . S
O360 C361 1.295 . S
C361 O360 1.295 . S
C361 O363 1.235 . S
C362 O367 1.287 . S
C362 O368 1.255 . S
O363 Fe355 1.997 . S
O363 C361 1.235 . S
C364 O370 1.287 . S
C364 O371 1.255 . S
O365 Fe354 1.976 . S
O365 C372 1.287 . S
O366 Fe355 1.996 . S
O366 C372 1.255 . S
O367 Fe357 1.976 . S
O367 C362 1.287 . S
O368 Fe354 1.996 . S
O368 C362 1.255 . S
C369 O373 1.295 . S
C369 O374 1.235 . S
O370 Fe355 1.976 . S
O370 C364 1.287 . S
O371 Fe357 1.996 . S
O371 C364 1.255 . S
C372 O365 1.287 . S
C372 O366 1.255 . S
O373 Fe355 2.002 . S
O373 C369 1.295 . S
O374 Fe357 1.997 . S
O374 C369 1.235 . S
C375 O358 1.295 . S
C375 O359 1.235 . S
C25 C331 1.665 . S
C295 C61 1.665 . S
C318 C97 1.773 . S
C306 C133 1.773 . S
C375 C169 1.665 . S
C339 C205 1.665 . S
C241 C362 1.773 . S
C350 C277 1.773 . S
C31 C372 1.785 . S
C342 C67 1.785 . S
C103 C361 1.971 . S
C139 C347 1.971 . S
C328 C175 1.785 . S
C211 C298 1.785 . S
C317 C247 1.971 . S
C303 C283 1.971 . S
C353 C1 1.875 . S
C369 C37 1.875 . S
C73 C340 1.941 . S
C364 C109 1.941 . S
C309 C145 1.876 . S
C181 C325 1.876 . S
C217 C296 1.941 . S
C253 C320 1.941 . S
