# Generated by pormake.
# Topology rtl, (3,6)-cn, num edge types: 1
# Building blocks:
#     Node 0, Type 0, BuildingBlock: MIDCAF_clean_linker_0, # of connection points: 3
#     Node 1, Type 0, BuildingBlock: MIDCAF_clean_linker_0, # of connection points: 3
#     Node 2, Type 0, BuildingBlock: MIDCAF_clean_linker_0, # of connection points: 3
#     Node 3, Type 0, BuildingBlock: MIDCAF_clean_linker_0, # of connection points: 3
#     Node 4, Type 1, BuildingBlock: KUMBUR_clean_sbu_1, # of connection points: 6
#     Node 5, Type 1, BuildingBlock: KUMBUR_clean_sbu_1, # of connection points: 6
#     Edge 6, Type (0, 1), BuildingBlock: MIFKUJ_clean_linker_0, # of connection points: 2
#     Edge 7, Type (0, 1), BuildingBlock: MIFKUJ_clean_linker_0, # of connection points: 2
#     Edge 8, Type (0, 1), BuildingBlock: MIFKUJ_clean_linker_0, # of connection points: 2
#     Edge 9, Type (0, 1), BuildingBlock: MIFKUJ_clean_linker_0, # of connection points: 2
#     Edge 10, Type (0, 1), BuildingBlock: MIFKUJ_clean_linker_0, # of connection points: 2
#     Edge 11, Type (0, 1), BuildingBlock: MIFKUJ_clean_linker_0, # of connection points: 2
#     Edge 12, Type (0, 1), BuildingBlock: MIFKUJ_clean_linker_0, # of connection points: 2
#     Edge 13, Type (0, 1), BuildingBlock: MIFKUJ_clean_linker_0, # of connection points: 2
#     Edge 14, Type (0, 1), BuildingBlock: MIFKUJ_clean_linker_0, # of connection points: 2
#     Edge 15, Type (0, 1), BuildingBlock: MIFKUJ_clean_linker_0, # of connection points: 2
#     Edge 16, Type (0, 1), BuildingBlock: MIFKUJ_clean_linker_0, # of connection points: 2
#     Edge 17, Type (0, 1), BuildingBlock: MIFKUJ_clean_linker_0, # of connection points: 2
# Relax obj value: 0.017
# Max RMSD: 0.084
# Mean RMSD: 0.052
data_MOF--net-rtl--node1-KUMBUR_clean_sbu_1--node2-MIDCAF_clean_linker_0--edge1-MIFKUJ_clean_linker_0
_symmetry_space_group_name_H-M    P1
_symmetry_Int_Tables_number       1
_symmetry_cell_setting            triclinic
loop_
_symmetry_equiv_pos_as_xyz
'x, y, z'
_cell_length_a     49.020153
_cell_length_b     49.593531
_cell_length_c     42.571278
_cell_angle_alpha  81.885624
_cell_angle_beta   99.405257
_cell_angle_gamma 90.253786
loop_
_atom_site_label
_atom_site_type_symbol
_atom_site_fract_x
_atom_site_fract_y
_atom_site_fract_z
_atom_type_partial_charge
C0 C 0.18771 0.90626 0.10172 0.0
C1 C 0.2027 0.89805 0.1326 0.0
C2 C 0.22707 0.88235 0.13588 0.0
C3 C 0.23605 0.87468 0.10881 0.0
H4 H 0.28903 0.81968 0.0801 0.0
H5 H 0.32189 0.78201 0.08402 0.0
H6 H 0.30439 0.78455 0.98079 0.0
H7 H 0.27244 0.82241 0.97673 0.0
H8 H 0.23729 0.86928 0.93409 0.0
H9 H 0.21321 0.88776 0.88086 0.0
H10 H 0.1585 0.93414 0.92372 0.0
H11 H 0.18226 0.91542 0.97712 0.0
H12 H 0.18461 0.9055 0.05126 0.0
H13 H 0.169 0.91858 0.09845 0.0
H14 H 0.23891 0.87555 0.15946 0.0
H15 H 0.25479 0.86238 0.11217 0.0
N16 N 0.24981 0.85467 0.05194 0.0
N17 N 0.24511 0.85858 0.99576 0.0
N18 N 0.21796 0.88614 0.0192 0.0
C19 C 0.25741 0.84658 0.02531 0.0
C20 C 0.22545 0.8784 0.99245 0.0
C21 C 0.23005 0.87449 0.04902 0.0
C22 C 0.27803 0.82418 0.02811 0.0
C23 C 0.29233 0.8123 0.05823 0.0
C24 C 0.31107 0.7906 0.0605 0.0
C25 C 0.31587 0.78025 0.03272 0.0
C26 C 0.30167 0.79228 1.00266 0.0
C27 C 0.28312 0.81397 1.00037 0.0
C28 C 0.21166 0.89072 0.96 0.0
C29 C 0.22021 0.8835 0.93228 0.0
C30 C 0.20653 0.89424 0.9017 0.0
C31 C 0.18394 0.91237 0.89811 0.0
C32 C 0.17565 0.91996 0.92575 0.0
C33 C 0.18939 0.90931 0.95636 0.0
C34 C 0.22099 0.88282 0.07787 0.0
C35 C 0.1968 0.89886 0.07466 0.0
C36 C 0.60332 0.65398 0.50038 0.0
C37 C 0.61788 0.65547 0.47432 0.0
C38 C 0.64274 0.66991 0.47591 0.0
C39 C 0.6529 0.68225 0.50293 0.0
H40 H 0.7034 0.74265 0.53153 0.0
H41 H 0.7393 0.77609 0.52779 0.0
H42 H 0.74468 0.78204 0.62886 0.0
H43 H 0.70885 0.74788 0.63293 0.0
H44 H 0.67053 0.70737 0.67458 0.0
H45 H 0.65662 0.68747 0.72538 0.0
H46 H 0.6 0.6353 0.67452 0.0
H47 H 0.61387 0.6547 0.62416 0.0
H48 H 0.60204 0.66423 0.54731 0.0
H49 H 0.58384 0.64356 0.49983 0.0
H50 H 0.65483 0.67114 0.45664 0.0
H51 H 0.67231 0.69284 0.50347 0.0
N52 N 0.67008 0.71106 0.55761 0.0
N53 N 0.67252 0.71261 0.61286 0.0
N54 N 0.64159 0.68333 0.58693 0.0
C55 C 0.68129 0.72161 0.5845 0.0
C56 C 0.65262 0.6934 0.61422 0.0
C57 C 0.6502 0.69201 0.55857 0.0
C58 C 0.70309 0.74245 0.58257 0.0
C59 C 0.71208 0.75102 0.55307 0.0
C60 C 0.73262 0.77043 0.55082 0.0
C61 C 0.74478 0.78193 0.57796 0.0
C62 C 0.73589 0.77342 0.60753 0.0
C63 C 0.71525 0.75392 0.60982 0.0
C64 C 0.64351 0.68257 0.64517 0.0
C65 C 0.65505 0.69172 0.67421 0.0
C66 C 0.64702 0.6804 0.70333 0.0
C67 C 0.62742 0.65961 0.70402 0.0
C68 C 0.61554 0.6509 0.67493 0.0
C69 C 0.62344 0.66221 0.64595 0.0
C70 C 0.63867 0.68014 0.52925 0.0
C71 C 0.61369 0.66599 0.52759 0.0
C72 C 0.84878 0.11461 0.94759 0.0
C73 C 0.83473 0.12333 0.91632 0.0
C74 C 0.80888 0.1366 0.91245 0.0
C75 C 0.79771 0.14178 0.93928 0.0
H76 H 0.73321 0.18528 0.96716 0.0
H77 H 0.69657 0.21966 0.96209 0.0
H78 H 0.72188 0.22935 0.06196 0.0
H79 H 0.75738 0.19458 0.06729 0.0
H80 H 0.7945 0.1523 0.11201 0.0
H81 H 0.81706 0.13541 0.16628 0.0
H82 H 0.86776 0.08061 0.12905 0.0
H83 H 0.84498 0.09735 0.0743 0.0
H84 H 0.84917 0.11285 0.99812 0.0
H85 H 0.8686 0.10406 0.95132 0.0
H86 H 0.79765 0.14373 0.88864 0.0
H87 H 0.77799 0.15253 0.93538 0.0
N88 N 0.77966 0.15873 0.99526 0.0
N89 N 0.78309 0.15545 0.05119 0.0
N90 N 0.81336 0.1299 0.02931 0.0
C91 C 0.77059 0.1663 0.02131 0.0
C92 C 0.80434 0.13719 0.05552 0.0
C93 C 0.80111 0.14055 0.99907 0.0
C94 C 0.74817 0.18704 0.01765 0.0
C95 C 0.7308 0.1947 0.98803 0.0
C96 C 0.70988 0.2145 0.9851 0.0
C97 C 0.70607 0.22723 0.01167 0.0
C98 C 0.72362 0.21958 0.04116 0.0
C99 C 0.74422 0.19968 0.04416 0.0
C100 C 0.81794 0.12626 0.08862 0.0
C101 C 0.81039 0.13659 0.11519 0.0
C102 C 0.82344 0.12704 0.14639 0.0
C103 C 0.84428 0.10681 0.15191 0.0
C104 C 0.85162 0.09611 0.12551 0.0
C105 C 0.83866 0.10581 0.09415 0.0
C106 C 0.81204 0.13357 0.97061 0.0
C107 C 0.83752 0.11954 0.97441 0.0
C108 C 0.39631 0.35386 0.55123 0.0
C109 C 0.38648 0.34445 0.57999 0.0
C110 C 0.36756 0.32307 0.58018 0.0
C111 C 0.35836 0.31166 0.55222 0.0
H112 H 0.31753 0.24615 0.51989 0.0
H113 H 0.28153 0.21275 0.52372 0.0
H114 H 0.25552 0.22888 0.42077 0.0
H115 H 0.29231 0.26203 0.41677 0.0
H116 H 0.35602 0.28658 0.38315 0.0
H117 H 0.37227 0.30664 0.3336 0.0
H118 H 0.3889 0.38175 0.37282 0.0
H119 H 0.37324 0.36177 0.42236 0.0
H120 H 0.39495 0.35042 0.50148 0.0
H121 H 0.41119 0.37004 0.55035 0.0
H122 H 0.35924 0.31557 0.60176 0.0
H123 H 0.34349 0.29548 0.55327 0.0
N124 N 0.33899 0.28923 0.49382 0.0
N125 N 0.33643 0.28961 0.43821 0.0
N126 N 0.36475 0.32051 0.46493 0.0
C127 C 0.32849 0.27891 0.46653 0.0
C128 C 0.35465 0.31045 0.43733 0.0
C129 C 0.35712 0.30996 0.49331 0.0
C130 C 0.30773 0.25702 0.46802 0.0
C131 C 0.30427 0.24257 0.49796 0.0
C132 C 0.28344 0.22346 0.50021 0.0
C133 C 0.26526 0.21836 0.47264 0.0
C134 C 0.26922 0.23216 0.4425 0.0
C135 C 0.29029 0.25124 0.4402 0.0
C136 C 0.36338 0.32255 0.40671 0.0
C137 C 0.36305 0.30739 0.38112 0.0
C138 C 0.37249 0.31878 0.35288 0.0
C139 C 0.38182 0.34572 0.34945 0.0
C140 C 0.38169 0.36099 0.37479 0.0
C141 C 0.37282 0.34947 0.40319 0.0
C142 C 0.36779 0.32139 0.52328 0.0
C143 C 0.38707 0.34249 0.52322 0.0
Tb144 Tb 0.02735 0.96971 0.50861 0.0
C145 C 0.94487 0.06565 0.49998 0.0
N146 N 0.972 0.06372 0.5133 0.0
C147 C 0.97938 0.10854 0.48693 0.0
C148 C 0.93405 0.08873 0.4784 0.0
C149 C 0.98918 0.08503 0.50792 0.0
C150 C 0.95176 0.11027 0.47178 0.0
C151 C 0.89947 0.04592 0.49613 0.0
C152 C 0.92796 0.04454 0.50869 0.0
C153 C 0.88869 0.06825 0.47341 0.0
C154 C 0.90596 0.08965 0.46459 0.0
Tb155 Tb 0.9862 0.02456 0.54679 0.0
N156 N 0.93913 0.02359 0.53113 0.0
C157 C 0.88254 0.02538 0.50773 0.0
C158 C 0.92219 0.00508 0.54477 0.0
C159 C 0.89388 0.00521 0.53265 0.0
H160 H 0.01052 0.08376 0.51948 0.0
H161 H 0.88073 0.99002 0.54286 0.0
H162 H 0.98719 0.9147 0.5185 0.0
H163 H 0.13653 0.97947 0.54769 0.0
H164 H 0.93027 0.99031 0.56529 0.0
H165 H 0.86055 0.0256 0.49867 0.0
H166 H 0.09083 0.99209 0.51444 0.0
H167 H 0.99314 0.12524 0.48235 0.0
H168 H 0.86691 0.06954 0.46324 0.0
H169 H 0.89727 0.10704 0.44762 0.0
H170 H 0.98759 0.873 0.55719 0.0
H171 H 0.94426 0.12842 0.4554 0.0
H172 H 0.14112 0.93939 0.59023 0.0
N173 N 0.02578 0.92864 0.54104 0.0
C174 C 0.04934 0.92102 0.56213 0.0
C175 C 0.00491 0.88661 0.5593 0.0
C176 C 0.0511 0.89657 0.58379 0.0
C177 C 0.00445 0.91082 0.53789 0.0
C178 C 0.02812 0.87972 0.58283 0.0
N179 N 0.07002 0.95985 0.53854 0.0
C180 C 0.09277 0.97464 0.53303 0.0
C181 C 0.09792 0.92898 0.58002 0.0
C182 C 0.07246 0.93686 0.56036 0.0
C183 C 0.12112 0.94481 0.57569 0.0
C184 C 0.1186 0.9675 0.55175 0.0
H185 H 0.02858 0.86076 0.59906 0.0
H186 H 0.07769 0.87063 0.62173 0.0
H187 H 0.11874 0.89907 0.61841 0.0
O188 O 0.04612 0.9775 0.46709 0.0
O189 O 0.044 0.98379 0.5545 0.0
O190 O 0.00461 0.98717 0.57494 0.0
O191 O 0.03152 0.93779 0.482 0.0
O192 O 0.03936 0.01235 0.49807 0.0
O193 O 0.0286 0.03532 0.53913 0.0
O194 O 0.96515 0.03818 0.58114 0.0
O195 O 0.98761 0.03114 0.49489 0.0
O196 O 0.9886 0.98794 0.48112 0.0
O197 O 0.00871 0.04459 0.58279 0.0
O198 O 0.97586 0.9811 0.55462 0.0
O199 O 0.98287 0.96295 0.50944 0.0
C200 C 0.03125 0.98283 0.57929 0.0
C201 C 0.07164 0.94002 0.4579 0.0
C202 C 0.10558 0.93381 0.42335 0.0
C203 C 0.12212 0.91797 0.44948 0.0
C204 C 0.0881 0.9234 0.48336 0.0
C205 C 0.11333 0.91274 0.47924 0.0
C206 C 0.08035 0.94495 0.42779 0.0
C207 C 0.04303 0.03225 0.51601 0.0
C208 C 0.04541 0.95219 0.46239 0.0
C209 C 0.07604 0.88921 0.6047 0.0
C210 C 0.09944 0.90535 0.60275 0.0
C211 C 0.98186 0.01396 0.47399 0.0
C212 C 0.98347 0.07599 0.60491 0.0
C213 C 0.96621 0.10318 0.64133 0.0
C214 C 0.97875 0.12621 0.62698 0.0
C215 C 0.99588 0.0992 0.59087 0.0
C216 C 0.96849 0.07817 0.62992 0.0
C217 C 0.99333 0.12421 0.60177 0.0
C218 C 0.96866 0.96486 0.53285 0.0
C219 C 0.98704 0.04892 0.59553 0.0
H220 H 0.1415 0.90895 0.44664 0.0
H221 H 0.08143 0.91839 0.50637 0.0
H222 H 0.12593 0.90009 0.49908 0.0
H223 H 0.06754 0.95744 0.4079 0.0
H224 H 0.9772 0.14576 0.63521 0.0
H225 H 0.00786 0.09799 0.5719 0.0
H226 H 0.95934 0.06014 0.64121 0.0
H227 H 1.00297 0.14204 0.5909 0.0
Tb228 Tb 0.47449 0.48746 0.99003 0.0
C229 C 0.59046 0.52396 0.03593 0.0
N230 N 0.57753 0.50188 0.049 0.0
C231 C 0.61816 0.47433 0.05132 0.0
C232 C 0.61728 0.5218 0.0285 0.0
C233 C 0.59168 0.47764 0.05856 0.0
C234 C 0.63082 0.49637 0.03559 0.0
C235 C 0.5908 0.57298 0.02093 0.0
C236 C 0.57755 0.54918 0.03226 0.0
C237 C 0.61691 0.57082 0.01185 0.0
C238 C 0.63012 0.54526 0.01559 0.0
Tb239 Tb 0.53363 0.50979 0.05811 0.0
N240 N 0.55208 0.55037 0.04065 0.0
C241 C 0.57763 0.59819 0.01981 0.0
C242 C 0.53988 0.57491 0.04158 0.0
C243 C 0.55226 0.59917 0.03068 0.0
H244 H 0.58292 0.46088 0.07242 0.0
H245 H 0.54225 0.61858 0.03065 0.0
H246 H 0.42147 0.52173 1.00387 0.0
H247 H 0.48886 0.38044 0.98207 0.0
H248 H 0.52038 0.57564 0.05016 0.0
H249 H 0.58713 0.617 0.0113 0.0
H250 H 0.49934 0.42905 0.97305 0.0
H251 H 0.62897 0.45491 0.05854 0.0
H252 H 0.62734 0.58883 1.00269 0.0
H253 H 0.6506 0.54396 0.0094 0.0
H254 H 0.37636 0.51151 0.02129 0.0
H255 H 0.65149 0.49388 0.03039 0.0
H256 H 0.44729 0.36539 0.00521 0.0
N257 N 0.43335 0.48006 0.00764 0.0
C258 C 0.42545 0.45374 0.01238 0.0
C259 C 0.39008 0.49507 0.01915 0.0
C260 C 0.39969 0.44696 0.02158 0.0
C261 C 0.4157 0.5008 0.00958 0.0
C262 C 0.38212 0.468 0.02546 0.0
N263 N 0.46664 0.44154 0.9956 0.0
C264 C 0.48235 0.42283 0.98541 0.0
C265 C 0.43516 0.40623 0.01047 0.0
C266 C 0.44294 0.43376 0.00676 0.0
C267 C 0.45249 0.38676 1.00262 0.0
C268 C 0.476 0.39517 0.98964 0.0
H269 H 0.36215 0.4636 0.03258 0.0
H270 H 0.37193 0.41404 0.03166 0.0
H271 H 0.40335 0.37819 0.02313 0.0
O272 O 0.4569 0.4743 0.94598 0.0
O273 O 0.46808 0.48342 0.04059 0.0
O274 O 0.51109 0.4725 0.06988 0.0
O275 O 0.45528 0.51701 0.95269 0.0
O276 O 0.51582 0.46829 0.99546 0.0
O277 O 0.53515 0.4671 0.04915 0.0
O278 O 0.52285 0.52556 0.09787 0.0
O279 O 0.52646 0.53209 0.00871 0.0
O280 O 0.51456 0.49907 0.9769 0.0
O281 O 0.56306 0.50782 0.10033 0.0
O282 O 0.49241 0.5283 0.05318 0.0
O283 O 0.4732 0.52975 0.9994 0.0
C284 C 0.48405 0.47042 0.06593 0.0
C285 C 0.43345 0.50617 0.9006 0.0
C286 C 0.41886 0.49542 0.84607 0.0
C287 C 0.40359 0.52012 0.83836 0.0
C288 C 0.41831 0.53081 0.89217 0.0
C289 C 0.40342 0.53764 0.86124 0.0
C290 C 0.43369 0.48855 0.87748 0.0
C291 C 0.53282 0.45747 0.02148 0.0
C292 C 0.44873 0.49894 0.93353 0.0
C293 C 0.39196 0.41958 0.02553 0.0
C294 C 0.40979 0.3992 0.0204 0.0
C295 C 0.52703 0.52184 0.98205 0.0
C296 C 0.54469 0.50433 0.14848 0.0
C297 C 0.54758 0.50668 0.20591 0.0
C298 C 0.54297 0.47843 0.211 0.0
C299 C 0.54011 0.47629 0.15403 0.0
C300 C 0.54802 0.51944 0.17425 0.0
C301 C 0.53907 0.46346 0.18518 0.0
C302 C 0.47608 0.53948 0.02697 0.0
C303 C 0.54628 0.51835 0.11611 0.0
H304 H 0.39154 0.52585 0.81467 0.0
H305 H 0.41774 0.54468 0.90957 0.0
H306 H 0.3916 0.55658 0.855 0.0
H307 H 0.44588 0.46982 0.88378 0.0
H308 H 0.5429 0.4677 0.23496 0.0
H309 H 0.53755 0.46437 0.13436 0.0
H310 H 0.55087 0.54122 0.16942 0.0
H311 H 0.53558 0.44177 0.1894 0.0
H312 H 0.24487 0.18116 0.43284 0.0
H313 H 0.20673 0.14976 0.43872 0.0
H314 H 0.19493 0.18067 0.52537 0.0
H315 H 0.23254 0.21237 0.51942 0.0
H316 H 0.1946 0.12531 0.53324 0.0
H317 H 0.15117 0.19928 0.45616 0.0
H318 H 0.14542 0.23183 0.406 0.0
H319 H 0.13648 0.16552 0.35046 0.0
H320 H 0.14257 0.13255 0.40034 0.0
H321 H 0.06331 0.07163 0.5523 0.0
H322 H 0.10062 0.10315 0.54333 0.0
H323 H 0.11011 0.06933 0.45773 0.0
H324 H 0.0727 0.03785 0.46629 0.0
H325 H 0.1121 0.12507 0.44845 0.0
H326 H 0.15455 0.05108 0.52484 0.0
H327 H 0.15965 0.01819 0.57468 0.0
H328 H 0.17047 0.08385 0.63109 0.0
H329 H 0.16499 0.1172 0.58157 0.0
C330 C 0.23398 0.18149 0.45297 0.0
C331 C 0.24192 0.19927 0.47571 0.0
C332 C 0.21223 0.16346 0.45635 0.0
C333 C 0.19791 0.16291 0.48246 0.0
C334 C 0.20579 0.18059 0.50517 0.0
C335 C 0.22742 0.19864 0.50176 0.0
C336 C 0.17474 0.14392 0.48631 0.0
C337 C 0.17643 0.12548 0.51485 0.0
C338 C 0.15131 0.14366 0.462 0.0
C339 C 0.14764 0.16345 0.43199 0.0
C340 C 0.14823 0.19163 0.43326 0.0
C341 C 0.14486 0.21016 0.40488 0.0
C342 C 0.14067 0.20075 0.37506 0.0
C343 C 0.13978 0.17278 0.37357 0.0
C344 C 0.14317 0.15417 0.40189 0.0
C345 C 0.07319 0.07094 0.53145 0.0
C346 C 0.06502 0.05207 0.51011 0.0
C347 C 0.09461 0.08893 0.52643 0.0
C348 C 0.10833 0.08841 0.50002 0.0
C349 C 0.09983 0.07006 0.47828 0.0
C350 C 0.07848 0.05199 0.48332 0.0
C351 C 0.13191 0.10665 0.49545 0.0
C352 C 0.13032 0.12488 0.46679 0.0
C353 C 0.15547 0.10666 0.51959 0.0
C354 C 0.15911 0.08666 0.54947 0.0
C355 C 0.1578 0.05853 0.54786 0.0
C356 C 0.16077 0.03979 0.57605 0.0
C357 C 0.1653 0.04891 0.60601 0.0
C358 C 0.16692 0.0768 0.60786 0.0
C359 C 0.16391 0.09564 0.57973 0.0
H360 H 0.16765 0.03433 0.62777 0.0
H361 H 0.13806 0.21512 0.35311 0.0
H362 H 0.32282 0.73442 0.07793 0.0
H363 H 0.35197 0.69428 0.07894 0.0
H364 H 0.38049 0.7318 0.99282 0.0
H365 H 0.35212 0.7723 0.99209 0.0
H366 H 0.36157 0.67885 0.98939 0.0
H367 H 0.4225 0.72735 0.0622 0.0
H368 H 0.43549 0.75039 0.11002 0.0
H369 H 0.42111 0.67702 0.17129 0.0
H370 H 0.40759 0.65367 0.1238 0.0
H371 H 0.46473 0.58323 0.98051 0.0
H372 H 0.43953 0.62503 0.98331 0.0
H373 H 0.42613 0.59294 0.0792 0.0
H374 H 0.45293 0.55186 0.0771 0.0
H375 H 0.43662 0.64314 0.07828 0.0
H376 H 0.37501 0.59411 0.00846 0.0
H377 H 0.36158 0.56929 0.96219 0.0
H378 H 0.37425 0.64106 0.89736 0.0
H379 H 0.38822 0.66619 0.94329 0.0
C380 C 0.3357 0.73439 0.05956 0.0
C381 C 0.33498 0.75658 0.03482 0.0
C382 C 0.35224 0.71137 0.0601 0.0
C383 C 0.36833 0.71009 0.03592 0.0
C384 C 0.36807 0.73234 0.01157 0.0
C385 C 0.35173 0.75541 0.01113 0.0
C386 C 0.38466 0.68519 0.03523 0.0
C387 C 0.37821 0.67116 0.00864 0.0
C388 C 0.40571 0.67476 0.06085 0.0
C389 C 0.41373 0.68885 0.0894 0.0
C390 C 0.42183 0.71621 0.08584 0.0
C391 C 0.42934 0.72931 0.1129 0.0
C392 C 0.42904 0.7152 0.14367 0.0
C393 C 0.42128 0.68795 0.14745 0.0
C394 C 0.4137 0.67477 0.12047 0.0
C395 C 0.45633 0.58517 1.00211 0.0
C396 C 0.46049 0.56438 0.02849 0.0
C397 C 0.44183 0.60898 1.00368 0.0
C398 C 0.4303 0.61195 0.03119 0.0
C399 C 0.43474 0.59117 0.05769 0.0
C400 C 0.44994 0.56769 0.05646 0.0
C401 C 0.41362 0.63667 0.03236 0.0
C402 C 0.41994 0.65067 0.05904 0.0
C403 C 0.39205 0.64681 0.00708 0.0
C404 C 0.38287 0.63197 0.97935 0.0
C405 C 0.37503 0.60457 0.98435 0.0
C406 C 0.36734 0.59044 0.95818 0.0
C407 C 0.36712 0.60358 0.92686 0.0
C408 C 0.37446 0.63091 0.92164 0.0
C409 C 0.38224 0.64511 0.94773 0.0
H410 H 0.36123 0.59259 0.90663 0.0
H411 H 0.43489 0.72537 0.16458 0.0
H412 H 0.74699 0.82393 0.52928 0.0
H413 H 0.7849 0.85522 0.52254 0.0
H414 H 0.83046 0.81801 0.61355 0.0
H415 H 0.79272 0.78628 0.62031 0.0
H416 H 0.8327 0.87471 0.60485 0.0
H417 H 0.8462 0.80106 0.54527 0.0
H418 H 0.83161 0.77041 0.50503 0.0
H419 H 0.81678 0.83919 0.43053 0.0
H420 H 0.83092 0.87029 0.47041 0.0
H421 H 0.96196 0.93241 0.58768 0.0
H422 H 0.92436 0.90101 0.59591 0.0
H423 H 0.88624 0.92434 0.49687 0.0
H424 H 0.9252 0.95415 0.48818 0.0
H425 H 0.87963 0.8743 0.51009 0.0
H426 H 0.86257 0.94824 0.5662 0.0
H427 H 0.87481 0.98133 0.60428 0.0
H428 H 0.8924 0.91566 0.6824 0.0
H429 H 0.88069 0.88227 0.64466 0.0
C430 C 0.76511 0.82229 0.54783 0.0
C431 C 0.76693 0.80236 0.57518 0.0
C432 C 0.78672 0.84026 0.54397 0.0
C433 C 0.81066 0.83867 0.56731 0.0
C434 C 0.81217 0.81953 0.59521 0.0
C435 C 0.79054 0.80148 0.59908 0.0
C436 C 0.83437 0.85655 0.56218 0.0
C437 C 0.84322 0.87443 0.58436 0.0
C438 C 0.84752 0.85674 0.53492 0.0
C439 C 0.8394 0.83801 0.51088 0.0
C440 C 0.83967 0.80966 0.52034 0.0
C441 C 0.83149 0.7922 0.49759 0.0
C442 C 0.82321 0.80285 0.46526 0.0
C443 C 0.82317 0.83097 0.45558 0.0
C444 C 0.83129 0.84852 0.47825 0.0
C445 C 0.94554 0.93065 0.56773 0.0
C446 C 0.94624 0.94561 0.53737 0.0
C447 C 0.9239 0.91293 0.57247 0.0
C448 C 0.90187 0.91077 0.54729 0.0
C449 C 0.90285 0.92561 0.51677 0.0
C450 C 0.92504 0.94264 0.51176 0.0
C451 C 0.87805 0.89282 0.55267 0.0
C452 C 0.86917 0.87479 0.53058 0.0
C453 C 0.8645 0.89288 0.5797 0.0
C454 C 0.87109 0.91284 0.60257 0.0
C455 C 0.86927 0.94094 0.59147 0.0
C456 C 0.87608 0.95971 0.61298 0.0
C457 C 0.88447 0.95059 0.64572 0.0
C458 C 0.88595 0.92269 0.65703 0.0
C459 C 0.87921 0.90384 0.63559 0.0
H460 H 0.88975 0.96515 0.66234 0.0
H461 H 0.81688 0.7893 0.44768 0.0
H462 H 0.67412 0.23649 0.05641 0.0
H463 H 0.64284 0.27481 0.05441 0.0
H464 H 0.65605 0.30461 0.95792 0.0
H465 H 0.68909 0.2673 0.96065 0.0
H466 H 0.65949 0.34459 0.98995 0.0
H467 H 0.59305 0.27533 0.9761 0.0
H468 H 0.57122 0.23091 0.98743 0.0
H469 H 0.5596 0.24943 0.07994 0.0
H470 H 0.58171 0.29382 0.06936 0.0
H471 H 0.55196 0.44554 0.96842 0.0
H472 H 0.57982 0.4059 0.96387 0.0
H473 H 0.58123 0.37675 0.06453 0.0
H474 H 0.55296 0.41625 0.06909 0.0
H475 H 0.56821 0.33664 0.0261 0.0
H476 H 0.64283 0.4025 0.04111 0.0
H477 H 0.66627 0.44593 0.02853 0.0
H478 H 0.65901 0.43364 0.92974 0.0
H479 H 0.63644 0.38965 0.94199 0.0
C480 C 0.67055 0.25123 0.03477 0.0
C481 C 0.68445 0.24887 0.00882 0.0
C482 C 0.65221 0.27296 0.03346 0.0
C483 C 0.64672 0.29251 0.00585 0.0
C484 C 0.65988 0.28977 0.97948 0.0
C485 C 0.67858 0.26822 0.98095 0.0
C486 C 0.62881 0.31674 0.00549 0.0
C487 C 0.63929 0.34272 0.99726 0.0
C488 C 0.60261 0.31452 0.01554 0.0
C489 C 0.58925 0.28784 0.02202 0.0
C490 C 0.58603 0.26986 0.99896 0.0
C491 C 0.57357 0.24469 0.00523 0.0
C492 C 0.56408 0.23733 0.03441 0.0
C493 C 0.56698 0.25515 0.05735 0.0
C494 C 0.57944 0.28033 0.05121 0.0
C495 C 0.55823 0.43067 0.98958 0.0
C496 C 0.55032 0.43391 0.01912 0.0
C497 C 0.57431 0.40816 0.987 0.0
C498 C 0.5828 0.38851 0.01393 0.0
C499 C 0.57494 0.39173 0.04348 0.0
C500 C 0.55893 0.41431 0.0461 0.0
C501 C 0.59917 0.36418 0.01103 0.0
C502 C 0.58833 0.33828 0.01857 0.0
C503 C 0.62483 0.36639 0.99992 0.0
C504 C 0.63774 0.39303 0.99238 0.0
C505 C 0.6461 0.40918 0.01668 0.0
C506 C 0.65929 0.43382 0.00964 0.0
C507 C 0.66377 0.44272 0.97829 0.0
C508 C 0.65542 0.42679 0.95398 0.0
C509 C 0.64264 0.40191 0.961 0.0
H510 H 0.67387 0.46188 0.9729 0.0
H511 H 0.55444 0.21784 0.03922 0.0
H512 H 0.23245 0.91849 0.18377 0.0
H513 H 0.21577 0.93 0.23148 0.0
H514 H 0.13366 0.90551 0.19402 0.0
H515 H 0.15014 0.89451 0.14603 0.0
H516 H 0.1309 0.95061 0.22023 0.0
H517 H 0.17791 0.86348 0.25232 0.0
H518 H 0.21726 0.83116 0.25932 0.0
H519 H 0.26699 0.88156 0.31937 0.0
H520 H 0.22803 0.91437 0.31238 0.0
H521 H 0.07485 0.92608 0.36597 0.0
H522 H 0.09112 0.92572 0.31467 0.0
H523 H 0.1722 0.94916 0.35726 0.0
H524 H 0.15612 0.94887 0.40878 0.0
H525 H 0.17649 0.9072 0.32805 0.0
H526 H 0.12763 0.99298 0.29885 0.0
H527 H 0.08772 0.02459 0.29195 0.0
H528 H 0.04072 0.97635 0.2269 0.0
H529 H 0.08023 0.94424 0.23373 0.0
C530 C 0.21086 0.91553 0.18579 0.0
C531 C 0.19262 0.90547 0.1613 0.0
C532 C 0.20135 0.92212 0.21302 0.0
C533 C 0.17353 0.91827 0.21655 0.0
C534 C 0.15518 0.9087 0.19182 0.0
C535 C 0.16462 0.9024 0.16443 0.0
C536 C 0.16365 0.92346 0.24636 0.0
C537 C 0.14069 0.94096 0.24382 0.0
C538 C 0.17678 0.91131 0.27717 0.0
C539 C 0.20015 0.89151 0.28156 0.0
C540 C 0.1973 0.86776 0.26684 0.0
C541 C 0.21952 0.84934 0.27083 0.0
C542 C 0.24463 0.85434 0.28971 0.0
C543 C 0.24755 0.87773 0.30472 0.0
C544 C 0.2254 0.89624 0.30077 0.0
C545 C 0.09597 0.93172 0.36414 0.0
C546 C 0.11428 0.9374 0.39132 0.0
C547 C 0.10525 0.93157 0.3348 0.0
C548 C 0.13288 0.93757 0.332 0.0
C549 C 0.15084 0.94437 0.35885 0.0
C550 C 0.14166 0.94421 0.38824 0.0
C551 C 0.1437 0.93443 0.30206 0.0
C552 C 0.16681 0.91716 0.30455 0.0
C553 C 0.13061 0.94672 0.27126 0.0
C554 C 0.10684 0.96608 0.26702 0.0
C555 C 0.10872 0.989 0.28326 0.0
C556 C 0.08617 0.00703 0.27932 0.0
C557 C 0.06168 0.00245 0.25905 0.0
C558 C 0.0597 0.97986 0.24261 0.0
C559 C 0.08218 0.96176 0.24647 0.0
H560 H 0.04425 0.01643 0.25604 0.0
H561 H 0.26182 0.84006 0.29276 0.0
H562 H 0.61598 0.68423 0.75443 0.0
H563 H 0.60051 0.66249 0.8037 0.0
H564 H 0.60552 0.58391 0.77233 0.0
H565 H 0.62083 0.60545 0.7232 0.0
H566 H 0.55811 0.58955 0.7927 0.0
H567 H 0.65373 0.60432 0.83267 0.0
H568 H 0.69582 0.63129 0.84282 0.0
H569 H 0.65488 0.68042 0.89706 0.0
H570 H 0.6124 0.65395 0.88684 0.0
H571 H 0.54728 0.50129 0.93443 0.0
H572 H 0.56594 0.52645 0.88929 0.0
H573 H 0.55372 0.60193 0.92504 0.0
H574 H 0.53476 0.57679 0.97016 0.0
H575 H 0.60336 0.60027 0.9032 0.0
H576 H 0.50815 0.58326 0.86488 0.0
H577 H 0.46696 0.55491 0.85545 0.0
H578 H 0.50792 0.50904 0.79795 0.0
H579 H 0.54958 0.53672 0.80751 0.0
C580 C 0.61409 0.66229 0.75826 0.0
C581 C 0.61947 0.64659 0.73482 0.0
C582 C 0.60524 0.64988 0.78641 0.0
C583 C 0.60193 0.62152 0.79181 0.0
C584 C 0.60773 0.60582 0.76865 0.0
C585 C 0.61643 0.61819 0.74052 0.0
C586 C 0.59159 0.60809 0.82098 0.0
C587 C 0.56823 0.59167 0.81684 0.0
C588 C 0.60428 0.61141 0.85253 0.0
C589 C 0.62979 0.62736 0.85867 0.0
C590 C 0.65362 0.62103 0.84652 0.0
C591 C 0.67756 0.63619 0.85233 0.0
C592 C 0.67799 0.65761 0.87049 0.0
C593 C 0.6545 0.66386 0.88294 0.0
C594 C 0.63049 0.64877 0.87717 0.0
C595 C 0.54863 0.52325 0.93271 0.0
C596 C 0.53966 0.5371 0.95587 0.0
C597 C 0.55931 0.53759 0.90693 0.0
C598 C 0.56091 0.56611 0.90357 0.0
C599 C 0.5527 0.57994 0.92718 0.0
C600 C 0.54201 0.56555 0.95302 0.0
C601 C 0.57024 0.58143 0.87479 0.0
C602 C 0.59325 0.59827 0.87901 0.0
C603 C 0.55729 0.57842 0.84326 0.0
C604 C 0.5321 0.56194 0.83715 0.0
C605 C 0.50847 0.567 0.85042 0.0
C606 C 0.48503 0.55105 0.84504 0.0
C607 C 0.48489 0.53017 0.82617 0.0
C608 C 0.50812 0.5252 0.81258 0.0
C609 C 0.53164 0.54102 0.81797 0.0
H610 H 0.46678 0.51788 0.82198 0.0
H611 H 0.69656 0.66932 0.87498 0.0
H612 H 0.86366 0.13784 0.19854 0.0
H613 H 0.88629 0.12232 0.25368 0.0
H614 H 0.87974 0.03892 0.23567 0.0
H615 H 0.85672 0.05433 0.18043 0.0
H616 H 0.86411 0.04747 0.29461 0.0
H617 H 0.93994 0.06865 0.23595 0.0
H618 H 0.96604 0.09826 0.20032 0.0
H619 H 0.97517 0.15698 0.26623 0.0
H620 H 0.9488 0.12787 0.30206 0.0
H621 H 0.95587 0.98395 0.42933 0.0
H622 H 0.93232 1.00048 0.37504 0.0
H623 H 0.95105 0.08322 0.39031 0.0
H624 H 0.97623 0.06659 0.44389 0.0
H625 H 0.9594 0.07618 0.3331 0.0
H626 H 0.88581 0.05646 0.39283 0.0
H627 H 0.85954 0.02843 0.42966 0.0
H628 H 0.84453 0.96998 0.36373 0.0
H629 H 0.87111 0.99741 0.32668 0.0
C630 C 0.86689 0.11618 0.20637 0.0
C631 C 0.85843 0.09728 0.18517 0.0
C632 C 0.87994 0.10737 0.23781 0.0
C633 C 0.88479 0.07949 0.24866 0.0
C634 C 0.87617 0.06053 0.2277 0.0
C635 C 0.86326 0.06935 0.19613 0.0
C636 C 0.89915 0.07022 0.28181 0.0
C637 C 0.88506 0.05343 0.30298 0.0
C638 C 0.92612 0.07881 0.29293 0.0
C639 C 0.94218 0.0962 0.27153 0.0
C640 C 0.94734 0.08797 0.24273 0.0
C641 C 0.96221 0.10464 0.22252 0.0
C642 C 0.9722 0.12951 0.23096 0.0
C643 C 0.9674 0.13772 0.2597 0.0
C644 C 0.95252 0.12113 0.27998 0.0
C645 C 0.95506 0.00567 0.42112 0.0
C646 C 0.96744 0.02406 0.4412 0.0
C647 C 0.94137 0.01511 0.39015 0.0
C648 C 0.93938 0.04315 0.3788 0.0
C649 C 0.95208 0.06151 0.39863 0.0
C650 C 0.96614 0.05203 0.42945 0.0
C651 C 0.92448 0.0532 0.34602 0.0
C652 C 0.93841 0.07021 0.32488 0.0
C653 C 0.8972 0.04516 0.33513 0.0
C654 C 0.88065 0.02891 0.35705 0.0
C655 C 0.87704 0.03756 0.38623 0.0
C656 C 0.8621 0.02178 0.40717 0.0
C657 C 0.85044 0.99743 0.39907 0.0
C658 C 0.8536 0.98885 0.36997 0.0
C659 C 0.86858 0.00452 0.34897 0.0
H660 H 0.8389 0.98523 0.41533 0.0
H661 H 0.9837 0.1424 0.21528 0.0
H662 H 0.39885 0.31979 0.64267 0.0
H663 H 0.40954 0.3418 0.69107 0.0
H664 H 0.40439 0.4205 0.63231 0.0
H665 H 0.39335 0.39875 0.58389 0.0
H666 H 0.44841 0.41635 0.68221 0.0
H667 H 0.35029 0.39683 0.66702 0.0
H668 H 0.31037 0.36651 0.66045 0.0
H669 H 0.34116 0.31923 0.7518 0.0
H670 H 0.38149 0.34909 0.7587 0.0
H671 H 0.42117 0.51025 0.78212 0.0
H672 H 0.42059 0.48089 0.74083 0.0
H673 H 0.41905 0.40998 0.81198 0.0
H674 H 0.41828 0.43941 0.85341 0.0
H675 H 0.38287 0.4051 0.76028 0.0
H676 H 0.47799 0.42683 0.77922 0.0
H677 H 0.51847 0.45632 0.78676 0.0
H678 H 0.49526 0.49777 0.69049 0.0
H679 H 0.45442 0.46875 0.68248 0.0
C680 C 0.39995 0.34179 0.64004 0.0
C681 C 0.39504 0.35751 0.60937 0.0
C682 C 0.40618 0.35432 0.66772 0.0
C683 C 0.4075 0.3828 0.66529 0.0
C684 C 0.40356 0.39848 0.63472 0.0
C685 C 0.39731 0.38599 0.60705 0.0
C686 C 0.41166 0.3965 0.69448 0.0
C687 C 0.43402 0.41405 0.69921 0.0
C688 C 0.3934 0.39276 0.71722 0.0
C689 C 0.36903 0.375 0.71321 0.0
C690 C 0.34864 0.37985 0.68559 0.0
C691 C 0.32593 0.36277 0.68183 0.0
C692 C 0.32327 0.34091 0.70565 0.0
C693 C 0.34327 0.33614 0.73335 0.0
C694 C 0.36605 0.35314 0.73721 0.0
C695 C 0.42047 0.48843 0.78907 0.0
C696 C 0.41965 0.47725 0.82117 0.0
C697 C 0.42056 0.47161 0.76544 0.0
C698 C 0.42021 0.44317 0.77334 0.0
C699 C 0.4195 0.43186 0.80535 0.0
C700 C 0.41928 0.44873 0.82905 0.0
C701 C 0.41934 0.4255 0.74776 0.0
C702 C 0.39758 0.40717 0.74364 0.0
C703 C 0.43832 0.42835 0.72577 0.0
C704 C 0.46302 0.44571 0.73033 0.0
C705 C 0.48142 0.44234 0.75971 0.0
C706 C 0.50445 0.45894 0.76405 0.0
C707 C 0.50941 0.47893 0.73914 0.0
C708 C 0.49139 0.48228 0.70977 0.0
C709 C 0.46832 0.46572 0.70529 0.0
H710 H 0.52722 0.49181 0.74258 0.0
H711 H 0.30568 0.3277 0.70269 0.0
H712 H 0.59158 0.60646 0.47383 0.0
H713 H 0.5763 0.58266 0.42802 0.0
H714 H 0.60739 0.64727 0.36519 0.0
H715 H 0.62098 0.67223 0.41057 0.0
H716 H 0.56134 0.631 0.33551 0.0
H717 H 0.64378 0.58569 0.39372 0.0
H718 H 0.67496 0.56239 0.44103 0.0
H719 H 0.61626 0.49863 0.45197 0.0
H720 H 0.58454 0.52175 0.40495 0.0
H721 H 0.58179 0.5503 0.21314 0.0
H722 H 0.58953 0.57668 0.25784 0.0
H723 H 0.53419 0.52519 0.30704 0.0
H724 H 0.52478 0.49955 0.26154 0.0
H725 H 0.59099 0.53442 0.3431 0.0
H726 H 0.50974 0.58165 0.28033 0.0
H727 H 0.48209 0.60591 0.2309 0.0
H728 H 0.54394 0.66725 0.22591 0.0
H729 H 0.57218 0.64311 0.27506 0.0
C730 C 0.59471 0.61597 0.45023 0.0
C731 C 0.60772 0.6413 0.44609 0.0
C732 C 0.58628 0.60209 0.42404 0.0
C733 C 0.59122 0.61284 0.3932 0.0
C734 C 0.60352 0.63842 0.38878 0.0
C735 C 0.6116 0.65253 0.41489 0.0
C736 C 0.58407 0.59717 0.36574 0.0
C737 C 0.56809 0.60997 0.33712 0.0
C738 C 0.59262 0.56962 0.36779 0.0
C739 C 0.61166 0.5556 0.39602 0.0
C740 C 0.63743 0.5668 0.40636 0.0
C741 C 0.65521 0.55362 0.4331 0.0
C742 C 0.64756 0.52909 0.44955 0.0
C743 C 0.62214 0.51765 0.43923 0.0
C744 C 0.60425 0.53078 0.41253 0.0
C745 C 0.57067 0.54483 0.23301 0.0
C746 C 0.55247 0.52273 0.23342 0.0
C747 C 0.57535 0.55987 0.25869 0.0
C748 C 0.56234 0.5529 0.28557 0.0
C749 C 0.54442 0.53081 0.28642 0.0
C750 C 0.53927 0.51605 0.26045 0.0
C751 C 0.56825 0.56825 0.31322 0.0
C752 C 0.58413 0.55539 0.34173 0.0
C753 C 0.56015 0.59588 0.31079 0.0
C754 C 0.54322 0.6104 0.28119 0.0
C755 C 0.51759 0.60015 0.26851 0.0
C756 C 0.50178 0.61392 0.24058 0.0
C757 C 0.51129 0.63806 0.22522 0.0
C758 C 0.53662 0.64852 0.2378 0.0
C759 C 0.55253 0.63481 0.26571 0.0
H760 H 0.499 0.64871 0.20362 0.0
H761 H 0.66136 0.5189 0.47024 0.0
H762 H 0.81042 0.10528 0.86058 0.0
H763 H 0.83157 0.10074 0.81313 0.0
H764 H 0.90894 0.12869 0.86037 0.0
H765 H 0.88794 0.1334 0.90769 0.0
H766 H 0.8929 0.15511 0.79777 0.0
H767 H 0.90201 0.06321 0.85435 0.0
H768 H 0.88469 0.02045 0.88049 0.0
H769 H 0.83204 0.01014 0.79211 0.0
H770 H 0.84876 0.05306 0.76555 0.0
H771 H 0.98453 0.12603 0.69533 0.0
H772 H 0.96096 0.12836 0.74124 0.0
H773 H 0.89109 0.08706 0.69524 0.0
H774 H 0.91515 0.08389 0.64969 0.0
H775 H 0.90069 0.06759 0.75575 0.0
H776 H 0.89059 0.15773 0.69818 0.0
H777 H 0.90568 0.20098 0.67066 0.0
H778 H 0.95661 0.21579 0.75841 0.0
H779 H 0.94212 0.17243 0.78637 0.0
C780 C 0.83193 0.11044 0.86081 0.0
C781 C 0.84755 0.11962 0.88788 0.0
C782 C 0.84402 0.10769 0.83379 0.0
C783 C 0.87186 0.11426 0.83332 0.0
C784 C 0.88745 0.12347 0.86028 0.0
C785 C 0.87548 0.12596 0.88737 0.0
C786 C 0.88468 0.11221 0.80449 0.0
C787 C 0.89491 0.13594 0.78875 0.0
C788 C 0.8864 0.08735 0.79214 0.0
C789 C 0.87641 0.0615 0.80807 0.0
C790 C 0.88656 0.05195 0.84057 0.0
C791 C 0.87689 0.02766 0.85545 0.0
C792 C 0.85722 0.01263 0.838 0.0
C793 C 0.84724 0.02182 0.80561 0.0
C794 C 0.85682 0.04612 0.79063 0.0
C795 C 0.96406 0.11763 0.69495 0.0
C796 C 0.95156 0.10499 0.66885 0.0
C797 C 0.95055 0.119 0.72116 0.0
C798 C 0.92396 0.10836 0.72151 0.0
C799 C 0.91155 0.09548 0.69556 0.0
C800 C 0.92526 0.09372 0.66953 0.0
C801 C 0.90928 0.11052 0.74908 0.0
C802 C 0.89862 0.08684 0.76457 0.0
C803 C 0.90678 0.13553 0.76098 0.0
C804 C 0.91544 0.16171 0.74429 0.0
C805 C 0.90515 0.17012 0.71156 0.0
C806 C 0.91358 0.19466 0.69589 0.0
C807 C 0.93214 0.21109 0.71276 0.0
C808 C 0.94226 0.20303 0.74536 0.0
C809 C 0.93392 0.17849 0.76114 0.0
H810 H 0.93864 0.23009 0.70058 0.0
H811 H 0.84976 0.99383 0.84956 0.0
H812 H 0.42079 0.32517 0.31969 0.0
H813 H 0.43822 0.34639 0.27126 0.0
H814 H 0.38255 0.41494 0.2636 0.0
H815 H 0.36549 0.3941 0.31232 0.0
H816 H 0.38267 0.39001 0.20497 0.0
H817 H 0.44442 0.42576 0.28884 0.0
H818 H 0.47809 0.42258 0.33909 0.0
H819 H 0.53356 0.3757 0.29884 0.0
H820 H 0.50001 0.37823 0.2485 0.0
H821 H 0.43341 0.4791 0.08229 0.0
H822 H 0.41501 0.45684 0.12917 0.0
H823 H 0.48805 0.405 0.15602 0.0
H824 H 0.5068 0.42789 0.10975 0.0
H825 H 0.47891 0.42156 0.20614 0.0
H826 H 0.41839 0.37842 0.12783 0.0
H827 H 0.38384 0.37308 0.08015 0.0
H828 H 0.32788 0.42753 0.1091 0.0
H829 H 0.36189 0.4326 0.15743 0.0
C830 C 0.41227 0.34473 0.30758 0.0
C831 C 0.39181 0.35802 0.31967 0.0
C832 C 0.42233 0.35688 0.28011 0.0
C833 C 0.41176 0.38229 0.26402 0.0
C834 C 0.39102 0.39538 0.27577 0.0
C835 C 0.38135 0.3835 0.30356 0.0
C836 C 0.42184 0.39494 0.23446 0.0
C837 C 0.40361 0.39727 0.20519 0.0
C838 C 0.4494 0.40351 0.23473 0.0
C839 C 0.46954 0.4019 0.26504 0.0
C840 C 0.46365 0.4145 0.29082 0.0
C841 C 0.48276 0.41288 0.3193 0.0
C842 C 0.50791 0.39887 0.32219 0.0
C843 C 0.51404 0.3865 0.29659 0.0
C844 C 0.495 0.38804 0.26808 0.0
C845 C 0.44532 0.46268 0.09795 0.0
C846 C 0.4716 0.45533 0.09246 0.0
C847 C 0.43473 0.44982 0.12474 0.0
C848 C 0.44995 0.42893 0.14622 0.0
C849 C 0.47588 0.4211 0.14007 0.0
C850 C 0.4866 0.43419 0.11357 0.0
C851 C 0.43979 0.41644 0.17611 0.0
C852 C 0.45797 0.41427 0.20564 0.0
C853 C 0.41232 0.40741 0.17603 0.0
C854 C 0.39274 0.4061 0.14595 0.0
C855 C 0.39883 0.38946 0.12381 0.0
C856 C 0.37925 0.3863 0.09686 0.0
C857 C 0.3537 0.40002 0.09156 0.0
C858 C 0.34767 0.41691 0.11323 0.0
C859 C 0.367 0.41981 0.1405 0.0
H860 H 0.33857 0.39753 0.07066 0.0
H861 H 0.52268 0.39765 0.34425 0.0
H862 H 0.12794 0.91671 0.87946 0.0
H863 H 0.1024 0.93106 0.8254 0.0
H864 H 0.17926 0.94451 0.78918 0.0
H865 H 0.20501 0.93074 0.84342 0.0
H866 H 0.14039 0.98536 0.76399 0.0
H867 H 0.14554 0.88752 0.77884 0.0
H868 H 0.14 0.84126 0.80676 0.0
H869 H 0.05255 0.85581 0.7973 0.0
H870 H 0.05764 0.90233 0.76971 0.0
H871 H 0.08684 0.98739 0.59806 0.0
H872 H 0.11314 0.97665 0.65231 0.0
H873 H 0.03743 0.95734 0.68934 0.0
H874 H 0.01118 0.96686 0.63486 0.0
H875 H 0.07628 0.91977 0.71422 0.0
H876 H 0.07078 0.01726 0.69687 0.0
H877 H 0.07648 0.06337 0.66872 0.0
H878 H 0.16445 0.05029 0.68351 0.0
H879 H 0.15922 0.00375 0.71074 0.0
C880 C 0.13941 0.92312 0.86009 0.0
C881 C 0.16849 0.9225 0.86565 0.0
C882 C 0.12479 0.9311 0.82919 0.0
C883 C 0.13897 0.93852 0.80327 0.0
C884 C 0.16796 0.93875 0.80887 0.0
C885 C 0.18262 0.93069 0.83978 0.0
C886 C 0.1235 0.94519 0.77017 0.0
C887 C 0.12661 0.97096 0.75288 0.0
C888 C 0.10515 0.92651 0.75606 0.0
C889 C 0.10202 0.8985 0.7725 0.0
C890 C 0.12516 0.88093 0.78294 0.0
C891 C 0.1221 0.85465 0.79867 0.0
C892 C 0.09595 0.84563 0.80388 0.0
C893 C 0.0728 0.86284 0.79329 0.0
C894 C 0.07576 0.88916 0.77759 0.0
C895 C 0.07586 0.98053 0.6177 0.0
C896 C 0.04703 0.97759 0.61219 0.0
C897 C 0.09087 0.97472 0.64875 0.0
C898 C 0.07721 0.96642 0.67492 0.0
C899 C 0.04837 0.96371 0.66948 0.0
C900 C 0.03339 0.96931 0.63839 0.0
C901 C 0.09298 0.96008 0.70795 0.0
C902 C 0.08999 0.93428 0.72525 0.0
C903 C 0.1114 0.97879 0.72201 0.0
C904 C 0.11456 0.00684 0.70555 0.0
C905 C 0.09132 0.02407 0.69377 0.0
C906 C 0.09447 0.0503 0.67794 0.0
C907 C 0.1208 0.05971 0.67414 0.0
C908 C 0.14404 0.04293 0.68627 0.0
C909 C 0.14099 0.0166 0.70185 0.0
H910 H 0.12321 0.08003 0.66192 0.0
H911 H 0.09362 0.82527 0.81606 0.0
loop_
_geom_bond_atom_site_label_1
_geom_bond_atom_site_label_2
_geom_bond_distance
_geom_bond_site_symmetry_2
_ccdc_geom_bond_type
C0 C1 1.384 . S
C0 H13 0.947 . S
C0 C35 1.382 . S
C1 C0 1.384 . S
C1 C2 1.378 . S
C2 C1 1.378 . S
C2 C3 1.378 . S
C2 H14 0.952 . S
C3 C2 1.378 . S
C3 H15 0.950 . S
C3 C34 1.383 . S
H4 C23 0.947 . S
H5 C24 0.946 . S
H6 C26 0.953 1_556 S
H7 C27 0.945 . S
H8 C29 0.952 . S
H9 C30 0.949 . S
H10 C32 0.950 . S
H11 C33 0.948 . S
H12 C35 0.951 . S
H13 C0 0.947 . S
H14 C2 0.952 . S
H15 C3 0.950 . S
N16 C19 1.382 . S
N16 C21 1.363 . S
N17 C19 1.371 1_556 S
N17 C20 1.372 . S
N18 C20 1.361 1_554 S
N18 C21 1.377 . S
C19 N16 1.382 . S
C19 N17 1.371 1_554 S
C19 C22 1.480 . S
C20 N17 1.372 . S
C20 N18 1.361 1_556 S
C20 C28 1.457 . S
C21 N16 1.363 . S
C21 N18 1.377 . S
C21 C34 1.479 . S
C22 C19 1.480 . S
C22 C23 1.383 . S
C22 C27 1.385 1_554 S
C23 H4 0.947 . S
C23 C22 1.383 . S
C23 C24 1.388 . S
C24 H5 0.946 . S
C24 C23 1.388 . S
C24 C25 1.384 . S
C25 C24 1.384 . S
C25 C26 1.377 . S
C26 H6 0.953 1_554 S
C26 C25 1.377 . S
C26 C27 1.369 1_554 S
C27 H7 0.945 . S
C27 C22 1.385 1_556 S
C27 C26 1.369 1_556 S
C28 C20 1.457 . S
C28 C29 1.372 . S
C28 C33 1.364 . S
C29 H8 0.952 . S
C29 C28 1.372 . S
C29 C30 1.389 . S
C30 H9 0.949 . S
C30 C29 1.389 . S
C30 C31 1.387 . S
C31 C30 1.387 . S
C31 C32 1.372 . S
C32 H10 0.950 . S
C32 C31 1.372 . S
C32 C33 1.379 . S
C33 H11 0.948 . S
C33 C28 1.364 . S
C33 C32 1.379 . S
C34 C3 1.383 . S
C34 C21 1.479 . S
C34 C35 1.398 . S
C35 C0 1.382 . S
C35 H12 0.951 . S
C35 C34 1.398 . S
C36 C37 1.384 . S
C36 H49 0.947 . S
C36 C71 1.382 . S
C37 C36 1.384 . S
C37 C38 1.378 . S
C38 C37 1.378 . S
C38 C39 1.378 . S
C38 H50 0.952 . S
C39 C38 1.378 . S
C39 H51 0.950 . S
C39 C70 1.383 . S
H40 C59 0.947 . S
H41 C60 0.946 . S
H42 C62 0.953 . S
H43 C63 0.945 . S
H44 C65 0.952 . S
H45 C66 0.949 . S
H46 C68 0.950 . S
H47 C69 0.948 . S
H48 C71 0.951 . S
H49 C36 0.947 . S
H50 C38 0.952 . S
H51 C39 0.950 . S
N52 C55 1.382 . S
N52 C57 1.363 . S
N53 C55 1.371 . S
N53 C56 1.372 . S
N54 C56 1.361 . S
N54 C57 1.377 . S
C55 N52 1.382 . S
C55 N53 1.371 . S
C55 C58 1.480 . S
C56 N53 1.372 . S
C56 N54 1.361 . S
C56 C64 1.457 . S
C57 N52 1.363 . S
C57 N54 1.377 . S
C57 C70 1.479 . S
C58 C55 1.480 . S
C58 C59 1.383 . S
C58 C63 1.385 . S
C59 H40 0.947 . S
C59 C58 1.383 . S
C59 C60 1.388 . S
C60 H41 0.946 . S
C60 C59 1.388 . S
C60 C61 1.384 . S
C61 C60 1.384 . S
C61 C62 1.377 . S
C62 H42 0.953 . S
C62 C61 1.377 . S
C62 C63 1.369 . S
C63 H43 0.945 . S
C63 C58 1.385 . S
C63 C62 1.369 . S
C64 C56 1.457 . S
C64 C65 1.372 . S
C64 C69 1.364 . S
C65 H44 0.952 . S
C65 C64 1.372 . S
C65 C66 1.389 . S
C66 H45 0.949 . S
C66 C65 1.389 . S
C66 C67 1.387 . S
C67 C66 1.387 . S
C67 C68 1.372 . S
C68 H46 0.950 . S
C68 C67 1.372 . S
C68 C69 1.379 . S
C69 H47 0.948 . S
C69 C64 1.364 . S
C69 C68 1.379 . S
C70 C39 1.383 . S
C70 C57 1.479 . S
C70 C71 1.398 . S
C71 C36 1.382 . S
C71 H48 0.951 . S
C71 C70 1.398 . S
C72 C73 1.384 . S
C72 H85 0.947 . S
C72 C107 1.382 . S
C73 C72 1.384 . S
C73 C74 1.378 . S
C74 C73 1.378 . S
C74 C75 1.378 . S
C74 H86 0.952 . S
C75 C74 1.378 . S
C75 H87 0.950 . S
C75 C106 1.383 . S
H76 C95 0.947 . S
H77 C96 0.946 . S
H78 C98 0.953 . S
H79 C99 0.945 . S
H80 C101 0.952 . S
H81 C102 0.949 . S
H82 C104 0.950 . S
H83 C105 0.948 . S
H84 C107 0.951 . S
H85 C72 0.947 . S
H86 C74 0.952 . S
H87 C75 0.950 . S
N88 C91 1.382 1_556 S
N88 C93 1.363 1_556 S
N89 C91 1.371 . S
N89 C92 1.372 . S
N90 C92 1.361 . S
N90 C93 1.375 . S
C91 N88 1.382 1_554 S
C91 N89 1.371 . S
C91 C94 1.480 . S
C92 N89 1.372 . S
C92 N90 1.361 . S
C92 C100 1.457 . S
C93 N88 1.363 1_554 S
C93 N90 1.375 . S
C93 C106 1.482 1_554 S
C94 C91 1.480 . S
C94 C95 1.383 1_554 S
C94 C99 1.385 . S
C95 H76 0.947 . S
C95 C94 1.383 1_556 S
C95 C96 1.388 . S
C96 H77 0.946 . S
C96 C95 1.388 . S
C96 C97 1.384 1_556 S
C97 C96 1.384 1_554 S
C97 C98 1.377 . S
C98 H78 0.953 . S
C98 C97 1.377 . S
C98 C99 1.369 . S
C99 H79 0.945 . S
C99 C94 1.385 . S
C99 C98 1.369 . S
C100 C92 1.457 . S
C100 C101 1.372 . S
C100 C105 1.364 . S
C101 H80 0.952 . S
C101 C100 1.372 . S
C101 C102 1.389 . S
C102 H81 0.949 . S
C102 C101 1.389 . S
C102 C103 1.387 . S
C103 C102 1.387 . S
C103 C104 1.372 . S
C104 H82 0.950 . S
C104 C103 1.372 . S
C104 C105 1.379 . S
C105 H83 0.948 . S
C105 C100 1.364 . S
C105 C104 1.379 . S
C106 C75 1.383 . S
C106 C93 1.482 1_556 S
C106 C107 1.398 . S
C107 C72 1.382 . S
C107 H84 0.951 . S
C107 C106 1.398 . S
C108 C109 1.384 . S
C108 H121 0.947 . S
C108 C143 1.382 . S
C109 C108 1.384 . S
C109 C110 1.378 . S
C110 C109 1.378 . S
C110 C111 1.378 . S
C110 H122 0.952 . S
C111 C110 1.378 . S
C111 H123 0.950 . S
C111 C142 1.383 . S
H112 C131 0.947 . S
H113 C132 0.946 . S
H114 C134 0.953 . S
H115 C135 0.945 . S
H116 C137 0.952 . S
H117 C138 0.949 . S
H118 C140 0.950 . S
H119 C141 0.948 . S
H120 C143 0.951 . S
H121 C108 0.947 . S
H122 C110 0.952 . S
H123 C111 0.950 . S
N124 C127 1.382 . S
N124 C129 1.363 . S
N125 C127 1.371 . S
N125 C128 1.372 . S
N126 C128 1.361 . S
N126 C129 1.377 . S
C127 N124 1.382 . S
C127 N125 1.371 . S
C127 C130 1.480 . S
C128 N125 1.372 . S
C128 N126 1.361 . S
C128 C136 1.457 . S
C129 N124 1.363 . S
C129 N126 1.377 . S
C129 C142 1.479 . S
C130 C127 1.480 . S
C130 C131 1.383 . S
C130 C135 1.385 . S
C131 H112 0.947 . S
C131 C130 1.383 . S
C131 C132 1.388 . S
C132 H113 0.946 . S
C132 C131 1.388 . S
C132 C133 1.384 . S
C133 C132 1.384 . S
C133 C134 1.377 . S
C134 H114 0.953 . S
C134 C133 1.377 . S
C134 C135 1.369 . S
C135 H115 0.945 . S
C135 C130 1.385 . S
C135 C134 1.369 . S
C136 C128 1.457 . S
C136 C137 1.372 . S
C136 C141 1.364 . S
C137 H116 0.952 . S
C137 C136 1.372 . S
C137 C138 1.389 . S
C138 H117 0.949 . S
C138 C137 1.389 . S
C138 C139 1.387 . S
C139 C138 1.387 . S
C139 C140 1.372 . S
C140 H118 0.950 . S
C140 C139 1.372 . S
C140 C141 1.379 . S
C141 H119 0.948 . S
C141 C136 1.364 . S
C141 C140 1.379 . S
C142 C111 1.383 . S
C142 C129 1.479 . S
C142 C143 1.398 . S
C143 C108 1.382 . S
C143 H120 0.951 . S
C143 C142 1.398 . S
Tb144 N173 2.617 . S
Tb144 N179 2.572 . S
Tb144 O188 2.465 . S
Tb144 O189 2.387 . S
Tb144 O191 2.428 . S
Tb144 O192 2.308 1_565 S
Tb144 O196 2.349 1_455 S
Tb144 O199 2.393 1_455 S
Tb144 C208 2.802 . S
C145 N146 1.379 . S
C145 C148 1.416 . S
C145 C152 1.424 . S
N146 C145 1.379 . S
N146 C149 1.334 1_655 S
N146 Tb155 2.617 . S
C147 C149 1.390 . S
C147 C150 1.333 1_455 S
C147 H167 0.937 . S
C148 C145 1.416 . S
C148 C150 1.416 . S
C148 C154 1.448 . S
C149 N146 1.334 1_455 S
C149 C147 1.390 . S
C149 H160 0.930 . S
C150 C147 1.333 1_655 S
C150 C148 1.416 . S
C150 H171 0.930 . S
C151 C152 1.413 . S
C151 C153 1.427 . S
C151 C157 1.416 . S
C152 C145 1.424 . S
C152 C151 1.413 . S
C152 N156 1.361 . S
C153 C151 1.427 . S
C153 C154 1.328 . S
C153 H168 0.929 . S
C154 C148 1.448 . S
C154 C153 1.328 . S
C154 H169 0.930 . S
Tb155 N146 2.617 . S
Tb155 N156 2.572 . S
Tb155 O190 2.349 1_655 S
Tb155 O193 2.393 1_655 S
Tb155 O194 2.465 . S
Tb155 O195 2.387 . S
Tb155 O197 2.428 . S
Tb155 O198 2.308 1_545 S
Tb155 C219 2.802 . S
N156 C152 1.361 . S
N156 Tb155 2.572 . S
N156 C158 1.340 . S
C157 C151 1.416 . S
C157 C159 1.332 . S
C157 H165 0.931 . S
C158 N156 1.340 . S
C158 C159 1.407 . S
C158 H164 0.930 . S
C159 C157 1.332 . S
C159 C158 1.407 . S
C159 H161 0.929 . S
H160 C149 0.930 . S
H161 C159 0.929 . S
H162 C177 0.930 1_655 S
H163 C184 0.929 . S
H164 C158 0.930 . S
H165 C157 0.931 . S
H166 C180 0.930 . S
H167 C147 0.937 . S
H168 C153 0.929 . S
H169 C154 0.930 . S
H170 C175 0.930 1_655 S
H171 C150 0.930 . S
H172 C183 0.931 . S
N173 Tb144 2.617 . S
N173 C174 1.379 . S
N173 C177 1.334 . S
C174 N173 1.379 . S
C174 C176 1.416 . S
C174 C182 1.424 . S
C175 H170 0.930 1_455 S
C175 C177 1.390 . S
C175 C178 1.339 . S
C176 C174 1.416 . S
C176 C178 1.416 . S
C176 C209 1.448 . S
C177 H162 0.930 1_455 S
C177 N173 1.334 . S
C177 C175 1.390 . S
C178 C175 1.339 . S
C178 C176 1.416 . S
C178 H185 0.930 . S
N179 Tb144 2.572 . S
N179 C180 1.340 . S
N179 C182 1.361 . S
C180 H166 0.930 . S
C180 N179 1.340 . S
C180 C184 1.407 . S
C181 C182 1.413 . S
C181 C183 1.416 . S
C181 C210 1.427 . S
C182 C174 1.424 . S
C182 N179 1.361 . S
C182 C181 1.413 . S
C183 H172 0.931 . S
C183 C181 1.416 . S
C183 C184 1.332 . S
C184 H163 0.929 . S
C184 C180 1.407 . S
C184 C183 1.332 . S
H185 C178 0.930 . S
H186 C209 0.930 . S
H187 C210 0.929 . S
O188 Tb144 2.465 . S
O188 C208 1.264 . S
O189 Tb144 2.387 . S
O189 C200 1.264 . S
O190 Tb155 2.349 1_455 S
O190 C200 1.243 1_545 S
O191 Tb144 2.428 . S
O191 C208 1.256 . S
O192 Tb144 2.308 1_545 S
O192 C207 1.266 . S
O193 Tb155 2.393 1_455 S
O193 C207 1.248 . S
O194 Tb155 2.465 . S
O194 C219 1.264 . S
O195 Tb155 2.387 . S
O195 C211 1.264 . S
O196 Tb144 2.349 1_655 S
O196 C211 1.243 1_565 S
O197 Tb155 2.428 . S
O197 C219 1.256 . S
O198 Tb155 2.308 1_565 S
O198 C218 1.266 . S
O199 Tb144 2.393 1_655 S
O199 C218 1.248 . S
C200 O189 1.264 . S
C200 O190 1.243 1_565 S
C201 C204 1.399 . S
C201 C206 1.383 . S
C201 C208 1.496 . S
C202 C203 1.399 . S
C202 C206 1.389 . S
C203 C202 1.399 . S
C203 C205 1.380 . S
C203 H220 0.929 . S
C204 C201 1.399 . S
C204 C205 1.392 . S
C204 H221 0.929 . S
C205 C203 1.380 . S
C205 C204 1.392 . S
C205 H222 0.929 . S
C206 C201 1.383 . S
C206 C202 1.389 . S
C206 H223 0.931 . S
C207 O192 1.266 . S
C207 O193 1.248 . S
C208 Tb144 2.802 . S
C208 O188 1.264 . S
C208 O191 1.256 . S
C208 C201 1.496 . S
C209 C176 1.448 . S
C209 H186 0.930 . S
C209 C210 1.328 . S
C210 C181 1.427 . S
C210 H187 0.929 . S
C210 C209 1.328 . S
C211 O195 1.264 . S
C211 O196 1.243 1_545 S
C212 C215 1.399 . S
C212 C216 1.383 . S
C212 C219 1.496 . S
C213 C214 1.399 . S
C213 C216 1.389 . S
C214 C213 1.399 . S
C214 C217 1.380 . S
C214 H224 0.929 . S
C215 C212 1.399 . S
C215 C217 1.392 . S
C215 H225 0.929 . S
C216 C212 1.383 . S
C216 C213 1.389 . S
C216 H226 0.931 . S
C217 C214 1.380 . S
C217 C215 1.392 . S
C217 H227 0.929 . S
C218 O198 1.266 . S
C218 O199 1.248 . S
C219 Tb155 2.802 . S
C219 O194 1.264 . S
C219 O197 1.256 . S
C219 C212 1.496 . S
H220 C203 0.929 . S
H221 C204 0.929 . S
H222 C205 0.929 . S
H223 C206 0.931 . S
H224 C214 0.929 . S
H225 C215 0.929 . S
H226 C216 0.931 . S
H227 C217 0.929 . S
Tb228 N257 2.617 . S
Tb228 N263 2.572 1_556 S
Tb228 O272 2.465 . S
Tb228 O273 2.387 1_556 S
Tb228 O275 2.428 . S
Tb228 O276 2.308 1_556 S
Tb228 O280 2.349 . S
Tb228 O283 2.393 . S
Tb228 C292 2.802 . S
C229 N230 1.379 . S
C229 C232 1.416 . S
C229 C236 1.424 . S
N230 C229 1.379 . S
N230 C233 1.334 . S
N230 Tb239 2.617 . S
C231 C233 1.390 . S
C231 C234 1.339 . S
C231 H251 0.930 . S
C232 C229 1.416 . S
C232 C234 1.416 . S
C232 C238 1.448 . S
C233 N230 1.334 . S
C233 C231 1.390 . S
C233 H244 0.930 . S
C234 C231 1.339 . S
C234 C232 1.416 . S
C234 H255 0.930 . S
C235 C236 1.413 . S
C235 C237 1.427 . S
C235 C241 1.416 . S
C236 C229 1.424 . S
C236 C235 1.413 . S
C236 N240 1.361 . S
C237 C235 1.427 . S
C237 C238 1.328 . S
C237 H252 0.929 . S
C238 C232 1.448 . S
C238 C237 1.328 . S
C238 H253 0.930 . S
Tb239 N230 2.617 . S
Tb239 N240 2.572 . S
Tb239 O274 2.349 . S
Tb239 O277 2.393 . S
Tb239 O278 2.465 . S
Tb239 O279 2.387 1_554 S
Tb239 O281 2.428 . S
Tb239 O282 2.308 . S
Tb239 C303 2.802 . S
N240 C236 1.361 . S
N240 Tb239 2.572 . S
N240 C242 1.340 . S
C241 C235 1.416 . S
C241 C243 1.332 . S
C241 H249 0.931 . S
C242 N240 1.340 . S
C242 C243 1.407 . S
C242 H248 0.930 . S
C243 C241 1.332 . S
C243 C242 1.407 . S
C243 H245 0.929 . S
H244 C233 0.930 . S
H245 C243 0.929 . S
H246 C261 0.930 . S
H247 C268 0.929 . S
H248 C242 0.930 . S
H249 C241 0.931 . S
H250 C264 0.930 . S
H251 C231 0.930 . S
H252 C237 0.929 . S
H253 C238 0.930 . S
H254 C259 0.930 . S
H255 C234 0.930 . S
H256 C267 0.931 . S
N257 Tb228 2.617 . S
N257 C258 1.379 1_556 S
N257 C261 1.334 . S
C258 N257 1.379 1_554 S
C258 C260 1.416 . S
C258 C266 1.424 . S
C259 H254 0.930 . S
C259 C261 1.390 . S
C259 C262 1.339 1_556 S
C260 C258 1.416 . S
C260 C262 1.416 . S
C260 C293 1.448 . S
C261 H246 0.930 . S
C261 N257 1.334 . S
C261 C259 1.390 . S
C262 C259 1.339 1_554 S
C262 C260 1.416 . S
C262 H269 0.930 . S
N263 Tb228 2.572 1_554 S
N263 C264 1.340 . S
N263 C266 1.361 . S
C264 H250 0.930 . S
C264 N263 1.340 . S
C264 C268 1.407 . S
C265 C266 1.413 . S
C265 C267 1.416 . S
C265 C294 1.427 . S
C266 C258 1.424 . S
C266 N263 1.361 . S
C266 C265 1.413 . S
C267 H256 0.931 . S
C267 C265 1.416 . S
C267 C268 1.332 . S
C268 H247 0.929 . S
C268 C264 1.407 . S
C268 C267 1.332 . S
H269 C262 0.930 . S
H270 C293 0.930 . S
H271 C294 0.929 . S
O272 Tb228 2.465 . S
O272 C292 1.264 . S
O273 Tb228 2.387 1_554 S
O273 C284 1.264 . S
O274 Tb239 2.349 . S
O274 C284 1.243 . S
O275 Tb228 2.428 . S
O275 C292 1.256 . S
O276 Tb228 2.308 1_554 S
O276 C291 1.266 . S
O277 Tb239 2.393 . S
O277 C291 1.248 . S
O278 Tb239 2.465 . S
O278 C303 1.264 . S
O279 Tb239 2.387 1_556 S
O279 C295 1.264 . S
O280 Tb228 2.349 . S
O280 C295 1.243 . S
O281 Tb239 2.428 . S
O281 C303 1.256 . S
O282 Tb239 2.308 . S
O282 C302 1.266 . S
O283 Tb228 2.393 . S
O283 C302 1.248 1_556 S
C284 O273 1.264 . S
C284 O274 1.243 . S
C285 C288 1.399 . S
C285 C290 1.383 . S
C285 C292 1.496 . S
C286 C287 1.399 . S
C286 C290 1.389 . S
C287 C286 1.399 . S
C287 C289 1.380 . S
C287 H304 0.929 . S
C288 C285 1.399 . S
C288 C289 1.392 . S
C288 H305 0.929 . S
C289 C287 1.380 . S
C289 C288 1.392 . S
C289 H306 0.929 . S
C290 C285 1.383 . S
C290 C286 1.389 . S
C290 H307 0.931 . S
C291 O276 1.266 . S
C291 O277 1.248 . S
C292 Tb228 2.802 . S
C292 O272 1.264 . S
C292 O275 1.256 . S
C292 C285 1.496 . S
C293 C260 1.448 . S
C293 H270 0.930 . S
C293 C294 1.328 . S
C294 C265 1.427 . S
C294 H271 0.929 . S
C294 C293 1.328 . S
C295 O279 1.264 . S
C295 O280 1.243 . S
C296 C299 1.399 . S
C296 C300 1.383 . S
C296 C303 1.496 . S
C297 C298 1.399 . S
C297 C300 1.389 . S
C298 C297 1.399 . S
C298 C301 1.380 . S
C298 H308 0.929 . S
C299 C296 1.399 . S
C299 C301 1.392 . S
C299 H309 0.929 . S
C300 C296 1.383 . S
C300 C297 1.389 . S
C300 H310 0.931 . S
C301 C298 1.380 . S
C301 C299 1.392 . S
C301 H311 0.929 . S
C302 O282 1.266 . S
C302 O283 1.248 1_554 S
C303 Tb239 2.802 . S
C303 O278 1.264 . S
C303 O281 1.256 . S
C303 C296 1.496 . S
H304 C287 0.929 . S
H305 C288 0.929 . S
H306 C289 0.929 . S
H307 C290 0.931 . S
H308 C298 0.929 . S
H309 C299 0.929 . S
H310 C300 0.931 . S
H311 C301 0.929 . S
H312 C330 0.951 . S
H313 C332 0.951 . S
H314 C334 0.950 . S
H315 C335 0.950 . S
H316 C337 0.950 . S
H317 C340 0.950 . S
H318 C341 0.950 . S
H319 C343 0.950 . S
H320 C344 0.950 . S
H321 C345 0.951 . S
H322 C347 0.951 . S
H323 C349 0.950 . S
H324 C350 0.950 . S
H325 C352 0.950 . S
H326 C355 0.950 . S
H327 C356 0.950 . S
H328 C358 0.950 . S
H329 C359 0.950 . S
C330 H312 0.951 . S
C330 C331 1.366 . S
C330 C332 1.388 . S
C331 C330 1.366 . S
C331 C335 1.385 . S
C332 H313 0.951 . S
C332 C330 1.388 . S
C332 C333 1.366 . S
C333 C332 1.366 . S
C333 C334 1.414 . S
C333 C336 1.499 . S
C334 H314 0.950 . S
C334 C333 1.414 . S
C334 C335 1.374 . S
C335 H315 0.950 . S
C335 C331 1.385 . S
C335 C334 1.374 . S
C336 C333 1.499 . S
C336 C337 1.373 . S
C336 C338 1.389 . S
C337 H316 0.950 . S
C337 C336 1.373 . S
C337 C353 1.377 . S
C338 C336 1.389 . S
C338 C339 1.524 . S
C338 C352 1.377 . S
C339 C338 1.524 . S
C339 C340 1.397 . S
C339 C344 1.363 . S
C340 H317 0.950 . S
C340 C339 1.397 . S
C340 C341 1.334 . S
C341 H318 0.950 . S
C341 C340 1.334 . S
C341 C342 1.287 . S
C342 C341 1.287 . S
C342 C343 1.524 . S
C342 H361 0.913 . S
C343 H319 0.950 . S
C343 C342 1.524 . S
C343 C344 1.415 . S
C344 H320 0.950 . S
C344 C339 1.363 . S
C344 C343 1.415 . S
C345 H321 0.951 . S
C345 C346 1.366 . S
C345 C347 1.388 . S
C346 C345 1.366 . S
C346 C350 1.385 . S
C347 H322 0.951 . S
C347 C345 1.388 . S
C347 C348 1.366 . S
C348 C347 1.366 . S
C348 C349 1.414 . S
C348 C351 1.499 . S
C349 H323 0.950 . S
C349 C348 1.414 . S
C349 C350 1.374 . S
C350 H324 0.950 . S
C350 C346 1.385 . S
C350 C349 1.374 . S
C351 C348 1.499 . S
C351 C352 1.373 . S
C351 C353 1.389 . S
C352 H325 0.950 . S
C352 C338 1.377 . S
C352 C351 1.373 . S
C353 C337 1.377 . S
C353 C351 1.389 . S
C353 C354 1.524 . S
C354 C353 1.524 . S
C354 C355 1.397 . S
C354 C359 1.363 . S
C355 H326 0.950 . S
C355 C354 1.397 . S
C355 C356 1.334 . S
C356 H327 0.950 . S
C356 C355 1.334 . S
C356 C357 1.287 . S
C357 C356 1.287 . S
C357 C358 1.524 . S
C357 H360 0.999 . S
C358 H328 0.950 . S
C358 C357 1.524 . S
C358 C359 1.415 . S
C359 H329 0.950 . S
C359 C354 1.363 . S
C359 C358 1.415 . S
H360 C357 0.999 . S
H361 C342 0.913 . S
H362 C380 0.951 . S
H363 C382 0.951 . S
H364 C384 0.950 . S
H365 C385 0.950 . S
H366 C387 0.950 1_556 S
H367 C390 0.950 . S
H368 C391 0.950 . S
H369 C393 0.950 . S
H370 C394 0.950 . S
H371 C395 0.951 . S
H372 C397 0.951 . S
H373 C399 0.950 . S
H374 C400 0.950 . S
H375 C402 0.950 . S
H376 C405 0.950 . S
H377 C406 0.950 . S
H378 C408 0.950 . S
H379 C409 0.950 . S
C380 H362 0.951 . S
C380 C381 1.366 . S
C380 C382 1.388 . S
C381 C380 1.366 . S
C381 C385 1.385 . S
C382 H363 0.951 . S
C382 C380 1.388 . S
C382 C383 1.366 . S
C383 C382 1.366 . S
C383 C384 1.414 . S
C383 C386 1.499 . S
C384 H364 0.950 . S
C384 C383 1.414 . S
C384 C385 1.374 . S
C385 H365 0.950 . S
C385 C381 1.385 . S
C385 C384 1.374 . S
C386 C383 1.499 . S
C386 C387 1.373 . S
C386 C388 1.389 . S
C387 H366 0.950 1_554 S
C387 C386 1.373 . S
C387 C403 1.377 . S
C388 C386 1.389 . S
C388 C389 1.524 . S
C388 C402 1.377 . S
C389 C388 1.524 . S
C389 C390 1.397 . S
C389 C394 1.363 . S
C390 H367 0.950 . S
C390 C389 1.397 . S
C390 C391 1.334 . S
C391 H368 0.950 . S
C391 C390 1.334 . S
C391 C392 1.287 . S
C392 C391 1.287 . S
C392 C393 1.524 . S
C392 H411 0.913 . S
C393 H369 0.950 . S
C393 C392 1.524 . S
C393 C394 1.415 . S
C394 H370 0.950 . S
C394 C389 1.363 . S
C394 C393 1.415 . S
C395 H371 0.951 . S
C395 C396 1.366 . S
C395 C397 1.388 . S
C396 C395 1.366 . S
C396 C400 1.385 . S
C397 H372 0.951 . S
C397 C395 1.388 . S
C397 C398 1.366 . S
C398 C397 1.366 . S
C398 C399 1.414 . S
C398 C401 1.499 . S
C399 H373 0.950 . S
C399 C398 1.414 . S
C399 C400 1.374 . S
C400 H374 0.950 . S
C400 C396 1.385 . S
C400 C399 1.374 . S
C401 C398 1.499 . S
C401 C402 1.373 . S
C401 C403 1.389 . S
C402 H375 0.950 . S
C402 C388 1.377 . S
C402 C401 1.373 . S
C403 C387 1.377 . S
C403 C401 1.389 . S
C403 C404 1.524 1_554 S
C404 C403 1.524 1_556 S
C404 C405 1.397 . S
C404 C409 1.363 . S
C405 H376 0.950 . S
C405 C404 1.397 . S
C405 C406 1.334 . S
C406 H377 0.950 . S
C406 C405 1.334 . S
C406 C407 1.287 . S
C407 C406 1.287 . S
C407 C408 1.524 . S
C407 H410 0.999 . S
C408 H378 0.950 . S
C408 C407 1.524 . S
C408 C409 1.415 . S
C409 H379 0.950 . S
C409 C404 1.363 . S
C409 C408 1.415 . S
H410 C407 0.999 . S
H411 C392 0.913 . S
H412 C430 0.951 . S
H413 C432 0.951 . S
H414 C434 0.950 . S
H415 C435 0.950 . S
H416 C437 0.950 . S
H417 C440 0.950 . S
H418 C441 0.950 . S
H419 C443 0.950 . S
H420 C444 0.950 . S
H421 C445 0.951 . S
H422 C447 0.951 . S
H423 C449 0.950 . S
H424 C450 0.950 . S
H425 C452 0.950 . S
H426 C455 0.950 . S
H427 C456 0.950 . S
H428 C458 0.950 . S
H429 C459 0.950 . S
C430 H412 0.951 . S
C430 C431 1.366 . S
C430 C432 1.388 . S
C431 C430 1.366 . S
C431 C435 1.385 . S
C432 H413 0.951 . S
C432 C430 1.388 . S
C432 C433 1.366 . S
C433 C432 1.366 . S
C433 C434 1.414 . S
C433 C436 1.499 . S
C434 H414 0.950 . S
C434 C433 1.414 . S
C434 C435 1.374 . S
C435 H415 0.950 . S
C435 C431 1.385 . S
C435 C434 1.374 . S
C436 C433 1.499 . S
C436 C437 1.373 . S
C436 C438 1.389 . S
C437 H416 0.950 . S
C437 C436 1.373 . S
C437 C453 1.377 . S
C438 C436 1.389 . S
C438 C439 1.524 . S
C438 C452 1.377 . S
C439 C438 1.524 . S
C439 C440 1.397 . S
C439 C444 1.363 . S
C440 H417 0.950 . S
C440 C439 1.397 . S
C440 C441 1.334 . S
C441 H418 0.950 . S
C441 C440 1.334 . S
C441 C442 1.287 . S
C442 C441 1.287 . S
C442 C443 1.524 . S
C442 H461 0.913 . S
C443 H419 0.950 . S
C443 C442 1.524 . S
C443 C444 1.415 . S
C444 H420 0.950 . S
C444 C439 1.363 . S
C444 C443 1.415 . S
C445 H421 0.951 . S
C445 C446 1.366 . S
C445 C447 1.388 . S
C446 C445 1.366 . S
C446 C450 1.385 . S
C447 H422 0.951 . S
C447 C445 1.388 . S
C447 C448 1.366 . S
C448 C447 1.366 . S
C448 C449 1.414 . S
C448 C451 1.499 . S
C449 H423 0.950 . S
C449 C448 1.414 . S
C449 C450 1.374 . S
C450 H424 0.950 . S
C450 C446 1.385 . S
C450 C449 1.374 . S
C451 C448 1.499 . S
C451 C452 1.373 . S
C451 C453 1.389 . S
C452 H425 0.950 . S
C452 C438 1.377 . S
C452 C451 1.373 . S
C453 C437 1.377 . S
C453 C451 1.389 . S
C453 C454 1.524 . S
C454 C453 1.524 . S
C454 C455 1.397 . S
C454 C459 1.363 . S
C455 H426 0.950 . S
C455 C454 1.397 . S
C455 C456 1.334 . S
C456 H427 0.950 . S
C456 C455 1.334 . S
C456 C457 1.287 . S
C457 C456 1.287 . S
C457 C458 1.524 . S
C457 H460 0.999 . S
C458 H428 0.950 . S
C458 C457 1.524 . S
C458 C459 1.415 . S
C459 H429 0.950 . S
C459 C454 1.363 . S
C459 C458 1.415 . S
H460 C457 0.999 . S
H461 C442 0.913 . S
H462 C480 0.951 . S
H463 C482 0.951 . S
H464 C484 0.950 . S
H465 C485 0.950 . S
H466 C487 0.950 . S
H467 C490 0.950 1_556 S
H468 C491 0.950 . S
H469 C493 0.950 . S
H470 C494 0.950 . S
H471 C495 0.951 . S
H472 C497 0.951 . S
H473 C499 0.950 . S
H474 C500 0.950 . S
H475 C502 0.950 . S
H476 C505 0.950 . S
H477 C506 0.950 . S
H478 C508 0.950 . S
H479 C509 0.950 . S
C480 H462 0.951 . S
C480 C481 1.366 . S
C480 C482 1.388 . S
C481 C480 1.366 . S
C481 C485 1.385 1_554 S
C482 H463 0.951 . S
C482 C480 1.388 . S
C482 C483 1.366 . S
C483 C482 1.366 . S
C483 C484 1.414 1_554 S
C483 C486 1.499 . S
C484 H464 0.950 . S
C484 C483 1.414 1_556 S
C484 C485 1.374 . S
C485 H465 0.950 . S
C485 C481 1.385 1_556 S
C485 C484 1.374 . S
C486 C483 1.499 . S
C486 C487 1.373 1_554 S
C486 C488 1.389 . S
C487 H466 0.950 . S
C487 C486 1.373 1_556 S
C487 C503 1.374 1_556 S
C488 C486 1.389 . S
C488 C489 1.524 . S
C488 C502 1.377 . S
C489 C488 1.524 . S
C489 C490 1.397 . S
C489 C494 1.363 . S
C490 H467 0.950 1_554 S
C490 C489 1.397 . S
C490 C491 1.334 . S
C491 H468 0.950 . S
C491 C490 1.334 . S
C491 C492 1.287 . S
C492 C491 1.287 . S
C492 C493 1.524 . S
C492 H511 0.913 . S
C493 H469 0.950 . S
C493 C492 1.524 . S
C493 C494 1.415 . S
C494 H470 0.950 . S
C494 C489 1.363 . S
C494 C493 1.415 . S
C495 H471 0.951 . S
C495 C496 1.366 1_556 S
C495 C497 1.388 . S
C496 C495 1.366 1_554 S
C496 C500 1.385 . S
C497 H472 0.951 . S
C497 C495 1.388 . S
C497 C498 1.366 1_556 S
C498 C497 1.366 1_554 S
C498 C499 1.414 . S
C498 C501 1.499 . S
C499 H473 0.950 . S
C499 C498 1.414 . S
C499 C500 1.374 . S
C500 H474 0.950 . S
C500 C496 1.385 . S
C500 C499 1.374 . S
C501 C498 1.499 . S
C501 C502 1.373 . S
C501 C503 1.395 . S
C502 H475 0.950 . S
C502 C488 1.377 . S
C502 C501 1.373 . S
C503 C487 1.374 1_554 S
C503 C501 1.395 . S
C503 C504 1.522 1_554 S
C504 C503 1.522 1_556 S
C504 C505 1.397 1_556 S
C504 C509 1.363 . S
C505 H476 0.950 . S
C505 C504 1.397 1_554 S
C505 C506 1.334 . S
C506 H477 0.950 . S
C506 C505 1.334 . S
C506 C507 1.287 1_554 S
C507 C506 1.287 1_556 S
C507 C508 1.524 . S
C507 H510 0.999 . S
C508 H478 0.950 . S
C508 C507 1.524 . S
C508 C509 1.415 . S
C509 H479 0.950 . S
C509 C504 1.363 . S
C509 C508 1.415 . S
H510 C507 0.999 . S
H511 C492 0.913 . S
H512 C530 0.951 . S
H513 C532 0.951 . S
H514 C534 0.950 . S
H515 C535 0.950 . S
H516 C537 0.950 . S
H517 C540 0.950 . S
H518 C541 0.950 . S
H519 C543 0.950 . S
H520 C544 0.950 . S
H521 C545 0.951 . S
H522 C547 0.951 . S
H523 C549 0.950 . S
H524 C550 0.950 . S
H525 C552 0.950 . S
H526 C555 0.950 . S
H527 C556 0.950 . S
H528 C558 0.950 . S
H529 C559 0.950 . S
C530 H512 0.951 . S
C530 C531 1.366 . S
C530 C532 1.388 . S
C531 C530 1.366 . S
C531 C535 1.385 . S
C532 H513 0.951 . S
C532 C530 1.388 . S
C532 C533 1.366 . S
C533 C532 1.366 . S
C533 C534 1.414 . S
C533 C536 1.499 . S
C534 H514 0.950 . S
C534 C533 1.414 . S
C534 C535 1.374 . S
C535 H515 0.950 . S
C535 C531 1.385 . S
C535 C534 1.374 . S
C536 C533 1.499 . S
C536 C537 1.373 . S
C536 C538 1.389 . S
C537 H516 0.950 . S
C537 C536 1.373 . S
C537 C553 1.377 . S
C538 C536 1.389 . S
C538 C539 1.524 . S
C538 C552 1.377 . S
C539 C538 1.524 . S
C539 C540 1.397 . S
C539 C544 1.363 . S
C540 H517 0.950 . S
C540 C539 1.397 . S
C540 C541 1.334 . S
C541 H518 0.950 . S
C541 C540 1.334 . S
C541 C542 1.287 . S
C542 C541 1.287 . S
C542 C543 1.524 . S
C542 H561 0.913 . S
C543 H519 0.950 . S
C543 C542 1.524 . S
C543 C544 1.415 . S
C544 H520 0.950 . S
C544 C539 1.363 . S
C544 C543 1.415 . S
C545 H521 0.951 . S
C545 C546 1.366 . S
C545 C547 1.388 . S
C546 C545 1.366 . S
C546 C550 1.385 . S
C547 H522 0.951 . S
C547 C545 1.388 . S
C547 C548 1.366 . S
C548 C547 1.366 . S
C548 C549 1.414 . S
C548 C551 1.499 . S
C549 H523 0.950 . S
C549 C548 1.414 . S
C549 C550 1.374 . S
C550 H524 0.950 . S
C550 C546 1.385 . S
C550 C549 1.374 . S
C551 C548 1.499 . S
C551 C552 1.373 . S
C551 C553 1.389 . S
C552 H525 0.950 . S
C552 C538 1.377 . S
C552 C551 1.373 . S
C553 C537 1.377 . S
C553 C551 1.389 . S
C553 C554 1.524 . S
C554 C553 1.524 . S
C554 C555 1.397 . S
C554 C559 1.363 . S
C555 H526 0.950 . S
C555 C554 1.397 . S
C555 C556 1.334 . S
C556 H527 0.950 . S
C556 C555 1.334 . S
C556 C557 1.287 . S
C557 C556 1.287 . S
C557 C558 1.524 . S
C557 H560 0.999 . S
C558 H528 0.950 . S
C558 C557 1.524 . S
C558 C559 1.415 . S
C559 H529 0.950 . S
C559 C554 1.363 . S
C559 C558 1.415 . S
H560 C557 0.999 . S
H561 C542 0.913 . S
H562 C580 0.951 . S
H563 C582 0.951 . S
H564 C584 0.950 . S
H565 C585 0.950 . S
H566 C587 0.950 . S
H567 C590 0.950 . S
H568 C591 0.950 . S
H569 C593 0.950 . S
H570 C594 0.950 . S
H571 C595 0.951 . S
H572 C597 0.951 . S
H573 C599 0.950 . S
H574 C600 0.950 . S
H575 C602 0.950 . S
H576 C605 0.950 . S
H577 C606 0.950 . S
H578 C608 0.950 . S
H579 C609 0.950 . S
C580 H562 0.951 . S
C580 C581 1.366 . S
C580 C582 1.388 . S
C581 C580 1.366 . S
C581 C585 1.385 . S
C582 H563 0.951 . S
C582 C580 1.388 . S
C582 C583 1.366 . S
C583 C582 1.366 . S
C583 C584 1.414 . S
C583 C586 1.499 . S
C584 H564 0.950 . S
C584 C583 1.414 . S
C584 C585 1.374 . S
C585 H565 0.950 . S
C585 C581 1.385 . S
C585 C584 1.374 . S
C586 C583 1.499 . S
C586 C587 1.373 . S
C586 C588 1.389 . S
C587 H566 0.950 . S
C587 C586 1.373 . S
C587 C603 1.377 . S
C588 C586 1.389 . S
C588 C589 1.524 . S
C588 C602 1.377 . S
C589 C588 1.524 . S
C589 C590 1.397 . S
C589 C594 1.363 . S
C590 H567 0.950 . S
C590 C589 1.397 . S
C590 C591 1.334 . S
C591 H568 0.950 . S
C591 C590 1.334 . S
C591 C592 1.287 . S
C592 C591 1.287 . S
C592 C593 1.524 . S
C592 H611 0.913 . S
C593 H569 0.950 . S
C593 C592 1.524 . S
C593 C594 1.415 . S
C594 H570 0.950 . S
C594 C589 1.363 . S
C594 C593 1.415 . S
C595 H571 0.951 . S
C595 C596 1.366 . S
C595 C597 1.388 . S
C596 C595 1.366 . S
C596 C600 1.385 . S
C597 H572 0.951 . S
C597 C595 1.388 . S
C597 C598 1.366 . S
C598 C597 1.366 . S
C598 C599 1.414 . S
C598 C601 1.499 . S
C599 H573 0.950 . S
C599 C598 1.414 . S
C599 C600 1.374 . S
C600 H574 0.950 . S
C600 C596 1.385 . S
C600 C599 1.374 . S
C601 C598 1.499 . S
C601 C602 1.373 . S
C601 C603 1.389 . S
C602 H575 0.950 . S
C602 C588 1.377 . S
C602 C601 1.373 . S
C603 C587 1.377 . S
C603 C601 1.389 . S
C603 C604 1.524 . S
C604 C603 1.524 . S
C604 C605 1.397 . S
C604 C609 1.363 . S
C605 H576 0.950 . S
C605 C604 1.397 . S
C605 C606 1.334 . S
C606 H577 0.950 . S
C606 C605 1.334 . S
C606 C607 1.287 . S
C607 C606 1.287 . S
C607 C608 1.524 . S
C607 H610 0.999 . S
C608 H578 0.950 . S
C608 C607 1.524 . S
C608 C609 1.415 . S
C609 H579 0.950 . S
C609 C604 1.363 . S
C609 C608 1.415 . S
H610 C607 0.999 . S
H611 C592 0.913 . S
H612 C630 0.951 . S
H613 C632 0.951 . S
H614 C634 0.950 . S
H615 C635 0.950 . S
H616 C637 0.950 . S
H617 C640 0.950 . S
H618 C641 0.950 . S
H619 C643 0.950 . S
H620 C644 0.950 . S
H621 C645 0.951 1_565 S
H622 C647 0.951 . S
H623 C649 0.950 . S
H624 C650 0.950 . S
H625 C652 0.950 . S
H626 C655 0.950 1_545 S
H627 C656 0.950 . S
H628 C658 0.950 . S
H629 C659 0.950 . S
C630 H612 0.951 . S
C630 C631 1.366 . S
C630 C632 1.388 . S
C631 C630 1.366 . S
C631 C635 1.385 . S
C632 H613 0.951 . S
C632 C630 1.388 . S
C632 C633 1.366 . S
C633 C632 1.366 . S
C633 C634 1.414 . S
C633 C636 1.499 . S
C634 H614 0.950 . S
C634 C633 1.414 . S
C634 C635 1.374 . S
C635 H615 0.950 . S
C635 C631 1.385 . S
C635 C634 1.374 . S
C636 C633 1.499 . S
C636 C637 1.373 . S
C636 C638 1.389 . S
C637 H616 0.950 . S
C637 C636 1.373 . S
C637 C653 1.377 . S
C638 C636 1.389 . S
C638 C639 1.524 . S
C638 C652 1.377 . S
C639 C638 1.524 . S
C639 C640 1.397 . S
C639 C644 1.363 . S
C640 H617 0.950 . S
C640 C639 1.397 . S
C640 C641 1.334 . S
C641 H618 0.950 . S
C641 C640 1.334 . S
C641 C642 1.287 . S
C642 C641 1.287 . S
C642 C643 1.524 . S
C642 H661 0.913 . S
C643 H619 0.950 . S
C643 C642 1.524 . S
C643 C644 1.415 . S
C644 H620 0.950 . S
C644 C639 1.363 . S
C644 C643 1.415 . S
C645 H621 0.951 1_545 S
C645 C646 1.366 . S
C645 C647 1.388 . S
C646 C645 1.366 . S
C646 C650 1.385 . S
C647 H622 0.951 . S
C647 C645 1.388 . S
C647 C648 1.366 . S
C648 C647 1.366 . S
C648 C649 1.414 . S
C648 C651 1.499 . S
C649 H623 0.950 . S
C649 C648 1.414 . S
C649 C650 1.374 . S
C650 H624 0.950 . S
C650 C646 1.385 . S
C650 C649 1.374 . S
C651 C648 1.499 . S
C651 C652 1.373 . S
C651 C653 1.389 . S
C652 H625 0.950 . S
C652 C638 1.377 . S
C652 C651 1.373 . S
C653 C637 1.377 . S
C653 C651 1.389 . S
C653 C654 1.524 1_545 S
C654 C653 1.524 1_565 S
C654 C655 1.397 . S
C654 C659 1.363 . S
C655 H626 0.950 1_565 S
C655 C654 1.397 . S
C655 C656 1.334 . S
C656 H627 0.950 . S
C656 C655 1.334 . S
C656 C657 1.287 . S
C657 C656 1.287 . S
C657 C658 1.524 . S
C657 H660 0.999 . S
C658 H628 0.950 . S
C658 C657 1.524 . S
C658 C659 1.415 . S
C659 H629 0.950 . S
C659 C654 1.363 . S
C659 C658 1.415 . S
H660 C657 0.999 . S
H661 C642 0.913 . S
H662 C680 0.951 . S
H663 C682 0.951 . S
H664 C684 0.950 . S
H665 C685 0.950 . S
H666 C687 0.950 . S
H667 C690 0.950 . S
H668 C691 0.950 . S
H669 C693 0.950 . S
H670 C694 0.950 . S
H671 C695 0.951 . S
H672 C697 0.951 . S
H673 C699 0.950 . S
H674 C700 0.950 . S
H675 C702 0.950 . S
H676 C705 0.950 . S
H677 C706 0.950 . S
H678 C708 0.950 . S
H679 C709 0.950 . S
C680 H662 0.951 . S
C680 C681 1.366 . S
C680 C682 1.388 . S
C681 C680 1.366 . S
C681 C685 1.385 . S
C682 H663 0.951 . S
C682 C680 1.388 . S
C682 C683 1.366 . S
C683 C682 1.366 . S
C683 C684 1.414 . S
C683 C686 1.499 . S
C684 H664 0.950 . S
C684 C683 1.414 . S
C684 C685 1.374 . S
C685 H665 0.950 . S
C685 C681 1.385 . S
C685 C684 1.374 . S
C686 C683 1.499 . S
C686 C687 1.373 . S
C686 C688 1.389 . S
C687 H666 0.950 . S
C687 C686 1.373 . S
C687 C703 1.377 . S
C688 C686 1.389 . S
C688 C689 1.524 . S
C688 C702 1.377 . S
C689 C688 1.524 . S
C689 C690 1.397 . S
C689 C694 1.363 . S
C690 H667 0.950 . S
C690 C689 1.397 . S
C690 C691 1.334 . S
C691 H668 0.950 . S
C691 C690 1.334 . S
C691 C692 1.287 . S
C692 C691 1.287 . S
C692 C693 1.524 . S
C692 H711 0.913 . S
C693 H669 0.950 . S
C693 C692 1.524 . S
C693 C694 1.415 . S
C694 H670 0.950 . S
C694 C689 1.363 . S
C694 C693 1.415 . S
C695 H671 0.951 . S
C695 C696 1.366 . S
C695 C697 1.388 . S
C696 C695 1.366 . S
C696 C700 1.385 . S
C697 H672 0.951 . S
C697 C695 1.388 . S
C697 C698 1.366 . S
C698 C697 1.366 . S
C698 C699 1.414 . S
C698 C701 1.499 . S
C699 H673 0.950 . S
C699 C698 1.414 . S
C699 C700 1.374 . S
C700 H674 0.950 . S
C700 C696 1.385 . S
C700 C699 1.374 . S
C701 C698 1.499 . S
C701 C702 1.373 . S
C701 C703 1.389 . S
C702 H675 0.950 . S
C702 C688 1.377 . S
C702 C701 1.373 . S
C703 C687 1.377 . S
C703 C701 1.389 . S
C703 C704 1.524 . S
C704 C703 1.524 . S
C704 C705 1.397 . S
C704 C709 1.363 . S
C705 H676 0.950 . S
C705 C704 1.397 . S
C705 C706 1.334 . S
C706 H677 0.950 . S
C706 C705 1.334 . S
C706 C707 1.287 . S
C707 C706 1.287 . S
C707 C708 1.524 . S
C707 H710 0.999 . S
C708 H678 0.950 . S
C708 C707 1.524 . S
C708 C709 1.415 . S
C709 H679 0.950 . S
C709 C704 1.363 . S
C709 C708 1.415 . S
H710 C707 0.999 . S
H711 C692 0.913 . S
H712 C730 0.951 . S
H713 C732 0.951 . S
H714 C734 0.950 . S
H715 C735 0.950 . S
H716 C737 0.950 . S
H717 C740 0.950 . S
H718 C741 0.950 . S
H719 C743 0.950 . S
H720 C744 0.950 . S
H721 C745 0.951 . S
H722 C747 0.951 . S
H723 C749 0.950 . S
H724 C750 0.950 . S
H725 C752 0.950 . S
H726 C755 0.950 . S
H727 C756 0.950 . S
H728 C758 0.950 . S
H729 C759 0.950 . S
C730 H712 0.951 . S
C730 C731 1.366 . S
C730 C732 1.388 . S
C731 C730 1.366 . S
C731 C735 1.385 . S
C732 H713 0.951 . S
C732 C730 1.388 . S
C732 C733 1.366 . S
C733 C732 1.366 . S
C733 C734 1.414 . S
C733 C736 1.499 . S
C734 H714 0.950 . S
C734 C733 1.414 . S
C734 C735 1.374 . S
C735 H715 0.950 . S
C735 C731 1.385 . S
C735 C734 1.374 . S
C736 C733 1.499 . S
C736 C737 1.373 . S
C736 C738 1.389 . S
C737 H716 0.950 . S
C737 C736 1.373 . S
C737 C753 1.377 . S
C738 C736 1.389 . S
C738 C739 1.524 . S
C738 C752 1.377 . S
C739 C738 1.524 . S
C739 C740 1.397 . S
C739 C744 1.363 . S
C740 H717 0.950 . S
C740 C739 1.397 . S
C740 C741 1.334 . S
C741 H718 0.950 . S
C741 C740 1.334 . S
C741 C742 1.287 . S
C742 C741 1.287 . S
C742 C743 1.524 . S
C742 H761 0.913 . S
C743 H719 0.950 . S
C743 C742 1.524 . S
C743 C744 1.415 . S
C744 H720 0.950 . S
C744 C739 1.363 . S
C744 C743 1.415 . S
C745 H721 0.951 . S
C745 C746 1.366 . S
C745 C747 1.388 . S
C746 C745 1.366 . S
C746 C750 1.385 . S
C747 H722 0.951 . S
C747 C745 1.388 . S
C747 C748 1.366 . S
C748 C747 1.366 . S
C748 C749 1.414 . S
C748 C751 1.499 . S
C749 H723 0.950 . S
C749 C748 1.414 . S
C749 C750 1.374 . S
C750 H724 0.950 . S
C750 C746 1.385 . S
C750 C749 1.374 . S
C751 C748 1.499 . S
C751 C752 1.373 . S
C751 C753 1.389 . S
C752 H725 0.950 . S
C752 C738 1.377 . S
C752 C751 1.373 . S
C753 C737 1.377 . S
C753 C751 1.389 . S
C753 C754 1.524 . S
C754 C753 1.524 . S
C754 C755 1.397 . S
C754 C759 1.363 . S
C755 H726 0.950 . S
C755 C754 1.397 . S
C755 C756 1.334 . S
C756 H727 0.950 . S
C756 C755 1.334 . S
C756 C757 1.287 . S
C757 C756 1.287 . S
C757 C758 1.524 . S
C757 H760 0.999 . S
C758 H728 0.950 . S
C758 C757 1.524 . S
C758 C759 1.415 . S
C759 H729 0.950 . S
C759 C754 1.363 . S
C759 C758 1.415 . S
H760 C757 0.999 . S
H761 C742 0.913 . S
H762 C780 0.951 . S
H763 C782 0.951 . S
H764 C784 0.950 . S
H765 C785 0.950 . S
H766 C787 0.950 . S
H767 C790 0.950 . S
H768 C791 0.950 . S
H769 C793 0.950 . S
H770 C794 0.950 . S
H771 C795 0.951 . S
H772 C797 0.951 . S
H773 C799 0.950 . S
H774 C800 0.950 . S
H775 C802 0.950 . S
H776 C805 0.950 . S
H777 C806 0.950 . S
H778 C808 0.950 . S
H779 C809 0.950 . S
C780 H762 0.951 . S
C780 C781 1.366 . S
C780 C782 1.388 . S
C781 C780 1.366 . S
C781 C785 1.385 . S
C782 H763 0.951 . S
C782 C780 1.388 . S
C782 C783 1.366 . S
C783 C782 1.366 . S
C783 C784 1.414 . S
C783 C786 1.499 . S
C784 H764 0.950 . S
C784 C783 1.414 . S
C784 C785 1.374 . S
C785 H765 0.950 . S
C785 C781 1.385 . S
C785 C784 1.374 . S
C786 C783 1.499 . S
C786 C787 1.373 . S
C786 C788 1.389 . S
C787 H766 0.950 . S
C787 C786 1.373 . S
C787 C803 1.377 . S
C788 C786 1.389 . S
C788 C789 1.524 . S
C788 C802 1.377 . S
C789 C788 1.524 . S
C789 C790 1.397 . S
C789 C794 1.363 . S
C790 H767 0.950 . S
C790 C789 1.397 . S
C790 C791 1.334 1_545 S
C791 H768 0.950 . S
C791 C790 1.334 1_565 S
C791 C792 1.287 . S
C792 C791 1.287 . S
C792 C793 1.524 . S
C792 H811 0.913 . S
C793 H769 0.950 . S
C793 C792 1.524 . S
C793 C794 1.415 1_565 S
C794 H770 0.950 . S
C794 C789 1.363 . S
C794 C793 1.415 1_545 S
C795 H771 0.951 . S
C795 C796 1.366 . S
C795 C797 1.388 . S
C796 C795 1.366 . S
C796 C800 1.385 . S
C797 H772 0.951 . S
C797 C795 1.388 . S
C797 C798 1.366 . S
C798 C797 1.366 . S
C798 C799 1.414 . S
C798 C801 1.499 . S
C799 H773 0.950 . S
C799 C798 1.414 . S
C799 C800 1.374 . S
C800 H774 0.950 . S
C800 C796 1.385 . S
C800 C799 1.374 . S
C801 C798 1.499 . S
C801 C802 1.373 . S
C801 C803 1.389 . S
C802 H775 0.950 . S
C802 C788 1.377 . S
C802 C801 1.373 . S
C803 C787 1.377 . S
C803 C801 1.389 . S
C803 C804 1.524 . S
C804 C803 1.524 . S
C804 C805 1.397 . S
C804 C809 1.363 . S
C805 H776 0.950 . S
C805 C804 1.397 . S
C805 C806 1.334 . S
C806 H777 0.950 . S
C806 C805 1.334 . S
C806 C807 1.287 . S
C807 C806 1.287 . S
C807 C808 1.524 . S
C807 H810 0.999 . S
C808 H778 0.950 . S
C808 C807 1.524 . S
C808 C809 1.415 . S
C809 H779 0.950 . S
C809 C804 1.363 . S
C809 C808 1.415 . S
H810 C807 0.999 . S
H811 C792 0.913 . S
H812 C830 0.951 . S
H813 C832 0.951 . S
H814 C834 0.950 . S
H815 C835 0.950 . S
H816 C837 0.950 . S
H817 C840 0.950 . S
H818 C841 0.950 . S
H819 C843 0.950 . S
H820 C844 0.950 . S
H821 C845 0.951 . S
H822 C847 0.951 . S
H823 C849 0.950 . S
H824 C850 0.950 . S
H825 C852 0.950 . S
H826 C855 0.950 . S
H827 C856 0.950 . S
H828 C858 0.950 . S
H829 C859 0.950 . S
C830 H812 0.951 . S
C830 C831 1.366 . S
C830 C832 1.388 . S
C831 C830 1.366 . S
C831 C835 1.385 . S
C832 H813 0.951 . S
C832 C830 1.388 . S
C832 C833 1.366 . S
C833 C832 1.366 . S
C833 C834 1.414 . S
C833 C836 1.499 . S
C834 H814 0.950 . S
C834 C833 1.414 . S
C834 C835 1.374 . S
C835 H815 0.950 . S
C835 C831 1.385 . S
C835 C834 1.374 . S
C836 C833 1.499 . S
C836 C837 1.373 . S
C836 C838 1.389 . S
C837 H816 0.950 . S
C837 C836 1.373 . S
C837 C853 1.377 . S
C838 C836 1.389 . S
C838 C839 1.524 . S
C838 C852 1.377 . S
C839 C838 1.524 . S
C839 C840 1.397 . S
C839 C844 1.363 . S
C840 H817 0.950 . S
C840 C839 1.397 . S
C840 C841 1.334 . S
C841 H818 0.950 . S
C841 C840 1.334 . S
C841 C842 1.287 . S
C842 C841 1.287 . S
C842 C843 1.524 . S
C842 H861 0.913 . S
C843 H819 0.950 . S
C843 C842 1.524 . S
C843 C844 1.415 . S
C844 H820 0.950 . S
C844 C839 1.363 . S
C844 C843 1.415 . S
C845 H821 0.951 . S
C845 C846 1.366 . S
C845 C847 1.388 . S
C846 C845 1.366 . S
C846 C850 1.385 . S
C847 H822 0.951 . S
C847 C845 1.388 . S
C847 C848 1.366 . S
C848 C847 1.366 . S
C848 C849 1.414 . S
C848 C851 1.499 . S
C849 H823 0.950 . S
C849 C848 1.414 . S
C849 C850 1.374 . S
C850 H824 0.950 . S
C850 C846 1.385 . S
C850 C849 1.374 . S
C851 C848 1.499 . S
C851 C852 1.373 . S
C851 C853 1.389 . S
C852 H825 0.950 . S
C852 C838 1.377 . S
C852 C851 1.373 . S
C853 C837 1.377 . S
C853 C851 1.389 . S
C853 C854 1.524 . S
C854 C853 1.524 . S
C854 C855 1.397 . S
C854 C859 1.363 . S
C855 H826 0.950 . S
C855 C854 1.397 . S
C855 C856 1.334 . S
C856 H827 0.950 . S
C856 C855 1.334 . S
C856 C857 1.287 . S
C857 C856 1.287 . S
C857 C858 1.524 . S
C857 H860 0.999 . S
C858 H828 0.950 . S
C858 C857 1.524 . S
C858 C859 1.415 . S
C859 H829 0.950 . S
C859 C854 1.363 . S
C859 C858 1.415 . S
H860 C857 0.999 . S
H861 C842 0.913 . S
H862 C880 0.951 . S
H863 C882 0.951 . S
H864 C884 0.950 . S
H865 C885 0.950 . S
H866 C887 0.950 . S
H867 C890 0.950 . S
H868 C891 0.950 . S
H869 C893 0.950 . S
H870 C894 0.950 . S
H871 C895 0.951 . S
H872 C897 0.951 . S
H873 C899 0.950 . S
H874 C900 0.950 . S
H875 C902 0.950 . S
H876 C905 0.950 . S
H877 C906 0.950 . S
H878 C908 0.950 . S
H879 C909 0.950 1_565 S
C880 H862 0.951 . S
C880 C881 1.366 . S
C880 C882 1.388 . S
C881 C880 1.366 . S
C881 C885 1.385 . S
C882 H863 0.951 . S
C882 C880 1.388 . S
C882 C883 1.366 . S
C883 C882 1.366 . S
C883 C884 1.414 . S
C883 C886 1.499 . S
C884 H864 0.950 . S
C884 C883 1.414 . S
C884 C885 1.374 . S
C885 H865 0.950 . S
C885 C881 1.385 . S
C885 C884 1.374 . S
C886 C883 1.499 . S
C886 C887 1.373 . S
C886 C888 1.389 . S
C887 H866 0.950 . S
C887 C886 1.373 . S
C887 C903 1.377 . S
C888 C886 1.389 . S
C888 C889 1.524 . S
C888 C902 1.377 . S
C889 C888 1.524 . S
C889 C890 1.397 . S
C889 C894 1.363 . S
C890 H867 0.950 . S
C890 C889 1.397 . S
C890 C891 1.334 . S
C891 H868 0.950 . S
C891 C890 1.334 . S
C891 C892 1.287 . S
C892 C891 1.287 . S
C892 C893 1.524 . S
C892 H911 0.913 . S
C893 H869 0.950 . S
C893 C892 1.524 . S
C893 C894 1.415 . S
C894 H870 0.950 . S
C894 C889 1.363 . S
C894 C893 1.415 . S
C895 H871 0.951 . S
C895 C896 1.366 . S
C895 C897 1.388 . S
C896 C895 1.366 . S
C896 C900 1.385 . S
C897 H872 0.951 . S
C897 C895 1.388 . S
C897 C898 1.366 . S
C898 C897 1.366 . S
C898 C899 1.414 . S
C898 C901 1.499 . S
C899 H873 0.950 . S
C899 C898 1.414 . S
C899 C900 1.374 . S
C900 H874 0.950 . S
C900 C896 1.385 . S
C900 C899 1.374 . S
C901 C898 1.499 . S
C901 C902 1.373 . S
C901 C903 1.389 . S
C902 H875 0.950 . S
C902 C888 1.377 . S
C902 C901 1.373 . S
C903 C887 1.377 . S
C903 C901 1.389 . S
C903 C904 1.524 1_565 S
C904 C903 1.524 1_545 S
C904 C905 1.397 . S
C904 C909 1.363 . S
C905 H876 0.950 . S
C905 C904 1.397 . S
C905 C906 1.334 . S
C906 H877 0.950 . S
C906 C905 1.334 . S
C906 C907 1.287 . S
C907 C906 1.287 . S
C907 C908 1.524 . S
C907 H910 0.999 . S
C908 H878 0.950 . S
C908 C907 1.524 . S
C908 C909 1.415 . S
C909 H879 0.950 1_545 S
C909 C904 1.363 . S
C909 C908 1.415 . S
H910 C907 0.999 . S
H911 C892 0.913 . S
C346 C207 1.616 . S
C331 C133 1.635 . S
C381 C25 1.614 . S
C396 C302 1.603 . S
C431 C61 1.615 . S
C446 C218 1.616 . S
C481 C97 1.585 . S
C496 C291 1.603 . S
C546 C202 1.414 . S
C531 C1 1.563 . S
C596 C295 1.606 . S
C581 C67 1.581 . S
C631 C103 1.570 . S
C646 C211 1.599 . S
C681 C109 1.543 . S
C696 C286 1.401 . S
C746 C297 1.401 . S
C731 C37 1.533 . S
C796 C213 1.414 . S
C781 C73 1.549 . S
C846 C284 1.606 . S
C831 C139 1.600 . S
C881 C31 1.597 . S
C896 C200 1.599 . S
