# Generated by pormake.
# Topology ctn, (3,4)-cn, num edge types: 1
# Building blocks:
#     Node 0, Type 0, BuildingBlock: BELTOD_clean_linker_0, # of connection points: 3
#     Node 1, Type 0, BuildingBlock: BELTOD_clean_linker_0, # of connection points: 3
#     Node 2, Type 0, BuildingBlock: BELTOD_clean_linker_0, # of connection points: 3
#     Node 3, Type 0, BuildingBlock: BELTOD_clean_linker_0, # of connection points: 3
#     Node 4, Type 0, BuildingBlock: BELTOD_clean_linker_0, # of connection points: 3
#     Node 5, Type 0, BuildingBlock: BELTOD_clean_linker_0, # of connection points: 3
#     Node 6, Type 0, BuildingBlock: BELTOD_clean_linker_0, # of connection points: 3
#     Node 7, Type 0, BuildingBlock: BELTOD_clean_linker_0, # of connection points: 3
#     Node 8, Type 0, BuildingBlock: BELTOD_clean_linker_0, # of connection points: 3
#     Node 9, Type 0, BuildingBlock: BELTOD_clean_linker_0, # of connection points: 3
#     Node 10, Type 0, BuildingBlock: BELTOD_clean_linker_0, # of connection points: 3
#     Node 11, Type 0, BuildingBlock: BELTOD_clean_linker_0, # of connection points: 3
#     Node 12, Type 0, BuildingBlock: BELTOD_clean_linker_0, # of connection points: 3
#     Node 13, Type 0, BuildingBlock: BELTOD_clean_linker_0, # of connection points: 3
#     Node 14, Type 0, BuildingBlock: BELTOD_clean_linker_0, # of connection points: 3
#     Node 15, Type 0, BuildingBlock: BELTOD_clean_linker_0, # of connection points: 3
#     Node 16, Type 1, BuildingBlock: QUQFOY_clean_sbu_1, # of connection points: 4
#     Node 17, Type 1, BuildingBlock: QUQFOY_clean_sbu_1, # of connection points: 4
#     Node 18, Type 1, BuildingBlock: QUQFOY_clean_sbu_1, # of connection points: 4
#     Node 19, Type 1, BuildingBlock: QUQFOY_clean_sbu_1, # of connection points: 4
#     Node 20, Type 1, BuildingBlock: QUQFOY_clean_sbu_1, # of connection points: 4
#     Node 21, Type 1, BuildingBlock: QUQFOY_clean_sbu_1, # of connection points: 4
#     Node 22, Type 1, BuildingBlock: QUQFOY_clean_sbu_1, # of connection points: 4
#     Node 23, Type 1, BuildingBlock: QUQFOY_clean_sbu_1, # of connection points: 4
#     Node 24, Type 1, BuildingBlock: QUQFOY_clean_sbu_1, # of connection points: 4
#     Node 25, Type 1, BuildingBlock: QUQFOY_clean_sbu_1, # of connection points: 4
#     Node 26, Type 1, BuildingBlock: QUQFOY_clean_sbu_1, # of connection points: 4
#     Node 27, Type 1, BuildingBlock: QUQFOY_clean_sbu_1, # of connection points: 4
#     Edge 28, Type (0, 1), BuildingBlock: TEMPAE_clean_linker_10, # of connection points: 2
#     Edge 29, Type (0, 1), BuildingBlock: TEMPAE_clean_linker_10, # of connection points: 2
#     Edge 30, Type (0, 1), BuildingBlock: TEMPAE_clean_linker_10, # of connection points: 2
#     Edge 31, Type (0, 1), BuildingBlock: TEMPAE_clean_linker_10, # of connection points: 2
#     Edge 32, Type (0, 1), BuildingBlock: TEMPAE_clean_linker_10, # of connection points: 2
#     Edge 33, Type (0, 1), BuildingBlock: TEMPAE_clean_linker_10, # of connection points: 2
#     Edge 34, Type (0, 1), BuildingBlock: TEMPAE_clean_linker_10, # of connection points: 2
#     Edge 35, Type (0, 1), BuildingBlock: TEMPAE_clean_linker_10, # of connection points: 2
#     Edge 36, Type (0, 1), BuildingBlock: TEMPAE_clean_linker_10, # of connection points: 2
#     Edge 37, Type (0, 1), BuildingBlock: TEMPAE_clean_linker_10, # of connection points: 2
#     Edge 38, Type (0, 1), BuildingBlock: TEMPAE_clean_linker_10, # of connection points: 2
#     Edge 39, Type (0, 1), BuildingBlock: TEMPAE_clean_linker_10, # of connection points: 2
#     Edge 40, Type (0, 1), BuildingBlock: TEMPAE_clean_linker_10, # of connection points: 2
#     Edge 41, Type (0, 1), BuildingBlock: TEMPAE_clean_linker_10, # of connection points: 2
#     Edge 42, Type (0, 1), BuildingBlock: TEMPAE_clean_linker_10, # of connection points: 2
#     Edge 43, Type (0, 1), BuildingBlock: TEMPAE_clean_linker_10, # of connection points: 2
#     Edge 44, Type (0, 1), BuildingBlock: TEMPAE_clean_linker_10, # of connection points: 2
#     Edge 45, Type (0, 1), BuildingBlock: TEMPAE_clean_linker_10, # of connection points: 2
#     Edge 46, Type (0, 1), BuildingBlock: TEMPAE_clean_linker_10, # of connection points: 2
#     Edge 47, Type (0, 1), BuildingBlock: TEMPAE_clean_linker_10, # of connection points: 2
#     Edge 48, Type (0, 1), BuildingBlock: TEMPAE_clean_linker_10, # of connection points: 2
#     Edge 49, Type (0, 1), BuildingBlock: TEMPAE_clean_linker_10, # of connection points: 2
#     Edge 50, Type (0, 1), BuildingBlock: TEMPAE_clean_linker_10, # of connection points: 2
#     Edge 51, Type (0, 1), BuildingBlock: TEMPAE_clean_linker_10, # of connection points: 2
#     Edge 52, Type (0, 1), BuildingBlock: TEMPAE_clean_linker_10, # of connection points: 2
#     Edge 53, Type (0, 1), BuildingBlock: TEMPAE_clean_linker_10, # of connection points: 2
#     Edge 54, Type (0, 1), BuildingBlock: TEMPAE_clean_linker_10, # of connection points: 2
#     Edge 55, Type (0, 1), BuildingBlock: TEMPAE_clean_linker_10, # of connection points: 2
#     Edge 56, Type (0, 1), BuildingBlock: TEMPAE_clean_linker_10, # of connection points: 2
#     Edge 57, Type (0, 1), BuildingBlock: TEMPAE_clean_linker_10, # of connection points: 2
#     Edge 58, Type (0, 1), BuildingBlock: TEMPAE_clean_linker_10, # of connection points: 2
#     Edge 59, Type (0, 1), BuildingBlock: TEMPAE_clean_linker_10, # of connection points: 2
#     Edge 60, Type (0, 1), BuildingBlock: TEMPAE_clean_linker_10, # of connection points: 2
#     Edge 61, Type (0, 1), BuildingBlock: TEMPAE_clean_linker_10, # of connection points: 2
#     Edge 62, Type (0, 1), BuildingBlock: TEMPAE_clean_linker_10, # of connection points: 2
#     Edge 63, Type (0, 1), BuildingBlock: TEMPAE_clean_linker_10, # of connection points: 2
#     Edge 64, Type (0, 1), BuildingBlock: TEMPAE_clean_linker_10, # of connection points: 2
#     Edge 65, Type (0, 1), BuildingBlock: TEMPAE_clean_linker_10, # of connection points: 2
#     Edge 66, Type (0, 1), BuildingBlock: TEMPAE_clean_linker_10, # of connection points: 2
#     Edge 67, Type (0, 1), BuildingBlock: TEMPAE_clean_linker_10, # of connection points: 2
#     Edge 68, Type (0, 1), BuildingBlock: TEMPAE_clean_linker_10, # of connection points: 2
#     Edge 69, Type (0, 1), BuildingBlock: TEMPAE_clean_linker_10, # of connection points: 2
#     Edge 70, Type (0, 1), BuildingBlock: TEMPAE_clean_linker_10, # of connection points: 2
#     Edge 71, Type (0, 1), BuildingBlock: TEMPAE_clean_linker_10, # of connection points: 2
#     Edge 72, Type (0, 1), BuildingBlock: TEMPAE_clean_linker_10, # of connection points: 2
#     Edge 73, Type (0, 1), BuildingBlock: TEMPAE_clean_linker_10, # of connection points: 2
#     Edge 74, Type (0, 1), BuildingBlock: TEMPAE_clean_linker_10, # of connection points: 2
#     Edge 75, Type (0, 1), BuildingBlock: TEMPAE_clean_linker_10, # of connection points: 2
# Relax obj value: 0.037
# Max RMSD: 0.151
# Mean RMSD: 0.067
data_MOF--net-ctn--node1-QUQFOY_clean_sbu_1--node2-BELTOD_clean_linker_0--edge1-TEMPAE_clean_linker_10
_symmetry_space_group_name_H-M    P1
_symmetry_Int_Tables_number       1
_symmetry_cell_setting            triclinic
loop_
_symmetry_equiv_pos_as_xyz
'x, y, z'
_cell_length_a     62.704141
_cell_length_b     63.13388
_cell_length_c     62.685708
_cell_angle_alpha  92.129213
_cell_angle_beta   90.144408
_cell_angle_gamma 95.46918
loop_
_atom_site_label
_atom_site_type_symbol
_atom_site_fract_x
_atom_site_fract_y
_atom_site_fract_z
_atom_type_partial_charge
P0 P 0.08515 0.11673 0.10531 0.0
H1 H 0.07393 0.1291 0.14916 0.0
H2 H 0.0414 0.12188 0.17016 0.0
H3 H 0.01097 0.08654 0.11614 0.0
H4 H 0.04337 0.09409 0.09521 0.0
H5 H 0.11913 0.10669 0.07641 0.0
H6 H 0.1344 0.07359 0.06636 0.0
H7 H 0.09215 0.03979 0.11063 0.0
H8 H 0.07685 0.07295 0.12053 0.0
H9 H 0.08715 0.16121 0.09341 0.0
H10 H 0.06797 0.09941 0.0642 0.0
O11 O 0.10327 0.13285 0.11912 0.0
H12 H 0.07625 0.17815 0.06122 0.0
H13 H 0.05623 0.11616 0.03233 0.0
C14 C 0.06101 0.11222 0.1206 0.0
C15 C 0.0602 0.11996 0.14179 0.0
C16 C 0.04162 0.11575 0.1538 0.0
C17 C 0.02358 0.10368 0.1448 0.0
C18 C 0.02443 0.0962 0.12344 0.0
C19 C 0.04299 0.10042 0.11147 0.0
C20 C 0.09663 0.09223 0.09891 0.0
C21 C 0.11319 0.09216 0.08397 0.0
C22 C 0.12199 0.07326 0.07835 0.0
C23 C 0.11444 0.05406 0.08768 0.0
C24 C 0.09809 0.05428 0.10297 0.0
C25 C 0.08935 0.07325 0.10865 0.0
C26 C 0.0786 0.12908 0.08106 0.0
C27 C 0.08072 0.15129 0.08 0.0
C28 C 0.07431 0.16095 0.06165 0.0
C29 C 0.06533 0.14853 0.04415 0.0
C30 C 0.06341 0.12621 0.04531 0.0
C31 C 0.06998 0.1166 0.0636 0.0
P32 P 0.31122 0.70685 0.18746 0.0
H33 H 0.32346 0.73358 0.15173 0.0
H34 H 0.30754 0.76337 0.13615 0.0
H35 H 0.25978 0.76129 0.18573 0.0
H36 H 0.27608 0.7317 0.20155 0.0
H37 H 0.34967 0.68808 0.20035 0.0
H38 H 0.37418 0.69548 0.23054 0.0
H39 H 0.34081 0.75 0.24944 0.0
H40 H 0.31574 0.74176 0.21986 0.0
H41 H 0.26603 0.69605 0.17586 0.0
H42 H 0.31079 0.67676 0.22214 0.0
O43 O 0.32251 0.69397 0.16738 0.0
H44 H 0.23751 0.67221 0.19128 0.0
H45 H 0.28252 0.65247 0.23697 0.0
C46 C 0.30052 0.73001 0.17735 0.0
C47 C 0.30967 0.73962 0.15935 0.0
C48 C 0.30066 0.75673 0.15056 0.0
C49 C 0.28232 0.76449 0.15966 0.0
C50 C 0.27374 0.75542 0.17828 0.0
C51 C 0.28299 0.7385 0.18724 0.0
C52 C 0.33111 0.71456 0.20768 0.0
C53 C 0.34786 0.70182 0.21083 0.0
C54 C 0.3619 0.7061 0.22811 0.0
C55 C 0.3595 0.72334 0.2425 0.0
C56 C 0.34294 0.73639 0.23892 0.0
C57 C 0.32873 0.73187 0.2218 0.0
C58 C 0.29038 0.68887 0.19836 0.0
C59 C 0.26971 0.68691 0.18944 0.0
C60 C 0.25346 0.67325 0.19816 0.0
C61 C 0.25788 0.6608 0.21542 0.0
C62 C 0.27877 0.66206 0.22373 0.0
C63 C 0.29489 0.67604 0.21529 0.0
P64 P 0.96552 0.4818 0.04414 0.0
H65 H 0.96124 0.46558 0.00013 0.0
H66 H 0.95371 0.42975 0.98428 0.0
H67 H 0.94375 0.4049 0.04718 0.0
H68 H 0.95149 0.4409 0.06296 0.0
H69 H 0.96128 0.52188 0.0675 0.0
H70 H 0.93241 0.54529 0.06989 0.0
H71 H 0.89259 0.50034 0.02979 0.0
H72 H 0.92116 0.4768 0.02813 0.0
H73 H 0.0095 0.47386 0.05294 0.0
H74 H 0.95233 0.48229 0.08909 0.0
O75 O 0.98239 0.49465 0.02739 0.0
H76 H 0.02949 0.47092 0.08607 0.0
H77 H 0.97231 0.48021 0.12231 0.0
C78 C 0.95748 0.45575 0.03269 0.0
C79 C 0.95727 0.45245 0.0105 0.0
C80 C 0.95275 0.43198 0.00146 0.0
C81 C 0.94826 0.41448 0.01451 0.0
C82 C 0.94743 0.41804 0.03676 0.0
C83 C 0.95186 0.43859 0.04577 0.0
C84 C 0.94325 0.49746 0.04795 0.0
C85 C 0.94614 0.51688 0.05963 0.0
C86 C 0.92969 0.53033 0.06084 0.0
C87 C 0.91016 0.5247 0.05005 0.0
C88 C 0.90725 0.505 0.03865 0.0
C89 C 0.92366 0.49153 0.03758 0.0
C90 C 0.97969 0.47904 0.06866 0.0
C91 C 0.00131 0.47524 0.06805 0.0
C92 C 0.0127 0.47356 0.08698 0.0
C93 C 0.00257 0.4756 0.10685 0.0
C94 C 0.98058 0.47844 0.1073 0.0
C95 C 0.96919 0.47997 0.08833 0.0
P96 P 0.6795 0.82086 0.20829 0.0
H97 H 0.6896 0.86162 0.18836 0.0
H98 H 0.71654 0.89146 0.19609 0.0
H99 H 0.74118 0.85715 0.24778 0.0
H100 H 0.71471 0.82703 0.23927 0.0
H101 H 0.6798 0.81403 0.16224 0.0
H102 H 0.6945 0.78744 0.13881 0.0
H103 H 0.71978 0.75846 0.19365 0.0
H104 H 0.70489 0.78532 0.21716 0.0
H105 H 0.67349 0.84026 0.25058 0.0
H106 H 0.65977 0.77859 0.21896 0.0
O107 O 0.65925 0.83011 0.19531 0.0
H108 H 0.65467 0.8274 0.28219 0.0
H109 H 0.64108 0.76548 0.25078 0.0
C110 C 0.69985 0.84241 0.21363 0.0
C111 C 0.70082 0.86054 0.20135 0.0
C112 C 0.71617 0.87764 0.20587 0.0
C113 C 0.73085 0.87687 0.22277 0.0
C114 C 0.73022 0.85828 0.23458 0.0
C115 C 0.71498 0.84111 0.22989 0.0
C116 C 0.69076 0.80124 0.19142 0.0
C117 C 0.68845 0.80194 0.16925 0.0
C118 C 0.69705 0.78685 0.15586 0.0
C119 C 0.70827 0.77084 0.1644 0.0
C120 C 0.71101 0.77048 0.18666 0.0
C121 C 0.7025 0.78575 0.20007 0.0
C122 C 0.66867 0.8102 0.23264 0.0
C123 C 0.66706 0.82373 0.25068 0.0
C124 C 0.6563 0.81634 0.2688 0.0
C125 C 0.64656 0.79535 0.26908 0.0
C126 C 0.64846 0.78172 0.25106 0.0
C127 C 0.65929 0.78915 0.23293 0.0
P128 P 0.07519 0.93029 0.42085 0.0
H129 H 0.12179 0.93589 0.4256 0.0
H130 H 0.14685 0.96689 0.43573 0.0
H131 H 0.09375 0.00539 0.44278 0.0
H132 H 0.06887 0.97445 0.43283 0.0
H133 H 0.08189 0.88798 0.43578 0.0
H134 H 0.07338 0.87054 0.46923 0.0
H135 H 0.04452 0.9263 0.49283 0.0
H136 H 0.05376 0.94386 0.45954 0.0
H137 H 0.07191 0.95735 0.38491 0.0
H138 H 0.02831 0.92234 0.42692 0.0
O139 O 0.08708 0.91404 0.40407 0.0
H140 H 0.04173 0.97164 0.36758 0.0
H141 H 0.99808 0.93703 0.41003 0.0
C142 C 0.09359 0.95306 0.42788 0.0
C143 C 0.11561 0.95106 0.42918 0.0
C144 C 0.12986 0.9687 0.43509 0.0
C145 C 0.12222 0.98857 0.43979 0.0
C146 C 0.10009 0.99037 0.43883 0.0
C147 C 0.08588 0.9727 0.43313 0.0
C148 C 0.06821 0.9171 0.44513 0.0
C149 C 0.0737 0.89643 0.44813 0.0
C150 C 0.06876 0.88645 0.46726 0.0
C151 C 0.0582 0.89699 0.48372 0.0
C152 C 0.0529 0.91782 0.48063 0.0
C153 C 0.05798 0.92782 0.46155 0.0
C154 C 0.05241 0.93913 0.40745 0.0
C155 C 0.05583 0.95277 0.39042 0.0
C156 C 0.03858 0.96107 0.38066 0.0
C157 C 0.01754 0.95574 0.38767 0.0
C158 C 0.0141 0.94145 0.40428 0.0
C159 C 0.03141 0.93315 0.41405 0.0
P160 P 0.25597 0.77243 0.77329 0.0
H161 H 0.25772 0.81628 0.79022 0.0
H162 H 0.2457 0.83203 0.82382 0.0
H163 H 0.2252 0.76919 0.84545 0.0
H164 H 0.23716 0.75357 0.81179 0.0
H165 H 0.25395 0.73314 0.74655 0.0
H166 H 0.27071 0.69997 0.74976 0.0
H167 H 0.29926 0.72381 0.80988 0.0
H168 H 0.28319 0.75714 0.80604 0.0
H169 H 0.24531 0.78933 0.73194 0.0
H170 H 0.21367 0.7501 0.77954 0.0
O171 O 0.27465 0.78896 0.76204 0.0
H172 H 0.2112 0.78968 0.71279 0.0
H173 H 0.17954 0.75087 0.76075 0.0
C174 C 0.24879 0.78376 0.79874 0.0
C175 C 0.2509 0.80589 0.80231 0.0
C176 C 0.24399 0.81486 0.82148 0.0
C177 C 0.23456 0.80182 0.83728 0.0
C178 C 0.23225 0.77964 0.83351 0.0
C179 C 0.23928 0.77069 0.81438 0.0
C180 C 0.26687 0.74736 0.77634 0.0
C181 C 0.26366 0.73111 0.7605 0.0
C182 C 0.27323 0.71212 0.76239 0.0
C183 C 0.28629 0.70913 0.78014 0.0
C184 C 0.28952 0.7256 0.79589 0.0
C185 C 0.28009 0.7446 0.79387 0.0
C186 C 0.23195 0.76987 0.75728 0.0
C187 C 0.23112 0.78059 0.73814 0.0
C188 C 0.21166 0.78079 0.72721 0.0
C189 C 0.19278 0.77053 0.73548 0.0
C190 C 0.19386 0.75914 0.75422 0.0
C191 C 0.21334 0.75866 0.76492 0.0
P192 P 0.96309 0.5405 0.51492 0.0
H193 H 0.99706 0.57019 0.49805 0.0
H194 H 0.01489 0.57231 0.46373 0.0
H195 H 0.97652 0.51511 0.44147 0.0
H196 H 0.95749 0.51435 0.47496 0.0
H197 H 0.96841 0.55521 0.55949 0.0
H198 H 0.96791 0.5903 0.57736 0.0
H199 H 0.95591 0.61758 0.51681 0.0
H200 H 0.95614 0.58238 0.49906 0.0
H201 H 0.94572 0.4965 0.50651 0.0
H202 H 0.92079 0.55683 0.52044 0.0
O203 O 0.97764 0.52559 0.52957 0.0
H204 H 0.90943 0.47935 0.5032 0.0
H205 H 0.88465 0.53956 0.51962 0.0
C206 C 0.97538 0.54252 0.48901 0.0
C207 C 0.99202 0.55847 0.48557 0.0
C208 C 0.00251 0.55944 0.46596 0.0
C209 C 0.99723 0.54389 0.44964 0.0
C210 C 0.98073 0.52773 0.45333 0.0
C211 C 0.96987 0.52714 0.47273 0.0
C212 C 0.96307 0.56639 0.52789 0.0
C213 C 0.9658 0.56876 0.55006 0.0
C214 C 0.9653 0.58874 0.56026 0.0
C215 C 0.96202 0.60662 0.5484 0.0
C216 C 0.95878 0.60409 0.52624 0.0
C217 C 0.95903 0.58405 0.51611 0.0
C218 C 0.93606 0.52798 0.51342 0.0
C219 C 0.93242 0.50604 0.50899 0.0
C220 C 0.91155 0.49619 0.50746 0.0
C221 C 0.89383 0.50795 0.51121 0.0
C222 C 0.89768 0.52995 0.51606 0.0
C223 C 0.91854 0.53989 0.51683 0.0
P224 P 0.82079 0.85975 0.84484 0.0
H225 H 0.85251 0.88563 0.82079 0.0
H226 H 0.87763 0.87694 0.79274 0.0
H227 H 0.85402 0.81045 0.7953 0.0
H228 H 0.82848 0.8194 0.82265 0.0
H229 H 0.78208 0.87134 0.86546 0.0
H230 H 0.75015 0.88624 0.85249 0.0
H231 H 0.77518 0.88473 0.78836 0.0
H232 H 0.80715 0.8698 0.80145 0.0
H233 H 0.84256 0.84159 0.87992 0.0
H234 H 0.78438 0.82687 0.84331 0.0
O235 O 0.83308 0.87896 0.86072 0.0
H236 H 0.83384 0.81001 0.90082 0.0
H237 H 0.7751 0.79579 0.8646 0.0
C238 C 0.83896 0.85312 0.82405 0.0
C239 C 0.85279 0.86919 0.81527 0.0
C240 C 0.8672 0.86418 0.79932 0.0
C241 C 0.86799 0.84296 0.79189 0.0
C242 C 0.85373 0.82697 0.8005 0.0
C243 C 0.83923 0.83205 0.81632 0.0
C244 C 0.79694 0.86943 0.83445 0.0
C245 C 0.78058 0.87399 0.84857 0.0
C246 C 0.76228 0.88235 0.84111 0.0
C247 C 0.76011 0.88652 0.81938 0.0
C248 C 0.77646 0.88171 0.80519 0.0
C249 C 0.79473 0.87318 0.81267 0.0
C250 C 0.81384 0.83685 0.8605 0.0
C251 C 0.82776 0.83171 0.8766 0.0
C252 C 0.82271 0.8137 0.88856 0.0
C253 C 0.80366 0.80047 0.88452 0.0
C254 C 0.78996 0.80553 0.86805 0.0
C255 C 0.79511 0.82347 0.85603 0.0
P256 P 0.32684 0.37211 0.35331 0.0
H257 H 0.35563 0.39394 0.32331 0.0
H258 H 0.37892 0.38131 0.29529 0.0
H259 H 0.35784 0.31625 0.30981 0.0
H260 H 0.33411 0.32897 0.33712 0.0
H261 H 0.30846 0.41197 0.36372 0.0
H262 H 0.27842 0.42861 0.34877 0.0
H263 H 0.26726 0.37622 0.3026 0.0
H264 H 0.29776 0.35975 0.31741 0.0
H265 H 0.34734 0.3491 0.38562 0.0
H266 H 0.28451 0.34763 0.35707 0.0
O267 O 0.34192 0.39006 0.36841 0.0
H268 H 0.33512 0.31835 0.40653 0.0
H269 H 0.27216 0.31722 0.37808 0.0
C270 C 0.34343 0.36243 0.3325 0.0
C271 C 0.35603 0.37696 0.32038 0.0
C272 C 0.36941 0.36972 0.30447 0.0
C273 C 0.37039 0.34776 0.30042 0.0
C274 C 0.35735 0.33326 0.31237 0.0
C275 C 0.3439 0.34053 0.32819 0.0
C276 C 0.30542 0.38476 0.34153 0.0
C277 C 0.29977 0.40418 0.35021 0.0
C278 C 0.28264 0.41368 0.34164 0.0
C279 C 0.27065 0.40372 0.32447 0.0
C280 C 0.27628 0.38419 0.31582 0.0
C281 C 0.29369 0.37486 0.3242 0.0
C282 C 0.31683 0.35081 0.36996 0.0
C283 C 0.33084 0.34237 0.3841 0.0
C284 C 0.32382 0.32483 0.39605 0.0
C285 C 0.30266 0.31537 0.39396 0.0
C286 C 0.28862 0.32401 0.37987 0.0
C287 C 0.29566 0.34155 0.36793 0.0
P288 P 0.45837 0.99396 0.55384 0.0
H289 H 0.46126 0.98113 0.50887 0.0
H290 H 0.45825 0.94641 0.49005 0.0
H291 H 0.44188 0.91598 0.54919 0.0
H292 H 0.44494 0.95076 0.56795 0.0
H293 H 0.44646 0.02676 0.58435 0.0
H294 H 0.4158 0.04793 0.58602 0.0
H295 H 0.38698 0.01088 0.53222 0.0
H296 H 0.41733 0.9895 0.53105 0.0
H297 H 0.50323 0.00153 0.56655 0.0
H298 H 0.44337 0.97939 0.5956 0.0
O299 O 0.47416 0.01019 0.53894 0.0
H300 H 0.52187 0.99832 0.60011 0.0
H301 H 0.46212 0.97461 0.62907 0.0
C302 C 0.45391 0.96849 0.53991 0.0
C303 C 0.45691 0.96701 0.51779 0.0
C304 C 0.45501 0.94717 0.50701 0.0
C305 C 0.45001 0.92848 0.51821 0.0
C306 C 0.44607 0.93011 0.54024 0.0
C307 C 0.44785 0.95 0.55097 0.0
C308 C 0.43397 0.00628 0.55786 0.0
C309 C 0.43321 0.02278 0.57335 0.0
C310 C 0.41577 0.03501 0.57416 0.0
C311 C 0.39894 0.03113 0.55924 0.0
C312 C 0.39946 0.01406 0.5442 0.0
C313 C 0.41687 0.00183 0.54347 0.0
C314 C 0.47191 0.99097 0.5787 0.0
C315 C 0.49411 0.99577 0.58015 0.0
C316 C 0.50482 0.99359 0.59935 0.0
C317 C 0.49358 0.98606 0.6174 0.0
C318 C 0.47129 0.98074 0.61566 0.0
C319 C 0.46055 0.98333 0.5965 0.0
P320 P 0.17539 0.33126 0.703 0.0
H321 H 0.21174 0.35227 0.68103 0.0
H322 H 0.24002 0.37991 0.69239 0.0
H323 H 0.215 0.37914 0.75649 0.0
H324 H 0.18654 0.35195 0.74503 0.0
H325 H 0.16236 0.31465 0.66039 0.0
H326 H 0.17513 0.28693 0.63687 0.0
H327 H 0.22185 0.27458 0.68444 0.0
H328 H 0.20927 0.30279 0.70788 0.0
H329 H 0.13005 0.32855 0.71397 0.0
H330 H 0.18793 0.30727 0.73953 0.0
O331 O 0.15926 0.34515 0.68898 0.0
H332 H 0.10985 0.31368 0.74389 0.0
H333 H 0.16761 0.29183 0.76948 0.0
C334 C 0.19737 0.34967 0.71227 0.0
C335 C 0.21253 0.35785 0.69759 0.0
C336 C 0.22856 0.3737 0.70404 0.0
C337 C 0.22968 0.38153 0.72532 0.0
C338 C 0.21462 0.37313 0.74006 0.0
C339 C 0.19841 0.35751 0.73352 0.0
C340 C 0.18494 0.31082 0.68583 0.0
C341 C 0.17543 0.30611 0.66577 0.0
C342 C 0.18276 0.2903 0.65231 0.0
C343 C 0.19954 0.27873 0.65883 0.0
C344 C 0.20884 0.28324 0.6791 0.0
C345 C 0.20167 0.2993 0.69246 0.0
C346 C 0.16051 0.31913 0.72459 0.0
C347 C 0.13841 0.3205 0.72592 0.0
C348 C 0.12682 0.31181 0.74298 0.0
C349 C 0.13712 0.30148 0.75902 0.0
C350 C 0.15927 0.29981 0.75744 0.0
C351 C 0.17085 0.30849 0.74028 0.0
P352 P 0.81492 0.19576 0.67918 0.0
H353 H 0.82117 0.21389 0.63719 0.0
H354 H 0.80534 0.24258 0.61962 0.0
H355 H 0.76985 0.25562 0.67682 0.0
H356 H 0.78574 0.22682 0.69436 0.0
H357 H 0.85336 0.17703 0.69226 0.0
H358 H 0.87814 0.18498 0.72216 0.0
H359 H 0.84647 0.24115 0.73889 0.0
H360 H 0.82126 0.23256 0.70961 0.0
H361 H 0.76792 0.19023 0.67404 0.0
H362 H 0.81595 0.1642 0.71208 0.0
O363 O 0.82517 0.18055 0.66022 0.0
H364 H 0.73985 0.16864 0.69256 0.0
H365 H 0.78789 0.14211 0.73002 0.0
C366 C 0.80449 0.21809 0.667 0.0
C367 C 0.81004 0.22293 0.646 0.0
C368 C 0.8009 0.23926 0.63593 0.0
C369 C 0.78616 0.25116 0.64678 0.0
C370 C 0.78119 0.24676 0.6681 0.0
C371 C 0.79028 0.23032 0.67812 0.0
C372 C 0.83555 0.20429 0.69851 0.0
C373 C 0.852 0.19127 0.70213 0.0
C374 C 0.86619 0.19586 0.71926 0.0
C375 C 0.86424 0.21365 0.73306 0.0
C376 C 0.8482 0.22709 0.72885 0.0
C377 C 0.83387 0.22233 0.71187 0.0
C378 C 0.79406 0.17957 0.69228 0.0
C379 C 0.77249 0.18019 0.68655 0.0
C380 C 0.75643 0.16777 0.69704 0.0
C381 C 0.7618 0.15401 0.71285 0.0
C382 C 0.78341 0.15275 0.71797 0.0
C383 C 0.79942 0.16546 0.70778 0.0
P384 P 0.58176 0.61265 0.60333 0.0
H385 H 0.57702 0.60022 0.64734 0.0
H386 H 0.54587 0.59176 0.66979 0.0
H387 H 0.50435 0.60707 0.6185 0.0
H388 H 0.53546 0.61414 0.59582 0.0
H389 H 0.62185 0.60276 0.58403 0.0
H390 H 0.63577 0.56947 0.57243 0.0
H391 H 0.57841 0.53434 0.59564 0.0
H392 H 0.56416 0.56775 0.60599 0.0
H393 H 0.56649 0.65414 0.59856 0.0
H394 H 0.58214 0.60197 0.55696 0.0
O395 O 0.60064 0.62779 0.61714 0.0
H396 H 0.55484 0.6727 0.56784 0.0
H397 H 0.5719 0.62096 0.52604 0.0
C398 C 0.55862 0.60819 0.62009 0.0
C399 C 0.56119 0.60191 0.64104 0.0
C400 C 0.54333 0.59722 0.6539 0.0
C401 C 0.5225 0.59889 0.64607 0.0
C402 C 0.52007 0.60539 0.62503 0.0
C403 C 0.53794 0.60972 0.61209 0.0
C404 C 0.59212 0.58776 0.59606 0.0
C405 C 0.61235 0.58786 0.58668 0.0
C406 C 0.62034 0.56875 0.58021 0.0
C407 C 0.60831 0.54909 0.58323 0.0
C408 C 0.58803 0.54912 0.59281 0.0
C409 C 0.57993 0.56828 0.59898 0.0
C410 C 0.5752 0.62673 0.5801 0.0
C411 C 0.56781 0.64688 0.58274 0.0
C412 C 0.56131 0.65755 0.56509 0.0
C413 C 0.56246 0.6484 0.54433 0.0
C414 C 0.57045 0.62837 0.54176 0.0
C415 C 0.57656 0.61755 0.55949 0.0
P416 P 0.56615 0.42861 0.93547 0.0
H417 H 0.59809 0.45204 0.90953 0.0
H418 H 0.62525 0.48171 0.9178 0.0
H419 H 0.606 0.48139 0.98396 0.0
H420 H 0.57925 0.45159 0.97565 0.0
H421 H 0.58489 0.39309 0.95416 0.0
H422 H 0.577 0.37342 0.98659 0.0
H423 H 0.52493 0.41185 0.00046 0.0
H424 H 0.53306 0.43156 0.96825 0.0
H425 H 0.54799 0.46882 0.94591 0.0
H426 H 0.5337 0.414 0.9034 0.0
O427 O 0.57504 0.41245 0.91652 0.0
H428 H 0.51754 0.48521 0.9315 0.0
H429 H 0.50351 0.43046 0.88854 0.0
C430 C 0.58703 0.44933 0.94204 0.0
C431 C 0.59996 0.45819 0.92586 0.0
C432 C 0.61532 0.47526 0.93057 0.0
C433 C 0.61782 0.48383 0.95155 0.0
C434 C 0.60473 0.47488 0.96772 0.0
C435 C 0.58941 0.45784 0.96298 0.0
C436 C 0.55927 0.41343 0.95857 0.0
C437 C 0.57165 0.39711 0.96409 0.0
C438 C 0.56714 0.3859 0.98261 0.0
C439 C 0.55032 0.39107 0.99604 0.0
C440 C 0.5381 0.40763 0.99053 0.0
C441 C 0.54259 0.41876 0.97198 0.0
C442 C 0.54334 0.4404 0.92537 0.0
C443 C 0.53836 0.46036 0.93338 0.0
C444 C 0.52096 0.46973 0.92512 0.0
C445 C 0.50816 0.45922 0.90878 0.0
C446 C 0.51289 0.43891 0.90127 0.0
C447 C 0.53027 0.42955 0.90959 0.0
P448 P 0.75996 0.27248 0.27309 0.0
H449 H 0.78522 0.29263 0.30866 0.0
H450 H 0.77576 0.30463 0.34466 0.0
H451 H 0.70953 0.28195 0.33204 0.0
H452 H 0.71923 0.26944 0.29641 0.0
H453 H 0.79861 0.25615 0.25542 0.0
H454 H 0.81407 0.22225 0.25862 0.0
H455 H 0.75978 0.19867 0.29607 0.0
H456 H 0.74446 0.23274 0.29301 0.0
H457 H 0.73958 0.30699 0.25498 0.0
H458 H 0.72878 0.2385 0.25477 0.0
O459 O 0.77898 0.29031 0.2643 0.0
H460 H 0.70563 0.30851 0.23613 0.0
H461 H 0.6946 0.2399 0.23641 0.0
C462 C 0.75287 0.28068 0.29971 0.0
C463 C 0.76868 0.29027 0.31368 0.0
C464 C 0.76322 0.29717 0.33421 0.0
C465 C 0.74183 0.29449 0.34113 0.0
C466 C 0.72615 0.28418 0.32726 0.0
C467 C 0.73166 0.27722 0.30677 0.0
C468 C 0.77042 0.24695 0.27403 0.0
C469 C 0.78998 0.24368 0.26426 0.0
C470 C 0.79885 0.22436 0.26617 0.0
C471 C 0.78816 0.20789 0.27767 0.0
C472 C 0.7683 0.21105 0.28701 0.0
C473 C 0.75957 0.23049 0.28531 0.0
C474 C 0.73683 0.27265 0.25606 0.0
C475 C 0.73007 0.29225 0.25053 0.0
C476 C 0.71057 0.29311 0.23995 0.0
C477 C 0.69736 0.27433 0.23486 0.0
C478 C 0.70452 0.25463 0.23986 0.0
C479 C 0.72407 0.25381 0.25045 0.0
P480 P 0.47279 0.03035 0.02576 0.0
H481 H 0.50554 0.06189 0.00923 0.0
H482 H 0.52251 0.06558 0.97457 0.0
H483 H 0.48716 0.00668 0.95217 0.0
H484 H 0.46897 0.00418 0.9863 0.0
H485 H 0.47564 0.04217 0.07115 0.0
H486 H 0.47421 0.07611 0.09107 0.0
H487 H 0.4654 0.10738 0.032 0.0
H488 H 0.46656 0.07337 0.01219 0.0
H489 H 0.45449 0.98608 0.02616 0.0
H490 H 0.43195 0.0476 0.01705 0.0
O491 O 0.48694 0.01469 0.03995 0.0
H492 H 0.41785 0.96926 0.02155 0.0
H493 H 0.39536 0.03091 0.01268 0.0
C494 C 0.48529 0.03325 0.0001 0.0
C495 C 0.50097 0.05011 0.99667 0.0
C496 C 0.51098 0.05198 0.97686 0.0
C497 C 0.50616 0.03652 0.96035 0.0
C498 C 0.49086 0.01929 0.96417 0.0
C499 C 0.4805 0.01773 0.98381 0.0
C500 C 0.47196 0.05543 0.04017 0.0
C501 C 0.47352 0.05635 0.06248 0.0
C502 C 0.47252 0.07567 0.07385 0.0
C503 C 0.46989 0.09434 0.06301 0.0
C504 C 0.46779 0.09326 0.04068 0.0
C505 C 0.46855 0.07389 0.02937 0.0
C506 C 0.44585 0.01812 0.02248 0.0
C507 C 0.44166 0.99597 0.02331 0.0
C508 C 0.42079 0.98638 0.02051 0.0
C509 C 0.40382 0.99884 0.01689 0.0
C510 C 0.40814 0.021 0.01573 0.0
C511 C 0.42904 0.03054 0.01828 0.0
O512 O 0.21763 0.86542 0.99389 0.0
Cd513 Cd 0.22837 0.88032 0.02232 0.0
Cd514 Cd 0.20957 0.91305 0.00345 0.0
O515 O 0.20144 0.89082 0.97927 0.0
O516 O 0.24209 0.85646 0.03465 0.0
O517 O 0.2165 0.87203 0.05129 0.0
C518 C 0.23005 0.85787 0.05109 0.0
C519 C 0.18431 0.93252 0.02013 0.0
C520 C 0.20722 0.87207 0.97847 0.0
C521 C 0.25626 0.92072 0.01253 0.0
O522 O 0.24033 0.92761 0.00344 0.0
O523 O 0.2543 0.90289 0.02141 0.0
O524 O 0.19062 0.93626 0.00095 0.0
O525 O 0.19178 0.91694 0.02965 0.0
O526 O 0.14624 0.54727 0.2898 0.0
Cd527 Cd 0.12898 0.51967 0.29926 0.0
Cd528 Cd 0.09914 0.53336 0.27211 0.0
O529 O 0.12441 0.55449 0.26401 0.0
O530 O 0.15012 0.50565 0.31601 0.0
O531 O 0.13636 0.49192 0.28545 0.0
C532 C 0.14922 0.49072 0.30139 0.0
C533 C 0.07952 0.5163 0.24389 0.0
C534 C 0.14202 0.55829 0.27405 0.0
C535 C 0.08722 0.53067 0.31793 0.0
O536 O 0.08305 0.53835 0.30015 0.0
O537 O 0.10396 0.52116 0.32032 0.0
O538 O 0.07738 0.53578 0.24966 0.0
O539 O 0.09291 0.50624 0.25437 0.0
O540 O 0.74562 0.67447 0.98658 0.0
Cd541 Cd 0.73595 0.6534 0.00978 0.0
Cd542 Cd 0.76815 0.63206 0.9932 0.0
O543 O 0.7745 0.65949 0.97659 0.0
O544 O 0.71771 0.66951 0.029 0.0
O545 O 0.74852 0.6587 0.03932 0.0
C546 C 0.73197 0.66877 0.04372 0.0
C547 C 0.79687 0.61668 0.00793 0.0
C548 C 0.76253 0.67455 0.97546 0.0
C549 C 0.72331 0.61043 0.98975 0.0
O550 O 0.74272 0.61053 0.984 0.0
O551 O 0.7173 0.62578 0.00116 0.0
O552 O 0.79323 0.61582 0.98767 0.0
O553 O 0.78439 0.62694 0.02003 0.0
O554 O 0.90199 0.01233 0.2838 0.0
Cd555 Cd 0.88304 0.02271 0.26015 0.0
Cd556 Cd 0.86048 0.03328 0.29453 0.0
O557 O 0.88617 0.02523 0.31212 0.0
O558 O 0.90121 0.02058 0.23426 0.0
O559 O 0.89204 0.05119 0.24777 0.0
C560 C 0.90257 0.04104 0.23371 0.0
C561 C 0.8508 0.0678 0.29333 0.0
C562 C 0.90123 0.01559 0.3039 0.0
C563 C 0.83914 -2e-05 0.26479 0.0
O564 O 0.83875 0.00887 0.2833 0.0
O565 O 0.85475 0.00459 0.25235 0.0
O566 O 0.84536 0.05605 0.30925 0.0
O567 O 0.86231 0.06002 0.27844 0.0
O568 O 0.24098 0.18221 0.48628 0.0
Cd569 Cd 0.23197 0.15953 0.50829 0.0
Cd570 Cd 0.26475 0.1408 0.49123 0.0
O571 O 0.27114 0.1694 0.47676 0.0
O572 O 0.21263 0.17352 0.52817 0.0
O573 O 0.24445 0.16455 0.53785 0.0
C574 C 0.2272 0.1733 0.54268 0.0
C575 C 0.29193 0.12573 0.50882 0.0
C576 C 0.25844 0.18387 0.47595 0.0
C577 C 0.22144 0.11742 0.48548 0.0
O578 O 0.24071 0.11921 0.47914 0.0
O579 O 0.21491 0.13127 0.49848 0.0
O580 O 0.29102 0.12585 0.48828 0.0
O581 O 0.27763 0.13496 0.51957 0.0
O582 O 0.40302 0.51549 0.79602 0.0
Cd583 Cd 0.38565 0.52255 0.76983 0.0
Cd584 Cd 0.35987 0.53546 0.80093 0.0
O585 O 0.38348 0.52811 0.8218 0.0
O586 O 0.40634 0.51855 0.74638 0.0
O587 O 0.39407 0.54952 0.75437 0.0
C588 C 0.4065 0.53855 0.74296 0.0
C589 C 0.35015 0.56988 0.7984 0.0
C590 C 0.39991 0.51922 0.81575 0.0
C591 C 0.34159 0.4996 0.77191 0.0
O592 O 0.33875 0.51093 0.78867 0.0
O593 O 0.35898 0.5023 0.76156 0.0
O594 O 0.34331 0.55806 0.81381 0.0
O595 O 0.36308 0.56223 0.78472 0.0
O596 O 0.72511 0.36649 0.496 0.0
Cd597 Cd 0.72938 0.38366 0.52493 0.0
Cd598 Cd 0.70504 0.40815 0.50113 0.0
O599 O 0.69903 0.38193 0.48116 0.0
O600 O 0.75057 0.36681 0.53845 0.0
O601 O 0.71863 0.36976 0.55214 0.0
C602 C 0.73698 0.36217 0.55323 0.0
C603 C 0.67872 0.42704 0.51651 0.0
C604 C 0.71146 0.36719 0.48104 0.0
C605 C 0.7485 0.42631 0.51171 0.0
O606 O 0.73412 0.42548 0.49739 0.0
O607 O 0.74748 0.41281 0.52625 0.0
O608 O 0.68337 0.42841 0.49652 0.0
O609 O 0.68824 0.41378 0.52756 0.0
O610 O 0.64973 0.04584 0.79345 0.0
Cd611 Cd 0.63152 0.01901 0.80331 0.0
Cd612 Cd 0.60081 0.03526 0.77836 0.0
O613 O 0.6267 0.05549 0.76996 0.0
O614 O 0.65295 0.00403 0.81863 0.0
O615 O 0.63654 0.99063 0.78922 0.0
C616 C 0.65038 0.98893 0.80421 0.0
C617 C 0.57988 0.02045 0.75004 0.0
C618 C 0.64508 0.05784 0.77867 0.0
C619 C 0.5911 0.03132 0.82454 0.0
O620 O 0.58607 0.03961 0.80731 0.0
O621 O 0.60777 0.02145 0.82564 0.0
O622 O 0.5793 0.04004 0.75635 0.0
O623 O 0.59214 0.00888 0.7602 0.0
O624 O 0.96187 0.26606 0.92628 0.0
Cd625 Cd 0.97137 0.24032 0.90871 0.0
Cd626 Cd 0.99443 0.26947 0.88693 0.0
O627 O 0.98689 0.28839 0.9127 0.0
O628 O 0.97115 0.21564 0.92747 0.0
O629 O 0.00084 0.23261 0.9149 0.0
C630 C 0.99183 0.21802 0.92674 0.0
C631 C 0.02849 0.27538 0.87203 0.0
C632 C 0.972 0.28447 0.9261 0.0
C633 C 0.95776 0.24369 0.86408 0.0
O634 O 0.97094 0.26026 0.86454 0.0
O635 O 0.95625 0.23174 0.87998 0.0
O636 O 0.01448 0.2889 0.8706 0.0
O637 O 0.02346 0.25857 0.88273 0.0
O638 O 0.46502 0.77931 0.43129 0.0
Cd639 Cd 0.47221 0.75211 0.41463 0.0
Cd640 Cd 0.49557 0.77942 0.39104 0.0
O641 O 0.48979 0.8004 0.41575 0.0
O642 O 0.46953 0.72876 0.43507 0.0
O643 O 0.50033 0.7409 0.42056 0.0
C644 C 0.49002 0.72829 0.43359 0.0
C645 C 0.5296 0.78175 0.37579 0.0
C646 C 0.47543 0.79747 0.42987 0.0
C647 C 0.45705 0.75439 0.37042 0.0
O648 O 0.47107 0.77025 0.36968 0.0
O649 O 0.45549 0.74322 0.38689 0.0
O650 O 0.51666 0.79612 0.37322 0.0
O651 O 0.52345 0.7661 0.38772 0.0
O652 O 0.98676 0.78612 0.6856 0.0
Cd653 Cd 0.00846 0.77354 0.66513 0.0
Cd654 Cd 0.98738 0.7943 0.63574 0.0
O655 O 0.97162 0.80519 0.66209 0.0
O656 O 0.02965 0.7616 0.68377 0.0
O657 O 0.0383 0.78811 0.66235 0.0
C658 C 0.04413 0.77503 0.67612 0.0
C659 C 0.00339 0.81835 0.61209 0.0
C660 C 0.97334 0.79919 0.68109 0.0
C661 C 0.98557 0.74729 0.62928 0.0
O662 O 0.97827 0.76416 0.62321 0.0
O663 O 0.99826 0.74797 0.64516 0.0
O664 O 0.98288 0.81405 0.61262 0.0
O665 O 0.01492 0.80928 0.62553 0.0
O666 O 0.4852 0.27889 0.19773 0.0
Cd667 Cd 0.5069 0.26463 0.17854 0.0
Cd668 Cd 0.48551 0.2823 0.14712 0.0
O669 O 0.46887 0.29443 0.17224 0.0
O670 O 0.5296 0.25669 0.19808 0.0
O671 O 0.53588 0.27966 0.17251 0.0
C672 C 0.54308 0.26929 0.18795 0.0
C673 C 0.49973 0.30534 0.12158 0.0
C674 C 0.47109 0.29069 0.19185 0.0
C675 C 0.48513 0.23486 0.14497 0.0
O676 O 0.47817 0.25107 0.13696 0.0
O677 O 0.49708 0.23693 0.16145 0.0
O678 O 0.47951 0.29931 0.12219 0.0
O679 O 0.51199 0.2985 0.13589 0.0
C680 C 0.2407 0.82731 0.86861 0.0
C681 C 0.22743 0.81134 0.85773 0.0
C682 C 0.23452 0.83618 0.8882 0.0
C683 C 0.2145 0.82897 0.89708 0.0
C684 C 0.20086 0.81305 0.88604 0.0
C685 C 0.20753 0.80434 0.8665 0.0
C686 C 0.24962 0.85302 0.89956 0.0
C687 C 0.17934 0.80512 0.89494 0.0
C688 C 0.21307 0.83908 0.95687 0.0
C689 C 0.2047 0.85892 0.95836 0.0
C690 C 0.21508 0.82842 0.93707 0.0
C691 C 0.20842 0.83775 0.9183 0.0
C692 C 0.1983 0.85686 0.91985 0.0
C693 C 0.19659 0.86726 0.93988 0.0
C694 C 0.22585 0.808 0.93612 0.0
C695 C 0.19069 0.86713 0.90022 0.0
H696 H 0.25619 0.83258 0.86201 0.0
H697 H 0.19712 0.79216 0.85799 0.0
H698 H 0.24152 0.86772 0.90253 0.0
H699 H 0.25422 0.84737 0.91533 0.0
H700 H 0.26443 0.85712 0.89031 0.0
H701 H 0.1703 0.79323 0.884 0.0
H702 H 0.18154 0.79771 0.91047 0.0
H703 H 0.16957 0.81866 0.89799 0.0
H704 H 0.2192 0.83236 0.97106 0.0
H705 H 0.18993 0.88248 0.94086 0.0
H706 H 0.24198 0.81102 0.92897 0.0
H707 H 0.21658 0.79574 0.92581 0.0
H708 H 0.22772 0.80152 0.95218 0.0
H709 H 0.20474 0.87402 0.89123 0.0
H710 H 0.18038 0.88005 0.90431 0.0
H711 H 0.1816 0.85514 0.88946 0.0
C712 C 0.0315 0.5505 0.42918 0.0
C713 C 0.00947 0.54388 0.42927 0.0
C714 C 0.04346 0.54958 0.41038 0.0
C715 C 0.03335 0.54116 0.39129 0.0
C716 C 0.01113 0.53468 0.39111 0.0
C717 C -0.0006 0.53644 0.41001 0.0
C718 C 0.06707 0.55711 0.41107 0.0
C719 C -0.00011 0.52524 0.37113 0.0
C720 C 0.06169 0.55123 0.33867 0.0
C721 C 0.0727 0.53301 0.33611 0.0
C722 C 0.04876 0.55414 0.35658 0.0
C723 C 0.04633 0.53812 0.37184 0.0
C724 C 0.05688 0.51938 0.36892 0.0
C725 C 0.07023 0.51721 0.35124 0.0
C726 C 0.03826 0.57459 0.35951 0.0
C727 C 0.05418 0.50168 0.38454 0.0
H728 H 0.03965 0.5559 0.44393 0.0
H729 H 0.98232 0.53175 0.40968 0.0
H730 H 0.07661 0.54334 0.40841 0.0
H731 H 0.0711 0.56831 0.39813 0.0
H732 H 0.07201 0.56518 0.4266 0.0
H733 H 0.98243 0.52136 0.37354 0.0
H734 H 0.00221 0.53645 0.35794 0.0
H735 H 0.00697 0.51045 0.36594 0.0
H736 H 0.06375 0.56352 0.32702 0.0
H737 H 0.07861 0.50303 0.34913 0.0
H738 H 0.04428 0.58316 0.37443 0.0
H739 H 0.02069 0.57111 0.36118 0.0
H740 H 0.04145 0.58529 0.34597 0.0
H741 H 0.06083 0.50746 0.40034 0.0
H742 H 0.06235 0.48757 0.37917 0.0
H743 H 0.03691 0.49664 0.38677 0.0
C744 C 0.80162 0.78269 0.91965 0.0
C745 C 0.79803 0.78155 0.89752 0.0
C746 C 0.79612 0.76507 0.93218 0.0
C747 C 0.78663 0.7459 0.92237 0.0
C748 C 0.783 0.74459 0.90005 0.0
C749 C 0.78884 0.76241 0.88788 0.0
C750 C 0.80031 0.76703 0.95594 0.0
C751 C 0.77285 0.72442 0.88906 0.0
C752 C 0.78882 0.69476 0.95195 0.0
C753 C 0.76851 0.69249 0.96141 0.0
C754 C 0.79491 0.71204 0.93913 0.0
C755 C 0.78028 0.72728 0.93554 0.0
C756 C 0.75966 0.72494 0.94479 0.0
C757 C 0.75406 0.70762 0.9577 0.0
C758 C 0.8171 0.71413 0.92966 0.0
C759 C 0.74356 0.74079 0.94114 0.0
H760 H 0.80842 0.7975 0.92727 0.0
H761 H 0.78632 0.76129 0.87075 0.0
H762 H 0.78498 0.76446 0.96469 0.0
H763 H 0.8105 0.75457 0.96077 0.0
H764 H 0.80836 0.78286 0.961 0.0
H765 H 0.77108 0.72603 0.87157 0.0
H766 H 0.78269 0.71107 0.89184 0.0
H767 H 0.75679 0.72006 0.89588 0.0
H768 H 0.80011 0.68319 0.95479 0.0
H769 H 0.7383 0.70594 0.96486 0.0
H770 H 0.82597 0.7293 0.93549 0.0
H771 H 0.81604 0.71465 0.91203 0.0
H772 H 0.82649 0.70078 0.93379 0.0
H773 H 0.75002 0.75682 0.94732 0.0
H774 H 0.72802 0.73639 0.94907 0.0
H775 H 0.74061 0.74196 0.92379 0.0
C776 C 0.9803 0.95254 0.37237 0.0
C777 C -0.00066 0.96518 0.37762 0.0
C778 C 0.9635 0.96108 0.3618 0.0
C779 C 0.96583 0.98274 0.35634 0.0
C780 C 0.98473 0.99573 0.3622 0.0
C781 C 0.00124 0.98679 0.37278 0.0
C782 C 0.94357 0.94673 0.35581 0.0
C783 C 0.98779 0.01891 0.3567 0.0
C784 C 0.935 0.9981 0.30812 0.0
C785 C 0.91786 0.00766 0.31756 0.0
C786 C 0.95068 0.98998 0.3206 0.0
C787 C 0.94922 0.99141 0.34311 0.0
C788 C 0.93206 0.00112 0.35281 0.0
C789 C 0.91657 0.00918 0.33991 0.0
C790 C 0.9688 0.97983 0.30964 0.0
C791 C 0.93002 0.00289 0.37678 0.0
H792 H 0.97879 0.9358 0.37593 0.0
H793 H 0.01576 0.99674 0.37717 0.0
H794 H 0.92908 0.95404 0.36142 0.0
H795 H 0.94233 0.94472 0.33818 0.0
H796 H 0.94356 0.93075 0.36264 0.0
H797 H 0.00284 0.02715 0.36358 0.0
H798 H 0.98826 0.02023 0.3391 0.0
H799 H 0.9741 0.02731 0.36261 0.0
H800 H 0.9362 0.99687 0.29088 0.0
H801 H 0.90338 0.0165 0.34735 0.0
H802 H 0.96882 0.96306 0.31435 0.0
H803 H 0.98439 0.98831 0.31474 0.0
H804 H 0.96762 0.98003 0.29196 0.0
H805 H 0.92877 0.98679 0.38346 0.0
H806 H 0.91579 0.01099 0.38184 0.0
H807 H 0.94457 0.01189 0.38384 0.0
C808 C 0.21161 0.26643 0.62302 0.0
C809 C 0.2071 0.262 0.64435 0.0
C810 C 0.21687 0.2504 0.60848 0.0
C811 C 0.2174 0.22935 0.61539 0.0
C812 C 0.2137 0.22495 0.63713 0.0
C813 C 0.20868 0.2414 0.65142 0.0
C814 C 0.221 0.25585 0.5855 0.0
C815 C 0.21398 0.20269 0.64505 0.0
C816 C 0.20421 0.18896 0.57018 0.0
C817 C 0.22465 0.1844 0.56354 0.0
C818 C 0.20157 0.20244 0.58804 0.0
C819 C 0.21985 0.21186 0.59932 0.0
C820 C 0.24046 0.2063 0.59348 0.0
C821 C 0.24261 0.19247 0.57568 0.0
C822 C 0.17927 0.20765 0.59397 0.0
C823 C 0.26033 0.21607 0.60508 0.0
H824 H 0.21067 0.28245 0.61764 0.0
H825 H 0.20511 0.23797 0.66792 0.0
H826 H 0.23628 0.25 0.58003 0.0
H827 H 0.20802 0.24782 0.57519 0.0
H828 H 0.22178 0.27325 0.58313 0.0
H829 H 0.21327 0.20237 0.66275 0.0
H830 H 0.20002 0.19247 0.63833 0.0
H831 H 0.22862 0.1956 0.63957 0.0
H832 H 0.19025 0.18254 0.56096 0.0
H833 H 0.25845 0.18901 0.57057 0.0
H834 H 0.17735 0.22439 0.59018 0.0
H835 H 0.17667 0.20612 0.61136 0.0
H836 H 0.16668 0.19714 0.58523 0.0
H837 H 0.26334 0.23307 0.60109 0.0
H838 H 0.27469 0.2079 0.60063 0.0
H839 H 0.25815 0.21554 0.62261 0.0
C840 C 0.48485 0.58211 0.65043 0.0
C841 C 0.50345 0.59301 0.65952 0.0
C842 C 0.4674 0.57504 0.66315 0.0
C843 C 0.46874 0.57854 0.68555 0.0
C844 C 0.4871 0.59016 0.69478 0.0
C845 C 0.50413 0.59744 0.68164 0.0
C846 C 0.44794 0.56299 0.65268 0.0
C847 C 0.48923 0.59404 0.71865 0.0
C848 C 0.41955 0.56931 0.72068 0.0
C849 C 0.42149 0.54862 0.72734 0.0
C850 C 0.43453 0.57916 0.70663 0.0
C851 C 0.452 0.56818 0.69949 0.0
C852 C 0.4539 0.54724 0.70607 0.0
C853 C 0.43853 0.53766 0.71973 0.0
C854 C 0.43177 0.60134 0.69957 0.0
C855 C 0.47247 0.53509 0.69907 0.0
H856 H 0.48416 0.57835 0.63342 0.0
H857 H 0.51817 0.60629 0.68879 0.0
H858 H 0.44725 0.54596 0.65665 0.0
H859 H 0.43307 0.56921 0.65879 0.0
H860 H 0.44821 0.56403 0.63503 0.0
H861 H 0.50388 0.60455 0.72318 0.0
H862 H 0.47506 0.60136 0.72504 0.0
H863 H 0.48985 0.57861 0.72646 0.0
H864 H 0.40637 0.57781 0.72646 0.0
H865 H 0.44022 0.52171 0.72492 0.0
H866 H 0.43168 0.60161 0.68188 0.0
H867 H 0.44548 0.6125 0.70535 0.0
H868 H 0.41672 0.60726 0.70565 0.0
H869 H 0.47285 0.53345 0.6814 0.0
H870 H 0.47159 0.51893 0.70564 0.0
H871 H 0.4878 0.544 0.70435 0.0
C872 C 0.76787 0.26373 0.61483 0.0
C873 C 0.77584 0.26785 0.63563 0.0
C874 C 0.75941 0.27967 0.60339 0.0
C875 C 0.75898 0.3003 0.61296 0.0
C876 C 0.76614 0.30433 0.63429 0.0
C877 C 0.77447 0.28801 0.64542 0.0
C878 C 0.75181 0.27468 0.58072 0.0
C879 C 0.76598 0.32612 0.645 0.0
C880 C 0.76384 0.34381 0.57295 0.0
C881 C 0.74247 0.34807 0.57033 0.0
C882 C 0.76948 0.329 0.58751 0.0
C883 C 0.75333 0.31802 0.59972 0.0
C884 C 0.73181 0.32287 0.59784 0.0
C885 C 0.72662 0.33794 0.58317 0.0
C886 C 0.79265 0.32446 0.58915 0.0
C887 C 0.71419 0.31148 0.61063 0.0
H888 H 0.76851 0.24803 0.60738 0.0
H889 H 0.78065 0.29126 0.66149 0.0
H890 H 0.73553 0.27977 0.57845 0.0
H891 H 0.76265 0.28365 0.56955 0.0
H892 H 0.75143 0.25744 0.57631 0.0
H893 H 0.76961 0.32599 0.66235 0.0
H894 H 0.77815 0.33736 0.63748 0.0
H895 H 0.75018 0.33232 0.64285 0.0
H896 H 0.77623 0.35178 0.56326 0.0
H897 H 0.71008 0.34121 0.58122 0.0
H898 H 0.79434 0.30793 0.58323 0.0
H899 H 0.79806 0.32577 0.60605 0.0
H900 H 0.80345 0.33551 0.57974 0.0
H901 H 0.71175 0.29453 0.60507 0.0
H902 H 0.69877 0.31863 0.60906 0.0
H903 H 0.71873 0.31179 0.62777 0.0
C904 C 0.49522 0.99082 0.65736 0.0
C905 C 0.505 0.98505 0.63815 0.0
C906 C 0.50681 0.99291 0.6766 0.0
C907 C 0.52884 0.9897 0.67655 0.0
C908 C 0.53846 0.98254 0.65757 0.0
C909 C 0.52633 0.98001 0.63867 0.0
C910 C 0.49584 5e-05 0.69666 0.0
C911 C 0.56197 0.97916 0.65679 0.0
C912 C 0.56271 0.02596 0.71533 0.0
C913 C 0.56729 0.01202 0.7312 0.0
C914 C 0.55063 0.01869 0.69728 0.0
C915 C 0.54241 0.99703 0.69534 0.0
C916 C 0.54694 0.98282 0.71135 0.0
C917 C 0.55965 0.99045 0.72903 0.0
C918 C 0.54663 0.03427 0.6803 0.0
C919 C 0.53796 0.95976 0.71004 0.0
H920 H 0.47882 0.99487 0.65726 0.0
H921 H 0.53387 0.97486 0.62408 0.0
H922 H 0.50036 0.99084 0.71043 0.0
H923 H 0.50103 0.01708 0.70041 0.0
H924 H 0.47812 0.99824 0.69493 0.0
H925 H 0.56632 0.97098 0.64164 0.0
H926 H 0.57162 0.99483 0.65822 0.0
H927 H 0.56647 0.96968 0.67034 0.0
H928 H 0.56882 0.0426 0.71689 0.0
H929 H 0.56313 0.97971 0.7414 0.0
H930 H 0.52923 0.03593 0.67904 0.0
H931 H 0.55195 0.02824 0.66453 0.0
H932 H 0.55512 0.05029 0.68375 0.0
H933 H 0.5202 0.95875 0.71028 0.0
H934 H 0.54355 0.95064 0.72345 0.0
H935 H 0.54261 0.95207 0.69477 0.0
C936 C 0.86967 0.22469 0.77167 0.0
C937 C 0.87821 0.21763 0.75228 0.0
C938 C 0.88252 0.22844 0.79 0.0
C939 C 0.9044 0.22474 0.78905 0.0
C940 C 0.9131 0.21733 0.76966 0.0
C941 C 0.89994 0.214 0.75147 0.0
C942 C 0.87272 0.23652 0.81036 0.0
C943 C 0.93636 0.2131 0.76809 0.0
C944 C 0.94228 0.25412 0.82974 0.0
C945 C 0.94413 0.2386 0.84492 0.0
C946 C 0.92941 0.24979 0.8115 0.0
C947 C 0.91833 0.22934 0.80819 0.0
C948 C 0.92028 0.21351 0.82331 0.0
C949 C 0.93305 0.21838 0.8416 0.0
C950 C 0.9275 0.26718 0.79589 0.0
C951 C 0.90889 0.19144 0.82013 0.0
H952 H 0.85281 0.2271 0.77261 0.0
H953 H 0.90675 0.20876 0.73653 0.0
H954 H 0.87456 0.2253 0.82329 0.0
H955 H 0.88122 0.25207 0.81559 0.0
H956 H 0.85542 0.23856 0.80844 0.0
H957 H 0.94039 0.20644 0.75211 0.0
H958 H 0.94677 0.22809 0.77132 0.0
H959 H 0.94019 0.20177 0.78033 0.0
H960 H 0.9507 0.26983 0.83222 0.0
H961 H 0.93451 0.20628 0.8532 0.0
H962 H 0.9105 0.27047 0.7944 0.0
H963 H 0.93281 0.26196 0.77983 0.0
H964 H 0.93719 0.28223 0.80081 0.0
H965 H 0.89132 0.19234 0.81947 0.0
H966 H 0.91249 0.18078 0.83311 0.0
H967 H 0.91364 0.18419 0.80467 0.0
C968 C 0.46157 0.89168 0.51611 0.0
C969 C 0.45038 0.90738 0.50711 0.0
C970 C 0.4643 0.87258 0.50476 0.0
C971 C 0.45553 0.86911 0.48395 0.0
C972 C 0.44332 0.88445 0.47521 0.0
C973 C 0.44095 0.90346 0.48688 0.0
C974 C 0.47751 0.85663 0.51457 0.0
C975 C 0.43353 0.8812 0.45316 0.0
C976 C 0.48375 0.8347 0.44442 0.0
C977 C 0.47058 0.81545 0.44431 0.0
C978 C 0.47912 0.85216 0.45744 0.0
C979 C 0.46077 0.85041 0.4706 0.0
C980 C 0.44749 0.831 0.47074 0.0
C981 C 0.45259 0.81369 0.45764 0.0
C982 C 0.49379 0.87256 0.45698 0.0
C983 C 0.42775 0.82862 0.48452 0.0
H984 H 0.46907 0.89473 0.53167 0.0
H985 H 0.43205 0.91547 0.48001 0.0
H986 H 0.46886 0.84046 0.51346 0.0
H987 H 0.49269 0.85597 0.50562 0.0
H988 H 0.48148 0.86077 0.53159 0.0
H989 H 0.42285 0.89368 0.44951 0.0
H990 H 0.44643 0.88152 0.44106 0.0
H991 H 0.42418 0.8654 0.45152 0.0
H992 H 0.49774 0.83618 0.43425 0.0
H993 H 0.4423 0.79889 0.45761 0.0
H994 H 0.49992 0.87715 0.47329 0.0
H995 H 0.48475 0.88567 0.45155 0.0
H996 H 0.50767 0.87115 0.44622 0.0
H997 H 0.43216 0.83223 0.5015 0.0
H998 H 0.41931 0.81234 0.48309 0.0
H999 H 0.41648 0.84021 0.47992 0.0
C1000 C 0.10406 0.28316 0.77476 0.0
C1001 C 0.12473 0.29343 0.77768 0.0
C1002 C 0.09083 0.27831 0.79222 0.0
C1003 C 0.09852 0.28372 0.81316 0.0
C1004 C 0.11991 0.29267 0.81631 0.0
C1005 C 0.13277 0.29751 0.7985 0.0
C1006 C 0.06814 0.26865 0.78815 0.0
C1007 C 0.12877 0.29841 0.8384 0.0
C1008 C 0.05411 0.29774 0.85011 0.0
C1009 C 0.04877 0.27845 0.86007 0.0
C1010 C 0.07115 0.30002 0.83575 0.0
C1011 C 0.08322 0.28257 0.83124 0.0
C1012 C 0.0789 0.26353 0.84235 0.0
C1013 C 0.06166 0.26167 0.85668 0.0
C1014 C 0.07531 0.32068 0.82436 0.0
C1015 C 0.09163 0.2447 0.83818 0.0
H1016 H 0.09795 0.27953 0.75871 0.0
H1017 H 0.14873 0.30549 0.80088 0.0
H1018 H 0.06444 0.25464 0.79812 0.0
H1019 H 0.05678 0.28048 0.79267 0.0
H1020 H 0.06528 0.26362 0.77113 0.0
H1021 H 0.1465 0.30172 0.83836 0.0
H1022 H 0.12181 0.31284 0.84478 0.0
H1023 H 0.12432 0.28541 0.84945 0.0
H1024 H 0.04439 0.31088 0.85286 0.0
H1025 H 0.05767 0.24674 0.8644 0.0
H1026 H 0.07125 0.31794 0.80718 0.0
H1027 H 0.09252 0.32661 0.82547 0.0
H1028 H 0.06571 0.33326 0.831 0.0
H1029 H 0.08708 0.23714 0.82235 0.0
H1030 H 0.08869 0.23254 0.85046 0.0
H1031 H 0.10903 0.24987 0.83776 0.0
C1032 C 0.54342 0.64762 0.50889 0.0
C1033 C 0.55448 0.65936 0.52565 0.0
C1034 C 0.5344 0.65783 0.49204 0.0
C1035 C 0.53599 0.68034 0.49218 0.0
C1036 C 0.54765 0.6923 0.50864 0.0
C1037 C 0.55697 0.68167 0.52501 0.0
C1038 C 0.52242 0.64453 0.47453 0.0
C1039 C 0.54952 0.71634 0.50948 0.0
C1040 C 0.52259 0.71048 0.44323 0.0
C1041 C 0.50143 0.71466 0.44753 0.0
C1042 C 0.53389 0.69869 0.45726 0.0
C1043 C 0.52391 0.69141 0.47623 0.0
C1044 C 0.50246 0.69537 0.48047 0.0
C1045 C 0.49142 0.70674 0.46595 0.0
C1046 C 0.55656 0.6943 0.45198 0.0
C1047 C 0.49136 0.68819 0.50069 0.0
H1048 H 0.54113 0.63041 0.50926 0.0
H1049 H 0.56592 0.69092 0.53754 0.0
H1050 H 0.50502 0.64615 0.47591 0.0
H1051 H 0.52757 0.6502 0.45864 0.0
H1052 H 0.52494 0.62739 0.47528 0.0
H1053 H 0.55998 0.72329 0.52279 0.0
H1054 H 0.55602 0.72255 0.49426 0.0
H1055 H 0.53338 0.72196 0.51156 0.0
H1056 H 0.53035 0.71649 0.42894 0.0
H1057 H 0.47511 0.71005 0.46944 0.0
H1058 H 0.55824 0.677 0.45268 0.0
H1059 H 0.56778 0.70255 0.46397 0.0
H1060 H 0.56144 0.69969 0.43589 0.0
H1061 H 0.49127 0.6707 0.50185 0.0
H1062 H 0.47456 0.69238 0.50148 0.0
H1063 H 0.50025 0.69567 0.51479 0.0
C1064 C 0.90483 0.84733 0.77614 0.0
C1065 C 0.88379 0.83746 0.77544 0.0
C1066 C 0.92002 0.84198 0.76096 0.0
C1067 C 0.9141 0.82623 0.74483 0.0
C1068 C 0.8929 0.81625 0.74397 0.0
C1069 C 0.87798 0.82206 0.75921 0.0
C1070 C 0.94244 0.85304 0.76229 0.0
C1071 C 0.88602 0.79933 0.72703 0.0
C1072 C 0.94652 0.8236 0.69394 0.0
C1073 C 0.95905 0.80687 0.69785 0.0
C1074 C 0.93214 0.83037 0.70928 0.0
C1075 C 0.93009 0.82002 0.72891 0.0
C1076 C 0.9429 0.80334 0.7331 0.0
C1077 C 0.95731 0.79704 0.71756 0.0
C1078 C 0.91893 0.84839 0.70436 0.0
C1079 C 0.94101 0.79182 0.7538 0.0
H1080 H 0.90955 0.859 0.78879 0.0
H1081 H 0.86169 0.81461 0.75834 0.0
H1082 H 0.95411 0.84122 0.76488 0.0
H1083 H 0.94666 0.86068 0.74702 0.0
H1084 H 0.94429 0.86539 0.77543 0.0
H1085 H 0.86897 0.79302 0.72866 0.0
H1086 H 0.88829 0.80593 0.71094 0.0
H1087 H 0.89615 0.78591 0.72794 0.0
H1088 H 0.94785 0.83137 0.6788 0.0
H1089 H 0.96688 0.78406 0.7207 0.0
H1090 H 0.92129 0.86116 0.71703 0.0
H1091 H 0.90166 0.84259 0.70415 0.0
H1092 H 0.9231 0.85537 0.68873 0.0
H1093 H 0.9439 0.80333 0.76754 0.0
H1094 H 0.95251 0.77954 0.7548 0.0
H1095 H 0.92452 0.78397 0.75541 0.0
C1096 C 0.0443 0.8646 0.50318 0.0
C1097 C 0.05233 0.88613 0.50382 0.0
C1098 C 0.03788 0.85431 0.52186 0.0
C1099 C 0.03933 0.86586 0.54169 0.0
C1100 C 0.04777 0.88748 0.54255 0.0
C1101 C 0.05423 0.89734 0.5236 0.0
C1102 C 0.02899 0.83121 0.52029 0.0
C1103 C 0.0495 0.9003 0.5634 0.0
C1104 C 0.00032 0.84418 0.58337 0.0
C1105 C 0.01324 0.83234 0.59567 0.0
C1106 C 0.00884 0.85586 0.56628 0.0
C1107 C 0.03079 0.85554 0.56124 0.0
C1108 C 0.04412 0.84426 0.57407 0.0
C1109 C 0.03519 0.83284 0.59124 0.0
C1110 C 0.99414 0.8679 0.55312 0.0
C1111 C 0.06759 0.84351 0.56913 0.0
H1112 H 0.0425 0.85589 0.48795 0.0
H1113 H 0.06074 0.91389 0.52429 0.0
H1114 H 0.0377 0.82176 0.53142 0.0
H1115 H 0.0119 0.82974 0.52506 0.0
H1116 H 0.03017 0.82415 0.50389 0.0
H1117 H 0.0574 0.91663 0.5615 0.0
H1118 H 0.03328 0.90155 0.57007 0.0
H1119 H 0.05871 0.89217 0.57523 0.0
H1120 H 0.98337 0.844 0.58681 0.0
H1121 H 0.04525 0.82369 0.60068 0.0
H1122 H 0.99267 0.86066 0.53672 0.0
H1123 H 0.00094 0.88467 0.55175 0.0
H1124 H 0.97785 0.8678 0.56007 0.0
H1125 H 0.06932 0.83478 0.55363 0.0
H1126 H 0.07612 0.83549 0.58162 0.0
H1127 H 0.07551 0.85984 0.56753 0.0
C1128 C 0.15501 0.77954 0.7376 0.0
C1129 C 0.17179 0.77255 0.72532 0.0
C1130 C 0.13483 0.7812 0.7285 0.0
C1131 C 0.13125 0.77534 0.70667 0.0
C1132 C 0.14826 0.76856 0.6941 0.0
C1133 C 0.16844 0.76744 0.70356 0.0
C1134 C 0.11722 0.78884 0.74237 0.0
C1135 C 0.14494 0.76184 0.67088 0.0
C1136 C 0.0735 0.75707 0.69243 0.0
C1137 C 0.06672 0.77506 0.68293 0.0
C1138 C 0.09466 0.75675 0.69955 0.0
C1139 C 0.10932 0.77502 0.6975 0.0
C1140 C 0.10267 0.79317 0.68769 0.0
C1141 C 0.08145 0.7929 0.68031 0.0
C1142 C 0.10121 0.73695 0.70959 0.0
C1143 C 0.11778 0.81305 0.68555 0.0
H1144 H 0.15773 0.78378 0.75438 0.0
H1145 H 0.18145 0.762 0.6941 0.0
H1146 H 0.11011 0.80217 0.73483 0.0
H1147 H 0.10424 0.77578 0.74397 0.0
H1148 H 0.12306 0.79425 0.75859 0.0
H1149 H 0.16004 0.75796 0.66307 0.0
H1150 H 0.13312 0.7476 0.66949 0.0
H1151 H 0.13827 0.77464 0.66207 0.0
H1152 H 0.06223 0.74314 0.69429 0.0
H1153 H 0.07624 0.80684 0.673 0.0
H1154 H 0.10547 0.7405 0.72662 0.0
H1155 H 0.11563 0.73164 0.70155 0.0
H1156 H 0.08828 0.72363 0.7087 0.0
H1157 H 0.12272 0.81969 0.70164 0.0
H1158 H 0.1104 0.82549 0.67677 0.0
H1159 H 0.13253 0.80921 0.6771 0.0
C1160 C 0.95126 0.63102 0.57794 0.0
C1161 C 0.96271 0.62796 0.55908 0.0
C1162 C 0.95298 0.65084 0.58898 0.0
C1163 C 0.96673 0.66784 0.58109 0.0
C1164 C 0.97786 0.66498 0.56173 0.0
C1165 C 0.97561 0.64507 0.55088 0.0
C1166 C 0.94062 0.6534 0.6094 0.0
C1167 C 0.99286 0.68266 0.55297 0.0
C1168 C 0.96346 0.72462 0.60219 0.0
C1169 C 0.98002 0.7268 0.61743 0.0
C1170 C 0.95862 0.70535 0.59048 0.0
C1171 C 0.97083 0.68805 0.59393 0.0
C1172 C 0.98746 0.69013 0.60938 0.0
C1173 C 0.99175 0.70942 0.62103 0.0
C1174 C 0.94059 0.70356 0.57431 0.0
C1175 C 0.001 0.67209 0.61334 0.0
H1176 H 0.94108 0.61782 0.58412 0.0
H1177 H 0.9846 0.64265 0.53639 0.0
H1178 H 0.95193 0.65586 0.62311 0.0
H1179 H 0.93161 0.66768 0.60893 0.0
H1180 H 0.92918 0.63928 0.61231 0.0
H1181 H 0.99927 0.67826 0.53707 0.0
H1182 H 0.98453 0.69727 0.55155 0.0
H1183 H 0.00654 0.6866 0.56415 0.0
H1184 H 0.95426 0.73795 0.5994 0.0
H1185 H 0.00464 0.711 0.63271 0.0
H1186 H 0.92888 0.68983 0.57777 0.0
H1187 H 0.94698 0.70057 0.5581 0.0
H1188 H 0.93204 0.71818 0.57419 0.0
H1189 H 0.99068 0.65781 0.61809 0.0
H1190 H 0.01325 0.67628 0.62602 0.0
H1191 H 0.00928 0.66768 0.59843 0.0
C1192 C 0.74029 0.91628 0.22763 0.0
C1193 C 0.74647 0.89551 0.22829 0.0
C1194 C 0.75474 0.93402 0.23304 0.0
C1195 C 0.77581 0.93093 0.23953 0.0
C1196 C 0.78217 0.91005 0.24025 0.0
C1197 C 0.76747 0.8926 0.2345 0.0
C1198 C 0.74743 0.95607 0.23194 0.0
C1199 C 0.8045 0.90612 0.2472 0.0
C1200 C 0.82039 0.97579 0.2367 0.0
C1201 C 0.82196 0.98334 0.25804 0.0
C1202 C 0.80509 0.95907 0.23035 0.0
C1203 C 0.7912 0.94951 0.24575 0.0
C1204 C 0.79242 0.95729 0.26723 0.0
C1205 C 0.80771 0.97421 0.2731 0.0
C1206 C 0.80403 0.95139 0.20723 0.0
C1207 C 0.77798 0.94737 0.28414 0.0
H1208 H 0.72401 0.91869 0.22319 0.0
H1209 H 0.7725 0.87666 0.23475 0.0
H1210 H 0.74843 0.96407 0.24802 0.0
H1211 H 0.75814 0.96588 0.22132 0.0
H1212 H 0.73072 0.95578 0.22594 0.0
H1213 H 0.80684 0.8889 0.2471 0.0
H1214 H 0.81649 0.91417 0.23648 0.0
H1215 H 0.80776 0.91301 0.26356 0.0
H1216 H 0.83126 0.98284 0.22494 0.0
H1217 H 0.80886 0.97989 0.28963 0.0
H1218 H 0.78752 0.9517 0.20091 0.0
H1219 H 0.808 0.93464 0.20587 0.0
H1220 H 0.81525 0.9612 0.19706 0.0
H1221 H 0.76094 0.94766 0.27945 0.0
H1222 H 0.78055 0.95569 0.3 0.0
H1223 H 0.78092 0.93044 0.28564 0.0
C1224 C 0.81941 0.18786 0.2865 0.0
C1225 C 0.79791 0.18762 0.28021 0.0
C1226 C 0.82882 0.16882 0.28915 0.0
C1227 C 0.81651 0.14909 0.28513 0.0
C1228 C 0.79481 0.14877 0.27867 0.0
C1229 C 0.78572 0.16805 0.27643 0.0
C1230 C 0.8519 0.16982 0.29636 0.0
C1231 C 0.78123 0.12805 0.27397 0.0
C1232 C 0.8452 0.09981 0.27242 0.0
C1233 C 0.84322 0.0892 0.29169 0.0
C1234 C 0.83674 0.11941 0.27013 0.0
C1235 C 0.8263 0.12875 0.2876 0.0
C1236 C 0.82478 0.11839 0.30727 0.0
C1237 C 0.83314 0.09867 0.30903 0.0
C1238 C 0.83852 0.12987 0.24884 0.0
C1239 C 0.81405 0.12801 0.32635 0.0
H1240 H 0.82878 0.20299 0.28967 0.0
H1241 H 0.76915 0.16785 0.27139 0.0
H1242 H 0.85301 0.16123 0.31139 0.0
H1243 H 0.86149 0.16177 0.28422 0.0
H1244 H 0.85919 0.18645 0.29909 0.0
H1245 H 0.7647 0.13055 0.2689 0.0
H1246 H 0.78873 0.11873 0.26116 0.0
H1247 H 0.78029 0.1183 0.28836 0.0
H1248 H 0.8529 0.09256 0.25892 0.0
H1249 H 0.83164 0.0906 0.32399 0.0
H1250 H 0.84669 0.1462 0.25085 0.0
H1251 H 0.82227 0.13137 0.24235 0.0
H1252 H 0.84749 0.12076 0.23697 0.0
H1253 H 0.82153 0.14438 0.33003 0.0
H1254 H 0.81509 0.11845 0.34078 0.0
H1255 H 0.79691 0.12924 0.32269 0.0
C1256 C 0.37692 0.97075 0.00128 0.0
C1257 C 0.3816 0.98876 0.0148 0.0
C1258 C 0.35609 0.96051 -0.00012 0.0
C1259 C 0.33969 0.96835 0.01254 0.0
C1260 C 0.34426 0.98678 0.02594 0.0
C1261 C 0.36518 0.99685 0.02682 0.0
C1262 C 0.35173 0.94106 0.98519 0.0
C1263 C 0.32724 0.99543 0.03987 0.0
C1264 C 0.28165 0.9501 0.99884 0.0
C1265 C 0.27738 0.93334 0.01275 0.0
C1266 C 0.3019 0.96168 0.99855 0.0
C1267 C 0.31808 0.95653 0.01272 0.0
C1268 C 0.31374 0.93986 0.02702 0.0
C1269 C 0.29349 0.92838 0.02676 0.0
C1270 C 0.30607 0.97921 0.98293 0.0
C1271 C 0.33052 0.9341 0.04256 0.0
H1272 H 0.3896 0.96466 0.99181 0.0
H1273 H 0.36885 0.01069 0.03741 0.0
H1274 H 0.34713 0.92691 0.99473 0.0
H1275 H 0.3381 0.94307 0.97437 0.0
H1276 H 0.36589 0.93788 0.97538 0.0
H1277 H 0.33317 0.01048 0.04861 0.0
H1278 H 0.31315 0.99838 0.03007 0.0
H1279 H 0.32166 0.9835 0.0517 0.0
H1280 H 0.26929 0.95394 0.98791 0.0
H1281 H 0.29026 0.91554 0.03766 0.0
H1282 H 0.31937 0.9756 0.97215 0.0
H1283 H 0.31114 0.9945 0.99161 0.0
H1284 H 0.29173 0.98131 0.97306 0.0
H1285 H 0.34456 0.92896 0.03372 0.0
H1286 H 0.32437 0.9211 0.05304 0.0
H1287 H 0.33626 0.94824 0.05276 0.0
C1288 C 0.25387 0.43509 0.31145 0.0
C1289 C 0.25191 0.41353 0.31628 0.0
C1290 C 0.23583 0.4454 0.30629 0.0
C1291 C 0.21529 0.4339 0.30628 0.0
C1292 C 0.21335 0.41183 0.31005 0.0
C1293 C 0.23176 0.40185 0.31492 0.0
C1294 C 0.23864 0.46889 0.30204 0.0
C1295 C 0.19174 0.39907 0.31032 0.0
C1296 C 0.17222 0.46918 0.32242 0.0
C1297 C 0.16358 0.47358 0.30263 0.0
C1298 C 0.18818 0.45522 0.32388 0.0
C1299 C 0.19593 0.44568 0.30502 0.0
C1300 C 0.1865 0.44919 0.28505 0.0
C1301 C 0.17026 0.46304 0.2841 0.0
C1302 C 0.19752 0.45161 0.34554 0.0
C1303 C 0.19442 0.43937 0.26461 0.0
H1304 H 0.26952 0.44404 0.31226 0.0
H1305 H 0.23024 0.38517 0.31875 0.0
H1306 H 0.22985 0.47218 0.28733 0.0
H1307 H 0.23182 0.47797 0.31546 0.0
H1308 H 0.25575 0.4749 0.30028 0.0
H1309 H 0.19318 0.38167 0.31047 0.0
H1310 H 0.18289 0.40375 0.32478 0.0
H1311 H 0.18202 0.40243 0.29625 0.0
H1312 H 0.16691 0.47713 0.33681 0.0
H1313 H 0.16362 0.46647 0.26876 0.0
H1314 H 0.21428 0.45903 0.34651 0.0
H1315 H 0.1979 0.43433 0.34793 0.0
H1316 H 0.18829 0.4585 0.35876 0.0
H1317 H 0.21057 0.44708 0.26093 0.0
H1318 H 0.18362 0.4413 0.25088 0.0
H1319 H 0.19597 0.42216 0.26634 0.0
C1320 C 0.13532 0.02691 0.43638 0.0
C1321 C 0.1372 0.00739 0.44584 0.0
C1322 C 0.14908 0.04501 0.44225 0.0
C1323 C 0.16494 0.04357 0.45809 0.0
C1324 C 0.16697 0.02387 0.46764 0.0
C1325 C 0.15313 0.00597 0.4613 0.0
C1326 C 0.14662 0.06568 0.43154 0.0
C1327 C 0.18357 0.0218 0.48474 0.0
C1328 C 0.21272 0.08524 0.46143 0.0
C1329 C 0.20673 0.09886 0.47809 0.0
C1330 C 0.19918 0.06728 0.45461 0.0
C1331 C 0.17928 0.06274 0.46485 0.0
C1332 C 0.17309 0.07643 0.48163 0.0
C1333 C 0.18684 0.0944 0.48798 0.0
C1334 C 0.2062 0.05314 0.4365 0.0
C1335 C 0.15204 0.07198 0.49303 0.0
H1336 H 0.12315 0.02795 0.42425 0.0
H1337 H 0.15445 0.99093 0.46877 0.0
H1338 H 0.14281 0.07804 0.44361 0.0
H1339 H 0.16191 0.07151 0.42392 0.0
H1340 H 0.13377 0.064 0.41918 0.0
H1341 H 0.18313 0.00532 0.49047 0.0
H1342 H 0.19983 0.02649 0.47854 0.0
H1343 H 0.18092 0.03274 0.49854 0.0
H1344 H 0.22802 0.08861 0.45364 0.0
H1345 H 0.18213 0.10479 0.50093 0.0
H1346 H 0.19412 0.05193 0.42343 0.0
H1347 H 0.20732 0.03682 0.44209 0.0
H1348 H 0.22197 0.05916 0.42992 0.0
H1349 H 0.13856 0.07143 0.48147 0.0
H1350 H 0.14962 0.08419 0.50579 0.0
H1351 H 0.15135 0.05617 0.5003 0.0
C1352 C 0.74544 0.11861 0.72383 0.0
C1353 C 0.74487 0.14072 0.72377 0.0
C1354 C 0.72915 0.10569 0.73358 0.0
C1355 C 0.71218 0.11522 0.74387 0.0
C1356 C 0.71183 0.13762 0.74427 0.0
C1357 C 0.7281 0.15011 0.73396 0.0
C1358 C 0.72983 0.08183 0.73244 0.0
C1359 C 0.69423 0.14835 0.75545 0.0
C1360 C 0.65977 0.08088 0.74972 0.0
C1361 C 0.6616 0.0737 0.77049 0.0
C1362 C 0.67606 0.09457 0.74095 0.0
C1363 C 0.69438 0.10162 0.75342 0.0
C1364 C 0.69599 0.09503 0.77466 0.0
C1365 C 0.67967 0.08092 0.78288 0.0
C1366 C 0.67395 0.10093 0.71809 0.0
C1367 C 0.7151 0.10263 0.78856 0.0
H1368 H 0.7584 0.11142 0.7158 0.0
H1369 H 0.72785 0.16727 0.73402 0.0
H1370 H 0.72972 0.07559 0.74876 0.0
H1371 H 0.71534 0.07418 0.72402 0.0
H1372 H 0.74424 0.07698 0.72398 0.0
H1373 H 0.69699 0.16599 0.75534 0.0
H1374 H 0.67862 0.14329 0.74758 0.0
H1375 H 0.69297 0.14345 0.77226 0.0
H1376 H 0.64592 0.07521 0.74001 0.0
H1377 H 0.68107 0.0755 0.79899 0.0
H1378 H 0.68726 0.09524 0.70848 0.0
H1379 H 0.67519 0.11852 0.7173 0.0
H1380 H 0.65852 0.0943 0.71067 0.0
H1381 H 0.72977 0.09662 0.78173 0.0
H1382 H 0.71322 0.0972 0.80517 0.0
H1383 H 0.7176 0.12028 0.78902 0.0
C1384 C 0.36083 0.03835 0.55293 0.0
C1385 C 0.38207 0.04604 0.55778 0.0
C1386 C 0.34556 0.05232 0.54802 0.0
C1387 C 0.35169 0.07449 0.54803 0.0
C1388 C 0.37269 0.08244 0.5544 0.0
C1389 C 0.38766 0.06811 0.55913 0.0
C1390 C 0.32327 0.04322 0.54143 0.0
C1391 C 0.37982 0.10598 0.55473 0.0
C1392 C 0.32353 0.10467 0.50707 0.0
C1393 C 0.30822 0.11421 0.51944 0.0
C1394 C 0.33798 0.09206 0.51632 0.0
C1395 C 0.33717 0.08892 0.53855 0.0
C1396 C 0.3222 0.09901 0.5513 0.0
C1397 C 0.30785 0.11156 0.54157 0.0
C1398 C 0.35376 0.08165 0.50216 0.0
C1399 C 0.32101 0.09612 0.57507 0.0
H1400 H 0.35632 0.02133 0.55223 0.0
H1401 H 0.40408 0.07422 0.56267 0.0
H1402 H 0.31106 0.05192 0.54989 0.0
H1403 H 0.32105 0.04517 0.52407 0.0
H1404 H 0.32031 0.02602 0.54472 0.0
H1405 H 0.39544 0.1098 0.56308 0.0
H1406 H 0.38152 0.11133 0.5381 0.0
H1407 H 0.3677 0.11523 0.56266 0.0
H1408 H 0.324 0.10669 0.48997 0.0
H1409 H 0.29604 0.11888 0.55122 0.0
H1410 H 0.35077 0.06407 0.50275 0.0
H1411 H 0.37035 0.08616 0.50797 0.0
H1412 H 0.35268 0.08617 0.48526 0.0
H1413 H 0.31596 0.07922 0.57824 0.0
H1414 H 0.30951 0.10622 0.58292 0.0
H1415 H 0.33704 0.10005 0.58251 0.0
C1416 C 0.60299 0.51204 0.56661 0.0
C1417 C 0.61673 0.52878 0.57588 0.0
C1418 C 0.611 0.49342 0.55833 0.0
C1419 C 0.63332 0.49166 0.5589 0.0
C1420 C 0.64719 0.50817 0.56881 0.0
C1421 C 0.6387 0.52638 0.57737 0.0
C1422 C 0.59566 0.47598 0.54825 0.0
C1423 C 0.67113 0.507 0.56959 0.0
C1424 C 0.65821 0.43975 0.54805 0.0
C1425 C 0.66453 0.44183 0.52672 0.0
C1426 C 0.64703 0.45534 0.55852 0.0
C1427 C 0.64249 0.47359 0.54749 0.0
C1428 C 0.64813 0.47534 0.52574 0.0
C1429 C 0.65889 0.45936 0.51559 0.0
C1430 C 0.64079 0.45269 0.58157 0.0
C1431 C 0.64382 0.49465 0.51346 0.0
H1432 H 0.58602 0.51372 0.56516 0.0
H1433 H 0.6494 0.53893 0.58498 0.0
H1434 H 0.59797 0.47536 0.53071 0.0
H1435 H 0.59891 0.46026 0.5542 0.0
H1436 H 0.57867 0.47852 0.55154 0.0
H1437 H 0.6796 0.52075 0.57867 0.0
H1438 H 0.67485 0.49211 0.57704 0.0
H1439 H 0.67755 0.50664 0.55311 0.0
H1440 H 0.66242 0.42619 0.55672 0.0
H1441 H 0.66374 0.46113 0.49911 0.0
H1442 H 0.62377 0.45563 0.58391 0.0
H1443 H 0.65063 0.46457 0.59183 0.0
H1444 H 0.64312 0.43653 0.58705 0.0
H1445 H 0.6266 0.49728 0.51434 0.0
H1446 H 0.64835 0.49312 0.49639 0.0
H1447 H 0.65302 0.50902 0.52072 0.0
C1448 C 0.72087 0.29147 0.37522 0.0
C1449 C 0.73581 0.30308 0.36245 0.0
C1450 C 0.71486 0.29974 0.3952 0.0
C1451 C 0.72405 0.32005 0.40256 0.0
C1452 C 0.73914 0.33181 0.38975 0.0
C1453 C 0.74477 0.32321 0.36986 0.0
C1454 C 0.69872 0.28677 0.40843 0.0
C1455 C 0.74932 0.35354 0.39704 0.0
C1456 C 0.69874 0.35436 0.44445 0.0
C1457 C 0.71199 0.35235 0.46219 0.0
C1458 C 0.70163 0.34291 0.42522 0.0
C1459 C 0.71818 0.32917 0.4237 0.0
C1460 C 0.73065 0.326 0.44194 0.0
C1461 C 0.72738 0.33759 0.46098 0.0
C1462 C 0.68784 0.34652 0.40616 0.0
C1463 C 0.74841 0.31143 0.441 0.0
H1464 H 0.71403 0.27581 0.36968 0.0
H1465 H 0.75601 0.33245 0.35993 0.0
H1466 H 0.706 0.28344 0.42395 0.0
H1467 H 0.68482 0.29593 0.41197 0.0
H1468 H 0.69282 0.2714 0.40027 0.0
H1469 H 0.76086 0.36054 0.38523 0.0
H1470 H 0.73675 0.36455 0.39982 0.0
H1471 H 0.75788 0.35244 0.41242 0.0
H1472 H 0.6867 0.36559 0.44525 0.0
H1473 H 0.7376 0.33577 0.47463 0.0
H1474 H 0.68166 0.33111 0.39831 0.0
H1475 H 0.69763 0.35562 0.39425 0.0
H1476 H 0.67404 0.35556 0.41061 0.0
H1477 H 0.74262 0.29578 0.43341 0.0
H1478 H 0.75492 0.3088 0.45708 0.0
H1479 H 0.76165 0.31851 0.43105 0.0
C1480 C 0.53925 0.0458 0.93877 0.0
C1481 C 0.51757 0.03786 0.93955 0.0
C1482 C 0.55047 0.04624 0.91946 0.0
C1483 C 0.53998 0.03795 0.90052 0.0
C1484 C 0.51807 0.03022 0.90103 0.0
C1485 C 0.50706 0.03056 0.92047 0.0
C1486 C 0.57374 0.05501 0.91946 0.0
C1487 C 0.50646 0.02091 0.8812 0.0
C1488 C 0.56577 0.05052 0.84711 0.0
C1489 C 0.57743 0.03288 0.84352 0.0
C1490 C 0.55347 0.05245 0.86564 0.0
C1491 C 0.55238 0.03604 0.88051 0.0
C1492 C 0.56364 0.01791 0.8766 0.0
C1493 C 0.57628 0.0167 0.85829 0.0
C1494 C 0.54211 0.07226 0.86959 0.0
C1495 C 0.56243 -0.00017 0.8918 0.0
H1496 H 0.54772 0.05117 0.95336 0.0
H1497 H 0.49021 0.02485 0.92072 0.0
H1498 H 0.58397 0.04191 0.91596 0.0
H1499 H 0.57664 0.06671 0.90675 0.0
H1500 H 0.57888 0.06287 0.93502 0.0
H1501 H 0.48921 0.01625 0.88413 0.0
H1502 H 0.50781 0.03253 0.86832 0.0
H1503 H 0.51399 0.00662 0.87528 0.0
H1504 H 0.56677 0.06309 0.83573 0.0
H1505 H 0.58512 0.00294 0.8554 0.0
H1506 H 0.54828 0.08068 0.88453 0.0
H1507 H 0.52471 0.06794 0.87179 0.0
H1508 H 0.54431 0.08339 0.85629 0.0
H1509 H 0.56935 0.00556 0.90751 0.0
H1510 H 0.57117 0.98633 0.88578 0.0
H1511 H 0.54546 0.99387 0.89448 0.0
C1512 C 0.30108 0.29501 0.42757 0.0
C1513 C 0.29541 0.29623 0.40603 0.0
C1514 C 0.29471 0.27682 0.43902 0.0
C1515 C 0.2824 0.25945 0.42865 0.0
C1516 C 0.27649 0.26064 0.40696 0.0
C1517 C 0.28308 0.27902 0.3959 0.0
C1518 C 0.30125 0.27614 0.46217 0.0
C1519 C 0.26343 0.2424 0.39536 0.0
C1520 C 0.28355 0.20497 0.45202 0.0
C1521 C 0.26425 0.20296 0.46337 0.0
C1522 C 0.28959 0.22322 0.44055 0.0
C1523 C 0.276 0.23988 0.44043 0.0
C1524 C 0.25641 0.2379 0.45168 0.0
C1525 C 0.25076 0.21946 0.46301 0.0
C1526 C 0.31059 0.22476 0.4287 0.0
C1527 C 0.24151 0.25534 0.45188 0.0
H1528 H 0.31039 0.30837 0.43554 0.0
H1529 H 0.2789 0.27976 0.37918 0.0
H1530 H 0.28683 0.27339 0.47228 0.0
H1531 H 0.31109 0.26267 0.46437 0.0
H1532 H 0.31061 0.29109 0.46794 0.0
H1533 H 0.25976 0.24605 0.37862 0.0
H1534 H 0.27224 0.22797 0.39521 0.0
H1535 H 0.24812 0.23851 0.40383 0.0
H1536 H 0.29408 0.19232 0.45218 0.0
H1537 H 0.23582 0.21807 0.47173 0.0
H1538 H 0.32112 0.23874 0.43497 0.0
H1539 H 0.30774 0.22719 0.41153 0.0
H1540 H 0.31919 0.21029 0.43015 0.0
H1541 H 0.24985 0.27031 0.45885 0.0
H1542 H 0.22675 0.25123 0.46122 0.0
H1543 H 0.23683 0.25855 0.43532 0.0
C1544 C 0.49365 0.49129 0.8939 0.0
C1545 C 0.49057 0.46972 0.89886 0.0
C1546 C 0.47806 0.50088 0.88257 0.0
C1547 C 0.45899 0.48858 0.87594 0.0
C1548 C 0.45533 0.46709 0.88177 0.0
C1549 C 0.47115 0.45793 0.8932 0.0
C1550 C 0.48253 0.52385 0.87669 0.0
C1551 C 0.43518 0.45345 0.87502 0.0
C1552 C 0.41218 0.51518 0.85353 0.0
C1553 C 0.41534 0.5124 0.83148 0.0
C1554 C 0.42641 0.50778 0.8683 0.0
C1555 C 0.4441 0.49734 0.86081 0.0
C1556 C 0.44752 0.49479 0.8386 0.0
C1557 C 0.43315 0.50236 0.82426 0.0
C1558 C 0.42239 0.51088 0.89189 0.0
C1559 C 0.4662 0.48373 0.82993 0.0
H1560 H 0.50868 0.50047 0.89805 0.0
H1561 H 0.4685 0.44137 0.89733 0.0
H1562 H 0.48545 0.52462 0.85927 0.0
H1563 H 0.46849 0.53277 0.88032 0.0
H1564 H 0.49676 0.53191 0.88526 0.0
H1565 H 0.43383 0.43775 0.88259 0.0
H1566 H 0.42082 0.46169 0.87916 0.0
H1567 H 0.43511 0.4507 0.85743 0.0
H1568 H 0.39848 0.52293 0.85925 0.0
H1569 H 0.43582 0.50015 0.80728 0.0
H1570 H 0.43672 0.51941 0.89983 0.0
H1571 H 0.41951 0.49517 0.89926 0.0
H1572 H 0.40838 0.52002 0.89513 0.0
H1573 H 0.48149 0.49193 0.83621 0.0
H1574 H 0.46675 0.48334 0.81221 0.0
H1575 H 0.46513 0.46712 0.83532 0.0
C1576 C 0.72627 0.75999 0.13076 0.0
C1577 C 0.71626 0.75426 0.14995 0.0
C1578 C 0.73103 0.74448 0.11539 0.0
C1579 C 0.72564 0.72268 0.11931 0.0
C1580 C 0.71685 0.71674 0.13924 0.0
C1581 C 0.71225 0.73263 0.15436 0.0
C1582 C 0.74058 0.7515 0.09441 0.0
C1583 C 0.711 0.69367 0.14406 0.0
C1584 C 0.71072 0.68946 0.0691 0.0
C1585 C 0.72977 0.68029 0.06447 0.0
C1586 C 0.70893 0.70252 0.08742 0.0
C1587 C 0.72664 0.70657 0.10152 0.0
C1588 C 0.74558 0.69657 0.09752 0.0
C1589 C 0.74693 0.6835 0.079 0.0
C1590 C 0.68837 0.71276 0.09115 0.0
C1591 C 0.76473 0.70042 0.11227 0.0
H1592 H 0.72977 0.7767 0.12747 0.0
H1593 H 0.70445 0.72812 0.16915 0.0
H1594 H 0.75447 0.74254 0.09029 0.0
H1595 H 0.72847 0.74803 0.0815 0.0
H1596 H 0.74589 0.76881 0.09475 0.0
H1597 H 0.70746 0.69155 0.16125 0.0
H1598 H 0.6966 0.68747 0.13463 0.0
H1599 H 0.72414 0.68389 0.13938 0.0
H1600 H 0.69731 0.6869 0.05806 0.0
H1601 H 0.76169 0.67643 0.07554 0.0
H1602 H 0.69146 0.73028 0.08991 0.0
H1603 H 0.68233 0.70967 0.10747 0.0
H1604 H 0.67564 0.70685 0.07945 0.0
H1605 H 0.77195 0.71706 0.111 0.0
H1606 H 0.77718 0.68952 0.10839 0.0
H1607 H 0.75978 0.69838 0.12911 0.0
C1608 C 0.00662 0.09102 0.17871 0.0
C1609 C 0.00432 0.0979 0.15789 0.0
C1610 C 0.98871 0.08371 0.19064 0.0
C1611 C 0.96797 0.08323 0.18154 0.0
C1612 C 0.96545 0.09092 0.16085 0.0
C1613 C 0.98368 0.09815 0.14925 0.0
C1614 C 0.99207 0.07562 0.21266 0.0
C1615 C 0.94359 0.09079 0.15068 0.0
C1616 C 0.92794 0.04075 0.20316 0.0
C1617 C 0.91716 0.05238 0.21849 0.0
C1618 C 0.9439 0.05079 0.19041 0.0
C1619 C 0.94924 0.07303 0.19305 0.0
C1620 C 0.93771 0.08504 0.20776 0.0
C1621 C 0.92176 0.07456 0.22033 0.0
C1622 C 0.95573 0.03742 0.17479 0.0
C1623 C 0.94289 0.1088 0.21093 0.0
H1624 H 0.02252 0.09055 0.1854 0.0
H1625 H 0.98178 0.10375 0.13328 0.0
H1626 H 0.98186 0.08341 0.22442 0.0
H1627 H 0.98725 0.05825 0.21268 0.0
H1628 H 0.00903 0.07851 0.21803 0.0
H1629 H 0.9442 0.09909 0.13534 0.0
H1630 H 0.93669 0.07412 0.14759 0.0
H1631 H 0.93256 0.09852 0.16164 0.0
H1632 H 0.92439 0.02362 0.20154 0.0
H1633 H 0.91347 0.08366 0.23213 0.0
H1634 H 0.97272 0.03764 0.17989 0.0
H1635 H 0.95564 0.04412 0.15869 0.0
H1636 H 0.94864 0.0206 0.17359 0.0
H1637 H 0.95894 0.11215 0.21847 0.0
H1638 H 0.93099 0.11612 0.22125 0.0
H1639 H 0.94349 0.11658 0.19534 0.0
C1640 C 0.24955 0.77745 0.1439 0.0
C1641 C 0.27147 0.78093 0.14875 0.0
C1642 C 0.23979 0.79101 0.13043 0.0
C1643 C 0.25227 0.80849 0.12181 0.0
C1644 C 0.27401 0.81297 0.12803 0.0
C1645 C 0.2834 0.79903 0.14131 0.0
C1646 C 0.2166 0.78564 0.12413 0.0
C1647 C 0.28779 0.83165 0.11947 0.0
C1648 C 0.24198 0.82496 0.06566 0.0
C1649 C 0.23273 0.8441 0.06923 0.0
C1650 C 0.24741 0.81275 0.08267 0.0
C1651 C 0.24379 0.82002 0.10386 0.0
C1652 C 0.23358 0.83889 0.1076 0.0
C1653 C 0.22801 0.85069 0.09015 0.0
C1654 C 0.25791 0.79253 0.07794 0.0
C1655 C 0.22957 0.84716 0.12997 0.0
H1656 H 0.24031 0.76339 0.14956 0.0
H1657 H 0.30029 0.80187 0.14531 0.0
H1658 H 0.20791 0.80015 0.12452 0.0
H1659 H 0.21571 0.77888 0.10752 0.0
H1660 H 0.2083 0.77381 0.13472 0.0
H1661 H 0.30337 0.83461 0.12806 0.0
H1662 H 0.29104 0.82849 0.10231 0.0
H1663 H 0.27935 0.8463 0.12074 0.0
H1664 H 0.24544 0.81971 0.04947 0.0
H1665 H 0.22093 0.86555 0.09294 0.0
H1666 H 0.24944 0.77907 0.08635 0.0
H1667 H 0.2747 0.79449 0.08386 0.0
H1668 H 0.25805 0.78826 0.06059 0.0
H1669 H 0.22199 0.83425 0.13974 0.0
H1670 H 0.21917 0.86046 0.13016 0.0
H1671 H 0.24508 0.85296 0.13771 0.0
C1672 C 0.00656 0.46686 0.14534 0.0
C1673 C 0.01518 0.4764 0.127 0.0
C1674 C 0.01722 0.46995 0.16509 0.0
C1675 C 0.03694 0.48286 0.16646 0.0
C1676 C 0.04633 0.49143 0.14777 0.0
C1677 C 0.03531 0.48816 0.12829 0.0
C1678 C 0.00679 0.46043 0.18466 0.0
C1679 C 0.06737 0.50527 0.14855 0.0
C1680 C 0.05108 0.51689 0.21626 0.0
C1681 C 0.06737 0.50633 0.2253 0.0
C1682 C 0.04049 0.50888 0.19758 0.0
C1683 C 0.04638 0.48984 0.1876 0.0
C1684 C 0.06223 0.47861 0.19706 0.0
C1685 C 0.07255 0.48699 0.21589 0.0
C1686 C 0.02355 0.52128 0.18808 0.0
C1687 C 0.06886 0.45825 0.18685 0.0
H1688 H 0.99119 0.45742 0.14437 0.0
H1689 H 0.042 0.49578 0.11427 0.0
H1690 H 0.0186 0.45278 0.19425 0.0
H1691 H 0.00076 0.47326 0.19489 0.0
H1692 H 0.99312 0.44846 0.1805 0.0
H1693 H 0.07368 0.50863 0.13235 0.0
H1694 H 0.06514 0.52065 0.15701 0.0
H1695 H 0.07955 0.49755 0.15758 0.0
H1696 H 0.04684 0.53174 0.22356 0.0
H1697 H 0.08512 0.47874 0.22284 0.0
H1698 H 0.00852 0.51079 0.18525 0.0
H1699 H 0.02902 0.52727 0.1724 0.0
H1700 H 0.01995 0.53508 0.19852 0.0
H1701 H 0.05457 0.44703 0.1829 0.0
H1702 H 0.07969 0.45028 0.19734 0.0
H1703 H 0.07728 0.46179 0.17166 0.0
C1704 C 0.36556 0.73402 0.28117 0.0
C1705 C 0.3738 0.72732 0.2615 0.0
C1706 C 0.37883 0.73797 0.2992 0.0
C1707 C 0.40081 0.73478 0.29765 0.0
C1708 C 0.40918 0.72765 0.278 0.0
C1709 C 0.39563 0.7242 0.26012 0.0
C1710 C 0.36938 0.74579 0.31984 0.0
C1711 C 0.43252 0.72389 0.27581 0.0
C1712 C 0.43977 0.7647 0.33698 0.0
C1713 C 0.4425 0.74922 0.35197 0.0
C1714 C 0.42611 0.76023 0.31934 0.0
C1715 C 0.4152 0.73966 0.3164 0.0
C1716 C 0.41798 0.72389 0.33138 0.0
C1717 C 0.43146 0.72892 0.34914 0.0
C1718 C 0.42326 0.77758 0.3039 0.0
C1719 C 0.40686 0.70167 0.32855 0.0
H1720 H 0.34865 0.73604 0.28257 0.0
H1721 H 0.40223 0.7193 0.24497 0.0
H1722 H 0.37184 0.73464 0.33268 0.0
H1723 H 0.37767 0.76149 0.3249 0.0
H1724 H 0.35196 0.74744 0.31839 0.0
H1725 H 0.43624 0.71721 0.25975 0.0
H1726 H 0.4427 0.73908 0.27868 0.0
H1727 H 0.43696 0.71275 0.288 0.0
H1728 H 0.44813 0.78047 0.33916 0.0
H1729 H 0.43363 0.71686 0.36061 0.0
H1730 H 0.40609 0.78037 0.30285 0.0
H1731 H 0.42832 0.77259 0.28769 0.0
H1732 H 0.43264 0.79284 0.30869 0.0
H1733 H 0.38924 0.70228 0.32828 0.0
H1734 H 0.41096 0.69116 0.34147 0.0
H1735 H 0.41136 0.69443 0.313 0.0
C1736 C 0.93526 0.38782 0.98567 0.0
C1737 C 0.94648 0.39255 0.00489 0.0
C1738 C 0.93671 0.3684 0.97442 0.0
C1739 C 0.94972 0.35342 0.9826 0.0
C1740 C 0.95974 0.35744 0.0028 0.0
C1741 C 0.95801 0.37699 0.01371 0.0
C1742 C 0.9256 0.36462 0.95303 0.0
C1743 C 0.9737 0.34185 0.0121 0.0
C1744 C 0.94887 0.29864 0.95497 0.0
C1745 C 0.96641 0.30168 0.94117 0.0
C1746 C 0.94324 0.31527 0.96875 0.0
C1747 C 0.95547 0.33531 0.96868 0.0
C1748 C 0.97332 0.33835 0.95499 0.0
C1749 C 0.97854 0.32154 0.94142 0.0
C1750 C 0.92413 0.3115 0.98317 0.0
C1751 C 0.98684 0.35947 0.9545 0.0
H1752 H 0.92603 0.39968 0.97899 0.0
H1753 H 0.96682 0.38059 0.02851 0.0
H1754 H 0.9377 0.36601 0.94014 0.0
H1755 H 0.91728 0.34832 0.95165 0.0
H1756 H 0.91376 0.37629 0.95036 0.0
H1757 H 0.97757 0.34575 0.02918 0.0
H1758 H 0.96577 0.32539 0.01061 0.0
H1759 H 0.98894 0.34216 0.00309 0.0
H1760 H 0.93941 0.28335 0.95488 0.0
H1761 H 0.99216 0.32405 0.93089 0.0
H1762 H 0.91189 0.32233 0.97917 0.0
H1763 H 0.92896 0.3152 4e-05 0.0
H1764 H 0.91667 0.29482 0.98177 0.0
H1765 H 0.97679 0.37211 0.94982 0.0
H1766 H 0.00038 0.3591 0.94313 0.0
H1767 H 0.99344 0.36401 0.97064 0.0
C1768 C 0.63866 0.79458 0.3083 0.0
C1769 C 0.6326 0.78864 0.28719 0.0
C1770 C 0.62414 0.79138 0.32515 0.0
C1771 C 0.60306 0.78216 0.32071 0.0
C1772 C 0.59733 0.77485 0.29966 0.0
C1773 C 0.61218 0.77817 0.28316 0.0
C1774 C 0.63094 0.79911 0.34743 0.0
C1775 C 0.575 0.76496 0.29424 0.0
C1776 C 0.5626 0.76538 0.36343 0.0
C1777 C 0.55011 0.78269 0.3641 0.0
C1778 C 0.58061 0.76531 0.3501 0.0
C1779 C 0.58611 0.78291 0.33718 0.0
C1780 C 0.57418 0.80084 0.33866 0.0
C1781 C 0.55638 0.80052 0.35211 0.0
C1782 C 0.59311 0.74602 0.34911 0.0
C1783 C 0.57957 0.82 0.32524 0.0
H1784 H 0.65455 0.8024 0.31154 0.0
H1785 H 0.60729 0.77371 0.26688 0.0
H1786 H 0.62337 0.81387 0.35167 0.0
H1787 H 0.62552 0.78711 0.35924 0.0
H1788 H 0.6486 0.80265 0.34885 0.0
H1789 H 0.57384 0.75796 0.2777 0.0
H1790 H 0.56992 0.75232 0.30549 0.0
H1791 H 0.56356 0.77729 0.29583 0.0
H1792 H 0.55788 0.75158 0.37271 0.0
H1793 H 0.54695 0.81405 0.35267 0.0
H1794 H 0.61057 0.75089 0.35008 0.0
H1795 H 0.58996 0.73723 0.3336 0.0
H1796 H 0.58865 0.73502 0.36214 0.0
H1797 H 0.59664 0.82609 0.32744 0.0
H1798 H 0.56951 0.83315 0.32924 0.0
H1799 H 0.57715 0.81534 0.30809 0.0
C1800 C 0.0458 0.17685 0.02793 0.0
C1801 C 0.05703 0.15876 0.02523 0.0
C1802 C 0.03677 0.18602 0.01043 0.0
C1803 C 0.03879 0.17676 0.98971 0.0
C1804 C 0.05044 0.15877 0.98676 0.0
C1805 C 0.05949 0.15003 0.00455 0.0
C1806 C 0.02454 0.20529 0.01423 0.0
C1807 C 0.0529 0.14845 0.9649 0.0
C1808 C 0.99479 0.1884 0.95156 0.0
C1809 C 0.00472 0.20554 0.94053 0.0
C1810 C 0.00606 0.17818 0.96687 0.0
C1811 C 0.02772 0.1854 0.9714 0.0
C1812 C 0.03813 0.20203 0.9596 0.0
C1813 C 0.02651 0.21186 0.94421 0.0
C1814 C 0.99447 0.1603 0.97891 0.0
C1815 C 0.06119 0.21023 0.96403 0.0
H1816 H 0.0435 0.18353 0.04384 0.0
H1817 H 0.06842 0.13624 0.00227 0.0
H1818 H 0.03083 0.21831 0.00389 0.0
H1819 H 0.00742 0.20121 0.00995 0.0
H1820 H 0.02552 0.21131 0.03112 0.0
H1821 H 0.06333 0.1352 0.96516 0.0
H1822 H 0.03693 0.14212 0.95853 0.0
H1823 H 0.05976 0.16041 0.95366 0.0
H1824 H 0.978 0.18333 0.94868 0.0
H1825 H 0.03429 0.22511 0.93576 0.0
H1826 H 0.99266 0.1655 0.99585 0.0
H1827 H 0.00391 0.14629 0.97868 0.0
H1828 H 0.97831 0.15528 0.97214 0.0
H1829 H 0.06248 0.21831 0.98007 0.0
H1830 H 0.06755 0.2217 0.95206 0.0
H1831 H 0.07143 0.19684 0.96415 0.0
C1832 C 0.40597 0.35011 0.28205 0.0
C1833 C 0.38519 0.33999 0.28406 0.0
C1834 C 0.42028 0.34269 0.26699 0.0
C1835 C 0.41372 0.3246 0.25373 0.0
C1836 C 0.39277 0.31434 0.2556 0.0
C1837 C 0.37873 0.32222 0.27067 0.0
C1838 C 0.44248 0.3541 0.26537 0.0
C1839 C 0.38522 0.29498 0.24175 0.0
C1840 C 0.44333 0.31512 0.20205 0.0
C1841 C 0.45685 0.29979 0.20786 0.0
C1842 C 0.42938 0.32352 0.2169 0.0
C1843 C 0.42882 0.31628 0.238 0.0
C1844 C 0.44249 0.30091 0.24401 0.0
C1845 C 0.45642 0.29292 0.2289 0.0
C1846 C 0.41517 0.34006 0.20997 0.0
C1847 C 0.44221 0.29271 0.26635 0.0
H1848 H 0.41121 0.36366 0.29254 0.0
H1849 H 0.3626 0.3145 0.27189 0.0
H1850 H 0.45465 0.34309 0.26905 0.0
H1851 H 0.44541 0.35928 0.24883 0.0
H1852 H 0.44488 0.36828 0.27646 0.0
H1853 H 0.36846 0.2888 0.24527 0.0
H1854 H 0.38623 0.29892 0.22467 0.0
H1855 H 0.39578 0.28212 0.24417 0.0
H1856 H 0.44362 0.3206 0.18586 0.0
H1857 H 0.46676 0.28103 0.23351 0.0
H1858 H 0.41808 0.3547 0.22032 0.0
H1859 H 0.3981 0.33403 0.21179 0.0
H1860 H 0.41791 0.34435 0.1931 0.0
H1861 H 0.44582 0.30612 0.27814 0.0
H1862 H 0.45399 0.28088 0.26852 0.0
H1863 H 0.42599 0.28515 0.27001 0.0
C1864 C 0.54452 0.35677 0.01493 0.0
C1865 C 0.5453 0.37906 0.01559 0.0
C1866 C 0.53857 0.34512 0.03295 0.0
C1867 C 0.53333 0.35604 0.05208 0.0
C1868 C 0.53474 0.37856 0.05304 0.0
C1869 C 0.54067 0.38981 0.03476 0.0
C1870 C 0.53715 0.32111 0.03128 0.0
C1871 C 0.52939 0.39075 0.0732 0.0
C1872 C 0.49464 0.32587 0.08902 0.0
C1873 C 0.50847 0.31916 0.10449 0.0
C1874 C 0.50255 0.33809 0.07207 0.0
C1875 C 0.52484 0.34382 0.07054 0.0
C1876 C 0.53889 0.33744 0.08629 0.0
C1877 C 0.53053 0.32515 0.1031 0.0
C1878 C 0.48704 0.34458 0.05558 0.0
C1879 C 0.56276 0.34334 0.08518 0.0
H1880 H 0.54789 0.34839 0.0001 0.0
H1881 H 0.54159 0.40705 0.03543 0.0
H1882 H 0.54653 0.31492 0.04431 0.0
H1883 H 0.52024 0.3145 0.03312 0.0
H1884 H 0.54313 0.31512 0.01573 0.0
H1885 H 0.53276 0.40824 0.07177 0.0
H1886 H 0.51217 0.38716 0.07694 0.0
H1887 H 0.53871 0.38572 0.08688 0.0
H1888 H 0.47756 0.32134 0.08998 0.0
H1889 H 0.5413 0.32003 0.11501 0.0
H1890 H 0.49089 0.33776 0.03964 0.0
H1891 H 0.48859 0.36216 0.05447 0.0
H1892 H 0.47013 0.3392 0.05934 0.0
H1893 H 0.5692 0.33619 0.0704 0.0
H1894 H 0.57141 0.33785 0.09911 0.0
H1895 H 0.56618 0.36086 0.08442 0.0
C1896 C 0.66761 0.26071 0.20958 0.0
C1897 C 0.67561 0.27536 0.2257 0.0
C1898 C 0.64651 0.26061 0.20199 0.0
C1899 C 0.63309 0.27548 0.21077 0.0
C1900 C 0.64129 0.29073 0.22656 0.0
C1901 C 0.66243 0.29047 0.23384 0.0
C1902 C 0.63836 0.24416 0.18507 0.0
C1903 C 0.62747 0.30678 0.23639 0.0
C1904 C 0.58112 0.28425 0.18233 0.0
C1905 C 0.56611 0.27129 0.19377 0.0
C1906 C 0.60303 0.28575 0.1876 0.0
C1907 C 0.61004 0.27404 0.2047 0.0
C1908 C 0.59494 0.261 0.2163 0.0
C1909 C 0.5732 0.25979 0.2107 0.0
C1910 C 0.61869 0.29983 0.1749 0.0
C1911 C 0.60175 0.2483 0.23467 0.0
H1912 H 0.6778 0.24918 0.20304 0.0
H1913 H 0.66838 0.30165 0.24651 0.0
H1914 H 0.62556 0.23306 0.19182 0.0
H1915 H 0.63119 0.25196 0.17158 0.0
H1916 H 0.65123 0.23476 0.17879 0.0
H1917 H 0.63672 0.31858 0.24726 0.0
H1918 H 0.61993 0.31543 0.22374 0.0
H1919 H 0.61435 0.29842 0.2456 0.0
H1920 H 0.57576 0.29315 0.16921 0.0
H1921 H 0.56174 0.24973 0.21963 0.0
H1922 H 0.63094 0.29027 0.16765 0.0
H1923 H 0.62726 0.31223 0.18561 0.0
H1924 H 0.6107 0.3078 0.162 0.0
H1925 H 0.61347 0.23724 0.22908 0.0
H1926 H 0.58801 0.23887 0.24203 0.0
H1927 H 0.60984 0.25914 0.24716 0.0
C1928 C 0.48317 0.13267 0.06829 0.0
C1929 C 0.46999 0.11501 0.07494 0.0
C1930 C 0.48434 0.15211 0.07997 0.0
C1931 C 0.4718 0.15394 0.09859 0.0
C1932 C 0.45804 0.13629 0.10508 0.0
C1933 C 0.45742 0.11694 0.09324 0.0
C1934 C 0.49939 0.17051 0.0727 0.0
C1935 C 0.44421 0.13778 0.12466 0.0
C1936 C 0.49231 0.19682 0.13946 0.0
C1937 C 0.48037 0.21363 0.13432 0.0
C1938 C 0.48934 0.17714 0.12824 0.0
C1939 C 0.47384 0.17411 0.11168 0.0
C1940 C 0.46115 0.19072 0.10695 0.0
C1941 C 0.46467 0.21037 0.11823 0.0
C1942 C 0.50333 0.15984 0.13359 0.0
C1943 C 0.44426 0.18793 0.0896 0.0
H1944 H 0.49305 0.1311 0.05426 0.0
H1945 H 0.44706 0.10331 0.09824 0.0
H1946 H 0.49047 0.18458 0.07025 0.0
H1947 H 0.51168 0.17512 0.08522 0.0
H1948 H 0.50766 0.1666 0.05761 0.0
H1949 H 0.43353 0.12296 0.12686 0.0
H1950 H 0.45449 0.14096 0.13907 0.0
H1951 H 0.43422 0.15129 0.12352 0.0
H1952 H 0.50451 0.19923 0.15182 0.0
H1953 H 0.45528 0.22324 0.11427 0.0
H1954 H 0.51335 0.15617 0.11962 0.0
H1955 H 0.49327 0.14501 0.13721 0.0
H1956 H 0.51405 0.16446 0.14746 0.0
H1957 H 0.45198 0.18581 0.07386 0.0
H1958 H 0.43464 0.2018 0.08902 0.0
H1959 H 0.43329 0.17339 0.09209 0.0
C1960 C 0.25876 0.3971 0.75014 0.0
C1961 C 0.24609 0.39892 0.73198 0.0
C1962 C 0.2743 0.41354 0.75666 0.0
C1963 C 0.27693 0.43234 0.74492 0.0
C1964 C 0.26401 0.43432 0.72668 0.0
C1965 C 0.24885 0.41748 0.72032 0.0
C1966 C 0.28803 0.41073 0.77599 0.0
C1967 C 0.26614 0.45425 0.71396 0.0
C1968 C 0.30408 0.48206 0.77306 0.0
C1969 C 0.32484 0.48273 0.76467 0.0
C1970 C 0.28823 0.46588 0.76658 0.0
C1971 C 0.29337 0.44985 0.75159 0.0
C1972 C 0.31428 0.45044 0.74305 0.0
C1973 C 0.32972 0.46696 0.74958 0.0
C1974 C 0.266 0.46591 0.77578 0.0
C1975 C 0.32041 0.43348 0.72721 0.0
H1976 H 0.25669 0.38266 0.75906 0.0
H1977 H 0.23885 0.41896 0.70642 0.0
H1978 H 0.30519 0.41216 0.77148 0.0
H1979 H 0.28591 0.42348 0.78824 0.0
H1980 H 0.28408 0.39505 0.78324 0.0
H1981 H 0.25456 0.45341 0.70043 0.0
H1982 H 0.26348 0.46828 0.72447 0.0
H1983 H 0.28259 0.45693 0.70752 0.0
H1984 H 0.30017 0.49425 0.78464 0.0
H1985 H 0.34575 0.46729 0.7431 0.0
H1986 H 0.26193 0.45115 0.78457 0.0
H1987 H 0.25405 0.46611 0.76272 0.0
H1988 H 0.26446 0.47983 0.78685 0.0
H1989 H 0.31788 0.41761 0.73433 0.0
H1990 H 0.33739 0.4362 0.72217 0.0
H1991 H 0.31002 0.43301 0.71282 0.0
C1992 C 0.31755 0.6894 0.79031 0.0
C1993 C 0.2966 0.68899 0.78222 0.0
C1994 C 0.32725 0.67052 0.79295 0.0
C1995 C 0.31585 0.65072 0.78713 0.0
C1996 C 0.29485 0.65017 0.77862 0.0
C1997 C 0.28545 0.66928 0.77637 0.0
C1998 C 0.34963 0.67175 0.80218 0.0
C1999 C 0.28221 0.62936 0.77212 0.0
C2000 C 0.34639 0.60211 0.77709 0.0
C2001 C 0.34259 0.59119 0.796 0.0
C2002 C 0.33797 0.62162 0.77405 0.0
C2003 C 0.32565 0.63051 0.7904 0.0
C2004 C 0.32224 0.61982 0.80973 0.0
C2005 C 0.33065 0.60024 0.81225 0.0
C2006 C 0.34182 0.63247 0.75316 0.0
C2007 C 0.30942 0.62891 0.82765 0.0
H2008 H 0.32647 0.70454 0.79451 0.0
H2009 H 0.26918 0.66874 0.77037 0.0
H2010 H 0.34951 0.66284 0.81711 0.0
H2011 H 0.36041 0.66417 0.79084 0.0
H2012 H 0.35638 0.68841 0.80578 0.0
H2013 H 0.26642 0.63171 0.76498 0.0
H2014 H 0.2914 0.62035 0.76037 0.0
H2015 H 0.27951 0.61938 0.78624 0.0
H2016 H 0.35554 0.59518 0.76443 0.0
H2017 H 0.32772 0.59194 0.82695 0.0
H2018 H 0.34936 0.64894 0.7561 0.0
H2019 H 0.32629 0.63365 0.74496 0.0
H2020 H 0.35227 0.6238 0.74231 0.0
H2021 H 0.31634 0.64528 0.83227 0.0
H2022 H 0.30897 0.61907 0.84199 0.0
H2023 H 0.29273 0.63005 0.8222 0.0
C2024 C 0.86735 0.47605 0.51634 0.0
C2025 C 0.87152 0.49729 0.51043 0.0
C2026 C 0.84657 0.46573 0.51551 0.0
C2027 C 0.82928 0.47714 0.50955 0.0
C2028 C 0.83317 0.49864 0.50394 0.0
C2029 C 0.85427 0.50831 0.504 0.0
C2030 C 0.84312 0.44257 0.52108 0.0
C2031 C 0.81502 0.51149 0.49814 0.0
C2032 C 0.77848 0.44404 0.49125 0.0
C2033 C 0.76753 0.44164 0.51056 0.0
C2034 C 0.79845 0.45604 0.49053 0.0
C2035 C 0.80715 0.46646 0.50944 0.0
C2036 C 0.7954 0.46518 0.52869 0.0
C2037 C 0.7759 0.45235 0.52912 0.0
C2038 C 0.81082 0.45641 0.46988 0.0
C2039 C 0.80377 0.47673 0.54898 0.0
H2040 H 0.88028 0.46742 0.52188 0.0
H2041 H 0.85716 0.52453 0.49893 0.0
H2042 H 0.83336 0.44093 0.53576 0.0
H2043 H 0.83415 0.43318 0.50807 0.0
H2044 H 0.85845 0.43555 0.52378 0.0
H2045 H 0.82066 0.5283 0.49502 0.0
H2046 H 0.80654 0.50428 0.48371 0.0
H2047 H 0.80317 0.5113 0.51127 0.0
H2048 H 0.77202 0.43549 0.47698 0.0
H2049 H 0.76728 0.45049 0.54401 0.0
H2050 H 0.82545 0.44803 0.47181 0.0
H2051 H 0.81612 0.47301 0.46579 0.0
H2052 H 0.80124 0.4486 0.45634 0.0
H2053 H 0.81781 0.46924 0.55495 0.0
H2054 H 0.79148 0.47637 0.56172 0.0
H2055 H 0.8092 0.49357 0.54586 0.0
C2056 C 0.74502 0.91527 0.79946 0.0
C2057 C 0.74162 0.89741 0.81208 0.0
C2058 C 0.72839 0.92799 0.79548 0.0
C2059 C 0.7079 0.92265 0.8043 0.0
C2060 C 0.70396 0.9037 0.81562 0.0
C2061 C 0.72092 0.89134 0.81946 0.0
C2062 C 0.73327 0.94809 0.78335 0.0
C2063 C 0.68226 0.89728 0.825 0.0
C2064 C 0.6783 0.96982 0.82149 0.0
C2065 C 0.66373 0.97085 0.80465 0.0
C2066 C 0.69238 0.95392 0.82169 0.0
C2067 C 0.69186 0.93853 0.80465 0.0
C2068 C 0.67675 0.93901 0.78789 0.0
C2069 C 0.66284 0.95524 0.78805 0.0
C2070 C 0.70822 0.95397 0.83991 0.0
C2071 C 0.67565 0.92274 0.76957 0.0
H2072 H 0.76101 0.9201 0.79381 0.0
H2073 H 0.71817 0.87732 0.82892 0.0
H2074 H 0.72058 0.9497 0.77132 0.0
H2075 H 0.73362 0.9621 0.79461 0.0
H2076 H 0.74897 0.94846 0.77513 0.0
H2077 H 0.68086 0.88057 0.83019 0.0
H2078 H 0.67962 0.90788 0.83907 0.0
H2079 H 0.66934 0.89908 0.81327 0.0
H2080 H 0.67904 0.98173 0.83444 0.0
H2081 H 0.65159 0.95594 0.775 0.0
H2082 H 0.72481 0.95624 0.83372 0.0
H2083 H 0.70642 0.93842 0.84772 0.0
H2084 H 0.70616 0.96675 0.85219 0.0
H2085 H 0.6906 0.92476 0.76013 0.0
H2086 H 0.66183 0.9242 0.75878 0.0
H2087 H 0.6744 0.9064 0.77569 0.0
C2088 C 0.64636 0.50289 0.97507 0.0
C2089 C 0.6337 0.50231 0.95655 0.0
C2090 C 0.66105 0.52049 0.98029 0.0
C2091 C 0.66312 0.53791 0.96663 0.0
C2092 C 0.65052 0.53737 0.94782 0.0
C2093 C 0.63594 0.51957 0.94301 0.0
C2094 C 0.67428 0.52047 0.00046 0.0
C2095 C 0.65231 0.55568 0.93289 0.0
C2096 C 0.68641 0.59137 0.99027 0.0
C2097 C 0.70774 0.59213 0.9834 0.0
C2098 C 0.67167 0.57388 0.98479 0.0
C2099 C 0.67842 0.55676 0.97212 0.0
C2100 C 0.69984 0.55749 0.96496 0.0
C2101 C 0.71425 0.57516 0.97069 0.0
C2102 C 0.64893 0.57362 0.99273 0.0
C2103 C 0.70759 0.53953 0.95138 0.0
H2104 H 0.64489 0.48947 0.98544 0.0
H2105 H 0.62599 0.51934 0.92883 0.0
H2106 H 0.69158 0.52226 0.99653 0.0
H2107 H 0.67113 0.53424 0.01112 0.0
H2108 H 0.67078 0.50563 0.00931 0.0
H2109 H 0.64162 0.55261 0.91873 0.0
H2110 H 0.64814 0.5704 0.94147 0.0
H2111 H 0.66906 0.55873 0.92733 0.0
H2112 H 0.68123 0.60439 9e-05 0.0
H2113 H 0.73069 0.5756 0.96528 0.0
H2114 H 0.64515 0.55975 0.00289 0.0
H2115 H 0.63757 0.57181 0.97904 0.0
H2116 H 0.64615 0.58835 0.00214 0.0
H2117 H 0.70569 0.52454 0.96017 0.0
H2118 H 0.72467 0.54273 0.94681 0.0
H2119 H 0.69774 0.5369 0.93662 0.0
C2120 C 0.2432 0.62469 0.22601 0.0
C2121 C 0.24076 0.64641 0.22471 0.0
C2122 C 0.22694 0.61076 0.23454 0.0
C2123 C 0.20807 0.61892 0.24236 0.0
C2124 C 0.20574 0.64095 0.24143 0.0
C2125 C 0.22205 0.65443 0.23235 0.0
C2126 C 0.2298 0.58729 0.23483 0.0
C2127 C 0.18604 0.65027 0.25002 0.0
C2128 C 0.15789 0.58066 0.24512 0.0
C2129 C 0.15824 0.57477 0.26645 0.0
C2130 C 0.17397 0.59511 0.2371 0.0
C2131 C 0.19052 0.60424 0.2509 0.0
C2132 C 0.19061 0.59887 0.27263 0.0
C2133 C 0.17459 0.58396 0.2801 0.0
C2134 C 0.17359 0.60012 0.21373 0.0
C2135 C 0.20776 0.60868 0.2879 0.0
H2136 H 0.25768 0.61856 0.21996 0.0
H2137 H 0.22035 0.67131 0.23147 0.0
H2138 H 0.22873 0.58179 0.25143 0.0
H2139 H 0.21674 0.57808 0.22551 0.0
H2140 H 0.24541 0.58354 0.22806 0.0
H2141 H 0.18718 0.66787 0.24899 0.0
H2142 H 0.17166 0.64335 0.24095 0.0
H2143 H 0.18358 0.64614 0.26695 0.0
H2144 H 0.14538 0.57345 0.23445 0.0
H2145 H 0.17483 0.57951 0.29663 0.0
H2146 H 0.18836 0.5954 0.20591 0.0
H2147 H 0.17333 0.6175 0.21193 0.0
H2148 H 0.15949 0.59176 0.20519 0.0
H2149 H 0.22361 0.60391 0.28286 0.0
H2150 H 0.20479 0.6038 0.30456 0.0
H2151 H 0.20864 0.62631 0.28759 0.0
C2152 C 0.89939 0.56161 0.04614 0.0
C2153 C 0.8935 0.53992 0.0492 0.0
C2154 C 0.88389 0.57567 0.04242 0.0
C2155 C 0.86199 0.56783 0.04151 0.0
C2156 C 0.85585 0.54626 0.04583 0.0
C2157 C 0.87168 0.53258 0.0497 0.0
C2158 C 0.89107 0.59861 0.03806 0.0
C2159 C 0.83265 0.53728 0.04502 0.0
C2160 C 0.81835 0.60568 0.03884 0.0
C2161 C 0.81427 0.60532 0.0168 0.0
C2162 C 0.83412 0.59384 0.04721 0.0
C2163 C 0.84588 0.5813 0.03319 0.0
C2164 C 0.84203 0.58118 0.01094 0.0
C2165 C 0.82636 0.59323 0.00303 0.0
C2166 C 0.83798 0.59449 0.07101 0.0
C2167 C 0.8542 0.56799 0.99544 0.0
H2168 H 0.9162 0.56743 0.04554 0.0
H2169 H 0.86699 0.51595 0.05249 0.0
H2170 H 0.88905 0.60131 0.02081 0.0
H2171 H 0.88109 0.60947 0.047 0.0
H2172 H 0.90815 0.60292 0.04245 0.0
H2173 H 0.83034 0.52092 0.05109 0.0
H2174 H 0.82261 0.54764 0.05452 0.0
H2175 H 0.82677 0.53678 0.02828 0.0
H2176 H 0.80908 0.61501 0.04956 0.0
H2177 H 0.82334 0.59285 0.98599 0.0
H2178 H 0.85516 0.59912 0.07458 0.0
H2179 H 0.83399 0.5784 0.07729 0.0
H2180 H 0.82824 0.60584 0.07963 0.0
H2181 H 0.87166 0.5726 0.99707 0.0
H2182 H 0.84944 0.56986 0.97858 0.0
H2183 H 0.85135 0.5509 0.99912 0.0
C2184 C 0.14546 0.03349 0.07812 0.0
C2185 C 0.12334 0.0339 0.08098 0.0
C2186 C 0.15399 0.01516 0.0699 0.0
C2187 C 0.14005 0.99678 0.06439 0.0
C2188 C 0.11779 0.99677 0.06813 0.0
C2189 C 0.10969 0.01536 0.07639 0.0
C2190 C 0.17784 0.01578 0.0663 0.0
C2191 C 0.10244 0.97747 0.06249 0.0
C2192 C 0.16129 0.9626 0.01991 0.0
C2193 C 0.1703 0.9469 0.03128 0.0
C2194 C 0.1505 0.97833 0.03046 0.0
C2195 C 0.14868 0.9784 0.05296 0.0
C2196 C 0.15673 0.96195 0.06445 0.0
C2197 C 0.16745 0.94634 0.05345 0.0
C2198 C 0.14198 0.99549 0.01759 0.0
C2199 C 0.155 0.96146 0.08844 0.0
H2200 H 0.15611 0.04766 0.08202 0.0
H2201 H 0.09255 0.01562 0.07845 0.0
H2202 H 0.18433 0.00209 0.07382 0.0
H2203 H 0.18108 0.0144 0.04893 0.0
H2204 H 0.18662 0.03073 0.07286 0.0
H2205 H 0.08605 0.97919 0.06859 0.0
H2206 H 0.10153 0.975 0.04489 0.0
H2207 H 0.10824 0.96297 0.06906 0.0
H2208 H 0.16327 0.96305 0.00275 0.0
H2209 H 0.17435 0.93424 0.06233 0.0
H2210 H 0.15119 0.01102 0.02162 0.0
H2211 H 0.12498 0.9971 0.0216 0.0
H2212 H 0.14316 0.99219 0.00012 0.0
H2213 H 0.16553 0.97489 0.09581 0.0
H2214 H 0.15977 0.94636 0.0947 0.0
H2215 H 0.13837 0.9635 0.09355 0.0
loop_
_geom_bond_atom_site_label_1
_geom_bond_atom_site_label_2
_geom_bond_distance
_geom_bond_site_symmetry_2
_ccdc_geom_bond_type
P0 O11 1.490 . S
P0 C14 1.812 . S
P0 C20 1.803 . S
P0 C26 1.819 . S
H1 C15 0.941 . S
H2 C16 0.939 . S
H3 C18 0.940 . S
H4 C19 0.940 . S
H5 C21 0.939 . S
H6 C22 0.942 . S
H7 C24 0.940 . S
H8 C25 0.939 . S
H9 C27 0.941 . S
H10 C31 0.939 . S
O11 P0 1.490 . S
H12 C28 0.939 . S
H13 C30 0.940 . S
C14 P0 1.812 . S
C14 C15 1.389 . S
C14 C19 1.391 . S
C15 H1 0.941 . S
C15 C14 1.389 . S
C15 C16 1.397 . S
C16 H2 0.939 . S
C16 C15 1.397 . S
C16 C17 1.378 . S
C17 C16 1.378 . S
C17 C18 1.378 . S
C18 H3 0.940 . S
C18 C17 1.378 . S
C18 C19 1.396 . S
C19 H4 0.940 . S
C19 C14 1.391 . S
C19 C18 1.396 . S
C20 P0 1.803 . S
C20 C21 1.378 . S
C20 C25 1.400 . S
C21 H5 0.939 . S
C21 C20 1.378 . S
C21 C22 1.361 . S
C22 H6 0.942 . S
C22 C21 1.361 . S
C22 C23 1.369 . S
C23 C22 1.369 . S
C23 C24 1.404 . S
C24 H7 0.940 . S
C24 C23 1.404 . S
C24 C25 1.389 . S
C25 H8 0.939 . S
C25 C20 1.400 . S
C25 C24 1.389 . S
C26 P0 1.819 . S
C26 C27 1.391 . S
C26 C31 1.391 . S
C27 H9 0.941 . S
C27 C26 1.391 . S
C27 C28 1.396 . S
C28 H12 0.939 . S
C28 C27 1.396 . S
C28 C29 1.397 . S
C29 C28 1.397 . S
C29 C30 1.385 . S
C30 H13 0.940 . S
C30 C29 1.385 . S
C30 C31 1.388 . S
C31 H10 0.939 . S
C31 C26 1.391 . S
C31 C30 1.388 . S
P32 O43 1.490 . S
P32 C46 1.812 . S
P32 C52 1.803 . S
P32 C58 1.819 . S
H33 C47 0.941 . S
H34 C48 0.939 . S
H35 C50 0.940 . S
H36 C51 0.940 . S
H37 C53 0.939 . S
H38 C54 0.942 . S
H39 C56 0.940 . S
H40 C57 0.939 . S
H41 C59 0.941 . S
H42 C63 0.939 . S
O43 P32 1.490 . S
H44 C60 0.939 . S
H45 C62 0.940 . S
C46 P32 1.812 . S
C46 C47 1.389 . S
C46 C51 1.391 . S
C47 H33 0.941 . S
C47 C46 1.389 . S
C47 C48 1.397 . S
C48 H34 0.939 . S
C48 C47 1.397 . S
C48 C49 1.378 . S
C49 C48 1.378 . S
C49 C50 1.378 . S
C50 H35 0.940 . S
C50 C49 1.378 . S
C50 C51 1.396 . S
C51 H36 0.940 . S
C51 C46 1.391 . S
C51 C50 1.396 . S
C52 P32 1.803 . S
C52 C53 1.378 . S
C52 C57 1.400 . S
C53 H37 0.939 . S
C53 C52 1.378 . S
C53 C54 1.361 . S
C54 H38 0.942 . S
C54 C53 1.361 . S
C54 C55 1.369 . S
C55 C54 1.369 . S
C55 C56 1.404 . S
C56 H39 0.940 . S
C56 C55 1.404 . S
C56 C57 1.389 . S
C57 H40 0.939 . S
C57 C52 1.400 . S
C57 C56 1.389 . S
C58 P32 1.819 . S
C58 C59 1.391 . S
C58 C63 1.391 . S
C59 H41 0.941 . S
C59 C58 1.391 . S
C59 C60 1.396 . S
C60 H44 0.939 . S
C60 C59 1.396 . S
C60 C61 1.397 . S
C61 C60 1.397 . S
C61 C62 1.385 . S
C62 H45 0.940 . S
C62 C61 1.385 . S
C62 C63 1.388 . S
C63 H42 0.939 . S
C63 C58 1.391 . S
C63 C62 1.388 . S
P64 O75 1.490 . S
P64 C78 1.812 . S
P64 C84 1.803 . S
P64 C90 1.819 . S
H65 C79 0.941 . S
H66 C80 0.939 . S
H67 C82 0.940 . S
H68 C83 0.940 . S
H69 C85 0.939 . S
H70 C86 0.942 . S
H71 C88 0.940 . S
H72 C89 0.939 . S
H73 C91 0.941 . S
H74 C95 0.939 . S
O75 P64 1.490 . S
H76 C92 0.939 . S
H77 C94 0.940 . S
C78 P64 1.812 . S
C78 C79 1.389 . S
C78 C83 1.391 . S
C79 H65 0.941 . S
C79 C78 1.389 . S
C79 C80 1.397 . S
C80 H66 0.939 . S
C80 C79 1.397 . S
C80 C81 1.378 . S
C81 C80 1.378 . S
C81 C82 1.378 . S
C82 H67 0.940 . S
C82 C81 1.378 . S
C82 C83 1.396 . S
C83 H68 0.940 . S
C83 C78 1.391 . S
C83 C82 1.396 . S
C84 P64 1.803 . S
C84 C85 1.378 . S
C84 C89 1.400 . S
C85 H69 0.939 . S
C85 C84 1.378 . S
C85 C86 1.361 . S
C86 H70 0.942 . S
C86 C85 1.361 . S
C86 C87 1.369 . S
C87 C86 1.369 . S
C87 C88 1.404 . S
C88 H71 0.940 . S
C88 C87 1.404 . S
C88 C89 1.389 . S
C89 H72 0.939 . S
C89 C84 1.400 . S
C89 C88 1.389 . S
C90 P64 1.819 . S
C90 C91 1.391 . S
C90 C95 1.391 . S
C91 H73 0.941 . S
C91 C90 1.391 . S
C91 C92 1.396 . S
C92 H76 0.939 . S
C92 C91 1.396 . S
C92 C93 1.397 . S
C93 C92 1.397 . S
C93 C94 1.385 . S
C94 H77 0.940 . S
C94 C93 1.385 . S
C94 C95 1.388 . S
C95 H74 0.939 . S
C95 C90 1.391 . S
C95 C94 1.388 . S
P96 O107 1.490 . S
P96 C110 1.812 . S
P96 C116 1.803 . S
P96 C122 1.819 . S
H97 C111 0.941 . S
H98 C112 0.939 . S
H99 C114 0.940 . S
H100 C115 0.940 . S
H101 C117 0.939 . S
H102 C118 0.942 . S
H103 C120 0.940 . S
H104 C121 0.939 . S
H105 C123 0.941 . S
H106 C127 0.939 . S
O107 P96 1.490 . S
H108 C124 0.939 . S
H109 C126 0.940 . S
C110 P96 1.812 . S
C110 C111 1.389 . S
C110 C115 1.391 . S
C111 H97 0.941 . S
C111 C110 1.389 . S
C111 C112 1.397 . S
C112 H98 0.939 . S
C112 C111 1.397 . S
C112 C113 1.378 . S
C113 C112 1.378 . S
C113 C114 1.378 . S
C114 H99 0.940 . S
C114 C113 1.378 . S
C114 C115 1.396 . S
C115 H100 0.940 . S
C115 C110 1.391 . S
C115 C114 1.396 . S
C116 P96 1.803 . S
C116 C117 1.378 . S
C116 C121 1.400 . S
C117 H101 0.939 . S
C117 C116 1.378 . S
C117 C118 1.361 . S
C118 H102 0.942 . S
C118 C117 1.361 . S
C118 C119 1.369 . S
C119 C118 1.369 . S
C119 C120 1.404 . S
C120 H103 0.940 . S
C120 C119 1.404 . S
C120 C121 1.389 . S
C121 H104 0.939 . S
C121 C116 1.400 . S
C121 C120 1.389 . S
C122 P96 1.819 . S
C122 C123 1.391 . S
C122 C127 1.391 . S
C123 H105 0.941 . S
C123 C122 1.391 . S
C123 C124 1.396 . S
C124 H108 0.939 . S
C124 C123 1.396 . S
C124 C125 1.397 . S
C125 C124 1.397 . S
C125 C126 1.385 . S
C126 H109 0.940 . S
C126 C125 1.385 . S
C126 C127 1.388 . S
C127 H106 0.939 . S
C127 C122 1.391 . S
C127 C126 1.388 . S
P128 O139 1.490 . S
P128 C142 1.812 . S
P128 C148 1.803 . S
P128 C154 1.819 . S
H129 C143 0.941 . S
H130 C144 0.939 . S
H131 C146 0.940 1_545 S
H132 C147 0.940 . S
H133 C149 0.939 . S
H134 C150 0.942 . S
H135 C152 0.940 . S
H136 C153 0.939 . S
H137 C155 0.941 . S
H138 C159 0.939 . S
O139 P128 1.490 . S
H140 C156 0.939 . S
H141 C158 0.940 . S
C142 P128 1.812 . S
C142 C143 1.389 . S
C142 C147 1.391 . S
C143 H129 0.941 . S
C143 C142 1.389 . S
C143 C144 1.397 . S
C144 H130 0.939 . S
C144 C143 1.397 . S
C144 C145 1.378 . S
C145 C144 1.378 . S
C145 C146 1.378 . S
C146 H131 0.940 1_565 S
C146 C145 1.378 . S
C146 C147 1.396 . S
C147 H132 0.940 . S
C147 C142 1.391 . S
C147 C146 1.396 . S
C148 P128 1.803 . S
C148 C149 1.378 . S
C148 C153 1.400 . S
C149 H133 0.939 . S
C149 C148 1.378 . S
C149 C150 1.361 . S
C150 H134 0.942 . S
C150 C149 1.361 . S
C150 C151 1.369 . S
C151 C150 1.369 . S
C151 C152 1.404 . S
C152 H135 0.940 . S
C152 C151 1.404 . S
C152 C153 1.389 . S
C153 H136 0.939 . S
C153 C148 1.400 . S
C153 C152 1.389 . S
C154 P128 1.819 . S
C154 C155 1.391 . S
C154 C159 1.391 . S
C155 H137 0.941 . S
C155 C154 1.391 . S
C155 C156 1.396 . S
C156 H140 0.939 . S
C156 C155 1.396 . S
C156 C157 1.397 . S
C157 C156 1.397 . S
C157 C158 1.385 . S
C158 H141 0.940 . S
C158 C157 1.385 . S
C158 C159 1.388 . S
C159 H138 0.939 . S
C159 C154 1.391 . S
C159 C158 1.388 . S
P160 O171 1.490 . S
P160 C174 1.812 . S
P160 C180 1.803 . S
P160 C186 1.819 . S
H161 C175 0.941 . S
H162 C176 0.939 . S
H163 C178 0.940 . S
H164 C179 0.940 . S
H165 C181 0.939 . S
H166 C182 0.942 . S
H167 C184 0.940 . S
H168 C185 0.939 . S
H169 C187 0.941 . S
H170 C191 0.939 . S
O171 P160 1.490 . S
H172 C188 0.939 . S
H173 C190 0.940 . S
C174 P160 1.812 . S
C174 C175 1.389 . S
C174 C179 1.391 . S
C175 H161 0.941 . S
C175 C174 1.389 . S
C175 C176 1.397 . S
C176 H162 0.939 . S
C176 C175 1.397 . S
C176 C177 1.378 . S
C177 C176 1.378 . S
C177 C178 1.378 . S
C178 H163 0.940 . S
C178 C177 1.378 . S
C178 C179 1.396 . S
C179 H164 0.940 . S
C179 C174 1.391 . S
C179 C178 1.396 . S
C180 P160 1.803 . S
C180 C181 1.378 . S
C180 C185 1.400 . S
C181 H165 0.939 . S
C181 C180 1.378 . S
C181 C182 1.361 . S
C182 H166 0.942 . S
C182 C181 1.361 . S
C182 C183 1.369 . S
C183 C182 1.369 . S
C183 C184 1.404 . S
C184 H167 0.940 . S
C184 C183 1.404 . S
C184 C185 1.389 . S
C185 H168 0.939 . S
C185 C180 1.400 . S
C185 C184 1.389 . S
C186 P160 1.819 . S
C186 C187 1.391 . S
C186 C191 1.391 . S
C187 H169 0.941 . S
C187 C186 1.391 . S
C187 C188 1.396 . S
C188 H172 0.939 . S
C188 C187 1.396 . S
C188 C189 1.397 . S
C189 C188 1.397 . S
C189 C190 1.385 . S
C190 H173 0.940 . S
C190 C189 1.385 . S
C190 C191 1.388 . S
C191 H170 0.939 . S
C191 C186 1.391 . S
C191 C190 1.388 . S
P192 O203 1.490 . S
P192 C206 1.812 . S
P192 C212 1.803 . S
P192 C218 1.819 . S
H193 C207 0.941 . S
H194 C208 0.939 . S
H195 C210 0.940 . S
H196 C211 0.940 . S
H197 C213 0.939 . S
H198 C214 0.942 . S
H199 C216 0.940 . S
H200 C217 0.939 . S
H201 C219 0.941 . S
H202 C223 0.939 . S
O203 P192 1.490 . S
H204 C220 0.939 . S
H205 C222 0.940 . S
C206 P192 1.812 . S
C206 C207 1.389 . S
C206 C211 1.391 . S
C207 H193 0.941 . S
C207 C206 1.389 . S
C207 C208 1.397 . S
C208 H194 0.939 . S
C208 C207 1.397 . S
C208 C209 1.378 . S
C209 C208 1.378 . S
C209 C210 1.378 . S
C210 H195 0.940 . S
C210 C209 1.378 . S
C210 C211 1.396 . S
C211 H196 0.940 . S
C211 C206 1.391 . S
C211 C210 1.396 . S
C212 P192 1.803 . S
C212 C213 1.378 . S
C212 C217 1.400 . S
C213 H197 0.939 . S
C213 C212 1.378 . S
C213 C214 1.361 . S
C214 H198 0.942 . S
C214 C213 1.361 . S
C214 C215 1.369 . S
C215 C214 1.369 . S
C215 C216 1.404 . S
C216 H199 0.940 . S
C216 C215 1.404 . S
C216 C217 1.389 . S
C217 H200 0.939 . S
C217 C212 1.400 . S
C217 C216 1.389 . S
C218 P192 1.819 . S
C218 C219 1.391 . S
C218 C223 1.391 . S
C219 H201 0.941 . S
C219 C218 1.391 . S
C219 C220 1.396 . S
C220 H204 0.939 . S
C220 C219 1.396 . S
C220 C221 1.397 . S
C221 C220 1.397 . S
C221 C222 1.385 . S
C222 H205 0.940 . S
C222 C221 1.385 . S
C222 C223 1.388 . S
C223 H202 0.939 . S
C223 C218 1.391 . S
C223 C222 1.388 . S
P224 O235 1.490 . S
P224 C238 1.812 . S
P224 C244 1.803 . S
P224 C250 1.819 . S
H225 C239 0.941 . S
H226 C240 0.939 . S
H227 C242 0.940 . S
H228 C243 0.940 . S
H229 C245 0.939 . S
H230 C246 0.942 . S
H231 C248 0.940 . S
H232 C249 0.939 . S
H233 C251 0.941 . S
H234 C255 0.939 . S
O235 P224 1.490 . S
H236 C252 0.939 . S
H237 C254 0.940 . S
C238 P224 1.812 . S
C238 C239 1.389 . S
C238 C243 1.391 . S
C239 H225 0.941 . S
C239 C238 1.389 . S
C239 C240 1.397 . S
C240 H226 0.939 . S
C240 C239 1.397 . S
C240 C241 1.378 . S
C241 C240 1.378 . S
C241 C242 1.378 . S
C242 H227 0.940 . S
C242 C241 1.378 . S
C242 C243 1.396 . S
C243 H228 0.940 . S
C243 C238 1.391 . S
C243 C242 1.396 . S
C244 P224 1.803 . S
C244 C245 1.378 . S
C244 C249 1.400 . S
C245 H229 0.939 . S
C245 C244 1.378 . S
C245 C246 1.361 . S
C246 H230 0.942 . S
C246 C245 1.361 . S
C246 C247 1.369 . S
C247 C246 1.369 . S
C247 C248 1.404 . S
C248 H231 0.940 . S
C248 C247 1.404 . S
C248 C249 1.389 . S
C249 H232 0.939 . S
C249 C244 1.400 . S
C249 C248 1.389 . S
C250 P224 1.819 . S
C250 C251 1.391 . S
C250 C255 1.391 . S
C251 H233 0.941 . S
C251 C250 1.391 . S
C251 C252 1.396 . S
C252 H236 0.939 . S
C252 C251 1.396 . S
C252 C253 1.397 . S
C253 C252 1.397 . S
C253 C254 1.385 . S
C254 H237 0.940 . S
C254 C253 1.385 . S
C254 C255 1.388 . S
C255 H234 0.939 . S
C255 C250 1.391 . S
C255 C254 1.388 . S
P256 O267 1.490 . S
P256 C270 1.812 . S
P256 C276 1.803 . S
P256 C282 1.819 . S
H257 C271 0.941 . S
H258 C272 0.939 . S
H259 C274 0.940 . S
H260 C275 0.940 . S
H261 C277 0.939 . S
H262 C278 0.942 . S
H263 C280 0.940 . S
H264 C281 0.939 . S
H265 C283 0.941 . S
H266 C287 0.939 . S
O267 P256 1.490 . S
H268 C284 0.939 . S
H269 C286 0.940 . S
C270 P256 1.812 . S
C270 C271 1.389 . S
C270 C275 1.391 . S
C271 H257 0.941 . S
C271 C270 1.389 . S
C271 C272 1.397 . S
C272 H258 0.939 . S
C272 C271 1.397 . S
C272 C273 1.378 . S
C273 C272 1.378 . S
C273 C274 1.378 . S
C274 H259 0.940 . S
C274 C273 1.378 . S
C274 C275 1.396 . S
C275 H260 0.940 . S
C275 C270 1.391 . S
C275 C274 1.396 . S
C276 P256 1.803 . S
C276 C277 1.378 . S
C276 C281 1.400 . S
C277 H261 0.939 . S
C277 C276 1.378 . S
C277 C278 1.361 . S
C278 H262 0.942 . S
C278 C277 1.361 . S
C278 C279 1.369 . S
C279 C278 1.369 . S
C279 C280 1.404 . S
C280 H263 0.940 . S
C280 C279 1.404 . S
C280 C281 1.389 . S
C281 H264 0.939 . S
C281 C276 1.400 . S
C281 C280 1.389 . S
C282 P256 1.819 . S
C282 C283 1.391 . S
C282 C287 1.391 . S
C283 H265 0.941 . S
C283 C282 1.391 . S
C283 C284 1.396 . S
C284 H268 0.939 . S
C284 C283 1.396 . S
C284 C285 1.397 . S
C285 C284 1.397 . S
C285 C286 1.385 . S
C286 H269 0.940 . S
C286 C285 1.385 . S
C286 C287 1.388 . S
C287 H266 0.939 . S
C287 C282 1.391 . S
C287 C286 1.388 . S
P288 O299 1.490 . S
P288 C302 1.812 . S
P288 C308 1.803 . S
P288 C314 1.819 . S
H289 C303 0.941 . S
H290 C304 0.939 . S
H291 C306 0.940 . S
H292 C307 0.940 . S
H293 C309 0.939 . S
H294 C310 0.942 . S
H295 C312 0.940 . S
H296 C313 0.939 . S
H297 C315 0.941 . S
H298 C319 0.939 . S
O299 P288 1.490 . S
H300 C316 0.939 . S
H301 C318 0.940 . S
C302 P288 1.812 . S
C302 C303 1.389 . S
C302 C307 1.391 . S
C303 H289 0.941 . S
C303 C302 1.389 . S
C303 C304 1.397 . S
C304 H290 0.939 . S
C304 C303 1.397 . S
C304 C305 1.378 . S
C305 C304 1.378 . S
C305 C306 1.378 . S
C306 H291 0.940 . S
C306 C305 1.378 . S
C306 C307 1.396 . S
C307 H292 0.940 . S
C307 C302 1.391 . S
C307 C306 1.396 . S
C308 P288 1.803 . S
C308 C309 1.378 . S
C308 C313 1.400 . S
C309 H293 0.939 . S
C309 C308 1.378 . S
C309 C310 1.361 . S
C310 H294 0.942 . S
C310 C309 1.361 . S
C310 C311 1.369 . S
C311 C310 1.369 . S
C311 C312 1.404 . S
C312 H295 0.940 . S
C312 C311 1.404 . S
C312 C313 1.389 . S
C313 H296 0.939 . S
C313 C308 1.400 . S
C313 C312 1.389 . S
C314 P288 1.819 . S
C314 C315 1.391 . S
C314 C319 1.391 . S
C315 H297 0.941 . S
C315 C314 1.391 . S
C315 C316 1.396 . S
C316 H300 0.939 . S
C316 C315 1.396 . S
C316 C317 1.397 . S
C317 C316 1.397 . S
C317 C318 1.385 . S
C318 H301 0.940 . S
C318 C317 1.385 . S
C318 C319 1.388 . S
C319 H298 0.939 . S
C319 C314 1.391 . S
C319 C318 1.388 . S
P320 O331 1.490 . S
P320 C334 1.812 . S
P320 C340 1.803 . S
P320 C346 1.819 . S
H321 C335 0.941 . S
H322 C336 0.939 . S
H323 C338 0.940 . S
H324 C339 0.940 . S
H325 C341 0.939 . S
H326 C342 0.942 . S
H327 C344 0.940 . S
H328 C345 0.939 . S
H329 C347 0.941 . S
H330 C351 0.939 . S
O331 P320 1.490 . S
H332 C348 0.939 . S
H333 C350 0.940 . S
C334 P320 1.812 . S
C334 C335 1.389 . S
C334 C339 1.391 . S
C335 H321 0.941 . S
C335 C334 1.389 . S
C335 C336 1.397 . S
C336 H322 0.939 . S
C336 C335 1.397 . S
C336 C337 1.378 . S
C337 C336 1.378 . S
C337 C338 1.378 . S
C338 H323 0.940 . S
C338 C337 1.378 . S
C338 C339 1.396 . S
C339 H324 0.940 . S
C339 C334 1.391 . S
C339 C338 1.396 . S
C340 P320 1.803 . S
C340 C341 1.378 . S
C340 C345 1.400 . S
C341 H325 0.939 . S
C341 C340 1.378 . S
C341 C342 1.361 . S
C342 H326 0.942 . S
C342 C341 1.361 . S
C342 C343 1.369 . S
C343 C342 1.369 . S
C343 C344 1.404 . S
C344 H327 0.940 . S
C344 C343 1.404 . S
C344 C345 1.389 . S
C345 H328 0.939 . S
C345 C340 1.400 . S
C345 C344 1.389 . S
C346 P320 1.819 . S
C346 C347 1.391 . S
C346 C351 1.391 . S
C347 H329 0.941 . S
C347 C346 1.391 . S
C347 C348 1.396 . S
C348 H332 0.939 . S
C348 C347 1.396 . S
C348 C349 1.397 . S
C349 C348 1.397 . S
C349 C350 1.385 . S
C350 H333 0.940 . S
C350 C349 1.385 . S
C350 C351 1.388 . S
C351 H330 0.939 . S
C351 C346 1.391 . S
C351 C350 1.388 . S
P352 O363 1.490 . S
P352 C366 1.812 . S
P352 C372 1.803 . S
P352 C378 1.819 . S
H353 C367 0.941 . S
H354 C368 0.939 . S
H355 C370 0.940 . S
H356 C371 0.940 . S
H357 C373 0.939 . S
H358 C374 0.942 . S
H359 C376 0.940 . S
H360 C377 0.939 . S
H361 C379 0.941 . S
H362 C383 0.939 . S
O363 P352 1.490 . S
H364 C380 0.939 . S
H365 C382 0.940 . S
C366 P352 1.812 . S
C366 C367 1.389 . S
C366 C371 1.391 . S
C367 H353 0.941 . S
C367 C366 1.389 . S
C367 C368 1.397 . S
C368 H354 0.939 . S
C368 C367 1.397 . S
C368 C369 1.378 . S
C369 C368 1.378 . S
C369 C370 1.378 . S
C370 H355 0.940 . S
C370 C369 1.378 . S
C370 C371 1.396 . S
C371 H356 0.940 . S
C371 C366 1.391 . S
C371 C370 1.396 . S
C372 P352 1.803 . S
C372 C373 1.378 . S
C372 C377 1.400 . S
C373 H357 0.939 . S
C373 C372 1.378 . S
C373 C374 1.361 . S
C374 H358 0.942 . S
C374 C373 1.361 . S
C374 C375 1.369 . S
C375 C374 1.369 . S
C375 C376 1.404 . S
C376 H359 0.940 . S
C376 C375 1.404 . S
C376 C377 1.389 . S
C377 H360 0.939 . S
C377 C372 1.400 . S
C377 C376 1.389 . S
C378 P352 1.819 . S
C378 C379 1.391 . S
C378 C383 1.391 . S
C379 H361 0.941 . S
C379 C378 1.391 . S
C379 C380 1.396 . S
C380 H364 0.939 . S
C380 C379 1.396 . S
C380 C381 1.397 . S
C381 C380 1.397 . S
C381 C382 1.385 . S
C382 H365 0.940 . S
C382 C381 1.385 . S
C382 C383 1.388 . S
C383 H362 0.939 . S
C383 C378 1.391 . S
C383 C382 1.388 . S
P384 O395 1.490 . S
P384 C398 1.812 . S
P384 C404 1.803 . S
P384 C410 1.819 . S
H385 C399 0.941 . S
H386 C400 0.939 . S
H387 C402 0.940 . S
H388 C403 0.940 . S
H389 C405 0.939 . S
H390 C406 0.942 . S
H391 C408 0.940 . S
H392 C409 0.939 . S
H393 C411 0.941 . S
H394 C415 0.939 . S
O395 P384 1.490 . S
H396 C412 0.939 . S
H397 C414 0.940 . S
C398 P384 1.812 . S
C398 C399 1.389 . S
C398 C403 1.391 . S
C399 H385 0.941 . S
C399 C398 1.389 . S
C399 C400 1.397 . S
C400 H386 0.939 . S
C400 C399 1.397 . S
C400 C401 1.378 . S
C401 C400 1.378 . S
C401 C402 1.378 . S
C402 H387 0.940 . S
C402 C401 1.378 . S
C402 C403 1.396 . S
C403 H388 0.940 . S
C403 C398 1.391 . S
C403 C402 1.396 . S
C404 P384 1.803 . S
C404 C405 1.378 . S
C404 C409 1.400 . S
C405 H389 0.939 . S
C405 C404 1.378 . S
C405 C406 1.361 . S
C406 H390 0.942 . S
C406 C405 1.361 . S
C406 C407 1.369 . S
C407 C406 1.369 . S
C407 C408 1.404 . S
C408 H391 0.940 . S
C408 C407 1.404 . S
C408 C409 1.389 . S
C409 H392 0.939 . S
C409 C404 1.400 . S
C409 C408 1.389 . S
C410 P384 1.819 . S
C410 C411 1.391 . S
C410 C415 1.391 . S
C411 H393 0.941 . S
C411 C410 1.391 . S
C411 C412 1.396 . S
C412 H396 0.939 . S
C412 C411 1.396 . S
C412 C413 1.397 . S
C413 C412 1.397 . S
C413 C414 1.385 . S
C414 H397 0.940 . S
C414 C413 1.385 . S
C414 C415 1.388 . S
C415 H394 0.939 . S
C415 C410 1.391 . S
C415 C414 1.388 . S
P416 O427 1.490 . S
P416 C430 1.812 . S
P416 C436 1.803 . S
P416 C442 1.819 . S
H417 C431 0.941 . S
H418 C432 0.939 . S
H419 C434 0.940 . S
H420 C435 0.940 . S
H421 C437 0.939 . S
H422 C438 0.942 . S
H423 C440 0.940 . S
H424 C441 0.939 . S
H425 C443 0.941 . S
H426 C447 0.939 . S
O427 P416 1.490 . S
H428 C444 0.939 . S
H429 C446 0.940 . S
C430 P416 1.812 . S
C430 C431 1.389 . S
C430 C435 1.391 . S
C431 H417 0.941 . S
C431 C430 1.389 . S
C431 C432 1.397 . S
C432 H418 0.939 . S
C432 C431 1.397 . S
C432 C433 1.378 . S
C433 C432 1.378 . S
C433 C434 1.378 . S
C434 H419 0.940 . S
C434 C433 1.378 . S
C434 C435 1.396 . S
C435 H420 0.940 . S
C435 C430 1.391 . S
C435 C434 1.396 . S
C436 P416 1.803 . S
C436 C437 1.378 . S
C436 C441 1.400 . S
C437 H421 0.939 . S
C437 C436 1.378 . S
C437 C438 1.361 . S
C438 H422 0.942 . S
C438 C437 1.361 . S
C438 C439 1.369 . S
C439 C438 1.369 . S
C439 C440 1.404 . S
C440 H423 0.940 . S
C440 C439 1.404 . S
C440 C441 1.389 . S
C441 H424 0.939 . S
C441 C436 1.400 . S
C441 C440 1.389 . S
C442 P416 1.819 . S
C442 C443 1.391 . S
C442 C447 1.391 . S
C443 H425 0.941 . S
C443 C442 1.391 . S
C443 C444 1.396 . S
C444 H428 0.939 . S
C444 C443 1.396 . S
C444 C445 1.397 . S
C445 C444 1.397 . S
C445 C446 1.385 . S
C446 H429 0.940 . S
C446 C445 1.385 . S
C446 C447 1.388 . S
C447 H426 0.939 . S
C447 C442 1.391 . S
C447 C446 1.388 . S
P448 O459 1.490 . S
P448 C462 1.812 . S
P448 C468 1.803 . S
P448 C474 1.819 . S
H449 C463 0.941 . S
H450 C464 0.939 . S
H451 C466 0.940 . S
H452 C467 0.940 . S
H453 C469 0.939 . S
H454 C470 0.942 . S
H455 C472 0.940 . S
H456 C473 0.939 . S
H457 C475 0.941 . S
H458 C479 0.939 . S
O459 P448 1.490 . S
H460 C476 0.939 . S
H461 C478 0.940 . S
C462 P448 1.812 . S
C462 C463 1.389 . S
C462 C467 1.391 . S
C463 H449 0.941 . S
C463 C462 1.389 . S
C463 C464 1.397 . S
C464 H450 0.939 . S
C464 C463 1.397 . S
C464 C465 1.378 . S
C465 C464 1.378 . S
C465 C466 1.378 . S
C466 H451 0.940 . S
C466 C465 1.378 . S
C466 C467 1.396 . S
C467 H452 0.940 . S
C467 C462 1.391 . S
C467 C466 1.396 . S
C468 P448 1.803 . S
C468 C469 1.378 . S
C468 C473 1.400 . S
C469 H453 0.939 . S
C469 C468 1.378 . S
C469 C470 1.361 . S
C470 H454 0.942 . S
C470 C469 1.361 . S
C470 C471 1.369 . S
C471 C470 1.369 . S
C471 C472 1.404 . S
C472 H455 0.940 . S
C472 C471 1.404 . S
C472 C473 1.389 . S
C473 H456 0.939 . S
C473 C468 1.400 . S
C473 C472 1.389 . S
C474 P448 1.819 . S
C474 C475 1.391 . S
C474 C479 1.391 . S
C475 H457 0.941 . S
C475 C474 1.391 . S
C475 C476 1.396 . S
C476 H460 0.939 . S
C476 C475 1.396 . S
C476 C477 1.397 . S
C477 C476 1.397 . S
C477 C478 1.385 . S
C478 H461 0.940 . S
C478 C477 1.385 . S
C478 C479 1.388 . S
C479 H458 0.939 . S
C479 C474 1.391 . S
C479 C478 1.388 . S
P480 O491 1.490 . S
P480 C494 1.812 . S
P480 C500 1.803 . S
P480 C506 1.819 . S
H481 C495 0.941 . S
H482 C496 0.939 . S
H483 C498 0.940 . S
H484 C499 0.940 . S
H485 C501 0.930 1_554 S
H486 C502 0.942 1_554 S
H487 C504 0.940 . S
H488 C505 0.939 . S
H489 C507 0.941 . S
H490 C511 0.939 . S
O491 P480 1.490 . S
H492 C508 0.939 . S
H493 C510 0.940 . S
C494 P480 1.812 . S
C494 C495 1.389 . S
C494 C499 1.391 . S
C495 H481 0.941 . S
C495 C494 1.389 . S
C495 C496 1.397 . S
C496 H482 0.939 . S
C496 C495 1.397 . S
C496 C497 1.378 . S
C497 C496 1.378 . S
C497 C498 1.378 . S
C498 H483 0.940 . S
C498 C497 1.378 . S
C498 C499 1.396 . S
C499 H484 0.940 . S
C499 C494 1.391 . S
C499 C498 1.396 . S
C500 P480 1.803 . S
C500 C501 1.378 . S
C500 C505 1.400 . S
C501 H485 0.930 1_556 S
C501 C500 1.378 . S
C501 C502 1.361 . S
C502 H486 0.942 1_556 S
C502 C501 1.361 . S
C502 C503 1.369 . S
C503 C502 1.369 . S
C503 C504 1.404 . S
C504 H487 0.940 . S
C504 C503 1.404 . S
C504 C505 1.389 . S
C505 H488 0.939 . S
C505 C500 1.400 . S
C505 C504 1.389 . S
C506 P480 1.819 . S
C506 C507 1.391 . S
C506 C511 1.391 . S
C507 H489 0.941 . S
C507 C506 1.391 . S
C507 C508 1.396 . S
C508 H492 0.939 . S
C508 C507 1.396 . S
C508 C509 1.397 . S
C509 C508 1.397 . S
C509 C510 1.385 . S
C510 H493 0.940 . S
C510 C509 1.385 . S
C510 C511 1.388 . S
C511 H490 0.939 . S
C511 C506 1.391 . S
C511 C510 1.388 . S
O512 Cd513 2.223 . S
O512 C520 1.315 . S
Cd513 O512 2.223 . S
Cd513 O516 2.297 . S
Cd513 O517 2.439 . S
Cd513 O523 2.240 . S
Cd514 O515 2.240 . S
Cd514 O522 2.223 . S
Cd514 O524 2.297 . S
Cd514 O525 2.439 . S
O515 Cd514 2.240 . S
O515 C520 1.279 . S
O516 Cd513 2.297 . S
O516 C518 1.247 . S
O517 Cd513 2.439 . S
O517 C518 1.208 . S
C518 O516 1.247 . S
C518 O517 1.208 . S
C519 O524 1.247 . S
C519 O525 1.208 . S
C520 O512 1.315 . S
C520 O515 1.279 . S
C521 O522 1.315 . S
C521 O523 1.279 . S
O522 Cd514 2.223 . S
O522 C521 1.315 . S
O523 Cd513 2.240 . S
O523 C521 1.279 . S
O524 Cd514 2.297 . S
O524 C519 1.247 . S
O525 Cd514 2.439 . S
O525 C519 1.208 . S
O526 Cd527 2.223 . S
O526 C534 1.315 . S
Cd527 O526 2.223 . S
Cd527 O530 2.297 . S
Cd527 O531 2.439 . S
Cd527 O537 2.240 . S
Cd528 O529 2.240 . S
Cd528 O536 2.223 . S
Cd528 O538 2.297 . S
Cd528 O539 2.439 . S
O529 Cd528 2.240 . S
O529 C534 1.279 . S
O530 Cd527 2.297 . S
O530 C532 1.247 . S
O531 Cd527 2.439 . S
O531 C532 1.208 . S
C532 O530 1.247 . S
C532 O531 1.208 . S
C533 O538 1.247 . S
C533 O539 1.208 . S
C534 O526 1.315 . S
C534 O529 1.279 . S
C535 O536 1.315 . S
C535 O537 1.279 . S
O536 Cd528 2.223 . S
O536 C535 1.315 . S
O537 Cd527 2.240 . S
O537 C535 1.279 . S
O538 Cd528 2.297 . S
O538 C533 1.247 . S
O539 Cd528 2.439 . S
O539 C533 1.208 . S
O540 Cd541 2.223 1_556 S
O540 C548 1.315 . S
Cd541 O540 2.223 1_554 S
Cd541 O544 2.297 . S
Cd541 O545 2.439 . S
Cd541 O551 2.240 . S
Cd542 O543 2.240 . S
Cd542 O550 2.223 . S
Cd542 O552 2.297 1_556 S
Cd542 O553 2.439 1_556 S
O543 Cd542 2.240 . S
O543 C548 1.279 . S
O544 Cd541 2.297 . S
O544 C546 1.247 . S
O545 Cd541 2.439 . S
O545 C546 1.208 . S
C546 O544 1.247 . S
C546 O545 1.208 . S
C547 O552 1.247 . S
C547 O553 1.208 . S
C548 O540 1.315 . S
C548 O543 1.279 . S
C549 O550 1.315 . S
C549 O551 1.279 1_556 S
O550 Cd542 2.223 . S
O550 C549 1.315 . S
O551 Cd541 2.240 . S
O551 C549 1.279 1_554 S
O552 Cd542 2.297 1_554 S
O552 C547 1.247 . S
O553 Cd542 2.439 1_554 S
O553 C547 1.208 . S
O554 Cd555 2.223 . S
O554 C562 1.315 . S
Cd555 O554 2.223 . S
Cd555 O558 2.297 . S
Cd555 O559 2.439 . S
Cd555 O565 2.240 . S
Cd556 O557 2.240 . S
Cd556 O564 2.223 . S
Cd556 O566 2.297 . S
Cd556 O567 2.439 . S
O557 Cd556 2.240 . S
O557 C562 1.279 . S
O558 Cd555 2.297 . S
O558 C560 1.247 . S
O559 Cd555 2.439 . S
O559 C560 1.208 . S
C560 O558 1.247 . S
C560 O559 1.208 . S
C561 O566 1.247 . S
C561 O567 1.208 . S
C562 O554 1.315 . S
C562 O557 1.279 . S
C563 O564 1.315 . S
C563 O565 1.279 . S
O564 Cd556 2.223 . S
O564 C563 1.315 . S
O565 Cd555 2.240 . S
O565 C563 1.279 . S
O566 Cd556 2.297 . S
O566 C561 1.247 . S
O567 Cd556 2.439 . S
O567 C561 1.208 . S
O568 Cd569 2.223 . S
O568 C576 1.315 . S
Cd569 O568 2.223 . S
Cd569 O572 2.297 . S
Cd569 O573 2.439 . S
Cd569 O579 2.240 . S
Cd570 O571 2.240 . S
Cd570 O578 2.223 . S
Cd570 O580 2.297 . S
Cd570 O581 2.439 . S
O571 Cd570 2.240 . S
O571 C576 1.279 . S
O572 Cd569 2.297 . S
O572 C574 1.247 . S
O573 Cd569 2.439 . S
O573 C574 1.208 . S
C574 O572 1.247 . S
C574 O573 1.208 . S
C575 O580 1.247 . S
C575 O581 1.208 . S
C576 O568 1.315 . S
C576 O571 1.279 . S
C577 O578 1.315 . S
C577 O579 1.279 . S
O578 Cd570 2.223 . S
O578 C577 1.315 . S
O579 Cd569 2.240 . S
O579 C577 1.279 . S
O580 Cd570 2.297 . S
O580 C575 1.247 . S
O581 Cd570 2.439 . S
O581 C575 1.208 . S
O582 Cd583 2.223 . S
O582 C590 1.315 . S
Cd583 O582 2.223 . S
Cd583 O586 2.297 . S
Cd583 O587 2.439 . S
Cd583 O593 2.240 . S
Cd584 O585 2.240 . S
Cd584 O592 2.223 . S
Cd584 O594 2.297 . S
Cd584 O595 2.439 . S
O585 Cd584 2.240 . S
O585 C590 1.279 . S
O586 Cd583 2.297 . S
O586 C588 1.247 . S
O587 Cd583 2.439 . S
O587 C588 1.208 . S
C588 O586 1.247 . S
C588 O587 1.208 . S
C589 O594 1.247 . S
C589 O595 1.208 . S
C590 O582 1.315 . S
C590 O585 1.279 . S
C591 O592 1.315 . S
C591 O593 1.279 . S
O592 Cd584 2.223 . S
O592 C591 1.315 . S
O593 Cd583 2.240 . S
O593 C591 1.279 . S
O594 Cd584 2.297 . S
O594 C589 1.247 . S
O595 Cd584 2.439 . S
O595 C589 1.208 . S
O596 Cd597 2.223 . S
O596 C604 1.315 . S
Cd597 O596 2.223 . S
Cd597 O600 2.297 . S
Cd597 O601 2.439 . S
Cd597 O607 2.240 . S
Cd598 O599 2.240 . S
Cd598 O606 2.223 . S
Cd598 O608 2.297 . S
Cd598 O609 2.439 . S
O599 Cd598 2.240 . S
O599 C604 1.279 . S
O600 Cd597 2.297 . S
O600 C602 1.247 . S
O601 Cd597 2.439 . S
O601 C602 1.208 . S
C602 O600 1.247 . S
C602 O601 1.208 . S
C603 O608 1.247 . S
C603 O609 1.208 . S
C604 O596 1.315 . S
C604 O599 1.279 . S
C605 O606 1.315 . S
C605 O607 1.279 . S
O606 Cd598 2.223 . S
O606 C605 1.315 . S
O607 Cd597 2.240 . S
O607 C605 1.279 . S
O608 Cd598 2.297 . S
O608 C603 1.247 . S
O609 Cd598 2.439 . S
O609 C603 1.208 . S
O610 Cd611 2.223 1_545 S
O610 C618 1.315 . S
Cd611 O610 2.223 1_565 S
Cd611 O614 2.297 . S
Cd611 O615 2.439 . S
Cd611 O621 2.240 1_565 S
Cd612 O613 2.240 . S
Cd612 O620 2.223 . S
Cd612 O622 2.297 . S
Cd612 O623 2.439 1_545 S
O613 Cd612 2.240 . S
O613 C618 1.279 . S
O614 Cd611 2.297 . S
O614 C616 1.247 . S
O615 Cd611 2.439 . S
O615 C616 1.208 . S
C616 O614 1.247 . S
C616 O615 1.208 . S
C617 O622 1.247 1_565 S
C617 O623 1.208 . S
C618 O610 1.315 . S
C618 O613 1.279 . S
C619 O620 1.315 . S
C619 O621 1.279 . S
O620 Cd612 2.223 . S
O620 C619 1.315 . S
O621 Cd611 2.240 1_545 S
O621 C619 1.279 . S
O622 Cd612 2.297 . S
O622 C617 1.247 1_545 S
O623 Cd612 2.439 1_565 S
O623 C617 1.208 . S
O624 Cd625 2.223 . S
O624 C632 1.315 . S
Cd625 O624 2.223 . S
Cd625 O628 2.297 1_655 S
Cd625 O629 2.439 1_655 S
Cd625 O635 2.240 . S
Cd626 O627 2.240 . S
Cd626 O634 2.223 1_455 S
Cd626 O636 2.297 . S
Cd626 O637 2.439 . S
O627 Cd626 2.240 . S
O627 C632 1.279 1_455 S
O628 Cd625 2.297 1_455 S
O628 C630 1.247 . S
O629 Cd625 2.439 1_455 S
O629 C630 1.208 . S
C630 O628 1.247 . S
C630 O629 1.208 . S
C631 O636 1.247 . S
C631 O637 1.208 . S
C632 O624 1.315 . S
C632 O627 1.279 1_655 S
C633 O634 1.315 . S
C633 O635 1.279 . S
O634 Cd626 2.223 1_655 S
O634 C633 1.315 . S
O635 Cd625 2.240 . S
O635 C633 1.279 . S
O636 Cd626 2.297 . S
O636 C631 1.247 . S
O637 Cd626 2.439 . S
O637 C631 1.208 . S
O638 Cd639 2.223 . S
O638 C646 1.315 . S
Cd639 O638 2.223 . S
Cd639 O642 2.297 . S
Cd639 O643 2.439 . S
Cd639 O649 2.240 . S
Cd640 O641 2.240 . S
Cd640 O648 2.223 . S
Cd640 O650 2.297 . S
Cd640 O651 2.439 . S
O641 Cd640 2.240 . S
O641 C646 1.279 . S
O642 Cd639 2.297 . S
O642 C644 1.247 . S
O643 Cd639 2.439 . S
O643 C644 1.208 . S
C644 O642 1.247 . S
C644 O643 1.208 . S
C645 O650 1.247 . S
C645 O651 1.208 . S
C646 O638 1.315 . S
C646 O641 1.279 . S
C647 O648 1.315 . S
C647 O649 1.279 . S
O648 Cd640 2.223 . S
O648 C647 1.315 . S
O649 Cd639 2.240 . S
O649 C647 1.279 . S
O650 Cd640 2.297 . S
O650 C645 1.247 . S
O651 Cd640 2.439 . S
O651 C645 1.208 . S
O652 Cd653 2.223 1_655 S
O652 C660 1.315 . S
Cd653 O652 2.223 1_455 S
Cd653 O656 2.297 . S
Cd653 O657 2.439 . S
Cd653 O663 2.240 . S
Cd654 O655 2.240 . S
Cd654 O662 2.223 . S
Cd654 O664 2.297 1_655 S
Cd654 O665 2.439 1_655 S
O655 Cd654 2.240 . S
O655 C660 1.279 . S
O656 Cd653 2.297 . S
O656 C658 1.247 . S
O657 Cd653 2.439 . S
O657 C658 1.208 . S
C658 O656 1.247 . S
C658 O657 1.208 . S
C659 O664 1.247 . S
C659 O665 1.208 . S
C660 O652 1.315 . S
C660 O655 1.279 . S
C661 O662 1.315 . S
C661 O663 1.279 1_655 S
O662 Cd654 2.223 . S
O662 C661 1.315 . S
O663 Cd653 2.240 . S
O663 C661 1.279 1_455 S
O664 Cd654 2.297 1_455 S
O664 C659 1.247 . S
O665 Cd654 2.439 1_455 S
O665 C659 1.208 . S
O666 Cd667 2.223 . S
O666 C674 1.315 . S
Cd667 O666 2.223 . S
Cd667 O670 2.297 . S
Cd667 O671 2.439 . S
Cd667 O677 2.240 . S
Cd668 O669 2.240 . S
Cd668 O676 2.223 . S
Cd668 O678 2.297 . S
Cd668 O679 2.439 . S
O669 Cd668 2.240 . S
O669 C674 1.279 . S
O670 Cd667 2.297 . S
O670 C672 1.247 . S
O671 Cd667 2.439 . S
O671 C672 1.208 . S
C672 O670 1.247 . S
C672 O671 1.208 . S
C673 O678 1.247 . S
C673 O679 1.208 . S
C674 O666 1.315 . S
C674 O669 1.279 . S
C675 O676 1.315 . S
C675 O677 1.279 . S
O676 Cd668 2.223 . S
O676 C675 1.315 . S
O677 Cd667 2.240 . S
O677 C675 1.279 . S
O678 Cd668 2.297 . S
O678 C673 1.247 . S
O679 Cd668 2.439 . S
O679 C673 1.208 . S
C680 C681 1.391 . S
C680 C682 1.394 . S
C680 H696 0.931 . S
C681 C680 1.391 . S
C681 C685 1.376 . S
C682 C680 1.394 . S
C682 C683 1.369 . S
C682 C686 1.531 . S
C683 C682 1.369 . S
C683 C684 1.410 . S
C683 C691 1.503 . S
C684 C683 1.410 . S
C684 C685 1.392 . S
C684 C687 1.511 . S
C685 C681 1.376 . S
C685 C684 1.392 . S
C685 H697 0.929 . S
C686 C682 1.531 . S
C686 H698 0.960 . S
C686 H699 0.962 . S
C686 H700 0.960 . S
C687 C684 1.511 . S
C687 H701 0.961 . S
C687 H702 0.961 . S
C687 H703 0.961 . S
C688 C689 1.370 . S
C688 C690 1.363 . S
C688 H704 0.931 1_556 S
C689 C688 1.370 . S
C689 C693 1.408 . S
C690 C688 1.363 . S
C690 C691 1.370 . S
C690 C694 1.524 . S
C691 C683 1.503 . S
C691 C690 1.370 . S
C691 C692 1.403 . S
C692 C691 1.403 . S
C692 C693 1.404 . S
C692 C695 1.539 . S
C693 C689 1.408 . S
C693 C692 1.404 . S
C693 H705 0.930 . S
C694 C690 1.524 . S
C694 H706 0.956 . S
C694 H707 0.961 . S
C694 H708 0.961 . S
C695 C692 1.539 . S
C695 H709 0.958 . S
C695 H710 0.961 . S
C695 H711 0.960 . S
H696 C680 0.931 . S
H697 C685 0.929 . S
H698 C686 0.960 . S
H699 C686 0.962 . S
H700 C686 0.960 . S
H701 C687 0.961 . S
H702 C687 0.961 . S
H703 C687 0.961 . S
H704 C688 0.931 1_554 S
H705 C693 0.930 . S
H706 C694 0.956 . S
H707 C694 0.961 . S
H708 C694 0.961 . S
H709 C695 0.958 . S
H710 C695 0.961 . S
H711 C695 0.960 . S
C712 C713 1.391 . S
C712 C714 1.394 1_655 S
C712 H728 0.931 . S
C713 C712 1.391 . S
C713 C717 1.376 . S
C714 C712 1.394 1_455 S
C714 C715 1.369 . S
C714 C718 1.531 . S
C715 C714 1.369 . S
C715 C716 1.410 1_455 S
C715 C723 1.503 . S
C716 C715 1.410 1_655 S
C716 C717 1.392 . S
C716 C719 1.511 . S
C717 C713 1.376 . S
C717 C716 1.392 . S
C717 H729 0.929 . S
C718 C714 1.531 . S
C718 H730 0.960 . S
C718 H731 0.962 . S
C718 H732 0.960 . S
C719 C716 1.511 . S
C719 H733 0.961 . S
C719 H734 0.961 1_655 S
C719 H735 0.961 . S
C720 C721 1.370 . S
C720 C722 1.363 . S
C720 H736 0.931 . S
C721 C720 1.370 . S
C721 C725 1.408 . S
C722 C720 1.363 . S
C722 C723 1.370 . S
C722 C726 1.524 . S
C723 C715 1.503 . S
C723 C722 1.370 . S
C723 C724 1.403 . S
C724 C723 1.403 . S
C724 C725 1.404 . S
C724 C727 1.539 . S
C725 C721 1.408 . S
C725 C724 1.404 . S
C725 H737 0.930 . S
C726 C722 1.524 . S
C726 H738 0.956 . S
C726 H739 0.961 . S
C726 H740 0.961 . S
C727 C724 1.539 . S
C727 H741 0.958 . S
C727 H742 0.961 . S
C727 H743 0.960 1_455 S
H728 C712 0.931 . S
H729 C717 0.929 . S
H730 C718 0.960 . S
H731 C718 0.962 . S
H732 C718 0.960 . S
H733 C719 0.961 . S
H734 C719 0.961 1_455 S
H735 C719 0.961 . S
H736 C720 0.931 . S
H737 C725 0.930 . S
H738 C726 0.956 . S
H739 C726 0.961 . S
H740 C726 0.961 . S
H741 C727 0.958 . S
H742 C727 0.961 . S
H743 C727 0.960 1_655 S
C744 C745 1.391 . S
C744 C746 1.394 . S
C744 H760 0.931 . S
C745 C744 1.391 . S
C745 C749 1.376 . S
C746 C744 1.394 . S
C746 C747 1.369 . S
C746 C750 1.531 . S
C747 C746 1.369 . S
C747 C748 1.410 . S
C747 C755 1.503 . S
C748 C747 1.410 . S
C748 C749 1.392 . S
C748 C751 1.511 . S
C749 C745 1.376 . S
C749 C748 1.392 . S
C749 H761 0.929 . S
C750 C746 1.531 . S
C750 H762 0.960 . S
C750 H763 0.962 . S
C750 H764 0.960 . S
C751 C748 1.511 . S
C751 H765 0.961 . S
C751 H766 0.961 . S
C751 H767 0.961 . S
C752 C753 1.370 . S
C752 C754 1.363 . S
C752 H768 0.931 . S
C753 C752 1.370 . S
C753 C757 1.408 . S
C754 C752 1.363 . S
C754 C755 1.370 . S
C754 C758 1.524 . S
C755 C747 1.503 . S
C755 C754 1.370 . S
C755 C756 1.403 . S
C756 C755 1.403 . S
C756 C757 1.404 . S
C756 C759 1.539 . S
C757 C753 1.408 . S
C757 C756 1.404 . S
C757 H769 0.930 . S
C758 C754 1.524 . S
C758 H770 0.956 . S
C758 H771 0.961 . S
C758 H772 0.961 . S
C759 C756 1.539 . S
C759 H773 0.958 . S
C759 H774 0.961 . S
C759 H775 0.960 . S
H760 C744 0.931 . S
H761 C749 0.929 . S
H762 C750 0.960 . S
H763 C750 0.962 . S
H764 C750 0.960 . S
H765 C751 0.961 . S
H766 C751 0.961 . S
H767 C751 0.961 . S
H768 C752 0.931 . S
H769 C757 0.930 . S
H770 C758 0.956 . S
H771 C758 0.961 . S
H772 C758 0.961 . S
H773 C759 0.958 . S
H774 C759 0.961 . S
H775 C759 0.960 . S
C776 C777 1.391 . S
C776 C778 1.394 1_455 S
C776 H792 0.931 . S
C777 C776 1.391 . S
C777 C781 1.376 . S
C778 C776 1.394 1_655 S
C778 C779 1.369 . S
C778 C782 1.531 . S
C779 C778 1.369 . S
C779 C780 1.410 1_565 S
C779 C787 1.505 . S
C780 C779 1.410 1_545 S
C780 C781 1.392 1_645 S
C780 C783 1.511 . S
C781 C777 1.376 . S
C781 C780 1.392 1_465 S
C781 H793 0.929 1_565 S
C782 C778 1.531 . S
C782 H794 0.960 . S
C782 H795 0.962 . S
C782 H796 0.960 . S
C783 C780 1.511 . S
C783 H797 0.961 1_655 S
C783 H798 0.961 . S
C783 H799 0.961 . S
C784 C785 1.370 . S
C784 C786 1.363 . S
C784 H800 0.931 . S
C785 C784 1.370 . S
C785 C789 1.408 . S
C786 C784 1.363 . S
C786 C787 1.369 1_545 S
C786 C790 1.524 . S
C787 C779 1.505 . S
C787 C786 1.369 1_565 S
C787 C788 1.405 . S
C788 C787 1.405 . S
C788 C789 1.383 1_565 S
C788 C791 1.556 . S
C789 C785 1.408 . S
C789 C788 1.383 1_545 S
C789 H801 0.930 . S
C790 C786 1.524 . S
C790 H802 0.956 1_545 S
C790 H803 0.987 . S
C790 H804 0.961 . S
C791 C788 1.556 . S
C791 H805 0.958 . S
C791 H806 0.961 . S
C791 H807 0.960 . S
H792 C776 0.931 . S
H793 C781 0.929 1_545 S
H794 C782 0.960 . S
H795 C782 0.962 . S
H796 C782 0.960 . S
H797 C783 0.961 1_455 S
H798 C783 0.961 . S
H799 C783 0.961 . S
H800 C784 0.931 . S
H801 C789 0.930 . S
H802 C790 0.956 1_565 S
H803 C790 0.987 . S
H804 C790 0.961 . S
H805 C791 0.958 . S
H806 C791 0.961 . S
H807 C791 0.960 . S
C808 C809 1.391 . S
C808 C810 1.394 . S
C808 H824 0.931 . S
C809 C808 1.391 . S
C809 C813 1.376 . S
C810 C808 1.394 . S
C810 C811 1.369 . S
C810 C814 1.531 . S
C811 C810 1.369 . S
C811 C812 1.410 . S
C811 C819 1.503 . S
C812 C811 1.410 . S
C812 C813 1.392 . S
C812 C815 1.511 . S
C813 C809 1.376 . S
C813 C812 1.392 . S
C813 H825 0.929 . S
C814 C810 1.531 . S
C814 H826 0.960 . S
C814 H827 0.962 . S
C814 H828 0.960 . S
C815 C812 1.511 . S
C815 H829 0.961 . S
C815 H830 0.961 . S
C815 H831 0.961 . S
C816 C817 1.370 . S
C816 C818 1.363 . S
C816 H832 0.931 . S
C817 C816 1.370 . S
C817 C821 1.408 . S
C818 C816 1.363 . S
C818 C819 1.370 . S
C818 C822 1.524 . S
C819 C811 1.503 . S
C819 C818 1.370 . S
C819 C820 1.403 . S
C820 C819 1.403 . S
C820 C821 1.404 . S
C820 C823 1.539 . S
C821 C817 1.408 . S
C821 C820 1.404 . S
C821 H833 0.930 . S
C822 C818 1.524 . S
C822 H834 0.956 . S
C822 H835 0.961 . S
C822 H836 0.961 . S
C823 C820 1.539 . S
C823 H837 0.958 . S
C823 H838 0.961 . S
C823 H839 0.960 . S
H824 C808 0.931 . S
H825 C813 0.929 . S
H826 C814 0.960 . S
H827 C814 0.962 . S
H828 C814 0.960 . S
H829 C815 0.961 . S
H830 C815 0.961 . S
H831 C815 0.961 . S
H832 C816 0.931 . S
H833 C821 0.930 . S
H834 C822 0.956 . S
H835 C822 0.961 . S
H836 C822 0.961 . S
H837 C823 0.958 . S
H838 C823 0.961 . S
H839 C823 0.960 . S
C840 C841 1.391 . S
C840 C842 1.394 . S
C840 H856 0.931 . S
C841 C840 1.391 . S
C841 C845 1.376 . S
C842 C840 1.394 . S
C842 C843 1.369 . S
C842 C846 1.531 . S
C843 C842 1.369 . S
C843 C844 1.410 . S
C843 C851 1.503 . S
C844 C843 1.410 . S
C844 C845 1.392 . S
C844 C847 1.511 . S
C845 C841 1.376 . S
C845 C844 1.392 . S
C845 H857 0.929 . S
C846 C842 1.531 . S
C846 H858 0.960 . S
C846 H859 0.962 . S
C846 H860 0.960 . S
C847 C844 1.511 . S
C847 H861 0.961 . S
C847 H862 0.961 . S
C847 H863 0.961 . S
C848 C849 1.370 . S
C848 C850 1.363 . S
C848 H864 0.931 . S
C849 C848 1.370 . S
C849 C853 1.408 . S
C850 C848 1.363 . S
C850 C851 1.370 . S
C850 C854 1.524 . S
C851 C843 1.503 . S
C851 C850 1.370 . S
C851 C852 1.403 . S
C852 C851 1.403 . S
C852 C853 1.404 . S
C852 C855 1.539 . S
C853 C849 1.408 . S
C853 C852 1.404 . S
C853 H865 0.930 . S
C854 C850 1.524 . S
C854 H866 0.956 . S
C854 H867 0.961 . S
C854 H868 0.961 . S
C855 C852 1.539 . S
C855 H869 0.958 . S
C855 H870 0.961 . S
C855 H871 0.960 . S
H856 C840 0.931 . S
H857 C845 0.929 . S
H858 C846 0.960 . S
H859 C846 0.962 . S
H860 C846 0.960 . S
H861 C847 0.961 . S
H862 C847 0.961 . S
H863 C847 0.961 . S
H864 C848 0.931 . S
H865 C853 0.930 . S
H866 C854 0.956 . S
H867 C854 0.961 . S
H868 C854 0.961 . S
H869 C855 0.958 . S
H870 C855 0.961 . S
H871 C855 0.960 . S
C872 C873 1.391 . S
C872 C874 1.394 . S
C872 H888 0.931 . S
C873 C872 1.391 . S
C873 C877 1.376 . S
C874 C872 1.394 . S
C874 C875 1.369 . S
C874 C878 1.531 . S
C875 C874 1.369 . S
C875 C876 1.410 . S
C875 C883 1.503 . S
C876 C875 1.410 . S
C876 C877 1.392 . S
C876 C879 1.511 . S
C877 C873 1.376 . S
C877 C876 1.392 . S
C877 H889 0.929 . S
C878 C874 1.531 . S
C878 H890 0.960 . S
C878 H891 0.962 . S
C878 H892 0.960 . S
C879 C876 1.511 . S
C879 H893 0.961 . S
C879 H894 0.961 . S
C879 H895 0.961 . S
C880 C881 1.370 . S
C880 C882 1.363 . S
C880 H896 0.931 . S
C881 C880 1.370 . S
C881 C885 1.408 . S
C882 C880 1.363 . S
C882 C883 1.370 . S
C882 C886 1.524 . S
C883 C875 1.503 . S
C883 C882 1.370 . S
C883 C884 1.403 . S
C884 C883 1.403 . S
C884 C885 1.404 . S
C884 C887 1.539 . S
C885 C881 1.408 . S
C885 C884 1.404 . S
C885 H897 0.930 . S
C886 C882 1.524 . S
C886 H898 0.956 . S
C886 H899 0.961 . S
C886 H900 0.961 . S
C887 C884 1.539 . S
C887 H901 0.958 . S
C887 H902 0.961 . S
C887 H903 0.960 . S
H888 C872 0.931 . S
H889 C877 0.929 . S
H890 C878 0.960 . S
H891 C878 0.962 . S
H892 C878 0.960 . S
H893 C879 0.961 . S
H894 C879 0.961 . S
H895 C879 0.961 . S
H896 C880 0.931 . S
H897 C885 0.930 . S
H898 C886 0.956 . S
H899 C886 0.961 . S
H900 C886 0.961 . S
H901 C887 0.958 . S
H902 C887 0.961 . S
H903 C887 0.960 . S
C904 C905 1.391 . S
C904 C906 1.394 . S
C904 H920 0.931 . S
C905 C904 1.391 . S
C905 C909 1.376 . S
C906 C904 1.394 . S
C906 C907 1.369 . S
C906 C910 1.531 . S
C907 C906 1.369 . S
C907 C908 1.410 . S
C907 C915 1.503 . S
C908 C907 1.410 . S
C908 C909 1.392 . S
C908 C911 1.511 . S
C909 C905 1.376 . S
C909 C908 1.392 . S
C909 H921 0.929 . S
C910 C906 1.531 . S
C910 H922 0.960 . S
C910 H923 0.962 . S
C910 H924 0.960 . S
C911 C908 1.511 . S
C911 H925 0.961 . S
C911 H926 0.961 . S
C911 H927 0.961 . S
C912 C913 1.370 . S
C912 C914 1.363 . S
C912 H928 0.931 . S
C913 C912 1.370 . S
C913 C917 1.408 . S
C914 C912 1.363 . S
C914 C915 1.370 . S
C914 C918 1.524 . S
C915 C907 1.503 . S
C915 C914 1.370 . S
C915 C916 1.403 . S
C916 C915 1.403 . S
C916 C917 1.404 . S
C916 C919 1.539 . S
C917 C913 1.408 . S
C917 C916 1.404 . S
C917 H929 0.930 . S
C918 C914 1.524 . S
C918 H930 0.956 . S
C918 H931 0.961 . S
C918 H932 0.961 . S
C919 C916 1.539 . S
C919 H933 0.958 . S
C919 H934 0.961 . S
C919 H935 0.960 . S
H920 C904 0.931 . S
H921 C909 0.929 . S
H922 C910 0.960 . S
H923 C910 0.962 . S
H924 C910 0.960 . S
H925 C911 0.961 . S
H926 C911 0.961 . S
H927 C911 0.961 . S
H928 C912 0.931 . S
H929 C917 0.930 . S
H930 C918 0.956 . S
H931 C918 0.961 . S
H932 C918 0.961 . S
H933 C919 0.958 . S
H934 C919 0.961 . S
H935 C919 0.960 . S
C936 C937 1.391 . S
C936 C938 1.394 . S
C936 H952 0.931 . S
C937 C936 1.391 . S
C937 C941 1.376 . S
C938 C936 1.394 . S
C938 C939 1.369 . S
C938 C942 1.531 . S
C939 C938 1.369 . S
C939 C940 1.410 . S
C939 C947 1.503 . S
C940 C939 1.410 . S
C940 C941 1.392 . S
C940 C943 1.511 . S
C941 C937 1.376 . S
C941 C940 1.392 . S
C941 H953 0.929 . S
C942 C938 1.531 . S
C942 H954 0.960 . S
C942 H955 0.962 . S
C942 H956 0.960 . S
C943 C940 1.511 . S
C943 H957 0.961 . S
C943 H958 0.961 . S
C943 H959 0.961 . S
C944 C945 1.370 . S
C944 C946 1.363 . S
C944 H960 0.931 . S
C945 C944 1.370 . S
C945 C949 1.408 . S
C946 C944 1.363 . S
C946 C947 1.370 . S
C946 C950 1.524 . S
C947 C939 1.503 . S
C947 C946 1.370 . S
C947 C948 1.403 . S
C948 C947 1.403 . S
C948 C949 1.404 . S
C948 C951 1.539 . S
C949 C945 1.408 . S
C949 C948 1.404 . S
C949 H961 0.930 . S
C950 C946 1.524 . S
C950 H962 0.956 . S
C950 H963 0.961 . S
C950 H964 0.961 . S
C951 C948 1.539 . S
C951 H965 0.958 . S
C951 H966 0.961 . S
C951 H967 0.960 . S
H952 C936 0.931 . S
H953 C941 0.929 . S
H954 C942 0.960 . S
H955 C942 0.962 . S
H956 C942 0.960 . S
H957 C943 0.961 . S
H958 C943 0.961 . S
H959 C943 0.961 . S
H960 C944 0.931 . S
H961 C949 0.930 . S
H962 C950 0.956 . S
H963 C950 0.961 . S
H964 C950 0.961 . S
H965 C951 0.958 . S
H966 C951 0.961 . S
H967 C951 0.960 . S
C968 C969 1.391 . S
C968 C970 1.394 . S
C968 H984 0.931 . S
C969 C968 1.391 . S
C969 C973 1.376 . S
C970 C968 1.394 . S
C970 C971 1.369 . S
C970 C974 1.531 . S
C971 C970 1.369 . S
C971 C972 1.410 . S
C971 C979 1.503 . S
C972 C971 1.410 . S
C972 C973 1.392 . S
C972 C975 1.511 . S
C973 C969 1.376 . S
C973 C972 1.392 . S
C973 H985 0.929 . S
C974 C970 1.531 . S
C974 H986 0.960 . S
C974 H987 0.962 . S
C974 H988 0.960 . S
C975 C972 1.511 . S
C975 H989 0.961 . S
C975 H990 0.961 . S
C975 H991 0.961 . S
C976 C977 1.370 . S
C976 C978 1.363 . S
C976 H992 0.931 . S
C977 C976 1.370 . S
C977 C981 1.408 . S
C978 C976 1.363 . S
C978 C979 1.370 . S
C978 C982 1.524 . S
C979 C971 1.503 . S
C979 C978 1.370 . S
C979 C980 1.403 . S
C980 C979 1.403 . S
C980 C981 1.404 . S
C980 C983 1.539 . S
C981 C977 1.408 . S
C981 C980 1.404 . S
C981 H993 0.930 . S
C982 C978 1.524 . S
C982 H994 0.956 . S
C982 H995 0.961 . S
C982 H996 0.961 . S
C983 C980 1.539 . S
C983 H997 0.958 . S
C983 H998 0.961 . S
C983 H999 0.960 . S
H984 C968 0.931 . S
H985 C973 0.929 . S
H986 C974 0.960 . S
H987 C974 0.962 . S
H988 C974 0.960 . S
H989 C975 0.961 . S
H990 C975 0.961 . S
H991 C975 0.961 . S
H992 C976 0.931 . S
H993 C981 0.930 . S
H994 C982 0.956 . S
H995 C982 0.961 . S
H996 C982 0.961 . S
H997 C983 0.958 . S
H998 C983 0.961 . S
H999 C983 0.960 . S
C1000 C1001 1.391 . S
C1000 C1002 1.394 . S
C1000 H1016 0.931 . S
C1001 C1000 1.391 . S
C1001 C1005 1.376 . S
C1002 C1000 1.394 . S
C1002 C1003 1.369 . S
C1002 C1006 1.531 . S
C1003 C1002 1.369 . S
C1003 C1004 1.410 . S
C1003 C1011 1.503 . S
C1004 C1003 1.410 . S
C1004 C1005 1.392 . S
C1004 C1007 1.511 . S
C1005 C1001 1.376 . S
C1005 C1004 1.392 . S
C1005 H1017 0.929 . S
C1006 C1002 1.531 . S
C1006 H1018 0.960 . S
C1006 H1019 0.962 . S
C1006 H1020 0.960 . S
C1007 C1004 1.511 . S
C1007 H1021 0.961 . S
C1007 H1022 0.961 . S
C1007 H1023 0.961 . S
C1008 C1009 1.370 . S
C1008 C1010 1.363 . S
C1008 H1024 0.931 . S
C1009 C1008 1.370 . S
C1009 C1013 1.408 . S
C1010 C1008 1.363 . S
C1010 C1011 1.370 . S
C1010 C1014 1.524 . S
C1011 C1003 1.503 . S
C1011 C1010 1.370 . S
C1011 C1012 1.403 . S
C1012 C1011 1.403 . S
C1012 C1013 1.404 . S
C1012 C1015 1.539 . S
C1013 C1009 1.408 . S
C1013 C1012 1.404 . S
C1013 H1025 0.930 . S
C1014 C1010 1.524 . S
C1014 H1026 0.956 . S
C1014 H1027 0.961 . S
C1014 H1028 0.961 . S
C1015 C1012 1.539 . S
C1015 H1029 0.958 . S
C1015 H1030 0.961 . S
C1015 H1031 0.960 . S
H1016 C1000 0.931 . S
H1017 C1005 0.929 . S
H1018 C1006 0.960 . S
H1019 C1006 0.962 . S
H1020 C1006 0.960 . S
H1021 C1007 0.961 . S
H1022 C1007 0.961 . S
H1023 C1007 0.961 . S
H1024 C1008 0.931 . S
H1025 C1013 0.930 . S
H1026 C1014 0.956 . S
H1027 C1014 0.961 . S
H1028 C1014 0.961 . S
H1029 C1015 0.958 . S
H1030 C1015 0.961 . S
H1031 C1015 0.960 . S
C1032 C1033 1.391 . S
C1032 C1034 1.394 . S
C1032 H1048 0.931 . S
C1033 C1032 1.391 . S
C1033 C1037 1.376 . S
C1034 C1032 1.394 . S
C1034 C1035 1.369 . S
C1034 C1038 1.531 . S
C1035 C1034 1.369 . S
C1035 C1036 1.410 . S
C1035 C1043 1.503 . S
C1036 C1035 1.410 . S
C1036 C1037 1.392 . S
C1036 C1039 1.511 . S
C1037 C1033 1.376 . S
C1037 C1036 1.392 . S
C1037 H1049 0.929 . S
C1038 C1034 1.531 . S
C1038 H1050 0.960 . S
C1038 H1051 0.962 . S
C1038 H1052 0.960 . S
C1039 C1036 1.511 . S
C1039 H1053 0.961 . S
C1039 H1054 0.961 . S
C1039 H1055 0.961 . S
C1040 C1041 1.370 . S
C1040 C1042 1.363 . S
C1040 H1056 0.931 . S
C1041 C1040 1.370 . S
C1041 C1045 1.408 . S
C1042 C1040 1.363 . S
C1042 C1043 1.370 . S
C1042 C1046 1.524 . S
C1043 C1035 1.503 . S
C1043 C1042 1.370 . S
C1043 C1044 1.403 . S
C1044 C1043 1.403 . S
C1044 C1045 1.404 . S
C1044 C1047 1.539 . S
C1045 C1041 1.408 . S
C1045 C1044 1.404 . S
C1045 H1057 0.930 . S
C1046 C1042 1.524 . S
C1046 H1058 0.956 . S
C1046 H1059 0.961 . S
C1046 H1060 0.961 . S
C1047 C1044 1.539 . S
C1047 H1061 0.958 . S
C1047 H1062 0.961 . S
C1047 H1063 0.960 . S
H1048 C1032 0.931 . S
H1049 C1037 0.929 . S
H1050 C1038 0.960 . S
H1051 C1038 0.962 . S
H1052 C1038 0.960 . S
H1053 C1039 0.961 . S
H1054 C1039 0.961 . S
H1055 C1039 0.961 . S
H1056 C1040 0.931 . S
H1057 C1045 0.930 . S
H1058 C1046 0.956 . S
H1059 C1046 0.961 . S
H1060 C1046 0.961 . S
H1061 C1047 0.958 . S
H1062 C1047 0.961 . S
H1063 C1047 0.960 . S
C1064 C1065 1.391 . S
C1064 C1066 1.394 . S
C1064 H1080 0.931 . S
C1065 C1064 1.391 . S
C1065 C1069 1.376 . S
C1066 C1064 1.394 . S
C1066 C1067 1.369 . S
C1066 C1070 1.531 . S
C1067 C1066 1.369 . S
C1067 C1068 1.410 . S
C1067 C1075 1.503 . S
C1068 C1067 1.410 . S
C1068 C1069 1.392 . S
C1068 C1071 1.511 . S
C1069 C1065 1.376 . S
C1069 C1068 1.392 . S
C1069 H1081 0.929 . S
C1070 C1066 1.531 . S
C1070 H1082 0.960 . S
C1070 H1083 0.962 . S
C1070 H1084 0.960 . S
C1071 C1068 1.511 . S
C1071 H1085 0.961 . S
C1071 H1086 0.961 . S
C1071 H1087 0.961 . S
C1072 C1073 1.370 . S
C1072 C1074 1.363 . S
C1072 H1088 0.931 . S
C1073 C1072 1.370 . S
C1073 C1077 1.408 . S
C1074 C1072 1.363 . S
C1074 C1075 1.370 . S
C1074 C1078 1.524 . S
C1075 C1067 1.503 . S
C1075 C1074 1.370 . S
C1075 C1076 1.403 . S
C1076 C1075 1.403 . S
C1076 C1077 1.404 . S
C1076 C1079 1.539 . S
C1077 C1073 1.408 . S
C1077 C1076 1.404 . S
C1077 H1089 0.930 . S
C1078 C1074 1.524 . S
C1078 H1090 0.956 . S
C1078 H1091 0.961 . S
C1078 H1092 0.961 . S
C1079 C1076 1.539 . S
C1079 H1093 0.958 . S
C1079 H1094 0.961 . S
C1079 H1095 0.960 . S
H1080 C1064 0.931 . S
H1081 C1069 0.929 . S
H1082 C1070 0.960 . S
H1083 C1070 0.962 . S
H1084 C1070 0.960 . S
H1085 C1071 0.961 . S
H1086 C1071 0.961 . S
H1087 C1071 0.961 . S
H1088 C1072 0.931 . S
H1089 C1077 0.930 . S
H1090 C1078 0.956 . S
H1091 C1078 0.961 . S
H1092 C1078 0.961 . S
H1093 C1079 0.958 . S
H1094 C1079 0.961 . S
H1095 C1079 0.960 . S
C1096 C1097 1.391 . S
C1096 C1098 1.394 . S
C1096 H1112 0.931 . S
C1097 C1096 1.391 . S
C1097 C1101 1.376 . S
C1098 C1096 1.394 . S
C1098 C1099 1.369 . S
C1098 C1102 1.531 . S
C1099 C1098 1.369 . S
C1099 C1100 1.410 . S
C1099 C1107 1.503 . S
C1100 C1099 1.410 . S
C1100 C1101 1.392 . S
C1100 C1103 1.511 . S
C1101 C1097 1.376 . S
C1101 C1100 1.392 . S
C1101 H1113 0.929 . S
C1102 C1098 1.531 . S
C1102 H1114 0.960 . S
C1102 H1115 0.962 . S
C1102 H1116 0.963 1_455 S
C1103 C1100 1.511 . S
C1103 H1117 0.961 . S
C1103 H1118 0.961 . S
C1103 H1119 0.961 . S
C1104 C1105 1.370 . S
C1104 C1106 1.363 . S
C1104 H1120 0.931 . S
C1105 C1104 1.370 . S
C1105 C1109 1.408 . S
C1106 C1104 1.363 . S
C1106 C1107 1.370 . S
C1106 C1110 1.524 . S
C1107 C1099 1.503 . S
C1107 C1106 1.370 . S
C1107 C1108 1.403 . S
C1108 C1107 1.403 . S
C1108 C1109 1.404 . S
C1108 C1111 1.539 . S
C1109 C1105 1.408 . S
C1109 C1108 1.404 . S
C1109 H1121 0.930 . S
C1110 C1106 1.524 . S
C1110 H1122 0.956 . S
C1110 H1123 0.961 . S
C1110 H1124 0.961 . S
C1111 C1108 1.539 . S
C1111 H1125 0.958 . S
C1111 H1126 0.961 . S
C1111 H1127 0.960 . S
H1112 C1096 0.931 . S
H1113 C1101 0.929 . S
H1114 C1102 0.960 . S
H1115 C1102 0.962 . S
H1116 C1102 0.963 1_655 S
H1117 C1103 0.961 . S
H1118 C1103 0.961 . S
H1119 C1103 0.961 . S
H1120 C1104 0.931 . S
H1121 C1109 0.930 . S
H1122 C1110 0.956 . S
H1123 C1110 0.961 . S
H1124 C1110 0.961 . S
H1125 C1111 0.958 . S
H1126 C1111 0.961 . S
H1127 C1111 0.960 . S
C1128 C1129 1.391 . S
C1128 C1130 1.394 . S
C1128 H1144 0.931 . S
C1129 C1128 1.391 . S
C1129 C1133 1.376 . S
C1130 C1128 1.394 . S
C1130 C1131 1.369 . S
C1130 C1134 1.531 . S
C1131 C1130 1.369 . S
C1131 C1132 1.410 . S
C1131 C1139 1.503 . S
C1132 C1131 1.410 . S
C1132 C1133 1.392 . S
C1132 C1135 1.511 . S
C1133 C1129 1.376 . S
C1133 C1132 1.392 . S
C1133 H1145 0.929 . S
C1134 C1130 1.531 . S
C1134 H1146 0.960 . S
C1134 H1147 0.962 . S
C1134 H1148 0.960 . S
C1135 C1132 1.511 . S
C1135 H1149 0.961 . S
C1135 H1150 0.961 . S
C1135 H1151 0.961 . S
C1136 C1137 1.370 . S
C1136 C1138 1.363 . S
C1136 H1152 0.931 . S
C1137 C1136 1.370 . S
C1137 C1141 1.408 . S
C1138 C1136 1.363 . S
C1138 C1139 1.370 . S
C1138 C1142 1.524 . S
C1139 C1131 1.503 . S
C1139 C1138 1.370 . S
C1139 C1140 1.403 . S
C1140 C1139 1.403 . S
C1140 C1141 1.404 . S
C1140 C1143 1.539 . S
C1141 C1137 1.408 . S
C1141 C1140 1.404 . S
C1141 H1153 0.930 . S
C1142 C1138 1.524 . S
C1142 H1154 0.956 . S
C1142 H1155 0.961 . S
C1142 H1156 0.961 . S
C1143 C1140 1.539 . S
C1143 H1157 0.958 . S
C1143 H1158 0.961 . S
C1143 H1159 0.960 . S
H1144 C1128 0.931 . S
H1145 C1133 0.929 . S
H1146 C1134 0.960 . S
H1147 C1134 0.962 . S
H1148 C1134 0.960 . S
H1149 C1135 0.961 . S
H1150 C1135 0.961 . S
H1151 C1135 0.961 . S
H1152 C1136 0.931 . S
H1153 C1141 0.930 . S
H1154 C1142 0.956 . S
H1155 C1142 0.961 . S
H1156 C1142 0.961 . S
H1157 C1143 0.958 . S
H1158 C1143 0.961 . S
H1159 C1143 0.960 . S
C1160 C1161 1.391 . S
C1160 C1162 1.394 . S
C1160 H1176 0.931 . S
C1161 C1160 1.391 . S
C1161 C1165 1.376 . S
C1162 C1160 1.394 . S
C1162 C1163 1.369 . S
C1162 C1166 1.531 . S
C1163 C1162 1.369 . S
C1163 C1164 1.410 . S
C1163 C1171 1.503 . S
C1164 C1163 1.410 . S
C1164 C1165 1.392 . S
C1164 C1167 1.511 . S
C1165 C1161 1.376 . S
C1165 C1164 1.392 . S
C1165 H1177 0.929 . S
C1166 C1162 1.531 . S
C1166 H1178 0.960 . S
C1166 H1179 0.962 . S
C1166 H1180 0.960 . S
C1167 C1164 1.511 . S
C1167 H1181 0.961 . S
C1167 H1182 0.961 . S
C1167 H1183 0.961 1_655 S
C1168 C1169 1.370 . S
C1168 C1170 1.363 . S
C1168 H1184 0.931 . S
C1169 C1168 1.370 . S
C1169 C1173 1.408 . S
C1170 C1168 1.363 . S
C1170 C1171 1.370 . S
C1170 C1174 1.524 . S
C1171 C1163 1.503 . S
C1171 C1170 1.370 . S
C1171 C1172 1.403 . S
C1172 C1171 1.403 . S
C1172 C1173 1.404 . S
C1172 C1175 1.539 . S
C1173 C1169 1.408 . S
C1173 C1172 1.404 . S
C1173 H1185 0.908 1_655 S
C1174 C1170 1.524 . S
C1174 H1186 0.956 . S
C1174 H1187 0.961 . S
C1174 H1188 0.961 . S
C1175 C1172 1.539 . S
C1175 H1189 0.958 . S
C1175 H1190 0.961 1_655 S
C1175 H1191 0.960 . S
H1176 C1160 0.931 . S
H1177 C1165 0.929 . S
H1178 C1166 0.960 . S
H1179 C1166 0.962 . S
H1180 C1166 0.960 . S
H1181 C1167 0.961 . S
H1182 C1167 0.961 . S
H1183 C1167 0.961 1_455 S
H1184 C1168 0.931 . S
H1185 C1173 0.908 1_455 S
H1186 C1174 0.956 . S
H1187 C1174 0.961 . S
H1188 C1174 0.961 . S
H1189 C1175 0.958 . S
H1190 C1175 0.961 1_455 S
H1191 C1175 0.960 . S
C1192 C1193 1.391 . S
C1192 C1194 1.394 . S
C1192 H1208 0.931 . S
C1193 C1192 1.391 . S
C1193 C1197 1.376 . S
C1194 C1192 1.394 . S
C1194 C1195 1.369 . S
C1194 C1198 1.531 . S
C1195 C1194 1.369 . S
C1195 C1196 1.410 . S
C1195 C1203 1.503 . S
C1196 C1195 1.410 . S
C1196 C1197 1.392 . S
C1196 C1199 1.511 . S
C1197 C1193 1.376 . S
C1197 C1196 1.392 . S
C1197 H1209 0.929 . S
C1198 C1194 1.531 . S
C1198 H1210 0.960 . S
C1198 H1211 0.962 . S
C1198 H1212 0.960 . S
C1199 C1196 1.511 . S
C1199 H1213 0.961 . S
C1199 H1214 0.961 . S
C1199 H1215 0.961 . S
C1200 C1201 1.370 . S
C1200 C1202 1.363 . S
C1200 H1216 0.931 1_565 S
C1201 C1200 1.370 . S
C1201 C1205 1.408 . S
C1202 C1200 1.363 . S
C1202 C1203 1.370 . S
C1202 C1206 1.524 . S
C1203 C1195 1.503 . S
C1203 C1202 1.370 . S
C1203 C1204 1.403 . S
C1204 C1203 1.403 . S
C1204 C1205 1.404 . S
C1204 C1207 1.539 . S
C1205 C1201 1.408 . S
C1205 C1204 1.404 . S
C1205 H1217 0.930 . S
C1206 C1202 1.524 . S
C1206 H1218 0.956 . S
C1206 H1219 0.961 . S
C1206 H1220 0.961 . S
C1207 C1204 1.539 . S
C1207 H1221 0.958 . S
C1207 H1222 0.961 . S
C1207 H1223 0.960 . S
H1208 C1192 0.931 . S
H1209 C1197 0.929 . S
H1210 C1198 0.960 . S
H1211 C1198 0.962 . S
H1212 C1198 0.960 . S
H1213 C1199 0.961 . S
H1214 C1199 0.961 . S
H1215 C1199 0.961 . S
H1216 C1200 0.931 1_545 S
H1217 C1205 0.930 . S
H1218 C1206 0.956 . S
H1219 C1206 0.961 . S
H1220 C1206 0.961 . S
H1221 C1207 0.958 . S
H1222 C1207 0.961 . S
H1223 C1207 0.960 . S
C1224 C1225 1.391 . S
C1224 C1226 1.394 . S
C1224 H1240 0.931 . S
C1225 C1224 1.391 . S
C1225 C1229 1.376 . S
C1226 C1224 1.394 . S
C1226 C1227 1.369 . S
C1226 C1230 1.531 . S
C1227 C1226 1.369 . S
C1227 C1228 1.410 . S
C1227 C1235 1.503 . S
C1228 C1227 1.410 . S
C1228 C1229 1.392 . S
C1228 C1231 1.511 . S
C1229 C1225 1.376 . S
C1229 C1228 1.392 . S
C1229 H1241 0.929 . S
C1230 C1226 1.531 . S
C1230 H1242 0.960 . S
C1230 H1243 0.962 . S
C1230 H1244 0.960 . S
C1231 C1228 1.511 . S
C1231 H1245 0.961 . S
C1231 H1246 0.961 . S
C1231 H1247 0.961 . S
C1232 C1233 1.370 . S
C1232 C1234 1.363 . S
C1232 H1248 0.931 . S
C1233 C1232 1.370 . S
C1233 C1237 1.408 . S
C1234 C1232 1.363 . S
C1234 C1235 1.370 . S
C1234 C1238 1.524 . S
C1235 C1227 1.503 . S
C1235 C1234 1.370 . S
C1235 C1236 1.403 . S
C1236 C1235 1.403 . S
C1236 C1237 1.404 . S
C1236 C1239 1.539 . S
C1237 C1233 1.408 . S
C1237 C1236 1.404 . S
C1237 H1249 0.930 . S
C1238 C1234 1.524 . S
C1238 H1250 0.956 . S
C1238 H1251 0.961 . S
C1238 H1252 0.961 . S
C1239 C1236 1.539 . S
C1239 H1253 0.958 . S
C1239 H1254 0.961 . S
C1239 H1255 0.960 . S
H1240 C1224 0.931 . S
H1241 C1229 0.929 . S
H1242 C1230 0.960 . S
H1243 C1230 0.962 . S
H1244 C1230 0.960 . S
H1245 C1231 0.961 . S
H1246 C1231 0.961 . S
H1247 C1231 0.961 . S
H1248 C1232 0.931 . S
H1249 C1237 0.930 . S
H1250 C1238 0.956 . S
H1251 C1238 0.961 . S
H1252 C1238 0.961 . S
H1253 C1239 0.958 . S
H1254 C1239 0.961 . S
H1255 C1239 0.960 . S
C1256 C1257 1.391 . S
C1256 C1258 1.394 . S
C1256 H1272 0.931 . S
C1257 C1256 1.391 . S
C1257 C1261 1.376 . S
C1258 C1256 1.394 . S
C1258 C1259 1.368 1_545 S
C1258 C1262 1.531 1_545 S
C1259 C1258 1.368 1_565 S
C1259 C1260 1.407 1_565 S
C1259 C1267 1.506 . S
C1260 C1259 1.407 1_545 S
C1260 C1261 1.392 . S
C1260 C1263 1.511 1_556 S
C1261 C1257 1.376 . S
C1261 C1260 1.392 . S
C1261 H1273 0.929 . S
C1262 C1258 1.531 1_565 S
C1262 H1274 0.960 . S
C1262 H1275 0.962 . S
C1262 H1276 0.960 . S
C1263 C1260 1.511 1_554 S
C1263 H1277 0.961 . S
C1263 H1278 0.961 . S
C1263 H1279 0.961 . S
C1264 C1265 1.370 . S
C1264 C1266 1.365 . S
C1264 H1280 0.931 . S
C1265 C1264 1.370 . S
C1265 C1269 1.408 . S
C1266 C1264 1.365 . S
C1266 C1267 1.369 1_554 S
C1266 C1270 1.523 1_564 S
C1267 C1259 1.506 . S
C1267 C1266 1.369 1_556 S
C1267 C1268 1.403 . S
C1268 C1267 1.403 . S
C1268 C1269 1.404 1_556 S
C1268 C1271 1.539 . S
C1269 C1265 1.408 . S
C1269 C1268 1.404 1_554 S
C1269 H1281 0.930 . S
C1270 C1266 1.523 1_546 S
C1270 H1282 0.956 . S
C1270 H1283 0.961 1_556 S
C1270 H1284 0.961 1_556 S
C1271 C1268 1.539 . S
C1271 H1285 0.958 . S
C1271 H1286 0.962 . S
C1271 H1287 0.960 . S
H1272 C1256 0.931 . S
H1273 C1261 0.929 . S
H1274 C1262 0.960 . S
H1275 C1262 0.962 . S
H1276 C1262 0.960 . S
H1277 C1263 0.961 . S
H1278 C1263 0.961 . S
H1279 C1263 0.961 . S
H1280 C1264 0.931 . S
H1281 C1269 0.930 . S
H1282 C1270 0.956 . S
H1283 C1270 0.961 1_554 S
H1284 C1270 0.961 1_554 S
H1285 C1271 0.958 . S
H1286 C1271 0.962 . S
H1287 C1271 0.960 . S
C1288 C1289 1.391 . S
C1288 C1290 1.394 . S
C1288 H1304 0.931 . S
C1289 C1288 1.391 . S
C1289 C1293 1.376 . S
C1290 C1288 1.394 . S
C1290 C1291 1.369 . S
C1290 C1294 1.531 . S
C1291 C1290 1.369 . S
C1291 C1292 1.410 . S
C1291 C1299 1.503 . S
C1292 C1291 1.410 . S
C1292 C1293 1.392 . S
C1292 C1295 1.511 . S
C1293 C1289 1.376 . S
C1293 C1292 1.392 . S
C1293 H1305 0.929 . S
C1294 C1290 1.531 . S
C1294 H1306 0.960 . S
C1294 H1307 0.962 . S
C1294 H1308 0.960 . S
C1295 C1292 1.511 . S
C1295 H1309 0.961 . S
C1295 H1310 0.961 . S
C1295 H1311 0.961 . S
C1296 C1297 1.370 . S
C1296 C1298 1.363 . S
C1296 H1312 0.931 . S
C1297 C1296 1.370 . S
C1297 C1301 1.408 . S
C1298 C1296 1.363 . S
C1298 C1299 1.370 . S
C1298 C1302 1.524 . S
C1299 C1291 1.503 . S
C1299 C1298 1.370 . S
C1299 C1300 1.403 . S
C1300 C1299 1.403 . S
C1300 C1301 1.404 . S
C1300 C1303 1.539 . S
C1301 C1297 1.408 . S
C1301 C1300 1.404 . S
C1301 H1313 0.930 . S
C1302 C1298 1.524 . S
C1302 H1314 0.956 . S
C1302 H1315 0.961 . S
C1302 H1316 0.961 . S
C1303 C1300 1.539 . S
C1303 H1317 0.958 . S
C1303 H1318 0.961 . S
C1303 H1319 0.960 . S
H1304 C1288 0.931 . S
H1305 C1293 0.929 . S
H1306 C1294 0.960 . S
H1307 C1294 0.962 . S
H1308 C1294 0.960 . S
H1309 C1295 0.961 . S
H1310 C1295 0.961 . S
H1311 C1295 0.961 . S
H1312 C1296 0.931 . S
H1313 C1301 0.930 . S
H1314 C1302 0.956 . S
H1315 C1302 0.961 . S
H1316 C1302 0.961 . S
H1317 C1303 0.958 . S
H1318 C1303 0.961 . S
H1319 C1303 0.960 . S
C1320 C1321 1.391 . S
C1320 C1322 1.394 . S
C1320 H1336 0.931 . S
C1321 C1320 1.391 . S
C1321 C1325 1.376 . S
C1322 C1320 1.394 . S
C1322 C1323 1.369 . S
C1322 C1326 1.531 . S
C1323 C1322 1.369 . S
C1323 C1324 1.410 . S
C1323 C1331 1.503 . S
C1324 C1323 1.410 . S
C1324 C1325 1.392 . S
C1324 C1327 1.511 . S
C1325 C1321 1.376 . S
C1325 C1324 1.392 . S
C1325 H1337 0.929 1_545 S
C1326 C1322 1.531 . S
C1326 H1338 0.960 . S
C1326 H1339 0.962 . S
C1326 H1340 0.960 . S
C1327 C1324 1.511 . S
C1327 H1341 0.961 . S
C1327 H1342 0.961 . S
C1327 H1343 0.961 . S
C1328 C1329 1.370 . S
C1328 C1330 1.363 . S
C1328 H1344 0.931 . S
C1329 C1328 1.370 . S
C1329 C1333 1.408 . S
C1330 C1328 1.363 . S
C1330 C1331 1.370 . S
C1330 C1334 1.524 . S
C1331 C1323 1.503 . S
C1331 C1330 1.370 . S
C1331 C1332 1.403 . S
C1332 C1331 1.403 . S
C1332 C1333 1.404 . S
C1332 C1335 1.539 . S
C1333 C1329 1.408 . S
C1333 C1332 1.404 . S
C1333 H1345 0.930 . S
C1334 C1330 1.524 . S
C1334 H1346 0.956 . S
C1334 H1347 0.961 . S
C1334 H1348 0.961 . S
C1335 C1332 1.539 . S
C1335 H1349 0.958 . S
C1335 H1350 0.961 . S
C1335 H1351 0.960 . S
H1336 C1320 0.931 . S
H1337 C1325 0.929 1_565 S
H1338 C1326 0.960 . S
H1339 C1326 0.962 . S
H1340 C1326 0.960 . S
H1341 C1327 0.961 . S
H1342 C1327 0.961 . S
H1343 C1327 0.961 . S
H1344 C1328 0.931 . S
H1345 C1333 0.930 . S
H1346 C1334 0.956 . S
H1347 C1334 0.961 . S
H1348 C1334 0.961 . S
H1349 C1335 0.958 . S
H1350 C1335 0.961 . S
H1351 C1335 0.960 . S
C1352 C1353 1.391 . S
C1352 C1354 1.394 . S
C1352 H1368 0.931 . S
C1353 C1352 1.391 . S
C1353 C1357 1.376 . S
C1354 C1352 1.394 . S
C1354 C1355 1.369 . S
C1354 C1358 1.531 . S
C1355 C1354 1.369 . S
C1355 C1356 1.410 . S
C1355 C1363 1.503 . S
C1356 C1355 1.410 . S
C1356 C1357 1.392 . S
C1356 C1359 1.511 . S
C1357 C1353 1.376 . S
C1357 C1356 1.392 . S
C1357 H1369 0.929 . S
C1358 C1354 1.531 . S
C1358 H1370 0.960 . S
C1358 H1371 0.962 . S
C1358 H1372 0.960 . S
C1359 C1356 1.511 . S
C1359 H1373 0.961 . S
C1359 H1374 0.961 . S
C1359 H1375 0.961 . S
C1360 C1361 1.370 . S
C1360 C1362 1.363 . S
C1360 H1376 0.931 . S
C1361 C1360 1.370 . S
C1361 C1365 1.408 . S
C1362 C1360 1.363 . S
C1362 C1363 1.370 . S
C1362 C1366 1.524 . S
C1363 C1355 1.503 . S
C1363 C1362 1.370 . S
C1363 C1364 1.403 . S
C1364 C1363 1.403 . S
C1364 C1365 1.404 . S
C1364 C1367 1.539 . S
C1365 C1361 1.408 . S
C1365 C1364 1.404 . S
C1365 H1377 0.930 . S
C1366 C1362 1.524 . S
C1366 H1378 0.956 . S
C1366 H1379 0.961 . S
C1366 H1380 0.961 . S
C1367 C1364 1.539 . S
C1367 H1381 0.958 . S
C1367 H1382 0.961 . S
C1367 H1383 0.960 . S
H1368 C1352 0.931 . S
H1369 C1357 0.929 . S
H1370 C1358 0.960 . S
H1371 C1358 0.962 . S
H1372 C1358 0.960 . S
H1373 C1359 0.961 . S
H1374 C1359 0.961 . S
H1375 C1359 0.961 . S
H1376 C1360 0.931 . S
H1377 C1365 0.930 . S
H1378 C1366 0.956 . S
H1379 C1366 0.961 . S
H1380 C1366 0.961 . S
H1381 C1367 0.958 . S
H1382 C1367 0.961 . S
H1383 C1367 0.960 . S
C1384 C1385 1.391 . S
C1384 C1386 1.394 1_565 S
C1384 H1400 0.931 . S
C1385 C1384 1.391 . S
C1385 C1389 1.376 . S
C1386 C1384 1.394 1_545 S
C1386 C1387 1.369 . S
C1386 C1390 1.531 . S
C1387 C1386 1.369 . S
C1387 C1388 1.410 . S
C1387 C1395 1.503 . S
C1388 C1387 1.410 . S
C1388 C1389 1.392 1_545 S
C1388 C1391 1.511 . S
C1389 C1385 1.376 . S
C1389 C1388 1.392 1_565 S
C1389 H1401 0.929 . S
C1390 C1386 1.531 . S
C1390 H1402 0.960 . S
C1390 H1403 0.962 . S
C1390 H1404 0.960 . S
C1391 C1388 1.511 . S
C1391 H1405 0.961 . S
C1391 H1406 0.961 . S
C1391 H1407 0.961 . S
C1392 C1393 1.370 . S
C1392 C1394 1.363 . S
C1392 H1408 0.931 . S
C1393 C1392 1.370 . S
C1393 C1397 1.408 . S
C1394 C1392 1.363 . S
C1394 C1395 1.370 . S
C1394 C1398 1.524 . S
C1395 C1387 1.503 . S
C1395 C1394 1.370 . S
C1395 C1396 1.403 . S
C1396 C1395 1.403 . S
C1396 C1397 1.404 . S
C1396 C1399 1.539 . S
C1397 C1393 1.408 . S
C1397 C1396 1.404 . S
C1397 H1409 0.930 . S
C1398 C1394 1.524 . S
C1398 H1410 0.956 . S
C1398 H1411 0.961 . S
C1398 H1412 0.961 . S
C1399 C1396 1.539 . S
C1399 H1413 0.958 . S
C1399 H1414 0.961 . S
C1399 H1415 0.960 . S
H1400 C1384 0.931 . S
H1401 C1389 0.929 . S
H1402 C1390 0.960 . S
H1403 C1390 0.962 . S
H1404 C1390 0.960 . S
H1405 C1391 0.961 . S
H1406 C1391 0.961 . S
H1407 C1391 0.961 . S
H1408 C1392 0.931 . S
H1409 C1397 0.930 . S
H1410 C1398 0.956 . S
H1411 C1398 0.961 . S
H1412 C1398 0.961 . S
H1413 C1399 0.958 . S
H1414 C1399 0.961 . S
H1415 C1399 0.960 . S
C1416 C1417 1.391 . S
C1416 C1418 1.394 . S
C1416 H1432 0.931 . S
C1417 C1416 1.391 . S
C1417 C1421 1.376 . S
C1418 C1416 1.394 . S
C1418 C1419 1.369 . S
C1418 C1422 1.531 . S
C1419 C1418 1.369 . S
C1419 C1420 1.410 . S
C1419 C1427 1.503 . S
C1420 C1419 1.410 . S
C1420 C1421 1.392 . S
C1420 C1423 1.511 . S
C1421 C1417 1.376 . S
C1421 C1420 1.392 . S
C1421 H1433 0.929 . S
C1422 C1418 1.531 . S
C1422 H1434 0.960 . S
C1422 H1435 0.962 . S
C1422 H1436 0.960 . S
C1423 C1420 1.511 . S
C1423 H1437 0.961 . S
C1423 H1438 0.961 . S
C1423 H1439 0.961 . S
C1424 C1425 1.370 . S
C1424 C1426 1.363 . S
C1424 H1440 0.931 . S
C1425 C1424 1.370 . S
C1425 C1429 1.408 . S
C1426 C1424 1.363 . S
C1426 C1427 1.370 . S
C1426 C1430 1.524 . S
C1427 C1419 1.503 . S
C1427 C1426 1.370 . S
C1427 C1428 1.403 . S
C1428 C1427 1.403 . S
C1428 C1429 1.404 . S
C1428 C1431 1.539 . S
C1429 C1425 1.408 . S
C1429 C1428 1.404 . S
C1429 H1441 0.930 . S
C1430 C1426 1.524 . S
C1430 H1442 0.956 . S
C1430 H1443 0.961 . S
C1430 H1444 0.961 . S
C1431 C1428 1.539 . S
C1431 H1445 0.958 . S
C1431 H1446 0.961 . S
C1431 H1447 0.960 . S
H1432 C1416 0.931 . S
H1433 C1421 0.929 . S
H1434 C1422 0.960 . S
H1435 C1422 0.962 . S
H1436 C1422 0.960 . S
H1437 C1423 0.961 . S
H1438 C1423 0.961 . S
H1439 C1423 0.961 . S
H1440 C1424 0.931 . S
H1441 C1429 0.930 . S
H1442 C1430 0.956 . S
H1443 C1430 0.961 . S
H1444 C1430 0.961 . S
H1445 C1431 0.958 . S
H1446 C1431 0.961 . S
H1447 C1431 0.960 . S
C1448 C1449 1.391 . S
C1448 C1450 1.394 . S
C1448 H1464 0.931 . S
C1449 C1448 1.391 . S
C1449 C1453 1.376 . S
C1450 C1448 1.394 . S
C1450 C1451 1.369 . S
C1450 C1454 1.531 . S
C1451 C1450 1.369 . S
C1451 C1452 1.410 . S
C1451 C1459 1.503 . S
C1452 C1451 1.410 . S
C1452 C1453 1.392 . S
C1452 C1455 1.511 . S
C1453 C1449 1.376 . S
C1453 C1452 1.392 . S
C1453 H1465 0.929 . S
C1454 C1450 1.531 . S
C1454 H1466 0.960 . S
C1454 H1467 0.962 . S
C1454 H1468 0.960 . S
C1455 C1452 1.511 . S
C1455 H1469 0.961 . S
C1455 H1470 0.961 . S
C1455 H1471 0.961 . S
C1456 C1457 1.370 . S
C1456 C1458 1.363 . S
C1456 H1472 0.931 . S
C1457 C1456 1.370 . S
C1457 C1461 1.408 . S
C1458 C1456 1.363 . S
C1458 C1459 1.370 . S
C1458 C1462 1.524 . S
C1459 C1451 1.503 . S
C1459 C1458 1.370 . S
C1459 C1460 1.403 . S
C1460 C1459 1.403 . S
C1460 C1461 1.404 . S
C1460 C1463 1.539 . S
C1461 C1457 1.408 . S
C1461 C1460 1.404 . S
C1461 H1473 0.930 . S
C1462 C1458 1.524 . S
C1462 H1474 0.956 . S
C1462 H1475 0.961 . S
C1462 H1476 0.961 . S
C1463 C1460 1.539 . S
C1463 H1477 0.958 . S
C1463 H1478 0.961 . S
C1463 H1479 0.960 . S
H1464 C1448 0.931 . S
H1465 C1453 0.929 . S
H1466 C1454 0.960 . S
H1467 C1454 0.962 . S
H1468 C1454 0.960 . S
H1469 C1455 0.961 . S
H1470 C1455 0.961 . S
H1471 C1455 0.961 . S
H1472 C1456 0.931 . S
H1473 C1461 0.930 . S
H1474 C1462 0.956 . S
H1475 C1462 0.961 . S
H1476 C1462 0.961 . S
H1477 C1463 0.958 . S
H1478 C1463 0.961 . S
H1479 C1463 0.960 . S
C1480 C1481 1.391 . S
C1480 C1482 1.394 . S
C1480 H1496 0.931 . S
C1481 C1480 1.391 . S
C1481 C1485 1.376 . S
C1482 C1480 1.394 . S
C1482 C1483 1.369 . S
C1482 C1486 1.531 . S
C1483 C1482 1.369 . S
C1483 C1484 1.410 . S
C1483 C1491 1.503 . S
C1484 C1483 1.410 . S
C1484 C1485 1.392 . S
C1484 C1487 1.511 . S
C1485 C1481 1.376 . S
C1485 C1484 1.392 . S
C1485 H1497 0.929 . S
C1486 C1482 1.531 . S
C1486 H1498 0.960 . S
C1486 H1499 0.962 . S
C1486 H1500 0.960 . S
C1487 C1484 1.511 . S
C1487 H1501 0.961 . S
C1487 H1502 0.961 . S
C1487 H1503 0.961 . S
C1488 C1489 1.370 . S
C1488 C1490 1.363 . S
C1488 H1504 0.931 . S
C1489 C1488 1.370 . S
C1489 C1493 1.408 . S
C1490 C1488 1.363 . S
C1490 C1491 1.370 . S
C1490 C1494 1.524 . S
C1491 C1483 1.503 . S
C1491 C1490 1.370 . S
C1491 C1492 1.403 . S
C1492 C1491 1.403 . S
C1492 C1493 1.404 . S
C1492 C1495 1.539 . S
C1493 C1489 1.408 . S
C1493 C1492 1.404 . S
C1493 H1505 0.930 . S
C1494 C1490 1.524 . S
C1494 H1506 0.956 . S
C1494 H1507 0.961 . S
C1494 H1508 0.961 . S
C1495 C1492 1.539 . S
C1495 H1509 0.958 1_545 S
C1495 H1510 0.961 1_545 S
C1495 H1511 0.960 . S
H1496 C1480 0.931 . S
H1497 C1485 0.929 . S
H1498 C1486 0.960 . S
H1499 C1486 0.962 . S
H1500 C1486 0.960 . S
H1501 C1487 0.961 . S
H1502 C1487 0.961 . S
H1503 C1487 0.961 . S
H1504 C1488 0.931 . S
H1505 C1493 0.930 . S
H1506 C1494 0.956 . S
H1507 C1494 0.961 . S
H1508 C1494 0.961 . S
H1509 C1495 0.958 1_565 S
H1510 C1495 0.961 1_565 S
H1511 C1495 0.960 . S
C1512 C1513 1.391 . S
C1512 C1514 1.394 . S
C1512 H1528 0.931 . S
C1513 C1512 1.391 . S
C1513 C1517 1.376 . S
C1514 C1512 1.394 . S
C1514 C1515 1.369 . S
C1514 C1518 1.531 . S
C1515 C1514 1.369 . S
C1515 C1516 1.410 . S
C1515 C1523 1.503 . S
C1516 C1515 1.410 . S
C1516 C1517 1.392 . S
C1516 C1519 1.511 . S
C1517 C1513 1.376 . S
C1517 C1516 1.392 . S
C1517 H1529 0.929 . S
C1518 C1514 1.531 . S
C1518 H1530 0.960 . S
C1518 H1531 0.962 . S
C1518 H1532 0.960 . S
C1519 C1516 1.511 . S
C1519 H1533 0.961 . S
C1519 H1534 0.961 . S
C1519 H1535 0.961 . S
C1520 C1521 1.370 . S
C1520 C1522 1.363 . S
C1520 H1536 0.931 . S
C1521 C1520 1.370 . S
C1521 C1525 1.408 . S
C1522 C1520 1.363 . S
C1522 C1523 1.370 . S
C1522 C1526 1.524 . S
C1523 C1515 1.503 . S
C1523 C1522 1.370 . S
C1523 C1524 1.403 . S
C1524 C1523 1.403 . S
C1524 C1525 1.404 . S
C1524 C1527 1.539 . S
C1525 C1521 1.408 . S
C1525 C1524 1.404 . S
C1525 H1537 0.930 . S
C1526 C1522 1.524 . S
C1526 H1538 0.956 . S
C1526 H1539 0.961 . S
C1526 H1540 0.961 . S
C1527 C1524 1.539 . S
C1527 H1541 0.958 . S
C1527 H1542 0.961 . S
C1527 H1543 0.960 . S
H1528 C1512 0.931 . S
H1529 C1517 0.929 . S
H1530 C1518 0.960 . S
H1531 C1518 0.962 . S
H1532 C1518 0.960 . S
H1533 C1519 0.961 . S
H1534 C1519 0.961 . S
H1535 C1519 0.961 . S
H1536 C1520 0.931 . S
H1537 C1525 0.930 . S
H1538 C1526 0.956 . S
H1539 C1526 0.961 . S
H1540 C1526 0.961 . S
H1541 C1527 0.958 . S
H1542 C1527 0.961 . S
H1543 C1527 0.960 . S
C1544 C1545 1.391 . S
C1544 C1546 1.394 . S
C1544 H1560 0.931 . S
C1545 C1544 1.391 . S
C1545 C1549 1.376 . S
C1546 C1544 1.394 . S
C1546 C1547 1.369 . S
C1546 C1550 1.531 . S
C1547 C1546 1.369 . S
C1547 C1548 1.410 . S
C1547 C1555 1.503 . S
C1548 C1547 1.410 . S
C1548 C1549 1.392 . S
C1548 C1551 1.511 . S
C1549 C1545 1.376 . S
C1549 C1548 1.392 . S
C1549 H1561 0.929 . S
C1550 C1546 1.531 . S
C1550 H1562 0.960 . S
C1550 H1563 0.962 . S
C1550 H1564 0.960 . S
C1551 C1548 1.511 . S
C1551 H1565 0.961 . S
C1551 H1566 0.961 . S
C1551 H1567 0.961 . S
C1552 C1553 1.370 . S
C1552 C1554 1.363 . S
C1552 H1568 0.931 . S
C1553 C1552 1.370 . S
C1553 C1557 1.408 . S
C1554 C1552 1.363 . S
C1554 C1555 1.370 . S
C1554 C1558 1.524 . S
C1555 C1547 1.503 . S
C1555 C1554 1.370 . S
C1555 C1556 1.403 . S
C1556 C1555 1.403 . S
C1556 C1557 1.404 . S
C1556 C1559 1.539 . S
C1557 C1553 1.408 . S
C1557 C1556 1.404 . S
C1557 H1569 0.930 . S
C1558 C1554 1.524 . S
C1558 H1570 0.956 . S
C1558 H1571 0.961 . S
C1558 H1572 0.961 . S
C1559 C1556 1.539 . S
C1559 H1573 0.958 . S
C1559 H1574 0.961 . S
C1559 H1575 0.960 . S
H1560 C1544 0.931 . S
H1561 C1549 0.929 . S
H1562 C1550 0.960 . S
H1563 C1550 0.962 . S
H1564 C1550 0.960 . S
H1565 C1551 0.961 . S
H1566 C1551 0.961 . S
H1567 C1551 0.961 . S
H1568 C1552 0.931 . S
H1569 C1557 0.930 . S
H1570 C1558 0.956 . S
H1571 C1558 0.961 . S
H1572 C1558 0.961 . S
H1573 C1559 0.958 . S
H1574 C1559 0.961 . S
H1575 C1559 0.960 . S
C1576 C1577 1.391 . S
C1576 C1578 1.394 . S
C1576 H1592 0.931 . S
C1577 C1576 1.391 . S
C1577 C1581 1.376 . S
C1578 C1576 1.394 . S
C1578 C1579 1.369 . S
C1578 C1582 1.531 . S
C1579 C1578 1.369 . S
C1579 C1580 1.410 . S
C1579 C1587 1.503 . S
C1580 C1579 1.410 . S
C1580 C1581 1.392 . S
C1580 C1583 1.511 . S
C1581 C1577 1.376 . S
C1581 C1580 1.392 . S
C1581 H1593 0.929 . S
C1582 C1578 1.531 . S
C1582 H1594 0.960 . S
C1582 H1595 0.962 . S
C1582 H1596 0.960 . S
C1583 C1580 1.511 . S
C1583 H1597 0.961 . S
C1583 H1598 0.961 . S
C1583 H1599 0.961 . S
C1584 C1585 1.370 . S
C1584 C1586 1.363 . S
C1584 H1600 0.931 . S
C1585 C1584 1.370 . S
C1585 C1589 1.408 . S
C1586 C1584 1.363 . S
C1586 C1587 1.370 . S
C1586 C1590 1.524 . S
C1587 C1579 1.503 . S
C1587 C1586 1.370 . S
C1587 C1588 1.403 . S
C1588 C1587 1.403 . S
C1588 C1589 1.404 . S
C1588 C1591 1.539 . S
C1589 C1585 1.408 . S
C1589 C1588 1.404 . S
C1589 H1601 0.930 . S
C1590 C1586 1.524 . S
C1590 H1602 0.956 . S
C1590 H1603 0.961 . S
C1590 H1604 0.961 . S
C1591 C1588 1.539 . S
C1591 H1605 0.958 . S
C1591 H1606 0.961 . S
C1591 H1607 0.960 . S
H1592 C1576 0.931 . S
H1593 C1581 0.929 . S
H1594 C1582 0.960 . S
H1595 C1582 0.962 . S
H1596 C1582 0.960 . S
H1597 C1583 0.961 . S
H1598 C1583 0.961 . S
H1599 C1583 0.961 . S
H1600 C1584 0.931 . S
H1601 C1589 0.930 . S
H1602 C1590 0.956 . S
H1603 C1590 0.961 . S
H1604 C1590 0.961 . S
H1605 C1591 0.958 . S
H1606 C1591 0.961 . S
H1607 C1591 0.960 . S
C1608 C1609 1.391 . S
C1608 C1610 1.394 . S
C1608 H1624 0.931 . S
C1609 C1608 1.391 . S
C1609 C1613 1.376 . S
C1610 C1608 1.394 . S
C1610 C1611 1.369 . S
C1610 C1614 1.531 . S
C1611 C1610 1.369 . S
C1611 C1612 1.410 . S
C1611 C1619 1.503 1_455 S
C1612 C1611 1.410 . S
C1612 C1613 1.392 . S
C1612 C1615 1.511 1_455 S
C1613 C1609 1.376 . S
C1613 C1612 1.392 . S
C1613 H1625 0.929 . S
C1614 C1610 1.531 . S
C1614 H1626 0.960 . S
C1614 H1627 0.962 . S
C1614 H1628 0.960 . S
C1615 C1612 1.511 1_655 S
C1615 H1629 0.961 . S
C1615 H1630 0.961 . S
C1615 H1631 0.961 . S
C1616 C1617 1.370 . S
C1616 C1618 1.363 . S
C1616 H1632 0.931 . S
C1617 C1616 1.370 . S
C1617 C1621 1.408 . S
C1618 C1616 1.363 . S
C1618 C1619 1.370 . S
C1618 C1622 1.524 . S
C1619 C1611 1.503 1_655 S
C1619 C1618 1.370 . S
C1619 C1620 1.403 . S
C1620 C1619 1.403 . S
C1620 C1621 1.404 . S
C1620 C1623 1.539 . S
C1621 C1617 1.408 . S
C1621 C1620 1.404 . S
C1621 H1633 0.930 . S
C1622 C1618 1.524 . S
C1622 H1634 0.956 1_655 S
C1622 H1635 0.955 1_655 S
C1622 H1636 0.961 . S
C1623 C1620 1.539 . S
C1623 H1637 0.958 . S
C1623 H1638 0.961 . S
C1623 H1639 0.960 . S
H1624 C1608 0.931 . S
H1625 C1613 0.929 . S
H1626 C1614 0.960 . S
H1627 C1614 0.962 . S
H1628 C1614 0.960 . S
H1629 C1615 0.961 . S
H1630 C1615 0.961 . S
H1631 C1615 0.961 . S
H1632 C1616 0.931 . S
H1633 C1621 0.930 . S
H1634 C1622 0.956 1_455 S
H1635 C1622 0.955 1_455 S
H1636 C1622 0.961 . S
H1637 C1623 0.958 . S
H1638 C1623 0.961 . S
H1639 C1623 0.960 . S
C1640 C1641 1.391 . S
C1640 C1642 1.394 . S
C1640 H1656 0.931 . S
C1641 C1640 1.391 . S
C1641 C1645 1.376 . S
C1642 C1640 1.394 . S
C1642 C1643 1.369 . S
C1642 C1646 1.531 . S
C1643 C1642 1.369 . S
C1643 C1644 1.410 . S
C1643 C1651 1.503 . S
C1644 C1643 1.410 . S
C1644 C1645 1.392 . S
C1644 C1647 1.511 . S
C1645 C1641 1.376 . S
C1645 C1644 1.392 . S
C1645 H1657 0.929 . S
C1646 C1642 1.531 . S
C1646 H1658 0.960 . S
C1646 H1659 0.962 . S
C1646 H1660 0.960 . S
C1647 C1644 1.511 . S
C1647 H1661 0.961 . S
C1647 H1662 0.961 . S
C1647 H1663 0.961 . S
C1648 C1649 1.370 . S
C1648 C1650 1.363 . S
C1648 H1664 0.931 . S
C1649 C1648 1.370 . S
C1649 C1653 1.408 . S
C1650 C1648 1.363 . S
C1650 C1651 1.370 . S
C1650 C1654 1.524 . S
C1651 C1643 1.503 . S
C1651 C1650 1.370 . S
C1651 C1652 1.403 . S
C1652 C1651 1.403 . S
C1652 C1653 1.404 . S
C1652 C1655 1.539 . S
C1653 C1649 1.408 . S
C1653 C1652 1.404 . S
C1653 H1665 0.930 . S
C1654 C1650 1.524 . S
C1654 H1666 0.956 . S
C1654 H1667 0.961 . S
C1654 H1668 0.961 . S
C1655 C1652 1.539 . S
C1655 H1669 0.958 . S
C1655 H1670 0.961 . S
C1655 H1671 0.960 . S
H1656 C1640 0.931 . S
H1657 C1645 0.929 . S
H1658 C1646 0.960 . S
H1659 C1646 0.962 . S
H1660 C1646 0.960 . S
H1661 C1647 0.961 . S
H1662 C1647 0.961 . S
H1663 C1647 0.961 . S
H1664 C1648 0.931 . S
H1665 C1653 0.930 . S
H1666 C1654 0.956 . S
H1667 C1654 0.961 . S
H1668 C1654 0.961 . S
H1669 C1655 0.958 . S
H1670 C1655 0.961 . S
H1671 C1655 0.960 . S
C1672 C1673 1.391 . S
C1672 C1674 1.394 . S
C1672 H1688 0.931 . S
C1673 C1672 1.391 . S
C1673 C1677 1.376 . S
C1674 C1672 1.394 . S
C1674 C1675 1.369 . S
C1674 C1678 1.531 . S
C1675 C1674 1.369 . S
C1675 C1676 1.410 . S
C1675 C1683 1.503 1_655 S
C1676 C1675 1.410 . S
C1676 C1677 1.392 . S
C1676 C1679 1.511 1_655 S
C1677 C1673 1.376 . S
C1677 C1676 1.392 . S
C1677 H1689 0.929 . S
C1678 C1674 1.531 . S
C1678 H1690 0.960 . S
C1678 H1691 0.962 . S
C1678 H1692 0.960 . S
C1679 C1676 1.511 1_455 S
C1679 H1693 0.961 . S
C1679 H1694 0.961 . S
C1679 H1695 0.961 . S
C1680 C1681 1.370 . S
C1680 C1682 1.363 . S
C1680 H1696 0.931 . S
C1681 C1680 1.370 . S
C1681 C1685 1.408 . S
C1682 C1680 1.363 . S
C1682 C1683 1.370 . S
C1682 C1686 1.524 . S
C1683 C1675 1.503 1_455 S
C1683 C1682 1.370 . S
C1683 C1684 1.403 . S
C1684 C1683 1.403 . S
C1684 C1685 1.404 . S
C1684 C1687 1.539 . S
C1685 C1681 1.408 . S
C1685 C1684 1.404 . S
C1685 H1697 0.930 . S
C1686 C1682 1.524 . S
C1686 H1698 0.956 1_455 S
C1686 H1699 0.961 . S
C1686 H1700 0.961 . S
C1687 C1684 1.539 . S
C1687 H1701 0.958 . S
C1687 H1702 0.961 . S
C1687 H1703 0.960 . S
H1688 C1672 0.931 . S
H1689 C1677 0.929 . S
H1690 C1678 0.960 . S
H1691 C1678 0.962 . S
H1692 C1678 0.960 . S
H1693 C1679 0.961 . S
H1694 C1679 0.961 . S
H1695 C1679 0.961 . S
H1696 C1680 0.931 . S
H1697 C1685 0.930 . S
H1698 C1686 0.956 1_655 S
H1699 C1686 0.961 . S
H1700 C1686 0.961 . S
H1701 C1687 0.958 . S
H1702 C1687 0.961 . S
H1703 C1687 0.960 . S
C1704 C1705 1.391 . S
C1704 C1706 1.394 . S
C1704 H1720 0.931 . S
C1705 C1704 1.391 . S
C1705 C1709 1.376 . S
C1706 C1704 1.394 . S
C1706 C1707 1.369 . S
C1706 C1710 1.531 . S
C1707 C1706 1.369 . S
C1707 C1708 1.410 . S
C1707 C1715 1.503 . S
C1708 C1707 1.410 . S
C1708 C1709 1.392 . S
C1708 C1711 1.511 . S
C1709 C1705 1.376 . S
C1709 C1708 1.392 . S
C1709 H1721 0.929 . S
C1710 C1706 1.531 . S
C1710 H1722 0.960 . S
C1710 H1723 0.962 . S
C1710 H1724 0.960 . S
C1711 C1708 1.511 . S
C1711 H1725 0.961 . S
C1711 H1726 0.961 . S
C1711 H1727 0.961 . S
C1712 C1713 1.370 . S
C1712 C1714 1.363 . S
C1712 H1728 0.931 . S
C1713 C1712 1.370 . S
C1713 C1717 1.408 . S
C1714 C1712 1.363 . S
C1714 C1715 1.370 . S
C1714 C1718 1.524 . S
C1715 C1707 1.503 . S
C1715 C1714 1.370 . S
C1715 C1716 1.403 . S
C1716 C1715 1.403 . S
C1716 C1717 1.404 . S
C1716 C1719 1.539 . S
C1717 C1713 1.408 . S
C1717 C1716 1.404 . S
C1717 H1729 0.930 . S
C1718 C1714 1.524 . S
C1718 H1730 0.956 . S
C1718 H1731 0.961 . S
C1718 H1732 0.961 . S
C1719 C1716 1.539 . S
C1719 H1733 0.958 . S
C1719 H1734 0.961 . S
C1719 H1735 0.960 . S
H1720 C1704 0.931 . S
H1721 C1709 0.929 . S
H1722 C1710 0.960 . S
H1723 C1710 0.962 . S
H1724 C1710 0.960 . S
H1725 C1711 0.961 . S
H1726 C1711 0.961 . S
H1727 C1711 0.961 . S
H1728 C1712 0.931 . S
H1729 C1717 0.930 . S
H1730 C1718 0.956 . S
H1731 C1718 0.961 . S
H1732 C1718 0.961 . S
H1733 C1719 0.958 . S
H1734 C1719 0.961 . S
H1735 C1719 0.960 . S
C1736 C1737 1.391 . S
C1736 C1738 1.394 1_554 S
C1736 H1752 0.931 . S
C1737 C1736 1.391 . S
C1737 C1741 1.376 . S
C1738 C1736 1.394 1_556 S
C1738 C1739 1.369 . S
C1738 C1742 1.531 . S
C1739 C1738 1.369 . S
C1739 C1740 1.410 1_556 S
C1739 C1747 1.503 . S
C1740 C1739 1.410 1_554 S
C1740 C1741 1.392 . S
C1740 C1743 1.511 . S
C1741 C1737 1.376 . S
C1741 C1740 1.392 . S
C1741 H1753 0.929 . S
C1742 C1738 1.531 . S
C1742 H1754 0.960 . S
C1742 H1755 0.962 . S
C1742 H1756 0.960 . S
C1743 C1740 1.511 . S
C1743 H1757 0.961 . S
C1743 H1758 0.961 . S
C1743 H1759 0.961 . S
C1744 C1745 1.370 . S
C1744 C1746 1.363 . S
C1744 H1760 0.931 . S
C1745 C1744 1.370 . S
C1745 C1749 1.408 . S
C1746 C1744 1.363 . S
C1746 C1747 1.370 . S
C1746 C1750 1.524 . S
C1747 C1739 1.503 . S
C1747 C1746 1.370 . S
C1747 C1748 1.403 . S
C1748 C1747 1.403 . S
C1748 C1749 1.404 . S
C1748 C1751 1.539 . S
C1749 C1745 1.408 . S
C1749 C1748 1.404 . S
C1749 H1761 0.953 . S
C1750 C1746 1.524 . S
C1750 H1762 0.956 . S
C1750 H1763 0.961 1_556 S
C1750 H1764 0.961 . S
C1751 C1748 1.539 . S
C1751 H1765 0.958 . S
C1751 H1766 0.961 1_655 S
C1751 H1767 0.960 . S
H1752 C1736 0.931 . S
H1753 C1741 0.929 . S
H1754 C1742 0.960 . S
H1755 C1742 0.962 . S
H1756 C1742 0.960 . S
H1757 C1743 0.961 . S
H1758 C1743 0.961 . S
H1759 C1743 0.961 . S
H1760 C1744 0.931 . S
H1761 C1749 0.953 . S
H1762 C1750 0.956 . S
H1763 C1750 0.961 1_554 S
H1764 C1750 0.961 . S
H1765 C1751 0.958 . S
H1766 C1751 0.961 1_455 S
H1767 C1751 0.960 . S
C1768 C1769 1.391 . S
C1768 C1770 1.394 . S
C1768 H1784 0.931 . S
C1769 C1768 1.391 . S
C1769 C1773 1.376 . S
C1770 C1768 1.394 . S
C1770 C1771 1.369 . S
C1770 C1774 1.531 . S
C1771 C1770 1.369 . S
C1771 C1772 1.410 . S
C1771 C1779 1.503 . S
C1772 C1771 1.410 . S
C1772 C1773 1.392 . S
C1772 C1775 1.511 . S
C1773 C1769 1.376 . S
C1773 C1772 1.392 . S
C1773 H1785 0.929 . S
C1774 C1770 1.531 . S
C1774 H1786 0.960 . S
C1774 H1787 0.962 . S
C1774 H1788 0.960 . S
C1775 C1772 1.511 . S
C1775 H1789 0.961 . S
C1775 H1790 0.961 . S
C1775 H1791 0.961 . S
C1776 C1777 1.370 . S
C1776 C1778 1.363 . S
C1776 H1792 0.931 . S
C1777 C1776 1.370 . S
C1777 C1781 1.408 . S
C1778 C1776 1.363 . S
C1778 C1779 1.370 . S
C1778 C1782 1.524 . S
C1779 C1771 1.503 . S
C1779 C1778 1.370 . S
C1779 C1780 1.403 . S
C1780 C1779 1.403 . S
C1780 C1781 1.404 . S
C1780 C1783 1.539 . S
C1781 C1777 1.408 . S
C1781 C1780 1.404 . S
C1781 H1793 0.930 . S
C1782 C1778 1.524 . S
C1782 H1794 0.956 . S
C1782 H1795 0.961 . S
C1782 H1796 0.961 . S
C1783 C1780 1.539 . S
C1783 H1797 0.958 . S
C1783 H1798 0.961 . S
C1783 H1799 0.960 . S
H1784 C1768 0.931 . S
H1785 C1773 0.929 . S
H1786 C1774 0.960 . S
H1787 C1774 0.962 . S
H1788 C1774 0.960 . S
H1789 C1775 0.961 . S
H1790 C1775 0.961 . S
H1791 C1775 0.961 . S
H1792 C1776 0.931 . S
H1793 C1781 0.930 . S
H1794 C1782 0.956 . S
H1795 C1782 0.961 . S
H1796 C1782 0.961 . S
H1797 C1783 0.958 . S
H1798 C1783 0.961 . S
H1799 C1783 0.960 . S
C1800 C1801 1.391 . S
C1800 C1802 1.394 . S
C1800 H1816 0.931 . S
C1801 C1800 1.391 . S
C1801 C1805 1.376 . S
C1802 C1800 1.394 . S
C1802 C1803 1.369 . S
C1802 C1806 1.531 . S
C1803 C1802 1.369 . S
C1803 C1804 1.410 . S
C1803 C1811 1.503 . S
C1804 C1803 1.410 . S
C1804 C1805 1.392 . S
C1804 C1807 1.511 1_554 S
C1805 C1801 1.376 . S
C1805 C1804 1.392 . S
C1805 H1817 0.929 . S
C1806 C1802 1.531 . S
C1806 H1818 0.960 . S
C1806 H1819 0.962 . S
C1806 H1820 0.960 . S
C1807 C1804 1.511 1_556 S
C1807 H1821 0.965 . S
C1807 H1822 0.961 . S
C1807 H1823 0.961 . S
C1808 C1809 1.370 . S
C1808 C1810 1.363 . S
C1808 H1824 0.931 . S
C1809 C1808 1.370 . S
C1809 C1813 1.408 . S
C1810 C1808 1.363 . S
C1810 C1811 1.370 1_556 S
C1810 C1814 1.524 1_556 S
C1811 C1803 1.503 . S
C1811 C1810 1.370 1_554 S
C1811 C1812 1.403 1_554 S
C1812 C1811 1.403 1_556 S
C1812 C1813 1.404 . S
C1812 C1815 1.536 1_556 S
C1813 C1809 1.408 . S
C1813 C1812 1.404 . S
C1813 H1825 0.930 . S
C1814 C1810 1.524 1_554 S
C1814 H1826 0.956 . S
C1814 H1827 0.961 . S
C1814 H1828 0.961 1_554 S
C1815 C1812 1.536 1_554 S
C1815 H1829 0.965 . S
C1815 H1830 0.953 1_554 S
C1815 H1831 0.965 . S
H1816 C1800 0.931 . S
H1817 C1805 0.929 . S
H1818 C1806 0.960 . S
H1819 C1806 0.962 . S
H1820 C1806 0.960 . S
H1821 C1807 0.965 . S
H1822 C1807 0.961 . S
H1823 C1807 0.961 . S
H1824 C1808 0.931 . S
H1825 C1813 0.930 . S
H1826 C1814 0.956 . S
H1827 C1814 0.961 . S
H1828 C1814 0.961 1_556 S
H1829 C1815 0.965 . S
H1830 C1815 0.953 1_556 S
H1831 C1815 0.965 . S
C1832 C1833 1.391 . S
C1832 C1834 1.394 . S
C1832 H1848 0.931 . S
C1833 C1832 1.391 . S
C1833 C1837 1.376 . S
C1834 C1832 1.394 . S
C1834 C1835 1.369 . S
C1834 C1838 1.531 . S
C1835 C1834 1.369 . S
C1835 C1836 1.410 . S
C1835 C1843 1.503 . S
C1836 C1835 1.410 . S
C1836 C1837 1.392 . S
C1836 C1839 1.511 . S
C1837 C1833 1.376 . S
C1837 C1836 1.392 . S
C1837 H1849 0.929 . S
C1838 C1834 1.531 . S
C1838 H1850 0.960 . S
C1838 H1851 0.962 . S
C1838 H1852 0.960 . S
C1839 C1836 1.511 . S
C1839 H1853 0.961 . S
C1839 H1854 0.961 . S
C1839 H1855 0.961 . S
C1840 C1841 1.370 . S
C1840 C1842 1.363 . S
C1840 H1856 0.931 . S
C1841 C1840 1.370 . S
C1841 C1845 1.408 . S
C1842 C1840 1.363 . S
C1842 C1843 1.370 . S
C1842 C1846 1.524 . S
C1843 C1835 1.503 . S
C1843 C1842 1.370 . S
C1843 C1844 1.403 . S
C1844 C1843 1.403 . S
C1844 C1845 1.404 . S
C1844 C1847 1.539 . S
C1845 C1841 1.408 . S
C1845 C1844 1.404 . S
C1845 H1857 0.930 . S
C1846 C1842 1.524 . S
C1846 H1858 0.956 . S
C1846 H1859 0.961 . S
C1846 H1860 0.961 . S
C1847 C1844 1.539 . S
C1847 H1861 0.958 . S
C1847 H1862 0.961 . S
C1847 H1863 0.960 . S
H1848 C1832 0.931 . S
H1849 C1837 0.929 . S
H1850 C1838 0.960 . S
H1851 C1838 0.962 . S
H1852 C1838 0.960 . S
H1853 C1839 0.961 . S
H1854 C1839 0.961 . S
H1855 C1839 0.961 . S
H1856 C1840 0.931 . S
H1857 C1845 0.930 . S
H1858 C1846 0.956 . S
H1859 C1846 0.961 . S
H1860 C1846 0.961 . S
H1861 C1847 0.958 . S
H1862 C1847 0.961 . S
H1863 C1847 0.960 . S
C1864 C1865 1.391 . S
C1864 C1866 1.394 . S
C1864 H1880 0.931 . S
C1865 C1864 1.391 . S
C1865 C1869 1.376 . S
C1866 C1864 1.394 . S
C1866 C1867 1.369 1_556 S
C1866 C1870 1.531 . S
C1867 C1866 1.369 1_554 S
C1867 C1868 1.410 . S
C1867 C1875 1.503 . S
C1868 C1867 1.410 . S
C1868 C1869 1.392 1_554 S
C1868 C1871 1.511 . S
C1869 C1865 1.376 . S
C1869 C1868 1.392 1_556 S
C1869 H1881 0.929 . S
C1870 C1866 1.531 . S
C1870 H1882 0.960 1_556 S
C1870 H1883 0.962 . S
C1870 H1884 0.960 . S
C1871 C1868 1.511 . S
C1871 H1885 0.961 . S
C1871 H1886 0.961 . S
C1871 H1887 0.961 . S
C1872 C1873 1.370 . S
C1872 C1874 1.363 . S
C1872 H1888 0.931 . S
C1873 C1872 1.370 . S
C1873 C1877 1.408 . S
C1874 C1872 1.363 . S
C1874 C1875 1.370 . S
C1874 C1878 1.524 . S
C1875 C1867 1.503 . S
C1875 C1874 1.370 . S
C1875 C1876 1.403 . S
C1876 C1875 1.403 . S
C1876 C1877 1.404 . S
C1876 C1879 1.539 . S
C1877 C1873 1.408 . S
C1877 C1876 1.404 . S
C1877 H1889 0.930 . S
C1878 C1874 1.524 . S
C1878 H1890 0.956 . S
C1878 H1891 0.961 . S
C1878 H1892 0.961 . S
C1879 C1876 1.539 . S
C1879 H1893 0.958 . S
C1879 H1894 0.961 . S
C1879 H1895 0.960 . S
H1880 C1864 0.931 . S
H1881 C1869 0.929 . S
H1882 C1870 0.960 1_554 S
H1883 C1870 0.962 . S
H1884 C1870 0.960 . S
H1885 C1871 0.961 . S
H1886 C1871 0.961 . S
H1887 C1871 0.961 . S
H1888 C1872 0.931 . S
H1889 C1877 0.930 . S
H1890 C1878 0.956 . S
H1891 C1878 0.961 . S
H1892 C1878 0.961 . S
H1893 C1879 0.958 . S
H1894 C1879 0.961 . S
H1895 C1879 0.960 . S
C1896 C1897 1.391 . S
C1896 C1898 1.394 . S
C1896 H1912 0.931 . S
C1897 C1896 1.391 . S
C1897 C1901 1.376 . S
C1898 C1896 1.394 . S
C1898 C1899 1.369 . S
C1898 C1902 1.531 . S
C1899 C1898 1.369 . S
C1899 C1900 1.410 . S
C1899 C1907 1.503 . S
C1900 C1899 1.410 . S
C1900 C1901 1.392 . S
C1900 C1903 1.511 . S
C1901 C1897 1.376 . S
C1901 C1900 1.392 . S
C1901 H1913 0.929 . S
C1902 C1898 1.531 . S
C1902 H1914 0.960 . S
C1902 H1915 0.962 . S
C1902 H1916 0.960 . S
C1903 C1900 1.511 . S
C1903 H1917 0.961 . S
C1903 H1918 0.961 . S
C1903 H1919 0.961 . S
C1904 C1905 1.370 . S
C1904 C1906 1.363 . S
C1904 H1920 0.931 . S
C1905 C1904 1.370 . S
C1905 C1909 1.408 . S
C1906 C1904 1.363 . S
C1906 C1907 1.370 . S
C1906 C1910 1.524 . S
C1907 C1899 1.503 . S
C1907 C1906 1.370 . S
C1907 C1908 1.403 . S
C1908 C1907 1.403 . S
C1908 C1909 1.404 . S
C1908 C1911 1.539 . S
C1909 C1905 1.408 . S
C1909 C1908 1.404 . S
C1909 H1921 0.930 . S
C1910 C1906 1.524 . S
C1910 H1922 0.956 . S
C1910 H1923 0.961 . S
C1910 H1924 0.961 . S
C1911 C1908 1.539 . S
C1911 H1925 0.958 . S
C1911 H1926 0.961 . S
C1911 H1927 0.960 . S
H1912 C1896 0.931 . S
H1913 C1901 0.929 . S
H1914 C1902 0.960 . S
H1915 C1902 0.962 . S
H1916 C1902 0.960 . S
H1917 C1903 0.961 . S
H1918 C1903 0.961 . S
H1919 C1903 0.961 . S
H1920 C1904 0.931 . S
H1921 C1909 0.930 . S
H1922 C1910 0.956 . S
H1923 C1910 0.961 . S
H1924 C1910 0.961 . S
H1925 C1911 0.958 . S
H1926 C1911 0.961 . S
H1927 C1911 0.960 . S
C1928 C1929 1.391 1_554 S
C1928 C1930 1.394 . S
C1928 H1944 0.931 1_554 S
C1929 C1928 1.391 1_556 S
C1929 C1933 1.376 1_556 S
C1930 C1928 1.394 . S
C1930 C1931 1.369 . S
C1930 C1934 1.531 . S
C1931 C1930 1.369 . S
C1931 C1932 1.410 . S
C1931 C1939 1.503 . S
C1932 C1931 1.410 . S
C1932 C1933 1.392 . S
C1932 C1935 1.511 . S
C1933 C1929 1.376 1_554 S
C1933 C1932 1.392 . S
C1933 H1945 0.929 . S
C1934 C1930 1.531 . S
C1934 H1946 0.960 . S
C1934 H1947 0.962 . S
C1934 H1948 0.960 . S
C1935 C1932 1.511 . S
C1935 H1949 0.961 . S
C1935 H1950 0.961 . S
C1935 H1951 0.961 . S
C1936 C1937 1.370 . S
C1936 C1938 1.363 . S
C1936 H1952 0.931 . S
C1937 C1936 1.370 . S
C1937 C1941 1.408 . S
C1938 C1936 1.363 . S
C1938 C1939 1.370 . S
C1938 C1942 1.524 . S
C1939 C1931 1.503 . S
C1939 C1938 1.370 . S
C1939 C1940 1.403 . S
C1940 C1939 1.403 . S
C1940 C1941 1.404 . S
C1940 C1943 1.539 . S
C1941 C1937 1.408 . S
C1941 C1940 1.404 . S
C1941 H1953 0.930 . S
C1942 C1938 1.524 . S
C1942 H1954 0.956 . S
C1942 H1955 0.961 . S
C1942 H1956 0.961 . S
C1943 C1940 1.539 . S
C1943 H1957 0.958 . S
C1943 H1958 0.961 . S
C1943 H1959 0.960 . S
H1944 C1928 0.931 1_556 S
H1945 C1933 0.929 . S
H1946 C1934 0.960 . S
H1947 C1934 0.962 . S
H1948 C1934 0.960 . S
H1949 C1935 0.961 . S
H1950 C1935 0.961 . S
H1951 C1935 0.961 . S
H1952 C1936 0.931 . S
H1953 C1941 0.930 . S
H1954 C1942 0.956 . S
H1955 C1942 0.961 . S
H1956 C1942 0.961 . S
H1957 C1943 0.958 . S
H1958 C1943 0.961 . S
H1959 C1943 0.960 . S
C1960 C1961 1.391 . S
C1960 C1962 1.394 . S
C1960 H1976 0.931 . S
C1961 C1960 1.391 . S
C1961 C1965 1.376 . S
C1962 C1960 1.394 . S
C1962 C1963 1.369 . S
C1962 C1966 1.531 . S
C1963 C1962 1.369 . S
C1963 C1964 1.410 . S
C1963 C1971 1.503 . S
C1964 C1963 1.410 . S
C1964 C1965 1.392 . S
C1964 C1967 1.511 . S
C1965 C1961 1.376 . S
C1965 C1964 1.392 . S
C1965 H1977 0.929 . S
C1966 C1962 1.531 . S
C1966 H1978 0.960 . S
C1966 H1979 0.962 . S
C1966 H1980 0.960 . S
C1967 C1964 1.511 . S
C1967 H1981 0.961 . S
C1967 H1982 0.961 . S
C1967 H1983 0.961 . S
C1968 C1969 1.370 . S
C1968 C1970 1.363 . S
C1968 H1984 0.931 . S
C1969 C1968 1.370 . S
C1969 C1973 1.408 . S
C1970 C1968 1.363 . S
C1970 C1971 1.370 . S
C1970 C1974 1.524 . S
C1971 C1963 1.503 . S
C1971 C1970 1.370 . S
C1971 C1972 1.403 . S
C1972 C1971 1.403 . S
C1972 C1973 1.404 . S
C1972 C1975 1.539 . S
C1973 C1969 1.408 . S
C1973 C1972 1.404 . S
C1973 H1985 0.930 . S
C1974 C1970 1.524 . S
C1974 H1986 0.956 . S
C1974 H1987 0.961 . S
C1974 H1988 0.961 . S
C1975 C1972 1.539 . S
C1975 H1989 0.958 . S
C1975 H1990 0.961 . S
C1975 H1991 0.960 . S
H1976 C1960 0.931 . S
H1977 C1965 0.929 . S
H1978 C1966 0.960 . S
H1979 C1966 0.962 . S
H1980 C1966 0.960 . S
H1981 C1967 0.961 . S
H1982 C1967 0.961 . S
H1983 C1967 0.961 . S
H1984 C1968 0.931 . S
H1985 C1973 0.930 . S
H1986 C1974 0.956 . S
H1987 C1974 0.961 . S
H1988 C1974 0.961 . S
H1989 C1975 0.958 . S
H1990 C1975 0.961 . S
H1991 C1975 0.960 . S
C1992 C1993 1.391 . S
C1992 C1994 1.394 . S
C1992 H2008 0.931 . S
C1993 C1992 1.391 . S
C1993 C1997 1.376 . S
C1994 C1992 1.394 . S
C1994 C1995 1.369 . S
C1994 C1998 1.531 . S
C1995 C1994 1.369 . S
C1995 C1996 1.410 . S
C1995 C2003 1.503 . S
C1996 C1995 1.410 . S
C1996 C1997 1.392 . S
C1996 C1999 1.511 . S
C1997 C1993 1.376 . S
C1997 C1996 1.392 . S
C1997 H2009 0.929 . S
C1998 C1994 1.531 . S
C1998 H2010 0.960 . S
C1998 H2011 0.962 . S
C1998 H2012 0.960 . S
C1999 C1996 1.511 . S
C1999 H2013 0.961 . S
C1999 H2014 0.961 . S
C1999 H2015 0.961 . S
C2000 C2001 1.370 . S
C2000 C2002 1.363 . S
C2000 H2016 0.931 . S
C2001 C2000 1.370 . S
C2001 C2005 1.408 . S
C2002 C2000 1.363 . S
C2002 C2003 1.370 . S
C2002 C2006 1.524 . S
C2003 C1995 1.503 . S
C2003 C2002 1.370 . S
C2003 C2004 1.403 . S
C2004 C2003 1.403 . S
C2004 C2005 1.404 . S
C2004 C2007 1.539 . S
C2005 C2001 1.408 . S
C2005 C2004 1.404 . S
C2005 H2017 0.930 . S
C2006 C2002 1.524 . S
C2006 H2018 0.956 . S
C2006 H2019 0.961 . S
C2006 H2020 0.961 . S
C2007 C2004 1.539 . S
C2007 H2021 0.958 . S
C2007 H2022 0.961 . S
C2007 H2023 0.960 . S
H2008 C1992 0.931 . S
H2009 C1997 0.929 . S
H2010 C1998 0.960 . S
H2011 C1998 0.962 . S
H2012 C1998 0.960 . S
H2013 C1999 0.961 . S
H2014 C1999 0.961 . S
H2015 C1999 0.961 . S
H2016 C2000 0.931 . S
H2017 C2005 0.930 . S
H2018 C2006 0.956 . S
H2019 C2006 0.961 . S
H2020 C2006 0.961 . S
H2021 C2007 0.958 . S
H2022 C2007 0.961 . S
H2023 C2007 0.960 . S
C2024 C2025 1.391 . S
C2024 C2026 1.394 . S
C2024 H2040 0.931 . S
C2025 C2024 1.391 . S
C2025 C2029 1.376 . S
C2026 C2024 1.394 . S
C2026 C2027 1.369 . S
C2026 C2030 1.531 . S
C2027 C2026 1.369 . S
C2027 C2028 1.410 . S
C2027 C2035 1.503 . S
C2028 C2027 1.410 . S
C2028 C2029 1.392 . S
C2028 C2031 1.511 . S
C2029 C2025 1.376 . S
C2029 C2028 1.392 . S
C2029 H2041 0.929 . S
C2030 C2026 1.531 . S
C2030 H2042 0.960 . S
C2030 H2043 0.962 . S
C2030 H2044 0.960 . S
C2031 C2028 1.511 . S
C2031 H2045 0.961 . S
C2031 H2046 0.961 . S
C2031 H2047 0.961 . S
C2032 C2033 1.370 . S
C2032 C2034 1.363 . S
C2032 H2048 0.931 . S
C2033 C2032 1.370 . S
C2033 C2037 1.408 . S
C2034 C2032 1.363 . S
C2034 C2035 1.370 . S
C2034 C2038 1.524 . S
C2035 C2027 1.503 . S
C2035 C2034 1.370 . S
C2035 C2036 1.403 . S
C2036 C2035 1.403 . S
C2036 C2037 1.404 . S
C2036 C2039 1.539 . S
C2037 C2033 1.408 . S
C2037 C2036 1.404 . S
C2037 H2049 0.930 . S
C2038 C2034 1.524 . S
C2038 H2050 0.956 . S
C2038 H2051 0.961 . S
C2038 H2052 0.961 . S
C2039 C2036 1.539 . S
C2039 H2053 0.958 . S
C2039 H2054 0.961 . S
C2039 H2055 0.960 . S
H2040 C2024 0.931 . S
H2041 C2029 0.929 . S
H2042 C2030 0.960 . S
H2043 C2030 0.962 . S
H2044 C2030 0.960 . S
H2045 C2031 0.961 . S
H2046 C2031 0.961 . S
H2047 C2031 0.961 . S
H2048 C2032 0.931 . S
H2049 C2037 0.930 . S
H2050 C2038 0.956 . S
H2051 C2038 0.961 . S
H2052 C2038 0.961 . S
H2053 C2039 0.958 . S
H2054 C2039 0.961 . S
H2055 C2039 0.960 . S
C2056 C2057 1.391 . S
C2056 C2058 1.394 . S
C2056 H2072 0.931 . S
C2057 C2056 1.391 . S
C2057 C2061 1.376 . S
C2058 C2056 1.394 . S
C2058 C2059 1.369 . S
C2058 C2062 1.531 . S
C2059 C2058 1.369 . S
C2059 C2060 1.410 . S
C2059 C2067 1.503 . S
C2060 C2059 1.410 . S
C2060 C2061 1.392 . S
C2060 C2063 1.511 . S
C2061 C2057 1.376 . S
C2061 C2060 1.392 . S
C2061 H2073 0.929 . S
C2062 C2058 1.531 . S
C2062 H2074 0.960 . S
C2062 H2075 0.962 . S
C2062 H2076 0.960 . S
C2063 C2060 1.511 . S
C2063 H2077 0.961 . S
C2063 H2078 0.961 . S
C2063 H2079 0.961 . S
C2064 C2065 1.370 . S
C2064 C2066 1.363 . S
C2064 H2080 0.931 . S
C2065 C2064 1.370 . S
C2065 C2069 1.408 . S
C2066 C2064 1.363 . S
C2066 C2067 1.370 . S
C2066 C2070 1.524 . S
C2067 C2059 1.503 . S
C2067 C2066 1.370 . S
C2067 C2068 1.403 . S
C2068 C2067 1.403 . S
C2068 C2069 1.404 . S
C2068 C2071 1.539 . S
C2069 C2065 1.408 . S
C2069 C2068 1.404 . S
C2069 H2081 0.930 . S
C2070 C2066 1.524 . S
C2070 H2082 0.956 . S
C2070 H2083 0.961 . S
C2070 H2084 0.961 . S
C2071 C2068 1.539 . S
C2071 H2085 0.958 . S
C2071 H2086 0.961 . S
C2071 H2087 0.960 . S
H2072 C2056 0.931 . S
H2073 C2061 0.929 . S
H2074 C2062 0.960 . S
H2075 C2062 0.962 . S
H2076 C2062 0.960 . S
H2077 C2063 0.961 . S
H2078 C2063 0.961 . S
H2079 C2063 0.961 . S
H2080 C2064 0.931 . S
H2081 C2069 0.930 . S
H2082 C2070 0.956 . S
H2083 C2070 0.961 . S
H2084 C2070 0.961 . S
H2085 C2071 0.958 . S
H2086 C2071 0.961 . S
H2087 C2071 0.960 . S
C2088 C2089 1.391 . S
C2088 C2090 1.394 . S
C2088 H2104 0.931 . S
C2089 C2088 1.391 . S
C2089 C2093 1.376 . S
C2090 C2088 1.394 . S
C2090 C2091 1.369 . S
C2090 C2094 1.531 . S
C2091 C2090 1.369 . S
C2091 C2092 1.410 . S
C2091 C2099 1.503 . S
C2092 C2091 1.410 . S
C2092 C2093 1.392 . S
C2092 C2095 1.511 . S
C2093 C2089 1.376 . S
C2093 C2092 1.392 . S
C2093 H2105 0.929 . S
C2094 C2090 1.531 . S
C2094 H2106 0.960 . S
C2094 H2107 0.962 . S
C2094 H2108 0.960 . S
C2095 C2092 1.511 . S
C2095 H2109 0.961 . S
C2095 H2110 0.961 . S
C2095 H2111 0.961 . S
C2096 C2097 1.370 . S
C2096 C2098 1.363 . S
C2096 H2112 0.931 . S
C2097 C2096 1.370 . S
C2097 C2101 1.408 . S
C2098 C2096 1.363 . S
C2098 C2099 1.370 . S
C2098 C2102 1.524 . S
C2099 C2091 1.503 . S
C2099 C2098 1.370 . S
C2099 C2100 1.403 . S
C2100 C2099 1.403 . S
C2100 C2101 1.404 . S
C2100 C2103 1.539 . S
C2101 C2097 1.408 . S
C2101 C2100 1.404 . S
C2101 H2113 0.930 . S
C2102 C2098 1.524 . S
C2102 H2114 0.956 . S
C2102 H2115 0.961 . S
C2102 H2116 0.961 . S
C2103 C2100 1.539 . S
C2103 H2117 0.958 . S
C2103 H2118 0.961 . S
C2103 H2119 0.960 . S
H2104 C2088 0.931 . S
H2105 C2093 0.929 . S
H2106 C2094 0.960 . S
H2107 C2094 0.962 . S
H2108 C2094 0.960 . S
H2109 C2095 0.961 . S
H2110 C2095 0.961 . S
H2111 C2095 0.961 . S
H2112 C2096 0.931 . S
H2113 C2101 0.930 . S
H2114 C2102 0.956 . S
H2115 C2102 0.961 . S
H2116 C2102 0.961 . S
H2117 C2103 0.958 . S
H2118 C2103 0.961 . S
H2119 C2103 0.960 . S
C2120 C2121 1.391 . S
C2120 C2122 1.394 . S
C2120 H2136 0.931 . S
C2121 C2120 1.391 . S
C2121 C2125 1.376 . S
C2122 C2120 1.394 . S
C2122 C2123 1.369 . S
C2122 C2126 1.531 . S
C2123 C2122 1.369 . S
C2123 C2124 1.410 . S
C2123 C2131 1.503 . S
C2124 C2123 1.410 . S
C2124 C2125 1.392 . S
C2124 C2127 1.511 . S
C2125 C2121 1.376 . S
C2125 C2124 1.392 . S
C2125 H2137 0.929 . S
C2126 C2122 1.531 . S
C2126 H2138 0.960 . S
C2126 H2139 0.962 . S
C2126 H2140 0.960 . S
C2127 C2124 1.511 . S
C2127 H2141 0.961 . S
C2127 H2142 0.961 . S
C2127 H2143 0.961 . S
C2128 C2129 1.370 . S
C2128 C2130 1.363 . S
C2128 H2144 0.931 . S
C2129 C2128 1.370 . S
C2129 C2133 1.408 . S
C2130 C2128 1.363 . S
C2130 C2131 1.370 . S
C2130 C2134 1.524 . S
C2131 C2123 1.503 . S
C2131 C2130 1.370 . S
C2131 C2132 1.403 . S
C2132 C2131 1.403 . S
C2132 C2133 1.404 . S
C2132 C2135 1.539 . S
C2133 C2129 1.408 . S
C2133 C2132 1.404 . S
C2133 H2145 0.930 . S
C2134 C2130 1.524 . S
C2134 H2146 0.956 . S
C2134 H2147 0.961 . S
C2134 H2148 0.961 . S
C2135 C2132 1.539 . S
C2135 H2149 0.958 . S
C2135 H2150 0.961 . S
C2135 H2151 0.960 . S
H2136 C2120 0.931 . S
H2137 C2125 0.929 . S
H2138 C2126 0.960 . S
H2139 C2126 0.962 . S
H2140 C2126 0.960 . S
H2141 C2127 0.961 . S
H2142 C2127 0.961 . S
H2143 C2127 0.961 . S
H2144 C2128 0.931 . S
H2145 C2133 0.930 . S
H2146 C2134 0.956 . S
H2147 C2134 0.961 . S
H2148 C2134 0.961 . S
H2149 C2135 0.958 . S
H2150 C2135 0.961 . S
H2151 C2135 0.960 . S
C2152 C2153 1.391 . S
C2152 C2154 1.394 . S
C2152 H2168 0.931 . S
C2153 C2152 1.391 . S
C2153 C2157 1.376 . S
C2154 C2152 1.394 . S
C2154 C2155 1.369 . S
C2154 C2158 1.531 . S
C2155 C2154 1.369 . S
C2155 C2156 1.410 . S
C2155 C2163 1.503 . S
C2156 C2155 1.410 . S
C2156 C2157 1.392 . S
C2156 C2159 1.511 . S
C2157 C2153 1.376 . S
C2157 C2156 1.392 . S
C2157 H2169 0.929 . S
C2158 C2154 1.531 . S
C2158 H2170 0.960 . S
C2158 H2171 0.962 . S
C2158 H2172 0.960 . S
C2159 C2156 1.511 . S
C2159 H2173 0.961 . S
C2159 H2174 0.961 . S
C2159 H2175 0.961 . S
C2160 C2161 1.370 . S
C2160 C2162 1.363 . S
C2160 H2176 0.931 . S
C2161 C2160 1.370 . S
C2161 C2165 1.408 . S
C2162 C2160 1.363 . S
C2162 C2163 1.370 . S
C2162 C2166 1.524 . S
C2163 C2155 1.503 . S
C2163 C2162 1.370 . S
C2163 C2164 1.403 . S
C2164 C2163 1.403 . S
C2164 C2165 1.404 . S
C2164 C2167 1.539 . S
C2165 C2161 1.408 . S
C2165 C2164 1.404 . S
C2165 H2177 0.930 . S
C2166 C2162 1.524 . S
C2166 H2178 0.956 . S
C2166 H2179 0.961 . S
C2166 H2180 0.961 . S
C2167 C2164 1.539 . S
C2167 H2181 0.958 1_554 S
C2167 H2182 0.961 1_554 S
C2167 H2183 0.960 . S
H2168 C2152 0.931 . S
H2169 C2157 0.929 . S
H2170 C2158 0.960 . S
H2171 C2158 0.962 . S
H2172 C2158 0.960 . S
H2173 C2159 0.961 . S
H2174 C2159 0.961 . S
H2175 C2159 0.961 . S
H2176 C2160 0.931 . S
H2177 C2165 0.930 . S
H2178 C2166 0.956 . S
H2179 C2166 0.961 . S
H2180 C2166 0.961 . S
H2181 C2167 0.958 1_556 S
H2182 C2167 0.961 1_556 S
H2183 C2167 0.960 . S
C2184 C2185 1.391 . S
C2184 C2186 1.394 . S
C2184 H2200 0.931 . S
C2185 C2184 1.391 . S
C2185 C2189 1.376 . S
C2186 C2184 1.394 . S
C2186 C2187 1.369 . S
C2186 C2190 1.531 . S
C2187 C2186 1.369 . S
C2187 C2188 1.410 . S
C2187 C2195 1.503 . S
C2188 C2187 1.410 . S
C2188 C2189 1.392 . S
C2188 C2191 1.511 . S
C2189 C2185 1.376 . S
C2189 C2188 1.392 . S
C2189 H2201 0.929 . S
C2190 C2186 1.531 . S
C2190 H2202 0.960 . S
C2190 H2203 0.962 . S
C2190 H2204 0.960 . S
C2191 C2188 1.511 . S
C2191 H2205 0.961 . S
C2191 H2206 0.961 . S
C2191 H2207 0.961 . S
C2192 C2193 1.370 . S
C2192 C2194 1.363 1_565 S
C2192 H2208 0.931 . S
C2193 C2192 1.370 . S
C2193 C2197 1.408 . S
C2194 C2192 1.363 1_545 S
C2194 C2195 1.370 . S
C2194 C2198 1.524 . S
C2195 C2187 1.503 . S
C2195 C2194 1.370 . S
C2195 C2196 1.403 1_545 S
C2196 C2195 1.403 1_565 S
C2196 C2197 1.404 . S
C2196 C2199 1.539 . S
C2197 C2193 1.408 . S
C2197 C2196 1.404 . S
C2197 H2209 0.930 . S
C2198 C2194 1.524 . S
C2198 H2210 0.956 . S
C2198 H2211 0.961 . S
C2198 H2212 0.961 . S
C2199 C2196 1.539 . S
C2199 H2213 0.958 . S
C2199 H2214 0.961 . S
C2199 H2215 0.918 1_565 S
H2200 C2184 0.931 . S
H2201 C2189 0.929 . S
H2202 C2190 0.960 . S
H2203 C2190 0.962 . S
H2204 C2190 0.960 . S
H2205 C2191 0.961 . S
H2206 C2191 0.961 . S
H2207 C2191 0.961 . S
H2208 C2192 0.931 . S
H2209 C2197 0.930 . S
H2210 C2198 0.956 . S
H2211 C2198 0.961 . S
H2212 C2198 0.961 . S
H2213 C2199 0.958 . S
H2214 C2199 0.961 . S
H2215 C2199 0.918 1_545 S
C689 C520 1.579 1_556 S
C681 C177 1.535 . S
C721 C535 1.721 . S
C713 C209 1.671 . S
C745 C253 1.607 . S
C753 C548 1.647 . S
C785 C562 1.562 . S
C777 C157 1.611 . S
C817 C574 1.648 . S
C809 C343 1.670 . S
C849 C588 1.321 . S
C841 C401 1.343 . S
C873 C369 1.731 . S
C881 C602 1.741 . S
C913 C617 1.472 . S
C905 C317 1.418 . S
C937 C375 1.613 . S
C945 C633 1.664 . S
C977 C646 1.552 . S
C969 C305 1.507 . S
C1001 C349 1.587 . S
C1009 C631 1.579 . S
C1041 C644 1.516 . S
C1033 C413 1.540 . S
C1065 C241 1.787 . S
C1073 C660 1.807 . S
C1097 C151 1.579 . S
C1105 C659 1.542 . S
C1129 C189 1.704 . S
C1137 C658 1.694 . S
C1161 C215 1.513 . S
C1169 C661 1.607 . S
C1193 C113 1.684 . S
C1201 C563 1.679 1_565 S
C1225 C471 1.462 . S
C1233 C561 1.456 . S
C1265 C521 1.555 . S
C1257 C509 1.449 . S
C1297 C532 1.732 . S
C1289 C279 1.695 . S
C1321 C145 1.588 1_545 S
C1329 C577 1.562 . S
C1361 C618 1.898 . S
C1353 C381 1.865 . S
C1393 C575 1.527 . S
C1385 C311 1.409 . S
C1425 C603 1.508 . S
C1417 C407 1.551 . S
C1457 C604 1.570 . S
C1449 C465 1.534 . S
C1481 C497 1.681 . S
C1489 C619 1.719 . S
C1513 C285 1.575 . S
C1521 C576 1.646 . S
C1553 C590 1.552 . S
C1545 C445 1.611 . S
C1577 C119 1.668 . S
C1585 C546 1.647 . S
C1617 C560 1.341 . S
C1609 C17 1.359 . S
C1649 C518 1.739 . S
C1641 C49 1.747 . S
C1681 C533 1.473 . S
C1673 C93 1.405 . S
C1705 C55 1.599 . S
C1713 C647 1.661 . S
C1737 C81 1.441 . S
C1745 C632 1.560 . S
C1769 C125 1.577 . S
C1777 C645 1.557 . S
C1801 C29 1.541 . S
C1809 C630 1.530 . S
C1841 C674 1.803 . S
C1833 C273 1.765 . S
C1873 C673 1.551 . S
C1865 C439 1.566 . S
C1905 C672 1.679 . S
C1897 C477 1.720 . S
C1929 C503 1.580 . S
C1937 C675 1.592 . S
C1961 C337 1.664 . S
C1969 C591 1.676 . S
C2001 C589 1.458 . S
C1993 C183 1.452 . S
C2033 C605 1.538 . S
C2025 C221 1.465 . S
C2065 C616 1.728 . S
C2057 C247 1.708 . S
C2089 C433 1.589 . S
C2097 C549 1.551 . S
C2129 C534 1.896 . S
C2121 C61 1.858 . S
C2153 C87 1.429 . S
C2161 C547 1.510 . S
C2193 C519 1.524 . S
C2185 C23 1.531 . S
