# Generated by pormake.
# Topology ptr, (4,4)-cn, num edge types: 1
# Building blocks:
#     Node 0, Type 0, BuildingBlock: NAHDIM_clean_sbu_0, # of connection points: 4
#     Node 1, Type 0, BuildingBlock: NAHDIM_clean_sbu_0, # of connection points: 4
#     Node 2, Type 0, BuildingBlock: NAHDIM_clean_sbu_0, # of connection points: 4
#     Node 3, Type 0, BuildingBlock: NAHDIM_clean_sbu_0, # of connection points: 4
#     Node 4, Type 0, BuildingBlock: NAHDIM_clean_sbu_0, # of connection points: 4
#     Node 5, Type 0, BuildingBlock: NAHDIM_clean_sbu_0, # of connection points: 4
#     Node 6, Type 0, BuildingBlock: NAHDIM_clean_sbu_0, # of connection points: 4
#     Node 7, Type 0, BuildingBlock: NAHDIM_clean_sbu_0, # of connection points: 4
#     Node 8, Type 0, BuildingBlock: NAHDIM_clean_sbu_0, # of connection points: 4
#     Node 9, Type 0, BuildingBlock: NAHDIM_clean_sbu_0, # of connection points: 4
#     Node 10, Type 0, BuildingBlock: NAHDIM_clean_sbu_0, # of connection points: 4
#     Node 11, Type 0, BuildingBlock: NAHDIM_clean_sbu_0, # of connection points: 4
#     Node 12, Type 0, BuildingBlock: NAHDIM_clean_sbu_0, # of connection points: 4
#     Node 13, Type 0, BuildingBlock: NAHDIM_clean_sbu_0, # of connection points: 4
#     Node 14, Type 0, BuildingBlock: NAHDIM_clean_sbu_0, # of connection points: 4
#     Node 15, Type 0, BuildingBlock: NAHDIM_clean_sbu_0, # of connection points: 4
#     Node 16, Type 0, BuildingBlock: NAHDIM_clean_sbu_0, # of connection points: 4
#     Node 17, Type 0, BuildingBlock: NAHDIM_clean_sbu_0, # of connection points: 4
#     Node 18, Type 1, BuildingBlock: AZAVOO_clean_linker_0, # of connection points: 4
#     Node 19, Type 1, BuildingBlock: AZAVOO_clean_linker_0, # of connection points: 4
#     Node 20, Type 1, BuildingBlock: AZAVOO_clean_linker_0, # of connection points: 4
#     Node 21, Type 1, BuildingBlock: AZAVOO_clean_linker_0, # of connection points: 4
#     Node 22, Type 1, BuildingBlock: AZAVOO_clean_linker_0, # of connection points: 4
#     Node 23, Type 1, BuildingBlock: AZAVOO_clean_linker_0, # of connection points: 4
#     Node 24, Type 1, BuildingBlock: AZAVOO_clean_linker_0, # of connection points: 4
#     Node 25, Type 1, BuildingBlock: AZAVOO_clean_linker_0, # of connection points: 4
#     Node 26, Type 1, BuildingBlock: AZAVOO_clean_linker_0, # of connection points: 4
#     Node 27, Type 1, BuildingBlock: AZAVOO_clean_linker_0, # of connection points: 4
#     Node 28, Type 1, BuildingBlock: AZAVOO_clean_linker_0, # of connection points: 4
#     Node 29, Type 1, BuildingBlock: AZAVOO_clean_linker_0, # of connection points: 4
#     Node 30, Type 1, BuildingBlock: AZAVOO_clean_linker_0, # of connection points: 4
#     Node 31, Type 1, BuildingBlock: AZAVOO_clean_linker_0, # of connection points: 4
#     Node 32, Type 1, BuildingBlock: AZAVOO_clean_linker_0, # of connection points: 4
#     Node 33, Type 1, BuildingBlock: AZAVOO_clean_linker_0, # of connection points: 4
#     Node 34, Type 1, BuildingBlock: AZAVOO_clean_linker_0, # of connection points: 4
#     Node 35, Type 1, BuildingBlock: AZAVOO_clean_linker_0, # of connection points: 4
#     Edge 36, Type (0, 1), BuildingBlock: XIVTED_clean_linker_0, # of connection points: 2
#     Edge 37, Type (0, 1), BuildingBlock: XIVTED_clean_linker_0, # of connection points: 2
#     Edge 38, Type (0, 1), BuildingBlock: XIVTED_clean_linker_0, # of connection points: 2
#     Edge 39, Type (0, 1), BuildingBlock: XIVTED_clean_linker_0, # of connection points: 2
#     Edge 40, Type (0, 1), BuildingBlock: XIVTED_clean_linker_0, # of connection points: 2
#     Edge 41, Type (0, 1), BuildingBlock: XIVTED_clean_linker_0, # of connection points: 2
#     Edge 42, Type (0, 1), BuildingBlock: XIVTED_clean_linker_0, # of connection points: 2
#     Edge 43, Type (0, 1), BuildingBlock: XIVTED_clean_linker_0, # of connection points: 2
#     Edge 44, Type (0, 1), BuildingBlock: XIVTED_clean_linker_0, # of connection points: 2
#     Edge 45, Type (0, 1), BuildingBlock: XIVTED_clean_linker_0, # of connection points: 2
#     Edge 46, Type (0, 1), BuildingBlock: XIVTED_clean_linker_0, # of connection points: 2
#     Edge 47, Type (0, 1), BuildingBlock: XIVTED_clean_linker_0, # of connection points: 2
#     Edge 48, Type (0, 1), BuildingBlock: XIVTED_clean_linker_0, # of connection points: 2
#     Edge 49, Type (0, 1), BuildingBlock: XIVTED_clean_linker_0, # of connection points: 2
#     Edge 50, Type (0, 1), BuildingBlock: XIVTED_clean_linker_0, # of connection points: 2
#     Edge 51, Type (0, 1), BuildingBlock: XIVTED_clean_linker_0, # of connection points: 2
#     Edge 52, Type (0, 1), BuildingBlock: XIVTED_clean_linker_0, # of connection points: 2
#     Edge 53, Type (0, 1), BuildingBlock: XIVTED_clean_linker_0, # of connection points: 2
#     Edge 54, Type (0, 1), BuildingBlock: XIVTED_clean_linker_0, # of connection points: 2
#     Edge 55, Type (0, 1), BuildingBlock: XIVTED_clean_linker_0, # of connection points: 2
#     Edge 56, Type (0, 1), BuildingBlock: XIVTED_clean_linker_0, # of connection points: 2
#     Edge 57, Type (0, 1), BuildingBlock: XIVTED_clean_linker_0, # of connection points: 2
#     Edge 58, Type (0, 1), BuildingBlock: XIVTED_clean_linker_0, # of connection points: 2
#     Edge 59, Type (0, 1), BuildingBlock: XIVTED_clean_linker_0, # of connection points: 2
#     Edge 60, Type (0, 1), BuildingBlock: XIVTED_clean_linker_0, # of connection points: 2
#     Edge 61, Type (0, 1), BuildingBlock: XIVTED_clean_linker_0, # of connection points: 2
#     Edge 62, Type (0, 1), BuildingBlock: XIVTED_clean_linker_0, # of connection points: 2
#     Edge 63, Type (0, 1), BuildingBlock: XIVTED_clean_linker_0, # of connection points: 2
#     Edge 64, Type (0, 1), BuildingBlock: XIVTED_clean_linker_0, # of connection points: 2
#     Edge 65, Type (0, 1), BuildingBlock: XIVTED_clean_linker_0, # of connection points: 2
#     Edge 66, Type (0, 1), BuildingBlock: XIVTED_clean_linker_0, # of connection points: 2
#     Edge 67, Type (0, 1), BuildingBlock: XIVTED_clean_linker_0, # of connection points: 2
#     Edge 68, Type (0, 1), BuildingBlock: XIVTED_clean_linker_0, # of connection points: 2
#     Edge 69, Type (0, 1), BuildingBlock: XIVTED_clean_linker_0, # of connection points: 2
#     Edge 70, Type (0, 1), BuildingBlock: XIVTED_clean_linker_0, # of connection points: 2
#     Edge 71, Type (0, 1), BuildingBlock: XIVTED_clean_linker_0, # of connection points: 2
#     Edge 72, Type (0, 1), BuildingBlock: XIVTED_clean_linker_0, # of connection points: 2
#     Edge 73, Type (0, 1), BuildingBlock: XIVTED_clean_linker_0, # of connection points: 2
#     Edge 74, Type (0, 1), BuildingBlock: XIVTED_clean_linker_0, # of connection points: 2
#     Edge 75, Type (0, 1), BuildingBlock: XIVTED_clean_linker_0, # of connection points: 2
#     Edge 76, Type (0, 1), BuildingBlock: XIVTED_clean_linker_0, # of connection points: 2
#     Edge 77, Type (0, 1), BuildingBlock: XIVTED_clean_linker_0, # of connection points: 2
#     Edge 78, Type (0, 1), BuildingBlock: XIVTED_clean_linker_0, # of connection points: 2
#     Edge 79, Type (0, 1), BuildingBlock: XIVTED_clean_linker_0, # of connection points: 2
#     Edge 80, Type (0, 1), BuildingBlock: XIVTED_clean_linker_0, # of connection points: 2
#     Edge 81, Type (0, 1), BuildingBlock: XIVTED_clean_linker_0, # of connection points: 2
#     Edge 82, Type (0, 1), BuildingBlock: XIVTED_clean_linker_0, # of connection points: 2
#     Edge 83, Type (0, 1), BuildingBlock: XIVTED_clean_linker_0, # of connection points: 2
#     Edge 84, Type (0, 1), BuildingBlock: XIVTED_clean_linker_0, # of connection points: 2
#     Edge 85, Type (0, 1), BuildingBlock: XIVTED_clean_linker_0, # of connection points: 2
#     Edge 86, Type (0, 1), BuildingBlock: XIVTED_clean_linker_0, # of connection points: 2
#     Edge 87, Type (0, 1), BuildingBlock: XIVTED_clean_linker_0, # of connection points: 2
#     Edge 88, Type (0, 1), BuildingBlock: XIVTED_clean_linker_0, # of connection points: 2
#     Edge 89, Type (0, 1), BuildingBlock: XIVTED_clean_linker_0, # of connection points: 2
#     Edge 90, Type (0, 1), BuildingBlock: XIVTED_clean_linker_0, # of connection points: 2
#     Edge 91, Type (0, 1), BuildingBlock: XIVTED_clean_linker_0, # of connection points: 2
#     Edge 92, Type (0, 1), BuildingBlock: XIVTED_clean_linker_0, # of connection points: 2
#     Edge 93, Type (0, 1), BuildingBlock: XIVTED_clean_linker_0, # of connection points: 2
#     Edge 94, Type (0, 1), BuildingBlock: XIVTED_clean_linker_0, # of connection points: 2
#     Edge 95, Type (0, 1), BuildingBlock: XIVTED_clean_linker_0, # of connection points: 2
#     Edge 96, Type (0, 1), BuildingBlock: XIVTED_clean_linker_0, # of connection points: 2
#     Edge 97, Type (0, 1), BuildingBlock: XIVTED_clean_linker_0, # of connection points: 2
#     Edge 98, Type (0, 1), BuildingBlock: XIVTED_clean_linker_0, # of connection points: 2
#     Edge 99, Type (0, 1), BuildingBlock: XIVTED_clean_linker_0, # of connection points: 2
#     Edge 100, Type (0, 1), BuildingBlock: XIVTED_clean_linker_0, # of connection points: 2
#     Edge 101, Type (0, 1), BuildingBlock: XIVTED_clean_linker_0, # of connection points: 2
#     Edge 102, Type (0, 1), BuildingBlock: XIVTED_clean_linker_0, # of connection points: 2
#     Edge 103, Type (0, 1), BuildingBlock: XIVTED_clean_linker_0, # of connection points: 2
#     Edge 104, Type (0, 1), BuildingBlock: XIVTED_clean_linker_0, # of connection points: 2
#     Edge 105, Type (0, 1), BuildingBlock: XIVTED_clean_linker_0, # of connection points: 2
#     Edge 106, Type (0, 1), BuildingBlock: XIVTED_clean_linker_0, # of connection points: 2
#     Edge 107, Type (0, 1), BuildingBlock: XIVTED_clean_linker_0, # of connection points: 2
# Relax obj value: 0.100
# Max RMSD: 0.291
# Mean RMSD: 0.174
data_MOF--net-ptr--node1-NAHDIM_clean_sbu_0--node2-AZAVOO_clean_linker_0--edge1-XIVTED_clean_linker_0
_symmetry_space_group_name_H-M    P1
_symmetry_Int_Tables_number       1
_symmetry_cell_setting            triclinic
loop_
_symmetry_equiv_pos_as_xyz
'x, y, z'
_cell_length_a     83.415764
_cell_length_b     80.709137
_cell_length_c     68.202389
_cell_angle_alpha  94.331678
_cell_angle_beta   91.705939
_cell_angle_gamma 122.08824
loop_
_atom_site_label
_atom_site_type_symbol
_atom_site_fract_x
_atom_site_fract_y
_atom_site_fract_z
_atom_type_partial_charge
C0 C 0.03035 0.3437 0.02318 0.0
O1 O 0.01755 0.33109 0.00918 0.0
O2 O 0.99068 0.34129 0.00279 0.0
Zn3 Zn 0.01326 0.36621 0.0162 0.0
O4 O 0.00544 0.37686 0.03888 0.0
C5 C 0.02402 0.3808 0.97865 0.0
O6 O 0.01726 0.36216 0.97308 0.0
O7 O 0.03175 0.36002 0.02773 0.0
C8 C 0.99699 0.38602 0.03737 0.0
O9 O 0.99253 0.38878 0.0198 0.0
C10 C 0.97681 0.32951 0.01208 0.0
O11 O 0.97665 0.33413 0.03093 0.0
O12 O 0.02456 0.38622 0.99676 0.0
C13 C 0.67043 0.64448 0.055 0.0
O14 O 0.66185 0.65403 0.0529 0.0
O15 O 0.63614 0.64191 0.08297 0.0
Zn16 Zn 0.63476 0.61881 0.06769 0.0
O17 O 0.61929 0.61129 0.04175 0.0
C18 C 0.62992 0.60016 0.10245 0.0
O19 O 0.64355 0.61818 0.10911 0.0
O20 O 0.66145 0.62776 0.06154 0.0
C21 C 0.60131 0.60229 0.03923 0.0
O22 O 0.5912 0.59693 0.05457 0.0
C23 C 0.62991 0.65185 0.07621 0.0
O24 O 0.62077 0.64629 0.0586 0.0
O25 O 0.62393 0.59637 0.08434 0.0
C26 C 0.3731 0.02886 0.99894 0.0
O27 O 0.37286 0.01605 0.98565 0.0
O28 O 0.36283 0.98785 0.03044 0.0
Zn29 Zn 0.38687 0.01104 0.02252 0.0
O30 O 0.39802 0.00502 -0.00074 0.0
C31 C 0.40818 0.00686 0.05089 0.0
O32 O 0.39948 0.98999 0.03966 0.0
O33 O 0.38005 0.03072 0.0164 0.0
C34 C 0.39142 0.98874 0.98868 0.0
O35 O 0.37534 0.9732 0.99253 0.0
C36 C 0.34662 0.97841 0.02085 0.0
O37 O 0.34491 0.98187 0.00264 0.0
O38 O 0.40565 0.02032 0.04625 0.0
C39 C 0.98272 0.65808 0.03065 0.0
O40 O 0.00118 0.67055 0.03178 0.0
O41 O 0.01723 0.66385 0.06331 0.0
Zn42 Zn 0.9959 0.63772 0.05032 0.0
O43 O 0.00527 0.6274 0.02867 0.0
C44 C -0.00127 0.61467 0.07642 0.0
O45 O 0.01527 0.6235 0.0689 0.0
O46 O 0.97615 0.64185 0.03801 0.0
C47 C 0.99569 0.60896 0.02358 0.0
O48 O 0.98013 0.59775 0.03218 0.0
C49 C 0.01604 0.6698 0.08067 0.0
O50 O 0.00134 0.65825 0.09026 0.0
O51 O 0.98646 0.61849 0.07084 0.0
C52 C 0.34197 0.37238 0.02883 0.0
O53 O 0.35334 0.36656 0.03404 0.0
O54 O 0.35533 0.35548 0.9858 0.0
Zn55 Zn 0.36628 0.38285 0.99899 0.0
O56 O 0.38777 0.38964 0.01892 0.0
C57 C 0.38573 0.39997 0.96623 0.0
O58 O 0.38831 0.38538 0.96736 0.0
O59 O 0.34495 0.38133 0.01348 0.0
C60 C 0.40256 0.40675 0.02277 0.0
O61 O 0.40469 0.42102 0.01284 0.0
C62 C 0.36431 0.34678 0.98478 0.0
O63 O 0.38202 0.35596 0.99224 0.0
O64 O 0.37589 0.40236 0.97868 0.0
C65 C 0.63419 0.983 0.06835 0.0
O66 O 0.64314 0.00173 0.07502 0.0
O67 O 0.63855 0.01774 0.04252 0.0
Zn68 Zn 0.6138 0.99623 0.05061 0.0
O69 O 0.60673 0.00507 0.07521 0.0
C70 C 0.59598 0.98006 0.01177 0.0
O71 O 0.61056 0.97806 0.01045 0.0
O72 O 0.61907 0.97558 0.057 0.0
C73 C 0.60018 0.01613 0.07613 0.0
O74 O 0.59775 0.02273 0.05999 0.0
C75 C 0.64165 0.03023 0.03058 0.0
O76 O 0.62743 0.03093 0.02286 0.0
O77 O 0.59384 0.98699 0.02813 0.0
C78 C 0.68261 0.68091 0.37323 0.0
O79 O 0.66415 0.66845 0.37086 0.0
O80 O 0.6519 0.67666 0.33526 0.0
Zn81 Zn 0.67218 0.70225 0.3504 0.0
O82 O 0.66045 0.71213 0.36966 0.0
C83 C 0.68651 0.71709 0.31333 0.0
O84 O 0.6787 0.69834 0.30732 0.0
O85 O 0.68987 0.69712 0.36572 0.0
C86 C 0.66489 0.7299 0.37143 0.0
O87 O 0.67744 0.74233 0.36031 0.0
C88 C 0.63507 0.66673 0.34038 0.0
O89 O 0.63031 0.67362 0.35567 0.0
O90 O 0.68601 0.72221 0.33128 0.0
C91 C 0.33121 0.95509 0.40196 0.0
O92 O 0.33531 0.96558 0.41914 0.0
O93 O 0.30779 0.97843 0.41742 0.0
Zn94 Zn 0.29474 0.95068 0.40464 0.0
O95 O 0.27749 0.94764 0.38151 0.0
C96 C 0.26799 0.93272 0.43307 0.0
O97 O 0.26405 0.94581 0.42862 0.0
O98 O 0.31451 0.94664 0.39365 0.0
C99 C 0.26074 0.93316 0.3764 0.0
O100 O 0.2528 0.91839 0.3872 0.0
C101 C 0.31586 0.99207 0.40626 0.0
O102 O 0.31505 0.98738 0.38723 0.0
O103 O 0.28078 0.93179 0.42437 0.0
C104 C 0.05633 0.36455 0.33377 0.0
O105 O 0.05487 0.35069 0.32102 0.0
O106 O 0.04222 0.32459 0.36986 0.0
Zn107 Zn 0.06672 0.34514 0.35986 0.0
O108 O 0.07459 0.33486 0.33665 0.0
C109 C 0.08684 0.3664 0.39715 0.0
O110 O 0.0732 0.36996 0.39768 0.0
O111 O 0.06222 0.36589 0.35158 0.0
C112 C 0.06667 0.31724 0.32871 0.0
O113 O 0.05183 0.30308 0.33622 0.0
C114 C 0.02653 0.31555 0.35927 0.0
O115 O 0.02635 0.31822 0.34053 0.0
O116 O 0.08721 0.35633 0.38212 0.0
C117 C 0.64334 0.97363 0.35413 0.0
O118 O 0.66161 0.98496 0.35219 0.0
O119 O 0.67524 0.98506 0.39658 0.0
Zn120 Zn 0.65771 0.95886 0.38107 0.0
O121 O 0.67245 0.95305 0.36185 0.0
C122 C 0.64149 0.93987 0.41627 0.0
O123 O 0.64329 0.95664 0.42242 0.0
O124 O 0.63771 0.96052 0.36596 0.0
C125 C 0.67775 0.9413 0.36511 0.0
O126 O 0.67368 0.93279 0.38149 0.0
C127 C 0.69148 0.98974 0.40382 0.0
O128 O 0.69663 0.97695 0.40154 0.0
O129 O 0.64621 0.93763 0.3992 0.0
C130 C -0.00089 0.70819 0.34029 0.0
O131 O 0.99806 0.7004 0.32231 0.0
O132 O 0.03284 0.69845 0.32367 0.0
Zn133 Zn 0.0393 0.72355 0.33931 0.0
O134 O 0.05717 0.72871 0.36277 0.0
C135 C 0.04498 0.74484 0.30514 0.0
O136 O 0.02909 0.72875 0.29783 0.0
O137 O 0.0153 0.71947 0.34969 0.0
C138 C 0.07164 0.74565 0.36842 0.0
O139 O 0.07554 0.76046 0.3584 0.0
C140 C 0.0243 0.68288 0.33224 0.0
O141 O 0.0207 0.68413 0.35074 0.0
O142 O 0.05153 0.74591 0.32255 0.0
C143 C 0.30156 0.31925 0.40138 0.0
O144 O 0.31066 0.3382 0.40714 0.0
O145 O 0.30571 0.35183 0.37167 0.0
Zn146 Zn 0.28122 0.33172 0.38205 0.0
O147 O 0.27585 0.34273 0.40666 0.0
C148 C 0.26 0.33267 0.34943 0.0
O149 O 0.27352 0.35131 0.35307 0.0
O150 O 0.28645 0.31148 0.38996 0.0
C151 C 0.26875 0.3533 0.40777 0.0
O152 O 0.26421 0.35821 0.39155 0.0
C153 C 0.31368 0.3703 0.37159 0.0
O154 O 0.3055 0.37928 0.3788 0.0
O155 O 0.25977 0.32049 0.36039 0.0
C156 C 0.36708 0.0215 0.69433 0.0
O157 O 0.35623 0.00797 0.67981 0.0
O158 O 0.32429 0.01139 0.67172 0.0
Zn159 Zn 0.34469 0.03805 0.6847 0.0
O160 O 0.33357 0.04627 0.70604 0.0
C161 C 0.35432 0.05292 0.64685 0.0
O162 O 0.34723 0.0343 0.64077 0.0
O163 O 0.36522 0.036 0.69827 0.0
C164 C 0.32457 0.05481 0.70406 0.0
O165 O 0.32208 0.05931 0.68659 0.0
C166 C 0.31319 0.99868 0.68265 0.0
O167 O 0.31522 0.00352 0.7018 0.0
O168 O 0.35502 0.058 0.6651 0.0
C169 C 0.0048 0.28857 0.72643 0.0
O170 O 0.00567 0.29748 0.74373 0.0
O171 O 0.97264 0.30128 0.73911 0.0
Zn172 Zn 0.96509 0.27492 0.72568 0.0
O173 O 0.94825 0.26935 0.70111 0.0
C174 C 0.9395 0.2555 0.75374 0.0
O175 O 0.93576 0.26891 0.75004 0.0
O176 O 0.98874 0.27712 0.71689 0.0
C177 C 0.93064 0.2566 0.69732 0.0
O178 O 0.92106 0.24469 0.71047 0.0
C179 C 0.97639 0.31515 0.72874 0.0
O180 O 0.97494 0.31182 0.70942 0.0
O181 O 0.95211 0.25465 0.74454 0.0
C182 C 0.71031 0.68898 0.66489 0.0
O183 O 0.70419 0.6715 0.65573 0.0
O184 O 0.70298 0.65526 0.70064 0.0
Zn185 Zn 0.72681 0.6748 0.68904 0.0
O186 O 0.73299 0.66307 0.66563 0.0
C187 C 0.74981 0.67332 0.71828 0.0
O188 O 0.73913 0.65486 0.71067 0.0
O189 O 0.72179 0.69494 0.68021 0.0
C190 C 0.74836 0.67504 0.6584 0.0
O191 O 0.7589 0.69312 0.66705 0.0
C192 C 0.6883 0.63991 0.69208 0.0
O193 O 0.68817 0.63439 0.67342 0.0
O194 O 0.74782 0.68611 0.71076 0.0
C195 C 0.30927 0.30357 0.68383 0.0
O196 O 0.32352 0.30486 0.67479 0.0
O197 O 0.34693 0.32521 0.73024 0.0
Zn198 Zn 0.32808 0.29825 0.71649 0.0
O199 O 0.34104 0.28964 0.69752 0.0
C200 C 0.32988 0.28012 0.7493 0.0
O201 O 0.34792 0.29326 0.7479 0.0
O202 O 0.30768 0.29986 0.70173 0.0
C203 C 0.3355 0.27156 0.6945 0.0
O204 O 0.3214 0.25872 0.70396 0.0
C205 C 0.35451 0.34037 0.72098 0.0
O206 O 0.35045 0.33835 0.70187 0.0
O207 O 0.31757 0.2793 0.73714 0.0
C208 C 0.66602 0.04009 0.66486 0.0
O209 O 0.66453 0.02757 0.65034 0.0
O210 O 0.69908 0.02774 0.65345 0.0
Zn211 Zn 0.70617 0.05427 0.66606 0.0
O212 O 0.72169 0.06053 0.69163 0.0
C213 C 0.7149 0.07379 0.63067 0.0
O214 O 0.69793 0.05882 0.62413 0.0
O215 O 0.68238 0.05332 0.6728 0.0
C216 C 0.73523 0.0578 0.69434 0.0
O217 O 0.74015 0.05059 0.67947 0.0
C218 C 0.69086 0.01315 0.66346 0.0
O219 O 0.6879 0.01605 0.68187 0.0
O220 O 0.72119 0.07499 0.64825 0.0
C221 C 0.94867 0.64015 0.73412 0.0
O222 O 0.95909 0.65901 0.74032 0.0
O223 O 0.95939 0.67388 0.70308 0.0
Zn224 Zn 0.93381 0.65689 0.71313 0.0
O225 O 0.93048 0.67026 0.73736 0.0
C226 C 0.91693 0.66251 0.68023 0.0
O227 O 0.93208 0.6802 0.68484 0.0
O228 O 0.93461 0.63407 0.72155 0.0
C229 C 0.92302 0.68048 0.73824 0.0
O230 O 0.91661 0.68344 0.7219 0.0
C231 C 0.97169 0.69188 0.70846 0.0
O232 O 0.96782 0.70183 0.7215 0.0
O233 O 0.91379 0.64901 0.69092 0.0
H234 H 0.16254 0.32946 0.0214 0.0
H235 H 0.24979 0.27302 0.17983 0.0
H236 H 0.14954 0.32976 0.12835 0.0
H237 H 0.12781 0.33682 0.11198 0.0
H238 H 0.08341 0.27517 0.10767 0.0
H239 H 0.10561 0.2682 0.12395 0.0
H240 H 0.17879 0.33042 0.10565 0.0
H241 H 0.17634 0.33578 0.07115 0.0
H242 H 0.13017 0.27508 0.05828 0.0
H243 H 0.13294 0.26987 0.09279 0.0
H244 H 0.20695 0.33026 0.13851 0.0
H245 H 0.23522 0.3429 0.12034 0.0
H246 H 0.20565 0.29114 0.07806 0.0
H247 H 0.17729 0.27821 0.09677 0.0
H248 H 0.20356 0.31963 0.17669 0.0
H249 H 0.23033 0.31818 0.18988 0.0
H250 H 0.20865 0.26283 0.15404 0.0
H251 H 0.18181 0.26434 0.14116 0.0
H252 H 0.16739 0.31975 0.19077 0.0
H253 H 0.17842 0.32393 0.22519 0.0
H254 H 0.17395 0.26791 0.21725 0.0
H255 H 0.16126 0.26308 0.18299 0.0
H256 H 0.13947 0.32136 0.16597 0.0
H257 H 0.1219 0.32338 0.19292 0.0
H258 H 0.10308 0.26375 0.20334 0.0
H259 H 0.11993 0.2615 0.1755 0.0
O260 O 0.16332 0.327 0.03496 0.0
O261 O 0.13954 0.29572 0.02916 0.0
O262 O 0.24986 0.30243 0.19304 0.0
O263 O 0.23934 0.27397 0.17486 0.0
C264 C 0.14338 0.29446 0.13495 0.0
C265 C 0.15749 0.29642 0.12262 0.0
C266 C 0.17321 0.2962 0.13047 0.0
C267 C 0.17417 0.29262 0.15028 0.0
C268 C 0.16005 0.29058 0.16267 0.0
C269 C 0.14458 0.29149 0.15497 0.0
C270 C 0.1291 0.29849 0.12733 0.0
C271 C 0.13503 0.31782 0.12414 0.0
C272 C 0.12256 0.32183 0.11487 0.0
C273 C 0.10386 0.30655 0.10855 0.0
C274 C 0.09777 0.28721 0.11225 0.0
C275 C 0.11033 0.28321 0.12166 0.0
C276 C 0.15619 0.2997 0.10164 0.0
C277 C 0.16828 0.31826 0.09531 0.0
C278 C 0.16679 0.3213 0.07561 0.0
C279 C 0.15309 0.30585 0.06194 0.0
C280 C 0.14091 0.28728 0.06841 0.0
C281 C 0.14246 0.28426 0.0881 0.0
C282 C 0.19019 0.30317 0.11916 0.0
C283 C 0.20664 0.32147 0.12551 0.0
C284 C 0.22273 0.3287 0.1151 0.0
C285 C 0.22261 0.31792 0.0979 0.0
C286 C 0.20603 0.29972 0.09128 0.0
C287 C 0.18993 0.29231 0.10194 0.0
C288 C 0.19061 0.29195 0.15817 0.0
C289 C 0.20454 0.30714 0.17182 0.0
C290 C 0.21985 0.30631 0.17927 0.0
C291 C 0.22159 0.29034 0.17306 0.0
C292 C 0.20771 0.27529 0.15918 0.0
C293 C 0.19238 0.27612 0.15179 0.0
C294 C 0.16344 0.29108 0.18432 0.0
C295 C 0.16798 0.30796 0.19663 0.0
C296 C 0.17466 0.31049 0.21625 0.0
C297 C 0.17757 0.2965 0.22387 0.0
C298 C 0.17185 0.27896 0.21189 0.0
C299 C 0.16469 0.27622 0.19228 0.0
C300 C 0.13084 0.29121 0.16856 0.0
C301 C 0.13087 0.30842 0.17344 0.0
C302 C 0.12112 0.30967 0.18915 0.0
C303 C 0.11137 0.29385 0.20052 0.0
C304 C 0.11035 0.27617 0.19483 0.0
C305 C 0.12 0.27487 0.17895 0.0
C306 C 0.15151 0.30913 0.04103 0.0
C307 C 0.23781 0.28935 0.18096 0.0
H308 H 0.66509 0.83 0.04241 0.0
H309 H 0.73947 0.98871 0.2145 0.0
H310 H 0.66784 0.82129 0.14868 0.0
H311 H 0.65496 0.78751 0.13464 0.0
H312 H 0.71092 0.79673 0.14148 0.0
H313 H 0.72378 0.83082 0.15562 0.0
H314 H 0.67005 0.85043 0.12743 0.0
H315 H 0.66266 0.84095 0.09186 0.0
H316 H 0.71845 0.85045 0.08684 0.0
H317 H 0.72574 0.86012 0.12242 0.0
H318 H 0.67419 0.88043 0.15971 0.0
H319 H 0.66333 0.89698 0.1397 0.0
H320 H 0.71406 0.92017 0.10844 0.0
H321 H 0.72492 0.90347 0.12876 0.0
H322 H 0.68834 0.89054 0.20223 0.0
H323 H 0.69303 0.92147 0.21725 0.0
H324 H 0.74437 0.95381 0.18752 0.0
H325 H 0.73965 0.92275 0.17283 0.0
H326 H 0.68814 0.85436 0.21718 0.0
H327 H 0.69008 0.86643 0.25155 0.0
H328 H 0.74612 0.91666 0.24582 0.0
H329 H 0.74436 0.90408 0.21139 0.0
H330 H 0.67939 0.81959 0.19029 0.0
H331 H 0.67992 0.79675 0.21144 0.0
H332 H 0.74045 0.83648 0.22431 0.0
H333 H 0.7399 0.85916 0.20261 0.0
O334 O 0.66834 0.83389 0.05644 0.0
O335 O 0.69716 0.83893 0.05467 0.0
O336 O 0.71087 0.95894 0.22386 0.0
O337 O 0.73725 0.97627 0.20874 0.0
C338 C 0.70405 0.84902 0.16124 0.0
C339 C 0.70311 0.86191 0.14906 0.0
C340 C 0.706 0.87987 0.15751 0.0
C341 C 0.71119 0.88563 0.1779 0.0
C342 C 0.713 0.87313 0.19003 0.0
C343 C 0.70923 0.85468 0.18171 0.0
C344 C 0.69677 0.82854 0.1529 0.0
C345 C 0.67736 0.81608 0.14698 0.0
C346 C 0.67004 0.79681 0.13895 0.0
C347 C 0.68197 0.78955 0.13679 0.0
C348 C 0.7014 0.80195 0.14305 0.0
C349 C 0.70877 0.82137 0.15103 0.0
C350 C 0.69853 0.85622 0.12744 0.0
C351 C 0.68073 0.85066 0.11859 0.0
C352 C 0.67651 0.84515 0.09828 0.0
C353 C 0.68999 0.84499 0.08648 0.0
C354 C 0.70777 0.85045 0.09547 0.0
C355 C 0.71197 0.85599 0.11578 0.0
C356 C 0.70037 0.8909 0.14573 0.0
C357 C 0.68301 0.88919 0.14862 0.0
C358 C 0.67674 0.89844 0.13704 0.0
C359 C 0.68777 0.90967 0.12239 0.0
C360 C 0.70532 0.9116 0.11966 0.0
C361 C 0.71154 0.90215 0.1312 0.0
C362 C 0.71377 0.90443 0.18662 0.0
C363 C 0.70064 0.90432 0.19907 0.0
C364 C 0.70332 0.92201 0.20758 0.0
C365 C 0.71912 0.94012 0.20363 0.0
C366 C 0.73209 0.94014 0.19092 0.0
C367 C 0.72943 0.92243 0.18248 0.0
C368 C 0.71612 0.8783 0.21176 0.0
C369 C 0.70119 0.86751 0.22353 0.0
C370 C 0.70229 0.87448 0.24317 0.0
C371 C 0.71822 0.89253 0.25129 0.0
C372 C 0.73366 0.90274 0.23986 0.0
C373 C 0.73269 0.89556 0.22027 0.0
C374 C 0.70966 0.84087 0.19461 0.0
C375 C 0.69283 0.82322 0.19737 0.0
C376 C 0.69315 0.81021 0.20948 0.0
C377 C 0.71026 0.81478 0.21936 0.0
C378 C 0.72708 0.83262 0.21686 0.0
C379 C 0.72679 0.84553 0.20448 0.0
C380 C 0.68546 0.8391 0.06491 0.0
C381 C 0.72209 0.95895 0.21272 0.0
H382 H 0.14152 0.84509 0.02942 0.0
H383 H 0.29983 0.98506 0.18268 0.0
H384 H 0.13031 0.85651 0.13042 0.0
H385 H 0.10267 0.82353 0.11953 0.0
H386 H 0.12735 0.79797 0.15304 0.0
H387 H 0.15505 0.83078 0.16339 0.0
H388 H 0.1656 0.88988 0.10752 0.0
H389 H 0.15517 0.87567 0.07312 0.0
H390 H 0.15889 0.82617 0.08624 0.0
H391 H 0.16954 0.84066 0.12052 0.0
H392 H 0.20749 0.92841 0.12859 0.0
H393 H 0.23212 0.94287 0.10527 0.0
H394 H 0.23158 0.88899 0.09759 0.0
H395 H 0.20773 0.87496 0.1215 0.0
H396 H 0.20516 0.9366 0.17634 0.0
H397 H 0.236 0.96715 0.18481 0.0
H398 H 0.26414 0.93679 0.16777 0.0
H399 H 0.23323 0.9063 0.15961 0.0
H400 H 0.17161 0.90523 0.20494 0.0
H401 H 0.18241 0.91548 0.2402 0.0
H402 H 0.22745 0.90492 0.23165 0.0
H403 H 0.21618 0.89391 0.19686 0.0
H404 H 0.13357 0.86822 0.17809 0.0
H405 H 0.1119 0.84946 0.2026 0.0
H406 H 0.15316 0.83774 0.22613 0.0
H407 H 0.17461 0.8563 0.20149 0.0
O408 O 0.14576 0.85049 0.04307 0.0
O409 O 0.14784 0.82533 0.0506 0.0
O410 O 0.2723 0.98805 0.18824 0.0
O411 O 0.28745 0.97316 0.17951 0.0
C412 C 0.16241 0.86561 0.15252 0.0
C413 C 0.17435 0.87492 0.13745 0.0
C414 C 0.19233 0.89235 0.14226 0.0
C415 C 0.19815 0.90079 0.16211 0.0
C416 C 0.18618 0.89148 0.17722 0.0
C417 C 0.16824 0.87395 0.17238 0.0
C418 C 0.14466 0.84602 0.1477 0.0
C419 C 0.12962 0.84378 0.13554 0.0
C420 C 0.11392 0.825 0.12933 0.0
C421 C 0.11293 0.80827 0.13548 0.0
C422 C 0.12766 0.81064 0.1483 0.0
C423 C 0.14346 0.82935 0.15422 0.0
C424 C 0.16819 0.86624 0.11653 0.0
C425 C 0.16419 0.87599 0.10291 0.0
C426 C 0.15821 0.86783 0.08328 0.0
C427 C 0.15614 0.84975 0.07694 0.0
C428 C 0.16029 0.84008 0.09064 0.0
C429 C 0.16631 0.84829 0.11024 0.0
C430 C 0.2058 0.90063 0.12674 0.0
C431 C 0.21262 0.91971 0.12178 0.0
C432 C 0.2266 0.92791 0.10849 0.0
C433 C 0.23358 0.91695 0.09963 0.0
C434 C 0.22621 0.89761 0.10404 0.0
C435 C 0.2126 0.8896 0.11765 0.0
C436 C 0.21696 0.91928 0.16723 0.0
C437 C 0.21801 0.93658 0.17448 0.0
C438 C 0.23564 0.95401 0.17928 0.0
C439 C 0.25255 0.95443 0.17691 0.0
C440 C 0.25141 0.93701 0.16972 0.0
C441 C 0.23377 0.91958 0.16498 0.0
C442 C 0.19323 0.899 0.19827 0.0
C443 C 0.18382 0.90517 0.21071 0.0
C444 C 0.18996 0.91098 0.23077 0.0
C445 C 0.20582 0.9111 0.2385 0.0
C446 C 0.21535 0.90522 0.22596 0.0
C447 C 0.20898 0.89902 0.20609 0.0
C448 C 0.1557 0.86373 0.1881 0.0
C449 C 0.13795 0.8617 0.18864 0.0
C450 C 0.12559 0.85095 0.20257 0.0
C451 C 0.13086 0.84218 0.21628 0.0
C452 C 0.14882 0.84458 0.21594 0.0
C453 C 0.16108 0.85516 0.20189 0.0
C454 C 0.14967 0.84106 0.0561 0.0
C455 C 0.27131 0.97292 0.18192 0.0
H456 H 0.27116 0.16227 0.02727 0.0
H457 H 0.29811 0.02589 0.889 0.0
H458 H 0.26667 0.16257 0.91877 0.0
H459 H 0.27682 0.19704 0.92741 0.0
H460 H 0.3347 0.21482 0.91792 0.0
H461 H 0.32419 0.18072 0.90842 0.0
H462 H 0.2585 0.12328 0.9474 0.0
H463 H 0.25824 0.13541 0.98131 0.0
H464 H 0.31763 0.18092 0.98129 0.0
H465 H 0.31775 0.16849 0.94751 0.0
H466 H 0.26357 0.08327 0.93275 0.0
H467 H 0.27355 0.06598 0.9531 0.0
H468 H 0.32915 0.11909 0.96492 0.0
H469 H 0.31931 0.13597 0.94433 0.0
H470 H 0.25659 0.07715 0.88396 0.0
H471 H 0.25508 0.04606 0.87757 0.0
H472 H 0.31325 0.07458 0.90209 0.0
H473 H 0.31466 0.10561 0.90805 0.0
H474 H 0.26155 0.10891 0.85261 0.0
H475 H 0.26463 0.09618 0.81989 0.0
H476 H 0.3205 0.1102 0.84004 0.0
H477 H 0.31739 0.12291 0.87235 0.0
H478 H 0.2643 0.15096 0.87436 0.0
H479 H 0.27035 0.1743 0.8503 0.0
H480 H 0.32549 0.18272 0.84347 0.0
H481 H 0.31957 0.15995 0.86798 0.0
O482 O 0.2716 0.15768 0.01389 0.0
O483 O 0.30212 0.18083 0.0131 0.0
O484 O 0.26868 0.02418 0.87817 0.0
O485 O 0.29837 0.03804 0.89115 0.0
C486 C 0.28923 0.14862 0.90858 0.0
C487 C 0.28795 0.13766 0.92432 0.0
C488 C 0.28709 0.11977 0.92051 0.0
C489 C 0.28632 0.11226 0.90082 0.0
C490 C 0.28715 0.12304 0.88506 0.0
C491 C 0.28866 0.14125 0.88894 0.0
C492 C 0.29472 0.16928 0.91294 0.0
C493 C 0.28146 0.17405 0.91833 0.0
C494 C 0.28734 0.19371 0.92339 0.0
C495 C 0.30661 0.2088 0.92335 0.0
C496 C 0.3197 0.20377 0.91768 0.0
C497 C 0.31378 0.18425 0.91239 0.0
C498 C 0.28806 0.14515 0.94492 0.0
C499 C 0.27143 0.13587 0.95476 0.0
C500 C 0.27132 0.14284 0.97412 0.0
C501 C 0.28789 0.1592 0.98399 0.0
C502 C 0.3046 0.16836 0.9741 0.0
C503 C 0.30468 0.16135 0.95476 0.0
C504 C 0.29072 0.11086 0.937 0.0
C505 C 0.27768 0.0913 0.9403 0.0
C506 C 0.28343 0.08145 0.95182 0.0
C507 C 0.30218 0.09116 0.96044 0.0
C508 C 0.31456 0.11127 0.95866 0.0
C509 C 0.30892 0.12098 0.94694 0.0
C510 C 0.28565 0.09354 0.89666 0.0
C511 C 0.26899 0.07664 0.88788 0.0
C512 C 0.26817 0.05891 0.88428 0.0
C513 C 0.28403 0.05782 0.88941 0.0
C514 C 0.30077 0.07488 0.89802 0.0
C515 C 0.3016 0.09261 0.9015 0.0
C516 C 0.28912 0.11648 0.86488 0.0
C517 C 0.27447 0.10932 0.84982 0.0
C518 C 0.27626 0.10213 0.83121 0.0
C519 C 0.29268 0.10195 0.82758 0.0
C520 C 0.30753 0.10979 0.84256 0.0
C521 C 0.30579 0.11706 0.86099 0.0
C522 C 0.29142 0.15363 0.87277 0.0
C523 C 0.27758 0.1577 0.86746 0.0
C524 C 0.28104 0.17097 0.85368 0.0
C525 C 0.29844 0.18045 0.84503 0.0
C526 C 0.31206 0.1759 0.85006 0.0
C527 C 0.30861 0.16269 0.86385 0.0
C528 C 0.28771 0.16661 0.00452 0.0
C529 C 0.28316 0.03897 0.88586 0.0
H530 H 0.82383 0.16052 0.03857 0.0
H531 H 0.72853 0.99488 0.87237 0.0
H532 H 0.83285 0.16641 0.93433 0.0
H533 H 0.85718 0.19936 0.94918 0.0
H534 H 0.90016 0.18566 0.9404 0.0
H535 H 0.87551 0.15242 0.92559 0.0
H536 H 0.80372 0.13732 0.95379 0.0
H537 H 0.80787 0.1481 0.98907 0.0
H538 H 0.85308 0.13719 0.99611 0.0
H539 H 0.84862 0.12624 0.96081 0.0
H540 H 0.77415 0.10429 0.91809 0.0
H541 H 0.74737 0.0918 0.93817 0.0
H542 H 0.77625 0.07617 0.97957 0.0
H543 H 0.8026 0.08751 0.95835 0.0
H544 H 0.77521 0.0929 0.88033 0.0
H545 H 0.74799 0.06092 0.86659 0.0
H546 H 0.77051 0.032 0.89789 0.0
H547 H 0.79781 0.06411 0.91132 0.0
H548 H 0.80963 0.13177 0.86848 0.0
H549 H 0.79795 0.1225 0.83381 0.0
H550 H 0.80533 0.07337 0.83305 0.0
H551 H 0.8178 0.08328 0.86791 0.0
H552 H 0.84016 0.16604 0.89316 0.0
H553 H 0.85946 0.18745 0.86899 0.0
H554 H 0.87729 0.14731 0.85202 0.0
H555 H 0.85865 0.12645 0.87715 0.0
O556 O 0.82236 0.1561 0.02466 0.0
O557 O 0.84554 0.15032 0.02748 0.0
O558 O 0.72823 0.02331 0.86174 0.0
O559 O 0.73916 0.00773 0.87757 0.0
C560 C 0.83719 0.13678 0.921 0.0
C561 C 0.82339 0.12438 0.93334 0.0
C562 C 0.8071 0.10648 0.92511 0.0
C563 C 0.80537 0.1002 0.90484 0.0
C564 C 0.81905 0.11267 0.89242 0.0
C565 C 0.83498 0.131 0.90052 0.0
C566 C 0.8524 0.15695 0.92922 0.0
C567 C 0.8475 0.17047 0.93576 0.0
C568 C 0.86139 0.18925 0.94423 0.0
C569 C 0.88052 0.19497 0.94614 0.0
C570 C 0.88551 0.18161 0.93905 0.0
C571 C 0.87151 0.16267 0.93068 0.0
C572 C 0.82571 0.13076 0.95481 0.0
C573 C 0.81438 0.1371 0.96302 0.0
C574 C 0.81685 0.14333 0.98316 0.0
C575 C 0.83078 0.14346 0.99543 0.0
C576 C 0.84218 0.13722 0.98709 0.0
C577 C 0.83967 0.13095 0.96695 0.0
C578 C 0.79024 0.09661 0.93662 0.0
C579 C 0.77447 0.09763 0.93118 0.0
C580 C 0.75933 0.09086 0.94294 0.0
C581 C 0.75978 0.08334 0.96073 0.0
C582 C 0.77538 0.08179 0.96592 0.0
C583 C 0.79047 0.08828 0.95387 0.0
C584 C 0.78863 0.08082 0.89659 0.0
C585 C 0.77434 0.07965 0.88406 0.0
C586 C 0.75876 0.06136 0.8763 0.0
C587 C 0.75711 0.04389 0.88108 0.0
C588 C 0.77136 0.04515 0.89385 0.0
C589 C 0.78696 0.06346 0.90156 0.0
C590 C 0.81466 0.10827 0.8707 0.0
C591 C 0.80929 0.11935 0.86072 0.0
C592 C 0.80238 0.11388 0.84098 0.0
C593 C 0.80045 0.09703 0.83083 0.0
C594 C 0.80673 0.08646 0.84052 0.0
C595 C 0.81379 0.09204 0.86038 0.0
C596 C 0.84822 0.14484 0.88714 0.0
C597 C 0.84868 0.16216 0.88465 0.0
C598 C 0.85946 0.1742 0.87057 0.0
C599 C 0.86976 0.16898 0.8584 0.0
C600 C 0.86968 0.15186 0.86127 0.0
C601 C 0.85899 0.13989 0.87555 0.0
C602 C 0.8334 0.15015 0.01682 0.0
C603 C 0.74061 0.02441 0.87285 0.0
H604 H 0.88192 0.71655 0.0575 0.0
H605 H 0.73298 0.68849 0.88576 0.0
H606 H 0.89785 0.73011 0.9408 0.0
H607 H 0.9209 0.7226 0.95347 0.0
H608 H 0.87473 0.66357 0.96059 0.0
H609 H 0.85224 0.67092 0.947 0.0
H610 H 0.87526 0.73384 0.97698 0.0
H611 H 0.88262 0.73224 0.01152 0.0
H612 H 0.8347 0.67216 0.00743 0.0
H613 H 0.82764 0.67389 0.97285 0.0
H614 H 0.83149 0.72926 0.97669 0.0
H615 H 0.80742 0.72071 0.00056 0.0
H616 H 0.77276 0.66258 0.96905 0.0
H617 H 0.79683 0.67114 0.94558 0.0
H618 H 0.81889 0.73482 0.93437 0.0
H619 H 0.79013 0.73419 0.92433 0.0
H620 H 0.76677 0.67654 0.89266 0.0
H621 H 0.7955 0.67728 0.90299 0.0
H622 H 0.83594 0.73438 0.89186 0.0
H623 H 0.82339 0.7299 0.85763 0.0
H624 H 0.81949 0.67418 0.84888 0.0
H625 H 0.83057 0.67812 0.88329 0.0
H626 H 0.87795 0.73848 0.897 0.0
H627 H 0.89539 0.73873 0.86865 0.0
H628 H 0.87943 0.6792 0.87568 0.0
H629 H 0.86198 0.67904 0.90387 0.0
O630 O 0.87873 0.71687 0.04382 0.0
O631 O 0.85387 0.68606 0.04099 0.0
O632 O 0.75709 0.71871 0.90657 0.0
O633 O 0.74447 0.6891 0.88998 0.0
C634 C 0.85899 0.70562 0.93733 0.0
C635 C 0.84672 0.70516 0.95143 0.0
C636 C 0.83045 0.70524 0.94542 0.0
C637 C 0.82682 0.70668 0.92548 0.0
C638 C 0.83943 0.70784 0.91145 0.0
C639 C 0.85572 0.70763 0.91746 0.0
C640 C 0.87341 0.70109 0.94313 0.0
C641 C 0.89286 0.71549 0.94478 0.0
C642 C 0.90595 0.7112 0.9522 0.0
C643 C 0.89971 0.69248 0.95818 0.0
C644 C 0.88018 0.67801 0.95587 0.0
C645 C 0.86724 0.68224 0.94828 0.0
C646 C 0.85079 0.70408 0.9725 0.0
C647 C 0.86634 0.72037 0.98361 0.0
C648 C 0.87052 0.71941 0.00332 0.0
C649 C 0.85921 0.70209 0.01227 0.0
C650 C 0.84365 0.68575 0.00103 0.0
C651 C 0.83952 0.68672 0.9813 0.0
C652 C 0.81578 0.70084 0.9594 0.0
C653 C 0.81864 0.71474 0.97498 0.0
C654 C 0.80493 0.70984 0.98854 0.0
C655 C 0.78832 0.69092 0.98673 0.0
C656 C 0.78556 0.67714 0.97101 0.0
C657 C 0.79915 0.68207 0.95747 0.0
C658 C 0.80933 0.70618 0.91927 0.0
C659 C 0.80753 0.72207 0.92528 0.0
C660 C 0.7911 0.72168 0.91951 0.0
C661 C 0.77616 0.70533 0.90763 0.0
C662 C 0.77801 0.68938 0.90175 0.0
C663 C 0.79442 0.68978 0.90757 0.0
C664 C 0.83417 0.70658 0.89009 0.0
C665 C 0.83244 0.72128 0.88246 0.0
C666 C 0.82541 0.71874 0.86285 0.0
C667 C 0.82021 0.70156 0.85049 0.0
C668 C 0.82289 0.68737 0.85803 0.0
C669 C 0.82954 0.68974 0.87765 0.0
C670 C 0.8688 0.7088 0.90257 0.0
C671 C 0.87858 0.72566 0.89265 0.0
C672 C 0.8884 0.72573 0.87641 0.0
C673 C 0.88869 0.70895 0.8699 0.0
C674 C 0.87967 0.69243 0.8805 0.0
C675 C 0.86974 0.69233 0.89666 0.0
C676 C 0.86371 0.70111 0.03321 0.0
C677 C 0.75871 0.70486 0.90141 0.0
H678 H 0.8189 0.65611 0.34262 0.0
H679 H 0.91622 0.6114 0.50035 0.0
H680 H 0.81651 0.66847 0.44825 0.0
H681 H 0.79371 0.67591 0.43572 0.0
H682 H 0.74767 0.61867 0.44803 0.0
H683 H 0.77089 0.61093 0.45953 0.0
H684 H 0.84273 0.66598 0.42641 0.0
H685 H 0.83728 0.66748 0.39135 0.0
H686 H 0.78885 0.60763 0.38654 0.0
H687 H 0.79462 0.60626 0.4216 0.0
H688 H 0.87135 0.66932 0.45879 0.0
H689 H 0.89812 0.6808 0.43861 0.0
H690 H 0.86819 0.62489 0.4023 0.0
H691 H 0.84107 0.61355 0.42268 0.0
H692 H 0.87197 0.66012 0.49839 0.0
H693 H 0.89911 0.65851 0.50996 0.0
H694 H 0.87375 0.6009 0.47754 0.0
H695 H 0.84658 0.6026 0.46626 0.0
H696 H 0.83895 0.6626 0.51551 0.0
H697 H 0.84972 0.66641 0.55004 0.0
H698 H 0.8396 0.60781 0.54308 0.0
H699 H 0.82759 0.60367 0.50865 0.0
H700 H 0.81012 0.66489 0.49172 0.0
H701 H 0.79524 0.67002 0.5198 0.0
H702 H 0.77409 0.61066 0.53323 0.0
H703 H 0.7884 0.60539 0.50451 0.0
O704 O 0.82084 0.65517 0.35646 0.0
O705 O 0.79602 0.62442 0.3548 0.0
O706 O 0.91806 0.64205 0.51246 0.0
O707 O 0.90564 0.61242 0.49601 0.0
C708 C 0.8097 0.6347 0.46119 0.0
C709 C 0.82241 0.63488 0.44779 0.0
C710 C 0.8383 0.63452 0.45475 0.0
C711 C 0.84062 0.6322 0.47473 0.0
C712 C 0.82778 0.63166 0.48811 0.0
C713 C 0.81234 0.63304 0.48137 0.0
C714 C 0.79535 0.63904 0.45447 0.0
C715 C 0.80149 0.65745 0.44805 0.0
C716 C 0.7884 0.66179 0.44117 0.0
C717 C 0.76879 0.64793 0.4409 0.0
C718 C 0.76265 0.62958 0.44776 0.0
C719 C 0.77585 0.62516 0.45446 0.0
C720 C 0.81922 0.63591 0.42648 0.0
C721 C 0.83108 0.65314 0.41772 0.0
C722 C 0.82787 0.65399 0.3977 0.0
C723 C 0.81266 0.63765 0.38612 0.0
C724 C 0.80072 0.62046 0.39502 0.0
C725 C 0.80398 0.61963 0.41503 0.0
C726 C 0.85441 0.64054 0.44232 0.0
C727 C 0.87063 0.65946 0.44659 0.0
C728 C 0.88593 0.66597 0.43507 0.0
C729 C 0.88537 0.65368 0.41898 0.0
C730 C 0.86899 0.63472 0.41456 0.0
C731 C 0.85358 0.62817 0.4262 0.0
C732 C 0.8572 0.63136 0.48171 0.0
C733 C 0.87224 0.6471 0.49394 0.0
C734 C 0.88775 0.64618 0.50046 0.0
C735 C 0.88857 0.62953 0.49473 0.0
C736 C 0.87355 0.61389 0.48228 0.0
C737 C 0.85802 0.61482 0.47581 0.0
C738 C 0.83234 0.6328 0.50959 0.0
C739 C 0.8385 0.65035 0.52158 0.0
C740 C 0.84493 0.6526 0.54125 0.0
C741 C 0.84582 0.63753 0.54926 0.0
C742 C 0.83897 0.61965 0.53742 0.0
C743 C 0.83222 0.61729 0.51774 0.0
C744 C 0.80028 0.63473 0.49599 0.0
C745 C 0.80169 0.65275 0.50027 0.0
C746 C 0.79343 0.65576 0.51653 0.0
C747 C 0.78375 0.64085 0.52894 0.0
C748 C 0.78135 0.6224 0.52391 0.0
C749 C 0.78955 0.61937 0.50754 0.0
C750 C 0.80928 0.6386 0.36486 0.0
C751 C 0.905 0.62846 0.50164 0.0
H752 H 0.3483 0.16983 0.36847 0.0
H753 H 0.39041 0.31516 0.54603 0.0
H754 H 0.34199 0.15335 0.47014 0.0
H755 H 0.33687 0.12235 0.45497 0.0
H756 H 0.39338 0.13998 0.47705 0.0
H757 H 0.39881 0.17161 0.49159 0.0
H758 H 0.34094 0.18276 0.45236 0.0
H759 H 0.33851 0.1758 0.41651 0.0
H760 H 0.39722 0.19261 0.41951 0.0
H761 H 0.39952 0.19977 0.45537 0.0
H762 H 0.33712 0.20724 0.48429 0.0
H763 H 0.32604 0.22409 0.46507 0.0
H764 H 0.38114 0.25732 0.44231 0.0
H765 H 0.39219 0.24028 0.46182 0.0
H766 H 0.34729 0.21768 0.52789 0.0
H767 H 0.34754 0.24633 0.54291 0.0
H768 H 0.40203 0.28467 0.52069 0.0
H769 H 0.40172 0.25586 0.50599 0.0
H770 H 0.3496 0.18499 0.54419 0.0
H771 H 0.34824 0.19595 0.57805 0.0
H772 H 0.40514 0.24677 0.57754 0.0
H773 H 0.40624 0.23571 0.54344 0.0
H774 H 0.34685 0.15111 0.51542 0.0
H775 H 0.34641 0.12819 0.53719 0.0
H776 H 0.40452 0.17141 0.55881 0.0
H777 H 0.40492 0.19425 0.53673 0.0
O778 O 0.34961 0.17278 0.38267 0.0
O779 O 0.37983 0.18153 0.38502 0.0
O780 O 0.362 0.28322 0.55146 0.0
O781 O 0.38993 0.30357 0.54022 0.0
C782 C 0.37368 0.18371 0.49054 0.0
C783 C 0.37204 0.19617 0.47824 0.0
C784 C 0.37172 0.21245 0.48672 0.0
C785 C 0.37467 0.21732 0.50734 0.0
C786 C 0.37691 0.20526 0.51967 0.0
C787 C 0.37595 0.18816 0.51131 0.0
C788 C 0.3709 0.1649 0.48164 0.0
C789 C 0.35343 0.15073 0.4714 0.0
C790 C 0.35049 0.13303 0.46282 0.0
C791 C 0.36481 0.12895 0.46473 0.0
C792 C 0.38217 0.1429 0.47538 0.0
C793 C 0.38527 0.16087 0.48364 0.0
C794 C 0.37048 0.19202 0.45643 0.0
C795 C 0.35332 0.18516 0.44523 0.0
C796 C 0.35194 0.18108 0.42476 0.0
C797 C 0.36768 0.1837 0.41513 0.0
C798 C 0.38483 0.19048 0.42645 0.0
C799 C 0.3862 0.19458 0.44692 0.0
C800 C 0.36543 0.22263 0.47444 0.0
C801 C 0.34676 0.2181 0.47507 0.0
C802 C 0.34042 0.2276 0.46397 0.0
C803 C 0.35269 0.24191 0.4521 0.0
C804 C 0.37142 0.24637 0.45139 0.0
C805 C 0.37773 0.23669 0.46244 0.0
C806 C 0.37458 0.23472 0.51604 0.0
C807 C 0.35931 0.23228 0.52638 0.0
C808 C 0.35946 0.24867 0.53489 0.0
C809 C 0.37484 0.2678 0.53305 0.0
C810 C 0.39 0.27015 0.52244 0.0
C811 C 0.38985 0.25374 0.51399 0.0
C812 C 0.378 0.20957 0.54138 0.0
C813 C 0.36201 0.19813 0.55162 0.0
C814 C 0.36127 0.20446 0.57099 0.0
C815 C 0.37652 0.22236 0.58044 0.0
C816 C 0.39305 0.23308 0.57056 0.0
C817 C 0.39378 0.22671 0.55117 0.0
C818 C 0.37598 0.17426 0.52436 0.0
C819 C 0.35957 0.15553 0.52467 0.0
C820 C 0.35935 0.14246 0.53707 0.0
C821 C 0.37547 0.14798 0.54962 0.0
C822 C 0.39188 0.16681 0.54937 0.0
C823 C 0.39214 0.17982 0.53677 0.0
C824 C 0.36616 0.1793 0.39338 0.0
C825 C 0.37513 0.28526 0.54215 0.0
H826 H 0.81163 0.16869 0.3501 0.0
H827 H 0.9662 0.31472 0.50365 0.0
H828 H 0.79882 0.1757 0.4514 0.0
H829 H 0.7737 0.14126 0.44155 0.0
H830 H 0.80466 0.12258 0.47581 0.0
H831 H 0.82997 0.15682 0.48463 0.0
H832 H 0.83295 0.21274 0.42848 0.0
H833 H 0.82316 0.19854 0.39402 0.0
H834 H 0.83227 0.15229 0.40661 0.0
H835 H 0.84223 0.16678 0.44096 0.0
H836 H 0.87452 0.25362 0.44957 0.0
H837 H 0.90052 0.27033 0.42812 0.0
H838 H 0.90382 0.21866 0.42043 0.0
H839 H 0.87861 0.20244 0.4425 0.0
H840 H 0.87143 0.26082 0.49731 0.0
H841 H 0.90124 0.29248 0.50587 0.0
H842 H 0.93264 0.26572 0.4887 0.0
H843 H 0.90276 0.23411 0.48047 0.0
H844 H 0.84042 0.22866 0.5267 0.0
H845 H 0.85209 0.23898 0.56178 0.0
H846 H 0.89776 0.22988 0.55103 0.0
H847 H 0.88577 0.219 0.51645 0.0
H848 H 0.80269 0.19075 0.49832 0.0
H849 H 0.78117 0.17165 0.52273 0.0
H850 H 0.82346 0.16162 0.5468 0.0
H851 H 0.84486 0.18074 0.52236 0.0
O852 O 0.81562 0.17411 0.36378 0.0
O853 O 0.8205 0.15064 0.37103 0.0
O854 O 0.9374 0.31536 0.50931 0.0
O855 O 0.9542 0.30236 0.50047 0.0
C856 C 0.83246 0.18935 0.47325 0.0
C857 C 0.84396 0.19942 0.45815 0.0
C858 C 0.86121 0.21768 0.46297 0.0
C859 C 0.86673 0.22608 0.48287 0.0
C860 C 0.85515 0.21605 0.49795 0.0
C861 C 0.83783 0.19787 0.49308 0.0
C862 C 0.8162 0.16873 0.46871 0.0
C863 C 0.80005 0.16412 0.45682 0.0
C864 C 0.78569 0.14446 0.45134 0.0
C865 C 0.78725 0.12916 0.45777 0.0
C866 C 0.80317 0.13396 0.47027 0.0
C867 C 0.81754 0.15353 0.47554 0.0
C868 C 0.83813 0.1907 0.43724 0.0
C869 C 0.83283 0.19956 0.42374 0.0
C870 C 0.82723 0.1914 0.40408 0.0
C871 C 0.82687 0.17424 0.39757 0.0
C872 C 0.83232 0.16548 0.41115 0.0
C873 C 0.83796 0.17368 0.43079 0.0
C874 C 0.87465 0.2268 0.44759 0.0
C875 C 0.8807 0.24584 0.44303 0.0
C876 C 0.89549 0.25534 0.43083 0.0
C877 C 0.90406 0.24571 0.42265 0.0
C878 C 0.89726 0.22628 0.42636 0.0
C879 C 0.88283 0.21699 0.4389 0.0
C880 C 0.88493 0.24523 0.48811 0.0
C881 C 0.88477 0.26183 0.49544 0.0
C882 C 0.90181 0.27989 0.50029 0.0
C883 C 0.91933 0.28165 0.4979 0.0
C884 C 0.91941 0.26491 0.49066 0.0
C885 C 0.90237 0.24685 0.48588 0.0
C886 C 0.86239 0.22331 0.51897 0.0
C887 C 0.85296 0.22896 0.53196 0.0
C888 C 0.85959 0.23479 0.55192 0.0
C889 C 0.87591 0.23539 0.55898 0.0
C890 C 0.88534 0.22987 0.54588 0.0
C891 C 0.87854 0.22372 0.52613 0.0
C892 C 0.82537 0.18726 0.50869 0.0
C893 C 0.80732 0.18453 0.50898 0.0
C894 C 0.79504 0.17355 0.52284 0.0
C895 C 0.80062 0.16513 0.53668 0.0
C896 C 0.81885 0.16815 0.53652 0.0
C897 C 0.83109 0.17905 0.52258 0.0
C898 C 0.82082 0.16556 0.37669 0.0
C899 C 0.93747 0.30083 0.50293 0.0
H900 H 0.97457 0.50877 0.36631 0.0
H901 H 0.00522 0.38485 0.21548 0.0
H902 H 0.95516 0.50224 0.26112 0.0
H903 H 0.95866 0.53343 0.27346 0.0
H904 H 0.01449 0.56516 0.25199 0.0
H905 H 0.01083 0.53404 0.23975 0.0
H906 H 0.95709 0.46951 0.2859 0.0
H907 H 0.95924 0.48126 0.32061 0.0
H908 H 0.01483 0.53218 0.3144 0.0
H909 H 0.01259 0.52014 0.2798 0.0
H910 H 0.96057 0.43312 0.2649 0.0
H911 H 0.97026 0.41477 0.28379 0.0
H912 H 0.02622 0.46719 0.29661 0.0
H913 H 0.01649 0.48532 0.2776 0.0
H914 H 0.95488 0.42724 0.21748 0.0
H915 H 0.95671 0.39828 0.20907 0.0
H916 H 0.01597 0.43174 0.23086 0.0
H917 H 0.01401 0.46064 0.23886 0.0
H918 H 0.95303 0.45562 0.18965 0.0
H919 H 0.95408 0.44164 0.15675 0.0
H920 H 0.01374 0.46468 0.16981 0.0
H921 H 0.01254 0.47847 0.20247 0.0
H922 H 0.95174 0.49398 0.21073 0.0
H923 H 0.95164 0.51303 0.18438 0.0
H924 H 0.01031 0.53307 0.17671 0.0
H925 H 0.01003 0.51366 0.20257 0.0
O926 O 0.97404 0.50436 0.35257 0.0
O927 O 0.00252 0.53033 0.34856 0.0
O928 O 0.97376 0.37969 0.20701 0.0
O929 O 0.00414 0.39612 0.21848 0.0
C930 C 0.98169 0.49724 0.24414 0.0
C931 C 0.98316 0.48689 0.25924 0.0
C932 C 0.98391 0.47004 0.25426 0.0
C933 C 0.98299 0.46342 0.23423 0.0
C934 C 0.98166 0.47384 0.21921 0.0
C935 C 0.98098 0.49072 0.22413 0.0
C936 C 0.9827 0.51593 0.24947 0.0
C937 C 0.96799 0.51597 0.25883 0.0
C938 C 0.97006 0.53375 0.26595 0.0
C939 C 0.98687 0.55174 0.26372 0.0
C940 C 0.00127 0.55159 0.25367 0.0
C941 C -0.00079 0.53383 0.24666 0.0
C942 C 0.98461 0.49405 0.28032 0.0
C943 C 0.96972 0.48318 0.29209 0.0
C944 C 0.97098 0.48994 0.3119 0.0
C945 C 0.98718 0.50769 0.32027 0.0
C946 C 0.00213 0.51848 0.30841 0.0
C947 C 0.00087 0.51167 0.28863 0.0
C948 C 0.98787 0.46049 0.2698 0.0
C949 C 0.97472 0.44076 0.27232 0.0
C950 C 0.98031 0.4303 0.28298 0.0
C951 C -0.00093 0.43952 0.29142 0.0
C952 C 0.01166 0.45974 0.29037 0.0
C953 C 0.00611 0.47014 0.27957 0.0
C954 C 0.98426 0.44596 0.22891 0.0
C955 C 0.96824 0.42828 0.22035 0.0
C956 C 0.96933 0.41177 0.2156 0.0
C957 C 0.98648 0.41268 0.21937 0.0
C958 C 0.00254 0.43051 0.22782 0.0
C959 C 0.00145 0.44702 0.23245 0.0
C960 C 0.98266 0.46784 0.19843 0.0
C961 C 0.96636 0.45791 0.18519 0.0
C962 C 0.967 0.44999 0.16647 0.0
C963 C 0.98393 0.45185 0.16088 0.0
C964 C 0.00042 0.46272 0.17386 0.0
C965 C -0.0002 0.47068 0.19245 0.0
C966 C 0.98083 0.50232 0.20836 0.0
C967 C 0.9645 0.50246 0.20325 0.0
C968 C 0.96453 0.51343 0.1883 0.0
C969 C 0.98092 0.52446 0.1783 0.0
C970 C 0.9973 0.5244 0.18374 0.0
C971 C 0.99723 0.51341 0.19858 0.0
C972 C 0.98845 0.51487 0.3413 0.0
C973 C 0.98767 0.39514 0.21454 0.0
H974 H 0.4809 0.48965 0.36544 0.0
H975 H 0.3815 0.34275 0.1847 0.0
H976 H 0.49542 0.50376 0.25972 0.0
H977 H 0.51947 0.53599 0.27621 0.0
H978 H 0.56126 0.51992 0.27317 0.0
H979 H 0.53682 0.48736 0.25655 0.0
H980 H 0.46668 0.47667 0.2795 0.0
H981 H 0.469 0.48404 0.31529 0.0
H982 H 0.50751 0.46397 0.32199 0.0
H983 H 0.50486 0.45642 0.28615 0.0
H984 H 0.43868 0.45059 0.24844 0.0
H985 H 0.41299 0.43857 0.27006 0.0
H986 H 0.43159 0.40304 0.29476 0.0
H987 H 0.45815 0.41644 0.27384 0.0
H988 H 0.44043 0.44006 0.20342 0.0
H989 H 0.41143 0.41173 0.18634 0.0
H990 H 0.42355 0.37263 0.21399 0.0
H991 H 0.45261 0.40111 0.23081 0.0
H992 H 0.47881 0.47359 0.19116 0.0
H993 H 0.47169 0.4657 0.15556 0.0
H994 H 0.473 0.41316 0.15913 0.0
H995 H 0.47996 0.42116 0.195 0.0
H996 H 0.51008 0.50605 0.21947 0.0
H997 H 0.53593 0.52728 0.19981 0.0
H998 H 0.54749 0.48142 0.18802 0.0
H999 H 0.52183 0.46037 0.20819 0.0
O1000 O 0.48013 0.48657 0.35132 0.0
O1001 O 0.49995 0.47618 0.35395 0.0
O1002 O 0.38735 0.37495 0.17738 0.0
O1003 O 0.39289 0.35422 0.19127 0.0
C1004 C 0.49916 0.47363 0.24761 0.0
C1005 C 0.48399 0.46115 0.25855 0.0
C1006 C 0.46741 0.44458 0.24882 0.0
C1007 C 0.4664 0.43978 0.22834 0.0
C1008 C 0.48193 0.4518 0.21746 0.0
C1009 C 0.49834 0.46877 0.22711 0.0
C1010 C 0.51435 0.49318 0.25722 0.0
C1011 C 0.50973 0.50713 0.26275 0.0
C1012 C 0.52347 0.5255 0.27219 0.0
C1013 C 0.54217 0.53037 0.27619 0.0
C1014 C 0.54694 0.51653 0.27023 0.0
C1015 C 0.53305 0.49798 0.26083 0.0
C1016 C 0.48539 0.46576 0.28028 0.0
C1017 C 0.47545 0.47368 0.28874 0.0
C1018 C 0.47688 0.47798 0.30918 0.0
C1019 C 0.4884 0.47454 0.32152 0.0
C1020 C 0.49848 0.46674 0.31293 0.0
C1021 C 0.49699 0.46242 0.29248 0.0
C1022 C 0.45018 0.43435 0.25962 0.0
C1023 C 0.43698 0.43997 0.25833 0.0
C1024 C 0.42223 0.43298 0.2707 0.0
C1025 C 0.42014 0.41985 0.28435 0.0
C1026 C 0.43296 0.41349 0.28483 0.0
C1027 C 0.44799 0.42086 0.2727 0.0
C1028 C 0.44867 0.4226 0.2182 0.0
C1029 C 0.43683 0.42536 0.20568 0.0
C1030 C 0.42026 0.40916 0.19599 0.0
C1031 C 0.41519 0.3899 0.19877 0.0
C1032 C 0.42704 0.38724 0.21149 0.0
C1033 C 0.44363 0.40347 0.22114 0.0
C1034 C 0.47994 0.44797 0.19563 0.0
C1035 C 0.47798 0.46061 0.1842 0.0
C1036 C 0.47397 0.45609 0.16382 0.0
C1037 C 0.47177 0.43878 0.15446 0.0
C1038 C 0.47442 0.42649 0.16591 0.0
C1039 C 0.47848 0.43106 0.18635 0.0
C1040 C 0.51429 0.4818 0.21553 0.0
C1041 C 0.51842 0.50073 0.21298 0.0
C1042 C 0.53315 0.5128 0.20173 0.0
C1043 C 0.54376 0.50601 0.19252 0.0
C1044 C 0.53949 0.48698 0.19494 0.0
C1045 C 0.52492 0.475 0.20646 0.0
C1046 C 0.48989 0.47912 0.34324 0.0
C1047 C 0.39763 0.37263 0.18847 0.0
H1048 H 0.5252 0.99764 0.38175 0.0
H1049 H 0.37957 0.98777 0.21789 0.0
H1050 H 0.54495 0.03509 0.27508 0.0
H1051 H 0.56955 0.02974 0.28776 0.0
H1052 H 0.52963 0.96688 0.27748 0.0
H1053 H 0.50521 0.97241 0.26536 0.0
H1054 H 0.52017 0.02879 0.30868 0.0
H1055 H 0.52642 0.02144 0.34117 0.0
H1056 H 0.48229 0.96022 0.32598 0.0
H1057 H 0.47634 0.96777 0.29348 0.0
H1058 H 0.47827 0.02442 0.30726 0.0
H1059 H 0.45386 0.01382 0.33079 0.0
H1060 H 0.42054 0.95714 0.29608 0.0
H1061 H 0.44471 0.96816 0.27243 0.0
H1062 H 0.46432 0.03253 0.26877 0.0
H1063 H 0.43479 0.03098 0.2603 0.0
H1064 H 0.41529 0.97814 0.22086 0.0
H1065 H 0.44478 0.97975 0.22962 0.0
H1066 H 0.48416 0.04059 0.22821 0.0
H1067 H 0.47324 0.04212 0.19508 0.0
H1068 H 0.47216 0.98951 0.17435 0.0
H1069 H 0.48164 0.98735 0.20767 0.0
H1070 H 0.52706 0.0455 0.2297 0.0
H1071 H 0.54789 0.05096 0.20301 0.0
H1072 H 0.53322 0.99082 0.20153 0.0
H1073 H 0.51233 0.98544 0.22788 0.0
O1074 O 0.52243 0.00024 0.36886 0.0
O1075 O 0.49952 0.96896 0.36039 0.0
O1076 O 0.40201 0.01587 0.24205 0.0
O1077 O 0.39136 0.98871 0.22153 0.0
C1078 C 0.50758 0.00697 0.26475 0.0
C1079 C 0.49442 0.00333 0.27893 0.0
C1080 C 0.47787 0.00325 0.27398 0.0
C1081 C 0.47461 0.00728 0.255 0.0
C1082 C 0.48801 0.01141 0.24089 0.0
C1083 C 0.5046 0.01137 0.24585 0.0
C1084 C 0.52336 0.00413 0.26939 0.0
C1085 C 0.54172 0.02021 0.27526 0.0
C1086 C 0.5557 0.01711 0.28246 0.0
C1087 C 0.55144 0.99788 0.28386 0.0
C1088 C 0.53325 0.98186 0.27698 0.0
C1089 C 0.51934 0.98497 0.26989 0.0
C1090 C 0.49772 0.99884 0.29883 0.0
C1091 C 0.51185 0.01382 0.31245 0.0
C1092 C 0.51538 0.00957 0.33097 0.0
C1093 C 0.50484 0.99024 0.33619 0.0
C1094 C 0.49065 0.97527 0.32246 0.0
C1095 C 0.48716 0.97954 0.30393 0.0
C1096 C 0.46309 0.9971 0.28812 0.0
C1097 C 0.46562 0.00977 0.30478 0.0
C1098 C 0.45176 0.00361 0.31826 0.0
C1099 C 0.43522 0.98462 0.31531 0.0
C1100 C 0.43291 0.97195 0.29863 0.0
C1101 C 0.4467 0.97818 0.28513 0.0
C1102 C 0.45671 0.00632 0.24973 0.0
C1103 C 0.45363 0.02062 0.25833 0.0
C1104 C 0.43677 0.01971 0.25345 0.0
C1105 C 0.42269 0.00445 0.23987 0.0
C1106 C 0.42584 0.9901 0.23133 0.0
C1107 C 0.44269 0.99101 0.23627 0.0
C1108 C 0.48368 0.01384 0.22038 0.0
C1109 C 0.48162 0.02946 0.21644 0.0
C1110 C 0.47552 0.03039 0.19746 0.0
C1111 C 0.47161 0.01582 0.18201 0.0
C1112 C 0.47457 0.00073 0.18592 0.0
C1113 C 0.48031 -0.00037 0.20492 0.0
C1114 C 0.5184 0.01516 0.23091 0.0
C1115 C 0.52855 0.0336 0.22373 0.0
C1116 C 0.54033 0.03666 0.20847 0.0
C1117 C 0.54224 0.02134 0.20028 0.0
C1118 C 0.53231 0.003 0.20779 0.0
C1119 C 0.52042 -9e-05 0.22289 0.0
C1120 C 0.5087 0.98576 0.35585 0.0
C1121 C 0.40477 0.00342 0.2346 0.0
H1122 H 0.50695 0.04113 0.69968 0.0
H1123 H 0.59904 0.96361 0.82802 0.0
H1124 H 0.49811 0.03022 0.8036 0.0
H1125 H 0.47374 0.03422 0.78821 0.0
H1126 H 0.43341 0.97155 0.78589 0.0
H1127 H 0.45814 0.96769 0.80094 0.0
H1128 H 0.5298 0.03318 0.77859 0.0
H1129 H 0.52495 0.04207 0.74641 0.0
H1130 H 0.47513 0.9836 0.73227 0.0
H1131 H 0.48031 0.97483 0.76439 0.0
H1132 H 0.5605 0.0258 0.80021 0.0
H1133 H 0.5832 0.03361 0.77532 0.0
H1134 H 0.53997 0.98341 0.73649 0.0
H1135 H 0.51772 0.97509 0.76204 0.0
H1136 H 0.55741 0.01445 0.84213 0.0
H1137 H 0.58377 0.01022 0.8499 0.0
H1138 H 0.55741 0.95779 0.80834 0.0
H1139 H 0.53103 0.96207 0.80089 0.0
H1140 H 0.525 0.0126 0.86547 0.0
H1141 H 0.53409 0.00694 0.89752 0.0
H1142 H 0.51901 0.94895 0.87325 0.0
H1143 H 0.50994 0.95477 0.84121 0.0
H1144 H 0.49557 0.02072 0.84442 0.0
H1145 H 0.47638 0.01938 0.87132 0.0
H1146 H 0.45456 0.95742 0.87207 0.0
H1147 H 0.47333 0.95879 0.84456 0.0
O1148 O 0.50868 0.03726 0.71227 0.0
O1149 O 0.4831 0.00705 0.70579 0.0
O1150 O 0.6017 0.99263 0.84649 0.0
O1151 O 0.58879 0.96563 0.82523 0.0
C1152 C 0.49567 0.99587 0.80806 0.0
C1153 C 0.5082 0.99813 0.7935 0.0
C1154 C 0.52355 0.99589 0.79781 0.0
C1155 C 0.52613 0.99092 0.81656 0.0
C1156 C 0.51351 0.98851 0.83111 0.0
C1157 C 0.49833 0.99114 0.8269 0.0
C1158 C 0.47988 0.99867 0.80324 0.0
C1159 C 0.48387 0.01745 0.80024 0.0
C1160 C 0.4699 0.01969 0.79148 0.0
C1161 C 0.45169 0.00316 0.78561 0.0
C1162 C 0.4474 0.98451 0.78995 0.0
C1163 C 0.46141 0.98229 0.79874 0.0
C1164 C 0.50543 0.00337 0.77378 0.0
C1165 C 0.51793 0.02229 0.76846 0.0
C1166 C 0.51508 0.02734 0.7501 0.0
C1167 C 0.49964 0.01355 0.73677 0.0
C1168 C 0.48716 0.99457 0.74218 0.0
C1169 C 0.49007 0.98953 0.76051 0.0
C1170 C 0.5375 -0.00016 0.78297 0.0
C1171 C 0.55605 0.01632 0.78644 0.0
C1172 C 0.56891 0.02092 0.77205 0.0
C1173 C 0.56339 0.00927 0.75376 0.0
C1174 C 0.5448 0.9926 0.75044 0.0
C1175 C 0.53202 0.98787 0.76497 0.0
C1176 C 0.54228 0.9885 0.82103 0.0
C1177 C 0.55733 0.00202 0.83479 0.0
C1178 C 0.57238 -0.00041 0.83916 0.0
C1179 C 0.57269 0.98364 0.82976 0.0
C1180 C 0.55762 0.97022 0.81586 0.0
C1181 C 0.54255 0.97264 0.81155 0.0
C1182 C 0.51685 0.98411 0.85103 0.0
C1183 C 0.5233 0.99853 0.8672 0.0
C1184 C 0.52846 0.99525 0.88549 0.0
C1185 C 0.52735 0.97752 0.88788 0.0
C1186 C 0.52025 0.96284 0.8718 0.0
C1187 C 0.51498 0.96609 0.85354 0.0
C1188 C 0.4858 0.98985 0.8425 0.0
C1189 C 0.48642 0.0068 0.8502 0.0
C1190 C 0.47561 0.00604 0.86572 0.0
C1191 C 0.46405 0.98832 0.87397 0.0
C1192 C 0.46317 0.97125 0.86595 0.0
C1193 C 0.47396 0.97202 0.85032 0.0
C1194 C 0.49658 0.01901 0.71734 0.0
C1195 C 0.58863 0.98097 0.83438 0.0
H1196 H 0.96818 0.46765 0.70531 0.0
H1197 H 0.02799 0.6289 0.87324 0.0
H1198 H 0.97872 0.46253 0.80849 0.0
H1199 H 0.97523 0.43248 0.79263 0.0
H1200 H 0.03522 0.45721 0.80547 0.0
H1201 H 0.03876 0.48766 0.82089 0.0
H1202 H 0.97286 0.49042 0.78975 0.0
H1203 H 0.96537 0.47928 0.75445 0.0
H1204 H 0.02367 0.49664 0.74891 0.0
H1205 H 0.03102 0.50794 0.78421 0.0
H1206 H 0.97324 0.5202 0.81829 0.0
H1207 H 0.96268 0.53764 0.7992 0.0
H1208 H 0.01583 0.56563 0.77197 0.0
H1209 H 0.02634 0.54814 0.79134 0.0
H1210 H 0.98649 0.53132 0.86193 0.0
H1211 H 0.98708 0.56046 0.876 0.0
H1212 H 0.03846 0.59744 0.84792 0.0
H1213 H 0.03783 0.56817 0.83418 0.0
H1214 H 0.99279 0.50201 0.87996 0.0
H1215 H 0.9948 0.51653 0.91332 0.0
H1216 H 0.05031 0.56647 0.90478 0.0
H1217 H 0.04786 0.55194 0.87114 0.0
H1218 H 0.99053 0.46561 0.85315 0.0
H1219 H 0.99614 0.4462 0.87498 0.0
H1220 H 0.05451 0.49427 0.88746 0.0
H1221 H 0.04883 0.51355 0.86531 0.0
O1222 O 0.97149 0.47229 0.71922 0.0
O1223 O 0.00162 0.48142 0.71717 0.0
O1224 O 0.00108 0.59748 0.88213 0.0
O1225 O 0.02739 0.61713 0.86784 0.0
C1226 C 0.01108 0.49601 0.82365 0.0
C1227 C 0.00703 0.50664 0.81099 0.0
C1228 C 0.00711 0.52334 0.81883 0.0
C1229 C 0.0121 0.53001 0.83908 0.0
C1230 C 0.01656 0.51965 0.85169 0.0
C1231 C 0.01585 0.5025 0.84405 0.0
C1232 C 0.00903 0.47735 0.81557 0.0
C1233 C 0.99113 0.4615 0.80783 0.0
C1234 C 0.98916 0.4444 0.7988 0.0
C1235 C 0.005 0.4427 0.7977 0.0
C1236 C 0.02282 0.45824 0.80617 0.0
C1237 C 0.02484 0.47555 0.81495 0.0
C1238 C 0.00252 0.50015 0.78949 0.0
C1239 C 0.98404 0.49199 0.78084 0.0
C1240 C 0.97978 0.48555 0.76069 0.0
C1241 C 0.99393 0.48709 0.74884 0.0
C1242 C 0.01244 0.49526 0.7576 0.0
C1243 C 0.01669 0.50173 0.77775 0.0
C1244 C 0.00055 0.53306 0.80622 0.0
C1245 C 0.98251 0.52998 0.80806 0.0
C1246 C 0.97646 0.5398 0.79705 0.0
C1247 C 0.98843 0.55296 0.78409 0.0
C1248 C 0.00638 0.55566 0.78195 0.0
C1249 C 0.01237 0.5457 0.79291 0.0
C1250 C 0.01219 0.54768 0.84717 0.0
C1251 C 0.99789 0.54574 0.85891 0.0
C1252 C 0.99824 0.5624 0.86689 0.0
C1253 C 0.01286 0.5813 0.86312 0.0
C1254 C 0.02704 0.58313 0.85115 0.0
C1255 C 0.0267 0.56645 0.84324 0.0
C1256 C 0.02013 0.52598 0.87317 0.0
C1257 C 0.00564 0.51577 0.88555 0.0
C1258 C 0.00684 0.52413 0.90463 0.0
C1259 C 0.02262 0.54283 0.91165 0.0
C1260 C 0.0378 0.55225 0.89969 0.0
C1261 C 0.03655 0.5439 0.88057 0.0
C1262 C 0.01931 0.49091 0.85752 0.0
C1263 C 0.00457 0.47188 0.86045 0.0
C1264 C 0.00781 0.46082 0.87288 0.0
C1265 C 0.0258 0.46869 0.8828 0.0
C1266 C 0.0405 0.48788 0.88006 0.0
C1267 C 0.03729 0.49887 0.86743 0.0
C1268 C 0.98932 0.48013 0.72746 0.0
C1269 C 0.01335 0.59906 0.87163 0.0
H1270 H 0.47501 0.5153 0.69103 0.0
H1271 H 0.63615 0.64245 0.8473 0.0
H1272 H 0.46433 0.52203 0.79406 0.0
H1273 H 0.4364 0.49003 0.78102 0.0
H1274 H 0.46095 0.46079 0.80785 0.0
H1275 H 0.48872 0.49264 0.82058 0.0
H1276 H 0.50033 0.55582 0.77107 0.0
H1277 H 0.4895 0.54359 0.73628 0.0
H1278 H 0.49172 0.49228 0.74488 0.0
H1279 H 0.50277 0.5048 0.77955 0.0
H1280 H 0.54358 0.5918 0.79133 0.0
H1281 H 0.5689 0.606 0.76875 0.0
H1282 H 0.56633 0.551 0.76066 0.0
H1283 H 0.54141 0.5371 0.78336 0.0
H1284 H 0.54185 0.59857 0.84026 0.0
H1285 H 0.57339 0.62788 0.84974 0.0
H1286 H 0.59894 0.59545 0.8304 0.0
H1287 H 0.56733 0.5662 0.82123 0.0
H1288 H 0.50941 0.5678 0.86873 0.0
H1289 H 0.52235 0.57782 0.90343 0.0
H1290 H 0.56235 0.56062 0.89119 0.0
H1291 H 0.54932 0.55056 0.85684 0.0
H1292 H 0.46908 0.53069 0.84348 0.0
H1293 H 0.4476 0.50876 0.86652 0.0
H1294 H 0.48834 0.49334 0.8819 0.0
H1295 H 0.50941 0.51483 0.85862 0.0
O1296 O 0.47939 0.51991 0.70482 0.0
O1297 O 0.48068 0.49376 0.71005 0.0
O1298 O 0.60967 0.64706 0.85357 0.0
O1299 O 0.62351 0.63108 0.84372 0.0
C1300 C 0.49657 0.52874 0.81387 0.0
C1301 C 0.50857 0.5386 0.799 0.0
C1302 C 0.52695 0.55526 0.80423 0.0
C1303 C 0.53309 0.56259 0.8243 0.0
C1304 C 0.52112 0.5527 0.83919 0.0
C1305 C 0.50285 0.53579 0.83396 0.0
C1306 C 0.47848 0.50963 0.80835 0.0
C1307 C 0.46346 0.50867 0.79738 0.0
C1308 C 0.44761 0.49043 0.78988 0.0
C1309 C 0.44652 0.47292 0.7934 0.0
C1310 C 0.46124 0.47399 0.80513 0.0
C1311 C 0.47711 0.49218 0.81244 0.0
C1312 C 0.50215 0.53111 0.77786 0.0
C1313 C 0.49849 0.54196 0.76538 0.0
C1314 C 0.49229 0.53493 0.74553 0.0
C1315 C 0.48967 0.51692 0.73781 0.0
C1316 C 0.49352 0.50616 0.75036 0.0
C1317 C 0.49976 0.51324 0.77019 0.0
C1318 C 0.54064 0.56342 0.78892 0.0
C1319 C 0.54835 0.58279 0.78446 0.0
C1320 C 0.5628 0.59086 0.77164 0.0
C1321 C 0.56954 0.57957 0.76295 0.0
C1322 C 0.56123 0.55994 0.76689 0.0
C1323 C 0.547 0.55199 0.77985 0.0
C1324 C 0.55232 0.58034 0.82989 0.0
C1325 C 0.55428 0.59785 0.83809 0.0
C1326 C 0.57231 0.61455 0.84347 0.0
C1327 C 0.5887 0.61402 0.84077 0.0
C1328 C 0.58663 0.59639 0.83263 0.0
C1329 C 0.5686 0.57968 0.8273 0.0
C1330 C 0.52864 0.55875 0.86023 0.0
C1331 C 0.52096 0.56622 0.87361 0.0
C1332 C 0.52829 0.57185 0.89338 0.0
C1333 C 0.54349 0.57019 0.89994 0.0
C1334 C 0.55091 0.56244 0.88649 0.0
C1335 C 0.54349 0.55669 0.86688 0.0
C1336 C 0.49081 0.52438 0.84946 0.0
C1337 C 0.47341 0.52274 0.85205 0.0
C1338 C 0.46123 0.5103 0.86523 0.0
C1339 C 0.46625 0.49924 0.87587 0.0
C1340 C 0.48399 0.50148 0.87369 0.0
C1341 C 0.49613 0.5139 0.86058 0.0
C1342 C 0.48299 0.50944 0.71675 0.0
C1343 C 0.60788 0.63175 0.84643 0.0
H1344 H 0.63285 0.83203 0.70142 0.0
H1345 H 0.6511 0.70605 0.54045 0.0
H1346 H 0.61002 0.82911 0.59895 0.0
H1347 H 0.61684 0.86173 0.61156 0.0
H1348 H 0.66967 0.8888 0.58375 0.0
H1349 H 0.66281 0.85635 0.57138 0.0
H1350 H 0.6103 0.79336 0.62057 0.0
H1351 H 0.6146 0.80496 0.65567 0.0
H1352 H 0.67024 0.85473 0.64726 0.0
H1353 H 0.66584 0.84284 0.61225 0.0
H1354 H 0.61249 0.75635 0.59852 0.0
H1355 H 0.62326 0.73873 0.61719 0.0
H1356 H 0.67977 0.79099 0.62548 0.0
H1357 H 0.66892 0.80836 0.60687 0.0
H1358 H 0.60276 0.75021 0.55149 0.0
H1359 H 0.60328 0.72076 0.54131 0.0
H1360 H 0.66379 0.75334 0.5572 0.0
H1361 H 0.66308 0.78271 0.56707 0.0
H1362 H 0.60071 0.77617 0.5238 0.0
H1363 H 0.60214 0.76575 0.48931 0.0
H1364 H 0.66306 0.79505 0.49927 0.0
H1365 H 0.66147 0.80499 0.53353 0.0
H1366 H 0.60145 0.8192 0.5496 0.0
H1367 H 0.59937 0.83868 0.5248 0.0
H1368 H 0.65495 0.85475 0.50789 0.0
H1369 H 0.65709 0.83573 0.5329 0.0
O1370 O 0.63147 0.82767 0.6875 0.0
O1371 O 0.65994 0.85304 0.68237 0.0
O1372 O 0.61943 0.70147 0.53605 0.0
O1373 O 0.65051 0.71749 0.54424 0.0
C1374 C 0.63297 0.8209 0.57813 0.0
C1375 C 0.63488 0.81022 0.59256 0.0
C1376 C 0.63479 0.79302 0.58669 0.0
C1377 C 0.63237 0.78625 0.56645 0.0
C1378 C 0.63048 0.79692 0.55208 0.0
C1379 C 0.63064 0.81416 0.55788 0.0
C1380 C 0.63586 0.84041 0.58414 0.0
C1381 C 0.62292 0.84214 0.59541 0.0
C1382 C 0.62689 0.86072 0.60266 0.0
C1383 C 0.64378 0.87781 0.5986 0.0
C1384 C 0.6564 0.87595 0.58684 0.0
C1385 C 0.6525 0.85743 0.57976 0.0
C1386 C 0.63767 0.81735 0.61386 0.0
C1387 C 0.6234 0.80675 0.62636 0.0
C1388 C 0.62589 0.81343 0.64639 0.0
C1389 C 0.64274 0.83082 0.65427 0.0
C1390 C 0.65707 0.84133 0.64167 0.0
C1391 C 0.65457 0.83461 0.62166 0.0
C1392 C 0.63994 0.7836 0.60135 0.0
C1393 C 0.62706 0.76408 0.60483 0.0
C1394 C 0.63326 0.75404 0.61536 0.0
C1395 C 0.65241 0.76344 0.62263 0.0
C1396 C 0.66491 0.78341 0.62026 0.0
C1397 C 0.65873 0.79337 0.60965 0.0
C1398 C 0.63285 0.76851 0.56013 0.0
C1399 C 0.6161 0.75093 0.5527 0.0
C1400 C 0.61645 0.73415 0.54694 0.0
C1401 C 0.63358 0.73468 0.54851 0.0
C1402 C 0.65036 0.7524 0.55584 0.0
C1403 C 0.65 0.76919 0.56153 0.0
C1404 C 0.63101 0.79139 0.53102 0.0
C1405 C 0.61432 0.78041 0.5184 0.0
C1406 C 0.61515 0.77446 0.49883 0.0
C1407 C 0.63273 0.77978 0.49165 0.0
C1408 C 0.64938 0.79103 0.50433 0.0
C1409 C 0.64849 0.79663 0.52388 0.0
C1410 C 0.62924 0.82571 0.54274 0.0
C1411 C 0.61312 0.8269 0.54048 0.0
C1412 C 0.61199 0.83805 0.5264 0.0
C1413 C 0.62691 0.84802 0.51429 0.0
C1414 C 0.64308 0.84689 0.51674 0.0
C1415 C 0.64429 0.83598 0.53095 0.0
C1416 C 0.64531 0.8379 0.67554 0.0
C1417 C 0.634 0.71685 0.54253 0.0
H1418 H 0.15738 0.81989 0.71831 0.0
H1419 H 0.05017 0.67124 0.54157 0.0
H1420 H 0.16416 0.83672 0.61615 0.0
H1421 H 0.19051 0.86862 0.63109 0.0
H1422 H 0.23024 0.85312 0.61196 0.0
H1423 H 0.2036 0.82087 0.59725 0.0
H1424 H 0.13441 0.80615 0.63385 0.0
H1425 H 0.13997 0.81324 0.66976 0.0
H1426 H 0.18339 0.79933 0.6686 0.0
H1427 H 0.1775 0.79204 0.63268 0.0
H1428 H 0.1039 0.77872 0.60001 0.0
H1429 H 0.07813 0.76401 0.62165 0.0
H1430 H 0.10457 0.73712 0.64961 0.0
H1431 H 0.13048 0.75195 0.62764 0.0
H1432 H 0.10312 0.76927 0.55725 0.0
H1433 H 0.07431 0.73921 0.5423 0.0
H1434 H 0.09352 0.70444 0.56739 0.0
H1435 H 0.12236 0.73464 0.58206 0.0
H1436 H 0.13798 0.80558 0.54352 0.0
H1437 H 0.13013 0.79902 0.5079 0.0
H1438 H 0.13698 0.74952 0.50681 0.0
H1439 H 0.14504 0.75635 0.54265 0.0
H1440 H 0.16888 0.83901 0.57237 0.0
H1441 H 0.18837 0.8621 0.54938 0.0
H1442 H 0.20433 0.82177 0.52678 0.0
H1443 H 0.1855 0.79918 0.55062 0.0
O1444 O 0.15536 0.81694 0.70409 0.0
O1445 O 0.17762 0.80972 0.70268 0.0
O1446 O 0.05222 0.70191 0.5347 0.0
O1447 O 0.06143 0.68336 0.54731 0.0
C1448 C 0.16569 0.80712 0.59683 0.0
C1449 C 0.15207 0.794 0.60888 0.0
C1450 C 0.13518 0.77704 0.60014 0.0
C1451 C 0.13251 0.77234 0.57948 0.0
C1452 C 0.14622 0.7853 0.56741 0.0
C1453 C 0.16269 0.80287 0.57608 0.0
C1454 C 0.18196 0.82636 0.60592 0.0
C1455 C 0.17853 0.84007 0.61545 0.0
C1456 C 0.19358 0.85828 0.62394 0.0
C1457 C 0.21239 0.86326 0.62281 0.0
C1458 C 0.21586 0.84964 0.61298 0.0
C1459 C 0.20072 0.83126 0.60466 0.0
C1460 C 0.15539 0.79835 0.6307 0.0
C1461 C 0.14498 0.80446 0.6414 0.0
C1462 C 0.14825 0.80859 0.6619 0.0
C1463 C 0.16209 0.8068 0.67207 0.0
C1464 C 0.17259 0.80081 0.66124 0.0
C1465 C 0.16927 0.79664 0.64074 0.0
C1466 C 0.11896 0.7663 0.61223 0.0
C1467 C 0.10401 0.76944 0.61063 0.0
C1468 C 0.08945 0.76124 0.62314 0.0
C1469 C 0.08952 0.74965 0.63745 0.0
C1470 C 0.10422 0.746 0.63868 0.0
C1471 C 0.11895 0.75439 0.62619 0.0
C1472 C 0.11491 0.75412 0.57054 0.0
C1473 C 0.10113 0.75515 0.55937 0.0
C1474 C 0.08467 0.73796 0.55091 0.0
C1475 C 0.08164 0.71941 0.5536 0.0
C1476 C 0.09542 0.71847 0.56498 0.0
C1477 C 0.1119 0.73568 0.57339 0.0
C1478 C 0.14226 0.78156 0.54562 0.0
C1479 C 0.13811 0.79352 0.53555 0.0
C1480 C 0.13366 0.78978 0.5152 0.0
C1481 C 0.13306 0.77383 0.50454 0.0
C1482 C 0.13727 0.76186 0.51466 0.0
C1483 C 0.14191 0.76575 0.53506 0.0
C1484 C 0.17591 0.8175 0.56327 0.0
C1485 C 0.17695 0.83538 0.56277 0.0
C1486 C 0.18787 0.84842 0.54942 0.0
C1487 C 0.19776 0.8437 0.53609 0.0
C1488 C 0.19706 0.82596 0.53697 0.0
C1489 C 0.18624 0.81299 0.55049 0.0
C1490 C 0.16555 0.81122 0.69385 0.0
C1491 C 0.06419 0.70109 0.54461 0.0
H1492 H 0.20321 0.35425 0.72052 0.0
H1493 H 0.07833 0.37247 0.55221 0.0
H1494 H 0.23132 0.38908 0.61036 0.0
H1495 H 0.25226 0.37841 0.62219 0.0
H1496 H 0.20421 0.31847 0.61778 0.0
H1497 H 0.18358 0.32915 0.60591 0.0
H1498 H 0.20613 0.38751 0.64645 0.0
H1499 H 0.20957 0.37899 0.67932 0.0
H1500 H 0.16024 0.32042 0.66396 0.0
H1501 H 0.1571 0.32908 0.63106 0.0
H1502 H 0.1628 0.3847 0.646 0.0
H1503 H 0.13586 0.37185 0.66664 0.0
H1504 H 0.10396 0.32021 0.62432 0.0
H1505 H 0.13052 0.33343 0.60376 0.0
H1506 H 0.15836 0.40166 0.60705 0.0
H1507 H 0.13257 0.40637 0.59784 0.0
H1508 H 0.10756 0.35431 0.55589 0.0
H1509 H 0.13329 0.34965 0.56543 0.0
H1510 H 0.18073 0.40873 0.56675 0.0
H1511 H 0.17155 0.41306 0.53393 0.0
H1512 H 0.15743 0.35469 0.5125 0.0
H1513 H 0.16646 0.35047 0.54521 0.0
H1514 H 0.21789 0.40423 0.56729 0.0
H1515 H 0.23631 0.40512 0.53955 0.0
H1516 H 0.21203 0.34261 0.53895 0.0
H1517 H 0.1935 0.34178 0.56632 0.0
O1518 O 0.20157 0.35731 0.70743 0.0
O1519 O 0.17608 0.32742 0.69884 0.0
O1520 O 0.10196 0.39744 0.57813 0.0
O1521 O 0.08863 0.37089 0.55622 0.0
C1522 C 0.19264 0.36621 0.6027 0.0
C1523 C 0.17957 0.36429 0.61645 0.0
C1524 C 0.16468 0.36689 0.61099 0.0
C1525 C 0.1636 0.37281 0.59233 0.0
C1526 C 0.17702 0.37538 0.57874 0.0
C1527 C 0.19149 0.37191 0.58387 0.0
C1528 C 0.20594 0.3599 0.6075 0.0
C1529 C 0.22545 0.37363 0.61167 0.0
C1530 C 0.23733 0.36752 0.6184 0.0
C1531 C 0.22977 0.34765 0.62115 0.0
C1532 C 0.21036 0.33391 0.61615 0.0
C1533 C 0.19859 0.33997 0.6093 0.0
C1534 C 0.18125 0.359 0.63648 0.0
C1535 C 0.19606 0.37287 0.65025 0.0
C1536 C 0.19799 0.36796 0.669 0.0
C1537 C 0.18514 0.34904 0.6743 0.0
C1538 C 0.17033 0.33514 0.66039 0.0
C1539 C 0.16845 0.34007 0.64163 0.0
C1540 C 0.14845 0.36007 0.62333 0.0
C1541 C 0.14986 0.37074 0.64119 0.0
C1542 C 0.13455 0.36328 0.653 0.0
C1543 C 0.1177 0.34504 0.64708 0.0
C1544 C 0.11651 0.33449 0.62914 0.0
C1545 C 0.13169 0.34198 0.61738 0.0
C1546 C 0.14778 0.37544 0.58677 0.0
C1547 C 0.14728 0.39128 0.59591 0.0
C1548 C 0.13255 0.39395 0.59059 0.0
C1549 C 0.11804 0.38075 0.57606 0.0
C1550 C 0.11853 0.36478 0.56708 0.0
C1551 C 0.13324 0.36211 0.57244 0.0
C1552 C 0.17433 0.37932 0.55834 0.0
C1553 C 0.17598 0.39705 0.55484 0.0
C1554 C 0.17065 0.39945 0.53615 0.0
C1555 C 0.16373 0.3842 0.52064 0.0
C1556 C 0.16296 0.36683 0.52403 0.0
C1557 C 0.16813 0.36439 0.54272 0.0
C1558 C 0.2045 0.37298 0.56895 0.0
C1559 C 0.21681 0.39081 0.56134 0.0
C1560 C 0.22721 0.39128 0.54547 0.0
C1561 C 0.22561 0.37394 0.53713 0.0
C1562 C 0.21378 0.35625 0.54528 0.0
C1563 C 0.20324 0.35576 0.56095 0.0
C1564 C 0.18726 0.34387 0.69423 0.0
C1565 C 0.10243 0.38359 0.57026 0.0
H1566 H 0.00426 0.38239 0.07551 0.0
H1567 H 0.96875 0.44975 0.12369 0.0
H1568 H 0.98108 0.40841 0.0405 0.0
H1569 H -0.0004 0.42984 0.1559 0.0
H1570 H 0.97026 0.43249 0.0932 0.0
H1571 H -0.00037 0.39733 0.10529 0.0
C1572 C 0.99813 0.39121 0.07406 0.0
C1573 C 0.99318 0.39426 0.05544 0.0
C1574 C 0.97669 0.43193 0.10696 0.0
C1575 C 0.98786 0.41154 0.08966 0.0
C1576 C 0.97577 0.4417 0.12433 0.0
C1577 C 0.98426 0.44139 0.14226 0.0
C1578 C 0.98597 0.42166 0.10767 0.0
C1579 C 0.9932 0.43078 0.14232 0.0
C1580 C 0.99551 0.39978 0.09112 0.0
C1581 C 0.98517 0.40574 0.05455 0.0
N1582 N 0.99382 0.42138 0.12532 0.0
N1583 N 0.98282 0.41405 0.07145 0.0
H1584 H 0.63498 0.60523 0.14275 0.0
H1585 H 0.54967 0.49597 0.15546 0.0
H1586 H 0.60247 0.56107 0.09368 0.0
H1587 H 0.57192 0.54471 0.20097 0.0
H1588 H 0.57308 0.51789 0.13386 0.0
H1589 H 0.61614 0.5813 0.16542 0.0
C1590 C 0.62403 0.59044 0.13673 0.0
C1591 C 0.62014 0.5852 0.11627 0.0
C1592 C 0.57292 0.52373 0.14863 0.0
C1593 C 0.59854 0.55778 0.14216 0.0
C1594 C 0.55966 0.51123 0.16097 0.0
C1595 C 0.55881 0.51863 0.17994 0.0
C1596 C 0.5855 0.54369 0.1554 0.0
C1597 C 0.57196 0.53852 0.18634 0.0
C1598 C 0.61324 0.57681 0.14969 0.0
C1599 C 0.60582 0.56579 0.10934 0.0
N1600 N 0.58474 0.55039 0.17407 0.0
N1601 N 0.59545 0.5528 0.12227 0.0
H1602 H 0.41212 0.979 0.06635 0.0
H1603 H 0.4795 0.04732 0.16157 0.0
H1604 H 0.42946 0.0399 0.07755 0.0
H1605 H 0.4448 0.98385 0.15724 0.0
H1606 H 0.46513 0.0461 0.12916 0.0
H1607 H 0.42858 0.98193 0.09768 0.0
C1608 C 0.41949 0.99306 0.07534 0.0
C1609 C 0.4193 0.0092 0.06935 0.0
C1610 C 0.46077 0.0325 0.13537 0.0
C1611 C 0.43822 0.01263 0.10539 0.0
C1612 C 0.46889 0.03315 0.15389 0.0
C1613 C 0.4635 0.01565 0.16219 0.0
C1614 C 0.44732 0.01422 0.12501 0.0
C1615 C 0.44982 0.99773 0.15136 0.0
C1616 C 0.42883 0.99468 0.0933 0.0
C1617 C 0.42917 0.02705 0.08166 0.0
N1618 N 0.44229 0.9975 0.13337 0.0
N1619 N 0.43825 0.0283 0.09916 0.0
H1620 H 0.38035 0.95777 0.96023 0.0
H1621 H 0.47617 0.01591 0.90595 0.0
H1622 H 0.42634 0.01732 0.97901 0.0
H1623 H 0.42783 0.95969 0.88156 0.0
H1624 H 0.45854 0.01553 0.9339 0.0
H1625 H 0.39799 0.95699 0.93242 0.0
C1626 C 0.39415 0.97065 0.95855 0.0
C1627 C 0.40185 0.98765 0.97196 0.0
C1628 C 0.45174 0.00326 0.92244 0.0
C1629 C 0.42207 0.98684 0.94026 0.0
C1630 C 0.46178 0.00353 0.90639 0.0
C1631 C 0.45343 0.9879 0.89124 0.0
C1632 C 0.43317 0.98721 0.9235 0.0
C1633 C 0.43489 0.972 0.89294 0.0
C1634 C 0.40419 0.9702 0.94266 0.0
C1635 C 0.41979 0.00391 0.96904 0.0
N1636 N 0.42536 0.97208 0.90876 0.0
N1637 N 0.42925 0.00308 0.95354 0.0
H1638 H 0.01943 0.37299 0.93841 0.0
H1639 H 0.04412 0.4806 0.9199 0.0
H1640 H 0.03837 0.42036 0.98497 0.0
H1641 H 0.01473 0.43007 0.87625 0.0
H1642 H 0.0472 0.46022 0.94269 0.0
H1643 H 0.02289 0.39531 0.91428 0.0
C1644 C 0.02454 0.38814 0.94356 0.0
C1645 C 0.02841 0.39475 0.96377 0.0
C1646 C 0.04019 0.45364 0.92808 0.0
C1647 C 0.03231 0.42035 0.93621 0.0
C1648 C 0.03852 0.46527 0.91505 0.0
C1649 C 0.02901 0.45695 0.89624 0.0
C1650 C 0.0324 0.43357 0.92221 0.0
C1651 C 0.0219 0.43698 0.89074 0.0
C1652 C 0.02644 0.40086 0.92976 0.0
C1653 C 0.03506 0.41458 0.96955 0.0
N1654 N 0.02367 0.42596 0.90369 0.0
N1655 N 0.03667 0.42665 0.95584 0.0
H1656 H 0.56318 0.58305 0.02754 0.0
H1657 H 0.58099 0.59186 0.91301 0.0
H1658 H 0.61851 0.61243 0.00494 0.0
H1659 H 0.52501 0.5631 0.93395 0.0
H1660 H 0.59476 0.60046 0.94701 0.0
H1661 H 0.54865 0.57637 0.99378 0.0
C1662 C 0.57227 0.58811 0.01552 0.0
C1663 C 0.59209 0.59824 0.01908 0.0
C1664 C 0.57946 0.59232 0.94425 0.0
C1665 C 0.5756 0.5907 0.98051 0.0
C1666 C 0.57159 0.58735 0.92481 0.0
C1667 C 0.55183 0.57659 0.92065 0.0
C1668 C 0.56751 0.58646 0.95975 0.0
C1669 C 0.54033 0.57147 0.93653 0.0
C1670 C 0.56397 0.58432 0.99626 0.0
C1671 C 0.60317 0.6045 0.00294 0.0
N1672 N 0.54834 0.57633 0.95542 0.0
N1673 N 0.59477 0.6006 0.98441 0.0
H1674 H 0.02304 0.62758 0.99789 0.0
H1675 H 0.00877 0.52765 0.94646 0.0
H1676 H 0.9828 0.57009 0.01491 0.0
H1677 H 0.03496 0.58181 0.91921 0.0
H1678 H 0.00412 0.5443 0.97511 0.0
H1679 H 0.03236 0.61214 0.97222 0.0
C1680 C 0.01623 0.61174 0.99629 0.0
C1681 C 0.002 0.60008 0.00842 0.0
C1682 C 0.01105 0.55256 0.96292 0.0
C1683 C 0.0127 0.5824 0.97929 0.0
C1684 C 0.01369 0.54306 0.94655 0.0
C1685 C 0.02216 0.55328 0.93031 0.0
C1686 C 0.017 0.57244 0.96311 0.0
C1687 C 0.02857 0.57336 0.93145 0.0
C1688 C 0.02154 0.60295 0.98165 0.0
C1689 C 0.99369 0.57963 0.00575 0.0
N1690 N 0.02575 0.58224 0.9475 0.0
N1691 N -0.00084 0.57144 0.99146 0.0
H1692 H 0.40325 0.39549 0.93523 0.0
H1693 H 0.4439 0.50309 0.90242 0.0
H1694 H 0.39001 0.43601 0.96347 0.0
H1695 H 0.45757 0.46178 0.87743 0.0
H1696 H 0.42224 0.47837 0.92335 0.0
H1697 H 0.42118 0.41914 0.91228 0.0
C1698 C 0.40405 0.40937 0.93656 0.0
C1699 C 0.39524 0.41384 0.9514 0.0
C1700 C 0.42997 0.47475 0.91325 0.0
C1701 C 0.41597 0.4412 0.9251 0.0
C1702 C 0.44227 0.48881 0.90128 0.0
C1703 C 0.45271 0.48455 0.88837 0.0
C1704 C 0.42806 0.45632 0.91213 0.0
C1705 C 0.45011 0.46585 0.88748 0.0
C1706 C 0.41432 0.42291 0.92342 0.0
C1707 C 0.39663 0.43201 0.95226 0.0
N1708 N 0.43811 0.45249 0.89921 0.0
N1709 N 0.40695 0.44513 0.93935 0.0
H1710 H 0.5963 0.96477 0.97468 0.0
H1711 H 0.52262 0.98745 0.92572 0.0
H1712 H 0.56731 0.98705 0.00822 0.0
H1713 H 0.54926 0.96201 0.89287 0.0
H1714 H 0.53734 0.98559 0.95635 0.0
H1715 H 0.57755 0.96159 0.94484 0.0
C1716 C 0.58588 0.96885 0.97581 0.0
C1717 C 0.58347 0.97632 0.99397 0.0
C1718 C 0.53983 0.98025 0.94245 0.0
C1719 C 0.56202 0.97284 0.9598 0.0
C1720 C 0.53149 0.98139 0.92496 0.0
C1721 C 0.53477 0.97494 0.9067 0.0
C1722 C 0.55165 0.97275 0.94169 0.0
C1723 C 0.54619 0.96697 0.90662 0.0
C1724 C 0.57517 0.96703 0.95875 0.0
C1725 C 0.5697 0.98129 0.99453 0.0
N1726 N 0.55432 0.96625 0.92381 0.0
N1727 N 0.5596 0.97961 0.97767 0.0
H1728 H 0.58182 0.03563 0.0834 0.0
H1729 H 0.56725 0.00964 0.19491 0.0
H1730 H 0.60511 0.00619 0.11216 0.0
H1731 H 0.54338 0.03896 0.16711 0.0
H1732 H 0.58374 0.01118 0.1655 0.0
H1733 H 0.57012 0.03994 0.11469 0.0
C1734 C 0.58461 0.03022 0.09631 0.0
C1735 C 0.59428 0.02035 0.09511 0.0
C1736 C 0.57502 0.01742 0.16585 0.0
C1737 C 0.58094 0.0252 0.13087 0.0
C1738 C 0.56557 0.01649 0.18262 0.0
C1739 C 0.55382 0.02403 0.18336 0.0
C1740 C 0.57262 0.02584 0.1496 0.0
C1741 C 0.55238 0.03304 0.16716 0.0
C1742 C 0.57792 0.03267 0.11415 0.0
C1743 C 0.59755 0.01371 0.11232 0.0
N1744 N 0.56153 0.03353 0.15084 0.0
N1745 N 0.5908 0.01615 0.12942 0.0
H1746 H 0.01763 0.59644 0.08291 0.0
H1747 H 0.96446 0.54627 0.1763 0.0
H1748 H 0.97051 0.59987 0.10202 0.0
H1749 H 0.99788 0.52911 0.14367 0.0
H1750 H 0.96699 0.56694 0.15052 0.0
H1751 H 0.01161 0.57316 0.10668 0.0
C1752 C 0.00598 0.59229 0.09214 0.0
C1753 C 0.99459 0.60016 0.09055 0.0
C1754 C 0.97364 0.55853 0.149 0.0
C1755 C 0.98764 0.57348 0.11793 0.0
C1756 C 0.97215 0.54667 0.16365 0.0
C1757 C 0.98116 0.53609 0.1623 0.0
C1758 C 0.98435 0.55993 0.133 0.0
C1759 C 0.99109 0.53735 0.14564 0.0
C1760 C 0.00249 0.5789 0.10565 0.0
C1761 C 0.97961 0.59411 0.10279 0.0
N1762 N 0.99254 0.54916 0.13176 0.0
N1763 N 0.97665 0.58122 0.11613 0.0
H1764 H 0.43484 0.44191 0.03666 0.0
H1765 H 0.44555 0.402 0.13641 0.0
H1766 H 0.40094 0.38101 0.04774 0.0
H1767 H 0.48249 0.46214 0.12408 0.0
H1768 H 0.4316 0.39335 0.10245 0.0
H1769 H 0.45473 0.44901 0.06703 0.0
C1770 C 0.4317 0.42999 0.04536 0.0
C1771 C 0.41605 0.41089 0.03977 0.0
C1772 C 0.44291 0.4084 0.10708 0.0
C1773 C 0.43869 0.41892 0.07459 0.0
C1774 C 0.45101 0.41333 0.12647 0.0
C1775 C 0.46511 0.43288 0.1332 0.0
C1776 C 0.44883 0.42314 0.09432 0.0
C1777 C 0.47138 0.44697 0.11965 0.0
C1778 C 0.44306 0.43405 0.0627 0.0
C1779 C 0.41274 0.396 0.05155 0.0
N1780 N 0.46306 0.44186 0.10093 0.0
N1781 N 0.42383 0.40038 0.06849 0.0
H1782 H 0.63735 0.70791 0.39574 0.0
H1783 H 0.65635 0.80165 0.46455 0.0
H1784 H 0.67439 0.76759 0.38214 0.0
H1785 H 0.61221 0.74237 0.4729 0.0
H1786 H 0.66157 0.78946 0.43303 0.0
H1787 H 0.62644 0.72004 0.42284 0.0
C1788 C 0.64309 0.72355 0.39836 0.0
C1789 C 0.65697 0.73678 0.38679 0.0
C1790 C 0.65056 0.77911 0.44159 0.0
C1791 C 0.64459 0.75076 0.41782 0.0
C1792 C 0.64761 0.78607 0.45958 0.0
C1793 C 0.63394 0.77295 0.47134 0.0
C1794 C 0.63996 0.75883 0.43546 0.0
C1795 C 0.62286 0.75295 0.4642 0.0
C1796 C 0.63681 0.73046 0.4138 0.0
C1797 C 0.66378 0.75687 0.39076 0.0
N1798 N 0.62629 0.74644 0.44682 0.0
N1799 N 0.65767 0.76325 0.40606 0.0
H1800 H 0.27551 0.90718 0.44903 0.0
H1801 H 0.18694 0.86407 0.51474 0.0
H1802 H 0.23719 0.92779 0.45127 0.0
H1803 H 0.23205 0.85323 0.52244 0.0
H1804 H 0.20404 0.88573 0.48977 0.0
H1805 H 0.2585 0.88539 0.4741 0.0
C1806 C 0.2635 0.9071 0.45477 0.0
C1807 C 0.25776 0.91934 0.44806 0.0
C1808 C 0.21024 0.87867 0.49696 0.0
C1809 C 0.23825 0.89441 0.47669 0.0
C1810 C 0.20053 0.86638 0.51133 0.0
C1811 C 0.20813 0.85691 0.52085 0.0
C1812 C 0.22762 0.88144 0.49191 0.0
C1813 C 0.22557 0.86007 0.51538 0.0
C1814 C 0.25384 0.8947 0.46911 0.0
C1815 C 0.24213 0.91865 0.45604 0.0
N1816 N 0.23472 0.87207 0.50126 0.0
N1817 N 0.23289 0.90636 0.4699 0.0
H1818 H 0.08931 0.38683 0.43225 0.0
H1819 H 0.16821 0.37271 0.48337 0.0
H1820 H 0.11584 0.36003 0.40156 0.0
H1821 H 0.14083 0.39838 0.51435 0.0
H1822 H 0.15168 0.37123 0.45245 0.0
H1823 H 0.11054 0.39446 0.4616 0.0
C1824 C 0.09969 0.38268 0.43162 0.0
C1825 C 0.10066 0.3726 0.41446 0.0
C1826 C 0.14943 0.37738 0.46597 0.0
C1827 C 0.12499 0.38124 0.44806 0.0
C1828 C 0.15883 0.37818 0.48363 0.0
C1829 C 0.1558 0.38556 0.50149 0.0
C1830 C 0.1368 0.38388 0.46616 0.0
C1831 C 0.14371 0.39272 0.50092 0.0
C1832 C 0.11182 0.38704 0.4484 0.0
C1833 C 0.11448 0.36769 0.4145 0.0
N1834 N 0.13452 0.39153 0.48358 0.0
N1835 N 0.126 0.37193 0.43107 0.0
H1836 H 0.09845 0.3427 0.31126 0.0
H1837 H 0.07806 0.26761 0.21623 0.0
H1838 H 0.05058 0.28263 0.30421 0.0
H1839 H 0.12817 0.32605 0.22788 0.0
H1840 H 0.06715 0.27252 0.2479 0.0
H1841 H 0.109 0.33658 0.28026 0.0
C1842 C 0.09017 0.32816 0.30322 0.0
C1843 C 0.07358 0.31316 0.31037 0.0
C1844 C 0.0805 0.28425 0.24345 0.0
C1845 C 0.08558 0.30604 0.27461 0.0
C1846 C 0.08675 0.28145 0.22541 0.0
C1847 C 0.10396 0.29652 0.21926 0.0
C1848 C 0.09158 0.30222 0.25541 0.0
C1849 C 0.1146 0.31418 0.23173 0.0
C1850 C 0.09621 0.32467 0.28547 0.0
C1851 C 0.06348 0.29462 0.29927 0.0
N1852 N 0.10823 0.31652 0.24914 0.0
N1853 N 0.0696 0.29159 0.28187 0.0
H1854 H 0.68415 0.71059 0.27308 0.0
H1855 H 0.72719 0.82346 0.25687 0.0
H1856 H 0.70517 0.75719 0.32087 0.0
H1857 H 0.69328 0.77497 0.21196 0.0
H1858 H 0.72464 0.80009 0.27947 0.0
H1859 H 0.69293 0.73486 0.24953 0.0
C1860 C 0.69081 0.72595 0.27863 0.0
C1861 C 0.69374 0.73184 0.29898 0.0
C1862 C 0.71789 0.7946 0.26462 0.0
C1863 C 0.70378 0.75966 0.2721 0.0
C1864 C 0.71943 0.80791 0.2517 0.0
C1865 C 0.71029 0.80108 0.2326 0.0
C1866 C 0.70727 0.77435 0.2583 0.0
C1867 C 0.7003 0.7808 0.22667 0.0
C1868 C 0.69575 0.73978 0.26518 0.0
C1869 C 0.70249 0.75197 0.30531 0.0
N1870 N 0.699 0.76814 0.2395 0.0
N1871 N 0.7071 0.76514 0.29191 0.0
H1872 H 0.27526 0.95904 0.34863 0.0
H1873 H 0.18492 0.89689 0.27014 0.0
H1874 H 0.22455 0.90522 0.36064 0.0
H1875 H 0.24157 0.938 0.25484 0.0
H1876 H 0.197 0.90407 0.30505 0.0
H1877 H 0.26066 0.95576 0.31591 0.0
C1878 C 0.26098 0.94661 0.34448 0.0
C1879 C 0.2512 0.93224 0.35734 0.0
C1880 C 0.20672 0.91164 0.29404 0.0
C1881 C 0.23441 0.92846 0.31983 0.0
C1882 C 0.19983 0.90765 0.27421 0.0
C1883 C 0.21233 0.91682 0.2597 0.0
C1884 C 0.22616 0.92506 0.2993 0.0
C1885 C 0.23153 0.93051 0.26562 0.0
C1886 C 0.25268 0.94474 0.32576 0.0
C1887 C 0.23267 0.91654 0.35114 0.0
N1888 N 0.23787 0.9342 0.28497 0.0
N1889 N 0.2249 0.915 0.33275 0.0
H1890 H 0.69249 0.95947 0.33207 0.0
H1891 H 0.70724 0.87572 0.28579 0.0
H1892 H 0.68516 0.91204 0.36405 0.0
H1893 H 0.72662 0.92993 0.26021 0.0
H1894 H 0.7007 0.88946 0.31547 0.0
H1895 H 0.70642 0.94963 0.30628 0.0
C1896 C 0.69392 0.94706 0.33372 0.0
C1897 C 0.68748 0.93644 0.35014 0.0
C1898 C 0.70669 0.89848 0.30351 0.0
C1899 C 0.70333 0.92504 0.32063 0.0
C1900 C 0.71041 0.89064 0.2866 0.0
C1901 C 0.71743 0.9017 0.27056 0.0
C1902 C 0.70971 0.9174 0.30422 0.0
C1903 C 0.72136 0.92097 0.27233 0.0
C1904 C 0.70194 0.94149 0.31903 0.0
C1905 C 0.68984 0.92058 0.3516 0.0
N1906 N 0.71719 0.92811 0.28874 0.0
N1907 N 0.69737 0.91522 0.33691 0.0
H1908 H 0.03584 0.74739 0.26699 0.0
H1909 H 0.13827 0.84194 0.25559 0.0
H1910 H 0.07961 0.7787 0.31493 0.0
H1911 H 0.09296 0.81426 0.209 0.0
H1912 H 0.11642 0.81975 0.27799 0.0
H1913 H 0.05585 0.77268 0.24594 0.0
C1914 C 0.04958 0.75965 0.27314 0.0
C1915 C 0.05611 0.76083 0.29271 0.0
C1916 C 0.11119 0.81861 0.26291 0.0
C1917 C 0.07913 0.78976 0.26868 0.0
C1918 C 0.12369 0.83122 0.25011 0.0
C1919 C 0.11743 0.82986 0.2304 0.0
C1920 C 0.09232 0.80441 0.25591 0.0
C1921 C 0.09833 0.81589 0.22412 0.0
C1922 C 0.06101 0.77409 0.26111 0.0
C1923 C 0.07402 0.77711 0.29991 0.0
N1924 N 0.08649 0.8036 0.2368 0.0
N1925 N 0.08495 0.79083 0.28785 0.0
H1926 H 0.23094 0.29503 0.33519 0.0
H1927 H 0.20812 0.33198 0.23915 0.0
H1928 H 0.25734 0.35585 0.32439 0.0
H1929 H 0.17243 0.27204 0.25269 0.0
H1930 H 0.22653 0.34018 0.27039 0.0
H1931 H 0.2095 0.28546 0.30521 0.0
C1932 C 0.23216 0.30635 0.32662 0.0
C1933 C 0.24605 0.32626 0.33224 0.0
C1934 C 0.21459 0.32524 0.2667 0.0
C1935 C 0.22175 0.31546 0.29807 0.0
C1936 C 0.20391 0.32055 0.24884 0.0
C1937 C 0.18843 0.30133 0.24334 0.0
C1938 C 0.21003 0.31061 0.27925 0.0
C1939 C 0.18425 0.28704 0.25631 0.0
C1940 C 0.21993 0.30088 0.30955 0.0
C1941 C 0.24698 0.34032 0.32062 0.0
N1942 N 0.19503 0.29196 0.27369 0.0
N1943 N 0.2351 0.33463 0.30411 0.0
H1944 H 0.25321 0.37541 0.41612 0.0
H1945 H 0.24514 0.35594 0.5296 0.0
H1946 H 0.27533 0.34441 0.44382 0.0
H1947 H 0.22747 0.39151 0.50378 0.0
H1948 H 0.25786 0.35312 0.4986 0.0
H1949 H 0.24516 0.38303 0.44836 0.0
C1950 C 0.25647 0.3703 0.42897 0.0
C1951 C 0.26481 0.35911 0.42723 0.0
C1952 C 0.25136 0.3617 0.49974 0.0
C1953 C 0.25562 0.36773 0.46413 0.0
C1954 C 0.24406 0.36326 0.51742 0.0
C1955 C 0.23517 0.37389 0.51921 0.0
C1956 C 0.2496 0.37067 0.48364 0.0
C1957 C 0.23435 0.38329 0.50306 0.0
C1958 C 0.2519 0.37467 0.44738 0.0
C1959 C 0.2688 0.35296 0.44442 0.0
N1960 N 0.2413 0.3813 0.48587 0.0
N1961 N 0.26405 0.35724 0.4621 0.0
H1962 H 0.63903 0.90481 0.40882 0.0
H1963 H 0.61613 0.87473 0.5184 0.0
H1964 H 0.63134 0.93969 0.45424 0.0
H1965 H 0.6354 0.84804 0.47598 0.0
H1966 H 0.61675 0.89563 0.49374 0.0
H1967 H 0.63271 0.88083 0.43192 0.0
C1968 C 0.63586 0.90737 0.42361 0.0
C1969 C 0.6359 0.92441 0.42965 0.0
C1970 C 0.62073 0.88512 0.48982 0.0
C1971 C 0.62871 0.89695 0.45625 0.0
C1972 C 0.62028 0.87313 0.50383 0.0
C1973 C 0.62587 0.85978 0.49923 0.0
C1974 C 0.62666 0.88357 0.47107 0.0
C1975 C 0.63125 0.85837 0.4802 0.0
C1976 C 0.6323 0.89367 0.43682 0.0
C1977 C 0.63159 0.92683 0.449 0.0
N1978 N 0.63156 0.87015 0.46684 0.0
N1979 N 0.62827 0.91331 0.46166 0.0
H1980 H 0.06694 0.71848 0.39321 0.0
H1981 H 0.14406 0.79948 0.47642 0.0
H1982 H 0.10232 0.78026 0.38597 0.0
H1983 H 0.10833 0.73785 0.48398 0.0
H1984 H 0.13128 0.79217 0.442 0.0
H1985 H 0.08425 0.72471 0.42516 0.0
C1986 C 0.07844 0.73334 0.39826 0.0
C1987 C 0.08305 0.74892 0.38697 0.0
C1988 C 0.12635 0.7802 0.45112 0.0
C1989 C 0.1029 0.75615 0.42359 0.0
C1990 C 0.13359 0.78438 0.47078 0.0
C1991 C 0.1271 0.76927 0.48312 0.0
C1992 C 0.11241 0.76078 0.44374 0.0
C1993 C 0.11379 0.74993 0.47497 0.0
C1994 C 0.08833 0.73688 0.41652 0.0
C1995 C 0.09817 0.76783 0.39422 0.0
N1996 N 0.10674 0.74626 0.45584 0.0
N1997 N 0.10746 0.77094 0.41214 0.0
H1998 H 0.32433 0.04404 0.74098 0.0
H1999 H 0.2849 0.10738 0.78996 0.0
H2000 H 0.30846 0.07703 0.70718 0.0
H2001 H 0.30419 0.07627 0.8221 0.0
H2002 H 0.29038 0.09422 0.75895 0.0
H2003 H 0.31409 0.05359 0.77029 0.0
C2004 C 0.31865 0.05329 0.7397 0.0
C2005 C 0.31743 0.0599 0.7216 0.0
C2006 C 0.2933 0.09022 0.7728 0.0
C2007 C 0.30564 0.07099 0.75532 0.0
C2008 C 0.2901 0.09763 0.79045 0.0
C2009 C 0.29435 0.09308 0.80857 0.0
C2010 C 0.30066 0.0781 0.77339 0.0
C2011 C 0.30109 0.08045 0.80845 0.0
C2012 C 0.31276 0.05873 0.75649 0.0
C2013 C 0.30974 0.07169 0.72086 0.0
N2014 N 0.3041 0.07349 0.79117 0.0
N2015 N 0.30424 0.07698 0.73754 0.0
H2016 H 0.94739 0.23022 0.76992 0.0
H2017 H 0.85764 0.1862 0.83398 0.0
H2018 H 0.90805 0.24954 0.77094 0.0
H2019 H 0.90447 0.17873 0.84568 0.0
H2020 H 0.87439 0.20653 0.80806 0.0
H2021 H 0.93021 0.20825 0.79495 0.0
C2022 C 0.93511 0.22978 0.77535 0.0
C2023 C 0.92916 0.24176 0.7684 0.0
C2024 C 0.88104 0.20049 0.81632 0.0
C2025 C 0.90949 0.21669 0.79685 0.0
C2026 C 0.87153 0.18896 0.83123 0.0
C2027 C 0.87977 0.18095 0.84225 0.0
C2028 C 0.89889 0.20396 0.81221 0.0
C2029 C 0.89755 0.18454 0.83752 0.0
C2030 C 0.92538 0.21731 0.78965 0.0
C2031 C 0.9132 0.24065 0.77594 0.0
N2032 N 0.90656 0.19583 0.82285 0.0
N2033 N 0.90391 0.22832 0.78972 0.0
H2034 H 0.77475 0.71002 0.73788 0.0
H2035 H 0.79139 0.66646 0.83163 0.0
H2036 H 0.75328 0.6484 0.74026 0.0
H2037 H 0.82748 0.72792 0.82322 0.0
H2038 H 0.77611 0.66013 0.79872 0.0
H2039 H 0.79325 0.71753 0.76956 0.0
C2040 C 0.77403 0.69811 0.74497 0.0
C2041 C 0.76236 0.67854 0.73646 0.0
C2042 C 0.78747 0.67499 0.80398 0.0
C2043 C 0.78326 0.687 0.77266 0.0
C2044 C 0.79633 0.67863 0.8228 0.0
C2045 C 0.81097 0.69775 0.83024 0.0
C2046 C 0.79301 0.69059 0.79247 0.0
C2047 C 0.81619 0.71298 0.8182 0.0
C2048 C 0.7846 0.70241 0.76301 0.0
C2049 C 0.76201 0.66369 0.74626 0.0
N2050 N 0.80716 0.70908 0.79992 0.0
N2051 N 0.77215 0.66821 0.76388 0.0
H2052 H 0.7809 0.69691 0.64039 0.0
H2053 H 0.75077 0.61737 0.54656 0.0
H2054 H 0.72828 0.64021 0.63415 0.0
H2055 H 0.80336 0.67405 0.55488 0.0
H2056 H 0.7421 0.6249 0.57857 0.0
H2057 H 0.78927 0.6882 0.60911 0.0
C2058 C 0.77111 0.68257 0.63247 0.0
C2059 C 0.75384 0.66929 0.6399 0.0
C2060 C 0.7555 0.63568 0.57332 0.0
C2061 C 0.76332 0.65921 0.60386 0.0
C2062 C 0.76047 0.63138 0.55509 0.0
C2063 C 0.77773 0.64518 0.54792 0.0
C2064 C 0.76794 0.65387 0.58448 0.0
C2065 C 0.78973 0.66314 0.55957 0.0
C2066 C 0.7759 0.6776 0.61455 0.0
C2067 C 0.74176 0.6509 0.62897 0.0
N2068 N 0.7846 0.66693 0.57721 0.0
N2069 N 0.7467 0.64641 0.61144 0.0
H2070 H 0.37117 0.09279 0.65449 0.0
H2071 H 0.36105 0.10858 0.54169 0.0
H2072 H 0.35058 0.04645 0.6065 0.0
H2073 H 0.38832 0.15615 0.58868 0.0
H2074 H 0.35794 0.08573 0.56508 0.0
H2075 H 0.37853 0.11641 0.63055 0.0
C2076 C 0.3683 0.08759 0.63892 0.0
C2077 C 0.36012 0.06758 0.6325 0.0
C2078 C 0.36474 0.10118 0.57026 0.0
C2079 C 0.36843 0.09454 0.605 0.0
C2080 C 0.36643 0.11421 0.55694 0.0
C2081 C 0.37484 0.13426 0.5633 0.0
C2082 C 0.37136 0.10822 0.59015 0.0
C2083 C 0.38183 0.14082 0.58314 0.0
C2084 C 0.37253 0.1011 0.62524 0.0
C2085 C 0.35681 0.06172 0.61213 0.0
N2086 N 0.37979 0.12781 0.59591 0.0
N2087 N 0.36084 0.07511 0.59911 0.0
H2088 H 0.89322 0.23128 0.68346 0.0
H2089 H 0.91211 0.26212 0.5741 0.0
H2090 H 0.94691 0.27827 0.66674 0.0
H2091 H 0.8561 0.22176 0.59148 0.0
H2092 H 0.92471 0.26896 0.60849 0.0
H2093 H 0.87887 0.22804 0.65038 0.0
C2094 C 0.90196 0.24096 0.67289 0.0
C2095 C 0.92134 0.25494 0.67783 0.0
C2096 C 0.90963 0.25874 0.60489 0.0
C2097 C 0.90504 0.25131 0.64004 0.0
C2098 C 0.90246 0.25483 0.58526 0.0
C2099 C 0.88309 0.24128 0.58001 0.0
C2100 C 0.89738 0.24884 0.6194 0.0
C2101 C 0.87113 0.23235 0.595 0.0
C2102 C 0.89375 0.23914 0.65404 0.0
C2103 C 0.93195 0.26718 0.66358 0.0
N2104 N 0.8785 0.23611 0.61404 0.0
N2105 N 0.9237 0.26497 0.64534 0.0
H2106 H 0.32876 0.23458 0.68651 0.0
H2107 H 0.38789 0.26058 0.59164 0.0
H2108 H 0.36181 0.29326 0.66897 0.0
H2109 H 0.35956 0.2032 0.61255 0.0
H2110 H 0.38058 0.27337 0.62124 0.0
H2111 H 0.34154 0.22328 0.66076 0.0
C2112 C 0.33879 0.24513 0.67731 0.0
C2113 C 0.3441 0.26487 0.67979 0.0
C2114 C 0.37614 0.25803 0.61949 0.0
C2115 C 0.35876 0.252 0.65021 0.0
C2116 C 0.38046 0.25074 0.60264 0.0
C2117 C 0.37428 0.23074 0.59955 0.0
C2118 C 0.36542 0.24524 0.63331 0.0
C2119 C 0.36436 0.21864 0.61417 0.0
C2120 C 0.34611 0.23866 0.66262 0.0
C2121 C 0.35725 0.27789 0.66752 0.0
N2122 N 0.3601 0.22604 0.63033 0.0
N2123 N 0.364 0.27118 0.65315 0.0
H2124 H 0.75108 0.10565 0.63926 0.0
H2125 H 0.76268 0.13717 0.52958 0.0
H2126 H 0.70644 0.0755 0.59201 0.0
H2127 H 0.80821 0.16472 0.57596 0.0
H2128 H 0.74118 0.11601 0.55282 0.0
H2129 H 0.7715 0.12888 0.61685 0.0
C2130 C 0.74553 0.10396 0.62419 0.0
C2131 C 0.72704 0.08853 0.61748 0.0
C2132 C 0.75586 0.12673 0.55794 0.0
C2133 C 0.75041 0.1151 0.5917 0.0
C2134 C 0.76811 0.1389 0.54471 0.0
C2135 C 0.78728 0.15271 0.55084 0.0
C2136 C 0.7628 0.12838 0.57747 0.0
C2137 C 0.7936 0.1541 0.57055 0.0
C2138 C 0.75723 0.11723 0.61139 0.0
C2139 C 0.72062 0.08712 0.5978 0.0
N2140 N 0.7814 0.14206 0.58314 0.0
N2141 N 0.73232 0.1002 0.58559 0.0
H2142 H 0.88531 0.62727 0.66457 0.0
H2143 H 0.87758 0.67124 0.56623 0.0
H2144 H 0.92064 0.68836 0.65457 0.0
H2145 H 0.83583 0.61206 0.57794 0.0
H2146 H 0.89336 0.67727 0.59879 0.0
H2147 H 0.86675 0.62087 0.63321 0.0
C2148 C 0.88909 0.63934 0.65587 0.0
C2149 C 0.90463 0.65836 0.66214 0.0
C2150 C 0.88068 0.66297 0.59436 0.0
C2151 C 0.88359 0.65113 0.62634 0.0
C2152 C 0.87155 0.65955 0.57575 0.0
C2153 C 0.85519 0.64116 0.56936 0.0
C2154 C 0.8736 0.64787 0.60674 0.0
C2155 C 0.84846 0.62642 0.58221 0.0
C2156 C 0.8785 0.63568 0.63799 0.0
C2157 C 0.90886 0.67345 0.65031 0.0
N2158 N 0.85772 0.63008 0.60031 0.0
N2159 N 0.89848 0.66948 0.63298 0.0
H2160 H 0.90611 0.7013 0.74632 0.0
H2161 H 0.91098 0.69404 0.8624 0.0
H2162 H 0.9343 0.67635 0.7746 0.0
H2163 H 0.8849 0.72139 0.83486 0.0
H2164 H 0.92168 0.68962 0.83057 0.0
H2165 H 0.90025 0.71105 0.77882 0.0
C2166 C 0.91118 0.69799 0.75935 0.0
C2167 C 0.92054 0.68782 0.75771 0.0
C2168 C 0.91377 0.69676 0.83151 0.0
C2169 C 0.91384 0.69888 0.79493 0.0
C2170 C 0.90762 0.69922 0.84966 0.0
C2171 C 0.89698 0.70802 0.85125 0.0
C2172 C 0.90911 0.70298 0.81476 0.0
C2173 C 0.89322 0.71469 0.83433 0.0
C2174 C 0.90783 0.70356 0.7779 0.0
C2175 C 0.92688 0.68401 0.77512 0.0
N2176 N 0.89913 0.71187 0.81675 0.0
N2177 N 0.92329 0.68942 0.79296 0.0
H2178 H 0.29448 0.24803 0.75366 0.0
H2179 H 0.33184 0.21559 0.84362 0.0
H2180 H 0.35263 0.27977 0.77862 0.0
H2181 H 0.27482 0.17997 0.81562 0.0
H2182 H 0.33902 0.24015 0.82097 0.0
H2183 H 0.28624 0.22396 0.77747 0.0
C2184 C 0.30548 0.25 0.7642 0.0
C2185 C 0.32429 0.26591 0.76411 0.0
C2186 C 0.32493 0.22697 0.81974 0.0
C2187 C 0.31498 0.23845 0.79131 0.0
C2188 C 0.32085 0.21285 0.8326 0.0
C2189 C 0.30275 0.19557 0.83141 0.0
C2190 C 0.31081 0.22388 0.80553 0.0
C2191 C 0.28894 0.19311 0.81714 0.0
C2192 C 0.30078 0.23623 0.77774 0.0
C2193 C 0.33797 0.26772 0.77808 0.0
N2194 N 0.29327 0.20709 0.80471 0.0
N2195 N 0.33305 0.25415 0.79106 0.0
H2196 H 0.76595 0.05571 0.70603 0.0
H2197 H 0.76781 0.0942 0.81827 0.0
H2198 H 0.72681 0.07078 0.72815 0.0
H2199 H 0.81019 0.08325 0.79797 0.0
H2200 H 0.75194 0.08388 0.78521 0.0
H2201 H 0.7818 0.06411 0.73943 0.0
C2202 C 0.76068 0.06075 0.71787 0.0
C2203 C 0.74506 0.0626 0.71427 0.0
C2204 C 0.76471 0.08372 0.78788 0.0
C2205 C 0.76302 0.07213 0.75237 0.0
C2206 C 0.77385 0.08972 0.80676 0.0
C2207 C 0.79052 0.08989 0.81078 0.0
C2208 C 0.77223 0.07778 0.77275 0.0
C2209 C 0.79738 0.08337 0.79544 0.0
C2210 C 0.76972 0.06553 0.73691 0.0
C2211 C 0.73882 0.06917 0.73016 0.0
N2212 N 0.78825 0.07768 0.777 0.0
N2213 N 0.74781 0.07369 0.74844 0.0
H2214 H 0.03008 0.30951 0.01848 0.0
H2215 H 0.09948 0.33771 0.11567 0.0
H2216 H 0.05565 0.36482 0.05529 0.0
H2217 H 0.07994 0.28553 0.0754 0.0
H2218 H 0.0816 0.34666 0.09478 0.0
H2219 H 0.04685 0.29956 0.03987 0.0
C2220 C 0.03931 0.31962 0.03097 0.0
C2221 C 0.04147 0.33805 0.03507 0.0
C2222 C 0.08115 0.33321 0.09053 0.0
C2223 C 0.06054 0.32665 0.05972 0.0
C2224 C 0.09136 0.32809 0.10245 0.0
C2225 C 0.09132 0.31091 0.0972 0.0
C2226 C 0.07076 0.32107 0.07319 0.0
C2227 C 0.08026 0.29882 0.0801 0.0
C2228 C 0.04883 0.31389 0.04321 0.0
C2229 C 0.05357 0.3505 0.05151 0.0
N2230 N 0.0705 0.30419 0.06863 0.0
N2231 N 0.06259 0.34454 0.06325 0.0
H2232 H 0.65131 0.66909 0.11141 0.0
H2233 H 0.65681 0.77042 0.10433 0.0
H2234 H 0.62183 0.67864 0.06483 0.0
H2235 H 0.68881 0.76215 0.14915 0.0
H2236 H 0.64264 0.73627 0.09063 0.0
H2237 H 0.66354 0.70239 0.12669 0.0
C2238 C 0.64725 0.67811 0.10448 0.0
C2239 C 0.6356 0.6711 0.08673 0.0
C2240 C 0.65275 0.74189 0.10346 0.0
C2241 C 0.64972 0.70931 0.10409 0.0
C2242 C 0.66081 0.76137 0.11132 0.0
C2243 C 0.67396 0.76909 0.12794 0.0
C2244 C 0.65786 0.73 0.11227 0.0
C2245 C 0.67886 0.75682 0.13621 0.0
C2246 C 0.65432 0.69717 0.11319 0.0
C2247 C 0.63081 0.68345 0.07847 0.0
N2248 N 0.67076 0.73784 0.12831 0.0
N2249 N 0.63798 0.702 0.08717 0.0
H2250 H 0.30969 0.95299 0.0055 0.0
H2251 H 0.26764 0.95115 0.10847 0.0
H2252 H 0.34467 0.97773 0.06062 0.0
H2253 H 0.23591 0.90313 0.06258 0.0
H2254 H 0.2951 0.96488 0.08875 0.0
H2255 H 0.28138 0.93729 0.02416 0.0
C2256 C 0.31143 0.95495 0.02147 0.0
C2257 C 0.32956 0.96672 0.03151 0.0
C2258 C 0.2821 0.95137 0.08298 0.0
C2259 C 0.2974 0.94932 0.05275 0.0
C2260 C 0.26643 0.94367 0.09411 0.0
C2261 C 0.24958 0.92606 0.08705 0.0
C2262 C 0.28079 0.94156 0.06453 0.0
C2263 C 0.24874 0.91674 0.06848 0.0
C2264 C 0.29531 0.94603 0.03207 0.0
C2265 C 0.33101 0.96878 0.05223 0.0
N2266 N 0.26415 0.92467 0.05775 0.0
N2267 N 0.31513 0.96039 0.06214 0.0
H2268 H 0.37094 0.05688 0.0222 0.0
H2269 H 0.29688 0.05648 0.94452 0.0
H2270 H 0.35176 0.02287 0.96502 0.0
H2271 H 0.32561 0.10091 0.99418 0.0
H2272 H 0.31356 0.04089 0.95483 0.0
H2273 H 0.35199 0.07096 0.01448 0.0
C2274 C 0.36286 0.05247 0.008 0.0
C2275 C 0.363 0.03873 0.99421 0.0
C2276 C 0.3161 0.05395 0.9636 0.0
C2277 C 0.34109 0.05447 0.98547 0.0
C2278 C 0.30638 0.0627 0.95788 0.0
C2279 C 0.30983 0.07999 0.96856 0.0
C2280 C 0.32938 0.06251 0.98015 0.0
C2281 C 0.32263 0.08765 0.98549 0.0
C2282 C 0.35201 0.06045 0.00365 0.0
C2283 C 0.35218 0.03347 0.97608 0.0
N2284 N 0.33203 0.0789 0.99073 0.0
N2285 N 0.34163 0.04128 0.97229 0.0
H2286 H 0.94371 0.30172 0.02628 0.0
H2287 H 0.91546 0.22119 0.93401 0.0
H2288 H 0.97612 0.31298 0.97531 0.0
H2289 H 0.87852 0.21379 0.98007 0.0
H2290 H 0.93876 0.25429 0.94981 0.0
H2291 H 0.9202 0.26893 0.01019 0.0
C2292 C 0.94585 0.29733 0.01168 0.0
C2293 C 0.96191 0.31009 0.00214 0.0
C2294 C 0.92554 0.24542 0.95644 0.0
C2295 C 0.93517 0.27255 0.98371 0.0
C2296 C 0.91232 0.22651 0.94751 0.0
C2297 C 0.89504 0.2148 0.95573 0.0
C2298 C 0.9215 0.25258 0.97379 0.0
C2299 C 0.89159 0.22245 0.97312 0.0
C2300 C 0.93243 0.27861 0.0025 0.0
C2301 C 0.96393 0.30363 0.9832 0.0
N2302 N 0.90471 0.24084 0.98159 0.0
N2303 N 0.95077 0.28527 0.97466 0.0
H2304 H 0.69432 0.68131 0.04459 0.0
H2305 H 0.76901 0.65691 0.00428 0.0
H2306 H 0.69064 0.62661 0.05103 0.0
H2307 H 0.7739 0.71257 0.00093 0.0
H2308 H 0.74202 0.64664 0.02421 0.0
H2309 H 0.7251 0.69408 0.03143 0.0
C2310 C 0.70004 0.672 0.04334 0.0
C2311 C 0.68979 0.65276 0.04869 0.0
C2312 C 0.74911 0.66118 0.01929 0.0
C2313 C 0.72507 0.66731 0.03354 0.0
C2314 C 0.76445 0.66701 0.00786 0.0
C2315 C 0.77353 0.68552 0.00076 0.0
C2316 C 0.7427 0.6739 0.02354 0.0
C2317 C 0.76732 0.69819 0.00613 0.0
C2318 C 0.71767 0.67934 0.03586 0.0
C2319 C 0.69802 0.64148 0.04696 0.0
N2320 N 0.75214 0.69205 0.01702 0.0
N2321 N 0.71512 0.64886 0.03933 0.0
H2322 H 0.94591 0.63291 0.01514 0.0
H2323 H 0.93132 0.71722 0.98365 0.0
H2324 H 0.99098 0.69424 0.02272 0.0
H2325 H 0.89875 0.65775 0.95487 0.0
H2326 H 0.95167 0.70895 0.00121 0.0
H2327 H 0.92608 0.6415 0.99671 0.0
C2328 C 0.95157 0.64817 0.01304 0.0
C2329 C 0.97011 0.66288 0.0204 0.0
C2330 C 0.9401 0.69777 0.99097 0.0
C2331 C 0.94758 0.67277 -0.0005 0.0
C2332 C 0.92855 0.70251 0.98079 0.0
C2333 C 0.91318 0.68816 0.96775 0.0
C2334 C 0.9361 0.67848 0.98834 0.0
C2335 C 0.91014 0.66921 0.96505 0.0
C2336 C 0.94032 0.65303 0.00243 0.0
C2337 C 0.97679 0.68242 0.01719 0.0
N2338 N 0.92138 0.66488 0.97538 0.0
N2339 N 0.96551 0.68682 0.00706 0.0
H2340 H 0.32646 0.31871 0.98101 0.0
H2341 H 0.33526 0.24236 0.90961 0.0
H2342 H 0.38077 0.32921 0.96596 0.0
H2343 H 0.2936 0.22291 0.95271 0.0
H2344 H 0.34891 0.27626 0.92394 0.0
H2345 H 0.31105 0.2851 0.96453 0.0
C2346 C 0.3351 0.31395 0.97415 0.0
C2347 C 0.3549 0.32664 0.97488 0.0
C2348 C 0.33671 0.26451 0.93011 0.0
C2349 C 0.3374 0.28863 0.9558 0.0
C2350 C 0.32893 0.24514 0.92204 0.0
C2351 C 0.31342 0.22961 0.93017 0.0
C2352 C 0.32868 0.26846 0.94612 0.0
C2353 C 0.30545 0.23432 0.94583 0.0
C2354 C 0.32632 0.29483 0.96484 0.0
C2355 C 0.36548 0.31979 0.96584 0.0
N2356 N 0.3132 0.25335 0.95333 0.0
N2357 N 0.35657 0.30124 0.95652 0.0
H2358 H 0.65469 0.05874 0.00506 0.0
H2359 H 0.74383 0.05224 0.98316 0.0
H2360 H 0.67194 0.02699 0.03918 0.0
H2361 H 0.7399 0.1011 0.96817 0.0
H2362 H 0.7167 0.04186 0.00283 0.0
H2363 H 0.68513 0.07382 0.9902 0.0
C2364 C 0.66493 0.05512 0.00959 0.0
C2365 C 0.66069 0.04146 0.02324 0.0
C2366 C 0.72189 0.05493 0.99532 0.0
C2367 C 0.69526 0.05836 0.00616 0.0
C2368 C 0.73743 0.06092 0.98414 0.0
C2369 C 0.74406 0.07744 0.97375 0.0
C2370 C 0.71276 0.06538 0.99592 0.0
C2371 C 0.73498 0.08795 0.97545 0.0
C2372 C 0.68228 0.06372 0.00113 0.0
C2373 C 0.67452 0.03735 0.02862 0.0
N2374 N 0.71966 0.08162 0.98612 0.0
N2375 N 0.69106 0.04555 0.01988 0.0
H2376 H 0.61743 0.94284 0.06285 0.0
H2377 H 0.7079 0.94775 0.1137 0.0
H2378 H 0.66943 0.99666 0.08555 0.0
H2379 H 0.65228 0.89454 0.10444 0.0
H2380 H 0.69542 0.96516 0.09759 0.0
H2381 H 0.63131 0.9242 0.07284 0.0
C2382 C 0.63176 0.95072 0.06985 0.0
C2383 C 0.64221 0.97129 0.07359 0.0
C2384 C 0.68598 0.94963 0.09894 0.0
C2385 C 0.65818 0.95019 0.0848 0.0
C2386 C 0.69313 0.93968 0.10799 0.0
C2387 C 0.68103 0.91976 0.11057 0.0
C2388 C 0.66663 0.93956 0.09237 0.0
C2389 C 0.66198 0.91 0.10302 0.0
C2390 C 0.63966 0.9401 0.07553 0.0
C2391 C 0.66076 0.98079 0.0826 0.0
N2392 N 0.65532 0.92003 0.09435 0.0
N2393 N 0.66812 0.97017 0.08792 0.0
H2394 H 0.02147 0.68547 0.11909 0.0
H2395 H 0.09907 0.79465 0.09711 0.0
H2396 H 0.04269 0.70027 0.0619 0.0
H2397 H 0.09165 0.77648 0.15577 0.0
H2398 H 0.07503 0.76087 0.08382 0.0
H2399 H 0.04428 0.71953 0.13275 0.0
C2400 C 0.03095 0.69587 0.10942 0.0
C2401 C 0.03024 0.69003 0.08934 0.0
C2402 C 0.07861 0.76429 0.09961 0.0
C2403 C 0.05611 0.72896 0.1048 0.0
C2404 C 0.09217 0.78357 0.1072 0.0
C2405 C 0.09729 0.78829 0.12754 0.0
C2406 C 0.06999 0.74968 0.11248 0.0
C2407 C 0.08815 0.77336 0.13997 0.0
C2408 C 0.04395 0.71527 0.11723 0.0
C2409 C 0.04284 0.7041 0.07749 0.0
N2410 N 0.0749 0.75469 0.13224 0.0
N2411 N 0.05519 0.72294 0.08538 0.0
H2412 H 0.33654 0.36207 0.06616 0.0
H2413 H 0.2259 0.32139 0.05832 0.0
H2414 H 0.30874 0.36902 0.01594 0.0
H2415 H 0.25868 0.33256 0.11328 0.0
H2416 H 0.25533 0.33613 0.04142 0.0
H2417 H 0.30742 0.34909 0.08288 0.0
C2418 C 0.32432 0.36101 0.05871 0.0
C2419 C 0.32503 0.36662 0.03965 0.0
C2420 C 0.25604 0.33537 0.05718 0.0
C2421 C 0.29153 0.35147 0.05858 0.0
C2422 C 0.23928 0.32683 0.06676 0.0
C2423 C 0.23994 0.32582 0.08718 0.0
C2424 C 0.27345 0.34265 0.06811 0.0
C2425 C 0.25761 0.33322 0.09753 0.0
C2426 C 0.3077 0.35359 0.06826 0.0
C2427 C 0.30879 0.36495 0.03069 0.0
N2428 N 0.27365 0.34125 0.08787 0.0
N2429 N 0.29259 0.35732 0.04018 0.0
H2430 H 0.67302 0.64476 0.38304 0.0
H2431 H 0.77122 0.68335 0.44489 0.0
H2432 H 0.71955 0.70546 0.38847 0.0
H2433 H 0.73485 0.62321 0.41874 0.0
H2434 H 0.74995 0.69143 0.42911 0.0
H2435 H 0.6932 0.63642 0.40093 0.0
C2436 C 0.68747 0.65635 0.38806 0.0
C2437 C 0.69466 0.67584 0.38422 0.0
C2438 C 0.74664 0.67646 0.4269 0.0
C2439 C 0.71769 0.66639 0.40481 0.0
C2440 C 0.7588 0.67182 0.43582 0.0
C2441 C 0.755 0.65259 0.43295 0.0
C2442 C 0.73038 0.66174 0.41523 0.0
C2443 C 0.73833 0.63818 0.42153 0.0
C2444 C 0.69896 0.65156 0.3982 0.0
C2445 C 0.71348 0.69024 0.39102 0.0
N2446 N 0.72665 0.64307 0.41305 0.0
N2447 N 0.72435 0.68524 0.40107 0.0
H2448 H 0.32847 0.02419 0.38606 0.0
H2449 H 0.36873 0.10193 0.48252 0.0
H2450 H 0.32557 0.00737 0.44508 0.0
H2451 H 0.35246 0.11286 0.42668 0.0
H2452 H 0.35913 0.06882 0.46799 0.0
H2453 H 0.34334 0.05846 0.3999 0.0
C2454 C 0.33106 0.02771 0.40193 0.0
C2455 C 0.32561 0.0129 0.41446 0.0
C2456 C 0.35783 0.07856 0.45891 0.0
C2457 C 0.34272 0.05205 0.43034 0.0
C2458 C 0.36341 0.09742 0.46712 0.0
C2459 C 0.36124 0.10996 0.45575 0.0
C2460 C 0.35029 0.07241 0.43915 0.0
C2461 C 0.35417 0.10348 0.43594 0.0
C2462 C 0.33951 0.04726 0.4098 0.0
C2463 C 0.32937 0.01832 0.43491 0.0
N2464 N 0.34891 0.08512 0.42826 0.0
N2465 N 0.33769 0.03749 0.44223 0.0
H2466 H 0.02087 0.31649 0.39845 0.0
H2467 H 0.91069 0.23435 0.38655 0.0
H2468 H 0.99114 0.28893 0.34111 0.0
H2469 H 0.93648 0.28079 0.43466 0.0
H2470 H 0.94061 0.25095 0.37056 0.0
H2471 H 0.99057 0.29967 0.41328 0.0
C2472 C 0.00799 0.30673 0.38899 0.0
C2473 C 0.00851 0.30411 0.3685 0.0
C2474 C 0.93962 0.25755 0.38452 0.0
C2475 C 0.97384 0.28489 0.38539 0.0
C2476 C 0.92263 0.24813 0.39361 0.0
C2477 C 0.92119 0.25635 0.41183 0.0
C2478 C 0.95532 0.27502 0.39399 0.0
C2479 C 0.937 0.27415 0.42048 0.0
C2480 C 0.99071 0.29729 0.39745 0.0
C2481 C 0.99135 0.2914 0.35696 0.0
N2482 N 0.9535 0.2828 0.41158 0.0
N2483 N 0.97467 0.28217 0.36558 0.0
H2484 H 0.05745 0.39512 0.35588 0.0
H2485 H 0.99296 0.40488 0.27429 0.0
H2486 H 0.0382 0.36149 0.2985 0.0
H2487 H 0.02202 0.44764 0.32516 0.0
H2488 H 0.00708 0.38691 0.28491 0.0
H2489 H 0.04296 0.41328 0.34639 0.0
C2490 C 0.0503 0.39164 0.34126 0.0
C2491 C 0.04903 0.37676 0.32796 0.0
C2492 C 0.01032 0.40016 0.29383 0.0
C2493 C 0.03225 0.39725 0.31717 0.0
C2494 C 0.00207 0.4103 0.28791 0.0
C2495 C 0.00621 0.42769 0.29896 0.0
C2496 C 0.02279 0.40741 0.31099 0.0
C2497 C 0.0185 0.43431 0.31621 0.0
C2498 C 0.04201 0.40198 0.33588 0.0
C2499 C 0.03956 0.37285 0.30923 0.0
N2500 N 0.02637 0.42414 0.32172 0.0
N2501 N 0.03146 0.38295 0.30445 0.0
H2502 H 0.64075 0.64741 0.30925 0.0
H2503 H 0.5379 0.54935 0.30846 0.0
H2504 H 0.59869 0.64061 0.34885 0.0
H2505 H 0.57885 0.5558 0.26756 0.0
H2506 H 0.56053 0.58254 0.32397 0.0
H2507 H 0.61866 0.61383 0.29403 0.0
C2508 C 0.62684 0.63889 0.31469 0.0
C2509 C 0.62155 0.64684 0.33036 0.0
C2510 C 0.56463 0.57673 0.31164 0.0
C2511 C 0.59627 0.60838 0.31307 0.0
C2512 C 0.55169 0.55779 0.30274 0.0
C2513 C 0.55646 0.54989 0.28659 0.0
C2514 C 0.58252 0.58792 0.30434 0.0
C2515 C 0.57465 0.56131 0.28004 0.0
C2516 C 0.61426 0.61971 0.30602 0.0
C2517 C 0.60337 0.63511 0.33681 0.0
N2518 N 0.58701 0.57983 0.28888 0.0
N2519 N 0.59141 0.61648 0.32816 0.0
H2520 H 0.32761 0.93617 0.36562 0.0
H2521 H 0.43943 0.99203 0.35579 0.0
H2522 H 0.36947 0.97556 0.41282 0.0
H2523 H 0.39669 0.96249 0.3067 0.0
H2524 H 0.41422 0.98224 0.37821 0.0
H2525 H 0.35309 0.94108 0.34544 0.0
C2526 C 0.34216 0.94568 0.37184 0.0
C2527 C 0.34641 0.95568 0.39086 0.0
C2528 C 0.41041 0.97782 0.36253 0.0
C2529 C 0.37569 0.96149 0.36771 0.0
C2530 C 0.42477 0.98351 0.34971 0.0
C2531 C 0.42019 0.97816 0.32929 0.0
C2532 C 0.39134 0.96664 0.35489 0.0
C2533 C 0.40094 0.96676 0.32232 0.0
C2534 C 0.35672 0.94854 0.36026 0.0
C2535 C 0.36554 0.96769 0.39818 0.0
N2536 N 0.38725 0.96145 0.33508 0.0
N2537 N 0.37951 0.97041 0.38651 0.0
H2538 H 0.60472 0.95341 0.3553 0.0
H2539 H 0.58988 0.0168 0.28022 0.0
H2540 H 0.65072 0.00056 0.32803 0.0
H2541 H 0.54481 0.97116 0.3098 0.0
H2542 H 0.61243 0.01074 0.29688 0.0
H2543 H 0.58246 0.95912 0.33775 0.0
C2544 C 0.61015 0.96494 0.34558 0.0
C2545 C 0.62963 0.97655 0.34317 0.0
C2546 C 0.59759 0.00202 0.29966 0.0
C2547 C 0.6042 0.98321 0.32303 0.0
C2548 C 0.58474 0.00554 0.29022 0.0
C2549 C 0.56541 0.99439 0.29352 0.0
C2550 C 0.59106 0.9873 0.31252 0.0
C2551 C 0.55951 0.97986 0.30651 0.0
C2552 C 0.59743 0.96821 0.33557 0.0
C2553 C 0.63583 0.99127 0.33036 0.0
N2554 N 0.57226 0.97676 0.31552 0.0
N2555 N 0.62316 0.9942 0.32079 0.0
H2556 H 0.02894 0.67491 0.2938 0.0
H2557 H 0.97827 0.55925 0.30039 0.0
H2558 H 0.00498 0.64682 0.34602 0.0
H2559 H 0.00304 0.58715 0.24835 0.0
H2560 H 0.98608 0.59096 0.31658 0.0
H2561 H 0.0182 0.64272 0.27632 0.0
C2562 C 0.02143 0.66198 0.3016 0.0
C2563 C 0.01794 0.66357 0.32144 0.0
C2564 C 0.98971 0.59015 0.30157 0.0
C2565 C 0.00554 0.62669 0.3015 0.0
C2566 C 0.98511 0.572 0.29226 0.0
C2567 C 0.99004 0.57056 0.273 0.0
C2568 C -0.00064 0.607 0.29158 0.0
C2569 C -0.00081 0.58765 0.26331 0.0
C2570 C 0.01527 0.6436 0.29159 0.0
C2571 C 0.00806 0.64631 0.33076 0.0
N2572 N 0.00363 0.60518 0.27274 0.0
N2573 N 0.00224 0.6286 0.32072 0.0
H2574 H 0.32402 0.3999 0.34821 0.0
H2575 H 0.4216 0.4118 0.32269 0.0
H2576 H 0.34262 0.36415 0.37169 0.0
H2577 H 0.38443 0.41371 0.27857 0.0
H2578 H 0.39688 0.40179 0.34563 0.0
H2579 H 0.35112 0.41364 0.32768 0.0
C2580 C 0.33404 0.39529 0.34932 0.0
C2581 C 0.33117 0.38089 0.3615 0.0
C2582 C 0.39429 0.40452 0.33092 0.0
C2583 C 0.36193 0.39647 0.33844 0.0
C2584 C 0.40828 0.41001 0.31769 0.0
C2585 C 0.40516 0.41353 0.29848 0.0
C2586 C 0.37726 0.40297 0.3251 0.0
C2587 C 0.38772 0.41153 0.29324 0.0
C2588 C 0.34932 0.40297 0.33755 0.0
C2589 C 0.34437 0.37518 0.36234 0.0
N2590 N 0.37447 0.40648 0.30651 0.0
N2591 N 0.35925 0.38303 0.35096 0.0
H2592 H 0.33565 0.33303 0.42166 0.0
H2593 H 0.31884 0.22701 0.43036 0.0
H2594 H 0.28577 0.2793 0.39482 0.0
H2595 H 0.37132 0.28153 0.44999 0.0
H2596 H 0.30665 0.24563 0.41638 0.0
H2597 H 0.34896 0.31418 0.43166 0.0
C2598 C 0.32746 0.31723 0.41788 0.0
C2599 C 0.3095 0.3077 0.40748 0.0
C2600 C 0.32089 0.25351 0.42357 0.0
C2601 C 0.32475 0.28599 0.41889 0.0
C2602 C 0.32783 0.24291 0.43158 0.0
C2603 C 0.34606 0.25278 0.44145 0.0
C2604 C 0.33221 0.27414 0.42559 0.0
C2605 C 0.35724 0.27334 0.4424 0.0
C2606 C 0.33513 0.30648 0.42353 0.0
C2607 C 0.29963 0.28722 0.40288 0.0
N2608 N 0.35006 0.28335 0.43475 0.0
N2609 N 0.30735 0.27701 0.40871 0.0
H2610 H 0.68477 0.01909 0.41266 0.0
H2611 H 0.79333 0.09973 0.44697 0.0
H2612 H 0.72872 0.0062 0.41691 0.0
H2613 H 0.7484 0.11095 0.45249 0.0
H2614 H 0.76976 0.06551 0.43551 0.0
H2615 H 0.70771 0.05284 0.42686 0.0
C2616 C 0.69922 0.02332 0.41667 0.0
C2617 C 0.70487 0.00982 0.41351 0.0
C2618 C 0.76501 0.0754 0.43932 0.0
C2619 C 0.73118 0.04844 0.42965 0.0
C2620 C 0.77848 0.09496 0.44598 0.0
C2621 C 0.77285 0.10826 0.45085 0.0
C2622 C 0.74573 0.06902 0.43731 0.0
C2623 C 0.75341 0.10128 0.44874 0.0
C2624 C 0.7123 0.04259 0.42479 0.0
C2625 C 0.72375 0.0161 0.41904 0.0
N2626 N 0.74054 0.08213 0.44209 0.0
N2627 N 0.73625 0.03499 0.42673 0.0
H2628 H 0.96202 0.6828 0.32563 0.0
H2629 H 0.92292 0.67492 0.43216 0.0
H2630 H 0.99659 0.71796 0.37881 0.0
H2631 H 0.88568 0.64903 0.3786 0.0
H2632 H 0.95016 0.68907 0.41252 0.0
H2633 H 0.93386 0.66914 0.34435 0.0
C2634 C 0.96368 0.6878 0.34118 0.0
C2635 C 0.98172 0.70149 0.35068 0.0
C2636 C 0.93605 0.68033 0.40501 0.0
C2637 C 0.94964 0.68573 0.37217 0.0
C2638 C 0.92046 0.67226 0.41623 0.0
C2639 C 0.90196 0.66095 0.40701 0.0
C2640 C 0.93321 0.67701 0.38435 0.0
C2641 C 0.89969 0.65757 0.38632 0.0
C2642 C 0.94761 0.67996 0.35184 0.0
C2643 C 0.98301 0.70742 0.37085 0.0
N2644 N 0.91516 0.66562 0.37565 0.0
N2645 N 0.96723 0.6994 0.38092 0.0
H2646 H 0.37328 0.99134 0.69147 0.0
H2647 H 0.44358 0.032 0.79 0.0
H2648 H 0.39 0.04557 0.72687 0.0
H2649 H 0.42892 0.97928 0.75301 0.0
H2650 H 0.42314 0.03665 0.76767 0.0
H2651 H 0.3931 0.98632 0.71425 0.0
C2652 C 0.38121 0.00226 0.70396 0.0
C2653 C 0.37998 0.01891 0.70725 0.0
C2654 C 0.42432 0.024 0.7645 0.0
C2655 C 0.40258 0.01317 0.73349 0.0
C2656 C 0.43599 0.02136 0.77724 0.0
C2657 C 0.43795 0.00522 0.7734 0.0
C2658 C 0.41456 0.01045 0.74775 0.0
C2659 C 0.42763 0.99177 0.75674 0.0
C2660 C 0.39248 -0.00065 0.71701 0.0
C2661 C 0.39053 0.03252 0.72373 0.0
N2662 N 0.41645 0.99474 0.7445 0.0
N2663 N 0.40135 0.02933 0.73625 0.0
H2664 H 0.97813 0.34555 0.71164 0.0
H2665 H 0.01693 0.41946 0.81078 0.0
H2666 H 0.98782 0.32931 0.76762 0.0
H2667 H 0.98816 0.42556 0.76089 0.0
H2668 H 0.01147 0.38883 0.79354 0.0
H2669 H 0.98685 0.37758 0.72802 0.0
C2670 C 0.98217 0.34875 0.72735 0.0
C2671 C 0.98213 0.33472 0.73832 0.0
C2672 C 0.00642 0.39694 0.78638 0.0
C2673 C 0.99223 0.37131 0.75707 0.0
C2674 C 0.00962 0.4144 0.79614 0.0
C2675 C 0.00284 0.42486 0.78724 0.0
C2676 C 0.99666 0.39015 0.76753 0.0
C2677 C 0.99338 0.41773 0.76831 0.0
C2678 C 0.98709 0.367 0.73669 0.0
C2679 C 0.98751 0.33966 0.75864 0.0
N2680 N 0.99058 0.40081 0.75905 0.0
N2681 N 0.99237 0.35758 0.76738 0.0
H2682 H 0.68361 0.64986 0.72961 0.0
H2683 H 0.57435 0.56429 0.72791 0.0
H2684 H 0.65324 0.60749 0.67867 0.0
H2685 H 0.60275 0.61503 0.77139 0.0
H2686 H 0.60327 0.57831 0.71033 0.0
H2687 H 0.65442 0.63528 0.74614 0.0
C2688 C 0.67081 0.63738 0.72191 0.0
C2689 C 0.67088 0.62993 0.70265 0.0
C2690 C 0.6031 0.58642 0.72363 0.0
C2691 C 0.63725 0.61319 0.72159 0.0
C2692 C 0.58664 0.57843 0.73367 0.0
C2693 C 0.58618 0.58855 0.7511 0.0
C2694 C 0.61923 0.60453 0.73124 0.0
C2695 C 0.60242 0.60685 0.75788 0.0
C2696 C 0.6541 0.62913 0.73135 0.0
C2697 C 0.65383 0.61372 0.69349 0.0
N2698 N 0.61832 0.61418 0.74801 0.0
N2699 N 0.63766 0.60588 0.70305 0.0
H2700 H 0.68502 0.67947 0.63336 0.0
H2701 H 0.67799 0.77416 0.65469 0.0
H2702 H 0.71726 0.72443 0.6819 0.0
H2703 H 0.64427 0.72707 0.60839 0.0
H2704 H 0.6925 0.75636 0.66525 0.0
H2705 H 0.67031 0.69718 0.62399 0.0
C2706 C 0.6891 0.69314 0.64201 0.0
C2707 C 0.7024 0.70047 0.65846 0.0
C2708 C 0.68182 0.74987 0.65287 0.0
C2709 C 0.68544 0.72082 0.64786 0.0
C2710 C 0.67355 0.76002 0.64685 0.0
C2711 C 0.65986 0.75205 0.63068 0.0
C2712 C 0.67645 0.73171 0.64256 0.0
C2713 C 0.65453 0.73363 0.62112 0.0
C2714 C 0.68061 0.70323 0.63669 0.0
C2715 C 0.70709 0.71826 0.6691 0.0
N2716 N 0.66291 0.72415 0.62715 0.0
N2717 N 0.69858 0.72784 0.66362 0.0
H2718 H 0.28473 0.96949 0.70113 0.0
H2719 H 0.24519 0.88917 0.60674 0.0
H2720 H 0.3084 0.98195 0.64471 0.0
H2721 H 0.21547 0.88158 0.65929 0.0
H2722 H 0.27033 0.92209 0.6214 0.0
H2723 H 0.26082 0.93613 0.68687 0.0
C2724 C 0.2849 0.96521 0.68573 0.0
C2725 C 0.29855 0.97854 0.67408 0.0
C2726 C 0.25832 0.91319 0.62972 0.0
C2727 C 0.27127 0.94032 0.65768 0.0
C2728 C 0.24407 0.89438 0.62143 0.0
C2729 C 0.22823 0.88272 0.63181 0.0
C2730 C 0.25676 0.92026 0.64858 0.0
C2731 C 0.22735 0.89022 0.6507 0.0
C2732 C 0.27123 0.94616 0.6776 0.0
C2733 C 0.29808 0.97217 0.65421 0.0
N2734 N 0.24141 0.90851 0.65848 0.0
N2735 N 0.28468 0.95349 0.64664 0.0
H2736 H 0.04186 0.31414 0.74121 0.0
H2737 H 0.07993 0.32507 0.63473 0.0
H2738 H 0.00754 0.27723 0.6886 0.0
H2739 H 0.11807 0.34614 0.6876 0.0
H2740 H 0.0531 0.30966 0.65479 0.0
H2741 H 0.07004 0.32761 0.72249 0.0
C2742 C 0.04027 0.30867 0.72583 0.0
C2743 C 0.02228 0.29465 0.71642 0.0
C2744 C 0.06733 0.31758 0.66202 0.0
C2745 C 0.05431 0.31022 0.69496 0.0
C2746 C 0.08269 0.32637 0.65057 0.0
C2747 C 0.10133 0.33675 0.65944 0.0
C2748 C 0.07053 0.31934 0.68259 0.0
C2749 C 0.10396 0.33841 0.68012 0.0
C2750 C 0.05635 0.3164 0.71517 0.0
C2751 C 0.02108 0.28808 0.69647 0.0
N2752 N 0.0887 0.3298 0.69103 0.0
N2753 N 0.03683 0.29609 0.68637 0.0
H2754 H 0.27665 0.29954 0.69658 0.0
H2755 H 0.26518 0.35675 0.61193 0.0
H2756 H 0.31325 0.31944 0.64891 0.0
H2757 H 0.22157 0.32407 0.65069 0.0
H2758 H 0.2843 0.34534 0.62676 0.0
H2759 H 0.25721 0.31015 0.68114 0.0
C2760 C 0.28053 0.30603 0.68282 0.0
C2761 C 0.29659 0.3086 0.67403 0.0
C2762 C 0.27051 0.34062 0.63196 0.0
C2763 C 0.27455 0.32097 0.65639 0.0
C2764 C 0.25968 0.34723 0.62359 0.0
C2765 C 0.24175 0.34124 0.63003 0.0
C2766 C 0.26344 0.32816 0.64701 0.0
C2767 C 0.23522 0.32881 0.64512 0.0
C2768 C 0.26944 0.31209 0.67401 0.0
C2769 C 0.30096 0.31712 0.65618 0.0
N2770 N 0.24608 0.32273 0.65313 0.0
N2771 N 0.29008 0.32312 0.64802 0.0
H2772 H 0.67195 0.97863 0.68032 0.0
H2773 H 0.65936 0.91189 0.58096 0.0
H2774 H 0.69287 0.00182 0.62523 0.0
H2775 H 0.6401 0.88866 0.6364 0.0
H2776 H 0.67039 0.94481 0.59661 0.0
H2777 H 0.65916 0.94543 0.66427 0.0
C2778 C 0.6739 0.97676 0.66486 0.0
C2779 C 0.68354 0.99304 0.65411 0.0
C2780 C 0.66367 0.93251 0.60535 0.0
C2781 C 0.66884 0.95507 0.63563 0.0
C2782 C 0.6574 0.91372 0.59642 0.0
C2783 C 0.64888 0.89753 0.60742 0.0
C2784 C 0.66146 0.93517 0.62545 0.0
C2785 C 0.64644 0.9007 0.62733 0.0
C2786 C 0.66655 0.95778 0.65569 0.0
C2787 C 0.68559 0.98971 0.63411 0.0
N2788 N 0.6528 0.91918 0.63574 0.0
N2789 N 0.67829 0.9711 0.62552 0.0
H2790 H -0.00036 0.73113 0.71082 0.0
H2791 H 0.06863 0.71198 0.64728 0.0
H2792 H 0.98635 0.67355 0.68758 0.0
H2793 H 0.07547 0.76884 0.65807 0.0
H2794 H 0.04116 0.69818 0.667 0.0
H2795 H 0.03011 0.74573 0.69605 0.0
C2796 C 0.00316 0.72157 0.7027 0.0
C2797 C 0.99037 0.70113 0.70025 0.0
C2798 C 0.04875 0.71371 0.66515 0.0
C2799 C 0.02513 0.71764 0.68352 0.0
C2800 C 0.06448 0.72158 0.65403 0.0
C2801 C 0.07414 0.74149 0.6509 0.0
C2802 C 0.04278 0.72588 0.67328 0.0
C2803 C 0.06816 0.75331 0.65987 0.0
C2804 C 0.02051 0.7299 0.69427 0.0
C2805 C 0.99567 0.68941 0.68965 0.0
N2806 N 0.05279 0.74531 0.67059 0.0
N2807 N 0.01262 0.69784 0.68166 0.0
H2808 H 0.98101 0.65037 0.75592 0.0
H2809 H 0.95392 0.54076 0.76498 0.0
H2810 H 0.92943 0.59977 0.72719 0.0
H2811 H 0.00981 0.59229 0.78086 0.0
H2812 H 0.94399 0.5616 0.75163 0.0
H2813 H 0.99097 0.62882 0.76624 0.0
C2814 C 0.97172 0.63468 0.75182 0.0
C2815 C 0.95432 0.62684 0.74072 0.0
C2816 C 0.95847 0.56829 0.75786 0.0
C2817 C 0.96573 0.60201 0.75249 0.0
C2818 C 0.96412 0.55644 0.76552 0.0
C2819 C 0.9827 0.56485 0.77406 0.0
C2820 C 0.97145 0.58868 0.759 0.0
C2821 C 0.99541 0.58518 0.77424 0.0
C2822 C 0.97749 0.62238 0.75764 0.0
C2823 C 0.94294 0.6064 0.73576 0.0
N2824 N 0.9895 0.59641 0.76698 0.0
N2825 N 0.94882 0.59464 0.74177 0.0
H2826 H 0.37201 0.37591 0.70597 0.0
H2827 H 0.42656 0.43792 0.80938 0.0
H2828 H 0.36607 0.34986 0.76044 0.0
H2829 H 0.4313 0.46398 0.75518 0.0
H2830 H 0.4033 0.40565 0.79203 0.0
H2831 H 0.39295 0.40841 0.72398 0.0
C2832 C 0.37512 0.37701 0.72172 0.0
C2833 C 0.36732 0.36012 0.7317 0.0
C2834 C 0.40931 0.41844 0.78395 0.0
C2835 C 0.39125 0.39732 0.75244 0.0
C2836 C 0.42261 0.43685 0.79385 0.0
C2837 C 0.43091 0.45364 0.78369 0.0
C2838 C 0.40435 0.41679 0.76372 0.0
C2839 C 0.42511 0.45146 0.76363 0.0
C2840 C 0.38704 0.39559 0.73201 0.0
C2841 C 0.3718 0.36247 0.75213 0.0
N2842 N 0.41229 0.43335 0.75427 0.0
N2843 N 0.3835 0.38072 0.76181 0.0
H2844 H 0.63021 0.00708 0.65995 0.0
H2845 H 0.59018 0.04611 0.74443 0.0
H2846 H 0.6631 0.06524 0.69153 0.0
H2847 H 0.56764 0.98449 0.72756 0.0
H2848 H 0.61368 0.05448 0.72031 0.0
H2849 H 0.60355 -0.0 0.67947 0.0
C2850 C 0.63172 0.01848 0.67074 0.0
C2851 C 0.64896 0.03673 0.67426 0.0
C2852 C 0.60351 0.03914 0.72184 0.0
C2853 C 0.61857 0.02867 0.69662 0.0
C2854 C 0.59016 0.03432 0.73572 0.0
C2855 C 0.57701 0.01454 0.73828 0.0
C2856 C 0.60362 0.02409 0.71026 0.0
C2857 C 0.57737 -7e-05 0.72607 0.0
C2858 C 0.61654 0.01437 0.68195 0.0
C2859 C 0.65012 0.05093 0.68846 0.0
N2860 N 0.59051 0.005 0.71265 0.0
N2861 N 0.63516 0.04656 0.6992 0.0
loop_
_geom_bond_atom_site_label_1
_geom_bond_atom_site_label_2
_geom_bond_distance
_geom_bond_site_symmetry_2
_ccdc_geom_bond_type
C0 O1 1.160 . S
C0 O7 1.185 . S
O1 C0 1.160 . S
O2 Zn3 1.899 1_655 S
O2 C10 1.284 . S
Zn3 O2 1.899 1_455 S
Zn3 O4 2.032 . S
Zn3 O7 2.086 . S
Zn3 O12 1.977 . S
O4 Zn3 2.032 . S
O4 C8 1.278 1_455 S
C5 O6 1.203 1_455 S
C5 O12 1.267 1_556 S
O6 C5 1.203 1_655 S
O7 C0 1.185 . S
O7 Zn3 2.086 . S
C8 O4 1.278 1_655 S
C8 O9 1.211 . S
O9 C8 1.211 . S
C10 O2 1.284 . S
C10 O11 1.273 . S
O11 C10 1.273 . S
O12 Zn3 1.977 . S
O12 C5 1.267 1_554 S
C13 O14 1.160 . S
C13 O20 1.185 . S
O14 C13 1.160 . S
O15 Zn16 1.899 . S
O15 C23 1.284 . S
Zn16 O15 1.899 . S
Zn16 O17 2.032 . S
Zn16 O20 2.086 . S
Zn16 O25 1.977 . S
O17 Zn16 2.032 . S
O17 C21 1.278 . S
C18 O19 1.203 . S
C18 O25 1.267 . S
O19 C18 1.203 . S
O20 C13 1.185 . S
O20 Zn16 2.086 . S
C21 O17 1.278 . S
C21 O22 1.211 . S
O22 C21 1.211 . S
C23 O15 1.284 . S
C23 O24 1.273 . S
O24 C23 1.273 . S
O25 Zn16 1.977 . S
O25 C18 1.267 . S
C26 O27 1.160 . S
C26 O33 1.185 . S
O27 C26 1.160 . S
O28 Zn29 1.899 1_565 S
O28 C36 1.284 . S
Zn29 O28 1.899 1_545 S
Zn29 O30 2.032 . S
Zn29 O33 2.086 . S
Zn29 O38 1.977 . S
O30 Zn29 2.032 . S
O30 C34 1.278 1_545 S
C31 O32 1.203 1_545 S
C31 O38 1.267 . S
O32 C31 1.203 1_565 S
O33 C26 1.185 . S
O33 Zn29 2.086 . S
C34 O30 1.278 1_565 S
C34 O35 1.211 . S
O35 C34 1.211 . S
C36 O28 1.284 . S
C36 O37 1.273 . S
O37 C36 1.273 . S
O38 Zn29 1.977 . S
O38 C31 1.267 . S
C39 O40 1.160 . S
C39 O46 1.185 . S
O40 C39 1.160 . S
O41 Zn42 1.899 1_455 S
O41 C49 1.284 . S
Zn42 O41 1.899 1_655 S
Zn42 O43 2.017 1_655 S
Zn42 O46 2.086 . S
Zn42 O51 1.977 . S
O43 Zn42 2.017 1_455 S
O43 C47 1.310 . S
C44 O45 1.203 1_655 S
C44 O51 1.267 . S
O45 C44 1.203 1_455 S
O46 C39 1.185 . S
O46 Zn42 2.086 . S
C47 O43 1.310 . S
C47 O48 1.211 . S
O48 C47 1.211 . S
C49 O41 1.284 . S
C49 O50 1.273 . S
O50 C49 1.273 . S
O51 Zn42 1.977 . S
O51 C44 1.267 . S
C52 O53 1.160 . S
C52 O59 1.185 . S
O53 C52 1.160 . S
O54 Zn55 1.899 1_556 S
O54 C62 1.284 . S
Zn55 O54 1.899 1_554 S
Zn55 O56 2.032 . S
Zn55 O59 2.086 . S
Zn55 O64 1.977 1_554 S
O56 Zn55 2.032 . S
O56 C60 1.278 . S
C57 O58 1.203 . S
C57 O64 1.267 . S
O58 C57 1.203 . S
O59 C52 1.185 . S
O59 Zn55 2.086 . S
C60 O56 1.278 . S
C60 O61 1.211 . S
O61 C60 1.211 . S
C62 O54 1.284 . S
C62 O63 1.263 1_556 S
O63 C62 1.263 1_554 S
O64 Zn55 1.977 1_556 S
O64 C57 1.267 . S
C65 O66 1.160 . S
C65 O72 1.185 . S
O66 C65 1.160 . S
O67 Zn68 1.899 1_545 S
O67 C75 1.284 . S
Zn68 O67 1.899 1_565 S
Zn68 O69 2.032 1_565 S
Zn68 O72 2.086 . S
Zn68 O77 1.977 . S
O69 Zn68 2.032 1_545 S
O69 C73 1.278 . S
C70 O71 1.203 1_565 S
C70 O77 1.267 . S
O71 C70 1.203 1_545 S
O72 C65 1.185 . S
O72 Zn68 2.086 . S
C73 O69 1.278 . S
C73 O74 1.211 . S
O74 C73 1.211 . S
C75 O67 1.284 . S
C75 O76 1.273 . S
O76 C75 1.273 . S
O77 Zn68 1.977 . S
O77 C70 1.267 . S
C78 O79 1.160 . S
C78 O85 1.185 . S
O79 C78 1.160 . S
O80 Zn81 1.899 . S
O80 C88 1.284 . S
Zn81 O80 1.899 . S
Zn81 O82 2.032 . S
Zn81 O85 2.086 . S
Zn81 O90 1.977 . S
O82 Zn81 2.032 . S
O82 C86 1.278 . S
C83 O84 1.203 . S
C83 O90 1.267 . S
O84 C83 1.203 . S
O85 C78 1.185 . S
O85 Zn81 2.086 . S
C86 O82 1.278 . S
C86 O87 1.211 . S
O87 C86 1.211 . S
C88 O80 1.284 . S
C88 O89 1.273 . S
O89 C88 1.273 . S
O90 Zn81 1.977 . S
O90 C83 1.267 . S
C91 O92 1.160 . S
C91 O98 1.185 . S
O92 C91 1.160 . S
O93 Zn94 1.899 . S
O93 C101 1.284 . S
Zn94 O93 1.899 . S
Zn94 O95 2.032 . S
Zn94 O98 2.086 . S
Zn94 O103 1.977 . S
O95 Zn94 2.032 . S
O95 C99 1.278 . S
C96 O97 1.203 . S
C96 O103 1.267 . S
O97 C96 1.203 . S
O98 C91 1.185 . S
O98 Zn94 2.086 . S
C99 O95 1.278 . S
C99 O100 1.211 . S
O100 C99 1.211 . S
C101 O93 1.284 . S
C101 O102 1.273 . S
O102 C101 1.273 . S
O103 Zn94 1.977 . S
O103 C96 1.267 . S
C104 O105 1.160 . S
C104 O111 1.185 . S
O105 C104 1.160 . S
O106 Zn107 1.899 . S
O106 C114 1.284 . S
Zn107 O106 1.899 . S
Zn107 O108 2.032 . S
Zn107 O111 2.086 . S
Zn107 O116 1.977 . S
O108 Zn107 2.032 . S
O108 C112 1.278 . S
C109 O110 1.203 . S
C109 O116 1.267 . S
O110 C109 1.203 . S
O111 C104 1.185 . S
O111 Zn107 2.086 . S
C112 O108 1.278 . S
C112 O113 1.211 . S
O113 C112 1.211 . S
C114 O106 1.284 . S
C114 O115 1.273 . S
O115 C114 1.273 . S
O116 Zn107 1.977 . S
O116 C109 1.267 . S
C117 O118 1.160 . S
C117 O124 1.185 . S
O118 C117 1.160 . S
O119 Zn120 1.899 . S
O119 C127 1.284 . S
Zn120 O119 1.899 . S
Zn120 O121 2.032 . S
Zn120 O124 2.086 . S
Zn120 O129 1.977 . S
O121 Zn120 2.032 . S
O121 C125 1.278 . S
C122 O123 1.203 . S
C122 O129 1.267 . S
O123 C122 1.203 . S
O124 C117 1.185 . S
O124 Zn120 2.086 . S
C125 O121 1.278 . S
C125 O126 1.211 . S
O126 C125 1.211 . S
C127 O119 1.284 . S
C127 O128 1.273 . S
O128 C127 1.273 . S
O129 Zn120 1.977 . S
O129 C122 1.267 . S
C130 O131 1.160 . S
C130 O137 1.185 1_655 S
O131 C130 1.160 . S
O132 Zn133 1.899 . S
O132 C140 1.284 . S
Zn133 O132 1.899 . S
Zn133 O134 2.032 . S
Zn133 O137 2.086 . S
Zn133 O142 1.977 . S
O134 Zn133 2.032 . S
O134 C138 1.278 . S
C135 O136 1.203 . S
C135 O142 1.267 . S
O136 C135 1.203 . S
O137 C130 1.185 1_455 S
O137 Zn133 2.086 . S
C138 O134 1.278 . S
C138 O139 1.211 . S
O139 C138 1.211 . S
C140 O132 1.284 . S
C140 O141 1.273 . S
O141 C140 1.273 . S
O142 Zn133 1.977 . S
O142 C135 1.267 . S
C143 O144 1.160 . S
C143 O150 1.185 . S
O144 C143 1.160 . S
O145 Zn146 1.899 . S
O145 C153 1.284 . S
Zn146 O145 1.899 . S
Zn146 O147 2.032 . S
Zn146 O150 2.086 . S
Zn146 O155 1.977 . S
O147 Zn146 2.032 . S
O147 C151 1.278 . S
C148 O149 1.203 . S
C148 O155 1.267 . S
O149 C148 1.203 . S
O150 C143 1.185 . S
O150 Zn146 2.086 . S
C151 O147 1.278 . S
C151 O152 1.211 . S
O152 C151 1.211 . S
C153 O145 1.284 . S
C153 O154 1.273 . S
O154 C153 1.273 . S
O155 Zn146 1.977 . S
O155 C148 1.267 . S
C156 O157 1.160 . S
C156 O163 1.185 . S
O157 C156 1.160 . S
O158 Zn159 1.899 . S
O158 C166 1.284 . S
Zn159 O158 1.899 . S
Zn159 O160 2.032 . S
Zn159 O163 2.086 . S
Zn159 O168 1.977 . S
O160 Zn159 2.032 . S
O160 C164 1.278 . S
C161 O162 1.203 . S
C161 O168 1.267 . S
O162 C161 1.203 . S
O163 C156 1.185 . S
O163 Zn159 2.086 . S
C164 O160 1.278 . S
C164 O165 1.211 . S
O165 C164 1.211 . S
C166 O158 1.284 . S
C166 O167 1.273 . S
O167 C166 1.273 . S
O168 Zn159 1.977 . S
O168 C161 1.267 . S
C169 O170 1.160 . S
C169 O176 1.185 1_455 S
O170 C169 1.160 . S
O171 Zn172 1.899 . S
O171 C179 1.284 . S
Zn172 O171 1.899 . S
Zn172 O173 2.032 . S
Zn172 O176 2.086 . S
Zn172 O181 1.977 . S
O173 Zn172 2.032 . S
O173 C177 1.278 . S
C174 O175 1.203 . S
C174 O181 1.267 . S
O175 C174 1.203 . S
O176 C169 1.185 1_655 S
O176 Zn172 2.086 . S
C177 O173 1.278 . S
C177 O178 1.211 . S
O178 C177 1.211 . S
C179 O171 1.284 . S
C179 O180 1.273 . S
O180 C179 1.273 . S
O181 Zn172 1.977 . S
O181 C174 1.267 . S
C182 O183 1.160 . S
C182 O189 1.185 . S
O183 C182 1.160 . S
O184 Zn185 1.899 . S
O184 C192 1.284 . S
Zn185 O184 1.899 . S
Zn185 O186 2.032 . S
Zn185 O189 2.086 . S
Zn185 O194 1.977 . S
O186 Zn185 2.032 . S
O186 C190 1.278 . S
C187 O188 1.203 . S
C187 O194 1.267 . S
O188 C187 1.203 . S
O189 C182 1.185 . S
O189 Zn185 2.086 . S
C190 O186 1.278 . S
C190 O191 1.211 . S
O191 C190 1.211 . S
C192 O184 1.284 . S
C192 O193 1.273 . S
O193 C192 1.273 . S
O194 Zn185 1.977 . S
O194 C187 1.267 . S
C195 O196 1.160 . S
C195 O202 1.185 . S
O196 C195 1.160 . S
O197 Zn198 1.899 . S
O197 C205 1.284 . S
Zn198 O197 1.899 . S
Zn198 O199 2.032 . S
Zn198 O202 2.086 . S
Zn198 O207 1.977 . S
O199 Zn198 2.032 . S
O199 C203 1.278 . S
C200 O201 1.203 . S
C200 O207 1.267 . S
O201 C200 1.203 . S
O202 C195 1.185 . S
O202 Zn198 2.086 . S
C203 O199 1.278 . S
C203 O204 1.211 . S
O204 C203 1.211 . S
C205 O197 1.284 . S
C205 O206 1.273 . S
O206 C205 1.273 . S
O207 Zn198 1.977 . S
O207 C200 1.267 . S
C208 O209 1.160 . S
C208 O215 1.185 . S
O209 C208 1.160 . S
O210 Zn211 1.899 . S
O210 C218 1.284 . S
Zn211 O210 1.899 . S
Zn211 O212 2.032 . S
Zn211 O215 2.086 . S
Zn211 O220 1.977 . S
O212 Zn211 2.032 . S
O212 C216 1.278 . S
C213 O214 1.203 . S
C213 O220 1.267 . S
O214 C213 1.203 . S
O215 C208 1.185 . S
O215 Zn211 2.086 . S
C216 O212 1.278 . S
C216 O217 1.211 . S
O217 C216 1.211 . S
C218 O210 1.284 . S
C218 O219 1.273 . S
O219 C218 1.273 . S
O220 Zn211 1.977 . S
O220 C213 1.267 . S
C221 O222 1.160 . S
C221 O228 1.185 . S
O222 C221 1.160 . S
O223 Zn224 1.899 . S
O223 C231 1.284 . S
Zn224 O223 1.899 . S
Zn224 O225 2.032 . S
Zn224 O228 2.086 . S
Zn224 O233 1.977 . S
O225 Zn224 2.032 . S
O225 C229 1.278 . S
C226 O227 1.203 . S
C226 O233 1.267 . S
O227 C226 1.203 . S
O228 C221 1.185 . S
O228 Zn224 2.086 . S
C229 O225 1.278 . S
C229 O230 1.211 . S
O230 C229 1.211 . S
C231 O223 1.284 . S
C231 O232 1.273 . S
O232 C231 1.273 . S
O233 Zn224 1.977 . S
O233 C226 1.267 . S
H234 O260 0.856 . S
H235 O263 0.854 . S
H236 C271 0.930 . S
H237 C272 0.930 . S
H238 C274 0.930 . S
H239 C275 0.930 . S
H240 C277 0.931 . S
H241 C278 0.930 . S
H242 C280 0.930 . S
H243 C281 0.929 . S
H244 C283 0.930 . S
H245 C284 0.931 . S
H246 C286 0.930 . S
H247 C287 0.929 . S
H248 C289 0.931 . S
H249 C290 0.930 . S
H250 C292 0.930 . S
H251 C293 0.932 . S
H252 C295 0.930 . S
H253 C296 0.929 . S
H254 C298 0.931 . S
H255 C299 0.930 . S
H256 C301 0.929 . S
H257 C302 0.931 . S
H258 C304 0.930 . S
H259 C305 0.929 . S
O260 H234 0.856 . S
O260 C306 1.300 . S
O261 C306 1.209 . S
O262 C307 1.199 . S
O263 H235 0.854 . S
O263 C307 1.297 . S
C264 C265 1.404 . S
C264 C269 1.397 . S
C264 C270 1.492 . S
C265 C264 1.404 . S
C265 C266 1.396 . S
C265 C276 1.492 . S
C266 C265 1.396 . S
C266 C267 1.397 . S
C266 C282 1.509 . S
C267 C266 1.397 . S
C267 C268 1.412 . S
C267 C288 1.485 . S
C268 C267 1.412 . S
C268 C269 1.388 . S
C268 C294 1.490 . S
C269 C264 1.397 . S
C269 C268 1.388 . S
C269 C300 1.519 . S
C270 C264 1.492 . S
C270 C271 1.363 . S
C270 C275 1.390 . S
C271 H236 0.930 . S
C271 C270 1.363 . S
C271 C272 1.372 . S
C272 H237 0.930 . S
C272 C271 1.372 . S
C272 C273 1.383 . S
C273 C272 1.383 . S
C273 C274 1.395 . S
C274 H238 0.930 . S
C274 C273 1.395 . S
C274 C275 1.362 . S
C275 H239 0.930 . S
C275 C270 1.390 . S
C275 C274 1.362 . S
C276 C265 1.492 . S
C276 C277 1.377 . S
C276 C281 1.397 . S
C277 H240 0.931 . S
C277 C276 1.377 . S
C277 C278 1.376 . S
C278 H241 0.930 . S
C278 C277 1.376 . S
C278 C279 1.376 . S
C279 C278 1.376 . S
C279 C280 1.378 . S
C279 C306 1.486 . S
C280 H242 0.930 . S
C280 C279 1.378 . S
C280 C281 1.376 . S
C281 H243 0.929 . S
C281 C276 1.397 . S
C281 C280 1.376 . S
C282 C266 1.509 . S
C282 C283 1.391 . S
C282 C287 1.386 . S
C283 H244 0.930 . S
C283 C282 1.391 . S
C283 C284 1.375 . S
C284 H245 0.931 . S
C284 C283 1.375 . S
C284 C285 1.375 . S
C285 C284 1.375 . S
C285 C286 1.361 . S
C286 H246 0.930 . S
C286 C285 1.361 . S
C286 C287 1.399 . S
C287 H247 0.929 . S
C287 C282 1.386 . S
C287 C286 1.399 . S
C288 C267 1.485 . S
C288 C289 1.394 . S
C288 C293 1.360 . S
C289 H248 0.931 . S
C289 C288 1.394 . S
C289 C290 1.372 . S
C290 H249 0.930 . S
C290 C289 1.372 . S
C290 C291 1.397 . S
C291 C290 1.397 . S
C291 C292 1.390 . S
C291 C307 1.476 . S
C292 H250 0.930 . S
C292 C291 1.390 . S
C292 C293 1.366 . S
C293 H251 0.932 . S
C293 C288 1.360 . S
C293 C292 1.366 . S
C294 C268 1.490 . S
C294 C295 1.380 . S
C294 C299 1.386 . S
C295 H252 0.930 . S
C295 C294 1.380 . S
C295 C296 1.381 . S
C296 H253 0.929 . S
C296 C295 1.381 . S
C296 C297 1.371 . S
C297 C296 1.371 . S
C297 C298 1.380 . S
C298 H254 0.931 . S
C298 C297 1.380 . S
C298 C299 1.387 . S
C299 H255 0.930 . S
C299 C294 1.386 . S
C299 C298 1.387 . S
C300 C269 1.519 . S
C300 C301 1.377 . S
C300 C305 1.361 . S
C301 H256 0.929 . S
C301 C300 1.377 . S
C301 C302 1.386 . S
C302 H257 0.931 . S
C302 C301 1.386 . S
C302 C303 1.363 . S
C303 C302 1.363 . S
C303 C304 1.385 . S
C304 H258 0.930 . S
C304 C303 1.385 . S
C304 C305 1.396 . S
C305 H259 0.929 . S
C305 C300 1.361 . S
C305 C304 1.396 . S
C306 O260 1.300 . S
C306 O261 1.209 . S
C306 C279 1.486 . S
C307 O262 1.199 . S
C307 O263 1.297 . S
C307 C291 1.476 . S
H308 O334 0.856 . S
H309 O337 0.854 . S
H310 C345 0.930 . S
H311 C346 0.930 . S
H312 C348 0.930 . S
H313 C349 0.930 . S
H314 C351 0.931 . S
H315 C352 0.930 . S
H316 C354 0.930 . S
H317 C355 0.929 . S
H318 C357 0.930 . S
H319 C358 0.931 . S
H320 C360 0.930 . S
H321 C361 0.929 . S
H322 C363 0.931 . S
H323 C364 0.930 . S
H324 C366 0.930 . S
H325 C367 0.932 . S
H326 C369 0.930 . S
H327 C370 0.929 . S
H328 C372 0.931 . S
H329 C373 0.930 . S
H330 C375 0.929 . S
H331 C376 0.931 . S
H332 C378 0.930 . S
H333 C379 0.929 . S
O334 H308 0.856 . S
O334 C380 1.300 . S
O335 C380 1.209 . S
O336 C381 1.199 . S
O337 H309 0.854 . S
O337 C381 1.297 . S
C338 C339 1.404 . S
C338 C343 1.397 . S
C338 C344 1.492 . S
C339 C338 1.404 . S
C339 C340 1.396 . S
C339 C350 1.492 . S
C340 C339 1.396 . S
C340 C341 1.397 . S
C340 C356 1.509 . S
C341 C340 1.397 . S
C341 C342 1.412 . S
C341 C362 1.485 . S
C342 C341 1.412 . S
C342 C343 1.388 . S
C342 C368 1.490 . S
C343 C338 1.397 . S
C343 C342 1.388 . S
C343 C374 1.519 . S
C344 C338 1.492 . S
C344 C345 1.363 . S
C344 C349 1.390 . S
C345 H310 0.930 . S
C345 C344 1.363 . S
C345 C346 1.372 . S
C346 H311 0.930 . S
C346 C345 1.372 . S
C346 C347 1.383 . S
C347 C346 1.383 . S
C347 C348 1.395 . S
C348 H312 0.930 . S
C348 C347 1.395 . S
C348 C349 1.362 . S
C349 H313 0.930 . S
C349 C344 1.390 . S
C349 C348 1.362 . S
C350 C339 1.492 . S
C350 C351 1.377 . S
C350 C355 1.397 . S
C351 H314 0.931 . S
C351 C350 1.377 . S
C351 C352 1.376 . S
C352 H315 0.930 . S
C352 C351 1.376 . S
C352 C353 1.376 . S
C353 C352 1.376 . S
C353 C354 1.378 . S
C353 C380 1.486 . S
C354 H316 0.930 . S
C354 C353 1.378 . S
C354 C355 1.376 . S
C355 H317 0.929 . S
C355 C350 1.397 . S
C355 C354 1.376 . S
C356 C340 1.509 . S
C356 C357 1.391 . S
C356 C361 1.386 . S
C357 H318 0.930 . S
C357 C356 1.391 . S
C357 C358 1.375 . S
C358 H319 0.931 . S
C358 C357 1.375 . S
C358 C359 1.375 . S
C359 C358 1.375 . S
C359 C360 1.361 . S
C360 H320 0.930 . S
C360 C359 1.361 . S
C360 C361 1.399 . S
C361 H321 0.929 . S
C361 C356 1.386 . S
C361 C360 1.399 . S
C362 C341 1.485 . S
C362 C363 1.394 . S
C362 C367 1.360 . S
C363 H322 0.931 . S
C363 C362 1.394 . S
C363 C364 1.372 . S
C364 H323 0.930 . S
C364 C363 1.372 . S
C364 C365 1.397 . S
C365 C364 1.397 . S
C365 C366 1.390 . S
C365 C381 1.476 . S
C366 H324 0.930 . S
C366 C365 1.390 . S
C366 C367 1.366 . S
C367 H325 0.932 . S
C367 C362 1.360 . S
C367 C366 1.366 . S
C368 C342 1.490 . S
C368 C369 1.380 . S
C368 C373 1.386 . S
C369 H326 0.930 . S
C369 C368 1.380 . S
C369 C370 1.381 . S
C370 H327 0.929 . S
C370 C369 1.381 . S
C370 C371 1.371 . S
C371 C370 1.371 . S
C371 C372 1.380 . S
C372 H328 0.931 . S
C372 C371 1.380 . S
C372 C373 1.387 . S
C373 H329 0.930 . S
C373 C368 1.386 . S
C373 C372 1.387 . S
C374 C343 1.519 . S
C374 C375 1.377 . S
C374 C379 1.361 . S
C375 H330 0.929 . S
C375 C374 1.377 . S
C375 C376 1.386 . S
C376 H331 0.931 . S
C376 C375 1.386 . S
C376 C377 1.363 . S
C377 C376 1.363 . S
C377 C378 1.385 . S
C378 H332 0.930 . S
C378 C377 1.385 . S
C378 C379 1.396 . S
C379 H333 0.929 . S
C379 C374 1.361 . S
C379 C378 1.396 . S
C380 O334 1.300 . S
C380 O335 1.209 . S
C380 C353 1.486 . S
C381 O336 1.199 . S
C381 O337 1.297 . S
C381 C365 1.476 . S
H382 O408 0.856 . S
H383 O411 0.854 . S
H384 C419 0.930 . S
H385 C420 0.930 . S
H386 C422 0.930 . S
H387 C423 0.930 . S
H388 C425 0.931 . S
H389 C426 0.930 . S
H390 C428 0.930 . S
H391 C429 0.929 . S
H392 C431 0.930 . S
H393 C432 0.931 . S
H394 C434 0.930 . S
H395 C435 0.929 . S
H396 C437 0.931 . S
H397 C438 0.930 . S
H398 C440 0.930 . S
H399 C441 0.932 . S
H400 C443 0.930 . S
H401 C444 0.929 . S
H402 C446 0.931 . S
H403 C447 0.930 . S
H404 C449 0.929 . S
H405 C450 0.931 . S
H406 C452 0.930 . S
H407 C453 0.929 . S
O408 H382 0.856 . S
O408 C454 1.300 . S
O409 C454 1.209 . S
O410 C455 1.199 . S
O411 H383 0.854 . S
O411 C455 1.297 . S
C412 C413 1.404 . S
C412 C417 1.397 . S
C412 C418 1.492 . S
C413 C412 1.404 . S
C413 C414 1.396 . S
C413 C424 1.492 . S
C414 C413 1.396 . S
C414 C415 1.397 . S
C414 C430 1.509 . S
C415 C414 1.397 . S
C415 C416 1.412 . S
C415 C436 1.485 . S
C416 C415 1.412 . S
C416 C417 1.388 . S
C416 C442 1.490 . S
C417 C412 1.397 . S
C417 C416 1.388 . S
C417 C448 1.519 . S
C418 C412 1.492 . S
C418 C419 1.363 . S
C418 C423 1.390 . S
C419 H384 0.930 . S
C419 C418 1.363 . S
C419 C420 1.372 . S
C420 H385 0.930 . S
C420 C419 1.372 . S
C420 C421 1.383 . S
C421 C420 1.383 . S
C421 C422 1.395 . S
C422 H386 0.930 . S
C422 C421 1.395 . S
C422 C423 1.362 . S
C423 H387 0.930 . S
C423 C418 1.390 . S
C423 C422 1.362 . S
C424 C413 1.492 . S
C424 C425 1.377 . S
C424 C429 1.397 . S
C425 H388 0.931 . S
C425 C424 1.377 . S
C425 C426 1.376 . S
C426 H389 0.930 . S
C426 C425 1.376 . S
C426 C427 1.376 . S
C427 C426 1.376 . S
C427 C428 1.378 . S
C427 C454 1.486 . S
C428 H390 0.930 . S
C428 C427 1.378 . S
C428 C429 1.376 . S
C429 H391 0.929 . S
C429 C424 1.397 . S
C429 C428 1.376 . S
C430 C414 1.509 . S
C430 C431 1.391 . S
C430 C435 1.386 . S
C431 H392 0.930 . S
C431 C430 1.391 . S
C431 C432 1.375 . S
C432 H393 0.931 . S
C432 C431 1.375 . S
C432 C433 1.375 . S
C433 C432 1.375 . S
C433 C434 1.361 . S
C434 H394 0.930 . S
C434 C433 1.361 . S
C434 C435 1.399 . S
C435 H395 0.929 . S
C435 C430 1.386 . S
C435 C434 1.399 . S
C436 C415 1.485 . S
C436 C437 1.394 . S
C436 C441 1.360 . S
C437 H396 0.931 . S
C437 C436 1.394 . S
C437 C438 1.372 . S
C438 H397 0.930 . S
C438 C437 1.372 . S
C438 C439 1.397 . S
C439 C438 1.397 . S
C439 C440 1.390 . S
C439 C455 1.476 . S
C440 H398 0.930 . S
C440 C439 1.390 . S
C440 C441 1.366 . S
C441 H399 0.932 . S
C441 C436 1.360 . S
C441 C440 1.366 . S
C442 C416 1.490 . S
C442 C443 1.380 . S
C442 C447 1.386 . S
C443 H400 0.930 . S
C443 C442 1.380 . S
C443 C444 1.381 . S
C444 H401 0.929 . S
C444 C443 1.381 . S
C444 C445 1.371 . S
C445 C444 1.371 . S
C445 C446 1.380 . S
C446 H402 0.931 . S
C446 C445 1.380 . S
C446 C447 1.387 . S
C447 H403 0.930 . S
C447 C442 1.386 . S
C447 C446 1.387 . S
C448 C417 1.519 . S
C448 C449 1.377 . S
C448 C453 1.361 . S
C449 H404 0.929 . S
C449 C448 1.377 . S
C449 C450 1.386 . S
C450 H405 0.931 . S
C450 C449 1.386 . S
C450 C451 1.363 . S
C451 C450 1.363 . S
C451 C452 1.385 . S
C452 H406 0.930 . S
C452 C451 1.385 . S
C452 C453 1.396 . S
C453 H407 0.929 . S
C453 C448 1.361 . S
C453 C452 1.396 . S
C454 O408 1.300 . S
C454 O409 1.209 . S
C454 C427 1.486 . S
C455 O410 1.199 . S
C455 O411 1.297 . S
C455 C439 1.476 . S
H456 O482 0.856 . S
H457 O485 0.854 . S
H458 C493 0.930 . S
H459 C494 0.930 . S
H460 C496 0.930 . S
H461 C497 0.930 . S
H462 C499 0.931 . S
H463 C500 0.930 . S
H464 C502 0.930 . S
H465 C503 0.929 . S
H466 C505 0.930 . S
H467 C506 0.931 . S
H468 C508 0.930 . S
H469 C509 0.929 . S
H470 C511 0.931 . S
H471 C512 0.930 . S
H472 C514 0.930 . S
H473 C515 0.932 . S
H474 C517 0.930 . S
H475 C518 0.929 . S
H476 C520 0.931 . S
H477 C521 0.930 . S
H478 C523 0.929 . S
H479 C524 0.931 . S
H480 C526 0.930 . S
H481 C527 0.929 . S
O482 H456 0.856 . S
O482 C528 1.300 . S
O483 C528 1.209 . S
O484 C529 1.199 . S
O485 H457 0.854 . S
O485 C529 1.297 . S
C486 C487 1.404 . S
C486 C491 1.397 . S
C486 C492 1.492 . S
C487 C486 1.404 . S
C487 C488 1.396 . S
C487 C498 1.492 . S
C488 C487 1.396 . S
C488 C489 1.397 . S
C488 C504 1.509 . S
C489 C488 1.397 . S
C489 C490 1.412 . S
C489 C510 1.485 . S
C490 C489 1.412 . S
C490 C491 1.388 . S
C490 C516 1.490 . S
C491 C486 1.397 . S
C491 C490 1.388 . S
C491 C522 1.519 . S
C492 C486 1.492 . S
C492 C493 1.363 . S
C492 C497 1.390 . S
C493 H458 0.930 . S
C493 C492 1.363 . S
C493 C494 1.372 . S
C494 H459 0.930 . S
C494 C493 1.372 . S
C494 C495 1.383 . S
C495 C494 1.383 . S
C495 C496 1.395 . S
C496 H460 0.930 . S
C496 C495 1.395 . S
C496 C497 1.362 . S
C497 H461 0.930 . S
C497 C492 1.390 . S
C497 C496 1.362 . S
C498 C487 1.492 . S
C498 C499 1.377 . S
C498 C503 1.397 . S
C499 H462 0.931 . S
C499 C498 1.377 . S
C499 C500 1.376 . S
C500 H463 0.930 . S
C500 C499 1.376 . S
C500 C501 1.376 . S
C501 C500 1.376 . S
C501 C502 1.378 . S
C501 C528 1.486 1_556 S
C502 H464 0.930 . S
C502 C501 1.378 . S
C502 C503 1.376 . S
C503 H465 0.929 . S
C503 C498 1.397 . S
C503 C502 1.376 . S
C504 C488 1.509 . S
C504 C505 1.391 . S
C504 C509 1.386 . S
C505 H466 0.930 . S
C505 C504 1.391 . S
C505 C506 1.375 . S
C506 H467 0.931 . S
C506 C505 1.375 . S
C506 C507 1.375 . S
C507 C506 1.375 . S
C507 C508 1.361 . S
C508 H468 0.930 . S
C508 C507 1.361 . S
C508 C509 1.399 . S
C509 H469 0.929 . S
C509 C504 1.386 . S
C509 C508 1.399 . S
C510 C489 1.485 . S
C510 C511 1.394 . S
C510 C515 1.360 . S
C511 H470 0.931 . S
C511 C510 1.394 . S
C511 C512 1.372 . S
C512 H471 0.930 . S
C512 C511 1.372 . S
C512 C513 1.397 . S
C513 C512 1.397 . S
C513 C514 1.390 . S
C513 C529 1.476 . S
C514 H472 0.930 . S
C514 C513 1.390 . S
C514 C515 1.366 . S
C515 H473 0.932 . S
C515 C510 1.360 . S
C515 C514 1.366 . S
C516 C490 1.490 . S
C516 C517 1.380 . S
C516 C521 1.386 . S
C517 H474 0.930 . S
C517 C516 1.380 . S
C517 C518 1.381 . S
C518 H475 0.929 . S
C518 C517 1.381 . S
C518 C519 1.371 . S
C519 C518 1.371 . S
C519 C520 1.380 . S
C520 H476 0.931 . S
C520 C519 1.380 . S
C520 C521 1.387 . S
C521 H477 0.930 . S
C521 C516 1.386 . S
C521 C520 1.387 . S
C522 C491 1.519 . S
C522 C523 1.377 . S
C522 C527 1.361 . S
C523 H478 0.929 . S
C523 C522 1.377 . S
C523 C524 1.386 . S
C524 H479 0.931 . S
C524 C523 1.386 . S
C524 C525 1.363 . S
C525 C524 1.363 . S
C525 C526 1.385 . S
C526 H480 0.930 . S
C526 C525 1.385 . S
C526 C527 1.396 . S
C527 H481 0.929 . S
C527 C522 1.361 . S
C527 C526 1.396 . S
C528 O482 1.300 . S
C528 O483 1.209 . S
C528 C501 1.486 1_554 S
C529 O484 1.199 . S
C529 O485 1.297 . S
C529 C513 1.476 . S
H530 O556 0.856 . S
H531 O559 0.854 . S
H532 C567 0.930 . S
H533 C568 0.930 . S
H534 C570 0.930 . S
H535 C571 0.930 . S
H536 C573 0.931 . S
H537 C574 0.930 . S
H538 C576 0.930 . S
H539 C577 0.929 . S
H540 C579 0.930 . S
H541 C580 0.931 . S
H542 C582 0.930 . S
H543 C583 0.929 . S
H544 C585 0.931 . S
H545 C586 0.930 . S
H546 C588 0.930 . S
H547 C589 0.932 . S
H548 C591 0.930 . S
H549 C592 0.929 . S
H550 C594 0.931 . S
H551 C595 0.930 . S
H552 C597 0.929 . S
H553 C598 0.931 . S
H554 C600 0.930 . S
H555 C601 0.929 . S
O556 H530 0.856 . S
O556 C602 1.300 . S
O557 C602 1.209 . S
O558 C603 1.199 . S
O559 H531 0.854 . S
O559 C603 1.297 . S
C560 C561 1.404 . S
C560 C565 1.397 . S
C560 C566 1.492 . S
C561 C560 1.404 . S
C561 C562 1.396 . S
C561 C572 1.492 . S
C562 C561 1.396 . S
C562 C563 1.397 . S
C562 C578 1.509 . S
C563 C562 1.397 . S
C563 C564 1.412 . S
C563 C584 1.485 . S
C564 C563 1.412 . S
C564 C565 1.388 . S
C564 C590 1.490 . S
C565 C560 1.397 . S
C565 C564 1.388 . S
C565 C596 1.519 . S
C566 C560 1.492 . S
C566 C567 1.363 . S
C566 C571 1.390 . S
C567 H532 0.930 . S
C567 C566 1.363 . S
C567 C568 1.372 . S
C568 H533 0.930 . S
C568 C567 1.372 . S
C568 C569 1.383 . S
C569 C568 1.383 . S
C569 C570 1.395 . S
C570 H534 0.930 . S
C570 C569 1.395 . S
C570 C571 1.362 . S
C571 H535 0.930 . S
C571 C566 1.390 . S
C571 C570 1.362 . S
C572 C561 1.492 . S
C572 C573 1.377 . S
C572 C577 1.397 . S
C573 H536 0.931 . S
C573 C572 1.377 . S
C573 C574 1.376 . S
C574 H537 0.930 . S
C574 C573 1.376 . S
C574 C575 1.376 . S
C575 C574 1.376 . S
C575 C576 1.378 . S
C575 C602 1.486 1_556 S
C576 H538 0.930 . S
C576 C575 1.378 . S
C576 C577 1.376 . S
C577 H539 0.929 . S
C577 C572 1.397 . S
C577 C576 1.376 . S
C578 C562 1.509 . S
C578 C579 1.391 . S
C578 C583 1.386 . S
C579 H540 0.930 . S
C579 C578 1.391 . S
C579 C580 1.375 . S
C580 H541 0.931 . S
C580 C579 1.375 . S
C580 C581 1.375 . S
C581 C580 1.375 . S
C581 C582 1.361 . S
C582 H542 0.930 . S
C582 C581 1.361 . S
C582 C583 1.399 . S
C583 H543 0.929 . S
C583 C578 1.386 . S
C583 C582 1.399 . S
C584 C563 1.485 . S
C584 C585 1.394 . S
C584 C589 1.360 . S
C585 H544 0.931 . S
C585 C584 1.394 . S
C585 C586 1.372 . S
C586 H545 0.930 . S
C586 C585 1.372 . S
C586 C587 1.397 . S
C587 C586 1.397 . S
C587 C588 1.390 . S
C587 C603 1.476 . S
C588 H546 0.930 . S
C588 C587 1.390 . S
C588 C589 1.366 . S
C589 H547 0.932 . S
C589 C584 1.360 . S
C589 C588 1.366 . S
C590 C564 1.490 . S
C590 C591 1.380 . S
C590 C595 1.386 . S
C591 H548 0.930 . S
C591 C590 1.380 . S
C591 C592 1.381 . S
C592 H549 0.929 . S
C592 C591 1.381 . S
C592 C593 1.371 . S
C593 C592 1.371 . S
C593 C594 1.380 . S
C594 H550 0.931 . S
C594 C593 1.380 . S
C594 C595 1.387 . S
C595 H551 0.930 . S
C595 C590 1.386 . S
C595 C594 1.387 . S
C596 C565 1.519 . S
C596 C597 1.377 . S
C596 C601 1.361 . S
C597 H552 0.929 . S
C597 C596 1.377 . S
C597 C598 1.386 . S
C598 H553 0.931 . S
C598 C597 1.386 . S
C598 C599 1.363 . S
C599 C598 1.363 . S
C599 C600 1.385 . S
C600 H554 0.930 . S
C600 C599 1.385 . S
C600 C601 1.396 . S
C601 H555 0.929 . S
C601 C596 1.361 . S
C601 C600 1.396 . S
C602 O556 1.300 . S
C602 O557 1.209 . S
C602 C575 1.486 1_554 S
C603 O558 1.199 . S
C603 O559 1.297 . S
C603 C587 1.476 . S
H604 O630 0.856 . S
H605 O633 0.854 . S
H606 C641 0.930 . S
H607 C642 0.930 . S
H608 C644 0.930 . S
H609 C645 0.930 . S
H610 C647 0.931 . S
H611 C648 0.930 1_554 S
H612 C650 0.930 . S
H613 C651 0.929 . S
H614 C653 0.930 . S
H615 C654 0.931 . S
H616 C656 0.930 . S
H617 C657 0.929 . S
H618 C659 0.931 . S
H619 C660 0.930 . S
H620 C662 0.930 . S
H621 C663 0.932 . S
H622 C665 0.930 . S
H623 C666 0.929 . S
H624 C668 0.931 . S
H625 C669 0.930 . S
H626 C671 0.929 . S
H627 C672 0.931 . S
H628 C674 0.930 . S
H629 C675 0.929 . S
O630 H604 0.856 . S
O630 C676 1.300 . S
O631 C676 1.209 . S
O632 C677 1.199 . S
O633 H605 0.854 . S
O633 C677 1.297 . S
C634 C635 1.404 . S
C634 C639 1.397 . S
C634 C640 1.492 . S
C635 C634 1.404 . S
C635 C636 1.396 . S
C635 C646 1.492 . S
C636 C635 1.396 . S
C636 C637 1.397 . S
C636 C652 1.509 . S
C637 C636 1.397 . S
C637 C638 1.412 . S
C637 C658 1.485 . S
C638 C637 1.412 . S
C638 C639 1.388 . S
C638 C664 1.490 . S
C639 C634 1.397 . S
C639 C638 1.388 . S
C639 C670 1.519 . S
C640 C634 1.492 . S
C640 C641 1.363 . S
C640 C645 1.390 . S
C641 H606 0.930 . S
C641 C640 1.363 . S
C641 C642 1.372 . S
C642 H607 0.930 . S
C642 C641 1.372 . S
C642 C643 1.383 . S
C643 C642 1.383 . S
C643 C644 1.395 . S
C644 H608 0.930 . S
C644 C643 1.395 . S
C644 C645 1.362 . S
C645 H609 0.930 . S
C645 C640 1.390 . S
C645 C644 1.362 . S
C646 C635 1.492 . S
C646 C647 1.377 . S
C646 C651 1.397 . S
C647 H610 0.931 . S
C647 C646 1.377 . S
C647 C648 1.376 . S
C648 H611 0.930 1_556 S
C648 C647 1.376 . S
C648 C649 1.376 . S
C649 C648 1.376 . S
C649 C650 1.378 . S
C649 C676 1.486 1_556 S
C650 H612 0.930 . S
C650 C649 1.378 . S
C650 C651 1.376 . S
C651 H613 0.929 . S
C651 C646 1.397 . S
C651 C650 1.376 . S
C652 C636 1.509 . S
C652 C653 1.391 . S
C652 C657 1.386 . S
C653 H614 0.930 . S
C653 C652 1.391 . S
C653 C654 1.375 . S
C654 H615 0.931 . S
C654 C653 1.375 . S
C654 C655 1.375 . S
C655 C654 1.375 . S
C655 C656 1.361 . S
C656 H616 0.930 . S
C656 C655 1.361 . S
C656 C657 1.399 . S
C657 H617 0.929 . S
C657 C652 1.386 . S
C657 C656 1.399 . S
C658 C637 1.485 . S
C658 C659 1.394 . S
C658 C663 1.360 . S
C659 H618 0.931 . S
C659 C658 1.394 . S
C659 C660 1.372 . S
C660 H619 0.930 . S
C660 C659 1.372 . S
C660 C661 1.397 . S
C661 C660 1.397 . S
C661 C662 1.390 . S
C661 C677 1.476 . S
C662 H620 0.930 . S
C662 C661 1.390 . S
C662 C663 1.366 . S
C663 H621 0.932 . S
C663 C658 1.360 . S
C663 C662 1.366 . S
C664 C638 1.490 . S
C664 C665 1.380 . S
C664 C669 1.386 . S
C665 H622 0.930 . S
C665 C664 1.380 . S
C665 C666 1.381 . S
C666 H623 0.929 . S
C666 C665 1.381 . S
C666 C667 1.371 . S
C667 C666 1.371 . S
C667 C668 1.380 . S
C668 H624 0.931 . S
C668 C667 1.380 . S
C668 C669 1.387 . S
C669 H625 0.930 . S
C669 C664 1.386 . S
C669 C668 1.387 . S
C670 C639 1.519 . S
C670 C671 1.377 . S
C670 C675 1.361 . S
C671 H626 0.929 . S
C671 C670 1.377 . S
C671 C672 1.386 . S
C672 H627 0.931 . S
C672 C671 1.386 . S
C672 C673 1.363 . S
C673 C672 1.363 . S
C673 C674 1.385 . S
C674 H628 0.930 . S
C674 C673 1.385 . S
C674 C675 1.396 . S
C675 H629 0.929 . S
C675 C670 1.361 . S
C675 C674 1.396 . S
C676 O630 1.300 . S
C676 O631 1.209 . S
C676 C649 1.486 1_554 S
C677 O632 1.199 . S
C677 O633 1.297 . S
C677 C661 1.476 . S
H678 O704 0.856 . S
H679 O707 0.854 . S
H680 C715 0.930 . S
H681 C716 0.930 . S
H682 C718 0.930 . S
H683 C719 0.930 . S
H684 C721 0.931 . S
H685 C722 0.930 . S
H686 C724 0.930 . S
H687 C725 0.929 . S
H688 C727 0.930 . S
H689 C728 0.931 . S
H690 C730 0.930 . S
H691 C731 0.929 . S
H692 C733 0.931 . S
H693 C734 0.930 . S
H694 C736 0.930 . S
H695 C737 0.932 . S
H696 C739 0.930 . S
H697 C740 0.929 . S
H698 C742 0.931 . S
H699 C743 0.930 . S
H700 C745 0.929 . S
H701 C746 0.931 . S
H702 C748 0.930 . S
H703 C749 0.929 . S
O704 H678 0.856 . S
O704 C750 1.300 . S
O705 C750 1.209 . S
O706 C751 1.199 . S
O707 H679 0.854 . S
O707 C751 1.297 . S
C708 C709 1.404 . S
C708 C713 1.397 . S
C708 C714 1.492 . S
C709 C708 1.404 . S
C709 C710 1.396 . S
C709 C720 1.492 . S
C710 C709 1.396 . S
C710 C711 1.397 . S
C710 C726 1.509 . S
C711 C710 1.397 . S
C711 C712 1.412 . S
C711 C732 1.485 . S
C712 C711 1.412 . S
C712 C713 1.388 . S
C712 C738 1.490 . S
C713 C708 1.397 . S
C713 C712 1.388 . S
C713 C744 1.519 . S
C714 C708 1.492 . S
C714 C715 1.363 . S
C714 C719 1.390 . S
C715 H680 0.930 . S
C715 C714 1.363 . S
C715 C716 1.372 . S
C716 H681 0.930 . S
C716 C715 1.372 . S
C716 C717 1.383 . S
C717 C716 1.383 . S
C717 C718 1.395 . S
C718 H682 0.930 . S
C718 C717 1.395 . S
C718 C719 1.362 . S
C719 H683 0.930 . S
C719 C714 1.390 . S
C719 C718 1.362 . S
C720 C709 1.492 . S
C720 C721 1.377 . S
C720 C725 1.397 . S
C721 H684 0.931 . S
C721 C720 1.377 . S
C721 C722 1.376 . S
C722 H685 0.930 . S
C722 C721 1.376 . S
C722 C723 1.376 . S
C723 C722 1.376 . S
C723 C724 1.378 . S
C723 C750 1.486 . S
C724 H686 0.930 . S
C724 C723 1.378 . S
C724 C725 1.376 . S
C725 H687 0.929 . S
C725 C720 1.397 . S
C725 C724 1.376 . S
C726 C710 1.509 . S
C726 C727 1.391 . S
C726 C731 1.386 . S
C727 H688 0.930 . S
C727 C726 1.391 . S
C727 C728 1.375 . S
C728 H689 0.931 . S
C728 C727 1.375 . S
C728 C729 1.375 . S
C729 C728 1.375 . S
C729 C730 1.361 . S
C730 H690 0.930 . S
C730 C729 1.361 . S
C730 C731 1.399 . S
C731 H691 0.929 . S
C731 C726 1.386 . S
C731 C730 1.399 . S
C732 C711 1.485 . S
C732 C733 1.394 . S
C732 C737 1.360 . S
C733 H692 0.931 . S
C733 C732 1.394 . S
C733 C734 1.372 . S
C734 H693 0.930 . S
C734 C733 1.372 . S
C734 C735 1.397 . S
C735 C734 1.397 . S
C735 C736 1.390 . S
C735 C751 1.476 . S
C736 H694 0.930 . S
C736 C735 1.390 . S
C736 C737 1.366 . S
C737 H695 0.932 . S
C737 C732 1.360 . S
C737 C736 1.366 . S
C738 C712 1.490 . S
C738 C739 1.380 . S
C738 C743 1.386 . S
C739 H696 0.930 . S
C739 C738 1.380 . S
C739 C740 1.381 . S
C740 H697 0.929 . S
C740 C739 1.381 . S
C740 C741 1.371 . S
C741 C740 1.371 . S
C741 C742 1.380 . S
C742 H698 0.931 . S
C742 C741 1.380 . S
C742 C743 1.387 . S
C743 H699 0.930 . S
C743 C738 1.386 . S
C743 C742 1.387 . S
C744 C713 1.519 . S
C744 C745 1.377 . S
C744 C749 1.361 . S
C745 H700 0.929 . S
C745 C744 1.377 . S
C745 C746 1.386 . S
C746 H701 0.931 . S
C746 C745 1.386 . S
C746 C747 1.363 . S
C747 C746 1.363 . S
C747 C748 1.385 . S
C748 H702 0.930 . S
C748 C747 1.385 . S
C748 C749 1.396 . S
C749 H703 0.929 . S
C749 C744 1.361 . S
C749 C748 1.396 . S
C750 O704 1.300 . S
C750 O705 1.209 . S
C750 C723 1.486 . S
C751 O706 1.199 . S
C751 O707 1.297 . S
C751 C735 1.476 . S
H752 O778 0.856 . S
H753 O781 0.854 . S
H754 C789 0.930 . S
H755 C790 0.930 . S
H756 C792 0.930 . S
H757 C793 0.930 . S
H758 C795 0.931 . S
H759 C796 0.930 . S
H760 C798 0.930 . S
H761 C799 0.929 . S
H762 C801 0.930 . S
H763 C802 0.931 . S
H764 C804 0.930 . S
H765 C805 0.929 . S
H766 C807 0.931 . S
H767 C808 0.930 . S
H768 C810 0.930 . S
H769 C811 0.932 . S
H770 C813 0.930 . S
H771 C814 0.929 . S
H772 C816 0.931 . S
H773 C817 0.930 . S
H774 C819 0.929 . S
H775 C820 0.931 . S
H776 C822 0.930 . S
H777 C823 0.929 . S
O778 H752 0.856 . S
O778 C824 1.300 . S
O779 C824 1.209 . S
O780 C825 1.199 . S
O781 H753 0.854 . S
O781 C825 1.297 . S
C782 C783 1.404 . S
C782 C787 1.397 . S
C782 C788 1.492 . S
C783 C782 1.404 . S
C783 C784 1.396 . S
C783 C794 1.492 . S
C784 C783 1.396 . S
C784 C785 1.397 . S
C784 C800 1.509 . S
C785 C784 1.397 . S
C785 C786 1.412 . S
C785 C806 1.485 . S
C786 C785 1.412 . S
C786 C787 1.388 . S
C786 C812 1.490 . S
C787 C782 1.397 . S
C787 C786 1.388 . S
C787 C818 1.519 . S
C788 C782 1.492 . S
C788 C789 1.363 . S
C788 C793 1.390 . S
C789 H754 0.930 . S
C789 C788 1.363 . S
C789 C790 1.372 . S
C790 H755 0.930 . S
C790 C789 1.372 . S
C790 C791 1.383 . S
C791 C790 1.383 . S
C791 C792 1.395 . S
C792 H756 0.930 . S
C792 C791 1.395 . S
C792 C793 1.362 . S
C793 H757 0.930 . S
C793 C788 1.390 . S
C793 C792 1.362 . S
C794 C783 1.492 . S
C794 C795 1.377 . S
C794 C799 1.397 . S
C795 H758 0.931 . S
C795 C794 1.377 . S
C795 C796 1.376 . S
C796 H759 0.930 . S
C796 C795 1.376 . S
C796 C797 1.376 . S
C797 C796 1.376 . S
C797 C798 1.378 . S
C797 C824 1.486 . S
C798 H760 0.930 . S
C798 C797 1.378 . S
C798 C799 1.376 . S
C799 H761 0.929 . S
C799 C794 1.397 . S
C799 C798 1.376 . S
C800 C784 1.509 . S
C800 C801 1.391 . S
C800 C805 1.386 . S
C801 H762 0.930 . S
C801 C800 1.391 . S
C801 C802 1.375 . S
C802 H763 0.931 . S
C802 C801 1.375 . S
C802 C803 1.375 . S
C803 C802 1.375 . S
C803 C804 1.361 . S
C804 H764 0.930 . S
C804 C803 1.361 . S
C804 C805 1.399 . S
C805 H765 0.929 . S
C805 C800 1.386 . S
C805 C804 1.399 . S
C806 C785 1.485 . S
C806 C807 1.394 . S
C806 C811 1.360 . S
C807 H766 0.931 . S
C807 C806 1.394 . S
C807 C808 1.372 . S
C808 H767 0.930 . S
C808 C807 1.372 . S
C808 C809 1.397 . S
C809 C808 1.397 . S
C809 C810 1.390 . S
C809 C825 1.476 . S
C810 H768 0.930 . S
C810 C809 1.390 . S
C810 C811 1.366 . S
C811 H769 0.932 . S
C811 C806 1.360 . S
C811 C810 1.366 . S
C812 C786 1.490 . S
C812 C813 1.380 . S
C812 C817 1.386 . S
C813 H770 0.930 . S
C813 C812 1.380 . S
C813 C814 1.381 . S
C814 H771 0.929 . S
C814 C813 1.381 . S
C814 C815 1.371 . S
C815 C814 1.371 . S
C815 C816 1.380 . S
C816 H772 0.931 . S
C816 C815 1.380 . S
C816 C817 1.387 . S
C817 H773 0.930 . S
C817 C812 1.386 . S
C817 C816 1.387 . S
C818 C787 1.519 . S
C818 C819 1.377 . S
C818 C823 1.361 . S
C819 H774 0.929 . S
C819 C818 1.377 . S
C819 C820 1.386 . S
C820 H775 0.931 . S
C820 C819 1.386 . S
C820 C821 1.363 . S
C821 C820 1.363 . S
C821 C822 1.385 . S
C822 H776 0.930 . S
C822 C821 1.385 . S
C822 C823 1.396 . S
C823 H777 0.929 . S
C823 C818 1.361 . S
C823 C822 1.396 . S
C824 O778 1.300 . S
C824 O779 1.209 . S
C824 C797 1.486 . S
C825 O780 1.199 . S
C825 O781 1.297 . S
C825 C809 1.476 . S
H826 O852 0.856 . S
H827 O855 0.854 . S
H828 C863 0.930 . S
H829 C864 0.930 . S
H830 C866 0.930 . S
H831 C867 0.930 . S
H832 C869 0.931 . S
H833 C870 0.930 . S
H834 C872 0.930 . S
H835 C873 0.929 . S
H836 C875 0.930 . S
H837 C876 0.931 . S
H838 C878 0.930 . S
H839 C879 0.929 . S
H840 C881 0.931 . S
H841 C882 0.930 . S
H842 C884 0.930 . S
H843 C885 0.932 . S
H844 C887 0.930 . S
H845 C888 0.929 . S
H846 C890 0.931 . S
H847 C891 0.930 . S
H848 C893 0.929 . S
H849 C894 0.931 . S
H850 C896 0.930 . S
H851 C897 0.929 . S
O852 H826 0.856 . S
O852 C898 1.300 . S
O853 C898 1.209 . S
O854 C899 1.199 . S
O855 H827 0.854 . S
O855 C899 1.297 . S
C856 C857 1.404 . S
C856 C861 1.397 . S
C856 C862 1.492 . S
C857 C856 1.404 . S
C857 C858 1.396 . S
C857 C868 1.492 . S
C858 C857 1.396 . S
C858 C859 1.397 . S
C858 C874 1.509 . S
C859 C858 1.397 . S
C859 C860 1.412 . S
C859 C880 1.485 . S
C860 C859 1.412 . S
C860 C861 1.388 . S
C860 C886 1.490 . S
C861 C856 1.397 . S
C861 C860 1.388 . S
C861 C892 1.519 . S
C862 C856 1.492 . S
C862 C863 1.363 . S
C862 C867 1.390 . S
C863 H828 0.930 . S
C863 C862 1.363 . S
C863 C864 1.372 . S
C864 H829 0.930 . S
C864 C863 1.372 . S
C864 C865 1.383 . S
C865 C864 1.383 . S
C865 C866 1.395 . S
C866 H830 0.930 . S
C866 C865 1.395 . S
C866 C867 1.362 . S
C867 H831 0.930 . S
C867 C862 1.390 . S
C867 C866 1.362 . S
C868 C857 1.492 . S
C868 C869 1.377 . S
C868 C873 1.397 . S
C869 H832 0.931 . S
C869 C868 1.377 . S
C869 C870 1.376 . S
C870 H833 0.930 . S
C870 C869 1.376 . S
C870 C871 1.376 . S
C871 C870 1.376 . S
C871 C872 1.378 . S
C871 C898 1.486 . S
C872 H834 0.930 . S
C872 C871 1.378 . S
C872 C873 1.376 . S
C873 H835 0.929 . S
C873 C868 1.397 . S
C873 C872 1.376 . S
C874 C858 1.509 . S
C874 C875 1.391 . S
C874 C879 1.386 . S
C875 H836 0.930 . S
C875 C874 1.391 . S
C875 C876 1.375 . S
C876 H837 0.931 . S
C876 C875 1.375 . S
C876 C877 1.375 . S
C877 C876 1.375 . S
C877 C878 1.361 . S
C878 H838 0.930 . S
C878 C877 1.361 . S
C878 C879 1.399 . S
C879 H839 0.929 . S
C879 C874 1.386 . S
C879 C878 1.399 . S
C880 C859 1.485 . S
C880 C881 1.394 . S
C880 C885 1.360 . S
C881 H840 0.931 . S
C881 C880 1.394 . S
C881 C882 1.372 . S
C882 H841 0.930 . S
C882 C881 1.372 . S
C882 C883 1.397 . S
C883 C882 1.397 . S
C883 C884 1.390 . S
C883 C899 1.476 . S
C884 H842 0.930 . S
C884 C883 1.390 . S
C884 C885 1.366 . S
C885 H843 0.932 . S
C885 C880 1.360 . S
C885 C884 1.366 . S
C886 C860 1.490 . S
C886 C887 1.380 . S
C886 C891 1.386 . S
C887 H844 0.930 . S
C887 C886 1.380 . S
C887 C888 1.381 . S
C888 H845 0.929 . S
C888 C887 1.381 . S
C888 C889 1.371 . S
C889 C888 1.371 . S
C889 C890 1.380 . S
C890 H846 0.931 . S
C890 C889 1.380 . S
C890 C891 1.387 . S
C891 H847 0.930 . S
C891 C886 1.386 . S
C891 C890 1.387 . S
C892 C861 1.519 . S
C892 C893 1.377 . S
C892 C897 1.361 . S
C893 H848 0.929 . S
C893 C892 1.377 . S
C893 C894 1.386 . S
C894 H849 0.931 . S
C894 C893 1.386 . S
C894 C895 1.363 . S
C895 C894 1.363 . S
C895 C896 1.385 . S
C896 H850 0.930 . S
C896 C895 1.385 . S
C896 C897 1.396 . S
C897 H851 0.929 . S
C897 C892 1.361 . S
C897 C896 1.396 . S
C898 O852 1.300 . S
C898 O853 1.209 . S
C898 C871 1.486 . S
C899 O854 1.199 . S
C899 O855 1.297 . S
C899 C883 1.476 . S
H900 O926 0.856 . S
H901 O929 0.854 . S
H902 C937 0.930 . S
H903 C938 0.930 . S
H904 C940 0.930 . S
H905 C941 0.930 . S
H906 C943 0.931 . S
H907 C944 0.930 1_655 S
H908 C946 0.930 . S
H909 C947 0.929 . S
H910 C949 0.930 . S
H911 C950 0.931 1_655 S
H912 C952 0.930 . S
H913 C953 0.929 . S
H914 C955 0.931 . S
H915 C956 0.930 . S
H916 C958 0.930 . S
H917 C959 0.932 . S
H918 C961 0.930 . S
H919 C962 0.929 . S
H920 C964 0.931 . S
H921 C965 0.930 . S
H922 C967 0.929 . S
H923 C968 0.931 . S
H924 C970 0.930 . S
H925 C971 0.929 . S
O926 H900 0.856 . S
O926 C972 1.300 . S
O927 C972 1.209 . S
O928 C973 1.199 1_655 S
O929 H901 0.854 . S
O929 C973 1.297 . S
C930 C931 1.404 . S
C930 C935 1.393 . S
C930 C936 1.492 . S
C931 C930 1.404 . S
C931 C932 1.396 . S
C931 C942 1.492 . S
C932 C931 1.396 . S
C932 C933 1.397 . S
C932 C948 1.509 . S
C933 C932 1.397 . S
C933 C934 1.437 . S
C933 C954 1.485 . S
C934 C933 1.437 . S
C934 C935 1.394 . S
C934 C960 1.491 1_455 S
C935 C930 1.393 . S
C935 C934 1.394 . S
C935 C966 1.479 1_455 S
C936 C930 1.492 . S
C936 C937 1.363 1_455 S
C936 C941 1.390 . S
C937 H902 0.930 . S
C937 C936 1.363 1_655 S
C937 C938 1.372 . S
C938 H903 0.930 . S
C938 C937 1.372 . S
C938 C939 1.383 . S
C939 C938 1.383 . S
C939 C940 1.395 1_655 S
C940 H904 0.930 . S
C940 C939 1.395 1_455 S
C940 C941 1.362 . S
C941 H905 0.930 . S
C941 C936 1.390 . S
C941 C940 1.362 . S
C942 C931 1.492 . S
C942 C943 1.377 1_455 S
C942 C947 1.397 . S
C943 H906 0.931 . S
C943 C942 1.377 1_655 S
C943 C944 1.376 1_655 S
C944 H907 0.930 1_455 S
C944 C943 1.376 1_455 S
C944 C945 1.376 . S
C945 C944 1.376 . S
C945 C946 1.378 . S
C945 C972 1.486 . S
C946 H908 0.930 . S
C946 C945 1.378 . S
C946 C947 1.376 . S
C947 H909 0.929 . S
C947 C942 1.397 . S
C947 C946 1.376 . S
C948 C932 1.509 . S
C948 C949 1.391 1_455 S
C948 C953 1.386 . S
C949 H910 0.930 . S
C949 C948 1.391 1_655 S
C949 C950 1.375 1_655 S
C950 H911 0.931 1_455 S
C950 C949 1.375 1_455 S
C950 C951 1.375 . S
C951 C950 1.375 . S
C951 C952 1.361 . S
C952 H912 0.930 . S
C952 C951 1.361 . S
C952 C953 1.399 . S
C953 H913 0.929 . S
C953 C948 1.386 . S
C953 C952 1.399 . S
C954 C933 1.485 . S
C954 C955 1.394 1_455 S
C954 C959 1.360 . S
C955 H914 0.931 . S
C955 C954 1.394 1_655 S
C955 C956 1.372 . S
C956 H915 0.930 . S
C956 C955 1.372 . S
C956 C957 1.397 1_655 S
C957 C956 1.397 1_455 S
C957 C958 1.390 . S
C957 C973 1.476 . S
C958 H916 0.930 . S
C958 C957 1.390 . S
C958 C959 1.366 . S
C959 H917 0.932 . S
C959 C954 1.360 . S
C959 C958 1.366 . S
C960 C934 1.491 1_655 S
C960 C961 1.380 . S
C960 C965 1.386 1_655 S
C961 H918 0.930 . S
C961 C960 1.380 . S
C961 C962 1.381 . S
C962 H919 0.929 . S
C962 C961 1.381 . S
C962 C963 1.371 . S
C963 C962 1.371 . S
C963 C964 1.380 1_655 S
C964 H920 0.931 . S
C964 C963 1.380 1_455 S
C964 C965 1.387 . S
C965 H921 0.930 . S
C965 C960 1.386 1_455 S
C965 C964 1.387 . S
C966 C935 1.479 1_655 S
C966 C967 1.424 . S
C966 C971 1.332 1_655 S
C967 H922 0.929 . S
C967 C966 1.424 . S
C967 C968 1.386 . S
C968 H923 0.931 . S
C968 C967 1.386 . S
C968 C969 1.410 . S
C969 C968 1.410 . S
C969 C970 1.312 1_655 S
C970 H924 0.930 . S
C970 C969 1.312 1_455 S
C970 C971 1.396 . S
C971 H925 0.929 . S
C971 C966 1.332 1_455 S
C971 C970 1.396 . S
C972 O926 1.300 . S
C972 O927 1.209 . S
C972 C945 1.486 . S
C973 O928 1.199 1_455 S
C973 O929 1.297 . S
C973 C957 1.476 . S
H974 O1000 0.856 . S
H975 O1003 0.854 . S
H976 C1011 0.930 . S
H977 C1012 0.930 . S
H978 C1014 0.930 . S
H979 C1015 0.930 . S
H980 C1017 0.931 . S
H981 C1018 0.930 . S
H982 C1020 0.930 . S
H983 C1021 0.929 . S
H984 C1023 0.930 . S
H985 C1024 0.931 . S
H986 C1026 0.930 . S
H987 C1027 0.929 . S
H988 C1029 0.931 . S
H989 C1030 0.930 . S
H990 C1032 0.930 . S
H991 C1033 0.932 . S
H992 C1035 0.930 . S
H993 C1036 0.929 . S
H994 C1038 0.931 . S
H995 C1039 0.930 . S
H996 C1041 0.929 . S
H997 C1042 0.931 . S
H998 C1044 0.930 . S
H999 C1045 0.929 . S
O1000 H974 0.856 . S
O1000 C1046 1.300 . S
O1001 C1046 1.209 . S
O1002 C1047 1.199 . S
O1003 H975 0.854 . S
O1003 C1047 1.297 . S
C1004 C1005 1.404 . S
C1004 C1009 1.397 . S
C1004 C1010 1.492 . S
C1005 C1004 1.404 . S
C1005 C1006 1.396 . S
C1005 C1016 1.492 . S
C1006 C1005 1.396 . S
C1006 C1007 1.397 . S
C1006 C1022 1.509 . S
C1007 C1006 1.397 . S
C1007 C1008 1.412 . S
C1007 C1028 1.485 . S
C1008 C1007 1.412 . S
C1008 C1009 1.388 . S
C1008 C1034 1.490 . S
C1009 C1004 1.397 . S
C1009 C1008 1.388 . S
C1009 C1040 1.519 . S
C1010 C1004 1.492 . S
C1010 C1011 1.363 . S
C1010 C1015 1.390 . S
C1011 H976 0.930 . S
C1011 C1010 1.363 . S
C1011 C1012 1.372 . S
C1012 H977 0.930 . S
C1012 C1011 1.372 . S
C1012 C1013 1.383 . S
C1013 C1012 1.383 . S
C1013 C1014 1.395 . S
C1014 H978 0.930 . S
C1014 C1013 1.395 . S
C1014 C1015 1.362 . S
C1015 H979 0.930 . S
C1015 C1010 1.390 . S
C1015 C1014 1.362 . S
C1016 C1005 1.492 . S
C1016 C1017 1.377 . S
C1016 C1021 1.397 . S
C1017 H980 0.931 . S
C1017 C1016 1.377 . S
C1017 C1018 1.376 . S
C1018 H981 0.930 . S
C1018 C1017 1.376 . S
C1018 C1019 1.376 . S
C1019 C1018 1.376 . S
C1019 C1020 1.378 . S
C1019 C1046 1.486 . S
C1020 H982 0.930 . S
C1020 C1019 1.378 . S
C1020 C1021 1.376 . S
C1021 H983 0.929 . S
C1021 C1016 1.397 . S
C1021 C1020 1.376 . S
C1022 C1006 1.509 . S
C1022 C1023 1.391 . S
C1022 C1027 1.386 . S
C1023 H984 0.930 . S
C1023 C1022 1.391 . S
C1023 C1024 1.375 . S
C1024 H985 0.931 . S
C1024 C1023 1.375 . S
C1024 C1025 1.375 . S
C1025 C1024 1.375 . S
C1025 C1026 1.361 . S
C1026 H986 0.930 . S
C1026 C1025 1.361 . S
C1026 C1027 1.399 . S
C1027 H987 0.929 . S
C1027 C1022 1.386 . S
C1027 C1026 1.399 . S
C1028 C1007 1.485 . S
C1028 C1029 1.394 . S
C1028 C1033 1.360 . S
C1029 H988 0.931 . S
C1029 C1028 1.394 . S
C1029 C1030 1.372 . S
C1030 H989 0.930 . S
C1030 C1029 1.372 . S
C1030 C1031 1.397 . S
C1031 C1030 1.397 . S
C1031 C1032 1.390 . S
C1031 C1047 1.476 . S
C1032 H990 0.930 . S
C1032 C1031 1.390 . S
C1032 C1033 1.366 . S
C1033 H991 0.932 . S
C1033 C1028 1.360 . S
C1033 C1032 1.366 . S
C1034 C1008 1.490 . S
C1034 C1035 1.380 . S
C1034 C1039 1.386 . S
C1035 H992 0.930 . S
C1035 C1034 1.380 . S
C1035 C1036 1.381 . S
C1036 H993 0.929 . S
C1036 C1035 1.381 . S
C1036 C1037 1.371 . S
C1037 C1036 1.371 . S
C1037 C1038 1.380 . S
C1038 H994 0.931 . S
C1038 C1037 1.380 . S
C1038 C1039 1.387 . S
C1039 H995 0.930 . S
C1039 C1034 1.386 . S
C1039 C1038 1.387 . S
C1040 C1009 1.519 . S
C1040 C1041 1.377 . S
C1040 C1045 1.361 . S
C1041 H996 0.929 . S
C1041 C1040 1.377 . S
C1041 C1042 1.386 . S
C1042 H997 0.931 . S
C1042 C1041 1.386 . S
C1042 C1043 1.363 . S
C1043 C1042 1.363 . S
C1043 C1044 1.385 . S
C1044 H998 0.930 . S
C1044 C1043 1.385 . S
C1044 C1045 1.396 . S
C1045 H999 0.929 . S
C1045 C1040 1.361 . S
C1045 C1044 1.396 . S
C1046 O1000 1.300 . S
C1046 O1001 1.209 . S
C1046 C1019 1.486 . S
C1047 O1002 1.199 . S
C1047 O1003 1.297 . S
C1047 C1031 1.476 . S
H1048 O1074 0.856 . S
H1049 O1077 0.854 . S
H1050 C1085 0.930 . S
H1051 C1086 0.930 . S
H1052 C1088 0.930 . S
H1053 C1089 0.930 . S
H1054 C1091 0.931 . S
H1055 C1092 0.917 1_545 S
H1056 C1094 0.930 . S
H1057 C1095 0.929 . S
H1058 C1097 0.930 . S
H1059 C1098 0.931 . S
H1060 C1100 0.930 . S
H1061 C1101 0.929 . S
H1062 C1103 0.931 . S
H1063 C1104 0.930 . S
H1064 C1106 0.930 . S
H1065 C1107 0.932 . S
H1066 C1109 0.930 . S
H1067 C1110 0.929 . S
H1068 C1112 0.931 . S
H1069 C1113 0.930 . S
H1070 C1115 0.929 . S
H1071 C1116 0.931 . S
H1072 C1118 0.930 . S
H1073 C1119 0.929 . S
O1074 H1048 0.856 . S
O1074 C1120 1.300 . S
O1075 C1120 1.209 . S
O1076 C1121 1.199 1_545 S
O1077 H1049 0.854 . S
O1077 C1121 1.297 . S
C1078 C1079 1.404 . S
C1078 C1083 1.415 . S
C1078 C1084 1.492 . S
C1079 C1078 1.404 . S
C1079 C1080 1.396 . S
C1079 C1090 1.492 . S
C1080 C1079 1.396 . S
C1080 C1081 1.397 . S
C1080 C1096 1.509 . S
C1081 C1080 1.397 . S
C1081 C1082 1.412 1_565 S
C1081 C1102 1.485 . S
C1082 C1081 1.412 1_545 S
C1082 C1083 1.363 1_545 S
C1082 C1108 1.489 . S
C1083 C1078 1.415 . S
C1083 C1082 1.363 1_565 S
C1083 C1114 1.533 1_565 S
C1084 C1078 1.492 . S
C1084 C1085 1.363 1_565 S
C1084 C1089 1.390 . S
C1085 H1050 0.930 . S
C1085 C1084 1.363 1_545 S
C1085 C1086 1.372 . S
C1086 H1051 0.930 . S
C1086 C1085 1.372 . S
C1086 C1087 1.448 . S
C1087 C1086 1.448 . S
C1087 C1088 1.364 1_545 S
C1088 H1052 0.930 . S
C1088 C1087 1.364 1_565 S
C1088 C1089 1.362 . S
C1089 H1053 0.930 . S
C1089 C1084 1.390 . S
C1089 C1088 1.362 . S
C1090 C1079 1.492 . S
C1090 C1091 1.377 1_565 S
C1090 C1095 1.397 . S
C1091 H1054 0.931 . S
C1091 C1090 1.377 1_545 S
C1091 C1092 1.368 1_545 S
C1092 H1055 0.917 1_565 S
C1092 C1091 1.368 1_565 S
C1092 C1093 1.396 . S
C1093 C1092 1.396 . S
C1093 C1094 1.378 . S
C1093 C1120 1.486 . S
C1094 H1056 0.930 . S
C1094 C1093 1.378 . S
C1094 C1095 1.376 . S
C1095 H1057 0.929 . S
C1095 C1090 1.397 . S
C1095 C1094 1.376 . S
C1096 C1080 1.509 . S
C1096 C1097 1.391 1_565 S
C1096 C1101 1.386 . S
C1097 H1058 0.930 . S
C1097 C1096 1.391 1_545 S
C1097 C1098 1.375 . S
C1098 H1059 0.931 . S
C1098 C1097 1.375 . S
C1098 C1099 1.375 1_545 S
C1099 C1098 1.375 1_565 S
C1099 C1100 1.361 . S
C1100 H1060 0.930 . S
C1100 C1099 1.361 . S
C1100 C1101 1.399 . S
C1101 H1061 0.929 . S
C1101 C1096 1.386 . S
C1101 C1100 1.399 . S
C1102 C1081 1.485 . S
C1102 C1103 1.394 1_565 S
C1102 C1107 1.360 . S
C1103 H1062 0.931 . S
C1103 C1102 1.394 1_545 S
C1103 C1104 1.372 . S
C1104 H1063 0.930 . S
C1104 C1103 1.372 . S
C1104 C1105 1.397 1_545 S
C1105 C1104 1.397 1_565 S
C1105 C1106 1.390 . S
C1105 C1121 1.476 . S
C1106 H1064 0.930 . S
C1106 C1105 1.390 . S
C1106 C1107 1.366 . S
C1107 H1065 0.932 . S
C1107 C1102 1.360 . S
C1107 C1106 1.366 . S
C1108 C1082 1.489 . S
C1108 C1109 1.380 . S
C1108 C1113 1.386 1_545 S
C1109 H1066 0.930 . S
C1109 C1108 1.380 . S
C1109 C1110 1.381 . S
C1110 H1067 0.929 . S
C1110 C1109 1.381 . S
C1110 C1111 1.371 . S
C1111 C1110 1.371 . S
C1111 C1112 1.380 1_545 S
C1112 H1068 0.931 . S
C1112 C1111 1.380 1_565 S
C1112 C1113 1.387 . S
C1113 H1069 0.930 . S
C1113 C1108 1.386 1_565 S
C1113 C1112 1.387 . S
C1114 C1083 1.533 1_545 S
C1114 C1115 1.377 . S
C1114 C1119 1.362 1_545 S
C1115 H1070 0.929 . S
C1115 C1114 1.377 . S
C1115 C1116 1.386 . S
C1116 H1071 0.931 . S
C1116 C1115 1.386 . S
C1116 C1117 1.317 1_545 S
C1117 C1116 1.317 1_565 S
C1117 C1118 1.408 . S
C1118 H1072 0.930 . S
C1118 C1117 1.408 . S
C1118 C1119 1.396 . S
C1119 H1073 0.929 . S
C1119 C1114 1.362 1_565 S
C1119 C1118 1.396 . S
C1120 O1074 1.300 . S
C1120 O1075 1.209 . S
C1120 C1093 1.486 . S
C1121 O1076 1.199 1_565 S
C1121 O1077 1.297 . S
C1121 C1105 1.476 . S
H1122 O1148 0.856 . S
H1123 O1151 0.854 . S
H1124 C1159 0.930 . S
H1125 C1160 0.930 . S
H1126 C1162 0.930 . S
H1127 C1163 0.930 . S
H1128 C1165 0.931 . S
H1129 C1166 0.930 . S
H1130 C1168 0.930 . S
H1131 C1169 0.929 . S
H1132 C1171 0.930 . S
H1133 C1172 0.931 . S
H1134 C1174 0.930 . S
H1135 C1175 0.929 . S
H1136 C1177 0.931 . S
H1137 C1178 0.930 . S
H1138 C1180 0.930 . S
H1139 C1181 0.932 . S
H1140 C1183 0.930 . S
H1141 C1184 0.929 . S
H1142 C1186 0.931 . S
H1143 C1187 0.930 . S
H1144 C1189 0.929 . S
H1145 C1190 0.931 . S
H1146 C1192 0.930 . S
H1147 C1193 0.929 . S
O1148 H1122 0.856 . S
O1148 C1194 1.300 . S
O1149 C1194 1.209 1_565 S
O1150 C1195 1.199 1_545 S
O1151 H1123 0.854 . S
O1151 C1195 1.297 . S
C1152 C1153 1.404 . S
C1152 C1157 1.396 1_545 S
C1152 C1158 1.492 . S
C1153 C1152 1.404 . S
C1153 C1154 1.421 . S
C1153 C1164 1.492 . S
C1154 C1153 1.421 . S
C1154 C1155 1.373 1_545 S
C1154 C1170 1.501 . S
C1155 C1154 1.373 1_565 S
C1155 C1156 1.414 . S
C1155 C1176 1.519 . S
C1156 C1155 1.414 . S
C1156 C1157 1.355 . S
C1156 C1182 1.506 . S
C1157 C1152 1.396 1_565 S
C1157 C1156 1.355 . S
C1157 C1188 1.518 . S
C1158 C1152 1.492 . S
C1158 C1159 1.363 . S
C1158 C1163 1.390 1_545 S
C1159 H1124 0.930 . S
C1159 C1158 1.363 . S
C1159 C1160 1.372 . S
C1160 H1125 0.930 . S
C1160 C1159 1.372 . S
C1160 C1161 1.383 . S
C1161 C1160 1.383 . S
C1161 C1162 1.395 1_545 S
C1162 H1126 0.930 . S
C1162 C1161 1.395 1_565 S
C1162 C1163 1.362 . S
C1163 H1127 0.930 . S
C1163 C1158 1.390 1_565 S
C1163 C1162 1.362 . S
C1164 C1153 1.492 . S
C1164 C1165 1.377 . S
C1164 C1169 1.397 1_545 S
C1165 H1128 0.931 . S
C1165 C1164 1.377 . S
C1165 C1166 1.376 . S
C1166 H1129 0.930 . S
C1166 C1165 1.376 . S
C1166 C1167 1.376 . S
C1167 C1166 1.376 . S
C1167 C1168 1.378 1_545 S
C1167 C1194 1.486 . S
C1168 H1130 0.930 . S
C1168 C1167 1.378 1_565 S
C1168 C1169 1.376 . S
C1169 H1131 0.929 . S
C1169 C1164 1.397 1_565 S
C1169 C1168 1.376 . S
C1170 C1154 1.501 . S
C1170 C1171 1.399 . S
C1170 C1175 1.373 1_545 S
C1171 H1132 0.930 . S
C1171 C1170 1.399 . S
C1171 C1172 1.375 . S
C1172 H1133 0.931 . S
C1172 C1171 1.375 . S
C1172 C1173 1.365 1_545 S
C1173 C1172 1.365 1_565 S
C1173 C1174 1.367 . S
C1174 H1134 0.930 . S
C1174 C1173 1.367 . S
C1174 C1175 1.399 . S
C1175 H1135 0.929 . S
C1175 C1170 1.373 1_565 S
C1175 C1174 1.399 . S
C1176 C1155 1.519 . S
C1176 C1177 1.394 1_565 S
C1176 C1181 1.360 . S
C1177 H1136 0.931 . S
C1177 C1176 1.394 1_545 S
C1177 C1178 1.372 . S
C1178 H1137 0.930 . S
C1178 C1177 1.372 . S
C1178 C1179 1.397 1_545 S
C1179 C1178 1.397 1_565 S
C1179 C1180 1.390 . S
C1179 C1195 1.476 . S
C1180 H1138 0.930 . S
C1180 C1179 1.390 . S
C1180 C1181 1.366 . S
C1181 H1139 0.932 . S
C1181 C1176 1.360 . S
C1181 C1180 1.366 . S
C1182 C1156 1.506 . S
C1182 C1183 1.380 1_565 S
C1182 C1187 1.386 . S
C1183 H1140 0.930 . S
C1183 C1182 1.380 1_545 S
C1183 C1184 1.381 . S
C1184 H1141 0.929 . S
C1184 C1183 1.381 . S
C1184 C1185 1.354 1_545 S
C1185 C1184 1.354 1_565 S
C1185 C1186 1.393 . S
C1186 H1142 0.931 . S
C1186 C1185 1.393 . S
C1186 C1187 1.387 . S
C1187 H1143 0.930 . S
C1187 C1182 1.386 . S
C1187 C1186 1.387 . S
C1188 C1157 1.518 . S
C1188 C1189 1.377 1_565 S
C1188 C1193 1.361 . S
C1189 H1144 0.929 . S
C1189 C1188 1.377 1_545 S
C1189 C1190 1.386 . S
C1190 H1145 0.931 . S
C1190 C1189 1.386 . S
C1190 C1191 1.363 1_545 S
C1191 C1190 1.363 1_565 S
C1191 C1192 1.385 . S
C1192 H1146 0.930 . S
C1192 C1191 1.385 . S
C1192 C1193 1.396 . S
C1193 H1147 0.929 . S
C1193 C1188 1.361 . S
C1193 C1192 1.396 . S
C1194 O1148 1.300 . S
C1194 O1149 1.209 1_545 S
C1194 C1167 1.486 . S
C1195 O1150 1.199 1_565 S
C1195 O1151 1.297 . S
C1195 C1179 1.476 . S
H1196 O1222 0.856 . S
H1197 O1225 0.854 . S
H1198 C1233 0.930 . S
H1199 C1234 0.930 . S
H1200 C1236 0.930 . S
H1201 C1237 0.930 . S
H1202 C1239 0.931 . S
H1203 C1240 0.930 . S
H1204 C1242 0.930 . S
H1205 C1243 0.929 . S
H1206 C1245 0.930 . S
H1207 C1246 0.931 . S
H1208 C1248 0.930 . S
H1209 C1249 0.929 . S
H1210 C1251 0.931 . S
H1211 C1252 0.930 . S
H1212 C1254 0.930 . S
H1213 C1255 0.932 . S
H1214 C1257 0.930 . S
H1215 C1258 0.929 . S
H1216 C1260 0.931 . S
H1217 C1261 0.930 . S
H1218 C1263 0.929 . S
H1219 C1264 0.931 . S
H1220 C1266 0.930 . S
H1221 C1267 0.929 . S
O1222 H1196 0.856 . S
O1222 C1268 1.300 . S
O1223 C1268 1.209 1_455 S
O1224 C1269 1.199 1_655 S
O1225 H1197 0.854 . S
O1225 C1269 1.297 . S
C1226 C1227 1.404 . S
C1226 C1231 1.397 . S
C1226 C1232 1.492 . S
C1227 C1226 1.404 . S
C1227 C1228 1.396 . S
C1227 C1238 1.492 . S
C1228 C1227 1.396 . S
C1228 C1229 1.393 . S
C1228 C1244 1.509 . S
C1229 C1228 1.393 . S
C1229 C1230 1.387 1_655 S
C1229 C1250 1.517 1_655 S
C1230 C1229 1.387 1_455 S
C1230 C1231 1.395 1_455 S
C1230 C1256 1.488 . S
C1231 C1226 1.397 . S
C1231 C1230 1.395 1_655 S
C1231 C1262 1.521 1_655 S
C1232 C1226 1.492 . S
C1232 C1233 1.363 . S
C1232 C1237 1.390 1_655 S
C1233 H1198 0.930 . S
C1233 C1232 1.363 . S
C1233 C1234 1.372 . S
C1234 H1199 0.930 . S
C1234 C1233 1.372 . S
C1234 C1235 1.383 . S
C1235 C1234 1.383 . S
C1235 C1236 1.395 1_655 S
C1236 H1200 0.930 . S
C1236 C1235 1.395 1_455 S
C1236 C1237 1.362 . S
C1237 H1201 0.930 . S
C1237 C1232 1.390 1_455 S
C1237 C1236 1.362 . S
C1238 C1227 1.492 . S
C1238 C1239 1.377 . S
C1238 C1243 1.397 1_655 S
C1239 H1202 0.931 . S
C1239 C1238 1.377 . S
C1239 C1240 1.376 . S
C1240 H1203 0.930 . S
C1240 C1239 1.376 . S
C1240 C1241 1.376 . S
C1241 C1240 1.376 . S
C1241 C1242 1.378 1_655 S
C1241 C1268 1.486 . S
C1242 H1204 0.930 . S
C1242 C1241 1.378 1_455 S
C1242 C1243 1.376 . S
C1243 H1205 0.929 . S
C1243 C1238 1.397 1_455 S
C1243 C1242 1.376 . S
C1244 C1228 1.509 . S
C1244 C1245 1.391 . S
C1244 C1249 1.386 1_655 S
C1245 H1206 0.930 . S
C1245 C1244 1.391 . S
C1245 C1246 1.375 . S
C1246 H1207 0.931 . S
C1246 C1245 1.375 . S
C1246 C1247 1.375 . S
C1247 C1246 1.375 . S
C1247 C1248 1.361 1_655 S
C1248 H1208 0.930 . S
C1248 C1247 1.361 1_455 S
C1248 C1249 1.399 . S
C1249 H1209 0.929 . S
C1249 C1244 1.386 1_455 S
C1249 C1248 1.399 . S
C1250 C1229 1.517 1_455 S
C1250 C1251 1.383 1_455 S
C1250 C1255 1.364 . S
C1251 H1210 0.931 . S
C1251 C1250 1.383 1_655 S
C1251 C1252 1.372 . S
C1252 H1211 0.930 . S
C1252 C1251 1.372 . S
C1252 C1253 1.397 1_655 S
C1253 C1252 1.397 1_455 S
C1253 C1254 1.390 . S
C1253 C1269 1.476 . S
C1254 H1212 0.930 . S
C1254 C1253 1.390 . S
C1254 C1255 1.366 . S
C1255 H1213 0.932 . S
C1255 C1250 1.364 . S
C1255 C1254 1.366 . S
C1256 C1230 1.488 . S
C1256 C1257 1.380 1_455 S
C1256 C1261 1.386 . S
C1257 H1214 0.930 . S
C1257 C1256 1.380 1_655 S
C1257 C1258 1.381 . S
C1258 H1215 0.929 . S
C1258 C1257 1.381 . S
C1258 C1259 1.371 1_655 S
C1259 C1258 1.371 1_455 S
C1259 C1260 1.380 . S
C1260 H1216 0.931 . S
C1260 C1259 1.380 . S
C1260 C1261 1.387 . S
C1261 H1217 0.930 . S
C1261 C1256 1.386 . S
C1261 C1260 1.387 . S
C1262 C1231 1.521 1_455 S
C1262 C1263 1.377 1_455 S
C1262 C1267 1.361 . S
C1263 H1218 0.929 . S
C1263 C1262 1.377 1_655 S
C1263 C1264 1.386 . S
C1264 H1219 0.931 . S
C1264 C1263 1.386 . S
C1264 C1265 1.363 1_655 S
C1265 C1264 1.363 1_455 S
C1265 C1266 1.385 . S
C1266 H1220 0.930 . S
C1266 C1265 1.385 . S
C1266 C1267 1.396 . S
C1267 H1221 0.929 . S
C1267 C1262 1.361 . S
C1267 C1266 1.396 . S
C1268 O1222 1.300 . S
C1268 O1223 1.209 1_655 S
C1268 C1241 1.486 . S
C1269 O1224 1.199 1_455 S
C1269 O1225 1.297 . S
C1269 C1253 1.476 . S
H1270 O1296 0.856 . S
H1271 O1299 0.854 . S
H1272 C1307 0.930 . S
H1273 C1308 0.930 . S
H1274 C1310 0.930 . S
H1275 C1311 0.930 . S
H1276 C1313 0.931 . S
H1277 C1314 0.930 . S
H1278 C1316 0.930 . S
H1279 C1317 0.929 . S
H1280 C1319 0.930 . S
H1281 C1320 0.931 . S
H1282 C1322 0.930 . S
H1283 C1323 0.929 . S
H1284 C1325 0.931 . S
H1285 C1326 0.930 . S
H1286 C1328 0.930 . S
H1287 C1329 0.932 . S
H1288 C1331 0.930 . S
H1289 C1332 0.929 . S
H1290 C1334 0.931 . S
H1291 C1335 0.930 . S
H1292 C1337 0.929 . S
H1293 C1338 0.931 . S
H1294 C1340 0.930 . S
H1295 C1341 0.929 . S
O1296 H1270 0.856 . S
O1296 C1342 1.300 . S
O1297 C1342 1.209 . S
O1298 C1343 1.199 . S
O1299 H1271 0.854 . S
O1299 C1343 1.297 . S
C1300 C1301 1.404 . S
C1300 C1305 1.397 . S
C1300 C1306 1.492 . S
C1301 C1300 1.404 . S
C1301 C1302 1.396 . S
C1301 C1312 1.492 . S
C1302 C1301 1.396 . S
C1302 C1303 1.397 . S
C1302 C1318 1.509 . S
C1303 C1302 1.397 . S
C1303 C1304 1.412 . S
C1303 C1324 1.485 . S
C1304 C1303 1.412 . S
C1304 C1305 1.388 . S
C1304 C1330 1.490 . S
C1305 C1300 1.397 . S
C1305 C1304 1.388 . S
C1305 C1336 1.519 . S
C1306 C1300 1.492 . S
C1306 C1307 1.363 . S
C1306 C1311 1.390 . S
C1307 H1272 0.930 . S
C1307 C1306 1.363 . S
C1307 C1308 1.372 . S
C1308 H1273 0.930 . S
C1308 C1307 1.372 . S
C1308 C1309 1.383 . S
C1309 C1308 1.383 . S
C1309 C1310 1.395 . S
C1310 H1274 0.930 . S
C1310 C1309 1.395 . S
C1310 C1311 1.362 . S
C1311 H1275 0.930 . S
C1311 C1306 1.390 . S
C1311 C1310 1.362 . S
C1312 C1301 1.492 . S
C1312 C1313 1.377 . S
C1312 C1317 1.397 . S
C1313 H1276 0.931 . S
C1313 C1312 1.377 . S
C1313 C1314 1.376 . S
C1314 H1277 0.930 . S
C1314 C1313 1.376 . S
C1314 C1315 1.376 . S
C1315 C1314 1.376 . S
C1315 C1316 1.378 . S
C1315 C1342 1.486 . S
C1316 H1278 0.930 . S
C1316 C1315 1.378 . S
C1316 C1317 1.376 . S
C1317 H1279 0.929 . S
C1317 C1312 1.397 . S
C1317 C1316 1.376 . S
C1318 C1302 1.509 . S
C1318 C1319 1.391 . S
C1318 C1323 1.386 . S
C1319 H1280 0.930 . S
C1319 C1318 1.391 . S
C1319 C1320 1.375 . S
C1320 H1281 0.931 . S
C1320 C1319 1.375 . S
C1320 C1321 1.375 . S
C1321 C1320 1.375 . S
C1321 C1322 1.361 . S
C1322 H1282 0.930 . S
C1322 C1321 1.361 . S
C1322 C1323 1.399 . S
C1323 H1283 0.929 . S
C1323 C1318 1.386 . S
C1323 C1322 1.399 . S
C1324 C1303 1.485 . S
C1324 C1325 1.394 . S
C1324 C1329 1.360 . S
C1325 H1284 0.931 . S
C1325 C1324 1.394 . S
C1325 C1326 1.372 . S
C1326 H1285 0.930 . S
C1326 C1325 1.372 . S
C1326 C1327 1.397 . S
C1327 C1326 1.397 . S
C1327 C1328 1.390 . S
C1327 C1343 1.476 . S
C1328 H1286 0.930 . S
C1328 C1327 1.390 . S
C1328 C1329 1.366 . S
C1329 H1287 0.932 . S
C1329 C1324 1.360 . S
C1329 C1328 1.366 . S
C1330 C1304 1.490 . S
C1330 C1331 1.380 . S
C1330 C1335 1.386 . S
C1331 H1288 0.930 . S
C1331 C1330 1.380 . S
C1331 C1332 1.381 . S
C1332 H1289 0.929 . S
C1332 C1331 1.381 . S
C1332 C1333 1.371 . S
C1333 C1332 1.371 . S
C1333 C1334 1.380 . S
C1334 H1290 0.931 . S
C1334 C1333 1.380 . S
C1334 C1335 1.387 . S
C1335 H1291 0.930 . S
C1335 C1330 1.386 . S
C1335 C1334 1.387 . S
C1336 C1305 1.519 . S
C1336 C1337 1.377 . S
C1336 C1341 1.361 . S
C1337 H1292 0.929 . S
C1337 C1336 1.377 . S
C1337 C1338 1.386 . S
C1338 H1293 0.931 . S
C1338 C1337 1.386 . S
C1338 C1339 1.363 . S
C1339 C1338 1.363 . S
C1339 C1340 1.385 . S
C1340 H1294 0.930 . S
C1340 C1339 1.385 . S
C1340 C1341 1.396 . S
C1341 H1295 0.929 . S
C1341 C1336 1.361 . S
C1341 C1340 1.396 . S
C1342 O1296 1.300 . S
C1342 O1297 1.209 . S
C1342 C1315 1.486 . S
C1343 O1298 1.199 . S
C1343 O1299 1.297 . S
C1343 C1327 1.476 . S
H1344 O1370 0.856 . S
H1345 O1373 0.854 . S
H1346 C1381 0.930 . S
H1347 C1382 0.930 . S
H1348 C1384 0.930 . S
H1349 C1385 0.930 . S
H1350 C1387 0.931 . S
H1351 C1388 0.930 . S
H1352 C1390 0.930 . S
H1353 C1391 0.929 . S
H1354 C1393 0.930 . S
H1355 C1394 0.931 . S
H1356 C1396 0.930 . S
H1357 C1397 0.929 . S
H1358 C1399 0.931 . S
H1359 C1400 0.930 . S
H1360 C1402 0.930 . S
H1361 C1403 0.932 . S
H1362 C1405 0.930 . S
H1363 C1406 0.929 . S
H1364 C1408 0.931 . S
H1365 C1409 0.930 . S
H1366 C1411 0.929 . S
H1367 C1412 0.931 . S
H1368 C1414 0.930 . S
H1369 C1415 0.929 . S
O1370 H1344 0.856 . S
O1370 C1416 1.300 . S
O1371 C1416 1.209 . S
O1372 C1417 1.199 . S
O1373 H1345 0.854 . S
O1373 C1417 1.297 . S
C1374 C1375 1.404 . S
C1374 C1379 1.397 . S
C1374 C1380 1.492 . S
C1375 C1374 1.404 . S
C1375 C1376 1.396 . S
C1375 C1386 1.492 . S
C1376 C1375 1.396 . S
C1376 C1377 1.397 . S
C1376 C1392 1.509 . S
C1377 C1376 1.397 . S
C1377 C1378 1.412 . S
C1377 C1398 1.485 . S
C1378 C1377 1.412 . S
C1378 C1379 1.388 . S
C1378 C1404 1.490 . S
C1379 C1374 1.397 . S
C1379 C1378 1.388 . S
C1379 C1410 1.519 . S
C1380 C1374 1.492 . S
C1380 C1381 1.363 . S
C1380 C1385 1.390 . S
C1381 H1346 0.930 . S
C1381 C1380 1.363 . S
C1381 C1382 1.372 . S
C1382 H1347 0.930 . S
C1382 C1381 1.372 . S
C1382 C1383 1.383 . S
C1383 C1382 1.383 . S
C1383 C1384 1.395 . S
C1384 H1348 0.930 . S
C1384 C1383 1.395 . S
C1384 C1385 1.362 . S
C1385 H1349 0.930 . S
C1385 C1380 1.390 . S
C1385 C1384 1.362 . S
C1386 C1375 1.492 . S
C1386 C1387 1.377 . S
C1386 C1391 1.397 . S
C1387 H1350 0.931 . S
C1387 C1386 1.377 . S
C1387 C1388 1.376 . S
C1388 H1351 0.930 . S
C1388 C1387 1.376 . S
C1388 C1389 1.376 . S
C1389 C1388 1.376 . S
C1389 C1390 1.378 . S
C1389 C1416 1.486 . S
C1390 H1352 0.930 . S
C1390 C1389 1.378 . S
C1390 C1391 1.376 . S
C1391 H1353 0.929 . S
C1391 C1386 1.397 . S
C1391 C1390 1.376 . S
C1392 C1376 1.509 . S
C1392 C1393 1.391 . S
C1392 C1397 1.386 . S
C1393 H1354 0.930 . S
C1393 C1392 1.391 . S
C1393 C1394 1.375 . S
C1394 H1355 0.931 . S
C1394 C1393 1.375 . S
C1394 C1395 1.375 . S
C1395 C1394 1.375 . S
C1395 C1396 1.361 . S
C1396 H1356 0.930 . S
C1396 C1395 1.361 . S
C1396 C1397 1.399 . S
C1397 H1357 0.929 . S
C1397 C1392 1.386 . S
C1397 C1396 1.399 . S
C1398 C1377 1.485 . S
C1398 C1399 1.394 . S
C1398 C1403 1.360 . S
C1399 H1358 0.931 . S
C1399 C1398 1.394 . S
C1399 C1400 1.372 . S
C1400 H1359 0.930 . S
C1400 C1399 1.372 . S
C1400 C1401 1.397 . S
C1401 C1400 1.397 . S
C1401 C1402 1.390 . S
C1401 C1417 1.476 . S
C1402 H1360 0.930 . S
C1402 C1401 1.390 . S
C1402 C1403 1.366 . S
C1403 H1361 0.932 . S
C1403 C1398 1.360 . S
C1403 C1402 1.366 . S
C1404 C1378 1.490 . S
C1404 C1405 1.380 . S
C1404 C1409 1.386 . S
C1405 H1362 0.930 . S
C1405 C1404 1.380 . S
C1405 C1406 1.381 . S
C1406 H1363 0.929 . S
C1406 C1405 1.381 . S
C1406 C1407 1.371 . S
C1407 C1406 1.371 . S
C1407 C1408 1.380 . S
C1408 H1364 0.931 . S
C1408 C1407 1.380 . S
C1408 C1409 1.387 . S
C1409 H1365 0.930 . S
C1409 C1404 1.386 . S
C1409 C1408 1.387 . S
C1410 C1379 1.519 . S
C1410 C1411 1.377 . S
C1410 C1415 1.361 . S
C1411 H1366 0.929 . S
C1411 C1410 1.377 . S
C1411 C1412 1.386 . S
C1412 H1367 0.931 . S
C1412 C1411 1.386 . S
C1412 C1413 1.363 . S
C1413 C1412 1.363 . S
C1413 C1414 1.385 . S
C1414 H1368 0.930 . S
C1414 C1413 1.385 . S
C1414 C1415 1.396 . S
C1415 H1369 0.929 . S
C1415 C1410 1.361 . S
C1415 C1414 1.396 . S
C1416 O1370 1.300 . S
C1416 O1371 1.209 . S
C1416 C1389 1.486 . S
C1417 O1372 1.199 . S
C1417 O1373 1.297 . S
C1417 C1401 1.476 . S
H1418 O1444 0.856 . S
H1419 O1447 0.854 . S
H1420 C1455 0.930 . S
H1421 C1456 0.930 . S
H1422 C1458 0.930 . S
H1423 C1459 0.930 . S
H1424 C1461 0.931 . S
H1425 C1462 0.930 . S
H1426 C1464 0.930 . S
H1427 C1465 0.929 . S
H1428 C1467 0.930 . S
H1429 C1468 0.931 . S
H1430 C1470 0.930 . S
H1431 C1471 0.929 . S
H1432 C1473 0.931 . S
H1433 C1474 0.930 . S
H1434 C1476 0.930 . S
H1435 C1477 0.932 . S
H1436 C1479 0.930 . S
H1437 C1480 0.929 . S
H1438 C1482 0.931 . S
H1439 C1483 0.930 . S
H1440 C1485 0.929 . S
H1441 C1486 0.931 . S
H1442 C1488 0.930 . S
H1443 C1489 0.929 . S
O1444 H1418 0.856 . S
O1444 C1490 1.300 . S
O1445 C1490 1.209 . S
O1446 C1491 1.199 . S
O1447 H1419 0.854 . S
O1447 C1491 1.297 . S
C1448 C1449 1.404 . S
C1448 C1453 1.397 . S
C1448 C1454 1.492 . S
C1449 C1448 1.404 . S
C1449 C1450 1.396 . S
C1449 C1460 1.492 . S
C1450 C1449 1.396 . S
C1450 C1451 1.397 . S
C1450 C1466 1.509 . S
C1451 C1450 1.397 . S
C1451 C1452 1.412 . S
C1451 C1472 1.485 . S
C1452 C1451 1.412 . S
C1452 C1453 1.388 . S
C1452 C1478 1.490 . S
C1453 C1448 1.397 . S
C1453 C1452 1.388 . S
C1453 C1484 1.519 . S
C1454 C1448 1.492 . S
C1454 C1455 1.363 . S
C1454 C1459 1.390 . S
C1455 H1420 0.930 . S
C1455 C1454 1.363 . S
C1455 C1456 1.372 . S
C1456 H1421 0.930 . S
C1456 C1455 1.372 . S
C1456 C1457 1.383 . S
C1457 C1456 1.383 . S
C1457 C1458 1.395 . S
C1458 H1422 0.930 . S
C1458 C1457 1.395 . S
C1458 C1459 1.362 . S
C1459 H1423 0.930 . S
C1459 C1454 1.390 . S
C1459 C1458 1.362 . S
C1460 C1449 1.492 . S
C1460 C1461 1.377 . S
C1460 C1465 1.397 . S
C1461 H1424 0.931 . S
C1461 C1460 1.377 . S
C1461 C1462 1.376 . S
C1462 H1425 0.930 . S
C1462 C1461 1.376 . S
C1462 C1463 1.376 . S
C1463 C1462 1.376 . S
C1463 C1464 1.378 . S
C1463 C1490 1.486 . S
C1464 H1426 0.930 . S
C1464 C1463 1.378 . S
C1464 C1465 1.376 . S
C1465 H1427 0.929 . S
C1465 C1460 1.397 . S
C1465 C1464 1.376 . S
C1466 C1450 1.509 . S
C1466 C1467 1.391 . S
C1466 C1471 1.386 . S
C1467 H1428 0.930 . S
C1467 C1466 1.391 . S
C1467 C1468 1.375 . S
C1468 H1429 0.931 . S
C1468 C1467 1.375 . S
C1468 C1469 1.375 . S
C1469 C1468 1.375 . S
C1469 C1470 1.361 . S
C1470 H1430 0.930 . S
C1470 C1469 1.361 . S
C1470 C1471 1.399 . S
C1471 H1431 0.929 . S
C1471 C1466 1.386 . S
C1471 C1470 1.399 . S
C1472 C1451 1.485 . S
C1472 C1473 1.394 . S
C1472 C1477 1.360 . S
C1473 H1432 0.931 . S
C1473 C1472 1.394 . S
C1473 C1474 1.372 . S
C1474 H1433 0.930 . S
C1474 C1473 1.372 . S
C1474 C1475 1.397 . S
C1475 C1474 1.397 . S
C1475 C1476 1.390 . S
C1475 C1491 1.476 . S
C1476 H1434 0.930 . S
C1476 C1475 1.390 . S
C1476 C1477 1.366 . S
C1477 H1435 0.932 . S
C1477 C1472 1.360 . S
C1477 C1476 1.366 . S
C1478 C1452 1.490 . S
C1478 C1479 1.380 . S
C1478 C1483 1.386 . S
C1479 H1436 0.930 . S
C1479 C1478 1.380 . S
C1479 C1480 1.381 . S
C1480 H1437 0.929 . S
C1480 C1479 1.381 . S
C1480 C1481 1.371 . S
C1481 C1480 1.371 . S
C1481 C1482 1.380 . S
C1482 H1438 0.931 . S
C1482 C1481 1.380 . S
C1482 C1483 1.387 . S
C1483 H1439 0.930 . S
C1483 C1478 1.386 . S
C1483 C1482 1.387 . S
C1484 C1453 1.519 . S
C1484 C1485 1.377 . S
C1484 C1489 1.361 . S
C1485 H1440 0.929 . S
C1485 C1484 1.377 . S
C1485 C1486 1.386 . S
C1486 H1441 0.931 . S
C1486 C1485 1.386 . S
C1486 C1487 1.363 . S
C1487 C1486 1.363 . S
C1487 C1488 1.385 . S
C1488 H1442 0.930 . S
C1488 C1487 1.385 . S
C1488 C1489 1.396 . S
C1489 H1443 0.929 . S
C1489 C1484 1.361 . S
C1489 C1488 1.396 . S
C1490 O1444 1.300 . S
C1490 O1445 1.209 . S
C1490 C1463 1.486 . S
C1491 O1446 1.199 . S
C1491 O1447 1.297 . S
C1491 C1475 1.476 . S
H1492 O1518 0.856 . S
H1493 O1521 0.854 . S
H1494 C1529 0.930 . S
H1495 C1530 0.930 . S
H1496 C1532 0.930 . S
H1497 C1533 0.930 . S
H1498 C1535 0.931 . S
H1499 C1536 0.930 . S
H1500 C1538 0.930 . S
H1501 C1539 0.929 . S
H1502 C1541 0.930 . S
H1503 C1542 0.931 . S
H1504 C1544 0.930 . S
H1505 C1545 0.929 . S
H1506 C1547 0.931 . S
H1507 C1548 0.930 . S
H1508 C1550 0.930 . S
H1509 C1551 0.932 . S
H1510 C1553 0.930 . S
H1511 C1554 0.929 . S
H1512 C1556 0.931 . S
H1513 C1557 0.930 . S
H1514 C1559 0.929 . S
H1515 C1560 0.931 . S
H1516 C1562 0.930 . S
H1517 C1563 0.929 . S
O1518 H1492 0.856 . S
O1518 C1564 1.300 . S
O1519 C1564 1.209 . S
O1520 C1565 1.199 . S
O1521 H1493 0.854 . S
O1521 C1565 1.297 . S
C1522 C1523 1.404 . S
C1522 C1527 1.397 . S
C1522 C1528 1.492 . S
C1523 C1522 1.404 . S
C1523 C1524 1.396 . S
C1523 C1534 1.492 . S
C1524 C1523 1.396 . S
C1524 C1525 1.397 . S
C1524 C1540 1.509 . S
C1525 C1524 1.397 . S
C1525 C1526 1.412 . S
C1525 C1546 1.485 . S
C1526 C1525 1.412 . S
C1526 C1527 1.388 . S
C1526 C1552 1.490 . S
C1527 C1522 1.397 . S
C1527 C1526 1.388 . S
C1527 C1558 1.519 . S
C1528 C1522 1.492 . S
C1528 C1529 1.363 . S
C1528 C1533 1.390 . S
C1529 H1494 0.930 . S
C1529 C1528 1.363 . S
C1529 C1530 1.372 . S
C1530 H1495 0.930 . S
C1530 C1529 1.372 . S
C1530 C1531 1.383 . S
C1531 C1530 1.383 . S
C1531 C1532 1.395 . S
C1532 H1496 0.930 . S
C1532 C1531 1.395 . S
C1532 C1533 1.362 . S
C1533 H1497 0.930 . S
C1533 C1528 1.390 . S
C1533 C1532 1.362 . S
C1534 C1523 1.492 . S
C1534 C1535 1.377 . S
C1534 C1539 1.397 . S
C1535 H1498 0.931 . S
C1535 C1534 1.377 . S
C1535 C1536 1.376 . S
C1536 H1499 0.930 . S
C1536 C1535 1.376 . S
C1536 C1537 1.376 . S
C1537 C1536 1.376 . S
C1537 C1538 1.378 . S
C1537 C1564 1.486 . S
C1538 H1500 0.930 . S
C1538 C1537 1.378 . S
C1538 C1539 1.376 . S
C1539 H1501 0.929 . S
C1539 C1534 1.397 . S
C1539 C1538 1.376 . S
C1540 C1524 1.509 . S
C1540 C1541 1.391 . S
C1540 C1545 1.386 . S
C1541 H1502 0.930 . S
C1541 C1540 1.391 . S
C1541 C1542 1.375 . S
C1542 H1503 0.931 . S
C1542 C1541 1.375 . S
C1542 C1543 1.375 . S
C1543 C1542 1.375 . S
C1543 C1544 1.361 . S
C1544 H1504 0.930 . S
C1544 C1543 1.361 . S
C1544 C1545 1.399 . S
C1545 H1505 0.929 . S
C1545 C1540 1.386 . S
C1545 C1544 1.399 . S
C1546 C1525 1.485 . S
C1546 C1547 1.394 . S
C1546 C1551 1.360 . S
C1547 H1506 0.931 . S
C1547 C1546 1.394 . S
C1547 C1548 1.372 . S
C1548 H1507 0.930 . S
C1548 C1547 1.372 . S
C1548 C1549 1.397 . S
C1549 C1548 1.397 . S
C1549 C1550 1.390 . S
C1549 C1565 1.476 . S
C1550 H1508 0.930 . S
C1550 C1549 1.390 . S
C1550 C1551 1.366 . S
C1551 H1509 0.932 . S
C1551 C1546 1.360 . S
C1551 C1550 1.366 . S
C1552 C1526 1.490 . S
C1552 C1553 1.380 . S
C1552 C1557 1.386 . S
C1553 H1510 0.930 . S
C1553 C1552 1.380 . S
C1553 C1554 1.381 . S
C1554 H1511 0.929 . S
C1554 C1553 1.381 . S
C1554 C1555 1.371 . S
C1555 C1554 1.371 . S
C1555 C1556 1.380 . S
C1556 H1512 0.931 . S
C1556 C1555 1.380 . S
C1556 C1557 1.387 . S
C1557 H1513 0.930 . S
C1557 C1552 1.386 . S
C1557 C1556 1.387 . S
C1558 C1527 1.519 . S
C1558 C1559 1.377 . S
C1558 C1563 1.361 . S
C1559 H1514 0.929 . S
C1559 C1558 1.377 . S
C1559 C1560 1.386 . S
C1560 H1515 0.931 . S
C1560 C1559 1.386 . S
C1560 C1561 1.363 . S
C1561 C1560 1.363 . S
C1561 C1562 1.385 . S
C1562 H1516 0.930 . S
C1562 C1561 1.385 . S
C1562 C1563 1.396 . S
C1563 H1517 0.929 . S
C1563 C1558 1.361 . S
C1563 C1562 1.396 . S
C1564 O1518 1.300 . S
C1564 O1519 1.209 . S
C1564 C1537 1.486 . S
C1565 O1520 1.199 . S
C1565 O1521 1.297 . S
C1565 C1549 1.476 . S
H1566 C1572 0.930 . S
H1567 C1576 0.930 . S
H1568 C1581 0.929 . S
H1569 C1579 0.954 . S
H1570 C1574 0.929 . S
H1571 C1580 0.935 . S
C1572 H1566 0.930 . S
C1572 C1573 1.367 1_455 S
C1572 C1580 1.388 . S
C1573 C1572 1.367 1_655 S
C1573 C1581 1.433 . S
C1574 H1570 0.929 . S
C1574 C1576 1.378 . S
C1574 C1578 1.350 . S
C1575 C1578 1.463 . S
C1575 C1580 1.333 1_655 S
C1575 N1583 1.427 . S
C1576 H1567 0.930 . S
C1576 C1574 1.378 . S
C1576 C1577 1.367 . S
C1577 C1576 1.367 . S
C1577 C1579 1.433 . S
C1578 C1574 1.350 . S
C1578 C1575 1.463 . S
C1578 N1582 1.427 . S
C1579 H1569 0.954 . S
C1579 C1577 1.433 . S
C1579 N1582 1.384 . S
C1580 H1571 0.935 . S
C1580 C1572 1.388 . S
C1580 C1575 1.333 1_455 S
C1581 H1568 0.929 . S
C1581 C1573 1.433 . S
C1581 N1583 1.384 . S
N1582 C1578 1.427 . S
N1582 C1579 1.384 . S
N1583 C1575 1.427 . S
N1583 C1581 1.384 . S
H1584 C1590 0.930 . S
H1585 C1594 0.930 . S
H1586 C1599 0.929 . S
H1587 C1597 0.929 . S
H1588 C1592 0.929 . S
H1589 C1598 0.929 . S
C1590 H1584 0.930 . S
C1590 C1591 1.367 . S
C1590 C1598 1.378 . S
C1591 C1590 1.367 . S
C1591 C1599 1.433 . S
C1592 H1588 0.929 . S
C1592 C1594 1.378 . S
C1592 C1596 1.350 . S
C1593 C1596 1.463 . S
C1593 C1598 1.350 . S
C1593 N1601 1.427 . S
C1594 H1585 0.930 . S
C1594 C1592 1.378 . S
C1594 C1595 1.367 . S
C1595 C1594 1.367 . S
C1595 C1597 1.433 . S
C1596 C1592 1.350 . S
C1596 C1593 1.463 . S
C1596 N1600 1.427 . S
C1597 H1587 0.929 . S
C1597 C1595 1.433 . S
C1597 N1600 1.384 . S
C1598 H1589 0.929 . S
C1598 C1590 1.378 . S
C1598 C1593 1.350 . S
C1599 H1586 0.929 . S
C1599 C1591 1.433 . S
C1599 N1601 1.384 . S
N1600 C1596 1.427 . S
N1600 C1597 1.384 . S
N1601 C1593 1.427 . S
N1601 C1599 1.384 . S
H1602 C1608 0.930 . S
H1603 C1612 0.930 . S
H1604 C1617 0.929 . S
H1605 C1615 0.906 1_565 S
H1606 C1610 0.929 . S
H1607 C1616 0.958 . S
C1608 H1602 0.930 . S
C1608 C1609 1.367 . S
C1608 C1616 1.378 . S
C1609 C1608 1.367 . S
C1609 C1617 1.433 . S
C1610 H1606 0.929 . S
C1610 C1612 1.378 . S
C1610 C1614 1.350 . S
C1611 C1614 1.463 . S
C1611 C1616 1.350 . S
C1611 N1619 1.427 . S
C1612 H1603 0.930 . S
C1612 C1610 1.378 . S
C1612 C1613 1.367 . S
C1613 C1612 1.367 . S
C1613 C1615 1.433 . S
C1614 C1610 1.350 . S
C1614 C1611 1.463 . S
C1614 N1618 1.427 . S
C1615 H1605 0.906 1_545 S
C1615 C1613 1.433 . S
C1615 N1618 1.384 . S
C1616 H1607 0.958 . S
C1616 C1608 1.378 . S
C1616 C1611 1.350 . S
C1617 H1604 0.929 . S
C1617 C1609 1.433 . S
C1617 N1619 1.384 . S
N1618 C1614 1.427 . S
N1618 C1615 1.384 . S
N1619 C1611 1.427 . S
N1619 C1617 1.384 . S
H1620 C1626 0.930 . S
H1621 C1630 0.930 . S
H1622 C1635 0.929 . S
H1623 C1633 0.929 . S
H1624 C1628 0.929 . S
H1625 C1634 0.929 . S
C1626 H1620 0.930 . S
C1626 C1627 1.367 . S
C1626 C1634 1.378 . S
C1627 C1626 1.367 . S
C1627 C1635 1.433 1_565 S
C1628 H1624 0.929 . S
C1628 C1630 1.378 . S
C1628 C1632 1.350 1_545 S
C1629 C1632 1.463 . S
C1629 C1634 1.350 . S
C1629 N1637 1.427 1_565 S
C1630 H1621 0.930 . S
C1630 C1628 1.378 . S
C1630 C1631 1.367 1_545 S
C1631 C1630 1.367 1_565 S
C1631 C1633 1.433 . S
C1632 C1628 1.350 1_565 S
C1632 C1629 1.463 . S
C1632 N1636 1.427 . S
C1633 H1623 0.929 . S
C1633 C1631 1.433 . S
C1633 N1636 1.384 . S
C1634 H1625 0.929 . S
C1634 C1626 1.378 . S
C1634 C1629 1.350 . S
C1635 H1622 0.929 . S
C1635 C1627 1.433 1_545 S
C1635 N1637 1.384 . S
N1636 C1632 1.427 . S
N1636 C1633 1.384 . S
N1637 C1629 1.427 1_545 S
N1637 C1635 1.384 . S
H1638 C1644 0.930 1_655 S
H1639 C1648 0.930 . S
H1640 C1653 0.929 . S
H1641 C1651 0.929 1_655 S
H1642 C1646 0.929 . S
H1643 C1652 0.929 1_655 S
C1644 H1638 0.930 1_455 S
C1644 C1645 1.367 . S
C1644 C1652 1.378 . S
C1645 C1644 1.367 . S
C1645 C1653 1.433 . S
C1646 H1642 0.929 . S
C1646 C1648 1.378 . S
C1646 C1650 1.350 . S
C1647 C1650 1.463 . S
C1647 C1652 1.350 . S
C1647 N1655 1.427 . S
C1648 H1639 0.930 . S
C1648 C1646 1.378 . S
C1648 C1649 1.367 . S
C1649 C1648 1.367 . S
C1649 C1651 1.433 . S
C1650 C1646 1.350 . S
C1650 C1647 1.463 . S
C1650 N1654 1.427 . S
C1651 H1641 0.929 1_455 S
C1651 C1649 1.433 . S
C1651 N1654 1.384 . S
C1652 H1643 0.929 1_455 S
C1652 C1644 1.378 . S
C1652 C1647 1.350 . S
C1653 H1640 0.929 . S
C1653 C1645 1.433 . S
C1653 N1655 1.384 . S
N1654 C1650 1.427 . S
N1654 C1651 1.384 . S
N1655 C1647 1.427 . S
N1655 C1653 1.384 . S
H1656 C1662 0.930 . S
H1657 C1666 0.930 . S
H1658 C1671 0.929 . S
H1659 C1669 0.929 . S
H1660 C1664 0.929 . S
H1661 C1670 0.929 . S
C1662 H1656 0.930 . S
C1662 C1663 1.367 . S
C1662 C1670 1.378 . S
C1663 C1662 1.367 . S
C1663 C1671 1.433 1_554 S
C1664 H1660 0.929 . S
C1664 C1666 1.378 . S
C1664 C1668 1.350 . S
C1665 C1668 1.463 . S
C1665 C1670 1.350 1_556 S
C1665 N1673 1.427 . S
C1666 H1657 0.930 . S
C1666 C1664 1.378 . S
C1666 C1667 1.367 . S
C1667 C1666 1.367 . S
C1667 C1669 1.433 . S
C1668 C1664 1.350 . S
C1668 C1665 1.463 . S
C1668 N1672 1.427 . S
C1669 H1659 0.929 . S
C1669 C1667 1.433 . S
C1669 N1672 1.384 . S
C1670 H1661 0.929 . S
C1670 C1662 1.378 . S
C1670 C1665 1.350 1_554 S
C1671 H1658 0.929 . S
C1671 C1663 1.433 1_556 S
C1671 N1673 1.384 . S
N1672 C1668 1.427 . S
N1672 C1669 1.384 . S
N1673 C1665 1.427 . S
N1673 C1671 1.384 . S
H1674 C1680 0.930 . S
H1675 C1684 0.930 . S
H1676 C1689 0.929 1_655 S
H1677 C1687 0.929 . S
H1678 C1682 0.929 . S
H1679 C1688 0.929 . S
C1680 H1674 0.930 . S
C1680 C1681 1.367 1_556 S
C1680 C1688 1.378 . S
C1681 C1680 1.367 1_554 S
C1681 C1689 1.433 . S
C1682 H1678 0.929 . S
C1682 C1684 1.378 . S
C1682 C1686 1.350 1_655 S
C1683 C1686 1.463 . S
C1683 C1688 1.350 . S
C1683 N1691 1.427 . S
C1684 H1675 0.930 . S
C1684 C1682 1.378 . S
C1684 C1685 1.367 1_655 S
C1685 C1684 1.367 1_455 S
C1685 C1687 1.433 . S
C1686 C1682 1.350 1_455 S
C1686 C1683 1.463 . S
C1686 N1690 1.427 . S
C1687 H1677 0.929 . S
C1687 C1685 1.433 . S
C1687 N1690 1.384 . S
C1688 H1679 0.929 . S
C1688 C1680 1.378 . S
C1688 C1683 1.350 . S
C1689 H1676 0.929 1_455 S
C1689 C1681 1.433 . S
C1689 N1691 1.384 1_554 S
N1690 C1686 1.427 . S
N1690 C1687 1.384 . S
N1691 C1683 1.427 . S
N1691 C1689 1.384 1_556 S
H1692 C1698 0.930 . S
H1693 C1702 0.930 . S
H1694 C1707 0.929 . S
H1695 C1705 0.929 . S
H1696 C1700 0.929 . S
H1697 C1706 0.929 . S
C1698 H1692 0.930 . S
C1698 C1699 1.367 . S
C1698 C1706 1.378 . S
C1699 C1698 1.367 . S
C1699 C1707 1.433 . S
C1700 H1696 0.929 . S
C1700 C1702 1.378 . S
C1700 C1704 1.350 . S
C1701 C1704 1.463 . S
C1701 C1706 1.350 . S
C1701 N1709 1.427 . S
C1702 H1693 0.930 . S
C1702 C1700 1.378 . S
C1702 C1703 1.367 . S
C1703 C1702 1.367 . S
C1703 C1705 1.433 . S
C1704 C1700 1.350 . S
C1704 C1701 1.463 . S
C1704 N1708 1.427 . S
C1705 H1695 0.929 . S
C1705 C1703 1.433 . S
C1705 N1708 1.384 . S
C1706 H1697 0.929 . S
C1706 C1698 1.378 . S
C1706 C1701 1.350 . S
C1707 H1694 0.929 . S
C1707 C1699 1.433 . S
C1707 N1709 1.384 . S
N1708 C1704 1.427 . S
N1708 C1705 1.384 . S
N1709 C1701 1.427 . S
N1709 C1707 1.384 . S
H1710 C1716 0.930 . S
H1711 C1720 0.930 . S
H1712 C1725 0.929 . S
H1713 C1723 0.929 . S
H1714 C1718 0.930 . S
H1715 C1724 0.929 . S
C1716 H1710 0.930 . S
C1716 C1717 1.367 . S
C1716 C1724 1.378 . S
C1717 C1716 1.367 . S
C1717 C1725 1.433 1_556 S
C1718 H1714 0.930 . S
C1718 C1720 1.378 1_565 S
C1718 C1722 1.350 . S
C1719 C1722 1.463 . S
C1719 C1724 1.350 . S
C1719 N1727 1.427 . S
C1720 H1711 0.930 . S
C1720 C1718 1.378 1_545 S
C1720 C1721 1.362 1_545 S
C1721 C1720 1.362 1_565 S
C1721 C1723 1.455 . S
C1722 C1718 1.350 . S
C1722 C1719 1.463 . S
C1722 N1726 1.427 . S
C1723 H1713 0.929 . S
C1723 C1721 1.455 . S
C1723 N1726 1.384 . S
C1724 H1715 0.929 . S
C1724 C1716 1.378 . S
C1724 C1719 1.350 . S
C1725 H1712 0.929 . S
C1725 C1717 1.433 1_554 S
C1725 N1727 1.384 1_554 S
N1726 C1722 1.427 . S
N1726 C1723 1.384 . S
N1727 C1719 1.427 . S
N1727 C1725 1.384 1_556 S
H1728 C1734 0.930 . S
H1729 C1738 0.930 . S
H1730 C1743 0.929 . S
H1731 C1741 0.929 . S
H1732 C1736 0.929 . S
H1733 C1742 0.929 . S
C1734 H1728 0.930 . S
C1734 C1735 1.367 . S
C1734 C1742 1.378 . S
C1735 C1734 1.367 . S
C1735 C1743 1.433 1_545 S
C1736 H1732 0.929 . S
C1736 C1738 1.378 . S
C1736 C1740 1.350 1_565 S
C1737 C1740 1.463 . S
C1737 C1742 1.350 . S
C1737 N1745 1.427 1_545 S
C1738 H1729 0.930 . S
C1738 C1736 1.378 . S
C1738 C1739 1.369 1_565 S
C1739 C1738 1.369 1_545 S
C1739 C1741 1.431 . S
C1740 C1736 1.350 1_545 S
C1740 C1737 1.463 . S
C1740 N1744 1.427 . S
C1741 H1731 0.929 . S
C1741 C1739 1.431 . S
C1741 N1744 1.384 . S
C1742 H1733 0.929 . S
C1742 C1734 1.378 . S
C1742 C1737 1.350 . S
C1743 H1730 0.929 . S
C1743 C1735 1.433 1_565 S
C1743 N1745 1.384 . S
N1744 C1740 1.427 . S
N1744 C1741 1.384 . S
N1745 C1737 1.427 1_565 S
N1745 C1743 1.384 . S
H1746 C1752 0.930 . S
H1747 C1756 0.930 . S
H1748 C1761 0.929 . S
H1749 C1759 0.929 . S
H1750 C1754 0.929 . S
H1751 C1760 0.929 . S
C1752 H1746 0.930 . S
C1752 C1753 1.367 1_455 S
C1752 C1760 1.378 . S
C1753 C1752 1.367 1_655 S
C1753 C1761 1.433 . S
C1754 H1750 0.929 . S
C1754 C1756 1.378 . S
C1754 C1758 1.350 . S
C1755 C1758 1.463 . S
C1755 C1760 1.350 1_655 S
C1755 N1763 1.427 . S
C1756 H1747 0.930 . S
C1756 C1754 1.378 . S
C1756 C1757 1.367 . S
C1757 C1756 1.367 . S
C1757 C1759 1.433 1_655 S
C1758 C1754 1.350 . S
C1758 C1755 1.463 . S
C1758 N1762 1.427 1_655 S
C1759 H1749 0.929 . S
C1759 C1757 1.433 1_455 S
C1759 N1762 1.384 . S
C1760 H1751 0.929 . S
C1760 C1752 1.378 . S
C1760 C1755 1.350 1_455 S
C1761 H1748 0.929 . S
C1761 C1753 1.433 . S
C1761 N1763 1.384 . S
N1762 C1758 1.427 1_455 S
N1762 C1759 1.384 . S
N1763 C1755 1.427 . S
N1763 C1761 1.384 . S
H1764 C1770 0.930 . S
H1765 C1774 0.930 . S
H1766 C1779 0.929 . S
H1767 C1777 0.929 . S
H1768 C1772 0.929 . S
H1769 C1778 0.929 . S
C1770 H1764 0.930 . S
C1770 C1771 1.367 . S
C1770 C1778 1.378 . S
C1771 C1770 1.367 . S
C1771 C1779 1.433 . S
C1772 H1768 0.929 . S
C1772 C1774 1.378 . S
C1772 C1776 1.350 . S
C1773 C1776 1.463 . S
C1773 C1778 1.350 . S
C1773 N1781 1.427 . S
C1774 H1765 0.930 . S
C1774 C1772 1.378 . S
C1774 C1775 1.367 . S
C1775 C1774 1.367 . S
C1775 C1777 1.433 . S
C1776 C1772 1.350 . S
C1776 C1773 1.463 . S
C1776 N1780 1.427 . S
C1777 H1767 0.929 . S
C1777 C1775 1.433 . S
C1777 N1780 1.384 . S
C1778 H1769 0.929 . S
C1778 C1770 1.378 . S
C1778 C1773 1.350 . S
C1779 H1766 0.929 . S
C1779 C1771 1.433 . S
C1779 N1781 1.384 . S
N1780 C1776 1.427 . S
N1780 C1777 1.384 . S
N1781 C1773 1.427 . S
N1781 C1779 1.384 . S
H1782 C1788 0.930 . S
H1783 C1792 0.930 . S
H1784 C1797 0.929 . S
H1785 C1795 0.929 . S
H1786 C1790 0.929 . S
H1787 C1796 0.929 . S
C1788 H1782 0.930 . S
C1788 C1789 1.367 . S
C1788 C1796 1.378 . S
C1789 C1788 1.367 . S
C1789 C1797 1.433 . S
C1790 H1786 0.929 . S
C1790 C1792 1.378 . S
C1790 C1794 1.350 . S
C1791 C1794 1.463 . S
C1791 C1796 1.350 . S
C1791 N1799 1.427 . S
C1792 H1783 0.930 . S
C1792 C1790 1.378 . S
C1792 C1793 1.367 . S
C1793 C1792 1.367 . S
C1793 C1795 1.433 . S
C1794 C1790 1.350 . S
C1794 C1791 1.463 . S
C1794 N1798 1.427 . S
C1795 H1785 0.929 . S
C1795 C1793 1.433 . S
C1795 N1798 1.384 . S
C1796 H1787 0.929 . S
C1796 C1788 1.378 . S
C1796 C1791 1.350 . S
C1797 H1784 0.929 . S
C1797 C1789 1.433 . S
C1797 N1799 1.384 . S
N1798 C1794 1.427 . S
N1798 C1795 1.384 . S
N1799 C1791 1.427 . S
N1799 C1797 1.384 . S
H1800 C1806 0.930 . S
H1801 C1810 0.930 . S
H1802 C1815 0.929 . S
H1803 C1813 0.929 . S
H1804 C1808 0.929 . S
H1805 C1814 0.929 . S
C1806 H1800 0.930 . S
C1806 C1807 1.367 . S
C1806 C1814 1.378 . S
C1807 C1806 1.367 . S
C1807 C1815 1.433 . S
C1808 H1804 0.929 . S
C1808 C1810 1.378 . S
C1808 C1812 1.350 . S
C1809 C1812 1.463 . S
C1809 C1814 1.350 . S
C1809 N1817 1.427 . S
C1810 H1801 0.930 . S
C1810 C1808 1.378 . S
C1810 C1811 1.367 . S
C1811 C1810 1.367 . S
C1811 C1813 1.433 . S
C1812 C1808 1.350 . S
C1812 C1809 1.463 . S
C1812 N1816 1.427 . S
C1813 H1803 0.929 . S
C1813 C1811 1.433 . S
C1813 N1816 1.384 . S
C1814 H1805 0.929 . S
C1814 C1806 1.378 . S
C1814 C1809 1.350 . S
C1815 H1802 0.929 . S
C1815 C1807 1.433 . S
C1815 N1817 1.384 . S
N1816 C1812 1.427 . S
N1816 C1813 1.384 . S
N1817 C1809 1.427 . S
N1817 C1815 1.384 . S
H1818 C1824 0.930 . S
H1819 C1828 0.930 . S
H1820 C1833 0.929 . S
H1821 C1831 0.929 . S
H1822 C1826 0.929 . S
H1823 C1832 0.929 . S
C1824 H1818 0.930 . S
C1824 C1825 1.367 . S
C1824 C1832 1.378 . S
C1825 C1824 1.367 . S
C1825 C1833 1.433 . S
C1826 H1822 0.929 . S
C1826 C1828 1.378 . S
C1826 C1830 1.350 . S
C1827 C1830 1.463 . S
C1827 C1832 1.350 . S
C1827 N1835 1.427 . S
C1828 H1819 0.930 . S
C1828 C1826 1.378 . S
C1828 C1829 1.367 . S
C1829 C1828 1.367 . S
C1829 C1831 1.433 . S
C1830 C1826 1.350 . S
C1830 C1827 1.463 . S
C1830 N1834 1.427 . S
C1831 H1821 0.929 . S
C1831 C1829 1.433 . S
C1831 N1834 1.384 . S
C1832 H1823 0.929 . S
C1832 C1824 1.378 . S
C1832 C1827 1.350 . S
C1833 H1820 0.929 . S
C1833 C1825 1.433 . S
C1833 N1835 1.384 . S
N1834 C1830 1.427 . S
N1834 C1831 1.384 . S
N1835 C1827 1.427 . S
N1835 C1833 1.384 . S
H1836 C1842 0.930 . S
H1837 C1846 0.930 . S
H1838 C1851 0.929 . S
H1839 C1849 0.929 . S
H1840 C1844 0.929 . S
H1841 C1850 0.929 . S
C1842 H1836 0.930 . S
C1842 C1843 1.367 . S
C1842 C1850 1.378 . S
C1843 C1842 1.367 . S
C1843 C1851 1.433 . S
C1844 H1840 0.929 . S
C1844 C1846 1.378 . S
C1844 C1848 1.350 . S
C1845 C1848 1.463 . S
C1845 C1850 1.350 . S
C1845 N1853 1.427 . S
C1846 H1837 0.930 . S
C1846 C1844 1.378 . S
C1846 C1847 1.367 . S
C1847 C1846 1.367 . S
C1847 C1849 1.433 . S
C1848 C1844 1.350 . S
C1848 C1845 1.463 . S
C1848 N1852 1.427 . S
C1849 H1839 0.929 . S
C1849 C1847 1.433 . S
C1849 N1852 1.384 . S
C1850 H1841 0.929 . S
C1850 C1842 1.378 . S
C1850 C1845 1.350 . S
C1851 H1838 0.929 . S
C1851 C1843 1.433 . S
C1851 N1853 1.384 . S
N1852 C1848 1.427 . S
N1852 C1849 1.384 . S
N1853 C1845 1.427 . S
N1853 C1851 1.384 . S
H1854 C1860 0.930 . S
H1855 C1864 0.930 . S
H1856 C1869 0.929 . S
H1857 C1867 0.929 . S
H1858 C1862 0.929 . S
H1859 C1868 0.929 . S
C1860 H1854 0.930 . S
C1860 C1861 1.367 . S
C1860 C1868 1.378 . S
C1861 C1860 1.367 . S
C1861 C1869 1.433 . S
C1862 H1858 0.929 . S
C1862 C1864 1.378 . S
C1862 C1866 1.350 . S
C1863 C1866 1.463 . S
C1863 C1868 1.350 . S
C1863 N1871 1.427 . S
C1864 H1855 0.930 . S
C1864 C1862 1.378 . S
C1864 C1865 1.367 . S
C1865 C1864 1.367 . S
C1865 C1867 1.433 . S
C1866 C1862 1.350 . S
C1866 C1863 1.463 . S
C1866 N1870 1.427 . S
C1867 H1857 0.929 . S
C1867 C1865 1.433 . S
C1867 N1870 1.384 . S
C1868 H1859 0.929 . S
C1868 C1860 1.378 . S
C1868 C1863 1.350 . S
C1869 H1856 0.929 . S
C1869 C1861 1.433 . S
C1869 N1871 1.384 . S
N1870 C1866 1.427 . S
N1870 C1867 1.384 . S
N1871 C1863 1.427 . S
N1871 C1869 1.384 . S
H1872 C1878 0.930 . S
H1873 C1882 0.930 . S
H1874 C1887 0.929 . S
H1875 C1885 0.929 . S
H1876 C1880 0.929 . S
H1877 C1886 0.929 . S
C1878 H1872 0.930 . S
C1878 C1879 1.367 . S
C1878 C1886 1.378 . S
C1879 C1878 1.367 . S
C1879 C1887 1.433 . S
C1880 H1876 0.929 . S
C1880 C1882 1.378 . S
C1880 C1884 1.350 . S
C1881 C1884 1.463 . S
C1881 C1886 1.350 . S
C1881 N1889 1.427 . S
C1882 H1873 0.930 . S
C1882 C1880 1.378 . S
C1882 C1883 1.367 . S
C1883 C1882 1.367 . S
C1883 C1885 1.433 . S
C1884 C1880 1.350 . S
C1884 C1881 1.463 . S
C1884 N1888 1.427 . S
C1885 H1875 0.929 . S
C1885 C1883 1.433 . S
C1885 N1888 1.384 . S
C1886 H1877 0.929 . S
C1886 C1878 1.378 . S
C1886 C1881 1.350 . S
C1887 H1874 0.929 . S
C1887 C1879 1.433 . S
C1887 N1889 1.384 . S
N1888 C1884 1.427 . S
N1888 C1885 1.384 . S
N1889 C1881 1.427 . S
N1889 C1887 1.384 . S
H1890 C1896 0.930 . S
H1891 C1900 0.930 . S
H1892 C1905 0.929 . S
H1893 C1903 0.929 . S
H1894 C1898 0.929 . S
H1895 C1904 0.929 . S
C1896 H1890 0.930 . S
C1896 C1897 1.367 . S
C1896 C1904 1.378 . S
C1897 C1896 1.367 . S
C1897 C1905 1.433 . S
C1898 H1894 0.929 . S
C1898 C1900 1.378 . S
C1898 C1902 1.350 . S
C1899 C1902 1.463 . S
C1899 C1904 1.350 . S
C1899 N1907 1.427 . S
C1900 H1891 0.930 . S
C1900 C1898 1.378 . S
C1900 C1901 1.367 . S
C1901 C1900 1.367 . S
C1901 C1903 1.433 . S
C1902 C1898 1.350 . S
C1902 C1899 1.463 . S
C1902 N1906 1.427 . S
C1903 H1893 0.929 . S
C1903 C1901 1.433 . S
C1903 N1906 1.384 . S
C1904 H1895 0.929 . S
C1904 C1896 1.378 . S
C1904 C1899 1.350 . S
C1905 H1892 0.929 . S
C1905 C1897 1.433 . S
C1905 N1907 1.384 . S
N1906 C1902 1.427 . S
N1906 C1903 1.384 . S
N1907 C1899 1.427 . S
N1907 C1905 1.384 . S
H1908 C1914 0.930 . S
H1909 C1918 0.930 . S
H1910 C1923 0.929 . S
H1911 C1921 0.929 . S
H1912 C1916 0.929 . S
H1913 C1922 0.929 . S
C1914 H1908 0.930 . S
C1914 C1915 1.367 . S
C1914 C1922 1.378 . S
C1915 C1914 1.367 . S
C1915 C1923 1.433 . S
C1916 H1912 0.929 . S
C1916 C1918 1.378 . S
C1916 C1920 1.350 . S
C1917 C1920 1.463 . S
C1917 C1922 1.350 . S
C1917 N1925 1.427 . S
C1918 H1909 0.930 . S
C1918 C1916 1.378 . S
C1918 C1919 1.367 . S
C1919 C1918 1.367 . S
C1919 C1921 1.433 . S
C1920 C1916 1.350 . S
C1920 C1917 1.463 . S
C1920 N1924 1.427 . S
C1921 H1911 0.929 . S
C1921 C1919 1.433 . S
C1921 N1924 1.384 . S
C1922 H1913 0.929 . S
C1922 C1914 1.378 . S
C1922 C1917 1.350 . S
C1923 H1910 0.929 . S
C1923 C1915 1.433 . S
C1923 N1925 1.384 . S
N1924 C1920 1.427 . S
N1924 C1921 1.384 . S
N1925 C1917 1.427 . S
N1925 C1923 1.384 . S
H1926 C1932 0.930 . S
H1927 C1936 0.930 . S
H1928 C1941 0.929 . S
H1929 C1939 0.929 . S
H1930 C1934 0.929 . S
H1931 C1940 0.929 . S
C1932 H1926 0.930 . S
C1932 C1933 1.367 . S
C1932 C1940 1.378 . S
C1933 C1932 1.367 . S
C1933 C1941 1.433 . S
C1934 H1930 0.929 . S
C1934 C1936 1.378 . S
C1934 C1938 1.350 . S
C1935 C1938 1.463 . S
C1935 C1940 1.350 . S
C1935 N1943 1.427 . S
C1936 H1927 0.930 . S
C1936 C1934 1.378 . S
C1936 C1937 1.367 . S
C1937 C1936 1.367 . S
C1937 C1939 1.433 . S
C1938 C1934 1.350 . S
C1938 C1935 1.463 . S
C1938 N1942 1.427 . S
C1939 H1929 0.929 . S
C1939 C1937 1.433 . S
C1939 N1942 1.384 . S
C1940 H1931 0.929 . S
C1940 C1932 1.378 . S
C1940 C1935 1.350 . S
C1941 H1928 0.929 . S
C1941 C1933 1.433 . S
C1941 N1943 1.384 . S
N1942 C1938 1.427 . S
N1942 C1939 1.384 . S
N1943 C1935 1.427 . S
N1943 C1941 1.384 . S
H1944 C1950 0.930 . S
H1945 C1954 0.930 . S
H1946 C1959 0.929 . S
H1947 C1957 0.929 . S
H1948 C1952 0.929 . S
H1949 C1958 0.929 . S
C1950 H1944 0.930 . S
C1950 C1951 1.367 . S
C1950 C1958 1.378 . S
C1951 C1950 1.367 . S
C1951 C1959 1.433 . S
C1952 H1948 0.929 . S
C1952 C1954 1.378 . S
C1952 C1956 1.350 . S
C1953 C1956 1.463 . S
C1953 C1958 1.350 . S
C1953 N1961 1.427 . S
C1954 H1945 0.930 . S
C1954 C1952 1.378 . S
C1954 C1955 1.367 . S
C1955 C1954 1.367 . S
C1955 C1957 1.433 . S
C1956 C1952 1.350 . S
C1956 C1953 1.463 . S
C1956 N1960 1.427 . S
C1957 H1947 0.929 . S
C1957 C1955 1.433 . S
C1957 N1960 1.384 . S
C1958 H1949 0.929 . S
C1958 C1950 1.378 . S
C1958 C1953 1.350 . S
C1959 H1946 0.929 . S
C1959 C1951 1.433 . S
C1959 N1961 1.384 . S
N1960 C1956 1.427 . S
N1960 C1957 1.384 . S
N1961 C1953 1.427 . S
N1961 C1959 1.384 . S
H1962 C1968 0.930 . S
H1963 C1972 0.930 . S
H1964 C1977 0.929 . S
H1965 C1975 0.929 . S
H1966 C1970 0.929 . S
H1967 C1976 0.929 . S
C1968 H1962 0.930 . S
C1968 C1969 1.367 . S
C1968 C1976 1.378 . S
C1969 C1968 1.367 . S
C1969 C1977 1.433 . S
C1970 H1966 0.929 . S
C1970 C1972 1.378 . S
C1970 C1974 1.350 . S
C1971 C1974 1.463 . S
C1971 C1976 1.350 . S
C1971 N1979 1.427 . S
C1972 H1963 0.930 . S
C1972 C1970 1.378 . S
C1972 C1973 1.367 . S
C1973 C1972 1.367 . S
C1973 C1975 1.433 . S
C1974 C1970 1.350 . S
C1974 C1971 1.463 . S
C1974 N1978 1.427 . S
C1975 H1965 0.929 . S
C1975 C1973 1.433 . S
C1975 N1978 1.384 . S
C1976 H1967 0.929 . S
C1976 C1968 1.378 . S
C1976 C1971 1.350 . S
C1977 H1964 0.929 . S
C1977 C1969 1.433 . S
C1977 N1979 1.384 . S
N1978 C1974 1.427 . S
N1978 C1975 1.384 . S
N1979 C1971 1.427 . S
N1979 C1977 1.384 . S
H1980 C1986 0.930 . S
H1981 C1990 0.930 . S
H1982 C1995 0.929 . S
H1983 C1993 0.929 . S
H1984 C1988 0.929 . S
H1985 C1994 0.929 . S
C1986 H1980 0.930 . S
C1986 C1987 1.367 . S
C1986 C1994 1.378 . S
C1987 C1986 1.367 . S
C1987 C1995 1.433 . S
C1988 H1984 0.929 . S
C1988 C1990 1.378 . S
C1988 C1992 1.350 . S
C1989 C1992 1.463 . S
C1989 C1994 1.350 . S
C1989 N1997 1.427 . S
C1990 H1981 0.930 . S
C1990 C1988 1.378 . S
C1990 C1991 1.367 . S
C1991 C1990 1.367 . S
C1991 C1993 1.433 . S
C1992 C1988 1.350 . S
C1992 C1989 1.463 . S
C1992 N1996 1.427 . S
C1993 H1983 0.929 . S
C1993 C1991 1.433 . S
C1993 N1996 1.384 . S
C1994 H1985 0.929 . S
C1994 C1986 1.378 . S
C1994 C1989 1.350 . S
C1995 H1982 0.929 . S
C1995 C1987 1.433 . S
C1995 N1997 1.384 . S
N1996 C1992 1.427 . S
N1996 C1993 1.384 . S
N1997 C1989 1.427 . S
N1997 C1995 1.384 . S
H1998 C2004 0.930 . S
H1999 C2008 0.930 . S
H2000 C2013 0.929 . S
H2001 C2011 0.929 . S
H2002 C2006 0.929 . S
H2003 C2012 0.929 . S
C2004 H1998 0.930 . S
C2004 C2005 1.367 . S
C2004 C2012 1.378 . S
C2005 C2004 1.367 . S
C2005 C2013 1.433 . S
C2006 H2002 0.929 . S
C2006 C2008 1.378 . S
C2006 C2010 1.350 . S
C2007 C2010 1.463 . S
C2007 C2012 1.350 . S
C2007 N2015 1.427 . S
C2008 H1999 0.930 . S
C2008 C2006 1.378 . S
C2008 C2009 1.367 . S
C2009 C2008 1.367 . S
C2009 C2011 1.433 . S
C2010 C2006 1.350 . S
C2010 C2007 1.463 . S
C2010 N2014 1.427 . S
C2011 H2001 0.929 . S
C2011 C2009 1.433 . S
C2011 N2014 1.384 . S
C2012 H2003 0.929 . S
C2012 C2004 1.378 . S
C2012 C2007 1.350 . S
C2013 H2000 0.929 . S
C2013 C2005 1.433 . S
C2013 N2015 1.384 . S
N2014 C2010 1.427 . S
N2014 C2011 1.384 . S
N2015 C2007 1.427 . S
N2015 C2013 1.384 . S
H2016 C2022 0.930 . S
H2017 C2026 0.930 . S
H2018 C2031 0.929 . S
H2019 C2029 0.929 . S
H2020 C2024 0.929 . S
H2021 C2030 0.929 . S
C2022 H2016 0.930 . S
C2022 C2023 1.367 . S
C2022 C2030 1.378 . S
C2023 C2022 1.367 . S
C2023 C2031 1.433 . S
C2024 H2020 0.929 . S
C2024 C2026 1.378 . S
C2024 C2028 1.350 . S
C2025 C2028 1.463 . S
C2025 C2030 1.350 . S
C2025 N2033 1.427 . S
C2026 H2017 0.930 . S
C2026 C2024 1.378 . S
C2026 C2027 1.367 . S
C2027 C2026 1.367 . S
C2027 C2029 1.433 . S
C2028 C2024 1.350 . S
C2028 C2025 1.463 . S
C2028 N2032 1.427 . S
C2029 H2019 0.929 . S
C2029 C2027 1.433 . S
C2029 N2032 1.384 . S
C2030 H2021 0.929 . S
C2030 C2022 1.378 . S
C2030 C2025 1.350 . S
C2031 H2018 0.929 . S
C2031 C2023 1.433 . S
C2031 N2033 1.384 . S
N2032 C2028 1.427 . S
N2032 C2029 1.384 . S
N2033 C2025 1.427 . S
N2033 C2031 1.384 . S
H2034 C2040 0.930 . S
H2035 C2044 0.930 . S
H2036 C2049 0.929 . S
H2037 C2047 0.929 . S
H2038 C2042 0.929 . S
H2039 C2048 0.929 . S
C2040 H2034 0.930 . S
C2040 C2041 1.367 . S
C2040 C2048 1.378 . S
C2041 C2040 1.367 . S
C2041 C2049 1.433 . S
C2042 H2038 0.929 . S
C2042 C2044 1.378 . S
C2042 C2046 1.350 . S
C2043 C2046 1.463 . S
C2043 C2048 1.350 . S
C2043 N2051 1.427 . S
C2044 H2035 0.930 . S
C2044 C2042 1.378 . S
C2044 C2045 1.367 . S
C2045 C2044 1.367 . S
C2045 C2047 1.433 . S
C2046 C2042 1.350 . S
C2046 C2043 1.463 . S
C2046 N2050 1.427 . S
C2047 H2037 0.929 . S
C2047 C2045 1.433 . S
C2047 N2050 1.384 . S
C2048 H2039 0.929 . S
C2048 C2040 1.378 . S
C2048 C2043 1.350 . S
C2049 H2036 0.929 . S
C2049 C2041 1.433 . S
C2049 N2051 1.384 . S
N2050 C2046 1.427 . S
N2050 C2047 1.384 . S
N2051 C2043 1.427 . S
N2051 C2049 1.384 . S
H2052 C2058 0.930 . S
H2053 C2062 0.930 . S
H2054 C2067 0.929 . S
H2055 C2065 0.929 . S
H2056 C2060 0.929 . S
H2057 C2066 0.929 . S
C2058 H2052 0.930 . S
C2058 C2059 1.367 . S
C2058 C2066 1.378 . S
C2059 C2058 1.367 . S
C2059 C2067 1.433 . S
C2060 H2056 0.929 . S
C2060 C2062 1.378 . S
C2060 C2064 1.350 . S
C2061 C2064 1.463 . S
C2061 C2066 1.350 . S
C2061 N2069 1.427 . S
C2062 H2053 0.930 . S
C2062 C2060 1.378 . S
C2062 C2063 1.367 . S
C2063 C2062 1.367 . S
C2063 C2065 1.433 . S
C2064 C2060 1.350 . S
C2064 C2061 1.463 . S
C2064 N2068 1.427 . S
C2065 H2055 0.929 . S
C2065 C2063 1.433 . S
C2065 N2068 1.384 . S
C2066 H2057 0.929 . S
C2066 C2058 1.378 . S
C2066 C2061 1.350 . S
C2067 H2054 0.929 . S
C2067 C2059 1.433 . S
C2067 N2069 1.384 . S
N2068 C2064 1.427 . S
N2068 C2065 1.384 . S
N2069 C2061 1.427 . S
N2069 C2067 1.384 . S
H2070 C2076 0.930 . S
H2071 C2080 0.930 . S
H2072 C2085 0.929 . S
H2073 C2083 0.929 . S
H2074 C2078 0.929 . S
H2075 C2084 0.929 . S
C2076 H2070 0.930 . S
C2076 C2077 1.367 . S
C2076 C2084 1.378 . S
C2077 C2076 1.367 . S
C2077 C2085 1.433 . S
C2078 H2074 0.929 . S
C2078 C2080 1.378 . S
C2078 C2082 1.350 . S
C2079 C2082 1.463 . S
C2079 C2084 1.350 . S
C2079 N2087 1.427 . S
C2080 H2071 0.930 . S
C2080 C2078 1.378 . S
C2080 C2081 1.367 . S
C2081 C2080 1.367 . S
C2081 C2083 1.433 . S
C2082 C2078 1.350 . S
C2082 C2079 1.463 . S
C2082 N2086 1.427 . S
C2083 H2073 0.929 . S
C2083 C2081 1.433 . S
C2083 N2086 1.384 . S
C2084 H2075 0.929 . S
C2084 C2076 1.378 . S
C2084 C2079 1.350 . S
C2085 H2072 0.929 . S
C2085 C2077 1.433 . S
C2085 N2087 1.384 . S
N2086 C2082 1.427 . S
N2086 C2083 1.384 . S
N2087 C2079 1.427 . S
N2087 C2085 1.384 . S
H2088 C2094 0.930 . S
H2089 C2098 0.930 . S
H2090 C2103 0.929 . S
H2091 C2101 0.929 . S
H2092 C2096 0.929 . S
H2093 C2102 0.929 . S
C2094 H2088 0.930 . S
C2094 C2095 1.367 . S
C2094 C2102 1.378 . S
C2095 C2094 1.367 . S
C2095 C2103 1.433 . S
C2096 H2092 0.929 . S
C2096 C2098 1.378 . S
C2096 C2100 1.350 . S
C2097 C2100 1.463 . S
C2097 C2102 1.350 . S
C2097 N2105 1.427 . S
C2098 H2089 0.930 . S
C2098 C2096 1.378 . S
C2098 C2099 1.367 . S
C2099 C2098 1.367 . S
C2099 C2101 1.433 . S
C2100 C2096 1.350 . S
C2100 C2097 1.463 . S
C2100 N2104 1.427 . S
C2101 H2091 0.929 . S
C2101 C2099 1.433 . S
C2101 N2104 1.384 . S
C2102 H2093 0.929 . S
C2102 C2094 1.378 . S
C2102 C2097 1.350 . S
C2103 H2090 0.929 . S
C2103 C2095 1.433 . S
C2103 N2105 1.384 . S
N2104 C2100 1.427 . S
N2104 C2101 1.384 . S
N2105 C2097 1.427 . S
N2105 C2103 1.384 . S
H2106 C2112 0.930 . S
H2107 C2116 0.930 . S
H2108 C2121 0.929 . S
H2109 C2119 0.929 . S
H2110 C2114 0.929 . S
H2111 C2120 0.929 . S
C2112 H2106 0.930 . S
C2112 C2113 1.367 . S
C2112 C2120 1.378 . S
C2113 C2112 1.367 . S
C2113 C2121 1.433 . S
C2114 H2110 0.929 . S
C2114 C2116 1.378 . S
C2114 C2118 1.350 . S
C2115 C2118 1.463 . S
C2115 C2120 1.350 . S
C2115 N2123 1.427 . S
C2116 H2107 0.930 . S
C2116 C2114 1.378 . S
C2116 C2117 1.367 . S
C2117 C2116 1.367 . S
C2117 C2119 1.433 . S
C2118 C2114 1.350 . S
C2118 C2115 1.463 . S
C2118 N2122 1.427 . S
C2119 H2109 0.929 . S
C2119 C2117 1.433 . S
C2119 N2122 1.384 . S
C2120 H2111 0.929 . S
C2120 C2112 1.378 . S
C2120 C2115 1.350 . S
C2121 H2108 0.929 . S
C2121 C2113 1.433 . S
C2121 N2123 1.384 . S
N2122 C2118 1.427 . S
N2122 C2119 1.384 . S
N2123 C2115 1.427 . S
N2123 C2121 1.384 . S
H2124 C2130 0.930 . S
H2125 C2134 0.930 . S
H2126 C2139 0.929 . S
H2127 C2137 0.929 . S
H2128 C2132 0.929 . S
H2129 C2138 0.929 . S
C2130 H2124 0.930 . S
C2130 C2131 1.367 . S
C2130 C2138 1.378 . S
C2131 C2130 1.367 . S
C2131 C2139 1.433 . S
C2132 H2128 0.929 . S
C2132 C2134 1.378 . S
C2132 C2136 1.350 . S
C2133 C2136 1.463 . S
C2133 C2138 1.350 . S
C2133 N2141 1.427 . S
C2134 H2125 0.930 . S
C2134 C2132 1.378 . S
C2134 C2135 1.367 . S
C2135 C2134 1.367 . S
C2135 C2137 1.433 . S
C2136 C2132 1.350 . S
C2136 C2133 1.463 . S
C2136 N2140 1.427 . S
C2137 H2127 0.929 . S
C2137 C2135 1.433 . S
C2137 N2140 1.384 . S
C2138 H2129 0.929 . S
C2138 C2130 1.378 . S
C2138 C2133 1.350 . S
C2139 H2126 0.929 . S
C2139 C2131 1.433 . S
C2139 N2141 1.384 . S
N2140 C2136 1.427 . S
N2140 C2137 1.384 . S
N2141 C2133 1.427 . S
N2141 C2139 1.384 . S
H2142 C2148 0.930 . S
H2143 C2152 0.930 . S
H2144 C2157 0.929 . S
H2145 C2155 0.929 . S
H2146 C2150 0.929 . S
H2147 C2156 0.929 . S
C2148 H2142 0.930 . S
C2148 C2149 1.367 . S
C2148 C2156 1.378 . S
C2149 C2148 1.367 . S
C2149 C2157 1.433 . S
C2150 H2146 0.929 . S
C2150 C2152 1.378 . S
C2150 C2154 1.350 . S
C2151 C2154 1.463 . S
C2151 C2156 1.350 . S
C2151 N2159 1.427 . S
C2152 H2143 0.930 . S
C2152 C2150 1.378 . S
C2152 C2153 1.367 . S
C2153 C2152 1.367 . S
C2153 C2155 1.433 . S
C2154 C2150 1.350 . S
C2154 C2151 1.463 . S
C2154 N2158 1.427 . S
C2155 H2145 0.929 . S
C2155 C2153 1.433 . S
C2155 N2158 1.384 . S
C2156 H2147 0.929 . S
C2156 C2148 1.378 . S
C2156 C2151 1.350 . S
C2157 H2144 0.929 . S
C2157 C2149 1.433 . S
C2157 N2159 1.384 . S
N2158 C2154 1.427 . S
N2158 C2155 1.384 . S
N2159 C2151 1.427 . S
N2159 C2157 1.384 . S
H2160 C2166 0.930 . S
H2161 C2170 0.930 . S
H2162 C2175 0.929 . S
H2163 C2173 0.929 . S
H2164 C2168 0.929 . S
H2165 C2174 0.929 . S
C2166 H2160 0.930 . S
C2166 C2167 1.367 . S
C2166 C2174 1.378 . S
C2167 C2166 1.367 . S
C2167 C2175 1.433 . S
C2168 H2164 0.929 . S
C2168 C2170 1.378 . S
C2168 C2172 1.350 . S
C2169 C2172 1.463 . S
C2169 C2174 1.350 . S
C2169 N2177 1.427 . S
C2170 H2161 0.930 . S
C2170 C2168 1.378 . S
C2170 C2171 1.367 . S
C2171 C2170 1.367 . S
C2171 C2173 1.433 . S
C2172 C2168 1.350 . S
C2172 C2169 1.463 . S
C2172 N2176 1.427 . S
C2173 H2163 0.929 . S
C2173 C2171 1.433 . S
C2173 N2176 1.384 . S
C2174 H2165 0.929 . S
C2174 C2166 1.378 . S
C2174 C2169 1.350 . S
C2175 H2162 0.929 . S
C2175 C2167 1.433 . S
C2175 N2177 1.384 . S
N2176 C2172 1.427 . S
N2176 C2173 1.384 . S
N2177 C2169 1.427 . S
N2177 C2175 1.384 . S
H2178 C2184 0.930 . S
H2179 C2188 0.930 . S
H2180 C2193 0.929 . S
H2181 C2191 0.929 . S
H2182 C2186 0.929 . S
H2183 C2192 0.929 . S
C2184 H2178 0.930 . S
C2184 C2185 1.367 . S
C2184 C2192 1.378 . S
C2185 C2184 1.367 . S
C2185 C2193 1.433 . S
C2186 H2182 0.929 . S
C2186 C2188 1.378 . S
C2186 C2190 1.350 . S
C2187 C2190 1.463 . S
C2187 C2192 1.350 . S
C2187 N2195 1.427 . S
C2188 H2179 0.930 . S
C2188 C2186 1.378 . S
C2188 C2189 1.367 . S
C2189 C2188 1.367 . S
C2189 C2191 1.433 . S
C2190 C2186 1.350 . S
C2190 C2187 1.463 . S
C2190 N2194 1.427 . S
C2191 H2181 0.929 . S
C2191 C2189 1.433 . S
C2191 N2194 1.384 . S
C2192 H2183 0.929 . S
C2192 C2184 1.378 . S
C2192 C2187 1.350 . S
C2193 H2180 0.929 . S
C2193 C2185 1.433 . S
C2193 N2195 1.384 . S
N2194 C2190 1.427 . S
N2194 C2191 1.384 . S
N2195 C2187 1.427 . S
N2195 C2193 1.384 . S
H2196 C2202 0.930 . S
H2197 C2206 0.930 . S
H2198 C2211 0.929 . S
H2199 C2209 0.929 . S
H2200 C2204 0.929 . S
H2201 C2210 0.929 . S
C2202 H2196 0.930 . S
C2202 C2203 1.367 . S
C2202 C2210 1.378 . S
C2203 C2202 1.367 . S
C2203 C2211 1.433 . S
C2204 H2200 0.929 . S
C2204 C2206 1.378 . S
C2204 C2208 1.350 . S
C2205 C2208 1.463 . S
C2205 C2210 1.350 . S
C2205 N2213 1.427 . S
C2206 H2197 0.930 . S
C2206 C2204 1.378 . S
C2206 C2207 1.367 . S
C2207 C2206 1.367 . S
C2207 C2209 1.433 . S
C2208 C2204 1.350 . S
C2208 C2205 1.463 . S
C2208 N2212 1.427 . S
C2209 H2199 0.929 . S
C2209 C2207 1.433 . S
C2209 N2212 1.384 . S
C2210 H2201 0.929 . S
C2210 C2202 1.378 . S
C2210 C2205 1.350 . S
C2211 H2198 0.929 . S
C2211 C2203 1.433 . S
C2211 N2213 1.384 . S
N2212 C2208 1.427 . S
N2212 C2209 1.384 . S
N2213 C2205 1.427 . S
N2213 C2211 1.384 . S
H2214 C2220 0.930 . S
H2215 C2224 0.930 . S
H2216 C2229 0.929 . S
H2217 C2227 0.929 . S
H2218 C2222 0.929 . S
H2219 C2228 0.929 . S
C2220 H2214 0.930 . S
C2220 C2221 1.367 . S
C2220 C2228 1.378 . S
C2221 C2220 1.367 . S
C2221 C2229 1.433 . S
C2222 H2218 0.929 . S
C2222 C2224 1.378 . S
C2222 C2226 1.350 . S
C2223 C2226 1.463 . S
C2223 C2228 1.350 . S
C2223 N2231 1.427 . S
C2224 H2215 0.930 . S
C2224 C2222 1.378 . S
C2224 C2225 1.367 . S
C2225 C2224 1.367 . S
C2225 C2227 1.433 . S
C2226 C2222 1.350 . S
C2226 C2223 1.463 . S
C2226 N2230 1.427 . S
C2227 H2217 0.929 . S
C2227 C2225 1.433 . S
C2227 N2230 1.384 . S
C2228 H2219 0.929 . S
C2228 C2220 1.378 . S
C2228 C2223 1.350 . S
C2229 H2216 0.929 . S
C2229 C2221 1.433 . S
C2229 N2231 1.384 . S
N2230 C2226 1.427 . S
N2230 C2227 1.384 . S
N2231 C2223 1.427 . S
N2231 C2229 1.384 . S
H2232 C2238 0.930 . S
H2233 C2242 0.930 . S
H2234 C2247 0.929 . S
H2235 C2245 0.929 . S
H2236 C2240 0.929 . S
H2237 C2246 0.929 . S
C2238 H2232 0.930 . S
C2238 C2239 1.367 . S
C2238 C2246 1.378 . S
C2239 C2238 1.367 . S
C2239 C2247 1.433 . S
C2240 H2236 0.929 . S
C2240 C2242 1.378 . S
C2240 C2244 1.350 . S
C2241 C2244 1.463 . S
C2241 C2246 1.350 . S
C2241 N2249 1.427 . S
C2242 H2233 0.930 . S
C2242 C2240 1.378 . S
C2242 C2243 1.367 . S
C2243 C2242 1.367 . S
C2243 C2245 1.433 . S
C2244 C2240 1.350 . S
C2244 C2241 1.463 . S
C2244 N2248 1.427 . S
C2245 H2235 0.929 . S
C2245 C2243 1.433 . S
C2245 N2248 1.384 . S
C2246 H2237 0.929 . S
C2246 C2238 1.378 . S
C2246 C2241 1.350 . S
C2247 H2234 0.929 . S
C2247 C2239 1.433 . S
C2247 N2249 1.384 . S
N2248 C2244 1.427 . S
N2248 C2245 1.384 . S
N2249 C2241 1.427 . S
N2249 C2247 1.384 . S
H2250 C2256 0.930 . S
H2251 C2260 0.930 . S
H2252 C2265 0.929 . S
H2253 C2263 0.929 . S
H2254 C2258 0.929 . S
H2255 C2264 0.929 . S
C2256 H2250 0.930 . S
C2256 C2257 1.367 . S
C2256 C2264 1.378 . S
C2257 C2256 1.367 . S
C2257 C2265 1.433 . S
C2258 H2254 0.929 . S
C2258 C2260 1.378 . S
C2258 C2262 1.350 . S
C2259 C2262 1.463 . S
C2259 C2264 1.350 . S
C2259 N2267 1.427 . S
C2260 H2251 0.930 . S
C2260 C2258 1.378 . S
C2260 C2261 1.367 . S
C2261 C2260 1.367 . S
C2261 C2263 1.433 . S
C2262 C2258 1.350 . S
C2262 C2259 1.463 . S
C2262 N2266 1.427 . S
C2263 H2253 0.929 . S
C2263 C2261 1.433 . S
C2263 N2266 1.384 . S
C2264 H2255 0.929 . S
C2264 C2256 1.378 . S
C2264 C2259 1.350 . S
C2265 H2252 0.929 . S
C2265 C2257 1.433 . S
C2265 N2267 1.384 . S
N2266 C2262 1.427 . S
N2266 C2263 1.384 . S
N2267 C2259 1.427 . S
N2267 C2265 1.384 . S
H2268 C2274 0.930 . S
H2269 C2278 0.930 . S
H2270 C2283 0.929 . S
H2271 C2281 0.929 . S
H2272 C2276 0.929 . S
H2273 C2282 0.929 . S
C2274 H2268 0.930 . S
C2274 C2275 1.367 . S
C2274 C2282 1.378 . S
C2275 C2274 1.367 . S
C2275 C2283 1.433 1_554 S
C2276 H2272 0.929 . S
C2276 C2278 1.378 . S
C2276 C2280 1.350 . S
C2277 C2280 1.463 . S
C2277 C2282 1.350 1_556 S
C2277 N2285 1.427 . S
C2278 H2269 0.930 . S
C2278 C2276 1.378 . S
C2278 C2279 1.367 . S
C2279 C2278 1.367 . S
C2279 C2281 1.433 . S
C2280 C2276 1.350 . S
C2280 C2277 1.463 . S
C2280 N2284 1.427 . S
C2281 H2271 0.929 . S
C2281 C2279 1.433 . S
C2281 N2284 1.384 . S
C2282 H2273 0.929 . S
C2282 C2274 1.378 . S
C2282 C2277 1.350 1_554 S
C2283 H2270 0.929 . S
C2283 C2275 1.433 1_556 S
C2283 N2285 1.384 . S
N2284 C2280 1.427 . S
N2284 C2281 1.384 . S
N2285 C2277 1.427 . S
N2285 C2283 1.384 . S
H2286 C2292 0.930 . S
H2287 C2296 0.930 . S
H2288 C2301 0.929 . S
H2289 C2299 0.929 . S
H2290 C2294 0.929 . S
H2291 C2300 0.931 1_554 S
C2292 H2286 0.930 . S
C2292 C2293 1.365 . S
C2292 C2300 1.378 1_554 S
C2293 C2292 1.365 . S
C2293 C2301 1.436 1_554 S
C2294 H2290 0.929 . S
C2294 C2296 1.378 . S
C2294 C2298 1.350 . S
C2295 C2298 1.463 . S
C2295 C2300 1.350 . S
C2295 N2303 1.427 . S
C2296 H2287 0.930 . S
C2296 C2294 1.378 . S
C2296 C2297 1.367 . S
C2297 C2296 1.367 . S
C2297 C2299 1.433 . S
C2298 C2294 1.350 . S
C2298 C2295 1.463 . S
C2298 N2302 1.427 . S
C2299 H2289 0.929 . S
C2299 C2297 1.433 . S
C2299 N2302 1.384 . S
C2300 H2291 0.931 1_556 S
C2300 C2292 1.378 1_556 S
C2300 C2295 1.350 . S
C2301 H2288 0.929 . S
C2301 C2293 1.436 1_556 S
C2301 N2303 1.384 . S
N2302 C2298 1.427 . S
N2302 C2299 1.384 . S
N2303 C2295 1.427 . S
N2303 C2301 1.384 . S
H2304 C2310 0.930 . S
H2305 C2314 0.930 . S
H2306 C2319 0.929 . S
H2307 C2317 0.929 . S
H2308 C2312 0.929 . S
H2309 C2318 0.900 1_556 S
C2310 H2304 0.930 . S
C2310 C2311 1.367 . S
C2310 C2318 1.378 . S
C2311 C2310 1.367 . S
C2311 C2319 1.433 . S
C2312 H2308 0.929 . S
C2312 C2314 1.378 . S
C2312 C2316 1.350 . S
C2313 C2316 1.463 . S
C2313 C2318 1.350 . S
C2313 N2321 1.427 . S
C2314 H2305 0.930 . S
C2314 C2312 1.378 . S
C2314 C2315 1.367 1_554 S
C2315 C2314 1.367 1_556 S
C2315 C2317 1.433 . S
C2316 C2312 1.350 . S
C2316 C2313 1.463 . S
C2316 N2320 1.427 1_554 S
C2317 H2307 0.929 . S
C2317 C2315 1.433 . S
C2317 N2320 1.384 . S
C2318 H2309 0.900 1_554 S
C2318 C2310 1.378 . S
C2318 C2313 1.350 . S
C2319 H2306 0.929 . S
C2319 C2311 1.433 . S
C2319 N2321 1.384 . S
N2320 C2316 1.427 1_556 S
N2320 C2317 1.384 . S
N2321 C2313 1.427 . S
N2321 C2319 1.384 . S
H2322 C2328 0.930 . S
H2323 C2332 0.930 . S
H2324 C2337 0.929 . S
H2325 C2335 0.929 . S
H2326 C2330 0.929 . S
H2327 C2336 0.929 . S
C2328 H2322 0.930 . S
C2328 C2329 1.367 1_556 S
C2328 C2336 1.378 . S
C2329 C2328 1.367 1_554 S
C2329 C2337 1.433 . S
C2330 H2326 0.929 . S
C2330 C2332 1.378 . S
C2330 C2334 1.350 . S
C2331 C2334 1.463 . S
C2331 C2336 1.350 . S
C2331 N2339 1.427 1_556 S
C2332 H2323 0.930 . S
C2332 C2330 1.378 . S
C2332 C2333 1.367 . S
C2333 C2332 1.367 . S
C2333 C2335 1.433 . S
C2334 C2330 1.350 . S
C2334 C2331 1.463 . S
C2334 N2338 1.427 . S
C2335 H2325 0.929 . S
C2335 C2333 1.433 . S
C2335 N2338 1.384 . S
C2336 H2327 0.929 . S
C2336 C2328 1.378 . S
C2336 C2331 1.350 . S
C2337 H2324 0.929 . S
C2337 C2329 1.433 . S
C2337 N2339 1.384 . S
N2338 C2334 1.427 . S
N2338 C2335 1.384 . S
N2339 C2331 1.427 1_554 S
N2339 C2337 1.384 . S
H2340 C2346 0.930 . S
H2341 C2350 0.930 . S
H2342 C2355 0.929 . S
H2343 C2353 0.929 . S
H2344 C2348 0.929 . S
H2345 C2354 0.929 . S
C2346 H2340 0.930 . S
C2346 C2347 1.367 . S
C2346 C2354 1.378 . S
C2347 C2346 1.367 . S
C2347 C2355 1.433 . S
C2348 H2344 0.929 . S
C2348 C2350 1.378 . S
C2348 C2352 1.350 . S
C2349 C2352 1.463 . S
C2349 C2354 1.350 . S
C2349 N2357 1.427 . S
C2350 H2341 0.930 . S
C2350 C2348 1.378 . S
C2350 C2351 1.367 . S
C2351 C2350 1.367 . S
C2351 C2353 1.433 . S
C2352 C2348 1.350 . S
C2352 C2349 1.463 . S
C2352 N2356 1.427 . S
C2353 H2343 0.929 . S
C2353 C2351 1.433 . S
C2353 N2356 1.384 . S
C2354 H2345 0.929 . S
C2354 C2346 1.378 . S
C2354 C2349 1.350 . S
C2355 H2342 0.929 . S
C2355 C2347 1.433 . S
C2355 N2357 1.384 . S
N2356 C2352 1.427 . S
N2356 C2353 1.384 . S
N2357 C2349 1.427 . S
N2357 C2355 1.384 . S
H2358 C2364 0.930 . S
H2359 C2368 0.930 . S
H2360 C2373 0.929 . S
H2361 C2371 0.929 . S
H2362 C2366 0.929 . S
H2363 C2372 0.946 . S
C2364 H2358 0.930 . S
C2364 C2365 1.367 . S
C2364 C2372 1.367 1_554 S
C2365 C2364 1.367 . S
C2365 C2373 1.433 . S
C2366 H2362 0.929 . S
C2366 C2368 1.378 1_554 S
C2366 C2370 1.350 1_554 S
C2367 C2370 1.463 1_554 S
C2367 C2372 1.344 1_554 S
C2367 N2375 1.427 . S
C2368 H2359 0.930 . S
C2368 C2366 1.378 1_556 S
C2368 C2369 1.367 . S
C2369 C2368 1.367 . S
C2369 C2371 1.433 . S
C2370 C2366 1.350 1_556 S
C2370 C2367 1.463 1_556 S
C2370 N2374 1.427 . S
C2371 H2361 0.929 . S
C2371 C2369 1.433 . S
C2371 N2374 1.384 . S
C2372 H2363 0.946 . S
C2372 C2364 1.367 1_556 S
C2372 C2367 1.344 1_556 S
C2373 H2360 0.929 . S
C2373 C2365 1.433 . S
C2373 N2375 1.384 . S
N2374 C2370 1.427 . S
N2374 C2371 1.384 . S
N2375 C2367 1.427 . S
N2375 C2373 1.384 . S
H2376 C2382 0.930 . S
H2377 C2386 0.930 . S
H2378 C2391 0.929 . S
H2379 C2389 0.929 . S
H2380 C2384 0.929 . S
H2381 C2390 0.929 . S
C2382 H2376 0.930 . S
C2382 C2383 1.367 . S
C2382 C2390 1.378 . S
C2383 C2382 1.367 . S
C2383 C2391 1.433 . S
C2384 H2380 0.929 . S
C2384 C2386 1.378 . S
C2384 C2388 1.350 . S
C2385 C2388 1.463 . S
C2385 C2390 1.350 . S
C2385 N2393 1.427 . S
C2386 H2377 0.930 . S
C2386 C2384 1.378 . S
C2386 C2387 1.367 . S
C2387 C2386 1.367 . S
C2387 C2389 1.433 . S
C2388 C2384 1.350 . S
C2388 C2385 1.463 . S
C2388 N2392 1.427 . S
C2389 H2379 0.929 . S
C2389 C2387 1.433 . S
C2389 N2392 1.384 . S
C2390 H2381 0.929 . S
C2390 C2382 1.378 . S
C2390 C2385 1.350 . S
C2391 H2378 0.929 . S
C2391 C2383 1.433 . S
C2391 N2393 1.384 . S
N2392 C2388 1.427 . S
N2392 C2389 1.384 . S
N2393 C2385 1.427 . S
N2393 C2391 1.384 . S
H2394 C2400 0.930 . S
H2395 C2404 0.930 . S
H2396 C2409 0.929 . S
H2397 C2407 0.929 . S
H2398 C2402 0.929 . S
H2399 C2408 0.929 . S
C2400 H2394 0.930 . S
C2400 C2401 1.367 . S
C2400 C2408 1.378 . S
C2401 C2400 1.367 . S
C2401 C2409 1.433 . S
C2402 H2398 0.929 . S
C2402 C2404 1.378 . S
C2402 C2406 1.350 . S
C2403 C2406 1.463 . S
C2403 C2408 1.350 . S
C2403 N2411 1.427 . S
C2404 H2395 0.930 . S
C2404 C2402 1.378 . S
C2404 C2405 1.367 . S
C2405 C2404 1.367 . S
C2405 C2407 1.433 . S
C2406 C2402 1.350 . S
C2406 C2403 1.463 . S
C2406 N2410 1.427 . S
C2407 H2397 0.929 . S
C2407 C2405 1.433 . S
C2407 N2410 1.384 . S
C2408 H2399 0.929 . S
C2408 C2400 1.378 . S
C2408 C2403 1.350 . S
C2409 H2396 0.929 . S
C2409 C2401 1.433 . S
C2409 N2411 1.384 . S
N2410 C2406 1.427 . S
N2410 C2407 1.384 . S
N2411 C2403 1.427 . S
N2411 C2409 1.384 . S
H2412 C2418 0.930 . S
H2413 C2422 0.930 . S
H2414 C2427 0.929 . S
H2415 C2425 0.929 . S
H2416 C2420 0.929 . S
H2417 C2426 0.929 . S
C2418 H2412 0.930 . S
C2418 C2419 1.367 . S
C2418 C2426 1.378 . S
C2419 C2418 1.367 . S
C2419 C2427 1.433 . S
C2420 H2416 0.929 . S
C2420 C2422 1.378 . S
C2420 C2424 1.350 . S
C2421 C2424 1.463 . S
C2421 C2426 1.350 . S
C2421 N2429 1.427 . S
C2422 H2413 0.930 . S
C2422 C2420 1.378 . S
C2422 C2423 1.367 . S
C2423 C2422 1.367 . S
C2423 C2425 1.433 . S
C2424 C2420 1.350 . S
C2424 C2421 1.463 . S
C2424 N2428 1.427 . S
C2425 H2415 0.929 . S
C2425 C2423 1.433 . S
C2425 N2428 1.384 . S
C2426 H2417 0.929 . S
C2426 C2418 1.378 . S
C2426 C2421 1.350 . S
C2427 H2414 0.929 . S
C2427 C2419 1.433 . S
C2427 N2429 1.384 . S
N2428 C2424 1.427 . S
N2428 C2425 1.384 . S
N2429 C2421 1.427 . S
N2429 C2427 1.384 . S
H2430 C2436 0.930 . S
H2431 C2440 0.930 . S
H2432 C2445 0.929 . S
H2433 C2443 0.929 . S
H2434 C2438 0.929 . S
H2435 C2444 0.929 . S
C2436 H2430 0.930 . S
C2436 C2437 1.367 . S
C2436 C2444 1.378 . S
C2437 C2436 1.367 . S
C2437 C2445 1.433 . S
C2438 H2434 0.929 . S
C2438 C2440 1.378 . S
C2438 C2442 1.350 . S
C2439 C2442 1.463 . S
C2439 C2444 1.350 . S
C2439 N2447 1.427 . S
C2440 H2431 0.930 . S
C2440 C2438 1.378 . S
C2440 C2441 1.367 . S
C2441 C2440 1.367 . S
C2441 C2443 1.433 . S
C2442 C2438 1.350 . S
C2442 C2439 1.463 . S
C2442 N2446 1.427 . S
C2443 H2433 0.929 . S
C2443 C2441 1.433 . S
C2443 N2446 1.384 . S
C2444 H2435 0.929 . S
C2444 C2436 1.378 . S
C2444 C2439 1.350 . S
C2445 H2432 0.929 . S
C2445 C2437 1.433 . S
C2445 N2447 1.384 . S
N2446 C2442 1.427 . S
N2446 C2443 1.384 . S
N2447 C2439 1.427 . S
N2447 C2445 1.384 . S
H2448 C2454 0.930 . S
H2449 C2458 0.930 . S
H2450 C2463 0.929 . S
H2451 C2461 0.929 . S
H2452 C2456 0.929 . S
H2453 C2462 0.929 . S
C2454 H2448 0.930 . S
C2454 C2455 1.367 . S
C2454 C2462 1.378 . S
C2455 C2454 1.367 . S
C2455 C2463 1.433 . S
C2456 H2452 0.929 . S
C2456 C2458 1.378 . S
C2456 C2460 1.350 . S
C2457 C2460 1.463 . S
C2457 C2462 1.350 . S
C2457 N2465 1.427 . S
C2458 H2449 0.930 . S
C2458 C2456 1.378 . S
C2458 C2459 1.367 . S
C2459 C2458 1.367 . S
C2459 C2461 1.433 . S
C2460 C2456 1.350 . S
C2460 C2457 1.463 . S
C2460 N2464 1.427 . S
C2461 H2451 0.929 . S
C2461 C2459 1.433 . S
C2461 N2464 1.384 . S
C2462 H2453 0.929 . S
C2462 C2454 1.378 . S
C2462 C2457 1.350 . S
C2463 H2450 0.929 . S
C2463 C2455 1.433 . S
C2463 N2465 1.384 . S
N2464 C2460 1.427 . S
N2464 C2461 1.384 . S
N2465 C2457 1.427 . S
N2465 C2463 1.384 . S
H2466 C2472 0.930 1_455 S
H2467 C2476 0.930 . S
H2468 C2481 0.929 . S
H2469 C2479 0.929 . S
H2470 C2474 0.929 . S
H2471 C2480 0.929 . S
C2472 H2466 0.930 1_655 S
C2472 C2473 1.367 1_655 S
C2472 C2480 1.378 . S
C2473 C2472 1.367 1_455 S
C2473 C2481 1.433 1_455 S
C2474 H2470 0.929 . S
C2474 C2476 1.378 . S
C2474 C2478 1.350 . S
C2475 C2478 1.463 . S
C2475 C2480 1.350 . S
C2475 N2483 1.427 . S
C2476 H2467 0.930 . S
C2476 C2474 1.378 . S
C2476 C2477 1.367 . S
C2477 C2476 1.367 . S
C2477 C2479 1.433 . S
C2478 C2474 1.350 . S
C2478 C2475 1.463 . S
C2478 N2482 1.427 . S
C2479 H2469 0.929 . S
C2479 C2477 1.433 . S
C2479 N2482 1.384 . S
C2480 H2471 0.929 . S
C2480 C2472 1.378 . S
C2480 C2475 1.350 . S
C2481 H2468 0.929 . S
C2481 C2473 1.433 1_655 S
C2481 N2483 1.384 . S
N2482 C2478 1.427 . S
N2482 C2479 1.384 . S
N2483 C2475 1.427 . S
N2483 C2481 1.384 . S
H2484 C2490 0.930 . S
H2485 C2494 0.930 . S
H2486 C2499 0.929 . S
H2487 C2497 0.929 . S
H2488 C2492 0.929 . S
H2489 C2498 0.929 . S
C2490 H2484 0.930 . S
C2490 C2491 1.367 . S
C2490 C2498 1.378 . S
C2491 C2490 1.367 . S
C2491 C2499 1.433 . S
C2492 H2488 0.929 . S
C2492 C2494 1.378 . S
C2492 C2496 1.350 . S
C2493 C2496 1.463 . S
C2493 C2498 1.350 . S
C2493 N2501 1.427 . S
C2494 H2485 0.930 . S
C2494 C2492 1.378 . S
C2494 C2495 1.367 . S
C2495 C2494 1.367 . S
C2495 C2497 1.433 . S
C2496 C2492 1.350 . S
C2496 C2493 1.463 . S
C2496 N2500 1.427 . S
C2497 H2487 0.929 . S
C2497 C2495 1.433 . S
C2497 N2500 1.384 . S
C2498 H2489 0.929 . S
C2498 C2490 1.378 . S
C2498 C2493 1.350 . S
C2499 H2486 0.929 . S
C2499 C2491 1.433 . S
C2499 N2501 1.384 . S
N2500 C2496 1.427 . S
N2500 C2497 1.384 . S
N2501 C2493 1.427 . S
N2501 C2499 1.384 . S
H2502 C2508 0.930 . S
H2503 C2512 0.930 . S
H2504 C2517 0.929 . S
H2505 C2515 0.929 . S
H2506 C2510 0.929 . S
H2507 C2516 0.929 . S
C2508 H2502 0.930 . S
C2508 C2509 1.367 . S
C2508 C2516 1.378 . S
C2509 C2508 1.367 . S
C2509 C2517 1.433 . S
C2510 H2506 0.929 . S
C2510 C2512 1.378 . S
C2510 C2514 1.350 . S
C2511 C2514 1.463 . S
C2511 C2516 1.350 . S
C2511 N2519 1.427 . S
C2512 H2503 0.930 . S
C2512 C2510 1.378 . S
C2512 C2513 1.367 . S
C2513 C2512 1.367 . S
C2513 C2515 1.433 . S
C2514 C2510 1.350 . S
C2514 C2511 1.463 . S
C2514 N2518 1.427 . S
C2515 H2505 0.929 . S
C2515 C2513 1.433 . S
C2515 N2518 1.384 . S
C2516 H2507 0.929 . S
C2516 C2508 1.378 . S
C2516 C2511 1.350 . S
C2517 H2504 0.929 . S
C2517 C2509 1.433 . S
C2517 N2519 1.384 . S
N2518 C2514 1.427 . S
N2518 C2515 1.384 . S
N2519 C2511 1.427 . S
N2519 C2517 1.384 . S
H2520 C2526 0.930 . S
H2521 C2530 0.930 . S
H2522 C2535 0.929 . S
H2523 C2533 0.929 . S
H2524 C2528 0.929 . S
H2525 C2534 0.929 . S
C2526 H2520 0.930 . S
C2526 C2527 1.367 . S
C2526 C2534 1.378 . S
C2527 C2526 1.367 . S
C2527 C2535 1.433 . S
C2528 H2524 0.929 . S
C2528 C2530 1.378 . S
C2528 C2532 1.350 . S
C2529 C2532 1.463 . S
C2529 C2534 1.350 . S
C2529 N2537 1.427 . S
C2530 H2521 0.930 . S
C2530 C2528 1.378 . S
C2530 C2531 1.367 . S
C2531 C2530 1.367 . S
C2531 C2533 1.433 . S
C2532 C2528 1.350 . S
C2532 C2529 1.463 . S
C2532 N2536 1.427 . S
C2533 H2523 0.929 . S
C2533 C2531 1.433 . S
C2533 N2536 1.384 . S
C2534 H2525 0.929 . S
C2534 C2526 1.378 . S
C2534 C2529 1.350 . S
C2535 H2522 0.929 . S
C2535 C2527 1.433 . S
C2535 N2537 1.384 . S
N2536 C2532 1.427 . S
N2536 C2533 1.384 . S
N2537 C2529 1.427 . S
N2537 C2535 1.384 . S
H2538 C2544 0.930 . S
H2539 C2548 0.930 . S
H2540 C2553 0.929 1_545 S
H2541 C2551 0.929 . S
H2542 C2546 0.929 . S
H2543 C2552 0.929 . S
C2544 H2538 0.930 . S
C2544 C2545 1.367 . S
C2544 C2552 1.378 . S
C2545 C2544 1.367 . S
C2545 C2553 1.433 . S
C2546 H2542 0.929 . S
C2546 C2548 1.378 . S
C2546 C2550 1.350 1_545 S
C2547 C2550 1.463 . S
C2547 C2552 1.350 . S
C2547 N2555 1.427 . S
C2548 H2539 0.930 . S
C2548 C2546 1.378 . S
C2548 C2549 1.367 1_545 S
C2549 C2548 1.367 1_565 S
C2549 C2551 1.433 . S
C2550 C2546 1.350 1_565 S
C2550 C2547 1.463 . S
C2550 N2554 1.427 . S
C2551 H2541 0.929 . S
C2551 C2549 1.433 . S
C2551 N2554 1.384 . S
C2552 H2543 0.929 . S
C2552 C2544 1.378 . S
C2552 C2547 1.350 . S
C2553 H2540 0.929 1_565 S
C2553 C2545 1.433 . S
C2553 N2555 1.384 . S
N2554 C2550 1.427 . S
N2554 C2551 1.384 . S
N2555 C2547 1.427 . S
N2555 C2553 1.384 . S
H2556 C2562 0.930 . S
H2557 C2566 0.930 . S
H2558 C2571 0.929 . S
H2559 C2569 0.929 . S
H2560 C2564 0.929 . S
H2561 C2570 0.929 . S
C2562 H2556 0.930 . S
C2562 C2563 1.367 . S
C2562 C2570 1.378 . S
C2563 C2562 1.367 . S
C2563 C2571 1.433 . S
C2564 H2560 0.929 . S
C2564 C2566 1.378 1_455 S
C2564 C2568 1.350 . S
C2565 C2568 1.463 . S
C2565 C2570 1.350 . S
C2565 N2573 1.427 . S
C2566 H2557 0.930 . S
C2566 C2564 1.378 1_655 S
C2566 C2567 1.367 . S
C2567 C2566 1.367 . S
C2567 C2569 1.433 1_655 S
C2568 C2564 1.350 . S
C2568 C2565 1.463 . S
C2568 N2572 1.427 . S
C2569 H2559 0.929 . S
C2569 C2567 1.433 1_455 S
C2569 N2572 1.384 . S
C2570 H2561 0.929 . S
C2570 C2562 1.378 . S
C2570 C2565 1.350 . S
C2571 H2558 0.929 . S
C2571 C2563 1.433 . S
C2571 N2573 1.384 . S
N2572 C2568 1.427 . S
N2572 C2569 1.384 . S
N2573 C2565 1.427 . S
N2573 C2571 1.384 . S
H2574 C2580 0.930 . S
H2575 C2584 0.930 . S
H2576 C2589 0.929 . S
H2577 C2587 0.929 . S
H2578 C2582 0.929 . S
H2579 C2588 0.929 . S
C2580 H2574 0.930 . S
C2580 C2581 1.367 . S
C2580 C2588 1.378 . S
C2581 C2580 1.367 . S
C2581 C2589 1.433 . S
C2582 H2578 0.929 . S
C2582 C2584 1.378 . S
C2582 C2586 1.350 . S
C2583 C2586 1.463 . S
C2583 C2588 1.350 . S
C2583 N2591 1.427 . S
C2584 H2575 0.930 . S
C2584 C2582 1.378 . S
C2584 C2585 1.367 . S
C2585 C2584 1.367 . S
C2585 C2587 1.433 . S
C2586 C2582 1.350 . S
C2586 C2583 1.463 . S
C2586 N2590 1.427 . S
C2587 H2577 0.929 . S
C2587 C2585 1.433 . S
C2587 N2590 1.384 . S
C2588 H2579 0.929 . S
C2588 C2580 1.378 . S
C2588 C2583 1.350 . S
C2589 H2576 0.929 . S
C2589 C2581 1.433 . S
C2589 N2591 1.384 . S
N2590 C2586 1.427 . S
N2590 C2587 1.384 . S
N2591 C2583 1.427 . S
N2591 C2589 1.384 . S
H2592 C2598 0.930 . S
H2593 C2602 0.930 . S
H2594 C2607 0.929 . S
H2595 C2605 0.929 . S
H2596 C2600 0.929 . S
H2597 C2606 0.929 . S
C2598 H2592 0.930 . S
C2598 C2599 1.367 . S
C2598 C2606 1.378 . S
C2599 C2598 1.367 . S
C2599 C2607 1.433 . S
C2600 H2596 0.929 . S
C2600 C2602 1.378 . S
C2600 C2604 1.350 . S
C2601 C2604 1.463 . S
C2601 C2606 1.350 . S
C2601 N2609 1.427 . S
C2602 H2593 0.930 . S
C2602 C2600 1.378 . S
C2602 C2603 1.367 . S
C2603 C2602 1.367 . S
C2603 C2605 1.433 . S
C2604 C2600 1.350 . S
C2604 C2601 1.463 . S
C2604 N2608 1.427 . S
C2605 H2595 0.929 . S
C2605 C2603 1.433 . S
C2605 N2608 1.384 . S
C2606 H2597 0.929 . S
C2606 C2598 1.378 . S
C2606 C2601 1.350 . S
C2607 H2594 0.929 . S
C2607 C2599 1.433 . S
C2607 N2609 1.384 . S
N2608 C2604 1.427 . S
N2608 C2605 1.384 . S
N2609 C2601 1.427 . S
N2609 C2607 1.384 . S
H2610 C2616 0.930 . S
H2611 C2620 0.930 . S
H2612 C2625 0.929 . S
H2613 C2623 0.929 . S
H2614 C2618 0.929 . S
H2615 C2624 0.929 . S
C2616 H2610 0.930 . S
C2616 C2617 1.367 . S
C2616 C2624 1.378 . S
C2617 C2616 1.367 . S
C2617 C2625 1.433 . S
C2618 H2614 0.929 . S
C2618 C2620 1.378 . S
C2618 C2622 1.350 . S
C2619 C2622 1.463 . S
C2619 C2624 1.350 . S
C2619 N2627 1.427 . S
C2620 H2611 0.930 . S
C2620 C2618 1.378 . S
C2620 C2621 1.367 . S
C2621 C2620 1.367 . S
C2621 C2623 1.433 . S
C2622 C2618 1.350 . S
C2622 C2619 1.463 . S
C2622 N2626 1.427 . S
C2623 H2613 0.929 . S
C2623 C2621 1.433 . S
C2623 N2626 1.384 . S
C2624 H2615 0.929 . S
C2624 C2616 1.378 . S
C2624 C2619 1.350 . S
C2625 H2612 0.929 . S
C2625 C2617 1.433 . S
C2625 N2627 1.384 . S
N2626 C2622 1.427 . S
N2626 C2623 1.384 . S
N2627 C2619 1.427 . S
N2627 C2625 1.384 . S
H2628 C2634 0.930 . S
H2629 C2638 0.930 . S
H2630 C2643 0.929 . S
H2631 C2641 0.929 . S
H2632 C2636 0.929 . S
H2633 C2642 0.929 . S
C2634 H2628 0.930 . S
C2634 C2635 1.367 . S
C2634 C2642 1.378 . S
C2635 C2634 1.367 . S
C2635 C2643 1.433 . S
C2636 H2632 0.929 . S
C2636 C2638 1.378 . S
C2636 C2640 1.350 . S
C2637 C2640 1.463 . S
C2637 C2642 1.350 . S
C2637 N2645 1.427 . S
C2638 H2629 0.930 . S
C2638 C2636 1.378 . S
C2638 C2639 1.367 . S
C2639 C2638 1.367 . S
C2639 C2641 1.433 . S
C2640 C2636 1.350 . S
C2640 C2637 1.463 . S
C2640 N2644 1.427 . S
C2641 H2631 0.929 . S
C2641 C2639 1.433 . S
C2641 N2644 1.384 . S
C2642 H2633 0.929 . S
C2642 C2634 1.378 . S
C2642 C2637 1.350 . S
C2643 H2630 0.929 . S
C2643 C2635 1.433 . S
C2643 N2645 1.384 . S
N2644 C2640 1.427 . S
N2644 C2641 1.384 . S
N2645 C2637 1.427 . S
N2645 C2643 1.384 . S
H2646 C2652 0.930 . S
H2647 C2656 0.930 . S
H2648 C2661 0.929 . S
H2649 C2659 0.867 1_565 S
H2650 C2654 0.929 . S
H2651 C2660 0.956 . S
C2652 H2646 0.930 . S
C2652 C2653 1.367 . S
C2652 C2660 1.378 . S
C2653 C2652 1.367 . S
C2653 C2661 1.433 . S
C2654 H2650 0.929 . S
C2654 C2656 1.378 . S
C2654 C2658 1.350 . S
C2655 C2658 1.463 . S
C2655 C2660 1.350 . S
C2655 N2663 1.427 . S
C2656 H2647 0.930 . S
C2656 C2654 1.378 . S
C2656 C2657 1.367 . S
C2657 C2656 1.367 . S
C2657 C2659 1.461 . S
C2658 C2654 1.350 . S
C2658 C2655 1.463 . S
C2658 N2662 1.427 . S
C2659 H2649 0.867 1_545 S
C2659 C2657 1.461 . S
C2659 N2662 1.422 . S
C2660 H2651 0.956 . S
C2660 C2652 1.378 . S
C2660 C2655 1.350 . S
C2661 H2648 0.929 . S
C2661 C2653 1.433 . S
C2661 N2663 1.384 . S
N2662 C2658 1.427 . S
N2662 C2659 1.422 . S
N2663 C2655 1.427 . S
N2663 C2661 1.384 . S
H2664 C2670 0.930 . S
H2665 C2674 0.930 . S
H2666 C2679 0.929 . S
H2667 C2677 0.929 . S
H2668 C2672 0.929 . S
H2669 C2678 0.929 . S
C2670 H2664 0.930 . S
C2670 C2671 1.367 . S
C2670 C2678 1.378 . S
C2671 C2670 1.367 . S
C2671 C2679 1.433 . S
C2672 H2668 0.929 . S
C2672 C2674 1.378 . S
C2672 C2676 1.350 . S
C2673 C2676 1.463 . S
C2673 C2678 1.350 . S
C2673 N2681 1.427 . S
C2674 H2665 0.930 . S
C2674 C2672 1.378 . S
C2674 C2675 1.367 . S
C2675 C2674 1.367 . S
C2675 C2677 1.433 . S
C2676 C2672 1.350 . S
C2676 C2673 1.463 . S
C2676 N2680 1.427 . S
C2677 H2667 0.929 . S
C2677 C2675 1.433 . S
C2677 N2680 1.384 . S
C2678 H2669 0.929 . S
C2678 C2670 1.378 . S
C2678 C2673 1.350 . S
C2679 H2666 0.929 . S
C2679 C2671 1.433 . S
C2679 N2681 1.384 . S
N2680 C2676 1.427 . S
N2680 C2677 1.384 . S
N2681 C2673 1.427 . S
N2681 C2679 1.384 . S
H2682 C2688 0.930 . S
H2683 C2692 0.930 . S
H2684 C2697 0.929 . S
H2685 C2695 0.929 . S
H2686 C2690 0.929 . S
H2687 C2696 0.929 . S
C2688 H2682 0.930 . S
C2688 C2689 1.367 . S
C2688 C2696 1.378 . S
C2689 C2688 1.367 . S
C2689 C2697 1.433 . S
C2690 H2686 0.929 . S
C2690 C2692 1.378 . S
C2690 C2694 1.350 . S
C2691 C2694 1.463 . S
C2691 C2696 1.350 . S
C2691 N2699 1.427 . S
C2692 H2683 0.930 . S
C2692 C2690 1.378 . S
C2692 C2693 1.367 . S
C2693 C2692 1.367 . S
C2693 C2695 1.433 . S
C2694 C2690 1.350 . S
C2694 C2691 1.463 . S
C2694 N2698 1.427 . S
C2695 H2685 0.929 . S
C2695 C2693 1.433 . S
C2695 N2698 1.384 . S
C2696 H2687 0.929 . S
C2696 C2688 1.378 . S
C2696 C2691 1.350 . S
C2697 H2684 0.929 . S
C2697 C2689 1.433 . S
C2697 N2699 1.384 . S
N2698 C2694 1.427 . S
N2698 C2695 1.384 . S
N2699 C2691 1.427 . S
N2699 C2697 1.384 . S
H2700 C2706 0.930 . S
H2701 C2710 0.930 . S
H2702 C2715 0.929 . S
H2703 C2713 0.929 . S
H2704 C2708 0.929 . S
H2705 C2714 0.929 . S
C2706 H2700 0.930 . S
C2706 C2707 1.367 . S
C2706 C2714 1.378 . S
C2707 C2706 1.367 . S
C2707 C2715 1.433 . S
C2708 H2704 0.929 . S
C2708 C2710 1.378 . S
C2708 C2712 1.350 . S
C2709 C2712 1.463 . S
C2709 C2714 1.350 . S
C2709 N2717 1.427 . S
C2710 H2701 0.930 . S
C2710 C2708 1.378 . S
C2710 C2711 1.367 . S
C2711 C2710 1.367 . S
C2711 C2713 1.433 . S
C2712 C2708 1.350 . S
C2712 C2709 1.463 . S
C2712 N2716 1.427 . S
C2713 H2703 0.929 . S
C2713 C2711 1.433 . S
C2713 N2716 1.384 . S
C2714 H2705 0.929 . S
C2714 C2706 1.378 . S
C2714 C2709 1.350 . S
C2715 H2702 0.929 . S
C2715 C2707 1.433 . S
C2715 N2717 1.384 . S
N2716 C2712 1.427 . S
N2716 C2713 1.384 . S
N2717 C2709 1.427 . S
N2717 C2715 1.384 . S
H2718 C2724 0.930 . S
H2719 C2728 0.930 . S
H2720 C2733 0.929 . S
H2721 C2731 0.929 . S
H2722 C2726 0.929 . S
H2723 C2732 0.929 . S
C2724 H2718 0.930 . S
C2724 C2725 1.367 . S
C2724 C2732 1.378 . S
C2725 C2724 1.367 . S
C2725 C2733 1.433 . S
C2726 H2722 0.929 . S
C2726 C2728 1.378 . S
C2726 C2730 1.350 . S
C2727 C2730 1.463 . S
C2727 C2732 1.350 . S
C2727 N2735 1.427 . S
C2728 H2719 0.930 . S
C2728 C2726 1.378 . S
C2728 C2729 1.367 . S
C2729 C2728 1.367 . S
C2729 C2731 1.433 . S
C2730 C2726 1.350 . S
C2730 C2727 1.463 . S
C2730 N2734 1.427 . S
C2731 H2721 0.929 . S
C2731 C2729 1.433 . S
C2731 N2734 1.384 . S
C2732 H2723 0.929 . S
C2732 C2724 1.378 . S
C2732 C2727 1.350 . S
C2733 H2720 0.929 . S
C2733 C2725 1.433 . S
C2733 N2735 1.384 . S
N2734 C2730 1.427 . S
N2734 C2731 1.384 . S
N2735 C2727 1.427 . S
N2735 C2733 1.384 . S
H2736 C2742 0.930 . S
H2737 C2746 0.930 . S
H2738 C2751 0.929 . S
H2739 C2749 0.929 . S
H2740 C2744 0.929 . S
H2741 C2750 0.929 . S
C2742 H2736 0.930 . S
C2742 C2743 1.367 . S
C2742 C2750 1.378 . S
C2743 C2742 1.367 . S
C2743 C2751 1.433 . S
C2744 H2740 0.929 . S
C2744 C2746 1.378 . S
C2744 C2748 1.350 . S
C2745 C2748 1.463 . S
C2745 C2750 1.350 . S
C2745 N2753 1.427 . S
C2746 H2737 0.930 . S
C2746 C2744 1.378 . S
C2746 C2747 1.367 . S
C2747 C2746 1.367 . S
C2747 C2749 1.433 . S
C2748 C2744 1.350 . S
C2748 C2745 1.463 . S
C2748 N2752 1.427 . S
C2749 H2739 0.929 . S
C2749 C2747 1.433 . S
C2749 N2752 1.384 . S
C2750 H2741 0.929 . S
C2750 C2742 1.378 . S
C2750 C2745 1.350 . S
C2751 H2738 0.929 . S
C2751 C2743 1.433 . S
C2751 N2753 1.384 . S
N2752 C2748 1.427 . S
N2752 C2749 1.384 . S
N2753 C2745 1.427 . S
N2753 C2751 1.384 . S
H2754 C2760 0.930 . S
H2755 C2764 0.930 . S
H2756 C2769 0.929 . S
H2757 C2767 0.929 . S
H2758 C2762 0.929 . S
H2759 C2768 0.929 . S
C2760 H2754 0.930 . S
C2760 C2761 1.367 . S
C2760 C2768 1.378 . S
C2761 C2760 1.367 . S
C2761 C2769 1.433 . S
C2762 H2758 0.929 . S
C2762 C2764 1.378 . S
C2762 C2766 1.350 . S
C2763 C2766 1.463 . S
C2763 C2768 1.350 . S
C2763 N2771 1.427 . S
C2764 H2755 0.930 . S
C2764 C2762 1.378 . S
C2764 C2765 1.367 . S
C2765 C2764 1.367 . S
C2765 C2767 1.433 . S
C2766 C2762 1.350 . S
C2766 C2763 1.463 . S
C2766 N2770 1.427 . S
C2767 H2757 0.929 . S
C2767 C2765 1.433 . S
C2767 N2770 1.384 . S
C2768 H2759 0.929 . S
C2768 C2760 1.378 . S
C2768 C2763 1.350 . S
C2769 H2756 0.929 . S
C2769 C2761 1.433 . S
C2769 N2771 1.384 . S
N2770 C2766 1.427 . S
N2770 C2767 1.384 . S
N2771 C2763 1.427 . S
N2771 C2769 1.384 . S
H2772 C2778 0.930 . S
H2773 C2782 0.930 . S
H2774 C2787 0.929 . S
H2775 C2785 0.929 . S
H2776 C2780 0.929 . S
H2777 C2786 0.929 . S
C2778 H2772 0.930 . S
C2778 C2779 1.367 . S
C2778 C2786 1.378 . S
C2779 C2778 1.367 . S
C2779 C2787 1.433 . S
C2780 H2776 0.929 . S
C2780 C2782 1.378 . S
C2780 C2784 1.350 . S
C2781 C2784 1.463 . S
C2781 C2786 1.350 . S
C2781 N2789 1.427 . S
C2782 H2773 0.930 . S
C2782 C2780 1.378 . S
C2782 C2783 1.367 . S
C2783 C2782 1.367 . S
C2783 C2785 1.433 . S
C2784 C2780 1.350 . S
C2784 C2781 1.463 . S
C2784 N2788 1.427 . S
C2785 H2775 0.929 . S
C2785 C2783 1.433 . S
C2785 N2788 1.384 . S
C2786 H2777 0.929 . S
C2786 C2778 1.378 . S
C2786 C2781 1.350 . S
C2787 H2774 0.929 . S
C2787 C2779 1.433 . S
C2787 N2789 1.384 . S
N2788 C2784 1.427 . S
N2788 C2785 1.384 . S
N2789 C2781 1.427 . S
N2789 C2787 1.384 . S
H2790 C2796 0.930 . S
H2791 C2800 0.930 . S
H2792 C2805 0.929 . S
H2793 C2803 0.929 . S
H2794 C2798 0.929 . S
H2795 C2804 0.929 . S
C2796 H2790 0.930 . S
C2796 C2797 1.367 . S
C2796 C2804 1.378 . S
C2797 C2796 1.367 . S
C2797 C2805 1.433 . S
C2798 H2794 0.929 . S
C2798 C2800 1.378 . S
C2798 C2802 1.350 . S
C2799 C2802 1.463 . S
C2799 C2804 1.350 . S
C2799 N2807 1.427 . S
C2800 H2791 0.930 . S
C2800 C2798 1.378 . S
C2800 C2801 1.367 . S
C2801 C2800 1.367 . S
C2801 C2803 1.433 . S
C2802 C2798 1.350 . S
C2802 C2799 1.463 . S
C2802 N2806 1.427 . S
C2803 H2793 0.929 . S
C2803 C2801 1.433 . S
C2803 N2806 1.384 . S
C2804 H2795 0.929 . S
C2804 C2796 1.378 . S
C2804 C2799 1.350 . S
C2805 H2792 0.929 . S
C2805 C2797 1.433 . S
C2805 N2807 1.384 . S
N2806 C2802 1.427 . S
N2806 C2803 1.384 . S
N2807 C2799 1.427 . S
N2807 C2805 1.384 . S
H2808 C2814 0.930 . S
H2809 C2818 0.930 . S
H2810 C2823 0.929 . S
H2811 C2821 0.929 . S
H2812 C2816 0.929 . S
H2813 C2822 0.929 . S
C2814 H2808 0.930 . S
C2814 C2815 1.367 . S
C2814 C2822 1.378 . S
C2815 C2814 1.367 . S
C2815 C2823 1.433 . S
C2816 H2812 0.929 . S
C2816 C2818 1.378 . S
C2816 C2820 1.350 . S
C2817 C2820 1.463 . S
C2817 C2822 1.350 . S
C2817 N2825 1.427 . S
C2818 H2809 0.930 . S
C2818 C2816 1.378 . S
C2818 C2819 1.367 . S
C2819 C2818 1.367 . S
C2819 C2821 1.433 . S
C2820 C2816 1.350 . S
C2820 C2817 1.463 . S
C2820 N2824 1.427 . S
C2821 H2811 0.929 . S
C2821 C2819 1.433 . S
C2821 N2824 1.384 . S
C2822 H2813 0.929 . S
C2822 C2814 1.378 . S
C2822 C2817 1.350 . S
C2823 H2810 0.929 . S
C2823 C2815 1.433 . S
C2823 N2825 1.384 . S
N2824 C2820 1.427 . S
N2824 C2821 1.384 . S
N2825 C2817 1.427 . S
N2825 C2823 1.384 . S
H2826 C2832 0.930 . S
H2827 C2836 0.930 . S
H2828 C2841 0.929 . S
H2829 C2839 0.929 . S
H2830 C2834 0.929 . S
H2831 C2840 0.929 . S
C2832 H2826 0.930 . S
C2832 C2833 1.367 . S
C2832 C2840 1.378 . S
C2833 C2832 1.367 . S
C2833 C2841 1.433 . S
C2834 H2830 0.929 . S
C2834 C2836 1.378 . S
C2834 C2838 1.350 . S
C2835 C2838 1.463 . S
C2835 C2840 1.350 . S
C2835 N2843 1.427 . S
C2836 H2827 0.930 . S
C2836 C2834 1.378 . S
C2836 C2837 1.367 . S
C2837 C2836 1.367 . S
C2837 C2839 1.433 . S
C2838 C2834 1.350 . S
C2838 C2835 1.463 . S
C2838 N2842 1.427 . S
C2839 H2829 0.929 . S
C2839 C2837 1.433 . S
C2839 N2842 1.384 . S
C2840 H2831 0.929 . S
C2840 C2832 1.378 . S
C2840 C2835 1.350 . S
C2841 H2828 0.929 . S
C2841 C2833 1.433 . S
C2841 N2843 1.384 . S
N2842 C2838 1.427 . S
N2842 C2839 1.384 . S
N2843 C2835 1.427 . S
N2843 C2841 1.384 . S
H2844 C2850 0.930 . S
H2845 C2854 0.930 . S
H2846 C2859 0.929 . S
H2847 C2857 0.929 . S
H2848 C2852 0.929 . S
H2849 C2858 0.929 1_565 S
C2850 H2844 0.930 . S
C2850 C2851 1.367 . S
C2850 C2858 1.378 . S
C2851 C2850 1.367 . S
C2851 C2859 1.433 . S
C2852 H2848 0.929 . S
C2852 C2854 1.378 . S
C2852 C2856 1.350 . S
C2853 C2856 1.463 . S
C2853 C2858 1.350 . S
C2853 N2861 1.427 . S
C2854 H2845 0.930 . S
C2854 C2852 1.378 . S
C2854 C2855 1.367 . S
C2855 C2854 1.367 . S
C2855 C2857 1.433 1_545 S
C2856 C2852 1.350 . S
C2856 C2853 1.463 . S
C2856 N2860 1.427 1_545 S
C2857 H2847 0.929 . S
C2857 C2855 1.433 1_565 S
C2857 N2860 1.384 . S
C2858 H2849 0.929 1_545 S
C2858 C2850 1.378 . S
C2858 C2853 1.350 . S
C2859 H2846 0.929 . S
C2859 C2851 1.433 . S
C2859 N2861 1.384 . S
N2860 C2856 1.427 1_565 S
N2860 C2857 1.384 . S
N2861 C2853 1.427 . S
N2861 C2859 1.384 . S
C1573 C8 1.139 . S
C1577 C963 1.132 . S
C1591 C18 1.480 . S
C1595 C1043 1.501 . S
C1613 C1111 1.307 . S
C1609 C31 1.266 . S
C1627 C34 1.678 1_556 S
C1631 C1191 1.689 . S
C1645 C5 1.453 . S
C1649 C1265 1.516 . S
C1663 C21 1.572 . S
C1667 C1333 1.518 . S
C1681 C47 1.071 . S
C1685 C1259 1.080 . S
C1703 C1339 1.419 . S
C1699 C57 1.351 . S
C1721 C1185 1.312 . S
C1717 C70 1.258 1_556 S
C1735 C73 1.615 . S
C1739 C1117 1.684 1_545 S
C1757 C969 1.536 . S
C1753 C44 1.419 . S
C1771 C60 1.406 . S
C1775 C1037 1.417 . S
C1789 C86 1.378 . S
C1793 C1407 1.310 . S
C1807 C96 1.531 . S
C1811 C1487 1.503 . S
C1829 C1555 1.489 . S
C1825 C109 1.543 . S
C1843 C112 1.923 . S
C1847 C303 1.877 . S
C1861 C83 1.691 . S
C1865 C377 1.682 . S
C1879 C99 1.620 . S
C1883 C445 1.553 . S
C1897 C125 1.082 . S
C1901 C371 1.083 . S
C1915 C135 1.415 . S
C1919 C451 1.466 . S
C1937 C297 1.385 . S
C1933 C148 1.371 . S
C1955 C1561 1.853 . S
C1951 C151 1.842 . S
C1973 C1413 1.529 . S
C1969 C122 1.494 . S
C1991 C1481 1.475 . S
C1987 C138 1.472 . S
C2005 C164 1.283 . S
C2009 C519 1.229 . S
C2023 C174 1.557 . S
C2027 C599 1.544 . S
C2041 C187 1.565 . S
C2045 C667 1.495 . S
C2059 C190 1.999 . S
C2063 C747 1.952 . S
C2081 C821 1.645 . S
C2077 C161 1.681 . S
C2099 C889 1.588 . S
C2095 C177 1.654 . S
C2117 C815 1.184 . S
C2113 C203 1.177 . S
C2135 C895 1.427 . S
C2131 C213 1.387 . S
C2149 C226 1.327 . S
C2153 C741 1.330 . S
C2171 C673 1.757 . S
C2167 C229 1.753 . S
C2185 C200 1.542 . S
C2189 C525 1.581 . S
C2207 C593 1.437 . S
C2203 C216 1.437 . S
C2225 C273 1.887 . S
C2221 C0 1.824 . S
C2239 C23 1.378 . S
C2243 C347 1.357 . S
C2261 C433 1.501 . S
C2257 C36 1.516 . S
C2279 C507 1.212 . S
C2275 C26 1.172 . S
C2297 C569 1.540 . S
C2293 C10 1.559 . S
C2315 C655 1.498 . S
C2311 C13 1.429 . S
C2329 C39 2.006 . S
C2333 C643 2.023 . S
C2347 C62 1.589 . S
C2351 C495 1.499 . S
C2365 C75 1.747 . S
C2369 C581 1.693 . S
C2383 C65 1.409 . S
C2387 C359 1.450 . S
C2405 C421 1.682 . S
C2401 C49 1.782 . S
C2419 C52 1.659 . S
C2423 C285 1.711 . S
C2441 C717 1.830 . S
C2437 C78 1.783 . S
C2455 C101 1.508 1_545 S
C2459 C791 1.498 . S
C2473 C114 1.549 . S
C2477 C877 1.530 . S
C2495 C951 0.994 . S
C2491 C104 0.989 . S
C2509 C88 1.450 . S
C2513 C1013 1.427 . S
C2527 C91 1.253 . S
C2531 C1099 1.280 . S
C2545 C117 1.684 . S
C2549 C1087 1.641 1_565 S
C2563 C140 1.296 . S
C2567 C939 1.258 . S
C2585 C1025 1.596 . S
C2581 C153 1.643 . S
C2599 C143 1.394 . S
C2603 C803 1.426 . S
C2617 C127 1.796 1_545 S
C2621 C865 1.698 . S
C2639 C729 1.761 . S
C2635 C130 1.731 . S
C2657 C1161 1.661 . S
C2653 C156 1.645 . S
C2671 C179 1.161 . S
C2675 C1235 1.165 . S
C2689 C192 1.431 . S
C2693 C1321 1.422 . S
C2711 C1395 1.192 . S
C2707 C182 1.152 . S
C2729 C1457 1.581 . S
C2725 C166 1.595 1_565 S
C2743 C169 1.510 . S
C2747 C1543 1.562 . S
C2761 C195 1.971 . S
C2765 C1531 1.971 . S
C2779 C218 1.714 1_565 S
C2783 C1383 1.626 . S
C2801 C1469 1.700 . S
C2797 C231 1.761 1_455 S
C2819 C1247 1.097 . S
C2815 C221 1.071 . S
C2837 C1309 1.582 . S
C2833 C205 1.660 . S
C2851 C208 1.341 . S
C2855 C1173 1.388 1_545 S
