# Generated by pormake.
# Topology zzz, (3,6)-cn, num edge types: 1
# Building blocks:
#     Node 0, Type 0, BuildingBlock: BELTOD_clean_linker_0, # of connection points: 3
#     Node 1, Type 0, BuildingBlock: BELTOD_clean_linker_0, # of connection points: 3
#     Node 2, Type 0, BuildingBlock: BELTOD_clean_linker_0, # of connection points: 3
#     Node 3, Type 0, BuildingBlock: BELTOD_clean_linker_0, # of connection points: 3
#     Node 4, Type 0, BuildingBlock: BELTOD_clean_linker_0, # of connection points: 3
#     Node 5, Type 0, BuildingBlock: BELTOD_clean_linker_0, # of connection points: 3
#     Node 6, Type 0, BuildingBlock: BELTOD_clean_linker_0, # of connection points: 3
#     Node 7, Type 0, BuildingBlock: BELTOD_clean_linker_0, # of connection points: 3
#     Node 8, Type 1, BuildingBlock: INOVEN_clean_sbu_0, # of connection points: 6
#     Node 9, Type 1, BuildingBlock: INOVEN_clean_sbu_0, # of connection points: 6
#     Node 10, Type 1, BuildingBlock: INOVEN_clean_sbu_0, # of connection points: 6
#     Node 11, Type 1, BuildingBlock: INOVEN_clean_sbu_0, # of connection points: 6
#     Edge 12, Type (0, 1), BuildingBlock: UVAHIK_clean_linker_0, # of connection points: 2
#     Edge 13, Type (0, 1), BuildingBlock: UVAHIK_clean_linker_0, # of connection points: 2
#     Edge 14, Type (0, 1), BuildingBlock: UVAHIK_clean_linker_0, # of connection points: 2
#     Edge 15, Type (0, 1), BuildingBlock: UVAHIK_clean_linker_0, # of connection points: 2
#     Edge 16, Type (0, 1), BuildingBlock: UVAHIK_clean_linker_0, # of connection points: 2
#     Edge 17, Type (0, 1), BuildingBlock: UVAHIK_clean_linker_0, # of connection points: 2
#     Edge 18, Type (0, 1), BuildingBlock: UVAHIK_clean_linker_0, # of connection points: 2
#     Edge 19, Type (0, 1), BuildingBlock: UVAHIK_clean_linker_0, # of connection points: 2
#     Edge 20, Type (0, 1), BuildingBlock: UVAHIK_clean_linker_0, # of connection points: 2
#     Edge 21, Type (0, 1), BuildingBlock: UVAHIK_clean_linker_0, # of connection points: 2
#     Edge 22, Type (0, 1), BuildingBlock: UVAHIK_clean_linker_0, # of connection points: 2
#     Edge 23, Type (0, 1), BuildingBlock: UVAHIK_clean_linker_0, # of connection points: 2
#     Edge 24, Type (0, 1), BuildingBlock: UVAHIK_clean_linker_0, # of connection points: 2
#     Edge 25, Type (0, 1), BuildingBlock: UVAHIK_clean_linker_0, # of connection points: 2
#     Edge 26, Type (0, 1), BuildingBlock: UVAHIK_clean_linker_0, # of connection points: 2
#     Edge 27, Type (0, 1), BuildingBlock: UVAHIK_clean_linker_0, # of connection points: 2
#     Edge 28, Type (0, 1), BuildingBlock: UVAHIK_clean_linker_0, # of connection points: 2
#     Edge 29, Type (0, 1), BuildingBlock: UVAHIK_clean_linker_0, # of connection points: 2
#     Edge 30, Type (0, 1), BuildingBlock: UVAHIK_clean_linker_0, # of connection points: 2
#     Edge 31, Type (0, 1), BuildingBlock: UVAHIK_clean_linker_0, # of connection points: 2
#     Edge 32, Type (0, 1), BuildingBlock: UVAHIK_clean_linker_0, # of connection points: 2
#     Edge 33, Type (0, 1), BuildingBlock: UVAHIK_clean_linker_0, # of connection points: 2
#     Edge 34, Type (0, 1), BuildingBlock: UVAHIK_clean_linker_0, # of connection points: 2
#     Edge 35, Type (0, 1), BuildingBlock: UVAHIK_clean_linker_0, # of connection points: 2
# Relax obj value: 0.383
# Max RMSD: 0.259
# Mean RMSD: 0.241
data_MOF--net-zzz--node1-INOVEN_clean_sbu_0--node2-BELTOD_clean_linker_0--edge1-UVAHIK_clean_linker_0
_symmetry_space_group_name_H-M    P1
_symmetry_Int_Tables_number       1
_symmetry_cell_setting            triclinic
loop_
_symmetry_equiv_pos_as_xyz
'x, y, z'
_cell_length_a     70.623325
_cell_length_b     70.666005
_cell_length_c     21.319305
_cell_angle_alpha  90.01634
_cell_angle_beta   90.00932
_cell_angle_gamma 90.379646
loop_
_atom_site_label
_atom_site_type_symbol
_atom_site_fract_x
_atom_site_fract_y
_atom_site_fract_z
_atom_type_partial_charge
P0 P 0.72366 0.48564 0.33473 0.0
H1 H 0.73104 0.4988 0.46305 0.0
H2 H 0.75977 0.51137 0.51122 0.0
H3 H 0.78455 0.51859 0.32722 0.0
H4 H 0.75537 0.50719 0.27968 0.0
H5 H 0.68583 0.47206 0.30932 0.0
H6 H 0.66099 0.48212 0.23832 0.0
H7 H 0.69485 0.53066 0.18472 0.0
H8 H 0.72003 0.52018 0.25627 0.0
H9 H 0.74315 0.45029 0.36197 0.0
H10 H 0.73445 0.4866 0.20227 0.0
O11 O 0.71397 0.47321 0.39323 0.0
H12 H 0.7671 0.43281 0.30381 0.0
H13 H 0.75905 0.47015 0.1453 0.0
C14 C 0.74113 0.50163 0.36768 0.0
C15 C 0.74238 0.50373 0.43294 0.0
C16 C 0.75903 0.51067 0.46055 0.0
C17 C 0.77489 0.51539 0.42345 0.0
C18 C 0.77279 0.51507 0.35772 0.0
C19 C 0.75601 0.50843 0.3302 0.0
C20 C 0.70462 0.49558 0.28919 0.0
C21 C 0.68779 0.48513 0.2835 0.0
C22 C 0.67352 0.49094 0.24275 0.0
C23 C 0.67577 0.50732 0.20601 0.0
C24 C 0.69265 0.51795 0.21219 0.0
C25 C 0.70698 0.5121 0.25348 0.0
C26 C 0.7369 0.46964 0.2863 0.0
C27 C 0.74605 0.45419 0.31378 0.0
C28 C 0.75996 0.44438 0.28067 0.0
C29 C 0.76534 0.45021 0.22003 0.0
C30 C 0.75522 0.46498 0.1914 0.0
C31 C 0.74109 0.47453 0.22416 0.0
P32 P 0.0372 0.72487 0.34419 0.0
H33 H 0.04484 0.7389 0.47058 0.0
H34 H 0.03422 0.76752 0.52306 0.0
H35 H 0.99077 0.77458 0.38279 0.0
H36 H 1.00146 0.74573 0.33023 0.0
H37 H 0.04181 0.68426 0.36447 0.0
H38 H 0.03207 0.65705 0.30173 0.0
H39 H 0.99618 0.69305 0.19022 0.0
H40 H 0.00605 0.72039 0.25331 0.0
H41 H 0.04372 0.76576 0.33035 0.0
H42 H 0.04933 0.71573 0.21544 0.0
O43 O 0.0566 0.71748 0.38135 0.0
H44 H 0.05021 0.78555 0.23951 0.0
H45 H 0.05632 0.7358 0.12414 0.0
C46 C 0.02396 0.74005 0.3963 0.0
C47 C 0.03252 0.74607 0.45231 0.0
C48 C 0.02657 0.76262 0.48203 0.0
C49 C 0.01193 0.77354 0.45632 0.0
C50 C 1.00208 0.76647 0.40382 0.0
C51 C 0.00809 0.74985 0.37395 0.0
C52 C 0.02477 0.70444 0.31344 0.0
C53 C 0.0314 0.6863 0.32785 0.0
C54 C 0.02592 0.67072 0.29159 0.0
C55 C 0.01364 0.67297 0.24028 0.0
C56 C 0.00564 0.69086 0.22952 0.0
C57 C 0.0112 0.7065 0.26582 0.0
C58 C 0.04501 0.73924 0.27912 0.0
C59 C 0.04627 0.75895 0.28573 0.0
C60 C 0.05013 0.7703 0.23389 0.0
C61 C 0.05335 0.76213 0.17494 0.0
C62 C 0.05368 0.74236 0.1692 0.0
C63 C 0.04956 0.73095 0.22117 0.0
P64 P 0.78186 0.0328 0.33934 0.0
H65 H 0.77389 0.01511 0.46125 0.0
H66 H 0.74492 1.0008 0.5023 0.0
H67 H 0.72109 1.00066 0.31535 0.0
H68 H 0.75049 0.01374 0.27459 0.0
H69 H 0.81894 0.04817 0.31287 0.0
H70 H 0.8446 0.0385 0.24419 0.0
H71 H 0.81305 0.98808 0.19408 0.0
H72 H 0.78705 0.99823 0.26259 0.0
H73 H 0.75614 0.06263 0.37623 0.0
H74 H 0.77743 0.03904 0.20371 0.0
O75 O 0.7908 0.0438 0.4021 0.0
H76 H 0.73159 0.07927 0.31768 0.0
H77 H 0.75289 0.05545 0.14512 0.0
C78 C 0.76425 0.01585 0.36503 0.0
C79 C 0.7627 0.01133 0.4288 0.0
C80 C 0.74593 0.00339 0.45237 0.0
C81 C 0.73027 1.00013 0.41268 0.0
C82 C 0.73269 0.00293 0.34773 0.0
C83 C 0.74959 0.01052 0.32415 0.0
C84 C 0.80128 0.02373 0.29384 0.0
C85 C 0.81766 0.03486 0.28799 0.0
C86 C 0.83239 0.02925 0.24872 0.0
C87 C 0.83105 0.01238 0.21392 0.0
C88 C 0.81455 1.00118 0.22001 0.0
C89 C 0.79974 0.00686 0.25956 0.0
C90 C 0.76874 0.04977 0.29434 0.0
C91 C 0.75601 0.06163 0.32553 0.0
C92 C 0.74188 0.07098 0.2921 0.0
C93 C 0.74022 0.06852 0.2269 0.0
C94 C 0.75392 0.0578 0.19521 0.0
C95 C 0.76801 0.0484 0.22877 0.0
P96 P 0.46877 0.78722 0.32041 0.0
H97 H 0.47343 0.77358 0.44902 0.0
H98 H 0.48599 0.74413 0.48939 0.0
H99 H 0.51034 0.73213 0.30765 0.0
H100 H 0.49652 0.76112 0.26663 0.0
H101 H 0.45448 0.82415 0.28866 0.0
H102 H 0.46573 0.84917 0.21956 0.0
H103 H 0.51778 0.81859 0.19016 0.0
H104 H 0.50624 0.79339 0.25945 0.0
H105 H 0.44188 0.75668 0.33994 0.0
H106 H 0.46482 0.78747 0.18229 0.0
O107 O 0.45463 0.79586 0.37605 0.0
H108 H 0.4276 0.73375 0.26856 0.0
H109 H 0.4499 0.76512 0.11055 0.0
C110 C 0.48423 0.7698 0.35489 0.0
C111 C 0.48197 0.76495 0.41823 0.0
C112 C 0.48924 0.74796 0.44142 0.0
C113 C 0.49903 0.73544 0.40177 0.0
C114 C 0.50253 0.74113 0.33944 0.0
C115 C 0.49501 0.75801 0.31611 0.0
C116 C 0.47957 0.80698 0.28002 0.0
C117 C 0.46853 0.82303 0.26874 0.0
C118 C 0.47502 0.83738 0.22908 0.0
C119 C 0.4927 0.83596 0.19921 0.0
C120 C 0.50402 0.82006 0.21196 0.0
C121 C 0.49749 0.80567 0.25198 0.0
C122 C 0.45439 0.77378 0.26663 0.0
C123 C 0.44328 0.75887 0.28985 0.0
C124 C 0.43504 0.7458 0.24884 0.0
C125 C 0.43772 0.74748 0.18366 0.0
C126 C 0.44783 0.76321 0.16048 0.0
C127 C 0.45626 0.77615 0.20163 0.0
P128 P 0.29226 0.46102 0.99499 0.0
H129 H 0.2798 0.4582 0.86427 0.0
H130 H 0.25063 0.46891 0.81523 0.0
H131 H 0.23998 0.50524 0.974 0.0
H132 H 0.26936 0.49466 0.02251 0.0
H133 H 0.32732 0.44373 0.03345 0.0
H134 H 0.35368 0.45445 0.09766 0.0
H135 H 0.33008 0.51068 0.10229 0.0
H136 H 0.30344 0.49969 0.03738 0.0
H137 H 0.26157 0.43351 0.99724 0.0
H138 H 0.28709 0.47347 0.12534 0.0
O139 O 0.29844 0.44197 0.95362 0.0
H140 H 0.23354 0.43173 0.0641 0.0
H141 H 0.25914 0.47221 0.19089 0.0
C142 C 0.27695 0.4756 0.94726 0.0
C143 C 0.2717 0.46909 0.88751 0.0
C144 C 0.25477 0.47502 0.8598 0.0
C145 C 0.24267 0.48759 0.89133 0.0
C146 C 0.24892 0.49558 0.94825 0.0
C147 C 0.2659 0.48964 0.9759 0.0
C148 C 0.31351 0.47094 0.02956 0.0
C149 C 0.32803 0.45853 0.04654 0.0
C150 C 0.34318 0.4647 0.08351 0.0
C151 C 0.34409 0.48346 0.10527 0.0
C152 C 0.32977 0.4961 0.08668 0.0
C153 C 0.31461 0.48989 0.04902 0.0
C154 C 0.27647 0.45355 0.05629 0.0
C155 C 0.26151 0.44126 0.0411 0.0
C156 C 0.24539 0.44046 0.07891 0.0
C157 C 0.24396 0.45211 0.13214 0.0
C158 C 0.25978 0.46294 0.1505 0.0
C159 C 0.27589 0.46368 0.11277 0.0
P160 P 0.05103 0.29115 0.0375 0.0
H161 H 0.06183 0.27376 0.91849 0.0
H162 H 0.05082 0.24534 0.86656 0.0
H163 H 1.00199 0.24365 0.98903 0.0
H164 H 0.01407 0.27152 0.04403 0.0
H165 H 0.06878 0.32735 0.0621 0.0
H166 H 0.05778 0.3555 0.11472 0.0
H167 H 1.00039 0.33394 0.10793 0.0
H168 H 0.0118 0.30525 0.05595 0.0
H169 H 0.06752 0.25478 0.06682 0.0
H170 H 0.03928 0.29927 0.16865 0.0
O171 O 0.07289 0.29454 0.00967 0.0
H172 H 0.06641 0.23483 0.16004 0.0
H173 H 0.03842 0.27954 0.26187 0.0
C174 C 0.03872 0.27506 0.985 0.0
C175 C 0.04846 0.26766 0.93325 0.0
C176 C 0.04204 0.25122 0.90319 0.0
C177 C 0.02552 0.24176 0.92361 0.0
C178 C 0.015 0.25011 0.97257 0.0
C179 C 0.02165 0.26643 0.00333 0.0
C180 C 0.04114 0.31418 0.05403 0.0
C181 C 0.05371 0.32889 0.06956 0.0
C182 C 0.04734 0.34512 0.10006 0.0
C183 C 0.02815 0.3471 0.11626 0.0
C184 C 0.01531 0.33283 0.09708 0.0
C185 C 0.02177 0.31649 0.06637 0.0
C186 C 0.05327 0.2784 0.11016 0.0
C187 C 0.06147 0.26042 0.10956 0.0
C188 C 0.06094 0.24909 0.16309 0.0
C189 C 0.05222 0.25559 0.21829 0.0
C190 C 0.04501 0.27406 0.21979 0.0
C191 C 0.04551 0.28537 0.16617 0.0
P192 P 0.21519 0.05458 0.99347 0.0
H193 H 0.22473 0.04971 0.86063 0.0
H194 H 0.25376 0.03864 0.81102 0.0
H195 H 0.27292 0.01682 0.98899 0.0
H196 H 0.24396 0.028 0.03846 0.0
H197 H 0.17544 0.06401 0.00947 0.0
H198 H 0.15098 0.0526 0.081 0.0
H199 H 0.18883 0.00941 0.14812 0.0
H200 H 0.21323 0.02057 0.07485 0.0
H201 H 0.24326 0.08374 0.96922 0.0
H202 H 0.22096 0.05447 0.13096 0.0
O203 O 0.20568 0.0694 0.94146 0.0
H204 H 0.27042 0.09438 0.03112 0.0
H205 H 0.24813 0.06454 0.19214 0.0
C206 C 0.23196 0.03958 0.95337 0.0
C207 C 0.23479 0.0419 0.88868 0.0
C208 C 0.25154 0.03575 0.86038 0.0
C209 C 0.2658 0.02711 0.89624 0.0
C210 C 0.26219 0.0233 0.95989 0.0
C211 C 0.24547 0.02955 0.98822 0.0
C212 C 0.1962 0.04309 0.03621 0.0
C213 C 0.17837 0.05171 0.03804 0.0
C214 C 0.16435 0.0452 0.07911 0.0
C215 C 0.16801 0.03016 0.12032 0.0
C216 C 0.18566 0.02108 0.11701 0.0
C217 C 0.19957 0.02738 0.07482 0.0
C218 C 0.23009 0.06822 0.04517 0.0
C219 C 0.2438 0.08021 0.01863 0.0
C220 C 0.25943 0.08612 0.05387 0.0
C221 C 0.26161 0.08002 0.1162 0.0
C222 C 0.24687 0.06958 0.14436 0.0
C223 C 0.23127 0.06369 0.10906 0.0
P224 P 0.45414 0.22106 0.0134 0.0
H225 H 0.44789 0.23664 0.88812 0.0
H226 H 0.45866 0.26572 0.83974 0.0
H227 H 0.50027 0.27277 0.98711 0.0
H228 H 0.48796 0.2446 0.0384 0.0
H229 H 0.44129 0.18227 0.02994 0.0
H230 H 0.45338 0.15619 0.09196 0.0
H231 H 0.50501 0.18765 0.12586 0.0
H232 H 0.49275 0.21385 0.06353 0.0
H233 H 0.43341 0.25623 0.02175 0.0
H234 H 0.45696 0.21576 0.15134 0.0
O235 O 0.43508 0.21416 0.97286 0.0
H236 H 0.42833 0.27826 0.10789 0.0
H237 H 0.45155 0.23756 0.23768 0.0
C238 C 0.46733 0.238 0.96649 0.0
C239 C 0.4597 0.2441 0.90927 0.0
C240 C 0.46598 0.26093 0.88131 0.0
C241 C 0.48031 0.27204 0.90943 0.0
C242 C 0.48891 0.26504 0.96442 0.0
C243 C 0.48226 0.24844 0.99314 0.0
C244 C 0.46613 0.20008 0.04111 0.0
C245 C 0.45551 0.18338 0.04863 0.0
C246 C 0.46245 0.1684 0.08447 0.0
C247 C 0.48013 0.16983 0.11443 0.0
C248 C 0.49123 0.18616 0.10403 0.0
C249 C 0.4843 0.20114 0.06765 0.0
C250 C 0.44599 0.23455 0.07961 0.0
C251 C 0.43702 0.25187 0.06895 0.0
C252 C 0.43399 0.26441 0.11843 0.0
C253 C 0.4398 0.25976 0.17957 0.0
C254 C 0.44728 0.24169 0.19087 0.0
C255 C 0.45038 0.22919 0.14126 0.0
Gd256 Gd 0.01466 0.00315 0.73264 0.0
Gd257 Gd 0.99039 0.01314 0.62407 0.0
C258 C 0.99873 0.96958 0.63962 0.0
C259 C 0.02949 0.98737 0.82995 0.0
C260 C 0.03528 0.96779 0.8433 0.0
C261 C 0.05365 0.96421 0.86503 0.0
C262 C 0.02307 0.95251 0.83049 0.0
C263 C 0.04768 0.93029 0.85973 0.0
C264 C 0.02921 0.93395 0.83853 0.0
C265 C 0.0598 0.94562 0.87331 0.0
C266 C 0.0343 0.01285 0.62854 0.0
C267 C 0.00646 0.04659 0.71675 0.0
C268 C 0.97636 0.02895 0.52566 0.0
C269 C 0.97625 0.04882 0.50515 0.0
C270 C 0.97036 0.06331 0.5458 0.0
C271 C 0.98456 0.0536 0.4476 0.0
C272 C 0.9831 0.08702 0.47456 0.0
C273 C 0.98802 0.0725 0.43248 0.0
C274 C 0.97371 0.08224 0.5305 0.0
C275 C 0.97094 0.00276 0.72742 0.0
O276 O 0.0055 0.97428 0.69546 0.0
O277 O 0.99351 0.9826 0.59896 0.0
O278 O 0.03952 0.99613 0.78731 0.0
O279 O 0.0113 0.99039 0.82429 0.0
O280 O 0.03928 0.01756 0.68497 0.0
O281 O 0.01955 0.00269 0.63002 0.0
O282 O 1.00054 0.04189 0.65984 0.0
O283 O 0.01072 0.03352 0.75847 0.0
O284 O 0.9662 0.02468 0.57503 0.0
O285 O 0.99311 0.02117 0.52659 0.0
O286 O 0.96612 0.99798 0.6708 0.0
O287 O 0.98542 0.01334 0.72651 0.0
H288 H 0.06333 0.97581 0.87472 0.0
H289 H 0.0088 0.95485 0.81381 0.0
H290 H 0.0194 0.92247 0.82884 0.0
H291 H 0.07413 0.94323 0.88945 0.0
H292 H 0.96395 0.06004 0.59069 0.0
H293 H 0.98932 0.04265 0.41581 0.0
H294 H 0.99548 0.07564 0.38932 0.0
H295 H 0.96948 0.09311 0.56341 0.0
Gd296 Gd 0.50489 0.01323 0.7229 0.0
Gd297 Gd 0.49114 0.99227 0.59744 0.0
C298 C 0.53569 0.9985 0.61914 0.0
C299 C 0.51835 0.0197 0.83305 0.0
C300 C 0.53532 0.02951 0.85642 0.0
C301 C 0.53602 0.036 0.91847 0.0
C302 C 0.55102 0.03226 0.81703 0.0
C303 C 0.56841 0.04699 0.90266 0.0
C304 C 0.56748 0.04081 0.84007 0.0
C305 C 0.55244 0.04476 0.94142 0.0
C306 C 0.50282 0.0378 0.62395 0.0
C307 C 0.4604 0.01011 0.69594 0.0
C308 C 0.47407 0.98464 0.49367 0.0
C309 C 0.45872 0.99494 0.46262 0.0
C310 C 0.44912 0.98714 0.41116 0.0
C311 C 0.45333 0.01269 0.48576 0.0
C312 C 0.42855 0.01469 0.40723 0.0
C313 C 0.43843 0.02248 0.45834 0.0
C314 C 0.43413 0.99698 0.38348 0.0
C315 C 0.50054 0.96991 0.69508 0.0
O316 O 0.5321 0.00331 0.67815 0.0
O317 O 0.52217 0.99541 0.57714 0.0
O318 O 0.50552 0.03049 0.80687 0.0
O319 O 0.52149 0.00398 0.80194 0.0
O320 O 0.50814 0.04286 0.67982 0.0
O321 O 0.49914 0.02046 0.62604 0.0
O322 O 0.4645 0.00532 0.63736 0.0
O323 O 0.47357 0.01196 0.73974 0.0
O324 O 0.46948 0.97662 0.54701 0.0
O325 O 0.4903 0.99371 0.49615 0.0
O326 O 0.50262 0.96494 0.63673 0.0
O327 O 0.49221 0.9856 0.69818 0.0
H328 H 0.52399 0.03405 0.94936 0.0
H329 H 0.55061 0.02758 0.76868 0.0
H330 H 0.57951 0.04254 0.80902 0.0
H331 H 0.55284 0.04927 0.98997 0.0
H332 H 0.45308 0.97342 0.39287 0.0
H333 H 0.46061 0.01899 0.5253 0.0
H334 H 0.43468 0.0362 0.47708 0.0
H335 H 0.42667 0.99057 0.34443 0.0
Gd336 Gd 0.49619 0.51126 0.7256 0.0
Gd337 Gd 0.5196 0.49851 0.60477 0.0
C338 C 0.51024 0.54248 0.62211 0.0
C339 C 0.48749 0.52399 0.83484 0.0
C340 C 0.47634 0.54002 0.85761 0.0
C341 C 0.46871 0.53963 0.9182 0.0
C342 C 0.47332 0.55584 0.81921 0.0
C343 C 0.45595 0.57127 0.90328 0.0
C344 C 0.46329 0.57135 0.84191 0.0
C345 C 0.45856 0.55511 0.94087 0.0
C346 C 0.47325 0.50752 0.62297 0.0
C347 C 0.50173 0.46675 0.70036 0.0
C348 C 0.53024 0.48152 0.50449 0.0
C349 C 0.52384 0.46322 0.47825 0.0
C350 C 0.52732 0.4462 0.51034 0.0
C351 C 0.51222 0.46288 0.42482 0.0
C352 C 0.50617 0.42926 0.4398 0.0
C353 C 0.50344 0.44606 0.40578 0.0
C354 C 0.51853 0.42942 0.4914 0.0
C355 C 0.53993 0.50997 0.70529 0.0
O356 O 0.5054 0.53897 0.68122 0.0
O357 O 0.51431 0.52892 0.58144 0.0
O358 O 0.47785 0.51047 0.80692 0.0
O359 O 0.50333 0.52843 0.80595 0.0
O360 O 0.46725 0.51333 0.67718 0.0
O361 O 0.49061 0.50448 0.62847 0.0
O362 O 0.50834 0.47081 0.64368 0.0
O363 O 0.49774 0.47993 0.74241 0.0
O364 O 0.5399 0.48084 0.55702 0.0
O365 O 0.51756 0.495 0.50414 0.0
O366 O 0.54523 0.51273 0.64755 0.0
O367 O 0.52483 0.50032 0.70657 0.0
H368 H 0.47076 0.52744 0.94817 0.0
H369 H 0.47902 0.55632 0.77203 0.0
H370 H 0.46179 0.58363 0.81197 0.0
H371 H 0.45286 0.55447 0.98798 0.0
H372 H 0.53629 0.4459 0.5515 0.0
H373 H 0.50926 0.4758 0.39935 0.0
H374 H 0.49392 0.44639 0.36597 0.0
H375 H 0.52119 0.41661 0.5178 0.0
Gd376 Gd 1.00094 0.49855 0.73351 0.0
Gd377 Gd 0.01363 0.52072 0.62124 0.0
C378 C 0.96818 0.51434 0.64579 0.0
C379 C 0.99305 0.48442 0.84221 0.0
C380 C 0.97637 0.47527 0.87028 0.0
C381 C 0.96313 0.4656 0.83287 0.0
C382 C 0.97322 0.47692 0.93485 0.0
C383 C 0.94346 0.45954 0.92461 0.0
C384 C 0.9569 0.46916 0.96182 0.0
C385 C 0.94686 0.45771 0.85985 0.0
C386 C 0.00288 0.47823 0.62631 0.0
C387 C 0.04576 0.5055 0.71033 0.0
C388 C 0.0227 0.53242 0.51039 0.0
C389 C 0.03997 0.52889 0.47417 0.0
C390 C 0.04389 0.53871 0.41848 0.0
C391 C 0.05302 0.51572 0.49689 0.0
C392 C 0.07404 0.52236 0.40976 0.0
C393 C 0.06985 0.51249 0.46518 0.0
C394 C 0.06083 0.53538 0.3861 0.0
C395 C 0.01125 0.54117 0.72798 0.0
O396 O 0.97203 0.50682 0.701 0.0
O397 O 0.98176 0.51996 0.60702 0.0
O398 O 1.00165 0.47494 0.79797 0.0
O399 O 0.99122 0.5024 0.82902 0.0
O400 O 0.98986 0.4759 0.66855 0.0
O401 O 0.01481 0.4905 0.64405 0.0
O402 O 0.04154 0.50888 0.65124 0.0
O403 O 0.03222 0.50366 0.75275 0.0
O404 O 0.02515 0.54264 0.56092 0.0
O405 O 0.01205 0.5175 0.52035 0.0
O406 O 0.02426 0.54372 0.68593 0.0
O407 O 0.99955 0.52878 0.70997 0.0
H408 H 0.96526 0.46431 0.78272 0.0
H409 H 0.98322 0.4845 0.96426 0.0
H410 H 0.9546 0.47117 0.01158 0.0
H411 H 0.93693 0.45024 0.8299 0.0
H412 H 0.03395 0.54896 0.40035 0.0
H413 H 0.05022 0.50786 0.53927 0.0
H414 H 0.07953 0.50207 0.48379 0.0
H415 H 0.06375 0.54312 0.3433 0.0
C416 C 0.15965 0.02425 0.23289 0.0
C417 C 0.15401 0.02519 0.16983 0.0
C418 C 0.14626 0.02164 0.28053 0.0
C419 C 0.09429 0.02575 0.31135 0.0
H420 H 0.10781 1.00086 0.46693 0.0
C421 C 0.04109 0.00863 0.5137 0.0
C422 C 0.04706 0.01444 0.57364 0.0
C423 C 0.05356 0.00947 0.46257 0.0
C424 C 0.10387 0.00789 0.42376 0.0
H425 H 0.13001 0.0234 0.10692 0.0
H426 H 0.10667 0.01797 0.18954 0.0
H427 H 0.1305 1.00188 0.38091 0.0
H428 H 0.0707 0.02574 0.62698 0.0
H429 H 0.09255 0.02674 0.53815 0.0
H430 H 0.06739 0.03123 0.35443 0.0
C431 C 0.12135 0.0199 0.20278 0.0
C432 C 0.11691 0.0086 0.3744 0.0
C433 C 0.13474 0.02284 0.15522 0.0
C434 C 0.06568 0.02116 0.58138 0.0
C435 C 0.07822 0.02166 0.53064 0.0
C436 C 0.08112 0.02472 0.36041 0.0
C437 C 0.12685 0.01959 0.26634 0.0
C438 C 0.11245 0.01778 0.31768 0.0
C439 C 0.07233 0.01576 0.47076 0.0
C440 C 0.08588 0.01602 0.41741 0.0
H441 H 0.17437 0.02632 0.24564 0.0
H442 H 0.15114 0.02187 0.32865 0.0
H443 H 0.09033 0.03324 0.26913 0.0
H444 H 0.02687 0.00326 0.50642 0.0
H445 H 0.04868 0.00477 0.41695 0.0
C446 C 0.48234 0.13584 0.14978 0.0
C447 C 0.48595 0.15516 0.16084 0.0
C448 C 0.48578 0.12234 0.19643 0.0
C449 C 0.51052 0.1149 0.34898 0.0
H450 H 0.47234 0.07584 0.37248 0.0
C451 C 0.50612 0.06975 0.57478 0.0
C452 C 0.50177 0.05041 0.5686 0.0
C453 C 0.50513 0.08186 0.52297 0.0
C454 C 0.48327 0.08649 0.36614 0.0
H455 H 0.49633 0.17531 0.22967 0.0
H456 H 0.50231 0.15187 0.31076 0.0
H457 H 0.46948 0.09796 0.28535 0.0
H458 H 0.4933 0.02864 0.50322 0.0
H459 H 0.49138 0.04967 0.41257 0.0
H460 H 0.52412 0.10358 0.43044 0.0
C461 C 0.49708 0.14706 0.26572 0.0
C462 C 0.48166 0.09918 0.31601 0.0
C463 C 0.49368 0.16054 0.21904 0.0
C464 C 0.4965 0.04344 0.50947 0.0
C465 C 0.49539 0.05555 0.4576 0.0
C466 C 0.5121 0.10224 0.3992 0.0
C467 C 0.49289 0.1278 0.25546 0.0
C468 C 0.49518 0.11366 0.30699 0.0
C469 C 0.49972 0.07494 0.46367 0.0
C470 C 0.49841 0.08796 0.40875 0.0
H471 H 0.47661 0.13117 0.10523 0.0
H472 H 0.48273 0.10761 0.18634 0.0
H473 H 0.52137 0.12563 0.34299 0.0
H474 H 0.51022 0.07556 0.61983 0.0
H475 H 0.50832 0.09674 0.52965 0.0
C476 C 0.35483 0.50011 0.20379 0.0
C477 C 0.3592 0.48915 0.15071 0.0
C478 C 0.36847 0.50352 0.2503 0.0
C479 C 0.41267 0.48333 0.31468 0.0
H480 H 0.41545 0.53075 0.40571 0.0
C481 C 0.46816 0.49676 0.5116 0.0
C482 C 0.46167 0.50628 0.56517 0.0
C483 C 0.4568 0.49549 0.45773 0.0
C484 C 0.41477 0.51735 0.38113 0.0
H485 H 0.38176 0.4741 0.10349 0.0
H486 H 0.4055 0.48011 0.18429 0.0
H487 H 0.3937 0.52755 0.31745 0.0
H488 H 0.43815 0.52173 0.60478 0.0
H489 H 0.41829 0.5194 0.51163 0.0
H490 H 0.43354 0.47304 0.37889 0.0
C491 C 0.39141 0.48573 0.19069 0.0
C492 C 0.40228 0.51552 0.33043 0.0
C493 C 0.37779 0.48233 0.14423 0.0
C494 C 0.4436 0.51442 0.56399 0.0
C495 C 0.43226 0.5132 0.51032 0.0
C496 C 0.42516 0.48516 0.36544 0.0
C497 C 0.38685 0.49608 0.24495 0.0
C498 C 0.40091 0.49843 0.29686 0.0
C499 C 0.43867 0.50373 0.45637 0.0
C500 C 0.42623 0.50212 0.39985 0.0
H501 H 0.34062 0.50537 0.21086 0.0
H502 H 0.36435 0.51138 0.29167 0.0
H503 H 0.41183 0.46986 0.29061 0.0
H504 H 0.48185 0.49001 0.51168 0.0
H505 H 0.46225 0.48812 0.41708 0.0
C506 C 0.03113 0.38085 0.15451 0.0
C507 C 0.02221 0.36298 0.15828 0.0
C508 C 0.0278 0.39476 0.1999 0.0
C509 C 0.99517 0.40992 0.32533 0.0
H510 H 0.04016 0.43193 0.40081 0.0
C511 C 0.99173 0.45146 0.55867 0.0
C512 C 0.00452 0.46643 0.56905 0.0
C513 C 0.99329 0.43998 0.50543 0.0
C514 C 0.02738 0.42626 0.37971 0.0
H515 H 1.00204 0.34629 0.21203 0.0
H516 H 0.99583 0.37077 0.28982 0.0
H517 H 0.04322 0.41048 0.31206 0.0
H518 H 0.02884 0.48126 0.53131 0.0
H519 H 0.03125 0.4618 0.4371 0.0
H520 H 0.97925 0.42582 0.39216 0.0
C521 C 0.00551 0.37391 0.25176 0.0
C522 C 0.02918 0.41387 0.32879 0.0
C523 C 0.00901 0.35988 0.20679 0.0
C524 C 0.0188 0.46984 0.52458 0.0
C525 C 0.02024 0.45851 0.47078 0.0
C526 C 0.99334 0.4225 0.37575 0.0
C527 C 0.01525 0.39132 0.24979 0.0
C528 C 0.01311 0.40539 0.30142 0.0
C529 C 0.00757 0.44331 0.46053 0.0
C530 C 0.00944 0.43069 0.40432 0.0
H531 H 0.04106 0.38398 0.11718 0.0
H532 H 0.03527 0.40816 0.19643 0.0
H533 H 0.98251 0.40377 0.30481 0.0
H534 H 0.9806 0.4484 0.59225 0.0
H535 H 0.98348 0.42825 0.50027 0.0
C536 C 0.8424 0.99982 0.10982 0.0
C537 C 0.84653 0.00717 0.16967 0.0
C538 C 0.85688 0.99685 0.06607 0.0
C539 C 0.90424 0.01465 0.0257 0.0
H540 H 0.90625 0.97113 0.91526 0.0
C541 C 0.96367 0.0073 0.84154 0.0
C542 C 0.95834 1.0004 0.78232 0.0
C543 C 0.95111 0.00619 0.89226 0.0
C544 C 0.90581 0.98348 0.94529 0.0
H545 H 0.86935 0.016 0.2315 0.0
H546 H 0.89448 0.01107 0.15499 0.0
H547 H 0.88207 0.97256 0.99695 0.0
H548 H 0.93592 0.98651 0.73 0.0
H549 H 0.91386 0.98503 0.81757 0.0
H550 H 0.92748 0.02593 0.97324 0.0
C551 C 0.88001 0.00788 0.14162 0.0
C552 C 0.89196 0.98425 0.99223 0.0
C553 C 0.86558 0.01073 0.18542 0.0
C554 C 0.94043 0.99194 0.77515 0.0
C555 C 0.92782 0.99097 0.82562 0.0
C556 C 0.91796 0.01397 0.97851 0.0
C557 C 0.8758 1.00124 0.08105 0.0
C558 C 0.89096 0.99989 0.03277 0.0
C559 C 0.93288 0.99829 0.88476 0.0
C560 C 0.91888 0.99844 0.93731 0.0
H561 H 0.8279 0.9971 0.09577 0.0
H562 H 0.85316 0.99184 0.01962 0.0
H563 H 0.90367 0.02704 0.05554 0.0
H564 H 0.97745 0.0138 0.84849 0.0
H565 H 0.95568 0.01166 0.93728 0.0
C566 C 0.49434 0.86966 0.16094 0.0
C567 C 0.49849 0.8504 0.15179 0.0
C568 C 0.49763 0.8829 0.11332 0.0
C569 C 0.50213 0.88548 0.94094 0.0
H570 H 0.51706 0.93746 0.97361 0.0
C571 C 0.51171 0.93927 0.73985 0.0
C572 C 0.50372 0.95719 0.74908 0.0
C573 C 0.51344 0.92659 0.78989 0.0
C574 C 0.51277 0.92302 0.96377 0.0
H575 H 0.51007 0.83018 0.08581 0.0
H576 H 0.51627 0.85332 0.00348 0.0
H577 H 0.51638 0.91462 0.05959 0.0
H578 H 0.49171 0.97613 0.81815 0.0
H579 H 0.49465 0.95399 0.90562 0.0
H580 H 0.49829 0.89388 0.84543 0.0
C581 C 0.51013 0.85814 0.04716 0.0
C582 C 0.51237 0.90992 0.01307 0.0
C583 C 0.50681 0.84489 0.09477 0.0
C584 C 0.49798 0.96242 0.80971 0.0
C585 C 0.49974 0.94975 0.85985 0.0
C586 C 0.50257 0.89855 0.89172 0.0
C587 C 0.5052 0.87725 0.05528 0.0
C588 C 0.50688 0.891 0.0024 0.0
C589 C 0.50723 0.93156 0.85036 0.0
C590 C 0.50774 0.91753 0.90254 0.0
H591 H 0.48816 0.87447 0.20456 0.0
H592 H 0.49354 0.89744 0.12126 0.0
H593 H 0.49747 0.87116 0.93103 0.0
H594 H 0.51636 0.9349 0.69367 0.0
H595 H 0.51955 0.91282 0.78108 0.0
C596 C 0.64159 0.50975 0.17359 0.0
C597 C 0.66089 0.51242 0.15931 0.0
C598 C 0.62769 0.51209 0.1276 0.0
C599 C 0.61787 0.53249 0.97106 0.0
H600 H 0.58119 0.49157 0.9596 0.0
C601 C 0.57046 0.52118 0.75237 0.0
C602 C 0.55226 0.51341 0.76036 0.0
C603 C 0.58282 0.52298 0.80337 0.0
C604 C 0.59105 0.50334 0.9626 0.0
H605 H 0.68051 0.52048 0.08562 0.0
H606 H 0.65618 0.52483 0.00552 0.0
H607 H 0.60426 0.49176 0.04422 0.0
H608 H 0.53247 0.50204 0.82842 0.0
H609 H 0.55375 0.50572 0.91789 0.0
H610 H 0.60464 0.54411 0.88943 0.0
C611 C 0.65185 0.52092 0.05251 0.0
C612 C 0.60435 0.5034 0.01119 0.0
C613 C 0.66581 0.51847 0.09854 0.0
C614 C 0.54643 0.50806 0.8208 0.0
C615 C 0.55873 0.51001 0.87198 0.0
C616 C 0.60444 0.53253 0.92264 0.0
C617 C 0.63267 0.5173 0.06613 0.0
C618 C 0.61802 0.51789 0.0158 0.0
C619 C 0.57724 0.51719 0.86384 0.0
C620 C 0.59092 0.51785 0.91738 0.0
H621 H 0.63722 0.50549 0.22022 0.0
H622 H 0.61301 0.50957 0.13999 0.0
H623 H 0.62808 0.54397 0.97368 0.0
H624 H 0.57537 0.5254 0.70628 0.0
H625 H 0.59698 0.52834 0.79484 0.0
C626 C 0.99326 0.65257 0.16955 0.0
C627 C 0.01113 0.65732 0.19418 0.0
C628 C 0.99142 0.63827 0.12417 0.0
C629 C 0.01849 0.59846 0.05007 0.0
H630 H 0.98237 0.60451 0.91469 0.0
C631 C 0.02552 0.5624 0.80866 0.0
C632 C 0.00963 0.55253 0.7859 0.0
C633 C 0.0242 0.57355 0.86262 0.0
C634 C 0.99237 0.60255 0.95264 0.0
H635 H 0.04111 0.6512 0.18911 0.0
H636 H 0.0381 0.62694 0.10941 0.0
H637 H 0.98283 0.62724 1.00111 0.0
H638 H 0.97989 0.54651 0.80152 0.0
H639 H 0.97741 0.56665 0.89529 0.0
H640 H 0.02866 0.57436 0.99942 0.0
C641 C 0.02531 0.63354 0.12646 0.0
C642 C 0.99261 0.61553 0.00242 0.0
C643 C 0.02708 0.64758 0.17221 0.0
C644 C 0.99235 0.55398 0.81819 0.0
C645 C 0.99092 0.56552 0.87154 0.0
C646 C 0.01847 0.58575 0.99982 0.0
C647 C 0.00746 0.6286 0.1017 0.0
C648 C 0.00592 0.61387 0.05139 0.0
C649 C 0.00687 0.57536 0.89429 0.0
C650 C 0.0056 0.58782 0.9502 0.0
H651 H 0.98071 0.65984 0.18565 0.0
H652 H 0.97741 0.63478 0.10696 0.0
H653 H 0.02859 0.59629 0.08756 0.0
H654 H 0.03902 0.56148 0.78479 0.0
H655 H 0.03667 0.58107 0.87896 0.0
C656 C 0.0306 0.2414 0.29854 0.0
C657 C 0.04865 0.24231 0.27083 0.0
C658 C 0.02581 0.22648 0.33845 0.0
C659 C 0.03715 0.177 0.35101 0.0
H660 H 1.00136 0.17734 0.48908 0.0
C661 C 0.98899 0.11396 0.4007 0.0
C662 C 0.9892 0.10678 0.46211 0.0
C663 C 0.99708 0.13154 0.38746 0.0
C664 C 0.01149 0.17709 0.45095 0.0
H665 H 0.07643 0.22947 0.26835 0.0
H666 H 0.068 0.20327 0.33793 0.0
H667 H 0.01602 0.20713 0.45417 0.0
H668 H 0.99735 0.11287 0.55839 0.0
H669 H 0.01104 0.14394 0.53508 0.0
H670 H 0.03219 0.14716 0.34617 0.0
C671 C 0.0575 0.21396 0.32793 0.0
C672 C 0.01983 0.19406 0.43096 0.0
C673 C 0.0623 0.2289 0.28805 0.0
C674 C 0.99676 0.11807 0.51064 0.0
C675 C 0.0047 0.13579 0.4974 0.0
C676 C 0.02871 0.16015 0.3705 0.0
C677 C 0.03896 0.21217 0.35128 0.0
C678 C 0.03246 0.1942 0.37994 0.0
C679 C 0.00538 0.1424 0.43541 0.0
C680 C 0.01548 0.16011 0.41956 0.0
H681 H 0.0197 0.2514 0.28583 0.0
H682 H 0.01137 0.2254 0.35524 0.0
H683 H 0.04662 0.17665 0.31105 0.0
H684 H 0.98292 0.10582 0.36254 0.0
H685 H 0.99712 0.13655 0.33942 0.0
C686 C 0.28145 0.08467 0.21302 0.0
C687 C 0.28024 0.08154 0.14804 0.0
C688 C 0.29861 0.08216 0.24457 0.0
C689 C 0.35028 0.07397 0.22121 0.0
H690 H 0.34462 0.04216 0.36829 0.0
C691 C 0.40993 0.02621 0.31461 0.0
C692 C 0.41227 0.02496 0.3799 0.0
C693 C 0.39461 0.03603 0.28926 0.0
C694 C 0.34648 0.05129 0.32791 0.0
H695 H 0.29635 0.07427 0.06482 0.0
H696 H 0.32608 0.06994 0.1195 0.0
H697 H 0.31672 0.05577 0.31966 0.0
H698 H 0.4003 0.03285 0.46983 0.0
H699 H 0.37368 0.05009 0.42558 0.0
H700 H 0.38007 0.06887 0.22848 0.0
C701 C 0.31392 0.07458 0.14621 0.0
C702 C 0.33048 0.05917 0.30014 0.0
C703 C 0.29682 0.07711 0.11473 0.0
C704 C 0.39898 0.03372 0.41929 0.0
C705 C 0.38366 0.04347 0.39399 0.0
C706 C 0.3663 0.06602 0.24891 0.0
C707 C 0.31488 0.07643 0.21175 0.0
C708 C 0.33214 0.07033 0.2458 0.0
C709 C 0.38127 0.04469 0.32872 0.0
C710 C 0.36453 0.05433 0.30192 0.0
H711 H 0.26897 0.08831 0.23982 0.0
H712 H 0.29899 0.08404 0.29497 0.0
H713 H 0.35206 0.08271 0.17987 0.0
H714 H 0.42003 0.01973 0.28311 0.0
H715 H 0.39302 0.03653 0.23876 0.0
C716 C 0.42633 0.28829 0.23359 0.0
C717 C 0.44063 0.27463 0.22863 0.0
C718 C 0.42906 0.30438 0.27078 0.0
C719 C 0.46152 0.3267 0.38794 0.0
H720 H 0.45114 0.37238 0.29359 0.0
C721 C 0.48744 0.40042 0.46991 0.0
C722 C 0.49567 0.41177 0.42294 0.0
C723 C 0.47749 0.38396 0.45413 0.0
C724 C 0.45412 0.35975 0.32056 0.0
H725 H 0.4685 0.26659 0.26181 0.0
H726 H 0.47322 0.29445 0.32616 0.0
H727 H 0.43882 0.34218 0.2565 0.0
H728 H 0.49999 0.41475 0.32278 0.0
H729 H 0.48279 0.38593 0.29519 0.0
H730 H 0.47781 0.34419 0.44989 0.0
C731 C 0.4598 0.29273 0.3022 0.0
C732 C 0.4468 0.34246 0.29986 0.0
C733 C 0.45708 0.27669 0.26517 0.0
C734 C 0.49362 0.4064 0.3599 0.0
C735 C 0.4837 0.38994 0.34415 0.0
C736 C 0.46889 0.344 0.40857 0.0
C737 C 0.44614 0.30709 0.3036 0.0
C738 C 0.45089 0.32566 0.33228 0.0
C739 C 0.47554 0.37852 0.39107 0.0
C740 C 0.46573 0.36062 0.374 0.0
H741 H 0.41338 0.28693 0.20672 0.0
H742 H 0.41812 0.31505 0.27183 0.0
H743 H 0.46473 0.31402 0.41435 0.0
H744 H 0.48851 0.40438 0.51888 0.0
H745 H 0.4712 0.37557 0.49128 0.0
C746 C 0.20919 0.45801 0.12444 0.0
C747 C 0.22533 0.4555 0.1621 0.0
C748 C 0.19234 0.46452 0.15051 0.0
C749 C 0.16725 0.47241 0.30047 0.0
H750 H 0.1418 0.51181 0.20644 0.0
C751 C 0.10885 0.5168 0.41177 0.0
C752 C 0.09204 0.51843 0.37701 0.0
C753 C 0.12527 0.51005 0.38364 0.0
C754 C 0.14868 0.50073 0.23293 0.0
H755 H 0.23609 0.45681 0.25726 0.0
H756 H 0.20674 0.46853 0.30269 0.0
H757 H 0.16964 0.49653 0.16205 0.0
H758 H 0.07946 0.51539 0.28485 0.0
H759 H 0.10835 0.50365 0.23521 0.0
H760 H 0.1464 0.47677 0.37162 0.0
C761 C 0.20708 0.46533 0.25303 0.0
C762 C 0.16456 0.49191 0.20749 0.0
C763 C 0.22395 0.45874 0.22697 0.0
C764 C 0.09226 0.51434 0.31257 0.0
C765 C 0.10876 0.50759 0.28429 0.0
C766 C 0.15143 0.48128 0.32598 0.0
C767 C 0.19125 0.46876 0.21474 0.0
C768 C 0.17403 0.47766 0.24104 0.0
C769 C 0.12524 0.50484 0.32012 0.0
C770 C 0.14204 0.49558 0.29259 0.0
H771 H 0.2098 0.45593 0.07415 0.0
H772 H 0.18029 0.46669 0.11997 0.0
H773 H 0.17406 0.46131 0.32709 0.0
H774 H 0.10914 0.5202 0.46133 0.0
H775 H 0.1379 0.50851 0.41199 0.0
C776 C 0.07121 0.77446 0.08164 0.0
C777 C 0.05495 0.77447 0.11948 0.0
C778 C 0.07322 0.78782 0.0335 0.0
C779 C 0.07804 0.82808 0.98038 0.0
H780 H 0.03485 0.84482 0.88326 0.0
C781 C 0.06383 0.90561 0.92438 0.0
C782 C 0.05389 0.91052 0.86977 0.0
C783 C 0.06776 0.8867 0.93755 0.0
C784 C 0.04725 0.84018 0.90872 0.0
H785 H 0.02766 0.78739 0.13519 0.0
H786 H 0.03102 0.81051 0.05132 0.0
H787 H 0.03373 0.81423 0.93549 0.0
H788 H 0.04154 0.89961 0.78377 0.0
H789 H 0.04837 0.8665 0.80696 0.0
H790 H 0.09125 0.85442 0.95575 0.0
C791 C 0.04223 0.80033 0.0583 0.0
C792 C 0.04652 0.82271 0.93906 0.0
C793 C 0.04036 0.78724 0.10666 0.0
C794 C 0.04889 0.89621 0.82689 0.0
C795 C 0.05285 0.87727 0.84003 0.0
C796 C 0.07877 0.8456 0.95002 0.0
C797 C 0.05882 0.80104 0.02204 0.0
C798 C 0.06155 0.81689 0.97749 0.0
C799 C 0.06187 0.87227 0.89634 0.0
C800 C 0.06304 0.85219 0.9162 0.0
H801 H 0.08261 0.76468 0.09097 0.0
H802 H 0.08615 0.78809 0.00617 0.0
H803 H 0.08983 0.82397 0.00978 0.0
H804 H 0.06771 0.91628 0.95861 0.0
H805 H 0.07446 0.88334 0.98185 0.0
C806 C 0.70503 0.07043 0.22015 0.0
C807 C 0.7228 0.0745 0.19367 0.0
C808 C 0.68849 0.07309 0.18569 0.0
C809 C 0.65403 0.08396 0.11164 0.0
H810 H 0.65693 0.06695 0.93912 0.0
C811 C 0.58639 0.07124 0.9654 0.0
C812 C 0.58632 0.05482 0.92829 0.0
C813 C 0.60325 0.07795 0.99202 0.0
C814 C 0.65583 0.07168 0.9873 0.0
H815 H 0.73713 0.08563 0.11165 0.0
H816 H 0.7081 0.09078 0.05161 0.0
H817 H 0.68585 0.07134 0.99903 0.0
H818 H 0.60377 0.03256 0.88976 0.0
H819 H 0.63298 0.0438 0.93747 0.0
H820 H 0.62397 0.08287 0.10143 0.0
C821 C 0.70699 0.08509 0.09862 0.0
C822 C 0.67249 0.07452 0.02146 0.0
C823 C 0.72361 0.08224 0.13302 0.0
C824 C 0.60345 0.0454 0.91748 0.0
C825 C 0.62023 0.05195 0.94464 0.0
C826 C 0.63737 0.08086 0.07775 0.0
C827 C 0.68925 0.08004 0.12392 0.0
C828 C 0.67179 0.08015 0.08469 0.0
C829 C 0.62036 0.06822 0.98273 0.0
C830 C 0.63804 0.07413 0.01569 0.0
H831 H 0.70393 0.0641 0.2663 0.0
H832 H 0.67519 0.06866 0.2065 0.0
H833 H 0.65295 0.08871 0.15979 0.0
H834 H 0.57338 0.07887 0.97388 0.0
H835 H 0.60283 0.09068 0.02022 0.0
C836 C 0.44439 0.72594 0.09317 0.0
C837 C 0.43207 0.73171 0.14121 0.0
C838 C 0.44078 0.70942 0.05933 0.0
C839 C 0.41899 0.66334 0.0824 0.0
H840 H 0.43408 0.65609 0.90921 0.0
C841 C 0.45046 0.59429 0.99076 0.0
C842 C 0.44665 0.58841 0.92903 0.0
C843 C 0.44328 0.61133 0.01335 0.0
C844 C 0.42945 0.65786 0.95727 0.0
H845 H 0.40554 0.72528 0.18817 0.0
H846 H 0.3994 0.69615 0.12945 0.0
H847 H 0.43058 0.68807 0.95039 0.0
H848 H 0.43142 0.59537 0.84377 0.0
H849 H 0.41909 0.62534 0.88315 0.0
H850 H 0.41847 0.63313 0.08986 0.0
C851 C 0.41194 0.70443 0.11853 0.0
C852 C 0.42761 0.67618 0.98098 0.0
C853 C 0.41549 0.72107 0.15222 0.0
C854 C 0.4349 0.59965 0.89119 0.0
C855 C 0.42778 0.61677 0.91375 0.0
C856 C 0.42088 0.64502 0.05874 0.0
C857 C 0.42482 0.69819 0.07286 0.0
C858 C 0.423 0.67911 0.04436 0.0
C859 C 0.43217 0.62294 0.97473 0.0
C860 C 0.42677 0.64209 0.99655 0.0
H861 H 0.45747 0.73353 0.08402 0.0
H862 H 0.45115 0.70487 0.02518 0.0
H863 H 0.41553 0.6651 0.13153 0.0
H864 H 0.4597 0.58617 0.02089 0.0
H865 H 0.44721 0.61583 0.06018 0.0
C866 C 0.79887 0.43875 0.22692 0.0
C867 C 0.78287 0.44279 0.19007 0.0
C868 C 0.81631 0.43504 0.19891 0.0
C869 C 0.84044 0.42706 0.04483 0.0
H870 H 0.88169 0.45351 0.12789 0.0
C871 C 0.90829 0.45391 0.92091 0.0
C872 C 0.92562 0.45223 0.953 0.0
C873 C 0.89132 0.44854 0.94965 0.0
C874 C 0.87042 0.44577 0.10458 0.0
H875 H 0.77247 0.44441 0.09441 0.0
H876 H 0.80305 0.43903 0.04571 0.0
H877 H 0.85107 0.45133 0.17887 0.0
H878 H 0.93869 0.44254 0.03925 0.0
H879 H 0.90896 0.43362 0.08989 0.0
H880 H 0.85982 0.4225 0.96889 0.0
C881 C 0.8021 0.43843 0.09635 0.0
C882 C 0.85282 0.44443 0.13392 0.0
C883 C 0.78455 0.44181 0.12438 0.0
C884 C 0.92559 0.44441 0.01368 0.0
C885 C 0.90859 0.4392 0.04259 0.0
C886 C 0.85804 0.42861 0.01509 0.0
C887 C 0.81834 0.43564 0.13335 0.0
C888 C 0.8375 0.43526 0.10419 0.0
C889 C 0.89127 0.44152 0.01125 0.0
C890 C 0.87312 0.43819 0.04445 0.0
H891 H 0.7983 0.43948 0.27759 0.0
H892 H 0.82839 0.43245 0.22893 0.0
H893 H 0.82908 0.41965 0.02091 0.0
H894 H 0.90772 0.46011 0.8745 0.0
H895 H 0.87814 0.4507 0.92469 0.0
C896 C 0.02527 0.21737 0.836 0.0
C897 C 0.02041 0.22257 0.89777 0.0
C898 C 0.02258 0.19878 0.81454 0.0
C899 C 0.01441 0.14954 0.8755 0.0
H900 H 0.00764 0.13813 0.69918 0.0
C901 C 0.01902 0.07253 0.78619 0.0
C902 C 0.00798 0.06692 0.73453 0.0
C903 C 0.02021 0.09159 0.80394 0.0
C904 C 0.00926 0.14095 0.7488 0.0
H905 H 0.00805 0.21184 0.98419 0.0
H906 H 1.00212 0.18018 0.94562 0.0
H907 H 0.00852 0.17086 0.7336 0.0
H908 H 0.98948 0.07707 0.66108 0.0
H909 H 0.99082 0.11011 0.6932 0.0
H910 H 0.01409 0.11973 0.89133 0.0
C911 C 0.00882 0.19024 0.91428 0.0
C912 C 0.0101 0.15989 0.76858 0.0
C913 C 0.01186 0.20871 0.93616 0.0
C914 C 0.99821 0.0809 0.70086 0.0
C915 C 0.9991 0.09995 0.71926 0.0
C916 C 0.01321 0.13065 0.85592 0.0
C917 C 0.01456 0.18478 0.85362 0.0
C918 C 0.01285 0.16453 0.83228 0.0
C919 C 0.01007 0.10564 0.77136 0.0
C920 C 0.01083 0.12598 0.79215 0.0
H921 H 0.03148 0.22758 0.80411 0.0
H922 H 0.02736 0.19534 0.76772 0.0
H923 H 0.01688 0.15227 0.92477 0.0
H924 H 0.02693 0.06218 0.81278 0.0
H925 H 0.02926 0.09525 0.84312 0.0
C926 C 0.29377 0.0387 0.83433 0.0
C927 C 0.28506 0.0242 0.86947 0.0
C928 C 0.31245 0.03693 0.81356 0.0
C929 C 0.34997 0.00265 0.77851 0.0
H930 H 0.38382 0.04535 0.80576 0.0
C931 C 0.42561 0.00699 0.67243 0.0
C932 C 0.4402 0.01262 0.71356 0.0
C933 C 0.40659 0.00834 0.69038 0.0
C934 C 0.37456 0.03329 0.79796 0.0
H935 H 0.28911 0.99628 0.90901 0.0
H936 H 0.32179 0.99308 0.87184 0.0
H937 H 0.35075 0.04735 0.83866 0.0
H938 H 0.44607 0.02448 0.80546 0.0
H939 H 0.41289 0.02711 0.83624 0.0
H940 H 0.37383 0.98862 0.73763 0.0
C941 C 0.31408 0.00583 0.86058 0.0
C942 C 0.35558 0.03448 0.81635 0.0
C943 C 0.29541 0.00769 0.8821 0.0
C944 C 0.43524 0.02 0.77257 0.0
C945 C 0.41621 0.02157 0.79018 0.0
C946 C 0.36892 1.00155 0.75932 0.0
C947 C 0.3229 0.02056 0.82685 0.0
C948 C 0.34307 0.01917 0.80698 0.0
C949 C 0.40167 0.01559 0.74955 0.0
C950 C 0.38145 0.01684 0.76903 0.0
H951 H 0.28633 0.05172 0.82454 0.0
H952 H 0.31877 0.04846 0.78723 0.0
H953 H 0.34066 0.99066 0.77036 0.0
H954 H 0.42886 1.00123 0.6266 0.0
H955 H 0.39571 0.00382 0.65775 0.0
C956 C 0.48259 0.29601 0.82088 0.0
C957 C 0.48494 0.29148 0.88479 0.0
C958 C 0.48495 0.31463 0.7994 0.0
C959 C 0.4878 0.36463 0.85946 0.0
H960 H 0.50178 0.37526 0.68738 0.0
C961 C 0.48634 0.44121 0.76484 0.0
C962 C 0.49931 0.44655 0.7181 0.0
C963 C 0.48441 0.42222 0.78274 0.0
C964 C 0.49813 0.37269 0.73594 0.0
H965 H 0.49231 0.30354 0.9755 0.0
H966 H 0.49794 0.33521 0.93752 0.0
H967 H 0.50058 0.34279 0.72357 0.0
H968 H 0.52054 0.43613 0.65371 0.0
H969 H 0.51798 0.4033 0.68679 0.0
H970 H 0.48658 0.39449 0.87316 0.0
C971 C 0.49339 0.3246 0.90407 0.0
C972 C 0.49708 0.35386 0.75657 0.0
C973 C 0.49058 0.3061 0.92582 0.0
C974 C 0.51028 0.43246 0.6895 0.0
C975 C 0.50869 0.41352 0.70838 0.0
C976 C 0.48928 0.38343 0.83928 0.0
C977 C 0.49018 0.32932 0.84077 0.0
C978 C 0.4918 0.34948 0.81867 0.0
C979 C 0.49576 0.40805 0.75555 0.0
C980 C 0.49434 0.38783 0.77703 0.0
H981 H 0.47868 0.28525 0.78711 0.0
H982 H 0.48214 0.31749 0.75043 0.0
H983 H 0.48327 0.3621 0.90722 0.0
H984 H 0.47751 0.4517 0.78729 0.0
H985 H 0.47389 0.41873 0.81781 0.0
C986 C 0.21415 0.50836 0.87194 0.0
C987 C 0.22285 0.49052 0.86879 0.0
C988 C 0.19514 0.51057 0.85424 0.0
C989 C 0.15048 0.48333 0.83672 0.0
H990 H 0.134 0.52587 0.73626 0.0
C991 C 0.07106 0.49884 0.79064 0.0
C992 C 0.06601 0.504 0.72918 0.0
C993 C 0.09015 0.49759 0.80822 0.0
C994 C 0.13838 0.51386 0.76415 0.0
H995 H 0.21814 0.461 0.84512 0.0
H996 H 0.18525 0.46489 0.81393 0.0
H997 H 0.16742 0.52304 0.76482 0.0
H998 H 0.07724 0.51197 0.63809 0.0
H999 H 0.11042 0.5098 0.66881 0.0
H1000 H 0.12154 0.47405 0.8357 0.0
C1001 C 0.19307 0.47719 0.8301 0.0
C1002 C 0.15751 0.51234 0.78102 0.0
C1003 C 0.21206 0.47502 0.84722 0.0
C1004 C 0.08055 0.50794 0.68585 0.0
C1005 C 0.09962 0.50683 0.70357 0.0
C1006 C 0.13135 0.48494 0.82034 0.0
C1007 C 0.18429 0.49495 0.83377 0.0
C1008 C 0.16384 0.49697 0.81714 0.0
C1009 C 0.10469 0.50161 0.76496 0.0
C1010 C 0.12504 0.50016 0.78353 0.0
H1011 H 0.22203 0.52061 0.88826 0.0
H1012 H 0.18879 0.52444 0.85799 0.0
H1013 H 0.1548 0.47142 0.86515 0.0
H1014 H 0.06027 0.49575 0.82532 0.0
H1015 H 0.09352 0.4937 0.85605 0.0
C1016 C 0.02449 0.80531 0.48828 0.0
C1017 C 0.00883 0.79323 0.479 0.0
C1018 C 0.02197 0.82418 0.50576 0.0
C1019 C 0.98965 0.85719 0.58203 0.0
H1020 H 0.01783 0.89538 0.48963 0.0
C1021 C 0.99978 0.93493 0.66669 0.0
C1022 C 0.99775 0.94927 0.62147 0.0
C1023 C 0.99955 0.91582 0.64917 0.0
C1024 C 0.00977 0.88491 0.51566 0.0
H1025 H 0.97821 0.79149 0.48159 0.0
H1026 H 0.97379 0.82461 0.51358 0.0
H1027 H 0.02032 0.86213 0.45959 0.0
H1028 H 0.99368 0.95465 0.52221 0.0
H1029 H 0.99352 0.92134 0.49165 0.0
H1030 H 0.97939 0.88003 0.63887 0.0
C1031 C 0.98802 0.81935 0.507 0.0
C1032 C 0.0113 0.86586 0.49874 0.0
C1033 C 0.99053 0.80045 0.48848 0.0
C1034 C 0.99527 0.94401 0.55834 0.0
C1035 C 0.99527 0.92492 0.54073 0.0
C1036 C 0.98834 0.87627 0.59961 0.0
C1037 C 0.00374 0.83147 0.51504 0.0
C1038 C 1.00134 0.85176 0.53186 0.0
C1039 C 0.99751 0.91059 0.58587 0.0
C1040 C 0.99842 0.89034 0.56665 0.0
H1041 H 0.03876 0.80031 0.48043 0.0
H1042 H 0.03436 0.83311 0.51204 0.0
H1043 H 0.98188 0.84663 0.60859 0.0
H1044 H 1.00161 0.93843 0.7157 0.0
H1045 H 1.00147 0.90513 0.68501 0.0
C1046 C 0.70545 0.0047 0.49601 0.0
C1047 C 0.71103 0.99619 0.43927 0.0
C1048 C 0.68682 0.00314 0.51752 0.0
C1049 C 0.64097 0.97739 0.49383 0.0
H1050 H 0.62047 0.02266 0.57023 0.0
C1051 C 0.56059 0.98901 0.54077 0.0
C1052 C 0.55579 0.99675 0.59946 0.0
C1053 C 0.57957 0.98775 0.52212 0.0
C1054 C 0.62602 0.00984 0.54952 0.0
H1055 H 0.70122 0.97845 0.36256 0.0
H1056 H 0.66857 0.9764 0.39874 0.0
H1057 H 0.65334 0.02231 0.53667 0.0
H1058 H 0.56736 0.00905 0.68469 0.0
H1059 H 0.60029 0.00704 0.65184 0.0
H1060 H 0.61326 0.9652 0.50547 0.0
C1061 C 0.67873 0.9841 0.42713 0.0
C1062 C 0.64494 0.00958 0.53047 0.0
C1063 C 0.69748 0.98547 0.4059 0.0
C1064 C 0.57045 0.00305 0.63913 0.0
C1065 C 0.58937 1.00198 0.62021 0.0
C1066 C 0.62193 0.97774 0.51237 0.0
C1067 C 0.67305 0.99326 0.4826 0.0
C1068 C 0.65277 0.99332 0.50275 0.0
C1069 C 0.59415 0.9944 0.5614 0.0
C1070 C 0.61428 0.99394 0.54077 0.0
H1071 H 0.71525 0.0133 0.5229 0.0
H1072 H 0.68317 0.01002 0.56121 0.0
H1073 H 0.64649 0.96455 0.47332 0.0
H1074 H 0.54969 0.98396 0.50907 0.0
H1075 H 0.5828 0.98196 0.47635 0.0
C1076 C 0.50831 0.71216 0.48654 0.0
C1077 C 0.5037 0.71586 0.42346 0.0
C1078 C 0.51045 0.69355 0.50802 0.0
C1079 C 0.49731 0.64405 0.46447 0.0
H1080 H 0.53185 0.63083 0.59861 0.0
C1081 C 0.51156 0.56659 0.53573 0.0
C1082 C 0.51082 0.56244 0.60022 0.0
C1083 C 0.5115 0.58534 0.51472 0.0
C1084 C 0.52206 0.63436 0.56136 0.0
H1085 H 0.49832 0.70249 0.33334 0.0
H1086 H 0.5031 0.67043 0.36972 0.0
H1087 H 0.53109 0.66334 0.55975 0.0
H1088 H 0.50975 0.57489 0.69322 0.0
H1089 H 0.50991 0.60766 0.65632 0.0
H1090 H 0.48858 0.61496 0.46541 0.0
C1091 C 0.50448 0.68186 0.4033 0.0
C1092 C 0.52156 0.65302 0.53913 0.0
C1093 C 0.5021 0.7004 0.38203 0.0
C1094 C 0.51031 0.57755 0.64322 0.0
C1095 C 0.5105 0.59633 0.62215 0.0
C1096 C 0.498 0.62539 0.48613 0.0
C1097 C 0.50825 0.67809 0.46689 0.0
C1098 C 0.50915 0.65815 0.49032 0.0
C1099 C 0.51093 0.60043 0.55763 0.0
C1100 C 0.51035 0.62032 0.53484 0.0
H1101 H 0.50997 0.72362 0.51981 0.0
H1102 H 0.51324 0.69132 0.55738 0.0
H1103 H 0.4872 0.64743 0.42804 0.0
H1104 H 0.51192 0.55535 0.50122 0.0
H1105 H 0.512 0.58805 0.46473 0.0
C1106 C 0.80753 0.53057 0.42527 0.0
C1107 C 0.79395 0.51846 0.45271 0.0
C1108 C 0.82606 0.53155 0.44882 0.0
C1109 C 0.85973 0.50345 0.54512 0.0
H1110 H 0.88997 0.54943 0.54242 0.0
C1111 C 0.93349 0.50778 0.66152 0.0
C1112 C 0.94806 0.51638 0.62647 0.0
C1113 C 0.91461 0.50898 0.64202 0.0
C1114 C 0.88173 0.53645 0.54308 0.0
H1115 H 0.78947 0.49821 0.52808 0.0
H1116 H 0.82117 0.50066 0.57056 0.0
H1117 H 0.85708 0.5502 0.5068 0.0
H1118 H 0.95404 0.53335 0.54392 0.0
H1119 H 0.92106 0.53553 0.51023 0.0
H1120 H 0.8843 0.48976 0.5819 0.0
C1121 C 0.81771 0.50906 0.52972 0.0
C1122 C 0.86287 0.53686 0.52251 0.0
C1123 C 0.79929 0.50794 0.5059 0.0
C1124 C 0.94321 0.52653 0.57205 0.0
C1125 C 0.92428 0.52788 0.55288 0.0
C1126 C 0.87848 0.50309 0.56613 0.0
C1127 C 0.83151 0.52053 0.50074 0.0
C1128 C 0.85158 0.52035 0.52326 0.0
C1129 C 0.90977 0.51895 0.58728 0.0
C1130 C 0.88973 0.51956 0.56537 0.0
H1131 H 0.80397 0.5391 0.38483 0.0
H1132 H 0.83626 0.5405 0.42494 0.0
H1133 H 0.85174 0.49033 0.54503 0.0
H1134 H 0.93666 0.49984 0.70365 0.0
H1135 H 0.90375 0.50212 0.66998 0.0
loop_
_geom_bond_atom_site_label_1
_geom_bond_atom_site_label_2
_geom_bond_distance
_geom_bond_site_symmetry_2
_ccdc_geom_bond_type
P0 O11 1.490 . S
P0 C14 1.812 . S
P0 C20 1.803 . S
P0 C26 1.819 . S
H1 C15 0.941 . S
H2 C16 0.939 . S
H3 C18 0.940 . S
H4 C19 0.940 . S
H5 C21 0.939 . S
H6 C22 0.942 . S
H7 C24 0.940 . S
H8 C25 0.939 . S
H9 C27 0.941 . S
H10 C31 0.939 . S
O11 P0 1.490 . S
H12 C28 0.939 . S
H13 C30 0.940 . S
C14 P0 1.812 . S
C14 C15 1.389 . S
C14 C19 1.391 . S
C15 H1 0.941 . S
C15 C14 1.389 . S
C15 C16 1.397 . S
C16 H2 0.939 . S
C16 C15 1.397 . S
C16 C17 1.378 . S
C17 C16 1.378 . S
C17 C18 1.378 . S
C18 H3 0.940 . S
C18 C17 1.378 . S
C18 C19 1.396 . S
C19 H4 0.940 . S
C19 C14 1.391 . S
C19 C18 1.396 . S
C20 P0 1.803 . S
C20 C21 1.378 . S
C20 C25 1.400 . S
C21 H5 0.939 . S
C21 C20 1.378 . S
C21 C22 1.361 . S
C22 H6 0.942 . S
C22 C21 1.361 . S
C22 C23 1.369 . S
C23 C22 1.369 . S
C23 C24 1.404 . S
C24 H7 0.940 . S
C24 C23 1.404 . S
C24 C25 1.389 . S
C25 H8 0.939 . S
C25 C20 1.400 . S
C25 C24 1.389 . S
C26 P0 1.819 . S
C26 C27 1.391 . S
C26 C31 1.391 . S
C27 H9 0.941 . S
C27 C26 1.391 . S
C27 C28 1.396 . S
C28 H12 0.939 . S
C28 C27 1.396 . S
C28 C29 1.397 . S
C29 C28 1.397 . S
C29 C30 1.385 . S
C30 H13 0.940 . S
C30 C29 1.385 . S
C30 C31 1.388 . S
C31 H10 0.939 . S
C31 C26 1.391 . S
C31 C30 1.388 . S
P32 O43 1.490 . S
P32 C46 1.812 . S
P32 C52 1.803 . S
P32 C58 1.819 . S
H33 C47 0.941 . S
H34 C48 0.939 . S
H35 C50 0.940 . S
H36 C51 0.950 . S
H37 C53 0.939 . S
H38 C54 0.942 . S
H39 C56 0.940 . S
H40 C57 0.959 . S
H41 C59 0.941 . S
H42 C63 0.929 1_655 S
O43 P32 1.490 . S
H44 C60 0.939 . S
H45 C62 0.940 . S
C46 P32 1.812 . S
C46 C47 1.389 . S
C46 C51 1.375 1_455 S
C47 H33 0.941 . S
C47 C46 1.389 . S
C47 C48 1.397 . S
C48 H34 0.939 . S
C48 C47 1.397 . S
C48 C49 1.378 . S
C49 C48 1.378 . S
C49 C50 1.378 1_455 S
C50 H35 0.940 . S
C50 C49 1.378 1_655 S
C50 C51 1.403 . S
C51 H36 0.950 . S
C51 C46 1.375 1_655 S
C51 C50 1.403 . S
C52 P32 1.803 . S
C52 C53 1.378 . S
C52 C57 1.368 1_455 S
C53 H37 0.939 . S
C53 C52 1.378 . S
C53 C54 1.361 . S
C54 H38 0.942 . S
C54 C53 1.361 . S
C54 C55 1.369 . S
C55 C54 1.369 . S
C55 C56 1.404 1_455 S
C56 H39 0.940 . S
C56 C55 1.404 1_655 S
C56 C57 1.402 . S
C57 H40 0.959 . S
C57 C52 1.368 1_655 S
C57 C56 1.402 . S
C58 P32 1.819 . S
C58 C59 1.391 . S
C58 C63 1.391 . S
C59 H41 0.941 . S
C59 C58 1.391 . S
C59 C60 1.396 . S
C60 H44 0.939 . S
C60 C59 1.396 . S
C60 C61 1.397 . S
C61 C60 1.397 . S
C61 C62 1.385 1_455 S
C62 H45 0.940 . S
C62 C61 1.385 1_655 S
C62 C63 1.388 1_655 S
C63 H42 0.929 1_455 S
C63 C58 1.391 . S
C63 C62 1.388 1_455 S
P64 O75 1.490 . S
P64 C78 1.812 . S
P64 C84 1.803 . S
P64 C90 1.819 . S
H65 C79 0.941 . S
H66 C80 0.939 . S
H67 C82 0.940 . S
H68 C83 0.940 . S
H69 C85 0.939 . S
H70 C86 0.942 . S
H71 C88 0.940 . S
H72 C89 0.939 . S
H73 C91 0.941 . S
H74 C95 0.939 . S
O75 P64 1.490 . S
H76 C92 0.939 . S
H77 C94 0.940 . S
C78 P64 1.812 . S
C78 C79 1.389 . S
C78 C83 1.391 1_545 S
C79 H65 0.941 . S
C79 C78 1.389 . S
C79 C80 1.397 . S
C80 H66 0.939 . S
C80 C79 1.397 . S
C80 C81 1.378 1_545 S
C81 C80 1.378 1_565 S
C81 C82 1.378 . S
C82 H67 0.940 . S
C82 C81 1.378 . S
C82 C83 1.396 . S
C83 H68 0.940 . S
C83 C78 1.391 1_565 S
C83 C82 1.396 . S
C84 P64 1.803 . S
C84 C85 1.378 . S
C84 C89 1.400 1_545 S
C85 H69 0.939 . S
C85 C84 1.378 . S
C85 C86 1.361 . S
C86 H70 0.942 . S
C86 C85 1.361 . S
C86 C87 1.369 1_545 S
C87 C86 1.369 1_565 S
C87 C88 1.404 . S
C88 H71 0.940 . S
C88 C87 1.404 . S
C88 C89 1.389 . S
C89 H72 0.939 . S
C89 C84 1.400 1_565 S
C89 C88 1.389 . S
C90 P64 1.819 . S
C90 C91 1.391 . S
C90 C95 1.391 1_545 S
C91 H73 0.941 . S
C91 C90 1.391 . S
C91 C92 1.396 . S
C92 H76 0.939 . S
C92 C91 1.396 . S
C92 C93 1.397 1_545 S
C93 C92 1.397 1_565 S
C93 C94 1.385 . S
C94 H77 0.940 . S
C94 C93 1.385 . S
C94 C95 1.388 . S
C95 H74 0.939 . S
C95 C90 1.391 1_565 S
C95 C94 1.388 . S
P96 O107 1.490 . S
P96 C110 1.812 . S
P96 C116 1.803 . S
P96 C122 1.819 . S
H97 C111 0.941 . S
H98 C112 0.939 . S
H99 C114 0.940 . S
H100 C115 0.940 . S
H101 C117 0.939 . S
H102 C118 0.942 . S
H103 C120 0.940 . S
H104 C121 0.939 . S
H105 C123 0.941 . S
H106 C127 0.939 . S
O107 P96 1.490 . S
H108 C124 0.939 . S
H109 C126 0.940 . S
C110 P96 1.812 . S
C110 C111 1.389 . S
C110 C115 1.391 . S
C111 H97 0.941 . S
C111 C110 1.389 . S
C111 C112 1.397 . S
C112 H98 0.939 . S
C112 C111 1.397 . S
C112 C113 1.378 . S
C113 C112 1.378 . S
C113 C114 1.378 . S
C114 H99 0.940 . S
C114 C113 1.378 . S
C114 C115 1.396 . S
C115 H100 0.940 . S
C115 C110 1.391 . S
C115 C114 1.396 . S
C116 P96 1.803 . S
C116 C117 1.378 . S
C116 C121 1.400 . S
C117 H101 0.939 . S
C117 C116 1.378 . S
C117 C118 1.361 . S
C118 H102 0.942 . S
C118 C117 1.361 . S
C118 C119 1.369 . S
C119 C118 1.369 . S
C119 C120 1.404 . S
C120 H103 0.940 . S
C120 C119 1.404 . S
C120 C121 1.389 . S
C121 H104 0.939 . S
C121 C116 1.400 . S
C121 C120 1.389 . S
C122 P96 1.819 . S
C122 C123 1.391 . S
C122 C127 1.391 . S
C123 H105 0.941 . S
C123 C122 1.391 . S
C123 C124 1.396 . S
C124 H108 0.939 . S
C124 C123 1.396 . S
C124 C125 1.397 . S
C125 C124 1.397 . S
C125 C126 1.385 . S
C126 H109 0.940 . S
C126 C125 1.385 . S
C126 C127 1.388 . S
C127 H106 0.939 . S
C127 C122 1.391 . S
C127 C126 1.388 . S
P128 O139 1.490 . S
P128 C142 1.812 1_554 S
P128 C148 1.803 . S
P128 C154 1.819 . S
H129 C143 0.941 . S
H130 C144 0.939 . S
H131 C146 0.940 . S
H132 C147 0.940 . S
H133 C149 0.939 . S
H134 C150 0.942 . S
H135 C152 0.940 . S
H136 C153 0.939 . S
H137 C155 0.941 . S
H138 C159 0.939 . S
O139 P128 1.490 . S
H140 C156 0.939 . S
H141 C158 0.940 . S
C142 P128 1.812 1_556 S
C142 C143 1.389 . S
C142 C147 1.391 . S
C143 H129 0.941 . S
C143 C142 1.389 . S
C143 C144 1.397 . S
C144 H130 0.939 . S
C144 C143 1.397 . S
C144 C145 1.378 . S
C145 C144 1.378 . S
C145 C146 1.378 . S
C146 H131 0.940 . S
C146 C145 1.378 . S
C146 C147 1.396 . S
C147 H132 0.940 . S
C147 C142 1.391 . S
C147 C146 1.396 . S
C148 P128 1.803 . S
C148 C149 1.378 . S
C148 C153 1.400 . S
C149 H133 0.939 . S
C149 C148 1.378 . S
C149 C150 1.361 . S
C150 H134 0.942 . S
C150 C149 1.361 . S
C150 C151 1.369 . S
C151 C150 1.369 . S
C151 C152 1.404 . S
C152 H135 0.940 . S
C152 C151 1.404 . S
C152 C153 1.389 . S
C153 H136 0.939 . S
C153 C148 1.400 . S
C153 C152 1.389 . S
C154 P128 1.819 . S
C154 C155 1.391 . S
C154 C159 1.391 . S
C155 H137 0.941 . S
C155 C154 1.391 . S
C155 C156 1.396 . S
C156 H140 0.939 . S
C156 C155 1.396 . S
C156 C157 1.397 . S
C157 C156 1.397 . S
C157 C158 1.385 . S
C158 H141 0.940 . S
C158 C157 1.385 . S
C158 C159 1.388 . S
C159 H138 0.939 . S
C159 C154 1.391 . S
C159 C158 1.388 . S
P160 O171 1.490 . S
P160 C174 1.812 1_554 S
P160 C180 1.803 . S
P160 C186 1.819 . S
H161 C175 0.941 . S
H162 C176 0.939 . S
H163 C178 0.940 . S
H164 C179 0.942 . S
H165 C181 0.939 . S
H166 C182 0.942 . S
H167 C184 0.940 . S
H168 C185 0.951 . S
H169 C187 0.941 . S
H170 C191 0.934 1_655 S
O171 P160 1.490 . S
H172 C188 0.939 . S
H173 C190 0.940 . S
C174 P160 1.812 1_556 S
C174 C175 1.389 . S
C174 C179 1.388 1_455 S
C175 H161 0.941 . S
C175 C174 1.389 . S
C175 C176 1.397 . S
C176 H162 0.939 . S
C176 C175 1.397 . S
C176 C177 1.378 . S
C177 C176 1.378 . S
C177 C178 1.378 1_455 S
C178 H163 0.940 . S
C178 C177 1.378 1_655 S
C178 C179 1.398 . S
C179 H164 0.942 . S
C179 C174 1.388 1_655 S
C179 C178 1.398 . S
C180 P160 1.803 . S
C180 C181 1.378 . S
C180 C185 1.381 1_455 S
C181 H165 0.939 . S
C181 C180 1.378 . S
C181 C182 1.361 . S
C182 H166 0.942 . S
C182 C181 1.361 . S
C182 C183 1.369 . S
C183 C182 1.369 . S
C183 C184 1.404 1_455 S
C184 H167 0.940 . S
C184 C183 1.404 1_655 S
C184 C185 1.397 . S
C185 H168 0.951 . S
C185 C180 1.381 1_655 S
C185 C184 1.397 . S
C186 P160 1.819 . S
C186 C187 1.391 . S
C186 C191 1.391 . S
C187 H169 0.941 . S
C187 C186 1.391 . S
C187 C188 1.396 . S
C188 H172 0.939 . S
C188 C187 1.396 . S
C188 C189 1.397 . S
C189 C188 1.397 . S
C189 C190 1.385 1_455 S
C190 H173 0.940 . S
C190 C189 1.385 1_655 S
C190 C191 1.388 1_655 S
C191 H170 0.934 1_455 S
C191 C186 1.391 . S
C191 C190 1.388 1_455 S
P192 O203 1.490 . S
P192 C206 1.812 1_554 S
P192 C212 1.803 . S
P192 C218 1.819 . S
H193 C207 0.941 . S
H194 C208 0.939 . S
H195 C210 0.940 . S
H196 C211 0.940 . S
H197 C213 0.939 . S
H198 C214 0.942 . S
H199 C216 0.984 . S
H200 C217 0.939 . S
H201 C219 0.941 . S
H202 C223 0.939 . S
O203 P192 1.490 . S
H204 C220 0.939 . S
H205 C222 0.940 . S
C206 P192 1.812 1_556 S
C206 C207 1.389 . S
C206 C211 1.391 . S
C207 H193 0.941 . S
C207 C206 1.389 . S
C207 C208 1.397 . S
C208 H194 0.939 . S
C208 C207 1.397 . S
C208 C209 1.378 . S
C209 C208 1.378 . S
C209 C210 1.378 . S
C210 H195 0.940 . S
C210 C209 1.378 . S
C210 C211 1.396 . S
C211 H196 0.940 . S
C211 C206 1.391 . S
C211 C210 1.396 . S
C212 P192 1.803 . S
C212 C213 1.378 . S
C212 C217 1.400 . S
C213 H197 0.939 . S
C213 C212 1.378 . S
C213 C214 1.361 . S
C214 H198 0.942 . S
C214 C213 1.361 . S
C214 C215 1.369 . S
C215 C214 1.369 . S
C215 C216 1.404 . S
C216 H199 0.984 . S
C216 C215 1.404 . S
C216 C217 1.389 . S
C217 H200 0.939 . S
C217 C212 1.400 . S
C217 C216 1.389 . S
C218 P192 1.819 . S
C218 C219 1.391 . S
C218 C223 1.391 . S
C219 H201 0.941 . S
C219 C218 1.391 . S
C219 C220 1.396 . S
C220 H204 0.939 . S
C220 C219 1.396 . S
C220 C221 1.397 . S
C221 C220 1.397 . S
C221 C222 1.385 . S
C222 H205 0.940 . S
C222 C221 1.385 . S
C222 C223 1.388 . S
C223 H202 0.939 . S
C223 C218 1.391 . S
C223 C222 1.388 . S
P224 O235 1.490 . S
P224 C238 1.812 1_554 S
P224 C244 1.803 . S
P224 C250 1.819 . S
H225 C239 0.941 . S
H226 C240 0.939 . S
H227 C242 0.940 . S
H228 C243 0.940 . S
H229 C245 0.939 . S
H230 C246 0.942 . S
H231 C248 0.940 . S
H232 C249 0.939 . S
H233 C251 0.941 . S
H234 C255 0.939 . S
O235 P224 1.490 . S
H236 C252 0.939 . S
H237 C254 0.940 . S
C238 P224 1.812 1_556 S
C238 C239 1.389 . S
C238 C243 1.391 . S
C239 H225 0.941 . S
C239 C238 1.389 . S
C239 C240 1.397 . S
C240 H226 0.939 . S
C240 C239 1.397 . S
C240 C241 1.378 . S
C241 C240 1.378 . S
C241 C242 1.378 . S
C242 H227 0.940 . S
C242 C241 1.378 . S
C242 C243 1.396 . S
C243 H228 0.940 . S
C243 C238 1.391 . S
C243 C242 1.396 . S
C244 P224 1.803 . S
C244 C245 1.378 . S
C244 C249 1.400 . S
C245 H229 0.939 . S
C245 C244 1.378 . S
C245 C246 1.361 . S
C246 H230 0.942 . S
C246 C245 1.361 . S
C246 C247 1.369 . S
C247 C246 1.369 . S
C247 C248 1.404 . S
C248 H231 0.940 . S
C248 C247 1.404 . S
C248 C249 1.389 . S
C249 H232 0.939 . S
C249 C244 1.400 . S
C249 C248 1.389 . S
C250 P224 1.819 . S
C250 C251 1.391 . S
C250 C255 1.391 . S
C251 H233 0.941 . S
C251 C250 1.391 . S
C251 C252 1.396 . S
C252 H236 0.939 . S
C252 C251 1.396 . S
C252 C253 1.397 . S
C253 C252 1.397 . S
C253 C254 1.385 . S
C254 H237 0.940 . S
C254 C253 1.385 . S
C254 C255 1.388 . S
C255 H234 0.939 . S
C255 C250 1.391 . S
C255 C254 1.388 . S
Gd256 C259 2.818 . S
Gd256 O276 2.377 . S
Gd256 O278 2.448 . S
Gd256 O279 2.506 . S
Gd256 O280 2.435 . S
Gd256 O281 2.717 1_565 S
Gd256 O283 2.395 1_565 S
Gd256 O287 2.328 1_465 S
Gd257 C268 2.818 . S
Gd257 O277 2.395 1_545 S
Gd257 O281 2.327 1_655 S
Gd257 O282 2.377 . S
Gd257 O284 2.448 . S
Gd257 O285 2.506 . S
Gd257 O286 2.435 . S
Gd257 O287 2.716 . S
C258 O276 1.240 1_655 S
C258 O277 1.240 . S
C259 Gd256 2.818 . S
C259 C260 1.510 . S
C259 O278 1.249 . S
C259 O279 1.252 . S
C260 C259 1.510 . S
C260 C261 1.404 . S
C260 C262 1.352 . S
C261 C260 1.404 . S
C261 C265 1.389 . S
C261 H288 0.930 . S
C262 C260 1.352 . S
C262 C264 1.374 . S
C262 H289 0.931 1_455 S
C263 C264 1.359 . S
C263 C265 1.364 . S
C264 C262 1.374 . S
C264 C263 1.359 . S
C264 H290 0.931 1_455 S
C265 C261 1.389 . S
C265 C263 1.364 . S
C265 H291 0.931 . S
C266 O280 1.256 1_545 S
C266 O281 1.257 . S
C267 O282 1.240 1_455 S
C267 O283 1.240 . S
C268 Gd257 2.818 . S
C268 C269 1.510 . S
C268 O284 1.249 . S
C268 O285 1.252 . S
C269 C268 1.510 . S
C269 C270 1.404 . S
C269 C271 1.352 . S
C270 C269 1.404 . S
C270 C274 1.389 . S
C270 H292 0.930 . S
C271 C269 1.352 . S
C271 C273 1.374 . S
C271 H293 0.931 1_655 S
C272 C273 1.359 . S
C272 C274 1.364 . S
C273 C271 1.374 . S
C273 C272 1.359 . S
C273 H294 0.931 1_655 S
C274 C270 1.389 . S
C274 C272 1.364 . S
C274 H295 0.931 . S
C275 O286 1.256 . S
C275 O287 1.257 . S
O276 Gd256 2.377 . S
O276 C258 1.240 1_455 S
O277 Gd257 2.395 1_565 S
O277 C258 1.240 . S
O278 Gd256 2.448 . S
O278 C259 1.249 . S
O279 Gd256 2.506 . S
O279 C259 1.252 . S
O280 Gd256 2.435 . S
O280 C266 1.256 1_565 S
O281 Gd256 2.717 1_545 S
O281 Gd257 2.327 1_455 S
O281 C266 1.257 . S
O282 Gd257 2.377 . S
O282 C267 1.240 1_655 S
O283 Gd256 2.395 1_545 S
O283 C267 1.240 . S
O284 Gd257 2.448 . S
O284 C268 1.249 . S
O285 Gd257 2.506 . S
O285 C268 1.252 . S
O286 Gd257 2.435 . S
O286 C275 1.256 . S
O287 Gd256 2.328 1_645 S
O287 Gd257 2.716 . S
O287 C275 1.257 . S
H288 C261 0.930 . S
H289 C262 0.931 1_655 S
H290 C264 0.931 1_655 S
H291 C265 0.931 . S
H292 C270 0.930 . S
H293 C271 0.931 1_455 S
H294 C273 0.931 1_455 S
H295 C274 0.931 . S
Gd296 C299 2.818 . S
Gd296 O316 2.377 . S
Gd296 O318 2.448 . S
Gd296 O319 2.506 . S
Gd296 O320 2.435 . S
Gd296 O321 2.717 . S
Gd296 O323 2.395 . S
Gd296 O327 2.327 1_545 S
Gd297 C308 2.818 . S
Gd297 O317 2.395 . S
Gd297 O321 2.327 1_565 S
Gd297 O322 2.374 1_565 S
Gd297 O324 2.448 . S
Gd297 O325 2.506 1_565 S
Gd297 O326 2.435 . S
Gd297 O327 2.717 . S
C298 O316 1.240 1_565 S
C298 O317 1.240 . S
C299 Gd296 2.818 . S
C299 C300 1.510 . S
C299 O318 1.249 . S
C299 O319 1.252 . S
C300 C299 1.510 . S
C300 C301 1.404 . S
C300 C302 1.352 . S
C301 C300 1.404 . S
C301 C305 1.389 . S
C301 H328 0.930 . S
C302 C300 1.352 . S
C302 C304 1.374 . S
C302 H329 0.931 1_545 S
C303 C304 1.359 . S
C303 C305 1.364 . S
C304 C302 1.374 . S
C304 C303 1.359 . S
C304 H330 0.931 1_545 S
C305 C301 1.389 . S
C305 C303 1.364 . S
C305 H331 0.931 . S
C306 O320 1.256 . S
C306 O321 1.257 . S
C307 O322 1.248 . S
C307 O323 1.240 . S
C308 Gd297 2.818 . S
C308 C309 1.510 . S
C308 O324 1.249 . S
C308 O325 1.252 1_565 S
C309 C308 1.510 . S
C309 C310 1.404 . S
C309 C311 1.352 1_565 S
C310 C309 1.404 . S
C310 C314 1.389 . S
C310 H332 0.930 . S
C311 C309 1.352 1_545 S
C311 C313 1.374 . S
C311 H333 0.931 . S
C312 C313 1.359 1_565 S
C312 C314 1.364 . S
C313 C311 1.374 . S
C313 C312 1.359 1_545 S
C313 H334 0.931 . S
C314 C310 1.389 . S
C314 C312 1.364 . S
C314 H335 0.931 . S
C315 O326 1.256 . S
C315 O327 1.257 . S
O316 Gd296 2.377 . S
O316 C298 1.240 1_545 S
O317 Gd297 2.395 . S
O317 C298 1.240 . S
O318 Gd296 2.448 . S
O318 C299 1.249 . S
O319 Gd296 2.506 . S
O319 C299 1.252 . S
O320 Gd296 2.435 . S
O320 C306 1.256 . S
O321 Gd296 2.717 . S
O321 Gd297 2.327 1_545 S
O321 C306 1.257 . S
O322 Gd297 2.374 1_545 S
O322 C307 1.248 . S
O323 Gd296 2.395 . S
O323 C307 1.240 . S
O324 Gd297 2.448 . S
O324 C308 1.249 . S
O325 Gd297 2.506 1_545 S
O325 C308 1.252 1_545 S
O326 Gd297 2.435 . S
O326 C315 1.256 . S
O327 Gd296 2.327 1_565 S
O327 Gd297 2.717 . S
O327 C315 1.257 . S
H328 C301 0.930 . S
H329 C302 0.931 1_565 S
H330 C304 0.931 1_565 S
H331 C305 0.931 . S
H332 C310 0.930 . S
H333 C311 0.931 . S
H334 C313 0.931 . S
H335 C314 0.931 . S
Gd336 C339 2.818 . S
Gd336 O356 2.377 . S
Gd336 O358 2.448 . S
Gd336 O359 2.506 . S
Gd336 O360 2.435 . S
Gd336 O361 2.717 . S
Gd336 O363 2.395 . S
Gd336 O367 2.327 . S
Gd337 C348 2.818 . S
Gd337 O357 2.395 . S
Gd337 O361 2.327 . S
Gd337 O362 2.377 . S
Gd337 O364 2.448 . S
Gd337 O365 2.506 . S
Gd337 O366 2.435 . S
Gd337 O367 2.717 . S
C338 O356 1.240 . S
C338 O357 1.240 . S
C339 Gd336 2.818 . S
C339 C340 1.510 . S
C339 O358 1.249 . S
C339 O359 1.252 . S
C340 C339 1.510 . S
C340 C341 1.404 . S
C340 C342 1.352 . S
C341 C340 1.404 . S
C341 C345 1.389 . S
C341 H368 0.930 . S
C342 C340 1.352 . S
C342 C344 1.374 . S
C342 H369 0.931 . S
C343 C344 1.359 . S
C343 C345 1.364 . S
C344 C342 1.374 . S
C344 C343 1.359 . S
C344 H370 0.931 . S
C345 C341 1.389 . S
C345 C343 1.364 . S
C345 H371 0.931 . S
C346 O360 1.256 . S
C346 O361 1.257 . S
C347 O362 1.240 . S
C347 O363 1.240 . S
C348 Gd337 2.818 . S
C348 C349 1.510 . S
C348 O364 1.249 . S
C348 O365 1.252 . S
C349 C348 1.510 . S
C349 C350 1.404 . S
C349 C351 1.352 . S
C350 C349 1.404 . S
C350 C354 1.389 . S
C350 H372 0.930 . S
C351 C349 1.352 . S
C351 C353 1.374 . S
C351 H373 0.931 . S
C352 C353 1.359 . S
C352 C354 1.364 . S
C353 C351 1.374 . S
C353 C352 1.359 . S
C353 H374 0.931 . S
C354 C350 1.389 . S
C354 C352 1.364 . S
C354 H375 0.931 . S
C355 O366 1.256 . S
C355 O367 1.257 . S
O356 Gd336 2.377 . S
O356 C338 1.240 . S
O357 Gd337 2.395 . S
O357 C338 1.240 . S
O358 Gd336 2.448 . S
O358 C339 1.249 . S
O359 Gd336 2.506 . S
O359 C339 1.252 . S
O360 Gd336 2.435 . S
O360 C346 1.256 . S
O361 Gd336 2.717 . S
O361 Gd337 2.327 . S
O361 C346 1.257 . S
O362 Gd337 2.377 . S
O362 C347 1.240 . S
O363 Gd336 2.395 . S
O363 C347 1.240 . S
O364 Gd337 2.448 . S
O364 C348 1.249 . S
O365 Gd337 2.506 . S
O365 C348 1.252 . S
O366 Gd337 2.435 . S
O366 C355 1.256 . S
O367 Gd336 2.327 . S
O367 Gd337 2.717 . S
O367 C355 1.257 . S
H368 C341 0.930 . S
H369 C342 0.931 . S
H370 C344 0.931 . S
H371 C345 0.931 . S
H372 C350 0.930 . S
H373 C351 0.931 . S
H374 C353 0.931 . S
H375 C354 0.931 . S
Gd376 C379 2.818 . S
Gd376 O396 2.377 . S
Gd376 O398 2.448 . S
Gd376 O399 2.506 . S
Gd376 O400 2.435 . S
Gd376 O401 2.717 1_655 S
Gd376 O403 2.395 1_655 S
Gd376 O407 2.327 . S
Gd377 C388 2.818 . S
Gd377 O397 2.395 1_455 S
Gd377 O401 2.327 . S
Gd377 O402 2.377 . S
Gd377 O404 2.448 . S
Gd377 O405 2.506 . S
Gd377 O406 2.435 . S
Gd377 O407 2.717 1_455 S
C378 O396 1.240 . S
C378 O397 1.240 . S
C379 Gd376 2.818 . S
C379 C380 1.510 . S
C379 O398 1.249 . S
C379 O399 1.252 . S
C380 C379 1.510 . S
C380 C381 1.404 . S
C380 C382 1.352 . S
C381 C380 1.404 . S
C381 C385 1.389 . S
C381 H408 0.930 . S
C382 C380 1.352 . S
C382 C384 1.374 . S
C382 H409 0.931 . S
C383 C384 1.359 . S
C383 C385 1.364 . S
C384 C382 1.374 . S
C384 C383 1.359 . S
C384 H410 0.931 . S
C385 C381 1.389 . S
C385 C383 1.364 . S
C385 H411 0.931 . S
C386 O400 1.256 . S
C386 O401 1.257 1_655 S
C387 O402 1.240 . S
C387 O403 1.240 . S
C388 Gd377 2.818 . S
C388 C389 1.510 . S
C388 O404 1.249 . S
C388 O405 1.252 . S
C389 C388 1.510 . S
C389 C390 1.404 . S
C389 C391 1.352 . S
C390 C389 1.404 . S
C390 C394 1.389 . S
C390 H412 0.930 . S
C391 C389 1.352 . S
C391 C393 1.374 . S
C391 H413 0.931 . S
C392 C393 1.359 . S
C392 C394 1.364 . S
C393 C391 1.374 . S
C393 C392 1.359 . S
C393 H414 0.931 . S
C394 C390 1.389 . S
C394 C392 1.364 . S
C394 H415 0.931 . S
C395 O406 1.256 . S
C395 O407 1.257 1_455 S
O396 Gd376 2.377 . S
O396 C378 1.240 . S
O397 Gd377 2.395 1_655 S
O397 C378 1.240 . S
O398 Gd376 2.448 . S
O398 C379 1.249 . S
O399 Gd376 2.506 . S
O399 C379 1.252 . S
O400 Gd376 2.435 . S
O400 C386 1.256 . S
O401 Gd376 2.717 1_455 S
O401 Gd377 2.327 . S
O401 C386 1.257 1_455 S
O402 Gd377 2.377 . S
O402 C387 1.240 . S
O403 Gd376 2.395 1_455 S
O403 C387 1.240 . S
O404 Gd377 2.448 . S
O404 C388 1.249 . S
O405 Gd377 2.506 . S
O405 C388 1.252 . S
O406 Gd377 2.435 . S
O406 C395 1.256 . S
O407 Gd376 2.327 . S
O407 Gd377 2.717 1_655 S
O407 C395 1.257 1_655 S
H408 C381 0.930 . S
H409 C382 0.931 . S
H410 C384 0.931 . S
H411 C385 0.931 . S
H412 C390 0.930 . S
H413 C391 0.931 . S
H414 C393 0.931 . S
H415 C394 0.931 . S
C416 C417 1.349 . S
C416 C418 1.327 . S
C416 H441 0.950 1_545 S
C417 C416 1.349 . S
C417 C433 1.349 . S
C418 C416 1.327 . S
C418 C437 1.429 . S
C418 H442 0.950 1_545 S
C419 C436 1.574 . S
C419 C438 1.368 . S
C419 H443 0.949 . S
H420 C424 0.949 . S
C421 C422 1.349 . S
C421 C423 1.327 . S
C421 H444 0.950 . S
C422 C421 1.349 . S
C422 C434 1.349 1_545 S
C423 C421 1.327 . S
C423 C439 1.429 . S
C423 H445 0.950 . S
C424 H420 0.949 . S
C424 C432 1.573 1_565 S
C424 C440 1.368 1_565 S
H425 C433 0.950 . S
H426 C431 0.950 . S
H427 C432 0.939 1_565 S
H428 C434 0.950 . S
H429 C435 0.950 . S
H430 C436 0.949 . S
C431 H426 0.950 . S
C431 C433 1.327 . S
C431 C437 1.429 . S
C432 C424 1.573 1_545 S
C432 H427 0.939 1_545 S
C432 C438 1.380 . S
C433 C417 1.349 . S
C433 H425 0.950 . S
C433 C431 1.327 . S
C434 C422 1.349 1_565 S
C434 H428 0.950 . S
C434 C435 1.327 . S
C435 H429 0.950 . S
C435 C434 1.327 . S
C435 C439 1.429 1_565 S
C436 C419 1.574 . S
C436 H430 0.949 . S
C436 C440 1.368 . S
C437 C418 1.429 . S
C437 C431 1.429 . S
C437 C438 1.523 . S
C438 C419 1.368 . S
C438 C432 1.380 . S
C438 C437 1.523 . S
C439 C423 1.429 . S
C439 C435 1.429 1_545 S
C439 C440 1.523 . S
C440 C424 1.368 1_545 S
C440 C436 1.368 . S
C440 C439 1.523 . S
H441 C416 0.950 1_565 S
H442 C418 0.950 1_565 S
H443 C419 0.949 . S
H444 C421 0.950 . S
H445 C423 0.950 . S
C446 C447 1.349 . S
C446 C448 1.327 . S
C446 H471 0.950 . S
C447 C446 1.349 . S
C447 C463 1.349 . S
C448 C446 1.327 . S
C448 C467 1.429 . S
C448 H472 0.950 . S
C449 C466 1.574 . S
C449 C468 1.368 . S
C449 H473 0.949 . S
H450 C454 0.949 . S
C451 C452 1.349 . S
C451 C453 1.327 . S
C451 H474 0.950 . S
C452 C451 1.349 . S
C452 C464 1.349 . S
C453 C451 1.327 . S
C453 C469 1.429 . S
C453 H475 0.950 . S
C454 H450 0.949 . S
C454 C462 1.574 . S
C454 C470 1.368 . S
H455 C463 0.950 . S
H456 C461 0.950 . S
H457 C462 0.949 . S
H458 C464 0.950 . S
H459 C465 0.950 . S
H460 C466 0.949 . S
C461 H456 0.950 . S
C461 C463 1.327 . S
C461 C467 1.429 . S
C462 C454 1.574 . S
C462 H457 0.949 . S
C462 C468 1.368 . S
C463 C447 1.349 . S
C463 H455 0.950 . S
C463 C461 1.327 . S
C464 C452 1.349 . S
C464 H458 0.950 . S
C464 C465 1.327 . S
C465 H459 0.950 . S
C465 C464 1.327 . S
C465 C469 1.429 . S
C466 C449 1.574 . S
C466 H460 0.949 . S
C466 C470 1.368 . S
C467 C448 1.429 . S
C467 C461 1.429 . S
C467 C468 1.523 . S
C468 C449 1.368 . S
C468 C462 1.368 . S
C468 C467 1.523 . S
C469 C453 1.429 . S
C469 C465 1.429 . S
C469 C470 1.523 . S
C470 C454 1.368 . S
C470 C466 1.368 . S
C470 C469 1.523 . S
H471 C446 0.950 . S
H472 C448 0.950 . S
H473 C449 0.949 . S
H474 C451 0.950 . S
H475 C453 0.950 . S
C476 C477 1.349 . S
C476 C478 1.327 . S
C476 H501 0.950 . S
C477 C476 1.349 . S
C477 C493 1.349 . S
C478 C476 1.327 . S
C478 C497 1.429 . S
C478 H502 0.950 . S
C479 C496 1.574 . S
C479 C498 1.368 . S
C479 H503 0.949 . S
H480 C484 0.949 . S
C481 C482 1.349 . S
C481 C483 1.327 . S
C481 H504 0.950 . S
C482 C481 1.349 . S
C482 C494 1.349 . S
C483 C481 1.327 . S
C483 C499 1.429 . S
C483 H505 0.950 . S
C484 H480 0.949 . S
C484 C492 1.574 . S
C484 C500 1.368 . S
H485 C493 0.950 . S
H486 C491 0.950 . S
H487 C492 0.949 . S
H488 C494 0.950 . S
H489 C495 0.950 . S
H490 C496 0.949 . S
C491 H486 0.950 . S
C491 C493 1.327 . S
C491 C497 1.429 . S
C492 C484 1.574 . S
C492 H487 0.949 . S
C492 C498 1.368 . S
C493 C477 1.349 . S
C493 H485 0.950 . S
C493 C491 1.327 . S
C494 C482 1.349 . S
C494 H488 0.950 . S
C494 C495 1.327 . S
C495 H489 0.950 . S
C495 C494 1.327 . S
C495 C499 1.429 . S
C496 C479 1.574 . S
C496 H490 0.949 . S
C496 C500 1.368 . S
C497 C478 1.429 . S
C497 C491 1.429 . S
C497 C498 1.523 . S
C498 C479 1.368 . S
C498 C492 1.368 . S
C498 C497 1.523 . S
C499 C483 1.429 . S
C499 C495 1.429 . S
C499 C500 1.523 . S
C500 C484 1.368 . S
C500 C496 1.368 . S
C500 C499 1.523 . S
H501 C476 0.950 . S
H502 C478 0.950 . S
H503 C479 0.949 . S
H504 C481 0.950 . S
H505 C483 0.950 . S
C506 C507 1.352 . S
C506 C508 1.327 . S
C506 H531 0.950 . S
C507 C506 1.352 . S
C507 C523 1.346 1_455 S
C508 C506 1.327 . S
C508 C527 1.439 . S
C508 H532 0.950 . S
C509 C526 1.574 . S
C509 C528 1.352 1_655 S
C509 H533 0.949 . S
H510 C514 0.949 . S
C511 C512 1.315 1_655 S
C511 C513 1.327 . S
C511 H534 0.950 . S
C512 C511 1.315 1_455 S
C512 C524 1.383 . S
C513 C511 1.327 . S
C513 C529 1.403 1_655 S
C513 H535 0.950 . S
C514 H510 0.949 . S
C514 C522 1.574 . S
C514 C530 1.392 . S
H515 C523 0.950 . S
H516 C521 0.950 . S
H517 C522 0.949 . S
H518 C524 0.950 . S
H519 C525 0.950 . S
H520 C526 0.949 . S
C521 H516 0.950 . S
C521 C523 1.327 . S
C521 C527 1.418 1_655 S
C522 C514 1.574 . S
C522 H517 0.949 . S
C522 C528 1.384 . S
C523 C507 1.346 1_655 S
C523 H515 0.950 . S
C523 C521 1.327 . S
C524 C512 1.383 . S
C524 H518 0.950 . S
C524 C525 1.327 . S
C525 H519 0.950 . S
C525 C524 1.327 . S
C525 C529 1.454 . S
C526 C509 1.574 . S
C526 H520 0.949 . S
C526 C530 1.345 1_655 S
C527 C508 1.439 . S
C527 C521 1.418 1_455 S
C527 C528 1.523 . S
C528 C509 1.352 1_455 S
C528 C522 1.384 . S
C528 C527 1.523 . S
C529 C513 1.403 1_455 S
C529 C525 1.454 . S
C529 C530 1.523 . S
C530 C514 1.392 . S
C530 C526 1.345 1_455 S
C530 C529 1.523 . S
H531 C506 0.950 . S
H532 C508 0.950 . S
H533 C509 0.949 . S
H534 C511 0.950 . S
H535 C513 0.950 . S
C536 C537 1.349 . S
C536 C538 1.327 . S
C536 H561 0.950 . S
C537 C536 1.349 . S
C537 C553 1.349 1_565 S
C538 C536 1.327 . S
C538 C557 1.429 . S
C538 H562 0.950 . S
C539 C556 1.574 1_554 S
C539 C558 1.368 1_545 S
C539 H563 0.949 . S
H540 C544 0.949 . S
C541 C542 1.378 . S
C541 C543 1.327 . S
C541 H564 0.950 . S
C542 C541 1.378 . S
C542 C554 1.318 1_545 S
C543 C541 1.327 . S
C543 C559 1.429 1_545 S
C543 H565 0.950 . S
C544 H540 0.949 . S
C544 C552 1.576 . S
C544 C560 1.368 . S
H545 C553 0.950 . S
H546 C551 0.950 . S
H547 C552 0.949 1_554 S
H548 C554 0.950 . S
H549 C555 0.950 . S
H550 C556 0.949 . S
C551 H546 0.950 . S
C551 C553 1.327 . S
C551 C557 1.429 1_545 S
C552 C544 1.576 . S
C552 H547 0.949 1_556 S
C552 C558 1.366 1_556 S
C553 C537 1.349 1_545 S
C553 H545 0.950 . S
C553 C551 1.327 . S
C554 C542 1.318 1_565 S
C554 H548 0.950 . S
C554 C555 1.327 . S
C555 H549 0.950 . S
C555 C554 1.327 . S
C555 C559 1.429 . S
C556 C539 1.574 1_556 S
C556 H550 0.949 . S
C556 C560 1.368 1_545 S
C557 C538 1.429 . S
C557 C551 1.429 1_565 S
C557 C558 1.523 . S
C558 C539 1.368 1_565 S
C558 C552 1.366 1_554 S
C558 C557 1.523 . S
C559 C543 1.429 1_565 S
C559 C555 1.429 . S
C559 C560 1.523 . S
C560 C544 1.368 . S
C560 C556 1.368 1_565 S
C560 C559 1.523 . S
H561 C536 0.950 . S
H562 C538 0.950 . S
H563 C539 0.949 . S
H564 C541 0.950 . S
H565 C543 0.950 . S
C566 C567 1.349 . S
C566 C568 1.327 . S
C566 H591 0.950 . S
C567 C566 1.349 . S
C567 C583 1.349 . S
C568 C566 1.327 . S
C568 C587 1.429 . S
C568 H592 0.950 . S
C569 C586 1.574 . S
C569 C588 1.368 1_556 S
C569 H593 0.949 . S
H570 C574 0.950 . S
C571 C572 1.349 . S
C571 C573 1.327 . S
C571 H594 0.950 . S
C572 C571 1.349 . S
C572 C584 1.349 . S
C573 C571 1.327 . S
C573 C589 1.429 . S
C573 H595 0.950 . S
C574 H570 0.950 . S
C574 C582 1.574 1_556 S
C574 C590 1.368 . S
H575 C583 0.950 . S
H576 C581 0.950 . S
H577 C582 0.949 . S
H578 C584 0.950 . S
H579 C585 0.950 . S
H580 C586 0.949 . S
C581 H576 0.950 . S
C581 C583 1.327 . S
C581 C587 1.429 . S
C582 C574 1.574 1_554 S
C582 H577 0.949 . S
C582 C588 1.368 . S
C583 C567 1.349 . S
C583 H575 0.950 . S
C583 C581 1.327 . S
C584 C572 1.349 . S
C584 H578 0.950 . S
C584 C585 1.327 . S
C585 H579 0.950 . S
C585 C584 1.327 . S
C585 C589 1.429 . S
C586 C569 1.574 . S
C586 H580 0.949 . S
C586 C590 1.368 . S
C587 C568 1.429 . S
C587 C581 1.429 . S
C587 C588 1.523 . S
C588 C569 1.368 1_554 S
C588 C582 1.368 . S
C588 C587 1.523 . S
C589 C573 1.429 . S
C589 C585 1.429 . S
C589 C590 1.523 . S
C590 C574 1.368 . S
C590 C586 1.368 . S
C590 C589 1.523 . S
H591 C566 0.950 . S
H592 C568 0.950 . S
H593 C569 0.949 . S
H594 C571 0.950 . S
H595 C573 0.950 . S
C596 C597 1.349 . S
C596 C598 1.327 . S
C596 H621 0.950 . S
C597 C596 1.349 . S
C597 C613 1.349 . S
C598 C596 1.327 . S
C598 C617 1.429 . S
C598 H622 0.950 . S
C599 C616 1.560 1_554 S
C599 C618 1.379 . S
C599 H623 0.952 . S
H600 C604 0.949 . S
C601 C602 1.349 . S
C601 C603 1.327 . S
C601 H624 0.950 . S
C602 C601 1.349 . S
C602 C614 1.349 . S
C603 C601 1.327 . S
C603 C619 1.429 . S
C603 H625 0.950 . S
C604 H600 0.949 . S
C604 C612 1.574 1_556 S
C604 C620 1.368 . S
H605 C613 0.950 . S
H606 C611 0.950 . S
H607 C612 0.949 . S
H608 C614 0.950 . S
H609 C615 0.950 . S
H610 C616 0.949 . S
C611 H606 0.950 . S
C611 C613 1.327 . S
C611 C617 1.429 . S
C612 C604 1.574 1_554 S
C612 H607 0.949 . S
C612 C618 1.368 . S
C613 C597 1.349 . S
C613 H605 0.950 . S
C613 C611 1.327 . S
C614 C602 1.349 . S
C614 H608 0.950 . S
C614 C615 1.327 . S
C615 H609 0.950 . S
C615 C614 1.327 . S
C615 C619 1.429 . S
C616 C599 1.560 1_556 S
C616 H610 0.949 . S
C616 C620 1.368 . S
C617 C598 1.429 . S
C617 C611 1.429 . S
C617 C618 1.523 . S
C618 C599 1.379 . S
C618 C612 1.368 . S
C618 C617 1.523 . S
C619 C603 1.429 . S
C619 C615 1.429 . S
C619 C620 1.523 . S
C620 C604 1.368 . S
C620 C616 1.368 . S
C620 C619 1.523 . S
H621 C596 0.950 . S
H622 C598 0.950 . S
H623 C599 0.952 . S
H624 C601 0.950 . S
H625 C603 0.950 . S
C626 C627 1.352 . S
C626 C628 1.327 . S
C626 H651 0.950 . S
C627 C626 1.352 . S
C627 C643 1.346 1_655 S
C628 C626 1.327 . S
C628 C647 1.439 . S
C628 H652 0.950 . S
C629 C646 1.574 1_554 S
C629 C648 1.353 1_455 S
C629 H653 0.949 . S
H630 C634 0.949 . S
C631 C632 1.316 1_455 S
C631 C633 1.327 . S
C631 H654 0.950 . S
C632 C631 1.316 1_655 S
C632 C644 1.382 . S
C633 C631 1.327 . S
C633 C649 1.404 1_455 S
C633 H655 0.950 . S
C634 H630 0.949 . S
C634 C642 1.574 1_556 S
C634 C650 1.391 . S
H635 C643 0.950 . S
H636 C641 0.950 . S
H637 C642 0.949 . S
H638 C644 0.950 . S
H639 C645 0.950 . S
H640 C646 0.949 . S
C641 H636 0.950 . S
C641 C643 1.327 . S
C641 C647 1.418 1_455 S
C642 C634 1.574 1_554 S
C642 H637 0.949 . S
C642 C648 1.384 . S
C643 C627 1.346 1_455 S
C643 H635 0.950 . S
C643 C641 1.327 . S
C644 C632 1.382 . S
C644 H638 0.950 . S
C644 C645 1.327 . S
C645 H639 0.950 . S
C645 C644 1.327 . S
C645 C649 1.454 . S
C646 C629 1.574 1_556 S
C646 H640 0.949 . S
C646 C650 1.345 1_455 S
C647 C628 1.439 . S
C647 C641 1.418 1_655 S
C647 C648 1.523 . S
C648 C629 1.353 1_655 S
C648 C642 1.384 . S
C648 C647 1.523 . S
C649 C633 1.404 1_655 S
C649 C645 1.454 . S
C649 C650 1.523 . S
C650 C634 1.391 . S
C650 C646 1.345 1_655 S
C650 C649 1.523 . S
H651 C626 0.950 . S
H652 C628 0.950 . S
H653 C629 0.949 . S
H654 C631 0.950 . S
H655 C633 0.950 . S
C656 C657 1.349 1_655 S
C656 C658 1.327 . S
C656 H681 0.950 . S
C657 C656 1.349 1_455 S
C657 C673 1.349 . S
C658 C656 1.327 . S
C658 C677 1.429 . S
C658 H682 0.950 . S
C659 C676 1.574 . S
C659 C678 1.368 1_455 S
C659 H683 0.949 . S
H660 C664 0.949 . S
C661 C662 1.349 . S
C661 C663 1.327 . S
C661 H684 0.950 . S
C662 C661 1.349 . S
C662 C674 1.349 . S
C663 C661 1.327 . S
C663 C679 1.429 . S
C663 H685 0.950 1_655 S
C664 H660 0.949 . S
C664 C672 1.574 . S
C664 C680 1.368 . S
H665 C673 0.950 . S
H666 C671 0.950 . S
H667 C672 0.949 . S
H668 C674 0.950 . S
H669 C675 0.950 . S
H670 C676 0.949 . S
C671 H666 0.950 . S
C671 C673 1.327 . S
C671 C677 1.429 1_455 S
C672 C664 1.574 . S
C672 H667 0.949 . S
C672 C678 1.368 . S
C673 C657 1.349 . S
C673 H665 0.950 . S
C673 C671 1.327 . S
C674 C662 1.349 . S
C674 H668 0.950 . S
C674 C675 1.327 . S
C675 H669 0.950 . S
C675 C674 1.327 . S
C675 C679 1.429 . S
C676 C659 1.574 . S
C676 H670 0.949 . S
C676 C680 1.368 1_455 S
C677 C658 1.429 . S
C677 C671 1.429 1_655 S
C677 C678 1.523 . S
C678 C659 1.368 1_655 S
C678 C672 1.368 . S
C678 C677 1.523 . S
C679 C663 1.429 . S
C679 C675 1.429 . S
C679 C680 1.523 . S
C680 C664 1.368 . S
C680 C676 1.368 1_655 S
C680 C679 1.523 . S
H681 C656 0.950 . S
H682 C658 0.950 . S
H683 C659 0.949 . S
H684 C661 0.950 . S
H685 C663 0.950 1_455 S
C686 C687 1.349 . S
C686 C688 1.327 . S
C686 H711 0.950 . S
C687 C686 1.349 . S
C687 C703 1.349 . S
C688 C686 1.327 . S
C688 C707 1.429 . S
C688 H712 0.950 . S
C689 C706 1.574 . S
C689 C708 1.368 1_565 S
C689 H713 0.949 . S
H690 C694 0.949 . S
C691 C692 1.349 . S
C691 C693 1.327 . S
C691 H714 0.950 . S
C692 C691 1.349 . S
C692 C704 1.349 . S
C693 C691 1.327 . S
C693 C709 1.429 . S
C693 H715 0.950 . S
C694 H690 0.949 . S
C694 C702 1.574 . S
C694 C710 1.368 1_545 S
H695 C703 0.950 . S
H696 C701 0.950 . S
H697 C702 0.949 . S
H698 C704 0.950 . S
H699 C705 0.950 1_545 S
H700 C706 0.949 . S
C701 H696 0.950 . S
C701 C703 1.327 . S
C701 C707 1.429 . S
C702 C694 1.574 . S
C702 H697 0.949 . S
C702 C708 1.368 . S
C703 C687 1.349 . S
C703 H695 0.950 . S
C703 C701 1.327 . S
C704 C692 1.349 . S
C704 H698 0.950 . S
C704 C705 1.327 . S
C705 H699 0.950 1_565 S
C705 C704 1.327 . S
C705 C709 1.429 . S
C706 C689 1.574 . S
C706 H700 0.949 . S
C706 C710 1.368 . S
C707 C688 1.429 . S
C707 C701 1.429 . S
C707 C708 1.523 . S
C708 C689 1.368 1_545 S
C708 C702 1.368 . S
C708 C707 1.523 . S
C709 C693 1.429 . S
C709 C705 1.429 . S
C709 C710 1.523 . S
C710 C694 1.368 1_565 S
C710 C706 1.368 . S
C710 C709 1.523 . S
H711 C686 0.950 . S
H712 C688 0.950 . S
H713 C689 0.949 . S
H714 C691 0.950 . S
H715 C693 0.950 . S
C716 C717 1.349 . S
C716 C718 1.327 . S
C716 H741 0.950 . S
C717 C716 1.349 . S
C717 C733 1.349 . S
C718 C716 1.327 . S
C718 C737 1.429 . S
C718 H742 0.950 . S
C719 C736 1.574 . S
C719 C738 1.368 . S
C719 H743 0.949 . S
H720 C724 0.949 . S
C721 C722 1.349 . S
C721 C723 1.327 . S
C721 H744 0.950 . S
C722 C721 1.349 . S
C722 C734 1.349 . S
C723 C721 1.327 . S
C723 C739 1.429 . S
C723 H745 0.950 . S
C724 H720 0.949 . S
C724 C732 1.574 . S
C724 C740 1.368 . S
H725 C733 0.950 . S
H726 C731 0.950 . S
H727 C732 0.949 . S
H728 C734 0.950 . S
H729 C735 0.950 . S
H730 C736 0.949 . S
C731 H726 0.950 . S
C731 C733 1.327 . S
C731 C737 1.429 . S
C732 C724 1.574 . S
C732 H727 0.949 . S
C732 C738 1.368 . S
C733 C717 1.349 . S
C733 H725 0.950 . S
C733 C731 1.327 . S
C734 C722 1.349 . S
C734 H728 0.950 . S
C734 C735 1.327 . S
C735 H729 0.950 . S
C735 C734 1.327 . S
C735 C739 1.429 . S
C736 C719 1.574 . S
C736 H730 0.949 . S
C736 C740 1.368 . S
C737 C718 1.429 . S
C737 C731 1.429 . S
C737 C738 1.523 . S
C738 C719 1.368 . S
C738 C732 1.368 . S
C738 C737 1.523 . S
C739 C723 1.429 . S
C739 C735 1.429 . S
C739 C740 1.523 . S
C740 C724 1.368 . S
C740 C736 1.368 . S
C740 C739 1.523 . S
H741 C716 0.950 . S
H742 C718 0.950 . S
H743 C719 0.949 . S
H744 C721 0.950 . S
H745 C723 0.950 . S
C746 C747 1.349 . S
C746 C748 1.327 . S
C746 H771 0.950 . S
C747 C746 1.349 . S
C747 C763 1.349 . S
C748 C746 1.327 . S
C748 C767 1.429 . S
C748 H772 0.950 . S
C749 C766 1.574 . S
C749 C768 1.368 . S
C749 H773 0.949 . S
H750 C754 0.949 . S
C751 C752 1.349 . S
C751 C753 1.327 . S
C751 H774 0.950 . S
C752 C751 1.349 . S
C752 C764 1.349 . S
C753 C751 1.327 . S
C753 C769 1.429 . S
C753 H775 0.950 . S
C754 H750 0.949 . S
C754 C762 1.574 . S
C754 C770 1.368 . S
H755 C763 0.950 . S
H756 C761 0.950 . S
H757 C762 0.949 . S
H758 C764 0.950 . S
H759 C765 0.950 . S
H760 C766 0.949 . S
C761 H756 0.950 . S
C761 C763 1.327 . S
C761 C767 1.429 . S
C762 C754 1.574 . S
C762 H757 0.949 . S
C762 C768 1.368 . S
C763 C747 1.349 . S
C763 H755 0.950 . S
C763 C761 1.327 . S
C764 C752 1.349 . S
C764 H758 0.950 . S
C764 C765 1.327 . S
C765 H759 0.950 . S
C765 C764 1.327 . S
C765 C769 1.429 . S
C766 C749 1.574 . S
C766 H760 0.949 . S
C766 C770 1.368 . S
C767 C748 1.429 . S
C767 C761 1.429 . S
C767 C768 1.523 . S
C768 C749 1.368 . S
C768 C762 1.368 . S
C768 C767 1.523 . S
C769 C753 1.429 . S
C769 C765 1.429 . S
C769 C770 1.523 . S
C770 C754 1.368 . S
C770 C766 1.368 . S
C770 C769 1.523 . S
H771 C746 0.950 . S
H772 C748 0.950 . S
H773 C749 0.949 . S
H774 C751 0.950 . S
H775 C753 0.950 . S
C776 C777 1.349 . S
C776 C778 1.327 . S
C776 H801 0.950 . S
C777 C776 1.349 . S
C777 C793 1.349 1_655 S
C778 C776 1.327 . S
C778 C797 1.429 1_655 S
C778 H802 0.950 . S
C779 C796 1.574 . S
C779 C798 1.368 . S
C779 H803 0.949 . S
H780 C784 0.949 . S
C781 C782 1.349 . S
C781 C783 1.327 . S
C781 H804 0.950 . S
C782 C781 1.349 . S
C782 C794 1.349 . S
C783 C781 1.327 . S
C783 C799 1.429 . S
C783 H805 0.950 1_556 S
C784 H780 0.949 . S
C784 C792 1.574 . S
C784 C800 1.368 . S
H785 C793 0.950 . S
H786 C791 0.950 . S
H787 C792 0.950 . S
H788 C794 0.950 . S
H789 C795 0.950 . S
H790 C796 0.949 . S
C791 H786 0.950 . S
C791 C793 1.327 . S
C791 C797 1.429 . S
C792 C784 1.574 . S
C792 H787 0.950 . S
C792 C798 1.368 1_556 S
C793 C777 1.349 1_455 S
C793 H785 0.950 . S
C793 C791 1.327 . S
C794 C782 1.349 . S
C794 H788 0.950 . S
C794 C795 1.327 . S
C795 H789 0.950 . S
C795 C794 1.327 . S
C795 C799 1.429 . S
C796 C779 1.574 . S
C796 H790 0.949 . S
C796 C800 1.368 1_554 S
C797 C778 1.429 1_455 S
C797 C791 1.429 . S
C797 C798 1.523 . S
C798 C779 1.368 . S
C798 C792 1.368 1_554 S
C798 C797 1.523 . S
C799 C783 1.429 . S
C799 C795 1.429 . S
C799 C800 1.523 . S
C800 C784 1.368 . S
C800 C796 1.368 1_556 S
C800 C799 1.523 . S
H801 C776 0.950 . S
H802 C778 0.950 . S
H803 C779 0.949 . S
H804 C781 0.950 . S
H805 C783 0.950 1_554 S
C806 C807 1.349 . S
C806 C808 1.327 . S
C806 H831 0.950 . S
C807 C806 1.349 . S
C807 C823 1.349 1_565 S
C808 C806 1.327 . S
C808 C827 1.429 . S
C808 H832 0.950 . S
C809 C826 1.574 1_554 S
C809 C828 1.368 . S
C809 H833 0.949 . S
H810 C814 0.952 . S
C811 C812 1.349 . S
C811 C813 1.327 . S
C811 H834 0.950 . S
C812 C811 1.349 . S
C812 C824 1.349 . S
C813 C811 1.327 . S
C813 C829 1.429 . S
C813 H835 0.950 . S
C814 H810 0.952 . S
C814 C822 1.567 1_556 S
C814 C830 1.372 1_565 S
H815 C823 0.950 . S
H816 C821 0.950 . S
H817 C822 0.949 . S
H818 C824 0.990 . S
H819 C825 0.950 1_565 S
H820 C826 0.949 . S
C821 H816 0.950 . S
C821 C823 1.327 . S
C821 C827 1.429 1_545 S
C822 C814 1.567 1_554 S
C822 H817 0.949 . S
C822 C828 1.368 1_565 S
C823 C807 1.349 1_545 S
C823 H815 0.950 . S
C823 C821 1.327 . S
C824 C812 1.349 . S
C824 H818 0.990 . S
C824 C825 1.327 . S
C825 H819 0.950 1_545 S
C825 C824 1.327 . S
C825 C829 1.429 . S
C826 C809 1.574 1_556 S
C826 H820 0.949 . S
C826 C830 1.368 . S
C827 C808 1.429 . S
C827 C821 1.429 1_565 S
C827 C828 1.523 1_565 S
C828 C809 1.368 . S
C828 C822 1.368 1_545 S
C828 C827 1.523 1_545 S
C829 C813 1.429 . S
C829 C825 1.429 . S
C829 C830 1.523 . S
C830 C814 1.372 1_545 S
C830 C826 1.368 . S
C830 C829 1.523 . S
H831 C806 0.950 . S
H832 C808 0.950 . S
H833 C809 0.949 . S
H834 C811 0.950 . S
H835 C813 0.950 . S
C836 C837 1.349 . S
C836 C838 1.327 . S
C836 H861 0.950 . S
C837 C836 1.349 . S
C837 C853 1.349 . S
C838 C836 1.327 . S
C838 C857 1.429 . S
C838 H862 0.950 . S
C839 C856 1.574 . S
C839 C858 1.368 . S
C839 H863 0.949 . S
H840 C844 0.949 . S
C841 C842 1.349 . S
C841 C843 1.327 . S
C841 H864 0.950 . S
C842 C841 1.349 . S
C842 C854 1.349 . S
C843 C841 1.327 . S
C843 C859 1.429 . S
C843 H865 0.950 . S
C844 H840 0.949 . S
C844 C852 1.574 1_556 S
C844 C860 1.368 . S
H845 C853 0.950 . S
H846 C851 0.950 . S
H847 C852 0.949 . S
H848 C854 0.950 . S
H849 C855 0.950 . S
H850 C856 0.949 . S
C851 H846 0.950 . S
C851 C853 1.327 . S
C851 C857 1.429 . S
C852 C844 1.574 1_554 S
C852 H847 0.949 . S
C852 C858 1.368 . S
C853 C837 1.349 . S
C853 H845 0.950 . S
C853 C851 1.327 . S
C854 C842 1.349 . S
C854 H848 0.950 . S
C854 C855 1.327 . S
C855 H849 0.950 . S
C855 C854 1.327 . S
C855 C859 1.429 . S
C856 C839 1.574 . S
C856 H850 0.949 . S
C856 C860 1.368 1_554 S
C857 C838 1.429 . S
C857 C851 1.429 . S
C857 C858 1.523 . S
C858 C839 1.368 . S
C858 C852 1.368 . S
C858 C857 1.523 . S
C859 C843 1.429 . S
C859 C855 1.429 . S
C859 C860 1.523 . S
C860 C844 1.368 . S
C860 C856 1.368 1_556 S
C860 C859 1.523 . S
H861 C836 0.950 . S
H862 C838 0.950 . S
H863 C839 0.949 . S
H864 C841 0.950 . S
H865 C843 0.950 . S
C866 C867 1.349 . S
C866 C868 1.327 . S
C866 H891 0.950 . S
C867 C866 1.349 . S
C867 C883 1.349 . S
C868 C866 1.327 . S
C868 C887 1.429 . S
C868 H892 0.950 . S
C869 C886 1.574 1_554 S
C869 C888 1.368 . S
C869 H893 0.949 . S
H870 C874 0.949 . S
C871 C872 1.349 . S
C871 C873 1.327 . S
C871 H894 0.950 . S
C872 C871 1.349 . S
C872 C884 1.349 . S
C873 C871 1.327 . S
C873 C889 1.429 . S
C873 H895 0.950 . S
C874 H870 0.949 . S
C874 C882 1.574 1_556 S
C874 C890 1.368 . S
H875 C883 0.950 . S
H876 C881 0.950 . S
H877 C882 0.949 . S
H878 C884 0.950 . S
H879 C885 0.950 . S
H880 C886 0.949 . S
C881 H876 0.950 . S
C881 C883 1.327 . S
C881 C887 1.429 . S
C882 C874 1.574 1_554 S
C882 H877 0.949 . S
C882 C888 1.368 . S
C883 C867 1.349 . S
C883 H875 0.950 . S
C883 C881 1.327 . S
C884 C872 1.349 . S
C884 H878 0.950 . S
C884 C885 1.327 . S
C885 H879 0.950 . S
C885 C884 1.327 . S
C885 C889 1.429 . S
C886 C869 1.574 1_556 S
C886 H880 0.949 . S
C886 C890 1.368 . S
C887 C868 1.429 . S
C887 C881 1.429 . S
C887 C888 1.523 . S
C888 C869 1.368 . S
C888 C882 1.368 . S
C888 C887 1.523 . S
C889 C873 1.429 . S
C889 C885 1.429 . S
C889 C890 1.523 . S
C890 C874 1.368 . S
C890 C886 1.368 . S
C890 C889 1.523 . S
H891 C866 0.950 . S
H892 C868 0.950 . S
H893 C869 0.949 . S
H894 C871 0.950 . S
H895 C873 0.950 . S
C896 C897 1.349 . S
C896 C898 1.327 . S
C896 H921 0.950 . S
C897 C896 1.349 . S
C897 C913 1.349 1_455 S
C898 C896 1.327 . S
C898 C917 1.429 . S
C898 H922 0.950 . S
C899 C916 1.574 . S
C899 C918 1.368 1_655 S
C899 H923 0.949 . S
H900 C904 0.949 . S
C901 C902 1.352 . S
C901 C903 1.325 1_455 S
C901 H924 0.947 1_455 S
C902 C901 1.352 . S
C902 C914 1.349 . S
C903 C901 1.325 1_655 S
C903 C919 1.410 1_655 S
C903 H925 0.974 . S
C904 H900 0.949 . S
C904 C912 1.574 . S
C904 C920 1.368 . S
H905 C913 0.950 . S
H906 C911 0.950 . S
H907 C912 0.949 . S
H908 C914 0.950 . S
H909 C915 0.950 . S
H910 C916 0.949 . S
C911 H906 0.950 . S
C911 C913 1.327 . S
C911 C917 1.429 1_655 S
C912 C904 1.574 . S
C912 H907 0.949 . S
C912 C918 1.368 . S
C913 C897 1.349 1_655 S
C913 H905 0.950 . S
C913 C911 1.327 . S
C914 C902 1.349 . S
C914 H908 0.950 . S
C914 C915 1.327 . S
C915 H909 0.950 . S
C915 C914 1.327 . S
C915 C919 1.429 . S
C916 C899 1.574 . S
C916 H910 0.949 . S
C916 C920 1.368 1_655 S
C917 C898 1.429 . S
C917 C911 1.429 1_455 S
C917 C918 1.523 . S
C918 C899 1.368 1_455 S
C918 C912 1.368 . S
C918 C917 1.523 . S
C919 C903 1.410 1_455 S
C919 C915 1.429 . S
C919 C920 1.523 . S
C920 C904 1.368 . S
C920 C916 1.368 1_455 S
C920 C919 1.523 . S
H921 C896 0.950 . S
H922 C898 0.950 . S
H923 C899 0.949 . S
H924 C901 0.947 1_655 S
H925 C903 0.974 . S
C926 C927 1.349 . S
C926 C928 1.327 . S
C926 H951 0.950 . S
C927 C926 1.349 . S
C927 C943 1.349 . S
C928 C926 1.327 . S
C928 C947 1.429 . S
C928 H952 0.950 . S
C929 C946 1.574 . S
C929 C948 1.368 . S
C929 H953 0.949 1_545 S
H930 C934 0.949 . S
C931 C932 1.349 . S
C931 C933 1.327 . S
C931 H954 0.950 1_545 S
C932 C931 1.349 . S
C932 C944 1.349 . S
C933 C931 1.327 . S
C933 C949 1.429 . S
C933 H955 0.950 1_545 S
C934 H930 0.949 . S
C934 C942 1.574 . S
C934 C950 1.368 . S
H935 C943 0.950 1_565 S
H936 C941 0.950 1_565 S
H937 C942 0.949 . S
H938 C944 0.950 . S
H939 C945 0.950 . S
H940 C946 0.949 1_565 S
C941 H936 0.950 1_545 S
C941 C943 1.327 . S
C941 C947 1.429 . S
C942 C934 1.574 . S
C942 H937 0.949 . S
C942 C948 1.368 . S
C943 C927 1.349 . S
C943 H935 0.950 1_545 S
C943 C941 1.327 . S
C944 C932 1.349 . S
C944 H938 0.950 . S
C944 C945 1.327 . S
C945 H939 0.950 . S
C945 C944 1.327 . S
C945 C949 1.429 . S
C946 C929 1.574 . S
C946 H940 0.949 1_545 S
C946 C950 1.368 . S
C947 C928 1.429 . S
C947 C941 1.429 . S
C947 C948 1.523 . S
C948 C929 1.368 . S
C948 C942 1.368 . S
C948 C947 1.523 . S
C949 C933 1.429 . S
C949 C945 1.429 . S
C949 C950 1.523 . S
C950 C934 1.368 . S
C950 C946 1.368 . S
C950 C949 1.523 . S
H951 C926 0.950 . S
H952 C928 0.950 . S
H953 C929 0.949 1_565 S
H954 C931 0.950 1_565 S
H955 C933 0.950 1_565 S
C956 C957 1.349 . S
C956 C958 1.327 . S
C956 H981 0.950 . S
C957 C956 1.349 . S
C957 C973 1.349 . S
C958 C956 1.327 . S
C958 C977 1.429 . S
C958 H982 0.950 . S
C959 C976 1.574 . S
C959 C978 1.368 . S
C959 H983 0.949 . S
H960 C964 0.949 . S
C961 C962 1.349 . S
C961 C963 1.327 . S
C961 H984 0.950 . S
C962 C961 1.349 . S
C962 C974 1.349 . S
C963 C961 1.327 . S
C963 C979 1.429 . S
C963 H985 0.950 . S
C964 H960 0.949 . S
C964 C972 1.574 . S
C964 C980 1.368 . S
H965 C973 0.950 . S
H966 C971 0.950 . S
H967 C972 0.949 . S
H968 C974 0.950 . S
H969 C975 0.950 . S
H970 C976 0.949 . S
C971 H966 0.950 . S
C971 C973 1.327 . S
C971 C977 1.429 . S
C972 C964 1.574 . S
C972 H967 0.949 . S
C972 C978 1.368 . S
C973 C957 1.349 . S
C973 H965 0.950 . S
C973 C971 1.327 . S
C974 C962 1.349 . S
C974 H968 0.950 . S
C974 C975 1.327 . S
C975 H969 0.950 . S
C975 C974 1.327 . S
C975 C979 1.429 . S
C976 C959 1.574 . S
C976 H970 0.949 . S
C976 C980 1.368 . S
C977 C958 1.429 . S
C977 C971 1.429 . S
C977 C978 1.523 . S
C978 C959 1.368 . S
C978 C972 1.368 . S
C978 C977 1.523 . S
C979 C963 1.429 . S
C979 C975 1.429 . S
C979 C980 1.523 . S
C980 C964 1.368 . S
C980 C976 1.368 . S
C980 C979 1.523 . S
H981 C956 0.950 . S
H982 C958 0.950 . S
H983 C959 0.949 . S
H984 C961 0.950 . S
H985 C963 0.950 . S
C986 C987 1.349 . S
C986 C988 1.327 . S
C986 H1011 0.950 . S
C987 C986 1.349 . S
C987 C1003 1.349 . S
C988 C986 1.327 . S
C988 C1007 1.429 . S
C988 H1012 0.950 . S
C989 C1006 1.574 . S
C989 C1008 1.368 . S
C989 H1013 0.949 . S
H990 C994 0.949 . S
C991 C992 1.349 . S
C991 C993 1.327 . S
C991 H1014 0.950 . S
C992 C991 1.349 . S
C992 C1004 1.349 . S
C993 C991 1.327 . S
C993 C1009 1.429 . S
C993 H1015 0.950 . S
C994 H990 0.949 . S
C994 C1002 1.574 . S
C994 C1010 1.368 . S
H995 C1003 0.950 . S
H996 C1001 0.950 . S
H997 C1002 0.949 . S
H998 C1004 0.950 . S
H999 C1005 0.950 . S
H1000 C1006 0.949 . S
C1001 H996 0.950 . S
C1001 C1003 1.327 . S
C1001 C1007 1.429 . S
C1002 C994 1.574 . S
C1002 H997 0.949 . S
C1002 C1008 1.368 . S
C1003 C987 1.349 . S
C1003 H995 0.950 . S
C1003 C1001 1.327 . S
C1004 C992 1.349 . S
C1004 H998 0.950 . S
C1004 C1005 1.327 . S
C1005 H999 0.950 . S
C1005 C1004 1.327 . S
C1005 C1009 1.429 . S
C1006 C989 1.574 . S
C1006 H1000 0.949 . S
C1006 C1010 1.368 . S
C1007 C988 1.429 . S
C1007 C1001 1.429 . S
C1007 C1008 1.523 . S
C1008 C989 1.368 . S
C1008 C1002 1.368 . S
C1008 C1007 1.523 . S
C1009 C993 1.429 . S
C1009 C1005 1.429 . S
C1009 C1010 1.523 . S
C1010 C994 1.368 . S
C1010 C1006 1.368 . S
C1010 C1009 1.523 . S
H1011 C986 0.950 . S
H1012 C988 0.950 . S
H1013 C989 0.949 . S
H1014 C991 0.950 . S
H1015 C993 0.950 . S
C1016 C1017 1.349 1_455 S
C1016 C1018 1.327 . S
C1016 H1041 0.950 . S
C1017 C1016 1.349 1_655 S
C1017 C1033 1.349 . S
C1018 C1016 1.327 . S
C1018 C1037 1.429 1_455 S
C1018 H1042 0.950 . S
C1019 C1036 1.574 . S
C1019 C1038 1.368 . S
C1019 H1043 0.949 . S
H1020 C1024 0.949 . S
C1021 C1022 1.349 . S
C1021 C1023 1.327 . S
C1021 H1044 0.950 . S
C1022 C1021 1.349 . S
C1022 C1034 1.349 . S
C1023 C1021 1.327 . S
C1023 C1039 1.429 . S
C1023 H1045 0.950 . S
C1024 H1020 0.949 . S
C1024 C1032 1.574 . S
C1024 C1040 1.368 1_455 S
H1025 C1033 0.950 . S
H1026 C1031 0.950 . S
H1027 C1032 0.949 . S
H1028 C1034 0.950 1_455 S
H1029 C1035 0.941 1_455 S
H1030 C1036 0.949 . S
C1031 H1026 0.950 . S
C1031 C1033 1.327 . S
C1031 C1037 1.429 . S
C1032 C1024 1.574 . S
C1032 H1027 0.949 . S
C1032 C1038 1.368 1_455 S
C1033 C1017 1.349 . S
C1033 H1025 0.950 . S
C1033 C1031 1.327 . S
C1034 C1022 1.349 . S
C1034 H1028 0.950 1_655 S
C1034 C1035 1.329 . S
C1035 H1029 0.941 1_655 S
C1035 C1034 1.329 . S
C1035 C1039 1.436 . S
C1036 C1019 1.574 . S
C1036 H1030 0.949 . S
C1036 C1040 1.368 . S
C1037 C1018 1.429 1_655 S
C1037 C1031 1.429 . S
C1037 C1038 1.523 . S
C1038 C1019 1.368 . S
C1038 C1032 1.368 1_655 S
C1038 C1037 1.523 . S
C1039 C1023 1.429 . S
C1039 C1035 1.436 . S
C1039 C1040 1.523 . S
C1040 C1024 1.368 1_655 S
C1040 C1036 1.368 . S
C1040 C1039 1.523 . S
H1041 C1016 0.950 . S
H1042 C1018 0.950 . S
H1043 C1019 0.949 . S
H1044 C1021 0.950 . S
H1045 C1023 0.950 . S
C1046 C1047 1.349 1_545 S
C1046 C1048 1.327 . S
C1046 H1071 0.950 . S
C1047 C1046 1.349 1_565 S
C1047 C1063 1.349 . S
C1048 C1046 1.327 . S
C1048 C1067 1.429 1_545 S
C1048 H1072 0.950 . S
C1049 C1066 1.574 . S
C1049 C1068 1.368 . S
C1049 H1073 0.949 . S
H1050 C1054 0.949 . S
C1051 C1052 1.349 . S
C1051 C1053 1.327 . S
C1051 H1074 0.950 . S
C1052 C1051 1.349 . S
C1052 C1064 1.349 1_565 S
C1053 C1051 1.327 . S
C1053 C1069 1.429 . S
C1053 H1075 0.950 . S
C1054 H1050 0.949 . S
C1054 C1062 1.574 . S
C1054 C1070 1.368 1_545 S
H1055 C1063 0.950 . S
H1056 C1061 0.950 . S
H1057 C1062 0.949 . S
H1058 C1064 0.950 . S
H1059 C1065 0.950 . S
H1060 C1066 0.949 . S
C1061 H1056 0.950 . S
C1061 C1063 1.327 . S
C1061 C1067 1.429 . S
C1062 C1054 1.574 . S
C1062 H1057 0.949 . S
C1062 C1068 1.368 1_545 S
C1063 C1047 1.349 . S
C1063 H1055 0.950 . S
C1063 C1061 1.327 . S
C1064 C1052 1.349 1_545 S
C1064 H1058 0.950 . S
C1064 C1065 1.327 . S
C1065 H1059 0.950 . S
C1065 C1064 1.327 . S
C1065 C1069 1.429 1_545 S
C1066 C1049 1.574 . S
C1066 H1060 0.949 . S
C1066 C1070 1.368 . S
C1067 C1048 1.429 1_565 S
C1067 C1061 1.429 . S
C1067 C1068 1.523 . S
C1068 C1049 1.368 . S
C1068 C1062 1.368 1_565 S
C1068 C1067 1.523 . S
C1069 C1053 1.429 . S
C1069 C1065 1.429 1_565 S
C1069 C1070 1.523 . S
C1070 C1054 1.368 1_565 S
C1070 C1066 1.368 . S
C1070 C1069 1.523 . S
H1071 C1046 0.950 . S
H1072 C1048 0.950 . S
H1073 C1049 0.949 . S
H1074 C1051 0.950 . S
H1075 C1053 0.950 . S
C1076 C1077 1.349 . S
C1076 C1078 1.327 . S
C1076 H1101 0.950 . S
C1077 C1076 1.349 . S
C1077 C1093 1.349 . S
C1078 C1076 1.327 . S
C1078 C1097 1.429 . S
C1078 H1102 0.950 . S
C1079 C1096 1.574 . S
C1079 C1098 1.368 . S
C1079 H1103 0.949 . S
H1080 C1084 0.949 . S
C1081 C1082 1.349 . S
C1081 C1083 1.327 . S
C1081 H1104 0.950 . S
C1082 C1081 1.349 . S
C1082 C1094 1.349 . S
C1083 C1081 1.327 . S
C1083 C1099 1.429 . S
C1083 H1105 0.950 . S
C1084 H1080 0.949 . S
C1084 C1092 1.574 . S
C1084 C1100 1.368 . S
H1085 C1093 0.950 . S
H1086 C1091 0.950 . S
H1087 C1092 0.949 . S
H1088 C1094 0.950 . S
H1089 C1095 0.950 . S
H1090 C1096 0.949 . S
C1091 H1086 0.950 . S
C1091 C1093 1.327 . S
C1091 C1097 1.429 . S
C1092 C1084 1.574 . S
C1092 H1087 0.949 . S
C1092 C1098 1.368 . S
C1093 C1077 1.349 . S
C1093 H1085 0.950 . S
C1093 C1091 1.327 . S
C1094 C1082 1.349 . S
C1094 H1088 0.950 . S
C1094 C1095 1.327 . S
C1095 H1089 0.950 . S
C1095 C1094 1.327 . S
C1095 C1099 1.429 . S
C1096 C1079 1.574 . S
C1096 H1090 0.949 . S
C1096 C1100 1.368 . S
C1097 C1078 1.429 . S
C1097 C1091 1.429 . S
C1097 C1098 1.523 . S
C1098 C1079 1.368 . S
C1098 C1092 1.368 . S
C1098 C1097 1.523 . S
C1099 C1083 1.429 . S
C1099 C1095 1.429 . S
C1099 C1100 1.523 . S
C1100 C1084 1.368 . S
C1100 C1096 1.368 . S
C1100 C1099 1.523 . S
H1101 C1076 0.950 . S
H1102 C1078 0.950 . S
H1103 C1079 0.949 . S
H1104 C1081 0.950 . S
H1105 C1083 0.950 . S
C1106 C1107 1.349 . S
C1106 C1108 1.327 . S
C1106 H1131 0.950 . S
C1107 C1106 1.349 . S
C1107 C1123 1.349 . S
C1108 C1106 1.327 . S
C1108 C1127 1.429 . S
C1108 H1132 0.950 . S
C1109 C1126 1.574 . S
C1109 C1128 1.368 . S
C1109 H1133 0.949 . S
H1110 C1114 0.949 . S
C1111 C1112 1.349 . S
C1111 C1113 1.327 . S
C1111 H1134 0.950 . S
C1112 C1111 1.349 . S
C1112 C1124 1.349 . S
C1113 C1111 1.327 . S
C1113 C1129 1.429 . S
C1113 H1135 0.950 . S
C1114 H1110 0.949 . S
C1114 C1122 1.574 . S
C1114 C1130 1.368 . S
H1115 C1123 0.950 . S
H1116 C1121 0.950 . S
H1117 C1122 0.949 . S
H1118 C1124 0.950 . S
H1119 C1125 0.950 . S
H1120 C1126 0.949 . S
C1121 H1116 0.950 . S
C1121 C1123 1.327 . S
C1121 C1127 1.429 . S
C1122 C1114 1.574 . S
C1122 H1117 0.949 . S
C1122 C1128 1.368 . S
C1123 C1107 1.349 . S
C1123 H1115 0.950 . S
C1123 C1121 1.327 . S
C1124 C1112 1.349 . S
C1124 H1118 0.950 . S
C1124 C1125 1.327 . S
C1125 H1119 0.950 . S
C1125 C1124 1.327 . S
C1125 C1129 1.429 . S
C1126 C1109 1.574 . S
C1126 H1120 0.949 . S
C1126 C1130 1.368 . S
C1127 C1108 1.429 . S
C1127 C1121 1.429 . S
C1127 C1128 1.523 . S
C1128 C1109 1.368 . S
C1128 C1122 1.368 . S
C1128 C1127 1.523 . S
C1129 C1113 1.429 . S
C1129 C1125 1.429 . S
C1129 C1130 1.523 . S
C1130 C1114 1.368 . S
C1130 C1126 1.368 . S
C1130 C1129 1.523 . S
H1131 C1106 0.950 . S
H1132 C1108 0.950 . S
H1133 C1109 0.949 . S
H1134 C1111 0.950 . S
H1135 C1113 0.950 . S
C417 C215 1.813 . S
C422 C266 1.905 . S
C452 C306 1.901 . S
C447 C247 1.796 . S
C482 C346 1.911 . S
C477 C151 1.815 . S
C512 C386 1.895 1_455 S
C507 C183 1.794 . S
C542 C275 1.916 . S
C537 C87 1.797 . S
C567 C119 1.800 . S
C572 C315 1.901 . S
C597 C23 1.792 . S
C602 C355 1.910 . S
C627 C55 1.794 1_655 S
C632 C395 1.896 1_655 S
C662 C272 0.317 . S
C657 C189 0.248 . S
C692 C312 0.334 . S
C687 C221 0.239 . S
C722 C352 0.316 . S
C717 C253 0.252 . S
C747 C157 0.236 . S
C752 C392 0.330 . S
C777 C61 0.439 1_655 S
C782 C263 0.305 . S
C812 C303 0.334 . S
C807 C93 0.476 . S
C842 C343 0.317 . S
C837 C125 0.436 . S
C867 C29 0.476 . S
C872 C383 0.338 . S
C897 C177 2.234 . S
C902 C267 2.484 . S
C927 C209 2.246 . S
C932 C307 2.485 . S
C962 C347 2.480 . S
C957 C241 2.229 . S
C992 C387 2.492 . S
C987 C145 2.248 . S
C1017 C49 2.252 1_655 S
C1022 C258 2.485 . S
C1052 C298 2.485 . S
C1047 C81 2.240 . S
C1082 C338 2.481 . S
C1077 C113 2.249 . S
C1107 C17 2.247 . S
C1112 C378 2.499 . S
