# Generated by pormake.
# Topology pyr, (3,6)-cn, num edge types: 1
# Building blocks:
#     Node 0, Type 0, BuildingBlock: PAMTOO_clean_linker_0, # of connection points: 3
#     Node 1, Type 0, BuildingBlock: PAMTOO_clean_linker_0, # of connection points: 3
#     Node 2, Type 0, BuildingBlock: PAMTOO_clean_linker_0, # of connection points: 3
#     Node 3, Type 0, BuildingBlock: PAMTOO_clean_linker_0, # of connection points: 3
#     Node 4, Type 0, BuildingBlock: PAMTOO_clean_linker_0, # of connection points: 3
#     Node 5, Type 0, BuildingBlock: PAMTOO_clean_linker_0, # of connection points: 3
#     Node 6, Type 0, BuildingBlock: PAMTOO_clean_linker_0, # of connection points: 3
#     Node 7, Type 0, BuildingBlock: PAMTOO_clean_linker_0, # of connection points: 3
#     Node 8, Type 1, BuildingBlock: MIFKUJ_clean_sbu_0, # of connection points: 6
#     Node 9, Type 1, BuildingBlock: MIFKUJ_clean_sbu_0, # of connection points: 6
#     Node 10, Type 1, BuildingBlock: MIFKUJ_clean_sbu_0, # of connection points: 6
#     Node 11, Type 1, BuildingBlock: MIFKUJ_clean_sbu_0, # of connection points: 6
#     Edge 12, Type (0, 1), BuildingBlock: OJICUG_clean_linker_0, # of connection points: 2
#     Edge 13, Type (0, 1), BuildingBlock: OJICUG_clean_linker_0, # of connection points: 2
#     Edge 14, Type (0, 1), BuildingBlock: OJICUG_clean_linker_0, # of connection points: 2
#     Edge 15, Type (0, 1), BuildingBlock: OJICUG_clean_linker_0, # of connection points: 2
#     Edge 16, Type (0, 1), BuildingBlock: OJICUG_clean_linker_0, # of connection points: 2
#     Edge 17, Type (0, 1), BuildingBlock: OJICUG_clean_linker_0, # of connection points: 2
#     Edge 18, Type (0, 1), BuildingBlock: OJICUG_clean_linker_0, # of connection points: 2
#     Edge 19, Type (0, 1), BuildingBlock: OJICUG_clean_linker_0, # of connection points: 2
#     Edge 20, Type (0, 1), BuildingBlock: OJICUG_clean_linker_0, # of connection points: 2
#     Edge 21, Type (0, 1), BuildingBlock: OJICUG_clean_linker_0, # of connection points: 2
#     Edge 22, Type (0, 1), BuildingBlock: OJICUG_clean_linker_0, # of connection points: 2
#     Edge 23, Type (0, 1), BuildingBlock: OJICUG_clean_linker_0, # of connection points: 2
#     Edge 24, Type (0, 1), BuildingBlock: OJICUG_clean_linker_0, # of connection points: 2
#     Edge 25, Type (0, 1), BuildingBlock: OJICUG_clean_linker_0, # of connection points: 2
#     Edge 26, Type (0, 1), BuildingBlock: OJICUG_clean_linker_0, # of connection points: 2
#     Edge 27, Type (0, 1), BuildingBlock: OJICUG_clean_linker_0, # of connection points: 2
#     Edge 28, Type (0, 1), BuildingBlock: OJICUG_clean_linker_0, # of connection points: 2
#     Edge 29, Type (0, 1), BuildingBlock: OJICUG_clean_linker_0, # of connection points: 2
#     Edge 30, Type (0, 1), BuildingBlock: OJICUG_clean_linker_0, # of connection points: 2
#     Edge 31, Type (0, 1), BuildingBlock: OJICUG_clean_linker_0, # of connection points: 2
#     Edge 32, Type (0, 1), BuildingBlock: OJICUG_clean_linker_0, # of connection points: 2
#     Edge 33, Type (0, 1), BuildingBlock: OJICUG_clean_linker_0, # of connection points: 2
#     Edge 34, Type (0, 1), BuildingBlock: OJICUG_clean_linker_0, # of connection points: 2
#     Edge 35, Type (0, 1), BuildingBlock: OJICUG_clean_linker_0, # of connection points: 2
# Relax obj value: 0.096
# Max RMSD: 0.219
# Mean RMSD: 0.139
data_MOF--net-pyr--node1-MIFKUJ_clean_sbu_0--node2-PAMTOO_clean_linker_0--edge1-OJICUG_clean_linker_0
_symmetry_space_group_name_H-M    P1
_symmetry_Int_Tables_number       1
_symmetry_cell_setting            triclinic
loop_
_symmetry_equiv_pos_as_xyz
'x, y, z'
_cell_length_a     28.151443
_cell_length_b     26.759036
_cell_length_c     27.340973
_cell_angle_alpha  84.478429
_cell_angle_beta   89.040294
_cell_angle_gamma 102.5924
loop_
_atom_site_label
_atom_site_type_symbol
_atom_site_fract_x
_atom_site_fract_y
_atom_site_fract_z
_atom_type_partial_charge
H0 H 0.1228 0.19722 0.26563 0.0
H1 H 0.22781 0.1022 0.28438 0.0
H2 H 0.23322 0.20289 0.1523 0.0
H3 H 0.24051 0.09816 0.13827 0.0
C4 C 0.26188 0.09006 0.17085 0.0
O5 O 0.27078 0.13186 0.19786 0.0
H6 H 0.23983 0.05587 0.19363 0.0
C7 C 0.15411 0.1847 0.25181 0.0
C8 C 0.17532 0.20509 0.20506 0.0
C9 C 0.17325 0.14818 0.28107 0.0
C10 C 0.21324 0.13116 0.26283 0.0
C11 C 0.23387 0.15026 0.21611 0.0
C12 C 0.21563 0.18765 0.1878 0.0
H13 H 0.33019 0.92254 0.75765 0.0
H14 H 0.31183 0.84087 0.62777 0.0
H15 H 0.4279 0.82637 0.72303 0.0
H16 H 0.45406 0.84402 0.62087 0.0
C17 C 0.42348 0.81582 0.60683 0.0
O18 O 0.38686 0.79887 0.64276 0.0
H19 H 0.40907 0.83581 0.57473 0.0
C20 C 0.34141 0.89686 0.73374 0.0
C21 C 0.38192 0.87572 0.74591 0.0
C22 C 0.31522 0.88452 0.69116 0.0
C23 C 0.33132 0.85164 0.66032 0.0
C24 C 0.37196 0.83109 0.67193 0.0
C25 C 0.39659 0.84269 0.71468 0.0
H26 H 0.75168 0.28913 0.92781 0.0
H27 H 0.63626 0.29315 0.82632 0.0
H28 H 0.76302 0.41607 0.81546 0.0
H29 H 0.67466 0.45054 0.799 0.0
C30 C 0.65291 0.41805 0.78082 0.0
O31 O 0.67961 0.38076 0.77754 0.0
H32 H 0.61898 0.40163 0.80359 0.0
C33 C 0.73629 0.30819 0.89721 0.0
C34 C 0.76308 0.35539 0.87394 0.0
C35 C 0.69035 0.28495 0.88042 0.0
C36 C 0.671 0.31051 0.84058 0.0
C37 C 0.69721 0.35773 0.81744 0.0
C38 C 0.74305 0.37975 0.83398 0.0
H39 H 0.82522 0.69692 0.38371 0.0
H40 H 0.84859 0.57564 0.30002 0.0
H41 H 0.95219 0.72052 0.28697 0.0
H42 H 0.92373 0.67412 0.19258 0.0
C43 C 0.91766 0.6327 0.20666 0.0
O44 O 0.92908 0.62864 0.25559 0.0
H45 H 0.87849 0.61489 0.20271 0.0
C46 C 0.84728 0.68255 0.35787 0.0
C47 C 0.8907 0.71483 0.33747 0.0
C48 C 0.83147 0.63239 0.34468 0.0
C49 C 0.86007 0.61422 0.31084 0.0
C50 C 0.90338 0.64596 0.29001 0.0
C51 C 0.91895 0.69605 0.30366 0.0
H52 H 0.83489 0.94543 0.76382 0.0
H53 H 0.8243 0.83564 0.89234 0.0
H54 H 0.93385 0.84357 0.77982 0.0
H55 H 0.87906 0.74329 0.81051 0.0
C56 C 0.87535 0.74524 0.85088 0.0
O57 O 0.89415 0.7946 0.86224 0.0
H58 H 0.83584 0.73396 0.86154 0.0
C59 C 0.84791 0.91533 0.78533 0.0
C60 C 0.88771 0.89799 0.76685 0.0
C61 C 0.82467 0.89367 0.83098 0.0
C62 C 0.84132 0.85331 0.85724 0.0
C63 C 0.88032 0.83534 0.83846 0.0
C64 C 0.90402 0.85833 0.79405 0.0
H65 H 0.75002 0.08568 0.25966 0.0
H66 H 0.65185 0.18535 0.28177 0.0
H67 H 0.76393 0.17653 0.38332 0.0
H68 H 0.66778 0.17685 0.42892 0.0
C69 C 0.65452 0.20131 0.39929 0.0
O70 O 0.68997 0.21734 0.36218 0.0
H71 H 0.62122 0.17768 0.38474 0.0
C72 C 0.7381 0.11324 0.28079 0.0
C73 C 0.76232 0.12798 0.32381 0.0
C74 C 0.69853 0.13427 0.26475 0.0
C75 C 0.68272 0.16937 0.29278 0.0
C76 C 0.70585 0.18366 0.33566 0.0
C77 C 0.74575 0.16364 0.35072 0.0
H78 H 0.34303 0.70462 0.0914 0.0
H79 H 0.33803 0.58755 0.21263 0.0
H80 H 0.46065 0.71482 0.19196 0.0
H81 H 0.48539 0.61515 0.22287 0.0
C82 C 0.45184 0.5963 0.24535 0.0
O83 O 0.42128 0.63014 0.24699 0.0
H84 H 0.43323 0.56193 0.22761 0.0
C85 C 0.3595 0.68901 0.12321 0.0
C86 C 0.40534 0.7155 0.13777 0.0
C87 C 0.33452 0.64281 0.15009 0.0
C88 C 0.35626 0.62312 0.19151 0.0
C89 C 0.40172 0.64881 0.20611 0.0
C90 C 0.42603 0.69478 0.1794 0.0
H91 H 0.10576 0.28589 0.79122 0.0
H92 H 0.2171 0.4268 0.77764 0.0
H93 H 0.22965 0.30608 0.69053 0.0
H94 H 0.31549 0.34782 0.73229 0.0
C95 C 0.31376 0.38899 0.73224 0.0
O96 O 0.27078 0.39685 0.71287 0.0
H97 H 0.31551 0.39875 0.77095 0.0
C98 C 0.13938 0.30947 0.77444 0.0
C99 C 0.16572 0.28966 0.73943 0.0
C100 C 0.15729 0.35965 0.78813 0.0
C101 C 0.20164 0.38899 0.76661 0.0
C102 C 0.22734 0.3694 0.73179 0.0
C103 C 0.20906 0.32052 0.71772 0.0
Zn104 Zn 0.09038 0.03005 0.5788 0.0
Zn105 Zn 0.97909 0.99398 0.46793 0.0
C106 C 0.13066 0.10349 0.64533 0.0
O107 O 0.16984 0.08715 0.63416 0.0
C108 C 0.93508 0.91043 0.41804 0.0
O109 O 0.89766 0.92726 0.43379 0.0
O110 O 0.13635 0.98271 0.60092 0.0
O111 O 0.02069 0.9944 0.56723 0.0
O112 O 0.95047 0.96448 0.53606 0.0
C113 C 0.14458 0.96849 0.64525 0.0
O114 O 0.11892 0.98056 0.68111 0.0
O115 O 0.09085 0.0845 0.62601 0.0
C116 C 0.92701 0.04468 0.39179 0.0
O117 O 0.95237 0.02534 0.3607 0.0
O118 O 0.93452 0.03852 0.43761 0.0
O119 O 0.0478 0.03333 0.47888 0.0
O120 O 0.1167 0.06615 0.51148 0.0
O121 O 0.9777 0.93374 0.4279 0.0
C122 C 0.97646 0.97044 0.57366 0.0
C123 C 0.09082 0.06089 0.47365 0.0
Zn124 Zn 0.57939 0.97114 0.96962 0.0
Zn125 Zn 0.51346 0.02602 0.03551 0.0
C126 C 0.50753 0.9187 0.90958 0.0
O127 O 0.52252 0.88024 0.93329 0.0
C128 C 0.58173 0.08238 0.09656 0.0
O129 O 0.56627 0.11945 0.07098 0.0
O130 O 0.63344 0.94227 0.94106 0.0
O131 O 0.60961 0.04652 0.97538 0.0
O132 O 0.54061 0.07205 0.97358 0.0
C133 C 0.66419 0.97004 0.90945 0.0
O134 O 0.65999 0.01717 0.89537 0.0
O135 O 0.52643 0.96429 0.91908 0.0
C136 C 0.43966 0.03763 0.10352 0.0
O137 O 0.45854 0.00404 0.13047 0.0
O138 O 0.45783 0.05397 0.06056 0.0
O139 O 0.48391 0.95007 0.03281 0.0
O140 O 0.55249 0.92358 0.03094 0.0
O141 O 0.56481 0.03614 0.08768 0.0
C142 C 0.58632 0.08154 0.96467 0.0
C143 C 0.50718 0.91477 0.04211 0.0
Zn144 Zn 0.56712 0.46559 0.49008 0.0
Zn145 Zn 0.54185 0.56097 0.53823 0.0
C146 C 0.64303 0.51462 0.42119 0.0
O147 O 0.61405 0.48568 0.39285 0.0
C148 C 0.47702 0.51359 0.61336 0.0
O149 O 0.51013 0.54627 0.6345 0.0
O150 O 0.57362 0.3974 0.46755 0.0
O151 O 0.56507 0.45666 0.5642 0.0
O152 O 0.59754 0.53759 0.57429 0.0
C153 C 0.61177 0.38129 0.47875 0.0
O154 O 0.64355 0.4081 0.50626 0.0
O155 O 0.62986 0.51448 0.46594 0.0
C156 C 0.49203 0.64055 0.54484 0.0
O157 O 0.46404 0.60952 0.51742 0.0
O158 O 0.53178 0.62938 0.55889 0.0
O159 O 0.5416 0.5692 0.46351 0.0
O160 O 0.512 0.48783 0.45386 0.0
O161 O 0.48181 0.51081 0.56739 0.0
C162 C 0.59027 0.48976 0.58934 0.0
C163 C 0.51767 0.53521 0.43849 0.0
Zn164 Zn 0.02709 0.52562 0.97434 0.0
Zn165 Zn 0.07416 0.45398 0.05462 0.0
C166 C 0.95396 0.46115 0.92941 0.0
O167 O 0.98479 0.48474 0.89353 0.0
C168 C 0.14682 0.52114 0.10188 0.0
O169 O 0.11605 0.49926 0.13839 0.0
O170 O 0.00924 0.58565 0.93437 0.0
O171 O 0.04157 0.55211 0.04021 0.0
O172 O 0.01779 0.47837 0.08521 0.0
C173 C 0.97283 0.59881 0.95339 0.0
O174 O 0.95336 0.5742 0.99536 0.0
O175 O 0.96461 0.46997 0.97338 0.0
C176 C 0.11169 0.36532 0.08303 0.0
O177 O 0.12918 0.37577 0.03747 0.0
O178 O 0.08556 0.39358 0.09968 0.0
O179 O 0.06791 0.42842 0.98636 0.0
O180 O 0.0799 0.50181 0.93884 0.0
O181 O 0.13662 0.5093 0.05863 0.0
C182 C 0.02013 0.5265 0.07878 0.0
C183 C 0.08088 0.45433 0.94496 0.0
C184 C 0.10107 0.10881 0.33794 0.0
C185 C 0.1516 0.12748 0.33064 0.0
H186 H 0.04221 0.07269 0.389 0.0
C187 C 0.1817 0.12531 0.37087 0.0
H188 H 0.07709 0.10979 0.30745 0.0
C189 C 0.16178 0.1045 0.41743 0.0
C190 C 0.11137 0.0848 0.42464 0.0
H191 H 0.22073 0.13986 0.36631 0.0
H192 H 0.18605 0.10312 0.44762 0.0
C193 C 0.08117 0.08734 0.38447 0.0
C194 C 0.42615 0.93814 0.80244 0.0
C195 C 0.40947 0.88727 0.79101 0.0
H196 H 0.4706 0.98832 0.84877 0.0
C197 C 0.42243 0.84712 0.82107 0.0
H198 H 0.41691 0.96989 0.77981 0.0
C199 C 0.45296 0.85753 0.86028 0.0
C200 C 0.4716 0.90845 0.87051 0.0
H201 H 0.40961 0.80746 0.81367 0.0
H202 H 0.46283 0.82548 0.88186 0.0
C203 C 0.45709 0.94867 0.84175 0.0
C204 C 0.64984 0.48972 0.71353 0.0
C205 C 0.63911 0.43692 0.73022 0.0
H206 H 0.64307 0.54801 0.65601 0.0
C207 C 0.61295 0.40191 0.70009 0.0
H208 H 0.66961 0.51764 0.73624 0.0
C209 C 0.59784 0.41916 0.65424 0.0
C210 C 0.60816 0.47202 0.63747 0.0
H211 H 0.60379 0.36111 0.7123 0.0
H212 H 0.57754 0.39092 0.63217 0.0
C213 C 0.63458 0.5071 0.66762 0.0
C214 C 0.97915 0.63291 0.13839 0.0
C215 C 0.9477 0.60539 0.17684 0.0
H216 H 0.02661 0.62969 0.07763 0.0
C217 C 0.94209 0.55169 0.18478 0.0
H218 H 0.98408 0.67429 0.13139 0.0
C219 C 0.96658 0.52582 0.1539 0.0
C220 C 0.9969 0.55327 0.11437 0.0
H221 H 0.91781 0.5297 0.21415 0.0
H222 H 0.96078 0.48432 0.16021 0.0
C223 C 1.00341 0.6072 0.10753 0.0
C224 C 0.33128 0.10017 0.10849 0.0
C225 C 0.30923 0.0786 0.15436 0.0
H226 H 0.38982 0.10403 0.05625 0.0
C227 C 0.33192 0.04626 0.18475 0.0
H228 H 0.31477 0.12592 0.08482 0.0
C229 C 0.37483 0.03373 0.1686 0.0
C230 C 0.39605 0.05367 0.12186 0.0
H231 H 0.31589 0.02992 0.22063 0.0
H232 H 0.39091 0.00779 0.19249 0.0
C233 C 0.37421 0.08767 0.09227 0.0
C234 C 0.26089 0.91964 0.63021 0.0
C235 C 0.27084 0.9051 0.67923 0.0
H236 H 0.2135 0.95043 0.58098 0.0
C237 C 0.23767 0.90992 0.71669 0.0
H238 H 0.28571 0.91714 0.60032 0.0
C239 C 0.19627 0.92934 0.70555 0.0
C240 C 0.18669 0.94438 0.65662 0.0
H241 H 0.24343 0.89829 0.75477 0.0
H242 H 0.17193 0.9329 0.73549 0.0
C243 C 0.21939 0.9389 0.61906 0.0
C244 C 0.82269 0.38353 0.9395 0.0
C245 C 0.81276 0.37866 0.88965 0.0
H246 H 0.87517 0.41363 0.99156 0.0
C247 C 0.85051 0.39777 0.85407 0.0
H248 H 0.79427 0.36917 0.96776 0.0
C249 C 0.89651 0.42273 0.86758 0.0
C250 C 0.90617 0.42962 0.9171 0.0
H251 H 0.84436 0.39378 0.81549 0.0
H252 H 0.92427 0.43762 0.83877 0.0
C253 C 0.86896 0.40899 0.95311 0.0
C254 C 0.75136 0.5721 0.33398 0.0
C255 C 0.78401 0.60036 0.36483 0.0
H256 H 0.68113 0.52336 0.32743 0.0
C257 C 0.76998 0.59991 0.41453 0.0
H258 H 0.76078 0.57225 0.29538 0.0
C259 C 0.72413 0.57236 0.43281 0.0
C260 C 0.69131 0.54453 0.40183 0.0
H261 H 0.79453 0.62083 0.43939 0.0
H262 H 0.71448 0.57282 0.47126 0.0
C263 C 0.70552 0.54449 0.35228 0.0
C264 C 0.13842 0.28325 0.19562 0.0
C265 C 0.15587 0.24456 0.17422 0.0
H266 H 0.11029 0.35157 0.18361 0.0
C267 C 0.15593 0.24471 0.12274 0.0
H268 H 0.13833 0.28482 0.23504 0.0
C269 C 0.14087 0.28354 0.09337 0.0
C270 C 0.12446 0.32266 0.11472 0.0
H271 H 0.16782 0.21489 0.10491 0.0
H272 H 0.14221 0.28295 0.05381 0.0
C273 C 0.12254 0.32169 0.16617 0.0
C274 C 0.61272 0.22202 0.91116 0.0
C275 C 0.6636 0.23314 0.90295 0.0
H276 H 0.5485 0.16589 0.93712 0.0
C277 C 0.6887 0.19392 0.91544 0.0
H278 H 0.59224 0.25139 0.90243 0.0
C279 C 0.66365 0.14491 0.93537 0.0
C280 C 0.61277 0.13373 0.94345 0.0
H281 H 0.72775 0.20076 0.90896 0.0
H282 H 0.68428 0.11571 0.94427 0.0
C283 C 0.58764 0.17299 0.93123 0.0
C284 C 0.8695 0.79758 0.35448 0.0
C285 C 0.90498 0.76819 0.35153 0.0
H286 H 0.85134 0.86529 0.37747 0.0
C287 C 0.95239 0.78852 0.36607 0.0
H288 H 0.83294 0.7835 0.34253 0.0
C289 C 0.96315 0.83597 0.38598 0.0
C290 C 0.9266 0.86364 0.39169 0.0
H291 H 0.98044 0.76669 0.36422 0.0
H292 H 0.99941 0.84987 0.39873 0.0
C293 C 0.88011 0.84454 0.37446 0.0
C294 C 0.48485 0.7588 0.60939 0.0
C295 C 0.44185 0.77071 0.59094 0.0
H296 H 0.53497 0.70873 0.60894 0.0
C297 C 0.41558 0.73951 0.55777 0.0
H298 H 0.50546 0.78199 0.63549 0.0
C299 C 0.43231 0.69773 0.54263 0.0
C300 C 0.47565 0.68596 0.56048 0.0
H301 H 0.38211 0.74761 0.54345 0.0
H302 H 0.41105 0.67457 0.5169 0.0
C303 C 0.50175 0.71697 0.59413 0.0
C304 C 0.88168 0.9219 0.67695 0.0
C305 C 0.91067 0.91901 0.71792 0.0
H306 H 0.8798 0.93977 0.59924 0.0
C307 C 0.96162 0.9339 0.71138 0.0
H308 H 0.84236 0.9101 0.68092 0.0
C309 C 0.98318 0.95125 0.66459 0.0
C310 C 0.95417 0.95319 0.62346 0.0
H311 H 0.98475 0.93211 0.74249 0.0
H312 H 0.02248 0.96246 0.66052 0.0
C313 C 0.90321 0.93849 0.63017 0.0
C314 C 0.65776 0.0687 0.20922 0.0
C315 C 0.67311 0.12032 0.21897 0.0
H316 H 0.61653 0.01589 0.16297 0.0
C317 C 0.66115 0.159 0.18612 0.0
H318 H 0.66626 0.03802 0.23396 0.0
C319 C 0.63285 0.14647 0.14576 0.0
C320 C 0.61554 0.09483 0.13706 0.0
H321 H 0.67308 0.19918 0.19211 0.0
H322 H 0.62367 0.17746 0.12196 0.0
C323 C 0.62911 0.05605 0.16871 0.0
C324 C 0.49147 0.61774 0.32528 0.0
C325 C 0.46626 0.58055 0.29658 0.0
H326 H 0.52715 0.63278 0.3926 0.0
C327 C 0.45695 0.52842 0.31531 0.0
H328 H 0.49934 0.65813 0.31149 0.0
C329 C 0.47304 0.51371 0.36159 0.0
C330 C 0.49883 0.55084 0.3902 0.0
H331 H 0.43778 0.4989 0.29385 0.0
H332 H 0.4657 0.47316 0.37465 0.0
C333 C 0.50745 0.6031 0.37163 0.0
C334 C 0.12869 0.43352 0.81961 0.0
C335 C 0.13201 0.3816 0.82632 0.0
H336 H 0.11018 0.49708 0.85141 0.0
C337 C 0.11545 0.35282 0.87144 0.0
H338 H 0.14058 0.45658 0.78503 0.0
C339 C 0.09804 0.37614 0.9097 0.0
C340 C 0.0967 0.42871 0.90362 0.0
H341 H 0.11787 0.3129 0.87789 0.0
H342 H 0.08662 0.35315 0.9444 0.0
C343 C 0.11128 0.45677 0.85772 0.0
C344 C 0.74354 0.87907 0.87708 0.0
C345 C 0.78314 0.91299 0.85094 0.0
H346 H 0.67509 0.87036 0.91615 0.0
C347 C 0.78287 0.96572 0.84422 0.0
H348 H 0.74195 0.83811 0.88231 0.0
C349 C 0.7441 0.98401 0.86288 0.0
C350 C 0.70482 0.95016 0.88927 0.0
H351 H 0.81302 0.9932 0.82514 0.0
H352 H 0.74529 0.02489 0.85714 0.0
C353 C 0.70499 0.89749 0.89626 0.0
C354 C 0.83961 0.09766 0.30724 0.0
C355 C 0.80484 0.10671 0.34095 0.0
H356 H 0.90552 0.07157 0.29671 0.0
C357 C 0.81151 0.09616 0.39155 0.0
H358 H 0.83626 0.10601 0.26808 0.0
C359 C 0.85172 0.07738 0.40797 0.0
C360 C 0.8862 0.06798 0.37429 0.0
H361 H 0.78519 0.10166 0.41872 0.0
H362 H 0.85518 0.06924 0.44716 0.0
C363 C 0.87967 0.07837 0.32371 0.0
C364 C 0.27509 0.60645 0.0871 0.0
C365 C 0.28535 0.61522 0.13619 0.0
H366 H 0.22339 0.56965 0.03747 0.0
C367 C 0.24866 0.59549 0.17283 0.0
H368 H 0.30262 0.62101 0.05801 0.0
C369 C 0.20358 0.56633 0.16115 0.0
C370 C 0.19372 0.55583 0.11246 0.0
H371 H 0.25494 0.60227 0.21085 0.0
H372 H 0.1767 0.55124 0.19073 0.0
C373 C 0.22977 0.57689 0.07536 0.0
C374 C 0.3897 0.45956 0.72154 0.0
C375 C 0.35592 0.42126 0.7013 0.0
H376 H 0.45446 0.51859 0.70958 0.0
C377 C 0.36198 0.41317 0.65179 0.0
H378 H 0.38576 0.46646 0.75964 0.0
C379 C 0.40126 0.44319 0.62283 0.0
C380 C 0.4352 0.48152 0.64314 0.0
H381 H 0.33623 0.38364 0.63561 0.0
H382 H 0.40514 0.43625 0.58474 0.0
C383 C 0.42901 0.48931 0.69279 0.0
C384 C 0.94276 0.69645 0.85564 0.0
C385 C 0.90194 0.70874 0.87774 0.0
H386 H 0.99735 0.6517 0.86218 0.0
C387 C 0.88661 0.6873 0.92569 0.0
H388 H 0.95566 0.71336 0.81892 0.0
C389 C 0.91037 0.65236 0.95047 0.0
C390 C 0.95022 0.63848 0.92788 0.0
H391 H 0.85575 0.69704 0.94369 0.0
H392 H 0.89704 0.63577 0.98716 0.0
C393 C 0.96662 0.6614 0.88044 0.0
C394 C 0.40554 0.80392 0.09641 0.0
C395 C 0.43108 0.76563 0.11095 0.0
H396 H 0.40934 0.88082 0.06386 0.0
C397 C 0.48182 0.77647 0.10158 0.0
H398 H 0.36658 0.79715 0.10353 0.0
C399 C 0.50645 0.82454 0.07885 0.0
C400 C 0.48103 0.86318 0.06515 0.0
H401 H 0.50257 0.7477 0.11184 0.0
H402 H 0.54552 0.83153 0.07245 0.0
C403 C 0.4302 0.8521 0.07396 0.0
C404 C 0.18443 0.20498 0.72765 0.0
C405 C 0.15053 0.23657 0.72532 0.0
H406 H 0.20455 0.13826 0.70446 0.0
C407 C 0.10664 0.22052 0.70183 0.0
H408 H 0.21846 0.21643 0.74579 0.0
C409 C 0.09858 0.17545 0.67783 0.0
C410 C 0.13447 0.14614 0.6769 0.0
H411 H 0.08015 0.24447 0.69925 0.0
H412 H 0.06561 0.16524 0.65775 0.0
C413 C 0.17657 0.1604 0.70367 0.0
C414 C 0.60106 0.26526 0.40645 0.0
C415 C 0.64278 0.24744 0.42024 0.0
H416 H 0.5581 0.32117 0.41455 0.0
C417 C 0.67422 0.2739 0.45309 0.0
H418 H 0.57657 0.24579 0.38068 0.0
C419 C 0.66382 0.317 0.47244 0.0
C420 C 0.62181 0.3347 0.45913 0.0
H421 H 0.70687 0.26112 0.46379 0.0
H422 H 0.68888 0.33654 0.4977 0.0
C423 C 0.59053 0.30832 0.42589 0.0
loop_
_geom_bond_atom_site_label_1
_geom_bond_atom_site_label_2
_geom_bond_distance
_geom_bond_site_symmetry_2
_ccdc_geom_bond_type
H0 C7 0.929 . S
H1 C10 0.930 . S
H2 C12 0.929 . S
H3 C4 0.969 . S
C4 H3 0.969 . S
C4 O5 1.550 . S
C4 H6 0.973 . S
O5 C4 1.550 . S
O5 C11 1.412 . S
H6 C4 0.973 . S
C7 H0 0.929 . S
C7 C8 1.400 . S
C7 C9 1.364 . S
C8 C7 1.400 . S
C8 C12 1.377 . S
C9 C7 1.364 . S
C9 C10 1.374 . S
C10 H1 0.930 . S
C10 C9 1.374 . S
C10 C11 1.383 . S
C11 O5 1.412 . S
C11 C10 1.383 . S
C11 C12 1.394 . S
C12 H2 0.929 . S
C12 C8 1.377 . S
C12 C11 1.394 . S
H13 C20 0.929 . S
H14 C23 0.930 . S
H15 C25 0.929 . S
H16 C17 0.969 . S
C17 H16 0.969 . S
C17 O18 1.550 . S
C17 H19 0.973 . S
O18 C17 1.550 . S
O18 C24 1.412 . S
H19 C17 0.973 . S
C20 H13 0.929 . S
C20 C21 1.400 . S
C20 C22 1.364 . S
C21 C20 1.400 . S
C21 C25 1.377 . S
C22 C20 1.364 . S
C22 C23 1.374 . S
C23 H14 0.930 . S
C23 C22 1.374 . S
C23 C24 1.383 . S
C24 O18 1.412 . S
C24 C23 1.383 . S
C24 C25 1.394 . S
C25 H15 0.929 . S
C25 C21 1.377 . S
C25 C24 1.394 . S
H26 C33 0.929 . S
H27 C36 0.930 . S
H28 C38 0.929 . S
H29 C30 0.969 . S
C30 H29 0.969 . S
C30 O31 1.550 . S
C30 H32 0.973 . S
O31 C30 1.550 . S
O31 C37 1.412 . S
H32 C30 0.973 . S
C33 H26 0.929 . S
C33 C34 1.400 . S
C33 C35 1.364 . S
C34 C33 1.400 . S
C34 C38 1.377 . S
C35 C33 1.364 . S
C35 C36 1.374 . S
C36 H27 0.930 . S
C36 C35 1.374 . S
C36 C37 1.383 . S
C37 O31 1.412 . S
C37 C36 1.383 . S
C37 C38 1.394 . S
C38 H28 0.929 . S
C38 C34 1.377 . S
C38 C37 1.394 . S
H39 C46 0.929 . S
H40 C49 0.930 . S
H41 C51 0.929 . S
H42 C43 0.969 . S
C43 H42 0.969 . S
C43 O44 1.550 . S
C43 H45 0.973 . S
O44 C43 1.550 . S
O44 C50 1.412 . S
H45 C43 0.973 . S
C46 H39 0.929 . S
C46 C47 1.400 . S
C46 C48 1.364 . S
C47 C46 1.400 . S
C47 C51 1.377 . S
C48 C46 1.364 . S
C48 C49 1.374 . S
C49 H40 0.930 . S
C49 C48 1.374 . S
C49 C50 1.383 . S
C50 O44 1.412 . S
C50 C49 1.383 . S
C50 C51 1.394 . S
C51 H41 0.929 . S
C51 C47 1.377 . S
C51 C50 1.394 . S
H52 C59 0.929 . S
H53 C62 0.930 . S
H54 C64 0.929 . S
H55 C56 0.969 . S
C56 H55 0.969 . S
C56 O57 1.550 . S
C56 H58 0.973 . S
O57 C56 1.550 . S
O57 C63 1.412 . S
H58 C56 0.973 . S
C59 H52 0.929 . S
C59 C60 1.400 . S
C59 C61 1.364 . S
C60 C59 1.400 . S
C60 C64 1.377 . S
C61 C59 1.364 . S
C61 C62 1.374 . S
C62 H53 0.930 . S
C62 C61 1.374 . S
C62 C63 1.383 . S
C63 O57 1.412 . S
C63 C62 1.383 . S
C63 C64 1.394 . S
C64 H54 0.929 . S
C64 C60 1.377 . S
C64 C63 1.394 . S
H65 C72 0.929 . S
H66 C75 0.930 . S
H67 C77 0.929 . S
H68 C69 0.969 . S
C69 H68 0.969 . S
C69 O70 1.550 . S
C69 H71 0.973 . S
O70 C69 1.550 . S
O70 C76 1.412 . S
H71 C69 0.973 . S
C72 H65 0.929 . S
C72 C73 1.400 . S
C72 C74 1.364 . S
C73 C72 1.400 . S
C73 C77 1.377 . S
C74 C72 1.364 . S
C74 C75 1.374 . S
C75 H66 0.930 . S
C75 C74 1.374 . S
C75 C76 1.383 . S
C76 O70 1.412 . S
C76 C75 1.383 . S
C76 C77 1.394 . S
C77 H67 0.929 . S
C77 C73 1.377 . S
C77 C76 1.394 . S
H78 C85 0.929 . S
H79 C88 0.930 . S
H80 C90 0.929 . S
H81 C82 0.969 . S
C82 H81 0.969 . S
C82 O83 1.550 . S
C82 H84 0.973 . S
O83 C82 1.550 . S
O83 C89 1.412 . S
H84 C82 0.973 . S
C85 H78 0.929 . S
C85 C86 1.400 . S
C85 C87 1.364 . S
C86 C85 1.400 . S
C86 C90 1.377 . S
C87 C85 1.364 . S
C87 C88 1.374 . S
C88 H79 0.930 . S
C88 C87 1.374 . S
C88 C89 1.383 . S
C89 O83 1.412 . S
C89 C88 1.383 . S
C89 C90 1.394 . S
C90 H80 0.929 . S
C90 C86 1.377 . S
C90 C89 1.394 . S
H91 C98 0.929 . S
H92 C101 0.930 . S
H93 C103 0.929 . S
H94 C95 0.969 . S
C95 H94 0.969 . S
C95 O96 1.550 . S
C95 H97 0.973 . S
O96 C95 1.550 . S
O96 C102 1.412 . S
H97 C95 0.973 . S
C98 H91 0.929 . S
C98 C99 1.400 . S
C98 C100 1.364 . S
C99 C98 1.400 . S
C99 C103 1.377 . S
C100 C98 1.364 . S
C100 C101 1.374 . S
C101 H92 0.930 . S
C101 C100 1.374 . S
C101 C102 1.383 . S
C102 O96 1.412 . S
C102 C101 1.383 . S
C102 C103 1.394 . S
C103 H93 0.929 . S
C103 C99 1.377 . S
C103 C102 1.394 . S
Zn104 O110 1.969 1_545 S
Zn104 O111 1.965 1_545 S
Zn104 O115 2.024 . S
Zn104 O120 1.969 . S
Zn105 O112 1.969 . S
Zn105 O118 1.969 1_565 S
Zn105 O119 1.965 1_665 S
Zn105 O121 2.024 . S
C106 O107 1.229 . S
C106 O115 1.058 . S
O107 C106 1.229 . S
C108 O109 1.229 . S
C108 O121 1.058 . S
O109 C108 1.229 . S
O110 Zn104 1.969 1_565 S
O110 C113 1.267 . S
O111 Zn104 1.965 1_565 S
O111 C122 1.260 1_455 S
O112 Zn105 1.969 . S
O112 C122 1.258 . S
C113 O110 1.267 . S
C113 O114 1.228 . S
O114 C113 1.228 . S
O115 Zn104 2.024 . S
O115 C106 1.058 . S
C116 O117 1.228 . S
C116 O118 1.267 . S
O117 C116 1.228 . S
O118 Zn105 1.969 1_545 S
O118 C116 1.267 . S
O119 Zn105 1.965 1_445 S
O119 C123 1.260 . S
O120 Zn104 1.969 . S
O120 C123 1.258 . S
O121 Zn105 2.024 . S
O121 C108 1.058 . S
C122 O111 1.260 1_655 S
C122 O112 1.258 . S
C123 O119 1.260 . S
C123 O120 1.258 . S
Zn124 O130 1.969 . S
Zn124 O131 1.965 1_565 S
Zn124 O135 2.024 . S
Zn124 O140 1.969 1_556 S
Zn125 O132 1.969 . S
Zn125 O138 1.969 . S
Zn125 O139 1.965 1_545 S
Zn125 O141 2.024 . S
C126 O127 1.229 . S
C126 O135 1.058 . S
O127 C126 1.229 . S
C128 O129 1.229 . S
C128 O141 1.058 . S
O129 C128 1.229 . S
O130 Zn124 1.969 . S
O130 C133 1.267 . S
O131 Zn124 1.965 1_545 S
O131 C142 1.260 . S
O132 Zn125 1.969 . S
O132 C142 1.258 1_554 S
C133 O130 1.267 . S
C133 O134 1.228 . S
O134 C133 1.228 . S
O135 Zn124 2.024 . S
O135 C126 1.058 . S
C136 O137 1.228 . S
C136 O138 1.267 . S
O137 C136 1.228 . S
O138 Zn125 1.969 . S
O138 C136 1.267 . S
O139 Zn125 1.965 1_565 S
O139 C143 1.260 . S
O140 Zn124 1.969 1_554 S
O140 C143 1.258 . S
O141 Zn125 2.024 . S
O141 C128 1.058 . S
C142 O131 1.260 . S
C142 O132 1.258 1_556 S
C143 O139 1.260 . S
C143 O140 1.258 . S
Zn144 O150 1.969 . S
Zn144 O151 1.965 . S
Zn144 O155 2.024 . S
Zn144 O160 1.969 . S
Zn145 O152 1.969 . S
Zn145 O158 1.969 . S
Zn145 O159 1.965 . S
Zn145 O161 2.024 . S
C146 O147 1.229 . S
C146 O155 1.058 . S
O147 C146 1.229 . S
C148 O149 1.229 . S
C148 O161 1.058 . S
O149 C148 1.229 . S
O150 Zn144 1.969 . S
O150 C153 1.267 . S
O151 Zn144 1.965 . S
O151 C162 1.260 . S
O152 Zn145 1.969 . S
O152 C162 1.258 . S
C153 O150 1.267 . S
C153 O154 1.228 . S
O154 C153 1.228 . S
O155 Zn144 2.024 . S
O155 C146 1.058 . S
C156 O157 1.228 . S
C156 O158 1.267 . S
O157 C156 1.228 . S
O158 Zn145 1.969 . S
O158 C156 1.267 . S
O159 Zn145 1.965 . S
O159 C163 1.260 . S
O160 Zn144 1.969 . S
O160 C163 1.258 . S
O161 Zn145 2.024 . S
O161 C148 1.058 . S
C162 O151 1.260 . S
C162 O152 1.258 . S
C163 O159 1.260 . S
C163 O160 1.258 . S
Zn164 O170 1.969 . S
Zn164 O171 1.965 1_656 S
Zn164 O175 2.024 . S
Zn164 O180 1.969 1_655 S
Zn165 O172 1.969 . S
Zn165 O178 1.969 . S
Zn165 O179 1.965 . S
Zn165 O181 2.024 . S
C166 O167 1.229 . S
C166 O175 1.058 . S
O167 C166 1.229 . S
C168 O169 1.229 . S
C168 O181 1.058 . S
O169 C168 1.229 . S
O170 Zn164 1.969 . S
O170 C173 1.267 . S
O171 Zn164 1.965 1_454 S
O171 C182 1.260 . S
O172 Zn165 1.969 . S
O172 C182 1.258 . S
C173 O170 1.267 . S
C173 O174 1.228 . S
O174 C173 1.228 . S
O175 Zn164 2.024 . S
O175 C166 1.058 . S
C176 O177 1.228 . S
C176 O178 1.267 . S
O177 C176 1.228 . S
O178 Zn165 1.969 . S
O178 C176 1.267 . S
O179 Zn165 1.965 . S
O179 C183 1.260 1_554 S
O180 Zn164 1.969 1_455 S
O180 C183 1.258 . S
O181 Zn165 2.024 . S
O181 C168 1.058 . S
C182 O171 1.260 . S
C182 O172 1.258 . S
C183 O179 1.260 1_556 S
C183 O180 1.258 . S
C184 C185 1.387 . S
C184 H188 0.950 . S
C184 C193 1.390 . S
C185 C184 1.387 . S
C185 C187 1.387 . S
H186 C193 0.950 . S
C187 C185 1.387 . S
C187 C189 1.390 . S
C187 H191 0.950 . S
H188 C184 0.950 . S
C189 C187 1.390 . S
C189 C190 1.387 . S
C189 H192 0.950 . S
C190 C189 1.387 . S
C190 C193 1.387 . S
H191 C187 0.950 . S
H192 C189 0.950 . S
C193 C184 1.390 . S
C193 H186 0.950 . S
C193 C190 1.387 . S
C194 C195 1.387 . S
C194 H198 0.950 . S
C194 C203 1.390 . S
C195 C194 1.387 . S
C195 C197 1.387 . S
H196 C203 0.950 . S
C197 C195 1.387 . S
C197 C199 1.390 . S
C197 H201 0.950 . S
H198 C194 0.950 . S
C199 C197 1.390 . S
C199 C200 1.387 . S
C199 H202 0.950 . S
C200 C199 1.387 . S
C200 C203 1.387 . S
H201 C197 0.950 . S
H202 C199 0.950 . S
C203 C194 1.390 . S
C203 H196 0.950 . S
C203 C200 1.387 . S
C204 C205 1.387 . S
C204 H208 0.950 . S
C204 C213 1.390 . S
C205 C204 1.387 . S
C205 C207 1.387 . S
H206 C213 0.950 . S
C207 C205 1.387 . S
C207 C209 1.390 . S
C207 H211 0.950 . S
H208 C204 0.950 . S
C209 C207 1.390 . S
C209 C210 1.387 . S
C209 H212 0.950 . S
C210 C209 1.387 . S
C210 C213 1.387 . S
H211 C207 0.950 . S
H212 C209 0.950 . S
C213 C204 1.390 . S
C213 H206 0.950 . S
C213 C210 1.387 . S
C214 C215 1.387 . S
C214 H218 0.950 . S
C214 C223 1.390 . S
C215 C214 1.387 . S
C215 C217 1.387 . S
H216 C223 0.950 1_455 S
C217 C215 1.387 . S
C217 C219 1.390 . S
C217 H221 0.950 . S
H218 C214 0.950 . S
C219 C217 1.390 . S
C219 C220 1.387 . S
C219 H222 0.950 . S
C220 C219 1.387 . S
C220 C223 1.387 . S
H221 C217 0.950 . S
H222 C219 0.950 . S
C223 C214 1.390 . S
C223 H216 0.950 1_655 S
C223 C220 1.387 . S
C224 C225 1.387 . S
C224 H228 0.950 . S
C224 C233 1.390 . S
C225 C224 1.387 . S
C225 C227 1.387 . S
H226 C233 0.950 . S
C227 C225 1.387 . S
C227 C229 1.390 . S
C227 H231 0.950 . S
H228 C224 0.950 . S
C229 C227 1.390 . S
C229 C230 1.387 . S
C229 H232 0.950 . S
C230 C229 1.387 . S
C230 C233 1.387 . S
H231 C227 0.950 . S
H232 C229 0.950 . S
C233 C224 1.390 . S
C233 H226 0.950 . S
C233 C230 1.387 . S
C234 C235 1.387 . S
C234 H238 0.950 . S
C234 C243 1.390 . S
C235 C234 1.387 . S
C235 C237 1.387 . S
H236 C243 0.950 . S
C237 C235 1.387 . S
C237 C239 1.390 . S
C237 H241 0.950 . S
H238 C234 0.950 . S
C239 C237 1.390 . S
C239 C240 1.387 . S
C239 H242 0.950 . S
C240 C239 1.387 . S
C240 C243 1.387 . S
H241 C237 0.950 . S
H242 C239 0.950 . S
C243 C234 1.390 . S
C243 H236 0.950 . S
C243 C240 1.387 . S
C244 C245 1.387 . S
C244 H248 0.950 . S
C244 C253 1.390 . S
C245 C244 1.387 . S
C245 C247 1.387 . S
H246 C253 0.950 . S
C247 C245 1.387 . S
C247 C249 1.390 . S
C247 H251 0.950 . S
H248 C244 0.950 . S
C249 C247 1.390 . S
C249 C250 1.387 . S
C249 H252 0.950 . S
C250 C249 1.387 . S
C250 C253 1.387 . S
H251 C247 0.950 . S
H252 C249 0.950 . S
C253 C244 1.390 . S
C253 H246 0.950 . S
C253 C250 1.387 . S
C254 C255 1.387 . S
C254 H258 0.950 . S
C254 C263 1.390 . S
C255 C254 1.387 . S
C255 C257 1.387 . S
H256 C263 0.950 . S
C257 C255 1.387 . S
C257 C259 1.390 . S
C257 H261 0.950 . S
H258 C254 0.950 . S
C259 C257 1.390 . S
C259 C260 1.387 . S
C259 H262 0.950 . S
C260 C259 1.387 . S
C260 C263 1.387 . S
H261 C257 0.950 . S
H262 C259 0.950 . S
C263 C254 1.390 . S
C263 H256 0.950 . S
C263 C260 1.387 . S
C264 C265 1.387 . S
C264 H268 0.950 . S
C264 C273 1.390 . S
C265 C264 1.387 . S
C265 C267 1.387 . S
H266 C273 0.950 . S
C267 C265 1.387 . S
C267 C269 1.390 . S
C267 H271 0.950 . S
H268 C264 0.950 . S
C269 C267 1.390 . S
C269 C270 1.387 . S
C269 H272 0.950 . S
C270 C269 1.387 . S
C270 C273 1.387 . S
H271 C267 0.950 . S
H272 C269 0.950 . S
C273 C264 1.390 . S
C273 H266 0.950 . S
C273 C270 1.387 . S
C274 C275 1.387 . S
C274 H278 0.950 . S
C274 C283 1.390 . S
C275 C274 1.387 . S
C275 C277 1.387 . S
H276 C283 0.950 . S
C277 C275 1.387 . S
C277 C279 1.390 . S
C277 H281 0.950 . S
H278 C274 0.950 . S
C279 C277 1.390 . S
C279 C280 1.387 . S
C279 H282 0.950 . S
C280 C279 1.387 . S
C280 C283 1.387 . S
H281 C277 0.950 . S
H282 C279 0.950 . S
C283 C274 1.390 . S
C283 H276 0.950 . S
C283 C280 1.387 . S
C284 C285 1.387 . S
C284 H288 0.950 . S
C284 C293 1.390 . S
C285 C284 1.387 . S
C285 C287 1.387 . S
H286 C293 0.950 . S
C287 C285 1.387 . S
C287 C289 1.390 . S
C287 H291 0.950 . S
H288 C284 0.950 . S
C289 C287 1.390 . S
C289 C290 1.387 . S
C289 H292 0.950 . S
C290 C289 1.387 . S
C290 C293 1.387 . S
H291 C287 0.950 . S
H292 C289 0.950 . S
C293 C284 1.390 . S
C293 H286 0.950 . S
C293 C290 1.387 . S
C294 C295 1.387 . S
C294 H298 0.950 . S
C294 C303 1.390 . S
C295 C294 1.387 . S
C295 C297 1.387 . S
H296 C303 0.950 . S
C297 C295 1.387 . S
C297 C299 1.390 . S
C297 H301 0.950 . S
H298 C294 0.950 . S
C299 C297 1.390 . S
C299 C300 1.387 . S
C299 H302 0.950 . S
C300 C299 1.387 . S
C300 C303 1.387 . S
H301 C297 0.950 . S
H302 C299 0.950 . S
C303 C294 1.390 . S
C303 H296 0.950 . S
C303 C300 1.387 . S
C304 C305 1.387 . S
C304 H308 0.950 . S
C304 C313 1.390 . S
C305 C304 1.387 . S
C305 C307 1.387 . S
H306 C313 0.950 . S
C307 C305 1.387 . S
C307 C309 1.390 . S
C307 H311 0.950 . S
H308 C304 0.950 . S
C309 C307 1.390 . S
C309 C310 1.387 . S
C309 H312 0.950 . S
C310 C309 1.387 . S
C310 C313 1.387 . S
H311 C307 0.950 . S
H312 C309 0.950 . S
C313 C304 1.390 . S
C313 H306 0.950 . S
C313 C310 1.387 . S
C314 C315 1.387 . S
C314 H318 0.950 . S
C314 C323 1.390 . S
C315 C314 1.387 . S
C315 C317 1.387 . S
H316 C323 0.950 . S
C317 C315 1.387 . S
C317 C319 1.390 . S
C317 H321 0.950 . S
H318 C314 0.950 . S
C319 C317 1.390 . S
C319 C320 1.387 . S
C319 H322 0.950 . S
C320 C319 1.387 . S
C320 C323 1.387 . S
H321 C317 0.950 . S
H322 C319 0.950 . S
C323 C314 1.390 . S
C323 H316 0.950 . S
C323 C320 1.387 . S
C324 C325 1.387 . S
C324 H328 0.950 . S
C324 C333 1.390 . S
C325 C324 1.387 . S
C325 C327 1.387 . S
H326 C333 0.950 . S
C327 C325 1.387 . S
C327 C329 1.390 . S
C327 H331 0.950 . S
H328 C324 0.950 . S
C329 C327 1.390 . S
C329 C330 1.387 . S
C329 H332 0.950 . S
C330 C329 1.387 . S
C330 C333 1.387 . S
H331 C327 0.950 . S
H332 C329 0.950 . S
C333 C324 1.390 . S
C333 H326 0.950 . S
C333 C330 1.387 . S
C334 C335 1.387 . S
C334 H338 0.950 . S
C334 C343 1.390 . S
C335 C334 1.387 . S
C335 C337 1.387 . S
H336 C343 0.950 . S
C337 C335 1.387 . S
C337 C339 1.390 . S
C337 H341 0.950 . S
H338 C334 0.950 . S
C339 C337 1.390 . S
C339 C340 1.387 . S
C339 H342 0.950 . S
C340 C339 1.387 . S
C340 C343 1.387 . S
H341 C337 0.950 . S
H342 C339 0.950 . S
C343 C334 1.390 . S
C343 H336 0.950 . S
C343 C340 1.387 . S
C344 C345 1.387 . S
C344 H348 0.950 . S
C344 C353 1.390 . S
C345 C344 1.387 . S
C345 C347 1.387 . S
H346 C353 0.950 . S
C347 C345 1.387 . S
C347 C349 1.390 . S
C347 H351 0.950 . S
H348 C344 0.950 . S
C349 C347 1.390 . S
C349 C350 1.387 . S
C349 H352 0.950 . S
C350 C349 1.387 . S
C350 C353 1.387 . S
H351 C347 0.950 . S
H352 C349 0.950 . S
C353 C344 1.390 . S
C353 H346 0.950 . S
C353 C350 1.387 . S
C354 C355 1.387 . S
C354 H358 0.950 . S
C354 C363 1.390 . S
C355 C354 1.387 . S
C355 C357 1.387 . S
H356 C363 0.950 . S
C357 C355 1.387 . S
C357 C359 1.390 . S
C357 H361 0.950 . S
H358 C354 0.950 . S
C359 C357 1.390 . S
C359 C360 1.387 . S
C359 H362 0.950 . S
C360 C359 1.387 . S
C360 C363 1.387 . S
H361 C357 0.950 . S
H362 C359 0.950 . S
C363 C354 1.390 . S
C363 H356 0.950 . S
C363 C360 1.387 . S
C364 C365 1.387 . S
C364 H368 0.950 . S
C364 C373 1.390 . S
C365 C364 1.387 . S
C365 C367 1.387 . S
H366 C373 0.950 . S
C367 C365 1.387 . S
C367 C369 1.390 . S
C367 H371 0.950 . S
H368 C364 0.950 . S
C369 C367 1.390 . S
C369 C370 1.387 . S
C369 H372 0.950 . S
C370 C369 1.387 . S
C370 C373 1.387 . S
H371 C367 0.950 . S
H372 C369 0.950 . S
C373 C364 1.390 . S
C373 H366 0.950 . S
C373 C370 1.387 . S
C374 C375 1.387 . S
C374 H378 0.950 . S
C374 C383 1.390 . S
C375 C374 1.387 . S
C375 C377 1.387 . S
H376 C383 0.950 . S
C377 C375 1.387 . S
C377 C379 1.390 . S
C377 H381 0.950 . S
H378 C374 0.950 . S
C379 C377 1.390 . S
C379 C380 1.387 . S
C379 H382 0.950 . S
C380 C379 1.387 . S
C380 C383 1.387 . S
H381 C377 0.950 . S
H382 C379 0.950 . S
C383 C374 1.390 . S
C383 H376 0.950 . S
C383 C380 1.387 . S
C384 C385 1.387 . S
C384 H388 0.950 . S
C384 C393 1.390 . S
C385 C384 1.387 . S
C385 C387 1.387 . S
H386 C393 0.950 . S
C387 C385 1.387 . S
C387 C389 1.390 . S
C387 H391 0.950 . S
H388 C384 0.950 . S
C389 C387 1.390 . S
C389 C390 1.387 . S
C389 H392 0.950 . S
C390 C389 1.387 . S
C390 C393 1.387 . S
H391 C387 0.950 . S
H392 C389 0.950 . S
C393 C384 1.390 . S
C393 H386 0.950 . S
C393 C390 1.387 . S
C394 C395 1.387 . S
C394 H398 0.950 . S
C394 C403 1.390 . S
C395 C394 1.387 . S
C395 C397 1.387 . S
H396 C403 0.950 . S
C397 C395 1.387 . S
C397 C399 1.390 . S
C397 H401 0.950 . S
H398 C394 0.950 . S
C399 C397 1.390 . S
C399 C400 1.387 . S
C399 H402 0.950 . S
C400 C399 1.387 . S
C400 C403 1.387 . S
H401 C397 0.950 . S
H402 C399 0.950 . S
C403 C394 1.390 . S
C403 H396 0.950 . S
C403 C400 1.387 . S
C404 C405 1.387 . S
C404 H408 0.950 . S
C404 C413 1.390 . S
C405 C404 1.387 . S
C405 C407 1.387 . S
H406 C413 0.950 . S
C407 C405 1.387 . S
C407 C409 1.390 . S
C407 H411 0.950 . S
H408 C404 0.950 . S
C409 C407 1.390 . S
C409 C410 1.387 . S
C409 H412 0.950 . S
C410 C409 1.387 . S
C410 C413 1.387 . S
H411 C407 0.950 . S
H412 C409 0.950 . S
C413 C404 1.390 . S
C413 H406 0.950 . S
C413 C410 1.387 . S
C414 C415 1.387 . S
C414 H418 0.950 . S
C414 C423 1.390 . S
C415 C414 1.387 . S
C415 C417 1.387 . S
H416 C423 0.950 . S
C417 C415 1.387 . S
C417 C419 1.390 . S
C417 H421 0.950 . S
H418 C414 0.950 . S
C419 C417 1.390 . S
C419 C420 1.387 . S
C419 H422 0.950 . S
C420 C419 1.387 . S
C420 C423 1.387 . S
H421 C417 0.950 . S
H422 C419 0.950 . S
C423 C414 1.390 . S
C423 H416 0.950 . S
C423 C420 1.387 . S
C185 C9 1.779 . S
C190 C123 1.774 . S
C195 C21 1.347 . S
C200 C126 1.372 . S
C210 C162 1.536 . S
C205 C30 1.528 . S
C215 C43 1.559 . S
C220 C182 1.562 1_655 S
C230 C136 1.531 . S
C225 C4 1.530 . S
C240 C113 1.897 . S
C235 C22 1.896 . S
C250 C166 1.339 . S
C245 C34 1.475 . S
C260 C146 1.255 . S
C255 C48 1.328 . S
C265 C8 1.458 . S
C270 C176 1.394 . S
C280 C142 1.736 . S
C275 C35 1.747 . S
C285 C47 1.721 . S
C290 C108 1.701 . S
C295 C17 1.265 . S
C300 C156 1.196 . S
C310 C122 1.455 . S
C305 C60 1.473 . S
C315 C74 1.430 . S
C320 C128 1.378 . S
C325 C82 1.395 . S
C330 C163 1.423 . S
C335 C100 1.937 . S
C340 C183 1.904 . S
C345 C61 1.883 . S
C350 C133 1.859 . S
C360 C116 1.543 . S
C355 C73 1.574 . S
C370 C168 1.697 . S
C365 C87 1.763 . S
C380 C148 1.196 . S
C375 C95 1.328 . S
C385 C56 1.438 . S
C390 C173 1.345 . S
C400 C143 1.720 . S
C395 C86 1.759 . S
C410 C106 1.711 . S
C405 C99 1.712 . S
C415 C69 1.232 . S
C420 C153 1.240 . S
