# Generated by pormake.
# Topology pth, (4,4)-cn, num edge types: 1
# Building blocks:
#     Node 0, Type 0, BuildingBlock: QUQFOY_clean_sbu_1, # of connection points: 4
#     Node 1, Type 0, BuildingBlock: QUQFOY_clean_sbu_1, # of connection points: 4
#     Node 2, Type 0, BuildingBlock: QUQFOY_clean_sbu_1, # of connection points: 4
#     Node 3, Type 1, BuildingBlock: AZAVOO_clean_linker_0, # of connection points: 4
#     Node 4, Type 1, BuildingBlock: AZAVOO_clean_linker_0, # of connection points: 4
#     Node 5, Type 1, BuildingBlock: AZAVOO_clean_linker_0, # of connection points: 4
#     Edge 6, Type (0, 1), BuildingBlock: EZIPEK_clean_linker_0, # of connection points: 2
#     Edge 7, Type (0, 1), BuildingBlock: EZIPEK_clean_linker_0, # of connection points: 2
#     Edge 8, Type (0, 1), BuildingBlock: EZIPEK_clean_linker_0, # of connection points: 2
#     Edge 9, Type (0, 1), BuildingBlock: EZIPEK_clean_linker_0, # of connection points: 2
#     Edge 10, Type (0, 1), BuildingBlock: EZIPEK_clean_linker_0, # of connection points: 2
#     Edge 11, Type (0, 1), BuildingBlock: EZIPEK_clean_linker_0, # of connection points: 2
#     Edge 12, Type (0, 1), BuildingBlock: EZIPEK_clean_linker_0, # of connection points: 2
#     Edge 13, Type (0, 1), BuildingBlock: EZIPEK_clean_linker_0, # of connection points: 2
#     Edge 14, Type (0, 1), BuildingBlock: EZIPEK_clean_linker_0, # of connection points: 2
#     Edge 15, Type (0, 1), BuildingBlock: EZIPEK_clean_linker_0, # of connection points: 2
#     Edge 16, Type (0, 1), BuildingBlock: EZIPEK_clean_linker_0, # of connection points: 2
#     Edge 17, Type (0, 1), BuildingBlock: EZIPEK_clean_linker_0, # of connection points: 2
# Relax obj value: 0.128
# Max RMSD: 0.231
# Mean RMSD: 0.168
data_MOF--net-pth--node1-QUQFOY_clean_sbu_1--node2-AZAVOO_clean_linker_0--edge1-EZIPEK_clean_linker_0
_symmetry_space_group_name_H-M    P1
_symmetry_Int_Tables_number       1
_symmetry_cell_setting            triclinic
loop_
_symmetry_equiv_pos_as_xyz
'x, y, z'
_cell_length_a     19.438984
_cell_length_b     21.911402
_cell_length_c     56.844796
_cell_angle_alpha  92.855487
_cell_angle_beta   88.454692
_cell_angle_gamma 120.63682
loop_
_atom_site_label
_atom_site_type_symbol
_atom_site_fract_x
_atom_site_fract_y
_atom_site_fract_z
_atom_type_partial_charge
O0 O 0.19249 0.17134 0.0642 0.0
Cd1 Cd 0.08854 0.1109 0.08256 0.0
Cd2 Cd 0.13087 0.01481 0.07458 0.0
O3 O 0.23727 0.09662 0.06279 0.0
O4 O 0.06649 0.18033 0.09987 0.0
O5 O 0.091 0.10574 0.11775 0.0
C6 C 0.07636 0.157 0.11912 0.0
C7 C 0.12364 0.94148 0.10358 0.0
C8 C 0.24557 0.15613 0.05822 0.0
C9 C 0.98724 0.99377 0.04894 0.0
O10 O 0.03835 0.97465 0.05096 0.0
O11 O 0.99135 0.0451 0.06153 0.0
O12 O 0.14669 0.93541 0.08253 0.0
O13 O 0.10687 0.99071 0.10831 0.0
O14 O 0.9897 0.0924 0.43041 0.0
Cd15 Cd 0.0784 0.11795 0.40577 0.0
Cd16 Cd 0.04035 0.97794 0.41375 0.0
O17 O 0.96035 0.98317 0.43731 0.0
O18 O 0.09697 0.21132 0.39579 0.0
O19 O 0.0562 0.1181 0.37116 0.0
C20 C 0.07383 0.18306 0.375 0.0
C21 C 0.011 0.87482 0.39151 0.0
C22 C 0.9521 0.03648 0.44197 0.0
C23 C 0.20338 0.09752 0.42812 0.0
O24 O 0.15475 0.0312 0.42615 0.0
O25 O 0.18601 0.14162 0.42049 0.0
O26 O 0.01354 0.87689 0.41415 0.0
O27 O 0.01951 0.92983 0.38143 0.0
O28 O 0.96888 0.03641 0.7257 0.0
Cd29 Cd 0.03436 0.01979 0.7499 0.0
Cd30 Cd 0.14169 0.16161 0.74142 0.0
O31 O 0.0479 0.15226 0.72233 0.0
O32 O 0.95482 0.92748 0.76334 0.0
O33 O 0.01499 0.02854 0.78465 0.0
C34 C 0.96401 0.96115 0.78332 0.0
C35 C 0.2179 0.25826 0.76698 0.0
C36 C 0.98386 0.09446 0.7172 0.0
C37 C 0.1898 0.05443 0.72711 0.0
O38 O 0.20419 0.11763 0.72626 0.0
O39 O 0.12685 0.0068 0.7369 0.0
O40 O 0.22179 0.26512 0.74451 0.0
O41 O 0.16678 0.19717 0.77507 0.0
H42 H 0.02422 0.44992 0.08741 0.0
H43 H 0.11403 0.977 0.27692 0.0
H44 H 0.92428 0.37129 0.21067 0.0
H45 H 0.93841 0.28217 0.18683 0.0
H46 H 0.16863 0.35594 0.21825 0.0
H47 H 0.1565 0.44829 0.24117 0.0
H48 H 0.93541 0.48451 0.18421 0.0
H49 H 0.94932 0.46353 0.1421 0.0
H50 H 0.19678 0.52757 0.15316 0.0
H51 H 0.18141 0.5467 0.19532 0.0
H52 H 0.938 0.61877 0.20799 0.0
H53 H 0.95658 0.70499 0.1787 0.0
H54 H 0.20594 0.76912 0.17246 0.0
H55 H 0.18763 0.68383 0.20205 0.0
H56 H 0.9163 0.62463 0.25934 0.0
H57 H 0.91488 0.7344 0.26848 0.0
H58 H 0.1725 0.85488 0.26216 0.0
H59 H 0.17273 0.74488 0.25239 0.0
H60 H 0.90937 0.50724 0.2954 0.0
H61 H 0.89112 0.5679 0.33058 0.0
H62 H 0.13886 0.73321 0.32657 0.0
H63 H 0.15813 0.67025 0.29271 0.0
H64 H 0.92159 0.36496 0.26805 0.0
H65 H 0.92693 0.28377 0.29537 0.0
H66 H 0.16071 0.44957 0.31843 0.0
H67 H 0.15572 0.53062 0.29102 0.0
O68 O 0.01998 0.45858 0.1041 0.0
O69 O 0.1462 0.48996 0.11087 0.0
O70 O 0.98058 0.86828 0.27669 0.0
O71 O 0.1128 0.93296 0.27302 0.0
C72 C 0.04194 0.48361 0.23533 0.0
C73 C 0.0492 0.53118 0.21815 0.0
C74 C 0.05096 0.59446 0.22498 0.0
C75 C 0.04485 0.61059 0.24889 0.0
C76 C 0.03971 0.56443 0.26633 0.0
C77 C 0.03872 0.5008 0.25959 0.0
C78 C 0.04003 0.41717 0.22728 0.0
C79 C 0.97687 0.36709 0.21291 0.0
C80 C 0.98488 0.31627 0.19934 0.0
C81 C 0.05533 0.31368 0.20041 0.0
C82 C 0.11423 0.3578 0.21703 0.0
C83 C 0.10715 0.41014 0.23016 0.0
C84 C 0.05712 0.5162 0.19277 0.0
C85 C 0.99231 0.49331 0.17749 0.0
C86 C 0.00053 0.48159 0.15346 0.0
C87 C 0.07404 0.49338 0.14429 0.0
C88 C 0.13916 0.51739 0.15968 0.0
C89 C 0.13056 0.5282 0.18375 0.0
C90 C 0.0615 0.64528 0.20702 0.0
C91 C 0.99658 0.6516 0.20033 0.0
C92 C 0.00713 0.70049 0.18372 0.0
C93 C 0.08259 0.74312 0.17357 0.0
C94 C 0.14743 0.73658 0.18021 0.0
C95 C 0.13697 0.68802 0.19692 0.0
C96 C 0.04463 0.67693 0.25549 0.0
C97 C 0.9723 0.6748 0.26004 0.0
C98 C 0.97172 0.73755 0.2652 0.0
C99 C 0.04368 0.80337 0.2663 0.0
C100 C 0.11607 0.80512 0.26163 0.0
C101 C 0.11644 0.74243 0.25612 0.0
C102 C 0.03492 0.58478 0.29137 0.0
C103 C 0.96054 0.55461 0.30286 0.0
C104 C 0.94991 0.5897 0.32268 0.0
C105 C 0.01289 0.65644 0.33059 0.0
C106 C 0.08904 0.68254 0.3205 0.0
C107 C 0.10024 0.64635 0.3013 0.0
C108 C 0.0381 0.45382 0.27764 0.0
C109 C 0.97365 0.38395 0.27913 0.0
C110 C 0.97679 0.3377 0.29459 0.0
C111 C 0.04441 0.36078 0.30874 0.0
C112 C 0.10823 0.43094 0.30756 0.0
C113 C 0.10507 0.47717 0.29212 0.0
C114 C 0.08259 0.48067 0.11877 0.0
C115 C 0.04344 0.86996 0.2723 0.0
H116 H 0.62084 0.03697 0.42258 0.0
H117 H 0.16956 0.16811 0.61616 0.0
H118 H 0.62727 0.95768 0.56255 0.0
H119 H 0.71108 0.93574 0.5344 0.0
H120 H 0.86079 0.16153 0.52643 0.0
H121 H 0.78332 0.18324 0.55665 0.0
H122 H 0.52179 0.98583 0.52115 0.0
H123 H 0.54505 0.98683 0.47859 0.0
H124 H 0.72617 0.2093 0.48537 0.0
H125 H 0.70004 0.20808 0.52777 0.0
H126 H 0.38977 0.00824 0.53897 0.0
H127 H 0.32615 0.02426 0.505 0.0
H128 H 0.50656 0.24663 0.5056 0.0
H129 H 0.57069 0.23036 0.53968 0.0
H130 H 0.35879 0.98806 0.59559 0.0
H131 H 0.23707 0.9894 0.60677 0.0
H132 H 0.36109 0.21578 0.59753 0.0
H133 H 0.48214 0.2135 0.58606 0.0
H134 H 0.49237 0.97209 0.6273 0.0
H135 H 0.41203 0.94787 0.66352 0.0
H136 H 0.45305 0.16088 0.66527 0.0
H137 H 0.5377 0.18662 0.63019 0.0
H138 H 0.63385 0.9731 0.60588 0.0
H139 H 0.72378 0.97557 0.63608 0.0
H140 H 0.79957 0.19426 0.65425 0.0
H141 H 0.71116 0.19235 0.62375 0.0
O142 O 0.61182 0.03804 0.43938 0.0
O143 O 0.70306 0.15281 0.4437 0.0
O144 O 0.15622 0.04984 0.61636 0.0
O145 O 0.21643 0.16596 0.61132 0.0
C146 C 0.63444 0.0843 0.57004 0.0
C147 C 0.59155 0.09659 0.55308 0.0
C148 C 0.52779 0.10622 0.56005 0.0
C149 C 0.50317 0.09957 0.58372 0.0
C150 C 0.54701 0.08886 0.60094 0.0
C151 C 0.61414 0.08305 0.59415 0.0
C152 C 0.69928 0.07214 0.5616 0.0
C153 C 0.68136 0.00244 0.55594 0.0
C154 C 0.72802 0.98991 0.53949 0.0
C155 C 0.78972 0.0468 0.5275 0.0
C156 C 0.81236 0.11663 0.53506 0.0
C157 C 0.76875 0.12916 0.55249 0.0
C158 C 0.61048 0.09646 0.52755 0.0
C159 C 0.56681 0.03455 0.5134 0.0
C160 C 0.57994 0.03542 0.4891 0.0
C161 C 0.63805 0.09797 0.47861 0.0
C162 C 0.6815 0.16005 0.4929 0.0
C163 C 0.6672 0.15941 0.51713 0.0
C164 C 0.48387 0.11834 0.54183 0.0
C165 C 0.41487 0.06052 0.53197 0.0
C166 C 0.37958 0.06945 0.51248 0.0
C167 C 0.41291 0.13628 0.50269 0.0
C168 C 0.48116 0.19459 0.5128 0.0
C169 C 0.51672 0.18554 0.53231 0.0
C170 C 0.42925 0.10072 0.59016 0.0
C171 C 0.35946 0.03784 0.59598 0.0
C172 C 0.29013 0.03881 0.6024 0.0
C173 C 0.28958 0.10284 0.60328 0.0
C174 C 0.35953 0.16563 0.59714 0.0
C175 C 0.4287 0.1645 0.59055 0.0
C176 C 0.51929 0.08066 0.62582 0.0
C177 C 0.48707 0.01451 0.6361 0.0
C178 C 0.44091 0.00053 0.65662 0.0
C179 C 0.42463 0.05191 0.66647 0.0
C180 C 0.46379 0.1202 0.6576 0.0
C181 C 0.51193 0.13484 0.63762 0.0
C182 C 0.66701 0.08288 0.61239 0.0
C183 C 0.67055 0.02173 0.61615 0.0
C184 C 0.72115 0.02296 0.63344 0.0
C185 C 0.76803 0.08515 0.64725 0.0
C186 C 0.76368 0.14593 0.64371 0.0
C187 C 0.71353 0.1448 0.62636 0.0
C188 C 0.65311 0.09824 0.45287 0.0
C189 C 0.21658 0.1043 0.61069 0.0
H190 H 0.61451 0.60754 0.0798 0.0
H191 H 0.23862 0.11701 0.88153 0.0
H192 H 0.59793 0.73577 0.94903 0.0
H193 H 0.68058 0.83781 0.97585 0.0
H194 H 0.87996 0.80585 0.96313 0.0
H195 H 0.79787 0.70504 0.93582 0.0
H196 H 0.51061 0.59594 0.98326 0.0
H197 H 0.53467 0.60264 0.0256 0.0
H198 H 0.75933 0.61202 0.01107 0.0
H199 H 0.73371 0.60395 0.96879 0.0
H200 H 0.39387 0.45395 0.95772 0.0
H201 H 0.33628 0.36401 0.98776 0.0
H202 H 0.55757 0.3637 0.99086 0.0
H203 H 0.61482 0.45283 0.96039 0.0
H204 H 0.36832 0.46039 0.90474 0.0
H205 H 0.25992 0.34107 0.89321 0.0
H206 H 0.42079 0.26091 0.89923 0.0
H207 H 0.52834 0.38033 0.91109 0.0
H208 H 0.48069 0.60361 0.87417 0.0
H209 H 0.40248 0.54613 0.8381 0.0
H210 H 0.49543 0.40427 0.83404 0.0
H211 H 0.57717 0.46455 0.86896 0.0
H212 H 0.62429 0.74998 0.89955 0.0
H213 H 0.70927 0.83985 0.87111 0.0
H214 H 0.80589 0.70919 0.84671 0.0
H215 H 0.7221 0.62008 0.87523 0.0
O216 O 0.60697 0.6064 0.06299 0.0
O217 O 0.72331 0.61374 0.05461 0.0
O218 O 0.20058 0.20888 0.88293 0.0
O219 O 0.28021 0.16451 0.88631 0.0
C220 C 0.63665 0.6404 0.93128 0.0
C221 C 0.6005 0.58583 0.94753 0.0
C222 C 0.54423 0.51625 0.93974 0.0
C223 C 0.52126 0.50128 0.91595 0.0
C224 C 0.55931 0.55513 0.89939 0.0
C225 C 0.61867 0.62468 0.90699 0.0
C226 C 0.6922 0.71336 0.9405 0.0
C227 C 0.66054 0.75297 0.95116 0.0
C228 C 0.70732 0.81066 0.96653 0.0
C229 C 0.7856 0.82816 0.9717 0.0
C230 C 0.81943 0.79264 0.95938 0.0
C231 C 0.77297 0.73562 0.94373 0.0
C232 C 0.62093 0.60045 0.973 0.0
C233 C 0.56552 0.60054 0.98929 0.0
C234 C 0.57913 0.60379 0.01345 0.0
C235 C 0.64871 0.60742 0.02173 0.0
C236 C 0.70506 0.60909 0.0053 0.0
C237 C 0.69108 0.60537 0.98114 0.0
C238 C 0.50814 0.45931 0.95688 0.0
C239 C 0.42954 0.43389 0.96469 0.0
C240 C 0.39712 0.38328 0.98185 0.0
C241 C 0.44319 0.35807 0.99145 0.0
C242 C 0.5217 0.38315 0.98362 0.0
C243 C 0.55396 0.43345 0.96629 0.0
C244 C 0.45613 0.42893 0.90858 0.0
C245 C 0.37999 0.41698 0.90349 0.0
C246 C 0.31826 0.34882 0.89692 0.0
C247 C 0.33188 0.29155 0.89511 0.0
C248 C 0.40834 0.30383 0.90035 0.0
C249 C 0.46985 0.37192 0.90712 0.0
C250 C 0.53354 0.53739 0.87439 0.0
C251 C 0.48694 0.56231 0.86487 0.0
C252 C 0.4417 0.52905 0.84451 0.0
C253 C 0.44111 0.46939 0.83394 0.0
C254 C 0.4939 0.44935 0.84217 0.0
C255 C 0.54078 0.4839 0.86201 0.0
C256 C 0.66704 0.67849 0.88946 0.0
C257 C 0.66399 0.74091 0.88813 0.0
C258 C 0.71225 0.79198 0.87197 0.0
C259 C 0.7638 0.78097 0.85693 0.0
C260 C 0.76657 0.71853 0.85823 0.0
C261 C 0.71858 0.66771 0.87437 0.0
C262 C 0.66221 0.60941 0.0474 0.0
C263 C 0.26675 0.2193 0.88776 0.0
C264 C 0.02098 0.15778 0.15974 0.0
C265 C 0.07854 0.19349 0.14194 0.0
C266 C 0.12713 0.30699 0.16376 0.0
C267 C 0.07056 0.27151 0.18188 0.0
N268 N 0.97694 0.16225 0.19988 0.0
N269 N 0.2011 0.29694 0.13035 0.0
C270 C 0.02179 0.1964 0.18075 0.0
C271 C 0.13632 0.26651 0.14505 0.0
N272 N 0.96325 0.08812 0.15607 0.0
N273 N 0.16893 0.37946 0.16354 0.0
H274 H 0.2106 0.26853 0.11665 0.0
H275 H 0.24946 0.34817 0.13325 0.0
H276 H 0.16509 0.41196 0.17684 0.0
H277 H 0.20279 0.40745 0.14918 0.0
H278 H 0.91436 0.06133 0.1672 0.0
H279 H 0.96116 0.05817 0.14097 0.0
H280 H 0.94565 0.10729 0.20104 0.0
H281 H 0.97705 0.18939 0.21551 0.0
C282 C 0.95191 0.08102 0.48339 0.0
C283 C 0.90824 0.03771 0.46352 0.0
C284 C 0.78359 0.99808 0.48553 0.0
C285 C 0.82858 0.03509 0.50618 0.0
N286 N 0.95609 0.09326 0.52585 0.0
N287 N 0.78299 0.94652 0.44671 0.0
C288 C 0.91297 0.07051 0.50543 0.0
C289 C 0.82422 0.9929 0.465 0.0
N290 N 0.02975 0.13405 0.48133 0.0
N291 N 0.70308 0.97178 0.48486 0.0
H292 H 0.81011 0.94442 0.43084 0.0
H293 H 0.72299 0.90709 0.44791 0.0
H294 H 0.67051 0.97532 0.49911 0.0
H295 H 0.66955 0.95198 0.46945 0.0
H296 H 0.06086 0.17073 0.49505 0.0
H297 H 0.06095 0.14658 0.46548 0.0
H298 H 0.01766 0.11377 0.52629 0.0
H299 H 0.92907 0.08411 0.54243 0.0
C300 C 0.94835 0.91795 0.82455 0.0
C301 C 0.9134 0.92302 0.80368 0.0
C302 C 0.77979 0.83727 0.81817 0.0
C303 C 0.81436 0.83396 0.83937 0.0
N304 N 0.9285 0.88177 0.86504 0.0
N305 N 0.79579 0.90237 0.78324 0.0
C306 C 0.89783 0.87785 0.84329 0.0
C307 C 0.82899 0.88713 0.8013 0.0
N308 N 0.02946 0.94816 0.826 0.0
N309 N 0.70057 0.79078 0.81369 0.0
H310 H 0.82997 0.93992 0.77086 0.0
H311 H 0.73476 0.8833 0.7819 0.0
H312 H 0.66218 0.75387 0.82568 0.0
H313 H 0.67421 0.78502 0.7974 0.0
H314 H 0.05784 0.93948 0.83962 0.0
H315 H 0.06845 0.97778 0.81267 0.0
H316 H 0.98744 0.91809 0.86977 0.0
H317 H 0.8931 0.85286 0.87909 0.0
C318 C 0.15234 0.91675 0.14371 0.0
C319 C 0.11342 0.89107 0.1216 0.0
C320 C 0.06149 0.76866 0.13282 0.0
C321 C 0.0935 0.79419 0.1557 0.0
N322 N 0.15728 0.89149 0.18445 0.0
N323 N 0.01634 0.79263 0.0971 0.0
C324 C 0.13547 0.86802 0.16161 0.0
C325 C 0.06402 0.81698 0.11664 0.0
N326 N 0.20796 0.98712 0.14727 0.0
N327 N 0.03046 0.69857 0.12633 0.0
H328 H 0.01377 0.82615 0.08521 0.0
H329 H 0.97316 0.73943 0.09397 0.0
H330 H 0.02769 0.6614 0.13769 0.0
H331 H 0.01423 0.67862 0.10908 0.0
H332 H 0.24411 0.00746 0.16217 0.0
H333 H 0.2236 0.0243 0.13439 0.0
H334 H 0.18032 0.94418 0.19023 0.0
H335 H 0.14588 0.85733 0.19807 0.0
C336 C 0.24069 0.12098 0.47034 0.0
C337 C 0.26487 0.12164 0.4465 0.0
C338 C 0.39491 0.14361 0.45941 0.0
C339 C 0.37054 0.14479 0.48313 0.0
N340 N 0.28186 0.15668 0.51085 0.0
N341 N 0.36826 0.14577 0.41794 0.0
C342 C 0.29745 0.14146 0.48841 0.0
C343 C 0.34355 0.13756 0.44087 0.0
N344 N 0.16212 0.09563 0.4759 0.0
N345 N 0.46484 0.14473 0.45472 0.0
H346 H 0.3308 0.14032 0.40417 0.0
H347 H 0.42696 0.16308 0.41278 0.0
H348 H 0.50422 0.15057 0.46795 0.0
H349 H 0.48193 0.1363 0.43793 0.0
H350 H 0.14021 0.08625 0.49308 0.0
H351 H 0.11725 0.07718 0.46328 0.0
H352 H 0.23231 0.16142 0.51521 0.0
H353 H 0.32269 0.17174 0.52459 0.0
C354 C 0.35747 0.35451 0.77831 0.0
C355 C 0.27385 0.31798 0.78297 0.0
C356 C 0.29885 0.38373 0.82092 0.0
C357 C 0.38181 0.4238 0.81544 0.0
N358 N 0.48603 0.4601 0.78624 0.0
N359 N 0.16414 0.31169 0.80579 0.0
C360 C 0.40965 0.41345 0.79318 0.0
C361 C 0.24423 0.33688 0.80339 0.0
N362 N 0.38813 0.33022 0.76078 0.0
N363 N 0.27222 0.38722 0.84315 0.0
H364 H 0.12251 0.27898 0.79297 0.0
H365 H 0.1402 0.32932 0.81925 0.0
H366 H 0.3095 0.42029 0.8567 0.0
H367 H 0.21396 0.35268 0.8487 0.0
H368 H 0.44928 0.35092 0.75834 0.0
H369 H 0.35327 0.28457 0.75031 0.0
H370 H 0.50719 0.45887 0.76929 0.0
H371 H 0.52537 0.50444 0.79667 0.0
C372 C 0.85231 0.08073 0.70645 0.0
C373 C 0.92894 0.09336 0.69948 0.0
C374 C 0.90168 0.1047 0.65855 0.0
C375 C 0.8231 0.08728 0.66524 0.0
N376 N 0.71906 0.05033 0.69456 0.0
N377 N 0.02256 0.10562 0.66867 0.0
C378 C 0.79706 0.07288 0.68894 0.0
C379 C 0.95272 0.10238 0.67546 0.0
N380 N 0.83348 0.0785 0.72988 0.0
N381 N 0.92798 0.12483 0.63613 0.0
H382 H 0.06175 0.10416 0.68051 0.0
H383 H 0.03884 0.10394 0.65116 0.0
H384 H 0.89158 0.12514 0.62303 0.0
H385 H 0.98732 0.14611 0.63089 0.0
H386 H 0.78207 0.07695 0.73636 0.0
H387 H 0.87241 0.08356 0.74312 0.0
H388 H 0.69384 0.03155 0.71093 0.0
H389 H 0.67751 0.04565 0.68229 0.0
C390 C 0.85422 0.89737 0.03456 0.0
C391 C 0.92752 0.9597 0.03 0.0
C392 C 0.89615 0.94486 0.98788 0.0
C393 C 0.82911 0.87705 0.992 0.0
N394 N 0.74538 0.78586 0.01894 0.0
N395 N 0.02093 0.04417 0.00285 0.0
C396 C 0.80757 0.85288 0.01531 0.0
C397 C 0.94887 0.98438 0.00681 0.0
N398 N 0.82969 0.88083 0.05732 0.0
N399 N 0.90857 0.97146 0.96592 0.0
H400 H 0.05933 0.07619 0.01643 0.0
H401 H 0.04464 0.06029 0.98614 0.0
H402 H 0.87062 0.94344 0.95177 0.0
H403 H 0.95204 0.02318 0.96214 0.0
H404 H 0.77323 0.83986 0.06195 0.0
H405 H 0.86354 0.91229 0.07173 0.0
H406 H 0.73251 0.76229 0.03515 0.0
H407 H 0.70932 0.75151 0.0054 0.0
C408 C 0.0555 0.7865 0.38209 0.0
C409 C 0.00382 0.81273 0.37748 0.0
C410 C 0.95177 0.73156 0.34275 0.0
C411 C -1e-05 0.70244 0.34825 0.0
N412 N 0.07966 0.6886 0.37683 0.0
N413 N 0.88806 0.79667 0.35717 0.0
C414 C 0.04566 0.72538 0.36922 0.0
C415 C 0.94733 0.78104 0.35896 0.0
N416 N 0.11779 0.82256 0.39749 0.0
N417 N 0.91338 0.71519 0.32159 0.0
H418 H 0.88162 0.83118 0.3691 0.0
H419 H 0.84056 0.76981 0.34541 0.0
H420 H 0.9139 0.67897 0.30916 0.0
H421 H 0.88607 0.74186 0.31558 0.0
H422 H 0.16168 0.80937 0.39957 0.0
H423 H 0.13114 0.87018 0.40629 0.0
H424 H 0.10749 0.69903 0.39316 0.0
H425 H 0.07244 0.6429 0.36791 0.0
C426 C 0.22209 0.00514 0.69086 0.0
C427 C 0.24338 0.03558 0.71401 0.0
C428 C 0.38063 0.06114 0.70774 0.0
C429 C 0.36029 0.03375 0.68421 0.0
N430 N 0.25847 0.96353 0.65511 0.0
N431 N 0.33501 0.07786 0.74652 0.0
C432 C 0.27972 0.99985 0.67643 0.0
C433 C 0.32029 0.05857 0.72314 0.0
N434 N 0.14854 0.98595 0.68209 0.0
N435 N 0.45823 0.09169 0.71495 0.0
H436 H 0.29131 0.07606 0.75804 0.0
H437 H 0.38773 0.09027 0.75493 0.0
H438 H 0.50241 0.09054 0.70441 0.0
H439 H 0.47967 0.11994 0.73092 0.0
H440 H 0.13322 0.97308 0.66439 0.0
H441 H 0.10367 0.98693 0.69229 0.0
H442 H 0.19946 0.93123 0.64964 0.0
H443 H 0.2991 0.96065 0.64349 0.0
C444 C 0.30555 0.18224 0.01799 0.0
C445 C 0.30958 0.20341 0.0422 0.0
C446 C 0.41212 0.32521 0.03359 0.0
C447 C 0.40721 0.30391 0.00943 0.0
N448 N 0.36633 0.21093 0.97927 0.0
N449 N 0.37668 0.28911 0.07398 0.0
C450 C 0.35985 0.23177 0.0019 0.0
C451 C 0.36649 0.27318 0.05031 0.0
N452 N 0.24602 0.11676 0.01002 0.0
N453 N 0.45785 0.39545 0.04032 0.0
H454 H 0.34389 0.25153 0.0865 0.0
H455 H 0.42162 0.33724 0.08125 0.0
H456 H 0.49423 0.43441 0.02859 0.0
H457 H 0.45716 0.41585 0.0572 0.0
H458 H 0.23383 0.10209 0.99224 0.0
H459 H 0.20436 0.07836 0.02102 0.0
H460 H 0.33952 0.15798 0.97337 0.0
H461 H 0.40451 0.24638 0.96688 0.0
C462 C 0.10662 0.24003 0.33559 0.0
C463 C 0.0618 0.22313 0.35684 0.0
C464 C 0.00695 0.29758 0.34675 0.0
C465 C 0.04843 0.31154 0.32496 0.0
N466 N 0.12576 0.2863 0.2965 0.0
N467 N 0.95526 0.22177 0.38006 0.0
C468 C 0.09463 0.27968 0.31872 0.0
C469 C 0.00786 0.24789 0.36167 0.0
N470 N 0.16321 0.2211 0.33202 0.0
N471 N 0.96877 0.33353 0.35354 0.0
H472 H 0.95259 0.18389 0.39106 0.0
H473 H 0.909 0.23214 0.38301 0.0
H474 H 0.96588 0.36976 0.34298 0.0
H475 H 0.94548 0.3318 0.37037 0.0
H476 H 0.20403 0.2387 0.31815 0.0
H477 H 0.17359 0.19201 0.34394 0.0
H478 H 0.15277 0.25828 0.29003 0.0
H479 H 0.11876 0.31548 0.28379 0.0
loop_
_geom_bond_atom_site_label_1
_geom_bond_atom_site_label_2
_geom_bond_distance
_geom_bond_site_symmetry_2
_ccdc_geom_bond_type
O0 Cd1 2.223 . S
O0 C8 1.315 . S
Cd1 O0 2.223 . S
Cd1 O4 2.297 . S
Cd1 O5 2.439 . S
Cd1 O11 2.242 . S
Cd2 O3 2.240 . S
Cd2 O10 2.223 1_545 S
Cd2 O12 2.297 1_545 S
Cd2 O13 2.439 1_545 S
O3 Cd2 2.240 . S
O3 C8 1.279 . S
O4 Cd1 2.297 . S
O4 C6 1.247 . S
O5 Cd1 2.439 . S
O5 C6 1.208 . S
C6 O4 1.247 . S
C6 O5 1.208 . S
C7 O12 1.247 . S
C7 O13 1.208 . S
C8 O0 1.315 . S
C8 O3 1.279 . S
C9 O10 1.315 . S
C9 O11 1.278 1_565 S
O10 Cd2 2.223 1_565 S
O10 C9 1.315 . S
O11 Cd1 2.242 . S
O11 C9 1.278 1_545 S
O12 Cd2 2.297 1_565 S
O12 C7 1.247 . S
O13 Cd2 2.439 1_565 S
O13 C7 1.208 . S
O14 Cd15 2.223 . S
O14 C22 1.315 1_455 S
Cd15 O14 2.223 . S
Cd15 O18 2.297 . S
Cd15 O19 2.439 . S
Cd15 O25 2.240 . S
Cd16 O17 2.240 1_565 S
Cd16 O24 2.223 1_655 S
Cd16 O26 2.297 1_655 S
Cd16 O27 2.439 1_655 S
O17 Cd16 2.240 1_545 S
O17 C22 1.279 . S
O18 Cd15 2.297 . S
O18 C20 1.247 . S
O19 Cd15 2.439 . S
O19 C20 1.208 . S
C20 O18 1.247 . S
C20 O19 1.208 . S
C21 O26 1.247 . S
C21 O27 1.208 . S
C22 O14 1.315 1_655 S
C22 O17 1.279 . S
C23 O24 1.315 1_545 S
C23 O25 1.279 . S
O24 Cd16 2.223 1_455 S
O24 C23 1.315 1_565 S
O25 Cd15 2.240 . S
O25 C23 1.279 . S
O26 Cd16 2.297 1_455 S
O26 C21 1.247 . S
O27 Cd16 2.439 1_455 S
O27 C21 1.208 . S
O28 Cd29 2.223 1_545 S
O28 C36 1.315 . S
Cd29 O28 2.223 1_565 S
Cd29 O32 2.297 1_455 S
Cd29 O33 2.439 1_565 S
Cd29 O39 2.240 1_565 S
Cd30 O31 2.240 . S
Cd30 O38 2.223 . S
Cd30 O40 2.297 . S
Cd30 O41 2.439 . S
O31 Cd30 2.240 . S
O31 C36 1.279 . S
O32 Cd29 2.297 1_655 S
O32 C34 1.247 . S
O33 Cd29 2.439 1_545 S
O33 C34 1.208 1_445 S
C34 O32 1.247 . S
C34 O33 1.208 1_665 S
C35 O40 1.247 . S
C35 O41 1.208 . S
C36 O28 1.315 . S
C36 O31 1.279 . S
C37 O38 1.315 . S
C37 O39 1.279 . S
O38 Cd30 2.223 . S
O38 C37 1.315 . S
O39 Cd29 2.240 1_545 S
O39 C37 1.279 . S
O40 Cd30 2.297 . S
O40 C35 1.247 . S
O41 Cd30 2.439 . S
O41 C35 1.208 . S
H42 O68 0.856 . S
H43 O71 0.854 . S
H44 C79 0.930 . S
H45 C80 0.930 . S
H46 C82 0.930 . S
H47 C83 0.930 . S
H48 C85 0.931 1_655 S
H49 C86 0.930 1_655 S
H50 C88 0.930 . S
H51 C89 0.929 . S
H52 C91 0.930 1_655 S
H53 C92 0.931 1_655 S
H54 C94 0.930 . S
H55 C95 0.929 . S
H56 C97 0.931 . S
H57 C98 0.930 . S
H58 C100 0.930 . S
H59 C101 0.932 . S
H60 C103 0.930 . S
H61 C104 0.929 . S
H62 C106 0.931 . S
H63 C107 0.930 . S
H64 C109 0.929 . S
H65 C110 0.931 . S
H66 C112 0.930 . S
H67 C113 0.929 . S
O68 H42 0.856 . S
O68 C114 1.300 . S
O69 C114 1.209 . S
O70 C115 1.199 . S
O71 H43 0.854 . S
O71 C115 1.297 . S
C72 C73 1.404 . S
C72 C77 1.397 . S
C72 C78 1.492 . S
C73 C72 1.404 . S
C73 C74 1.396 . S
C73 C84 1.492 . S
C74 C73 1.396 . S
C74 C75 1.397 . S
C74 C90 1.509 . S
C75 C74 1.397 . S
C75 C76 1.412 . S
C75 C96 1.485 . S
C76 C75 1.412 . S
C76 C77 1.388 . S
C76 C102 1.490 . S
C77 C72 1.397 . S
C77 C76 1.388 . S
C77 C108 1.519 . S
C78 C72 1.492 . S
C78 C79 1.363 1_455 S
C78 C83 1.390 . S
C79 H44 0.930 . S
C79 C78 1.363 1_655 S
C79 C80 1.372 . S
C80 H45 0.930 . S
C80 C79 1.372 . S
C80 C81 1.383 1_655 S
C81 C80 1.383 1_455 S
C81 C82 1.395 . S
C82 H46 0.930 . S
C82 C81 1.395 . S
C82 C83 1.362 . S
C83 H47 0.930 . S
C83 C78 1.390 . S
C83 C82 1.362 . S
C84 C73 1.492 . S
C84 C85 1.377 . S
C84 C89 1.397 . S
C85 H48 0.931 1_455 S
C85 C84 1.377 . S
C85 C86 1.376 . S
C86 H49 0.930 1_455 S
C86 C85 1.376 . S
C86 C87 1.376 . S
C87 C86 1.376 . S
C87 C88 1.378 . S
C87 C114 1.486 . S
C88 H50 0.930 . S
C88 C87 1.378 . S
C88 C89 1.376 . S
C89 H51 0.929 . S
C89 C84 1.397 . S
C89 C88 1.376 . S
C90 C74 1.509 . S
C90 C91 1.391 . S
C90 C95 1.386 . S
C91 H52 0.930 1_455 S
C91 C90 1.391 . S
C91 C92 1.375 . S
C92 H53 0.931 1_455 S
C92 C91 1.375 . S
C92 C93 1.375 . S
C93 C92 1.375 . S
C93 C94 1.361 . S
C94 H54 0.930 . S
C94 C93 1.361 . S
C94 C95 1.399 . S
C95 H55 0.929 . S
C95 C90 1.386 . S
C95 C94 1.399 . S
C96 C75 1.485 . S
C96 C97 1.394 1_455 S
C96 C101 1.360 . S
C97 H56 0.931 . S
C97 C96 1.394 1_655 S
C97 C98 1.372 . S
C98 H57 0.930 . S
C98 C97 1.372 . S
C98 C99 1.397 1_655 S
C99 C98 1.397 1_455 S
C99 C100 1.390 . S
C99 C115 1.476 . S
C100 H58 0.930 . S
C100 C99 1.390 . S
C100 C101 1.366 . S
C101 H59 0.932 . S
C101 C96 1.360 . S
C101 C100 1.366 . S
C102 C76 1.490 . S
C102 C103 1.380 1_455 S
C102 C107 1.386 . S
C103 H60 0.930 . S
C103 C102 1.380 1_655 S
C103 C104 1.381 . S
C104 H61 0.929 . S
C104 C103 1.381 . S
C104 C105 1.371 1_655 S
C105 C104 1.371 1_455 S
C105 C106 1.380 . S
C106 H62 0.931 . S
C106 C105 1.380 . S
C106 C107 1.387 . S
C107 H63 0.930 . S
C107 C102 1.386 . S
C107 C106 1.387 . S
C108 C77 1.519 . S
C108 C109 1.377 1_455 S
C108 C113 1.361 . S
C109 H64 0.929 . S
C109 C108 1.377 1_655 S
C109 C110 1.386 . S
C110 H65 0.931 . S
C110 C109 1.386 . S
C110 C111 1.363 1_655 S
C111 C110 1.363 1_455 S
C111 C112 1.385 . S
C112 H66 0.930 . S
C112 C111 1.385 . S
C112 C113 1.396 . S
C113 H67 0.929 . S
C113 C108 1.361 . S
C113 C112 1.396 . S
C114 O68 1.300 . S
C114 O69 1.209 . S
C114 C87 1.486 . S
C115 O70 1.199 . S
C115 O71 1.297 . S
C115 C99 1.476 . S
H116 O142 0.856 . S
H117 O145 0.854 . S
H118 C153 0.930 1_565 S
H119 C154 0.930 . S
H120 C156 0.930 . S
H121 C157 0.930 . S
H122 C159 0.931 1_565 S
H123 C160 0.930 1_565 S
H124 C162 0.930 . S
H125 C163 0.929 . S
H126 C165 0.930 1_565 S
H127 C166 0.931 1_565 S
H128 C168 0.930 . S
H129 C169 0.929 . S
H130 C171 0.931 1_565 S
H131 C172 0.930 . S
H132 C174 0.930 . S
H133 C175 0.932 . S
H134 C177 0.930 1_565 S
H135 C178 0.929 1_565 S
H136 C180 0.931 . S
H137 C181 0.930 . S
H138 C183 0.929 1_565 S
H139 C184 0.931 . S
H140 C186 0.930 . S
H141 C187 0.929 . S
O142 H116 0.856 . S
O142 C188 1.300 . S
O143 C188 1.209 . S
O144 C189 1.199 . S
O145 H117 0.854 . S
O145 C189 1.297 . S
C146 C147 1.404 . S
C146 C151 1.397 . S
C146 C152 1.492 . S
C147 C146 1.404 . S
C147 C148 1.396 . S
C147 C158 1.492 . S
C148 C147 1.396 . S
C148 C149 1.397 . S
C148 C164 1.509 . S
C149 C148 1.397 . S
C149 C150 1.412 . S
C149 C170 1.485 . S
C150 C149 1.412 . S
C150 C151 1.388 . S
C150 C176 1.490 . S
C151 C146 1.397 . S
C151 C150 1.388 . S
C151 C182 1.519 . S
C152 C146 1.492 . S
C152 C153 1.363 . S
C152 C157 1.390 . S
C153 H118 0.930 1_545 S
C153 C152 1.363 . S
C153 C154 1.372 1_545 S
C154 H119 0.930 . S
C154 C153 1.372 1_565 S
C154 C155 1.383 1_565 S
C155 C154 1.383 1_545 S
C155 C156 1.395 . S
C156 H120 0.930 . S
C156 C155 1.395 . S
C156 C157 1.362 . S
C157 H121 0.930 . S
C157 C152 1.390 . S
C157 C156 1.362 . S
C158 C147 1.492 . S
C158 C159 1.377 . S
C158 C163 1.397 . S
C159 H122 0.931 1_545 S
C159 C158 1.377 . S
C159 C160 1.376 . S
C160 H123 0.930 1_545 S
C160 C159 1.376 . S
C160 C161 1.376 . S
C161 C160 1.376 . S
C161 C162 1.378 . S
C161 C188 1.486 . S
C162 H124 0.930 . S
C162 C161 1.378 . S
C162 C163 1.376 . S
C163 H125 0.929 . S
C163 C158 1.397 . S
C163 C162 1.376 . S
C164 C148 1.509 . S
C164 C165 1.391 . S
C164 C169 1.386 . S
C165 H126 0.930 1_545 S
C165 C164 1.391 . S
C165 C166 1.375 . S
C166 H127 0.931 1_545 S
C166 C165 1.375 . S
C166 C167 1.375 . S
C167 C166 1.375 . S
C167 C168 1.361 . S
C168 H128 0.930 . S
C168 C167 1.361 . S
C168 C169 1.399 . S
C169 H129 0.929 . S
C169 C164 1.386 . S
C169 C168 1.399 . S
C170 C149 1.485 . S
C170 C171 1.394 . S
C170 C175 1.360 . S
C171 H130 0.931 1_545 S
C171 C170 1.394 . S
C171 C172 1.372 . S
C172 H131 0.930 . S
C172 C171 1.372 . S
C172 C173 1.397 . S
C173 C172 1.397 . S
C173 C174 1.390 . S
C173 C189 1.476 . S
C174 H132 0.930 . S
C174 C173 1.390 . S
C174 C175 1.366 . S
C175 H133 0.932 . S
C175 C170 1.360 . S
C175 C174 1.366 . S
C176 C150 1.490 . S
C176 C177 1.380 . S
C176 C181 1.386 . S
C177 H134 0.930 1_545 S
C177 C176 1.380 . S
C177 C178 1.381 . S
C178 H135 0.929 1_545 S
C178 C177 1.381 . S
C178 C179 1.371 . S
C179 C178 1.371 . S
C179 C180 1.380 . S
C180 H136 0.931 . S
C180 C179 1.380 . S
C180 C181 1.387 . S
C181 H137 0.930 . S
C181 C176 1.386 . S
C181 C180 1.387 . S
C182 C151 1.519 . S
C182 C183 1.377 . S
C182 C187 1.361 . S
C183 H138 0.929 1_545 S
C183 C182 1.377 . S
C183 C184 1.386 . S
C184 H139 0.931 . S
C184 C183 1.386 . S
C184 C185 1.363 . S
C185 C184 1.363 . S
C185 C186 1.385 . S
C186 H140 0.930 . S
C186 C185 1.385 . S
C186 C187 1.396 . S
C187 H141 0.929 . S
C187 C182 1.361 . S
C187 C186 1.396 . S
C188 O142 1.300 . S
C188 O143 1.209 . S
C188 C161 1.486 . S
C189 O144 1.199 . S
C189 O145 1.297 . S
C189 C173 1.476 . S
H190 O216 0.856 . S
H191 O219 0.854 . S
H192 C227 0.930 . S
H193 C228 0.930 . S
H194 C230 0.930 . S
H195 C231 0.930 . S
H196 C233 0.931 . S
H197 C234 0.930 . S
H198 C236 0.930 . S
H199 C237 0.929 . S
H200 C239 0.930 . S
H201 C240 0.931 . S
H202 C242 0.922 1_554 S
H203 C243 0.929 . S
H204 C245 0.931 . S
H205 C246 0.930 . S
H206 C248 0.930 . S
H207 C249 0.932 . S
H208 C251 0.930 . S
H209 C252 0.929 . S
H210 C254 0.931 . S
H211 C255 0.930 . S
H212 C257 0.929 . S
H213 C258 0.931 . S
H214 C260 0.930 . S
H215 C261 0.929 . S
O216 H190 0.856 . S
O216 C262 1.300 . S
O217 C262 1.209 . S
O218 C263 1.199 . S
O219 H191 0.854 . S
O219 C263 1.297 . S
C220 C221 1.404 . S
C220 C225 1.397 . S
C220 C226 1.492 . S
C221 C220 1.404 . S
C221 C222 1.396 . S
C221 C232 1.492 . S
C222 C221 1.396 . S
C222 C223 1.397 . S
C222 C238 1.509 . S
C223 C222 1.397 . S
C223 C224 1.412 . S
C223 C244 1.485 . S
C224 C223 1.412 . S
C224 C225 1.388 . S
C224 C250 1.490 . S
C225 C220 1.397 . S
C225 C224 1.388 . S
C225 C256 1.519 . S
C226 C220 1.492 . S
C226 C227 1.363 . S
C226 C231 1.390 . S
C227 H192 0.930 . S
C227 C226 1.363 . S
C227 C228 1.372 . S
C228 H193 0.930 . S
C228 C227 1.372 . S
C228 C229 1.383 . S
C229 C228 1.383 . S
C229 C230 1.395 . S
C230 H194 0.930 . S
C230 C229 1.395 . S
C230 C231 1.362 . S
C231 H195 0.930 . S
C231 C226 1.390 . S
C231 C230 1.362 . S
C232 C221 1.492 . S
C232 C233 1.377 . S
C232 C237 1.397 . S
C233 H196 0.931 . S
C233 C232 1.377 . S
C233 C234 1.376 1_556 S
C234 H197 0.930 . S
C234 C233 1.376 1_554 S
C234 C235 1.376 . S
C235 C234 1.376 . S
C235 C236 1.378 . S
C235 C262 1.486 . S
C236 H198 0.930 . S
C236 C235 1.378 . S
C236 C237 1.376 1_554 S
C237 H199 0.929 . S
C237 C232 1.397 . S
C237 C236 1.376 1_556 S
C238 C222 1.509 . S
C238 C239 1.391 . S
C238 C243 1.386 . S
C239 H200 0.930 . S
C239 C238 1.391 . S
C239 C240 1.375 . S
C240 H201 0.931 . S
C240 C239 1.375 . S
C240 C241 1.368 1_556 S
C241 C240 1.368 1_554 S
C241 C242 1.357 1_554 S
C242 H202 0.922 1_556 S
C242 C241 1.357 1_556 S
C242 C243 1.399 . S
C243 H203 0.929 . S
C243 C238 1.386 . S
C243 C242 1.399 . S
C244 C223 1.485 . S
C244 C245 1.394 . S
C244 C249 1.360 . S
C245 H204 0.931 . S
C245 C244 1.394 . S
C245 C246 1.372 . S
C246 H205 0.930 . S
C246 C245 1.372 . S
C246 C247 1.397 . S
C247 C246 1.397 . S
C247 C248 1.390 . S
C247 C263 1.476 . S
C248 H206 0.930 . S
C248 C247 1.390 . S
C248 C249 1.366 . S
C249 H207 0.932 . S
C249 C244 1.360 . S
C249 C248 1.366 . S
C250 C224 1.490 . S
C250 C251 1.380 . S
C250 C255 1.386 . S
C251 H208 0.930 . S
C251 C250 1.380 . S
C251 C252 1.381 . S
C252 H209 0.929 . S
C252 C251 1.381 . S
C252 C253 1.371 . S
C253 C252 1.371 . S
C253 C254 1.380 . S
C254 H210 0.931 . S
C254 C253 1.380 . S
C254 C255 1.387 . S
C255 H211 0.930 . S
C255 C250 1.386 . S
C255 C254 1.387 . S
C256 C225 1.519 . S
C256 C257 1.377 . S
C256 C261 1.361 . S
C257 H212 0.929 . S
C257 C256 1.377 . S
C257 C258 1.386 . S
C258 H213 0.931 . S
C258 C257 1.386 . S
C258 C259 1.363 . S
C259 C258 1.363 . S
C259 C260 1.385 . S
C260 H214 0.930 . S
C260 C259 1.385 . S
C260 C261 1.396 . S
C261 H215 0.929 . S
C261 C256 1.361 . S
C261 C260 1.396 . S
C262 O216 1.300 . S
C262 O217 1.209 . S
C262 C235 1.486 . S
C263 O218 1.199 . S
C263 O219 1.297 . S
C263 C247 1.476 . S
C264 C265 1.363 . S
C264 C270 1.379 1_455 S
C264 N272 1.356 1_455 S
C265 C264 1.363 . S
C265 C271 1.363 . S
C266 C267 1.363 . S
C266 C271 1.379 . S
C266 N273 1.356 . S
C267 C266 1.363 . S
C267 C270 1.363 1_455 S
N268 C270 1.356 . S
N268 H280 0.984 . S
N268 H281 0.985 . S
N269 C271 1.356 . S
N269 H274 0.984 . S
N269 H275 0.985 . S
C270 C264 1.379 1_655 S
C270 C267 1.363 1_655 S
C270 N268 1.356 . S
C271 C265 1.363 . S
C271 C266 1.379 . S
C271 N269 1.356 . S
N272 C264 1.356 1_655 S
N272 H278 0.984 . S
N272 H279 0.984 . S
N273 C266 1.356 . S
N273 H276 0.984 . S
N273 H277 0.985 . S
H274 N269 0.984 . S
H275 N269 0.985 . S
H276 N273 0.984 . S
H277 N273 0.985 . S
H278 N272 0.984 . S
H279 N272 0.984 . S
H280 N268 0.984 . S
H281 N268 0.985 . S
C282 C283 1.363 . S
C282 C288 1.379 . S
C282 N290 1.356 1_655 S
C283 C282 1.363 . S
C283 C289 1.363 1_545 S
C284 C285 1.363 1_565 S
C284 C289 1.379 . S
C284 N291 1.356 . S
C285 C284 1.363 1_545 S
C285 C288 1.363 . S
N286 C288 1.356 . S
N286 H298 0.984 1_655 S
N286 H299 0.985 . S
N287 C289 1.356 . S
N287 H292 0.984 . S
N287 H293 0.985 . S
C288 C282 1.379 . S
C288 C285 1.363 . S
C288 N286 1.356 . S
C289 C283 1.363 1_565 S
C289 C284 1.379 . S
C289 N287 1.356 . S
N290 C282 1.356 1_455 S
N290 H296 0.984 . S
N290 H297 0.984 . S
N291 C284 1.356 . S
N291 H294 0.984 . S
N291 H295 0.985 . S
H292 N287 0.984 . S
H293 N287 0.985 . S
H294 N291 0.984 . S
H295 N291 0.985 . S
H296 N290 0.984 . S
H297 N290 0.984 . S
H298 N286 0.984 1_455 S
H299 N286 0.985 . S
C300 C301 1.363 . S
C300 C306 1.379 . S
C300 N308 1.356 1_655 S
C301 C300 1.363 . S
C301 C307 1.363 . S
C302 C303 1.363 . S
C302 C307 1.379 . S
C302 N309 1.356 . S
C303 C302 1.363 . S
C303 C306 1.363 . S
N304 C306 1.356 . S
N304 H316 0.984 . S
N304 H317 0.985 . S
N305 C307 1.356 . S
N305 H310 0.984 . S
N305 H311 0.985 . S
C306 C300 1.379 . S
C306 C303 1.363 . S
C306 N304 1.356 . S
C307 C301 1.363 . S
C307 C302 1.379 . S
C307 N305 1.356 . S
N308 C300 1.356 1_455 S
N308 H314 0.984 1_565 S
N308 H315 0.989 . S
N309 C302 1.356 . S
N309 H312 0.984 . S
N309 H313 0.985 . S
H310 N305 0.984 . S
H311 N305 0.985 . S
H312 N309 0.984 . S
H313 N309 0.985 . S
H314 N308 0.984 1_545 S
H315 N308 0.989 . S
H316 N304 0.984 . S
H317 N304 0.985 . S
C318 C319 1.363 . S
C318 C324 1.379 . S
C318 N326 1.356 . S
C319 C318 1.363 . S
C319 C325 1.363 . S
C320 C321 1.363 . S
C320 C325 1.379 . S
C320 N327 1.356 1_455 S
C321 C320 1.363 . S
C321 C324 1.363 . S
N322 C324 1.356 . S
N322 H334 0.984 . S
N322 H335 0.985 . S
N323 C325 1.356 1_655 S
N323 H328 0.984 . S
N323 H329 0.985 . S
C324 C318 1.379 . S
C324 C321 1.363 . S
C324 N322 1.356 . S
C325 C319 1.363 . S
C325 C320 1.379 . S
C325 N323 1.356 1_455 S
N326 C318 1.356 . S
N326 H332 0.984 1_565 S
N326 H333 0.983 . S
N327 C320 1.356 1_655 S
N327 H330 0.984 1_655 S
N327 H331 0.985 . S
H328 N323 0.984 . S
H329 N323 0.985 . S
H330 N327 0.984 1_455 S
H331 N327 0.985 . S
H332 N326 0.984 1_545 S
H333 N326 0.983 . S
H334 N322 0.984 . S
H335 N322 0.985 . S
C336 C337 1.363 . S
C336 C342 1.379 . S
C336 N344 1.356 1_545 S
C337 C336 1.363 . S
C337 C343 1.363 . S
C338 C339 1.363 . S
C338 C343 1.379 . S
C338 N345 1.356 . S
C339 C338 1.363 . S
C339 C342 1.363 . S
N340 C342 1.356 . S
N340 H352 0.984 . S
N340 H353 0.985 . S
N341 C343 1.356 . S
N341 H346 0.984 . S
N341 H347 0.985 . S
C342 C336 1.379 . S
C342 C339 1.363 . S
C342 N340 1.356 . S
C343 C337 1.363 . S
C343 C338 1.379 . S
C343 N341 1.356 . S
N344 C336 1.356 1_565 S
N344 H350 0.984 . S
N344 H351 0.984 . S
N345 C338 1.356 . S
N345 H348 0.984 . S
N345 H349 0.985 . S
H346 N341 0.984 . S
H347 N341 0.985 . S
H348 N345 0.984 . S
H349 N345 0.985 . S
H350 N344 0.984 . S
H351 N344 0.984 . S
H352 N340 0.984 . S
H353 N340 0.985 . S
C354 C355 1.363 . S
C354 C360 1.379 . S
C354 N362 1.356 . S
C355 C354 1.363 . S
C355 C361 1.363 . S
C356 C357 1.363 . S
C356 C361 1.379 . S
C356 N363 1.356 . S
C357 C356 1.363 . S
C357 C360 1.363 . S
N358 C360 1.356 . S
N358 H370 0.984 . S
N358 H371 0.985 . S
N359 C361 1.356 . S
N359 H364 0.984 . S
N359 H365 0.985 . S
C360 C354 1.379 . S
C360 C357 1.363 . S
C360 N358 1.356 . S
C361 C355 1.363 . S
C361 C356 1.379 . S
C361 N359 1.356 . S
N362 C354 1.356 . S
N362 H368 0.984 . S
N362 H369 0.984 . S
N363 C356 1.356 . S
N363 H366 0.984 . S
N363 H367 0.985 . S
H364 N359 0.984 . S
H365 N359 0.985 . S
H366 N363 0.984 . S
H367 N363 0.985 . S
H368 N362 0.984 . S
H369 N362 0.984 . S
H370 N358 0.984 . S
H371 N358 0.985 . S
C372 C373 1.363 . S
C372 C378 1.379 . S
C372 N380 1.356 . S
C373 C372 1.363 . S
C373 C379 1.363 . S
C374 C375 1.363 . S
C374 C379 1.379 . S
C374 N381 1.356 . S
C375 C374 1.363 . S
C375 C378 1.363 . S
N376 C378 1.356 . S
N376 H388 0.984 . S
N376 H389 0.985 . S
N377 C379 1.356 1_455 S
N377 H382 0.984 . S
N377 H383 0.985 . S
C378 C372 1.379 . S
C378 C375 1.363 . S
C378 N376 1.356 . S
C379 C373 1.363 . S
C379 C374 1.379 . S
C379 N377 1.356 1_655 S
N380 C372 1.356 . S
N380 H386 0.984 . S
N380 H387 0.984 . S
N381 C374 1.356 . S
N381 H384 0.984 . S
N381 H385 0.985 . S
H382 N377 0.984 . S
H383 N377 0.985 . S
H384 N381 0.984 . S
H385 N381 0.985 . S
H386 N380 0.984 . S
H387 N380 0.984 . S
H388 N376 0.984 . S
H389 N376 0.985 . S
C390 C391 1.363 . S
C390 C396 1.379 1_554 S
C390 N398 1.356 . S
C391 C390 1.363 . S
C391 C397 1.363 . S
C392 C393 1.363 . S
C392 C397 1.379 1_556 S
C392 N399 1.356 . S
C393 C392 1.363 . S
C393 C396 1.363 . S
N394 C396 1.356 . S
N394 H406 0.984 . S
N394 H407 0.985 . S
N395 C397 1.356 1_545 S
N395 H400 0.984 . S
N395 H401 0.985 . S
C396 C390 1.379 1_556 S
C396 C393 1.363 . S
C396 N394 1.356 . S
C397 C391 1.363 . S
C397 C392 1.379 1_554 S
C397 N395 1.356 1_565 S
N398 C390 1.356 . S
N398 H404 0.984 1_655 S
N398 H405 0.984 1_655 S
N399 C392 1.356 . S
N399 H402 0.984 . S
N399 H403 0.985 . S
H400 N395 0.984 . S
H401 N395 0.985 . S
H402 N399 0.984 . S
H403 N399 0.985 . S
H404 N398 0.984 1_455 S
H405 N398 0.984 1_455 S
H406 N394 0.984 . S
H407 N394 0.985 . S
C408 C409 1.363 . S
C408 C414 1.379 . S
C408 N416 1.356 . S
C409 C408 1.363 . S
C409 C415 1.363 1_455 S
C410 C411 1.363 1_655 S
C410 C415 1.379 . S
C410 N417 1.356 . S
C411 C410 1.363 1_455 S
C411 C414 1.363 . S
N412 C414 1.356 . S
N412 H424 0.984 . S
N412 H425 0.985 . S
N413 C415 1.356 . S
N413 H418 0.984 . S
N413 H419 0.985 . S
C414 C408 1.379 . S
C414 C411 1.363 . S
C414 N412 1.356 . S
C415 C409 1.363 1_655 S
C415 C410 1.379 . S
C415 N413 1.356 . S
N416 C408 1.356 . S
N416 H422 0.984 . S
N416 H423 0.984 . S
N417 C410 1.356 . S
N417 H420 0.984 . S
N417 H421 0.985 . S
H418 N413 0.984 . S
H419 N413 0.985 . S
H420 N417 0.984 . S
H421 N417 0.985 . S
H422 N416 0.984 . S
H423 N416 0.984 . S
H424 N412 0.984 . S
H425 N412 0.985 . S
C426 C427 1.363 . S
C426 C432 1.379 . S
C426 N434 1.356 . S
C427 C426 1.363 . S
C427 C433 1.363 . S
C428 C429 1.363 . S
C428 C433 1.379 . S
C428 N435 1.356 . S
C429 C428 1.363 . S
C429 C432 1.363 . S
N430 C432 1.356 . S
N430 H442 0.984 . S
N430 H443 0.985 . S
N431 C433 1.356 . S
N431 H436 0.984 . S
N431 H437 0.985 . S
C432 C426 1.379 . S
C432 C429 1.363 . S
C432 N430 1.356 . S
C433 C427 1.363 . S
C433 C428 1.379 . S
C433 N431 1.356 . S
N434 C426 1.356 . S
N434 H440 0.984 . S
N434 H441 0.984 . S
N435 C428 1.356 . S
N435 H438 0.984 . S
N435 H439 0.985 . S
H436 N431 0.984 . S
H437 N431 0.985 . S
H438 N435 0.984 . S
H439 N435 0.985 . S
H440 N434 0.984 . S
H441 N434 0.984 . S
H442 N430 0.984 . S
H443 N430 0.985 . S
C444 C445 1.363 . S
C444 C450 1.379 . S
C444 N452 1.356 . S
C445 C444 1.363 . S
C445 C451 1.363 . S
C446 C447 1.363 . S
C446 C451 1.379 . S
C446 N453 1.356 . S
C447 C446 1.363 . S
C447 C450 1.363 . S
N448 C450 1.331 1_556 S
N448 H460 0.994 . S
N448 H461 1.002 . S
N449 C451 1.356 . S
N449 H454 0.984 . S
N449 H455 0.985 . S
C450 C444 1.379 . S
C450 C447 1.363 . S
C450 N448 1.331 1_554 S
C451 C445 1.363 . S
C451 C446 1.379 . S
C451 N449 1.356 . S
N452 C444 1.356 . S
N452 H458 0.984 . S
N452 H459 0.984 . S
N453 C446 1.356 . S
N453 H456 0.984 . S
N453 H457 0.985 . S
H454 N449 0.984 . S
H455 N449 0.985 . S
H456 N453 0.984 . S
H457 N453 0.985 . S
H458 N452 0.984 . S
H459 N452 0.984 . S
H460 N448 0.994 . S
H461 N448 1.002 . S
C462 C463 1.363 . S
C462 C468 1.379 . S
C462 N470 1.356 . S
C463 C462 1.363 . S
C463 C469 1.363 1_455 S
C464 C465 1.363 1_655 S
C464 C469 1.379 . S
C464 N471 1.356 . S
C465 C464 1.363 1_455 S
C465 C468 1.363 . S
N466 C468 1.356 . S
N466 H478 0.984 . S
N466 H479 0.985 . S
N467 C469 1.356 . S
N467 H472 0.984 . S
N467 H473 0.985 . S
C468 C462 1.379 . S
C468 C465 1.363 . S
C468 N466 1.356 . S
C469 C463 1.363 1_655 S
C469 C464 1.379 . S
C469 N467 1.356 . S
N470 C462 1.356 . S
N470 H476 0.984 . S
N470 H477 0.984 . S
N471 C464 1.356 . S
N471 H474 0.984 . S
N471 H475 0.985 . S
H472 N467 0.984 . S
H473 N467 0.985 . S
H474 N471 0.984 . S
H475 N471 0.985 . S
H476 N470 0.984 . S
H477 N470 0.984 . S
H478 N466 0.984 . S
H479 N466 0.985 . S
C267 C81 1.506 . S
C265 C6 1.646 . S
C283 C22 1.680 . S
C285 C155 1.531 . S
C301 C34 1.864 . S
C303 C259 1.888 . S
C319 C7 0.940 . S
C321 C93 0.945 . S
C339 C167 1.072 . S
C337 C23 1.093 . S
C355 C35 1.452 . S
C357 C253 1.374 . S
C375 C185 2.089 . S
C373 C36 2.099 1_655 S
C391 C9 1.863 1_655 S
C393 C229 1.714 . S
C411 C105 1.575 . S
C409 C21 1.690 . S
C429 C179 1.594 . S
C427 C37 1.760 . S
C447 C241 1.197 . S
C445 C8 1.182 . S
C463 C20 2.089 . S
C465 C111 2.121 . S
