# Generated by pormake.
# Topology eea, (3,6)-cn, num edge types: 1
# Building blocks:
#     Node 0, Type 0, BuildingBlock: PAMTOO_clean_linker_0, # of connection points: 3
#     Node 1, Type 0, BuildingBlock: PAMTOO_clean_linker_0, # of connection points: 3
#     Node 2, Type 0, BuildingBlock: PAMTOO_clean_linker_0, # of connection points: 3
#     Node 3, Type 0, BuildingBlock: PAMTOO_clean_linker_0, # of connection points: 3
#     Node 4, Type 0, BuildingBlock: PAMTOO_clean_linker_0, # of connection points: 3
#     Node 5, Type 0, BuildingBlock: PAMTOO_clean_linker_0, # of connection points: 3
#     Node 6, Type 0, BuildingBlock: PAMTOO_clean_linker_0, # of connection points: 3
#     Node 7, Type 0, BuildingBlock: PAMTOO_clean_linker_0, # of connection points: 3
#     Node 8, Type 0, BuildingBlock: PAMTOO_clean_linker_0, # of connection points: 3
#     Node 9, Type 0, BuildingBlock: PAMTOO_clean_linker_0, # of connection points: 3
#     Node 10, Type 0, BuildingBlock: PAMTOO_clean_linker_0, # of connection points: 3
#     Node 11, Type 0, BuildingBlock: PAMTOO_clean_linker_0, # of connection points: 3
#     Node 12, Type 0, BuildingBlock: PAMTOO_clean_linker_0, # of connection points: 3
#     Node 13, Type 0, BuildingBlock: PAMTOO_clean_linker_0, # of connection points: 3
#     Node 14, Type 0, BuildingBlock: PAMTOO_clean_linker_0, # of connection points: 3
#     Node 15, Type 0, BuildingBlock: PAMTOO_clean_linker_0, # of connection points: 3
#     Node 16, Type 0, BuildingBlock: PAMTOO_clean_linker_0, # of connection points: 3
#     Node 17, Type 0, BuildingBlock: PAMTOO_clean_linker_0, # of connection points: 3
#     Node 18, Type 1, BuildingBlock: CUKXOW_clean_sbu_0, # of connection points: 6
#     Node 19, Type 1, BuildingBlock: CUKXOW_clean_sbu_0, # of connection points: 6
#     Node 20, Type 1, BuildingBlock: CUKXOW_clean_sbu_0, # of connection points: 6
#     Node 21, Type 1, BuildingBlock: CUKXOW_clean_sbu_0, # of connection points: 6
#     Node 22, Type 1, BuildingBlock: CUKXOW_clean_sbu_0, # of connection points: 6
#     Node 23, Type 1, BuildingBlock: CUKXOW_clean_sbu_0, # of connection points: 6
#     Node 24, Type 1, BuildingBlock: CUKXOW_clean_sbu_0, # of connection points: 6
#     Node 25, Type 1, BuildingBlock: CUKXOW_clean_sbu_0, # of connection points: 6
#     Node 26, Type 1, BuildingBlock: CUKXOW_clean_sbu_0, # of connection points: 6
#     Edge 27, Type (0, 1), BuildingBlock: MIFKUJ_clean_linker_0, # of connection points: 2
#     Edge 28, Type (0, 1), BuildingBlock: MIFKUJ_clean_linker_0, # of connection points: 2
#     Edge 29, Type (0, 1), BuildingBlock: MIFKUJ_clean_linker_0, # of connection points: 2
#     Edge 30, Type (0, 1), BuildingBlock: MIFKUJ_clean_linker_0, # of connection points: 2
#     Edge 31, Type (0, 1), BuildingBlock: MIFKUJ_clean_linker_0, # of connection points: 2
#     Edge 32, Type (0, 1), BuildingBlock: MIFKUJ_clean_linker_0, # of connection points: 2
#     Edge 33, Type (0, 1), BuildingBlock: MIFKUJ_clean_linker_0, # of connection points: 2
#     Edge 34, Type (0, 1), BuildingBlock: MIFKUJ_clean_linker_0, # of connection points: 2
#     Edge 35, Type (0, 1), BuildingBlock: MIFKUJ_clean_linker_0, # of connection points: 2
#     Edge 36, Type (0, 1), BuildingBlock: MIFKUJ_clean_linker_0, # of connection points: 2
#     Edge 37, Type (0, 1), BuildingBlock: MIFKUJ_clean_linker_0, # of connection points: 2
#     Edge 38, Type (0, 1), BuildingBlock: MIFKUJ_clean_linker_0, # of connection points: 2
#     Edge 39, Type (0, 1), BuildingBlock: MIFKUJ_clean_linker_0, # of connection points: 2
#     Edge 40, Type (0, 1), BuildingBlock: MIFKUJ_clean_linker_0, # of connection points: 2
#     Edge 41, Type (0, 1), BuildingBlock: MIFKUJ_clean_linker_0, # of connection points: 2
#     Edge 42, Type (0, 1), BuildingBlock: MIFKUJ_clean_linker_0, # of connection points: 2
#     Edge 43, Type (0, 1), BuildingBlock: MIFKUJ_clean_linker_0, # of connection points: 2
#     Edge 44, Type (0, 1), BuildingBlock: MIFKUJ_clean_linker_0, # of connection points: 2
#     Edge 45, Type (0, 1), BuildingBlock: MIFKUJ_clean_linker_0, # of connection points: 2
#     Edge 46, Type (0, 1), BuildingBlock: MIFKUJ_clean_linker_0, # of connection points: 2
#     Edge 47, Type (0, 1), BuildingBlock: MIFKUJ_clean_linker_0, # of connection points: 2
#     Edge 48, Type (0, 1), BuildingBlock: MIFKUJ_clean_linker_0, # of connection points: 2
#     Edge 49, Type (0, 1), BuildingBlock: MIFKUJ_clean_linker_0, # of connection points: 2
#     Edge 50, Type (0, 1), BuildingBlock: MIFKUJ_clean_linker_0, # of connection points: 2
#     Edge 51, Type (0, 1), BuildingBlock: MIFKUJ_clean_linker_0, # of connection points: 2
#     Edge 52, Type (0, 1), BuildingBlock: MIFKUJ_clean_linker_0, # of connection points: 2
#     Edge 53, Type (0, 1), BuildingBlock: MIFKUJ_clean_linker_0, # of connection points: 2
#     Edge 54, Type (0, 1), BuildingBlock: MIFKUJ_clean_linker_0, # of connection points: 2
#     Edge 55, Type (0, 1), BuildingBlock: MIFKUJ_clean_linker_0, # of connection points: 2
#     Edge 56, Type (0, 1), BuildingBlock: MIFKUJ_clean_linker_0, # of connection points: 2
#     Edge 57, Type (0, 1), BuildingBlock: MIFKUJ_clean_linker_0, # of connection points: 2
#     Edge 58, Type (0, 1), BuildingBlock: MIFKUJ_clean_linker_0, # of connection points: 2
#     Edge 59, Type (0, 1), BuildingBlock: MIFKUJ_clean_linker_0, # of connection points: 2
#     Edge 60, Type (0, 1), BuildingBlock: MIFKUJ_clean_linker_0, # of connection points: 2
#     Edge 61, Type (0, 1), BuildingBlock: MIFKUJ_clean_linker_0, # of connection points: 2
#     Edge 62, Type (0, 1), BuildingBlock: MIFKUJ_clean_linker_0, # of connection points: 2
#     Edge 63, Type (0, 1), BuildingBlock: MIFKUJ_clean_linker_0, # of connection points: 2
#     Edge 64, Type (0, 1), BuildingBlock: MIFKUJ_clean_linker_0, # of connection points: 2
#     Edge 65, Type (0, 1), BuildingBlock: MIFKUJ_clean_linker_0, # of connection points: 2
#     Edge 66, Type (0, 1), BuildingBlock: MIFKUJ_clean_linker_0, # of connection points: 2
#     Edge 67, Type (0, 1), BuildingBlock: MIFKUJ_clean_linker_0, # of connection points: 2
#     Edge 68, Type (0, 1), BuildingBlock: MIFKUJ_clean_linker_0, # of connection points: 2
#     Edge 69, Type (0, 1), BuildingBlock: MIFKUJ_clean_linker_0, # of connection points: 2
#     Edge 70, Type (0, 1), BuildingBlock: MIFKUJ_clean_linker_0, # of connection points: 2
#     Edge 71, Type (0, 1), BuildingBlock: MIFKUJ_clean_linker_0, # of connection points: 2
#     Edge 72, Type (0, 1), BuildingBlock: MIFKUJ_clean_linker_0, # of connection points: 2
#     Edge 73, Type (0, 1), BuildingBlock: MIFKUJ_clean_linker_0, # of connection points: 2
#     Edge 74, Type (0, 1), BuildingBlock: MIFKUJ_clean_linker_0, # of connection points: 2
#     Edge 75, Type (0, 1), BuildingBlock: MIFKUJ_clean_linker_0, # of connection points: 2
#     Edge 76, Type (0, 1), BuildingBlock: MIFKUJ_clean_linker_0, # of connection points: 2
#     Edge 77, Type (0, 1), BuildingBlock: MIFKUJ_clean_linker_0, # of connection points: 2
#     Edge 78, Type (0, 1), BuildingBlock: MIFKUJ_clean_linker_0, # of connection points: 2
#     Edge 79, Type (0, 1), BuildingBlock: MIFKUJ_clean_linker_0, # of connection points: 2
#     Edge 80, Type (0, 1), BuildingBlock: MIFKUJ_clean_linker_0, # of connection points: 2
# Relax obj value: 0.032
# Max RMSD: 0.154
# Mean RMSD: 0.094
data_MOF--net-eea--node1-CUKXOW_clean_sbu_0--node2-PAMTOO_clean_linker_0--edge1-MIFKUJ_clean_linker_0
_symmetry_space_group_name_H-M    P1
_symmetry_Int_Tables_number       1
_symmetry_cell_setting            triclinic
loop_
_symmetry_equiv_pos_as_xyz
'x, y, z'
_cell_length_a     77.020268
_cell_length_b     73.664588
_cell_length_c     66.171095
_cell_angle_alpha  93.074612
_cell_angle_beta   93.119127
_cell_angle_gamma 119.92626
loop_
_atom_site_label
_atom_site_type_symbol
_atom_site_fract_x
_atom_site_fract_y
_atom_site_fract_z
_atom_type_partial_charge
H0 H 0.23378 0.08532 0.44284 0.0
H1 H 0.23058 0.14222 0.44323 0.0
H2 H 0.20436 0.09624 0.39176 0.0
H3 H 0.22434 0.14075 0.38117 0.0
C4 C 0.22359 0.14833 0.39584 0.0
O5 O 0.21097 0.13283 0.40746 0.0
H6 H 0.23903 0.15747 0.40379 0.0
C7 C 0.22936 0.09541 0.43554 0.0
C8 C 0.21888 0.08864 0.41608 0.0
C9 C 0.23361 0.11466 0.44576 0.0
C10 C 0.22715 0.12709 0.43606 0.0
C11 C 0.21668 0.12045 0.41668 0.0
C12 C 0.21238 0.10118 0.4068 0.0
H13 H 0.91497 0.16414 0.44643 0.0
H14 H 0.85996 0.10445 0.43576 0.0
H15 H 0.90509 0.12169 0.39391 0.0
H16 H 0.86416 0.09378 0.37245 0.0
C17 C 0.85616 0.08934 0.38642 0.0
O18 O 0.8697 0.0923 0.40261 0.0
H19 H 0.84954 0.09958 0.38926 0.0
C20 C 0.90555 0.1494 0.43715 0.0
C21 C 0.91239 0.14493 0.41931 0.0
C22 C 0.88666 0.13494 0.44321 0.0
C23 C 0.87449 0.11586 0.43121 0.0
C24 C 0.88124 0.11109 0.41358 0.0
C25 C 0.90015 0.12553 0.40769 0.0
H26 H 0.85698 0.77288 0.46246 0.0
H27 H 0.9146 0.77673 0.46131 0.0
H28 H 0.89455 0.80165 0.41443 0.0
H29 H 0.91469 0.77922 0.39968 0.0
C30 C 0.92412 0.78103 0.41383 0.0
O31 O 0.92325 0.79508 0.42783 0.0
H32 H 0.91808 0.76538 0.41985 0.0
C33 C 0.87083 0.77776 0.45543 0.0
C34 C 0.87375 0.78768 0.4373 0.0
C35 C 0.88543 0.77374 0.46441 0.0
C36 C 0.90328 0.78003 0.45506 0.0
C37 C 0.90638 0.7899 0.43705 0.0
C38 C 0.89177 0.79385 0.4283 0.0
H39 H 0.07292 0.22375 0.54806 0.0
H40 H 0.12577 0.21794 0.55331 0.0
H41 H 0.08391 0.19455 0.59833 0.0
H42 H 0.12572 0.2155 0.61617 0.0
C43 C 0.13298 0.21504 0.60221 0.0
O44 O 0.11833 0.20073 0.58759 0.0
H45 H 0.14057 0.23108 0.59687 0.0
C46 C 0.0817 0.21801 0.55589 0.0
C47 C 0.07584 0.20861 0.5742 0.0
C48 C 0.0996 0.22132 0.54821 0.0
C49 C 0.11172 0.21512 0.55884 0.0
C50 C 0.10602 0.20561 0.5769 0.0
C51 C 0.08804 0.20207 0.58437 0.0
H52 H 0.7723 0.84482 0.57362 0.0
H53 H 0.77909 0.90651 0.58131 0.0
H54 H 0.80489 0.88619 0.62767 0.0
H55 H 0.79343 0.91609 0.64603 0.0
C56 C 0.78981 0.92063 0.63132 0.0
O57 O 0.80015 0.91719 0.61661 0.0
H58 H 0.77325 0.91073 0.62733 0.0
C59 C 0.77799 0.85973 0.58265 0.0
C60 C 0.78884 0.86342 0.60166 0.0
C61 C 0.77441 0.87517 0.57517 0.0
C62 C 0.78169 0.89442 0.5869 0.0
C63 C 0.79278 0.89839 0.60569 0.0
C64 C 0.79645 0.88299 0.61299 0.0
H65 H 0.16162 0.91946 0.57302 0.0
H66 H 0.10194 0.86551 0.57096 0.0
H67 H 0.12569 0.91079 0.62315 0.0
H68 H 0.10246 0.86643 0.63324 0.0
C69 C 0.09274 0.85922 0.6187 0.0
O70 O 0.09497 0.87508 0.60698 0.0
H71 H 0.09754 0.84902 0.61069 0.0
C72 C 0.14774 0.91033 0.57995 0.0
C73 C 0.14559 0.91749 0.59925 0.0
C74 C 0.13208 0.89166 0.56946 0.0
C75 C 0.11426 0.8799 0.57875 0.0
C76 C 0.11207 0.88674 0.59811 0.0
C77 C 0.12759 0.90561 0.60822 0.0
H78 H 0.89479 0.41604 0.77857 0.0
H79 H 0.89101 0.47234 0.7748 0.0
H80 H 0.87409 0.42846 0.7222 0.0
H81 H 0.89456 0.47267 0.71189 0.0
C82 C 0.89237 0.47997 0.72595 0.0
O83 O 0.87814 0.46444 0.73639 0.0
H84 H 0.90712 0.48859 0.73535 0.0
C85 C 0.89093 0.42594 0.77012 0.0
C86 C 0.88372 0.41979 0.74952 0.0
C87 C 0.89391 0.44502 0.77957 0.0
C88 C 0.88929 0.45779 0.76796 0.0
C89 C 0.88237 0.4519 0.74733 0.0
C90 C 0.87963 0.43297 0.73812 0.0
H91 H 0.5932 0.49325 0.79187 0.0
H92 H 0.53869 0.4329 0.78225 0.0
H93 H 0.58093 0.45252 0.73728 0.0
H94 H 0.53761 0.42827 0.71927 0.0
C95 C 0.53093 0.42075 0.73315 0.0
O96 O 0.54614 0.42268 0.74679 0.0
H97 H 0.52339 0.42888 0.73988 0.0
C98 C 0.58357 0.47856 0.78263 0.0
C99 C 0.58948 0.47473 0.76387 0.0
C100 C 0.56525 0.46362 0.78946 0.0
C101 C 0.55282 0.44469 0.77726 0.0
C102 C 0.55847 0.44079 0.75851 0.0
C103 C 0.57681 0.45568 0.7519 0.0
H104 H 0.52484 0.09968 0.79218 0.0
H105 H 0.58197 0.10235 0.79147 0.0
H106 H 0.56112 0.12418 0.74236 0.0
H107 H 0.57791 0.09784 0.72891 0.0
C108 C 0.58827 0.10072 0.74263 0.0
O109 O 0.58894 0.1163 0.75576 0.0
H110 H 0.58239 0.08579 0.75004 0.0
C111 C 0.53863 0.10416 0.78517 0.0
C112 C 0.54133 0.11307 0.7665 0.0
C113 C 0.55324 0.10047 0.79463 0.0
C114 C 0.57041 0.10498 0.78464 0.0
C115 C 0.57286 0.11299 0.76564 0.0
C116 C 0.55859 0.11737 0.75677 0.0
H117 H 0.7422 0.56827 0.8863 0.0
H118 H 0.79739 0.56702 0.89338 0.0
H119 H 0.75369 0.53892 0.9361 0.0
H120 H 0.79546 0.56072 0.95579 0.0
C121 C 0.8032 0.56139 0.9419 0.0
O122 O 0.78927 0.5477 0.92646 0.0
H123 H 0.81048 0.57787 0.93765 0.0
C124 C 0.75152 0.56331 0.89438 0.0
C125 C 0.74532 0.55286 0.9121 0.0
C126 C 0.77022 0.56842 0.88751 0.0
C127 C 0.78285 0.56304 0.89842 0.0
C128 C 0.77684 0.55252 0.91591 0.0
C129 C 0.75811 0.54727 0.92262 0.0
H130 H 0.43525 0.17443 0.91203 0.0
H131 H 0.44277 0.23662 0.91399 0.0
H132 H 0.46629 0.21898 0.96445 0.0
H133 H 0.45252 0.24758 0.97886 0.0
C134 C 0.45002 0.25219 0.96373 0.0
O135 O 0.46143 0.24876 0.95028 0.0
H136 H 0.43372 0.2423 0.95842 0.0
C137 C 0.44084 0.18989 0.91983 0.0
C138 C 0.45135 0.19483 0.93926 0.0
C139 C 0.43755 0.20476 0.9104 0.0
C140 C 0.44479 0.22471 0.92088 0.0
C141 C 0.45497 0.22967 0.9403 0.0
C142 C 0.45843 0.21489 0.94936 0.0
H143 H 0.82185 0.2556 0.89944 0.0
H144 H 0.76292 0.20083 0.89878 0.0
H145 H 0.78988 0.24273 0.95307 0.0
H146 H 0.76822 0.19797 0.9607 0.0
C147 C 0.75761 0.19139 0.94667 0.0
O148 O 0.75854 0.20778 0.93665 0.0
H149 H 0.76221 0.18204 0.93688 0.0
C150 C 0.80861 0.24585 0.90704 0.0
C151 C 0.80786 0.25168 0.92743 0.0
C152 C 0.79258 0.22754 0.89642 0.0
C153 C 0.77556 0.21496 0.90656 0.0
C154 C 0.77472 0.22042 0.92693 0.0
C155 C 0.79072 0.2388 0.93728 0.0
H156 H 0.56771 0.75548 0.10999 0.0
H157 H 0.56714 0.81281 0.10262 0.0
H158 H 0.53876 0.762 0.05538 0.0
H159 H 0.55535 0.80313 0.03805 0.0
C160 C 0.55824 0.81286 0.05262 0.0
O161 O 0.54676 0.80013 0.06684 0.0
H162 H 0.57456 0.82034 0.05779 0.0
C163 C 0.56312 0.76451 0.101 0.0
C164 C 0.55263 0.75602 0.08163 0.0
C165 C 0.56843 0.78494 0.10865 0.0
C166 C 0.56321 0.79704 0.09685 0.0
C167 C 0.55248 0.78868 0.07772 0.0
C168 C 0.54721 0.76827 0.07014 0.0
H169 H 0.26154 0.8235 0.12306 0.0
H170 H 0.20582 0.76425 0.11552 0.0
H171 H 0.24768 0.77947 0.07067 0.0
H172 H 0.20552 0.75443 0.05188 0.0
C173 C 0.19841 0.7495 0.06629 0.0
O174 O 0.21268 0.75146 0.08115 0.0
H175 H 0.19239 0.75999 0.07067 0.0
C176 C 0.25155 0.80854 0.11442 0.0
C177 C 0.25701 0.80352 0.09584 0.0
C178 C 0.23325 0.79445 0.12192 0.0
C179 C 0.22023 0.7752 0.11043 0.0
C180 C 0.22545 0.77001 0.092 0.0
C181 C 0.24381 0.78398 0.08483 0.0
H182 H 0.19105 0.44002 0.13311 0.0
H183 H 0.24887 0.44457 0.13051 0.0
H184 H 0.22414 0.46203 0.08081 0.0
H185 H 0.24456 0.44019 0.06701 0.0
C186 C 0.25413 0.44255 0.08123 0.0
O187 O 0.25426 0.45778 0.09442 0.0
H188 H 0.24755 0.42725 0.08806 0.0
C189 C 0.20431 0.44405 0.12527 0.0
C190 C 0.20569 0.45163 0.10602 0.0
C191 C 0.21971 0.44133 0.13437 0.0
C192 C 0.23673 0.4464 0.12389 0.0
C193 C 0.2382 0.45379 0.10465 0.0
C194 C 0.22285 0.45658 0.09583 0.0
H195 H 0.4171 0.91617 0.22661 0.0
H196 H 0.47088 0.91179 0.23126 0.0
H197 H 0.4268 0.88276 0.27338 0.0
H198 H 0.4684 0.90358 0.29284 0.0
C199 C 0.47627 0.90389 0.27913 0.0
O200 O 0.46219 0.89109 0.26336 0.0
H201 H 0.48466 0.92044 0.27516 0.0
C202 C 0.42605 0.91029 0.23378 0.0
C203 C 0.41932 0.89854 0.25065 0.0
C204 C 0.44462 0.9152 0.22655 0.0
C205 C 0.45657 0.90835 0.23655 0.0
C206 C 0.45021 0.89696 0.25352 0.0
C207 C 0.4316 0.8919 0.26042 0.0
H208 H 0.10817 0.51449 0.23898 0.0
H209 H 0.11596 0.57658 0.24626 0.0
H210 H 0.13591 0.55377 0.2953 0.0
H211 H 0.12426 0.58354 0.31177 0.0
C212 C 0.12173 0.58843 0.29681 0.0
O213 O 0.13339 0.58562 0.28324 0.0
H214 H 0.10547 0.57843 0.29137 0.0
C215 C 0.11311 0.52902 0.2484 0.0
C216 C 0.1222 0.53185 0.26825 0.0
C217 C 0.11075 0.54499 0.24029 0.0
C218 C 0.11781 0.56414 0.25215 0.0
C219 C 0.12689 0.5672 0.27188 0.0
C220 C 0.12914 0.55118 0.27987 0.0
H221 H 0.49841 0.58103 0.24729 0.0
H222 H 0.43925 0.52611 0.2425 0.0
H223 H 0.45905 0.57138 0.29447 0.0
H224 H 0.43582 0.52746 0.30443 0.0
C225 C 0.42687 0.52004 0.28952 0.0
O226 O 0.42951 0.53551 0.2771 0.0
H227 H 0.43244 0.50998 0.28264 0.0
C228 C 0.48425 0.5715 0.25362 0.0
C229 C 0.48073 0.57854 0.27229 0.0
C230 C 0.4694 0.55269 0.24265 0.0
C231 C 0.45082 0.54079 0.25059 0.0
C232 C 0.44722 0.54746 0.26931 0.0
C233 C 0.46204 0.56639 0.28002 0.0
Tb234 Tb 0.52274 0.02194 0.01258 0.0
C235 C 0.50885 0.97382 0.01602 0.0
Tb236 Tb 0.47705 0.98968 0.01337 0.0
O237 O 0.52456 0.03679 0.04291 0.0
O238 O 0.50285 0.00575 0.03435 0.0
O239 O 0.52393 0.993 0.01367 0.0
C240 C 0.44143 0.9606 0.024 0.0
O241 O 0.48984 0.96923 0.01665 0.0
C242 C 0.48931 0.00177 0.97783 0.0
C243 C 0.49109 0.03737 0.01101 0.0
O244 O 0.44847 0.95989 0.00673 0.0
O245 O 0.45433 0.9777 0.03502 0.0
O246 O 0.47121 0.99601 0.98248 0.0
O247 O 0.4988 0.99897 0.99223 0.0
O248 O 0.4773 0.01939 0.01743 0.0
O249 O 0.50877 0.04064 0.00578 0.0
C250 C 0.55924 0.04535 0.00026 0.0
O251 O 0.54236 0.0401 0.98987 0.0
O252 O 0.55559 0.03733 0.01763 0.0
C253 C 0.50822 0.02072 0.04783 0.0
Tb254 Tb 0.98756 0.50585 0.00739 0.0
C255 C 0.0334 0.53827 0.01593 0.0
Tb256 Tb 0.01695 0.48866 0.01087 0.0
O257 O 0.99419 0.51825 0.03937 0.0
O258 O 0.99782 0.49295 0.02976 0.0
O259 O 0.01573 0.53552 0.00862 0.0
C260 C 0.04476 0.47897 0.02277 0.0
O261 O 0.03639 0.52243 0.0197 0.0
C262 C 0.00344 0.48925 0.97391 0.0
C263 C 0.97101 0.4564 0.00263 0.0
O264 O 0.04668 0.49194 0.00938 0.0
O265 O 0.02709 0.47126 0.02935 0.0
O266 O 0.00915 0.47608 0.97884 0.0
O267 O 0.00738 0.50232 0.98892 0.0
O268 O 0.98854 0.45931 0.01053 0.0
O269 O 0.96821 0.47221 0.99834 0.0
C270 C 0.95892 0.51398 0.99461 0.0
O271 O 0.95909 0.5049 0.01084 0.0
O272 O 0.9751 0.51884 0.98568 0.0
C273 C 1.00125 0.50624 0.04453 0.0
Tb274 Tb 0.48532 0.50064 0.01246 0.0
C275 C 0.49906 0.46759 0.00443 0.0
Tb276 Tb 0.53048 0.51706 0.00798 0.0
O277 O 0.47758 0.48798 0.98051 0.0
O278 O 0.50551 0.51423 0.99012 0.0
O279 O 0.48495 0.47087 0.01158 0.0
C280 C 0.56518 0.52561 0.99344 0.0
O281 O 0.5169 0.48312 0.00047 0.0
C282 C 0.52103 0.51659 0.04538 0.0
C283 C 0.51731 0.54992 0.01774 0.0
O284 O 0.56038 0.52029 0.01157 0.0
O285 O 0.55055 0.52632 0.9836 0.0
O286 O 0.53898 0.52895 0.04014 0.0
O287 O 0.51027 0.50371 0.03043 0.0
O288 O 0.53073 0.54674 0.00883 0.0
O289 O 0.49997 0.53431 0.02272 0.0
C290 C 0.44943 0.4917 0.02401 0.0
O291 O 0.45835 0.50347 0.0097 0.0
O292 O 0.46063 0.48477 0.03174 0.0
C293 C 0.49522 0.50113 0.9752 0.0
Tb294 Tb 0.18693 0.3526 0.3436 0.0
C295 C 0.17231 0.30631 0.35231 0.0
Tb296 Tb 0.14124 0.32269 0.3465 0.0
O297 O 0.19384 0.3505 0.37557 0.0
O298 O 0.16602 0.34658 0.3655 0.0
O299 O 0.18612 0.32269 0.34375 0.0
C300 C 0.10482 0.29573 0.35738 0.0
O301 O 0.15503 0.30461 0.35709 0.0
C302 C 0.15266 0.3296 0.30963 0.0
C303 C 0.15602 0.36931 0.33808 0.0
O304 O 0.11495 0.29097 0.34529 0.0
O305 O 0.11511 0.31569 0.36324 0.0
O306 O 0.13471 0.32453 0.3142 0.0
O307 O 0.16219 0.32838 0.325 0.0
O308 O 0.14184 0.35252 0.34585 0.0
O309 O 0.17368 0.37144 0.33428 0.0
C310 C 0.22333 0.37917 0.33251 0.0
O311 O 0.2159 0.38189 0.34878 0.0
O312 O 0.21026 0.36143 0.32245 0.0
C313 C 0.17596 0.34527 0.38057 0.0
Tb314 Tb 0.65293 0.83658 0.34267 0.0
C315 C 0.69943 0.87189 0.34469 0.0
Tb316 Tb 0.68496 0.82335 0.34158 0.0
O317 O 0.64906 0.8303 0.37465 0.0
O318 O 0.67626 0.8389 0.36285 0.0
O319 O 0.68038 0.86709 0.34068 0.0
C320 C 0.71025 0.80991 0.35243 0.0
O321 O 0.70436 0.85731 0.34806 0.0
C322 C 0.67132 0.82818 0.30634 0.0
C323 C 0.63843 0.78806 0.34029 0.0
O324 O 0.70924 0.81707 0.33516 0.0
O325 O 0.69676 0.80992 0.36333 0.0
O326 O 0.68919 0.83069 0.30984 0.0
O327 O 0.66167 0.82107 0.32144 0.0
O328 O 0.65754 0.79276 0.34333 0.0
O329 O 0.63334 0.8026 0.33743 0.0
C330 C 0.62769 0.85009 0.33194 0.0
O331 O 0.6295 0.84392 0.34954 0.0
O332 O 0.64027 0.84888 0.32044 0.0
C333 C 0.66677 0.83241 0.37819 0.0
Tb334 Tb 0.15321 0.83511 0.34368 0.0
C335 C 0.16825 0.80308 0.3386 0.0
Tb336 Tb 0.19835 0.8529 0.33954 0.0
O337 O 0.14584 0.82087 0.31235 0.0
O338 O 0.17313 0.84856 0.32109 0.0
O339 O 0.15415 0.80629 0.34586 0.0
C340 C 0.23338 0.86151 0.32573 0.0
O341 O 0.18568 0.81872 0.33377 0.0
C342 C 0.188 0.85301 0.37653 0.0
C343 C 0.18313 0.88503 0.34393 0.0
O344 O 0.22916 0.85866 0.34444 0.0
O345 O 0.21798 0.85973 0.31489 0.0
O346 O 0.20531 0.86698 0.37106 0.0
O347 O 0.17833 0.83913 0.36199 0.0
O348 O 0.19794 0.88215 0.33824 0.0
O349 O 0.16532 0.86923 0.34773 0.0
C350 C 0.11812 0.82634 0.35732 0.0
O351 O 0.13479 0.83275 0.36859 0.0
O352 O 0.12118 0.82477 0.33838 0.0
C353 C 0.16317 0.83453 0.30671 0.0
Tb354 Tb 0.85546 0.68521 0.67575 0.0
C355 C 0.8416 0.63844 0.68211 0.0
Tb356 Tb 0.80953 0.65323 0.67612 0.0
O357 O 0.86118 0.68693 0.70896 0.0
O358 O 0.8328 0.67796 0.6956 0.0
O359 O 0.85497 0.6553 0.67374 0.0
C360 C 0.77325 0.62623 0.6874 0.0
O361 O 0.82417 0.63615 0.68707 0.0
C362 C 0.82247 0.66014 0.64 0.0
C363 C 0.82359 0.7006 0.66905 0.0
O364 O 0.78417 0.62118 0.67681 0.0
O365 O 0.78266 0.6465 0.69146 0.0
O366 O 0.80379 0.65301 0.6434 0.0
O367 O 0.83212 0.66028 0.65608 0.0
O368 O 0.80858 0.68216 0.67336 0.0
O369 O 0.84245 0.70474 0.66861 0.0
C370 C 0.89183 0.71264 0.66497 0.0
O371 O 0.87479 0.70789 0.65531 0.0
O372 O 0.8884 0.70201 0.68073 0.0
C373 C 0.84237 0.67897 0.71201 0.0
Tb374 Tb 0.32481 0.17309 0.67384 0.0
C375 C 0.36995 0.20674 0.6823 0.0
Tb376 Tb 0.35505 0.15774 0.67856 0.0
O377 O 0.33037 0.18454 0.70598 0.0
O378 O 0.33364 0.15904 0.69633 0.0
O379 O 0.35265 0.2027 0.67263 0.0
C380 C 0.38447 0.15048 0.69087 0.0
O381 O 0.37308 0.19153 0.68812 0.0
C382 C 0.34305 0.15895 0.64119 0.0
C383 C 0.30923 0.12359 0.67077 0.0
O384 O 0.38259 0.15701 0.67352 0.0
O385 O 0.36972 0.14792 0.70123 0.0
O386 O 0.34839 0.14562 0.6466 0.0
O387 O 0.34626 0.17189 0.65617 0.0
O388 O 0.32752 0.12718 0.6769 0.0
O389 O 0.30527 0.13896 0.66803 0.0
C390 C 0.29604 0.18065 0.65986 0.0
O391 O 0.30373 0.17159 0.64927 0.0
O392 O 0.30457 0.1855 0.6783 0.0
C393 C 0.33634 0.17172 0.71138 0.0
Tb394 Tb 0.82097 0.16767 0.67304 0.0
C395 C 0.83685 0.13553 0.66839 0.0
Tb396 Tb 0.86702 0.18544 0.67239 0.0
O397 O 0.81957 0.17822 0.6427 0.0
O398 O 0.84123 0.1708 0.65158 0.0
O399 O 0.82121 0.13815 0.67123 0.0
C400 C 0.90312 0.1956 0.66089 0.0
O401 O 0.85558 0.15148 0.66787 0.0
C402 C 0.8545 0.1866 0.70813 0.0
C403 C 0.85041 0.21656 0.67655 0.0
O404 O 0.89574 0.18615 0.67699 0.0
O405 O 0.89033 0.19967 0.65158 0.0
O406 O 0.8725 0.19987 0.70366 0.0
O407 O 0.84538 0.17274 0.69347 0.0
O408 O 0.86445 0.21346 0.6689 0.0
O409 O 0.83328 0.20093 0.68166 0.0
C410 C 0.78399 0.15206 0.68468 0.0
O411 O 0.78819 0.14894 0.66651 0.0
O412 O 0.80055 0.16371 0.69625 0.0
C413 C 0.83564 0.17817 0.63767 0.0
H414 H 0.26422 0.81174 0.05615 0.0
H415 H 0.29558 0.83745 0.04332 0.0
H416 H 0.32452 0.85648 0.10441 0.0
H417 H 0.29359 0.83015 0.11738 0.0
H418 H 0.32911 0.89031 0.08058 0.0
H419 H 0.33627 0.82862 0.07638 0.0
H420 H 0.32526 0.79162 0.06556 0.0
H421 H 0.32306 0.80373 0.00299 0.0
H422 H 0.33377 0.84075 0.01345 0.0
H423 H 0.42979 0.95693 0.0622 0.0
H424 H 0.39857 0.92957 0.0737 0.0
H425 H 0.37814 0.90075 0.01207 0.0
H426 H 0.41009 0.92749 0.00077 0.0
H427 H 0.36806 0.87146 0.03525 0.0
H428 H 0.36027 0.93186 0.03738 0.0
H429 H 0.36951 0.96872 0.04633 0.0
H430 H 0.37041 0.95934 0.10978 0.0
H431 H 0.36142 0.92248 0.10122 0.0
C432 C 0.27732 0.82107 0.06688 0.0
C433 C 0.27626 0.81881 0.08786 0.0
C434 C 0.2952 0.83587 0.0595 0.0
C435 C 0.31231 0.84885 0.07293 0.0
C436 C 0.3114 0.84667 0.09382 0.0
C437 C 0.29363 0.83168 0.1012 0.0
C438 C 0.3311 0.86501 0.06526 0.0
C439 C 0.3378 0.88625 0.07086 0.0
C440 C 0.34194 0.85962 0.052 0.0
C441 C 0.33561 0.8374 0.04571 0.0
C442 C 0.33326 0.82335 0.06032 0.0
C443 C 0.32711 0.80238 0.05425 0.0
C444 C 0.3234 0.79531 0.0336 0.0
C445 C 0.3259 0.80922 0.01898 0.0
C446 C 0.33203 0.8302 0.02497 0.0
C447 C 0.4186 0.94476 0.05111 0.0
C448 C 0.42225 0.94432 0.03059 0.0
C449 C 0.40067 0.92919 0.05767 0.0
C450 C 0.38568 0.91329 0.04371 0.0
C451 C 0.38939 0.91284 0.02316 0.0
C452 C 0.40759 0.92816 0.01668 0.0
C453 C 0.36632 0.89701 0.05063 0.0
C454 C 0.35943 0.87568 0.04489 0.0
C455 C 0.35503 0.90233 0.06344 0.0
C456 C 0.36033 0.92446 0.06865 0.0
C457 C 0.36256 0.93769 0.05325 0.0
C458 C 0.36774 0.95858 0.05825 0.0
C459 C 0.37059 0.96638 0.07861 0.0
C460 C 0.36822 0.95328 0.09401 0.0
C461 C 0.36305 0.93239 0.0891 0.0
H462 H 0.37461 0.98255 0.08245 0.0
H463 H 0.31865 0.77907 0.02893 0.0
H464 H 0.16512 0.42507 0.1064 0.0
H465 H 0.13781 0.42956 0.09213 0.0
H466 H 0.18089 0.48727 0.06894 0.0
H467 H 0.20844 0.48346 0.08416 0.0
H468 H 0.15298 0.49232 0.08532 0.0
H469 H 0.15254 0.44081 0.0377 0.0
H470 H 0.1518 0.40796 0.02645 0.0
H471 H 0.09429 0.37181 0.0495 0.0
H472 H 0.09482 0.40448 0.06115 0.0
H473 H 0.08399 0.49962 0.01502 0.0
H474 H 0.11103 0.49433 0.02911 0.0
H475 H 0.06865 0.44413 0.06183 0.0
H476 H 0.04155 0.44963 0.04807 0.0
H477 H 0.0958 0.43519 0.04055 0.0
H478 H 0.09653 0.48775 0.08728 0.0
H479 H 0.09729 0.52101 0.0967 0.0
H480 H 0.15492 0.55576 0.07354 0.0
H481 H 0.15429 0.52266 0.06356 0.0
C482 C 0.16885 0.43886 0.09847 0.0
C483 C 0.18902 0.45396 0.09652 0.0
C484 C 0.15317 0.44126 0.09008 0.0
C485 C 0.15726 0.45861 0.07922 0.0
C486 C 0.17736 0.47371 0.0772 0.0
C487 C 0.19309 0.47141 0.08574 0.0
C488 C 0.14055 0.46112 0.07025 0.0
C489 C 0.14064 0.47993 0.0753 0.0
C490 C 0.1242 0.44479 0.0575 0.0
C491 C 0.12382 0.42511 0.05047 0.0
C492 C 0.13981 0.42586 0.04051 0.0
C493 C 0.13941 0.40727 0.03404 0.0
C494 C 0.12303 0.38781 0.0373 0.0
C495 C 0.10699 0.3869 0.04701 0.0
C496 C 0.10731 0.40545 0.05353 0.0
C497 C 0.08043 0.4874 0.02514 0.0
C498 C 0.06074 0.47501 0.03047 0.0
C499 C 0.09588 0.48444 0.0332 0.0
C500 C 0.09181 0.46893 0.04657 0.0
C501 C 0.07204 0.45618 0.05154 0.0
C502 C 0.05663 0.45935 0.04371 0.0
C503 C 0.10834 0.46633 0.05561 0.0
C504 C 0.10818 0.44752 0.05057 0.0
C505 C 0.12469 0.48272 0.06821 0.0
C506 C 0.12526 0.50269 0.07449 0.0
C507 C 0.10928 0.50246 0.08404 0.0
C508 C 0.10969 0.52128 0.0895 0.0
C509 C 0.12613 0.54047 0.0857 0.0
C510 C 0.14219 0.54088 0.07646 0.0
C511 C 0.14181 0.52209 0.0709 0.0
H512 H 0.12643 0.55503 0.08994 0.0
H513 H 0.12275 0.37343 0.03228 0.0
H514 H 0.55453 0.74273 0.04266 0.0
H515 H 0.54845 0.70806 0.02987 0.0
H516 H 0.53421 0.68636 0.08925 0.0
H517 H 0.53984 0.72076 0.10206 0.0
H518 H 0.56143 0.67734 0.07351 0.0
H519 H 0.49756 0.67038 0.05102 0.0
H520 H 0.47539 0.68065 0.03297 0.0
H521 H 0.49776 0.67469 0.97644 0.0
H522 H 0.52029 0.66465 0.99421 0.0
H523 H 0.50832 0.565 0.05152 0.0
H524 H 0.51601 0.60115 0.06055 0.0
H525 H 0.54393 0.61995 0.0048 0.0
H526 H 0.53699 0.58391 0.99605 0.0
H527 H 0.51166 0.63142 0.01622 0.0
H528 H 0.57431 0.63732 0.03744 0.0
H529 H 0.5987 0.62963 0.05475 0.0
H530 H 0.58089 0.63985 0.11267 0.0
H531 H 0.55582 0.64685 0.09566 0.0
C532 C 0.54975 0.73048 0.05292 0.0
C533 C 0.54777 0.7346 0.07343 0.0
C534 C 0.54635 0.71068 0.04558 0.0
C535 C 0.54086 0.69461 0.0586 0.0
C536 C 0.53855 0.69857 0.07897 0.0
C537 C 0.54187 0.71829 0.08629 0.0
C538 C 0.53825 0.6739 0.05131 0.0
C539 C 0.55036 0.66718 0.06116 0.0
C540 C 0.52434 0.66102 0.03468 0.0
C541 C 0.51077 0.66699 0.02398 0.0
C542 C 0.49788 0.67143 0.03477 0.0
C543 C 0.48523 0.67718 0.02458 0.0
C544 C 0.48521 0.67838 0.00358 0.0
C545 C 0.49782 0.67378 0.99271 0.0
C546 C 0.51052 0.66805 0.00283 0.0
C547 C 0.51613 0.57687 0.04121 0.0
C548 C 0.52203 0.57172 0.02307 0.0
C549 C 0.52055 0.59747 0.04641 0.0
C550 C 0.53051 0.61315 0.03332 0.0
C551 C 0.53624 0.60803 0.01507 0.0
C552 C 0.53234 0.58752 0.01014 0.0
C553 C 0.53458 0.63477 0.03873 0.0
C554 C 0.52275 0.64163 0.02854 0.0
C555 C 0.54885 0.64788 0.05497 0.0
C556 C 0.56292 0.64227 0.06523 0.0
C557 C 0.57522 0.63743 0.05383 0.0
C558 C 0.58925 0.63329 0.0636 0.0
C559 C 0.59134 0.63423 0.08479 0.0
C560 C 0.57925 0.63911 0.09625 0.0
C561 C 0.56505 0.64306 0.08655 0.0
H562 H 0.60237 0.63125 0.09232 0.0
H563 H 0.4754 0.68283 0.99572 0.0
H564 H 0.84814 0.2665 0.92572 0.0
H565 H 0.87626 0.30011 0.94075 0.0
H566 H 0.83489 0.31465 0.96887 0.0
H567 H 0.80654 0.28118 0.95348 0.0
H568 H 0.88318 0.33916 0.93378 0.0
H569 H 0.85978 0.34522 0.01432 0.0
H570 H 0.84081 0.32182 0.04009 0.0
H571 H 0.85425 0.27528 0.01631 0.0
H572 H 0.87353 0.29852 0.99061 0.0
H573 H 0.93643 0.44416 0.9785 0.0
H574 H 0.90922 0.4084 0.96794 0.0
H575 H 0.9399 0.38361 0.00341 0.0
H576 H 0.96733 0.41947 0.01414 0.0
H577 H 0.89856 0.36323 0.00738 0.0
H578 H 0.94339 0.38496 0.95495 0.0
H579 H 0.96304 0.40736 0.92894 0.0
H580 H 0.90866 0.39618 0.89572 0.0
H581 H 0.8887 0.37457 0.92203 0.0
C582 C 0.84497 0.27685 0.93504 0.0
C583 C 0.82503 0.27123 0.93819 0.0
C584 C 0.86108 0.29602 0.9437 0.0
C585 C 0.85768 0.30988 0.95591 0.0
C586 C 0.83787 0.30408 0.95964 0.0
C587 C 0.82169 0.28492 0.95088 0.0
C588 C 0.8748 0.33081 0.96386 0.0
C589 C 0.88653 0.34445 0.94987 0.0
C590 C 0.87929 0.33756 0.98487 0.0
C591 C 0.86792 0.32354 0.00041 0.0
C592 C 0.85874 0.33003 0.01464 0.0
C593 C 0.84793 0.31678 0.02923 0.0
C594 C 0.84627 0.29705 0.02979 0.0
C595 C 0.85547 0.29054 0.01581 0.0
C596 C 0.86632 0.30372 0.00121 0.0
C597 C 0.93735 0.43115 0.98426 0.0
C598 C 0.95409 0.43468 0.99718 0.0
C599 C 0.9218 0.41071 0.97812 0.0
C600 C 0.92262 0.39338 0.98478 0.0
C601 C 0.939 0.39681 0.99812 0.0
C602 C 0.95469 0.41729 0.00415 0.0
C603 C 0.90669 0.3717 0.97724 0.0
C604 C 0.89517 0.35796 0.99129 0.0
C605 C 0.90246 0.36479 0.95624 0.0
C606 C 0.91453 0.37829 0.94064 0.0
C607 C 0.93562 0.38757 0.9423 0.0
C608 C 0.94682 0.40015 0.9275 0.0
C609 C 0.93711 0.40326 0.91074 0.0
C610 C 0.91617 0.39389 0.9088 0.0
C611 C 0.90491 0.38153 0.92369 0.0
H612 H 0.94579 0.41287 0.8992 0.0
H613 H 0.83788 0.28682 0.04109 0.0
H614 H 0.73732 0.55463 0.95187 0.0
H615 H 0.70593 0.54858 0.9647 0.0
H616 H 0.6784 0.53665 0.90334 0.0
H617 H 0.70943 0.54166 0.89025 0.0
H618 H 0.67389 0.56654 0.92967 0.0
H619 H 0.6645 0.49672 0.92801 0.0
H620 H 0.67422 0.47042 0.93563 0.0
H621 H 0.67715 0.48625 0.99961 0.0
H622 H 0.66773 0.51288 0.99237 0.0
H623 H 0.57446 0.53211 0.95444 0.0
H624 H 0.60433 0.53557 0.93981 0.0
H625 H 0.62804 0.53135 0.99892 0.0
H626 H 0.59757 0.52659 0.01328 0.0
H627 H 0.63438 0.50911 0.97261 0.0
H628 H 0.64556 0.57932 0.97587 0.0
H629 H 0.6375 0.60716 0.96987 0.0
H630 H 0.63329 0.59297 0.90538 0.0
H631 H 0.64109 0.56485 0.91101 0.0
C632 C 0.72452 0.55029 0.94104 0.0
C633 C 0.72599 0.54859 0.91997 0.0
C634 C 0.70662 0.547 0.94844 0.0
C635 C 0.6899 0.54217 0.93495 0.0
C636 C 0.69122 0.54047 0.91397 0.0
C637 C 0.70902 0.54346 0.90654 0.0
C638 C 0.67114 0.53925 0.94284 0.0
C639 C 0.66503 0.55382 0.93882 0.0
C640 C 0.66004 0.52303 0.95526 0.0
C641 C 0.6656 0.50694 0.95964 0.0
C642 C 0.66739 0.49473 0.9437 0.0
C643 C 0.67281 0.47973 0.94795 0.0
C644 C 0.67635 0.4767 0.96809 0.0
C645 C 0.67443 0.48863 0.98402 0.0
C646 C 0.66903 0.50366 0.97985 0.0
C647 C 0.58606 0.53189 0.96427 0.0
C648 C 0.58375 0.52903 0.98495 0.0
C649 C 0.6032 0.53404 0.95594 0.0
C650 C 0.61865 0.53406 0.9683 0.0
C651 C 0.61636 0.53138 0.98905 0.0
C652 C 0.59902 0.52878 0.99728 0.0
C653 C 0.63704 0.53653 0.95961 0.0
C654 C 0.64313 0.52186 0.96346 0.0
C655 C 0.64833 0.5529 0.9473 0.0
C656 C 0.64372 0.56985 0.94387 0.0
C657 C 0.64278 0.58204 0.96041 0.0
C658 C 0.63828 0.59789 0.95708 0.0
C659 C 0.63483 0.60179 0.93726 0.0
C660 C 0.63593 0.5899 0.92073 0.0
C661 C 0.64041 0.57403 0.92398 0.0
H662 H 0.63134 0.61407 0.93471 0.0
H663 H 0.68054 0.46508 0.97134 0.0
H664 H 0.42506 0.15262 0.94012 0.0
H665 H 0.43157 0.12664 0.95494 0.0
H666 H 0.49221 0.17542 0.97542 0.0
H667 H 0.48599 0.2014 0.96011 0.0
H668 H 0.49165 0.1416 0.95756 0.0
H669 H 0.45632 0.15437 0.00875 0.0
H670 H 0.42847 0.15729 0.02216 0.0
H671 H 0.38736 0.09223 0.0024 0.0
H672 H 0.41493 0.089 0.98862 0.0
H673 H 0.51683 0.07964 0.01549 0.0
H674 H 0.50963 0.10725 0.00697 0.0
H675 H 0.44744 0.06032 0.98995 0.0
H676 H 0.45442 0.03278 0.9996 0.0
H677 H 0.44909 0.09393 0.00685 0.0
H678 H 0.48472 0.08153 0.95498 0.0
H679 H 0.51305 0.07865 0.94302 0.0
H680 H 0.5538 0.14348 0.9639 0.0
H681 H 0.52579 0.14662 0.97646 0.0
C682 C 0.43982 0.15781 0.94769 0.0
C683 C 0.45502 0.1791 0.9489 0.0
C684 C 0.44345 0.14297 0.95634 0.0
C685 C 0.46232 0.14911 0.96647 0.0
C686 C 0.47751 0.17034 0.96774 0.0
C687 C 0.47389 0.18519 0.95911 0.0
C688 C 0.46644 0.13329 0.97516 0.0
C689 C 0.48251 0.13137 0.96855 0.0
C690 C 0.45425 0.11962 0.98916 0.0
C691 C 0.43766 0.1215 0.99748 0.0
C692 C 0.44131 0.14073 0.00712 0.0
C693 C 0.42558 0.14243 0.01481 0.0
C694 C 0.40615 0.12497 0.01309 0.0
C695 C 0.40242 0.10575 0.00371 0.0
C696 C 0.41809 0.10397 0.99597 0.0
C697 C 0.50157 0.07528 0.01021 0.0
C698 C 0.4862 0.0541 0.00807 0.0
C699 C 0.49747 0.09104 0.00522 0.0
C700 C 0.4781 0.08585 0.99722 0.0
C701 C 0.46253 0.06475 0.99596 0.0
C702 C 0.46652 0.04901 0.00148 0.0
C703 C 0.4743 0.1022 0.98924 0.0
C704 C 0.45825 0.10418 0.99589 0.0
C705 C 0.48649 0.11593 0.97522 0.0
C706 C 0.50318 0.11425 0.96687 0.0
C707 C 0.49974 0.09515 0.95709 0.0
C708 C 0.51576 0.09345 0.95025 0.0
C709 C 0.53526 0.11081 0.95282 0.0
C710 C 0.53873 0.12999 0.96202 0.0
C711 C 0.52278 0.13174 0.96902 0.0
H712 H 0.54766 0.10943 0.94759 0.0
H713 H 0.39399 0.12632 0.01906 0.0
H714 H 0.74502 0.17649 0.98337 0.0
H715 H 0.71091 0.15118 0.99109 0.0
H716 H 0.68859 0.1477 0.92893 0.0
H717 H 0.7228 0.1731 0.92117 0.0
H718 H 0.664 0.15029 0.95609 0.0
H719 H 0.69512 0.109 0.94397 0.0
H720 H 0.72142 0.09938 0.94824 0.0
H721 H 0.7119 0.09224 0.01134 0.0
H722 H 0.68572 0.10212 0.00752 0.0
H723 H 0.5683 0.05999 0.9631 0.0
H724 H 0.60159 0.08409 0.95259 0.0
H725 H 0.62866 0.08657 0.01229 0.0
H726 H 0.59544 0.06194 0.02262 0.0
H727 H 0.6506 0.08402 0.98457 0.0
H728 H 0.61935 0.12588 0.99643 0.0
H729 H 0.59312 0.13557 0.99157 0.0
H730 H 0.60306 0.14193 0.92852 0.0
H731 H 0.62892 0.13171 0.93281 0.0
C732 C 0.73279 0.17046 0.97142 0.0
C733 C 0.73644 0.17692 0.95174 0.0
C734 C 0.71335 0.15593 0.9758 0.0
C735 C 0.69723 0.14743 0.96054 0.0
C736 C 0.7008 0.15409 0.94093 0.0
C737 C 0.72028 0.16858 0.93652 0.0
C738 C 0.67672 0.13141 0.96506 0.0
C739 C 0.66097 0.13565 0.96206 0.0
C740 C 0.67288 0.11249 0.97314 0.0
C741 C 0.68859 0.1065 0.9755 0.0
C742 C 0.69875 0.10555 0.9588 0.0
C743 C 0.71362 0.10002 0.96113 0.0
C744 C 0.71837 0.09525 0.98006 0.0
C745 C 0.70822 0.09596 0.99669 0.0
C746 C 0.69336 0.10151 0.99445 0.0
C747 C 0.58139 0.06562 0.97393 0.0
C748 C 0.57935 0.05922 0.9937 0.0
C749 C 0.60039 0.07948 0.96795 0.0
C750 C 0.61764 0.08747 0.98175 0.0
C751 C 0.6156 0.08068 0.00139 0.0
C752 C 0.59662 0.06665 0.00729 0.0
C753 C 0.63782 0.10297 0.97588 0.0
C754 C 0.65355 0.09862 0.97859 0.0
C755 C 0.64161 0.12179 0.9675 0.0
C756 C 0.62594 0.12781 0.9649 0.0
C757 C 0.61578 0.12912 0.98147 0.0
C758 C 0.60096 0.13469 0.97881 0.0
C759 C 0.59635 0.13925 0.95971 0.0
C760 C 0.60653 0.13824 0.94325 0.0
C761 C 0.62127 0.13256 0.94578 0.0
H762 H 0.58499 0.14369 0.95767 0.0
H763 H 0.72988 0.09097 0.98183 0.0
H764 H 0.80614 0.53859 0.97193 0.0
H765 H 0.83259 0.52989 0.97897 0.0
H766 H 0.86212 0.56193 0.92764 0.0
H767 H 0.83548 0.57047 0.92049 0.0
H768 H 0.86186 0.52485 0.92971 0.0
H769 H 0.87982 0.58595 0.97481 0.0
H770 H 0.87436 0.60738 0.00082 0.0
H771 H 0.86284 0.56135 0.04319 0.0
H772 H 0.86796 0.53949 0.01733 0.0
H773 H 0.95608 0.53184 0.96036 0.0
H774 H 0.92918 0.53877 0.94926 0.0
H775 H 0.89794 0.51072 0.00132 0.0
H776 H 0.92489 0.50417 0.01259 0.0
H777 H 0.90017 0.54729 0.99778 0.0
H778 H 0.87839 0.48454 0.95197 0.0
H779 H 0.88169 0.46182 0.92548 0.0
H780 H 0.90089 0.5108 0.88525 0.0
H781 H 0.89719 0.53361 0.91132 0.0
C782 C 0.81831 0.54377 0.96221 0.0
C783 C 0.81911 0.55557 0.94596 0.0
C784 C 0.83339 0.53883 0.96622 0.0
C785 C 0.84951 0.54559 0.95404 0.0
C786 C 0.8499 0.55669 0.93731 0.0
C787 C 0.8348 0.56164 0.9333 0.0
C788 C 0.86612 0.5414 0.95905 0.0
C789 C 0.87043 0.53 0.9445 0.0
C790 C 0.87709 0.54784 0.97844 0.0
C791 C 0.87409 0.561 0.99406 0.0
C792 C 0.87597 0.58032 0.98962 0.0
C793 C 0.87297 0.59256 0.00435 0.0
C794 C 0.86821 0.58571 0.02363 0.0
C795 C 0.8665 0.56662 0.02824 0.0
C796 C 0.86947 0.55431 0.01356 0.0
C797 C 0.94344 0.52716 0.96937 0.0
C798 C 0.94262 0.5177 0.98743 0.0
C799 C 0.928 0.53094 0.96294 0.0
C800 C 0.91147 0.52516 0.9744 0.0
C801 C 0.91056 0.51537 0.99226 0.0
C802 C 0.92596 0.51165 0.99869 0.0
C803 C 0.89568 0.53036 0.96859 0.0
C804 C 0.89161 0.54212 0.98298 0.0
C805 C 0.88495 0.52423 0.94909 0.0
C806 C 0.88769 0.51081 0.93362 0.0
C807 C 0.88343 0.49049 0.93751 0.0
C808 C 0.88529 0.47758 0.92255 0.0
C809 C 0.89166 0.48493 0.90378 0.0
C810 C 0.89601 0.50515 0.89983 0.0
C811 C 0.8939 0.51802 0.91462 0.0
H812 H 0.89309 0.47492 0.89224 0.0
H813 H 0.86589 0.59521 0.03501 0.0
H814 H 0.48805 0.28674 0.96979 0.0
H815 H 0.49759 0.32387 0.97539 0.0
H816 H 0.43487 0.3061 0.96965 0.0
H817 H 0.42538 0.2691 0.96349 0.0
H818 H 0.4561 0.34017 0.95043 0.0
H819 H 0.46246 0.31828 0.01652 0.0
H820 H 0.47499 0.30331 0.04204 0.0
H821 H 0.5358 0.35125 0.03581 0.0
H822 H 0.52363 0.36635 0.01006 0.0
H823 H 0.46239 0.43135 0.00064 0.0
H824 H 0.45536 0.39535 0.99262 0.0
H825 H 0.51879 0.41821 0.99099 0.0
H826 H 0.52599 0.4543 0.99868 0.0
H827 H 0.4988 0.38257 0.01307 0.0
H828 H 0.49269 0.40544 0.94849 0.0
H829 H 0.48066 0.42099 0.9232 0.0
H830 H 0.41977 0.37177 0.92679 0.0
H831 H 0.43149 0.35603 0.95228 0.0
C832 C 0.47636 0.29085 0.96944 0.0
C833 C 0.45601 0.27511 0.96591 0.0
C834 C 0.48179 0.31202 0.9728 0.0
C835 C 0.46693 0.31779 0.97315 0.0
C836 C 0.44661 0.30207 0.96939 0.0
C837 C 0.44119 0.28094 0.96589 0.0
C838 C 0.47246 0.3401 0.97789 0.0
C839 C 0.46524 0.34933 0.96425 0.0
C840 C 0.48482 0.3523 0.99567 0.0
C841 C 0.49214 0.3433 0.01122 0.0
C842 C 0.47851 0.32553 0.02049 0.0
C843 C 0.48555 0.31704 0.03501 0.0
C844 C 0.50618 0.32629 0.0405 0.0
C845 C 0.51982 0.34409 0.03152 0.0
C846 C 0.51286 0.35262 0.01698 0.0
C847 C 0.47487 0.42873 0.99867 0.0
C848 C 0.49475 0.4457 0.00032 0.0
C849 C 0.47081 0.40817 0.99401 0.0
C850 C 0.48657 0.40417 0.99111 0.0
C851 C 0.50644 0.421 0.99315 0.0
C852 C 0.5105 0.4416 0.9975 0.0
C853 C 0.48224 0.38242 0.98575 0.0
C854 C 0.48969 0.37336 0.99925 0.0
C855 C 0.47012 0.37039 0.96786 0.0
C856 C 0.46297 0.37967 0.95242 0.0
C857 C 0.47674 0.39802 0.94398 0.0
C858 C 0.46997 0.40686 0.9296 0.0
C859 C 0.44945 0.39743 0.92344 0.0
C860 C 0.43566 0.37908 0.9316 0.0
C861 C 0.44237 0.37017 0.94599 0.0
H862 H 0.44422 0.4043 0.91231 0.0
H863 H 0.5116 0.31969 0.05175 0.0
H864 H 0.20029 0.71536 0.05119 0.0
H865 H 0.17274 0.67885 0.04406 0.0
H866 H 0.13119 0.69666 0.06632 0.0
H867 H 0.15883 0.73303 0.0739 0.0
H868 H 0.12302 0.65949 0.07866 0.0
H869 H 0.13481 0.69061 0.01518 0.0
H870 H 0.155 0.70946 0.98769 0.0
H871 H 0.16983 0.66109 0.97631 0.0
H872 H 0.14994 0.64208 0.00394 0.0
H873 H 0.03211 0.57403 0.02607 0.0
H874 H 0.06074 0.60945 0.03616 0.0
H875 H 0.1018 0.58666 0.02691 0.0
H876 H 0.07333 0.55118 0.01731 0.0
H877 H 0.11024 0.6256 0.00838 0.0
H878 H 0.09705 0.59383 0.0714 0.0
H879 H 0.07584 0.5748 0.09822 0.0
H880 H 0.06271 0.62439 0.10993 0.0
H881 H 0.08352 0.64354 0.08288 0.0
C882 C 0.18528 0.71137 0.05465 0.0
C883 C 0.1816 0.72696 0.06288 0.0
C884 C 0.16955 0.69058 0.05053 0.0
C885 C 0.14981 0.68507 0.05434 0.0
C886 C 0.14626 0.70054 0.06319 0.0
C887 C 0.16202 0.7213 0.06743 0.0
C888 C 0.13277 0.66339 0.04846 0.0
C889 C 0.12011 0.65218 0.06324 0.0
C890 C 0.12913 0.65367 0.02842 0.0
C891 C 0.14106 0.66504 0.01177 0.0
C892 C 0.1425 0.68408 0.00692 0.0
C893 C 0.15387 0.69478 0.9913 0.0
C894 C 0.16374 0.68651 0.9803 0.0
C895 C 0.16221 0.66749 0.98487 0.0
C896 C 0.15088 0.65674 0.0005 0.0
C897 C 0.04724 0.57662 0.02607 0.0
C898 C 0.05051 0.55988 0.02087 0.0
C899 C 0.06354 0.59678 0.03193 0.0
C900 C 0.08331 0.60056 0.03234 0.0
C901 C 0.08662 0.584 0.02671 0.0
C902 C 0.07036 0.56377 0.02127 0.0
C903 C 0.10059 0.62185 0.03853 0.0
C904 C 0.11324 0.63294 0.0238 0.0
C905 C 0.10412 0.63145 0.05856 0.0
C906 C 0.09165 0.62001 0.07491 0.0
C907 C 0.08945 0.60058 0.07952 0.0
C908 C 0.07754 0.58978 0.0948 0.0
C909 C 0.06788 0.59834 0.10572 0.0
C910 C 0.07017 0.61775 0.10142 0.0
C911 C 0.08202 0.62858 0.08612 0.0
H912 H 0.05867 0.58998 0.11755 0.0
H913 H 0.17253 0.69482 0.9682 0.0
H914 H 0.27453 0.46609 0.05096 0.0
H915 H 0.30856 0.47593 0.04247 0.0
H916 H 0.31525 0.4442 0.09271 0.0
H917 H 0.28131 0.43466 0.10137 0.0
H918 H 0.34932 0.48109 0.08998 0.0
H919 H 0.30361 0.42056 0.04454 0.0
H920 H 0.27468 0.39965 0.019 0.0
H921 H 0.30194 0.44675 0.97733 0.0
H922 H 0.33093 0.46809 0.00274 0.0
H923 H 0.43102 0.47061 0.05619 0.0
H924 H 0.39855 0.46375 0.06727 0.0
H925 H 0.39167 0.49657 0.01816 0.0
H926 H 0.42401 0.50338 0.00703 0.0
H927 H 0.35785 0.45929 0.02071 0.0
H928 H 0.40507 0.51872 0.06591 0.0
H929 H 0.43381 0.53916 0.09172 0.0
H930 H 0.40358 0.4943 0.13456 0.0
H931 H 0.37501 0.47307 0.10876 0.0
C932 C 0.28333 0.46127 0.06014 0.0
C933 C 0.27523 0.44921 0.07648 0.0
C934 C 0.3027 0.46684 0.0553 0.0
C935 C 0.31429 0.46044 0.06673 0.0
C936 C 0.30652 0.44917 0.08361 0.0
C937 C 0.28715 0.44364 0.08847 0.0
C938 C 0.33428 0.46501 0.06073 0.0
C939 C 0.35119 0.4761 0.07493 0.0
C940 C 0.33672 0.45884 0.04095 0.0
C941 C 0.31934 0.44601 0.02562 0.0
C942 C 0.30336 0.42653 0.02999 0.0
C943 C 0.28697 0.41459 0.01553 0.0
C944 C 0.28645 0.4219 0.99657 0.0
C945 C 0.30235 0.44113 0.99203 0.0
C946 C 0.31877 0.45314 0.00645 0.0
C947 C 0.42254 0.47633 0.04779 0.0
C948 C 0.42993 0.48746 0.03074 0.0
C949 C 0.40408 0.47251 0.05418 0.0
C950 C 0.39278 0.47979 0.04361 0.0
C951 C 0.40016 0.49083 0.02653 0.0
C952 C 0.41862 0.49473 0.02021 0.0
C953 C 0.37297 0.47542 0.04995 0.0
C954 C 0.35604 0.46431 0.03578 0.0
C955 C 0.37057 0.48152 0.0698 0.0
C956 C 0.38797 0.4941 0.08524 0.0
C957 C 0.40467 0.51298 0.08071 0.0
C958 C 0.42096 0.52472 0.09535 0.0
C959 C 0.4206 0.51795 0.11472 0.0
C960 C 0.40394 0.49942 0.11949 0.0
C961 C 0.38772 0.4875 0.10484 0.0
H962 H 0.43319 0.52708 0.12606 0.0
H963 H 0.27374 0.41263 0.98539 0.0
H964 H 0.52129 0.80695 0.03984 0.0
H965 H 0.512 0.83371 0.03377 0.0
H966 H 0.57345 0.8826 0.05094 0.0
H967 H 0.58258 0.85587 0.05755 0.0
H968 H 0.54858 0.89277 0.06726 0.0
H969 H 0.55356 0.86765 0.00048 0.0
H970 H 0.54605 0.84097 0.97208 0.0
H971 H 0.48355 0.82279 0.96883 0.0
H972 H 0.49065 0.84919 0.99741 0.0
H973 H 0.54578 0.9776 0.0243 0.0
H974 H 0.55312 0.94961 0.03066 0.0
H975 H 0.48988 0.9036 0.02066 0.0
H976 H 0.48233 0.93146 0.01431 0.0
H977 H 0.5145 0.89151 0.00092 0.0
H978 H 0.50975 0.91693 0.06753 0.0
H979 H 0.51745 0.94379 0.09581 0.0
H980 H 0.57993 0.96198 0.09866 0.0
H981 H 0.57262 0.93522 0.07036 0.0
C982 C 0.53273 0.82343 0.04237 0.0
C983 C 0.55261 0.82939 0.04916 0.0
C984 C 0.52748 0.83869 0.0388 0.0
C985 C 0.54209 0.86019 0.04164 0.0
C986 C 0.56192 0.86613 0.04863 0.0
C987 C 0.56715 0.85087 0.05234 0.0
C988 C 0.53676 0.87651 0.03733 0.0
C989 C 0.54136 0.89261 0.05266 0.0
C990 C 0.5269 0.87608 0.01844 0.0
C991 C 0.52261 0.86025 0.00122 0.0
C992 C 0.53819 0.85786 0.99381 0.0
C993 C 0.53401 0.8428 0.97766 0.0
C994 C 0.51433 0.83016 0.96869 0.0
C995 C 0.49878 0.83258 0.97582 0.0
C996 C 0.50288 0.84759 0.99198 0.0
C997 C 0.53342 0.96153 0.0233 0.0
C998 C 0.51346 0.95679 0.0188 0.0
C999 C 0.53765 0.94557 0.02705 0.0
C1000 C 0.52202 0.92458 0.02628 0.0
C1001 C 0.50214 0.91971 0.02134 0.0
C1002 C 0.49787 0.93568 0.01776 0.0
C1003 C 0.52648 0.90774 0.03077 0.0
C1004 C 0.5217 0.89158 0.0155 0.0
C1005 C 0.53622 0.90814 0.04966 0.0
C1006 C 0.54066 0.92421 0.06671 0.0
C1007 C 0.52515 0.92676 0.07409 0.0
C1008 C 0.52944 0.94195 0.09013 0.0
C1009 C 0.54917 0.95467 0.09894 0.0
C1010 C 0.56465 0.95214 0.0918 0.0
C1011 C 0.56044 0.93693 0.07579 0.0
H1012 H 0.55246 0.96643 0.11135 0.0
H1013 H 0.51112 0.81851 0.95619 0.0
H1014 H 0.92796 0.1873 0.41864 0.0
H1015 H 0.96073 0.21321 0.40844 0.0
H1016 H 0.97443 0.16401 0.39508 0.0
H1017 H 0.9417 0.138 0.40553 0.0
H1018 H 0.00634 0.19953 0.41693 0.0
H1019 H 0.96096 0.18324 0.35706 0.0
H1020 H 0.93069 0.1789 0.33761 0.0
H1021 H 0.95025 0.24407 0.35291 0.0
H1022 H 0.98051 0.24873 0.37271 0.0
H1023 H 0.08647 0.25303 0.35417 0.0
H1024 H 0.0538 0.22811 0.3656 0.0
H1025 H 0.04566 0.27968 0.38617 0.0
H1026 H 0.07863 0.30474 0.3753 0.0
H1027 H 0.01118 0.24382 0.36114 0.0
H1028 H 0.05596 0.26073 0.42076 0.0
H1029 H 0.08638 0.26605 0.44074 0.0
H1030 H 0.06808 0.20103 0.4268 0.0
H1031 H 0.03769 0.19538 0.40638 0.0
C1032 C 0.938 0.18201 0.41365 0.0
C1033 C 0.93224 0.16059 0.41287 0.0
C1034 C 0.95666 0.19681 0.4077 0.0
C1035 C 0.96996 0.19052 0.40087 0.0
C1036 C 0.96437 0.1692 0.40027 0.0
C1037 C 0.94562 0.15434 0.40609 0.0
C1038 C 0.98967 0.20622 0.39427 0.0
C1039 C 0.00738 0.209 0.40455 0.0
C1040 C 0.99104 0.21902 0.3785 0.0
C1041 C 0.9729 0.21628 0.36654 0.0
C1042 C 0.95872 0.1966 0.35642 0.0
C1043 C 0.94158 0.19409 0.34531 0.0
C1044 C 0.93852 0.21118 0.34407 0.0
C1045 C 0.95263 0.23084 0.35391 0.0
C1046 C 0.96978 0.23343 0.36506 0.0
C1047 C 0.07769 0.25902 0.36112 0.0
C1048 C 0.085 0.28076 0.36386 0.0
C1049 C 0.05909 0.24481 0.36766 0.0
C1050 C 0.04737 0.2521 0.37671 0.0
C1051 C 0.0545 0.27379 0.37917 0.0
C1052 C 0.07331 0.28804 0.37302 0.0
C1053 C 0.02774 0.23697 0.38372 0.0
C1054 C 0.01008 0.23432 0.37351 0.0
C1055 C 0.02641 0.22442 0.39964 0.0
C1056 C 0.04466 0.22769 0.41184 0.0
C1057 C 0.05853 0.24761 0.42175 0.0
C1058 C 0.07573 0.25068 0.43319 0.0
C1059 C 0.07913 0.23389 0.43498 0.0
C1060 C 0.06538 0.21401 0.42535 0.0
C1061 C 0.04817 0.21086 0.41384 0.0
H1062 H 0.09236 0.23627 0.44391 0.0
H1063 H 0.92524 0.20921 0.33545 0.0
H1064 H 0.86201 0.78374 0.39657 0.0
H1065 H 0.83448 0.78722 0.3808 0.0
H1066 H 0.82076 0.8011 0.43994 0.0
H1067 H 0.84876 0.79859 0.45585 0.0
H1068 H 0.78694 0.7689 0.41422 0.0
H1069 H 0.84273 0.83956 0.41243 0.0
H1070 H 0.87639 0.866 0.40382 0.0
H1071 H 0.85819 0.84519 0.34042 0.0
H1072 H 0.82448 0.8184 0.34869 0.0
H1073 H 0.71881 0.80397 0.39099 0.0
H1074 H 0.7464 0.7991 0.40378 0.0
H1075 H 0.76441 0.80004 0.343 0.0
H1076 H 0.73719 0.8058 0.3303 0.0
H1077 H 0.79608 0.82302 0.36772 0.0
H1078 H 0.74051 0.75357 0.36794 0.0
H1079 H 0.70684 0.72591 0.37524 0.0
H1080 H 0.72414 0.74207 0.43932 0.0
H1081 H 0.75784 0.77003 0.43242 0.0
C1082 C 0.85343 0.78795 0.40625 0.0
C1083 C 0.85764 0.79081 0.42754 0.0
C1084 C 0.8376 0.78977 0.39718 0.0
C1085 C 0.82558 0.79434 0.40922 0.0
C1086 C 0.82979 0.7974 0.43041 0.0
C1087 C 0.84576 0.79585 0.43947 0.0
C1088 C 0.80834 0.79556 0.39979 0.0
C1089 C 0.78889 0.78085 0.40421 0.0
C1090 C 0.81093 0.81069 0.38618 0.0
C1091 C 0.83116 0.82682 0.3812 0.0
C1092 C 0.84596 0.84049 0.39667 0.0
C1093 C 0.86503 0.85556 0.39185 0.0
C1094 C 0.86944 0.85723 0.37159 0.0
C1095 C 0.85476 0.84386 0.35611 0.0
C1096 C 0.83567 0.82874 0.36085 0.0
C1097 C 0.72852 0.80288 0.38033 0.0
C1098 C 0.72583 0.80511 0.35965 0.0
C1099 C 0.74426 0.80002 0.38763 0.0
C1100 C 0.75736 0.79885 0.37433 0.0
C1101 C 0.7545 0.80084 0.35357 0.0
C1102 C 0.73891 0.80402 0.3463 0.0
C1103 C 0.77449 0.79645 0.38228 0.0
C1104 C 0.79398 0.81093 0.37758 0.0
C1105 C 0.7719 0.78088 0.39541 0.0
C1106 C 0.75166 0.76402 0.39965 0.0
C1107 C 0.73709 0.75133 0.38359 0.0
C1108 C 0.71801 0.73558 0.38766 0.0
C1109 C 0.71334 0.73226 0.40773 0.0
C1110 C 0.72777 0.74467 0.42378 0.0
C1111 C 0.74688 0.76045 0.4198 0.0
H1112 H 0.69855 0.72006 0.41085 0.0
H1113 H 0.88422 0.86892 0.36789 0.0
H1114 H 0.2461 0.07644 0.40841 0.0
H1115 H 0.23945 0.04252 0.39222 0.0
H1116 H 0.17603 0.02131 0.38449 0.0
H1117 H 0.18269 0.05546 0.40023 0.0
H1118 H 0.18956 0.99392 0.40508 0.0
H1119 H 0.19561 0.03038 0.34473 0.0
H1120 H 0.21281 0.05988 0.32364 0.0
H1121 H 0.26326 0.05002 0.32383 0.0
H1122 H 0.24648 0.02064 0.3452 0.0
H1123 H 0.15536 0.89689 0.35068 0.0
H1124 H 0.16136 0.93229 0.35896 0.0
H1125 H 0.2246 0.95795 0.35261 0.0
H1126 H 0.21869 0.92243 0.34393 0.0
H1127 H 0.21133 0.98363 0.33823 0.0
H1128 H 0.21127 0.95334 0.39953 0.0
H1129 H 0.19867 0.92453 0.42175 0.0
H1130 H 0.14267 0.92405 0.42208 0.0
H1131 H 0.15509 0.95308 0.39979 0.0
C1132 C 0.23077 0.06457 0.40311 0.0
C1133 C 0.21489 0.06848 0.40554 0.0
C1134 C 0.22701 0.04529 0.39383 0.0
C1135 C 0.20727 0.0295 0.38714 0.0
C1136 C 0.19137 0.03337 0.38951 0.0
C1137 C 0.19518 0.05283 0.39842 0.0
C1138 C 0.20321 0.00863 0.37851 0.0
C1139 C 0.19394 0.99158 0.39028 0.0
C1140 C 0.20982 0.00586 0.35966 0.0
C1141 C 0.21987 0.02345 0.34674 0.0
C1142 C 0.21045 0.03463 0.34045 0.0
C1143 C 0.22011 0.0513 0.3284 0.0
C1144 C 0.23914 0.05686 0.32245 0.0
C1145 C 0.24853 0.04571 0.32848 0.0
C1146 C 0.23894 0.02904 0.34054 0.0
C1147 C 0.17054 0.91002 0.35079 0.0
C1148 C 0.18658 0.90674 0.34684 0.0
C1149 C 0.17394 0.93029 0.35555 0.0
C1150 C 0.19348 0.94776 0.35671 0.0
C1151 C 0.20941 0.9447 0.35181 0.0
C1152 C 0.206 0.92436 0.34692 0.0
C1153 C 0.19732 0.96884 0.36462 0.0
C1154 C 0.2067 0.98593 0.35288 0.0
C1155 C 0.19138 0.9719 0.38378 0.0
C1156 C 0.18403 0.95521 0.39791 0.0
C1157 C 0.19627 0.94709 0.40435 0.0
C1158 C 0.18916 0.93072 0.41694 0.0
C1159 C 0.16983 0.92235 0.42322 0.0
C1160 C 0.15764 0.93055 0.41716 0.0
C1161 C 0.16474 0.94703 0.40461 0.0
H1162 H 0.16435 0.90954 0.43279 0.0
H1163 H 0.24658 0.06977 0.31312 0.0
H1164 H 0.47611 0.61012 0.29005 0.0
H1165 H 0.50259 0.64478 0.30531 0.0
H1166 H 0.54743 0.62763 0.29418 0.0
H1167 H 0.52102 0.59286 0.27917 0.0
H1168 H 0.55528 0.65017 0.33176 0.0
H1169 H 0.5392 0.65575 0.26189 0.0
H1170 H 0.51671 0.65177 0.2319 0.0
H1171 H 0.49945 0.69192 0.26346 0.0
H1172 H 0.52162 0.69588 0.29377 0.0
H1173 H 0.64204 0.7529 0.3348 0.0
H1174 H 0.6149 0.71646 0.32679 0.0
H1175 H 0.57099 0.73613 0.33191 0.0
H1176 H 0.59795 0.77254 0.33944 0.0
H1177 H 0.56218 0.71186 0.29836 0.0
H1178 H 0.57938 0.70764 0.36798 0.0
H1179 H 0.60191 0.71165 0.39794 0.0
H1180 H 0.61715 0.66933 0.36732 0.0
H1181 H 0.59491 0.66528 0.33706 0.0
C1182 C 0.49157 0.61361 0.29118 0.0
C1183 C 0.49649 0.59883 0.28325 0.0
C1184 C 0.50669 0.63345 0.29978 0.0
C1185 C 0.527 0.63887 0.30066 0.0
C1186 C 0.53187 0.62381 0.2936 0.0
C1187 C 0.51678 0.60402 0.2849 0.0
C1188 C 0.54324 0.66058 0.30783 0.0
C1189 C 0.55693 0.66368 0.32439 0.0
C1190 C 0.54517 0.67821 0.2984 0.0
C1191 C 0.53189 0.67592 0.28017 0.0
C1192 C 0.53048 0.66359 0.2625 0.0
C1193 C 0.51781 0.66136 0.24543 0.0
C1194 C 0.50661 0.67154 0.2458 0.0
C1195 C 0.5081 0.68401 0.26321 0.0
C1196 C 0.52072 0.68626 0.28034 0.0
C1197 C 0.62661 0.74943 0.3345 0.0
C1198 C 0.6222 0.76568 0.33767 0.0
C1199 C 0.61108 0.72855 0.32997 0.0
C1200 C 0.59084 0.72348 0.32883 0.0
C1201 C 0.58645 0.73962 0.33261 0.0
C1202 C 0.60193 0.76047 0.33696 0.0
C1203 C 0.57425 0.70163 0.32249 0.0
C1204 C 0.56051 0.69845 0.30594 0.0
C1205 C 0.5723 0.68399 0.33197 0.0
C1206 C 0.58562 0.68632 0.35018 0.0
C1207 C 0.58765 0.69931 0.36757 0.0
C1208 C 0.60035 0.70157 0.38462 0.0
C1209 C 0.61099 0.69079 0.38452 0.0
C1210 C 0.60892 0.67768 0.36738 0.0
C1211 C 0.59625 0.67539 0.35028 0.0
H1212 H 0.62082 0.69256 0.39773 0.0
H1213 H 0.49682 0.6698 0.23257 0.0
H1214 H 0.41028 0.89867 0.29021 0.0
H1215 H 0.37822 0.89125 0.30246 0.0
H1216 H 0.35202 0.88052 0.24064 0.0
H1217 H 0.38387 0.8874 0.22821 0.0
H1218 H 0.34392 0.9066 0.26483 0.0
H1219 H 0.34005 0.83964 0.26744 0.0
H1220 H 0.35202 0.8156 0.27709 0.0
H1221 H 0.35287 0.83309 0.34025 0.0
H1222 H 0.34118 0.85748 0.33097 0.0
H1223 H 0.24193 0.86315 0.28622 0.0
H1224 H 0.27319 0.86873 0.27309 0.0
H1225 H 0.29879 0.8741 0.33431 0.0
H1226 H 0.26737 0.86802 0.34742 0.0
H1227 H 0.30716 0.85045 0.30997 0.0
H1228 H 0.3107 0.91704 0.30787 0.0
H1229 H 0.29923 0.94158 0.29862 0.0
H1230 H 0.30009 0.92615 0.23533 0.0
H1231 H 0.31138 0.90133 0.24422 0.0
C1232 C 0.39764 0.89441 0.27919 0.0
C1233 C 0.3997 0.89362 0.2582 0.0
C1234 C 0.37934 0.89026 0.28623 0.0
C1235 C 0.36272 0.88523 0.27245 0.0
C1236 C 0.36468 0.88444 0.25152 0.0
C1237 C 0.38294 0.88847 0.24446 0.0
C1238 C 0.34337 0.88117 0.27988 0.0
C1239 C 0.3357 0.89414 0.27446 0.0
C1240 C 0.33299 0.86526 0.29288 0.0
C1241 C 0.33993 0.85054 0.2985 0.0
C1242 C 0.34295 0.83849 0.28338 0.0
C1243 C 0.34965 0.82478 0.28879 0.0
C1244 C 0.35325 0.82286 0.30927 0.0
C1245 C 0.3501 0.83461 0.32439 0.0
C1246 C 0.34342 0.84837 0.31907 0.0
C1247 C 0.25427 0.8656 0.29685 0.0
C1248 C 0.25234 0.8653 0.31784 0.0
C1249 C 0.27214 0.86883 0.28935 0.0
C1250 C 0.28846 0.8721 0.30274 0.0
C1251 C 0.28643 0.87163 0.3237 0.0
C1252 C 0.26852 0.86825 0.33119 0.0
C1253 C 0.30763 0.87592 0.29494 0.0
C1254 C 0.31531 0.86291 0.30031 0.0
C1255 C 0.3181 0.89191 0.282 0.0
C1256 C 0.31152 0.90701 0.27668 0.0
C1257 C 0.30824 0.91871 0.29197 0.0
C1258 C 0.30183 0.93271 0.2868 0.0
C1259 C 0.29882 0.93533 0.2664 0.0
C1260 C 0.30233 0.92403 0.25112 0.0
C1261 C 0.30874 0.90999 0.25622 0.0
H1262 H 0.29385 0.94618 0.26243 0.0
H1263 H 0.35844 0.81223 0.31342 0.0
H1264 H 0.09574 0.48926 0.26228 0.0
H1265 H 0.09995 0.46099 0.27479 0.0
H1266 H 0.15706 0.50668 0.30663 0.0
H1267 H 0.15349 0.53516 0.29347 0.0
H1268 H 0.13143 0.45263 0.26857 0.0
H1269 H 0.15928 0.48544 0.35247 0.0
H1270 H 0.15555 0.50809 0.37865 0.0
H1271 H 0.09782 0.49144 0.34918 0.0
H1272 H 0.10107 0.46848 0.32301 0.0
H1273 H 0.17777 0.40149 0.3151 0.0
H1274 H 0.17012 0.42801 0.30407 0.0
H1275 H 0.11667 0.40106 0.33588 0.0
H1276 H 0.12428 0.37446 0.34727 0.0
H1277 H 0.13743 0.44387 0.342 0.0
H1278 H 0.11357 0.3916 0.2851 0.0
H1279 H 0.1153 0.36821 0.2582 0.0
H1280 H 0.16169 0.42169 0.23283 0.0
H1281 H 0.16063 0.44541 0.25989 0.0
C1282 C 0.10936 0.49339 0.27171 0.0
C1283 C 0.12435 0.5146 0.27669 0.0
C1284 C 0.11165 0.47717 0.27896 0.0
C1285 C 0.12877 0.48176 0.29165 0.0
C1286 C 0.14363 0.50283 0.29697 0.0
C1287 C 0.14149 0.51909 0.28952 0.0
C1288 C 0.13129 0.46446 0.29897 0.0
C1289 C 0.13278 0.4507 0.28461 0.0
C1290 C 0.13274 0.46182 0.31988 0.0
C1291 C 0.13053 0.47543 0.33566 0.0
C1292 C 0.14576 0.48657 0.35162 0.0
C1293 C 0.14373 0.49946 0.36645 0.0
C1294 C 0.12649 0.50126 0.36554 0.0
C1295 C 0.11121 0.49011 0.34982 0.0
C1296 C 0.11315 0.47718 0.33497 0.0
C1297 C 0.16449 0.40128 0.31997 0.0
C1298 C 0.15169 0.38588 0.33218 0.0
C1299 C 0.16007 0.41637 0.31348 0.0
C1300 C 0.14276 0.41639 0.31896 0.0
C1301 C 0.13011 0.4013 0.33145 0.0
C1302 C 0.13446 0.38609 0.33791 0.0
C1303 C 0.13794 0.4322 0.3116 0.0
C1304 C 0.1361 0.44575 0.32594 0.0
C1305 C 0.13606 0.43457 0.29062 0.0
C1306 C 0.13708 0.42029 0.27461 0.0
C1307 C 0.12429 0.39837 0.27392 0.0
C1308 C 0.12512 0.38506 0.25861 0.0
C1309 C 0.13854 0.39348 0.24378 0.0
C1310 C 0.15126 0.41521 0.24431 0.0
C1311 C 0.15057 0.4286 0.25964 0.0
H1312 H 0.13916 0.38315 0.23194 0.0
H1313 H 0.12495 0.51126 0.37704 0.0
H1314 H 0.39766 0.48714 0.26404 0.0
H1315 H 0.36227 0.46375 0.26966 0.0
H1316 H 0.37137 0.49959 0.32696 0.0
H1317 H 0.40677 0.5228 0.32142 0.0
H1318 H 0.3526 0.45821 0.33112 0.0
H1319 H 0.34478 0.50278 0.2855 0.0
H1320 H 0.34871 0.52037 0.25401 0.0
H1321 H 0.31666 0.46033 0.21888 0.0
H1322 H 0.31278 0.44237 0.25015 0.0
H1323 H 0.25213 0.41528 0.35392 0.0
H1324 H 0.28596 0.43947 0.34486 0.0
H1325 H 0.27406 0.4006 0.28893 0.0
H1326 H 0.23997 0.37638 0.29788 0.0
H1327 H 0.294 0.44251 0.28314 0.0
H1328 H 0.30179 0.3979 0.32821 0.0
H1329 H 0.29768 0.37989 0.35945 0.0
H1330 H 0.32994 0.43956 0.3952 0.0
H1331 H 0.33399 0.45793 0.36418 0.0
C1332 C 0.39199 0.49001 0.27776 0.0
C1333 C 0.40491 0.50649 0.29246 0.0
C1334 C 0.3718 0.47675 0.28092 0.0
C1335 C 0.36414 0.47993 0.29873 0.0
C1336 C 0.37697 0.49677 0.31316 0.0
C1337 C 0.39714 0.51002 0.31 0.0
C1338 C 0.34305 0.46517 0.30281 0.0
C1339 C 0.33979 0.45503 0.32075 0.0
C1340 C 0.32634 0.46047 0.28898 0.0
C1341 C 0.32868 0.47124 0.27016 0.0
C1342 C 0.33873 0.49333 0.27105 0.0
C1343 C 0.34092 0.50336 0.25324 0.0
C1344 C 0.33299 0.49147 0.23445 0.0
C1345 C 0.32282 0.46952 0.23344 0.0
C1346 C 0.32061 0.4594 0.25121 0.0
C1347 C 0.25672 0.4119 0.33969 0.0
C1348 C 0.24357 0.39386 0.3267 0.0
C1349 C 0.27606 0.4257 0.33454 0.0
C1350 C 0.28265 0.42168 0.31636 0.0
C1351 C 0.26932 0.40395 0.30307 0.0
C1352 C 0.24993 0.39008 0.30824 0.0
C1353 C 0.30362 0.43581 0.31154 0.0
C1354 C 0.30685 0.44574 0.29347 0.0
C1355 C 0.32035 0.44028 0.3252 0.0
C1356 C 0.31803 0.42928 0.34388 0.0
C1357 C 0.30787 0.40718 0.34275 0.0
C1358 C 0.30558 0.3969 0.36041 0.0
C1359 C 0.3135 0.40857 0.3793 0.0
C1360 C 0.32379 0.43054 0.38056 0.0
C1361 C 0.3261 0.44089 0.36294 0.0
H1362 H 0.31171 0.40059 0.39296 0.0
H1363 H 0.33469 0.49927 0.22068 0.0
H1364 H 0.50213 0.90204 0.25353 0.0
H1365 H 0.52799 0.89246 0.26094 0.0
H1366 H 0.50985 0.88037 0.32163 0.0
H1367 H 0.48413 0.89001 0.31426 0.0
H1368 H 0.55011 0.90488 0.32187 0.0
H1369 H 0.498 0.84053 0.28562 0.0
H1370 H 0.47341 0.81817 0.25688 0.0
H1371 H 0.52109 0.83597 0.21796 0.0
H1372 H 0.54599 0.85872 0.24639 0.0
H1373 H 0.60051 0.85242 0.35483 0.0
H1374 H 0.57524 0.86174 0.34433 0.0
H1375 H 0.59619 0.87115 0.28451 0.0
H1376 H 0.62136 0.86147 0.29491 0.0
H1377 H 0.55576 0.84926 0.28223 0.0
H1378 H 0.60792 0.91305 0.31814 0.0
H1379 H 0.63281 0.93536 0.34671 0.0
H1380 H 0.58542 0.91889 0.38582 0.0
H1381 H 0.56025 0.89623 0.35754 0.0
C1382 C 0.5036 0.89711 0.26835 0.0
C1383 C 0.49117 0.89668 0.28331 0.0
C1384 C 0.5183 0.89161 0.27256 0.0
C1385 C 0.52077 0.88559 0.29181 0.0
C1386 C 0.5082 0.88497 0.30668 0.0
C1387 C 0.49349 0.89041 0.30246 0.0
C1388 C 0.53697 0.88075 0.29681 0.0
C1389 C 0.55119 0.89254 0.31335 0.0
C1390 C 0.53878 0.86513 0.28526 0.0
C1391 C 0.52383 0.85157 0.26809 0.0
C1392 C 0.50324 0.83987 0.27088 0.0
C1393 C 0.48925 0.82708 0.25466 0.0
C1394 C 0.49569 0.82572 0.23559 0.0
C1395 C 0.51614 0.8371 0.23273 0.0
C1396 C 0.53019 0.84994 0.2489 0.0
C1397 C 0.59978 0.85657 0.33947 0.0
C1398 C 0.61293 0.85637 0.32571 0.0
C1399 C 0.58539 0.86196 0.3335 0.0
C1400 C 0.58399 0.8674 0.3137 0.0
C1401 C 0.59705 0.86706 0.29987 0.0
C1402 C 0.61146 0.86164 0.30585 0.0
C1403 C 0.5687 0.87319 0.30747 0.0
C1404 C 0.55471 0.86166 0.29068 0.0
C1405 C 0.56713 0.88911 0.31871 0.0
C1406 C 0.58221 0.9028 0.33575 0.0
C1407 C 0.60281 0.91406 0.33287 0.0
C1408 C 0.61697 0.92679 0.34901 0.0
C1409 C 0.6107 0.9285 0.36808 0.0
C1410 C 0.59025 0.91753 0.37104 0.0
C1411 C 0.57603 0.90475 0.35496 0.0
H1412 H 0.62168 0.93837 0.38056 0.0
H1413 H 0.48483 0.81579 0.22305 0.0
H1414 H 0.09657 0.60435 0.30056 0.0
H1415 H 0.10544 0.64111 0.30701 0.0
H1416 H 0.16835 0.66061 0.30645 0.0
H1417 H 0.15949 0.6237 0.30063 0.0
H1418 H 0.16362 0.68142 0.33676 0.0
H1419 H 0.14162 0.66712 0.26609 0.0
H1420 H 0.11887 0.64771 0.23523 0.0
H1421 H 0.07332 0.6583 0.25828 0.0
H1422 H 0.09568 0.67751 0.28943 0.0
H1423 H 0.19491 0.79007 0.32979 0.0
H1424 H 0.18776 0.75399 0.32229 0.0
H1425 H 0.12534 0.73049 0.33131 0.0
H1426 H 0.13231 0.7665 0.33893 0.0
H1427 H 0.13111 0.71253 0.29553 0.0
H1428 H 0.15419 0.72631 0.36699 0.0
H1429 H 0.17812 0.7463 0.39697 0.0
H1430 H 0.22346 0.73758 0.37057 0.0
H1431 H 0.19987 0.71778 0.34029 0.0
C1432 C 0.11227 0.61652 0.30158 0.0
C1433 C 0.12731 0.61123 0.29954 0.0
C1434 C 0.11733 0.63753 0.30521 0.0
C1435 C 0.13756 0.65372 0.3068 0.0
C1436 C 0.15264 0.64843 0.30511 0.0
C1437 C 0.14757 0.62738 0.30163 0.0
C1438 C 0.14292 0.67608 0.31082 0.0
C1439 C 0.15674 0.68829 0.32752 0.0
C1440 C 0.13375 0.68503 0.29898 0.0
C1441 C 0.12028 0.6736 0.2802 0.0
C1442 C 0.1267 0.66518 0.26465 0.0
C1443 C 0.11388 0.65423 0.2471 0.0
C1444 C 0.09465 0.65173 0.24482 0.0
C1445 C 0.08821 0.66023 0.26008 0.0
C1446 C 0.10096 0.67117 0.27768 0.0
C1447 C 0.17967 0.77724 0.33031 0.0
C1448 C 0.1642 0.7812 0.33507 0.0
C1449 C 0.17563 0.75662 0.32603 0.0
C1450 C 0.15603 0.73957 0.32631 0.0
C1451 C 0.14056 0.74344 0.33101 0.0
C1452 C 0.14461 0.76404 0.33549 0.0
C1453 C 0.15161 0.71768 0.32152 0.0
C1454 C 0.13801 0.7056 0.30467 0.0
C1455 C 0.16117 0.70894 0.33305 0.0
C1456 C 0.17533 0.72075 0.35129 0.0
C1457 C 0.16932 0.72881 0.3675 0.0
C1458 C 0.18281 0.74007 0.38456 0.0
C1459 C 0.20231 0.74326 0.38565 0.0
C1460 C 0.20835 0.73513 0.3697 0.0
C1461 C 0.19492 0.72387 0.35259 0.0
H1462 H 0.21274 0.75198 0.39887 0.0
H1463 H 0.08474 0.64324 0.23122 0.0
H1464 H 0.81562 0.0734 0.37804 0.0
H1465 H 0.78906 0.03655 0.37108 0.0
H1466 H 0.83315 0.01715 0.37985 0.0
H1467 H 0.85983 0.0541 0.3862 0.0
H1468 H 0.8085 0.99578 0.34773 0.0
H1469 H 0.79998 0.01193 0.41617 0.0
H1470 H 0.79536 0.0319 0.4444 0.0
H1471 H 0.73955 0.01975 0.41363 0.0
H1472 H 0.74398 0.99994 0.38507 0.0
H1473 H 0.73948 0.88775 0.35573 0.0
H1474 H 0.76571 0.92452 0.36283 0.0
H1475 H 0.72239 0.94384 0.34849 0.0
H1476 H 0.69586 0.90695 0.34152 0.0
H1477 H 0.74647 0.96498 0.38365 0.0
H1478 H 0.75567 0.94844 0.31508 0.0
H1479 H 0.76061 0.92779 0.28778 0.0
H1480 H 0.81576 0.94004 0.32021 0.0
H1481 H 0.81101 0.96054 0.34785 0.0
C1482 C 0.81959 0.06124 0.37867 0.0
C1483 C 0.83971 0.06656 0.38314 0.0
C1484 C 0.8044 0.04018 0.37476 0.0
C1485 C 0.80901 0.02399 0.37532 0.0
C1486 C 0.82917 0.02932 0.37947 0.0
C1487 C 0.84439 0.0504 0.38323 0.0
C1488 C 0.79289 0.00156 0.37102 0.0
C1489 C 0.79508 0.989 0.3558 0.0
C1490 C 0.77514 0.99274 0.38123 0.0
C1491 C 0.77242 0.00463 0.39839 0.0
C1492 C 0.7868 0.01366 0.41535 0.0
C1493 C 0.7842 0.02492 0.43142 0.0
C1494 C 0.7672 0.02714 0.43078 0.0
C1495 C 0.75273 0.01805 0.41409 0.0
C1496 C 0.75527 0.00678 0.39796 0.0
C1497 C 0.73547 0.89976 0.35391 0.0
C1498 C 0.71552 0.89433 0.34791 0.0
C1499 C 0.75055 0.92082 0.35797 0.0
C1500 C 0.74606 0.93695 0.356 0.0
C1501 C 0.72618 0.93164 0.35007 0.0
C1502 C 0.71106 0.91053 0.34599 0.0
C1503 C 0.76212 0.95933 0.36036 0.0
C1504 C 0.75991 0.97184 0.37559 0.0
C1505 C 0.77992 0.96806 0.35029 0.0
C1506 C 0.78289 0.95588 0.33361 0.0
C1507 C 0.76877 0.94661 0.31646 0.0
C1508 C 0.77155 0.93495 0.30091 0.0
C1509 C 0.78846 0.93256 0.30228 0.0
C1510 C 0.80266 0.94189 0.31918 0.0
C1511 C 0.79994 0.95355 0.33478 0.0
H1512 H 0.79059 0.92353 0.29024 0.0
H1513 H 0.76521 0.03587 0.44324 0.0
H1514 H 0.93763 0.77785 0.3773 0.0
H1515 H 0.97172 0.78674 0.37023 0.0
H1516 H 0.99264 0.80874 0.43335 0.0
H1517 H 0.95841 0.79969 0.44054 0.0
H1518 H 0.01921 0.83538 0.40588 0.0
H1519 H 0.98503 0.76301 0.4188 0.0
H1520 H 0.95732 0.72615 0.41517 0.0
H1521 H 0.96539 0.72098 0.35185 0.0
H1522 H 0.99298 0.75793 0.35503 0.0
H1523 H 0.11117 0.83399 0.39597 0.0
H1524 H 0.07909 0.82743 0.40796 0.0
H1525 H 0.04983 0.80242 0.34739 0.0
H1526 H 0.0818 0.80905 0.33535 0.0
H1527 H 0.02843 0.77747 0.37705 0.0
H1528 H 0.0621 0.85031 0.36407 0.0
H1529 H 0.09013 0.88699 0.36786 0.0
H1530 H 0.08307 0.89151 0.43147 0.0
H1531 H 0.05544 0.85457 0.42827 0.0
C1532 C 0.94957 0.7849 0.38959 0.0
C1533 C 0.9455 0.78851 0.40936 0.0
C1534 C 0.96899 0.78987 0.38557 0.0
C1535 C 0.98466 0.79836 0.40129 0.0
C1536 C 0.98076 0.80234 0.42101 0.0
C1537 C 0.96126 0.79721 0.42507 0.0
C1538 C 0.00485 0.80211 0.39712 0.0
C1539 C 0.02134 0.8227 0.3999 0.0
C1540 C 0.00751 0.78556 0.3891 0.0
C1541 C 0.99095 0.76331 0.38712 0.0
C1542 C 0.98079 0.75407 0.40406 0.0
C1543 C 0.96512 0.73315 0.40209 0.0
C1544 C 0.95956 0.72125 0.38328 0.0
C1545 C 0.9697 0.73023 0.36641 0.0
C1546 C 0.98536 0.75116 0.36829 0.0
C1547 C 0.09785 0.82706 0.38527 0.0
C1548 C 0.09888 0.82203 0.36475 0.0
C1549 C 0.0796 0.82338 0.3921 0.0
C1550 C 0.06214 0.81453 0.37852 0.0
C1551 C 0.06314 0.80924 0.3581 0.0
C1552 C 0.08139 0.81308 0.35124 0.0
C1553 C 0.04274 0.81079 0.38542 0.0
C1554 C 0.02637 0.79015 0.3832 0.0
C1555 C 0.04027 0.8273 0.39397 0.0
C1556 C 0.05686 0.84954 0.39598 0.0
C1557 C 0.06669 0.85901 0.37894 0.0
C1558 C 0.08253 0.87985 0.381 0.0
C1559 C 0.0885 0.89151 0.39996 0.0
C1560 C 0.07858 0.88237 0.41687 0.0
C1561 C 0.06284 0.86148 0.41495 0.0
H1562 H 0.10075 0.90766 0.40152 0.0
H1563 H 0.94744 0.70505 0.38179 0.0
H1564 H 0.20618 0.16358 0.42207 0.0
H1565 H 0.19644 0.19008 0.41634 0.0
H1566 H 0.21628 0.19491 0.35614 0.0
H1567 H 0.22583 0.16832 0.36174 0.0
H1568 H 0.23101 0.23376 0.37872 0.0
H1569 H 0.16698 0.16868 0.36225 0.0
H1570 H 0.13899 0.13453 0.36996 0.0
H1571 H 0.12753 0.16507 0.42031 0.0
H1572 H 0.15564 0.19939 0.41306 0.0
H1573 H 0.195 0.29341 0.33269 0.0
H1574 H 0.2026 0.26623 0.34162 0.0
H1575 H 0.16817 0.25551 0.39356 0.0
H1576 H 0.15946 0.28176 0.38381 0.0
H1577 H 0.16112 0.22021 0.37863 0.0
H1578 H 0.22217 0.28426 0.39685 0.0
H1579 H 0.25065 0.31946 0.39266 0.0
H1580 H 0.26919 0.29306 0.34484 0.0
H1581 H 0.24065 0.25773 0.34853 0.0
C1582 C 0.20808 0.17002 0.40749 0.0
C1583 C 0.2162 0.16346 0.3921 0.0
C1584 C 0.20259 0.18518 0.40426 0.0
C1585 C 0.20544 0.19428 0.38573 0.0
C1586 C 0.21384 0.18798 0.3705 0.0
C1587 C 0.21917 0.17273 0.37365 0.0
C1588 C 0.20027 0.21082 0.38229 0.0
C1589 C 0.21571 0.23078 0.37848 0.0
C1590 C 0.18047 0.20718 0.38295 0.0
C1591 C 0.16355 0.18656 0.38724 0.0
C1592 C 0.1586 0.16809 0.37507 0.0
C1593 C 0.14269 0.14871 0.37934 0.0
C1594 C 0.13153 0.14763 0.39565 0.0
C1595 C 0.13621 0.16593 0.4077 0.0
C1596 C 0.15212 0.18535 0.40351 0.0
C1597 C 0.18904 0.2852 0.34598 0.0
C1598 C 0.17672 0.28972 0.35759 0.0
C1599 C 0.19351 0.26977 0.3512 0.0
C1600 C 0.18641 0.2591 0.3686 0.0
C1601 C 0.1739 0.2635 0.3801 0.0
C1602 C 0.16896 0.27853 0.37455 0.0
C1603 C 0.19183 0.24319 0.37456 0.0
C1604 C 0.17649 0.22336 0.37897 0.0
C1605 C 0.21186 0.24714 0.37505 0.0
C1606 C 0.22916 0.26836 0.37286 0.0
C1607 C 0.23225 0.28597 0.38535 0.0
C1608 C 0.24841 0.30595 0.38307 0.0
C1609 C 0.2617 0.3085 0.36846 0.0
C1610 C 0.25888 0.29107 0.35614 0.0
C1611 C 0.24272 0.27105 0.35833 0.0
H1612 H 0.2742 0.32399 0.36672 0.0
H1613 H 0.11922 0.13261 0.39892 0.0
H1614 H 0.60397 0.51697 0.76382 0.0
H1615 H 0.63559 0.54343 0.75182 0.0
H1616 H 0.65001 0.4953 0.73568 0.0
H1617 H 0.61839 0.46873 0.74773 0.0
H1618 H 0.68262 0.53236 0.75674 0.0
H1619 H 0.63312 0.5122 0.69941 0.0
H1620 H 0.60128 0.50618 0.68208 0.0
H1621 H 0.61954 0.57119 0.69622 0.0
H1622 H 0.65139 0.57753 0.7139 0.0
H1623 H 0.75759 0.58408 0.6887 0.0
H1624 H 0.72689 0.55948 0.70359 0.0
H1625 H 0.71559 0.61002 0.71919 0.0
H1626 H 0.74654 0.63479 0.70469 0.0
H1627 H 0.6817 0.57305 0.69969 0.0
H1628 H 0.73105 0.59438 0.75577 0.0
H1629 H 0.76241 0.60141 0.77509 0.0
H1630 H 0.74468 0.53613 0.7652 0.0
H1631 H 0.71334 0.52874 0.74554 0.0
C1632 C 0.61395 0.51206 0.75783 0.0
C1633 C 0.60871 0.49078 0.75668 0.0
C1634 C 0.63194 0.52716 0.75091 0.0
C1635 C 0.64509 0.5213 0.74279 0.0
C1636 C 0.64006 0.50013 0.7419 0.0
C1637 C 0.62196 0.48497 0.74863 0.0
C1638 C 0.66392 0.53722 0.7349 0.0
C1639 C 0.68245 0.54107 0.74409 0.0
C1640 C 0.66365 0.54905 0.71885 0.0
C1641 C 0.64454 0.54528 0.70816 0.0
C1642 C 0.63027 0.52517 0.69898 0.0
C1643 C 0.61224 0.52171 0.68907 0.0
C1644 C 0.60836 0.53828 0.6881 0.0
C1645 C 0.62255 0.55836 0.69701 0.0
C1646 C 0.6406 0.5619 0.70696 0.0
C1647 C 0.74851 0.5899 0.69525 0.0
C1648 C 0.75432 0.61127 0.6955 0.0
C1649 C 0.73108 0.57589 0.70385 0.0
C1650 C 0.71907 0.58298 0.71259 0.0
C1651 C 0.7247 0.60427 0.71255 0.0
C1652 C 0.74232 0.61837 0.70427 0.0
C1653 C 0.70042 0.56802 0.72136 0.0
C1654 C 0.68191 0.56436 0.71235 0.0
C1655 C 0.70075 0.55655 0.73772 0.0
C1656 C 0.71991 0.56104 0.74897 0.0
C1657 C 0.73395 0.58156 0.75746 0.0
C1658 C 0.7517 0.5856 0.76854 0.0
C1659 C 0.75552 0.56922 0.77134 0.0
C1660 C 0.74168 0.5488 0.76299 0.0
C1661 C 0.72392 0.54467 0.75189 0.0
H1662 H 0.76915 0.5723 0.78008 0.0
H1663 H 0.59439 0.53557 0.68042 0.0
H1664 H 0.51967 0.12762 0.78625 0.0
H1665 H 0.49311 0.13317 0.77169 0.0
H1666 H 0.5023 0.11604 0.71159 0.0
H1667 H 0.52828 0.10929 0.72605 0.0
H1668 H 0.49958 0.15546 0.71826 0.0
H1669 H 0.46476 0.08127 0.72765 0.0
H1670 H 0.4555 0.05089 0.74757 0.0
H1671 H 0.43069 0.07529 0.79054 0.0
H1672 H 0.4401 0.106 0.77104 0.0
H1673 H 0.41298 0.15012 0.66859 0.0
H1674 H 0.43998 0.14366 0.68004 0.0
H1675 H 0.42017 0.13679 0.74041 0.0
H1676 H 0.39276 0.14253 0.72876 0.0
H1677 H 0.4288 0.10862 0.73232 0.0
H1678 H 0.46412 0.18285 0.72617 0.0
H1679 H 0.47565 0.2158 0.70984 0.0
H1680 H 0.5011 0.19453 0.66463 0.0
H1681 H 0.48952 0.16136 0.6806 0.0
C1682 C 0.51592 0.12471 0.76994 0.0
C1683 C 0.52601 0.11772 0.75737 0.0
C1684 C 0.50084 0.12808 0.76166 0.0
C1685 C 0.49572 0.12487 0.74063 0.0
C1686 C 0.50612 0.1186 0.72789 0.0
C1687 C 0.52103 0.11487 0.7362 0.0
C1688 C 0.47924 0.12779 0.73211 0.0
C1689 C 0.48402 0.14507 0.72098 0.0
C1690 C 0.45915 0.11459 0.73636 0.0
C1691 C 0.45331 0.09603 0.74799 0.0
C1692 C 0.45749 0.08025 0.74145 0.0
C1693 C 0.45218 0.06295 0.75264 0.0
C1694 C 0.44256 0.06118 0.77034 0.0
C1695 C 0.43817 0.07669 0.77685 0.0
C1696 C 0.44347 0.09404 0.76572 0.0
C1697 C 0.41446 0.14727 0.6843 0.0
C1698 C 0.40086 0.14683 0.69782 0.0
C1699 C 0.42998 0.14373 0.69089 0.0
C1700 C 0.43244 0.14016 0.71123 0.0
C1701 C 0.41868 0.13957 0.72467 0.0
C1702 C 0.40303 0.14287 0.71803 0.0
C1703 C 0.44901 0.13653 0.71844 0.0
C1704 C 0.44428 0.11906 0.7294 0.0
C1705 C 0.46925 0.14985 0.71438 0.0
C1706 C 0.47575 0.16954 0.70445 0.0
C1707 C 0.47197 0.18511 0.71262 0.0
C1708 C 0.47856 0.20385 0.70345 0.0
C1709 C 0.48906 0.20723 0.68618 0.0
C1710 C 0.49294 0.19187 0.678 0.0
C1711 C 0.48638 0.17312 0.68711 0.0
H1712 H 0.4943 0.22179 0.67916 0.0
H1713 H 0.43846 0.04778 0.77898 0.0
H1714 H 0.89943 0.41304 0.7158 0.0
H1715 H 0.89548 0.37963 0.70154 0.0
H1716 H 0.85611 0.34746 0.74748 0.0
H1717 H 0.86097 0.381 0.76229 0.0
H1718 H 0.87949 0.33311 0.74438 0.0
H1719 H 0.83965 0.34551 0.6948 0.0
H1720 H 0.83261 0.36528 0.66989 0.0
H1721 H 0.87804 0.36656 0.63417 0.0
H1722 H 0.88554 0.34701 0.65902 0.0
H1723 H 0.82972 0.22883 0.7004 0.0
H1724 H 0.83717 0.26445 0.71041 0.0
H1725 H 0.88757 0.28941 0.67417 0.0
H1726 H 0.8803 0.25351 0.66398 0.0
H1727 H 0.86154 0.30817 0.67104 0.0
H1728 H 0.89831 0.29216 0.72126 0.0
H1729 H 0.90213 0.27034 0.74611 0.0
H1730 H 0.85827 0.27387 0.78084 0.0
H1731 H 0.85378 0.29529 0.75592 0.0
C1732 C 0.88986 0.39876 0.72271 0.0
C1733 C 0.88048 0.3995 0.74009 0.0
C1734 C 0.88751 0.37965 0.71452 0.0
C1735 C 0.87526 0.36084 0.72323 0.0
C1736 C 0.8657 0.36167 0.74048 0.0
C1737 C 0.86841 0.38081 0.74891 0.0
C1738 C 0.87273 0.34037 0.71484 0.0
C1739 C 0.87535 0.32765 0.72836 0.0
C1740 C 0.86778 0.33327 0.69385 0.0
C1741 C 0.86331 0.34501 0.67889 0.0
C1742 C 0.84824 0.35015 0.68172 0.0
C1743 C 0.84415 0.36129 0.66759 0.0
C1744 C 0.85491 0.36723 0.65049 0.0
C1745 C 0.86975 0.36198 0.64744 0.0
C1746 C 0.87392 0.35086 0.66154 0.0
C1747 C 0.84228 0.24179 0.69429 0.0
C1748 C 0.85442 0.23828 0.68133 0.0
C1749 C 0.84653 0.26216 0.70014 0.0
C1750 C 0.86296 0.27951 0.69315 0.0
C1751 C 0.87481 0.27616 0.67972 0.0
C1752 C 0.87068 0.25568 0.67397 0.0
C1753 C 0.86797 0.30105 0.70065 0.0
C1754 C 0.86583 0.31387 0.687 0.0
C1755 C 0.87294 0.30808 0.72157 0.0
C1756 C 0.87565 0.29526 0.73665 0.0
C1757 C 0.88934 0.28814 0.7341 0.0
C1758 C 0.89164 0.27585 0.74821 0.0
C1759 C 0.88047 0.27076 0.76505 0.0
C1760 C 0.86691 0.27785 0.76779 0.0
C1761 C 0.86449 0.29007 0.75367 0.0
H1762 H 0.8823 0.26129 0.77599 0.0
H1763 H 0.85172 0.37585 0.63957 0.0
H1764 H 0.18549 0.93 0.60528 0.0
H1765 H 0.21309 0.96431 0.62006 0.0
H1766 H 0.17061 0.98485 0.63099 0.0
H1767 H 0.14291 0.95047 0.61634 0.0
H1768 H 0.2038 0.01268 0.61011 0.0
H1769 H 0.19104 0.9752 0.67001 0.0
H1770 H 0.18657 0.946 0.68984 0.0
H1771 H 0.24651 0.95977 0.68044 0.0
H1772 H 0.25124 0.98888 0.66029 0.0
H1773 H 0.26906 0.10999 0.66538 0.0
H1774 H 0.24148 0.07442 0.65528 0.0
H1775 H 0.28343 0.05175 0.65503 0.0
H1776 H 0.31122 0.08742 0.66567 0.0
H1777 H 0.25057 0.02443 0.67045 0.0
H1778 H 0.2643 0.06099 0.61099 0.0
H1779 H 0.26959 0.0889 0.58904 0.0
H1780 H 0.20913 0.07562 0.59434 0.0
H1781 H 0.20363 0.04796 0.61687 0.0
C1782 C 0.18205 0.94179 0.611 0.0
C1783 C 0.16208 0.93762 0.60967 0.0
C1784 C 0.19779 0.96132 0.6195 0.0
C1785 C 0.19387 0.97708 0.62666 0.0
C1786 C 0.17392 0.97286 0.62559 0.0
C1787 C 0.15813 0.95322 0.61733 0.0
C1788 C 0.21069 0.99829 0.63432 0.0
C1789 C 0.21384 0.01537 0.62351 0.0
C1790 C 0.22421 0.00153 0.6513 0.0
C1791 C 0.22142 0.98409 0.66348 0.0
C1792 C 0.20321 0.97189 0.67202 0.0
C1793 C 0.20064 0.95537 0.68335 0.0
C1794 C 0.21623 0.95099 0.68635 0.0
C1795 C 0.23444 0.96316 0.67808 0.0
C1796 C 0.23708 0.97968 0.66672 0.0
C1797 C 0.27248 0.09746 0.66331 0.0
C1798 C 0.29242 0.10162 0.66622 0.0
C1799 C 0.25666 0.0771 0.65742 0.0
C1800 C 0.26038 0.06044 0.65396 0.0
C1801 C 0.28018 0.06437 0.65751 0.0
C1802 C 0.29606 0.08477 0.6636 0.0
C1803 C 0.24362 0.03904 0.64638 0.0
C1804 C 0.24051 0.02186 0.65711 0.0
C1805 C 0.23028 0.03563 0.62908 0.0
C1806 C 0.23365 0.05258 0.61588 0.0
C1807 C 0.25221 0.06421 0.60774 0.0
C1808 C 0.25524 0.08 0.59517 0.0
C1809 C 0.23975 0.08419 0.59045 0.0
C1810 C 0.22117 0.0725 0.5982 0.0
C1811 C 0.21809 0.05678 0.61088 0.0
H1812 H 0.24206 0.0964 0.58074 0.0
H1813 H 0.21421 0.9382 0.69513 0.0
H1814 H 0.07076 0.21297 0.61462 0.0
H1815 H 0.04142 0.21047 0.62942 0.0
H1816 H 0.01105 0.19915 0.56953 0.0
H1817 H 0.03988 0.20039 0.55446 0.0
H1818 H 0.01199 0.2326 0.59801 0.0
H1819 H 0.99524 0.15975 0.59315 0.0
H1820 H 0.00192 0.13092 0.59895 0.0
H1821 H 0.00865 0.1465 0.66344 0.0
H1822 H 0.00231 0.17565 0.658 0.0
H1823 H 0.9142 0.20437 0.62281 0.0
H1824 H 0.94395 0.20714 0.60865 0.0
H1825 H 0.9643 0.1974 0.66702 0.0
H1826 H 0.93392 0.19358 0.68095 0.0
H1827 H 0.96947 0.17525 0.63972 0.0
H1828 H 0.98648 0.24708 0.64659 0.0
H1829 H 0.9819 0.27759 0.64284 0.0
H1830 H 0.97751 0.26677 0.57787 0.0
H1831 H 0.9818 0.23602 0.58123 0.0
C1832 C 0.05773 0.20946 0.60451 0.0
C1833 C 0.05776 0.20675 0.58326 0.0
C1834 C 0.04104 0.20826 0.61304 0.0
C1835 C 0.02414 0.20464 0.60055 0.0
C1836 C 0.02405 0.20206 0.57939 0.0
C1837 C 0.0406 0.20289 0.57082 0.0
C1838 C 0.00662 0.20371 0.60964 0.0
C1839 C 0.00247 0.21994 0.60692 0.0
C1840 C 0.9948 0.18761 0.62186 0.0
C1841 C 0.99851 0.17002 0.62515 0.0
C1842 C 0.99833 0.15716 0.60856 0.0
C1843 C 0.00202 0.14073 0.61178 0.0
C1844 C 0.00577 0.13692 0.63155 0.0
C1845 C 0.00578 0.14949 0.64814 0.0
C1846 C 0.00212 0.16596 0.64499 0.0
C1847 C 0.92515 0.20305 0.63266 0.0
C1848 C 0.9219 0.19892 0.65299 0.0
C1849 C 0.94221 0.20472 0.62458 0.0
C1850 C 0.95663 0.20285 0.63683 0.0
C1851 C 0.95345 0.19893 0.65726 0.0
C1852 C 0.93616 0.19686 0.66524 0.0
C1853 C 0.97458 0.20416 0.62809 0.0
C1854 C 0.97891 0.188 0.63089 0.0
C1855 C 0.98683 0.2206 0.61627 0.0
C1856 C 0.98428 0.23912 0.61417 0.0
C1857 C 0.98439 0.25111 0.6315 0.0
C1858 C 0.98187 0.26847 0.62945 0.0
C1859 C 0.97936 0.27408 0.61013 0.0
C1860 C 0.97943 0.26239 0.59282 0.0
C1861 C 0.98193 0.24501 0.59479 0.0
H1862 H 0.97741 0.28753 0.60857 0.0
H1863 H 0.00861 0.12419 0.63402 0.0
H1864 H 0.82384 0.86728 0.61871 0.0
H1865 H 0.82909 0.8394 0.63102 0.0
H1866 H 0.76633 0.79411 0.61487 0.0
H1867 H 0.76099 0.8219 0.60261 0.0
H1868 H 0.78066 0.79038 0.65339 0.0
H1869 H 0.79928 0.79624 0.58493 0.0
H1870 H 0.81784 0.8148 0.5565 0.0
H1871 H 0.87378 0.83111 0.59 0.0
H1872 H 0.85559 0.81313 0.6189 0.0
H1873 H 0.78684 0.69726 0.65998 0.0
H1874 H 0.78029 0.72479 0.64943 0.0
H1875 H 0.84402 0.76952 0.65651 0.0
H1876 H 0.85071 0.74209 0.66652 0.0
H1877 H 0.82848 0.77324 0.62221 0.0
H1878 H 0.81116 0.7694 0.69101 0.0
H1879 H 0.79355 0.75211 0.72043 0.0
H1880 H 0.73662 0.73296 0.68745 0.0
H1881 H 0.75388 0.7499 0.65771 0.0
C1882 C 0.81115 0.85141 0.61793 0.0
C1883 C 0.79203 0.84673 0.60961 0.0
C1884 C 0.81418 0.83549 0.62486 0.0
C1885 C 0.79812 0.81467 0.62371 0.0
C1886 C 0.77893 0.81006 0.61584 0.0
C1887 C 0.77594 0.82591 0.60872 0.0
C1888 C 0.80137 0.79763 0.63046 0.0
C1889 C 0.79093 0.78644 0.64644 0.0
C1890 C 0.81511 0.79284 0.62165 0.0
C1891 C 0.82607 0.80359 0.60422 0.0
C1892 C 0.81555 0.80401 0.58636 0.0
C1893 C 0.82601 0.81444 0.57016 0.0
C1894 C 0.84698 0.82426 0.5715 0.0
C1895 C 0.85754 0.8236 0.58903 0.0
C1896 C 0.84716 0.81331 0.60534 0.0
C1897 C 0.79944 0.71301 0.65948 0.0
C1898 C 0.81929 0.71745 0.66412 0.0
C1899 C 0.79567 0.72876 0.65349 0.0
C1900 C 0.81166 0.74932 0.65232 0.0
C1901 C 0.83144 0.7538 0.65722 0.0
C1902 C 0.83522 0.73806 0.66302 0.0
C1903 C 0.80794 0.76606 0.64537 0.0
C1904 C 0.81823 0.77717 0.62925 0.0
C1905 C 0.79422 0.77091 0.6542 0.0
C1906 C 0.7838 0.76073 0.67206 0.0
C1907 C 0.79487 0.76136 0.68997 0.0
C1908 C 0.78496 0.75164 0.70671 0.0
C1909 C 0.76398 0.74139 0.70579 0.0
C1910 C 0.75287 0.74088 0.68813 0.0
C1911 C 0.76271 0.75055 0.67133 0.0
H1912 H 0.75633 0.73388 0.71876 0.0
H1913 H 0.85504 0.83223 0.5589 0.0
H1914 H 0.07829 0.84156 0.65371 0.0
H1915 H 0.04344 0.81692 0.65975 0.0
H1916 H 0.02359 0.82047 0.59863 0.0
H1917 H 0.05856 0.84509 0.59247 0.0
H1918 H 0.99884 0.82196 0.62786 0.0
H1919 H 0.02687 0.77937 0.60763 0.0
H1920 H 0.05195 0.76787 0.60862 0.0
H1921 H 0.04175 0.75383 0.67049 0.0
H1922 H 0.01681 0.76555 0.66996 0.0
H1923 H 0.90082 0.73232 0.63008 0.0
H1924 H 0.93426 0.75735 0.62038 0.0
H1925 H 0.96129 0.75227 0.6771 0.0
H1926 H 0.92798 0.72683 0.68651 0.0
H1927 H 0.98191 0.75125 0.64736 0.0
H1928 H 0.95521 0.79545 0.66834 0.0
H1929 H 0.93026 0.80715 0.66765 0.0
H1930 H 0.93793 0.81829 0.60485 0.0
H1931 H 0.96277 0.80641 0.60511 0.0
C1932 C 0.06645 0.83731 0.64167 0.0
C1933 C 0.07106 0.84558 0.62279 0.0
C1934 C 0.04658 0.82317 0.64509 0.0
C1935 C 0.03094 0.81683 0.62962 0.0
C1936 C 0.03543 0.82526 0.6108 0.0
C1937 C 0.05536 0.83933 0.60733 0.0
C1938 C 0.01003 0.80087 0.63298 0.0
C1939 C 0.99503 0.80639 0.63184 0.0
C1940 C 0.00518 0.78068 0.63846 0.0
C1941 C 0.0201 0.77353 0.63881 0.0
C1942 C 0.03009 0.774 0.6215 0.0
C1943 C 0.04426 0.76741 0.62197 0.0
C1944 C 0.04848 0.76017 0.63962 0.0
C1945 C 0.03849 0.75946 0.65683 0.0
C1946 C 0.02432 0.76606 0.65645 0.0
C1947 C 0.91394 0.7366 0.64044 0.0
C1948 C 0.91188 0.72775 0.65907 0.0
C1949 C 0.93301 0.75096 0.63495 0.0
C1950 C 0.95032 0.75695 0.64813 0.0
C1951 C 0.9482 0.74793 0.66667 0.0
C1952 C 0.92917 0.73344 0.67207 0.0
C1953 C 0.97069 0.77242 0.64266 0.0
C1954 C 0.98563 0.76679 0.64333 0.0
C1955 C 0.97547 0.79252 0.63681 0.0
C1956 C 0.96069 0.79985 0.63669 0.0
C1957 C 0.95148 0.80027 0.65435 0.0
C1958 C 0.93737 0.80695 0.65404 0.0
C1959 C 0.93247 0.8134 0.6362 0.0
C1960 C 0.94172 0.81326 0.61865 0.0
C1961 C 0.95583 0.80658 0.61887 0.0
H1962 H 0.92154 0.81856 0.63599 0.0
H1963 H 0.05945 0.75508 0.63995 0.0
H1964 H 0.15285 0.21895 0.63901 0.0
H1965 H 0.18071 0.21251 0.64643 0.0
H1966 H 0.17745 0.19272 0.58312 0.0
H1967 H 0.14963 0.19934 0.57558 0.0
H1968 H 0.18207 0.16639 0.61033 0.0
H1969 H 0.21281 0.23934 0.59926 0.0
H1970 H 0.21846 0.27538 0.60394 0.0
H1971 H 0.23642 0.27934 0.66735 0.0
H1972 H 0.23058 0.24318 0.66311 0.0
H1973 H 0.27709 0.17099 0.62154 0.0
H1974 H 0.24944 0.17635 0.60947 0.0
H1975 H 0.25061 0.20345 0.66936 0.0
H1976 H 0.27837 0.1984 0.68137 0.0
H1977 H 0.24751 0.22618 0.64071 0.0
H1978 H 0.21461 0.15299 0.65278 0.0
H1979 H 0.20857 0.11675 0.64898 0.0
H1980 H 0.19462 0.11311 0.58466 0.0
H1981 H 0.20079 0.14945 0.58805 0.0
C1982 C 0.1579 0.21293 0.62675 0.0
C1983 C 0.14881 0.20917 0.60683 0.0
C1984 C 0.17384 0.20936 0.63097 0.0
C1985 C 0.18113 0.20218 0.61531 0.0
C1986 C 0.17193 0.19814 0.59542 0.0
C1987 C 0.15605 0.20187 0.59115 0.0
C1988 C 0.19879 0.19961 0.61974 0.0
C1989 C 0.19649 0.1795 0.61665 0.0
C1990 C 0.21746 0.21668 0.6283 0.0
C1991 C 0.22108 0.23847 0.6309 0.0
C1992 C 0.2178 0.24782 0.61424 0.0
C1993 C 0.22107 0.26829 0.6168 0.0
C1994 C 0.22775 0.27962 0.63594 0.0
C1995 C 0.23122 0.27053 0.65254 0.0
C1996 C 0.22795 0.25006 0.65006 0.0
C1997 C 0.27143 0.17813 0.63208 0.0
C1998 C 0.27976 0.18424 0.65238 0.0
C1999 C 0.25562 0.1811 0.6252 0.0
C2000 C 0.24783 0.19011 0.63858 0.0
C2001 C 0.25639 0.19648 0.65879 0.0
C2002 C 0.27219 0.19355 0.66564 0.0
C2003 C 0.23073 0.19289 0.63166 0.0
C2004 C 0.23315 0.21307 0.63424 0.0
C2005 C 0.21217 0.17587 0.62273 0.0
C2006 C 0.20834 0.154 0.62064 0.0
C2007 C 0.21039 0.14451 0.6378 0.0
C2008 C 0.20692 0.12395 0.63573 0.0
C2009 C 0.20125 0.11265 0.61659 0.0
C2010 C 0.19902 0.12189 0.59947 0.0
C2011 C 0.20248 0.14246 0.60146 0.0
H2012 H 0.19849 0.09672 0.61506 0.0
H2013 H 0.23028 0.29547 0.63789 0.0
H2014 H 0.76689 0.93871 0.62244 0.0
H2015 H 0.77675 0.97589 0.62746 0.0
H2016 H 0.83668 0.99142 0.64997 0.0
H2017 H 0.82659 0.95403 0.64545 0.0
H2018 H 0.82417 0.01122 0.67369 0.0
H2019 H 0.82627 0.0029 0.60218 0.0
H2020 H 0.81402 0.98696 0.56691 0.0
H2021 H 0.76572 1.00016 0.56854 0.0
H2022 H 0.7775 0.0159 0.60395 0.0
H2023 H 0.86429 0.12217 0.67014 0.0
H2024 H 0.85784 0.08629 0.6627 0.0
H2025 H 0.7946 0.06405 0.64961 0.0
H2026 H 0.80081 0.09976 0.65718 0.0
H2027 H 0.81119 0.04887 0.62026 0.0
H2028 H 0.80892 0.0554 0.69303 0.0
H2029 H 0.82239 0.07206 0.72793 0.0
H2030 H 0.87298 0.06302 0.72291 0.0
H2031 H 0.85994 0.04657 0.68784 0.0
C2032 C 0.78217 0.95009 0.62841 0.0
C2033 C 0.796 0.94358 0.63365 0.0
C2034 C 0.78784 0.97135 0.63114 0.0
C2035 C 0.80754 0.98654 0.63888 0.0
C2036 C 0.82141 0.98002 0.64397 0.0
C2037 C 0.81569 0.95873 0.64135 0.0
C2038 C 0.81339 0.00908 0.64239 0.0
C2039 C 0.82164 0.01952 0.66187 0.0
C2040 C 0.80985 0.0199 0.62709 0.0
C2041 C 0.80267 0.0104 0.6058 0.0
C2042 C 0.81293 0.00224 0.59508 0.0
C2043 C 0.80609 0.99327 0.57505 0.0
C2044 C 0.78907 0.9925 0.56551 0.0
C2045 C 0.77888 1.00074 0.57596 0.0
C2046 C 0.78565 0.00971 0.59601 0.0
C2047 C 0.84899 0.10964 0.66575 0.0
C2048 C 0.83303 0.1138 0.66444 0.0
C2049 C 0.84535 0.08916 0.66151 0.0
C2050 C 0.82574 0.07254 0.65569 0.0
C2051 C 0.80984 0.07668 0.65408 0.0
C2052 C 0.81342 0.09708 0.65858 0.0
C2053 C 0.82169 0.05074 0.65152 0.0
C2054 C 0.81382 0.04051 0.63195 0.0
C2055 C 0.82575 0.04016 0.66665 0.0
C2056 C 0.83357 0.04998 0.68774 0.0
C2057 C 0.82301 0.05714 0.6993 0.0
C2058 C 0.83055 0.06651 0.71912 0.0
C2059 C 0.84856 0.06865 0.72761 0.0
C2060 C 0.85905 0.06138 0.7163 0.0
C2061 C 0.85158 0.05203 0.69646 0.0
H2062 H 0.85437 0.0759 0.74296 0.0
H2063 H 0.7838 0.98555 0.54999 0.0
H2064 H 0.50294 0.40493 0.70063 0.0
H2065 H 0.47558 0.36862 0.69175 0.0
H2066 H 0.49528 0.34918 0.74434 0.0
H2067 H 0.52244 0.38545 0.75347 0.0
H2068 H 0.48627 0.32209 0.7082 0.0
H2069 H 0.45636 0.3548 0.74697 0.0
H2070 H 0.44748 0.38201 0.75532 0.0
H2071 H 0.41442 0.36771 0.69672 0.0
H2072 H 0.42337 0.34062 0.68791 0.0
H2073 H 0.40165 0.22156 0.71103 0.0
H2074 H 0.42868 0.2578 0.71951 0.0
H2075 H 0.40246 0.27819 0.67306 0.0
H2076 H 0.37488 0.24186 0.66499 0.0
H2077 H 0.41514 0.3051 0.70549 0.0
H2078 H 0.44477 0.27352 0.66573 0.0
H2079 H 0.4529 0.246 0.65614 0.0
H2080 H 0.48618 0.25821 0.71428 0.0
H2081 H 0.47807 0.28572 0.72431 0.0
C2082 C 0.50153 0.39284 0.71016 0.0
C2083 C 0.5151 0.39798 0.72746 0.0
C2084 C 0.48588 0.37217 0.70514 0.0
C2085 C 0.48342 0.35623 0.71739 0.0
C2086 C 0.49701 0.36124 0.73462 0.0
C2087 C 0.51256 0.38198 0.73978 0.0
C2088 C 0.46644 0.33441 0.71242 0.0
C2089 C 0.47071 0.31831 0.70784 0.0
C2090 C 0.44617 0.32961 0.7114 0.0
C2091 C 0.44071 0.34584 0.7167 0.0
C2092 C 0.44735 0.35759 0.7358 0.0
C2093 C 0.44227 0.37296 0.74063 0.0
C2094 C 0.43044 0.37663 0.72654 0.0
C2095 C 0.42361 0.36488 0.70761 0.0
C2096 C 0.42867 0.3495 0.70269 0.0
C2097 C 0.40169 0.23374 0.70254 0.0
C2098 C 0.38628 0.22882 0.68717 0.0
C2099 C 0.41719 0.25447 0.70738 0.0
C2100 C 0.41789 0.27073 0.69664 0.0
C2101 C 0.40231 0.26592 0.6815 0.0
C2102 C 0.38659 0.24515 0.67685 0.0
C2103 C 0.43491 0.29269 0.70124 0.0
C2104 C 0.43068 0.30884 0.70577 0.0
C2105 C 0.45523 0.29759 0.70196 0.0
C2106 C 0.4607 0.28157 0.69581 0.0
C2107 C 0.45378 0.2703 0.67649 0.0
C2108 C 0.45838 0.25472 0.67098 0.0
C2109 C 0.47001 0.25034 0.68461 0.0
C2110 C 0.47717 0.26163 0.70375 0.0
C2111 C 0.47262 0.27726 0.70934 0.0
H2112 H 0.47346 0.23822 0.68031 0.0
H2113 H 0.42652 0.38853 0.73031 0.0
H2114 H 0.62127 0.10937 0.76783 0.0
H2115 H 0.65485 0.11815 0.75855 0.0
H2116 H 0.63529 0.11466 0.69539 0.0
H2117 H 0.60176 0.10584 0.70463 0.0
H2118 H 0.65517 0.09298 0.70125 0.0
H2119 H 0.6654 0.16169 0.722 0.0
H2120 H 0.66486 0.18847 0.74555 0.0
H2121 H 0.70483 0.18313 0.78947 0.0
H2122 H 0.70539 0.15609 0.76629 0.0
H2123 H 0.7493 0.13772 0.6602 0.0
H2124 H 0.7162 0.1289 0.67058 0.0
H2125 H 0.73992 0.14166 0.73361 0.0
H2126 H 0.77324 0.15132 0.72315 0.0
H2127 H 0.71778 0.15815 0.72866 0.0
H2128 H 0.7081 0.08997 0.70926 0.0
H2129 H 0.70867 0.06244 0.68689 0.0
H2130 H 0.66777 0.06537 0.64222 0.0
H2131 H 0.66715 0.09312 0.66423 0.0
C2132 C 0.62428 0.11068 0.75201 0.0
C2133 C 0.60906 0.10708 0.73695 0.0
C2134 C 0.64341 0.1157 0.74673 0.0
C2135 C 0.64759 0.1172 0.72629 0.0
C2136 C 0.63237 0.1136 0.71124 0.0
C2137 C 0.61328 0.10864 0.71652 0.0
C2138 C 0.66767 0.12198 0.72049 0.0
C2139 C 0.66887 0.10735 0.70703 0.0
C2140 C 0.68555 0.1404 0.72857 0.0
C2141 C 0.68526 0.15671 0.74249 0.0
C2142 C 0.67394 0.1661 0.73675 0.0
C2143 C 0.67365 0.18135 0.75002 0.0
C2144 C 0.68476 0.18746 0.76902 0.0
C2145 C 0.69621 0.17836 0.77476 0.0
C2146 C 0.69653 0.16309 0.76156 0.0
C2147 C 0.74735 0.13843 0.67626 0.0
C2148 C 0.76372 0.14513 0.69091 0.0
C2149 C 0.72842 0.13332 0.6822 0.0
C2150 C 0.72542 0.13428 0.70292 0.0
C2151 C 0.74181 0.14078 0.71755 0.0
C2152 C 0.76081 0.14623 0.71159 0.0
C2153 C 0.70537 0.12916 0.70931 0.0
C2154 C 0.70414 0.14373 0.72289 0.0
C2155 C 0.68746 0.11053 0.70155 0.0
C2156 C 0.68772 0.09376 0.68833 0.0
C2157 C 0.69933 0.08484 0.69461 0.0
C2158 C 0.69965 0.06918 0.68201 0.0
C2159 C 0.6883 0.0622 0.66313 0.0
C2160 C 0.67657 0.07081 0.65684 0.0
C2161 C 0.67621 0.08649 0.66939 0.0
H2162 H 0.68857 0.05008 0.65339 0.0
H2163 H 0.68452 0.19927 0.77927 0.0
H2164 H 0.89711 0.51394 0.74974 0.0
H2165 H 0.8866 0.53924 0.74115 0.0
H2166 H 0.86114 0.50501 0.68214 0.0
H2167 H 0.87192 0.4799 0.69067 0.0
H2168 H 0.88219 0.54602 0.67849 0.0
H2169 H 0.83151 0.50164 0.71968 0.0
H2170 H 0.81753 0.48295 0.74981 0.0
H2171 H 0.84398 0.54188 0.78664 0.0
H2172 H 0.8584 0.56093 0.7568 0.0
H2173 H 0.81484 0.59807 0.68931 0.0
H2174 H 0.82156 0.56954 0.69459 0.0
H2175 H 0.88465 0.61149 0.6891 0.0
H2176 H 0.87787 0.63989 0.68293 0.0
H2177 H 0.84151 0.56349 0.72253 0.0
H2178 H 0.90684 0.58537 0.6711 0.0
H2179 H 0.91768 0.60172 0.63912 0.0
H2180 H 0.85672 0.58379 0.61953 0.0
H2181 H 0.84547 0.56708 0.65125 0.0
C2182 C 0.8893 0.51191 0.73495 0.0
C2183 C 0.88558 0.49524 0.72073 0.0
C2184 C 0.88321 0.52626 0.73008 0.0
C2185 C 0.87301 0.524 0.711 0.0
C2186 C 0.86907 0.50715 0.69689 0.0
C2187 C 0.87518 0.49281 0.70176 0.0
C2188 C 0.86675 0.53938 0.70569 0.0
C2189 C 0.87335 0.54991 0.68816 0.0
C2190 C 0.85481 0.54413 0.71802 0.0
C2191 C 0.84625 0.5327 0.73603 0.0
C2192 C 0.83453 0.51061 0.73425 0.0
C2193 C 0.82649 0.49995 0.75127 0.0
C2194 C 0.82992 0.51122 0.77014 0.0
C2195 C 0.84137 0.53317 0.77202 0.0
C2196 C 0.84948 0.54391 0.75506 0.0
C2197 C 0.83015 0.60121 0.68908 0.0
C2198 C 0.84581 0.62124 0.68553 0.0
C2199 C 0.83397 0.58485 0.69213 0.0
C2200 C 0.85357 0.58819 0.69195 0.0
C2201 C 0.86931 0.60831 0.68879 0.0
C2202 C 0.86544 0.6246 0.68538 0.0
C2203 C 0.85762 0.57082 0.69575 0.0
C2204 C 0.85052 0.55982 0.71293 0.0
C2205 C 0.86878 0.56539 0.68291 0.0
C2206 C 0.87536 0.57515 0.66364 0.0
C2207 C 0.89574 0.58483 0.65993 0.0
C2208 C 0.90195 0.59418 0.64185 0.0
C2209 C 0.8879 0.59385 0.62733 0.0
C2210 C 0.86759 0.5841 0.63082 0.0
C2211 C 0.86129 0.57471 0.64885 0.0
H2212 H 0.89275 0.60112 0.61337 0.0
H2213 H 0.82367 0.50293 0.7833 0.0
H2214 H 0.48275 0.94667 0.22138 0.0
H2215 H 0.49414 0.96719 0.19217 0.0
H2216 H 0.43367 0.93336 0.1627 0.0
H2217 H 0.42233 0.91212 0.19147 0.0
H2218 H 0.45981 0.93737 0.13641 0.0
H2219 H 0.45407 0.98379 0.18573 0.0
H2220 H 0.46017 0.00349 0.21915 0.0
H2221 H 0.52364 0.03732 0.21305 0.0
H2222 H 0.51795 0.01761 0.1797 0.0
H2223 H 0.4716 0.00649 0.06173 0.0
H2224 H 0.46134 0.9909 0.09391 0.0
H2225 H 0.52338 0.01266 0.11397 0.0
H2226 H 0.53342 0.02696 0.08115 0.0
H2227 H 0.49693 0.01547 0.14496 0.0
H2228 H 0.50222 0.96868 0.09545 0.0
H2229 H 0.49575 0.94952 0.06171 0.0
H2230 H 0.43238 0.91604 0.06826 0.0
H2231 H 0.4384 0.93559 0.10179 0.0
C2232 C 0.4719 0.94342 0.20859 0.0
C2233 C 0.4516 0.92776 0.2088 0.0
C2234 C 0.4784 0.95534 0.192 0.0
C2235 C 0.46471 0.95203 0.17537 0.0
C2236 C 0.44449 0.93626 0.17541 0.0
C2237 C 0.438 0.92426 0.19196 0.0
C2238 C 0.47148 0.96485 0.15782 0.0
C2239 C 0.46767 0.95443 0.13829 0.0
C2240 C 0.48213 0.98715 0.16028 0.0
C2241 C 0.4856 0.99908 0.1803 0.0
C2242 C 0.46934 0.99532 0.19158 0.0
C2243 C 0.47273 0.0065 0.2105 0.0
C2244 C 0.49228 0.02161 0.21824 0.0
C2245 C 0.5085 0.0256 0.20705 0.0
C2246 C 0.5052 0.01444 0.18813 0.0
C2247 C 0.48293 0.00773 0.07297 0.0
C2248 C 0.50308 0.01708 0.06881 0.0
C2249 C 0.47715 0.9992 0.09142 0.0
C2250 C 0.4916 1.00038 0.10609 0.0
C2251 C 0.51204 0.01159 0.10276 0.0
C2252 C 0.51776 0.01979 0.0841 0.0
C2253 C 0.48512 0.98794 0.12377 0.0
C2254 C 0.48901 0.99841 0.14321 0.0
C2255 C 0.47448 0.96569 0.12124 0.0
C2256 C 0.47075 0.95386 0.10104 0.0
C2257 C 0.48686 0.9575 0.08957 0.0
C2258 C 0.48328 0.94656 0.07047 0.0
C2259 C 0.46364 0.9317 0.06276 0.0
C2260 C 0.44757 0.92767 0.07419 0.0
C2261 C 0.45106 0.93872 0.09324 0.0
H2262 H 0.46088 0.92321 0.04798 0.0
H2263 H 0.49487 0.03026 0.23289 0.0
H2264 H 0.12295 0.57109 0.20972 0.0
H2265 H 0.10593 0.56491 0.17556 0.0
H2266 H 0.05831 0.50488 0.19031 0.0
H2267 H 0.07553 0.51078 0.22419 0.0
H2268 H 0.06743 0.50062 0.1539 0.0
H2269 H 0.05396 0.55035 0.19003 0.0
H2270 H 0.06286 0.58363 0.20988 0.0
H2271 H 0.09552 0.61853 0.16161 0.0
H2272 H 0.08714 0.58546 0.14165 0.0
H2273 H 0.99484 0.51847 0.08125 0.0
H2274 H 0.01463 0.52518 0.11382 0.0
H2275 H 0.05493 0.51006 0.084 0.0
H2276 H 0.03465 0.50265 0.05174 0.0
H2277 H 0.0507 0.55231 0.1274 0.0
H2278 H 0.07608 0.49076 0.11797 0.0
H2279 H 0.06503 0.45659 0.09872 0.0
H2280 H 0.00373 0.44269 0.09568 0.0
H2281 H 0.01436 0.47659 0.11525 0.0
C2282 C 0.10882 0.55662 0.20564 0.0
C2283 C 0.10053 0.54142 0.21959 0.0
C2284 C 0.09909 0.55311 0.18614 0.0
C2285 C 0.0807 0.53452 0.1804 0.0
C2286 C 0.07251 0.5193 0.19432 0.0
C2287 C 0.08234 0.52268 0.21369 0.0
C2288 C 0.06981 0.53085 0.15999 0.0
C2289 C 0.06379 0.51194 0.14809 0.0
C2290 C 0.06498 0.54556 0.15239 0.0
C2291 C 0.07008 0.56545 0.16443 0.0
C2292 C 0.06318 0.56513 0.18373 0.0
C2293 C 0.06812 0.58396 0.19499 0.0
C2294 C 0.0798 0.60319 0.18704 0.0
C2295 C 0.08652 0.60363 0.16778 0.0
C2296 C 0.08168 0.58485 0.15648 0.0
C2297 C 0.00776 0.51628 0.08178 0.0
C2298 C 0.01286 0.50934 0.06413 0.0
C2299 C 0.01915 0.52026 0.10034 0.0
C2300 C 0.03612 0.51779 0.10151 0.0
C2301 C 0.04157 0.51146 0.08369 0.0
C2302 C 0.02988 0.50703 0.06522 0.0
C2303 C 0.04801 0.52192 0.12141 0.0
C2304 C 0.05437 0.54099 0.13315 0.0
C2305 C 0.05281 0.50717 0.12902 0.0
C2306 C 0.04609 0.48641 0.11777 0.0
C2307 C 0.06024 0.48041 0.11322 0.0
C2308 C 0.05405 0.46108 0.10225 0.0
C2309 C 0.03372 0.44756 0.09583 0.0
C2310 C 0.0195 0.45324 0.10055 0.0
C2311 C 0.0256 0.47251 0.1116 0.0
H2312 H 0.02898 0.43265 0.08727 0.0
H2313 H 0.0836 0.61774 0.19579 0.0
H2314 H 0.44487 0.5381 0.20702 0.0
H2315 H 0.45262 0.52893 0.1739 0.0
H2316 H 0.51065 0.54229 0.2006 0.0
H2317 H 0.50307 0.55173 0.23359 0.0
H2318 H 0.51501 0.56048 0.16726 0.0
H2319 H 0.47118 0.49202 0.18663 0.0
H2320 H 0.4403 0.46284 0.19769 0.0
H2321 H 0.40667 0.46149 0.14314 0.0
H2322 H 0.4373 0.49097 0.13193 0.0
H2323 H 0.54255 0.5227 0.0814 0.0
H2324 H 0.53276 0.52546 0.11558 0.0
H2325 H 0.47609 0.51635 0.08939 0.0
H2326 H 0.48595 0.51352 0.05541 0.0
H2327 H 0.47103 0.49485 0.12265 0.0
H2328 H 0.51632 0.56552 0.10498 0.0
H2329 H 0.54848 0.59248 0.09376 0.0
H2330 H 0.58055 0.5873 0.14623 0.0
H2331 H 0.54861 0.55999 0.15754 0.0
C2332 C 0.45916 0.53879 0.20585 0.0
C2333 C 0.47341 0.54572 0.22286 0.0
C2334 C 0.46357 0.53353 0.18693 0.0
C2335 C 0.48219 0.53479 0.18476 0.0
C2336 C 0.49623 0.54128 0.20186 0.0
C2337 C 0.49191 0.5467 0.2207 0.0
C2338 C 0.48753 0.53046 0.16453 0.0
C2339 C 0.50548 0.54598 0.15766 0.0
C2340 C 0.47497 0.51169 0.1518 0.0
C2341 C 0.45649 0.49401 0.1586 0.0
C2342 C 0.45716 0.48572 0.17711 0.0
C2343 C 0.4397 0.46908 0.18339 0.0
C2344 C 0.42151 0.4604 0.17119 0.0
C2345 C 0.42075 0.46831 0.15264 0.0
C2346 C 0.43815 0.485 0.14633 0.0
C2347 C 0.52794 0.52107 0.08303 0.0
C2348 C 0.51472 0.51735 0.06584 0.0
C2349 C 0.52236 0.52268 0.10251 0.0
C2350 C 0.50372 0.52123 0.10505 0.0
C2351 C 0.49044 0.51728 0.08784 0.0
C2352 C 0.49595 0.51542 0.0684 0.0
C2353 C 0.49842 0.52485 0.12553 0.0
C2354 C 0.48049 0.50929 0.13236 0.0
C2355 C 0.51106 0.54346 0.13837 0.0
C2356 C 0.53011 0.56059 0.13201 0.0
C2357 C 0.53024 0.57011 0.1141 0.0
C2358 C 0.54843 0.58543 0.10771 0.0
C2359 C 0.56655 0.59153 0.11926 0.0
C2360 C 0.5665 0.5825 0.1373 0.0
C2361 C 0.54837 0.56711 0.1437 0.0
H2362 H 0.58066 0.60322 0.11428 0.0
H2363 H 0.40802 0.44749 0.17606 0.0
H2364 H 0.91984 0.48517 0.79721 0.0
H2365 H 0.93574 0.49585 0.8319 0.0
H2366 H 0.90478 0.43106 0.84549 0.0
H2367 H 0.88748 0.42039 0.81134 0.0
H2368 H 0.90743 0.454 0.87749 0.0
H2369 H 0.95464 0.45711 0.83122 0.0
H2370 H 0.97417 0.4682 0.80144 0.0
H2371 H 0.00208 0.53282 0.82561 0.0
H2372 H 0.98251 0.52212 0.85543 0.0
H2373 H 0.97894 0.45331 0.94982 0.0
H2374 H 0.95834 0.4493 0.91851 0.0
H2375 H 0.98008 0.51595 0.92408 0.0
H2376 H 1.00045 0.52002 0.95577 0.0
H2377 H 0.98204 0.49597 0.884 0.0
H2378 H 0.93752 0.48977 0.93432 0.0
H2379 H 0.91992 0.47547 0.96464 0.0
H2380 H 0.88783 0.41362 0.93305 0.0
H2381 H 0.90541 0.42749 0.90259 0.0
C2382 C 0.91594 0.47318 0.80766 0.0
C2383 C 0.90252 0.45181 0.80123 0.0
C2384 C 0.92531 0.47932 0.82749 0.0
C2385 C 0.92191 0.46422 0.84121 0.0
C2386 C 0.90782 0.44302 0.83517 0.0
C2387 C 0.89815 0.43691 0.81547 0.0
C2388 C 0.93383 0.47025 0.86137 0.0
C2389 C 0.92373 0.46319 0.87889 0.0
C2390 C 0.95515 0.48237 0.86331 0.0
C2391 C 0.96695 0.48884 0.84542 0.0
C2392 C 0.96484 0.4737 0.83011 0.0
C2393 C 0.97593 0.47991 0.81323 0.0
C2394 C 0.98931 0.50121 0.8116 0.0
C2395 C 0.99168 0.51634 0.82687 0.0
C2396 C 0.9806 0.51021 0.84377 0.0
C2397 C 0.97933 0.46709 0.94433 0.0
C2398 C 0.99125 0.48698 0.95506 0.0
C2399 C 0.96751 0.46476 0.92656 0.0
C2400 C 0.96771 0.48232 0.91909 0.0
C2401 C 0.97976 0.50225 0.92968 0.0
C2402 C 0.99129 0.50453 0.94772 0.0
C2403 C 0.95561 0.4797 0.89991 0.0
C2404 C 0.96571 0.48726 0.8826 0.0
C2405 C 0.93436 0.46778 0.89817 0.0
C2406 C 0.92309 0.4596 0.91623 0.0
C2407 C 0.9269 0.47308 0.93388 0.0
C2408 C 0.91688 0.46507 0.9511 0.0
C2409 C 0.90285 0.44365 0.95081 0.0
C2410 C 0.89872 0.43021 0.93326 0.0
C2411 C 0.9087 0.43814 0.91601 0.0
H2412 H 0.89514 0.43748 0.96416 0.0
H2413 H 0.99788 0.50599 0.79852 0.0
H2414 H 0.52813 0.45691 0.79733 0.0
H2415 H 0.51784 0.46451 0.82955 0.0
H2416 H 0.57776 0.48798 0.85811 0.0
H2417 H 0.58809 0.48009 0.82597 0.0
H2418 H 0.5486 0.46246 0.88205 0.0
H2419 H 0.56412 0.52212 0.84501 0.0
H2420 H 0.56211 0.5402 0.81543 0.0
H2421 H 0.4987 0.51415 0.81931 0.0
H2422 H 0.50028 0.49567 0.84876 0.0
H2423 H 0.52559 0.53139 0.9563 0.0
H2424 H 0.5394 0.52647 0.9252 0.0
H2425 H 0.49607 0.46004 0.9202 0.0
H2426 H 0.48232 0.46487 0.95126 0.0
H2427 H 0.5203 0.50998 0.88569 0.0
H2428 H 0.52233 0.43478 0.90447 0.0
H2429 H 0.52656 0.41854 0.9346 0.0
H2430 H 0.55838 0.47915 0.96873 0.0
H2431 H 0.55486 0.49576 0.93862 0.0
C2432 C 0.53907 0.46351 0.81052 0.0
C2433 C 0.55894 0.46795 0.80911 0.0
C2434 C 0.5332 0.46798 0.82887 0.0
C2435 C 0.54709 0.47698 0.84616 0.0
C2436 C 0.56684 0.48108 0.84492 0.0
C2437 C 0.57275 0.47672 0.82653 0.0
C2438 C 0.54099 0.4823 0.86546 0.0
C2439 C 0.5424 0.47282 0.88285 0.0
C2440 C 0.53326 0.49615 0.86659 0.0
C2441 C 0.53229 0.50737 0.84898 0.0
C2442 C 0.54972 0.52013 0.83947 0.0
C2443 C 0.54866 0.53046 0.82274 0.0
C2444 C 0.53028 0.52829 0.81547 0.0
C2445 C 0.51293 0.51581 0.82495 0.0
C2446 C 0.5139 0.50542 0.84167 0.0
C2447 C 0.51909 0.51576 0.94853 0.0
C2448 C 0.50305 0.49849 0.95616 0.0
C2449 C 0.52688 0.51299 0.93077 0.0
C2450 C 0.51884 0.49286 0.92054 0.0
C2451 C 0.50259 0.47564 0.92801 0.0
C2452 C 0.49469 0.47845 0.94564 0.0
C2453 C 0.52745 0.48973 0.9021 0.0
C2454 C 0.5265 0.49961 0.88488 0.0
C2455 C 0.5358 0.47644 0.90122 0.0
C2456 C 0.53816 0.46651 0.91933 0.0
C2457 C 0.53032 0.44465 0.91836 0.0
C2458 C 0.5326 0.43537 0.93544 0.0
C2459 C 0.54264 0.44778 0.9536 0.0
C2460 C 0.55053 0.46953 0.95469 0.0
C2461 C 0.54842 0.47888 0.93762 0.0
H2462 H 0.54439 0.44057 0.96678 0.0
H2463 H 0.5295 0.5363 0.80251 0.0
H2464 H 0.53595 0.10873 0.82632 0.0
H2465 H 0.52865 0.09258 0.8581 0.0
H2466 H 0.55801 0.05777 0.84167 0.0
H2467 H 0.56378 0.07246 0.80885 0.0
H2468 H 0.52574 0.03296 0.85669 0.0
H2469 H 0.57936 0.10184 0.87975 0.0
H2470 H 0.59813 0.14064 0.88303 0.0
H2471 H 0.54935 0.14137 0.91083 0.0
H2472 H 0.53002 0.10258 0.90706 0.0
H2473 H 0.52132 0.00387 0.96027 0.0
H2474 H 0.53606 0.02177 0.93012 0.0
H2475 H 0.49198 0.04148 0.92486 0.0
H2476 H 0.4771 0.02348 0.95483 0.0
H2477 H 0.53651 0.07424 0.92258 0.0
H2478 H 0.48191 0.00457 0.89493 0.0
H2479 H 0.46436 0.9658 0.8921 0.0
H2480 H 0.51779 0.96733 0.87414 0.0
H2481 H 0.53574 0.00616 0.87716 0.0
C2482 C 0.54068 0.09745 0.82926 0.0
C2483 C 0.55032 0.0918 0.81481 0.0
C2484 C 0.53683 0.08851 0.84772 0.0
C2485 C 0.54312 0.07424 0.85255 0.0
C2486 C 0.55309 0.06883 0.83837 0.0
C2487 C 0.55659 0.07745 0.81966 0.0
C2488 C 0.53824 0.06416 0.87192 0.0
C2489 C 0.52847 0.0421 0.87112 0.0
C2490 C 0.54162 0.07594 0.89084 0.0
C2491 C 0.55323 0.09929 0.89312 0.0
C2492 C 0.57257 0.11028 0.88641 0.0
C2493 C 0.58328 0.13227 0.88828 0.0
C2494 C 0.57492 0.14346 0.89709 0.0
C2495 C 0.55581 0.13269 0.90399 0.0
C2496 C 0.54496 0.1107 0.90196 0.0
C2497 C 0.51484 0.01206 0.95265 0.0
C2498 C 0.49811 0.01233 0.95973 0.0
C2499 C 0.52325 0.02224 0.93551 0.0
C2500 C 0.51511 0.03296 0.92542 0.0
C2501 C 0.4985 0.03338 0.93259 0.0
C2502 C 0.48994 0.02298 0.94955 0.0
C2503 C 0.52352 0.0433 0.907 0.0
C2504 C 0.53401 0.06531 0.90809 0.0
C2505 C 0.52104 0.03155 0.88842 0.0
C2506 C 0.51023 0.00824 0.88652 0.0
C2507 C 0.48997 0.99664 0.89059 0.0
C2508 C 0.47994 0.97466 0.8889 0.0
C2509 C 0.48998 0.96411 0.88301 0.0
C2510 C 0.51005 0.97553 0.87874 0.0
C2511 C 0.52015 0.99751 0.88043 0.0
H2512 H 0.48218 0.94709 0.88171 0.0
H2513 H 0.58329 0.16049 0.89863 0.0
H2514 H 0.0796 0.21082 0.51026 0.0
H2515 H 0.09107 0.23006 0.47997 0.0
H2516 H 0.14586 0.2767 0.51498 0.0
H2517 H 0.13474 0.25724 0.54505 0.0
H2518 H 0.12011 0.29053 0.49045 0.0
H2519 H 0.15237 0.24851 0.48876 0.0
H2520 H 0.15389 0.21587 0.48652 0.0
H2521 H 0.11965 0.19677 0.4282 0.0
H2522 H 0.11759 0.22911 0.43025 0.0
H2523 H 0.19292 0.32944 0.40586 0.0
H2524 H 0.17773 0.30694 0.43299 0.0
H2525 H 0.12358 0.30986 0.42078 0.0
H2526 H 0.13937 0.33356 0.39439 0.0
H2527 H 0.14622 0.26913 0.43246 0.0
H2528 H 0.10084 0.30466 0.46418 0.0
H2529 H 0.1011 0.33836 0.46668 0.0
H2530 H 0.16537 0.37211 0.466 0.0
H2531 H 0.16549 0.33863 0.46372 0.0
C2532 C 0.09413 0.22511 0.51136 0.0
C2533 C 0.10638 0.23258 0.52985 0.0
C2534 C 0.10068 0.23601 0.4941 0.0
C2535 C 0.11935 0.25468 0.49529 0.0
C2536 C 0.13145 0.26224 0.51381 0.0
C2537 C 0.12514 0.25113 0.5309 0.0
C2538 C 0.12608 0.26697 0.47754 0.0
C2539 C 0.12567 0.28579 0.47767 0.0
C2540 C 0.1334 0.26073 0.46099 0.0
C2541 C 0.13429 0.24102 0.45997 0.0
C2542 C 0.14475 0.23716 0.47567 0.0
C2543 C 0.14584 0.21875 0.47436 0.0
C2544 C 0.13673 0.20416 0.45731 0.0
C2545 C 0.12658 0.208 0.44148 0.0
C2546 C 0.12542 0.22636 0.44273 0.0
C2547 C 0.17789 0.32554 0.40916 0.0
C2548 C 0.16717 0.33302 0.39789 0.0
C2549 C 0.16913 0.31248 0.42451 0.0
C2550 C 0.1495 0.30666 0.42893 0.0
C2551 C 0.1388 0.31424 0.41776 0.0
C2552 C 0.1477 0.32756 0.40253 0.0
C2553 C 0.14057 0.29293 0.44548 0.0
C2554 C 0.14041 0.27376 0.4451 0.0
C2555 C 0.13294 0.29893 0.46194 0.0
C2556 C 0.13313 0.31916 0.46359 0.0
C2557 C 0.11502 0.31929 0.46464 0.0
C2558 C 0.1151 0.33834 0.466 0.0
C2559 C 0.13324 0.35736 0.46644 0.0
C2560 C 0.15133 0.35737 0.46559 0.0
C2561 C 0.15133 0.33837 0.46425 0.0
H2562 H 0.13327 0.37209 0.46747 0.0
H2563 H 0.13766 0.18996 0.45629 0.0
H2564 H 0.74106 0.87821 0.56601 0.0
H2565 H 0.72205 0.87062 0.53259 0.0
H2566 H 0.76394 0.85615 0.50561 0.0
H2567 H 0.78269 0.8632 0.53905 0.0
H2568 H 0.75281 0.88543 0.48484 0.0
H2569 H 0.72496 0.81718 0.51193 0.0
H2570 H 0.70936 0.79292 0.53822 0.0
H2571 H 0.65948 0.80377 0.5344 0.0
H2572 H 0.67497 0.82837 0.5083 0.0
H2573 H 0.70519 0.84146 0.38784 0.0
H2574 H 0.72235 0.8471 0.4215 0.0
H2575 H 0.66882 0.83691 0.44862 0.0
H2576 H 0.65096 0.82927 0.41469 0.0
H2577 H 0.68548 0.82135 0.4704 0.0
H2578 H 0.71056 0.88776 0.44336 0.0
H2579 H 0.72492 0.91305 0.41762 0.0
H2580 H 0.77848 0.90866 0.42248 0.0
H2581 H 0.76432 0.88307 0.44802 0.0
C2582 C 0.74619 0.87348 0.5529 0.0
C2583 C 0.76324 0.8712 0.55501 0.0
C2584 C 0.73536 0.86913 0.5339 0.0
C2585 C 0.74165 0.86284 0.51673 0.0
C2586 C 0.75892 0.86102 0.51873 0.0
C2587 C 0.76951 0.86494 0.53778 0.0
C2588 C 0.72995 0.85769 0.49671 0.0
C2589 C 0.73817 0.87134 0.48153 0.0
C2590 C 0.71061 0.83969 0.49278 0.0
C2591 C 0.70124 0.82479 0.50835 0.0
C2592 C 0.71077 0.81455 0.51685 0.0
C2593 C 0.70193 0.80071 0.53168 0.0
C2594 C 0.68347 0.79686 0.53802 0.0
C2595 C 0.67379 0.8068 0.5295 0.0
C2596 C 0.68259 0.82068 0.51468 0.0
C2597 C 0.69687 0.83977 0.40093 0.0
C2598 C 0.67666 0.83465 0.39863 0.0
C2599 C 0.70683 0.84342 0.42024 0.0
C2600 C 0.6971 0.84305 0.43769 0.0
C2601 C 0.67671 0.83742 0.43542 0.0
C2602 C 0.66654 0.83311 0.41604 0.0
C2603 C 0.70835 0.84899 0.45819 0.0
C2604 C 0.70006 0.83553 0.47357 0.0
C2605 C 0.72747 0.86748 0.46244 0.0
C2606 C 0.73631 0.88336 0.44751 0.0
C2607 C 0.72538 0.89213 0.43889 0.0
C2608 C 0.73347 0.90651 0.42433 0.0
C2609 C 0.75258 0.91242 0.41839 0.0
C2610 C 0.76367 0.90404 0.42708 0.0
C2611 C 0.75563 0.88962 0.44163 0.0
H2612 H 0.7588 0.92352 0.40708 0.0
H2613 H 0.67664 0.78613 0.54951 0.0
H2614 H 0.1484 0.91596 0.53833 0.0
H2615 H 0.15369 0.9051 0.5049 0.0
H2616 H 0.1257 0.84076 0.51976 0.0
H2617 H 0.12103 0.85171 0.55372 0.0
H2618 H 0.15941 0.85119 0.5021 0.0
H2619 H 0.09994 0.85365 0.48395 0.0
H2620 H 0.07771 0.86878 0.48491 0.0
H2621 H 0.12221 0.92399 0.45995 0.0
H2622 H 0.14479 0.9093 0.45922 0.0
H2623 H 0.15823 0.82114 0.39461 0.0
H2624 H 0.14462 0.82381 0.42671 0.0
H2625 H 0.18609 0.89061 0.43405 0.0
H2626 H 0.19979 0.88813 0.40204 0.0
H2627 H 0.14005 0.87306 0.43908 0.0
H2628 H 0.20037 0.86942 0.46053 0.0
H2629 H 0.2208 0.85218 0.45994 0.0
H2630 H 0.17164 0.79607 0.47886 0.0
H2631 H 0.15082 0.81292 0.47926 0.0
C2632 C 0.14345 0.89951 0.53457 0.0
C2633 C 0.13437 0.88472 0.54875 0.0
C2634 C 0.14625 0.89326 0.51532 0.0
C2635 C 0.13983 0.87205 0.50969 0.0
C2636 C 0.13067 0.85719 0.52374 0.0
C2637 C 0.12788 0.86345 0.54308 0.0
C2638 C 0.14356 0.8658 0.4894 0.0
C2639 C 0.15486 0.85566 0.4883 0.0
C2640 C 0.13763 0.87155 0.47134 0.0
C2641 C 0.124 0.88033 0.4714 0.0
C2642 C 0.10497 0.86902 0.47869 0.0
C2643 C 0.09233 0.87754 0.47925 0.0
C2644 C 0.09857 0.89737 0.47258 0.0
C2645 C 0.1174 0.90864 0.46515 0.0
C2646 C 0.13008 0.90018 0.46455 0.0
C2647 C 0.16437 0.8364 0.40308 0.0
C2648 C 0.18 0.85445 0.39591 0.0
C2649 C 0.15659 0.83789 0.42132 0.0
C2650 C 0.16424 0.85747 0.4325 0.0
C2651 C 0.17983 0.87548 0.42536 0.0
C2652 C 0.18776 0.87398 0.40726 0.0
C2653 C 0.15653 0.85928 0.45204 0.0
C2654 C 0.14441 0.86847 0.45291 0.0
C2655 C 0.16145 0.85237 0.46983 0.0
C2656 C 0.17397 0.84231 0.46965 0.0
C2657 C 0.19385 0.85333 0.46435 0.0
C2658 C 0.20552 0.84365 0.4641 0.0
C2659 C 0.1975 0.82301 0.46928 0.0
C2660 C 0.17781 0.81204 0.4748 0.0
C2661 C 0.16608 0.82164 0.47504 0.0
H2662 H 0.20655 0.81555 0.46909 0.0
H2663 H 0.08878 0.90396 0.47305 0.0
H2664 H 0.55643 0.76913 0.14472 0.0
H2665 H 0.57549 0.78222 0.17834 0.0
H2666 H 0.62468 0.83248 0.15172 0.0
H2667 H 0.60535 0.8198 0.11813 0.0
H2668 H 0.63271 0.80368 0.1774 0.0
H2669 H 0.60437 0.84869 0.17753 0.0
H2670 H 0.57737 0.85735 0.17413 0.0
H2671 H 0.54911 0.81985 0.22274 0.0
H2672 H 0.57573 0.81056 0.22615 0.0
H2673 H 0.69021 0.84529 0.27282 0.0
H2674 H 0.67443 0.84334 0.23896 0.0
H2675 H 0.61573 0.80839 0.26079 0.0
H2676 H 0.63147 0.81108 0.29468 0.0
H2677 H 0.61474 0.83369 0.23611 0.0
H2678 H 0.63854 0.78445 0.23355 0.0
H2679 H 0.66366 0.77311 0.23723 0.0
H2680 H 0.69796 0.81499 0.1937 0.0
H2681 H 0.67315 0.82677 0.18996 0.0
C2682 C 0.57122 0.78311 0.14615 0.0
C2683 C 0.57949 0.79352 0.12898 0.0
C2684 C 0.58202 0.79058 0.16529 0.0
C2685 C 0.6014 0.80833 0.16744 0.0
C2686 C 0.60968 0.81882 0.15031 0.0
C2687 C 0.59867 0.81163 0.13123 0.0
C2688 C 0.6134 0.81498 0.18741 0.0
C2689 C 0.62909 0.81064 0.19018 0.0
C2690 C 0.60816 0.82343 0.20411 0.0
C2691 C 0.59194 0.82871 0.20191 0.0
C2692 C 0.59226 0.84203 0.1873 0.0
C2693 C 0.57705 0.84711 0.18541 0.0
C2694 C 0.5615 0.8391 0.19816 0.0
C2695 C 0.56114 0.826 0.21284 0.0
C2696 C 0.57628 0.82082 0.21475 0.0
C2697 C 0.67396 0.83737 0.27036 0.0
C2698 C 0.66204 0.82821 0.28627 0.0
C2699 C 0.66494 0.83617 0.25101 0.0
C2700 C 0.64385 0.82535 0.24717 0.0
C2701 C 0.63201 0.8168 0.2633 0.0
C2702 C 0.64101 0.81828 0.28267 0.0
C2703 C 0.63399 0.82214 0.22629 0.0
C2704 C 0.6186 0.827 0.22332 0.0
C2705 C 0.63921 0.81374 0.20945 0.0
C2706 C 0.65413 0.80667 0.21166 0.0
C2707 C 0.65152 0.79135 0.22488 0.0
C2708 C 0.66569 0.78483 0.22696 0.0
C2709 C 0.68243 0.79337 0.21576 0.0
C2710 C 0.68501 0.80842 0.20241 0.0
C2711 C 0.6709 0.81502 0.20029 0.0
H2712 H 0.69338 0.7883 0.21739 0.0
H2713 H 0.54978 0.8431 0.19669 0.0
H2714 H 0.23969 0.83294 0.13752 0.0
H2715 H 0.22978 0.84133 0.16961 0.0
H2716 H 0.20344 0.77661 0.18266 0.0
H2717 H 0.21398 0.76816 0.15107 0.0
H2718 H 0.17777 0.79423 0.18581 0.0
H2719 H 0.24553 0.81052 0.20996 0.0
H2720 H 0.28238 0.82873 0.20887 0.0
H2721 H 0.28518 0.88849 0.21444 0.0
H2722 H 0.24843 0.87066 0.2159 0.0
H2723 H 0.15328 0.79766 0.28565 0.0
H2724 H 0.16676 0.79244 0.25472 0.0
H2725 H 0.20427 0.85973 0.25424 0.0
H2726 H 0.19142 0.86488 0.28591 0.0
H2727 H 0.22474 0.84282 0.2436 0.0
H2728 H 0.15911 0.82918 0.22171 0.0
H2729 H 0.12233 0.81326 0.22156 0.0
H2730 H 0.11465 0.75183 0.20841 0.0
H2731 H 0.15142 0.76735 0.20874 0.0
C2732 C 0.23214 0.82053 0.14737 0.0
C2733 C 0.22762 0.79983 0.14162 0.0
C2734 C 0.22642 0.82537 0.16566 0.0
C2735 C 0.21594 0.80959 0.17848 0.0
C2736 C 0.21148 0.78898 0.17291 0.0
C2737 C 0.21739 0.78417 0.15476 0.0
C2738 C 0.20878 0.8143 0.19728 0.0
C2739 C 0.18799 0.80465 0.19858 0.0
C2740 C 0.22216 0.82857 0.2135 0.0
C2741 C 0.24426 0.83927 0.21289 0.0
C2742 C 0.25403 0.82755 0.21093 0.0
C2743 C 0.27491 0.83781 0.21035 0.0
C2744 C 0.28614 0.85977 0.21168 0.0
C2745 C 0.27652 0.87151 0.21362 0.0
C2746 C 0.25568 0.86134 0.2144 0.0
C2747 C 0.16434 0.81131 0.27886 0.0
C2748 C 0.17123 0.83167 0.28794 0.0
C2749 C 0.172 0.80834 0.26115 0.0
C2750 C 0.18618 0.8257 0.25179 0.0
C2751 C 0.19326 0.84609 0.26107 0.0
C2752 C 0.1859 0.84904 0.27908 0.0
C2753 C 0.19356 0.82245 0.23239 0.0
C2754 C 0.2144 0.83243 0.23088 0.0
C2755 C 0.18018 0.80883 0.21572 0.0
C2756 C 0.15804 0.79942 0.21542 0.0
C2757 C 0.14959 0.81226 0.21891 0.0
C2758 C 0.12874 0.80331 0.21878 0.0
C2759 C 0.11617 0.78155 0.21502 0.0
C2760 C 0.12441 0.76869 0.21134 0.0
C2761 C 0.14525 0.77755 0.21147 0.0
H2762 H 0.10003 0.77465 0.21493 0.0
H2763 H 0.3023 0.86769 0.21118 0.0
H2764 H 0.23102 0.41343 0.14681 0.0
H2765 H 0.22488 0.39674 0.17855 0.0
H2766 H 0.19598 0.43103 0.19834 0.0
H2767 H 0.20338 0.44894 0.16736 0.0
H2768 H 0.2161 0.42837 0.22932 0.0
H2769 H 0.16911 0.37889 0.17547 0.0
H2770 H 0.15873 0.35776 0.14229 0.0
H2771 H 0.19077 0.32674 0.161 0.0
H2772 H 0.20156 0.34791 0.19422 0.0
H2773 H 0.14335 0.35578 0.29059 0.0
H2774 H 0.16048 0.37749 0.2634 0.0
H2775 H 0.20016 0.35207 0.26268 0.0
H2776 H 0.1836 0.3309 0.29062 0.0
H2777 H 0.17849 0.35034 0.22343 0.0
H2778 H 0.21923 0.39743 0.28126 0.0
H2779 H 0.22691 0.41891 0.31389 0.0
H2780 H 0.20319 0.45479 0.28729 0.0
H2781 H 0.19487 0.43328 0.25466 0.0
C2782 C 0.22379 0.41783 0.1581 0.0
C2783 C 0.21746 0.43237 0.15435 0.0
C2784 C 0.22006 0.40805 0.17616 0.0
C2785 C 0.20953 0.41223 0.19064 0.0
C2786 C 0.20399 0.4274 0.18734 0.0
C2787 C 0.20801 0.43744 0.16946 0.0
C2788 C 0.20343 0.40021 0.20879 0.0
C2789 C 0.20774 0.41131 0.22803 0.0
C2790 C 0.19284 0.37792 0.20714 0.0
C2791 C 0.18634 0.36515 0.18722 0.0
C2792 C 0.17407 0.36768 0.17244 0.0
C2793 C 0.16809 0.35568 0.15364 0.0
C2794 C 0.17414 0.34097 0.14951 0.0
C2795 C 0.18614 0.33818 0.1642 0.0
C2796 C 0.19218 0.35016 0.18302 0.0
C2797 C 0.1557 0.35479 0.28458 0.0
C2798 C 0.16218 0.34166 0.29252 0.0
C2799 C 0.16551 0.36728 0.26918 0.0
C2800 C 0.18154 0.36637 0.26112 0.0
C2801 C 0.18785 0.353 0.26882 0.0
C2802 C 0.17839 0.34093 0.28465 0.0
C2803 C 0.19085 0.37852 0.24385 0.0
C2804 C 0.18707 0.36741 0.22475 0.0
C2805 C 0.20145 0.40078 0.24562 0.0
C2806 C 0.20607 0.41343 0.2655 0.0
C2807 C 0.21531 0.40964 0.28242 0.0
C2808 C 0.21988 0.4219 0.30092 0.0
C2809 C 0.21551 0.43814 0.30268 0.0
C2810 C 0.20656 0.44219 0.28593 0.0
C2811 C 0.20183 0.4299 0.26744 0.0
H2812 H 0.21907 0.4476 0.31702 0.0
H2813 H 0.1695 0.33169 0.13495 0.0
H2814 H 0.80484 0.60519 0.88464 0.0
H2815 H 0.81569 0.62477 0.85455 0.0
H2816 H 0.76161 0.57709 0.81931 0.0
H2817 H 0.75041 0.5577 0.84955 0.0
H2818 H 0.80692 0.59448 0.80452 0.0
H2819 H 0.75566 0.61097 0.82401 0.0
H2820 H 0.73975 0.62252 0.84907 0.0
H2821 H 0.79519 0.681 0.86315 0.0
H2822 H 0.81151 0.66962 0.83838 0.0
H2823 H 0.80661 0.64373 0.71529 0.0
H2824 H 0.79351 0.62655 0.74591 0.0
H2825 H 0.84613 0.67575 0.78185 0.0
H2826 H 0.85937 0.69291 0.75086 0.0
H2827 H 0.80125 0.65805 0.79639 0.0
H2828 H 0.85341 0.64261 0.78093 0.0
H2829 H 0.87191 0.63329 0.75716 0.0
H2830 H 0.81778 0.57525 0.73697 0.0
H2831 H 0.79891 0.58443 0.76045 0.0
C2832 C 0.79532 0.59892 0.87045 0.0
C2833 C 0.77683 0.58001 0.86931 0.0
C2834 C 0.80148 0.61008 0.85336 0.0
C2835 C 0.78941 0.60229 0.83484 0.0
C2836 C 0.77108 0.58326 0.83354 0.0
C2837 C 0.7647 0.5723 0.85075 0.0
C2838 C 0.79606 0.61422 0.8169 0.0
C2839 C 0.80542 0.60818 0.80258 0.0
C2840 C 0.79463 0.63243 0.81479 0.0
C2841 C 0.78485 0.63934 0.82956 0.0
C2842 C 0.76451 0.62619 0.83262 0.0
C2843 C 0.7554 0.63273 0.84673 0.0
C2844 C 0.76647 0.65245 0.85775 0.0
C2845 C 0.78665 0.66571 0.85464 0.0
C2846 C 0.79582 0.65923 0.84056 0.0
C2847 C 0.81502 0.65123 0.72969 0.0
C2848 C 0.83372 0.66979 0.73073 0.0
C2849 C 0.80765 0.64133 0.74718 0.0
C2850 C 0.81882 0.65002 0.76606 0.0
C2851 C 0.83725 0.66897 0.76735 0.0
C2852 C 0.8448 0.67866 0.74972 0.0
C2853 C 0.81194 0.63819 0.78401 0.0
C2854 C 0.80261 0.64426 0.7983 0.0
C2855 C 0.81359 0.62015 0.78626 0.0
C2856 C 0.82475 0.61426 0.77232 0.0
C2857 C 0.84544 0.62793 0.77131 0.0
C2858 C 0.85599 0.62267 0.75793 0.0
C2859 C 0.84603 0.60371 0.74557 0.0
C2860 C 0.82548 0.58994 0.74658 0.0
C2861 C 0.81484 0.59515 0.75994 0.0
H2862 H 0.85432 0.59974 0.7353 0.0
H2863 H 0.7594 0.65749 0.86866 0.0
H2864 H 0.41114 0.21682 0.8958 0.0
H2865 H 0.39414 0.20925 0.86175 0.0
H2866 H 0.42092 0.17214 0.8442 0.0
H2867 H 0.43922 0.18097 0.87785 0.0
H2868 H 0.42212 0.19404 0.8149 0.0
H2869 H 0.37001 0.14952 0.85437 0.0
H2870 H 0.3487 0.13993 0.8829 0.0
H2871 H 0.32749 0.18147 0.866 0.0
H2872 H 0.34889 0.19154 0.83753 0.0
H2873 H 0.34554 0.14351 0.72707 0.0
H2874 H 0.3638 0.14756 0.7602 0.0
H2875 H 0.36534 0.20603 0.7753 0.0
H2876 H 0.34843 0.20281 0.7418 0.0
H2877 H 0.34924 0.16987 0.80483 0.0
H2878 H 0.40425 0.21488 0.76556 0.0
H2879 H 0.42582 0.22263 0.73735 0.0
H2880 H 0.44102 0.17647 0.75416 0.0
H2881 H 0.41905 0.16794 0.78209 0.0
C2882 C 0.41368 0.20728 0.88467 0.0
C2883 C 0.42661 0.19952 0.8897 0.0
C2884 C 0.40365 0.20266 0.86523 0.0
C2885 C 0.40589 0.18975 0.85044 0.0
C2886 C 0.41882 0.18202 0.85535 0.0
C2887 C 0.42911 0.1869 0.87473 0.0
C2888 C 0.39505 0.18474 0.82978 0.0
C2889 C 0.40611 0.1884 0.81274 0.0
C2890 C 0.37415 0.17746 0.82683 0.0
C2891 C 0.36119 0.1714 0.8439 0.0
C2892 C 0.36091 0.15672 0.85682 0.0
C2893 C 0.3488 0.15118 0.87297 0.0
C2894 C 0.33678 0.16012 0.87628 0.0
C2895 C 0.33682 0.17457 0.86342 0.0
C2896 C 0.34892 0.18018 0.84726 0.0
C2897 C 0.35032 0.15749 0.73724 0.0
C2898 C 0.34615 0.17315 0.73165 0.0
C2899 C 0.36051 0.15966 0.7562 0.0
C2900 C 0.36608 0.17722 0.77 0.0
C2901 C 0.36128 0.19247 0.76473 0.0
C2902 C 0.35158 0.19057 0.74564 0.0
C2903 C 0.3764 0.17951 0.79025 0.0
C2904 C 0.3652 0.17528 0.80713 0.0
C2905 C 0.39704 0.18586 0.79299 0.0
C2906 C 0.40964 0.19045 0.77568 0.0
C2907 C 0.41179 0.20601 0.76295 0.0
C2908 C 0.42411 0.21055 0.74701 0.0
C2909 C 0.4345 0.19978 0.74372 0.0
C2910 C 0.43272 0.18456 0.7565 0.0
C2911 C 0.42031 0.17984 0.77237 0.0
H2912 H 0.44406 0.20338 0.73141 0.0
H2913 H 0.32742 0.15582 0.8888 0.0
H2914 H 0.77935 0.1878 0.87833 0.0
H2915 H 0.78476 0.1781 0.84441 0.0
H2916 H 0.81593 0.24346 0.83267 0.0
H2917 H 0.80927 0.25313 0.86594 0.0
H2918 H 0.79578 0.22111 0.79931 0.0
H2919 H 0.84103 0.21731 0.84968 0.0
H2920 H 0.85041 0.20551 0.88046 0.0
H2921 H 0.81645 0.1414 0.85433 0.0
H2922 H 0.80665 0.15281 0.82348 0.0
H2923 H 0.86459 0.22285 0.73081 0.0
H2924 H 0.84926 0.22688 0.761 0.0
H2925 H 0.80897 0.1598 0.75674 0.0
H2926 H 0.824 0.15569 0.72623 0.0
H2927 H 0.83057 0.17974 0.79668 0.0
H2928 H 0.78887 0.18591 0.74415 0.0
H2929 H 0.78311 0.19994 0.71308 0.0
H2930 H 0.81427 0.2624 0.7435 0.0
H2931 H 0.82035 0.24872 0.77471 0.0
C2932 C 0.78691 0.20009 0.86838 0.0
C2933 C 0.79415 0.22131 0.87508 0.0
C2934 C 0.79022 0.19453 0.84904 0.0
C2935 C 0.80123 0.2101 0.83615 0.0
C2936 C 0.80756 0.23116 0.84238 0.0
C2937 C 0.80397 0.23669 0.86156 0.0
C2938 C 0.80718 0.2047 0.81672 0.0
C2939 C 0.80346 0.21215 0.7988 0.0
C2940 C 0.81701 0.19277 0.81589 0.0
C2941 C 0.82292 0.18588 0.83439 0.0
C2942 C 0.83545 0.20068 0.85057 0.0
C2943 C 0.84085 0.19407 0.86801 0.0
C2944 C 0.83398 0.17271 0.86938 0.0
C2945 C 0.82172 0.15793 0.85327 0.0
C2946 C 0.81625 0.16446 0.8358 0.0
C2947 C 0.85249 0.20898 0.73637 0.0
C2948 C 0.84544 0.18895 0.72634 0.0
C2949 C 0.84373 0.21132 0.75349 0.0
C2950 C 0.82802 0.19366 0.76101 0.0
C2951 C 0.82108 0.1736 0.75111 0.0
C2952 C 0.82962 0.17128 0.73375 0.0
C2953 C 0.81927 0.19626 0.77952 0.0
C2954 C 0.82258 0.18839 0.79722 0.0
C2955 C 0.80941 0.20809 0.78021 0.0
C2956 C 0.80522 0.21631 0.7617 0.0
C2957 C 0.79457 0.20265 0.74417 0.0
C2958 C 0.79121 0.21053 0.72655 0.0
C2959 C 0.79832 0.23205 0.72632 0.0
C2960 C 0.80874 0.24572 0.74373 0.0
C2961 C 0.81212 0.2379 0.76139 0.0
H2962 H 0.79577 0.23815 0.71264 0.0
H2963 H 0.83818 0.16762 0.8829 0.0
H2964 H 0.26423 0.10879 0.4609 0.0
H2965 H 0.28149 0.11902 0.49513 0.0
H2966 H 0.24703 0.14813 0.51146 0.0
H2967 H 0.22863 0.13681 0.47764 0.0
H2968 H 0.29829 0.1707 0.51947 0.0
H2969 H 0.23091 0.11653 0.53409 0.0
H2970 H 0.2002 0.08158 0.52877 0.0
H2971 H 0.23584 0.05196 0.53544 0.0
H2972 H 0.26679 0.08677 0.54044 0.0
H2973 H 0.33382 0.18727 0.62578 0.0
H2974 H 0.31449 0.1828 0.59331 0.0
H2975 H 0.31155 0.12346 0.5785 0.0
H2976 H 0.32971 0.12733 0.61123 0.0
H2977 H 0.27663 0.1187 0.57066 0.0
H2978 H 0.34344 0.17074 0.5565 0.0
H2979 H 0.3752 0.20475 0.56208 0.0
H2980 H 0.34263 0.23756 0.5543 0.0
H2981 H 0.31064 0.20372 0.54892 0.0
C2982 C 0.25999 0.11704 0.47178 0.0
C2983 C 0.24481 0.12175 0.46641 0.0
C2984 C 0.27006 0.12308 0.49128 0.0
C2985 C 0.26544 0.13424 0.50572 0.0
C2986 C 0.25076 0.13951 0.50043 0.0
C2987 C 0.24038 0.13313 0.48102 0.0
C2988 C 0.27582 0.13992 0.52644 0.0
C2989 C 0.29342 0.15953 0.53088 0.0
C2990 C 0.26965 0.12513 0.541 0.0
C2991 C 0.25116 0.10422 0.53722 0.0
C2992 C 0.23221 0.10256 0.53403 0.0
C2993 C 0.21476 0.08278 0.53118 0.0
C2994 C 0.21607 0.06455 0.53165 0.0
C2995 C 0.23484 0.06608 0.53497 0.0
C2996 C 0.25234 0.08582 0.53778 0.0
C2997 C 0.32888 0.17324 0.61559 0.0
C2998 C 0.33291 0.15747 0.62112 0.0
C2999 C 0.31806 0.17081 0.59696 0.0
C3000 C 0.31161 0.15282 0.58336 0.0
C3001 C 0.31623 0.13742 0.58874 0.0
C3002 C 0.32672 0.13969 0.60741 0.0
C3003 C 0.29942 0.14937 0.56384 0.0
C3004 C 0.28145 0.13008 0.5595 0.0
C3005 C 0.30543 0.1644 0.54937 0.0
C3006 C 0.32464 0.18472 0.55254 0.0
C3007 C 0.34304 0.18522 0.55613 0.0
C3008 C 0.36109 0.20446 0.55923 0.0
C3009 C 0.36093 0.2233 0.55861 0.0
C3010 C 0.34273 0.22295 0.55482 0.0
C3011 C 0.32464 0.20375 0.55173 0.0
H3012 H 0.37491 0.23818 0.56101 0.0
H3013 H 0.20254 0.04926 0.52952 0.0
H3014 H 0.85105 0.13339 0.44872 0.0
H3015 H 0.84016 0.1413 0.48063 0.0
H3016 H 0.89601 0.15424 0.51264 0.0
H3017 H 0.90709 0.14676 0.4808 0.0
H3018 H 0.85866 0.12589 0.53088 0.0
H3019 H 0.89324 0.1938 0.50323 0.0
H3020 H 0.89877 0.21778 0.47657 0.0
H3021 H 0.8383 0.20585 0.47796 0.0
H3022 H 0.83233 0.18154 0.50444 0.0
H3023 H 0.86556 0.17229 0.62565 0.0
H3024 H 0.87275 0.16701 0.59138 0.0
H3025 H 0.8231 0.17352 0.5674 0.0
H3026 H 0.817 0.18088 0.60221 0.0
H3027 H 0.85247 0.18942 0.54316 0.0
H3028 H 0.818 0.12455 0.57262 0.0
H3029 H 0.81135 0.10041 0.59937 0.0
H3030 H 0.86836 0.10432 0.59378 0.0
H3031 H 0.87554 0.12878 0.56724 0.0
C3032 C 0.86095 0.13792 0.4626 0.0
C3033 C 0.87992 0.13956 0.46236 0.0
C3034 C 0.85475 0.14245 0.48074 0.0
C3035 C 0.86731 0.14835 0.49892 0.0
C3036 C 0.88613 0.1497 0.49874 0.0
C3037 C 0.89247 0.14555 0.48058 0.0
C3038 C 0.86099 0.15323 0.51821 0.0
C3039 C 0.8574 0.13982 0.53366 0.0
C3040 C 0.85864 0.17098 0.52145 0.0
C3041 C 0.86226 0.18566 0.50562 0.0
C3042 C 0.88106 0.19613 0.49771 0.0
C3043 C 0.88429 0.20982 0.48266 0.0
C3044 C 0.86887 0.21328 0.47552 0.0
C3045 C 0.85022 0.20312 0.48347 0.0
C3046 C 0.84691 0.18939 0.4985 0.0
C3047 C 0.85671 0.17356 0.61317 0.0
C3048 C 0.84096 0.1774 0.61667 0.0
C3049 C 0.86054 0.17003 0.5935 0.0
C3050 C 0.84807 0.16918 0.57679 0.0
C3051 C 0.83281 0.17391 0.58009 0.0
C3052 C 0.82932 0.17809 0.59994 0.0
C3053 C 0.85063 0.16237 0.55616 0.0
C3054 C 0.85343 0.17532 0.54039 0.0
C3055 C 0.8519 0.14392 0.55249 0.0
C3056 C 0.84735 0.12861 0.56798 0.0
C3057 C 0.82916 0.12031 0.57713 0.0
C3058 C 0.8253 0.10658 0.59227 0.0
C3059 C 0.83943 0.10085 0.59829 0.0
C3060 C 0.85742 0.10877 0.5891 0.0
C3061 C 0.86138 0.12255 0.57398 0.0
H3062 H 0.83644 0.09027 0.61006 0.0
H3063 H 0.8714 0.22389 0.46387 0.0
H3064 H 0.84987 0.74115 0.47451 0.0
H3065 H 0.8434 0.7239 0.5059 0.0
H3066 H 0.90603 0.76233 0.52788 0.0
H3067 H 0.91261 0.78059 0.49686 0.0
H3068 H 0.8851 0.71479 0.53157 0.0
H3069 H 0.88069 0.77697 0.54857 0.0
H3070 H 0.86891 0.80187 0.54188 0.0
H3071 H 0.80758 0.75219 0.54138 0.0
H3072 H 0.81897 0.72693 0.54779 0.0
H3073 H 0.86109 0.67579 0.62967 0.0
H3074 H 0.87604 0.69739 0.60164 0.0
H3075 H 0.81749 0.68661 0.57969 0.0
H3076 H 0.80315 0.66701 0.60866 0.0
H3077 H 0.84191 0.72492 0.57848 0.0
H3078 H 0.84388 0.6621 0.55697 0.0
H3079 H 0.85326 0.63485 0.56063 0.0
H3080 H 0.91584 0.68232 0.56705 0.0
H3081 H 0.90681 0.70987 0.56364 0.0
C3082 C 0.86228 0.74624 0.48607 0.0
C3083 C 0.88173 0.76252 0.48319 0.0
C3084 C 0.85857 0.73618 0.50392 0.0
C3085 C 0.87423 0.74194 0.51915 0.0
C3086 C 0.89378 0.75767 0.5162 0.0
C3087 C 0.89749 0.76801 0.49843 0.0
C3088 C 0.86978 0.73177 0.53834 0.0
C3089 C 0.87596 0.7172 0.5421 0.0
C3090 C 0.85754 0.73471 0.55171 0.0
C3091 C 0.85069 0.75002 0.54844 0.0
C3092 C 0.86469 0.77133 0.5469 0.0
C3093 C 0.85808 0.78551 0.54318 0.0
C3094 C 0.83751 0.77857 0.54106 0.0
C3095 C 0.82351 0.75751 0.54294 0.0
C3096 C 0.83003 0.74327 0.54665 0.0
C3097 C 0.85158 0.6784 0.61899 0.0
C3098 C 0.83117 0.6704 0.62168 0.0
C3099 C 0.86003 0.69041 0.60276 0.0
C3100 C 0.84793 0.69372 0.58845 0.0
C3101 C 0.82726 0.68462 0.59062 0.0
C3102 C 0.81901 0.67323 0.60711 0.0
C3103 C 0.85653 0.70713 0.57152 0.0
C3104 C 0.85123 0.72251 0.5682 0.0
C3105 C 0.86923 0.70458 0.55834 0.0
C3106 C 0.87467 0.68804 0.56026 0.0
C3107 C 0.85963 0.66672 0.55928 0.0
C3108 C 0.86489 0.65123 0.5613 0.0
C3109 C 0.88513 0.65686 0.56413 0.0
C3110 C 0.90017 0.67799 0.56489 0.0
C3111 C 0.89499 0.69354 0.5629 0.0
H3112 H 0.88916 0.64484 0.5657 0.0
H3113 H 0.8324 0.78949 0.53792 0.0
loop_
_geom_bond_atom_site_label_1
_geom_bond_atom_site_label_2
_geom_bond_distance
_geom_bond_site_symmetry_2
_ccdc_geom_bond_type
H0 C7 0.929 . S
H1 C10 0.930 . S
H2 C12 0.929 . S
H3 C4 0.969 . S
C4 H3 0.969 . S
C4 O5 1.550 . S
C4 H6 0.973 . S
O5 C4 1.550 . S
O5 C11 1.412 . S
H6 C4 0.973 . S
C7 H0 0.929 . S
C7 C8 1.400 . S
C7 C9 1.364 . S
C8 C7 1.400 . S
C8 C12 1.377 . S
C9 C7 1.364 . S
C9 C10 1.374 . S
C10 H1 0.930 . S
C10 C9 1.374 . S
C10 C11 1.383 . S
C11 O5 1.412 . S
C11 C10 1.383 . S
C11 C12 1.394 . S
C12 H2 0.929 . S
C12 C8 1.377 . S
C12 C11 1.394 . S
H13 C20 0.929 . S
H14 C23 0.930 . S
H15 C25 0.929 . S
H16 C17 0.969 . S
C17 H16 0.969 . S
C17 O18 1.550 . S
C17 H19 0.973 . S
O18 C17 1.550 . S
O18 C24 1.412 . S
H19 C17 0.973 . S
C20 H13 0.929 . S
C20 C21 1.400 . S
C20 C22 1.364 . S
C21 C20 1.400 . S
C21 C25 1.377 . S
C22 C20 1.364 . S
C22 C23 1.374 . S
C23 H14 0.930 . S
C23 C22 1.374 . S
C23 C24 1.383 . S
C24 O18 1.412 . S
C24 C23 1.383 . S
C24 C25 1.394 . S
C25 H15 0.929 . S
C25 C21 1.377 . S
C25 C24 1.394 . S
H26 C33 0.929 . S
H27 C36 0.930 . S
H28 C38 0.929 . S
H29 C30 0.969 . S
C30 H29 0.969 . S
C30 O31 1.550 . S
C30 H32 0.973 . S
O31 C30 1.550 . S
O31 C37 1.412 . S
H32 C30 0.973 . S
C33 H26 0.929 . S
C33 C34 1.400 . S
C33 C35 1.364 . S
C34 C33 1.400 . S
C34 C38 1.377 . S
C35 C33 1.364 . S
C35 C36 1.374 . S
C36 H27 0.930 . S
C36 C35 1.374 . S
C36 C37 1.383 . S
C37 O31 1.412 . S
C37 C36 1.383 . S
C37 C38 1.394 . S
C38 H28 0.929 . S
C38 C34 1.377 . S
C38 C37 1.394 . S
H39 C46 0.929 . S
H40 C49 0.930 . S
H41 C51 0.929 . S
H42 C43 0.969 . S
C43 H42 0.969 . S
C43 O44 1.550 . S
C43 H45 0.973 . S
O44 C43 1.550 . S
O44 C50 1.412 . S
H45 C43 0.973 . S
C46 H39 0.929 . S
C46 C47 1.400 . S
C46 C48 1.364 . S
C47 C46 1.400 . S
C47 C51 1.377 . S
C48 C46 1.364 . S
C48 C49 1.374 . S
C49 H40 0.930 . S
C49 C48 1.374 . S
C49 C50 1.383 . S
C50 O44 1.412 . S
C50 C49 1.383 . S
C50 C51 1.394 . S
C51 H41 0.929 . S
C51 C47 1.377 . S
C51 C50 1.394 . S
H52 C59 0.929 . S
H53 C62 0.930 . S
H54 C64 0.929 . S
H55 C56 0.969 . S
C56 H55 0.969 . S
C56 O57 1.550 . S
C56 H58 0.973 . S
O57 C56 1.550 . S
O57 C63 1.412 . S
H58 C56 0.973 . S
C59 H52 0.929 . S
C59 C60 1.400 . S
C59 C61 1.364 . S
C60 C59 1.400 . S
C60 C64 1.377 . S
C61 C59 1.364 . S
C61 C62 1.374 . S
C62 H53 0.930 . S
C62 C61 1.374 . S
C62 C63 1.383 . S
C63 O57 1.412 . S
C63 C62 1.383 . S
C63 C64 1.394 . S
C64 H54 0.929 . S
C64 C60 1.377 . S
C64 C63 1.394 . S
H65 C72 0.929 . S
H66 C75 0.930 . S
H67 C77 0.929 . S
H68 C69 0.969 . S
C69 H68 0.969 . S
C69 O70 1.550 . S
C69 H71 0.973 . S
O70 C69 1.550 . S
O70 C76 1.412 . S
H71 C69 0.973 . S
C72 H65 0.929 . S
C72 C73 1.400 . S
C72 C74 1.364 . S
C73 C72 1.400 . S
C73 C77 1.377 . S
C74 C72 1.364 . S
C74 C75 1.374 . S
C75 H66 0.930 . S
C75 C74 1.374 . S
C75 C76 1.383 . S
C76 O70 1.412 . S
C76 C75 1.383 . S
C76 C77 1.394 . S
C77 H67 0.929 . S
C77 C73 1.377 . S
C77 C76 1.394 . S
H78 C85 0.929 . S
H79 C88 0.930 . S
H80 C90 0.929 . S
H81 C82 0.969 . S
C82 H81 0.969 . S
C82 O83 1.550 . S
C82 H84 0.973 . S
O83 C82 1.550 . S
O83 C89 1.412 . S
H84 C82 0.973 . S
C85 H78 0.929 . S
C85 C86 1.400 . S
C85 C87 1.364 . S
C86 C85 1.400 . S
C86 C90 1.377 . S
C87 C85 1.364 . S
C87 C88 1.374 . S
C88 H79 0.930 . S
C88 C87 1.374 . S
C88 C89 1.383 . S
C89 O83 1.412 . S
C89 C88 1.383 . S
C89 C90 1.394 . S
C90 H80 0.929 . S
C90 C86 1.377 . S
C90 C89 1.394 . S
H91 C98 0.929 . S
H92 C101 0.930 . S
H93 C103 0.929 . S
H94 C95 0.969 . S
C95 H94 0.969 . S
C95 O96 1.550 . S
C95 H97 0.973 . S
O96 C95 1.550 . S
O96 C102 1.412 . S
H97 C95 0.973 . S
C98 H91 0.929 . S
C98 C99 1.400 . S
C98 C100 1.364 . S
C99 C98 1.400 . S
C99 C103 1.377 . S
C100 C98 1.364 . S
C100 C101 1.374 . S
C101 H92 0.930 . S
C101 C100 1.374 . S
C101 C102 1.383 . S
C102 O96 1.412 . S
C102 C101 1.383 . S
C102 C103 1.394 . S
C103 H93 0.929 . S
C103 C99 1.377 . S
C103 C102 1.394 . S
H104 C111 0.929 . S
H105 C114 0.930 . S
H106 C116 0.929 . S
H107 C108 0.969 . S
C108 H107 0.969 . S
C108 O109 1.550 . S
C108 H110 0.973 . S
O109 C108 1.550 . S
O109 C115 1.412 . S
H110 C108 0.973 . S
C111 H104 0.929 . S
C111 C112 1.400 . S
C111 C113 1.364 . S
C112 C111 1.400 . S
C112 C116 1.377 . S
C113 C111 1.364 . S
C113 C114 1.374 . S
C114 H105 0.930 . S
C114 C113 1.374 . S
C114 C115 1.383 . S
C115 O109 1.412 . S
C115 C114 1.383 . S
C115 C116 1.394 . S
C116 H106 0.929 . S
C116 C112 1.377 . S
C116 C115 1.394 . S
H117 C124 0.929 . S
H118 C127 0.930 . S
H119 C129 0.929 . S
H120 C121 0.969 . S
C121 H120 0.969 . S
C121 O122 1.550 . S
C121 H123 0.973 . S
O122 C121 1.550 . S
O122 C128 1.412 . S
H123 C121 0.973 . S
C124 H117 0.929 . S
C124 C125 1.400 . S
C124 C126 1.364 . S
C125 C124 1.400 . S
C125 C129 1.377 . S
C126 C124 1.364 . S
C126 C127 1.374 . S
C127 H118 0.930 . S
C127 C126 1.374 . S
C127 C128 1.383 . S
C128 O122 1.412 . S
C128 C127 1.383 . S
C128 C129 1.394 . S
C129 H119 0.929 . S
C129 C125 1.377 . S
C129 C128 1.394 . S
H130 C137 0.929 . S
H131 C140 0.930 . S
H132 C142 0.929 . S
H133 C134 0.969 . S
C134 H133 0.969 . S
C134 O135 1.550 . S
C134 H136 0.973 . S
O135 C134 1.550 . S
O135 C141 1.412 . S
H136 C134 0.973 . S
C137 H130 0.929 . S
C137 C138 1.400 . S
C137 C139 1.364 . S
C138 C137 1.400 . S
C138 C142 1.377 . S
C139 C137 1.364 . S
C139 C140 1.374 . S
C140 H131 0.930 . S
C140 C139 1.374 . S
C140 C141 1.383 . S
C141 O135 1.412 . S
C141 C140 1.383 . S
C141 C142 1.394 . S
C142 H132 0.929 . S
C142 C138 1.377 . S
C142 C141 1.394 . S
H143 C150 0.929 . S
H144 C153 0.930 . S
H145 C155 0.929 . S
H146 C147 0.969 . S
C147 H146 0.969 . S
C147 O148 1.550 . S
C147 H149 0.973 . S
O148 C147 1.550 . S
O148 C154 1.412 . S
H149 C147 0.973 . S
C150 H143 0.929 . S
C150 C151 1.400 . S
C150 C152 1.364 . S
C151 C150 1.400 . S
C151 C155 1.377 . S
C152 C150 1.364 . S
C152 C153 1.374 . S
C153 H144 0.930 . S
C153 C152 1.374 . S
C153 C154 1.383 . S
C154 O148 1.412 . S
C154 C153 1.383 . S
C154 C155 1.394 . S
C155 H145 0.929 . S
C155 C151 1.377 . S
C155 C154 1.394 . S
H156 C163 0.929 . S
H157 C166 0.930 . S
H158 C168 0.929 . S
H159 C160 0.969 . S
C160 H159 0.969 . S
C160 O161 1.550 . S
C160 H162 0.973 . S
O161 C160 1.550 . S
O161 C167 1.412 . S
H162 C160 0.973 . S
C163 H156 0.929 . S
C163 C164 1.400 . S
C163 C165 1.364 . S
C164 C163 1.400 . S
C164 C168 1.377 . S
C165 C163 1.364 . S
C165 C166 1.374 . S
C166 H157 0.930 . S
C166 C165 1.374 . S
C166 C167 1.383 . S
C167 O161 1.412 . S
C167 C166 1.383 . S
C167 C168 1.394 . S
C168 H158 0.929 . S
C168 C164 1.377 . S
C168 C167 1.394 . S
H169 C176 0.929 . S
H170 C179 0.930 . S
H171 C181 0.929 . S
H172 C173 0.969 . S
C173 H172 0.969 . S
C173 O174 1.550 . S
C173 H175 0.973 . S
O174 C173 1.550 . S
O174 C180 1.412 . S
H175 C173 0.973 . S
C176 H169 0.929 . S
C176 C177 1.400 . S
C176 C178 1.364 . S
C177 C176 1.400 . S
C177 C181 1.377 . S
C178 C176 1.364 . S
C178 C179 1.374 . S
C179 H170 0.930 . S
C179 C178 1.374 . S
C179 C180 1.383 . S
C180 O174 1.412 . S
C180 C179 1.383 . S
C180 C181 1.394 . S
C181 H171 0.929 . S
C181 C177 1.377 . S
C181 C180 1.394 . S
H182 C189 0.929 . S
H183 C192 0.930 . S
H184 C194 0.929 . S
H185 C186 0.969 . S
C186 H185 0.969 . S
C186 O187 1.550 . S
C186 H188 0.973 . S
O187 C186 1.550 . S
O187 C193 1.412 . S
H188 C186 0.973 . S
C189 H182 0.929 . S
C189 C190 1.400 . S
C189 C191 1.364 . S
C190 C189 1.400 . S
C190 C194 1.377 . S
C191 C189 1.364 . S
C191 C192 1.374 . S
C192 H183 0.930 . S
C192 C191 1.374 . S
C192 C193 1.383 . S
C193 O187 1.412 . S
C193 C192 1.383 . S
C193 C194 1.394 . S
C194 H184 0.929 . S
C194 C190 1.377 . S
C194 C193 1.394 . S
H195 C202 0.929 . S
H196 C205 0.930 . S
H197 C207 0.929 . S
H198 C199 0.969 . S
C199 H198 0.969 . S
C199 O200 1.550 . S
C199 H201 0.973 . S
O200 C199 1.550 . S
O200 C206 1.412 . S
H201 C199 0.973 . S
C202 H195 0.929 . S
C202 C203 1.400 . S
C202 C204 1.364 . S
C203 C202 1.400 . S
C203 C207 1.377 . S
C204 C202 1.364 . S
C204 C205 1.374 . S
C205 H196 0.930 . S
C205 C204 1.374 . S
C205 C206 1.383 . S
C206 O200 1.412 . S
C206 C205 1.383 . S
C206 C207 1.394 . S
C207 H197 0.929 . S
C207 C203 1.377 . S
C207 C206 1.394 . S
H208 C215 0.929 . S
H209 C218 0.930 . S
H210 C220 0.929 . S
H211 C212 0.969 . S
C212 H211 0.969 . S
C212 O213 1.550 . S
C212 H214 0.973 . S
O213 C212 1.550 . S
O213 C219 1.412 . S
H214 C212 0.973 . S
C215 H208 0.929 . S
C215 C216 1.400 . S
C215 C217 1.364 . S
C216 C215 1.400 . S
C216 C220 1.377 . S
C217 C215 1.364 . S
C217 C218 1.374 . S
C218 H209 0.930 . S
C218 C217 1.374 . S
C218 C219 1.383 . S
C219 O213 1.412 . S
C219 C218 1.383 . S
C219 C220 1.394 . S
C220 H210 0.929 . S
C220 C216 1.377 . S
C220 C219 1.394 . S
H221 C228 0.929 . S
H222 C231 0.930 . S
H223 C233 0.929 . S
H224 C225 0.969 . S
C225 H224 0.969 . S
C225 O226 1.550 . S
C225 H227 0.973 . S
O226 C225 1.550 . S
O226 C232 1.412 . S
H227 C225 0.973 . S
C228 H221 0.929 . S
C228 C229 1.400 . S
C228 C230 1.364 . S
C229 C228 1.400 . S
C229 C233 1.377 . S
C230 C228 1.364 . S
C230 C231 1.374 . S
C231 H222 0.930 . S
C231 C230 1.374 . S
C231 C232 1.383 . S
C232 O226 1.412 . S
C232 C231 1.383 . S
C232 C233 1.394 . S
C233 H223 0.929 . S
C233 C229 1.377 . S
C233 C232 1.394 . S
Tb234 O237 2.453 . S
Tb234 O238 2.596 1_545 S
Tb234 O239 2.374 1_545 S
Tb234 O247 2.343 1_554 S
Tb234 O249 2.353 . S
Tb234 O251 2.427 . S
Tb234 O252 2.533 . S
C235 O239 1.251 . S
C235 O241 1.236 1_554 S
Tb236 O238 2.343 1_556 S
Tb236 O241 2.360 . S
Tb236 O244 2.427 1_556 S
Tb236 O245 2.513 1_556 S
Tb236 O246 2.453 . S
Tb236 O247 2.596 1_565 S
Tb236 O248 2.372 1_566 S
O237 Tb234 2.453 . S
O237 C253 1.245 1_545 S
O238 Tb234 2.596 1_565 S
O238 Tb236 2.343 1_554 S
O238 C253 1.259 . S
O239 Tb234 2.374 1_565 S
O239 C235 1.251 . S
C240 O244 1.275 . S
C240 O245 1.246 . S
O241 C235 1.236 1_556 S
O241 Tb236 2.360 . S
C242 O246 1.245 1_545 S
C242 O247 1.259 . S
C243 O248 1.254 . S
C243 O249 1.263 . S
O244 Tb236 2.427 1_554 S
O244 C240 1.275 . S
O245 Tb236 2.513 1_554 S
O245 C240 1.246 . S
O246 Tb236 2.453 . S
O246 C242 1.245 1_565 S
O247 Tb234 2.343 1_556 S
O247 Tb236 2.596 1_545 S
O247 C242 1.259 . S
O248 Tb236 2.372 1_544 S
O248 C243 1.254 . S
O249 Tb234 2.353 . S
O249 C243 1.263 . S
C250 O251 1.275 1_556 S
C250 O252 1.239 1_556 S
O251 Tb234 2.427 . S
O251 C250 1.275 1_554 S
O252 Tb234 2.533 . S
O252 C250 1.239 1_554 S
C253 O237 1.245 1_565 S
C253 O238 1.259 . S
Tb254 O257 2.453 . S
Tb254 O258 2.596 1_655 S
Tb254 O259 2.374 1_655 S
Tb254 O267 2.343 1_554 S
Tb254 O269 2.353 . S
Tb254 O271 2.427 1_554 S
Tb254 O272 2.513 1_554 S
C255 O259 1.251 . S
C255 O261 1.263 . S
Tb256 O258 2.343 1_556 S
Tb256 O261 2.353 1_556 S
Tb256 O264 2.427 1_556 S
Tb256 O265 2.513 1_556 S
Tb256 O266 2.453 . S
Tb256 O267 2.596 1_455 S
Tb256 O268 2.383 1_455 S
O257 Tb254 2.453 . S
O257 C273 1.245 1_655 S
O258 Tb254 2.596 1_455 S
O258 Tb256 2.343 1_554 S
O258 C273 1.259 . S
O259 Tb254 2.374 1_455 S
O259 C255 1.251 . S
C260 O264 1.275 . S
C260 O265 1.246 . S
O261 C255 1.263 . S
O261 Tb256 2.353 1_554 S
C262 O266 1.245 1_655 S
C262 O267 1.259 . S
C263 O268 1.240 1_554 S
C263 O269 1.263 . S
O264 Tb256 2.427 1_554 S
O264 C260 1.275 . S
O265 Tb256 2.513 1_554 S
O265 C260 1.246 . S
O266 Tb256 2.453 . S
O266 C262 1.245 1_455 S
O267 Tb254 2.343 1_556 S
O267 Tb256 2.596 1_655 S
O267 C262 1.259 . S
O268 Tb256 2.383 1_655 S
O268 C263 1.240 1_556 S
O269 Tb254 2.353 . S
O269 C263 1.263 . S
C270 O271 1.275 . S
C270 O272 1.246 . S
O271 Tb254 2.427 1_556 S
O271 C270 1.275 . S
O272 Tb254 2.513 1_556 S
O272 C270 1.246 . S
C273 O257 1.245 1_455 S
C273 O258 1.259 . S
Tb274 O277 2.444 1_554 S
Tb274 O278 2.593 1_554 S
Tb274 O279 2.375 . S
Tb274 O287 2.351 . S
Tb274 O289 2.354 . S
Tb274 O291 2.432 . S
Tb274 O292 2.519 . S
C275 O279 1.251 . S
C275 O281 1.263 . S
Tb276 O278 2.343 1_554 S
Tb276 O281 2.353 . S
Tb276 O284 2.427 . S
Tb276 O285 2.539 . S
Tb276 O286 2.453 . S
Tb276 O287 2.596 . S
Tb276 O288 2.374 . S
O277 Tb274 2.444 1_556 S
O277 C293 1.245 . S
O278 Tb274 2.593 1_556 S
O278 Tb276 2.343 1_556 S
O278 C293 1.259 . S
O279 Tb274 2.375 . S
O279 C275 1.251 . S
C280 O284 1.275 1_556 S
C280 O285 1.240 1_556 S
O281 C275 1.263 . S
O281 Tb276 2.353 . S
C282 O286 1.245 . S
C282 O287 1.259 . S
C283 O288 1.250 . S
C283 O289 1.263 . S
O284 Tb276 2.427 . S
O284 C280 1.275 1_554 S
O285 Tb276 2.539 . S
O285 C280 1.240 1_554 S
O286 Tb276 2.453 . S
O286 C282 1.245 . S
O287 Tb274 2.351 . S
O287 Tb276 2.596 . S
O287 C282 1.259 . S
O288 Tb276 2.374 . S
O288 C283 1.250 . S
O289 Tb274 2.354 . S
O289 C283 1.263 . S
C290 O291 1.275 . S
C290 O292 1.246 . S
O291 Tb274 2.432 . S
O291 C290 1.275 . S
O292 Tb274 2.519 . S
O292 C290 1.246 . S
C293 O277 1.245 . S
C293 O278 1.259 . S
Tb294 O297 2.453 . S
Tb294 O298 2.596 . S
Tb294 O299 2.374 . S
Tb294 O307 2.343 . S
Tb294 O309 2.353 . S
Tb294 O311 2.427 . S
Tb294 O312 2.513 . S
C295 O299 1.251 . S
C295 O301 1.263 . S
Tb296 O298 2.343 . S
Tb296 O301 2.353 . S
Tb296 O304 2.427 . S
Tb296 O305 2.513 . S
Tb296 O306 2.453 . S
Tb296 O307 2.596 . S
Tb296 O308 2.374 . S
O297 Tb294 2.453 . S
O297 C313 1.245 . S
O298 Tb294 2.596 . S
O298 Tb296 2.343 . S
O298 C313 1.259 . S
O299 Tb294 2.374 . S
O299 C295 1.251 . S
C300 O304 1.275 . S
C300 O305 1.246 . S
O301 C295 1.263 . S
O301 Tb296 2.353 . S
C302 O306 1.245 . S
C302 O307 1.259 . S
C303 O308 1.250 . S
C303 O309 1.263 . S
O304 Tb296 2.427 . S
O304 C300 1.275 . S
O305 Tb296 2.513 . S
O305 C300 1.246 . S
O306 Tb296 2.453 . S
O306 C302 1.245 . S
O307 Tb294 2.343 . S
O307 Tb296 2.596 . S
O307 C302 1.259 . S
O308 Tb296 2.374 . S
O308 C303 1.250 . S
O309 Tb294 2.353 . S
O309 C303 1.263 . S
C310 O311 1.275 . S
C310 O312 1.246 . S
O311 Tb294 2.427 . S
O311 C310 1.275 . S
O312 Tb294 2.513 . S
O312 C310 1.246 . S
C313 O297 1.245 . S
C313 O298 1.259 . S
Tb314 O317 2.453 . S
Tb314 O318 2.596 . S
Tb314 O319 2.374 . S
Tb314 O327 2.343 . S
Tb314 O329 2.353 . S
Tb314 O331 2.427 . S
Tb314 O332 2.513 . S
C315 O319 1.251 . S
C315 O321 1.263 . S
Tb316 O318 2.343 . S
Tb316 O321 2.353 . S
Tb316 O324 2.427 . S
Tb316 O325 2.513 . S
Tb316 O326 2.453 . S
Tb316 O327 2.596 . S
Tb316 O328 2.374 . S
O317 Tb314 2.453 . S
O317 C333 1.245 . S
O318 Tb314 2.596 . S
O318 Tb316 2.343 . S
O318 C333 1.259 . S
O319 Tb314 2.374 . S
O319 C315 1.251 . S
C320 O324 1.275 . S
C320 O325 1.246 . S
O321 C315 1.263 . S
O321 Tb316 2.353 . S
C322 O326 1.245 . S
C322 O327 1.259 . S
C323 O328 1.250 . S
C323 O329 1.263 . S
O324 Tb316 2.427 . S
O324 C320 1.275 . S
O325 Tb316 2.513 . S
O325 C320 1.246 . S
O326 Tb316 2.453 . S
O326 C322 1.245 . S
O327 Tb314 2.343 . S
O327 Tb316 2.596 . S
O327 C322 1.259 . S
O328 Tb316 2.374 . S
O328 C323 1.250 . S
O329 Tb314 2.353 . S
O329 C323 1.263 . S
C330 O331 1.275 . S
C330 O332 1.246 . S
O331 Tb314 2.427 . S
O331 C330 1.275 . S
O332 Tb314 2.513 . S
O332 C330 1.246 . S
C333 O317 1.245 . S
C333 O318 1.259 . S
Tb334 O337 2.453 . S
Tb334 O338 2.596 . S
Tb334 O339 2.374 . S
Tb334 O347 2.343 . S
Tb334 O349 2.353 . S
Tb334 O351 2.427 . S
Tb334 O352 2.513 . S
C335 O339 1.251 . S
C335 O341 1.263 . S
Tb336 O338 2.343 . S
Tb336 O341 2.353 . S
Tb336 O344 2.427 . S
Tb336 O345 2.513 . S
Tb336 O346 2.453 . S
Tb336 O347 2.596 . S
Tb336 O348 2.374 . S
O337 Tb334 2.453 . S
O337 C353 1.245 . S
O338 Tb334 2.596 . S
O338 Tb336 2.343 . S
O338 C353 1.259 . S
O339 Tb334 2.374 . S
O339 C335 1.251 . S
C340 O344 1.275 . S
C340 O345 1.246 . S
O341 C335 1.263 . S
O341 Tb336 2.353 . S
C342 O346 1.245 . S
C342 O347 1.259 . S
C343 O348 1.250 . S
C343 O349 1.263 . S
O344 Tb336 2.427 . S
O344 C340 1.275 . S
O345 Tb336 2.513 . S
O345 C340 1.246 . S
O346 Tb336 2.453 . S
O346 C342 1.245 . S
O347 Tb334 2.343 . S
O347 Tb336 2.596 . S
O347 C342 1.259 . S
O348 Tb336 2.374 . S
O348 C343 1.250 . S
O349 Tb334 2.353 . S
O349 C343 1.263 . S
C350 O351 1.275 . S
C350 O352 1.246 . S
O351 Tb334 2.427 . S
O351 C350 1.275 . S
O352 Tb334 2.513 . S
O352 C350 1.246 . S
C353 O337 1.245 . S
C353 O338 1.259 . S
Tb354 O357 2.453 . S
Tb354 O358 2.596 . S
Tb354 O359 2.374 . S
Tb354 O367 2.343 . S
Tb354 O369 2.353 . S
Tb354 O371 2.427 . S
Tb354 O372 2.513 . S
C355 O359 1.251 . S
C355 O361 1.263 . S
Tb356 O358 2.343 . S
Tb356 O361 2.353 . S
Tb356 O364 2.427 . S
Tb356 O365 2.513 . S
Tb356 O366 2.453 . S
Tb356 O367 2.596 . S
Tb356 O368 2.374 . S
O357 Tb354 2.453 . S
O357 C373 1.245 . S
O358 Tb354 2.596 . S
O358 Tb356 2.343 . S
O358 C373 1.259 . S
O359 Tb354 2.374 . S
O359 C355 1.251 . S
C360 O364 1.275 . S
C360 O365 1.246 . S
O361 C355 1.263 . S
O361 Tb356 2.353 . S
C362 O366 1.245 . S
C362 O367 1.259 . S
C363 O368 1.250 . S
C363 O369 1.263 . S
O364 Tb356 2.427 . S
O364 C360 1.275 . S
O365 Tb356 2.513 . S
O365 C360 1.246 . S
O366 Tb356 2.453 . S
O366 C362 1.245 . S
O367 Tb354 2.343 . S
O367 Tb356 2.596 . S
O367 C362 1.259 . S
O368 Tb356 2.374 . S
O368 C363 1.250 . S
O369 Tb354 2.353 . S
O369 C363 1.263 . S
C370 O371 1.275 . S
C370 O372 1.246 . S
O371 Tb354 2.427 . S
O371 C370 1.275 . S
O372 Tb354 2.513 . S
O372 C370 1.246 . S
C373 O357 1.245 . S
C373 O358 1.259 . S
Tb374 O377 2.453 . S
Tb374 O378 2.596 . S
Tb374 O379 2.374 . S
Tb374 O387 2.343 . S
Tb374 O389 2.353 . S
Tb374 O391 2.427 . S
Tb374 O392 2.513 . S
C375 O379 1.251 . S
C375 O381 1.263 . S
Tb376 O378 2.343 . S
Tb376 O381 2.353 . S
Tb376 O384 2.427 . S
Tb376 O385 2.513 . S
Tb376 O386 2.453 . S
Tb376 O387 2.596 . S
Tb376 O388 2.374 . S
O377 Tb374 2.453 . S
O377 C393 1.245 . S
O378 Tb374 2.596 . S
O378 Tb376 2.343 . S
O378 C393 1.259 . S
O379 Tb374 2.374 . S
O379 C375 1.251 . S
C380 O384 1.275 . S
C380 O385 1.246 . S
O381 C375 1.263 . S
O381 Tb376 2.353 . S
C382 O386 1.245 . S
C382 O387 1.259 . S
C383 O388 1.250 . S
C383 O389 1.263 . S
O384 Tb376 2.427 . S
O384 C380 1.275 . S
O385 Tb376 2.513 . S
O385 C380 1.246 . S
O386 Tb376 2.453 . S
O386 C382 1.245 . S
O387 Tb374 2.343 . S
O387 Tb376 2.596 . S
O387 C382 1.259 . S
O388 Tb376 2.374 . S
O388 C383 1.250 . S
O389 Tb374 2.353 . S
O389 C383 1.263 . S
C390 O391 1.275 . S
C390 O392 1.246 . S
O391 Tb374 2.427 . S
O391 C390 1.275 . S
O392 Tb374 2.513 . S
O392 C390 1.246 . S
C393 O377 1.245 . S
C393 O378 1.259 . S
Tb394 O397 2.453 . S
Tb394 O398 2.596 . S
Tb394 O399 2.374 . S
Tb394 O407 2.343 . S
Tb394 O409 2.353 . S
Tb394 O411 2.427 . S
Tb394 O412 2.513 . S
C395 O399 1.251 . S
C395 O401 1.263 . S
Tb396 O398 2.343 . S
Tb396 O401 2.353 . S
Tb396 O404 2.427 . S
Tb396 O405 2.513 . S
Tb396 O406 2.453 . S
Tb396 O407 2.596 . S
Tb396 O408 2.374 . S
O397 Tb394 2.453 . S
O397 C413 1.245 . S
O398 Tb394 2.596 . S
O398 Tb396 2.343 . S
O398 C413 1.259 . S
O399 Tb394 2.374 . S
O399 C395 1.251 . S
C400 O404 1.275 . S
C400 O405 1.246 . S
O401 C395 1.263 . S
O401 Tb396 2.353 . S
C402 O406 1.245 . S
C402 O407 1.259 . S
C403 O408 1.250 . S
C403 O409 1.263 . S
O404 Tb396 2.427 . S
O404 C400 1.275 . S
O405 Tb396 2.513 . S
O405 C400 1.246 . S
O406 Tb396 2.453 . S
O406 C402 1.245 . S
O407 Tb394 2.343 . S
O407 Tb396 2.596 . S
O407 C402 1.259 . S
O408 Tb396 2.374 . S
O408 C403 1.250 . S
O409 Tb394 2.353 . S
O409 C403 1.263 . S
C410 O411 1.275 . S
C410 O412 1.246 . S
O411 Tb394 2.427 . S
O411 C410 1.275 . S
O412 Tb394 2.513 . S
O412 C410 1.246 . S
C413 O397 1.245 . S
C413 O398 1.259 . S
H414 C432 0.951 . S
H415 C434 0.951 . S
H416 C436 0.950 . S
H417 C437 0.950 . S
H418 C439 0.950 . S
H419 C442 0.950 . S
H420 C443 0.950 . S
H421 C445 0.950 . S
H422 C446 0.950 . S
H423 C447 0.951 . S
H424 C449 0.951 . S
H425 C451 0.950 . S
H426 C452 0.950 . S
H427 C454 0.950 . S
H428 C457 0.950 . S
H429 C458 0.950 . S
H430 C460 0.950 . S
H431 C461 0.950 . S
C432 H414 0.951 . S
C432 C433 1.366 . S
C432 C434 1.388 . S
C433 C432 1.366 . S
C433 C437 1.385 . S
C434 H415 0.951 . S
C434 C432 1.388 . S
C434 C435 1.366 . S
C435 C434 1.366 . S
C435 C436 1.414 . S
C435 C438 1.499 . S
C436 H416 0.950 . S
C436 C435 1.414 . S
C436 C437 1.374 . S
C437 H417 0.950 . S
C437 C433 1.385 . S
C437 C436 1.374 . S
C438 C435 1.499 . S
C438 C439 1.373 . S
C438 C440 1.389 . S
C439 H418 0.950 . S
C439 C438 1.373 . S
C439 C455 1.377 . S
C440 C438 1.389 . S
C440 C441 1.524 . S
C440 C454 1.377 . S
C441 C440 1.524 . S
C441 C442 1.397 . S
C441 C446 1.363 1_554 S
C442 H419 0.950 . S
C442 C441 1.397 . S
C442 C443 1.334 . S
C443 H420 0.950 . S
C443 C442 1.334 . S
C443 C444 1.287 1_554 S
C444 C443 1.287 1_556 S
C444 C445 1.524 . S
C444 H463 0.913 . S
C445 H421 0.950 . S
C445 C444 1.524 . S
C445 C446 1.415 . S
C446 H422 0.950 . S
C446 C441 1.363 1_556 S
C446 C445 1.415 . S
C447 H423 0.951 . S
C447 C448 1.366 . S
C447 C449 1.388 . S
C448 C447 1.366 . S
C448 C452 1.385 . S
C449 H424 0.951 . S
C449 C447 1.388 . S
C449 C450 1.366 . S
C450 C449 1.366 . S
C450 C451 1.414 . S
C450 C453 1.499 . S
C451 H425 0.950 . S
C451 C450 1.414 . S
C451 C452 1.374 . S
C452 H426 0.950 . S
C452 C448 1.385 . S
C452 C451 1.374 . S
C453 C450 1.499 . S
C453 C454 1.373 . S
C453 C455 1.389 . S
C454 H427 0.950 . S
C454 C440 1.377 . S
C454 C453 1.373 . S
C455 C439 1.377 . S
C455 C453 1.389 . S
C455 C456 1.524 . S
C456 C455 1.524 . S
C456 C457 1.397 . S
C456 C461 1.363 . S
C457 H428 0.950 . S
C457 C456 1.397 . S
C457 C458 1.334 . S
C458 H429 0.950 . S
C458 C457 1.334 . S
C458 C459 1.287 . S
C459 C458 1.287 . S
C459 C460 1.524 . S
C459 H462 0.999 . S
C460 H430 0.950 . S
C460 C459 1.524 . S
C460 C461 1.415 . S
C461 H431 0.950 . S
C461 C456 1.363 . S
C461 C460 1.415 . S
H462 C459 0.999 . S
H463 C444 0.913 . S
H464 C482 0.951 . S
H465 C484 0.951 . S
H466 C486 0.950 . S
H467 C487 0.950 . S
H468 C489 0.950 . S
H469 C492 0.950 . S
H470 C493 0.950 . S
H471 C495 0.950 . S
H472 C496 0.950 . S
H473 C497 0.951 . S
H474 C499 0.951 . S
H475 C501 0.950 . S
H476 C502 0.950 . S
H477 C504 0.950 . S
H478 C507 0.950 . S
H479 C508 0.950 . S
H480 C510 0.950 . S
H481 C511 0.950 . S
C482 H464 0.951 . S
C482 C483 1.366 . S
C482 C484 1.388 . S
C483 C482 1.366 . S
C483 C487 1.385 . S
C484 H465 0.951 . S
C484 C482 1.388 . S
C484 C485 1.366 . S
C485 C484 1.366 . S
C485 C486 1.414 . S
C485 C488 1.499 . S
C486 H466 0.950 . S
C486 C485 1.414 . S
C486 C487 1.374 . S
C487 H467 0.950 . S
C487 C483 1.385 . S
C487 C486 1.374 . S
C488 C485 1.499 . S
C488 C489 1.373 . S
C488 C490 1.389 . S
C489 H468 0.950 . S
C489 C488 1.373 . S
C489 C505 1.377 . S
C490 C488 1.389 . S
C490 C491 1.524 . S
C490 C504 1.377 . S
C491 C490 1.524 . S
C491 C492 1.397 . S
C491 C496 1.363 . S
C492 H469 0.950 . S
C492 C491 1.397 . S
C492 C493 1.334 . S
C493 H470 0.950 . S
C493 C492 1.334 . S
C493 C494 1.287 . S
C494 C493 1.287 . S
C494 C495 1.524 . S
C494 H513 0.913 1_554 S
C495 H471 0.950 . S
C495 C494 1.524 . S
C495 C496 1.415 . S
C496 H472 0.950 . S
C496 C491 1.363 . S
C496 C495 1.415 . S
C497 H473 0.951 . S
C497 C498 1.366 . S
C497 C499 1.388 . S
C498 C497 1.366 . S
C498 C502 1.385 . S
C499 H474 0.951 . S
C499 C497 1.388 . S
C499 C500 1.366 . S
C500 C499 1.366 . S
C500 C501 1.414 . S
C500 C503 1.499 . S
C501 H475 0.950 . S
C501 C500 1.414 . S
C501 C502 1.374 . S
C502 H476 0.950 . S
C502 C498 1.385 . S
C502 C501 1.374 . S
C503 C500 1.499 . S
C503 C504 1.373 . S
C503 C505 1.389 . S
C504 H477 0.950 . S
C504 C490 1.377 . S
C504 C503 1.373 . S
C505 C489 1.377 . S
C505 C503 1.389 . S
C505 C506 1.524 . S
C506 C505 1.524 . S
C506 C507 1.397 . S
C506 C511 1.363 . S
C507 H478 0.950 . S
C507 C506 1.397 . S
C507 C508 1.334 . S
C508 H479 0.950 . S
C508 C507 1.334 . S
C508 C509 1.287 . S
C509 C508 1.287 . S
C509 C510 1.524 . S
C509 H512 0.999 . S
C510 H480 0.950 . S
C510 C509 1.524 . S
C510 C511 1.415 . S
C511 H481 0.950 . S
C511 C506 1.363 . S
C511 C510 1.415 . S
H512 C509 0.999 . S
H513 C494 0.913 1_556 S
H514 C532 0.951 . S
H515 C534 0.951 . S
H516 C536 0.950 . S
H517 C537 0.950 . S
H518 C539 0.950 . S
H519 C542 0.950 . S
H520 C543 0.950 . S
H521 C545 0.950 . S
H522 C546 0.950 . S
H523 C547 0.951 . S
H524 C549 0.951 . S
H525 C551 0.950 . S
H526 C552 0.950 . S
H527 C554 0.950 . S
H528 C557 0.950 . S
H529 C558 0.950 . S
H530 C560 0.950 . S
H531 C561 0.950 . S
C532 H514 0.951 . S
C532 C533 1.366 . S
C532 C534 1.388 . S
C533 C532 1.366 . S
C533 C537 1.385 . S
C534 H515 0.951 . S
C534 C532 1.388 . S
C534 C535 1.366 . S
C535 C534 1.366 . S
C535 C536 1.414 . S
C535 C538 1.499 . S
C536 H516 0.950 . S
C536 C535 1.414 . S
C536 C537 1.374 . S
C537 H517 0.950 . S
C537 C533 1.385 . S
C537 C536 1.374 . S
C538 C535 1.499 . S
C538 C539 1.373 . S
C538 C540 1.389 . S
C539 H518 0.950 . S
C539 C538 1.373 . S
C539 C555 1.377 . S
C540 C538 1.389 . S
C540 C541 1.524 . S
C540 C554 1.377 . S
C541 C540 1.524 . S
C541 C542 1.397 . S
C541 C546 1.363 1_554 S
C542 H519 0.950 . S
C542 C541 1.397 . S
C542 C543 1.334 1_554 S
C543 H520 0.950 . S
C543 C542 1.334 1_556 S
C543 C544 1.287 . S
C544 C543 1.287 . S
C544 C545 1.524 . S
C544 H563 0.913 . S
C545 H521 0.950 . S
C545 C544 1.524 . S
C545 C546 1.415 . S
C546 H522 0.950 . S
C546 C541 1.363 1_556 S
C546 C545 1.415 . S
C547 H523 0.951 . S
C547 C548 1.366 . S
C547 C549 1.388 . S
C548 C547 1.366 . S
C548 C552 1.385 . S
C549 H524 0.951 . S
C549 C547 1.388 . S
C549 C550 1.366 . S
C550 C549 1.366 . S
C550 C551 1.414 . S
C550 C553 1.499 . S
C551 H525 0.950 . S
C551 C550 1.414 . S
C551 C552 1.374 . S
C552 H526 0.950 . S
C552 C548 1.385 . S
C552 C551 1.374 . S
C553 C550 1.499 . S
C553 C554 1.373 . S
C553 C555 1.389 . S
C554 H527 0.950 . S
C554 C540 1.377 . S
C554 C553 1.373 . S
C555 C539 1.377 . S
C555 C553 1.389 . S
C555 C556 1.524 . S
C556 C555 1.524 . S
C556 C557 1.397 . S
C556 C561 1.363 . S
C557 H528 0.950 . S
C557 C556 1.397 . S
C557 C558 1.334 . S
C558 H529 0.950 . S
C558 C557 1.334 . S
C558 C559 1.287 . S
C559 C558 1.287 . S
C559 C560 1.524 . S
C559 H562 0.999 . S
C560 H530 0.950 . S
C560 C559 1.524 . S
C560 C561 1.415 . S
C561 H531 0.950 . S
C561 C556 1.363 . S
C561 C560 1.415 . S
H562 C559 0.999 . S
H563 C544 0.913 . S
H564 C582 0.951 . S
H565 C584 0.951 . S
H566 C586 0.950 . S
H567 C587 0.950 . S
H568 C589 0.950 . S
H569 C592 0.965 . S
H570 C593 0.950 . S
H571 C595 0.950 . S
H572 C596 0.950 . S
H573 C597 0.951 . S
H574 C599 0.951 . S
H575 C601 0.956 . S
H576 C602 0.965 . S
H577 C604 0.950 1_554 S
H578 C607 0.950 . S
H579 C608 0.950 . S
H580 C610 0.950 . S
H581 C611 0.950 . S
C582 H564 0.951 . S
C582 C583 1.366 . S
C582 C584 1.388 . S
C583 C582 1.366 . S
C583 C587 1.385 . S
C584 H565 0.951 . S
C584 C582 1.388 . S
C584 C585 1.366 . S
C585 C584 1.366 . S
C585 C586 1.414 . S
C585 C588 1.499 . S
C586 H566 0.950 . S
C586 C585 1.414 . S
C586 C587 1.374 . S
C587 H567 0.950 . S
C587 C583 1.385 . S
C587 C586 1.374 . S
C588 C585 1.499 . S
C588 C589 1.373 . S
C588 C590 1.389 . S
C589 H568 0.950 . S
C589 C588 1.373 . S
C589 C605 1.377 . S
C590 C588 1.389 . S
C590 C591 1.524 1_556 S
C590 C604 1.377 . S
C591 C590 1.524 1_554 S
C591 C592 1.397 . S
C591 C596 1.363 . S
C592 H569 0.965 . S
C592 C591 1.397 . S
C592 C593 1.334 . S
C593 H570 0.950 . S
C593 C592 1.334 . S
C593 C594 1.287 . S
C594 C593 1.287 . S
C594 C595 1.524 . S
C594 H613 0.913 . S
C595 H571 0.950 . S
C595 C594 1.524 . S
C595 C596 1.415 . S
C596 H572 0.950 . S
C596 C591 1.363 . S
C596 C595 1.415 . S
C597 H573 0.951 . S
C597 C598 1.366 . S
C597 C599 1.388 . S
C598 C597 1.366 . S
C598 C602 1.375 1_556 S
C599 H574 0.951 . S
C599 C597 1.388 . S
C599 C600 1.366 . S
C600 C599 1.366 . S
C600 C601 1.414 . S
C600 C603 1.499 . S
C601 H575 0.956 . S
C601 C600 1.414 . S
C601 C602 1.369 1_556 S
C602 H576 0.965 . S
C602 C598 1.375 1_554 S
C602 C601 1.369 1_554 S
C603 C600 1.499 . S
C603 C604 1.373 . S
C603 C605 1.389 . S
C604 H577 0.950 1_556 S
C604 C590 1.377 . S
C604 C603 1.373 . S
C605 C589 1.377 . S
C605 C603 1.389 . S
C605 C606 1.524 . S
C606 C605 1.524 . S
C606 C607 1.397 . S
C606 C611 1.363 . S
C607 H578 0.950 . S
C607 C606 1.397 . S
C607 C608 1.334 . S
C608 H579 0.950 . S
C608 C607 1.334 . S
C608 C609 1.287 . S
C609 C608 1.287 . S
C609 C610 1.524 . S
C609 H612 0.999 . S
C610 H580 0.950 . S
C610 C609 1.524 . S
C610 C611 1.415 . S
C611 H581 0.950 . S
C611 C606 1.363 . S
C611 C610 1.415 . S
H612 C609 0.999 . S
H613 C594 0.913 . S
H614 C632 0.951 . S
H615 C634 0.951 . S
H616 C636 0.950 . S
H617 C637 0.950 . S
H618 C639 0.950 . S
H619 C642 0.950 . S
H620 C643 0.950 . S
H621 C645 0.946 1_554 S
H622 C646 0.950 . S
H623 C647 0.951 . S
H624 C649 0.951 . S
H625 C651 0.950 1_554 S
H626 C652 0.952 1_554 S
H627 C654 0.950 . S
H628 C657 0.950 . S
H629 C658 0.950 . S
H630 C660 0.950 . S
H631 C661 0.950 . S
C632 H614 0.951 . S
C632 C633 1.366 . S
C632 C634 1.388 . S
C633 C632 1.366 . S
C633 C637 1.385 . S
C634 H615 0.951 . S
C634 C632 1.388 . S
C634 C635 1.366 . S
C635 C634 1.366 . S
C635 C636 1.414 . S
C635 C638 1.499 . S
C636 H616 0.950 . S
C636 C635 1.414 . S
C636 C637 1.374 . S
C637 H617 0.950 . S
C637 C633 1.385 . S
C637 C636 1.374 . S
C638 C635 1.499 . S
C638 C639 1.373 . S
C638 C640 1.389 . S
C639 H618 0.950 . S
C639 C638 1.373 . S
C639 C655 1.377 . S
C640 C638 1.389 . S
C640 C641 1.524 . S
C640 C654 1.377 . S
C641 C640 1.524 . S
C641 C642 1.397 . S
C641 C646 1.363 . S
C642 H619 0.950 . S
C642 C641 1.397 . S
C642 C643 1.334 . S
C643 H620 0.950 . S
C643 C642 1.334 . S
C643 C644 1.287 . S
C644 C643 1.287 . S
C644 C645 1.524 . S
C644 H663 0.913 . S
C645 H621 0.946 1_556 S
C645 C644 1.524 . S
C645 C646 1.415 . S
C646 H622 0.950 . S
C646 C641 1.363 . S
C646 C645 1.415 . S
C647 H623 0.951 . S
C647 C648 1.366 . S
C647 C649 1.388 . S
C648 C647 1.366 . S
C648 C652 1.383 . S
C649 H624 0.951 . S
C649 C647 1.388 . S
C649 C650 1.366 . S
C650 C649 1.366 . S
C650 C651 1.414 . S
C650 C653 1.499 . S
C651 H625 0.950 1_556 S
C651 C650 1.414 . S
C651 C652 1.373 . S
C652 H626 0.952 1_556 S
C652 C648 1.383 . S
C652 C651 1.373 . S
C653 C650 1.499 . S
C653 C654 1.373 . S
C653 C655 1.389 . S
C654 H627 0.950 . S
C654 C640 1.377 . S
C654 C653 1.373 . S
C655 C639 1.377 . S
C655 C653 1.389 . S
C655 C656 1.524 . S
C656 C655 1.524 . S
C656 C657 1.397 . S
C656 C661 1.363 . S
C657 H628 0.950 . S
C657 C656 1.397 . S
C657 C658 1.334 . S
C658 H629 0.950 . S
C658 C657 1.334 . S
C658 C659 1.287 . S
C659 C658 1.287 . S
C659 C660 1.524 . S
C659 H662 0.999 . S
C660 H630 0.950 . S
C660 C659 1.524 . S
C660 C661 1.415 . S
C661 H631 0.950 . S
C661 C656 1.363 . S
C661 C660 1.415 . S
H662 C659 0.999 . S
H663 C644 0.913 . S
H664 C682 0.951 . S
H665 C684 0.951 . S
H666 C686 0.950 . S
H667 C687 0.950 . S
H668 C689 0.950 . S
H669 C692 0.950 1_554 S
H670 C693 0.950 1_554 S
H671 C695 0.950 . S
H672 C696 0.950 . S
H673 C697 0.951 . S
H674 C699 0.951 . S
H675 C701 0.950 . S
H676 C702 0.950 . S
H677 C704 0.950 . S
H678 C707 0.950 . S
H679 C708 0.950 . S
H680 C710 0.938 1_554 S
H681 C711 0.950 1_554 S
C682 H664 0.951 . S
C682 C683 1.366 . S
C682 C684 1.388 . S
C683 C682 1.366 . S
C683 C687 1.385 . S
C684 H665 0.951 . S
C684 C682 1.388 . S
C684 C685 1.366 . S
C685 C684 1.366 . S
C685 C686 1.414 . S
C685 C688 1.499 . S
C686 H666 0.950 . S
C686 C685 1.414 . S
C686 C687 1.374 . S
C687 H667 0.950 . S
C687 C683 1.385 . S
C687 C686 1.374 . S
C688 C685 1.499 . S
C688 C689 1.373 . S
C688 C690 1.389 . S
C689 H668 0.950 . S
C689 C688 1.373 . S
C689 C705 1.377 . S
C690 C688 1.389 . S
C690 C691 1.524 . S
C690 C704 1.377 . S
C691 C690 1.524 . S
C691 C692 1.397 . S
C691 C696 1.363 . S
C692 H669 0.950 1_556 S
C692 C691 1.397 . S
C692 C693 1.334 . S
C693 H670 0.950 1_556 S
C693 C692 1.334 . S
C693 C694 1.287 . S
C694 C693 1.287 . S
C694 C695 1.524 . S
C694 H713 0.913 . S
C695 H671 0.950 . S
C695 C694 1.524 . S
C695 C696 1.415 . S
C696 H672 0.950 . S
C696 C691 1.363 . S
C696 C695 1.415 . S
C697 H673 0.951 . S
C697 C698 1.366 1_554 S
C697 C699 1.388 . S
C698 C697 1.366 1_556 S
C698 C702 1.384 . S
C699 H674 0.951 . S
C699 C697 1.388 . S
C699 C700 1.366 1_554 S
C700 C699 1.366 1_556 S
C700 C701 1.414 . S
C700 C703 1.499 . S
C701 H675 0.950 . S
C701 C700 1.414 . S
C701 C702 1.374 . S
C702 H676 0.950 . S
C702 C698 1.384 . S
C702 C701 1.374 . S
C703 C700 1.499 . S
C703 C704 1.373 . S
C703 C705 1.389 . S
C704 H677 0.950 . S
C704 C690 1.377 . S
C704 C703 1.373 . S
C705 C689 1.377 . S
C705 C703 1.389 . S
C705 C706 1.524 . S
C706 C705 1.524 . S
C706 C707 1.397 . S
C706 C711 1.363 . S
C707 H678 0.950 . S
C707 C706 1.397 . S
C707 C708 1.334 . S
C708 H679 0.950 . S
C708 C707 1.334 . S
C708 C709 1.287 . S
C709 C708 1.287 . S
C709 C710 1.524 . S
C709 H712 0.999 . S
C710 H680 0.938 1_556 S
C710 C709 1.524 . S
C710 C711 1.415 . S
C711 H681 0.950 1_556 S
C711 C706 1.363 . S
C711 C710 1.415 . S
H712 C709 0.999 . S
H713 C694 0.913 . S
H714 C732 0.951 . S
H715 C734 0.951 . S
H716 C736 0.950 . S
H717 C737 0.950 . S
H718 C739 0.950 . S
H719 C742 0.950 . S
H720 C743 0.950 . S
H721 C745 0.950 . S
H722 C746 0.950 . S
H723 C747 0.951 . S
H724 C749 0.951 . S
H725 C751 0.950 . S
H726 C752 0.950 1_554 S
H727 C754 0.950 . S
H728 C757 0.950 . S
H729 C758 0.950 . S
H730 C760 0.950 1_556 S
H731 C761 0.950 . S
C732 H714 0.951 . S
C732 C733 1.366 . S
C732 C734 1.388 . S
C733 C732 1.366 . S
C733 C737 1.385 . S
C734 H715 0.951 . S
C734 C732 1.388 . S
C734 C735 1.366 . S
C735 C734 1.366 . S
C735 C736 1.414 . S
C735 C738 1.499 . S
C736 H716 0.950 . S
C736 C735 1.414 . S
C736 C737 1.374 . S
C737 H717 0.950 . S
C737 C733 1.385 . S
C737 C736 1.374 . S
C738 C735 1.499 . S
C738 C739 1.373 . S
C738 C740 1.389 . S
C739 H718 0.950 . S
C739 C738 1.373 . S
C739 C755 1.377 . S
C740 C738 1.389 . S
C740 C741 1.524 . S
C740 C754 1.377 . S
C741 C740 1.524 . S
C741 C742 1.397 . S
C741 C746 1.363 . S
C742 H719 0.950 . S
C742 C741 1.397 . S
C742 C743 1.334 . S
C743 H720 0.950 . S
C743 C742 1.334 . S
C743 C744 1.287 . S
C744 C743 1.287 . S
C744 C745 1.524 . S
C744 H763 0.913 . S
C745 H721 0.950 . S
C745 C744 1.524 . S
C745 C746 1.415 . S
C746 H722 0.950 . S
C746 C741 1.363 . S
C746 C745 1.415 . S
C747 H723 0.951 . S
C747 C748 1.366 . S
C747 C749 1.388 . S
C748 C747 1.366 . S
C748 C752 1.385 . S
C749 H724 0.951 . S
C749 C747 1.388 . S
C749 C750 1.366 . S
C750 C749 1.366 . S
C750 C751 1.414 . S
C750 C753 1.499 . S
C751 H725 0.950 . S
C751 C750 1.414 . S
C751 C752 1.374 . S
C752 H726 0.950 1_556 S
C752 C748 1.385 . S
C752 C751 1.374 . S
C753 C750 1.499 . S
C753 C754 1.373 . S
C753 C755 1.389 . S
C754 H727 0.950 . S
C754 C740 1.377 . S
C754 C753 1.373 . S
C755 C739 1.377 . S
C755 C753 1.389 . S
C755 C756 1.524 . S
C756 C755 1.524 . S
C756 C757 1.397 1_556 S
C756 C761 1.363 . S
C757 H728 0.950 . S
C757 C756 1.397 1_554 S
C757 C758 1.334 . S
C758 H729 0.950 . S
C758 C757 1.334 . S
C758 C759 1.287 . S
C759 C758 1.287 . S
C759 C760 1.524 . S
C759 H762 0.999 . S
C760 H730 0.950 1_554 S
C760 C759 1.524 . S
C760 C761 1.415 1_554 S
C761 H731 0.950 . S
C761 C756 1.363 . S
C761 C760 1.415 1_556 S
H762 C759 0.999 . S
H763 C744 0.913 . S
H764 C782 0.951 . S
H765 C784 0.951 . S
H766 C786 0.950 . S
H767 C787 0.950 . S
H768 C789 0.950 . S
H769 C792 0.950 . S
H770 C793 0.950 . S
H771 C795 0.950 . S
H772 C796 0.950 . S
H773 C797 0.951 . S
H774 C799 0.951 . S
H775 C801 0.950 . S
H776 C802 0.950 1_554 S
H777 C804 0.950 . S
H778 C807 0.950 . S
H779 C808 0.950 . S
H780 C810 0.950 . S
H781 C811 0.950 . S
C782 H764 0.951 . S
C782 C783 1.366 . S
C782 C784 1.388 . S
C783 C782 1.366 . S
C783 C787 1.385 . S
C784 H765 0.951 . S
C784 C782 1.388 . S
C784 C785 1.366 . S
C785 C784 1.366 . S
C785 C786 1.414 . S
C785 C788 1.499 . S
C786 H766 0.950 . S
C786 C785 1.414 . S
C786 C787 1.374 . S
C787 H767 0.950 . S
C787 C783 1.385 . S
C787 C786 1.374 . S
C788 C785 1.499 . S
C788 C789 1.373 . S
C788 C790 1.389 . S
C789 H768 0.950 . S
C789 C788 1.373 . S
C789 C805 1.377 . S
C790 C788 1.389 . S
C790 C791 1.524 . S
C790 C804 1.377 . S
C791 C790 1.524 . S
C791 C792 1.397 . S
C791 C796 1.363 1_556 S
C792 H769 0.950 . S
C792 C791 1.397 . S
C792 C793 1.334 1_556 S
C793 H770 0.950 . S
C793 C792 1.334 1_554 S
C793 C794 1.287 . S
C794 C793 1.287 . S
C794 C795 1.524 . S
C794 H813 0.913 . S
C795 H771 0.950 . S
C795 C794 1.524 . S
C795 C796 1.415 . S
C796 H772 0.950 . S
C796 C791 1.363 1_554 S
C796 C795 1.415 . S
C797 H773 0.951 . S
C797 C798 1.366 . S
C797 C799 1.388 . S
C798 C797 1.366 . S
C798 C802 1.385 . S
C799 H774 0.951 . S
C799 C797 1.388 . S
C799 C800 1.366 . S
C800 C799 1.366 . S
C800 C801 1.414 . S
C800 C803 1.499 . S
C801 H775 0.950 . S
C801 C800 1.414 . S
C801 C802 1.374 . S
C802 H776 0.950 1_556 S
C802 C798 1.385 . S
C802 C801 1.374 . S
C803 C800 1.499 . S
C803 C804 1.373 . S
C803 C805 1.389 . S
C804 H777 0.950 . S
C804 C790 1.377 . S
C804 C803 1.373 . S
C805 C789 1.377 . S
C805 C803 1.389 . S
C805 C806 1.524 . S
C806 C805 1.524 . S
C806 C807 1.397 . S
C806 C811 1.363 . S
C807 H778 0.950 . S
C807 C806 1.397 . S
C807 C808 1.334 . S
C808 H779 0.950 . S
C808 C807 1.334 . S
C808 C809 1.287 . S
C809 C808 1.287 . S
C809 C810 1.524 . S
C809 H812 0.999 . S
C810 H780 0.950 . S
C810 C809 1.524 . S
C810 C811 1.415 . S
C811 H781 0.950 . S
C811 C806 1.363 . S
C811 C810 1.415 . S
H812 C809 0.999 . S
H813 C794 0.913 . S
H814 C832 0.951 . S
H815 C834 0.951 . S
H816 C836 0.950 . S
H817 C837 0.950 . S
H818 C839 0.950 . S
H819 C842 0.950 . S
H820 C843 0.950 . S
H821 C845 0.950 . S
H822 C846 0.950 . S
H823 C847 0.951 . S
H824 C849 0.953 . S
H825 C851 0.950 . S
H826 C852 0.950 . S
H827 C854 0.972 . S
H828 C857 0.950 . S
H829 C858 0.950 . S
H830 C860 0.950 . S
H831 C861 0.950 . S
C832 H814 0.951 . S
C832 C833 1.366 . S
C832 C834 1.388 . S
C833 C832 1.366 . S
C833 C837 1.385 . S
C834 H815 0.951 . S
C834 C832 1.388 . S
C834 C835 1.366 . S
C835 C834 1.366 . S
C835 C836 1.414 . S
C835 C838 1.499 . S
C836 H816 0.950 . S
C836 C835 1.414 . S
C836 C837 1.374 . S
C837 H817 0.950 . S
C837 C833 1.385 . S
C837 C836 1.374 . S
C838 C835 1.499 . S
C838 C839 1.373 . S
C838 C840 1.389 . S
C839 H818 0.950 . S
C839 C838 1.373 . S
C839 C855 1.377 . S
C840 C838 1.389 . S
C840 C841 1.524 1_556 S
C840 C854 1.377 1_556 S
C841 C840 1.524 1_554 S
C841 C842 1.397 . S
C841 C846 1.363 . S
C842 H819 0.950 . S
C842 C841 1.397 . S
C842 C843 1.334 . S
C843 H820 0.950 . S
C843 C842 1.334 . S
C843 C844 1.287 . S
C844 C843 1.287 . S
C844 C845 1.524 . S
C844 H863 0.913 . S
C845 H821 0.950 . S
C845 C844 1.524 . S
C845 C846 1.415 . S
C846 H822 0.950 . S
C846 C841 1.363 . S
C846 C845 1.415 . S
C847 H823 0.951 . S
C847 C848 1.366 . S
C847 C849 1.388 1_554 S
C848 C847 1.366 . S
C848 C852 1.385 1_554 S
C849 H824 0.953 . S
C849 C847 1.388 1_556 S
C849 C850 1.366 . S
C850 C849 1.366 . S
C850 C851 1.414 . S
C850 C853 1.499 . S
C851 H825 0.950 . S
C851 C850 1.414 . S
C851 C852 1.374 . S
C852 H826 0.950 . S
C852 C848 1.385 1_556 S
C852 C851 1.374 . S
C853 C850 1.499 . S
C853 C854 1.353 1_556 S
C853 C855 1.389 . S
C854 H827 0.972 . S
C854 C840 1.377 1_554 S
C854 C853 1.353 1_554 S
C855 C839 1.377 . S
C855 C853 1.389 . S
C855 C856 1.524 . S
C856 C855 1.524 . S
C856 C857 1.397 . S
C856 C861 1.363 . S
C857 H828 0.950 . S
C857 C856 1.397 . S
C857 C858 1.334 . S
C858 H829 0.950 . S
C858 C857 1.334 . S
C858 C859 1.287 . S
C859 C858 1.287 . S
C859 C860 1.524 . S
C859 H862 0.999 . S
C860 H830 0.950 . S
C860 C859 1.524 . S
C860 C861 1.415 . S
C861 H831 0.950 . S
C861 C856 1.363 . S
C861 C860 1.415 . S
H862 C859 0.999 . S
H863 C844 0.913 . S
H864 C882 0.951 . S
H865 C884 0.951 . S
H866 C886 0.950 . S
H867 C887 0.950 . S
H868 C889 0.950 . S
H869 C892 0.935 1_554 S
H870 C893 0.950 . S
H871 C895 0.950 . S
H872 C896 0.950 . S
H873 C897 0.951 . S
H874 C899 0.951 . S
H875 C901 0.950 . S
H876 C902 0.950 . S
H877 C904 0.950 . S
H878 C907 0.950 . S
H879 C908 0.950 . S
H880 C910 0.950 . S
H881 C911 0.950 . S
C882 H864 0.951 . S
C882 C883 1.366 . S
C882 C884 1.388 . S
C883 C882 1.366 . S
C883 C887 1.385 . S
C884 H865 0.951 . S
C884 C882 1.388 . S
C884 C885 1.366 . S
C885 C884 1.366 . S
C885 C886 1.414 . S
C885 C888 1.499 . S
C886 H866 0.950 . S
C886 C885 1.414 . S
C886 C887 1.374 . S
C887 H867 0.950 . S
C887 C883 1.385 . S
C887 C886 1.374 . S
C888 C885 1.499 . S
C888 C889 1.373 . S
C888 C890 1.389 . S
C889 H868 0.950 . S
C889 C888 1.373 . S
C889 C905 1.377 . S
C890 C888 1.389 . S
C890 C891 1.524 . S
C890 C904 1.377 . S
C891 C890 1.524 . S
C891 C892 1.391 1_554 S
C891 C896 1.363 1_554 S
C892 H869 0.935 1_556 S
C892 C891 1.391 1_556 S
C892 C893 1.354 . S
C893 H870 0.950 . S
C893 C892 1.354 . S
C893 C894 1.287 . S
C894 C893 1.287 . S
C894 C895 1.524 . S
C894 H913 0.913 . S
C895 H871 0.950 . S
C895 C894 1.524 . S
C895 C896 1.415 . S
C896 H872 0.950 . S
C896 C891 1.363 1_556 S
C896 C895 1.415 . S
C897 H873 0.951 . S
C897 C898 1.366 . S
C897 C899 1.388 . S
C898 C897 1.366 . S
C898 C902 1.385 . S
C899 H874 0.951 . S
C899 C897 1.388 . S
C899 C900 1.366 . S
C900 C899 1.366 . S
C900 C901 1.414 . S
C900 C903 1.499 . S
C901 H875 0.950 . S
C901 C900 1.414 . S
C901 C902 1.374 . S
C902 H876 0.950 . S
C902 C898 1.385 . S
C902 C901 1.374 . S
C903 C900 1.499 . S
C903 C904 1.373 . S
C903 C905 1.389 . S
C904 H877 0.950 . S
C904 C890 1.377 . S
C904 C903 1.373 . S
C905 C889 1.377 . S
C905 C903 1.389 . S
C905 C906 1.524 . S
C906 C905 1.524 . S
C906 C907 1.397 . S
C906 C911 1.363 . S
C907 H878 0.950 . S
C907 C906 1.397 . S
C907 C908 1.334 . S
C908 H879 0.950 . S
C908 C907 1.334 . S
C908 C909 1.287 . S
C909 C908 1.287 . S
C909 C910 1.524 . S
C909 H912 0.999 . S
C910 H880 0.950 . S
C910 C909 1.524 . S
C910 C911 1.415 . S
C911 H881 0.950 . S
C911 C906 1.363 . S
C911 C910 1.415 . S
H912 C909 0.999 . S
H913 C894 0.913 . S
H914 C932 0.951 . S
H915 C934 0.951 . S
H916 C936 0.950 . S
H917 C937 0.950 . S
H918 C939 0.950 . S
H919 C942 0.950 . S
H920 C943 0.950 . S
H921 C945 0.950 . S
H922 C946 0.950 . S
H923 C947 0.951 . S
H924 C949 0.951 . S
H925 C951 0.950 . S
H926 C952 0.950 . S
H927 C954 0.950 . S
H928 C957 0.950 . S
H929 C958 0.950 . S
H930 C960 0.950 . S
H931 C961 0.950 . S
C932 H914 0.951 . S
C932 C933 1.366 . S
C932 C934 1.388 . S
C933 C932 1.366 . S
C933 C937 1.385 . S
C934 H915 0.951 . S
C934 C932 1.388 . S
C934 C935 1.366 . S
C935 C934 1.366 . S
C935 C936 1.414 . S
C935 C938 1.499 . S
C936 H916 0.950 . S
C936 C935 1.414 . S
C936 C937 1.374 . S
C937 H917 0.950 . S
C937 C933 1.385 . S
C937 C936 1.374 . S
C938 C935 1.499 . S
C938 C939 1.373 . S
C938 C940 1.389 . S
C939 H918 0.950 . S
C939 C938 1.373 . S
C939 C955 1.377 . S
C940 C938 1.389 . S
C940 C941 1.524 . S
C940 C954 1.377 . S
C941 C940 1.524 . S
C941 C942 1.397 . S
C941 C946 1.363 . S
C942 H919 0.950 . S
C942 C941 1.397 . S
C942 C943 1.334 . S
C943 H920 0.950 . S
C943 C942 1.334 . S
C943 C944 1.287 . S
C944 C943 1.287 . S
C944 C945 1.524 1_554 S
C944 H963 0.919 . S
C945 H921 0.950 . S
C945 C944 1.524 1_556 S
C945 C946 1.415 1_556 S
C946 H922 0.950 . S
C946 C941 1.363 . S
C946 C945 1.415 1_554 S
C947 H923 0.951 . S
C947 C948 1.366 . S
C947 C949 1.388 . S
C948 C947 1.366 . S
C948 C952 1.385 . S
C949 H924 0.951 . S
C949 C947 1.388 . S
C949 C950 1.366 . S
C950 C949 1.366 . S
C950 C951 1.414 . S
C950 C953 1.499 . S
C951 H925 0.950 . S
C951 C950 1.414 . S
C951 C952 1.374 . S
C952 H926 0.950 . S
C952 C948 1.385 . S
C952 C951 1.374 . S
C953 C950 1.499 . S
C953 C954 1.373 . S
C953 C955 1.389 . S
C954 H927 0.950 . S
C954 C940 1.377 . S
C954 C953 1.373 . S
C955 C939 1.377 . S
C955 C953 1.389 . S
C955 C956 1.524 . S
C956 C955 1.524 . S
C956 C957 1.397 . S
C956 C961 1.363 . S
C957 H928 0.950 . S
C957 C956 1.397 . S
C957 C958 1.334 . S
C958 H929 0.950 . S
C958 C957 1.334 . S
C958 C959 1.287 . S
C959 C958 1.287 . S
C959 C960 1.524 . S
C959 H962 0.999 . S
C960 H930 0.950 . S
C960 C959 1.524 . S
C960 C961 1.415 . S
C961 H931 0.950 . S
C961 C956 1.363 . S
C961 C960 1.415 . S
H962 C959 0.999 . S
H963 C944 0.919 . S
H964 C982 0.951 . S
H965 C984 0.951 . S
H966 C986 0.950 . S
H967 C987 0.950 . S
H968 C989 0.950 . S
H969 C992 0.953 . S
H970 C993 0.950 . S
H971 C995 0.950 . S
H972 C996 0.950 . S
H973 C997 0.951 . S
H974 C999 0.951 . S
H975 C1001 0.950 . S
H976 C1002 0.950 . S
H977 C1004 0.950 . S
H978 C1007 0.950 . S
H979 C1008 0.950 . S
H980 C1010 0.950 . S
H981 C1011 0.950 . S
C982 H964 0.951 . S
C982 C983 1.366 . S
C982 C984 1.388 . S
C983 C982 1.366 . S
C983 C987 1.385 . S
C984 H965 0.951 . S
C984 C982 1.388 . S
C984 C985 1.366 . S
C985 C984 1.366 . S
C985 C986 1.414 . S
C985 C988 1.499 . S
C986 H966 0.950 . S
C986 C985 1.414 . S
C986 C987 1.374 . S
C987 H967 0.950 . S
C987 C983 1.385 . S
C987 C986 1.374 . S
C988 C985 1.499 . S
C988 C989 1.373 . S
C988 C990 1.389 . S
C989 H968 0.950 . S
C989 C988 1.373 . S
C989 C1005 1.377 . S
C990 C988 1.389 . S
C990 C991 1.524 . S
C990 C1004 1.377 . S
C991 C990 1.524 . S
C991 C992 1.388 1_554 S
C991 C996 1.363 . S
C992 H969 0.953 . S
C992 C991 1.388 1_556 S
C992 C993 1.340 . S
C993 H970 0.950 . S
C993 C992 1.340 . S
C993 C994 1.287 . S
C994 C993 1.287 . S
C994 C995 1.524 1_556 S
C994 H1013 0.913 . S
C995 H971 0.950 . S
C995 C994 1.524 1_554 S
C995 C996 1.415 . S
C996 H972 0.950 . S
C996 C991 1.363 . S
C996 C995 1.415 . S
C997 H973 0.951 . S
C997 C998 1.366 . S
C997 C999 1.388 . S
C998 C997 1.366 . S
C998 C1002 1.385 . S
C999 H974 0.951 . S
C999 C997 1.388 . S
C999 C1000 1.366 . S
C1000 C999 1.366 . S
C1000 C1001 1.414 . S
C1000 C1003 1.499 . S
C1001 H975 0.950 . S
C1001 C1000 1.414 . S
C1001 C1002 1.374 . S
C1002 H976 0.950 . S
C1002 C998 1.385 . S
C1002 C1001 1.374 . S
C1003 C1000 1.499 . S
C1003 C1004 1.373 . S
C1003 C1005 1.389 . S
C1004 H977 0.950 . S
C1004 C990 1.377 . S
C1004 C1003 1.373 . S
C1005 C989 1.377 . S
C1005 C1003 1.389 . S
C1005 C1006 1.524 . S
C1006 C1005 1.524 . S
C1006 C1007 1.397 . S
C1006 C1011 1.363 . S
C1007 H978 0.950 . S
C1007 C1006 1.397 . S
C1007 C1008 1.334 . S
C1008 H979 0.950 . S
C1008 C1007 1.334 . S
C1008 C1009 1.287 . S
C1009 C1008 1.287 . S
C1009 C1010 1.524 . S
C1009 H1012 0.999 . S
C1010 H980 0.950 . S
C1010 C1009 1.524 . S
C1010 C1011 1.415 . S
C1011 H981 0.950 . S
C1011 C1006 1.363 . S
C1011 C1010 1.415 . S
H1012 C1009 0.999 . S
H1013 C994 0.913 . S
H1014 C1032 0.951 . S
H1015 C1034 0.951 . S
H1016 C1036 0.950 . S
H1017 C1037 0.950 . S
H1018 C1039 0.950 . S
H1019 C1042 0.950 . S
H1020 C1043 0.950 . S
H1021 C1045 0.950 . S
H1022 C1046 0.950 . S
H1023 C1047 0.951 . S
H1024 C1049 0.951 . S
H1025 C1051 0.950 . S
H1026 C1052 0.950 . S
H1027 C1054 0.942 . S
H1028 C1057 0.950 . S
H1029 C1058 0.950 . S
H1030 C1060 0.950 . S
H1031 C1061 0.950 . S
C1032 H1014 0.951 . S
C1032 C1033 1.366 . S
C1032 C1034 1.388 . S
C1033 C1032 1.366 . S
C1033 C1037 1.385 . S
C1034 H1015 0.951 . S
C1034 C1032 1.388 . S
C1034 C1035 1.366 . S
C1035 C1034 1.366 . S
C1035 C1036 1.414 . S
C1035 C1038 1.499 . S
C1036 H1016 0.950 . S
C1036 C1035 1.414 . S
C1036 C1037 1.374 . S
C1037 H1017 0.950 . S
C1037 C1033 1.385 . S
C1037 C1036 1.374 . S
C1038 C1035 1.499 . S
C1038 C1039 1.373 . S
C1038 C1040 1.389 . S
C1039 H1018 0.950 . S
C1039 C1038 1.373 . S
C1039 C1055 1.377 1_655 S
C1040 C1038 1.389 . S
C1040 C1041 1.524 . S
C1040 C1054 1.377 . S
C1041 C1040 1.524 . S
C1041 C1042 1.397 . S
C1041 C1046 1.363 . S
C1042 H1019 0.950 . S
C1042 C1041 1.397 . S
C1042 C1043 1.334 . S
C1043 H1020 0.950 . S
C1043 C1042 1.334 . S
C1043 C1044 1.287 . S
C1044 C1043 1.287 . S
C1044 C1045 1.524 . S
C1044 H1063 0.913 . S
C1045 H1021 0.950 . S
C1045 C1044 1.524 . S
C1045 C1046 1.415 . S
C1046 H1022 0.950 . S
C1046 C1041 1.363 . S
C1046 C1045 1.415 . S
C1047 H1023 0.951 . S
C1047 C1048 1.366 . S
C1047 C1049 1.388 . S
C1048 C1047 1.366 . S
C1048 C1052 1.385 . S
C1049 H1024 0.951 . S
C1049 C1047 1.388 . S
C1049 C1050 1.366 . S
C1050 C1049 1.366 . S
C1050 C1051 1.414 . S
C1050 C1053 1.499 . S
C1051 H1025 0.950 . S
C1051 C1050 1.414 . S
C1051 C1052 1.374 . S
C1052 H1026 0.950 . S
C1052 C1048 1.385 . S
C1052 C1051 1.374 . S
C1053 C1050 1.499 . S
C1053 C1054 1.373 1_455 S
C1053 C1055 1.389 . S
C1054 H1027 0.942 . S
C1054 C1040 1.377 . S
C1054 C1053 1.373 1_655 S
C1055 C1039 1.377 1_455 S
C1055 C1053 1.389 . S
C1055 C1056 1.524 . S
C1056 C1055 1.524 . S
C1056 C1057 1.397 . S
C1056 C1061 1.363 . S
C1057 H1028 0.950 . S
C1057 C1056 1.397 . S
C1057 C1058 1.334 . S
C1058 H1029 0.950 . S
C1058 C1057 1.334 . S
C1058 C1059 1.287 . S
C1059 C1058 1.287 . S
C1059 C1060 1.524 . S
C1059 H1062 0.999 . S
C1060 H1030 0.950 . S
C1060 C1059 1.524 . S
C1060 C1061 1.415 . S
C1061 H1031 0.950 . S
C1061 C1056 1.363 . S
C1061 C1060 1.415 . S
H1062 C1059 0.999 . S
H1063 C1044 0.913 . S
H1064 C1082 0.951 . S
H1065 C1084 0.951 . S
H1066 C1086 0.950 . S
H1067 C1087 0.950 . S
H1068 C1089 0.950 . S
H1069 C1092 0.950 . S
H1070 C1093 0.950 . S
H1071 C1095 0.950 . S
H1072 C1096 0.950 . S
H1073 C1097 0.951 . S
H1074 C1099 0.951 . S
H1075 C1101 0.950 . S
H1076 C1102 0.950 . S
H1077 C1104 0.950 . S
H1078 C1107 0.950 . S
H1079 C1108 0.950 . S
H1080 C1110 0.950 . S
H1081 C1111 0.950 . S
C1082 H1064 0.951 . S
C1082 C1083 1.366 . S
C1082 C1084 1.388 . S
C1083 C1082 1.366 . S
C1083 C1087 1.385 . S
C1084 H1065 0.951 . S
C1084 C1082 1.388 . S
C1084 C1085 1.366 . S
C1085 C1084 1.366 . S
C1085 C1086 1.414 . S
C1085 C1088 1.499 . S
C1086 H1066 0.950 . S
C1086 C1085 1.414 . S
C1086 C1087 1.374 . S
C1087 H1067 0.950 . S
C1087 C1083 1.385 . S
C1087 C1086 1.374 . S
C1088 C1085 1.499 . S
C1088 C1089 1.373 . S
C1088 C1090 1.389 . S
C1089 H1068 0.950 . S
C1089 C1088 1.373 . S
C1089 C1105 1.377 . S
C1090 C1088 1.389 . S
C1090 C1091 1.524 . S
C1090 C1104 1.377 . S
C1091 C1090 1.524 . S
C1091 C1092 1.397 . S
C1091 C1096 1.363 . S
C1092 H1069 0.950 . S
C1092 C1091 1.397 . S
C1092 C1093 1.334 . S
C1093 H1070 0.950 . S
C1093 C1092 1.334 . S
C1093 C1094 1.287 . S
C1094 C1093 1.287 . S
C1094 C1095 1.524 . S
C1094 H1113 0.913 . S
C1095 H1071 0.950 . S
C1095 C1094 1.524 . S
C1095 C1096 1.415 . S
C1096 H1072 0.950 . S
C1096 C1091 1.363 . S
C1096 C1095 1.415 . S
C1097 H1073 0.951 . S
C1097 C1098 1.366 . S
C1097 C1099 1.388 . S
C1098 C1097 1.366 . S
C1098 C1102 1.385 . S
C1099 H1074 0.951 . S
C1099 C1097 1.388 . S
C1099 C1100 1.366 . S
C1100 C1099 1.366 . S
C1100 C1101 1.414 . S
C1100 C1103 1.499 . S
C1101 H1075 0.950 . S
C1101 C1100 1.414 . S
C1101 C1102 1.374 . S
C1102 H1076 0.950 . S
C1102 C1098 1.385 . S
C1102 C1101 1.374 . S
C1103 C1100 1.499 . S
C1103 C1104 1.373 . S
C1103 C1105 1.389 . S
C1104 H1077 0.950 . S
C1104 C1090 1.377 . S
C1104 C1103 1.373 . S
C1105 C1089 1.377 . S
C1105 C1103 1.389 . S
C1105 C1106 1.524 . S
C1106 C1105 1.524 . S
C1106 C1107 1.397 . S
C1106 C1111 1.363 . S
C1107 H1078 0.950 . S
C1107 C1106 1.397 . S
C1107 C1108 1.334 . S
C1108 H1079 0.950 . S
C1108 C1107 1.334 . S
C1108 C1109 1.287 . S
C1109 C1108 1.287 . S
C1109 C1110 1.524 . S
C1109 H1112 0.999 . S
C1110 H1080 0.950 . S
C1110 C1109 1.524 . S
C1110 C1111 1.415 . S
C1111 H1081 0.950 . S
C1111 C1106 1.363 . S
C1111 C1110 1.415 . S
H1112 C1109 0.999 . S
H1113 C1094 0.913 . S
H1114 C1132 0.951 . S
H1115 C1134 0.951 . S
H1116 C1136 0.950 . S
H1117 C1137 0.950 . S
H1118 C1139 0.950 . S
H1119 C1142 0.950 . S
H1120 C1143 0.950 . S
H1121 C1145 0.950 . S
H1122 C1146 0.950 . S
H1123 C1147 0.951 . S
H1124 C1149 0.951 . S
H1125 C1151 0.950 . S
H1126 C1152 0.950 . S
H1127 C1154 0.950 . S
H1128 C1157 0.950 . S
H1129 C1158 0.950 . S
H1130 C1160 0.950 . S
H1131 C1161 0.950 . S
C1132 H1114 0.951 . S
C1132 C1133 1.366 . S
C1132 C1134 1.388 . S
C1133 C1132 1.366 . S
C1133 C1137 1.385 . S
C1134 H1115 0.951 . S
C1134 C1132 1.388 . S
C1134 C1135 1.366 . S
C1135 C1134 1.366 . S
C1135 C1136 1.414 . S
C1135 C1138 1.499 . S
C1136 H1116 0.950 . S
C1136 C1135 1.414 . S
C1136 C1137 1.374 . S
C1137 H1117 0.950 . S
C1137 C1133 1.385 . S
C1137 C1136 1.374 . S
C1138 C1135 1.499 . S
C1138 C1139 1.373 . S
C1138 C1140 1.389 . S
C1139 H1118 0.950 . S
C1139 C1138 1.373 . S
C1139 C1155 1.377 1_545 S
C1140 C1138 1.389 . S
C1140 C1141 1.524 . S
C1140 C1154 1.377 1_545 S
C1141 C1140 1.524 . S
C1141 C1142 1.397 . S
C1141 C1146 1.363 . S
C1142 H1119 0.950 . S
C1142 C1141 1.397 . S
C1142 C1143 1.334 . S
C1143 H1120 0.950 . S
C1143 C1142 1.334 . S
C1143 C1144 1.287 . S
C1144 C1143 1.287 . S
C1144 C1145 1.524 . S
C1144 H1163 0.913 . S
C1145 H1121 0.950 . S
C1145 C1144 1.524 . S
C1145 C1146 1.415 . S
C1146 H1122 0.950 . S
C1146 C1141 1.363 . S
C1146 C1145 1.415 . S
C1147 H1123 0.951 . S
C1147 C1148 1.366 . S
C1147 C1149 1.388 . S
C1148 C1147 1.366 . S
C1148 C1152 1.385 . S
C1149 H1124 0.951 . S
C1149 C1147 1.388 . S
C1149 C1150 1.366 . S
C1150 C1149 1.366 . S
C1150 C1151 1.414 . S
C1150 C1153 1.499 . S
C1151 H1125 0.950 . S
C1151 C1150 1.414 . S
C1151 C1152 1.374 . S
C1152 H1126 0.950 . S
C1152 C1148 1.385 . S
C1152 C1151 1.374 . S
C1153 C1150 1.499 . S
C1153 C1154 1.373 . S
C1153 C1155 1.389 . S
C1154 H1127 0.950 . S
C1154 C1140 1.377 1_565 S
C1154 C1153 1.373 . S
C1155 C1139 1.377 1_565 S
C1155 C1153 1.389 . S
C1155 C1156 1.524 . S
C1156 C1155 1.524 . S
C1156 C1157 1.397 . S
C1156 C1161 1.363 . S
C1157 H1128 0.950 . S
C1157 C1156 1.397 . S
C1157 C1158 1.334 . S
C1158 H1129 0.950 . S
C1158 C1157 1.334 . S
C1158 C1159 1.287 . S
C1159 C1158 1.287 . S
C1159 C1160 1.524 . S
C1159 H1162 0.999 . S
C1160 H1130 0.950 . S
C1160 C1159 1.524 . S
C1160 C1161 1.415 . S
C1161 H1131 0.950 . S
C1161 C1156 1.363 . S
C1161 C1160 1.415 . S
H1162 C1159 0.999 . S
H1163 C1144 0.913 . S
H1164 C1182 0.951 . S
H1165 C1184 0.951 . S
H1166 C1186 0.950 . S
H1167 C1187 0.950 . S
H1168 C1189 0.950 . S
H1169 C1192 0.950 . S
H1170 C1193 0.950 . S
H1171 C1195 0.950 . S
H1172 C1196 0.950 . S
H1173 C1197 0.951 . S
H1174 C1199 0.951 . S
H1175 C1201 0.950 . S
H1176 C1202 0.950 . S
H1177 C1204 0.950 . S
H1178 C1207 0.950 . S
H1179 C1208 0.950 . S
H1180 C1210 0.950 . S
H1181 C1211 0.950 . S
C1182 H1164 0.951 . S
C1182 C1183 1.366 . S
C1182 C1184 1.388 . S
C1183 C1182 1.366 . S
C1183 C1187 1.385 . S
C1184 H1165 0.951 . S
C1184 C1182 1.388 . S
C1184 C1185 1.366 . S
C1185 C1184 1.366 . S
C1185 C1186 1.414 . S
C1185 C1188 1.499 . S
C1186 H1166 0.950 . S
C1186 C1185 1.414 . S
C1186 C1187 1.374 . S
C1187 H1167 0.950 . S
C1187 C1183 1.385 . S
C1187 C1186 1.374 . S
C1188 C1185 1.499 . S
C1188 C1189 1.373 . S
C1188 C1190 1.389 . S
C1189 H1168 0.950 . S
C1189 C1188 1.373 . S
C1189 C1205 1.377 . S
C1190 C1188 1.389 . S
C1190 C1191 1.524 . S
C1190 C1204 1.377 . S
C1191 C1190 1.524 . S
C1191 C1192 1.397 . S
C1191 C1196 1.363 . S
C1192 H1169 0.950 . S
C1192 C1191 1.397 . S
C1192 C1193 1.334 . S
C1193 H1170 0.950 . S
C1193 C1192 1.334 . S
C1193 C1194 1.287 . S
C1194 C1193 1.287 . S
C1194 C1195 1.524 . S
C1194 H1213 0.913 . S
C1195 H1171 0.950 . S
C1195 C1194 1.524 . S
C1195 C1196 1.415 . S
C1196 H1172 0.950 . S
C1196 C1191 1.363 . S
C1196 C1195 1.415 . S
C1197 H1173 0.951 . S
C1197 C1198 1.366 . S
C1197 C1199 1.388 . S
C1198 C1197 1.366 . S
C1198 C1202 1.385 . S
C1199 H1174 0.951 . S
C1199 C1197 1.388 . S
C1199 C1200 1.366 . S
C1200 C1199 1.366 . S
C1200 C1201 1.414 . S
C1200 C1203 1.499 . S
C1201 H1175 0.950 . S
C1201 C1200 1.414 . S
C1201 C1202 1.374 . S
C1202 H1176 0.950 . S
C1202 C1198 1.385 . S
C1202 C1201 1.374 . S
C1203 C1200 1.499 . S
C1203 C1204 1.373 . S
C1203 C1205 1.389 . S
C1204 H1177 0.950 . S
C1204 C1190 1.377 . S
C1204 C1203 1.373 . S
C1205 C1189 1.377 . S
C1205 C1203 1.389 . S
C1205 C1206 1.524 . S
C1206 C1205 1.524 . S
C1206 C1207 1.397 . S
C1206 C1211 1.363 . S
C1207 H1178 0.950 . S
C1207 C1206 1.397 . S
C1207 C1208 1.334 . S
C1208 H1179 0.950 . S
C1208 C1207 1.334 . S
C1208 C1209 1.287 . S
C1209 C1208 1.287 . S
C1209 C1210 1.524 . S
C1209 H1212 0.999 . S
C1210 H1180 0.950 . S
C1210 C1209 1.524 . S
C1210 C1211 1.415 . S
C1211 H1181 0.950 . S
C1211 C1206 1.363 . S
C1211 C1210 1.415 . S
H1212 C1209 0.999 . S
H1213 C1194 0.913 . S
H1214 C1232 0.951 . S
H1215 C1234 0.951 . S
H1216 C1236 0.950 . S
H1217 C1237 0.950 . S
H1218 C1239 0.950 . S
H1219 C1242 0.950 . S
H1220 C1243 0.950 . S
H1221 C1245 0.950 . S
H1222 C1246 0.950 . S
H1223 C1247 0.951 . S
H1224 C1249 0.951 . S
H1225 C1251 0.950 . S
H1226 C1252 0.950 . S
H1227 C1254 0.950 . S
H1228 C1257 0.950 . S
H1229 C1258 0.950 . S
H1230 C1260 0.950 . S
H1231 C1261 0.950 . S
C1232 H1214 0.951 . S
C1232 C1233 1.366 . S
C1232 C1234 1.388 . S
C1233 C1232 1.366 . S
C1233 C1237 1.385 . S
C1234 H1215 0.951 . S
C1234 C1232 1.388 . S
C1234 C1235 1.366 . S
C1235 C1234 1.366 . S
C1235 C1236 1.414 . S
C1235 C1238 1.499 . S
C1236 H1216 0.950 . S
C1236 C1235 1.414 . S
C1236 C1237 1.374 . S
C1237 H1217 0.950 . S
C1237 C1233 1.385 . S
C1237 C1236 1.374 . S
C1238 C1235 1.499 . S
C1238 C1239 1.373 . S
C1238 C1240 1.389 . S
C1239 H1218 0.950 . S
C1239 C1238 1.373 . S
C1239 C1255 1.377 . S
C1240 C1238 1.389 . S
C1240 C1241 1.524 . S
C1240 C1254 1.377 . S
C1241 C1240 1.524 . S
C1241 C1242 1.397 . S
C1241 C1246 1.363 . S
C1242 H1219 0.950 . S
C1242 C1241 1.397 . S
C1242 C1243 1.334 . S
C1243 H1220 0.950 . S
C1243 C1242 1.334 . S
C1243 C1244 1.287 . S
C1244 C1243 1.287 . S
C1244 C1245 1.524 . S
C1244 H1263 0.913 . S
C1245 H1221 0.950 . S
C1245 C1244 1.524 . S
C1245 C1246 1.415 . S
C1246 H1222 0.950 . S
C1246 C1241 1.363 . S
C1246 C1245 1.415 . S
C1247 H1223 0.951 . S
C1247 C1248 1.366 . S
C1247 C1249 1.388 . S
C1248 C1247 1.366 . S
C1248 C1252 1.385 . S
C1249 H1224 0.951 . S
C1249 C1247 1.388 . S
C1249 C1250 1.366 . S
C1250 C1249 1.366 . S
C1250 C1251 1.414 . S
C1250 C1253 1.499 . S
C1251 H1225 0.950 . S
C1251 C1250 1.414 . S
C1251 C1252 1.374 . S
C1252 H1226 0.950 . S
C1252 C1248 1.385 . S
C1252 C1251 1.374 . S
C1253 C1250 1.499 . S
C1253 C1254 1.373 . S
C1253 C1255 1.389 . S
C1254 H1227 0.950 . S
C1254 C1240 1.377 . S
C1254 C1253 1.373 . S
C1255 C1239 1.377 . S
C1255 C1253 1.389 . S
C1255 C1256 1.524 . S
C1256 C1255 1.524 . S
C1256 C1257 1.397 . S
C1256 C1261 1.363 . S
C1257 H1228 0.950 . S
C1257 C1256 1.397 . S
C1257 C1258 1.334 . S
C1258 H1229 0.950 . S
C1258 C1257 1.334 . S
C1258 C1259 1.287 . S
C1259 C1258 1.287 . S
C1259 C1260 1.524 . S
C1259 H1262 0.999 . S
C1260 H1230 0.950 . S
C1260 C1259 1.524 . S
C1260 C1261 1.415 . S
C1261 H1231 0.950 . S
C1261 C1256 1.363 . S
C1261 C1260 1.415 . S
H1262 C1259 0.999 . S
H1263 C1244 0.913 . S
H1264 C1282 0.951 . S
H1265 C1284 0.951 . S
H1266 C1286 0.950 . S
H1267 C1287 0.950 . S
H1268 C1289 0.950 . S
H1269 C1292 0.950 . S
H1270 C1293 0.950 . S
H1271 C1295 0.950 . S
H1272 C1296 0.950 . S
H1273 C1297 0.951 . S
H1274 C1299 0.951 . S
H1275 C1301 0.950 . S
H1276 C1302 0.950 . S
H1277 C1304 0.950 . S
H1278 C1307 0.950 . S
H1279 C1308 0.950 . S
H1280 C1310 0.950 . S
H1281 C1311 0.950 . S
C1282 H1264 0.951 . S
C1282 C1283 1.366 . S
C1282 C1284 1.388 . S
C1283 C1282 1.366 . S
C1283 C1287 1.385 . S
C1284 H1265 0.951 . S
C1284 C1282 1.388 . S
C1284 C1285 1.366 . S
C1285 C1284 1.366 . S
C1285 C1286 1.414 . S
C1285 C1288 1.499 . S
C1286 H1266 0.950 . S
C1286 C1285 1.414 . S
C1286 C1287 1.374 . S
C1287 H1267 0.950 . S
C1287 C1283 1.385 . S
C1287 C1286 1.374 . S
C1288 C1285 1.499 . S
C1288 C1289 1.373 . S
C1288 C1290 1.389 . S
C1289 H1268 0.950 . S
C1289 C1288 1.373 . S
C1289 C1305 1.377 . S
C1290 C1288 1.389 . S
C1290 C1291 1.524 . S
C1290 C1304 1.377 . S
C1291 C1290 1.524 . S
C1291 C1292 1.397 . S
C1291 C1296 1.363 . S
C1292 H1269 0.950 . S
C1292 C1291 1.397 . S
C1292 C1293 1.334 . S
C1293 H1270 0.950 . S
C1293 C1292 1.334 . S
C1293 C1294 1.287 . S
C1294 C1293 1.287 . S
C1294 C1295 1.524 . S
C1294 H1313 0.913 . S
C1295 H1271 0.950 . S
C1295 C1294 1.524 . S
C1295 C1296 1.415 . S
C1296 H1272 0.950 . S
C1296 C1291 1.363 . S
C1296 C1295 1.415 . S
C1297 H1273 0.951 . S
C1297 C1298 1.366 . S
C1297 C1299 1.388 . S
C1298 C1297 1.366 . S
C1298 C1302 1.385 . S
C1299 H1274 0.951 . S
C1299 C1297 1.388 . S
C1299 C1300 1.366 . S
C1300 C1299 1.366 . S
C1300 C1301 1.414 . S
C1300 C1303 1.499 . S
C1301 H1275 0.950 . S
C1301 C1300 1.414 . S
C1301 C1302 1.374 . S
C1302 H1276 0.950 . S
C1302 C1298 1.385 . S
C1302 C1301 1.374 . S
C1303 C1300 1.499 . S
C1303 C1304 1.373 . S
C1303 C1305 1.389 . S
C1304 H1277 0.950 . S
C1304 C1290 1.377 . S
C1304 C1303 1.373 . S
C1305 C1289 1.377 . S
C1305 C1303 1.389 . S
C1305 C1306 1.524 . S
C1306 C1305 1.524 . S
C1306 C1307 1.397 . S
C1306 C1311 1.363 . S
C1307 H1278 0.950 . S
C1307 C1306 1.397 . S
C1307 C1308 1.334 . S
C1308 H1279 0.950 . S
C1308 C1307 1.334 . S
C1308 C1309 1.287 . S
C1309 C1308 1.287 . S
C1309 C1310 1.524 . S
C1309 H1312 0.999 . S
C1310 H1280 0.950 . S
C1310 C1309 1.524 . S
C1310 C1311 1.415 . S
C1311 H1281 0.950 . S
C1311 C1306 1.363 . S
C1311 C1310 1.415 . S
H1312 C1309 0.999 . S
H1313 C1294 0.913 . S
H1314 C1332 0.951 . S
H1315 C1334 0.951 . S
H1316 C1336 0.950 . S
H1317 C1337 0.950 . S
H1318 C1339 0.950 . S
H1319 C1342 0.950 . S
H1320 C1343 0.950 . S
H1321 C1345 0.950 . S
H1322 C1346 0.950 . S
H1323 C1347 0.951 . S
H1324 C1349 0.951 . S
H1325 C1351 0.950 . S
H1326 C1352 0.950 . S
H1327 C1354 0.950 . S
H1328 C1357 0.950 . S
H1329 C1358 0.950 . S
H1330 C1360 0.950 . S
H1331 C1361 0.950 . S
C1332 H1314 0.951 . S
C1332 C1333 1.366 . S
C1332 C1334 1.388 . S
C1333 C1332 1.366 . S
C1333 C1337 1.385 . S
C1334 H1315 0.951 . S
C1334 C1332 1.388 . S
C1334 C1335 1.366 . S
C1335 C1334 1.366 . S
C1335 C1336 1.414 . S
C1335 C1338 1.499 . S
C1336 H1316 0.950 . S
C1336 C1335 1.414 . S
C1336 C1337 1.374 . S
C1337 H1317 0.950 . S
C1337 C1333 1.385 . S
C1337 C1336 1.374 . S
C1338 C1335 1.499 . S
C1338 C1339 1.373 . S
C1338 C1340 1.389 . S
C1339 H1318 0.950 . S
C1339 C1338 1.373 . S
C1339 C1355 1.377 . S
C1340 C1338 1.389 . S
C1340 C1341 1.524 . S
C1340 C1354 1.377 . S
C1341 C1340 1.524 . S
C1341 C1342 1.397 . S
C1341 C1346 1.363 . S
C1342 H1319 0.950 . S
C1342 C1341 1.397 . S
C1342 C1343 1.334 . S
C1343 H1320 0.950 . S
C1343 C1342 1.334 . S
C1343 C1344 1.287 . S
C1344 C1343 1.287 . S
C1344 C1345 1.524 . S
C1344 H1363 0.913 . S
C1345 H1321 0.950 . S
C1345 C1344 1.524 . S
C1345 C1346 1.415 . S
C1346 H1322 0.950 . S
C1346 C1341 1.363 . S
C1346 C1345 1.415 . S
C1347 H1323 0.951 . S
C1347 C1348 1.366 . S
C1347 C1349 1.388 . S
C1348 C1347 1.366 . S
C1348 C1352 1.385 . S
C1349 H1324 0.951 . S
C1349 C1347 1.388 . S
C1349 C1350 1.366 . S
C1350 C1349 1.366 . S
C1350 C1351 1.414 . S
C1350 C1353 1.499 . S
C1351 H1325 0.950 . S
C1351 C1350 1.414 . S
C1351 C1352 1.374 . S
C1352 H1326 0.950 . S
C1352 C1348 1.385 . S
C1352 C1351 1.374 . S
C1353 C1350 1.499 . S
C1353 C1354 1.373 . S
C1353 C1355 1.389 . S
C1354 H1327 0.950 . S
C1354 C1340 1.377 . S
C1354 C1353 1.373 . S
C1355 C1339 1.377 . S
C1355 C1353 1.389 . S
C1355 C1356 1.524 . S
C1356 C1355 1.524 . S
C1356 C1357 1.397 . S
C1356 C1361 1.363 . S
C1357 H1328 0.950 . S
C1357 C1356 1.397 . S
C1357 C1358 1.334 . S
C1358 H1329 0.950 . S
C1358 C1357 1.334 . S
C1358 C1359 1.287 . S
C1359 C1358 1.287 . S
C1359 C1360 1.524 . S
C1359 H1362 0.999 . S
C1360 H1330 0.950 . S
C1360 C1359 1.524 . S
C1360 C1361 1.415 . S
C1361 H1331 0.950 . S
C1361 C1356 1.363 . S
C1361 C1360 1.415 . S
H1362 C1359 0.999 . S
H1363 C1344 0.913 . S
H1364 C1382 0.951 . S
H1365 C1384 0.951 . S
H1366 C1386 0.950 . S
H1367 C1387 0.950 . S
H1368 C1389 0.950 . S
H1369 C1392 0.950 . S
H1370 C1393 0.950 . S
H1371 C1395 0.950 . S
H1372 C1396 0.950 . S
H1373 C1397 0.951 . S
H1374 C1399 0.951 . S
H1375 C1401 0.950 . S
H1376 C1402 0.950 . S
H1377 C1404 0.950 . S
H1378 C1407 0.950 . S
H1379 C1408 0.950 . S
H1380 C1410 0.950 . S
H1381 C1411 0.950 . S
C1382 H1364 0.951 . S
C1382 C1383 1.366 . S
C1382 C1384 1.388 . S
C1383 C1382 1.366 . S
C1383 C1387 1.385 . S
C1384 H1365 0.951 . S
C1384 C1382 1.388 . S
C1384 C1385 1.366 . S
C1385 C1384 1.366 . S
C1385 C1386 1.414 . S
C1385 C1388 1.499 . S
C1386 H1366 0.950 . S
C1386 C1385 1.414 . S
C1386 C1387 1.374 . S
C1387 H1367 0.950 . S
C1387 C1383 1.385 . S
C1387 C1386 1.374 . S
C1388 C1385 1.499 . S
C1388 C1389 1.373 . S
C1388 C1390 1.389 . S
C1389 H1368 0.950 . S
C1389 C1388 1.373 . S
C1389 C1405 1.377 . S
C1390 C1388 1.389 . S
C1390 C1391 1.524 . S
C1390 C1404 1.377 . S
C1391 C1390 1.524 . S
C1391 C1392 1.397 . S
C1391 C1396 1.363 . S
C1392 H1369 0.950 . S
C1392 C1391 1.397 . S
C1392 C1393 1.334 . S
C1393 H1370 0.950 . S
C1393 C1392 1.334 . S
C1393 C1394 1.287 . S
C1394 C1393 1.287 . S
C1394 C1395 1.524 . S
C1394 H1413 0.913 . S
C1395 H1371 0.950 . S
C1395 C1394 1.524 . S
C1395 C1396 1.415 . S
C1396 H1372 0.950 . S
C1396 C1391 1.363 . S
C1396 C1395 1.415 . S
C1397 H1373 0.951 . S
C1397 C1398 1.366 . S
C1397 C1399 1.388 . S
C1398 C1397 1.366 . S
C1398 C1402 1.385 . S
C1399 H1374 0.951 . S
C1399 C1397 1.388 . S
C1399 C1400 1.366 . S
C1400 C1399 1.366 . S
C1400 C1401 1.414 . S
C1400 C1403 1.499 . S
C1401 H1375 0.950 . S
C1401 C1400 1.414 . S
C1401 C1402 1.374 . S
C1402 H1376 0.950 . S
C1402 C1398 1.385 . S
C1402 C1401 1.374 . S
C1403 C1400 1.499 . S
C1403 C1404 1.373 . S
C1403 C1405 1.389 . S
C1404 H1377 0.950 . S
C1404 C1390 1.377 . S
C1404 C1403 1.373 . S
C1405 C1389 1.377 . S
C1405 C1403 1.389 . S
C1405 C1406 1.524 . S
C1406 C1405 1.524 . S
C1406 C1407 1.397 . S
C1406 C1411 1.363 . S
C1407 H1378 0.950 . S
C1407 C1406 1.397 . S
C1407 C1408 1.334 . S
C1408 H1379 0.950 . S
C1408 C1407 1.334 . S
C1408 C1409 1.287 . S
C1409 C1408 1.287 . S
C1409 C1410 1.524 . S
C1409 H1412 0.999 . S
C1410 H1380 0.950 . S
C1410 C1409 1.524 . S
C1410 C1411 1.415 . S
C1411 H1381 0.950 . S
C1411 C1406 1.363 . S
C1411 C1410 1.415 . S
H1412 C1409 0.999 . S
H1413 C1394 0.913 . S
H1414 C1432 0.951 . S
H1415 C1434 0.951 . S
H1416 C1436 0.950 . S
H1417 C1437 0.950 . S
H1418 C1439 0.950 . S
H1419 C1442 0.950 . S
H1420 C1443 0.950 . S
H1421 C1445 0.950 . S
H1422 C1446 0.950 . S
H1423 C1447 0.951 . S
H1424 C1449 0.951 . S
H1425 C1451 0.950 . S
H1426 C1452 0.950 . S
H1427 C1454 0.950 . S
H1428 C1457 0.950 . S
H1429 C1458 0.950 . S
H1430 C1460 0.950 . S
H1431 C1461 0.950 . S
C1432 H1414 0.951 . S
C1432 C1433 1.366 . S
C1432 C1434 1.388 . S
C1433 C1432 1.366 . S
C1433 C1437 1.385 . S
C1434 H1415 0.951 . S
C1434 C1432 1.388 . S
C1434 C1435 1.366 . S
C1435 C1434 1.366 . S
C1435 C1436 1.414 . S
C1435 C1438 1.499 . S
C1436 H1416 0.950 . S
C1436 C1435 1.414 . S
C1436 C1437 1.374 . S
C1437 H1417 0.950 . S
C1437 C1433 1.385 . S
C1437 C1436 1.374 . S
C1438 C1435 1.499 . S
C1438 C1439 1.373 . S
C1438 C1440 1.389 . S
C1439 H1418 0.950 . S
C1439 C1438 1.373 . S
C1439 C1455 1.377 . S
C1440 C1438 1.389 . S
C1440 C1441 1.524 . S
C1440 C1454 1.377 . S
C1441 C1440 1.524 . S
C1441 C1442 1.397 . S
C1441 C1446 1.363 . S
C1442 H1419 0.950 . S
C1442 C1441 1.397 . S
C1442 C1443 1.334 . S
C1443 H1420 0.950 . S
C1443 C1442 1.334 . S
C1443 C1444 1.287 . S
C1444 C1443 1.287 . S
C1444 C1445 1.524 . S
C1444 H1463 0.913 . S
C1445 H1421 0.950 . S
C1445 C1444 1.524 . S
C1445 C1446 1.415 . S
C1446 H1422 0.950 . S
C1446 C1441 1.363 . S
C1446 C1445 1.415 . S
C1447 H1423 0.951 . S
C1447 C1448 1.366 . S
C1447 C1449 1.388 . S
C1448 C1447 1.366 . S
C1448 C1452 1.385 . S
C1449 H1424 0.951 . S
C1449 C1447 1.388 . S
C1449 C1450 1.366 . S
C1450 C1449 1.366 . S
C1450 C1451 1.414 . S
C1450 C1453 1.499 . S
C1451 H1425 0.950 . S
C1451 C1450 1.414 . S
C1451 C1452 1.374 . S
C1452 H1426 0.950 . S
C1452 C1448 1.385 . S
C1452 C1451 1.374 . S
C1453 C1450 1.499 . S
C1453 C1454 1.373 . S
C1453 C1455 1.389 . S
C1454 H1427 0.950 . S
C1454 C1440 1.377 . S
C1454 C1453 1.373 . S
C1455 C1439 1.377 . S
C1455 C1453 1.389 . S
C1455 C1456 1.524 . S
C1456 C1455 1.524 . S
C1456 C1457 1.397 . S
C1456 C1461 1.363 . S
C1457 H1428 0.950 . S
C1457 C1456 1.397 . S
C1457 C1458 1.334 . S
C1458 H1429 0.950 . S
C1458 C1457 1.334 . S
C1458 C1459 1.287 . S
C1459 C1458 1.287 . S
C1459 C1460 1.524 . S
C1459 H1462 0.999 . S
C1460 H1430 0.950 . S
C1460 C1459 1.524 . S
C1460 C1461 1.415 . S
C1461 H1431 0.950 . S
C1461 C1456 1.363 . S
C1461 C1460 1.415 . S
H1462 C1459 0.999 . S
H1463 C1444 0.913 . S
H1464 C1482 0.951 . S
H1465 C1484 0.951 . S
H1466 C1486 0.950 . S
H1467 C1487 0.950 . S
H1468 C1489 0.950 . S
H1469 C1492 0.977 . S
H1470 C1493 0.950 . S
H1471 C1495 0.919 1_545 S
H1472 C1496 0.950 . S
H1473 C1497 0.951 . S
H1474 C1499 0.951 . S
H1475 C1501 0.950 . S
H1476 C1502 0.950 . S
H1477 C1504 0.950 . S
H1478 C1507 0.950 . S
H1479 C1508 0.950 . S
H1480 C1510 0.950 . S
H1481 C1511 0.950 . S
C1482 H1464 0.951 . S
C1482 C1483 1.366 . S
C1482 C1484 1.388 . S
C1483 C1482 1.366 . S
C1483 C1487 1.385 . S
C1484 H1465 0.951 . S
C1484 C1482 1.388 . S
C1484 C1485 1.366 . S
C1485 C1484 1.366 . S
C1485 C1486 1.414 . S
C1485 C1488 1.499 1_545 S
C1486 H1466 0.950 . S
C1486 C1485 1.414 . S
C1486 C1487 1.374 . S
C1487 H1467 0.950 . S
C1487 C1483 1.385 . S
C1487 C1486 1.374 . S
C1488 C1485 1.499 1_565 S
C1488 C1489 1.373 . S
C1488 C1490 1.389 . S
C1489 H1468 0.950 . S
C1489 C1488 1.373 . S
C1489 C1505 1.377 . S
C1490 C1488 1.389 . S
C1490 C1491 1.524 . S
C1490 C1504 1.377 . S
C1491 C1490 1.524 . S
C1491 C1492 1.411 . S
C1491 C1496 1.363 . S
C1492 H1469 0.977 . S
C1492 C1491 1.411 . S
C1492 C1493 1.295 1_565 S
C1493 H1470 0.950 . S
C1493 C1492 1.295 1_545 S
C1493 C1494 1.287 . S
C1494 C1493 1.287 . S
C1494 C1495 1.524 1_545 S
C1494 H1513 0.913 . S
C1495 H1471 0.919 1_565 S
C1495 C1494 1.524 1_565 S
C1495 C1496 1.415 . S
C1496 H1472 0.950 . S
C1496 C1491 1.363 . S
C1496 C1495 1.415 . S
C1497 H1473 0.951 . S
C1497 C1498 1.366 . S
C1497 C1499 1.388 . S
C1498 C1497 1.366 . S
C1498 C1502 1.385 . S
C1499 H1474 0.951 . S
C1499 C1497 1.388 . S
C1499 C1500 1.366 . S
C1500 C1499 1.366 . S
C1500 C1501 1.414 . S
C1500 C1503 1.499 . S
C1501 H1475 0.950 . S
C1501 C1500 1.414 . S
C1501 C1502 1.374 . S
C1502 H1476 0.950 . S
C1502 C1498 1.385 . S
C1502 C1501 1.374 . S
C1503 C1500 1.499 . S
C1503 C1504 1.373 . S
C1503 C1505 1.389 . S
C1504 H1477 0.950 . S
C1504 C1490 1.377 . S
C1504 C1503 1.373 . S
C1505 C1489 1.377 . S
C1505 C1503 1.389 . S
C1505 C1506 1.524 . S
C1506 C1505 1.524 . S
C1506 C1507 1.397 . S
C1506 C1511 1.363 . S
C1507 H1478 0.950 . S
C1507 C1506 1.397 . S
C1507 C1508 1.334 . S
C1508 H1479 0.950 . S
C1508 C1507 1.334 . S
C1508 C1509 1.287 . S
C1509 C1508 1.287 . S
C1509 C1510 1.524 . S
C1509 H1512 0.999 . S
C1510 H1480 0.950 . S
C1510 C1509 1.524 . S
C1510 C1511 1.415 . S
C1511 H1481 0.950 . S
C1511 C1506 1.363 . S
C1511 C1510 1.415 . S
H1512 C1509 0.999 . S
H1513 C1494 0.913 . S
H1514 C1532 0.951 . S
H1515 C1534 0.951 . S
H1516 C1536 0.950 1_455 S
H1517 C1537 0.950 . S
H1518 C1539 0.950 . S
H1519 C1542 0.950 . S
H1520 C1543 0.950 . S
H1521 C1545 0.950 . S
H1522 C1546 0.950 . S
H1523 C1547 0.951 . S
H1524 C1549 0.951 . S
H1525 C1551 0.950 . S
H1526 C1552 0.950 . S
H1527 C1554 0.950 . S
H1528 C1557 0.950 . S
H1529 C1558 0.950 . S
H1530 C1560 0.950 . S
H1531 C1561 0.950 . S
C1532 H1514 0.951 . S
C1532 C1533 1.366 . S
C1532 C1534 1.388 . S
C1533 C1532 1.366 . S
C1533 C1537 1.385 . S
C1534 H1515 0.951 . S
C1534 C1532 1.388 . S
C1534 C1535 1.366 . S
C1535 C1534 1.366 . S
C1535 C1536 1.414 . S
C1535 C1538 1.499 1_655 S
C1536 H1516 0.950 1_655 S
C1536 C1535 1.414 . S
C1536 C1537 1.374 . S
C1537 H1517 0.950 . S
C1537 C1533 1.385 . S
C1537 C1536 1.374 . S
C1538 C1535 1.499 1_455 S
C1538 C1539 1.373 . S
C1538 C1540 1.389 . S
C1539 H1518 0.950 . S
C1539 C1538 1.373 . S
C1539 C1555 1.377 . S
C1540 C1538 1.389 . S
C1540 C1541 1.524 . S
C1540 C1554 1.377 . S
C1541 C1540 1.524 . S
C1541 C1542 1.397 . S
C1541 C1546 1.363 . S
C1542 H1519 0.950 . S
C1542 C1541 1.397 . S
C1542 C1543 1.334 . S
C1543 H1520 0.950 . S
C1543 C1542 1.334 . S
C1543 C1544 1.287 . S
C1544 C1543 1.287 . S
C1544 C1545 1.524 . S
C1544 H1563 0.913 . S
C1545 H1521 0.950 . S
C1545 C1544 1.524 . S
C1545 C1546 1.415 . S
C1546 H1522 0.950 . S
C1546 C1541 1.363 . S
C1546 C1545 1.415 . S
C1547 H1523 0.951 . S
C1547 C1548 1.366 . S
C1547 C1549 1.388 . S
C1548 C1547 1.366 . S
C1548 C1552 1.385 . S
C1549 H1524 0.951 . S
C1549 C1547 1.388 . S
C1549 C1550 1.366 . S
C1550 C1549 1.366 . S
C1550 C1551 1.414 . S
C1550 C1553 1.499 . S
C1551 H1525 0.950 . S
C1551 C1550 1.414 . S
C1551 C1552 1.374 . S
C1552 H1526 0.950 . S
C1552 C1548 1.385 . S
C1552 C1551 1.374 . S
C1553 C1550 1.499 . S
C1553 C1554 1.373 . S
C1553 C1555 1.389 . S
C1554 H1527 0.950 . S
C1554 C1540 1.377 . S
C1554 C1553 1.373 . S
C1555 C1539 1.377 . S
C1555 C1553 1.389 . S
C1555 C1556 1.524 . S
C1556 C1555 1.524 . S
C1556 C1557 1.397 . S
C1556 C1561 1.363 . S
C1557 H1528 0.950 . S
C1557 C1556 1.397 . S
C1557 C1558 1.334 . S
C1558 H1529 0.950 . S
C1558 C1557 1.334 . S
C1558 C1559 1.287 . S
C1559 C1558 1.287 . S
C1559 C1560 1.524 . S
C1559 H1562 0.999 . S
C1560 H1530 0.950 . S
C1560 C1559 1.524 . S
C1560 C1561 1.415 . S
C1561 H1531 0.950 . S
C1561 C1556 1.363 . S
C1561 C1560 1.415 . S
H1562 C1559 0.999 . S
H1563 C1544 0.913 . S
H1564 C1582 0.951 . S
H1565 C1584 0.951 . S
H1566 C1586 0.950 . S
H1567 C1587 0.950 . S
H1568 C1589 0.950 . S
H1569 C1592 0.950 . S
H1570 C1593 0.950 . S
H1571 C1595 0.950 . S
H1572 C1596 0.950 . S
H1573 C1597 0.951 . S
H1574 C1599 0.951 . S
H1575 C1601 0.950 . S
H1576 C1602 0.950 . S
H1577 C1604 0.950 . S
H1578 C1607 0.950 . S
H1579 C1608 0.950 . S
H1580 C1610 0.950 . S
H1581 C1611 0.950 . S
C1582 H1564 0.951 . S
C1582 C1583 1.366 . S
C1582 C1584 1.388 . S
C1583 C1582 1.366 . S
C1583 C1587 1.385 . S
C1584 H1565 0.951 . S
C1584 C1582 1.388 . S
C1584 C1585 1.366 . S
C1585 C1584 1.366 . S
C1585 C1586 1.414 . S
C1585 C1588 1.499 . S
C1586 H1566 0.950 . S
C1586 C1585 1.414 . S
C1586 C1587 1.374 . S
C1587 H1567 0.950 . S
C1587 C1583 1.385 . S
C1587 C1586 1.374 . S
C1588 C1585 1.499 . S
C1588 C1589 1.373 . S
C1588 C1590 1.389 . S
C1589 H1568 0.950 . S
C1589 C1588 1.373 . S
C1589 C1605 1.377 . S
C1590 C1588 1.389 . S
C1590 C1591 1.524 . S
C1590 C1604 1.377 . S
C1591 C1590 1.524 . S
C1591 C1592 1.397 . S
C1591 C1596 1.363 . S
C1592 H1569 0.950 . S
C1592 C1591 1.397 . S
C1592 C1593 1.334 . S
C1593 H1570 0.950 . S
C1593 C1592 1.334 . S
C1593 C1594 1.287 . S
C1594 C1593 1.287 . S
C1594 C1595 1.524 . S
C1594 H1613 0.913 . S
C1595 H1571 0.950 . S
C1595 C1594 1.524 . S
C1595 C1596 1.415 . S
C1596 H1572 0.950 . S
C1596 C1591 1.363 . S
C1596 C1595 1.415 . S
C1597 H1573 0.951 . S
C1597 C1598 1.366 . S
C1597 C1599 1.388 . S
C1598 C1597 1.366 . S
C1598 C1602 1.385 . S
C1599 H1574 0.951 . S
C1599 C1597 1.388 . S
C1599 C1600 1.366 . S
C1600 C1599 1.366 . S
C1600 C1601 1.414 . S
C1600 C1603 1.499 . S
C1601 H1575 0.950 . S
C1601 C1600 1.414 . S
C1601 C1602 1.374 . S
C1602 H1576 0.950 . S
C1602 C1598 1.385 . S
C1602 C1601 1.374 . S
C1603 C1600 1.499 . S
C1603 C1604 1.373 . S
C1603 C1605 1.389 . S
C1604 H1577 0.950 . S
C1604 C1590 1.377 . S
C1604 C1603 1.373 . S
C1605 C1589 1.377 . S
C1605 C1603 1.389 . S
C1605 C1606 1.524 . S
C1606 C1605 1.524 . S
C1606 C1607 1.397 . S
C1606 C1611 1.363 . S
C1607 H1578 0.950 . S
C1607 C1606 1.397 . S
C1607 C1608 1.334 . S
C1608 H1579 0.950 . S
C1608 C1607 1.334 . S
C1608 C1609 1.287 . S
C1609 C1608 1.287 . S
C1609 C1610 1.524 . S
C1609 H1612 0.999 . S
C1610 H1580 0.950 . S
C1610 C1609 1.524 . S
C1610 C1611 1.415 . S
C1611 H1581 0.950 . S
C1611 C1606 1.363 . S
C1611 C1610 1.415 . S
H1612 C1609 0.999 . S
H1613 C1594 0.913 . S
H1614 C1632 0.951 . S
H1615 C1634 0.951 . S
H1616 C1636 0.950 . S
H1617 C1637 0.950 . S
H1618 C1639 0.950 . S
H1619 C1642 0.950 . S
H1620 C1643 0.950 . S
H1621 C1645 0.950 . S
H1622 C1646 0.950 . S
H1623 C1647 0.951 . S
H1624 C1649 0.951 . S
H1625 C1651 0.950 . S
H1626 C1652 0.950 . S
H1627 C1654 0.950 . S
H1628 C1657 0.950 . S
H1629 C1658 0.950 . S
H1630 C1660 0.950 . S
H1631 C1661 0.950 . S
C1632 H1614 0.951 . S
C1632 C1633 1.366 . S
C1632 C1634 1.388 . S
C1633 C1632 1.366 . S
C1633 C1637 1.385 . S
C1634 H1615 0.951 . S
C1634 C1632 1.388 . S
C1634 C1635 1.366 . S
C1635 C1634 1.366 . S
C1635 C1636 1.414 . S
C1635 C1638 1.499 . S
C1636 H1616 0.950 . S
C1636 C1635 1.414 . S
C1636 C1637 1.374 . S
C1637 H1617 0.950 . S
C1637 C1633 1.385 . S
C1637 C1636 1.374 . S
C1638 C1635 1.499 . S
C1638 C1639 1.373 . S
C1638 C1640 1.389 . S
C1639 H1618 0.950 . S
C1639 C1638 1.373 . S
C1639 C1655 1.377 . S
C1640 C1638 1.389 . S
C1640 C1641 1.524 . S
C1640 C1654 1.377 . S
C1641 C1640 1.524 . S
C1641 C1642 1.397 . S
C1641 C1646 1.363 . S
C1642 H1619 0.950 . S
C1642 C1641 1.397 . S
C1642 C1643 1.334 . S
C1643 H1620 0.950 . S
C1643 C1642 1.334 . S
C1643 C1644 1.287 . S
C1644 C1643 1.287 . S
C1644 C1645 1.524 . S
C1644 H1663 0.913 . S
C1645 H1621 0.950 . S
C1645 C1644 1.524 . S
C1645 C1646 1.415 . S
C1646 H1622 0.950 . S
C1646 C1641 1.363 . S
C1646 C1645 1.415 . S
C1647 H1623 0.951 . S
C1647 C1648 1.366 . S
C1647 C1649 1.388 . S
C1648 C1647 1.366 . S
C1648 C1652 1.385 . S
C1649 H1624 0.951 . S
C1649 C1647 1.388 . S
C1649 C1650 1.366 . S
C1650 C1649 1.366 . S
C1650 C1651 1.414 . S
C1650 C1653 1.499 . S
C1651 H1625 0.950 . S
C1651 C1650 1.414 . S
C1651 C1652 1.374 . S
C1652 H1626 0.950 . S
C1652 C1648 1.385 . S
C1652 C1651 1.374 . S
C1653 C1650 1.499 . S
C1653 C1654 1.373 . S
C1653 C1655 1.389 . S
C1654 H1627 0.950 . S
C1654 C1640 1.377 . S
C1654 C1653 1.373 . S
C1655 C1639 1.377 . S
C1655 C1653 1.389 . S
C1655 C1656 1.524 . S
C1656 C1655 1.524 . S
C1656 C1657 1.397 . S
C1656 C1661 1.363 . S
C1657 H1628 0.950 . S
C1657 C1656 1.397 . S
C1657 C1658 1.334 . S
C1658 H1629 0.950 . S
C1658 C1657 1.334 . S
C1658 C1659 1.287 . S
C1659 C1658 1.287 . S
C1659 C1660 1.524 . S
C1659 H1662 0.999 . S
C1660 H1630 0.950 . S
C1660 C1659 1.524 . S
C1660 C1661 1.415 . S
C1661 H1631 0.950 . S
C1661 C1656 1.363 . S
C1661 C1660 1.415 . S
H1662 C1659 0.999 . S
H1663 C1644 0.913 . S
H1664 C1682 0.951 . S
H1665 C1684 0.951 . S
H1666 C1686 0.950 . S
H1667 C1687 0.950 . S
H1668 C1689 0.950 . S
H1669 C1692 0.950 . S
H1670 C1693 0.950 . S
H1671 C1695 0.950 . S
H1672 C1696 0.950 . S
H1673 C1697 0.951 . S
H1674 C1699 0.951 . S
H1675 C1701 0.950 . S
H1676 C1702 0.950 . S
H1677 C1704 0.950 . S
H1678 C1707 0.950 . S
H1679 C1708 0.950 . S
H1680 C1710 0.950 . S
H1681 C1711 0.950 . S
C1682 H1664 0.951 . S
C1682 C1683 1.366 . S
C1682 C1684 1.388 . S
C1683 C1682 1.366 . S
C1683 C1687 1.385 . S
C1684 H1665 0.951 . S
C1684 C1682 1.388 . S
C1684 C1685 1.366 . S
C1685 C1684 1.366 . S
C1685 C1686 1.414 . S
C1685 C1688 1.499 . S
C1686 H1666 0.950 . S
C1686 C1685 1.414 . S
C1686 C1687 1.374 . S
C1687 H1667 0.950 . S
C1687 C1683 1.385 . S
C1687 C1686 1.374 . S
C1688 C1685 1.499 . S
C1688 C1689 1.373 . S
C1688 C1690 1.389 . S
C1689 H1668 0.950 . S
C1689 C1688 1.373 . S
C1689 C1705 1.377 . S
C1690 C1688 1.389 . S
C1690 C1691 1.524 . S
C1690 C1704 1.377 . S
C1691 C1690 1.524 . S
C1691 C1692 1.397 . S
C1691 C1696 1.363 . S
C1692 H1669 0.950 . S
C1692 C1691 1.397 . S
C1692 C1693 1.334 . S
C1693 H1670 0.950 . S
C1693 C1692 1.334 . S
C1693 C1694 1.287 . S
C1694 C1693 1.287 . S
C1694 C1695 1.524 . S
C1694 H1713 0.913 . S
C1695 H1671 0.950 . S
C1695 C1694 1.524 . S
C1695 C1696 1.415 . S
C1696 H1672 0.950 . S
C1696 C1691 1.363 . S
C1696 C1695 1.415 . S
C1697 H1673 0.951 . S
C1697 C1698 1.366 . S
C1697 C1699 1.388 . S
C1698 C1697 1.366 . S
C1698 C1702 1.385 . S
C1699 H1674 0.951 . S
C1699 C1697 1.388 . S
C1699 C1700 1.366 . S
C1700 C1699 1.366 . S
C1700 C1701 1.414 . S
C1700 C1703 1.499 . S
C1701 H1675 0.950 . S
C1701 C1700 1.414 . S
C1701 C1702 1.374 . S
C1702 H1676 0.950 . S
C1702 C1698 1.385 . S
C1702 C1701 1.374 . S
C1703 C1700 1.499 . S
C1703 C1704 1.373 . S
C1703 C1705 1.389 . S
C1704 H1677 0.950 . S
C1704 C1690 1.377 . S
C1704 C1703 1.373 . S
C1705 C1689 1.377 . S
C1705 C1703 1.389 . S
C1705 C1706 1.524 . S
C1706 C1705 1.524 . S
C1706 C1707 1.397 . S
C1706 C1711 1.363 . S
C1707 H1678 0.950 . S
C1707 C1706 1.397 . S
C1707 C1708 1.334 . S
C1708 H1679 0.950 . S
C1708 C1707 1.334 . S
C1708 C1709 1.287 . S
C1709 C1708 1.287 . S
C1709 C1710 1.524 . S
C1709 H1712 0.999 . S
C1710 H1680 0.950 . S
C1710 C1709 1.524 . S
C1710 C1711 1.415 . S
C1711 H1681 0.950 . S
C1711 C1706 1.363 . S
C1711 C1710 1.415 . S
H1712 C1709 0.999 . S
H1713 C1694 0.913 . S
H1714 C1732 0.951 . S
H1715 C1734 0.951 . S
H1716 C1736 0.950 . S
H1717 C1737 0.950 . S
H1718 C1739 0.950 . S
H1719 C1742 0.950 . S
H1720 C1743 0.950 . S
H1721 C1745 0.950 . S
H1722 C1746 0.950 . S
H1723 C1747 0.951 . S
H1724 C1749 0.951 . S
H1725 C1751 0.950 . S
H1726 C1752 0.950 . S
H1727 C1754 0.950 . S
H1728 C1757 0.950 . S
H1729 C1758 0.950 . S
H1730 C1760 0.950 . S
H1731 C1761 0.950 . S
C1732 H1714 0.951 . S
C1732 C1733 1.366 . S
C1732 C1734 1.388 . S
C1733 C1732 1.366 . S
C1733 C1737 1.385 . S
C1734 H1715 0.951 . S
C1734 C1732 1.388 . S
C1734 C1735 1.366 . S
C1735 C1734 1.366 . S
C1735 C1736 1.414 . S
C1735 C1738 1.499 . S
C1736 H1716 0.950 . S
C1736 C1735 1.414 . S
C1736 C1737 1.374 . S
C1737 H1717 0.950 . S
C1737 C1733 1.385 . S
C1737 C1736 1.374 . S
C1738 C1735 1.499 . S
C1738 C1739 1.373 . S
C1738 C1740 1.389 . S
C1739 H1718 0.950 . S
C1739 C1738 1.373 . S
C1739 C1755 1.377 . S
C1740 C1738 1.389 . S
C1740 C1741 1.524 . S
C1740 C1754 1.377 . S
C1741 C1740 1.524 . S
C1741 C1742 1.397 . S
C1741 C1746 1.363 . S
C1742 H1719 0.950 . S
C1742 C1741 1.397 . S
C1742 C1743 1.334 . S
C1743 H1720 0.950 . S
C1743 C1742 1.334 . S
C1743 C1744 1.287 . S
C1744 C1743 1.287 . S
C1744 C1745 1.524 . S
C1744 H1763 0.913 . S
C1745 H1721 0.950 . S
C1745 C1744 1.524 . S
C1745 C1746 1.415 . S
C1746 H1722 0.950 . S
C1746 C1741 1.363 . S
C1746 C1745 1.415 . S
C1747 H1723 0.951 . S
C1747 C1748 1.366 . S
C1747 C1749 1.388 . S
C1748 C1747 1.366 . S
C1748 C1752 1.385 . S
C1749 H1724 0.951 . S
C1749 C1747 1.388 . S
C1749 C1750 1.366 . S
C1750 C1749 1.366 . S
C1750 C1751 1.414 . S
C1750 C1753 1.499 . S
C1751 H1725 0.950 . S
C1751 C1750 1.414 . S
C1751 C1752 1.374 . S
C1752 H1726 0.950 . S
C1752 C1748 1.385 . S
C1752 C1751 1.374 . S
C1753 C1750 1.499 . S
C1753 C1754 1.373 . S
C1753 C1755 1.389 . S
C1754 H1727 0.950 . S
C1754 C1740 1.377 . S
C1754 C1753 1.373 . S
C1755 C1739 1.377 . S
C1755 C1753 1.389 . S
C1755 C1756 1.524 . S
C1756 C1755 1.524 . S
C1756 C1757 1.397 . S
C1756 C1761 1.363 . S
C1757 H1728 0.950 . S
C1757 C1756 1.397 . S
C1757 C1758 1.334 . S
C1758 H1729 0.950 . S
C1758 C1757 1.334 . S
C1758 C1759 1.287 . S
C1759 C1758 1.287 . S
C1759 C1760 1.524 . S
C1759 H1762 0.999 . S
C1760 H1730 0.950 . S
C1760 C1759 1.524 . S
C1760 C1761 1.415 . S
C1761 H1731 0.950 . S
C1761 C1756 1.363 . S
C1761 C1760 1.415 . S
H1762 C1759 0.999 . S
H1763 C1744 0.913 . S
H1764 C1782 0.951 . S
H1765 C1784 0.951 . S
H1766 C1786 0.950 . S
H1767 C1787 0.950 . S
H1768 C1789 0.946 . S
H1769 C1792 0.950 . S
H1770 C1793 0.950 . S
H1771 C1795 0.950 . S
H1772 C1796 0.950 . S
H1773 C1797 0.951 . S
H1774 C1799 0.951 . S
H1775 C1801 0.950 . S
H1776 C1802 0.950 . S
H1777 C1804 0.950 . S
H1778 C1807 0.950 . S
H1779 C1808 0.950 . S
H1780 C1810 0.950 . S
H1781 C1811 0.950 . S
C1782 H1764 0.951 . S
C1782 C1783 1.366 . S
C1782 C1784 1.388 . S
C1783 C1782 1.366 . S
C1783 C1787 1.385 . S
C1784 H1765 0.951 . S
C1784 C1782 1.388 . S
C1784 C1785 1.366 . S
C1785 C1784 1.366 . S
C1785 C1786 1.414 . S
C1785 C1788 1.499 . S
C1786 H1766 0.950 . S
C1786 C1785 1.414 . S
C1786 C1787 1.374 . S
C1787 H1767 0.950 . S
C1787 C1783 1.385 . S
C1787 C1786 1.374 . S
C1788 C1785 1.499 . S
C1788 C1789 1.386 . S
C1788 C1790 1.389 . S
C1789 H1768 0.946 . S
C1789 C1788 1.386 . S
C1789 C1805 1.368 1_565 S
C1790 C1788 1.389 . S
C1790 C1791 1.524 . S
C1790 C1804 1.377 1_565 S
C1791 C1790 1.524 . S
C1791 C1792 1.397 . S
C1791 C1796 1.363 . S
C1792 H1769 0.950 . S
C1792 C1791 1.397 . S
C1792 C1793 1.334 . S
C1793 H1770 0.950 . S
C1793 C1792 1.334 . S
C1793 C1794 1.287 . S
C1794 C1793 1.287 . S
C1794 C1795 1.524 . S
C1794 H1813 0.913 . S
C1795 H1771 0.950 . S
C1795 C1794 1.524 . S
C1795 C1796 1.415 . S
C1796 H1772 0.950 . S
C1796 C1791 1.363 . S
C1796 C1795 1.415 . S
C1797 H1773 0.951 . S
C1797 C1798 1.366 . S
C1797 C1799 1.388 . S
C1798 C1797 1.366 . S
C1798 C1802 1.385 . S
C1799 H1774 0.951 . S
C1799 C1797 1.388 . S
C1799 C1800 1.366 . S
C1800 C1799 1.366 . S
C1800 C1801 1.414 . S
C1800 C1803 1.499 . S
C1801 H1775 0.950 . S
C1801 C1800 1.414 . S
C1801 C1802 1.374 . S
C1802 H1776 0.950 . S
C1802 C1798 1.385 . S
C1802 C1801 1.374 . S
C1803 C1800 1.499 . S
C1803 C1804 1.373 . S
C1803 C1805 1.389 . S
C1804 H1777 0.950 . S
C1804 C1790 1.377 1_545 S
C1804 C1803 1.373 . S
C1805 C1789 1.368 1_545 S
C1805 C1803 1.389 . S
C1805 C1806 1.524 . S
C1806 C1805 1.524 . S
C1806 C1807 1.397 . S
C1806 C1811 1.363 . S
C1807 H1778 0.950 . S
C1807 C1806 1.397 . S
C1807 C1808 1.334 . S
C1808 H1779 0.950 . S
C1808 C1807 1.334 . S
C1808 C1809 1.287 . S
C1809 C1808 1.287 . S
C1809 C1810 1.524 . S
C1809 H1812 0.999 . S
C1810 H1780 0.950 . S
C1810 C1809 1.524 . S
C1810 C1811 1.415 . S
C1811 H1781 0.950 . S
C1811 C1806 1.363 . S
C1811 C1810 1.415 . S
H1812 C1809 0.999 . S
H1813 C1794 0.913 . S
H1814 C1832 0.951 . S
H1815 C1834 0.951 . S
H1816 C1836 0.950 . S
H1817 C1837 0.950 . S
H1818 C1839 0.950 . S
H1819 C1842 0.950 . S
H1820 C1843 0.950 . S
H1821 C1845 0.950 . S
H1822 C1846 0.950 . S
H1823 C1847 0.951 . S
H1824 C1849 0.951 . S
H1825 C1851 0.950 . S
H1826 C1852 0.950 . S
H1827 C1854 0.950 . S
H1828 C1857 0.950 . S
H1829 C1858 0.950 . S
H1830 C1860 0.939 . S
H1831 C1861 0.950 . S
C1832 H1814 0.951 . S
C1832 C1833 1.366 . S
C1832 C1834 1.388 . S
C1833 C1832 1.366 . S
C1833 C1837 1.385 . S
C1834 H1815 0.951 . S
C1834 C1832 1.388 . S
C1834 C1835 1.366 . S
C1835 C1834 1.366 . S
C1835 C1836 1.414 . S
C1835 C1838 1.499 . S
C1836 H1816 0.950 . S
C1836 C1835 1.414 . S
C1836 C1837 1.374 . S
C1837 H1817 0.950 . S
C1837 C1833 1.385 . S
C1837 C1836 1.374 . S
C1838 C1835 1.499 . S
C1838 C1839 1.373 . S
C1838 C1840 1.389 . S
C1839 H1818 0.950 . S
C1839 C1838 1.373 . S
C1839 C1855 1.371 . S
C1840 C1838 1.389 . S
C1840 C1841 1.524 . S
C1840 C1854 1.377 1_455 S
C1841 C1840 1.524 . S
C1841 C1842 1.397 . S
C1841 C1846 1.363 . S
C1842 H1819 0.950 . S
C1842 C1841 1.397 . S
C1842 C1843 1.334 . S
C1843 H1820 0.950 . S
C1843 C1842 1.334 . S
C1843 C1844 1.287 . S
C1844 C1843 1.287 . S
C1844 C1845 1.524 . S
C1844 H1863 0.913 . S
C1845 H1821 0.950 . S
C1845 C1844 1.524 . S
C1845 C1846 1.415 . S
C1846 H1822 0.950 . S
C1846 C1841 1.363 . S
C1846 C1845 1.415 . S
C1847 H1823 0.951 . S
C1847 C1848 1.366 . S
C1847 C1849 1.388 . S
C1848 C1847 1.366 . S
C1848 C1852 1.385 . S
C1849 H1824 0.951 . S
C1849 C1847 1.388 . S
C1849 C1850 1.366 . S
C1850 C1849 1.366 . S
C1850 C1851 1.414 . S
C1850 C1853 1.499 . S
C1851 H1825 0.950 . S
C1851 C1850 1.414 . S
C1851 C1852 1.374 . S
C1852 H1826 0.950 . S
C1852 C1848 1.385 . S
C1852 C1851 1.374 . S
C1853 C1850 1.499 . S
C1853 C1854 1.373 . S
C1853 C1855 1.391 1_655 S
C1854 H1827 0.950 . S
C1854 C1840 1.377 1_655 S
C1854 C1853 1.373 . S
C1855 C1839 1.371 . S
C1855 C1853 1.391 1_455 S
C1855 C1856 1.528 1_455 S
C1856 C1855 1.528 1_655 S
C1856 C1857 1.397 . S
C1856 C1861 1.363 1_655 S
C1857 H1828 0.950 . S
C1857 C1856 1.397 . S
C1857 C1858 1.334 . S
C1858 H1829 0.950 . S
C1858 C1857 1.334 . S
C1858 C1859 1.287 . S
C1859 C1858 1.287 . S
C1859 C1860 1.506 1_655 S
C1859 H1862 0.999 . S
C1860 H1830 0.939 . S
C1860 C1859 1.506 1_455 S
C1860 C1861 1.450 . S
C1861 H1831 0.950 . S
C1861 C1856 1.363 1_455 S
C1861 C1860 1.450 . S
H1862 C1859 0.999 . S
H1863 C1844 0.913 . S
H1864 C1882 0.951 . S
H1865 C1884 0.951 . S
H1866 C1886 0.950 . S
H1867 C1887 0.950 . S
H1868 C1889 0.950 . S
H1869 C1892 0.950 . S
H1870 C1893 0.950 . S
H1871 C1895 0.950 . S
H1872 C1896 0.950 . S
H1873 C1897 0.951 . S
H1874 C1899 0.951 . S
H1875 C1901 0.950 . S
H1876 C1902 0.950 . S
H1877 C1904 0.950 . S
H1878 C1907 0.950 . S
H1879 C1908 0.950 . S
H1880 C1910 0.950 . S
H1881 C1911 0.950 . S
C1882 H1864 0.951 . S
C1882 C1883 1.366 . S
C1882 C1884 1.388 . S
C1883 C1882 1.366 . S
C1883 C1887 1.385 . S
C1884 H1865 0.951 . S
C1884 C1882 1.388 . S
C1884 C1885 1.366 . S
C1885 C1884 1.366 . S
C1885 C1886 1.414 . S
C1885 C1888 1.499 . S
C1886 H1866 0.950 . S
C1886 C1885 1.414 . S
C1886 C1887 1.374 . S
C1887 H1867 0.950 . S
C1887 C1883 1.385 . S
C1887 C1886 1.374 . S
C1888 C1885 1.499 . S
C1888 C1889 1.373 . S
C1888 C1890 1.389 . S
C1889 H1868 0.950 . S
C1889 C1888 1.373 . S
C1889 C1905 1.377 . S
C1890 C1888 1.389 . S
C1890 C1891 1.524 . S
C1890 C1904 1.377 . S
C1891 C1890 1.524 . S
C1891 C1892 1.397 . S
C1891 C1896 1.363 . S
C1892 H1869 0.950 . S
C1892 C1891 1.397 . S
C1892 C1893 1.334 . S
C1893 H1870 0.950 . S
C1893 C1892 1.334 . S
C1893 C1894 1.287 . S
C1894 C1893 1.287 . S
C1894 C1895 1.524 . S
C1894 H1913 0.913 . S
C1895 H1871 0.950 . S
C1895 C1894 1.524 . S
C1895 C1896 1.415 . S
C1896 H1872 0.950 . S
C1896 C1891 1.363 . S
C1896 C1895 1.415 . S
C1897 H1873 0.951 . S
C1897 C1898 1.366 . S
C1897 C1899 1.388 . S
C1898 C1897 1.366 . S
C1898 C1902 1.385 . S
C1899 H1874 0.951 . S
C1899 C1897 1.388 . S
C1899 C1900 1.366 . S
C1900 C1899 1.366 . S
C1900 C1901 1.414 . S
C1900 C1903 1.499 . S
C1901 H1875 0.950 . S
C1901 C1900 1.414 . S
C1901 C1902 1.374 . S
C1902 H1876 0.950 . S
C1902 C1898 1.385 . S
C1902 C1901 1.374 . S
C1903 C1900 1.499 . S
C1903 C1904 1.373 . S
C1903 C1905 1.389 . S
C1904 H1877 0.950 . S
C1904 C1890 1.377 . S
C1904 C1903 1.373 . S
C1905 C1889 1.377 . S
C1905 C1903 1.389 . S
C1905 C1906 1.524 . S
C1906 C1905 1.524 . S
C1906 C1907 1.397 . S
C1906 C1911 1.363 . S
C1907 H1878 0.950 . S
C1907 C1906 1.397 . S
C1907 C1908 1.334 . S
C1908 H1879 0.950 . S
C1908 C1907 1.334 . S
C1908 C1909 1.287 . S
C1909 C1908 1.287 . S
C1909 C1910 1.524 . S
C1909 H1912 0.999 . S
C1910 H1880 0.950 . S
C1910 C1909 1.524 . S
C1910 C1911 1.415 . S
C1911 H1881 0.950 . S
C1911 C1906 1.363 . S
C1911 C1910 1.415 . S
H1912 C1909 0.999 . S
H1913 C1894 0.913 . S
H1914 C1932 0.951 . S
H1915 C1934 0.951 . S
H1916 C1936 0.950 . S
H1917 C1937 0.950 . S
H1918 C1939 0.950 . S
H1919 C1942 0.950 . S
H1920 C1943 0.950 . S
H1921 C1945 0.950 . S
H1922 C1946 0.950 . S
H1923 C1947 0.951 . S
H1924 C1949 0.951 . S
H1925 C1951 0.950 . S
H1926 C1952 0.950 . S
H1927 C1954 0.950 . S
H1928 C1957 0.950 . S
H1929 C1958 0.950 . S
H1930 C1960 0.950 . S
H1931 C1961 0.950 . S
C1932 H1914 0.951 . S
C1932 C1933 1.366 . S
C1932 C1934 1.388 . S
C1933 C1932 1.366 . S
C1933 C1937 1.385 . S
C1934 H1915 0.951 . S
C1934 C1932 1.388 . S
C1934 C1935 1.366 . S
C1935 C1934 1.366 . S
C1935 C1936 1.414 . S
C1935 C1938 1.499 1_455 S
C1936 H1916 0.950 . S
C1936 C1935 1.414 . S
C1936 C1937 1.374 . S
C1937 H1917 0.950 . S
C1937 C1933 1.385 . S
C1937 C1936 1.374 . S
C1938 C1935 1.499 1_655 S
C1938 C1939 1.373 . S
C1938 C1940 1.389 . S
C1939 H1918 0.950 . S
C1939 C1938 1.373 . S
C1939 C1955 1.377 . S
C1940 C1938 1.389 . S
C1940 C1941 1.524 . S
C1940 C1954 1.377 . S
C1941 C1940 1.524 . S
C1941 C1942 1.397 1_655 S
C1941 C1946 1.363 . S
C1942 H1919 0.950 . S
C1942 C1941 1.397 1_455 S
C1942 C1943 1.334 . S
C1943 H1920 0.950 . S
C1943 C1942 1.334 . S
C1943 C1944 1.287 . S
C1944 C1943 1.287 . S
C1944 C1945 1.524 . S
C1944 H1963 0.913 . S
C1945 H1921 0.950 . S
C1945 C1944 1.524 . S
C1945 C1946 1.415 1_455 S
C1946 H1922 0.950 . S
C1946 C1941 1.363 . S
C1946 C1945 1.415 1_655 S
C1947 H1923 0.951 . S
C1947 C1948 1.366 . S
C1947 C1949 1.388 . S
C1948 C1947 1.366 . S
C1948 C1952 1.385 . S
C1949 H1924 0.951 . S
C1949 C1947 1.388 . S
C1949 C1950 1.366 . S
C1950 C1949 1.366 . S
C1950 C1951 1.414 . S
C1950 C1953 1.499 . S
C1951 H1925 0.950 . S
C1951 C1950 1.414 . S
C1951 C1952 1.374 . S
C1952 H1926 0.950 . S
C1952 C1948 1.385 . S
C1952 C1951 1.374 . S
C1953 C1950 1.499 . S
C1953 C1954 1.373 . S
C1953 C1955 1.389 . S
C1954 H1927 0.950 . S
C1954 C1940 1.377 . S
C1954 C1953 1.373 . S
C1955 C1939 1.377 . S
C1955 C1953 1.389 . S
C1955 C1956 1.524 . S
C1956 C1955 1.524 . S
C1956 C1957 1.397 . S
C1956 C1961 1.363 . S
C1957 H1928 0.950 . S
C1957 C1956 1.397 . S
C1957 C1958 1.334 . S
C1958 H1929 0.950 . S
C1958 C1957 1.334 . S
C1958 C1959 1.287 . S
C1959 C1958 1.287 . S
C1959 C1960 1.524 . S
C1959 H1962 0.999 . S
C1960 H1930 0.950 . S
C1960 C1959 1.524 . S
C1960 C1961 1.415 . S
C1961 H1931 0.950 . S
C1961 C1956 1.363 . S
C1961 C1960 1.415 . S
H1962 C1959 0.999 . S
H1963 C1944 0.913 . S
H1964 C1982 0.951 . S
H1965 C1984 0.951 . S
H1966 C1986 0.950 . S
H1967 C1987 0.950 . S
H1968 C1989 0.950 . S
H1969 C1992 0.950 . S
H1970 C1993 0.950 . S
H1971 C1995 0.950 . S
H1972 C1996 0.950 . S
H1973 C1997 0.951 . S
H1974 C1999 0.951 . S
H1975 C2001 0.950 . S
H1976 C2002 0.950 . S
H1977 C2004 0.950 . S
H1978 C2007 0.950 . S
H1979 C2008 0.950 . S
H1980 C2010 0.950 . S
H1981 C2011 0.950 . S
C1982 H1964 0.951 . S
C1982 C1983 1.366 . S
C1982 C1984 1.388 . S
C1983 C1982 1.366 . S
C1983 C1987 1.385 . S
C1984 H1965 0.951 . S
C1984 C1982 1.388 . S
C1984 C1985 1.366 . S
C1985 C1984 1.366 . S
C1985 C1986 1.414 . S
C1985 C1988 1.499 . S
C1986 H1966 0.950 . S
C1986 C1985 1.414 . S
C1986 C1987 1.374 . S
C1987 H1967 0.950 . S
C1987 C1983 1.385 . S
C1987 C1986 1.374 . S
C1988 C1985 1.499 . S
C1988 C1989 1.373 . S
C1988 C1990 1.389 . S
C1989 H1968 0.950 . S
C1989 C1988 1.373 . S
C1989 C2005 1.377 . S
C1990 C1988 1.389 . S
C1990 C1991 1.524 . S
C1990 C2004 1.377 . S
C1991 C1990 1.524 . S
C1991 C1992 1.397 . S
C1991 C1996 1.363 . S
C1992 H1969 0.950 . S
C1992 C1991 1.397 . S
C1992 C1993 1.334 . S
C1993 H1970 0.950 . S
C1993 C1992 1.334 . S
C1993 C1994 1.287 . S
C1994 C1993 1.287 . S
C1994 C1995 1.524 . S
C1994 H2013 0.913 . S
C1995 H1971 0.950 . S
C1995 C1994 1.524 . S
C1995 C1996 1.415 . S
C1996 H1972 0.950 . S
C1996 C1991 1.363 . S
C1996 C1995 1.415 . S
C1997 H1973 0.951 . S
C1997 C1998 1.366 . S
C1997 C1999 1.388 . S
C1998 C1997 1.366 . S
C1998 C2002 1.385 . S
C1999 H1974 0.951 . S
C1999 C1997 1.388 . S
C1999 C2000 1.366 . S
C2000 C1999 1.366 . S
C2000 C2001 1.414 . S
C2000 C2003 1.499 . S
C2001 H1975 0.950 . S
C2001 C2000 1.414 . S
C2001 C2002 1.374 . S
C2002 H1976 0.950 . S
C2002 C1998 1.385 . S
C2002 C2001 1.374 . S
C2003 C2000 1.499 . S
C2003 C2004 1.373 . S
C2003 C2005 1.389 . S
C2004 H1977 0.950 . S
C2004 C1990 1.377 . S
C2004 C2003 1.373 . S
C2005 C1989 1.377 . S
C2005 C2003 1.389 . S
C2005 C2006 1.524 . S
C2006 C2005 1.524 . S
C2006 C2007 1.397 . S
C2006 C2011 1.363 . S
C2007 H1978 0.950 . S
C2007 C2006 1.397 . S
C2007 C2008 1.334 . S
C2008 H1979 0.950 . S
C2008 C2007 1.334 . S
C2008 C2009 1.287 . S
C2009 C2008 1.287 . S
C2009 C2010 1.524 . S
C2009 H2012 0.999 . S
C2010 H1980 0.950 . S
C2010 C2009 1.524 . S
C2010 C2011 1.415 . S
C2011 H1981 0.950 . S
C2011 C2006 1.363 . S
C2011 C2010 1.415 . S
H2012 C2009 0.999 . S
H2013 C1994 0.913 . S
H2014 C2032 0.951 . S
H2015 C2034 0.951 . S
H2016 C2036 0.950 . S
H2017 C2037 0.950 . S
H2018 C2039 0.950 . S
H2019 C2042 0.950 . S
H2020 C2043 0.950 1_565 S
H2021 C2045 0.950 . S
H2022 C2046 0.950 . S
H2023 C2047 0.951 . S
H2024 C2049 0.951 . S
H2025 C2051 0.950 . S
H2026 C2052 0.950 . S
H2027 C2054 0.950 . S
H2028 C2057 0.950 . S
H2029 C2058 0.950 . S
H2030 C2060 0.950 . S
H2031 C2061 0.950 . S
C2032 H2014 0.951 . S
C2032 C2033 1.366 . S
C2032 C2034 1.388 . S
C2033 C2032 1.366 . S
C2033 C2037 1.385 . S
C2034 H2015 0.951 . S
C2034 C2032 1.388 . S
C2034 C2035 1.366 . S
C2035 C2034 1.366 . S
C2035 C2036 1.414 . S
C2035 C2038 1.499 1_565 S
C2036 H2016 0.950 . S
C2036 C2035 1.414 . S
C2036 C2037 1.374 . S
C2037 H2017 0.950 . S
C2037 C2033 1.385 . S
C2037 C2036 1.374 . S
C2038 C2035 1.499 1_545 S
C2038 C2039 1.373 . S
C2038 C2040 1.389 . S
C2039 H2018 0.950 . S
C2039 C2038 1.373 . S
C2039 C2055 1.377 . S
C2040 C2038 1.389 . S
C2040 C2041 1.524 . S
C2040 C2054 1.377 . S
C2041 C2040 1.524 . S
C2041 C2042 1.397 . S
C2041 C2046 1.363 . S
C2042 H2019 0.950 . S
C2042 C2041 1.397 . S
C2042 C2043 1.334 . S
C2043 H2020 0.950 1_545 S
C2043 C2042 1.334 . S
C2043 C2044 1.287 . S
C2044 C2043 1.287 . S
C2044 C2045 1.524 . S
C2044 H2063 0.913 . S
C2045 H2021 0.950 . S
C2045 C2044 1.524 . S
C2045 C2046 1.415 . S
C2046 H2022 0.950 . S
C2046 C2041 1.363 . S
C2046 C2045 1.415 . S
C2047 H2023 0.951 . S
C2047 C2048 1.366 . S
C2047 C2049 1.388 . S
C2048 C2047 1.366 . S
C2048 C2052 1.385 . S
C2049 H2024 0.951 . S
C2049 C2047 1.388 . S
C2049 C2050 1.366 . S
C2050 C2049 1.366 . S
C2050 C2051 1.414 . S
C2050 C2053 1.499 . S
C2051 H2025 0.950 . S
C2051 C2050 1.414 . S
C2051 C2052 1.374 . S
C2052 H2026 0.950 . S
C2052 C2048 1.385 . S
C2052 C2051 1.374 . S
C2053 C2050 1.499 . S
C2053 C2054 1.373 . S
C2053 C2055 1.389 . S
C2054 H2027 0.950 . S
C2054 C2040 1.377 . S
C2054 C2053 1.373 . S
C2055 C2039 1.377 . S
C2055 C2053 1.389 . S
C2055 C2056 1.524 . S
C2056 C2055 1.524 . S
C2056 C2057 1.397 . S
C2056 C2061 1.363 . S
C2057 H2028 0.950 . S
C2057 C2056 1.397 . S
C2057 C2058 1.334 . S
C2058 H2029 0.950 . S
C2058 C2057 1.334 . S
C2058 C2059 1.287 . S
C2059 C2058 1.287 . S
C2059 C2060 1.524 . S
C2059 H2062 0.999 . S
C2060 H2030 0.950 . S
C2060 C2059 1.524 . S
C2060 C2061 1.415 . S
C2061 H2031 0.950 . S
C2061 C2056 1.363 . S
C2061 C2060 1.415 . S
H2062 C2059 0.999 . S
H2063 C2044 0.913 . S
H2064 C2082 0.951 . S
H2065 C2084 0.951 . S
H2066 C2086 0.950 . S
H2067 C2087 0.950 . S
H2068 C2089 0.950 . S
H2069 C2092 0.950 . S
H2070 C2093 0.950 . S
H2071 C2095 0.950 . S
H2072 C2096 0.950 . S
H2073 C2097 0.951 . S
H2074 C2099 0.951 . S
H2075 C2101 0.950 . S
H2076 C2102 0.950 . S
H2077 C2104 0.950 . S
H2078 C2107 0.950 . S
H2079 C2108 0.950 . S
H2080 C2110 0.950 . S
H2081 C2111 0.950 . S
C2082 H2064 0.951 . S
C2082 C2083 1.366 . S
C2082 C2084 1.388 . S
C2083 C2082 1.366 . S
C2083 C2087 1.385 . S
C2084 H2065 0.951 . S
C2084 C2082 1.388 . S
C2084 C2085 1.366 . S
C2085 C2084 1.366 . S
C2085 C2086 1.414 . S
C2085 C2088 1.499 . S
C2086 H2066 0.950 . S
C2086 C2085 1.414 . S
C2086 C2087 1.374 . S
C2087 H2067 0.950 . S
C2087 C2083 1.385 . S
C2087 C2086 1.374 . S
C2088 C2085 1.499 . S
C2088 C2089 1.373 . S
C2088 C2090 1.389 . S
C2089 H2068 0.950 . S
C2089 C2088 1.373 . S
C2089 C2105 1.377 . S
C2090 C2088 1.389 . S
C2090 C2091 1.524 . S
C2090 C2104 1.377 . S
C2091 C2090 1.524 . S
C2091 C2092 1.397 . S
C2091 C2096 1.363 . S
C2092 H2069 0.950 . S
C2092 C2091 1.397 . S
C2092 C2093 1.334 . S
C2093 H2070 0.950 . S
C2093 C2092 1.334 . S
C2093 C2094 1.287 . S
C2094 C2093 1.287 . S
C2094 C2095 1.524 . S
C2094 H2113 0.913 . S
C2095 H2071 0.950 . S
C2095 C2094 1.524 . S
C2095 C2096 1.415 . S
C2096 H2072 0.950 . S
C2096 C2091 1.363 . S
C2096 C2095 1.415 . S
C2097 H2073 0.951 . S
C2097 C2098 1.366 . S
C2097 C2099 1.388 . S
C2098 C2097 1.366 . S
C2098 C2102 1.385 . S
C2099 H2074 0.951 . S
C2099 C2097 1.388 . S
C2099 C2100 1.366 . S
C2100 C2099 1.366 . S
C2100 C2101 1.414 . S
C2100 C2103 1.499 . S
C2101 H2075 0.950 . S
C2101 C2100 1.414 . S
C2101 C2102 1.374 . S
C2102 H2076 0.950 . S
C2102 C2098 1.385 . S
C2102 C2101 1.374 . S
C2103 C2100 1.499 . S
C2103 C2104 1.373 . S
C2103 C2105 1.389 . S
C2104 H2077 0.950 . S
C2104 C2090 1.377 . S
C2104 C2103 1.373 . S
C2105 C2089 1.377 . S
C2105 C2103 1.389 . S
C2105 C2106 1.524 . S
C2106 C2105 1.524 . S
C2106 C2107 1.397 . S
C2106 C2111 1.363 . S
C2107 H2078 0.950 . S
C2107 C2106 1.397 . S
C2107 C2108 1.334 . S
C2108 H2079 0.950 . S
C2108 C2107 1.334 . S
C2108 C2109 1.287 . S
C2109 C2108 1.287 . S
C2109 C2110 1.524 . S
C2109 H2112 0.999 . S
C2110 H2080 0.950 . S
C2110 C2109 1.524 . S
C2110 C2111 1.415 . S
C2111 H2081 0.950 . S
C2111 C2106 1.363 . S
C2111 C2110 1.415 . S
H2112 C2109 0.999 . S
H2113 C2094 0.913 . S
H2114 C2132 0.951 . S
H2115 C2134 0.951 . S
H2116 C2136 0.950 . S
H2117 C2137 0.950 . S
H2118 C2139 0.950 . S
H2119 C2142 0.950 . S
H2120 C2143 0.950 . S
H2121 C2145 0.950 . S
H2122 C2146 0.950 . S
H2123 C2147 0.951 . S
H2124 C2149 0.951 . S
H2125 C2151 0.950 . S
H2126 C2152 0.950 . S
H2127 C2154 0.950 . S
H2128 C2157 0.950 . S
H2129 C2158 0.950 . S
H2130 C2160 0.950 . S
H2131 C2161 0.950 . S
C2132 H2114 0.951 . S
C2132 C2133 1.366 . S
C2132 C2134 1.388 . S
C2133 C2132 1.366 . S
C2133 C2137 1.385 . S
C2134 H2115 0.951 . S
C2134 C2132 1.388 . S
C2134 C2135 1.366 . S
C2135 C2134 1.366 . S
C2135 C2136 1.414 . S
C2135 C2138 1.499 . S
C2136 H2116 0.950 . S
C2136 C2135 1.414 . S
C2136 C2137 1.374 . S
C2137 H2117 0.950 . S
C2137 C2133 1.385 . S
C2137 C2136 1.374 . S
C2138 C2135 1.499 . S
C2138 C2139 1.373 . S
C2138 C2140 1.389 . S
C2139 H2118 0.950 . S
C2139 C2138 1.373 . S
C2139 C2155 1.377 . S
C2140 C2138 1.389 . S
C2140 C2141 1.524 . S
C2140 C2154 1.377 . S
C2141 C2140 1.524 . S
C2141 C2142 1.397 . S
C2141 C2146 1.363 . S
C2142 H2119 0.950 . S
C2142 C2141 1.397 . S
C2142 C2143 1.334 . S
C2143 H2120 0.950 . S
C2143 C2142 1.334 . S
C2143 C2144 1.287 . S
C2144 C2143 1.287 . S
C2144 C2145 1.524 . S
C2144 H2163 0.913 . S
C2145 H2121 0.950 . S
C2145 C2144 1.524 . S
C2145 C2146 1.415 . S
C2146 H2122 0.950 . S
C2146 C2141 1.363 . S
C2146 C2145 1.415 . S
C2147 H2123 0.951 . S
C2147 C2148 1.366 . S
C2147 C2149 1.388 . S
C2148 C2147 1.366 . S
C2148 C2152 1.385 . S
C2149 H2124 0.951 . S
C2149 C2147 1.388 . S
C2149 C2150 1.366 . S
C2150 C2149 1.366 . S
C2150 C2151 1.414 . S
C2150 C2153 1.499 . S
C2151 H2125 0.950 . S
C2151 C2150 1.414 . S
C2151 C2152 1.374 . S
C2152 H2126 0.950 . S
C2152 C2148 1.385 . S
C2152 C2151 1.374 . S
C2153 C2150 1.499 . S
C2153 C2154 1.373 . S
C2153 C2155 1.389 . S
C2154 H2127 0.950 . S
C2154 C2140 1.377 . S
C2154 C2153 1.373 . S
C2155 C2139 1.377 . S
C2155 C2153 1.389 . S
C2155 C2156 1.524 . S
C2156 C2155 1.524 . S
C2156 C2157 1.397 . S
C2156 C2161 1.363 . S
C2157 H2128 0.950 . S
C2157 C2156 1.397 . S
C2157 C2158 1.334 . S
C2158 H2129 0.950 . S
C2158 C2157 1.334 . S
C2158 C2159 1.287 . S
C2159 C2158 1.287 . S
C2159 C2160 1.524 . S
C2159 H2162 0.999 . S
C2160 H2130 0.950 . S
C2160 C2159 1.524 . S
C2160 C2161 1.415 . S
C2161 H2131 0.950 . S
C2161 C2156 1.363 . S
C2161 C2160 1.415 . S
H2162 C2159 0.999 . S
H2163 C2144 0.913 . S
H2164 C2182 0.951 . S
H2165 C2184 0.951 . S
H2166 C2186 0.950 . S
H2167 C2187 0.950 . S
H2168 C2189 0.950 . S
H2169 C2192 0.950 . S
H2170 C2193 0.950 . S
H2171 C2195 0.950 . S
H2172 C2196 0.950 . S
H2173 C2197 0.951 . S
H2174 C2199 0.951 . S
H2175 C2201 0.950 . S
H2176 C2202 0.950 . S
H2177 C2204 0.950 . S
H2178 C2207 0.950 . S
H2179 C2208 0.950 . S
H2180 C2210 0.950 . S
H2181 C2211 0.950 . S
C2182 H2164 0.951 . S
C2182 C2183 1.366 . S
C2182 C2184 1.388 . S
C2183 C2182 1.366 . S
C2183 C2187 1.385 . S
C2184 H2165 0.951 . S
C2184 C2182 1.388 . S
C2184 C2185 1.366 . S
C2185 C2184 1.366 . S
C2185 C2186 1.414 . S
C2185 C2188 1.499 . S
C2186 H2166 0.950 . S
C2186 C2185 1.414 . S
C2186 C2187 1.374 . S
C2187 H2167 0.950 . S
C2187 C2183 1.385 . S
C2187 C2186 1.374 . S
C2188 C2185 1.499 . S
C2188 C2189 1.373 . S
C2188 C2190 1.389 . S
C2189 H2168 0.950 . S
C2189 C2188 1.373 . S
C2189 C2205 1.377 . S
C2190 C2188 1.389 . S
C2190 C2191 1.524 . S
C2190 C2204 1.377 . S
C2191 C2190 1.524 . S
C2191 C2192 1.397 . S
C2191 C2196 1.363 . S
C2192 H2169 0.950 . S
C2192 C2191 1.397 . S
C2192 C2193 1.334 . S
C2193 H2170 0.950 . S
C2193 C2192 1.334 . S
C2193 C2194 1.287 . S
C2194 C2193 1.287 . S
C2194 C2195 1.524 . S
C2194 H2213 0.913 . S
C2195 H2171 0.950 . S
C2195 C2194 1.524 . S
C2195 C2196 1.415 . S
C2196 H2172 0.950 . S
C2196 C2191 1.363 . S
C2196 C2195 1.415 . S
C2197 H2173 0.951 . S
C2197 C2198 1.366 . S
C2197 C2199 1.388 . S
C2198 C2197 1.366 . S
C2198 C2202 1.385 . S
C2199 H2174 0.951 . S
C2199 C2197 1.388 . S
C2199 C2200 1.366 . S
C2200 C2199 1.366 . S
C2200 C2201 1.414 . S
C2200 C2203 1.499 . S
C2201 H2175 0.950 . S
C2201 C2200 1.414 . S
C2201 C2202 1.374 . S
C2202 H2176 0.950 . S
C2202 C2198 1.385 . S
C2202 C2201 1.374 . S
C2203 C2200 1.499 . S
C2203 C2204 1.373 . S
C2203 C2205 1.389 . S
C2204 H2177 0.950 . S
C2204 C2190 1.377 . S
C2204 C2203 1.373 . S
C2205 C2189 1.377 . S
C2205 C2203 1.389 . S
C2205 C2206 1.524 . S
C2206 C2205 1.524 . S
C2206 C2207 1.397 . S
C2206 C2211 1.363 . S
C2207 H2178 0.950 . S
C2207 C2206 1.397 . S
C2207 C2208 1.334 . S
C2208 H2179 0.950 . S
C2208 C2207 1.334 . S
C2208 C2209 1.287 . S
C2209 C2208 1.287 . S
C2209 C2210 1.524 . S
C2209 H2212 0.999 . S
C2210 H2180 0.950 . S
C2210 C2209 1.524 . S
C2210 C2211 1.415 . S
C2211 H2181 0.950 . S
C2211 C2206 1.363 . S
C2211 C2210 1.415 . S
H2212 C2209 0.999 . S
H2213 C2194 0.913 . S
H2214 C2232 0.951 . S
H2215 C2234 0.951 . S
H2216 C2236 0.950 . S
H2217 C2237 0.950 . S
H2218 C2239 0.950 . S
H2219 C2242 0.950 . S
H2220 C2243 0.950 . S
H2221 C2245 0.950 . S
H2222 C2246 0.950 . S
H2223 C2247 0.951 . S
H2224 C2249 0.951 . S
H2225 C2251 0.950 . S
H2226 C2252 0.940 1_545 S
H2227 C2254 0.950 . S
H2228 C2257 0.950 . S
H2229 C2258 0.950 . S
H2230 C2260 0.950 . S
H2231 C2261 0.950 . S
C2232 H2214 0.951 . S
C2232 C2233 1.366 . S
C2232 C2234 1.388 . S
C2233 C2232 1.366 . S
C2233 C2237 1.385 . S
C2234 H2215 0.951 . S
C2234 C2232 1.388 . S
C2234 C2235 1.366 . S
C2235 C2234 1.366 . S
C2235 C2236 1.414 . S
C2235 C2238 1.499 . S
C2236 H2216 0.950 . S
C2236 C2235 1.414 . S
C2236 C2237 1.374 . S
C2237 H2217 0.950 . S
C2237 C2233 1.385 . S
C2237 C2236 1.374 . S
C2238 C2235 1.499 . S
C2238 C2239 1.373 . S
C2238 C2240 1.389 . S
C2239 H2218 0.950 . S
C2239 C2238 1.373 . S
C2239 C2255 1.377 . S
C2240 C2238 1.389 . S
C2240 C2241 1.524 . S
C2240 C2254 1.377 . S
C2241 C2240 1.524 . S
C2241 C2242 1.397 . S
C2241 C2246 1.363 . S
C2242 H2219 0.950 . S
C2242 C2241 1.397 . S
C2242 C2243 1.334 . S
C2243 H2220 0.950 . S
C2243 C2242 1.334 . S
C2243 C2244 1.287 1_565 S
C2244 C2243 1.287 1_545 S
C2244 C2245 1.524 . S
C2244 H2263 0.913 . S
C2245 H2221 0.950 . S
C2245 C2244 1.524 . S
C2245 C2246 1.415 1_545 S
C2246 H2222 0.950 . S
C2246 C2241 1.363 . S
C2246 C2245 1.415 1_565 S
C2247 H2223 0.951 . S
C2247 C2248 1.366 . S
C2247 C2249 1.388 . S
C2248 C2247 1.366 . S
C2248 C2252 1.385 . S
C2249 H2224 0.951 . S
C2249 C2247 1.388 . S
C2249 C2250 1.366 . S
C2250 C2249 1.366 . S
C2250 C2251 1.414 . S
C2250 C2253 1.499 . S
C2251 H2225 0.950 . S
C2251 C2250 1.414 . S
C2251 C2252 1.374 . S
C2252 H2226 0.940 1_565 S
C2252 C2248 1.385 . S
C2252 C2251 1.374 . S
C2253 C2250 1.499 . S
C2253 C2254 1.373 . S
C2253 C2255 1.389 . S
C2254 H2227 0.950 . S
C2254 C2240 1.377 . S
C2254 C2253 1.373 . S
C2255 C2239 1.377 . S
C2255 C2253 1.389 . S
C2255 C2256 1.524 . S
C2256 C2255 1.524 . S
C2256 C2257 1.397 . S
C2256 C2261 1.363 . S
C2257 H2228 0.950 . S
C2257 C2256 1.397 . S
C2257 C2258 1.334 . S
C2258 H2229 0.950 . S
C2258 C2257 1.334 . S
C2258 C2259 1.287 . S
C2259 C2258 1.287 . S
C2259 C2260 1.524 . S
C2259 H2262 0.999 . S
C2260 H2230 0.950 . S
C2260 C2259 1.524 . S
C2260 C2261 1.415 . S
C2261 H2231 0.950 . S
C2261 C2256 1.363 . S
C2261 C2260 1.415 . S
H2262 C2259 0.999 . S
H2263 C2244 0.913 . S
H2264 C2282 0.951 . S
H2265 C2284 0.951 . S
H2266 C2286 0.950 . S
H2267 C2287 0.950 . S
H2268 C2289 0.950 . S
H2269 C2292 0.950 . S
H2270 C2293 0.950 . S
H2271 C2295 0.950 . S
H2272 C2296 0.950 . S
H2273 C2297 0.951 1_655 S
H2274 C2299 0.951 . S
H2275 C2301 0.950 . S
H2276 C2302 0.950 . S
H2277 C2304 0.950 . S
H2278 C2307 0.950 . S
H2279 C2308 0.950 . S
H2280 C2310 0.950 . S
H2281 C2311 0.954 1_655 S
C2282 H2264 0.951 . S
C2282 C2283 1.366 . S
C2282 C2284 1.388 . S
C2283 C2282 1.366 . S
C2283 C2287 1.385 . S
C2284 H2265 0.951 . S
C2284 C2282 1.388 . S
C2284 C2285 1.366 . S
C2285 C2284 1.366 . S
C2285 C2286 1.414 . S
C2285 C2288 1.499 . S
C2286 H2266 0.950 . S
C2286 C2285 1.414 . S
C2286 C2287 1.374 . S
C2287 H2267 0.950 . S
C2287 C2283 1.385 . S
C2287 C2286 1.374 . S
C2288 C2285 1.499 . S
C2288 C2289 1.373 . S
C2288 C2290 1.389 . S
C2289 H2268 0.950 . S
C2289 C2288 1.373 . S
C2289 C2305 1.377 . S
C2290 C2288 1.389 . S
C2290 C2291 1.524 . S
C2290 C2304 1.377 . S
C2291 C2290 1.524 . S
C2291 C2292 1.397 . S
C2291 C2296 1.363 . S
C2292 H2269 0.950 . S
C2292 C2291 1.397 . S
C2292 C2293 1.334 . S
C2293 H2270 0.950 . S
C2293 C2292 1.334 . S
C2293 C2294 1.287 . S
C2294 C2293 1.287 . S
C2294 C2295 1.524 . S
C2294 H2313 0.913 . S
C2295 H2271 0.950 . S
C2295 C2294 1.524 . S
C2295 C2296 1.415 . S
C2296 H2272 0.950 . S
C2296 C2291 1.363 . S
C2296 C2295 1.415 . S
C2297 H2273 0.951 1_455 S
C2297 C2298 1.366 . S
C2297 C2299 1.388 . S
C2298 C2297 1.366 . S
C2298 C2302 1.385 . S
C2299 H2274 0.951 . S
C2299 C2297 1.388 . S
C2299 C2300 1.366 . S
C2300 C2299 1.366 . S
C2300 C2301 1.414 . S
C2300 C2303 1.499 . S
C2301 H2275 0.950 . S
C2301 C2300 1.414 . S
C2301 C2302 1.374 . S
C2302 H2276 0.950 . S
C2302 C2298 1.385 . S
C2302 C2301 1.374 . S
C2303 C2300 1.499 . S
C2303 C2304 1.373 . S
C2303 C2305 1.389 . S
C2304 H2277 0.950 . S
C2304 C2290 1.377 . S
C2304 C2303 1.373 . S
C2305 C2289 1.377 . S
C2305 C2303 1.389 . S
C2305 C2306 1.524 . S
C2306 C2305 1.524 . S
C2306 C2307 1.397 . S
C2306 C2311 1.363 . S
C2307 H2278 0.950 . S
C2307 C2306 1.397 . S
C2307 C2308 1.334 . S
C2308 H2279 0.950 . S
C2308 C2307 1.334 . S
C2308 C2309 1.277 1_455 S
C2309 C2308 1.277 1_655 S
C2309 C2310 1.534 . S
C2309 H2312 1.001 . S
C2310 H2280 0.950 . S
C2310 C2309 1.534 . S
C2310 C2311 1.415 1_655 S
C2311 H2281 0.954 1_455 S
C2311 C2306 1.363 . S
C2311 C2310 1.415 1_455 S
H2312 C2309 1.001 . S
H2313 C2294 0.913 . S
H2314 C2332 0.951 . S
H2315 C2334 0.951 . S
H2316 C2336 0.950 . S
H2317 C2337 0.950 . S
H2318 C2339 0.950 . S
H2319 C2342 0.950 . S
H2320 C2343 0.950 . S
H2321 C2345 0.950 . S
H2322 C2346 0.950 . S
H2323 C2347 0.951 . S
H2324 C2349 0.951 . S
H2325 C2351 0.950 . S
H2326 C2352 0.950 . S
H2327 C2354 0.950 . S
H2328 C2357 0.950 . S
H2329 C2358 0.950 . S
H2330 C2360 0.950 . S
H2331 C2361 0.950 . S
C2332 H2314 0.951 . S
C2332 C2333 1.366 . S
C2332 C2334 1.388 . S
C2333 C2332 1.366 . S
C2333 C2337 1.385 . S
C2334 H2315 0.951 . S
C2334 C2332 1.388 . S
C2334 C2335 1.366 . S
C2335 C2334 1.366 . S
C2335 C2336 1.414 . S
C2335 C2338 1.499 . S
C2336 H2316 0.950 . S
C2336 C2335 1.414 . S
C2336 C2337 1.374 . S
C2337 H2317 0.950 . S
C2337 C2333 1.385 . S
C2337 C2336 1.374 . S
C2338 C2335 1.499 . S
C2338 C2339 1.373 . S
C2338 C2340 1.389 . S
C2339 H2318 0.950 . S
C2339 C2338 1.373 . S
C2339 C2355 1.377 . S
C2340 C2338 1.389 . S
C2340 C2341 1.524 . S
C2340 C2354 1.377 . S
C2341 C2340 1.524 . S
C2341 C2342 1.397 . S
C2341 C2346 1.363 . S
C2342 H2319 0.950 . S
C2342 C2341 1.397 . S
C2342 C2343 1.334 . S
C2343 H2320 0.950 . S
C2343 C2342 1.334 . S
C2343 C2344 1.287 . S
C2344 C2343 1.287 . S
C2344 C2345 1.524 . S
C2344 H2363 0.913 . S
C2345 H2321 0.950 . S
C2345 C2344 1.524 . S
C2345 C2346 1.415 . S
C2346 H2322 0.950 . S
C2346 C2341 1.363 . S
C2346 C2345 1.415 . S
C2347 H2323 0.951 . S
C2347 C2348 1.366 . S
C2347 C2349 1.388 . S
C2348 C2347 1.366 . S
C2348 C2352 1.385 . S
C2349 H2324 0.951 . S
C2349 C2347 1.388 . S
C2349 C2350 1.366 . S
C2350 C2349 1.366 . S
C2350 C2351 1.414 . S
C2350 C2353 1.499 . S
C2351 H2325 0.950 . S
C2351 C2350 1.414 . S
C2351 C2352 1.374 . S
C2352 H2326 0.950 . S
C2352 C2348 1.385 . S
C2352 C2351 1.374 . S
C2353 C2350 1.499 . S
C2353 C2354 1.373 . S
C2353 C2355 1.389 . S
C2354 H2327 0.950 . S
C2354 C2340 1.377 . S
C2354 C2353 1.373 . S
C2355 C2339 1.377 . S
C2355 C2353 1.389 . S
C2355 C2356 1.524 . S
C2356 C2355 1.524 . S
C2356 C2357 1.397 . S
C2356 C2361 1.363 . S
C2357 H2328 0.950 . S
C2357 C2356 1.397 . S
C2357 C2358 1.334 . S
C2358 H2329 0.950 . S
C2358 C2357 1.334 . S
C2358 C2359 1.287 . S
C2359 C2358 1.287 . S
C2359 C2360 1.524 . S
C2359 H2362 0.999 . S
C2360 H2330 0.950 . S
C2360 C2359 1.524 . S
C2360 C2361 1.415 . S
C2361 H2331 0.950 . S
C2361 C2356 1.363 . S
C2361 C2360 1.415 . S
H2362 C2359 0.999 . S
H2363 C2344 0.913 . S
H2364 C2382 0.951 . S
H2365 C2384 0.951 . S
H2366 C2386 0.950 . S
H2367 C2387 0.950 . S
H2368 C2389 0.950 . S
H2369 C2392 0.950 . S
H2370 C2393 0.950 . S
H2371 C2395 0.950 . S
H2372 C2396 0.937 1_655 S
H2373 C2397 0.951 . S
H2374 C2399 0.951 . S
H2375 C2401 0.950 . S
H2376 C2402 0.950 . S
H2377 C2404 0.950 . S
H2378 C2407 0.950 . S
H2379 C2408 0.950 . S
H2380 C2410 0.950 . S
H2381 C2411 0.950 . S
C2382 H2364 0.951 . S
C2382 C2383 1.366 . S
C2382 C2384 1.388 . S
C2383 C2382 1.366 . S
C2383 C2387 1.385 . S
C2384 H2365 0.951 . S
C2384 C2382 1.388 . S
C2384 C2385 1.366 . S
C2385 C2384 1.366 . S
C2385 C2386 1.414 . S
C2385 C2388 1.499 . S
C2386 H2366 0.950 . S
C2386 C2385 1.414 . S
C2386 C2387 1.374 . S
C2387 H2367 0.950 . S
C2387 C2383 1.385 . S
C2387 C2386 1.374 . S
C2388 C2385 1.499 . S
C2388 C2389 1.373 . S
C2388 C2390 1.389 . S
C2389 H2368 0.950 . S
C2389 C2388 1.373 . S
C2389 C2405 1.377 . S
C2390 C2388 1.389 . S
C2390 C2391 1.524 . S
C2390 C2404 1.377 . S
C2391 C2390 1.524 . S
C2391 C2392 1.397 . S
C2391 C2396 1.363 1_655 S
C2392 H2369 0.950 . S
C2392 C2391 1.397 . S
C2392 C2393 1.334 1_655 S
C2393 H2370 0.950 . S
C2393 C2392 1.334 1_455 S
C2393 C2394 1.287 . S
C2394 C2393 1.287 . S
C2394 C2395 1.524 . S
C2394 H2413 0.913 . S
C2395 H2371 0.950 . S
C2395 C2394 1.524 . S
C2395 C2396 1.415 . S
C2396 H2372 0.937 1_455 S
C2396 C2391 1.363 1_455 S
C2396 C2395 1.415 . S
C2397 H2373 0.951 . S
C2397 C2398 1.366 . S
C2397 C2399 1.388 . S
C2398 C2397 1.366 . S
C2398 C2402 1.385 . S
C2399 H2374 0.951 . S
C2399 C2397 1.388 . S
C2399 C2400 1.366 . S
C2400 C2399 1.366 . S
C2400 C2401 1.414 . S
C2400 C2403 1.499 . S
C2401 H2375 0.950 . S
C2401 C2400 1.414 . S
C2401 C2402 1.374 . S
C2402 H2376 0.950 . S
C2402 C2398 1.385 . S
C2402 C2401 1.374 . S
C2403 C2400 1.499 . S
C2403 C2404 1.373 . S
C2403 C2405 1.389 . S
C2404 H2377 0.950 . S
C2404 C2390 1.377 . S
C2404 C2403 1.373 . S
C2405 C2389 1.377 . S
C2405 C2403 1.389 . S
C2405 C2406 1.524 . S
C2406 C2405 1.524 . S
C2406 C2407 1.397 . S
C2406 C2411 1.363 . S
C2407 H2378 0.950 . S
C2407 C2406 1.397 . S
C2407 C2408 1.334 . S
C2408 H2379 0.950 . S
C2408 C2407 1.334 . S
C2408 C2409 1.287 . S
C2409 C2408 1.287 . S
C2409 C2410 1.524 . S
C2409 H2412 0.999 . S
C2410 H2380 0.950 . S
C2410 C2409 1.524 . S
C2410 C2411 1.415 . S
C2411 H2381 0.950 . S
C2411 C2406 1.363 . S
C2411 C2410 1.415 . S
H2412 C2409 0.999 . S
H2413 C2394 0.913 . S
H2414 C2432 0.951 . S
H2415 C2434 0.951 . S
H2416 C2436 0.950 . S
H2417 C2437 0.950 . S
H2418 C2439 0.950 . S
H2419 C2442 0.950 . S
H2420 C2443 0.950 . S
H2421 C2445 0.950 . S
H2422 C2446 0.950 . S
H2423 C2447 0.951 . S
H2424 C2449 0.951 . S
H2425 C2451 0.950 . S
H2426 C2452 0.950 . S
H2427 C2454 0.950 . S
H2428 C2457 0.950 . S
H2429 C2458 0.950 . S
H2430 C2460 0.950 . S
H2431 C2461 0.950 . S
C2432 H2414 0.951 . S
C2432 C2433 1.366 . S
C2432 C2434 1.388 . S
C2433 C2432 1.366 . S
C2433 C2437 1.385 . S
C2434 H2415 0.951 . S
C2434 C2432 1.388 . S
C2434 C2435 1.366 . S
C2435 C2434 1.366 . S
C2435 C2436 1.414 . S
C2435 C2438 1.499 . S
C2436 H2416 0.950 . S
C2436 C2435 1.414 . S
C2436 C2437 1.374 . S
C2437 H2417 0.950 . S
C2437 C2433 1.385 . S
C2437 C2436 1.374 . S
C2438 C2435 1.499 . S
C2438 C2439 1.373 . S
C2438 C2440 1.389 . S
C2439 H2418 0.950 . S
C2439 C2438 1.373 . S
C2439 C2455 1.377 . S
C2440 C2438 1.389 . S
C2440 C2441 1.524 . S
C2440 C2454 1.377 . S
C2441 C2440 1.524 . S
C2441 C2442 1.397 . S
C2441 C2446 1.363 . S
C2442 H2419 0.950 . S
C2442 C2441 1.397 . S
C2442 C2443 1.334 . S
C2443 H2420 0.950 . S
C2443 C2442 1.334 . S
C2443 C2444 1.287 . S
C2444 C2443 1.287 . S
C2444 C2445 1.524 . S
C2444 H2463 0.913 . S
C2445 H2421 0.950 . S
C2445 C2444 1.524 . S
C2445 C2446 1.415 . S
C2446 H2422 0.950 . S
C2446 C2441 1.363 . S
C2446 C2445 1.415 . S
C2447 H2423 0.951 . S
C2447 C2448 1.366 . S
C2447 C2449 1.388 . S
C2448 C2447 1.366 . S
C2448 C2452 1.385 . S
C2449 H2424 0.951 . S
C2449 C2447 1.388 . S
C2449 C2450 1.366 . S
C2450 C2449 1.366 . S
C2450 C2451 1.414 . S
C2450 C2453 1.499 . S
C2451 H2425 0.950 . S
C2451 C2450 1.414 . S
C2451 C2452 1.374 . S
C2452 H2426 0.950 . S
C2452 C2448 1.385 . S
C2452 C2451 1.374 . S
C2453 C2450 1.499 . S
C2453 C2454 1.373 . S
C2453 C2455 1.389 . S
C2454 H2427 0.950 . S
C2454 C2440 1.377 . S
C2454 C2453 1.373 . S
C2455 C2439 1.377 . S
C2455 C2453 1.389 . S
C2455 C2456 1.524 . S
C2456 C2455 1.524 . S
C2456 C2457 1.397 . S
C2456 C2461 1.363 . S
C2457 H2428 0.950 . S
C2457 C2456 1.397 . S
C2457 C2458 1.334 . S
C2458 H2429 0.950 . S
C2458 C2457 1.334 . S
C2458 C2459 1.287 . S
C2459 C2458 1.287 . S
C2459 C2460 1.524 . S
C2459 H2462 0.999 . S
C2460 H2430 0.950 . S
C2460 C2459 1.524 . S
C2460 C2461 1.415 . S
C2461 H2431 0.950 . S
C2461 C2456 1.363 . S
C2461 C2460 1.415 . S
H2462 C2459 0.999 . S
H2463 C2444 0.913 . S
H2464 C2482 0.951 . S
H2465 C2484 0.951 . S
H2466 C2486 0.950 . S
H2467 C2487 0.950 . S
H2468 C2489 0.950 . S
H2469 C2492 0.950 . S
H2470 C2493 0.950 . S
H2471 C2495 0.950 . S
H2472 C2496 0.950 . S
H2473 C2497 0.951 . S
H2474 C2499 0.951 . S
H2475 C2501 0.950 . S
H2476 C2502 0.950 . S
H2477 C2504 0.950 . S
H2478 C2507 0.907 1_545 S
H2479 C2508 0.950 . S
H2480 C2510 0.950 . S
H2481 C2511 0.949 . S
C2482 H2464 0.951 . S
C2482 C2483 1.366 . S
C2482 C2484 1.388 . S
C2483 C2482 1.366 . S
C2483 C2487 1.385 . S
C2484 H2465 0.951 . S
C2484 C2482 1.388 . S
C2484 C2485 1.366 . S
C2485 C2484 1.366 . S
C2485 C2486 1.414 . S
C2485 C2488 1.499 . S
C2486 H2466 0.950 . S
C2486 C2485 1.414 . S
C2486 C2487 1.374 . S
C2487 H2467 0.950 . S
C2487 C2483 1.385 . S
C2487 C2486 1.374 . S
C2488 C2485 1.499 . S
C2488 C2489 1.373 . S
C2488 C2490 1.389 . S
C2489 H2468 0.950 . S
C2489 C2488 1.373 . S
C2489 C2505 1.377 . S
C2490 C2488 1.389 . S
C2490 C2491 1.524 . S
C2490 C2504 1.377 . S
C2491 C2490 1.524 . S
C2491 C2492 1.397 . S
C2491 C2496 1.363 . S
C2492 H2469 0.950 . S
C2492 C2491 1.397 . S
C2492 C2493 1.334 . S
C2493 H2470 0.950 . S
C2493 C2492 1.334 . S
C2493 C2494 1.287 . S
C2494 C2493 1.287 . S
C2494 C2495 1.524 . S
C2494 H2513 0.913 . S
C2495 H2471 0.950 . S
C2495 C2494 1.524 . S
C2495 C2496 1.415 . S
C2496 H2472 0.950 . S
C2496 C2491 1.363 . S
C2496 C2495 1.415 . S
C2497 H2473 0.951 . S
C2497 C2498 1.366 . S
C2497 C2499 1.388 . S
C2498 C2497 1.366 . S
C2498 C2502 1.385 . S
C2499 H2474 0.951 . S
C2499 C2497 1.388 . S
C2499 C2500 1.366 . S
C2500 C2499 1.366 . S
C2500 C2501 1.414 . S
C2500 C2503 1.499 . S
C2501 H2475 0.950 . S
C2501 C2500 1.414 . S
C2501 C2502 1.374 . S
C2502 H2476 0.950 . S
C2502 C2498 1.385 . S
C2502 C2501 1.374 . S
C2503 C2500 1.499 . S
C2503 C2504 1.373 . S
C2503 C2505 1.389 . S
C2504 H2477 0.950 . S
C2504 C2490 1.377 . S
C2504 C2503 1.373 . S
C2505 C2489 1.377 . S
C2505 C2503 1.389 . S
C2505 C2506 1.524 . S
C2506 C2505 1.524 . S
C2506 C2507 1.403 1_545 S
C2506 C2511 1.363 1_545 S
C2507 H2478 0.907 1_565 S
C2507 C2506 1.403 1_565 S
C2507 C2508 1.370 . S
C2508 H2479 0.950 . S
C2508 C2507 1.370 . S
C2508 C2509 1.287 . S
C2509 C2508 1.287 . S
C2509 C2510 1.524 . S
C2509 H2512 0.999 . S
C2510 H2480 0.950 . S
C2510 C2509 1.524 . S
C2510 C2511 1.415 . S
C2511 H2481 0.949 . S
C2511 C2506 1.363 1_565 S
C2511 C2510 1.415 . S
H2512 C2509 0.999 . S
H2513 C2494 0.913 . S
H2514 C2532 0.951 . S
H2515 C2534 0.951 . S
H2516 C2536 0.950 . S
H2517 C2537 0.950 . S
H2518 C2539 0.950 . S
H2519 C2542 0.950 . S
H2520 C2543 0.950 . S
H2521 C2545 0.950 . S
H2522 C2546 0.950 . S
H2523 C2547 0.951 . S
H2524 C2549 0.951 . S
H2525 C2551 0.950 . S
H2526 C2552 0.950 . S
H2527 C2554 0.950 . S
H2528 C2557 0.950 . S
H2529 C2558 0.950 . S
H2530 C2560 0.950 . S
H2531 C2561 0.950 . S
C2532 H2514 0.951 . S
C2532 C2533 1.366 . S
C2532 C2534 1.388 . S
C2533 C2532 1.366 . S
C2533 C2537 1.385 . S
C2534 H2515 0.951 . S
C2534 C2532 1.388 . S
C2534 C2535 1.366 . S
C2535 C2534 1.366 . S
C2535 C2536 1.414 . S
C2535 C2538 1.499 . S
C2536 H2516 0.950 . S
C2536 C2535 1.414 . S
C2536 C2537 1.374 . S
C2537 H2517 0.950 . S
C2537 C2533 1.385 . S
C2537 C2536 1.374 . S
C2538 C2535 1.499 . S
C2538 C2539 1.373 . S
C2538 C2540 1.389 . S
C2539 H2518 0.950 . S
C2539 C2538 1.373 . S
C2539 C2555 1.377 . S
C2540 C2538 1.389 . S
C2540 C2541 1.524 . S
C2540 C2554 1.377 . S
C2541 C2540 1.524 . S
C2541 C2542 1.397 . S
C2541 C2546 1.363 . S
C2542 H2519 0.950 . S
C2542 C2541 1.397 . S
C2542 C2543 1.334 . S
C2543 H2520 0.950 . S
C2543 C2542 1.334 . S
C2543 C2544 1.287 . S
C2544 C2543 1.287 . S
C2544 C2545 1.524 . S
C2544 H2563 0.913 . S
C2545 H2521 0.950 . S
C2545 C2544 1.524 . S
C2545 C2546 1.415 . S
C2546 H2522 0.950 . S
C2546 C2541 1.363 . S
C2546 C2545 1.415 . S
C2547 H2523 0.951 . S
C2547 C2548 1.366 . S
C2547 C2549 1.388 . S
C2548 C2547 1.366 . S
C2548 C2552 1.385 . S
C2549 H2524 0.951 . S
C2549 C2547 1.388 . S
C2549 C2550 1.366 . S
C2550 C2549 1.366 . S
C2550 C2551 1.414 . S
C2550 C2553 1.499 . S
C2551 H2525 0.950 . S
C2551 C2550 1.414 . S
C2551 C2552 1.374 . S
C2552 H2526 0.950 . S
C2552 C2548 1.385 . S
C2552 C2551 1.374 . S
C2553 C2550 1.499 . S
C2553 C2554 1.373 . S
C2553 C2555 1.389 . S
C2554 H2527 0.950 . S
C2554 C2540 1.377 . S
C2554 C2553 1.373 . S
C2555 C2539 1.377 . S
C2555 C2553 1.389 . S
C2555 C2556 1.524 . S
C2556 C2555 1.524 . S
C2556 C2557 1.397 . S
C2556 C2561 1.363 . S
C2557 H2528 0.950 . S
C2557 C2556 1.397 . S
C2557 C2558 1.334 . S
C2558 H2529 0.950 . S
C2558 C2557 1.334 . S
C2558 C2559 1.287 . S
C2559 C2558 1.287 . S
C2559 C2560 1.524 . S
C2559 H2562 0.999 . S
C2560 H2530 0.950 . S
C2560 C2559 1.524 . S
C2560 C2561 1.415 . S
C2561 H2531 0.950 . S
C2561 C2556 1.363 . S
C2561 C2560 1.415 . S
H2562 C2559 0.999 . S
H2563 C2544 0.913 . S
H2564 C2582 0.951 . S
H2565 C2584 0.951 . S
H2566 C2586 0.950 . S
H2567 C2587 0.950 . S
H2568 C2589 0.950 . S
H2569 C2592 0.950 . S
H2570 C2593 0.950 . S
H2571 C2595 0.950 . S
H2572 C2596 0.950 . S
H2573 C2597 0.951 . S
H2574 C2599 0.951 . S
H2575 C2601 0.950 . S
H2576 C2602 0.950 . S
H2577 C2604 0.950 . S
H2578 C2607 0.950 . S
H2579 C2608 0.950 . S
H2580 C2610 0.950 . S
H2581 C2611 0.950 . S
C2582 H2564 0.951 . S
C2582 C2583 1.366 . S
C2582 C2584 1.388 . S
C2583 C2582 1.366 . S
C2583 C2587 1.385 . S
C2584 H2565 0.951 . S
C2584 C2582 1.388 . S
C2584 C2585 1.366 . S
C2585 C2584 1.366 . S
C2585 C2586 1.414 . S
C2585 C2588 1.499 . S
C2586 H2566 0.950 . S
C2586 C2585 1.414 . S
C2586 C2587 1.374 . S
C2587 H2567 0.950 . S
C2587 C2583 1.385 . S
C2587 C2586 1.374 . S
C2588 C2585 1.499 . S
C2588 C2589 1.373 . S
C2588 C2590 1.389 . S
C2589 H2568 0.950 . S
C2589 C2588 1.373 . S
C2589 C2605 1.377 . S
C2590 C2588 1.389 . S
C2590 C2591 1.524 . S
C2590 C2604 1.377 . S
C2591 C2590 1.524 . S
C2591 C2592 1.397 . S
C2591 C2596 1.363 . S
C2592 H2569 0.950 . S
C2592 C2591 1.397 . S
C2592 C2593 1.334 . S
C2593 H2570 0.950 . S
C2593 C2592 1.334 . S
C2593 C2594 1.287 . S
C2594 C2593 1.287 . S
C2594 C2595 1.524 . S
C2594 H2613 0.913 . S
C2595 H2571 0.950 . S
C2595 C2594 1.524 . S
C2595 C2596 1.415 . S
C2596 H2572 0.950 . S
C2596 C2591 1.363 . S
C2596 C2595 1.415 . S
C2597 H2573 0.951 . S
C2597 C2598 1.366 . S
C2597 C2599 1.388 . S
C2598 C2597 1.366 . S
C2598 C2602 1.385 . S
C2599 H2574 0.951 . S
C2599 C2597 1.388 . S
C2599 C2600 1.366 . S
C2600 C2599 1.366 . S
C2600 C2601 1.414 . S
C2600 C2603 1.499 . S
C2601 H2575 0.950 . S
C2601 C2600 1.414 . S
C2601 C2602 1.374 . S
C2602 H2576 0.950 . S
C2602 C2598 1.385 . S
C2602 C2601 1.374 . S
C2603 C2600 1.499 . S
C2603 C2604 1.373 . S
C2603 C2605 1.389 . S
C2604 H2577 0.950 . S
C2604 C2590 1.377 . S
C2604 C2603 1.373 . S
C2605 C2589 1.377 . S
C2605 C2603 1.389 . S
C2605 C2606 1.524 . S
C2606 C2605 1.524 . S
C2606 C2607 1.397 . S
C2606 C2611 1.363 . S
C2607 H2578 0.950 . S
C2607 C2606 1.397 . S
C2607 C2608 1.334 . S
C2608 H2579 0.950 . S
C2608 C2607 1.334 . S
C2608 C2609 1.287 . S
C2609 C2608 1.287 . S
C2609 C2610 1.524 . S
C2609 H2612 0.999 . S
C2610 H2580 0.950 . S
C2610 C2609 1.524 . S
C2610 C2611 1.415 . S
C2611 H2581 0.950 . S
C2611 C2606 1.363 . S
C2611 C2610 1.415 . S
H2612 C2609 0.999 . S
H2613 C2594 0.913 . S
H2614 C2632 0.951 . S
H2615 C2634 0.951 . S
H2616 C2636 0.950 . S
H2617 C2637 0.950 . S
H2618 C2639 0.950 . S
H2619 C2642 0.950 . S
H2620 C2643 0.950 . S
H2621 C2645 0.950 . S
H2622 C2646 0.950 . S
H2623 C2647 0.951 . S
H2624 C2649 0.951 . S
H2625 C2651 0.950 . S
H2626 C2652 0.950 . S
H2627 C2654 0.950 . S
H2628 C2657 0.950 . S
H2629 C2658 0.950 . S
H2630 C2660 0.950 . S
H2631 C2661 0.950 . S
C2632 H2614 0.951 . S
C2632 C2633 1.366 . S
C2632 C2634 1.388 . S
C2633 C2632 1.366 . S
C2633 C2637 1.385 . S
C2634 H2615 0.951 . S
C2634 C2632 1.388 . S
C2634 C2635 1.366 . S
C2635 C2634 1.366 . S
C2635 C2636 1.414 . S
C2635 C2638 1.499 . S
C2636 H2616 0.950 . S
C2636 C2635 1.414 . S
C2636 C2637 1.374 . S
C2637 H2617 0.950 . S
C2637 C2633 1.385 . S
C2637 C2636 1.374 . S
C2638 C2635 1.499 . S
C2638 C2639 1.373 . S
C2638 C2640 1.389 . S
C2639 H2618 0.950 . S
C2639 C2638 1.373 . S
C2639 C2655 1.377 . S
C2640 C2638 1.389 . S
C2640 C2641 1.524 . S
C2640 C2654 1.377 . S
C2641 C2640 1.524 . S
C2641 C2642 1.397 . S
C2641 C2646 1.363 . S
C2642 H2619 0.950 . S
C2642 C2641 1.397 . S
C2642 C2643 1.334 . S
C2643 H2620 0.950 . S
C2643 C2642 1.334 . S
C2643 C2644 1.287 . S
C2644 C2643 1.287 . S
C2644 C2645 1.524 . S
C2644 H2663 0.913 . S
C2645 H2621 0.950 . S
C2645 C2644 1.524 . S
C2645 C2646 1.415 . S
C2646 H2622 0.950 . S
C2646 C2641 1.363 . S
C2646 C2645 1.415 . S
C2647 H2623 0.951 . S
C2647 C2648 1.366 . S
C2647 C2649 1.388 . S
C2648 C2647 1.366 . S
C2648 C2652 1.385 . S
C2649 H2624 0.951 . S
C2649 C2647 1.388 . S
C2649 C2650 1.366 . S
C2650 C2649 1.366 . S
C2650 C2651 1.414 . S
C2650 C2653 1.499 . S
C2651 H2625 0.950 . S
C2651 C2650 1.414 . S
C2651 C2652 1.374 . S
C2652 H2626 0.950 . S
C2652 C2648 1.385 . S
C2652 C2651 1.374 . S
C2653 C2650 1.499 . S
C2653 C2654 1.373 . S
C2653 C2655 1.389 . S
C2654 H2627 0.950 . S
C2654 C2640 1.377 . S
C2654 C2653 1.373 . S
C2655 C2639 1.377 . S
C2655 C2653 1.389 . S
C2655 C2656 1.524 . S
C2656 C2655 1.524 . S
C2656 C2657 1.397 . S
C2656 C2661 1.363 . S
C2657 H2628 0.950 . S
C2657 C2656 1.397 . S
C2657 C2658 1.334 . S
C2658 H2629 0.950 . S
C2658 C2657 1.334 . S
C2658 C2659 1.287 . S
C2659 C2658 1.287 . S
C2659 C2660 1.524 . S
C2659 H2662 0.999 . S
C2660 H2630 0.950 . S
C2660 C2659 1.524 . S
C2660 C2661 1.415 . S
C2661 H2631 0.950 . S
C2661 C2656 1.363 . S
C2661 C2660 1.415 . S
H2662 C2659 0.999 . S
H2663 C2644 0.913 . S
H2664 C2682 0.951 . S
H2665 C2684 0.951 . S
H2666 C2686 0.950 . S
H2667 C2687 0.950 . S
H2668 C2689 0.950 . S
H2669 C2692 0.950 . S
H2670 C2693 0.950 . S
H2671 C2695 0.950 . S
H2672 C2696 0.950 . S
H2673 C2697 0.951 . S
H2674 C2699 0.951 . S
H2675 C2701 0.950 . S
H2676 C2702 0.950 . S
H2677 C2704 0.950 . S
H2678 C2707 0.950 . S
H2679 C2708 0.950 . S
H2680 C2710 0.950 . S
H2681 C2711 0.950 . S
C2682 H2664 0.951 . S
C2682 C2683 1.366 . S
C2682 C2684 1.388 . S
C2683 C2682 1.366 . S
C2683 C2687 1.385 . S
C2684 H2665 0.951 . S
C2684 C2682 1.388 . S
C2684 C2685 1.366 . S
C2685 C2684 1.366 . S
C2685 C2686 1.414 . S
C2685 C2688 1.499 . S
C2686 H2666 0.950 . S
C2686 C2685 1.414 . S
C2686 C2687 1.374 . S
C2687 H2667 0.950 . S
C2687 C2683 1.385 . S
C2687 C2686 1.374 . S
C2688 C2685 1.499 . S
C2688 C2689 1.373 . S
C2688 C2690 1.389 . S
C2689 H2668 0.950 . S
C2689 C2688 1.373 . S
C2689 C2705 1.377 . S
C2690 C2688 1.389 . S
C2690 C2691 1.524 . S
C2690 C2704 1.377 . S
C2691 C2690 1.524 . S
C2691 C2692 1.397 . S
C2691 C2696 1.363 . S
C2692 H2669 0.950 . S
C2692 C2691 1.397 . S
C2692 C2693 1.334 . S
C2693 H2670 0.950 . S
C2693 C2692 1.334 . S
C2693 C2694 1.287 . S
C2694 C2693 1.287 . S
C2694 C2695 1.524 . S
C2694 H2713 0.913 . S
C2695 H2671 0.950 . S
C2695 C2694 1.524 . S
C2695 C2696 1.415 . S
C2696 H2672 0.950 . S
C2696 C2691 1.363 . S
C2696 C2695 1.415 . S
C2697 H2673 0.951 . S
C2697 C2698 1.366 . S
C2697 C2699 1.388 . S
C2698 C2697 1.366 . S
C2698 C2702 1.385 . S
C2699 H2674 0.951 . S
C2699 C2697 1.388 . S
C2699 C2700 1.366 . S
C2700 C2699 1.366 . S
C2700 C2701 1.414 . S
C2700 C2703 1.499 . S
C2701 H2675 0.950 . S
C2701 C2700 1.414 . S
C2701 C2702 1.374 . S
C2702 H2676 0.950 . S
C2702 C2698 1.385 . S
C2702 C2701 1.374 . S
C2703 C2700 1.499 . S
C2703 C2704 1.373 . S
C2703 C2705 1.389 . S
C2704 H2677 0.950 . S
C2704 C2690 1.377 . S
C2704 C2703 1.373 . S
C2705 C2689 1.377 . S
C2705 C2703 1.389 . S
C2705 C2706 1.524 . S
C2706 C2705 1.524 . S
C2706 C2707 1.397 . S
C2706 C2711 1.363 . S
C2707 H2678 0.950 . S
C2707 C2706 1.397 . S
C2707 C2708 1.334 . S
C2708 H2679 0.950 . S
C2708 C2707 1.334 . S
C2708 C2709 1.287 . S
C2709 C2708 1.287 . S
C2709 C2710 1.524 . S
C2709 H2712 0.999 . S
C2710 H2680 0.950 . S
C2710 C2709 1.524 . S
C2710 C2711 1.415 . S
C2711 H2681 0.950 . S
C2711 C2706 1.363 . S
C2711 C2710 1.415 . S
H2712 C2709 0.999 . S
H2713 C2694 0.913 . S
H2714 C2732 0.951 . S
H2715 C2734 0.951 . S
H2716 C2736 0.950 . S
H2717 C2737 0.950 . S
H2718 C2739 0.950 . S
H2719 C2742 0.950 . S
H2720 C2743 0.950 . S
H2721 C2745 0.950 . S
H2722 C2746 0.950 . S
H2723 C2747 0.951 . S
H2724 C2749 0.951 . S
H2725 C2751 0.950 . S
H2726 C2752 0.950 . S
H2727 C2754 0.950 . S
H2728 C2757 0.950 . S
H2729 C2758 0.950 . S
H2730 C2760 0.950 . S
H2731 C2761 0.950 . S
C2732 H2714 0.951 . S
C2732 C2733 1.366 . S
C2732 C2734 1.388 . S
C2733 C2732 1.366 . S
C2733 C2737 1.385 . S
C2734 H2715 0.951 . S
C2734 C2732 1.388 . S
C2734 C2735 1.366 . S
C2735 C2734 1.366 . S
C2735 C2736 1.414 . S
C2735 C2738 1.499 . S
C2736 H2716 0.950 . S
C2736 C2735 1.414 . S
C2736 C2737 1.374 . S
C2737 H2717 0.950 . S
C2737 C2733 1.385 . S
C2737 C2736 1.374 . S
C2738 C2735 1.499 . S
C2738 C2739 1.373 . S
C2738 C2740 1.389 . S
C2739 H2718 0.950 . S
C2739 C2738 1.373 . S
C2739 C2755 1.377 . S
C2740 C2738 1.389 . S
C2740 C2741 1.524 . S
C2740 C2754 1.377 . S
C2741 C2740 1.524 . S
C2741 C2742 1.397 . S
C2741 C2746 1.363 . S
C2742 H2719 0.950 . S
C2742 C2741 1.397 . S
C2742 C2743 1.334 . S
C2743 H2720 0.950 . S
C2743 C2742 1.334 . S
C2743 C2744 1.287 . S
C2744 C2743 1.287 . S
C2744 C2745 1.524 . S
C2744 H2763 0.913 . S
C2745 H2721 0.950 . S
C2745 C2744 1.524 . S
C2745 C2746 1.415 . S
C2746 H2722 0.950 . S
C2746 C2741 1.363 . S
C2746 C2745 1.415 . S
C2747 H2723 0.951 . S
C2747 C2748 1.366 . S
C2747 C2749 1.388 . S
C2748 C2747 1.366 . S
C2748 C2752 1.385 . S
C2749 H2724 0.951 . S
C2749 C2747 1.388 . S
C2749 C2750 1.366 . S
C2750 C2749 1.366 . S
C2750 C2751 1.414 . S
C2750 C2753 1.499 . S
C2751 H2725 0.950 . S
C2751 C2750 1.414 . S
C2751 C2752 1.374 . S
C2752 H2726 0.950 . S
C2752 C2748 1.385 . S
C2752 C2751 1.374 . S
C2753 C2750 1.499 . S
C2753 C2754 1.373 . S
C2753 C2755 1.389 . S
C2754 H2727 0.950 . S
C2754 C2740 1.377 . S
C2754 C2753 1.373 . S
C2755 C2739 1.377 . S
C2755 C2753 1.389 . S
C2755 C2756 1.524 . S
C2756 C2755 1.524 . S
C2756 C2757 1.397 . S
C2756 C2761 1.363 . S
C2757 H2728 0.950 . S
C2757 C2756 1.397 . S
C2757 C2758 1.334 . S
C2758 H2729 0.950 . S
C2758 C2757 1.334 . S
C2758 C2759 1.287 . S
C2759 C2758 1.287 . S
C2759 C2760 1.524 . S
C2759 H2762 0.999 . S
C2760 H2730 0.950 . S
C2760 C2759 1.524 . S
C2760 C2761 1.415 . S
C2761 H2731 0.950 . S
C2761 C2756 1.363 . S
C2761 C2760 1.415 . S
H2762 C2759 0.999 . S
H2763 C2744 0.913 . S
H2764 C2782 0.951 . S
H2765 C2784 0.951 . S
H2766 C2786 0.950 . S
H2767 C2787 0.950 . S
H2768 C2789 0.950 . S
H2769 C2792 0.950 . S
H2770 C2793 0.950 . S
H2771 C2795 0.950 . S
H2772 C2796 0.950 . S
H2773 C2797 0.951 . S
H2774 C2799 0.951 . S
H2775 C2801 0.950 . S
H2776 C2802 0.950 . S
H2777 C2804 0.950 . S
H2778 C2807 0.950 . S
H2779 C2808 0.950 . S
H2780 C2810 0.950 . S
H2781 C2811 0.950 . S
C2782 H2764 0.951 . S
C2782 C2783 1.366 . S
C2782 C2784 1.388 . S
C2783 C2782 1.366 . S
C2783 C2787 1.385 . S
C2784 H2765 0.951 . S
C2784 C2782 1.388 . S
C2784 C2785 1.366 . S
C2785 C2784 1.366 . S
C2785 C2786 1.414 . S
C2785 C2788 1.499 . S
C2786 H2766 0.950 . S
C2786 C2785 1.414 . S
C2786 C2787 1.374 . S
C2787 H2767 0.950 . S
C2787 C2783 1.385 . S
C2787 C2786 1.374 . S
C2788 C2785 1.499 . S
C2788 C2789 1.373 . S
C2788 C2790 1.389 . S
C2789 H2768 0.950 . S
C2789 C2788 1.373 . S
C2789 C2805 1.377 . S
C2790 C2788 1.389 . S
C2790 C2791 1.524 . S
C2790 C2804 1.377 . S
C2791 C2790 1.524 . S
C2791 C2792 1.397 . S
C2791 C2796 1.363 . S
C2792 H2769 0.950 . S
C2792 C2791 1.397 . S
C2792 C2793 1.334 . S
C2793 H2770 0.950 . S
C2793 C2792 1.334 . S
C2793 C2794 1.287 . S
C2794 C2793 1.287 . S
C2794 C2795 1.524 . S
C2794 H2813 0.913 . S
C2795 H2771 0.950 . S
C2795 C2794 1.524 . S
C2795 C2796 1.415 . S
C2796 H2772 0.950 . S
C2796 C2791 1.363 . S
C2796 C2795 1.415 . S
C2797 H2773 0.951 . S
C2797 C2798 1.366 . S
C2797 C2799 1.388 . S
C2798 C2797 1.366 . S
C2798 C2802 1.385 . S
C2799 H2774 0.951 . S
C2799 C2797 1.388 . S
C2799 C2800 1.366 . S
C2800 C2799 1.366 . S
C2800 C2801 1.414 . S
C2800 C2803 1.499 . S
C2801 H2775 0.950 . S
C2801 C2800 1.414 . S
C2801 C2802 1.374 . S
C2802 H2776 0.950 . S
C2802 C2798 1.385 . S
C2802 C2801 1.374 . S
C2803 C2800 1.499 . S
C2803 C2804 1.373 . S
C2803 C2805 1.389 . S
C2804 H2777 0.950 . S
C2804 C2790 1.377 . S
C2804 C2803 1.373 . S
C2805 C2789 1.377 . S
C2805 C2803 1.389 . S
C2805 C2806 1.524 . S
C2806 C2805 1.524 . S
C2806 C2807 1.397 . S
C2806 C2811 1.363 . S
C2807 H2778 0.950 . S
C2807 C2806 1.397 . S
C2807 C2808 1.334 . S
C2808 H2779 0.950 . S
C2808 C2807 1.334 . S
C2808 C2809 1.287 . S
C2809 C2808 1.287 . S
C2809 C2810 1.524 . S
C2809 H2812 0.999 . S
C2810 H2780 0.950 . S
C2810 C2809 1.524 . S
C2810 C2811 1.415 . S
C2811 H2781 0.950 . S
C2811 C2806 1.363 . S
C2811 C2810 1.415 . S
H2812 C2809 0.999 . S
H2813 C2794 0.913 . S
H2814 C2832 0.951 . S
H2815 C2834 0.951 . S
H2816 C2836 0.950 . S
H2817 C2837 0.950 . S
H2818 C2839 0.950 . S
H2819 C2842 0.950 . S
H2820 C2843 0.950 . S
H2821 C2845 0.950 . S
H2822 C2846 0.950 . S
H2823 C2847 0.951 . S
H2824 C2849 0.951 . S
H2825 C2851 0.950 . S
H2826 C2852 0.950 . S
H2827 C2854 0.950 . S
H2828 C2857 0.950 . S
H2829 C2858 0.950 . S
H2830 C2860 0.950 . S
H2831 C2861 0.950 . S
C2832 H2814 0.951 . S
C2832 C2833 1.366 . S
C2832 C2834 1.388 . S
C2833 C2832 1.366 . S
C2833 C2837 1.385 . S
C2834 H2815 0.951 . S
C2834 C2832 1.388 . S
C2834 C2835 1.366 . S
C2835 C2834 1.366 . S
C2835 C2836 1.414 . S
C2835 C2838 1.499 . S
C2836 H2816 0.950 . S
C2836 C2835 1.414 . S
C2836 C2837 1.374 . S
C2837 H2817 0.950 . S
C2837 C2833 1.385 . S
C2837 C2836 1.374 . S
C2838 C2835 1.499 . S
C2838 C2839 1.373 . S
C2838 C2840 1.389 . S
C2839 H2818 0.950 . S
C2839 C2838 1.373 . S
C2839 C2855 1.377 . S
C2840 C2838 1.389 . S
C2840 C2841 1.524 . S
C2840 C2854 1.377 . S
C2841 C2840 1.524 . S
C2841 C2842 1.397 . S
C2841 C2846 1.363 . S
C2842 H2819 0.950 . S
C2842 C2841 1.397 . S
C2842 C2843 1.334 . S
C2843 H2820 0.950 . S
C2843 C2842 1.334 . S
C2843 C2844 1.287 . S
C2844 C2843 1.287 . S
C2844 C2845 1.524 . S
C2844 H2863 0.913 . S
C2845 H2821 0.950 . S
C2845 C2844 1.524 . S
C2845 C2846 1.415 . S
C2846 H2822 0.950 . S
C2846 C2841 1.363 . S
C2846 C2845 1.415 . S
C2847 H2823 0.951 . S
C2847 C2848 1.366 . S
C2847 C2849 1.388 . S
C2848 C2847 1.366 . S
C2848 C2852 1.385 . S
C2849 H2824 0.951 . S
C2849 C2847 1.388 . S
C2849 C2850 1.366 . S
C2850 C2849 1.366 . S
C2850 C2851 1.414 . S
C2850 C2853 1.499 . S
C2851 H2825 0.950 . S
C2851 C2850 1.414 . S
C2851 C2852 1.374 . S
C2852 H2826 0.950 . S
C2852 C2848 1.385 . S
C2852 C2851 1.374 . S
C2853 C2850 1.499 . S
C2853 C2854 1.373 . S
C2853 C2855 1.389 . S
C2854 H2827 0.950 . S
C2854 C2840 1.377 . S
C2854 C2853 1.373 . S
C2855 C2839 1.377 . S
C2855 C2853 1.389 . S
C2855 C2856 1.524 . S
C2856 C2855 1.524 . S
C2856 C2857 1.397 . S
C2856 C2861 1.363 . S
C2857 H2828 0.950 . S
C2857 C2856 1.397 . S
C2857 C2858 1.334 . S
C2858 H2829 0.950 . S
C2858 C2857 1.334 . S
C2858 C2859 1.287 . S
C2859 C2858 1.287 . S
C2859 C2860 1.524 . S
C2859 H2862 0.999 . S
C2860 H2830 0.950 . S
C2860 C2859 1.524 . S
C2860 C2861 1.415 . S
C2861 H2831 0.950 . S
C2861 C2856 1.363 . S
C2861 C2860 1.415 . S
H2862 C2859 0.999 . S
H2863 C2844 0.913 . S
H2864 C2882 0.951 . S
H2865 C2884 0.951 . S
H2866 C2886 0.950 . S
H2867 C2887 0.950 . S
H2868 C2889 0.950 . S
H2869 C2892 0.950 . S
H2870 C2893 0.950 . S
H2871 C2895 0.950 . S
H2872 C2896 0.950 . S
H2873 C2897 0.951 . S
H2874 C2899 0.951 . S
H2875 C2901 0.950 . S
H2876 C2902 0.950 . S
H2877 C2904 0.950 . S
H2878 C2907 0.950 . S
H2879 C2908 0.950 . S
H2880 C2910 0.950 . S
H2881 C2911 0.950 . S
C2882 H2864 0.951 . S
C2882 C2883 1.366 . S
C2882 C2884 1.388 . S
C2883 C2882 1.366 . S
C2883 C2887 1.385 . S
C2884 H2865 0.951 . S
C2884 C2882 1.388 . S
C2884 C2885 1.366 . S
C2885 C2884 1.366 . S
C2885 C2886 1.414 . S
C2885 C2888 1.499 . S
C2886 H2866 0.950 . S
C2886 C2885 1.414 . S
C2886 C2887 1.374 . S
C2887 H2867 0.950 . S
C2887 C2883 1.385 . S
C2887 C2886 1.374 . S
C2888 C2885 1.499 . S
C2888 C2889 1.373 . S
C2888 C2890 1.389 . S
C2889 H2868 0.950 . S
C2889 C2888 1.373 . S
C2889 C2905 1.377 . S
C2890 C2888 1.389 . S
C2890 C2891 1.524 . S
C2890 C2904 1.377 . S
C2891 C2890 1.524 . S
C2891 C2892 1.397 . S
C2891 C2896 1.363 . S
C2892 H2869 0.950 . S
C2892 C2891 1.397 . S
C2892 C2893 1.334 . S
C2893 H2870 0.950 . S
C2893 C2892 1.334 . S
C2893 C2894 1.287 . S
C2894 C2893 1.287 . S
C2894 C2895 1.524 . S
C2894 H2913 0.913 . S
C2895 H2871 0.950 . S
C2895 C2894 1.524 . S
C2895 C2896 1.415 . S
C2896 H2872 0.950 . S
C2896 C2891 1.363 . S
C2896 C2895 1.415 . S
C2897 H2873 0.951 . S
C2897 C2898 1.366 . S
C2897 C2899 1.388 . S
C2898 C2897 1.366 . S
C2898 C2902 1.385 . S
C2899 H2874 0.951 . S
C2899 C2897 1.388 . S
C2899 C2900 1.366 . S
C2900 C2899 1.366 . S
C2900 C2901 1.414 . S
C2900 C2903 1.499 . S
C2901 H2875 0.950 . S
C2901 C2900 1.414 . S
C2901 C2902 1.374 . S
C2902 H2876 0.950 . S
C2902 C2898 1.385 . S
C2902 C2901 1.374 . S
C2903 C2900 1.499 . S
C2903 C2904 1.373 . S
C2903 C2905 1.389 . S
C2904 H2877 0.950 . S
C2904 C2890 1.377 . S
C2904 C2903 1.373 . S
C2905 C2889 1.377 . S
C2905 C2903 1.389 . S
C2905 C2906 1.524 . S
C2906 C2905 1.524 . S
C2906 C2907 1.397 . S
C2906 C2911 1.363 . S
C2907 H2878 0.950 . S
C2907 C2906 1.397 . S
C2907 C2908 1.334 . S
C2908 H2879 0.950 . S
C2908 C2907 1.334 . S
C2908 C2909 1.287 . S
C2909 C2908 1.287 . S
C2909 C2910 1.524 . S
C2909 H2912 0.999 . S
C2910 H2880 0.950 . S
C2910 C2909 1.524 . S
C2910 C2911 1.415 . S
C2911 H2881 0.950 . S
C2911 C2906 1.363 . S
C2911 C2910 1.415 . S
H2912 C2909 0.999 . S
H2913 C2894 0.913 . S
H2914 C2932 0.951 . S
H2915 C2934 0.951 . S
H2916 C2936 0.950 . S
H2917 C2937 0.950 . S
H2918 C2939 0.950 . S
H2919 C2942 0.950 . S
H2920 C2943 0.950 . S
H2921 C2945 0.950 . S
H2922 C2946 0.950 . S
H2923 C2947 0.951 . S
H2924 C2949 0.951 . S
H2925 C2951 0.950 . S
H2926 C2952 0.950 . S
H2927 C2954 0.950 . S
H2928 C2957 0.950 . S
H2929 C2958 0.950 . S
H2930 C2960 0.950 . S
H2931 C2961 0.950 . S
C2932 H2914 0.951 . S
C2932 C2933 1.366 . S
C2932 C2934 1.388 . S
C2933 C2932 1.366 . S
C2933 C2937 1.385 . S
C2934 H2915 0.951 . S
C2934 C2932 1.388 . S
C2934 C2935 1.366 . S
C2935 C2934 1.366 . S
C2935 C2936 1.414 . S
C2935 C2938 1.499 . S
C2936 H2916 0.950 . S
C2936 C2935 1.414 . S
C2936 C2937 1.374 . S
C2937 H2917 0.950 . S
C2937 C2933 1.385 . S
C2937 C2936 1.374 . S
C2938 C2935 1.499 . S
C2938 C2939 1.373 . S
C2938 C2940 1.389 . S
C2939 H2918 0.950 . S
C2939 C2938 1.373 . S
C2939 C2955 1.377 . S
C2940 C2938 1.389 . S
C2940 C2941 1.524 . S
C2940 C2954 1.377 . S
C2941 C2940 1.524 . S
C2941 C2942 1.397 . S
C2941 C2946 1.363 . S
C2942 H2919 0.950 . S
C2942 C2941 1.397 . S
C2942 C2943 1.334 . S
C2943 H2920 0.950 . S
C2943 C2942 1.334 . S
C2943 C2944 1.287 . S
C2944 C2943 1.287 . S
C2944 C2945 1.524 . S
C2944 H2963 0.913 . S
C2945 H2921 0.950 . S
C2945 C2944 1.524 . S
C2945 C2946 1.415 . S
C2946 H2922 0.950 . S
C2946 C2941 1.363 . S
C2946 C2945 1.415 . S
C2947 H2923 0.951 . S
C2947 C2948 1.366 . S
C2947 C2949 1.388 . S
C2948 C2947 1.366 . S
C2948 C2952 1.385 . S
C2949 H2924 0.951 . S
C2949 C2947 1.388 . S
C2949 C2950 1.366 . S
C2950 C2949 1.366 . S
C2950 C2951 1.414 . S
C2950 C2953 1.499 . S
C2951 H2925 0.950 . S
C2951 C2950 1.414 . S
C2951 C2952 1.374 . S
C2952 H2926 0.950 . S
C2952 C2948 1.385 . S
C2952 C2951 1.374 . S
C2953 C2950 1.499 . S
C2953 C2954 1.373 . S
C2953 C2955 1.389 . S
C2954 H2927 0.950 . S
C2954 C2940 1.377 . S
C2954 C2953 1.373 . S
C2955 C2939 1.377 . S
C2955 C2953 1.389 . S
C2955 C2956 1.524 . S
C2956 C2955 1.524 . S
C2956 C2957 1.397 . S
C2956 C2961 1.363 . S
C2957 H2928 0.950 . S
C2957 C2956 1.397 . S
C2957 C2958 1.334 . S
C2958 H2929 0.950 . S
C2958 C2957 1.334 . S
C2958 C2959 1.287 . S
C2959 C2958 1.287 . S
C2959 C2960 1.524 . S
C2959 H2962 0.999 . S
C2960 H2930 0.950 . S
C2960 C2959 1.524 . S
C2960 C2961 1.415 . S
C2961 H2931 0.950 . S
C2961 C2956 1.363 . S
C2961 C2960 1.415 . S
H2962 C2959 0.999 . S
H2963 C2944 0.913 . S
H2964 C2982 0.951 . S
H2965 C2984 0.951 . S
H2966 C2986 0.950 . S
H2967 C2987 0.950 . S
H2968 C2989 0.950 . S
H2969 C2992 0.950 . S
H2970 C2993 0.950 . S
H2971 C2995 0.950 . S
H2972 C2996 0.950 . S
H2973 C2997 0.951 . S
H2974 C2999 0.951 . S
H2975 C3001 0.950 . S
H2976 C3002 0.950 . S
H2977 C3004 0.950 . S
H2978 C3007 0.950 . S
H2979 C3008 0.950 . S
H2980 C3010 0.950 . S
H2981 C3011 0.950 . S
C2982 H2964 0.951 . S
C2982 C2983 1.366 . S
C2982 C2984 1.388 . S
C2983 C2982 1.366 . S
C2983 C2987 1.385 . S
C2984 H2965 0.951 . S
C2984 C2982 1.388 . S
C2984 C2985 1.366 . S
C2985 C2984 1.366 . S
C2985 C2986 1.414 . S
C2985 C2988 1.499 . S
C2986 H2966 0.950 . S
C2986 C2985 1.414 . S
C2986 C2987 1.374 . S
C2987 H2967 0.950 . S
C2987 C2983 1.385 . S
C2987 C2986 1.374 . S
C2988 C2985 1.499 . S
C2988 C2989 1.373 . S
C2988 C2990 1.389 . S
C2989 H2968 0.950 . S
C2989 C2988 1.373 . S
C2989 C3005 1.377 . S
C2990 C2988 1.389 . S
C2990 C2991 1.524 . S
C2990 C3004 1.377 . S
C2991 C2990 1.524 . S
C2991 C2992 1.397 . S
C2991 C2996 1.363 . S
C2992 H2969 0.950 . S
C2992 C2991 1.397 . S
C2992 C2993 1.334 . S
C2993 H2970 0.950 . S
C2993 C2992 1.334 . S
C2993 C2994 1.287 . S
C2994 C2993 1.287 . S
C2994 C2995 1.524 . S
C2994 H3013 0.913 . S
C2995 H2971 0.950 . S
C2995 C2994 1.524 . S
C2995 C2996 1.415 . S
C2996 H2972 0.950 . S
C2996 C2991 1.363 . S
C2996 C2995 1.415 . S
C2997 H2973 0.951 . S
C2997 C2998 1.366 . S
C2997 C2999 1.388 . S
C2998 C2997 1.366 . S
C2998 C3002 1.385 . S
C2999 H2974 0.951 . S
C2999 C2997 1.388 . S
C2999 C3000 1.366 . S
C3000 C2999 1.366 . S
C3000 C3001 1.414 . S
C3000 C3003 1.499 . S
C3001 H2975 0.950 . S
C3001 C3000 1.414 . S
C3001 C3002 1.374 . S
C3002 H2976 0.950 . S
C3002 C2998 1.385 . S
C3002 C3001 1.374 . S
C3003 C3000 1.499 . S
C3003 C3004 1.373 . S
C3003 C3005 1.389 . S
C3004 H2977 0.950 . S
C3004 C2990 1.377 . S
C3004 C3003 1.373 . S
C3005 C2989 1.377 . S
C3005 C3003 1.389 . S
C3005 C3006 1.524 . S
C3006 C3005 1.524 . S
C3006 C3007 1.397 . S
C3006 C3011 1.363 . S
C3007 H2978 0.950 . S
C3007 C3006 1.397 . S
C3007 C3008 1.334 . S
C3008 H2979 0.950 . S
C3008 C3007 1.334 . S
C3008 C3009 1.287 . S
C3009 C3008 1.287 . S
C3009 C3010 1.524 . S
C3009 H3012 0.999 . S
C3010 H2980 0.950 . S
C3010 C3009 1.524 . S
C3010 C3011 1.415 . S
C3011 H2981 0.950 . S
C3011 C3006 1.363 . S
C3011 C3010 1.415 . S
H3012 C3009 0.999 . S
H3013 C2994 0.913 . S
H3014 C3032 0.951 . S
H3015 C3034 0.951 . S
H3016 C3036 0.950 . S
H3017 C3037 0.950 . S
H3018 C3039 0.950 . S
H3019 C3042 0.950 . S
H3020 C3043 0.950 . S
H3021 C3045 0.950 . S
H3022 C3046 0.950 . S
H3023 C3047 0.951 . S
H3024 C3049 0.951 . S
H3025 C3051 0.950 . S
H3026 C3052 0.950 . S
H3027 C3054 0.950 . S
H3028 C3057 0.950 . S
H3029 C3058 0.950 . S
H3030 C3060 0.950 . S
H3031 C3061 0.950 . S
C3032 H3014 0.951 . S
C3032 C3033 1.366 . S
C3032 C3034 1.388 . S
C3033 C3032 1.366 . S
C3033 C3037 1.385 . S
C3034 H3015 0.951 . S
C3034 C3032 1.388 . S
C3034 C3035 1.366 . S
C3035 C3034 1.366 . S
C3035 C3036 1.414 . S
C3035 C3038 1.499 . S
C3036 H3016 0.950 . S
C3036 C3035 1.414 . S
C3036 C3037 1.374 . S
C3037 H3017 0.950 . S
C3037 C3033 1.385 . S
C3037 C3036 1.374 . S
C3038 C3035 1.499 . S
C3038 C3039 1.373 . S
C3038 C3040 1.389 . S
C3039 H3018 0.950 . S
C3039 C3038 1.373 . S
C3039 C3055 1.377 . S
C3040 C3038 1.389 . S
C3040 C3041 1.524 . S
C3040 C3054 1.377 . S
C3041 C3040 1.524 . S
C3041 C3042 1.397 . S
C3041 C3046 1.363 . S
C3042 H3019 0.950 . S
C3042 C3041 1.397 . S
C3042 C3043 1.334 . S
C3043 H3020 0.950 . S
C3043 C3042 1.334 . S
C3043 C3044 1.287 . S
C3044 C3043 1.287 . S
C3044 C3045 1.524 . S
C3044 H3063 0.913 . S
C3045 H3021 0.950 . S
C3045 C3044 1.524 . S
C3045 C3046 1.415 . S
C3046 H3022 0.950 . S
C3046 C3041 1.363 . S
C3046 C3045 1.415 . S
C3047 H3023 0.951 . S
C3047 C3048 1.366 . S
C3047 C3049 1.388 . S
C3048 C3047 1.366 . S
C3048 C3052 1.385 . S
C3049 H3024 0.951 . S
C3049 C3047 1.388 . S
C3049 C3050 1.366 . S
C3050 C3049 1.366 . S
C3050 C3051 1.414 . S
C3050 C3053 1.499 . S
C3051 H3025 0.950 . S
C3051 C3050 1.414 . S
C3051 C3052 1.374 . S
C3052 H3026 0.950 . S
C3052 C3048 1.385 . S
C3052 C3051 1.374 . S
C3053 C3050 1.499 . S
C3053 C3054 1.373 . S
C3053 C3055 1.389 . S
C3054 H3027 0.950 . S
C3054 C3040 1.377 . S
C3054 C3053 1.373 . S
C3055 C3039 1.377 . S
C3055 C3053 1.389 . S
C3055 C3056 1.524 . S
C3056 C3055 1.524 . S
C3056 C3057 1.397 . S
C3056 C3061 1.363 . S
C3057 H3028 0.950 . S
C3057 C3056 1.397 . S
C3057 C3058 1.334 . S
C3058 H3029 0.950 . S
C3058 C3057 1.334 . S
C3058 C3059 1.287 . S
C3059 C3058 1.287 . S
C3059 C3060 1.524 . S
C3059 H3062 0.999 . S
C3060 H3030 0.950 . S
C3060 C3059 1.524 . S
C3060 C3061 1.415 . S
C3061 H3031 0.950 . S
C3061 C3056 1.363 . S
C3061 C3060 1.415 . S
H3062 C3059 0.999 . S
H3063 C3044 0.913 . S
H3064 C3082 0.951 . S
H3065 C3084 0.951 . S
H3066 C3086 0.950 . S
H3067 C3087 0.950 . S
H3068 C3089 0.950 . S
H3069 C3092 0.950 . S
H3070 C3093 0.950 . S
H3071 C3095 0.950 . S
H3072 C3096 0.950 . S
H3073 C3097 0.951 . S
H3074 C3099 0.951 . S
H3075 C3101 0.950 . S
H3076 C3102 0.950 . S
H3077 C3104 0.950 . S
H3078 C3107 0.950 . S
H3079 C3108 0.950 . S
H3080 C3110 0.950 . S
H3081 C3111 0.950 . S
C3082 H3064 0.951 . S
C3082 C3083 1.366 . S
C3082 C3084 1.388 . S
C3083 C3082 1.366 . S
C3083 C3087 1.385 . S
C3084 H3065 0.951 . S
C3084 C3082 1.388 . S
C3084 C3085 1.366 . S
C3085 C3084 1.366 . S
C3085 C3086 1.414 . S
C3085 C3088 1.499 . S
C3086 H3066 0.950 . S
C3086 C3085 1.414 . S
C3086 C3087 1.374 . S
C3087 H3067 0.950 . S
C3087 C3083 1.385 . S
C3087 C3086 1.374 . S
C3088 C3085 1.499 . S
C3088 C3089 1.373 . S
C3088 C3090 1.389 . S
C3089 H3068 0.950 . S
C3089 C3088 1.373 . S
C3089 C3105 1.377 . S
C3090 C3088 1.389 . S
C3090 C3091 1.524 . S
C3090 C3104 1.377 . S
C3091 C3090 1.524 . S
C3091 C3092 1.397 . S
C3091 C3096 1.363 . S
C3092 H3069 0.950 . S
C3092 C3091 1.397 . S
C3092 C3093 1.334 . S
C3093 H3070 0.950 . S
C3093 C3092 1.334 . S
C3093 C3094 1.287 . S
C3094 C3093 1.287 . S
C3094 C3095 1.524 . S
C3094 H3113 0.913 . S
C3095 H3071 0.950 . S
C3095 C3094 1.524 . S
C3095 C3096 1.415 . S
C3096 H3072 0.950 . S
C3096 C3091 1.363 . S
C3096 C3095 1.415 . S
C3097 H3073 0.951 . S
C3097 C3098 1.366 . S
C3097 C3099 1.388 . S
C3098 C3097 1.366 . S
C3098 C3102 1.385 . S
C3099 H3074 0.951 . S
C3099 C3097 1.388 . S
C3099 C3100 1.366 . S
C3100 C3099 1.366 . S
C3100 C3101 1.414 . S
C3100 C3103 1.499 . S
C3101 H3075 0.950 . S
C3101 C3100 1.414 . S
C3101 C3102 1.374 . S
C3102 H3076 0.950 . S
C3102 C3098 1.385 . S
C3102 C3101 1.374 . S
C3103 C3100 1.499 . S
C3103 C3104 1.373 . S
C3103 C3105 1.389 . S
C3104 H3077 0.950 . S
C3104 C3090 1.377 . S
C3104 C3103 1.373 . S
C3105 C3089 1.377 . S
C3105 C3103 1.389 . S
C3105 C3106 1.524 . S
C3106 C3105 1.524 . S
C3106 C3107 1.397 . S
C3106 C3111 1.363 . S
C3107 H3078 0.950 . S
C3107 C3106 1.397 . S
C3107 C3108 1.334 . S
C3108 H3079 0.950 . S
C3108 C3107 1.334 . S
C3108 C3109 1.287 . S
C3109 C3108 1.287 . S
C3109 C3110 1.524 . S
C3109 H3112 0.999 . S
C3110 H3080 0.950 . S
C3110 C3109 1.524 . S
C3110 C3111 1.415 . S
C3111 H3081 0.950 . S
C3111 C3106 1.363 . S
C3111 C3110 1.415 . S
H3112 C3109 0.999 . S
H3113 C3094 0.913 . S
C433 C177 1.570 . S
C448 C240 1.550 . S
C483 C190 1.547 . S
C498 C260 1.521 . S
C533 C164 1.519 . S
C548 C283 1.524 . S
C583 C151 1.409 . S
C598 C263 1.410 1_556 S
C648 C280 1.416 . S
C633 C125 1.434 . S
C683 C138 1.436 . S
C698 C243 1.439 1_556 S
C748 C250 1.555 . S
C733 C147 1.537 . S
C798 C270 1.451 . S
C783 C121 1.424 . S
C833 C134 1.507 . S
C848 C275 1.575 . S
C883 C173 1.391 . S
C898 C255 1.448 . S
C933 C186 1.390 . S
C948 C290 1.407 . S
C998 C235 1.521 . S
C983 C160 1.471 . S
C1048 C300 1.550 . S
C1033 C21 1.570 . S
C1083 C34 1.547 . S
C1098 C320 1.521 . S
C1133 C8 1.519 . S
C1148 C343 1.524 . S
C1183 C229 1.409 . S
C1198 C323 1.411 . S
C1233 C203 1.434 . S
C1248 C340 1.416 . S
C1283 C216 1.436 . S
C1298 C303 1.438 . S
C1333 C225 1.536 . S
C1348 C310 1.555 . S
C1383 C199 1.424 . S
C1398 C330 1.452 . S
C1448 C335 1.576 . S
C1433 C212 1.508 . S
C1483 C17 1.392 . S
C1498 C315 1.449 . S
C1548 C350 1.407 . S
C1533 C30 1.391 . S
C1583 C4 1.471 . S
C1598 C295 1.521 . S
C1648 C360 1.550 . S
C1633 C99 1.570 . S
C1683 C112 1.547 . S
C1698 C380 1.521 . S
C1748 C403 1.524 . S
C1733 C86 1.519 . S
C1798 C383 1.410 . S
C1783 C73 1.409 . S
C1848 C400 1.416 . S
C1833 C47 1.434 . S
C1883 C60 1.436 . S
C1898 C363 1.438 . S
C1933 C69 1.537 . S
C1948 C370 1.555 . S
C1983 C43 1.425 . S
C1998 C390 1.452 . S
C2048 C395 1.576 . S
C2033 C56 1.508 . S
C2083 C95 1.392 . S
C2098 C375 1.448 . S
C2133 C108 1.391 . S
C2148 C410 1.408 . S
C2183 C82 1.471 . S
C2198 C355 1.521 . S
C2233 C204 1.315 . S
C2248 C253 1.266 . S
C2298 C273 1.687 . S
C2283 C217 1.769 . S
C2333 C230 1.524 . S
C2348 C282 1.491 . S
C2383 C87 1.727 . S
C2398 C262 1.678 . S
C2433 C100 1.598 . S
C2448 C293 1.532 . S
C2498 C242 1.267 . S
C2483 C113 1.288 . S
C2533 C48 1.315 . S
C2548 C313 1.266 . S
C2583 C61 1.769 . S
C2598 C333 1.686 . S
C2633 C74 1.524 . S
C2648 C342 1.492 . S
C2683 C165 1.727 . S
C2698 C322 1.679 . S
C2748 C353 1.532 . S
C2733 C178 1.598 . S
C2783 C191 1.288 . S
C2798 C302 1.266 . S
C2833 C126 1.315 . S
C2848 C373 1.266 . S
C2883 C139 1.769 . S
C2898 C393 1.686 . S
C2948 C402 1.491 . S
C2933 C152 1.524 . S
C2983 C9 1.728 . S
C2998 C382 1.679 . S
C3033 C22 1.598 . S
C3048 C413 1.531 . S
C3083 C35 1.289 . S
C3098 C362 1.266 . S
