# Generated by pormake.
# Topology eea, (3,6)-cn, num edge types: 1
# Building blocks:
#     Node 0, Type 0, BuildingBlock: BETDIP_clean_linker_0, # of connection points: 3
#     Node 1, Type 0, BuildingBlock: BETDIP_clean_linker_0, # of connection points: 3
#     Node 2, Type 0, BuildingBlock: BETDIP_clean_linker_0, # of connection points: 3
#     Node 3, Type 0, BuildingBlock: BETDIP_clean_linker_0, # of connection points: 3
#     Node 4, Type 0, BuildingBlock: BETDIP_clean_linker_0, # of connection points: 3
#     Node 5, Type 0, BuildingBlock: BETDIP_clean_linker_0, # of connection points: 3
#     Node 6, Type 0, BuildingBlock: BETDIP_clean_linker_0, # of connection points: 3
#     Node 7, Type 0, BuildingBlock: BETDIP_clean_linker_0, # of connection points: 3
#     Node 8, Type 0, BuildingBlock: BETDIP_clean_linker_0, # of connection points: 3
#     Node 9, Type 0, BuildingBlock: BETDIP_clean_linker_0, # of connection points: 3
#     Node 10, Type 0, BuildingBlock: BETDIP_clean_linker_0, # of connection points: 3
#     Node 11, Type 0, BuildingBlock: BETDIP_clean_linker_0, # of connection points: 3
#     Node 12, Type 0, BuildingBlock: BETDIP_clean_linker_0, # of connection points: 3
#     Node 13, Type 0, BuildingBlock: BETDIP_clean_linker_0, # of connection points: 3
#     Node 14, Type 0, BuildingBlock: BETDIP_clean_linker_0, # of connection points: 3
#     Node 15, Type 0, BuildingBlock: BETDIP_clean_linker_0, # of connection points: 3
#     Node 16, Type 0, BuildingBlock: BETDIP_clean_linker_0, # of connection points: 3
#     Node 17, Type 0, BuildingBlock: BETDIP_clean_linker_0, # of connection points: 3
#     Node 18, Type 1, BuildingBlock: NUHQIS_clean_sbu_0, # of connection points: 6
#     Node 19, Type 1, BuildingBlock: NUHQIS_clean_sbu_0, # of connection points: 6
#     Node 20, Type 1, BuildingBlock: NUHQIS_clean_sbu_0, # of connection points: 6
#     Node 21, Type 1, BuildingBlock: NUHQIS_clean_sbu_0, # of connection points: 6
#     Node 22, Type 1, BuildingBlock: NUHQIS_clean_sbu_0, # of connection points: 6
#     Node 23, Type 1, BuildingBlock: NUHQIS_clean_sbu_0, # of connection points: 6
#     Node 24, Type 1, BuildingBlock: NUHQIS_clean_sbu_0, # of connection points: 6
#     Node 25, Type 1, BuildingBlock: NUHQIS_clean_sbu_0, # of connection points: 6
#     Node 26, Type 1, BuildingBlock: NUHQIS_clean_sbu_0, # of connection points: 6
#     Edge 27, Type (0, 1), BuildingBlock: CIFDUS_clean_linker_0, # of connection points: 2
#     Edge 28, Type (0, 1), BuildingBlock: CIFDUS_clean_linker_0, # of connection points: 2
#     Edge 29, Type (0, 1), BuildingBlock: CIFDUS_clean_linker_0, # of connection points: 2
#     Edge 30, Type (0, 1), BuildingBlock: CIFDUS_clean_linker_0, # of connection points: 2
#     Edge 31, Type (0, 1), BuildingBlock: CIFDUS_clean_linker_0, # of connection points: 2
#     Edge 32, Type (0, 1), BuildingBlock: CIFDUS_clean_linker_0, # of connection points: 2
#     Edge 33, Type (0, 1), BuildingBlock: CIFDUS_clean_linker_0, # of connection points: 2
#     Edge 34, Type (0, 1), BuildingBlock: CIFDUS_clean_linker_0, # of connection points: 2
#     Edge 35, Type (0, 1), BuildingBlock: CIFDUS_clean_linker_0, # of connection points: 2
#     Edge 36, Type (0, 1), BuildingBlock: CIFDUS_clean_linker_0, # of connection points: 2
#     Edge 37, Type (0, 1), BuildingBlock: CIFDUS_clean_linker_0, # of connection points: 2
#     Edge 38, Type (0, 1), BuildingBlock: CIFDUS_clean_linker_0, # of connection points: 2
#     Edge 39, Type (0, 1), BuildingBlock: CIFDUS_clean_linker_0, # of connection points: 2
#     Edge 40, Type (0, 1), BuildingBlock: CIFDUS_clean_linker_0, # of connection points: 2
#     Edge 41, Type (0, 1), BuildingBlock: CIFDUS_clean_linker_0, # of connection points: 2
#     Edge 42, Type (0, 1), BuildingBlock: CIFDUS_clean_linker_0, # of connection points: 2
#     Edge 43, Type (0, 1), BuildingBlock: CIFDUS_clean_linker_0, # of connection points: 2
#     Edge 44, Type (0, 1), BuildingBlock: CIFDUS_clean_linker_0, # of connection points: 2
#     Edge 45, Type (0, 1), BuildingBlock: CIFDUS_clean_linker_0, # of connection points: 2
#     Edge 46, Type (0, 1), BuildingBlock: CIFDUS_clean_linker_0, # of connection points: 2
#     Edge 47, Type (0, 1), BuildingBlock: CIFDUS_clean_linker_0, # of connection points: 2
#     Edge 48, Type (0, 1), BuildingBlock: CIFDUS_clean_linker_0, # of connection points: 2
#     Edge 49, Type (0, 1), BuildingBlock: CIFDUS_clean_linker_0, # of connection points: 2
#     Edge 50, Type (0, 1), BuildingBlock: CIFDUS_clean_linker_0, # of connection points: 2
#     Edge 51, Type (0, 1), BuildingBlock: CIFDUS_clean_linker_0, # of connection points: 2
#     Edge 52, Type (0, 1), BuildingBlock: CIFDUS_clean_linker_0, # of connection points: 2
#     Edge 53, Type (0, 1), BuildingBlock: CIFDUS_clean_linker_0, # of connection points: 2
#     Edge 54, Type (0, 1), BuildingBlock: CIFDUS_clean_linker_0, # of connection points: 2
#     Edge 55, Type (0, 1), BuildingBlock: CIFDUS_clean_linker_0, # of connection points: 2
#     Edge 56, Type (0, 1), BuildingBlock: CIFDUS_clean_linker_0, # of connection points: 2
#     Edge 57, Type (0, 1), BuildingBlock: CIFDUS_clean_linker_0, # of connection points: 2
#     Edge 58, Type (0, 1), BuildingBlock: CIFDUS_clean_linker_0, # of connection points: 2
#     Edge 59, Type (0, 1), BuildingBlock: CIFDUS_clean_linker_0, # of connection points: 2
#     Edge 60, Type (0, 1), BuildingBlock: CIFDUS_clean_linker_0, # of connection points: 2
#     Edge 61, Type (0, 1), BuildingBlock: CIFDUS_clean_linker_0, # of connection points: 2
#     Edge 62, Type (0, 1), BuildingBlock: CIFDUS_clean_linker_0, # of connection points: 2
#     Edge 63, Type (0, 1), BuildingBlock: CIFDUS_clean_linker_0, # of connection points: 2
#     Edge 64, Type (0, 1), BuildingBlock: CIFDUS_clean_linker_0, # of connection points: 2
#     Edge 65, Type (0, 1), BuildingBlock: CIFDUS_clean_linker_0, # of connection points: 2
#     Edge 66, Type (0, 1), BuildingBlock: CIFDUS_clean_linker_0, # of connection points: 2
#     Edge 67, Type (0, 1), BuildingBlock: CIFDUS_clean_linker_0, # of connection points: 2
#     Edge 68, Type (0, 1), BuildingBlock: CIFDUS_clean_linker_0, # of connection points: 2
#     Edge 69, Type (0, 1), BuildingBlock: CIFDUS_clean_linker_0, # of connection points: 2
#     Edge 70, Type (0, 1), BuildingBlock: CIFDUS_clean_linker_0, # of connection points: 2
#     Edge 71, Type (0, 1), BuildingBlock: CIFDUS_clean_linker_0, # of connection points: 2
#     Edge 72, Type (0, 1), BuildingBlock: CIFDUS_clean_linker_0, # of connection points: 2
#     Edge 73, Type (0, 1), BuildingBlock: CIFDUS_clean_linker_0, # of connection points: 2
#     Edge 74, Type (0, 1), BuildingBlock: CIFDUS_clean_linker_0, # of connection points: 2
#     Edge 75, Type (0, 1), BuildingBlock: CIFDUS_clean_linker_0, # of connection points: 2
#     Edge 76, Type (0, 1), BuildingBlock: CIFDUS_clean_linker_0, # of connection points: 2
#     Edge 77, Type (0, 1), BuildingBlock: CIFDUS_clean_linker_0, # of connection points: 2
#     Edge 78, Type (0, 1), BuildingBlock: CIFDUS_clean_linker_0, # of connection points: 2
#     Edge 79, Type (0, 1), BuildingBlock: CIFDUS_clean_linker_0, # of connection points: 2
#     Edge 80, Type (0, 1), BuildingBlock: CIFDUS_clean_linker_0, # of connection points: 2
# Relax obj value: 0.061
# Max RMSD: 0.216
# Mean RMSD: 0.153
data_MOF--net-eea--node1-NUHQIS_clean_sbu_0--node2-BETDIP_clean_linker_0--edge1-CIFDUS_clean_linker_0
_symmetry_space_group_name_H-M    P1
_symmetry_Int_Tables_number       1
_symmetry_cell_setting            triclinic
loop_
_symmetry_equiv_pos_as_xyz
'x, y, z'
_cell_length_a     47.305794
_cell_length_b     47.957734
_cell_length_c     62.881049
_cell_angle_alpha  93.039292
_cell_angle_beta   92.655092
_cell_angle_gamma 120.03972
loop_
_atom_site_label
_atom_site_type_symbol
_atom_site_fract_x
_atom_site_fract_y
_atom_site_fract_z
_atom_type_partial_charge
H0 H 0.24417 0.10779 0.38232 0.0
H1 H 0.26518 0.16156 0.44382 0.0
H2 H 0.27181 0.07575 0.43814 0.0
H3 H 0.28094 0.20294 0.42396 0.0
C4 C 0.26224 0.19345 0.41064 0.0
C5 C 0.25115 0.11093 0.39932 0.0
C6 C 0.25764 0.08854 0.40878 0.0
C7 C 0.25489 0.13809 0.41164 0.0
C8 C 0.26371 0.14177 0.43379 0.0
C9 C 0.26983 0.11938 0.4434 0.0
C10 C 0.26681 0.09296 0.43079 0.0
N11 N 0.24932 0.1611 0.4016 0.0
H12 H 0.93314 0.14264 0.38565 0.0
H13 H 0.8783 0.11689 0.44109 0.0
H14 H 0.96164 0.21155 0.44089 0.0
H15 H 0.83687 0.08777 0.41653 0.0
C16 C 0.84706 0.07641 0.40652 0.0
C17 C 0.92966 0.14897 0.40171 0.0
C18 C 0.95131 0.18016 0.41197 0.0
C19 C 0.90254 0.12623 0.41181 0.0
C20 C 0.89791 0.13457 0.43261 0.0
C21 C 0.9185 0.16548 0.44292 0.0
C22 C 0.94545 0.18787 0.4327 0.0
N23 N 0.88003 0.09522 0.40099 0.0
H24 H 0.88798 0.78549 0.39084 0.0
H25 H 0.92216 0.75378 0.44361 0.0
H26 H 0.82879 0.74847 0.44374 0.0
H27 H 0.97195 0.78846 0.43279 0.0
C28 C 0.96837 0.78665 0.41548 0.0
C29 C 0.88431 0.776 0.40636 0.0
C30 C 0.85523 0.76796 0.41609 0.0
C31 C 0.90889 0.77169 0.41629 0.0
C32 C 0.9038 0.75802 0.43607 0.0
C33 C 0.87476 0.74929 0.44608 0.0
C34 C 0.85098 0.75485 0.43606 0.0
N35 N 0.93777 0.7803 0.40554 0.0
H36 H 0.08969 0.21755 0.63804 0.0
H37 H 0.15858 0.26216 0.59149 0.0
H38 H 0.0667 0.26009 0.58602 0.0
H39 H 0.17174 0.22439 0.59937 0.0
C40 C 0.17041 0.22381 0.61655 0.0
C41 C 0.09588 0.22987 0.62355 0.0
C42 C 0.07398 0.23741 0.61297 0.0
C43 C 0.12583 0.23776 0.61559 0.0
C44 C 0.135 0.25507 0.59742 0.0
C45 C 0.11395 0.26351 0.5868 0.0
C46 C 0.08323 0.25416 0.59445 0.0
N47 N 0.14632 0.22826 0.62636 0.0
H48 H 0.79159 0.8817 0.64669 0.0
H49 H 0.75771 0.90158 0.5881 0.0
H50 H 0.76082 0.81391 0.59087 0.0
H51 H 0.79725 0.9526 0.60044 0.0
C52 C 0.79305 0.95338 0.61725 0.0
C53 C 0.78214 0.8745 0.63007 0.0
C54 C 0.77695 0.84516 0.62025 0.0
C55 C 0.77609 0.89526 0.61847 0.0
C56 C 0.7631 0.88589 0.59706 0.0
C57 C 0.75739 0.85649 0.587 0.0
C58 C 0.76461 0.83635 0.59867 0.0
N59 N 0.7839 0.9257 0.62859 0.0
H60 H 0.13152 0.89374 0.64504 0.0
H61 H 0.1055 0.82813 0.58882 0.0
H62 H 0.18692 0.92515 0.59012 0.0
H63 H 0.05419 0.81056 0.60058 0.0
C64 C 0.05787 0.81198 0.61788 0.0
C65 C 0.13596 0.88899 0.62886 0.0
C66 C 0.16167 0.91335 0.61884 0.0
C67 C 0.1152 0.8586 0.61804 0.0
C68 C 0.12106 0.85182 0.59716 0.0
C69 C 0.1471 0.87577 0.587 0.0
C70 C 0.16707 0.90647 0.59795 0.0
N71 N 0.08832 0.83577 0.62856 0.0
H72 H 0.92294 0.44613 0.7035 0.0
H73 H 0.95619 0.51546 0.75857 0.0
H74 H 0.95899 0.42802 0.76216 0.0
H75 H 0.95685 0.54875 0.73631 0.0
C76 C 0.93878 0.53482 0.72304 0.0
C77 C 0.93349 0.45377 0.71989 0.0
C78 C 0.94046 0.43355 0.7317 0.0
C79 C 0.93975 0.48377 0.72912 0.0
C80 C 0.95269 0.4933 0.75063 0.0
C81 C 0.95973 0.47328 0.76257 0.0
C82 C 0.95387 0.44367 0.75291 0.0
N83 N 0.9308 0.50263 0.71676 0.0
H84 H 0.59383 0.45733 0.72282 0.0
H85 H 0.52818 0.44554 0.77077 0.0
H86 H 0.61878 0.5355 0.77093 0.0
H87 H 0.51476 0.39314 0.76501 0.0
C88 C 0.51454 0.39018 0.74775 0.0
C89 C 0.58838 0.46707 0.73698 0.0
C90 C 0.61024 0.4988 0.74577 0.0
C91 C 0.55929 0.44756 0.74615 0.0
C92 C 0.55113 0.46023 0.76391 0.0
C93 C 0.57235 0.49197 0.77291 0.0
C94 C 0.60215 0.5111 0.76392 0.0
N95 N 0.53827 0.41558 0.73675 0.0
H96 H 0.5453 0.11621 0.72159 0.0
H97 H 0.57624 0.08002 0.77332 0.0
H98 H 0.48047 0.06938 0.77038 0.0
H99 H 0.62291 0.09938 0.75806 0.0
C100 C 0.62087 0.10682 0.74235 0.0
C101 C 0.53989 0.10378 0.73604 0.0
C102 C 0.50961 0.09339 0.74458 0.0
C103 C 0.56387 0.0988 0.7459 0.0
C104 C 0.55807 0.08404 0.76529 0.0
C105 C 0.52796 0.07359 0.77422 0.0
C106 C 0.50378 0.07795 0.76363 0.0
N107 N 0.59292 0.1086 0.73529 0.0
H108 H 0.76424 0.53501 0.95964 0.0
H109 H 0.81864 0.56728 0.9047 0.0
H110 H 0.7304 0.57123 0.9088 0.0
H111 H 0.83 0.52781 0.91193 0.0
C112 C 0.83471 0.5314 0.92922 0.0
C113 C 0.76677 0.54472 0.94423 0.0
C114 C 0.74347 0.55224 0.93575 0.0
C115 C 0.79327 0.54908 0.93291 0.0
C116 C 0.79752 0.56257 0.91321 0.0
C117 C 0.77515 0.5709 0.90451 0.0
C118 C 0.74819 0.56575 0.91586 0.0
N119 N 0.8154 0.5399 0.94175 0.0
H120 H 0.45072 0.20404 0.97725 0.0
H121 H 0.39721 0.22494 0.92978 0.0
H122 H 0.3918 0.1332 0.92494 0.0
H123 H 0.40409 0.26327 0.95243 0.0
C124 C 0.42594 0.27072 0.96294 0.0
C125 C 0.43377 0.1963 0.9631 0.0
C126 C 0.42252 0.16576 0.95207 0.0
C127 C 0.42417 0.21763 0.95565 0.0
C128 C 0.40379 0.20852 0.93651 0.0
C129 C 0.39211 0.17814 0.92542 0.0
C130 C 0.40097 0.15669 0.93354 0.0
N131 N 0.43685 0.24859 0.96708 0.0
H132 H 0.8132 0.25257 0.97008 0.0
H133 H 0.77299 0.17539 0.91967 0.0
H134 H 0.86288 0.26297 0.91283 0.0
H135 H 0.72559 0.16899 0.93378 0.0
C136 C 0.7318 0.17089 0.95086 0.0
C137 C 0.81508 0.24298 0.95456 0.0
C138 C 0.84096 0.2622 0.94224 0.0
C139 C 0.7904 0.21178 0.94659 0.0
C140 C 0.79184 0.19941 0.92603 0.0
C141 C 0.81762 0.21825 0.91357 0.0
C142 C 0.84229 0.2491 0.92207 0.0
N143 N 0.76421 0.19372 0.95945 0.0
H144 H 0.58909 0.78298 0.03463 0.0
H145 H 0.6331 0.8504 0.0903 0.0
H146 H 0.62262 0.75623 0.09069 0.0
H147 H 0.59014 0.85795 0.07985 0.0
C148 C 0.59271 0.86005 0.06282 0.0
C149 C 0.60066 0.78878 0.05078 0.0
C150 C 0.60486 0.76576 0.06128 0.0
C151 C 0.60996 0.81891 0.06132 0.0
C152 C 0.62543 0.82693 0.08217 0.0
C153 C 0.63017 0.80444 0.09286 0.0
C154 C 0.61969 0.7739 0.08231 0.0
N155 N 0.60174 0.83997 0.05114 0.0
H156 H 0.28174 0.80816 0.05994 0.0
H157 H 0.20488 0.78044 0.10188 0.0
H158 H 0.29009 0.87516 0.112 0.0
H159 H 0.1767 0.759 0.06305 0.0
C160 C 0.18879 0.74477 0.0629 0.0
C161 C 0.27195 0.81436 0.07346 0.0
C162 C 0.28986 0.84515 0.08485 0.0
C163 C 0.24102 0.79142 0.0792 0.0
C164 C 0.22828 0.79864 0.09697 0.0
C165 C 0.24631 0.82846 0.10915 0.0
C166 C 0.27688 0.85174 0.10293 0.0
N167 N 0.22331 0.76066 0.06745 0.0
H168 H 0.22397 0.4617 0.05669 0.0
H169 H 0.26463 0.43705 0.11007 0.0
H170 H 0.17302 0.43449 0.11378 0.0
H171 H 0.31229 0.46926 0.09664 0.0
C172 C 0.30723 0.46644 0.0794 0.0
C173 C 0.22246 0.45458 0.07285 0.0
C174 C 0.19482 0.44797 0.08389 0.0
C175 C 0.24832 0.45187 0.08236 0.0
C176 C 0.24586 0.44111 0.10303 0.0
C177 C 0.21839 0.43417 0.11437 0.0
C178 C 0.19347 0.43837 0.10478 0.0
N179 N 0.27584 0.45922 0.07043 0.0
H180 H 0.43681 0.87467 0.29954 0.0
H181 H 0.4923 0.91491 0.24622 0.0
H182 H 0.40197 0.91447 0.25175 0.0
H183 H 0.50193 0.87263 0.24951 0.0
C184 C 0.5075 0.87507 0.2667 0.0
C185 C 0.43913 0.88586 0.28473 0.0
C186 C 0.41557 0.89389 0.2774 0.0
C187 C 0.46593 0.89196 0.27304 0.0
C188 C 0.47046 0.90815 0.25442 0.0
C189 C 0.44778 0.91682 0.24673 0.0
C190 C 0.42018 0.90911 0.25816 0.0
N191 N 0.48841 0.88223 0.28049 0.0
H192 H 0.13519 0.54801 0.31696 0.0
H193 H 0.104 0.57 0.25817 0.0
H194 H 0.08218 0.47306 0.26557 0.0
H195 H 0.13911 0.59777 0.32945 0.0
C196 C 0.14446 0.61173 0.31564 0.0
C197 C 0.12232 0.54012 0.30119 0.0
C198 C 0.10804 0.5074 0.29309 0.0
C199 C 0.12064 0.56259 0.2884 0.0
C200 C 0.10499 0.55239 0.26784 0.0
C201 C 0.0907 0.52015 0.25961 0.0
C202 C 0.09208 0.49775 0.27233 0.0
N203 N 0.1358 0.59612 0.29466 0.0
H204 H 0.46335 0.58067 0.29751 0.0
H205 H 0.44078 0.51478 0.24198 0.0
H206 H 0.53143 0.60549 0.24891 0.0
H207 H 0.42533 0.53479 0.31168 0.0
C208 C 0.40771 0.51985 0.29841 0.0
C209 C 0.47011 0.57469 0.28248 0.0
C210 C 0.50021 0.59695 0.27479 0.0
C211 C 0.44874 0.54492 0.27062 0.0
C212 C 0.4576 0.53753 0.25111 0.0
C213 C 0.48762 0.55893 0.24328 0.0
C214 C 0.50854 0.5887 0.2551 0.0
N215 N 0.41766 0.52203 0.27726 0.0
Tb216 Tb 0.49623 0.99842 0.99258 0.0
Eu217 Eu 0.51873 0.03521 0.04191 0.0
C218 C 0.52217 0.97286 0.02922 0.0
C219 C 0.44686 0.97126 0.02822 0.0
C220 C 0.49539 0.99137 0.93331 0.0
C221 C 0.53554 0.02285 0.9086 0.0
C222 C 0.52811 0.00942 0.9282 0.0
C223 C 0.47033 0.98723 0.91833 0.0
C224 C 0.47779 1.0009 0.89873 0.0
C225 C 0.51052 0.01882 0.89355 0.0
C226 C 0.48729 0.97642 0.95392 0.0
O227 O 0.47477 0.02955 0.99464 0.0
O228 O 0.50466 0.06595 0.02385 0.0
O229 O 0.56398 0.05691 0.02286 0.0
O230 O 0.53512 0.04728 0.99069 0.0
C231 C 0.48411 0.05662 0.00669 0.0
O232 O 0.51194 0.0584 0.07054 0.0
O233 O 0.55264 0.04963 0.07048 0.0
O234 O 0.5117 0.98605 0.04302 0.0
O235 O 0.52526 0.98086 0.00944 0.0
O236 O 0.45669 0.9648 0.01033 0.0
O237 O 0.46465 0.99828 0.04066 0.0
C238 C 0.56286 0.06215 1.00256 0.0
O239 O 0.512 0.98157 0.96695 0.0
O240 O 0.46497 0.97863 0.96411 0.0
C241 C 0.52502 0.04037 0.10228 0.0
C242 C 0.50536 0.00459 0.13867 0.0
C243 C 0.48457 0.01333 0.12796 0.0
C244 C 0.49423 0.03094 0.10994 0.0
C245 C 0.54619 0.03257 0.11346 0.0
C246 C 0.53644 0.0148 0.13134 0.0
C247 C 0.5346 0.05674 0.08218 0.0
H248 H 0.56098 0.036 0.90515 0.0
H249 H 0.54814 0.0131 0.93928 0.0
H250 H 0.44491 0.97344 0.92178 0.0
H251 H 0.45785 0.99765 0.88775 0.0
H252 H 0.46041 0.00571 0.13311 0.0
H253 H 0.47725 0.03655 0.1018 0.0
H254 H 0.57016 0.03968 0.10814 0.0
H255 H 0.55327 0.00893 0.13942 0.0
Tb256 Tb 0.03153 0.50461 0.98886 0.0
Eu257 Eu 1.00322 0.4936 0.03614 0.0
C258 C 0.0579 0.5613 0.02463 0.0
C259 C 0.06629 0.48875 0.02633 0.0
C260 C 0.03929 0.50686 0.93012 0.0
C261 C 0.02204 0.52193 0.89779 0.0
C262 C 0.03566 0.5296 0.91891 0.0
C263 C 0.02949 0.47639 0.91964 0.0
C264 C 0.01599 0.46876 0.89845 0.0
C265 C 0.01206 0.49143 0.8873 0.0
C266 C 0.05355 0.51541 0.95254 0.0
O267 O 0.99911 0.45232 0.98806 0.0
O268 O 0.96748 0.44888 0.01573 0.0
O269 O 0.97621 0.51277 0.01679 0.0
O270 O 0.98241 0.49692 0.98309 0.0
C271 C 0.9734 0.43599 0.99887 0.0
O272 O 0.98127 0.4631 0.06192 0.0
O273 O 0.99171 0.51268 0.06459 0.0
O274 O 0.05102 0.5408 0.03915 0.0
O275 O 0.04468 0.55132 1.00498 0.0
O276 O 0.07029 0.5068 0.01043 0.0
O277 O 0.03901 0.47566 0.03588 0.0
C278 C 0.96777 0.50695 0.99611 0.0
O279 O 0.04709 0.53476 0.96386 0.0
O280 O 0.05164 0.4922 0.96343 0.0
C281 C 0.99865 0.49136 0.09572 0.0
C282 C 0.02954 0.50133 0.13685 0.0
C283 C 0.9962 0.49203 0.13408 0.0
C284 C 0.98086 0.48709 0.11361 0.0
C285 C 0.0318 0.50034 0.09833 0.0
C286 C 0.04715 0.50527 0.11876 0.0
C287 C 0.98271 0.48651 0.07433 0.0
H288 H 0.019 0.5398 0.88976 0.0
H289 H 0.04322 0.55337 0.92651 0.0
H290 H 0.03227 0.45843 0.92774 0.0
H291 H 1.00905 0.44524 0.89071 0.0
H292 H 0.98216 0.48923 0.14775 0.0
H293 H 0.95522 0.48017 0.11176 0.0
H294 H 0.04577 0.50358 0.08456 0.0
H295 H 0.07275 0.51206 0.12041 0.0
Tb296 Tb 0.54454 0.51558 0.03007 0.0
Eu297 Eu 0.51472 0.52894 0.98576 0.0
C298 C 0.50743 0.4604 0.99258 0.0
C299 C 0.58612 0.53541 0.99072 0.0
C300 C 0.5578 0.51668 0.08842 0.0
C301 C 0.523 0.50473 0.118 0.0
C302 C 0.52928 0.49569 0.09806 0.0
C303 C 0.58037 0.54656 0.09959 0.0
C304 C 0.57408 0.55561 0.11958 0.0
C305 C 0.54515 0.53492 0.12895 0.0
C306 C 0.56309 0.50792 0.06651 0.0
O307 O 0.56731 0.56775 0.02881 0.0
O308 O 0.52638 0.57019 0.00975 0.0
O309 O 0.47193 0.5061 1.00627 0.0
O310 O 0.50306 0.52063 0.03832 0.0
C311 C 0.55283 0.58378 0.02301 0.0
O312 O 0.51924 0.56281 0.96249 0.0
O313 O 0.48121 0.51256 0.95683 0.0
O314 O 0.51388 0.48224 0.97904 0.0
O315 O 0.5127 0.46793 0.01332 0.0
O316 O 0.57706 0.51614 1.0063 0.0
O317 O 0.56883 0.54826 0.98403 0.0
C318 C 0.47466 0.50968 0.02731 0.0
O319 O 0.53714 0.48574 0.05493 0.0
O320 O 0.58162 0.53161 0.0553 0.0
C321 C 0.51021 0.53837 0.92775 0.0
C322 C 0.53653 0.53674 0.8886 0.0
C323 C 0.51438 0.54817 0.89019 0.0
C324 C 0.50137 0.54903 0.90965 0.0
C325 C 0.53228 0.52701 0.92624 0.0
C326 C 0.54525 0.52614 0.90689 0.0
C327 C 0.49778 0.54008 0.9485 0.0
H328 H 0.5003 0.48832 0.12457 0.0
H329 H 0.51137 0.47241 0.09001 0.0
H330 H 0.60272 0.5632 0.09275 0.0
H331 H 0.59193 0.57883 0.12772 0.0
H332 H 0.50738 0.55678 0.87647 0.0
H333 H 0.48461 0.55816 0.91059 0.0
H334 H 0.53952 0.51881 0.9401 0.0
H335 H 0.56175 0.51667 0.90621 0.0
Tb336 Tb 0.16878 0.32966 0.32499 0.0
Eu337 Eu 0.18475 0.35887 0.37572 0.0
C338 C 0.19225 0.29842 0.36002 0.0
C339 C 0.11576 0.29791 0.35773 0.0
C340 C 0.16145 0.32458 0.26494 0.0
C341 C 0.15004 0.317 0.22634 0.0
C342 C 0.14569 0.30429 0.24622 0.0
C343 C 0.18178 0.35794 0.26355 0.0
C344 C 0.18622 0.37074 0.2436 0.0
C345 C 0.17029 0.3504 0.22472 0.0
C346 C 0.15699 0.31025 0.28559 0.0
O347 O 0.14991 0.36288 0.32933 0.0
O348 O 0.18624 0.39749 0.35664 0.0
O349 O 0.23358 0.38114 0.36165 0.0
O350 O 0.21544 0.37508 0.32621 0.0
C351 C 0.16525 0.39137 0.34032 0.0
O352 O 0.17302 0.38153 0.40219 0.0
O353 O 0.21124 0.3696 0.40713 0.0
O354 O 0.18392 0.31178 0.37538 0.0
O355 O 0.19245 0.30567 0.34009 0.0
O356 O 0.13007 0.29234 0.34194 0.0
O357 O 0.13011 0.32593 0.36916 0.0
C358 C 0.23907 0.38832 0.34179 0.0
O359 O 0.18367 0.3169 0.29698 0.0
O360 O 0.13581 0.31192 0.29735 0.0
C361 C 0.17854 0.36402 0.43548 0.0
C362 C 0.1514 0.33491 0.47284 0.0
C363 C 0.17217 0.36864 0.47333 0.0
C364 C 0.18563 0.38304 0.4548 0.0
C365 C 0.15748 0.33046 0.43476 0.0
C366 C 0.14405 0.31601 0.45329 0.0
C367 C 0.19293 0.37927 0.41611 0.0
H368 H 0.1378 0.30053 0.21217 0.0
H369 H 0.13011 0.27847 0.24694 0.0
H370 H 0.19422 0.37404 0.27786 0.0
H371 H 0.20173 0.39658 0.24299 0.0
H372 H 0.17794 0.38395 0.48804 0.0
H373 H 0.20163 0.40902 0.45556 0.0
H374 H 0.15166 0.31543 0.41989 0.0
H375 H 0.12849 0.28997 0.45237 0.0
Tb376 Tb 0.7051 0.83817 0.31829 0.0
Eu377 Eu 0.67248 0.82472 0.3643 0.0
C378 C 0.73523 0.89325 0.35675 0.0
C379 C 0.73618 0.81921 0.35624 0.0
C380 C 0.71304 0.83669 0.25981 0.0
C381 C 0.72015 0.83691 0.22186 0.0
C382 C 0.73355 0.84523 0.24308 0.0
C383 C 0.67893 0.81938 0.25519 0.0
C384 C 0.66548 0.81106 0.23398 0.0
C385 C 0.68596 0.81993 0.21706 0.0
C386 C 0.72743 0.84695 0.28196 0.0
O387 O 0.67448 0.78596 0.31863 0.0
O388 O 0.63632 0.78433 0.3402 0.0
O389 O 0.65244 0.85118 0.34646 0.0
O390 O 0.65789 0.83602 0.31251 0.0
C391 C 0.64508 0.77053 0.32542 0.0
O392 O 0.64928 0.79162 0.38876 0.0
O393 O 0.65478 0.83933 0.39166 0.0
O394 O 0.72004 0.87228 0.37076 0.0
O395 O 0.72852 0.88553 0.33604 0.0
O396 O 0.74195 0.83776 0.34041 0.0
O397 O 0.70812 0.80645 0.36493 0.0
C398 C 0.64455 0.84729 0.32584 0.0
O399 O 0.72025 0.86651 0.29233 0.0
O400 O 0.72503 0.82421 0.29351 0.0
C401 C 0.65675 0.81656 0.42344 0.0
C402 C 0.6769 0.8259 0.46731 0.0
C403 C 0.64348 0.81129 0.46032 0.0
C404 C 0.63351 0.80667 0.43854 0.0
C405 C 0.6901 0.83075 0.43022 0.0
C406 C 0.70011 0.83537 0.45202 0.0
C407 C 0.64592 0.81266 0.40073 0.0
H408 H 0.73657 0.84367 0.20922 0.0
H409 H 0.75994 0.85857 0.24642 0.0
H410 H 0.66275 0.81272 0.26799 0.0
H411 H 0.63907 0.79831 0.23083 0.0
H412 H 0.625 0.80335 0.47168 0.0
H413 H 0.60766 0.7956 0.4335 0.0
H414 H 0.70834 0.83859 0.41868 0.0
H415 H 0.72605 0.84702 0.45691 0.0
Tb416 Tb 0.21658 0.8584 0.37277 0.0
Eu417 Eu 0.17938 0.85005 0.32575 0.0
C418 C 0.18441 0.79271 0.34503 0.0
C419 C 0.25558 0.87173 0.33217 0.0
C420 C 0.23127 0.87058 0.43104 0.0
C421 C 0.22887 0.86454 0.46912 0.0
C422 C 0.24077 0.86154 0.44967 0.0
C423 C 0.2097 0.88262 0.43205 0.0
C424 C 0.19782 0.88564 0.45144 0.0
C425 C 0.20724 0.8766 0.47021 0.0
C426 C 0.24204 0.86553 0.41036 0.0
O427 O 0.22901 0.90644 0.36408 0.0
O428 O 0.18225 0.89325 0.34369 0.0
O429 O 0.13844 0.82822 0.34777 0.0
O430 O 0.16979 0.85429 0.3793 0.0
C431 C 0.20821 0.91438 0.35594 0.0
O432 O 0.17021 0.87218 0.29897 0.0
O433 O 0.14927 0.82022 0.29695 0.0
O434 O 0.18823 0.8082 0.32787 0.0
O435 O 0.18665 0.80683 0.36392 0.0
O436 O 0.25012 0.8577 0.35016 0.0
O437 O 0.23404 0.87787 0.32292 0.0
C438 C 0.14103 0.83703 0.36832 0.0
O439 O 0.2228 0.83757 0.3999 0.0
O440 O 0.25104 0.88886 0.39791 0.0
C441 C 0.16975 0.84653 0.26579 0.0
C442 C 0.19684 0.8471 0.22657 0.0
C443 C 0.21612 0.86925 0.24403 0.0
C444 C 0.20282 0.86882 0.26344 0.0
C445 C 0.15028 0.82461 0.24841 0.0
C446 C 0.16369 0.8248 0.22899 0.0
C447 C 0.15594 0.84533 0.28651 0.0
H448 H 0.23684 0.8577 0.48334 0.0
H449 H 0.25718 0.85195 0.44914 0.0
H450 H 0.20174 0.88939 0.41779 0.0
H451 H 0.18086 0.89458 0.45166 0.0
H452 H 0.24157 0.88707 0.24272 0.0
H453 H 0.21854 0.88587 0.27666 0.0
H454 H 0.12481 0.80703 0.24995 0.0
H455 H 0.14823 0.80702 0.21604 0.0
Tb456 Tb 0.81422 0.64894 0.65547 0.0
Eu457 Eu 0.83948 0.69036 0.70331 0.0
C458 C 0.84601 0.62917 0.69237 0.0
C459 C 0.7676 0.62831 0.69201 0.0
C460 C 0.80672 0.64137 0.59692 0.0
C461 C 0.81165 0.64053 0.55852 0.0
C462 C 0.8041 0.62454 0.57731 0.0
C463 C 0.81703 0.67444 0.59747 0.0
C464 C 0.82465 0.69043 0.57875 0.0
C465 C 0.82211 0.67375 0.55897 0.0
C466 C 0.80082 0.62518 0.61698 0.0
O467 O 0.79263 0.67973 0.65819 0.0
O468 O 0.83059 0.72153 0.68184 0.0
O469 O 0.88414 0.7083 0.68445 0.0
O470 O 0.85532 0.69636 0.65188 0.0
C471 C 0.80647 0.70978 0.66669 0.0
O472 O 0.83264 0.7168 0.73004 0.0
O473 O 0.87192 0.70611 0.73272 0.0
O474 O 0.83504 0.64217 0.70607 0.0
O475 O 0.84489 0.63319 0.6719 0.0
O476 O 0.77822 0.61739 0.67645 0.0
O477 O 0.78479 0.65808 0.70087 0.0
C478 C 0.88317 0.71097 0.66375 0.0
O479 O 0.82717 0.63132 0.62855 0.0
O480 O 0.77968 0.62698 0.62874 0.0
C481 C 0.84279 0.70103 0.76304 0.0
C482 C 0.82046 0.67209 0.80151 0.0
C483 C 0.84318 0.70544 0.80179 0.0
C484 C 0.85426 0.71975 0.78272 0.0
C485 C 0.81992 0.66787 0.76263 0.0
C486 C 0.80889 0.65354 0.78164 0.0
C487 C 0.8545 0.71578 0.7429 0.0
H488 H 0.80901 0.62676 0.5436 0.0
H489 H 0.79642 0.59908 0.57655 0.0
H490 H 0.8196 0.68803 0.61246 0.0
H491 H 0.8331 0.71607 0.57989 0.0
H492 H 0.8529 0.72039 0.81679 0.0
H493 H 0.87192 0.74537 0.78336 0.0
H494 H 0.81062 0.65301 0.74756 0.0
H495 H 0.79107 0.62795 0.78074 0.0
Tb496 Tb 0.35518 0.16257 0.66364 0.0
Eu497 Eu 0.31054 0.14401 0.70535 0.0
C498 C 0.37615 0.21117 0.70498 0.0
C499 C 0.37543 0.13736 0.70346 0.0
C500 C 0.37428 0.17435 0.60701 0.0
C501 C 0.3612 0.19613 0.57639 0.0
C502 C 0.37218 0.19947 0.59787 0.0
C503 C 0.36593 0.14613 0.59399 0.0
C504 C 0.35502 0.14283 0.57245 0.0
C505 C 0.35232 0.16772 0.56343 0.0
C506 C 0.38486 0.17775 0.63002 0.0
O507 O 0.32454 0.11016 0.66112 0.0
O508 O 0.2813 0.10448 0.67935 0.0
O509 O 0.2963 0.17295 0.68496 0.0
O510 O 0.30879 0.15837 0.65315 0.0
C511 C 0.294 0.09298 0.66581 0.0
O512 O 0.28257 0.11037 0.72852 0.0
O513 O 0.2873 0.15776 0.72961 0.0
O514 O 0.35866 0.18748 0.71654 0.0
O515 O 0.37267 0.20731 0.684 0.0
O516 O 0.38536 0.15578 0.68748 0.0
O517 O 0.34635 0.12661 0.71058 0.0
C518 C 0.29353 0.17013 0.66401 0.0
O519 O 0.37979 0.19734 0.64222 0.0
O520 O 0.3776 0.15138 0.63906 0.0
C521 C 0.29225 0.13865 0.76211 0.0
C522 C 0.31934 0.1554 0.80478 0.0
C523 C 0.28517 0.13964 0.80007 0.0
C524 C 0.2717 0.13147 0.7788 0.0
C525 C 0.32624 0.15361 0.76682 0.0
C526 C 0.33968 0.16199 0.78794 0.0
C527 C 0.27905 0.13201 0.7397 0.0
H528 H 0.35914 0.21565 0.57003 0.0
H529 H 0.37869 0.22166 0.60739 0.0
H530 H 0.36766 0.12648 0.60044 0.0
H531 H 0.34893 0.12085 0.56281 0.0
H532 H 0.269 0.13437 0.81279 0.0
H533 H 0.2454 0.11996 0.77539 0.0
H534 H 0.34246 0.15916 0.75411 0.0
H535 H 0.36603 0.1736 0.7911 0.0
Tb536 Tb 0.86232 0.18483 0.6943 0.0
Eu537 Eu 0.83215 0.19478 0.64869 0.0
C538 C 0.83733 0.13269 0.65498 0.0
C539 C 0.90692 0.21082 0.65687 0.0
C540 C 0.87312 0.18289 0.75288 0.0
C541 C 0.83823 0.16536 0.78248 0.0
C542 C 0.8459 0.15897 0.76224 0.0
C543 C 0.89315 0.21297 0.76458 0.0
C544 C 0.88549 0.21935 0.78481 0.0
C545 C 0.85768 0.19579 0.79389 0.0
C546 C 0.87996 0.17662 0.73086 0.0
O547 O 0.87852 0.23631 0.69386 0.0
O548 O 0.83646 0.23333 0.67228 0.0
O549 O 0.78893 0.1649 0.66795 0.0
O550 O 0.81769 0.18422 0.70073 0.0
C551 C 0.86139 0.24916 0.68663 0.0
O552 O 0.8341 0.22574 0.62391 0.0
O553 O 0.79792 0.17463 0.62013 0.0
O554 O 0.84285 0.15512 0.64218 0.0
O555 O 0.83668 0.13775 0.67565 0.0
O556 O 0.89862 0.19134 0.67226 0.0
O557 O 0.88748 0.22066 0.64897 0.0
C558 C 0.78985 0.1682 0.68894 0.0
O559 O 0.85502 0.15422 0.71862 0.0
O560 O 0.89794 0.20168 0.72047 0.0
C561 C 0.82371 0.19863 0.5897 0.0
C562 C 0.84397 0.19132 0.54923 0.0
C563 C 0.81958 0.19979 0.55116 0.0
C564 C 0.80953 0.20338 0.57122 0.0
C565 C 0.84839 0.19071 0.58794 0.0
C566 C 0.85843 0.18708 0.56792 0.0
C567 C 0.81266 0.20145 0.61079 0.0
H568 H 0.81657 0.14675 0.78893 0.0
H569 H 0.83009 0.1354 0.75377 0.0
H570 H 0.91454 0.23178 0.75801 0.0
H571 H 0.90137 0.24283 0.79335 0.0
H572 H 0.80823 0.20365 0.53714 0.0
H573 H 0.79056 0.20966 0.57229 0.0
H574 H 0.85963 0.18694 0.60207 0.0
H575 H 0.87692 0.18015 0.56705 0.0
H576 H 0.30658 0.85697 0.04389 0.0
H577 H 0.34501 0.89071 0.10964 0.0
H578 H 0.39592 0.93359 0.09789 0.0
H579 H 0.42998 0.96125 0.06899 0.0
H580 H 0.39327 0.92487 1.00339 0.0
H581 H 0.34148 0.88291 0.0151 0.0
C582 C 0.32621 0.8733 0.05572 0.0
C583 C 0.32163 0.8705 0.07767 0.0
C584 C 0.35581 0.89751 0.04888 0.0
C585 C 0.34736 0.89249 0.09265 0.0
C586 C 0.37667 0.91696 0.08595 0.0
C587 C 0.41054 0.94426 0.05725 0.0
C588 C 0.41532 0.94632 0.03534 0.0
C589 C 0.38112 0.91976 0.06411 0.0
C590 C 0.39016 0.92379 0.02034 0.0
C591 C 0.36056 0.89981 0.02703 0.0
H592 H 0.19767 0.49267 0.0571 0.0
H593 H 0.12908 0.40901 0.0876 0.0
H594 H 0.08385 0.4146 0.07292 0.0
H595 H 0.06342 0.44335 0.05175 0.0
H596 H 0.13117 0.52497 0.01941 0.0
H597 H 0.17677 0.51956 0.0341 0.0
C598 C 0.17283 0.47534 0.06033 0.0
C599 C 0.16712 0.45071 0.07377 0.0
C600 C 0.14662 0.47825 0.05144 0.0
C601 C 0.13457 0.42876 0.07782 0.0
C602 C 0.10853 0.43174 0.06928 0.0
C603 C 0.08815 0.45995 0.04787 0.0
C604 C 0.0938 0.48462 0.03456 0.0
C605 C 0.11425 0.45652 0.0562 0.0
C606 C 0.12602 0.5057 0.02956 0.0
C607 C 0.15217 0.50268 0.03801 0.0
H608 H 0.63298 0.72826 0.06323 0.0
H609 H 0.54731 0.72829 0.03638 0.0
H610 H 0.52433 0.67251 0.02149 0.0
H611 H 0.52725 0.62289 0.01758 0.0
H612 H 0.61149 0.62199 0.0463 0.0
H613 H 0.63585 0.6787 0.05944 0.0
C614 C 0.60918 0.71604 0.05424 0.0
C615 C 0.59196 0.73255 0.05098 0.0
C616 C 0.59563 0.68366 0.04626 0.0
C617 C 0.56142 0.71645 0.03889 0.0
C618 C 0.54806 0.68439 0.03054 0.0
C619 C 0.55097 0.63509 0.02667 0.0
C620 C 0.56746 0.61815 0.03096 0.0
C621 C 0.56478 0.66766 0.03434 0.0
C622 C 0.59816 0.63436 0.04282 0.0
C623 C 0.61219 0.66684 0.05031 0.0
H624 H 0.86781 0.28777 0.98316 0.0
H625 H 0.87058 0.31401 0.91826 0.0
H626 H 0.91364 0.3689 0.92974 0.0
H627 H 0.95012 0.41025 0.95825 0.0
H628 H 0.9429 0.38618 0.02358 0.0
H629 H 0.90179 0.32995 0.01197 0.0
C630 C 0.87746 0.3055 0.97153 0.0
C631 C 0.86618 0.29626 0.94978 0.0
C632 C 0.90156 0.33758 0.97832 0.0
C633 C 0.87935 0.31985 0.93502 0.0
C634 C 0.90387 0.35148 0.94157 0.0
C635 C 0.93967 0.39254 0.96986 0.0
C636 C 0.94962 0.40203 0.99165 0.0
C637 C 0.91526 0.36061 0.96315 0.0
C638 C 0.93554 0.37921 0.00668 0.0
C639 C 0.91206 0.34713 1.00006 0.0
H640 H 0.71187 0.587 0.93891 0.0
H641 H 0.70782 0.50035 0.95881 0.0
H642 H 0.66054 0.48858 0.97853 0.0
H643 H 0.61914 0.50203 0.98969 0.0
H644 H 0.62111 0.58665 0.96768 0.0
H645 H 0.66974 0.59957 0.94911 0.0
C646 C 0.70052 0.56534 0.94734 0.0
C647 C 0.71392 0.54489 0.94743 0.0
C648 C 0.6727 0.5582 0.95835 0.0
C649 C 0.6988 0.51711 0.95877 0.0
C650 C 0.67146 0.51013 0.96997 0.0
C651 C 0.63036 0.52341 0.98096 0.0
C652 C 0.61648 0.54336 0.98021 0.0
C653 C 0.65816 0.53049 0.96991 0.0
C654 C 0.63115 0.57077 0.96855 0.0
C655 C 0.65905 0.57824 0.95789 0.0
H656 H 0.4351 0.15541 0.99302 0.0
H657 H 0.43698 0.12684 0.92699 0.0
H658 H 0.4539 0.08928 0.93809 0.0
H659 H 0.46909 0.06489 0.9664 0.0
H660 H 0.47263 0.09687 0.03237 0.0
H661 H 0.45327 0.13311 0.02143 0.0
C662 C 0.43956 0.14129 0.98103 0.0
C663 C 0.43412 0.14373 0.95917 0.0
C664 C 0.45034 0.12031 0.98751 0.0
C665 C 0.43989 0.12491 0.94393 0.0
C666 C 0.44991 0.10355 0.95024 0.0
C667 C 0.46539 0.07965 0.97837 0.0
C668 C 0.47194 0.07806 1.00013 0.0
C669 C 0.45511 0.10097 0.97196 0.0
C670 C 0.4677 0.09773 0.01549 0.0
C671 C 0.45662 0.11841 0.00925 0.0
H672 H 0.66783 0.14263 0.93925 0.0
H673 H 0.73532 0.15987 0.99343 0.0
H674 H 0.6892 0.1287 0.01495 0.0
H675 H 0.62874 0.09457 0.01772 0.0
H676 H 0.56328 0.08053 0.96261 0.0
H677 H 0.60924 0.11237 0.94245 0.0
C678 C 0.67245 0.13965 0.95581 0.0
C679 C 0.7048 0.15332 0.96469 0.0
C680 C 0.64601 0.12219 0.96802 0.0
C681 C 0.71052 0.14954 0.98621 0.0
C682 C 0.68414 0.13168 0.99851 0.0
C683 C 0.62462 0.09881 1.0014 0.0
C684 C 0.59232 0.08471 0.99183 0.0
C685 C 0.65162 0.11765 0.98954 0.0
C686 C 0.58761 0.09061 0.97058 0.0
C687 C 0.61399 0.10893 0.95885 0.0
H688 H 0.8547 0.53687 0.97177 0.0
H689 H 0.8712 0.51189 0.90847 0.0
H690 H 0.91336 0.50161 0.92342 0.0
H691 H 0.94589 0.50022 0.9543 0.0
H692 H 0.93009 0.52557 0.01778 0.0
H693 H 0.88734 0.53511 1.00294 0.0
C694 C 0.86748 0.52911 0.96128 0.0
C695 C 0.85984 0.5251 0.93902 0.0
C696 C 0.89184 0.52331 0.97 0.0
C697 C 0.87667 0.51511 0.92565 0.0
C698 C 0.90077 0.50923 0.93418 0.0
C699 C 0.93309 0.50774 0.96495 0.0
C700 C 0.9413 0.51213 0.98716 0.0
C701 C 0.90861 0.51331 0.95632 0.0
C702 C 0.92438 0.52198 1.00063 0.0
C703 C 0.89988 0.52747 0.99215 0.0
H704 H 0.42551 0.32023 0.94573 0.0
H705 H 0.46873 0.29766 0.99905 0.0
H706 H 0.49788 0.3547 0.01321 0.0
H707 H 0.51001 0.411 0.01056 0.0
H708 H 0.46938 0.43309 0.95545 0.0
H709 H 0.44046 0.37633 0.94176 0.0
C710 C 0.4414 0.3279 0.96044 0.0
C711 C 0.44487 0.30498 0.97145 0.0
C712 C 0.45854 0.36063 0.96811 0.0
C713 C 0.46576 0.31503 0.99032 0.0
C714 C 0.48233 0.34757 0.99842 0.0
C715 C 0.49488 0.40331 0.99554 0.0
C716 C 0.49169 0.42616 0.98409 0.0
C717 C 0.47876 0.37059 0.98749 0.0
C718 C 0.47235 0.416 0.96452 0.0
C719 C 0.45568 0.38353 0.95671 0.0
H720 H 0.1304 0.71307 0.04013 0.0
H721 H 0.20289 0.69794 0.07306 0.0
H722 H 0.16783 0.63932 0.06514 0.0
H723 H 0.11601 0.5922 0.04885 0.0
H724 H 0.04631 0.60831 0.01308 0.0
H725 H 0.08057 0.66664 0.02211 0.0
C726 C 0.1385 0.69685 0.04544 0.0
C727 C 0.16901 0.70959 0.05711 0.0
C728 C 0.1186 0.66339 0.04042 0.0
C729 C 0.17951 0.68857 0.06389 0.0
C730 C 0.15942 0.65509 0.05946 0.0
C731 C 0.10841 0.60861 0.04319 0.0
C732 C 0.07867 0.59623 0.03056 0.0
C733 C 0.12883 0.6422 0.0478 0.0
C734 C 0.06916 0.6175 0.02288 0.0
C735 C 0.0887 0.65078 0.02802 0.0
H736 H 0.36906 0.48457 0.09324 0.0
H737 H 0.30682 0.46329 0.03534 0.0
H738 H 0.35292 0.47472 0.01396 0.0
H739 H 0.41148 0.49095 0.01183 0.0
H740 H 0.47269 0.5122 0.07049 0.0
H741 H 0.42668 0.50069 0.09123 0.0
C742 C 0.3656 0.48244 0.07592 0.0
C743 C 0.33461 0.47313 0.06593 0.0
C744 C 0.39216 0.48911 0.06379 0.0
C745 C 0.33045 0.47045 0.04348 0.0
C746 C 0.35683 0.477 0.03123 0.0
C747 C 0.41474 0.49309 0.02913 0.0
C748 C 0.44576 0.50259 0.03944 0.0
C749 C 0.3879 0.48639 0.04121 0.0
C750 C 0.44935 0.50514 0.06195 0.0
C751 C 0.42295 0.49849 0.07394 0.0
H752 H 0.55924 0.88497 0.08029 0.0
H753 H 0.59993 0.87851 0.0216 0.0
H754 H 0.58073 0.91223 1.00537 0.0
H755 H 0.55336 0.94498 0.00859 0.0
H756 H 0.51205 0.94882 0.06787 0.0
H757 H 0.53021 0.91457 0.08294 0.0
C758 C 0.56385 0.89091 0.06391 0.0
C759 C 0.58101 0.87953 0.05218 0.0
C760 C 0.55255 0.90984 0.05476 0.0
C761 C 0.58669 0.88709 0.03094 0.0
C762 C 0.57574 0.90635 0.02168 0.0
C763 C 0.54817 0.93809 0.02472 0.0
C764 C 0.53163 0.94985 0.03706 0.0
C765 C 0.55874 0.91805 0.03351 0.0
C766 C 0.525 0.94055 0.05796 0.0
C767 C 0.53537 0.92087 0.0667 0.0
H768 H 0.99222 0.17239 0.38535 0.0
H769 H 0.97367 0.24516 0.41365 0.0
H770 H 0.02214 0.28732 0.39935 0.0
H771 H 0.07127 0.30432 0.3801 0.0
H772 H 0.08883 0.23235 0.34964 0.0
H773 H 0.0391 0.18935 0.36303 0.0
C774 C 0.99845 0.19739 0.38815 0.0
C775 C 0.97946 0.20534 0.40114 0.0
C776 C 0.0263 0.22185 0.37944 0.0
C777 C 0.9882 0.23809 0.40444 0.0
C778 C 0.01588 0.26237 0.39608 0.0
C779 C 0.06413 0.27921 0.37625 0.0
C780 C 0.08393 0.27165 0.36398 0.0
C781 C 0.0354 0.25463 0.38385 0.0
C782 C 0.07404 0.23893 0.35898 0.0
C783 C 0.04564 0.21429 0.36673 0.0
H784 H 0.86249 0.81663 0.39144 0.0
H785 H 0.78839 0.72961 0.4162 0.0
H786 H 0.74574 0.73824 0.40049 0.0
H787 H 0.72897 0.77039 0.37985 0.0
H788 H 0.80228 0.85509 0.35275 0.0
H789 H 0.84543 0.84692 0.36877 0.0
C790 C 0.83705 0.79921 0.39319 0.0
C791 C 0.82906 0.77272 0.40541 0.0
C792 C 0.8123 0.80381 0.38358 0.0
C793 C 0.7957 0.75077 0.40752 0.0
C794 C 0.7711 0.75548 0.39833 0.0
C795 C 0.75439 0.78707 0.37741 0.0
C796 C 0.76231 0.81342 0.36518 0.0
C797 C 0.77908 0.782 0.38644 0.0
C798 C 0.7954 0.83455 0.36202 0.0
C799 C 0.82014 0.82995 0.37125 0.0
H800 H 0.20615 0.04234 0.38231 0.0
H801 H 0.30424 0.07157 0.40757 0.0
H802 H 0.29832 0.02093 0.3922 0.0
H803 H 0.26371 0.96653 0.37458 0.0
H804 H 0.16517 0.93619 0.34948 0.0
H805 H 0.17287 0.98904 0.36158 0.0
C806 C 0.22638 0.03781 0.384 0.0
C807 C 0.25547 0.06044 0.39617 0.0
C808 C 0.2226 0.0083 0.37539 0.0
C809 C 0.28151 0.05429 0.39841 0.0
C810 C 0.27812 0.02534 0.38968 0.0
C811 C 0.24396 0.97151 0.3716 0.0
C812 C 0.2138 0.9473 0.36136 0.0
C813 C 0.24848 1.00182 0.37867 0.0
C814 C 0.18863 0.95435 0.35739 0.0
C815 C 0.19298 0.98457 0.36435 0.0
H816 H 0.56721 0.62926 0.27921 0.0
H817 H 0.48462 0.63711 0.29791 0.0
H818 H 0.52188 0.69039 0.31633 0.0
H819 H 0.5782 0.73625 0.32565 0.0
H820 H 0.66003 0.72923 0.30432 0.0
H821 H 0.62278 0.67464 0.28805 0.0
C822 C 0.55718 0.64266 0.28707 0.0
C823 C 0.52294 0.62895 0.28696 0.0
C824 C 0.57872 0.67372 0.29709 0.0
C825 C 0.51074 0.64662 0.29786 0.0
C826 C 0.53209 0.67732 0.30827 0.0
C827 C 0.58785 0.72267 0.31755 0.0
C828 C 0.62192 0.73691 0.31624 0.0
C829 C 0.56615 0.69129 0.30782 0.0
C830 C 0.63397 0.71903 0.30551 0.0
C831 C 0.61266 0.68772 0.29621 0.0
H832 H 0.38162 0.92671 0.28053 0.0
H833 H 0.38204 0.84272 0.30192 0.0
H834 H 0.33496 0.83021 0.32197 0.0
H835 H 0.29188 0.84172 0.3327 0.0
H836 H 0.28792 0.92189 0.30785 0.0
H837 H 0.33737 0.93659 0.28961 0.0
C838 C 0.37131 0.90532 0.28924 0.0
C839 C 0.3861 0.886 0.2896 0.0
C840 C 0.34323 0.89739 0.30019 0.0
C841 C 0.3722 0.85878 0.30156 0.0
C842 C 0.34485 0.85129 0.31296 0.0
C843 C 0.30204 0.86255 0.32342 0.0
C844 C 0.28635 0.88085 0.32182 0.0
C845 C 0.33006 0.87035 0.31237 0.0
C846 C 0.29949 0.90741 0.30939 0.0
C847 C 0.32781 0.91585 0.29894 0.0
H848 H 0.16297 0.51579 0.31536 0.0
H849 H 0.06171 0.44464 0.29708 0.0
H850 H 0.07045 0.40221 0.30993 0.0
H851 H 0.10795 0.38461 0.3238 0.0
H852 H 0.20836 0.45597 0.34393 0.0
H853 H 0.19888 0.49901 0.33302 0.0
C854 C 0.14261 0.49117 0.3147 0.0
C855 C 0.11187 0.48336 0.30498 0.0
C856 C 0.14779 0.46681 0.32214 0.0
C857 C 0.0858 0.45121 0.30414 0.0
C858 C 0.09076 0.4269 0.31145 0.0
C859 C 0.12768 0.40961 0.3258 0.0
C860 C 0.15887 0.41715 0.33434 0.0
C861 C 0.12188 0.43427 0.31992 0.0
C862 C 0.18413 0.44964 0.33729 0.0
C863 C 0.17874 0.47424 0.33107 0.0
H864 H 0.38557 0.5012 0.33708 0.0
H865 H 0.35491 0.4812 0.26966 0.0
H866 H 0.30038 0.43894 0.27713 0.0
H867 H 0.26125 0.40741 0.30278 0.0
H868 H 0.29218 0.42656 0.37025 0.0
H869 H 0.34652 0.46907 0.36277 0.0
C870 C 0.36689 0.48757 0.32406 0.0
C871 C 0.37435 0.49436 0.30288 0.0
C872 C 0.33557 0.46301 0.32846 0.0
C873 C 0.34995 0.47646 0.28613 0.0
C874 C 0.31868 0.45225 0.29038 0.0
C875 C 0.27984 0.42082 0.31588 0.0
C876 C 0.27243 0.41365 0.33707 0.0
C877 C 0.31121 0.44525 0.31148 0.0
C878 C 0.29703 0.43136 0.35378 0.0
C879 C 0.32819 0.4558 0.34953 0.0
H880 H 0.53203 0.88054 0.30822 0.0
H881 H 0.54145 0.85513 0.2432 0.0
H882 H 0.58465 0.84437 0.25533 0.0
H883 H 0.61994 0.84209 0.28449 0.0
H884 H 0.61074 0.86827 0.34951 0.0
H885 H 0.56767 0.87879 0.33732 0.0
C886 C 0.54348 0.87258 0.29673 0.0
C887 C 0.53344 0.86851 0.27483 0.0
C888 C 0.56854 0.86661 0.30382 0.0
C889 C 0.54871 0.85837 0.26016 0.0
C890 C 0.57345 0.85223 0.26708 0.0
C891 C 0.60858 0.85015 0.296 0.0
C892 C 0.61876 0.85431 0.31791 0.0
C893 C 0.58363 0.85628 0.28888 0.0
C894 C 0.60361 0.86481 0.33253 0.0
C895 C 0.57883 0.87085 0.32559 0.0
H896 H 0.14928 0.64772 0.35199 0.0
H897 H 0.16413 0.65425 0.28481 0.0
H898 H 0.17778 0.71043 0.28804 0.0
H899 H 0.18388 0.75747 0.30949 0.0
H900 H 0.16941 0.7518 0.37675 0.0
H901 H 0.15734 0.69589 0.37391 0.0
C902 C 0.15579 0.6616 0.33815 0.0
C903 C 0.15541 0.64669 0.31822 0.0
C904 C 0.16351 0.6941 0.34005 0.0
C905 C 0.1639 0.66493 0.30036 0.0
C906 C 0.17173 0.69717 0.30216 0.0
C907 C 0.17808 0.74404 0.32355 0.0
C908 C 0.17737 0.75884 0.34325 0.0
C909 C 0.17124 0.7119 0.32185 0.0
C910 C 0.17005 0.74106 0.36133 0.0
C911 C 0.16315 0.70902 0.35974 0.0
H912 H 0.84917 0.03962 0.37215 0.0
H913 H 0.79755 0.03446 0.42785 0.0
H914 H 0.75988 0.9768 0.41857 0.0
H915 H 0.7396 0.92819 0.39364 0.0
H916 H 0.788 0.93411 0.33621 0.0
H917 H 0.82869 0.99062 0.34705 0.0
C918 C 0.82987 0.02571 0.3823 0.0
C919 C 0.8262 0.04115 0.40071 0.0
C920 C 0.80751 0.99262 0.37648 0.0
C921 C 0.8008 0.02301 0.41359 0.0
C922 C 0.77923 0.99004 0.4083 0.0
C923 C 0.75925 0.94179 0.38362 0.0
C924 C 0.76076 0.92695 0.36418 0.0
C925 C 0.78205 0.97462 0.38964 0.0
C926 C 0.78616 0.94502 0.35123 0.0
C927 C 0.8095 0.97737 0.35742 0.0
H928 H 0.03048 0.80817 0.43117 0.0
H929 H 0.97052 0.78216 0.37168 0.0
H930 H 0.01825 0.79475 0.35178 0.0
H931 H 0.0776 0.8136 0.35132 0.0
H932 H 0.13701 0.84073 0.41131 0.0
H933 H 0.08922 0.82736 0.43078 0.0
C934 C 0.02787 0.80526 0.41383 0.0
C935 C 0.99699 0.79426 0.40297 0.0
C936 C 0.05547 0.8128 0.40251 0.0
C937 C 0.994 0.79066 0.38049 0.0
C938 C 0.02133 0.79784 0.36908 0.0
C939 C 0.08006 0.8165 0.36864 0.0
C940 C 0.11109 0.82824 0.37973 0.0
C941 C 0.05227 0.80897 0.37992 0.0
C942 C 0.11368 0.83196 0.40223 0.0
C943 C 0.08626 0.82424 0.41346 0.0
H944 H 0.23155 0.19127 0.37177 0.0
H945 H 0.2647 0.24272 0.43444 0.0
H946 H 0.24478 0.27879 0.42464 0.0
H947 H 0.21901 0.29644 0.3983 0.0
H948 H 0.18947 0.24869 0.33451 0.0
H949 H 0.20698 0.21055 0.34458 0.0
C950 C 0.23418 0.21029 0.38324 0.0
C951 C 0.24929 0.21426 0.40386 0.0
C952 C 0.22347 0.23165 0.37727 0.0
C953 C 0.25309 0.23926 0.4185 0.0
C954 C 0.24171 0.25987 0.41292 0.0
C955 C 0.21621 0.27757 0.38661 0.0
C956 C 0.20273 0.27522 0.36575 0.0
C957 C 0.227 0.25638 0.39236 0.0
C958 C 0.19981 0.251 0.35068 0.0
C959 C 0.20976 0.22917 0.35645 0.0
H960 H 0.63702 0.56196 0.73795 0.0
H961 H 0.65224 0.48062 0.7302 0.0
H962 H 0.70066 0.51247 0.71114 0.0
H963 H 0.73951 0.56403 0.69713 0.0
H964 H 0.72556 0.64589 0.70677 0.0
H965 H 0.67593 0.61333 0.72451 0.0
C966 C 0.65116 0.55132 0.73234 0.0
C967 C 0.64094 0.51895 0.73547 0.0
C968 C 0.67911 0.56981 0.72152 0.0
C969 C 0.65932 0.5054 0.72778 0.0
C970 C 0.68706 0.5236 0.7169 0.0
C971 C 0.72525 0.57447 0.70285 0.0
C972 C 0.73593 0.60714 0.70053 0.0
C973 C 0.69714 0.55582 0.71358 0.0
C974 C 0.71771 0.6207 0.70837 0.0
C975 C 0.68941 0.60216 0.71858 0.0
H976 H 0.46654 0.10798 0.76282 0.0
H977 H 0.49581 0.09162 0.70146 0.0
H978 H 0.45833 0.10539 0.68357 0.0
H979 H 0.4174 0.12255 0.68517 0.0
H980 H 0.38375 0.13317 0.74597 0.0
H981 H 0.42226 0.12049 0.7642 0.0
C982 C 0.46439 0.10678 0.74552 0.0
C983 C 0.48459 0.09923 0.73365 0.0
C984 C 0.44194 0.11373 0.73519 0.0
C985 C 0.48145 0.09826 0.71118 0.0
C986 C 0.45976 0.10588 0.70085 0.0
C987 C 0.41861 0.12209 0.70241 0.0
C988 C 0.39813 0.12902 0.71427 0.0
C989 C 0.44011 0.11393 0.71269 0.0
C990 C 0.39936 0.12786 0.73655 0.0
C991 C 0.42138 0.12068 0.74696 0.0
H992 H 0.88349 0.38854 0.70979 0.0
H993 H 0.97802 0.40516 0.73388 0.0
H994 H 0.96161 0.3492 0.72256 0.0
H995 H 0.91985 0.29522 0.70669 0.0
H996 H 0.82556 0.27897 0.68213 0.0
H997 H 0.84246 0.33515 0.69275 0.0
C998 C 0.90067 0.38005 0.7122 0.0
C999 C 0.93187 0.40087 0.72264 0.0
C1000 C 0.89102 0.34785 0.70579 0.0
C1001 C 0.95375 0.38943 0.726 0.0
C1002 C 0.94439 0.35748 0.71956 0.0
C1003 C 0.90295 0.30393 0.70376 0.0
C1004 C 0.87146 0.28291 0.69375 0.0
C1005 C 0.91293 0.33636 0.70969 0.0
C1006 C 0.84997 0.29466 0.68983 0.0
C1007 C 0.85961 0.3268 0.69585 0.0
H1008 H 0.22761 0.95284 0.61868 0.0
H1009 H 0.14191 0.94799 0.64367 0.0
H1010 H 0.17541 1.00276 0.66084 0.0
H1011 H 0.22867 0.05252 0.66789 0.0
H1012 H 0.31386 0.05819 0.64139 0.0
H1013 H 0.28065 1.00281 0.62525 0.0
C1014 C 0.21617 0.96384 0.62771 0.0
C1015 C 0.18229 0.94627 0.62987 0.0
C1016 C 0.23541 0.99557 0.63714 0.0
C1017 C 0.16802 0.96073 0.642 0.0
C1018 C 0.1871 0.99217 0.65168 0.0
C1019 C 0.24002 0.04166 0.65862 0.0
C1020 C 0.2737 0.05951 0.65589 0.0
C1021 C 0.22078 0.00986 0.64926 0.0
C1022 C 0.28796 0.04507 0.64373 0.0
C1023 C 0.26901 0.01335 0.63451 0.0
H1024 H 0.04091 0.2708 0.61395 0.0
H1025 H 0.03365 0.18133 0.63067 0.0
H1026 H 0.98241 0.16614 0.6464 0.0
H1027 H 0.93964 0.17805 0.65563 0.0
H1028 H 0.94403 0.26514 0.63662 0.0
H1029 H 0.99608 0.28114 0.62121 0.0
C1030 C 0.02794 0.24776 0.62074 0.0
C1031 C 0.04159 0.22754 0.62135 0.0
C1032 C 0.99794 0.23872 0.62938 0.0
C1033 C 0.02437 0.19788 0.63044 0.0
C1034 C 0.99485 0.18899 0.63933 0.0
C1035 C 0.95209 0.20063 0.64821 0.0
C1036 C 0.93827 0.22059 0.64748 0.0
C1037 C 0.98156 0.20931 0.63904 0.0
C1038 C 0.95428 0.24942 0.63742 0.0
C1039 C 0.98403 0.25858 0.62863 0.0
H1040 H 0.74255 0.77967 0.61947 0.0
H1041 H 0.83103 0.86391 0.64781 0.0
H1042 H 0.84675 0.82946 0.66607 0.0
H1043 H 0.83703 0.77535 0.6722 0.0
H1044 H 0.74999 0.69121 0.6421 0.0
H1045 H 0.73232 0.72573 0.6261 0.0
C1046 C 0.76536 0.79049 0.62955 0.0
C1047 C 0.7856 0.82428 0.6322 0.0
C1048 C 0.77463 0.77057 0.63959 0.0
C1049 C 0.81477 0.83796 0.64568 0.0
C1050 C 0.82393 0.81828 0.656 0.0
C1051 C 0.81405 0.76457 0.66231 0.0
C1052 C 0.79493 0.7308 0.6583 0.0
C1053 C 0.80424 0.78455 0.65286 0.0
C1054 C 0.76529 0.71718 0.64535 0.0
C1055 C 0.75512 0.73687 0.63619 0.0
H1056 H 0.99499 0.78118 0.60229 0.0
H1057 H 0.05623 0.80333 0.66079 0.0
H1058 H 1.00757 0.77474 0.68052 0.0
H1059 H 0.94717 0.74291 0.68093 0.0
H1060 H 0.887 0.72286 0.62193 0.0
H1061 H 0.93549 0.75133 0.60283 0.0
C1062 C 0.99762 0.77962 0.61935 0.0
C1063 C 0.02897 0.79414 0.63005 0.0
C1064 C 0.96967 0.76367 0.63058 0.0
C1065 C 0.03223 0.79229 0.65219 0.0
C1066 C 1.00443 0.77598 0.66348 0.0
C1067 C 0.94472 0.745 0.66395 0.0
C1068 C 0.91337 0.7306 0.65299 0.0
C1069 C 0.97295 0.76159 0.65284 0.0
C1070 C 0.9107 0.73354 0.63091 0.0
C1071 C 0.93847 0.74981 0.61985 0.0
H1072 H 0.21223 0.2071 0.60089 0.0
H1073 H 0.17599 0.22065 0.65994 0.0
H1074 H 0.21113 0.20546 0.67984 0.0
H1075 H 0.25198 0.18801 0.68038 0.0
H1076 H 0.28755 0.17385 0.62106 0.0
H1077 H 0.25285 0.18953 0.60139 0.0
C1078 C 0.2121 0.20672 0.61812 0.0
C1079 C 0.1916 0.21491 0.62892 0.0
C1080 C 0.2322 0.19781 0.62941 0.0
C1081 C 0.19152 0.21435 0.65124 0.0
C1082 C 0.21163 0.20569 0.66263 0.0
C1083 C 0.25218 0.18838 0.66316 0.0
C1084 C 0.27233 0.1797 0.65225 0.0
C1085 C 0.23203 0.19732 0.65187 0.0
C1086 C 0.2722 0.18026 0.6299 0.0
C1087 C 0.25239 0.18929 0.6186 0.0
H1088 H 0.81527 0.00923 0.59962 0.0
H1089 H 0.78677 0.9668 0.65933 0.0
H1090 H 0.79879 0.019 0.67658 0.0
H1091 H 0.81676 0.07672 0.67436 0.0
H1092 H 0.84489 0.1181 0.6141 0.0
H1093 H 0.8338 0.06638 0.5975 0.0
C1094 C 0.81174 0.01149 0.61642 0.0
C1095 C 0.80019 0.98442 0.62818 0.0
C1096 C 0.81866 0.04138 0.62615 0.0
C1097 C 0.79568 0.98743 0.64994 0.0
C1098 C 0.80255 0.01724 0.6598 0.0
C1099 C 0.82058 0.07441 0.65763 0.0
C1100 C 0.8315 0.10124 0.64552 0.0
C1101 C 0.81399 0.0444 0.64803 0.0
C1102 C 0.83631 0.09785 0.62383 0.0
C1103 C 0.83 0.06826 0.61426 0.0
H1104 H 0.47051 0.33722 0.76514 0.0
H1105 H 0.50525 0.37299 0.70455 0.0
H1106 H 0.46519 0.32072 0.68599 0.0
H1107 H 0.42035 0.26484 0.68702 0.0
H1108 H 0.38607 0.22905 0.74781 0.0
H1109 H 0.42588 0.28131 0.7662 0.0
C1110 C 0.46925 0.33347 0.74787 0.0
C1111 C 0.49071 0.35875 0.73624 0.0
C1112 C 0.44625 0.3034 0.73733 0.0
C1113 C 0.48899 0.3538 0.71388 0.0
C1114 C 0.46608 0.32394 0.70325 0.0
C1115 C 0.42151 0.26847 0.70428 0.0
C1116 C 0.40018 0.24306 0.71597 0.0
C1117 C 0.44458 0.29857 0.71482 0.0
C1118 C 0.40216 0.24816 0.73837 0.0
C1119 C 0.42493 0.27806 0.74893 0.0
H1120 H 0.67987 0.11377 0.75325 0.0
H1121 H 0.62386 0.12272 0.70074 0.0
H1122 H 0.67039 0.14067 0.67892 0.0
H1123 H 0.72823 0.15573 0.67515 0.0
H1124 H 0.78403 0.14845 0.72865 0.0
H1125 H 0.73664 0.12788 0.74945 0.0
C1126 C 0.67787 0.11956 0.737 0.0
C1127 C 0.64858 0.11703 0.72871 0.0
C1128 C 0.70481 0.13022 0.72464 0.0
C1129 C 0.64623 0.12461 0.70761 0.0
C1130 C 0.67284 0.13485 0.69508 0.0
C1131 C 0.7298 0.14935 0.69127 0.0
C1132 C 0.75965 0.15378 0.70033 0.0
C1133 C 0.70241 0.13799 0.70346 0.0
C1134 C 0.76144 0.1456 0.72133 0.0
C1135 C 0.73432 0.13376 0.73329 0.0
H1136 H 0.92915 0.58018 0.74193 0.0
H1137 H 0.90625 0.52012 0.68305 0.0
H1138 H 0.87554 0.54429 0.66796 0.0
H1139 H 0.85547 0.5831 0.67175 0.0
H1140 H 0.87547 0.63946 0.73217 0.0
H1141 H 0.90675 0.61603 0.74646 0.0
C1142 C 0.91744 0.57247 0.72578 0.0
C1143 C 0.92004 0.54873 0.71354 0.0
C1144 C 0.89917 0.58571 0.71754 0.0
C1145 C 0.90449 0.53846 0.69274 0.0
C1146 C 0.88699 0.55227 0.68414 0.0
C1147 C 0.86661 0.59007 0.68805 0.0
C1148 C 0.86317 0.61299 0.70084 0.0
C1149 C 0.88416 0.57597 0.69641 0.0
C1150 C 0.87751 0.62169 0.722 0.0
C1151 C 0.89557 0.60844 0.7302 0.0
H1152 H 0.47257 0.9075 0.2103 0.0
H1153 H 0.43627 0.96622 0.23857 0.0
H1154 H 0.44921 0.99739 0.20735 0.0
H1155 H 0.47385 0.01011 0.17276 0.0
H1156 H 0.51222 0.9526 0.14562 0.0
H1157 H 0.49627 0.91953 0.17585 0.0
C1158 C 0.46768 0.92727 0.20979 0.0
C1159 C 0.4536 0.93449 0.22698 0.0
C1160 C 0.47593 0.94564 0.19201 0.0
C1161 C 0.44674 0.95975 0.22559 0.0
C1162 C 0.45442 0.97783 0.20778 0.0
C1163 C 0.47847 0.99017 0.1734 0.0
C1164 C 0.49449 0.98407 0.15698 0.0
C1165 C 0.46939 0.97127 0.19099 0.0
C1166 C 0.50046 0.95823 0.15816 0.0
C1167 C 0.49117 0.93916 0.17541 0.0
H1168 H 0.11566 0.55145 0.22467 0.0
H1169 H 0.03221 0.46689 0.24478 0.0
H1170 H 1.00635 0.45271 0.20818 0.0
H1171 H 1.00673 0.46582 0.17084 0.0
H1172 H 0.08966 0.5517 0.15145 0.0
H1173 H 0.11655 0.56394 0.18749 0.0
C1174 C 0.09171 0.53003 0.22106 0.0
C1175 C 0.07565 0.51044 0.23737 0.0
C1176 C 0.07696 0.52231 0.20017 0.0
C1177 C 0.04504 0.48229 0.23242 0.0
C1178 C 0.03021 0.47429 0.21156 0.0
C1179 C 0.03062 0.48727 0.17456 0.0
C1180 C 0.04615 0.50787 0.15855 0.0
C1181 C 0.04579 0.49436 0.19537 0.0
C1182 C 0.07736 0.53529 0.16345 0.0
C1183 C 0.09266 0.54241 0.18407 0.0
H1184 H 0.51686 0.59691 0.21091 0.0
H1185 H 0.48014 0.50031 0.22992 0.0
H1186 H 0.49488 0.48456 0.19658 0.0
H1187 H 0.51827 0.49805 0.16202 0.0
H1188 H 0.55491 0.59449 0.14279 0.0
H1189 H 0.54106 0.61063 0.17643 0.0
C1190 C 0.51237 0.5725 0.20786 0.0
C1191 C 0.49722 0.54982 0.22293 0.0
C1192 C 0.52112 0.56359 0.18865 0.0
C1193 C 0.49124 0.51816 0.21851 0.0
C1194 C 0.49987 0.50916 0.19949 0.0
C1195 C 0.52305 0.52255 0.1651 0.0
C1196 C 0.53762 0.54497 0.14981 0.0
C1197 C 0.51471 0.53161 0.1844 0.0
C1198 C 0.54413 0.5768 0.15432 0.0
C1199 C 0.53598 0.58601 0.17352 0.0
H1200 H 0.93807 0.43574 0.79553 0.0
H1201 H 1.00917 0.53166 0.78067 0.0
H1202 H 0.03132 0.54598 0.81812 0.0
H1203 H 0.03184 0.53034 0.85463 0.0
H1204 H 0.96012 0.43444 0.8694 0.0
H1205 H 0.93737 0.4207 0.83221 0.0
C1206 C 0.95853 0.45973 0.80049 0.0
C1207 C 0.97218 0.48255 0.78538 0.0
C1208 C 0.9712 0.46765 0.82192 0.0
C1209 C 0.9982 0.51376 0.79207 0.0
C1210 C 1.01096 0.52187 0.81341 0.0
C1211 C 1.01097 0.50656 0.84979 0.0
C1212 C 0.99782 0.48341 0.86478 0.0
C1213 C 0.9978 0.49891 0.82843 0.0
C1214 C 0.97108 0.45254 0.85813 0.0
C1215 C 0.9579 0.44473 0.8369 0.0
H1216 H 0.60915 0.52218 0.81045 0.0
H1217 H 0.51404 0.48882 0.77787 0.0
H1218 H 0.49516 0.5017 0.81044 0.0
H1219 H 0.50407 0.51781 0.8489 0.0
H1220 H 0.59909 0.55123 0.88177 0.0
H1221 H 0.61953 0.54291 0.84847 0.0
C1222 C 0.58453 0.51836 0.81042 0.0
C1223 C 0.56294 0.50432 0.79185 0.0
C1224 C 0.57366 0.52541 0.82933 0.0
C1225 C 0.53098 0.49924 0.79206 0.0
C1226 C 0.52017 0.50659 0.81067 0.0
C1227 C 0.52944 0.52389 0.84873 0.0
C1228 C 0.54985 0.53481 0.8679 0.0
C1229 C 0.54104 0.51897 0.82953 0.0
C1230 C 0.58259 0.54219 0.86735 0.0
C1231 C 0.59439 0.5376 0.84828 0.0
H1232 H 0.56428 0.09747 0.81242 0.0
H1233 H 0.47639 0.01536 0.78178 0.0
H1234 H 0.46343 0.99089 0.81579 0.0
H1235 H 0.47673 0.99316 0.85429 0.0
H1236 H 0.56284 0.07714 0.88545 0.0
H1237 H 0.57701 0.10021 0.85126 0.0
C1238 C 0.54249 0.07408 0.81323 0.0
C1239 C 0.52139 0.05812 0.79466 0.0
C1240 C 0.53484 0.06049 0.83294 0.0
C1241 C 0.49295 0.02806 0.79591 0.0
C1242 C 0.48554 0.0141 0.81533 0.0
C1243 C 0.49841 0.01669 0.85372 0.0
C1244 C 0.51867 0.03318 0.87258 0.0
C1245 C 0.50615 0.03021 0.834 0.0
C1246 C 0.54699 0.06346 0.87126 0.0
C1247 C 0.55506 0.07686 0.85168 0.0
H1248 H 0.07886 0.25154 0.54839 0.0
H1249 H 0.17281 0.31695 0.58238 0.0
H1250 H 0.1923 0.34519 0.55035 0.0
H1251 H 0.18368 0.34972 0.51235 0.0
H1252 H 0.08974 0.285 0.47808 0.0
H1253 H 0.06929 0.25798 0.5105 0.0
C1254 C 0.10342 0.27226 0.54882 0.0
C1255 C 0.12443 0.282 0.56768 0.0
C1256 C 0.11458 0.28832 0.53026 0.0
C1257 C 0.15632 0.30871 0.56797 0.0
C1258 C 0.16746 0.32492 0.54969 0.0
C1259 C 0.15855 0.33005 0.51202 0.0
C1260 C 0.13834 0.31941 0.49277 0.0
C1261 C 0.14696 0.31469 0.53068 0.0
C1262 C 0.10601 0.29344 0.49259 0.0
C1263 C 0.09422 0.27807 0.51116 0.0
H1264 H 0.70817 0.86145 0.56697 0.0
H1265 H 0.77854 0.83125 0.55571 0.0
H1266 H 0.75924 0.81822 0.51782 0.0
H1267 H 0.72333 0.81679 0.48772 0.0
H1268 H 0.6543 0.84878 0.49895 0.0
H1269 H 0.67216 0.85976 0.53701 0.0
C1270 C 0.7194 0.85219 0.5562 0.0
C1271 C 0.7448 0.84742 0.56414 0.0
C1272 C 0.70845 0.84509 0.53443 0.0
C1273 C 0.75871 0.83483 0.55005 0.0
C1274 C 0.74785 0.82758 0.52836 0.0
C1275 C 0.71235 0.82636 0.49849 0.0
C1276 C 0.68754 0.83197 0.49049 0.0
C1277 C 0.72291 0.83286 0.52035 0.0
C1278 C 0.67317 0.84387 0.50471 0.0
C1279 C 0.68349 0.85034 0.52646 0.0
H1280 H 0.16203 0.91454 0.55441 0.0
H1281 H 0.14779 0.8222 0.57033 0.0
H1282 H 0.16411 0.81374 0.5353 0.0
H1283 H 0.18516 0.83397 0.50084 0.0
H1284 H 0.20131 0.9274 0.48588 0.0
H1285 H 0.18175 0.93413 0.5199 0.0
C1286 C 0.1626 0.89259 0.55025 0.0
C1287 C 0.154 0.86918 0.56505 0.0
C1288 C 0.17256 0.88818 0.5303 0.0
C1289 C 0.15409 0.84052 0.5592 0.0
C1290 C 0.16369 0.8358 0.53924 0.0
C1291 C 0.18456 0.85587 0.5051 0.0
C1292 C 0.1948 0.88018 0.49085 0.0
C1293 C 0.17347 0.8597 0.5248 0.0
C1294 C 0.19331 0.90817 0.49644 0.0
C1295 C 0.18226 0.91212 0.51594 0.0
H1296 H 0.60929 0.76614 0.12573 0.0
H1297 H 0.68361 0.86057 0.11049 0.0
H1298 H 0.70723 0.87374 0.14755 0.0
H1299 H 0.70664 0.85845 0.18425 0.0
H1300 H 0.63316 0.76344 0.19921 0.0
H1301 H 0.60935 0.75046 0.16223 0.0
C1302 C 0.6309 0.78946 0.13045 0.0
C1303 C 0.64474 0.81229 0.11533 0.0
C1304 C 0.64443 0.7968 0.15173 0.0
C1305 C 0.67232 0.84267 0.12184 0.0
C1306 C 0.68592 0.85016 0.143 0.0
C1307 C 0.68564 0.83477 0.17937 0.0
C1308 C 0.67175 0.81195 0.19449 0.0
C1309 C 0.67218 0.8274 0.15807 0.0
C1310 C 0.64413 0.78159 0.18797 0.0
C1311 C 0.6306 0.77408 0.16681 0.0
H1312 H 0.27724 0.84675 0.14893 0.0
H1313 H 0.18647 0.82232 0.11352 0.0
H1314 H 0.16347 0.82718 0.14668 0.0
H1315 H 0.16863 0.83648 0.18581 0.0
H1316 H 0.25827 0.85695 0.22133 0.0
H1317 H 0.2824 0.85612 0.1881 0.0
C1318 C 0.25261 0.84299 0.14852 0.0
C1319 C 0.23358 0.83439 0.12891 0.0
C1320 C 0.23932 0.84502 0.16766 0.0
C1321 C 0.2015 0.82898 0.12851 0.0
C1322 C 0.18836 0.83169 0.14743 0.0
C1323 C 0.19334 0.84049 0.18633 0.0
C1324 C 0.21152 0.84684 0.20615 0.0
C1325 C 0.20689 0.83924 0.16714 0.0
C1326 C 0.24378 0.85255 0.20638 0.0
C1327 C 0.2576 0.85186 0.18736 0.0
H1328 H 0.16328 0.38758 0.13033 0.0
H1329 H 0.26634 0.45324 0.14739 0.0
H1330 H 0.26073 0.43344 0.18289 0.0
H1331 H 0.22635 0.39733 0.20923 0.0
H1332 H 0.12295 0.33336 0.19209 0.0
H1333 H 0.12892 0.35296 0.15668 0.0
C1334 C 0.18451 0.39793 0.14186 0.0
C1335 C 0.21519 0.42201 0.13608 0.0
C1336 C 0.18105 0.38671 0.16232 0.0
C1337 C 0.24248 0.43446 0.1512 0.0
C1338 C 0.23925 0.42329 0.1716 0.0
C1339 C 0.20507 0.38792 0.19783 0.0
C1340 C 0.17426 0.36368 0.20339 0.0
C1341 C 0.20862 0.39943 0.17737 0.0
C1342 C 0.14706 0.35157 0.18823 0.0
C1343 C 0.1504 0.36289 0.16796 0.0
H1344 H 0.77698 0.62618 0.89346 0.0
H1345 H 0.78517 0.5455 0.86799 0.0
H1346 H 0.79891 0.56908 0.83385 0.0
H1347 H 0.81158 0.61389 0.81183 0.0
H1348 H 0.80443 0.69537 0.83702 0.0
H1349 H 0.78776 0.67053 0.87061 0.0
C1350 C 0.78133 0.61364 0.8803 0.0
C1351 C 0.78011 0.58417 0.88325 0.0
C1352 C 0.78984 0.62769 0.86073 0.0
C1353 C 0.78616 0.5683 0.86615 0.0
C1354 C 0.79405 0.58179 0.84662 0.0
C1355 C 0.80595 0.62607 0.82453 0.0
C1356 C 0.80934 0.65653 0.82182 0.0
C1357 C 0.79643 0.61168 0.84382 0.0
C1358 C 0.80247 0.67212 0.8387 0.0
C1359 C 0.79272 0.65782 0.8579 0.0
H1360 H 0.40465 0.21564 0.89247 0.0
H1361 H 0.33625 0.12138 0.91137 0.0
H1362 H 0.30644 0.10643 0.87593 0.0
H1363 H 0.30151 0.1195 0.839 0.0
H1364 H 0.37068 0.21376 0.82042 0.0
H1365 H 0.3983 0.22954 0.85641 0.0
C1366 C 0.38288 0.19202 0.88896 0.0
C1367 C 0.37261 0.16967 0.9045 0.0
C1368 C 0.3661 0.18357 0.86859 0.0
C1369 C 0.34475 0.13891 0.89958 0.0
C1370 C 0.32767 0.1304 0.87937 0.0
C1371 C 0.32235 0.14361 0.84297 0.0
C1372 C 0.33419 0.16538 0.8271 0.0
C1373 C 0.33835 0.15242 0.86366 0.0
C1374 C 0.36141 0.19646 0.83233 0.0
C1375 C 0.37715 0.20553 0.8529 0.0
H1376 H 0.831 0.25201 0.8787 0.0
H1377 H 0.80791 0.15883 0.89876 0.0
H1378 H 0.81686 0.14292 0.8631 0.0
H1379 H 0.83535 0.15732 0.82702 0.0
H1380 H 0.85922 0.2513 0.80786 0.0
H1381 H 0.84667 0.26534 0.84257 0.0
C1382 C 0.82793 0.22819 0.87529 0.0
C1383 C 0.81922 0.20678 0.89144 0.0
C1384 C 0.83375 0.21955 0.85501 0.0
C1385 C 0.81454 0.17573 0.8866 0.0
C1386 C 0.81992 0.16675 0.86627 0.0
C1387 C 0.83747 0.18074 0.83037 0.0
C1388 C 0.84866 0.20338 0.8149 0.0
C1389 C 0.83013 0.18871 0.85046 0.0
C1390 C 0.8514 0.23368 0.81959 0.0
C1391 C 0.84398 0.24166 0.83939 0.0
H1392 H 0.31751 0.17395 0.46607 0.0
H1393 H 0.24551 0.07442 0.47243 0.0
H1394 H 0.26449 0.08062 0.51015 0.0
H1395 H 0.30197 0.11414 0.54115 0.0
H1396 H 0.37529 0.21323 0.53447 0.0
H1397 H 0.35503 0.20754 0.49717 0.0
C1398 C 0.30578 0.15376 0.47581 0.0
C1399 C 0.28017 0.1238 0.46654 0.0
C1400 C 0.31706 0.1574 0.4974 0.0
C1401 C 0.26544 0.09767 0.47922 0.0
C1402 C 0.27624 0.10121 0.50077 0.0
C1403 C 0.31375 0.13441 0.53149 0.0
C1404 C 0.34014 0.16405 0.54064 0.0
C1405 C 0.30222 0.13088 0.50998 0.0
C1406 C 0.35469 0.19024 0.52795 0.0
C1407 C 0.34323 0.18698 0.50657 0.0
H1408 H 0.85885 0.15226 0.45459 0.0
H1409 H 0.96053 0.19905 0.47857 0.0
H1410 H 0.94671 0.2121 0.51336 0.0
H1411 H 0.9053 0.20896 0.53721 0.0
H1412 H 0.80351 0.16044 0.51299 0.0
H1413 H 0.81788 0.14939 0.47808 0.0
C1414 C 0.878 0.16509 0.46747 0.0
C1415 C 0.91065 0.1744 0.46401 0.0
C1416 C 0.86985 0.17227 0.4874 0.0
C1417 C 0.93523 0.19172 0.48075 0.0
C1418 C 0.92731 0.19903 0.50068 0.0
C1419 C 0.88624 0.19583 0.52432 0.0
C1420 C 0.85333 0.18564 0.52779 0.0
C1421 C 0.89464 0.18922 0.50424 0.0
C1422 C 0.82906 0.16905 0.51077 0.0
C1423 C 0.83722 0.16248 0.49081 0.0
H1424 H 0.84594 0.75881 0.48048 0.0
H1425 H 0.88935 0.70333 0.458 0.0
H1426 H 0.87762 0.67576 0.49074 0.0
H1427 H 0.85402 0.66642 0.5256 0.0
H1428 H 0.80831 0.72016 0.54716 0.0
H1429 H 0.82175 0.74899 0.515 0.0
C1430 C 0.85263 0.7405 0.4826 0.0
C1431 C 0.86858 0.73333 0.46661 0.0
C1432 C 0.84531 0.72426 0.50138 0.0
C1433 C 0.87754 0.70989 0.47003 0.0
C1434 C 0.87057 0.69383 0.48873 0.0
C1435 C 0.84669 0.6842 0.52321 0.0
C1436 C 0.83016 0.691 0.53898 0.0
C1437 C 0.85427 0.70064 0.50448 0.0
C1438 C 0.82144 0.71462 0.53559 0.0
C1439 C 0.82896 0.73106 0.51708 0.0
loop_
_geom_bond_atom_site_label_1
_geom_bond_atom_site_label_2
_geom_bond_distance
_geom_bond_site_symmetry_2
_ccdc_geom_bond_type
H0 C5 0.930 . S
H1 C8 0.930 . S
H2 C10 0.930 . S
H3 C4 1.016 . S
C4 H3 1.016 . S
C4 N11 1.286 . S
C5 H0 0.930 . S
C5 C6 1.397 . S
C5 C7 1.361 . S
C6 C5 1.397 . S
C6 C10 1.390 . S
C7 C5 1.361 . S
C7 C8 1.393 . S
C7 N11 1.413 . S
C8 H1 0.930 . S
C8 C7 1.393 . S
C8 C9 1.399 . S
C9 C8 1.399 . S
C9 C10 1.381 . S
C10 H2 0.930 . S
C10 C6 1.390 . S
C10 C9 1.381 . S
N11 C4 1.286 . S
N11 C7 1.413 . S
H12 C17 0.930 . S
H13 C20 0.930 . S
H14 C22 0.930 . S
H15 C16 1.016 . S
C16 H15 1.016 . S
C16 N23 1.286 . S
C17 H12 0.930 . S
C17 C18 1.397 . S
C17 C19 1.361 . S
C18 C17 1.397 . S
C18 C22 1.390 . S
C19 C17 1.361 . S
C19 C20 1.393 . S
C19 N23 1.413 . S
C20 H13 0.930 . S
C20 C19 1.393 . S
C20 C21 1.399 . S
C21 C20 1.399 . S
C21 C22 1.381 . S
C22 H14 0.930 . S
C22 C18 1.390 . S
C22 C21 1.381 . S
N23 C16 1.286 . S
N23 C19 1.413 . S
H24 C29 0.930 . S
H25 C32 0.930 . S
H26 C34 0.930 . S
H27 C28 1.016 . S
C28 H27 1.016 . S
C28 N35 1.286 . S
C29 H24 0.930 . S
C29 C30 1.397 . S
C29 C31 1.361 . S
C30 C29 1.397 . S
C30 C34 1.390 . S
C31 C29 1.361 . S
C31 C32 1.393 . S
C31 N35 1.413 . S
C32 H25 0.930 . S
C32 C31 1.393 . S
C32 C33 1.399 . S
C33 C32 1.399 . S
C33 C34 1.381 . S
C34 H26 0.930 . S
C34 C30 1.390 . S
C34 C33 1.381 . S
N35 C28 1.286 . S
N35 C31 1.413 . S
H36 C41 0.930 . S
H37 C44 0.930 . S
H38 C46 0.930 . S
H39 C40 1.016 . S
C40 H39 1.016 . S
C40 N47 1.286 . S
C41 H36 0.930 . S
C41 C42 1.397 . S
C41 C43 1.361 . S
C42 C41 1.397 . S
C42 C46 1.390 . S
C43 C41 1.361 . S
C43 C44 1.393 . S
C43 N47 1.413 . S
C44 H37 0.930 . S
C44 C43 1.393 . S
C44 C45 1.399 . S
C45 C44 1.399 . S
C45 C46 1.381 . S
C46 H38 0.930 . S
C46 C42 1.390 . S
C46 C45 1.381 . S
N47 C40 1.286 . S
N47 C43 1.413 . S
H48 C53 0.930 . S
H49 C56 0.930 . S
H50 C58 0.930 . S
H51 C52 1.016 . S
C52 H51 1.016 . S
C52 N59 1.286 . S
C53 H48 0.930 . S
C53 C54 1.397 . S
C53 C55 1.361 . S
C54 C53 1.397 . S
C54 C58 1.390 . S
C55 C53 1.361 . S
C55 C56 1.393 . S
C55 N59 1.413 . S
C56 H49 0.930 . S
C56 C55 1.393 . S
C56 C57 1.399 . S
C57 C56 1.399 . S
C57 C58 1.381 . S
C58 H50 0.930 . S
C58 C54 1.390 . S
C58 C57 1.381 . S
N59 C52 1.286 . S
N59 C55 1.413 . S
H60 C65 0.930 . S
H61 C68 0.930 . S
H62 C70 0.930 . S
H63 C64 1.016 . S
C64 H63 1.016 . S
C64 N71 1.286 . S
C65 H60 0.930 . S
C65 C66 1.397 . S
C65 C67 1.361 . S
C66 C65 1.397 . S
C66 C70 1.390 . S
C67 C65 1.361 . S
C67 C68 1.393 . S
C67 N71 1.413 . S
C68 H61 0.930 . S
C68 C67 1.393 . S
C68 C69 1.399 . S
C69 C68 1.399 . S
C69 C70 1.381 . S
C70 H62 0.930 . S
C70 C66 1.390 . S
C70 C69 1.381 . S
N71 C64 1.286 . S
N71 C67 1.413 . S
H72 C77 0.930 . S
H73 C80 0.930 . S
H74 C82 0.930 . S
H75 C76 1.016 . S
C76 H75 1.016 . S
C76 N83 1.286 . S
C77 H72 0.930 . S
C77 C78 1.397 . S
C77 C79 1.361 . S
C78 C77 1.397 . S
C78 C82 1.390 . S
C79 C77 1.361 . S
C79 C80 1.393 . S
C79 N83 1.413 . S
C80 H73 0.930 . S
C80 C79 1.393 . S
C80 C81 1.399 . S
C81 C80 1.399 . S
C81 C82 1.381 . S
C82 H74 0.930 . S
C82 C78 1.390 . S
C82 C81 1.381 . S
N83 C76 1.286 . S
N83 C79 1.413 . S
H84 C89 0.930 . S
H85 C92 0.930 . S
H86 C94 0.930 . S
H87 C88 1.016 . S
C88 H87 1.016 . S
C88 N95 1.286 . S
C89 H84 0.930 . S
C89 C90 1.397 . S
C89 C91 1.361 . S
C90 C89 1.397 . S
C90 C94 1.390 . S
C91 C89 1.361 . S
C91 C92 1.393 . S
C91 N95 1.413 . S
C92 H85 0.930 . S
C92 C91 1.393 . S
C92 C93 1.399 . S
C93 C92 1.399 . S
C93 C94 1.381 . S
C94 H86 0.930 . S
C94 C90 1.390 . S
C94 C93 1.381 . S
N95 C88 1.286 . S
N95 C91 1.413 . S
H96 C101 0.930 . S
H97 C104 0.930 . S
H98 C106 0.930 . S
H99 C100 1.016 . S
C100 H99 1.016 . S
C100 N107 1.286 . S
C101 H96 0.930 . S
C101 C102 1.397 . S
C101 C103 1.361 . S
C102 C101 1.397 . S
C102 C106 1.390 . S
C103 C101 1.361 . S
C103 C104 1.393 . S
C103 N107 1.413 . S
C104 H97 0.930 . S
C104 C103 1.393 . S
C104 C105 1.399 . S
C105 C104 1.399 . S
C105 C106 1.381 . S
C106 H98 0.930 . S
C106 C102 1.390 . S
C106 C105 1.381 . S
N107 C100 1.286 . S
N107 C103 1.413 . S
H108 C113 0.930 . S
H109 C116 0.930 . S
H110 C118 0.930 . S
H111 C112 1.016 . S
C112 H111 1.016 . S
C112 N119 1.286 . S
C113 H108 0.930 . S
C113 C114 1.397 . S
C113 C115 1.361 . S
C114 C113 1.397 . S
C114 C118 1.390 . S
C115 C113 1.361 . S
C115 C116 1.393 . S
C115 N119 1.413 . S
C116 H109 0.930 . S
C116 C115 1.393 . S
C116 C117 1.399 . S
C117 C116 1.399 . S
C117 C118 1.381 . S
C118 H110 0.930 . S
C118 C114 1.390 . S
C118 C117 1.381 . S
N119 C112 1.286 . S
N119 C115 1.413 . S
H120 C125 0.929 . S
H121 C128 0.930 . S
H122 C130 0.930 . S
H123 C124 1.016 . S
C124 H123 1.016 . S
C124 N131 1.286 . S
C125 H120 0.929 . S
C125 C126 1.397 . S
C125 C127 1.361 . S
C126 C125 1.397 . S
C126 C130 1.390 . S
C127 C125 1.361 . S
C127 C128 1.393 . S
C127 N131 1.413 . S
C128 H121 0.930 . S
C128 C127 1.393 . S
C128 C129 1.399 . S
C129 C128 1.399 . S
C129 C130 1.381 . S
C130 H122 0.930 . S
C130 C126 1.390 . S
C130 C129 1.381 . S
N131 C124 1.286 . S
N131 C127 1.413 . S
H132 C137 0.930 . S
H133 C140 0.930 . S
H134 C142 0.930 . S
H135 C136 1.016 . S
C136 H135 1.016 . S
C136 N143 1.286 . S
C137 H132 0.930 . S
C137 C138 1.397 . S
C137 C139 1.361 . S
C138 C137 1.397 . S
C138 C142 1.390 . S
C139 C137 1.361 . S
C139 C140 1.393 . S
C139 N143 1.413 . S
C140 H133 0.930 . S
C140 C139 1.393 . S
C140 C141 1.399 . S
C141 C140 1.399 . S
C141 C142 1.381 . S
C142 H134 0.930 . S
C142 C138 1.390 . S
C142 C141 1.381 . S
N143 C136 1.286 . S
N143 C139 1.413 . S
H144 C149 0.930 . S
H145 C152 0.930 . S
H146 C154 0.930 . S
H147 C148 1.016 . S
C148 H147 1.016 . S
C148 N155 1.286 . S
C149 H144 0.930 . S
C149 C150 1.397 . S
C149 C151 1.361 . S
C150 C149 1.397 . S
C150 C154 1.390 . S
C151 C149 1.361 . S
C151 C152 1.393 . S
C151 N155 1.413 . S
C152 H145 0.930 . S
C152 C151 1.393 . S
C152 C153 1.399 . S
C153 C152 1.399 . S
C153 C154 1.381 . S
C154 H146 0.930 . S
C154 C150 1.390 . S
C154 C153 1.381 . S
N155 C148 1.286 . S
N155 C151 1.413 . S
H156 C161 0.930 . S
H157 C164 0.930 . S
H158 C166 0.930 . S
H159 C160 1.016 . S
C160 H159 1.016 . S
C160 N167 1.286 . S
C161 H156 0.930 . S
C161 C162 1.397 . S
C161 C163 1.361 . S
C162 C161 1.397 . S
C162 C166 1.390 . S
C163 C161 1.361 . S
C163 C164 1.393 . S
C163 N167 1.413 . S
C164 H157 0.930 . S
C164 C163 1.393 . S
C164 C165 1.399 . S
C165 C164 1.399 . S
C165 C166 1.381 . S
C166 H158 0.930 . S
C166 C162 1.390 . S
C166 C165 1.381 . S
N167 C160 1.286 . S
N167 C163 1.413 . S
H168 C173 0.930 . S
H169 C176 0.930 . S
H170 C178 0.930 . S
H171 C172 1.016 . S
C172 H171 1.016 . S
C172 N179 1.286 . S
C173 H168 0.930 . S
C173 C174 1.397 . S
C173 C175 1.361 . S
C174 C173 1.397 . S
C174 C178 1.390 . S
C175 C173 1.361 . S
C175 C176 1.393 . S
C175 N179 1.413 . S
C176 H169 0.930 . S
C176 C175 1.393 . S
C176 C177 1.399 . S
C177 C176 1.399 . S
C177 C178 1.381 . S
C178 H170 0.930 . S
C178 C174 1.390 . S
C178 C177 1.381 . S
N179 C172 1.286 . S
N179 C175 1.413 . S
H180 C185 0.930 . S
H181 C188 0.930 . S
H182 C190 0.930 . S
H183 C184 1.016 . S
C184 H183 1.016 . S
C184 N191 1.286 . S
C185 H180 0.930 . S
C185 C186 1.397 . S
C185 C187 1.361 . S
C186 C185 1.397 . S
C186 C190 1.390 . S
C187 C185 1.361 . S
C187 C188 1.393 . S
C187 N191 1.413 . S
C188 H181 0.930 . S
C188 C187 1.393 . S
C188 C189 1.399 . S
C189 C188 1.399 . S
C189 C190 1.381 . S
C190 H182 0.930 . S
C190 C186 1.390 . S
C190 C189 1.381 . S
N191 C184 1.286 . S
N191 C187 1.413 . S
H192 C197 0.930 . S
H193 C200 0.930 . S
H194 C202 0.930 . S
H195 C196 1.016 . S
C196 H195 1.016 . S
C196 N203 1.286 . S
C197 H192 0.930 . S
C197 C198 1.397 . S
C197 C199 1.361 . S
C198 C197 1.397 . S
C198 C202 1.390 . S
C199 C197 1.361 . S
C199 C200 1.393 . S
C199 N203 1.413 . S
C200 H193 0.930 . S
C200 C199 1.393 . S
C200 C201 1.399 . S
C201 C200 1.399 . S
C201 C202 1.381 . S
C202 H194 0.930 . S
C202 C198 1.390 . S
C202 C201 1.381 . S
N203 C196 1.286 . S
N203 C199 1.413 . S
H204 C209 0.930 . S
H205 C212 0.930 . S
H206 C214 0.930 . S
H207 C208 1.016 . S
C208 H207 1.016 . S
C208 N215 1.286 . S
C209 H204 0.930 . S
C209 C210 1.397 . S
C209 C211 1.361 . S
C210 C209 1.397 . S
C210 C214 1.390 . S
C211 C209 1.361 . S
C211 C212 1.393 . S
C211 N215 1.413 . S
C212 H205 0.930 . S
C212 C211 1.393 . S
C212 C213 1.399 . S
C213 C212 1.399 . S
C213 C214 1.381 . S
C214 H206 0.930 . S
C214 C210 1.390 . S
C214 C213 1.381 . S
N215 C208 1.286 . S
N215 C211 1.413 . S
Tb216 C226 2.825 1_565 S
Tb216 O227 2.347 1_565 S
Tb216 O230 2.366 1_565 S
Tb216 O235 2.418 . S
Tb216 O236 2.384 . S
Tb216 O239 2.479 . S
Tb216 O240 2.471 1_565 S
Eu217 O228 2.418 . S
Eu217 O229 2.384 . S
Eu217 O232 2.479 . S
Eu217 O233 2.471 1_545 S
Eu217 O234 2.347 1_545 S
Eu217 O237 2.366 1_545 S
Eu217 C247 2.825 . S
C218 O234 1.259 . S
C218 O235 1.265 1_554 S
C219 O236 1.255 1_554 S
C219 O237 1.265 . S
C220 C222 1.380 1_545 S
C220 C223 1.374 . S
C220 C226 1.507 . S
C221 C222 1.384 1_545 S
C221 C225 1.387 . S
C221 H248 0.930 1_545 S
C222 C220 1.380 1_565 S
C222 C221 1.384 1_565 S
C222 H249 0.931 . S
C223 C220 1.374 . S
C223 C224 1.390 . S
C223 H250 0.930 . S
C224 C223 1.390 . S
C224 C225 1.391 . S
C224 H251 0.930 . S
C225 C221 1.387 . S
C225 C224 1.391 . S
C226 Tb216 2.825 1_545 S
C226 C220 1.507 . S
C226 O239 1.238 1_545 S
C226 O240 1.247 . S
O227 Tb216 2.347 1_545 S
O227 C231 1.259 1_556 S
O228 Eu217 2.418 . S
O228 C231 1.265 . S
O229 Eu217 2.384 . S
O229 C238 1.255 1_554 S
O230 Tb216 2.366 1_545 S
O230 C238 1.265 . S
C231 O227 1.259 1_554 S
C231 O228 1.265 . S
O232 Eu217 2.479 . S
O232 C247 1.238 . S
O233 Eu217 2.471 1_565 S
O233 C247 1.247 1_565 S
O234 Eu217 2.347 1_565 S
O234 C218 1.259 . S
O235 Tb216 2.418 . S
O235 C218 1.265 1_556 S
O236 Tb216 2.384 . S
O236 C219 1.255 1_556 S
O237 Eu217 2.366 1_565 S
O237 C219 1.265 . S
C238 O229 1.255 1_556 S
C238 O230 1.265 . S
O239 Tb216 2.479 . S
O239 C226 1.238 1_565 S
O240 Tb216 2.471 1_545 S
O240 C226 1.247 . S
C241 C244 1.380 1_565 S
C241 C245 1.374 . S
C241 C247 1.507 1_565 S
C242 C243 1.387 1_565 S
C242 C246 1.391 . S
C243 C242 1.387 1_545 S
C243 C244 1.384 . S
C243 H252 0.930 . S
C244 C241 1.380 1_545 S
C244 C243 1.384 . S
C244 H253 0.931 . S
C245 C241 1.374 . S
C245 C246 1.390 . S
C245 H254 0.930 . S
C246 C242 1.391 . S
C246 C245 1.390 . S
C246 H255 0.930 . S
C247 Eu217 2.825 . S
C247 O232 1.238 . S
C247 O233 1.247 1_545 S
C247 C241 1.507 1_545 S
H248 C221 0.930 1_565 S
H249 C222 0.931 . S
H250 C223 0.930 . S
H251 C224 0.930 . S
H252 C243 0.930 . S
H253 C244 0.931 . S
H254 C245 0.930 . S
H255 C246 0.930 . S
Tb256 C266 2.827 . S
Tb256 O267 2.347 1_455 S
Tb256 O270 2.366 1_455 S
Tb256 O275 2.418 . S
Tb256 O276 2.384 1_556 S
Tb256 O279 2.479 . S
Tb256 O280 2.471 1_455 S
Eu257 O268 2.418 . S
Eu257 O269 2.384 . S
Eu257 O272 2.479 . S
Eu257 O273 2.471 1_655 S
Eu257 O274 2.347 1_655 S
Eu257 O277 2.366 1_655 S
Eu257 C287 2.825 1_655 S
C258 O274 1.259 . S
C258 O275 1.265 1_554 S
C259 O276 1.255 . S
C259 O277 1.265 . S
C260 C262 1.380 1_655 S
C260 C263 1.374 . S
C260 C266 1.505 1_655 S
C261 C262 1.384 1_655 S
C261 C265 1.387 . S
C261 H288 0.930 1_655 S
C262 C260 1.380 1_455 S
C262 C261 1.384 1_455 S
C262 H289 0.931 . S
C263 C260 1.374 . S
C263 C264 1.390 . S
C263 H290 0.930 . S
C264 C263 1.390 . S
C264 C265 1.391 . S
C264 H291 0.930 . S
C265 C261 1.387 . S
C265 C264 1.391 . S
C266 Tb256 2.827 . S
C266 C260 1.505 1_455 S
C266 O279 1.240 . S
C266 O280 1.247 1_455 S
O267 Tb256 2.347 1_655 S
O267 C271 1.260 . S
O268 Eu257 2.418 . S
O268 C271 1.262 1_554 S
O269 Eu257 2.384 . S
O269 C278 1.255 1_554 S
O270 Tb256 2.366 1_655 S
O270 C278 1.265 . S
C271 O267 1.260 . S
C271 O268 1.262 1_556 S
O272 Eu257 2.479 . S
O272 C287 1.238 1_655 S
O273 Eu257 2.471 1_455 S
O273 C287 1.247 . S
O274 Eu257 2.347 1_455 S
O274 C258 1.259 . S
O275 Tb256 2.418 . S
O275 C258 1.265 1_556 S
O276 Tb256 2.384 1_554 S
O276 C259 1.255 . S
O277 Eu257 2.366 1_455 S
O277 C259 1.265 . S
C278 O269 1.255 1_556 S
C278 O270 1.265 . S
O279 Tb256 2.479 . S
O279 C266 1.240 . S
O280 Tb256 2.471 1_655 S
O280 C266 1.247 1_655 S
C281 C284 1.380 1_455 S
C281 C285 1.374 . S
C281 C287 1.507 . S
C282 C283 1.387 . S
C282 C286 1.391 . S
C283 C282 1.387 . S
C283 C284 1.384 1_455 S
C283 H292 0.930 1_455 S
C284 C281 1.380 1_655 S
C284 C283 1.384 1_655 S
C284 H293 0.931 . S
C285 C281 1.374 . S
C285 C286 1.390 . S
C285 H294 0.930 . S
C286 C282 1.391 . S
C286 C285 1.390 . S
C286 H295 0.930 . S
C287 Eu257 2.825 1_455 S
C287 O272 1.238 1_455 S
C287 O273 1.247 . S
C287 C281 1.507 . S
H288 C261 0.930 1_455 S
H289 C262 0.931 . S
H290 C263 0.930 . S
H291 C264 0.930 . S
H292 C283 0.930 1_655 S
H293 C284 0.931 . S
H294 C285 0.930 . S
H295 C286 0.930 . S
Tb296 C306 2.825 . S
Tb296 O307 2.347 . S
Tb296 O310 2.366 . S
Tb296 O315 2.418 . S
Tb296 O316 2.384 . S
Tb296 O319 2.479 . S
Tb296 O320 2.471 . S
Eu297 O308 2.418 . S
Eu297 O309 2.384 1_556 S
Eu297 O312 2.479 . S
Eu297 O313 2.471 . S
Eu297 O314 2.347 . S
Eu297 O317 2.366 . S
Eu297 C327 2.825 . S
C298 O314 1.259 1_554 S
C298 O315 1.265 . S
C299 O316 1.255 1_556 S
C299 O317 1.265 . S
C300 C302 1.380 . S
C300 C303 1.374 . S
C300 C306 1.507 . S
C301 C302 1.384 . S
C301 C305 1.387 . S
C301 H328 0.930 . S
C302 C300 1.380 . S
C302 C301 1.384 . S
C302 H329 0.931 . S
C303 C300 1.374 . S
C303 C304 1.390 . S
C303 H330 0.930 . S
C304 C303 1.390 . S
C304 C305 1.391 . S
C304 H331 0.930 . S
C305 C301 1.387 . S
C305 C304 1.391 . S
C306 Tb296 2.825 . S
C306 C300 1.507 . S
C306 O319 1.238 . S
C306 O320 1.247 . S
O307 Tb296 2.347 . S
O307 C311 1.259 . S
O308 Eu297 2.418 . S
O308 C311 1.265 1_556 S
O309 Eu297 2.384 1_554 S
O309 C318 1.255 . S
O310 Tb296 2.366 . S
O310 C318 1.265 . S
C311 O307 1.259 . S
C311 O308 1.265 1_554 S
O312 Eu297 2.479 . S
O312 C327 1.238 . S
O313 Eu297 2.471 . S
O313 C327 1.247 . S
O314 Eu297 2.347 . S
O314 C298 1.259 1_556 S
O315 Tb296 2.418 . S
O315 C298 1.265 . S
O316 Tb296 2.384 . S
O316 C299 1.255 1_554 S
O317 Eu297 2.366 . S
O317 C299 1.265 . S
C318 O309 1.255 . S
C318 O310 1.265 . S
O319 Tb296 2.479 . S
O319 C306 1.238 . S
O320 Tb296 2.471 . S
O320 C306 1.247 . S
C321 C324 1.380 . S
C321 C325 1.374 . S
C321 C327 1.507 . S
C322 C323 1.387 . S
C322 C326 1.391 . S
C323 C322 1.387 . S
C323 C324 1.384 . S
C323 H332 0.930 . S
C324 C321 1.380 . S
C324 C323 1.384 . S
C324 H333 0.931 . S
C325 C321 1.374 . S
C325 C326 1.390 . S
C325 H334 0.930 . S
C326 C322 1.391 . S
C326 C325 1.390 . S
C326 H335 0.930 . S
C327 Eu297 2.825 . S
C327 O312 1.238 . S
C327 O313 1.247 . S
C327 C321 1.507 . S
H328 C301 0.930 . S
H329 C302 0.931 . S
H330 C303 0.930 . S
H331 C304 0.930 . S
H332 C323 0.930 . S
H333 C324 0.931 . S
H334 C325 0.930 . S
H335 C326 0.930 . S
Tb336 C346 2.825 . S
Tb336 O347 2.347 . S
Tb336 O350 2.366 . S
Tb336 O355 2.418 . S
Tb336 O356 2.384 . S
Tb336 O359 2.479 . S
Tb336 O360 2.471 . S
Eu337 O348 2.418 . S
Eu337 O349 2.384 . S
Eu337 O352 2.479 . S
Eu337 O353 2.471 . S
Eu337 O354 2.347 . S
Eu337 O357 2.366 . S
Eu337 C367 2.825 . S
C338 O354 1.259 . S
C338 O355 1.265 . S
C339 O356 1.255 . S
C339 O357 1.265 . S
C340 C342 1.380 . S
C340 C343 1.374 . S
C340 C346 1.507 . S
C341 C342 1.384 . S
C341 C345 1.387 . S
C341 H368 0.930 . S
C342 C340 1.380 . S
C342 C341 1.384 . S
C342 H369 0.931 . S
C343 C340 1.374 . S
C343 C344 1.390 . S
C343 H370 0.930 . S
C344 C343 1.390 . S
C344 C345 1.391 . S
C344 H371 0.930 . S
C345 C341 1.387 . S
C345 C344 1.391 . S
C346 Tb336 2.825 . S
C346 C340 1.507 . S
C346 O359 1.238 . S
C346 O360 1.247 . S
O347 Tb336 2.347 . S
O347 C351 1.259 . S
O348 Eu337 2.418 . S
O348 C351 1.265 . S
O349 Eu337 2.384 . S
O349 C358 1.255 . S
O350 Tb336 2.366 . S
O350 C358 1.265 . S
C351 O347 1.259 . S
C351 O348 1.265 . S
O352 Eu337 2.479 . S
O352 C367 1.238 . S
O353 Eu337 2.471 . S
O353 C367 1.247 . S
O354 Eu337 2.347 . S
O354 C338 1.259 . S
O355 Tb336 2.418 . S
O355 C338 1.265 . S
O356 Tb336 2.384 . S
O356 C339 1.255 . S
O357 Eu337 2.366 . S
O357 C339 1.265 . S
C358 O349 1.255 . S
C358 O350 1.265 . S
O359 Tb336 2.479 . S
O359 C346 1.238 . S
O360 Tb336 2.471 . S
O360 C346 1.247 . S
C361 C364 1.380 . S
C361 C365 1.374 . S
C361 C367 1.507 . S
C362 C363 1.387 . S
C362 C366 1.391 . S
C363 C362 1.387 . S
C363 C364 1.384 . S
C363 H372 0.930 . S
C364 C361 1.380 . S
C364 C363 1.384 . S
C364 H373 0.931 . S
C365 C361 1.374 . S
C365 C366 1.390 . S
C365 H374 0.930 . S
C366 C362 1.391 . S
C366 C365 1.390 . S
C366 H375 0.930 . S
C367 Eu337 2.825 . S
C367 O352 1.238 . S
C367 O353 1.247 . S
C367 C361 1.507 . S
H368 C341 0.930 . S
H369 C342 0.931 . S
H370 C343 0.930 . S
H371 C344 0.930 . S
H372 C363 0.930 . S
H373 C364 0.931 . S
H374 C365 0.930 . S
H375 C366 0.930 . S
Tb376 C386 2.825 . S
Tb376 O387 2.347 . S
Tb376 O390 2.366 . S
Tb376 O395 2.418 . S
Tb376 O396 2.384 . S
Tb376 O399 2.479 . S
Tb376 O400 2.471 . S
Eu377 O388 2.418 . S
Eu377 O389 2.384 . S
Eu377 O392 2.479 . S
Eu377 O393 2.471 . S
Eu377 O394 2.347 . S
Eu377 O397 2.366 . S
Eu377 C407 2.825 . S
C378 O394 1.259 . S
C378 O395 1.265 . S
C379 O396 1.255 . S
C379 O397 1.265 . S
C380 C382 1.380 . S
C380 C383 1.374 . S
C380 C386 1.507 . S
C381 C382 1.384 . S
C381 C385 1.387 . S
C381 H408 0.930 . S
C382 C380 1.380 . S
C382 C381 1.384 . S
C382 H409 0.931 . S
C383 C380 1.374 . S
C383 C384 1.390 . S
C383 H410 0.930 . S
C384 C383 1.390 . S
C384 C385 1.391 . S
C384 H411 0.930 . S
C385 C381 1.387 . S
C385 C384 1.391 . S
C386 Tb376 2.825 . S
C386 C380 1.507 . S
C386 O399 1.238 . S
C386 O400 1.247 . S
O387 Tb376 2.347 . S
O387 C391 1.259 . S
O388 Eu377 2.418 . S
O388 C391 1.265 . S
O389 Eu377 2.384 . S
O389 C398 1.255 . S
O390 Tb376 2.366 . S
O390 C398 1.265 . S
C391 O387 1.259 . S
C391 O388 1.265 . S
O392 Eu377 2.479 . S
O392 C407 1.238 . S
O393 Eu377 2.471 . S
O393 C407 1.247 . S
O394 Eu377 2.347 . S
O394 C378 1.259 . S
O395 Tb376 2.418 . S
O395 C378 1.265 . S
O396 Tb376 2.384 . S
O396 C379 1.255 . S
O397 Eu377 2.366 . S
O397 C379 1.265 . S
C398 O389 1.255 . S
C398 O390 1.265 . S
O399 Tb376 2.479 . S
O399 C386 1.238 . S
O400 Tb376 2.471 . S
O400 C386 1.247 . S
C401 C404 1.380 . S
C401 C405 1.374 . S
C401 C407 1.507 . S
C402 C403 1.387 . S
C402 C406 1.391 . S
C403 C402 1.387 . S
C403 C404 1.384 . S
C403 H412 0.930 . S
C404 C401 1.380 . S
C404 C403 1.384 . S
C404 H413 0.931 . S
C405 C401 1.374 . S
C405 C406 1.390 . S
C405 H414 0.930 . S
C406 C402 1.391 . S
C406 C405 1.390 . S
C406 H415 0.930 . S
C407 Eu377 2.825 . S
C407 O392 1.238 . S
C407 O393 1.247 . S
C407 C401 1.507 . S
H408 C381 0.930 . S
H409 C382 0.931 . S
H410 C383 0.930 . S
H411 C384 0.930 . S
H412 C403 0.930 . S
H413 C404 0.931 . S
H414 C405 0.930 . S
H415 C406 0.930 . S
Tb416 C426 2.825 . S
Tb416 O427 2.347 . S
Tb416 O430 2.366 . S
Tb416 O435 2.418 . S
Tb416 O436 2.384 . S
Tb416 O439 2.479 . S
Tb416 O440 2.471 . S
Eu417 O428 2.418 . S
Eu417 O429 2.384 . S
Eu417 O432 2.479 . S
Eu417 O433 2.471 . S
Eu417 O434 2.347 . S
Eu417 O437 2.366 . S
Eu417 C447 2.825 . S
C418 O434 1.259 . S
C418 O435 1.265 . S
C419 O436 1.255 . S
C419 O437 1.265 . S
C420 C422 1.380 . S
C420 C423 1.374 . S
C420 C426 1.507 . S
C421 C422 1.384 . S
C421 C425 1.387 . S
C421 H448 0.930 . S
C422 C420 1.380 . S
C422 C421 1.384 . S
C422 H449 0.931 . S
C423 C420 1.374 . S
C423 C424 1.390 . S
C423 H450 0.930 . S
C424 C423 1.390 . S
C424 C425 1.391 . S
C424 H451 0.930 . S
C425 C421 1.387 . S
C425 C424 1.391 . S
C426 Tb416 2.825 . S
C426 C420 1.507 . S
C426 O439 1.238 . S
C426 O440 1.247 . S
O427 Tb416 2.347 . S
O427 C431 1.259 . S
O428 Eu417 2.418 . S
O428 C431 1.265 . S
O429 Eu417 2.384 . S
O429 C438 1.255 . S
O430 Tb416 2.366 . S
O430 C438 1.265 . S
C431 O427 1.259 . S
C431 O428 1.265 . S
O432 Eu417 2.479 . S
O432 C447 1.238 . S
O433 Eu417 2.471 . S
O433 C447 1.247 . S
O434 Eu417 2.347 . S
O434 C418 1.259 . S
O435 Tb416 2.418 . S
O435 C418 1.265 . S
O436 Tb416 2.384 . S
O436 C419 1.255 . S
O437 Eu417 2.366 . S
O437 C419 1.265 . S
C438 O429 1.255 . S
C438 O430 1.265 . S
O439 Tb416 2.479 . S
O439 C426 1.238 . S
O440 Tb416 2.471 . S
O440 C426 1.247 . S
C441 C444 1.380 . S
C441 C445 1.374 . S
C441 C447 1.507 . S
C442 C443 1.387 . S
C442 C446 1.391 . S
C443 C442 1.387 . S
C443 C444 1.384 . S
C443 H452 0.930 . S
C444 C441 1.380 . S
C444 C443 1.384 . S
C444 H453 0.931 . S
C445 C441 1.374 . S
C445 C446 1.390 . S
C445 H454 0.930 . S
C446 C442 1.391 . S
C446 C445 1.390 . S
C446 H455 0.930 . S
C447 Eu417 2.825 . S
C447 O432 1.238 . S
C447 O433 1.247 . S
C447 C441 1.507 . S
H448 C421 0.930 . S
H449 C422 0.931 . S
H450 C423 0.930 . S
H451 C424 0.930 . S
H452 C443 0.930 . S
H453 C444 0.931 . S
H454 C445 0.930 . S
H455 C446 0.930 . S
Tb456 C466 2.825 . S
Tb456 O467 2.347 . S
Tb456 O470 2.366 . S
Tb456 O475 2.418 . S
Tb456 O476 2.384 . S
Tb456 O479 2.479 . S
Tb456 O480 2.471 . S
Eu457 O468 2.418 . S
Eu457 O469 2.384 . S
Eu457 O472 2.479 . S
Eu457 O473 2.471 . S
Eu457 O474 2.347 . S
Eu457 O477 2.366 . S
Eu457 C487 2.825 . S
C458 O474 1.259 . S
C458 O475 1.265 . S
C459 O476 1.255 . S
C459 O477 1.265 . S
C460 C462 1.380 . S
C460 C463 1.374 . S
C460 C466 1.507 . S
C461 C462 1.384 . S
C461 C465 1.387 . S
C461 H488 0.930 . S
C462 C460 1.380 . S
C462 C461 1.384 . S
C462 H489 0.931 . S
C463 C460 1.374 . S
C463 C464 1.390 . S
C463 H490 0.930 . S
C464 C463 1.390 . S
C464 C465 1.391 . S
C464 H491 0.930 . S
C465 C461 1.387 . S
C465 C464 1.391 . S
C466 Tb456 2.825 . S
C466 C460 1.507 . S
C466 O479 1.238 . S
C466 O480 1.247 . S
O467 Tb456 2.347 . S
O467 C471 1.259 . S
O468 Eu457 2.418 . S
O468 C471 1.265 . S
O469 Eu457 2.384 . S
O469 C478 1.255 . S
O470 Tb456 2.366 . S
O470 C478 1.265 . S
C471 O467 1.259 . S
C471 O468 1.265 . S
O472 Eu457 2.479 . S
O472 C487 1.238 . S
O473 Eu457 2.471 . S
O473 C487 1.247 . S
O474 Eu457 2.347 . S
O474 C458 1.259 . S
O475 Tb456 2.418 . S
O475 C458 1.265 . S
O476 Tb456 2.384 . S
O476 C459 1.255 . S
O477 Eu457 2.366 . S
O477 C459 1.265 . S
C478 O469 1.255 . S
C478 O470 1.265 . S
O479 Tb456 2.479 . S
O479 C466 1.238 . S
O480 Tb456 2.471 . S
O480 C466 1.247 . S
C481 C484 1.380 . S
C481 C485 1.374 . S
C481 C487 1.507 . S
C482 C483 1.387 . S
C482 C486 1.391 . S
C483 C482 1.387 . S
C483 C484 1.384 . S
C483 H492 0.930 . S
C484 C481 1.380 . S
C484 C483 1.384 . S
C484 H493 0.931 . S
C485 C481 1.374 . S
C485 C486 1.390 . S
C485 H494 0.930 . S
C486 C482 1.391 . S
C486 C485 1.390 . S
C486 H495 0.930 . S
C487 Eu457 2.825 . S
C487 O472 1.238 . S
C487 O473 1.247 . S
C487 C481 1.507 . S
H488 C461 0.930 . S
H489 C462 0.931 . S
H490 C463 0.930 . S
H491 C464 0.930 . S
H492 C483 0.930 . S
H493 C484 0.931 . S
H494 C485 0.930 . S
H495 C486 0.930 . S
Tb496 C506 2.825 . S
Tb496 O507 2.347 . S
Tb496 O510 2.366 . S
Tb496 O515 2.418 . S
Tb496 O516 2.384 . S
Tb496 O519 2.479 . S
Tb496 O520 2.471 . S
Eu497 O508 2.418 . S
Eu497 O509 2.384 . S
Eu497 O512 2.479 . S
Eu497 O513 2.471 . S
Eu497 O514 2.347 . S
Eu497 O517 2.366 . S
Eu497 C527 2.825 . S
C498 O514 1.259 . S
C498 O515 1.265 . S
C499 O516 1.255 . S
C499 O517 1.265 . S
C500 C502 1.380 . S
C500 C503 1.374 . S
C500 C506 1.507 . S
C501 C502 1.384 . S
C501 C505 1.387 . S
C501 H528 0.930 . S
C502 C500 1.380 . S
C502 C501 1.384 . S
C502 H529 0.931 . S
C503 C500 1.374 . S
C503 C504 1.390 . S
C503 H530 0.930 . S
C504 C503 1.390 . S
C504 C505 1.391 . S
C504 H531 0.930 . S
C505 C501 1.387 . S
C505 C504 1.391 . S
C506 Tb496 2.825 . S
C506 C500 1.507 . S
C506 O519 1.238 . S
C506 O520 1.247 . S
O507 Tb496 2.347 . S
O507 C511 1.259 . S
O508 Eu497 2.418 . S
O508 C511 1.265 . S
O509 Eu497 2.384 . S
O509 C518 1.255 . S
O510 Tb496 2.366 . S
O510 C518 1.265 . S
C511 O507 1.259 . S
C511 O508 1.265 . S
O512 Eu497 2.479 . S
O512 C527 1.238 . S
O513 Eu497 2.471 . S
O513 C527 1.247 . S
O514 Eu497 2.347 . S
O514 C498 1.259 . S
O515 Tb496 2.418 . S
O515 C498 1.265 . S
O516 Tb496 2.384 . S
O516 C499 1.255 . S
O517 Eu497 2.366 . S
O517 C499 1.265 . S
C518 O509 1.255 . S
C518 O510 1.265 . S
O519 Tb496 2.479 . S
O519 C506 1.238 . S
O520 Tb496 2.471 . S
O520 C506 1.247 . S
C521 C524 1.380 . S
C521 C525 1.374 . S
C521 C527 1.507 . S
C522 C523 1.387 . S
C522 C526 1.391 . S
C523 C522 1.387 . S
C523 C524 1.384 . S
C523 H532 0.930 . S
C524 C521 1.380 . S
C524 C523 1.384 . S
C524 H533 0.931 . S
C525 C521 1.374 . S
C525 C526 1.390 . S
C525 H534 0.930 . S
C526 C522 1.391 . S
C526 C525 1.390 . S
C526 H535 0.930 . S
C527 Eu497 2.825 . S
C527 O512 1.238 . S
C527 O513 1.247 . S
C527 C521 1.507 . S
H528 C501 0.930 . S
H529 C502 0.931 . S
H530 C503 0.930 . S
H531 C504 0.930 . S
H532 C523 0.930 . S
H533 C524 0.931 . S
H534 C525 0.930 . S
H535 C526 0.930 . S
Tb536 C546 2.825 . S
Tb536 O547 2.347 . S
Tb536 O550 2.366 . S
Tb536 O555 2.418 . S
Tb536 O556 2.384 . S
Tb536 O559 2.479 . S
Tb536 O560 2.471 . S
Eu537 O548 2.418 . S
Eu537 O549 2.384 . S
Eu537 O552 2.479 . S
Eu537 O553 2.471 . S
Eu537 O554 2.347 . S
Eu537 O557 2.366 . S
Eu537 C567 2.825 . S
C538 O554 1.259 . S
C538 O555 1.265 . S
C539 O556 1.255 . S
C539 O557 1.265 . S
C540 C542 1.380 . S
C540 C543 1.374 . S
C540 C546 1.507 . S
C541 C542 1.384 . S
C541 C545 1.387 . S
C541 H568 0.930 . S
C542 C540 1.380 . S
C542 C541 1.384 . S
C542 H569 0.931 . S
C543 C540 1.374 . S
C543 C544 1.390 . S
C543 H570 0.930 . S
C544 C543 1.390 . S
C544 C545 1.391 . S
C544 H571 0.930 . S
C545 C541 1.387 . S
C545 C544 1.391 . S
C546 Tb536 2.825 . S
C546 C540 1.507 . S
C546 O559 1.238 . S
C546 O560 1.247 . S
O547 Tb536 2.347 . S
O547 C551 1.259 . S
O548 Eu537 2.418 . S
O548 C551 1.265 . S
O549 Eu537 2.384 . S
O549 C558 1.255 . S
O550 Tb536 2.366 . S
O550 C558 1.265 . S
C551 O547 1.259 . S
C551 O548 1.265 . S
O552 Eu537 2.479 . S
O552 C567 1.238 . S
O553 Eu537 2.471 . S
O553 C567 1.247 . S
O554 Eu537 2.347 . S
O554 C538 1.259 . S
O555 Tb536 2.418 . S
O555 C538 1.265 . S
O556 Tb536 2.384 . S
O556 C539 1.255 . S
O557 Eu537 2.366 . S
O557 C539 1.265 . S
C558 O549 1.255 . S
C558 O550 1.265 . S
O559 Tb536 2.479 . S
O559 C546 1.238 . S
O560 Tb536 2.471 . S
O560 C546 1.247 . S
C561 C564 1.380 . S
C561 C565 1.374 . S
C561 C567 1.507 . S
C562 C563 1.387 . S
C562 C566 1.391 . S
C563 C562 1.387 . S
C563 C564 1.384 . S
C563 H572 0.930 . S
C564 C561 1.380 . S
C564 C563 1.384 . S
C564 H573 0.931 . S
C565 C561 1.374 . S
C565 C566 1.390 . S
C565 H574 0.930 . S
C566 C562 1.391 . S
C566 C565 1.390 . S
C566 H575 0.930 . S
C567 Eu537 2.825 . S
C567 O552 1.238 . S
C567 O553 1.247 . S
C567 C561 1.507 . S
H568 C541 0.930 . S
H569 C542 0.931 . S
H570 C543 0.930 . S
H571 C544 0.930 . S
H572 C563 0.930 . S
H573 C564 0.931 . S
H574 C565 0.930 . S
H575 C566 0.930 . S
H576 C582 0.930 . S
H577 C585 0.930 . S
H578 C586 0.930 . S
H579 C587 0.930 . S
H580 C590 0.930 . S
H581 C591 0.930 . S
C582 H576 0.930 . S
C582 C583 1.355 . S
C582 C584 1.415 . S
C583 C582 1.355 . S
C583 C585 1.419 . S
C584 C582 1.415 . S
C584 C589 1.425 . S
C584 C591 1.409 . S
C585 H577 0.930 . S
C585 C583 1.419 . S
C585 C586 1.362 . S
C586 H578 0.930 . S
C586 C585 1.362 . S
C586 C589 1.409 . S
C587 H579 0.930 . S
C587 C588 1.355 . S
C587 C589 1.415 . S
C588 C587 1.355 . S
C588 C590 1.419 . S
C589 C584 1.425 . S
C589 C586 1.409 . S
C589 C587 1.415 . S
C590 H580 0.930 . S
C590 C588 1.419 . S
C590 C591 1.362 . S
C591 H581 0.930 . S
C591 C584 1.409 . S
C591 C590 1.362 . S
H592 C598 0.930 . S
H593 C601 0.930 . S
H594 C602 0.930 . S
H595 C603 0.930 . S
H596 C606 0.930 . S
H597 C607 0.930 . S
C598 H592 0.930 . S
C598 C599 1.355 . S
C598 C600 1.415 . S
C599 C598 1.355 . S
C599 C601 1.419 . S
C600 C598 1.415 . S
C600 C605 1.425 . S
C600 C607 1.409 . S
C601 H593 0.930 . S
C601 C599 1.419 . S
C601 C602 1.362 . S
C602 H594 0.930 . S
C602 C601 1.362 . S
C602 C605 1.409 . S
C603 H595 0.930 . S
C603 C604 1.355 . S
C603 C605 1.415 . S
C604 C603 1.355 . S
C604 C606 1.419 . S
C605 C600 1.425 . S
C605 C602 1.409 . S
C605 C603 1.415 . S
C606 H596 0.930 . S
C606 C604 1.419 . S
C606 C607 1.362 . S
C607 H597 0.930 . S
C607 C600 1.409 . S
C607 C606 1.362 . S
H608 C614 0.930 . S
H609 C617 0.930 . S
H610 C618 0.930 . S
H611 C619 0.930 . S
H612 C622 0.930 . S
H613 C623 0.930 . S
C614 H608 0.930 . S
C614 C615 1.355 . S
C614 C616 1.415 . S
C615 C614 1.355 . S
C615 C617 1.419 . S
C616 C614 1.415 . S
C616 C621 1.425 . S
C616 C623 1.409 . S
C617 H609 0.930 . S
C617 C615 1.419 . S
C617 C618 1.362 . S
C618 H610 0.930 . S
C618 C617 1.362 . S
C618 C621 1.409 . S
C619 H611 0.930 . S
C619 C620 1.355 . S
C619 C621 1.415 . S
C620 C619 1.355 . S
C620 C622 1.419 . S
C621 C616 1.425 . S
C621 C618 1.409 . S
C621 C619 1.415 . S
C622 H612 0.930 . S
C622 C620 1.419 . S
C622 C623 1.362 . S
C623 H613 0.930 . S
C623 C616 1.409 . S
C623 C622 1.362 . S
H624 C630 0.974 . S
H625 C633 0.930 . S
H626 C634 0.930 . S
H627 C635 0.930 . S
H628 C638 0.930 . S
H629 C639 0.930 . S
C630 H624 0.974 . S
C630 C631 1.355 . S
C630 C632 1.415 . S
C631 C630 1.355 . S
C631 C633 1.419 . S
C632 C630 1.415 . S
C632 C637 1.425 . S
C632 C639 1.409 1_556 S
C633 H625 0.930 . S
C633 C631 1.419 . S
C633 C634 1.362 . S
C634 H626 0.930 . S
C634 C633 1.362 . S
C634 C637 1.409 . S
C635 H627 0.930 . S
C635 C636 1.355 . S
C635 C637 1.415 . S
C636 C635 1.355 . S
C636 C638 1.419 1_556 S
C637 C632 1.425 . S
C637 C634 1.409 . S
C637 C635 1.415 . S
C638 H628 0.930 . S
C638 C636 1.419 1_554 S
C638 C639 1.362 . S
C639 H629 0.930 . S
C639 C632 1.409 1_554 S
C639 C638 1.362 . S
H640 C646 0.930 . S
H641 C649 0.930 . S
H642 C650 0.930 . S
H643 C651 0.930 1_554 S
H644 C654 0.930 . S
H645 C655 0.930 . S
C646 H640 0.930 . S
C646 C647 1.355 . S
C646 C648 1.415 . S
C647 C646 1.355 . S
C647 C649 1.419 . S
C648 C646 1.415 . S
C648 C653 1.425 . S
C648 C655 1.409 . S
C649 H641 0.930 . S
C649 C647 1.419 . S
C649 C650 1.362 . S
C650 H642 0.930 . S
C650 C649 1.362 . S
C650 C653 1.409 . S
C651 H643 0.930 1_556 S
C651 C652 1.355 . S
C651 C653 1.415 . S
C652 C651 1.355 . S
C652 C654 1.419 . S
C653 C648 1.425 . S
C653 C650 1.409 . S
C653 C651 1.415 . S
C654 H644 0.930 . S
C654 C652 1.419 . S
C654 C655 1.362 . S
C655 H645 0.930 . S
C655 C648 1.409 . S
C655 C654 1.362 . S
H656 C662 0.930 1_554 S
H657 C665 0.930 . S
H658 C666 0.930 . S
H659 C667 0.930 . S
H660 C670 0.930 . S
H661 C671 0.930 . S
C662 H656 0.930 1_556 S
C662 C663 1.355 . S
C662 C664 1.415 . S
C663 C662 1.355 . S
C663 C665 1.419 . S
C664 C662 1.415 . S
C664 C669 1.425 . S
C664 C671 1.409 1_556 S
C665 H657 0.930 . S
C665 C663 1.419 . S
C665 C666 1.362 . S
C666 H658 0.930 . S
C666 C665 1.362 . S
C666 C669 1.409 . S
C667 H659 0.930 . S
C667 C668 1.355 . S
C667 C669 1.415 . S
C668 C667 1.355 . S
C668 C670 1.419 1_556 S
C669 C664 1.425 . S
C669 C666 1.409 . S
C669 C667 1.415 . S
C670 H660 0.930 . S
C670 C668 1.419 1_554 S
C670 C671 1.362 . S
C671 H661 0.930 . S
C671 C664 1.409 1_554 S
C671 C670 1.362 . S
H672 C678 0.930 . S
H673 C681 0.930 . S
H674 C682 0.930 1_554 S
H675 C683 0.923 1_554 S
H676 C686 0.930 . S
H677 C687 0.930 . S
C678 H672 0.930 . S
C678 C679 1.355 . S
C678 C680 1.415 . S
C679 C678 1.355 . S
C679 C681 1.419 . S
C680 C678 1.415 . S
C680 C685 1.425 . S
C680 C687 1.409 . S
C681 H673 0.930 . S
C681 C679 1.419 . S
C681 C682 1.362 . S
C682 H674 0.930 1_556 S
C682 C681 1.362 . S
C682 C685 1.409 . S
C683 H675 0.923 1_556 S
C683 C684 1.355 . S
C683 C685 1.415 . S
C684 C683 1.355 . S
C684 C686 1.419 . S
C685 C680 1.425 . S
C685 C682 1.409 . S
C685 C683 1.415 . S
C686 H676 0.930 . S
C686 C684 1.419 . S
C686 C687 1.362 . S
C687 H677 0.930 . S
C687 C680 1.409 . S
C687 C686 1.362 . S
H688 C694 0.930 . S
H689 C697 0.930 . S
H690 C698 0.930 . S
H691 C699 0.930 . S
H692 C702 0.930 . S
H693 C703 0.930 . S
C694 H688 0.930 . S
C694 C695 1.355 . S
C694 C696 1.415 . S
C695 C694 1.355 . S
C695 C697 1.419 . S
C696 C694 1.415 . S
C696 C701 1.425 . S
C696 C703 1.409 . S
C697 H689 0.930 . S
C697 C695 1.419 . S
C697 C698 1.362 . S
C698 H690 0.930 . S
C698 C697 1.362 . S
C698 C701 1.409 . S
C699 H691 0.930 . S
C699 C700 1.355 . S
C699 C701 1.415 . S
C700 C699 1.355 . S
C700 C702 1.419 . S
C701 C696 1.425 . S
C701 C698 1.409 . S
C701 C699 1.415 . S
C702 H692 0.930 . S
C702 C700 1.419 . S
C702 C703 1.362 . S
C703 H693 0.930 . S
C703 C696 1.409 . S
C703 C702 1.362 . S
H704 C710 0.930 . S
H705 C713 0.930 . S
H706 C714 0.928 1_554 S
H707 C715 0.930 . S
H708 C718 0.930 . S
H709 C719 0.930 . S
C710 H704 0.930 . S
C710 C711 1.355 . S
C710 C712 1.415 . S
C711 C710 1.355 . S
C711 C713 1.419 . S
C712 C710 1.415 . S
C712 C717 1.425 . S
C712 C719 1.409 . S
C713 H705 0.930 . S
C713 C711 1.419 . S
C713 C714 1.363 . S
C714 H706 0.928 1_556 S
C714 C713 1.363 . S
C714 C717 1.412 . S
C715 H707 0.930 . S
C715 C716 1.351 1_554 S
C715 C717 1.415 1_554 S
C716 C715 1.351 1_556 S
C716 C718 1.424 . S
C717 C712 1.425 . S
C717 C714 1.412 . S
C717 C715 1.415 1_556 S
C718 H708 0.930 . S
C718 C716 1.424 . S
C718 C719 1.362 . S
C719 H709 0.930 . S
C719 C712 1.409 . S
C719 C718 1.362 . S
H720 C726 0.930 . S
H721 C729 0.930 . S
H722 C730 0.930 . S
H723 C731 0.930 . S
H724 C734 0.930 1_556 S
H725 C735 0.930 1_556 S
C726 H720 0.930 . S
C726 C727 1.355 . S
C726 C728 1.415 . S
C727 C726 1.355 . S
C727 C729 1.419 . S
C728 C726 1.415 . S
C728 C733 1.425 . S
C728 C735 1.409 . S
C729 H721 0.930 . S
C729 C727 1.419 . S
C729 C730 1.362 . S
C730 H722 0.930 . S
C730 C729 1.362 . S
C730 C733 1.409 . S
C731 H723 0.930 . S
C731 C732 1.355 . S
C731 C733 1.415 . S
C732 C731 1.355 . S
C732 C734 1.419 . S
C733 C728 1.425 . S
C733 C730 1.409 . S
C733 C731 1.415 . S
C734 H724 0.930 1_554 S
C734 C732 1.419 . S
C734 C735 1.362 . S
C735 H725 0.930 1_554 S
C735 C728 1.409 . S
C735 C734 1.362 . S
H736 C742 0.930 . S
H737 C745 0.930 . S
H738 C746 0.930 . S
H739 C747 0.930 . S
H740 C750 0.930 . S
H741 C751 0.930 . S
C742 H736 0.930 . S
C742 C743 1.355 . S
C742 C744 1.415 . S
C743 C742 1.355 . S
C743 C745 1.419 . S
C744 C742 1.415 . S
C744 C749 1.425 . S
C744 C751 1.409 . S
C745 H737 0.930 . S
C745 C743 1.419 . S
C745 C746 1.362 . S
C746 H738 0.930 . S
C746 C745 1.362 . S
C746 C749 1.409 . S
C747 H739 0.930 . S
C747 C748 1.355 . S
C747 C749 1.415 . S
C748 C747 1.355 . S
C748 C750 1.419 . S
C749 C744 1.425 . S
C749 C746 1.409 . S
C749 C747 1.415 . S
C750 H740 0.930 . S
C750 C748 1.419 . S
C750 C751 1.362 . S
C751 H741 0.930 . S
C751 C744 1.409 . S
C751 C750 1.362 . S
H752 C758 0.930 . S
H753 C761 0.930 1_556 S
H754 C762 0.930 . S
H755 C763 0.930 1_556 S
H756 C766 0.930 . S
H757 C767 0.930 . S
C758 H752 0.930 . S
C758 C759 1.355 . S
C758 C760 1.415 . S
C759 C758 1.355 . S
C759 C761 1.419 . S
C760 C758 1.415 . S
C760 C765 1.425 . S
C760 C767 1.409 . S
C761 H753 0.930 1_554 S
C761 C759 1.419 . S
C761 C762 1.362 1_554 S
C762 H754 0.930 . S
C762 C761 1.362 1_556 S
C762 C765 1.409 1_556 S
C763 H755 0.930 1_554 S
C763 C764 1.355 . S
C763 C765 1.415 . S
C764 C763 1.355 . S
C764 C766 1.419 . S
C765 C760 1.425 . S
C765 C762 1.409 1_554 S
C765 C763 1.415 . S
C766 H756 0.930 . S
C766 C764 1.419 . S
C766 C767 1.362 . S
C767 H757 0.930 . S
C767 C760 1.409 . S
C767 C766 1.362 . S
H768 C774 0.930 . S
H769 C777 0.930 . S
H770 C778 0.930 . S
H771 C779 0.930 . S
H772 C782 0.930 . S
H773 C783 0.930 . S
C774 H768 0.930 . S
C774 C775 1.355 . S
C774 C776 1.415 . S
C775 C774 1.355 . S
C775 C777 1.419 . S
C776 C774 1.415 . S
C776 C781 1.425 . S
C776 C783 1.409 1_655 S
C777 H769 0.930 . S
C777 C775 1.419 . S
C777 C778 1.362 . S
C778 H770 0.930 . S
C778 C777 1.362 . S
C778 C781 1.409 . S
C779 H771 0.930 . S
C779 C780 1.355 . S
C779 C781 1.415 1_455 S
C780 C779 1.355 . S
C780 C782 1.419 . S
C781 C776 1.425 . S
C781 C778 1.409 . S
C781 C779 1.415 1_655 S
C782 H772 0.930 . S
C782 C780 1.419 . S
C782 C783 1.362 . S
C783 H773 0.930 . S
C783 C776 1.409 1_455 S
C783 C782 1.362 . S
H784 C790 0.930 . S
H785 C793 0.930 . S
H786 C794 0.930 . S
H787 C795 0.930 . S
H788 C798 0.930 . S
H789 C799 0.930 . S
C790 H784 0.930 . S
C790 C791 1.355 . S
C790 C792 1.415 . S
C791 C790 1.355 . S
C791 C793 1.419 . S
C792 C790 1.415 . S
C792 C797 1.425 . S
C792 C799 1.409 . S
C793 H785 0.930 . S
C793 C791 1.419 . S
C793 C794 1.362 . S
C794 H786 0.930 . S
C794 C793 1.362 . S
C794 C797 1.409 . S
C795 H787 0.930 . S
C795 C796 1.355 . S
C795 C797 1.415 . S
C796 C795 1.355 . S
C796 C798 1.419 . S
C797 C792 1.425 . S
C797 C794 1.409 . S
C797 C795 1.415 . S
C798 H788 0.930 . S
C798 C796 1.419 . S
C798 C799 1.362 . S
C799 H789 0.930 . S
C799 C792 1.409 . S
C799 C798 1.362 . S
H800 C806 0.930 . S
H801 C809 0.930 . S
H802 C810 0.930 . S
H803 C811 0.930 . S
H804 C814 0.930 . S
H805 C815 0.936 . S
C806 H800 0.930 . S
C806 C807 1.355 . S
C806 C808 1.415 . S
C807 C806 1.355 . S
C807 C809 1.419 . S
C808 C806 1.415 . S
C808 C813 1.425 . S
C808 C815 1.409 1_545 S
C809 H801 0.930 . S
C809 C807 1.419 . S
C809 C810 1.362 . S
C810 H802 0.930 . S
C810 C809 1.362 . S
C810 C813 1.409 . S
C811 H803 0.930 . S
C811 C812 1.355 . S
C811 C813 1.415 1_565 S
C812 C811 1.355 . S
C812 C814 1.419 . S
C813 C808 1.425 . S
C813 C810 1.409 . S
C813 C811 1.415 1_545 S
C814 H804 0.930 . S
C814 C812 1.419 . S
C814 C815 1.362 . S
C815 H805 0.936 . S
C815 C808 1.409 1_565 S
C815 C814 1.362 . S
H816 C822 0.930 . S
H817 C825 0.930 . S
H818 C826 0.930 . S
H819 C827 0.930 . S
H820 C830 0.930 . S
H821 C831 0.930 . S
C822 H816 0.930 . S
C822 C823 1.355 . S
C822 C824 1.415 . S
C823 C822 1.355 . S
C823 C825 1.419 . S
C824 C822 1.415 . S
C824 C829 1.425 . S
C824 C831 1.409 . S
C825 H817 0.930 . S
C825 C823 1.419 . S
C825 C826 1.362 . S
C826 H818 0.930 . S
C826 C825 1.362 . S
C826 C829 1.409 . S
C827 H819 0.930 . S
C827 C828 1.355 . S
C827 C829 1.415 . S
C828 C827 1.355 . S
C828 C830 1.419 . S
C829 C824 1.425 . S
C829 C826 1.409 . S
C829 C827 1.415 . S
C830 H820 0.930 . S
C830 C828 1.419 . S
C830 C831 1.362 . S
C831 H821 0.930 . S
C831 C824 1.409 . S
C831 C830 1.362 . S
H832 C838 0.930 . S
H833 C841 0.930 . S
H834 C842 0.930 . S
H835 C843 0.930 . S
H836 C846 0.930 . S
H837 C847 0.930 . S
C838 H832 0.930 . S
C838 C839 1.355 . S
C838 C840 1.415 . S
C839 C838 1.355 . S
C839 C841 1.419 . S
C840 C838 1.415 . S
C840 C845 1.425 . S
C840 C847 1.409 . S
C841 H833 0.930 . S
C841 C839 1.419 . S
C841 C842 1.362 . S
C842 H834 0.930 . S
C842 C841 1.362 . S
C842 C845 1.409 . S
C843 H835 0.930 . S
C843 C844 1.355 . S
C843 C845 1.415 . S
C844 C843 1.355 . S
C844 C846 1.419 . S
C845 C840 1.425 . S
C845 C842 1.409 . S
C845 C843 1.415 . S
C846 H836 0.930 . S
C846 C844 1.419 . S
C846 C847 1.362 . S
C847 H837 0.930 . S
C847 C840 1.409 . S
C847 C846 1.362 . S
H848 C854 0.930 . S
H849 C857 0.930 . S
H850 C858 0.930 . S
H851 C859 0.930 . S
H852 C862 0.930 . S
H853 C863 0.930 . S
C854 H848 0.930 . S
C854 C855 1.355 . S
C854 C856 1.415 . S
C855 C854 1.355 . S
C855 C857 1.419 . S
C856 C854 1.415 . S
C856 C861 1.425 . S
C856 C863 1.409 . S
C857 H849 0.930 . S
C857 C855 1.419 . S
C857 C858 1.362 . S
C858 H850 0.930 . S
C858 C857 1.362 . S
C858 C861 1.409 . S
C859 H851 0.930 . S
C859 C860 1.355 . S
C859 C861 1.415 . S
C860 C859 1.355 . S
C860 C862 1.419 . S
C861 C856 1.425 . S
C861 C858 1.409 . S
C861 C859 1.415 . S
C862 H852 0.930 . S
C862 C860 1.419 . S
C862 C863 1.362 . S
C863 H853 0.930 . S
C863 C856 1.409 . S
C863 C862 1.362 . S
H864 C870 0.930 . S
H865 C873 0.930 . S
H866 C874 0.930 . S
H867 C875 0.930 . S
H868 C878 0.930 . S
H869 C879 0.930 . S
C870 H864 0.930 . S
C870 C871 1.355 . S
C870 C872 1.415 . S
C871 C870 1.355 . S
C871 C873 1.419 . S
C872 C870 1.415 . S
C872 C877 1.425 . S
C872 C879 1.409 . S
C873 H865 0.930 . S
C873 C871 1.419 . S
C873 C874 1.362 . S
C874 H866 0.930 . S
C874 C873 1.362 . S
C874 C877 1.409 . S
C875 H867 0.930 . S
C875 C876 1.355 . S
C875 C877 1.415 . S
C876 C875 1.355 . S
C876 C878 1.419 . S
C877 C872 1.425 . S
C877 C874 1.409 . S
C877 C875 1.415 . S
C878 H868 0.930 . S
C878 C876 1.419 . S
C878 C879 1.362 . S
C879 H869 0.930 . S
C879 C872 1.409 . S
C879 C878 1.362 . S
H880 C886 0.930 . S
H881 C889 0.930 . S
H882 C890 0.930 . S
H883 C891 0.930 . S
H884 C894 0.930 . S
H885 C895 0.930 . S
C886 H880 0.930 . S
C886 C887 1.355 . S
C886 C888 1.415 . S
C887 C886 1.355 . S
C887 C889 1.419 . S
C888 C886 1.415 . S
C888 C893 1.425 . S
C888 C895 1.409 . S
C889 H881 0.930 . S
C889 C887 1.419 . S
C889 C890 1.362 . S
C890 H882 0.930 . S
C890 C889 1.362 . S
C890 C893 1.409 . S
C891 H883 0.930 . S
C891 C892 1.355 . S
C891 C893 1.415 . S
C892 C891 1.355 . S
C892 C894 1.419 . S
C893 C888 1.425 . S
C893 C890 1.409 . S
C893 C891 1.415 . S
C894 H884 0.930 . S
C894 C892 1.419 . S
C894 C895 1.362 . S
C895 H885 0.930 . S
C895 C888 1.409 . S
C895 C894 1.362 . S
H896 C902 0.930 . S
H897 C905 0.930 . S
H898 C906 0.930 . S
H899 C907 0.930 . S
H900 C910 0.930 . S
H901 C911 0.930 . S
C902 H896 0.930 . S
C902 C903 1.355 . S
C902 C904 1.415 . S
C903 C902 1.355 . S
C903 C905 1.419 . S
C904 C902 1.415 . S
C904 C909 1.425 . S
C904 C911 1.409 . S
C905 H897 0.930 . S
C905 C903 1.419 . S
C905 C906 1.362 . S
C906 H898 0.930 . S
C906 C905 1.362 . S
C906 C909 1.409 . S
C907 H899 0.930 . S
C907 C908 1.355 . S
C907 C909 1.415 . S
C908 C907 1.355 . S
C908 C910 1.419 . S
C909 C904 1.425 . S
C909 C906 1.409 . S
C909 C907 1.415 . S
C910 H900 0.930 . S
C910 C908 1.419 . S
C910 C911 1.362 . S
C911 H901 0.930 . S
C911 C904 1.409 . S
C911 C910 1.362 . S
H912 C918 0.930 . S
H913 C921 0.930 . S
H914 C922 0.930 . S
H915 C923 0.930 . S
H916 C926 0.930 . S
H917 C927 0.930 . S
C918 H912 0.930 . S
C918 C919 1.355 . S
C918 C920 1.415 1_545 S
C919 C918 1.355 . S
C919 C921 1.419 . S
C920 C918 1.415 1_565 S
C920 C925 1.425 . S
C920 C927 1.409 . S
C921 H913 0.930 . S
C921 C919 1.419 . S
C921 C922 1.362 1_545 S
C922 H914 0.930 . S
C922 C921 1.362 1_565 S
C922 C925 1.409 . S
C923 H915 0.930 . S
C923 C924 1.355 . S
C923 C925 1.415 . S
C924 C923 1.355 . S
C924 C926 1.419 . S
C925 C920 1.425 . S
C925 C922 1.409 . S
C925 C923 1.415 . S
C926 H916 0.930 . S
C926 C924 1.419 . S
C926 C927 1.362 . S
C927 H917 0.930 . S
C927 C920 1.409 . S
C927 C926 1.362 . S
H928 C934 0.930 . S
H929 C937 0.961 . S
H930 C938 0.930 . S
H931 C939 0.930 . S
H932 C942 0.930 . S
H933 C943 0.930 . S
C934 H928 0.930 . S
C934 C935 1.355 . S
C934 C936 1.415 . S
C935 C934 1.355 . S
C935 C937 1.423 1_455 S
C936 C934 1.415 . S
C936 C941 1.425 . S
C936 C943 1.409 . S
C937 H929 0.961 . S
C937 C935 1.423 1_655 S
C937 C938 1.329 1_655 S
C938 H930 0.930 . S
C938 C937 1.329 1_455 S
C938 C941 1.409 . S
C939 H931 0.930 . S
C939 C940 1.355 . S
C939 C941 1.415 . S
C940 C939 1.355 . S
C940 C942 1.419 . S
C941 C936 1.425 . S
C941 C938 1.409 . S
C941 C939 1.415 . S
C942 H932 0.930 . S
C942 C940 1.419 . S
C942 C943 1.362 . S
C943 H933 0.930 . S
C943 C936 1.409 . S
C943 C942 1.362 . S
H944 C950 0.930 . S
H945 C953 0.930 . S
H946 C954 0.930 . S
H947 C955 0.930 . S
H948 C958 0.930 . S
H949 C959 0.930 . S
C950 H944 0.930 . S
C950 C951 1.355 . S
C950 C952 1.415 . S
C951 C950 1.355 . S
C951 C953 1.419 . S
C952 C950 1.415 . S
C952 C957 1.425 . S
C952 C959 1.409 . S
C953 H945 0.930 . S
C953 C951 1.419 . S
C953 C954 1.362 . S
C954 H946 0.930 . S
C954 C953 1.362 . S
C954 C957 1.409 . S
C955 H947 0.930 . S
C955 C956 1.355 . S
C955 C957 1.415 . S
C956 C955 1.355 . S
C956 C958 1.419 . S
C957 C952 1.425 . S
C957 C954 1.409 . S
C957 C955 1.415 . S
C958 H948 0.930 . S
C958 C956 1.419 . S
C958 C959 1.362 . S
C959 H949 0.930 . S
C959 C952 1.409 . S
C959 C958 1.362 . S
H960 C966 0.930 . S
H961 C969 0.930 . S
H962 C970 0.930 . S
H963 C971 0.930 . S
H964 C974 0.930 . S
H965 C975 0.930 . S
C966 H960 0.930 . S
C966 C967 1.355 . S
C966 C968 1.415 . S
C967 C966 1.355 . S
C967 C969 1.419 . S
C968 C966 1.415 . S
C968 C973 1.425 . S
C968 C975 1.409 . S
C969 H961 0.930 . S
C969 C967 1.419 . S
C969 C970 1.362 . S
C970 H962 0.930 . S
C970 C969 1.362 . S
C970 C973 1.409 . S
C971 H963 0.930 . S
C971 C972 1.355 . S
C971 C973 1.415 . S
C972 C971 1.355 . S
C972 C974 1.419 . S
C973 C968 1.425 . S
C973 C970 1.409 . S
C973 C971 1.415 . S
C974 H964 0.930 . S
C974 C972 1.419 . S
C974 C975 1.362 . S
C975 H965 0.930 . S
C975 C968 1.409 . S
C975 C974 1.362 . S
H976 C982 0.930 . S
H977 C985 0.930 . S
H978 C986 0.930 . S
H979 C987 0.930 . S
H980 C990 0.930 . S
H981 C991 0.930 . S
C982 H976 0.930 . S
C982 C983 1.355 . S
C982 C984 1.415 . S
C983 C982 1.355 . S
C983 C985 1.419 . S
C984 C982 1.415 . S
C984 C989 1.425 . S
C984 C991 1.409 . S
C985 H977 0.930 . S
C985 C983 1.419 . S
C985 C986 1.362 . S
C986 H978 0.930 . S
C986 C985 1.362 . S
C986 C989 1.409 . S
C987 H979 0.930 . S
C987 C988 1.355 . S
C987 C989 1.415 . S
C988 C987 1.355 . S
C988 C990 1.419 . S
C989 C984 1.425 . S
C989 C986 1.409 . S
C989 C987 1.415 . S
C990 H980 0.930 . S
C990 C988 1.419 . S
C990 C991 1.362 . S
C991 H981 0.930 . S
C991 C984 1.409 . S
C991 C990 1.362 . S
H992 C998 0.930 . S
H993 C1001 0.930 . S
H994 C1002 0.930 . S
H995 C1003 0.930 . S
H996 C1006 0.930 . S
H997 C1007 0.930 . S
C998 H992 0.930 . S
C998 C999 1.355 . S
C998 C1000 1.415 . S
C999 C998 1.355 . S
C999 C1001 1.419 . S
C1000 C998 1.415 . S
C1000 C1005 1.425 . S
C1000 C1007 1.409 . S
C1001 H993 0.930 . S
C1001 C999 1.419 . S
C1001 C1002 1.362 . S
C1002 H994 0.930 . S
C1002 C1001 1.362 . S
C1002 C1005 1.409 . S
C1003 H995 0.930 . S
C1003 C1004 1.355 . S
C1003 C1005 1.415 . S
C1004 C1003 1.355 . S
C1004 C1006 1.419 . S
C1005 C1000 1.425 . S
C1005 C1002 1.409 . S
C1005 C1003 1.415 . S
C1006 H996 0.930 . S
C1006 C1004 1.419 . S
C1006 C1007 1.362 . S
C1007 H997 0.930 . S
C1007 C1000 1.409 . S
C1007 C1006 1.362 . S
H1008 C1014 0.930 . S
H1009 C1017 0.930 . S
H1010 C1018 0.930 . S
H1011 C1019 0.930 . S
H1012 C1022 0.930 . S
H1013 C1023 0.930 . S
C1014 H1008 0.930 . S
C1014 C1015 1.355 . S
C1014 C1016 1.415 . S
C1015 C1014 1.355 . S
C1015 C1017 1.419 . S
C1016 C1014 1.415 . S
C1016 C1021 1.425 . S
C1016 C1023 1.409 . S
C1017 H1009 0.930 . S
C1017 C1015 1.419 . S
C1017 C1018 1.362 . S
C1018 H1010 0.930 . S
C1018 C1017 1.362 . S
C1018 C1021 1.409 . S
C1019 H1011 0.930 . S
C1019 C1020 1.355 . S
C1019 C1021 1.415 1_545 S
C1020 C1019 1.355 . S
C1020 C1022 1.419 . S
C1021 C1016 1.425 . S
C1021 C1018 1.409 . S
C1021 C1019 1.415 1_565 S
C1022 H1012 0.930 . S
C1022 C1020 1.419 . S
C1022 C1023 1.362 1_545 S
C1023 H1013 0.930 . S
C1023 C1016 1.409 . S
C1023 C1022 1.362 1_565 S
H1024 C1030 0.930 . S
H1025 C1033 0.930 . S
H1026 C1034 0.930 . S
H1027 C1035 0.930 . S
H1028 C1038 0.930 . S
H1029 C1039 0.930 . S
C1030 H1024 0.930 . S
C1030 C1031 1.355 . S
C1030 C1032 1.415 . S
C1031 C1030 1.355 . S
C1031 C1033 1.419 . S
C1032 C1030 1.415 . S
C1032 C1037 1.424 . S
C1032 C1039 1.409 1_455 S
C1033 H1025 0.930 . S
C1033 C1031 1.419 . S
C1033 C1034 1.362 . S
C1034 H1026 0.930 . S
C1034 C1033 1.362 . S
C1034 C1037 1.438 . S
C1035 H1027 0.930 . S
C1035 C1036 1.355 . S
C1035 C1037 1.387 1_655 S
C1036 C1035 1.355 . S
C1036 C1038 1.419 . S
C1037 C1032 1.424 . S
C1037 C1034 1.438 . S
C1037 C1035 1.387 1_455 S
C1038 H1028 0.930 . S
C1038 C1036 1.419 . S
C1038 C1039 1.362 . S
C1039 H1029 0.930 . S
C1039 C1032 1.409 1_655 S
C1039 C1038 1.362 . S
H1040 C1046 0.930 . S
H1041 C1049 0.930 . S
H1042 C1050 0.930 . S
H1043 C1051 0.930 . S
H1044 C1054 0.930 . S
H1045 C1055 0.930 . S
C1046 H1040 0.930 . S
C1046 C1047 1.355 . S
C1046 C1048 1.415 . S
C1047 C1046 1.355 . S
C1047 C1049 1.419 . S
C1048 C1046 1.415 . S
C1048 C1053 1.425 . S
C1048 C1055 1.409 . S
C1049 H1041 0.930 . S
C1049 C1047 1.419 . S
C1049 C1050 1.362 . S
C1050 H1042 0.930 . S
C1050 C1049 1.362 . S
C1050 C1053 1.409 . S
C1051 H1043 0.930 . S
C1051 C1052 1.355 . S
C1051 C1053 1.415 . S
C1052 C1051 1.355 . S
C1052 C1054 1.419 . S
C1053 C1048 1.425 . S
C1053 C1050 1.409 . S
C1053 C1051 1.415 . S
C1054 H1044 0.930 . S
C1054 C1052 1.419 . S
C1054 C1055 1.362 . S
C1055 H1045 0.930 . S
C1055 C1048 1.409 . S
C1055 C1054 1.362 . S
H1056 C1062 0.929 1_455 S
H1057 C1065 0.930 . S
H1058 C1066 0.930 . S
H1059 C1067 0.930 . S
H1060 C1070 0.930 . S
H1061 C1071 0.930 . S
C1062 H1056 0.929 1_655 S
C1062 C1063 1.355 1_655 S
C1062 C1064 1.415 . S
C1063 C1062 1.355 1_455 S
C1063 C1065 1.419 . S
C1064 C1062 1.415 . S
C1064 C1069 1.425 . S
C1064 C1071 1.409 . S
C1065 H1057 0.930 . S
C1065 C1063 1.419 . S
C1065 C1066 1.362 1_455 S
C1066 H1058 0.930 . S
C1066 C1065 1.362 1_655 S
C1066 C1069 1.409 . S
C1067 H1059 0.930 . S
C1067 C1068 1.355 . S
C1067 C1069 1.415 . S
C1068 C1067 1.355 . S
C1068 C1070 1.419 . S
C1069 C1064 1.425 . S
C1069 C1066 1.409 . S
C1069 C1067 1.415 . S
C1070 H1060 0.930 . S
C1070 C1068 1.419 . S
C1070 C1071 1.362 . S
C1071 H1061 0.930 . S
C1071 C1064 1.409 . S
C1071 C1070 1.362 . S
H1072 C1078 0.930 . S
H1073 C1081 0.930 . S
H1074 C1082 0.930 . S
H1075 C1083 0.930 . S
H1076 C1086 0.930 . S
H1077 C1087 0.930 . S
C1078 H1072 0.930 . S
C1078 C1079 1.355 . S
C1078 C1080 1.415 . S
C1079 C1078 1.355 . S
C1079 C1081 1.419 . S
C1080 C1078 1.415 . S
C1080 C1085 1.425 . S
C1080 C1087 1.409 . S
C1081 H1073 0.930 . S
C1081 C1079 1.419 . S
C1081 C1082 1.362 . S
C1082 H1074 0.930 . S
C1082 C1081 1.362 . S
C1082 C1085 1.409 . S
C1083 H1075 0.930 . S
C1083 C1084 1.355 . S
C1083 C1085 1.415 . S
C1084 C1083 1.355 . S
C1084 C1086 1.419 . S
C1085 C1080 1.425 . S
C1085 C1082 1.409 . S
C1085 C1083 1.415 . S
C1086 H1076 0.930 . S
C1086 C1084 1.419 . S
C1086 C1087 1.362 . S
C1087 H1077 0.930 . S
C1087 C1080 1.409 . S
C1087 C1086 1.362 . S
H1088 C1094 0.930 1_565 S
H1089 C1097 0.930 . S
H1090 C1098 0.930 . S
H1091 C1099 0.930 . S
H1092 C1102 0.930 . S
H1093 C1103 0.930 . S
C1094 H1088 0.930 1_545 S
C1094 C1095 1.355 1_545 S
C1094 C1096 1.415 . S
C1095 C1094 1.355 1_565 S
C1095 C1097 1.419 . S
C1096 C1094 1.415 . S
C1096 C1101 1.425 . S
C1096 C1103 1.409 . S
C1097 H1089 0.930 . S
C1097 C1095 1.419 . S
C1097 C1098 1.362 1_565 S
C1098 H1090 0.930 . S
C1098 C1097 1.362 1_545 S
C1098 C1101 1.409 . S
C1099 H1091 0.930 . S
C1099 C1100 1.355 . S
C1099 C1101 1.415 . S
C1100 C1099 1.355 . S
C1100 C1102 1.419 . S
C1101 C1096 1.425 . S
C1101 C1098 1.409 . S
C1101 C1099 1.415 . S
C1102 H1092 0.930 . S
C1102 C1100 1.419 . S
C1102 C1103 1.362 . S
C1103 H1093 0.930 . S
C1103 C1096 1.409 . S
C1103 C1102 1.362 . S
H1104 C1110 0.930 . S
H1105 C1113 0.930 . S
H1106 C1114 0.930 . S
H1107 C1115 0.930 . S
H1108 C1118 0.930 . S
H1109 C1119 0.930 . S
C1110 H1104 0.930 . S
C1110 C1111 1.355 . S
C1110 C1112 1.415 . S
C1111 C1110 1.355 . S
C1111 C1113 1.419 . S
C1112 C1110 1.415 . S
C1112 C1117 1.425 . S
C1112 C1119 1.409 . S
C1113 H1105 0.930 . S
C1113 C1111 1.419 . S
C1113 C1114 1.362 . S
C1114 H1106 0.930 . S
C1114 C1113 1.362 . S
C1114 C1117 1.409 . S
C1115 H1107 0.930 . S
C1115 C1116 1.355 . S
C1115 C1117 1.415 . S
C1116 C1115 1.355 . S
C1116 C1118 1.419 . S
C1117 C1112 1.425 . S
C1117 C1114 1.409 . S
C1117 C1115 1.415 . S
C1118 H1108 0.930 . S
C1118 C1116 1.419 . S
C1118 C1119 1.362 . S
C1119 H1109 0.930 . S
C1119 C1112 1.409 . S
C1119 C1118 1.362 . S
H1120 C1126 0.930 . S
H1121 C1129 0.930 . S
H1122 C1130 0.930 . S
H1123 C1131 0.930 . S
H1124 C1134 0.930 . S
H1125 C1135 0.930 . S
C1126 H1120 0.930 . S
C1126 C1127 1.355 . S
C1126 C1128 1.415 . S
C1127 C1126 1.355 . S
C1127 C1129 1.419 . S
C1128 C1126 1.415 . S
C1128 C1133 1.425 . S
C1128 C1135 1.409 . S
C1129 H1121 0.930 . S
C1129 C1127 1.419 . S
C1129 C1130 1.362 . S
C1130 H1122 0.930 . S
C1130 C1129 1.362 . S
C1130 C1133 1.409 . S
C1131 H1123 0.930 . S
C1131 C1132 1.355 . S
C1131 C1133 1.415 . S
C1132 C1131 1.355 . S
C1132 C1134 1.419 . S
C1133 C1128 1.425 . S
C1133 C1130 1.409 . S
C1133 C1131 1.415 . S
C1134 H1124 0.930 . S
C1134 C1132 1.419 . S
C1134 C1135 1.362 . S
C1135 H1125 0.930 . S
C1135 C1128 1.409 . S
C1135 C1134 1.362 . S
H1136 C1142 0.930 . S
H1137 C1145 0.930 . S
H1138 C1146 0.930 . S
H1139 C1147 0.930 . S
H1140 C1150 0.930 . S
H1141 C1151 0.930 . S
C1142 H1136 0.930 . S
C1142 C1143 1.355 . S
C1142 C1144 1.415 . S
C1143 C1142 1.355 . S
C1143 C1145 1.419 . S
C1144 C1142 1.415 . S
C1144 C1149 1.425 . S
C1144 C1151 1.409 . S
C1145 H1137 0.930 . S
C1145 C1143 1.419 . S
C1145 C1146 1.362 . S
C1146 H1138 0.930 . S
C1146 C1145 1.362 . S
C1146 C1149 1.409 . S
C1147 H1139 0.930 . S
C1147 C1148 1.355 . S
C1147 C1149 1.415 . S
C1148 C1147 1.355 . S
C1148 C1150 1.419 . S
C1149 C1144 1.425 . S
C1149 C1146 1.409 . S
C1149 C1147 1.415 . S
C1150 H1140 0.930 . S
C1150 C1148 1.419 . S
C1150 C1151 1.362 . S
C1151 H1141 0.930 . S
C1151 C1144 1.409 . S
C1151 C1150 1.362 . S
H1152 C1158 0.930 . S
H1153 C1161 0.930 . S
H1154 C1162 0.912 1_545 S
H1155 C1163 0.930 . S
H1156 C1166 0.930 . S
H1157 C1167 0.930 . S
C1158 H1152 0.930 . S
C1158 C1159 1.355 . S
C1158 C1160 1.415 . S
C1159 C1158 1.355 . S
C1159 C1161 1.419 . S
C1160 C1158 1.415 . S
C1160 C1165 1.425 . S
C1160 C1167 1.409 . S
C1161 H1153 0.930 . S
C1161 C1159 1.419 . S
C1161 C1162 1.362 . S
C1162 H1154 0.912 1_565 S
C1162 C1161 1.362 . S
C1162 C1165 1.409 . S
C1163 H1155 0.930 . S
C1163 C1164 1.355 . S
C1163 C1165 1.415 . S
C1164 C1163 1.355 . S
C1164 C1166 1.419 . S
C1165 C1160 1.425 . S
C1165 C1162 1.409 . S
C1165 C1163 1.415 . S
C1166 H1156 0.930 . S
C1166 C1164 1.419 . S
C1166 C1167 1.362 . S
C1167 H1157 0.930 . S
C1167 C1160 1.409 . S
C1167 C1166 1.362 . S
H1168 C1174 0.930 . S
H1169 C1177 0.930 . S
H1170 C1178 0.930 . S
H1171 C1179 0.930 . S
H1172 C1182 0.930 . S
H1173 C1183 0.930 . S
C1174 H1168 0.930 . S
C1174 C1175 1.355 . S
C1174 C1176 1.415 . S
C1175 C1174 1.355 . S
C1175 C1177 1.419 . S
C1176 C1174 1.415 . S
C1176 C1181 1.425 . S
C1176 C1183 1.409 . S
C1177 H1169 0.930 . S
C1177 C1175 1.419 . S
C1177 C1178 1.362 . S
C1178 H1170 0.930 . S
C1178 C1177 1.362 . S
C1178 C1181 1.409 . S
C1179 H1171 0.930 . S
C1179 C1180 1.355 . S
C1179 C1181 1.415 . S
C1180 C1179 1.355 . S
C1180 C1182 1.419 . S
C1181 C1176 1.425 . S
C1181 C1178 1.409 . S
C1181 C1179 1.415 . S
C1182 H1172 0.930 . S
C1182 C1180 1.419 . S
C1182 C1183 1.362 . S
C1183 H1173 0.930 . S
C1183 C1176 1.409 . S
C1183 C1182 1.362 . S
H1184 C1190 0.930 . S
H1185 C1193 0.930 . S
H1186 C1194 0.930 . S
H1187 C1195 0.930 . S
H1188 C1198 0.930 . S
H1189 C1199 0.930 . S
C1190 H1184 0.930 . S
C1190 C1191 1.355 . S
C1190 C1192 1.415 . S
C1191 C1190 1.355 . S
C1191 C1193 1.419 . S
C1192 C1190 1.415 . S
C1192 C1197 1.425 . S
C1192 C1199 1.409 . S
C1193 H1185 0.930 . S
C1193 C1191 1.419 . S
C1193 C1194 1.362 . S
C1194 H1186 0.930 . S
C1194 C1193 1.362 . S
C1194 C1197 1.409 . S
C1195 H1187 0.930 . S
C1195 C1196 1.355 . S
C1195 C1197 1.415 . S
C1196 C1195 1.355 . S
C1196 C1198 1.419 . S
C1197 C1192 1.425 . S
C1197 C1194 1.409 . S
C1197 C1195 1.415 . S
C1198 H1188 0.930 . S
C1198 C1196 1.419 . S
C1198 C1199 1.362 . S
C1199 H1189 0.930 . S
C1199 C1192 1.409 . S
C1199 C1198 1.362 . S
H1200 C1206 0.930 . S
H1201 C1209 0.930 1_455 S
H1202 C1210 0.930 1_455 S
H1203 C1211 0.930 . S
H1204 C1214 0.930 . S
H1205 C1215 0.930 . S
C1206 H1200 0.930 . S
C1206 C1207 1.355 . S
C1206 C1208 1.415 . S
C1207 C1206 1.355 . S
C1207 C1209 1.419 . S
C1208 C1206 1.415 . S
C1208 C1213 1.425 . S
C1208 C1215 1.409 . S
C1209 H1201 0.930 1_655 S
C1209 C1207 1.419 . S
C1209 C1210 1.362 . S
C1210 H1202 0.930 1_655 S
C1210 C1209 1.362 . S
C1210 C1213 1.409 . S
C1211 H1203 0.930 . S
C1211 C1212 1.355 . S
C1211 C1213 1.415 . S
C1212 C1211 1.355 . S
C1212 C1214 1.419 . S
C1213 C1208 1.425 . S
C1213 C1210 1.409 . S
C1213 C1211 1.415 . S
C1214 H1204 0.930 . S
C1214 C1212 1.419 . S
C1214 C1215 1.362 . S
C1215 H1205 0.930 . S
C1215 C1208 1.409 . S
C1215 C1214 1.362 . S
H1216 C1222 0.930 . S
H1217 C1225 0.930 . S
H1218 C1226 0.930 . S
H1219 C1227 0.930 . S
H1220 C1230 0.930 . S
H1221 C1231 0.930 . S
C1222 H1216 0.930 . S
C1222 C1223 1.355 . S
C1222 C1224 1.415 . S
C1223 C1222 1.355 . S
C1223 C1225 1.419 . S
C1224 C1222 1.415 . S
C1224 C1229 1.425 . S
C1224 C1231 1.409 . S
C1225 H1217 0.930 . S
C1225 C1223 1.419 . S
C1225 C1226 1.362 . S
C1226 H1218 0.930 . S
C1226 C1225 1.362 . S
C1226 C1229 1.409 . S
C1227 H1219 0.930 . S
C1227 C1228 1.355 . S
C1227 C1229 1.415 . S
C1228 C1227 1.355 . S
C1228 C1230 1.419 . S
C1229 C1224 1.425 . S
C1229 C1226 1.409 . S
C1229 C1227 1.415 . S
C1230 H1220 0.930 . S
C1230 C1228 1.419 . S
C1230 C1231 1.362 . S
C1231 H1221 0.930 . S
C1231 C1224 1.409 . S
C1231 C1230 1.362 . S
H1232 C1238 0.930 . S
H1233 C1241 0.930 . S
H1234 C1242 0.930 . S
H1235 C1243 0.930 . S
H1236 C1246 0.930 . S
H1237 C1247 0.930 . S
C1238 H1232 0.930 . S
C1238 C1239 1.355 . S
C1238 C1240 1.415 . S
C1239 C1238 1.355 . S
C1239 C1241 1.419 . S
C1240 C1238 1.415 . S
C1240 C1245 1.425 . S
C1240 C1247 1.409 . S
C1241 H1233 0.930 . S
C1241 C1239 1.419 . S
C1241 C1242 1.362 . S
C1242 H1234 0.930 . S
C1242 C1241 1.362 . S
C1242 C1245 1.409 . S
C1243 H1235 0.930 . S
C1243 C1244 1.355 . S
C1243 C1245 1.415 . S
C1244 C1243 1.355 . S
C1244 C1246 1.419 . S
C1245 C1240 1.425 . S
C1245 C1242 1.409 . S
C1245 C1243 1.415 . S
C1246 H1236 0.930 . S
C1246 C1244 1.419 . S
C1246 C1247 1.362 . S
C1247 H1237 0.930 . S
C1247 C1240 1.409 . S
C1247 C1246 1.362 . S
H1248 C1254 0.930 . S
H1249 C1257 0.930 . S
H1250 C1258 0.930 . S
H1251 C1259 0.930 . S
H1252 C1262 0.930 . S
H1253 C1263 0.930 . S
C1254 H1248 0.930 . S
C1254 C1255 1.355 . S
C1254 C1256 1.415 . S
C1255 C1254 1.355 . S
C1255 C1257 1.419 . S
C1256 C1254 1.415 . S
C1256 C1261 1.425 . S
C1256 C1263 1.409 . S
C1257 H1249 0.930 . S
C1257 C1255 1.419 . S
C1257 C1258 1.362 . S
C1258 H1250 0.930 . S
C1258 C1257 1.362 . S
C1258 C1261 1.409 . S
C1259 H1251 0.930 . S
C1259 C1260 1.355 . S
C1259 C1261 1.415 . S
C1260 C1259 1.355 . S
C1260 C1262 1.419 . S
C1261 C1256 1.425 . S
C1261 C1258 1.409 . S
C1261 C1259 1.415 . S
C1262 H1252 0.930 . S
C1262 C1260 1.419 . S
C1262 C1263 1.362 . S
C1263 H1253 0.930 . S
C1263 C1256 1.409 . S
C1263 C1262 1.362 . S
H1264 C1270 0.930 . S
H1265 C1273 0.930 . S
H1266 C1274 0.930 . S
H1267 C1275 0.930 . S
H1268 C1278 0.930 . S
H1269 C1279 0.930 . S
C1270 H1264 0.930 . S
C1270 C1271 1.355 . S
C1270 C1272 1.415 . S
C1271 C1270 1.355 . S
C1271 C1273 1.419 . S
C1272 C1270 1.415 . S
C1272 C1277 1.425 . S
C1272 C1279 1.409 . S
C1273 H1265 0.930 . S
C1273 C1271 1.419 . S
C1273 C1274 1.362 . S
C1274 H1266 0.930 . S
C1274 C1273 1.362 . S
C1274 C1277 1.409 . S
C1275 H1267 0.930 . S
C1275 C1276 1.355 . S
C1275 C1277 1.415 . S
C1276 C1275 1.355 . S
C1276 C1278 1.419 . S
C1277 C1272 1.425 . S
C1277 C1274 1.409 . S
C1277 C1275 1.415 . S
C1278 H1268 0.930 . S
C1278 C1276 1.419 . S
C1278 C1279 1.362 . S
C1279 H1269 0.930 . S
C1279 C1272 1.409 . S
C1279 C1278 1.362 . S
H1280 C1286 0.930 . S
H1281 C1289 0.930 . S
H1282 C1290 0.930 . S
H1283 C1291 0.930 . S
H1284 C1294 0.930 . S
H1285 C1295 0.930 . S
C1286 H1280 0.930 . S
C1286 C1287 1.355 . S
C1286 C1288 1.415 . S
C1287 C1286 1.355 . S
C1287 C1289 1.419 . S
C1288 C1286 1.415 . S
C1288 C1293 1.425 . S
C1288 C1295 1.409 . S
C1289 H1281 0.930 . S
C1289 C1287 1.419 . S
C1289 C1290 1.362 . S
C1290 H1282 0.930 . S
C1290 C1289 1.362 . S
C1290 C1293 1.409 . S
C1291 H1283 0.930 . S
C1291 C1292 1.355 . S
C1291 C1293 1.415 . S
C1292 C1291 1.355 . S
C1292 C1294 1.419 . S
C1293 C1288 1.425 . S
C1293 C1290 1.409 . S
C1293 C1291 1.415 . S
C1294 H1284 0.930 . S
C1294 C1292 1.419 . S
C1294 C1295 1.362 . S
C1295 H1285 0.930 . S
C1295 C1288 1.409 . S
C1295 C1294 1.362 . S
H1296 C1302 0.930 . S
H1297 C1305 0.930 . S
H1298 C1306 0.930 . S
H1299 C1307 0.930 . S
H1300 C1310 0.930 . S
H1301 C1311 0.930 . S
C1302 H1296 0.930 . S
C1302 C1303 1.355 . S
C1302 C1304 1.415 . S
C1303 C1302 1.355 . S
C1303 C1305 1.419 . S
C1304 C1302 1.415 . S
C1304 C1309 1.425 . S
C1304 C1311 1.409 . S
C1305 H1297 0.930 . S
C1305 C1303 1.419 . S
C1305 C1306 1.362 . S
C1306 H1298 0.930 . S
C1306 C1305 1.362 . S
C1306 C1309 1.409 . S
C1307 H1299 0.930 . S
C1307 C1308 1.355 . S
C1307 C1309 1.415 . S
C1308 C1307 1.355 . S
C1308 C1310 1.419 . S
C1309 C1304 1.425 . S
C1309 C1306 1.409 . S
C1309 C1307 1.415 . S
C1310 H1300 0.930 . S
C1310 C1308 1.419 . S
C1310 C1311 1.362 . S
C1311 H1301 0.930 . S
C1311 C1304 1.409 . S
C1311 C1310 1.362 . S
H1312 C1318 0.930 . S
H1313 C1321 0.930 . S
H1314 C1322 0.930 . S
H1315 C1323 0.930 . S
H1316 C1326 0.930 . S
H1317 C1327 0.930 . S
C1318 H1312 0.930 . S
C1318 C1319 1.355 . S
C1318 C1320 1.415 . S
C1319 C1318 1.355 . S
C1319 C1321 1.419 . S
C1320 C1318 1.415 . S
C1320 C1325 1.425 . S
C1320 C1327 1.409 . S
C1321 H1313 0.930 . S
C1321 C1319 1.419 . S
C1321 C1322 1.362 . S
C1322 H1314 0.930 . S
C1322 C1321 1.362 . S
C1322 C1325 1.409 . S
C1323 H1315 0.930 . S
C1323 C1324 1.355 . S
C1323 C1325 1.415 . S
C1324 C1323 1.355 . S
C1324 C1326 1.419 . S
C1325 C1320 1.425 . S
C1325 C1322 1.409 . S
C1325 C1323 1.415 . S
C1326 H1316 0.930 . S
C1326 C1324 1.419 . S
C1326 C1327 1.362 . S
C1327 H1317 0.930 . S
C1327 C1320 1.409 . S
C1327 C1326 1.362 . S
H1328 C1334 0.930 . S
H1329 C1337 0.930 . S
H1330 C1338 0.930 . S
H1331 C1339 0.930 . S
H1332 C1342 0.930 . S
H1333 C1343 0.930 . S
C1334 H1328 0.930 . S
C1334 C1335 1.355 . S
C1334 C1336 1.415 . S
C1335 C1334 1.355 . S
C1335 C1337 1.419 . S
C1336 C1334 1.415 . S
C1336 C1341 1.425 . S
C1336 C1343 1.409 . S
C1337 H1329 0.930 . S
C1337 C1335 1.419 . S
C1337 C1338 1.362 . S
C1338 H1330 0.930 . S
C1338 C1337 1.362 . S
C1338 C1341 1.409 . S
C1339 H1331 0.930 . S
C1339 C1340 1.355 . S
C1339 C1341 1.415 . S
C1340 C1339 1.355 . S
C1340 C1342 1.419 . S
C1341 C1336 1.425 . S
C1341 C1338 1.409 . S
C1341 C1339 1.415 . S
C1342 H1332 0.930 . S
C1342 C1340 1.419 . S
C1342 C1343 1.362 . S
C1343 H1333 0.930 . S
C1343 C1336 1.409 . S
C1343 C1342 1.362 . S
H1344 C1350 0.930 . S
H1345 C1353 0.930 . S
H1346 C1354 0.930 . S
H1347 C1355 0.930 . S
H1348 C1358 0.930 . S
H1349 C1359 0.930 . S
C1350 H1344 0.930 . S
C1350 C1351 1.355 . S
C1350 C1352 1.415 . S
C1351 C1350 1.355 . S
C1351 C1353 1.419 . S
C1352 C1350 1.415 . S
C1352 C1357 1.425 . S
C1352 C1359 1.409 . S
C1353 H1345 0.930 . S
C1353 C1351 1.419 . S
C1353 C1354 1.362 . S
C1354 H1346 0.930 . S
C1354 C1353 1.362 . S
C1354 C1357 1.409 . S
C1355 H1347 0.930 . S
C1355 C1356 1.355 . S
C1355 C1357 1.415 . S
C1356 C1355 1.355 . S
C1356 C1358 1.419 . S
C1357 C1352 1.425 . S
C1357 C1354 1.409 . S
C1357 C1355 1.415 . S
C1358 H1348 0.930 . S
C1358 C1356 1.419 . S
C1358 C1359 1.362 . S
C1359 H1349 0.930 . S
C1359 C1352 1.409 . S
C1359 C1358 1.362 . S
H1360 C1366 0.930 . S
H1361 C1369 0.930 . S
H1362 C1370 0.930 . S
H1363 C1371 0.930 . S
H1364 C1374 0.930 . S
H1365 C1375 0.930 . S
C1366 H1360 0.930 . S
C1366 C1367 1.355 . S
C1366 C1368 1.415 . S
C1367 C1366 1.355 . S
C1367 C1369 1.419 . S
C1368 C1366 1.415 . S
C1368 C1373 1.425 . S
C1368 C1375 1.409 . S
C1369 H1361 0.930 . S
C1369 C1367 1.419 . S
C1369 C1370 1.362 . S
C1370 H1362 0.930 . S
C1370 C1369 1.362 . S
C1370 C1373 1.409 . S
C1371 H1363 0.930 . S
C1371 C1372 1.355 . S
C1371 C1373 1.415 . S
C1372 C1371 1.355 . S
C1372 C1374 1.419 . S
C1373 C1368 1.425 . S
C1373 C1370 1.409 . S
C1373 C1371 1.415 . S
C1374 H1364 0.930 . S
C1374 C1372 1.419 . S
C1374 C1375 1.362 . S
C1375 H1365 0.930 . S
C1375 C1368 1.409 . S
C1375 C1374 1.362 . S
H1376 C1382 0.930 . S
H1377 C1385 0.930 . S
H1378 C1386 0.930 . S
H1379 C1387 0.930 . S
H1380 C1390 0.930 . S
H1381 C1391 0.930 . S
C1382 H1376 0.930 . S
C1382 C1383 1.355 . S
C1382 C1384 1.415 . S
C1383 C1382 1.355 . S
C1383 C1385 1.419 . S
C1384 C1382 1.415 . S
C1384 C1389 1.425 . S
C1384 C1391 1.409 . S
C1385 H1377 0.930 . S
C1385 C1383 1.419 . S
C1385 C1386 1.362 . S
C1386 H1378 0.930 . S
C1386 C1385 1.362 . S
C1386 C1389 1.409 . S
C1387 H1379 0.930 . S
C1387 C1388 1.355 . S
C1387 C1389 1.415 . S
C1388 C1387 1.355 . S
C1388 C1390 1.419 . S
C1389 C1384 1.425 . S
C1389 C1386 1.409 . S
C1389 C1387 1.415 . S
C1390 H1380 0.930 . S
C1390 C1388 1.419 . S
C1390 C1391 1.362 . S
C1391 H1381 0.930 . S
C1391 C1384 1.409 . S
C1391 C1390 1.362 . S
H1392 C1398 0.930 . S
H1393 C1401 0.930 . S
H1394 C1402 0.930 . S
H1395 C1403 0.930 . S
H1396 C1406 0.930 . S
H1397 C1407 0.930 . S
C1398 H1392 0.930 . S
C1398 C1399 1.355 . S
C1398 C1400 1.415 . S
C1399 C1398 1.355 . S
C1399 C1401 1.419 . S
C1400 C1398 1.415 . S
C1400 C1405 1.425 . S
C1400 C1407 1.409 . S
C1401 H1393 0.930 . S
C1401 C1399 1.419 . S
C1401 C1402 1.362 . S
C1402 H1394 0.930 . S
C1402 C1401 1.362 . S
C1402 C1405 1.409 . S
C1403 H1395 0.930 . S
C1403 C1404 1.355 . S
C1403 C1405 1.415 . S
C1404 C1403 1.355 . S
C1404 C1406 1.419 . S
C1405 C1400 1.425 . S
C1405 C1402 1.409 . S
C1405 C1403 1.415 . S
C1406 H1396 0.930 . S
C1406 C1404 1.419 . S
C1406 C1407 1.362 . S
C1407 H1397 0.930 . S
C1407 C1400 1.409 . S
C1407 C1406 1.362 . S
H1408 C1414 0.930 . S
H1409 C1417 0.930 . S
H1410 C1418 0.930 . S
H1411 C1419 0.930 . S
H1412 C1422 0.930 . S
H1413 C1423 0.930 . S
C1414 H1408 0.930 . S
C1414 C1415 1.355 . S
C1414 C1416 1.415 . S
C1415 C1414 1.355 . S
C1415 C1417 1.419 . S
C1416 C1414 1.415 . S
C1416 C1421 1.425 . S
C1416 C1423 1.409 . S
C1417 H1409 0.930 . S
C1417 C1415 1.419 . S
C1417 C1418 1.362 . S
C1418 H1410 0.930 . S
C1418 C1417 1.362 . S
C1418 C1421 1.409 . S
C1419 H1411 0.930 . S
C1419 C1420 1.355 . S
C1419 C1421 1.415 . S
C1420 C1419 1.355 . S
C1420 C1422 1.419 . S
C1421 C1416 1.425 . S
C1421 C1418 1.409 . S
C1421 C1419 1.415 . S
C1422 H1412 0.930 . S
C1422 C1420 1.419 . S
C1422 C1423 1.362 . S
C1423 H1413 0.930 . S
C1423 C1416 1.409 . S
C1423 C1422 1.362 . S
H1424 C1430 0.930 . S
H1425 C1433 0.930 . S
H1426 C1434 0.930 . S
H1427 C1435 0.930 . S
H1428 C1438 0.930 . S
H1429 C1439 0.930 . S
C1430 H1424 0.930 . S
C1430 C1431 1.355 . S
C1430 C1432 1.415 . S
C1431 C1430 1.355 . S
C1431 C1433 1.419 . S
C1432 C1430 1.415 . S
C1432 C1437 1.425 . S
C1432 C1439 1.409 . S
C1433 H1425 0.930 . S
C1433 C1431 1.419 . S
C1433 C1434 1.362 . S
C1434 H1426 0.930 . S
C1434 C1433 1.362 . S
C1434 C1437 1.409 . S
C1435 H1427 0.930 . S
C1435 C1436 1.355 . S
C1435 C1437 1.415 . S
C1436 C1435 1.355 . S
C1436 C1438 1.419 . S
C1437 C1432 1.425 . S
C1437 C1434 1.409 . S
C1437 C1435 1.415 . S
C1438 H1428 0.930 . S
C1438 C1436 1.419 . S
C1438 C1439 1.362 . S
C1439 H1429 0.930 . S
C1439 C1432 1.409 . S
C1439 C1438 1.362 . S
C583 C162 1.652 . S
C588 C219 1.666 . S
C599 C174 1.766 . S
C604 C259 1.758 . S
C615 C150 1.593 . S
C620 C311 1.598 . S
C631 C138 1.464 . S
C636 C271 1.440 . S
C652 C299 1.509 . S
C647 C114 1.509 . S
C663 C126 1.355 . S
C668 C231 1.361 1_556 S
C684 C238 1.680 . S
C679 C136 1.666 . S
C700 C278 1.661 . S
C695 C112 1.641 . S
C711 C124 1.614 . S
C716 C298 1.659 1_556 S
C727 C160 1.461 . S
C732 C258 1.491 . S
C743 C172 1.459 . S
C748 C318 1.460 . S
C764 C218 1.514 . S
C759 C148 1.488 . S
C780 C339 1.664 . S
C775 C18 1.663 . S
C791 C30 1.766 . S
C796 C379 1.758 . S
C807 C6 1.593 . S
C812 C431 1.559 . S
C823 C210 1.497 . S
C828 C391 1.484 . S
C839 C186 1.509 . S
C844 C419 1.508 . S
C855 C198 1.387 . S
C860 C351 1.360 . S
C871 C208 1.618 . S
C876 C358 1.645 . S
C887 C184 1.640 . S
C892 C398 1.660 . S
C908 C418 1.675 . S
C903 C196 1.649 . S
C919 C16 1.517 . S
C924 C378 1.525 . S
C940 C438 1.470 . S
C935 C28 1.472 1_455 S
C951 C4 1.475 . S
C956 C338 1.497 . S
C972 C459 1.669 . S
C967 C90 1.660 . S
C983 C102 1.779 . S
C988 C499 1.773 . S
C1004 C551 1.553 . S
C999 C78 1.585 . S
C1020 C511 1.458 . S
C1015 C66 1.469 . S
C1036 C539 1.511 . S
C1031 C42 1.509 . S
C1047 C54 1.375 . S
C1052 C471 1.389 . S
C1063 C64 1.665 . S
C1068 C478 1.680 . S
C1079 C40 1.642 . S
C1084 C518 1.654 . S
C1100 C538 1.698 . S
C1095 C52 1.668 . S
C1111 C88 1.474 . S
C1116 C498 1.507 . S
C1127 C100 1.455 . S
C1132 C558 1.457 . S
C1143 C76 1.476 . S
C1148 C458 1.508 . S
C1159 C189 1.546 . S
C1164 C242 1.522 . S
C1180 C282 1.875 . S
C1175 C201 1.925 . S
C1191 C213 1.576 . S
C1196 C305 1.587 . S
C1207 C81 1.775 . S
C1212 C265 1.767 . S
C1223 C93 1.702 . S
C1228 C322 1.687 . S
C1244 C225 1.342 . S
C1239 C105 1.313 . S
C1255 C45 1.567 . S
C1260 C362 1.547 . S
C1271 C57 1.917 . S
C1276 C402 1.863 . S
C1287 C69 1.577 . S
C1292 C425 1.575 . S
C1303 C153 1.764 . S
C1308 C385 1.744 . S
C1324 C442 1.678 . S
C1319 C165 1.696 . S
C1335 C177 1.320 . S
C1340 C345 1.335 . S
C1351 C117 1.566 . S
C1356 C482 1.540 . S
C1367 C129 1.936 . S
C1372 C522 1.891 . S
C1388 C545 1.586 . S
C1383 C141 1.572 . S
C1399 C9 1.738 . S
C1404 C505 1.739 . S
C1415 C21 1.669 . S
C1420 C562 1.636 . S
C1431 C33 1.343 . S
C1436 C465 1.337 . S
