# Generated by pormake.
# Topology rtl, (3,6)-cn, num edge types: 1
# Building blocks:
#     Node 0, Type 0, BuildingBlock: KAKCAD_clean_linker_0, # of connection points: 3
#     Node 1, Type 0, BuildingBlock: KAKCAD_clean_linker_0, # of connection points: 3
#     Node 2, Type 0, BuildingBlock: KAKCAD_clean_linker_0, # of connection points: 3
#     Node 3, Type 0, BuildingBlock: KAKCAD_clean_linker_0, # of connection points: 3
#     Node 4, Type 1, BuildingBlock: VOLQOD_clean_sbu_1, # of connection points: 6
#     Node 5, Type 1, BuildingBlock: VOLQOD_clean_sbu_1, # of connection points: 6
#     Edge 6, Type (0, 1), BuildingBlock: TEMPAE_clean_linker_10, # of connection points: 2
#     Edge 7, Type (0, 1), BuildingBlock: TEMPAE_clean_linker_10, # of connection points: 2
#     Edge 8, Type (0, 1), BuildingBlock: TEMPAE_clean_linker_10, # of connection points: 2
#     Edge 9, Type (0, 1), BuildingBlock: TEMPAE_clean_linker_10, # of connection points: 2
#     Edge 10, Type (0, 1), BuildingBlock: TEMPAE_clean_linker_10, # of connection points: 2
#     Edge 11, Type (0, 1), BuildingBlock: TEMPAE_clean_linker_10, # of connection points: 2
#     Edge 12, Type (0, 1), BuildingBlock: TEMPAE_clean_linker_10, # of connection points: 2
#     Edge 13, Type (0, 1), BuildingBlock: TEMPAE_clean_linker_10, # of connection points: 2
#     Edge 14, Type (0, 1), BuildingBlock: TEMPAE_clean_linker_10, # of connection points: 2
#     Edge 15, Type (0, 1), BuildingBlock: TEMPAE_clean_linker_10, # of connection points: 2
#     Edge 16, Type (0, 1), BuildingBlock: TEMPAE_clean_linker_10, # of connection points: 2
#     Edge 17, Type (0, 1), BuildingBlock: TEMPAE_clean_linker_10, # of connection points: 2
# Relax obj value: 0.078
# Max RMSD: 0.156
# Mean RMSD: 0.088
data_MOF--net-rtl--node1-VOLQOD_clean_sbu_1--node2-KAKCAD_clean_linker_0--edge1-TEMPAE_clean_linker_10
_symmetry_space_group_name_H-M    P1
_symmetry_Int_Tables_number       1
_symmetry_cell_setting            triclinic
loop_
_symmetry_equiv_pos_as_xyz
'x, y, z'
_cell_length_a     45.315935
_cell_length_b     39.256973
_cell_length_c     29.427562
_cell_angle_alpha  89.873874
_cell_angle_beta   90.348641
_cell_angle_gamma 89.988046
loop_
_atom_site_label
_atom_site_type_symbol
_atom_site_fract_x
_atom_site_fract_y
_atom_site_fract_z
_atom_type_partial_charge
C0 C 0.08894 0.75623 0.86374 0.0
C1 C 0.07418 0.78754 0.86908 0.0
C2 C 0.09756 0.73694 0.90159 0.0
C3 C 0.09254 0.74884 0.94599 0.0
C4 C 0.07755 0.78001 0.95118 0.0
C5 C 0.06802 0.79864 0.91344 0.0
C6 C 0.10395 0.72987 0.98665 0.0
C7 C 0.13035 0.71101 0.98432 0.0
C8 C 0.14267 0.69579 0.02333 0.0
C9 C 0.1287 0.7001 0.06537 0.0
C10 C 0.10252 0.71899 0.06861 0.0
C11 C 0.08981 0.73271 0.02897 0.0
C12 C 0.09033 0.72811 0.11368 0.0
C13 C 0.05972 0.72837 0.12117 0.0
C14 C 0.10925 0.74032 0.14794 0.0
C15 C 0.09781 0.75433 0.18765 0.0
C16 C 0.06714 0.75633 0.19418 0.0
C17 C 0.17112 0.67719 0.02053 0.0
C18 C 0.17625 0.65392 0.98521 0.0
C19 C 0.19357 0.68312 0.05271 0.0
C20 C 0.22067 0.66643 0.04937 0.0
C21 C 0.2259 0.64332 0.01392 0.0
C22 C 0.20334 0.63704 0.98204 0.0
C23 C 0.04825 0.74226 0.16107 0.0
H24 H 0.0945 0.74676 0.83037 0.0
H25 H 0.10844 0.71281 0.89579 0.0
H26 H 0.07365 0.79079 0.98439 0.0
H27 H 0.056 0.822 0.9194 0.0
H28 H 0.14232 0.70948 0.95267 0.0
H29 H 0.06947 0.74696 0.03169 0.0
H30 H 0.13835 0.68903 0.09579 0.0
H31 H 0.04462 0.71875 0.09557 0.0
H32 H 0.13291 0.74094 0.14294 0.0
H33 H 0.11303 0.76535 0.21202 0.0
H34 H 0.15928 0.64871 0.9601 0.0
H35 H 0.19038 0.70117 0.08003 0.0
H36 H 0.02454 0.74285 0.16541 0.0
H37 H 0.20682 0.61955 0.95417 0.0
H38 H 0.23756 0.67153 0.07467 0.0
C39 C 0.58734 0.76497 0.6534 0.0
C40 C 0.58378 0.72939 0.65122 0.0
C41 C 0.59421 0.78366 0.61424 0.0
C42 C 0.59735 0.76708 0.57227 0.0
C43 C 0.59402 0.73152 0.5704 0.0
C44 C 0.58717 0.71298 0.60925 0.0
C45 C 0.60429 0.78616 0.53008 0.0
C46 C 0.62718 0.81021 0.52909 0.0
C47 C 0.63649 0.82474 0.48763 0.0
C48 C 0.62246 0.8143 0.44699 0.0
C49 C 0.60033 0.78928 0.44755 0.0
C50 C 0.59033 0.77696 0.48939 0.0
C51 C 0.59106 0.7717 0.40514 0.0
C52 C 0.58578 0.78949 0.36435 0.0
C53 C 0.58912 0.73595 0.40511 0.0
C54 C 0.58217 0.71837 0.36556 0.0
C55 C 0.57735 0.73591 0.3246 0.0
C56 C 0.6629 0.8476 0.48655 0.0
C57 C 0.67005 0.86852 0.52383 0.0
C58 C 0.68231 0.84714 0.44936 0.0
C59 C 0.70828 0.86624 0.44993 0.0
C60 C 0.71633 0.88544 0.48837 0.0
C61 C 0.69656 0.88674 0.52505 0.0
C62 C 0.57883 0.77172 0.32438 0.0
H63 H 0.58506 0.77827 0.68539 0.0
H64 H 0.5967 0.81104 0.61663 0.0
H65 H 0.59686 0.71785 0.53878 0.0
H66 H 0.58418 0.6857 0.60622 0.0
H67 H 0.63893 0.81577 0.56035 0.0
H68 H 0.57261 0.75841 0.49005 0.0
H69 H 0.6297 0.82419 0.41459 0.0
H70 H 0.58711 0.81703 0.36333 0.0
H71 H 0.59367 0.72127 0.43556 0.0
H72 H 0.5807 0.69085 0.36707 0.0
H73 H 0.65548 0.87039 0.55273 0.0
H74 H 0.67823 0.83114 0.42013 0.0
H75 H 0.57523 0.78587 0.29321 0.0
H76 H 0.70183 0.90091 0.55552 0.0
H77 H 0.7223 0.86527 0.42033 0.0
C78 C 0.90286 0.23124 0.15837 0.0
C79 C 0.93295 0.22388 0.16466 0.0
C80 C 0.89342 0.25088 0.12145 0.0
C81 C 0.91388 0.26349 0.0899 0.0
C82 C 0.9441 0.25718 0.0971 0.0
C83 C 0.95355 0.23766 0.13424 0.0
C84 C 0.90337 0.28045 0.04768 0.0
C85 C 0.88002 0.30395 0.04883 0.0
C86 C 0.86747 0.31666 0.00838 0.0
C87 C 0.87894 0.30596 0.96648 0.0
C88 C 0.90237 0.28259 0.96478 0.0
C89 C 0.91467 0.27032 0.00552 0.0
C90 C 0.91188 0.2678 0.92091 0.0
C91 C 0.89073 0.25587 0.88966 0.0
C92 C 0.94197 0.26264 0.91181 0.0
C93 C 0.95067 0.24474 0.87313 0.0
C94 C 0.92944 0.23142 0.84307 0.0
C95 C 0.84082 0.33868 0.00971 0.0
C96 C 0.81773 0.33111 0.03977 0.0
C97 C 0.8375 0.36621 0.97945 0.0
C98 C 0.81141 0.38525 0.97862 0.0
C99 C 0.78809 0.37716 0.00803 0.0
C100 C 0.7917 0.35012 0.03895 0.0
C101 C 0.89942 0.23779 0.8512 0.0
H102 H 0.88652 0.22129 0.18162 0.0
H103 H 0.86997 0.25498 0.1166 0.0
H104 H 0.96036 0.26676 0.07348 0.0
H105 H 0.97688 0.2323 0.13819 0.0
H106 H 0.87129 0.31194 0.08132 0.0
H107 H 0.93174 0.25099 0.00435 0.0
H108 H 0.8689 0.31478 0.93507 0.0
H109 H 0.86738 0.25915 0.89597 0.0
H110 H 0.95872 0.27172 0.93523 0.0
H111 H 0.97395 0.24006 0.86779 0.0
H112 H 0.81931 0.30969 0.06291 0.0
H113 H 0.85503 0.37292 0.95623 0.0
H114 H 0.88262 0.2281 0.82831 0.0
H115 H 0.77398 0.34285 0.06153 0.0
H116 H 0.80944 0.40621 0.95481 0.0
C117 C 0.40262 0.26182 0.327 0.0
C118 C 0.4312 0.27571 0.32516 0.0
C119 C 0.39283 0.24498 0.36593 0.0
C120 C 0.41161 0.24068 0.40379 0.0
C121 C 0.44083 0.25256 0.40075 0.0
C122 C 0.45038 0.27022 0.36227 0.0
C123 C 0.40005 0.22638 0.44726 0.0
C124 C 0.37724 0.20208 0.44723 0.0
C125 C 0.36353 0.1921 0.48788 0.0
C126 C 0.37393 0.20533 0.52932 0.0
C127 C 0.39727 0.22881 0.53021 0.0
C128 C 0.41001 0.23932 0.48916 0.0
C129 C 0.407 0.24471 0.57342 0.0
C130 C 0.38624 0.25828 0.60366 0.0
C131 C 0.4372 0.24855 0.58313 0.0
C132 C 0.44648 0.26655 0.62153 0.0
C133 C 0.42575 0.28137 0.65087 0.0
C134 C 0.33668 0.17038 0.48666 0.0
C135 C 0.31457 0.17653 0.45393 0.0
C136 C 0.3321 0.14482 0.51941 0.0
C137 C 0.30568 0.12637 0.52001 0.0
C138 C 0.28328 0.13328 0.48802 0.0
C139 C 0.28822 0.15818 0.45459 0.0
C140 C 0.39551 0.27651 0.6419 0.0
H141 H 0.3874 0.26459 0.29873 0.0
H142 H 0.37008 0.23661 0.36676 0.0
H143 H 0.45626 0.24905 0.4286 0.0
H144 H 0.47249 0.28061 0.36254 0.0
H145 H 0.36967 0.19124 0.41542 0.0
H146 H 0.42663 0.25914 0.48997 0.0
H147 H 0.3633 0.19821 0.56084 0.0
H148 H 0.36282 0.25606 0.59671 0.0
H149 H 0.45367 0.23799 0.56063 0.0
H150 H 0.46993 0.26922 0.62791 0.0
H151 H 0.31721 0.19632 0.42857 0.0
H152 H 0.34881 0.13931 0.54485 0.0
H153 H 0.37894 0.28793 0.66343 0.0
H154 H 0.27152 0.16379 0.42915 0.0
H155 H 0.30244 0.10744 0.54633 0.0
O156 O 0.93055 0.0086 0.50692 0.0
Zn157 Zn 0.96989 0.03264 0.50837 0.0
O158 O 0.00262 0.00031 0.51138 0.0
Zn159 Zn 0.02786 0.0105 0.56375 0.0
Zn160 Zn 0.98678 0.95417 0.51792 0.0
Zn161 Zn 0.0258 0.00413 0.45569 0.0
O162 O 0.06823 0.02562 0.54418 0.0
O163 O 0.06762 0.01864 0.4694 0.0
O164 O 0.97049 0.06382 0.56238 0.0
O165 O 0.01012 0.04794 0.60182 0.0
O166 O 0.03329 0.96914 0.60361 0.0
O167 O 0.00116 0.93175 0.57557 0.0
O168 O -0.00047 0.92464 0.46534 0.0
O169 O 0.97198 0.06167 0.45243 0.0
O170 O 0.02705 0.95915 0.42325 0.0
O171 O 0.00883 0.03962 0.4129 0.0
C172 C 0.92321 0.97764 0.51311 0.0
C173 C 0.08109 0.02689 0.50586 0.0
C174 C 0.02043 0.94034 0.605 0.0
C175 C 0.98753 0.06694 0.59668 0.0
C176 C 0.01562 0.93002 0.43067 0.0
C177 C 0.98797 0.06114 0.41705 0.0
O178 O 0.94243 0.9544 0.51921 0.0
O179 O 0.57763 0.50712 0.99184 0.0
Zn180 Zn 0.54029 0.53497 0.99029 0.0
O181 O 0.50519 0.50612 0.99053 0.0
Zn182 Zn 0.48071 0.51657 0.93715 0.0
Zn183 Zn 0.5171 0.45828 0.9888 0.0
Zn184 Zn 0.48297 0.51472 0.04616 0.0
O185 O 0.44042 0.53294 0.95593 0.0
O186 O 0.4414 0.52934 0.03123 0.0
O187 O 0.5411 0.56473 0.93514 0.0
O188 O 0.49935 0.55328 0.89844 0.0
O189 O 0.47509 0.47492 0.89797 0.0
O190 O 0.50154 0.43495 0.9328 0.0
O191 O 0.50163 0.43262 0.04296 0.0
O192 O 0.54079 0.56688 0.04333 0.0
O193 O 0.48101 0.47272 0.08551 0.0
O194 O 0.50119 0.5526 0.08296 0.0
C195 C 0.58256 0.47518 0.9912 0.0
C196 C 0.42782 0.53615 0.99427 0.0
C197 C 0.48486 0.44452 0.90021 0.0
C198 C 0.52342 0.56985 0.90209 0.0
C199 C 0.48857 0.44186 0.07908 0.0
C200 C 0.52392 0.57113 0.07722 0.0
O201 O 0.56142 0.4538 0.98968 0.0
C202 C 0.22815 0.13446 0.48564 0.0
C203 C 0.25433 0.1157 0.49051 0.0
C204 C 0.20052 0.11856 0.48811 0.0
C205 C 0.19899 0.08299 0.49562 0.0
C206 C 0.22531 0.06384 0.50056 0.0
C207 C 0.25271 0.08046 0.49806 0.0
C208 C 0.17296 0.13991 0.48298 0.0
C209 C 0.2245 0.02584 0.50842 0.0
C210 C 0.12665 0.05025 0.54306 0.0
C211 C 0.11201 0.03919 0.50358 0.0
C212 C 0.1553 0.0637 0.54112 0.0
C213 C 0.16971 0.06609 0.49871 0.0
C214 C 0.15544 0.05412 0.45892 0.0
C215 C 0.12675 0.04085 0.46181 0.0
C216 C 0.16981 0.07624 0.58429 0.0
C217 C 0.17017 0.05617 0.4131 0.0
H218 H 0.22926 0.16179 0.48057 0.0
H219 H 0.27289 0.06583 0.50147 0.0
H220 H 0.15941 0.13038 0.45417 0.0
H221 H 0.15934 0.13777 0.51407 0.0
H222 H 0.17799 0.16724 0.47697 0.0
H223 H 0.24694 0.01463 0.51131 0.0
H224 H 0.21221 0.02008 0.54001 0.0
H225 H 0.2126 0.01319 0.48004 0.0
H226 H 0.11554 0.049 0.57553 0.0
H227 H 0.11572 0.03225 0.43114 0.0
H228 H 0.17348 0.10413 0.58198 0.0
H229 H 0.19173 0.06408 0.58884 0.0
H230 H 0.15628 0.0709 0.61484 0.0
H231 H 0.17371 0.08325 0.40372 0.0
H232 H 0.15685 0.04385 0.38591 0.0
H233 H 0.19217 0.0438 0.41455 0.0
C234 C 0.28107 0.64511 0.0152 0.0
C235 C 0.25499 0.62627 0.0099 0.0
C236 C 0.30878 0.62946 0.01184 0.0
C237 C 0.31047 0.59406 0.00317 0.0
C238 C 0.28423 0.57488 -0.00237 0.0
C239 C 0.25678 0.59126 0.00092 0.0
C240 C 0.33626 0.65082 0.01758 0.0
C241 C 0.28518 0.53705 0.98867 0.0
C242 C 0.38294 0.56096 0.9565 0.0
C243 C 0.3971 0.54914 0.99606 0.0
C244 C 0.35449 0.57504 0.95817 0.0
C245 C 0.33977 0.57718 0.00035 0.0
C246 C 0.35359 0.56451 0.0402 0.0
C247 C 0.3821 0.55073 0.03761 0.0
C248 C 0.34048 0.58838 0.91497 0.0
C249 C 0.3385 0.56616 0.08576 0.0
H250 H 0.27978 0.67227 0.02151 0.0
H251 H 0.23666 0.57656 0.99721 0.0
H252 H 0.34956 0.64114 0.04664 0.0
H253 H 0.35016 0.64887 0.98679 0.0
H254 H 0.33113 0.67811 0.02362 0.0
H255 H 0.26279 0.52589 0.98471 0.0
H256 H 0.29792 0.53188 0.95736 0.0
H257 H 0.29667 0.52386 0.01708 0.0
H258 H 0.3943 0.55985 0.92423 0.0
H259 H 0.39275 0.54151 0.06834 0.0
H260 H 0.33681 0.61623 0.91789 0.0
H261 H 0.31859 0.57636 0.90956 0.0
H262 H 0.35433 0.58353 0.88464 0.0
H263 H 0.33483 0.59314 0.09534 0.0
H264 H 0.3516 0.55362 0.11309 0.0
H265 H 0.31653 0.55376 0.08376 0.0
C266 C 0.77041 0.88767 0.46973 0.0
C267 C 0.74584 0.90239 0.49105 0.0
C268 C 0.79846 0.9025 0.47281 0.0
C269 C 0.80251 0.9321 0.49942 0.0
C270 C 0.77803 0.94717 0.52119 0.0
C271 C 0.74992 0.93251 0.51609 0.0
C272 C 0.82391 0.88606 0.44816 0.0
C273 C 0.78165 0.97828 0.5508 0.0
C274 C 0.88112 0.94312 0.54162 0.0
C275 C 0.89177 0.96814 0.51198 0.0
C276 C 0.85161 0.93248 0.53945 0.0
C277 C 0.83267 0.9463 0.50566 0.0
C278 C 0.84328 0.9719 0.47596 0.0
C279 C 0.87264 0.98296 0.48003 0.0
C280 C 0.84088 0.90593 0.57268 0.0
C281 C 0.82408 0.98642 0.43854 0.0
H282 H 0.76802 0.86399 0.45128 0.0
H283 H 0.7312 0.94465 0.53205 0.0
H284 H 0.83573 0.9053 0.42743 0.0
H285 H 0.83994 0.87558 0.47314 0.0
H286 H 0.81656 0.86507 0.42551 0.0
H287 H 0.76038 0.98698 0.56534 0.0
H288 H 0.79716 0.97255 0.57913 0.0
H289 H 0.79135 0.99949 0.53093 0.0
H290 H 0.89591 0.93191 0.56661 0.0
H291 H 0.88101 0.00215 0.45689 0.0
H292 H 0.83597 0.88188 0.55443 0.0
H293 H 0.82011 0.91449 0.58885 0.0
H294 H 0.85742 0.90045 0.59975 0.0
H295 H 0.8183 0.96597 0.41408 0.0
H296 H 0.83518 0.00734 0.41978 0.0
H297 H 0.80311 0.99624 0.45264 0.0
C298 C 0.74427 0.40436 0.04487 0.0
C299 C 0.75951 0.39563 0.0052 0.0
C300 C 0.71613 0.4192 0.04266 0.0
C301 C 0.70293 0.42551 -0.00026 0.0
C302 C 0.71858 0.4178 0.95956 0.0
C303 C 0.74668 0.40292 0.96278 0.0
C304 C 0.70019 0.42723 0.08626 0.0
C305 C 0.70523 0.4242 0.91318 0.0
C306 C 0.61926 0.42748 0.99381 0.0
C307 C 0.61343 0.46259 0.99273 0.0
C308 C 0.64829 0.41514 0.99593 0.0
C309 C 0.67212 0.43843 0.99692 0.0
C310 C 0.66647 0.47387 0.99556 0.0
C311 C 0.6372 0.48554 0.99352 0.0
C312 C 0.65344 0.37713 0.99738 0.0
C313 C 0.69135 0.49945 0.99644 0.0
H314 H 0.75427 0.39925 0.07774 0.0
H315 H 0.75817 0.3959 0.93199 0.0
H316 H 0.69307 0.45427 0.0864 0.0
H317 H 0.68 0.41137 0.08874 0.0
H318 H 0.71413 0.42245 0.1168 0.0
H319 H 0.72104 0.41893 0.88535 0.0
H320 H 0.68556 0.40774 0.90839 0.0
H321 H 0.69772 0.45102 0.91029 0.0
H322 H 0.60111 0.40951 0.99324 0.0
H323 H 0.63297 0.51271 0.99264 0.0
H324 H 0.66548 0.37017 0.029 0.0
H325 H 0.66741 0.36933 0.96838 0.0
H326 H 0.63252 0.36242 0.99602 0.0
H327 H 0.70458 0.49627 0.02802 0.0
H328 H 0.68326 0.52614 0.99471 0.0
H329 H 0.70637 0.49496 0.96744 0.0
C330 C 0.03159 0.79872 0.22618 0.0
C331 C 0.05517 0.77607 0.23305 0.0
C332 C 0.02279 0.82125 0.26047 0.0
C333 C 0.03812 0.82136 0.30251 0.0
C334 C 0.06086 0.79734 0.31057 0.0
C335 C 0.06904 0.77488 0.2758 0.0
C336 C 0.99825 0.84629 0.25068 0.0
C337 C 0.07769 0.79662 0.35501 0.0
C338 C 0.0423 0.90607 0.36382 0.0
C339 C 0.02135 0.90191 0.39831 0.0
C340 C 0.04808 0.8799 0.33281 0.0
C341 C 0.03241 0.84881 0.33606 0.0
C342 C 0.01125 0.84434 0.37074 0.0
C343 C 0.00604 0.87091 0.40159 0.0
C344 C 0.07097 0.88559 0.29645 0.0
C345 C 0.99397 0.81162 0.37497 0.0
H346 H 0.02093 0.80016 0.19316 0.0
H347 H 0.08693 0.75704 0.28165 0.0
H348 H 0.98219 0.8466 0.27898 0.0
H349 H 0.00758 0.87233 0.24774 0.0
H350 H 0.98629 0.84026 0.21863 0.0
H351 H 0.09268 0.77429 0.35759 0.0
H352 H 0.09109 0.82015 0.35822 0.0
H353 H 0.06223 0.79605 0.38407 0.0
H354 H 0.05436 0.92981 0.36108 0.0
H355 H 0.98976 0.86747 0.42804 0.0
H356 H 0.06061 0.88332 0.26233 0.0
H357 H 0.08837 0.86576 0.29891 0.0
H358 H 0.08159 0.91102 0.29908 0.0
H359 H 0.98109 0.8071 0.34337 0.0
H360 H 0.97853 0.81202 0.40415 0.0
H361 H 0.00927 0.78977 0.37926 0.0
C362 C 0.55429 0.72015 0.72211 0.0
C363 C 0.57615 0.70903 0.69205 0.0
C364 C 0.54515 0.69948 0.75842 0.0
C365 C 0.55809 0.66694 0.76449 0.0
C366 C 0.58074 0.65603 0.73503 0.0
C367 C 0.58961 0.67729 0.69939 0.0
C368 C 0.52116 0.71207 0.78955 0.0
C369 C 0.59514 0.62153 0.74047 0.0
C370 C 0.55366 0.61944 0.87647 0.0
C371 C 0.53116 0.59575 0.86755 0.0
C372 C 0.56194 0.64358 0.84379 0.0
C373 C 0.54764 0.64377 0.80094 0.0
C374 C 0.52456 0.62037 0.79196 0.0
C375 C 0.51646 0.59675 0.82551 0.0
C376 C 0.58641 0.66841 0.85478 0.0
C377 C 0.50901 0.61963 0.74644 0.0
H378 H 0.54366 0.74454 0.71642 0.0
H379 H 0.60693 0.66885 0.67679 0.0
H380 H 0.50138 0.69562 0.78607 0.0
H381 H 0.52859 0.71047 0.82549 0.0
H382 H 0.51468 0.73879 0.78197 0.0
H383 H 0.61276 0.61714 0.71505 0.0
H384 H 0.6049 0.61903 0.77497 0.0
H385 H 0.5783 0.6012 0.73678 0.0
H386 H 0.56491 0.61911 0.90908 0.0
H387 H 0.49907 0.57854 0.81838 0.0
H388 H 0.57897 0.69489 0.8481 0.0
H389 H 0.60559 0.66352 0.83248 0.0
H390 H 0.59385 0.66648 0.89073 0.0
H391 H 0.50001 0.64519 0.73815 0.0
H392 H 0.49066 0.60087 0.74556 0.0
H393 H 0.525 0.61299 0.71946 0.0
C394 C 0.92731 0.16989 0.20881 0.0
C395 C 0.94254 0.20049 0.20154 0.0
C396 C 0.93594 0.1473 0.24334 0.0
C397 C 0.96033 0.15557 0.27148 0.0
C398 C 0.97597 0.1863 0.26414 0.0
C399 C 0.96695 0.20837 0.22906 0.0
C400 C 0.91884 0.11464 0.24985 0.0
C401 C 0.00193 0.19608 0.29373 0.0
C402 C 0.96191 0.11275 0.38708 0.0
C403 C 0.98193 0.086 0.38014 0.0
C404 C 0.95526 0.13605 0.35233 0.0
C405 C 0.96879 0.13241 0.30941 0.0
C406 C 0.98934 0.10581 0.30227 0.0
C407 C 0.99576 0.08297 0.3378 0.0
C408 C 0.93338 0.16424 0.36133 0.0
C409 C 0.00405 0.10104 0.25683 0.0
H410 H 0.90874 0.16344 0.18707 0.0
H411 H 0.97868 0.23209 0.22365 0.0
H412 H 0.93392 0.09244 0.24755 0.0
H413 H 0.90891 0.11415 0.28422 0.0
H414 H 0.90093 0.11157 0.22424 0.0
H415 H 0.01216 0.22047 0.28288 0.0
H416 H 0.99473 0.19862 0.32953 0.0
H417 H 0.01896 0.17579 0.29288 0.0
H418 H 0.95126 0.1155 0.41975 0.0
H419 H 0.01125 0.06241 0.3321 0.0
H420 H 0.91378 0.16113 0.33894 0.0
H421 H 0.94335 0.18932 0.35325 0.0
H422 H 0.92589 0.16453 0.3972 0.0
H423 H 0.98712 0.09557 0.23044 0.0
H424 H 0.02033 0.07988 0.2573 0.0
H425 H 0.01549 0.1248 0.24659 0.0
C426 C 0.421 0.30237 0.73112 0.0
C427 C 0.43558 0.30334 0.6892 0.0
C428 C 0.42909 0.32441 0.76657 0.0
C429 C 0.45244 0.34783 0.76005 0.0
C430 C 0.46765 0.34847 0.71821 0.0
C431 C 0.45896 0.32635 0.68326 0.0
C432 C 0.41235 0.32302 0.81075 0.0
C433 C 0.49275 0.37299 0.71003 0.0
C434 C 0.45515 0.42816 0.83156 0.0
C435 C 0.4765 0.4197 0.86444 0.0
C436 C 0.44691 0.40485 0.79771 0.0
C437 C 0.46047 0.37238 0.79647 0.0
C438 C 0.48201 0.36365 0.8295 0.0
C439 C 0.4897 0.38736 0.86317 0.0
C440 C 0.4237 0.415 0.76318 0.0
C441 C 0.49711 0.32935 0.82903 0.0
H442 H 0.40318 0.28437 0.7362 0.0
H443 H 0.47005 0.32771 0.65078 0.0
H444 H 0.42779 0.31824 0.83945 0.0
H445 H 0.40155 0.34792 0.81707 0.0
H446 H 0.39516 0.30284 0.81073 0.0
H447 H 0.50319 0.36918 0.67636 0.0
H448 H 0.48454 0.39958 0.71193 0.0
H449 H 0.50989 0.36996 0.73682 0.0
H450 H 0.44472 0.45299 0.83234 0.0
H451 H 0.50626 0.38058 0.88834 0.0
H452 H 0.40511 0.39664 0.76397 0.0
H453 H 0.43314 0.41422 0.7285 0.0
H454 H 0.41489 0.44098 0.76935 0.0
H455 H 0.48047 0.30871 0.83145 0.0
H456 H 0.5132 0.32638 0.8574 0.0
H457 H 0.50891 0.32588 0.79644 0.0
C458 C 0.54799 0.72559 0.2533 0.0
C459 C 0.57108 0.71622 0.28269 0.0
C460 C 0.53993 0.70464 0.21659 0.0
C461 C 0.55526 0.67367 0.20951 0.0
C462 C 0.57939 0.66492 0.23791 0.0
C463 C 0.58712 0.68642 0.2739 0.0
C464 C 0.51436 0.71499 0.1865 0.0
C465 C 0.59633 0.63214 0.23147 0.0
C466 C 0.51732 0.59872 0.15303 0.0
C467 C 0.53079 0.59839 0.11028 0.0
C468 C 0.52446 0.62374 0.1852 0.0
C469 C 0.54529 0.64929 0.17411 0.0
C470 C 0.55821 0.6498 0.13049 0.0
C471 C 0.55098 0.62419 0.09919 0.0
C472 C 0.51047 0.62216 0.23162 0.0
C473 C 0.5802 0.67691 0.11727 0.0
H474 H 0.5355 0.74856 0.26004 0.0
H475 H 0.60542 0.67948 0.29595 0.0
H476 H 0.52065 0.71332 0.1502 0.0
H477 H 0.49564 0.69724 0.19177 0.0
H478 H 0.50671 0.74131 0.19367 0.0
H479 H 0.61524 0.62977 0.25547 0.0
H480 H 0.5814 0.61008 0.23663 0.0
H481 H 0.60482 0.63055 0.19627 0.0
H482 H 0.50168 0.57891 0.16182 0.0
H483 H 0.56121 0.62437 0.066 0.0
H484 H 0.49986 0.64685 0.23975 0.0
H485 H 0.52774 0.61749 0.2578 0.0
H486 H 0.49363 0.60168 0.23409 0.0
H487 H 0.5711 0.7026 0.12426 0.0
H488 H 0.58625 0.67547 0.08079 0.0
H489 H 0.60058 0.67408 0.13802 0.0
C490 C 0.92388 0.17784 0.7984 0.0
C491 C 0.93839 0.20897 0.80514 0.0
C492 C 0.9326 0.15551 0.76392 0.0
C493 C 0.95628 0.16466 0.73523 0.0
C494 C 0.97087 0.19621 0.74156 0.0
C495 C 0.96185 0.21795 0.77669 0.0
C496 C 0.91669 0.12193 0.75854 0.0
C497 C 0.99598 0.20696 0.71126 0.0
C498 C 0.99481 0.09235 0.67398 0.0
C499 C 0.98063 0.09294 0.63147 0.0
C500 C 0.98749 0.11597 0.70783 0.0
C501 C 0.96572 0.14099 0.69876 0.0
C502 C 0.95191 0.1423 0.65555 0.0
C503 C 0.95941 0.11816 0.62251 0.0
C504 C 0.0025 0.1136 0.75369 0.0
C505 C 0.9288 0.16884 0.64448 0.0
H506 H 0.90605 0.17058 0.82083 0.0
H507 H 0.97297 0.2421 0.78172 0.0
H508 H 0.90701 0.12004 0.72393 0.0
H509 H 0.93254 0.10057 0.76253 0.0
H510 H 0.89875 0.11866 0.78375 0.0
H511 H 0.00468 0.23255 0.72021 0.0
H512 H 0.01425 0.18823 0.7138 0.0
H513 H 0.98852 0.20738 0.67528 0.0
H514 H 0.0112 0.07294 0.68122 0.0
H515 H 0.94851 0.11901 0.58963 0.0
H516 H 0.9859 0.10795 0.78023 0.0
H517 H 0.01286 0.13833 0.76252 0.0
H518 H 0.01973 0.09347 0.75475 0.0
H519 H 0.9093 0.16514 0.66657 0.0
H520 H 0.92143 0.16767 0.60844 0.0
H521 H 0.93757 0.19471 0.6514 0.0
C522 C 0.41964 0.31889 0.26442 0.0
C523 C 0.44031 0.29755 0.28608 0.0
C524 C 0.42796 0.34082 0.2291 0.0
C525 C 0.45789 0.3424 0.21594 0.0
C526 C 0.47891 0.32094 0.23729 0.0
C527 C 0.4698 0.29842 0.2716 0.0
C528 C 0.40476 0.36282 0.20649 0.0
C529 C 0.51114 0.32238 0.22471 0.0
C530 C 0.4759 0.38234 0.10175 0.0
C531 C 0.48178 0.41613 0.11415 0.0
C532 C 0.46819 0.35796 0.13455 0.0
C533 C 0.46723 0.36744 0.1809 0.0
C534 C 0.47403 0.40131 0.1937 0.0
C535 C 0.48079 0.4254 0.16006 0.0
C536 C 0.46026 0.32236 0.11948 0.0
C537 C 0.47398 0.41218 0.2429 0.0
H538 H 0.39695 0.31922 0.27572 0.0
H539 H 0.48593 0.28168 0.28729 0.0
H540 H 0.4091 0.39003 0.21411 0.0
H541 H 0.40567 0.35981 0.16904 0.0
H542 H 0.38212 0.35648 0.21803 0.0
H543 H 0.52469 0.30385 0.24437 0.0
H544 H 0.51385 0.31708 0.18797 0.0
H545 H 0.51986 0.34837 0.231 0.0
H546 H 0.47646 0.3752 0.06619 0.0
H547 H 0.48562 0.45145 0.16973 0.0
H548 H 0.4371 0.31667 0.12892 0.0
H549 H 0.47446 0.30342 0.13711 0.0
H550 H 0.46263 0.31892 0.08222 0.0
H551 H 0.45136 0.41007 0.25682 0.0
H552 H 0.48171 0.43882 0.24739 0.0
H553 H 0.48839 0.39507 0.26332 0.0
C554 C 0.06541 0.84473 0.83242 0.0
C555 C 0.06589 0.809 0.8289 0.0
C556 C 0.05717 0.86533 0.79552 0.0
C557 C 0.05053 0.85009 0.75319 0.0
C558 C 0.05162 0.81423 0.74879 0.0
C559 C 0.05868 0.79411 0.78687 0.0
C560 C 0.05552 0.90346 0.80193 0.0
C561 C 0.04557 0.79713 0.70377 0.0
C562 C 0.00572 0.90093 0.66715 0.0
C563 C 0.02803 0.91638 0.6417 0.0
C564 C 0.01271 0.87927 0.70367 0.0
C565 C 0.04268 0.87189 0.71354 0.0
C566 C 0.06523 0.88654 0.6867 0.0
C567 C 0.05763 0.90925 0.65166 0.0
C568 C 0.98811 0.86522 0.73257 0.0
C569 C 0.09737 0.87831 0.69506 0.0
H570 H 0.07175 0.85689 0.86399 0.0
H571 H 0.05837 0.76665 0.78353 0.0
H572 H 0.07231 0.91622 0.78055 0.0
H573 H 0.03358 0.91304 0.79086 0.0
H574 H 0.05927 0.91108 0.83784 0.0
H575 H 0.04883 0.76911 0.70544 0.0
H576 H 0.02257 0.8023 0.69267 0.0
H577 H 0.06036 0.80774 0.67734 0.0
H578 H 0.98284 0.90675 0.65942 0.0
H579 H 0.07479 0.92106 0.63151 0.0
H580 H 0.99102 0.87385 0.76821 0.0
H581 H 0.98885 0.83699 0.73287 0.0
H582 H 0.96598 0.87344 0.72032 0.0
H583 H 0.10435 0.88816 0.72873 0.0
H584 H 0.11193 0.88954 0.66874 0.0
H585 H 0.10066 0.8503 0.69559 0.0
loop_
_geom_bond_atom_site_label_1
_geom_bond_atom_site_label_2
_geom_bond_distance
_geom_bond_site_symmetry_2
_ccdc_geom_bond_type
C0 C1 1.386 . S
C0 C2 1.397 . S
C0 H24 0.931 . S
C1 C0 1.386 . S
C1 C5 1.397 . S
C2 C0 1.397 . S
C2 C3 1.384 . S
C2 H25 0.930 . S
C3 C2 1.384 . S
C3 C4 1.377 . S
C3 C6 1.481 . S
C4 C3 1.377 . S
C4 C5 1.389 . S
C4 H26 0.929 . S
C5 C1 1.397 . S
C5 C4 1.389 . S
C5 H27 0.931 . S
C6 C3 1.481 . S
C6 C7 1.387 . S
C6 C11 1.390 1_556 S
C7 C6 1.387 . S
C7 C8 1.401 1_556 S
C7 H28 0.930 . S
C8 C7 1.401 1_554 S
C8 C9 1.376 . S
C8 C17 1.511 . S
C9 C8 1.376 . S
C9 C10 1.392 . S
C9 H30 0.931 . S
C10 C9 1.392 . S
C10 C11 1.361 . S
C10 C12 1.500 . S
C11 C6 1.390 1_554 S
C11 C10 1.361 . S
C11 H29 0.931 . S
C12 C10 1.500 . S
C12 C13 1.371 . S
C12 C14 1.365 . S
C13 C12 1.371 . S
C13 C23 1.386 . S
C13 H31 0.931 . S
C14 C12 1.365 . S
C14 C15 1.409 . S
C14 H32 0.929 . S
C15 C14 1.409 . S
C15 C16 1.380 . S
C15 H33 0.930 . S
C16 C15 1.380 . S
C16 C23 1.357 . S
C17 C8 1.511 . S
C17 C18 1.341 1_554 S
C17 C19 1.371 . S
C18 C17 1.341 1_556 S
C18 C22 1.394 . S
C18 H34 0.930 . S
C19 C17 1.371 . S
C19 C20 1.392 . S
C19 H35 0.931 . S
C20 C19 1.392 . S
C20 C21 1.331 . S
C20 H38 0.932 . S
C21 C20 1.331 . S
C21 C22 1.336 1_554 S
C22 C18 1.394 . S
C22 C21 1.336 1_556 S
C22 H37 0.929 . S
C23 C13 1.386 . S
C23 C16 1.357 . S
C23 H36 0.928 . S
H24 C0 0.931 . S
H25 C2 0.930 . S
H26 C4 0.929 . S
H27 C5 0.931 . S
H28 C7 0.930 . S
H29 C11 0.931 . S
H30 C9 0.931 . S
H31 C13 0.931 . S
H32 C14 0.929 . S
H33 C15 0.930 . S
H34 C18 0.930 . S
H35 C19 0.931 . S
H36 C23 0.928 . S
H37 C22 0.929 . S
H38 C20 0.932 . S
C39 C40 1.386 . S
C39 C41 1.397 . S
C39 H63 0.931 . S
C40 C39 1.386 . S
C40 C44 1.397 . S
C41 C39 1.397 . S
C41 C42 1.384 . S
C41 H64 0.930 . S
C42 C41 1.384 . S
C42 C43 1.377 . S
C42 C45 1.481 . S
C43 C42 1.377 . S
C43 C44 1.389 . S
C43 H65 0.929 . S
C44 C40 1.397 . S
C44 C43 1.389 . S
C44 H66 0.931 . S
C45 C42 1.481 . S
C45 C46 1.387 . S
C45 C50 1.390 . S
C46 C45 1.387 . S
C46 C47 1.401 . S
C46 H67 0.930 . S
C47 C46 1.401 . S
C47 C48 1.376 . S
C47 C56 1.511 . S
C48 C47 1.376 . S
C48 C49 1.392 . S
C48 H69 0.931 . S
C49 C48 1.392 . S
C49 C50 1.361 . S
C49 C51 1.500 . S
C50 C45 1.390 . S
C50 C49 1.361 . S
C50 H68 0.931 . S
C51 C49 1.500 . S
C51 C52 1.371 . S
C51 C53 1.365 . S
C52 C51 1.371 . S
C52 C62 1.386 . S
C52 H70 0.931 . S
C53 C51 1.365 . S
C53 C54 1.409 . S
C53 H71 0.929 . S
C54 C53 1.409 . S
C54 C55 1.380 . S
C54 H72 0.930 . S
C55 C54 1.380 . S
C55 C62 1.357 . S
C56 C47 1.511 . S
C56 C57 1.341 . S
C56 C58 1.371 . S
C57 C56 1.341 . S
C57 C61 1.394 . S
C57 H73 0.930 . S
C58 C56 1.371 . S
C58 C59 1.392 . S
C58 H74 0.931 . S
C59 C58 1.392 . S
C59 C60 1.331 . S
C59 H77 0.932 . S
C60 C59 1.331 . S
C60 C61 1.336 . S
C61 C57 1.394 . S
C61 C60 1.336 . S
C61 H76 0.929 . S
C62 C52 1.386 . S
C62 C55 1.357 . S
C62 H75 0.928 . S
H63 C39 0.931 . S
H64 C41 0.930 . S
H65 C43 0.929 . S
H66 C44 0.931 . S
H67 C46 0.930 . S
H68 C50 0.931 . S
H69 C48 0.931 . S
H70 C52 0.931 . S
H71 C53 0.929 . S
H72 C54 0.930 . S
H73 C57 0.930 . S
H74 C58 0.931 . S
H75 C62 0.928 . S
H76 C61 0.929 . S
H77 C59 0.932 . S
C78 C79 1.386 . S
C78 C80 1.397 . S
C78 H102 0.931 . S
C79 C78 1.386 . S
C79 C83 1.397 . S
C80 C78 1.397 . S
C80 C81 1.384 . S
C80 H103 0.930 . S
C81 C80 1.384 . S
C81 C82 1.377 . S
C81 C84 1.481 . S
C82 C81 1.377 . S
C82 C83 1.389 . S
C82 H104 0.929 . S
C83 C79 1.397 . S
C83 C82 1.389 . S
C83 H105 0.931 . S
C84 C81 1.481 . S
C84 C85 1.387 . S
C84 C89 1.390 . S
C85 C84 1.387 . S
C85 C86 1.401 . S
C85 H106 0.930 . S
C86 C85 1.401 . S
C86 C87 1.376 1_554 S
C86 C95 1.511 . S
C87 C86 1.376 1_556 S
C87 C88 1.392 . S
C87 H108 0.931 . S
C88 C87 1.392 . S
C88 C89 1.361 1_556 S
C88 C90 1.500 . S
C89 C84 1.390 . S
C89 C88 1.361 1_554 S
C89 H107 0.931 . S
C90 C88 1.500 . S
C90 C91 1.371 . S
C90 C92 1.365 . S
C91 C90 1.371 . S
C91 C101 1.386 . S
C91 H109 0.931 . S
C92 C90 1.365 . S
C92 C93 1.409 . S
C92 H110 0.929 . S
C93 C92 1.409 . S
C93 C94 1.380 . S
C93 H111 0.930 . S
C94 C93 1.380 . S
C94 C101 1.357 . S
C95 C86 1.511 . S
C95 C96 1.341 . S
C95 C97 1.371 1_554 S
C96 C95 1.341 . S
C96 C100 1.394 . S
C96 H112 0.930 . S
C97 C95 1.371 1_556 S
C97 C98 1.392 . S
C97 H113 0.931 . S
C98 C97 1.392 . S
C98 C99 1.331 1_556 S
C98 H116 0.932 . S
C99 C98 1.331 1_554 S
C99 C100 1.336 . S
C100 C96 1.394 . S
C100 C99 1.336 . S
C100 H115 0.929 . S
C101 C91 1.386 . S
C101 C94 1.357 . S
C101 H114 0.928 . S
H102 C78 0.931 . S
H103 C80 0.930 . S
H104 C82 0.929 . S
H105 C83 0.931 . S
H106 C85 0.930 . S
H107 C89 0.931 . S
H108 C87 0.931 . S
H109 C91 0.931 . S
H110 C92 0.929 . S
H111 C93 0.930 . S
H112 C96 0.930 . S
H113 C97 0.931 . S
H114 C101 0.928 . S
H115 C100 0.929 . S
H116 C98 0.932 . S
C117 C118 1.386 . S
C117 C119 1.397 . S
C117 H141 0.931 . S
C118 C117 1.386 . S
C118 C122 1.397 . S
C119 C117 1.397 . S
C119 C120 1.384 . S
C119 H142 0.930 . S
C120 C119 1.384 . S
C120 C121 1.377 . S
C120 C123 1.481 . S
C121 C120 1.377 . S
C121 C122 1.389 . S
C121 H143 0.929 . S
C122 C118 1.397 . S
C122 C121 1.389 . S
C122 H144 0.931 . S
C123 C120 1.481 . S
C123 C124 1.387 . S
C123 C128 1.390 . S
C124 C123 1.387 . S
C124 C125 1.401 . S
C124 H145 0.930 . S
C125 C124 1.401 . S
C125 C126 1.376 . S
C125 C134 1.511 . S
C126 C125 1.376 . S
C126 C127 1.392 . S
C126 H147 0.931 . S
C127 C126 1.392 . S
C127 C128 1.361 . S
C127 C129 1.500 . S
C128 C123 1.390 . S
C128 C127 1.361 . S
C128 H146 0.931 . S
C129 C127 1.500 . S
C129 C130 1.371 . S
C129 C131 1.365 . S
C130 C129 1.371 . S
C130 C140 1.386 . S
C130 H148 0.931 . S
C131 C129 1.365 . S
C131 C132 1.409 . S
C131 H149 0.929 . S
C132 C131 1.409 . S
C132 C133 1.380 . S
C132 H150 0.930 . S
C133 C132 1.380 . S
C133 C140 1.357 . S
C134 C125 1.511 . S
C134 C135 1.341 . S
C134 C136 1.371 . S
C135 C134 1.341 . S
C135 C139 1.394 . S
C135 H151 0.930 . S
C136 C134 1.371 . S
C136 C137 1.392 . S
C136 H152 0.931 . S
C137 C136 1.392 . S
C137 C138 1.331 . S
C137 H155 0.932 . S
C138 C137 1.331 . S
C138 C139 1.336 . S
C139 C135 1.394 . S
C139 C138 1.336 . S
C139 H154 0.929 . S
C140 C130 1.386 . S
C140 C133 1.357 . S
C140 H153 0.928 . S
H141 C117 0.931 . S
H142 C119 0.930 . S
H143 C121 0.929 . S
H144 C122 0.931 . S
H145 C124 0.930 . S
H146 C128 0.931 . S
H147 C126 0.931 . S
H148 C130 0.931 . S
H149 C131 0.929 . S
H150 C132 0.930 . S
H151 C135 0.930 . S
H152 C136 0.931 . S
H153 C140 0.928 . S
H154 C139 0.929 . S
H155 C137 0.932 . S
O156 Zn157 1.953 1_565 S
O156 C172 1.225 . S
Zn157 O156 1.953 1_545 S
Zn157 O158 1.949 1_655 S
Zn157 O164 1.919 . S
Zn157 O169 1.924 . S
O158 Zn157 1.949 1_455 S
O158 Zn159 1.923 . S
O158 Zn160 1.950 1_445 S
O158 Zn161 1.945 . S
Zn159 O158 1.923 . S
Zn159 O162 1.933 . S
Zn159 O165 1.941 . S
Zn159 O166 1.965 1_545 S
Zn160 O158 1.950 1_665 S
Zn160 O167 1.938 1_655 S
Zn160 O168 1.906 1_655 S
Zn160 O178 1.953 . S
Zn161 O158 1.945 . S
Zn161 O163 1.932 . S
Zn161 O170 1.977 1_545 S
Zn161 O171 1.910 1_455 S
O162 Zn159 1.933 . S
O162 C173 1.226 . S
O163 Zn161 1.932 . S
O163 C173 1.307 . S
O164 Zn157 1.919 . S
O164 C175 1.253 . S
O165 Zn159 1.941 . S
O165 C175 1.283 1_455 S
O166 Zn159 1.965 1_565 S
O166 C174 1.303 . S
O167 Zn160 1.938 1_455 S
O167 C174 1.247 . S
O168 Zn160 1.906 1_455 S
O168 C176 1.304 . S
O169 Zn157 1.924 . S
O169 C177 1.311 . S
O170 Zn161 1.977 1_565 S
O170 C176 1.272 . S
O171 Zn161 1.910 1_655 S
O171 C177 1.231 . S
C172 O156 1.225 . S
C172 O178 1.298 . S
C173 O162 1.226 . S
C173 O163 1.307 . S
C174 O166 1.303 . S
C174 O167 1.247 . S
C175 O164 1.253 . S
C175 O165 1.283 1_655 S
C176 O168 1.304 . S
C176 O170 1.272 . S
C177 O169 1.311 . S
C177 O171 1.231 . S
O178 Zn160 1.953 . S
O178 C172 1.298 . S
O179 Zn180 1.953 . S
O179 C195 1.225 1_556 S
Zn180 O179 1.953 . S
Zn180 O181 1.949 1_556 S
Zn180 O187 1.919 . S
Zn180 O192 1.924 1_556 S
O181 Zn180 1.949 1_554 S
O181 Zn182 1.923 1_554 S
O181 Zn183 1.950 . S
O181 Zn184 1.945 . S
Zn182 O181 1.923 1_556 S
Zn182 O185 1.933 . S
Zn182 O188 1.941 . S
Zn182 O189 1.965 . S
Zn183 O181 1.950 . S
Zn183 O190 1.938 1_554 S
Zn183 O191 1.906 . S
Zn183 O201 1.953 . S
Zn184 O181 1.945 . S
Zn184 O186 1.932 . S
Zn184 O193 1.977 . S
Zn184 O194 1.910 . S
O185 Zn182 1.933 . S
O185 C196 1.226 1_556 S
O186 Zn184 1.932 . S
O186 C196 1.307 . S
O187 Zn180 1.919 . S
O187 C198 1.253 . S
O188 Zn182 1.941 . S
O188 C198 1.283 . S
O189 Zn182 1.965 . S
O189 C197 1.303 . S
O190 Zn183 1.938 1_556 S
O190 C197 1.247 . S
O191 Zn183 1.906 . S
O191 C199 1.304 . S
O192 Zn180 1.924 1_554 S
O192 C200 1.311 . S
O193 Zn184 1.977 . S
O193 C199 1.272 . S
O194 Zn184 1.910 . S
O194 C200 1.231 . S
C195 O179 1.225 1_554 S
C195 O201 1.298 . S
C196 O185 1.226 1_554 S
C196 O186 1.307 . S
C197 O189 1.303 . S
C197 O190 1.247 . S
C198 O187 1.253 . S
C198 O188 1.283 . S
C199 O191 1.304 . S
C199 O193 1.272 . S
C200 O192 1.311 . S
C200 O194 1.231 . S
O201 Zn183 1.953 . S
O201 C195 1.298 . S
C202 C203 1.391 . S
C202 C204 1.394 . S
C202 H218 0.931 . S
C203 C202 1.391 . S
C203 C207 1.376 . S
C204 C202 1.394 . S
C204 C205 1.369 . S
C204 C208 1.531 . S
C205 C204 1.369 . S
C205 C206 1.410 . S
C205 C213 1.503 . S
C206 C205 1.410 . S
C206 C207 1.392 . S
C206 C209 1.511 . S
C207 C203 1.376 . S
C207 C206 1.392 . S
C207 H219 0.929 . S
C208 C204 1.531 . S
C208 H220 0.960 . S
C208 H221 0.962 . S
C208 H222 0.960 . S
C209 C206 1.511 . S
C209 H223 0.961 . S
C209 H224 0.961 . S
C209 H225 0.961 . S
C210 C211 1.370 . S
C210 C212 1.363 . S
C210 H226 0.931 . S
C211 C210 1.370 . S
C211 C215 1.408 . S
C212 C210 1.363 . S
C212 C213 1.370 . S
C212 C216 1.524 . S
C213 C205 1.503 . S
C213 C212 1.370 . S
C213 C214 1.403 . S
C214 C213 1.403 . S
C214 C215 1.404 . S
C214 C217 1.539 . S
C215 C211 1.408 . S
C215 C214 1.404 . S
C215 H227 0.930 . S
C216 C212 1.524 . S
C216 H228 0.956 . S
C216 H229 0.961 . S
C216 H230 0.961 . S
C217 C214 1.539 . S
C217 H231 0.958 . S
C217 H232 0.961 . S
C217 H233 0.960 . S
H218 C202 0.931 . S
H219 C207 0.929 . S
H220 C208 0.960 . S
H221 C208 0.962 . S
H222 C208 0.960 . S
H223 C209 0.961 . S
H224 C209 0.961 . S
H225 C209 0.961 . S
H226 C210 0.931 . S
H227 C215 0.930 . S
H228 C216 0.956 . S
H229 C216 0.961 . S
H230 C216 0.961 . S
H231 C217 0.958 . S
H232 C217 0.961 . S
H233 C217 0.960 . S
C234 C235 1.391 1_556 S
C234 C236 1.394 . S
C234 H250 0.931 . S
C235 C234 1.391 1_554 S
C235 C239 1.376 . S
C236 C234 1.394 . S
C236 C237 1.369 1_556 S
C236 C240 1.531 . S
C237 C236 1.369 1_554 S
C237 C238 1.410 . S
C237 C245 1.503 . S
C238 C237 1.410 . S
C238 C239 1.392 . S
C238 C241 1.511 . S
C239 C235 1.376 . S
C239 C238 1.392 . S
C239 H251 0.929 . S
C240 C236 1.531 . S
C240 H252 0.960 . S
C240 H253 0.962 . S
C240 H254 0.960 . S
C241 C238 1.511 . S
C241 H255 0.961 . S
C241 H256 0.961 . S
C241 H257 0.961 . S
C242 C243 1.370 1_556 S
C242 C244 1.363 . S
C242 H258 0.931 . S
C243 C242 1.370 1_554 S
C243 C247 1.408 . S
C244 C242 1.363 . S
C244 C245 1.370 1_556 S
C244 C248 1.524 . S
C245 C237 1.503 . S
C245 C244 1.370 1_554 S
C245 C246 1.403 . S
C246 C245 1.403 . S
C246 C247 1.404 . S
C246 C249 1.539 . S
C247 C243 1.408 . S
C247 C246 1.404 . S
C247 H259 0.930 . S
C248 C244 1.524 . S
C248 H260 0.956 . S
C248 H261 0.961 . S
C248 H262 0.961 . S
C249 C246 1.539 . S
C249 H263 0.958 . S
C249 H264 0.961 . S
C249 H265 0.960 . S
H250 C234 0.931 . S
H251 C239 0.929 . S
H252 C240 0.960 . S
H253 C240 0.962 . S
H254 C240 0.960 . S
H255 C241 0.961 . S
H256 C241 0.961 . S
H257 C241 0.961 . S
H258 C242 0.931 . S
H259 C247 0.930 . S
H260 C248 0.956 . S
H261 C248 0.961 . S
H262 C248 0.961 . S
H263 C249 0.958 . S
H264 C249 0.961 . S
H265 C249 0.960 . S
C266 C267 1.391 . S
C266 C268 1.394 . S
C266 H282 0.931 . S
C267 C266 1.391 . S
C267 C271 1.376 . S
C268 C266 1.394 . S
C268 C269 1.369 . S
C268 C272 1.531 . S
C269 C268 1.369 . S
C269 C270 1.410 . S
C269 C277 1.503 . S
C270 C269 1.410 . S
C270 C271 1.392 . S
C270 C273 1.511 . S
C271 C267 1.376 . S
C271 C270 1.392 . S
C271 H283 0.929 . S
C272 C268 1.531 . S
C272 H284 0.960 . S
C272 H285 0.962 . S
C272 H286 0.960 . S
C273 C270 1.511 . S
C273 H287 0.961 . S
C273 H288 0.961 . S
C273 H289 0.961 . S
C274 C275 1.370 . S
C274 C276 1.363 . S
C274 H290 0.931 . S
C275 C274 1.370 . S
C275 C279 1.408 . S
C276 C274 1.363 . S
C276 C277 1.370 . S
C276 C280 1.524 . S
C277 C269 1.503 . S
C277 C276 1.370 . S
C277 C278 1.403 . S
C278 C277 1.403 . S
C278 C279 1.404 . S
C278 C281 1.539 . S
C279 C275 1.408 . S
C279 C278 1.404 . S
C279 H291 0.930 . S
C280 C276 1.524 . S
C280 H292 0.956 . S
C280 H293 0.961 . S
C280 H294 0.961 . S
C281 C278 1.539 . S
C281 H295 0.958 . S
C281 H296 0.961 1_565 S
C281 H297 0.960 . S
H282 C266 0.931 . S
H283 C271 0.929 . S
H284 C272 0.960 . S
H285 C272 0.962 . S
H286 C272 0.960 . S
H287 C273 0.961 . S
H288 C273 0.961 . S
H289 C273 0.961 . S
H290 C274 0.931 . S
H291 C279 0.930 . S
H292 C280 0.956 . S
H293 C280 0.961 . S
H294 C280 0.961 . S
H295 C281 0.958 . S
H296 C281 0.961 1_545 S
H297 C281 0.960 . S
C298 C299 1.391 . S
C298 C300 1.394 . S
C298 H314 0.931 . S
C299 C298 1.391 . S
C299 C303 1.376 1_554 S
C300 C298 1.394 . S
C300 C301 1.369 . S
C300 C304 1.531 . S
C301 C300 1.369 . S
C301 C302 1.410 1_554 S
C301 C309 1.503 . S
C302 C301 1.410 1_556 S
C302 C303 1.392 . S
C302 C305 1.511 . S
C303 C299 1.376 1_556 S
C303 C302 1.392 . S
C303 H315 0.929 . S
C304 C300 1.531 . S
C304 H316 0.960 . S
C304 H317 0.962 . S
C304 H318 0.960 . S
C305 C302 1.511 . S
C305 H319 0.961 . S
C305 H320 0.961 . S
C305 H321 0.961 . S
C306 C307 1.370 1_556 S
C306 C308 1.363 . S
C306 H322 0.931 . S
C307 C306 1.370 1_554 S
C307 C311 1.408 . S
C308 C306 1.363 . S
C308 C309 1.370 1_556 S
C308 C312 1.524 . S
C309 C301 1.503 . S
C309 C308 1.370 1_554 S
C309 C310 1.403 . S
C310 C309 1.403 . S
C310 C311 1.404 . S
C310 C313 1.539 . S
C311 C307 1.408 . S
C311 C310 1.404 . S
C311 H323 0.930 . S
C312 C308 1.524 . S
C312 H324 0.956 1_556 S
C312 H325 0.961 . S
C312 H326 0.961 . S
C313 C310 1.539 . S
C313 H327 0.958 . S
C313 H328 0.961 . S
C313 H329 0.960 . S
H314 C298 0.931 . S
H315 C303 0.929 . S
H316 C304 0.960 . S
H317 C304 0.962 . S
H318 C304 0.960 . S
H319 C305 0.961 . S
H320 C305 0.961 . S
H321 C305 0.961 . S
H322 C306 0.931 . S
H323 C311 0.930 . S
H324 C312 0.956 1_554 S
H325 C312 0.961 . S
H326 C312 0.961 . S
H327 C313 0.958 . S
H328 C313 0.961 . S
H329 C313 0.960 . S
C330 C331 1.391 . S
C330 C332 1.394 . S
C330 H346 0.931 . S
C331 C330 1.391 . S
C331 C335 1.376 . S
C332 C330 1.394 . S
C332 C333 1.369 . S
C332 C336 1.531 . S
C333 C332 1.369 . S
C333 C334 1.410 . S
C333 C341 1.503 . S
C334 C333 1.410 . S
C334 C335 1.392 . S
C334 C337 1.511 . S
C335 C331 1.376 . S
C335 C334 1.392 . S
C335 H347 0.929 . S
C336 C332 1.531 . S
C336 H348 0.960 . S
C336 H349 0.962 1_455 S
C336 H350 0.960 . S
C337 C334 1.511 . S
C337 H351 0.961 . S
C337 H352 0.961 . S
C337 H353 0.961 . S
C338 C339 1.370 . S
C338 C340 1.363 . S
C338 H354 0.931 . S
C339 C338 1.370 . S
C339 C343 1.408 . S
C340 C338 1.363 . S
C340 C341 1.370 . S
C340 C344 1.524 . S
C341 C333 1.503 . S
C341 C340 1.370 . S
C341 C342 1.403 . S
C342 C341 1.403 . S
C342 C343 1.404 . S
C342 C345 1.539 . S
C343 C339 1.408 . S
C343 C342 1.404 . S
C343 H355 0.930 . S
C344 C340 1.524 . S
C344 H356 0.956 . S
C344 H357 0.961 . S
C344 H358 0.961 . S
C345 C342 1.539 . S
C345 H359 0.958 . S
C345 H360 0.961 . S
C345 H361 0.960 . S
H346 C330 0.931 . S
H347 C335 0.929 . S
H348 C336 0.960 . S
H349 C336 0.962 1_655 S
H350 C336 0.960 . S
H351 C337 0.961 . S
H352 C337 0.961 . S
H353 C337 0.961 . S
H354 C338 0.931 . S
H355 C343 0.930 . S
H356 C344 0.956 . S
H357 C344 0.961 . S
H358 C344 0.961 . S
H359 C345 0.958 . S
H360 C345 0.961 . S
H361 C345 0.960 . S
C362 C363 1.391 . S
C362 C364 1.394 . S
C362 H378 0.931 . S
C363 C362 1.391 . S
C363 C367 1.376 . S
C364 C362 1.394 . S
C364 C365 1.369 . S
C364 C368 1.531 . S
C365 C364 1.369 . S
C365 C366 1.410 . S
C365 C373 1.503 . S
C366 C365 1.410 . S
C366 C367 1.392 . S
C366 C369 1.511 . S
C367 C363 1.376 . S
C367 C366 1.392 . S
C367 H379 0.929 . S
C368 C364 1.531 . S
C368 H380 0.960 . S
C368 H381 0.962 . S
C368 H382 0.960 . S
C369 C366 1.511 . S
C369 H383 0.961 . S
C369 H384 0.961 . S
C369 H385 0.961 . S
C370 C371 1.370 . S
C370 C372 1.363 . S
C370 H386 0.931 . S
C371 C370 1.370 . S
C371 C375 1.408 . S
C372 C370 1.363 . S
C372 C373 1.370 . S
C372 C376 1.524 . S
C373 C365 1.503 . S
C373 C372 1.370 . S
C373 C374 1.403 . S
C374 C373 1.403 . S
C374 C375 1.404 . S
C374 C377 1.539 . S
C375 C371 1.408 . S
C375 C374 1.404 . S
C375 H387 0.930 . S
C376 C372 1.524 . S
C376 H388 0.956 . S
C376 H389 0.961 . S
C376 H390 0.961 . S
C377 C374 1.539 . S
C377 H391 0.958 . S
C377 H392 0.961 . S
C377 H393 0.960 . S
H378 C362 0.931 . S
H379 C367 0.929 . S
H380 C368 0.960 . S
H381 C368 0.962 . S
H382 C368 0.960 . S
H383 C369 0.961 . S
H384 C369 0.961 . S
H385 C369 0.961 . S
H386 C370 0.931 . S
H387 C375 0.930 . S
H388 C376 0.956 . S
H389 C376 0.961 . S
H390 C376 0.961 . S
H391 C377 0.958 . S
H392 C377 0.961 . S
H393 C377 0.960 . S
C394 C395 1.391 . S
C394 C396 1.394 . S
C394 H410 0.931 . S
C395 C394 1.391 . S
C395 C399 1.376 . S
C396 C394 1.394 . S
C396 C397 1.369 . S
C396 C400 1.531 . S
C397 C396 1.369 . S
C397 C398 1.410 . S
C397 C405 1.503 . S
C398 C397 1.410 . S
C398 C399 1.392 . S
C398 C401 1.511 . S
C399 C395 1.376 . S
C399 C398 1.392 . S
C399 H411 0.929 . S
C400 C396 1.531 . S
C400 H412 0.960 . S
C400 H413 0.962 . S
C400 H414 0.960 . S
C401 C398 1.511 . S
C401 H415 0.961 . S
C401 H416 0.961 . S
C401 H417 0.961 1_655 S
C402 C403 1.370 . S
C402 C404 1.363 . S
C402 H418 0.931 . S
C403 C402 1.370 . S
C403 C407 1.408 . S
C404 C402 1.363 . S
C404 C405 1.370 . S
C404 C408 1.524 . S
C405 C397 1.503 . S
C405 C404 1.370 . S
C405 C406 1.403 . S
C406 C405 1.403 . S
C406 C407 1.404 . S
C406 C409 1.539 . S
C407 C403 1.408 . S
C407 C406 1.404 . S
C407 H419 0.930 . S
C408 C404 1.524 . S
C408 H420 0.956 . S
C408 H421 0.961 . S
C408 H422 0.961 . S
C409 C406 1.539 . S
C409 H423 0.958 . S
C409 H424 0.961 1_655 S
C409 H425 0.960 . S
H410 C394 0.931 . S
H411 C399 0.929 . S
H412 C400 0.960 . S
H413 C400 0.962 . S
H414 C400 0.960 . S
H415 C401 0.961 . S
H416 C401 0.961 . S
H417 C401 0.961 1_455 S
H418 C402 0.931 . S
H419 C407 0.930 . S
H420 C408 0.956 . S
H421 C408 0.961 . S
H422 C408 0.961 . S
H423 C409 0.958 . S
H424 C409 0.961 1_455 S
H425 C409 0.960 . S
C426 C427 1.391 . S
C426 C428 1.394 . S
C426 H442 0.931 . S
C427 C426 1.391 . S
C427 C431 1.376 . S
C428 C426 1.394 . S
C428 C429 1.369 . S
C428 C432 1.531 . S
C429 C428 1.369 . S
C429 C430 1.410 . S
C429 C437 1.503 . S
C430 C429 1.410 . S
C430 C431 1.392 . S
C430 C433 1.511 . S
C431 C427 1.376 . S
C431 C430 1.392 . S
C431 H443 0.929 . S
C432 C428 1.531 . S
C432 H444 0.960 . S
C432 H445 0.962 . S
C432 H446 0.960 . S
C433 C430 1.511 . S
C433 H447 0.961 . S
C433 H448 0.961 . S
C433 H449 0.961 . S
C434 C435 1.370 . S
C434 C436 1.363 . S
C434 H450 0.931 . S
C435 C434 1.370 . S
C435 C439 1.408 . S
C436 C434 1.363 . S
C436 C437 1.370 . S
C436 C440 1.524 . S
C437 C429 1.503 . S
C437 C436 1.370 . S
C437 C438 1.403 . S
C438 C437 1.403 . S
C438 C439 1.404 . S
C438 C441 1.539 . S
C439 C435 1.408 . S
C439 C438 1.404 . S
C439 H451 0.930 . S
C440 C436 1.524 . S
C440 H452 0.956 . S
C440 H453 0.961 . S
C440 H454 0.961 . S
C441 C438 1.539 . S
C441 H455 0.958 . S
C441 H456 0.961 . S
C441 H457 0.960 . S
H442 C426 0.931 . S
H443 C431 0.929 . S
H444 C432 0.960 . S
H445 C432 0.962 . S
H446 C432 0.960 . S
H447 C433 0.961 . S
H448 C433 0.961 . S
H449 C433 0.961 . S
H450 C434 0.931 . S
H451 C439 0.930 . S
H452 C440 0.956 . S
H453 C440 0.961 . S
H454 C440 0.961 . S
H455 C441 0.958 . S
H456 C441 0.961 . S
H457 C441 0.960 . S
C458 C459 1.391 . S
C458 C460 1.394 . S
C458 H474 0.931 . S
C459 C458 1.391 . S
C459 C463 1.376 . S
C460 C458 1.394 . S
C460 C461 1.369 . S
C460 C464 1.531 . S
C461 C460 1.369 . S
C461 C462 1.410 . S
C461 C469 1.503 . S
C462 C461 1.410 . S
C462 C463 1.392 . S
C462 C465 1.511 . S
C463 C459 1.376 . S
C463 C462 1.392 . S
C463 H475 0.929 . S
C464 C460 1.531 . S
C464 H476 0.960 . S
C464 H477 0.962 . S
C464 H478 0.960 . S
C465 C462 1.511 . S
C465 H479 0.961 . S
C465 H480 0.961 . S
C465 H481 0.961 . S
C466 C467 1.370 . S
C466 C468 1.363 . S
C466 H482 0.931 . S
C467 C466 1.370 . S
C467 C471 1.408 . S
C468 C466 1.363 . S
C468 C469 1.370 . S
C468 C472 1.524 . S
C469 C461 1.503 . S
C469 C468 1.370 . S
C469 C470 1.403 . S
C470 C469 1.403 . S
C470 C471 1.404 . S
C470 C473 1.539 . S
C471 C467 1.408 . S
C471 C470 1.404 . S
C471 H483 0.930 . S
C472 C468 1.524 . S
C472 H484 0.956 . S
C472 H485 0.961 . S
C472 H486 0.961 . S
C473 C470 1.539 . S
C473 H487 0.958 . S
C473 H488 0.961 . S
C473 H489 0.960 . S
H474 C458 0.931 . S
H475 C463 0.929 . S
H476 C464 0.960 . S
H477 C464 0.962 . S
H478 C464 0.960 . S
H479 C465 0.961 . S
H480 C465 0.961 . S
H481 C465 0.961 . S
H482 C466 0.931 . S
H483 C471 0.930 . S
H484 C472 0.956 . S
H485 C472 0.961 . S
H486 C472 0.961 . S
H487 C473 0.958 . S
H488 C473 0.961 . S
H489 C473 0.960 . S
C490 C491 1.391 . S
C490 C492 1.394 . S
C490 H506 0.931 . S
C491 C490 1.391 . S
C491 C495 1.376 . S
C492 C490 1.394 . S
C492 C493 1.369 . S
C492 C496 1.531 . S
C493 C492 1.369 . S
C493 C494 1.410 . S
C493 C501 1.503 . S
C494 C493 1.410 . S
C494 C495 1.392 . S
C494 C497 1.511 1_655 S
C495 C491 1.376 . S
C495 C494 1.392 . S
C495 H507 0.929 . S
C496 C492 1.531 . S
C496 H508 0.960 . S
C496 H509 0.962 . S
C496 H510 0.960 . S
C497 C494 1.511 1_455 S
C497 H511 0.961 . S
C497 H512 0.961 . S
C497 H513 0.961 1_455 S
C498 C499 1.370 . S
C498 C500 1.363 . S
C498 H514 0.931 1_655 S
C499 C498 1.370 . S
C499 C503 1.408 . S
C500 C498 1.363 . S
C500 C501 1.370 . S
C500 C504 1.524 . S
C501 C493 1.503 . S
C501 C500 1.370 . S
C501 C502 1.403 . S
C502 C501 1.403 . S
C502 C503 1.404 . S
C502 C505 1.539 . S
C503 C499 1.408 . S
C503 C502 1.404 . S
C503 H515 0.930 . S
C504 C500 1.524 . S
C504 H516 0.956 . S
C504 H517 0.961 1_655 S
C504 H518 0.961 1_655 S
C505 C502 1.539 . S
C505 H519 0.958 . S
C505 H520 0.961 . S
C505 H521 0.960 . S
H506 C490 0.931 . S
H507 C495 0.929 . S
H508 C496 0.960 . S
H509 C496 0.962 . S
H510 C496 0.960 . S
H511 C497 0.961 . S
H512 C497 0.961 . S
H513 C497 0.961 1_655 S
H514 C498 0.931 1_455 S
H515 C503 0.930 . S
H516 C504 0.956 . S
H517 C504 0.961 1_455 S
H518 C504 0.961 1_455 S
H519 C505 0.958 . S
H520 C505 0.961 . S
H521 C505 0.960 . S
C522 C523 1.391 . S
C522 C524 1.394 . S
C522 H538 0.931 . S
C523 C522 1.391 . S
C523 C527 1.376 . S
C524 C522 1.394 . S
C524 C525 1.369 . S
C524 C528 1.531 . S
C525 C524 1.369 . S
C525 C526 1.410 . S
C525 C533 1.503 . S
C526 C525 1.410 . S
C526 C527 1.392 . S
C526 C529 1.511 . S
C527 C523 1.376 . S
C527 C526 1.392 . S
C527 H539 0.929 . S
C528 C524 1.531 . S
C528 H540 0.960 . S
C528 H541 0.962 . S
C528 H542 0.960 . S
C529 C526 1.511 . S
C529 H543 0.961 . S
C529 H544 0.961 . S
C529 H545 0.961 . S
C530 C531 1.370 . S
C530 C532 1.363 . S
C530 H546 0.931 . S
C531 C530 1.370 . S
C531 C535 1.408 . S
C532 C530 1.363 . S
C532 C533 1.370 . S
C532 C536 1.524 . S
C533 C525 1.503 . S
C533 C532 1.370 . S
C533 C534 1.403 . S
C534 C533 1.403 . S
C534 C535 1.404 . S
C534 C537 1.539 . S
C535 C531 1.408 . S
C535 C534 1.404 . S
C535 H547 0.930 . S
C536 C532 1.524 . S
C536 H548 0.956 . S
C536 H549 0.961 . S
C536 H550 0.961 . S
C537 C534 1.539 . S
C537 H551 0.958 . S
C537 H552 0.961 . S
C537 H553 0.960 . S
H538 C522 0.931 . S
H539 C527 0.929 . S
H540 C528 0.960 . S
H541 C528 0.962 . S
H542 C528 0.960 . S
H543 C529 0.961 . S
H544 C529 0.961 . S
H545 C529 0.961 . S
H546 C530 0.931 . S
H547 C535 0.930 . S
H548 C536 0.956 . S
H549 C536 0.961 . S
H550 C536 0.961 . S
H551 C537 0.958 . S
H552 C537 0.961 . S
H553 C537 0.960 . S
C554 C555 1.391 . S
C554 C556 1.394 . S
C554 H570 0.931 . S
C555 C554 1.391 . S
C555 C559 1.376 . S
C556 C554 1.394 . S
C556 C557 1.369 . S
C556 C560 1.531 . S
C557 C556 1.369 . S
C557 C558 1.410 . S
C557 C565 1.503 . S
C558 C557 1.410 . S
C558 C559 1.392 . S
C558 C561 1.511 . S
C559 C555 1.376 . S
C559 C558 1.392 . S
C559 H571 0.929 . S
C560 C556 1.531 . S
C560 H572 0.960 . S
C560 H573 0.962 . S
C560 H574 0.960 . S
C561 C558 1.511 . S
C561 H575 0.961 . S
C561 H576 0.961 . S
C561 H577 0.961 . S
C562 C563 1.370 . S
C562 C564 1.363 . S
C562 H578 0.931 1_455 S
C563 C562 1.370 . S
C563 C567 1.408 . S
C564 C562 1.363 . S
C564 C565 1.370 . S
C564 C568 1.524 1_455 S
C565 C557 1.503 . S
C565 C564 1.370 . S
C565 C566 1.403 . S
C566 C565 1.403 . S
C566 C567 1.404 . S
C566 C569 1.539 . S
C567 C563 1.408 . S
C567 C566 1.404 . S
C567 H579 0.930 . S
C568 C564 1.524 1_655 S
C568 H580 0.956 . S
C568 H581 0.961 . S
C568 H582 0.961 . S
C569 C566 1.539 . S
C569 H583 0.958 . S
C569 H584 0.961 . S
C569 H585 0.960 . S
H570 C554 0.931 . S
H571 C559 0.929 . S
H572 C560 0.960 . S
H573 C560 0.962 . S
H574 C560 0.960 . S
H575 C561 0.961 . S
H576 C561 0.961 . S
H577 C561 0.961 . S
H578 C562 0.931 1_655 S
H579 C567 0.930 . S
H580 C568 0.956 . S
H581 C568 0.961 . S
H582 C568 0.961 . S
H583 C569 0.958 . S
H584 C569 0.961 . S
H585 C569 0.960 . S
C211 C173 1.650 . S
C203 C138 1.607 . S
C235 C21 1.616 . S
C243 C196 1.650 . S
C267 C60 1.654 . S
C275 C172 1.661 . S
C299 C99 1.651 . S
C307 C195 1.661 . S
C339 C176 1.634 . S
C331 C16 1.658 . S
C371 C198 1.626 . S
C363 C40 1.616 . S
C395 C79 1.654 . S
C403 C177 1.621 . S
C427 C133 1.630 . S
C435 C197 1.609 . S
C467 C200 1.616 . S
C459 C55 1.684 . S
C499 C175 1.636 . S
C491 C94 1.645 . S
C531 C199 1.621 . S
C523 C118 1.629 . S
C555 C1 1.612 . S
C563 C174 1.593 . S
