# Generated by pormake.
# Topology pts, (4,4)-cn, num edge types: 1
# Building blocks:
#     Node 0, Type 0, BuildingBlock: AZAVOO_clean_linker_0, # of connection points: 4
#     Node 1, Type 0, BuildingBlock: AZAVOO_clean_linker_0, # of connection points: 4
#     Node 2, Type 1, BuildingBlock: UXUYUI_clean_sbu_0, # of connection points: 4
#     Node 3, Type 1, BuildingBlock: UXUYUI_clean_sbu_0, # of connection points: 4
#     Edge 4, Type (0, 1), BuildingBlock: KIFKEQ_clean_linker_1, # of connection points: 2
#     Edge 5, Type (0, 1), BuildingBlock: KIFKEQ_clean_linker_1, # of connection points: 2
#     Edge 6, Type (0, 1), BuildingBlock: KIFKEQ_clean_linker_1, # of connection points: 2
#     Edge 7, Type (0, 1), BuildingBlock: KIFKEQ_clean_linker_1, # of connection points: 2
#     Edge 8, Type (0, 1), BuildingBlock: KIFKEQ_clean_linker_1, # of connection points: 2
#     Edge 9, Type (0, 1), BuildingBlock: KIFKEQ_clean_linker_1, # of connection points: 2
#     Edge 10, Type (0, 1), BuildingBlock: KIFKEQ_clean_linker_1, # of connection points: 2
#     Edge 11, Type (0, 1), BuildingBlock: KIFKEQ_clean_linker_1, # of connection points: 2
# Relax obj value: 0.120
# Max RMSD: 0.231
# Mean RMSD: 0.163
data_MOF--net-pts--node1-UXUYUI_clean_sbu_0--node2-AZAVOO_clean_linker_0--edge1-KIFKEQ_clean_linker_1
_symmetry_space_group_name_H-M    P1
_symmetry_Int_Tables_number       1
_symmetry_cell_setting            triclinic
loop_
_symmetry_equiv_pos_as_xyz
'x, y, z'
_cell_length_a     32.724278
_cell_length_b     32.730797
_cell_length_c     56.426711
_cell_angle_alpha  91.468325
_cell_angle_beta   91.464207
_cell_angle_gamma 90.025085
loop_
_atom_site_label
_atom_site_type_symbol
_atom_site_fract_x
_atom_site_fract_y
_atom_site_fract_z
_atom_type_partial_charge
H0 H 0.45998 0.07374 0.85796 0.0
H1 H 0.80377 0.03467 0.06736 0.0
H2 H 0.46351 0.1282 0.99413 0.0
H3 H 0.3991 0.13219 0.9713 0.0
H4 H 0.39344 0.00033 0.96698 0.0
H5 H 0.45778 0.99668 0.99001 0.0
H6 H 0.51206 0.11788 0.95518 0.0
H7 H 0.48816 0.11163 0.91381 0.0
H8 H 0.51348 0.98196 0.91419 0.0
H9 H 0.53673 0.9886 0.95572 0.0
H10 H 0.5992 0.11416 0.959 0.0
H11 H 0.64856 0.10929 0.92711 0.0
H12 H 0.68135 0.98778 0.94884 0.0
H13 H 0.63113 0.99245 0.98032 0.0
H14 H 0.64097 0.12465 0.01778 0.0
H15 H 0.71095 0.12928 0.03407 0.0
H16 H 0.71085 0.99889 0.04469 0.0
H17 H 0.64094 0.99476 0.0283 0.0
H18 H 0.57722 0.12939 0.05802 0.0
H19 H 0.6216 0.13534 0.09349 0.0
H20 H 0.62578 0.00361 0.09696 0.0
H21 H 0.58065 0.99818 0.06187 0.0
H22 H 0.47264 0.12537 0.0392 0.0
H23 H 0.41784 0.12558 0.06787 0.0
H24 H 0.44451 0.99933 0.08303 0.0
H25 H 0.49784 0.99904 0.05344 0.0
O26 O 0.46984 0.07557 0.87427 0.0
O27 O 0.48441 0.00925 0.87518 0.0
O28 O 0.77571 0.10021 0.05354 0.0
O29 O 0.77672 0.03348 0.06002 0.0
C30 C 0.50857 0.06018 0.00144 0.0
C31 C 0.53852 0.05711 0.98386 0.0
C32 C 0.58034 0.05597 0.99047 0.0
C33 C 0.59215 0.05768 0.01465 0.0
C34 C 0.56215 0.05994 0.03226 0.0
C35 C 0.52031 0.06113 0.0257 0.0
C36 C 0.46502 0.06216 0.99384 0.0
C37 C 0.44747 0.10022 0.98909 0.0
C38 C 0.41103 0.10244 0.9758 0.0
C39 C 0.3916 0.06657 0.96715 0.0
C40 C 0.40762 0.02844 0.97356 0.0
C41 C 0.44423 0.02627 0.98676 0.0
C42 C 0.52583 0.05365 0.95843 0.0
C43 C 0.51231 0.08816 0.94629 0.0
C44 C 0.49876 0.0845 0.92266 0.0
C45 C 0.4988 0.04626 0.9107 0.0
C46 C 0.51297 0.01183 0.92288 0.0
C47 C 0.52635 0.01553 0.94656 0.0
C48 C 0.61167 0.05368 0.97196 0.0
C49 C 0.61698 0.08648 0.95682 0.0
C50 C 0.64501 0.08362 0.93862 0.0
C51 C 0.66862 0.04813 0.93553 0.0
C52 C 0.66372 0.01558 0.95098 0.0
C53 C 0.63521 0.01823 0.96895 0.0
C54 C 0.63609 0.05938 0.0218 0.0
C55 C 0.65642 0.09706 0.02328 0.0
C56 C 0.69626 0.09964 0.03272 0.0
C57 C 0.71642 0.06446 0.04081 0.0
C58 C 0.69621 0.02656 0.03869 0.0
C59 C 0.65638 0.02406 0.02923 0.0
C60 C 0.57584 0.06338 0.05744 0.0
C61 C 0.58619 0.10195 0.06713 0.0
C62 C 0.61203 0.10522 0.08717 0.0
C63 C 0.62793 0.06993 0.09772 0.0
C64 C 0.61397 0.0314 0.08935 0.0
C65 C 0.58802 0.02819 0.06934 0.0
C66 C 0.48886 0.06209 0.04411 0.0
C67 C 0.46644 0.09776 0.04866 0.0
C68 C 0.43542 0.0979 0.06524 0.0
C69 C 0.42658 0.0624 0.07774 0.0
C70 C 0.44993 0.02698 0.07345 0.0
C71 C 0.48068 0.02682 0.05673 0.0
C72 C 0.48399 0.04242 0.88566 0.0
C73 C 0.75808 0.06728 0.05177 0.0
H74 H 0.03571 0.49086 0.35613 0.0
H75 H 0.11168 0.81186 0.55598 0.0
H76 H 0.00366 0.47209 0.48228 0.0
H77 H 0.00351 0.40693 0.46044 0.0
H78 H 0.12807 0.3856 0.48452 0.0
H79 H 0.12828 0.45201 0.50559 0.0
H80 H 0.00893 0.54974 0.45323 0.0
H81 H 0.00864 0.5294 0.41119 0.0
H82 H 0.13219 0.48421 0.41974 0.0
H83 H 0.13225 0.50526 0.46168 0.0
H84 H 0.00797 0.63087 0.48024 0.0
H85 H 0.00583 0.68108 0.44878 0.0
H86 H 0.13201 0.65457 0.43363 0.0
H87 H 0.13392 0.6046 0.46533 0.0
H88 H 0.00808 0.63866 0.53423 0.0
H89 H 0.00966 0.70964 0.54893 0.0
H90 H 0.13742 0.71743 0.5317 0.0
H91 H 0.13552 0.64615 0.51741 0.0
H92 H 0.00433 0.56614 0.56235 0.0
H93 H 0.99801 0.60694 0.59911 0.0
H94 H 0.1278 0.63097 0.59981 0.0
H95 H 0.13379 0.59043 0.56297 0.0
H96 H 0.00457 0.47476 0.53939 0.0
H97 H 0.00327 0.42047 0.56853 0.0
H98 H 0.13112 0.44214 0.58545 0.0
H99 H 0.1321 0.49625 0.55619 0.0
O100 O 0.0366 0.49895 0.37275 0.0
O101 O 0.09998 0.47587 0.37813 0.0
O102 O 0.04461 0.77797 0.55902 0.0
O103 O 0.1101 0.78387 0.55006 0.0
C104 C 0.06893 0.5102 0.5033 0.0
C105 C 0.07045 0.54076 0.48606 0.0
C106 C 0.0714 0.58237 0.49316 0.0
C107 C 0.07131 0.59347 0.51743 0.0
C108 C 0.07074 0.56289 0.5347 0.0
C109 C 0.06946 0.52124 0.52766 0.0
C110 C 0.06605 0.46679 0.49534 0.0
C111 C 0.03053 0.45281 0.48332 0.0
C112 C 0.03052 0.41544 0.4709 0.0
C113 C 0.06598 0.39115 0.47048 0.0
C114 C 0.10053 0.40392 0.48412 0.0
C115 C 0.10058 0.44155 0.49642 0.0
C116 C 0.07065 0.52908 0.46044 0.0
C117 C 0.036 0.53574 0.44593 0.0
C118 C 0.03587 0.52395 0.42195 0.0
C119 C 0.07039 0.50515 0.4121 0.0
C120 C 0.1051 0.49861 0.42675 0.0
C121 C 0.10522 0.51056 0.4507 0.0
C122 C 0.07111 0.6143 0.47503 0.0
C123 C 0.0352 0.63623 0.47024 0.0
C124 C 0.03395 0.66455 0.45217 0.0
C125 C 0.0687 0.67153 0.43869 0.0
C126 C 0.10488 0.65 0.44385 0.0
C127 C 0.10602 0.62146 0.46185 0.0
C128 C 0.07173 0.63731 0.52489 0.0
C129 C 0.03634 0.6558 0.53364 0.0
C130 C 0.03734 0.69633 0.542 0.0
C131 C 0.07372 0.71919 0.54155 0.0
C132 C 0.10894 0.70069 0.53235 0.0
C133 C 0.10793 0.66006 0.52409 0.0
C134 C 0.06948 0.57552 0.56005 0.0
C135 C 0.03162 0.57878 0.571 0.0
C136 C 0.02801 0.60234 0.59182 0.0
C137 C 0.06236 0.6224 0.60208 0.0
C138 C 0.10093 0.61562 0.59234 0.0
C139 C 0.10443 0.59244 0.57136 0.0
C140 C 0.06842 0.48927 0.54572 0.0
C141 C 0.0322 0.4678 0.54947 0.0
C142 C 0.03149 0.43702 0.56617 0.0
C143 C 0.06712 0.42707 0.57924 0.0
C144 C 0.10332 0.44888 0.57548 0.0
C145 C 0.1039 0.47987 0.55891 0.0
C146 C 0.07005 0.49239 0.38666 0.0
C147 C 0.07509 0.76209 0.55074 0.0
Li148 Li 0.04927 0.08053 0.27677 0.0
Li149 Li 0.04589 0.00918 0.27112 0.0
Li150 Li 0.08364 0.05112 0.24344 0.0
Li151 Li 0.0064 0.05356 0.24503 0.0
C152 C 0.11028 0.03478 0.29991 0.0
N153 N 0.13861 0.01882 0.34532 0.0
C154 C 0.08405 0.03816 0.31904 0.0
C155 C 0.1509 0.02311 0.30391 0.0
C156 C 0.09894 0.03002 0.34185 0.0
C157 C 0.16465 0.01522 0.32699 0.0
C158 C 0.96434 0.02489 0.28207 0.0
C159 C 0.91982 0.96859 0.27065 0.0
N160 N 0.89288 0.98127 0.28724 0.0
C161 C 0.93621 0.03734 0.29902 0.0
C162 C 0.95607 0.99022 0.26777 0.0
C163 C 0.90027 0.01489 0.30137 0.0
C164 C 0.01913 0.13383 0.31202 0.0
N165 N 0.05341 0.12309 0.30031 0.0
C166 C 0.09393 0.16876 0.32482 0.0
C167 C 0.09035 0.14005 0.30615 0.0
C168 C 0.05921 0.17952 0.3377 0.0
C169 C 0.02136 0.16203 0.33095 0.0
H170 H 0.99019 0.11993 0.30688 0.0
H171 H 0.11714 0.13059 0.2966 0.0
C172 C 0.06972 0.92641 0.28153 0.0
N173 N 0.04631 0.95885 0.28821 0.0
C174 C 0.0716 0.89148 0.29525 0.0
C175 C 0.02598 0.92416 0.32281 0.0
C176 C 0.02494 0.95827 0.30857 0.0
C177 C 0.04958 0.89012 0.31627 0.0
H178 H 0.08784 0.92782 0.26593 0.0
H179 H 0.00805 0.98485 0.31433 0.0
C180 C 0.0506 0.13981 0.24718 0.0
N181 N 0.05957 0.22249 0.25683 0.0
C182 C 0.01648 0.16371 0.25241 0.0
C183 C 0.08923 0.15791 0.24666 0.0
C184 C 0.02167 0.20547 0.25731 0.0
C185 C 0.09314 0.19979 0.25162 0.0
C186 C 0.05284 0.97065 0.22508 0.0
C187 C 0.09381 0.95892 0.22377 0.0
C188 C 0.02245 0.94551 0.21467 0.0
C189 C 0.10367 0.92202 0.21232 0.0
C190 C 0.03354 0.90882 0.2034 0.0
N191 N 0.07358 0.89793 0.20246 0.0
C192 C 0.16711 0.05201 0.23139 0.0
C193 C 0.11986 0.0606 0.19937 0.0
C194 C 0.19988 0.05378 0.21608 0.0
N195 N 0.12812 0.05509 0.22278 0.0
C196 C 0.15169 0.06282 0.18344 0.0
C197 C 0.19242 0.05913 0.19169 0.0
H198 H 0.17268 0.0477 0.25011 0.0
H199 H 0.08846 0.06312 0.19311 0.0
C200 C 0.92574 0.08017 0.2358 0.0
N201 N 0.95768 0.05913 0.2266 0.0
C202 C 0.88903 0.08333 0.22283 0.0
C203 C 0.91898 0.04333 0.19111 0.0
C204 C 0.95513 0.04105 0.20468 0.0
C205 C 0.88522 0.06463 0.20017 0.0
H206 H 0.92876 0.09432 0.2533 0.0
H207 H 0.98111 0.02461 0.19782 0.0
O208 O 0.09639 0.04226 0.27733 0.0
O209 O 0.99945 0.04697 0.27945 0.0
O210 O 0.04634 0.09872 0.24298 0.0
O211 O 0.04257 0.00726 0.23561 0.0
H212 H 0.05242 0.04671 0.31636 0.0
H213 H 0.1716 0.01999 0.28934 0.0
H214 H 0.07892 0.03251 0.35678 0.0
H215 H 0.19602 0.00616 0.33031 0.0
H216 H 0.91311 0.9417 0.25969 0.0
H217 H 0.94204 0.06406 0.31028 0.0
H218 H 0.97743 0.97997 0.25468 0.0
H219 H 0.87826 0.02421 0.31442 0.0
H220 H 0.12367 0.18144 0.32959 0.0
H221 H 0.99383 0.17 0.34026 0.0
H222 H 0.09031 0.86597 0.28955 0.0
H223 H 0.00949 0.92505 0.33921 0.0
H224 H 0.98641 0.15004 0.25297 0.0
H225 H 0.11594 0.13972 0.2427 0.0
H226 H 0.99559 0.22434 0.26156 0.0
H227 H 0.12287 0.21422 0.25142 0.0
H228 H 0.11774 0.97756 0.23198 0.0
H229 H 0.99059 0.95424 0.2152 0.0
H230 H 0.13523 0.91246 0.21135 0.0
H231 H 0.01032 0.88906 0.19532 0.0
H232 H 0.23065 0.05022 0.22324 0.0
H233 H 0.14442 0.06766 0.1649 0.0
H234 H 0.86406 0.10054 0.23038 0.0
H235 H 0.91732 0.02801 0.17388 0.0
Li236 Li 0.00363 0.04551 0.76825 0.0
Li237 Li 0.07506 0.04752 0.77614 0.0
Li238 Li 0.04526 0.08126 0.7415 0.0
Li239 Li 0.04719 0.00575 0.7435 0.0
C240 C 0.03292 0.11049 0.79785 0.0
N241 N 0.02503 0.14201 0.8434 0.0
C242 C 0.024 0.08464 0.81638 0.0
C243 C 0.03783 0.15236 0.80249 0.0
C244 C 0.02013 0.10116 0.83928 0.0
C245 C 0.03371 0.16772 0.82564 0.0
C246 C 0.05996 0.96609 0.78505 0.0
C247 C 0.12132 0.92525 0.78535 0.0
N248 N 0.10322 0.89849 0.79987 0.0
C249 C 0.04197 0.93816 0.79994 0.0
C250 C 0.09997 0.9596 0.77766 0.0
C251 C 0.06435 0.90419 0.80725 0.0
C252 C 0.93573 0.00777 0.7875 0.0
N253 N 0.95201 0.04481 0.7829 0.0
C254 C 0.89865 0.07902 0.80351 0.0
C255 C 0.9337 0.08015 0.78998 0.0
C256 C 0.88199 0.04114 0.8095 0.0
C257 C 0.90039 0.0052 0.80069 0.0
H258 H 0.95085 0.98021 0.7814 0.0
H259 H 0.9472 0.10921 0.7859 0.0
C260 C 0.14978 0.07511 0.79731 0.0
N261 N 0.11612 0.05182 0.80061 0.0
C262 C 0.17966 0.07955 0.81535 0.0
C263 C 0.1396 0.03589 0.83972 0.0
C264 C 0.11052 0.03249 0.82132 0.0
C265 C 0.17472 0.05979 0.83695 0.0
H266 H 0.15317 0.09053 0.78075 0.0
H267 H 0.0833 0.01453 0.82368 0.0
C268 C 0.96095 0.04803 0.72905 0.0
N269 N 0.8781 0.06169 0.72295 0.0
C270 C 0.93433 0.01522 0.7245 0.0
C271 C 0.9455 0.08781 0.73039 0.0
C272 C 0.89252 0.02275 0.7215 0.0
C273 C 0.90351 0.09407 0.72727 0.0
C274 C 0.11441 0.046 0.72219 0.0
C275 C 0.09256 0.04058 0.70072 0.0
C276 C 0.15644 0.05346 0.72204 0.0
C277 C 0.11322 0.04256 0.67943 0.0
C278 C 0.17601 0.05518 0.70037 0.0
N279 N 0.15417 0.04976 0.67969 0.0
C280 C 0.06932 0.16074 0.72935 0.0
C281 C 0.0324 0.12383 0.69909 0.0
C282 C 0.07274 0.19434 0.71474 0.0
N283 N 0.04939 0.12648 0.72131 0.0
C284 C 0.0354 0.1565 0.68383 0.0
C285 C 0.05576 0.19237 0.6916 0.0
H286 H 0.08261 0.16186 0.74711 0.0
H287 H 0.01646 0.09629 0.69322 0.0
C288 C 0.01961 0.92824 0.73027 0.0
N289 N 0.05142 0.95411 0.72727 0.0
C290 C 0.01958 0.88916 0.7198 0.0
C291 C 0.0855 0.90371 0.70362 0.0
C292 C 0.08453 0.94228 0.71474 0.0
C293 C 0.05261 0.87651 0.70595 0.0
H294 H 0.99444 0.93786 0.74113 0.0
H295 H 0.11038 0.96247 0.71344 0.0
O296 O 0.03713 0.09514 0.77525 0.0
O297 O 0.03809 0.99928 0.77768 0.0
O298 O 0.00184 0.04127 0.73267 0.0
O299 O 0.09478 0.04516 0.74328 0.0
H300 H 0.01999 0.05218 0.81314 0.0
H301 H 0.04476 0.17278 0.78834 0.0
H302 H 0.01322 0.0815 0.85377 0.0
H303 H 0.03744 0.20007 0.82949 0.0
H304 H 0.15227 0.91986 0.77977 0.0
H305 H 0.01102 0.94272 0.80579 0.0
H306 H 0.11448 0.98075 0.76612 0.0
H307 H 0.05081 0.88234 0.81879 0.0
H308 H 0.88593 0.10755 0.81004 0.0
H309 H 0.88816 0.97534 0.80434 0.0
H310 H 0.20597 0.09873 0.81254 0.0
H311 H 0.13471 0.01961 0.85587 0.0
H312 H 0.94576 0.98427 0.72338 0.0
H313 H 0.96564 0.11351 0.73418 0.0
H314 H 0.87152 0.99764 0.71805 0.0
H315 H 0.89109 0.12466 0.72841 0.0
H316 H 0.06006 0.03456 0.70049 0.0
H317 H 0.17374 0.05793 0.73852 0.0
H318 H 0.09671 0.03834 0.66269 0.0
H319 H 0.20854 0.0609 0.69999 0.0
H320 H 0.08896 0.22133 0.72133 0.0
H321 H 0.02145 0.15393 0.66624 0.0
H322 H 0.99408 0.86901 0.72276 0.0
H323 H 0.11159 0.89563 0.69307 0.0
H324 H 0.40409 0.12327 0.10913 0.0
H325 H 0.37196 0.00079 0.08497 0.0
H326 H 0.34715 0.12333 0.13608 0.0
H327 H 0.31665 -7e-05 0.11289 0.0
H328 H 0.19495 0.02638 0.14656 0.0
H329 H 0.25092 0.02851 0.11911 0.0
H330 H 0.32488 0.09436 0.17191 0.0
H331 H 0.268 0.09441 0.19887 0.0
C332 C 0.38495 0.09632 0.10957 0.0
C333 C 0.39265 0.06206 0.09481 0.0
C334 C 0.35258 0.09615 0.12527 0.0
C335 C 0.32722 0.06163 0.1267 0.0
C336 C 0.33515 0.02727 0.11207 0.0
C337 C 0.36733 0.02754 0.09627 0.0
C338 C 0.2229 0.04188 0.15222 0.0
C339 C 0.22683 0.0603 0.17496 0.0
C340 C 0.25528 0.04257 0.13657 0.0
C341 C 0.29257 0.06144 0.14329 0.0
C342 C 0.29649 0.07993 0.16602 0.0
C343 C 0.264 0.07947 0.18162 0.0
H344 H 0.00998 0.4124 0.6125 0.0
H345 H 0.12318 0.36605 0.58477 0.0
H346 H 0.00835 0.35608 0.6401 0.0
H347 H 0.12188 0.31012 0.6126 0.0
H348 H 0.07568 0.19064 0.6449 0.0
H349 H 0.07917 0.24807 0.61823 0.0
H350 H 0.0473 0.3309 0.67563 0.0
H351 H 0.0432 0.2733 0.70225 0.0
C352 C 0.0345 0.39017 0.61233 0.0
C353 C 0.06667 0.39357 0.59647 0.0
C354 C 0.03376 0.35818 0.62826 0.0
C355 C 0.06498 0.3287 0.62849 0.0
C356 C 0.09723 0.3322 0.61269 0.0
C357 C 0.09816 0.3644 0.59692 0.0
C358 C 0.06929 0.2211 0.65179 0.0
C359 C 0.05907 0.22748 0.67564 0.0
C360 C 0.07165 0.254 0.63659 0.0
C361 C 0.0635 0.29397 0.64485 0.0
C362 C 0.05342 0.30039 0.66873 0.0
C363 C 0.05144 0.2675 0.684 0.0
H364 H 0.69421 0.12004 0.09604 0.0
H365 H 0.64153 0.02564 0.13787 0.0
H366 H 0.7547 0.12122 0.12191 0.0
H367 H 0.70317 0.02543 0.16322 0.0
H368 H 0.80677 0.05985 0.2159 0.0
H369 H 0.74317 0.06436 0.19261 0.0
H370 H 0.8123 0.07776 0.12903 0.0
H371 H 0.87565 0.07534 0.15241 0.0
C372 C 0.69523 0.09998 0.11102 0.0
C373 C 0.66284 0.07297 0.11502 0.0
C374 C 0.73027 0.10018 0.12563 0.0
C375 C 0.73399 0.07317 0.14453 0.0
C376 C 0.70117 0.04687 0.14894 0.0
C377 C 0.66599 0.04674 0.13431 0.0
C378 C 0.80837 0.06434 0.197 0.0
C379 C 0.84637 0.06728 0.18604 0.0
C380 C 0.77191 0.06643 0.18361 0.0
C381 C 0.77259 0.07149 0.15896 0.0
C382 C 0.81059 0.07446 0.14803 0.0
C383 C 0.84699 0.07249 0.1614 0.0
H384 H 0.10526 0.63372 0.64408 0.0
H385 H 0.0091 0.68551 0.60061 0.0
H386 H 0.10073 0.6919 0.672 0.0
H387 H 0.00552 0.74417 0.62766 0.0
H388 H 0.98693 0.83465 0.68623 0.0
H389 H 0.98671 0.76945 0.66487 0.0
H390 H 0.11794 0.76181 0.67456 0.0
H391 H 0.11773 0.82538 0.69769 0.0
C392 C 0.08296 0.65744 0.64066 0.0
C393 C 0.0572 0.65497 0.6204 0.0
C394 C 0.08054 0.69092 0.65649 0.0
C395 C 0.05278 0.72292 0.65213 0.0
C396 C 0.02661 0.71984 0.63199 0.0
C397 C 0.02866 0.68619 0.61641 0.0
C398 C 0.01568 0.81869 0.68436 0.0
C399 C 0.0524 0.83566 0.69364 0.0
C400 C 0.01563 0.78145 0.67173 0.0
C401 C 0.05236 0.76041 0.66767 0.0
C402 C 0.08896 0.77682 0.67746 0.0
C403 C 0.08894 0.81381 0.69041 0.0
H404 H 0.31954 0.02388 0.96565 0.0
H405 H 0.38787 0.11354 0.92812 0.0
H406 H 0.26634 0.02418 0.93435 0.0
H407 H 0.33457 0.11435 0.89712 0.0
H408 H 0.25808 0.06107 0.8335 0.0
H409 H 0.30919 0.06517 0.86567 0.0
H410 H 0.21331 0.07062 0.91682 0.0
H411 H 0.16207 0.06733 0.88469 0.0
C412 C 0.32293 0.04389 0.95083 0.0
C413 C 0.35763 0.06887 0.94938 0.0
C414 C 0.29246 0.04426 0.93301 0.0
C415 C 0.29639 0.06925 0.91329 0.0
C416 C 0.33088 0.09456 0.91202 0.0
C417 C 0.36112 0.09445 0.9299 0.0
C418 C 0.24784 0.06377 0.85157 0.0
C419 C 0.20594 0.06372 0.85648 0.0
C420 C 0.27714 0.06603 0.87 0.0
C421 C 0.26521 0.06809 0.89375 0.0
C422 C 0.22338 0.06846 0.89869 0.0
C423 C 0.19407 0.06648 0.88027 0.0
H424 H 0.13004 0.36694 0.44327 0.0
H425 H 0.00614 0.33436 0.45976 0.0
H426 H 0.13096 0.31282 0.413 0.0
H427 H 0.00611 0.28199 0.4284 0.0
H428 H 0.02725 0.17047 0.38138 0.0
H429 H 0.03184 0.21781 0.41543 0.0
H430 H 0.10235 0.30106 0.37438 0.0
H431 H 0.09868 0.253 0.34066 0.0
C432 C 0.10316 0.34787 0.4407 0.0
C433 C 0.06796 0.35511 0.45397 0.0
C434 C 0.10345 0.31725 0.42301 0.0
C435 C 0.06844 0.29334 0.41798 0.0
C436 C 0.03375 0.29957 0.43185 0.0
C437 C 0.03359 0.32996 0.44969 0.0
C438 C 0.04368 0.19895 0.3797 0.0
C439 C 0.06248 0.20819 0.35839 0.0
C440 C 0.04627 0.22612 0.39918 0.0
C441 C 0.06741 0.26335 0.3977 0.0
C442 C 0.08647 0.27237 0.37635 0.0
C443 C 0.08422 0.24497 0.35697 0.0
H444 H 0.65599 0.06554 0.88892 0.0
H445 H 0.74814 0.02409 0.9388 0.0
H446 H 0.70514 0.06096 0.85714 0.0
H447 H 0.79781 0.02086 0.90739 0.0
H448 H 0.87006 0.98534 0.84403 0.0
H449 H 0.81642 0.98429 0.87286 0.0
H450 H 0.76404 0.09345 0.84311 0.0
H451 H 0.81599 0.09272 0.81306 0.0
C452 C 0.68692 0.05575 0.89306 0.0
C453 C 0.69835 0.04515 0.91626 0.0
C454 C 0.71513 0.05323 0.87491 0.0
C455 C 0.75553 0.04052 0.87964 0.0
C456 C 0.7668 0.02994 0.90294 0.0
C457 C 0.73845 0.03198 0.921 0.0
C458 C 0.84656 0.00857 0.84318 0.0
C459 C 0.84752 0.03917 0.82615 0.0
C460 C 0.81612 0.00837 0.86005 0.0
C461 C 0.7861 0.03907 0.86056 0.0
C462 C 0.78643 0.06911 0.84318 0.0
C463 C 0.81663 0.06903 0.82611 0.0
H464 H 0.00888 0.67912 0.40455 0.0
H465 H 0.12468 0.73023 0.42879 0.0
H466 H 0.00488 0.72873 0.37307 0.0
H467 H 0.12046 0.7804 0.39759 0.0
H468 H 0.11743 0.8449 0.32766 0.0
H469 H 0.12264 0.7891 0.35538 0.0
H470 H 0.99374 0.80054 0.36907 0.0
H471 H 0.98815 0.85477 0.34052 0.0
C472 C 0.03336 0.70116 0.4032 0.0
C473 C 0.06697 0.70099 0.41918 0.0
C474 C 0.03108 0.7296 0.38519 0.0
C475 C 0.06227 0.75868 0.38284 0.0
C476 C 0.09621 0.75806 0.39865 0.0
C477 C 0.09859 0.72943 0.41658 0.0
C478 C 0.09005 0.83494 0.33623 0.0
C479 C 0.05239 0.8544 0.33193 0.0
C480 C 0.09315 0.80332 0.35236 0.0
C481 C 0.05868 0.7905 0.36459 0.0
C482 C 0.02085 0.80932 0.35982 0.0
C483 C 0.01773 0.84079 0.34365 0.0
loop_
_geom_bond_atom_site_label_1
_geom_bond_atom_site_label_2
_geom_bond_distance
_geom_bond_site_symmetry_2
_ccdc_geom_bond_type
H0 O26 0.856 . S
H1 O29 0.854 . S
H2 C37 0.930 . S
H3 C38 0.930 . S
H4 C40 0.930 . S
H5 C41 0.930 1_565 S
H6 C43 0.931 . S
H7 C44 0.930 . S
H8 C46 0.930 1_565 S
H9 C47 0.929 1_565 S
H10 C49 0.930 . S
H11 C50 0.931 . S
H12 C52 0.930 . S
H13 C53 0.929 1_565 S
H14 C55 0.931 . S
H15 C56 0.930 . S
H16 C58 0.930 1_565 S
H17 C59 0.932 1_565 S
H18 C61 0.930 . S
H19 C62 0.929 . S
H20 C64 0.931 . S
H21 C65 0.947 . S
H22 C67 0.929 . S
H23 C68 0.931 . S
H24 C70 0.930 1_565 S
H25 C71 0.929 1_565 S
O26 H0 0.856 . S
O26 C72 1.300 . S
O27 C72 1.209 . S
O28 C73 1.199 . S
O29 H1 0.854 . S
O29 C73 1.297 . S
C30 C31 1.404 . S
C30 C35 1.397 1_556 S
C30 C36 1.492 . S
C31 C30 1.404 . S
C31 C32 1.396 . S
C31 C42 1.492 . S
C32 C31 1.396 . S
C32 C33 1.397 1_556 S
C32 C48 1.509 . S
C33 C32 1.397 1_554 S
C33 C34 1.412 . S
C33 C54 1.485 . S
C34 C33 1.412 . S
C34 C35 1.388 . S
C34 C60 1.490 . S
C35 C30 1.397 1_554 S
C35 C34 1.388 . S
C35 C66 1.519 . S
C36 C30 1.492 . S
C36 C37 1.363 . S
C36 C41 1.390 . S
C37 H2 0.930 . S
C37 C36 1.363 . S
C37 C38 1.372 . S
C38 H3 0.930 . S
C38 C37 1.372 . S
C38 C39 1.383 . S
C39 C38 1.383 . S
C39 C40 1.395 . S
C40 H4 0.930 . S
C40 C39 1.395 . S
C40 C41 1.362 . S
C41 H5 0.930 1_545 S
C41 C36 1.390 . S
C41 C40 1.362 . S
C42 C31 1.492 . S
C42 C43 1.377 . S
C42 C47 1.397 . S
C43 H6 0.931 . S
C43 C42 1.377 . S
C43 C44 1.376 . S
C44 H7 0.930 . S
C44 C43 1.376 . S
C44 C45 1.376 . S
C45 C44 1.376 . S
C45 C46 1.378 . S
C45 C72 1.486 . S
C46 H8 0.930 1_545 S
C46 C45 1.378 . S
C46 C47 1.376 . S
C47 H9 0.929 1_545 S
C47 C42 1.397 . S
C47 C46 1.376 . S
C48 C32 1.509 . S
C48 C49 1.391 . S
C48 C53 1.386 . S
C49 H10 0.930 . S
C49 C48 1.391 . S
C49 C50 1.375 . S
C50 H11 0.931 . S
C50 C49 1.375 . S
C50 C51 1.375 . S
C51 C50 1.375 . S
C51 C52 1.361 1_545 S
C52 H12 0.930 . S
C52 C51 1.361 1_565 S
C52 C53 1.399 1_565 S
C53 H13 0.929 1_545 S
C53 C48 1.386 . S
C53 C52 1.399 1_545 S
C54 C33 1.485 . S
C54 C55 1.394 . S
C54 C59 1.360 . S
C55 H14 0.931 . S
C55 C54 1.394 . S
C55 C56 1.372 . S
C56 H15 0.930 . S
C56 C55 1.372 . S
C56 C57 1.397 . S
C57 C56 1.397 . S
C57 C58 1.390 . S
C57 C73 1.476 . S
C58 H16 0.930 1_545 S
C58 C57 1.390 . S
C58 C59 1.366 . S
C59 H17 0.932 1_545 S
C59 C54 1.360 . S
C59 C58 1.366 . S
C60 C34 1.490 . S
C60 C61 1.380 . S
C60 C65 1.386 . S
C61 H18 0.930 . S
C61 C60 1.380 . S
C61 C62 1.381 . S
C62 H19 0.929 . S
C62 C61 1.381 . S
C62 C63 1.371 . S
C63 C62 1.371 . S
C63 C64 1.380 . S
C64 H20 0.931 . S
C64 C63 1.380 . S
C64 C65 1.387 . S
C65 H21 0.947 . S
C65 C60 1.386 . S
C65 C64 1.387 . S
C66 C35 1.519 . S
C66 C67 1.377 . S
C66 C71 1.361 . S
C67 H22 0.929 . S
C67 C66 1.377 . S
C67 C68 1.386 . S
C68 H23 0.931 . S
C68 C67 1.386 . S
C68 C69 1.363 . S
C69 C68 1.363 . S
C69 C70 1.385 . S
C70 H24 0.930 1_545 S
C70 C69 1.385 . S
C70 C71 1.396 . S
C71 H25 0.929 1_545 S
C71 C66 1.361 . S
C71 C70 1.396 . S
C72 O26 1.300 . S
C72 O27 1.209 . S
C72 C45 1.486 . S
C73 O28 1.199 . S
C73 O29 1.297 . S
C73 C57 1.476 . S
H74 O100 0.856 . S
H75 O103 0.854 . S
H76 C111 0.930 1_655 S
H77 C112 0.930 1_655 S
H78 C114 0.930 . S
H79 C115 0.930 . S
H80 C117 0.931 . S
H81 C118 0.930 . S
H82 C120 0.930 . S
H83 C121 0.929 . S
H84 C123 0.930 . S
H85 C124 0.931 . S
H86 C126 0.930 . S
H87 C127 0.929 . S
H88 C129 0.931 . S
H89 C130 0.930 . S
H90 C132 0.930 . S
H91 C133 0.932 . S
H92 C135 0.930 1_655 S
H93 C136 0.929 1_655 S
H94 C138 0.931 . S
H95 C139 0.930 . S
H96 C141 0.929 1_655 S
H97 C142 0.931 . S
H98 C144 0.930 . S
H99 C145 0.929 . S
O100 H74 0.856 . S
O100 C146 1.300 . S
O101 C146 1.209 . S
O102 C147 1.199 . S
O103 H75 0.854 . S
O103 C147 1.297 . S
C104 C105 1.404 . S
C104 C109 1.397 . S
C104 C110 1.492 . S
C105 C104 1.404 . S
C105 C106 1.396 . S
C105 C116 1.492 . S
C106 C105 1.396 . S
C106 C107 1.397 . S
C106 C122 1.509 . S
C107 C106 1.397 . S
C107 C108 1.412 . S
C107 C128 1.485 . S
C108 C107 1.412 . S
C108 C109 1.388 . S
C108 C134 1.490 . S
C109 C104 1.397 . S
C109 C108 1.388 . S
C109 C140 1.519 . S
C110 C104 1.492 . S
C110 C111 1.363 . S
C110 C115 1.390 . S
C111 H76 0.930 1_455 S
C111 C110 1.363 . S
C111 C112 1.372 . S
C112 H77 0.930 1_455 S
C112 C111 1.372 . S
C112 C113 1.383 . S
C113 C112 1.383 . S
C113 C114 1.395 . S
C114 H78 0.930 . S
C114 C113 1.395 . S
C114 C115 1.362 . S
C115 H79 0.930 . S
C115 C110 1.390 . S
C115 C114 1.362 . S
C116 C105 1.492 . S
C116 C117 1.377 . S
C116 C121 1.397 . S
C117 H80 0.931 . S
C117 C116 1.377 . S
C117 C118 1.376 . S
C118 H81 0.930 . S
C118 C117 1.376 . S
C118 C119 1.376 . S
C119 C118 1.376 . S
C119 C120 1.378 . S
C119 C146 1.486 . S
C120 H82 0.930 . S
C120 C119 1.378 . S
C120 C121 1.376 . S
C121 H83 0.929 . S
C121 C116 1.397 . S
C121 C120 1.376 . S
C122 C106 1.509 . S
C122 C123 1.391 . S
C122 C127 1.386 . S
C123 H84 0.930 . S
C123 C122 1.391 . S
C123 C124 1.375 . S
C124 H85 0.931 . S
C124 C123 1.375 . S
C124 C125 1.375 . S
C125 C124 1.375 . S
C125 C126 1.361 . S
C126 H86 0.930 . S
C126 C125 1.361 . S
C126 C127 1.399 . S
C127 H87 0.929 . S
C127 C122 1.386 . S
C127 C126 1.399 . S
C128 C107 1.485 . S
C128 C129 1.394 . S
C128 C133 1.360 . S
C129 H88 0.931 . S
C129 C128 1.394 . S
C129 C130 1.372 . S
C130 H89 0.930 . S
C130 C129 1.372 . S
C130 C131 1.397 . S
C131 C130 1.397 . S
C131 C132 1.390 . S
C131 C147 1.476 . S
C132 H90 0.930 . S
C132 C131 1.390 . S
C132 C133 1.366 . S
C133 H91 0.932 . S
C133 C128 1.360 . S
C133 C132 1.366 . S
C134 C108 1.490 . S
C134 C135 1.380 . S
C134 C139 1.386 . S
C135 H92 0.930 1_455 S
C135 C134 1.380 . S
C135 C136 1.381 . S
C136 H93 0.929 1_455 S
C136 C135 1.381 . S
C136 C137 1.371 . S
C137 C136 1.371 . S
C137 C138 1.380 . S
C138 H94 0.931 . S
C138 C137 1.380 . S
C138 C139 1.387 . S
C139 H95 0.930 . S
C139 C134 1.386 . S
C139 C138 1.387 . S
C140 C109 1.519 . S
C140 C141 1.377 . S
C140 C145 1.361 . S
C141 H96 0.929 1_455 S
C141 C140 1.377 . S
C141 C142 1.386 . S
C142 H97 0.931 . S
C142 C141 1.386 . S
C142 C143 1.363 . S
C143 C142 1.363 . S
C143 C144 1.385 . S
C144 H98 0.930 . S
C144 C143 1.385 . S
C144 C145 1.396 . S
C145 H99 0.929 . S
C145 C140 1.361 . S
C145 C144 1.396 . S
C146 O100 1.300 . S
C146 O101 1.209 . S
C146 C119 1.486 . S
C147 O102 1.199 . S
C147 O103 1.297 . S
C147 C131 1.476 . S
Li148 N165 1.990 . S
Li148 O208 1.956 . S
Li148 O209 1.970 1_455 S
Li148 O210 1.961 . S
Li149 N173 1.990 1_545 S
Li149 O208 1.970 . S
Li149 O209 1.956 1_455 S
Li149 O211 1.961 . S
Li150 N195 1.990 . S
Li150 O208 1.961 . S
Li150 O210 1.956 . S
Li150 O211 1.970 . S
Li151 N201 1.990 . S
Li151 O209 1.961 . S
Li151 O210 1.970 1_655 S
Li151 O211 1.956 1_655 S
C152 C154 1.348 . S
C152 C155 1.356 . S
C152 O208 1.325 . S
N153 C156 1.314 . S
N153 C157 1.279 . S
C154 C152 1.348 . S
C154 C156 1.353 . S
C154 H212 0.929 . S
C155 C152 1.356 . S
C155 C157 1.358 . S
C155 H213 0.930 . S
C156 N153 1.314 . S
C156 C154 1.353 . S
C156 H214 0.930 . S
C157 N153 1.279 . S
C157 C155 1.358 . S
C157 H215 0.930 . S
C158 C161 1.348 . S
C158 C162 1.356 . S
C158 O209 1.325 . S
C159 N160 1.279 . S
C159 C162 1.358 . S
C159 H216 0.930 . S
N160 C159 1.279 . S
N160 C163 1.314 . S
C161 C158 1.348 . S
C161 C163 1.353 . S
C161 H217 0.929 . S
C162 C158 1.356 . S
C162 C159 1.358 . S
C162 H218 0.930 . S
C163 N160 1.314 . S
C163 C161 1.353 . S
C163 H219 0.930 . S
C164 N165 1.314 . S
C164 C169 1.353 . S
C164 H170 0.930 1_455 S
N165 Li148 1.990 . S
N165 C164 1.314 . S
N165 C167 1.279 . S
C166 C167 1.358 . S
C166 C168 1.356 . S
C166 H220 0.930 . S
C167 N165 1.279 . S
C167 C166 1.358 . S
C167 H171 0.930 . S
C168 C166 1.356 . S
C168 C169 1.348 . S
C169 C164 1.353 . S
C169 C168 1.348 . S
C169 H221 0.929 1_455 S
H170 C164 0.930 1_655 S
H171 C167 0.930 . S
C172 N173 1.314 . S
C172 C174 1.353 . S
C172 H178 0.930 . S
N173 Li149 1.990 1_565 S
N173 C172 1.314 . S
N173 C176 1.279 . S
C174 C172 1.353 . S
C174 C177 1.348 . S
C174 H222 0.929 . S
C175 C176 1.358 . S
C175 C177 1.356 . S
C175 H223 0.930 1_455 S
C176 N173 1.279 . S
C176 C175 1.358 . S
C176 H179 0.930 1_455 S
C177 C174 1.348 . S
C177 C175 1.356 . S
H178 C172 0.930 . S
H179 C176 0.930 1_655 S
C180 C182 1.348 . S
C180 C183 1.356 . S
C180 O210 1.325 . S
N181 C184 1.314 . S
N181 C185 1.279 . S
C182 C180 1.348 . S
C182 C184 1.353 . S
C182 H224 0.929 1_455 S
C183 C180 1.356 . S
C183 C185 1.358 . S
C183 H225 0.930 . S
C184 N181 1.314 . S
C184 C182 1.353 . S
C184 H226 0.930 1_455 S
C185 N181 1.279 . S
C185 C183 1.358 . S
C185 H227 0.930 . S
C186 C187 1.348 . S
C186 C188 1.356 . S
C186 O211 1.325 1_565 S
C187 C186 1.348 . S
C187 C189 1.353 . S
C187 H228 0.929 . S
C188 C186 1.356 . S
C188 C190 1.358 . S
C188 H229 0.930 1_455 S
C189 C187 1.353 . S
C189 N191 1.314 . S
C189 H230 0.930 . S
C190 C188 1.358 . S
C190 N191 1.279 . S
C190 H231 0.930 1_455 S
N191 C189 1.314 . S
N191 C190 1.279 . S
C192 C194 1.353 . S
C192 N195 1.314 . S
C192 H198 0.930 . S
C193 N195 1.279 . S
C193 C196 1.358 . S
C193 H199 0.930 . S
C194 C192 1.353 . S
C194 C197 1.348 . S
C194 H232 0.929 . S
N195 Li150 1.990 . S
N195 C192 1.314 . S
N195 C193 1.279 . S
C196 C193 1.358 . S
C196 C197 1.356 . S
C196 H233 0.930 . S
C197 C194 1.348 . S
C197 C196 1.356 . S
H198 C192 0.930 . S
H199 C193 0.930 . S
C200 N201 1.314 . S
C200 C202 1.353 . S
C200 H206 0.930 . S
N201 Li151 1.990 . S
N201 C200 1.314 . S
N201 C204 1.279 . S
C202 C200 1.353 . S
C202 C205 1.348 . S
C202 H234 0.929 . S
C203 C204 1.358 . S
C203 C205 1.356 . S
C203 H235 0.930 . S
C204 N201 1.279 . S
C204 C203 1.358 . S
C204 H207 0.930 . S
C205 C202 1.348 . S
C205 C203 1.356 . S
H206 C200 0.930 . S
H207 C204 0.930 . S
O208 Li148 1.956 . S
O208 Li149 1.970 . S
O208 Li150 1.961 . S
O208 C152 1.325 . S
O209 Li148 1.970 1_655 S
O209 Li149 1.956 1_655 S
O209 Li151 1.961 . S
O209 C158 1.325 . S
O210 Li148 1.961 . S
O210 Li150 1.956 . S
O210 Li151 1.970 1_455 S
O210 C180 1.325 . S
O211 Li149 1.961 . S
O211 Li150 1.970 . S
O211 Li151 1.956 1_455 S
O211 C186 1.325 1_545 S
H212 C154 0.929 . S
H213 C155 0.930 . S
H214 C156 0.930 . S
H215 C157 0.930 . S
H216 C159 0.930 . S
H217 C161 0.929 . S
H218 C162 0.930 . S
H219 C163 0.930 . S
H220 C166 0.930 . S
H221 C169 0.929 1_655 S
H222 C174 0.929 . S
H223 C175 0.930 1_655 S
H224 C182 0.929 1_655 S
H225 C183 0.930 . S
H226 C184 0.930 1_655 S
H227 C185 0.930 . S
H228 C187 0.929 . S
H229 C188 0.930 1_655 S
H230 C189 0.930 . S
H231 C190 0.930 1_655 S
H232 C194 0.929 . S
H233 C196 0.930 . S
H234 C202 0.929 . S
H235 C203 0.930 . S
Li236 N253 1.990 1_455 S
Li236 O296 1.956 . S
Li236 O297 1.970 1_545 S
Li236 O298 1.961 . S
Li237 N261 1.990 . S
Li237 O296 1.970 . S
Li237 O297 1.956 1_545 S
Li237 O299 1.961 . S
Li238 N283 1.990 . S
Li238 O296 1.961 . S
Li238 O298 1.956 . S
Li238 O299 1.970 . S
Li239 N289 1.990 . S
Li239 O297 1.961 . S
Li239 O298 1.970 1_565 S
Li239 O299 1.956 1_565 S
C240 C242 1.348 . S
C240 C243 1.356 . S
C240 O296 1.325 . S
N241 C244 1.314 . S
N241 C245 1.279 . S
C242 C240 1.348 . S
C242 C244 1.353 . S
C242 H300 0.929 . S
C243 C240 1.356 . S
C243 C245 1.358 . S
C243 H301 0.930 . S
C244 N241 1.314 . S
C244 C242 1.353 . S
C244 H302 0.930 . S
C245 N241 1.279 . S
C245 C243 1.358 . S
C245 H303 0.930 . S
C246 C249 1.348 . S
C246 C250 1.356 . S
C246 O297 1.325 . S
C247 N248 1.279 . S
C247 C250 1.358 . S
C247 H304 0.930 . S
N248 C247 1.279 . S
N248 C251 1.314 . S
C249 C246 1.348 . S
C249 C251 1.353 . S
C249 H305 0.929 . S
C250 C246 1.356 . S
C250 C247 1.358 . S
C250 H306 0.930 . S
C251 N248 1.314 . S
C251 C249 1.353 . S
C251 H307 0.930 . S
C252 N253 1.314 . S
C252 C257 1.353 . S
C252 H258 0.930 1_545 S
N253 Li236 1.990 1_655 S
N253 C252 1.314 . S
N253 C255 1.279 . S
C254 C255 1.358 . S
C254 C256 1.356 . S
C254 H308 0.930 . S
C255 N253 1.279 . S
C255 C254 1.358 . S
C255 H259 0.930 . S
C256 C254 1.356 . S
C256 C257 1.348 . S
C257 C252 1.353 . S
C257 C256 1.348 . S
C257 H309 0.929 1_545 S
H258 C252 0.930 1_565 S
H259 C255 0.930 . S
C260 N261 1.314 . S
C260 C262 1.353 . S
C260 H266 0.930 . S
N261 Li237 1.990 . S
N261 C260 1.314 . S
N261 C264 1.279 . S
C262 C260 1.353 . S
C262 C265 1.348 . S
C262 H310 0.929 . S
C263 C264 1.358 . S
C263 C265 1.356 . S
C263 H311 0.930 1_545 S
C264 N261 1.279 . S
C264 C263 1.358 . S
C264 H267 0.930 1_545 S
C265 C262 1.348 . S
C265 C263 1.356 . S
H266 C260 0.930 . S
H267 C264 0.930 1_565 S
C268 C270 1.348 . S
C268 C271 1.356 . S
C268 O298 1.325 1_655 S
N269 C272 1.314 . S
N269 C273 1.279 . S
C270 C268 1.348 . S
C270 C272 1.353 . S
C270 H312 0.929 1_545 S
C271 C268 1.356 . S
C271 C273 1.358 . S
C271 H313 0.930 . S
C272 N269 1.314 . S
C272 C270 1.353 . S
C272 H314 0.930 1_545 S
C273 N269 1.279 . S
C273 C271 1.358 . S
C273 H315 0.930 . S
C274 C275 1.348 . S
C274 C276 1.356 . S
C274 O299 1.325 . S
C275 C274 1.348 . S
C275 C277 1.353 . S
C275 H316 0.929 . S
C276 C274 1.356 . S
C276 C278 1.358 . S
C276 H317 0.930 1_545 S
C277 C275 1.353 . S
C277 N279 1.314 . S
C277 H318 0.930 . S
C278 C276 1.358 . S
C278 N279 1.279 . S
C278 H319 0.930 1_545 S
N279 C277 1.314 . S
N279 C278 1.279 . S
C280 C282 1.353 . S
C280 N283 1.314 . S
C280 H286 0.930 . S
C281 N283 1.279 . S
C281 C284 1.358 . S
C281 H287 0.930 . S
C282 C280 1.353 . S
C282 C285 1.348 . S
C282 H320 0.929 . S
N283 Li238 1.990 . S
N283 C280 1.314 . S
N283 C281 1.279 . S
C284 C281 1.358 . S
C284 C285 1.356 . S
C284 H321 0.930 . S
C285 C282 1.348 . S
C285 C284 1.356 . S
H286 C280 0.930 . S
H287 C281 0.930 . S
C288 N289 1.314 . S
C288 C290 1.353 . S
C288 H294 0.930 . S
N289 Li239 1.990 . S
N289 C288 1.314 . S
N289 C292 1.279 . S
C290 C288 1.353 . S
C290 C293 1.348 . S
C290 H322 0.929 . S
C291 C292 1.358 . S
C291 C293 1.356 . S
C291 H323 0.930 . S
C292 N289 1.279 . S
C292 C291 1.358 . S
C292 H295 0.930 . S
C293 C290 1.348 . S
C293 C291 1.356 . S
H294 C288 0.930 . S
H295 C292 0.930 . S
O296 Li236 1.956 . S
O296 Li237 1.970 . S
O296 Li238 1.961 . S
O296 C240 1.325 . S
O297 Li236 1.970 1_565 S
O297 Li237 1.956 1_565 S
O297 Li239 1.961 . S
O297 C246 1.325 . S
O298 Li236 1.961 . S
O298 Li238 1.956 . S
O298 Li239 1.970 1_545 S
O298 C268 1.325 1_455 S
O299 Li237 1.961 . S
O299 Li238 1.970 . S
O299 Li239 1.956 1_545 S
O299 C274 1.325 . S
H300 C242 0.929 . S
H301 C243 0.930 . S
H302 C244 0.930 . S
H303 C245 0.930 . S
H304 C247 0.930 . S
H305 C249 0.929 . S
H306 C250 0.930 . S
H307 C251 0.930 . S
H308 C254 0.930 . S
H309 C257 0.929 1_565 S
H310 C262 0.929 . S
H311 C263 0.930 1_565 S
H312 C270 0.929 1_565 S
H313 C271 0.930 . S
H314 C272 0.930 1_565 S
H315 C273 0.930 . S
H316 C275 0.929 . S
H317 C276 0.930 1_565 S
H318 C277 0.930 . S
H319 C278 0.930 1_565 S
H320 C282 0.929 . S
H321 C284 0.930 . S
H322 C290 0.929 . S
H323 C291 0.930 . S
H324 C332 0.950 . S
H325 C337 0.950 1_565 S
H326 C334 0.950 . S
H327 C336 0.933 1_565 S
H328 C338 0.944 1_565 S
H329 C340 0.950 1_565 S
H330 C342 0.950 . S
H331 C343 0.950 . S
C332 H324 0.950 . S
C332 C333 1.386 . S
C332 C334 1.391 . S
C333 C332 1.386 . S
C333 C337 1.393 . S
C334 H326 0.950 . S
C334 C332 1.391 . S
C334 C335 1.400 . S
C335 C334 1.400 . S
C335 C336 1.398 . S
C335 C341 1.491 . S
C336 H327 0.933 1_545 S
C336 C335 1.398 . S
C336 C337 1.391 . S
C337 H325 0.950 1_545 S
C337 C333 1.393 . S
C337 C336 1.391 . S
C338 H328 0.944 1_545 S
C338 C339 1.386 . S
C338 C340 1.391 . S
C339 C338 1.386 . S
C339 C343 1.393 . S
C340 H329 0.950 1_545 S
C340 C338 1.391 . S
C340 C341 1.400 . S
C341 C335 1.491 . S
C341 C340 1.400 . S
C341 C342 1.398 . S
C342 H330 0.950 . S
C342 C341 1.398 . S
C342 C343 1.391 . S
C343 H331 0.950 . S
C343 C339 1.393 . S
C343 C342 1.391 . S
H344 C352 0.950 . S
H345 C357 0.950 . S
H346 C354 0.950 . S
H347 C356 0.950 . S
H348 C358 0.950 . S
H349 C360 0.950 . S
H350 C362 0.950 . S
H351 C363 0.950 . S
C352 H344 0.950 . S
C352 C353 1.386 . S
C352 C354 1.391 . S
C353 C352 1.386 . S
C353 C357 1.393 . S
C354 H346 0.950 . S
C354 C352 1.391 . S
C354 C355 1.400 . S
C355 C354 1.400 . S
C355 C356 1.398 . S
C355 C361 1.491 . S
C356 H347 0.950 . S
C356 C355 1.398 . S
C356 C357 1.391 . S
C357 H345 0.950 . S
C357 C353 1.393 . S
C357 C356 1.391 . S
C358 H348 0.950 . S
C358 C359 1.386 . S
C358 C360 1.391 . S
C359 C358 1.386 . S
C359 C363 1.393 . S
C360 H349 0.950 . S
C360 C358 1.391 . S
C360 C361 1.400 . S
C361 C355 1.491 . S
C361 C360 1.400 . S
C361 C362 1.398 . S
C362 H350 0.950 . S
C362 C361 1.398 . S
C362 C363 1.391 . S
C363 H351 0.950 . S
C363 C359 1.393 . S
C363 C362 1.391 . S
H364 C372 0.950 . S
H365 C377 0.950 . S
H366 C374 0.950 . S
H367 C376 0.950 . S
H368 C378 0.950 . S
H369 C380 0.950 . S
H370 C382 0.950 . S
H371 C383 0.950 . S
C372 H364 0.950 . S
C372 C373 1.386 . S
C372 C374 1.391 . S
C373 C372 1.386 . S
C373 C377 1.393 . S
C374 H366 0.950 . S
C374 C372 1.391 . S
C374 C375 1.400 . S
C375 C374 1.400 . S
C375 C376 1.398 . S
C375 C381 1.491 . S
C376 H367 0.950 . S
C376 C375 1.398 . S
C376 C377 1.391 . S
C377 H365 0.950 . S
C377 C373 1.393 . S
C377 C376 1.391 . S
C378 H368 0.950 . S
C378 C379 1.386 . S
C378 C380 1.391 . S
C379 C378 1.386 . S
C379 C383 1.393 . S
C380 H369 0.950 . S
C380 C378 1.391 . S
C380 C381 1.400 . S
C381 C375 1.491 . S
C381 C380 1.400 . S
C381 C382 1.398 . S
C382 H370 0.950 . S
C382 C381 1.398 . S
C382 C383 1.391 . S
C383 H371 0.950 . S
C383 C379 1.393 . S
C383 C382 1.391 . S
H384 C392 0.950 . S
H385 C397 0.950 1_655 S
H386 C394 0.950 . S
H387 C396 0.950 1_655 S
H388 C398 0.950 1_655 S
H389 C400 0.950 1_655 S
H390 C402 0.950 . S
H391 C403 0.950 . S
C392 H384 0.950 . S
C392 C393 1.386 . S
C392 C394 1.391 . S
C393 C392 1.386 . S
C393 C397 1.393 . S
C394 H386 0.950 . S
C394 C392 1.391 . S
C394 C395 1.400 . S
C395 C394 1.400 . S
C395 C396 1.398 . S
C395 C401 1.491 . S
C396 H387 0.950 1_455 S
C396 C395 1.398 . S
C396 C397 1.391 . S
C397 H385 0.950 1_455 S
C397 C393 1.393 . S
C397 C396 1.391 . S
C398 H388 0.950 1_455 S
C398 C399 1.386 . S
C398 C400 1.391 . S
C399 C398 1.386 . S
C399 C403 1.393 . S
C400 H389 0.950 1_455 S
C400 C398 1.391 . S
C400 C401 1.400 . S
C401 C395 1.491 . S
C401 C400 1.400 . S
C401 C402 1.398 . S
C402 H390 0.950 . S
C402 C401 1.398 . S
C402 C403 1.391 . S
C403 H391 0.950 . S
C403 C399 1.393 . S
C403 C402 1.391 . S
H404 C412 0.950 . S
H405 C417 0.950 . S
H406 C414 0.950 . S
H407 C416 0.950 . S
H408 C418 0.950 . S
H409 C420 0.950 . S
H410 C422 0.950 . S
H411 C423 0.950 . S
C412 H404 0.950 . S
C412 C413 1.386 . S
C412 C414 1.391 . S
C413 C412 1.386 . S
C413 C417 1.393 . S
C414 H406 0.950 . S
C414 C412 1.391 . S
C414 C415 1.400 . S
C415 C414 1.400 . S
C415 C416 1.398 . S
C415 C421 1.491 . S
C416 H407 0.950 . S
C416 C415 1.398 . S
C416 C417 1.391 . S
C417 H405 0.950 . S
C417 C413 1.393 . S
C417 C416 1.391 . S
C418 H408 0.950 . S
C418 C419 1.386 . S
C418 C420 1.391 . S
C419 C418 1.386 . S
C419 C423 1.393 . S
C420 H409 0.950 . S
C420 C418 1.391 . S
C420 C421 1.400 . S
C421 C415 1.491 . S
C421 C420 1.400 . S
C421 C422 1.398 . S
C422 H410 0.950 . S
C422 C421 1.398 . S
C422 C423 1.391 . S
C423 H411 0.950 . S
C423 C419 1.393 . S
C423 C422 1.391 . S
H424 C432 0.950 . S
H425 C437 0.950 . S
H426 C434 0.950 . S
H427 C436 0.950 . S
H428 C438 0.950 . S
H429 C440 0.950 . S
H430 C442 0.950 . S
H431 C443 0.950 . S
C432 H424 0.950 . S
C432 C433 1.386 . S
C432 C434 1.391 . S
C433 C432 1.386 . S
C433 C437 1.393 1_455 S
C434 H426 0.950 . S
C434 C432 1.391 . S
C434 C435 1.400 . S
C435 C434 1.400 . S
C435 C436 1.398 1_455 S
C435 C441 1.491 . S
C436 H427 0.950 . S
C436 C435 1.398 1_655 S
C436 C437 1.391 . S
C437 H425 0.950 . S
C437 C433 1.393 1_655 S
C437 C436 1.391 . S
C438 H428 0.950 . S
C438 C439 1.386 1_655 S
C438 C440 1.391 . S
C439 C438 1.386 1_455 S
C439 C443 1.393 . S
C440 H429 0.950 . S
C440 C438 1.391 . S
C440 C441 1.400 1_655 S
C441 C435 1.491 . S
C441 C440 1.400 1_455 S
C441 C442 1.398 . S
C442 H430 0.950 . S
C442 C441 1.398 . S
C442 C443 1.391 . S
C443 H431 0.950 . S
C443 C439 1.393 . S
C443 C442 1.391 . S
H444 C452 0.950 . S
H445 C457 0.949 1_565 S
H446 C454 0.950 . S
H447 C456 0.950 1_565 S
H448 C458 0.950 1_565 S
H449 C460 0.950 1_565 S
H450 C462 0.950 . S
H451 C463 0.950 . S
C452 H444 0.950 . S
C452 C453 1.386 . S
C452 C454 1.391 . S
C453 C452 1.386 . S
C453 C457 1.394 . S
C454 H446 0.950 . S
C454 C452 1.391 . S
C454 C455 1.400 . S
C455 C454 1.400 . S
C455 C456 1.398 . S
C455 C461 1.491 . S
C456 H447 0.950 1_545 S
C456 C455 1.398 . S
C456 C457 1.391 . S
C457 H445 0.949 1_545 S
C457 C453 1.394 . S
C457 C456 1.391 . S
C458 H448 0.950 1_545 S
C458 C459 1.386 . S
C458 C460 1.391 . S
C459 C458 1.386 . S
C459 C463 1.393 . S
C460 H449 0.950 1_545 S
C460 C458 1.391 . S
C460 C461 1.400 . S
C461 C455 1.491 . S
C461 C460 1.400 . S
C461 C462 1.398 . S
C462 H450 0.950 . S
C462 C461 1.398 . S
C462 C463 1.391 . S
C463 H451 0.950 . S
C463 C459 1.393 . S
C463 C462 1.391 . S
H464 C472 0.950 . S
H465 C477 0.950 . S
H466 C474 0.950 1_655 S
H467 C476 0.950 . S
H468 C478 0.950 . S
H469 C480 0.950 . S
H470 C482 0.950 1_655 S
H471 C483 0.950 1_655 S
C472 H464 0.950 . S
C472 C473 1.386 . S
C472 C474 1.391 . S
C473 C472 1.386 . S
C473 C477 1.393 . S
C474 H466 0.950 1_455 S
C474 C472 1.391 . S
C474 C475 1.400 . S
C475 C474 1.400 . S
C475 C476 1.398 . S
C475 C481 1.491 . S
C476 H467 0.950 . S
C476 C475 1.398 . S
C476 C477 1.391 . S
C477 H465 0.950 . S
C477 C473 1.393 . S
C477 C476 1.391 . S
C478 H468 0.950 . S
C478 C479 1.386 . S
C478 C480 1.391 . S
C479 C478 1.386 . S
C479 C483 1.393 . S
C480 H469 0.950 . S
C480 C478 1.391 . S
C480 C481 1.400 . S
C481 C475 1.491 . S
C481 C480 1.400 . S
C481 C482 1.398 . S
C482 H470 0.950 1_455 S
C482 C481 1.398 . S
C482 C483 1.391 . S
C483 H471 0.950 1_455 S
C483 C479 1.393 . S
C483 C482 1.391 . S
C339 C197 2.239 . S
C333 C69 2.235 . S
C359 C285 2.250 . S
C353 C143 2.241 . S
C379 C205 1.493 . S
C373 C63 1.389 . S
C399 C293 1.475 . S
C393 C137 1.364 . S
C419 C265 1.426 . S
C413 C39 1.358 . S
C439 C168 1.409 . S
C433 C113 1.350 . S
C459 C256 0.683 . S
C453 C51 0.671 . S
C473 C125 0.714 . S
C479 C177 0.721 . S
