# Generated by pormake.
# Topology pyr, (3,6)-cn, num edge types: 1
# Building blocks:
#     Node 0, Type 0, BuildingBlock: VETTIZ_charged_linker_0, # of connection points: 3
#     Node 1, Type 0, BuildingBlock: VETTIZ_charged_linker_0, # of connection points: 3
#     Node 2, Type 0, BuildingBlock: VETTIZ_charged_linker_0, # of connection points: 3
#     Node 3, Type 0, BuildingBlock: VETTIZ_charged_linker_0, # of connection points: 3
#     Node 4, Type 0, BuildingBlock: VETTIZ_charged_linker_0, # of connection points: 3
#     Node 5, Type 0, BuildingBlock: VETTIZ_charged_linker_0, # of connection points: 3
#     Node 6, Type 0, BuildingBlock: VETTIZ_charged_linker_0, # of connection points: 3
#     Node 7, Type 0, BuildingBlock: VETTIZ_charged_linker_0, # of connection points: 3
#     Node 8, Type 1, BuildingBlock: PAMTOO_clean_sbu_0, # of connection points: 6
#     Node 9, Type 1, BuildingBlock: PAMTOO_clean_sbu_0, # of connection points: 6
#     Node 10, Type 1, BuildingBlock: PAMTOO_clean_sbu_0, # of connection points: 6
#     Node 11, Type 1, BuildingBlock: PAMTOO_clean_sbu_0, # of connection points: 6
#     Edge 12, Type (0, 1), BuildingBlock: XUDNAN_clean_linker_2, # of connection points: 2
#     Edge 13, Type (0, 1), BuildingBlock: XUDNAN_clean_linker_2, # of connection points: 2
#     Edge 14, Type (0, 1), BuildingBlock: XUDNAN_clean_linker_2, # of connection points: 2
#     Edge 15, Type (0, 1), BuildingBlock: XUDNAN_clean_linker_2, # of connection points: 2
#     Edge 16, Type (0, 1), BuildingBlock: XUDNAN_clean_linker_2, # of connection points: 2
#     Edge 17, Type (0, 1), BuildingBlock: XUDNAN_clean_linker_2, # of connection points: 2
#     Edge 18, Type (0, 1), BuildingBlock: XUDNAN_clean_linker_2, # of connection points: 2
#     Edge 19, Type (0, 1), BuildingBlock: XUDNAN_clean_linker_2, # of connection points: 2
#     Edge 20, Type (0, 1), BuildingBlock: XUDNAN_clean_linker_2, # of connection points: 2
#     Edge 21, Type (0, 1), BuildingBlock: XUDNAN_clean_linker_2, # of connection points: 2
#     Edge 22, Type (0, 1), BuildingBlock: XUDNAN_clean_linker_2, # of connection points: 2
#     Edge 23, Type (0, 1), BuildingBlock: XUDNAN_clean_linker_2, # of connection points: 2
#     Edge 24, Type (0, 1), BuildingBlock: XUDNAN_clean_linker_2, # of connection points: 2
#     Edge 25, Type (0, 1), BuildingBlock: XUDNAN_clean_linker_2, # of connection points: 2
#     Edge 26, Type (0, 1), BuildingBlock: XUDNAN_clean_linker_2, # of connection points: 2
#     Edge 27, Type (0, 1), BuildingBlock: XUDNAN_clean_linker_2, # of connection points: 2
#     Edge 28, Type (0, 1), BuildingBlock: XUDNAN_clean_linker_2, # of connection points: 2
#     Edge 29, Type (0, 1), BuildingBlock: XUDNAN_clean_linker_2, # of connection points: 2
#     Edge 30, Type (0, 1), BuildingBlock: XUDNAN_clean_linker_2, # of connection points: 2
#     Edge 31, Type (0, 1), BuildingBlock: XUDNAN_clean_linker_2, # of connection points: 2
#     Edge 32, Type (0, 1), BuildingBlock: XUDNAN_clean_linker_2, # of connection points: 2
#     Edge 33, Type (0, 1), BuildingBlock: XUDNAN_clean_linker_2, # of connection points: 2
#     Edge 34, Type (0, 1), BuildingBlock: XUDNAN_clean_linker_2, # of connection points: 2
#     Edge 35, Type (0, 1), BuildingBlock: XUDNAN_clean_linker_2, # of connection points: 2
# Relax obj value: 0.092
# Max RMSD: 0.158
# Mean RMSD: 0.068
data_MOF--net-pyr--node1-PAMTOO_clean_sbu_0--node2-VETTIZ_charged_linker_0--edge1-XUDNAN_clean_linker_2
_symmetry_space_group_name_H-M    P1
_symmetry_Int_Tables_number       1
_symmetry_cell_setting            triclinic
loop_
_symmetry_equiv_pos_as_xyz
'x, y, z'
_cell_length_a     45.062967
_cell_length_b     46.79577
_cell_length_c     46.560616
_cell_angle_alpha  89.802313
_cell_angle_beta   89.698817
_cell_angle_gamma 102.2533
loop_
_atom_site_label
_atom_site_type_symbol
_atom_site_fract_x
_atom_site_fract_y
_atom_site_fract_z
_atom_type_partial_charge
C0 C 0.31009 0.22587 0.31957 0.0
C1 C 0.28356 0.22561 0.33602 0.0
C2 C 0.26061 0.23808 0.32344 0.0
C3 C 0.28957 0.24818 0.27924 0.0
C4 C 0.31205 0.23611 0.29119 0.0
C5 C 0.33562 0.23211 0.2694 0.0
H6 H 0.37968 0.23737 0.13045 0.0
C7 C 0.29767 0.25517 0.24886 0.0
C8 C 0.32454 0.2456 0.2429 0.0
H9 H 0.41027 0.19071 0.20103 0.0
H10 H 0.38241 0.21446 0.2343 0.0
H11 H 0.37816 0.29875 0.1643 0.0
H12 H 0.31252 0.21943 0.14775 0.0
H13 H 0.29521 0.24894 0.14069 0.0
H14 H 0.32806 0.24543 0.12028 0.0
H15 H 0.35947 0.29209 0.13031 0.0
H16 H 0.34318 0.30903 0.1596 0.0
C17 C 0.36693 0.24969 0.27912 0.0
C18 C 0.33407 0.19876 0.2659 0.0
C19 C 0.22798 0.30002 0.18531 0.0
C20 C 0.22971 0.30859 0.15622 0.0
C21 C 0.25633 0.30778 0.14046 0.0
C22 C 0.28012 0.29725 0.15296 0.0
C23 C 0.27722 0.28708 0.18144 0.0
C24 C 0.25201 0.28953 0.19746 0.0
C25 C 0.25348 0.27853 0.22773 0.0
C26 C 0.28345 0.26857 0.22696 0.0
C27 C 0.29688 0.27309 0.1996 0.0
C28 C 0.25457 0.3046 0.24835 0.0
C29 C 0.22607 0.25263 0.23271 0.0
C30 C 0.38038 0.23206 0.15305 0.0
C31 C 0.39664 0.21135 0.16276 0.0
C32 C 0.3979 0.20632 0.19262 0.0
C33 C 0.38111 0.21964 0.21196 0.0
C34 C 0.36208 0.2374 0.20135 0.0
C35 C 0.36258 0.244 0.17241 0.0
C36 C 0.33905 0.26109 0.16447 0.0
C37 C 0.32341 0.26245 0.19323 0.0
C38 C 0.33721 0.24884 0.21479 0.0
C39 C 0.35561 0.29181 0.1539 0.0
C40 C 0.31755 0.24309 0.14202 0.0
H41 H 0.24526 0.25842 0.28737 0.0
H42 H 0.32881 0.2173 0.32776 0.0
H43 H 0.31273 0.18524 0.27496 0.0
H44 H 0.33394 0.19215 0.24308 0.0
H45 H 0.35323 0.19194 0.27697 0.0
H46 H 0.36528 0.27213 0.28573 0.0
H47 H 0.37543 0.23893 0.29773 0.0
H48 H 0.38414 0.2524 0.26177 0.0
H49 H 0.20792 0.3004 0.19808 0.0
H50 H 0.25866 0.31503 0.11829 0.0
H51 H 0.29952 0.29672 0.1397 0.0
H52 H 0.26977 0.32467 0.23961 0.0
H53 H 0.23163 0.3094 0.25125 0.0
H54 H 0.26389 0.30109 0.26962 0.0
H55 H 0.2193 0.24056 0.21242 0.0
H56 H 0.23126 0.23591 0.24757 0.0
H57 H 0.20598 0.26039 0.24092 0.0
H58 H 0.23939 0.23799 0.33432 0.0
C59 C 0.26375 0.24973 0.29556 0.0
C60 C 0.09188 0.80461 0.66497 0.0
C61 C 0.07434 0.82117 0.68021 0.0
C62 C 0.07657 0.82255 0.71038 0.0
C63 C 0.11663 0.79535 0.70912 0.0
C64 C 0.11286 0.79192 0.67982 0.0
C65 C 0.13515 0.77565 0.66684 0.0
H66 H 0.26372 0.72389 0.68259 0.0
C67 C 0.14331 0.78372 0.71749 0.0
C68 C 0.15421 0.77189 0.69288 0.0
H69 H 0.20732 0.71857 0.60714 0.0
H70 H 0.17188 0.74146 0.6331 0.0
H71 H 0.26233 0.78644 0.69779 0.0
H72 H 0.20837 0.70557 0.72928 0.0
H73 H 0.22016 0.72842 0.75895 0.0
H74 H 0.24824 0.71804 0.73591 0.0
H75 H 0.27504 0.76703 0.72688 0.0
H76 H 0.25244 0.79406 0.73296 0.0
C77 C 0.15396 0.79533 0.64352 0.0
C78 C 0.1172 0.74593 0.65554 0.0
C79 C 0.18881 0.80805 0.81616 0.0
C80 C 0.21794 0.80829 0.82725 0.0
C81 C 0.23725 0.79372 0.81163 0.0
C82 C 0.22843 0.78068 0.78513 0.0
C83 C 0.20033 0.7828 0.77347 0.0
C84 C 0.18093 0.79608 0.78904 0.0
C85 C 0.15356 0.79933 0.77197 0.0
C86 C 0.1599 0.78588 0.74353 0.0
C87 C 0.18705 0.77586 0.74474 0.0
C88 C 0.15363 0.83249 0.7692 0.0
C89 C 0.125 0.781 0.7869 0.0
C90 C 0.2439 0.72786 0.67149 0.0
C91 C 0.23851 0.71968 0.64268 0.0
C92 C 0.21198 0.72462 0.62935 0.0
C93 C 0.1915 0.73797 0.64442 0.0
C94 C 0.19762 0.74651 0.6731 0.0
C95 C 0.22332 0.74107 0.68618 0.0
C96 C 0.22635 0.75141 0.71671 0.0
C97 C 0.19772 0.7632 0.72017 0.0
C98 C 0.18116 0.76075 0.69449 0.0
C99 C 0.25556 0.77586 0.71895 0.0
C100 C 0.22596 0.72461 0.73643 0.0
H101 H 0.09888 0.81234 0.74772 0.0
H102 H 0.09022 0.80263 0.64183 0.0
H103 H 0.09644 0.73774 0.66871 0.0
H104 H 0.13029 0.72849 0.65696 0.0
H105 H 0.10991 0.74785 0.633 0.0
H106 H 0.16119 0.81815 0.6514 0.0
H107 H 0.14039 0.79586 0.62375 0.0
H108 H 0.17504 0.78839 0.63758 0.0
H109 H 0.1729 0.81837 0.82748 0.0
H110 H 0.25999 0.79364 0.81889 0.0
H111 H 0.24447 0.77057 0.77419 0.0
H112 H 0.17673 0.8463 0.77228 0.0
H113 H 0.13844 0.83938 0.78543 0.0
H114 H 0.14707 0.83869 0.7476 0.0
H115 H 0.12929 0.75964 0.79438 0.0
H116 H 0.10533 0.77546 0.77236 0.0
H117 H 0.1185 0.79258 0.80596 0.0
H118 H 0.0635 0.83518 0.72271 0.0
C119 C 0.09746 0.80958 0.72489 0.0
C120 C 0.62137 0.26872 0.89932 0.0
C121 C 0.59528 0.24992 0.88854 0.0
C122 C 0.58006 0.25993 0.86527 0.0
C123 C 0.61714 0.30612 0.86375 0.0
C124 C 0.63182 0.29638 0.88668 0.0
C125 C 0.65975 0.31826 0.8953 0.0
H126 H 0.75403 0.45028 0.87918 0.0
C127 C 0.63443 0.33587 0.8554 0.0
C128 C 0.65942 0.34287 0.87404 0.0
H129 H 0.76213 0.38025 0.93775 0.0
H130 H 0.71593 0.35099 0.91954 0.0
H131 H 0.68136 0.44377 0.88464 0.0
H132 H 0.7373 0.40831 0.82515 0.0
H133 H 0.70792 0.41789 0.80519 0.0
H134 H 0.73431 0.44593 0.82397 0.0
H135 H 0.70455 0.46573 0.85789 0.0
H136 H 0.66647 0.4462 0.85013 0.0
C137 C 0.65511 0.32765 0.92661 0.0
C138 C 0.68769 0.30423 0.89075 0.0
C139 C 0.59945 0.39397 0.77276 0.0
C140 C 0.61082 0.42238 0.76177 0.0
C141 C 0.63746 0.43924 0.77373 0.0
C142 C 0.65251 0.42837 0.79626 0.0
C143 C 0.64081 0.40024 0.8074 0.0
C144 C 0.61475 0.38338 0.79564 0.0
C145 C 0.60545 0.35423 0.81102 0.0
C146 C 0.63019 0.35642 0.83372 0.0
C147 C 0.65085 0.38355 0.83139 0.0
C148 C 0.57379 0.35248 0.82472 0.0
C149 C 0.60657 0.32971 0.78915 0.0
C150 C 0.74613 0.42858 0.88804 0.0
C151 C 0.76214 0.41796 0.91033 0.0
C152 C 0.7503 0.38958 0.92119 0.0
C153 C 0.72344 0.37233 0.91028 0.0
C154 C 0.70802 0.38317 0.88792 0.0
C155 C 0.7195 0.4108 0.87705 0.0
C156 C 0.70066 0.41823 0.85253 0.0
C157 C 0.67591 0.39052 0.85057 0.0
C158 C 0.68025 0.37021 0.87156 0.0
C159 C 0.68763 0.44499 0.86145 0.0
C160 C 0.72094 0.4231 0.82521 0.0
H161 H 0.57821 0.29394 0.83525 0.0
H162 H 0.63403 0.26178 0.91678 0.0
H163 H 0.68379 0.28799 0.87304 0.0
H164 H 0.70827 0.32031 0.88408 0.0
H165 H 0.69272 0.2927 0.91044 0.0
H166 H 0.63126 0.32983 0.93022 0.0
H167 H 0.65995 0.31123 0.9422 0.0
H168 H 0.66912 0.34928 0.93199 0.0
H169 H 0.5787 0.3807 0.76433 0.0
H170 H 0.64641 0.46122 0.76586 0.0
H171 H 0.67253 0.44255 0.80442 0.0
H172 H 0.5722 0.37387 0.83429 0.0
H173 H 0.55559 0.34684 0.80842 0.0
H174 H 0.56894 0.33655 0.84253 0.0
H175 H 0.62723 0.33561 0.77537 0.0
H176 H 0.60791 0.30879 0.79949 0.0
H177 H 0.58645 0.32611 0.77488 0.0
H178 H 0.55971 0.24621 0.85659 0.0
C179 C 0.59078 0.28779 0.8529 0.0
C180 C 0.93105 0.77678 0.37968 0.0
C181 C 0.92258 0.79229 0.40347 0.0
C182 C 0.89551 0.77981 0.4183 0.0
C183 C 0.88638 0.7377 0.38688 0.0
C184 C 0.91251 0.74962 0.37172 0.0
C185 C 0.91717 0.73014 0.34681 0.0
H186 H 0.86116 0.60993 0.26442 0.0
C187 C 0.87163 0.70979 0.37323 0.0
C188 C 0.88927 0.70505 0.34951 0.0
H189 H 0.94587 0.67228 0.25306 0.0
H190 H 0.93596 0.69779 0.29621 0.0
H191 H 0.8683 0.604 0.33621 0.0
H192 H 0.82036 0.65585 0.28387 0.0
H193 H 0.79686 0.63964 0.31245 0.0
H194 H 0.80898 0.61669 0.28579 0.0
H195 H 0.83658 0.58768 0.31425 0.0
H196 H 0.83112 0.6013 0.34958 0.0
C197 C 0.947 0.71959 0.35185 0.0
C198 C 0.91691 0.74769 0.31867 0.0
C199 C 0.77313 0.65403 0.41683 0.0
C200 C 0.75083 0.62966 0.40863 0.0
C201 C 0.75654 0.61395 0.38403 0.0
C202 C 0.78342 0.62313 0.36758 0.0
C203 C 0.80485 0.6484 0.37567 0.0
C204 C 0.79921 0.6632 0.40002 0.0
C205 C 0.82274 0.69052 0.40496 0.0
C206 C 0.84429 0.68955 0.3801 0.0
C207 C 0.83405 0.66485 0.36287 0.0
C208 C 0.83791 0.68742 0.43431 0.0
C209 C 0.80696 0.71697 0.40261 0.0
C210 C 0.87764 0.62891 0.2715 0.0
C211 C 0.90439 0.6391 0.25545 0.0
C212 C 0.92526 0.66394 0.26521 0.0
C213 C 0.91935 0.67881 0.29016 0.0
C214 C 0.89224 0.66875 0.30574 0.0
C215 C 0.87218 0.64379 0.29662 0.0
C216 C 0.84494 0.63574 0.3163 0.0
C217 C 0.85164 0.66007 0.33844 0.0
C218 C 0.87933 0.67973 0.33201 0.0
C219 C 0.84493 0.6055 0.32979 0.0
C220 C 0.81611 0.6368 0.29882 0.0
H221 H 0.85784 0.74488 0.42309 0.0
H222 H 0.95161 0.78541 0.36762 0.0
H223 H 0.89808 0.75969 0.31904 0.0
H224 H 0.91306 0.73371 0.29947 0.0
H225 H 0.93855 0.76402 0.3158 0.0
H226 H 0.94975 0.71492 0.37502 0.0
H227 H 0.96703 0.73649 0.34498 0.0
H228 H 0.94748 0.6989 0.34075 0.0
H229 H 0.77021 0.66641 0.43585 0.0
H230 H 0.73987 0.59511 0.377 0.0
H231 H 0.78623 0.61057 0.34888 0.0
H232 H 0.84068 0.66458 0.43773 0.0
H233 H 0.82392 0.69295 0.45233 0.0
H234 H 0.8611 0.70098 0.43592 0.0
H235 H 0.7859 0.71164 0.38955 0.0
H236 H 0.82118 0.73595 0.39138 0.0
H237 H 0.80045 0.72394 0.4241 0.0
H238 H 0.88737 0.79117 0.4359 0.0
C239 C 0.8778 0.75279 0.41044 0.0
C240 C 0.7538 0.72843 0.90011 0.0
C241 C 0.77902 0.72219 0.88547 0.0
C242 C 0.78552 0.73303 0.85734 0.0
C243 C 0.74249 0.7565 0.85922 0.0
C244 C 0.73596 0.74556 0.88666 0.0
C245 C 0.70933 0.75544 0.89983 0.0
H246 H 0.61213 0.84648 0.89437 0.0
C247 C 0.72004 0.77416 0.85183 0.0
C248 C 0.70038 0.77343 0.87543 0.0
H249 H 0.62975 0.79305 0.96554 0.0
H250 H 0.66085 0.76973 0.93493 0.0
H251 H 0.60364 0.79596 0.84666 0.0
H252 H 0.67989 0.86348 0.87058 0.0
H253 H 0.67484 0.86385 0.83298 0.0
H254 H 0.64493 0.86971 0.856 0.0
H255 H 0.60947 0.83183 0.83115 0.0
H256 H 0.62629 0.80362 0.81556 0.0
C257 C 0.68418 0.72805 0.90641 0.0
C258 C 0.72082 0.77434 0.9265 0.0
C259 C 0.73135 0.83295 0.75906 0.0
C260 C 0.71383 0.85116 0.74633 0.0
C261 C 0.68558 0.85246 0.75897 0.0
C262 C 0.67614 0.83783 0.78479 0.0
C263 C 0.695 0.82158 0.79819 0.0
C264 C 0.72129 0.81812 0.78463 0.0
C265 C 0.73705 0.79786 0.80091 0.0
C266 C 0.71651 0.79088 0.82709 0.0
C267 C 0.69242 0.80555 0.82572 0.0
C268 C 0.73676 0.77043 0.78222 0.0
C269 C 0.7692 0.81505 0.80897 0.0
C270 C 0.62205 0.82921 0.90315 0.0
C271 C 0.61892 0.82192 0.93249 0.0
C272 C 0.6323 0.79942 0.94312 0.0
C273 C 0.65045 0.78601 0.92535 0.0
C274 C 0.65556 0.79541 0.89671 0.0
C275 C 0.64059 0.81589 0.88574 0.0
C276 C 0.6492 0.82363 0.85497 0.0
C277 C 0.67302 0.80552 0.84984 0.0
C278 C 0.67676 0.78923 0.87443 0.0
C279 C 0.62077 0.81347 0.83599 0.0
C280 C 0.66287 0.85691 0.85331 0.0
H281 H 0.77353 0.7578 0.82275 0.0
H282 H 0.74853 0.72086 0.92193 0.0
H283 H 0.74511 0.78547 0.92403 0.0
H284 H 0.70891 0.79239 0.92986 0.0
H285 H 0.71883 0.76076 0.94631 0.0
H286 H 0.6828 0.71169 0.88892 0.0
H287 H 0.68888 0.71736 0.92673 0.0
H288 H 0.6613 0.73297 0.9077 0.0
H289 H 0.75304 0.83105 0.75011 0.0
H290 H 0.67088 0.86523 0.7492 0.0
H291 H 0.65486 0.84028 0.79373 0.0
H292 H 0.71699 0.76618 0.76744 0.0
H293 H 0.75765 0.7731 0.76883 0.0
H294 H 0.7342 0.75019 0.79519 0.0
H295 H 0.76833 0.83744 0.8164 0.0
H296 H 0.77941 0.80502 0.82681 0.0
H297 H 0.78483 0.8173 0.79018 0.0
H298 H 0.80467 0.72828 0.84554 0.0
C299 C 0.76731 0.75002 0.8441 0.0
C300 C 0.91457 0.24375 0.41997 0.0
C301 C 0.931 0.226 0.40513 0.0
C302 C 0.92783 0.22286 0.37522 0.0
C303 C 0.88935 0.25187 0.37566 0.0
C304 C 0.89366 0.25633 0.40482 0.0
C305 C 0.87191 0.27345 0.41737 0.0
H306 H 0.74466 0.32721 0.40068 0.0
C307 C 0.86317 0.26412 0.36698 0.0
C308 C 0.85279 0.27689 0.39126 0.0
H309 H 0.80146 0.33301 0.47588 0.0
H310 H 0.83625 0.30912 0.45025 0.0
H311 H 0.74515 0.26413 0.38603 0.0
H312 H 0.80047 0.34402 0.35354 0.0
H313 H 0.78787 0.32087 0.32424 0.0
H314 H 0.76044 0.33238 0.34725 0.0
H315 H 0.73256 0.28386 0.35709 0.0
H316 H 0.75445 0.25629 0.35074 0.0
C317 C 0.85297 0.25466 0.4412 0.0
C318 C 0.89048 0.30325 0.42788 0.0
C319 C 0.81845 0.24034 0.26807 0.0
C320 C 0.78941 0.24008 0.25685 0.0
C321 C 0.77022 0.25513 0.27204 0.0
C322 C 0.77902 0.2684 0.29849 0.0
C323 C 0.80692 0.26599 0.31047 0.0
C324 C 0.82619 0.25231 0.29518 0.0
C325 C 0.85297 0.24823 0.31265 0.0
C326 C 0.84674 0.26208 0.34087 0.0
C327 C 0.82003 0.27281 0.3393 0.0
C328 C 0.85169 0.21483 0.31569 0.0
C329 C 0.88218 0.26565 0.29799 0.0
C330 C 0.76445 0.32315 0.41175 0.0
C331 C 0.77015 0.33174 0.44043 0.0
C332 C 0.79659 0.32665 0.45378 0.0
C333 C 0.81669 0.3127 0.4389 0.0
C334 C 0.81026 0.3037 0.4104 0.0
C335 C 0.7847 0.30937 0.39723 0.0
C336 C 0.78145 0.2986 0.36683 0.0
C337 C 0.80969 0.28613 0.36363 0.0
C338 C 0.82627 0.28869 0.38932 0.0
C339 C 0.75186 0.27462 0.36481 0.0
C340 C 0.78241 0.32521 0.34673 0.0
H341 H 0.90561 0.23244 0.33765 0.0
H342 H 0.91666 0.24631 0.44303 0.0
H343 H 0.91116 0.31075 0.41441 0.0
H344 H 0.87778 0.32095 0.42612 0.0
H345 H 0.89799 0.30175 0.45042 0.0
H346 H 0.84542 0.23163 0.43398 0.0
H347 H 0.86657 0.25454 0.46102 0.0
H348 H 0.83204 0.26201 0.44686 0.0
H349 H 0.83431 0.22972 0.25702 0.0
H350 H 0.74759 0.25531 0.26455 0.0
H351 H 0.76307 0.27881 0.30922 0.0
H352 H 0.82865 0.20152 0.31121 0.0
H353 H 0.86772 0.20753 0.3006 0.0
H354 H 0.85646 0.2084 0.3378 0.0
H355 H 0.87894 0.28746 0.29073 0.0
H356 H 0.90182 0.27015 0.31264 0.0
H357 H 0.88817 0.2539 0.27884 0.0
H358 H 0.94054 0.20939 0.36352 0.0
C359 C 0.90739 0.23604 0.36035 0.0
C360 C 0.4127 0.65208 0.30804 0.0
C361 C 0.39992 0.62481 0.32108 0.0
C362 C 0.37082 0.61001 0.31236 0.0
C363 C 0.36846 0.64756 0.27698 0.0
C364 C 0.39654 0.66303 0.28593 0.0
C365 C 0.40655 0.69095 0.26849 0.0
H366 H 0.3725 0.77859 0.16034 0.0
C367 C 0.35783 0.66363 0.25299 0.0
C368 C 0.37986 0.68951 0.24794 0.0
H369 H 0.45582 0.79362 0.20868 0.0
H370 H 0.43599 0.74985 0.23747 0.0
H371 H 0.32566 0.75641 0.21218 0.0
H372 H 0.37197 0.71567 0.14876 0.0
H373 H 0.33713 0.69123 0.15379 0.0
H374 H 0.33775 0.7277 0.14066 0.0
H375 H 0.31623 0.75486 0.17473 0.0
H376 H 0.29905 0.72618 0.19936 0.0
C377 C 0.41002 0.71726 0.28898 0.0
C378 C 0.43611 0.68935 0.25227 0.0
C379 C 0.2597 0.61767 0.20061 0.0
C380 C 0.24446 0.62701 0.17705 0.0
C381 C 0.2563 0.65489 0.16514 0.0
C382 C 0.28265 0.67286 0.17605 0.0
C383 C 0.29795 0.66302 0.19907 0.0
C384 C 0.2863 0.63598 0.21119 0.0
C385 C 0.30571 0.62939 0.23566 0.0
C386 C 0.33131 0.65664 0.23563 0.0
C387 C 0.32654 0.6761 0.21411 0.0
C388 C 0.28647 0.62664 0.26365 0.0
C389 C 0.31741 0.60158 0.22774 0.0
C390 C 0.38679 0.77266 0.17702 0.0
C391 C 0.41604 0.78955 0.18174 0.0
C392 C 0.43321 0.78108 0.20439 0.0
C393 C 0.42175 0.7555 0.2209 0.0
C394 C 0.39287 0.73808 0.21465 0.0
C395 C 0.3761 0.74719 0.19297 0.0
C396 C 0.34693 0.72595 0.18727 0.0
C397 C 0.34823 0.7025 0.20933 0.0
C398 C 0.37499 0.7094 0.2258 0.0
C399 C 0.32043 0.74151 0.19345 0.0
C400 C 0.34818 0.71457 0.15603 0.0
H401 H 0.33329 0.60842 0.28504 0.0
H402 H 0.43503 0.66401 0.3142 0.0
H403 H 0.43423 0.66745 0.24236 0.0
H404 H 0.44112 0.70528 0.23449 0.0
H405 H 0.45577 0.69307 0.26712 0.0
H406 H 0.38981 0.71489 0.30332 0.0
H407 H 0.4304 0.71881 0.3027 0.0
H408 H 0.41181 0.73817 0.27743 0.0
H409 H 0.25117 0.59661 0.21066 0.0
H410 H 0.24563 0.66267 0.14676 0.0
H411 H 0.29028 0.69366 0.16574 0.0
H412 H 0.26846 0.63959 0.26232 0.0
H413 H 0.27509 0.60356 0.26803 0.0
H414 H 0.30006 0.63557 0.28257 0.0
H415 H 0.32436 0.60221 0.20474 0.0
H416 H 0.33777 0.59931 0.23982 0.0
H417 H 0.29943 0.58157 0.23115 0.0
H418 H 0.36022 0.58932 0.32223 0.0
C419 C 0.35513 0.62116 0.29066 0.0
C420 C 0.10144 0.26597 0.71102 0.0
C421 C 0.11084 0.25162 0.68689 0.0
C422 C 0.13779 0.26528 0.67252 0.0
C423 C 0.1452 0.30626 0.70541 0.0
C424 C 0.11896 0.29322 0.71988 0.0
C425 C 0.11241 0.31204 0.74461 0.0
H426 H 0.15549 0.43898 0.82068 0.0
C427 C 0.15795 0.33468 0.71915 0.0
C428 C 0.13898 0.3384 0.74236 0.0
H429 H 0.07525 0.37111 0.8352 0.0
H430 H 0.0904 0.34288 0.79622 0.0
H431 H 0.14781 0.44078 0.7547 0.0
H432 H 0.20287 0.39656 0.80677 0.0
H433 H 0.22529 0.41381 0.77796 0.0
H434 H 0.20949 0.43563 0.80324 0.0
H435 H 0.18288 0.45983 0.76998 0.0
H436 H 0.18163 0.44212 0.73548 0.0
C437 C 0.08166 0.3206 0.739 0.0
C438 C 0.11319 0.29487 0.77288 0.0
C439 C 0.2525 0.39963 0.67515 0.0
C440 C 0.26843 0.42822 0.681 0.0
C441 C 0.25963 0.44284 0.70502 0.0
C442 C 0.23512 0.42947 0.72259 0.0
C443 C 0.21875 0.40121 0.71596 0.0
C444 C 0.22768 0.38677 0.69264 0.0
C445 C 0.20691 0.35748 0.68799 0.0
C446 C 0.18398 0.35671 0.71226 0.0
C447 C 0.19106 0.38227 0.72871 0.0
C448 C 0.19209 0.35796 0.658 0.0
C449 C 0.22583 0.33367 0.69184 0.0
C450 C 0.1408 0.4182 0.81554 0.0
C451 C 0.11381 0.40771 0.83129 0.0
C452 C 0.09623 0.37994 0.82385 0.0
C453 C 0.10494 0.36361 0.80094 0.0
C454 C 0.13152 0.37504 0.78497 0.0
C455 C 0.14891 0.40195 0.7926 0.0
C456 C 0.17578 0.41166 0.77294 0.0
C457 C 0.17217 0.38607 0.75241 0.0
C458 C 0.14621 0.36439 0.75938 0.0
C459 C 0.17218 0.44017 0.75752 0.0
C460 C 0.20504 0.41483 0.79102 0.0
H461 H 0.17498 0.30114 0.66946 0.0
H462 H 0.08099 0.25624 0.72279 0.0
H463 H 0.13299 0.28415 0.77299 0.0
H464 H 0.11577 0.30902 0.79198 0.0
H465 H 0.09227 0.27753 0.77545 0.0
H466 H 0.0799 0.32676 0.71606 0.0
H467 H 0.06242 0.30207 0.74392 0.0
H468 H 0.07876 0.33981 0.75148 0.0
H469 H 0.25838 0.38799 0.65662 0.0
H470 H 0.27164 0.46484 0.71006 0.0
H471 H 0.22956 0.44187 0.74042 0.0
H472 H 0.1893 0.38035 0.65228 0.0
H473 H 0.20619 0.35081 0.64095 0.0
H474 H 0.16883 0.34441 0.65708 0.0
H475 H 0.24334 0.34001 0.70874 0.0
H476 H 0.21208 0.31248 0.69924 0.0
H477 H 0.2378 0.33032 0.67162 0.0
H478 H 0.14544 0.25557 0.65354 0.0
C479 C 0.15492 0.29217 0.68166 0.0
Dy480 Dy 0.04923 0.03099 0.52921 0.0
Dy481 Dy 0.9769 1.02264 0.54564 0.0
C482 C 0.02761 0.0724 0.57657 0.0
O483 O 0.03755 0.9899 0.55496 0.0
O484 O 0.99456 0.99603 0.57884 0.0
O485 O 0.09624 0.03326 0.54022 0.0
O486 O 0.0827 0.03394 0.49558 0.0
O487 O 0.981 0.98145 0.52322 0.0
O488 O 0.02187 1.00233 0.49564 0.0
O489 O 0.98617 0.04999 0.50574 0.0
O490 O 0.03581 0.07141 0.51369 0.0
O491 O 0.93005 1.01072 0.53189 0.0
O492 O 0.94128 0.02909 0.57418 0.0
C493 C 0.01714 0.98256 0.57541 0.0
O494 O 0.04938 0.05941 0.56815 0.0
O495 O 0.99976 0.06439 0.56679 0.0
C496 C 0.13247 0.05788 0.50649 0.0
C497 C 0.1828 0.10005 0.48684 0.0
C498 C 0.16027 0.10835 0.50409 0.0
C499 C 0.13518 0.08739 0.51377 0.0
C500 C 0.15524 0.04943 0.49017 0.0
C501 C 0.18007 0.07024 0.48035 0.0
C502 C 0.10518 0.03571 0.51345 0.0
C503 C 0.99855 0.98071 0.50081 0.0
C504 C 0.00952 0.07185 0.50206 0.0
C505 C 0.89368 0.99723 0.56906 0.0
C506 C 0.84343 0.96404 0.59879 0.0
C507 C 0.87277 0.95909 0.60347 0.0
C508 C 0.89776 0.9756 0.5887 0.0
C509 C 0.86436 1.00111 0.56321 0.0
C510 C 0.83941 0.98463 0.5779 0.0
C511 C 0.91967 1.01776 0.55648 0.0
H512 H 0.16174 0.13105 0.50965 0.0
H513 H 0.11761 0.09425 0.52628 0.0
H514 H 0.15328 0.02676 0.48413 0.0
H515 H 0.1964 0.06298 0.46656 0.0
H516 H 0.87664 0.94355 0.61957 0.0
H517 H 0.92032 0.97232 0.59344 0.0
H518 H 0.86085 1.01767 0.54802 0.0
H519 H 0.81704 0.98859 0.5735 0.0
Dy520 Dy 0.47954 1.01134 1.01483 0.0
Dy521 Dy 0.5364 0.03175 0.05964 0.0
C522 C 0.48348 0.97453 0.0726 0.0
O523 O 0.47543 0.05411 1.03344 0.0
O524 O 0.49998 0.05308 0.07617 0.0
O525 O 0.43268 1.01061 1.00577 0.0
O526 O 0.46065 0.99469 0.97403 0.0
O527 O 0.5402 0.06852 1.02729 0.0
O528 O 0.51667 0.0408 0.99022 0.0
O529 O 0.55065 1.00163 1.02785 0.0
O530 O 0.50472 0.97536 1.01218 0.0
O531 O 0.58464 0.04507 0.06536 0.0
O532 O 0.5546 0.03871 0.10266 0.0
C533 C 0.48092 0.06323 0.05985 0.0
O534 O 0.46572 0.9844 0.05441 0.0
O535 O 0.51224 0.98734 0.0756 0.0
C536 C 0.40745 0.97329 0.97467 0.0
C537 C 0.35545 0.93258 0.9566 0.0
C538 C 0.38399 0.93268 0.94421 0.0
C539 C 0.40974 0.95294 0.95307 0.0
C540 C 0.37913 0.9722 0.98796 0.0
C541 C 0.35345 0.95202 0.97908 0.0
C542 C 0.43335 0.99758 0.98112 0.0
C543 C 0.53379 0.0652 0.99975 0.0
C544 C 0.53399 0.97825 1.01603 0.0
C545 C 0.60344 0.06972 0.10804 0.0
C546 C 0.65148 0.1096 0.13341 0.0
C547 C 0.63841 0.1171 0.10789 0.0
C548 C 0.61455 0.09714 0.09512 0.0
C549 C 0.61525 0.06312 0.13438 0.0
C550 C 0.63907 0.08285 0.14696 0.0
C551 C 0.58251 0.04613 0.09327 0.0
H552 H 0.38616 0.9182 0.92658 0.0
H553 H 0.43114 0.95341 0.9422 0.0
H554 H 0.3765 0.98768 1.00452 0.0
H555 H 0.33179 0.95225 0.98918 0.0
H556 H 0.6476 0.13766 0.09714 0.0
H557 H 0.60568 0.1026 0.07472 0.0
H558 H 0.60696 0.04208 0.14462 0.0
H559 H 0.64845 0.0768 0.1669 0.0
Dy560 Dy 0.50917 0.49615 0.53014 0.0
Dy561 Dy 0.50508 0.56 0.55624 0.0
C562 C 0.53127 0.51235 0.59334 0.0
O563 O 0.46671 0.48877 0.55761 0.0
O564 O 0.45749 0.53468 0.55351 0.0
O565 O 0.50522 0.44972 0.53623 0.0
O566 O 0.51724 0.46926 0.49445 0.0
O567 O 0.49653 0.56336 0.50902 0.0
O568 O 0.48009 0.51466 0.49895 0.0
O569 O 0.55399 0.56551 0.54461 0.0
O570 O 0.55015 0.52759 0.51263 0.0
O571 O 0.50467 0.60603 0.55173 0.0
O572 O 0.49854 0.58537 0.59348 0.0
C573 C 0.44845 0.50709 0.56061 0.0
O574 O 0.53863 0.5012 0.5692 0.0
O575 O 0.51374 0.53155 0.59311 0.0
C576 C 0.54249 0.43274 0.50918 0.0
C577 C 0.59668 0.41202 0.50364 0.0
C578 C 0.59004 0.42536 0.52922 0.0
C579 C 0.56331 0.43576 0.5319 0.0
C580 C 0.54861 0.4188 0.48393 0.0
C581 C 0.57546 0.40856 0.48114 0.0
C582 C 0.51582 0.44625 0.51065 0.0
C583 C 0.483 0.54244 0.49185 0.0
C584 C 0.56505 0.55248 0.52333 0.0
C585 C 0.46777 0.61867 0.58216 0.0
C586 C 0.41262 0.63791 0.58581 0.0
C587 C 0.44012 0.65791 0.58015 0.0
C588 C 0.46746 0.64831 0.57824 0.0
C589 C 0.44041 0.59876 0.58814 0.0
C590 C 0.41314 0.60826 0.58996 0.0
C591 C 0.49609 0.60815 0.57823 0.0
H592 H 0.60561 0.42802 0.54712 0.0
H593 H 0.55927 0.44668 0.55156 0.0
H594 H 0.53302 0.41656 0.46604 0.0
H595 H 0.58002 0.3988 0.46098 0.0
H596 H 0.44041 0.68086 0.57665 0.0
H597 H 0.48829 0.66396 0.57334 0.0
H598 H 0.44005 0.57575 0.59124 0.0
H599 H 0.39249 0.59237 0.59485 0.0
Dy600 Dy 0.0115 0.55633 1.02649 0.0
Dy601 Dy 0.99796 0.49244 0.05722 0.0
C602 C 0.9719 0.54553 0.08332 0.0
O603 O 0.04589 0.55942 0.06153 0.0
O604 O 0.04749 0.51101 0.06377 0.0
O605 O 0.0201 0.60338 1.03004 0.0
O606 O 0.01687 0.58316 0.98814 0.0
O607 O 0.01742 0.48553 1.01356 0.0
O608 O 0.04312 0.53245 1.00434 0.0
O609 O 0.95366 0.49518 1.03654 0.0
O610 O 0.9741 0.52822 1.00177 0.0
O611 O 0.98107 0.44566 0.05653 0.0
O612 O 1.00002 0.46682 0.09555 0.0
C613 C 0.05929 0.53847 0.06976 0.0
O614 O 0.97284 0.55578 0.05701 0.0
O615 O 0.98521 0.52386 0.08947 0.0
C616 C 0.99263 0.62234 0.99416 0.0
C617 C 0.94164 0.64254 0.97451 0.0
C618 C 0.94268 0.63248 1.00288 0.0
C619 C 0.96781 0.62234 1.01257 0.0
C620 C 0.99235 0.63371 0.96628 0.0
C621 C 0.96707 0.64377 0.95651 0.0
C622 C 0.01658 0.60692 1.00255 0.0
C623 C 0.03721 0.50436 0.99823 0.0
C624 C 0.95167 0.50785 1.01157 0.0
C625 C 0.01158 0.42162 0.08487 0.0
C626 C 0.05529 0.38738 0.09284 0.0
C627 C 0.05476 0.40324 0.06723 0.0
C628 C 0.03321 0.42036 0.06335 0.0
C629 C 0.01156 0.40529 0.11015 0.0
C630 C 0.03329 0.38831 0.11415 0.0
C631 C 0.99111 0.44208 0.08223 0.0
H632 H 0.92371 0.63177 1.01745 0.0
H633 H 0.96724 0.61349 1.03414 0.0
H634 H 0.01111 0.6336 0.95166 0.0
H635 H 0.96688 0.6512 0.93447 0.0
H636 H 0.07169 0.40329 0.05062 0.0
H637 H 0.034 0.43323 0.04386 0.0
H638 H 0.99522 0.40625 0.12709 0.0
H639 H 0.03308 0.37615 0.13401 0.0
H640 H 0.24153 0.23026 0.37947 0.0
H641 H 0.31303 0.1837 0.35853 0.0
H642 H 0.30153 0.15527 0.40229 0.0
H643 H 0.24238 0.22378 0.45909 0.0
H644 H 0.2015 0.21559 0.46114 0.0
H645 H 0.2207 0.23909 0.43297 0.0
H646 H 0.18974 0.2054 0.39467 0.0
H647 H 0.17038 0.18208 0.42265 0.0
H648 H 0.19022 0.16697 0.39474 0.0
H649 H 0.27866 0.1266 0.44452 0.0
H650 H 0.24185 0.09574 0.47689 0.0
H651 H 0.17971 0.15414 0.46516 0.0
C652 C 0.25516 0.21436 0.38366 0.0
C653 C 0.27868 0.2102 0.3647 0.0
C654 C 0.29569 0.18893 0.37238 0.0
C655 C 0.28921 0.17219 0.39749 0.0
C656 C 0.26521 0.1762 0.41477 0.0
C657 C 0.24812 0.19645 0.40795 0.0
C658 C 0.22 0.1926 0.42682 0.0
C659 C 0.22123 0.21936 0.44616 0.0
C660 C 0.19089 0.18637 0.40864 0.0
C661 C 0.22329 0.16608 0.4443 0.0
C662 C 0.25019 0.15778 0.43782 0.0
C663 C 0.25757 0.13294 0.44986 0.0
C664 C 0.23634 0.11539 0.46803 0.0
C665 C 0.20759 0.12218 0.47327 0.0
C666 C 0.20158 0.1485 0.46204 0.0
H667 H 0.26209 0.80062 0.86628 0.0
H668 H 0.20161 0.85888 0.84557 0.0
H669 H 0.22503 0.89229 0.88313 0.0
H670 H 0.27237 0.81804 0.9442 0.0
H671 H 0.31229 0.81781 0.94251 0.0
H672 H 0.28604 0.79446 0.91913 0.0
H673 H 0.31781 0.81702 0.87491 0.0
H674 H 0.34402 0.84045 0.89806 0.0
H675 H 0.32555 0.85609 0.86958 0.0
H676 H 0.25908 0.92314 0.91737 0.0
H677 H 0.3032 0.95026 0.94392 0.0
H678 H 0.34519 0.87505 0.93951 0.0
C679 C 0.25336 0.82016 0.86971 0.0
C680 C 0.22946 0.8265 0.85281 0.0
C681 C 0.21897 0.8525 0.85855 0.0
C682 C 0.23236 0.87197 0.87985 0.0
C683 C 0.25653 0.86552 0.89518 0.0
C684 C 0.26707 0.84031 0.89033 0.0
C685 C 0.29616 0.84067 0.90667 0.0
C686 C 0.29142 0.8163 0.92949 0.0
C687 C 0.32242 0.83844 0.88608 0.0
C688 C 0.30094 0.87056 0.92045 0.0
C689 C 0.27733 0.88414 0.91416 0.0
C690 C 0.27743 0.91257 0.92291 0.0
C691 C 0.30257 0.92776 0.93807 0.0
C692 C 0.3275 0.91467 0.94399 0.0
C693 C 0.32637 0.88552 0.93542 0.0
H694 H 0.60645 0.41323 0.70283 0.0
H695 H 0.57874 0.46405 0.77169 0.0
H696 H 0.55517 0.49187 0.73637 0.0
H697 H 0.62616 0.47234 0.65262 0.0
H698 H 0.61229 0.45114 0.62135 0.0
H699 H 0.62529 0.43365 0.65194 0.0
H700 H 0.57358 0.39689 0.65489 0.0
H701 H 0.56057 0.41416 0.62415 0.0
H702 H 0.53905 0.41041 0.65719 0.0
H703 H 0.53637 0.5156 0.69379 0.0
H704 H 0.52231 0.53307 0.64688 0.0
H705 H 0.56248 0.46797 0.60414 0.0
C706 C 0.59484 0.42983 0.71037 0.0
C707 C 0.59394 0.43622 0.74009 0.0
C708 C 0.57929 0.45859 0.74912 0.0
C709 C 0.56595 0.47456 0.72918 0.0
C710 C 0.56753 0.46811 0.70006 0.0
C711 C 0.58147 0.44622 0.69057 0.0
C712 C 0.58071 0.44456 0.65787 0.0
C713 C 0.61304 0.4508 0.64521 0.0
C714 C 0.56238 0.41473 0.64794 0.0
C715 C 0.5644 0.46901 0.65055 0.0
C716 C 0.55697 0.48219 0.6753 0.0
C717 C 0.542 0.50536 0.67428 0.0
C718 C 0.53413 0.5152 0.64739 0.0
C719 C 0.54123 0.50208 0.62154 0.0
C720 C 0.55675 0.47866 0.62334 0.0
H721 H 0.94154 0.60055 0.24296 0.0
H722 H 0.87875 0.6477 0.20451 0.0
H723 H 0.888 0.62786 0.15681 0.0
H724 H 0.9955 0.60947 0.18513 0.0
H725 H 1.00305 0.57326 0.18805 0.0
H726 H 0.99113 0.59064 0.21924 0.0
H727 H 0.94624 0.54647 0.22691 0.0
H728 H 0.95805 0.52894 0.19573 0.0
H729 H 0.91994 0.53503 0.19804 0.0
H730 H 0.9062 0.60514 0.11286 0.0
H731 H 0.92997 0.57939 0.07603 0.0
H732 H 0.97946 0.54432 0.1425 0.0
C733 C 0.92965 0.60644 0.22445 0.0
C734 C 0.90935 0.62563 0.22733 0.0
C735 C 0.89423 0.63295 0.20271 0.0
C736 C 0.8994 0.6218 0.17556 0.0
C737 C 0.91957 0.60302 0.17331 0.0
C738 C 0.93426 0.59512 0.19712 0.0
C739 C 0.95472 0.57443 0.18863 0.0
C740 C 0.98808 0.58776 0.19568 0.0
C741 C 0.9441 0.54444 0.2032 0.0
C742 C 0.94967 0.57237 0.15632 0.0
C743 C 0.92932 0.58912 0.148 0.0
C744 C 0.92188 0.59172 0.11921 0.0
C745 C 0.93559 0.57698 0.09838 0.0
C746 C 0.95642 0.5595 0.10622 0.0
C747 C 0.96329 0.55707 0.13574 0.0
H748 H 0.44689 0.18582 0.16733 0.0
H749 H 0.37173 0.19195 0.11098 0.0
H750 H 0.38762 0.15767 0.07778 0.0
H751 H 0.5014 0.17597 0.11123 0.0
H752 H 0.516 0.14937 0.13184 0.0
H753 H 0.50131 0.17748 0.14992 0.0
H754 H 0.46408 0.1378 0.17884 0.0
H755 H 0.4785 0.10959 0.16074 0.0
H756 H 0.43846 0.10934 0.1599 0.0
H757 H 0.4087 0.12067 0.05197 0.0
H758 H 0.43405 0.08224 1.035 0.0
H759 H 0.49385 0.09657 0.1089 0.0
C760 C 0.43387 0.1802 0.14794 0.0
C761 C 0.40836 0.19237 0.14173 0.0
C762 C 0.39203 0.1841 0.116 0.0
C763 C 0.40065 0.16426 0.097 0.0
C764 C 0.42547 0.15245 0.10401 0.0
C765 C 0.44189 0.15998 0.12881 0.0
C766 C 0.4664 0.1424 0.13196 0.0
C767 C 0.49816 0.16251 0.13119 0.0
C768 C 0.46155 0.12367 0.15949 0.0
C769 C 0.4607 0.12353 0.1053 0.0
C770 C 0.43719 0.13003 0.0894 0.0
C771 C 0.42728 0.11544 0.06411 0.0
C772 C 0.44185 0.09361 0.05468 0.0
C773 C 0.46595 0.08634 0.07061 0.0
C774 C 0.47545 0.10156 0.09629 0.0
H775 H 0.09203 0.85432 0.63235 0.0
H776 H 0.01821 0.832 0.69409 0.0
H777 H 0.9939 0.86974 0.67277 0.0
H778 H 0.09865 0.9289 0.63396 0.0
H779 H 0.10678 0.93509 0.59623 0.0
H780 H 0.11641 0.9041 0.61393 0.0
H781 H 0.08463 0.86904 0.57714 0.0
H782 H 0.07534 0.90002 0.55895 0.0
H783 H 0.04546 0.87053 0.57135 0.0
H784 H 0.9803 0.91333 0.64717 0.0
H785 H 0.97744 0.95704 0.61808 0.0
H786 H 0.06049 0.94972 0.57368 0.0
C787 C 0.07022 0.85659 0.64081 0.0
C788 C 0.05694 0.84006 0.66479 0.0
C789 C 0.02885 0.84449 0.67577 0.0
C790 C 0.01484 0.8658 0.66376 0.0
C791 C 0.02912 0.88235 0.64068 0.0
C792 C 0.056 0.87768 0.62912 0.0
C793 C 0.06776 0.89941 0.60547 0.0
C794 C 0.09926 0.91796 0.61286 0.0
C795 C 0.06832 0.88381 0.57651 0.0
C796 C 0.04373 0.91753 0.60597 0.0
C797 C 0.02146 0.90732 0.62622 0.0
C798 C 0.99747 0.92132 0.63105 0.0
C799 C 0.99613 0.94622 0.61454 0.0
C800 C 0.01874 0.9569 0.5936 0.0
C801 C 0.04276 0.94221 0.58943 0.0
H802 H 0.78593 0.41895 0.96552 0.0
H803 H 0.80599 0.457 0.88043 0.0
H804 H 0.85464 0.48541 0.89805 0.0
H805 H 0.82152 0.48228 1.00677 0.0
H806 H 0.83671 0.46129 1.03333 0.0
H807 H 0.8022 0.44527 1.01481 0.0
H808 H 0.82604 0.40226 0.99842 0.0
H809 H 0.86059 0.41812 1.01692 0.0
H810 H 0.86171 0.40986 0.9792 0.0
H811 H 0.9016 0.50908 0.92417 0.0
H812 H 0.94487 0.52499 0.95639 0.0
H813 H 0.89689 0.46951 1.02424 0.0
C814 C 0.80049 0.43309 0.95041 0.0
C815 C 0.79153 0.43574 0.92146 0.0
C816 C 0.81153 0.45493 0.90282 0.0
C817 C 0.8395 0.47107 0.91258 0.0
C818 C 0.84755 0.46773 0.94105 0.0
C819 C 0.82877 0.44911 0.95969 0.0
C820 C 0.84357 0.4487 0.98895 0.0
C821 C 0.82488 0.46007 1.01235 0.0
C822 C 0.84826 0.4179 0.99629 0.0
C823 C 0.8737 0.46988 0.98372 0.0
C824 C 0.87527 0.48076 0.95599 0.0
C825 C 0.90064 0.50068 0.94591 0.0
C826 C 0.92516 0.50961 0.96452 0.0
C827 C 0.92451 0.49852 0.99299 0.0
C828 C 0.89824 0.4784 1.00266 0.0
H829 H 0.71435 0.57481 0.42196 0.0
H830 H 0.71979 0.66807 0.43236 0.0
H831 H 0.67518 0.65778 0.46396 0.0
H832 H 0.63076 0.55638 0.41916 0.0
H833 H 0.62766 0.52217 0.43806 0.0
H834 H 0.66078 0.53644 0.41639 0.0
H835 H 0.69502 0.53367 0.46034 0.0
H836 H 0.66198 0.51971 0.48219 0.0
H837 H 0.68878 0.55213 0.49303 0.0
H838 H 0.63254 0.63852 0.49692 0.0
H839 H 0.58855 0.61097 0.52389 0.0
H840 H 0.60558 0.52967 0.48966 0.0
C841 C 0.70598 0.59305 0.43062 0.0
C842 C 0.72153 0.62233 0.42523 0.0
C843 C 0.70938 0.64545 0.43693 0.0
C844 C 0.68377 0.63987 0.45483 0.0
C845 C 0.66974 0.61099 0.46051 0.0
C846 C 0.67983 0.58788 0.44831 0.0
C847 C 0.6594 0.55894 0.45739 0.0
C848 C 0.64371 0.54251 0.43118 0.0
C849 C 0.67737 0.54 0.47424 0.0
C850 C 0.63663 0.56959 0.47672 0.0
C851 C 0.64347 0.59972 0.47842 0.0
C852 C 0.62671 0.61491 0.49557 0.0
C853 C 0.60184 0.59899 0.51101 0.0
C854 C 0.59348 0.56813 0.50897 0.0
C855 C 0.6113 0.55325 0.49161 0.0
H856 H 0.19201 0.34267 0.1778 0.0
H857 H 0.20788 0.29348 0.10242 0.0
H858 H 0.16429 0.30729 0.07846 0.0
H859 H 0.10993 0.32359 0.17506 0.0
H860 H 0.10537 0.35911 0.18673 0.0
H861 H 0.1379 0.34537 0.19807 0.0
H862 H 0.17375 0.39174 0.17747 0.0
H863 H 0.14135 0.40565 0.16617 0.0
H864 H 0.17019 0.40172 0.14041 0.0
H865 H 0.1195 0.32692 0.06237 0.0
H866 H 0.07667 0.35155 0.05521 0.0
H867 H 0.08941 0.38711 0.14131 0.0
C868 C 0.18617 0.3346 0.15635 0.0
C869 C 0.2035 0.31713 0.14194 0.0
C870 C 0.1953 0.30732 0.11372 0.0
C871 C 0.17042 0.31484 0.1 0.0
C872 C 0.15386 0.33207 0.11481 0.0
C873 C 0.16136 0.34184 0.14235 0.0
C874 C 0.14003 0.3604 0.15334 0.0
C875 C 0.12225 0.34626 0.17987 0.0
C876 C 0.15737 0.39173 0.15971 0.0
C877 C 0.11946 0.35963 0.12762 0.0
C878 C 0.12781 0.34314 0.10564 0.0
C879 C 0.11267 0.33982 0.07945 0.0
C880 C 0.08848 0.35394 0.07555 0.0
C881 C 0.07967 0.3711 0.09774 0.0
C882 C 0.0953 0.37372 0.12415 0.0
H883 H 0.59373 0.23156 0.94555 0.0
H884 H 0.57351 0.19927 0.85899 0.0
H885 H 0.55726 0.14916 0.87807 0.0
H886 H 0.6233 0.16994 0.9713 0.0
H887 H 0.60685 0.16994 1.00667 0.0
H888 H 0.61698 0.20355 0.98647 0.0
H889 H 0.56203 0.21134 0.99176 0.0
H890 H 0.55178 0.17783 1.01207 0.0
H891 H 0.53073 0.18298 0.98035 0.0
H892 H 0.54333 0.10247 0.90608 0.0
H893 H 0.53058 0.06238 0.94127 0.0
H894 H 0.55976 0.12373 1.0105 0.0
C895 C 0.58604 0.21395 0.93056 0.0
C896 C 0.58483 0.21963 0.90062 0.0
C897 C 0.57424 0.19581 0.88195 0.0
C898 C 0.56518 0.16714 0.89259 0.0
C899 C 0.56673 0.16235 0.92207 0.0
C900 C 0.57676 0.18506 0.94087 0.0
C901 C 0.57566 0.1738 0.97168 0.0
C902 C 0.6076 0.17966 0.9848 0.0
C903 C 0.55374 0.18729 0.99005 0.0
C904 C 0.56344 0.14123 0.96722 0.0
C905 C 0.55859 0.13522 0.93837 0.0
C906 C 0.54706 0.10693 0.92872 0.0
C907 C 0.53988 0.08423 0.94899 0.0
C908 C 0.54415 0.08965 0.97882 0.0
C909 C 0.55643 0.11866 0.98792 0.0
H910 H 0.92949 0.81486 0.45851 0.0
H911 H 0.9566 0.83693 0.37014 0.0
H912 H 0.98166 0.88667 0.38563 0.0
H913 H 0.90826 0.88171 0.47363 0.0
H914 H 0.92068 0.88306 0.51043 0.0
H915 H 0.90847 0.84832 0.49298 0.0
H916 H 0.95986 0.83474 0.50496 0.0
H917 H 0.97222 0.86943 0.52254 0.0
H918 H 0.99479 0.85891 0.49398 0.0
H919 H 1.00218 0.93554 0.41132 0.0
H920 H 0.0141 0.97827 0.44381 0.0
H921 H 0.96849 0.92478 0.5138 0.0
C922 C 0.94049 0.82999 0.44215 0.0
C923 C 0.94068 0.82158 0.41287 0.0
C924 C 0.95629 0.84232 0.39271 0.0
C925 C 0.97045 0.87083 0.40131 0.0
C926 C 0.96877 0.8785 0.43017 0.0
C927 C 0.95407 0.85857 0.45023 0.0
C928 C 0.95359 0.87249 0.47956 0.0
C929 C 0.9208 0.87133 0.48974 0.0
C930 C 0.97117 0.85803 0.50155 0.0
C931 C 0.97001 0.90356 0.47293 0.0
C932 C 0.97908 0.90657 0.44446 0.0
C933 C 0.99506 0.93333 0.4336 0.0
C934 C 1.00175 0.9575 0.45222 0.0
C935 C 0.99199 0.955 0.48129 0.0
C936 C 0.97595 0.92755 0.49162 0.0
H937 H 0.30056 0.73513 0.6443 0.0
H938 H 0.22634 0.67262 0.60624 0.0
H939 H 0.26332 0.64699 0.58407 0.0
H940 H 0.3554 0.73709 0.58527 0.0
H941 H 0.38695 0.73969 0.60946 0.0
H942 H 0.35483 0.75483 0.61951 0.0
H943 H 0.34813 0.72368 0.66617 0.0
H944 H 0.38013 0.7084 0.65625 0.0
H945 H 0.34391 0.68457 0.66377 0.0
H946 H 0.30824 0.6257 0.56986 0.0
H947 H 0.35741 0.61099 0.56388 0.0
H948 H 0.40179 0.68689 0.61254 0.0
C949 C 0.29205 0.71618 0.63111 0.0
C950 C 0.26055 0.70585 0.62701 0.0
C951 C 0.25038 0.68114 0.60938 0.0
C952 C 0.27121 0.66639 0.59681 0.0
C953 C 0.30208 0.67677 0.60192 0.0
C954 C 0.31246 0.70124 0.6185 0.0
C955 C 0.34657 0.70705 0.62209 0.0
C956 C 0.36183 0.73641 0.60825 0.0
C957 C 0.35517 0.70584 0.65396 0.0
C958 C 0.35377 0.68158 0.60554 0.0
C959 C 0.32786 0.6645 0.59385 0.0
C960 C 0.32869 0.63906 0.57872 0.0
C961 C 0.35668 0.63078 0.57562 0.0
C962 C 0.38346 0.6478 0.58773 0.0
C963 C 0.38187 0.67369 0.6026 0.0
H964 H 0.75115 0.84012 0.70206 0.0
H965 H 0.7052 0.90639 0.73456 0.0
H966 H 0.72864 0.93986 0.69623 0.0
H967 H 0.82047 0.88855 0.69028 0.0
H968 H 0.83041 0.87087 0.65838 0.0
H969 H 0.806 0.84995 0.68509 0.0
H970 H 0.76487 0.83282 0.64652 0.0
H971 H 0.78924 0.85366 0.61961 0.0
H972 H 0.75141 0.85963 0.62519 0.0
H973 H 0.76073 0.96811 0.65803 0.0
H974 H 0.80082 0.98982 0.62349 0.0
H975 H 0.82858 0.9067 0.61721 0.0
C976 C 0.74573 0.86155 0.7011 0.0
C977 C 0.72586 0.87025 0.72136 0.0
C978 C 0.71949 0.8986 0.71897 0.0
C979 C 0.73291 0.91798 0.69731 0.0
C980 C 0.75286 0.90889 0.67824 0.0
C981 C 0.75935 0.88139 0.67992 0.0
C982 C 0.78393 0.87815 0.65858 0.0
C983 C 0.81185 0.8715 0.67401 0.0
C984 C 0.77162 0.85467 0.63614 0.0
C985 C 0.79082 0.90843 0.64526 0.0
C986 C 0.77222 0.9256 0.65656 0.0
C987 C 0.77512 0.95478 0.64867 0.0
C988 C 0.79789 0.96687 0.62892 0.0
C989 C 0.81766 0.94989 0.61744 0.0
C990 C 0.81377 0.92019 0.62556 0.0
H991 H 0.74522 0.24632 0.21709 0.0
H992 H 0.8053 0.18866 0.24098 0.0
H993 H 0.78188 0.15375 0.20482 0.0
H994 H 0.68158 0.19136 0.21516 0.0
H995 H 0.66343 0.20558 0.18554 0.0
H996 H 0.68966 0.2301 0.20777 0.0
H997 H 0.7218 0.25004 0.16291 0.0
H998 H 0.69553 0.22558 0.14044 0.0
H999 H 0.73538 0.22499 0.13944 0.0
H1000 H 0.74768 0.12125 0.17282 0.0
H1001 H 0.70333 0.09264 0.14761 0.0
H1002 H 0.66184 0.16821 0.14644 0.0
C1003 C 0.75391 0.22664 0.21453 0.0
C1004 C 0.77775 0.22094 0.23194 0.0
C1005 C 0.78808 0.19462 0.22751 0.0
C1006 C 0.77468 0.17428 0.20701 0.0
C1007 C 0.75065 0.18016 0.19111 0.0
C1008 C 0.74024 0.20564 0.19457 0.0
C1009 C 0.71124 0.20456 0.17777 0.0
C1010 C 0.68494 0.2081 0.19776 0.0
C1011 C 0.7163 0.22767 0.15371 0.0
C1012 C 0.70629 0.17392 0.16557 0.0
C1013 C 0.72978 0.1606 0.17302 0.0
C1014 C 0.72939 0.13155 0.16642 0.0
C1015 C 0.70404 0.11543 0.15232 0.0
C1016 C 0.67929 0.12829 0.1452 0.0
C1017 C 0.68074 0.1581 0.15127 0.0
H1018 H 0.42694 0.64571 0.37298 0.0
H1019 H 0.4095 0.56969 0.31765 0.0
H1020 H 0.42966 0.5412 0.35454 0.0
H1021 H 0.49806 0.63138 0.40477 0.0
H1022 H 0.48978 0.64379 0.43993 0.0
H1023 H 0.476 0.65913 0.40838 0.0
H1024 H 0.42119 0.64503 0.42859 0.0
H1025 H 0.43476 0.6294 0.46003 0.0
H1026 H 0.40555 0.60752 0.43834 0.0
H1027 H 0.44744 0.51934 0.39859 0.0
H1028 H 0.46574 0.50661 0.44579 0.0
H1029 H 0.47357 0.59639 0.47353 0.0
C1030 C 0.42809 0.62329 0.36844 0.0
C1031 C 0.41659 0.60996 0.34229 0.0
C1032 C 0.41803 0.58037 0.33746 0.0
C1033 C 0.42945 0.56396 0.35833 0.0
C1034 C 0.43968 0.57732 0.38416 0.0
C1035 C 0.43954 0.6064 0.38926 0.0
C1036 C 0.4512 0.61492 0.41937 0.0
C1037 C 0.4805 0.63872 0.41803 0.0
C1038 C 0.42671 0.6248 0.43766 0.0
C1039 C 0.45743 0.58605 0.43037 0.0
C1040 C 0.45053 0.56468 0.40964 0.0
C1041 C 0.45324 0.53598 0.4149 0.0
C1042 C 0.46354 0.5289 0.44192 0.0
C1043 C 0.47128 0.55039 0.46354 0.0
C1044 C 0.46813 0.57941 0.45749 0.0
H1045 H 0.08202 0.39099 0.88288 0.0
H1046 H 0.12185 0.46757 0.83173 0.0
H1047 H 0.10856 0.49927 0.86929 0.0
H1048 H 0.01798 0.42041 0.90874 0.0
H1049 H 0.01744 0.40412 0.94393 0.0
H1050 H 0.03092 0.3868 0.91346 0.0
H1051 H 0.08163 0.38768 0.93964 0.0
H1052 H 0.06838 0.4052 0.97011 0.0
H1053 H 0.10356 0.42194 0.95257 0.0
H1054 H 0.09238 0.52347 0.91239 0.0
H1055 H 0.07037 0.53858 0.95677 0.0
H1056 H 0.03733 0.4474 0.98029 0.0
C1057 C 0.08781 0.41439 0.87942 0.0
C1058 C 0.10385 0.42648 0.85424 0.0
C1059 C 0.1107 0.4574 0.85095 0.0
C1060 C 0.10296 0.47578 0.87218 0.0
C1061 C 0.08782 0.46323 0.89675 0.0
C1062 C 0.07989 0.43328 0.90043 0.0
C1063 C 0.06274 0.42577 0.92875 0.0
C1064 C 0.03034 0.40823 0.92339 0.0
C1065 C 0.08012 0.40916 0.94896 0.0
C1066 C 0.06242 0.45618 0.94028 0.0
C1067 C 0.0773 0.47737 0.92145 0.0
C1068 C 0.08055 0.50706 0.92724 0.0
C1069 C 0.06799 0.51544 0.9527 0.0
C1070 C 0.05198 0.49433 0.97229 0.0
C1071 C 0.04934 0.46419 0.96588 0.0
H1072 H 0.56723 0.84388 0.92552 0.0
H1073 H 0.64215 0.84359 0.98369 0.0
H1074 H 0.62598 0.88111 1.01321 0.0
H1075 H 0.57238 0.91865 0.92497 0.0
H1076 H 0.53216 0.91757 0.9244 0.0
H1077 H 0.54664 0.88766 0.90977 0.0
H1078 H 0.51123 0.85128 0.9435 0.0
H1079 H 0.49629 0.88105 0.95799 0.0
H1080 H 0.51219 0.85776 0.98167 0.0
H1081 H 0.60708 0.92332 1.032 0.0
H1082 H 0.58255 0.96446 0.04255 0.0
H1083 H 0.51834 0.937 0.97372 0.0
C1084 C 0.57977 0.85126 0.94484 0.0
C1085 C 0.6058 0.84061 0.95244 0.0
C1086 C 0.62177 0.85093 0.97776 0.0
C1087 C 0.61291 0.87242 0.99458 0.0
C1088 C 0.58779 0.88313 0.98599 0.0
C1089 C 0.57104 0.87257 0.96206 0.0
C1090 C 0.54593 0.889 0.95685 0.0
C1091 C 0.54952 0.90411 0.92725 0.0
C1092 C 0.51455 0.86855 0.96021 0.0
C1093 C 0.55197 0.91111 0.98096 0.0
C1094 C 0.57624 0.90726 0.99747 0.0
C1095 C 0.58768 0.92625 1.01961 0.0
C1096 C 0.57379 0.94969 1.02525 0.0
C1097 C 0.54856 0.95379 1.00897 0.0
C1098 C 0.53738 0.93411 0.98669 0.0
H1099 H 0.91886 0.16702 0.4084 0.0
H1100 H 0.98204 0.24439 0.43755 0.0
H1101 H 0.01149 0.21298 0.46324 0.0
H1102 H 0.91707 0.1272 0.47416 0.0
H1103 H 0.91354 0.09226 0.45684 0.0
H1104 H 0.89906 0.12093 0.4396 0.0
H1105 H 0.93186 0.1167 0.39452 0.0
H1106 H 0.9466 0.08813 0.41171 0.0
H1107 H 0.97229 0.12033 0.39823 0.0
H1108 H 0.03385 0.17254 0.48524 0.0
H1109 H 0.0444 0.12715 0.50621 0.0
H1110 H 0.96436 0.07676 0.46448 0.0
C1111 C 0.93906 0.17725 0.42004 0.0
C1112 C 0.94862 0.20792 0.42088 0.0
C1113 C 0.97467 0.22082 0.43669 0.0
C1114 C 0.99149 0.20318 0.45116 0.0
C1115 C 0.98155 0.17284 0.44978 0.0
C1116 C 0.95569 0.16004 0.43492 0.0
C1117 C 0.94866 0.12712 0.43813 0.0
C1118 C 0.91776 0.11625 0.45308 0.0
C1119 C 0.94994 0.1122 0.40891 0.0
C1120 C 0.97461 0.12326 0.45716 0.0
C1121 C 0.9936 0.14981 0.46333 0.0
C1122 C 0.01911 0.15165 0.48056 0.0
C1123 C 0.025 0.12574 0.49224 0.0
C1124 C 1.00518 0.09845 0.48695 0.0
C1125 C 0.9799 0.09729 0.46892 0.0
H1126 H 0.19383 0.6431 0.15439 0.0
H1127 H 0.23293 0.56725 0.16959 0.0
H1128 H 0.1894 0.53614 0.14498 0.0
H1129 H 0.11479 0.60668 0.16271 0.0
H1130 H 0.10218 0.6275 0.13437 0.0
H1131 H 0.13539 0.6433 0.15482 0.0
H1132 H 0.16691 0.6534 0.10777 0.0
H1133 H 0.13383 0.63751 0.08718 0.0
H1134 H 0.16804 0.62363 0.0836 0.0
H1135 H 0.14221 0.51352 0.11658 0.0
H1136 H 0.09524 0.50134 0.08795 0.0
H1137 H 0.08822 0.59243 0.08994 0.0
C1138 C 0.19339 0.61996 0.15258 0.0
C1139 C 0.21703 0.60775 0.16406 0.0
C1140 C 0.21503 0.5772 0.16147 0.0
C1141 C 0.19045 0.55934 0.14729 0.0
C1142 C 0.16793 0.57225 0.13576 0.0
C1143 C 0.16916 0.60187 0.13837 0.0
C1144 C 0.14253 0.61056 0.12347 0.0
C1145 C 0.12254 0.62272 0.14514 0.0
C1146 C 0.15349 0.63257 0.09906 0.0
C1147 C 0.12622 0.58126 0.1118 0.0
C1148 C 0.14114 0.55939 0.11922 0.0
C1149 C 0.13036 0.5305 0.11073 0.0
C1150 C 0.10364 0.52381 0.09439 0.0
C1151 C 0.08794 0.54589 0.08653 0.0
C1152 C 0.09961 0.57499 0.09543 0.0
H1153 H 0.31845 0.40921 0.65996 0.0
H1154 H 0.27295 0.48206 0.65702 0.0
H1155 H 0.31222 0.50824 0.62357 0.0
H1156 H 0.3943 0.45329 0.65996 0.0
H1157 H 0.41021 0.42853 0.63805 0.0
H1158 H 0.37766 0.41469 0.66054 0.0
H1159 H 0.34797 0.39087 0.61619 0.0
H1160 H 0.38041 0.4048 0.59353 0.0
H1161 H 0.34413 0.41319 0.58536 0.0
H1162 H 0.35587 0.52659 0.59063 0.0
H1163 H 0.40377 0.53825 0.56342 0.0
H1164 H 0.42369 0.45493 0.58888 0.0
C1165 C 0.31673 0.43059 0.65207 0.0
C1166 C 0.2926 0.44363 0.66106 0.0
C1167 C 0.29131 0.47178 0.65059 0.0
C1168 C 0.31341 0.48672 0.63143 0.0
C1169 C 0.33689 0.47336 0.62303 0.0
C1170 C 0.33897 0.44608 0.63318 0.0
C1171 C 0.36755 0.4375 0.62179 0.0
C1172 C 0.38868 0.43326 0.64656 0.0
C1173 C 0.35953 0.40995 0.60311 0.0
C1174 C 0.38122 0.46428 0.60378 0.0
C1175 C 0.36285 0.48446 0.60459 0.0
C1176 C 0.37049 0.51099 0.58993 0.0
C1177 C 0.3979 0.51743 0.57454 0.0
C1178 C 0.41783 0.49768 0.57411 0.0
C1179 C 0.409 0.47048 0.58861 0.0
H1180 H 0.84126 0.7339 0.88625 0.0
H1181 H 0.76161 0.67224 0.91745 0.0
H1182 H 0.79466 0.64496 0.94322 0.0
H1183 H 0.88892 0.68116 0.87552 0.0
H1184 H 0.92293 0.70588 0.88732 0.0
H1185 H 0.893 0.72004 0.87067 0.0
H1186 H 0.89056 0.75277 0.91505 0.0
H1187 H 0.92038 0.73864 0.93187 0.0
H1188 H 0.8846 0.73623 0.95021 0.0
H1189 H 0.83608 0.62491 0.96599 0.0
H1190 H 0.88326 0.61311 0.98438 0.0
H1191 H 0.9361 0.68832 0.93901 0.0
C1192 C 0.8308 0.71441 0.89817 0.0
C1193 C 0.79889 0.70511 0.89983 0.0
C1194 C 0.78602 0.67984 0.91609 0.0
C1195 C 0.80458 0.66416 0.93068 0.0
C1196 C 0.83594 0.67407 0.92879 0.0
C1197 C 0.84899 0.69857 0.91294 0.0
C1198 C 0.8833 0.70495 0.91501 0.0
C1199 C 0.89789 0.70287 0.88537 0.0
C1200 C 0.89541 0.73492 0.92887 0.0
C1201 C 0.88749 0.68023 0.93457 0.0
C1202 C 0.85988 0.66266 0.94221 0.0
C1203 C 0.85784 0.63854 0.96024 0.0
C1204 C 0.88477 0.63218 0.97076 0.0
C1205 C 0.91339 0.64994 0.96335 0.0
C1206 C 0.91463 0.67423 0.94492 0.0
H1207 H 0.45094 0.84576 0.19285 0.0
H1208 H 0.40936 0.7893 0.1237 0.0
H1209 H 0.42189 0.83027 0.08979 0.0
H1210 H 0.42855 0.91058 0.17025 0.0
H1211 H 0.46379 0.93544 0.1785 0.0
H1212 H 0.45263 0.90162 0.19819 0.0
H1213 H 0.50327 0.88735 0.18444 0.0
H1214 H 0.51474 0.9213 0.16497 0.0
H1215 H 0.51412 0.88706 0.14713 0.0
H1216 H 0.43317 0.87743 0.06412 0.0
H1217 H 0.45062 0.92759 0.04569 0.0
H1218 H 0.4907 0.95475 0.12838 0.0
C1219 C 0.44496 0.84195 0.17049 0.0
C1220 C 0.42826 0.81425 0.1613 0.0
C1221 C 0.42113 0.81034 0.1317 0.0
C1222 C 0.42832 0.83352 0.1121 0.0
C1223 C 0.44349 0.86066 0.12196 0.0
C1224 C 0.45253 0.865 0.15021 0.0
C1225 C 0.46917 0.89668 0.15453 0.0
C1226 C 0.45254 0.91198 0.17668 0.0
C1227 C 0.5023 0.89818 0.16328 0.0
C1228 C 0.46735 0.90932 0.12448 0.0
C1229 C 0.45205 0.88801 0.10628 0.0
C1230 C 0.44562 0.89424 0.078 0.0
C1231 C 0.45542 0.92289 0.06779 0.0
C1232 C 0.47203 0.9451 0.08551 0.0
C1233 C 0.47823 0.93816 0.11428 0.0
H1234 H 0.13144 0.20567 0.66184 0.0
H1235 H 0.04847 0.23337 0.68521 0.0
H1236 H 0.01847 0.18919 0.6622 0.0
H1237 H 0.10748 0.18045 0.5923 0.0
H1238 H 0.12621 0.15004 0.59284 0.0
H1239 H 0.14112 0.18223 0.61358 0.0
H1240 H 0.13817 0.15057 0.65967 0.0
H1241 H 0.12331 0.11824 0.63904 0.0
H1242 H 0.10257 0.12701 0.66982 0.0
H1243 H 0.99749 0.14373 0.63343 0.0
H1244 H 0.98703 0.10039 0.60226 0.0
H1245 H 0.0837 0.10272 0.59598 0.0
C1246 C 0.10695 0.20256 0.66225 0.0
C1247 C 0.09248 0.22334 0.67552 0.0
C1248 C 0.06029 0.21781 0.67575 0.0
C1249 C 0.04299 0.1928 0.66248 0.0
C1250 C 0.05809 0.17331 0.64902 0.0
C1251 C 0.08936 0.17784 0.64892 0.0
C1252 C 0.10009 0.15424 0.63186 0.0
C1253 C 0.11989 0.16754 0.60612 0.0
C1254 C 0.11703 0.13646 0.65126 0.0
C1255 C 0.06996 0.13586 0.62203 0.0
C1256 C 0.04603 0.14721 0.63231 0.0
C1257 C 0.01607 0.1346 0.62546 0.0
C1258 C 0.01038 0.10992 0.60761 0.0
C1259 C 0.03448 0.09786 0.59658 0.0
C1260 C 0.06469 0.11108 0.60416 0.0
H1261 H 0.70807 0.31641 0.4399 0.0
H1262 H 0.78319 0.37957 0.47578 0.0
H1263 H 0.74674 0.40537 0.49865 0.0
H1264 H 0.66308 0.36653 0.42188 0.0
H1265 H 0.62743 0.34237 0.43075 0.0
H1266 H 0.65926 0.32747 0.41949 0.0
H1267 H 0.65503 0.29657 0.46623 0.0
H1268 H 0.62305 0.31129 0.47759 0.0
H1269 H 0.65567 0.31444 0.50053 0.0
H1270 H 0.70211 0.42647 0.51409 0.0
H1271 H 0.65299 0.44061 0.52193 0.0
H1272 H 0.60719 0.36297 0.47645 0.0
C1273 C 0.71689 0.33559 0.4527 0.0
C1274 C 0.74848 0.34603 0.45604 0.0
C1275 C 0.75907 0.37101 0.4732 0.0
C1276 C 0.73855 0.38585 0.48616 0.0
C1277 C 0.70756 0.37527 0.48192 0.0
C1278 C 0.69678 0.35058 0.46577 0.0
C1279 C 0.66252 0.34431 0.46353 0.0
C1280 C 0.6525 0.34524 0.43204 0.0
C1281 C 0.64824 0.31491 0.47783 0.0
C1282 C 0.65569 0.36972 0.48042 0.0
C1283 C 0.68192 0.38724 0.491 0.0
C1284 C 0.68138 0.41267 0.50627 0.0
C1285 C 0.65331 0.42042 0.51075 0.0
C1286 C 0.62611 0.40282 0.49999 0.0
C1287 C 0.6275 0.37702 0.48483 0.0
loop_
_geom_bond_atom_site_label_1
_geom_bond_atom_site_label_2
_geom_bond_distance
_geom_bond_site_symmetry_2
_ccdc_geom_bond_type
C0 C1 1.391 . S
C0 C4 1.391 . S
C0 H42 0.948 . S
C1 C0 1.391 . S
C1 C2 1.391 . S
C2 C1 1.391 . S
C2 H58 0.947 . S
C2 C59 1.392 . S
C3 C4 1.391 . S
C3 C7 1.397 . S
C3 C59 1.419 . S
C4 C0 1.391 . S
C4 C3 1.391 . S
C4 C5 1.399 . S
C5 C4 1.399 . S
C5 C8 1.396 . S
C5 C17 1.453 . S
C5 C18 1.684 . S
H6 C30 0.948 . S
C7 C3 1.397 . S
C7 C8 1.394 . S
C7 C26 1.723 . S
C8 C5 1.396 . S
C8 C7 1.394 . S
C8 C38 1.723 . S
H9 C32 0.947 . S
H10 C33 0.948 . S
H11 C39 0.982 . S
H12 C40 0.979 . S
H13 C40 0.980 . S
H14 C40 0.983 . S
H15 C39 0.979 . S
H16 C39 0.977 . S
C17 C5 1.453 . S
C17 H46 0.982 . S
C17 H47 0.979 . S
C17 H48 0.977 . S
C18 C5 1.684 . S
C18 H43 0.979 . S
C18 H44 0.980 . S
C18 H45 0.983 . S
C19 C20 1.391 . S
C19 C24 1.391 . S
C19 H49 0.948 . S
C20 C19 1.391 . S
C20 C21 1.391 . S
C21 C20 1.391 . S
C21 C22 1.392 . S
C21 H50 0.947 . S
C22 C21 1.392 . S
C22 C23 1.419 . S
C22 H51 0.948 . S
C23 C22 1.419 . S
C23 C24 1.391 . S
C23 C27 1.397 . S
C24 C19 1.391 . S
C24 C23 1.391 . S
C24 C25 1.399 . S
C25 C24 1.399 . S
C25 C26 1.396 . S
C25 C28 1.453 . S
C25 C29 1.684 . S
C26 C7 1.723 . S
C26 C25 1.396 . S
C26 C27 1.394 . S
C27 C23 1.397 . S
C27 C26 1.394 . S
C27 C37 1.723 . S
C28 C25 1.453 . S
C28 H52 0.982 . S
C28 H53 0.979 . S
C28 H54 0.977 . S
C29 C25 1.684 . S
C29 H55 0.979 . S
C29 H56 0.980 . S
C29 H57 0.983 . S
C30 H6 0.948 . S
C30 C31 1.391 . S
C30 C35 1.391 . S
C31 C30 1.391 . S
C31 C32 1.391 . S
C32 H9 0.947 . S
C32 C31 1.391 . S
C32 C33 1.392 . S
C33 H10 0.948 . S
C33 C32 1.392 . S
C33 C34 1.419 . S
C34 C33 1.419 . S
C34 C35 1.391 . S
C34 C38 1.397 . S
C35 C30 1.391 . S
C35 C34 1.391 . S
C35 C36 1.399 . S
C36 C35 1.399 . S
C36 C37 1.396 . S
C36 C39 1.453 . S
C36 C40 1.684 . S
C37 C27 1.723 . S
C37 C36 1.396 . S
C37 C38 1.394 . S
C38 C8 1.723 . S
C38 C34 1.397 . S
C38 C37 1.394 . S
C39 H11 0.982 . S
C39 H15 0.979 . S
C39 H16 0.977 . S
C39 C36 1.453 . S
C40 H12 0.979 . S
C40 H13 0.980 . S
C40 H14 0.983 . S
C40 C36 1.684 . S
H41 C59 0.948 . S
H42 C0 0.948 . S
H43 C18 0.979 . S
H44 C18 0.980 . S
H45 C18 0.983 . S
H46 C17 0.982 . S
H47 C17 0.979 . S
H48 C17 0.977 . S
H49 C19 0.948 . S
H50 C21 0.947 . S
H51 C22 0.948 . S
H52 C28 0.982 . S
H53 C28 0.979 . S
H54 C28 0.977 . S
H55 C29 0.979 . S
H56 C29 0.980 . S
H57 C29 0.983 . S
H58 C2 0.947 . S
C59 C2 1.392 . S
C59 C3 1.419 . S
C59 H41 0.948 . S
C60 C61 1.391 . S
C60 C64 1.391 . S
C60 H102 0.948 . S
C61 C60 1.391 . S
C61 C62 1.391 . S
C62 C61 1.391 . S
C62 H118 0.947 . S
C62 C119 1.392 . S
C63 C64 1.391 . S
C63 C67 1.397 . S
C63 C119 1.419 . S
C64 C60 1.391 . S
C64 C63 1.391 . S
C64 C65 1.399 . S
C65 C64 1.399 . S
C65 C68 1.396 . S
C65 C77 1.453 . S
C65 C78 1.684 . S
H66 C90 0.948 . S
C67 C63 1.397 . S
C67 C68 1.394 . S
C67 C86 1.723 . S
C68 C65 1.396 . S
C68 C67 1.394 . S
C68 C98 1.723 . S
H69 C92 0.947 . S
H70 C93 0.948 . S
H71 C99 0.982 . S
H72 C100 0.979 . S
H73 C100 0.980 . S
H74 C100 0.983 . S
H75 C99 0.979 . S
H76 C99 0.977 . S
C77 C65 1.453 . S
C77 H106 0.982 . S
C77 H107 0.979 . S
C77 H108 0.977 . S
C78 C65 1.684 . S
C78 H103 0.979 . S
C78 H104 0.980 . S
C78 H105 0.983 . S
C79 C80 1.391 . S
C79 C84 1.391 . S
C79 H109 0.948 . S
C80 C79 1.391 . S
C80 C81 1.391 . S
C81 C80 1.391 . S
C81 C82 1.392 . S
C81 H110 0.947 . S
C82 C81 1.392 . S
C82 C83 1.419 . S
C82 H111 0.948 . S
C83 C82 1.419 . S
C83 C84 1.391 . S
C83 C87 1.397 . S
C84 C79 1.391 . S
C84 C83 1.391 . S
C84 C85 1.399 . S
C85 C84 1.399 . S
C85 C86 1.396 . S
C85 C88 1.453 . S
C85 C89 1.684 . S
C86 C67 1.723 . S
C86 C85 1.396 . S
C86 C87 1.394 . S
C87 C83 1.397 . S
C87 C86 1.394 . S
C87 C97 1.723 . S
C88 C85 1.453 . S
C88 H112 0.982 . S
C88 H113 0.979 . S
C88 H114 0.977 . S
C89 C85 1.684 . S
C89 H115 0.979 . S
C89 H116 0.980 . S
C89 H117 0.983 . S
C90 H66 0.948 . S
C90 C91 1.391 . S
C90 C95 1.391 . S
C91 C90 1.391 . S
C91 C92 1.391 . S
C92 H69 0.947 . S
C92 C91 1.391 . S
C92 C93 1.392 . S
C93 H70 0.948 . S
C93 C92 1.392 . S
C93 C94 1.419 . S
C94 C93 1.419 . S
C94 C95 1.391 . S
C94 C98 1.397 . S
C95 C90 1.391 . S
C95 C94 1.391 . S
C95 C96 1.399 . S
C96 C95 1.399 . S
C96 C97 1.396 . S
C96 C99 1.453 . S
C96 C100 1.684 . S
C97 C87 1.723 . S
C97 C96 1.396 . S
C97 C98 1.394 . S
C98 C68 1.723 . S
C98 C94 1.397 . S
C98 C97 1.394 . S
C99 H71 0.982 . S
C99 H75 0.979 . S
C99 H76 0.977 . S
C99 C96 1.453 . S
C100 H72 0.979 . S
C100 H73 0.980 . S
C100 H74 0.983 . S
C100 C96 1.684 . S
H101 C119 0.948 . S
H102 C60 0.948 . S
H103 C78 0.979 . S
H104 C78 0.980 . S
H105 C78 0.983 . S
H106 C77 0.982 . S
H107 C77 0.979 . S
H108 C77 0.977 . S
H109 C79 0.948 . S
H110 C81 0.947 . S
H111 C82 0.948 . S
H112 C88 0.982 . S
H113 C88 0.979 . S
H114 C88 0.977 . S
H115 C89 0.979 . S
H116 C89 0.980 . S
H117 C89 0.983 . S
H118 C62 0.947 . S
C119 C62 1.392 . S
C119 C63 1.419 . S
C119 H101 0.948 . S
C120 C121 1.391 . S
C120 C124 1.391 . S
C120 H162 0.948 . S
C121 C120 1.391 . S
C121 C122 1.391 . S
C122 C121 1.391 . S
C122 H178 0.947 . S
C122 C179 1.392 . S
C123 C124 1.391 . S
C123 C127 1.397 . S
C123 C179 1.419 . S
C124 C120 1.391 . S
C124 C123 1.391 . S
C124 C125 1.399 . S
C125 C124 1.399 . S
C125 C128 1.396 . S
C125 C137 1.453 . S
C125 C138 1.684 . S
H126 C150 0.948 . S
C127 C123 1.397 . S
C127 C128 1.394 . S
C127 C146 1.723 . S
C128 C125 1.396 . S
C128 C127 1.394 . S
C128 C158 1.723 . S
H129 C152 0.947 . S
H130 C153 0.948 . S
H131 C159 0.982 . S
H132 C160 0.979 . S
H133 C160 0.980 . S
H134 C160 0.983 . S
H135 C159 0.979 . S
H136 C159 0.977 . S
C137 C125 1.453 . S
C137 H166 0.982 . S
C137 H167 0.979 . S
C137 H168 0.977 . S
C138 C125 1.684 . S
C138 H163 0.979 . S
C138 H164 0.980 . S
C138 H165 0.983 . S
C139 C140 1.391 . S
C139 C144 1.391 . S
C139 H169 0.948 . S
C140 C139 1.391 . S
C140 C141 1.391 . S
C141 C140 1.391 . S
C141 C142 1.392 . S
C141 H170 0.947 . S
C142 C141 1.392 . S
C142 C143 1.419 . S
C142 H171 0.948 . S
C143 C142 1.419 . S
C143 C144 1.391 . S
C143 C147 1.397 . S
C144 C139 1.391 . S
C144 C143 1.391 . S
C144 C145 1.399 . S
C145 C144 1.399 . S
C145 C146 1.396 . S
C145 C148 1.453 . S
C145 C149 1.684 . S
C146 C127 1.723 . S
C146 C145 1.396 . S
C146 C147 1.394 . S
C147 C143 1.397 . S
C147 C146 1.394 . S
C147 C157 1.723 . S
C148 C145 1.453 . S
C148 H172 0.982 . S
C148 H173 0.979 . S
C148 H174 0.977 . S
C149 C145 1.684 . S
C149 H175 0.979 . S
C149 H176 0.980 . S
C149 H177 0.983 . S
C150 H126 0.948 . S
C150 C151 1.391 . S
C150 C155 1.391 . S
C151 C150 1.391 . S
C151 C152 1.391 . S
C152 H129 0.947 . S
C152 C151 1.391 . S
C152 C153 1.392 . S
C153 H130 0.948 . S
C153 C152 1.392 . S
C153 C154 1.419 . S
C154 C153 1.419 . S
C154 C155 1.391 . S
C154 C158 1.397 . S
C155 C150 1.391 . S
C155 C154 1.391 . S
C155 C156 1.399 . S
C156 C155 1.399 . S
C156 C157 1.396 . S
C156 C159 1.453 . S
C156 C160 1.684 . S
C157 C147 1.723 . S
C157 C156 1.396 . S
C157 C158 1.394 . S
C158 C128 1.723 . S
C158 C154 1.397 . S
C158 C157 1.394 . S
C159 H131 0.982 . S
C159 H135 0.979 . S
C159 H136 0.977 . S
C159 C156 1.453 . S
C160 H132 0.979 . S
C160 H133 0.980 . S
C160 H134 0.983 . S
C160 C156 1.684 . S
H161 C179 0.948 . S
H162 C120 0.948 . S
H163 C138 0.979 . S
H164 C138 0.980 . S
H165 C138 0.983 . S
H166 C137 0.982 . S
H167 C137 0.979 . S
H168 C137 0.977 . S
H169 C139 0.948 . S
H170 C141 0.947 . S
H171 C142 0.948 . S
H172 C148 0.982 . S
H173 C148 0.979 . S
H174 C148 0.977 . S
H175 C149 0.979 . S
H176 C149 0.980 . S
H177 C149 0.983 . S
H178 C122 0.947 . S
C179 C122 1.392 . S
C179 C123 1.419 . S
C179 H161 0.948 . S
C180 C181 1.391 . S
C180 C184 1.391 . S
C180 H222 0.948 . S
C181 C180 1.391 . S
C181 C182 1.391 . S
C182 C181 1.391 . S
C182 H238 0.947 . S
C182 C239 1.392 . S
C183 C184 1.391 . S
C183 C187 1.397 . S
C183 C239 1.419 . S
C184 C180 1.391 . S
C184 C183 1.391 . S
C184 C185 1.399 . S
C185 C184 1.399 . S
C185 C188 1.396 . S
C185 C197 1.453 . S
C185 C198 1.684 . S
H186 C210 0.948 . S
C187 C183 1.397 . S
C187 C188 1.394 . S
C187 C206 1.723 . S
C188 C185 1.396 . S
C188 C187 1.394 . S
C188 C218 1.723 . S
H189 C212 0.947 . S
H190 C213 0.948 . S
H191 C219 0.982 . S
H192 C220 0.979 . S
H193 C220 0.980 . S
H194 C220 0.983 . S
H195 C219 0.979 . S
H196 C219 0.977 . S
C197 C185 1.453 . S
C197 H226 0.982 . S
C197 H227 0.979 . S
C197 H228 0.977 . S
C198 C185 1.684 . S
C198 H223 0.979 . S
C198 H224 0.980 . S
C198 H225 0.983 . S
C199 C200 1.391 . S
C199 C204 1.391 . S
C199 H229 0.948 . S
C200 C199 1.391 . S
C200 C201 1.391 . S
C201 C200 1.391 . S
C201 C202 1.392 . S
C201 H230 0.947 . S
C202 C201 1.392 . S
C202 C203 1.419 . S
C202 H231 0.948 . S
C203 C202 1.419 . S
C203 C204 1.391 . S
C203 C207 1.397 . S
C204 C199 1.391 . S
C204 C203 1.391 . S
C204 C205 1.399 . S
C205 C204 1.399 . S
C205 C206 1.396 . S
C205 C208 1.453 . S
C205 C209 1.684 . S
C206 C187 1.723 . S
C206 C205 1.396 . S
C206 C207 1.394 . S
C207 C203 1.397 . S
C207 C206 1.394 . S
C207 C217 1.723 . S
C208 C205 1.453 . S
C208 H232 0.982 . S
C208 H233 0.979 . S
C208 H234 0.977 . S
C209 C205 1.684 . S
C209 H235 0.979 . S
C209 H236 0.980 . S
C209 H237 0.983 . S
C210 H186 0.948 . S
C210 C211 1.391 . S
C210 C215 1.391 . S
C211 C210 1.391 . S
C211 C212 1.391 . S
C212 H189 0.947 . S
C212 C211 1.391 . S
C212 C213 1.392 . S
C213 H190 0.948 . S
C213 C212 1.392 . S
C213 C214 1.419 . S
C214 C213 1.419 . S
C214 C215 1.391 . S
C214 C218 1.397 . S
C215 C210 1.391 . S
C215 C214 1.391 . S
C215 C216 1.399 . S
C216 C215 1.399 . S
C216 C217 1.396 . S
C216 C219 1.453 . S
C216 C220 1.684 . S
C217 C207 1.723 . S
C217 C216 1.396 . S
C217 C218 1.394 . S
C218 C188 1.723 . S
C218 C214 1.397 . S
C218 C217 1.394 . S
C219 H191 0.982 . S
C219 H195 0.979 . S
C219 H196 0.977 . S
C219 C216 1.453 . S
C220 H192 0.979 . S
C220 H193 0.980 . S
C220 H194 0.983 . S
C220 C216 1.684 . S
H221 C239 0.948 . S
H222 C180 0.948 . S
H223 C198 0.979 . S
H224 C198 0.980 . S
H225 C198 0.983 . S
H226 C197 0.982 . S
H227 C197 0.979 . S
H228 C197 0.977 . S
H229 C199 0.948 . S
H230 C201 0.947 . S
H231 C202 0.948 . S
H232 C208 0.982 . S
H233 C208 0.979 . S
H234 C208 0.977 . S
H235 C209 0.979 . S
H236 C209 0.980 . S
H237 C209 0.983 . S
H238 C182 0.947 . S
C239 C182 1.392 . S
C239 C183 1.419 . S
C239 H221 0.948 . S
C240 C241 1.391 . S
C240 C244 1.391 . S
C240 H282 0.948 . S
C241 C240 1.391 . S
C241 C242 1.391 . S
C242 C241 1.391 . S
C242 H298 0.947 . S
C242 C299 1.392 . S
C243 C244 1.391 . S
C243 C247 1.397 . S
C243 C299 1.419 . S
C244 C240 1.391 . S
C244 C243 1.391 . S
C244 C245 1.399 . S
C245 C244 1.399 . S
C245 C248 1.396 . S
C245 C257 1.453 . S
C245 C258 1.684 . S
H246 C270 0.948 . S
C247 C243 1.397 . S
C247 C248 1.394 . S
C247 C266 1.723 . S
C248 C245 1.396 . S
C248 C247 1.394 . S
C248 C278 1.723 . S
H249 C272 0.947 . S
H250 C273 0.948 . S
H251 C279 0.982 . S
H252 C280 0.979 . S
H253 C280 0.980 . S
H254 C280 0.983 . S
H255 C279 0.979 . S
H256 C279 0.977 . S
C257 C245 1.453 . S
C257 H286 0.982 . S
C257 H287 0.979 . S
C257 H288 0.977 . S
C258 C245 1.684 . S
C258 H283 0.979 . S
C258 H284 0.980 . S
C258 H285 0.983 . S
C259 C260 1.391 . S
C259 C264 1.391 . S
C259 H289 0.948 . S
C260 C259 1.391 . S
C260 C261 1.391 . S
C261 C260 1.391 . S
C261 C262 1.392 . S
C261 H290 0.947 . S
C262 C261 1.392 . S
C262 C263 1.419 . S
C262 H291 0.948 . S
C263 C262 1.419 . S
C263 C264 1.391 . S
C263 C267 1.397 . S
C264 C259 1.391 . S
C264 C263 1.391 . S
C264 C265 1.399 . S
C265 C264 1.399 . S
C265 C266 1.396 . S
C265 C268 1.453 . S
C265 C269 1.684 . S
C266 C247 1.723 . S
C266 C265 1.396 . S
C266 C267 1.394 . S
C267 C263 1.397 . S
C267 C266 1.394 . S
C267 C277 1.723 . S
C268 C265 1.453 . S
C268 H292 0.982 . S
C268 H293 0.979 . S
C268 H294 0.977 . S
C269 C265 1.684 . S
C269 H295 0.979 . S
C269 H296 0.980 . S
C269 H297 0.983 . S
C270 H246 0.948 . S
C270 C271 1.391 . S
C270 C275 1.391 . S
C271 C270 1.391 . S
C271 C272 1.391 . S
C272 H249 0.947 . S
C272 C271 1.391 . S
C272 C273 1.392 . S
C273 H250 0.948 . S
C273 C272 1.392 . S
C273 C274 1.419 . S
C274 C273 1.419 . S
C274 C275 1.391 . S
C274 C278 1.397 . S
C275 C270 1.391 . S
C275 C274 1.391 . S
C275 C276 1.399 . S
C276 C275 1.399 . S
C276 C277 1.396 . S
C276 C279 1.453 . S
C276 C280 1.684 . S
C277 C267 1.723 . S
C277 C276 1.396 . S
C277 C278 1.394 . S
C278 C248 1.723 . S
C278 C274 1.397 . S
C278 C277 1.394 . S
C279 H251 0.982 . S
C279 H255 0.979 . S
C279 H256 0.977 . S
C279 C276 1.453 . S
C280 H252 0.979 . S
C280 H253 0.980 . S
C280 H254 0.983 . S
C280 C276 1.684 . S
H281 C299 0.948 . S
H282 C240 0.948 . S
H283 C258 0.979 . S
H284 C258 0.980 . S
H285 C258 0.983 . S
H286 C257 0.982 . S
H287 C257 0.979 . S
H288 C257 0.977 . S
H289 C259 0.948 . S
H290 C261 0.947 . S
H291 C262 0.948 . S
H292 C268 0.982 . S
H293 C268 0.979 . S
H294 C268 0.977 . S
H295 C269 0.979 . S
H296 C269 0.980 . S
H297 C269 0.983 . S
H298 C242 0.947 . S
C299 C242 1.392 . S
C299 C243 1.419 . S
C299 H281 0.948 . S
C300 C301 1.391 . S
C300 C304 1.391 . S
C300 H342 0.948 . S
C301 C300 1.391 . S
C301 C302 1.391 . S
C302 C301 1.391 . S
C302 H358 0.947 . S
C302 C359 1.392 . S
C303 C304 1.391 . S
C303 C307 1.397 . S
C303 C359 1.419 . S
C304 C300 1.391 . S
C304 C303 1.391 . S
C304 C305 1.399 . S
C305 C304 1.399 . S
C305 C308 1.396 . S
C305 C317 1.453 . S
C305 C318 1.684 . S
H306 C330 0.948 . S
C307 C303 1.397 . S
C307 C308 1.394 . S
C307 C326 1.723 . S
C308 C305 1.396 . S
C308 C307 1.394 . S
C308 C338 1.723 . S
H309 C332 0.947 . S
H310 C333 0.948 . S
H311 C339 0.982 . S
H312 C340 0.979 . S
H313 C340 0.980 . S
H314 C340 0.983 . S
H315 C339 0.979 . S
H316 C339 0.977 . S
C317 C305 1.453 . S
C317 H346 0.982 . S
C317 H347 0.979 . S
C317 H348 0.977 . S
C318 C305 1.684 . S
C318 H343 0.979 . S
C318 H344 0.980 . S
C318 H345 0.983 . S
C319 C320 1.391 . S
C319 C324 1.391 . S
C319 H349 0.948 . S
C320 C319 1.391 . S
C320 C321 1.391 . S
C321 C320 1.391 . S
C321 C322 1.392 . S
C321 H350 0.947 . S
C322 C321 1.392 . S
C322 C323 1.419 . S
C322 H351 0.948 . S
C323 C322 1.419 . S
C323 C324 1.391 . S
C323 C327 1.397 . S
C324 C319 1.391 . S
C324 C323 1.391 . S
C324 C325 1.399 . S
C325 C324 1.399 . S
C325 C326 1.396 . S
C325 C328 1.453 . S
C325 C329 1.684 . S
C326 C307 1.723 . S
C326 C325 1.396 . S
C326 C327 1.394 . S
C327 C323 1.397 . S
C327 C326 1.394 . S
C327 C337 1.723 . S
C328 C325 1.453 . S
C328 H352 0.982 . S
C328 H353 0.979 . S
C328 H354 0.977 . S
C329 C325 1.684 . S
C329 H355 0.979 . S
C329 H356 0.980 . S
C329 H357 0.983 . S
C330 H306 0.948 . S
C330 C331 1.391 . S
C330 C335 1.391 . S
C331 C330 1.391 . S
C331 C332 1.391 . S
C332 H309 0.947 . S
C332 C331 1.391 . S
C332 C333 1.392 . S
C333 H310 0.948 . S
C333 C332 1.392 . S
C333 C334 1.419 . S
C334 C333 1.419 . S
C334 C335 1.391 . S
C334 C338 1.397 . S
C335 C330 1.391 . S
C335 C334 1.391 . S
C335 C336 1.399 . S
C336 C335 1.399 . S
C336 C337 1.396 . S
C336 C339 1.453 . S
C336 C340 1.684 . S
C337 C327 1.723 . S
C337 C336 1.396 . S
C337 C338 1.394 . S
C338 C308 1.723 . S
C338 C334 1.397 . S
C338 C337 1.394 . S
C339 H311 0.982 . S
C339 H315 0.979 . S
C339 H316 0.977 . S
C339 C336 1.453 . S
C340 H312 0.979 . S
C340 H313 0.980 . S
C340 H314 0.983 . S
C340 C336 1.684 . S
H341 C359 0.948 . S
H342 C300 0.948 . S
H343 C318 0.979 . S
H344 C318 0.980 . S
H345 C318 0.983 . S
H346 C317 0.982 . S
H347 C317 0.979 . S
H348 C317 0.977 . S
H349 C319 0.948 . S
H350 C321 0.947 . S
H351 C322 0.948 . S
H352 C328 0.982 . S
H353 C328 0.979 . S
H354 C328 0.977 . S
H355 C329 0.979 . S
H356 C329 0.980 . S
H357 C329 0.983 . S
H358 C302 0.947 . S
C359 C302 1.392 . S
C359 C303 1.419 . S
C359 H341 0.948 . S
C360 C361 1.391 . S
C360 C364 1.391 . S
C360 H402 0.948 . S
C361 C360 1.391 . S
C361 C362 1.391 . S
C362 C361 1.391 . S
C362 H418 0.947 . S
C362 C419 1.392 . S
C363 C364 1.391 . S
C363 C367 1.397 . S
C363 C419 1.419 . S
C364 C360 1.391 . S
C364 C363 1.391 . S
C364 C365 1.399 . S
C365 C364 1.399 . S
C365 C368 1.396 . S
C365 C377 1.453 . S
C365 C378 1.684 . S
H366 C390 0.948 . S
C367 C363 1.397 . S
C367 C368 1.394 . S
C367 C386 1.723 . S
C368 C365 1.396 . S
C368 C367 1.394 . S
C368 C398 1.723 . S
H369 C392 0.947 . S
H370 C393 0.948 . S
H371 C399 0.982 . S
H372 C400 0.979 . S
H373 C400 0.980 . S
H374 C400 0.983 . S
H375 C399 0.979 . S
H376 C399 0.977 . S
C377 C365 1.453 . S
C377 H406 0.982 . S
C377 H407 0.979 . S
C377 H408 0.977 . S
C378 C365 1.684 . S
C378 H403 0.979 . S
C378 H404 0.980 . S
C378 H405 0.983 . S
C379 C380 1.391 . S
C379 C384 1.391 . S
C379 H409 0.948 . S
C380 C379 1.391 . S
C380 C381 1.391 . S
C381 C380 1.391 . S
C381 C382 1.392 . S
C381 H410 0.947 . S
C382 C381 1.392 . S
C382 C383 1.419 . S
C382 H411 0.948 . S
C383 C382 1.419 . S
C383 C384 1.391 . S
C383 C387 1.397 . S
C384 C379 1.391 . S
C384 C383 1.391 . S
C384 C385 1.399 . S
C385 C384 1.399 . S
C385 C386 1.396 . S
C385 C388 1.453 . S
C385 C389 1.684 . S
C386 C367 1.723 . S
C386 C385 1.396 . S
C386 C387 1.394 . S
C387 C383 1.397 . S
C387 C386 1.394 . S
C387 C397 1.723 . S
C388 C385 1.453 . S
C388 H412 0.982 . S
C388 H413 0.979 . S
C388 H414 0.977 . S
C389 C385 1.684 . S
C389 H415 0.979 . S
C389 H416 0.980 . S
C389 H417 0.983 . S
C390 H366 0.948 . S
C390 C391 1.391 . S
C390 C395 1.391 . S
C391 C390 1.391 . S
C391 C392 1.391 . S
C392 H369 0.947 . S
C392 C391 1.391 . S
C392 C393 1.392 . S
C393 H370 0.948 . S
C393 C392 1.392 . S
C393 C394 1.419 . S
C394 C393 1.419 . S
C394 C395 1.391 . S
C394 C398 1.397 . S
C395 C390 1.391 . S
C395 C394 1.391 . S
C395 C396 1.399 . S
C396 C395 1.399 . S
C396 C397 1.396 . S
C396 C399 1.453 . S
C396 C400 1.684 . S
C397 C387 1.723 . S
C397 C396 1.396 . S
C397 C398 1.394 . S
C398 C368 1.723 . S
C398 C394 1.397 . S
C398 C397 1.394 . S
C399 H371 0.982 . S
C399 H375 0.979 . S
C399 H376 0.977 . S
C399 C396 1.453 . S
C400 H372 0.979 . S
C400 H373 0.980 . S
C400 H374 0.983 . S
C400 C396 1.684 . S
H401 C419 0.948 . S
H402 C360 0.948 . S
H403 C378 0.979 . S
H404 C378 0.980 . S
H405 C378 0.983 . S
H406 C377 0.982 . S
H407 C377 0.979 . S
H408 C377 0.977 . S
H409 C379 0.948 . S
H410 C381 0.947 . S
H411 C382 0.948 . S
H412 C388 0.982 . S
H413 C388 0.979 . S
H414 C388 0.977 . S
H415 C389 0.979 . S
H416 C389 0.980 . S
H417 C389 0.983 . S
H418 C362 0.947 . S
C419 C362 1.392 . S
C419 C363 1.419 . S
C419 H401 0.948 . S
C420 C421 1.391 . S
C420 C424 1.391 . S
C420 H462 0.948 . S
C421 C420 1.391 . S
C421 C422 1.391 . S
C422 C421 1.391 . S
C422 H478 0.947 . S
C422 C479 1.392 . S
C423 C424 1.391 . S
C423 C427 1.397 . S
C423 C479 1.419 . S
C424 C420 1.391 . S
C424 C423 1.391 . S
C424 C425 1.399 . S
C425 C424 1.399 . S
C425 C428 1.396 . S
C425 C437 1.453 . S
C425 C438 1.684 . S
H426 C450 0.948 . S
C427 C423 1.397 . S
C427 C428 1.394 . S
C427 C446 1.723 . S
C428 C425 1.396 . S
C428 C427 1.394 . S
C428 C458 1.723 . S
H429 C452 0.947 . S
H430 C453 0.948 . S
H431 C459 0.982 . S
H432 C460 0.979 . S
H433 C460 0.980 . S
H434 C460 0.983 . S
H435 C459 0.979 . S
H436 C459 0.977 . S
C437 C425 1.453 . S
C437 H466 0.982 . S
C437 H467 0.979 . S
C437 H468 0.977 . S
C438 C425 1.684 . S
C438 H463 0.979 . S
C438 H464 0.980 . S
C438 H465 0.983 . S
C439 C440 1.391 . S
C439 C444 1.391 . S
C439 H469 0.948 . S
C440 C439 1.391 . S
C440 C441 1.391 . S
C441 C440 1.391 . S
C441 C442 1.392 . S
C441 H470 0.947 . S
C442 C441 1.392 . S
C442 C443 1.419 . S
C442 H471 0.948 . S
C443 C442 1.419 . S
C443 C444 1.391 . S
C443 C447 1.397 . S
C444 C439 1.391 . S
C444 C443 1.391 . S
C444 C445 1.399 . S
C445 C444 1.399 . S
C445 C446 1.396 . S
C445 C448 1.453 . S
C445 C449 1.684 . S
C446 C427 1.723 . S
C446 C445 1.396 . S
C446 C447 1.394 . S
C447 C443 1.397 . S
C447 C446 1.394 . S
C447 C457 1.723 . S
C448 C445 1.453 . S
C448 H472 0.982 . S
C448 H473 0.979 . S
C448 H474 0.977 . S
C449 C445 1.684 . S
C449 H475 0.979 . S
C449 H476 0.980 . S
C449 H477 0.983 . S
C450 H426 0.948 . S
C450 C451 1.391 . S
C450 C455 1.391 . S
C451 C450 1.391 . S
C451 C452 1.391 . S
C452 H429 0.947 . S
C452 C451 1.391 . S
C452 C453 1.392 . S
C453 H430 0.948 . S
C453 C452 1.392 . S
C453 C454 1.419 . S
C454 C453 1.419 . S
C454 C455 1.391 . S
C454 C458 1.397 . S
C455 C450 1.391 . S
C455 C454 1.391 . S
C455 C456 1.399 . S
C456 C455 1.399 . S
C456 C457 1.396 . S
C456 C459 1.453 . S
C456 C460 1.684 . S
C457 C447 1.723 . S
C457 C456 1.396 . S
C457 C458 1.394 . S
C458 C428 1.723 . S
C458 C454 1.397 . S
C458 C457 1.394 . S
C459 H431 0.982 . S
C459 H435 0.979 . S
C459 H436 0.977 . S
C459 C456 1.453 . S
C460 H432 0.979 . S
C460 H433 0.980 . S
C460 H434 0.983 . S
C460 C456 1.684 . S
H461 C479 0.948 . S
H462 C420 0.948 . S
H463 C438 0.979 . S
H464 C438 0.980 . S
H465 C438 0.983 . S
H466 C437 0.982 . S
H467 C437 0.979 . S
H468 C437 0.977 . S
H469 C439 0.948 . S
H470 C441 0.947 . S
H471 C442 0.948 . S
H472 C448 0.982 . S
H473 C448 0.979 . S
H474 C448 0.977 . S
H475 C449 0.979 . S
H476 C449 0.980 . S
H477 C449 0.983 . S
H478 C422 0.947 . S
C479 C422 1.392 . S
C479 C423 1.419 . S
C479 H461 0.948 . S
Dy480 O483 2.307 1_545 S
Dy480 O485 2.395 . S
Dy480 O486 2.379 . S
Dy480 O488 2.339 1_545 S
Dy480 O490 2.298 1_455 S
Dy480 O494 2.275 . S
Dy480 C502 2.738 . S
Dy481 O484 2.298 1_655 S
Dy481 O487 2.275 . S
Dy481 O489 2.307 1_565 S
Dy481 O491 2.395 . S
Dy481 O492 2.379 . S
Dy481 O495 2.339 1_565 S
Dy481 C511 2.738 . S
C482 O494 1.254 . S
C482 O495 1.257 1_455 S
O483 Dy480 2.307 1_565 S
O483 C493 1.266 . S
O484 Dy481 2.298 1_455 S
O484 C493 1.236 . S
O485 Dy480 2.395 . S
O485 C502 1.255 . S
O486 Dy480 2.379 . S
O486 C502 1.249 . S
O487 Dy481 2.275 . S
O487 C503 1.254 . S
O488 Dy480 2.339 1_565 S
O488 C503 1.257 1_455 S
O489 Dy481 2.307 1_545 S
O489 C504 1.266 . S
O490 Dy480 2.298 1_655 S
O490 C504 1.236 . S
O491 Dy481 2.395 . S
O491 C511 1.255 . S
O492 Dy481 2.379 . S
O492 C511 1.249 . S
C493 O483 1.266 . S
C493 O484 1.236 . S
O494 Dy480 2.275 . S
O494 C482 1.254 . S
O495 Dy481 2.339 1_545 S
O495 C482 1.257 1_655 S
C496 C499 1.344 . S
C496 C500 1.328 . S
C496 C502 1.516 . S
C497 C498 1.304 . S
C497 C501 1.323 . S
C498 C497 1.304 . S
C498 C499 1.371 . S
C498 H512 0.930 . S
C499 C496 1.344 . S
C499 C498 1.371 . S
C499 H513 0.931 . S
C500 C496 1.328 . S
C500 C501 1.433 . S
C500 H514 0.931 . S
C501 C497 1.323 . S
C501 C500 1.433 . S
C501 H515 0.933 . S
C502 Dy480 2.738 . S
C502 O485 1.255 . S
C502 O486 1.249 . S
C502 C496 1.516 . S
C503 O487 1.254 . S
C503 O488 1.257 1_655 S
C504 O489 1.266 . S
C504 O490 1.236 . S
C505 C508 1.344 . S
C505 C509 1.328 . S
C505 C511 1.516 . S
C506 C507 1.304 . S
C506 C510 1.323 . S
C507 C506 1.304 . S
C507 C508 1.371 . S
C507 H516 0.930 . S
C508 C505 1.344 . S
C508 C507 1.371 . S
C508 H517 0.931 . S
C509 C505 1.328 . S
C509 C510 1.433 . S
C509 H518 0.931 . S
C510 C506 1.323 . S
C510 C509 1.433 . S
C510 H519 0.933 . S
C511 Dy481 2.738 . S
C511 O491 1.255 . S
C511 O492 1.249 . S
C511 C505 1.516 . S
H512 C498 0.930 . S
H513 C499 0.931 . S
H514 C500 0.931 . S
H515 C501 0.933 . S
H516 C507 0.930 . S
H517 C508 0.931 . S
H518 C509 0.931 . S
H519 C510 0.933 . S
Dy520 O523 2.307 1_566 S
Dy520 O525 2.395 . S
Dy520 O526 2.379 . S
Dy520 O528 2.339 1_565 S
Dy520 O530 2.298 . S
Dy520 O534 2.275 1_556 S
Dy520 C542 2.738 . S
Dy521 O524 2.298 . S
Dy521 O527 2.275 1_554 S
Dy521 O529 2.307 1_544 S
Dy521 O531 2.395 . S
Dy521 O532 2.379 . S
Dy521 O535 2.339 1_545 S
Dy521 C551 2.738 . S
C522 O534 1.254 . S
C522 O535 1.257 . S
O523 Dy520 2.307 1_544 S
O523 C533 1.266 . S
O524 Dy521 2.298 . S
O524 C533 1.236 . S
O525 Dy520 2.395 . S
O525 C542 1.255 . S
O526 Dy520 2.379 . S
O526 C542 1.249 . S
O527 Dy521 2.275 1_556 S
O527 C543 1.254 . S
O528 Dy520 2.339 1_545 S
O528 C543 1.257 . S
O529 Dy521 2.307 1_566 S
O529 C544 1.266 . S
O530 Dy520 2.298 . S
O530 C544 1.236 . S
O531 Dy521 2.395 . S
O531 C551 1.255 . S
O532 Dy521 2.379 . S
O532 C551 1.249 . S
C533 O523 1.266 . S
C533 O524 1.236 . S
O534 Dy520 2.275 1_554 S
O534 C522 1.254 . S
O535 Dy521 2.339 1_565 S
O535 C522 1.257 . S
C536 C539 1.344 . S
C536 C540 1.328 . S
C536 C542 1.516 . S
C537 C538 1.304 . S
C537 C541 1.323 . S
C538 C537 1.304 . S
C538 C539 1.371 . S
C538 H552 0.930 . S
C539 C536 1.344 . S
C539 C538 1.371 . S
C539 H553 0.931 . S
C540 C536 1.328 . S
C540 C541 1.433 . S
C540 H554 0.931 . S
C541 C537 1.323 . S
C541 C540 1.433 . S
C541 H555 0.933 . S
C542 Dy520 2.738 . S
C542 O525 1.255 . S
C542 O526 1.249 . S
C542 C536 1.516 . S
C543 O527 1.254 . S
C543 O528 1.257 . S
C544 O529 1.266 . S
C544 O530 1.236 . S
C545 C548 1.344 . S
C545 C549 1.328 . S
C545 C551 1.516 . S
C546 C547 1.304 . S
C546 C550 1.323 . S
C547 C546 1.304 . S
C547 C548 1.371 . S
C547 H556 0.930 . S
C548 C545 1.344 . S
C548 C547 1.371 . S
C548 H557 0.931 . S
C549 C545 1.328 . S
C549 C550 1.433 . S
C549 H558 0.931 . S
C550 C546 1.323 . S
C550 C549 1.433 . S
C550 H559 0.933 . S
C551 Dy521 2.738 . S
C551 O531 1.255 . S
C551 O532 1.249 . S
C551 C545 1.516 . S
H552 C538 0.930 . S
H553 C539 0.931 . S
H554 C540 0.931 . S
H555 C541 0.933 . S
H556 C547 0.930 . S
H557 C548 0.931 . S
H558 C549 0.931 . S
H559 C550 0.933 . S
Dy560 O563 2.307 . S
Dy560 O565 2.395 . S
Dy560 O566 2.379 . S
Dy560 O568 2.339 . S
Dy560 O570 2.298 . S
Dy560 O574 2.275 . S
Dy560 C582 2.738 . S
Dy561 O564 2.298 . S
Dy561 O567 2.275 . S
Dy561 O569 2.307 . S
Dy561 O571 2.395 . S
Dy561 O572 2.379 . S
Dy561 O575 2.339 . S
Dy561 C591 2.738 . S
C562 O574 1.254 . S
C562 O575 1.257 . S
O563 Dy560 2.307 . S
O563 C573 1.266 . S
O564 Dy561 2.298 . S
O564 C573 1.236 . S
O565 Dy560 2.395 . S
O565 C582 1.255 . S
O566 Dy560 2.379 . S
O566 C582 1.249 . S
O567 Dy561 2.275 . S
O567 C583 1.254 . S
O568 Dy560 2.339 . S
O568 C583 1.257 . S
O569 Dy561 2.307 . S
O569 C584 1.266 . S
O570 Dy560 2.298 . S
O570 C584 1.236 . S
O571 Dy561 2.395 . S
O571 C591 1.255 . S
O572 Dy561 2.379 . S
O572 C591 1.249 . S
C573 O563 1.266 . S
C573 O564 1.236 . S
O574 Dy560 2.275 . S
O574 C562 1.254 . S
O575 Dy561 2.339 . S
O575 C562 1.257 . S
C576 C579 1.344 . S
C576 C580 1.328 . S
C576 C582 1.516 . S
C577 C578 1.304 . S
C577 C581 1.323 . S
C578 C577 1.304 . S
C578 C579 1.371 . S
C578 H592 0.930 . S
C579 C576 1.344 . S
C579 C578 1.371 . S
C579 H593 0.931 . S
C580 C576 1.328 . S
C580 C581 1.433 . S
C580 H594 0.931 . S
C581 C577 1.323 . S
C581 C580 1.433 . S
C581 H595 0.933 . S
C582 Dy560 2.738 . S
C582 O565 1.255 . S
C582 O566 1.249 . S
C582 C576 1.516 . S
C583 O567 1.254 . S
C583 O568 1.257 . S
C584 O569 1.266 . S
C584 O570 1.236 . S
C585 C588 1.344 . S
C585 C589 1.328 . S
C585 C591 1.516 . S
C586 C587 1.304 . S
C586 C590 1.323 . S
C587 C586 1.304 . S
C587 C588 1.371 . S
C587 H596 0.930 . S
C588 C585 1.344 . S
C588 C587 1.371 . S
C588 H597 0.931 . S
C589 C585 1.328 . S
C589 C590 1.433 . S
C589 H598 0.931 . S
C590 C586 1.323 . S
C590 C589 1.433 . S
C590 H599 0.933 . S
C591 Dy561 2.738 . S
C591 O571 1.255 . S
C591 O572 1.249 . S
C591 C585 1.516 . S
H592 C578 0.930 . S
H593 C579 0.931 . S
H594 C580 0.931 . S
H595 C581 0.933 . S
H596 C587 0.930 . S
H597 C588 0.931 . S
H598 C589 0.931 . S
H599 C590 0.933 . S
Dy600 O603 2.307 1_656 S
Dy600 O605 2.395 . S
Dy600 O606 2.379 . S
Dy600 O608 2.339 1_655 S
Dy600 O610 2.298 . S
Dy600 O614 2.275 1_556 S
Dy600 C622 2.738 . S
Dy601 O604 2.298 . S
Dy601 O607 2.275 1_554 S
Dy601 O609 2.307 1_455 S
Dy601 O611 2.395 . S
Dy601 O612 2.379 . S
Dy601 O615 2.339 1_455 S
Dy601 C631 2.738 . S
C602 O614 1.254 . S
C602 O615 1.257 . S
O603 Dy600 2.307 1_454 S
O603 C613 1.266 . S
O604 Dy601 2.298 . S
O604 C613 1.236 . S
O605 Dy600 2.395 . S
O605 C622 1.255 . S
O606 Dy600 2.379 . S
O606 C622 1.249 . S
O607 Dy601 2.275 1_556 S
O607 C623 1.254 . S
O608 Dy600 2.339 1_455 S
O608 C623 1.257 . S
O609 Dy601 2.307 1_655 S
O609 C624 1.266 1_554 S
O610 Dy600 2.298 . S
O610 C624 1.236 . S
O611 Dy601 2.395 . S
O611 C631 1.255 . S
O612 Dy601 2.379 . S
O612 C631 1.249 . S
C613 O603 1.266 . S
C613 O604 1.236 . S
O614 Dy600 2.275 1_554 S
O614 C602 1.254 . S
O615 Dy601 2.339 1_655 S
O615 C602 1.257 . S
C616 C619 1.344 . S
C616 C620 1.328 . S
C616 C622 1.516 . S
C617 C618 1.304 . S
C617 C621 1.323 . S
C618 C617 1.304 . S
C618 C619 1.371 . S
C618 H632 0.930 . S
C619 C616 1.344 . S
C619 C618 1.371 . S
C619 H633 0.931 . S
C620 C616 1.328 . S
C620 C621 1.433 . S
C620 H634 0.931 . S
C621 C617 1.323 . S
C621 C620 1.433 . S
C621 H635 0.933 . S
C622 Dy600 2.738 . S
C622 O605 1.255 . S
C622 O606 1.249 . S
C622 C616 1.516 . S
C623 O607 1.254 . S
C623 O608 1.257 . S
C624 O609 1.266 1_556 S
C624 O610 1.236 . S
C625 C628 1.344 . S
C625 C629 1.328 . S
C625 C631 1.516 . S
C626 C627 1.304 . S
C626 C630 1.323 . S
C627 C626 1.304 . S
C627 C628 1.371 . S
C627 H636 0.930 . S
C628 C625 1.344 . S
C628 C627 1.371 . S
C628 H637 0.931 . S
C629 C625 1.328 . S
C629 C630 1.433 . S
C629 H638 0.931 . S
C630 C626 1.323 . S
C630 C629 1.433 . S
C630 H639 0.933 . S
C631 Dy601 2.738 . S
C631 O611 1.255 . S
C631 O612 1.249 . S
C631 C625 1.516 . S
H632 C618 0.930 . S
H633 C619 0.931 . S
H634 C620 0.931 . S
H635 C621 0.933 . S
H636 C627 0.930 . S
H637 C628 0.931 . S
H638 C629 0.931 . S
H639 C630 0.933 . S
H640 C652 0.930 . S
H641 C654 0.930 . S
H642 C655 0.930 . S
H643 C659 0.959 . S
H644 C659 0.959 . S
H645 C659 0.961 . S
H646 C660 0.960 . S
H647 C660 0.961 . S
H648 C660 0.959 . S
H649 C663 0.929 . S
H650 C664 0.931 . S
H651 C666 0.930 . S
C652 H640 0.930 . S
C652 C653 1.399 . S
C652 C657 1.399 . S
C653 C652 1.399 . S
C653 C654 1.376 . S
C654 H641 0.930 . S
C654 C653 1.376 . S
C654 C655 1.388 . S
C655 H642 0.930 . S
C655 C654 1.388 . S
C655 C656 1.390 . S
C656 C655 1.390 . S
C656 C657 1.394 . S
C656 C662 1.465 . S
C657 C652 1.399 . S
C657 C656 1.394 . S
C657 C658 1.516 . S
C658 C657 1.516 . S
C658 C659 1.502 . S
C658 C660 1.561 . S
C658 C661 1.526 . S
C659 H643 0.959 . S
C659 H644 0.959 . S
C659 H645 0.961 . S
C659 C658 1.502 . S
C660 H646 0.960 . S
C660 H647 0.961 . S
C660 H648 0.959 . S
C660 C658 1.561 . S
C661 C658 1.526 . S
C661 C662 1.396 . S
C661 C666 1.390 . S
C662 C656 1.465 . S
C662 C661 1.396 . S
C662 C663 1.399 . S
C663 H649 0.929 . S
C663 C662 1.399 . S
C663 C664 1.385 . S
C664 H650 0.931 . S
C664 C663 1.385 . S
C664 C665 1.389 . S
C665 C664 1.389 . S
C665 C666 1.387 . S
C666 H651 0.930 . S
C666 C661 1.390 . S
C666 C665 1.387 . S
H667 C679 0.930 . S
H668 C681 0.930 . S
H669 C682 0.930 . S
H670 C686 0.959 . S
H671 C686 0.959 . S
H672 C686 0.961 . S
H673 C687 0.960 . S
H674 C687 0.961 . S
H675 C687 0.959 . S
H676 C690 0.929 . S
H677 C691 0.931 . S
H678 C693 0.930 . S
C679 H667 0.930 . S
C679 C680 1.399 . S
C679 C684 1.399 . S
C680 C679 1.399 . S
C680 C681 1.376 . S
C681 H668 0.930 . S
C681 C680 1.376 . S
C681 C682 1.388 . S
C682 H669 0.930 . S
C682 C681 1.388 . S
C682 C683 1.390 . S
C683 C682 1.390 . S
C683 C684 1.394 . S
C683 C689 1.465 . S
C684 C679 1.399 . S
C684 C683 1.394 . S
C684 C685 1.516 . S
C685 C684 1.516 . S
C685 C686 1.502 . S
C685 C687 1.561 . S
C685 C688 1.526 . S
C686 H670 0.959 . S
C686 H671 0.959 . S
C686 H672 0.961 . S
C686 C685 1.502 . S
C687 H673 0.960 . S
C687 H674 0.961 . S
C687 H675 0.959 . S
C687 C685 1.561 . S
C688 C685 1.526 . S
C688 C689 1.396 . S
C688 C693 1.390 . S
C689 C683 1.465 . S
C689 C688 1.396 . S
C689 C690 1.399 . S
C690 H676 0.929 . S
C690 C689 1.399 . S
C690 C691 1.385 . S
C691 H677 0.931 . S
C691 C690 1.385 . S
C691 C692 1.389 . S
C692 C691 1.389 . S
C692 C693 1.387 . S
C693 H678 0.930 . S
C693 C688 1.390 . S
C693 C692 1.387 . S
H694 C706 0.930 . S
H695 C708 0.930 . S
H696 C709 0.930 . S
H697 C713 0.959 . S
H698 C713 0.959 . S
H699 C713 0.961 . S
H700 C714 0.960 . S
H701 C714 0.961 . S
H702 C714 0.959 . S
H703 C717 0.929 . S
H704 C718 0.931 . S
H705 C720 0.930 . S
C706 H694 0.930 . S
C706 C707 1.399 . S
C706 C711 1.399 . S
C707 C706 1.399 . S
C707 C708 1.376 . S
C708 H695 0.930 . S
C708 C707 1.376 . S
C708 C709 1.388 . S
C709 H696 0.930 . S
C709 C708 1.388 . S
C709 C710 1.390 . S
C710 C709 1.390 . S
C710 C711 1.394 . S
C710 C716 1.465 . S
C711 C706 1.399 . S
C711 C710 1.394 . S
C711 C712 1.516 . S
C712 C711 1.516 . S
C712 C713 1.502 . S
C712 C714 1.561 . S
C712 C715 1.526 . S
C713 H697 0.959 . S
C713 H698 0.959 . S
C713 H699 0.961 . S
C713 C712 1.502 . S
C714 H700 0.960 . S
C714 H701 0.961 . S
C714 H702 0.959 . S
C714 C712 1.561 . S
C715 C712 1.526 . S
C715 C716 1.396 . S
C715 C720 1.390 . S
C716 C710 1.465 . S
C716 C715 1.396 . S
C716 C717 1.399 . S
C717 H703 0.929 . S
C717 C716 1.399 . S
C717 C718 1.385 . S
C718 H704 0.931 . S
C718 C717 1.385 . S
C718 C719 1.389 . S
C719 C718 1.389 . S
C719 C720 1.387 . S
C720 H705 0.930 . S
C720 C715 1.390 . S
C720 C719 1.387 . S
H721 C733 0.930 . S
H722 C735 0.930 . S
H723 C736 0.930 . S
H724 C740 0.959 . S
H725 C740 0.959 . S
H726 C740 0.961 . S
H727 C741 0.960 . S
H728 C741 0.961 . S
H729 C741 0.959 . S
H730 C744 0.929 . S
H731 C745 0.931 . S
H732 C747 0.930 . S
C733 H721 0.930 . S
C733 C734 1.399 . S
C733 C738 1.399 . S
C734 C733 1.399 . S
C734 C735 1.376 . S
C735 H722 0.930 . S
C735 C734 1.376 . S
C735 C736 1.388 . S
C736 H723 0.930 . S
C736 C735 1.388 . S
C736 C737 1.390 . S
C737 C736 1.390 . S
C737 C738 1.394 . S
C737 C743 1.465 . S
C738 C733 1.399 . S
C738 C737 1.394 . S
C738 C739 1.516 . S
C739 C738 1.516 . S
C739 C740 1.502 . S
C739 C741 1.561 . S
C739 C742 1.526 . S
C740 H724 0.959 . S
C740 H725 0.959 . S
C740 H726 0.961 . S
C740 C739 1.502 . S
C741 H727 0.960 . S
C741 H728 0.961 . S
C741 H729 0.959 . S
C741 C739 1.561 . S
C742 C739 1.526 . S
C742 C743 1.396 . S
C742 C747 1.390 . S
C743 C737 1.465 . S
C743 C742 1.396 . S
C743 C744 1.399 . S
C744 H730 0.929 . S
C744 C743 1.399 . S
C744 C745 1.385 . S
C745 H731 0.931 . S
C745 C744 1.385 . S
C745 C746 1.389 . S
C746 C745 1.389 . S
C746 C747 1.387 . S
C747 H732 0.930 . S
C747 C742 1.390 . S
C747 C746 1.387 . S
H748 C760 0.930 . S
H749 C762 0.930 . S
H750 C763 0.930 . S
H751 C767 0.959 . S
H752 C767 0.959 . S
H753 C767 0.961 . S
H754 C768 0.960 . S
H755 C768 0.961 . S
H756 C768 0.959 . S
H757 C771 0.929 . S
H758 C772 0.931 . S
H759 C774 0.930 . S
C760 H748 0.930 . S
C760 C761 1.399 . S
C760 C765 1.399 . S
C761 C760 1.399 . S
C761 C762 1.376 . S
C762 H749 0.930 . S
C762 C761 1.376 . S
C762 C763 1.388 . S
C763 H750 0.930 . S
C763 C762 1.388 . S
C763 C764 1.390 . S
C764 C763 1.390 . S
C764 C765 1.394 . S
C764 C770 1.465 . S
C765 C760 1.399 . S
C765 C764 1.394 . S
C765 C766 1.516 . S
C766 C765 1.516 . S
C766 C767 1.502 . S
C766 C768 1.561 . S
C766 C769 1.526 . S
C767 H751 0.959 . S
C767 H752 0.959 . S
C767 H753 0.961 . S
C767 C766 1.502 . S
C768 H754 0.960 . S
C768 H755 0.961 . S
C768 H756 0.959 . S
C768 C766 1.561 . S
C769 C766 1.526 . S
C769 C770 1.396 . S
C769 C774 1.390 . S
C770 C764 1.465 . S
C770 C769 1.396 . S
C770 C771 1.399 . S
C771 H757 0.929 . S
C771 C770 1.399 . S
C771 C772 1.385 . S
C772 H758 0.931 . S
C772 C771 1.385 . S
C772 C773 1.389 . S
C773 C772 1.389 . S
C773 C774 1.387 . S
C774 H759 0.930 . S
C774 C769 1.390 . S
C774 C773 1.387 . S
H775 C787 0.930 . S
H776 C789 0.930 . S
H777 C790 0.930 . S
H778 C794 0.959 . S
H779 C794 0.959 . S
H780 C794 0.961 . S
H781 C795 0.960 . S
H782 C795 0.961 . S
H783 C795 0.959 . S
H784 C798 0.929 . S
H785 C799 0.931 . S
H786 C801 0.930 . S
C787 H775 0.930 . S
C787 C788 1.399 . S
C787 C792 1.399 . S
C788 C787 1.399 . S
C788 C789 1.376 . S
C789 H776 0.930 . S
C789 C788 1.376 . S
C789 C790 1.388 . S
C790 H777 0.930 . S
C790 C789 1.388 . S
C790 C791 1.390 . S
C791 C790 1.390 . S
C791 C792 1.394 . S
C791 C797 1.465 . S
C792 C787 1.399 . S
C792 C791 1.394 . S
C792 C793 1.516 . S
C793 C792 1.516 . S
C793 C794 1.502 . S
C793 C795 1.561 . S
C793 C796 1.526 . S
C794 H778 0.959 . S
C794 H779 0.959 . S
C794 H780 0.961 . S
C794 C793 1.502 . S
C795 H781 0.960 . S
C795 H782 0.961 . S
C795 H783 0.959 . S
C795 C793 1.561 . S
C796 C793 1.526 . S
C796 C797 1.396 . S
C796 C801 1.390 . S
C797 C791 1.465 . S
C797 C796 1.396 . S
C797 C798 1.399 . S
C798 H784 0.929 . S
C798 C797 1.399 . S
C798 C799 1.385 . S
C799 H785 0.931 . S
C799 C798 1.385 . S
C799 C800 1.389 . S
C800 C799 1.389 . S
C800 C801 1.387 . S
C801 H786 0.930 . S
C801 C796 1.390 . S
C801 C800 1.387 . S
H802 C814 0.930 . S
H803 C816 0.930 . S
H804 C817 0.930 . S
H805 C821 0.959 . S
H806 C821 0.959 . S
H807 C821 0.961 . S
H808 C822 0.960 . S
H809 C822 0.961 . S
H810 C822 0.959 . S
H811 C825 0.929 . S
H812 C826 0.931 . S
H813 C828 0.930 . S
C814 H802 0.930 . S
C814 C815 1.399 . S
C814 C819 1.399 . S
C815 C814 1.399 . S
C815 C816 1.376 . S
C816 H803 0.930 . S
C816 C815 1.376 . S
C816 C817 1.388 . S
C817 H804 0.930 . S
C817 C816 1.388 . S
C817 C818 1.390 . S
C818 C817 1.390 . S
C818 C819 1.394 . S
C818 C824 1.465 . S
C819 C814 1.399 . S
C819 C818 1.394 . S
C819 C820 1.516 . S
C820 C819 1.516 . S
C820 C821 1.502 . S
C820 C822 1.561 . S
C820 C823 1.526 . S
C821 H805 0.959 . S
C821 H806 0.959 . S
C821 H807 0.961 . S
C821 C820 1.502 . S
C822 H808 0.960 . S
C822 H809 0.961 . S
C822 H810 0.959 . S
C822 C820 1.561 . S
C823 C820 1.526 . S
C823 C824 1.396 . S
C823 C828 1.390 . S
C824 C818 1.465 . S
C824 C823 1.396 . S
C824 C825 1.399 . S
C825 H811 0.929 . S
C825 C824 1.399 . S
C825 C826 1.385 . S
C826 H812 0.931 . S
C826 C825 1.385 . S
C826 C827 1.389 . S
C827 C826 1.389 . S
C827 C828 1.387 . S
C828 H813 0.930 . S
C828 C823 1.390 . S
C828 C827 1.387 . S
H829 C841 0.930 . S
H830 C843 0.930 . S
H831 C844 0.930 . S
H832 C848 0.959 . S
H833 C848 0.959 . S
H834 C848 0.961 . S
H835 C849 0.960 . S
H836 C849 0.961 . S
H837 C849 0.959 . S
H838 C852 0.929 . S
H839 C853 0.931 . S
H840 C855 0.930 . S
C841 H829 0.930 . S
C841 C842 1.399 . S
C841 C846 1.399 . S
C842 C841 1.399 . S
C842 C843 1.376 . S
C843 H830 0.930 . S
C843 C842 1.376 . S
C843 C844 1.388 . S
C844 H831 0.930 . S
C844 C843 1.388 . S
C844 C845 1.390 . S
C845 C844 1.390 . S
C845 C846 1.394 . S
C845 C851 1.465 . S
C846 C841 1.399 . S
C846 C845 1.394 . S
C846 C847 1.516 . S
C847 C846 1.516 . S
C847 C848 1.502 . S
C847 C849 1.561 . S
C847 C850 1.526 . S
C848 H832 0.959 . S
C848 H833 0.959 . S
C848 H834 0.961 . S
C848 C847 1.502 . S
C849 H835 0.960 . S
C849 H836 0.961 . S
C849 H837 0.959 . S
C849 C847 1.561 . S
C850 C847 1.526 . S
C850 C851 1.396 . S
C850 C855 1.390 . S
C851 C845 1.465 . S
C851 C850 1.396 . S
C851 C852 1.399 . S
C852 H838 0.929 . S
C852 C851 1.399 . S
C852 C853 1.385 . S
C853 H839 0.931 . S
C853 C852 1.385 . S
C853 C854 1.389 . S
C854 C853 1.389 . S
C854 C855 1.387 . S
C855 H840 0.930 . S
C855 C850 1.390 . S
C855 C854 1.387 . S
H856 C868 0.930 . S
H857 C870 0.930 . S
H858 C871 0.930 . S
H859 C875 0.959 . S
H860 C875 0.959 . S
H861 C875 0.961 . S
H862 C876 0.960 . S
H863 C876 0.961 . S
H864 C876 0.959 . S
H865 C879 0.929 . S
H866 C880 0.931 . S
H867 C882 0.930 . S
C868 H856 0.930 . S
C868 C869 1.399 . S
C868 C873 1.399 . S
C869 C868 1.399 . S
C869 C870 1.376 . S
C870 H857 0.930 . S
C870 C869 1.376 . S
C870 C871 1.388 . S
C871 H858 0.930 . S
C871 C870 1.388 . S
C871 C872 1.390 . S
C872 C871 1.390 . S
C872 C873 1.394 . S
C872 C878 1.465 . S
C873 C868 1.399 . S
C873 C872 1.394 . S
C873 C874 1.516 . S
C874 C873 1.516 . S
C874 C875 1.502 . S
C874 C876 1.561 . S
C874 C877 1.526 . S
C875 H859 0.959 . S
C875 H860 0.959 . S
C875 H861 0.961 . S
C875 C874 1.502 . S
C876 H862 0.960 . S
C876 H863 0.961 . S
C876 H864 0.959 . S
C876 C874 1.561 . S
C877 C874 1.526 . S
C877 C878 1.396 . S
C877 C882 1.390 . S
C878 C872 1.465 . S
C878 C877 1.396 . S
C878 C879 1.399 . S
C879 H865 0.929 . S
C879 C878 1.399 . S
C879 C880 1.385 . S
C880 H866 0.931 . S
C880 C879 1.385 . S
C880 C881 1.389 . S
C881 C880 1.389 . S
C881 C882 1.387 . S
C882 H867 0.930 . S
C882 C877 1.390 . S
C882 C881 1.387 . S
H883 C895 0.930 . S
H884 C897 0.930 . S
H885 C898 0.930 . S
H886 C902 0.959 . S
H887 C902 0.959 . S
H888 C902 0.961 . S
H889 C903 0.960 . S
H890 C903 0.961 . S
H891 C903 0.959 . S
H892 C906 0.929 . S
H893 C907 0.931 . S
H894 C909 0.930 . S
C895 H883 0.930 . S
C895 C896 1.399 . S
C895 C900 1.399 . S
C896 C895 1.399 . S
C896 C897 1.376 . S
C897 H884 0.930 . S
C897 C896 1.376 . S
C897 C898 1.388 . S
C898 H885 0.930 . S
C898 C897 1.388 . S
C898 C899 1.390 . S
C899 C898 1.390 . S
C899 C900 1.394 . S
C899 C905 1.465 . S
C900 C895 1.399 . S
C900 C899 1.394 . S
C900 C901 1.516 . S
C901 C900 1.516 . S
C901 C902 1.502 . S
C901 C903 1.561 . S
C901 C904 1.526 . S
C902 H886 0.959 . S
C902 H887 0.959 . S
C902 H888 0.961 . S
C902 C901 1.502 . S
C903 H889 0.960 . S
C903 H890 0.961 . S
C903 H891 0.959 . S
C903 C901 1.561 . S
C904 C901 1.526 . S
C904 C905 1.396 . S
C904 C909 1.390 . S
C905 C899 1.465 . S
C905 C904 1.396 . S
C905 C906 1.399 . S
C906 H892 0.929 . S
C906 C905 1.399 . S
C906 C907 1.385 . S
C907 H893 0.931 . S
C907 C906 1.385 . S
C907 C908 1.389 . S
C908 C907 1.389 . S
C908 C909 1.387 . S
C909 H894 0.930 . S
C909 C904 1.390 . S
C909 C908 1.387 . S
H910 C922 0.930 . S
H911 C924 0.930 . S
H912 C925 0.930 . S
H913 C929 0.959 . S
H914 C929 0.959 . S
H915 C929 0.961 . S
H916 C930 0.960 . S
H917 C930 0.961 . S
H918 C930 0.959 . S
H919 C933 0.929 . S
H920 C934 0.931 . S
H921 C936 0.930 . S
C922 H910 0.930 . S
C922 C923 1.399 . S
C922 C927 1.399 . S
C923 C922 1.399 . S
C923 C924 1.376 . S
C924 H911 0.930 . S
C924 C923 1.376 . S
C924 C925 1.388 . S
C925 H912 0.930 . S
C925 C924 1.388 . S
C925 C926 1.390 . S
C926 C925 1.390 . S
C926 C927 1.394 . S
C926 C932 1.465 . S
C927 C922 1.399 . S
C927 C926 1.394 . S
C927 C928 1.516 . S
C928 C927 1.516 . S
C928 C929 1.502 . S
C928 C930 1.561 . S
C928 C931 1.526 . S
C929 H913 0.959 . S
C929 H914 0.959 . S
C929 H915 0.961 . S
C929 C928 1.502 . S
C930 H916 0.960 . S
C930 H917 0.961 . S
C930 H918 0.959 . S
C930 C928 1.561 . S
C931 C928 1.526 . S
C931 C932 1.396 . S
C931 C936 1.390 . S
C932 C926 1.465 . S
C932 C931 1.396 . S
C932 C933 1.399 . S
C933 H919 0.929 . S
C933 C932 1.399 . S
C933 C934 1.385 . S
C934 H920 0.931 . S
C934 C933 1.385 . S
C934 C935 1.389 . S
C935 C934 1.389 . S
C935 C936 1.387 . S
C936 H921 0.930 . S
C936 C931 1.390 . S
C936 C935 1.387 . S
H937 C949 0.930 . S
H938 C951 0.930 . S
H939 C952 0.930 . S
H940 C956 0.959 . S
H941 C956 0.959 . S
H942 C956 0.961 . S
H943 C957 0.960 . S
H944 C957 0.961 . S
H945 C957 0.959 . S
H946 C960 0.929 . S
H947 C961 0.931 . S
H948 C963 0.930 . S
C949 H937 0.930 . S
C949 C950 1.399 . S
C949 C954 1.399 . S
C950 C949 1.399 . S
C950 C951 1.376 . S
C951 H938 0.930 . S
C951 C950 1.376 . S
C951 C952 1.388 . S
C952 H939 0.930 . S
C952 C951 1.388 . S
C952 C953 1.390 . S
C953 C952 1.390 . S
C953 C954 1.394 . S
C953 C959 1.465 . S
C954 C949 1.399 . S
C954 C953 1.394 . S
C954 C955 1.516 . S
C955 C954 1.516 . S
C955 C956 1.502 . S
C955 C957 1.561 . S
C955 C958 1.526 . S
C956 H940 0.959 . S
C956 H941 0.959 . S
C956 H942 0.961 . S
C956 C955 1.502 . S
C957 H943 0.960 . S
C957 H944 0.961 . S
C957 H945 0.959 . S
C957 C955 1.561 . S
C958 C955 1.526 . S
C958 C959 1.396 . S
C958 C963 1.390 . S
C959 C953 1.465 . S
C959 C958 1.396 . S
C959 C960 1.399 . S
C960 H946 0.929 . S
C960 C959 1.399 . S
C960 C961 1.385 . S
C961 H947 0.931 . S
C961 C960 1.385 . S
C961 C962 1.389 . S
C962 C961 1.389 . S
C962 C963 1.387 . S
C963 H948 0.930 . S
C963 C958 1.390 . S
C963 C962 1.387 . S
H964 C976 0.930 . S
H965 C978 0.930 . S
H966 C979 0.930 . S
H967 C983 0.959 . S
H968 C983 0.959 . S
H969 C983 0.961 . S
H970 C984 0.960 . S
H971 C984 0.961 . S
H972 C984 0.959 . S
H973 C987 0.929 . S
H974 C988 0.931 . S
H975 C990 0.930 . S
C976 H964 0.930 . S
C976 C977 1.399 . S
C976 C981 1.399 . S
C977 C976 1.399 . S
C977 C978 1.376 . S
C978 H965 0.930 . S
C978 C977 1.376 . S
C978 C979 1.388 . S
C979 H966 0.930 . S
C979 C978 1.388 . S
C979 C980 1.390 . S
C980 C979 1.390 . S
C980 C981 1.394 . S
C980 C986 1.465 . S
C981 C976 1.399 . S
C981 C980 1.394 . S
C981 C982 1.516 . S
C982 C981 1.516 . S
C982 C983 1.502 . S
C982 C984 1.561 . S
C982 C985 1.526 . S
C983 H967 0.959 . S
C983 H968 0.959 . S
C983 H969 0.961 . S
C983 C982 1.502 . S
C984 H970 0.960 . S
C984 H971 0.961 . S
C984 H972 0.959 . S
C984 C982 1.561 . S
C985 C982 1.526 . S
C985 C986 1.396 . S
C985 C990 1.390 . S
C986 C980 1.465 . S
C986 C985 1.396 . S
C986 C987 1.399 . S
C987 H973 0.929 . S
C987 C986 1.399 . S
C987 C988 1.385 . S
C988 H974 0.931 . S
C988 C987 1.385 . S
C988 C989 1.389 . S
C989 C988 1.389 . S
C989 C990 1.387 . S
C990 H975 0.930 . S
C990 C985 1.390 . S
C990 C989 1.387 . S
H991 C1003 0.930 . S
H992 C1005 0.930 . S
H993 C1006 0.930 . S
H994 C1010 0.959 . S
H995 C1010 0.959 . S
H996 C1010 0.961 . S
H997 C1011 0.960 . S
H998 C1011 0.961 . S
H999 C1011 0.959 . S
H1000 C1014 0.929 . S
H1001 C1015 0.931 . S
H1002 C1017 0.930 . S
C1003 H991 0.930 . S
C1003 C1004 1.399 . S
C1003 C1008 1.399 . S
C1004 C1003 1.399 . S
C1004 C1005 1.376 . S
C1005 H992 0.930 . S
C1005 C1004 1.376 . S
C1005 C1006 1.388 . S
C1006 H993 0.930 . S
C1006 C1005 1.388 . S
C1006 C1007 1.390 . S
C1007 C1006 1.390 . S
C1007 C1008 1.394 . S
C1007 C1013 1.465 . S
C1008 C1003 1.399 . S
C1008 C1007 1.394 . S
C1008 C1009 1.516 . S
C1009 C1008 1.516 . S
C1009 C1010 1.502 . S
C1009 C1011 1.561 . S
C1009 C1012 1.526 . S
C1010 H994 0.959 . S
C1010 H995 0.959 . S
C1010 H996 0.961 . S
C1010 C1009 1.502 . S
C1011 H997 0.960 . S
C1011 H998 0.961 . S
C1011 H999 0.959 . S
C1011 C1009 1.561 . S
C1012 C1009 1.526 . S
C1012 C1013 1.396 . S
C1012 C1017 1.390 . S
C1013 C1007 1.465 . S
C1013 C1012 1.396 . S
C1013 C1014 1.399 . S
C1014 H1000 0.929 . S
C1014 C1013 1.399 . S
C1014 C1015 1.385 . S
C1015 H1001 0.931 . S
C1015 C1014 1.385 . S
C1015 C1016 1.389 . S
C1016 C1015 1.389 . S
C1016 C1017 1.387 . S
C1017 H1002 0.930 . S
C1017 C1012 1.390 . S
C1017 C1016 1.387 . S
H1018 C1030 0.930 . S
H1019 C1032 0.930 . S
H1020 C1033 0.930 . S
H1021 C1037 0.959 . S
H1022 C1037 0.959 . S
H1023 C1037 0.961 . S
H1024 C1038 0.960 . S
H1025 C1038 0.961 . S
H1026 C1038 0.959 . S
H1027 C1041 0.929 . S
H1028 C1042 0.931 . S
H1029 C1044 0.930 . S
C1030 H1018 0.930 . S
C1030 C1031 1.399 . S
C1030 C1035 1.399 . S
C1031 C1030 1.399 . S
C1031 C1032 1.376 . S
C1032 H1019 0.930 . S
C1032 C1031 1.376 . S
C1032 C1033 1.388 . S
C1033 H1020 0.930 . S
C1033 C1032 1.388 . S
C1033 C1034 1.390 . S
C1034 C1033 1.390 . S
C1034 C1035 1.394 . S
C1034 C1040 1.465 . S
C1035 C1030 1.399 . S
C1035 C1034 1.394 . S
C1035 C1036 1.516 . S
C1036 C1035 1.516 . S
C1036 C1037 1.502 . S
C1036 C1038 1.561 . S
C1036 C1039 1.526 . S
C1037 H1021 0.959 . S
C1037 H1022 0.959 . S
C1037 H1023 0.961 . S
C1037 C1036 1.502 . S
C1038 H1024 0.960 . S
C1038 H1025 0.961 . S
C1038 H1026 0.959 . S
C1038 C1036 1.561 . S
C1039 C1036 1.526 . S
C1039 C1040 1.396 . S
C1039 C1044 1.390 . S
C1040 C1034 1.465 . S
C1040 C1039 1.396 . S
C1040 C1041 1.399 . S
C1041 H1027 0.929 . S
C1041 C1040 1.399 . S
C1041 C1042 1.385 . S
C1042 H1028 0.931 . S
C1042 C1041 1.385 . S
C1042 C1043 1.389 . S
C1043 C1042 1.389 . S
C1043 C1044 1.387 . S
C1044 H1029 0.930 . S
C1044 C1039 1.390 . S
C1044 C1043 1.387 . S
H1045 C1057 0.930 . S
H1046 C1059 0.930 . S
H1047 C1060 0.930 . S
H1048 C1064 0.959 . S
H1049 C1064 0.959 . S
H1050 C1064 0.961 . S
H1051 C1065 0.960 . S
H1052 C1065 0.961 . S
H1053 C1065 0.959 . S
H1054 C1068 0.929 . S
H1055 C1069 0.931 . S
H1056 C1071 0.930 . S
C1057 H1045 0.930 . S
C1057 C1058 1.399 . S
C1057 C1062 1.399 . S
C1058 C1057 1.399 . S
C1058 C1059 1.376 . S
C1059 H1046 0.930 . S
C1059 C1058 1.376 . S
C1059 C1060 1.388 . S
C1060 H1047 0.930 . S
C1060 C1059 1.388 . S
C1060 C1061 1.390 . S
C1061 C1060 1.390 . S
C1061 C1062 1.394 . S
C1061 C1067 1.465 . S
C1062 C1057 1.399 . S
C1062 C1061 1.394 . S
C1062 C1063 1.516 . S
C1063 C1062 1.516 . S
C1063 C1064 1.502 . S
C1063 C1065 1.561 . S
C1063 C1066 1.526 . S
C1064 H1048 0.959 . S
C1064 H1049 0.959 . S
C1064 H1050 0.961 . S
C1064 C1063 1.502 . S
C1065 H1051 0.960 . S
C1065 H1052 0.961 . S
C1065 H1053 0.959 . S
C1065 C1063 1.561 . S
C1066 C1063 1.526 . S
C1066 C1067 1.396 . S
C1066 C1071 1.390 . S
C1067 C1061 1.465 . S
C1067 C1066 1.396 . S
C1067 C1068 1.399 . S
C1068 H1054 0.929 . S
C1068 C1067 1.399 . S
C1068 C1069 1.385 . S
C1069 H1055 0.931 . S
C1069 C1068 1.385 . S
C1069 C1070 1.389 . S
C1070 C1069 1.389 . S
C1070 C1071 1.387 . S
C1071 H1056 0.930 . S
C1071 C1066 1.390 . S
C1071 C1070 1.387 . S
H1072 C1084 0.930 . S
H1073 C1086 0.930 . S
H1074 C1087 0.930 . S
H1075 C1091 0.959 . S
H1076 C1091 0.959 . S
H1077 C1091 0.961 . S
H1078 C1092 0.960 . S
H1079 C1092 0.961 . S
H1080 C1092 0.959 . S
H1081 C1095 0.929 . S
H1082 C1096 0.931 . S
H1083 C1098 0.930 . S
C1084 H1072 0.930 . S
C1084 C1085 1.399 . S
C1084 C1089 1.399 . S
C1085 C1084 1.399 . S
C1085 C1086 1.376 . S
C1086 H1073 0.930 . S
C1086 C1085 1.376 . S
C1086 C1087 1.388 . S
C1087 H1074 0.930 . S
C1087 C1086 1.388 . S
C1087 C1088 1.390 . S
C1088 C1087 1.390 . S
C1088 C1089 1.394 . S
C1088 C1094 1.465 . S
C1089 C1084 1.399 . S
C1089 C1088 1.394 . S
C1089 C1090 1.516 . S
C1090 C1089 1.516 . S
C1090 C1091 1.502 . S
C1090 C1092 1.561 . S
C1090 C1093 1.526 . S
C1091 H1075 0.959 . S
C1091 H1076 0.959 . S
C1091 H1077 0.961 . S
C1091 C1090 1.502 . S
C1092 H1078 0.960 . S
C1092 H1079 0.961 . S
C1092 H1080 0.959 . S
C1092 C1090 1.561 . S
C1093 C1090 1.526 . S
C1093 C1094 1.396 . S
C1093 C1098 1.390 . S
C1094 C1088 1.465 . S
C1094 C1093 1.396 . S
C1094 C1095 1.399 . S
C1095 H1081 0.929 . S
C1095 C1094 1.399 . S
C1095 C1096 1.385 . S
C1096 H1082 0.931 . S
C1096 C1095 1.385 . S
C1096 C1097 1.389 . S
C1097 C1096 1.389 . S
C1097 C1098 1.387 . S
C1098 H1083 0.930 . S
C1098 C1093 1.390 . S
C1098 C1097 1.387 . S
H1099 C1111 0.930 . S
H1100 C1113 0.930 . S
H1101 C1114 0.930 . S
H1102 C1118 0.959 . S
H1103 C1118 0.959 . S
H1104 C1118 0.961 . S
H1105 C1119 0.960 . S
H1106 C1119 0.961 . S
H1107 C1119 0.959 . S
H1108 C1122 0.929 1_455 S
H1109 C1123 0.931 1_455 S
H1110 C1125 0.930 . S
C1111 H1099 0.930 . S
C1111 C1112 1.399 . S
C1111 C1116 1.399 . S
C1112 C1111 1.399 . S
C1112 C1113 1.376 . S
C1113 H1100 0.930 . S
C1113 C1112 1.376 . S
C1113 C1114 1.388 . S
C1114 H1101 0.930 . S
C1114 C1113 1.388 . S
C1114 C1115 1.390 . S
C1115 C1114 1.390 . S
C1115 C1116 1.394 . S
C1115 C1121 1.465 . S
C1116 C1111 1.399 . S
C1116 C1115 1.394 . S
C1116 C1117 1.516 . S
C1117 C1116 1.516 . S
C1117 C1118 1.502 . S
C1117 C1119 1.561 . S
C1117 C1120 1.526 . S
C1118 H1102 0.959 . S
C1118 H1103 0.959 . S
C1118 H1104 0.961 . S
C1118 C1117 1.502 . S
C1119 H1105 0.960 . S
C1119 H1106 0.961 . S
C1119 H1107 0.959 . S
C1119 C1117 1.561 . S
C1120 C1117 1.526 . S
C1120 C1121 1.396 . S
C1120 C1125 1.390 . S
C1121 C1115 1.465 . S
C1121 C1120 1.396 . S
C1121 C1122 1.399 . S
C1122 H1108 0.929 1_655 S
C1122 C1121 1.399 . S
C1122 C1123 1.385 . S
C1123 H1109 0.931 1_655 S
C1123 C1122 1.385 . S
C1123 C1124 1.389 . S
C1124 C1123 1.389 . S
C1124 C1125 1.387 . S
C1125 H1110 0.930 . S
C1125 C1120 1.390 . S
C1125 C1124 1.387 . S
H1126 C1138 0.930 . S
H1127 C1140 0.930 . S
H1128 C1141 0.930 . S
H1129 C1145 0.959 . S
H1130 C1145 0.959 . S
H1131 C1145 0.961 . S
H1132 C1146 0.960 . S
H1133 C1146 0.961 . S
H1134 C1146 0.959 . S
H1135 C1149 0.929 . S
H1136 C1150 0.931 . S
H1137 C1152 0.930 . S
C1138 H1126 0.930 . S
C1138 C1139 1.399 . S
C1138 C1143 1.399 . S
C1139 C1138 1.399 . S
C1139 C1140 1.376 . S
C1140 H1127 0.930 . S
C1140 C1139 1.376 . S
C1140 C1141 1.388 . S
C1141 H1128 0.930 . S
C1141 C1140 1.388 . S
C1141 C1142 1.390 . S
C1142 C1141 1.390 . S
C1142 C1143 1.394 . S
C1142 C1148 1.465 . S
C1143 C1138 1.399 . S
C1143 C1142 1.394 . S
C1143 C1144 1.516 . S
C1144 C1143 1.516 . S
C1144 C1145 1.502 . S
C1144 C1146 1.561 . S
C1144 C1147 1.526 . S
C1145 H1129 0.959 . S
C1145 H1130 0.959 . S
C1145 H1131 0.961 . S
C1145 C1144 1.502 . S
C1146 H1132 0.960 . S
C1146 H1133 0.961 . S
C1146 H1134 0.959 . S
C1146 C1144 1.561 . S
C1147 C1144 1.526 . S
C1147 C1148 1.396 . S
C1147 C1152 1.390 . S
C1148 C1142 1.465 . S
C1148 C1147 1.396 . S
C1148 C1149 1.399 . S
C1149 H1135 0.929 . S
C1149 C1148 1.399 . S
C1149 C1150 1.385 . S
C1150 H1136 0.931 . S
C1150 C1149 1.385 . S
C1150 C1151 1.389 . S
C1151 C1150 1.389 . S
C1151 C1152 1.387 . S
C1152 H1137 0.930 . S
C1152 C1147 1.390 . S
C1152 C1151 1.387 . S
H1153 C1165 0.930 . S
H1154 C1167 0.930 . S
H1155 C1168 0.930 . S
H1156 C1172 0.959 . S
H1157 C1172 0.959 . S
H1158 C1172 0.961 . S
H1159 C1173 0.960 . S
H1160 C1173 0.961 . S
H1161 C1173 0.959 . S
H1162 C1176 0.929 . S
H1163 C1177 0.931 . S
H1164 C1179 0.930 . S
C1165 H1153 0.930 . S
C1165 C1166 1.399 . S
C1165 C1170 1.399 . S
C1166 C1165 1.399 . S
C1166 C1167 1.376 . S
C1167 H1154 0.930 . S
C1167 C1166 1.376 . S
C1167 C1168 1.388 . S
C1168 H1155 0.930 . S
C1168 C1167 1.388 . S
C1168 C1169 1.390 . S
C1169 C1168 1.390 . S
C1169 C1170 1.394 . S
C1169 C1175 1.465 . S
C1170 C1165 1.399 . S
C1170 C1169 1.394 . S
C1170 C1171 1.516 . S
C1171 C1170 1.516 . S
C1171 C1172 1.502 . S
C1171 C1173 1.561 . S
C1171 C1174 1.526 . S
C1172 H1156 0.959 . S
C1172 H1157 0.959 . S
C1172 H1158 0.961 . S
C1172 C1171 1.502 . S
C1173 H1159 0.960 . S
C1173 H1160 0.961 . S
C1173 H1161 0.959 . S
C1173 C1171 1.561 . S
C1174 C1171 1.526 . S
C1174 C1175 1.396 . S
C1174 C1179 1.390 . S
C1175 C1169 1.465 . S
C1175 C1174 1.396 . S
C1175 C1176 1.399 . S
C1176 H1162 0.929 . S
C1176 C1175 1.399 . S
C1176 C1177 1.385 . S
C1177 H1163 0.931 . S
C1177 C1176 1.385 . S
C1177 C1178 1.389 . S
C1178 C1177 1.389 . S
C1178 C1179 1.387 . S
C1179 H1164 0.930 . S
C1179 C1174 1.390 . S
C1179 C1178 1.387 . S
H1180 C1192 0.930 . S
H1181 C1194 0.930 . S
H1182 C1195 0.930 . S
H1183 C1199 0.959 . S
H1184 C1199 0.959 . S
H1185 C1199 0.961 . S
H1186 C1200 0.960 . S
H1187 C1200 0.961 . S
H1188 C1200 0.959 . S
H1189 C1203 0.929 . S
H1190 C1204 0.931 . S
H1191 C1206 0.930 . S
C1192 H1180 0.930 . S
C1192 C1193 1.399 . S
C1192 C1197 1.399 . S
C1193 C1192 1.399 . S
C1193 C1194 1.376 . S
C1194 H1181 0.930 . S
C1194 C1193 1.376 . S
C1194 C1195 1.388 . S
C1195 H1182 0.930 . S
C1195 C1194 1.388 . S
C1195 C1196 1.390 . S
C1196 C1195 1.390 . S
C1196 C1197 1.394 . S
C1196 C1202 1.465 . S
C1197 C1192 1.399 . S
C1197 C1196 1.394 . S
C1197 C1198 1.516 . S
C1198 C1197 1.516 . S
C1198 C1199 1.502 . S
C1198 C1200 1.561 . S
C1198 C1201 1.526 . S
C1199 H1183 0.959 . S
C1199 H1184 0.959 . S
C1199 H1185 0.961 . S
C1199 C1198 1.502 . S
C1200 H1186 0.960 . S
C1200 H1187 0.961 . S
C1200 H1188 0.959 . S
C1200 C1198 1.561 . S
C1201 C1198 1.526 . S
C1201 C1202 1.396 . S
C1201 C1206 1.390 . S
C1202 C1196 1.465 . S
C1202 C1201 1.396 . S
C1202 C1203 1.399 . S
C1203 H1189 0.929 . S
C1203 C1202 1.399 . S
C1203 C1204 1.385 . S
C1204 H1190 0.931 . S
C1204 C1203 1.385 . S
C1204 C1205 1.389 . S
C1205 C1204 1.389 . S
C1205 C1206 1.387 . S
C1206 H1191 0.930 . S
C1206 C1201 1.390 . S
C1206 C1205 1.387 . S
H1207 C1219 0.930 . S
H1208 C1221 0.930 . S
H1209 C1222 0.930 . S
H1210 C1226 0.959 . S
H1211 C1226 0.959 . S
H1212 C1226 0.961 . S
H1213 C1227 0.960 . S
H1214 C1227 0.961 . S
H1215 C1227 0.959 . S
H1216 C1230 0.929 . S
H1217 C1231 0.931 . S
H1218 C1233 0.930 . S
C1219 H1207 0.930 . S
C1219 C1220 1.399 . S
C1219 C1224 1.399 . S
C1220 C1219 1.399 . S
C1220 C1221 1.376 . S
C1221 H1208 0.930 . S
C1221 C1220 1.376 . S
C1221 C1222 1.388 . S
C1222 H1209 0.930 . S
C1222 C1221 1.388 . S
C1222 C1223 1.390 . S
C1223 C1222 1.390 . S
C1223 C1224 1.394 . S
C1223 C1229 1.465 . S
C1224 C1219 1.399 . S
C1224 C1223 1.394 . S
C1224 C1225 1.516 . S
C1225 C1224 1.516 . S
C1225 C1226 1.502 . S
C1225 C1227 1.561 . S
C1225 C1228 1.526 . S
C1226 H1210 0.959 . S
C1226 H1211 0.959 . S
C1226 H1212 0.961 . S
C1226 C1225 1.502 . S
C1227 H1213 0.960 . S
C1227 H1214 0.961 . S
C1227 H1215 0.959 . S
C1227 C1225 1.561 . S
C1228 C1225 1.526 . S
C1228 C1229 1.396 . S
C1228 C1233 1.390 . S
C1229 C1223 1.465 . S
C1229 C1228 1.396 . S
C1229 C1230 1.399 . S
C1230 H1216 0.929 . S
C1230 C1229 1.399 . S
C1230 C1231 1.385 . S
C1231 H1217 0.931 . S
C1231 C1230 1.385 . S
C1231 C1232 1.389 . S
C1232 C1231 1.389 . S
C1232 C1233 1.387 . S
C1233 H1218 0.930 . S
C1233 C1228 1.390 . S
C1233 C1232 1.387 . S
H1234 C1246 0.930 . S
H1235 C1248 0.930 . S
H1236 C1249 0.930 . S
H1237 C1253 0.959 . S
H1238 C1253 0.959 . S
H1239 C1253 0.961 . S
H1240 C1254 0.960 . S
H1241 C1254 0.961 . S
H1242 C1254 0.959 . S
H1243 C1257 0.929 . S
H1244 C1258 0.931 . S
H1245 C1260 0.930 . S
C1246 H1234 0.930 . S
C1246 C1247 1.399 . S
C1246 C1251 1.399 . S
C1247 C1246 1.399 . S
C1247 C1248 1.376 . S
C1248 H1235 0.930 . S
C1248 C1247 1.376 . S
C1248 C1249 1.388 . S
C1249 H1236 0.930 . S
C1249 C1248 1.388 . S
C1249 C1250 1.390 . S
C1250 C1249 1.390 . S
C1250 C1251 1.394 . S
C1250 C1256 1.465 . S
C1251 C1246 1.399 . S
C1251 C1250 1.394 . S
C1251 C1252 1.516 . S
C1252 C1251 1.516 . S
C1252 C1253 1.502 . S
C1252 C1254 1.561 . S
C1252 C1255 1.526 . S
C1253 H1237 0.959 . S
C1253 H1238 0.959 . S
C1253 H1239 0.961 . S
C1253 C1252 1.502 . S
C1254 H1240 0.960 . S
C1254 H1241 0.961 . S
C1254 H1242 0.959 . S
C1254 C1252 1.561 . S
C1255 C1252 1.526 . S
C1255 C1256 1.396 . S
C1255 C1260 1.390 . S
C1256 C1250 1.465 . S
C1256 C1255 1.396 . S
C1256 C1257 1.399 . S
C1257 H1243 0.929 . S
C1257 C1256 1.399 . S
C1257 C1258 1.385 . S
C1258 H1244 0.931 . S
C1258 C1257 1.385 . S
C1258 C1259 1.389 . S
C1259 C1258 1.389 . S
C1259 C1260 1.387 . S
C1260 H1245 0.930 . S
C1260 C1255 1.390 . S
C1260 C1259 1.387 . S
H1261 C1273 0.930 . S
H1262 C1275 0.930 . S
H1263 C1276 0.930 . S
H1264 C1280 0.959 . S
H1265 C1280 0.959 . S
H1266 C1280 0.961 . S
H1267 C1281 0.960 . S
H1268 C1281 0.961 . S
H1269 C1281 0.959 . S
H1270 C1284 0.929 . S
H1271 C1285 0.931 . S
H1272 C1287 0.930 . S
C1273 H1261 0.930 . S
C1273 C1274 1.399 . S
C1273 C1278 1.399 . S
C1274 C1273 1.399 . S
C1274 C1275 1.376 . S
C1275 H1262 0.930 . S
C1275 C1274 1.376 . S
C1275 C1276 1.388 . S
C1276 H1263 0.930 . S
C1276 C1275 1.388 . S
C1276 C1277 1.390 . S
C1277 C1276 1.390 . S
C1277 C1278 1.394 . S
C1277 C1283 1.465 . S
C1278 C1273 1.399 . S
C1278 C1277 1.394 . S
C1278 C1279 1.516 . S
C1279 C1278 1.516 . S
C1279 C1280 1.502 . S
C1279 C1281 1.561 . S
C1279 C1282 1.526 . S
C1280 H1264 0.959 . S
C1280 H1265 0.959 . S
C1280 H1266 0.961 . S
C1280 C1279 1.502 . S
C1281 H1267 0.960 . S
C1281 H1268 0.961 . S
C1281 H1269 0.959 . S
C1281 C1279 1.561 . S
C1282 C1279 1.526 . S
C1282 C1283 1.396 . S
C1282 C1287 1.390 . S
C1283 C1277 1.465 . S
C1283 C1282 1.396 . S
C1283 C1284 1.399 . S
C1284 H1270 0.929 . S
C1284 C1283 1.399 . S
C1284 C1285 1.385 . S
C1285 H1271 0.931 . S
C1285 C1284 1.385 . S
C1285 C1286 1.389 . S
C1286 C1285 1.389 . S
C1286 C1287 1.387 . S
C1287 H1272 0.930 . S
C1287 C1282 1.390 . S
C1287 C1286 1.387 . S
C653 C1 1.094 . S
C665 C497 1.247 . S
C680 C80 1.156 . S
C692 C537 1.263 . S
C719 C562 2.356 . S
C707 C140 2.392 . S
C734 C211 2.393 . S
C746 C602 2.388 . S
C773 C533 1.809 . S
C761 C31 1.611 . S
C800 C493 1.801 . S
C788 C61 1.736 . S
C827 C624 1.652 . S
C815 C151 1.619 . S
C854 C584 1.689 . S
C842 C200 1.707 . S
C869 C20 1.334 . S
C881 C626 1.383 . S
C908 C543 2.119 . S
C896 C121 2.171 . S
C923 C181 2.140 . S
C935 C503 2.120 . S
C950 C91 1.427 . S
C962 C586 1.391 . S
C989 C506 1.258 . S
C977 C260 1.118 . S
C1004 C320 1.231 . S
C1016 C546 1.237 . S
C1031 C361 2.378 . S
C1043 C583 2.370 . S
C1058 C451 2.422 . S
C1070 C623 2.360 . S
C1085 C271 1.684 . S
C1097 C544 1.805 . S
C1124 C504 1.799 . S
C1112 C301 1.758 . S
C1151 C613 1.686 . S
C1139 C380 1.623 . S
C1178 C573 1.681 . S
C1166 C440 1.709 . S
C1193 C241 1.336 . S
C1205 C617 1.365 . S
C1232 C522 2.142 . S
C1220 C391 2.177 . S
C1259 C482 2.140 . S
C1247 C421 2.096 . S
C1274 C331 1.438 . S
C1286 C577 1.363 . S
