# Generated by pormake.
# Topology apo, (3,6)-cn, num edge types: 1
# Building blocks:
#     Node 0, Type 0, BuildingBlock: PAMTOO_clean_linker_0, # of connection points: 3
#     Node 1, Type 0, BuildingBlock: PAMTOO_clean_linker_0, # of connection points: 3
#     Node 2, Type 0, BuildingBlock: PAMTOO_clean_linker_0, # of connection points: 3
#     Node 3, Type 0, BuildingBlock: PAMTOO_clean_linker_0, # of connection points: 3
#     Node 4, Type 0, BuildingBlock: PAMTOO_clean_linker_0, # of connection points: 3
#     Node 5, Type 0, BuildingBlock: PAMTOO_clean_linker_0, # of connection points: 3
#     Node 6, Type 0, BuildingBlock: PAMTOO_clean_linker_0, # of connection points: 3
#     Node 7, Type 0, BuildingBlock: PAMTOO_clean_linker_0, # of connection points: 3
#     Node 8, Type 1, BuildingBlock: KUMBOL_clean_sbu_1, # of connection points: 6
#     Node 9, Type 1, BuildingBlock: KUMBOL_clean_sbu_1, # of connection points: 6
#     Node 10, Type 1, BuildingBlock: KUMBOL_clean_sbu_1, # of connection points: 6
#     Node 11, Type 1, BuildingBlock: KUMBOL_clean_sbu_1, # of connection points: 6
#     Edge 12, Type (0, 1), BuildingBlock: OJICUG_clean_linker_0, # of connection points: 2
#     Edge 13, Type (0, 1), BuildingBlock: OJICUG_clean_linker_0, # of connection points: 2
#     Edge 14, Type (0, 1), BuildingBlock: OJICUG_clean_linker_0, # of connection points: 2
#     Edge 15, Type (0, 1), BuildingBlock: OJICUG_clean_linker_0, # of connection points: 2
#     Edge 16, Type (0, 1), BuildingBlock: OJICUG_clean_linker_0, # of connection points: 2
#     Edge 17, Type (0, 1), BuildingBlock: OJICUG_clean_linker_0, # of connection points: 2
#     Edge 18, Type (0, 1), BuildingBlock: OJICUG_clean_linker_0, # of connection points: 2
#     Edge 19, Type (0, 1), BuildingBlock: OJICUG_clean_linker_0, # of connection points: 2
#     Edge 20, Type (0, 1), BuildingBlock: OJICUG_clean_linker_0, # of connection points: 2
#     Edge 21, Type (0, 1), BuildingBlock: OJICUG_clean_linker_0, # of connection points: 2
#     Edge 22, Type (0, 1), BuildingBlock: OJICUG_clean_linker_0, # of connection points: 2
#     Edge 23, Type (0, 1), BuildingBlock: OJICUG_clean_linker_0, # of connection points: 2
#     Edge 24, Type (0, 1), BuildingBlock: OJICUG_clean_linker_0, # of connection points: 2
#     Edge 25, Type (0, 1), BuildingBlock: OJICUG_clean_linker_0, # of connection points: 2
#     Edge 26, Type (0, 1), BuildingBlock: OJICUG_clean_linker_0, # of connection points: 2
#     Edge 27, Type (0, 1), BuildingBlock: OJICUG_clean_linker_0, # of connection points: 2
#     Edge 28, Type (0, 1), BuildingBlock: OJICUG_clean_linker_0, # of connection points: 2
#     Edge 29, Type (0, 1), BuildingBlock: OJICUG_clean_linker_0, # of connection points: 2
#     Edge 30, Type (0, 1), BuildingBlock: OJICUG_clean_linker_0, # of connection points: 2
#     Edge 31, Type (0, 1), BuildingBlock: OJICUG_clean_linker_0, # of connection points: 2
#     Edge 32, Type (0, 1), BuildingBlock: OJICUG_clean_linker_0, # of connection points: 2
#     Edge 33, Type (0, 1), BuildingBlock: OJICUG_clean_linker_0, # of connection points: 2
#     Edge 34, Type (0, 1), BuildingBlock: OJICUG_clean_linker_0, # of connection points: 2
#     Edge 35, Type (0, 1), BuildingBlock: OJICUG_clean_linker_0, # of connection points: 2
# Relax obj value: 0.038
# Max RMSD: 0.246
# Mean RMSD: 0.174
data_MOF--net-apo--node1-KUMBOL_clean_sbu_1--node2-PAMTOO_clean_linker_0--edge1-OJICUG_clean_linker_0
_symmetry_space_group_name_H-M    P1
_symmetry_Int_Tables_number       1
_symmetry_cell_setting            triclinic
loop_
_symmetry_equiv_pos_as_xyz
'x, y, z'
_cell_length_a     20.013587
_cell_length_b     30.562851
_cell_length_c     38.908794
_cell_angle_alpha  90.250224
_cell_angle_beta   90.266761
_cell_angle_gamma 91.369368
loop_
_atom_site_label
_atom_site_type_symbol
_atom_site_fract_x
_atom_site_fract_y
_atom_site_fract_z
_atom_type_partial_charge
H0 H 0.36155 0.46829 0.44132 0.0
H1 H 0.31849 0.38547 0.35308 0.0
H2 H 0.26144 0.34316 0.45336 0.0
H3 H 0.30554 0.27235 0.40462 0.0
C4 C 0.2879 0.28737 0.38031 0.0
O5 O 0.25521 0.32547 0.38765 0.0
H6 H 0.33231 0.29462 0.36399 0.0
C7 C 0.34174 0.43822 0.43002 0.0
C8 C 0.313 0.40618 0.45174 0.0
C9 C 0.34481 0.43148 0.39407 0.0
C10 C 0.31676 0.39234 0.38036 0.0
C11 C 0.2864 0.36104 0.40165 0.0
C12 C 0.28538 0.36765 0.43719 0.0
H13 H 0.19673 0.04397 0.94002 0.0
H14 H 0.30588 0.16673 0.95035 0.0
H15 H 0.23824 0.12308 0.85089 0.0
H16 H 0.37086 0.15506 0.85051 0.0
C17 C 0.37065 0.18066 0.87094 0.0
O18 O 0.30694 0.18365 0.88422 0.0
H19 H 0.4055 0.17102 0.89182 0.0
C20 C 0.21903 0.0731 0.92859 0.0
C21 C 0.21316 0.07975 0.89294 0.0
C22 C 0.25107 0.10477 0.94973 0.0
C23 C 0.27963 0.1425 0.93459 0.0
C24 C 0.27589 0.14866 0.89894 0.0
C25 C 0.24135 0.11785 0.87838 0.0
H26 H 0.90654 0.08497 0.60145 0.0
H27 H 0.80885 0.13068 0.69335 0.0
H28 H 0.78754 0.20076 0.59973 0.0
H29 H 0.82033 0.25454 0.66132 0.0
C30 C 0.79197 0.23497 0.6807 0.0
O31 O 0.76058 0.19952 0.665 0.0
H32 H 0.82832 0.22357 0.70028 0.0
C33 C 0.87458 0.10777 0.61448 0.0
C34 C 0.84809 0.143 0.59594 0.0
C35 C 0.8619 0.10317 0.65005 0.0
C36 C 0.82106 0.13372 0.66636 0.0
C37 C 0.79593 0.16904 0.64832 0.0
C38 C 0.80874 0.17345 0.61331 0.0
H39 H 0.63996 0.42544 0.11175 0.0
H40 H 0.7542 0.3084 0.10619 0.0
H41 H 0.74881 0.3806 0.20063 0.0
H42 H 0.87807 0.34941 0.18414 0.0
C43 C 0.86452 0.31839 0.17043 0.0
O44 O 0.79604 0.31226 0.17 0.0
H45 H 0.88352 0.32104 0.14365 0.0
C46 C 0.67278 0.40251 0.12405 0.0
C47 C 0.6908 0.40789 0.15897 0.0
C48 C 0.69539 0.36677 0.10491 0.0
C49 C 0.73622 0.33604 0.12072 0.0
C50 C 0.75535 0.34136 0.15513 0.0
C51 C 0.73255 0.37692 0.17417 0.0
H52 H 0.66926 0.54872 0.60018 0.0
H53 H 0.7918 0.66391 0.58128 0.0
H54 H 0.75118 0.62466 0.68467 0.0
H55 H 0.73805 0.71567 0.67367 0.0
C56 C 0.77899 0.72227 0.655 0.0
O57 O 0.80902 0.68362 0.64619 0.0
H58 H 0.75729 0.73699 0.63146 0.0
C59 C 0.69938 0.57613 0.6097 0.0
C60 C 0.70636 0.58264 0.64546 0.0
C61 C 0.73049 0.60478 0.58602 0.0
C62 C 0.76671 0.64149 0.59873 0.0
C63 C 0.77313 0.6487 0.6342 0.0
C64 C 0.74385 0.61914 0.65737 0.0
H65 H 0.89879 0.95488 0.10243 0.0
H66 H 0.81921 0.87901 0.18671 0.0
H67 H 0.77967 0.83822 0.08313 0.0
H68 H 0.67 0.81527 0.12679 0.0
C69 C 0.69476 0.81971 0.15224 0.0
O70 O 0.76327 0.8189 0.14805 0.0
H71 H 0.68045 0.85202 0.16297 0.0
C72 C 0.86961 0.92728 0.11198 0.0
C73 C 0.83884 0.89826 0.08819 0.0
C74 C 0.86249 0.92144 0.14773 0.0
C75 C 0.82688 0.88423 0.15949 0.0
C76 C 0.79854 0.85397 0.13619 0.0
C77 C 0.8045 0.86095 0.1007 0.0
H78 H 0.16134 0.93815 0.43988 0.0
H79 H 0.27233 0.81931 0.44687 0.0
H80 H 0.25631 0.88348 0.35028 0.0
H81 H 0.23166 0.78788 0.35002 0.0
C82 C 0.27088 0.77884 0.36892 0.0
O83 O 0.30187 0.816 0.38216 0.0
H84 H 0.24619 0.76006 0.38999 0.0
C85 C 0.19148 0.91344 0.42789 0.0
C86 C 0.2052 0.91546 0.39224 0.0
C87 C 0.2149 0.87855 0.44791 0.0
C88 C 0.25281 0.84613 0.43204 0.0
C89 C 0.26657 0.84793 0.39702 0.0
C90 C 0.24359 0.88249 0.3773 0.0
H91 H 0.40754 0.58783 0.92505 0.0
H92 H 0.27938 0.62955 0.84243 0.0
H93 H 0.28543 0.70065 0.93755 0.0
H94 H 0.1527 0.69386 0.90582 0.0
C95 C 0.16726 0.69268 0.87827 0.0
O96 O 0.23565 0.69753 0.87544 0.0
H97 H 0.15041 0.66041 0.86754 0.0
C98 C 0.37094 0.6099 0.91478 0.0
C99 C 0.34887 0.64441 0.9355 0.0
C100 C 0.34583 0.60364 0.88112 0.0
C101 C 0.29961 0.63344 0.86816 0.0
C102 C 0.27815 0.66822 0.88854 0.0
C103 C 0.30225 0.67345 0.92213 0.0
C104 C 0.84124 0.05185 0.28824 0.0
C105 C 0.84383 0.98455 0.32134 0.0
C106 C 0.87183 0.02581 0.31278 0.0
C107 C 0.78431 0.96997 0.30531 0.0
C108 C 0.78139 0.03723 0.27219 0.0
C109 C 0.75318 0.99623 0.28085 0.0
N110 N 0.87103 0.09082 0.27943 0.0
C111 C 0.84031 0.11812 0.25701 0.0
C112 C 0.75165 0.06422 0.24785 0.0
C113 C 0.78086 0.10502 0.24054 0.0
Gd114 Gd 0.11304 0.11033 0.23493 0.0
Gd115 Gd 0.97083 0.10868 0.30922 0.0
N116 N 0.93064 0.04005 0.32709 0.0
C117 C 0.87708 0.95888 0.34543 0.0
C118 C 0.96288 0.01551 0.35085 0.0
C119 C 0.93675 0.9745 0.36031 0.0
H120 H 1.0083 0.02787 0.36284 0.0
H121 H 0.96258 0.955 0.37909 0.0
H122 H 0.09652 0.2064 0.19618 0.0
H123 H 0.8601 0.15043 0.25221 0.0
H124 H 0.16151 0.27565 0.18893 0.0
H125 H 0.85716 0.92697 0.35268 0.0
H126 H 0.76209 0.93832 0.31153 0.0
H127 H 0.22204 0.03838 0.26983 0.0
H128 H 0.70563 0.05418 0.23498 0.0
H129 H 0.7572 0.12664 0.22246 0.0
H130 H 0.36656 0.25147 0.24972 0.0
H131 H 0.70733 0.98446 0.26868 0.0
H132 H 0.39903 0.11012 0.29862 0.0
H133 H 0.33257 0.04093 0.29717 0.0
N134 N 0.22031 0.10707 0.26017 0.0
C135 C 0.25846 0.14447 0.25796 0.0
C136 C 0.24789 0.06959 0.27223 0.0
C137 C 0.34926 0.1096 0.28752 0.0
C138 C 0.31177 0.07055 0.28693 0.0
C139 C 0.32353 0.1469 0.27211 0.0
H140 H 0.41147 0.18844 0.2805 0.0
N141 N 0.17132 0.17659 0.22631 0.0
C142 C 0.23375 0.17993 0.24008 0.0
C143 C 0.24593 0.25359 0.21817 0.0
C144 C 0.27254 0.21878 0.23665 0.0
C145 C 0.14552 0.20999 0.20769 0.0
C146 C 0.18228 0.24906 0.20347 0.0
O147 O 0.97627 0.05083 0.27229 0.0
O148 O 1.00786 0.0872 0.2242 0.0
O149 O 0.1303 0.11976 0.18024 0.0
O150 O 0.15223 0.05782 0.20359 0.0
O151 O 0.07195 0.0849 0.32403 0.0
O152 O 0.10732 0.05363 0.27329 0.0
O153 O 0.11171 0.16817 0.2717 0.0
O154 O 0.07138 0.14006 0.32277 0.0
O155 O 0.9454 0.10884 0.36412 0.0
O156 O 0.90723 0.15877 0.3294 0.0
O157 O 0.01659 0.14339 0.22209 0.0
O158 O 0.97424 0.16769 0.27389 0.0
C159 C 0.98054 0.05297 0.23878 0.0
C160 C 0.10463 0.05487 0.30728 0.0
C161 C 0.21561 0.07913 0.15445 0.0
C162 C 0.26678 0.08107 0.09743 0.0
C163 C 0.334 0.06583 0.14805 0.0
C164 C 0.27797 0.06985 0.16901 0.0
C165 C 0.32846 0.07101 0.11247 0.0
C166 C 0.21051 0.08533 0.11869 0.0
C167 C 0.15491 0.08131 0.17572 0.0
C168 C 0.33625 0.22176 0.25182 0.0
C169 C 0.36168 0.18592 0.2695 0.0
H170 H 0.27417 0.28398 0.21499 0.0
C171 C 0.10905 0.16812 0.30544 0.0
C172 C 0.98458 0.17228 0.24062 0.0
C173 C 0.87247 0.16409 0.38894 0.0
C174 C 0.85 0.17435 0.45016 0.0
C175 C 0.79329 0.21829 0.40757 0.0
C176 C 0.82696 0.19705 0.38133 0.0
C177 C 0.80486 0.20724 0.44173 0.0
C178 C 0.88322 0.15234 0.42355 0.0
C179 C 0.90907 0.14328 0.36053 0.0
H180 H 0.38189 0.05846 0.1594 0.0
H181 H 0.28329 0.06537 0.19647 0.0
H182 H 0.37256 0.0677 0.09671 0.0
H183 H 0.16245 0.0925 0.10731 0.0
H184 H 0.7583 0.24359 0.40141 0.0
H185 H 0.81737 0.20659 0.35501 0.0
H186 H 0.77807 0.22427 0.46167 0.0
H187 H 0.91842 0.12714 0.42982 0.0
C188 C 0.72785 0.45886 0.78592 0.0
C189 C 0.71946 0.53698 0.7964 0.0
C190 C 0.69236 0.49408 0.79822 0.0
C191 C 0.78191 0.5442 0.78084 0.0
C192 C 0.7919 0.46584 0.77168 0.0
C193 C 0.81799 0.50872 0.76847 0.0
N194 N 0.70138 0.41772 0.78961 0.0
C195 C 0.73963 0.3822 0.78325 0.0
C196 C 0.82871 0.42941 0.76213 0.0
C197 C 0.80297 0.38741 0.76859 0.0
Gd198 Gd 0.45354 0.3939 0.73616 0.0
Gd199 Gd 0.59202 0.41339 0.8118 0.0
N200 N 0.63113 0.48625 0.81218 0.0
C201 C 0.68319 0.57123 0.8106 0.0
C202 C 0.59725 0.51897 0.82784 0.0
C203 C 0.62226 0.56208 0.82683 0.0
H204 H 0.55061 0.51173 0.84067 0.0
H205 H 0.5946 0.58818 0.83857 0.0
H206 H 0.51569 0.3035 0.69755 0.0
H207 H 0.72225 0.34978 0.7901 0.0
H208 H 0.48604 0.22544 0.69201 0.0
H209 H 0.70233 0.60467 0.80975 0.0
H210 H 0.80326 0.577 0.77881 0.0
H211 H 0.32027 0.44119 0.7697 0.0
H212 H 0.87808 0.43336 0.7511 0.0
H213 H 0.83233 0.35903 0.76283 0.0
H214 H 0.26907 0.21194 0.74315 0.0
H215 H 0.8668 0.5147 0.75725 0.0
H216 H 0.1689 0.34219 0.78586 0.0
H217 H 0.20743 0.4196 0.78982 0.0
N218 N 0.34582 0.3765 0.75553 0.0
C219 C 0.32485 0.33414 0.75186 0.0
C220 C 0.30428 0.40726 0.76831 0.0
C221 C 0.21849 0.35147 0.77705 0.0
C222 C 0.24015 0.39518 0.77945 0.0
C223 C 0.26084 0.32033 0.76301 0.0
H224 H 0.19259 0.26474 0.76867 0.0
N225 N 0.42917 0.31902 0.72645 0.0
C226 C 0.36817 0.30442 0.73745 0.0
C227 C 0.39198 0.23123 0.71807 0.0
C228 C 0.34821 0.26004 0.73383 0.0
C229 C 0.4702 0.29151 0.70919 0.0
C230 C 0.45283 0.24717 0.70529 0.0
O231 O 0.57394 0.46518 0.77112 0.0
O232 O 0.55526 0.42212 0.72429 0.0
O233 O 0.42537 0.38261 0.68277 0.0
O234 O 0.40963 0.44592 0.70632 0.0
O235 O 0.48604 0.43308 0.82129 0.0
O236 O 0.44391 0.4554 0.76893 0.0
O237 O 0.43488 0.36556 0.78931 0.0
O238 O 0.53967 0.34725 0.80773 0.0
O239 O 0.565 0.41661 0.86593 0.0
O240 O 0.66574 0.40175 0.85152 0.0
O241 O 0.55717 0.36751 0.72666 0.0
O242 O 0.60415 0.35169 0.77979 0.0
C243 C 0.57951 0.45815 0.73804 0.0
C244 C 0.4495 0.45925 0.80269 0.0
C245 C 0.34303 0.42658 0.65719 0.0
C246 C 0.29379 0.42849 0.59955 0.0
C247 C 0.2268 0.44534 0.64974 0.0
C248 C 0.28161 0.43837 0.67128 0.0
C249 C 0.23285 0.44079 0.6141 0.0
C250 C 0.34859 0.42119 0.62139 0.0
C251 C 0.40328 0.42191 0.67863 0.0
C252 C 0.285 0.24596 0.74554 0.0
C253 C 0.24138 0.27604 0.76 0.0
H254 H 0.37853 0.1969 0.71483 0.0
C255 C 0.47482 0.33941 0.80599 0.0
C256 C 0.59914 0.34587 0.74621 0.0
C257 C 0.6236 0.36777 0.90109 0.0
C258 C 0.63617 0.34107 0.96 0.0
C259 C 0.62148 0.2898 0.91213 0.0
C260 C 0.61813 0.32451 0.88915 0.0
C261 C 0.63102 0.29786 0.94718 0.0
C262 C 0.6318 0.37599 0.93645 0.0
C263 C 0.62329 0.40428 0.87657 0.0
H264 H 0.17954 0.45458 0.6607 0.0
H265 H 0.27621 0.44267 0.69875 0.0
H266 H 0.18971 0.44638 0.59792 0.0
H267 H 0.39621 0.41242 0.61045 0.0
H268 H 0.61781 0.25646 0.90268 0.0
H269 H 0.61239 0.31764 0.86197 0.0
H270 H 0.63582 0.27003 0.96404 0.0
H271 H 0.63489 0.40959 0.9454 0.0
C272 C 0.79376 0.86307 0.76496 0.0
C273 C 0.78832 0.78582 0.77903 0.0
C274 C 0.82154 0.82703 0.78083 0.0
C275 C 0.7285 0.7811 0.7602 0.0
C276 C 0.73337 0.85857 0.74634 0.0
C277 C 0.70108 0.81737 0.74393 0.0
N278 N 0.82743 0.90223 0.76654 0.0
C279 C 0.80246 0.93848 0.75125 0.0
C280 C 0.70785 0.8955 0.73018 0.0
C281 C 0.74241 0.93566 0.73278 0.0
Gd282 Gd 0.0946 0.897 0.73812 0.0
Gd283 Gd 0.92858 0.90366 0.79709 0.0
N284 N 0.88048 0.83235 0.79825 0.0
C285 C 0.81557 0.75068 0.79672 0.0
C286 C 0.90356 0.79911 0.81805 0.0
C287 C 0.87269 0.75761 0.81688 0.0
H288 H 0.94431 0.80446 0.83578 0.0
H289 H 0.89226 0.7312 0.83207 0.0
H290 H 0.07591 0.99301 0.69507 0.0
H291 H 0.82874 0.96964 0.75349 0.0
H292 H 0.12272 0.06786 0.69723 0.0
H293 H 0.79158 0.71852 0.79599 0.0
H294 H 0.70273 0.7496 0.75831 0.0
H295 H 0.19685 0.83613 0.78473 0.0
H296 H 0.6616 0.89336 0.71561 0.0
H297 H 0.72287 0.96442 0.72053 0.0
H298 H 0.30726 0.05929 0.77561 0.0
H299 H 0.65489 0.8132 0.72953 0.0
H300 H 0.35607 0.91914 0.82315 0.0
H301 H 0.3006 0.84604 0.81907 0.0
N302 N 0.19392 0.90285 0.77004 0.0
C303 C 0.22466 0.94304 0.771 0.0
C304 C 0.22084 0.86808 0.78651 0.0
C305 C 0.31087 0.91491 0.80794 0.0
C306 C 0.27959 0.8736 0.8058 0.0
C307 C 0.28353 0.95026 0.79044 0.0
H308 H 0.35757 0.99875 0.80723 0.0
N309 N 0.13808 0.96941 0.73521 0.0
C310 C 0.19532 0.97737 0.75357 0.0
C311 C 0.19752 0.05276 0.73502 0.0
C312 C 0.22566 0.01953 0.75455 0.0
C313 C 0.1147 1.00064 0.71354 0.0
C314 C 0.14268 0.043 0.71385 0.0
O315 O 0.91948 0.87941 0.74221 0.0
O316 O 0.01598 0.84302 0.73072 0.0
O317 O 0.11529 0.90151 0.68284 0.0
O318 O 0.17047 0.8567 0.71549 0.0
O319 O 0.0154 0.86345 0.81643 0.0
O320 O 0.06647 0.83634 0.76769 0.0
O321 O 0.10181 0.92086 0.79355 0.0
O322 O 1.00572 0.95825 0.80267 0.0
O323 O 0.91253 0.8984 0.85295 0.0
O324 O 0.85432 0.94307 0.8217 0.0
O325 O 1.00683 0.93465 0.71759 0.0
O326 O 0.9565 0.9636 0.76589 0.0
C327 C 0.95099 0.84715 0.72776 0.0
C328 C 0.0522 0.83422 0.80062 0.0
C329 C 0.20125 0.85758 0.65522 0.0
C330 C 0.2218 0.85302 0.59344 0.0
C331 C 0.29229 0.81422 0.63349 0.0
C332 C 0.25544 0.83004 0.66097 0.0
C333 C 0.2754 0.82535 0.59993 0.0
C334 C 0.18505 0.86957 0.62122 0.0
C335 C 0.1616 0.8724 0.68487 0.0
C336 C 0.28376 0.027 0.77432 0.0
C337 C 0.31262 0.99248 0.7922 0.0
H338 H 0.21933 0.08555 0.73505 0.0
C339 C 0.07011 0.95368 0.80719 0.0
C340 C 0.96988 0.96417 0.73273 0.0
C341 C 0.82694 0.94145 0.88231 0.0
C342 C 0.80602 0.94332 0.94435 0.0
C343 C 0.73473 0.9829 0.905 0.0
C344 C 0.77222 0.96872 0.87724 0.0
C345 C 0.75136 0.9704 0.93825 0.0
C346 C 0.84344 0.92842 0.91607 0.0
C347 C 0.86529 0.92699 0.85199 0.0
H348 H 0.3338 0.79295 0.6382 0.0
H349 H 0.2693 0.82049 0.68677 0.0
H350 H 0.30432 0.81237 0.57891 0.0
H351 H 0.14325 0.89058 0.61628 0.0
H352 H 0.6925 1.00372 0.90073 0.0
H353 H 0.75797 0.97905 0.85169 0.0
H354 H 0.72092 0.98171 0.9593 0.0
H355 H 0.8857 0.90759 0.92037 0.0
C356 C 0.72392 0.68477 0.27815 0.0
C357 C 0.70241 0.75702 0.30088 0.0
C358 C 0.68367 0.71249 0.29686 0.0
C359 C 0.76081 0.77334 0.28506 0.0
C360 C 0.78342 0.7007 0.26296 0.0
C361 C 0.80128 0.74524 0.26622 0.0
N362 N 0.70398 0.64224 0.27419 0.0
C363 C 0.74332 0.61305 0.25769 0.0
C364 C 0.82298 0.67135 0.24483 0.0
C365 C 0.80315 0.62725 0.24247 0.0
Gd366 Gd 0.4545 0.6128 0.22849 0.0
Gd367 Gd 0.60366 0.62101 0.30053 0.0
N368 N 0.62719 0.69574 0.31172 0.0
C369 C 0.66253 0.78367 0.3212 0.0
C370 C 0.59085 0.72098 0.33347 0.0
C371 C 0.60711 0.7654 0.33796 0.0
H372 H 0.55003 0.70707 0.34809 0.0
H373 H 0.57738 0.78539 0.35475 0.0
H374 H 0.46789 0.50888 0.20507 0.0
H375 H 0.72786 0.57898 0.25594 0.0
H376 H 0.39676 0.44143 0.202 0.0
H377 H 0.67518 0.81805 0.3249 0.0
H378 H 0.77563 0.80753 0.28766 0.0
H379 H 0.34966 0.69491 0.24356 0.0
H380 H 0.8691 0.68231 0.2328 0.0
H381 H 0.83382 0.60424 0.22888 0.0
H382 H 0.1834 0.48692 0.24353 0.0
H383 H 0.84648 0.75822 0.25444 0.0
H384 H 0.15793 0.63934 0.26848 0.0
H385 H 0.23317 0.70421 0.26217 0.0
N386 N 0.34326 0.62543 0.2441 0.0
C387 C 0.30185 0.58964 0.24546 0.0
C388 C 0.31857 0.66631 0.24839 0.0
C389 C 0.20974 0.63504 0.26153 0.0
C390 C 0.25206 0.67172 0.25808 0.0
C391 C 0.23393 0.59342 0.25427 0.0
H392 H 0.13972 0.55815 0.2612 0.0
N393 N 0.3918 0.54719 0.22699 0.0
C394 C 0.32644 0.54949 0.2358 0.0
C395 C 0.30992 0.47267 0.22242 0.0
C396 C 0.28382 0.5121 0.23422 0.0
C397 C 0.41672 0.50952 0.21375 0.0
C398 C 0.37651 0.4715 0.21182 0.0
O399 O 0.61594 0.64612 0.24594 0.0
O400 O 0.51506 0.67559 0.234 0.0
O401 O 0.48495 0.60122 0.1759 0.0
O402 O 0.39494 0.63651 0.18569 0.0
O403 O 0.50277 0.64749 0.31565 0.0
O404 O 0.45846 0.67163 0.26426 0.0
O405 O 0.45695 0.55907 0.26939 0.0
O406 O 0.50458 0.5923 0.31734 0.0
O407 O 0.64645 0.62874 0.35247 0.0
O408 O 0.65959 0.56842 0.32292 0.0
O409 O 0.55351 0.5822 0.21782 0.0
O410 O 0.59746 0.55827 0.26925 0.0
C411 C 0.58054 0.67761 0.23293 0.0
C412 C 0.46077 0.67153 0.29808 0.0
C413 C 0.45383 0.65289 0.1346 0.0
C414 C 0.44947 0.67202 0.0738 0.0
C415 C 0.51913 0.71493 0.11341 0.0
C416 C 0.49848 0.68815 0.14052 0.0
C417 C 0.49521 0.70677 0.08014 0.0
C418 C 0.42875 0.64523 0.10128 0.0
C419 C 0.43583 0.62252 0.16245 0.0
C420 C 0.21674 0.51537 0.24415 0.0
C421 C 0.19192 0.55592 0.2543 0.0
H422 H 0.27885 0.4432 0.22087 0.0
C423 C 0.46887 0.5606 0.30284 0.0
C424 C 0.586 0.55349 0.23604 0.0
C425 C 0.71248 0.57113 0.3791 0.0
C426 C 0.74287 0.56416 0.43993 0.0
C427 C 0.79975 0.52179 0.39623 0.0
C428 C 0.76049 0.54016 0.37068 0.0
C429 C 0.79114 0.53361 0.43052 0.0
C430 C 0.70414 0.58343 0.41382 0.0
C431 C 0.67186 0.58998 0.35127 0.0
H432 H 0.554 0.74193 0.11817 0.0
H433 H 0.5177 0.6946 0.166 0.0
H434 H 0.51176 0.72792 0.05942 0.0
H435 H 0.39442 0.61784 0.09659 0.0
H436 H 0.83706 0.49824 0.38942 0.0
H437 H 0.76817 0.53041 0.34421 0.0
H438 H 0.82283 0.51896 0.44973 0.0
H439 H 0.66656 0.60691 0.42052 0.0
C440 C 0.17752 0.99453 0.38286 0.0
C441 C 0.17987 0.95144 0.37027 0.0
H442 H 0.15284 0.06099 0.37256 0.0
C443 C 0.15921 0.94309 0.33607 0.0
H444 H 0.19402 1.00242 0.40874 0.0
C445 C 0.13705 0.9769 0.31508 0.0
C446 C 0.13395 0.01967 0.32797 0.0
H447 H 0.15903 0.91022 0.32559 0.0
H448 H 0.1204 0.96931 0.28916 0.0
C449 C 0.15459 0.02818 0.362 0.0
C450 C 0.37932 0.57013 0.82436 0.0
C451 C 0.36747 0.56583 0.85989 0.0
H452 H 0.41394 0.5395 0.77812 0.0
C453 C 0.37751 0.52503 0.87534 0.0
H454 H 0.37254 0.60115 0.81163 0.0
C455 C 0.4016 0.4901 0.85626 0.0
C456 C 0.41564 0.4948 0.82111 0.0
H457 H 0.36723 0.52005 0.90236 0.0
H458 H 0.41028 0.45947 0.86927 0.0
C459 C 0.40291 0.53485 0.8051 0.0
C460 C 0.64759 0.56499 0.70133 0.0
C461 C 0.67571 0.55083 0.67016 0.0
H462 H 0.59476 0.54682 0.74724 0.0
C463 C 0.67403 0.50578 0.66257 0.0
H464 H 0.64738 0.59943 0.70796 0.0
C465 C 0.64347 0.47591 0.68491 0.0
C466 C 0.61448 0.49015 0.71566 0.0
H467 H 0.69661 0.4934 0.63935 0.0
H468 H 0.64272 0.44149 0.67809 0.0
C469 C 0.6174 0.53492 0.72387 0.0
C470 C 0.91396 0.94367 0.20515 0.0
C471 C 0.88996 0.95518 0.17233 0.0
H472 H 0.96047 0.9658 0.25226 0.0
C473 C 0.89252 0.99966 0.16297 0.0
H474 H 0.91326 0.90989 0.2134 0.0
C475 C 0.9213 0.0312 0.1848 0.0
C476 C 0.94668 0.01947 0.21703 0.0
H477 H 0.87225 0.01041 0.13868 0.0
H478 H 0.92343 0.06497 0.17642 0.0
C479 C 0.94136 0.97562 0.22743 0.0
C480 C 0.91073 0.07505 0.70522 0.0
C481 C 0.89169 0.06745 0.67072 0.0
H482 H 0.94911 0.04823 0.7519 0.0
C483 C 0.89987 0.0254 0.65674 0.0
H484 H 0.90726 0.10722 0.71673 0.0
C485 C 0.92568 0.99185 0.67686 0.0
C486 C 0.94276 0.99948 0.71148 0.0
H487 H 0.88516 0.01808 0.63049 0.0
H488 H 0.9311 0.9597 0.66553 0.0
C489 C 0.93508 0.04133 0.72546 0.0
C490 C 0.65761 0.48658 0.16377 0.0
C491 C 0.66634 0.44569 0.17939 0.0
H492 H 0.62555 0.55242 0.16939 0.0
C493 C 0.65093 0.44127 0.21457 0.0
H494 H 0.67048 0.49179 0.13708 0.0
C495 C 0.62678 0.47665 0.23341 0.0
C496 C 0.61636 0.5169 0.21733 0.0
H497 H 0.65597 0.4102 0.22747 0.0
H498 H 0.61425 0.47209 0.26024 0.0
C499 C 0.63235 0.52156 0.1824 0.0
C500 C 0.35438 0.46955 0.33659 0.0
C501 C 0.37671 0.46489 0.37077 0.0
H502 H 0.36751 0.50129 0.28847 0.0
C503 C 0.43054 0.49192 0.38206 0.0
H504 H 0.31232 0.45039 0.32673 0.0
C505 C 0.4602 0.52286 0.36005 0.0
C506 C 0.43793 0.52709 0.32587 0.0
H507 H 0.45069 0.48895 0.40778 0.0
H508 H 0.50129 0.54311 0.36979 0.0
C509 C 0.38541 0.49953 0.31444 0.0
C510 C 0.1945 1.00302 0.87101 0.0
C511 C 0.17697 0.04726 0.87087 0.0
H512 H 0.17481 0.93866 0.85046 0.0
C513 C 0.12455 0.06048 0.84944 0.0
H514 H 0.23512 0.99212 0.88709 0.0
C515 C 0.08948 0.0299 0.829 0.0
C516 C 0.10714 0.98572 0.82901 0.0
H517 H 0.11011 0.0944 0.8489 0.0
H518 H 0.04904 0.04091 0.81282 0.0
C519 C 0.1603 0.97257 0.84998 0.0
C520 C 0.27986 0.05988 1.00142 0.0
C521 C 0.25449 0.09852 0.98757 0.0
H522 H 0.3044 0.0244 0.0471 0.0
C523 C 0.23224 0.13115 1.01009 0.0
H524 H 0.29747 0.03428 0.98464 0.0
C525 C 0.23495 0.12513 0.04575 0.0
C526 C 0.2614 0.08681 0.0596 0.0
H527 H 0.21211 0.16113 1.00006 0.0
H528 H 0.2175 0.15076 0.06255 0.0
C529 C 0.284 0.05431 0.03708 0.0
C530 C 0.28422 0.45122 0.50362 0.0
C531 C 0.31051 0.41287 0.48959 0.0
H532 H 0.25754 0.48595 0.54944 0.0
C533 C 0.33235 0.38011 0.51197 0.0
H534 H 0.26663 0.47686 0.48696 0.0
C535 C 0.32788 0.3855 0.54762 0.0
C536 C 0.3003 0.42342 0.56167 0.0
H537 H 0.35302 0.35028 0.50183 0.0
H538 H 0.34478 0.3596 0.56423 0.0
C539 C 0.27857 0.45625 0.5393 0.0
C540 C 0.63749 0.32584 0.05725 0.0
C541 C 0.67712 0.36167 0.06823 0.0
H542 H 0.59058 0.29237 1.015 0.0
C543 C 0.70108 0.39183 0.04391 0.0
H544 H 0.61807 0.3024 0.07571 0.0
C545 C 0.68733 0.3855 1.0089 0.0
C546 C 0.64811 0.34928 0.99753 0.0
H547 H 0.73214 0.41959 0.05192 0.0
H548 H 0.70917 0.40842 0.99079 0.0
C549 C 0.62238 0.32 0.02238 0.0
C550 C 0.87447 0.19097 0.54558 0.0
C551 C 0.86058 0.14887 0.55852 0.0
H552 H 0.88279 0.23171 0.50117 0.0
C553 C 0.85227 0.11382 0.53518 0.0
H554 H 0.88268 0.21849 0.56286 0.0
C555 C 0.85294 0.12143 0.4996 0.0
C556 C 0.86172 0.16419 0.48695 0.0
H557 H 0.84144 0.08102 0.54438 0.0
H558 H 0.84269 0.09439 0.48212 0.0
C559 C 0.87476 0.19855 0.51027 0.0
C560 C 0.841 0.8771 0.025 0.0
C561 C 0.83741 0.90946 0.05081 0.0
H562 H 0.83479 0.86239 0.97092 0.0
C563 C 0.82875 0.95313 0.04076 0.0
H564 H 0.84829 0.8432 0.03174 0.0
C565 C 0.82182 0.96402 1.00617 0.0
C566 C 0.82278 0.93161 0.98047 0.0
H567 H 0.82471 0.97897 0.05971 0.0
H568 H 0.81395 0.99792 0.99958 0.0
C569 C 0.83403 0.88811 0.99014 0.0
C570 C 0.72396 0.62814 0.52364 0.0
C571 C 0.72841 0.59474 0.54836 0.0
H572 H 0.72466 0.64484 0.47004 0.0
C573 C 0.73355 0.55128 0.53683 0.0
H574 H 0.71912 0.66193 0.53153 0.0
C575 C 0.73583 0.54154 0.50177 0.0
C576 C 0.7336 0.57492 0.47705 0.0
H577 H 0.73789 0.52466 0.55492 0.0
H578 H 0.74035 0.50766 0.49402 0.0
C579 C 0.72635 0.61832 0.48837 0.0
C580 C 0.44384 0.65279 0.97745 0.0
C581 C 0.37472 0.65039 0.97103 0.0
H582 H 0.52164 0.66206 1.0151 0.0
C583 C 0.33034 0.65434 0.9987 0.0
H584 H 0.47903 0.65002 0.95652 0.0
C585 C 0.35465 0.6605 0.03219 0.0
C586 C 0.42374 0.66375 0.03851 0.0
H587 H 0.27683 0.65239 0.9944 0.0
H588 H 0.31945 0.66359 0.05308 0.0
C589 C 0.46813 0.65986 1.01084 0.0
C590 C 0.18459 0.83426 0.4997 0.0
C591 C 0.20182 0.87519 0.48545 0.0
H592 H 0.17705 0.79549 0.5453 0.0
C593 C 0.21486 0.91082 0.50773 0.0
H594 H 0.17312 0.80636 0.48325 0.0
C595 C 0.21622 0.90459 0.54348 0.0
C596 C 0.20456 0.86271 0.55728 0.0
H597 H 0.22848 0.94269 0.4975 0.0
H598 H 0.23081 0.93171 0.56012 0.0
C599 C 0.18642 0.82803 0.53518 0.0
C600 C 0.22223 0.26575 0.32718 0.0
C601 C 0.24114 0.25649 0.36112 0.0
H602 H 0.16392 0.24576 0.28333 0.0
C603 C 0.2146 0.21882 0.37704 0.0
H604 H 0.2414 0.29495 0.31457 0.0
C605 C 0.17108 0.19037 0.35906 0.0
C606 C 0.153 0.19917 0.32485 0.0
H607 H 0.22789 0.21122 0.40333 0.0
H608 H 0.15236 0.16116 0.37183 0.0
C609 C 0.17835 0.23747 0.30928 0.0
C610 C 0.46413 0.2278 0.84786 0.0
C611 C 0.3958 0.22321 0.85539 0.0
H612 H 0.54229 0.26744 0.82605 0.0
C613 C 0.35292 0.2571 0.84612 0.0
H614 H 0.49803 0.20185 0.85409 0.0
C615 C 0.37851 0.29518 0.83048 0.0
C616 C 0.44702 0.29965 0.823 0.0
H617 H 0.29977 0.25436 0.85097 0.0
H618 H 0.3447 0.3212 0.82448 0.0
C619 C 0.48944 0.26546 0.83187 0.0
C620 C 0.70965 0.29585 0.67881 0.0
C621 C 0.74077 0.26289 0.69755 0.0
H622 H 0.64069 0.34823 0.67967 0.0
C623 C 0.72234 0.2556 0.73185 0.0
H624 H 0.72235 0.30144 0.65212 0.0
C625 C 0.6754 0.2821 0.74762 0.0
C626 C 0.64594 0.31616 0.72924 0.0
H627 H 0.74484 0.2297 0.74652 0.0
H628 H 0.66249 0.27616 0.77423 0.0
C629 C 0.66277 0.32235 0.69453 0.0
C630 C 0.89698 0.27908 0.22458 0.0
C631 C 0.89601 0.28069 0.18854 0.0
H632 H 0.92616 0.24376 0.26938 0.0
C633 C 0.92281 0.24609 0.16969 0.0
H634 H 0.87568 0.3052 0.23957 0.0
C635 C 0.95165 0.21094 0.1866 0.0
C636 C 0.95371 0.20951 0.22273 0.0
H637 H 0.92164 0.24633 0.14185 0.0
H638 H 0.97212 0.18484 0.17128 0.0
C639 C 0.9257 0.24389 0.24154 0.0
C640 C 0.88469 0.74037 0.68972 0.0
C641 C 0.82818 0.75433 0.67146 0.0
H642 H 0.96906 0.75923 0.72128 0.0
C643 C 0.81391 0.79906 0.67124 0.0
H644 H 0.89602 0.70597 0.6912 0.0
C645 C 0.8552 0.82928 0.68866 0.0
C646 C 0.91153 0.81541 0.70687 0.0
H647 H 0.76992 0.81057 0.65807 0.0
H648 H 0.84243 0.86353 0.68833 0.0
C649 C 0.92654 0.77078 0.70689 0.0
C650 C 0.61146 0.78965 0.19475 0.0
C651 C 0.67012 0.78368 0.17579 0.0
H652 H 0.53781 0.76089 0.22806 0.0
C653 C 0.70038 0.7426 0.17654 0.0
H654 H 0.58636 0.82065 0.19408 0.0
C655 C 0.67263 0.70839 0.19609 0.0
C656 C 0.61354 0.71442 0.21468 0.0
H657 H 0.74468 0.73664 0.16153 0.0
H658 H 0.69606 0.67682 0.1957 0.0
C659 C 0.58354 0.75544 0.21403 0.0
C660 C 0.34708 0.76465 0.31922 0.0
C661 C 0.32177 0.75159 0.35122 0.0
H662 H 0.4124 0.74987 0.27754 0.0
C663 C 0.34569 0.71359 0.3667 0.0
H664 H 0.33018 0.79437 0.30723 0.0
C665 C 0.39225 0.68802 0.34972 0.0
C666 C 0.41563 0.70019 0.31708 0.0
H667 H 0.32762 0.70335 0.39167 0.0
H668 H 0.40867 0.6582 0.36173 0.0
C669 C 0.39379 0.73921 0.30231 0.0
C670 C 0.11062 0.76564 0.87551 0.0
C671 C 0.13478 0.72865 0.85852 0.0
H672 H 0.06505 0.82804 0.87052 0.0
C673 C 0.13183 0.7266 0.82253 0.0
H674 H 0.11339 0.7682 0.90325 0.0
C675 C 0.10457 0.76077 0.80378 0.0
C676 C 0.07992 0.79777 0.82069 0.0
H677 H 0.15108 0.6986 0.80894 0.0
H678 H 0.10292 0.75816 0.77602 0.0
C679 C 0.08307 0.79981 0.85677 0.0
loop_
_geom_bond_atom_site_label_1
_geom_bond_atom_site_label_2
_geom_bond_distance
_geom_bond_site_symmetry_2
_ccdc_geom_bond_type
H0 C7 0.929 . S
H1 C10 0.930 . S
H2 C12 0.929 . S
H3 C4 0.969 . S
C4 H3 0.969 . S
C4 O5 1.550 . S
C4 H6 0.973 . S
O5 C4 1.550 . S
O5 C11 1.412 . S
H6 C4 0.973 . S
C7 H0 0.929 . S
C7 C8 1.400 . S
C7 C9 1.364 . S
C8 C7 1.400 . S
C8 C12 1.377 . S
C9 C7 1.364 . S
C9 C10 1.374 . S
C10 H1 0.930 . S
C10 C9 1.374 . S
C10 C11 1.383 . S
C11 O5 1.412 . S
C11 C10 1.383 . S
C11 C12 1.394 . S
C12 H2 0.929 . S
C12 C8 1.377 . S
C12 C11 1.394 . S
H13 C20 0.929 . S
H14 C23 0.930 . S
H15 C25 0.929 . S
H16 C17 0.969 . S
C17 H16 0.969 . S
C17 O18 1.550 . S
C17 H19 0.973 . S
O18 C17 1.550 . S
O18 C24 1.412 . S
H19 C17 0.973 . S
C20 H13 0.929 . S
C20 C21 1.400 . S
C20 C22 1.364 . S
C21 C20 1.400 . S
C21 C25 1.377 . S
C22 C20 1.364 . S
C22 C23 1.374 . S
C23 H14 0.930 . S
C23 C22 1.374 . S
C23 C24 1.383 . S
C24 O18 1.412 . S
C24 C23 1.383 . S
C24 C25 1.394 . S
C25 H15 0.929 . S
C25 C21 1.377 . S
C25 C24 1.394 . S
H26 C33 0.929 . S
H27 C36 0.930 . S
H28 C38 0.929 . S
H29 C30 0.969 . S
C30 H29 0.969 . S
C30 O31 1.550 . S
C30 H32 0.973 . S
O31 C30 1.550 . S
O31 C37 1.412 . S
H32 C30 0.973 . S
C33 H26 0.929 . S
C33 C34 1.400 . S
C33 C35 1.364 . S
C34 C33 1.400 . S
C34 C38 1.377 . S
C35 C33 1.364 . S
C35 C36 1.374 . S
C36 H27 0.930 . S
C36 C35 1.374 . S
C36 C37 1.383 . S
C37 O31 1.412 . S
C37 C36 1.383 . S
C37 C38 1.394 . S
C38 H28 0.929 . S
C38 C34 1.377 . S
C38 C37 1.394 . S
H39 C46 0.929 . S
H40 C49 0.930 . S
H41 C51 0.929 . S
H42 C43 0.969 . S
C43 H42 0.969 . S
C43 O44 1.550 . S
C43 H45 0.973 . S
O44 C43 1.550 . S
O44 C50 1.412 . S
H45 C43 0.973 . S
C46 H39 0.929 . S
C46 C47 1.400 . S
C46 C48 1.364 . S
C47 C46 1.400 . S
C47 C51 1.377 . S
C48 C46 1.364 . S
C48 C49 1.374 . S
C49 H40 0.930 . S
C49 C48 1.374 . S
C49 C50 1.383 . S
C50 O44 1.412 . S
C50 C49 1.383 . S
C50 C51 1.394 . S
C51 H41 0.929 . S
C51 C47 1.377 . S
C51 C50 1.394 . S
H52 C59 0.929 . S
H53 C62 0.930 . S
H54 C64 0.929 . S
H55 C56 0.969 . S
C56 H55 0.969 . S
C56 O57 1.550 . S
C56 H58 0.973 . S
O57 C56 1.550 . S
O57 C63 1.412 . S
H58 C56 0.973 . S
C59 H52 0.929 . S
C59 C60 1.400 . S
C59 C61 1.364 . S
C60 C59 1.400 . S
C60 C64 1.377 . S
C61 C59 1.364 . S
C61 C62 1.374 . S
C62 H53 0.930 . S
C62 C61 1.374 . S
C62 C63 1.383 . S
C63 O57 1.412 . S
C63 C62 1.383 . S
C63 C64 1.394 . S
C64 H54 0.929 . S
C64 C60 1.377 . S
C64 C63 1.394 . S
H65 C72 0.929 . S
H66 C75 0.930 . S
H67 C77 0.929 . S
H68 C69 0.969 . S
C69 H68 0.969 . S
C69 O70 1.550 . S
C69 H71 0.973 . S
O70 C69 1.550 . S
O70 C76 1.412 . S
H71 C69 0.973 . S
C72 H65 0.929 . S
C72 C73 1.400 . S
C72 C74 1.364 . S
C73 C72 1.400 . S
C73 C77 1.377 . S
C74 C72 1.364 . S
C74 C75 1.374 . S
C75 H66 0.930 . S
C75 C74 1.374 . S
C75 C76 1.383 . S
C76 O70 1.412 . S
C76 C75 1.383 . S
C76 C77 1.394 . S
C77 H67 0.929 . S
C77 C73 1.377 . S
C77 C76 1.394 . S
H78 C85 0.929 . S
H79 C88 0.930 . S
H80 C90 0.929 . S
H81 C82 0.969 . S
C82 H81 0.969 . S
C82 O83 1.550 . S
C82 H84 0.973 . S
O83 C82 1.550 . S
O83 C89 1.412 . S
H84 C82 0.973 . S
C85 H78 0.929 . S
C85 C86 1.400 . S
C85 C87 1.364 . S
C86 C85 1.400 . S
C86 C90 1.377 . S
C87 C85 1.364 . S
C87 C88 1.374 . S
C88 H79 0.930 . S
C88 C87 1.374 . S
C88 C89 1.383 . S
C89 O83 1.412 . S
C89 C88 1.383 . S
C89 C90 1.394 . S
C90 H80 0.929 . S
C90 C86 1.377 . S
C90 C89 1.394 . S
H91 C98 0.929 . S
H92 C101 0.930 . S
H93 C103 0.929 . S
H94 C95 0.969 . S
C95 H94 0.969 . S
C95 O96 1.550 . S
C95 H97 0.973 . S
O96 C95 1.550 . S
O96 C102 1.412 . S
H97 C95 0.973 . S
C98 H91 0.929 . S
C98 C99 1.400 . S
C98 C100 1.364 . S
C99 C98 1.400 . S
C99 C103 1.377 . S
C100 C98 1.364 . S
C100 C101 1.374 . S
C101 H92 0.930 . S
C101 C100 1.374 . S
C101 C102 1.383 . S
C102 O96 1.412 . S
C102 C101 1.383 . S
C102 C103 1.394 . S
C103 H93 0.929 . S
C103 C99 1.377 . S
C103 C102 1.394 . S
C104 C106 1.422 . S
C104 C108 1.415 . S
C104 N110 1.369 . S
C105 C106 1.421 1_565 S
C105 C107 1.417 . S
C105 C117 1.422 . S
C106 C104 1.422 . S
C106 C105 1.421 1_545 S
C106 N116 1.359 . S
C107 C105 1.417 . S
C107 C109 1.329 1_565 S
C107 H126 0.930 . S
C108 C104 1.415 . S
C108 C109 1.437 . S
C108 C112 1.413 . S
C109 C107 1.329 1_545 S
C109 C108 1.437 . S
C109 H131 0.929 . S
N110 C104 1.369 . S
N110 C111 1.338 . S
N110 Gd115 2.622 . S
C111 N110 1.338 . S
C111 C113 1.378 . S
C111 H123 0.929 . S
C112 C108 1.413 . S
C112 C113 1.348 . S
C112 H128 0.931 . S
C113 C111 1.378 . S
C113 C112 1.348 . S
C113 H129 0.930 . S
Gd114 N134 2.622 . S
Gd114 N141 2.570 . S
Gd114 O148 2.353 . S
Gd114 O149 2.468 . S
Gd114 O150 2.427 . S
Gd114 O152 2.388 . S
Gd114 O153 2.386 . S
Gd114 O157 2.307 . S
Gd114 C167 2.805 . S
Gd115 N110 2.622 . S
Gd115 N116 2.570 . S
Gd115 O147 2.386 . S
Gd115 O151 2.307 1_655 S
Gd115 O154 2.353 1_655 S
Gd115 O155 2.468 . S
Gd115 O156 2.427 . S
Gd115 O158 2.388 . S
Gd115 C179 2.805 . S
N116 C106 1.359 . S
N116 Gd115 2.570 . S
N116 C118 1.343 1_545 S
C117 C105 1.422 . S
C117 C119 1.321 . S
C117 H125 0.931 . S
C118 N116 1.343 1_565 S
C118 C119 1.390 . S
C118 H120 0.931 . S
C119 C117 1.321 . S
C119 C118 1.390 . S
C119 H121 0.930 . S
H120 C118 0.931 . S
H121 C119 0.930 . S
H122 C145 0.931 . S
H123 C111 0.929 . S
H124 C146 0.930 . S
H125 C117 0.931 . S
H126 C107 0.930 . S
H127 C136 0.929 . S
H128 C112 0.931 . S
H129 C113 0.930 . S
H130 C168 0.930 . S
H131 C109 0.929 . S
H132 C137 0.931 . S
H133 C138 0.930 . S
N134 Gd114 2.622 . S
N134 C135 1.369 . S
N134 C136 1.338 . S
C135 N134 1.369 . S
C135 C139 1.415 . S
C135 C142 1.422 . S
C136 H127 0.929 . S
C136 N134 1.338 . S
C136 C138 1.378 . S
C137 H132 0.931 . S
C137 C138 1.348 . S
C137 C139 1.413 . S
C138 H133 0.930 . S
C138 C136 1.378 . S
C138 C137 1.348 . S
C139 C135 1.415 . S
C139 C137 1.413 . S
C139 C169 1.437 . S
H140 C169 0.929 . S
N141 Gd114 2.570 . S
N141 C142 1.359 . S
N141 C145 1.343 . S
C142 C135 1.422 . S
C142 N141 1.359 . S
C142 C144 1.421 . S
C143 C144 1.422 . S
C143 C146 1.321 . S
C143 H170 0.931 . S
C144 C142 1.421 . S
C144 C143 1.422 . S
C144 C168 1.417 . S
C145 H122 0.931 . S
C145 N141 1.343 . S
C145 C146 1.390 . S
C146 H124 0.930 . S
C146 C143 1.321 . S
C146 C145 1.390 . S
O147 Gd115 2.386 . S
O147 C159 1.265 . S
O148 Gd114 2.353 . S
O148 C159 1.242 1_455 S
O149 Gd114 2.468 . S
O149 C167 1.263 . S
O150 Gd114 2.427 . S
O150 C167 1.252 . S
O151 Gd115 2.307 1_455 S
O151 C160 1.261 . S
O152 Gd114 2.388 . S
O152 C160 1.252 . S
O153 Gd114 2.386 . S
O153 C171 1.265 . S
O154 Gd115 2.353 1_455 S
O154 C171 1.242 . S
O155 Gd115 2.468 . S
O155 C179 1.263 . S
O156 Gd115 2.427 . S
O156 C179 1.252 . S
O157 Gd114 2.307 . S
O157 C172 1.261 1_455 S
O158 Gd115 2.388 . S
O158 C172 1.252 . S
C159 O147 1.265 . S
C159 O148 1.242 1_655 S
C160 O151 1.261 . S
C160 O152 1.252 . S
C161 C164 1.394 . S
C161 C166 1.370 . S
C161 C167 1.500 . S
C162 C165 1.383 . S
C162 C166 1.395 . S
C163 C164 1.396 . S
C163 C165 1.365 . S
C163 H180 0.929 . S
C164 C161 1.394 . S
C164 C163 1.396 . S
C164 H181 0.930 . S
C165 C162 1.383 . S
C165 C163 1.365 . S
C165 H182 0.931 . S
C166 C161 1.370 . S
C166 C162 1.395 . S
C166 H183 0.930 . S
C167 Gd114 2.805 . S
C167 O149 1.263 . S
C167 O150 1.252 . S
C167 C161 1.500 . S
C168 H130 0.930 . S
C168 C144 1.417 . S
C168 C169 1.329 . S
C169 C139 1.437 . S
C169 H140 0.929 . S
C169 C168 1.329 . S
H170 C143 0.931 . S
C171 O153 1.265 . S
C171 O154 1.242 . S
C172 O157 1.261 1_655 S
C172 O158 1.252 . S
C173 C176 1.394 . S
C173 C178 1.370 . S
C173 C179 1.500 . S
C174 C177 1.383 . S
C174 C178 1.395 . S
C175 C176 1.396 . S
C175 C177 1.365 . S
C175 H184 0.929 . S
C176 C173 1.394 . S
C176 C175 1.396 . S
C176 H185 0.930 . S
C177 C174 1.383 . S
C177 C175 1.365 . S
C177 H186 0.931 . S
C178 C173 1.370 . S
C178 C174 1.395 . S
C178 H187 0.930 . S
C179 Gd115 2.805 . S
C179 O155 1.263 . S
C179 O156 1.252 . S
C179 C173 1.500 . S
H180 C163 0.929 . S
H181 C164 0.930 . S
H182 C165 0.931 . S
H183 C166 0.930 . S
H184 C175 0.929 . S
H185 C176 0.930 . S
H186 C177 0.931 . S
H187 C178 0.930 . S
C188 C190 1.422 . S
C188 C192 1.415 . S
C188 N194 1.369 . S
C189 C190 1.421 . S
C189 C191 1.417 . S
C189 C201 1.422 . S
C190 C188 1.422 . S
C190 C189 1.421 . S
C190 N200 1.359 . S
C191 C189 1.417 . S
C191 C193 1.329 . S
C191 H210 0.930 . S
C192 C188 1.415 . S
C192 C193 1.437 . S
C192 C196 1.413 . S
C193 C191 1.329 . S
C193 C192 1.437 . S
C193 H215 0.929 . S
N194 C188 1.369 . S
N194 C195 1.338 . S
N194 Gd199 2.622 . S
C195 N194 1.338 . S
C195 C197 1.378 . S
C195 H207 0.929 . S
C196 C192 1.413 . S
C196 C197 1.348 . S
C196 H212 0.931 . S
C197 C195 1.378 . S
C197 C196 1.348 . S
C197 H213 0.930 . S
Gd198 N218 2.622 . S
Gd198 N225 2.570 . S
Gd198 O232 2.353 . S
Gd198 O233 2.468 . S
Gd198 O234 2.427 . S
Gd198 O236 2.388 . S
Gd198 O237 2.386 . S
Gd198 O241 2.307 . S
Gd198 C251 2.805 . S
Gd199 N194 2.622 . S
Gd199 N200 2.570 . S
Gd199 O231 2.386 . S
Gd199 O235 2.307 . S
Gd199 O238 2.353 . S
Gd199 O239 2.468 . S
Gd199 O240 2.427 . S
Gd199 O242 2.388 . S
Gd199 C263 2.805 . S
N200 C190 1.359 . S
N200 Gd199 2.570 . S
N200 C202 1.343 . S
C201 C189 1.422 . S
C201 C203 1.321 . S
C201 H209 0.931 . S
C202 N200 1.343 . S
C202 C203 1.390 . S
C202 H204 0.931 . S
C203 C201 1.321 . S
C203 C202 1.390 . S
C203 H205 0.930 . S
H204 C202 0.931 . S
H205 C203 0.930 . S
H206 C229 0.931 . S
H207 C195 0.929 . S
H208 C230 0.930 . S
H209 C201 0.931 . S
H210 C191 0.930 . S
H211 C220 0.929 . S
H212 C196 0.931 . S
H213 C197 0.930 . S
H214 C252 0.930 . S
H215 C193 0.929 . S
H216 C221 0.931 . S
H217 C222 0.930 . S
N218 Gd198 2.622 . S
N218 C219 1.369 . S
N218 C220 1.338 . S
C219 N218 1.369 . S
C219 C223 1.415 . S
C219 C226 1.422 . S
C220 H211 0.929 . S
C220 N218 1.338 . S
C220 C222 1.378 . S
C221 H216 0.931 . S
C221 C222 1.348 . S
C221 C223 1.413 . S
C222 H217 0.930 . S
C222 C220 1.378 . S
C222 C221 1.348 . S
C223 C219 1.415 . S
C223 C221 1.413 . S
C223 C253 1.437 . S
H224 C253 0.929 . S
N225 Gd198 2.570 . S
N225 C226 1.359 . S
N225 C229 1.343 . S
C226 C219 1.422 . S
C226 N225 1.359 . S
C226 C228 1.421 . S
C227 C228 1.422 . S
C227 C230 1.321 . S
C227 H254 0.931 . S
C228 C226 1.421 . S
C228 C227 1.422 . S
C228 C252 1.417 . S
C229 H206 0.931 . S
C229 N225 1.343 . S
C229 C230 1.390 . S
C230 H208 0.930 . S
C230 C227 1.321 . S
C230 C229 1.390 . S
O231 Gd199 2.386 . S
O231 C243 1.265 . S
O232 Gd198 2.353 . S
O232 C243 1.242 . S
O233 Gd198 2.468 . S
O233 C251 1.263 . S
O234 Gd198 2.427 . S
O234 C251 1.252 . S
O235 Gd199 2.307 . S
O235 C244 1.261 . S
O236 Gd198 2.388 . S
O236 C244 1.252 . S
O237 Gd198 2.386 . S
O237 C255 1.265 . S
O238 Gd199 2.353 . S
O238 C255 1.242 . S
O239 Gd199 2.468 . S
O239 C263 1.263 . S
O240 Gd199 2.427 . S
O240 C263 1.252 . S
O241 Gd198 2.307 . S
O241 C256 1.261 . S
O242 Gd199 2.388 . S
O242 C256 1.252 . S
C243 O231 1.265 . S
C243 O232 1.242 . S
C244 O235 1.261 . S
C244 O236 1.252 . S
C245 C248 1.394 . S
C245 C250 1.370 . S
C245 C251 1.500 . S
C246 C249 1.383 . S
C246 C250 1.395 . S
C247 C248 1.396 . S
C247 C249 1.365 . S
C247 H264 0.929 . S
C248 C245 1.394 . S
C248 C247 1.396 . S
C248 H265 0.930 . S
C249 C246 1.383 . S
C249 C247 1.365 . S
C249 H266 0.931 . S
C250 C245 1.370 . S
C250 C246 1.395 . S
C250 H267 0.930 . S
C251 Gd198 2.805 . S
C251 O233 1.263 . S
C251 O234 1.252 . S
C251 C245 1.500 . S
C252 H214 0.930 . S
C252 C228 1.417 . S
C252 C253 1.329 . S
C253 C223 1.437 . S
C253 H224 0.929 . S
C253 C252 1.329 . S
H254 C227 0.931 . S
C255 O237 1.265 . S
C255 O238 1.242 . S
C256 O241 1.261 . S
C256 O242 1.252 . S
C257 C260 1.394 . S
C257 C262 1.370 . S
C257 C263 1.500 . S
C258 C261 1.383 . S
C258 C262 1.395 . S
C259 C260 1.396 . S
C259 C261 1.365 . S
C259 H268 0.929 . S
C260 C257 1.394 . S
C260 C259 1.396 . S
C260 H269 0.930 . S
C261 C258 1.383 . S
C261 C259 1.365 . S
C261 H270 0.931 . S
C262 C257 1.370 . S
C262 C258 1.395 . S
C262 H271 0.930 . S
C263 Gd199 2.805 . S
C263 O239 1.263 . S
C263 O240 1.252 . S
C263 C257 1.500 . S
H264 C247 0.929 . S
H265 C248 0.930 . S
H266 C249 0.931 . S
H267 C250 0.930 . S
H268 C259 0.929 . S
H269 C260 0.930 . S
H270 C261 0.931 . S
H271 C262 0.930 . S
C272 C274 1.422 . S
C272 C276 1.415 . S
C272 N278 1.369 . S
C273 C274 1.421 . S
C273 C275 1.417 . S
C273 C285 1.422 . S
C274 C272 1.422 . S
C274 C273 1.421 . S
C274 N284 1.359 . S
C275 C273 1.417 . S
C275 C277 1.329 . S
C275 H294 0.930 . S
C276 C272 1.415 . S
C276 C277 1.437 . S
C276 C280 1.413 . S
C277 C275 1.329 . S
C277 C276 1.437 . S
C277 H299 0.929 . S
N278 C272 1.369 . S
N278 C279 1.338 . S
N278 Gd283 2.622 . S
C279 N278 1.338 . S
C279 C281 1.378 . S
C279 H291 0.929 . S
C280 C276 1.413 . S
C280 C281 1.348 . S
C280 H296 0.931 . S
C281 C279 1.378 . S
C281 C280 1.348 . S
C281 H297 0.930 . S
Gd282 N302 2.622 . S
Gd282 N309 2.570 . S
Gd282 O316 2.353 . S
Gd282 O317 2.468 . S
Gd282 O318 2.427 . S
Gd282 O320 2.388 . S
Gd282 O321 2.386 . S
Gd282 O325 2.307 . S
Gd282 C335 2.805 . S
Gd283 N278 2.622 . S
Gd283 N284 2.570 . S
Gd283 O315 2.386 . S
Gd283 O319 2.307 1_655 S
Gd283 O322 2.353 1_655 S
Gd283 O323 2.468 . S
Gd283 O324 2.427 . S
Gd283 O326 2.388 . S
Gd283 C347 2.805 . S
N284 C274 1.359 . S
N284 Gd283 2.570 . S
N284 C286 1.343 . S
C285 C273 1.422 . S
C285 C287 1.321 . S
C285 H293 0.931 . S
C286 N284 1.343 . S
C286 C287 1.390 . S
C286 H288 0.931 . S
C287 C285 1.321 . S
C287 C286 1.390 . S
C287 H289 0.930 . S
H288 C286 0.931 . S
H289 C287 0.930 . S
H290 C313 0.931 . S
H291 C279 0.929 . S
H292 C314 0.930 . S
H293 C285 0.931 . S
H294 C275 0.930 . S
H295 C304 0.929 . S
H296 C280 0.931 . S
H297 C281 0.930 . S
H298 C336 0.930 . S
H299 C277 0.929 . S
H300 C305 0.931 . S
H301 C306 0.930 . S
N302 Gd282 2.622 . S
N302 C303 1.369 . S
N302 C304 1.338 . S
C303 N302 1.369 . S
C303 C307 1.415 . S
C303 C310 1.422 . S
C304 H295 0.929 . S
C304 N302 1.338 . S
C304 C306 1.378 . S
C305 H300 0.931 . S
C305 C306 1.348 . S
C305 C307 1.413 . S
C306 H301 0.930 . S
C306 C304 1.378 . S
C306 C305 1.348 . S
C307 C303 1.415 . S
C307 C305 1.413 . S
C307 C337 1.437 . S
H308 C337 0.929 . S
N309 Gd282 2.570 . S
N309 C310 1.359 . S
N309 C313 1.343 1_565 S
C310 C303 1.422 . S
C310 N309 1.359 . S
C310 C312 1.421 1_565 S
C311 C312 1.422 . S
C311 C314 1.321 . S
C311 H338 0.931 . S
C312 C310 1.421 1_545 S
C312 C311 1.422 . S
C312 C336 1.417 . S
C313 H290 0.931 . S
C313 N309 1.343 1_545 S
C313 C314 1.390 . S
C314 H292 0.930 . S
C314 C311 1.321 . S
C314 C313 1.390 . S
O315 Gd283 2.386 . S
O315 C327 1.265 . S
O316 Gd282 2.353 . S
O316 C327 1.242 1_455 S
O317 Gd282 2.468 . S
O317 C335 1.263 . S
O318 Gd282 2.427 . S
O318 C335 1.252 . S
O319 Gd283 2.307 1_455 S
O319 C328 1.261 . S
O320 Gd282 2.388 . S
O320 C328 1.252 . S
O321 Gd282 2.386 . S
O321 C339 1.265 . S
O322 Gd283 2.353 1_455 S
O322 C339 1.242 . S
O323 Gd283 2.468 . S
O323 C347 1.263 . S
O324 Gd283 2.427 . S
O324 C347 1.252 . S
O325 Gd282 2.307 . S
O325 C340 1.261 1_455 S
O326 Gd283 2.388 . S
O326 C340 1.252 . S
C327 O315 1.265 . S
C327 O316 1.242 1_655 S
C328 O319 1.261 . S
C328 O320 1.252 . S
C329 C332 1.394 . S
C329 C334 1.370 . S
C329 C335 1.500 . S
C330 C333 1.383 . S
C330 C334 1.395 . S
C331 C332 1.396 . S
C331 C333 1.365 . S
C331 H348 0.929 . S
C332 C329 1.394 . S
C332 C331 1.396 . S
C332 H349 0.930 . S
C333 C330 1.383 . S
C333 C331 1.365 . S
C333 H350 0.931 . S
C334 C329 1.370 . S
C334 C330 1.395 . S
C334 H351 0.930 . S
C335 Gd282 2.805 . S
C335 O317 1.263 . S
C335 O318 1.252 . S
C335 C329 1.500 . S
C336 H298 0.930 . S
C336 C312 1.417 . S
C336 C337 1.329 1_545 S
C337 C307 1.437 . S
C337 H308 0.929 . S
C337 C336 1.329 1_565 S
H338 C311 0.931 . S
C339 O321 1.265 . S
C339 O322 1.242 . S
C340 O325 1.261 1_655 S
C340 O326 1.252 . S
C341 C344 1.394 . S
C341 C346 1.370 . S
C341 C347 1.500 . S
C342 C345 1.383 . S
C342 C346 1.395 . S
C343 C344 1.396 . S
C343 C345 1.365 . S
C343 H352 0.929 . S
C344 C341 1.394 . S
C344 C343 1.396 . S
C344 H353 0.930 . S
C345 C342 1.383 . S
C345 C343 1.365 . S
C345 H354 0.931 . S
C346 C341 1.370 . S
C346 C342 1.395 . S
C346 H355 0.930 . S
C347 Gd283 2.805 . S
C347 O323 1.263 . S
C347 O324 1.252 . S
C347 C341 1.500 . S
H348 C331 0.929 . S
H349 C332 0.930 . S
H350 C333 0.931 . S
H351 C334 0.930 . S
H352 C343 0.929 . S
H353 C344 0.930 . S
H354 C345 0.931 . S
H355 C346 0.930 . S
C356 C358 1.422 . S
C356 C360 1.415 . S
C356 N362 1.369 . S
C357 C358 1.421 . S
C357 C359 1.417 . S
C357 C369 1.422 . S
C358 C356 1.422 . S
C358 C357 1.421 . S
C358 N368 1.359 . S
C359 C357 1.417 . S
C359 C361 1.329 . S
C359 H378 0.930 . S
C360 C356 1.415 . S
C360 C361 1.437 . S
C360 C364 1.413 . S
C361 C359 1.329 . S
C361 C360 1.437 . S
C361 H383 0.929 . S
N362 C356 1.369 . S
N362 C363 1.338 . S
N362 Gd367 2.622 . S
C363 N362 1.338 . S
C363 C365 1.378 . S
C363 H375 0.929 . S
C364 C360 1.413 . S
C364 C365 1.348 . S
C364 H380 0.931 . S
C365 C363 1.378 . S
C365 C364 1.348 . S
C365 H381 0.930 . S
Gd366 N386 2.622 . S
Gd366 N393 2.570 . S
Gd366 O400 2.353 . S
Gd366 O401 2.468 . S
Gd366 O402 2.427 . S
Gd366 O404 2.388 . S
Gd366 O405 2.386 . S
Gd366 O409 2.307 . S
Gd366 C419 2.805 . S
Gd367 N362 2.622 . S
Gd367 N368 2.570 . S
Gd367 O399 2.386 . S
Gd367 O403 2.307 . S
Gd367 O406 2.353 . S
Gd367 O407 2.468 . S
Gd367 O408 2.427 . S
Gd367 O410 2.388 . S
Gd367 C431 2.805 . S
N368 C358 1.359 . S
N368 Gd367 2.570 . S
N368 C370 1.343 . S
C369 C357 1.422 . S
C369 C371 1.321 . S
C369 H377 0.931 . S
C370 N368 1.343 . S
C370 C371 1.390 . S
C370 H372 0.931 . S
C371 C369 1.321 . S
C371 C370 1.390 . S
C371 H373 0.930 . S
H372 C370 0.931 . S
H373 C371 0.930 . S
H374 C397 0.931 . S
H375 C363 0.929 . S
H376 C398 0.930 . S
H377 C369 0.931 . S
H378 C359 0.930 . S
H379 C388 0.929 . S
H380 C364 0.931 . S
H381 C365 0.930 . S
H382 C420 0.930 . S
H383 C361 0.929 . S
H384 C389 0.931 . S
H385 C390 0.930 . S
N386 Gd366 2.622 . S
N386 C387 1.369 . S
N386 C388 1.338 . S
C387 N386 1.369 . S
C387 C391 1.415 . S
C387 C394 1.422 . S
C388 H379 0.929 . S
C388 N386 1.338 . S
C388 C390 1.378 . S
C389 H384 0.931 . S
C389 C390 1.348 . S
C389 C391 1.413 . S
C390 H385 0.930 . S
C390 C388 1.378 . S
C390 C389 1.348 . S
C391 C387 1.415 . S
C391 C389 1.413 . S
C391 C421 1.437 . S
H392 C421 0.929 . S
N393 Gd366 2.570 . S
N393 C394 1.359 . S
N393 C397 1.343 . S
C394 C387 1.422 . S
C394 N393 1.359 . S
C394 C396 1.421 . S
C395 C396 1.422 . S
C395 C398 1.321 . S
C395 H422 0.931 . S
C396 C394 1.421 . S
C396 C395 1.422 . S
C396 C420 1.417 . S
C397 H374 0.931 . S
C397 N393 1.343 . S
C397 C398 1.390 . S
C398 H376 0.930 . S
C398 C395 1.321 . S
C398 C397 1.390 . S
O399 Gd367 2.386 . S
O399 C411 1.265 . S
O400 Gd366 2.353 . S
O400 C411 1.242 . S
O401 Gd366 2.468 . S
O401 C419 1.263 . S
O402 Gd366 2.427 . S
O402 C419 1.252 . S
O403 Gd367 2.307 . S
O403 C412 1.261 . S
O404 Gd366 2.388 . S
O404 C412 1.252 . S
O405 Gd366 2.386 . S
O405 C423 1.265 . S
O406 Gd367 2.353 . S
O406 C423 1.242 . S
O407 Gd367 2.468 . S
O407 C431 1.263 . S
O408 Gd367 2.427 . S
O408 C431 1.252 . S
O409 Gd366 2.307 . S
O409 C424 1.261 . S
O410 Gd367 2.388 . S
O410 C424 1.252 . S
C411 O399 1.265 . S
C411 O400 1.242 . S
C412 O403 1.261 . S
C412 O404 1.252 . S
C413 C416 1.394 . S
C413 C418 1.370 . S
C413 C419 1.500 . S
C414 C417 1.383 . S
C414 C418 1.395 . S
C415 C416 1.396 . S
C415 C417 1.365 . S
C415 H432 0.929 . S
C416 C413 1.394 . S
C416 C415 1.396 . S
C416 H433 0.930 . S
C417 C414 1.383 . S
C417 C415 1.365 . S
C417 H434 0.931 . S
C418 C413 1.370 . S
C418 C414 1.395 . S
C418 H435 0.930 . S
C419 Gd366 2.805 . S
C419 O401 1.263 . S
C419 O402 1.252 . S
C419 C413 1.500 . S
C420 H382 0.930 . S
C420 C396 1.417 . S
C420 C421 1.329 . S
C421 C391 1.437 . S
C421 H392 0.929 . S
C421 C420 1.329 . S
H422 C395 0.931 . S
C423 O405 1.265 . S
C423 O406 1.242 . S
C424 O409 1.261 . S
C424 O410 1.252 . S
C425 C428 1.394 . S
C425 C430 1.370 . S
C425 C431 1.500 . S
C426 C429 1.383 . S
C426 C430 1.395 . S
C427 C428 1.396 . S
C427 C429 1.365 . S
C427 H436 0.929 . S
C428 C425 1.394 . S
C428 C427 1.396 . S
C428 H437 0.930 . S
C429 C426 1.383 . S
C429 C427 1.365 . S
C429 H438 0.931 . S
C430 C425 1.370 . S
C430 C426 1.395 . S
C430 H439 0.930 . S
C431 Gd367 2.805 . S
C431 O407 1.263 . S
C431 O408 1.252 . S
C431 C425 1.500 . S
H432 C415 0.929 . S
H433 C416 0.930 . S
H434 C417 0.931 . S
H435 C418 0.930 . S
H436 C427 0.929 . S
H437 C428 0.930 . S
H438 C429 0.931 . S
H439 C430 0.930 . S
C440 C441 1.387 . S
C440 H444 0.950 1_565 S
C440 C449 1.390 1_565 S
C441 C440 1.387 . S
C441 C443 1.387 . S
H442 C449 0.950 . S
C443 C441 1.387 . S
C443 C445 1.390 . S
C443 H447 0.950 . S
H444 C440 0.950 1_545 S
C445 C443 1.390 . S
C445 C446 1.387 1_565 S
C445 H448 0.950 . S
C446 C445 1.387 1_545 S
C446 C449 1.387 . S
H447 C443 0.950 . S
H448 C445 0.950 . S
C449 C440 1.390 1_545 S
C449 H442 0.950 . S
C449 C446 1.387 . S
C450 C451 1.387 . S
C450 H454 0.950 . S
C450 C459 1.390 . S
C451 C450 1.387 . S
C451 C453 1.387 . S
H452 C459 0.950 . S
C453 C451 1.387 . S
C453 C455 1.390 . S
C453 H457 0.950 . S
H454 C450 0.950 . S
C455 C453 1.390 . S
C455 C456 1.387 . S
C455 H458 0.950 . S
C456 C455 1.387 . S
C456 C459 1.387 . S
H457 C453 0.950 . S
H458 C455 0.950 . S
C459 C450 1.390 . S
C459 H452 0.950 . S
C459 C456 1.387 . S
C460 C461 1.387 . S
C460 H464 0.950 . S
C460 C469 1.390 . S
C461 C460 1.387 . S
C461 C463 1.387 . S
H462 C469 0.950 . S
C463 C461 1.387 . S
C463 C465 1.390 . S
C463 H467 0.950 . S
H464 C460 0.950 . S
C465 C463 1.390 . S
C465 C466 1.387 . S
C465 H468 0.950 . S
C466 C465 1.387 . S
C466 C469 1.387 . S
H467 C463 0.950 . S
H468 C465 0.950 . S
C469 C460 1.390 . S
C469 H462 0.950 . S
C469 C466 1.387 . S
C470 C471 1.387 . S
C470 H474 0.950 . S
C470 C479 1.390 . S
C471 C470 1.387 . S
C471 C473 1.387 . S
H472 C479 0.950 . S
C473 C471 1.387 . S
C473 C475 1.390 1_565 S
C473 H477 0.950 . S
H474 C470 0.950 . S
C475 C473 1.390 1_545 S
C475 C476 1.387 . S
C475 H478 0.950 . S
C476 C475 1.387 . S
C476 C479 1.387 1_545 S
H477 C473 0.950 . S
H478 C475 0.950 . S
C479 C470 1.390 . S
C479 H472 0.950 . S
C479 C476 1.387 1_565 S
C480 C481 1.387 . S
C480 H484 0.950 . S
C480 C489 1.390 . S
C481 C480 1.387 . S
C481 C483 1.387 . S
H482 C489 0.950 . S
C483 C481 1.387 . S
C483 C485 1.390 1_545 S
C483 H487 0.950 . S
H484 C480 0.950 . S
C485 C483 1.390 1_565 S
C485 C486 1.387 . S
C485 H488 0.950 . S
C486 C485 1.387 . S
C486 C489 1.387 1_565 S
H487 C483 0.950 . S
H488 C485 0.950 . S
C489 C480 1.390 . S
C489 H482 0.950 . S
C489 C486 1.387 1_545 S
C490 C491 1.387 . S
C490 H494 0.950 . S
C490 C499 1.390 . S
C491 C490 1.387 . S
C491 C493 1.387 . S
H492 C499 0.950 . S
C493 C491 1.387 . S
C493 C495 1.390 . S
C493 H497 0.950 . S
H494 C490 0.950 . S
C495 C493 1.390 . S
C495 C496 1.387 . S
C495 H498 0.950 . S
C496 C495 1.387 . S
C496 C499 1.387 . S
H497 C493 0.950 . S
H498 C495 0.950 . S
C499 C490 1.390 . S
C499 H492 0.950 . S
C499 C496 1.387 . S
C500 C501 1.387 . S
C500 H504 0.950 . S
C500 C509 1.390 . S
C501 C500 1.387 . S
C501 C503 1.387 . S
H502 C509 0.950 . S
C503 C501 1.387 . S
C503 C505 1.390 . S
C503 H507 0.950 . S
H504 C500 0.950 . S
C505 C503 1.390 . S
C505 C506 1.387 . S
C505 H508 0.950 . S
C506 C505 1.387 . S
C506 C509 1.387 . S
H507 C503 0.950 . S
H508 C505 0.950 . S
C509 C500 1.390 . S
C509 H502 0.950 . S
C509 C506 1.387 . S
C510 C511 1.387 . S
C510 H514 0.950 1_545 S
C510 C519 1.390 1_545 S
C511 C510 1.387 . S
C511 C513 1.387 . S
H512 C519 0.950 . S
C513 C511 1.387 . S
C513 C515 1.390 . S
C513 H517 0.950 . S
H514 C510 0.950 1_565 S
C515 C513 1.390 . S
C515 C516 1.387 1_545 S
C515 H518 0.950 . S
C516 C515 1.387 1_565 S
C516 C519 1.387 . S
H517 C513 0.950 . S
H518 C515 0.950 . S
C519 C510 1.390 1_565 S
C519 H512 0.950 . S
C519 C516 1.387 . S
C520 C521 1.387 . S
C520 H524 0.950 . S
C520 C529 1.390 1_556 S
C521 C520 1.387 . S
C521 C523 1.387 . S
H522 C529 0.950 . S
C523 C521 1.387 . S
C523 C525 1.390 1_556 S
C523 H527 0.950 . S
H524 C520 0.950 . S
C525 C523 1.390 1_554 S
C525 C526 1.387 . S
C525 H528 0.950 . S
C526 C525 1.387 . S
C526 C529 1.387 . S
H527 C523 0.950 . S
H528 C525 0.950 . S
C529 C520 1.390 1_554 S
C529 H522 0.950 . S
C529 C526 1.387 . S
C530 C531 1.387 . S
C530 H534 0.950 . S
C530 C539 1.390 . S
C531 C530 1.387 . S
C531 C533 1.387 . S
H532 C539 0.950 . S
C533 C531 1.387 . S
C533 C535 1.390 . S
C533 H537 0.950 . S
H534 C530 0.950 . S
C535 C533 1.390 . S
C535 C536 1.387 . S
C535 H538 0.950 . S
C536 C535 1.387 . S
C536 C539 1.387 . S
H537 C533 0.950 . S
H538 C535 0.950 . S
C539 C530 1.390 . S
C539 H532 0.950 . S
C539 C536 1.387 . S
C540 C541 1.387 . S
C540 H544 0.950 . S
C540 C549 1.390 1_554 S
C541 C540 1.387 . S
C541 C543 1.387 . S
H542 C549 0.950 . S
C543 C541 1.387 . S
C543 C545 1.390 1_554 S
C543 H547 0.950 . S
H544 C540 0.950 . S
C545 C543 1.390 1_556 S
C545 C546 1.387 . S
C545 H548 0.950 . S
C546 C545 1.387 . S
C546 C549 1.387 . S
H547 C543 0.950 . S
H548 C545 0.950 . S
C549 C540 1.390 1_556 S
C549 H542 0.950 . S
C549 C546 1.387 . S
C550 C551 1.387 . S
C550 H554 0.950 . S
C550 C559 1.390 . S
C551 C550 1.387 . S
C551 C553 1.387 . S
H552 C559 0.950 . S
C553 C551 1.387 . S
C553 C555 1.390 . S
C553 H557 0.950 . S
H554 C550 0.950 . S
C555 C553 1.390 . S
C555 C556 1.387 . S
C555 H558 0.950 . S
C556 C555 1.387 . S
C556 C559 1.387 . S
H557 C553 0.950 . S
H558 C555 0.950 . S
C559 C550 1.390 . S
C559 H552 0.950 . S
C559 C556 1.387 . S
C560 C561 1.387 . S
C560 H564 0.950 . S
C560 C569 1.390 1_554 S
C561 C560 1.387 . S
C561 C563 1.387 . S
H562 C569 0.950 . S
C563 C561 1.387 . S
C563 C565 1.390 1_554 S
C563 H567 0.950 . S
H564 C560 0.950 . S
C565 C563 1.390 1_556 S
C565 C566 1.387 . S
C565 H568 0.950 . S
C566 C565 1.387 . S
C566 C569 1.387 . S
H567 C563 0.950 . S
H568 C565 0.950 . S
C569 C560 1.390 1_556 S
C569 H562 0.950 . S
C569 C566 1.387 . S
C570 C571 1.387 . S
C570 H574 0.950 . S
C570 C579 1.390 . S
C571 C570 1.387 . S
C571 C573 1.387 . S
H572 C579 0.950 . S
C573 C571 1.387 . S
C573 C575 1.390 . S
C573 H577 0.950 . S
H574 C570 0.950 . S
C575 C573 1.390 . S
C575 C576 1.387 . S
C575 H578 0.950 . S
C576 C575 1.387 . S
C576 C579 1.387 . S
H577 C573 0.950 . S
H578 C575 0.950 . S
C579 C570 1.390 . S
C579 H572 0.950 . S
C579 C576 1.387 . S
C580 C581 1.387 . S
C580 H584 0.950 . S
C580 C589 1.390 1_556 S
C581 C580 1.387 . S
C581 C583 1.387 . S
H582 C589 0.950 . S
C583 C581 1.387 . S
C583 C585 1.390 1_556 S
C583 H587 0.950 . S
H584 C580 0.950 . S
C585 C583 1.390 1_554 S
C585 C586 1.387 . S
C585 H588 0.950 . S
C586 C585 1.387 . S
C586 C589 1.387 . S
H587 C583 0.950 . S
H588 C585 0.950 . S
C589 C580 1.390 1_554 S
C589 H582 0.950 . S
C589 C586 1.387 . S
C590 C591 1.387 . S
C590 H594 0.950 . S
C590 C599 1.390 . S
C591 C590 1.387 . S
C591 C593 1.387 . S
H592 C599 0.950 . S
C593 C591 1.387 . S
C593 C595 1.390 . S
C593 H597 0.950 . S
H594 C590 0.950 . S
C595 C593 1.390 . S
C595 C596 1.387 . S
C595 H598 0.950 . S
C596 C595 1.387 . S
C596 C599 1.387 . S
H597 C593 0.950 . S
H598 C595 0.950 . S
C599 C590 1.390 . S
C599 H592 0.950 . S
C599 C596 1.387 . S
C600 C601 1.387 . S
C600 H604 0.950 . S
C600 C609 1.390 . S
C601 C600 1.387 . S
C601 C603 1.387 . S
H602 C609 0.950 . S
C603 C601 1.387 . S
C603 C605 1.390 . S
C603 H607 0.950 . S
H604 C600 0.950 . S
C605 C603 1.390 . S
C605 C606 1.387 . S
C605 H608 0.950 . S
C606 C605 1.387 . S
C606 C609 1.387 . S
H607 C603 0.950 . S
H608 C605 0.950 . S
C609 C600 1.390 . S
C609 H602 0.950 . S
C609 C606 1.387 . S
C610 C611 1.387 . S
C610 H614 0.950 . S
C610 C619 1.390 . S
C611 C610 1.387 . S
C611 C613 1.387 . S
H612 C619 0.950 . S
C613 C611 1.387 . S
C613 C615 1.390 . S
C613 H617 0.950 . S
H614 C610 0.950 . S
C615 C613 1.390 . S
C615 C616 1.387 . S
C615 H618 0.950 . S
C616 C615 1.387 . S
C616 C619 1.387 . S
H617 C613 0.950 . S
H618 C615 0.950 . S
C619 C610 1.390 . S
C619 H612 0.950 . S
C619 C616 1.387 . S
C620 C621 1.387 . S
C620 H624 0.950 . S
C620 C629 1.390 . S
C621 C620 1.387 . S
C621 C623 1.387 . S
H622 C629 0.950 . S
C623 C621 1.387 . S
C623 C625 1.390 . S
C623 H627 0.950 . S
H624 C620 0.950 . S
C625 C623 1.390 . S
C625 C626 1.387 . S
C625 H628 0.950 . S
C626 C625 1.387 . S
C626 C629 1.387 . S
H627 C623 0.950 . S
H628 C625 0.950 . S
C629 C620 1.390 . S
C629 H622 0.950 . S
C629 C626 1.387 . S
C630 C631 1.387 . S
C630 H634 0.950 . S
C630 C639 1.390 . S
C631 C630 1.387 . S
C631 C633 1.387 . S
H632 C639 0.950 . S
C633 C631 1.387 . S
C633 C635 1.390 . S
C633 H637 0.950 . S
H634 C630 0.950 . S
C635 C633 1.390 . S
C635 C636 1.387 . S
C635 H638 0.950 . S
C636 C635 1.387 . S
C636 C639 1.387 . S
H637 C633 0.950 . S
H638 C635 0.950 . S
C639 C630 1.390 . S
C639 H632 0.950 . S
C639 C636 1.387 . S
C640 C641 1.387 . S
C640 H644 0.950 . S
C640 C649 1.390 . S
C641 C640 1.387 . S
C641 C643 1.387 . S
H642 C649 0.950 . S
C643 C641 1.387 . S
C643 C645 1.390 . S
C643 H647 0.950 . S
H644 C640 0.950 . S
C645 C643 1.390 . S
C645 C646 1.387 . S
C645 H648 0.950 . S
C646 C645 1.387 . S
C646 C649 1.387 . S
H647 C643 0.950 . S
H648 C645 0.950 . S
C649 C640 1.390 . S
C649 H642 0.950 . S
C649 C646 1.387 . S
C650 C651 1.387 . S
C650 H654 0.950 . S
C650 C659 1.390 . S
C651 C650 1.387 . S
C651 C653 1.387 . S
H652 C659 0.950 . S
C653 C651 1.387 . S
C653 C655 1.390 . S
C653 H657 0.950 . S
H654 C650 0.950 . S
C655 C653 1.390 . S
C655 C656 1.387 . S
C655 H658 0.950 . S
C656 C655 1.387 . S
C656 C659 1.387 . S
H657 C653 0.950 . S
H658 C655 0.950 . S
C659 C650 1.390 . S
C659 H652 0.950 . S
C659 C656 1.387 . S
C660 C661 1.387 . S
C660 H664 0.950 . S
C660 C669 1.390 . S
C661 C660 1.387 . S
C661 C663 1.387 . S
H662 C669 0.950 . S
C663 C661 1.387 . S
C663 C665 1.390 . S
C663 H667 0.950 . S
H664 C660 0.950 . S
C665 C663 1.390 . S
C665 C666 1.387 . S
C665 H668 0.950 . S
C666 C665 1.387 . S
C666 C669 1.387 . S
H667 C663 0.950 . S
H668 C665 0.950 . S
C669 C660 1.390 . S
C669 H662 0.950 . S
C669 C666 1.387 . S
C670 C671 1.387 . S
C670 H674 0.950 . S
C670 C679 1.390 . S
C671 C670 1.387 . S
C671 C673 1.387 . S
H672 C679 0.950 . S
C673 C671 1.387 . S
C673 C675 1.390 . S
C673 H677 0.950 . S
H674 C670 0.950 . S
C675 C673 1.390 . S
C675 C676 1.387 . S
C675 H678 0.950 . S
C676 C675 1.387 . S
C676 C679 1.387 . S
H677 C673 0.950 . S
H678 C675 0.950 . S
C679 C670 1.390 . S
C679 H672 0.950 . S
C679 C676 1.387 . S
C441 C86 1.629 . S
C446 C160 1.626 . S
C456 C244 1.670 . S
C451 C100 1.685 . S
C466 C243 1.623 . S
C461 C60 1.627 . S
C471 C74 1.680 . S
C476 C159 1.679 . S
C486 C340 1.669 . S
C481 C35 1.683 . S
C496 C424 1.627 . S
C491 C47 1.633 . S
C501 C9 1.678 . S
C506 C423 1.679 . S
C511 C21 1.632 . S
C516 C339 1.622 . S
C526 C162 1.428 . S
C521 C22 1.584 . S
C536 C246 1.410 . S
C531 C8 1.579 . S
C546 C258 1.355 . S
C541 C48 1.583 . S
C556 C174 1.361 . S
C551 C34 1.580 . S
C566 C342 1.411 . S
C561 C73 1.582 . S
C571 C61 1.581 . S
C576 C426 1.427 . S
C586 C414 1.357 . S
C581 C99 1.582 . S
C591 C87 1.580 . S
C596 C330 1.350 . S
C606 C171 1.575 . S
C601 C4 1.485 . S
C616 C255 1.498 . S
C611 C17 1.483 . S
C621 C30 1.484 . S
C626 C256 1.544 . S
C636 C172 1.468 . S
C631 C43 1.473 . S
C646 C327 1.497 . S
C641 C56 1.448 . S
C651 C69 1.518 . S
C656 C411 1.575 . S
C661 C82 1.442 . S
C666 C412 1.467 . S
C671 C95 1.512 . S
C676 C328 1.544 . S
