# Generated by pormake.
# Topology nom, (4,4)-cn, num edge types: 1
# Building blocks:
#     Node 0, Type 0, BuildingBlock: NAWXER_clean_linker_0, # of connection points: 4
#     Node 1, Type 0, BuildingBlock: NAWXER_clean_linker_0, # of connection points: 4
#     Node 2, Type 0, BuildingBlock: NAWXER_clean_linker_0, # of connection points: 4
#     Node 3, Type 0, BuildingBlock: NAWXER_clean_linker_0, # of connection points: 4
#     Node 4, Type 0, BuildingBlock: NAWXER_clean_linker_0, # of connection points: 4
#     Node 5, Type 0, BuildingBlock: NAWXER_clean_linker_0, # of connection points: 4
#     Node 6, Type 1, BuildingBlock: CEKHIL_clean_sbu_0, # of connection points: 4
#     Node 7, Type 1, BuildingBlock: CEKHIL_clean_sbu_0, # of connection points: 4
#     Node 8, Type 1, BuildingBlock: CEKHIL_clean_sbu_0, # of connection points: 4
#     Node 9, Type 1, BuildingBlock: CEKHIL_clean_sbu_0, # of connection points: 4
#     Node 10, Type 1, BuildingBlock: CEKHIL_clean_sbu_0, # of connection points: 4
#     Node 11, Type 1, BuildingBlock: CEKHIL_clean_sbu_0, # of connection points: 4
#     Edge 12, Type (0, 1), BuildingBlock: XUDNAN_clean_linker_2, # of connection points: 2
#     Edge 13, Type (0, 1), BuildingBlock: XUDNAN_clean_linker_2, # of connection points: 2
#     Edge 14, Type (0, 1), BuildingBlock: XUDNAN_clean_linker_2, # of connection points: 2
#     Edge 15, Type (0, 1), BuildingBlock: XUDNAN_clean_linker_2, # of connection points: 2
#     Edge 16, Type (0, 1), BuildingBlock: XUDNAN_clean_linker_2, # of connection points: 2
#     Edge 17, Type (0, 1), BuildingBlock: XUDNAN_clean_linker_2, # of connection points: 2
#     Edge 18, Type (0, 1), BuildingBlock: XUDNAN_clean_linker_2, # of connection points: 2
#     Edge 19, Type (0, 1), BuildingBlock: XUDNAN_clean_linker_2, # of connection points: 2
#     Edge 20, Type (0, 1), BuildingBlock: XUDNAN_clean_linker_2, # of connection points: 2
#     Edge 21, Type (0, 1), BuildingBlock: XUDNAN_clean_linker_2, # of connection points: 2
#     Edge 22, Type (0, 1), BuildingBlock: XUDNAN_clean_linker_2, # of connection points: 2
#     Edge 23, Type (0, 1), BuildingBlock: XUDNAN_clean_linker_2, # of connection points: 2
#     Edge 24, Type (0, 1), BuildingBlock: XUDNAN_clean_linker_2, # of connection points: 2
#     Edge 25, Type (0, 1), BuildingBlock: XUDNAN_clean_linker_2, # of connection points: 2
#     Edge 26, Type (0, 1), BuildingBlock: XUDNAN_clean_linker_2, # of connection points: 2
#     Edge 27, Type (0, 1), BuildingBlock: XUDNAN_clean_linker_2, # of connection points: 2
#     Edge 28, Type (0, 1), BuildingBlock: XUDNAN_clean_linker_2, # of connection points: 2
#     Edge 29, Type (0, 1), BuildingBlock: XUDNAN_clean_linker_2, # of connection points: 2
#     Edge 30, Type (0, 1), BuildingBlock: XUDNAN_clean_linker_2, # of connection points: 2
#     Edge 31, Type (0, 1), BuildingBlock: XUDNAN_clean_linker_2, # of connection points: 2
#     Edge 32, Type (0, 1), BuildingBlock: XUDNAN_clean_linker_2, # of connection points: 2
#     Edge 33, Type (0, 1), BuildingBlock: XUDNAN_clean_linker_2, # of connection points: 2
#     Edge 34, Type (0, 1), BuildingBlock: XUDNAN_clean_linker_2, # of connection points: 2
#     Edge 35, Type (0, 1), BuildingBlock: XUDNAN_clean_linker_2, # of connection points: 2
# Relax obj value: 0.006
# Max RMSD: 0.109
# Mean RMSD: 0.075
data_MOF--net-nom--node1-CEKHIL_clean_sbu_0--node2-NAWXER_clean_linker_0--edge1-XUDNAN_clean_linker_2
_symmetry_space_group_name_H-M    P1
_symmetry_Int_Tables_number       1
_symmetry_cell_setting            triclinic
loop_
_symmetry_equiv_pos_as_xyz
'x, y, z'
_cell_length_a     52.670667
_cell_length_b     52.051696
_cell_length_c     57.545523
_cell_angle_alpha  89.995153
_cell_angle_beta   89.949627
_cell_angle_gamma 121.21234
loop_
_atom_site_label
_atom_site_type_symbol
_atom_site_fract_x
_atom_site_fract_y
_atom_site_fract_z
_atom_type_partial_charge
C0 C 0.90703 0.52528 0.33699 0.0
C1 C 0.8928 0.50324 0.35426 0.0
C2 C 0.93598 0.53449 0.33004 0.0
C3 C 0.95141 0.5222 0.34051 0.0
C4 C 0.90797 0.49046 0.3644 0.0
C5 C 0.93722 0.50018 0.35781 0.0
C6 C 0.98267 0.53323 0.334 0.0
C7 C 0.92961 0.47248 0.27526 0.0
C8 C 0.93417 0.48593 0.25326 0.0
C9 C 0.94755 0.48862 0.29406 0.0
C10 C 0.9704 0.51875 0.29141 0.0
C11 C 0.95638 0.51635 0.25071 0.0
C12 C 0.97455 0.53252 0.26958 0.0
C13 C 0.99174 0.53453 0.31067 0.0
C14 C 0.11471 0.57548 0.29636 0.0
C15 C 0.13481 0.60451 0.30462 0.0
C16 C 0.0845 0.56139 0.30175 0.0
C17 C 0.07402 0.57576 0.31607 0.0
C18 C 0.12415 0.6194 0.31815 0.0
C19 C 0.09401 0.60503 0.32399 0.0
C20 C 0.04233 0.55989 0.32297 0.0
C21 C 0.06983 0.58119 0.40573 0.0
C22 C 0.09031 0.57149 0.40534 0.0
C23 C 0.05164 0.57663 0.38647 0.0
C24 C 0.05375 0.56261 0.36631 0.0
C25 C 0.09244 0.55763 0.38505 0.0
C26 C 0.0742 0.55295 0.36594 0.0
C27 C 0.03306 0.5559 0.34647 0.0
H28 H 0.89579 0.53551 0.329 0.0
H29 H 0.94658 0.55176 0.31687 0.0
H30 H 0.89751 0.47363 0.37791 0.0
H31 H 0.94875 0.49048 0.36616 0.0
H32 H 0.91261 0.44911 0.27779 0.0
H33 H 0.94432 0.47706 0.31043 0.0
H34 H 0.96058 0.5272 0.2339 0.0
H35 H 0.99223 0.55561 0.267 0.0
H36 H 0.12248 0.56361 0.28587 0.0
H37 H 0.06945 0.53887 0.29539 0.0
H38 H 0.13929 0.64174 0.32478 0.0
H39 H 0.08633 0.61666 0.33484 0.0
H40 H 0.06726 0.59156 0.42115 0.0
H41 H 0.03574 0.58388 0.38739 0.0
H42 H 0.10811 0.55011 0.38395 0.0
H43 H 0.07567 0.54104 0.35107 0.0
N44 N 1.00358 0.54337 0.35106 0.0
N45 N 0.0213 0.54838 0.30601 0.0
C46 C 0.39565 0.89347 0.50998 0.0
C47 C 0.41215 0.88232 0.52035 0.0
C48 C 0.40913 0.92399 0.50453 0.0
C49 C 0.4392 0.94398 0.50971 0.0
C50 C 0.44221 0.9024 0.52567 0.0
C51 C 0.45553 0.93307 0.52066 0.0
C52 C 0.45343 0.97609 0.50335 0.0
C53 C 0.46139 0.93297 0.43852 0.0
C54 C 0.43633 0.92298 0.42417 0.0
C55 C 0.46717 0.95313 0.45662 0.0
C56 C 0.44844 0.96433 0.46059 0.0
C57 C 0.41768 0.93456 0.42815 0.0
C58 C 0.42387 0.95528 0.44607 0.0
C59 C 0.45488 0.98528 0.48013 0.0
C60 C 0.52997 0.11931 0.48138 0.0
C61 C 0.51195 0.12695 0.46867 0.0
C62 C 0.51838 0.08999 0.4898 0.0
C63 C 0.48862 0.06778 0.48561 0.0
C64 C 0.48188 0.10471 0.4653 0.0
C65 C 0.47051 0.07545 0.47338 0.0
C66 C 0.47647 0.03612 0.49261 0.0
C67 C 0.49088 0.08938 0.55839 0.0
C68 C 0.50997 0.08746 0.57445 0.0
C69 C 0.47981 0.06991 0.53929 0.0
C70 C 0.48786 0.04833 0.53573 0.0
C71 C 0.51748 0.06542 0.57103 0.0
C72 C 0.50647 0.04606 0.55196 0.0
C73 C 0.47612 0.02705 0.51588 0.0
H74 H 0.37252 0.87845 0.50556 0.0
H75 H 0.39608 0.93202 0.49622 0.0
H76 H 0.45537 0.89434 0.53374 0.0
H77 H 0.47874 0.94815 0.52482 0.0
H78 H 0.47685 0.92545 0.43574 0.0
H79 H 0.48646 0.96015 0.4675 0.0
H80 H 0.398 0.92725 0.41774 0.0
H81 H 0.40914 0.96369 0.44893 0.0
H82 H 0.55325 0.13564 0.48415 0.0
H83 H 0.53287 0.08445 0.49899 0.0
H84 H 0.46702 0.10979 0.45618 0.0
H85 H 0.44746 0.0587 0.47005 0.0
H86 H 0.48468 0.1061 0.56045 0.0
H87 H 0.46474 0.07157 0.52748 0.0
H88 H 0.5316 0.06284 0.58327 0.0
H89 H 0.51267 0.02934 0.54982 0.0
N90 N 0.46447 0.99728 0.52035 0.0
N91 N 0.46603 0.01487 0.47558 0.0
C92 C 0.54013 0.44846 0.61239 0.0
C93 C 0.52367 0.43581 0.59191 0.0
C94 C 0.52722 0.45343 0.63177 0.0
C95 C 0.49721 0.44509 0.63152 0.0
C96 C 0.49361 0.42747 0.59168 0.0
C97 C 0.48059 0.43212 0.61121 0.0
C98 C 0.48389 0.45238 0.65141 0.0
C99 C 0.50968 0.38937 0.68167 0.0
C100 C 0.52748 0.39915 0.70166 0.0
C101 C 0.49761 0.40581 0.67282 0.0
C102 C 0.50403 0.43303 0.68326 0.0
C103 C 0.53364 0.42604 0.71231 0.0
C104 C 0.52219 0.44287 0.70314 0.0
C105 C 0.48989 0.44991 0.67506 0.0
C106 C 0.42539 0.49943 0.72868 0.0
C107 C 0.44969 0.52476 0.73894 0.0
C108 C 0.43005 0.48267 0.71191 0.0
C109 C 0.45907 0.49097 0.70537 0.0
C110 C 0.47858 0.53211 0.73303 0.0
C111 C 0.4832 0.51522 0.71661 0.0
C112 C 0.46508 0.47568 0.68633 0.0
C113 C 0.42057 0.52263 0.65585 0.0
C114 C 0.39671 0.50433 0.64092 0.0
C115 C 0.44067 0.51403 0.66265 0.0
C116 C 0.4368 0.48642 0.65534 0.0
C117 C 0.39408 0.47762 0.63258 0.0
C118 C 0.41372 0.46876 0.63978 0.0
C119 C 0.45666 0.47558 0.66297 0.0
H120 H 0.5632 0.45485 0.61344 0.0
H121 H 0.541 0.46444 0.64679 0.0
H122 H 0.4803 0.41815 0.57617 0.0
H123 H 0.45755 0.42591 0.61034 0.0
H124 H 0.50419 0.36839 0.67343 0.0
H125 H 0.48261 0.3967 0.65819 0.0
H126 H 0.54722 0.43395 0.72782 0.0
H127 H 0.52728 0.46349 0.7118 0.0
H128 H 0.40291 0.49336 0.73293 0.0
H129 H 0.41111 0.4638 0.70362 0.0
H130 H 0.49767 0.55138 0.74084 0.0
H131 H 0.50574 0.52186 0.71197 0.0
H132 H 0.42355 0.54341 0.66265 0.0
H133 H 0.45911 0.52898 0.67369 0.0
H134 H 0.37683 0.46338 0.62038 0.0
H135 H 0.41057 0.44773 0.63336 0.0
N136 N 0.46678 0.46427 0.64648 0.0
N137 N 0.48099 0.46253 0.69142 0.0
C138 C 0.91347 0.39689 0.8206 0.0
C139 C 0.89946 0.40705 0.80567 0.0
C140 C 0.94227 0.41659 0.82849 0.0
C141 C 0.95777 0.4468 0.82142 0.0
C142 C 0.91471 0.43737 0.79883 0.0
C143 C 0.94388 0.45703 0.80638 0.0
C144 C 0.98889 0.4669 0.82901 0.0
C145 C 0.92974 0.4536 0.88847 0.0
C146 C 0.93277 0.43948 0.90811 0.0
C147 C 0.95114 0.46438 0.87088 0.0
C148 C 0.97548 0.4602 0.8721 0.0
C149 C 0.95788 0.43683 0.91013 0.0
C150 C 0.97903 0.44704 0.89224 0.0
C151 C 0.99732 0.4699 0.85265 0.0
C152 C 0.13078 0.54015 0.85394 0.0
C153 C 0.13628 0.51845 0.86339 0.0
C154 C 0.10226 0.53205 0.84632 0.0
C155 C 0.07866 0.50224 0.84832 0.0
C156 C 0.11244 0.48848 0.86476 0.0
C157 C 0.08397 0.48063 0.85768 0.0
C158 C 0.04814 0.49289 0.84106 0.0
C159 C 0.10124 0.50618 0.77523 0.0
C160 C 0.09892 0.52445 0.75832 0.0
C161 C 0.08252 0.49612 0.79466 0.0
C162 C 0.06144 0.50462 0.79798 0.0
C163 C 0.07778 0.53291 0.76171 0.0
C164 C 0.05923 0.52303 0.78125 0.0
C165 C 0.03992 0.49261 0.8176 0.0
H166 H 0.90217 0.37359 0.82602 0.0
H167 H 0.9527 0.40807 0.83978 0.0
H168 H 0.90438 0.44557 0.78713 0.0
H169 H 0.95555 0.48018 0.80059 0.0
H170 H 0.9107 0.45618 0.88671 0.0
H171 H 0.94845 0.47582 0.85625 0.0
H172 H 0.96061 0.42597 0.92517 0.0
H173 H 0.99775 0.44393 0.89389 0.0
H174 H 0.1483 0.56351 0.85282 0.0
H175 H 0.09853 0.5491 0.83922 0.0
H176 H 0.11564 0.47081 0.87116 0.0
H177 H 0.06607 0.45742 0.85916 0.0
H178 H 0.11737 0.49935 0.77338 0.0
H179 H 0.08406 0.481 0.80667 0.0
H180 H 0.07491 0.54647 0.74894 0.0
H181 H 0.04284 0.52952 0.78318 0.0
N182 N 0.01049 0.47914 0.81248 0.0
N183 N 0.02659 0.48199 0.85768 0.0
C184 C 0.51311 0.89983 1.00048 0.0
C185 C 0.49244 0.88479 0.98263 0.0
C186 C 0.52508 0.93055 0.00413 0.0
C187 C 0.51585 0.9467 0.99052 0.0
C188 C 0.48428 0.90117 0.96829 0.0
C189 C 0.49584 0.93183 0.97222 0.0
C190 C 0.52768 0.97918 0.99474 0.0
C191 C 0.48053 0.93012 0.05987 0.0
C192 C 0.49965 0.93656 0.07892 0.0
C193 C 0.49031 0.94822 0.03996 0.0
C194 C 0.51949 0.97301 0.0386 0.0
C195 C 0.52848 0.96204 0.0778 0.0
C196 C 0.53821 0.98015 0.05792 0.0
C197 C 0.53072 0.99155 0.01717 0.0
C198 C 0.57782 0.12357 0.99721 0.0
C199 C 0.59832 0.13605 0.01566 0.0
C200 C 0.56286 0.0927 0.9926 0.0
C201 C 0.56898 0.07369 0.00562 0.0
C202 C 0.60306 0.11654 0.02943 0.0
C203 C 0.58877 0.0859 0.02437 0.0
C204 C 0.55437 0.04096 1.00072 0.0
C205 C 0.59804 0.08802 0.93294 0.0
C206 C 0.57886 0.07812 0.91372 0.0
C207 C 0.58915 0.07201 0.95393 0.0
C208 C 0.56048 0.04647 0.95631 0.0
C209 C 0.55053 0.05231 0.91592 0.0
C210 C 0.54141 0.03675 0.937 0.0
C211 C 0.55048 0.02849 0.97813 0.0
H212 H 0.52025 0.88786 0.01149 0.0
H213 H 0.54155 0.94162 0.01764 0.0
H214 H 0.46841 0.89011 0.95437 0.0
H215 H 0.48874 0.94383 0.96121 0.0
H216 H 0.45823 0.91066 0.06011 0.0
H217 H 0.47519 0.94261 0.02549 0.0
H218 H 0.54359 0.96799 0.09231 0.0
H219 H 0.56067 0.99936 0.05743 0.0
H220 H 0.57347 0.13758 0.98604 0.0
H221 H 0.54671 0.08383 0.97868 0.0
H222 H 0.61769 0.12474 0.04432 0.0
H223 H 0.59342 0.07172 0.0351 0.0
H224 H 0.62023 0.10751 0.93145 0.0
H225 H 0.60481 0.0794 0.96817 0.0
H226 H 0.53548 0.04411 0.90125 0.0
H227 H 0.51938 0.01694 0.93819 0.0
N228 N 0.53726 0.99812 0.97617 0.0
N229 N 0.5443 0.02188 0.01924 0.0
C230 C 0.53806 0.63652 0.16488 0.0
C231 C 0.51422 0.62584 0.18054 0.0
C232 C 0.54843 0.61799 0.15758 0.0
C233 C 0.53524 0.58836 0.16581 0.0
C234 C 0.50039 0.59592 0.18827 0.0
C235 C 0.51108 0.57745 0.18119 0.0
C236 C 0.54888 0.57027 0.16033 0.0
C237 C 0.5086 0.57418 0.09221 0.0
C238 C 0.52875 0.58871 0.07384 0.0
C239 C 0.51807 0.56819 0.1132 0.0
C240 C 0.54795 0.57679 0.11636 0.0
C241 C 0.55875 0.59788 0.07732 0.0
C242 C 0.56815 0.59179 0.09821 0.0
C243 C 0.55786 0.56812 0.13761 0.0
C244 C 0.61796 0.49769 0.14346 0.0
C245 C 0.64693 0.51907 0.13593 0.0
C246 C 0.5978 0.50652 0.14968 0.0
C247 C 0.60608 0.53678 0.14812 0.0
C248 C 0.65517 0.54951 0.13524 0.0
C249 C 0.63484 0.55813 0.14085 0.0
C250 C 0.58481 0.54657 0.15305 0.0
C251 C 0.61827 0.53415 0.22185 0.0
C252 C 0.59582 0.51493 0.2375 0.0
C253 C 0.61141 0.5445 0.20176 0.0
C254 C 0.58185 0.5354 0.19652 0.0
C255 C 0.56629 0.50632 0.23242 0.0
C256 C 0.55944 0.5165 0.21222 0.0
C257 C 0.5741 0.54666 0.17556 0.0
H258 H 0.54909 0.65946 0.15863 0.0
H259 H 0.56757 0.62728 0.14619 0.0
H260 H 0.48214 0.58724 0.20052 0.0
H261 H 0.50081 0.55482 0.18801 0.0
H262 H 0.48528 0.56644 0.0901 0.0
H263 H 0.50178 0.5559 0.12663 0.0
H264 H 0.57506 0.60965 0.06379 0.0
H265 H 0.59129 0.59867 0.10014 0.0
H266 H 0.61047 0.47402 0.14399 0.0
H267 H 0.57557 0.48968 0.15512 0.0
H268 H 0.67739 0.56691 0.13032 0.0
H269 H 0.64169 0.58164 0.13971 0.0
H270 H 0.64124 0.54119 0.22503 0.0
H271 H 0.62939 0.56007 0.19059 0.0
H272 H 0.54844 0.49209 0.24424 0.0
H273 H 0.53652 0.50956 0.20885 0.0
N274 N 0.55676 0.55882 0.17833 0.0
N275 N 0.57601 0.55695 0.13497 0.0
Co276 Co 0.63562 0.38953 0.41223 0.0
O277 O 0.66587 0.39082 0.39205 0.0
O278 O 0.67395 0.42345 0.41997 0.0
C279 C 0.61166 0.33963 0.41981 0.0
O280 O 0.6124 0.396 0.43753 0.0
Co281 Co 0.56834 0.3535 0.40273 0.0
O282 O 0.56341 0.36358 0.43513 0.0
C283 C 0.60723 0.40794 0.37503 0.0
C284 C 0.68464 0.41497 0.40335 0.0
C285 C 0.58595 0.38435 0.44574 0.0
O286 O 0.62881 0.41477 0.38917 0.0
O287 O 0.58217 0.38326 0.37643 0.0
O288 O 0.63553 0.35816 0.43133 0.0
O289 O 0.60421 0.35151 0.40353 0.0
Co290 Co 0.26174 0.62212 0.57786 0.0
O291 O 0.29097 0.62134 0.59778 0.0
O292 O 0.2594 0.58403 0.57506 0.0
C293 C 0.29228 0.66826 0.56282 0.0
O294 O 0.22998 0.61434 0.55388 0.0
Co295 Co 0.24029 0.66622 0.58417 0.0
O296 O 0.22103 0.65198 0.55331 0.0
C297 C 0.21954 0.61595 0.61696 0.0
C298 C 0.28092 0.59429 0.59004 0.0
C299 C 0.21765 0.62781 0.54481 0.0
O300 O 0.23165 0.60528 0.60382 0.0
O301 O 0.22215 0.64146 0.61316 0.0
O302 O 0.29211 0.64486 0.55472 0.0
O303 O 0.27578 0.66359 0.58094 0.0
Co304 Co 0.64156 0.25558 0.74921 0.0
O305 O 0.63936 0.28667 0.73256 0.0
O306 O 0.60769 0.25747 0.7597 0.0
C307 C 0.6907 0.28296 0.7573 0.0
O308 O 0.63675 0.22199 0.77083 0.0
Co309 Co 0.67995 0.23039 0.73088 0.0
O310 O 0.66782 0.20659 0.75996 0.0
C311 C 0.62402 0.21425 0.70713 0.0
C312 C 0.61585 0.27923 0.74487 0.0
C313 C 0.64828 0.20557 0.77363 0.0
O314 O 0.61691 0.22564 0.72402 0.0
O315 O 0.64934 0.21647 0.70573 0.0
O316 O 0.67187 0.28564 0.77012 0.0
O317 O 0.67964 0.26624 0.73914 0.0
Co318 Co 0.39596 0.63276 0.91162 0.0
O319 O 0.36278 0.63028 0.89518 0.0
O320 O 0.36136 0.59282 0.91452 0.0
C321 C 0.4099 0.67654 0.93 0.0
O322 O 0.42463 0.62689 0.93174 0.0
Co323 Co 0.46041 0.68479 0.90293 0.0
O324 O 0.47066 0.66776 0.92961 0.0
C325 C 0.43006 0.6371 0.86767 0.0
C326 C 0.34735 0.60266 0.90232 0.0
C327 C 0.45199 0.64222 0.93817 0.0
O328 O 0.409 0.62115 0.8822 0.0
O329 O 0.45089 0.66407 0.87199 0.0
O330 O 0.38855 0.65126 0.93824 0.0
O331 O 0.42041 0.6749 0.91013 0.0
Co332 Co 0.77005 0.38809 0.08113 0.0
O333 O 0.74653 0.39545 0.10296 0.0
O334 O 0.78024 0.42938 0.07918 0.0
C335 C 0.73172 0.34491 0.06672 0.0
O336 O 0.7973 0.38918 0.05516 0.0
Co337 Co 0.77594 0.33191 0.08323 0.0
O338 O 0.78842 0.34237 0.05036 0.0
C339 C 0.80937 0.38184 0.11668 0.0
C340 C 0.75979 0.42261 0.09473 0.0
C341 C 0.79925 0.36925 0.04333 0.0
O342 O 0.80144 0.39824 0.1058 0.0
O343 O 0.79999 0.3545 0.11113 0.0
O344 O 0.73678 0.37072 0.05933 0.0
O345 O 0.74837 0.34594 0.08361 0.0
Co346 Co 0.3929 0.75493 0.24935 0.0
O347 O 0.3957 0.72765 0.22808 0.0
O348 O 0.43041 0.7573 0.25323 0.0
C349 C 0.34643 0.72261 0.26207 0.0
O350 O 0.39802 0.78416 0.27513 0.0
Co351 Co 0.34919 0.77659 0.24258 0.0
O352 O 0.36203 0.79508 0.27382 0.0
C353 C 0.40142 0.8009 0.21223 0.0
C354 C 0.4217 0.73704 0.23707 0.0
C355 C 0.38445 0.79666 0.28366 0.0
O356 O 0.41134 0.78799 0.22532 0.0
O357 O 0.37565 0.7973 0.21502 0.0
O358 O 0.36901 0.72197 0.27043 0.0
O359 O 0.35213 0.74077 0.24476 0.0
H360 H 0.17265 0.65791 0.28252 0.0
H361 H 0.16927 0.58216 0.317 0.0
H362 H 0.2232 0.60491 0.31062 0.0
H363 H 0.22476 0.66576 0.23804 0.0
H364 H 0.24385 0.7062 0.23724 0.0
H365 H 0.20523 0.68467 0.24534 0.0
H366 H 0.21728 0.71427 0.28398 0.0
H367 H 0.25595 0.73586 0.27602 0.0
H368 H 0.24499 0.71556 0.30313 0.0
H369 H 0.27721 0.63618 0.3016 0.0
H370 H 0.32778 0.67203 0.2876 0.0
H371 H 0.29641 0.72647 0.25638 0.0
C372 C 0.18342 0.64629 0.28875 0.0
C373 C 0.16702 0.61838 0.30033 0.0
C374 C 0.18157 0.60351 0.30805 0.0
C375 C 0.21214 0.61631 0.30458 0.0
C376 C 0.22774 0.6438 0.29307 0.0
C377 C 0.21391 0.65851 0.28501 0.0
C378 C 0.23577 0.68722 0.27233 0.0
C379 C 0.22687 0.68587 0.24672 0.0
C380 C 0.23866 0.71486 0.2846 0.0
C381 C 0.26404 0.68639 0.27464 0.0
C382 C 0.25887 0.66129 0.28691 0.0
C383 C 0.28151 0.65581 0.29184 0.0
C384 C 0.31019 0.67637 0.28386 0.0
C385 C 0.316 0.70193 0.27079 0.0
C386 C 0.29256 0.70698 0.26615 0.0
H387 H 0.55528 0.18273 0.48594 0.0
H388 H 0.49767 0.14018 0.42641 0.0
H389 H 0.51638 0.18963 0.40859 0.0
H390 H 0.54975 0.24866 0.48775 0.0
H391 H 0.58825 0.27403 0.49487 0.0
H392 H 0.57009 0.23523 0.50364 0.0
H393 H 0.61043 0.22971 0.48251 0.0
H394 H 0.62878 0.26853 0.47374 0.0
H395 H 0.61783 0.23953 0.45219 0.0
H396 H 0.53967 0.24287 0.39734 0.0
H397 H 0.56893 0.29759 0.39193 0.0
H398 H 0.61459 0.30728 0.45711 0.0
C399 C 0.54674 0.18375 0.46909 0.0
C400 C 0.52444 0.15731 0.45788 0.0
C401 C 0.51397 0.15991 0.43581 0.0
C402 C 0.52467 0.18797 0.42538 0.0
C403 C 0.54622 0.21343 0.43699 0.0
C404 C 0.55745 0.21173 0.45821 0.0
C405 C 0.58106 0.24284 0.46658 0.0
C406 C 0.57172 0.25065 0.48957 0.0
C407 C 0.61132 0.24529 0.46888 0.0
C408 C 0.58115 0.26218 0.44674 0.0
C409 C 0.56066 0.24458 0.42999 0.0
C410 C 0.55592 0.25692 0.41024 0.0
C411 C 0.57264 0.2881 0.40738 0.0
C412 C 0.59415 0.30678 0.42404 0.0
C413 C 0.59845 0.29357 0.44401 0.0
H414 H 0.40526 0.56119 0.63408 0.0
H415 H 0.33703 0.46633 0.63278 0.0
H416 H 0.30065 0.47921 0.61962 0.0
H417 H 0.35652 0.58577 0.65698 0.0
H418 H 0.37409 0.6201 0.64036 0.0
H419 H 0.39523 0.60354 0.64935 0.0
H420 H 0.41001 0.6027 0.60653 0.0
H421 H 0.3888 0.61911 0.5974 0.0
H422 H 0.38137 0.58412 0.5849 0.0
H423 H 0.27208 0.50183 0.60441 0.0
H424 H 0.25223 0.53328 0.59145 0.0
H425 H 0.33712 0.61358 0.60618 0.0
C426 C 0.38263 0.54305 0.63138 0.0
C427 C 0.37441 0.51261 0.63413 0.0
C428 C 0.3444 0.48977 0.63014 0.0
C429 C 0.32337 0.49684 0.62285 0.0
C430 C 0.33235 0.52693 0.62003 0.0
C431 C 0.36112 0.54972 0.62449 0.0
C432 C 0.36473 0.58027 0.62047 0.0
C433 C 0.37313 0.59849 0.64314 0.0
C434 C 0.38758 0.59756 0.60118 0.0
C435 C 0.33358 0.571 0.61276 0.0
C436 C 0.31535 0.54009 0.61245 0.0
C437 C 0.28602 0.52606 0.60486 0.0
C438 C 0.27498 0.54408 0.59745 0.0
C439 C 0.29305 0.57579 0.59802 0.0
C440 C 0.32269 0.58937 0.6059 0.0
H441 H 0.848 0.40816 0.80996 0.0
H442 H 0.88407 0.35703 0.78056 0.0
H443 H 0.83452 0.31972 0.7652 0.0
H444 H 0.77832 0.3436 0.82819 0.0
H445 H 0.75662 0.36041 0.82165 0.0
H446 H 0.7951 0.38381 0.82964 0.0
H447 H 0.80548 0.41425 0.79156 0.0
H448 H 0.76701 0.39101 0.7835 0.0
H449 H 0.79565 0.39484 0.76407 0.0
H450 H 0.78194 0.28902 0.75209 0.0
H451 H 0.7285 0.26494 0.74364 0.0
H452 H 0.72487 0.33356 0.78373 0.0
C453 C 0.84535 0.38917 0.80014 0.0
C454 C 0.86973 0.38541 0.79624 0.0
C455 C 0.86556 0.36017 0.78365 0.0
C456 C 0.83757 0.33894 0.77487 0.0
C457 C 0.81389 0.3431 0.77911 0.0
C458 C 0.81734 0.3674 0.79159 0.0
C459 C 0.78791 0.36589 0.79423 0.0
C460 C 0.77897 0.36327 0.81996 0.0
C461 C 0.78909 0.39311 0.78264 0.0
C462 C 0.76749 0.33708 0.78113 0.0
C463 C 0.78307 0.3245 0.77241 0.0
C464 C 0.76943 0.2985 0.75898 0.0
C465 C 0.73907 0.285 0.75425 0.0
C466 C 0.72251 0.29723 0.76319 0.0
C467 C 0.73692 0.32351 0.77695 0.0
H468 H 0.48793 0.85472 0.94217 0.0
H469 H 0.46694 0.84098 0.01569 0.0
H470 H 0.44405 0.78616 0.01042 0.0
H471 H 0.42197 0.7891 0.92149 0.0
H472 H 0.44077 0.78123 0.89895 0.0
H473 H 0.45536 0.81929 0.90854 0.0
H474 H 0.5059 0.82423 0.91758 0.0
H475 H 0.49144 0.78616 0.90804 0.0
H476 H 0.50707 0.79744 0.93672 0.0
H477 H 0.42151 0.73268 0.99674 0.0
H478 H 0.40346 0.68459 0.97606 0.0
H479 H 0.44157 0.73336 0.91187 0.0
C480 C 0.47842 0.8401 0.95711 0.0
C481 C 0.47908 0.85198 0.97933 0.0
C482 C 0.46677 0.83227 0.99855 0.0
C483 C 0.45366 0.80114 0.99571 0.0
C484 C 0.45337 0.79012 0.97357 0.0
C485 C 0.46566 0.80901 0.95464 0.0
C486 C 0.46289 0.79145 0.93281 0.0
C487 C 0.44412 0.79551 0.91436 0.0
C488 C 0.49366 0.80035 0.92323 0.0
C489 C 0.44684 0.75972 0.94236 0.0
C490 C 0.44138 0.75943 0.96589 0.0
C491 C 0.42588 0.73265 0.97837 0.0
C492 C 0.41567 0.70547 0.96648 0.0
C493 C 0.42131 0.7053 0.94244 0.0
C494 C 0.43726 0.73284 0.93033 0.0
H495 H 0.65232 0.4714 0.15139 0.0
H496 H 0.68956 0.54513 0.10175 0.0
H497 H 0.72529 0.53122 0.08906 0.0
H498 H 0.72025 0.47339 0.16588 0.0
H499 H 0.70289 0.4331 0.16663 0.0
H500 H 0.68161 0.45022 0.17365 0.0
H501 H 0.64312 0.41826 0.14197 0.0
H502 H 0.66412 0.40087 0.13502 0.0
H503 H 0.6555 0.41933 0.11258 0.0
H504 H 0.75661 0.50916 0.08087 0.0
H505 H 0.77783 0.47712 0.07494 0.0
H506 H 0.7182 0.41521 0.1274 0.0
C507 C 0.66786 0.48466 0.1378 0.0
C508 C 0.66826 0.50992 0.12807 0.0
C509 C 0.68921 0.52641 0.11027 0.0
C510 C 0.70959 0.51856 0.10273 0.0
C511 C 0.70868 0.49381 0.11282 0.0
C512 C 0.68812 0.47682 0.12973 0.0
C513 C 0.69063 0.45003 0.1365 0.0
C514 C 0.69937 0.4518 0.16219 0.0
C515 C 0.66162 0.42037 0.13119 0.0
C516 C 0.71562 0.45454 0.12058 0.0
C517 C 0.72598 0.48022 0.10734 0.0
C518 C 0.7487 0.489 0.09114 0.0
C519 C 0.7607 0.47068 0.08795 0.0
C520 C 0.74974 0.44366 0.10069 0.0
C521 C 0.72718 0.4358 0.11747 0.0
H522 H 0.36055 0.84492 0.54412 0.0
H523 H 0.43246 0.84617 0.50637 0.0
H524 H 0.4088 0.79136 0.51227 0.0
H525 H 0.35276 0.7908 0.58733 0.0
H526 H 0.31295 0.77279 0.58916 0.0
H527 H 0.3351 0.81192 0.5814 0.0
H528 H 0.30448 0.80137 0.54364 0.0
H529 H 0.28232 0.76218 0.55123 0.0
H530 H 0.30137 0.77319 0.52368 0.0
H531 H 0.37653 0.73641 0.52097 0.0
H532 H 0.34039 0.68547 0.53512 0.0
H533 H 0.29062 0.71986 0.56946 0.0
C534 C 0.37122 0.83355 0.5371 0.0
C535 C 0.39828 0.84965 0.52473 0.0
C536 C 0.41183 0.83421 0.51599 0.0
C537 C 0.39847 0.8031 0.51916 0.0
C538 C 0.37174 0.78784 0.53134 0.0
C539 C 0.35843 0.80256 0.54045 0.0
C540 C 0.33027 0.78095 0.55359 0.0
C541 C 0.33294 0.78964 0.5794 0.0
C542 C 0.303 0.77933 0.54236 0.0
C543 C 0.32979 0.75178 0.55036 0.0
C544 C 0.35374 0.75626 0.53722 0.0
C545 C 0.35781 0.73266 0.5314 0.0
C546 C 0.33708 0.70378 0.53946 0.0
C547 C 0.31278 0.69872 0.55348 0.0
C548 C 0.30909 0.72309 0.55891 0.0
H549 H 0.56248 0.3804 0.68164 0.0
H550 H 0.51655 0.37603 0.7454 0.0
H551 H 0.53316 0.34385 0.76314 0.0
H552 H 0.54866 0.30496 0.6828 0.0
H553 H 0.58496 0.31544 0.67211 0.0
H554 H 0.5687 0.33729 0.66418 0.0
H555 H 0.61485 0.3853 0.68021 0.0
H556 H 0.63129 0.36362 0.68812 0.0
H557 H 0.62644 0.38577 0.70975 0.0
H558 H 0.55321 0.31063 0.77334 0.0
H559 H 0.57929 0.28267 0.77673 0.0
H560 H 0.61538 0.31165 0.7074 0.0
C561 C 0.55593 0.37254 0.69931 0.0
C562 C 0.53815 0.38046 0.7122 0.0
C563 C 0.53023 0.37018 0.73534 0.0
C564 C 0.53945 0.35184 0.74549 0.0
C565 C 0.55695 0.34436 0.73235 0.0
C566 C 0.56546 0.3547 0.70987 0.0
C567 C 0.58538 0.34438 0.69991 0.0
C568 C 0.57106 0.32432 0.67848 0.0
C569 C 0.61632 0.37138 0.69417 0.0
C570 C 0.58659 0.32649 0.72023 0.0
C571 C 0.56972 0.32645 0.73866 0.0
C572 C 0.56668 0.31071 0.7591 0.0
C573 C 0.58148 0.29482 0.76084 0.0
C574 C 0.59949 0.29518 0.74242 0.0
C575 C 0.602 0.31124 0.72187 0.0
H576 H 0.19171 0.56305 0.84729 0.0
H577 H 0.14969 0.49334 0.89996 0.0
H578 H 0.19874 0.505 0.91342 0.0
H579 H 0.2538 0.55462 0.83464 0.0
H580 H 0.28005 0.59438 0.83216 0.0
H581 H 0.24149 0.57949 0.82539 0.0
H582 H 0.23945 0.61565 0.85522 0.0
H583 H 0.27804 0.63083 0.86192 0.0
H584 H 0.25071 0.61577 0.88481 0.0
H585 H 0.25238 0.52353 0.92111 0.0
H586 H 0.30696 0.55166 0.9253 0.0
H587 H 0.31446 0.6123 0.87031 0.0
C588 C 0.19265 0.55031 0.86178 0.0
C589 C 0.1664 0.52672 0.87211 0.0
C590 C 0.16912 0.51076 0.89104 0.0
C591 C 0.197 0.51737 0.89901 0.0
C592 C 0.22223 0.5404 0.88824 0.0
C593 C 0.22038 0.55698 0.8703 0.0
C594 C 0.25104 0.58167 0.86263 0.0
C595 C 0.25693 0.57726 0.83719 0.0
C596 C 0.25504 0.61282 0.86638 0.0
C597 C 0.27034 0.57637 0.87912 0.0
C598 C 0.25326 0.55215 0.89351 0.0
C599 C 0.266 0.54264 0.91002 0.0
C600 C 0.29703 0.55866 0.9122 0.0
C601 C 0.31495 0.58419 0.89819 0.0
C602 C 0.30134 0.59292 0.88131 0.0
H603 H 0.65451 0.17153 0.03438 0.0
H604 H 0.57934 0.17613 0.00867 0.0
H605 H 0.60648 0.2304 0.01671 0.0
H606 H 0.66884 0.22062 0.08262 0.0
H607 H 0.70852 0.2372 0.08122 0.0
H608 H 0.68425 0.19922 0.07145 0.0
H609 H 0.7105 0.21307 0.03134 0.0
H610 H 0.73475 0.25117 0.04094 0.0
H611 H 0.71284 0.2438 0.01502 0.0
H612 H 0.64231 0.28483 0.02746 0.0
H613 H 0.68175 0.33352 0.04348 0.0
H614 H 0.73036 0.29163 0.06617 0.0
C615 C 0.64338 0.18362 0.03061 0.0
C616 C 0.61462 0.16909 0.02062 0.0
C617 C 0.60154 0.18646 0.01571 0.0
C618 C 0.61673 0.21742 0.0204 0.0
C619 C 0.64486 0.23077 0.03034 0.0
C620 C 0.65787 0.21432 0.03566 0.0
C621 C 0.68758 0.23361 0.04752 0.0
C622 C 0.68726 0.22197 0.07216 0.0
C623 C 0.71291 0.23552 0.03282 0.0
C624 C 0.68918 0.26348 0.04817 0.0
C625 C 0.66459 0.26155 0.03779 0.0
C626 C 0.66154 0.28652 0.03577 0.0
C627 C 0.68406 0.31407 0.04484 0.0
C628 C 0.70892 0.31623 0.05619 0.0
C629 C 0.71146 0.29058 0.05778 0.0
H630 H 0.4582 0.61771 0.18296 0.0
H631 H 0.55055 0.68093 0.19948 0.0
H632 H 0.53689 0.71617 0.21548 0.0
H633 H 0.44095 0.67362 0.16499 0.0
H634 H 0.40401 0.65388 0.17706 0.0
H635 H 0.42084 0.63323 0.16728 0.0
H636 H 0.41222 0.60844 0.20785 0.0
H637 H 0.39533 0.62899 0.21774 0.0
H638 H 0.42639 0.63188 0.23331 0.0
H639 H 0.51329 0.74379 0.23085 0.0
H640 H 0.48144 0.76338 0.24278 0.0
H641 H 0.40449 0.68381 0.21456 0.0
C642 C 0.47545 0.63895 0.19003 0.0
C643 C 0.50544 0.64667 0.18999 0.0
C644 C 0.5275 0.67474 0.19918 0.0
C645 C 0.51994 0.69483 0.20838 0.0
C646 C 0.49024 0.68667 0.20808 0.0
C647 C 0.46833 0.65954 0.199 0.0
C648 C 0.4382 0.65669 0.20037 0.0
C649 C 0.42524 0.65422 0.17597 0.0
C650 C 0.41678 0.62991 0.21573 0.0
C651 C 0.44661 0.68636 0.21178 0.0
C652 C 0.47672 0.70317 0.21622 0.0
C653 C 0.4897 0.73094 0.22731 0.0
C654 C 0.47143 0.74186 0.23406 0.0
C655 C 0.44057 0.72523 0.22946 0.0
C656 C 0.42808 0.69717 0.21806 0.0
H657 H 0.84168 0.44746 0.35482 0.0
H658 H 0.87686 0.54092 0.37246 0.0
H659 H 0.82753 0.52826 0.38709 0.0
H660 H 0.77048 0.43352 0.33437 0.0
H661 H 0.74987 0.39568 0.34549 0.0
H662 H 0.78812 0.41182 0.33703 0.0
H663 H 0.80052 0.40057 0.37794 0.0
H664 H 0.76231 0.38441 0.38653 0.0
H665 H 0.79137 0.4146 0.40326 0.0
H666 H 0.77539 0.5054 0.40121 0.0
H667 H 0.72224 0.47447 0.4112 0.0
H668 H 0.71905 0.39604 0.38189 0.0
C669 C 0.83886 0.46514 0.36184 0.0
C670 C 0.86296 0.49515 0.36267 0.0
C671 C 0.85857 0.51784 0.37168 0.0
C672 C 0.8307 0.51084 0.38007 0.0
C673 C 0.80734 0.48109 0.379 0.0
C674 C 0.81095 0.45861 0.36988 0.0
C675 C 0.78182 0.42865 0.37011 0.0
C676 C 0.772 0.41672 0.34527 0.0
C677 C 0.78416 0.40571 0.38537 0.0
C678 C 0.76137 0.43778 0.38096 0.0
C679 C 0.77672 0.46809 0.38616 0.0
C680 C 0.76307 0.4817 0.39704 0.0
C681 C 0.7329 0.46392 0.40271 0.0
C682 C 0.71651 0.43294 0.3972 0.0
C683 C 0.73096 0.41975 0.38607 0.0
H684 H 0.11781 0.61907 0.43622 0.0
H685 H 0.10405 0.53079 0.42196 0.0
H686 H 0.13517 0.53592 0.45561 0.0
H687 H 0.19357 0.65384 0.45479 0.0
H688 H 0.19004 0.67561 0.47753 0.0
H689 H 0.16668 0.66524 0.45221 0.0
H690 H 0.11991 0.64027 0.47844 0.0
H691 H 0.14314 0.65064 0.50386 0.0
H692 H 0.11488 0.6119 0.49904 0.0
H693 H 0.16823 0.55057 0.49044 0.0
H694 H 0.20011 0.57333 0.52477 0.0
H695 H 0.19159 0.65164 0.51754 0.0
C696 C 0.12111 0.6007 0.44027 0.0
C697 C 0.10862 0.57463 0.42617 0.0
C698 C 0.1138 0.55127 0.43208 0.0
C699 C 0.13131 0.55386 0.45131 0.0
C700 C 0.14345 0.57988 0.46466 0.0
C701 C 0.13851 0.60286 0.45951 0.0
C702 C 0.15418 0.62841 0.47681 0.0
C703 C 0.1775 0.65749 0.4646 0.0
C704 C 0.13168 0.63307 0.49034 0.0
C705 C 0.16871 0.61618 0.49242 0.0
C706 C 0.16225 0.58818 0.48504 0.0
C707 C 0.17338 0.57246 0.49644 0.0
C708 C 0.19154 0.58565 0.51595 0.0
C709 C 0.19842 0.6143 0.52401 0.0
C710 C 0.18673 0.62967 0.51197 0.0
H711 H 0.56627 0.11458 0.59243 0.0
H712 H 0.48103 0.1071 0.60257 0.0
H713 H 0.501 0.14015 0.63701 0.0
H714 H 0.58146 0.11147 0.65227 0.0
H715 H 0.62075 0.13788 0.64944 0.0
H716 H 0.59998 0.11494 0.62506 0.0
H717 H 0.61816 0.16276 0.59996 0.0
H718 H 0.639 0.18585 0.62428 0.0
H719 H 0.61211 0.19196 0.61003 0.0
H720 H 0.53051 0.17302 0.67164 0.0
H721 H 0.56669 0.20256 0.70259 0.0
H722 H 0.63158 0.18701 0.66929 0.0
C723 C 0.55169 0.11974 0.6019 0.0
C724 C 0.52203 0.10815 0.59475 0.0
C725 C 0.50393 0.11596 0.60751 0.0
C726 C 0.51503 0.1346 0.62718 0.0
C727 C 0.54431 0.14534 0.63386 0.0
C728 C 0.56235 0.1382 0.62151 0.0
C729 C 0.59278 0.15204 0.63239 0.0
C730 C 0.5991 0.12763 0.64026 0.0
C731 C 0.61693 0.17449 0.61567 0.0
C732 C 0.58905 0.16789 0.65294 0.0
C733 C 0.56103 0.16394 0.65355 0.0
C734 C 0.55255 0.17631 0.67126 0.0
C735 C 0.57325 0.19305 0.68879 0.0
C736 C 0.60206 0.19719 0.6885 0.0
C737 C 0.60984 0.18443 0.67017 0.0
H738 H 0.41742 0.51103 0.77977 0.0
H739 H 0.47323 0.58448 0.73311 0.0
H740 H 0.4702 0.62008 0.75956 0.0
H741 H 0.37007 0.54043 0.79963 0.0
H742 H 0.36843 0.52808 0.82915 0.0
H743 H 0.37221 0.50758 0.8055 0.0
H744 H 0.41956 0.51371 0.82458 0.0
H745 H 0.41595 0.53423 0.84823 0.0
H746 H 0.44989 0.55081 0.83165 0.0
H747 H 0.46476 0.64815 0.7917 0.0
H748 H 0.45794 0.66791 0.82843 0.0
H749 H 0.4057 0.57714 0.85565 0.0
C750 C 0.42845 0.53453 0.77501 0.0
C751 C 0.44549 0.54509 0.75439 0.0
C752 C 0.46015 0.57604 0.74886 0.0
C753 C 0.45844 0.59637 0.76371 0.0
C754 C 0.44198 0.58546 0.7841 0.0
C755 C 0.42719 0.55532 0.78986 0.0
C756 C 0.41283 0.55012 0.8137 0.0
C757 C 0.37886 0.53038 0.81188 0.0
C758 C 0.42531 0.53641 0.83053 0.0
C759 C 0.42243 0.58211 0.82057 0.0
C760 C 0.43896 0.60197 0.80304 0.0
C761 C 0.45161 0.63283 0.80548 0.0
C762 C 0.44768 0.64383 0.8265 0.0
C763 C 0.43124 0.62413 0.84498 0.0
C764 C 0.41802 0.59275 0.84177 0.0
H765 H 0.93473 0.45543 0.95395 0.0
H766 H 0.8767 0.39304 0.90135 0.0
H767 H 0.83587 0.36915 0.93008 0.0
H768 H 0.9077 0.40459 1.00236 0.0
H769 H 0.90996 0.43188 0.02285 0.0
H770 H 0.93469 0.44392 0.99826 0.0
H771 H 0.91702 0.47999 0.98588 0.0
H772 H 0.89217 0.46801 0.01042 0.0
H773 H 0.87798 0.46533 0.98147 0.0
H774 H 0.80265 0.35007 0.96484 0.0
H775 H 0.77749 0.33918 1.003 0.0
H776 H 0.85508 0.41654 0.03267 0.0
C777 C 0.91338 0.43672 0.94862 0.0
C778 C 0.9087 0.4258 0.92558 0.0
C779 C 0.88053 0.40156 0.91898 0.0
C780 C 0.8573 0.3879 0.93515 0.0
C781 C 0.8625 0.39913 0.95775 0.0
C782 C 0.88969 0.4232 0.96447 0.0
C783 C 0.88906 0.43116 0.98977 0.0
C784 C 0.91169 0.42767 0.00415 0.0
C785 C 0.89437 0.46302 0.99201 0.0
C786 C 0.85743 0.40753 0.99628 0.0
C787 C 0.84264 0.38914 0.97756 0.0
C788 C 0.81382 0.36457 0.97953 0.0
C789 C 0.79974 0.35853 1.00122 0.0
C790 C 0.81423 0.37729 0.02053 0.0
C791 C 0.84334 0.40228 0.01798 0.0
H792 H 0.44552 0.9096 0.10148 0.0
H793 H 0.53175 0.91762 0.10309 0.0
H794 H 0.51611 0.88422 0.13728 0.0
H795 H 0.43569 0.90887 0.16343 0.0
H796 H 0.39641 0.88173 0.16251 0.0
H797 H 0.41434 0.90634 0.13813 0.0
H798 H 0.39475 0.86028 0.11088 0.0
H799 H 0.37673 0.83552 0.13517 0.0
H800 H 0.40266 0.83129 0.11756 0.0
H801 H 0.49104 0.84949 0.17101 0.0
H802 H 0.45861 0.81644 0.2023 0.0
H803 H 0.38841 0.83075 0.179 0.0
C804 C 0.46106 0.90419 0.10893 0.0
C805 C 0.48996 0.9164 0.09961 0.0
C806 C 0.50968 0.90897 0.11009 0.0
C807 C 0.50094 0.88985 0.12945 0.0
C808 C 0.47237 0.87828 0.13821 0.0
C809 C 0.45272 0.88518 0.12835 0.0
C810 C 0.42334 0.86983 0.14127 0.0
C811 C 0.41709 0.89308 0.15197 0.0
C812 C 0.39787 0.84793 0.12526 0.0
C813 C 0.42954 0.85319 0.1599 0.0
C814 C 0.45795 0.85835 0.15778 0.0
C815 C 0.46876 0.84532 0.17287 0.0
C816 C 0.4501 0.82654 0.19062 0.0
C817 C 0.42086 0.82092 0.19327 0.0
C818 C 0.4106 0.83455 0.17759 0.0
H819 H 0.5636 0.45933 0.25846 0.0
H820 H 0.64463 0.54626 0.26588 0.0
H821 H 0.65687 0.52845 0.30145 0.0
H822 H 0.54582 0.44802 0.31949 0.0
H823 H 0.53118 0.40814 0.31825 0.0
H824 H 0.52931 0.42758 0.29303 0.0
H825 H 0.55697 0.40757 0.26881 0.0
H826 H 0.55897 0.38812 0.29397 0.0
H827 H 0.59242 0.41441 0.27868 0.0
H828 H 0.66032 0.50073 0.33655 0.0
H829 H 0.65399 0.46586 0.36833 0.0
H830 H 0.56975 0.39814 0.33849 0.0
C831 C 0.58381 0.47481 0.26762 0.0
C832 C 0.60318 0.50423 0.25915 0.0
C833 C 0.62962 0.52345 0.27165 0.0
C834 C 0.6367 0.51361 0.29202 0.0
C835 C 0.61708 0.4845 0.29983 0.0
C836 C 0.59112 0.46544 0.28804 0.0
C837 C 0.57362 0.43534 0.30017 0.0
C838 C 0.54318 0.42944 0.30822 0.0
C839 C 0.57031 0.40986 0.28447 0.0
C840 C 0.59376 0.44042 0.32064 0.0
C841 C 0.61879 0.46885 0.32013 0.0
C842 C 0.64073 0.47844 0.33715 0.0
C843 C 0.63695 0.45845 0.35514 0.0
C844 C 0.61131 0.42923 0.35608 0.0
C845 C 0.58953 0.42032 0.33849 0.0
H846 H 0.41044 0.91784 0.38104 0.0
H847 H 0.4468 0.87636 0.4246 0.0
H848 H 0.4389 0.84108 0.39314 0.0
H849 H 0.35203 0.84754 0.35629 0.0
H850 H 0.35415 0.86377 0.32815 0.0
H851 H 0.36361 0.88667 0.35387 0.0
H852 H 0.4151 0.92422 0.33618 0.0
H853 H 0.40589 0.90134 0.31048 0.0
H854 H 0.43886 0.91083 0.32673 0.0
H855 H 0.4291 0.81147 0.35644 0.0
H856 H 0.4133 0.78623 0.31832 0.0
H857 H 0.37902 0.84343 0.29976 0.0
C858 C 0.41644 0.90116 0.38419 0.0
C859 C 0.42983 0.90051 0.40537 0.0
C860 C 0.43743 0.87822 0.40842 0.0
C861 C 0.43279 0.8578 0.39067 0.0
C862 C 0.42 0.85941 0.37 0.0
C863 C 0.41148 0.88018 0.36678 0.0
C864 C 0.39734 0.87645 0.34309 0.0
C865 C 0.36485 0.86811 0.3455 0.0
C866 C 0.41538 0.90491 0.32825 0.0
C867 C 0.39941 0.85045 0.3335 0.0
C868 C 0.41289 0.84122 0.34922 0.0
C869 C 0.41826 0.8183 0.34405 0.0
C870 C 0.40935 0.8042 0.32232 0.0
C871 C 0.3948 0.81274 0.30612 0.0
C872 C 0.38981 0.8362 0.31187 0.0
H873 H 0.49982 0.39046 0.55885 0.0
H874 H 0.58044 0.47428 0.57635 0.0
H875 H 0.60491 0.46935 0.54168 0.0
H876 H 0.53481 0.3521 0.53584 0.0
H877 H 0.50842 0.3342 0.5126 0.0
H878 H 0.4972 0.34361 0.53928 0.0
H879 H 0.47961 0.3743 0.5162 0.0
H880 H 0.49072 0.36494 0.48944 0.0
H881 H 0.50517 0.40373 0.49691 0.0
H882 H 0.62098 0.45565 0.5053 0.0
H883 H 0.62714 0.43492 0.46875 0.0
H884 H 0.53559 0.36108 0.47326 0.0
C885 C 0.52256 0.40792 0.55536 0.0
C886 C 0.53821 0.4326 0.57069 0.0
C887 C 0.56806 0.45474 0.56538 0.0
C888 C 0.58215 0.4523 0.54556 0.0
C889 C 0.56613 0.42771 0.53096 0.0
C890 C 0.53696 0.40598 0.53549 0.0
C891 C 0.52469 0.38212 0.51663 0.0
C892 C 0.51576 0.35118 0.5267 0.0
C893 C 0.4985 0.38123 0.50405 0.0
C894 C 0.55155 0.3939 0.50083 0.0
C895 C 0.57523 0.42014 0.50954 0.0
C896 C 0.60257 0.43515 0.49827 0.0
C897 C 0.60584 0.42311 0.47748 0.0
C898 C 0.58186 0.39635 0.46798 0.0
C899 C 0.55434 0.38163 0.47993 0.0
H900 H 0.12417 0.5784 0.73439 0.0
H901 H 0.11544 0.49071 0.73303 0.0
H902 H 0.14569 0.50498 0.69741 0.0
H903 H 0.11798 0.58409 0.6724 0.0
H904 H 0.14454 0.62389 0.67137 0.0
H905 H 0.12293 0.60727 0.69729 0.0
H906 H 0.17123 0.62919 0.72149 0.0
H907 H 0.19299 0.64588 0.69565 0.0
H908 H 0.1993 0.621 0.71316 0.0
H909 H 0.17655 0.52833 0.66183 0.0
H910 H 0.2056 0.559 0.6284 0.0
H911 H 0.19323 0.63123 0.65166 0.0
C912 C 0.12844 0.56209 0.72657 0.0
C913 C 0.11752 0.53345 0.7368 0.0
C914 C 0.12399 0.513 0.72597 0.0
C915 C 0.141 0.52081 0.70557 0.0
C916 C 0.15135 0.54912 0.69601 0.0
C917 C 0.14529 0.56945 0.70608 0.0
C918 C 0.15884 0.5983 0.69203 0.0
C919 C 0.13462 0.60369 0.68272 0.0
C920 C 0.18196 0.62518 0.70645 0.0
C921 C 0.17343 0.59096 0.67249 0.0
C922 C 0.16885 0.56249 0.6752 0.0
C923 C 0.18025 0.55065 0.65951 0.0
C924 C 0.19677 0.56833 0.64053 0.0
C925 C 0.20177 0.59763 0.63723 0.0
C926 C 0.18981 0.60895 0.65354 0.0
H927 H 0.59573 0.13619 0.90191 0.0
H928 H 0.58432 0.05348 0.87404 0.0
H929 H 0.6008 0.07733 0.83543 0.0
H930 H 0.56807 0.15483 0.85087 0.0
H931 H 0.59379 0.19473 0.85316 0.0
H932 H 0.58213 0.17168 0.87891 0.0
H933 H 0.63702 0.19118 0.88928 0.0
H934 H 0.64886 0.21433 0.86358 0.0
H935 H 0.66054 0.18775 0.8683 0.0
H936 H 0.62019 0.11018 0.80062 0.0
H937 H 0.63811 0.1492 0.77028 0.0
H938 H 0.63354 0.21026 0.81905 0.0
C939 C 0.59688 0.12329 0.88762 0.0
C940 C 0.58899 0.09309 0.89083 0.0
C941 C 0.59032 0.07663 0.87181 0.0
C942 C 0.59968 0.09 0.84989 0.0
C943 C 0.60722 0.11974 0.84718 0.0
C944 C 0.60565 0.13617 0.8654 0.0
C945 C 0.61414 0.16748 0.85741 0.0
C946 C 0.58797 0.17246 0.86026 0.0
C947 C 0.64178 0.19161 0.87042 0.0
C948 C 0.62091 0.16609 0.83192 0.0
C949 C 0.61705 0.13839 0.82657 0.0
C950 C 0.62305 0.13186 0.80452 0.0
C951 C 0.63331 0.15421 0.78743 0.0
C952 C 0.63704 0.18264 0.79228 0.0
C953 C 0.63051 0.18857 0.81481 0.0
H954 H 0.48705 0.6047 0.06461 0.0
H955 H 0.54703 0.58259 0.03071 0.0
H956 H 0.53193 0.59152 0.99256 0.0
H957 H 0.42797 0.56948 0.02098 0.0
H958 H 0.41859 0.59814 0.0231 0.0
H959 H 0.43344 0.58927 0.04797 0.0
H960 H 0.47552 0.64505 0.05113 0.0
H961 H 0.46082 0.65409 0.0263 0.0
H962 H 0.49889 0.66342 0.02628 0.0
H963 H 0.51305 0.60583 0.95821 0.0
H964 H 0.49022 0.62344 0.92969 0.0
H965 H 0.4401 0.63355 0.98491 0.0
C966 C 0.49673 0.60134 0.04917 0.0
C967 C 0.51854 0.59323 0.05081 0.0
C968 C 0.53082 0.58943 0.03007 0.0
C969 C 0.52217 0.59418 0.00824 0.0
C970 C 0.50094 0.60245 0.00727 0.0
C971 C 0.4882 0.60584 0.02713 0.0
C972 C 0.46631 0.61555 0.02112 0.0
C973 C 0.4347 0.59168 0.02875 0.0
C974 C 0.47597 0.64636 0.03184 0.0
C975 C 0.46906 0.61742 0.99482 0.0
C976 C 0.48921 0.60977 0.98725 0.0
C977 C 0.4969 0.61142 0.96388 0.0
C978 C 0.48387 0.6214 0.94782 0.0
C979 C 0.46312 0.62921 0.95515 0.0
C980 C 0.4554 0.62696 0.97889 0.0
H981 H 0.90517 0.49822 0.21879 0.0
H982 H 0.92577 0.43156 0.24158 0.0
H983 H 0.89761 0.3992 0.20857 0.0
H984 H 0.83049 0.44559 0.20063 0.0
H985 H 0.83147 0.46698 0.17565 0.0
H986 H 0.85433 0.48591 0.20053 0.0
H987 H 0.90105 0.51075 0.17427 0.0
H988 H 0.87831 0.49189 0.1493 0.0
H989 H 0.90915 0.48744 0.15638 0.0
H990 H 0.86707 0.37364 0.17424 0.0
H991 H 0.83431 0.35498 0.14033 0.0
H992 H 0.83173 0.43715 0.13872 0.0
C993 C 0.90389 0.47691 0.21665 0.0
C994 C 0.91752 0.4673 0.23284 0.0
C995 C 0.91518 0.43918 0.2296 0.0
C996 C 0.89939 0.42072 0.21082 0.0
C997 C 0.88596 0.43061 0.19535 0.0
C998 C 0.88789 0.45795 0.19798 0.0
C999 C 0.87038 0.46245 0.17906 0.0
C1000 C 0.84517 0.4654 0.1896 0.0
C1001 C 0.89096 0.48976 0.16385 0.0
C1002 C 0.85826 0.43328 0.16556 0.0
C1003 C 0.86778 0.41546 0.17531 0.0
C1004 C 0.85947 0.38737 0.16639 0.0
C1005 C 0.84072 0.37696 0.14706 0.0
C1006 C 0.83022 0.39448 0.1367 0.0
C1007 C 0.83937 0.4232 0.14609 0.0
loop_
_geom_bond_atom_site_label_1
_geom_bond_atom_site_label_2
_geom_bond_distance
_geom_bond_site_symmetry_2
_ccdc_geom_bond_type
C0 C1 1.384 . S
C0 C2 1.384 . S
C0 H28 0.931 . S
C1 C0 1.384 . S
C1 C4 1.382 . S
C2 C0 1.384 . S
C2 C3 1.381 . S
C2 H29 0.930 . S
C3 C2 1.381 . S
C3 C5 1.381 . S
C3 C6 1.487 . S
C4 C1 1.382 . S
C4 C5 1.387 . S
C4 H30 0.930 . S
C5 C3 1.381 . S
C5 C4 1.387 . S
C5 H31 0.931 . S
C6 C3 1.487 . S
C6 C13 1.399 . S
C6 N44 1.343 1_655 S
C7 C8 1.384 . S
C7 C9 1.384 . S
C7 H32 0.931 . S
C8 C7 1.384 . S
C8 C11 1.382 . S
C9 C7 1.384 . S
C9 C10 1.381 . S
C9 H33 0.930 . S
C10 C9 1.381 . S
C10 C12 1.381 . S
C10 C13 1.487 . S
C11 C8 1.382 . S
C11 C12 1.387 . S
C11 H34 0.930 . S
C12 C10 1.381 . S
C12 C11 1.387 . S
C12 H35 0.931 . S
C13 C6 1.399 . S
C13 C10 1.487 . S
C13 N45 1.343 1_655 S
C14 C15 1.384 . S
C14 C16 1.384 . S
C14 H36 0.931 . S
C15 C14 1.384 . S
C15 C18 1.382 . S
C16 C14 1.384 . S
C16 C17 1.381 . S
C16 H37 0.930 . S
C17 C16 1.381 . S
C17 C19 1.381 . S
C17 C20 1.487 . S
C18 C15 1.382 . S
C18 C19 1.387 . S
C18 H38 0.930 . S
C19 C17 1.381 . S
C19 C18 1.387 . S
C19 H39 0.931 . S
C20 C17 1.487 . S
C20 C27 1.399 . S
C20 N45 1.343 . S
C21 C22 1.384 . S
C21 C23 1.384 . S
C21 H40 0.931 . S
C22 C21 1.384 . S
C22 C25 1.382 . S
C23 C21 1.384 . S
C23 C24 1.381 . S
C23 H41 0.930 . S
C24 C23 1.381 . S
C24 C26 1.381 . S
C24 C27 1.487 . S
C25 C22 1.382 . S
C25 C26 1.387 . S
C25 H42 0.930 . S
C26 C24 1.381 . S
C26 C25 1.387 . S
C26 H43 0.931 . S
C27 C20 1.399 . S
C27 C24 1.487 . S
C27 N44 1.343 . S
H28 C0 0.931 . S
H29 C2 0.930 . S
H30 C4 0.930 . S
H31 C5 0.931 . S
H32 C7 0.931 . S
H33 C9 0.930 . S
H34 C11 0.930 . S
H35 C12 0.931 . S
H36 C14 0.931 . S
H37 C16 0.930 . S
H38 C18 0.930 . S
H39 C19 0.931 . S
H40 C21 0.931 . S
H41 C23 0.930 . S
H42 C25 0.930 . S
H43 C26 0.931 . S
N44 C6 1.343 1_455 S
N44 C27 1.343 . S
N45 C13 1.343 1_455 S
N45 C20 1.343 . S
C46 C47 1.384 . S
C46 C48 1.384 . S
C46 H74 0.931 . S
C47 C46 1.384 . S
C47 C50 1.382 . S
C48 C46 1.384 . S
C48 C49 1.381 . S
C48 H75 0.930 . S
C49 C48 1.381 . S
C49 C51 1.381 . S
C49 C52 1.487 . S
C50 C47 1.382 . S
C50 C51 1.387 . S
C50 H76 0.930 . S
C51 C49 1.381 . S
C51 C50 1.387 . S
C51 H77 0.931 . S
C52 C49 1.487 . S
C52 C59 1.399 . S
C52 N90 1.343 . S
C53 C54 1.384 . S
C53 C55 1.384 . S
C53 H78 0.931 . S
C54 C53 1.384 . S
C54 C57 1.382 . S
C55 C53 1.384 . S
C55 C56 1.381 . S
C55 H79 0.930 . S
C56 C55 1.381 . S
C56 C58 1.381 . S
C56 C59 1.487 . S
C57 C54 1.382 . S
C57 C58 1.387 . S
C57 H80 0.930 . S
C58 C56 1.381 . S
C58 C57 1.387 . S
C58 H81 0.931 . S
C59 C52 1.399 . S
C59 C56 1.487 . S
C59 N91 1.343 1_565 S
C60 C61 1.384 . S
C60 C62 1.384 . S
C60 H82 0.931 . S
C61 C60 1.384 . S
C61 C64 1.382 . S
C62 C60 1.384 . S
C62 C63 1.381 . S
C62 H83 0.930 . S
C63 C62 1.381 . S
C63 C65 1.381 . S
C63 C66 1.487 . S
C64 C61 1.382 . S
C64 C65 1.387 . S
C64 H84 0.930 . S
C65 C63 1.381 . S
C65 C64 1.387 . S
C65 H85 0.931 . S
C66 C63 1.487 . S
C66 C73 1.399 . S
C66 N91 1.343 . S
C67 C68 1.384 . S
C67 C69 1.384 . S
C67 H86 0.931 . S
C68 C67 1.384 . S
C68 C71 1.382 . S
C69 C67 1.384 . S
C69 C70 1.381 . S
C69 H87 0.930 . S
C70 C69 1.381 . S
C70 C72 1.381 . S
C70 C73 1.487 . S
C71 C68 1.382 . S
C71 C72 1.387 . S
C71 H88 0.930 . S
C72 C70 1.381 . S
C72 C71 1.387 . S
C72 H89 0.931 . S
C73 C66 1.399 . S
C73 C70 1.487 . S
C73 N90 1.343 1_545 S
H74 C46 0.931 . S
H75 C48 0.930 . S
H76 C50 0.930 . S
H77 C51 0.931 . S
H78 C53 0.931 . S
H79 C55 0.930 . S
H80 C57 0.930 . S
H81 C58 0.931 . S
H82 C60 0.931 . S
H83 C62 0.930 . S
H84 C64 0.930 . S
H85 C65 0.931 . S
H86 C67 0.931 . S
H87 C69 0.930 . S
H88 C71 0.930 . S
H89 C72 0.931 . S
N90 C52 1.343 . S
N90 C73 1.343 1_565 S
N91 C59 1.343 1_545 S
N91 C66 1.343 . S
C92 C93 1.384 . S
C92 C94 1.384 . S
C92 H120 0.931 . S
C93 C92 1.384 . S
C93 C96 1.382 . S
C94 C92 1.384 . S
C94 C95 1.381 . S
C94 H121 0.930 . S
C95 C94 1.381 . S
C95 C97 1.381 . S
C95 C98 1.487 . S
C96 C93 1.382 . S
C96 C97 1.387 . S
C96 H122 0.930 . S
C97 C95 1.381 . S
C97 C96 1.387 . S
C97 H123 0.931 . S
C98 C95 1.487 . S
C98 C105 1.399 . S
C98 N136 1.343 . S
C99 C100 1.384 . S
C99 C101 1.384 . S
C99 H124 0.931 . S
C100 C99 1.384 . S
C100 C103 1.382 . S
C101 C99 1.384 . S
C101 C102 1.381 . S
C101 H125 0.930 . S
C102 C101 1.381 . S
C102 C104 1.381 . S
C102 C105 1.487 . S
C103 C100 1.382 . S
C103 C104 1.387 . S
C103 H126 0.930 . S
C104 C102 1.381 . S
C104 C103 1.387 . S
C104 H127 0.931 . S
C105 C98 1.399 . S
C105 C102 1.487 . S
C105 N137 1.343 . S
C106 C107 1.384 . S
C106 C108 1.384 . S
C106 H128 0.931 . S
C107 C106 1.384 . S
C107 C110 1.382 . S
C108 C106 1.384 . S
C108 C109 1.381 . S
C108 H129 0.930 . S
C109 C108 1.381 . S
C109 C111 1.381 . S
C109 C112 1.487 . S
C110 C107 1.382 . S
C110 C111 1.387 . S
C110 H130 0.930 . S
C111 C109 1.381 . S
C111 C110 1.387 . S
C111 H131 0.931 . S
C112 C109 1.487 . S
C112 C119 1.399 . S
C112 N137 1.343 . S
C113 C114 1.384 . S
C113 C115 1.384 . S
C113 H132 0.931 . S
C114 C113 1.384 . S
C114 C117 1.382 . S
C115 C113 1.384 . S
C115 C116 1.381 . S
C115 H133 0.930 . S
C116 C115 1.381 . S
C116 C118 1.381 . S
C116 C119 1.487 . S
C117 C114 1.382 . S
C117 C118 1.387 . S
C117 H134 0.930 . S
C118 C116 1.381 . S
C118 C117 1.387 . S
C118 H135 0.931 . S
C119 C112 1.399 . S
C119 C116 1.487 . S
C119 N136 1.343 . S
H120 C92 0.931 . S
H121 C94 0.930 . S
H122 C96 0.930 . S
H123 C97 0.931 . S
H124 C99 0.931 . S
H125 C101 0.930 . S
H126 C103 0.930 . S
H127 C104 0.931 . S
H128 C106 0.931 . S
H129 C108 0.930 . S
H130 C110 0.930 . S
H131 C111 0.931 . S
H132 C113 0.931 . S
H133 C115 0.930 . S
H134 C117 0.930 . S
H135 C118 0.931 . S
N136 C98 1.343 . S
N136 C119 1.343 . S
N137 C105 1.343 . S
N137 C112 1.343 . S
C138 C139 1.384 . S
C138 C140 1.384 . S
C138 H166 0.931 . S
C139 C138 1.384 . S
C139 C142 1.382 . S
C140 C138 1.384 . S
C140 C141 1.381 . S
C140 H167 0.930 . S
C141 C140 1.381 . S
C141 C143 1.381 . S
C141 C144 1.487 . S
C142 C139 1.382 . S
C142 C143 1.387 . S
C142 H168 0.930 . S
C143 C141 1.381 . S
C143 C142 1.387 . S
C143 H169 0.931 . S
C144 C141 1.487 . S
C144 C151 1.399 . S
C144 N182 1.350 . S
C145 C146 1.384 . S
C145 C147 1.384 . S
C145 H170 0.931 . S
C146 C145 1.384 . S
C146 C149 1.382 . S
C147 C145 1.384 . S
C147 C148 1.381 . S
C147 H171 0.930 . S
C148 C147 1.381 . S
C148 C150 1.381 . S
C148 C151 1.487 . S
C149 C146 1.382 . S
C149 C150 1.387 . S
C149 H172 0.930 . S
C150 C148 1.381 . S
C150 C149 1.387 . S
C150 H173 0.931 . S
C151 C144 1.399 . S
C151 C148 1.487 . S
C151 N183 1.343 1_655 S
C152 C153 1.384 . S
C152 C154 1.384 . S
C152 H174 0.931 . S
C153 C152 1.384 . S
C153 C156 1.382 . S
C154 C152 1.384 . S
C154 C155 1.381 . S
C154 H175 0.930 . S
C155 C154 1.381 . S
C155 C157 1.381 . S
C155 C158 1.487 . S
C156 C153 1.382 . S
C156 C157 1.387 . S
C156 H176 0.930 . S
C157 C155 1.381 . S
C157 C156 1.387 . S
C157 H177 0.931 . S
C158 C155 1.487 . S
C158 C165 1.399 . S
C158 N183 1.343 . S
C159 C160 1.384 . S
C159 C161 1.384 . S
C159 H178 0.931 . S
C160 C159 1.384 . S
C160 C163 1.382 . S
C161 C159 1.384 . S
C161 C162 1.381 . S
C161 H179 0.930 . S
C162 C161 1.381 . S
C162 C164 1.381 . S
C162 C165 1.487 . S
C163 C160 1.382 . S
C163 C164 1.387 . S
C163 H180 0.930 . S
C164 C162 1.381 . S
C164 C163 1.387 . S
C164 H181 0.931 . S
C165 C158 1.399 . S
C165 C162 1.487 . S
C165 N182 1.331 1_455 S
H166 C138 0.931 . S
H167 C140 0.930 . S
H168 C142 0.930 . S
H169 C143 0.931 . S
H170 C145 0.931 . S
H171 C147 0.930 . S
H172 C149 0.930 . S
H173 C150 0.931 . S
H174 C152 0.931 . S
H175 C154 0.930 . S
H176 C156 0.930 . S
H177 C157 0.931 . S
H178 C159 0.931 . S
H179 C161 0.930 . S
H180 C163 0.930 . S
H181 C164 0.931 . S
N182 C144 1.350 . S
N182 C165 1.331 1_655 S
N183 C151 1.343 1_455 S
N183 C158 1.343 . S
C184 C185 1.384 . S
C184 C186 1.384 . S
C184 H212 0.931 . S
C185 C184 1.384 . S
C185 C188 1.382 . S
C186 C184 1.384 . S
C186 C187 1.381 . S
C186 H213 0.930 1_556 S
C187 C186 1.381 . S
C187 C189 1.381 . S
C187 C190 1.487 . S
C188 C185 1.382 . S
C188 C189 1.387 . S
C188 H214 0.930 . S
C189 C187 1.381 . S
C189 C188 1.387 . S
C189 H215 0.931 . S
C190 C187 1.487 . S
C190 C197 1.399 1_556 S
C190 N228 1.343 . S
C191 C192 1.384 . S
C191 C193 1.384 . S
C191 H216 0.931 . S
C192 C191 1.384 . S
C192 C195 1.382 . S
C193 C191 1.384 . S
C193 C194 1.381 . S
C193 H217 0.930 . S
C194 C193 1.381 . S
C194 C196 1.381 . S
C194 C197 1.487 . S
C195 C192 1.382 . S
C195 C196 1.387 . S
C195 H218 0.930 . S
C196 C194 1.381 . S
C196 C195 1.387 . S
C196 H219 0.931 . S
C197 C190 1.399 1_554 S
C197 C194 1.487 . S
C197 N229 1.343 1_565 S
C198 C199 1.384 . S
C198 C200 1.384 1_554 S
C198 H220 0.931 . S
C199 C198 1.384 . S
C199 C202 1.382 . S
C200 C198 1.384 1_556 S
C200 C201 1.381 1_556 S
C200 H221 0.930 . S
C201 C200 1.381 1_554 S
C201 C203 1.381 . S
C201 C204 1.491 . S
C202 C199 1.382 . S
C202 C203 1.387 . S
C202 H222 0.930 . S
C203 C201 1.381 . S
C203 C202 1.387 . S
C203 H223 0.931 . S
C204 C201 1.491 . S
C204 C211 1.386 1_554 S
C204 N229 1.353 . S
C205 C206 1.384 . S
C205 C207 1.384 . S
C205 H224 0.931 . S
C206 C205 1.384 . S
C206 C209 1.382 . S
C207 C205 1.384 . S
C207 C208 1.381 . S
C207 H225 0.930 . S
C208 C207 1.381 . S
C208 C210 1.381 . S
C208 C211 1.487 . S
C209 C206 1.382 . S
C209 C210 1.387 . S
C209 H226 0.930 . S
C210 C208 1.381 . S
C210 C209 1.387 . S
C210 H227 0.931 . S
C211 C204 1.386 1_556 S
C211 C208 1.487 . S
C211 N228 1.343 1_545 S
H212 C184 0.931 . S
H213 C186 0.930 1_554 S
H214 C188 0.930 . S
H215 C189 0.931 . S
H216 C191 0.931 . S
H217 C193 0.930 . S
H218 C195 0.930 . S
H219 C196 0.931 . S
H220 C198 0.931 . S
H221 C200 0.930 . S
H222 C202 0.930 . S
H223 C203 0.931 . S
H224 C205 0.931 . S
H225 C207 0.930 . S
H226 C209 0.930 . S
H227 C210 0.931 . S
N228 C190 1.343 . S
N228 C211 1.343 1_565 S
N229 C197 1.343 1_545 S
N229 C204 1.353 . S
C230 C231 1.384 . S
C230 C232 1.384 . S
C230 H258 0.931 . S
C231 C230 1.384 . S
C231 C234 1.382 . S
C232 C230 1.384 . S
C232 C233 1.381 . S
C232 H259 0.930 . S
C233 C232 1.381 . S
C233 C235 1.381 . S
C233 C236 1.487 . S
C234 C231 1.382 . S
C234 C235 1.387 . S
C234 H260 0.930 . S
C235 C233 1.381 . S
C235 C234 1.387 . S
C235 H261 0.931 . S
C236 C233 1.487 . S
C236 C243 1.399 . S
C236 N274 1.343 . S
C237 C238 1.384 . S
C237 C239 1.384 . S
C237 H262 0.931 . S
C238 C237 1.384 . S
C238 C241 1.382 . S
C239 C237 1.384 . S
C239 C240 1.381 . S
C239 H263 0.930 . S
C240 C239 1.381 . S
C240 C242 1.381 . S
C240 C243 1.487 . S
C241 C238 1.382 . S
C241 C242 1.387 . S
C241 H264 0.930 . S
C242 C240 1.381 . S
C242 C241 1.387 . S
C242 H265 0.931 . S
C243 C236 1.399 . S
C243 C240 1.487 . S
C243 N275 1.343 . S
C244 C245 1.384 . S
C244 C246 1.384 . S
C244 H266 0.931 . S
C245 C244 1.384 . S
C245 C248 1.382 . S
C246 C244 1.384 . S
C246 C247 1.381 . S
C246 H267 0.930 . S
C247 C246 1.381 . S
C247 C249 1.381 . S
C247 C250 1.487 . S
C248 C245 1.382 . S
C248 C249 1.387 . S
C248 H268 0.930 . S
C249 C247 1.381 . S
C249 C248 1.387 . S
C249 H269 0.931 . S
C250 C247 1.487 . S
C250 C257 1.399 . S
C250 N275 1.343 . S
C251 C252 1.384 . S
C251 C253 1.384 . S
C251 H270 0.931 . S
C252 C251 1.384 . S
C252 C255 1.382 . S
C253 C251 1.384 . S
C253 C254 1.381 . S
C253 H271 0.930 . S
C254 C253 1.381 . S
C254 C256 1.381 . S
C254 C257 1.487 . S
C255 C252 1.382 . S
C255 C256 1.387 . S
C255 H272 0.930 . S
C256 C254 1.381 . S
C256 C255 1.387 . S
C256 H273 0.931 . S
C257 C250 1.399 . S
C257 C254 1.487 . S
C257 N274 1.343 . S
H258 C230 0.931 . S
H259 C232 0.930 . S
H260 C234 0.930 . S
H261 C235 0.931 . S
H262 C237 0.931 . S
H263 C239 0.930 . S
H264 C241 0.930 . S
H265 C242 0.931 . S
H266 C244 0.931 . S
H267 C246 0.930 . S
H268 C248 0.930 . S
H269 C249 0.931 . S
H270 C251 0.931 . S
H271 C253 0.930 . S
H272 C255 0.930 . S
H273 C256 0.931 . S
N274 C236 1.343 . S
N274 C257 1.343 . S
N275 C243 1.343 . S
N275 C250 1.343 . S
Co276 O277 2.216 . S
Co276 O278 2.091 . S
Co276 O280 2.004 . S
Co276 O286 2.021 . S
Co276 O288 2.137 . S
Co276 O289 2.244 . S
O277 Co276 2.216 . S
O277 C284 1.247 . S
O278 Co276 2.091 . S
O278 C284 1.261 . S
C279 O288 1.247 . S
C279 O289 1.272 . S
O280 Co276 2.004 . S
O280 C285 1.259 . S
Co281 O282 2.061 . S
Co281 O287 2.052 . S
Co281 O289 2.135 . S
O282 Co281 2.061 . S
O282 C285 1.235 . S
C283 O286 1.238 . S
C283 O287 1.241 . S
C284 O277 1.247 . S
C284 O278 1.261 . S
C285 O280 1.259 . S
C285 O282 1.235 . S
O286 Co276 2.021 . S
O286 C283 1.238 . S
O287 Co281 2.052 . S
O287 C283 1.241 . S
O288 Co276 2.137 . S
O288 C279 1.247 . S
O289 Co276 2.244 . S
O289 C279 1.272 . S
O289 Co281 2.135 . S
Co290 O291 2.216 . S
Co290 O292 2.091 . S
Co290 O294 2.004 . S
Co290 O300 2.021 . S
Co290 O302 2.137 . S
Co290 O303 2.244 . S
O291 Co290 2.216 . S
O291 C298 1.247 . S
O292 Co290 2.091 . S
O292 C298 1.261 . S
C293 O302 1.247 . S
C293 O303 1.272 . S
O294 Co290 2.004 . S
O294 C299 1.259 . S
Co295 O296 2.061 . S
Co295 O301 2.052 . S
Co295 O303 2.135 . S
O296 Co295 2.061 . S
O296 C299 1.235 . S
C297 O300 1.238 . S
C297 O301 1.241 . S
C298 O291 1.247 . S
C298 O292 1.261 . S
C299 O294 1.259 . S
C299 O296 1.235 . S
O300 Co290 2.021 . S
O300 C297 1.238 . S
O301 Co295 2.052 . S
O301 C297 1.241 . S
O302 Co290 2.137 . S
O302 C293 1.247 . S
O303 Co290 2.244 . S
O303 C293 1.272 . S
O303 Co295 2.135 . S
Co304 O305 2.216 . S
Co304 O306 2.091 . S
Co304 O308 2.004 . S
Co304 O314 2.021 . S
Co304 O316 2.137 . S
Co304 O317 2.244 . S
O305 Co304 2.216 . S
O305 C312 1.247 . S
O306 Co304 2.091 . S
O306 C312 1.261 . S
C307 O316 1.247 . S
C307 O317 1.272 . S
O308 Co304 2.004 . S
O308 C313 1.259 . S
Co309 O310 2.061 . S
Co309 O315 2.052 . S
Co309 O317 2.135 . S
O310 Co309 2.061 . S
O310 C313 1.235 . S
C311 O314 1.238 . S
C311 O315 1.241 . S
C312 O305 1.247 . S
C312 O306 1.261 . S
C313 O308 1.259 . S
C313 O310 1.235 . S
O314 Co304 2.021 . S
O314 C311 1.238 . S
O315 Co309 2.052 . S
O315 C311 1.241 . S
O316 Co304 2.137 . S
O316 C307 1.247 . S
O317 Co304 2.244 . S
O317 C307 1.272 . S
O317 Co309 2.135 . S
Co318 O319 2.216 . S
Co318 O320 2.091 . S
Co318 O322 2.004 . S
Co318 O328 2.021 . S
Co318 O330 2.137 . S
Co318 O331 2.244 . S
O319 Co318 2.216 . S
O319 C326 1.247 . S
O320 Co318 2.091 . S
O320 C326 1.261 . S
C321 O330 1.247 . S
C321 O331 1.272 . S
O322 Co318 2.004 . S
O322 C327 1.259 . S
Co323 O324 2.061 . S
Co323 O329 2.052 . S
Co323 O331 2.135 . S
O324 Co323 2.061 . S
O324 C327 1.235 . S
C325 O328 1.238 . S
C325 O329 1.241 . S
C326 O319 1.247 . S
C326 O320 1.261 . S
C327 O322 1.259 . S
C327 O324 1.235 . S
O328 Co318 2.021 . S
O328 C325 1.238 . S
O329 Co323 2.052 . S
O329 C325 1.241 . S
O330 Co318 2.137 . S
O330 C321 1.247 . S
O331 Co318 2.244 . S
O331 C321 1.272 . S
O331 Co323 2.135 . S
Co332 O333 2.216 . S
Co332 O334 2.091 . S
Co332 O336 2.004 . S
Co332 O342 2.021 . S
Co332 O344 2.137 . S
Co332 O345 2.244 . S
O333 Co332 2.216 . S
O333 C340 1.247 . S
O334 Co332 2.091 . S
O334 C340 1.261 . S
C335 O344 1.247 . S
C335 O345 1.272 . S
O336 Co332 2.004 . S
O336 C341 1.259 . S
Co337 O338 2.061 . S
Co337 O343 2.052 . S
Co337 O345 2.135 . S
O338 Co337 2.061 . S
O338 C341 1.235 . S
C339 O342 1.238 . S
C339 O343 1.241 . S
C340 O333 1.247 . S
C340 O334 1.261 . S
C341 O336 1.259 . S
C341 O338 1.235 . S
O342 Co332 2.021 . S
O342 C339 1.238 . S
O343 Co337 2.052 . S
O343 C339 1.241 . S
O344 Co332 2.137 . S
O344 C335 1.247 . S
O345 Co332 2.244 . S
O345 C335 1.272 . S
O345 Co337 2.135 . S
Co346 O347 2.216 . S
Co346 O348 2.091 . S
Co346 O350 2.004 . S
Co346 O356 2.021 . S
Co346 O358 2.137 . S
Co346 O359 2.244 . S
O347 Co346 2.216 . S
O347 C354 1.247 . S
O348 Co346 2.091 . S
O348 C354 1.261 . S
C349 O358 1.247 . S
C349 O359 1.272 . S
O350 Co346 2.004 . S
O350 C355 1.259 . S
Co351 O352 2.061 . S
Co351 O357 2.052 . S
Co351 O359 2.135 . S
O352 Co351 2.061 . S
O352 C355 1.235 . S
C353 O356 1.238 . S
C353 O357 1.241 . S
C354 O347 1.247 . S
C354 O348 1.261 . S
C355 O350 1.259 . S
C355 O352 1.235 . S
O356 Co346 2.021 . S
O356 C353 1.238 . S
O357 Co351 2.052 . S
O357 C353 1.241 . S
O358 Co346 2.137 . S
O358 C349 1.247 . S
O359 Co346 2.244 . S
O359 C349 1.272 . S
O359 Co351 2.135 . S
H360 C372 0.930 . S
H361 C374 0.930 . S
H362 C375 0.930 . S
H363 C379 0.959 . S
H364 C379 0.959 . S
H365 C379 0.961 . S
H366 C380 0.960 . S
H367 C380 0.961 . S
H368 C380 0.959 . S
H369 C383 0.929 . S
H370 C384 0.931 . S
H371 C386 0.930 . S
C372 H360 0.930 . S
C372 C373 1.399 . S
C372 C377 1.399 . S
C373 C372 1.399 . S
C373 C374 1.376 . S
C374 H361 0.930 . S
C374 C373 1.376 . S
C374 C375 1.388 . S
C375 H362 0.930 . S
C375 C374 1.388 . S
C375 C376 1.390 . S
C376 C375 1.390 . S
C376 C377 1.394 . S
C376 C382 1.465 . S
C377 C372 1.399 . S
C377 C376 1.394 . S
C377 C378 1.516 . S
C378 C377 1.516 . S
C378 C379 1.502 . S
C378 C380 1.561 . S
C378 C381 1.526 . S
C379 H363 0.959 . S
C379 H364 0.959 . S
C379 H365 0.961 . S
C379 C378 1.502 . S
C380 H366 0.960 . S
C380 H367 0.961 . S
C380 H368 0.959 . S
C380 C378 1.561 . S
C381 C378 1.526 . S
C381 C382 1.396 . S
C381 C386 1.390 . S
C382 C376 1.465 . S
C382 C381 1.396 . S
C382 C383 1.399 . S
C383 H369 0.929 . S
C383 C382 1.399 . S
C383 C384 1.385 . S
C384 H370 0.931 . S
C384 C383 1.385 . S
C384 C385 1.389 . S
C385 C384 1.389 . S
C385 C386 1.387 . S
C386 H371 0.930 . S
C386 C381 1.390 . S
C386 C385 1.387 . S
H387 C399 0.930 . S
H388 C401 0.930 . S
H389 C402 0.930 . S
H390 C406 0.959 . S
H391 C406 0.959 . S
H392 C406 0.961 . S
H393 C407 0.960 . S
H394 C407 0.961 . S
H395 C407 0.959 . S
H396 C410 0.929 . S
H397 C411 0.931 . S
H398 C413 0.930 . S
C399 H387 0.930 . S
C399 C400 1.399 . S
C399 C404 1.399 . S
C400 C399 1.399 . S
C400 C401 1.376 . S
C401 H388 0.930 . S
C401 C400 1.376 . S
C401 C402 1.388 . S
C402 H389 0.930 . S
C402 C401 1.388 . S
C402 C403 1.390 . S
C403 C402 1.390 . S
C403 C404 1.394 . S
C403 C409 1.465 . S
C404 C399 1.399 . S
C404 C403 1.394 . S
C404 C405 1.516 . S
C405 C404 1.516 . S
C405 C406 1.502 . S
C405 C407 1.561 . S
C405 C408 1.526 . S
C406 H390 0.959 . S
C406 H391 0.959 . S
C406 H392 0.961 . S
C406 C405 1.502 . S
C407 H393 0.960 . S
C407 H394 0.961 . S
C407 H395 0.959 . S
C407 C405 1.561 . S
C408 C405 1.526 . S
C408 C409 1.396 . S
C408 C413 1.390 . S
C409 C403 1.465 . S
C409 C408 1.396 . S
C409 C410 1.399 . S
C410 H396 0.929 . S
C410 C409 1.399 . S
C410 C411 1.385 . S
C411 H397 0.931 . S
C411 C410 1.385 . S
C411 C412 1.389 . S
C412 C411 1.389 . S
C412 C413 1.387 . S
C413 H398 0.930 . S
C413 C408 1.390 . S
C413 C412 1.387 . S
H414 C426 0.930 . S
H415 C428 0.930 . S
H416 C429 0.930 . S
H417 C433 0.959 . S
H418 C433 0.959 . S
H419 C433 0.961 . S
H420 C434 0.960 . S
H421 C434 0.961 . S
H422 C434 0.959 . S
H423 C437 0.929 . S
H424 C438 0.931 . S
H425 C440 0.930 . S
C426 H414 0.930 . S
C426 C427 1.399 . S
C426 C431 1.399 . S
C427 C426 1.399 . S
C427 C428 1.376 . S
C428 H415 0.930 . S
C428 C427 1.376 . S
C428 C429 1.388 . S
C429 H416 0.930 . S
C429 C428 1.388 . S
C429 C430 1.390 . S
C430 C429 1.390 . S
C430 C431 1.394 . S
C430 C436 1.465 . S
C431 C426 1.399 . S
C431 C430 1.394 . S
C431 C432 1.516 . S
C432 C431 1.516 . S
C432 C433 1.502 . S
C432 C434 1.561 . S
C432 C435 1.526 . S
C433 H417 0.959 . S
C433 H418 0.959 . S
C433 H419 0.961 . S
C433 C432 1.502 . S
C434 H420 0.960 . S
C434 H421 0.961 . S
C434 H422 0.959 . S
C434 C432 1.561 . S
C435 C432 1.526 . S
C435 C436 1.396 . S
C435 C440 1.390 . S
C436 C430 1.465 . S
C436 C435 1.396 . S
C436 C437 1.399 . S
C437 H423 0.929 . S
C437 C436 1.399 . S
C437 C438 1.385 . S
C438 H424 0.931 . S
C438 C437 1.385 . S
C438 C439 1.389 . S
C439 C438 1.389 . S
C439 C440 1.387 . S
C440 H425 0.930 . S
C440 C435 1.390 . S
C440 C439 1.387 . S
H441 C453 0.930 . S
H442 C455 0.930 . S
H443 C456 0.930 . S
H444 C460 0.959 . S
H445 C460 0.959 . S
H446 C460 0.961 . S
H447 C461 0.960 . S
H448 C461 0.961 . S
H449 C461 0.959 . S
H450 C464 0.929 . S
H451 C465 0.931 . S
H452 C467 0.930 . S
C453 H441 0.930 . S
C453 C454 1.399 . S
C453 C458 1.399 . S
C454 C453 1.399 . S
C454 C455 1.376 . S
C455 H442 0.930 . S
C455 C454 1.376 . S
C455 C456 1.388 . S
C456 H443 0.930 . S
C456 C455 1.388 . S
C456 C457 1.390 . S
C457 C456 1.390 . S
C457 C458 1.394 . S
C457 C463 1.465 . S
C458 C453 1.399 . S
C458 C457 1.394 . S
C458 C459 1.516 . S
C459 C458 1.516 . S
C459 C460 1.502 . S
C459 C461 1.561 . S
C459 C462 1.526 . S
C460 H444 0.959 . S
C460 H445 0.959 . S
C460 H446 0.961 . S
C460 C459 1.502 . S
C461 H447 0.960 . S
C461 H448 0.961 . S
C461 H449 0.959 . S
C461 C459 1.561 . S
C462 C459 1.526 . S
C462 C463 1.396 . S
C462 C467 1.390 . S
C463 C457 1.465 . S
C463 C462 1.396 . S
C463 C464 1.399 . S
C464 H450 0.929 . S
C464 C463 1.399 . S
C464 C465 1.385 . S
C465 H451 0.931 . S
C465 C464 1.385 . S
C465 C466 1.389 . S
C466 C465 1.389 . S
C466 C467 1.387 . S
C467 H452 0.930 . S
C467 C462 1.390 . S
C467 C466 1.387 . S
H468 C480 0.930 . S
H469 C482 0.930 . S
H470 C483 0.930 . S
H471 C487 0.959 . S
H472 C487 0.959 . S
H473 C487 0.961 . S
H474 C488 0.960 . S
H475 C488 0.961 . S
H476 C488 0.959 . S
H477 C491 0.929 . S
H478 C492 0.931 . S
H479 C494 0.930 . S
C480 H468 0.930 . S
C480 C481 1.399 . S
C480 C485 1.399 . S
C481 C480 1.399 . S
C481 C482 1.376 . S
C482 H469 0.930 . S
C482 C481 1.376 . S
C482 C483 1.388 . S
C483 H470 0.930 . S
C483 C482 1.388 . S
C483 C484 1.390 . S
C484 C483 1.390 . S
C484 C485 1.394 . S
C484 C490 1.465 . S
C485 C480 1.399 . S
C485 C484 1.394 . S
C485 C486 1.516 . S
C486 C485 1.516 . S
C486 C487 1.502 . S
C486 C488 1.561 . S
C486 C489 1.526 . S
C487 H471 0.959 . S
C487 H472 0.959 . S
C487 H473 0.961 . S
C487 C486 1.502 . S
C488 H474 0.960 . S
C488 H475 0.961 . S
C488 H476 0.959 . S
C488 C486 1.561 . S
C489 C486 1.526 . S
C489 C490 1.396 . S
C489 C494 1.390 . S
C490 C484 1.465 . S
C490 C489 1.396 . S
C490 C491 1.399 . S
C491 H477 0.929 . S
C491 C490 1.399 . S
C491 C492 1.385 . S
C492 H478 0.931 . S
C492 C491 1.385 . S
C492 C493 1.389 . S
C493 C492 1.389 . S
C493 C494 1.387 . S
C494 H479 0.930 . S
C494 C489 1.390 . S
C494 C493 1.387 . S
H495 C507 0.930 . S
H496 C509 0.930 . S
H497 C510 0.930 . S
H498 C514 0.959 . S
H499 C514 0.959 . S
H500 C514 0.961 . S
H501 C515 0.960 . S
H502 C515 0.961 . S
H503 C515 0.959 . S
H504 C518 0.929 . S
H505 C519 0.931 . S
H506 C521 0.930 . S
C507 H495 0.930 . S
C507 C508 1.399 . S
C507 C512 1.399 . S
C508 C507 1.399 . S
C508 C509 1.376 . S
C509 H496 0.930 . S
C509 C508 1.376 . S
C509 C510 1.388 . S
C510 H497 0.930 . S
C510 C509 1.388 . S
C510 C511 1.390 . S
C511 C510 1.390 . S
C511 C512 1.394 . S
C511 C517 1.465 . S
C512 C507 1.399 . S
C512 C511 1.394 . S
C512 C513 1.516 . S
C513 C512 1.516 . S
C513 C514 1.502 . S
C513 C515 1.561 . S
C513 C516 1.526 . S
C514 H498 0.959 . S
C514 H499 0.959 . S
C514 H500 0.961 . S
C514 C513 1.502 . S
C515 H501 0.960 . S
C515 H502 0.961 . S
C515 H503 0.959 . S
C515 C513 1.561 . S
C516 C513 1.526 . S
C516 C517 1.396 . S
C516 C521 1.390 . S
C517 C511 1.465 . S
C517 C516 1.396 . S
C517 C518 1.399 . S
C518 H504 0.929 . S
C518 C517 1.399 . S
C518 C519 1.385 . S
C519 H505 0.931 . S
C519 C518 1.385 . S
C519 C520 1.389 . S
C520 C519 1.389 . S
C520 C521 1.387 . S
C521 H506 0.930 . S
C521 C516 1.390 . S
C521 C520 1.387 . S
H522 C534 0.930 . S
H523 C536 0.930 . S
H524 C537 0.930 . S
H525 C541 0.959 . S
H526 C541 0.959 . S
H527 C541 0.961 . S
H528 C542 0.960 . S
H529 C542 0.961 . S
H530 C542 0.959 . S
H531 C545 0.929 . S
H532 C546 0.931 . S
H533 C548 0.930 . S
C534 H522 0.930 . S
C534 C535 1.399 . S
C534 C539 1.399 . S
C535 C534 1.399 . S
C535 C536 1.376 . S
C536 H523 0.930 . S
C536 C535 1.376 . S
C536 C537 1.388 . S
C537 H524 0.930 . S
C537 C536 1.388 . S
C537 C538 1.390 . S
C538 C537 1.390 . S
C538 C539 1.394 . S
C538 C544 1.465 . S
C539 C534 1.399 . S
C539 C538 1.394 . S
C539 C540 1.516 . S
C540 C539 1.516 . S
C540 C541 1.502 . S
C540 C542 1.561 . S
C540 C543 1.526 . S
C541 H525 0.959 . S
C541 H526 0.959 . S
C541 H527 0.961 . S
C541 C540 1.502 . S
C542 H528 0.960 . S
C542 H529 0.961 . S
C542 H530 0.959 . S
C542 C540 1.561 . S
C543 C540 1.526 . S
C543 C544 1.396 . S
C543 C548 1.390 . S
C544 C538 1.465 . S
C544 C543 1.396 . S
C544 C545 1.399 . S
C545 H531 0.929 . S
C545 C544 1.399 . S
C545 C546 1.385 . S
C546 H532 0.931 . S
C546 C545 1.385 . S
C546 C547 1.389 . S
C547 C546 1.389 . S
C547 C548 1.387 . S
C548 H533 0.930 . S
C548 C543 1.390 . S
C548 C547 1.387 . S
H549 C561 0.930 . S
H550 C563 0.930 . S
H551 C564 0.930 . S
H552 C568 0.959 . S
H553 C568 0.959 . S
H554 C568 0.961 . S
H555 C569 0.960 . S
H556 C569 0.961 . S
H557 C569 0.959 . S
H558 C572 0.929 . S
H559 C573 0.931 . S
H560 C575 0.930 . S
C561 H549 0.930 . S
C561 C562 1.399 . S
C561 C566 1.399 . S
C562 C561 1.399 . S
C562 C563 1.376 . S
C563 H550 0.930 . S
C563 C562 1.376 . S
C563 C564 1.388 . S
C564 H551 0.930 . S
C564 C563 1.388 . S
C564 C565 1.390 . S
C565 C564 1.390 . S
C565 C566 1.394 . S
C565 C571 1.465 . S
C566 C561 1.399 . S
C566 C565 1.394 . S
C566 C567 1.516 . S
C567 C566 1.516 . S
C567 C568 1.502 . S
C567 C569 1.561 . S
C567 C570 1.526 . S
C568 H552 0.959 . S
C568 H553 0.959 . S
C568 H554 0.961 . S
C568 C567 1.502 . S
C569 H555 0.960 . S
C569 H556 0.961 . S
C569 H557 0.959 . S
C569 C567 1.561 . S
C570 C567 1.526 . S
C570 C571 1.396 . S
C570 C575 1.390 . S
C571 C565 1.465 . S
C571 C570 1.396 . S
C571 C572 1.399 . S
C572 H558 0.929 . S
C572 C571 1.399 . S
C572 C573 1.385 . S
C573 H559 0.931 . S
C573 C572 1.385 . S
C573 C574 1.389 . S
C574 C573 1.389 . S
C574 C575 1.387 . S
C575 H560 0.930 . S
C575 C570 1.390 . S
C575 C574 1.387 . S
H576 C588 0.930 . S
H577 C590 0.930 . S
H578 C591 0.930 . S
H579 C595 0.959 . S
H580 C595 0.959 . S
H581 C595 0.961 . S
H582 C596 0.960 . S
H583 C596 0.961 . S
H584 C596 0.959 . S
H585 C599 0.929 . S
H586 C600 0.931 . S
H587 C602 0.930 . S
C588 H576 0.930 . S
C588 C589 1.399 . S
C588 C593 1.399 . S
C589 C588 1.399 . S
C589 C590 1.376 . S
C590 H577 0.930 . S
C590 C589 1.376 . S
C590 C591 1.388 . S
C591 H578 0.930 . S
C591 C590 1.388 . S
C591 C592 1.390 . S
C592 C591 1.390 . S
C592 C593 1.394 . S
C592 C598 1.465 . S
C593 C588 1.399 . S
C593 C592 1.394 . S
C593 C594 1.516 . S
C594 C593 1.516 . S
C594 C595 1.502 . S
C594 C596 1.561 . S
C594 C597 1.526 . S
C595 H579 0.959 . S
C595 H580 0.959 . S
C595 H581 0.961 . S
C595 C594 1.502 . S
C596 H582 0.960 . S
C596 H583 0.961 . S
C596 H584 0.959 . S
C596 C594 1.561 . S
C597 C594 1.526 . S
C597 C598 1.396 . S
C597 C602 1.390 . S
C598 C592 1.465 . S
C598 C597 1.396 . S
C598 C599 1.399 . S
C599 H585 0.929 . S
C599 C598 1.399 . S
C599 C600 1.385 . S
C600 H586 0.931 . S
C600 C599 1.385 . S
C600 C601 1.389 . S
C601 C600 1.389 . S
C601 C602 1.387 . S
C602 H587 0.930 . S
C602 C597 1.390 . S
C602 C601 1.387 . S
H603 C615 0.930 . S
H604 C617 0.930 . S
H605 C618 0.930 . S
H606 C622 0.959 . S
H607 C622 0.959 . S
H608 C622 0.961 . S
H609 C623 0.960 . S
H610 C623 0.961 . S
H611 C623 0.959 . S
H612 C626 0.929 . S
H613 C627 0.931 . S
H614 C629 0.930 . S
C615 H603 0.930 . S
C615 C616 1.399 . S
C615 C620 1.399 . S
C616 C615 1.399 . S
C616 C617 1.376 . S
C617 H604 0.930 . S
C617 C616 1.376 . S
C617 C618 1.388 . S
C618 H605 0.930 . S
C618 C617 1.388 . S
C618 C619 1.390 . S
C619 C618 1.390 . S
C619 C620 1.394 . S
C619 C625 1.465 . S
C620 C615 1.399 . S
C620 C619 1.394 . S
C620 C621 1.516 . S
C621 C620 1.516 . S
C621 C622 1.502 . S
C621 C623 1.561 . S
C621 C624 1.526 . S
C622 H606 0.959 . S
C622 H607 0.959 . S
C622 H608 0.961 . S
C622 C621 1.502 . S
C623 H609 0.960 . S
C623 H610 0.961 . S
C623 H611 0.959 . S
C623 C621 1.561 . S
C624 C621 1.526 . S
C624 C625 1.396 . S
C624 C629 1.390 . S
C625 C619 1.465 . S
C625 C624 1.396 . S
C625 C626 1.399 . S
C626 H612 0.929 . S
C626 C625 1.399 . S
C626 C627 1.385 . S
C627 H613 0.931 . S
C627 C626 1.385 . S
C627 C628 1.389 . S
C628 C627 1.389 . S
C628 C629 1.387 . S
C629 H614 0.930 . S
C629 C624 1.390 . S
C629 C628 1.387 . S
H630 C642 0.930 . S
H631 C644 0.930 . S
H632 C645 0.930 . S
H633 C649 0.959 . S
H634 C649 0.959 . S
H635 C649 0.961 . S
H636 C650 0.960 . S
H637 C650 0.961 . S
H638 C650 0.959 . S
H639 C653 0.929 . S
H640 C654 0.931 . S
H641 C656 0.930 . S
C642 H630 0.930 . S
C642 C643 1.399 . S
C642 C647 1.399 . S
C643 C642 1.399 . S
C643 C644 1.376 . S
C644 H631 0.930 . S
C644 C643 1.376 . S
C644 C645 1.388 . S
C645 H632 0.930 . S
C645 C644 1.388 . S
C645 C646 1.390 . S
C646 C645 1.390 . S
C646 C647 1.394 . S
C646 C652 1.465 . S
C647 C642 1.399 . S
C647 C646 1.394 . S
C647 C648 1.516 . S
C648 C647 1.516 . S
C648 C649 1.502 . S
C648 C650 1.561 . S
C648 C651 1.526 . S
C649 H633 0.959 . S
C649 H634 0.959 . S
C649 H635 0.961 . S
C649 C648 1.502 . S
C650 H636 0.960 . S
C650 H637 0.961 . S
C650 H638 0.959 . S
C650 C648 1.561 . S
C651 C648 1.526 . S
C651 C652 1.396 . S
C651 C656 1.390 . S
C652 C646 1.465 . S
C652 C651 1.396 . S
C652 C653 1.399 . S
C653 H639 0.929 . S
C653 C652 1.399 . S
C653 C654 1.385 . S
C654 H640 0.931 . S
C654 C653 1.385 . S
C654 C655 1.389 . S
C655 C654 1.389 . S
C655 C656 1.387 . S
C656 H641 0.930 . S
C656 C651 1.390 . S
C656 C655 1.387 . S
H657 C669 0.930 . S
H658 C671 0.930 . S
H659 C672 0.930 . S
H660 C676 0.959 . S
H661 C676 0.959 . S
H662 C676 0.961 . S
H663 C677 0.960 . S
H664 C677 0.961 . S
H665 C677 0.959 . S
H666 C680 0.929 . S
H667 C681 0.931 . S
H668 C683 0.930 . S
C669 H657 0.930 . S
C669 C670 1.399 . S
C669 C674 1.399 . S
C670 C669 1.399 . S
C670 C671 1.376 . S
C671 H658 0.930 . S
C671 C670 1.376 . S
C671 C672 1.388 . S
C672 H659 0.930 . S
C672 C671 1.388 . S
C672 C673 1.390 . S
C673 C672 1.390 . S
C673 C674 1.394 . S
C673 C679 1.465 . S
C674 C669 1.399 . S
C674 C673 1.394 . S
C674 C675 1.516 . S
C675 C674 1.516 . S
C675 C676 1.502 . S
C675 C677 1.561 . S
C675 C678 1.526 . S
C676 H660 0.959 . S
C676 H661 0.959 . S
C676 H662 0.961 . S
C676 C675 1.502 . S
C677 H663 0.960 . S
C677 H664 0.961 . S
C677 H665 0.959 . S
C677 C675 1.561 . S
C678 C675 1.526 . S
C678 C679 1.396 . S
C678 C683 1.390 . S
C679 C673 1.465 . S
C679 C678 1.396 . S
C679 C680 1.399 . S
C680 H666 0.929 . S
C680 C679 1.399 . S
C680 C681 1.385 . S
C681 H667 0.931 . S
C681 C680 1.385 . S
C681 C682 1.389 . S
C682 C681 1.389 . S
C682 C683 1.387 . S
C683 H668 0.930 . S
C683 C678 1.390 . S
C683 C682 1.387 . S
H684 C696 0.930 . S
H685 C698 0.930 . S
H686 C699 0.930 . S
H687 C703 0.959 . S
H688 C703 0.959 . S
H689 C703 0.961 . S
H690 C704 0.960 . S
H691 C704 0.961 . S
H692 C704 0.959 . S
H693 C707 0.929 . S
H694 C708 0.931 . S
H695 C710 0.930 . S
C696 H684 0.930 . S
C696 C697 1.399 . S
C696 C701 1.399 . S
C697 C696 1.399 . S
C697 C698 1.376 . S
C698 H685 0.930 . S
C698 C697 1.376 . S
C698 C699 1.388 . S
C699 H686 0.930 . S
C699 C698 1.388 . S
C699 C700 1.390 . S
C700 C699 1.390 . S
C700 C701 1.394 . S
C700 C706 1.465 . S
C701 C696 1.399 . S
C701 C700 1.394 . S
C701 C702 1.516 . S
C702 C701 1.516 . S
C702 C703 1.502 . S
C702 C704 1.561 . S
C702 C705 1.526 . S
C703 H687 0.959 . S
C703 H688 0.959 . S
C703 H689 0.961 . S
C703 C702 1.502 . S
C704 H690 0.960 . S
C704 H691 0.961 . S
C704 H692 0.959 . S
C704 C702 1.561 . S
C705 C702 1.526 . S
C705 C706 1.396 . S
C705 C710 1.390 . S
C706 C700 1.465 . S
C706 C705 1.396 . S
C706 C707 1.399 . S
C707 H693 0.929 . S
C707 C706 1.399 . S
C707 C708 1.385 . S
C708 H694 0.931 . S
C708 C707 1.385 . S
C708 C709 1.389 . S
C709 C708 1.389 . S
C709 C710 1.387 . S
C710 H695 0.930 . S
C710 C705 1.390 . S
C710 C709 1.387 . S
H711 C723 0.930 . S
H712 C725 0.930 . S
H713 C726 0.930 . S
H714 C730 0.959 . S
H715 C730 0.959 . S
H716 C730 0.961 . S
H717 C731 0.960 . S
H718 C731 0.961 . S
H719 C731 0.959 . S
H720 C734 0.929 . S
H721 C735 0.931 . S
H722 C737 0.930 . S
C723 H711 0.930 . S
C723 C724 1.399 . S
C723 C728 1.399 . S
C724 C723 1.399 . S
C724 C725 1.376 . S
C725 H712 0.930 . S
C725 C724 1.376 . S
C725 C726 1.388 . S
C726 H713 0.930 . S
C726 C725 1.388 . S
C726 C727 1.390 . S
C727 C726 1.390 . S
C727 C728 1.394 . S
C727 C733 1.465 . S
C728 C723 1.399 . S
C728 C727 1.394 . S
C728 C729 1.516 . S
C729 C728 1.516 . S
C729 C730 1.502 . S
C729 C731 1.561 . S
C729 C732 1.526 . S
C730 H714 0.959 . S
C730 H715 0.959 . S
C730 H716 0.961 . S
C730 C729 1.502 . S
C731 H717 0.960 . S
C731 H718 0.961 . S
C731 H719 0.959 . S
C731 C729 1.561 . S
C732 C729 1.526 . S
C732 C733 1.396 . S
C732 C737 1.390 . S
C733 C727 1.465 . S
C733 C732 1.396 . S
C733 C734 1.399 . S
C734 H720 0.929 . S
C734 C733 1.399 . S
C734 C735 1.385 . S
C735 H721 0.931 . S
C735 C734 1.385 . S
C735 C736 1.389 . S
C736 C735 1.389 . S
C736 C737 1.387 . S
C737 H722 0.930 . S
C737 C732 1.390 . S
C737 C736 1.387 . S
H738 C750 0.930 . S
H739 C752 0.930 . S
H740 C753 0.930 . S
H741 C757 0.959 . S
H742 C757 0.959 . S
H743 C757 0.961 . S
H744 C758 0.960 . S
H745 C758 0.961 . S
H746 C758 0.959 . S
H747 C761 0.929 . S
H748 C762 0.931 . S
H749 C764 0.930 . S
C750 H738 0.930 . S
C750 C751 1.399 . S
C750 C755 1.399 . S
C751 C750 1.399 . S
C751 C752 1.376 . S
C752 H739 0.930 . S
C752 C751 1.376 . S
C752 C753 1.388 . S
C753 H740 0.930 . S
C753 C752 1.388 . S
C753 C754 1.390 . S
C754 C753 1.390 . S
C754 C755 1.394 . S
C754 C760 1.465 . S
C755 C750 1.399 . S
C755 C754 1.394 . S
C755 C756 1.516 . S
C756 C755 1.516 . S
C756 C757 1.502 . S
C756 C758 1.561 . S
C756 C759 1.526 . S
C757 H741 0.959 . S
C757 H742 0.959 . S
C757 H743 0.961 . S
C757 C756 1.502 . S
C758 H744 0.960 . S
C758 H745 0.961 . S
C758 H746 0.959 . S
C758 C756 1.561 . S
C759 C756 1.526 . S
C759 C760 1.396 . S
C759 C764 1.390 . S
C760 C754 1.465 . S
C760 C759 1.396 . S
C760 C761 1.399 . S
C761 H747 0.929 . S
C761 C760 1.399 . S
C761 C762 1.385 . S
C762 H748 0.931 . S
C762 C761 1.385 . S
C762 C763 1.389 . S
C763 C762 1.389 . S
C763 C764 1.387 . S
C764 H749 0.930 . S
C764 C759 1.390 . S
C764 C763 1.387 . S
H765 C777 0.930 . S
H766 C779 0.930 . S
H767 C780 0.930 . S
H768 C784 0.955 1_554 S
H769 C784 0.959 1_554 S
H770 C784 0.961 . S
H771 C785 0.960 . S
H772 C785 0.961 . S
H773 C785 0.959 . S
H774 C788 0.929 . S
H775 C789 0.931 . S
H776 C791 0.930 . S
C777 H765 0.930 . S
C777 C778 1.399 . S
C777 C782 1.399 . S
C778 C777 1.399 . S
C778 C779 1.376 . S
C779 H766 0.930 . S
C779 C778 1.376 . S
C779 C780 1.388 . S
C780 H767 0.930 . S
C780 C779 1.388 . S
C780 C781 1.390 . S
C781 C780 1.390 . S
C781 C782 1.394 . S
C781 C787 1.465 . S
C782 C777 1.399 . S
C782 C781 1.394 . S
C782 C783 1.516 . S
C783 C782 1.516 . S
C783 C784 1.502 . S
C783 C785 1.561 . S
C783 C786 1.526 . S
C784 H768 0.955 1_556 S
C784 H769 0.959 1_556 S
C784 H770 0.961 . S
C784 C783 1.502 . S
C785 H771 0.960 . S
C785 H772 0.961 . S
C785 H773 0.959 . S
C785 C783 1.561 . S
C786 C783 1.526 . S
C786 C787 1.396 . S
C786 C791 1.390 1_556 S
C787 C781 1.465 . S
C787 C786 1.396 . S
C787 C788 1.399 . S
C788 H774 0.929 . S
C788 C787 1.399 . S
C788 C789 1.385 1_556 S
C789 H775 0.931 . S
C789 C788 1.385 1_554 S
C789 C790 1.389 . S
C790 C789 1.389 . S
C790 C791 1.387 . S
C791 H776 0.930 . S
C791 C786 1.390 1_554 S
C791 C790 1.387 . S
H792 C804 0.930 . S
H793 C806 0.930 . S
H794 C807 0.930 . S
H795 C811 0.959 . S
H796 C811 0.959 . S
H797 C811 0.961 . S
H798 C812 0.960 . S
H799 C812 0.961 . S
H800 C812 0.959 . S
H801 C815 0.929 . S
H802 C816 0.931 . S
H803 C818 0.930 . S
C804 H792 0.930 . S
C804 C805 1.399 . S
C804 C809 1.399 . S
C805 C804 1.399 . S
C805 C806 1.376 . S
C806 H793 0.930 . S
C806 C805 1.376 . S
C806 C807 1.388 . S
C807 H794 0.930 . S
C807 C806 1.388 . S
C807 C808 1.390 . S
C808 C807 1.390 . S
C808 C809 1.394 . S
C808 C814 1.465 . S
C809 C804 1.399 . S
C809 C808 1.394 . S
C809 C810 1.516 . S
C810 C809 1.516 . S
C810 C811 1.502 . S
C810 C812 1.561 . S
C810 C813 1.526 . S
C811 H795 0.959 . S
C811 H796 0.959 . S
C811 H797 0.961 . S
C811 C810 1.502 . S
C812 H798 0.960 . S
C812 H799 0.961 . S
C812 H800 0.959 . S
C812 C810 1.561 . S
C813 C810 1.526 . S
C813 C814 1.396 . S
C813 C818 1.390 . S
C814 C808 1.465 . S
C814 C813 1.396 . S
C814 C815 1.399 . S
C815 H801 0.929 . S
C815 C814 1.399 . S
C815 C816 1.385 . S
C816 H802 0.931 . S
C816 C815 1.385 . S
C816 C817 1.389 . S
C817 C816 1.389 . S
C817 C818 1.387 . S
C818 H803 0.930 . S
C818 C813 1.390 . S
C818 C817 1.387 . S
H819 C831 0.930 . S
H820 C833 0.930 . S
H821 C834 0.930 . S
H822 C838 0.959 . S
H823 C838 0.959 . S
H824 C838 0.961 . S
H825 C839 0.960 . S
H826 C839 0.961 . S
H827 C839 0.959 . S
H828 C842 0.929 . S
H829 C843 0.931 . S
H830 C845 0.930 . S
C831 H819 0.930 . S
C831 C832 1.399 . S
C831 C836 1.399 . S
C832 C831 1.399 . S
C832 C833 1.376 . S
C833 H820 0.930 . S
C833 C832 1.376 . S
C833 C834 1.388 . S
C834 H821 0.930 . S
C834 C833 1.388 . S
C834 C835 1.390 . S
C835 C834 1.390 . S
C835 C836 1.394 . S
C835 C841 1.465 . S
C836 C831 1.399 . S
C836 C835 1.394 . S
C836 C837 1.516 . S
C837 C836 1.516 . S
C837 C838 1.502 . S
C837 C839 1.561 . S
C837 C840 1.526 . S
C838 H822 0.959 . S
C838 H823 0.959 . S
C838 H824 0.961 . S
C838 C837 1.502 . S
C839 H825 0.960 . S
C839 H826 0.961 . S
C839 H827 0.959 . S
C839 C837 1.561 . S
C840 C837 1.526 . S
C840 C841 1.396 . S
C840 C845 1.390 . S
C841 C835 1.465 . S
C841 C840 1.396 . S
C841 C842 1.399 . S
C842 H828 0.929 . S
C842 C841 1.399 . S
C842 C843 1.385 . S
C843 H829 0.931 . S
C843 C842 1.385 . S
C843 C844 1.389 . S
C844 C843 1.389 . S
C844 C845 1.387 . S
C845 H830 0.930 . S
C845 C840 1.390 . S
C845 C844 1.387 . S
H846 C858 0.930 . S
H847 C860 0.930 . S
H848 C861 0.930 . S
H849 C865 0.959 . S
H850 C865 0.959 . S
H851 C865 0.961 . S
H852 C866 0.960 . S
H853 C866 0.961 . S
H854 C866 0.959 . S
H855 C869 0.929 . S
H856 C870 0.931 . S
H857 C872 0.930 . S
C858 H846 0.930 . S
C858 C859 1.399 . S
C858 C863 1.399 . S
C859 C858 1.399 . S
C859 C860 1.376 . S
C860 H847 0.930 . S
C860 C859 1.376 . S
C860 C861 1.388 . S
C861 H848 0.930 . S
C861 C860 1.388 . S
C861 C862 1.390 . S
C862 C861 1.390 . S
C862 C863 1.394 . S
C862 C868 1.465 . S
C863 C858 1.399 . S
C863 C862 1.394 . S
C863 C864 1.516 . S
C864 C863 1.516 . S
C864 C865 1.502 . S
C864 C866 1.561 . S
C864 C867 1.526 . S
C865 H849 0.959 . S
C865 H850 0.959 . S
C865 H851 0.961 . S
C865 C864 1.502 . S
C866 H852 0.960 . S
C866 H853 0.961 . S
C866 H854 0.959 . S
C866 C864 1.561 . S
C867 C864 1.526 . S
C867 C868 1.396 . S
C867 C872 1.390 . S
C868 C862 1.465 . S
C868 C867 1.396 . S
C868 C869 1.399 . S
C869 H855 0.929 . S
C869 C868 1.399 . S
C869 C870 1.385 . S
C870 H856 0.931 . S
C870 C869 1.385 . S
C870 C871 1.389 . S
C871 C870 1.389 . S
C871 C872 1.387 . S
C872 H857 0.930 . S
C872 C867 1.390 . S
C872 C871 1.387 . S
H873 C885 0.930 . S
H874 C887 0.930 . S
H875 C888 0.930 . S
H876 C892 0.959 . S
H877 C892 0.959 . S
H878 C892 0.961 . S
H879 C893 0.960 . S
H880 C893 0.961 . S
H881 C893 0.959 . S
H882 C896 0.929 . S
H883 C897 0.931 . S
H884 C899 0.930 . S
C885 H873 0.930 . S
C885 C886 1.399 . S
C885 C890 1.399 . S
C886 C885 1.399 . S
C886 C887 1.376 . S
C887 H874 0.930 . S
C887 C886 1.376 . S
C887 C888 1.388 . S
C888 H875 0.930 . S
C888 C887 1.388 . S
C888 C889 1.390 . S
C889 C888 1.390 . S
C889 C890 1.394 . S
C889 C895 1.465 . S
C890 C885 1.399 . S
C890 C889 1.394 . S
C890 C891 1.516 . S
C891 C890 1.516 . S
C891 C892 1.502 . S
C891 C893 1.561 . S
C891 C894 1.526 . S
C892 H876 0.959 . S
C892 H877 0.959 . S
C892 H878 0.961 . S
C892 C891 1.502 . S
C893 H879 0.960 . S
C893 H880 0.961 . S
C893 H881 0.959 . S
C893 C891 1.561 . S
C894 C891 1.526 . S
C894 C895 1.396 . S
C894 C899 1.390 . S
C895 C889 1.465 . S
C895 C894 1.396 . S
C895 C896 1.399 . S
C896 H882 0.929 . S
C896 C895 1.399 . S
C896 C897 1.385 . S
C897 H883 0.931 . S
C897 C896 1.385 . S
C897 C898 1.389 . S
C898 C897 1.389 . S
C898 C899 1.387 . S
C899 H884 0.930 . S
C899 C894 1.390 . S
C899 C898 1.387 . S
H900 C912 0.930 . S
H901 C914 0.930 . S
H902 C915 0.930 . S
H903 C919 0.959 . S
H904 C919 0.959 . S
H905 C919 0.961 . S
H906 C920 0.960 . S
H907 C920 0.961 . S
H908 C920 0.959 . S
H909 C923 0.929 . S
H910 C924 0.931 . S
H911 C926 0.930 . S
C912 H900 0.930 . S
C912 C913 1.399 . S
C912 C917 1.399 . S
C913 C912 1.399 . S
C913 C914 1.376 . S
C914 H901 0.930 . S
C914 C913 1.376 . S
C914 C915 1.388 . S
C915 H902 0.930 . S
C915 C914 1.388 . S
C915 C916 1.390 . S
C916 C915 1.390 . S
C916 C917 1.394 . S
C916 C922 1.465 . S
C917 C912 1.399 . S
C917 C916 1.394 . S
C917 C918 1.516 . S
C918 C917 1.516 . S
C918 C919 1.502 . S
C918 C920 1.561 . S
C918 C921 1.526 . S
C919 H903 0.959 . S
C919 H904 0.959 . S
C919 H905 0.961 . S
C919 C918 1.502 . S
C920 H906 0.960 . S
C920 H907 0.961 . S
C920 H908 0.959 . S
C920 C918 1.561 . S
C921 C918 1.526 . S
C921 C922 1.396 . S
C921 C926 1.390 . S
C922 C916 1.465 . S
C922 C921 1.396 . S
C922 C923 1.399 . S
C923 H909 0.929 . S
C923 C922 1.399 . S
C923 C924 1.385 . S
C924 H910 0.931 . S
C924 C923 1.385 . S
C924 C925 1.389 . S
C925 C924 1.389 . S
C925 C926 1.387 . S
C926 H911 0.930 . S
C926 C921 1.390 . S
C926 C925 1.387 . S
H927 C939 0.930 . S
H928 C941 0.930 . S
H929 C942 0.930 . S
H930 C946 0.959 . S
H931 C946 0.959 . S
H932 C946 0.961 . S
H933 C947 0.960 . S
H934 C947 0.961 . S
H935 C947 0.959 . S
H936 C950 0.929 . S
H937 C951 0.931 . S
H938 C953 0.930 . S
C939 H927 0.930 . S
C939 C940 1.399 . S
C939 C944 1.399 . S
C940 C939 1.399 . S
C940 C941 1.376 . S
C941 H928 0.930 . S
C941 C940 1.376 . S
C941 C942 1.388 . S
C942 H929 0.930 . S
C942 C941 1.388 . S
C942 C943 1.390 . S
C943 C942 1.390 . S
C943 C944 1.394 . S
C943 C949 1.465 . S
C944 C939 1.399 . S
C944 C943 1.394 . S
C944 C945 1.516 . S
C945 C944 1.516 . S
C945 C946 1.502 . S
C945 C947 1.561 . S
C945 C948 1.526 . S
C946 H930 0.959 . S
C946 H931 0.959 . S
C946 H932 0.961 . S
C946 C945 1.502 . S
C947 H933 0.960 . S
C947 H934 0.961 . S
C947 H935 0.959 . S
C947 C945 1.561 . S
C948 C945 1.526 . S
C948 C949 1.396 . S
C948 C953 1.390 . S
C949 C943 1.465 . S
C949 C948 1.396 . S
C949 C950 1.399 . S
C950 H936 0.929 . S
C950 C949 1.399 . S
C950 C951 1.385 . S
C951 H937 0.931 . S
C951 C950 1.385 . S
C951 C952 1.389 . S
C952 C951 1.389 . S
C952 C953 1.387 . S
C953 H938 0.930 . S
C953 C948 1.390 . S
C953 C952 1.387 . S
H954 C966 0.930 . S
H955 C968 0.930 . S
H956 C969 0.930 . S
H957 C973 0.959 . S
H958 C973 0.959 . S
H959 C973 0.961 . S
H960 C974 0.960 . S
H961 C974 0.961 . S
H962 C974 0.959 . S
H963 C977 0.929 . S
H964 C978 0.931 . S
H965 C980 0.930 . S
C966 H954 0.930 . S
C966 C967 1.399 . S
C966 C971 1.399 . S
C967 C966 1.399 . S
C967 C968 1.376 . S
C968 H955 0.930 . S
C968 C967 1.376 . S
C968 C969 1.388 . S
C969 H956 0.930 . S
C969 C968 1.388 . S
C969 C970 1.390 . S
C970 C969 1.390 . S
C970 C971 1.394 . S
C970 C976 1.449 1_554 S
C971 C966 1.399 . S
C971 C970 1.394 . S
C971 C972 1.516 . S
C972 C971 1.516 . S
C972 C973 1.502 . S
C972 C974 1.561 . S
C972 C975 1.526 . S
C973 H957 0.959 . S
C973 H958 0.959 . S
C973 H959 0.961 . S
C973 C972 1.502 . S
C974 H960 0.960 . S
C974 H961 0.961 . S
C974 H962 0.959 . S
C974 C972 1.561 . S
C975 C972 1.526 . S
C975 C976 1.393 1_554 S
C975 C980 1.390 1_554 S
C976 C970 1.449 1_556 S
C976 C975 1.393 1_556 S
C976 C977 1.416 . S
C977 H963 0.929 . S
C977 C976 1.416 . S
C977 C978 1.385 . S
C978 H964 0.931 . S
C978 C977 1.385 . S
C978 C979 1.389 . S
C979 C978 1.389 . S
C979 C980 1.387 . S
C980 H965 0.930 . S
C980 C975 1.390 1_556 S
C980 C979 1.387 . S
H981 C993 0.930 . S
H982 C995 0.930 . S
H983 C996 0.930 . S
H984 C1000 0.959 . S
H985 C1000 0.959 . S
H986 C1000 0.961 . S
H987 C1001 0.960 . S
H988 C1001 0.961 . S
H989 C1001 0.959 . S
H990 C1004 0.929 . S
H991 C1005 0.931 . S
H992 C1007 0.930 . S
C993 H981 0.930 . S
C993 C994 1.399 . S
C993 C998 1.399 . S
C994 C993 1.399 . S
C994 C995 1.376 . S
C995 H982 0.930 . S
C995 C994 1.376 . S
C995 C996 1.388 . S
C996 H983 0.930 . S
C996 C995 1.388 . S
C996 C997 1.390 . S
C997 C996 1.390 . S
C997 C998 1.394 . S
C997 C1003 1.465 . S
C998 C993 1.399 . S
C998 C997 1.394 . S
C998 C999 1.516 . S
C999 C998 1.516 . S
C999 C1000 1.502 . S
C999 C1001 1.561 . S
C999 C1002 1.526 . S
C1000 H984 0.959 . S
C1000 H985 0.959 . S
C1000 H986 0.961 . S
C1000 C999 1.502 . S
C1001 H987 0.960 . S
C1001 H988 0.961 . S
C1001 H989 0.959 . S
C1001 C999 1.561 . S
C1002 C999 1.526 . S
C1002 C1003 1.396 . S
C1002 C1007 1.390 . S
C1003 C997 1.465 . S
C1003 C1002 1.396 . S
C1003 C1004 1.399 . S
C1004 H990 0.929 . S
C1004 C1003 1.399 . S
C1004 C1005 1.385 . S
C1005 H991 0.931 . S
C1005 C1004 1.385 . S
C1005 C1006 1.389 . S
C1006 C1005 1.389 . S
C1006 C1007 1.387 . S
C1007 H992 0.930 . S
C1007 C1002 1.390 . S
C1007 C1006 1.387 . S
C385 C349 1.608 . S
C373 C15 1.555 . S
C400 C61 1.603 . S
C412 C279 1.593 . S
C427 C114 1.576 . S
C439 C298 1.631 . S
C454 C139 1.581 . S
C466 C307 1.615 . S
C493 C321 1.600 . S
C481 C185 1.575 . S
C508 C245 1.610 . S
C520 C340 1.615 . S
C535 C47 1.582 . S
C547 C293 1.561 . S
C562 C100 1.606 . S
C574 C312 1.587 . S
C589 C153 1.585 . S
C601 C326 1.589 . S
C628 C335 1.562 . S
C616 C199 1.560 . S
C655 C354 1.612 . S
C643 C231 1.568 . S
C682 C284 1.607 . S
C670 C1 1.569 . S
C697 C22 1.486 . S
C709 C299 1.480 . S
C724 C68 1.488 . S
C736 C311 1.474 . S
C763 C325 1.438 . S
C751 C107 1.481 . S
C778 C146 1.478 . S
C790 C341 1.460 . S
C817 C353 1.477 . S
C805 C192 1.484 . S
C844 C283 1.486 . S
C832 C252 1.486 . S
C871 C355 1.492 . S
C859 C54 1.486 . S
C886 C93 1.505 . S
C898 C285 1.501 . S
C925 C297 1.490 . S
C913 C160 1.494 . S
C940 C206 1.500 . S
C952 C313 1.469 . S
C967 C238 1.498 . S
C979 C327 1.475 . S
C994 C8 1.492 . S
C1006 C339 1.445 . S
