# Generated by pormake.
# Topology pyr, (3,6)-cn, num edge types: 1
# Building blocks:
#     Node 0, Type 0, BuildingBlock: ESEHIV_clean_linker_0, # of connection points: 3
#     Node 1, Type 0, BuildingBlock: ESEHIV_clean_linker_0, # of connection points: 3
#     Node 2, Type 0, BuildingBlock: ESEHIV_clean_linker_0, # of connection points: 3
#     Node 3, Type 0, BuildingBlock: ESEHIV_clean_linker_0, # of connection points: 3
#     Node 4, Type 0, BuildingBlock: ESEHIV_clean_linker_0, # of connection points: 3
#     Node 5, Type 0, BuildingBlock: ESEHIV_clean_linker_0, # of connection points: 3
#     Node 6, Type 0, BuildingBlock: ESEHIV_clean_linker_0, # of connection points: 3
#     Node 7, Type 0, BuildingBlock: ESEHIV_clean_linker_0, # of connection points: 3
#     Node 8, Type 1, BuildingBlock: BETGAK_clean_sbu_0, # of connection points: 6
#     Node 9, Type 1, BuildingBlock: BETGAK_clean_sbu_0, # of connection points: 6
#     Node 10, Type 1, BuildingBlock: BETGAK_clean_sbu_0, # of connection points: 6
#     Node 11, Type 1, BuildingBlock: BETGAK_clean_sbu_0, # of connection points: 6
#     Edge 12, Type (0, 1), BuildingBlock: KIFKEQ_clean_linker_1, # of connection points: 2
#     Edge 13, Type (0, 1), BuildingBlock: KIFKEQ_clean_linker_1, # of connection points: 2
#     Edge 14, Type (0, 1), BuildingBlock: KIFKEQ_clean_linker_1, # of connection points: 2
#     Edge 15, Type (0, 1), BuildingBlock: KIFKEQ_clean_linker_1, # of connection points: 2
#     Edge 16, Type (0, 1), BuildingBlock: KIFKEQ_clean_linker_1, # of connection points: 2
#     Edge 17, Type (0, 1), BuildingBlock: KIFKEQ_clean_linker_1, # of connection points: 2
#     Edge 18, Type (0, 1), BuildingBlock: KIFKEQ_clean_linker_1, # of connection points: 2
#     Edge 19, Type (0, 1), BuildingBlock: KIFKEQ_clean_linker_1, # of connection points: 2
#     Edge 20, Type (0, 1), BuildingBlock: KIFKEQ_clean_linker_1, # of connection points: 2
#     Edge 21, Type (0, 1), BuildingBlock: KIFKEQ_clean_linker_1, # of connection points: 2
#     Edge 22, Type (0, 1), BuildingBlock: KIFKEQ_clean_linker_1, # of connection points: 2
#     Edge 23, Type (0, 1), BuildingBlock: KIFKEQ_clean_linker_1, # of connection points: 2
#     Edge 24, Type (0, 1), BuildingBlock: KIFKEQ_clean_linker_1, # of connection points: 2
#     Edge 25, Type (0, 1), BuildingBlock: KIFKEQ_clean_linker_1, # of connection points: 2
#     Edge 26, Type (0, 1), BuildingBlock: KIFKEQ_clean_linker_1, # of connection points: 2
#     Edge 27, Type (0, 1), BuildingBlock: KIFKEQ_clean_linker_1, # of connection points: 2
#     Edge 28, Type (0, 1), BuildingBlock: KIFKEQ_clean_linker_1, # of connection points: 2
#     Edge 29, Type (0, 1), BuildingBlock: KIFKEQ_clean_linker_1, # of connection points: 2
#     Edge 30, Type (0, 1), BuildingBlock: KIFKEQ_clean_linker_1, # of connection points: 2
#     Edge 31, Type (0, 1), BuildingBlock: KIFKEQ_clean_linker_1, # of connection points: 2
#     Edge 32, Type (0, 1), BuildingBlock: KIFKEQ_clean_linker_1, # of connection points: 2
#     Edge 33, Type (0, 1), BuildingBlock: KIFKEQ_clean_linker_1, # of connection points: 2
#     Edge 34, Type (0, 1), BuildingBlock: KIFKEQ_clean_linker_1, # of connection points: 2
#     Edge 35, Type (0, 1), BuildingBlock: KIFKEQ_clean_linker_1, # of connection points: 2
# Relax obj value: 0.134
# Max RMSD: 0.130
# Mean RMSD: 0.063
data_MOF--net-pyr--node1-BETGAK_clean_sbu_0--node2-ESEHIV_clean_linker_0--edge1-KIFKEQ_clean_linker_1
_symmetry_space_group_name_H-M    P1
_symmetry_Int_Tables_number       1
_symmetry_cell_setting            triclinic
loop_
_symmetry_equiv_pos_as_xyz
'x, y, z'
_cell_length_a     36.583799
_cell_length_b     38.288219
_cell_length_c     33.934324
_cell_angle_alpha  90.137219
_cell_angle_beta   88.501153
_cell_angle_gamma 104.1673
loop_
_atom_site_label
_atom_site_type_symbol
_atom_site_fract_x
_atom_site_fract_y
_atom_site_fract_z
_atom_type_partial_charge
H0 H 0.319 0.36519 0.26986 0.0
H1 H 0.36173 0.27537 0.30447 0.0
H2 H 0.3825 0.31768 0.1865 0.0
C3 C 0.33571 0.34605 0.2633 0.0
C4 C 0.35051 0.34467 0.22493 0.0
C5 C 0.33757 0.31996 0.29159 0.0
C6 C 0.35978 0.29556 0.28292 0.0
C7 C 0.37721 0.29518 0.24545 0.0
C8 C 0.3719 0.31956 0.21636 0.0
H9 H 0.27406 0.94201 0.66375 0.0
H10 H 0.32428 0.85196 0.65962 0.0
H11 H 0.27066 0.88027 0.55709 0.0
C12 C 0.28131 0.92025 0.64724 0.0
C13 C 0.27003 0.91394 0.60817 0.0
C14 C 0.30097 0.89816 0.66584 0.0
C15 C 0.30863 0.86887 0.64543 0.0
C16 C 0.29783 0.86245 0.60609 0.0
C17 C 0.27874 0.88513 0.58751 0.0
H18 H 0.70191 0.34944 0.9443 0.0
H19 H 0.70477 0.43942 0.86878 0.0
H20 H 0.6087 0.34772 0.86854 0.0
C21 C 0.6883 0.3621 0.92246 0.0
C22 C 0.6526 0.34396 0.90873 0.0
C23 C 0.7068 0.39675 0.90904 0.0
C24 C 0.68987 0.41316 0.87987 0.0
C25 C 0.65478 0.39547 0.86401 0.0
C26 C 0.63631 0.36091 0.87909 0.0
H27 H 0.83799 0.73547 0.44214 0.0
H28 H 0.92668 0.74018 0.35546 0.0
H29 H 0.83501 0.64481 0.36624 0.0
C30 C 0.85075 0.72258 0.41895 0.0
C31 C 0.83233 0.68757 0.40697 0.0
C32 C 0.88506 0.74168 0.40132 0.0
C33 C 0.90048 0.72557 0.36945 0.0
C34 C 0.88245 0.69062 0.35587 0.0
C35 C 0.84838 0.67202 0.37514 0.0
H36 H 0.67016 0.8496 0.86462 0.0
H37 H 0.73798 0.77389 0.8793 0.0
H38 H 0.66689 0.79349 0.97501 0.0
C39 C 0.67801 0.82904 0.88207 0.0
C40 C 0.66428 0.82286 0.92118 0.0
C41 C 0.7048 0.81159 0.86669 0.0
C42 C 0.71573 0.78592 0.89003 0.0
C43 C 0.70222 0.7791 0.929 0.0
C44 C 0.67645 0.7977 0.94449 0.0
H45 H 0.7477 0.27683 0.44364 0.0
H46 H 0.84072 0.22735 0.4255 0.0
H47 H 0.79162 0.23083 0.54131 0.0
C48 C 0.7686 0.26401 0.45497 0.0
C49 C 0.76758 0.25598 0.49535 0.0
C50 C 0.79506 0.25425 0.42914 0.0
C51 C 0.82048 0.23596 0.44467 0.0
C52 C 0.81908 0.22738 0.48496 0.0
C53 C 0.79332 0.23827 0.51036 0.0
H54 H 0.34101 0.7494 0.20822 0.0
H55 H 0.33428 0.66095 0.28781 0.0
H56 H 0.42652 0.75536 0.29474 0.0
C57 C 0.35226 0.73798 0.23295 0.0
C58 C 0.38599 0.75731 0.24987 0.0
C59 C 0.33328 0.70341 0.24638 0.0
C60 C 0.34868 0.68763 0.2774 0.0
C61 C 0.38256 0.70605 0.29499 0.0
C62 C 0.40099 0.74082 0.28083 0.0
H63 H 0.11128 0.35914 0.78652 0.0
H64 H 0.20046 0.36684 0.69973 0.0
H65 H 0.20371 0.45426 0.78015 0.0
C66 C 0.13763 0.37418 0.7732 0.0
C67 C 0.15592 0.40843 0.78859 0.0
C68 C 0.15308 0.35938 0.7403 0.0
C69 C 0.18769 0.37885 0.72367 0.0
C70 C 0.20638 0.41307 0.73759 0.0
C71 C 0.19018 0.42749 0.77008 0.0
La72 La 1.02147 0.07249 0.52492 0.0
La73 La 0.02271 1.03461 0.60144 0.0
C74 C 1.01631 0.11632 0.47174 0.0
C75 C 0.04521 0.14846 0.45818 0.0
C76 C 0.06499 0.14682 0.4225 0.0
C77 C 0.09853 0.17233 0.41381 0.0
C78 C 0.1126 0.2003 0.44031 0.0
C79 C 0.09124 0.20393 0.47431 0.0
C80 C 0.05781 0.17809 0.48329 0.0
C81 C 0.08364 1.05173 0.53608 0.0
C82 C 0.05101 0.11764 0.6035 0.0
C83 C 0.02725 0.99134 0.65558 0.0
C84 C 0.99843 0.95972 0.66929 0.0
C85 C 0.96632 0.94694 0.6467 0.0
C86 C 0.93451 0.92318 0.66313 0.0
C87 C 0.9342 0.912 0.70256 0.0
C88 C 0.96754 0.92261 0.72404 0.0
C89 C 0.99939 0.9465 0.70755 0.0
C90 C 0.95981 1.05457 0.5874 0.0
C91 C 0.9942 0.98892 0.52333 0.0
O92 O 0.0251 0.08571 0.46486 0.0
O93 O 1.00204 0.11732 0.5074 0.0
O94 O 0.06989 1.05436 0.50196 0.0
O95 O 0.06512 0.06397 0.56194 0.0
O96 O 0.03482 0.1169 0.56875 0.0
O97 O 0.05604 0.08753 0.61911 0.0
O98 O 1.01785 1.02175 0.66161 0.0
O99 O 0.04117 0.98952 0.61992 0.0
O100 O 0.97337 1.05405 0.62205 0.0
O101 O 0.97982 1.04214 0.56369 0.0
O102 O 1.01048 0.9901 0.55802 0.0
O103 O 0.98896 1.01887 0.50732 0.0
H104 H 0.05582 0.12448 0.40248 0.0
H105 H 0.11421 0.1695 0.38694 0.0
H106 H 0.10142 0.22554 0.49494 0.0
H107 H 0.04305 0.18032 0.51087 0.0
H108 H 0.96483 0.95729 0.61727 0.0
H109 H 0.90927 0.91586 0.64591 0.0
H110 H 0.96832 0.91396 0.75431 0.0
H111 H 0.02385 0.9563 0.72545 0.0
La112 La 0.55735 0.06643 0.10595 0.0
La113 La 0.48225 1.04434 0.07136 0.0
C114 C 0.62234 0.09586 0.12876 0.0
C115 C 0.64562 0.1298 0.14329 0.0
C116 C 0.683 0.13109 0.15206 0.0
C117 C 0.70532 0.16146 0.16967 0.0
C118 C 0.69068 0.19136 0.17878 0.0
C119 C 0.65356 0.19065 0.16795 0.0
C120 C 0.63109 0.15996 0.15034 0.0
C121 C 0.51775 1.00126 0.12858 0.0
C122 C 0.49292 0.0994 0.14167 0.0
C123 C 0.41507 1.01942 1.05224 0.0
C124 C 0.39776 1.00632 1.01465 0.0
C125 C 0.4069 1.02712 0.98012 0.0
C126 C 0.39288 1.01318 0.94407 0.0
C127 C 0.3698 0.97809 0.94175 0.0
C128 C 0.36033 0.95739 0.9763 0.0
C129 C 0.37407 0.97151 1.01255 0.0
C130 C 0.53086 0.09765 1.03259 0.0
C131 C 0.54609 1.0127 1.03617 0.0
O132 O 0.59491 0.07862 0.15237 0.0
O133 O 0.61251 0.09537 0.09186 0.0
O134 O 0.55374 1.01023 0.12223 0.0
O135 O 0.50522 1.02883 0.12399 0.0
O136 O 0.5297 0.10253 0.13857 0.0
O137 O 0.46885 0.07532 0.12111 0.0
O138 O 0.43092 1.05397 1.05438 0.0
O139 O 0.43591 0.99974 1.06734 0.0
O140 O 0.50643 0.07202 1.01591 0.0
O141 O 0.52639 0.09305 1.06916 0.0
O142 O 0.50969 1.00545 1.0448 0.0
O143 O 0.5694 1.04122 1.05112 0.0
H144 H 0.69456 0.10795 0.1467 0.0
H145 H 0.73334 0.16046 0.17826 0.0
H146 H 0.6415 0.21329 0.17425 0.0
H147 H 0.60221 0.15934 0.14333 0.0
H148 H 0.42555 1.05386 0.9807 0.0
H149 H 0.40102 1.02951 0.91776 0.0
H150 H 0.34242 0.93032 0.97524 0.0
H151 H 0.3669 0.95497 1.03882 0.0
La152 La 0.51751 0.52079 0.55277 0.0
La153 La 0.52525 0.58276 0.60205 0.0
C154 C 0.5299 0.46732 0.51662 0.0
C155 C 0.55169 0.44187 0.5284 0.0
C156 C 0.54011 0.40554 0.51795 0.0
C157 C 0.55994 0.38106 0.53103 0.0
C158 C 0.59128 0.39257 0.5553 0.0
C159 C 0.60212 0.42896 0.56627 0.0
C160 C 0.58291 0.45341 0.55247 0.0
C161 C 0.45415 0.52292 0.59093 0.0
C162 C 0.54971 0.52007 0.64086 0.0
C163 C 0.51327 0.63753 0.63508 0.0
C164 C 0.49304 0.66287 0.61886 0.0
C165 C 0.50565 0.68183 0.58355 0.0
C166 C 0.48251 0.69992 0.56416 0.0
C167 C 0.4463 0.69885 0.57945 0.0
C168 C 0.43434 0.68115 0.61544 0.0
C169 C 0.45759 0.6635 0.63508 0.0
C170 C 0.58831 0.5805 0.56272 0.0
C171 C 0.49096 0.58339 0.51555 0.0
O172 O 0.49937 0.46606 0.53793 0.0
O173 O 0.54944 0.50042 0.51043 0.0
O174 O 0.45629 0.51286 0.55462 0.0
O175 O 0.48689 0.53075 0.60479 0.0
O176 O 0.5479 0.50705 0.60443 0.0
O177 O 0.53816 0.54941 0.64867 0.0
O178 O 0.54549 0.637 0.61782 0.0
O179 O 0.49228 0.60503 0.64159 0.0
O180 O 0.58662 0.59029 0.59917 0.0
O181 O 0.55534 0.5729 0.54958 0.0
O182 O 0.49303 0.59612 0.55199 0.0
O183 O 0.5032 0.55453 0.50706 0.0
H184 H 0.51593 0.39617 0.49955 0.0
H185 H 0.55127 0.3534 0.52126 0.0
H186 H 0.62565 0.43875 0.58538 0.0
H187 H 0.59251 0.48139 0.56087 0.0
H188 H 0.53271 0.68156 0.57001 0.0
H189 H 0.49238 0.71374 0.53664 0.0
H190 H 0.40686 0.68086 0.62835 0.0
H191 H 0.4472 0.64899 0.6621 0.0
La192 La 0.02554 0.51594 0.09152 0.0
La193 La 1.01872 0.58345 1.0572 0.0
C194 C 0.03597 0.45415 0.10302 0.0
C195 C 0.0715 0.44284 0.10588 0.0
C196 C 0.07296 0.41205 0.12734 0.0
C197 C 0.10736 0.40265 0.13145 0.0
C198 C 0.14088 0.42377 0.11384 0.0
C199 C 0.13892 0.45436 0.09193 0.0
C200 C 0.10476 0.46397 0.08848 0.0
C201 C 0.99827 0.55745 0.14182 0.0
C202 C 0.09353 0.5817 0.10331 0.0
C203 C 1.00943 0.64569 1.04572 0.0
C204 C 0.97488 0.65828 1.04118 0.0
C205 C 0.97626 0.69112 1.02245 0.0
C206 C 0.94308 0.7024 1.01717 0.0
C207 C 0.90796 0.68102 1.03074 0.0
C208 C 0.90696 0.64825 1.04986 0.0
C209 C 0.94001 0.63691 1.05474 0.0
C210 C 0.0452 0.54162 1.00673 0.0
C211 C 0.95061 0.51762 1.04556 0.0
O212 O 0.02908 0.47494 0.1314 0.0
O213 O 0.02961 0.4661 1.06841 0.0
O214 O 1.02027 0.53711 0.15098 0.0
O215 O 0.99014 0.55229 0.10591 0.0
O216 O 0.08304 0.54628 0.1014 0.0
O217 O 0.07182 0.60164 0.08936 0.0
O218 O 1.01705 0.62512 1.01748 0.0
O219 O 1.01359 0.63285 0.08055 0.0
O220 O 0.02297 0.56182 0.99786 0.0
O221 O 0.05395 0.54703 1.0425 0.0
O222 O 0.96123 0.55308 1.04717 0.0
O223 O 0.97225 0.49765 1.05967 0.0
H224 H 0.04767 0.39566 0.14147 0.0
H225 H 0.10775 0.37933 0.14925 0.0
H226 H 0.16379 0.47107 0.07744 0.0
H227 H 0.1044 0.48824 0.07253 0.0
H228 H 1.0029 0.70781 1.01148 0.0
H229 H 0.94489 0.72748 1.00169 0.0
H230 H 0.88062 0.63129 1.06117 0.0
H231 H 0.93828 0.6113 1.06895 0.0
H232 H 0.26594 0.33013 0.29481 0.0
H233 H 0.3461 0.29386 0.36617 0.0
H234 H 0.21762 0.30988 0.34447 0.0
H235 H 0.29576 0.27115 0.41536 0.0
H236 H 0.17775 0.18027 0.42639 0.0
H237 H 0.23821 0.21826 0.40368 0.0
H238 H 0.19326 0.31224 0.41506 0.0
H239 H 0.13245 0.2739 0.43798 0.0
C240 C 0.274 0.31918 0.32168 0.0
C241 C 0.31044 0.31373 0.32604 0.0
C242 C 0.24584 0.30733 0.35029 0.0
C243 C 0.25287 0.28887 0.38371 0.0
C244 C 0.28965 0.28525 0.38966 0.0
C245 C 0.31832 0.29794 0.36128 0.0
C246 C 0.18111 0.20915 0.42479 0.0
C247 C 0.15042 0.22422 0.43301 0.0
C248 C 0.21583 0.23094 0.41236 0.0
C249 C 0.22034 0.26816 0.4075 0.0
C250 C 0.19042 0.28357 0.41854 0.0
C251 C 0.15572 0.26174 0.4315 0.0
H252 H 0.34122 0.96233 0.69235 0.0
H253 H 0.28982 0.85343 0.7301 0.0
H254 H 0.35748 0.97923 0.76001 0.0
H255 H 0.30527 0.87049 0.79852 0.0
H256 H 0.37232 0.91254 0.91138 0.0
H257 H 0.35686 0.89071 0.84453 0.0
H258 H 0.32225 0.98816 0.81853 0.0
H259 H 0.33834 1.01004 0.88479 0.0
C260 C 0.33347 0.94204 0.7153 0.0
C261 C 0.31395 0.90675 0.70631 0.0
C262 C 0.34254 0.95171 0.75403 0.0
C263 C 0.33194 0.92638 0.78471 0.0
C264 C 0.31382 0.89058 0.77549 0.0
C265 C 0.30498 0.8808 0.73647 0.0
C266 C 0.36093 0.92897 0.89141 0.0
C267 C 0.35682 0.96309 0.90298 0.0
C268 C 0.35212 0.91652 0.85321 0.0
C269 C 0.33893 0.93797 0.82609 0.0
C270 C 0.33334 0.97141 0.8384 0.0
C271 C 0.34234 0.98389 0.87635 0.0
H272 H 0.61358 0.36404 0.80021 0.0
H273 H 0.65709 0.46766 0.85407 0.0
H274 H 0.5874 0.39306 0.74771 0.0
H275 H 0.63294 0.49678 0.80059 0.0
H276 H 0.5563 0.53856 0.71917 0.0
H277 H 0.57951 0.50822 0.7725 0.0
H278 H 0.60113 0.42886 0.69028 0.0
H279 H 0.57637 0.4586 0.63729 0.0
C280 C 0.61757 0.393 0.80108 0.0
C281 C 0.63775 0.41324 0.83182 0.0
C282 C 0.60293 0.40984 0.77041 0.0
C283 C 0.60793 0.44757 0.76929 0.0
C284 C 0.62787 0.46772 0.80023 0.0
C285 C 0.64235 0.45091 0.8309 0.0
C286 C 0.56597 0.51465 0.71234 0.0
C287 C 0.56458 0.50135 0.67351 0.0
C288 C 0.57965 0.49721 0.74309 0.0
C289 C 0.59265 0.46589 0.73621 0.0
C290 C 0.59109 0.45253 0.6973 0.0
C291 C 0.57719 0.46991 0.66658 0.0
H292 H 0.95764 0.69353 0.33953 0.0
H293 H 0.84652 0.64723 0.29602 0.0
H294 H 0.98516 0.66398 0.28688 0.0
H295 H 0.874 0.61664 0.24407 0.0
H296 H 0.93829 0.58901 0.13368 0.0
H297 H 0.91096 0.62275 0.18322 0.0
H298 H 0.99194 0.60614 0.26706 0.0
H299 H 1.01942 0.57344 0.21738 0.0
C300 C 0.93894 0.67725 0.31867 0.0
C301 C 0.89962 0.67298 0.32254 0.0
C302 C 0.95481 0.65981 0.28852 0.0
C303 C 0.93202 0.63747 0.2609 0.0
C304 C 0.89273 0.63369 0.26432 0.0
C305 C 0.87684 0.65102 0.29461 0.0
C306 C 0.95047 0.59299 0.16252 0.0
C307 C 0.98128 0.57867 0.17127 0.0
C308 C 0.93455 0.61206 0.19124 0.0
C309 C 0.9491 0.61754 0.22957 0.0
C310 C 0.9801 0.60324 0.23798 0.0
C311 C 0.99579 0.58413 0.20942 0.0
H312 H 0.35641 0.22384 0.26628 0.0
H313 H 0.44238 0.30132 0.20117 0.0
H314 H 0.38724 0.1765 0.24829 0.0
H315 H 0.4723 0.25327 0.18138 0.0
H316 H 0.41949 0.09697 0.16043 0.0
H317 H 0.39399 0.14434 0.18907 0.0
H318 H 0.50691 0.21008 0.20398 0.0
H319 H 0.53266 0.16264 0.17425 0.0
C320 C 0.38219 0.23094 0.24851 0.0
C321 C 0.39703 0.26654 0.23536 0.0
C322 C 0.39962 0.2036 0.23775 0.0
C323 C 0.43216 0.21099 0.21323 0.0
C324 C 0.44751 0.2467 0.20067 0.0
C325 C 0.4301 0.27416 0.21159 0.0
C326 C 0.43901 0.12128 0.17026 0.0
C327 C 0.47814 0.12602 0.16486 0.0
C328 C 0.42434 0.14846 0.18692 0.0
C329 C 0.44838 0.18113 0.1987 0.0
C330 C 0.48762 0.18541 0.19473 0.0
C331 C 0.50237 0.15807 0.17808 0.0
H332 H 0.28128 0.98694 0.61329 0.0
H333 H 0.20814 0.89224 0.56279 0.0
H334 H 0.2385 1.02299 0.59278 0.0
H335 H 0.16612 0.92867 0.54127 0.0
H336 H 0.11641 1.01477 0.48368 0.0
H337 H 0.16571 0.98344 0.49622 0.0
H338 H 0.16939 1.01913 0.61722 0.0
H339 H 0.11978 1.05024 0.6048 0.0
C340 C 0.25631 0.97394 0.59744 0.0
C341 C 0.24771 0.9367 0.5901 0.0
C342 C 0.232 0.99456 0.58569 0.0
C343 C 0.19906 0.97839 0.56588 0.0
C344 C 0.19156 0.94168 0.55637 0.0
C345 C 0.21565 0.92092 0.56853 0.0
C346 C 0.12802 1.01612 0.51285 0.0
C347 C 0.11453 1.03478 0.54337 0.0
C348 C 0.15603 0.99818 0.51996 0.0
C349 C 0.17122 0.99911 0.55755 0.0
C350 C 0.1583 1.01847 0.58786 0.0
C351 C 0.12992 1.03604 0.58087 0.0
H352 H 0.72732 0.46563 0.93785 0.0
H353 H 0.76911 0.3706 0.92069 0.0
H354 H 0.78472 0.49459 0.97191 0.0
H355 H 0.8272 0.39977 0.95318 0.0
H356 H 0.91276 0.44596 1.04584 0.0
H357 H 0.8544 0.41778 1.01315 0.0
H358 H 0.84863 0.5217 0.9679 0.0
H359 H 0.9058 0.54984 1.00215 0.0
C360 C 0.74913 0.45117 0.94073 0.0
C361 C 0.74349 0.41575 0.92659 0.0
C362 C 0.78225 0.46779 0.96029 0.0
C363 C 0.81104 0.44968 0.96584 0.0
C364 C 0.80562 0.41451 0.95063 0.0
C365 C 0.77231 0.39777 0.93159 0.0
C366 C 0.89886 0.46281 1.02915 0.0
C367 C 0.91411 0.50024 1.02685 0.0
C368 C 0.86541 0.44658 1.00995 0.0
C369 C 0.84639 0.46719 0.98734 0.0
C370 C 0.86171 0.50472 0.98535 0.0
C371 C 0.89485 0.52096 1.00495 0.0
H372 H 0.76871 0.6401 0.37795 0.0
H373 H 0.81511 0.6891 0.48626 0.0
H374 H 0.71088 0.61 0.41392 0.0
H375 H 0.75695 0.66168 0.52126 0.0
H376 H 0.66035 0.59013 0.58699 0.0
H377 H 0.71888 0.61101 0.54883 0.0
H378 H 0.655 0.61649 0.44456 0.0
H379 H 0.59645 0.59346 0.48278 0.0
C380 C 0.76675 0.64452 0.40937 0.0
C381 C 0.7969 0.66756 0.4288 0.0
C382 C 0.73318 0.62756 0.43007 0.0
C383 C 0.72857 0.63317 0.47088 0.0
C384 C 0.75902 0.65585 0.49019 0.0
C385 C 0.79253 0.67235 0.46971 0.0
C386 C 0.65887 0.59541 0.55579 0.0
C387 C 0.62372 0.5903 0.53804 0.0
C388 C 0.69256 0.60784 0.53379 0.0
C389 C 0.69229 0.61638 0.49335 0.0
C390 C 0.65687 0.6101 0.47537 0.0
C391 C 0.6231 0.597 0.49735 0.0
H392 H 0.32055 0.31676 0.15547 0.0
H393 H 0.34445 0.4145 0.2239 0.0
H394 H 0.27584 0.33937 0.11723 0.0
H395 H 0.29807 0.43617 0.18772 0.0
H396 H 0.21066 0.47034 0.12167 0.0
H397 H 0.27026 0.45581 0.13406 0.0
H398 H 0.21428 0.34239 0.13446 0.0
H399 H 0.15541 0.35682 0.11871 0.0
C400 C 0.31732 0.34366 0.16143 0.0
C401 C 0.33549 0.36356 0.19327 0.0
C402 C 0.29102 0.35635 0.14002 0.0
C403 C 0.28211 0.38901 0.15028 0.0
C404 C 0.30381 0.41082 0.1789 0.0
C405 C 0.33046 0.39835 0.19987 0.0
C406 C 0.21115 0.44222 0.12323 0.0
C407 C 0.17788 0.41478 0.11944 0.0
C408 C 0.24543 0.4339 0.13088 0.0
C409 C 0.24733 0.39791 0.13562 0.0
C410 C 0.21431 0.37044 0.13048 0.0
C411 C 0.18016 0.37875 0.12224 0.0
H412 H 0.6553 0.31966 0.98484 0.0
H413 H 0.60393 0.28547 0.8735 0.0
H414 H 0.62883 0.26086 1.01222 0.0
H415 H 0.57354 0.22714 0.90256 0.0
H416 H 0.54826 0.11282 0.95414 0.0
H417 H 0.57697 0.17133 0.92383 0.0
H418 H 0.57915 0.22134 1.03856 0.0
H419 H 0.55347 0.16281 1.06844 0.0
C420 C 0.6383 0.29968 0.96592 0.0
C421 C 0.63275 0.3078 0.92633 0.0
C422 C 0.6221 0.26566 0.98219 0.0
C423 C 0.59845 0.2384 0.96011 0.0
C424 C 0.59197 0.24674 0.92073 0.0
C425 C 0.609 0.28073 0.90408 0.0
C426 C 0.55535 0.13642 0.97274 0.0
C427 C 0.54886 0.13305 1.01372 0.0
C428 C 0.5715 0.17024 0.95534 0.0
C429 C 0.58089 0.20187 0.97835 0.0
C430 C 0.57369 0.19811 1.01943 0.0
C431 C 0.5585 0.1643 1.0368 0.0
H432 H 0.8932 0.76176 0.47876 0.0
H433 H 0.92094 0.80435 0.3612 0.0
H434 H 0.91953 0.82087 0.50621 0.0
H435 H 0.94883 0.86389 0.38894 0.0
H436 H 0.95735 0.97375 0.45284 0.0
H437 H 0.93342 0.91486 0.42226 0.0
H438 H 0.97618 0.86408 0.51834 0.0
H439 H 0.99916 0.92246 0.54911 0.0
C440 C 0.90507 0.78375 0.45862 0.0
C441 C 0.90448 0.77801 0.41757 0.0
C442 C 0.92068 0.81783 0.47451 0.0
C443 C 0.93654 0.84763 0.45003 0.0
C444 C 0.93656 0.84188 0.40889 0.0
C445 C 0.92094 0.80754 0.39291 0.0
C446 C 0.96165 0.95001 0.46745 0.0
C447 C 0.98008 0.95313 0.50371 0.0
C448 C 0.94812 0.91612 0.4497 0.0
C449 C 0.95252 0.88427 0.46771 0.0
C450 C 0.97147 0.88763 0.5037 0.0
C451 C 0.98495 0.92138 0.52137 0.0
H452 H 0.28408 0.79234 0.6277 0.0
H453 H 0.33611 0.867 0.53565 0.0
H454 H 0.314 0.74737 0.60022 0.0
H455 H 0.3662 0.8217 0.50757 0.0
H456 H 0.37276 0.672 0.56133 0.0
H457 H 0.32747 0.70759 0.54759 0.0
H458 H 0.41868 0.80367 0.54003 0.0
H459 H 0.46366 0.76803 0.55318 0.0
C460 C 0.30106 0.7986 0.60081 0.0
C461 C 0.30852 0.83312 0.58416 0.0
C462 C 0.31785 0.77275 0.58469 0.0
C463 C 0.34274 0.78115 0.55185 0.0
C464 C 0.34731 0.81464 0.533 0.0
C465 C 0.33014 0.84046 0.54901 0.0
C466 C 0.38306 0.70056 0.55535 0.0
C467 C 0.42133 0.71766 0.55951 0.0
C468 C 0.35725 0.72084 0.54731 0.0
C469 C 0.36945 0.75847 0.5438 0.0
C470 C 0.40837 0.77471 0.54258 0.0
C471 C 0.43419 0.75437 0.55038 0.0
H472 H 0.7313 0.88162 0.84347 0.0
H473 H 0.73155 0.77287 0.80908 0.0
H474 H 0.78295 0.9049 0.79707 0.0
H475 H 0.78497 0.79642 0.76396 0.0
H476 H 0.87667 0.85779 0.67463 0.0
H477 H 0.81435 0.83374 0.70578 0.0
H478 H 0.84817 0.90197 0.80663 0.0
H479 H 0.90928 0.92665 0.77534 0.0
C480 C 0.74144 0.86262 0.82513 0.0
C481 C 0.72768 0.82528 0.8306 0.0
C482 C 0.77156 0.87602 0.79895 0.0
C483 C 0.78881 0.85244 0.77795 0.0
C484 C 0.77249 0.81525 0.78006 0.0
C485 C 0.74203 0.80178 0.80607 0.0
C486 C 0.87066 0.86755 0.70348 0.0
C487 C 0.89799 0.89399 0.72261 0.0
C488 C 0.83507 0.85377 0.72126 0.0
C489 C 0.82616 0.86648 0.75828 0.0
C490 C 0.85383 0.89225 0.77765 0.0
C491 C 0.88921 0.90588 0.76004 0.0
H492 H 0.77581 0.30987 0.38967 0.0
H493 H 0.80801 0.20957 0.36979 0.0
H494 H 0.75711 0.30972 0.32104 0.0
H495 H 0.79204 0.21126 0.30123 0.0
H496 H 0.76716 0.22122 0.17771 0.0
H497 H 0.80305 0.25022 0.23362 0.0
H498 H 0.6996 0.25648 0.29388 0.0
H499 H 0.66351 0.22588 0.2394 0.0
C500 C 0.77978 0.28826 0.37068 0.0
C501 C 0.79263 0.25925 0.38581 0.0
C502 C 0.76954 0.28857 0.3313 0.0
C503 C 0.77323 0.26055 0.30605 0.0
C504 C 0.78947 0.2335 0.32004 0.0
C505 C 0.79873 0.23263 0.35953 0.0
C506 C 0.75207 0.22954 0.20248 0.0
C507 C 0.71236 0.22004 0.20465 0.0
C508 C 0.7727 0.24643 0.23423 0.0
C509 C 0.75396 0.25502 0.26808 0.0
C510 C 0.71468 0.25022 0.26795 0.0
C511 C 0.69398 0.23267 0.23658 0.0
H512 H 0.346 0.67224 0.36158 0.0
H513 H 0.45565 0.70114 0.30373 0.0
H514 H 0.37211 0.64387 0.41523 0.0
H515 H 0.48166 0.67237 0.35707 0.0
H516 H 0.50039 0.57838 0.43542 0.0
H517 H 0.47484 0.60881 0.38335 0.0
H518 H 0.41919 0.66074 0.47116 0.0
H519 H 0.44509 0.6305 0.5234 0.0
C520 C 0.37567 0.67246 0.36022 0.0
C521 C 0.39865 0.689 0.32816 0.0
C522 C 0.39071 0.6564 0.39116 0.0
C523 C 0.42905 0.65569 0.39059 0.0
C524 C 0.45199 0.67214 0.35846 0.0
C525 C 0.43712 0.68885 0.32795 0.0
C526 C 0.4827 0.59626 0.44373 0.0
C527 C 0.47493 0.60192 0.48379 0.0
C528 C 0.46821 0.61393 0.41379 0.0
C529 C 0.4449 0.63733 0.42287 0.0
C530 C 0.43681 0.64277 0.46295 0.0
C531 C 0.45188 0.62557 0.49296 0.0
H532 H 0.19276 0.45093 0.84862 0.0
H533 H 0.08073 0.40423 0.8076 0.0
H534 H 0.16644 0.48144 0.90113 0.0
H535 H 0.05423 0.43317 0.86148 0.0
H536 H 1.01957 0.52177 0.93347 0.0
H537 H 0.04554 0.4887 0.88306 0.0
H538 H 0.13326 0.47855 0.96188 0.0
H539 H 0.10793 0.5135 1.01156 0.0
C540 C 0.16244 0.44697 0.8507 0.0
C541 C 0.13915 0.4251 0.82305 0.0
C542 C 0.14718 0.46423 0.88146 0.0
C543 C 0.10794 0.46027 0.88602 0.0
C544 C 0.08459 0.43769 0.85896 0.0
C545 C 0.09987 0.42049 0.8281 0.0
C546 C 0.04438 0.51242 0.94015 0.0
C547 C 0.06127 0.51993 0.97702 0.0
C548 C 0.0592 0.49301 0.91118 0.0
C549 C 0.0916 0.48031 0.91792 0.0
C550 C 0.10849 0.48785 0.95503 0.0
C551 C 0.0936 0.50744 0.98403 0.0
H552 H 0.60378 0.84288 0.89062 0.0
H553 H 0.67591 0.8582 0.99118 0.0
H554 H 0.57369 0.88929 0.91585 0.0
H555 H 0.64557 0.90395 1.01656 0.0
H556 H 0.62022 1.01399 1.02204 0.0
H557 H 0.64601 0.96627 0.99395 0.0
H558 H 0.53339 0.90265 0.97314 0.0
H559 H 0.50732 0.95052 1.00118 0.0
C560 C 0.61278 0.8558 0.91837 0.0
C561 C 0.64214 0.84688 0.93896 0.0
C562 C 0.59553 0.88224 0.93282 0.0
C563 C 0.60765 0.90053 0.96788 0.0
C564 C 0.63606 0.89069 0.98912 0.0
C565 C 0.65305 0.86411 0.97489 0.0
C566 C 0.60088 0.99009 1.01103 0.0
C567 C 0.56168 0.98602 1.01407 0.0
C568 C 0.61568 0.9626 0.99527 0.0
C569 C 0.59167 0.93053 0.98195 0.0
C570 C 0.55254 0.92709 0.98321 0.0
C571 C 0.53767 0.95452 0.99928 0.0
H572 H 0.8132 0.15944 0.46057 0.0
H573 H 0.87014 0.23842 0.54355 0.0
H574 H 0.84217 0.11477 0.48867 0.0
H575 H 0.90149 0.19444 0.57045 0.0
H576 H 0.92908 0.10015 0.63231 0.0
H577 H 0.89266 0.14126 0.60852 0.0
H578 H 0.89949 0.09987 0.49043 0.0
H579 H 0.93316 0.0577 0.51474 0.0
C580 C 0.83277 0.16732 0.48429 0.0
C581 C 0.84011 0.20224 0.49964 0.0
C582 C 0.84939 0.14182 0.50044 0.0
C583 C 0.87439 0.151 0.53174 0.0
C584 C 0.88192 0.18625 0.54684 0.0
C585 C 0.86453 0.21158 0.53117 0.0
C586 C 0.92189 0.09949 0.60151 0.0
C587 C 0.934 0.0761 0.57524 0.0
C588 C 0.90156 0.12329 0.58773 0.0
C589 C 0.89343 0.12416 0.54744 0.0
C590 C 0.9046 0.09969 0.5217 0.0
C591 C 0.9242 0.07562 0.53557 0.0
H592 H 0.31387 0.63411 0.21807 0.0
H593 H 0.2719 0.72946 0.23089 0.0
H594 H 0.2577 0.60488 0.18207 0.0
H595 H 0.21499 0.70004 0.19668 0.0
H596 H 0.13166 0.65326 0.1028 0.0
H597 H 0.18933 0.68153 0.13656 0.0
H598 H 0.1939 0.57782 0.18345 0.0
H599 H 0.13749 0.54957 0.14802 0.0
C600 C 0.29229 0.6486 0.21377 0.0
C601 C 0.2975 0.68417 0.22728 0.0
C602 C 0.25986 0.63182 0.19312 0.0
C603 C 0.23136 0.64993 0.18587 0.0
C604 C 0.23638 0.68527 0.20045 0.0
C605 C 0.269 0.70216 0.22051 0.0
C606 C 0.14517 0.63646 0.12005 0.0
C607 C 0.12979 0.59908 0.12248 0.0
C608 C 0.17822 0.65275 0.1399 0.0
C609 C 0.19667 0.63226 0.16337 0.0
C610 C 0.18128 0.59474 0.1654 0.0
C611 C 0.14857 0.57842 0.14511 0.0
H612 H 0.22541 0.41487 0.65851 0.0
H613 H 0.26957 0.45826 0.76998 0.0
H614 H 0.28456 0.44323 0.62583 0.0
H615 H 0.32832 0.48944 0.73646 0.0
H616 H 0.44415 0.50721 0.6702 0.0
H617 H 0.38457 0.48353 0.70645 0.0
H618 H 0.32364 0.49487 0.60163 0.0
H619 H 0.38313 0.51626 0.56532 0.0
C620 C 0.24768 0.43058 0.67624 0.0
C621 C 0.24241 0.43355 0.71728 0.0
C622 C 0.28176 0.44765 0.65715 0.0
C623 C 0.31183 0.46909 0.67811 0.0
C624 C 0.30632 0.47287 0.71909 0.0
C625 C 0.27221 0.45531 0.73837 0.0
C626 C 0.41792 0.50485 0.65513 0.0
C627 C 0.41834 0.51325 0.61478 0.0
C628 C 0.38357 0.49137 0.67596 0.0
C629 C 0.3487 0.48647 0.65713 0.0
C630 C 0.34951 0.49689 0.61718 0.0
C631 C 0.38374 0.50963 0.59629 0.0
H632 H 0.73162 0.79627 1.00175 0.0
H633 H 0.71594 0.7137 0.91262 0.0
H634 H 0.77615 0.76868 1.03463 0.0
H635 H 0.76153 0.68705 0.94421 0.0
H636 H 0.83892 0.63839 1.01163 0.0
H637 H 0.7817 0.65701 0.99736 0.0
H638 H 0.83984 0.76796 1.01764 0.0
H639 H 0.89633 0.74909 1.03437 0.0
C640 C 0.73681 0.7716 0.98987 0.0
C641 C 0.7206 0.7573 0.95441 0.0
C642 C 0.7628 0.75611 1.00833 0.0
C643 C 0.77312 0.7261 0.99162 0.0
C644 C 0.75429 0.71003 0.95808 0.0
C645 C 0.72823 0.7254 0.93979 0.0
C646 C 0.8393 0.66668 1.01402 0.0
C647 C 0.87244 0.69226 1.02393 0.0
C648 C 0.80652 0.6774 1.0054 0.0
C649 C 0.80609 0.71401 1.00612 0.0
C650 C 0.83887 0.73947 1.01726 0.0
C651 C 0.87157 0.72872 1.02618 0.0
H652 H 0.35352 0.80997 0.22167 0.0
H653 H 0.46238 0.78972 0.24321 0.0
H654 H 0.38401 0.86737 0.19161 0.0
H655 H 0.49299 0.84865 0.21613 0.0
H656 H 0.54052 0.93895 0.12918 0.0
H657 H 0.50887 0.8813 0.15867 0.0
H658 H 0.41699 0.92652 0.19836 0.0
H659 H 0.4482 0.98376 0.16669 0.0
C660 C 0.38404 0.81766 0.22017 0.0
C661 C 0.40524 0.79441 0.23456 0.0
C662 C 0.40168 0.85121 0.20338 0.0
C663 C 0.44128 0.86318 0.20088 0.0
C664 C 0.4625 0.84044 0.21646 0.0
C665 C 0.44482 0.80661 0.23278 0.0
C666 C 0.51343 0.93648 0.14407 0.0
C667 C 0.49693 0.96598 0.14565 0.0
C668 C 0.49532 0.90337 0.16147 0.0
C669 C 0.46026 0.89876 0.18164 0.0
C670 C 0.44362 0.92843 0.18283 0.0
C671 C 0.46157 0.96148 0.16481 0.0
H672 H 0.11863 0.29423 0.77649 0.0
H673 H 0.14382 0.344 0.66187 0.0
H674 H 0.09231 0.23601 0.74493 0.0
H675 H 0.11878 0.2863 0.63053 0.0
H676 H 0.0423 0.18438 0.58244 0.0
H677 H 0.0633 0.24155 0.6165 0.0
H678 H 0.11051 0.18854 0.70738 0.0
H679 H 0.08901 0.13108 0.67334 0.0
C680 C 0.11827 0.29289 0.74462 0.0
C681 C 0.13365 0.32401 0.72189 0.0
C682 C 0.10357 0.25935 0.72641 0.0
C683 C 0.1034 0.25601 0.68492 0.0
C684 C 0.11788 0.28744 0.66241 0.0
C685 C 0.13266 0.32071 0.68051 0.0
C686 C 0.05734 0.1848 0.60954 0.0
C687 C 0.06421 0.15285 0.62467 0.0
C688 C 0.06951 0.21781 0.62921 0.0
C689 C 0.08894 0.22015 0.66487 0.0
C690 C 0.09536 0.18806 0.68032 0.0
C691 C 0.08323 0.15499 0.66054 0.0
H692 H 0.6922 0.23883 0.48435 0.0
H693 H 0.77724 0.29285 0.56454 0.0
H694 H 0.64581 0.26489 0.51812 0.0
H695 H 0.73051 0.31879 0.59902 0.0
H696 H 0.66785 0.4083 0.56043 0.0
H697 H 0.70724 0.36663 0.56525 0.0
H698 H 0.60848 0.27801 0.57702 0.0
H699 H 0.56828 0.32034 0.57373 0.0
C700 C 0.70057 0.25554 0.50998 0.0
C701 C 0.73831 0.26489 0.52126 0.0
C702 C 0.67392 0.26999 0.52974 0.0
C703 C 0.68475 0.29423 0.56087 0.0
C704 C 0.72161 0.30038 0.57486 0.0
C705 C 0.74829 0.2857 0.55515 0.0
C706 C 0.65423 0.38022 0.56584 0.0
C707 C 0.61476 0.36766 0.56594 0.0
C708 C 0.67701 0.35622 0.56877 0.0
C709 C 0.6609 0.31905 0.57124 0.0
C710 C 0.62153 0.30659 0.57482 0.0
C711 C 0.5986 0.33076 0.57242 0.0
loop_
_geom_bond_atom_site_label_1
_geom_bond_atom_site_label_2
_geom_bond_distance
_geom_bond_site_symmetry_2
_ccdc_geom_bond_type
H0 C3 0.931 . S
H1 C6 0.928 . S
H2 C8 0.930 . S
C3 H0 0.931 . S
C3 C4 1.413 . S
C3 C5 1.360 . S
C4 C3 1.413 . S
C4 C8 1.429 . S
C5 C3 1.360 . S
C5 C6 1.372 . S
C6 H1 0.928 . S
C6 C5 1.372 . S
C6 C7 1.404 . S
C7 C6 1.404 . S
C7 C8 1.391 . S
C8 H2 0.930 . S
C8 C4 1.429 . S
C8 C7 1.391 . S
H9 C12 0.931 . S
H10 C15 0.928 . S
H11 C17 0.930 . S
C12 H9 0.931 . S
C12 C13 1.413 . S
C12 C14 1.360 . S
C13 C12 1.413 . S
C13 C17 1.429 . S
C14 C12 1.360 . S
C14 C15 1.372 . S
C15 H10 0.928 . S
C15 C14 1.372 . S
C15 C16 1.404 . S
C16 C15 1.404 . S
C16 C17 1.391 . S
C17 H11 0.930 . S
C17 C13 1.429 . S
C17 C16 1.391 . S
H18 C21 0.931 . S
H19 C24 0.928 . S
H20 C26 0.930 . S
C21 H18 0.931 . S
C21 C22 1.413 . S
C21 C23 1.360 . S
C22 C21 1.413 . S
C22 C26 1.429 . S
C23 C21 1.360 . S
C23 C24 1.372 . S
C24 H19 0.928 . S
C24 C23 1.372 . S
C24 C25 1.404 . S
C25 C24 1.404 . S
C25 C26 1.391 . S
C26 H20 0.930 . S
C26 C22 1.429 . S
C26 C25 1.391 . S
H27 C30 0.931 . S
H28 C33 0.928 . S
H29 C35 0.930 . S
C30 H27 0.931 . S
C30 C31 1.413 . S
C30 C32 1.360 . S
C31 C30 1.413 . S
C31 C35 1.429 . S
C32 C30 1.360 . S
C32 C33 1.372 . S
C33 H28 0.928 . S
C33 C32 1.372 . S
C33 C34 1.404 . S
C34 C33 1.404 . S
C34 C35 1.391 . S
C35 H29 0.930 . S
C35 C31 1.429 . S
C35 C34 1.391 . S
H36 C39 0.931 . S
H37 C42 0.928 . S
H38 C44 0.930 . S
C39 H36 0.931 . S
C39 C40 1.413 . S
C39 C41 1.360 . S
C40 C39 1.413 . S
C40 C44 1.429 . S
C41 C39 1.360 . S
C41 C42 1.372 . S
C42 H37 0.928 . S
C42 C41 1.372 . S
C42 C43 1.404 . S
C43 C42 1.404 . S
C43 C44 1.391 . S
C44 H38 0.930 . S
C44 C40 1.429 . S
C44 C43 1.391 . S
H45 C48 0.931 . S
H46 C51 0.928 . S
H47 C53 0.930 . S
C48 H45 0.931 . S
C48 C49 1.413 . S
C48 C50 1.360 . S
C49 C48 1.413 . S
C49 C53 1.429 . S
C50 C48 1.360 . S
C50 C51 1.372 . S
C51 H46 0.928 . S
C51 C50 1.372 . S
C51 C52 1.404 . S
C52 C51 1.404 . S
C52 C53 1.391 . S
C53 H47 0.930 . S
C53 C49 1.429 . S
C53 C52 1.391 . S
H54 C57 0.931 . S
H55 C60 0.928 . S
H56 C62 0.930 . S
C57 H54 0.931 . S
C57 C58 1.413 . S
C57 C59 1.360 . S
C58 C57 1.413 . S
C58 C62 1.429 . S
C59 C57 1.360 . S
C59 C60 1.372 . S
C60 H55 0.928 . S
C60 C59 1.372 . S
C60 C61 1.404 . S
C61 C60 1.404 . S
C61 C62 1.391 . S
C62 H56 0.930 . S
C62 C58 1.429 . S
C62 C61 1.391 . S
H63 C66 0.931 . S
H64 C69 0.928 . S
H65 C71 0.930 . S
C66 H63 0.931 . S
C66 C67 1.413 . S
C66 C68 1.360 . S
C67 C66 1.413 . S
C67 C71 1.429 . S
C68 C66 1.360 . S
C68 C69 1.372 . S
C69 H64 0.928 . S
C69 C68 1.372 . S
C69 C70 1.404 . S
C70 C69 1.404 . S
C70 C71 1.391 . S
C71 H65 0.930 . S
C71 C67 1.429 . S
C71 C70 1.391 . S
La72 C74 2.928 . S
La72 O92 2.521 . S
La72 O93 2.628 . S
La72 O94 2.554 1_545 S
La72 O95 2.757 1_545 S
La72 O96 2.470 . S
La72 O101 2.482 1_455 S
La72 O103 2.503 1_445 S
La73 C83 2.928 . S
La73 O95 2.482 1_655 S
La73 O97 2.503 1_665 S
La73 O98 2.521 . S
La73 O99 2.628 . S
La73 O100 2.554 1_565 S
La73 O101 2.757 1_565 S
La73 O102 2.470 . S
C74 La72 2.928 . S
C74 C75 1.503 . S
C74 O92 1.261 . S
C74 O93 1.243 . S
C75 C74 1.503 . S
C75 C76 1.394 . S
C75 C80 1.373 . S
C76 C75 1.394 . S
C76 C77 1.380 . S
C76 H104 0.930 . S
C77 C76 1.380 . S
C77 C78 1.376 . S
C77 H105 0.930 . S
C78 C77 1.376 . S
C78 C79 1.370 . S
C79 C78 1.370 . S
C79 C80 1.396 . S
C79 H106 0.929 . S
C80 C75 1.373 . S
C80 C79 1.396 . S
C80 H107 0.929 . S
C81 O94 1.240 . S
C81 O95 1.289 . S
C82 O96 1.258 . S
C82 O97 1.256 . S
C83 La73 2.928 . S
C83 C84 1.503 . S
C83 O98 1.261 . S
C83 O99 1.243 . S
C84 C83 1.503 . S
C84 C85 1.394 . S
C84 C89 1.373 . S
C85 C84 1.394 . S
C85 C86 1.380 . S
C85 H108 0.930 . S
C86 C85 1.380 . S
C86 C87 1.376 . S
C86 H109 0.930 . S
C87 C86 1.376 . S
C87 C88 1.370 . S
C88 C87 1.370 . S
C88 C89 1.396 . S
C88 H110 0.929 . S
C89 C84 1.373 . S
C89 C88 1.396 . S
C89 H111 0.929 . S
C90 O100 1.240 . S
C90 O101 1.289 . S
C91 O102 1.258 . S
C91 O103 1.256 . S
O92 La72 2.521 . S
O92 C74 1.261 . S
O93 La72 2.628 . S
O93 C74 1.243 . S
O94 La72 2.554 1_565 S
O94 C81 1.240 . S
O95 La72 2.757 1_565 S
O95 La73 2.482 1_455 S
O95 C81 1.289 . S
O96 La72 2.470 . S
O96 C82 1.258 . S
O97 La73 2.503 1_445 S
O97 C82 1.256 . S
O98 La73 2.521 . S
O98 C83 1.261 . S
O99 La73 2.628 . S
O99 C83 1.243 . S
O100 La73 2.554 1_545 S
O100 C90 1.240 . S
O101 La72 2.482 1_655 S
O101 La73 2.757 1_545 S
O101 C90 1.289 . S
O102 La73 2.470 . S
O102 C91 1.258 . S
O103 La72 2.503 1_665 S
O103 C91 1.256 . S
H104 C76 0.930 . S
H105 C77 0.930 . S
H106 C79 0.929 . S
H107 C80 0.929 . S
H108 C85 0.930 . S
H109 C86 0.930 . S
H110 C88 0.929 . S
H111 C89 0.929 . S
La112 C114 2.912 1_565 S
La112 O132 2.519 1_565 S
La112 O133 2.600 1_565 S
La112 O134 2.578 . S
La112 O135 2.770 . S
La112 O136 2.453 1_565 S
La112 O141 2.458 1_564 S
La112 O143 2.521 1_554 S
La113 C123 2.928 1_545 S
La113 O135 2.482 1_546 S
La113 O137 2.503 1_556 S
La113 O138 2.521 1_545 S
La113 O139 2.628 1_545 S
La113 O140 2.554 . S
La113 O141 2.757 . S
La113 O142 2.470 1_545 S
C114 La112 2.912 1_545 S
C114 C115 1.503 . S
C114 O132 1.261 . S
C114 O133 1.243 . S
C115 C114 1.503 . S
C115 C116 1.394 . S
C115 C120 1.373 . S
C116 C115 1.394 . S
C116 C117 1.380 . S
C116 H144 0.930 . S
C117 C116 1.380 . S
C117 C118 1.376 . S
C117 H145 0.930 . S
C118 C117 1.376 . S
C118 C119 1.370 . S
C119 C118 1.370 . S
C119 C120 1.396 . S
C119 H146 0.929 . S
C120 C115 1.373 . S
C120 C119 1.396 . S
C120 H147 0.929 . S
C121 O134 1.240 . S
C121 O135 1.289 . S
C122 O136 1.258 . S
C122 O137 1.256 . S
C123 La113 2.928 1_565 S
C123 C124 1.503 . S
C123 O138 1.261 . S
C123 O139 1.243 . S
C124 C123 1.503 . S
C124 C125 1.394 . S
C124 C129 1.373 . S
C125 C124 1.394 . S
C125 C126 1.380 . S
C125 H148 0.930 . S
C126 C125 1.380 . S
C126 C127 1.376 . S
C126 H149 0.930 . S
C127 C126 1.376 . S
C127 C128 1.370 . S
C128 C127 1.370 . S
C128 C129 1.396 . S
C128 H150 0.929 . S
C129 C124 1.373 . S
C129 C128 1.396 . S
C129 H151 0.929 . S
C130 O140 1.240 . S
C130 O141 1.289 . S
C131 O142 1.258 . S
C131 O143 1.256 . S
O132 La112 2.519 1_545 S
O132 C114 1.261 . S
O133 La112 2.600 1_545 S
O133 C114 1.243 . S
O134 La112 2.578 . S
O134 C121 1.240 . S
O135 La112 2.770 . S
O135 La113 2.482 1_564 S
O135 C121 1.289 . S
O136 La112 2.453 1_545 S
O136 C122 1.258 . S
O137 La113 2.503 1_554 S
O137 C122 1.256 . S
O138 La113 2.521 1_565 S
O138 C123 1.261 . S
O139 La113 2.628 1_565 S
O139 C123 1.243 . S
O140 La113 2.554 . S
O140 C130 1.240 . S
O141 La112 2.458 1_546 S
O141 La113 2.757 . S
O141 C130 1.289 . S
O142 La113 2.470 1_565 S
O142 C131 1.258 . S
O143 La112 2.521 1_556 S
O143 C131 1.256 . S
H144 C116 0.930 . S
H145 C117 0.930 . S
H146 C119 0.929 . S
H147 C120 0.929 . S
H148 C125 0.930 . S
H149 C126 0.930 . S
H150 C128 0.929 . S
H151 C129 0.929 . S
La152 C154 2.928 . S
La152 O172 2.521 . S
La152 O173 2.628 . S
La152 O174 2.554 . S
La152 O175 2.757 . S
La152 O176 2.470 . S
La152 O181 2.482 . S
La152 O183 2.503 . S
La153 C163 2.928 . S
La153 O175 2.482 . S
La153 O177 2.503 . S
La153 O178 2.521 . S
La153 O179 2.628 . S
La153 O180 2.554 . S
La153 O181 2.757 . S
La153 O182 2.470 . S
C154 La152 2.928 . S
C154 C155 1.503 . S
C154 O172 1.261 . S
C154 O173 1.243 . S
C155 C154 1.503 . S
C155 C156 1.394 . S
C155 C160 1.373 . S
C156 C155 1.394 . S
C156 C157 1.380 . S
C156 H184 0.930 . S
C157 C156 1.380 . S
C157 C158 1.376 . S
C157 H185 0.930 . S
C158 C157 1.376 . S
C158 C159 1.370 . S
C159 C158 1.370 . S
C159 C160 1.396 . S
C159 H186 0.929 . S
C160 C155 1.373 . S
C160 C159 1.396 . S
C160 H187 0.929 . S
C161 O174 1.240 . S
C161 O175 1.289 . S
C162 O176 1.258 . S
C162 O177 1.256 . S
C163 La153 2.928 . S
C163 C164 1.503 . S
C163 O178 1.261 . S
C163 O179 1.243 . S
C164 C163 1.503 . S
C164 C165 1.394 . S
C164 C169 1.373 . S
C165 C164 1.394 . S
C165 C166 1.380 . S
C165 H188 0.930 . S
C166 C165 1.380 . S
C166 C167 1.376 . S
C166 H189 0.930 . S
C167 C166 1.376 . S
C167 C168 1.370 . S
C168 C167 1.370 . S
C168 C169 1.396 . S
C168 H190 0.929 . S
C169 C164 1.373 . S
C169 C168 1.396 . S
C169 H191 0.929 . S
C170 O180 1.240 . S
C170 O181 1.289 . S
C171 O182 1.258 . S
C171 O183 1.256 . S
O172 La152 2.521 . S
O172 C154 1.261 . S
O173 La152 2.628 . S
O173 C154 1.243 . S
O174 La152 2.554 . S
O174 C161 1.240 . S
O175 La152 2.757 . S
O175 La153 2.482 . S
O175 C161 1.289 . S
O176 La152 2.470 . S
O176 C162 1.258 . S
O177 La153 2.503 . S
O177 C162 1.256 . S
O178 La153 2.521 . S
O178 C163 1.261 . S
O179 La153 2.628 . S
O179 C163 1.243 . S
O180 La153 2.554 . S
O180 C170 1.240 . S
O181 La152 2.482 . S
O181 La153 2.757 . S
O181 C170 1.289 . S
O182 La153 2.470 . S
O182 C171 1.258 . S
O183 La152 2.503 . S
O183 C171 1.256 . S
H184 C156 0.930 . S
H185 C157 0.930 . S
H186 C159 0.929 . S
H187 C160 0.929 . S
H188 C165 0.930 . S
H189 C166 0.930 . S
H190 C168 0.929 . S
H191 C169 0.929 . S
La192 C194 2.928 . S
La192 O212 2.521 . S
La192 O213 2.628 . S
La192 O214 2.554 1_455 S
La192 O215 2.757 1_455 S
La192 O216 2.470 . S
La192 O221 2.482 1_554 S
La192 O223 2.503 1_454 S
La193 C203 2.928 . S
La193 O215 2.482 1_556 S
La193 O217 2.503 1_656 S
La193 O218 2.521 . S
La193 O219 2.628 . S
La193 O220 2.554 1_655 S
La193 O221 2.757 1_655 S
La193 O222 2.470 . S
C194 La192 2.928 . S
C194 C195 1.503 . S
C194 O212 1.261 . S
C194 O213 1.243 . S
C195 C194 1.503 . S
C195 C196 1.394 . S
C195 C200 1.373 . S
C196 C195 1.394 . S
C196 C197 1.380 . S
C196 H224 0.930 . S
C197 C196 1.380 . S
C197 C198 1.376 . S
C197 H225 0.930 . S
C198 C197 1.376 . S
C198 C199 1.370 . S
C199 C198 1.370 . S
C199 C200 1.396 . S
C199 H226 0.929 . S
C200 C195 1.373 . S
C200 C199 1.396 . S
C200 H227 0.929 . S
C201 O214 1.240 . S
C201 O215 1.289 . S
C202 O216 1.258 . S
C202 O217 1.256 . S
C203 La193 2.928 . S
C203 C204 1.503 . S
C203 O218 1.261 . S
C203 O219 1.243 . S
C204 C203 1.503 . S
C204 C205 1.394 . S
C204 C209 1.373 . S
C205 C204 1.394 . S
C205 C206 1.380 . S
C205 H228 0.930 . S
C206 C205 1.380 . S
C206 C207 1.376 . S
C206 H229 0.930 . S
C207 C206 1.376 . S
C207 C208 1.370 . S
C208 C207 1.370 . S
C208 C209 1.396 . S
C208 H230 0.929 . S
C209 C204 1.373 . S
C209 C208 1.396 . S
C209 H231 0.929 . S
C210 O220 1.240 . S
C210 O221 1.289 . S
C211 O222 1.258 . S
C211 O223 1.256 . S
O212 La192 2.521 . S
O212 C194 1.261 . S
O213 La192 2.628 . S
O213 C194 1.243 . S
O214 La192 2.554 1_655 S
O214 C201 1.240 . S
O215 La192 2.757 1_655 S
O215 La193 2.482 1_554 S
O215 C201 1.289 . S
O216 La192 2.470 . S
O216 C202 1.258 . S
O217 La193 2.503 1_454 S
O217 C202 1.256 . S
O218 La193 2.521 . S
O218 C203 1.261 . S
O219 La193 2.628 . S
O219 C203 1.243 . S
O220 La193 2.554 1_455 S
O220 C210 1.240 . S
O221 La192 2.482 1_556 S
O221 La193 2.757 1_455 S
O221 C210 1.289 . S
O222 La193 2.470 . S
O222 C211 1.258 . S
O223 La192 2.503 1_656 S
O223 C211 1.256 . S
H224 C196 0.930 . S
H225 C197 0.930 . S
H226 C199 0.929 . S
H227 C200 0.929 . S
H228 C205 0.930 . S
H229 C206 0.930 . S
H230 C208 0.929 . S
H231 C209 0.929 . S
H232 C240 0.950 . S
H233 C245 0.950 . S
H234 C242 0.950 . S
H235 C244 0.950 . S
H236 C246 0.950 . S
H237 C248 0.950 . S
H238 C250 0.950 . S
H239 C251 0.950 . S
C240 H232 0.950 . S
C240 C241 1.386 . S
C240 C242 1.391 . S
C241 C240 1.386 . S
C241 C245 1.393 . S
C242 H234 0.950 . S
C242 C240 1.391 . S
C242 C243 1.400 . S
C243 C242 1.400 . S
C243 C244 1.398 . S
C243 C249 1.491 . S
C244 H235 0.950 . S
C244 C243 1.398 . S
C244 C245 1.391 . S
C245 H233 0.950 . S
C245 C241 1.393 . S
C245 C244 1.391 . S
C246 H236 0.950 . S
C246 C247 1.386 . S
C246 C248 1.391 . S
C247 C246 1.386 . S
C247 C251 1.393 . S
C248 H237 0.950 . S
C248 C246 1.391 . S
C248 C249 1.400 . S
C249 C243 1.491 . S
C249 C248 1.400 . S
C249 C250 1.398 . S
C250 H238 0.950 . S
C250 C249 1.398 . S
C250 C251 1.391 . S
C251 H239 0.950 . S
C251 C247 1.393 . S
C251 C250 1.391 . S
H252 C260 0.950 . S
H253 C265 0.950 . S
H254 C262 0.950 . S
H255 C264 0.950 . S
H256 C266 0.950 . S
H257 C268 0.950 . S
H258 C270 0.950 . S
H259 C271 0.950 . S
C260 H252 0.950 . S
C260 C261 1.386 . S
C260 C262 1.391 . S
C261 C260 1.386 . S
C261 C265 1.393 . S
C262 H254 0.950 . S
C262 C260 1.391 . S
C262 C263 1.400 . S
C263 C262 1.400 . S
C263 C264 1.398 . S
C263 C269 1.491 . S
C264 H255 0.950 . S
C264 C263 1.398 . S
C264 C265 1.391 . S
C265 H253 0.950 . S
C265 C261 1.393 . S
C265 C264 1.391 . S
C266 H256 0.950 . S
C266 C267 1.386 . S
C266 C268 1.391 . S
C267 C266 1.386 . S
C267 C271 1.393 . S
C268 H257 0.950 . S
C268 C266 1.391 . S
C268 C269 1.400 . S
C269 C263 1.491 . S
C269 C268 1.400 . S
C269 C270 1.398 . S
C270 H258 0.950 . S
C270 C269 1.398 . S
C270 C271 1.391 . S
C271 H259 0.950 . S
C271 C267 1.393 . S
C271 C270 1.391 . S
H272 C280 0.950 . S
H273 C285 0.950 . S
H274 C282 0.950 . S
H275 C284 0.950 . S
H276 C286 0.950 . S
H277 C288 0.950 . S
H278 C290 0.950 . S
H279 C291 0.950 . S
C280 H272 0.950 . S
C280 C281 1.386 . S
C280 C282 1.391 . S
C281 C280 1.386 . S
C281 C285 1.393 . S
C282 H274 0.950 . S
C282 C280 1.391 . S
C282 C283 1.400 . S
C283 C282 1.400 . S
C283 C284 1.398 . S
C283 C289 1.491 . S
C284 H275 0.950 . S
C284 C283 1.398 . S
C284 C285 1.391 . S
C285 H273 0.950 . S
C285 C281 1.393 . S
C285 C284 1.391 . S
C286 H276 0.950 . S
C286 C287 1.386 . S
C286 C288 1.391 . S
C287 C286 1.386 . S
C287 C291 1.393 . S
C288 H277 0.950 . S
C288 C286 1.391 . S
C288 C289 1.400 . S
C289 C283 1.491 . S
C289 C288 1.400 . S
C289 C290 1.398 . S
C290 H278 0.950 . S
C290 C289 1.398 . S
C290 C291 1.391 . S
C291 H279 0.950 . S
C291 C287 1.393 . S
C291 C290 1.391 . S
H292 C300 0.950 . S
H293 C305 0.950 . S
H294 C302 0.950 . S
H295 C304 0.950 . S
H296 C306 0.950 . S
H297 C308 0.950 . S
H298 C310 0.950 . S
H299 C311 0.950 . S
C300 H292 0.950 . S
C300 C301 1.386 . S
C300 C302 1.391 . S
C301 C300 1.386 . S
C301 C305 1.393 . S
C302 H294 0.950 . S
C302 C300 1.391 . S
C302 C303 1.400 . S
C303 C302 1.400 . S
C303 C304 1.398 . S
C303 C309 1.491 . S
C304 H295 0.950 . S
C304 C303 1.398 . S
C304 C305 1.391 . S
C305 H293 0.950 . S
C305 C301 1.393 . S
C305 C304 1.391 . S
C306 H296 0.950 . S
C306 C307 1.386 . S
C306 C308 1.391 . S
C307 C306 1.386 . S
C307 C311 1.393 . S
C308 H297 0.950 . S
C308 C306 1.391 . S
C308 C309 1.400 . S
C309 C303 1.491 . S
C309 C308 1.400 . S
C309 C310 1.398 . S
C310 H298 0.950 . S
C310 C309 1.398 . S
C310 C311 1.391 . S
C311 H299 0.950 . S
C311 C307 1.393 . S
C311 C310 1.391 . S
H312 C320 0.950 . S
H313 C325 0.950 . S
H314 C322 0.950 . S
H315 C324 0.950 . S
H316 C326 0.950 . S
H317 C328 0.950 . S
H318 C330 0.950 . S
H319 C331 0.950 . S
C320 H312 0.950 . S
C320 C321 1.386 . S
C320 C322 1.391 . S
C321 C320 1.386 . S
C321 C325 1.393 . S
C322 H314 0.950 . S
C322 C320 1.391 . S
C322 C323 1.400 . S
C323 C322 1.400 . S
C323 C324 1.398 . S
C323 C329 1.491 . S
C324 H315 0.950 . S
C324 C323 1.398 . S
C324 C325 1.391 . S
C325 H313 0.950 . S
C325 C321 1.393 . S
C325 C324 1.391 . S
C326 H316 0.950 . S
C326 C327 1.386 . S
C326 C328 1.391 . S
C327 C326 1.386 . S
C327 C331 1.393 . S
C328 H317 0.950 . S
C328 C326 1.391 . S
C328 C329 1.400 . S
C329 C323 1.491 . S
C329 C328 1.400 . S
C329 C330 1.398 . S
C330 H318 0.950 . S
C330 C329 1.398 . S
C330 C331 1.391 . S
C331 H319 0.950 . S
C331 C327 1.393 . S
C331 C330 1.391 . S
H332 C340 0.950 . S
H333 C345 0.950 . S
H334 C342 0.950 . S
H335 C344 0.950 . S
H336 C346 0.950 . S
H337 C348 0.950 . S
H338 C350 0.950 . S
H339 C351 0.963 . S
C340 H332 0.950 . S
C340 C341 1.386 . S
C340 C342 1.391 . S
C341 C340 1.386 . S
C341 C345 1.393 . S
C342 H334 0.950 . S
C342 C340 1.391 . S
C342 C343 1.400 . S
C343 C342 1.400 . S
C343 C344 1.398 . S
C343 C349 1.491 . S
C344 H335 0.950 . S
C344 C343 1.398 . S
C344 C345 1.391 . S
C345 H333 0.950 . S
C345 C341 1.393 . S
C345 C344 1.391 . S
C346 H336 0.950 . S
C346 C347 1.386 . S
C346 C348 1.391 . S
C347 C346 1.386 . S
C347 C351 1.393 . S
C348 H337 0.950 . S
C348 C346 1.391 . S
C348 C349 1.400 . S
C349 C343 1.491 . S
C349 C348 1.400 . S
C349 C350 1.398 . S
C350 H338 0.950 . S
C350 C349 1.398 . S
C350 C351 1.391 . S
C351 H339 0.963 . S
C351 C347 1.393 . S
C351 C350 1.391 . S
H352 C360 0.950 . S
H353 C365 0.950 . S
H354 C362 0.950 . S
H355 C364 0.950 . S
H356 C366 0.950 . S
H357 C368 0.950 . S
H358 C370 0.950 . S
H359 C371 0.950 . S
C360 H352 0.950 . S
C360 C361 1.386 . S
C360 C362 1.391 . S
C361 C360 1.386 . S
C361 C365 1.393 . S
C362 H354 0.950 . S
C362 C360 1.391 . S
C362 C363 1.400 . S
C363 C362 1.400 . S
C363 C364 1.398 . S
C363 C369 1.491 . S
C364 H355 0.950 . S
C364 C363 1.398 . S
C364 C365 1.391 . S
C365 H353 0.950 . S
C365 C361 1.393 . S
C365 C364 1.391 . S
C366 H356 0.950 . S
C366 C367 1.386 . S
C366 C368 1.391 . S
C367 C366 1.386 . S
C367 C371 1.393 . S
C368 H357 0.950 . S
C368 C366 1.391 . S
C368 C369 1.400 . S
C369 C363 1.491 . S
C369 C368 1.400 . S
C369 C370 1.398 . S
C370 H358 0.950 . S
C370 C369 1.398 . S
C370 C371 1.391 . S
C371 H359 0.950 . S
C371 C367 1.393 . S
C371 C370 1.391 . S
H372 C380 0.950 . S
H373 C385 0.950 . S
H374 C382 0.950 . S
H375 C384 0.950 . S
H376 C386 0.950 . S
H377 C388 0.950 . S
H378 C390 0.950 . S
H379 C391 0.950 . S
C380 H372 0.950 . S
C380 C381 1.386 . S
C380 C382 1.391 . S
C381 C380 1.386 . S
C381 C385 1.393 . S
C382 H374 0.950 . S
C382 C380 1.391 . S
C382 C383 1.400 . S
C383 C382 1.400 . S
C383 C384 1.398 . S
C383 C389 1.491 . S
C384 H375 0.950 . S
C384 C383 1.398 . S
C384 C385 1.391 . S
C385 H373 0.950 . S
C385 C381 1.393 . S
C385 C384 1.391 . S
C386 H376 0.950 . S
C386 C387 1.386 . S
C386 C388 1.391 . S
C387 C386 1.386 . S
C387 C391 1.393 . S
C388 H377 0.950 . S
C388 C386 1.391 . S
C388 C389 1.400 . S
C389 C383 1.491 . S
C389 C388 1.400 . S
C389 C390 1.398 . S
C390 H378 0.950 . S
C390 C389 1.398 . S
C390 C391 1.391 . S
C391 H379 0.950 . S
C391 C387 1.393 . S
C391 C390 1.391 . S
H392 C400 0.950 . S
H393 C405 0.950 . S
H394 C402 0.950 . S
H395 C404 0.950 . S
H396 C406 0.950 . S
H397 C408 0.950 . S
H398 C410 0.950 . S
H399 C411 0.950 . S
C400 H392 0.950 . S
C400 C401 1.386 . S
C400 C402 1.391 . S
C401 C400 1.386 . S
C401 C405 1.393 . S
C402 H394 0.950 . S
C402 C400 1.391 . S
C402 C403 1.400 . S
C403 C402 1.400 . S
C403 C404 1.398 . S
C403 C409 1.491 . S
C404 H395 0.950 . S
C404 C403 1.398 . S
C404 C405 1.391 . S
C405 H393 0.950 . S
C405 C401 1.393 . S
C405 C404 1.391 . S
C406 H396 0.950 . S
C406 C407 1.386 . S
C406 C408 1.391 . S
C407 C406 1.386 . S
C407 C411 1.393 . S
C408 H397 0.950 . S
C408 C406 1.391 . S
C408 C409 1.400 . S
C409 C403 1.491 . S
C409 C408 1.400 . S
C409 C410 1.398 . S
C410 H398 0.950 . S
C410 C409 1.398 . S
C410 C411 1.391 . S
C411 H399 0.950 . S
C411 C407 1.393 . S
C411 C410 1.391 . S
H412 C420 0.950 . S
H413 C425 0.950 . S
H414 C422 0.950 . S
H415 C424 0.950 . S
H416 C426 0.950 . S
H417 C428 0.950 . S
H418 C430 0.950 . S
H419 C431 0.950 . S
C420 H412 0.950 . S
C420 C421 1.386 . S
C420 C422 1.391 . S
C421 C420 1.386 . S
C421 C425 1.393 . S
C422 H414 0.950 . S
C422 C420 1.391 . S
C422 C423 1.400 . S
C423 C422 1.400 . S
C423 C424 1.398 . S
C423 C429 1.491 . S
C424 H415 0.950 . S
C424 C423 1.398 . S
C424 C425 1.391 . S
C425 H413 0.950 . S
C425 C421 1.393 . S
C425 C424 1.391 . S
C426 H416 0.950 . S
C426 C427 1.386 . S
C426 C428 1.391 . S
C427 C426 1.386 . S
C427 C431 1.393 . S
C428 H417 0.950 . S
C428 C426 1.391 . S
C428 C429 1.400 . S
C429 C423 1.491 . S
C429 C428 1.400 . S
C429 C430 1.398 . S
C430 H418 0.950 . S
C430 C429 1.398 . S
C430 C431 1.391 . S
C431 H419 0.950 . S
C431 C427 1.393 . S
C431 C430 1.391 . S
H432 C440 0.950 . S
H433 C445 0.950 . S
H434 C442 0.950 . S
H435 C444 0.950 . S
H436 C446 0.950 . S
H437 C448 0.950 . S
H438 C450 0.950 . S
H439 C451 0.950 . S
C440 H432 0.950 . S
C440 C441 1.386 . S
C440 C442 1.391 . S
C441 C440 1.386 . S
C441 C445 1.393 . S
C442 H434 0.950 . S
C442 C440 1.391 . S
C442 C443 1.400 . S
C443 C442 1.400 . S
C443 C444 1.398 . S
C443 C449 1.491 . S
C444 H435 0.950 . S
C444 C443 1.398 . S
C444 C445 1.391 . S
C445 H433 0.950 . S
C445 C441 1.393 . S
C445 C444 1.391 . S
C446 H436 0.950 . S
C446 C447 1.386 . S
C446 C448 1.391 . S
C447 C446 1.386 . S
C447 C451 1.393 . S
C448 H437 0.950 . S
C448 C446 1.391 . S
C448 C449 1.400 . S
C449 C443 1.491 . S
C449 C448 1.400 . S
C449 C450 1.398 . S
C450 H438 0.950 . S
C450 C449 1.398 . S
C450 C451 1.391 . S
C451 H439 0.950 . S
C451 C447 1.393 . S
C451 C450 1.391 . S
H452 C460 0.950 . S
H453 C465 0.950 . S
H454 C462 0.950 . S
H455 C464 0.950 . S
H456 C466 0.950 . S
H457 C468 0.950 . S
H458 C470 0.950 . S
H459 C471 0.950 . S
C460 H452 0.950 . S
C460 C461 1.386 . S
C460 C462 1.391 . S
C461 C460 1.386 . S
C461 C465 1.393 . S
C462 H454 0.950 . S
C462 C460 1.391 . S
C462 C463 1.400 . S
C463 C462 1.400 . S
C463 C464 1.398 . S
C463 C469 1.491 . S
C464 H455 0.950 . S
C464 C463 1.398 . S
C464 C465 1.391 . S
C465 H453 0.950 . S
C465 C461 1.393 . S
C465 C464 1.391 . S
C466 H456 0.950 . S
C466 C467 1.386 . S
C466 C468 1.391 . S
C467 C466 1.386 . S
C467 C471 1.393 . S
C468 H457 0.950 . S
C468 C466 1.391 . S
C468 C469 1.400 . S
C469 C463 1.491 . S
C469 C468 1.400 . S
C469 C470 1.398 . S
C470 H458 0.950 . S
C470 C469 1.398 . S
C470 C471 1.391 . S
C471 H459 0.950 . S
C471 C467 1.393 . S
C471 C470 1.391 . S
H472 C480 0.950 . S
H473 C485 0.950 . S
H474 C482 0.950 . S
H475 C484 0.950 . S
H476 C486 0.950 . S
H477 C488 0.950 . S
H478 C490 0.950 . S
H479 C491 0.950 . S
C480 H472 0.950 . S
C480 C481 1.386 . S
C480 C482 1.391 . S
C481 C480 1.386 . S
C481 C485 1.393 . S
C482 H474 0.950 . S
C482 C480 1.391 . S
C482 C483 1.400 . S
C483 C482 1.400 . S
C483 C484 1.398 . S
C483 C489 1.491 . S
C484 H475 0.950 . S
C484 C483 1.398 . S
C484 C485 1.391 . S
C485 H473 0.950 . S
C485 C481 1.393 . S
C485 C484 1.391 . S
C486 H476 0.950 . S
C486 C487 1.386 . S
C486 C488 1.391 . S
C487 C486 1.386 . S
C487 C491 1.393 . S
C488 H477 0.950 . S
C488 C486 1.391 . S
C488 C489 1.400 . S
C489 C483 1.491 . S
C489 C488 1.400 . S
C489 C490 1.398 . S
C490 H478 0.950 . S
C490 C489 1.398 . S
C490 C491 1.391 . S
C491 H479 0.950 . S
C491 C487 1.393 . S
C491 C490 1.391 . S
H492 C500 0.950 . S
H493 C505 0.950 . S
H494 C502 0.950 . S
H495 C504 0.950 . S
H496 C506 0.950 . S
H497 C508 0.950 . S
H498 C510 0.950 . S
H499 C511 0.950 . S
C500 H492 0.950 . S
C500 C501 1.386 . S
C500 C502 1.391 . S
C501 C500 1.386 . S
C501 C505 1.393 . S
C502 H494 0.950 . S
C502 C500 1.391 . S
C502 C503 1.400 . S
C503 C502 1.400 . S
C503 C504 1.398 . S
C503 C509 1.491 . S
C504 H495 0.950 . S
C504 C503 1.398 . S
C504 C505 1.391 . S
C505 H493 0.950 . S
C505 C501 1.393 . S
C505 C504 1.391 . S
C506 H496 0.950 . S
C506 C507 1.386 . S
C506 C508 1.391 . S
C507 C506 1.386 . S
C507 C511 1.393 . S
C508 H497 0.950 . S
C508 C506 1.391 . S
C508 C509 1.400 . S
C509 C503 1.491 . S
C509 C508 1.400 . S
C509 C510 1.398 . S
C510 H498 0.950 . S
C510 C509 1.398 . S
C510 C511 1.391 . S
C511 H499 0.950 . S
C511 C507 1.393 . S
C511 C510 1.391 . S
H512 C520 0.950 . S
H513 C525 0.950 . S
H514 C522 0.950 . S
H515 C524 0.950 . S
H516 C526 0.950 . S
H517 C528 0.950 . S
H518 C530 0.950 . S
H519 C531 0.950 . S
C520 H512 0.950 . S
C520 C521 1.386 . S
C520 C522 1.391 . S
C521 C520 1.386 . S
C521 C525 1.393 . S
C522 H514 0.950 . S
C522 C520 1.391 . S
C522 C523 1.400 . S
C523 C522 1.400 . S
C523 C524 1.398 . S
C523 C529 1.491 . S
C524 H515 0.950 . S
C524 C523 1.398 . S
C524 C525 1.391 . S
C525 H513 0.950 . S
C525 C521 1.393 . S
C525 C524 1.391 . S
C526 H516 0.950 . S
C526 C527 1.386 . S
C526 C528 1.391 . S
C527 C526 1.386 . S
C527 C531 1.393 . S
C528 H517 0.950 . S
C528 C526 1.391 . S
C528 C529 1.400 . S
C529 C523 1.491 . S
C529 C528 1.400 . S
C529 C530 1.398 . S
C530 H518 0.950 . S
C530 C529 1.398 . S
C530 C531 1.391 . S
C531 H519 0.950 . S
C531 C527 1.393 . S
C531 C530 1.391 . S
H532 C540 0.950 . S
H533 C545 0.950 . S
H534 C542 0.950 . S
H535 C544 0.950 . S
H536 C546 0.950 . S
H537 C548 0.950 . S
H538 C550 0.950 . S
H539 C551 0.950 . S
C540 H532 0.950 . S
C540 C541 1.386 . S
C540 C542 1.391 . S
C541 C540 1.386 . S
C541 C545 1.393 . S
C542 H534 0.950 . S
C542 C540 1.391 . S
C542 C543 1.400 . S
C543 C542 1.400 . S
C543 C544 1.398 . S
C543 C549 1.491 . S
C544 H535 0.950 . S
C544 C543 1.398 . S
C544 C545 1.391 . S
C545 H533 0.950 . S
C545 C541 1.393 . S
C545 C544 1.391 . S
C546 H536 0.950 . S
C546 C547 1.386 . S
C546 C548 1.391 . S
C547 C546 1.386 . S
C547 C551 1.393 . S
C548 H537 0.950 . S
C548 C546 1.391 . S
C548 C549 1.400 . S
C549 C543 1.491 . S
C549 C548 1.400 . S
C549 C550 1.398 . S
C550 H538 0.950 . S
C550 C549 1.398 . S
C550 C551 1.391 . S
C551 H539 0.950 . S
C551 C547 1.393 . S
C551 C550 1.391 . S
H552 C560 0.950 . S
H553 C565 0.950 . S
H554 C562 0.950 . S
H555 C564 0.950 . S
H556 C566 0.950 . S
H557 C568 0.950 . S
H558 C570 0.950 . S
H559 C571 0.950 . S
C560 H552 0.950 . S
C560 C561 1.386 . S
C560 C562 1.391 . S
C561 C560 1.386 . S
C561 C565 1.393 . S
C562 H554 0.950 . S
C562 C560 1.391 . S
C562 C563 1.400 . S
C563 C562 1.400 . S
C563 C564 1.398 . S
C563 C569 1.491 . S
C564 H555 0.950 . S
C564 C563 1.398 . S
C564 C565 1.391 . S
C565 H553 0.950 . S
C565 C561 1.393 . S
C565 C564 1.391 . S
C566 H556 0.950 . S
C566 C567 1.386 . S
C566 C568 1.391 . S
C567 C566 1.386 . S
C567 C571 1.393 . S
C568 H557 0.950 . S
C568 C566 1.391 . S
C568 C569 1.400 . S
C569 C563 1.491 . S
C569 C568 1.400 . S
C569 C570 1.398 . S
C570 H558 0.950 . S
C570 C569 1.398 . S
C570 C571 1.391 . S
C571 H559 0.950 . S
C571 C567 1.393 . S
C571 C570 1.391 . S
H572 C580 0.950 . S
H573 C585 0.950 . S
H574 C582 0.950 . S
H575 C584 0.950 . S
H576 C586 0.950 . S
H577 C588 0.950 . S
H578 C590 0.950 . S
H579 C591 0.950 . S
C580 H572 0.950 . S
C580 C581 1.386 . S
C580 C582 1.391 . S
C581 C580 1.386 . S
C581 C585 1.393 . S
C582 H574 0.950 . S
C582 C580 1.391 . S
C582 C583 1.400 . S
C583 C582 1.400 . S
C583 C584 1.398 . S
C583 C589 1.491 . S
C584 H575 0.950 . S
C584 C583 1.398 . S
C584 C585 1.391 . S
C585 H573 0.950 . S
C585 C581 1.393 . S
C585 C584 1.391 . S
C586 H576 0.950 . S
C586 C587 1.386 . S
C586 C588 1.391 . S
C587 C586 1.386 . S
C587 C591 1.393 . S
C588 H577 0.950 . S
C588 C586 1.391 . S
C588 C589 1.400 . S
C589 C583 1.491 . S
C589 C588 1.400 . S
C589 C590 1.398 . S
C590 H578 0.950 . S
C590 C589 1.398 . S
C590 C591 1.391 . S
C591 H579 0.950 . S
C591 C587 1.393 . S
C591 C590 1.391 . S
H592 C600 0.950 . S
H593 C605 0.950 . S
H594 C602 0.950 . S
H595 C604 0.950 . S
H596 C606 0.950 . S
H597 C608 0.950 . S
H598 C610 0.950 . S
H599 C611 0.950 . S
C600 H592 0.950 . S
C600 C601 1.386 . S
C600 C602 1.391 . S
C601 C600 1.386 . S
C601 C605 1.393 . S
C602 H594 0.950 . S
C602 C600 1.391 . S
C602 C603 1.400 . S
C603 C602 1.400 . S
C603 C604 1.398 . S
C603 C609 1.491 . S
C604 H595 0.950 . S
C604 C603 1.398 . S
C604 C605 1.391 . S
C605 H593 0.950 . S
C605 C601 1.393 . S
C605 C604 1.391 . S
C606 H596 0.950 . S
C606 C607 1.386 . S
C606 C608 1.391 . S
C607 C606 1.386 . S
C607 C611 1.393 . S
C608 H597 0.950 . S
C608 C606 1.391 . S
C608 C609 1.400 . S
C609 C603 1.491 . S
C609 C608 1.400 . S
C609 C610 1.398 . S
C610 H598 0.950 . S
C610 C609 1.398 . S
C610 C611 1.391 . S
C611 H599 0.950 . S
C611 C607 1.393 . S
C611 C610 1.391 . S
H612 C620 0.950 . S
H613 C625 0.950 . S
H614 C622 0.950 . S
H615 C624 0.950 . S
H616 C626 0.950 . S
H617 C628 0.950 . S
H618 C630 0.950 . S
H619 C631 0.950 . S
C620 H612 0.950 . S
C620 C621 1.386 . S
C620 C622 1.391 . S
C621 C620 1.386 . S
C621 C625 1.393 . S
C622 H614 0.950 . S
C622 C620 1.391 . S
C622 C623 1.400 . S
C623 C622 1.400 . S
C623 C624 1.398 . S
C623 C629 1.491 . S
C624 H615 0.950 . S
C624 C623 1.398 . S
C624 C625 1.391 . S
C625 H613 0.950 . S
C625 C621 1.393 . S
C625 C624 1.391 . S
C626 H616 0.950 . S
C626 C627 1.386 . S
C626 C628 1.391 . S
C627 C626 1.386 . S
C627 C631 1.393 . S
C628 H617 0.950 . S
C628 C626 1.391 . S
C628 C629 1.400 . S
C629 C623 1.491 . S
C629 C628 1.400 . S
C629 C630 1.398 . S
C630 H618 0.950 . S
C630 C629 1.398 . S
C630 C631 1.391 . S
C631 H619 0.950 . S
C631 C627 1.393 . S
C631 C630 1.391 . S
H632 C640 0.950 . S
H633 C645 0.950 . S
H634 C642 0.950 . S
H635 C644 0.950 . S
H636 C646 0.950 . S
H637 C648 0.950 . S
H638 C650 0.950 . S
H639 C651 0.950 . S
C640 H632 0.950 . S
C640 C641 1.386 . S
C640 C642 1.391 . S
C641 C640 1.386 . S
C641 C645 1.393 . S
C642 H634 0.950 . S
C642 C640 1.391 . S
C642 C643 1.400 . S
C643 C642 1.400 . S
C643 C644 1.398 . S
C643 C649 1.491 . S
C644 H635 0.950 . S
C644 C643 1.398 . S
C644 C645 1.391 . S
C645 H633 0.950 . S
C645 C641 1.393 . S
C645 C644 1.391 . S
C646 H636 0.950 . S
C646 C647 1.386 . S
C646 C648 1.391 . S
C647 C646 1.386 . S
C647 C651 1.393 . S
C648 H637 0.950 . S
C648 C646 1.391 . S
C648 C649 1.400 . S
C649 C643 1.491 . S
C649 C648 1.400 . S
C649 C650 1.398 . S
C650 H638 0.950 . S
C650 C649 1.398 . S
C650 C651 1.391 . S
C651 H639 0.950 . S
C651 C647 1.393 . S
C651 C650 1.391 . S
H652 C660 0.950 . S
H653 C665 0.950 . S
H654 C662 0.950 . S
H655 C664 0.950 . S
H656 C666 0.950 . S
H657 C668 0.950 . S
H658 C670 0.950 . S
H659 C671 0.950 . S
C660 H652 0.950 . S
C660 C661 1.386 . S
C660 C662 1.391 . S
C661 C660 1.386 . S
C661 C665 1.393 . S
C662 H654 0.950 . S
C662 C660 1.391 . S
C662 C663 1.400 . S
C663 C662 1.400 . S
C663 C664 1.398 . S
C663 C669 1.491 . S
C664 H655 0.950 . S
C664 C663 1.398 . S
C664 C665 1.391 . S
C665 H653 0.950 . S
C665 C661 1.393 . S
C665 C664 1.391 . S
C666 H656 0.950 . S
C666 C667 1.386 . S
C666 C668 1.391 . S
C667 C666 1.386 . S
C667 C671 1.393 . S
C668 H657 0.950 . S
C668 C666 1.391 . S
C668 C669 1.400 . S
C669 C663 1.491 . S
C669 C668 1.400 . S
C669 C670 1.398 . S
C670 H658 0.950 . S
C670 C669 1.398 . S
C670 C671 1.391 . S
C671 H659 0.950 . S
C671 C667 1.393 . S
C671 C670 1.391 . S
H672 C680 0.950 . S
H673 C685 0.950 . S
H674 C682 0.950 . S
H675 C684 0.950 . S
H676 C686 0.950 . S
H677 C688 0.950 . S
H678 C690 0.950 . S
H679 C691 0.950 . S
C680 H672 0.950 . S
C680 C681 1.386 . S
C680 C682 1.391 . S
C681 C680 1.386 . S
C681 C685 1.393 . S
C682 H674 0.950 . S
C682 C680 1.391 . S
C682 C683 1.400 . S
C683 C682 1.400 . S
C683 C684 1.398 . S
C683 C689 1.491 . S
C684 H675 0.950 . S
C684 C683 1.398 . S
C684 C685 1.391 . S
C685 H673 0.950 . S
C685 C681 1.393 . S
C685 C684 1.391 . S
C686 H676 0.950 . S
C686 C687 1.386 . S
C686 C688 1.391 . S
C687 C686 1.386 . S
C687 C691 1.393 . S
C688 H677 0.950 . S
C688 C686 1.391 . S
C688 C689 1.400 . S
C689 C683 1.491 . S
C689 C688 1.400 . S
C689 C690 1.398 . S
C690 H678 0.950 . S
C690 C689 1.398 . S
C690 C691 1.391 . S
C691 H679 0.950 . S
C691 C687 1.393 . S
C691 C690 1.391 . S
H692 C700 0.950 . S
H693 C705 0.950 . S
H694 C702 0.950 . S
H695 C704 0.950 . S
H696 C706 0.950 . S
H697 C708 0.950 . S
H698 C710 0.950 . S
H699 C711 0.950 . S
C700 H692 0.950 . S
C700 C701 1.386 . S
C700 C702 1.391 . S
C701 C700 1.386 . S
C701 C705 1.393 . S
C702 H694 0.950 . S
C702 C700 1.391 . S
C702 C703 1.400 . S
C703 C702 1.400 . S
C703 C704 1.398 . S
C703 C709 1.491 . S
C704 H695 0.950 . S
C704 C703 1.398 . S
C704 C705 1.391 . S
C705 H693 0.950 . S
C705 C701 1.393 . S
C705 C704 1.391 . S
C706 H696 0.950 . S
C706 C707 1.386 . S
C706 C708 1.391 . S
C707 C706 1.386 . S
C707 C711 1.393 . S
C708 H697 0.950 . S
C708 C706 1.391 . S
C708 C709 1.400 . S
C709 C703 1.491 . S
C709 C708 1.400 . S
C709 C710 1.398 . S
C710 H698 0.950 . S
C710 C709 1.398 . S
C710 C711 1.391 . S
C711 H699 0.950 . S
C711 C707 1.393 . S
C711 C710 1.391 . S
C241 C5 0.985 . S
C247 C78 1.009 . S
C261 C14 0.894 . S
C267 C127 0.893 . S
C287 C162 2.500 . S
C281 C25 2.558 . S
C301 C34 2.467 . S
C307 C201 2.412 . S
C327 C122 2.012 . S
C321 C7 1.923 . S
C347 C81 0.762 . S
C341 C13 0.740 . S
C367 C211 1.900 . S
C361 C23 1.965 . S
C387 C170 1.685 . S
C381 C31 1.726 . S
C401 C4 1.394 . S
C407 C198 1.423 . S
C427 C130 2.342 . S
C421 C22 2.425 . S
C441 C32 2.371 . S
C447 C91 2.347 . S
C461 C16 0.841 . S
C467 C167 0.846 . S
C487 C87 0.982 . S
C481 C41 0.960 . S
C501 C50 0.910 . S
C507 C118 0.907 . S
C521 C61 2.550 . S
C527 C171 2.491 . S
C541 C67 2.477 . S
C547 C210 2.426 . S
C561 C40 1.964 . S
C567 C131 2.026 . S
C587 C90 0.678 . S
C581 C52 0.694 . S
C607 C202 1.922 . S
C601 C59 1.978 . S
C627 C161 1.682 . S
C621 C70 1.722 . S
C641 C43 1.394 . S
C647 C207 1.426 . S
C667 C121 2.354 . S
C661 C58 2.438 . S
C687 C82 2.327 . S
C681 C68 2.349 . S
C701 C49 0.850 . S
C707 C158 0.839 . S
