# Generated by pormake.
# Topology dag, (6,3)-cn, num edge types: 1
# Building blocks:
#     Node 0, Type 0, BuildingBlock: OJICUG_clean_sbu_0, # of connection points: 6
#     Node 1, Type 0, BuildingBlock: OJICUG_clean_sbu_0, # of connection points: 6
#     Node 2, Type 0, BuildingBlock: OJICUG_clean_sbu_0, # of connection points: 6
#     Node 3, Type 0, BuildingBlock: OJICUG_clean_sbu_0, # of connection points: 6
#     Node 4, Type 1, BuildingBlock: ESEHIV_clean_linker_0, # of connection points: 3
#     Node 5, Type 1, BuildingBlock: ESEHIV_clean_linker_0, # of connection points: 3
#     Node 6, Type 1, BuildingBlock: ESEHIV_clean_linker_0, # of connection points: 3
#     Node 7, Type 1, BuildingBlock: ESEHIV_clean_linker_0, # of connection points: 3
#     Node 8, Type 1, BuildingBlock: ESEHIV_clean_linker_0, # of connection points: 3
#     Node 9, Type 1, BuildingBlock: ESEHIV_clean_linker_0, # of connection points: 3
#     Node 10, Type 1, BuildingBlock: ESEHIV_clean_linker_0, # of connection points: 3
#     Node 11, Type 1, BuildingBlock: ESEHIV_clean_linker_0, # of connection points: 3
#     Edge 12, Type (0, 1), BuildingBlock: AJUNOK_clean_linker_0, # of connection points: 2
#     Edge 13, Type (0, 1), BuildingBlock: AJUNOK_clean_linker_0, # of connection points: 2
#     Edge 14, Type (0, 1), BuildingBlock: AJUNOK_clean_linker_0, # of connection points: 2
#     Edge 15, Type (0, 1), BuildingBlock: AJUNOK_clean_linker_0, # of connection points: 2
#     Edge 16, Type (0, 1), BuildingBlock: AJUNOK_clean_linker_0, # of connection points: 2
#     Edge 17, Type (0, 1), BuildingBlock: AJUNOK_clean_linker_0, # of connection points: 2
#     Edge 18, Type (0, 1), BuildingBlock: AJUNOK_clean_linker_0, # of connection points: 2
#     Edge 19, Type (0, 1), BuildingBlock: AJUNOK_clean_linker_0, # of connection points: 2
#     Edge 20, Type (0, 1), BuildingBlock: AJUNOK_clean_linker_0, # of connection points: 2
#     Edge 21, Type (0, 1), BuildingBlock: AJUNOK_clean_linker_0, # of connection points: 2
#     Edge 22, Type (0, 1), BuildingBlock: AJUNOK_clean_linker_0, # of connection points: 2
#     Edge 23, Type (0, 1), BuildingBlock: AJUNOK_clean_linker_0, # of connection points: 2
#     Edge 24, Type (0, 1), BuildingBlock: AJUNOK_clean_linker_0, # of connection points: 2
#     Edge 25, Type (0, 1), BuildingBlock: AJUNOK_clean_linker_0, # of connection points: 2
#     Edge 26, Type (0, 1), BuildingBlock: AJUNOK_clean_linker_0, # of connection points: 2
#     Edge 27, Type (0, 1), BuildingBlock: AJUNOK_clean_linker_0, # of connection points: 2
#     Edge 28, Type (0, 1), BuildingBlock: AJUNOK_clean_linker_0, # of connection points: 2
#     Edge 29, Type (0, 1), BuildingBlock: AJUNOK_clean_linker_0, # of connection points: 2
#     Edge 30, Type (0, 1), BuildingBlock: AJUNOK_clean_linker_0, # of connection points: 2
#     Edge 31, Type (0, 1), BuildingBlock: AJUNOK_clean_linker_0, # of connection points: 2
#     Edge 32, Type (0, 1), BuildingBlock: AJUNOK_clean_linker_0, # of connection points: 2
#     Edge 33, Type (0, 1), BuildingBlock: AJUNOK_clean_linker_0, # of connection points: 2
#     Edge 34, Type (0, 1), BuildingBlock: AJUNOK_clean_linker_0, # of connection points: 2
#     Edge 35, Type (0, 1), BuildingBlock: AJUNOK_clean_linker_0, # of connection points: 2
# Relax obj value: 0.253
# Max RMSD: 0.198
# Mean RMSD: 0.164
data_MOF--net-dag--node1-OJICUG_clean_sbu_0--node2-ESEHIV_clean_linker_0--edge1-AJUNOK_clean_linker_0
_symmetry_space_group_name_H-M    P1
_symmetry_Int_Tables_number       1
_symmetry_cell_setting            triclinic
loop_
_symmetry_equiv_pos_as_xyz
'x, y, z'
_cell_length_a     24.812067
_cell_length_b     25.958458
_cell_length_c     25.480357
_cell_angle_alpha  95.257854
_cell_angle_beta   90.068871
_cell_angle_gamma 89.97438
loop_
_atom_site_label
_atom_site_type_symbol
_atom_site_fract_x
_atom_site_fract_y
_atom_site_fract_z
_atom_type_partial_charge
Sc0 Sc 0.10896 0.86946 0.01517 0.0
Sc1 Sc 0.14321 0.74073 0.03229 0.0
Sc2 Sc 0.22505 0.84482 0.08521 0.0
O3 O 0.15884 0.8181 0.04449 0.0
C4 C 0.2195 0.92326 0.99611 0.0
C5 C 0.11083 0.77893 0.92195 0.0
C6 C 0.27037 0.74979 0.01226 0.0
C7 C 0.02645 0.78857 0.05581 0.0
C8 C 0.13835 0.92557 0.12899 0.0
C9 C 0.19014 0.74869 0.14757 0.0
O10 O 0.17317 0.90887 0.97977 0.0
O11 O 0.12737 0.74299 0.94863 0.0
O12 O 0.27552 0.79581 0.03357 0.0
O13 O 0.03952 0.8342 0.04672 0.0
O14 O 0.17781 0.89647 0.13869 0.0
O15 O 0.15632 0.72921 0.11405 0.0
O16 O 0.11289 0.92152 0.08549 0.0
O17 O 0.05853 0.75022 0.05094 0.0
O18 O 0.21971 0.78717 0.14004 0.0
O19 O 0.1008 0.82436 0.9419 0.0
O20 O 0.24116 0.90701 0.03661 0.0
O21 O 0.22666 0.72399 0.01264 0.0
Sc22 Sc 0.72866 0.65403 0.45759 0.0
Sc23 Sc 0.6428 0.75312 0.51475 0.0
Sc24 Sc 0.61248 0.62216 0.52243 0.0
O25 O 0.66106 0.67682 0.49793 0.0
C26 C 0.64802 0.57144 0.40801 0.0
C27 C 0.69219 0.7533 0.401 0.0
C28 C 0.52886 0.702 0.48325 0.0
C29 C 0.76951 0.74609 0.53689 0.0
C30 C 0.72429 0.57301 0.54397 0.0
C31 C 0.60673 0.70814 0.62021 0.0
O32 O 0.68474 0.60398 0.40003 0.0
O33 O 0.65695 0.76986 0.43448 0.0
O34 O 0.54396 0.65574 0.48739 0.0
O35 O 0.77615 0.70149 0.51279 0.0
O36 O 0.67747 0.58596 0.56011 0.0
O37 O 0.62599 0.74548 0.59728 0.0
O38 O 0.74529 0.58969 0.50337 0.0
O39 O 0.72543 0.77138 0.53697 0.0
O40 O 0.59709 0.66402 0.59668 0.0
O41 O 0.72255 0.71488 0.40666 0.0
O42 O 0.62273 0.57172 0.45139 0.0
O43 O 0.55843 0.74152 0.49475 0.0
Sc44 Sc 0.85401 0.25205 0.01005 0.0
Sc45 Sc 0.77138 0.1485 0.95599 0.0
Sc46 Sc 0.8893 0.1229 0.02401 0.0
O47 O 0.83819 0.17462 0.99653 0.0
C48 C 0.97126 0.20861 0.98937 0.0
C49 C 0.80947 0.24195 0.89214 0.0
C50 C 0.86269 0.06987 0.90983 0.0
C51 C 0.72779 0.24577 0.0296 0.0
C52 C 0.88315 0.20844 0.12022 0.0
C53 C 0.77594 0.06817 0.04113 0.0
O54 O 0.9364 0.24362 0.98461 0.0
O55 O 0.7856 0.19938 0.89638 0.0
O56 O 0.89528 0.07977 0.94802 0.0
O57 O 0.7732 0.26795 0.03633 0.0
O58 O 0.88607 0.1617 0.10103 0.0
O59 O 0.74903 0.09327 0.00979 0.0
O60 O 0.87662 0.24623 0.09221 0.0
O61 O 0.72073 0.20335 0.0013 0.0
O62 O 0.82621 0.07392 0.04824 0.0
O63 O 0.83398 0.26707 0.93017 0.0
O64 O 0.9602 0.16493 0.00521 0.0
O65 O 0.816 0.09008 0.90812 0.0
Sc66 Sc 0.38184 0.37904 0.51932 0.0
Sc67 Sc 0.26276 0.34499 0.58173 0.0
Sc68 Sc 0.35458 0.24854 0.52906 0.0
O69 O 0.33291 0.32418 0.54379 0.0
C70 C 0.38658 0.29603 0.42179 0.0
C71 C 0.26742 0.43198 0.50272 0.0
C72 C 0.22983 0.25138 0.49816 0.0
C73 C 0.35004 0.42361 0.63587 0.0
C74 C 0.46721 0.29709 0.5572 0.0
C75 C 0.29858 0.24755 0.64096 0.0
O76 O 0.38269 0.34283 0.44067 0.0
O77 O 0.24126 0.40517 0.53295 0.0
O78 O 0.27678 0.23154 0.49548 0.0
O79 O 0.38259 0.41868 0.59709 0.0
O80 O 0.43395 0.26068 0.56151 0.0
O81 O 0.27208 0.28874 0.6372 0.0
O82 O 0.45462 0.33951 0.53915 0.0
O83 O 0.30449 0.4007 0.63625 0.0
O84 O 0.33012 0.22798 0.60549 0.0
O85 O 0.3176 0.42683 0.49488 0.0
O86 O 0.38337 0.25808 0.44992 0.0
O87 O 0.21742 0.29141 0.52854 0.0
H88 H 0.98741 0.09912 0.23173 0.0
H89 H 0.12635 0.09169 0.33068 0.0
H90 H 0.01971 0.22315 0.35111 0.0
C91 C 0.01071 0.11476 0.26559 0.0
C92 C 0.99635 0.16277 0.29168 0.0
C93 C 0.0583 0.08976 0.27837 0.0
C94 C 0.08913 0.11064 0.32102 0.0
C95 C 0.07523 0.15861 0.34779 0.0
C96 C 0.02877 0.18473 0.33292 0.0
H97 H 0.48777 0.59836 0.72903 0.0
H98 H 0.36566 0.5907 0.84691 0.0
H99 H 0.47734 0.7188 0.85554 0.0
C100 C 0.46962 0.61357 0.76597 0.0
C101 C 0.4884 0.66051 0.7909 0.0
C102 C 0.42533 0.58817 0.78581 0.0
C103 C 0.40072 0.60961 0.83225 0.0
C104 C 0.41942 0.65646 0.85833 0.0
C105 C 0.4633 0.682 0.837 0.0
H106 H 0.80665 0.86683 0.0725 0.0
H107 H 0.80422 0.76471 0.19564 0.0
H108 H 0.69038 0.88996 0.19706 0.0
C109 C 0.78699 0.85285 0.10648 0.0
C110 C 0.74348 0.88084 0.12982 0.0
C111 C 0.81008 0.81177 0.13058 0.0
C112 C 0.78653 0.79632 0.17651 0.0
C113 C 0.74331 0.82433 0.20063 0.0
C114 C 0.72156 0.86643 0.17702 0.0
H115 H 0.68676 0.38077 0.57908 0.0
H116 H 0.69471 0.2648 0.68861 0.0
H117 H 0.81369 0.38624 0.69373 0.0
C118 C 0.70782 0.36274 0.60997 0.0
C119 C 0.7542 0.38651 0.63212 0.0
C120 C 0.68536 0.31941 0.63052 0.0
C121 C 0.71181 0.29822 0.67219 0.0
C122 C 0.75849 0.32179 0.6949 0.0
C123 C 0.77914 0.36654 0.67516 0.0
H124 H 0.50795 0.39593 0.31269 0.0
H125 H 0.63798 0.39903 0.20231 0.0
H126 H 0.51847 0.27743 0.1847 0.0
C127 C 0.52757 0.38026 0.27664 0.0
C128 C 0.5082 0.33433 0.25036 0.0
C129 C 0.57431 0.40388 0.25968 0.0
C130 C 0.60042 0.38222 0.21415 0.0
C131 C 0.58066 0.33646 0.18653 0.0
C132 C 0.53397 0.31295 0.20479 0.0
H133 H 0.18915 0.12457 0.9669 0.0
H134 H 0.19451 0.23448 0.85093 0.0
H135 H 0.30189 0.10369 0.83934 0.0
C136 C 0.20852 0.13983 0.93346 0.0
C137 C 0.25096 0.11178 0.90824 0.0
C138 C 0.18656 0.18323 0.91237 0.0
C139 C 0.21033 0.20047 0.86733 0.0
C140 C 0.25123 0.1715 0.84033 0.0
C141 C 0.27199 0.12738 0.86115 0.0
H142 H 0.30414 0.63372 0.47673 0.0
H143 H 0.30328 0.73741 0.35582 0.0
H144 H 0.18102 0.6198 0.35729 0.0
C145 C 0.28345 0.64927 0.4441 0.0
C146 C 0.23764 0.62388 0.42203 0.0
C147 C 0.30767 0.68941 0.41974 0.0
C148 C 0.2836 0.70701 0.37518 0.0
C149 C 0.23799 0.68206 0.35214 0.0
C150 C 0.21442 0.641 0.37628 0.0
H151 H 4e-05 0.88962 0.81521 0.0
H152 H 0.98179 0.77094 0.68798 0.0
H153 H 0.87381 0.9018 0.7017 0.0
C154 C 0.98033 0.87547 0.77868 0.0
C155 C 0.93583 0.90223 0.76085 0.0
C156 C 0.99679 0.82817 0.75258 0.0
C157 C 0.96928 0.80786 0.70747 0.0
C158 C 0.92432 0.83399 0.68913 0.0
C159 C 0.90873 0.88175 0.7153 0.0
C160 C 0.11727 0.96078 0.22194 0.0
C161 C 0.12202 0.9681 0.1681 0.0
C162 C 0.09682 0.00031 0.25798 0.0
C163 C 0.08067 0.0481 0.24104 0.0
H164 H 0.12786 0.92392 0.23592 0.0
H165 H 0.09262 0.99319 0.299 0.0
S166 S 0.09333 0.08892 0.10575 0.0
N167 N 0.11428 0.02832 0.10077 0.0
N168 N 0.07674 0.10236 0.16821 0.0
C169 C 0.08781 0.05647 0.18778 0.0
C170 C 0.10824 0.01651 0.15137 0.0
C171 C 0.54452 0.7422 0.69085 0.0
C172 C 0.59165 0.71457 0.67612 0.0
C173 C 0.51401 0.72936 0.73422 0.0
C174 C 0.53001 0.68863 0.7636 0.0
H175 H 0.52772 0.76917 0.66519 0.0
H176 H 0.47478 0.74713 0.74085 0.0
S177 S 0.65589 0.61245 0.74711 0.0
N178 N 0.65742 0.65119 0.69918 0.0
N179 N 0.6 0.62699 0.78041 0.0
C180 C 0.58048 0.66567 0.75327 0.0
C181 C 0.61145 0.67877 0.70947 0.0
C182 C 0.75807 0.02259 0.12047 0.0
C183 C 0.74994 0.02619 0.06639 0.0
C184 C 0.74844 0.97617 0.14275 0.0
C185 C 0.73169 0.93177 0.11122 0.0
H186 H 0.77572 0.05466 0.1448 0.0
H187 H 0.7596 0.9736 0.18356 0.0
S188 S 0.69882 0.92319 0.9689 0.0
N189 N 0.71841 0.98369 0.98312 0.0
N190 N 0.7019 0.89566 0.02479 0.0
C191 C 0.71891 0.93625 0.05815 0.0
C192 C 0.72771 0.9838 0.0357 0.0
C193 C 0.56547 0.29463 0.53998 0.0
C194 C 0.52276 0.29151 0.57553 0.0
C195 C 0.61878 0.29887 0.55785 0.0
C196 C 0.63103 0.30162 0.61206 0.0
H197 H 0.5574 0.29574 0.49828 0.0
H198 H 0.65042 0.3029 0.52924 0.0
S199 S 0.5324 0.29333 0.72057 0.0
N200 N 0.49538 0.28828 0.66644 0.0
N201 N 0.59536 0.29887 0.70085 0.0
C202 C 0.58851 0.29599 0.64774 0.0
C203 C 0.53432 0.29052 0.62924 0.0
C204 C 0.62289 0.48017 0.38393 0.0
C205 C 0.63538 0.52893 0.36737 0.0
C206 C 0.60536 0.43973 0.34824 0.0
C207 C 0.59894 0.44642 0.29447 0.0
H208 H 0.62598 0.47331 0.42516 0.0
H209 H 0.59566 0.40305 0.36312 0.0
S210 S 0.62851 0.56583 0.23041 0.0
N211 N 0.6427 0.58123 0.2933 0.0
N212 N 0.6086 0.50481 0.22573 0.0
C213 C 0.6133 0.49429 0.27677 0.0
C214 C 0.63175 0.53569 0.31337 0.0
C215 C 0.06975 0.21221 0.00568 0.0
C216 C 0.02633 0.21602 0.97096 0.0
C217 C 0.1226 0.20697 0.98673 0.0
C218 C 0.13352 0.20355 0.93224 0.0
H219 H 0.06251 0.2108 0.04747 0.0
H220 H 0.15474 0.20221 0.01471 0.0
S221 S 0.03229 0.21365 0.82578 0.0
N222 N 0.99685 0.21977 0.88077 0.0
N223 N 0.0955 0.2069 0.84421 0.0
C224 C 0.09022 0.21027 0.89748 0.0
C225 C 0.03667 0.217 0.91711 0.0
C226 C 0.22802 0.51979 0.51459 0.0
C227 C 0.24086 0.47573 0.48077 0.0
C228 C 0.21993 0.56774 0.49456 0.0
C229 C 0.22414 0.5728 0.44016 0.0
H230 H 0.22935 0.51825 0.55694 0.0
H231 H 0.21533 0.60183 0.52209 0.0
S232 S 0.24556 0.46627 0.33519 0.0
N233 N 0.24923 0.438 0.39059 0.0
N234 N 0.23338 0.52795 0.35258 0.0
C235 C 0.23059 0.52767 0.40579 0.0
C236 C 0.23945 0.47909 0.42627 0.0
C237 C 0.11848 0.80389 0.83193 0.0
C238 C 0.09758 0.76903 0.86586 0.0
C239 C 0.08828 0.81813 0.78917 0.0
C240 C 0.03679 0.79727 0.77886 0.0
H241 H 0.15482 0.82553 0.8427 0.0
H242 H 0.10246 0.84984 0.76801 0.0
S243 S 0.96992 0.69594 0.84869 0.0
N244 N 0.02713 0.70738 0.88092 0.0
N245 N 0.97049 0.73346 0.7997 0.0
C246 C 0.0193 0.75666 0.80748 0.0
C247 C 0.04995 0.74244 0.85129 0.0
C248 C 0.93329 0.02677 0.85146 0.0
C249 C 0.87901 0.0307 0.8671 0.0
C250 C 0.95081 0.98654 0.81505 0.0
C251 C 0.91485 0.94832 0.79348 0.0
H252 H 0.96263 0.05457 0.86813 0.0
H253 H 0.99314 0.9846 0.80469 0.0
S254 S 0.76868 0.94052 0.82309 0.0
N255 N 0.78929 0.99344 0.85824 0.0
N256 N 0.82241 0.91675 0.79128 0.0
C257 C 0.86019 0.95243 0.80814 0.0
C258 C 0.84224 0.99387 0.84462 0.0
C259 C 0.45326 0.26046 0.35584 0.0
C260 C 0.40485 0.28743 0.3668 0.0
C261 C 0.48402 0.2698 0.31155 0.0
C262 C 0.46678 0.30593 0.27721 0.0
H263 H 0.47065 0.23716 0.38472 0.0
H264 H 0.52427 0.25363 0.30784 0.0
S265 S 0.3362 0.37428 0.28064 0.0
N266 N 0.33578 0.3426 0.33402 0.0
N267 N 0.39393 0.35988 0.25066 0.0
C268 C 0.41501 0.32683 0.28357 0.0
C269 C 0.38384 0.31762 0.3286 0.0
C270 C 0.23666 0.96984 0.91674 0.0
C271 C 0.2449 0.96599 0.97088 0.0
C272 C 0.2461 0.01636 0.89452 0.0
C273 C 0.26327 0.06057 0.92599 0.0
H274 H 0.21904 0.93787 0.89223 0.0
H275 H 0.23456 0.01914 0.85384 0.0
S276 S 0.29814 0.06873 0.06782 0.0
N277 N 0.27788 0.00843 0.05382 0.0
N278 N 0.29455 0.09623 0.01198 0.0
C279 C 0.27678 0.05579 0.97882 0.0
C280 C 0.26784 0.00829 0.00136 0.0
C281 C 0.43291 0.72549 0.4998 0.0
C282 C 0.47399 0.70923 0.46415 0.0
C283 C 0.37857 0.722 0.4845 0.0
C284 C 0.36417 0.70304 0.43293 0.0
H285 H 0.44269 0.73799 0.54044 0.0
H286 H 0.34761 0.73205 0.5136 0.0
S287 S 0.45763 0.65773 0.32481 0.0
N288 N 0.49741 0.67518 0.37535 0.0
N289 N 0.39555 0.66944 0.346 0.0
C290 C 0.40531 0.68914 0.3964 0.0
C291 C 0.46028 0.69198 0.41222 0.0
C292 C 0.42005 0.46309 0.69684 0.0
C293 C 0.36572 0.4601 0.68112 0.0
C294 C 0.43825 0.50286 0.73334 0.0
C295 C 0.40298 0.54164 0.75493 0.0
H296 H 0.44909 0.43534 0.67952 0.0
H297 H 0.48074 0.50438 0.74324 0.0
S298 S 0.25644 0.5504 0.72726 0.0
N299 N 0.27629 0.49765 0.69133 0.0
N300 N 0.31067 0.57362 0.75876 0.0
C301 C 0.34801 0.53782 0.74117 0.0
C302 C 0.32935 0.49675 0.7045 0.0
C303 C 0.92834 0.77624 0.04072 0.0
C304 C 0.97199 0.78136 0.07585 0.0
C305 C 0.87522 0.7817 0.05916 0.0
C306 C 0.86432 0.79299 0.11324 0.0
H307 H 0.93543 0.77083 -0.00139 0.0
H308 H 0.84264 0.78005 0.03072 0.0
S309 S 0.96597 0.80834 0.22076 0.0
N310 N 0.00181 0.79577 0.16655 0.0
N311 N 0.90235 0.80718 0.20162 0.0
C312 C 0.90799 0.79544 0.14884 0.0
C313 C 0.96185 0.78954 0.12996 0.0
C314 C 0.74385 0.52805 0.62373 0.0
C315 C 0.751 0.53117 0.56936 0.0
C316 C 0.75312 0.48167 0.64624 0.0
C317 C 0.7691 0.43707 0.61479 0.0
H318 H 0.72678 0.56037 0.64812 0.0
H319 H 0.74195 0.47924 0.68705 0.0
S320 S 0.80205 0.42733 0.47262 0.0
N321 N 0.78266 0.48794 0.48636 0.0
N322 N 0.7989 0.40032 0.52877 0.0
C323 C 0.78219 0.44126 0.56182 0.0
C324 C 0.77342 0.4886 0.53898 0.0
C325 C 0.94302 0.24491 0.19191 0.0
C326 C 0.89594 0.21741 0.17669 0.0
C327 C 0.97224 0.23285 0.23641 0.0
C328 C 0.9549 0.1931 0.26648 0.0
H329 H 0.96121 0.27047 0.16565 0.0
H330 H 0.01194 0.24963 0.24291 0.0
S331 S 0.82672 0.12059 0.25078 0.0
N332 N 0.82737 0.15741 0.20123 0.0
N333 N 0.88245 0.13467 0.28465 0.0
C334 C 0.90366 0.1717 0.25641 0.0
C335 C 0.87402 0.18394 0.21137 0.0
C336 C 0.25123 0.71193 0.21055 0.0
C337 C 0.1985 0.72467 0.19682 0.0
C338 C 0.26276 0.69595 0.26008 0.0
C339 C 0.22217 0.69334 0.2983 0.0
H340 H 0.28408 0.71541 0.18308 0.0
H341 H 0.3042 0.68682 0.26897 0.0
S342 S 0.07691 0.72039 0.28043 0.0
N343 N 0.1046 0.73102 0.22343 0.0
N344 N 0.12654 0.70227 0.318 0.0
C345 C 0.16873 0.70384 0.28428 0.0
C346 C 0.15684 0.7194 0.23315 0.0
C347 C 0.83004 0.818 0.57136 0.0
C348 C 0.81288 0.76658 0.57188 0.0
C349 C 0.8683 0.83884 0.60782 0.0
C350 C 0.88957 0.80923 0.64666 0.0
H351 H 0.81345 0.84229 0.54294 0.0
H352 H 0.88041 0.87877 0.60635 0.0
S353 S 0.854 0.67322 0.66602 0.0
N354 N 0.81878 0.68658 0.61398 0.0
N355 N 0.88845 0.72624 0.68432 0.0
C356 C 0.87255 0.75754 0.64722 0.0
C357 C 0.83463 0.73612 0.60939 0.0
C358 C 0.67052 0.31915 0.0659 0.0
C359 C 0.68331 0.26632 0.06301 0.0
C360 C 0.63492 0.34102 0.10432 0.0
C361 C 0.61214 0.311 0.14196 0.0
H362 H 0.68927 0.34391 0.03918 0.0
H363 H 0.62649 0.38207 0.10561 0.0
S364 S 0.6359 0.17086 0.15204 0.0
N365 N 0.67109 0.18433 0.10012 0.0
N366 N 0.60652 0.22561 0.17428 0.0
C367 C 0.62425 0.25776 0.13875 0.0
C368 C 0.65937 0.23539 0.09879 0.0
C369 C 0.33019 0.21538 0.72507 0.0
C370 C 0.28907 0.22025 0.68783 0.0
C371 C 0.31851 0.19723 0.77411 0.0
C372 C 0.26556 0.18351 0.78663 0.0
H373 H 0.37077 0.22807 0.7173 0.0
H374 H 0.35034 0.19613 0.80312 0.0
S375 S 0.14618 0.18191 0.69882 0.0
N376 N 0.19524 0.20537 0.66432 0.0
N377 N 0.17357 0.16978 0.75548 0.0
C378 C 0.22523 0.18494 0.74807 0.0
C379 C 0.23692 0.20383 0.69884 0.0
C380 C 0.66187 0.78107 0.31452 0.0
C381 C 0.70134 0.78069 0.3541 0.0
C382 C 0.67472 0.79766 0.26506 0.0
C383 C 0.72725 0.81412 0.25437 0.0
H384 H 0.622 0.76578 0.32081 0.0
H385 H 0.64437 0.79523 0.23433 0.0
S386 S 0.84194 0.82744 0.34796 0.0
N387 N 0.7928 0.80279 0.38145 0.0
N388 N 0.8166 0.83503 0.28922 0.0
C389 C 0.76565 0.81721 0.29503 0.0
C390 C 0.75276 0.80011 0.34481 0.0
C391 C 0.79904 0.31654 0.83752 0.0
C392 C 0.80639 0.26322 0.84056 0.0
C393 C 0.78657 0.33588 0.78933 0.0
C394 C 0.78151 0.30246 0.74286 0.0
H395 H 0.79975 0.34303 0.87293 0.0
H396 H 0.77788 0.37675 0.78899 0.0
S397 S 0.80722 0.16128 0.72849 0.0
N398 N 0.81501 0.17839 0.79207 0.0
N399 N 0.79201 0.21494 0.70159 0.0
C400 C 0.79295 0.24976 0.74482 0.0
C401 C 0.80533 0.23008 0.79369 0.0
C402 C 0.13537 0.22422 0.47383 0.0
C403 C 0.18976 0.22944 0.4598 0.0
C404 C 0.09786 0.20182 0.43719 0.0
C405 C 0.11383 0.18447 0.38563 0.0
H406 H 0.12207 0.23643 0.51351 0.0
H407 H 0.0565 0.19712 0.44946 0.0
S408 S 0.24952 0.19739 0.32736 0.0
N409 N 0.25634 0.22055 0.38951 0.0
N410 N 0.1859 0.17936 0.32082 0.0
C411 C 0.16749 0.19183 0.37063 0.0
C412 C 0.20549 0.21409 0.40774 0.0
C413 C 0.33962 0.75687 0.94318 0.0
C414 C 0.315 0.72729 0.9799 0.0
C415 C 0.37554 0.73419 0.90555 0.0
C416 C 0.38884 0.68132 0.90397 0.0
H417 H 0.32856 0.79708 0.94143 0.0
H418 H 0.39061 0.7577 0.87579 0.0
S419 S 0.34251 0.58993 -0.0016 0.0
N420 N 0.3103 0.64436 0.0165 0.0
N421 N 0.3803 0.60206 0.94764 0.0
C422 C 0.36758 0.65244 0.94334 0.0
C423 C 0.33001 0.67532 0.98083 0.0
loop_
_geom_bond_atom_site_label_1
_geom_bond_atom_site_label_2
_geom_bond_distance
_geom_bond_site_symmetry_2
_ccdc_geom_bond_type
Sc0 O3 2.025 . S
Sc0 O10 2.102 1_554 S
Sc0 O13 2.105 . S
Sc0 O16 2.105 . S
Sc0 O19 2.105 1_554 S
Sc1 O3 2.025 . S
Sc1 O11 2.105 1_554 S
Sc1 O15 2.105 . S
Sc1 O17 2.105 . S
Sc1 O21 2.105 1_554 S
Sc2 O3 2.025 . S
Sc2 O12 2.105 . S
Sc2 O14 2.105 . S
Sc2 O18 2.105 . S
Sc2 O20 2.105 . S
O3 Sc0 2.025 . S
O3 Sc1 2.025 . S
O3 Sc2 2.025 . S
C4 O10 1.268 . S
C4 O20 1.268 1_556 S
C5 O11 1.268 . S
C5 O19 1.268 . S
C6 O12 1.268 1_556 S
C6 O21 1.268 . S
C7 O13 1.268 . S
C7 O17 1.268 . S
C8 O14 1.268 . S
C8 O16 1.268 . S
C9 O15 1.268 . S
C9 O18 1.268 . S
O10 Sc0 2.102 1_556 S
O10 C4 1.268 . S
O11 Sc1 2.105 1_556 S
O11 C5 1.268 . S
O12 Sc2 2.105 . S
O12 C6 1.268 1_554 S
O13 Sc0 2.105 . S
O13 C7 1.268 . S
O14 Sc2 2.105 . S
O14 C8 1.268 . S
O15 Sc1 2.105 . S
O15 C9 1.268 . S
O16 Sc0 2.105 . S
O16 C8 1.268 . S
O17 Sc1 2.105 . S
O17 C7 1.268 . S
O18 Sc2 2.105 . S
O18 C9 1.268 . S
O19 Sc0 2.105 1_556 S
O19 C5 1.268 . S
O20 Sc2 2.105 . S
O20 C4 1.268 1_554 S
O21 Sc1 2.105 1_556 S
O21 C6 1.268 . S
Sc22 O25 2.025 . S
Sc22 O32 2.105 . S
Sc22 O35 2.105 . S
Sc22 O38 2.105 . S
Sc22 O41 2.105 . S
Sc23 O25 2.025 . S
Sc23 O33 2.105 . S
Sc23 O37 2.105 . S
Sc23 O39 2.105 . S
Sc23 O43 2.105 . S
Sc24 O25 2.025 . S
Sc24 O34 2.105 . S
Sc24 O36 2.105 . S
Sc24 O40 2.105 . S
Sc24 O42 2.105 . S
O25 Sc22 2.025 . S
O25 Sc23 2.025 . S
O25 Sc24 2.025 . S
C26 O32 1.268 . S
C26 O42 1.268 . S
C27 O33 1.268 . S
C27 O41 1.268 . S
C28 O34 1.268 . S
C28 O43 1.268 . S
C29 O35 1.268 . S
C29 O39 1.268 . S
C30 O36 1.268 . S
C30 O38 1.268 . S
C31 O37 1.268 . S
C31 O40 1.268 . S
O32 Sc22 2.105 . S
O32 C26 1.268 . S
O33 Sc23 2.105 . S
O33 C27 1.268 . S
O34 Sc24 2.105 . S
O34 C28 1.268 . S
O35 Sc22 2.105 . S
O35 C29 1.268 . S
O36 Sc24 2.105 . S
O36 C30 1.268 . S
O37 Sc23 2.105 . S
O37 C31 1.268 . S
O38 Sc22 2.105 . S
O38 C30 1.268 . S
O39 Sc23 2.105 . S
O39 C29 1.268 . S
O40 Sc24 2.105 . S
O40 C31 1.268 . S
O41 Sc22 2.105 . S
O41 C27 1.268 . S
O42 Sc24 2.105 . S
O42 C26 1.268 . S
O43 Sc23 2.105 . S
O43 C28 1.268 . S
Sc44 O47 2.026 . S
Sc44 O54 2.105 1_554 S
Sc44 O57 2.105 . S
Sc44 O60 2.105 . S
Sc44 O63 2.105 1_554 S
Sc45 O47 2.024 1_556 S
Sc45 O55 2.105 . S
Sc45 O59 2.105 1_556 S
Sc45 O61 2.105 1_556 S
Sc45 O65 2.105 . S
Sc46 O47 2.026 . S
Sc46 O56 2.105 1_554 S
Sc46 O58 2.105 . S
Sc46 O62 2.105 . S
Sc46 O64 2.105 1_554 S
O47 Sc44 2.026 . S
O47 Sc45 2.024 1_554 S
O47 Sc46 2.026 . S
C48 O54 1.268 . S
C48 O64 1.268 . S
C49 O55 1.268 . S
C49 O63 1.268 . S
C50 O56 1.268 . S
C50 O65 1.268 . S
C51 O57 1.268 . S
C51 O61 1.268 . S
C52 O58 1.268 . S
C52 O60 1.268 . S
C53 O59 1.268 . S
C53 O62 1.268 . S
O54 Sc44 2.105 1_556 S
O54 C48 1.268 . S
O55 Sc45 2.105 . S
O55 C49 1.268 . S
O56 Sc46 2.105 1_556 S
O56 C50 1.268 . S
O57 Sc44 2.105 . S
O57 C51 1.268 . S
O58 Sc46 2.105 . S
O58 C52 1.268 . S
O59 Sc45 2.105 1_554 S
O59 C53 1.268 . S
O60 Sc44 2.105 . S
O60 C52 1.268 . S
O61 Sc45 2.105 1_554 S
O61 C51 1.268 . S
O62 Sc46 2.105 . S
O62 C53 1.268 . S
O63 Sc44 2.105 1_556 S
O63 C49 1.268 . S
O64 Sc46 2.105 1_556 S
O64 C48 1.268 . S
O65 Sc45 2.105 . S
O65 C50 1.268 . S
Sc66 O69 2.025 . S
Sc66 O76 2.105 . S
Sc66 O79 2.105 . S
Sc66 O82 2.105 . S
Sc66 O85 2.105 . S
Sc67 O69 2.025 . S
Sc67 O77 2.105 . S
Sc67 O81 2.105 . S
Sc67 O83 2.105 . S
Sc67 O87 2.105 . S
Sc68 O69 2.025 . S
Sc68 O78 2.105 . S
Sc68 O80 2.105 . S
Sc68 O84 2.105 . S
Sc68 O86 2.105 . S
O69 Sc66 2.025 . S
O69 Sc67 2.025 . S
O69 Sc68 2.025 . S
C70 O76 1.268 . S
C70 O86 1.268 . S
C71 O77 1.268 . S
C71 O85 1.268 . S
C72 O78 1.268 . S
C72 O87 1.268 . S
C73 O79 1.268 . S
C73 O83 1.268 . S
C74 O80 1.268 . S
C74 O82 1.268 . S
C75 O81 1.268 . S
C75 O84 1.268 . S
O76 Sc66 2.105 . S
O76 C70 1.268 . S
O77 Sc67 2.105 . S
O77 C71 1.268 . S
O78 Sc68 2.105 . S
O78 C72 1.268 . S
O79 Sc66 2.105 . S
O79 C73 1.268 . S
O80 Sc68 2.105 . S
O80 C74 1.268 . S
O81 Sc67 2.105 . S
O81 C75 1.268 . S
O82 Sc66 2.105 . S
O82 C74 1.268 . S
O83 Sc67 2.105 . S
O83 C73 1.268 . S
O84 Sc68 2.105 . S
O84 C75 1.268 . S
O85 Sc66 2.105 . S
O85 C71 1.268 . S
O86 Sc68 2.105 . S
O86 C70 1.268 . S
O87 Sc67 2.105 . S
O87 C72 1.268 . S
H88 C91 0.931 . S
H89 C94 0.928 . S
H90 C96 0.930 . S
C91 H88 0.931 . S
C91 C92 1.413 . S
C91 C93 1.360 . S
C92 C91 1.413 . S
C92 C96 1.429 . S
C93 C91 1.360 . S
C93 C94 1.372 . S
C94 H89 0.928 . S
C94 C93 1.372 . S
C94 C95 1.404 . S
C95 C94 1.404 . S
C95 C96 1.391 . S
C96 H90 0.930 . S
C96 C92 1.429 . S
C96 C95 1.391 . S
H97 C100 0.931 . S
H98 C103 0.928 . S
H99 C105 0.930 . S
C100 H97 0.931 . S
C100 C101 1.413 . S
C100 C102 1.360 . S
C101 C100 1.413 . S
C101 C105 1.429 . S
C102 C100 1.360 . S
C102 C103 1.372 . S
C103 H98 0.928 . S
C103 C102 1.372 . S
C103 C104 1.404 . S
C104 C103 1.404 . S
C104 C105 1.391 . S
C105 H99 0.930 . S
C105 C101 1.429 . S
C105 C104 1.391 . S
H106 C109 0.931 . S
H107 C112 0.928 . S
H108 C114 0.930 . S
C109 H106 0.931 . S
C109 C110 1.413 . S
C109 C111 1.360 . S
C110 C109 1.413 . S
C110 C114 1.429 . S
C111 C109 1.360 . S
C111 C112 1.372 . S
C112 H107 0.928 . S
C112 C111 1.372 . S
C112 C113 1.404 . S
C113 C112 1.404 . S
C113 C114 1.391 . S
C114 H108 0.930 . S
C114 C110 1.429 . S
C114 C113 1.391 . S
H115 C118 0.931 . S
H116 C121 0.928 . S
H117 C123 0.930 . S
C118 H115 0.931 . S
C118 C119 1.413 . S
C118 C120 1.360 . S
C119 C118 1.413 . S
C119 C123 1.429 . S
C120 C118 1.360 . S
C120 C121 1.372 . S
C121 H116 0.928 . S
C121 C120 1.372 . S
C121 C122 1.404 . S
C122 C121 1.404 . S
C122 C123 1.391 . S
C123 H117 0.930 . S
C123 C119 1.429 . S
C123 C122 1.391 . S
H124 C127 0.931 . S
H125 C130 0.928 . S
H126 C132 0.930 . S
C127 H124 0.931 . S
C127 C128 1.413 . S
C127 C129 1.360 . S
C128 C127 1.413 . S
C128 C132 1.429 . S
C129 C127 1.360 . S
C129 C130 1.372 . S
C130 H125 0.928 . S
C130 C129 1.372 . S
C130 C131 1.404 . S
C131 C130 1.404 . S
C131 C132 1.391 . S
C132 H126 0.930 . S
C132 C128 1.429 . S
C132 C131 1.391 . S
H133 C136 0.931 . S
H134 C139 0.928 . S
H135 C141 0.930 . S
C136 H133 0.931 . S
C136 C137 1.413 . S
C136 C138 1.360 . S
C137 C136 1.413 . S
C137 C141 1.429 . S
C138 C136 1.360 . S
C138 C139 1.372 . S
C139 H134 0.928 . S
C139 C138 1.372 . S
C139 C140 1.404 . S
C140 C139 1.404 . S
C140 C141 1.391 . S
C141 H135 0.930 . S
C141 C137 1.429 . S
C141 C140 1.391 . S
H142 C145 0.931 . S
H143 C148 0.928 . S
H144 C150 0.930 . S
C145 H142 0.931 . S
C145 C146 1.413 . S
C145 C147 1.360 . S
C146 C145 1.413 . S
C146 C150 1.429 . S
C147 C145 1.360 . S
C147 C148 1.372 . S
C148 H143 0.928 . S
C148 C147 1.372 . S
C148 C149 1.404 . S
C149 C148 1.404 . S
C149 C150 1.391 . S
C150 H144 0.930 . S
C150 C146 1.429 . S
C150 C149 1.391 . S
H151 C154 0.931 . S
H152 C157 0.928 . S
H153 C159 0.930 . S
C154 H151 0.931 . S
C154 C155 1.413 . S
C154 C156 1.360 . S
C155 C154 1.413 . S
C155 C159 1.429 . S
C156 C154 1.360 . S
C156 C157 1.372 . S
C157 H152 0.928 . S
C157 C156 1.372 . S
C157 C158 1.404 . S
C158 C157 1.404 . S
C158 C159 1.391 . S
C159 H153 0.930 . S
C159 C155 1.429 . S
C159 C158 1.391 . S
C160 C161 1.369 . S
C160 C162 1.419 . S
C160 H164 0.930 . S
C161 C160 1.369 . S
C161 C170 1.441 . S
C162 C160 1.419 . S
C162 C163 1.363 1_565 S
C162 H165 0.929 . S
C163 C162 1.363 1_545 S
C163 C169 1.428 . S
H164 C160 0.930 . S
H165 C162 0.929 . S
S166 N167 1.613 . S
S166 N168 1.610 . S
N167 S166 1.613 . S
N167 C170 1.344 1_545 S
N168 S166 1.610 . S
N168 C169 1.351 . S
C169 C163 1.428 . S
C169 N168 1.351 . S
C169 C170 1.425 1_545 S
C170 C161 1.441 . S
C170 N167 1.344 1_565 S
C170 C169 1.425 1_565 S
C171 C172 1.369 . S
C171 C173 1.419 . S
C171 H175 0.930 . S
C172 C171 1.369 . S
C172 C181 1.429 . S
C173 C171 1.419 . S
C173 C174 1.363 . S
C173 H176 0.929 . S
C174 C173 1.363 . S
C174 C180 1.428 . S
H175 C171 0.930 . S
H176 C173 0.929 . S
S177 N178 1.613 . S
S177 N179 1.610 . S
N178 S177 1.613 . S
N178 C181 1.350 . S
N179 S177 1.610 . S
N179 C180 1.351 . S
C180 C174 1.428 . S
C180 N179 1.351 . S
C180 C181 1.434 . S
C181 C172 1.429 . S
C181 N178 1.350 . S
C181 C180 1.434 . S
C182 C183 1.369 . S
C182 C184 1.419 1_545 S
C182 H186 0.930 . S
C183 C182 1.369 . S
C183 C192 1.429 1_545 S
C184 C182 1.419 1_565 S
C184 C185 1.363 . S
C184 H187 0.929 . S
C185 C184 1.363 . S
C185 C191 1.428 . S
H186 C182 0.930 . S
H187 C184 0.929 . S
S188 N189 1.613 1_565 S
S188 N190 1.610 1_556 S
N189 S188 1.613 1_545 S
N189 C192 1.350 1_546 S
N190 S188 1.610 1_554 S
N190 C191 1.351 . S
C191 C185 1.428 . S
C191 N190 1.351 . S
C191 C192 1.434 . S
C192 C183 1.429 1_565 S
C192 N189 1.350 1_564 S
C192 C191 1.434 . S
C193 C194 1.369 . S
C193 C195 1.419 . S
C193 H197 0.930 . S
C194 C193 1.369 . S
C194 C203 1.429 . S
C195 C193 1.419 . S
C195 C196 1.363 . S
C195 H198 0.929 . S
C196 C195 1.363 . S
C196 C202 1.428 . S
H197 C193 0.930 . S
H198 C195 0.929 . S
S199 N200 1.613 . S
S199 N201 1.610 . S
N200 S199 1.613 . S
N200 C203 1.350 . S
N201 S199 1.610 . S
N201 C202 1.351 . S
C202 C196 1.428 . S
C202 N201 1.351 . S
C202 C203 1.434 . S
C203 C194 1.429 . S
C203 N200 1.350 . S
C203 C202 1.434 . S
C204 C205 1.369 . S
C204 C206 1.419 . S
C204 H208 0.930 . S
C205 C204 1.369 . S
C205 C214 1.429 . S
C206 C204 1.419 . S
C206 C207 1.363 . S
C206 H209 0.929 . S
C207 C206 1.363 . S
C207 C213 1.428 . S
H208 C204 0.930 . S
H209 C206 0.929 . S
S210 N211 1.613 . S
S210 N212 1.610 . S
N211 S210 1.613 . S
N211 C214 1.350 . S
N212 S210 1.610 . S
N212 C213 1.351 . S
C213 C207 1.428 . S
C213 N212 1.351 . S
C213 C214 1.434 . S
C214 C205 1.429 . S
C214 N211 1.350 . S
C214 C213 1.434 . S
C215 C216 1.369 . S
C215 C217 1.419 . S
C215 H219 0.930 . S
C216 C215 1.369 . S
C216 C225 1.429 . S
C217 C215 1.419 . S
C217 C218 1.363 . S
C217 H220 0.929 . S
C218 C217 1.363 . S
C218 C224 1.428 . S
H219 C215 0.930 . S
H220 C217 0.929 . S
S221 N222 1.613 . S
S221 N223 1.610 . S
N222 S221 1.613 . S
N222 C225 1.350 . S
N223 S221 1.610 . S
N223 C224 1.351 . S
C224 C218 1.428 . S
C224 N223 1.351 . S
C224 C225 1.434 . S
C225 C216 1.429 . S
C225 N222 1.350 . S
C225 C224 1.434 . S
C226 C227 1.369 . S
C226 C228 1.419 . S
C226 H230 0.930 . S
C227 C226 1.369 . S
C227 C236 1.429 . S
C228 C226 1.419 . S
C228 C229 1.363 . S
C228 H231 0.929 . S
C229 C228 1.363 . S
C229 C235 1.428 . S
H230 C226 0.930 . S
H231 C228 0.929 . S
S232 N233 1.613 . S
S232 N234 1.610 . S
N233 S232 1.613 . S
N233 C236 1.350 . S
N234 S232 1.610 . S
N234 C235 1.351 . S
C235 C229 1.428 . S
C235 N234 1.351 . S
C235 C236 1.434 . S
C236 C227 1.429 . S
C236 N233 1.350 . S
C236 C235 1.434 . S
C237 C238 1.369 . S
C237 C239 1.419 . S
C237 H241 0.930 . S
C238 C237 1.369 . S
C238 C247 1.429 . S
C239 C237 1.419 . S
C239 C240 1.363 . S
C239 H242 0.929 . S
C240 C239 1.363 . S
C240 C246 1.428 . S
H241 C237 0.930 . S
H242 C239 0.929 . S
S243 N244 1.613 1_655 S
S243 N245 1.610 . S
N244 S243 1.613 1_455 S
N244 C247 1.350 . S
N245 S243 1.610 . S
N245 C246 1.351 1_655 S
C246 C240 1.428 . S
C246 N245 1.351 1_455 S
C246 C247 1.434 . S
C247 C238 1.429 . S
C247 N244 1.350 . S
C247 C246 1.434 . S
C248 C249 1.369 . S
C248 C250 1.419 . S
C248 H252 0.930 . S
C249 C248 1.369 . S
C249 C258 1.429 . S
C250 C248 1.419 . S
C250 C251 1.363 1_545 S
C250 H253 0.929 . S
C251 C250 1.363 1_565 S
C251 C257 1.428 . S
H252 C248 0.930 . S
H253 C250 0.929 . S
S254 N255 1.613 . S
S254 N256 1.610 . S
N255 S254 1.613 . S
N255 C258 1.350 1_565 S
N256 S254 1.610 . S
N256 C257 1.351 . S
C257 C251 1.428 . S
C257 N256 1.351 . S
C257 C258 1.434 1_565 S
C258 C249 1.429 . S
C258 N255 1.350 1_545 S
C258 C257 1.434 1_545 S
C259 C260 1.369 . S
C259 C261 1.419 . S
C259 H263 0.930 . S
C260 C259 1.369 . S
C260 C269 1.429 . S
C261 C259 1.419 . S
C261 C262 1.363 . S
C261 H264 0.929 . S
C262 C261 1.363 . S
C262 C268 1.428 . S
H263 C259 0.930 . S
H264 C261 0.929 . S
S265 N266 1.613 . S
S265 N267 1.610 . S
N266 S265 1.613 . S
N266 C269 1.350 . S
N267 S265 1.610 . S
N267 C268 1.351 . S
C268 C262 1.428 . S
C268 N267 1.351 . S
C268 C269 1.434 . S
C269 C260 1.429 . S
C269 N266 1.350 . S
C269 C268 1.434 . S
C270 C271 1.369 . S
C270 C272 1.419 1_565 S
C270 H274 0.930 . S
C271 C270 1.369 . S
C271 C280 1.429 . S
C272 C270 1.419 1_545 S
C272 C273 1.363 . S
C272 H275 0.929 . S
C273 C272 1.363 . S
C273 C279 1.428 . S
H274 C270 0.930 . S
H275 C272 0.929 . S
S276 N277 1.613 1_545 S
S276 N278 1.610 . S
N277 S276 1.613 1_565 S
N277 C280 1.350 1_554 S
N278 S276 1.610 . S
N278 C279 1.351 1_554 S
C279 C273 1.428 . S
C279 N278 1.351 1_556 S
C279 C280 1.434 1_545 S
C280 C271 1.429 . S
C280 N277 1.350 1_556 S
C280 C279 1.434 1_565 S
C281 C282 1.369 . S
C281 C283 1.419 . S
C281 H285 0.930 . S
C282 C281 1.369 . S
C282 C291 1.429 . S
C283 C281 1.419 . S
C283 C284 1.363 . S
C283 H286 0.929 . S
C284 C283 1.363 . S
C284 C290 1.428 . S
H285 C281 0.930 . S
H286 C283 0.929 . S
S287 N288 1.613 . S
S287 N289 1.610 . S
N288 S287 1.613 . S
N288 C291 1.350 . S
N289 S287 1.610 . S
N289 C290 1.351 . S
C290 C284 1.428 . S
C290 N289 1.351 . S
C290 C291 1.434 . S
C291 C282 1.429 . S
C291 N288 1.350 . S
C291 C290 1.434 . S
C292 C293 1.369 . S
C292 C294 1.419 . S
C292 H296 0.930 . S
C293 C292 1.369 . S
C293 C302 1.429 . S
C294 C292 1.419 . S
C294 C295 1.363 . S
C294 H297 0.929 . S
C295 C294 1.363 . S
C295 C301 1.428 . S
H296 C292 0.930 . S
H297 C294 0.929 . S
S298 N299 1.613 . S
S298 N300 1.610 . S
N299 S298 1.613 . S
N299 C302 1.350 . S
N300 S298 1.610 . S
N300 C301 1.351 . S
C301 C295 1.428 . S
C301 N300 1.351 . S
C301 C302 1.434 . S
C302 C293 1.429 . S
C302 N299 1.350 . S
C302 C301 1.434 . S
C303 C304 1.369 . S
C303 C305 1.419 . S
C303 H307 0.930 . S
C304 C303 1.369 . S
C304 C313 1.429 . S
C305 C303 1.419 . S
C305 C306 1.363 . S
C305 H308 0.929 . S
C306 C305 1.363 . S
C306 C312 1.428 . S
H307 C303 0.930 . S
H308 C305 0.929 . S
S309 N310 1.613 . S
S309 N311 1.610 . S
N310 S309 1.613 . S
N310 C313 1.350 . S
N311 S309 1.610 . S
N311 C312 1.351 . S
C312 C306 1.428 . S
C312 N311 1.351 . S
C312 C313 1.434 . S
C313 C304 1.429 . S
C313 N310 1.350 . S
C313 C312 1.434 . S
C314 C315 1.369 . S
C314 C316 1.419 . S
C314 H318 0.930 . S
C315 C314 1.369 . S
C315 C324 1.429 . S
C316 C314 1.419 . S
C316 C317 1.363 . S
C316 H319 0.929 . S
C317 C316 1.363 . S
C317 C323 1.428 . S
H318 C314 0.930 . S
H319 C316 0.929 . S
S320 N321 1.613 . S
S320 N322 1.610 . S
N321 S320 1.613 . S
N321 C324 1.350 . S
N322 S320 1.610 . S
N322 C323 1.351 . S
C323 C317 1.428 . S
C323 N322 1.351 . S
C323 C324 1.434 . S
C324 C315 1.429 . S
C324 N321 1.350 . S
C324 C323 1.434 . S
C325 C326 1.369 . S
C325 C327 1.419 1_655 S
C325 H329 0.930 . S
C326 C325 1.369 . S
C326 C335 1.429 . S
C327 C325 1.419 1_455 S
C327 C328 1.363 1_455 S
C327 H330 0.929 . S
C328 C327 1.363 1_655 S
C328 C334 1.428 . S
H329 C325 0.930 . S
H330 C327 0.929 . S
S331 N332 1.613 . S
S331 N333 1.610 . S
N332 S331 1.613 . S
N332 C335 1.350 . S
N333 S331 1.610 . S
N333 C334 1.351 . S
C334 C328 1.428 . S
C334 N333 1.351 . S
C334 C335 1.434 . S
C335 C326 1.429 . S
C335 N332 1.350 . S
C335 C334 1.434 . S
C336 C337 1.369 . S
C336 C338 1.419 . S
C336 H340 0.930 . S
C337 C336 1.369 . S
C337 C346 1.429 . S
C338 C336 1.419 . S
C338 C339 1.363 . S
C338 H341 0.929 . S
C339 C338 1.363 . S
C339 C345 1.428 . S
H340 C336 0.930 . S
H341 C338 0.929 . S
S342 N343 1.613 . S
S342 N344 1.610 . S
N343 S342 1.613 . S
N343 C346 1.350 . S
N344 S342 1.610 . S
N344 C345 1.351 . S
C345 C339 1.428 . S
C345 N344 1.351 . S
C345 C346 1.434 . S
C346 C337 1.429 . S
C346 N343 1.350 . S
C346 C345 1.434 . S
C347 C348 1.369 . S
C347 C349 1.419 . S
C347 H351 0.930 . S
C348 C347 1.369 . S
C348 C357 1.429 . S
C349 C347 1.419 . S
C349 C350 1.363 . S
C349 H352 0.929 . S
C350 C349 1.363 . S
C350 C356 1.428 . S
H351 C347 0.930 . S
H352 C349 0.929 . S
S353 N354 1.613 . S
S353 N355 1.610 . S
N354 S353 1.613 . S
N354 C357 1.350 . S
N355 S353 1.610 . S
N355 C356 1.351 . S
C356 C350 1.428 . S
C356 N355 1.351 . S
C356 C357 1.434 . S
C357 C348 1.429 . S
C357 N354 1.350 . S
C357 C356 1.434 . S
C358 C359 1.369 . S
C358 C360 1.419 . S
C358 H362 0.930 . S
C359 C358 1.369 . S
C359 C368 1.429 . S
C360 C358 1.419 . S
C360 C361 1.363 . S
C360 H363 0.929 . S
C361 C360 1.363 . S
C361 C367 1.428 . S
H362 C358 0.930 . S
H363 C360 0.929 . S
S364 N365 1.613 . S
S364 N366 1.610 . S
N365 S364 1.613 . S
N365 C368 1.350 . S
N366 S364 1.610 . S
N366 C367 1.351 . S
C367 C361 1.428 . S
C367 N366 1.351 . S
C367 C368 1.434 . S
C368 C359 1.429 . S
C368 N365 1.350 . S
C368 C367 1.434 . S
C369 C370 1.369 . S
C369 C371 1.419 . S
C369 H373 0.930 . S
C370 C369 1.369 . S
C370 C379 1.429 . S
C371 C369 1.419 . S
C371 C372 1.363 . S
C371 H374 0.929 . S
C372 C371 1.363 . S
C372 C378 1.428 . S
H373 C369 0.930 . S
H374 C371 0.929 . S
S375 N376 1.613 . S
S375 N377 1.610 . S
N376 S375 1.613 . S
N376 C379 1.350 . S
N377 S375 1.610 . S
N377 C378 1.351 . S
C378 C372 1.428 . S
C378 N377 1.351 . S
C378 C379 1.434 . S
C379 C370 1.429 . S
C379 N376 1.350 . S
C379 C378 1.434 . S
C380 C381 1.369 . S
C380 C382 1.419 . S
C380 H384 0.930 . S
C381 C380 1.369 . S
C381 C390 1.429 . S
C382 C380 1.419 . S
C382 C383 1.363 . S
C382 H385 0.929 . S
C383 C382 1.363 . S
C383 C389 1.428 . S
H384 C380 0.930 . S
H385 C382 0.929 . S
S386 N387 1.613 . S
S386 N388 1.610 . S
N387 S386 1.613 . S
N387 C390 1.350 . S
N388 S386 1.610 . S
N388 C389 1.351 . S
C389 C383 1.428 . S
C389 N388 1.351 . S
C389 C390 1.434 . S
C390 C381 1.429 . S
C390 N387 1.350 . S
C390 C389 1.434 . S
C391 C392 1.369 . S
C391 C393 1.419 . S
C391 H395 0.930 . S
C392 C391 1.369 . S
C392 C401 1.429 . S
C393 C391 1.419 . S
C393 C394 1.363 . S
C393 H396 0.929 . S
C394 C393 1.363 . S
C394 C400 1.428 . S
H395 C391 0.930 . S
H396 C393 0.929 . S
S397 N398 1.613 . S
S397 N399 1.610 . S
N398 S397 1.613 . S
N398 C401 1.350 . S
N399 S397 1.610 . S
N399 C400 1.351 . S
C400 C394 1.428 . S
C400 N399 1.351 . S
C400 C401 1.434 . S
C401 C392 1.429 . S
C401 N398 1.350 . S
C401 C400 1.434 . S
C402 C403 1.369 . S
C402 C404 1.419 . S
C402 H406 0.930 . S
C403 C402 1.369 . S
C403 C412 1.429 . S
C404 C402 1.419 . S
C404 C405 1.363 . S
C404 H407 0.929 . S
C405 C404 1.363 . S
C405 C411 1.428 . S
H406 C402 0.930 . S
H407 C404 0.929 . S
S408 N409 1.613 . S
S408 N410 1.610 . S
N409 S408 1.613 . S
N409 C412 1.350 . S
N410 S408 1.610 . S
N410 C411 1.351 . S
C411 C405 1.428 . S
C411 N410 1.351 . S
C411 C412 1.434 . S
C412 C403 1.429 . S
C412 N409 1.350 . S
C412 C411 1.434 . S
C413 C414 1.369 . S
C413 C415 1.419 . S
C413 H417 0.930 . S
C414 C413 1.369 . S
C414 C423 1.429 . S
C415 C413 1.419 . S
C415 C416 1.363 . S
C415 H418 0.929 . S
C416 C415 1.363 . S
C416 C422 1.428 . S
H417 C413 0.930 . S
H418 C415 0.929 . S
S419 N420 1.613 . S
S419 N421 1.610 1_554 S
N420 S419 1.613 . S
N420 C423 1.350 1_554 S
N421 S419 1.610 1_556 S
N421 C422 1.351 . S
C422 C416 1.428 . S
C422 N421 1.351 . S
C422 C423 1.434 . S
C423 C414 1.429 . S
C423 N420 1.350 1_556 S
C423 C422 1.434 . S
C161 C8 1.456 . S
C163 C93 1.448 . S
C172 C31 1.368 . S
C174 C101 1.356 . S
C183 C53 1.464 . S
C185 C110 1.455 . S
C196 C120 1.435 . S
C194 C74 1.404 . S
C207 C129 1.452 . S
C205 C26 1.459 . S
C216 C48 1.406 1_455 S
C218 C138 1.437 . S
C227 C71 1.467 . S
C229 C146 1.449 . S
C238 C5 1.376 . S
C240 C156 1.366 1_455 S
C249 C50 1.453 . S
C251 C155 1.444 . S
C262 C128 1.364 . S
C260 C70 1.373 . S
C273 C137 1.451 . S
C271 C4 1.462 . S
C282 C28 1.405 . S
C284 C147 1.442 . S
C295 C102 1.438 . S
C293 C73 1.454 . S
C304 C7 1.402 1_655 S
C306 C111 1.440 . S
C317 C119 1.450 . S
C315 C30 1.462 . S
C328 C92 1.364 1_655 S
C326 C52 1.374 . S
C339 C149 1.448 . S
C337 C9 1.488 . S
C350 C158 1.363 . S
C348 C29 1.372 . S
C359 C51 1.368 . S
C361 C131 1.361 . S
C372 C140 1.437 . S
C370 C75 1.489 . S
C383 C113 1.442 . S
C381 C27 1.491 . S
C392 C49 1.487 . S
C394 C122 1.436 . S
C405 C95 1.359 . S
C403 C72 1.372 . S
C416 C104 1.358 . S
C414 C6 1.366 . S
