# Generated by pormake.
# Topology apo, (3,6)-cn, num edge types: 1
# Building blocks:
#     Node 0, Type 0, BuildingBlock: VETTIZ_charged_linker_0, # of connection points: 3
#     Node 1, Type 0, BuildingBlock: VETTIZ_charged_linker_0, # of connection points: 3
#     Node 2, Type 0, BuildingBlock: VETTIZ_charged_linker_0, # of connection points: 3
#     Node 3, Type 0, BuildingBlock: VETTIZ_charged_linker_0, # of connection points: 3
#     Node 4, Type 0, BuildingBlock: VETTIZ_charged_linker_0, # of connection points: 3
#     Node 5, Type 0, BuildingBlock: VETTIZ_charged_linker_0, # of connection points: 3
#     Node 6, Type 0, BuildingBlock: VETTIZ_charged_linker_0, # of connection points: 3
#     Node 7, Type 0, BuildingBlock: VETTIZ_charged_linker_0, # of connection points: 3
#     Node 8, Type 1, BuildingBlock: MIDCAF_clean_sbu_0, # of connection points: 6
#     Node 9, Type 1, BuildingBlock: MIDCAF_clean_sbu_0, # of connection points: 6
#     Node 10, Type 1, BuildingBlock: MIDCAF_clean_sbu_0, # of connection points: 6
#     Node 11, Type 1, BuildingBlock: MIDCAF_clean_sbu_0, # of connection points: 6
#     Edge 12, Type (0, 1), BuildingBlock: XIVTED_clean_linker_0, # of connection points: 2
#     Edge 13, Type (0, 1), BuildingBlock: XIVTED_clean_linker_0, # of connection points: 2
#     Edge 14, Type (0, 1), BuildingBlock: XIVTED_clean_linker_0, # of connection points: 2
#     Edge 15, Type (0, 1), BuildingBlock: XIVTED_clean_linker_0, # of connection points: 2
#     Edge 16, Type (0, 1), BuildingBlock: XIVTED_clean_linker_0, # of connection points: 2
#     Edge 17, Type (0, 1), BuildingBlock: XIVTED_clean_linker_0, # of connection points: 2
#     Edge 18, Type (0, 1), BuildingBlock: XIVTED_clean_linker_0, # of connection points: 2
#     Edge 19, Type (0, 1), BuildingBlock: XIVTED_clean_linker_0, # of connection points: 2
#     Edge 20, Type (0, 1), BuildingBlock: XIVTED_clean_linker_0, # of connection points: 2
#     Edge 21, Type (0, 1), BuildingBlock: XIVTED_clean_linker_0, # of connection points: 2
#     Edge 22, Type (0, 1), BuildingBlock: XIVTED_clean_linker_0, # of connection points: 2
#     Edge 23, Type (0, 1), BuildingBlock: XIVTED_clean_linker_0, # of connection points: 2
#     Edge 24, Type (0, 1), BuildingBlock: XIVTED_clean_linker_0, # of connection points: 2
#     Edge 25, Type (0, 1), BuildingBlock: XIVTED_clean_linker_0, # of connection points: 2
#     Edge 26, Type (0, 1), BuildingBlock: XIVTED_clean_linker_0, # of connection points: 2
#     Edge 27, Type (0, 1), BuildingBlock: XIVTED_clean_linker_0, # of connection points: 2
#     Edge 28, Type (0, 1), BuildingBlock: XIVTED_clean_linker_0, # of connection points: 2
#     Edge 29, Type (0, 1), BuildingBlock: XIVTED_clean_linker_0, # of connection points: 2
#     Edge 30, Type (0, 1), BuildingBlock: XIVTED_clean_linker_0, # of connection points: 2
#     Edge 31, Type (0, 1), BuildingBlock: XIVTED_clean_linker_0, # of connection points: 2
#     Edge 32, Type (0, 1), BuildingBlock: XIVTED_clean_linker_0, # of connection points: 2
#     Edge 33, Type (0, 1), BuildingBlock: XIVTED_clean_linker_0, # of connection points: 2
#     Edge 34, Type (0, 1), BuildingBlock: XIVTED_clean_linker_0, # of connection points: 2
#     Edge 35, Type (0, 1), BuildingBlock: XIVTED_clean_linker_0, # of connection points: 2
# Relax obj value: 0.090
# Max RMSD: 0.101
# Mean RMSD: 0.093
data_MOF--net-apo--node1-MIDCAF_clean_sbu_0--node2-VETTIZ_charged_linker_0--edge1-XIVTED_clean_linker_0
_symmetry_space_group_name_H-M    P1
_symmetry_Int_Tables_number       1
_symmetry_cell_setting            triclinic
loop_
_symmetry_equiv_pos_as_xyz
'x, y, z'
_cell_length_a     42.180196
_cell_length_b     50.445712
_cell_length_c     45.332498
_cell_angle_alpha  90.034318
_cell_angle_beta   90.025806
_cell_angle_gamma 90.19025
loop_
_atom_site_label
_atom_site_type_symbol
_atom_site_fract_x
_atom_site_fract_y
_atom_site_fract_z
_atom_type_partial_charge
C0 C 0.34269 0.30179 0.50015 0.0
C1 C 0.35999 0.31712 0.52054 0.0
C2 C 0.37486 0.34061 0.51096 0.0
C3 C 0.3556 0.33331 0.46132 0.0
C4 C 0.34042 0.3105 0.47075 0.0
C5 C 0.3218 0.29757 0.44621 0.0
H6 H 0.26927 0.30089 0.30451 0.0
C7 C 0.34873 0.33695 0.42964 0.0
C8 C 0.32856 0.31632 0.42063 0.0
H9 H 0.24885 0.24246 0.37165 0.0
H10 H 0.28294 0.2654 0.40592 0.0
H11 H 0.26612 0.35234 0.3465 0.0
H12 H 0.34477 0.30382 0.31914 0.0
H13 H 0.35707 0.3371 0.31772 0.0
H14 H 0.32503 0.32607 0.29435 0.0
H15 H 0.2811 0.35266 0.30943 0.0
H16 H 0.298 0.37346 0.33777 0.0
C17 C 0.28634 0.29767 0.45507 0.0
C18 C 0.33571 0.26962 0.44073 0.0
C19 C 0.39987 0.41356 0.3749 0.0
C20 C 0.39667 0.42376 0.34616 0.0
C21 C 0.37647 0.4104 0.32617 0.0
C22 C 0.35959 0.38763 0.33482 0.0
C23 C 0.36268 0.37811 0.36384 0.0
C24 C 0.38248 0.39118 0.38331 0.0
C25 C 0.38168 0.37936 0.4137 0.0
C26 C 0.35886 0.35644 0.40911 0.0
C27 C 0.34787 0.35568 0.37987 0.0
C28 C 0.36826 0.40044 0.43531 0.0
C29 C 0.4155 0.36962 0.4213 0.0
C30 C 0.27208 0.29318 0.32665 0.0
C31 C 0.25632 0.26987 0.33539 0.0
C32 C 0.26096 0.26023 0.36428 0.0
C33 C 0.2806 0.27369 0.38425 0.0
C34 C 0.29595 0.29707 0.37533 0.0
C35 C 0.29194 0.30627 0.34683 0.0
C36 C 0.31117 0.33089 0.34098 0.0
C37 C 0.32675 0.33524 0.37082 0.0
C38 C 0.31752 0.31548 0.39096 0.0
C39 C 0.28812 0.35362 0.33303 0.0
C40 C 0.33574 0.32441 0.31666 0.0
H41 H 0.3852 0.36654 0.47567 0.0
H42 H 0.33096 0.28368 0.507 0.0
H43 H 0.36188 0.26967 0.44388 0.0
H44 H 0.33211 0.26262 0.41788 0.0
H45 H 0.32548 0.25488 0.45627 0.0
H46 H 0.28015 0.31642 0.46663 0.0
H47 H 0.2808 0.28099 0.47022 0.0
H48 H 0.27015 0.29677 0.43599 0.0
H49 H 0.4154 0.42288 0.39087 0.0
H50 H 0.37302 0.41789 0.30404 0.0
H51 H 0.3444 0.37856 0.31869 0.0
H52 H 0.35368 0.41551 0.42365 0.0
H53 H 0.38761 0.4112 0.44692 0.0
H54 H 0.35193 0.39175 0.45182 0.0
H55 H 0.42633 0.35943 0.40202 0.0
H56 H 0.41591 0.35497 0.43936 0.0
H57 H 0.43115 0.38652 0.42739 0.0
H58 H 0.38864 0.35251 0.52624 0.0
C59 C 0.37293 0.34868 0.48153 0.0
C60 C 0.23594 0.20279 0.82329 0.0
C61 C 0.25215 0.22571 0.8326 0.0
C62 C 0.24743 0.23507 0.86159 0.0
C63 C 0.21162 0.19858 0.87171 0.0
C64 C 0.21563 0.18975 0.84306 0.0
C65 C 0.19594 0.16552 0.83658 0.0
H66 H 0.0898 0.07408 0.88373 0.0
C67 C 0.18961 0.18023 0.88684 0.0
C68 C 0.18009 0.16094 0.86623 0.0
H69 H 0.13293 0.08015 0.79733 0.0
H70 H 0.162 0.11887 0.81308 0.0
H71 H 0.15145 0.08011 0.91703 0.0
H72 H 0.08003 0.13763 0.89655 0.0
H73 H 0.09034 0.14103 0.93408 0.0
H74 H 0.0745 0.11002 0.92103 0.0
H75 H 0.11752 0.08445 0.94028 0.0
H76 H 0.15354 0.10333 0.94578 0.0
C77 C 0.21858 0.14257 0.82831 0.0
C78 C 0.17166 0.17275 0.81225 0.0
C79 C 0.16518 0.19195 0.99639 0.0
C80 C 0.14769 0.17644 0.01643 0.0
C81 C 0.13208 0.15349 0.00624 0.0
C82 C 0.13356 0.14609 0.97654 0.0
C83 C 0.15119 0.16159 0.95671 0.0
C84 C 0.16699 0.18391 0.96673 0.0
C85 C 0.18579 0.19707 0.94251 0.0
C86 C 0.17852 0.17898 0.91645 0.0
C87 C 0.1579 0.15849 0.92493 0.0
C88 C 0.22127 0.19624 0.95128 0.0
C89 C 0.17249 0.22535 0.93785 0.0
C90 C 0.10559 0.08352 0.86809 0.0
C91 C 0.10884 0.07379 0.83913 0.0
C92 C 0.12939 0.08728 0.81961 0.0
C93 C 0.14655 0.10969 0.82889 0.0
C94 C 0.14343 0.11871 0.85811 0.0
C95 C 0.12329 0.10554 0.87715 0.0
C96 C 0.12418 0.1168 0.90784 0.0
C97 C 0.14744 0.13951 0.9039 0.0
C98 C 0.15854 0.14065 0.87473 0.0
C99 C 0.13711 0.09515 0.929 0.0
C100 C 0.09053 0.12683 0.91556 0.0
H101 H 0.22497 0.22968 0.90295 0.0
H102 H 0.2388 0.19532 0.80104 0.0
H103 H 0.1632 0.19348 0.81499 0.0
H104 H 0.14996 0.16048 0.81305 0.0
H105 H 0.1824 0.17112 0.78996 0.0
H106 H 0.24059 0.1434 0.84183 0.0
H107 H 0.22564 0.14371 0.80474 0.0
H108 H 0.20834 0.1228 0.83273 0.0
H109 H 0.17747 0.20966 0.00373 0.0
H110 H 0.11815 0.14148 0.02126 0.0
H111 H 0.12078 0.1286 0.9702 0.0
H112 H 0.22714 0.17704 0.96203 0.0
H113 H 0.22716 0.21234 0.9671 0.0
H114 H 0.23743 0.19758 0.93221 0.0
H115 H 0.14638 0.2257 0.94134 0.0
H116 H 0.17589 0.23266 0.9151 0.0
H117 H 0.18333 0.23965 0.95356 0.0
H118 H 0.25986 0.25256 0.86936 0.0
C119 C 0.22734 0.22165 0.88116 0.0
C120 C 0.84923 0.19692 0.51232 0.0
C121 C 0.87271 0.18563 0.49431 0.0
C122 C 0.8922 0.16554 0.50577 0.0
C123 C 0.86507 0.16807 0.55271 0.0
C124 C 0.84604 0.18799 0.54157 0.0
C125 C 0.82372 0.19866 0.56464 0.0
H126 H 0.7673 0.19428 0.70493 0.0
C127 C 0.85604 0.16338 0.58376 0.0
C128 C 0.8319 0.18129 0.59102 0.0
H129 H 0.7433 0.2495 0.6356 0.0
H130 H 0.77897 0.22733 0.60227 0.0
H131 H 0.76757 0.14222 0.66402 0.0
H132 H 0.84307 0.19429 0.69187 0.0
H133 H 0.85563 0.16129 0.69633 0.0
H134 H 0.82191 0.17296 0.71679 0.0
H135 H 0.78369 0.14089 0.70062 0.0
H136 H 0.80097 0.12239 0.67056 0.0
C137 C 0.78936 0.19384 0.55388 0.0
C138 C 0.83208 0.22823 0.57014 0.0
C139 C 0.90991 0.08991 0.64118 0.0
C140 C 0.90444 0.07839 0.66902 0.0
C141 C 0.88116 0.08974 0.68747 0.0
C142 C 0.86339 0.1117 0.67812 0.0
C143 C 0.86867 0.12241 0.64991 0.0
C144 C 0.89153 0.11138 0.63196 0.0
C145 C 0.89269 0.1241 0.60202 0.0
C146 C 0.86689 0.14478 0.60496 0.0
C147 C 0.85315 0.14397 0.63315 0.0
C148 C 0.88423 0.10266 0.5787 0.0
C149 C 0.92587 0.13693 0.59807 0.0
C150 C 0.76967 0.20146 0.68252 0.0
C151 C 0.75267 0.22378 0.67295 0.0
C152 C 0.75652 0.23261 0.64364 0.0
C153 C 0.77716 0.21966 0.62426 0.0
C154 C 0.79443 0.19768 0.63424 0.0
C155 C 0.79057 0.18891 0.66293 0.0
C156 C 0.81151 0.16562 0.6698 0.0
C157 C 0.82895 0.16226 0.64072 0.0
C158 C 0.81858 0.18093 0.61986 0.0
C159 C 0.79005 0.14146 0.67686 0.0
C160 C 0.8342 0.1737 0.69514 0.0
H161 H 0.90413 0.14131 0.5421 0.0
H162 H 0.83433 0.21272 0.50407 0.0
H163 H 0.85753 0.23234 0.56548 0.0
H164 H 0.8289 0.23416 0.59343 0.0
H165 H 0.81781 0.24148 0.55582 0.0
H166 H 0.78688 0.17357 0.54445 0.0
H167 H 0.78278 0.20826 0.53642 0.0
H168 H 0.77172 0.19496 0.5718 0.0
H169 H 0.92784 0.08219 0.62645 0.0
H170 H 0.87591 0.0812 0.70883 0.0
H171 H 0.84584 0.1192 0.69305 0.0
H172 H 0.86694 0.08806 0.5877 0.0
H173 H 0.90562 0.09151 0.57171 0.0
H174 H 0.87242 0.11086 0.55899 0.0
H175 H 0.93478 0.14509 0.61934 0.0
H176 H 0.9257 0.15404 0.58288 0.0
H177 H 0.94343 0.12219 0.59015 0.0
H178 H 0.91048 0.15672 0.49216 0.0
C179 C 0.88847 0.15664 0.53476 0.0
C180 C 0.7375 0.29498 0.18428 0.0
C181 C 0.7541 0.2728 0.17375 0.0
C182 C 0.75064 0.26531 0.14395 0.0
C183 C 0.71506 0.30211 0.13547 0.0
C184 C 0.71792 0.30914 0.16487 0.0
C185 C 0.69752 0.33255 0.1726 0.0
H186 H 0.5967 0.4288 0.12861 0.0
C187 C 0.69358 0.32124 0.12105 0.0
C188 C 0.6831 0.33906 0.14276 0.0
H189 H 0.627 0.41051 0.21752 0.0
H190 H 0.65934 0.37487 0.19902 0.0
H191 H 0.66198 0.42207 0.09789 0.0
H192 H 0.58495 0.36697 0.1095 0.0
H193 H 0.59783 0.36492 0.07266 0.0
H194 H 0.58266 0.39582 0.08642 0.0
H195 H 0.62751 0.42287 0.07473 0.0
H196 H 0.66123 0.40229 0.06605 0.0
C197 C 0.71936 0.35512 0.18384 0.0
C198 C 0.67214 0.32334 0.19518 0.0
C199 C 0.67058 0.31422 0.01082 0.0
C200 C 0.65348 0.33042 0.99123 0.0
C201 C 0.63954 0.35387 1.00199 0.0
C202 C 0.64178 0.36076 0.03184 0.0
C203 C 0.65826 0.34411 0.05132 0.0
C204 C 0.67299 0.32163 0.04063 0.0
C205 C 0.69102 0.30726 0.06442 0.0
C206 C 0.68379 0.32438 0.09122 0.0
C207 C 0.66421 0.3457 0.08342 0.0
C208 C 0.72668 0.30795 0.05622 0.0
C209 C 0.67687 0.27903 0.0675 0.0
C210 C 0.60985 0.41693 0.14426 0.0
C211 C 0.60904 0.42261 0.17468 0.0
C212 C 0.62734 0.4069 0.19398 0.0
C213 C 0.64596 0.38602 0.18321 0.0
C214 C 0.64628 0.38058 0.15279 0.0
C215 C 0.62828 0.39586 0.13392 0.0
C216 C 0.63088 0.38688 0.10237 0.0
C217 C 0.65309 0.36343 0.10545 0.0
C218 C 0.66225 0.35997 0.13499 0.0
C219 C 0.64595 0.40964 0.08409 0.0
C220 C 0.59741 0.37829 0.09189 0.0
H221 H 0.72985 0.2732 0.10234 0.0
H222 H 0.73936 0.30092 0.20718 0.0
H223 H 0.66687 0.30181 0.19289 0.0
H224 H 0.64899 0.33313 0.1918 0.0
H225 H 0.68017 0.32681 0.2182 0.0
H226 H 0.74073 0.35695 0.1696 0.0
H227 H 0.72751 0.35114 0.20671 0.0
H228 H 0.70792 0.37474 0.1833 0.0
H229 H 0.68183 0.29624 1.00311 0.0
H230 H 0.62603 0.36655 0.9874 0.0
H231 H 0.63022 0.37865 0.03865 0.0
H232 H 0.73299 0.32689 0.04507 0.0
H233 H 0.73279 0.29151 0.04096 0.0
H234 H 0.74243 0.30713 0.07565 0.0
H235 H 0.65065 0.27942 0.0648 0.0
H236 H 0.68086 0.27029 0.0895 0.0
H237 H 0.6866 0.26549 0.05045 0.0
H238 H 0.76336 0.24837 0.13534 0.0
C239 C 0.73133 0.27986 0.12477 0.0
C240 C 0.61485 0.59056 0.66139 0.0
C241 C 0.59098 0.57625 0.64638 0.0
C242 C 0.58213 0.58465 0.61782 0.0
C243 C 0.6224 0.61887 0.61857 0.0
C244 C 0.62992 0.61191 0.64719 0.0
C245 C 0.65522 0.62971 0.65994 0.0
H246 H 0.75499 0.73426 0.64269 0.0
C247 C 0.64307 0.64111 0.60967 0.0
C248 C 0.66198 0.64798 0.63397 0.0
H249 H 0.74084 0.68644 0.72069 0.0
H250 H 0.70268 0.65933 0.69451 0.0
H251 H 0.75568 0.68389 0.59716 0.0
H252 H 0.68222 0.7384 0.62323 0.0
H253 H 0.67941 0.73354 0.58489 0.0
H254 H 0.71479 0.74831 0.60019 0.0
H255 H 0.75608 0.71818 0.58656 0.0
H256 H 0.73485 0.69363 0.5654 0.0
C257 C 0.68429 0.61245 0.66784 0.0
C258 C 0.64069 0.64484 0.68642 0.0
C259 C 0.64199 0.67202 0.50317 0.0
C260 C 0.65765 0.69245 0.48798 0.0
C261 C 0.67829 0.70939 0.50362 0.0
C262 C 0.68386 0.7055 0.53392 0.0
C263 C 0.66824 0.68469 0.54878 0.0
C264 C 0.64734 0.66867 0.5334 0.0
C265 C 0.63119 0.64868 0.55287 0.0
C266 C 0.64696 0.65442 0.58231 0.0
C267 C 0.66875 0.67541 0.57983 0.0
C268 C 0.63942 0.62068 0.54121 0.0
C269 C 0.59515 0.65491 0.55343 0.0
C270 C 0.74341 0.71811 0.65421 0.0
C271 C 0.75062 0.71266 0.68391 0.0
C272 C 0.73568 0.69102 0.69785 0.0
C273 C 0.71341 0.67541 0.68264 0.0
C274 C 0.70613 0.68136 0.65308 0.0
C275 C 0.72135 0.70223 0.63926 0.0
C276 C 0.71148 0.70514 0.60751 0.0
C277 C 0.68715 0.68306 0.60474 0.0
C278 C 0.68404 0.66923 0.63155 0.0
C279 C 0.74095 0.70016 0.58793 0.0
C280 C 0.69634 0.73282 0.60346 0.0
H281 H 0.59028 0.61049 0.58196 0.0
H282 H 0.62225 0.58498 0.68338 0.0
H283 H 0.61531 0.64953 0.68231 0.0
H284 H 0.65206 0.66425 0.69038 0.0
H285 H 0.64192 0.63282 0.70692 0.0
H286 H 0.68803 0.59681 0.65089 0.0
H287 H 0.68094 0.60244 0.68944 0.0
H288 H 0.70669 0.62382 0.66837 0.0
H289 H 0.62526 0.65923 0.49183 0.0
H290 H 0.69028 0.72546 0.49232 0.0
H291 H 0.69998 0.7189 0.54464 0.0
H292 H 0.66518 0.61926 0.53621 0.0
H293 H 0.62617 0.61624 0.5206 0.0
H294 H 0.63445 0.60478 0.55725 0.0
H295 H 0.59021 0.67577 0.54696 0.0
H296 H 0.58489 0.65301 0.57583 0.0
H297 H 0.58181 0.64188 0.53801 0.0
H298 H 0.56306 0.57491 0.60601 0.0
C299 C 0.5978 0.6056 0.60385 0.0
C300 C 0.77253 0.79281 0.17985 0.0
C301 C 0.7548 0.77106 0.16954 0.0
C302 C 0.75753 0.76351 0.13968 0.0
C303 C 0.79439 0.79953 0.13076 0.0
C304 C 0.79228 0.80657 0.1602 0.0
C305 C 0.81335 0.82974 0.16764 0.0
H306 H 0.91316 0.92647 0.12201 0.0
C307 C 0.81607 0.81842 0.11603 0.0
C308 C 0.82734 0.83612 0.13759 0.0
H309 H 0.88518 0.90757 0.21145 0.0
H310 H 0.853 0.87146 0.19352 0.0
H311 H 0.92516 0.86449 0.10287 0.0
H312 H 0.84775 0.91896 0.09238 0.0
H313 H 0.8481 0.89927 0.06045 0.0
H314 H 0.88188 0.92008 0.06881 0.0
H315 H 0.92687 0.89317 0.07949 0.0
H316 H 0.91148 0.86202 0.06632 0.0
C317 C 0.83895 0.82025 0.18979 0.0
C318 C 0.79223 0.85251 0.17924 0.0
C319 C 0.83674 0.81153 0.0054 0.0
C320 C 0.85363 0.82774 0.98559 0.0
C321 C 0.86816 0.85107 0.9962 0.0
C322 C 0.86669 0.85785 0.0261 0.0
C323 C 0.85035 0.84123 0.04579 0.0
C324 C 0.83506 0.81885 0.03527 0.0
C325 C 0.8172 0.80457 0.05931 0.0
C326 C 0.82529 0.82156 0.08604 0.0
C327 C 0.84506 0.84278 0.07797 0.0
C328 C 0.83084 0.77622 0.06211 0.0
C329 C 0.7814 0.80555 0.05168 0.0
C330 C 0.90058 0.91436 0.13789 0.0
C331 C 0.90185 0.9201 0.16829 0.0
C332 C 0.88438 0.90399 0.18792 0.0
C333 C 0.86583 0.88284 0.17747 0.0
C334 C 0.86478 0.87752 0.14705 0.0
C335 C 0.88224 0.893 0.12788 0.0
C336 C 0.87903 0.884 0.09638 0.0
C337 C 0.85686 0.86043 0.09982 0.0
C338 C 0.84836 0.85691 0.1295 0.0
C339 C 0.91229 0.87558 0.08539 0.0
C340 C 0.86361 0.90669 0.07834 0.0
H341 H 0.778 0.77097 0.09781 0.0
H342 H 0.77128 0.79881 0.20276 0.0
H343 H 0.77062 0.85457 0.16535 0.0
H344 H 0.80405 0.87204 0.17855 0.0
H345 H 0.78444 0.8486 0.20224 0.0
H346 H 0.84355 0.79863 0.18754 0.0
H347 H 0.83154 0.82392 0.21294 0.0
H348 H 0.8623 0.82969 0.18593 0.0
H349 H 0.82505 0.79363 0.99778 0.0
H350 H 0.88152 0.86374 0.98141 0.0
H351 H 0.87865 0.87566 0.03278 0.0
H352 H 0.85708 0.77649 0.05952 0.0
H353 H 0.82094 0.76293 0.04485 0.0
H354 H 0.82657 0.76728 0.08397 0.0
H355 H 0.7753 0.8244 0.0403 0.0
H356 H 0.76604 0.8052 0.07139 0.0
H357 H 0.77458 0.78897 0.03682 0.0
H358 H 0.74393 0.74692 0.13117 0.0
C359 C 0.77714 0.77762 0.12027 0.0
C360 C 0.11281 0.90422 0.33602 0.0
C361 C 0.08989 0.91979 0.35052 0.0
C362 C 0.08374 0.91484 0.38064 0.0
C363 C 0.12273 0.87974 0.38123 0.0
C364 C 0.12899 0.88452 0.3518 0.0
C365 C 0.15486 0.86686 0.34015 0.0
H366 H 0.25762 0.76602 0.36303 0.0
C367 C 0.14398 0.85837 0.39138 0.0
C368 C 0.16307 0.85084 0.3675 0.0
H369 H 0.2429 0.81075 0.28295 0.0
H370 H 0.20441 0.83825 0.30784 0.0
H371 H 0.25911 0.81632 0.40563 0.0
H372 H 0.18279 0.76274 0.38344 0.0
H373 H 0.18416 0.76703 0.42203 0.0
H374 H 0.21754 0.75266 0.40337 0.0
H375 H 0.25674 0.7836 0.421 0.0
H376 H 0.23648 0.81131 0.43767 0.0
C377 C 0.1829 0.88462 0.33007 0.0
C378 C 0.1405 0.8493 0.31547 0.0
C379 C 0.13389 0.8242 0.49616 0.0
C380 C 0.15023 0.80498 0.51251 0.0
C381 C 0.17598 0.7917 0.49947 0.0
C382 C 0.18457 0.79691 0.47002 0.0
C383 C 0.1674 0.81579 0.45366 0.0
C384 C 0.14296 0.82942 0.46708 0.0
C385 C 0.1282 0.84965 0.44708 0.0
C386 C 0.14721 0.84554 0.41908 0.0
C387 C 0.16992 0.82552 0.42285 0.0
C388 C 0.13389 0.87753 0.46065 0.0
C389 C 0.09282 0.84216 0.44284 0.0
C390 C 0.24587 0.78161 0.35083 0.0
C391 C 0.25295 0.78605 0.32089 0.0
C392 C 0.23781 0.80698 0.30599 0.0
C393 C 0.21538 0.82281 0.32046 0.0
C394 C 0.20813 0.81782 0.35025 0.0
C395 C 0.22363 0.79773 0.36505 0.0
C396 C 0.21369 0.79583 0.39689 0.0
C397 C 0.18911 0.81769 0.3986 0.0
C398 C 0.18582 0.83039 0.37114 0.0
C399 C 0.24292 0.80187 0.41652 0.0
C400 C 0.19888 0.7681 0.40198 0.0
H401 H 0.09406 0.89237 0.41879 0.0
H402 H 0.11819 0.90728 0.31292 0.0
H403 H 0.11623 0.84255 0.32158 0.0
H404 H 0.15401 0.83095 0.31156 0.0
H405 H 0.13867 0.86045 0.29442 0.0
H406 H 0.18477 0.90274 0.34398 0.0
H407 H 0.17984 0.89111 0.30684 0.0
H408 H 0.20613 0.87479 0.33245 0.0
H409 H 0.11434 0.835 0.50589 0.0
H410 H 0.18889 0.77685 0.51181 0.0
H411 H 0.20403 0.78589 0.46104 0.0
H412 H 0.15569 0.87796 0.47448 0.0
H413 H 0.11375 0.88358 0.47489 0.0
H414 H 0.13802 0.89294 0.44373 0.0
H415 H 0.09 0.82032 0.44047 0.0
H416 H 0.08234 0.85059 0.42264 0.0
H417 H 0.07844 0.8485 0.46211 0.0
H418 H 0.06696 0.92683 0.39278 0.0
C419 C 0.09987 0.89494 0.39595 0.0
C420 C 0.26814 0.70299 0.82585 0.0
C421 C 0.25202 0.72593 0.83485 0.0
C422 C 0.25641 0.73538 0.86387 0.0
C423 C 0.29191 0.69895 0.87455 0.0
C424 C 0.28814 0.69004 0.84588 0.0
C425 C 0.30792 0.66595 0.83957 0.0
H426 H 0.41491 0.57597 0.88686 0.0
C427 C 0.3139 0.68078 0.88986 0.0
C428 C 0.32359 0.66155 0.86931 0.0
H429 H 0.37181 0.58152 0.80037 0.0
H430 H 0.34203 0.61964 0.81621 0.0
H431 H 0.42376 0.63938 0.8999 0.0
H432 H 0.35294 0.5809 0.92002 0.0
H433 H 0.35033 0.60408 0.94876 0.0
H434 H 0.38664 0.58575 0.94349 0.0
H435 H 0.42946 0.61184 0.92442 0.0
H436 H 0.4133 0.64266 0.93739 0.0
C437 C 0.33233 0.67333 0.81536 0.0
C438 C 0.28538 0.64283 0.83123 0.0
C439 C 0.33841 0.69277 0.99955 0.0
C440 C 0.35599 0.67736 0.01956 0.0
C441 C 0.37158 0.6545 0.00933 0.0
C442 C 0.37003 0.6471 0.97965 0.0
C443 C 0.35235 0.66249 0.95984 0.0
C444 C 0.33652 0.6847 0.96986 0.0
C445 C 0.31768 0.69772 0.94559 0.0
C446 C 0.32497 0.67966 0.91952 0.0
C447 C 0.34566 0.65933 0.92805 0.0
C448 C 0.33091 0.72608 0.94091 0.0
C449 C 0.28221 0.69668 0.9543 0.0
C450 C 0.39896 0.58515 0.87122 0.0
C451 C 0.39599 0.57549 0.84218 0.0
C452 C 0.37518 0.58863 0.82269 0.0
C453 C 0.3576 0.6107 0.83202 0.0
C454 C 0.36057 0.61972 0.86127 0.0
C455 C 0.38085 0.60682 0.88031 0.0
C456 C 0.37976 0.61801 0.91102 0.0
C457 C 0.35628 0.64045 0.90706 0.0
C458 C 0.34521 0.64145 0.87788 0.0
C459 C 0.41329 0.62845 0.91888 0.0
C460 C 0.36698 0.59616 0.93208 0.0
H461 H 0.27835 0.7301 0.90554 0.0
H462 H 0.26557 0.69549 0.80357 0.0
H463 H 0.26329 0.64353 0.84462 0.0
H464 H 0.29565 0.62314 0.83576 0.0
H465 H 0.27845 0.64387 0.80762 0.0
H466 H 0.34054 0.69419 0.81796 0.0
H467 H 0.3218 0.67138 0.793 0.0
H468 H 0.35416 0.66138 0.81645 0.0
H469 H 0.32614 0.7104 0.00692 0.0
H470 H 0.38555 0.64256 0.02433 0.0
H471 H 0.38281 0.62969 0.97331 0.0
H472 H 0.35706 0.72657 0.94419 0.0
H473 H 0.32023 0.74027 0.95676 0.0
H474 H 0.32725 0.73343 0.91823 0.0
H475 H 0.27628 0.67732 0.96471 0.0
H476 H 0.26608 0.69829 0.93525 0.0
H477 H 0.27642 0.71255 0.9704 0.0
H478 H 0.24407 0.75294 0.87136 0.0
C479 C 0.27617 0.72201 0.88375 0.0
Zn480 Zn 0.0287 0.14785 0.30452 0.0
Zn481 Zn 0.98156 0.14918 0.20051 0.0
Zn482 Zn 0.00467 0.15016 0.25294 0.0
C483 C 0.0357 0.17926 0.19587 0.0
C484 C 0.99023 0.09715 0.2139 0.0
O485 O 0.97211 0.17167 0.28348 0.0
O486 O 0.0014 0.17446 0.32377 0.0
C487 C 0.0754 0.16944 0.26906 0.0
O488 O 0.03845 0.17059 0.2225 0.0
O489 O 0.0107 0.17471 0.18142 0.0
O490 O 0.98589 0.1109 0.19103 0.0
O491 O 0.99632 0.10857 0.23873 0.0
O492 O 0.07228 0.15863 0.29397 0.0
O493 O 0.05198 0.16987 0.25079 0.0
O494 O 0.01079 0.10814 0.26675 0.0
O495 O 0.02194 0.10997 0.31434 0.0
C496 C 0.0164 0.09646 0.29149 0.0
O497 O 0.95825 0.17092 0.25539 0.0
O498 O 0.93874 0.16148 0.21131 0.0
C499 C 0.97631 0.18014 0.31005 0.0
C500 C 0.93532 0.17152 0.23659 0.0
Zn501 Zn 0.52749 0.34733 0.70342 0.0
Zn502 Zn 0.48145 0.34651 0.80667 0.0
Zn503 Zn 0.50478 0.34859 0.75472 0.0
C504 C 0.48929 0.40007 0.79382 0.0
C505 C 0.43578 0.32427 0.77151 0.0
O506 O 0.55219 0.32897 0.75691 0.0
O507 O 0.57131 0.33719 0.7125 0.0
C508 C 0.51533 0.40015 0.71415 0.0
O509 O 0.49653 0.39021 0.76847 0.0
O510 O 0.48409 0.38492 0.81544 0.0
O511 O 0.43903 0.33253 0.79757 0.0
O512 O 0.45833 0.32724 0.7526 0.0
O513 O 0.52068 0.38481 0.69274 0.0
O514 O 0.51011 0.3905 0.74002 0.0
O515 O 0.47166 0.32684 0.72444 0.0
O516 O 0.50013 0.32055 0.68422 0.0
C517 C 0.47473 0.31695 0.69833 0.0
O518 O 0.53947 0.32957 0.78558 0.0
O519 O 0.51199 0.32286 0.82638 0.0
C520 C 0.57507 0.328 0.7381 0.0
C521 C 0.53749 0.32048 0.81214 0.0
Zn522 Zn 0.02488 0.84276 0.80184 0.0
Zn523 Zn 0.97686 0.84729 0.69919 0.0
Zn524 Zn 0.00155 0.84573 0.75004 0.0
C525 C 0.98898 0.89931 0.71247 0.0
C526 C 0.93063 0.8254 0.73381 0.0
O527 O 0.04785 0.8244 0.74663 0.0
O528 O 0.06688 0.82888 0.79185 0.0
C529 C 0.01837 0.8964 0.79059 0.0
O530 O 0.99579 0.88816 0.73726 0.0
O531 O 0.98247 0.88525 0.69025 0.0
O532 O 0.93349 0.83572 0.70864 0.0
O533 O 0.95406 0.82592 0.7521 0.0
O534 O 0.02323 0.8809 0.81196 0.0
O535 O 0.01077 0.88695 0.76511 0.0
O536 O 0.9671 0.8259 0.78064 0.0
O537 O 0.99452 0.81873 0.82136 0.0
C538 C 0.96905 0.8164 0.80701 0.0
O539 O 0.03388 0.82458 0.71871 0.0
O540 O 0.00441 0.82186 0.67854 0.0
C541 C 0.07029 0.82116 0.76561 0.0
C542 C 0.02975 0.81644 0.69198 0.0
Zn543 Zn 0.52554 0.64864 0.20302 0.0
Zn544 Zn 0.481 0.65441 0.30791 0.0
Zn545 Zn 0.50322 0.6518 0.25553 0.0
C546 C 0.53632 0.68261 0.31099 0.0
C547 C 0.48756 0.60108 0.29707 0.0
O548 O 0.46962 0.67175 0.22437 0.0
O549 O 0.49647 0.67306 0.18256 0.0
C550 C 0.57304 0.67158 0.23683 0.0
O551 O 0.53802 0.67305 0.28462 0.0
O552 O 0.51158 0.67916 0.32612 0.0
O553 O 0.48313 0.61646 0.31863 0.0
O554 O 0.4946 0.61071 0.27155 0.0
O555 O 0.56883 0.6612 0.21182 0.0
O556 O 0.55059 0.67144 0.2561 0.0
O557 O 0.50991 0.60937 0.24375 0.0
O558 O 0.52072 0.61008 0.19604 0.0
C559 C 0.51597 0.59711 0.21942 0.0
O560 O 0.45688 0.673 0.25288 0.0
O561 O 0.43864 0.66793 0.29826 0.0
C562 C 0.47196 0.67886 0.1971 0.0
C563 C 0.43473 0.67597 0.2722 0.0
H564 H 0.02854 0.93705 0.35784 0.0
H565 H 0.04646 0.0634 0.25299 0.0
H566 H 0.11357 0.95341 0.30783 0.0
H567 H 0.9941 0.06404 0.33461 0.0
H568 H 0.05986 0.0166 0.26168 0.0
H569 H 0.00498 0.97748 0.33809 0.0
C570 C 0.04227 0.94898 0.34261 0.0
C571 C 0.0735 0.942 0.33513 0.0
C572 C 0.04493 0.02691 0.27733 0.0
C573 C 0.04606 0.98788 0.31173 0.0
C574 C 0.03712 0.05345 0.27231 0.0
C575 C 0.01929 0.06744 0.29323 0.0
C576 C 0.03437 0.01438 0.30318 0.0
C577 C 0.00803 0.05387 0.31808 0.0
C578 C 0.02863 0.97193 0.33119 0.0
C579 C 0.08949 0.95784 0.31433 0.0
N580 N 0.01584 0.02808 0.32244 0.0
N581 N 0.07569 0.98017 0.30356 0.0
H582 H 0.42068 0.5629 0.78725 0.0
H583 H 0.49763 0.42814 0.84415 0.0
H584 H 0.41109 0.53207 0.87579 0.0
H585 H 0.46758 0.43677 0.75372 0.0
H586 H 0.4789 0.47286 0.85445 0.0
H587 H 0.44854 0.52214 0.7732 0.0
C588 C 0.42434 0.54772 0.80377 0.0
C589 C 0.41353 0.55122 0.8329 0.0
C590 C 0.47685 0.46514 0.83222 0.0
C591 C 0.44624 0.50507 0.81703 0.0
C592 C 0.48767 0.43969 0.82628 0.0
C593 C 0.48415 0.42875 0.79803 0.0
C594 C 0.46228 0.47986 0.80979 0.0
C595 C 0.47114 0.44463 0.77568 0.0
C596 C 0.44045 0.52459 0.79571 0.0
C597 C 0.41956 0.53088 0.85331 0.0
N598 N 0.46035 0.46942 0.78209 0.0
N599 N 0.43555 0.50885 0.84501 0.0
H600 H 0.57733 0.56515 0.70511 0.0
H601 H 0.49746 0.42607 0.66483 0.0
H602 H 0.57122 0.53142 0.6176 0.0
H603 H 0.53936 0.43927 0.7504 0.0
H604 H 0.51159 0.47116 0.65075 0.0
H605 H 0.5535 0.52433 0.72496 0.0
C606 C 0.57102 0.54935 0.69003 0.0
C607 C 0.57612 0.55206 0.65946 0.0
C608 C 0.51735 0.46438 0.67277 0.0
C609 C 0.5481 0.50582 0.68206 0.0
C610 C 0.50913 0.43871 0.68088 0.0
C611 C 0.51748 0.42893 0.70872 0.0
C612 C 0.53434 0.48046 0.69252 0.0
C613 C 0.53243 0.44618 0.72873 0.0
C614 C 0.55723 0.52618 0.70142 0.0
C615 C 0.56704 0.53088 0.64113 0.0
N616 N 0.54081 0.47114 0.72011 0.0
N617 N 0.55344 0.50886 0.65268 0.0
H618 H 0.95897 0.93907 0.14767 0.0
H619 H 0.96201 0.06509 0.25471 0.0
H620 H 0.88771 0.95404 0.21401 0.0
H621 H 0.00547 0.06405 0.16865 0.0
H622 H 0.94557 0.01881 0.24764 0.0
H623 H 0.98624 0.97974 0.16252 0.0
C624 C 0.94902 0.9508 0.16538 0.0
C625 C 0.92057 0.94323 0.17921 0.0
C626 C 0.95916 0.02862 0.23054 0.0
C627 C 0.95229 0.98948 0.19679 0.0
C628 C 0.9688 0.05488 0.23467 0.0
C629 C 0.98515 0.06828 0.21222 0.0
C630 C 0.96606 0.01576 0.20382 0.0
C631 C 0.9928 0.05437 0.18643 0.0
C632 C 0.96479 0.97391 0.17397 0.0
C633 C 0.90956 0.95889 0.20272 0.0
N634 N 0.98307 0.02888 0.18285 0.0
N635 N 0.92532 0.98135 0.21063 0.0
H636 H 0.92388 0.06248 0.72473 0.0
H637 H 0.00168 0.92897 0.66417 0.0
H638 H 0.92397 0.03755 0.63347 0.0
H639 H 0.96751 0.93519 0.75354 0.0
H640 H 0.98594 0.97475 0.65541 0.0
H641 H 0.95026 0.02083 0.73795 0.0
C642 C 0.92942 0.04843 0.70745 0.0
C643 C 0.92166 0.05382 0.67783 0.0
C644 C 0.98229 0.96627 0.67709 0.0
C645 C 0.95261 0.00657 0.69286 0.0
C646 C 0.99142 0.9402 0.68215 0.0
C647 C 0.98582 0.92831 0.70959 0.0
C648 C 0.9672 0.9806 0.69956 0.0
C649 C 0.97249 0.94376 0.73215 0.0
C650 C 0.94467 0.02477 0.71505 0.0
C651 C 0.93001 0.03488 0.65647 0.0
N652 N 0.96327 0.96914 0.72656 0.0
N653 N 0.945 0.01226 0.6644 0.0
H654 H 0.55074 0.43949 0.15519 0.0
H655 H 0.54461 0.56625 0.26113 0.0
H656 H 0.62279 0.45713 0.22014 0.0
H657 H 0.50025 0.56279 0.17551 0.0
H658 H 0.56261 0.52032 0.25456 0.0
H659 H 0.52207 0.47914 0.17047 0.0
C660 C 0.56058 0.45161 0.17269 0.0
C661 C 0.58966 0.44511 0.18595 0.0
C662 C 0.54845 0.52951 0.23748 0.0
C663 C 0.55634 0.49023 0.20404 0.0
C664 C 0.53796 0.55556 0.24132 0.0
C665 C 0.52105 0.56822 0.21875 0.0
C666 C 0.54166 0.51612 0.21103 0.0
C667 C 0.51337 0.5537 0.19335 0.0
C668 C 0.54401 0.47413 0.18153 0.0
C669 C 0.6005 0.4612 0.20925 0.0
N670 N 0.52388 0.52846 0.19009 0.0
N671 N 0.58396 0.48312 0.21739 0.0
H672 H 0.40906 0.46699 0.38109 0.0
H673 H 0.4671 0.56418 0.25649 0.0
H674 H 0.42171 0.43835 0.29199 0.0
H675 H 0.49273 0.57329 0.34807 0.0
H676 H 0.44893 0.51886 0.26706 0.0
H677 H 0.43672 0.50744 0.36791 0.0
C678 C 0.418 0.46892 0.35881 0.0
C679 C 0.41329 0.44881 0.33778 0.0
C680 C 0.45912 0.53066 0.28465 0.0
C681 C 0.44436 0.49597 0.32228 0.0
C682 C 0.46981 0.5564 0.27858 0.0
C683 C 0.48168 0.57245 0.3014 0.0
C684 C 0.45967 0.52132 0.31383 0.0
C685 C 0.48361 0.56167 0.32984 0.0
C686 C 0.43372 0.49222 0.35127 0.0
C687 C 0.42448 0.45329 0.30894 0.0
N688 N 0.47235 0.53695 0.33531 0.0
N689 N 0.43934 0.47648 0.30196 0.0
H690 H 0.0844 0.0604 0.78429 0.0
H691 H 0.01115 0.92388 0.8415 0.0
H692 H 0.09501 0.03017 0.87296 0.0
H693 H 0.04 0.93352 0.75085 0.0
H694 H 0.02944 0.96881 0.85197 0.0
H695 H 0.05774 0.01888 0.77043 0.0
C696 C 0.08121 0.04519 0.80087 0.0
C697 C 0.09194 0.04907 0.82998 0.0
C698 C 0.03136 0.96125 0.82967 0.0
C699 C 0.06064 0.002 0.81433 0.0
C700 C 0.02082 0.93567 0.82364 0.0
C701 C 0.02401 0.925 0.79524 0.0
C702 C 0.04531 0.97637 0.80718 0.0
C703 C 0.03668 0.94117 0.77293 0.0
C704 C 0.06579 0.02161 0.79292 0.0
C705 C 0.08656 0.02866 0.85049 0.0
N706 N 0.04712 0.9661 0.77941 0.0
N707 N 0.07124 0.00617 0.84229 0.0
H708 H 0.16163 0.1471 0.06515 0.0
H709 H 0.03543 0.22033 0.15719 0.0
H710 H 0.12459 0.22291 0.03859 0.0
H711 H 0.09686 0.16179 0.19583 0.0
H712 H 0.07377 0.22696 0.11755 0.0
H713 H 0.14471 0.15599 0.11579 0.0
C714 C 0.15056 0.16591 0.07023 0.0
C715 C 0.14414 0.1842 0.04775 0.0
C716 C 0.07947 0.21325 0.13514 0.0
C717 C 0.12405 0.19431 0.10542 0.0
C718 C 0.05763 0.2096 0.15788 0.0
C719 C 0.06292 0.19031 0.17956 0.0
C720 C 0.10627 0.19686 0.13359 0.0
C721 C 0.09193 0.17684 0.17945 0.0
C722 C 0.14097 0.17104 0.09913 0.0
C723 C 0.12986 0.2083 0.05537 0.0
N724 N 0.11214 0.17977 0.15626 0.0
N725 N 0.11961 0.21241 0.08346 0.0
H726 H 0.38447 0.27046 0.54072 0.0
H727 H 0.41285 0.33271 0.7003 0.0
H728 H 0.3464 0.34497 0.57049 0.0
H729 H 0.47535 0.27692 0.65809 0.0
H730 H 0.37389 0.32527 0.66094 0.0
H731 H 0.40314 0.26157 0.59111 0.0
C732 C 0.37919 0.28452 0.55809 0.0
C733 C 0.36431 0.30861 0.55153 0.0
C734 C 0.39572 0.31403 0.66085 0.0
C735 C 0.38551 0.2987 0.60888 0.0
C736 C 0.41779 0.31803 0.68348 0.0
C737 C 0.44749 0.30568 0.68212 0.0
C738 C 0.40344 0.29742 0.63699 0.0
C739 C 0.45284 0.28708 0.65966 0.0
C740 C 0.38994 0.27953 0.58675 0.0
C741 C 0.35817 0.32631 0.5747 0.0
N742 N 0.43127 0.28384 0.63768 0.0
N743 N 0.36914 0.32117 0.60229 0.0
H744 H 0.63292 0.28248 0.97036 0.0
H745 H 0.59712 0.34167 0.8105 0.0
H746 H 0.66121 0.36044 0.94141 0.0
H747 H 0.5412 0.281 0.8528 0.0
H748 H 0.63603 0.33852 0.85064 0.0
H749 H 0.61451 0.27259 0.92018 0.0
C750 C 0.63602 0.29725 0.95326 0.0
C751 C 0.64814 0.32245 0.96009 0.0
C752 C 0.61574 0.32531 0.8506 0.0
C753 C 0.62722 0.3113 0.9028 0.0
C754 C 0.59375 0.32687 0.82753 0.0
C755 C 0.56577 0.31181 0.82865 0.0
C756 C 0.60973 0.30835 0.87458 0.0
C757 C 0.56236 0.29314 0.85136 0.0
C758 C 0.62541 0.29164 0.9247 0.0
C759 C 0.65148 0.34092 0.93713 0.0
N760 N 0.58381 0.29222 0.87369 0.0
N761 N 0.64076 0.33509 0.90958 0.0
H762 H 0.83485 0.17944 0.44557 0.0
H763 H 0.91332 0.16692 0.31202 0.0
H764 H 0.92413 0.21213 0.47418 0.0
H765 H 0.98225 0.22096 0.34842 0.0
H766 H 0.87852 0.17581 0.35393 0.0
H767 H 0.85052 0.18705 0.39406 0.0
C768 C 0.85748 0.18873 0.44089 0.0
C769 C 0.87844 0.19498 0.4639 0.0
C770 C 0.9006 0.18664 0.35234 0.0
C771 C 0.89704 0.20305 0.40534 0.0
C772 C 0.92042 0.18165 0.32815 0.0
C773 C 0.95082 0.19294 0.32709 0.0
C774 C 0.91149 0.20307 0.37543 0.0
C775 C 0.9591 0.2116 0.34868 0.0
C776 C 0.86664 0.19279 0.41149 0.0
C777 C 0.90747 0.20689 0.45693 0.0
N778 N 0.9399 0.21564 0.37223 0.0
N779 N 0.91599 0.21031 0.42833 0.0
H780 H 0.84411 0.85789 0.93629 0.0
H781 H 0.96499 0.77583 0.84627 0.0
H782 H 0.87419 0.78022 0.96395 0.0
H783 H 0.90984 0.83802 0.80646 0.0
H784 H 0.92591 0.7724 0.8858 0.0
H785 H 0.86173 0.84784 0.88612 0.0
C786 C 0.85389 0.83851 0.9316 0.0
C787 C 0.85812 0.81998 0.95431 0.0
C788 C 0.92172 0.78626 0.868 0.0
C789 C 0.8788 0.80844 0.89709 0.0
C790 C 0.94396 0.78808 0.84531 0.0
C791 C 0.94075 0.80742 0.82332 0.0
C792 C 0.89664 0.80449 0.86915 0.0
C793 C 0.91318 0.82288 0.82309 0.0
C794 C 0.86382 0.83272 0.90294 0.0
C795 C 0.87061 0.79508 0.94706 0.0
N796 N 0.89263 0.82165 0.84621 0.0
N797 N 0.88118 0.79024 0.91922 0.0
H798 H 0.66364 0.65641 0.44356 0.0
H799 H 0.53856 0.72587 0.34654 0.0
H800 H 0.63571 0.73706 0.46054 0.0
H801 H 0.59649 0.66296 0.31194 0.0
H802 H 0.57803 0.73389 0.38501 0.0
H803 H 0.64364 0.66046 0.39306 0.0
C804 C 0.65382 0.67515 0.43638 0.0
C805 C 0.65104 0.69637 0.45619 0.0
C806 C 0.5827 0.71887 0.3685 0.0
C807 C 0.62756 0.70104 0.3987 0.0
C808 C 0.56025 0.71442 0.34643 0.0
C809 C 0.56427 0.69365 0.32622 0.0
C810 C 0.60883 0.70183 0.37094 0.0
C811 C 0.59259 0.6792 0.32712 0.0
C812 C 0.64254 0.67751 0.40754 0.0
C813 C 0.63824 0.72025 0.44587 0.0
N814 N 0.61341 0.68302 0.34972 0.0
N815 N 0.62632 0.72178 0.41801 0.0
H816 H 0.34117 0.64808 0.06806 0.0
H817 H 0.40884 0.66675 0.20295 0.0
H818 H 0.38082 0.72326 0.04193 0.0
H819 H 0.47383 0.71483 0.15259 0.0
H820 H 0.36861 0.67317 0.16456 0.0
H821 H 0.35926 0.65595 0.11841 0.0
C822 C 0.35282 0.66668 0.07327 0.0
C823 C 0.35967 0.68501 0.05091 0.0
C824 C 0.39151 0.68265 0.16211 0.0
C825 C 0.38073 0.69425 0.10856 0.0
C826 C 0.41427 0.67941 0.18432 0.0
C827 C 0.44484 0.68987 0.1806 0.0
C828 C 0.39966 0.69632 0.13609 0.0
C829 C 0.45066 0.70604 0.156 0.0
C830 C 0.363 0.67131 0.10213 0.0
C831 C 0.37503 0.7087 0.05864 0.0
N832 N 0.4285 0.7084 0.13444 0.0
N833 N 0.38578 0.71234 0.08669 0.0
H834 H 0.18329 0.80767 0.5648 0.0
H835 H 0.09352 0.82774 0.69271 0.0
H836 H 0.09189 0.78779 0.52842 0.0
H837 H 0.0235 0.77817 0.65056 0.0
H838 H 0.13023 0.81847 0.65217 0.0
H839 H 0.16121 0.80259 0.61477 0.0
C840 C 0.1587 0.80189 0.56744 0.0
C841 C 0.13917 0.79848 0.54264 0.0
C842 C 0.10736 0.80873 0.65227 0.0
C843 C 0.11367 0.79298 0.59931 0.0
C844 C 0.08642 0.81394 0.67559 0.0
C845 C 0.05535 0.80395 0.67471 0.0
C846 C 0.0969 0.79343 0.6281 0.0
C847 C 0.04715 0.78653 0.65184 0.0
C848 C 0.14601 0.79925 0.5959 0.0
C849 C 0.10756 0.79093 0.54703 0.0
N850 N 0.0675 0.78229 0.6292 0.0
N851 N 0.09582 0.78856 0.57475 0.0
H852 H 0.20965 0.2908 0.30021 0.0
H853 H 0.13386 0.14845 0.27404 0.0
H854 H 0.25327 0.21672 0.32433 0.0
H855 H 0.08549 0.22091 0.25234 0.0
H856 H 0.18304 0.1733 0.2804 0.0
H857 H 0.1693 0.26617 0.27227 0.0
C858 C 0.21107 0.26939 0.29916 0.0
C859 C 0.23449 0.25572 0.31503 0.0
C860 C 0.16194 0.18384 0.27361 0.0
C861 C 0.18851 0.22748 0.28322 0.0
C862 C 0.13394 0.16958 0.2697 0.0
C863 C 0.10573 0.18275 0.26286 0.0
C864 C 0.16153 0.21162 0.27147 0.0
C865 C 0.1069 0.21011 0.25759 0.0
C866 C 0.188 0.25535 0.28328 0.0
C867 C 0.23522 0.228 0.31296 0.0
N868 N 0.13426 0.22382 0.26272 0.0
N869 N 0.21242 0.21483 0.29765 0.0
H870 H 0.29891 0.20421 0.79807 0.0
H871 H 0.37748 0.34576 0.77276 0.0
H872 H 0.25659 0.27887 0.82207 0.0
H873 H 0.42634 0.27251 0.75593 0.0
H874 H 0.32774 0.3213 0.77751 0.0
H875 H 0.34035 0.22831 0.77103 0.0
C876 C 0.29802 0.22565 0.79716 0.0
C877 C 0.27464 0.23962 0.81273 0.0
C878 C 0.34911 0.31051 0.77208 0.0
C879 C 0.32183 0.26724 0.78195 0.0
C880 C 0.37741 0.32453 0.76906 0.0
C881 C 0.40581 0.31102 0.76403 0.0
C882 C 0.34941 0.28268 0.77087 0.0
C883 C 0.40474 0.28354 0.75971 0.0
C884 C 0.3217 0.23938 0.78181 0.0
C885 C 0.27458 0.26736 0.81088 0.0
N886 N 0.37703 0.27011 0.7639 0.0
N887 N 0.29796 0.28023 0.79607 0.0
H888 H 0.70764 0.20307 0.71032 0.0
H889 H 0.5844 0.27993 0.76512 0.0
H890 H 0.74846 0.27712 0.6816 0.0
H891 H 0.63379 0.34478 0.72359 0.0
H892 H 0.63175 0.25246 0.75945 0.0
H893 H 0.6679 0.22754 0.73829 0.0
C894 C 0.70852 0.22454 0.71037 0.0
C895 C 0.73095 0.2381 0.69314 0.0
C896 C 0.63262 0.27276 0.75191 0.0
C897 C 0.68554 0.26654 0.72524 0.0
C898 C 0.60563 0.28858 0.75567 0.0
C899 C 0.60518 0.31442 0.74432 0.0
C900 C 0.65906 0.28305 0.73662 0.0
C901 C 0.63312 0.32477 0.73222 0.0
C902 C 0.68573 0.23863 0.72641 0.0
C903 C 0.7311 0.26587 0.69399 0.0
N904 N 0.65868 0.30897 0.7283 0.0
N905 N 0.70861 0.27908 0.70945 0.0
H906 H 0.75537 0.21933 0.18175 0.0
H907 H 0.92519 0.22174 0.25789 0.0
H908 H 0.80126 0.29146 0.21005 0.0
H909 H 0.87689 0.15151 0.22742 0.0
H910 H 0.87574 0.24692 0.25157 0.0
H911 H 0.79499 0.19374 0.20852 0.0
C912 C 0.77372 0.22975 0.19388 0.0
C913 C 0.7754 0.25748 0.19333 0.0
C914 C 0.87575 0.22584 0.24706 0.0
C915 C 0.82125 0.22836 0.22382 0.0
C916 C 0.90385 0.21146 0.25098 0.0
C917 C 0.90498 0.18467 0.24284 0.0
C918 C 0.84891 0.21315 0.235 0.0
C919 C 0.87693 0.17224 0.23367 0.0
C920 C 0.79632 0.21517 0.20926 0.0
C921 C 0.7993 0.27006 0.20984 0.0
N922 N 0.85021 0.18663 0.22959 0.0
N923 N 0.82168 0.25539 0.224 0.0
H924 H 0.79961 0.69727 0.72011 0.0
H925 H 0.87143 0.84336 0.7239 0.0
H926 H 0.75404 0.76667 0.68454 0.0
H927 H 0.92218 0.7755 0.75662 0.0
H928 H 0.82356 0.81647 0.72 0.0
H929 H 0.84022 0.7259 0.74252 0.0
C930 C 0.7979 0.71854 0.71738 0.0
C931 C 0.77371 0.7296 0.70005 0.0
C932 C 0.8449 0.80742 0.72858 0.0
C933 C 0.81992 0.76239 0.7256 0.0
C934 C 0.87216 0.82287 0.73104 0.0
C935 C 0.9007 0.81151 0.74035 0.0
C936 C 0.84633 0.78018 0.73478 0.0
C937 C 0.90052 0.78492 0.74935 0.0
C938 C 0.8211 0.73485 0.73012 0.0
C939 C 0.77264 0.75726 0.69718 0.0
N940 N 0.87385 0.76991 0.74571 0.0
N941 N 0.79551 0.77262 0.7096 0.0
H942 H 0.71091 0.79145 0.20799 0.0
H943 H 0.63075 0.64986 0.22971 0.0
H944 H 0.74889 0.71752 0.17616 0.0
H945 H 0.58478 0.72271 0.25423 0.0
H946 H 0.6803 0.67401 0.22262 0.0
H947 H 0.67055 0.76665 0.23571 0.0
C948 C 0.71108 0.76999 0.20727 0.0
C949 C 0.73292 0.75648 0.1894 0.0
C950 C 0.65966 0.68477 0.23015 0.0
C951 C 0.68701 0.72808 0.22099 0.0
C952 C 0.63146 0.67091 0.23448 0.0
C953 C 0.60379 0.68442 0.24234 0.0
C954 C 0.65999 0.71249 0.23297 0.0
C955 C 0.60577 0.71166 0.24817 0.0
C956 C 0.68803 0.75587 0.22303 0.0
C957 C 0.73209 0.72871 0.18919 0.0
N958 N 0.6333 0.725 0.24269 0.0
N959 N 0.70938 0.71548 0.2045 0.0
H960 H 0.25528 0.73212 0.32166 0.0
H961 H 0.42555 0.72443 0.24598 0.0
H962 H 0.30248 0.8004 0.28474 0.0
H963 H 0.37605 0.65842 0.28509 0.0
H964 H 0.37695 0.75111 0.25028 0.0
H965 H 0.29551 0.70366 0.29983 0.0
C966 C 0.27414 0.7411 0.30884 0.0
C967 C 0.27586 0.76866 0.30541 0.0
C968 C 0.37653 0.73058 0.25721 0.0
C969 C 0.32228 0.73618 0.28028 0.0
C970 C 0.40412 0.71532 0.25446 0.0
C971 C 0.40467 0.68937 0.26546 0.0
C972 C 0.34961 0.7196 0.27102 0.0
C973 C 0.37653 0.67847 0.27658 0.0
C974 C 0.29706 0.72484 0.2962 0.0
C975 C 0.30041 0.77921 0.28801 0.0
N976 N 0.35032 0.69371 0.27943 0.0
N977 N 0.32298 0.76299 0.27645 0.0
H978 H 0.24947 0.77895 0.82328 0.0
H979 H 0.07967 0.76966 0.74916 0.0
H980 H 0.20512 0.70469 0.80007 0.0
H981 H 0.12868 0.84262 0.76849 0.0
H982 H 0.12936 0.74533 0.75711 0.0
H983 H 0.20969 0.80233 0.79425 0.0
C984 C 0.23142 0.76758 0.81185 0.0
C985 C 0.23025 0.73991 0.81445 0.0
C986 C 0.12951 0.76675 0.75868 0.0
C987 C 0.18432 0.76653 0.78125 0.0
C988 C 0.10126 0.78062 0.75374 0.0
C989 C 0.10031 0.80807 0.75827 0.0
C990 C 0.15663 0.78059 0.76839 0.0
C991 C 0.12861 0.8214 0.76481 0.0
C992 C 0.20877 0.7809 0.79512 0.0
C993 C 0.20673 0.72608 0.79872 0.0
N994 N 0.15548 0.80751 0.77017 0.0
N995 N 0.18433 0.73955 0.7832 0.0
loop_
_geom_bond_atom_site_label_1
_geom_bond_atom_site_label_2
_geom_bond_distance
_geom_bond_site_symmetry_2
_ccdc_geom_bond_type
C0 C1 1.391 . S
C0 C4 1.391 . S
C0 H42 0.948 . S
C1 C0 1.391 . S
C1 C2 1.391 . S
C2 C1 1.391 . S
C2 H58 0.947 . S
C2 C59 1.392 . S
C3 C4 1.391 . S
C3 C7 1.397 . S
C3 C59 1.419 . S
C4 C0 1.391 . S
C4 C3 1.391 . S
C4 C5 1.399 . S
C5 C4 1.399 . S
C5 C8 1.396 . S
C5 C17 1.453 . S
C5 C18 1.684 . S
H6 C30 0.948 . S
C7 C3 1.397 . S
C7 C8 1.394 . S
C7 C26 1.723 . S
C8 C5 1.396 . S
C8 C7 1.394 . S
C8 C38 1.723 . S
H9 C32 0.947 . S
H10 C33 0.948 . S
H11 C39 0.982 . S
H12 C40 0.979 . S
H13 C40 0.980 . S
H14 C40 0.983 . S
H15 C39 0.979 . S
H16 C39 0.977 . S
C17 C5 1.453 . S
C17 H46 0.982 . S
C17 H47 0.979 . S
C17 H48 0.977 . S
C18 C5 1.684 . S
C18 H43 0.979 . S
C18 H44 0.980 . S
C18 H45 0.983 . S
C19 C20 1.391 . S
C19 C24 1.391 . S
C19 H49 0.948 . S
C20 C19 1.391 . S
C20 C21 1.391 . S
C21 C20 1.391 . S
C21 C22 1.392 . S
C21 H50 0.947 . S
C22 C21 1.392 . S
C22 C23 1.419 . S
C22 H51 0.948 . S
C23 C22 1.419 . S
C23 C24 1.391 . S
C23 C27 1.397 . S
C24 C19 1.391 . S
C24 C23 1.391 . S
C24 C25 1.399 . S
C25 C24 1.399 . S
C25 C26 1.396 . S
C25 C28 1.453 . S
C25 C29 1.684 . S
C26 C7 1.723 . S
C26 C25 1.396 . S
C26 C27 1.394 . S
C27 C23 1.397 . S
C27 C26 1.394 . S
C27 C37 1.723 . S
C28 C25 1.453 . S
C28 H52 0.982 . S
C28 H53 0.979 . S
C28 H54 0.977 . S
C29 C25 1.684 . S
C29 H55 0.979 . S
C29 H56 0.980 . S
C29 H57 0.983 . S
C30 H6 0.948 . S
C30 C31 1.391 . S
C30 C35 1.391 . S
C31 C30 1.391 . S
C31 C32 1.391 . S
C32 H9 0.947 . S
C32 C31 1.391 . S
C32 C33 1.392 . S
C33 H10 0.948 . S
C33 C32 1.392 . S
C33 C34 1.419 . S
C34 C33 1.419 . S
C34 C35 1.391 . S
C34 C38 1.397 . S
C35 C30 1.391 . S
C35 C34 1.391 . S
C35 C36 1.399 . S
C36 C35 1.399 . S
C36 C37 1.396 . S
C36 C39 1.453 . S
C36 C40 1.684 . S
C37 C27 1.723 . S
C37 C36 1.396 . S
C37 C38 1.394 . S
C38 C8 1.723 . S
C38 C34 1.397 . S
C38 C37 1.394 . S
C39 H11 0.982 . S
C39 H15 0.979 . S
C39 H16 0.977 . S
C39 C36 1.453 . S
C40 H12 0.979 . S
C40 H13 0.980 . S
C40 H14 0.983 . S
C40 C36 1.684 . S
H41 C59 0.948 . S
H42 C0 0.948 . S
H43 C18 0.979 . S
H44 C18 0.980 . S
H45 C18 0.983 . S
H46 C17 0.982 . S
H47 C17 0.979 . S
H48 C17 0.977 . S
H49 C19 0.948 . S
H50 C21 0.947 . S
H51 C22 0.948 . S
H52 C28 0.982 . S
H53 C28 0.979 . S
H54 C28 0.977 . S
H55 C29 0.979 . S
H56 C29 0.980 . S
H57 C29 0.983 . S
H58 C2 0.947 . S
C59 C2 1.392 . S
C59 C3 1.419 . S
C59 H41 0.948 . S
C60 C61 1.391 . S
C60 C64 1.391 . S
C60 H102 0.948 . S
C61 C60 1.391 . S
C61 C62 1.391 . S
C62 C61 1.391 . S
C62 H118 0.947 . S
C62 C119 1.392 . S
C63 C64 1.391 . S
C63 C67 1.397 . S
C63 C119 1.419 . S
C64 C60 1.391 . S
C64 C63 1.391 . S
C64 C65 1.399 . S
C65 C64 1.399 . S
C65 C68 1.396 . S
C65 C77 1.453 . S
C65 C78 1.684 . S
H66 C90 0.948 . S
C67 C63 1.397 . S
C67 C68 1.394 . S
C67 C86 1.723 . S
C68 C65 1.396 . S
C68 C67 1.394 . S
C68 C98 1.723 . S
H69 C92 0.947 . S
H70 C93 0.948 . S
H71 C99 0.982 . S
H72 C100 0.979 . S
H73 C100 0.980 . S
H74 C100 0.983 . S
H75 C99 0.979 . S
H76 C99 0.977 . S
C77 C65 1.453 . S
C77 H106 0.982 . S
C77 H107 0.979 . S
C77 H108 0.977 . S
C78 C65 1.684 . S
C78 H103 0.979 . S
C78 H104 0.980 . S
C78 H105 0.983 . S
C79 C80 1.391 1_556 S
C79 C84 1.391 . S
C79 H109 0.948 . S
C80 C79 1.391 1_554 S
C80 C81 1.391 1_554 S
C81 C80 1.391 1_556 S
C81 C82 1.392 . S
C81 H110 0.947 . S
C82 C81 1.392 . S
C82 C83 1.419 . S
C82 H111 0.948 . S
C83 C82 1.419 . S
C83 C84 1.391 . S
C83 C87 1.397 . S
C84 C79 1.391 . S
C84 C83 1.391 . S
C84 C85 1.399 . S
C85 C84 1.399 . S
C85 C86 1.396 . S
C85 C88 1.453 . S
C85 C89 1.684 . S
C86 C67 1.723 . S
C86 C85 1.396 . S
C86 C87 1.394 . S
C87 C83 1.397 . S
C87 C86 1.394 . S
C87 C97 1.723 . S
C88 C85 1.453 . S
C88 H112 0.982 . S
C88 H113 0.979 . S
C88 H114 0.977 . S
C89 C85 1.684 . S
C89 H115 0.979 . S
C89 H116 0.980 . S
C89 H117 0.983 . S
C90 H66 0.948 . S
C90 C91 1.391 . S
C90 C95 1.391 . S
C91 C90 1.391 . S
C91 C92 1.391 . S
C92 H69 0.947 . S
C92 C91 1.391 . S
C92 C93 1.392 . S
C93 H70 0.948 . S
C93 C92 1.392 . S
C93 C94 1.419 . S
C94 C93 1.419 . S
C94 C95 1.391 . S
C94 C98 1.397 . S
C95 C90 1.391 . S
C95 C94 1.391 . S
C95 C96 1.399 . S
C96 C95 1.399 . S
C96 C97 1.396 . S
C96 C99 1.453 . S
C96 C100 1.684 . S
C97 C87 1.723 . S
C97 C96 1.396 . S
C97 C98 1.394 . S
C98 C68 1.723 . S
C98 C94 1.397 . S
C98 C97 1.394 . S
C99 H71 0.982 . S
C99 H75 0.979 . S
C99 H76 0.977 . S
C99 C96 1.453 . S
C100 H72 0.979 . S
C100 H73 0.980 . S
C100 H74 0.983 . S
C100 C96 1.684 . S
H101 C119 0.948 . S
H102 C60 0.948 . S
H103 C78 0.979 . S
H104 C78 0.980 . S
H105 C78 0.983 . S
H106 C77 0.982 . S
H107 C77 0.979 . S
H108 C77 0.977 . S
H109 C79 0.948 . S
H110 C81 0.947 . S
H111 C82 0.948 . S
H112 C88 0.982 . S
H113 C88 0.979 . S
H114 C88 0.977 . S
H115 C89 0.979 . S
H116 C89 0.980 . S
H117 C89 0.983 . S
H118 C62 0.947 . S
C119 C62 1.392 . S
C119 C63 1.419 . S
C119 H101 0.948 . S
C120 C121 1.391 . S
C120 C124 1.391 . S
C120 H162 0.948 . S
C121 C120 1.391 . S
C121 C122 1.391 . S
C122 C121 1.391 . S
C122 H178 0.947 . S
C122 C179 1.392 . S
C123 C124 1.391 . S
C123 C127 1.397 . S
C123 C179 1.419 . S
C124 C120 1.391 . S
C124 C123 1.391 . S
C124 C125 1.399 . S
C125 C124 1.399 . S
C125 C128 1.396 . S
C125 C137 1.453 . S
C125 C138 1.684 . S
H126 C150 0.948 . S
C127 C123 1.397 . S
C127 C128 1.394 . S
C127 C146 1.723 . S
C128 C125 1.396 . S
C128 C127 1.394 . S
C128 C158 1.723 . S
H129 C152 0.947 . S
H130 C153 0.948 . S
H131 C159 0.982 . S
H132 C160 0.979 . S
H133 C160 0.980 . S
H134 C160 0.983 . S
H135 C159 0.979 . S
H136 C159 0.977 . S
C137 C125 1.453 . S
C137 H166 0.982 . S
C137 H167 0.979 . S
C137 H168 0.977 . S
C138 C125 1.684 . S
C138 H163 0.979 . S
C138 H164 0.980 . S
C138 H165 0.983 . S
C139 C140 1.391 . S
C139 C144 1.391 . S
C139 H169 0.948 . S
C140 C139 1.391 . S
C140 C141 1.391 . S
C141 C140 1.391 . S
C141 C142 1.392 . S
C141 H170 0.947 . S
C142 C141 1.392 . S
C142 C143 1.419 . S
C142 H171 0.948 . S
C143 C142 1.419 . S
C143 C144 1.391 . S
C143 C147 1.397 . S
C144 C139 1.391 . S
C144 C143 1.391 . S
C144 C145 1.399 . S
C145 C144 1.399 . S
C145 C146 1.396 . S
C145 C148 1.453 . S
C145 C149 1.684 . S
C146 C127 1.723 . S
C146 C145 1.396 . S
C146 C147 1.394 . S
C147 C143 1.397 . S
C147 C146 1.394 . S
C147 C157 1.723 . S
C148 C145 1.453 . S
C148 H172 0.982 . S
C148 H173 0.979 . S
C148 H174 0.977 . S
C149 C145 1.684 . S
C149 H175 0.979 . S
C149 H176 0.980 . S
C149 H177 0.983 . S
C150 H126 0.948 . S
C150 C151 1.391 . S
C150 C155 1.391 . S
C151 C150 1.391 . S
C151 C152 1.391 . S
C152 H129 0.947 . S
C152 C151 1.391 . S
C152 C153 1.392 . S
C153 H130 0.948 . S
C153 C152 1.392 . S
C153 C154 1.419 . S
C154 C153 1.419 . S
C154 C155 1.391 . S
C154 C158 1.397 . S
C155 C150 1.391 . S
C155 C154 1.391 . S
C155 C156 1.399 . S
C156 C155 1.399 . S
C156 C157 1.396 . S
C156 C159 1.453 . S
C156 C160 1.684 . S
C157 C147 1.723 . S
C157 C156 1.396 . S
C157 C158 1.394 . S
C158 C128 1.723 . S
C158 C154 1.397 . S
C158 C157 1.394 . S
C159 H131 0.982 . S
C159 H135 0.979 . S
C159 H136 0.977 . S
C159 C156 1.453 . S
C160 H132 0.979 . S
C160 H133 0.980 . S
C160 H134 0.983 . S
C160 C156 1.684 . S
H161 C179 0.948 . S
H162 C120 0.948 . S
H163 C138 0.979 . S
H164 C138 0.980 . S
H165 C138 0.983 . S
H166 C137 0.982 . S
H167 C137 0.979 . S
H168 C137 0.977 . S
H169 C139 0.948 . S
H170 C141 0.947 . S
H171 C142 0.948 . S
H172 C148 0.982 . S
H173 C148 0.979 . S
H174 C148 0.977 . S
H175 C149 0.979 . S
H176 C149 0.980 . S
H177 C149 0.983 . S
H178 C122 0.947 . S
C179 C122 1.392 . S
C179 C123 1.419 . S
C179 H161 0.948 . S
C180 C181 1.391 . S
C180 C184 1.391 . S
C180 H222 0.948 . S
C181 C180 1.391 . S
C181 C182 1.391 . S
C182 C181 1.391 . S
C182 H238 0.947 . S
C182 C239 1.392 . S
C183 C184 1.391 . S
C183 C187 1.397 . S
C183 C239 1.419 . S
C184 C180 1.391 . S
C184 C183 1.391 . S
C184 C185 1.399 . S
C185 C184 1.399 . S
C185 C188 1.396 . S
C185 C197 1.453 . S
C185 C198 1.684 . S
H186 C210 0.948 . S
C187 C183 1.397 . S
C187 C188 1.394 . S
C187 C206 1.723 . S
C188 C185 1.396 . S
C188 C187 1.394 . S
C188 C218 1.723 . S
H189 C212 0.947 . S
H190 C213 0.948 . S
H191 C219 0.982 . S
H192 C220 0.979 . S
H193 C220 0.980 . S
H194 C220 0.983 . S
H195 C219 0.979 . S
H196 C219 0.977 . S
C197 C185 1.453 . S
C197 H226 0.982 . S
C197 H227 0.979 . S
C197 H228 0.977 . S
C198 C185 1.684 . S
C198 H223 0.979 . S
C198 H224 0.980 . S
C198 H225 0.983 . S
C199 C200 1.382 1_554 S
C199 C204 1.391 . S
C199 H229 0.948 . S
C200 C199 1.382 1_556 S
C200 C201 1.381 1_556 S
C201 C200 1.381 1_554 S
C201 C202 1.392 . S
C201 H230 0.947 . S
C202 C201 1.392 . S
C202 C203 1.419 . S
C202 H231 0.948 . S
C203 C202 1.419 . S
C203 C204 1.391 . S
C203 C207 1.397 . S
C204 C199 1.391 . S
C204 C203 1.391 . S
C204 C205 1.399 . S
C205 C204 1.399 . S
C205 C206 1.396 . S
C205 C208 1.453 . S
C205 C209 1.684 . S
C206 C187 1.723 . S
C206 C205 1.396 . S
C206 C207 1.394 . S
C207 C203 1.397 . S
C207 C206 1.394 . S
C207 C217 1.723 . S
C208 C205 1.453 . S
C208 H232 0.982 . S
C208 H233 0.979 . S
C208 H234 0.977 . S
C209 C205 1.684 . S
C209 H235 0.979 . S
C209 H236 0.980 . S
C209 H237 0.983 . S
C210 H186 0.948 . S
C210 C211 1.391 . S
C210 C215 1.391 . S
C211 C210 1.391 . S
C211 C212 1.391 . S
C212 H189 0.947 . S
C212 C211 1.391 . S
C212 C213 1.392 . S
C213 H190 0.948 . S
C213 C212 1.392 . S
C213 C214 1.419 . S
C214 C213 1.419 . S
C214 C215 1.391 . S
C214 C218 1.397 . S
C215 C210 1.391 . S
C215 C214 1.391 . S
C215 C216 1.399 . S
C216 C215 1.399 . S
C216 C217 1.396 . S
C216 C219 1.453 . S
C216 C220 1.684 . S
C217 C207 1.723 . S
C217 C216 1.396 . S
C217 C218 1.394 . S
C218 C188 1.723 . S
C218 C214 1.397 . S
C218 C217 1.394 . S
C219 H191 0.982 . S
C219 H195 0.979 . S
C219 H196 0.977 . S
C219 C216 1.453 . S
C220 H192 0.979 . S
C220 H193 0.980 . S
C220 H194 0.983 . S
C220 C216 1.684 . S
H221 C239 0.948 . S
H222 C180 0.948 . S
H223 C198 0.979 . S
H224 C198 0.980 . S
H225 C198 0.983 . S
H226 C197 0.982 . S
H227 C197 0.979 . S
H228 C197 0.977 . S
H229 C199 0.948 . S
H230 C201 0.947 . S
H231 C202 0.948 . S
H232 C208 0.982 . S
H233 C208 0.979 . S
H234 C208 0.977 . S
H235 C209 0.979 . S
H236 C209 0.980 . S
H237 C209 0.983 . S
H238 C182 0.947 . S
C239 C182 1.392 . S
C239 C183 1.419 . S
C239 H221 0.948 . S
C240 C241 1.391 . S
C240 C244 1.391 . S
C240 H282 0.948 . S
C241 C240 1.391 . S
C241 C242 1.391 . S
C242 C241 1.391 . S
C242 H298 0.947 . S
C242 C299 1.392 . S
C243 C244 1.391 . S
C243 C247 1.397 . S
C243 C299 1.419 . S
C244 C240 1.391 . S
C244 C243 1.391 . S
C244 C245 1.399 . S
C245 C244 1.399 . S
C245 C248 1.396 . S
C245 C257 1.453 . S
C245 C258 1.684 . S
H246 C270 0.948 . S
C247 C243 1.397 . S
C247 C248 1.394 . S
C247 C266 1.723 . S
C248 C245 1.396 . S
C248 C247 1.394 . S
C248 C278 1.723 . S
H249 C272 0.947 . S
H250 C273 0.948 . S
H251 C279 0.982 . S
H252 C280 0.979 . S
H253 C280 0.980 . S
H254 C280 0.983 . S
H255 C279 0.979 . S
H256 C279 0.977 . S
C257 C245 1.453 . S
C257 H286 0.982 . S
C257 H287 0.979 . S
C257 H288 0.977 . S
C258 C245 1.684 . S
C258 H283 0.979 . S
C258 H284 0.980 . S
C258 H285 0.983 . S
C259 C260 1.391 . S
C259 C264 1.391 . S
C259 H289 0.948 . S
C260 C259 1.391 . S
C260 C261 1.391 . S
C261 C260 1.391 . S
C261 C262 1.392 . S
C261 H290 0.947 . S
C262 C261 1.392 . S
C262 C263 1.419 . S
C262 H291 0.948 . S
C263 C262 1.419 . S
C263 C264 1.391 . S
C263 C267 1.397 . S
C264 C259 1.391 . S
C264 C263 1.391 . S
C264 C265 1.399 . S
C265 C264 1.399 . S
C265 C266 1.396 . S
C265 C268 1.453 . S
C265 C269 1.684 . S
C266 C247 1.723 . S
C266 C265 1.396 . S
C266 C267 1.394 . S
C267 C263 1.397 . S
C267 C266 1.394 . S
C267 C277 1.723 . S
C268 C265 1.453 . S
C268 H292 0.982 . S
C268 H293 0.979 . S
C268 H294 0.977 . S
C269 C265 1.684 . S
C269 H295 0.979 . S
C269 H296 0.980 . S
C269 H297 0.983 . S
C270 H246 0.948 . S
C270 C271 1.391 . S
C270 C275 1.391 . S
C271 C270 1.391 . S
C271 C272 1.391 . S
C272 H249 0.947 . S
C272 C271 1.391 . S
C272 C273 1.392 . S
C273 H250 0.948 . S
C273 C272 1.392 . S
C273 C274 1.419 . S
C274 C273 1.419 . S
C274 C275 1.391 . S
C274 C278 1.397 . S
C275 C270 1.391 . S
C275 C274 1.391 . S
C275 C276 1.399 . S
C276 C275 1.399 . S
C276 C277 1.396 . S
C276 C279 1.453 . S
C276 C280 1.684 . S
C277 C267 1.723 . S
C277 C276 1.396 . S
C277 C278 1.394 . S
C278 C248 1.723 . S
C278 C274 1.397 . S
C278 C277 1.394 . S
C279 H251 0.982 . S
C279 H255 0.979 . S
C279 H256 0.977 . S
C279 C276 1.453 . S
C280 H252 0.979 . S
C280 H253 0.980 . S
C280 H254 0.983 . S
C280 C276 1.684 . S
H281 C299 0.948 . S
H282 C240 0.948 . S
H283 C258 0.979 . S
H284 C258 0.980 . S
H285 C258 0.983 . S
H286 C257 0.982 . S
H287 C257 0.979 . S
H288 C257 0.977 . S
H289 C259 0.948 . S
H290 C261 0.947 . S
H291 C262 0.948 . S
H292 C268 0.982 . S
H293 C268 0.979 . S
H294 C268 0.977 . S
H295 C269 0.979 . S
H296 C269 0.980 . S
H297 C269 0.983 . S
H298 C242 0.947 . S
C299 C242 1.392 . S
C299 C243 1.419 . S
C299 H281 0.948 . S
C300 C301 1.391 . S
C300 C304 1.391 . S
C300 H342 0.948 . S
C301 C300 1.391 . S
C301 C302 1.391 . S
C302 C301 1.391 . S
C302 H358 0.947 . S
C302 C359 1.392 . S
C303 C304 1.391 . S
C303 C307 1.397 . S
C303 C359 1.419 . S
C304 C300 1.391 . S
C304 C303 1.391 . S
C304 C305 1.399 . S
C305 C304 1.399 . S
C305 C308 1.396 . S
C305 C317 1.453 . S
C305 C318 1.684 . S
H306 C330 0.948 . S
C307 C303 1.397 . S
C307 C308 1.394 . S
C307 C326 1.723 . S
C308 C305 1.396 . S
C308 C307 1.394 . S
C308 C338 1.723 . S
H309 C332 0.947 . S
H310 C333 0.948 . S
H311 C339 0.982 . S
H312 C340 0.979 . S
H313 C340 0.980 . S
H314 C340 0.983 . S
H315 C339 0.979 . S
H316 C339 0.977 . S
C317 C305 1.453 . S
C317 H346 0.982 . S
C317 H347 0.979 . S
C317 H348 0.977 . S
C318 C305 1.684 . S
C318 H343 0.979 . S
C318 H344 0.980 . S
C318 H345 0.983 . S
C319 C320 1.391 1_554 S
C319 C324 1.391 . S
C319 H349 0.948 1_554 S
C320 C319 1.391 1_556 S
C320 C321 1.391 1_556 S
C321 C320 1.391 1_554 S
C321 C322 1.392 . S
C321 H350 0.946 1_554 S
C322 C321 1.392 . S
C322 C323 1.419 . S
C322 H351 0.948 . S
C323 C322 1.419 . S
C323 C324 1.391 . S
C323 C327 1.397 . S
C324 C319 1.391 . S
C324 C323 1.391 . S
C324 C325 1.399 . S
C325 C324 1.399 . S
C325 C326 1.396 . S
C325 C328 1.453 . S
C325 C329 1.684 . S
C326 C307 1.723 . S
C326 C325 1.396 . S
C326 C327 1.394 . S
C327 C323 1.397 . S
C327 C326 1.394 . S
C327 C337 1.723 . S
C328 C325 1.453 . S
C328 H352 0.982 . S
C328 H353 0.979 . S
C328 H354 0.977 . S
C329 C325 1.684 . S
C329 H355 0.979 . S
C329 H356 0.980 . S
C329 H357 0.983 . S
C330 H306 0.948 . S
C330 C331 1.391 . S
C330 C335 1.391 . S
C331 C330 1.391 . S
C331 C332 1.391 . S
C332 H309 0.947 . S
C332 C331 1.391 . S
C332 C333 1.392 . S
C333 H310 0.948 . S
C333 C332 1.392 . S
C333 C334 1.419 . S
C334 C333 1.419 . S
C334 C335 1.391 . S
C334 C338 1.397 . S
C335 C330 1.391 . S
C335 C334 1.391 . S
C335 C336 1.399 . S
C336 C335 1.399 . S
C336 C337 1.396 . S
C336 C339 1.453 . S
C336 C340 1.684 . S
C337 C327 1.723 . S
C337 C336 1.396 . S
C337 C338 1.394 . S
C338 C308 1.723 . S
C338 C334 1.397 . S
C338 C337 1.394 . S
C339 H311 0.982 . S
C339 H315 0.979 . S
C339 H316 0.977 . S
C339 C336 1.453 . S
C340 H312 0.979 . S
C340 H313 0.980 . S
C340 H314 0.983 . S
C340 C336 1.684 . S
H341 C359 0.948 . S
H342 C300 0.948 . S
H343 C318 0.979 . S
H344 C318 0.980 . S
H345 C318 0.983 . S
H346 C317 0.982 . S
H347 C317 0.979 . S
H348 C317 0.977 . S
H349 C319 0.948 1_556 S
H350 C321 0.946 1_556 S
H351 C322 0.948 . S
H352 C328 0.982 . S
H353 C328 0.979 . S
H354 C328 0.977 . S
H355 C329 0.979 . S
H356 C329 0.980 . S
H357 C329 0.983 . S
H358 C302 0.947 . S
C359 C302 1.392 . S
C359 C303 1.419 . S
C359 H341 0.948 . S
C360 C361 1.391 . S
C360 C364 1.391 . S
C360 H402 0.948 . S
C361 C360 1.391 . S
C361 C362 1.391 . S
C362 C361 1.391 . S
C362 H418 0.947 . S
C362 C419 1.392 . S
C363 C364 1.391 . S
C363 C367 1.397 . S
C363 C419 1.419 . S
C364 C360 1.391 . S
C364 C363 1.391 . S
C364 C365 1.399 . S
C365 C364 1.399 . S
C365 C368 1.396 . S
C365 C377 1.453 . S
C365 C378 1.684 . S
H366 C390 0.948 . S
C367 C363 1.397 . S
C367 C368 1.394 . S
C367 C386 1.723 . S
C368 C365 1.396 . S
C368 C367 1.394 . S
C368 C398 1.723 . S
H369 C392 0.947 . S
H370 C393 0.948 . S
H371 C399 0.982 . S
H372 C400 0.979 . S
H373 C400 0.980 . S
H374 C400 0.983 . S
H375 C399 0.979 . S
H376 C399 0.977 . S
C377 C365 1.453 . S
C377 H406 0.982 . S
C377 H407 0.979 . S
C377 H408 0.977 . S
C378 C365 1.684 . S
C378 H403 0.979 . S
C378 H404 0.980 . S
C378 H405 0.983 . S
C379 C380 1.391 . S
C379 C384 1.391 . S
C379 H409 0.948 . S
C380 C379 1.391 . S
C380 C381 1.391 . S
C381 C380 1.391 . S
C381 C382 1.392 . S
C381 H410 0.947 . S
C382 C381 1.392 . S
C382 C383 1.419 . S
C382 H411 0.948 . S
C383 C382 1.419 . S
C383 C384 1.391 . S
C383 C387 1.397 . S
C384 C379 1.391 . S
C384 C383 1.391 . S
C384 C385 1.399 . S
C385 C384 1.399 . S
C385 C386 1.396 . S
C385 C388 1.453 . S
C385 C389 1.684 . S
C386 C367 1.723 . S
C386 C385 1.396 . S
C386 C387 1.394 . S
C387 C383 1.397 . S
C387 C386 1.394 . S
C387 C397 1.723 . S
C388 C385 1.453 . S
C388 H412 0.982 . S
C388 H413 0.979 . S
C388 H414 0.977 . S
C389 C385 1.684 . S
C389 H415 0.979 . S
C389 H416 0.980 . S
C389 H417 0.983 . S
C390 H366 0.948 . S
C390 C391 1.391 . S
C390 C395 1.391 . S
C391 C390 1.391 . S
C391 C392 1.391 . S
C392 H369 0.947 . S
C392 C391 1.391 . S
C392 C393 1.392 . S
C393 H370 0.948 . S
C393 C392 1.392 . S
C393 C394 1.419 . S
C394 C393 1.419 . S
C394 C395 1.391 . S
C394 C398 1.397 . S
C395 C390 1.391 . S
C395 C394 1.391 . S
C395 C396 1.399 . S
C396 C395 1.399 . S
C396 C397 1.396 . S
C396 C399 1.453 . S
C396 C400 1.684 . S
C397 C387 1.723 . S
C397 C396 1.396 . S
C397 C398 1.394 . S
C398 C368 1.723 . S
C398 C394 1.397 . S
C398 C397 1.394 . S
C399 H371 0.982 . S
C399 H375 0.979 . S
C399 H376 0.977 . S
C399 C396 1.453 . S
C400 H372 0.979 . S
C400 H373 0.980 . S
C400 H374 0.983 . S
C400 C396 1.684 . S
H401 C419 0.948 . S
H402 C360 0.948 . S
H403 C378 0.979 . S
H404 C378 0.980 . S
H405 C378 0.983 . S
H406 C377 0.982 . S
H407 C377 0.979 . S
H408 C377 0.977 . S
H409 C379 0.948 . S
H410 C381 0.947 . S
H411 C382 0.948 . S
H412 C388 0.982 . S
H413 C388 0.979 . S
H414 C388 0.977 . S
H415 C389 0.979 . S
H416 C389 0.980 . S
H417 C389 0.983 . S
H418 C362 0.947 . S
C419 C362 1.392 . S
C419 C363 1.419 . S
C419 H401 0.948 . S
C420 C421 1.391 . S
C420 C424 1.391 . S
C420 H462 0.948 . S
C421 C420 1.391 . S
C421 C422 1.391 . S
C422 C421 1.391 . S
C422 H478 0.947 . S
C422 C479 1.392 . S
C423 C424 1.391 . S
C423 C427 1.397 . S
C423 C479 1.419 . S
C424 C420 1.391 . S
C424 C423 1.391 . S
C424 C425 1.399 . S
C425 C424 1.399 . S
C425 C428 1.396 . S
C425 C437 1.453 . S
C425 C438 1.684 . S
H426 C450 0.948 . S
C427 C423 1.397 . S
C427 C428 1.394 . S
C427 C446 1.723 . S
C428 C425 1.396 . S
C428 C427 1.394 . S
C428 C458 1.723 . S
H429 C452 0.947 . S
H430 C453 0.948 . S
H431 C459 0.982 . S
H432 C460 0.979 . S
H433 C460 0.980 . S
H434 C460 0.983 . S
H435 C459 0.979 . S
H436 C459 0.977 . S
C437 C425 1.453 . S
C437 H466 0.982 . S
C437 H467 0.979 . S
C437 H468 0.977 . S
C438 C425 1.684 . S
C438 H463 0.979 . S
C438 H464 0.980 . S
C438 H465 0.983 . S
C439 C440 1.391 1_556 S
C439 C444 1.391 . S
C439 H469 0.966 . S
C440 C439 1.391 1_554 S
C440 C441 1.391 1_554 S
C441 C440 1.391 1_556 S
C441 C442 1.392 . S
C441 H470 0.947 . S
C442 C441 1.392 . S
C442 C443 1.419 . S
C442 H471 0.948 . S
C443 C442 1.419 . S
C443 C444 1.391 . S
C443 C447 1.397 . S
C444 C439 1.391 . S
C444 C443 1.391 . S
C444 C445 1.399 . S
C445 C444 1.399 . S
C445 C446 1.396 . S
C445 C448 1.453 . S
C445 C449 1.684 . S
C446 C427 1.723 . S
C446 C445 1.396 . S
C446 C447 1.394 . S
C447 C443 1.397 . S
C447 C446 1.394 . S
C447 C457 1.723 . S
C448 C445 1.453 . S
C448 H472 0.982 . S
C448 H473 0.979 . S
C448 H474 0.977 . S
C449 C445 1.684 . S
C449 H475 0.979 . S
C449 H476 0.980 . S
C449 H477 0.983 . S
C450 H426 0.948 . S
C450 C451 1.391 . S
C450 C455 1.391 . S
C451 C450 1.391 . S
C451 C452 1.391 . S
C452 H429 0.947 . S
C452 C451 1.391 . S
C452 C453 1.392 . S
C453 H430 0.948 . S
C453 C452 1.392 . S
C453 C454 1.419 . S
C454 C453 1.419 . S
C454 C455 1.391 . S
C454 C458 1.397 . S
C455 C450 1.391 . S
C455 C454 1.391 . S
C455 C456 1.399 . S
C456 C455 1.399 . S
C456 C457 1.396 . S
C456 C459 1.453 . S
C456 C460 1.684 . S
C457 C447 1.723 . S
C457 C456 1.396 . S
C457 C458 1.394 . S
C458 C428 1.723 . S
C458 C454 1.397 . S
C458 C457 1.394 . S
C459 H431 0.982 . S
C459 H435 0.979 . S
C459 H436 0.977 . S
C459 C456 1.453 . S
C460 H432 0.979 . S
C460 H433 0.980 . S
C460 H434 0.983 . S
C460 C456 1.684 . S
H461 C479 0.948 . S
H462 C420 0.948 . S
H463 C438 0.979 . S
H464 C438 0.980 . S
H465 C438 0.983 . S
H466 C437 0.982 . S
H467 C437 0.979 . S
H468 C437 0.977 . S
H469 C439 0.966 . S
H470 C441 0.947 . S
H471 C442 0.948 . S
H472 C448 0.982 . S
H473 C448 0.979 . S
H474 C448 0.977 . S
H475 C449 0.979 . S
H476 C449 0.980 . S
H477 C449 0.983 . S
H478 C422 0.947 . S
C479 C422 1.392 . S
C479 C423 1.419 . S
C479 H461 0.948 . S
Zn480 O486 1.913 1_455 S
Zn480 O492 1.898 . S
Zn480 O495 1.905 . S
Zn481 O489 1.905 1_655 S
Zn481 O490 1.898 . S
Zn481 O498 1.920 . S
Zn482 O485 2.080 1_455 S
Zn482 O488 2.114 . S
Zn482 O491 2.120 1_455 S
Zn482 O493 2.120 . S
Zn482 O494 2.114 . S
Zn482 O497 2.080 1_455 S
C483 O488 1.166 . S
C483 O489 1.182 . S
C484 O490 1.167 . S
C484 O491 1.299 . S
O485 Zn482 2.080 1_655 S
O485 C499 1.305 . S
O486 Zn480 1.913 1_655 S
O486 C499 1.240 . S
C487 O492 1.167 . S
C487 O493 1.299 . S
O488 Zn482 2.114 . S
O488 C483 1.166 . S
O489 Zn481 1.905 1_455 S
O489 C483 1.182 . S
O490 Zn481 1.898 . S
O490 C484 1.167 . S
O491 Zn482 2.120 1_655 S
O491 C484 1.299 . S
O492 Zn480 1.898 . S
O492 C487 1.167 . S
O493 Zn482 2.120 . S
O493 C487 1.299 . S
O494 Zn482 2.114 . S
O494 C496 1.166 . S
O495 Zn480 1.905 . S
O495 C496 1.182 . S
C496 O494 1.166 . S
C496 O495 1.182 . S
O497 Zn482 2.080 1_655 S
O497 C500 1.305 . S
O498 Zn481 1.920 . S
O498 C500 1.234 . S
C499 O485 1.305 . S
C499 O486 1.240 . S
C500 O497 1.305 . S
C500 O498 1.234 . S
Zn501 O507 1.920 . S
Zn501 O513 1.898 . S
Zn501 O516 1.905 . S
Zn502 O510 1.905 . S
Zn502 O511 1.898 . S
Zn502 O519 1.920 . S
Zn503 O506 2.080 . S
Zn503 O509 2.114 . S
Zn503 O512 2.120 . S
Zn503 O514 2.120 . S
Zn503 O515 2.114 . S
Zn503 O518 2.080 . S
C504 O509 1.166 . S
C504 O510 1.182 . S
C505 O511 1.167 . S
C505 O512 1.299 . S
O506 Zn503 2.080 . S
O506 C520 1.305 . S
O507 Zn501 1.920 . S
O507 C520 1.234 . S
C508 O513 1.167 . S
C508 O514 1.299 . S
O509 Zn503 2.114 . S
O509 C504 1.166 . S
O510 Zn502 1.905 . S
O510 C504 1.182 . S
O511 Zn502 1.898 . S
O511 C505 1.167 . S
O512 Zn503 2.120 . S
O512 C505 1.299 . S
O513 Zn501 1.898 . S
O513 C508 1.167 . S
O514 Zn503 2.120 . S
O514 C508 1.299 . S
O515 Zn503 2.114 . S
O515 C517 1.166 . S
O516 Zn501 1.905 . S
O516 C517 1.182 . S
C517 O515 1.166 . S
C517 O516 1.182 . S
O518 Zn503 2.080 . S
O518 C521 1.305 . S
O519 Zn502 1.920 . S
O519 C521 1.234 . S
C520 O506 1.305 . S
C520 O507 1.234 . S
C521 O518 1.305 . S
C521 O519 1.234 . S
Zn522 O528 1.920 . S
Zn522 O534 1.898 . S
Zn522 O537 1.905 1_455 S
Zn523 O531 1.905 . S
Zn523 O532 1.898 . S
Zn523 O540 1.920 1_655 S
Zn524 O527 2.080 . S
Zn524 O530 2.114 1_455 S
Zn524 O533 2.120 1_455 S
Zn524 O535 2.120 . S
Zn524 O536 2.114 1_455 S
Zn524 O539 2.080 . S
C525 O530 1.166 . S
C525 O531 1.182 . S
C526 O532 1.167 . S
C526 O533 1.299 . S
O527 Zn524 2.080 . S
O527 C541 1.305 . S
O528 Zn522 1.920 . S
O528 C541 1.234 . S
C529 O534 1.167 . S
C529 O535 1.299 . S
O530 Zn524 2.114 1_655 S
O530 C525 1.166 . S
O531 Zn523 1.905 . S
O531 C525 1.182 . S
O532 Zn523 1.898 . S
O532 C526 1.167 . S
O533 Zn524 2.120 1_655 S
O533 C526 1.299 . S
O534 Zn522 1.898 . S
O534 C529 1.167 . S
O535 Zn524 2.120 . S
O535 C529 1.299 . S
O536 Zn524 2.114 1_655 S
O536 C538 1.166 . S
O537 Zn522 1.905 1_655 S
O537 C538 1.182 . S
C538 O536 1.166 . S
C538 O537 1.182 . S
O539 Zn524 2.080 . S
O539 C542 1.305 . S
O540 Zn523 1.920 1_455 S
O540 C542 1.234 . S
C541 O527 1.305 . S
C541 O528 1.234 . S
C542 O539 1.305 . S
C542 O540 1.234 . S
Zn543 O549 1.920 . S
Zn543 O555 1.898 . S
Zn543 O558 1.905 . S
Zn544 O552 1.905 . S
Zn544 O553 1.898 . S
Zn544 O561 1.920 . S
Zn545 O548 2.080 . S
Zn545 O551 2.114 . S
Zn545 O554 2.120 . S
Zn545 O556 2.120 . S
Zn545 O557 2.114 . S
Zn545 O560 2.080 . S
C546 O551 1.166 . S
C546 O552 1.182 . S
C547 O553 1.167 . S
C547 O554 1.299 . S
O548 Zn545 2.080 . S
O548 C562 1.305 . S
O549 Zn543 1.920 . S
O549 C562 1.234 . S
C550 O555 1.167 . S
C550 O556 1.299 . S
O551 Zn545 2.114 . S
O551 C546 1.166 . S
O552 Zn544 1.905 . S
O552 C546 1.182 . S
O553 Zn544 1.898 . S
O553 C547 1.167 . S
O554 Zn545 2.120 . S
O554 C547 1.299 . S
O555 Zn543 1.898 . S
O555 C550 1.167 . S
O556 Zn545 2.120 . S
O556 C550 1.299 . S
O557 Zn545 2.114 . S
O557 C559 1.166 . S
O558 Zn543 1.905 . S
O558 C559 1.182 . S
C559 O557 1.166 . S
C559 O558 1.182 . S
O560 Zn545 2.080 . S
O560 C563 1.305 . S
O561 Zn544 1.920 . S
O561 C563 1.234 . S
C562 O548 1.305 . S
C562 O549 1.234 . S
C563 O560 1.305 . S
C563 O561 1.234 . S
H564 C570 0.930 . S
H565 C574 0.930 . S
H566 C579 0.929 . S
H567 C577 0.929 . S
H568 C572 0.929 . S
H569 C578 0.929 . S
C570 H564 0.930 . S
C570 C571 1.367 . S
C570 C578 1.378 . S
C571 C570 1.367 . S
C571 C579 1.433 . S
C572 H568 0.929 . S
C572 C574 1.378 . S
C572 C576 1.350 . S
C573 C576 1.463 . S
C573 C578 1.350 1_545 S
C573 N581 1.427 . S
C574 H565 0.930 . S
C574 C572 1.378 . S
C574 C575 1.367 . S
C575 C574 1.367 . S
C575 C577 1.433 . S
C576 C572 1.350 . S
C576 C573 1.463 . S
C576 N580 1.427 . S
C577 H567 0.929 . S
C577 C575 1.433 . S
C577 N580 1.384 . S
C578 H569 0.929 . S
C578 C570 1.378 . S
C578 C573 1.350 1_565 S
C579 H566 0.929 . S
C579 C571 1.433 . S
C579 N581 1.384 1_565 S
N580 C576 1.427 . S
N580 C577 1.384 . S
N581 C573 1.427 . S
N581 C579 1.384 1_545 S
H582 C588 0.930 . S
H583 C592 0.930 . S
H584 C597 0.929 . S
H585 C595 0.929 . S
H586 C590 0.929 . S
H587 C596 0.929 . S
C588 H582 0.930 . S
C588 C589 1.367 . S
C588 C596 1.378 . S
C589 C588 1.367 . S
C589 C597 1.433 . S
C590 H586 0.929 . S
C590 C592 1.378 . S
C590 C594 1.350 . S
C591 C594 1.463 . S
C591 C596 1.350 . S
C591 N599 1.427 . S
C592 H583 0.930 . S
C592 C590 1.378 . S
C592 C593 1.367 . S
C593 C592 1.367 . S
C593 C595 1.433 . S
C594 C590 1.350 . S
C594 C591 1.463 . S
C594 N598 1.427 . S
C595 H585 0.929 . S
C595 C593 1.433 . S
C595 N598 1.384 . S
C596 H587 0.929 . S
C596 C588 1.378 . S
C596 C591 1.350 . S
C597 H584 0.929 . S
C597 C589 1.433 . S
C597 N599 1.384 . S
N598 C594 1.427 . S
N598 C595 1.384 . S
N599 C591 1.427 . S
N599 C597 1.384 . S
H600 C606 0.930 . S
H601 C610 0.930 . S
H602 C615 0.929 . S
H603 C613 0.929 . S
H604 C608 0.929 . S
H605 C614 0.929 . S
C606 H600 0.930 . S
C606 C607 1.367 . S
C606 C614 1.378 . S
C607 C606 1.367 . S
C607 C615 1.433 . S
C608 H604 0.929 . S
C608 C610 1.378 . S
C608 C612 1.350 . S
C609 C612 1.463 . S
C609 C614 1.350 . S
C609 N617 1.427 . S
C610 H601 0.930 . S
C610 C608 1.378 . S
C610 C611 1.367 . S
C611 C610 1.367 . S
C611 C613 1.433 . S
C612 C608 1.350 . S
C612 C609 1.463 . S
C612 N616 1.427 . S
C613 H603 0.929 . S
C613 C611 1.433 . S
C613 N616 1.384 . S
C614 H605 0.929 . S
C614 C606 1.378 . S
C614 C609 1.350 . S
C615 H602 0.929 . S
C615 C607 1.433 . S
C615 N617 1.384 . S
N616 C612 1.427 . S
N616 C613 1.384 . S
N617 C609 1.427 . S
N617 C615 1.384 . S
H618 C624 0.930 . S
H619 C628 0.930 . S
H620 C633 0.929 . S
H621 C631 0.959 . S
H622 C626 0.929 . S
H623 C632 0.929 . S
C624 H618 0.930 . S
C624 C625 1.367 . S
C624 C632 1.378 . S
C625 C624 1.367 . S
C625 C633 1.433 . S
C626 H622 0.929 . S
C626 C628 1.378 . S
C626 C630 1.350 . S
C627 C630 1.463 . S
C627 C632 1.350 1_545 S
C627 N635 1.427 . S
C628 H619 0.930 . S
C628 C626 1.378 . S
C628 C629 1.367 . S
C629 C628 1.367 . S
C629 C631 1.433 . S
C630 C626 1.350 . S
C630 C627 1.463 . S
C630 N634 1.427 . S
C631 H621 0.959 . S
C631 C629 1.433 . S
C631 N634 1.384 . S
C632 H623 0.929 . S
C632 C624 1.378 . S
C632 C627 1.350 1_565 S
C633 H620 0.929 . S
C633 C625 1.433 . S
C633 N635 1.384 1_565 S
N634 C630 1.427 . S
N634 C631 1.384 . S
N635 C627 1.427 . S
N635 C633 1.384 1_545 S
H636 C642 0.930 . S
H637 C646 0.930 . S
H638 C651 0.929 . S
H639 C649 0.929 . S
H640 C644 0.929 . S
H641 C650 0.929 1_565 S
C642 H636 0.930 . S
C642 C643 1.367 . S
C642 C650 1.378 . S
C643 C642 1.367 . S
C643 C651 1.433 . S
C644 H640 0.929 . S
C644 C646 1.378 . S
C644 C648 1.350 . S
C645 C648 1.463 . S
C645 C650 1.350 1_565 S
C645 N653 1.427 1_565 S
C646 H637 0.930 . S
C646 C644 1.378 . S
C646 C647 1.367 . S
C647 C646 1.367 . S
C647 C649 1.433 . S
C648 C644 1.350 . S
C648 C645 1.463 . S
C648 N652 1.427 . S
C649 H639 0.929 . S
C649 C647 1.433 . S
C649 N652 1.384 . S
C650 H641 0.929 1_545 S
C650 C642 1.378 . S
C650 C645 1.350 1_545 S
C651 H638 0.929 . S
C651 C643 1.433 . S
C651 N653 1.384 . S
N652 C648 1.427 . S
N652 C649 1.384 . S
N653 C645 1.427 1_545 S
N653 C651 1.384 . S
H654 C660 0.930 . S
H655 C664 0.930 . S
H656 C669 0.929 . S
H657 C667 0.929 . S
H658 C662 0.929 . S
H659 C668 0.929 . S
C660 H654 0.930 . S
C660 C661 1.367 . S
C660 C668 1.378 . S
C661 C660 1.367 . S
C661 C669 1.433 . S
C662 H658 0.929 . S
C662 C664 1.378 . S
C662 C666 1.350 . S
C663 C666 1.463 . S
C663 C668 1.350 . S
C663 N671 1.427 . S
C664 H655 0.930 . S
C664 C662 1.378 . S
C664 C665 1.367 . S
C665 C664 1.367 . S
C665 C667 1.433 . S
C666 C662 1.350 . S
C666 C663 1.463 . S
C666 N670 1.427 . S
C667 H657 0.929 . S
C667 C665 1.433 . S
C667 N670 1.384 . S
C668 H659 0.929 . S
C668 C660 1.378 . S
C668 C663 1.350 . S
C669 H656 0.929 . S
C669 C661 1.433 . S
C669 N671 1.384 . S
N670 C666 1.427 . S
N670 C667 1.384 . S
N671 C663 1.427 . S
N671 C669 1.384 . S
H672 C678 0.930 . S
H673 C682 0.930 . S
H674 C687 0.929 . S
H675 C685 0.929 . S
H676 C680 0.929 . S
H677 C686 0.929 . S
C678 H672 0.930 . S
C678 C679 1.367 . S
C678 C686 1.378 . S
C679 C678 1.367 . S
C679 C687 1.433 . S
C680 H676 0.929 . S
C680 C682 1.378 . S
C680 C684 1.350 . S
C681 C684 1.463 . S
C681 C686 1.350 . S
C681 N689 1.427 . S
C682 H673 0.930 . S
C682 C680 1.378 . S
C682 C683 1.367 . S
C683 C682 1.367 . S
C683 C685 1.433 . S
C684 C680 1.350 . S
C684 C681 1.463 . S
C684 N688 1.427 . S
C685 H675 0.929 . S
C685 C683 1.433 . S
C685 N688 1.384 . S
C686 H677 0.929 . S
C686 C678 1.378 . S
C686 C681 1.350 . S
C687 H674 0.929 . S
C687 C679 1.433 . S
C687 N689 1.384 . S
N688 C684 1.427 . S
N688 C685 1.384 . S
N689 C681 1.427 . S
N689 C687 1.384 . S
H690 C696 0.930 . S
H691 C700 0.930 . S
H692 C705 0.929 . S
H693 C703 0.929 . S
H694 C698 0.929 . S
H695 C704 0.914 1_565 S
C696 H690 0.930 . S
C696 C697 1.367 . S
C696 C704 1.378 . S
C697 C696 1.367 . S
C697 C705 1.433 . S
C698 H694 0.929 . S
C698 C700 1.378 . S
C698 C702 1.350 . S
C699 C702 1.463 . S
C699 C704 1.350 1_565 S
C699 N707 1.427 1_565 S
C700 H691 0.930 . S
C700 C698 1.378 . S
C700 C701 1.367 . S
C701 C700 1.367 . S
C701 C703 1.433 . S
C702 C698 1.350 . S
C702 C699 1.463 . S
C702 N706 1.427 . S
C703 H693 0.929 . S
C703 C701 1.433 . S
C703 N706 1.384 . S
C704 H695 0.914 1_545 S
C704 C696 1.378 . S
C704 C699 1.350 1_545 S
C705 H692 0.929 . S
C705 C697 1.433 . S
C705 N707 1.384 . S
N706 C702 1.427 . S
N706 C703 1.384 . S
N707 C699 1.427 1_545 S
N707 C705 1.384 . S
H708 C714 0.930 . S
H709 C718 0.930 . S
H710 C723 0.929 . S
H711 C721 0.929 . S
H712 C716 0.929 . S
H713 C722 0.929 . S
C714 H708 0.930 . S
C714 C715 1.367 . S
C714 C722 1.378 . S
C715 C714 1.367 . S
C715 C723 1.433 . S
C716 H712 0.929 . S
C716 C718 1.378 . S
C716 C720 1.350 . S
C717 C720 1.463 . S
C717 C722 1.350 . S
C717 N725 1.427 . S
C718 H709 0.930 . S
C718 C716 1.378 . S
C718 C719 1.367 . S
C719 C718 1.367 . S
C719 C721 1.433 . S
C720 C716 1.350 . S
C720 C717 1.463 . S
C720 N724 1.427 . S
C721 H711 0.929 . S
C721 C719 1.433 . S
C721 N724 1.384 . S
C722 H713 0.929 . S
C722 C714 1.378 . S
C722 C717 1.350 . S
C723 H710 0.929 . S
C723 C715 1.433 . S
C723 N725 1.384 . S
N724 C720 1.427 . S
N724 C721 1.384 . S
N725 C717 1.427 . S
N725 C723 1.384 . S
H726 C732 0.930 . S
H727 C736 0.930 . S
H728 C741 0.929 . S
H729 C739 0.929 . S
H730 C734 0.929 . S
H731 C740 0.929 . S
C732 H726 0.930 . S
C732 C733 1.367 . S
C732 C740 1.378 . S
C733 C732 1.367 . S
C733 C741 1.433 . S
C734 H730 0.929 . S
C734 C736 1.378 . S
C734 C738 1.350 . S
C735 C738 1.463 . S
C735 C740 1.350 . S
C735 N743 1.427 . S
C736 H727 0.930 . S
C736 C734 1.378 . S
C736 C737 1.367 . S
C737 C736 1.367 . S
C737 C739 1.433 . S
C738 C734 1.350 . S
C738 C735 1.463 . S
C738 N742 1.427 . S
C739 H729 0.929 . S
C739 C737 1.433 . S
C739 N742 1.384 . S
C740 H731 0.929 . S
C740 C732 1.378 . S
C740 C735 1.350 . S
C741 H728 0.929 . S
C741 C733 1.433 . S
C741 N743 1.384 . S
N742 C738 1.427 . S
N742 C739 1.384 . S
N743 C735 1.427 . S
N743 C741 1.384 . S
H744 C750 0.930 . S
H745 C754 0.930 . S
H746 C759 0.929 . S
H747 C757 0.929 . S
H748 C752 0.929 . S
H749 C758 0.929 . S
C750 H744 0.930 . S
C750 C751 1.367 . S
C750 C758 1.378 . S
C751 C750 1.367 . S
C751 C759 1.433 . S
C752 H748 0.929 . S
C752 C754 1.378 . S
C752 C756 1.350 . S
C753 C756 1.463 . S
C753 C758 1.350 . S
C753 N761 1.427 . S
C754 H745 0.930 . S
C754 C752 1.378 . S
C754 C755 1.367 . S
C755 C754 1.367 . S
C755 C757 1.433 . S
C756 C752 1.350 . S
C756 C753 1.463 . S
C756 N760 1.427 . S
C757 H747 0.929 . S
C757 C755 1.433 . S
C757 N760 1.384 . S
C758 H749 0.929 . S
C758 C750 1.378 . S
C758 C753 1.350 . S
C759 H746 0.929 . S
C759 C751 1.433 . S
C759 N761 1.384 . S
N760 C756 1.427 . S
N760 C757 1.384 . S
N761 C753 1.427 . S
N761 C759 1.384 . S
H762 C768 0.930 . S
H763 C772 0.930 . S
H764 C777 0.929 . S
H765 C775 0.929 . S
H766 C770 0.929 . S
H767 C776 0.929 . S
C768 H762 0.930 . S
C768 C769 1.367 . S
C768 C776 1.378 . S
C769 C768 1.367 . S
C769 C777 1.433 . S
C770 H766 0.929 . S
C770 C772 1.378 . S
C770 C774 1.350 . S
C771 C774 1.463 . S
C771 C776 1.350 . S
C771 N779 1.427 . S
C772 H763 0.930 . S
C772 C770 1.378 . S
C772 C773 1.367 . S
C773 C772 1.367 . S
C773 C775 1.433 . S
C774 C770 1.350 . S
C774 C771 1.463 . S
C774 N778 1.427 . S
C775 H765 0.929 . S
C775 C773 1.433 . S
C775 N778 1.384 . S
C776 H767 0.929 . S
C776 C768 1.378 . S
C776 C771 1.350 . S
C777 H764 0.929 . S
C777 C769 1.433 . S
C777 N779 1.384 . S
N778 C774 1.427 . S
N778 C775 1.384 . S
N779 C771 1.427 . S
N779 C777 1.384 . S
H780 C786 0.930 . S
H781 C790 0.930 . S
H782 C795 0.929 . S
H783 C793 0.929 . S
H784 C788 0.929 . S
H785 C794 0.929 . S
C786 H780 0.930 . S
C786 C787 1.367 . S
C786 C794 1.378 . S
C787 C786 1.367 . S
C787 C795 1.433 . S
C788 H784 0.929 . S
C788 C790 1.378 . S
C788 C792 1.350 . S
C789 C792 1.463 . S
C789 C794 1.350 . S
C789 N797 1.427 . S
C790 H781 0.930 . S
C790 C788 1.378 . S
C790 C791 1.367 . S
C791 C790 1.367 . S
C791 C793 1.433 . S
C792 C788 1.350 . S
C792 C789 1.463 . S
C792 N796 1.427 . S
C793 H783 0.929 . S
C793 C791 1.433 . S
C793 N796 1.384 . S
C794 H785 0.929 . S
C794 C786 1.378 . S
C794 C789 1.350 . S
C795 H782 0.929 . S
C795 C787 1.433 . S
C795 N797 1.384 . S
N796 C792 1.427 . S
N796 C793 1.384 . S
N797 C789 1.427 . S
N797 C795 1.384 . S
H798 C804 0.930 . S
H799 C808 0.930 . S
H800 C813 0.929 . S
H801 C811 0.929 . S
H802 C806 0.929 . S
H803 C812 0.929 . S
C804 H798 0.930 . S
C804 C805 1.367 . S
C804 C812 1.378 . S
C805 C804 1.367 . S
C805 C813 1.433 . S
C806 H802 0.929 . S
C806 C808 1.378 . S
C806 C810 1.350 . S
C807 C810 1.463 . S
C807 C812 1.350 . S
C807 N815 1.427 . S
C808 H799 0.930 . S
C808 C806 1.378 . S
C808 C809 1.367 . S
C809 C808 1.367 . S
C809 C811 1.433 . S
C810 C806 1.350 . S
C810 C807 1.463 . S
C810 N814 1.427 . S
C811 H801 0.929 . S
C811 C809 1.433 . S
C811 N814 1.384 . S
C812 H803 0.929 . S
C812 C804 1.378 . S
C812 C807 1.350 . S
C813 H800 0.929 . S
C813 C805 1.433 . S
C813 N815 1.384 . S
N814 C810 1.427 . S
N814 C811 1.384 . S
N815 C807 1.427 . S
N815 C813 1.384 . S
H816 C822 0.930 . S
H817 C826 0.930 . S
H818 C831 0.929 . S
H819 C829 0.929 . S
H820 C824 0.929 . S
H821 C830 0.929 . S
C822 H816 0.930 . S
C822 C823 1.367 . S
C822 C830 1.378 . S
C823 C822 1.367 . S
C823 C831 1.433 . S
C824 H820 0.929 . S
C824 C826 1.378 . S
C824 C828 1.350 . S
C825 C828 1.463 . S
C825 C830 1.350 . S
C825 N833 1.427 . S
C826 H817 0.930 . S
C826 C824 1.378 . S
C826 C827 1.367 . S
C827 C826 1.367 . S
C827 C829 1.433 . S
C828 C824 1.350 . S
C828 C825 1.463 . S
C828 N832 1.427 . S
C829 H819 0.929 . S
C829 C827 1.433 . S
C829 N832 1.384 . S
C830 H821 0.929 . S
C830 C822 1.378 . S
C830 C825 1.350 . S
C831 H818 0.929 . S
C831 C823 1.433 . S
C831 N833 1.384 . S
N832 C828 1.427 . S
N832 C829 1.384 . S
N833 C825 1.427 . S
N833 C831 1.384 . S
H834 C840 0.930 . S
H835 C844 0.930 . S
H836 C849 0.929 . S
H837 C847 0.929 . S
H838 C842 0.929 . S
H839 C848 0.929 . S
C840 H834 0.930 . S
C840 C841 1.367 . S
C840 C848 1.378 . S
C841 C840 1.367 . S
C841 C849 1.433 . S
C842 H838 0.929 . S
C842 C844 1.378 . S
C842 C846 1.350 . S
C843 C846 1.463 . S
C843 C848 1.350 . S
C843 N851 1.427 . S
C844 H835 0.930 . S
C844 C842 1.378 . S
C844 C845 1.367 . S
C845 C844 1.367 . S
C845 C847 1.433 . S
C846 C842 1.350 . S
C846 C843 1.463 . S
C846 N850 1.427 . S
C847 H837 0.929 . S
C847 C845 1.433 . S
C847 N850 1.384 . S
C848 H839 0.929 . S
C848 C840 1.378 . S
C848 C843 1.350 . S
C849 H836 0.929 . S
C849 C841 1.433 . S
C849 N851 1.384 . S
N850 C846 1.427 . S
N850 C847 1.384 . S
N851 C843 1.427 . S
N851 C849 1.384 . S
H852 C858 0.930 . S
H853 C862 0.930 . S
H854 C867 0.929 . S
H855 C865 0.929 . S
H856 C860 0.929 . S
H857 C866 0.929 . S
C858 H852 0.930 . S
C858 C859 1.367 . S
C858 C866 1.378 . S
C859 C858 1.367 . S
C859 C867 1.433 . S
C860 H856 0.929 . S
C860 C862 1.378 . S
C860 C864 1.350 . S
C861 C864 1.463 . S
C861 C866 1.350 . S
C861 N869 1.427 . S
C862 H853 0.930 . S
C862 C860 1.378 . S
C862 C863 1.367 . S
C863 C862 1.367 . S
C863 C865 1.433 . S
C864 C860 1.350 . S
C864 C861 1.463 . S
C864 N868 1.427 . S
C865 H855 0.929 . S
C865 C863 1.433 . S
C865 N868 1.384 . S
C866 H857 0.929 . S
C866 C858 1.378 . S
C866 C861 1.350 . S
C867 H854 0.929 . S
C867 C859 1.433 . S
C867 N869 1.384 . S
N868 C864 1.427 . S
N868 C865 1.384 . S
N869 C861 1.427 . S
N869 C867 1.384 . S
H870 C876 0.930 . S
H871 C880 0.930 . S
H872 C885 0.929 . S
H873 C883 0.929 . S
H874 C878 0.929 . S
H875 C884 0.929 . S
C876 H870 0.930 . S
C876 C877 1.367 . S
C876 C884 1.378 . S
C877 C876 1.367 . S
C877 C885 1.433 . S
C878 H874 0.929 . S
C878 C880 1.378 . S
C878 C882 1.350 . S
C879 C882 1.463 . S
C879 C884 1.350 . S
C879 N887 1.427 . S
C880 H871 0.930 . S
C880 C878 1.378 . S
C880 C881 1.367 . S
C881 C880 1.367 . S
C881 C883 1.433 . S
C882 C878 1.350 . S
C882 C879 1.463 . S
C882 N886 1.427 . S
C883 H873 0.929 . S
C883 C881 1.433 . S
C883 N886 1.384 . S
C884 H875 0.929 . S
C884 C876 1.378 . S
C884 C879 1.350 . S
C885 H872 0.929 . S
C885 C877 1.433 . S
C885 N887 1.384 . S
N886 C882 1.427 . S
N886 C883 1.384 . S
N887 C879 1.427 . S
N887 C885 1.384 . S
H888 C894 0.930 . S
H889 C898 0.930 . S
H890 C903 0.929 . S
H891 C901 0.929 . S
H892 C896 0.929 . S
H893 C902 0.929 . S
C894 H888 0.930 . S
C894 C895 1.367 . S
C894 C902 1.378 . S
C895 C894 1.367 . S
C895 C903 1.433 . S
C896 H892 0.929 . S
C896 C898 1.378 . S
C896 C900 1.350 . S
C897 C900 1.463 . S
C897 C902 1.350 . S
C897 N905 1.427 . S
C898 H889 0.930 . S
C898 C896 1.378 . S
C898 C899 1.367 . S
C899 C898 1.367 . S
C899 C901 1.433 . S
C900 C896 1.350 . S
C900 C897 1.463 . S
C900 N904 1.427 . S
C901 H891 0.929 . S
C901 C899 1.433 . S
C901 N904 1.384 . S
C902 H893 0.929 . S
C902 C894 1.378 . S
C902 C897 1.350 . S
C903 H890 0.929 . S
C903 C895 1.433 . S
C903 N905 1.384 . S
N904 C900 1.427 . S
N904 C901 1.384 . S
N905 C897 1.427 . S
N905 C903 1.384 . S
H906 C912 0.930 . S
H907 C916 0.930 . S
H908 C921 0.929 . S
H909 C919 0.929 . S
H910 C914 0.929 . S
H911 C920 0.929 . S
C912 H906 0.930 . S
C912 C913 1.367 . S
C912 C920 1.378 . S
C913 C912 1.367 . S
C913 C921 1.433 . S
C914 H910 0.929 . S
C914 C916 1.378 . S
C914 C918 1.350 . S
C915 C918 1.463 . S
C915 C920 1.350 . S
C915 N923 1.427 . S
C916 H907 0.930 . S
C916 C914 1.378 . S
C916 C917 1.367 . S
C917 C916 1.367 . S
C917 C919 1.433 . S
C918 C914 1.350 . S
C918 C915 1.463 . S
C918 N922 1.427 . S
C919 H909 0.929 . S
C919 C917 1.433 . S
C919 N922 1.384 . S
C920 H911 0.929 . S
C920 C912 1.378 . S
C920 C915 1.350 . S
C921 H908 0.929 . S
C921 C913 1.433 . S
C921 N923 1.384 . S
N922 C918 1.427 . S
N922 C919 1.384 . S
N923 C915 1.427 . S
N923 C921 1.384 . S
H924 C930 0.930 . S
H925 C934 0.930 . S
H926 C939 0.929 . S
H927 C937 0.929 . S
H928 C932 0.929 . S
H929 C938 0.929 . S
C930 H924 0.930 . S
C930 C931 1.367 . S
C930 C938 1.378 . S
C931 C930 1.367 . S
C931 C939 1.433 . S
C932 H928 0.929 . S
C932 C934 1.378 . S
C932 C936 1.350 . S
C933 C936 1.463 . S
C933 C938 1.350 . S
C933 N941 1.427 . S
C934 H925 0.930 . S
C934 C932 1.378 . S
C934 C935 1.367 . S
C935 C934 1.367 . S
C935 C937 1.433 . S
C936 C932 1.350 . S
C936 C933 1.463 . S
C936 N940 1.427 . S
C937 H927 0.929 . S
C937 C935 1.433 . S
C937 N940 1.384 . S
C938 H929 0.929 . S
C938 C930 1.378 . S
C938 C933 1.350 . S
C939 H926 0.929 . S
C939 C931 1.433 . S
C939 N941 1.384 . S
N940 C936 1.427 . S
N940 C937 1.384 . S
N941 C933 1.427 . S
N941 C939 1.384 . S
H942 C948 0.930 . S
H943 C952 0.930 . S
H944 C957 0.929 . S
H945 C955 0.929 . S
H946 C950 0.929 . S
H947 C956 0.929 . S
C948 H942 0.930 . S
C948 C949 1.367 . S
C948 C956 1.378 . S
C949 C948 1.367 . S
C949 C957 1.433 . S
C950 H946 0.929 . S
C950 C952 1.378 . S
C950 C954 1.350 . S
C951 C954 1.463 . S
C951 C956 1.350 . S
C951 N959 1.427 . S
C952 H943 0.930 . S
C952 C950 1.378 . S
C952 C953 1.367 . S
C953 C952 1.367 . S
C953 C955 1.433 . S
C954 C950 1.350 . S
C954 C951 1.463 . S
C954 N958 1.427 . S
C955 H945 0.929 . S
C955 C953 1.433 . S
C955 N958 1.384 . S
C956 H947 0.929 . S
C956 C948 1.378 . S
C956 C951 1.350 . S
C957 H944 0.929 . S
C957 C949 1.433 . S
C957 N959 1.384 . S
N958 C954 1.427 . S
N958 C955 1.384 . S
N959 C951 1.427 . S
N959 C957 1.384 . S
H960 C966 0.930 . S
H961 C970 0.930 . S
H962 C975 0.929 . S
H963 C973 0.929 . S
H964 C968 0.929 . S
H965 C974 0.929 . S
C966 H960 0.930 . S
C966 C967 1.367 . S
C966 C974 1.378 . S
C967 C966 1.367 . S
C967 C975 1.433 . S
C968 H964 0.929 . S
C968 C970 1.378 . S
C968 C972 1.350 . S
C969 C972 1.463 . S
C969 C974 1.350 . S
C969 N977 1.427 . S
C970 H961 0.930 . S
C970 C968 1.378 . S
C970 C971 1.367 . S
C971 C970 1.367 . S
C971 C973 1.433 . S
C972 C968 1.350 . S
C972 C969 1.463 . S
C972 N976 1.427 . S
C973 H963 0.929 . S
C973 C971 1.433 . S
C973 N976 1.384 . S
C974 H965 0.929 . S
C974 C966 1.378 . S
C974 C969 1.350 . S
C975 H962 0.929 . S
C975 C967 1.433 . S
C975 N977 1.384 . S
N976 C972 1.427 . S
N976 C973 1.384 . S
N977 C969 1.427 . S
N977 C975 1.384 . S
H978 C984 0.930 . S
H979 C988 0.930 . S
H980 C993 0.929 . S
H981 C991 0.929 . S
H982 C986 0.929 . S
H983 C992 0.929 . S
C984 H978 0.930 . S
C984 C985 1.367 . S
C984 C992 1.378 . S
C985 C984 1.367 . S
C985 C993 1.433 . S
C986 H982 0.929 . S
C986 C988 1.378 . S
C986 C990 1.350 . S
C987 C990 1.463 . S
C987 C992 1.350 . S
C987 N995 1.427 . S
C988 H979 0.930 . S
C988 C986 1.378 . S
C988 C989 1.367 . S
C989 C988 1.367 . S
C989 C991 1.433 . S
C990 C986 1.350 . S
C990 C987 1.463 . S
C990 N994 1.427 . S
C991 H981 0.929 . S
C991 C989 1.433 . S
C991 N994 1.384 . S
C992 H983 0.929 . S
C992 C984 1.378 . S
C992 C987 1.350 . S
C993 H980 0.929 . S
C993 C985 1.433 . S
C993 N995 1.384 . S
N994 C990 1.427 . S
N994 C991 1.384 . S
N995 C987 1.427 . S
N995 C993 1.384 . S
C571 C361 1.365 . S
C575 C496 1.370 . S
C593 C504 1.368 . S
C589 C451 1.430 . S
C611 C508 1.350 . S
C607 C241 1.369 . S
C625 C331 1.417 . S
C629 C484 1.353 . S
C647 C525 1.371 . S
C643 C140 1.445 . S
C665 C559 1.378 . S
C661 C211 1.443 . S
C679 C20 1.433 . S
C683 C547 1.368 . S
C697 C91 1.433 . S
C701 C529 1.354 . S
C719 C483 1.291 . S
C715 C80 1.413 . S
C737 C517 1.305 . S
C733 C1 1.411 . S
C755 C521 1.304 . S
C751 C200 1.435 . S
C773 C499 1.292 . S
C769 C121 1.418 . S
C791 C538 1.290 . S
C787 C320 1.396 . S
C805 C260 1.461 . S
C809 C546 1.312 . S
C827 C562 1.294 . S
C823 C440 1.405 . S
C841 C380 1.461 . S
C845 C542 1.293 . S
C863 C487 1.303 . S
C859 C31 1.494 . S
C881 C505 1.309 . S
C877 C61 1.493 . S
C895 C151 1.470 . S
C899 C520 1.322 . S
C917 C500 1.296 . S
C913 C181 1.476 . S
C935 C526 1.300 . S
C931 C271 1.475 . S
C949 C301 1.470 . S
C953 C550 1.326 . S
C967 C391 1.469 . S
C971 C563 1.317 . S
C985 C421 1.458 . S
C989 C541 1.322 . S
