# Generated by pormake.
# Topology ssc, (4,4)-cn, num edge types: 1
# Building blocks:
#     Node 0, Type 0, BuildingBlock: CEKHIL_clean_sbu_0, # of connection points: 4
#     Node 1, Type 0, BuildingBlock: CEKHIL_clean_sbu_0, # of connection points: 4
#     Node 2, Type 0, BuildingBlock: CEKHIL_clean_sbu_0, # of connection points: 4
#     Node 3, Type 0, BuildingBlock: CEKHIL_clean_sbu_0, # of connection points: 4
#     Node 4, Type 0, BuildingBlock: CEKHIL_clean_sbu_0, # of connection points: 4
#     Node 5, Type 0, BuildingBlock: CEKHIL_clean_sbu_0, # of connection points: 4
#     Node 6, Type 0, BuildingBlock: CEKHIL_clean_sbu_0, # of connection points: 4
#     Node 7, Type 0, BuildingBlock: CEKHIL_clean_sbu_0, # of connection points: 4
#     Node 8, Type 0, BuildingBlock: CEKHIL_clean_sbu_0, # of connection points: 4
#     Node 9, Type 0, BuildingBlock: CEKHIL_clean_sbu_0, # of connection points: 4
#     Node 10, Type 0, BuildingBlock: CEKHIL_clean_sbu_0, # of connection points: 4
#     Node 11, Type 0, BuildingBlock: CEKHIL_clean_sbu_0, # of connection points: 4
#     Node 12, Type 1, BuildingBlock: KUFVIS_clean_linker_0, # of connection points: 4
#     Node 13, Type 1, BuildingBlock: KUFVIS_clean_linker_0, # of connection points: 4
#     Node 14, Type 1, BuildingBlock: KUFVIS_clean_linker_0, # of connection points: 4
#     Node 15, Type 1, BuildingBlock: KUFVIS_clean_linker_0, # of connection points: 4
#     Node 16, Type 1, BuildingBlock: KUFVIS_clean_linker_0, # of connection points: 4
#     Node 17, Type 1, BuildingBlock: KUFVIS_clean_linker_0, # of connection points: 4
#     Node 18, Type 1, BuildingBlock: KUFVIS_clean_linker_0, # of connection points: 4
#     Node 19, Type 1, BuildingBlock: KUFVIS_clean_linker_0, # of connection points: 4
#     Node 20, Type 1, BuildingBlock: KUFVIS_clean_linker_0, # of connection points: 4
#     Node 21, Type 1, BuildingBlock: KUFVIS_clean_linker_0, # of connection points: 4
#     Node 22, Type 1, BuildingBlock: KUFVIS_clean_linker_0, # of connection points: 4
#     Node 23, Type 1, BuildingBlock: KUFVIS_clean_linker_0, # of connection points: 4
#     Edge 24, Type (0, 1), BuildingBlock: AJUNOK_clean_linker_0, # of connection points: 2
#     Edge 25, Type (0, 1), BuildingBlock: AJUNOK_clean_linker_0, # of connection points: 2
#     Edge 26, Type (0, 1), BuildingBlock: AJUNOK_clean_linker_0, # of connection points: 2
#     Edge 27, Type (0, 1), BuildingBlock: AJUNOK_clean_linker_0, # of connection points: 2
#     Edge 28, Type (0, 1), BuildingBlock: AJUNOK_clean_linker_0, # of connection points: 2
#     Edge 29, Type (0, 1), BuildingBlock: AJUNOK_clean_linker_0, # of connection points: 2
#     Edge 30, Type (0, 1), BuildingBlock: AJUNOK_clean_linker_0, # of connection points: 2
#     Edge 31, Type (0, 1), BuildingBlock: AJUNOK_clean_linker_0, # of connection points: 2
#     Edge 32, Type (0, 1), BuildingBlock: AJUNOK_clean_linker_0, # of connection points: 2
#     Edge 33, Type (0, 1), BuildingBlock: AJUNOK_clean_linker_0, # of connection points: 2
#     Edge 34, Type (0, 1), BuildingBlock: AJUNOK_clean_linker_0, # of connection points: 2
#     Edge 35, Type (0, 1), BuildingBlock: AJUNOK_clean_linker_0, # of connection points: 2
#     Edge 36, Type (0, 1), BuildingBlock: AJUNOK_clean_linker_0, # of connection points: 2
#     Edge 37, Type (0, 1), BuildingBlock: AJUNOK_clean_linker_0, # of connection points: 2
#     Edge 38, Type (0, 1), BuildingBlock: AJUNOK_clean_linker_0, # of connection points: 2
#     Edge 39, Type (0, 1), BuildingBlock: AJUNOK_clean_linker_0, # of connection points: 2
#     Edge 40, Type (0, 1), BuildingBlock: AJUNOK_clean_linker_0, # of connection points: 2
#     Edge 41, Type (0, 1), BuildingBlock: AJUNOK_clean_linker_0, # of connection points: 2
#     Edge 42, Type (0, 1), BuildingBlock: AJUNOK_clean_linker_0, # of connection points: 2
#     Edge 43, Type (0, 1), BuildingBlock: AJUNOK_clean_linker_0, # of connection points: 2
#     Edge 44, Type (0, 1), BuildingBlock: AJUNOK_clean_linker_0, # of connection points: 2
#     Edge 45, Type (0, 1), BuildingBlock: AJUNOK_clean_linker_0, # of connection points: 2
#     Edge 46, Type (0, 1), BuildingBlock: AJUNOK_clean_linker_0, # of connection points: 2
#     Edge 47, Type (0, 1), BuildingBlock: AJUNOK_clean_linker_0, # of connection points: 2
#     Edge 48, Type (0, 1), BuildingBlock: AJUNOK_clean_linker_0, # of connection points: 2
#     Edge 49, Type (0, 1), BuildingBlock: AJUNOK_clean_linker_0, # of connection points: 2
#     Edge 50, Type (0, 1), BuildingBlock: AJUNOK_clean_linker_0, # of connection points: 2
#     Edge 51, Type (0, 1), BuildingBlock: AJUNOK_clean_linker_0, # of connection points: 2
#     Edge 52, Type (0, 1), BuildingBlock: AJUNOK_clean_linker_0, # of connection points: 2
#     Edge 53, Type (0, 1), BuildingBlock: AJUNOK_clean_linker_0, # of connection points: 2
#     Edge 54, Type (0, 1), BuildingBlock: AJUNOK_clean_linker_0, # of connection points: 2
#     Edge 55, Type (0, 1), BuildingBlock: AJUNOK_clean_linker_0, # of connection points: 2
#     Edge 56, Type (0, 1), BuildingBlock: AJUNOK_clean_linker_0, # of connection points: 2
#     Edge 57, Type (0, 1), BuildingBlock: AJUNOK_clean_linker_0, # of connection points: 2
#     Edge 58, Type (0, 1), BuildingBlock: AJUNOK_clean_linker_0, # of connection points: 2
#     Edge 59, Type (0, 1), BuildingBlock: AJUNOK_clean_linker_0, # of connection points: 2
#     Edge 60, Type (0, 1), BuildingBlock: AJUNOK_clean_linker_0, # of connection points: 2
#     Edge 61, Type (0, 1), BuildingBlock: AJUNOK_clean_linker_0, # of connection points: 2
#     Edge 62, Type (0, 1), BuildingBlock: AJUNOK_clean_linker_0, # of connection points: 2
#     Edge 63, Type (0, 1), BuildingBlock: AJUNOK_clean_linker_0, # of connection points: 2
#     Edge 64, Type (0, 1), BuildingBlock: AJUNOK_clean_linker_0, # of connection points: 2
#     Edge 65, Type (0, 1), BuildingBlock: AJUNOK_clean_linker_0, # of connection points: 2
#     Edge 66, Type (0, 1), BuildingBlock: AJUNOK_clean_linker_0, # of connection points: 2
#     Edge 67, Type (0, 1), BuildingBlock: AJUNOK_clean_linker_0, # of connection points: 2
#     Edge 68, Type (0, 1), BuildingBlock: AJUNOK_clean_linker_0, # of connection points: 2
#     Edge 69, Type (0, 1), BuildingBlock: AJUNOK_clean_linker_0, # of connection points: 2
#     Edge 70, Type (0, 1), BuildingBlock: AJUNOK_clean_linker_0, # of connection points: 2
#     Edge 71, Type (0, 1), BuildingBlock: AJUNOK_clean_linker_0, # of connection points: 2
# Relax obj value: 0.121
# Max RMSD: 0.313
# Mean RMSD: 0.273
data_MOF--net-ssc--node1-CEKHIL_clean_sbu_0--node2-KUFVIS_clean_linker_0--edge1-AJUNOK_clean_linker_0
_symmetry_space_group_name_H-M    P1
_symmetry_Int_Tables_number       1
_symmetry_cell_setting            triclinic
loop_
_symmetry_equiv_pos_as_xyz
'x, y, z'
_cell_length_a     23.171361
_cell_length_b     23.321787
_cell_length_c     22.93526
_cell_angle_alpha  89.874906
_cell_angle_beta   89.460408
_cell_angle_gamma 92.187979
loop_
_atom_site_label
_atom_site_type_symbol
_atom_site_fract_x
_atom_site_fract_y
_atom_site_fract_z
_atom_type_partial_charge
Co0 Co 0.98049 0.23864 0.12303 0.0
O1 O 0.02327 0.2647 0.0548 0.0
O2 O 0.93034 0.27725 0.06885 0.0
C3 C 0.04512 0.27181 0.18909 0.0
O4 O 0.9224 0.21816 0.18993 0.0
Co5 Co 0.03032 0.14482 0.1989 0.0
O6 O 0.96957 0.16609 0.25571 0.0
C7 C 0.98293 0.1137 0.08531 0.0
C8 C 0.97549 0.28355 0.03498 0.0
C9 C 0.92594 0.19402 0.24063 0.0
O10 O 0.96346 0.16419 0.08243 0.0
O11 O 0.01461 0.09689 0.12691 0.0
O12 O 0.00717 0.30487 0.16683 0.0
O13 O 0.04696 0.22099 0.16641 0.0
Co14 Co 0.04467 0.76398 0.43293 0.0
O15 O 0.09332 0.73 0.49058 0.0
O16 O -0.00244 0.72336 0.49068 0.0
C17 C 0.09414 0.73885 0.35263 0.0
O18 O 0.97854 0.78651 0.38092 0.0
Co19 Co 0.08468 0.86497 0.3542 0.0
O20 O 0.00966 0.85112 0.31408 0.0
C21 C 0.07183 0.88378 0.47867 0.0
C22 C 0.04557 0.71114 0.51553 0.0
C23 C 0.97093 0.81665 0.33494 0.0
O24 O 0.0429 0.83565 0.48119 0.0
O25 O 0.09661 0.90256 0.43212 0.0
O26 O 0.05884 0.70263 0.37873 0.0
O27 O 0.10283 0.78748 0.37874 0.0
Co28 Co 0.52836 0.80614 0.66435 0.0
O29 O 0.57731 0.84244 0.60481 0.0
O30 O 0.4891 0.86754 0.62324 0.0
C31 C 0.59155 0.80252 0.73804 0.0
O32 O 0.46833 0.77945 0.72739 0.0
Co33 Co 0.56292 0.68516 0.70529 0.0
O34 O 0.50962 0.70413 0.76984 0.0
C35 C 0.51416 0.69674 0.59063 0.0
C36 C 0.53582 0.87528 0.59168 0.0
C37 C 0.47277 0.74342 0.77027 0.0
O38 O 0.49785 0.74727 0.60489 0.0
O39 O 0.54756 0.66779 0.62185 0.0
O40 O 0.56608 0.85028 0.72768 0.0
O41 O 0.58614 0.76457 0.69784 0.0
Co42 Co 0.49668 0.28987 0.88994 0.0
O43 O 0.55146 0.28361 0.95156 0.0
O44 O 0.47143 0.23058 0.94839 0.0
C45 C 0.56016 0.29123 0.81541 0.0
O46 O 0.43302 0.28566 0.82685 0.0
Co47 Co 0.50308 0.40359 0.82035 0.0
O48 O 0.44413 0.36523 0.77047 0.0
C49 C 0.46718 0.40335 0.94228 0.0
C50 C 0.51866 0.24467 0.97648 0.0
C51 C 0.41959 0.31669 0.78214 0.0
O52 O 0.4566 0.34923 0.93763 0.0
O53 O 0.49257 0.43294 0.90208 0.0
O54 O 0.5422 0.24287 0.83868 0.0
O55 O 0.54597 0.337 0.84296 0.0
Co56 Co 0.13815 0.9635 0.28417 0.0
O57 O 0.20835 0.94453 0.24448 0.0
O58 O 0.18604 0.91822 0.33498 0.0
C59 C 0.07897 0.94157 0.20962 0.0
O60 O 0.06891 0.97609 0.33922 0.0
Co61 Co 0.06714 0.06415 0.23527 0.0
O62 O 0.01699 0.048 0.30343 0.0
C63 C 0.16778 0.08791 0.3102 0.0
C64 C 0.22285 0.91856 0.29178 0.0
C65 C 0.02671 0.0107 0.34231 0.0
O66 O 0.17644 0.03439 0.31471 0.0
O67 O 0.12825 0.10906 0.27911 0.0
O68 O 0.09653 0.90215 0.24423 0.0
O69 O 0.10182 -0.00776 0.21726 0.0
Co70 Co 0.27006 0.88884 0.56962 0.0
O71 O 0.23764 0.93381 0.63077 0.0
O72 O 0.20737 0.933 0.53959 0.0
C73 C 0.27718 0.80432 0.61969 0.0
O74 O 0.29163 0.84695 0.49539 0.0
Co75 Co 0.3937 0.84988 0.58416 0.0
O76 O 0.37833 0.80952 0.50952 0.0
C77 C 0.37585 0.96988 0.55871 0.0
C78 C 0.20408 0.95439 0.59183 0.0
C79 C 0.33421 0.81738 0.47812 0.0
O80 O 0.32326 0.95583 0.54764 0.0
O81 O 0.41064 0.93522 0.58092 0.0
O82 O 0.22878 0.8187 0.59648 0.0
O83 O 0.3172 0.84456 0.61908 0.0
Co84 Co 0.39252 0.06131 0.80744 0.0
O85 O 0.3386 0.11557 0.77988 0.0
O86 O 0.3462 0.09274 0.87238 0.0
C87 C 0.47042 0.09225 0.75667 0.0
O88 O 0.45195 0.00834 0.84844 0.0
Co89 Co 0.4334 0.97462 0.71606 0.0
O90 O 0.49648 0.96568 0.77309 0.0
C91 C 0.31365 0.96704 0.75384 0.0
C92 C 0.32004 0.12204 0.83263 0.0
C93 C 0.49581 0.98162 0.82628 0.0
O94 O 0.32978 -0.00109 0.797 0.0
O95 O 0.34845 0.95375 0.71291 0.0
O96 O 0.45557 0.11865 0.80411 0.0
O97 O 0.4321 0.05566 0.73671 0.0
Co98 Co 0.2838 0.12189 0.05731 0.0
O99 O 0.33424 0.06576 0.08852 0.0
O100 O 0.32785 0.08555 0.99482 0.0
C101 C 0.30285 0.19526 0.11995 0.0
O102 O 0.23928 0.18018 0.01054 0.0
Co103 Co 0.17876 0.15358 0.12909 0.0
O104 O 0.17613 0.21814 0.07295 0.0
C105 C 0.17697 0.04078 0.07707 0.0
C106 C 0.35034 0.05481 0.03557 0.0
C107 C 0.20499 0.22011 0.02537 0.0
O108 O 0.22284 0.05794 0.04941 0.0
O109 O 0.15178 0.07201 0.1144 0.0
O110 O 0.33577 0.18641 0.07525 0.0
O111 O 0.26351 0.15512 0.1303 0.0
Co112 Co 0.74115 0.39063 0.0185 0.0
O113 O 0.71826 0.4498 0.07037 0.0
O114 O 0.67439 0.42712 0.98741 0.0
C115 C 0.75576 0.32046 0.08537 0.0
O116 O 0.75257 0.33112 0.9548 0.0
Co117 Co 0.86715 0.35831 0.02331 0.0
O118 O 0.84713 0.31312 0.95247 0.0
C119 C 0.84027 0.47286 0.98878 0.0
C120 C 0.67969 0.46153 0.0318 0.0
C121 C 0.79613 0.30581 0.93291 0.0
O122 O 0.79078 0.45035 0.97576 0.0
O123 O 0.878 0.44399 0.0149 0.0
O124 O 0.70413 0.3305 0.0673 0.0
O125 O 0.79535 0.35797 0.06867 0.0
Co126 Co 0.84984 0.48522 0.27774 0.0
O127 O 0.78754 0.51304 0.2309 0.0
O128 O 0.80045 0.53398 0.32396 0.0
C129 C 0.92416 0.50176 0.21262 0.0
O130 O 0.90924 0.46734 0.34034 0.0
Co131 Co 0.9089 0.3764 0.24314 0.0
O132 O 0.94975 0.38453 0.31845 0.0
C133 C 0.78842 0.3703 0.27331 0.0
C134 C 0.76907 0.53819 0.27758 0.0
C135 C 0.94432 0.42731 0.35179 0.0
O136 O 0.79838 0.41747 0.30043 0.0
O137 O 0.82608 0.34784 0.24052 0.0
O138 O 0.90458 0.54225 0.24521 0.0
O139 O 0.89375 0.45385 0.2148 0.0
Co140 Co 0.78939 0.61523 0.50535 0.0
O141 O 0.81982 0.56154 0.55904 0.0
O142 O 0.84038 0.56117 0.4653 0.0
C143 C 0.81026 0.69382 0.55844 0.0
O144 O 0.76425 0.66899 0.43906 0.0
Co145 Co 0.68204 0.67924 0.55201 0.0
O146 O 0.686 0.71426 0.47324 0.0
C147 C 0.66787 0.56022 0.51704 0.0
C148 C 0.84949 0.5401 0.51702 0.0
C149 C 0.72325 0.70501 0.43351 0.0
O150 O 0.71909 0.56346 0.49466 0.0
O151 O 0.64669 0.60009 0.54771 0.0
O152 O 0.84974 0.67188 0.52589 0.0
O153 O 0.76254 0.6637 0.5634 0.0
Co154 Co 0.63279 0.49891 0.73711 0.0
O155 O 0.69262 0.46517 0.69323 0.0
O156 O 0.6795 0.45332 0.78832 0.0
C157 C 0.56291 0.47528 0.67288 0.0
O158 O 0.57072 0.52455 0.79653 0.0
Co159 Co 0.57851 0.60169 0.68864 0.0
O160 O 0.51586 0.58391 0.74636 0.0
C161 C 0.69961 0.61119 0.717 0.0
C162 C 0.70899 0.44208 0.7413 0.0
C163 C 0.52389 0.55241 0.7907 0.0
O164 O 0.68744 0.56757 0.74995 0.0
O165 O 0.66137 0.6321 0.68425 0.0
O166 O 0.57821 0.43905 0.71234 0.0
O167 O 0.59376 0.52266 0.66955 0.0
H168 H 0.9106 0.42218 0.68205 0.0
H169 H 0.94641 0.25669 0.74786 0.0
H170 H 0.05129 0.33104 0.60744 0.0
H171 H 0.03655 0.1942 0.62022 0.0
H172 H 0.15745 0.12933 0.74265 0.0
H173 H 0.08033 0.28945 0.77571 0.0
C174 C 0.93896 0.38603 0.68209 0.0
C175 C 0.97964 0.38133 0.63769 0.0
C176 C 0.92288 0.33998 0.71723 0.0
C177 C 0.95801 0.29236 0.71923 0.0
C178 C 0.00846 0.29124 0.68379 0.0
C179 C 0.01652 0.33389 0.63905 0.0
C180 C 0.05218 0.24705 0.69694 0.0
C181 C 0.05996 0.19866 0.66073 0.0
C182 C 0.09721 0.15533 0.67846 0.0
C183 C 0.12613 0.16082 0.73134 0.0
C184 C 0.12027 0.20791 0.7676 0.0
C185 C 0.08378 0.25159 0.74966 0.0
H186 H 0.82128 0.68761 0.85763 0.0
H187 H 0.9734 0.73168 0.95412 0.0
H188 H 0.96058 0.7768 0.7716 0.0
H189 H 0.05698 0.79666 0.78327 0.0
H190 H 0.17454 0.88054 0.90162 0.0
H191 H 0.00524 0.82849 0.96084 0.0
C192 C 0.86224 0.71068 0.86178 0.0
C193 C 0.88795 0.7295 0.80993 0.0
C194 C 0.89468 0.70467 0.91197 0.0
C195 C 0.94816 0.73507 0.91482 0.0
C196 C 0.97086 0.76639 0.86598 0.0
C197 C 0.9419 0.75966 0.81165 0.0
C198 C 0.02632 0.80157 0.87299 0.0
C199 C 0.06657 0.81139 0.82671 0.0
C200 C 0.11916 0.84196 0.83707 0.0
C201 C 0.13374 0.85727 0.89403 0.0
C202 C 0.09241 0.85507 0.93824 0.0
C203 C 0.03838 0.82795 0.92746 0.0
H204 H 0.41569 0.9267 0.17093 0.0
H205 H 0.46349 0.76983 0.24824 0.0
H206 H 0.50697 0.80578 0.06835 0.0
H207 H 0.52026 0.71221 0.06388 0.0
H208 H 0.56205 0.56324 0.16098 0.0
H209 H 0.54848 0.72334 0.24903 0.0
C210 C 0.4399 0.88774 0.16872 0.0
C211 C 0.46162 0.87052 0.11489 0.0
C212 C 0.43924 0.85114 0.21658 0.0
C213 C 0.46798 0.79945 0.2125 0.0
C214 C 0.49492 0.78209 0.16028 0.0
C215 C 0.49016 0.81815 0.11039 0.0
C216 C 0.52045 0.72329 0.15846 0.0
C217 C 0.52645 0.69228 0.10584 0.0
C218 C 0.54344 0.63505 0.10748 0.0
C219 C 0.54846 0.60735 0.16124 0.0
C220 C 0.55927 0.64034 0.21065 0.0
C221 C 0.54163 0.69772 0.21025 0.0
H222 H 0.32815 0.1704 0.49185 0.0
H223 H 0.5022 0.22616 0.44993 0.0
H224 H 0.35981 0.2963 0.35868 0.0
H225 H 0.51279 0.25617 0.31583 0.0
H226 H 0.58222 0.43015 0.3186 0.0
H227 H 0.45376 0.37764 0.44091 0.0
C228 C 0.35772 0.20109 0.47041 0.0
C229 C 0.33749 0.23217 0.42354 0.0
C230 C 0.41704 0.19488 0.477 0.0
C231 C 0.45609 0.23059 0.44514 0.0
C232 C 0.43481 0.27081 0.40557 0.0
C233 C 0.37553 0.27041 0.39389 0.0
C234 C 0.47373 0.31397 0.37723 0.0
C235 C 0.51179 0.29992 0.33152 0.0
C236 C 0.55123 0.34234 0.30924 0.0
C237 C 0.54992 0.39797 0.33218 0.0
C238 C 0.52294 0.40668 0.38545 0.0
C239 C 0.47898 0.3682 0.40306 0.0
H240 H 0.61027 0.87507 0.38958 0.0
H241 H 0.70719 0.94085 0.24259 0.0
H242 H 0.58803 0.04898 0.33461 0.0
H243 H 0.5707 0.07428 0.22161 0.0
H244 H 0.69074 0.10443 0.08009 0.0
H245 H 0.75263 0.04736 0.2404 0.0
C246 C 0.61932 0.90952 0.35832 0.0
C247 C 0.59449 0.96195 0.36745 0.0
C248 C 0.66091 0.90175 0.31553 0.0
C249 C 0.67504 0.94724 0.27632 0.0
C250 C 0.64647 0.00043 0.28 0.0
C251 C 0.60715 0.00787 0.32769 0.0
C252 C 0.65866 0.04641 0.23358 0.0
C253 C 0.61396 0.075 0.20359 0.0
C254 C 0.62761 0.10327 0.14941 0.0
C255 C 0.68149 0.092 0.12491 0.0
C256 C 0.7271 0.09273 0.16336 0.0
C257 C 0.71645 0.0617 0.21584 0.0
H258 H 0.15526 0.46426 0.34941 0.0
H259 H 0.19212 0.41759 0.52524 0.0
H260 H 0.26686 0.32793 0.38214 0.0
H261 H 0.23111 0.30168 0.54818 0.0
H262 H 0.40968 0.30478 0.59794 0.0
H263 H 0.35323 0.42276 0.46971 0.0
C264 C 0.17819 0.43806 0.37986 0.0
C265 C 0.1988 0.38572 0.36058 0.0
C266 C 0.16365 0.44124 0.439 0.0
C267 C 0.19955 0.41367 0.47873 0.0
C268 C 0.24362 0.379 0.45704 0.0
C269 C 0.24023 0.36155 0.39756 0.0
C270 C 0.28897 0.35772 0.49686 0.0
C271 C 0.27549 0.31644 0.54088 0.0
C272 C 0.31927 0.29727 0.57794 0.0
C273 C 0.37613 0.31783 0.56855 0.0
C274 C 0.38764 0.36622 0.53451 0.0
C275 C 0.34449 0.38522 0.4968 0.0
H276 H 0.8316 0.09213 0.92273 0.0
H277 H 0.8159 0.08346 0.7375 0.0
H278 H 0.93045 0.9725 0.82624 0.0
H279 H 0.964 0.04055 0.7094 0.0
H280 H 0.91867 0.92096 0.57414 0.0
H281 H 0.81325 0.92802 0.72803 0.0
C282 C 0.84038 0.0704 0.88216 0.0
C283 C 0.88309 0.02997 0.88073 0.0
C284 C 0.81736 0.09157 0.83113 0.0
C285 C 0.83137 0.06605 0.77787 0.0
C286 C 0.86885 0.02003 0.77668 0.0
C287 C 0.89702 0.00376 0.82787 0.0
C288 C 0.88255 -0.00711 0.72095 0.0
C289 C 0.93339 0.00974 0.69052 0.0
C290 C 0.94615 0.98335 0.63754 0.0
C291 C 0.90711 0.9429 0.61411 0.0
C292 C 0.86252 0.91935 0.64841 0.0
C293 C 0.84822 0.94587 0.70109 0.0
H294 H 0.34652 0.64648 0.85496 0.0
H295 H 0.27582 0.53651 0.99023 0.0
H296 H 0.27308 0.72106 0.00597 0.0
H297 H 0.25181 0.68834 0.10174 0.0
H298 H 0.07044 0.66314 0.12983 0.0
H299 H 0.1583 0.55214 0.0116 0.0
C300 C 0.32201 0.64077 0.89536 0.0
C301 C 0.31664 0.68837 0.93116 0.0
C302 C 0.31941 0.5868 0.92105 0.0
C303 C 0.28314 0.57887 0.97157 0.0
C304 C 0.25803 0.62796 0.99819 0.0
C305 C 0.2816 0.68284 0.98111 0.0
C306 C 0.21003 0.62566 0.04406 0.0
C307 C 0.2116 0.66623 0.09012 0.0
C308 C 0.16089 0.67843 0.12106 0.0
C309 C 0.10891 0.65266 0.10499 0.0
C310 C 0.10862 0.6023 0.07315 0.0
C311 C 0.15914 0.58905 0.04017 0.0
H312 H 0.68848 0.85623 0.86125 0.0
H313 H 0.72842 0.93769 0.0238 0.0
H314 H 0.72941 0.75389 0.00773 0.0
H315 H 0.74723 0.79671 0.12957 0.0
H316 H 0.93108 0.77781 0.12409 0.0
H317 H 0.85551 0.89146 0.00647 0.0
C318 C 0.70274 0.85455 0.90595 0.0
C319 C 0.70153 0.80082 0.9326 0.0
C320 C 0.69989 0.90322 0.94053 0.0
C321 C 0.72481 0.8999 0.99686 0.0
C322 C 0.74484 0.84605 0.01723 0.0
C323 C 0.7246 0.79584 0.98845 0.0
C324 C 0.79384 0.8405 0.05881 0.0
C325 C 0.78917 0.80637 0.11009 0.0
C326 C 0.84005 0.78591 0.1358 0.0
C327 C 0.89206 0.79428 0.10547 0.0
C328 C 0.89854 0.84312 0.07145 0.0
C329 C 0.84956 0.86227 0.0426 0.0
H330 H 0.33028 0.6348 0.44323 0.0
H331 H 0.33706 0.60298 0.2591 0.0
H332 H 0.43554 0.50283 0.37642 0.0
H333 H 0.43028 0.55417 0.20529 0.0
H334 H 0.42381 0.3754 0.16001 0.0
H335 H 0.33859 0.42937 0.31541 0.0
C336 C 0.34271 0.60747 0.40719 0.0
C337 C 0.3876 0.57078 0.41584 0.0
C338 C 0.33142 0.6256 0.35064 0.0
C339 C 0.34748 0.59082 0.30326 0.0
C340 C 0.37839 0.54071 0.31431 0.0
C341 C 0.40311 0.53429 0.36995 0.0
C342 C 0.38813 0.49652 0.26878 0.0
C343 C 0.41754 0.51014 0.21573 0.0
C344 C 0.43077 0.46572 0.1768 0.0
C345 C 0.41535 0.40921 0.19126 0.0
C346 C 0.37955 0.39601 0.23839 0.0
C347 C 0.36662 0.43941 0.27837 0.0
H348 H 0.83617 0.05112 0.39686 0.0
H349 H 0.8419 0.06174 0.58212 0.0
H350 H 0.74596 0.18372 0.485 0.0
H351 H 0.74361 0.22674 0.57825 0.0
H352 H 0.71562 0.17296 0.75512 0.0
H353 H 0.73567 0.04832 0.62512 0.0
C354 C 0.8193 0.06946 0.43675 0.0
C355 C 0.7919 0.12172 0.43397 0.0
C356 C 0.84402 0.05265 0.4888 0.0
C357 C 0.82363 0.07546 0.54128 0.0
C358 C 0.78222 0.11865 0.54063 0.0
C359 C 0.77035 0.14512 0.48646 0.0
C360 C 0.75538 0.13628 0.5972 0.0
C361 C 0.7425 0.19383 0.61141 0.0
C362 C 0.72668 0.20685 0.66978 0.0
C363 C 0.72714 0.16277 0.71068 0.0
C364 C 0.71181 0.1085 0.69064 0.0
C365 C 0.73676 0.09301 0.63734 0.0
H366 H 0.10983 0.32335 0.8663 0.0
H367 H 0.20981 0.48124 0.85852 0.0
H368 H 0.03193 0.47304 0.80468 0.0
H369 H 0.04389 0.55428 0.7667 0.0
H370 H 0.15296 0.69987 0.73048 0.0
H371 H 0.22647 0.53974 0.77287 0.0
C372 C 0.1146 0.36733 0.85058 0.0
C373 C 0.06469 0.396 0.83834 0.0
C374 C 0.16379 0.39914 0.86723 0.0
C375 C 0.17124 0.45645 0.84684 0.0
C376 C 0.12627 0.48233 0.81479 0.0
C377 C 0.07111 0.45237 0.81594 0.0
C378 C 0.13452 0.54231 0.78781 0.0
C379 C 0.08679 0.57347 0.76844 0.0
C380 C 0.09511 0.62799 0.74271 0.0
C381 C 0.14819 0.65664 0.74828 0.0
C382 C 0.19716 0.62413 0.75228 0.0
C383 C 0.19027 0.56661 0.77282 0.0
C384 C 0.97403 0.29047 0.9255 0.0
C385 C 0.97609 0.31738 0.9803 0.0
C386 C 0.99263 0.32018 0.87455 0.0
C387 C 0.01479 0.37747 0.87685 0.0
H388 H 0.9626 0.24508 0.92265 0.0
H389 H -0.00344 0.29595 0.83479 0.0
S390 S 0.03189 0.46332 0.01011 0.0
N391 N 0.00196 0.40265 0.03387 0.0
N392 N 0.03484 0.45917 0.93871 0.0
C393 C 0.01105 0.40577 0.93071 0.0
C394 C 0.99333 0.37522 0.98244 0.0
C395 C 0.88186 0.84057 0.28011 0.0
C396 C 0.92193 0.80042 0.29713 0.0
C397 C 0.84352 0.8289 0.23411 0.0
C398 C 0.84865 0.77942 0.19965 0.0
H399 H 0.8827 0.88259 0.29997 0.0
H400 H 0.81544 0.86235 0.22046 0.0
S401 S 0.948 0.66194 0.22629 0.0
N402 N 0.96188 0.70784 0.27923 0.0
N403 N 0.89411 0.68795 0.18926 0.0
C404 C 0.88512 0.73675 0.21976 0.0
C405 C 0.92194 0.74754 0.26834 0.0
C406 C 0.50534 0.65853 0.48879 0.0
C407 C 0.48301 0.66365 0.54557 0.0
C408 C 0.4778 0.62176 0.44812 0.0
C409 C 0.42734 0.58898 0.46315 0.0
H410 H 0.54395 0.68312 0.47573 0.0
H411 H 0.49422 0.62136 0.40375 0.0
S412 S 0.35628 0.58412 0.60819 0.0
N413 N 0.4116 0.62978 0.61649 0.0
N414 N 0.35826 0.56301 0.53955 0.0
C415 C 0.40658 0.59236 0.52065 0.0
C416 C 0.43471 0.62922 0.56186 0.0
C417 C 0.66054 0.30085 0.77957 0.0
C418 C 0.60204 0.29183 0.76694 0.0
C419 C 0.70302 0.28113 0.74166 0.0
C420 C 0.68919 0.254 0.6883 0.0
H421 H 0.6735 0.3167 0.82207 0.0
H422 H 0.74653 0.27973 0.75813 0.0
S423 S 0.54051 0.22225 0.63574 0.0
N424 N 0.53115 0.2558 0.69815 0.0
N425 N 0.61114 0.22122 0.62512 0.0
C426 C 0.63039 0.24994 0.67306 0.0
C427 C 0.58687 0.26809 0.7129 0.0
C428 C 0.0275 0.71267 0.6225 0.0
C429 C 0.04594 0.68299 0.57299 0.0
C430 C 0.03885 0.69266 0.67895 0.0
C431 C 0.06692 0.64099 0.68704 0.0
H432 H 0.00697 0.7531 0.61721 0.0
H433 H 0.02833 0.71879 0.71614 0.0
S434 S 0.10577 0.53822 0.57117 0.0
N435 N 0.08167 0.59405 0.53565 0.0
N436 N 0.10306 0.55549 0.64083 0.0
C437 C 0.08042 0.60834 0.6375 0.0
C438 C 0.06926 0.6292 0.5806 0.0
C439 C 0.65733 0.74779 0.79995 0.0
C440 C 0.61149 0.78513 0.79646 0.0
C441 C 0.68261 0.73484 0.85342 0.0
C442 C 0.66133 0.7585 0.90516 0.0
H443 H 0.67587 0.73192 0.76071 0.0
H444 H 0.72415 0.71534 0.85272 0.0
S445 S 0.52299 0.82999 0.92282 0.0
N446 N 0.53486 0.82974 0.85159 0.0
N447 N 0.57577 0.79435 0.95202 0.0
C448 C 0.60472 0.77859 0.9032 0.0
C449 C 0.58279 0.79817 0.84882 0.0
C450 C 0.41561 0.4629 0.01648 0.0
C451 C 0.46182 0.42877 0.00071 0.0
C452 C 0.4111 0.48548 0.07322 0.0
C453 C 0.45209 0.47337 0.11617 0.0
H454 H 0.38101 0.4691 0.98611 0.0
H455 H 0.37208 0.50694 0.08525 0.0
S456 S 0.57711 0.3809 0.09752 0.0
N457 N 0.54644 0.38058 0.033 0.0
N458 N 0.53963 0.42472 0.13812 0.0
C459 C 0.49956 0.44124 0.09946 0.0
C460 C 0.50296 0.41695 0.04278 0.0
C461 C 0.83672 0.14348 0.27817 0.0
C462 C 0.87579 0.1908 0.28164 0.0
C463 C 0.8003 0.12759 0.3254 0.0
C464 C 0.80431 0.1557 0.37953 0.0
H465 H 0.83825 0.11535 0.24076 0.0
H466 H 0.77464 0.08809 0.32296 0.0
S467 S 0.89264 0.28743 0.40876 0.0
N468 N 0.91024 0.27059 0.34108 0.0
N469 N 0.84437 0.2383 0.43085 0.0
C470 C 0.83946 0.20597 0.38192 0.0
C471 C 0.87519 0.22348 0.3331 0.0
C472 C 0.95642 0.96918 0.41761 0.0
C473 C 0.99161 0.01506 0.39609 0.0
C474 C 0.91346 0.97894 0.46013 0.0
C475 C 0.90401 0.03444 0.48111 0.0
H476 H 0.9592 0.9269 0.39871 0.0
H477 H 0.88388 0.9444 0.47298 0.0
S478 S 0.99363 0.16552 0.44839 0.0
N479 N 0.02114 0.11554 0.4068 0.0
N480 N 0.94062 0.13306 0.4857 0.0
C481 C 0.9443 0.07844 0.4657 0.0
C482 C 0.98738 0.06907 0.42263 0.0
C483 C 0.29926 0.74247 0.70786 0.0
C484 C 0.28215 0.74749 0.64927 0.0
C485 C 0.28014 0.69502 0.74236 0.0
C486 C 0.24766 0.64876 0.71812 0.0
H487 H 0.32259 0.77716 0.72893 0.0
H488 H 0.28485 0.69795 0.78914 0.0
S489 S 0.2212 0.6293 0.55977 0.0
N490 N 0.24867 0.69527 0.56466 0.0
N491 N 0.21938 0.60324 0.62699 0.0
C492 C 0.24308 0.64828 0.65677 0.0
C493 C 0.25878 0.69812 0.62283 0.0
C494 C 0.55349 0.9668 0.92002 0.0
C495 C 0.55169 0.97336 0.85918 0.0
C496 C 0.60494 0.95172 0.94899 0.0
C497 C 0.65798 0.94671 0.91915 0.0
H498 H 0.51337 0.96683 0.94404 0.0
H499 H 0.60207 0.93738 0.9937 0.0
S500 S 0.67962 0.96211 0.75982 0.0
N501 N 0.60977 0.9703 0.7698 0.0
N502 N 0.70661 0.95676 0.82569 0.0
C503 C 0.6582 0.96069 0.85933 0.0
C504 C 0.60523 0.9692 0.82896 0.0
C505 C 0.35676 0.24155 0.20295 0.0
C506 C 0.31497 0.24497 0.15903 0.0
C507 C 0.37253 0.2896 0.23706 0.0
C508 C 0.34505 0.34204 0.23071 0.0
H509 H 0.3789 0.20222 0.20983 0.0
H510 H 0.40968 0.28709 0.26495 0.0
S511 S 0.2287 0.37218 0.1269 0.0
N512 N 0.24531 0.30539 0.11299 0.0
N513 N 0.2705 0.39288 0.1813 0.0
C514 C 0.29965 0.34424 0.1908 0.0
C515 C 0.28628 0.29682 0.1534 0.0
C516 C 0.0464 0.88668 0.12334 0.0
C517 C 0.03521 0.92818 0.16548 0.0
C518 C 0.0029 0.86518 0.08649 0.0
C519 C 0.94569 0.88258 0.09213 0.0
H520 H 0.08849 0.86842 0.12112 0.0
H521 H 0.01281 0.82982 0.05821 0.0
S522 S 0.89177 0.97596 0.21074 0.0
N523 N 0.96259 0.9802 0.21699 0.0
N524 N 0.87914 0.93288 0.15483 0.0
C525 C 0.93367 0.92156 0.13735 0.0
C526 C 0.97878 0.94603 0.17232 0.0
C527 C 0.27671 0.7589 0.40699 0.0
C528 C 0.32979 0.78518 0.42275 0.0
C529 C 0.275 0.71085 0.3703 0.0
C530 C 0.32593 0.68846 0.34716 0.0
H531 H 0.23726 0.77016 0.42922 0.0
H532 H 0.23526 0.6857 0.36885 0.0
S533 S 0.47425 0.75075 0.36574 0.0
N534 N 0.43305 0.7928 0.40435 0.0
N535 N 0.42963 0.70322 0.33476 0.0
C536 C 0.37781 0.72111 0.35449 0.0
C537 C 0.37985 0.769 0.39306 0.0
C538 C 0.57486 0.09867 0.78073 0.0
C539 C 0.53171 0.09126 0.73871 0.0
C540 C 0.63317 0.09599 0.76538 0.0
C541 C 0.65141 0.08992 0.707 0.0
H542 H 0.56366 0.10521 0.82614 0.0
H543 H 0.66464 0.10078 0.79926 0.0
S544 S 0.55379 0.07536 0.58005 0.0
N545 N 0.51019 0.07565 0.63722 0.0
N546 N 0.61953 0.08144 0.60653 0.0
C547 C 0.60814 0.08297 0.66462 0.0
C548 C 0.54857 0.0814 0.68101 0.0
C549 C 0.15929 0.31288 0.00084 0.0
C550 C 0.20239 0.27346 0.9895 0.0
C551 C 0.15585 0.36337 0.96814 0.0
C552 C 0.19223 0.37476 0.91953 0.0
H553 H 0.12722 0.30451 0.03464 0.0
H554 H 0.11964 0.38978 0.97605 0.0
S555 S 0.32934 0.30408 0.89477 0.0
N556 N 0.29603 0.26282 0.94381 0.0
N557 N 0.28519 0.35527 0.87803 0.0
C558 C 0.24049 0.34099 0.91407 0.0
C559 C 0.24605 0.29065 0.94948 0.0
C560 C 0.35866 0.94955 0.02563 0.0
C561 C 0.38616 0.00433 0.02433 0.0
C562 C 0.38782 0.90119 0.04503 0.0
C563 C 0.44518 0.90648 0.06478 0.0
H564 H 0.31284 0.94525 0.01743 0.0
H565 H 0.36319 0.86134 0.05203 0.0
S566 S 0.54171 0.0348 0.04899 0.0
N567 N 0.47871 0.05629 0.02586 0.0
N568 N 0.53123 0.96755 0.06993 0.0
C569 C 0.47489 0.95906 0.05584 0.0
C570 C 0.44593 0.00753 0.03373 0.0
C571 C 0.91015 0.55676 0.97378 0.0
C572 C 0.85307 0.53442 0.97427 0.0
C573 C 0.92358 0.6144 0.96018 0.0
C574 C 0.88003 0.65332 0.94935 0.0
H575 H 0.94501 0.52882 0.9806 0.0
H576 H 0.96867 0.62717 0.95399 0.0
S577 S 0.72296 0.61792 0.94548 0.0
N578 N 0.75275 0.55582 0.95704 0.0
N579 N 0.77642 0.6664 0.94764 0.0
C580 C 0.82222 0.63267 0.95576 0.0
C581 C 0.80907 0.57277 0.9631 0.0
C582 C 0.66074 0.53808 0.2826 0.0
C583 C 0.71403 0.56871 0.27728 0.0
C584 C 0.60834 0.56379 0.26871 0.0
C585 C 0.60765 0.62089 0.24792 0.0
H586 H 0.66005 0.49308 0.29419 0.0
H587 H 0.56882 0.53739 0.26929 0.0
S588 S 0.73542 0.71858 0.22929 0.0
N589 N 0.76253 0.65948 0.25506 0.0
N590 N 0.6654 0.70638 0.22438 0.0
C591 C 0.6606 0.65221 0.24585 0.0
C592 C 0.71342 0.6265 0.26144 0.0
C593 C 0.5688 0.51969 0.49608 0.0
C594 C 0.62891 0.51274 0.4979 0.0
C595 C 0.53318 0.48346 0.462 0.0
C596 C 0.55686 0.43936 0.42942 0.0
H597 H 0.54966 0.55485 0.5188 0.0
H598 H 0.48758 0.49074 0.45998 0.0
S599 S 0.70727 0.38996 0.43867 0.0
N600 N 0.70735 0.44934 0.47755 0.0
N601 N 0.64066 0.38067 0.41474 0.0
C602 C 0.61529 0.42699 0.43824 0.0
C603 C 0.65129 0.46379 0.47239 0.0
C604 C 0.32913 0.92811 0.3046 0.0
C605 C 0.27977 0.89258 0.29488 0.0
C606 C 0.38428 0.91114 0.28697 0.0
C607 C 0.39144 0.85817 0.25904 0.0
H608 H 0.32429 0.97135 0.32055 0.0
H609 H 0.42039 0.94187 0.28924 0.0
S610 S 0.27725 0.7498 0.22589 0.0
N611 N 0.24249 0.80142 0.25855 0.0
N612 N 0.34581 0.76968 0.22599 0.0
C613 C 0.34324 0.82061 0.25422 0.0
C614 C 0.28734 0.83793 0.27161 0.0
C615 C 0.13449 0.00259 0.65637 0.0
C616 C 0.16884 0.00397 0.60604 0.0
C617 C 0.10322 0.05005 0.67337 0.0
C618 C 0.11004 0.10312 0.64442 0.0
H619 H 0.13106 0.96395 0.68231 0.0
H620 H 0.07622 0.04648 0.71206 0.0
S621 S 0.20847 0.13277 0.51967 0.0
N622 N 0.21308 0.06328 0.53043 0.0
N623 N 0.16108 0.15583 0.5675 0.0
C624 C 0.14652 0.10587 0.59517 0.0
C625 C 0.17507 0.05584 0.57533 0.0
C626 C 0.69011 0.38006 0.23659 0.0
C627 C 0.72808 0.34949 0.27096 0.0
C628 C 0.63059 0.3689 0.24034 0.0
C629 C 0.60653 0.32846 0.2802 0.0
H630 H 0.70625 0.41526 0.2093 0.0
H631 H 0.6032 0.39889 0.21959 0.0
S632 S 0.68865 0.23234 0.37436 0.0
N633 N 0.73888 0.27269 0.34074 0.0
N634 N 0.62633 0.25226 0.34863 0.0
C635 C 0.64463 0.29319 0.30976 0.0
C636 C 0.70563 0.30445 0.30586 0.0
C637 C 0.76734 0.69901 0.70873 0.0
C638 C 0.75837 0.64007 0.72103 0.0
C639 C 0.81594 0.73004 0.73036 0.0
C640 C 0.861 0.70204 0.75776 0.0
H641 H 0.73408 0.72252 0.68751 0.0
H642 H 0.81552 0.77643 0.73066 0.0
S643 S 0.8663 0.54551 0.78527 0.0
N644 N 0.80314 0.5535 0.75431 0.0
N645 N 0.89825 0.61002 0.78521 0.0
C646 C 0.85777 0.64136 0.75841 0.0
C647 C 0.80562 0.61073 0.74263 0.0
C648 C 0.50275 0.90813 0.49265 0.0
C649 C 0.54137 0.91444 0.53945 0.0
C650 C 0.51543 0.93249 0.43725 0.0
C651 C 0.56655 0.96586 0.42629 0.0
H652 H 0.46522 0.87952 0.497 0.0
H653 H 0.48807 0.91985 0.40107 0.0
S654 S 0.68346 -0.00704 0.53201 0.0
N655 N 0.63353 0.95638 0.57012 0.0
N656 N 0.65612 0.00254 0.46692 0.0
C657 C 0.60356 0.97539 0.4737 0.0
C658 C 0.59162 0.94924 0.52958 0.0
C659 C 0.38147 0.24631 0.70717 0.0
C660 C 0.37477 0.29655 0.74021 0.0
C661 C 0.34514 0.23408 0.65931 0.0
C662 C 0.30778 0.27551 0.63815 0.0
H663 H 0.41562 0.21753 0.71716 0.0
H664 H 0.35262 0.19706 0.63298 0.0
S665 S 0.25423 0.39582 0.72463 0.0
N666 N 0.31149 0.37513 0.76049 0.0
N667 N 0.2479 0.35295 0.66784 0.0
C668 C 0.2923 0.31793 0.67762 0.0
C669 C 0.32708 0.33005 0.72751 0.0
C670 C 0.99435 0.0851 0.98218 0.0
C671 C 0.96773 0.07513 0.03673 0.0
C672 C 0.97222 0.05974 0.93136 0.0
C673 C 0.91952 0.02789 0.93284 0.0
H674 H 0.03089 0.11521 0.97858 0.0
H675 H 0.99222 0.07156 0.88991 0.0
S676 S 0.82608 0.00123 0.06191 0.0
N677 N 0.88447 0.03452 0.0881 0.0
N678 N 0.83837 -0.00631 0.99161 0.0
C679 C 0.89257 0.01761 0.987 0.0
C680 C 0.91718 0.04047 0.03908 0.0
C681 C 0.11226 0.76448 0.24853 0.0
C682 C 0.11915 0.72626 0.29495 0.0
C683 C 0.13212 0.75214 0.19217 0.0
C684 C 0.16017 0.70101 0.1807 0.0
H685 H 0.08776 0.802 0.25514 0.0
H686 H 0.12232 0.78069 0.15669 0.0
S687 S 0.18483 0.58405 0.28623 0.0
N688 N 0.15241 0.63331 0.32481 0.0
N689 N 0.19153 0.61051 0.21959 0.0
C690 C 0.16732 0.66224 0.22688 0.0
C691 C 0.14611 0.67454 0.28378 0.0
C692 C 0.59855 0.22427 0.04345 0.0
C693 C 0.53983 0.21622 0.0308 0.0
C694 C 0.625 0.19137 0.08541 0.0
C695 C 0.59429 0.14921 0.11904 0.0
H696 H 0.62581 0.25386 0.01819 0.0
H697 H 0.67112 0.19693 0.08794 0.0
S698 S 0.43621 0.1356 0.12727 0.0
N699 N 0.4486 0.17818 0.07022 0.0
N700 N 0.49926 0.11953 0.15339 0.0
C701 C 0.53417 0.15021 0.11629 0.0
C702 C 0.50676 0.1822 0.07082 0.0
C703 C 0.06826 0.34162 0.26649 0.0
C704 C 0.08468 0.29413 0.23506 0.0
C705 C 0.10483 0.36905 0.30626 0.0
C706 C 0.16224 0.35238 0.31595 0.0
H707 H 0.02682 0.3591 0.2586 0.0
H708 H 0.08657 0.40492 0.32809 0.0
S709 S 0.22206 0.22283 0.24924 0.0
N710 N 0.15785 0.22534 0.22006 0.0
N711 N 0.23022 0.27883 0.29258 0.0
C712 C 0.17838 0.30244 0.28601 0.0
C713 C 0.13919 0.27319 0.2462 0.0
C714 C 0.05451 0.97961 0.52186 0.0
C715 C 0.06782 0.92185 0.52942 0.0
C716 C 0.02211 0.00755 0.56452 0.0
C717 C 0.0053 0.97872 0.61591 0.0
H718 H 0.06436 0.00104 0.4811 0.0
H719 H 0.00604 0.04946 0.5557 0.0
S720 S 0.06528 0.84453 0.6699 0.0
N721 N 0.08599 0.84807 0.60085 0.0
N722 N 0.02693 0.9015 0.6822 0.0
C723 C 0.03178 0.92734 0.6292 0.0
C724 C 0.06301 0.89849 0.58549 0.0
C725 C 0.45284 0.7127 0.87351 0.0
C726 C 0.43783 0.74714 0.8254 0.0
C727 C 0.41914 0.7105 0.9245 0.0
C728 C 0.36366 0.73289 0.92406 0.0
H729 H 0.4904 0.6865 0.87198 0.0
H730 H 0.43016 0.68035 0.95813 0.0
S731 S 0.33658 0.8642 0.84354 0.0
N732 N 0.38872 0.83526 0.80514 0.0
N733 N 0.31749 0.81874 0.89589 0.0
C734 C 0.35601 0.77788 0.88521 0.0
C735 C 0.39422 0.78629 0.83602 0.0
C736 C 0.47519 0.55902 0.89084 0.0
C737 C 0.47349 0.54338 0.83167 0.0
C738 C 0.42359 0.56249 0.92443 0.0
C739 C 0.36816 0.55043 0.90062 0.0
H740 H 0.51587 0.57311 0.90977 0.0
H741 H 0.42648 0.58052 0.96776 0.0
S742 S 0.34209 0.50834 0.74758 0.0
N743 N 0.41278 0.5145 0.75144 0.0
N744 N 0.3176 0.52001 0.81411 0.0
C745 C 0.36747 0.53026 0.84294 0.0
C746 C 0.41939 0.52761 0.80865 0.0
C747 C 0.73637 0.25143 0.16812 0.0
C748 C 0.76739 0.26632 0.11705 0.0
C749 C 0.73536 0.19545 0.19151 0.0
C750 C 0.7596 0.14984 0.16053 0.0
H751 H 0.70674 0.28107 0.18581 0.0
H752 H 0.70671 0.18615 0.22823 0.0
S753 S 0.83957 0.16549 0.01997 0.0
N754 N 0.82356 0.23141 0.03701 0.0
N755 N 0.81408 0.1254 0.07426 0.0
C756 C 0.79223 0.16503 0.11015 0.0
C757 C 0.79697 0.22298 0.08934 0.0
C758 C 0.01438 0.38787 0.42362 0.0
C759 C 0.98846 0.43549 0.39816 0.0
C760 C 0.06805 0.39338 0.4514 0.0
C761 C 0.10057 0.44558 0.4494 0.0
H762 H -0.00373 0.34516 0.4175 0.0
H763 H 0.08828 0.35447 0.46495 0.0
S764 S 0.04849 0.5832 0.39605 0.0
N765 N 0.99379 0.53805 0.38457 0.0
N766 N 0.10003 0.54639 0.42553 0.0
C767 C 0.07269 0.49416 0.42951 0.0
C768 C 0.01569 0.48939 0.40608 0.0
C769 C 0.87404 0.76355 0.61053 0.0
C770 C 0.82003 0.7497 0.58648 0.0
C771 C 0.88556 0.81754 0.63505 0.0
C772 C 0.8438 0.85995 0.63474 0.0
H773 H 0.90718 0.73214 0.61079 0.0
H774 H 0.92812 0.827 0.65251 0.0
S775 S 0.6992 0.84605 0.57047 0.0
N776 N 0.72575 0.7823 0.56182 0.0
N777 N 0.74846 0.88559 0.60501 0.0
C778 C 0.78994 0.84661 0.61065 0.0
C779 C 0.77784 0.791 0.58701 0.0
C780 C 0.46939 0.47969 0.6203 0.0
C781 C 0.52379 0.4562 0.62596 0.0
C782 C 0.4268 0.45281 0.58541 0.0
C783 C 0.43786 0.40308 0.55337 0.0
H784 H 0.45848 0.51642 0.64621 0.0
H785 H 0.38319 0.46734 0.58799 0.0
S786 S 0.57804 0.33149 0.54585 0.0
N787 N 0.58961 0.38513 0.59161 0.0
N788 N 0.50974 0.33423 0.52656 0.0
C789 C 0.49381 0.38161 0.55601 0.0
C790 C 0.53683 0.4086 0.59182 0.0
C791 C 0.8313 0.24773 0.85003 0.0
C792 C 0.78714 0.25859 0.89059 0.0
C793 C 0.83367 0.19528 0.82101 0.0
C794 C 0.79508 0.14967 0.83569 0.0
H795 H 0.86776 0.27753 0.84499 0.0
H796 H 0.87107 0.18773 0.79376 0.0
S797 S 0.67303 0.15393 0.94064 0.0
N798 N 0.70129 0.22004 0.94055 0.0
N799 N 0.71192 0.11797 0.89374 0.0
C800 C 0.74935 0.16021 0.87438 0.0
C801 C 0.7442 0.21535 0.90035 0.0
C802 C 0.95835 0.55386 0.12215 0.0
C803 C 0.96966 0.51499 0.16729 0.0
C804 C 0.00308 0.57726 0.08623 0.0
C805 C 0.06097 0.56138 0.09222 0.0
H806 H 0.91521 0.56948 0.1172 0.0
H807 H 0.99334 0.61185 0.05692 0.0
S808 S 0.11417 0.46411 0.20508 0.0
N809 N 0.04375 0.46408 0.21749 0.0
N810 N 0.12668 0.5052 0.14757 0.0
C811 C 0.07221 0.5207 0.13549 0.0
C812 C 0.02698 0.49817 0.17337 0.0
C813 C 0.67009 0.74672 0.35129 0.0
C814 C 0.72134 0.74503 0.3834 0.0
C815 C 0.6562 0.79555 0.31894 0.0
C816 C 0.69103 0.84649 0.32038 0.0
H817 H 0.63844 0.71138 0.35443 0.0
H818 H 0.6142 0.79589 0.29859 0.0
S819 S 0.82306 0.86751 0.40813 0.0
N820 N 0.80488 0.79919 0.41776 0.0
N821 N 0.77617 0.89298 0.36194 0.0
C822 C 0.74282 0.84501 0.35179 0.0
C823 C 0.75826 0.7941 0.38251 0.0
C824 C 0.90627 0.44829 0.51097 0.0
C825 C 0.89916 0.50407 0.5326 0.0
C826 C 0.94261 0.40958 0.53965 0.0
C827 C 0.97366 0.42543 0.59037 0.0
H828 H 0.87957 0.43265 0.47545 0.0
H829 H 0.94084 0.36506 0.52621 0.0
S830 S 0.95878 0.56171 0.6693 0.0
N831 N 0.92213 0.57088 0.60954 0.0
N832 N 0.99021 0.50008 0.66168 0.0
C833 C 0.96997 0.48288 0.60882 0.0
C834 C 0.9321 0.52119 0.58095 0.0
C835 C 0.40271 0.07233 0.57855 0.0
C836 C 0.39817 0.02652 0.53926 0.0
C837 C 0.42134 0.12733 0.55948 0.0
C838 C 0.43261 0.13876 0.50036 0.0
H839 H 0.39127 0.06578 0.62404 0.0
H840 H 0.42471 0.16195 0.59036 0.0
S841 S 0.4244 0.03383 0.37997 0.0
N842 N 0.40528 -0.00394 0.43853 0.0
N843 N 0.44026 0.09937 0.40312 0.0
C844 C 0.43091 0.09251 0.46133 0.0
C845 C 0.41219 0.03666 0.48048 0.0
C846 C 0.26884 0.20928 0.80684 0.0
C847 C 0.27063 0.16066 0.8425 0.0
C848 C 0.21773 0.23684 0.7946 0.0
C849 C 0.16457 0.21376 0.81433 0.0
H850 H 0.30701 0.2227 0.78428 0.0
H851 H 0.21871 0.26935 0.76095 0.0
S852 S 0.14729 0.10517 0.93246 0.0
N853 N 0.2166 0.1037 0.91467 0.0
N854 N 0.11874 0.15331 0.88935 0.0
C855 C 0.16646 0.17225 0.85933 0.0
C856 C 0.21968 0.14534 0.87328 0.0
C857 C 0.0961 0.99054 0.02652 0.0
C858 C 0.14784 0.98703 0.05691 0.0
C859 C 0.07442 0.9449 0.99238 0.0
C860 C 0.10366 0.8933 0.98872 0.0
H861 H 0.07538 0.03077 0.02575 0.0
H862 H 0.03706 0.95152 0.96546 0.0
S863 S 0.23295 0.8568 0.07301 0.0
N864 N 0.22237 0.92453 0.08997 0.0
N865 N 0.18189 0.83787 0.02624 0.0
C866 C 0.15283 0.88727 0.02344 0.0
C867 C 0.17492 0.93423 0.05767 0.0
C868 C 0.79458 0.3998 0.78961 0.0
C869 C 0.75905 0.4049 0.74065 0.0
C870 C 0.84648 0.3706 0.78558 0.0
C871 C 0.86143 0.34065 0.7346 0.0
H872 H 0.78498 0.42271 0.82936 0.0
H873 H 0.87722 0.37537 0.82071 0.0
S874 S 0.78288 0.34119 0.59459 0.0
N875 N 0.74433 0.38072 0.63854 0.0
N876 N 0.83516 0.31691 0.63505 0.0
C877 C 0.82275 0.341 0.68751 0.0
C878 C 0.77404 0.37621 0.68914 0.0
C879 C 0.59233 0.51925 0.01211 0.0
C880 C 0.64742 0.51474 0.03639 0.0
C881 C 0.5573 0.56475 0.02798 0.0
C882 C 0.5797 0.61069 0.06127 0.0
H883 H 0.57478 0.48539 0.98482 0.0
H884 H 0.51167 0.56148 0.01884 0.0
S885 S 0.73151 0.63267 0.10767 0.0
N886 N 0.72746 0.5663 0.08311 0.0
N887 N 0.66681 0.65839 0.09825 0.0
C888 C 0.63928 0.61279 0.07246 0.0
C889 C 0.67189 0.56302 0.06451 0.0
C890 C 0.24861 0.87896 0.74432 0.0
C891 C 0.25536 0.93773 0.75698 0.0
C892 C 0.19972 0.84603 0.76331 0.0
C893 C 0.15388 0.87257 0.7913 0.0
H894 H 0.28461 0.85801 0.72578 0.0
H895 H 0.20018 0.7997 0.76102 0.0
S896 S 0.14042 0.02786 0.81413 0.0
N897 N 0.20656 0.02265 0.78781 0.0
N898 N 0.11134 0.96243 0.81611 0.0
C899 C 0.15565 0.93279 0.79372 0.0
C900 C 0.20713 0.96525 0.77873 0.0
C901 C 0.26773 0.11992 0.32962 0.0
C902 C 0.20862 0.12637 0.3398 0.0
C903 C 0.30825 0.15838 0.35347 0.0
C904 C 0.29129 0.20238 0.39099 0.0
H905 H 0.2826 0.08616 0.30142 0.0
H906 H 0.35356 0.15249 0.34415 0.0
S907 S 0.14135 0.23455 0.4338 0.0
N908 N 0.13429 0.18018 0.38803 0.0
N909 N 0.21159 0.24737 0.44046 0.0
C910 C 0.23236 0.20775 0.40342 0.0
C911 C 0.19062 0.17066 0.37612 0.0
loop_
_geom_bond_atom_site_label_1
_geom_bond_atom_site_label_2
_geom_bond_distance
_geom_bond_site_symmetry_2
_ccdc_geom_bond_type
Co0 O1 2.216 . S
Co0 O2 2.091 . S
Co0 O4 2.004 1_455 S
Co0 O10 2.021 1_455 S
Co0 O12 2.137 . S
Co0 O13 2.244 . S
O1 Co0 2.216 . S
O1 C8 1.247 . S
O2 Co0 2.091 . S
O2 C8 1.261 . S
C3 O12 1.247 . S
C3 O13 1.272 . S
O4 Co0 2.004 1_655 S
O4 C9 1.259 . S
Co5 O6 2.061 1_455 S
Co5 O11 2.052 1_455 S
Co5 O13 2.135 . S
O6 Co5 2.061 1_655 S
O6 C9 1.235 . S
C7 O10 1.238 . S
C7 O11 1.241 . S
C8 O1 1.247 . S
C8 O2 1.261 . S
C9 O4 1.259 . S
C9 O6 1.235 . S
O10 Co0 2.021 1_655 S
O10 C7 1.238 . S
O11 Co5 2.052 1_655 S
O11 C7 1.241 . S
O12 Co0 2.137 . S
O12 C3 1.247 . S
O13 Co0 2.244 . S
O13 C3 1.272 . S
O13 Co5 2.135 . S
Co14 O15 2.216 . S
Co14 O16 2.091 1_455 S
Co14 O18 2.004 1_455 S
Co14 O24 2.021 1_455 S
Co14 O26 2.137 . S
Co14 O27 2.244 . S
O15 Co14 2.216 . S
O15 C22 1.247 . S
O16 Co14 2.091 1_655 S
O16 C22 1.261 1_655 S
C17 O26 1.247 . S
C17 O27 1.272 . S
O18 Co14 2.004 1_655 S
O18 C23 1.259 . S
Co19 O20 2.061 1_455 S
Co19 O25 2.052 1_455 S
Co19 O27 2.135 . S
O20 Co19 2.061 1_655 S
O20 C23 1.235 . S
C21 O24 1.238 . S
C21 O25 1.241 . S
C22 O15 1.247 . S
C22 O16 1.261 1_455 S
C23 O18 1.259 . S
C23 O20 1.235 . S
O24 Co14 2.021 1_655 S
O24 C21 1.238 . S
O25 Co19 2.052 1_655 S
O25 C21 1.241 . S
O26 Co14 2.137 . S
O26 C17 1.247 . S
O27 Co14 2.244 . S
O27 C17 1.272 . S
O27 Co19 2.135 . S
Co28 O29 2.216 . S
Co28 O30 2.091 . S
Co28 O32 2.004 . S
Co28 O38 2.021 . S
Co28 O40 2.137 . S
Co28 O41 2.244 . S
O29 Co28 2.216 . S
O29 C36 1.247 . S
O30 Co28 2.091 . S
O30 C36 1.261 . S
C31 O40 1.247 . S
C31 O41 1.272 . S
O32 Co28 2.004 . S
O32 C37 1.259 . S
Co33 O34 2.061 . S
Co33 O39 2.052 . S
Co33 O41 2.135 . S
O34 Co33 2.061 . S
O34 C37 1.235 . S
C35 O38 1.238 . S
C35 O39 1.241 . S
C36 O29 1.247 . S
C36 O30 1.261 . S
C37 O32 1.259 . S
C37 O34 1.235 . S
O38 Co28 2.021 . S
O38 C35 1.238 . S
O39 Co33 2.052 . S
O39 C35 1.241 . S
O40 Co28 2.137 . S
O40 C31 1.247 . S
O41 Co28 2.244 . S
O41 C31 1.272 . S
O41 Co33 2.135 . S
Co42 O43 2.216 . S
Co42 O44 2.091 . S
Co42 O46 2.004 . S
Co42 O52 2.021 . S
Co42 O54 2.137 . S
Co42 O55 2.244 . S
O43 Co42 2.216 . S
O43 C50 1.247 . S
O44 Co42 2.091 . S
O44 C50 1.261 . S
C45 O54 1.247 . S
C45 O55 1.272 . S
O46 Co42 2.004 . S
O46 C51 1.259 . S
Co47 O48 2.061 . S
Co47 O53 2.052 . S
Co47 O55 2.135 . S
O48 Co47 2.061 . S
O48 C51 1.235 . S
C49 O52 1.238 . S
C49 O53 1.241 . S
C50 O43 1.247 . S
C50 O44 1.261 . S
C51 O46 1.259 . S
C51 O48 1.235 . S
O52 Co42 2.021 . S
O52 C49 1.238 . S
O53 Co47 2.052 . S
O53 C49 1.241 . S
O54 Co42 2.137 . S
O54 C45 1.247 . S
O55 Co42 2.244 . S
O55 C45 1.272 . S
O55 Co47 2.135 . S
Co56 O57 2.216 . S
Co56 O58 2.091 . S
Co56 O60 2.004 1_565 S
Co56 O66 2.021 1_565 S
Co56 O68 2.137 . S
Co56 O69 2.244 1_565 S
O57 Co56 2.216 . S
O57 C64 1.247 . S
O58 Co56 2.091 . S
O58 C64 1.261 . S
C59 O68 1.247 . S
C59 O69 1.272 1_565 S
O60 Co56 2.004 1_545 S
O60 C65 1.259 . S
Co61 O62 2.061 . S
Co61 O67 2.052 . S
Co61 O69 2.135 . S
O62 Co61 2.061 . S
O62 C65 1.235 . S
C63 O66 1.238 . S
C63 O67 1.241 . S
C64 O57 1.247 . S
C64 O58 1.261 . S
C65 O60 1.259 . S
C65 O62 1.235 . S
O66 Co56 2.021 1_545 S
O66 C63 1.238 . S
O67 Co61 2.052 . S
O67 C63 1.241 . S
O68 Co56 2.137 . S
O68 C59 1.247 . S
O69 Co56 2.244 1_545 S
O69 C59 1.272 1_545 S
O69 Co61 2.135 . S
Co70 O71 2.216 . S
Co70 O72 2.091 . S
Co70 O74 2.004 . S
Co70 O80 2.021 . S
Co70 O82 2.137 . S
Co70 O83 2.244 . S
O71 Co70 2.216 . S
O71 C78 1.247 . S
O72 Co70 2.091 . S
O72 C78 1.261 . S
C73 O82 1.247 . S
C73 O83 1.272 . S
O74 Co70 2.004 . S
O74 C79 1.259 . S
Co75 O76 2.061 . S
Co75 O81 2.052 . S
Co75 O83 2.135 . S
O76 Co75 2.061 . S
O76 C79 1.235 . S
C77 O80 1.238 . S
C77 O81 1.241 . S
C78 O71 1.247 . S
C78 O72 1.261 . S
C79 O74 1.259 . S
C79 O76 1.235 . S
O80 Co70 2.021 . S
O80 C77 1.238 . S
O81 Co75 2.052 . S
O81 C77 1.241 . S
O82 Co70 2.137 . S
O82 C73 1.247 . S
O83 Co70 2.244 . S
O83 C73 1.272 . S
O83 Co75 2.135 . S
Co84 O85 2.216 . S
Co84 O86 2.091 . S
Co84 O88 2.004 . S
Co84 O94 2.021 1_545 S
Co84 O96 2.137 . S
Co84 O97 2.244 . S
O85 Co84 2.216 . S
O85 C92 1.247 . S
O86 Co84 2.091 . S
O86 C92 1.261 . S
C87 O96 1.247 . S
C87 O97 1.272 . S
O88 Co84 2.004 . S
O88 C93 1.259 1_545 S
Co89 O90 2.061 . S
Co89 O95 2.052 . S
Co89 O97 2.135 1_565 S
O90 Co89 2.061 . S
O90 C93 1.235 . S
C91 O94 1.238 . S
C91 O95 1.241 . S
C92 O85 1.247 . S
C92 O86 1.261 . S
C93 O88 1.259 1_565 S
C93 O90 1.235 . S
O94 Co84 2.021 1_565 S
O94 C91 1.238 . S
O95 Co89 2.052 . S
O95 C91 1.241 . S
O96 Co84 2.137 . S
O96 C87 1.247 . S
O97 Co84 2.244 . S
O97 C87 1.272 . S
O97 Co89 2.135 1_545 S
Co98 O99 2.216 . S
Co98 O100 2.091 1_554 S
Co98 O102 2.004 1_554 S
Co98 O108 2.021 1_554 S
Co98 O110 2.137 . S
Co98 O111 2.244 . S
O99 Co98 2.216 . S
O99 C106 1.247 . S
O100 Co98 2.091 1_556 S
O100 C106 1.261 1_556 S
C101 O110 1.247 . S
C101 O111 1.272 . S
O102 Co98 2.004 1_556 S
O102 C107 1.259 . S
Co103 O104 2.061 1_554 S
Co103 O109 2.052 1_554 S
Co103 O111 2.135 . S
O104 Co103 2.061 1_556 S
O104 C107 1.235 . S
C105 O108 1.238 . S
C105 O109 1.241 . S
C106 O99 1.247 . S
C106 O100 1.261 1_554 S
C107 O102 1.259 . S
C107 O104 1.235 . S
O108 Co98 2.021 1_556 S
O108 C105 1.238 . S
O109 Co103 2.052 1_556 S
O109 C105 1.241 . S
O110 Co98 2.137 . S
O110 C101 1.247 . S
O111 Co98 2.244 . S
O111 C101 1.272 . S
O111 Co103 2.135 . S
Co112 O113 2.216 . S
Co112 O114 2.091 . S
Co112 O116 2.004 1_554 S
Co112 O122 2.021 1_554 S
Co112 O124 2.137 . S
Co112 O125 2.244 . S
O113 Co112 2.216 . S
O113 C120 1.247 . S
O114 Co112 2.091 . S
O114 C120 1.261 . S
C115 O124 1.247 . S
C115 O125 1.272 . S
O116 Co112 2.004 1_556 S
O116 C121 1.259 . S
Co117 O118 2.061 1_554 S
Co117 O123 2.052 . S
Co117 O125 2.135 . S
O118 Co117 2.061 1_556 S
O118 C121 1.235 . S
C119 O122 1.238 . S
C119 O123 1.241 1_556 S
C120 O113 1.247 . S
C120 O114 1.261 . S
C121 O116 1.259 . S
C121 O118 1.235 . S
O122 Co112 2.021 1_556 S
O122 C119 1.238 . S
O123 Co117 2.052 . S
O123 C119 1.241 1_554 S
O124 Co112 2.137 . S
O124 C115 1.247 . S
O125 Co112 2.244 . S
O125 C115 1.272 . S
O125 Co117 2.135 . S
Co126 O127 2.216 . S
Co126 O128 2.091 . S
Co126 O130 2.004 . S
Co126 O136 2.021 . S
Co126 O138 2.137 . S
Co126 O139 2.244 . S
O127 Co126 2.216 . S
O127 C134 1.247 . S
O128 Co126 2.091 . S
O128 C134 1.261 . S
C129 O138 1.247 . S
C129 O139 1.272 . S
O130 Co126 2.004 . S
O130 C135 1.259 . S
Co131 O132 2.061 . S
Co131 O137 2.052 . S
Co131 O139 2.135 . S
O132 Co131 2.061 . S
O132 C135 1.235 . S
C133 O136 1.238 . S
C133 O137 1.241 . S
C134 O127 1.247 . S
C134 O128 1.261 . S
C135 O130 1.259 . S
C135 O132 1.235 . S
O136 Co126 2.021 . S
O136 C133 1.238 . S
O137 Co131 2.052 . S
O137 C133 1.241 . S
O138 Co126 2.137 . S
O138 C129 1.247 . S
O139 Co126 2.244 . S
O139 C129 1.272 . S
O139 Co131 2.135 . S
Co140 O141 2.216 . S
Co140 O142 2.091 . S
Co140 O144 2.004 . S
Co140 O150 2.021 . S
Co140 O152 2.137 . S
Co140 O153 2.244 . S
O141 Co140 2.216 . S
O141 C148 1.247 . S
O142 Co140 2.091 . S
O142 C148 1.261 . S
C143 O152 1.247 . S
C143 O153 1.272 . S
O144 Co140 2.004 . S
O144 C149 1.259 . S
Co145 O146 2.061 . S
Co145 O151 2.052 . S
Co145 O153 2.135 . S
O146 Co145 2.061 . S
O146 C149 1.235 . S
C147 O150 1.238 . S
C147 O151 1.241 . S
C148 O141 1.247 . S
C148 O142 1.261 . S
C149 O144 1.259 . S
C149 O146 1.235 . S
O150 Co140 2.021 . S
O150 C147 1.238 . S
O151 Co145 2.052 . S
O151 C147 1.241 . S
O152 Co140 2.137 . S
O152 C143 1.247 . S
O153 Co140 2.244 . S
O153 C143 1.272 . S
O153 Co145 2.135 . S
Co154 O155 2.216 . S
Co154 O156 2.091 . S
Co154 O158 2.004 . S
Co154 O164 2.021 . S
Co154 O166 2.137 . S
Co154 O167 2.244 . S
O155 Co154 2.216 . S
O155 C162 1.247 . S
O156 Co154 2.091 . S
O156 C162 1.261 . S
C157 O166 1.247 . S
C157 O167 1.272 . S
O158 Co154 2.004 . S
O158 C163 1.259 . S
Co159 O160 2.061 . S
Co159 O165 2.052 . S
Co159 O167 2.135 . S
O160 Co159 2.061 . S
O160 C163 1.235 . S
C161 O164 1.238 . S
C161 O165 1.241 . S
C162 O155 1.247 . S
C162 O156 1.261 . S
C163 O158 1.259 . S
C163 O160 1.235 . S
O164 Co154 2.021 . S
O164 C161 1.238 . S
O165 Co159 2.052 . S
O165 C161 1.241 . S
O166 Co154 2.137 . S
O166 C157 1.247 . S
O167 Co154 2.244 . S
O167 C157 1.272 . S
O167 Co159 2.135 . S
H168 C174 0.930 . S
H169 C177 0.931 . S
H170 C179 0.931 . S
H171 C181 0.930 . S
H172 C183 0.930 . S
H173 C185 0.931 . S
C174 H168 0.930 . S
C174 C175 1.380 . S
C174 C176 1.394 . S
C175 C174 1.380 . S
C175 C179 1.382 . S
C176 C174 1.394 . S
C176 C177 1.400 . S
C177 H169 0.931 . S
C177 C176 1.400 . S
C177 C178 1.375 . S
C178 C177 1.375 . S
C178 C179 1.415 . S
C178 C180 1.501 1_655 S
C179 H170 0.931 . S
C179 C175 1.382 . S
C179 C178 1.415 . S
C180 C178 1.501 1_455 S
C180 C181 1.384 . S
C180 C185 1.408 . S
C181 H171 0.930 . S
C181 C180 1.384 . S
C181 C182 1.389 . S
C182 C181 1.389 . S
C182 C183 1.405 . S
C183 H172 0.930 . S
C183 C182 1.405 . S
C183 C184 1.364 . S
C184 C183 1.364 . S
C184 C185 1.400 . S
C185 H173 0.931 . S
C185 C180 1.408 . S
C185 C184 1.400 . S
H186 C192 0.930 . S
H187 C195 0.931 . S
H188 C197 0.931 . S
H189 C199 0.930 . S
H190 C201 0.930 . S
H191 C203 0.931 . S
C192 H186 0.930 . S
C192 C193 1.380 . S
C192 C194 1.394 . S
C193 C192 1.380 . S
C193 C197 1.382 . S
C194 C192 1.394 . S
C194 C195 1.400 . S
C195 H187 0.931 . S
C195 C194 1.400 . S
C195 C196 1.375 . S
C196 C195 1.375 . S
C196 C197 1.415 . S
C196 C198 1.501 1_655 S
C197 H188 0.931 . S
C197 C193 1.382 . S
C197 C196 1.415 . S
C198 C196 1.501 1_455 S
C198 C199 1.384 . S
C198 C203 1.408 . S
C199 H189 0.930 . S
C199 C198 1.384 . S
C199 C200 1.389 . S
C200 C199 1.389 . S
C200 C201 1.405 . S
C201 H190 0.930 . S
C201 C200 1.405 . S
C201 C202 1.364 . S
C202 C201 1.364 . S
C202 C203 1.400 . S
C203 H191 0.931 . S
C203 C198 1.408 . S
C203 C202 1.400 . S
H204 C210 0.930 . S
H205 C213 0.931 . S
H206 C215 0.931 . S
H207 C217 0.930 . S
H208 C219 0.930 . S
H209 C221 0.931 . S
C210 H204 0.930 . S
C210 C211 1.380 . S
C210 C212 1.394 . S
C211 C210 1.380 . S
C211 C215 1.382 . S
C212 C210 1.394 . S
C212 C213 1.400 . S
C213 H205 0.931 . S
C213 C212 1.400 . S
C213 C214 1.375 . S
C214 C213 1.375 . S
C214 C215 1.415 . S
C214 C216 1.501 . S
C215 H206 0.931 . S
C215 C211 1.382 . S
C215 C214 1.415 . S
C216 C214 1.501 . S
C216 C217 1.384 . S
C216 C221 1.408 . S
C217 H207 0.930 . S
C217 C216 1.384 . S
C217 C218 1.389 . S
C218 C217 1.389 . S
C218 C219 1.405 . S
C219 H208 0.930 . S
C219 C218 1.405 . S
C219 C220 1.364 . S
C220 C219 1.364 . S
C220 C221 1.400 . S
C221 H209 0.931 . S
C221 C216 1.408 . S
C221 C220 1.400 . S
H222 C228 0.930 . S
H223 C231 0.931 . S
H224 C233 0.931 . S
H225 C235 0.930 . S
H226 C237 0.930 . S
H227 C239 0.931 . S
C228 H222 0.930 . S
C228 C229 1.380 . S
C228 C230 1.394 . S
C229 C228 1.380 . S
C229 C233 1.382 . S
C230 C228 1.394 . S
C230 C231 1.400 . S
C231 H223 0.931 . S
C231 C230 1.400 . S
C231 C232 1.375 . S
C232 C231 1.375 . S
C232 C233 1.415 . S
C232 C234 1.501 . S
C233 H224 0.931 . S
C233 C229 1.382 . S
C233 C232 1.415 . S
C234 C232 1.501 . S
C234 C235 1.384 . S
C234 C239 1.408 . S
C235 H225 0.930 . S
C235 C234 1.384 . S
C235 C236 1.389 . S
C236 C235 1.389 . S
C236 C237 1.405 . S
C237 H226 0.930 . S
C237 C236 1.405 . S
C237 C238 1.364 . S
C238 C237 1.364 . S
C238 C239 1.400 . S
C239 H227 0.931 . S
C239 C234 1.408 . S
C239 C238 1.400 . S
H240 C246 0.930 . S
H241 C249 0.931 . S
H242 C251 0.931 1_545 S
H243 C253 0.930 . S
H244 C255 0.930 . S
H245 C257 0.931 . S
C246 H240 0.930 . S
C246 C247 1.380 . S
C246 C248 1.394 . S
C247 C246 1.380 . S
C247 C251 1.382 . S
C248 C246 1.394 . S
C248 C249 1.400 . S
C249 H241 0.931 . S
C249 C248 1.400 . S
C249 C250 1.375 1_565 S
C250 C249 1.375 1_545 S
C250 C251 1.415 1_545 S
C250 C252 1.501 . S
C251 H242 0.931 1_565 S
C251 C247 1.382 . S
C251 C250 1.415 1_565 S
C252 C250 1.501 . S
C252 C253 1.384 . S
C252 C257 1.408 . S
C253 H243 0.930 . S
C253 C252 1.384 . S
C253 C254 1.389 . S
C254 C253 1.389 . S
C254 C255 1.405 . S
C255 H244 0.930 . S
C255 C254 1.405 . S
C255 C256 1.364 . S
C256 C255 1.364 . S
C256 C257 1.400 . S
C257 H245 0.931 . S
C257 C252 1.408 . S
C257 C256 1.400 . S
H258 C264 0.930 . S
H259 C267 0.931 . S
H260 C269 0.931 . S
H261 C271 0.930 . S
H262 C273 0.930 . S
H263 C275 0.931 . S
C264 H258 0.930 . S
C264 C265 1.380 . S
C264 C266 1.394 . S
C265 C264 1.380 . S
C265 C269 1.382 . S
C266 C264 1.394 . S
C266 C267 1.400 . S
C267 H259 0.931 . S
C267 C266 1.400 . S
C267 C268 1.375 . S
C268 C267 1.375 . S
C268 C269 1.415 . S
C268 C270 1.501 . S
C269 H260 0.931 . S
C269 C265 1.382 . S
C269 C268 1.415 . S
C270 C268 1.501 . S
C270 C271 1.384 . S
C270 C275 1.408 . S
C271 H261 0.930 . S
C271 C270 1.384 . S
C271 C272 1.389 . S
C272 C271 1.389 . S
C272 C273 1.405 . S
C273 H262 0.930 . S
C273 C272 1.405 . S
C273 C274 1.364 . S
C274 C273 1.364 . S
C274 C275 1.400 . S
C275 H263 0.931 . S
C275 C270 1.408 . S
C275 C274 1.400 . S
H276 C282 0.930 . S
H277 C285 0.931 . S
H278 C287 0.931 . S
H279 C289 0.930 . S
H280 C291 0.930 . S
H281 C293 0.931 . S
C282 H276 0.930 . S
C282 C283 1.380 . S
C282 C284 1.394 . S
C283 C282 1.380 . S
C283 C287 1.382 . S
C284 C282 1.394 . S
C284 C285 1.400 . S
C285 H277 0.931 . S
C285 C284 1.400 . S
C285 C286 1.375 . S
C286 C285 1.375 . S
C286 C287 1.415 . S
C286 C288 1.501 1_545 S
C287 H278 0.931 . S
C287 C283 1.382 . S
C287 C286 1.415 . S
C288 C286 1.501 1_565 S
C288 C289 1.384 . S
C288 C293 1.408 . S
C289 H279 0.930 . S
C289 C288 1.384 . S
C289 C290 1.389 . S
C290 C289 1.389 . S
C290 C291 1.405 . S
C291 H280 0.930 . S
C291 C290 1.405 . S
C291 C292 1.364 . S
C292 C291 1.364 . S
C292 C293 1.400 . S
C293 H281 0.931 . S
C293 C288 1.408 . S
C293 C292 1.400 . S
H294 C300 0.930 . S
H295 C303 0.931 . S
H296 C305 0.928 1_554 S
H297 C307 0.930 . S
H298 C309 0.930 . S
H299 C311 0.931 . S
C300 H294 0.930 . S
C300 C301 1.380 . S
C300 C302 1.394 . S
C301 C300 1.380 . S
C301 C305 1.382 . S
C302 C300 1.394 . S
C302 C303 1.400 1_556 S
C303 H295 0.931 . S
C303 C302 1.400 1_554 S
C303 C304 1.375 . S
C304 C303 1.375 . S
C304 C305 1.415 1_554 S
C304 C306 1.501 . S
C305 H296 0.928 1_556 S
C305 C301 1.382 . S
C305 C304 1.415 1_556 S
C306 C304 1.501 . S
C306 C307 1.384 . S
C306 C311 1.408 . S
C307 H297 0.930 . S
C307 C306 1.384 . S
C307 C308 1.389 . S
C308 C307 1.389 . S
C308 C309 1.405 . S
C309 H298 0.930 . S
C309 C308 1.405 . S
C309 C310 1.364 . S
C310 C309 1.364 . S
C310 C311 1.400 . S
C311 H299 0.931 . S
C311 C306 1.408 . S
C311 C310 1.400 . S
H312 C318 0.930 . S
H313 C321 0.931 1_554 S
H314 C323 0.931 . S
H315 C325 0.930 . S
H316 C327 0.930 . S
H317 C329 0.931 . S
C318 H312 0.930 . S
C318 C319 1.380 . S
C318 C320 1.394 . S
C319 C318 1.380 . S
C319 C323 1.382 . S
C320 C318 1.394 . S
C320 C321 1.400 . S
C321 H313 0.931 1_556 S
C321 C320 1.400 . S
C321 C322 1.375 1_556 S
C322 C321 1.375 1_554 S
C322 C323 1.415 1_554 S
C322 C324 1.501 . S
C323 H314 0.931 . S
C323 C319 1.382 . S
C323 C322 1.415 1_556 S
C324 C322 1.501 . S
C324 C325 1.384 . S
C324 C329 1.408 . S
C325 H315 0.930 . S
C325 C324 1.384 . S
C325 C326 1.389 . S
C326 C325 1.389 . S
C326 C327 1.405 . S
C327 H316 0.930 . S
C327 C326 1.405 . S
C327 C328 1.364 . S
C328 C327 1.364 . S
C328 C329 1.400 . S
C329 H317 0.931 . S
C329 C324 1.408 . S
C329 C328 1.400 . S
H330 C336 0.930 . S
H331 C339 0.931 . S
H332 C341 0.931 . S
H333 C343 0.930 . S
H334 C345 0.930 . S
H335 C347 0.931 . S
C336 H330 0.930 . S
C336 C337 1.380 . S
C336 C338 1.394 . S
C337 C336 1.380 . S
C337 C341 1.382 . S
C338 C336 1.394 . S
C338 C339 1.400 . S
C339 H331 0.931 . S
C339 C338 1.400 . S
C339 C340 1.375 . S
C340 C339 1.375 . S
C340 C341 1.415 . S
C340 C342 1.501 . S
C341 H332 0.931 . S
C341 C337 1.382 . S
C341 C340 1.415 . S
C342 C340 1.501 . S
C342 C343 1.384 . S
C342 C347 1.408 . S
C343 H333 0.930 . S
C343 C342 1.384 . S
C343 C344 1.389 . S
C344 C343 1.389 . S
C344 C345 1.405 . S
C345 H334 0.930 . S
C345 C344 1.405 . S
C345 C346 1.364 . S
C346 C345 1.364 . S
C346 C347 1.400 . S
C347 H335 0.931 . S
C347 C342 1.408 . S
C347 C346 1.400 . S
H348 C354 0.930 . S
H349 C357 0.931 . S
H350 C359 0.931 . S
H351 C361 0.930 . S
H352 C363 0.930 . S
H353 C365 0.931 . S
C354 H348 0.930 . S
C354 C355 1.380 . S
C354 C356 1.394 . S
C355 C354 1.380 . S
C355 C359 1.382 . S
C356 C354 1.394 . S
C356 C357 1.400 . S
C357 H349 0.931 . S
C357 C356 1.400 . S
C357 C358 1.375 . S
C358 C357 1.375 . S
C358 C359 1.415 . S
C358 C360 1.501 . S
C359 H350 0.931 . S
C359 C355 1.382 . S
C359 C358 1.415 . S
C360 C358 1.501 . S
C360 C361 1.384 . S
C360 C365 1.408 . S
C361 H351 0.930 . S
C361 C360 1.384 . S
C361 C362 1.389 . S
C362 C361 1.389 . S
C362 C363 1.405 . S
C363 H352 0.930 . S
C363 C362 1.405 . S
C363 C364 1.364 . S
C364 C363 1.364 . S
C364 C365 1.400 . S
C365 H353 0.931 . S
C365 C360 1.408 . S
C365 C364 1.400 . S
H366 C372 0.930 . S
H367 C375 0.931 . S
H368 C377 0.931 . S
H369 C379 0.930 . S
H370 C381 0.930 . S
H371 C383 0.931 . S
C372 H366 0.930 . S
C372 C373 1.380 . S
C372 C374 1.394 . S
C373 C372 1.380 . S
C373 C377 1.382 . S
C374 C372 1.394 . S
C374 C375 1.400 . S
C375 H367 0.931 . S
C375 C374 1.400 . S
C375 C376 1.375 . S
C376 C375 1.375 . S
C376 C377 1.415 . S
C376 C378 1.501 . S
C377 H368 0.931 . S
C377 C373 1.382 . S
C377 C376 1.415 . S
C378 C376 1.501 . S
C378 C379 1.384 . S
C378 C383 1.408 . S
C379 H369 0.930 . S
C379 C378 1.384 . S
C379 C380 1.389 . S
C380 C379 1.389 . S
C380 C381 1.405 . S
C381 H370 0.930 . S
C381 C380 1.405 . S
C381 C382 1.364 . S
C382 C381 1.364 . S
C382 C383 1.400 . S
C383 H371 0.931 . S
C383 C378 1.408 . S
C383 C382 1.400 . S
C384 C385 1.369 1_556 S
C384 C386 1.419 . S
C384 H388 0.930 . S
C385 C384 1.369 1_554 S
C385 C394 1.429 . S
C386 C384 1.419 . S
C386 C387 1.363 . S
C386 H389 0.929 . S
C387 C386 1.363 . S
C387 C393 1.428 . S
H388 C384 0.930 . S
H389 C386 0.929 . S
S390 N391 1.613 . S
S390 N392 1.610 1_554 S
N391 S390 1.613 . S
N391 C394 1.350 . S
N392 S390 1.610 1_556 S
N392 C393 1.351 . S
C393 C387 1.428 . S
C393 N392 1.351 . S
C393 C394 1.434 1_556 S
C394 C385 1.429 . S
C394 N391 1.350 . S
C394 C393 1.434 1_554 S
C395 C396 1.369 . S
C395 C397 1.419 . S
C395 H399 0.930 . S
C396 C395 1.369 . S
C396 C405 1.429 . S
C397 C395 1.419 . S
C397 C398 1.363 . S
C397 H400 0.929 . S
C398 C397 1.363 . S
C398 C404 1.428 . S
H399 C395 0.930 . S
H400 C397 0.929 . S
S401 N402 1.613 . S
S401 N403 1.610 . S
N402 S401 1.613 . S
N402 C405 1.350 . S
N403 S401 1.610 . S
N403 C404 1.351 . S
C404 C398 1.428 . S
C404 N403 1.351 . S
C404 C405 1.434 . S
C405 C396 1.429 . S
C405 N402 1.350 . S
C405 C404 1.434 . S
C406 C407 1.369 . S
C406 C408 1.419 . S
C406 H410 0.930 . S
C407 C406 1.369 . S
C407 C416 1.429 . S
C408 C406 1.419 . S
C408 C409 1.363 . S
C408 H411 0.929 . S
C409 C408 1.363 . S
C409 C415 1.428 . S
H410 C406 0.930 . S
H411 C408 0.929 . S
S412 N413 1.613 . S
S412 N414 1.610 . S
N413 S412 1.613 . S
N413 C416 1.350 . S
N414 S412 1.610 . S
N414 C415 1.351 . S
C415 C409 1.428 . S
C415 N414 1.351 . S
C415 C416 1.434 . S
C416 C407 1.429 . S
C416 N413 1.350 . S
C416 C415 1.434 . S
C417 C418 1.369 . S
C417 C419 1.419 . S
C417 H421 0.930 . S
C418 C417 1.369 . S
C418 C427 1.429 . S
C419 C417 1.419 . S
C419 C420 1.363 . S
C419 H422 0.929 . S
C420 C419 1.363 . S
C420 C426 1.428 . S
H421 C417 0.930 . S
H422 C419 0.929 . S
S423 N424 1.613 . S
S423 N425 1.610 . S
N424 S423 1.613 . S
N424 C427 1.350 . S
N425 S423 1.610 . S
N425 C426 1.351 . S
C426 C420 1.428 . S
C426 N425 1.351 . S
C426 C427 1.434 . S
C427 C418 1.429 . S
C427 N424 1.350 . S
C427 C426 1.434 . S
C428 C429 1.369 . S
C428 C430 1.419 . S
C428 H432 0.930 . S
C429 C428 1.369 . S
C429 C438 1.429 . S
C430 C428 1.419 . S
C430 C431 1.363 . S
C430 H433 0.929 . S
C431 C430 1.363 . S
C431 C437 1.428 . S
H432 C428 0.930 . S
H433 C430 0.929 . S
S434 N435 1.613 . S
S434 N436 1.610 . S
N435 S434 1.613 . S
N435 C438 1.350 . S
N436 S434 1.610 . S
N436 C437 1.351 . S
C437 C431 1.428 . S
C437 N436 1.351 . S
C437 C438 1.434 . S
C438 C429 1.429 . S
C438 N435 1.350 . S
C438 C437 1.434 . S
C439 C440 1.369 . S
C439 C441 1.419 . S
C439 H443 0.930 . S
C440 C439 1.369 . S
C440 C449 1.429 . S
C441 C439 1.419 . S
C441 C442 1.363 . S
C441 H444 0.929 . S
C442 C441 1.363 . S
C442 C448 1.428 . S
H443 C439 0.930 . S
H444 C441 0.929 . S
S445 N446 1.613 . S
S445 N447 1.610 . S
N446 S445 1.613 . S
N446 C449 1.350 . S
N447 S445 1.610 . S
N447 C448 1.351 . S
C448 C442 1.428 . S
C448 N447 1.351 . S
C448 C449 1.434 . S
C449 C440 1.429 . S
C449 N446 1.350 . S
C449 C448 1.434 . S
C450 C451 1.369 . S
C450 C452 1.419 . S
C450 H454 0.930 . S
C451 C450 1.369 . S
C451 C460 1.429 . S
C452 C450 1.419 . S
C452 C453 1.363 . S
C452 H455 0.929 . S
C453 C452 1.363 . S
C453 C459 1.428 . S
H454 C450 0.930 . S
H455 C452 0.929 . S
S456 N457 1.613 . S
S456 N458 1.610 . S
N457 S456 1.613 . S
N457 C460 1.350 . S
N458 S456 1.610 . S
N458 C459 1.351 . S
C459 C453 1.428 . S
C459 N458 1.351 . S
C459 C460 1.434 . S
C460 C451 1.429 . S
C460 N457 1.350 . S
C460 C459 1.434 . S
C461 C462 1.369 . S
C461 C463 1.419 . S
C461 H465 0.930 . S
C462 C461 1.369 . S
C462 C471 1.429 . S
C463 C461 1.419 . S
C463 C464 1.363 . S
C463 H466 0.929 . S
C464 C463 1.363 . S
C464 C470 1.428 . S
H465 C461 0.930 . S
H466 C463 0.929 . S
S467 N468 1.613 . S
S467 N469 1.610 . S
N468 S467 1.613 . S
N468 C471 1.350 . S
N469 S467 1.610 . S
N469 C470 1.351 . S
C470 C464 1.428 . S
C470 N469 1.351 . S
C470 C471 1.434 . S
C471 C462 1.429 . S
C471 N468 1.350 . S
C471 C470 1.434 . S
C472 C473 1.369 1_655 S
C472 C474 1.419 . S
C472 H476 0.930 1_545 S
C473 C472 1.369 1_455 S
C473 C482 1.429 1_455 S
C474 C472 1.419 . S
C474 C475 1.363 . S
C474 H477 0.929 . S
C475 C474 1.363 . S
C475 C481 1.428 . S
H476 C472 0.930 1_565 S
H477 C474 0.929 . S
S478 N479 1.613 . S
S478 N480 1.610 1_455 S
N479 S478 1.613 . S
N479 C482 1.350 1_455 S
N480 S478 1.610 1_655 S
N480 C481 1.351 . S
C481 C475 1.428 . S
C481 N480 1.351 . S
C481 C482 1.434 . S
C482 C473 1.429 1_655 S
C482 N479 1.350 1_655 S
C482 C481 1.434 . S
C483 C484 1.369 . S
C483 C485 1.419 . S
C483 H487 0.930 . S
C484 C483 1.369 . S
C484 C493 1.429 . S
C485 C483 1.419 . S
C485 C486 1.363 . S
C485 H488 0.929 . S
C486 C485 1.363 . S
C486 C492 1.428 . S
H487 C483 0.930 . S
H488 C485 0.929 . S
S489 N490 1.613 . S
S489 N491 1.610 . S
N490 S489 1.613 . S
N490 C493 1.350 . S
N491 S489 1.610 . S
N491 C492 1.351 . S
C492 C486 1.428 . S
C492 N491 1.351 . S
C492 C493 1.434 . S
C493 C484 1.429 . S
C493 N490 1.350 . S
C493 C492 1.434 . S
C494 C495 1.369 . S
C494 C496 1.419 . S
C494 H498 0.930 . S
C495 C494 1.369 . S
C495 C504 1.429 . S
C496 C494 1.419 . S
C496 C497 1.363 . S
C496 H499 0.929 1_556 S
C497 C496 1.363 . S
C497 C503 1.428 . S
H498 C494 0.930 . S
H499 C496 0.929 1_554 S
S500 N501 1.618 . S
S500 N502 1.610 . S
N501 S500 1.618 . S
N501 C504 1.357 . S
N502 S500 1.610 . S
N502 C503 1.351 . S
C503 C497 1.428 . S
C503 N502 1.351 . S
C503 C504 1.434 . S
C504 C495 1.429 . S
C504 N501 1.357 . S
C504 C503 1.434 . S
C505 C506 1.369 . S
C505 C507 1.419 . S
C505 H509 0.930 . S
C506 C505 1.369 . S
C506 C515 1.429 . S
C507 C505 1.419 . S
C507 C508 1.363 . S
C507 H510 0.929 . S
C508 C507 1.363 . S
C508 C514 1.428 . S
H509 C505 0.930 . S
H510 C507 0.929 . S
S511 N512 1.613 . S
S511 N513 1.610 . S
N512 S511 1.613 . S
N512 C515 1.350 . S
N513 S511 1.610 . S
N513 C514 1.351 . S
C514 C508 1.428 . S
C514 N513 1.351 . S
C514 C515 1.434 . S
C515 C506 1.429 . S
C515 N512 1.350 . S
C515 C514 1.434 . S
C516 C517 1.369 1_655 S
C516 C518 1.419 . S
C516 H520 0.930 1_655 S
C517 C516 1.369 1_455 S
C517 C526 1.429 1_455 S
C518 C516 1.419 . S
C518 C519 1.363 . S
C518 H521 0.929 . S
C519 C518 1.363 . S
C519 C525 1.428 . S
H520 C516 0.930 1_455 S
H521 C518 0.929 . S
S522 N523 1.613 . S
S522 N524 1.610 1_545 S
N523 S522 1.613 . S
N523 C526 1.350 1_545 S
N524 S522 1.610 1_565 S
N524 C525 1.351 . S
C525 C519 1.428 . S
C525 N524 1.351 . S
C525 C526 1.434 . S
C526 C517 1.429 1_655 S
C526 N523 1.350 1_565 S
C526 C525 1.434 . S
C527 C528 1.369 . S
C527 C529 1.419 . S
C527 H531 0.930 . S
C528 C527 1.369 . S
C528 C537 1.429 . S
C529 C527 1.419 . S
C529 C530 1.363 . S
C529 H532 0.929 . S
C530 C529 1.363 . S
C530 C536 1.428 . S
H531 C527 0.930 . S
H532 C529 0.929 . S
S533 N534 1.613 . S
S533 N535 1.610 . S
N534 S533 1.613 . S
N534 C537 1.350 . S
N535 S533 1.610 . S
N535 C536 1.351 . S
C536 C530 1.428 . S
C536 N535 1.351 . S
C536 C537 1.434 . S
C537 C528 1.429 . S
C537 N534 1.350 . S
C537 C536 1.434 . S
C538 C539 1.369 . S
C538 C540 1.419 . S
C538 H542 0.930 . S
C539 C538 1.369 . S
C539 C548 1.429 . S
C540 C538 1.419 . S
C540 C541 1.363 . S
C540 H543 0.929 . S
C541 C540 1.363 . S
C541 C547 1.428 . S
H542 C538 0.930 . S
H543 C540 0.929 . S
S544 N545 1.613 . S
S544 N546 1.610 . S
N545 S544 1.613 . S
N545 C548 1.350 . S
N546 S544 1.610 . S
N546 C547 1.351 . S
C547 C541 1.428 . S
C547 N546 1.351 . S
C547 C548 1.434 . S
C548 C539 1.429 . S
C548 N545 1.350 . S
C548 C547 1.434 . S
C549 C550 1.369 . S
C549 C551 1.419 . S
C549 H553 0.930 . S
C550 C549 1.369 . S
C550 C559 1.429 . S
C551 C549 1.419 . S
C551 C552 1.363 . S
C551 H554 0.929 . S
C552 C551 1.363 . S
C552 C558 1.428 . S
H553 C549 0.930 . S
H554 C551 0.929 . S
S555 N556 1.613 . S
S555 N557 1.610 . S
N556 S555 1.613 . S
N556 C559 1.350 . S
N557 S555 1.610 . S
N557 C558 1.351 . S
C558 C552 1.428 . S
C558 N557 1.351 . S
C558 C559 1.434 . S
C559 C550 1.429 . S
C559 N556 1.350 . S
C559 C558 1.434 . S
C560 C561 1.369 1_565 S
C560 C562 1.419 . S
C560 H564 0.930 . S
C561 C560 1.369 1_545 S
C561 C570 1.429 1_545 S
C562 C560 1.419 . S
C562 C563 1.363 . S
C562 H565 0.929 . S
C563 C562 1.363 . S
C563 C569 1.428 . S
H564 C560 0.930 . S
H565 C562 0.929 . S
S566 N567 1.613 1_565 S
S566 N568 1.610 . S
N567 S566 1.613 1_545 S
N567 C570 1.350 1_545 S
N568 S566 1.610 . S
N568 C569 1.351 . S
C569 C563 1.428 . S
C569 N568 1.351 . S
C569 C570 1.434 . S
C570 C561 1.429 1_565 S
C570 N567 1.350 1_565 S
C570 C569 1.434 . S
C571 C572 1.369 . S
C571 C573 1.419 . S
C571 H575 0.930 . S
C572 C571 1.369 . S
C572 C581 1.441 . S
C573 C571 1.419 . S
C573 C574 1.363 . S
C573 H576 0.929 . S
C574 C573 1.363 . S
C574 C580 1.428 . S
H575 C571 0.930 . S
H576 C573 0.929 . S
S577 N578 1.613 . S
S577 N579 1.610 . S
N578 S577 1.613 . S
N578 C581 1.331 1_554 S
N579 S577 1.610 . S
N579 C580 1.351 1_554 S
C580 C574 1.428 . S
C580 N579 1.351 1_556 S
C580 C581 1.441 . S
C581 C572 1.441 . S
C581 N578 1.331 1_556 S
C581 C580 1.441 . S
C582 C583 1.369 . S
C582 C584 1.419 . S
C582 H586 0.930 . S
C583 C582 1.369 . S
C583 C592 1.429 . S
C584 C582 1.419 . S
C584 C585 1.363 . S
C584 H587 0.929 . S
C585 C584 1.363 . S
C585 C591 1.428 . S
H586 C582 0.930 . S
H587 C584 0.929 . S
S588 N589 1.613 . S
S588 N590 1.610 . S
N589 S588 1.613 . S
N589 C592 1.350 . S
N590 S588 1.610 . S
N590 C591 1.351 . S
C591 C585 1.428 . S
C591 N590 1.351 . S
C591 C592 1.434 . S
C592 C583 1.429 . S
C592 N589 1.350 . S
C592 C591 1.434 . S
C593 C594 1.369 . S
C593 C595 1.419 . S
C593 H597 0.930 . S
C594 C593 1.369 . S
C594 C603 1.429 . S
C595 C593 1.419 . S
C595 C596 1.363 . S
C595 H598 0.929 . S
C596 C595 1.363 . S
C596 C602 1.428 . S
H597 C593 0.930 . S
H598 C595 0.929 . S
S599 N600 1.613 . S
S599 N601 1.610 . S
N600 S599 1.613 . S
N600 C603 1.350 . S
N601 S599 1.610 . S
N601 C602 1.351 . S
C602 C596 1.428 . S
C602 N601 1.351 . S
C602 C603 1.434 . S
C603 C594 1.429 . S
C603 N600 1.350 . S
C603 C602 1.434 . S
C604 C605 1.369 . S
C604 C606 1.419 . S
C604 H608 0.930 . S
C605 C604 1.369 . S
C605 C614 1.429 . S
C606 C604 1.419 . S
C606 C607 1.363 . S
C606 H609 0.929 . S
C607 C606 1.363 . S
C607 C613 1.428 . S
H608 C604 0.930 . S
H609 C606 0.929 . S
S610 N611 1.613 . S
S610 N612 1.610 . S
N611 S610 1.613 . S
N611 C614 1.350 . S
N612 S610 1.610 . S
N612 C613 1.351 . S
C613 C607 1.428 . S
C613 N612 1.351 . S
C613 C614 1.434 . S
C614 C605 1.429 . S
C614 N611 1.350 . S
C614 C613 1.434 . S
C615 C616 1.369 . S
C615 C617 1.419 . S
C615 H619 0.927 1_545 S
C616 C615 1.369 . S
C616 C625 1.429 . S
C617 C615 1.419 . S
C617 C618 1.363 . S
C617 H620 0.929 . S
C618 C617 1.363 . S
C618 C624 1.428 . S
H619 C615 0.927 1_565 S
H620 C617 0.929 . S
S621 N622 1.613 . S
S621 N623 1.610 . S
N622 S621 1.613 . S
N622 C625 1.350 . S
N623 S621 1.610 . S
N623 C624 1.351 . S
C624 C618 1.428 . S
C624 N623 1.351 . S
C624 C625 1.434 . S
C625 C616 1.429 . S
C625 N622 1.350 . S
C625 C624 1.434 . S
C626 C627 1.369 . S
C626 C628 1.419 . S
C626 H630 0.930 . S
C627 C626 1.369 . S
C627 C636 1.429 . S
C628 C626 1.419 . S
C628 C629 1.363 . S
C628 H631 0.929 . S
C629 C628 1.363 . S
C629 C635 1.428 . S
H630 C626 0.930 . S
H631 C628 0.929 . S
S632 N633 1.613 . S
S632 N634 1.610 . S
N633 S632 1.613 . S
N633 C636 1.350 . S
N634 S632 1.610 . S
N634 C635 1.351 . S
C635 C629 1.428 . S
C635 N634 1.351 . S
C635 C636 1.434 . S
C636 C627 1.429 . S
C636 N633 1.350 . S
C636 C635 1.434 . S
C637 C638 1.369 . S
C637 C639 1.419 . S
C637 H641 0.930 . S
C638 C637 1.369 . S
C638 C647 1.429 . S
C639 C637 1.419 . S
C639 C640 1.363 . S
C639 H642 0.929 . S
C640 C639 1.363 . S
C640 C646 1.428 . S
H641 C637 0.930 . S
H642 C639 0.929 . S
S643 N644 1.613 . S
S643 N645 1.610 . S
N644 S643 1.613 . S
N644 C647 1.350 . S
N645 S643 1.610 . S
N645 C646 1.351 . S
C646 C640 1.428 . S
C646 N645 1.351 . S
C646 C647 1.434 . S
C647 C638 1.429 . S
C647 N644 1.350 . S
C647 C646 1.434 . S
C648 C649 1.369 . S
C648 C650 1.419 . S
C648 H652 0.930 . S
C649 C648 1.369 . S
C649 C658 1.429 . S
C650 C648 1.419 . S
C650 C651 1.363 . S
C650 H653 0.929 . S
C651 C650 1.363 . S
C651 C657 1.428 . S
H652 C648 0.930 . S
H653 C650 0.929 . S
S654 N655 1.613 . S
S654 N656 1.610 . S
N655 S654 1.613 . S
N655 C658 1.350 . S
N656 S654 1.610 . S
N656 C657 1.351 . S
C657 C651 1.428 . S
C657 N656 1.351 . S
C657 C658 1.434 . S
C658 C649 1.429 . S
C658 N655 1.350 . S
C658 C657 1.434 . S
C659 C660 1.369 . S
C659 C661 1.419 . S
C659 H663 0.930 . S
C660 C659 1.369 . S
C660 C669 1.429 . S
C661 C659 1.419 . S
C661 C662 1.363 . S
C661 H664 0.929 . S
C662 C661 1.363 . S
C662 C668 1.428 . S
H663 C659 0.930 . S
H664 C661 0.929 . S
S665 N666 1.613 . S
S665 N667 1.610 . S
N666 S665 1.613 . S
N666 C669 1.350 . S
N667 S665 1.610 . S
N667 C668 1.351 . S
C668 C662 1.428 . S
C668 N667 1.351 . S
C668 C669 1.434 . S
C669 C660 1.429 . S
C669 N666 1.350 . S
C669 C668 1.434 . S
C670 C671 1.369 1_556 S
C670 C672 1.419 . S
C670 H674 0.930 1_655 S
C671 C670 1.369 1_554 S
C671 C680 1.429 . S
C672 C670 1.419 . S
C672 C673 1.363 . S
C672 H675 0.929 . S
C673 C672 1.363 . S
C673 C679 1.428 . S
H674 C670 0.930 1_455 S
H675 C672 0.929 . S
S676 N677 1.613 . S
S676 N678 1.610 1_554 S
N677 S676 1.613 . S
N677 C680 1.350 . S
N678 S676 1.610 1_556 S
N678 C679 1.351 . S
C679 C673 1.428 . S
C679 N678 1.351 . S
C679 C680 1.434 1_556 S
C680 C671 1.429 . S
C680 N677 1.350 . S
C680 C679 1.434 1_554 S
C681 C682 1.369 . S
C681 C683 1.419 . S
C681 H685 0.930 . S
C682 C681 1.369 . S
C682 C691 1.429 . S
C683 C681 1.419 . S
C683 C684 1.363 . S
C683 H686 0.929 . S
C684 C683 1.363 . S
C684 C690 1.428 . S
H685 C681 0.930 . S
H686 C683 0.929 . S
S687 N688 1.613 . S
S687 N689 1.610 . S
N688 S687 1.613 . S
N688 C691 1.350 . S
N689 S687 1.610 . S
N689 C690 1.351 . S
C690 C684 1.428 . S
C690 N689 1.351 . S
C690 C691 1.434 . S
C691 C682 1.429 . S
C691 N688 1.350 . S
C691 C690 1.434 . S
C692 C693 1.369 . S
C692 C694 1.419 . S
C692 H696 0.930 . S
C693 C692 1.369 . S
C693 C702 1.429 . S
C694 C692 1.419 . S
C694 C695 1.363 . S
C694 H697 0.929 . S
C695 C694 1.363 . S
C695 C701 1.428 . S
H696 C692 0.930 . S
H697 C694 0.929 . S
S698 N699 1.613 . S
S698 N700 1.610 . S
N699 S698 1.613 . S
N699 C702 1.350 . S
N700 S698 1.610 . S
N700 C701 1.351 . S
C701 C695 1.428 . S
C701 N700 1.351 . S
C701 C702 1.434 . S
C702 C693 1.429 . S
C702 N699 1.350 . S
C702 C701 1.434 . S
C703 C704 1.369 . S
C703 C705 1.419 . S
C703 H707 0.930 . S
C704 C703 1.369 . S
C704 C713 1.429 . S
C705 C703 1.419 . S
C705 C706 1.363 . S
C705 H708 0.929 . S
C706 C705 1.363 . S
C706 C712 1.428 . S
H707 C703 0.930 . S
H708 C705 0.929 . S
S709 N710 1.613 . S
S709 N711 1.610 . S
N710 S709 1.613 . S
N710 C713 1.350 . S
N711 S709 1.610 . S
N711 C712 1.351 . S
C712 C706 1.428 . S
C712 N711 1.351 . S
C712 C713 1.434 . S
C713 C704 1.429 . S
C713 N710 1.350 . S
C713 C712 1.434 . S
C714 C715 1.369 . S
C714 C716 1.419 . S
C714 H718 0.930 . S
C715 C714 1.369 . S
C715 C724 1.429 . S
C716 C714 1.419 . S
C716 C717 1.363 . S
C716 H719 0.929 . S
C717 C716 1.363 . S
C717 C723 1.428 . S
H718 C714 0.930 . S
H719 C716 0.929 . S
S720 N721 1.613 . S
S720 N722 1.610 1_455 S
N721 S720 1.613 . S
N721 C724 1.350 1_455 S
N722 S720 1.610 1_655 S
N722 C723 1.351 . S
C723 C717 1.428 . S
C723 N722 1.351 . S
C723 C724 1.434 . S
C724 C715 1.429 . S
C724 N721 1.350 1_655 S
C724 C723 1.434 . S
C725 C726 1.369 . S
C725 C727 1.419 . S
C725 H729 0.930 . S
C726 C725 1.369 . S
C726 C735 1.429 . S
C727 C725 1.419 . S
C727 C728 1.363 . S
C727 H730 0.929 . S
C728 C727 1.363 . S
C728 C734 1.428 . S
H729 C725 0.930 . S
H730 C727 0.929 . S
S731 N732 1.613 . S
S731 N733 1.610 . S
N732 S731 1.613 . S
N732 C735 1.350 . S
N733 S731 1.610 . S
N733 C734 1.351 . S
C734 C728 1.428 . S
C734 N733 1.351 . S
C734 C735 1.434 . S
C735 C726 1.429 . S
C735 N732 1.350 . S
C735 C734 1.434 . S
C736 C737 1.369 . S
C736 C738 1.419 . S
C736 H740 0.930 . S
C737 C736 1.369 . S
C737 C746 1.429 . S
C738 C736 1.419 . S
C738 C739 1.363 . S
C738 H741 0.929 1_556 S
C739 C738 1.363 . S
C739 C745 1.428 . S
H740 C736 0.930 . S
H741 C738 0.929 1_554 S
S742 N743 1.613 . S
S742 N744 1.610 . S
N743 S742 1.613 . S
N743 C746 1.350 . S
N744 S742 1.610 . S
N744 C745 1.351 . S
C745 C739 1.428 . S
C745 N744 1.351 . S
C745 C746 1.434 . S
C746 C737 1.429 . S
C746 N743 1.350 . S
C746 C745 1.434 . S
C747 C748 1.369 . S
C747 C749 1.419 . S
C747 H751 0.930 . S
C748 C747 1.369 . S
C748 C757 1.429 . S
C749 C747 1.419 . S
C749 C750 1.363 . S
C749 H752 0.929 . S
C750 C749 1.363 . S
C750 C756 1.428 . S
H751 C747 0.930 . S
H752 C749 0.929 . S
S753 N754 1.613 . S
S753 N755 1.610 . S
N754 S753 1.613 . S
N754 C757 1.350 . S
N755 S753 1.610 . S
N755 C756 1.351 . S
C756 C750 1.428 . S
C756 N755 1.351 . S
C756 C757 1.434 . S
C757 C748 1.429 . S
C757 N754 1.350 . S
C757 C756 1.434 . S
C758 C759 1.369 . S
C758 C760 1.419 . S
C758 H762 0.930 1_455 S
C759 C758 1.369 . S
C759 C768 1.429 . S
C760 C758 1.419 . S
C760 C761 1.363 . S
C760 H763 0.929 . S
C761 C760 1.363 . S
C761 C767 1.428 . S
H762 C758 0.930 1_655 S
H763 C760 0.929 . S
S764 N765 1.613 . S
S764 N766 1.610 . S
N765 S764 1.613 . S
N765 C768 1.350 . S
N766 S764 1.610 . S
N766 C767 1.351 . S
C767 C761 1.428 . S
C767 N766 1.351 . S
C767 C768 1.434 . S
C768 C759 1.429 . S
C768 N765 1.350 . S
C768 C767 1.434 . S
C769 C770 1.369 . S
C769 C771 1.419 . S
C769 H773 0.930 . S
C770 C769 1.369 . S
C770 C779 1.429 . S
C771 C769 1.419 . S
C771 C772 1.363 . S
C771 H774 0.929 . S
C772 C771 1.363 . S
C772 C778 1.428 . S
H773 C769 0.930 . S
H774 C771 0.929 . S
S775 N776 1.613 . S
S775 N777 1.610 . S
N776 S775 1.613 . S
N776 C779 1.350 . S
N777 S775 1.610 . S
N777 C778 1.351 . S
C778 C772 1.428 . S
C778 N777 1.351 . S
C778 C779 1.434 . S
C779 C770 1.429 . S
C779 N776 1.350 . S
C779 C778 1.434 . S
C780 C781 1.369 . S
C780 C782 1.419 . S
C780 H784 0.930 . S
C781 C780 1.369 . S
C781 C790 1.429 . S
C782 C780 1.419 . S
C782 C783 1.363 . S
C782 H785 0.929 . S
C783 C782 1.363 . S
C783 C789 1.428 . S
H784 C780 0.930 . S
H785 C782 0.929 . S
S786 N787 1.613 . S
S786 N788 1.610 . S
N787 S786 1.613 . S
N787 C790 1.350 . S
N788 S786 1.610 . S
N788 C789 1.351 . S
C789 C783 1.428 . S
C789 N788 1.351 . S
C789 C790 1.434 . S
C790 C781 1.429 . S
C790 N787 1.350 . S
C790 C789 1.434 . S
C791 C792 1.369 . S
C791 C793 1.419 . S
C791 H795 0.930 . S
C792 C791 1.369 . S
C792 C801 1.429 . S
C793 C791 1.419 . S
C793 C794 1.363 . S
C793 H796 0.929 . S
C794 C793 1.363 . S
C794 C800 1.428 . S
H795 C791 0.930 . S
H796 C793 0.929 . S
S797 N798 1.613 . S
S797 N799 1.610 1_554 S
N798 S797 1.613 . S
N798 C801 1.350 1_554 S
N799 S797 1.610 1_556 S
N799 C800 1.351 . S
C800 C794 1.428 . S
C800 N799 1.351 . S
C800 C801 1.434 . S
C801 C792 1.429 . S
C801 N798 1.350 1_556 S
C801 C800 1.434 . S
C802 C803 1.369 . S
C802 C804 1.419 . S
C802 H806 0.930 1_455 S
C803 C802 1.369 . S
C803 C812 1.429 . S
C804 C802 1.419 . S
C804 C805 1.363 . S
C804 H807 0.929 . S
C805 C804 1.363 . S
C805 C811 1.428 . S
H806 C802 0.930 1_655 S
H807 C804 0.929 . S
S808 N809 1.613 . S
S808 N810 1.610 . S
N809 S808 1.613 . S
N809 C812 1.350 . S
N810 S808 1.610 . S
N810 C811 1.351 . S
C811 C805 1.428 . S
C811 N810 1.351 . S
C811 C812 1.434 . S
C812 C803 1.429 . S
C812 N809 1.350 . S
C812 C811 1.434 . S
C813 C814 1.369 . S
C813 C815 1.419 . S
C813 H817 0.930 . S
C814 C813 1.369 . S
C814 C823 1.429 . S
C815 C813 1.419 . S
C815 C816 1.363 . S
C815 H818 0.929 . S
C816 C815 1.363 . S
C816 C822 1.428 . S
H817 C813 0.930 . S
H818 C815 0.929 . S
S819 N820 1.613 . S
S819 N821 1.610 . S
N820 S819 1.613 . S
N820 C823 1.350 . S
N821 S819 1.610 . S
N821 C822 1.351 . S
C822 C816 1.428 . S
C822 N821 1.351 . S
C822 C823 1.434 . S
C823 C814 1.429 . S
C823 N820 1.350 . S
C823 C822 1.434 . S
C824 C825 1.369 . S
C824 C826 1.419 . S
C824 H828 0.930 . S
C825 C824 1.369 . S
C825 C834 1.429 . S
C826 C824 1.419 . S
C826 C827 1.363 . S
C826 H829 0.929 . S
C827 C826 1.363 . S
C827 C833 1.428 . S
H828 C824 0.930 . S
H829 C826 0.929 . S
S830 N831 1.613 . S
S830 N832 1.610 . S
N831 S830 1.613 . S
N831 C834 1.350 1_455 S
N832 S830 1.610 . S
N832 C833 1.351 1_455 S
C833 C827 1.428 . S
C833 N832 1.351 1_655 S
C833 C834 1.434 . S
C834 C825 1.429 . S
C834 N831 1.350 1_655 S
C834 C833 1.434 . S
C835 C836 1.369 . S
C835 C837 1.419 . S
C835 H839 0.930 . S
C836 C835 1.369 . S
C836 C845 1.429 . S
C837 C835 1.419 . S
C837 C838 1.363 . S
C837 H840 0.929 . S
C838 C837 1.363 . S
C838 C844 1.428 . S
H839 C835 0.930 . S
H840 C837 0.929 . S
S841 N842 1.613 . S
S841 N843 1.610 . S
N842 S841 1.613 . S
N842 C845 1.350 . S
N843 S841 1.610 . S
N843 C844 1.351 . S
C844 C838 1.428 . S
C844 N843 1.351 . S
C844 C845 1.434 . S
C845 C836 1.429 . S
C845 N842 1.350 . S
C845 C844 1.434 . S
C846 C847 1.369 . S
C846 C848 1.419 . S
C846 H850 0.930 . S
C847 C846 1.369 . S
C847 C856 1.429 . S
C848 C846 1.419 . S
C848 C849 1.363 . S
C848 H851 0.929 . S
C849 C848 1.363 . S
C849 C855 1.428 . S
H850 C846 0.930 . S
H851 C848 0.929 . S
S852 N853 1.613 . S
S852 N854 1.610 . S
N853 S852 1.613 . S
N853 C856 1.350 . S
N854 S852 1.610 . S
N854 C855 1.351 . S
C855 C849 1.428 . S
C855 N854 1.351 . S
C855 C856 1.434 . S
C856 C847 1.429 . S
C856 N853 1.350 . S
C856 C855 1.434 . S
C857 C858 1.369 . S
C857 C859 1.419 1_545 S
C857 H861 0.930 . S
C858 C857 1.369 . S
C858 C867 1.429 1_545 S
C859 C857 1.419 1_565 S
C859 C860 1.363 . S
C859 H862 0.929 . S
C860 C859 1.363 . S
C860 C866 1.428 . S
H861 C857 0.930 . S
H862 C859 0.929 . S
S863 N864 1.613 . S
S863 N865 1.610 . S
N864 S863 1.613 . S
N864 C867 1.350 1_554 S
N865 S863 1.610 . S
N865 C866 1.351 1_554 S
C866 C860 1.428 . S
C866 N865 1.351 1_556 S
C866 C867 1.434 . S
C867 C858 1.429 1_565 S
C867 N864 1.350 1_556 S
C867 C866 1.434 . S
C868 C869 1.369 . S
C868 C870 1.419 . S
C868 H872 0.930 . S
C869 C868 1.369 . S
C869 C878 1.429 . S
C870 C868 1.419 . S
C870 C871 1.363 . S
C870 H873 0.929 . S
C871 C870 1.363 . S
C871 C877 1.428 . S
H872 C868 0.930 . S
H873 C870 0.929 . S
S874 N875 1.613 . S
S874 N876 1.610 . S
N875 S874 1.613 . S
N875 C878 1.350 . S
N876 S874 1.610 . S
N876 C877 1.351 . S
C877 C871 1.428 . S
C877 N876 1.351 . S
C877 C878 1.434 . S
C878 C869 1.429 . S
C878 N875 1.350 . S
C878 C877 1.434 . S
C879 C880 1.369 . S
C879 C881 1.419 . S
C879 H883 0.930 . S
C880 C879 1.369 . S
C880 C889 1.429 . S
C881 C879 1.419 . S
C881 C882 1.363 . S
C881 H884 0.929 . S
C882 C881 1.363 . S
C882 C888 1.428 . S
H883 C879 0.930 . S
H884 C881 0.929 . S
S885 N886 1.613 . S
S885 N887 1.610 . S
N886 S885 1.613 . S
N886 C889 1.350 . S
N887 S885 1.610 . S
N887 C888 1.351 . S
C888 C882 1.428 . S
C888 N887 1.351 . S
C888 C889 1.434 . S
C889 C880 1.429 . S
C889 N886 1.350 . S
C889 C888 1.434 . S
C890 C891 1.369 . S
C890 C892 1.419 . S
C890 H894 0.930 . S
C891 C890 1.369 . S
C891 C900 1.429 . S
C892 C890 1.419 . S
C892 C893 1.363 . S
C892 H895 0.929 . S
C893 C892 1.363 . S
C893 C899 1.428 . S
H894 C890 0.930 . S
H895 C892 0.929 . S
S896 N897 1.613 . S
S896 N898 1.610 . S
N897 S896 1.613 . S
N897 C900 1.350 . S
N898 S896 1.610 . S
N898 C899 1.351 . S
C899 C893 1.428 . S
C899 N898 1.351 . S
C899 C900 1.434 . S
C900 C891 1.429 . S
C900 N897 1.350 . S
C900 C899 1.434 . S
C901 C902 1.369 . S
C901 C903 1.419 . S
C901 H905 0.930 . S
C902 C901 1.369 . S
C902 C911 1.429 . S
C903 C901 1.419 . S
C903 C904 1.363 . S
C903 H906 0.929 . S
C904 C903 1.363 . S
C904 C910 1.428 . S
H905 C901 0.930 . S
H906 C903 0.929 . S
S907 N908 1.613 . S
S907 N909 1.610 . S
N908 S907 1.613 . S
N908 C911 1.350 . S
N909 S907 1.610 . S
N909 C910 1.351 . S
C910 C904 1.428 . S
C910 N909 1.351 . S
C910 C911 1.434 . S
C911 C902 1.429 . S
C911 N908 1.350 . S
C911 C910 1.434 . S
C387 C373 1.331 . S
C385 C8 1.386 . S
C396 C23 1.366 . S
C398 C326 1.218 . S
C407 C35 1.423 . S
C409 C337 1.345 . S
C420 C362 1.145 . S
C418 C45 1.387 . S
C429 C22 1.444 . S
C431 C380 1.349 . S
C442 C319 1.170 . S
C440 C31 1.312 . S
C453 C344 1.341 . S
C451 C49 1.482 1_554 S
C464 C355 1.209 . S
C462 C9 1.329 . S
C473 C65 1.354 . S
C475 C356 1.371 . S
C486 C382 1.191 . S
C484 C73 1.368 . S
C497 C320 1.424 . S
C495 C93 1.376 . S
C508 C346 1.131 . S
C506 C101 1.364 . S
C517 C59 1.368 . S
C519 C328 1.311 . S
C528 C79 1.361 . S
C530 C338 1.223 . S
C539 C87 1.382 . S
C541 C364 1.304 . S
C552 C374 1.319 . S
C550 C107 1.409 . S
C563 C211 1.445 . S
C561 C106 1.487 . S
C574 C194 1.326 . S
C572 C119 1.410 . S
C585 C220 1.276 . S
C583 C134 1.401 . S
C596 C238 1.287 . S
C594 C147 1.406 . S
C605 C64 1.369 . S
C607 C212 1.231 . S
C616 C78 1.426 1_545 S
C618 C182 1.353 . S
C627 C133 1.490 . S
C629 C236 1.147 . S
C638 C161 1.445 . S
C640 C193 1.169 . S
C651 C247 1.326 . S
C649 C36 1.385 . S
C662 C272 1.215 . S
C660 C51 1.378 . S
C671 C7 1.422 . S
C673 C283 1.345 . S
C682 C17 1.393 . S
C684 C308 1.144 . S
C695 C254 1.359 . S
C693 C50 1.441 1_554 S
C706 C265 1.180 . S
C704 C3 1.319 . S
C715 C21 1.483 . S
C717 C290 1.342 . S
C728 C301 1.211 . S
C726 C37 1.337 . S
C737 C163 1.346 . S
C739 C302 1.375 . S
C748 C115 1.366 . S
C750 C256 1.186 . S
C761 C266 1.427 . S
C759 C135 1.378 1_455 S
C770 C143 1.367 . S
C772 C292 1.134 . S
C783 C274 1.307 . S
C781 C157 1.376 . S
C792 C121 1.348 . S
C794 C284 1.224 . S
C805 C310 1.302 . S
C803 C129 1.374 1_455 S
C816 C248 1.322 . S
C814 C149 1.394 . S
C827 C175 1.448 . S
C825 C148 1.488 . S
C838 C230 1.317 . S
C836 C77 1.410 1_545 S
C847 C92 1.396 . S
C849 C184 1.288 . S
C860 C202 1.296 . S
C858 C105 1.405 . S
C871 C176 1.231 . S
C869 C162 1.369 . S
C880 C120 1.428 . S
C882 C218 1.346 . S
C891 C91 1.494 . S
C893 C200 1.135 . S
C902 C63 1.449 . S
C904 C229 1.161 . S
