# Generated by pormake.
# Topology zzz, (3,6)-cn, num edge types: 1
# Building blocks:
#     Node 0, Type 0, BuildingBlock: VETTIZ_charged_linker_0, # of connection points: 3
#     Node 1, Type 0, BuildingBlock: VETTIZ_charged_linker_0, # of connection points: 3
#     Node 2, Type 0, BuildingBlock: VETTIZ_charged_linker_0, # of connection points: 3
#     Node 3, Type 0, BuildingBlock: VETTIZ_charged_linker_0, # of connection points: 3
#     Node 4, Type 0, BuildingBlock: VETTIZ_charged_linker_0, # of connection points: 3
#     Node 5, Type 0, BuildingBlock: VETTIZ_charged_linker_0, # of connection points: 3
#     Node 6, Type 0, BuildingBlock: VETTIZ_charged_linker_0, # of connection points: 3
#     Node 7, Type 0, BuildingBlock: VETTIZ_charged_linker_0, # of connection points: 3
#     Node 8, Type 1, BuildingBlock: LEVNOQ01_clean_sbu_1, # of connection points: 6
#     Node 9, Type 1, BuildingBlock: LEVNOQ01_clean_sbu_1, # of connection points: 6
#     Node 10, Type 1, BuildingBlock: LEVNOQ01_clean_sbu_1, # of connection points: 6
#     Node 11, Type 1, BuildingBlock: LEVNOQ01_clean_sbu_1, # of connection points: 6
#     Edge 12, Type (0, 1), BuildingBlock: KIFKEQ_clean_linker_1, # of connection points: 2
#     Edge 13, Type (0, 1), BuildingBlock: KIFKEQ_clean_linker_1, # of connection points: 2
#     Edge 14, Type (0, 1), BuildingBlock: KIFKEQ_clean_linker_1, # of connection points: 2
#     Edge 15, Type (0, 1), BuildingBlock: KIFKEQ_clean_linker_1, # of connection points: 2
#     Edge 16, Type (0, 1), BuildingBlock: KIFKEQ_clean_linker_1, # of connection points: 2
#     Edge 17, Type (0, 1), BuildingBlock: KIFKEQ_clean_linker_1, # of connection points: 2
#     Edge 18, Type (0, 1), BuildingBlock: KIFKEQ_clean_linker_1, # of connection points: 2
#     Edge 19, Type (0, 1), BuildingBlock: KIFKEQ_clean_linker_1, # of connection points: 2
#     Edge 20, Type (0, 1), BuildingBlock: KIFKEQ_clean_linker_1, # of connection points: 2
#     Edge 21, Type (0, 1), BuildingBlock: KIFKEQ_clean_linker_1, # of connection points: 2
#     Edge 22, Type (0, 1), BuildingBlock: KIFKEQ_clean_linker_1, # of connection points: 2
#     Edge 23, Type (0, 1), BuildingBlock: KIFKEQ_clean_linker_1, # of connection points: 2
#     Edge 24, Type (0, 1), BuildingBlock: KIFKEQ_clean_linker_1, # of connection points: 2
#     Edge 25, Type (0, 1), BuildingBlock: KIFKEQ_clean_linker_1, # of connection points: 2
#     Edge 26, Type (0, 1), BuildingBlock: KIFKEQ_clean_linker_1, # of connection points: 2
#     Edge 27, Type (0, 1), BuildingBlock: KIFKEQ_clean_linker_1, # of connection points: 2
#     Edge 28, Type (0, 1), BuildingBlock: KIFKEQ_clean_linker_1, # of connection points: 2
#     Edge 29, Type (0, 1), BuildingBlock: KIFKEQ_clean_linker_1, # of connection points: 2
#     Edge 30, Type (0, 1), BuildingBlock: KIFKEQ_clean_linker_1, # of connection points: 2
#     Edge 31, Type (0, 1), BuildingBlock: KIFKEQ_clean_linker_1, # of connection points: 2
#     Edge 32, Type (0, 1), BuildingBlock: KIFKEQ_clean_linker_1, # of connection points: 2
#     Edge 33, Type (0, 1), BuildingBlock: KIFKEQ_clean_linker_1, # of connection points: 2
#     Edge 34, Type (0, 1), BuildingBlock: KIFKEQ_clean_linker_1, # of connection points: 2
#     Edge 35, Type (0, 1), BuildingBlock: KIFKEQ_clean_linker_1, # of connection points: 2
# Relax obj value: 0.312
# Max RMSD: 0.220
# Mean RMSD: 0.210
data_MOF--net-zzz--node1-LEVNOQ01_clean_sbu_1--node2-VETTIZ_charged_linker_0--edge1-KIFKEQ_clean_linker_1
_symmetry_space_group_name_H-M    P1
_symmetry_Int_Tables_number       1
_symmetry_cell_setting            triclinic
loop_
_symmetry_equiv_pos_as_xyz
'x, y, z'
_cell_length_a     55.003936
_cell_length_b     58.223023
_cell_length_c     21.149495
_cell_angle_alpha  89.89252
_cell_angle_beta   90.014197
_cell_angle_gamma 88.363564
loop_
_atom_site_label
_atom_site_type_symbol
_atom_site_fract_x
_atom_site_fract_y
_atom_site_fract_z
_atom_type_partial_charge
C0 C 0.80398 0.58608 0.33972 0.0
C1 C 0.82907 0.5883 0.35437 0.0
C2 C 0.84457 0.5968 0.30765 0.0
C3 C 0.81131 0.6003 0.23335 0.0
C4 C 0.79538 0.59259 0.27861 0.0
C5 C 0.76966 0.59163 0.25167 0.0
H6 H 0.6991 0.60126 0.98206 0.0
C7 C 0.79799 0.60445 0.17384 0.0
C8 C 0.7733 0.59965 0.18311 0.0
H9 H 0.67464 0.57769 0.16389 0.0
H10 H 0.71414 0.58683 0.21034 0.0
H11 H 0.72958 0.64449 0.02832 0.0
H12 H 0.74592 0.57368 0.9863 0.0
H13 H 0.77067 0.58865 0.95751 0.0
H14 H 0.7408 0.59485 0.92572 0.0
H15 H 0.73136 0.63369 0.94901 0.0
H16 H 0.7578 0.64409 0.98937 0.0
C17 C 0.75298 0.60856 0.28851 0.0
C18 C 0.76128 0.56663 0.25541 0.0
C19 C 0.84759 0.61944 0.97814 0.0
C20 C 0.8416 0.61933 0.91364 0.0
C21 C 0.81702 0.62238 0.89588 0.0
C22 C 0.79861 0.62272 0.94184 0.0
C23 C 0.8049 0.61943 0.00589 0.0
C24 C 0.82908 0.61882 0.02304 0.0
C25 C 0.83274 0.6139 0.09197 0.0
C26 C 0.80668 0.61113 0.11364 0.0
C27 C 0.79055 0.61401 0.06309 0.0
C28 C 0.84467 0.63517 0.12195 0.0
C29 C 0.84784 0.59096 0.09787 0.0
C30 C 0.70201 0.59831 0.03217 0.0
C31 C 0.6839 0.58852 0.06899 0.0
C32 C 0.68842 0.5851 0.13425 0.0
C33 C 0.71144 0.59002 0.16079 0.0
C34 C 0.73011 0.59807 0.12138 0.0
C35 C 0.72471 0.60253 0.05845 0.0
C36 C 0.74624 0.60959 0.02104 0.0
C37 C 0.76566 0.60927 0.07139 0.0
C38 C 0.75665 0.60228 0.13083 0.0
C39 C 0.74108 0.63417 0.995 0.0
C40 C 0.75125 0.59096 0.96958 0.0
H41 H 0.84922 0.60833 0.21512 0.0
H42 H 0.79158 0.57946 0.37459 0.0
H43 H 0.77562 0.55465 0.23665 0.0
H44 H 0.74481 0.56381 0.22716 0.0
H45 H 0.75753 0.56171 0.30518 0.0
H46 H 0.76103 0.62587 0.28982 0.0
H47 H 0.75054 0.60265 0.33803 0.0
H48 H 0.73487 0.61068 0.2664 0.0
H49 H 0.86624 0.61678 0.99358 0.0
H50 H 0.81197 0.62239 0.84636 0.0
H51 H 0.78019 0.62378 0.92522 0.0
H52 H 0.84199 0.65089 0.09246 0.0
H53 H 0.8646 0.6323 0.1279 0.0
H54 H 0.83648 0.63982 0.16824 0.0
H55 H 0.84264 0.57863 0.06038 0.0
H56 H 0.84476 0.58167 0.14256 0.0
H57 H 0.86762 0.59386 0.09295 0.0
H58 H 0.86389 0.59816 0.31648 0.0
C59 C 0.83593 0.60273 0.24803 0.0
C60 C 0.99225 0.80718 0.93946 0.0
C61 C 0.9919 0.83117 0.93926 0.0
C62 C 0.99213 0.84328 0.99683 0.0
C63 C 0.99313 0.8076 0.05438 0.0
C64 C 0.99255 0.79579 0.99783 0.0
C65 C 0.99244 0.77035 0.00768 0.0
H66 H 1.00113 0.67737 0.19618 0.0
C67 C 0.9941 0.79072 0.1062 0.0
C68 C 0.99358 0.76891 0.07956 0.0
H69 H 0.99057 0.68276 0.99384 0.0
H70 H 0.98926 0.7233 1.00037 0.0
H71 H 0.03811 0.72457 0.21465 0.0
H72 H 0.95925 0.72301 0.22949 0.0
H73 H 0.9738 0.73562 0.2953 0.0
H74 H 0.97836 0.70545 0.2803 0.0
H75 H 0.02385 0.70573 0.27015 0.0
H76 H 0.02591 0.73585 0.28657 0.0
C77 C 0.01572 0.75988 0.97607 0.0
C78 C 0.96799 0.76166 0.98099 0.0
C79 C 0.99811 0.82136 0.32751 0.0
C80 C 0.99927 0.81176 0.38786 0.0
C81 C 0.99995 0.78755 0.39397 0.0
C82 C 0.99938 0.77325 0.33959 0.0
C83 C 0.99806 0.78337 0.2789 0.0
C84 C 0.99754 0.80714 0.2746 0.0
C85 C 0.9963 0.81572 0.20833 0.0
C86 C 0.99563 0.79341 0.17244 0.0
C87 C 0.99683 0.7741 0.21291 0.0
C88 C 0.01998 0.82885 0.19478 0.0
C89 C 0.97229 0.83024 0.20076 0.0
C90 C 0.99835 0.68761 0.15391 0.0
C91 C 0.99602 0.67697 0.09402 0.0
C92 C 0.99233 0.69061 0.04007 0.0
C93 C 0.99159 0.71431 0.04403 0.0
C94 C 0.99433 0.72495 0.10278 0.0
C95 C 0.99714 0.71198 0.1572 0.0
C96 C 0.9983 0.72746 0.2152 0.0
C97 C 0.99646 0.75151 0.18546 0.0
C98 C 0.99448 0.74935 0.11931 0.0
C99 C 0.02286 0.72319 0.24884 0.0
C100 C 0.9763 0.72265 0.25779 0.0
H101 H 0.99368 0.84197 0.09602 0.0
H102 H 0.99271 0.7976 0.89558 0.0
H103 H 0.95385 0.77566 0.97752 0.0
H104 H 0.95971 0.74872 0.01218 0.0
H105 H 0.97037 0.75432 0.93288 0.0
H106 H 0.03134 0.77146 0.98168 0.0
H107 H 0.01292 0.75725 0.92461 0.0
H108 H 0.02204 0.74348 0.99759 0.0
H109 H 0.99778 0.83987 0.32141 0.0
H110 H 1.00112 0.77977 0.44045 0.0
H111 H 1.00015 0.75497 0.34645 0.0
H112 H 0.03563 0.82143 0.22209 0.0
H113 H 0.0179 0.84725 0.20808 0.0
H114 H 0.02587 0.82765 0.14489 0.0
H115 H 0.95791 0.82421 0.23331 0.0
H116 H 0.96411 0.8288 0.15324 0.0
H117 H 0.97514 0.84865 0.21137 0.0
H118 H 0.99282 0.86188 0.99721 0.0
C119 C 0.9929 0.83166 0.05424 0.0
C120 C 0.81069 0.92046 0.12178 0.0
C121 C 0.82204 0.91606 0.06274 0.0
C122 C 0.80971 0.90331 0.01713 0.0
C123 C 0.77425 0.90211 0.08452 0.0
C124 C 0.78684 0.91272 0.13225 0.0
C125 C 0.7713 0.91525 0.19143 0.0
H126 H 0.65603 0.91103 0.31535 0.0
C127 C 0.74907 0.89882 0.10559 0.0
C128 C 0.74695 0.90609 0.16899 0.0
H129 H 0.71994 0.93275 0.41468 0.0
H130 H 0.74499 0.92284 0.32268 0.0
H131 H 0.66849 0.93592 0.19044 0.0
H132 H 0.67769 0.86681 0.25726 0.0
H133 H 0.67234 0.86379 0.17599 0.0
H134 H 0.64934 0.87746 0.22539 0.0
H135 H 0.64391 0.91653 0.19827 0.0
H136 H 0.66109 0.9186 0.12619 0.0
C137 C 0.7695 0.94087 0.20973 0.0
C138 C 0.78267 0.89984 0.2436 0.0
C139 C 0.6845 0.88486 0.93977 0.0
C140 C 0.65895 0.88547 0.944 0.0
C141 C 0.64811 0.88255 0.00383 0.0
C142 C 0.66216 0.88248 0.05874 0.0
C143 C 0.68732 0.88546 0.05412 0.0
C144 C 0.6983 0.88521 0.9955 0.0
C145 C 0.72531 0.88832 1.00018 0.0
C146 C 0.72828 0.89213 0.07114 0.0
C147 C 0.70586 0.8909 0.10184 0.0
C148 C 0.7317 0.90995 0.96132 0.0
C149 C 0.73828 0.86579 0.97734 0.0
C150 C 0.67547 0.9133 0.31843 0.0
C151 C 0.68586 0.92252 0.37288 0.0
C152 C 0.7113 0.92578 0.3732 0.0
C153 C 0.72581 0.92012 0.31969 0.0
C154 C 0.71472 0.91159 0.26472 0.0
C155 C 0.68994 0.90811 0.26584 0.0
C156 C 0.68041 0.8996 0.20441 0.0
C157 C 0.70352 0.8977 0.16589 0.0
C158 C 0.72382 0.90513 0.20022 0.0
C159 C 0.66241 0.9184 0.17819 0.0
C160 C 0.66918 0.87577 0.21596 0.0
H161 H 0.7774 0.88753 0.98991 0.0
H162 H 0.81995 0.92999 0.158 0.0
H163 H 0.78659 0.88223 0.22515 0.0
H164 H 0.77043 0.89786 0.28442 0.0
H165 H 0.80006 0.9069 0.26055 0.0
H166 H 0.76522 0.95164 0.16746 0.0
H167 H 0.78697 0.94658 0.22992 0.0
H168 H 0.75496 0.94461 0.24432 0.0
H169 H 0.69337 0.88652 0.89436 0.0
H170 H 0.62853 0.88295 0.00925 0.0
H171 H 0.65253 0.88202 0.10269 0.0
H172 H 0.71886 0.92449 0.97262 0.0
H173 H 0.73049 0.90656 0.90977 0.0
H174 H 0.75002 0.9162 0.97108 0.0
H175 H 0.72566 0.85124 0.97416 0.0
H176 H 0.75268 0.85982 0.01077 0.0
H177 H 0.7464 0.86795 0.92968 0.0
H178 H 0.81803 0.89974 0.97159 0.0
C179 C 0.78601 0.89635 0.02766 0.0
C180 C 0.49367 0.71589 0.36915 0.0
C181 C 0.49453 0.69171 0.37902 0.0
C182 C 0.49453 0.67707 0.32656 0.0
C183 C 0.49196 0.70958 0.25554 0.0
C184 C 0.49252 0.72452 0.30616 0.0
C185 C 0.49275 0.7494 0.28288 0.0
H186 H 0.48455 0.82 0.01928 0.0
C187 C 0.48999 0.72297 0.19662 0.0
C188 C 0.49021 0.74656 0.21098 0.0
H189 H 0.50481 0.84187 0.20594 0.0
H190 H 0.49726 0.8031 0.24728 0.0
H191 H 0.5188 0.78316 0.01901 0.0
H192 H 0.44222 0.78258 0.05609 0.0
H193 H 0.44892 0.7586 0.00801 0.0
H194 H 0.45515 0.78704 0.97928 0.0
H195 H 0.49704 0.7819 0.95618 0.0
H196 H 0.51024 0.75631 0.992 0.0
C197 C 0.51744 0.7594 0.30098 0.0
C198 C 0.471 0.76308 0.31105 0.0
C199 C 0.48743 0.67932 0.99167 0.0
C200 C 0.48557 0.68599 0.92822 0.0
C201 C 0.48101 0.7091 0.91249 0.0
C202 C 0.47946 0.72567 0.96062 0.0
C203 C 0.4827 0.71877 0.0243 0.0
C204 C 0.48608 0.69585 0.0385 0.0
C205 C 0.48859 0.69121 0.10775 0.0
C206 C 0.48737 0.71543 0.13351 0.0
C207 C 0.48399 0.73136 0.08475 0.0
C208 C 0.51391 0.67929 0.11909 0.0
C209 C 0.46639 0.67704 0.12846 0.0
C210 C 0.487 0.81666 0.06941 0.0
C211 C 0.49552 0.83374 0.10906 0.0
C212 C 0.49851 0.82875 0.17415 0.0
C213 C 0.49457 0.80626 0.19771 0.0
C214 C 0.48834 0.78869 0.15526 0.0
C215 C 0.48446 0.79447 0.09233 0.0
C216 C 0.48159 0.77421 0.05059 0.0
C217 C 0.48409 0.75503 0.098 0.0
C218 C 0.48756 0.76304 0.16031 0.0
C219 C 0.50278 0.77378 0.00155 0.0
C220 C 0.45572 0.77561 0.02138 0.0
H221 H 0.49334 0.67331 0.22847 0.0
H222 H 0.49392 0.72755 0.40893 0.0
H223 H 0.45372 0.75443 0.30027 0.0
H224 H 0.46955 0.78067 0.29135 0.0
H225 H 0.47276 0.7644 0.36324 0.0
H226 H 0.53258 0.74716 0.28855 0.0
H227 H 0.51831 0.76271 0.35265 0.0
H228 H 0.52106 0.77548 0.27564 0.0
H229 H 0.49022 0.6614 0.00465 0.0
H230 H 0.47897 0.71428 0.86351 0.0
H231 H 0.47623 0.74316 0.94628 0.0
H232 H 0.52744 0.68483 0.08344 0.0
H233 H 0.51287 0.66031 0.11587 0.0
H234 H 0.52209 0.68385 0.16499 0.0
H235 H 0.45028 0.68071 0.09781 0.0
H236 H 0.45993 0.68138 0.17662 0.0
H237 H 0.47055 0.65829 0.1257 0.0
H238 H 0.49526 0.65857 0.33299 0.0
C239 C 0.49324 0.68576 0.26552 0.0
C240 C 0.3122 0.41967 0.34366 0.0
C241 C 0.32309 0.4164 0.40416 0.0
C242 C 0.3087 0.40831 0.4539 0.0
C243 C 0.27367 0.40673 0.38535 0.0
C244 C 0.28732 0.41437 0.33513 0.0
C245 C 0.27171 0.41654 0.27556 0.0
H246 H 0.15531 0.41123 0.15364 0.0
C247 C 0.24856 0.40332 0.36398 0.0
C248 C 0.2468 0.40886 0.29918 0.0
H249 H 0.21793 0.4349 0.05281 0.0
H250 H 0.24406 0.4241 0.143 0.0
H251 H 0.18012 0.36671 0.21345 0.0
H252 H 0.16605 0.4358 0.27465 0.0
H253 H 0.16061 0.41896 0.34125 0.0
H254 H 0.14295 0.41476 0.2708 0.0
H255 H 0.15089 0.37632 0.24205 0.0
H256 H 0.17386 0.36415 0.29443 0.0
C257 C 0.28212 0.40006 0.22487 0.0
C258 C 0.2711 0.44186 0.25415 0.0
C259 C 0.18441 0.38851 0.52924 0.0
C260 C 0.15893 0.38916 0.52427 0.0
C261 C 0.14833 0.38431 0.46517 0.0
C262 C 0.16256 0.38338 0.4105 0.0
C263 C 0.18753 0.38743 0.41502 0.0
C264 C 0.19831 0.38837 0.4738 0.0
C265 C 0.22492 0.39313 0.46946 0.0
C266 C 0.22795 0.39626 0.3984 0.0
C267 C 0.2059 0.39343 0.36721 0.0
C268 C 0.23917 0.3716 0.49485 0.0
C269 C 0.22952 0.41577 0.50596 0.0
C270 C 0.17466 0.41415 0.15051 0.0
C271 C 0.18436 0.42443 0.09671 0.0
C272 C 0.20984 0.42731 0.09426 0.0
C273 C 0.22489 0.42139 0.14689 0.0
C274 C 0.21431 0.41268 0.20253 0.0
C275 C 0.18959 0.40872 0.20214 0.0
C276 C 0.18047 0.40006 0.26384 0.0
C277 C 0.20356 0.39939 0.3025 0.0
C278 C 0.22373 0.40696 0.26755 0.0
C279 C 0.17062 0.37563 0.25329 0.0
C280 C 0.16142 0.41807 0.28924 0.0
H281 H 0.27475 0.39801 0.48578 0.0
H282 H 0.32272 0.42607 0.30449 0.0
H283 H 0.26677 0.45337 0.29477 0.0
H284 H 0.25712 0.4455 0.21794 0.0
H285 H 0.28904 0.44665 0.23474 0.0
H286 H 0.28434 0.38237 0.24443 0.0
H287 H 0.30022 0.40565 0.20853 0.0
H288 H 0.27001 0.39902 0.1834 0.0
H289 H 0.1931 0.39152 0.57432 0.0
H290 H 0.12877 0.38432 0.45942 0.0
H291 H 0.1531 0.38184 0.3665 0.0
H292 H 0.22792 0.35601 0.4948 0.0
H293 H 0.2454 0.3742 0.54421 0.0
H294 H 0.25505 0.3669 0.46481 0.0
H295 H 0.21426 0.42846 0.4985 0.0
H296 H 0.24585 0.42469 0.48994 0.0
H297 H 0.23111 0.41258 0.55761 0.0
H298 H 0.31616 0.40625 0.5011 0.0
C299 C 0.28438 0.40351 0.44491 0.0
C300 C 0.01466 0.19831 0.50824 0.0
C301 C 0.01864 0.17451 0.50678 0.0
C302 C 0.01716 0.1627 0.44882 0.0
C303 C 0.00891 0.19845 0.3944 0.0
C304 C 0.01001 0.20989 0.4514 0.0
C305 C 0.00595 0.23524 0.44389 0.0
H306 H 0.00752 0.32949 0.26241 0.0
C307 C 0.0051 0.21565 0.34406 0.0
C308 C 0.00379 0.23722 0.37233 0.0
H309 H 1.00073 0.32243 0.46534 0.0
H310 H 0.99733 0.2821 0.45519 0.0
H311 H 0.04321 0.28124 0.23475 0.0
H312 H 0.96412 0.28611 0.23148 0.0
H313 H 0.97739 0.27371 0.16252 0.0
H314 H 0.9819 0.3035 0.17959 0.0
H315 H 0.0275 0.30096 0.18212 0.0
H316 H 0.02978 0.27085 0.16418 0.0
C317 C 0.02882 0.24702 0.47051 0.0
C318 C 0.98158 0.24194 0.47736 0.0
C319 C 0.00307 0.18723 0.1201 0.0
C320 C 1.00285 0.19749 0.06049 0.0
C321 C 1.00284 0.22174 0.05634 0.0
C322 C 1.0029 0.23543 0.1119 0.0
C323 C 0.00302 0.22467 0.17178 0.0
C324 C 0.00323 0.20086 0.17422 0.0
C325 C 0.00462 0.19159 0.23982 0.0
C326 C 0.00439 0.21356 0.27754 0.0
C327 C 0.00328 0.23326 0.23851 0.0
C328 C 0.02902 0.17756 0.24655 0.0
C329 C 0.98145 0.17766 0.25227 0.0
C330 C 0.00553 0.31894 0.30415 0.0
C331 C 0.00521 0.32895 0.36526 0.0
C332 C 1.00169 0.315 0.41835 0.0
C333 C 0.99961 0.29149 0.41228 0.0
C334 C 1.00151 0.28136 0.35247 0.0
C335 C 0.00352 0.29476 0.2989 0.0
C336 C 0.0035 0.27987 0.2396 0.0
C337 C 1.00252 0.25558 0.26764 0.0
C338 C 1.00189 0.25712 0.33407 0.0
C339 C 0.02725 0.28341 0.20278 0.0
C340 C 0.98054 0.28611 0.20078 0.0
H341 H 0.01047 0.1644 0.3509 0.0
H342 H 0.01471 0.20759 0.55262 0.0
H343 H 0.96907 0.22726 0.4793 0.0
H344 H 0.97109 0.25554 0.45163 0.0
H345 H 0.98466 0.24759 0.52677 0.0
H346 H 0.04549 0.23597 0.46404 0.0
H347 H 0.02692 0.25048 0.52191 0.0
H348 H 0.03314 0.26313 0.44603 0.0
H349 H 0.00324 0.16867 0.12462 0.0
H350 H 1.00261 0.23001 0.01045 0.0
H351 H 0.00298 0.25376 0.10649 0.0
H352 H 0.04237 0.18202 0.20927 0.0
H353 H 0.02614 0.1588 0.243 0.0
H354 H 0.03858 0.18117 0.29137 0.0
H355 H 0.96514 0.18649 0.23127 0.0
H356 H 0.97723 0.17585 0.30309 0.0
H357 H 0.98312 0.16026 0.23096 0.0
H358 H 0.01879 0.14411 0.44722 0.0
C359 C 0.01208 0.1745 0.39284 0.0
C360 C 0.30147 0.08706 0.1134 0.0
C361 C 0.32598 0.09156 0.09754 0.0
C362 C 0.33886 0.10694 0.13494 0.0
C363 C 0.30575 0.10911 0.2099 0.0
C364 C 0.29147 0.09658 0.16984 0.0
C365 C 0.26594 0.09457 0.1971 0.0
H366 H 0.19696 0.09987 0.46886 0.0
C367 C 0.29273 0.11269 0.27007 0.0
C368 C 0.26892 0.10474 0.26353 0.0
H369 H 0.17015 0.08365 0.28274 0.0
H370 H 0.21042 0.09025 0.2383 0.0
H371 H 0.24481 0.07174 0.45534 0.0
H372 H 0.22603 0.14319 0.4324 0.0
H373 H 0.25436 0.14214 0.47099 0.0
H374 H 0.2285 0.12933 0.50809 0.0
H375 H 0.24178 0.09079 0.52146 0.0
H376 H 0.27045 0.08601 0.48145 0.0
C377 C 0.25906 0.06913 0.199 0.0
C378 C 0.24844 0.10956 0.15643 0.0
C379 C 0.34479 0.12349 0.46303 0.0
C380 C 0.34045 0.11885 0.52718 0.0
C381 C 0.31622 0.11909 0.54887 0.0
C382 C 0.29684 0.12089 0.50579 0.0
C383 C 0.30184 0.1218 0.44045 0.0
C384 C 0.32549 0.12395 0.42047 0.0
C385 C 0.32812 0.1224 0.35 0.0
C386 C 0.30195 0.11848 0.33048 0.0
C387 C 0.28679 0.11792 0.38358 0.0
C388 C 0.34508 0.10123 0.33538 0.0
C389 C 0.33769 0.14562 0.3255 0.0
C390 C 0.19929 0.0982 0.4182 0.0
C391 C 0.18001 0.09161 0.37952 0.0
C392 C 0.18461 0.08875 0.31401 0.0
C393 C 0.20795 0.09265 0.28819 0.0
C394 C 0.22699 0.09926 0.32826 0.0
C395 C 0.22213 0.10205 0.39206 0.0
C396 C 0.24389 0.10873 0.42918 0.0
C397 C 0.26239 0.11124 0.3771 0.0
C398 C 0.25304 0.10499 0.31757 0.0
C399 C 0.25064 0.08849 0.47464 0.0
C400 C 0.23801 0.13197 0.46244 0.0
H401 H 0.3399 0.12689 0.21772 0.0
H402 H 0.29087 0.07588 0.08409 0.0
H403 H 0.25594 0.1269 0.14892 0.0
H404 H 0.23055 0.11236 0.17902 0.0
H405 H 0.24572 0.10162 0.10931 0.0
H406 H 0.27347 0.05867 0.22337 0.0
H407 H 0.2569 0.06229 0.15038 0.0
H408 H 0.24191 0.06654 0.22473 0.0
H409 H 0.36309 0.12344 0.44428 0.0
H410 H 0.3123 0.116 0.59831 0.0
H411 H 0.27883 0.11979 0.5248 0.0
H412 H 0.33965 0.08611 0.36381 0.0
H413 H 0.3643 0.10479 0.34691 0.0
H414 H 0.34468 0.09558 0.28591 0.0
H415 H 0.3369 0.15929 0.36223 0.0
H416 H 0.32654 0.15257 0.28572 0.0
H417 H 0.35697 0.14387 0.31008 0.0
H418 H 0.3574 0.11107 0.12291 0.0
C419 C 0.32878 0.11595 0.1903 0.0
C420 C 0.5087 0.2939 0.08804 0.0
C421 C 0.50877 0.31799 0.07713 0.0
C422 C 0.51049 0.33287 0.1288 0.0
C423 C 0.51171 0.30071 0.20123 0.0
C424 C 0.5101 0.28558 0.15124 0.0
C425 C 0.51014 0.26079 0.17507 0.0
H426 H 0.5087 0.19078 0.43966 0.0
C427 C 0.51251 0.28755 0.26075 0.0
C428 C 0.51143 0.26396 0.24705 0.0
H429 H 0.50941 0.1671 0.24683 0.0
H430 H 0.51033 0.20708 0.20904 0.0
H431 H 0.5495 0.22587 0.42106 0.0
H432 H 0.47156 0.23135 0.42296 0.0
H433 H 0.48129 0.25623 0.46062 0.0
H434 H 0.4892 0.22847 0.49399 0.0
H435 H 0.53203 0.22463 0.49252 0.0
H436 H 0.54233 0.2515 0.46117 0.0
C437 C 0.53295 0.24798 0.14946 0.0
C438 C 0.48628 0.24976 0.1546 0.0
C439 C 0.51416 0.3323 0.46411 0.0
C440 C 0.51232 0.32617 0.5279 0.0
C441 C 0.5123 0.30295 0.54546 0.0
C442 C 0.51317 0.2859 0.4985 0.0
C443 C 0.5139 0.29245 0.43408 0.0
C444 C 0.51458 0.31535 0.41837 0.0
C445 C 0.51424 0.31964 0.34868 0.0
C446 C 0.51349 0.29531 0.32405 0.0
C447 C 0.51327 0.27959 0.37392 0.0
C448 C 0.53831 0.33142 0.33086 0.0
C449 C 0.49054 0.33376 0.33296 0.0
C450 C 0.50878 0.19413 0.38919 0.0
C451 C 0.50869 0.17605 0.34628 0.0
C452 C 0.50917 0.18099 0.28081 0.0
C453 C 0.50977 0.20408 0.25911 0.0
C454 C 0.50999 0.22214 0.30353 0.0
C455 C 0.50963 0.21663 0.36734 0.0
C456 C 0.51091 0.23697 0.40944 0.0
C457 C 0.51194 0.25594 0.36128 0.0
C458 C 0.51124 0.24772 0.29849 0.0
C459 C 0.53478 0.23472 0.44861 0.0
C460 C 0.48718 0.23841 0.44932 0.0
H461 H 0.51349 0.33705 0.22658 0.0
H462 H 0.50762 0.28206 0.04881 0.0
H463 H 0.47039 0.26095 0.16805 0.0
H464 H 0.48374 0.23295 0.17736 0.0
H465 H 0.48587 0.24732 0.10252 0.0
H466 H 0.54944 0.25813 0.15829 0.0
H467 H 0.53141 0.24521 0.09767 0.0
H468 H 0.53609 0.23117 0.17264 0.0
H469 H 0.51445 0.3502 0.44986 0.0
H470 H 0.51116 0.2981 0.59481 0.0
H471 H 0.51277 0.26838 0.51417 0.0
H472 H 0.55344 0.32585 0.36284 0.0
H473 H 0.53634 0.35041 0.3344 0.0
H474 H 0.54488 0.32677 0.28301 0.0
H475 H 0.47586 0.3304 0.36772 0.0
H476 H 0.4825 0.32912 0.28696 0.0
H477 H 0.4937 0.35252 0.33365 0.0
H478 H 0.51081 0.3513 0.12146 0.0
C479 C 0.51208 0.32446 0.19015 0.0
O480 O 0.0571 0.98176 0.80835 0.0
Mg481 Mg 0.05046 0.98563 0.7109 0.0
O482 O 0.01753 0.98431 0.8079 0.0
Mg483 Mg 1.00192 0.00494 0.72495 0.0
O484 O 0.03915 0.0171 0.6759 0.0
O485 O 0.07726 0.0021 0.66734 0.0
O486 O 0.98701 0.02584 0.6416 0.0
O487 O 0.00519 0.0391 0.78576 0.0
Mg488 Mg 0.95639 0.02403 0.73138 0.0
O489 O 0.96415 0.99312 0.77619 0.0
O490 O 0.94783 0.02458 0.63451 0.0
O491 O 0.96823 0.05436 0.7763 0.0
O492 O 0.92784 0.01224 0.77719 0.0
C493 C 0.01502 0.95548 0.64519 0.0
C494 C 0.03716 0.97796 0.83522 0.0
C495 C 0.0616 0.01846 0.65563 0.0
C496 C 0.9676 0.03124 0.61214 0.0
C497 C 0.9899 0.05565 0.79583 0.0
C498 C 0.94126 0.99477 0.79386 0.0
O499 O 0.03732 0.95753 0.65848 0.0
O500 O 0.9992 0.97064 0.66361 0.0
O501 O 0.43893 -0.00086 0.77178 0.0
Mg502 Mg 0.45683 0.97297 0.71589 0.0
O503 O 0.47091 0.0203 0.79574 0.0
Mg504 Mg 0.50293 0.0041 0.73174 0.0
O505 O 0.49024 0.96785 0.75733 0.0
O506 O 0.46339 0.94019 0.75255 0.0
O507 O 0.535 0.98815 0.66789 0.0
O508 O 0.52789 -0.00218 0.81561 0.0
Mg509 Mg 0.54825 0.03559 0.74776 0.0
O510 O 0.51559 0.04077 0.70424 0.0
O511 O 0.56584 0.01153 0.68569 0.0
O512 O 0.54834 0.02744 0.84525 0.0
O513 O 0.54212 0.06859 0.71516 0.0
C514 C 0.46423 0.00014 0.60712 0.0
C515 C 0.44811 0.01609 0.8004 0.0
C516 C 0.48388 0.94734 0.77331 0.0
C517 C 0.55712 0.99404 0.65868 0.0
C518 C 0.54303 0.00664 0.85287 0.0
C519 C 0.52266 0.0612 0.68897 0.0
O520 O 0.45669 0.98013 0.61743 0.0
O521 O 0.47867 0.00913 0.64619 0.0
O522 O 0.54266 0.45422 0.7628 0.0
Mg523 Mg 0.5536 0.4854 0.71945 0.0
O524 O 0.50518 0.46746 0.77971 0.0
Mg525 Mg 0.50397 0.50352 0.72534 0.0
O526 O 0.54237 0.51499 0.76707 0.0
O527 O 0.58105 0.50146 0.76292 0.0
O528 O 0.50232 0.53961 0.6709 0.0
O529 O 0.49092 0.52085 0.81391 0.0
Mg530 Mg 0.45241 0.52217 0.72753 0.0
O531 O 0.46548 0.49228 0.68537 0.0
O532 O 0.46345 0.55096 0.67361 0.0
O533 O 0.45193 0.52576 0.82752 0.0
O534 O 0.42596 0.50314 0.68864 0.0
C535 C 0.53505 0.4819 0.59925 0.0
C536 C 0.52151 0.4514 0.78502 0.0
C537 C 0.56531 0.51665 0.78262 0.0
C538 C 0.48526 0.55426 0.65692 0.0
C539 C 0.47334 0.52781 0.84806 0.0
C540 C 0.44286 0.48905 0.6692 0.0
O541 O 0.55619 0.48536 0.61965 0.0
O542 O 0.51706 0.48661 0.63495 0.0
O543 O 0.96152 0.47866 0.84511 0.0
Mg544 Mg 0.96299 0.47552 0.74573 0.0
O545 O 0.97803 0.50982 0.81236 0.0
Mg546 Mg 0.0034 0.50461 0.72766 0.0
O547 O 0.99352 0.46701 0.69407 0.0
O548 O 0.96316 0.44302 0.71282 0.0
O549 O 0.02902 0.50094 0.643 0.0
O550 O 0.0353 0.48834 0.7918 0.0
Mg551 Mg 0.04708 0.53639 0.71525 0.0
O552 O 0.01424 0.5411 0.7596 0.0
O553 O 0.04548 0.53314 0.61617 0.0
O554 O 0.06672 0.50986 0.7663 0.0
O555 O 0.04177 0.56839 0.75449 0.0
C556 C 0.94869 0.51616 0.66175 0.0
C557 C 0.96468 0.49986 0.85212 0.0
C558 C 0.98337 0.44727 0.68467 0.0
C559 C 0.04216 0.51216 0.60524 0.0
C560 C 0.05809 0.49267 0.79513 0.0
C561 C 0.02124 0.56142 0.77558 0.0
O562 O 0.94115 0.49915 0.69302 0.0
O563 O 0.97134 0.52114 0.6633 0.0
H564 H 0.14833 0.05686 0.35349 0.0
H565 H 0.15701 0.11555 0.47515 0.0
H566 H 0.11374 0.04509 0.41758 0.0
H567 H 0.12307 0.10339 0.53983 0.0
H568 H 0.09791 0.0465 0.68532 0.0
H569 H 0.12172 0.06894 0.61176 0.0
H570 H 0.07087 0.05447 0.46254 0.0
H571 H 0.04667 0.03215 0.53748 0.0
C572 C 0.14256 0.06758 0.39279 0.0
C573 C 0.15594 0.08688 0.40972 0.0
C574 C 0.12269 0.06081 0.42966 0.0
C575 C 0.11583 0.07311 0.48447 0.0
C576 C 0.12808 0.09331 0.49859 0.0
C577 C 0.14767 0.1002 0.4615 0.0
C578 C 0.09119 0.04902 0.63756 0.0
C579 C 0.07024 0.0379 0.6174 0.0
C580 C 0.10493 0.06177 0.59515 0.0
C581 C 0.09837 0.06335 0.53095 0.0
C582 C 0.07651 0.05344 0.51155 0.0
C583 C 0.06245 0.04096 0.55458 0.0
H584 H 0.54842 0.15307 0.38981 0.0
H585 H 0.47076 0.14825 0.37212 0.0
H586 H 0.54916 0.12201 0.46691 0.0
H587 H 0.4713 0.11643 0.44865 0.0
H588 H 0.48233 0.08868 0.65878 0.0
H589 H 0.47755 0.11257 0.56316 0.0
H590 H 0.54415 0.08237 0.4881 0.0
H591 H 0.54883 0.05907 0.58313 0.0
C592 C 0.53165 0.14446 0.40004 0.0
C593 C 0.50966 0.15257 0.3735 0.0
C594 C 0.53197 0.12673 0.44479 0.0
C595 C 0.51024 0.11659 0.46439 0.0
C596 C 0.48833 0.12393 0.43521 0.0
C597 C 0.48805 0.14181 0.39038 0.0
C598 C 0.49549 0.08683 0.62091 0.0
C599 C 0.51581 0.07193 0.62788 0.0
C600 C 0.49284 0.10049 0.56611 0.0
C601 C 0.51064 0.09966 0.51791 0.0
C602 C 0.53025 0.0838 0.52425 0.0
C603 C 0.5328 0.07023 0.57846 0.0
H604 H 0.34646 0.45681 0.38194 0.0
H605 H 0.35698 0.38982 0.46656 0.0
H606 H 0.38229 0.47016 0.43867 0.0
H607 H 0.39232 0.40319 0.524 0.0
H608 H 0.41558 0.45197 0.69246 0.0
H609 H 0.39221 0.43085 0.6147 0.0
H610 H 0.4275 0.46721 0.46393 0.0
H611 H 0.45101 0.48824 0.54248 0.0
C612 C 0.35695 0.44468 0.41057 0.0
C613 C 0.34866 0.42234 0.42014 0.0
C614 C 0.37744 0.45235 0.44352 0.0
C615 C 0.38993 0.43788 0.487 0.0
C616 C 0.38293 0.41492 0.49185 0.0
C617 C 0.36274 0.40723 0.45849 0.0
C618 C 0.4192 0.4546 0.64265 0.0
C619 C 0.43564 0.47125 0.62353 0.0
C620 C 0.40568 0.44262 0.5979 0.0
C621 C 0.40783 0.4474 0.53282 0.0
C622 C 0.42531 0.46317 0.51357 0.0
C623 C 0.4391 0.47492 0.55848 0.0
H624 H 0.04515 0.35022 0.40842 0.0
H625 H 0.9696 0.3619 0.36149 0.0
H626 H 0.04306 0.3824 0.4828 0.0
H627 H 0.96743 0.39405 0.4355 0.0
H628 H 0.96233 0.40772 0.64862 0.0
H629 H 0.97065 0.3848 0.55545 0.0
H630 H 0.03162 0.42669 0.50996 0.0
H631 H 0.02305 0.45036 0.60467 0.0
C632 C 0.02855 0.36067 0.41082 0.0
C633 C 0.00758 0.35372 0.37863 0.0
C634 C 0.02727 0.3789 0.45411 0.0
C635 C 0.00494 0.39037 0.466 0.0
C636 C 0.98482 0.38529 0.42785 0.0
C637 C 0.98614 0.36717 0.38445 0.0
C638 C 0.97769 0.41215 0.61945 0.0
C639 C 0.99183 0.43123 0.63389 0.0
C640 C 0.98227 0.39907 0.56541 0.0
C641 C 1.00132 0.40439 0.52429 0.0
C642 C 0.01657 0.42249 0.5404 0.0
C643 C 0.01175 0.43593 0.59457 0.0
H644 H 0.86526 0.89441 0.03226 0.0
H645 H 0.82965 0.96121 0.04239 0.0
H646 H 0.89859 0.91083 0.97081 0.0
H647 H 0.8625 0.97743 0.97966 0.0
H648 H 0.89703 0.97764 0.77491 0.0
H649 H 0.87187 0.95778 0.8513 0.0
H650 H 0.93212 0.95369 0.98155 0.0
H651 H 0.95739 0.9744 0.90492 0.0
C652 C 0.86509 0.91275 0.02351 0.0
C653 C 0.84513 0.92666 0.04321 0.0
C654 C 0.88406 0.92209 0.98812 0.0
C655 C 0.8831 0.94538 0.97072 0.0
C656 C 0.86377 0.95947 0.99307 0.0
C657 C 0.8451 0.95025 0.02941 0.0
C658 C 0.90519 0.97198 0.81913 0.0
C659 C 0.92934 0.97732 0.83356 0.0
C660 C 0.8907 0.96077 0.86298 0.0
C661 C 0.89999 0.95445 0.92244 0.0
C662 C 0.9246 0.95837 0.93583 0.0
C663 C 0.93917 0.96987 0.89172 0.0
H664 H 0.47582 0.87767 0.11717 0.0
H665 H 0.53215 0.83704 0.02529 0.0
H666 H 0.48087 0.90821 0.03814 0.0
H667 H 0.53687 0.8671 0.94604 0.0
H668 H 0.49415 0.90157 0.7718 0.0
H669 H 0.50425 0.87717 0.86257 0.0
H670 H 0.50983 0.93729 0.98008 0.0
H671 H 0.50017 0.96183 0.88808 0.0
C672 C 0.49001 0.87574 0.08194 0.0
C673 C 0.50369 0.85507 0.07767 0.0
C674 C 0.49283 0.89313 0.03639 0.0
C675 C 0.5091 0.88994 0.98537 0.0
C676 C 0.52412 0.87004 0.98442 0.0
C677 C 0.52156 0.85292 0.03018 0.0
C678 C 0.49851 0.90961 0.8164 0.0
C679 C 0.49672 0.93359 0.82266 0.0
C680 C 0.50421 0.89564 0.86855 0.0
C681 C 0.50766 0.90529 0.92875 0.0
C682 C 0.50715 0.92937 0.9344 0.0
C683 C 0.50197 0.94341 0.88162 0.0
H684 H 0.68506 0.55843 0.97272 0.0
H685 H 0.63444 0.59806 0.08724 0.0
H686 H 0.65206 0.54658 0.90513 0.0
H687 H 0.60069 0.58579 0.0187 0.0
H688 H 0.55419 0.52532 0.9072 0.0
H689 H 0.57957 0.54634 0.98197 0.0
H690 H 0.62449 0.56809 0.82708 0.0
H691 H 0.59914 0.54739 0.75309 0.0
C692 C 0.66673 0.56447 0.98374 0.0
C693 C 0.66242 0.57924 0.03526 0.0
C694 C 0.6478 0.55783 0.9446 0.0
C695 C 0.62376 0.56559 0.95559 0.0
C696 C 0.61905 0.57961 0.00881 0.0
C697 C 0.63828 0.58649 0.04825 0.0
C698 C 0.56866 0.53566 0.88893 0.0
C699 C 0.57444 0.53503 0.82411 0.0
C700 C 0.58338 0.5475 0.93185 0.0
C701 C 0.60433 0.55853 0.91064 0.0
C702 C 0.60868 0.55953 0.84513 0.0
C703 C 0.59403 0.54784 0.80257 0.0
H704 H 0.03725 0.65379 0.06312 0.0
H705 H 0.96018 0.64577 0.08723 0.0
H706 H 0.03838 0.62225 0.98726 0.0
H707 H 0.9614 0.61368 0.01185 0.0
H708 H 1.00075 0.5462 0.8851 0.0
H709 H 0.99206 0.56956 0.97999 0.0
H710 H 0.00798 0.63081 0.87477 0.0
H711 H 0.0162 0.6077 0.78048 0.0
C712 C 0.02089 0.64419 0.05576 0.0
C713 C 0.99871 0.65203 0.0819 0.0
C714 C 0.02144 0.62642 0.01137 0.0
C715 C 0.99991 0.61581 0.99329 0.0
C716 C 0.97823 0.62159 0.02521 0.0
C717 C 0.97762 0.63967 0.06915 0.0
C718 C 1.00118 0.56474 0.88168 0.0
C719 C 0.00894 0.57519 0.82546 0.0
C720 C 0.99655 0.57803 0.93606 0.0
C721 C 0.99984 0.60186 0.93469 0.0
C722 C 0.00565 0.61241 0.87711 0.0
C723 C 0.01017 0.59922 0.82311 0.0
H724 H 0.05269 0.14242 0.54557 0.0
H725 H 0.9844 0.17521 0.59764 0.0
H726 H 0.03882 0.10608 0.58704 0.0
H727 H 0.9697 0.13911 0.63457 0.0
H728 H 0.94324 0.06752 0.65978 0.0
H729 H 0.96244 0.10391 0.67192 0.0
H730 H 0.01334 0.0851 0.52315 0.0
H731 H 0.99577 0.04734 0.51741 0.0
C732 C 0.03526 0.1421 0.56936 0.0
C733 C 0.01889 0.16093 0.56507 0.0
C734 C 0.027 0.1212 0.59147 0.0
C735 C 1.00238 0.11934 0.60828 0.0
C736 C 0.98843 0.13957 0.61921 0.0
C737 C 0.99697 0.16053 0.59857 0.0
C738 C 0.95787 0.07155 0.62765 0.0
C739 C 0.96816 0.05459 0.5878 0.0
C740 C 0.96929 0.09232 0.6357 0.0
C741 C 0.99015 0.0972 0.60058 0.0
C742 C 0.99815 0.08147 0.55379 0.0
C743 C 0.9874 0.06022 0.54795 0.0
H744 H 0.33745 0.08128 0.60464 0.0
H745 H 0.38882 0.12915 0.53052 0.0
H746 H 0.36979 0.05273 0.61738 0.0
H747 H 0.42043 0.09977 0.53412 0.0
H748 H 0.47643 0.04271 0.56902 0.0
H749 H 0.44765 0.07454 0.56661 0.0
H750 H 0.38868 0.02704 0.55326 0.0
H751 H 0.4177 0.99515 0.56347 0.0
C752 C 0.35577 0.08599 0.59241 0.0
C753 C 0.36034 0.10716 0.56336 0.0
C754 C 0.37427 0.06921 0.59741 0.0
C755 C 0.39748 0.07307 0.57198 0.0
C756 C 0.40281 0.09553 0.55264 0.0
C757 C 0.38456 0.11261 0.55054 0.0
C758 C 0.45732 0.03909 0.56395 0.0
C759 C 0.44928 0.0165 0.56953 0.0
C760 C 0.44061 0.05748 0.56297 0.0
C761 C 0.41549 0.05364 0.56367 0.0
C762 C 0.40776 0.03085 0.55732 0.0
C763 C 0.4245 0.01241 0.56073 0.0
H764 H 0.47258 0.35289 0.5474 0.0
H765 H 0.54724 0.34303 0.60435 0.0
H766 H 0.47726 0.3936 0.54364 0.0
H767 H 0.5516 0.38431 0.61 0.0
H768 H 0.569 0.45193 0.54655 0.0
H769 H 0.55992 0.41158 0.54134 0.0
H770 H 0.48292 0.42956 0.55232 0.0
H771 H 0.49236 0.46928 0.54706 0.0
C772 C 0.48955 0.35974 0.56408 0.0
C773 C 0.5099 0.34508 0.57288 0.0
C774 C 0.49256 0.38334 0.56059 0.0
C775 C 0.51563 0.39259 0.57096 0.0
C776 C 0.5342 0.37788 0.59561 0.0
C777 C 0.53145 0.35415 0.59567 0.0
C778 C 0.55014 0.44715 0.54389 0.0
C779 C 0.53131 0.46354 0.55283 0.0
C780 C 0.54484 0.42386 0.54401 0.0
C781 C 0.52074 0.41687 0.55373 0.0
C782 C 0.50187 0.43363 0.54803 0.0
C783 C 0.50726 0.45677 0.54399 0.0
H784 H 0.17254 0.42787 0.58509 0.0
H785 H 0.11187 0.38285 0.56512 0.0
H786 H 0.14524 0.4596 0.60546 0.0
H787 H 0.084 0.41493 0.5892 0.0
H788 H 0.04134 0.47665 0.52187 0.0
H789 H 0.07096 0.44464 0.52262 0.0
H790 H 0.11669 0.48292 0.64865 0.0
H791 H 0.08846 0.51532 0.64208 0.0
C792 C 0.15336 0.42434 0.58844 0.0
C793 C 0.1443 0.40301 0.56993 0.0
C794 C 0.13748 0.44287 0.59977 0.0
C795 C 0.11227 0.44021 0.59477 0.0
C796 C 0.10336 0.41786 0.58919 0.0
C797 C 0.11931 0.39934 0.57677 0.0
C798 C 0.05841 0.4785 0.54669 0.0
C799 C 0.06277 0.49842 0.58126 0.0
C800 C 0.07494 0.45991 0.54933 0.0
C801 C 0.09573 0.46069 0.58818 0.0
C802 C 0.10095 0.48146 0.6184 0.0
C803 C 0.08489 0.50028 0.61378 0.0
H804 H 0.03342 0.83314 0.87301 0.0
H805 H 0.95986 0.86004 0.87759 0.0
H806 H 0.04821 0.87074 0.85498 0.0
H807 H 0.97393 0.89803 0.85288 0.0
H808 H 0.99909 0.96542 0.90914 0.0
H809 H 0.98698 0.92593 0.91101 0.0
H810 H 0.05962 0.90494 0.84973 0.0
H811 H 0.07152 0.94393 0.85381 0.0
C812 C 0.02025 0.8471 0.86573 0.0
C813 C 0.99586 0.84435 0.88159 0.0
C814 C 0.02876 0.86915 0.85705 0.0
C815 C 0.01252 0.88833 0.86054 0.0
C816 C 0.98736 0.88421 0.85738 0.0
C817 C 0.97904 0.86218 0.8683 0.0
C818 C 0.0126 0.95206 0.89902 0.0
C819 C 0.03562 0.95776 0.87655 0.0
C820 C 0.00544 0.92933 0.89712 0.0
C821 C 0.02139 0.91192 0.87352 0.0
C822 C 0.04597 0.91744 0.86449 0.0
C823 C 0.05316 0.94012 0.86812 0.0
H824 H 0.61248 0.87519 0.90552 0.0
H825 H 0.67117 0.92105 0.8679 0.0
H826 H 0.5833 0.90474 0.86983 0.0
H827 H 0.6426 0.95033 0.83476 0.0
H828 H 0.58677 0.00501 0.79848 0.0
H829 H 0.61265 0.97103 0.78729 0.0
H830 H 0.56978 0.93651 0.92845 0.0
H831 H 0.54234 0.97015 0.93397 0.0
C832 C 0.61923 0.89122 0.88741 0.0
C833 C 0.64399 0.89625 0.89303 0.0
C834 C 0.6025 0.90831 0.86797 0.0
C835 C 0.61044 0.9305 0.85376 0.0
C836 C 0.63554 0.93376 0.84702 0.0
C837 C 0.65219 0.91667 0.86585 0.0
C838 C 0.58332 0.99036 0.82849 0.0
C839 C 0.56288 0.99033 0.86829 0.0
C840 C 0.59802 0.97069 0.82147 0.0
C841 C 0.59337 0.95076 0.85648 0.0
C842 C 0.57361 0.95121 0.89909 0.0
C843 C 0.5583 0.9707 0.90413 0.0
H844 H 0.52648 0.66286 0.89526 0.0
H845 H 0.44929 0.66684 0.86196 0.0
H846 H 0.52592 0.62166 0.89354 0.0
H847 H 0.44866 0.62532 0.85194 0.0
H848 H 0.44131 0.55557 0.9159 0.0
H849 H 0.44723 0.59665 0.92312 0.0
H850 H 0.52279 0.58565 0.87017 0.0
H851 H 0.51755 0.54523 0.8735 0.0
C852 C 0.50966 0.65477 0.88249 0.0
C853 C 0.48778 0.66767 0.88146 0.0
C854 C 0.50913 0.63092 0.88273 0.0
C855 C 0.4868 0.61981 0.8774 0.0
C856 C 0.46588 0.63316 0.86141 0.0
C857 C 0.46633 0.65705 0.86407 0.0
C858 C 0.45945 0.56197 0.90962 0.0
C859 C 0.4786 0.5473 0.88988 0.0
C860 C 0.46271 0.58565 0.91107 0.0
C861 C 0.48495 0.59485 0.89136 0.0
C862 C 0.50509 0.57973 0.88368 0.0
C863 C 0.5021 0.55616 0.8862 0.0
H864 H 0.88994 0.6289 0.89672 0.0
H865 H 0.83384 0.58365 0.83565 0.0
H866 H 0.92065 0.59908 0.87445 0.0
H867 H 0.86348 0.55361 0.81826 0.0
H868 H 0.92017 0.49818 0.80321 0.0
H869 H 0.8935 0.53112 0.78848 0.0
H870 H 0.93431 0.56807 0.92918 0.0
H871 H 0.96309 0.53557 0.93616 0.0
C872 C 0.88429 0.61286 0.87623 0.0
C873 C 0.85946 0.60826 0.87031 0.0
C874 C 0.90179 0.59545 0.86524 0.0
C875 C 0.89462 0.57316 0.84904 0.0
C876 C 0.87012 0.57013 0.83224 0.0
C877 C 0.85281 0.58766 0.84171 0.0
C878 C 0.92306 0.51318 0.83217 0.0
C879 C 0.94374 0.51439 0.8707 0.0
C880 C 0.90773 0.53234 0.82347 0.0
C881 C 0.91162 0.55284 0.85668 0.0
C882 C 0.93108 0.55315 0.90035 0.0
C883 C 0.94721 0.53425 0.90631 0.0
H884 H 0.04052 0.18064 0.98783 0.0
H885 H 0.96306 0.17736 0.01394 0.0
H886 H 0.03985 0.1463 0.92027 0.0
H887 H 0.96215 0.14342 0.94656 0.0
H888 H 0.97191 0.06777 0.90972 0.0
H889 H 0.9763 0.10402 0.96556 0.0
H890 H 0.02504 0.12712 0.8201 0.0
H891 H 0.02093 0.09019 0.76476 0.0
C892 C 0.02323 0.17312 0.97687 0.0
C893 C 1.00175 0.18193 0.00497 0.0
C894 C 0.02285 0.15333 0.93869 0.0
C895 C 1.00101 0.14176 0.92885 0.0
C896 C 0.97938 0.15155 0.954 0.0
C897 C 0.97978 0.17127 0.9917 0.0
C898 C 0.98392 0.08043 0.89033 0.0
C899 C 0.99627 0.07608 0.83345 0.0
C900 C 0.98622 0.10136 0.92183 0.0
C901 C 1.00062 0.1188 0.89678 0.0
C902 C 0.01381 0.11411 0.84084 0.0
C903 C 0.0116 0.09294 0.80934 0.0
H904 H 0.35664 0.05516 0.11478 0.0
H905 H 0.32911 0.10124 0.97044 0.0
H906 H 0.38716 0.0396 0.0412 0.0
H907 H 0.35964 0.08553 0.89583 0.0
H908 H 0.40202 0.03009 0.77058 0.0
H909 H 0.37158 0.0489 0.83849 0.0
H910 H 0.4249 0.05333 0.98736 0.0
H911 H 0.4556 0.0347 0.91854 0.0
C912 C 0.35671 0.06147 0.06654 0.0
C913 C 0.34003 0.07891 0.04779 0.0
C914 C 0.3745 0.05288 0.0247 0.0
C915 C 0.37613 0.06145 0.96266 0.0
C916 C 0.35888 0.07844 0.94314 0.0
C917 C 0.34119 0.08725 0.98549 0.0
C918 C 0.40737 0.03541 0.81752 0.0
C919 C 0.43123 0.03079 0.83925 0.0
C920 C 0.38989 0.04626 0.85641 0.0
C921 C 0.39559 0.05237 0.91881 0.0
C922 C 0.41976 0.04856 0.93983 0.0
C923 C 0.43744 0.0381 0.90028 0.0
H924 H 0.54717 0.3283 0.00372 0.0
H925 H 0.46922 0.33559 0.01397 0.0
H926 H 0.54814 0.35896 0.92568 0.0
H927 H 0.46974 0.3659 0.93356 0.0
H928 H 0.48482 0.44104 0.86944 0.0
H929 H 0.47976 0.40504 0.92743 0.0
H930 H 0.54092 0.37463 0.82662 0.0
H931 H 0.5465 0.41063 0.77138 0.0
C932 C 0.53009 0.33562 0.98644 0.0
C933 C 0.5081 0.32907 0.01375 0.0
C934 C 0.53057 0.35348 0.94187 0.0
C935 C 0.50901 0.36537 0.92315 0.0
C936 C 0.4868 0.3576 0.94732 0.0
C937 C 0.48638 0.3398 0.99235 0.0
C938 C 0.49708 0.4266 0.85954 0.0
C939 C 0.51637 0.429 0.81658 0.0
C940 C 0.4941 0.4058 0.89251 0.0
C941 C 0.51017 0.38673 0.88284 0.0
C942 C 0.52858 0.38892 0.83719 0.0
C943 C 0.53173 0.40969 0.80509 0.0
H944 H 0.14452 0.45199 0.11593 0.0
H945 H 0.18429 0.41722 0.96691 0.0
H946 H 0.11347 0.46466 0.04087 0.0
H947 H 0.15277 0.42986 0.89068 0.0
H948 H 0.1058 0.48295 0.77025 0.0
H949 H 0.13618 0.46442 0.83872 0.0
H950 H 0.08036 0.45117 0.97652 0.0
H951 H 0.04986 0.46983 0.9074 0.0
C952 C 0.14661 0.44701 0.06684 0.0
C953 C 0.16697 0.43359 0.04754 0.0
C954 C 0.12859 0.45411 0.02375 0.0
C955 C 0.13024 0.44808 0.95953 0.0
C956 C 0.15086 0.43495 0.93968 0.0
C957 C 0.16904 0.42779 0.9832 0.0
C958 C 0.09992 0.47581 0.81484 0.0
C959 C 0.07538 0.47812 0.83356 0.0
C960 C 0.11739 0.46503 0.85407 0.0
C961 C 0.11096 0.45653 0.91386 0.0
C962 C 0.08615 0.45785 0.93131 0.0
C963 C 0.06855 0.46836 0.89148 0.0
H964 H 0.96209 0.83007 0.45937 0.0
H965 H 0.03956 0.83188 0.43186 0.0
H966 H 0.96341 0.86513 0.52358 0.0
H967 H 0.04119 0.86649 0.49637 0.0
H968 H 0.03425 0.94199 0.5335 0.0
H969 H 0.0292 0.9057 0.47863 0.0
H970 H 0.97695 0.88551 0.61919 0.0
H971 H 0.98152 0.92262 0.67298 0.0
C972 C 0.97953 0.83745 0.46936 0.0
C973 C 1.00082 0.82796 0.44188 0.0
C974 C 0.9803 0.85768 0.50565 0.0
C975 C 1.00234 0.86904 0.51433 0.0
C976 C 0.02378 0.85862 0.48973 0.0
C977 C 0.02299 0.83847 0.45377 0.0
C978 C 0.02136 0.92996 0.55203 0.0
C979 C 0.00821 0.93519 0.60728 0.0
C980 C 0.01868 0.90897 0.52111 0.0
C981 C 0.00315 0.89224 0.54522 0.0
C982 C 0.9891 0.89789 0.59915 0.0
C983 C 0.99158 0.91919 0.62983 0.0
H984 H 0.68723 0.96213 0.44318 0.0
H985 H 0.64658 0.90033 0.42169 0.0
H986 H 0.65602 0.97759 0.51441 0.0
H987 H 0.6147 0.91622 0.48991 0.0
H988 H 0.5672 0.94737 0.65142 0.0
H989 H 0.59991 0.92837 0.59 0.0
H990 H 0.61668 0.99362 0.50499 0.0
H991 H 0.585 0.01235 0.56799 0.0
C992 C 0.67184 0.95167 0.45437 0.0
C993 C 0.66936 0.93011 0.42577 0.0
C994 C 0.65361 0.9607 0.49442 0.0
C995 C 0.63229 0.94851 0.50687 0.0
C996 C 0.63065 0.92628 0.48159 0.0
C997 C 0.64894 0.9172 0.44189 0.0
C998 C 0.5777 0.95745 0.61873 0.0
C999 C 0.57355 0.98132 0.61441 0.0
C1000 C 0.59656 0.94664 0.58366 0.0
C1001 C 0.6115 0.95946 0.54317 0.0
C1002 C 0.60633 0.98317 0.53704 0.0
C1003 C 0.58785 0.99393 0.57251 0.0
H1004 H 0.53361 0.67568 0.44699 0.0
H1005 H 0.45533 0.67869 0.4459 0.0
H1006 H 0.53316 0.64296 0.52007 0.0
H1007 H 0.45466 0.64625 0.51906 0.0
H1008 H 0.46068 0.5695 0.5539 0.0
H1009 H 0.46393 0.60606 0.49889 0.0
H1010 H 0.52275 0.62435 0.62261 0.0
H1011 H 0.51982 0.587 0.67679 0.0
C1012 C 0.51632 0.67015 0.46519 0.0
C1013 C 0.49451 0.68012 0.44175 0.0
C1014 C 0.51603 0.65116 0.50646 0.0
C1015 C 0.49387 0.64149 0.52441 0.0
C1016 C 0.47209 0.65285 0.50529 0.0
C1017 C 0.47242 0.67185 0.46447 0.0
C1018 C 0.47447 0.58123 0.56901 0.0
C1019 C 0.49002 0.57534 0.61949 0.0
C1020 C 0.47616 0.60237 0.53798 0.0
C1021 C 0.4932 0.61857 0.55713 0.0
C1022 C 0.50939 0.61238 0.60653 0.0
C1023 C 0.50784 0.59094 0.63735 0.0
H1024 H 0.85994 0.61228 0.42877 0.0
H1025 H 0.82608 0.5466 0.41444 0.0
H1026 H 0.88849 0.59655 0.50707 0.0
H1027 H 0.8545 0.53081 0.49348 0.0
H1028 H 0.89951 0.51257 0.66648 0.0
H1029 H 0.86856 0.53159 0.60224 0.0
H1030 H 0.92385 0.56938 0.50568 0.0
H1031 H 0.95533 0.55023 0.57116 0.0
C1032 C 0.85818 0.59459 0.44369 0.0
C1033 C 0.84074 0.58065 0.41503 0.0
C1034 C 0.87479 0.5855 0.48799 0.0
C1035 C 0.87426 0.56226 0.50578 0.0
C1036 C 0.85554 0.5488 0.48097 0.0
C1037 C 0.83901 0.55788 0.43605 0.0
C1038 C 0.90531 0.52494 0.63167 0.0
C1039 C 0.93018 0.52958 0.62375 0.0
C1040 C 0.88737 0.53583 0.59454 0.0
C1041 C 0.89355 0.55187 0.5481 0.0
C1042 C 0.91834 0.55719 0.54126 0.0
C1043 C 0.93646 0.54616 0.57862 0.0
loop_
_geom_bond_atom_site_label_1
_geom_bond_atom_site_label_2
_geom_bond_distance
_geom_bond_site_symmetry_2
_ccdc_geom_bond_type
C0 C1 1.391 . S
C0 C4 1.391 . S
C0 H42 0.948 . S
C1 C0 1.391 . S
C1 C2 1.391 . S
C2 C1 1.391 . S
C2 H58 0.947 . S
C2 C59 1.392 . S
C3 C4 1.391 . S
C3 C7 1.397 . S
C3 C59 1.419 . S
C4 C0 1.391 . S
C4 C3 1.391 . S
C4 C5 1.399 . S
C5 C4 1.399 . S
C5 C8 1.396 . S
C5 C17 1.453 . S
C5 C18 1.684 . S
H6 C30 0.948 1_556 S
C7 C3 1.397 . S
C7 C8 1.394 . S
C7 C26 1.723 . S
C8 C5 1.396 . S
C8 C7 1.394 . S
C8 C38 1.723 . S
H9 C32 0.947 . S
H10 C33 0.948 . S
H11 C39 0.982 . S
H12 C40 0.979 . S
H13 C40 0.980 . S
H14 C40 0.983 . S
H15 C39 0.979 . S
H16 C39 0.977 . S
C17 C5 1.453 . S
C17 H46 0.982 . S
C17 H47 0.979 . S
C17 H48 0.977 . S
C18 C5 1.684 . S
C18 H43 0.979 . S
C18 H44 0.980 . S
C18 H45 0.983 . S
C19 C20 1.391 . S
C19 C24 1.391 1_556 S
C19 H49 0.948 . S
C20 C19 1.391 . S
C20 C21 1.391 . S
C21 C20 1.391 . S
C21 C22 1.392 . S
C21 H50 0.947 . S
C22 C21 1.392 . S
C22 C23 1.419 . S
C22 H51 0.948 . S
C23 C22 1.419 . S
C23 C24 1.391 1_556 S
C23 C27 1.397 1_556 S
C24 C19 1.391 1_554 S
C24 C23 1.391 1_554 S
C24 C25 1.399 . S
C25 C24 1.399 . S
C25 C26 1.396 . S
C25 C28 1.453 . S
C25 C29 1.684 . S
C26 C7 1.723 . S
C26 C25 1.396 . S
C26 C27 1.394 . S
C27 C23 1.397 1_554 S
C27 C26 1.394 . S
C27 C37 1.723 . S
C28 C25 1.453 . S
C28 H52 0.982 . S
C28 H53 0.979 . S
C28 H54 0.977 . S
C29 C25 1.684 . S
C29 H55 0.979 . S
C29 H56 0.980 . S
C29 H57 0.983 . S
C30 H6 0.948 1_554 S
C30 C31 1.391 . S
C30 C35 1.391 . S
C31 C30 1.391 . S
C31 C32 1.391 . S
C32 H9 0.947 . S
C32 C31 1.391 . S
C32 C33 1.392 . S
C33 H10 0.948 . S
C33 C32 1.392 . S
C33 C34 1.419 . S
C34 C33 1.419 . S
C34 C35 1.391 . S
C34 C38 1.397 . S
C35 C30 1.391 . S
C35 C34 1.391 . S
C35 C36 1.393 1_554 S
C36 C35 1.393 1_556 S
C36 C37 1.388 1_556 S
C36 C39 1.462 . S
C36 C40 1.694 . S
C37 C27 1.723 . S
C37 C36 1.388 1_554 S
C37 C38 1.394 . S
C38 C8 1.723 . S
C38 C34 1.397 . S
C38 C37 1.394 . S
C39 H11 0.982 . S
C39 H15 0.979 . S
C39 H16 0.977 . S
C39 C36 1.462 . S
C40 H12 0.979 . S
C40 H13 0.980 . S
C40 H14 0.983 . S
C40 C36 1.694 . S
H41 C59 0.948 . S
H42 C0 0.948 . S
H43 C18 0.979 . S
H44 C18 0.980 . S
H45 C18 0.983 . S
H46 C17 0.982 . S
H47 C17 0.979 . S
H48 C17 0.977 . S
H49 C19 0.948 . S
H50 C21 0.947 . S
H51 C22 0.948 . S
H52 C28 0.982 . S
H53 C28 0.979 . S
H54 C28 0.977 . S
H55 C29 0.979 . S
H56 C29 0.980 . S
H57 C29 0.983 . S
H58 C2 0.947 . S
C59 C2 1.392 . S
C59 C3 1.419 . S
C59 H41 0.948 . S
C60 C61 1.391 . S
C60 C64 1.391 . S
C60 H102 0.948 . S
C61 C60 1.391 . S
C61 C62 1.391 1_556 S
C62 C61 1.391 1_554 S
C62 H118 0.947 . S
C62 C119 1.392 . S
C63 C64 1.391 1_554 S
C63 C67 1.397 1_655 S
C63 C119 1.419 . S
C64 C60 1.391 . S
C64 C63 1.391 1_556 S
C64 C65 1.399 . S
C65 C64 1.399 . S
C65 C68 1.396 1_656 S
C65 C77 1.453 1_655 S
C65 C78 1.684 . S
H66 C90 0.948 . S
C67 C63 1.397 1_455 S
C67 C68 1.394 . S
C67 C86 1.723 . S
C68 C65 1.396 1_454 S
C68 C67 1.394 . S
C68 C98 1.723 . S
H69 C92 0.947 1_556 S
H70 C93 0.948 1_556 S
H71 C99 0.982 . S
H72 C100 0.979 . S
H73 C100 0.980 . S
H74 C100 0.983 . S
H75 C99 0.979 . S
H76 C99 0.977 . S
C77 C65 1.453 1_455 S
C77 H106 0.982 . S
C77 H107 0.979 . S
C77 H108 0.977 . S
C78 C65 1.684 . S
C78 H103 0.979 . S
C78 H104 0.980 . S
C78 H105 0.983 . S
C79 C80 1.391 . S
C79 C84 1.391 . S
C79 H109 0.948 . S
C80 C79 1.391 . S
C80 C81 1.391 . S
C81 C80 1.391 . S
C81 C82 1.392 . S
C81 H110 0.947 . S
C82 C81 1.392 . S
C82 C83 1.419 . S
C82 H111 0.948 . S
C83 C82 1.419 . S
C83 C84 1.391 . S
C83 C87 1.397 1_655 S
C84 C79 1.391 . S
C84 C83 1.391 . S
C84 C85 1.399 . S
C85 C84 1.399 . S
C85 C86 1.396 1_655 S
C85 C88 1.453 1_655 S
C85 C89 1.684 . S
C86 C67 1.723 . S
C86 C85 1.396 1_455 S
C86 C87 1.394 . S
C87 C83 1.397 1_455 S
C87 C86 1.394 . S
C87 C97 1.723 . S
C88 C85 1.453 1_455 S
C88 H112 0.982 . S
C88 H113 0.979 . S
C88 H114 0.977 . S
C89 C85 1.684 . S
C89 H115 0.979 . S
C89 H116 0.980 . S
C89 H117 0.983 . S
C90 H66 0.948 . S
C90 C91 1.391 . S
C90 C95 1.391 . S
C91 C90 1.391 . S
C91 C92 1.391 . S
C92 H69 0.947 1_554 S
C92 C91 1.391 . S
C92 C93 1.392 . S
C93 H70 0.948 1_554 S
C93 C92 1.392 . S
C93 C94 1.419 . S
C94 C93 1.419 . S
C94 C95 1.391 . S
C94 C98 1.397 1_655 S
C95 C90 1.391 . S
C95 C94 1.391 . S
C95 C96 1.399 . S
C96 C95 1.399 . S
C96 C97 1.396 1_655 S
C96 C99 1.453 1_655 S
C96 C100 1.684 . S
C97 C87 1.723 . S
C97 C96 1.396 1_455 S
C97 C98 1.394 . S
C98 C68 1.723 . S
C98 C94 1.397 1_455 S
C98 C97 1.394 . S
C99 H71 0.982 . S
C99 H75 0.979 . S
C99 H76 0.977 . S
C99 C96 1.453 1_455 S
C100 H72 0.979 . S
C100 H73 0.980 . S
C100 H74 0.983 . S
C100 C96 1.684 . S
H101 C119 0.948 . S
H102 C60 0.948 . S
H103 C78 0.979 . S
H104 C78 0.980 . S
H105 C78 0.983 . S
H106 C77 0.982 . S
H107 C77 0.979 . S
H108 C77 0.977 . S
H109 C79 0.948 . S
H110 C81 0.947 . S
H111 C82 0.948 . S
H112 C88 0.982 . S
H113 C88 0.979 . S
H114 C88 0.977 . S
H115 C89 0.979 . S
H116 C89 0.980 . S
H117 C89 0.983 . S
H118 C62 0.947 . S
C119 C62 1.392 . S
C119 C63 1.419 . S
C119 H101 0.948 . S
C120 C121 1.391 . S
C120 C124 1.391 . S
C120 H162 0.948 . S
C121 C120 1.391 . S
C121 C122 1.391 1_554 S
C122 C121 1.391 1_556 S
C122 H178 0.947 . S
C122 C179 1.392 1_556 S
C123 C124 1.391 . S
C123 C127 1.397 . S
C123 C179 1.419 . S
C124 C120 1.391 . S
C124 C123 1.391 . S
C124 C125 1.399 . S
C125 C124 1.399 . S
C125 C128 1.396 . S
C125 C137 1.453 . S
C125 C138 1.684 . S
H126 C150 0.948 . S
C127 C123 1.397 . S
C127 C128 1.394 . S
C127 C146 1.723 . S
C128 C125 1.396 . S
C128 C127 1.394 . S
C128 C158 1.723 . S
H129 C152 0.947 . S
H130 C153 0.948 . S
H131 C159 0.982 . S
H132 C160 0.979 . S
H133 C160 0.980 . S
H134 C160 0.983 . S
H135 C159 0.979 . S
H136 C159 0.977 . S
C137 C125 1.453 . S
C137 H166 0.982 . S
C137 H167 0.979 . S
C137 H168 0.977 . S
C138 C125 1.684 . S
C138 H163 0.979 . S
C138 H164 0.980 . S
C138 H165 0.983 . S
C139 C140 1.391 . S
C139 C144 1.391 . S
C139 H169 0.948 . S
C140 C139 1.391 . S
C140 C141 1.391 . S
C141 C140 1.391 . S
C141 C142 1.392 1_556 S
C141 H170 0.947 . S
C142 C141 1.392 1_554 S
C142 C143 1.419 . S
C142 H171 0.948 . S
C143 C142 1.419 . S
C143 C144 1.391 1_554 S
C143 C147 1.397 . S
C144 C139 1.391 . S
C144 C143 1.391 1_556 S
C144 C145 1.399 . S
C145 C144 1.399 . S
C145 C146 1.396 1_556 S
C145 C148 1.453 . S
C145 C149 1.684 . S
C146 C127 1.723 . S
C146 C145 1.396 1_554 S
C146 C147 1.394 . S
C147 C143 1.397 . S
C147 C146 1.394 . S
C147 C157 1.723 . S
C148 C145 1.453 . S
C148 H172 0.982 . S
C148 H173 0.979 . S
C148 H174 0.977 . S
C149 C145 1.684 . S
C149 H175 0.979 . S
C149 H176 0.980 . S
C149 H177 0.983 . S
C150 H126 0.948 . S
C150 C151 1.391 . S
C150 C155 1.391 . S
C151 C150 1.391 . S
C151 C152 1.391 . S
C152 H129 0.947 . S
C152 C151 1.391 . S
C152 C153 1.392 . S
C153 H130 0.948 . S
C153 C152 1.392 . S
C153 C154 1.419 . S
C154 C153 1.419 . S
C154 C155 1.391 . S
C154 C158 1.397 . S
C155 C150 1.391 . S
C155 C154 1.391 . S
C155 C156 1.399 . S
C156 C155 1.399 . S
C156 C157 1.396 . S
C156 C159 1.453 . S
C156 C160 1.684 . S
C157 C147 1.723 . S
C157 C156 1.396 . S
C157 C158 1.394 . S
C158 C128 1.723 . S
C158 C154 1.397 . S
C158 C157 1.394 . S
C159 H131 0.982 . S
C159 H135 0.979 . S
C159 H136 0.977 . S
C159 C156 1.453 . S
C160 H132 0.979 . S
C160 H133 0.980 . S
C160 H134 0.983 . S
C160 C156 1.684 . S
H161 C179 0.948 1_556 S
H162 C120 0.948 . S
H163 C138 0.979 . S
H164 C138 0.980 . S
H165 C138 0.983 . S
H166 C137 0.982 . S
H167 C137 0.979 . S
H168 C137 0.977 . S
H169 C139 0.948 . S
H170 C141 0.947 . S
H171 C142 0.948 . S
H172 C148 0.982 . S
H173 C148 0.979 . S
H174 C148 0.977 . S
H175 C149 0.979 . S
H176 C149 0.980 . S
H177 C149 0.983 . S
H178 C122 0.947 . S
C179 C122 1.392 1_554 S
C179 C123 1.419 . S
C179 H161 0.948 1_554 S
C180 C181 1.391 . S
C180 C184 1.391 . S
C180 H222 0.948 . S
C181 C180 1.391 . S
C181 C182 1.391 . S
C182 C181 1.391 . S
C182 H238 0.947 . S
C182 C239 1.392 . S
C183 C184 1.391 . S
C183 C187 1.397 . S
C183 C239 1.419 . S
C184 C180 1.391 . S
C184 C183 1.391 . S
C184 C185 1.399 . S
C185 C184 1.399 . S
C185 C188 1.396 . S
C185 C197 1.453 . S
C185 C198 1.684 . S
H186 C210 0.948 1_556 S
C187 C183 1.397 . S
C187 C188 1.394 . S
C187 C206 1.723 . S
C188 C185 1.396 . S
C188 C187 1.394 . S
C188 C218 1.723 . S
H189 C212 0.947 . S
H190 C213 0.948 . S
H191 C219 0.981 . S
H192 C220 0.979 . S
H193 C220 0.980 . S
H194 C220 0.983 . S
H195 C219 0.979 . S
H196 C219 0.977 . S
C197 C185 1.453 . S
C197 H226 0.982 . S
C197 H227 0.979 . S
C197 H228 0.977 . S
C198 C185 1.684 . S
C198 H223 0.979 . S
C198 H224 0.980 . S
C198 H225 0.983 . S
C199 C200 1.391 . S
C199 C204 1.391 1_556 S
C199 H229 0.948 1_556 S
C200 C199 1.391 . S
C200 C201 1.391 . S
C201 C200 1.391 . S
C201 C202 1.392 . S
C201 H230 0.947 . S
C202 C201 1.392 . S
C202 C203 1.419 1_556 S
C202 H231 0.948 . S
C203 C202 1.419 1_554 S
C203 C204 1.391 . S
C203 C207 1.397 . S
C204 C199 1.391 1_554 S
C204 C203 1.391 . S
C204 C205 1.399 . S
C205 C204 1.399 . S
C205 C206 1.396 . S
C205 C208 1.453 . S
C205 C209 1.684 . S
C206 C187 1.723 . S
C206 C205 1.396 . S
C206 C207 1.394 . S
C207 C203 1.397 . S
C207 C206 1.394 . S
C207 C217 1.723 . S
C208 C205 1.453 . S
C208 H232 0.982 . S
C208 H233 0.979 . S
C208 H234 0.977 . S
C209 C205 1.684 . S
C209 H235 0.979 . S
C209 H236 0.980 . S
C209 H237 0.983 . S
C210 H186 0.948 1_554 S
C210 C211 1.391 . S
C210 C215 1.391 . S
C211 C210 1.391 . S
C211 C212 1.391 . S
C212 H189 0.947 . S
C212 C211 1.391 . S
C212 C213 1.392 . S
C213 H190 0.948 . S
C213 C212 1.392 . S
C213 C214 1.419 . S
C214 C213 1.419 . S
C214 C215 1.391 . S
C214 C218 1.397 . S
C215 C210 1.391 . S
C215 C214 1.391 . S
C215 C216 1.399 . S
C216 C215 1.399 . S
C216 C217 1.396 . S
C216 C219 1.453 1_554 S
C216 C220 1.684 1_554 S
C217 C207 1.723 . S
C217 C216 1.396 . S
C217 C218 1.394 . S
C218 C188 1.723 . S
C218 C214 1.397 . S
C218 C217 1.394 . S
C219 H191 0.981 . S
C219 H195 0.979 . S
C219 H196 0.977 . S
C219 C216 1.453 1_556 S
C220 H192 0.979 . S
C220 H193 0.980 . S
C220 H194 0.983 . S
C220 C216 1.684 1_556 S
H221 C239 0.948 . S
H222 C180 0.948 . S
H223 C198 0.979 . S
H224 C198 0.980 . S
H225 C198 0.983 . S
H226 C197 0.982 . S
H227 C197 0.979 . S
H228 C197 0.977 . S
H229 C199 0.948 1_554 S
H230 C201 0.947 . S
H231 C202 0.948 . S
H232 C208 0.982 . S
H233 C208 0.979 . S
H234 C208 0.977 . S
H235 C209 0.979 . S
H236 C209 0.980 . S
H237 C209 0.983 . S
H238 C182 0.947 . S
C239 C182 1.392 . S
C239 C183 1.419 . S
C239 H221 0.948 . S
C240 C241 1.391 . S
C240 C244 1.391 . S
C240 H282 0.948 . S
C241 C240 1.391 . S
C241 C242 1.391 . S
C242 C241 1.391 . S
C242 H298 0.947 . S
C242 C299 1.392 . S
C243 C244 1.391 . S
C243 C247 1.397 . S
C243 C299 1.419 . S
C244 C240 1.391 . S
C244 C243 1.391 . S
C244 C245 1.399 . S
C245 C244 1.399 . S
C245 C248 1.396 . S
C245 C257 1.453 . S
C245 C258 1.684 . S
H246 C270 0.948 . S
C247 C243 1.397 . S
C247 C248 1.394 . S
C247 C266 1.723 . S
C248 C245 1.396 . S
C248 C247 1.394 . S
C248 C278 1.723 . S
H249 C272 0.947 . S
H250 C273 0.948 . S
H251 C279 0.982 . S
H252 C280 0.979 . S
H253 C280 0.980 . S
H254 C280 0.983 . S
H255 C279 0.979 . S
H256 C279 0.977 . S
C257 C245 1.453 . S
C257 H286 0.982 . S
C257 H287 0.979 . S
C257 H288 0.977 . S
C258 C245 1.684 . S
C258 H283 0.979 . S
C258 H284 0.980 . S
C258 H285 0.983 . S
C259 C260 1.391 . S
C259 C264 1.391 . S
C259 H289 0.948 . S
C260 C259 1.391 . S
C260 C261 1.391 . S
C261 C260 1.391 . S
C261 C262 1.392 . S
C261 H290 0.947 . S
C262 C261 1.392 . S
C262 C263 1.419 . S
C262 H291 0.948 . S
C263 C262 1.419 . S
C263 C264 1.391 . S
C263 C267 1.397 . S
C264 C259 1.391 . S
C264 C263 1.391 . S
C264 C265 1.399 . S
C265 C264 1.399 . S
C265 C266 1.396 . S
C265 C268 1.453 . S
C265 C269 1.684 . S
C266 C247 1.723 . S
C266 C265 1.396 . S
C266 C267 1.394 . S
C267 C263 1.397 . S
C267 C266 1.394 . S
C267 C277 1.723 . S
C268 C265 1.453 . S
C268 H292 0.982 . S
C268 H293 0.979 . S
C268 H294 0.977 . S
C269 C265 1.684 . S
C269 H295 0.979 . S
C269 H296 0.980 . S
C269 H297 0.983 . S
C270 H246 0.948 . S
C270 C271 1.391 . S
C270 C275 1.391 . S
C271 C270 1.391 . S
C271 C272 1.391 . S
C272 H249 0.947 . S
C272 C271 1.391 . S
C272 C273 1.392 . S
C273 H250 0.948 . S
C273 C272 1.392 . S
C273 C274 1.419 . S
C274 C273 1.419 . S
C274 C275 1.391 . S
C274 C278 1.397 . S
C275 C270 1.391 . S
C275 C274 1.391 . S
C275 C276 1.399 . S
C276 C275 1.399 . S
C276 C277 1.396 . S
C276 C279 1.453 . S
C276 C280 1.684 . S
C277 C267 1.723 . S
C277 C276 1.396 . S
C277 C278 1.394 . S
C278 C248 1.723 . S
C278 C274 1.397 . S
C278 C277 1.394 . S
C279 H251 0.982 . S
C279 H255 0.979 . S
C279 H256 0.977 . S
C279 C276 1.453 . S
C280 H252 0.979 . S
C280 H253 0.980 . S
C280 H254 0.983 . S
C280 C276 1.684 . S
H281 C299 0.948 . S
H282 C240 0.948 . S
H283 C258 0.979 . S
H284 C258 0.980 . S
H285 C258 0.983 . S
H286 C257 0.982 . S
H287 C257 0.979 . S
H288 C257 0.977 . S
H289 C259 0.948 . S
H290 C261 0.947 . S
H291 C262 0.948 . S
H292 C268 0.982 . S
H293 C268 0.979 . S
H294 C268 0.977 . S
H295 C269 0.979 . S
H296 C269 0.980 . S
H297 C269 0.983 . S
H298 C242 0.947 . S
C299 C242 1.392 . S
C299 C243 1.419 . S
C299 H281 0.948 . S
C300 C301 1.391 . S
C300 C304 1.391 . S
C300 H342 0.948 . S
C301 C300 1.391 . S
C301 C302 1.391 . S
C302 C301 1.391 . S
C302 H358 0.947 . S
C302 C359 1.392 . S
C303 C304 1.391 . S
C303 C307 1.396 1_655 S
C303 C359 1.419 . S
C304 C300 1.391 . S
C304 C303 1.391 . S
C304 C305 1.399 . S
C305 C304 1.399 . S
C305 C308 1.396 1_655 S
C305 C317 1.453 1_655 S
C305 C318 1.684 . S
H306 C330 0.948 . S
C307 C303 1.396 1_455 S
C307 C308 1.395 . S
C307 C326 1.723 . S
C308 C305 1.396 1_455 S
C308 C307 1.395 . S
C308 C338 1.723 . S
H309 C332 0.947 . S
H310 C333 0.948 . S
H311 C339 0.982 . S
H312 C340 0.979 . S
H313 C340 0.980 . S
H314 C340 0.983 . S
H315 C339 0.979 . S
H316 C339 0.977 . S
C317 C305 1.453 1_455 S
C317 H346 0.982 . S
C317 H347 0.979 . S
C317 H348 0.977 . S
C318 C305 1.684 . S
C318 H343 0.979 . S
C318 H344 0.980 . S
C318 H345 0.983 . S
C319 C320 1.391 . S
C319 C324 1.391 . S
C319 H349 0.948 . S
C320 C319 1.391 . S
C320 C321 1.391 . S
C321 C320 1.391 . S
C321 C322 1.392 . S
C321 H350 0.947 . S
C322 C321 1.392 . S
C322 C323 1.419 . S
C322 H351 0.948 . S
C323 C322 1.419 . S
C323 C324 1.391 . S
C323 C327 1.396 1_655 S
C324 C319 1.391 . S
C324 C323 1.391 . S
C324 C325 1.399 . S
C325 C324 1.399 . S
C325 C326 1.396 1_655 S
C325 C328 1.453 1_655 S
C325 C329 1.684 . S
C326 C307 1.723 . S
C326 C325 1.396 1_455 S
C326 C327 1.394 . S
C327 C323 1.396 1_455 S
C327 C326 1.394 . S
C327 C337 1.723 . S
C328 C325 1.453 1_455 S
C328 H352 0.982 . S
C328 H353 0.979 . S
C328 H354 0.977 . S
C329 C325 1.684 . S
C329 H355 0.979 . S
C329 H356 0.980 . S
C329 H357 0.983 . S
C330 H306 0.948 . S
C330 C331 1.391 . S
C330 C335 1.391 . S
C331 C330 1.391 . S
C331 C332 1.391 . S
C332 H309 0.947 . S
C332 C331 1.391 . S
C332 C333 1.392 . S
C333 H310 0.948 . S
C333 C332 1.392 . S
C333 C334 1.419 . S
C334 C333 1.419 . S
C334 C335 1.391 . S
C334 C338 1.397 1_655 S
C335 C330 1.391 . S
C335 C334 1.391 . S
C335 C336 1.399 . S
C336 C335 1.399 . S
C336 C337 1.396 1_655 S
C336 C339 1.453 1_655 S
C336 C340 1.684 . S
C337 C327 1.723 . S
C337 C336 1.396 1_455 S
C337 C338 1.395 . S
C338 C308 1.723 . S
C338 C334 1.397 1_455 S
C338 C337 1.395 . S
C339 H311 0.982 . S
C339 H315 0.979 . S
C339 H316 0.977 . S
C339 C336 1.453 1_455 S
C340 H312 0.979 . S
C340 H313 0.980 . S
C340 H314 0.983 . S
C340 C336 1.684 . S
H341 C359 0.948 . S
H342 C300 0.948 . S
H343 C318 0.979 . S
H344 C318 0.980 . S
H345 C318 0.983 . S
H346 C317 0.982 . S
H347 C317 0.979 . S
H348 C317 0.977 . S
H349 C319 0.948 . S
H350 C321 0.947 . S
H351 C322 0.948 . S
H352 C328 0.982 . S
H353 C328 0.979 . S
H354 C328 0.977 . S
H355 C329 0.979 . S
H356 C329 0.980 . S
H357 C329 0.983 . S
H358 C302 0.947 . S
C359 C302 1.392 . S
C359 C303 1.419 . S
C359 H341 0.948 . S
C360 C361 1.391 . S
C360 C364 1.391 . S
C360 H402 0.948 . S
C361 C360 1.391 . S
C361 C362 1.391 . S
C362 C361 1.391 . S
C362 H418 0.947 . S
C362 C419 1.392 . S
C363 C364 1.391 . S
C363 C367 1.397 . S
C363 C419 1.419 . S
C364 C360 1.391 . S
C364 C363 1.391 . S
C364 C365 1.399 . S
C365 C364 1.399 . S
C365 C368 1.396 . S
C365 C377 1.453 . S
C365 C378 1.684 . S
H366 C390 0.948 . S
C367 C363 1.397 . S
C367 C368 1.394 . S
C367 C386 1.723 . S
C368 C365 1.396 . S
C368 C367 1.394 . S
C368 C398 1.723 . S
H369 C392 0.947 . S
H370 C393 0.948 . S
H371 C399 0.982 . S
H372 C400 0.979 . S
H373 C400 0.980 . S
H374 C400 0.983 . S
H375 C399 0.979 . S
H376 C399 0.977 . S
C377 C365 1.453 . S
C377 H406 0.982 . S
C377 H407 0.979 . S
C377 H408 0.977 . S
C378 C365 1.684 . S
C378 H403 0.979 . S
C378 H404 0.980 . S
C378 H405 0.983 . S
C379 C380 1.391 . S
C379 C384 1.391 . S
C379 H409 0.948 . S
C380 C379 1.391 . S
C380 C381 1.391 . S
C381 C380 1.391 . S
C381 C382 1.392 . S
C381 H410 0.947 . S
C382 C381 1.392 . S
C382 C383 1.419 . S
C382 H411 0.948 . S
C383 C382 1.419 . S
C383 C384 1.391 . S
C383 C387 1.397 . S
C384 C379 1.391 . S
C384 C383 1.391 . S
C384 C385 1.399 . S
C385 C384 1.399 . S
C385 C386 1.396 . S
C385 C388 1.453 . S
C385 C389 1.684 . S
C386 C367 1.723 . S
C386 C385 1.396 . S
C386 C387 1.394 . S
C387 C383 1.397 . S
C387 C386 1.394 . S
C387 C397 1.723 . S
C388 C385 1.453 . S
C388 H412 0.982 . S
C388 H413 0.979 . S
C388 H414 0.977 . S
C389 C385 1.684 . S
C389 H415 0.979 . S
C389 H416 0.980 . S
C389 H417 0.983 . S
C390 H366 0.948 . S
C390 C391 1.391 . S
C390 C395 1.391 . S
C391 C390 1.391 . S
C391 C392 1.391 . S
C392 H369 0.947 . S
C392 C391 1.391 . S
C392 C393 1.392 . S
C393 H370 0.948 . S
C393 C392 1.392 . S
C393 C394 1.419 . S
C394 C393 1.419 . S
C394 C395 1.391 . S
C394 C398 1.397 . S
C395 C390 1.391 . S
C395 C394 1.391 . S
C395 C396 1.399 . S
C396 C395 1.399 . S
C396 C397 1.396 . S
C396 C399 1.453 . S
C396 C400 1.684 . S
C397 C387 1.723 . S
C397 C396 1.396 . S
C397 C398 1.394 . S
C398 C368 1.723 . S
C398 C394 1.397 . S
C398 C397 1.394 . S
C399 H371 0.982 . S
C399 H375 0.979 . S
C399 H376 0.977 . S
C399 C396 1.453 . S
C400 H372 0.979 . S
C400 H373 0.980 . S
C400 H374 0.983 . S
C400 C396 1.684 . S
H401 C419 0.948 . S
H402 C360 0.948 . S
H403 C378 0.979 . S
H404 C378 0.980 . S
H405 C378 0.983 . S
H406 C377 0.982 . S
H407 C377 0.979 . S
H408 C377 0.977 . S
H409 C379 0.948 . S
H410 C381 0.947 . S
H411 C382 0.948 . S
H412 C388 0.982 . S
H413 C388 0.979 . S
H414 C388 0.977 . S
H415 C389 0.979 . S
H416 C389 0.980 . S
H417 C389 0.983 . S
H418 C362 0.947 . S
C419 C362 1.392 . S
C419 C363 1.419 . S
C419 H401 0.948 . S
C420 C421 1.391 . S
C420 C424 1.391 . S
C420 H462 0.948 . S
C421 C420 1.391 . S
C421 C422 1.391 . S
C422 C421 1.391 . S
C422 H478 0.947 . S
C422 C479 1.392 . S
C423 C424 1.391 . S
C423 C427 1.397 . S
C423 C479 1.419 . S
C424 C420 1.391 . S
C424 C423 1.391 . S
C424 C425 1.399 . S
C425 C424 1.399 . S
C425 C428 1.396 . S
C425 C437 1.453 . S
C425 C438 1.684 . S
H426 C450 0.948 . S
C427 C423 1.397 . S
C427 C428 1.394 . S
C427 C446 1.723 . S
C428 C425 1.396 . S
C428 C427 1.394 . S
C428 C458 1.723 . S
H429 C452 0.947 . S
H430 C453 0.948 . S
H431 C459 0.982 . S
H432 C460 0.979 . S
H433 C460 0.980 . S
H434 C460 0.983 . S
H435 C459 0.979 . S
H436 C459 0.977 . S
C437 C425 1.453 . S
C437 H466 0.982 . S
C437 H467 0.979 . S
C437 H468 0.977 . S
C438 C425 1.684 . S
C438 H463 0.979 . S
C438 H464 0.980 . S
C438 H465 0.983 . S
C439 C440 1.391 . S
C439 C444 1.391 . S
C439 H469 0.948 . S
C440 C439 1.391 . S
C440 C441 1.391 . S
C441 C440 1.391 . S
C441 C442 1.392 . S
C441 H470 0.947 . S
C442 C441 1.392 . S
C442 C443 1.419 . S
C442 H471 0.948 . S
C443 C442 1.419 . S
C443 C444 1.391 . S
C443 C447 1.397 . S
C444 C439 1.391 . S
C444 C443 1.391 . S
C444 C445 1.399 . S
C445 C444 1.399 . S
C445 C446 1.396 . S
C445 C448 1.453 . S
C445 C449 1.684 . S
C446 C427 1.723 . S
C446 C445 1.396 . S
C446 C447 1.394 . S
C447 C443 1.397 . S
C447 C446 1.394 . S
C447 C457 1.723 . S
C448 C445 1.453 . S
C448 H472 0.982 . S
C448 H473 0.979 . S
C448 H474 0.977 . S
C449 C445 1.684 . S
C449 H475 0.979 . S
C449 H476 0.980 . S
C449 H477 0.983 . S
C450 H426 0.948 . S
C450 C451 1.391 . S
C450 C455 1.391 . S
C451 C450 1.391 . S
C451 C452 1.391 . S
C452 H429 0.947 . S
C452 C451 1.391 . S
C452 C453 1.392 . S
C453 H430 0.948 . S
C453 C452 1.392 . S
C453 C454 1.419 . S
C454 C453 1.419 . S
C454 C455 1.391 . S
C454 C458 1.397 . S
C455 C450 1.391 . S
C455 C454 1.391 . S
C455 C456 1.399 . S
C456 C455 1.399 . S
C456 C457 1.396 . S
C456 C459 1.453 . S
C456 C460 1.684 . S
C457 C447 1.723 . S
C457 C456 1.396 . S
C457 C458 1.394 . S
C458 C428 1.723 . S
C458 C454 1.397 . S
C458 C457 1.394 . S
C459 H431 0.982 . S
C459 H435 0.979 . S
C459 H436 0.977 . S
C459 C456 1.453 . S
C460 H432 0.979 . S
C460 H433 0.980 . S
C460 H434 0.983 . S
C460 C456 1.684 . S
H461 C479 0.948 . S
H462 C420 0.948 . S
H463 C438 0.979 . S
H464 C438 0.980 . S
H465 C438 0.983 . S
H466 C437 0.982 . S
H467 C437 0.979 . S
H468 C437 0.977 . S
H469 C439 0.948 . S
H470 C441 0.947 . S
H471 C442 0.948 . S
H472 C448 0.982 . S
H473 C448 0.979 . S
H474 C448 0.977 . S
H475 C449 0.979 . S
H476 C449 0.980 . S
H477 C449 0.983 . S
H478 C422 0.947 . S
C479 C422 1.392 . S
C479 C423 1.419 . S
C479 H461 0.948 . S
O480 Mg481 1.990 . S
O480 C494 1.253 . S
Mg481 O480 1.990 . S
Mg481 O484 2.180 1_565 S
Mg481 O485 2.117 . S
Mg481 O499 2.030 . S
O482 Mg483 2.072 1_465 S
O482 C494 1.260 . S
Mg483 O482 2.072 1_645 S
Mg483 O484 2.099 1_655 S
Mg483 O486 2.079 . S
Mg483 O487 2.072 1_655 S
Mg483 O489 2.099 . S
Mg483 O500 2.079 1_545 S
O484 Mg481 2.180 1_545 S
O484 Mg483 2.099 1_455 S
O484 C495 1.279 . S
O485 Mg481 2.117 . S
O485 C495 1.250 1_565 S
O486 Mg483 2.079 . S
O486 C496 1.264 . S
O487 Mg483 2.072 1_455 S
O487 C497 1.260 . S
Mg488 O489 2.180 . S
Mg488 O490 2.030 . S
Mg488 O491 1.990 . S
Mg488 O492 2.117 . S
O489 Mg483 2.099 . S
O489 Mg488 2.180 . S
O489 C498 1.279 . S
O490 Mg488 2.030 . S
O490 C496 1.248 . S
O491 Mg488 1.990 . S
O491 C497 1.253 1_655 S
O492 Mg488 2.117 . S
O492 C498 1.250 . S
C493 O499 1.248 1_655 S
C493 O500 1.264 . S
C494 O480 1.253 . S
C494 O482 1.260 . S
C495 O484 1.279 . S
C495 O485 1.250 1_545 S
C496 O486 1.264 . S
C496 O490 1.248 . S
C497 O487 1.260 . S
C497 O491 1.253 1_455 S
C498 O489 1.279 . S
C498 O492 1.250 . S
O499 Mg481 2.030 . S
O499 C493 1.248 1_455 S
O500 Mg483 2.079 1_565 S
O500 C493 1.264 . S
O501 Mg502 1.990 1_545 S
O501 C515 1.253 . S
Mg502 O501 1.990 1_565 S
Mg502 O505 2.180 . S
Mg502 O506 2.117 . S
Mg502 O520 2.030 1_565 S
O503 Mg504 2.072 . S
O503 C515 1.260 . S
Mg504 O503 2.072 . S
Mg504 O505 2.099 1_545 S
Mg504 O507 2.079 1_545 S
Mg504 O508 2.072 1_545 S
Mg504 O510 2.099 . S
Mg504 O521 2.079 . S
O505 Mg502 2.180 . S
O505 Mg504 2.099 1_565 S
O505 C516 1.279 . S
O506 Mg502 2.117 . S
O506 C516 1.250 . S
O507 Mg504 2.079 1_565 S
O507 C517 1.264 . S
O508 Mg504 2.072 1_565 S
O508 C518 1.260 1_565 S
Mg509 O510 2.180 . S
Mg509 O511 2.029 . S
Mg509 O512 1.990 . S
Mg509 O513 2.117 . S
O510 Mg504 2.099 . S
O510 Mg509 2.180 . S
O510 C519 1.279 . S
O511 Mg509 2.029 . S
O511 C517 1.248 1_545 S
O512 Mg509 1.990 . S
O512 C518 1.253 . S
O513 Mg509 2.117 . S
O513 C519 1.250 . S
C514 O520 1.248 . S
C514 O521 1.264 . S
C515 O501 1.253 . S
C515 O503 1.260 . S
C516 O505 1.279 . S
C516 O506 1.250 . S
C517 O507 1.264 . S
C517 O511 1.248 1_565 S
C518 O508 1.260 1_545 S
C518 O512 1.253 . S
C519 O510 1.279 . S
C519 O513 1.250 . S
O520 Mg502 2.030 1_545 S
O520 C514 1.248 . S
O521 Mg504 2.079 . S
O521 C514 1.264 . S
O522 Mg523 1.990 . S
O522 C536 1.253 . S
Mg523 O522 1.990 . S
Mg523 O526 2.180 . S
Mg523 O527 2.117 . S
Mg523 O541 2.030 . S
O524 Mg525 2.072 . S
O524 C536 1.260 . S
Mg525 O524 2.072 . S
Mg525 O526 2.099 . S
Mg525 O528 2.079 . S
Mg525 O529 2.072 . S
Mg525 O531 2.099 . S
Mg525 O542 2.079 . S
O526 Mg523 2.180 . S
O526 Mg525 2.099 . S
O526 C537 1.279 . S
O527 Mg523 2.117 . S
O527 C537 1.250 . S
O528 Mg525 2.079 . S
O528 C538 1.264 . S
O529 Mg525 2.072 . S
O529 C539 1.260 . S
Mg530 O531 2.180 . S
Mg530 O532 2.030 . S
Mg530 O533 1.990 . S
Mg530 O534 2.117 . S
O531 Mg525 2.099 . S
O531 Mg530 2.180 . S
O531 C540 1.279 . S
O532 Mg530 2.030 . S
O532 C538 1.248 . S
O533 Mg530 1.990 . S
O533 C539 1.253 . S
O534 Mg530 2.117 . S
O534 C540 1.250 . S
C535 O541 1.248 . S
C535 O542 1.264 . S
C536 O522 1.253 . S
C536 O524 1.260 . S
C537 O526 1.279 . S
C537 O527 1.250 . S
C538 O528 1.264 . S
C538 O532 1.248 . S
C539 O529 1.260 . S
C539 O533 1.253 . S
C540 O531 1.279 . S
C540 O534 1.250 . S
O541 Mg523 2.030 . S
O541 C535 1.248 . S
O542 Mg525 2.079 . S
O542 C535 1.264 . S
O543 Mg544 1.990 . S
O543 C557 1.253 . S
Mg544 O543 1.990 . S
Mg544 O547 2.180 . S
Mg544 O548 2.117 . S
Mg544 O562 2.030 . S
O545 Mg546 2.072 1_655 S
O545 C557 1.260 . S
Mg546 O545 2.072 1_455 S
Mg546 O547 2.099 1_455 S
Mg546 O549 2.079 . S
Mg546 O550 2.072 . S
Mg546 O552 2.099 . S
Mg546 O563 2.079 1_455 S
O547 Mg544 2.180 . S
O547 Mg546 2.099 1_655 S
O547 C558 1.279 . S
O548 Mg544 2.117 . S
O548 C558 1.250 . S
O549 Mg546 2.079 . S
O549 C559 1.264 . S
O550 Mg546 2.072 . S
O550 C560 1.260 . S
Mg551 O552 2.180 . S
Mg551 O553 2.030 . S
Mg551 O554 1.990 . S
Mg551 O555 2.117 . S
O552 Mg546 2.099 . S
O552 Mg551 2.180 . S
O552 C561 1.279 . S
O553 Mg551 2.030 . S
O553 C559 1.248 . S
O554 Mg551 1.990 . S
O554 C560 1.253 . S
O555 Mg551 2.117 . S
O555 C561 1.250 . S
C556 O562 1.248 . S
C556 O563 1.264 . S
C557 O543 1.253 . S
C557 O545 1.260 . S
C558 O547 1.279 . S
C558 O548 1.250 . S
C559 O549 1.264 . S
C559 O553 1.248 . S
C560 O550 1.260 . S
C560 O554 1.253 . S
C561 O552 1.279 . S
C561 O555 1.250 . S
O562 Mg544 2.030 . S
O562 C556 1.248 . S
O563 Mg546 2.079 1_655 S
O563 C556 1.264 . S
H564 C572 0.950 . S
H565 C577 0.950 . S
H566 C574 0.950 . S
H567 C576 0.950 . S
H568 C578 0.950 . S
H569 C580 0.950 . S
H570 C582 0.950 . S
H571 C583 0.950 . S
C572 H564 0.950 . S
C572 C573 1.386 . S
C572 C574 1.391 . S
C573 C572 1.386 . S
C573 C577 1.393 . S
C574 H566 0.950 . S
C574 C572 1.391 . S
C574 C575 1.400 . S
C575 C574 1.400 . S
C575 C576 1.398 . S
C575 C581 1.491 . S
C576 H567 0.950 . S
C576 C575 1.398 . S
C576 C577 1.391 . S
C577 H565 0.950 . S
C577 C573 1.393 . S
C577 C576 1.391 . S
C578 H568 0.950 . S
C578 C579 1.386 . S
C578 C580 1.391 . S
C579 C578 1.386 . S
C579 C583 1.393 . S
C580 H569 0.950 . S
C580 C578 1.391 . S
C580 C581 1.400 . S
C581 C575 1.491 . S
C581 C580 1.400 . S
C581 C582 1.398 . S
C582 H570 0.950 . S
C582 C581 1.398 . S
C582 C583 1.391 . S
C583 H571 0.950 . S
C583 C579 1.393 . S
C583 C582 1.391 . S
H584 C592 0.950 . S
H585 C597 0.950 . S
H586 C594 0.950 . S
H587 C596 0.950 . S
H588 C598 0.950 . S
H589 C600 0.950 . S
H590 C602 0.950 . S
H591 C603 0.950 . S
C592 H584 0.950 . S
C592 C593 1.386 . S
C592 C594 1.391 . S
C593 C592 1.386 . S
C593 C597 1.393 . S
C594 H586 0.950 . S
C594 C592 1.391 . S
C594 C595 1.400 . S
C595 C594 1.400 . S
C595 C596 1.398 . S
C595 C601 1.491 . S
C596 H587 0.950 . S
C596 C595 1.398 . S
C596 C597 1.391 . S
C597 H585 0.950 . S
C597 C593 1.393 . S
C597 C596 1.391 . S
C598 H588 0.950 . S
C598 C599 1.386 . S
C598 C600 1.391 . S
C599 C598 1.386 . S
C599 C603 1.393 . S
C600 H589 0.950 . S
C600 C598 1.391 . S
C600 C601 1.400 . S
C601 C595 1.491 . S
C601 C600 1.400 . S
C601 C602 1.398 . S
C602 H590 0.950 . S
C602 C601 1.398 . S
C602 C603 1.391 . S
C603 H591 0.950 . S
C603 C599 1.393 . S
C603 C602 1.391 . S
H604 C612 0.950 . S
H605 C617 0.950 . S
H606 C614 0.950 . S
H607 C616 0.950 . S
H608 C618 0.950 . S
H609 C620 0.950 . S
H610 C622 0.950 . S
H611 C623 0.950 . S
C612 H604 0.950 . S
C612 C613 1.386 . S
C612 C614 1.391 . S
C613 C612 1.386 . S
C613 C617 1.393 . S
C614 H606 0.950 . S
C614 C612 1.391 . S
C614 C615 1.400 . S
C615 C614 1.400 . S
C615 C616 1.398 . S
C615 C621 1.491 . S
C616 H607 0.950 . S
C616 C615 1.398 . S
C616 C617 1.391 . S
C617 H605 0.950 . S
C617 C613 1.393 . S
C617 C616 1.391 . S
C618 H608 0.950 . S
C618 C619 1.386 . S
C618 C620 1.391 . S
C619 C618 1.386 . S
C619 C623 1.393 . S
C620 H609 0.950 . S
C620 C618 1.391 . S
C620 C621 1.400 . S
C621 C615 1.491 . S
C621 C620 1.400 . S
C621 C622 1.398 . S
C622 H610 0.950 . S
C622 C621 1.398 . S
C622 C623 1.391 . S
C623 H611 0.950 . S
C623 C619 1.393 . S
C623 C622 1.391 . S
H624 C632 0.950 . S
H625 C637 0.950 . S
H626 C634 0.950 . S
H627 C636 0.950 . S
H628 C638 0.950 . S
H629 C640 0.950 . S
H630 C642 0.950 . S
H631 C643 0.950 . S
C632 H624 0.950 . S
C632 C633 1.349 1_455 S
C632 C634 1.391 . S
C633 C632 1.349 1_655 S
C633 C637 1.431 . S
C634 H626 0.950 . S
C634 C632 1.391 . S
C634 C635 1.400 1_455 S
C635 C634 1.400 1_655 S
C635 C636 1.398 . S
C635 C641 1.491 . S
C636 H627 0.950 . S
C636 C635 1.398 . S
C636 C637 1.391 . S
C637 H625 0.950 . S
C637 C633 1.431 . S
C637 C636 1.391 . S
C638 H628 0.950 . S
C638 C639 1.386 . S
C638 C640 1.391 . S
C639 C638 1.386 . S
C639 C643 1.393 1_655 S
C640 H629 0.950 . S
C640 C638 1.391 . S
C640 C641 1.400 . S
C641 C635 1.491 . S
C641 C640 1.400 . S
C641 C642 1.398 1_655 S
C642 H630 0.950 . S
C642 C641 1.398 1_455 S
C642 C643 1.391 . S
C643 H631 0.950 . S
C643 C639 1.393 1_455 S
C643 C642 1.391 . S
H644 C652 0.950 . S
H645 C657 0.950 . S
H646 C654 0.950 . S
H647 C656 0.950 . S
H648 C658 0.950 1_545 S
H649 C660 0.950 . S
H650 C662 0.950 . S
H651 C663 0.950 . S
C652 H644 0.950 . S
C652 C653 1.386 . S
C652 C654 1.391 1_554 S
C653 C652 1.386 . S
C653 C657 1.393 1_554 S
C654 H646 0.950 . S
C654 C652 1.391 1_556 S
C654 C655 1.400 . S
C655 C654 1.400 . S
C655 C656 1.398 . S
C655 C661 1.491 . S
C656 H647 0.950 . S
C656 C655 1.398 . S
C656 C657 1.391 . S
C657 H645 0.950 . S
C657 C653 1.393 1_556 S
C657 C656 1.391 . S
C658 H648 0.950 1_565 S
C658 C659 1.386 . S
C658 C660 1.391 . S
C659 C658 1.386 . S
C659 C663 1.393 . S
C660 H649 0.950 . S
C660 C658 1.391 . S
C660 C661 1.400 . S
C661 C655 1.491 . S
C661 C660 1.400 . S
C661 C662 1.398 . S
C662 H650 0.950 . S
C662 C661 1.398 . S
C662 C663 1.391 . S
C663 H651 0.950 . S
C663 C659 1.393 . S
C663 C662 1.391 . S
H664 C672 0.950 . S
H665 C677 0.950 . S
H666 C674 0.950 . S
H667 C676 0.950 . S
H668 C678 0.950 . S
H669 C680 0.950 . S
H670 C682 0.950 . S
H671 C683 0.950 . S
C672 H664 0.950 . S
C672 C673 1.386 . S
C672 C674 1.391 . S
C673 C672 1.386 . S
C673 C677 1.393 1_554 S
C674 H666 0.950 . S
C674 C672 1.391 . S
C674 C675 1.400 1_554 S
C675 C674 1.400 1_556 S
C675 C676 1.398 . S
C675 C681 1.491 . S
C676 H667 0.950 . S
C676 C675 1.398 . S
C676 C677 1.391 . S
C677 H665 0.950 . S
C677 C673 1.393 1_556 S
C677 C676 1.391 . S
C678 H668 0.950 . S
C678 C679 1.386 . S
C678 C680 1.391 . S
C679 C678 1.386 . S
C679 C683 1.393 . S
C680 H669 0.950 . S
C680 C678 1.391 . S
C680 C681 1.400 . S
C681 C675 1.491 . S
C681 C680 1.400 . S
C681 C682 1.398 . S
C682 H670 0.950 . S
C682 C681 1.398 . S
C682 C683 1.391 . S
C683 H671 0.950 . S
C683 C679 1.393 . S
C683 C682 1.391 . S
H684 C692 0.950 . S
H685 C697 0.950 . S
H686 C694 0.950 . S
H687 C696 0.950 1_554 S
H688 C698 0.950 . S
H689 C700 0.950 . S
H690 C702 0.950 . S
H691 C703 0.950 . S
C692 H684 0.950 . S
C692 C693 1.386 1_556 S
C692 C694 1.391 . S
C693 C692 1.386 1_554 S
C693 C697 1.393 . S
C694 H686 0.950 . S
C694 C692 1.391 . S
C694 C695 1.400 . S
C695 C694 1.400 . S
C695 C696 1.398 . S
C695 C701 1.491 . S
C696 H687 0.950 1_556 S
C696 C695 1.398 . S
C696 C697 1.391 1_556 S
C697 H685 0.950 . S
C697 C693 1.393 . S
C697 C696 1.391 1_554 S
C698 H688 0.950 . S
C698 C699 1.386 . S
C698 C700 1.391 . S
C699 C698 1.386 . S
C699 C703 1.393 . S
C700 H689 0.950 . S
C700 C698 1.391 . S
C700 C701 1.400 . S
C701 C695 1.491 . S
C701 C700 1.400 . S
C701 C702 1.398 . S
C702 H690 0.950 . S
C702 C701 1.398 . S
C702 C703 1.391 . S
C703 H691 0.950 . S
C703 C699 1.393 . S
C703 C702 1.391 . S
H704 C712 0.950 . S
H705 C717 0.950 . S
H706 C714 0.950 . S
H707 C716 0.950 . S
H708 C718 0.950 . S
H709 C720 0.950 . S
H710 C722 0.950 . S
H711 C723 0.950 . S
C712 H704 0.950 . S
C712 C713 1.386 1_556 S
C712 C714 1.391 . S
C713 C712 1.386 1_554 S
C713 C717 1.393 1_455 S
C714 H706 0.950 . S
C714 C712 1.391 . S
C714 C715 1.400 . S
C715 C714 1.400 . S
C715 C716 1.398 1_456 S
C715 C721 1.491 . S
C716 H707 0.950 . S
C716 C715 1.398 1_654 S
C716 C717 1.391 . S
C717 H705 0.950 . S
C717 C713 1.393 1_655 S
C717 C716 1.391 . S
C718 H708 0.950 . S
C718 C719 1.386 1_655 S
C718 C720 1.391 . S
C719 C718 1.386 1_455 S
C719 C723 1.393 . S
C720 H709 0.950 . S
C720 C718 1.391 . S
C720 C721 1.400 1_655 S
C721 C715 1.491 . S
C721 C720 1.400 1_455 S
C721 C722 1.398 . S
C722 H710 0.950 . S
C722 C721 1.398 . S
C722 C723 1.391 . S
C723 H711 0.950 . S
C723 C719 1.393 . S
C723 C722 1.391 . S
H724 C732 0.950 . S
H725 C737 0.950 . S
H726 C734 0.950 . S
H727 C736 0.950 . S
H728 C738 0.950 . S
H729 C740 0.950 . S
H730 C742 0.938 1_455 S
H731 C743 0.950 . S
C732 H724 0.950 . S
C732 C733 1.386 . S
C732 C734 1.391 . S
C733 C732 1.386 . S
C733 C737 1.393 1_455 S
C734 H726 0.950 . S
C734 C732 1.391 . S
C734 C735 1.400 1_455 S
C735 C734 1.400 1_655 S
C735 C736 1.398 . S
C735 C741 1.491 . S
C736 H727 0.950 . S
C736 C735 1.398 . S
C736 C737 1.391 . S
C737 H725 0.950 . S
C737 C733 1.393 1_655 S
C737 C736 1.391 . S
C738 H728 0.950 . S
C738 C739 1.386 . S
C738 C740 1.391 . S
C739 C738 1.386 . S
C739 C743 1.393 . S
C740 H729 0.950 . S
C740 C738 1.391 . S
C740 C741 1.400 . S
C741 C735 1.491 . S
C741 C740 1.400 . S
C741 C742 1.398 . S
C742 H730 0.938 1_655 S
C742 C741 1.398 . S
C742 C743 1.391 . S
C743 H731 0.950 . S
C743 C739 1.393 . S
C743 C742 1.391 . S
H744 C752 0.950 . S
H745 C757 0.950 . S
H746 C754 0.950 . S
H747 C756 0.950 . S
H748 C758 0.950 . S
H749 C760 0.950 . S
H750 C762 0.950 . S
H751 C763 0.950 1_565 S
C752 H744 0.950 . S
C752 C753 1.386 . S
C752 C754 1.391 . S
C753 C752 1.386 . S
C753 C757 1.393 . S
C754 H746 0.950 . S
C754 C752 1.391 . S
C754 C755 1.400 . S
C755 C754 1.400 . S
C755 C756 1.398 . S
C755 C761 1.491 . S
C756 H747 0.950 . S
C756 C755 1.398 . S
C756 C757 1.391 . S
C757 H745 0.950 . S
C757 C753 1.393 . S
C757 C756 1.391 . S
C758 H748 0.950 . S
C758 C759 1.386 . S
C758 C760 1.391 . S
C759 C758 1.386 . S
C759 C763 1.393 . S
C760 H749 0.950 . S
C760 C758 1.391 . S
C760 C761 1.400 . S
C761 C755 1.491 . S
C761 C760 1.400 . S
C761 C762 1.398 . S
C762 H750 0.950 . S
C762 C761 1.398 . S
C762 C763 1.391 . S
C763 H751 0.950 1_545 S
C763 C759 1.393 . S
C763 C762 1.391 . S
H764 C772 0.950 . S
H765 C777 0.950 . S
H766 C774 0.950 . S
H767 C776 0.950 . S
H768 C778 0.950 . S
H769 C780 0.950 . S
H770 C782 0.950 . S
H771 C783 0.950 . S
C772 H764 0.950 . S
C772 C773 1.386 . S
C772 C774 1.391 . S
C773 C772 1.386 . S
C773 C777 1.393 . S
C774 H766 0.950 . S
C774 C772 1.391 . S
C774 C775 1.400 . S
C775 C774 1.400 . S
C775 C776 1.398 . S
C775 C781 1.491 . S
C776 H767 0.950 . S
C776 C775 1.398 . S
C776 C777 1.391 . S
C777 H765 0.950 . S
C777 C773 1.393 . S
C777 C776 1.391 . S
C778 H768 0.950 . S
C778 C779 1.386 . S
C778 C780 1.391 . S
C779 C778 1.386 . S
C779 C783 1.393 . S
C780 H769 0.950 . S
C780 C778 1.391 . S
C780 C781 1.400 . S
C781 C775 1.491 . S
C781 C780 1.400 . S
C781 C782 1.398 . S
C782 H770 0.950 . S
C782 C781 1.398 . S
C782 C783 1.391 . S
C783 H771 0.950 . S
C783 C779 1.393 . S
C783 C782 1.391 . S
H784 C792 0.950 . S
H785 C797 0.950 . S
H786 C794 0.950 . S
H787 C796 0.950 . S
H788 C798 0.950 . S
H789 C800 0.950 . S
H790 C802 0.950 . S
H791 C803 0.950 . S
C792 H784 0.950 . S
C792 C793 1.386 . S
C792 C794 1.391 . S
C793 C792 1.386 . S
C793 C797 1.393 . S
C794 H786 0.950 . S
C794 C792 1.391 . S
C794 C795 1.400 . S
C795 C794 1.400 . S
C795 C796 1.398 . S
C795 C801 1.491 . S
C796 H787 0.950 . S
C796 C795 1.398 . S
C796 C797 1.391 . S
C797 H785 0.950 . S
C797 C793 1.393 . S
C797 C796 1.391 . S
C798 H788 0.950 . S
C798 C799 1.386 . S
C798 C800 1.391 . S
C799 C798 1.386 . S
C799 C803 1.393 . S
C800 H789 0.950 . S
C800 C798 1.391 . S
C800 C801 1.400 . S
C801 C795 1.491 . S
C801 C800 1.400 . S
C801 C802 1.398 . S
C802 H790 0.950 . S
C802 C801 1.398 . S
C802 C803 1.391 . S
C803 H791 0.950 . S
C803 C799 1.393 . S
C803 C802 1.391 . S
H804 C812 0.950 . S
H805 C817 0.950 . S
H806 C814 0.950 . S
H807 C816 0.950 . S
H808 C818 0.950 . S
H809 C820 0.950 . S
H810 C822 0.950 . S
H811 C823 0.950 . S
C812 H804 0.950 . S
C812 C813 1.386 1_455 S
C812 C814 1.391 . S
C813 C812 1.386 1_655 S
C813 C817 1.393 . S
C814 H806 0.950 . S
C814 C812 1.391 . S
C814 C815 1.400 . S
C815 C814 1.400 . S
C815 C816 1.398 1_455 S
C815 C821 1.491 . S
C816 H807 0.950 . S
C816 C815 1.398 1_655 S
C816 C817 1.391 . S
C817 H805 0.950 . S
C817 C813 1.393 . S
C817 C816 1.391 . S
C818 H808 0.950 . S
C818 C819 1.386 1_655 S
C818 C820 1.391 . S
C819 C818 1.386 1_455 S
C819 C823 1.393 . S
C820 H809 0.950 . S
C820 C818 1.391 . S
C820 C821 1.400 1_655 S
C821 C815 1.491 . S
C821 C820 1.400 1_455 S
C821 C822 1.398 . S
C822 H810 0.950 . S
C822 C821 1.398 . S
C822 C823 1.391 . S
C823 H811 0.950 . S
C823 C819 1.393 . S
C823 C822 1.391 . S
H824 C832 0.950 . S
H825 C837 0.950 . S
H826 C834 0.950 . S
H827 C836 0.950 . S
H828 C838 0.929 1_545 S
H829 C840 0.950 . S
H830 C842 0.950 . S
H831 C843 0.950 . S
C832 H824 0.950 . S
C832 C833 1.386 . S
C832 C834 1.391 . S
C833 C832 1.386 . S
C833 C837 1.393 . S
C834 H826 0.950 . S
C834 C832 1.391 . S
C834 C835 1.400 . S
C835 C834 1.400 . S
C835 C836 1.398 . S
C835 C841 1.491 . S
C836 H827 0.950 . S
C836 C835 1.398 . S
C836 C837 1.391 . S
C837 H825 0.950 . S
C837 C833 1.393 . S
C837 C836 1.391 . S
C838 H828 0.929 1_565 S
C838 C839 1.386 . S
C838 C840 1.391 . S
C839 C838 1.386 . S
C839 C843 1.393 . S
C840 H829 0.950 . S
C840 C838 1.391 . S
C840 C841 1.400 . S
C841 C835 1.491 . S
C841 C840 1.400 . S
C841 C842 1.398 . S
C842 H830 0.950 . S
C842 C841 1.398 . S
C842 C843 1.391 . S
C843 H831 0.950 . S
C843 C839 1.393 . S
C843 C842 1.391 . S
H844 C852 0.950 . S
H845 C857 0.950 . S
H846 C854 0.950 . S
H847 C856 0.950 . S
H848 C858 0.950 . S
H849 C860 0.950 . S
H850 C862 0.950 . S
H851 C863 0.950 . S
C852 H844 0.950 . S
C852 C853 1.386 . S
C852 C854 1.391 . S
C853 C852 1.386 . S
C853 C857 1.393 . S
C854 H846 0.950 . S
C854 C852 1.391 . S
C854 C855 1.400 . S
C855 C854 1.400 . S
C855 C856 1.398 . S
C855 C861 1.491 . S
C856 H847 0.950 . S
C856 C855 1.398 . S
C856 C857 1.391 . S
C857 H845 0.950 . S
C857 C853 1.393 . S
C857 C856 1.391 . S
C858 H848 0.950 . S
C858 C859 1.386 . S
C858 C860 1.391 . S
C859 C858 1.386 . S
C859 C863 1.393 . S
C860 H849 0.950 . S
C860 C858 1.391 . S
C860 C861 1.400 . S
C861 C855 1.491 . S
C861 C860 1.400 . S
C861 C862 1.398 . S
C862 H850 0.950 . S
C862 C861 1.398 . S
C862 C863 1.391 . S
C863 H851 0.950 . S
C863 C859 1.393 . S
C863 C862 1.391 . S
H864 C872 0.950 . S
H865 C877 0.950 . S
H866 C874 0.950 . S
H867 C876 0.950 . S
H868 C878 0.950 . S
H869 C880 0.950 . S
H870 C882 0.950 . S
H871 C883 0.950 . S
C872 H864 0.950 . S
C872 C873 1.386 . S
C872 C874 1.391 . S
C873 C872 1.386 . S
C873 C877 1.393 . S
C874 H866 0.950 . S
C874 C872 1.391 . S
C874 C875 1.400 . S
C875 C874 1.400 . S
C875 C876 1.398 . S
C875 C881 1.491 . S
C876 H867 0.950 . S
C876 C875 1.398 . S
C876 C877 1.391 . S
C877 H865 0.950 . S
C877 C873 1.393 . S
C877 C876 1.391 . S
C878 H868 0.950 . S
C878 C879 1.386 . S
C878 C880 1.391 . S
C879 C878 1.386 . S
C879 C883 1.393 . S
C880 H869 0.950 . S
C880 C878 1.391 . S
C880 C881 1.400 . S
C881 C875 1.491 . S
C881 C880 1.400 . S
C881 C882 1.398 . S
C882 H870 0.950 . S
C882 C881 1.398 . S
C882 C883 1.391 . S
C883 H871 0.950 . S
C883 C879 1.393 . S
C883 C882 1.391 . S
H884 C892 0.950 . S
H885 C897 0.950 . S
H886 C894 0.950 . S
H887 C896 0.950 . S
H888 C898 0.950 . S
H889 C900 0.950 . S
H890 C902 0.950 . S
H891 C903 0.950 . S
C892 H884 0.950 . S
C892 C893 1.386 1_556 S
C892 C894 1.391 . S
C893 C892 1.386 1_554 S
C893 C897 1.393 1_455 S
C894 H886 0.950 . S
C894 C892 1.391 . S
C894 C895 1.400 . S
C895 C894 1.400 . S
C895 C896 1.398 1_456 S
C895 C901 1.491 . S
C896 H887 0.950 . S
C896 C895 1.398 1_654 S
C896 C897 1.391 . S
C897 H885 0.950 . S
C897 C893 1.393 1_655 S
C897 C896 1.391 . S
C898 H888 0.950 . S
C898 C899 1.386 1_655 S
C898 C900 1.391 . S
C899 C898 1.386 1_455 S
C899 C903 1.393 . S
C900 H889 0.950 . S
C900 C898 1.391 . S
C900 C901 1.400 1_655 S
C901 C895 1.491 . S
C901 C900 1.400 1_455 S
C901 C902 1.398 . S
C902 H890 0.950 . S
C902 C901 1.398 . S
C902 C903 1.391 . S
C903 H891 0.950 . S
C903 C899 1.393 . S
C903 C902 1.391 . S
H904 C912 0.950 . S
H905 C917 0.950 . S
H906 C914 0.950 . S
H907 C916 0.950 . S
H908 C918 0.950 . S
H909 C920 0.950 . S
H910 C922 0.950 1_554 S
H911 C923 0.950 . S
C912 H904 0.950 . S
C912 C913 1.386 . S
C912 C914 1.391 . S
C913 C912 1.386 . S
C913 C917 1.393 1_554 S
C914 H906 0.950 . S
C914 C912 1.391 . S
C914 C915 1.400 1_554 S
C915 C914 1.400 1_556 S
C915 C916 1.398 . S
C915 C921 1.491 . S
C916 H907 0.950 . S
C916 C915 1.398 . S
C916 C917 1.391 . S
C917 H905 0.950 . S
C917 C913 1.393 1_556 S
C917 C916 1.391 . S
C918 H908 0.950 . S
C918 C919 1.386 . S
C918 C920 1.391 . S
C919 C918 1.386 . S
C919 C923 1.393 . S
C920 H909 0.950 . S
C920 C918 1.391 . S
C920 C921 1.400 . S
C921 C915 1.491 . S
C921 C920 1.400 . S
C921 C922 1.398 . S
C922 H910 0.950 1_556 S
C922 C921 1.398 . S
C922 C923 1.391 . S
C923 H911 0.950 . S
C923 C919 1.393 . S
C923 C922 1.391 . S
H924 C932 0.950 . S
H925 C937 0.950 . S
H926 C934 0.950 . S
H927 C936 0.950 . S
H928 C938 0.950 . S
H929 C940 0.950 . S
H930 C942 0.950 . S
H931 C943 0.950 . S
C932 H924 0.950 . S
C932 C933 1.386 1_556 S
C932 C934 1.391 . S
C933 C932 1.386 1_554 S
C933 C937 1.393 . S
C934 H926 0.950 . S
C934 C932 1.391 . S
C934 C935 1.400 . S
C935 C934 1.400 . S
C935 C936 1.398 . S
C935 C941 1.491 . S
C936 H927 0.950 . S
C936 C935 1.398 . S
C936 C937 1.391 1_556 S
C937 H925 0.950 . S
C937 C933 1.393 . S
C937 C936 1.391 1_554 S
C938 H928 0.950 . S
C938 C939 1.386 . S
C938 C940 1.391 . S
C939 C938 1.386 . S
C939 C943 1.393 . S
C940 H929 0.950 . S
C940 C938 1.391 . S
C940 C941 1.400 . S
C941 C935 1.491 . S
C941 C940 1.400 . S
C941 C942 1.398 . S
C942 H930 0.950 . S
C942 C941 1.398 . S
C942 C943 1.391 . S
C943 H931 0.950 . S
C943 C939 1.393 . S
C943 C942 1.391 . S
H944 C952 0.950 . S
H945 C957 0.950 . S
H946 C954 0.950 . S
H947 C956 0.950 . S
H948 C958 0.950 . S
H949 C960 0.950 . S
H950 C962 0.950 1_554 S
H951 C963 0.950 . S
C952 H944 0.950 . S
C952 C953 1.386 . S
C952 C954 1.391 . S
C953 C952 1.386 . S
C953 C957 1.393 1_554 S
C954 H946 0.950 . S
C954 C952 1.391 . S
C954 C955 1.400 1_554 S
C955 C954 1.400 1_556 S
C955 C956 1.398 . S
C955 C961 1.491 . S
C956 H947 0.950 . S
C956 C955 1.398 . S
C956 C957 1.391 . S
C957 H945 0.950 . S
C957 C953 1.393 1_556 S
C957 C956 1.391 . S
C958 H948 0.950 . S
C958 C959 1.386 . S
C958 C960 1.391 . S
C959 C958 1.386 . S
C959 C963 1.393 . S
C960 H949 0.950 . S
C960 C958 1.391 . S
C960 C961 1.400 . S
C961 C955 1.491 . S
C961 C960 1.400 . S
C961 C962 1.398 . S
C962 H950 0.950 1_556 S
C962 C961 1.398 . S
C962 C963 1.391 . S
C963 H951 0.950 . S
C963 C959 1.393 . S
C963 C962 1.391 . S
H964 C972 0.950 . S
H965 C977 0.950 . S
H966 C974 0.950 . S
H967 C976 0.950 . S
H968 C978 0.950 . S
H969 C980 0.950 . S
H970 C982 0.950 . S
H971 C983 0.950 . S
C972 H964 0.950 . S
C972 C973 1.404 . S
C972 C974 1.391 . S
C973 C972 1.404 . S
C973 C977 1.375 1_655 S
C974 H966 0.950 . S
C974 C972 1.391 . S
C974 C975 1.400 . S
C975 C974 1.400 . S
C975 C976 1.398 1_655 S
C975 C981 1.491 . S
C976 H967 0.950 . S
C976 C975 1.398 1_455 S
C976 C977 1.391 . S
C977 H965 0.950 . S
C977 C973 1.375 1_455 S
C977 C976 1.391 . S
C978 H968 0.950 . S
C978 C979 1.386 1_455 S
C978 C980 1.391 . S
C979 C978 1.386 1_655 S
C979 C983 1.393 . S
C980 H969 0.950 . S
C980 C978 1.391 . S
C980 C981 1.400 1_455 S
C981 C975 1.491 . S
C981 C980 1.400 1_655 S
C981 C982 1.398 . S
C982 H970 0.950 . S
C982 C981 1.398 . S
C982 C983 1.391 . S
C983 H971 0.950 . S
C983 C979 1.393 . S
C983 C982 1.391 . S
H984 C992 0.950 . S
H985 C997 0.950 . S
H986 C994 0.950 . S
H987 C996 0.950 . S
H988 C998 0.950 . S
H989 C1000 0.950 . S
H990 C1002 0.950 . S
H991 C1003 0.995 . S
C992 H984 0.950 . S
C992 C993 1.386 . S
C992 C994 1.391 . S
C993 C992 1.386 . S
C993 C997 1.393 . S
C994 H986 0.950 . S
C994 C992 1.391 . S
C994 C995 1.400 . S
C995 C994 1.400 . S
C995 C996 1.398 . S
C995 C1001 1.491 . S
C996 H987 0.950 . S
C996 C995 1.398 . S
C996 C997 1.391 . S
C997 H985 0.950 . S
C997 C993 1.393 . S
C997 C996 1.391 . S
C998 H988 0.950 . S
C998 C999 1.386 . S
C998 C1000 1.391 . S
C999 C998 1.386 . S
C999 C1003 1.393 . S
C1000 H989 0.950 . S
C1000 C998 1.391 . S
C1000 C1001 1.400 . S
C1001 C995 1.491 . S
C1001 C1000 1.400 . S
C1001 C1002 1.398 . S
C1002 H990 0.950 . S
C1002 C1001 1.398 . S
C1002 C1003 1.391 . S
C1003 H991 0.995 . S
C1003 C999 1.393 . S
C1003 C1002 1.391 . S
H1004 C1012 0.950 . S
H1005 C1017 0.950 . S
H1006 C1014 0.950 . S
H1007 C1016 0.950 . S
H1008 C1018 0.950 . S
H1009 C1020 0.950 . S
H1010 C1022 0.950 . S
H1011 C1023 0.950 . S
C1012 H1004 0.950 . S
C1012 C1013 1.386 . S
C1012 C1014 1.391 . S
C1013 C1012 1.386 . S
C1013 C1017 1.393 . S
C1014 H1006 0.950 . S
C1014 C1012 1.391 . S
C1014 C1015 1.400 . S
C1015 C1014 1.400 . S
C1015 C1016 1.398 . S
C1015 C1021 1.491 . S
C1016 H1007 0.950 . S
C1016 C1015 1.398 . S
C1016 C1017 1.391 . S
C1017 H1005 0.950 . S
C1017 C1013 1.393 . S
C1017 C1016 1.391 . S
C1018 H1008 0.950 . S
C1018 C1019 1.386 . S
C1018 C1020 1.391 . S
C1019 C1018 1.386 . S
C1019 C1023 1.393 . S
C1020 H1009 0.950 . S
C1020 C1018 1.391 . S
C1020 C1021 1.400 . S
C1021 C1015 1.491 . S
C1021 C1020 1.400 . S
C1021 C1022 1.398 . S
C1022 H1010 0.950 . S
C1022 C1021 1.398 . S
C1022 C1023 1.391 . S
C1023 H1011 0.950 . S
C1023 C1019 1.393 . S
C1023 C1022 1.391 . S
H1024 C1032 0.950 . S
H1025 C1037 0.950 . S
H1026 C1034 0.950 . S
H1027 C1036 0.950 . S
H1028 C1038 0.950 . S
H1029 C1040 0.950 . S
H1030 C1042 0.950 . S
H1031 C1043 0.950 . S
C1032 H1024 0.950 . S
C1032 C1033 1.386 . S
C1032 C1034 1.391 . S
C1033 C1032 1.386 . S
C1033 C1037 1.393 . S
C1034 H1026 0.950 . S
C1034 C1032 1.391 . S
C1034 C1035 1.400 . S
C1035 C1034 1.400 . S
C1035 C1036 1.398 . S
C1035 C1041 1.491 . S
C1036 H1027 0.950 . S
C1036 C1035 1.398 . S
C1036 C1037 1.391 . S
C1037 H1025 0.950 . S
C1037 C1033 1.393 . S
C1037 C1036 1.391 . S
C1038 H1028 0.950 . S
C1038 C1039 1.386 . S
C1038 C1040 1.391 . S
C1039 C1038 1.386 . S
C1039 C1043 1.393 . S
C1040 H1029 0.950 . S
C1040 C1038 1.391 . S
C1040 C1041 1.400 . S
C1041 C1035 1.491 . S
C1041 C1040 1.400 . S
C1041 C1042 1.398 . S
C1042 H1030 0.950 . S
C1042 C1041 1.398 . S
C1042 C1043 1.391 . S
C1043 H1031 0.950 . S
C1043 C1039 1.393 . S
C1043 C1042 1.391 . S
C573 C391 2.041 . S
C579 C495 1.918 . S
C599 C519 1.369 . S
C593 C451 1.612 . S
C619 C540 1.879 . S
C613 C241 1.772 . S
C639 C558 1.436 . S
C633 C331 1.511 . S
C659 C498 1.793 1_565 S
C653 C121 1.802 . S
C673 C211 1.504 . S
C679 C516 1.257 . S
C693 C31 1.811 . S
C699 C537 1.787 . S
C713 C91 1.406 1_455 S
C719 C561 1.339 . S
C739 C496 0.474 . S
C733 C301 0.625 1_455 S
C759 C514 0.684 . S
C753 C380 0.701 . S
C779 C535 0.506 . S
C773 C440 0.302 . S
C793 C260 0.690 . S
C799 C559 0.681 . S
C813 C61 0.587 . S
C819 C494 0.456 . S
C839 C518 0.763 1_565 S
C833 C140 0.743 . S
C859 C539 0.400 . S
C853 C200 0.359 . S
C873 C20 0.719 . S
C879 C557 0.752 . S
C893 C320 1.983 1_455 S
C899 C497 1.907 . S
C913 C361 2.026 . S
C919 C515 2.178 . S
C939 C536 1.883 . S
C933 C421 1.737 . S
C959 C560 2.204 . S
C953 C271 2.174 . S
C973 C80 1.861 . S
C979 C493 1.793 . S
C999 C517 2.010 . S
C993 C151 2.095 . S
C1019 C538 1.759 . S
C1013 C181 1.626 . S
C1033 C1 1.851 . S
C1039 C556 2.049 . S
