# Generated by pormake.
# Topology ctn, (3,4)-cn, num edge types: 1
# Building blocks:
#     Node 0, Type 0, BuildingBlock: PAMTOO_clean_linker_0, # of connection points: 3
#     Node 1, Type 0, BuildingBlock: PAMTOO_clean_linker_0, # of connection points: 3
#     Node 2, Type 0, BuildingBlock: PAMTOO_clean_linker_0, # of connection points: 3
#     Node 3, Type 0, BuildingBlock: PAMTOO_clean_linker_0, # of connection points: 3
#     Node 4, Type 0, BuildingBlock: PAMTOO_clean_linker_0, # of connection points: 3
#     Node 5, Type 0, BuildingBlock: PAMTOO_clean_linker_0, # of connection points: 3
#     Node 6, Type 0, BuildingBlock: PAMTOO_clean_linker_0, # of connection points: 3
#     Node 7, Type 0, BuildingBlock: PAMTOO_clean_linker_0, # of connection points: 3
#     Node 8, Type 0, BuildingBlock: PAMTOO_clean_linker_0, # of connection points: 3
#     Node 9, Type 0, BuildingBlock: PAMTOO_clean_linker_0, # of connection points: 3
#     Node 10, Type 0, BuildingBlock: PAMTOO_clean_linker_0, # of connection points: 3
#     Node 11, Type 0, BuildingBlock: PAMTOO_clean_linker_0, # of connection points: 3
#     Node 12, Type 0, BuildingBlock: PAMTOO_clean_linker_0, # of connection points: 3
#     Node 13, Type 0, BuildingBlock: PAMTOO_clean_linker_0, # of connection points: 3
#     Node 14, Type 0, BuildingBlock: PAMTOO_clean_linker_0, # of connection points: 3
#     Node 15, Type 0, BuildingBlock: PAMTOO_clean_linker_0, # of connection points: 3
#     Node 16, Type 1, BuildingBlock: QUQFOY_clean_sbu_1, # of connection points: 4
#     Node 17, Type 1, BuildingBlock: QUQFOY_clean_sbu_1, # of connection points: 4
#     Node 18, Type 1, BuildingBlock: QUQFOY_clean_sbu_1, # of connection points: 4
#     Node 19, Type 1, BuildingBlock: QUQFOY_clean_sbu_1, # of connection points: 4
#     Node 20, Type 1, BuildingBlock: QUQFOY_clean_sbu_1, # of connection points: 4
#     Node 21, Type 1, BuildingBlock: QUQFOY_clean_sbu_1, # of connection points: 4
#     Node 22, Type 1, BuildingBlock: QUQFOY_clean_sbu_1, # of connection points: 4
#     Node 23, Type 1, BuildingBlock: QUQFOY_clean_sbu_1, # of connection points: 4
#     Node 24, Type 1, BuildingBlock: QUQFOY_clean_sbu_1, # of connection points: 4
#     Node 25, Type 1, BuildingBlock: QUQFOY_clean_sbu_1, # of connection points: 4
#     Node 26, Type 1, BuildingBlock: QUQFOY_clean_sbu_1, # of connection points: 4
#     Node 27, Type 1, BuildingBlock: QUQFOY_clean_sbu_1, # of connection points: 4
#     Edge 28, Type (0, 1), None
#     Edge 29, Type (0, 1), None
#     Edge 30, Type (0, 1), None
#     Edge 31, Type (0, 1), None
#     Edge 32, Type (0, 1), None
#     Edge 33, Type (0, 1), None
#     Edge 34, Type (0, 1), None
#     Edge 35, Type (0, 1), None
#     Edge 36, Type (0, 1), None
#     Edge 37, Type (0, 1), None
#     Edge 38, Type (0, 1), None
#     Edge 39, Type (0, 1), None
#     Edge 40, Type (0, 1), None
#     Edge 41, Type (0, 1), None
#     Edge 42, Type (0, 1), None
#     Edge 43, Type (0, 1), None
#     Edge 44, Type (0, 1), None
#     Edge 45, Type (0, 1), None
#     Edge 46, Type (0, 1), None
#     Edge 47, Type (0, 1), None
#     Edge 48, Type (0, 1), None
#     Edge 49, Type (0, 1), None
#     Edge 50, Type (0, 1), None
#     Edge 51, Type (0, 1), None
#     Edge 52, Type (0, 1), None
#     Edge 53, Type (0, 1), None
#     Edge 54, Type (0, 1), None
#     Edge 55, Type (0, 1), None
#     Edge 56, Type (0, 1), None
#     Edge 57, Type (0, 1), None
#     Edge 58, Type (0, 1), None
#     Edge 59, Type (0, 1), None
#     Edge 60, Type (0, 1), None
#     Edge 61, Type (0, 1), None
#     Edge 62, Type (0, 1), None
#     Edge 63, Type (0, 1), None
#     Edge 64, Type (0, 1), None
#     Edge 65, Type (0, 1), None
#     Edge 66, Type (0, 1), None
#     Edge 67, Type (0, 1), None
#     Edge 68, Type (0, 1), None
#     Edge 69, Type (0, 1), None
#     Edge 70, Type (0, 1), None
#     Edge 71, Type (0, 1), None
#     Edge 72, Type (0, 1), None
#     Edge 73, Type (0, 1), None
#     Edge 74, Type (0, 1), None
#     Edge 75, Type (0, 1), None
# Relax obj value: 0.103
# Max RMSD: 0.219
# Mean RMSD: 0.138
data_MOF--net-ctn--node1-QUQFOY_clean_sbu_1--node2-PAMTOO_clean_linker_0--edge1-none
_symmetry_space_group_name_H-M    P1
_symmetry_Int_Tables_number       1
_symmetry_cell_setting            triclinic
loop_
_symmetry_equiv_pos_as_xyz
'x, y, z'
_cell_length_a     24.124459
_cell_length_b     23.480997
_cell_length_c     23.892936
_cell_angle_alpha  85.005569
_cell_angle_beta   93.707901
_cell_angle_gamma 104.37966
loop_
_atom_site_label
_atom_site_type_symbol
_atom_site_fract_x
_atom_site_fract_y
_atom_site_fract_z
_atom_type_partial_charge
H0 H 0.94836 0.13857 0.08872 0.0
H1 H 0.04906 0.00951 0.11058 0.0
H2 H 0.07705 0.13888 0.97135 0.0
H3 H 0.06452 0.00992 0.95171 0.0
C4 C 0.09297 1.00067 0.98815 0.0
O5 O 0.10713 0.04739 0.02166 0.0
H6 H 0.07053 0.96014 0.01294 0.0
C7 C 0.98148 0.1199 0.07484 0.0
C8 C 0.01109 0.14507 0.02634 0.0
C9 C -0.00519 0.07097 0.10573 0.0
C10 C 0.03785 0.04721 0.08755 0.0
C11 C 0.0669 0.07163 0.03921 0.0
C12 C 0.05402 0.12064 1.00886 0.0
H13 H 0.32928 0.67256 0.34618 0.0
H14 H 0.23016 0.68165 0.19083 0.0
H15 H 0.38093 0.81843 0.22247 0.0
H16 H 0.27376 0.85313 0.1732 0.0
C17 C 0.26194 0.81945 0.14168 0.0
O18 O 0.29627 0.78007 0.15019 0.0
H19 H 0.2163 0.7954 0.14572 0.0
C20 C 0.3228 0.69493 0.30555 0.0
C21 C 0.36101 0.74866 0.28905 0.0
C22 C 0.27543 0.67034 0.27069 0.0
C23 C 0.26658 0.69977 0.21837 0.0
C24 C 0.30461 0.75293 0.20116 0.0
C25 C 0.35187 0.77722 0.23628 0.0
H26 H 0.95452 0.59007 0.18064 0.0
H27 H 0.90814 0.50667 0.02449 0.0
H28 H 0.03742 0.45825 0.13537 0.0
H29 H 0.06026 0.46814 0.01135 0.0
C30 C 0.01493 0.45475 0.99542 0.0
O31 O 0.97915 0.43973 0.04004 0.0
H32 H 0.0051 0.49239 0.96844 0.0
C33 C 0.95982 0.55909 0.15156 0.0
C34 C 0.00044 0.52492 0.1647 0.0
C35 C 0.92594 0.55299 0.10086 0.0
C36 C 0.9337 0.51279 0.0635 0.0
C37 C 0.97373 0.47915 0.07602 0.0
C38 C 0.00657 0.4848 0.12651 0.0
H39 H 0.69723 0.92603 0.28743 0.0
H40 H 0.65477 0.73818 0.32562 0.0
H41 H 0.81767 0.82443 0.25909 0.0
H42 H 0.68615 0.65956 0.2719 0.0
C43 C 0.73253 0.67686 0.26443 0.0
O44 O 0.75401 0.72448 0.29622 0.0
H45 H 0.7546 0.64173 0.27934 0.0
C46 C 0.70799 0.88388 0.28724 0.0
C47 C 0.76257 0.88194 0.27151 0.0
C48 C 0.66847 0.83232 0.30631 0.0
C49 C 0.6839 0.77818 0.30917 0.0
C50 C 0.73701 0.77545 0.29009 0.0
C51 C 0.77572 0.82706 0.27066 0.0
H52 H 0.10636 0.97362 0.61565 0.0
H53 H 0.98175 0.9392 0.47655 0.0
H54 H 0.13077 0.08149 0.45951 0.0
H55 H 0.03782 0.11246 0.38978 0.0
C56 C 0.0069 0.0697 0.40012 0.0
O57 O 0.03613 0.02607 0.41035 0.0
H58 H 0.98338 0.07388 0.43763 0.0
C59 C 0.09207 0.98347 0.57277 0.0
C60 C 0.12462 0.03155 0.54007 0.0
C61 C 0.04002 0.94947 0.55009 0.0
C62 C 0.02161 0.96432 0.49496 0.0
C63 C 0.05476 0.01124 0.46259 0.0
C64 C 0.1062 0.04431 0.48483 0.0
H65 H 0.14369 0.85924 0.80795 0.0
H66 H 0.16424 0.70197 0.74055 0.0
H67 H 0.29342 0.79317 0.85425 0.0
H68 H 0.33653 0.74171 0.75481 0.0
C69 C 0.29992 0.70226 0.75295 0.0
O70 O 0.26182 0.70271 0.79338 0.0
H71 H 0.27807 0.70167 0.71049 0.0
C72 C 0.16974 0.82858 0.80306 0.0
C73 C 0.22163 0.83269 0.83492 0.0
C74 C 0.14852 0.78095 0.76954 0.0
C75 C 0.18065 0.7395 0.7655 0.0
C76 C 0.2335 0.74521 0.79452 0.0
C77 C 0.25377 0.79124 0.82958 0.0
H78 H 0.86605 0.6244 0.54233 0.0
H79 H 0.95137 0.53699 0.43644 0.0
H80 H 0.05059 0.66979 0.53942 0.0
H81 H 0.04013 0.50708 0.48485 0.0
C82 C 0.07501 0.54665 0.47378 0.0
O83 O 0.05424 0.59656 0.46279 0.0
H84 H 0.10714 0.55362 0.50959 0.0
C85 C 0.90512 0.61971 0.52528 0.0
C86 C 0.95851 0.65367 0.54447 0.0
C87 C 0.90271 0.57624 0.48766 0.0
C88 C 0.95311 0.56992 0.46607 0.0
C89 C 0.00624 0.60322 0.48481 0.0
C90 C 0.00914 0.64418 0.52493 0.0
H91 H 0.74802 0.84643 0.97979 0.0
H92 H 0.85671 0.74972 0.91294 0.0
H93 H 0.80874 0.89125 0.81214 0.0
H94 H 0.81095 0.78815 0.75184 0.0
C95 C 0.84804 0.77491 0.77459 0.0
O96 O 0.86921 0.81233 0.8167 0.0
H97 H 0.83422 0.72899 0.79369 0.0
C98 C 0.77311 0.839 0.94635 0.0
C99 C 0.77489 0.87433 0.89517 0.0
C100 C 0.80155 0.79262 0.95332 0.0
C101 C 0.83392 0.78433 0.90889 0.0
C102 C 0.83651 0.81979 0.85828 0.0
C103 C 0.80644 0.86404 0.85138 0.0
H104 H 0.24825 0.3464 0.47974 0.0
H105 H 0.35681 0.24961 0.41279 0.0
H106 H 0.30882 0.39116 0.31203 0.0
H107 H 0.31057 0.28746 0.25182 0.0
C108 C 0.34789 0.27464 0.27453 0.0
O109 O 0.3692 0.31218 0.31651 0.0
H110 H 0.33346 0.22865 0.29329 0.0
C111 C 0.2733 0.33896 0.44628 0.0
C112 C 0.27505 0.37428 0.3951 0.0
C113 C 0.30172 0.29256 0.45322 0.0
C114 C 0.33404 0.28425 0.40876 0.0
C115 C 0.3366 0.3197 0.35815 0.0
C116 C 0.30655 0.36397 0.35128 0.0
H117 H 0.45451 0.08996 0.68046 0.0
H118 H 0.40829 0.00663 0.52426 0.0
H119 H 0.53736 0.95804 0.63534 0.0
H120 H 0.56071 0.96689 0.51219 0.0
C121 C 0.51552 0.95451 0.49566 0.0
O122 O 0.47924 0.93962 0.53989 0.0
H123 H 0.50571 0.99233 0.46894 0.0
C124 C 0.45982 0.05897 0.6514 0.0
C125 C 0.50041 0.02478 0.66458 0.0
C126 C 0.42599 0.05288 0.60067 0.0
C127 C 0.43379 0.01271 0.56331 0.0
C128 C 0.47378 0.97901 0.57589 0.0
C129 C 0.50654 0.98461 0.62643 0.0
H130 H 0.19709 0.426 0.78738 0.0
H131 H 0.15468 0.2381 0.82532 0.0
H132 H 0.31757 0.32451 0.75888 0.0
H133 H 0.18661 0.15835 0.77222 0.0
C134 C 0.23277 0.17685 0.76442 0.0
O135 O 0.25405 0.22458 0.7961 0.0
H136 H 0.2551 0.1419 0.77928 0.0
C137 C 0.20785 0.38386 0.78711 0.0
C138 C 0.26243 0.38197 0.77136 0.0
C139 C 0.16834 0.33226 0.80611 0.0
C140 C 0.18379 0.27812 0.80888 0.0
C141 C 0.23692 0.27546 0.78981 0.0
C142 C 0.2756 0.32711 0.77043 0.0
H143 H 0.82906 0.17268 0.84624 0.0
H144 H 0.73033 0.18144 0.69061 0.0
H145 H 0.88088 0.31844 0.72245 0.0
H146 H 0.77224 0.35216 0.67296 0.0
C147 C 0.76164 0.31874 0.64116 0.0
O148 O 0.79646 0.27987 0.64999 0.0
H149 H 0.71595 0.29478 0.64492 0.0
C150 C 0.82266 0.19499 0.80556 0.0
C151 C 0.86088 0.24873 0.78907 0.0
C152 C 0.77539 0.17032 0.77063 0.0
C153 C 0.76666 0.19965 0.71823 0.0
C154 C 0.80468 0.25283 0.70104 0.0
C155 C 0.85182 0.27723 0.73626 0.0
H156 H 0.44845 0.6384 0.58859 0.0
H157 H 0.54904 0.50925 0.61065 0.0
H158 H 0.57722 0.63854 0.47136 0.0
H159 H 0.56457 0.50951 0.4519 0.0
C160 C 0.59312 0.50034 0.48828 0.0
O161 O 0.60723 0.54705 0.52179 0.0
H162 H 0.5708 0.45977 0.5131 0.0
C163 C 0.48157 0.61968 0.57475 0.0
C164 C 0.51122 0.6448 0.52627 0.0
C165 C 0.49483 0.57076 0.60569 0.0
C166 C 0.53787 0.54695 0.58758 0.0
C167 C 0.56697 0.57132 0.53926 0.0
C168 C 0.55415 0.62033 0.50885 0.0
H169 H 0.60622 0.47371 0.1157 0.0
H170 H 0.48168 0.43934 0.97654 0.0
H171 H 0.63087 0.58142 0.95949 0.0
H172 H 0.5379 0.61247 0.88961 0.0
C173 C 0.50698 0.56974 0.90004 0.0
O174 O 0.53619 0.5261 0.91031 0.0
H175 H 0.48351 0.57401 0.93756 0.0
C176 C 0.59198 0.48354 0.0728 0.0
C177 C 0.62462 0.53154 0.04008 0.0
C178 C 0.53991 0.44959 0.05011 0.0
C179 C 0.52156 0.46442 0.99495 0.0
C180 C 0.55477 0.51128 0.96257 0.0
C181 C 0.60624 0.54428 0.98482 0.0
H182 H 0.64369 0.35943 0.30764 0.0
H183 H 0.66402 0.20197 0.24046 0.0
H184 H 0.79336 0.29327 0.35395 0.0
H185 H 0.83607 0.24161 0.25386 0.0
C186 C 0.79955 0.20201 0.25279 0.0
O187 O 0.7616 0.20268 0.29328 0.0
H188 H 0.77812 0.2015 0.21015 0.0
C189 C 0.6697 0.32873 0.30276 0.0
C190 C 0.72161 0.33284 0.3346 0.0
C191 C 0.64841 0.28106 0.26932 0.0
C192 C 0.68049 0.23954 0.26533 0.0
C193 C 0.73335 0.24525 0.29432 0.0
C194 C 0.7537 0.29134 0.32928 0.0
H195 H 0.36599 0.1246 0.04223 0.0
H196 H 0.4511 0.0371 0.93622 0.0
H197 H 0.5505 0.17025 0.03876 0.0
H198 H 0.54012 0.00768 0.98494 0.0
C199 C 0.57506 0.04712 0.97365 0.0
O200 O 0.55399 0.09681 0.96223 0.0
H201 H 0.60709 0.05384 1.00955 0.0
C202 C 0.40502 0.11994 0.02507 0.0
C203 C 0.45843 0.154 0.04408 0.0
C204 C 0.40255 0.07642 0.98749 0.0
C205 C 0.45289 0.07011 0.96579 0.0
C206 C 0.50605 0.10352 0.98433 0.0
C207 C 0.50902 0.14457 0.02439 0.0
O208 O 0.2619 0.8583 0.925 0.0
Cd209 Cd 0.28484 0.90293 0.99677 0.0
Cd210 Cd 0.23097 0.98089 0.93591 0.0
O211 O 0.22373 0.92316 0.87392 0.0
O212 O 0.31136 0.84742 0.05448 0.0
O213 O 0.23578 0.88278 0.06404 0.0
C214 C 0.26953 0.85037 0.08415 0.0
C215 C 0.14644 0.99163 0.96707 0.0
C216 C 0.23796 0.87432 0.8794 0.0
C217 C 0.34997 0.03057 0.97833 0.0
O218 O 0.30582 0.0431 0.95378 0.0
O219 O 0.35023 0.97788 0.99529 0.0
O220 O 0.16774 0.02107 0.92203 0.0
O221 O 0.17407 0.95716 0.99529 0.0
O222 O 0.24876 0.58032 0.32792 0.0
Cd223 Cd 0.20251 0.50396 0.37021 0.0
Cd224 Cd 0.10654 0.54909 0.29296 0.0
O225 O 0.18144 0.60941 0.27284 0.0
O226 O 0.25955 0.46726 0.41736 0.0
O227 O 0.20665 0.42383 0.34708 0.0
C228 C 0.24521 0.42277 0.38698 0.0
C229 C 0.03844 0.53238 0.21651 0.0
C230 C 0.2333 0.6164 0.29074 0.0
C231 C 0.10213 0.53579 0.42232 0.0
O232 O 0.07996 0.54727 0.37405 0.0
O233 O 0.14736 0.51678 0.42813 0.0
O234 O 0.04686 0.57911 0.24348 0.0
O235 O 0.06688 0.49393 0.2343 0.0
O236 O 0.76361 0.75587 0.04392 0.0
Cd237 Cd 0.73357 0.689 0.10558 0.0
Cd238 Cd 0.80238 0.62866 0.06204 0.0
O239 O 0.81264 0.70326 1.00456 0.0
O240 O 0.70474 0.71585 0.17257 0.0
O241 O 0.7757 0.67046 0.17686 0.0
C242 C 0.74026 0.69135 0.20247 0.0
C243 C 0.88098 0.58601 0.08627 0.0
C244 C 0.79367 0.74953 1.00402 0.0
C245 C 0.67516 0.57282 0.06302 0.0
O246 O 0.72469 0.5662 0.05516 0.0
O247 O 0.66896 0.62079 0.0792 0.0
O248 O 0.85596 0.58412 0.037 0.0
O249 O 0.86319 0.61466 0.1222 0.0
O250 O 0.97595 0.02714 0.31283 0.0
Cd251 Cd 0.92488 0.00776 0.24185 0.0
Cd252 Cd 0.85732 0.06518 0.28571 0.0
O253 O 0.92047 0.07517 0.34864 0.0
O254 O 0.97548 0.99819 0.18353 0.0
O255 O 0.93022 0.07022 0.17899 0.0
C256 C 0.96529 0.04535 0.15755 0.0
C257 C 0.82188 0.14813 0.26431 0.0
C258 C 0.96511 0.05562 0.35176 0.0
C259 C 0.80774 0.93712 0.26365 0.0
O260 O 0.79987 0.98441 0.28015 0.0
O261 O 0.85601 0.93599 0.24617 0.0
O262 O 0.80932 0.1149 0.30974 0.0
O263 O 0.85427 0.13387 0.22978 0.0
O264 O 0.26388 0.25588 0.54388 0.0
Cd265 Cd 0.23365 0.18902 0.6055 0.0
Cd266 Cd 0.30242 0.12855 0.56193 0.0
O267 O 0.31268 0.20311 0.5044 0.0
O268 O 0.205 0.21597 0.67256 0.0
O269 O 0.27562 0.17007 0.67673 0.0
C270 C 0.24014 0.19089 0.70237 0.0
C271 C 0.38102 0.08588 0.58609 0.0
C272 C 0.29383 0.24946 0.50391 0.0
C273 C 0.17517 0.07285 0.56299 0.0
O274 O 0.22468 0.06613 0.55524 0.0
O275 O 0.169 0.1209 0.57902 0.0
O276 O 0.35592 0.08393 0.53685 0.0
O277 O 0.36329 0.1146 0.62201 0.0
O278 O 0.47593 0.52713 0.81278 0.0
Cd279 Cd 0.42483 0.50775 0.74183 0.0
Cd280 Cd 0.35727 0.56516 0.78578 0.0
O281 O 0.42046 0.57512 0.84866 0.0
O282 O 0.4754 0.49805 0.68354 0.0
O283 O 0.43025 0.57017 0.67891 0.0
C284 C 0.46528 0.54521 0.65752 0.0
C285 C 0.3218 0.64808 0.7643 0.0
C286 C 0.46512 0.55559 0.85173 0.0
C287 C 0.30762 0.43715 0.7636 0.0
O288 O 0.29976 0.48442 0.78016 0.0
O289 O 0.3559 0.43604 0.74612 0.0
O290 O 0.30938 0.61498 0.80982 0.0
O291 O 0.35428 0.63385 0.72984 0.0
O292 O 0.76179 0.35835 0.42471 0.0
Cd293 Cd 0.78486 0.40284 0.49654 0.0
Cd294 Cd 0.73113 0.48094 0.43575 0.0
O295 O 0.72388 0.42338 0.3736 0.0
O296 O 0.81122 0.34706 0.55407 0.0
O297 O 0.7359 0.38277 0.56388 0.0
C298 C 0.76967 0.35036 0.58396 0.0
C299 C 0.64659 0.49146 0.46708 0.0
C300 C 0.73797 0.37446 0.37908 0.0
C301 C 0.85013 0.53044 0.47833 0.0
O302 O 0.806 0.54306 0.45382 0.0
O303 O 0.85035 0.4777 0.49515 0.0
O304 O 0.66785 0.52108 0.42211 0.0
O305 O 0.67428 0.45694 0.49514 0.0
O306 O 0.74864 0.08036 0.82793 0.0
Cd307 Cd 0.70235 0.00399 0.87019 0.0
Cd308 Cd 0.60647 0.04912 0.79286 0.0
O309 O 0.68139 0.10941 0.77271 0.0
O310 O 0.75934 0.9673 0.9174 0.0
O311 O 0.70653 0.92388 0.84707 0.0
C312 C 0.74504 0.92281 0.88702 0.0
C313 C 0.53841 0.03229 0.71639 0.0
C314 C 0.73324 0.11641 0.79067 0.0
C315 C 0.60165 0.03537 0.9222 0.0
O316 O 0.57984 0.0474 0.87391 0.0
O317 O 0.6471 0.01673 0.92804 0.0
O318 O 0.54682 0.07907 0.7433 0.0
O319 O 0.56685 0.99386 0.73425 0.0
O320 O 0.98338 0.35193 0.98028 0.0
Cd321 Cd 0.97171 0.27465 0.94168 0.0
Cd322 Cd 0.02628 0.34674 0.85665 0.0
O323 O 0.02876 0.41104 0.91197 0.0
O324 O 0.95023 0.21123 1.00264 0.0
O325 O 0.02913 0.22604 0.95521 0.0
C326 C -0.0035 0.19599 0.99371 0.0
C327 C 0.11251 0.33643 0.8252 0.0
C328 C 0.00835 0.40317 0.96057 0.0
C329 C 0.90985 0.27388 0.82742 0.0
O330 O 0.95203 0.31387 0.80928 0.0
O331 O 0.91002 0.25342 0.87842 0.0
O332 O 0.08995 0.37867 0.80486 0.0
O333 O 0.08588 0.29953 0.86363 0.0
O334 O 0.48386 0.85174 0.48034 0.0
Cd335 Cd 0.47207 0.77451 0.44159 0.0
Cd336 Cd 0.52633 0.84682 0.35655 0.0
O337 O 0.52862 0.91108 0.41182 0.0
O338 O 0.45049 0.71108 0.50252 0.0
O339 O 0.52937 0.72575 0.45511 0.0
C340 C 0.49671 0.69575 0.49361 0.0
C341 C 0.61263 0.83652 0.3253 0.0
C342 C 0.50815 0.90313 0.4604 0.0
C343 C 0.41004 0.7738 0.32735 0.0
O344 O 0.45215 0.81385 0.30917 0.0
O345 O 0.41029 0.75333 0.37835 0.0
O346 O 0.59008 0.87873 0.30486 0.0
O347 O 0.58594 0.79963 0.36372 0.0
O348 O 0.93048 0.74714 0.7451 0.0
Cd349 Cd 0.00058 0.74828 0.69793 0.0
Cd350 Cd 0.9492 0.81043 0.62382 0.0
O351 O 0.89485 0.80953 0.68788 0.0
O352 O 0.05645 0.71847 0.74955 0.0
O353 O 0.07335 0.81051 0.71201 0.0
C354 C 0.0906 0.7701 0.74324 0.0
C355 C 0.00458 0.89797 0.58214 0.0
C356 C 0.89394 0.77788 0.73398 0.0
C357 C 0.96179 0.69756 0.58605 0.0
O358 O 0.93469 0.73759 0.57655 0.0
O359 O 0.99338 0.69617 0.6305 0.0
O360 O 0.95074 0.87942 0.56882 0.0
O361 O 0.02682 0.86795 0.62126 0.0
O362 O 0.43024 0.2469 0.24481 0.0
Cd363 Cd 0.50047 0.24839 0.19766 0.0
Cd364 Cd 0.44901 0.31055 0.12372 0.0
O365 O 0.39459 0.30943 0.18778 0.0
O366 O 0.55637 0.21855 0.24922 0.0
O367 O 0.57318 0.31067 0.21193 0.0
C368 C 0.59047 0.27021 0.24304 0.0
C369 C 0.50441 0.39812 0.08215 0.0
C370 C 0.39336 0.27722 0.23357 0.0
C371 C 0.46177 0.19787 0.0857 0.0
O372 O 0.43455 0.23782 0.07633 0.0
O373 O 0.49342 0.19647 0.13011 0.0
O374 O 0.45057 0.37962 0.06882 0.0
O375 O 0.52663 0.36805 0.12125 0.0
loop_
_geom_bond_atom_site_label_1
_geom_bond_atom_site_label_2
_geom_bond_distance
_geom_bond_site_symmetry_2
_ccdc_geom_bond_type
H0 C7 0.929 . S
H1 C10 0.930 . S
H2 C12 0.929 . S
H3 C4 0.969 . S
C4 H3 0.969 . S
C4 O5 1.550 . S
C4 H6 0.973 . S
O5 C4 1.550 . S
O5 C11 1.412 . S
H6 C4 0.973 . S
C7 H0 0.929 . S
C7 C8 1.400 . S
C7 C9 1.364 . S
C8 C7 1.400 . S
C8 C12 1.377 . S
C9 C7 1.364 . S
C9 C10 1.374 . S
C10 H1 0.930 . S
C10 C9 1.374 . S
C10 C11 1.383 . S
C11 O5 1.412 . S
C11 C10 1.383 . S
C11 C12 1.394 . S
C12 H2 0.929 . S
C12 C8 1.377 . S
C12 C11 1.394 . S
H13 C20 0.929 . S
H14 C23 0.930 . S
H15 C25 0.929 . S
H16 C17 0.969 . S
C17 H16 0.969 . S
C17 O18 1.550 . S
C17 H19 0.973 . S
O18 C17 1.550 . S
O18 C24 1.412 . S
H19 C17 0.973 . S
C20 H13 0.929 . S
C20 C21 1.400 . S
C20 C22 1.364 . S
C21 C20 1.400 . S
C21 C25 1.377 . S
C22 C20 1.364 . S
C22 C23 1.374 . S
C23 H14 0.930 . S
C23 C22 1.374 . S
C23 C24 1.383 . S
C24 O18 1.412 . S
C24 C23 1.383 . S
C24 C25 1.394 . S
C25 H15 0.929 . S
C25 C21 1.377 . S
C25 C24 1.394 . S
H26 C33 0.929 . S
H27 C36 0.930 . S
H28 C38 0.929 . S
H29 C30 0.969 1_556 S
C30 H29 0.969 1_554 S
C30 O31 1.550 . S
C30 H32 0.973 1_554 S
O31 C30 1.550 . S
O31 C37 1.412 . S
H32 C30 0.973 1_556 S
C33 H26 0.929 . S
C33 C34 1.400 . S
C33 C35 1.364 . S
C34 C33 1.400 . S
C34 C38 1.377 . S
C35 C33 1.364 . S
C35 C36 1.374 . S
C36 H27 0.930 . S
C36 C35 1.374 . S
C36 C37 1.383 . S
C37 O31 1.412 . S
C37 C36 1.383 . S
C37 C38 1.394 . S
C38 H28 0.929 . S
C38 C34 1.377 . S
C38 C37 1.394 . S
H39 C46 0.929 . S
H40 C49 0.930 . S
H41 C51 0.929 . S
H42 C43 0.969 . S
C43 H42 0.969 . S
C43 O44 1.550 . S
C43 H45 0.973 . S
O44 C43 1.550 . S
O44 C50 1.412 . S
H45 C43 0.973 . S
C46 H39 0.929 . S
C46 C47 1.400 . S
C46 C48 1.364 . S
C47 C46 1.400 . S
C47 C51 1.377 . S
C48 C46 1.364 . S
C48 C49 1.374 . S
C49 H40 0.930 . S
C49 C48 1.374 . S
C49 C50 1.383 . S
C50 O44 1.412 . S
C50 C49 1.383 . S
C50 C51 1.394 . S
C51 H41 0.929 . S
C51 C47 1.377 . S
C51 C50 1.394 . S
H52 C59 0.929 . S
H53 C62 0.930 . S
H54 C64 0.929 . S
H55 C56 0.969 . S
C56 H55 0.969 . S
C56 O57 1.550 1_655 S
C56 H58 0.973 . S
O57 C56 1.550 1_455 S
O57 C63 1.412 . S
H58 C56 0.973 . S
C59 H52 0.929 . S
C59 C60 1.400 . S
C59 C61 1.364 . S
C60 C59 1.400 . S
C60 C64 1.377 1_565 S
C61 C59 1.364 . S
C61 C62 1.374 . S
C62 H53 0.930 . S
C62 C61 1.374 . S
C62 C63 1.383 . S
C63 O57 1.412 . S
C63 C62 1.383 . S
C63 C64 1.394 1_565 S
C64 H54 0.929 . S
C64 C60 1.377 1_545 S
C64 C63 1.394 1_545 S
H65 C72 0.929 . S
H66 C75 0.930 . S
H67 C77 0.929 . S
H68 C69 0.969 . S
C69 H68 0.969 . S
C69 O70 1.550 . S
C69 H71 0.973 . S
O70 C69 1.550 . S
O70 C76 1.412 . S
H71 C69 0.973 . S
C72 H65 0.929 . S
C72 C73 1.400 . S
C72 C74 1.364 . S
C73 C72 1.400 . S
C73 C77 1.377 . S
C74 C72 1.364 . S
C74 C75 1.374 . S
C75 H66 0.930 . S
C75 C74 1.374 . S
C75 C76 1.383 . S
C76 O70 1.412 . S
C76 C75 1.383 . S
C76 C77 1.394 . S
C77 H67 0.929 . S
C77 C73 1.377 . S
C77 C76 1.394 . S
H78 C85 0.929 . S
H79 C88 0.930 . S
H80 C90 0.929 1_455 S
H81 C82 0.969 1_655 S
C82 H81 0.969 1_455 S
C82 O83 1.550 . S
C82 H84 0.973 1_455 S
O83 C82 1.550 . S
O83 C89 1.412 1_455 S
H84 C82 0.973 1_655 S
C85 H78 0.929 . S
C85 C86 1.400 . S
C85 C87 1.364 . S
C86 C85 1.400 . S
C86 C90 1.377 . S
C87 C85 1.364 . S
C87 C88 1.374 . S
C88 H79 0.930 . S
C88 C87 1.374 . S
C88 C89 1.383 . S
C89 O83 1.412 1_655 S
C89 C88 1.383 . S
C89 C90 1.394 . S
C90 H80 0.929 1_655 S
C90 C86 1.377 . S
C90 C89 1.394 . S
H91 C98 0.929 . S
H92 C101 0.930 . S
H93 C103 0.929 . S
H94 C95 0.969 . S
C95 H94 0.969 . S
C95 O96 1.550 . S
C95 H97 0.973 . S
O96 C95 1.550 . S
O96 C102 1.412 . S
H97 C95 0.973 . S
C98 H91 0.929 . S
C98 C99 1.400 . S
C98 C100 1.364 . S
C99 C98 1.400 . S
C99 C103 1.377 . S
C100 C98 1.364 . S
C100 C101 1.374 . S
C101 H92 0.930 . S
C101 C100 1.374 . S
C101 C102 1.383 . S
C102 O96 1.412 . S
C102 C101 1.383 . S
C102 C103 1.394 . S
C103 H93 0.929 . S
C103 C99 1.377 . S
C103 C102 1.394 . S
H104 C111 0.929 . S
H105 C114 0.930 . S
H106 C116 0.929 . S
H107 C108 0.969 . S
C108 H107 0.969 . S
C108 O109 1.550 . S
C108 H110 0.973 . S
O109 C108 1.550 . S
O109 C115 1.412 . S
H110 C108 0.973 . S
C111 H104 0.929 . S
C111 C112 1.400 . S
C111 C113 1.364 . S
C112 C111 1.400 . S
C112 C116 1.377 . S
C113 C111 1.364 . S
C113 C114 1.374 . S
C114 H105 0.930 . S
C114 C113 1.374 . S
C114 C115 1.383 . S
C115 O109 1.412 . S
C115 C114 1.383 . S
C115 C116 1.394 . S
C116 H106 0.929 . S
C116 C112 1.377 . S
C116 C115 1.394 . S
H117 C124 0.929 1_545 S
H118 C127 0.930 . S
H119 C129 0.929 . S
H120 C121 0.969 . S
C121 H120 0.969 . S
C121 O122 1.550 . S
C121 H123 0.973 . S
O122 C121 1.550 . S
O122 C128 1.412 . S
H123 C121 0.973 . S
C124 H117 0.929 1_565 S
C124 C125 1.400 . S
C124 C126 1.364 . S
C125 C124 1.400 . S
C125 C129 1.377 . S
C126 C124 1.364 . S
C126 C127 1.374 . S
C127 H118 0.930 . S
C127 C126 1.374 . S
C127 C128 1.383 . S
C128 O122 1.412 . S
C128 C127 1.383 . S
C128 C129 1.394 . S
C129 H119 0.929 . S
C129 C125 1.377 . S
C129 C128 1.394 . S
H130 C137 0.929 . S
H131 C140 0.930 . S
H132 C142 0.929 . S
H133 C134 0.969 . S
C134 H133 0.969 . S
C134 O135 1.550 . S
C134 H136 0.973 . S
O135 C134 1.550 . S
O135 C141 1.412 . S
H136 C134 0.973 . S
C137 H130 0.929 . S
C137 C138 1.400 . S
C137 C139 1.364 . S
C138 C137 1.400 . S
C138 C142 1.377 . S
C139 C137 1.364 . S
C139 C140 1.374 . S
C140 H131 0.930 . S
C140 C139 1.374 . S
C140 C141 1.383 . S
C141 O135 1.412 . S
C141 C140 1.383 . S
C141 C142 1.394 . S
C142 H132 0.929 . S
C142 C138 1.377 . S
C142 C141 1.394 . S
H143 C150 0.929 . S
H144 C153 0.930 . S
H145 C155 0.929 . S
H146 C147 0.969 . S
C147 H146 0.969 . S
C147 O148 1.550 . S
C147 H149 0.973 . S
O148 C147 1.550 . S
O148 C154 1.412 . S
H149 C147 0.973 . S
C150 H143 0.929 . S
C150 C151 1.400 . S
C150 C152 1.364 . S
C151 C150 1.400 . S
C151 C155 1.377 . S
C152 C150 1.364 . S
C152 C153 1.374 . S
C153 H144 0.930 . S
C153 C152 1.374 . S
C153 C154 1.383 . S
C154 O148 1.412 . S
C154 C153 1.383 . S
C154 C155 1.394 . S
C155 H145 0.929 . S
C155 C151 1.377 . S
C155 C154 1.394 . S
H156 C163 0.929 . S
H157 C166 0.930 . S
H158 C168 0.929 . S
H159 C160 0.969 . S
C160 H159 0.969 . S
C160 O161 1.550 . S
C160 H162 0.973 . S
O161 C160 1.550 . S
O161 C167 1.412 . S
H162 C160 0.973 . S
C163 H156 0.929 . S
C163 C164 1.400 . S
C163 C165 1.364 . S
C164 C163 1.400 . S
C164 C168 1.377 . S
C165 C163 1.364 . S
C165 C166 1.374 . S
C166 H157 0.930 . S
C166 C165 1.374 . S
C166 C167 1.383 . S
C167 O161 1.412 . S
C167 C166 1.383 . S
C167 C168 1.394 . S
C168 H158 0.929 . S
C168 C164 1.377 . S
C168 C167 1.394 . S
H169 C176 0.929 1_554 S
H170 C179 0.930 . S
H171 C181 0.929 . S
H172 C173 0.969 . S
C173 H172 0.969 . S
C173 O174 1.550 . S
C173 H175 0.973 . S
O174 C173 1.550 . S
O174 C180 1.412 . S
H175 C173 0.973 . S
C176 H169 0.929 1_556 S
C176 C177 1.400 . S
C176 C178 1.364 . S
C177 C176 1.400 . S
C177 C181 1.377 . S
C178 C176 1.364 . S
C178 C179 1.374 . S
C179 H170 0.930 . S
C179 C178 1.374 . S
C179 C180 1.383 . S
C180 O174 1.412 . S
C180 C179 1.383 . S
C180 C181 1.394 . S
C181 H171 0.929 . S
C181 C177 1.377 . S
C181 C180 1.394 . S
H182 C189 0.929 . S
H183 C192 0.930 . S
H184 C194 0.929 . S
H185 C186 0.969 . S
C186 H185 0.969 . S
C186 O187 1.550 . S
C186 H188 0.973 . S
O187 C186 1.550 . S
O187 C193 1.412 . S
H188 C186 0.973 . S
C189 H182 0.929 . S
C189 C190 1.400 . S
C189 C191 1.364 . S
C190 C189 1.400 . S
C190 C194 1.377 . S
C191 C189 1.364 . S
C191 C192 1.374 . S
C192 H183 0.930 . S
C192 C191 1.374 . S
C192 C193 1.383 . S
C193 O187 1.412 . S
C193 C192 1.383 . S
C193 C194 1.394 . S
C194 H184 0.929 . S
C194 C190 1.377 . S
C194 C193 1.394 . S
H195 C202 0.929 . S
H196 C205 0.930 . S
H197 C207 0.929 . S
H198 C199 0.969 . S
C199 H198 0.969 . S
C199 O200 1.550 . S
C199 H201 0.973 . S
O200 C199 1.550 . S
O200 C206 1.412 . S
H201 C199 0.973 . S
C202 H195 0.929 . S
C202 C203 1.400 . S
C202 C204 1.364 1_554 S
C203 C202 1.400 . S
C203 C207 1.377 1_554 S
C204 C202 1.364 1_556 S
C204 C205 1.374 . S
C205 H196 0.930 . S
C205 C204 1.374 . S
C205 C206 1.383 . S
C206 O200 1.412 . S
C206 C205 1.383 . S
C206 C207 1.394 . S
C207 H197 0.929 . S
C207 C203 1.377 1_556 S
C207 C206 1.394 . S
O208 Cd209 2.223 1_556 S
O208 C216 1.315 . S
Cd209 O208 2.223 1_554 S
Cd209 O212 2.297 . S
Cd209 O213 2.439 . S
Cd209 O219 2.240 . S
Cd210 O211 2.240 . S
Cd210 O218 2.223 1_565 S
Cd210 O220 2.297 1_566 S
Cd210 O221 2.439 1_556 S
O211 Cd210 2.240 . S
O211 C216 1.279 . S
O212 Cd209 2.297 . S
O212 C214 1.247 . S
O213 Cd209 2.439 . S
O213 C214 1.208 . S
C214 O212 1.247 . S
C214 O213 1.208 . S
C215 O220 1.247 . S
C215 O221 1.208 1_545 S
C216 O208 1.315 . S
C216 O211 1.279 . S
C217 O218 1.315 . S
C217 O219 1.279 1_546 S
O218 Cd210 2.223 1_545 S
O218 C217 1.315 . S
O219 Cd209 2.240 . S
O219 C217 1.279 1_564 S
O220 Cd210 2.297 1_544 S
O220 C215 1.247 . S
O221 Cd210 2.439 1_554 S
O221 C215 1.208 1_565 S
O222 Cd223 2.223 . S
O222 C230 1.315 . S
Cd223 O222 2.223 . S
Cd223 O226 2.297 . S
Cd223 O227 2.439 . S
Cd223 O233 2.240 . S
Cd224 O225 2.240 . S
Cd224 O232 2.223 . S
Cd224 O234 2.297 . S
Cd224 O235 2.439 . S
O225 Cd224 2.240 . S
O225 C230 1.279 . S
O226 Cd223 2.297 . S
O226 C228 1.247 . S
O227 Cd223 2.439 . S
O227 C228 1.208 . S
C228 O226 1.247 . S
C228 O227 1.208 . S
C229 O234 1.247 . S
C229 O235 1.208 . S
C230 O222 1.315 . S
C230 O225 1.279 . S
C231 O232 1.315 . S
C231 O233 1.279 . S
O232 Cd224 2.223 . S
O232 C231 1.315 . S
O233 Cd223 2.240 . S
O233 C231 1.279 . S
O234 Cd224 2.297 . S
O234 C229 1.247 . S
O235 Cd224 2.439 . S
O235 C229 1.208 . S
O236 Cd237 2.223 1_556 S
O236 C244 1.315 . S
Cd237 O236 2.223 1_554 S
Cd237 O240 2.297 . S
Cd237 O241 2.439 . S
Cd237 O247 2.240 . S
Cd238 O239 2.240 . S
Cd238 O246 2.223 . S
Cd238 O248 2.297 1_556 S
Cd238 O249 2.439 1_556 S
O239 Cd238 2.240 . S
O239 C244 1.279 . S
O240 Cd237 2.297 . S
O240 C242 1.247 . S
O241 Cd237 2.439 . S
O241 C242 1.208 . S
C242 O240 1.247 . S
C242 O241 1.208 . S
C243 O248 1.247 . S
C243 O249 1.208 . S
C244 O236 1.315 . S
C244 O239 1.279 . S
C245 O246 1.315 . S
C245 O247 1.279 1_556 S
O246 Cd238 2.223 . S
O246 C245 1.315 . S
O247 Cd237 2.240 . S
O247 C245 1.279 1_554 S
O248 Cd238 2.297 1_554 S
O248 C243 1.247 . S
O249 Cd238 2.439 1_554 S
O249 C243 1.208 . S
O250 Cd251 2.223 1_565 S
O250 C258 1.315 1_565 S
Cd251 O250 2.223 1_545 S
Cd251 O254 2.297 1_655 S
Cd251 O255 2.439 . S
Cd251 O261 2.240 . S
Cd252 O253 2.240 . S
Cd252 O260 2.223 1_545 S
Cd252 O262 2.297 . S
Cd252 O263 2.439 . S
O253 Cd252 2.240 . S
O253 C258 1.279 . S
O254 Cd251 2.297 1_455 S
O254 C256 1.247 . S
O255 Cd251 2.439 . S
O255 C256 1.208 1_655 S
C256 O254 1.247 . S
C256 O255 1.208 1_455 S
C257 O262 1.247 . S
C257 O263 1.208 . S
C258 O250 1.315 1_545 S
C258 O253 1.279 . S
C259 O260 1.315 . S
C259 O261 1.279 1_565 S
O260 Cd252 2.223 1_565 S
O260 C259 1.315 . S
O261 Cd251 2.240 . S
O261 C259 1.279 1_545 S
O262 Cd252 2.297 . S
O262 C257 1.247 . S
O263 Cd252 2.439 . S
O263 C257 1.208 . S
O264 Cd265 2.223 . S
O264 C272 1.315 . S
Cd265 O264 2.223 . S
Cd265 O268 2.297 . S
Cd265 O269 2.439 . S
Cd265 O275 2.240 . S
Cd266 O267 2.240 . S
Cd266 O274 2.223 . S
Cd266 O276 2.297 . S
Cd266 O277 2.439 . S
O267 Cd266 2.240 . S
O267 C272 1.279 . S
O268 Cd265 2.297 . S
O268 C270 1.247 . S
O269 Cd265 2.439 . S
O269 C270 1.208 . S
C270 O268 1.247 . S
C270 O269 1.208 . S
C271 O276 1.247 . S
C271 O277 1.208 . S
C272 O264 1.315 . S
C272 O267 1.279 . S
C273 O274 1.315 . S
C273 O275 1.279 . S
O274 Cd266 2.223 . S
O274 C273 1.315 . S
O275 Cd265 2.240 . S
O275 C273 1.279 . S
O276 Cd266 2.297 . S
O276 C271 1.247 . S
O277 Cd266 2.439 . S
O277 C271 1.208 . S
O278 Cd279 2.223 . S
O278 C286 1.315 . S
Cd279 O278 2.223 . S
Cd279 O282 2.297 . S
Cd279 O283 2.439 . S
Cd279 O289 2.240 . S
Cd280 O281 2.240 . S
Cd280 O288 2.223 . S
Cd280 O290 2.297 . S
Cd280 O291 2.439 . S
O281 Cd280 2.240 . S
O281 C286 1.279 . S
O282 Cd279 2.297 . S
O282 C284 1.247 . S
O283 Cd279 2.439 . S
O283 C284 1.208 . S
C284 O282 1.247 . S
C284 O283 1.208 . S
C285 O290 1.247 . S
C285 O291 1.208 . S
C286 O278 1.315 . S
C286 O281 1.279 . S
C287 O288 1.315 . S
C287 O289 1.279 . S
O288 Cd280 2.223 . S
O288 C287 1.315 . S
O289 Cd279 2.240 . S
O289 C287 1.279 . S
O290 Cd280 2.297 . S
O290 C285 1.247 . S
O291 Cd280 2.439 . S
O291 C285 1.208 . S
O292 Cd293 2.223 . S
O292 C300 1.315 . S
Cd293 O292 2.223 . S
Cd293 O296 2.297 . S
Cd293 O297 2.439 . S
Cd293 O303 2.240 . S
Cd294 O295 2.240 . S
Cd294 O302 2.223 . S
Cd294 O304 2.297 . S
Cd294 O305 2.439 . S
O295 Cd294 2.240 . S
O295 C300 1.279 . S
O296 Cd293 2.297 . S
O296 C298 1.247 . S
O297 Cd293 2.439 . S
O297 C298 1.208 . S
C298 O296 1.247 . S
C298 O297 1.208 . S
C299 O304 1.247 . S
C299 O305 1.208 . S
C300 O292 1.315 . S
C300 O295 1.279 . S
C301 O302 1.315 . S
C301 O303 1.279 . S
O302 Cd294 2.223 . S
O302 C301 1.315 . S
O303 Cd293 2.240 . S
O303 C301 1.279 . S
O304 Cd294 2.297 . S
O304 C299 1.247 . S
O305 Cd294 2.439 . S
O305 C299 1.208 . S
O306 Cd307 2.223 1_545 S
O306 C314 1.315 . S
Cd307 O306 2.223 1_565 S
Cd307 O310 2.297 . S
Cd307 O311 2.439 . S
Cd307 O317 2.239 1_565 S
Cd308 O309 2.240 . S
Cd308 O316 2.223 . S
Cd308 O318 2.297 . S
Cd308 O319 2.439 1_545 S
O309 Cd308 2.240 . S
O309 C314 1.279 . S
O310 Cd307 2.297 . S
O310 C312 1.247 . S
O311 Cd307 2.439 . S
O311 C312 1.208 . S
C312 O310 1.247 . S
C312 O311 1.208 . S
C313 O318 1.247 1_565 S
C313 O319 1.208 . S
C314 O306 1.315 . S
C314 O309 1.279 . S
C315 O316 1.315 . S
C315 O317 1.282 . S
O316 Cd308 2.223 . S
O316 C315 1.315 . S
O317 Cd307 2.239 1_545 S
O317 C315 1.282 . S
O318 Cd308 2.297 . S
O318 C313 1.247 1_545 S
O319 Cd308 2.439 1_565 S
O319 C313 1.208 . S
O320 Cd321 2.223 . S
O320 C328 1.315 . S
Cd321 O320 2.223 . S
Cd321 O324 2.297 1_556 S
Cd321 O325 2.439 1_655 S
Cd321 O331 2.240 . S
Cd322 O323 2.240 . S
Cd322 O330 2.223 1_455 S
Cd322 O332 2.297 . S
Cd322 O333 2.439 . S
O323 Cd322 2.240 . S
O323 C328 1.279 1_455 S
O324 Cd321 2.297 1_554 S
O324 C326 1.247 1_655 S
O325 Cd321 2.439 1_455 S
O325 C326 1.208 1_556 S
C326 O324 1.247 1_455 S
C326 O325 1.208 1_554 S
C327 O332 1.247 . S
C327 O333 1.208 . S
C328 O320 1.315 . S
C328 O323 1.279 1_655 S
C329 O330 1.315 . S
C329 O331 1.279 . S
O330 Cd322 2.223 1_655 S
O330 C329 1.315 . S
O331 Cd321 2.240 . S
O331 C329 1.279 . S
O332 Cd322 2.297 . S
O332 C327 1.247 . S
O333 Cd322 2.439 . S
O333 C327 1.208 . S
O334 Cd335 2.223 . S
O334 C342 1.315 . S
Cd335 O334 2.223 . S
Cd335 O338 2.297 . S
Cd335 O339 2.439 . S
Cd335 O345 2.240 . S
Cd336 O337 2.240 . S
Cd336 O344 2.223 . S
Cd336 O346 2.297 . S
Cd336 O347 2.439 . S
O337 Cd336 2.240 . S
O337 C342 1.279 . S
O338 Cd335 2.297 . S
O338 C340 1.247 . S
O339 Cd335 2.439 . S
O339 C340 1.208 . S
C340 O338 1.247 . S
C340 O339 1.208 . S
C341 O346 1.247 . S
C341 O347 1.208 . S
C342 O334 1.315 . S
C342 O337 1.279 . S
C343 O344 1.315 . S
C343 O345 1.279 . S
O344 Cd336 2.223 . S
O344 C343 1.315 . S
O345 Cd335 2.240 . S
O345 C343 1.279 . S
O346 Cd336 2.297 . S
O346 C341 1.247 . S
O347 Cd336 2.439 . S
O347 C341 1.208 . S
O348 Cd349 2.223 1_655 S
O348 C356 1.315 . S
Cd349 O348 2.223 1_455 S
Cd349 O352 2.297 . S
Cd349 O353 2.439 . S
Cd349 O359 2.240 . S
Cd350 O351 2.240 . S
Cd350 O358 2.223 . S
Cd350 O360 2.297 1_655 S
Cd350 O361 2.439 1_655 S
O351 Cd350 2.240 . S
O351 C356 1.279 . S
O352 Cd349 2.297 . S
O352 C354 1.247 . S
O353 Cd349 2.439 . S
O353 C354 1.208 . S
C354 O352 1.247 . S
C354 O353 1.208 . S
C355 O360 1.247 . S
C355 O361 1.208 . S
C356 O348 1.315 . S
C356 O351 1.279 . S
C357 O358 1.315 . S
C357 O359 1.279 1_655 S
O358 Cd350 2.223 . S
O358 C357 1.315 . S
O359 Cd349 2.240 . S
O359 C357 1.279 1_455 S
O360 Cd350 2.297 1_455 S
O360 C355 1.247 . S
O361 Cd350 2.439 1_455 S
O361 C355 1.208 . S
O362 Cd363 2.223 . S
O362 C370 1.315 . S
Cd363 O362 2.223 . S
Cd363 O366 2.297 . S
Cd363 O367 2.439 . S
Cd363 O373 2.240 . S
Cd364 O365 2.240 . S
Cd364 O372 2.223 . S
Cd364 O374 2.297 . S
Cd364 O375 2.439 . S
O365 Cd364 2.240 . S
O365 C370 1.279 . S
O366 Cd363 2.297 . S
O366 C368 1.247 . S
O367 Cd363 2.439 . S
O367 C368 1.208 . S
C368 O366 1.247 . S
C368 O367 1.208 . S
C369 O374 1.247 . S
C369 O375 1.208 . S
C370 O362 1.315 . S
C370 O365 1.279 . S
C371 O372 1.315 . S
C371 O373 1.279 . S
O372 Cd364 2.223 . S
O372 C371 1.315 . S
O373 Cd363 2.240 . S
O373 C371 1.279 . S
O374 Cd364 2.297 . S
O374 C369 1.247 . S
O375 Cd364 2.439 . S
O375 C369 1.208 . S
C216 C73 1.914 . S
C231 C82 1.604 . S
C100 C244 2.114 . S
C258 C56 1.434 1_545 S
C270 C134 1.734 . S
C284 C165 1.472 . S
C147 C298 1.425 . S
C313 C125 1.850 . S
C151 C329 1.699 . S
C342 C121 1.454 . S
C139 C327 1.851 . S
C340 C164 1.617 . S
C95 C356 1.644 . S
C61 C355 1.610 . S
C74 C354 1.679 . S
C86 C357 2.058 . S
C47 C259 1.697 . S
C186 C257 1.375 . S
C217 C204 1.738 . S
C228 C112 2.229 . S
C60 C273 1.572 1_565 S
C314 C152 1.920 . S
C271 C126 1.899 1_545 S
C299 C160 1.623 . S
C300 C190 1.915 . S
C199 C315 1.604 . S
C113 C272 2.114 . S
C286 C173 1.434 . S
C43 C242 1.734 . S
C256 C9 1.472 . S
C214 C17 1.425 . S
C229 C34 1.850 1_455 S
C21 C343 1.699 . S
C30 C328 1.453 1_554 S
C48 C341 1.851 . S
C8 C326 1.617 . S
C370 C108 1.644 . S
C369 C178 1.610 1_554 S
C368 C191 1.679 . S
C203 C371 2.058 . S
C138 C287 1.697 . S
C285 C69 1.375 . S
C301 C87 1.738 . S
C312 C99 2.229 . S
C177 C245 1.572 . S
C230 C22 1.920 . S
C35 C243 1.899 . S
C215 C4 1.623 . S
