# Generated by pormake.
# Topology pyr, (3,6)-cn, num edge types: 1
# Building blocks:
#     Node 0, Type 0, BuildingBlock: PAMTOO_clean_linker_0, # of connection points: 3
#     Node 1, Type 0, BuildingBlock: PAMTOO_clean_linker_0, # of connection points: 3
#     Node 2, Type 0, BuildingBlock: PAMTOO_clean_linker_0, # of connection points: 3
#     Node 3, Type 0, BuildingBlock: PAMTOO_clean_linker_0, # of connection points: 3
#     Node 4, Type 0, BuildingBlock: PAMTOO_clean_linker_0, # of connection points: 3
#     Node 5, Type 0, BuildingBlock: PAMTOO_clean_linker_0, # of connection points: 3
#     Node 6, Type 0, BuildingBlock: PAMTOO_clean_linker_0, # of connection points: 3
#     Node 7, Type 0, BuildingBlock: PAMTOO_clean_linker_0, # of connection points: 3
#     Node 8, Type 1, BuildingBlock: BETDAH_clean_sbu_0, # of connection points: 6
#     Node 9, Type 1, BuildingBlock: BETDAH_clean_sbu_0, # of connection points: 6
#     Node 10, Type 1, BuildingBlock: BETDAH_clean_sbu_0, # of connection points: 6
#     Node 11, Type 1, BuildingBlock: BETDAH_clean_sbu_0, # of connection points: 6
#     Edge 12, Type (0, 1), BuildingBlock: KIFKEQ_clean_linker_1, # of connection points: 2
#     Edge 13, Type (0, 1), BuildingBlock: KIFKEQ_clean_linker_1, # of connection points: 2
#     Edge 14, Type (0, 1), BuildingBlock: KIFKEQ_clean_linker_1, # of connection points: 2
#     Edge 15, Type (0, 1), BuildingBlock: KIFKEQ_clean_linker_1, # of connection points: 2
#     Edge 16, Type (0, 1), BuildingBlock: KIFKEQ_clean_linker_1, # of connection points: 2
#     Edge 17, Type (0, 1), BuildingBlock: KIFKEQ_clean_linker_1, # of connection points: 2
#     Edge 18, Type (0, 1), BuildingBlock: KIFKEQ_clean_linker_1, # of connection points: 2
#     Edge 19, Type (0, 1), BuildingBlock: KIFKEQ_clean_linker_1, # of connection points: 2
#     Edge 20, Type (0, 1), BuildingBlock: KIFKEQ_clean_linker_1, # of connection points: 2
#     Edge 21, Type (0, 1), BuildingBlock: KIFKEQ_clean_linker_1, # of connection points: 2
#     Edge 22, Type (0, 1), BuildingBlock: KIFKEQ_clean_linker_1, # of connection points: 2
#     Edge 23, Type (0, 1), BuildingBlock: KIFKEQ_clean_linker_1, # of connection points: 2
#     Edge 24, Type (0, 1), BuildingBlock: KIFKEQ_clean_linker_1, # of connection points: 2
#     Edge 25, Type (0, 1), BuildingBlock: KIFKEQ_clean_linker_1, # of connection points: 2
#     Edge 26, Type (0, 1), BuildingBlock: KIFKEQ_clean_linker_1, # of connection points: 2
#     Edge 27, Type (0, 1), BuildingBlock: KIFKEQ_clean_linker_1, # of connection points: 2
#     Edge 28, Type (0, 1), BuildingBlock: KIFKEQ_clean_linker_1, # of connection points: 2
#     Edge 29, Type (0, 1), BuildingBlock: KIFKEQ_clean_linker_1, # of connection points: 2
#     Edge 30, Type (0, 1), BuildingBlock: KIFKEQ_clean_linker_1, # of connection points: 2
#     Edge 31, Type (0, 1), BuildingBlock: KIFKEQ_clean_linker_1, # of connection points: 2
#     Edge 32, Type (0, 1), BuildingBlock: KIFKEQ_clean_linker_1, # of connection points: 2
#     Edge 33, Type (0, 1), BuildingBlock: KIFKEQ_clean_linker_1, # of connection points: 2
#     Edge 34, Type (0, 1), BuildingBlock: KIFKEQ_clean_linker_1, # of connection points: 2
#     Edge 35, Type (0, 1), BuildingBlock: KIFKEQ_clean_linker_1, # of connection points: 2
# Relax obj value: 0.173
# Max RMSD: 0.224
# Mean RMSD: 0.150
data_MOF--net-pyr--node1-BETDAH_clean_sbu_0--node2-PAMTOO_clean_linker_0--edge1-KIFKEQ_clean_linker_1
_symmetry_space_group_name_H-M    P1
_symmetry_Int_Tables_number       1
_symmetry_cell_setting            triclinic
loop_
_symmetry_equiv_pos_as_xyz
'x, y, z'
_cell_length_a     37.579037
_cell_length_b     41.555411
_cell_length_c     36.905638
_cell_angle_alpha  91.627162
_cell_angle_beta   89.446666
_cell_angle_gamma 106.00138
loop_
_atom_site_label
_atom_site_type_symbol
_atom_site_fract_x
_atom_site_fract_y
_atom_site_fract_z
_atom_type_partial_charge
H0 H 0.31358 0.3211 0.24841 0.0
H1 H 0.37507 0.24932 0.26434 0.0
H2 H 0.3976 0.31183 0.1719 0.0
H3 H 0.45385 0.27318 0.24209 0.0
C4 C 0.44958 0.26957 0.21227 0.0
O5 O 0.41241 0.26201 0.20433 0.0
H6 H 0.46459 0.29309 0.19885 0.0
C7 C 0.33612 0.31069 0.24075 0.0
C8 C 0.35574 0.32076 0.20849 0.0
C9 C 0.3426 0.28485 0.26114 0.0
C10 C 0.37002 0.26976 0.24951 0.0
C11 C 0.38983 0.2797 0.21758 0.0
C12 C 0.38287 0.30518 0.19718 0.0
H13 H 0.30595 0.93394 0.66202 0.0
H14 H 0.26562 0.87879 0.5634 0.0
H15 H 0.33945 0.84563 0.6318 0.0
H16 H 0.33791 0.86474 0.53578 0.0
C17 C 0.32424 0.83783 0.54096 0.0
O18 O 0.30148 0.83407 0.57104 0.0
H19 H 0.30704 0.82776 0.51671 0.0
C20 C 0.30495 0.91307 0.64336 0.0
C21 C 0.32542 0.89038 0.65076 0.0
C22 C 0.28335 0.90911 0.61194 0.0
C23 C 0.2822 0.88219 0.58782 0.0
C24 C 0.30242 0.85947 0.59496 0.0
C25 C 0.32376 0.86331 0.62654 0.0
H26 H 0.75016 0.34029 0.93729 0.0
H27 H 0.66851 0.32752 0.85273 0.0
H28 H 0.75472 0.41959 0.86309 0.0
H29 H 0.67409 0.42085 0.85111 0.0
C30 C 0.66942 0.40381 0.82672 0.0
O31 O 0.69702 0.3873 0.82492 0.0
H32 H 0.64224 0.38496 0.83011 0.0
C33 C 0.73892 0.34986 0.91439 0.0
C34 C 0.75698 0.3824 0.90252 0.0
C35 C 0.70675 0.32942 0.89715 0.0
C36 C 0.69263 0.3426 0.86708 0.0
C37 C 0.70993 0.37515 0.85478 0.0
C38 C 0.74185 0.39467 0.87266 0.0
H39 H 0.88894 0.75779 0.43662 0.0
H40 H 0.89175 0.67504 0.36441 0.0
H41 H 0.97884 0.76729 0.36083 0.0
H42 H 0.95665 0.73334 0.28631 0.0
C43 C 0.94665 0.70687 0.29474 0.0
O44 O 0.95375 0.70567 0.33166 0.0
H45 H 0.91623 0.69871 0.29011 0.0
C46 C 0.90224 0.74708 0.41512 0.0
C47 C 0.93579 0.76687 0.40064 0.0
C48 C 0.88593 0.71375 0.40292 0.0
C49 C 0.90335 0.70059 0.37413 0.0
C50 C 0.9366 0.71977 0.35839 0.0
C51 C 0.95296 0.75273 0.37228 0.0
H52 H 0.75563 0.86562 0.86884 0.0
H53 H 0.70058 0.8108 0.96008 0.0
H54 H 0.78889 0.78125 0.90722 0.0
H55 H 0.71406 0.72981 0.92897 0.0
C56 C 0.72619 0.73618 0.95658 0.0
O57 O 0.74216 0.77013 0.9613 0.0
H58 H 0.70325 0.72805 0.97641 0.0
C59 C 0.75137 0.84443 0.88642 0.0
C60 C 0.77483 0.82326 0.88353 0.0
C61 C 0.72479 0.84037 0.91417 0.0
C62 C 0.7205 0.81391 0.93811 0.0
C63 C 0.74354 0.79274 0.93544 0.0
C64 C 0.77071 0.79745 0.90838 0.0
H65 H 0.79486 0.13673 0.46908 0.0
H66 H 0.72029 0.19713 0.49219 0.0
H67 H 0.77832 0.16775 0.57882 0.0
H68 H 0.6992 0.1825 0.6054 0.0
C69 C 0.69672 0.18795 0.57637 0.0
O70 O 0.73163 0.20074 0.56201 0.0
H71 H 0.68155 0.16404 0.56236 0.0
C72 C 0.78158 0.14994 0.48825 0.0
C73 C 0.79022 0.15057 0.5253 0.0
C74 C 0.7561 0.16637 0.47578 0.0
C75 C 0.73937 0.18362 0.50104 0.0
C76 C 0.74728 0.18369 0.53802 0.0
C77 C 0.77249 0.16725 0.55008 0.0
H78 H 0.39308 0.75968 0.15775 0.0
H79 H 0.38727 0.68397 0.23662 0.0
H80 H 0.47446 0.77573 0.24316 0.0
H81 H 0.49981 0.71749 0.26565 0.0
C82 C 0.47271 0.70001 0.273 0.0
O83 O 0.44587 0.71736 0.2735 0.0
H84 H 0.46594 0.68002 0.2514 0.0
C85 C 0.40388 0.75146 0.18183 0.0
C86 C 0.4362 0.7724 0.19841 0.0
C87 C 0.38572 0.7195 0.19515 0.0
C88 C 0.40092 0.70813 0.22555 0.0
C89 C 0.43302 0.72819 0.24277 0.0
C90 C 0.45034 0.76022 0.22917 0.0
H91 H 0.14478 0.34823 0.78972 0.0
H92 H 0.23292 0.43971 0.77599 0.0
H93 H 0.22556 0.35594 0.70406 0.0
H94 H 0.2996 0.38916 0.72445 0.0
C95 C 0.29862 0.41559 0.72784 0.0
O96 O 0.26314 0.41745 0.72018 0.0
H97 H 0.30509 0.4236 0.75663 0.0
C98 C 0.16891 0.3628 0.77546 0.0
C99 C 0.1828 0.34771 0.74524 0.0
C100 C 0.18719 0.39611 0.78803 0.0
C101 C 0.21888 0.41401 0.7685 0.0
C102 C 0.23274 0.39955 0.73859 0.0
C103 C 0.21466 0.36669 0.7273 0.0
Ho104 Ho 0.05806 0.07367 0.54131 0.0
Ho105 Ho 0.05933 1.03792 0.61157 0.0
C106 C 0.08581 0.1178 0.61608 0.0
C107 C 0.0509 0.11182 0.48941 0.0
C108 C 0.07803 0.13926 0.47191 0.0
C109 C 0.07014 0.15017 0.43817 0.0
C110 C 0.0982 0.17166 0.41825 0.0
C111 C 0.13462 0.18231 0.43174 0.0
C112 C 0.14182 0.17277 0.46656 0.0
C113 C 0.11375 0.15134 0.48645 0.0
C114 C 0.12141 0.05692 0.55369 0.0
C115 C 0.0313 0.99387 0.53666 0.0
C116 C 0.06684 0.99963 0.66331 0.0
C117 C 0.04075 0.97105 0.68018 0.0
C118 C 0.05133 0.95657 0.71059 0.0
C119 C 0.025 0.93263 0.72982 0.0
C120 C 0.98761 0.92303 0.71903 0.0
C121 C 0.97761 0.93658 0.68743 0.0
C122 C 1.00396 0.96038 0.66819 0.0
C123 C 0.9957 0.05401 0.59829 0.0
O124 O 0.0691 0.11626 0.58423 0.0
O125 O 0.09167 0.09039 0.62944 0.0
O126 O 0.05698 0.0826 0.48413 0.0
O127 O 0.04275 0.11718 0.52317 0.0
O128 O 0.10812 0.05815 0.52178 0.0
O129 O 0.10254 0.06764 0.57679 0.0
O130 O 0.04799 0.99524 0.56854 0.0
O131 O 0.02537 1.02135 0.52356 0.0
O132 O 0.05897 1.0281 0.66864 0.0
O133 O 0.07603 0.99507 0.62968 0.0
O134 O 1.0085 0.05307 0.63049 0.0
O135 O 1.01507 0.04343 0.57573 0.0
H136 H 0.04274 0.14089 0.42653 0.0
H137 H 0.0917 0.17897 0.39172 0.0
H138 H 0.16959 0.1802 0.47757 0.0
H139 H 0.12037 0.14277 0.51236 0.0
H140 H 0.07965 0.9646 0.72018 0.0
H141 H 0.03372 0.92231 0.75371 0.0
H142 H 0.94906 0.93016 0.67858 0.0
H143 H 0.99533 0.97155 0.64483 0.0
Ho144 Ho 0.60792 0.06053 0.06446 0.0
Ho145 Ho 0.5378 1.03956 1.02803 0.0
C146 C 0.53865 0.08367 0.09788 0.0
C147 C 0.66699 0.09241 0.0996 0.0
C148 C 0.67565 0.10236 0.13791 0.0
C149 C 0.69137 0.13621 0.14737 0.0
C150 C 0.699 0.14624 0.18362 0.0
C151 C 0.69123 0.12253 0.21113 0.0
C152 C 0.67567 0.08858 0.20147 0.0
C153 C 0.66779 0.07861 0.16531 0.0
C154 C 0.56627 0.99863 0.08502 0.0
C155 C 0.60794 1.01851 0.99386 0.0
C156 C 0.47832 1.00624 0.99431 0.0
C157 C 0.46889 0.9892 0.95867 0.0
C158 C 0.44653 0.95604 0.95698 0.0
C159 C 0.43584 0.93985 0.9235 0.0
C160 C 0.4471 0.95664 0.89099 0.0
C161 C 0.47023 0.98967 0.89285 0.0
C162 C 0.48115 1.00573 0.92631 0.0
C163 C 0.57892 0.10175 1.00823 0.0
O164 O 0.5749 0.09021 0.09502 0.0
O165 O 0.5167 0.05989 0.07775 0.0
O166 O 0.65872 0.06045 0.09134 0.0
O167 O 0.64543 0.10736 0.08349 0.0
O168 O 0.60157 1.00696 0.07935 0.0
O169 O 0.55443 1.02401 0.08059 0.0
O170 O 0.57169 1.00993 0.99806 0.0
O171 O 0.62885 0.04384 1.01278 0.0
O172 O 0.49062 1.03884 0.99474 0.0
O173 O 0.49646 0.99258 1.01642 0.0
O174 O 0.54359 0.09317 1.014 0.0
O175 O 0.59112 0.07647 1.01215 0.0
H176 H 0.6975 0.15497 0.1267 0.0
H177 H 0.71055 0.17263 0.1901 0.0
H178 H 0.66992 0.06954 0.22182 0.0
H179 H 0.65555 0.0523 0.15891 0.0
H180 H 0.43696 0.94276 0.98163 0.0
H181 H 0.41854 0.91426 0.92313 0.0
H182 H 0.47902 1.00361 0.86847 0.0
H183 H 0.49863 1.03127 0.92677 0.0
Ho184 Ho 0.57948 0.53147 0.5258 0.0
Ho185 Ho 0.585 0.58917 0.57337 0.0
C186 C 0.61092 0.5304 0.60898 0.0
C187 C 0.59364 0.48269 0.48877 0.0
C188 C 0.60178 0.45143 0.49864 0.0
C189 C 0.62281 0.45039 0.52957 0.0
C190 C 0.62946 0.42049 0.53952 0.0
C191 C 0.6157 0.39103 0.51844 0.0
C192 C 0.59468 0.39214 0.48736 0.0
C193 C 0.5877 0.42212 0.47763 0.0
C194 C 0.51577 0.52726 0.56356 0.0
C195 C 0.55111 0.58874 0.49171 0.0
C196 C 0.57218 0.63862 0.61031 0.0
C197 C 0.54841 0.66053 0.60355 0.0
C198 C 0.51621 0.64878 0.58264 0.0
C199 C 0.49432 0.66991 0.57512 0.0
C200 C 0.50422 0.70325 0.58832 0.0
C201 C 0.53643 0.71491 0.60943 0.0
C202 C 0.55841 0.69369 0.61691 0.0
C203 C 0.64882 0.59238 0.53637 0.0
O204 O 0.60577 0.51632 0.57603 0.0
O205 O 0.60317 0.55912 0.61579 0.0
O206 O 0.56005 0.48436 0.49576 0.0
O207 O 0.61876 0.51041 0.49765 0.0
O208 O 0.51715 0.5178 0.5299 0.0
O209 O 0.54841 0.53781 0.57567 0.0
O210 O 0.5512 0.59968 0.52585 0.0
O211 O 0.56534 0.56376 0.48358 0.0
O212 O 0.6004 0.64198 0.58847 0.0
O213 O 0.55491 0.60726 0.61578 0.0
O214 O 0.64705 0.60006 0.57054 0.0
O215 O 0.61635 0.58307 0.52349 0.0
H216 H 0.6342 0.47266 0.54615 0.0
H217 H 0.64521 0.42048 0.56394 0.0
H218 H 0.58408 0.37 0.47028 0.0
H219 H 0.5714 0.42245 0.45366 0.0
H220 H 0.50792 0.62323 0.57207 0.0
H221 H 0.46938 0.66 0.55929 0.0
H222 H 0.54493 0.74056 0.61969 0.0
H223 H 0.58333 0.7032 0.63289 0.0
Ho224 Ho 0.07302 0.51426 0.07106 0.0
Ho225 Ho 0.07157 0.58019 1.02672 0.0
C226 C 0.14376 0.58206 0.07554 0.0
C227 C 0.08647 0.45869 0.08678 0.0
C228 C 0.11955 0.44657 0.08622 0.0
C229 C 0.15392 0.46745 0.07549 0.0
C230 C 0.18596 0.45684 0.07853 0.0
C231 C 0.184 0.42515 0.09222 0.0
C232 C 0.14921 0.40397 0.10175 0.0
C233 C 0.11727 0.41464 0.09881 0.0
C234 C 0.03997 0.55499 0.11163 0.0
C235 C 1.0005 0.51294 1.02287 0.0
C236 C 0.05702 0.63482 1.00906 0.0
C237 C 0.02285 0.64532 1.0088 0.0
C238 C 0.98909 0.62296 1.01869 0.0
C239 C 0.95601 0.63163 1.01482 0.0
C240 C 0.95615 0.66297 1.00125 0.0
C241 C 0.99032 0.68575 0.99266 0.0
C242 C 0.02338 0.6769 0.99625 0.0
C243 C 0.10422 0.53857 0.98684 0.0
O244 O 0.13072 0.54928 0.08084 0.0
O245 O 0.12522 0.5993 0.05724 0.0
O246 O 0.08703 0.48268 0.1107 0.0
O247 O 0.07394 0.46402 0.05516 0.0
O248 O 0.04372 0.52642 0.12178 0.0
O249 O 0.05284 0.55879 0.0796 0.0
O250 O 1.01398 0.54554 1.01723 0.0
O251 O 1.01871 0.49551 0.04132 0.0
O252 O 0.0577 0.61065 0.98579 0.0
O253 O 0.06963 0.63054 0.04102 0.0
O254 O 0.10197 0.56754 0.97641 0.0
O255 O 0.0907 0.53542 1.01846 0.0
H256 H 0.15606 0.49222 0.06562 0.0
H257 H 0.21229 0.47358 0.07071 0.0
H258 H 0.1468 0.37964 0.11293 0.0
H259 H 0.09094 0.39834 0.10737 0.0
H260 H 0.98822 0.59845 1.02851 0.0
H261 H 0.93028 0.61331 1.02136 0.0
H262 H 0.99154 0.71034 0.98284 0.0
H263 H 0.04927 0.69446 0.98858 0.0
H264 H 0.31532 0.31884 0.31454 0.0
H265 H 0.31142 0.21897 0.27523 0.0
H266 H 0.26574 0.29534 0.35762 0.0
H267 H 0.26309 0.19561 0.31897 0.0
H268 H 0.14508 0.16934 0.36033 0.0
H269 H 0.19779 0.19516 0.32236 0.0
H270 H 0.24841 0.26014 0.41209 0.0
H271 H 0.19474 0.23488 0.45008 0.0
C272 C 0.30431 0.29189 0.31552 0.0
C273 C 0.31715 0.2708 0.29132 0.0
C274 C 0.27612 0.27845 0.34032 0.0
C275 C 0.26018 0.24367 0.34127 0.0
C276 C 0.27438 0.22256 0.3184 0.0
C277 C 0.30249 0.23595 0.29368 0.0
C278 C 0.16706 0.18956 0.37186 0.0
C279 C 0.16562 0.20015 0.4082 0.0
C280 C 0.19757 0.20399 0.35024 0.0
C281 C 0.22748 0.22934 0.3644 0.0
C282 C 0.22575 0.24063 0.40047 0.0
C283 C 0.19515 0.22607 0.42222 0.0
H284 H 0.32509 0.84557 0.70359 0.0
H285 H 0.37733 0.94697 0.67222 0.0
H286 H 0.35845 0.85669 0.7615 0.0
H287 H 0.41065 0.95807 0.7297 0.0
H288 H 0.48444 0.96123 0.82614 0.0
H289 H 0.45889 0.94099 0.76652 0.0
H290 H 0.35296 0.89508 0.81551 0.0
H291 H 0.3779 0.91605 0.87491 0.0
C292 C 0.34421 0.86999 0.70888 0.0
C293 C 0.34855 0.89552 0.68373 0.0
C294 C 0.36309 0.8764 0.74196 0.0
C295 C 0.38707 0.90824 0.75005 0.0
C296 C 0.39263 0.93321 0.72407 0.0
C297 C 0.37339 0.92697 0.69133 0.0
C298 C 0.4557 0.94679 0.82426 0.0
C299 C 0.43314 0.94067 0.85536 0.0
C300 C 0.44119 0.93505 0.79014 0.0
C301 C 0.40394 0.91659 0.78643 0.0
C302 C 0.3819 0.90891 0.81764 0.0
C303 C 0.39627 0.92094 0.85171 0.0
H304 H 0.64627 0.46031 0.8239 0.0
H305 H 0.68365 0.392 0.75325 0.0
H306 H 0.63406 0.49013 0.77195 0.0
H307 H 0.67292 0.4228 0.70052 0.0
H308 H 0.61288 0.46443 0.6113 0.0
H309 H 0.62974 0.43498 0.66182 0.0
H310 H 0.65552 0.52683 0.72636 0.0
H311 H 0.63731 0.55567 0.6763 0.0
C312 C 0.65291 0.45218 0.79715 0.0
C313 C 0.66707 0.42423 0.79314 0.0
C314 C 0.64595 0.46948 0.76701 0.0
C315 C 0.65273 0.45957 0.7313 0.0
C316 C 0.66696 0.43144 0.72723 0.0
C317 C 0.67369 0.4139 0.75762 0.0
C318 C 0.62242 0.47845 0.63617 0.0
C319 C 0.62355 0.51263 0.63938 0.0
C320 C 0.63231 0.46146 0.6654 0.0
C321 C 0.64397 0.47805 0.69897 0.0
C322 C 0.64593 0.51252 0.70167 0.0
C323 C 0.63569 0.52936 0.67261 0.0
H324 H 1.00084 0.72562 0.24182 0.0
H325 H 0.93073 0.63762 0.29059 0.0
H326 H 0.02267 0.69053 0.19736 0.0
H327 H 0.95179 0.60227 0.24582 0.0
H328 H 1.01945 0.54467 0.18174 0.0
H329 H 0.99958 0.58056 0.22563 0.0
H330 H 1.00854 0.65493 0.14417 0.0
H331 H 0.02941 0.61852 0.09988 0.0
C332 C 0.99044 0.69867 0.24345 0.0
C333 C 0.96438 0.68459 0.27048 0.0
C334 C 1.0026 0.6784 0.21742 0.0
C335 C 0.98919 0.64313 0.21728 0.0
C336 C 0.96352 0.62912 0.24483 0.0
C337 C 0.95135 0.64943 0.27083 0.0
C338 C 1.01716 0.56863 0.17284 0.0
C339 C 0.02634 0.57844 0.13686 0.0
C340 C 1.00538 0.58937 0.1983 0.0
C341 C 1.00201 0.62107 0.1891 0.0
C342 C 1.01107 0.63102 0.15291 0.0
C343 C 0.02297 0.61002 0.1272 0.0
H344 H 0.4821 0.22881 0.24993 0.0
H345 H 0.44879 0.24673 0.14249 0.0
H346 H 0.50182 0.18071 0.22613 0.0
H347 H 0.46803 0.19856 0.11875 0.0
H348 H 0.46882 0.09129 0.09573 0.0
H349 H 0.44681 0.13512 0.1262 0.0
H350 H 0.55139 0.1711 0.18183 0.0
H351 H 0.57358 0.12738 0.15136 0.0
C352 C 0.4792 0.22251 0.22123 0.0
C353 C 0.46396 0.24133 0.19794 0.0
C354 C 0.49038 0.19504 0.20767 0.0
C355 C 0.48599 0.18573 0.17072 0.0
C356 C 0.47111 0.20484 0.14745 0.0
C357 C 0.46042 0.23249 0.1609 0.0
C358 C 0.48685 0.10809 0.11501 0.0
C359 C 0.52302 0.10604 0.12095 0.0
C360 C 0.47436 0.13333 0.1322 0.0
C361 C 0.4976 0.15669 0.15598 0.0
C362 C 0.53291 0.15338 0.16365 0.0
C363 C 0.5456 0.1284 0.14613 0.0
H364 H 0.28499 0.94375 0.55036 0.0
H365 H 0.23422 0.92844 0.65611 0.0
H366 H 0.24922 0.98276 0.53681 0.0
H367 H 0.1969 0.96613 0.64221 0.0
H368 H 0.1547 0.05504 0.61848 0.0
H369 H 0.19692 1.02193 0.6331 0.0
H370 H 0.18863 0.98256 0.52274 0.0
H371 H 0.14817 1.01693 0.50801 0.0
C372 C 0.26589 0.94865 0.57056 0.0
C373 C 0.26214 0.93315 0.60417 0.0
C374 C 0.24525 0.97084 0.56281 0.0
C375 C 0.21991 0.9775 0.58831 0.0
C376 C 0.21655 0.9621 0.62214 0.0
C377 C 0.23769 0.94035 0.63008 0.0
C378 C 0.16242 1.03958 0.59736 0.0
C379 C 0.14844 1.03856 0.56213 0.0
C380 C 0.1863 1.02038 0.60575 0.0
C381 C 0.19619 0.99943 0.57914 0.0
C382 C 0.1823 0.99883 0.54378 0.0
C383 C 0.15891 1.01839 0.53532 0.0
H384 H 0.77573 0.38566 0.97524 0.0
H385 H 0.81825 0.42671 0.87221 0.0
H386 H 0.83316 0.41704 1.00445 0.0
H387 H 0.87519 0.45889 0.90186 0.0
H388 H 0.95886 0.53607 0.97408 0.0
H389 H 0.90018 0.50582 0.94582 0.0
H390 H 0.89936 0.4184 1.00652 0.0
H391 H 0.95804 0.44853 1.03475 0.0
C392 C 0.79725 0.40114 0.9586 0.0
C393 C 0.79188 0.40315 0.92101 0.0
C394 C 0.83032 0.41934 0.97554 0.0
C395 C 0.85911 0.44057 0.95565 0.0
C396 C 0.8536 0.44316 0.91825 0.0
C397 C 0.82067 0.42466 0.9012 0.0
C398 C 0.94618 0.51044 0.98161 0.0
C399 C 0.96353 0.4949 1.00685 0.0
C400 C 0.91252 0.49297 0.96514 0.0
C401 C 0.89482 0.45952 0.97369 0.0
C402 C 0.91184 0.44418 0.9994 0.0
C403 C 0.94572 0.4615 1.01554 0.0
H404 H 0.86682 0.7142 0.47519 0.0
H405 H 0.82604 0.66536 0.37304 0.0
H406 H 0.81038 0.68398 0.50477 0.0
H407 H 0.77002 0.63299 0.40345 0.0
H408 H 0.65627 0.60592 0.46333 0.0
H409 H 0.71302 0.63315 0.4304 0.0
H410 H 0.77668 0.63401 0.52752 0.0
H411 H 0.71995 0.60848 0.56037 0.0
C412 C 0.84585 0.69699 0.45881 0.0
C413 C 0.85135 0.6929 0.42129 0.0
C414 C 0.81336 0.67895 0.47614 0.0
C415 C 0.78504 0.65551 0.45691 0.0
C416 C 0.79067 0.65094 0.41942 0.0
C417 C 0.82324 0.66931 0.40193 0.0
C418 C 0.68249 0.61174 0.47748 0.0
C419 C 0.68344 0.60522 0.51463 0.0
C420 C 0.71524 0.62733 0.45853 0.0
C421 C 0.75 0.63655 0.4761 0.0
C422 C 0.75075 0.62849 0.51295 0.0
C423 C 0.71809 0.61341 0.53188 0.0
H424 H 0.34399 0.31433 0.13532 0.0
H425 H 0.33926 0.37892 0.22795 0.0
H426 H 0.31141 0.34527 0.09901 0.0
H427 H 0.30541 0.40895 0.1922 0.0
H428 H 0.24898 0.4633 0.12176 0.0
H429 H 0.30095 0.44412 0.14241 0.0
H430 H 0.24692 0.34437 0.1012 0.0
H431 H 0.19588 0.36385 0.07931 0.0
C432 C 0.33693 0.33572 0.14767 0.0
C433 C 0.34374 0.34394 0.18464 0.0
C434 C 0.31787 0.35321 0.12696 0.0
C435 C 0.30522 0.37919 0.14284 0.0
C436 C 0.31485 0.38919 0.17899 0.0
C437 C 0.33395 0.37177 0.19963 0.0
C438 C 0.24877 0.43752 0.11613 0.0
C439 C 0.2181 0.41495 0.09932 0.0
C440 C 0.27839 0.42647 0.12827 0.0
C441 C 0.27794 0.39265 0.12385 0.0
C442 C 0.2484 0.37066 0.10483 0.0
C443 C 0.21885 0.3817 0.09268 0.0
H444 H 0.63209 0.29493 0.89886 0.0
H445 H 0.7392 0.28381 0.92708 0.0
H446 H 0.60266 0.24019 0.92333 0.0
H447 H 0.70974 0.23031 0.95379 0.0
H448 H 0.64875 0.12063 0.97665 0.0
H449 H 0.67914 0.17368 0.94788 0.0
H450 H 0.58524 0.21062 0.97552 0.0
H451 H 0.55476 0.15744 1.00262 0.0
C452 C 0.64956 0.28096 0.91019 0.0
C453 C 0.68832 0.29463 0.911 0.0
C454 C 0.6325 0.24946 0.92494 0.0
C455 C 0.65342 0.23029 0.94134 0.0
C456 C 0.69224 0.24367 0.94142 0.0
C457 C 0.70929 0.27501 0.92644 0.0
C458 C 0.63468 0.14014 0.97651 0.0
C459 C 0.59915 0.13451 0.99188 0.0
C460 C 0.6522 0.17084 0.9601 0.0
C461 C 0.63489 0.19707 0.95879 0.0
C462 C 0.59951 0.19128 0.97482 0.0
C463 C 0.58199 0.16062 0.99083 0.0
H464 H 1.00761 0.79712 0.42375 0.0
H465 H 0.90095 0.81601 0.41468 0.0
H466 H 0.03155 0.85153 0.45555 0.0
H467 H 0.92455 0.86996 0.44632 0.0
H468 H 0.0469 0.93368 0.54863 0.0
H469 H 0.02613 0.88065 0.51404 0.0
H470 H 0.9657 0.92614 0.44181 0.0
H471 H 0.98644 0.97899 0.47628 0.0
C472 C 0.98937 0.81302 0.42803 0.0
C473 C 0.95223 0.80187 0.41643 0.0
C474 C 1.00298 0.84418 0.44672 0.0
C475 C 0.98012 0.86555 0.45392 0.0
C476 C 0.94333 0.8547 0.44128 0.0
C477 C 0.92964 0.82348 0.42314 0.0
C478 C 0.02915 0.93245 0.52539 0.0
C479 C 1.01837 0.96098 0.5156 0.0
C480 C 1.01741 0.90193 0.50526 0.0
C481 C 0.99403 0.89863 0.47484 0.0
C482 C 0.98328 0.92722 0.46514 0.0
C483 C 0.99538 0.95779 0.48497 0.0
H484 H 0.32063 0.77345 0.52005 0.0
H485 H 0.39109 0.86049 0.57493 0.0
H486 H 0.36601 0.74245 0.53082 0.0
H487 H 0.43683 0.82968 0.58561 0.0
H488 H 0.4838 0.74784 0.63436 0.0
H489 H 0.44195 0.78184 0.62186 0.0
H490 H 0.4293 0.74258 0.51166 0.0
H491 H 0.47131 0.70881 0.52402 0.0
C492 C 0.34612 0.78597 0.53402 0.0
C493 C 0.35287 0.8194 0.54611 0.0
C494 C 0.37209 0.76835 0.54012 0.0
C495 C 0.40509 0.78375 0.55882 0.0
C496 C 0.4116 0.81716 0.57124 0.0
C497 C 0.38567 0.83482 0.56496 0.0
C498 C 0.47252 0.74687 0.60733 0.0
C499 C 0.48063 0.72547 0.58026 0.0
C500 C 0.44854 0.76631 0.60019 0.0
C501 C 0.43217 0.76467 0.56586 0.0
C502 C 0.441 0.74389 0.53856 0.0
C503 C 0.46501 0.72455 0.54565 0.0
H504 H 0.77366 0.8409 0.81272 0.0
H505 H 0.84644 0.82251 0.89474 0.0
H506 H 0.82637 0.85968 0.77194 0.0
H507 H 0.89882 0.84012 0.85355 0.0
H508 H 0.98311 0.92479 0.79291 0.0
H509 H 0.93236 0.8948 0.83089 0.0
H510 H 0.87463 0.8434 0.73616 0.0
H511 H 0.92586 0.87332 0.6979 0.0
C512 C 0.80082 0.84042 0.82183 0.0
C513 C 0.80587 0.83046 0.85705 0.0
C514 C 0.83096 0.85083 0.79834 0.0
C515 C 0.86682 0.85157 0.8096 0.0
C516 C 0.8716 0.8402 0.84424 0.0
C517 C 0.84148 0.82975 0.8677 0.0
C518 C 0.96012 0.90646 0.78016 0.0
C519 C 0.95858 0.90156 0.74229 0.0
C520 C 0.93092 0.88927 0.80199 0.0
C521 C 0.89938 0.8668 0.78653 0.0
C522 C 0.89835 0.86091 0.74881 0.0
C523 C 0.92767 0.87806 0.72692 0.0
H524 H 0.80264 0.17017 0.4174 0.0
H525 H 0.68806 0.15936 0.44536 0.0
H526 H 0.78613 0.16228 0.35361 0.0
H527 H 0.6719 0.15358 0.38135 0.0
H528 H 0.65 0.09841 0.27104 0.0
H529 H 0.66575 0.11221 0.33433 0.0
H530 H 0.76598 0.1856 0.30215 0.0
H531 H 0.75132 0.17026 0.23875 0.0
C532 C 0.77394 0.16633 0.40994 0.0
C533 C 0.74662 0.16492 0.43662 0.0
C534 C 0.76454 0.16231 0.37325 0.0
C535 C 0.72761 0.15708 0.36226 0.0
C536 C 0.70051 0.15698 0.38885 0.0
C537 C 0.70987 0.16074 0.42558 0.0
C538 C 0.67557 0.1173 0.27742 0.0
C539 C 0.69958 0.13293 0.24973 0.0
C540 C 0.68433 0.12562 0.31378 0.0
C541 C 0.7172 0.15001 0.32344 0.0
C542 C 0.7407 0.16636 0.29573 0.0
C543 C 0.73205 0.15786 0.25932 0.0
H544 H 0.44934 0.63362 0.29186 0.0
H545 H 0.50695 0.73084 0.33609 0.0
H546 H 0.46502 0.60731 0.34556 0.0
H547 H 0.5231 0.70459 0.39004 0.0
H548 H 0.5267 0.64605 0.49494 0.0
H549 H 0.50392 0.67305 0.44533 0.0
H550 H 0.51871 0.59588 0.37072 0.0
H551 H 0.54105 0.56901 0.41999 0.0
C552 C 0.46489 0.64948 0.31337 0.0
C553 C 0.47688 0.68444 0.30944 0.0
C554 C 0.47432 0.63433 0.34416 0.0
C555 C 0.496 0.65355 0.37234 0.0
C556 C 0.50633 0.68873 0.36924 0.0
C557 C 0.49701 0.7039 0.33825 0.0
C558 C 0.52492 0.63472 0.46799 0.0
C559 C 0.53583 0.60513 0.46182 0.0
C560 C 0.51199 0.65038 0.43934 0.0
C561 C 0.50914 0.6368 0.40359 0.0
C562 C 0.51976 0.60705 0.39769 0.0
C563 C 0.53292 0.59162 0.42615 0.0
H564 H 0.22956 0.44203 0.83744 0.0
H565 H 0.11559 0.38845 0.81584 0.0
H566 H 0.20997 0.47344 0.88642 0.0
H567 H 0.09614 0.41937 0.86658 0.0
H568 H 0.08118 0.46859 0.98244 0.0
H569 H 0.09979 0.43159 0.93689 0.0
H570 H 0.17633 0.51768 0.89046 0.0
H571 H 0.15738 0.55415 0.93511 0.0
C572 C 0.20018 0.43686 0.84272 0.0
C573 C 0.17435 0.41284 0.82123 0.0
C574 C 0.18893 0.45495 0.87138 0.0
C575 C 0.15133 0.44951 0.88063 0.0
C576 C 0.12539 0.42438 0.86055 0.0
C577 C 0.13665 0.40649 0.83128 0.0
C578 C 0.10254 0.47947 0.96301 0.0
C579 C 0.11823 0.51448 0.96309 0.0
C580 C 0.11288 0.45828 0.93645 0.0
C581 C 0.13977 0.47139 0.90967 0.0
C582 C 0.15588 0.50632 0.91057 0.0
C583 C 0.14501 0.52738 0.93639 0.0
H584 H 0.68527 0.86684 0.86672 0.0
H585 H 0.72213 0.87346 0.97784 0.0
H586 H 0.65682 0.9128 0.87928 0.0
H587 H 0.69439 0.91921 0.99008 0.0
H588 H 0.68156 1.02312 0.98853 0.0
H589 H 0.70936 0.98064 0.96413 0.0
H590 H 0.60254 0.92157 0.92595 0.0
H591 H 0.57421 0.96398 0.95075 0.0
C592 C 0.6871 0.87803 0.89375 0.0
C593 C 0.70555 0.86652 0.92142 0.0
C594 C 0.67091 0.90418 0.90088 0.0
C595 C 0.67386 0.91961 0.93549 0.0
C596 C 0.69214 0.90792 0.96306 0.0
C597 C 0.70764 0.88155 0.95616 0.0
C598 C 0.664 1.00152 0.97424 0.0
C599 C 0.62556 0.99669 0.97208 0.0
C600 C 0.67997 0.97717 0.96039 0.0
C601 C 0.65793 0.94777 0.94368 0.0
C602 C 0.62003 0.9441 0.93876 0.0
C603 C 0.60389 0.96833 0.95302 0.0
H604 H 0.84483 0.17545 0.57512 0.0
H605 H 0.79962 0.08983 0.50388 0.0
H606 H 0.89286 0.15042 0.59426 0.0
H607 H 0.84795 0.06496 0.52283 0.0
H608 H 0.96707 0.05547 0.53139 0.0
H609 H 0.91579 0.07752 0.5151 0.0
H610 H 0.90133 0.10217 0.62784 0.0
H611 H 0.9531 0.08034 0.64408 0.0
C612 C 0.84485 0.15108 0.56392 0.0
C613 C 0.81847 0.13463 0.53794 0.0
C614 C 0.87236 0.13677 0.57488 0.0
C615 C 0.87416 0.10578 0.55999 0.0
C616 C 0.84751 0.0891 0.53439 0.0
C617 C 0.8199 0.10335 0.52352 0.0
C618 C 0.95276 0.06541 0.5527 0.0
C619 C 0.96387 0.0662 0.58898 0.0
C620 C 0.92332 0.07787 0.5434 0.0
C621 C 0.90451 0.09147 0.57022 0.0
C622 C 0.91554 0.09207 0.60659 0.0
C623 C 0.94496 0.07946 0.61591 0.0
H624 H 0.36429 0.65126 0.18011 0.0
H625 H 0.32674 0.73979 0.1705 0.0
H626 H 0.3077 0.61773 0.15067 0.0
H627 H 0.2699 0.70643 0.14209 0.0
H628 H 0.18504 0.64639 0.06251 0.0
H629 H 0.24301 0.67804 0.09009 0.0
H630 H 0.24378 0.59292 0.15431 0.0
H631 H 0.18627 0.56076 0.12543 0.0
C632 C 0.34383 0.66359 0.17204 0.0
C633 C 0.35052 0.69845 0.1776 0.0
C634 C 0.3111 0.64426 0.15514 0.0
C635 C 0.2837 0.65904 0.14347 0.0
C636 C 0.29033 0.69388 0.1496 0.0
C637 C 0.32313 0.71319 0.16615 0.0
C638 C 0.19756 0.63424 0.08238 0.0
C639 C 0.18054 0.60083 0.09161 0.0
C640 C 0.23093 0.65264 0.09861 0.0
C641 C 0.24851 0.63854 0.12507 0.0
C642 C 0.23173 0.60487 0.1339 0.0
C643 C 0.19842 0.58632 0.11737 0.0
H644 H 0.37192 0.44019 0.74263 0.0
H645 H 0.29372 0.43702 0.65711 0.0
H646 H 0.42249 0.46872 0.70348 0.0
H647 H 0.34423 0.46711 0.61792 0.0
H648 H 0.44755 0.48665 0.54403 0.0
H649 H 0.39468 0.46247 0.58291 0.0
H650 H 0.45459 0.51707 0.6751 0.0
H651 H 0.508 0.53989 0.63621 0.0
C652 C 0.36544 0.44643 0.71563 0.0
C653 C 0.32854 0.43701 0.7035 0.0
C654 C 0.39458 0.46302 0.69302 0.0
C655 C 0.38799 0.47082 0.65721 0.0
C656 C 0.35087 0.46147 0.64506 0.0
C657 C 0.32164 0.44453 0.66774 0.0
C658 C 0.44935 0.49363 0.57259 0.0
C659 C 0.48224 0.5151 0.58695 0.0
C660 C 0.41877 0.47987 0.59503 0.0
C661 C 0.41988 0.48736 0.63261 0.0
C662 C 0.45253 0.50984 0.64663 0.0
C663 C 0.48324 0.52331 0.62422 0.0
H664 H 0.76488 0.70924 0.90644 0.0
H665 H 0.75471 0.72617 1.02139 0.0
H666 H 0.81838 0.68814 0.91708 0.0
H667 H 0.80902 0.70644 1.03227 0.0
H668 H 0.8932 0.64773 0.04313 0.0
H669 H 0.83476 0.66012 1.03143 0.0
H670 H 0.8812 0.7111 0.93419 0.0
H671 H 0.93866 0.69687 0.94461 0.0
C672 C 0.77382 0.70785 0.93403 0.0
C673 C 0.75547 0.7187 0.9632 0.0
C674 C 0.80471 0.69623 0.94016 0.0
C675 C 0.81822 0.69579 0.97554 0.0
C676 C 0.79912 0.7059 1.00474 0.0
C677 C 0.76807 0.71725 0.9986 0.0
C678 C 0.89078 0.66118 1.01898 0.0
C679 C 0.92075 0.67136 0.99487 0.0
C680 C 0.85736 0.6686 1.01248 0.0
C681 C 0.85317 0.68658 0.98183 0.0
C682 C 0.88316 0.69674 0.95775 0.0
C683 C 0.91643 0.6891 0.9641 0.0
H684 H 0.40422 0.81681 0.16524 0.0
H685 H 0.51087 0.807 0.19716 0.0
H686 H 0.4341 0.86997 0.13785 0.0
H687 H 0.54057 0.86126 0.17194 0.0
H688 H 0.59026 0.94305 0.09234 0.0
H689 H 0.5591 0.89005 0.11944 0.0
H690 H 0.46444 0.92695 0.14363 0.0
H691 H 0.49559 0.97986 0.1149 0.0
C692 C 0.43409 0.8258 0.16654 0.0
C693 C 0.45481 0.8067 0.18337 0.0
C694 C 0.45137 0.85693 0.15115 0.0
C695 C 0.49015 0.87056 0.15211 0.0
C696 C 0.5108 0.85181 0.16967 0.0
C697 C 0.49354 0.82056 0.18485 0.0
C698 C 0.56273 0.93991 0.10338 0.0
C699 C 0.54561 0.966 0.10141 0.0
C700 C 0.5448 0.90936 0.11939 0.0
C701 C 0.50901 0.90361 0.13447 0.0
C702 C 0.49171 0.92977 0.13218 0.0
C703 C 0.50966 0.9604 0.1158 0.0
H704 H 0.21639 0.2975 0.7349 0.0
H705 H 0.11064 0.3175 0.72307 0.0
H706 H 0.19214 0.2425 0.70549 0.0
H707 H 0.08606 0.26215 0.69323 0.0
H708 H 0.07144 0.17809 0.60214 0.0
H709 H 0.09215 0.2316 0.63575 0.0
H710 H 0.14998 0.18663 0.7111 0.0
H711 H 0.12925 0.13319 0.67759 0.0
C712 C 0.18768 0.28994 0.72647 0.0
C713 C 0.16552 0.31212 0.73173 0.0
C714 C 0.17365 0.25819 0.70954 0.0
C715 C 0.13698 0.24742 0.69658 0.0
C716 C 0.11451 0.26939 0.7024 0.0
C717 C 0.12846 0.30109 0.71997 0.0
C718 C 0.08855 0.17949 0.6259 0.0
C719 C 0.09863 0.15092 0.6368 0.0
C720 C 0.10026 0.21032 0.64545 0.0
C721 C 0.12292 0.21392 0.67644 0.0
C722 C 0.13295 0.1853 0.68731 0.0
C723 C 0.12087 0.15439 0.66803 0.0
H724 H 0.69851 0.24119 0.62169 0.0
H725 H 0.65131 0.19388 0.52102 0.0
H726 H 0.67476 0.28912 0.61 0.0
H727 H 0.62761 0.24185 0.50908 0.0
H728 H 0.56971 0.3269 0.51484 0.0
H729 H 0.58403 0.27537 0.53185 0.0
H730 H 0.69431 0.33273 0.56269 0.0
H731 H 0.68057 0.38387 0.54498 0.0
C732 C 0.68215 0.24075 0.59758 0.0
C733 C 0.67608 0.21378 0.57254 0.0
C734 C 0.66888 0.26819 0.59071 0.0
C735 C 0.64952 0.26919 0.55856 0.0
C736 C 0.64207 0.24152 0.53426 0.0
C737 C 0.65554 0.21413 0.54106 0.0
C738 C 0.59709 0.32846 0.52497 0.0
C739 C 0.62394 0.35955 0.52869 0.0
C740 C 0.60517 0.299 0.53487 0.0
C741 C 0.6401 0.30017 0.54896 0.0
C742 C 0.66687 0.33119 0.55266 0.0
C743 C 0.65895 0.3605 0.54251 0.0
loop_
_geom_bond_atom_site_label_1
_geom_bond_atom_site_label_2
_geom_bond_distance
_geom_bond_site_symmetry_2
_ccdc_geom_bond_type
H0 C7 0.929 . S
H1 C10 0.930 . S
H2 C12 0.929 . S
H3 C4 0.969 . S
C4 H3 0.969 . S
C4 O5 1.550 . S
C4 H6 0.973 . S
O5 C4 1.550 . S
O5 C11 1.412 . S
H6 C4 0.973 . S
C7 H0 0.929 . S
C7 C8 1.400 . S
C7 C9 1.364 . S
C8 C7 1.400 . S
C8 C12 1.377 . S
C9 C7 1.364 . S
C9 C10 1.374 . S
C10 H1 0.930 . S
C10 C9 1.374 . S
C10 C11 1.383 . S
C11 O5 1.412 . S
C11 C10 1.383 . S
C11 C12 1.394 . S
C12 H2 0.929 . S
C12 C8 1.377 . S
C12 C11 1.394 . S
H13 C20 0.929 . S
H14 C23 0.930 . S
H15 C25 0.929 . S
H16 C17 0.969 . S
C17 H16 0.969 . S
C17 O18 1.550 . S
C17 H19 0.973 . S
O18 C17 1.550 . S
O18 C24 1.412 . S
H19 C17 0.973 . S
C20 H13 0.929 . S
C20 C21 1.400 . S
C20 C22 1.364 . S
C21 C20 1.400 . S
C21 C25 1.377 . S
C22 C20 1.364 . S
C22 C23 1.374 . S
C23 H14 0.930 . S
C23 C22 1.374 . S
C23 C24 1.383 . S
C24 O18 1.412 . S
C24 C23 1.383 . S
C24 C25 1.394 . S
C25 H15 0.929 . S
C25 C21 1.377 . S
C25 C24 1.394 . S
H26 C33 0.929 . S
H27 C36 0.930 . S
H28 C38 0.929 . S
H29 C30 0.969 . S
C30 H29 0.969 . S
C30 O31 1.550 . S
C30 H32 0.973 . S
O31 C30 1.550 . S
O31 C37 1.412 . S
H32 C30 0.973 . S
C33 H26 0.929 . S
C33 C34 1.400 . S
C33 C35 1.364 . S
C34 C33 1.400 . S
C34 C38 1.377 . S
C35 C33 1.364 . S
C35 C36 1.374 . S
C36 H27 0.930 . S
C36 C35 1.374 . S
C36 C37 1.383 . S
C37 O31 1.412 . S
C37 C36 1.383 . S
C37 C38 1.394 . S
C38 H28 0.929 . S
C38 C34 1.377 . S
C38 C37 1.394 . S
H39 C46 0.929 . S
H40 C49 0.930 . S
H41 C51 0.929 . S
H42 C43 0.969 . S
C43 H42 0.969 . S
C43 O44 1.550 . S
C43 H45 0.973 . S
O44 C43 1.550 . S
O44 C50 1.412 . S
H45 C43 0.973 . S
C46 H39 0.929 . S
C46 C47 1.400 . S
C46 C48 1.364 . S
C47 C46 1.400 . S
C47 C51 1.377 . S
C48 C46 1.364 . S
C48 C49 1.374 . S
C49 H40 0.930 . S
C49 C48 1.374 . S
C49 C50 1.383 . S
C50 O44 1.412 . S
C50 C49 1.383 . S
C50 C51 1.394 . S
C51 H41 0.929 . S
C51 C47 1.377 . S
C51 C50 1.394 . S
H52 C59 0.929 . S
H53 C62 0.930 . S
H54 C64 0.929 . S
H55 C56 0.969 . S
C56 H55 0.969 . S
C56 O57 1.550 . S
C56 H58 0.973 . S
O57 C56 1.550 . S
O57 C63 1.412 . S
H58 C56 0.973 . S
C59 H52 0.929 . S
C59 C60 1.400 . S
C59 C61 1.364 . S
C60 C59 1.400 . S
C60 C64 1.377 . S
C61 C59 1.364 . S
C61 C62 1.374 . S
C62 H53 0.930 . S
C62 C61 1.374 . S
C62 C63 1.383 . S
C63 O57 1.412 . S
C63 C62 1.383 . S
C63 C64 1.394 . S
C64 H54 0.929 . S
C64 C60 1.377 . S
C64 C63 1.394 . S
H65 C72 0.929 . S
H66 C75 0.930 . S
H67 C77 0.929 . S
H68 C69 0.969 . S
C69 H68 0.969 . S
C69 O70 1.550 . S
C69 H71 0.973 . S
O70 C69 1.550 . S
O70 C76 1.412 . S
H71 C69 0.973 . S
C72 H65 0.929 . S
C72 C73 1.400 . S
C72 C74 1.364 . S
C73 C72 1.400 . S
C73 C77 1.377 . S
C74 C72 1.364 . S
C74 C75 1.374 . S
C75 H66 0.930 . S
C75 C74 1.374 . S
C75 C76 1.383 . S
C76 O70 1.412 . S
C76 C75 1.383 . S
C76 C77 1.394 . S
C77 H67 0.929 . S
C77 C73 1.377 . S
C77 C76 1.394 . S
H78 C85 0.929 . S
H79 C88 0.930 . S
H80 C90 0.929 . S
H81 C82 0.969 . S
C82 H81 0.969 . S
C82 O83 1.550 . S
C82 H84 0.973 . S
O83 C82 1.550 . S
O83 C89 1.412 . S
H84 C82 0.973 . S
C85 H78 0.929 . S
C85 C86 1.400 . S
C85 C87 1.364 . S
C86 C85 1.400 . S
C86 C90 1.377 . S
C87 C85 1.364 . S
C87 C88 1.374 . S
C88 H79 0.930 . S
C88 C87 1.374 . S
C88 C89 1.383 . S
C89 O83 1.412 . S
C89 C88 1.383 . S
C89 C90 1.394 . S
C90 H80 0.929 . S
C90 C86 1.377 . S
C90 C89 1.394 . S
H91 C98 0.929 . S
H92 C101 0.930 . S
H93 C103 0.929 . S
H94 C95 0.969 . S
C95 H94 0.969 . S
C95 O96 1.550 . S
C95 H97 0.973 . S
O96 C95 1.550 . S
O96 C102 1.412 . S
H97 C95 0.973 . S
C98 H91 0.929 . S
C98 C99 1.400 . S
C98 C100 1.364 . S
C99 C98 1.400 . S
C99 C103 1.377 . S
C100 C98 1.364 . S
C100 C101 1.374 . S
C101 H92 0.930 . S
C101 C100 1.374 . S
C101 C102 1.383 . S
C102 O96 1.412 . S
C102 C101 1.383 . S
C102 C103 1.394 . S
C103 H93 0.929 . S
C103 C99 1.377 . S
C103 C102 1.394 . S
Ho104 C107 2.811 . S
Ho104 O124 2.322 . S
Ho104 O126 2.378 . S
Ho104 O127 2.524 . S
Ho104 O128 2.381 . S
Ho104 O129 2.662 1_545 S
Ho104 O131 2.346 1_545 S
Ho104 O135 2.305 . S
Ho105 C116 2.811 1_545 S
Ho105 O125 2.346 1_655 S
Ho105 O129 2.297 1_645 S
Ho105 O130 2.322 1_545 S
Ho105 O132 2.378 1_545 S
Ho105 O133 2.524 1_545 S
Ho105 O134 2.381 . S
Ho105 O135 2.669 1_655 S
C106 O124 1.259 . S
C106 O125 1.268 . S
C107 Ho104 2.811 . S
C107 C108 1.488 . S
C107 O126 1.215 . S
C107 O127 1.289 . S
C108 C107 1.488 . S
C108 C109 1.348 . S
C108 C113 1.413 . S
C109 C108 1.348 . S
C109 C110 1.442 . S
C109 H136 0.930 . S
C110 C109 1.442 . S
C110 C111 1.381 . S
C110 H137 0.931 . S
C111 C110 1.381 . S
C111 C112 1.321 . S
C112 C111 1.321 . S
C112 C113 1.403 . S
C112 H138 0.934 . S
C113 C108 1.413 . S
C113 C112 1.403 . S
C113 H139 0.930 . S
C114 O128 1.275 1_565 S
C114 O129 1.263 . S
C115 O130 1.259 . S
C115 O131 1.268 1_655 S
C116 Ho105 2.811 1_565 S
C116 C117 1.488 . S
C116 O132 1.215 . S
C116 O133 1.289 . S
C117 C116 1.488 . S
C117 C118 1.348 . S
C117 C122 1.413 . S
C118 C117 1.348 . S
C118 C119 1.442 . S
C118 H140 0.930 . S
C119 C118 1.442 . S
C119 C120 1.381 . S
C119 H141 0.931 . S
C120 C119 1.381 . S
C120 C121 1.321 . S
C121 C120 1.321 . S
C121 C122 1.403 . S
C121 H142 0.934 . S
C122 C117 1.413 . S
C122 C121 1.403 . S
C122 H143 0.930 . S
C123 O134 1.275 . S
C123 O135 1.256 1_655 S
O124 Ho104 2.322 . S
O124 C106 1.259 . S
O125 Ho105 2.346 1_455 S
O125 C106 1.268 . S
O126 Ho104 2.378 . S
O126 C107 1.215 . S
O127 Ho104 2.524 . S
O127 C107 1.289 . S
O128 Ho104 2.381 . S
O128 C114 1.275 1_545 S
O129 Ho104 2.662 1_565 S
O129 Ho105 2.297 1_465 S
O129 C114 1.263 . S
O130 Ho105 2.322 1_565 S
O130 C115 1.259 . S
O131 Ho104 2.346 1_565 S
O131 C115 1.268 1_455 S
O132 Ho105 2.378 1_565 S
O132 C116 1.215 . S
O133 Ho105 2.524 1_565 S
O133 C116 1.289 . S
O134 Ho105 2.381 . S
O134 C123 1.275 . S
O135 Ho104 2.305 . S
O135 Ho105 2.669 1_455 S
O135 C123 1.256 1_455 S
H136 C109 0.930 . S
H137 C110 0.931 . S
H138 C112 0.934 . S
H139 C113 0.930 . S
H140 C118 0.930 . S
H141 C119 0.931 . S
H142 C121 0.934 . S
H143 C122 0.930 . S
Ho144 C147 2.811 . S
Ho144 O164 2.322 . S
Ho144 O166 2.378 . S
Ho144 O167 2.524 . S
Ho144 O168 2.381 1_545 S
Ho144 O169 2.669 1_545 S
Ho144 O171 2.346 1_544 S
Ho144 O175 2.311 . S
Ho145 C156 2.811 1_545 S
Ho145 O165 2.346 1_556 S
Ho145 O169 2.305 1_546 S
Ho145 O170 2.322 1_545 S
Ho145 O172 2.378 1_545 S
Ho145 O173 2.524 1_545 S
Ho145 O174 2.381 . S
Ho145 O175 2.666 1_556 S
C146 O164 1.259 . S
C146 O165 1.268 . S
C147 Ho144 2.811 . S
C147 C148 1.488 . S
C147 O166 1.215 . S
C147 O167 1.289 . S
C148 C147 1.488 . S
C148 C149 1.348 . S
C148 C153 1.413 . S
C149 C148 1.348 . S
C149 C150 1.442 . S
C149 H176 0.930 . S
C150 C149 1.442 . S
C150 C151 1.381 . S
C150 H177 0.931 . S
C151 C150 1.381 . S
C151 C152 1.321 . S
C152 C151 1.321 . S
C152 C153 1.403 . S
C152 H178 0.934 . S
C153 C148 1.413 . S
C153 C152 1.403 . S
C153 H179 0.930 . S
C154 O168 1.275 . S
C154 O169 1.256 . S
C155 O170 1.259 . S
C155 O171 1.268 . S
C156 Ho145 2.811 1_565 S
C156 C157 1.488 . S
C156 O172 1.215 . S
C156 O173 1.289 . S
C157 C156 1.488 . S
C157 C158 1.348 . S
C157 C162 1.413 . S
C158 C157 1.348 . S
C158 C159 1.442 . S
C158 H180 0.930 . S
C159 C158 1.442 . S
C159 C160 1.381 . S
C159 H181 0.931 . S
C160 C159 1.381 . S
C160 C161 1.321 . S
C161 C160 1.321 . S
C161 C162 1.403 . S
C161 H182 0.934 . S
C162 C157 1.413 . S
C162 C161 1.403 . S
C162 H183 0.930 . S
C163 O174 1.275 . S
C163 O175 1.249 1_556 S
O164 Ho144 2.322 . S
O164 C146 1.259 . S
O165 Ho145 2.346 1_554 S
O165 C146 1.268 . S
O166 Ho144 2.378 . S
O166 C147 1.215 . S
O167 Ho144 2.524 . S
O167 C147 1.289 . S
O168 Ho144 2.381 1_565 S
O168 C154 1.275 . S
O169 Ho144 2.669 1_565 S
O169 Ho145 2.305 1_564 S
O169 C154 1.256 . S
O170 Ho145 2.322 1_565 S
O170 C155 1.259 . S
O171 Ho144 2.346 1_566 S
O171 C155 1.268 . S
O172 Ho145 2.378 1_565 S
O172 C156 1.215 . S
O173 Ho145 2.524 1_565 S
O173 C156 1.289 . S
O174 Ho145 2.381 . S
O174 C163 1.275 . S
O175 Ho144 2.311 . S
O175 Ho145 2.666 1_554 S
O175 C163 1.249 1_554 S
H176 C149 0.930 . S
H177 C150 0.931 . S
H178 C152 0.934 . S
H179 C153 0.930 . S
H180 C158 0.930 . S
H181 C159 0.931 . S
H182 C161 0.934 . S
H183 C162 0.930 . S
Ho184 C187 2.811 . S
Ho184 O204 2.322 . S
Ho184 O206 2.378 . S
Ho184 O207 2.524 . S
Ho184 O208 2.381 . S
Ho184 O209 2.669 . S
Ho184 O211 2.346 . S
Ho184 O215 2.305 . S
Ho185 C196 2.811 . S
Ho185 O205 2.346 . S
Ho185 O209 2.305 . S
Ho185 O210 2.322 . S
Ho185 O212 2.378 . S
Ho185 O213 2.524 . S
Ho185 O214 2.381 . S
Ho185 O215 2.669 . S
C186 O204 1.259 . S
C186 O205 1.268 . S
C187 Ho184 2.811 . S
C187 C188 1.488 . S
C187 O206 1.215 . S
C187 O207 1.289 . S
C188 C187 1.488 . S
C188 C189 1.348 . S
C188 C193 1.413 . S
C189 C188 1.348 . S
C189 C190 1.442 . S
C189 H216 0.930 . S
C190 C189 1.442 . S
C190 C191 1.381 . S
C190 H217 0.931 . S
C191 C190 1.381 . S
C191 C192 1.321 . S
C192 C191 1.321 . S
C192 C193 1.403 . S
C192 H218 0.934 . S
C193 C188 1.413 . S
C193 C192 1.403 . S
C193 H219 0.930 . S
C194 O208 1.275 . S
C194 O209 1.256 . S
C195 O210 1.259 . S
C195 O211 1.268 . S
C196 Ho185 2.811 . S
C196 C197 1.488 . S
C196 O212 1.215 . S
C196 O213 1.289 . S
C197 C196 1.488 . S
C197 C198 1.348 . S
C197 C202 1.413 . S
C198 C197 1.348 . S
C198 C199 1.442 . S
C198 H220 0.930 . S
C199 C198 1.442 . S
C199 C200 1.381 . S
C199 H221 0.931 . S
C200 C199 1.381 . S
C200 C201 1.321 . S
C201 C200 1.321 . S
C201 C202 1.403 . S
C201 H222 0.934 . S
C202 C197 1.413 . S
C202 C201 1.403 . S
C202 H223 0.930 . S
C203 O214 1.275 . S
C203 O215 1.256 . S
O204 Ho184 2.322 . S
O204 C186 1.259 . S
O205 Ho185 2.346 . S
O205 C186 1.268 . S
O206 Ho184 2.378 . S
O206 C187 1.215 . S
O207 Ho184 2.524 . S
O207 C187 1.289 . S
O208 Ho184 2.381 . S
O208 C194 1.275 . S
O209 Ho184 2.669 . S
O209 Ho185 2.305 . S
O209 C194 1.256 . S
O210 Ho185 2.322 . S
O210 C195 1.259 . S
O211 Ho184 2.346 . S
O211 C195 1.268 . S
O212 Ho185 2.378 . S
O212 C196 1.215 . S
O213 Ho185 2.524 . S
O213 C196 1.289 . S
O214 Ho185 2.381 . S
O214 C203 1.275 . S
O215 Ho184 2.305 . S
O215 Ho185 2.669 . S
O215 C203 1.256 . S
H216 C189 0.930 . S
H217 C190 0.931 . S
H218 C192 0.934 . S
H219 C193 0.930 . S
H220 C198 0.930 . S
H221 C199 0.931 . S
H222 C201 0.934 . S
H223 C202 0.930 . S
Ho224 C227 2.811 . S
Ho224 O244 2.322 . S
Ho224 O246 2.378 . S
Ho224 O247 2.524 . S
Ho224 O248 2.381 . S
Ho224 O249 2.669 . S
Ho224 O251 2.346 1_455 S
Ho224 O255 2.305 . S
Ho225 C236 2.811 1_454 S
Ho225 O245 2.346 . S
Ho225 O249 2.305 . S
Ho225 O250 2.322 1_454 S
Ho225 O252 2.378 1_554 S
Ho225 O253 2.524 1_455 S
Ho225 O254 2.381 1_554 S
Ho225 O255 2.669 . S
C226 O244 1.259 . S
C226 O245 1.268 . S
C227 Ho224 2.811 . S
C227 C228 1.488 . S
C227 O246 1.215 . S
C227 O247 1.289 . S
C228 C227 1.488 . S
C228 C229 1.348 . S
C228 C233 1.413 . S
C229 C228 1.348 . S
C229 C230 1.442 . S
C229 H256 0.930 . S
C230 C229 1.442 . S
C230 C231 1.381 . S
C230 H257 0.931 . S
C231 C230 1.381 . S
C231 C232 1.321 . S
C232 C231 1.321 . S
C232 C233 1.403 . S
C232 H258 0.934 . S
C233 C228 1.413 . S
C233 C232 1.403 . S
C233 H259 0.930 . S
C234 O248 1.275 . S
C234 O249 1.256 . S
C235 O250 1.259 1_554 S
C235 O251 1.268 . S
C236 Ho225 2.811 1_656 S
C236 C237 1.488 . S
C236 O252 1.215 1_655 S
C236 O253 1.289 1_556 S
C237 C236 1.488 . S
C237 C238 1.348 . S
C237 C242 1.413 . S
C238 C237 1.348 . S
C238 C239 1.442 . S
C238 H260 0.930 1_556 S
C239 C238 1.442 . S
C239 C240 1.381 . S
C239 H261 0.931 . S
C240 C239 1.381 . S
C240 C241 1.321 . S
C241 C240 1.321 . S
C241 C242 1.403 . S
C241 H262 0.934 . S
C242 C237 1.413 . S
C242 C241 1.403 . S
C242 H263 0.930 . S
C243 O254 1.275 . S
C243 O255 1.256 1_556 S
O244 Ho224 2.322 . S
O244 C226 1.259 . S
O245 Ho225 2.346 . S
O245 C226 1.268 . S
O246 Ho224 2.378 . S
O246 C227 1.215 . S
O247 Ho224 2.524 . S
O247 C227 1.289 . S
O248 Ho224 2.381 . S
O248 C234 1.275 . S
O249 Ho224 2.669 . S
O249 Ho225 2.305 . S
O249 C234 1.256 . S
O250 Ho225 2.322 1_656 S
O250 C235 1.259 1_556 S
O251 Ho224 2.346 1_655 S
O251 C235 1.268 . S
O252 Ho225 2.378 1_556 S
O252 C236 1.215 1_455 S
O253 Ho225 2.524 1_655 S
O253 C236 1.289 1_554 S
O254 Ho225 2.381 1_556 S
O254 C243 1.275 . S
O255 Ho224 2.305 . S
O255 Ho225 2.669 . S
O255 C243 1.256 1_554 S
H256 C229 0.930 . S
H257 C230 0.931 . S
H258 C232 0.934 . S
H259 C233 0.930 . S
H260 C238 0.930 1_554 S
H261 C239 0.931 . S
H262 C241 0.934 . S
H263 C242 0.930 . S
H264 C272 0.950 . S
H265 C277 0.950 . S
H266 C274 0.950 . S
H267 C276 0.950 . S
H268 C278 0.950 . S
H269 C280 0.950 . S
H270 C282 0.950 . S
H271 C283 0.950 . S
C272 H264 0.950 . S
C272 C273 1.386 . S
C272 C274 1.391 . S
C273 C272 1.386 . S
C273 C277 1.393 . S
C274 H266 0.950 . S
C274 C272 1.391 . S
C274 C275 1.400 . S
C275 C274 1.400 . S
C275 C276 1.398 . S
C275 C281 1.491 . S
C276 H267 0.950 . S
C276 C275 1.398 . S
C276 C277 1.391 . S
C277 H265 0.950 . S
C277 C273 1.393 . S
C277 C276 1.391 . S
C278 H268 0.950 . S
C278 C279 1.386 . S
C278 C280 1.391 . S
C279 C278 1.386 . S
C279 C283 1.393 . S
C280 H269 0.950 . S
C280 C278 1.391 . S
C280 C281 1.400 . S
C281 C275 1.491 . S
C281 C280 1.400 . S
C281 C282 1.398 . S
C282 H270 0.950 . S
C282 C281 1.398 . S
C282 C283 1.391 . S
C283 H271 0.950 . S
C283 C279 1.393 . S
C283 C282 1.391 . S
H284 C292 0.950 . S
H285 C297 0.950 . S
H286 C294 0.950 . S
H287 C296 0.950 . S
H288 C298 0.950 . S
H289 C300 0.950 . S
H290 C302 0.950 . S
H291 C303 0.950 . S
C292 H284 0.950 . S
C292 C293 1.386 . S
C292 C294 1.391 . S
C293 C292 1.386 . S
C293 C297 1.393 . S
C294 H286 0.950 . S
C294 C292 1.391 . S
C294 C295 1.400 . S
C295 C294 1.400 . S
C295 C296 1.398 . S
C295 C301 1.491 . S
C296 H287 0.950 . S
C296 C295 1.398 . S
C296 C297 1.391 . S
C297 H285 0.950 . S
C297 C293 1.393 . S
C297 C296 1.391 . S
C298 H288 0.950 . S
C298 C299 1.386 . S
C298 C300 1.391 . S
C299 C298 1.386 . S
C299 C303 1.393 . S
C300 H289 0.950 . S
C300 C298 1.391 . S
C300 C301 1.400 . S
C301 C295 1.491 . S
C301 C300 1.400 . S
C301 C302 1.398 . S
C302 H290 0.950 . S
C302 C301 1.398 . S
C302 C303 1.391 . S
C303 H291 0.950 . S
C303 C299 1.393 . S
C303 C302 1.391 . S
H304 C312 0.950 . S
H305 C317 0.950 . S
H306 C314 0.950 . S
H307 C316 0.950 . S
H308 C318 0.950 . S
H309 C320 0.950 . S
H310 C322 0.950 . S
H311 C323 0.950 . S
C312 H304 0.950 . S
C312 C313 1.386 . S
C312 C314 1.391 . S
C313 C312 1.386 . S
C313 C317 1.393 . S
C314 H306 0.950 . S
C314 C312 1.391 . S
C314 C315 1.400 . S
C315 C314 1.400 . S
C315 C316 1.398 . S
C315 C321 1.491 . S
C316 H307 0.950 . S
C316 C315 1.398 . S
C316 C317 1.391 . S
C317 H305 0.950 . S
C317 C313 1.393 . S
C317 C316 1.391 . S
C318 H308 0.950 . S
C318 C319 1.386 . S
C318 C320 1.391 . S
C319 C318 1.386 . S
C319 C323 1.393 . S
C320 H309 0.950 . S
C320 C318 1.391 . S
C320 C321 1.400 . S
C321 C315 1.491 . S
C321 C320 1.400 . S
C321 C322 1.398 . S
C322 H310 0.950 . S
C322 C321 1.398 . S
C322 C323 1.391 . S
C323 H311 0.950 . S
C323 C319 1.393 . S
C323 C322 1.391 . S
H324 C332 0.950 . S
H325 C337 0.950 . S
H326 C334 0.924 1_455 S
H327 C336 0.950 . S
H328 C338 0.950 . S
H329 C340 0.950 . S
H330 C342 0.950 1_455 S
H331 C343 0.950 . S
C332 H324 0.950 . S
C332 C333 1.386 . S
C332 C334 1.391 . S
C333 C332 1.386 . S
C333 C337 1.393 . S
C334 H326 0.924 1_655 S
C334 C332 1.391 . S
C334 C335 1.400 . S
C335 C334 1.400 . S
C335 C336 1.398 . S
C335 C341 1.491 . S
C336 H327 0.950 . S
C336 C335 1.398 . S
C336 C337 1.391 . S
C337 H325 0.950 . S
C337 C333 1.393 . S
C337 C336 1.391 . S
C338 H328 0.950 . S
C338 C339 1.386 . S
C338 C340 1.391 . S
C339 C338 1.386 . S
C339 C343 1.393 1_655 S
C340 H329 0.950 . S
C340 C338 1.391 . S
C340 C341 1.400 . S
C341 C335 1.491 . S
C341 C340 1.400 . S
C341 C342 1.398 . S
C342 H330 0.950 1_655 S
C342 C341 1.398 . S
C342 C343 1.391 1_655 S
C343 H331 0.950 . S
C343 C339 1.393 1_455 S
C343 C342 1.391 1_455 S
H344 C352 0.950 . S
H345 C357 0.950 . S
H346 C354 0.950 . S
H347 C356 0.950 . S
H348 C358 0.950 . S
H349 C360 0.950 . S
H350 C362 0.950 . S
H351 C363 0.950 . S
C352 H344 0.950 . S
C352 C353 1.386 . S
C352 C354 1.391 . S
C353 C352 1.386 . S
C353 C357 1.393 . S
C354 H346 0.950 . S
C354 C352 1.391 . S
C354 C355 1.400 . S
C355 C354 1.400 . S
C355 C356 1.398 . S
C355 C361 1.491 . S
C356 H347 0.950 . S
C356 C355 1.398 . S
C356 C357 1.391 . S
C357 H345 0.950 . S
C357 C353 1.393 . S
C357 C356 1.391 . S
C358 H348 0.950 . S
C358 C359 1.386 . S
C358 C360 1.391 . S
C359 C358 1.386 . S
C359 C363 1.393 . S
C360 H349 0.950 . S
C360 C358 1.391 . S
C360 C361 1.400 . S
C361 C355 1.491 . S
C361 C360 1.400 . S
C361 C362 1.398 . S
C362 H350 0.950 . S
C362 C361 1.398 . S
C362 C363 1.391 . S
C363 H351 0.950 . S
C363 C359 1.393 . S
C363 C362 1.391 . S
H364 C372 0.950 . S
H365 C377 0.950 . S
H366 C374 0.950 . S
H367 C376 0.950 . S
H368 C378 0.950 . S
H369 C380 0.950 . S
H370 C382 0.950 . S
H371 C383 0.950 . S
C372 H364 0.950 . S
C372 C373 1.386 . S
C372 C374 1.391 . S
C373 C372 1.386 . S
C373 C377 1.393 . S
C374 H366 0.950 . S
C374 C372 1.391 . S
C374 C375 1.400 . S
C375 C374 1.400 . S
C375 C376 1.398 . S
C375 C381 1.491 . S
C376 H367 0.950 . S
C376 C375 1.398 . S
C376 C377 1.391 . S
C377 H365 0.950 . S
C377 C373 1.393 . S
C377 C376 1.391 . S
C378 H368 0.950 . S
C378 C379 1.386 . S
C378 C380 1.391 . S
C379 C378 1.386 . S
C379 C383 1.393 . S
C380 H369 0.950 . S
C380 C378 1.391 . S
C380 C381 1.400 . S
C381 C375 1.491 . S
C381 C380 1.400 . S
C381 C382 1.398 . S
C382 H370 0.950 . S
C382 C381 1.398 . S
C382 C383 1.391 . S
C383 H371 0.950 . S
C383 C379 1.393 . S
C383 C382 1.391 . S
H384 C392 0.950 . S
H385 C397 0.950 . S
H386 C394 0.950 . S
H387 C396 0.950 . S
H388 C398 0.950 . S
H389 C400 0.950 . S
H390 C402 0.950 . S
H391 C403 0.950 . S
C392 H384 0.950 . S
C392 C393 1.386 . S
C392 C394 1.391 . S
C393 C392 1.386 . S
C393 C397 1.393 . S
C394 H386 0.950 . S
C394 C392 1.391 . S
C394 C395 1.400 . S
C395 C394 1.400 . S
C395 C396 1.398 . S
C395 C401 1.491 . S
C396 H387 0.950 . S
C396 C395 1.398 . S
C396 C397 1.391 . S
C397 H385 0.950 . S
C397 C393 1.393 . S
C397 C396 1.391 . S
C398 H388 0.950 . S
C398 C399 1.386 . S
C398 C400 1.391 . S
C399 C398 1.386 . S
C399 C403 1.393 1_556 S
C400 H389 0.950 . S
C400 C398 1.391 . S
C400 C401 1.400 . S
C401 C395 1.491 . S
C401 C400 1.400 . S
C401 C402 1.398 . S
C402 H390 0.950 . S
C402 C401 1.398 . S
C402 C403 1.391 1_556 S
C403 H391 0.950 . S
C403 C399 1.393 1_554 S
C403 C402 1.391 1_554 S
H404 C412 0.950 . S
H405 C417 0.950 . S
H406 C414 0.950 . S
H407 C416 0.950 . S
H408 C418 0.950 . S
H409 C420 0.950 . S
H410 C422 0.950 . S
H411 C423 0.950 . S
C412 H404 0.950 . S
C412 C413 1.386 . S
C412 C414 1.391 . S
C413 C412 1.386 . S
C413 C417 1.393 . S
C414 H406 0.950 . S
C414 C412 1.391 . S
C414 C415 1.400 . S
C415 C414 1.400 . S
C415 C416 1.398 . S
C415 C421 1.491 . S
C416 H407 0.950 . S
C416 C415 1.398 . S
C416 C417 1.391 . S
C417 H405 0.950 . S
C417 C413 1.393 . S
C417 C416 1.391 . S
C418 H408 0.950 . S
C418 C419 1.386 . S
C418 C420 1.391 . S
C419 C418 1.386 . S
C419 C423 1.393 . S
C420 H409 0.950 . S
C420 C418 1.391 . S
C420 C421 1.400 . S
C421 C415 1.491 . S
C421 C420 1.400 . S
C421 C422 1.398 . S
C422 H410 0.950 . S
C422 C421 1.398 . S
C422 C423 1.391 . S
C423 H411 0.950 . S
C423 C419 1.393 . S
C423 C422 1.391 . S
H424 C432 0.950 . S
H425 C437 0.950 . S
H426 C434 0.950 . S
H427 C436 0.950 . S
H428 C438 0.950 . S
H429 C440 0.950 . S
H430 C442 0.950 . S
H431 C443 0.950 . S
C432 H424 0.950 . S
C432 C433 1.386 . S
C432 C434 1.391 . S
C433 C432 1.386 . S
C433 C437 1.393 . S
C434 H426 0.950 . S
C434 C432 1.391 . S
C434 C435 1.400 . S
C435 C434 1.400 . S
C435 C436 1.398 . S
C435 C441 1.491 . S
C436 H427 0.950 . S
C436 C435 1.398 . S
C436 C437 1.391 . S
C437 H425 0.950 . S
C437 C433 1.393 . S
C437 C436 1.391 . S
C438 H428 0.950 . S
C438 C439 1.386 . S
C438 C440 1.391 . S
C439 C438 1.386 . S
C439 C443 1.393 . S
C440 H429 0.950 . S
C440 C438 1.391 . S
C440 C441 1.400 . S
C441 C435 1.491 . S
C441 C440 1.400 . S
C441 C442 1.398 . S
C442 H430 0.950 . S
C442 C441 1.398 . S
C442 C443 1.391 . S
C443 H431 0.950 . S
C443 C439 1.393 . S
C443 C442 1.391 . S
H444 C452 0.950 . S
H445 C457 0.950 . S
H446 C454 0.950 . S
H447 C456 0.950 . S
H448 C458 0.950 . S
H449 C460 0.950 . S
H450 C462 0.950 . S
H451 C463 0.950 . S
C452 H444 0.950 . S
C452 C453 1.386 . S
C452 C454 1.391 . S
C453 C452 1.386 . S
C453 C457 1.393 . S
C454 H446 0.950 . S
C454 C452 1.391 . S
C454 C455 1.400 . S
C455 C454 1.400 . S
C455 C456 1.398 . S
C455 C461 1.491 . S
C456 H447 0.950 . S
C456 C455 1.398 . S
C456 C457 1.391 . S
C457 H445 0.950 . S
C457 C453 1.393 . S
C457 C456 1.391 . S
C458 H448 0.950 . S
C458 C459 1.386 . S
C458 C460 1.391 . S
C459 C458 1.386 . S
C459 C463 1.393 . S
C460 H449 0.950 . S
C460 C458 1.391 . S
C460 C461 1.400 . S
C461 C455 1.491 . S
C461 C460 1.400 . S
C461 C462 1.398 . S
C462 H450 0.950 . S
C462 C461 1.398 . S
C462 C463 1.391 . S
C463 H451 0.950 . S
C463 C459 1.393 . S
C463 C462 1.391 . S
H464 C472 0.950 . S
H465 C477 0.950 . S
H466 C474 0.950 . S
H467 C476 0.950 . S
H468 C478 0.950 . S
H469 C480 0.950 . S
H470 C482 0.931 1_455 S
H471 C483 0.950 1_455 S
C472 H464 0.950 . S
C472 C473 1.386 . S
C472 C474 1.391 . S
C473 C472 1.386 . S
C473 C477 1.393 . S
C474 H466 0.950 . S
C474 C472 1.391 . S
C474 C475 1.400 . S
C475 C474 1.400 . S
C475 C476 1.398 . S
C475 C481 1.491 . S
C476 H467 0.950 . S
C476 C475 1.398 . S
C476 C477 1.391 . S
C477 H465 0.950 . S
C477 C473 1.393 . S
C477 C476 1.391 . S
C478 H468 0.950 . S
C478 C479 1.386 . S
C478 C480 1.391 . S
C479 C478 1.386 . S
C479 C483 1.393 . S
C480 H469 0.950 . S
C480 C478 1.391 . S
C480 C481 1.400 . S
C481 C475 1.491 . S
C481 C480 1.400 . S
C481 C482 1.398 . S
C482 H470 0.931 1_655 S
C482 C481 1.398 . S
C482 C483 1.391 . S
C483 H471 0.950 1_655 S
C483 C479 1.393 . S
C483 C482 1.391 . S
H484 C492 0.950 . S
H485 C497 0.950 . S
H486 C494 0.950 . S
H487 C496 0.950 . S
H488 C498 0.950 . S
H489 C500 0.950 . S
H490 C502 0.950 . S
H491 C503 0.950 . S
C492 H484 0.950 . S
C492 C493 1.386 . S
C492 C494 1.391 . S
C493 C492 1.386 . S
C493 C497 1.393 . S
C494 H486 0.950 . S
C494 C492 1.391 . S
C494 C495 1.400 . S
C495 C494 1.400 . S
C495 C496 1.398 . S
C495 C501 1.491 . S
C496 H487 0.950 . S
C496 C495 1.398 . S
C496 C497 1.391 . S
C497 H485 0.950 . S
C497 C493 1.393 . S
C497 C496 1.391 . S
C498 H488 0.950 . S
C498 C499 1.386 . S
C498 C500 1.391 . S
C499 C498 1.386 . S
C499 C503 1.393 . S
C500 H489 0.950 . S
C500 C498 1.391 . S
C500 C501 1.400 . S
C501 C495 1.491 . S
C501 C500 1.400 . S
C501 C502 1.398 . S
C502 H490 0.950 . S
C502 C501 1.398 . S
C502 C503 1.391 . S
C503 H491 0.950 . S
C503 C499 1.393 . S
C503 C502 1.391 . S
H504 C512 0.950 . S
H505 C517 0.950 . S
H506 C514 0.950 . S
H507 C516 0.950 . S
H508 C518 0.950 . S
H509 C520 0.950 . S
H510 C522 0.950 . S
H511 C523 0.950 . S
C512 H504 0.950 . S
C512 C513 1.386 . S
C512 C514 1.391 . S
C513 C512 1.386 . S
C513 C517 1.393 . S
C514 H506 0.950 . S
C514 C512 1.391 . S
C514 C515 1.400 . S
C515 C514 1.400 . S
C515 C516 1.398 . S
C515 C521 1.491 . S
C516 H507 0.950 . S
C516 C515 1.398 . S
C516 C517 1.391 . S
C517 H505 0.950 . S
C517 C513 1.393 . S
C517 C516 1.391 . S
C518 H508 0.950 . S
C518 C519 1.386 . S
C518 C520 1.391 . S
C519 C518 1.386 . S
C519 C523 1.393 . S
C520 H509 0.950 . S
C520 C518 1.391 . S
C520 C521 1.400 . S
C521 C515 1.491 . S
C521 C520 1.400 . S
C521 C522 1.398 . S
C522 H510 0.950 . S
C522 C521 1.398 . S
C522 C523 1.391 . S
C523 H511 0.950 . S
C523 C519 1.393 . S
C523 C522 1.391 . S
H524 C532 0.950 . S
H525 C537 0.950 . S
H526 C534 0.950 . S
H527 C536 0.950 . S
H528 C538 0.950 . S
H529 C540 0.950 . S
H530 C542 0.950 . S
H531 C543 0.950 . S
C532 H524 0.950 . S
C532 C533 1.386 . S
C532 C534 1.391 . S
C533 C532 1.386 . S
C533 C537 1.393 . S
C534 H526 0.950 . S
C534 C532 1.391 . S
C534 C535 1.400 . S
C535 C534 1.400 . S
C535 C536 1.398 . S
C535 C541 1.491 . S
C536 H527 0.950 . S
C536 C535 1.398 . S
C536 C537 1.391 . S
C537 H525 0.950 . S
C537 C533 1.393 . S
C537 C536 1.391 . S
C538 H528 0.950 . S
C538 C539 1.386 . S
C538 C540 1.391 . S
C539 C538 1.386 . S
C539 C543 1.393 . S
C540 H529 0.950 . S
C540 C538 1.391 . S
C540 C541 1.400 . S
C541 C535 1.491 . S
C541 C540 1.400 . S
C541 C542 1.398 . S
C542 H530 0.950 . S
C542 C541 1.398 . S
C542 C543 1.391 . S
C543 H531 0.950 . S
C543 C539 1.393 . S
C543 C542 1.391 . S
H544 C552 0.950 . S
H545 C557 0.950 . S
H546 C554 0.950 . S
H547 C556 0.950 . S
H548 C558 0.950 . S
H549 C560 0.950 . S
H550 C562 0.950 . S
H551 C563 0.950 . S
C552 H544 0.950 . S
C552 C553 1.386 . S
C552 C554 1.391 . S
C553 C552 1.386 . S
C553 C557 1.393 . S
C554 H546 0.950 . S
C554 C552 1.391 . S
C554 C555 1.400 . S
C555 C554 1.400 . S
C555 C556 1.398 . S
C555 C561 1.491 . S
C556 H547 0.950 . S
C556 C555 1.398 . S
C556 C557 1.391 . S
C557 H545 0.950 . S
C557 C553 1.393 . S
C557 C556 1.391 . S
C558 H548 0.950 . S
C558 C559 1.386 . S
C558 C560 1.391 . S
C559 C558 1.386 . S
C559 C563 1.393 . S
C560 H549 0.950 . S
C560 C558 1.391 . S
C560 C561 1.400 . S
C561 C555 1.491 . S
C561 C560 1.400 . S
C561 C562 1.398 . S
C562 H550 0.950 . S
C562 C561 1.398 . S
C562 C563 1.391 . S
C563 H551 0.950 . S
C563 C559 1.393 . S
C563 C562 1.391 . S
H564 C572 0.950 . S
H565 C577 0.950 . S
H566 C574 0.950 . S
H567 C576 0.950 . S
H568 C578 0.950 . S
H569 C580 0.950 . S
H570 C582 0.950 . S
H571 C583 0.950 . S
C572 H564 0.950 . S
C572 C573 1.386 . S
C572 C574 1.391 . S
C573 C572 1.386 . S
C573 C577 1.393 . S
C574 H566 0.950 . S
C574 C572 1.391 . S
C574 C575 1.400 . S
C575 C574 1.400 . S
C575 C576 1.398 . S
C575 C581 1.491 . S
C576 H567 0.950 . S
C576 C575 1.398 . S
C576 C577 1.391 . S
C577 H565 0.950 . S
C577 C573 1.393 . S
C577 C576 1.391 . S
C578 H568 0.950 . S
C578 C579 1.386 . S
C578 C580 1.391 . S
C579 C578 1.386 . S
C579 C583 1.393 . S
C580 H569 0.950 . S
C580 C578 1.391 . S
C580 C581 1.400 . S
C581 C575 1.491 . S
C581 C580 1.400 . S
C581 C582 1.398 . S
C582 H570 0.950 . S
C582 C581 1.398 . S
C582 C583 1.391 . S
C583 H571 0.950 . S
C583 C579 1.393 . S
C583 C582 1.391 . S
H584 C592 0.950 . S
H585 C597 0.950 . S
H586 C594 0.950 . S
H587 C596 0.950 . S
H588 C598 0.950 . S
H589 C600 0.950 . S
H590 C602 0.950 . S
H591 C603 0.950 . S
C592 H584 0.950 . S
C592 C593 1.386 . S
C592 C594 1.391 . S
C593 C592 1.386 . S
C593 C597 1.393 . S
C594 H586 0.950 . S
C594 C592 1.391 . S
C594 C595 1.400 . S
C595 C594 1.400 . S
C595 C596 1.398 . S
C595 C601 1.491 . S
C596 H587 0.950 . S
C596 C595 1.398 . S
C596 C597 1.391 . S
C597 H585 0.950 . S
C597 C593 1.393 . S
C597 C596 1.391 . S
C598 H588 0.950 . S
C598 C599 1.386 . S
C598 C600 1.391 . S
C599 C598 1.386 . S
C599 C603 1.393 . S
C600 H589 0.950 . S
C600 C598 1.391 . S
C600 C601 1.400 . S
C601 C595 1.491 . S
C601 C600 1.400 . S
C601 C602 1.398 . S
C602 H590 0.950 . S
C602 C601 1.398 . S
C602 C603 1.391 . S
C603 H591 0.950 . S
C603 C599 1.393 . S
C603 C602 1.391 . S
H604 C612 0.950 . S
H605 C617 0.950 . S
H606 C614 0.950 . S
H607 C616 0.950 . S
H608 C618 0.950 . S
H609 C620 0.950 . S
H610 C622 0.950 . S
H611 C623 0.950 . S
C612 H604 0.950 . S
C612 C613 1.386 . S
C612 C614 1.391 . S
C613 C612 1.386 . S
C613 C617 1.393 . S
C614 H606 0.950 . S
C614 C612 1.391 . S
C614 C615 1.400 . S
C615 C614 1.400 . S
C615 C616 1.398 . S
C615 C621 1.491 . S
C616 H607 0.950 . S
C616 C615 1.398 . S
C616 C617 1.391 . S
C617 H605 0.950 . S
C617 C613 1.393 . S
C617 C616 1.391 . S
C618 H608 0.950 . S
C618 C619 1.386 . S
C618 C620 1.391 . S
C619 C618 1.386 . S
C619 C623 1.393 . S
C620 H609 0.950 . S
C620 C618 1.391 . S
C620 C621 1.400 . S
C621 C615 1.491 . S
C621 C620 1.400 . S
C621 C622 1.398 . S
C622 H610 0.950 . S
C622 C621 1.398 . S
C622 C623 1.391 . S
C623 H611 0.950 . S
C623 C619 1.393 . S
C623 C622 1.391 . S
H624 C632 0.950 . S
H625 C637 0.950 . S
H626 C634 0.950 . S
H627 C636 0.950 . S
H628 C638 0.950 . S
H629 C640 0.950 . S
H630 C642 0.950 . S
H631 C643 0.950 . S
C632 H624 0.950 . S
C632 C633 1.386 . S
C632 C634 1.391 . S
C633 C632 1.386 . S
C633 C637 1.393 . S
C634 H626 0.950 . S
C634 C632 1.391 . S
C634 C635 1.400 . S
C635 C634 1.400 . S
C635 C636 1.398 . S
C635 C641 1.491 . S
C636 H627 0.950 . S
C636 C635 1.398 . S
C636 C637 1.391 . S
C637 H625 0.950 . S
C637 C633 1.393 . S
C637 C636 1.391 . S
C638 H628 0.950 . S
C638 C639 1.386 . S
C638 C640 1.391 . S
C639 C638 1.386 . S
C639 C643 1.393 . S
C640 H629 0.950 . S
C640 C638 1.391 . S
C640 C641 1.400 . S
C641 C635 1.491 . S
C641 C640 1.400 . S
C641 C642 1.398 . S
C642 H630 0.950 . S
C642 C641 1.398 . S
C642 C643 1.391 . S
C643 H631 0.950 . S
C643 C639 1.393 . S
C643 C642 1.391 . S
H644 C652 0.950 . S
H645 C657 0.950 . S
H646 C654 0.950 . S
H647 C656 0.950 . S
H648 C658 0.950 . S
H649 C660 0.950 . S
H650 C662 0.950 . S
H651 C663 0.950 . S
C652 H644 0.950 . S
C652 C653 1.386 . S
C652 C654 1.391 . S
C653 C652 1.386 . S
C653 C657 1.393 . S
C654 H646 0.950 . S
C654 C652 1.391 . S
C654 C655 1.400 . S
C655 C654 1.400 . S
C655 C656 1.398 . S
C655 C661 1.491 . S
C656 H647 0.950 . S
C656 C655 1.398 . S
C656 C657 1.391 . S
C657 H645 0.950 . S
C657 C653 1.393 . S
C657 C656 1.391 . S
C658 H648 0.950 . S
C658 C659 1.386 . S
C658 C660 1.391 . S
C659 C658 1.386 . S
C659 C663 1.393 . S
C660 H649 0.950 . S
C660 C658 1.391 . S
C660 C661 1.400 . S
C661 C655 1.491 . S
C661 C660 1.400 . S
C661 C662 1.398 . S
C662 H650 0.950 . S
C662 C661 1.398 . S
C662 C663 1.391 . S
C663 H651 0.950 . S
C663 C659 1.393 . S
C663 C662 1.391 . S
H664 C672 0.950 . S
H665 C677 0.950 . S
H666 C674 0.950 . S
H667 C676 0.950 . S
H668 C678 0.950 . S
H669 C680 0.950 . S
H670 C682 0.950 . S
H671 C683 0.950 . S
C672 H664 0.950 . S
C672 C673 1.386 . S
C672 C674 1.391 . S
C673 C672 1.386 . S
C673 C677 1.393 . S
C674 H666 0.950 . S
C674 C672 1.391 . S
C674 C675 1.400 . S
C675 C674 1.400 . S
C675 C676 1.398 . S
C675 C681 1.491 . S
C676 H667 0.950 . S
C676 C675 1.398 . S
C676 C677 1.391 . S
C677 H665 0.950 . S
C677 C673 1.393 . S
C677 C676 1.391 . S
C678 H668 0.950 . S
C678 C679 1.386 . S
C678 C680 1.391 . S
C679 C678 1.386 . S
C679 C683 1.393 . S
C680 H669 0.950 . S
C680 C678 1.391 . S
C680 C681 1.400 . S
C681 C675 1.491 . S
C681 C680 1.400 . S
C681 C682 1.398 . S
C682 H670 0.950 . S
C682 C681 1.398 . S
C682 C683 1.391 . S
C683 H671 0.950 . S
C683 C679 1.393 . S
C683 C682 1.391 . S
H684 C692 0.950 . S
H685 C697 0.950 . S
H686 C694 0.950 . S
H687 C696 0.950 . S
H688 C698 0.950 . S
H689 C700 0.950 . S
H690 C702 0.950 . S
H691 C703 0.950 . S
C692 H684 0.950 . S
C692 C693 1.386 . S
C692 C694 1.391 . S
C693 C692 1.386 . S
C693 C697 1.393 . S
C694 H686 0.950 . S
C694 C692 1.391 . S
C694 C695 1.400 . S
C695 C694 1.400 . S
C695 C696 1.398 . S
C695 C701 1.491 . S
C696 H687 0.950 . S
C696 C695 1.398 . S
C696 C697 1.391 . S
C697 H685 0.950 . S
C697 C693 1.393 . S
C697 C696 1.391 . S
C698 H688 0.950 . S
C698 C699 1.386 . S
C698 C700 1.391 . S
C699 C698 1.386 . S
C699 C703 1.393 . S
C700 H689 0.950 . S
C700 C698 1.391 . S
C700 C701 1.400 . S
C701 C695 1.491 . S
C701 C700 1.400 . S
C701 C702 1.398 . S
C702 H690 0.950 . S
C702 C701 1.398 . S
C702 C703 1.391 . S
C703 H691 0.950 . S
C703 C699 1.393 . S
C703 C702 1.391 . S
H704 C712 0.950 . S
H705 C717 0.950 . S
H706 C714 0.950 . S
H707 C716 0.950 . S
H708 C718 0.950 . S
H709 C720 0.950 . S
H710 C722 0.950 . S
H711 C723 0.950 . S
C712 H704 0.950 . S
C712 C713 1.386 . S
C712 C714 1.391 . S
C713 C712 1.386 . S
C713 C717 1.393 . S
C714 H706 0.950 . S
C714 C712 1.391 . S
C714 C715 1.400 . S
C715 C714 1.400 . S
C715 C716 1.398 . S
C715 C721 1.491 . S
C716 H707 0.950 . S
C716 C715 1.398 . S
C716 C717 1.391 . S
C717 H705 0.950 . S
C717 C713 1.393 . S
C717 C716 1.391 . S
C718 H708 0.950 . S
C718 C719 1.386 . S
C718 C720 1.391 . S
C719 C718 1.386 . S
C719 C723 1.393 . S
C720 H709 0.950 . S
C720 C718 1.391 . S
C720 C721 1.400 . S
C721 C715 1.491 . S
C721 C720 1.400 . S
C721 C722 1.398 . S
C722 H710 0.950 . S
C722 C721 1.398 . S
C722 C723 1.391 . S
C723 H711 0.950 . S
C723 C719 1.393 . S
C723 C722 1.391 . S
H724 C732 0.950 . S
H725 C737 0.950 . S
H726 C734 0.950 . S
H727 C736 0.950 . S
H728 C738 0.950 . S
H729 C740 0.950 . S
H730 C742 0.950 . S
H731 C743 0.950 . S
C732 H724 0.950 . S
C732 C733 1.386 . S
C732 C734 1.391 . S
C733 C732 1.386 . S
C733 C737 1.393 . S
C734 H726 0.950 . S
C734 C732 1.391 . S
C734 C735 1.400 . S
C735 C734 1.400 . S
C735 C736 1.398 . S
C735 C741 1.491 . S
C736 H727 0.950 . S
C736 C735 1.398 . S
C736 C737 1.391 . S
C737 H725 0.950 . S
C737 C733 1.393 . S
C737 C736 1.391 . S
C738 H728 0.950 . S
C738 C739 1.386 . S
C738 C740 1.391 . S
C739 C738 1.386 . S
C739 C743 1.393 . S
C740 H729 0.950 . S
C740 C738 1.391 . S
C740 C741 1.400 . S
C741 C735 1.491 . S
C741 C740 1.400 . S
C741 C742 1.398 . S
C742 H730 0.950 . S
C742 C741 1.398 . S
C742 C743 1.391 . S
C743 H731 0.950 . S
C743 C739 1.393 . S
C743 C742 1.391 . S
C273 C9 1.415 . S
C279 C111 1.455 . S
C293 C21 1.086 . S
C299 C160 1.089 . S
C319 C186 2.189 . S
C313 C30 2.211 . S
C333 C43 2.172 . S
C339 C234 2.255 1_655 S
C359 C146 2.111 . S
C353 C4 1.832 . S
C379 C114 1.536 . S
C373 C22 1.588 . S
C399 C235 1.581 1_556 S
C393 C34 1.619 . S
C419 C203 1.530 . S
C413 C48 1.542 . S
C433 C8 1.571 . S
C439 C231 1.613 . S
C459 C163 2.275 . S
C453 C35 2.342 . S
C473 C47 2.565 . S
C479 C115 2.563 . S
C493 C17 0.838 . S
C499 C200 0.848 . S
C519 C120 1.037 . S
C513 C60 1.010 . S
C533 C74 1.123 . S
C539 C151 1.117 . S
C553 C82 1.927 . S
C559 C195 1.986 . S
C573 C100 2.749 . S
C579 C243 2.693 . S
C593 C61 2.445 . S
C599 C155 2.541 . S
C619 C123 0.786 . S
C613 C73 0.769 . S
C639 C226 2.138 . S
C633 C87 2.193 . S
C659 C194 1.312 . S
C653 C95 1.293 . S
C673 C56 1.514 . S
C679 C240 1.509 . S
C699 C154 2.477 . S
C693 C86 2.533 . S
C719 C106 2.354 . S
C713 C99 2.363 . S
C733 C69 0.700 . S
C739 C191 0.721 . S
