# Generated by pormake.
# Topology ctn, (3,4)-cn, num edge types: 1
# Building blocks:
#     Node 0, Type 0, BuildingBlock: BETDIP_clean_linker_0, # of connection points: 3
#     Node 1, Type 0, BuildingBlock: BETDIP_clean_linker_0, # of connection points: 3
#     Node 2, Type 0, BuildingBlock: BETDIP_clean_linker_0, # of connection points: 3
#     Node 3, Type 0, BuildingBlock: BETDIP_clean_linker_0, # of connection points: 3
#     Node 4, Type 0, BuildingBlock: BETDIP_clean_linker_0, # of connection points: 3
#     Node 5, Type 0, BuildingBlock: BETDIP_clean_linker_0, # of connection points: 3
#     Node 6, Type 0, BuildingBlock: BETDIP_clean_linker_0, # of connection points: 3
#     Node 7, Type 0, BuildingBlock: BETDIP_clean_linker_0, # of connection points: 3
#     Node 8, Type 0, BuildingBlock: BETDIP_clean_linker_0, # of connection points: 3
#     Node 9, Type 0, BuildingBlock: BETDIP_clean_linker_0, # of connection points: 3
#     Node 10, Type 0, BuildingBlock: BETDIP_clean_linker_0, # of connection points: 3
#     Node 11, Type 0, BuildingBlock: BETDIP_clean_linker_0, # of connection points: 3
#     Node 12, Type 0, BuildingBlock: BETDIP_clean_linker_0, # of connection points: 3
#     Node 13, Type 0, BuildingBlock: BETDIP_clean_linker_0, # of connection points: 3
#     Node 14, Type 0, BuildingBlock: BETDIP_clean_linker_0, # of connection points: 3
#     Node 15, Type 0, BuildingBlock: BETDIP_clean_linker_0, # of connection points: 3
#     Node 16, Type 1, BuildingBlock: KUFVIS_clean_sbu_0, # of connection points: 4
#     Node 17, Type 1, BuildingBlock: KUFVIS_clean_sbu_0, # of connection points: 4
#     Node 18, Type 1, BuildingBlock: KUFVIS_clean_sbu_0, # of connection points: 4
#     Node 19, Type 1, BuildingBlock: KUFVIS_clean_sbu_0, # of connection points: 4
#     Node 20, Type 1, BuildingBlock: KUFVIS_clean_sbu_0, # of connection points: 4
#     Node 21, Type 1, BuildingBlock: KUFVIS_clean_sbu_0, # of connection points: 4
#     Node 22, Type 1, BuildingBlock: KUFVIS_clean_sbu_0, # of connection points: 4
#     Node 23, Type 1, BuildingBlock: KUFVIS_clean_sbu_0, # of connection points: 4
#     Node 24, Type 1, BuildingBlock: KUFVIS_clean_sbu_0, # of connection points: 4
#     Node 25, Type 1, BuildingBlock: KUFVIS_clean_sbu_0, # of connection points: 4
#     Node 26, Type 1, BuildingBlock: KUFVIS_clean_sbu_0, # of connection points: 4
#     Node 27, Type 1, BuildingBlock: KUFVIS_clean_sbu_0, # of connection points: 4
#     Edge 28, Type (0, 1), BuildingBlock: UVAHIK_clean_linker_0, # of connection points: 2
#     Edge 29, Type (0, 1), BuildingBlock: UVAHIK_clean_linker_0, # of connection points: 2
#     Edge 30, Type (0, 1), BuildingBlock: UVAHIK_clean_linker_0, # of connection points: 2
#     Edge 31, Type (0, 1), BuildingBlock: UVAHIK_clean_linker_0, # of connection points: 2
#     Edge 32, Type (0, 1), BuildingBlock: UVAHIK_clean_linker_0, # of connection points: 2
#     Edge 33, Type (0, 1), BuildingBlock: UVAHIK_clean_linker_0, # of connection points: 2
#     Edge 34, Type (0, 1), BuildingBlock: UVAHIK_clean_linker_0, # of connection points: 2
#     Edge 35, Type (0, 1), BuildingBlock: UVAHIK_clean_linker_0, # of connection points: 2
#     Edge 36, Type (0, 1), BuildingBlock: UVAHIK_clean_linker_0, # of connection points: 2
#     Edge 37, Type (0, 1), BuildingBlock: UVAHIK_clean_linker_0, # of connection points: 2
#     Edge 38, Type (0, 1), BuildingBlock: UVAHIK_clean_linker_0, # of connection points: 2
#     Edge 39, Type (0, 1), BuildingBlock: UVAHIK_clean_linker_0, # of connection points: 2
#     Edge 40, Type (0, 1), BuildingBlock: UVAHIK_clean_linker_0, # of connection points: 2
#     Edge 41, Type (0, 1), BuildingBlock: UVAHIK_clean_linker_0, # of connection points: 2
#     Edge 42, Type (0, 1), BuildingBlock: UVAHIK_clean_linker_0, # of connection points: 2
#     Edge 43, Type (0, 1), BuildingBlock: UVAHIK_clean_linker_0, # of connection points: 2
#     Edge 44, Type (0, 1), BuildingBlock: UVAHIK_clean_linker_0, # of connection points: 2
#     Edge 45, Type (0, 1), BuildingBlock: UVAHIK_clean_linker_0, # of connection points: 2
#     Edge 46, Type (0, 1), BuildingBlock: UVAHIK_clean_linker_0, # of connection points: 2
#     Edge 47, Type (0, 1), BuildingBlock: UVAHIK_clean_linker_0, # of connection points: 2
#     Edge 48, Type (0, 1), BuildingBlock: UVAHIK_clean_linker_0, # of connection points: 2
#     Edge 49, Type (0, 1), BuildingBlock: UVAHIK_clean_linker_0, # of connection points: 2
#     Edge 50, Type (0, 1), BuildingBlock: UVAHIK_clean_linker_0, # of connection points: 2
#     Edge 51, Type (0, 1), BuildingBlock: UVAHIK_clean_linker_0, # of connection points: 2
#     Edge 52, Type (0, 1), BuildingBlock: UVAHIK_clean_linker_0, # of connection points: 2
#     Edge 53, Type (0, 1), BuildingBlock: UVAHIK_clean_linker_0, # of connection points: 2
#     Edge 54, Type (0, 1), BuildingBlock: UVAHIK_clean_linker_0, # of connection points: 2
#     Edge 55, Type (0, 1), BuildingBlock: UVAHIK_clean_linker_0, # of connection points: 2
#     Edge 56, Type (0, 1), BuildingBlock: UVAHIK_clean_linker_0, # of connection points: 2
#     Edge 57, Type (0, 1), BuildingBlock: UVAHIK_clean_linker_0, # of connection points: 2
#     Edge 58, Type (0, 1), BuildingBlock: UVAHIK_clean_linker_0, # of connection points: 2
#     Edge 59, Type (0, 1), BuildingBlock: UVAHIK_clean_linker_0, # of connection points: 2
#     Edge 60, Type (0, 1), BuildingBlock: UVAHIK_clean_linker_0, # of connection points: 2
#     Edge 61, Type (0, 1), BuildingBlock: UVAHIK_clean_linker_0, # of connection points: 2
#     Edge 62, Type (0, 1), BuildingBlock: UVAHIK_clean_linker_0, # of connection points: 2
#     Edge 63, Type (0, 1), BuildingBlock: UVAHIK_clean_linker_0, # of connection points: 2
#     Edge 64, Type (0, 1), BuildingBlock: UVAHIK_clean_linker_0, # of connection points: 2
#     Edge 65, Type (0, 1), BuildingBlock: UVAHIK_clean_linker_0, # of connection points: 2
#     Edge 66, Type (0, 1), BuildingBlock: UVAHIK_clean_linker_0, # of connection points: 2
#     Edge 67, Type (0, 1), BuildingBlock: UVAHIK_clean_linker_0, # of connection points: 2
#     Edge 68, Type (0, 1), BuildingBlock: UVAHIK_clean_linker_0, # of connection points: 2
#     Edge 69, Type (0, 1), BuildingBlock: UVAHIK_clean_linker_0, # of connection points: 2
#     Edge 70, Type (0, 1), BuildingBlock: UVAHIK_clean_linker_0, # of connection points: 2
#     Edge 71, Type (0, 1), BuildingBlock: UVAHIK_clean_linker_0, # of connection points: 2
#     Edge 72, Type (0, 1), BuildingBlock: UVAHIK_clean_linker_0, # of connection points: 2
#     Edge 73, Type (0, 1), BuildingBlock: UVAHIK_clean_linker_0, # of connection points: 2
#     Edge 74, Type (0, 1), BuildingBlock: UVAHIK_clean_linker_0, # of connection points: 2
#     Edge 75, Type (0, 1), BuildingBlock: UVAHIK_clean_linker_0, # of connection points: 2
# Relax obj value: 0.077
# Max RMSD: 0.189
# Mean RMSD: 0.123
data_MOF--net-ctn--node1-KUFVIS_clean_sbu_0--node2-BETDIP_clean_linker_0--edge1-UVAHIK_clean_linker_0
_symmetry_space_group_name_H-M    P1
_symmetry_Int_Tables_number       1
_symmetry_cell_setting            triclinic
loop_
_symmetry_equiv_pos_as_xyz
'x, y, z'
_cell_length_a     67.471407
_cell_length_b     67.615598
_cell_length_c     74.439597
_cell_angle_alpha  94.496072
_cell_angle_beta   94.037301
_cell_angle_gamma 94.520986
loop_
_atom_site_label
_atom_site_type_symbol
_atom_site_fract_x
_atom_site_fract_y
_atom_site_fract_z
_atom_type_partial_charge
H0 H 0.03779 0.06586 0.06554 0.0
H1 H 0.07942 0.04488 0.02898 0.0
H2 H 0.07157 0.01673 0.07818 0.0
H3 H 0.08187 0.07738 0.02289 0.0
C4 C 0.06635 0.08068 0.02239 0.0
C5 C 0.04892 0.05574 0.06217 0.0
C6 C 0.05332 0.04083 0.07358 0.0
C7 C 0.05865 0.05764 0.04632 0.0
C8 C 0.07271 0.04419 0.04171 0.0
C9 C 0.07771 0.02939 0.05313 0.0
C10 C 0.06778 0.0278 0.06904 0.0
N11 N 0.0536 0.0728 0.035 0.0
H12 H 0.29915 0.67348 0.16696 0.0
H13 H 0.35507 0.70479 0.18718 0.0
H14 H 0.33167 0.65451 0.21348 0.0
H15 H 0.33686 0.7313 0.17797 0.0
C16 C 0.33114 0.72476 0.16462 0.0
C17 C 0.31208 0.67512 0.17663 0.0
C18 C 0.3138 0.66191 0.1902 0.0
C19 C 0.32666 0.69083 0.17573 0.0
C20 C 0.34347 0.69301 0.18821 0.0
C21 C 0.34554 0.67985 0.20181 0.0
C22 C 0.33064 0.66428 0.20264 0.0
N23 N 0.32399 0.70431 0.16222 0.0
H24 H 0.95998 0.4895 0.01146 0.0
H25 H 0.99737 0.4644 0.05098 0.0
H26 H 0.97325 0.52019 0.06448 0.0
H27 H 0.98011 0.43556 0.03604 0.0
C28 C 0.98266 0.43903 0.02233 0.0
C29 C 0.96717 0.49044 0.02502 0.0
C30 C 0.96472 0.50668 0.03748 0.0
C31 C 0.97855 0.47504 0.02995 0.0
C32 C 0.98842 0.47625 0.04727 0.0
C33 C 0.98694 0.49265 0.05979 0.0
C34 C 0.97483 0.5077 0.05482 0.0
N35 N 0.98007 0.45853 0.0172 0.0
H36 H 0.69792 0.79566 0.18659 0.0
H37 H 0.71993 0.84823 0.22062 0.0
H38 H 0.74614 0.83415 0.17062 0.0
H39 H 0.71143 0.82658 0.2425 0.0
C40 C 0.69667 0.82088 0.23668 0.0
C41 C 0.70806 0.80899 0.18915 0.0
C42 C 0.72186 0.81377 0.17657 0.0
C43 C 0.70752 0.82116 0.2052 0.0
C44 C 0.72071 0.83845 0.20851 0.0
C45 C 0.73472 0.84337 0.19609 0.0
C46 C 0.73504 0.83096 0.18008 0.0
N47 N 0.6935 0.81578 0.21774 0.0
H48 H 0.03244 0.96636 0.46022 0.0
H49 H 0.08393 0.98617 0.49655 0.0
H50 H 0.07595 0.01088 0.44546 0.0
H51 H 0.07912 0.95753 0.50743 0.0
C52 C 0.0634 0.95252 0.50543 0.0
C53 C 0.04625 0.97569 0.46338 0.0
C54 C 0.05277 0.98906 0.45108 0.0
C55 C 0.05779 0.97382 0.4795 0.0
C56 C 0.0755 0.98636 0.48369 0.0
C57 C 0.0822 0.99981 0.47152 0.0
C58 C 0.07083 0.00081 0.45513 0.0
N59 N 0.0512 0.95929 0.49116 0.0
H60 H 0.19912 0.7116 0.82296 0.0
H61 H 0.22826 0.66847 0.79149 0.0
H62 H 0.25703 0.69595 0.84191 0.0
H63 H 0.21233 0.68545 0.7684 0.0
C64 C 0.19768 0.6865 0.77345 0.0
C65 C 0.21185 0.70298 0.82126 0.0
C66 C 0.22798 0.70515 0.8344 0.0
C67 C 0.21216 0.69028 0.8056 0.0
C68 C 0.22848 0.6789 0.80331 0.0
C69 C 0.24477 0.68058 0.81644 0.0
C70 C 0.24434 0.69383 0.83198 0.0
N71 N 0.19589 0.68947 0.79234 0.0
H72 H 0.01373 0.55735 0.46903 0.0
H73 H 0.97531 0.5032 0.45799 0.0
H74 H 0.96243 0.54722 0.49933 0.0
H75 H 1.00049 0.49263 0.44209 0.0
C76 C 0.00787 0.50593 0.43747 0.0
C77 C 1.00089 0.5479 0.47212 0.0
C78 C 0.98877 0.5545 0.48554 0.0
C79 C 0.99633 0.52946 0.46216 0.0
C80 C 0.97941 0.51728 0.46581 0.0
C81 C 0.96706 0.5238 0.47913 0.0
C82 C 0.97183 0.54236 0.48889 0.0
N83 N 0.0084 0.52455 0.44784 0.0
H84 H 0.81277 0.83688 0.78674 0.0
H85 H 0.84633 0.80328 0.82282 0.0
H86 H 0.79126 0.82555 0.83823 0.0
H87 H 0.87256 0.81874 0.80735 0.0
C88 C 0.86568 0.81564 0.79367 0.0
C89 C 0.81447 0.83038 0.79956 0.0
C90 C 0.80026 0.83284 0.81225 0.0
C91 C 0.83127 0.82016 0.80343 0.0
C92 C 0.83355 0.81157 0.81998 0.0
C93 C 0.81912 0.81327 0.83269 0.0
C94 C 0.80267 0.82426 0.82876 0.0
N95 N 0.8451 0.81803 0.79003 0.0
H96 H 0.32386 0.34514 0.2896 0.0
H97 H 0.35045 0.30176 0.32055 0.0
H98 H 0.29611 0.32553 0.33605 0.0
H99 H 0.37957 0.31687 0.30849 0.0
C100 C 0.37332 0.317 0.29465 0.0
C101 C 0.3238 0.33621 0.30108 0.0
C102 C 0.30827 0.33695 0.31261 0.0
C103 C 0.33917 0.32386 0.30399 0.0
C104 C 0.339 0.31192 0.31865 0.0
C105 C 0.32337 0.31222 0.33024 0.0
C106 C 0.30807 0.32486 0.32709 0.0
N107 N 0.35373 0.32276 0.29115 0.0
H108 H 0.45879 0.99039 0.50901 0.0
H109 H 0.49886 0.96791 0.54805 0.0
H110 H 0.47643 0.02475 0.55973 0.0
H111 H 0.5106 0.95267 0.52437 0.0
C112 C 0.49801 0.94914 0.51443 0.0
C113 C 0.46736 0.99251 0.52197 0.0
C114 C 0.46557 0.00941 0.53391 0.0
C115 C 0.48008 0.97802 0.52657 0.0
C116 C 0.49031 0.97981 0.5438 0.0
C117 C 0.48907 0.99659 0.55593 0.0
C118 C 0.47687 0.01144 0.55074 0.0
N119 N 0.482 0.96165 0.51372 0.0
H120 H 0.20056 0.2941 0.68595 0.0
H121 H 0.21806 0.34908 0.71819 0.0
H122 H 0.24685 0.33465 0.66961 0.0
H123 H 0.18328 0.34515 0.7223 0.0
C124 C 0.1828 0.3298 0.72573 0.0
C125 C 0.20982 0.30804 0.68822 0.0
C126 C 0.22365 0.31317 0.67579 0.0
C127 C 0.20734 0.32117 0.70326 0.0
C128 C 0.21956 0.33914 0.70633 0.0
C129 C 0.23402 0.34414 0.69433 0.0
C130 C 0.23566 0.33117 0.67891 0.0
N131 N 0.19289 0.31574 0.71539 0.0
H132 H 0.79746 0.17268 0.66902 0.0
H133 H 0.85524 0.20365 0.68249 0.0
H134 H 0.83456 0.15695 0.71428 0.0
H135 H 0.85227 0.20753 0.65133 0.0
C136 C 0.83701 0.21164 0.65032 0.0
C137 C 0.81141 0.17444 0.67736 0.0
C138 C 0.81429 0.16267 0.69192 0.0
C139 C 0.82622 0.18891 0.67365 0.0
C140 C 0.84401 0.19202 0.68489 0.0
C141 C 0.84707 0.18062 0.69969 0.0
C142 C 0.83228 0.16576 0.70289 0.0
N143 N 0.82217 0.20107 0.65933 0.0
H144 H 0.53849 0.56632 0.56687 0.0
H145 H 0.58075 0.54568 0.53069 0.0
H146 H 0.56739 0.51324 0.57644 0.0
H147 H 0.58323 0.57772 0.52431 0.0
C148 C 0.56796 0.58172 0.52433 0.0
C149 C 0.54897 0.55565 0.56311 0.0
C150 C 0.55191 0.53962 0.57361 0.0
C151 C 0.5593 0.558 0.54765 0.0
C152 C 0.57276 0.54404 0.54264 0.0
C153 C 0.57594 0.52785 0.55298 0.0
C154 C 0.56528 0.52571 0.56841 0.0
N155 N 0.55525 0.57409 0.53709 0.0
H156 H 0.52961 0.47261 0.96136 0.0
H157 H 0.58342 0.48843 0.99564 0.0
H158 H 0.57469 0.51531 0.94582 0.0
H159 H 0.56595 0.47597 0.01664 0.0
C160 C 0.55611 0.46376 0.00986 0.0
C161 C 0.54395 0.48113 0.96392 0.0
C162 C 0.55045 0.4946 0.95161 0.0
C163 C 0.55563 0.47879 0.97985 0.0
C164 C 0.57414 0.49009 0.98351 0.0
C165 C 0.58083 0.50371 0.97149 0.0
C166 C 0.56906 0.50554 0.95549 0.0
N167 N 0.54854 0.46464 0.99163 0.0
H168 H 0.70151 0.2124 0.32261 0.0
H169 H 0.72921 0.16845 0.29074 0.0
H170 H 0.75858 0.19454 0.34142 0.0
H171 H 0.71387 0.1861 0.26781 0.0
C172 C 0.69931 0.18754 0.27291 0.0
C173 C 0.71391 0.20335 0.32082 0.0
C174 C 0.73 0.20484 0.33399 0.0
C175 C 0.71385 0.19074 0.30506 0.0
C176 C 0.72973 0.17879 0.30266 0.0
C177 C 0.74596 0.17979 0.31581 0.0
C178 C 0.74592 0.19295 0.33147 0.0
N179 N 0.69763 0.19056 0.29182 0.0
H180 H 0.51397 0.05654 0.96912 0.0
H181 H 0.4779 0.00097 0.95954 0.0
H182 H 0.46615 0.04363 0.00266 0.0
H183 H 0.50312 0.99172 0.94321 0.0
C184 C 0.50874 0.00522 0.93762 0.0
C185 C 0.50177 0.04659 0.97274 0.0
C186 C 0.49094 0.05204 0.98749 0.0
C187 C 0.49726 0.02824 0.96264 0.0
C188 C 0.48155 0.01512 0.96732 0.0
C189 C 0.47028 0.02041 0.98194 0.0
C190 C 0.47512 0.03897 0.99184 0.0
N191 N 0.50827 0.02408 0.94738 0.0
Mn192 Mn 0.26011 0.87323 0.00914 0.0
Mn193 Mn 0.25643 0.89366 0.96924 0.0
C194 C 0.24472 0.85493 0.9837 0.0
C195 C 0.27691 0.85565 0.03026 0.0
C196 C 0.23108 0.9042 1.00004 0.0
O197 O 0.28149 0.89656 0.01266 0.0
O198 O 0.27884 0.90809 0.98496 0.0
C199 C 0.29447 0.88329 0.95492 0.0
N200 N 0.27418 0.88235 0.95317 0.0
C201 C 0.27312 0.86382 0.92412 0.0
C202 C 0.294 0.86467 0.92557 0.0
C203 C 0.30472 0.8744 0.94106 0.0
C204 C 0.26372 0.873 0.93834 0.0
H205 H 0.30277 0.89076 0.9668 0.0
C206 C 0.28711 0.90836 1.00104 0.0
O207 O 0.26387 0.8678 0.03496 0.0
O208 O 0.28058 0.85406 0.01334 0.0
N209 N 0.23548 0.88058 0.95283 0.0
C210 C 0.2154 0.87978 0.95418 0.0
C211 C 0.20253 0.86973 0.94017 0.0
C212 C 0.21041 0.86073 0.9249 0.0
C213 C 0.23113 0.86181 0.9238 0.0
C214 C 0.24322 0.87203 0.93817 0.0
H215 H 0.20927 0.88666 0.96589 0.0
O216 O 0.24046 0.85035 0.99969 0.0
O217 O 0.25742 0.87029 0.9832 0.0
O218 O 0.23786 0.89205 0.01068 0.0
O219 O 0.23728 0.90625 0.98444 0.0
C220 C 0.24025 0.85287 0.90915 0.0
C221 C 0.26124 0.85391 0.9093 0.0
H222 H 0.30196 0.85776 0.91495 0.0
H223 H 0.32084 0.87505 0.94231 0.0
H224 H 0.18656 0.8689 0.94115 0.0
H225 H 0.20044 0.8529 0.91417 0.0
H226 H 0.23129 0.84489 0.89783 0.0
H227 H 0.26808 0.84671 0.89808 0.0
Mn228 Mn 0.14353 0.49476 0.251 0.0
Mn229 Mn 0.12918 0.54152 0.25237 0.0
C230 C 0.16162 0.51902 0.23727 0.0
C231 C 0.1617 0.47094 0.26421 0.0
C232 C 0.10857 0.50724 0.22738 0.0
O233 O 0.12422 0.49519 0.27091 0.0
O234 O 0.11804 0.52751 0.27238 0.0
C235 C 0.15103 0.55807 0.28682 0.0
N236 N 0.147 0.55885 0.26872 0.0
C237 C 0.16891 0.5887 0.26873 0.0
C238 C 0.17322 0.58829 0.2874 0.0
C239 C 0.16429 0.57287 0.29646 0.0
C240 C 0.15558 0.57356 0.25984 0.0
H241 H 0.14419 0.54625 0.29384 0.0
C242 C 0.11626 0.5101 0.27808 0.0
O243 O 0.14648 0.46573 0.25266 0.0
O244 O 0.16584 0.48984 0.26846 0.0
N245 N 0.13908 0.55684 0.23386 0.0
C246 C 0.13427 0.5544 0.21569 0.0
C247 C 0.1425 0.5682 0.20454 0.0
C248 C 0.15539 0.58447 0.21221 0.0
C249 C 0.15994 0.58678 0.23097 0.0
C250 C 0.1513 0.57255 0.24139 0.0
H251 H 0.12431 0.54197 0.20972 0.0
O252 O 0.16305 0.50031 0.23266 0.0
O253 O 0.14988 0.52294 0.24997 0.0
O254 O 0.1203 0.4941 0.23154 0.0
O255 O 0.11017 0.52501 0.23487 0.0
C256 C 0.17294 0.60249 0.2397 0.0
C257 C 0.17752 0.60339 0.25855 0.0
H258 H 0.18347 0.59965 0.29488 0.0
H259 H 0.16761 0.5724 0.31085 0.0
H260 H 0.13893 0.56631 0.19008 0.0
H261 H 0.1618 0.59503 0.20357 0.0
H262 H 0.17974 0.61378 0.232 0.0
H263 H 0.18782 0.61534 0.26506 0.0
Mn264 Mn 0.78706 0.65887 0.00203 0.0
Mn265 Mn 0.74434 0.6729 0.98212 0.0
C266 C 0.75773 0.63857 0.00138 0.0
C267 C 0.81665 0.64316 0.00146 0.0
C268 C 0.76135 0.68961 0.01932 0.0
O269 O 0.79722 0.68059 0.98653 0.0
O270 O 0.76772 0.68857 0.97411 0.0
C271 C 0.75026 0.65811 0.94455 0.0
N272 N 0.73896 0.65837 0.959 0.0
C273 C 0.71287 0.63662 0.94241 0.0
C274 C 0.72418 0.63619 0.92731 0.0
C275 C 0.743 0.64691 0.92841 0.0
C276 C 0.72096 0.64791 0.95816 0.0
H277 H 0.76468 0.66642 0.94532 0.0
C278 C 0.78678 0.69074 0.97629 0.0
O279 O 0.81424 0.65724 0.01379 0.0
O280 O 0.80215 0.63872 0.98903 0.0
N281 N 0.72032 0.65909 0.98847 0.0
C282 C 0.71156 0.66063 0.00441 0.0
C283 C 0.6928 0.65047 0.00569 0.0
C284 C 0.6831 0.63916 0.9905 0.0
C285 C 0.69225 0.63813 0.97415 0.0
C286 C 0.71099 0.64847 0.97371 0.0
H287 H 0.71886 0.66947 0.01607 0.0
O288 O 0.77225 0.63697 0.01342 0.0
O289 O 0.76078 0.65191 0.98997 0.0
O290 O 0.77663 0.67964 0.0198 0.0
O291 O 0.74835 0.68831 0.00588 0.0
C292 C 0.68355 0.62717 0.9583 0.0
C293 C 0.69393 0.62625 0.94249 0.0
H294 H 0.7186 0.62762 0.91482 0.0
H295 H 0.75184 0.6466 0.91683 0.0
H296 H 0.68581 0.6514 0.01834 0.0
H297 H 0.66865 0.63131 0.99154 0.0
H298 H 0.66897 0.61918 0.95817 0.0
H299 H 0.68722 0.6175 0.93047 0.0
Mn300 Mn 0.91303 0.0239 0.25675 0.0
Mn301 Mn 0.92963 0.9781 0.25193 0.0
C302 C 0.89357 0.99805 0.24038 0.0
C303 C 0.89594 0.04771 0.2723 0.0
C304 C 0.94466 0.01234 0.23119 0.0
O305 O 0.93513 0.02495 0.27711 0.0
O306 O 0.94408 0.99347 0.2734 0.0
C307 C 0.91516 0.9619 0.28489 0.0
N308 N 0.91555 0.96066 0.26657 0.0
C309 C 0.89415 0.9302 0.26339 0.0
C310 C 0.8936 0.93109 0.28223 0.0
C311 C 0.90411 0.94703 0.29302 0.0
C312 C 0.90545 0.94541 0.25606 0.0
H313 H 0.92319 0.97414 0.29324 0.0
C314 C 0.94542 0.01086 0.28182 0.0
O315 O 0.90945 0.05278 0.26155 0.0
O316 O 0.89291 0.0289 0.27452 0.0
N317 N 0.91652 0.9617 0.23176 0.0
C318 C 0.9175 0.96377 0.21377 0.0
C319 C 0.90715 0.94945 0.2011 0.0
C320 C 0.89603 0.9331 0.20705 0.0
C321 C 0.89535 0.93123 0.22562 0.0
C322 C 0.906 0.94594 0.23762 0.0
H323 H 0.92602 0.97631 0.20913 0.0
O324 O 0.89083 0.01637 0.23755 0.0
O325 O 0.90773 0.9955 0.2525 0.0
O326 O 0.93339 0.02502 0.23755 0.0
O327 O 0.94478 0.99464 0.236 0.0
C328 C 0.88426 0.91552 0.23271 0.0
C329 C 0.88364 0.91502 0.25158 0.0
H330 H 0.88502 0.9197 0.28854 0.0
H331 H 0.90368 0.94787 0.30756 0.0
H332 H 0.90772 0.95102 0.18679 0.0
H333 H 0.88797 0.92216 0.19724 0.0
H334 H 0.87589 0.90392 0.22376 0.0
H335 H 0.87479 0.90304 0.25685 0.0
Mn336 Mn 0.28554 0.15843 0.49988 0.0
Mn337 Mn 0.24103 0.1698 0.48146 0.0
C338 C 0.25722 0.13682 0.50071 0.0
C339 C 0.31585 0.14413 0.49862 0.0
C340 C 0.2598 0.18867 0.5175 0.0
O341 O 0.2936 0.18022 0.4834 0.0
O342 O 0.26307 0.18486 0.47097 0.0
C343 C 0.24387 0.15277 0.44394 0.0
N344 N 0.23403 0.15376 0.4593 0.0
C345 C 0.20706 0.13103 0.44541 0.0
C346 C 0.21687 0.1298 0.42942 0.0
C347 C 0.23541 0.14064 0.42872 0.0
C348 C 0.21633 0.14318 0.4602 0.0
H349 H 0.25804 0.16121 0.44331 0.0
C350 C 0.28207 0.18841 0.47234 0.0
O351 O 0.31322 0.15828 0.5108 0.0
O352 O 0.30115 0.13891 0.48653 0.0
N353 N 0.21827 0.15608 0.49025 0.0
C354 C 0.21107 0.15839 0.50687 0.0
C355 C 0.19283 0.14819 0.50995 0.0
C356 C 0.18202 0.13604 0.49584 0.0
C357 C 0.18958 0.13415 0.47878 0.0
C358 C 0.2079 0.14454 0.47655 0.0
H359 H 0.21918 0.16791 0.5177 0.0
O360 O 0.27246 0.1361 0.51221 0.0
O361 O 0.25899 0.15002 0.48904 0.0
O362 O 0.27512 0.1788 0.51785 0.0
O363 O 0.24646 0.1869 0.50432 0.0
C364 C 0.17967 0.12235 0.46391 0.0
C365 C 0.18848 0.12065 0.44727 0.0
H366 H 0.21034 0.12055 0.41761 0.0
H367 H 0.24309 0.13975 0.41643 0.0
H368 H 0.18708 0.14977 0.52315 0.0
H369 H 0.16796 0.1282 0.49827 0.0
H370 H 0.1654 0.11426 0.46519 0.0
H371 H 0.18087 0.11124 0.43603 0.0
Mn372 Mn 0.41064 0.525 0.75626 0.0
Mn373 Mn 0.42473 0.47823 0.75084 0.0
C374 C 0.39008 0.50035 0.73949 0.0
C375 C 0.39463 0.54933 0.77226 0.0
C376 C 0.44167 0.5121 0.73059 0.0
O377 O 0.43253 0.52464 0.77656 0.0
O378 O 0.43978 0.49261 0.77256 0.0
C379 C 0.40903 0.46241 0.78349 0.0
N380 N 0.40952 0.46136 0.76519 0.0
C381 C 0.38575 0.43259 0.76152 0.0
C382 C 0.3851 0.43329 0.78034 0.0
C383 C 0.39677 0.44828 0.79137 0.0
C384 C 0.39838 0.44697 0.75445 0.0
H385 H 0.41788 0.47397 0.79202 0.0
C386 C 0.44195 0.50993 0.78116 0.0
O387 O 0.40837 0.5541 0.76162 0.0
O388 O 0.39081 0.53054 0.77411 0.0
N389 N 0.41093 0.46273 0.73044 0.0
C390 C 0.41234 0.46487 0.71251 0.0
C391 C 0.40109 0.45142 0.69964 0.0
C392 C 0.38857 0.43591 0.70532 0.0
C393 C 0.38746 0.43394 0.72384 0.0
C394 C 0.39916 0.44767 0.73605 0.0
H395 H 0.42186 0.47681 0.70806 0.0
O396 O 0.38831 0.51893 0.73698 0.0
O397 O 0.40393 0.49686 0.75155 0.0
O398 O 0.43109 0.52534 0.73711 0.0
O399 O 0.44085 0.49426 0.73518 0.0
C400 C 0.37489 0.41914 0.73066 0.0
C401 C 0.37403 0.41847 0.74949 0.0
H402 H 0.37554 0.42251 0.78646 0.0
H403 H 0.39626 0.44898 0.8059 0.0
H404 H 0.40199 0.45308 0.68537 0.0
H405 H 0.37974 0.42572 0.69535 0.0
H406 H 0.36559 0.40839 0.72154 0.0
H407 H 0.36409 0.4072 0.75456 0.0
Mn408 Mn 0.75972 0.3735 0.50908 0.0
Mn409 Mn 0.75532 0.39304 0.46877 0.0
C410 C 0.74514 0.35437 0.48372 0.0
C411 C 0.77655 0.35654 0.53069 0.0
C412 C 0.72914 0.40286 0.49909 0.0
O413 O 0.78039 0.39741 0.51248 0.0
O414 O 0.7767 0.40882 0.48478 0.0
C415 C 0.79446 0.38474 0.45555 0.0
N416 N 0.77417 0.38267 0.45332 0.0
C417 C 0.77483 0.36387 0.42458 0.0
C418 C 0.79573 0.36589 0.42652 0.0
C419 C 0.80558 0.37633 0.4421 0.0
C420 C 0.76454 0.37262 0.4384 0.0
H421 H 0.80211 0.39275 0.46749 0.0
C422 C 0.78521 0.40949 0.50081 0.0
O423 O 0.76307 0.36835 0.53495 0.0
O424 O 0.78081 0.3551 0.51391 0.0
N425 N 0.73539 0.37872 0.45205 0.0
C426 C 0.71523 0.37688 0.45287 0.0
C427 C 0.70319 0.36611 0.43868 0.0
C428 C 0.71199 0.35745 0.42376 0.0
C429 C 0.73277 0.35961 0.4232 0.0
C430 C 0.744 0.37052 0.43773 0.0
H431 H 0.70839 0.38348 0.46432 0.0
O432 O 0.74079 0.35 0.49974 0.0
O433 O 0.75736 0.37007 0.48309 0.0
O434 O 0.73694 0.39173 0.51016 0.0
O435 O 0.73493 0.40449 0.48329 0.0
C436 C 0.74279 0.3511 0.40893 0.0
C437 C 0.76381 0.35323 0.40961 0.0
H438 H 0.80436 0.35935 0.41622 0.0
H439 H 0.82171 0.37788 0.44374 0.0
H440 H 0.68716 0.36446 0.43924 0.0
H441 H 0.70266 0.34906 0.41289 0.0
H442 H 0.73449 0.34261 0.39749 0.0
H443 H 0.77135 0.34635 0.39869 0.0
Mn444 Mn 0.64111 0.99426 0.74961 0.0
Mn445 Mn 0.62866 0.04174 0.75256 0.0
C446 C 0.66105 0.01875 0.73794 0.0
C447 C 0.65697 0.96854 0.76216 0.0
C448 C 0.60819 0.00945 0.72536 0.0
O449 O 0.62058 0.9943 0.76852 0.0
O450 O 0.61587 0.02698 0.77131 0.0
C451 C 0.64929 0.05568 0.78825 0.0
N452 N 0.64626 0.05763 0.77021 0.0
C453 C 0.66926 0.08693 0.77243 0.0
C454 C 0.67255 0.08531 0.79105 0.0
C455 C 0.66257 0.06957 0.79898 0.0
C456 C 0.65589 0.07262 0.76243 0.0
H457 H 0.64162 0.04362 0.79438 0.0
C458 C 0.61297 0.00923 0.77608 0.0
O459 O 0.64244 0.9649 0.74965 0.0
O460 O 0.6619 0.98706 0.76769 0.0
N461 N 0.64015 0.05785 0.73531 0.0
C462 C 0.63607 0.05672 0.71705 0.0
C463 C 0.64529 0.07106 0.70699 0.0
C464 C 0.65839 0.08654 0.71582 0.0
C465 C 0.66214 0.08754 0.73465 0.0
C466 C 0.65253 0.07283 0.74396 0.0
H467 H 0.62593 0.04493 0.71019 0.0
O468 O 0.66203 1.00015 0.73262 0.0
O469 O 0.64874 0.02245 0.75022 0.0
O470 O 0.6192 0.99567 0.72933 0.0
O471 O 0.60995 0.0268 0.73373 0.0
C472 C 0.67521 0.10243 0.74451 0.0
C473 C 0.67888 0.10205 0.76338 0.0
H474 H 0.68279 0.09599 0.79937 0.0
H475 H 0.66509 0.06818 0.81332 0.0
H476 H 0.64231 0.07019 0.69246 0.0
H477 H 0.66555 0.09752 0.708 0.0
H478 H 0.68275 0.11407 0.73769 0.0
H479 H 0.68924 0.11338 0.77076 0.0
Mn480 Mn 0.02126 0.24702 0.86659 0.0
Mn481 Mn 0.97387 0.24008 0.8782 0.0
C482 C 0.99693 0.22949 0.84679 0.0
C483 C 0.04662 0.26486 0.85343 0.0
C484 C 0.00717 0.21698 0.89288 0.0
O485 O 0.02054 0.26842 0.8874 0.0
O486 O 0.98841 0.26262 0.89371 0.0
C487 C 0.95934 0.27765 0.86668 0.0
N488 N 0.95777 0.25738 0.86564 0.0
C489 C 0.92901 0.25557 0.84435 0.0
C490 C 0.93025 0.27643 0.84526 0.0
C491 C 0.94552 0.28751 0.85644 0.0
C492 C 0.9432 0.24658 0.85486 0.0
H493 H 0.97105 0.28622 0.87524 0.0
C494 C 0.00566 0.27223 0.89643 0.0
O495 O 0.05053 0.25241 0.86535 0.0
O496 O 0.02799 0.26757 0.84972 0.0
N497 N 0.95815 0.21882 0.86409 0.0
C498 C 0.95962 0.19884 0.86409 0.0
C499 C 0.94578 0.18564 0.85322 0.0
C500 C 0.93048 0.19311 0.84261 0.0
C501 C 0.92916 0.21373 0.84299 0.0
C502 C 0.94334 0.22615 0.85412 0.0
H503 H 0.97133 0.19302 0.87224 0.0
O504 O 0.01558 0.22667 0.84543 0.0
O505 O 0.99311 0.24223 0.8598 0.0
O506 O 0.0208 0.22524 0.88428 0.0
O507 O 0.98909 0.22137 0.89154 0.0
C508 C 0.91447 0.22244 0.83259 0.0
C509 C 0.91443 0.24335 0.83323 0.0
H510 H 0.91965 0.28409 0.83735 0.0
H511 H 0.94662 0.30361 0.85716 0.0
H512 H 0.94691 0.16975 0.853 0.0
H513 H 0.91991 0.18289 0.83415 0.0
H514 H 0.9033 0.21321 0.82386 0.0
H515 H 0.90324 0.24988 0.82496 0.0
Mn516 Mn 0.51991 0.74538 0.36647 0.0
Mn517 Mn 0.47237 0.73697 0.37718 0.0
C518 C 0.49695 0.72553 0.34704 0.0
C519 C 0.54463 0.76369 0.35293 0.0
C520 C 0.50674 0.71701 0.3944 0.0
O521 O 0.51739 0.76777 0.38596 0.0
O522 O 0.4851 0.76139 0.39141 0.0
C523 C 0.45582 0.77209 0.3623 0.0
N524 N 0.45556 0.75197 0.36271 0.0
C525 C 0.42802 0.74669 0.34 0.0
C526 C 0.42793 0.76736 0.33942 0.0
C527 C 0.44191 0.7801 0.3506 0.0
C528 C 0.44217 0.73956 0.35201 0.0
H529 H 0.46661 0.78194 0.3708 0.0
C530 C 0.50194 0.77182 0.39408 0.0
O531 O 0.54905 0.75254 0.36581 0.0
O532 O 0.52585 0.76481 0.34843 0.0
N533 N 0.45841 0.71393 0.36407 0.0
C534 C 0.46118 0.69437 0.36556 0.0
C535 C 0.44873 0.67966 0.35494 0.0
C536 C 0.43353 0.6852 0.34294 0.0
C537 C 0.43087 0.70543 0.34174 0.0
C538 C 0.44362 0.71942 0.35279 0.0
H539 H 0.47288 0.69002 0.37471 0.0
O540 O 0.51588 0.7236 0.34634 0.0
O541 O 0.49217 0.7387 0.35926 0.0
O542 O 0.52018 0.72505 0.38545 0.0
O543 O 0.48842 0.72053 0.39246 0.0
C544 C 0.41632 0.71226 0.32976 0.0
C545 C 0.41491 0.73287 0.32888 0.0
H546 H 0.41731 0.7736 0.33034 0.0
H547 H 0.442 0.79607 0.35016 0.0
H548 H 0.4509 0.66408 0.35592 0.0
H549 H 0.42409 0.67382 0.33463 0.0
H550 H 0.40631 0.70179 0.32098 0.0
H551 H 0.40385 0.73794 0.31943 0.0
Mn552 Mn 0.0192 0.76007 0.62492 0.0
Mn553 Mn 0.9954 0.71637 0.63345 0.0
C554 C 0.01976 0.73241 0.60471 0.0
C555 C 0.01869 0.79099 0.61308 0.0
C556 C 0.03518 0.73317 0.65248 0.0
O557 O 0.00135 0.76797 0.64491 0.0
O558 O 0.98331 0.73867 0.6464 0.0
C559 C 0.9559 0.72063 0.61488 0.0
N560 N 0.97215 0.71011 0.61722 0.0
C561 C 0.95806 0.68405 0.59505 0.0
C562 C 0.94106 0.6945 0.59255 0.0
C563 C 0.94002 0.71291 0.60245 0.0
C564 C 0.9734 0.69249 0.60762 0.0
H565 H 0.95511 0.73482 0.62241 0.0
C566 C 0.98712 0.75735 0.65083 0.0
O567 O 0.03203 0.78769 0.62569 0.0
O568 O 0.00525 0.77652 0.6078 0.0
N569 N 0.00539 0.69339 0.62173 0.0
C570 C 0.02322 0.6857 0.62507 0.0
C571 C 0.02684 0.66749 0.61598 0.0
C572 C 0.01203 0.65729 0.60372 0.0
C573 C 0.99375 0.66542 0.60059 0.0
C574 C 0.99093 0.68353 0.61015 0.0
H575 H 0.03461 0.69336 0.63459 0.0
O576 O 0.03286 0.74748 0.60452 0.0
O577 O 0.00642 0.73419 0.61638 0.0
O578 O 0.03778 0.74807 0.64317 0.0
O579 O 0.01943 0.72115 0.65063 0.0
C580 C 0.97833 0.65643 0.58815 0.0
C581 C 0.96053 0.66578 0.58533 0.0
H582 H 0.92881 0.68862 0.58294 0.0
H583 H 0.92702 0.72113 0.6005 0.0
H584 H 0.041 0.66132 0.61845 0.0
H585 H 0.01489 0.64327 0.59672 0.0
H586 H 0.98014 0.64249 0.58047 0.0
H587 H 0.94891 0.65888 0.57552 0.0
Mn588 Mn 0.5225 0.26162 0.12278 0.0
Mn589 Mn 0.49753 0.21917 0.13295 0.0
C590 C 0.52203 0.23315 0.10338 0.0
C591 C 0.52257 0.29211 0.11006 0.0
C592 C 0.53796 0.23528 0.15109 0.0
O593 O 0.50532 0.2709 0.1428 0.0
O594 O 0.48643 0.24239 0.14548 0.0
C595 C 0.45805 0.22421 0.11469 0.0
N596 N 0.47392 0.21318 0.11711 0.0
C597 C 0.45866 0.18684 0.09578 0.0
C598 C 0.44206 0.19783 0.09318 0.0
C599 C 0.4418 0.21663 0.10263 0.0
C600 C 0.47442 0.19517 0.10797 0.0
H601 H 0.45784 0.23868 0.12189 0.0
C602 C 0.49098 0.26107 0.14933 0.0
O603 O 0.53598 0.28891 0.12266 0.0
O604 O 0.50883 0.27778 0.10523 0.0
N605 N 0.50647 0.19534 0.12178 0.0
C606 C 0.52395 0.18703 0.12524 0.0
C607 C 0.52674 0.16831 0.11667 0.0
C608 C 0.51148 0.15824 0.1048 0.0
C609 C 0.49357 0.16701 0.10156 0.0
C610 C 0.49157 0.18562 0.1106 0.0
H611 H 0.53567 0.19459 0.13448 0.0
O612 O 0.53547 0.2478 0.10258 0.0
O613 O 0.50891 0.23582 0.11514 0.0
O614 O 0.54089 0.24973 0.1413 0.0
O615 O 0.52188 0.22373 0.14973 0.0
C616 C 0.47773 0.15815 0.0895 0.0
C617 C 0.46032 0.1681 0.08656 0.0
H618 H 0.42951 0.19206 0.08386 0.0
H619 H 0.4291 0.22525 0.10061 0.0
H620 H 0.54061 0.16164 0.11924 0.0
H621 H 0.5137 0.14382 0.0982 0.0
H622 H 0.47891 0.14383 0.08222 0.0
H623 H 0.44837 0.16128 0.07706 0.0
C624 C 0.23307 0.71519 0.86775 0.0
C625 C 0.22809 0.72009 0.85009 0.0
C626 C 0.23316 0.7295 0.88242 0.0
C627 C 0.24046 0.78303 0.89354 0.0
H628 H 0.215 0.77299 0.93746 0.0
C629 C 0.22218 0.82982 0.96369 0.0
C630 C 0.24109 0.8398 0.96826 0.0
C631 C 0.2194 0.81498 0.94927 0.0
C632 C 0.22204 0.77603 0.92521 0.0
H633 H 0.21953 0.74376 0.83388 0.0
H634 H 0.21997 0.76876 0.85943 0.0
H635 H 0.21231 0.74707 0.9122 0.0
H636 H 0.27218 0.84114 0.9626 0.0
H637 H 0.26738 0.8156 0.93739 0.0
H638 H 0.25063 0.81164 0.90653 0.0
C639 C 0.22361 0.75385 0.86196 0.0
C640 C 0.22066 0.76117 0.91086 0.0
C641 C 0.22326 0.73953 0.84736 0.0
C642 C 0.25729 0.8342 0.95881 0.0
C643 C 0.25455 0.81953 0.94444 0.0
C644 C 0.2421 0.7977 0.90793 0.0
C645 C 0.22861 0.74901 0.87961 0.0
C646 C 0.22985 0.76457 0.89489 0.0
C647 C 0.23557 0.80983 0.93941 0.0
C648 C 0.23295 0.79439 0.92393 0.0
H649 H 0.23676 0.70028 0.8702 0.0
H650 H 0.23722 0.72544 0.8959 0.0
H651 H 0.24784 0.78599 0.88145 0.0
H652 H 0.20957 0.83366 0.9711 0.0
H653 H 0.20461 0.80772 0.94568 0.0
C654 C 0.02071 0.48579 0.41176 0.0
C655 C 0.01838 0.50446 0.42066 0.0
C656 C 0.03049 0.48443 0.39576 0.0
C657 C 0.0431 0.51341 0.35776 0.0
H658 H 0.08543 0.47847 0.35143 0.0
C659 C 0.09797 0.52427 0.30353 0.0
C660 C 0.10444 0.50751 0.29396 0.0
C661 C 0.08669 0.52219 0.31836 0.0
C662 C 0.07343 0.48807 0.35285 0.0
H663 H 0.02438 0.53638 0.41975 0.0
H664 H 0.04121 0.534 0.39194 0.0
H665 H 0.06688 0.47775 0.37851 0.0
H666 H 0.10419 0.47532 0.29272 0.0
H667 H 0.08417 0.47166 0.3186 0.0
H668 H 0.04949 0.52379 0.33226 0.0
C669 C 0.03549 0.52039 0.39725 0.0
C670 C 0.06284 0.48767 0.36837 0.0
C671 C 0.02594 0.52174 0.41327 0.0
C672 C 0.09946 0.48856 0.29976 0.0
C673 C 0.08805 0.48646 0.31464 0.0
C674 C 0.05354 0.51371 0.34225 0.0
C675 C 0.03782 0.50175 0.38827 0.0
C676 C 0.04786 0.50066 0.37115 0.0
C677 C 0.08142 0.50327 0.32403 0.0
C678 C 0.06915 0.5014 0.33977 0.0
H679 H 0.01499 0.47226 0.41718 0.0
H680 H 0.03201 0.46987 0.38908 0.0
H681 H 0.03136 0.5233 0.35936 0.0
H682 H 0.10168 0.53915 0.29966 0.0
H683 H 0.08228 0.53551 0.32551 0.0
C684 C 0.81447 0.81159 0.86584 0.0
C685 C 0.82062 0.80284 0.84961 0.0
C686 C 0.81415 0.80107 0.88127 0.0
C687 C 0.83304 0.75831 0.90299 0.0
H688 H 0.78279 0.75689 0.92524 0.0
C689 C 0.81008 0.70043 0.9532 0.0
C690 C 0.79667 0.70579 0.96593 0.0
C691 C 0.8159 0.71374 0.94063 0.0
C692 C 0.79713 0.75741 0.91955 0.0
H693 H 0.83182 0.77622 0.83718 0.0
H694 H 0.83164 0.7581 0.86424 0.0
H695 H 0.78784 0.77758 0.90052 0.0
H696 H 0.77991 0.72947 0.9765 0.0
H697 H 0.79094 0.75311 0.95548 0.0
H698 H 0.84237 0.73815 0.92211 0.0
C699 C 0.82711 0.77314 0.86497 0.0
C700 C 0.79996 0.76925 0.90526 0.0
C701 C 0.82725 0.78359 0.84946 0.0
C702 C 0.79024 0.72503 0.96674 0.0
C703 C 0.79638 0.73845 0.95451 0.0
C704 C 0.83031 0.7466 0.9175 0.0
C705 C 0.82016 0.78162 0.88092 0.0
C706 C 0.81787 0.76975 0.89674 0.0
C707 C 0.8086 0.73273 0.94077 0.0
C708 C 0.81224 0.74591 0.92593 0.0
H709 H 0.80968 0.82652 0.8666 0.0
H710 H 0.80897 0.80808 0.89347 0.0
H711 H 0.84704 0.75849 0.89671 0.0
H712 H 0.81498 0.68553 0.9522 0.0
H713 H 0.8252 0.70869 0.93022 0.0
C714 C 0.04972 0.98837 0.41743 0.0
C715 C 0.04096 0.991 0.43389 0.0
C716 C 0.03936 0.99196 0.40125 0.0
C717 C 0.9887 1.00004 0.38088 0.0
H718 H 0.0194 0.02078 0.34332 0.0
C719 C 0.95234 0.02448 0.31411 0.0
C720 C 0.95843 0.01381 0.29878 0.0
C721 C 0.96283 0.02411 0.33098 0.0
C722 C 0.01066 0.01506 0.35373 0.0
H723 H 0.01458 0.99931 0.4465 0.0
H724 H 0.99661 0.00632 0.41835 0.0
H725 H 0.03634 0.01488 0.37217 0.0
H726 H 0.9808 0.99533 0.28884 0.0
H727 H 0.99954 0.99534 0.31816 0.0
H728 H 0.96297 0.00071 0.36235 0.0
C729 C 0.01126 0.00094 0.41774 0.0
C730 C 0.02035 0.01145 0.37023 0.0
C731 C 0.02153 0.99698 0.4339 0.0
C732 C 0.97581 0.00372 0.30043 0.0
C733 C 0.98654 0.00374 0.31718 0.0
C734 C 0.97898 0.00401 0.36449 0.0
C735 C 0.02013 0.9987 0.40118 0.0
C736 C 0.00957 0.00352 0.38394 0.0
C737 C 0.97984 0.01347 0.33269 0.0
C738 C 0.98991 0.01127 0.35067 0.0
H739 H 0.06468 0.98365 0.41711 0.0
H740 H 0.04653 0.98947 0.38881 0.0
H741 H 0.97986 0.9937 0.39093 0.0
H742 H 0.93886 0.03219 0.31324 0.0
H743 H 0.95744 0.03178 0.34276 0.0
C744 C 0.23097 0.28028 0.66102 0.0
C745 C 0.22583 0.2998 0.65949 0.0
C746 C 0.23445 0.2682 0.64562 0.0
C747 C 0.24511 0.27136 0.59723 0.0
H748 H 0.23355 0.21408 0.5948 0.0
C749 C 0.24491 0.21817 0.532 0.0
C750 C 0.25678 0.20211 0.53355 0.0
C751 C 0.2414 0.23035 0.54732 0.0
C752 C 0.23691 0.23006 0.59538 0.0
H753 H 0.21954 0.32188 0.64084 0.0
H754 H 0.2245 0.30059 0.61386 0.0
H755 H 0.22584 0.23456 0.62145 0.0
H756 H 0.27414 0.18615 0.55238 0.0
H757 H 0.26753 0.20717 0.5792 0.0
H758 H 0.25545 0.2667 0.57076 0.0
C759 C 0.22671 0.29471 0.62689 0.0
C760 C 0.23262 0.24183 0.61068 0.0
C761 C 0.22365 0.30688 0.64232 0.0
C762 C 0.26506 0.1985 0.55073 0.0
C763 C 0.26119 0.21041 0.56608 0.0
C764 C 0.249 0.25961 0.5818 0.0
C765 C 0.23248 0.27528 0.62832 0.0
C766 C 0.23673 0.26267 0.61188 0.0
C767 C 0.24932 0.22642 0.5645 0.0
C768 C 0.24504 0.23887 0.58078 0.0
H769 H 0.23291 0.2746 0.67419 0.0
H770 H 0.23918 0.2535 0.64739 0.0
H771 H 0.24896 0.28725 0.59773 0.0
H772 H 0.23834 0.22133 0.51895 0.0
H773 H 0.23215 0.24259 0.54581 0.0
C774 C 0.53013 0.51947 0.59256 0.0
C775 C 0.54104 0.53745 0.59009 0.0
C776 C 0.51981 0.51747 0.60807 0.0
C777 C 0.50136 0.54727 0.64709 0.0
H778 H 0.49561 0.49559 0.66611 0.0
C779 C 0.44991 0.53157 0.70436 0.0
C780 C 0.45475 0.51713 0.71613 0.0
C781 C 0.46109 0.5348 0.68956 0.0
C782 C 0.4973 0.51025 0.66124 0.0
H783 H 0.55007 0.56733 0.60193 0.0
H784 H 0.53288 0.56368 0.62937 0.0
H785 H 0.51415 0.49969 0.6398 0.0
H786 H 0.47571 0.49542 0.72213 0.0
H787 H 0.49582 0.50171 0.697 0.0
H788 H 0.48538 0.55806 0.66913 0.0
C789 C 0.53159 0.55126 0.61913 0.0
C790 C 0.50766 0.51252 0.64581 0.0
C791 C 0.54159 0.55336 0.60346 0.0
C792 C 0.47148 0.50653 0.7132 0.0
C793 C 0.48291 0.51003 0.69863 0.0
C794 C 0.49128 0.54508 0.66272 0.0
C795 C 0.52049 0.53329 0.62167 0.0
C796 C 0.50973 0.53102 0.6384 0.0
C797 C 0.47765 0.5239 0.68634 0.0
C798 C 0.48897 0.5265 0.66998 0.0
H799 H 0.52931 0.50705 0.58235 0.0
H800 H 0.51111 0.50354 0.60922 0.0
H801 H 0.50232 0.56171 0.64174 0.0
H802 H 0.43697 0.53984 0.70616 0.0
H803 H 0.4563 0.54538 0.68033 0.0
C804 C 0.81337 0.23565 0.63936 0.0
C805 C 0.83155 0.22703 0.63827 0.0
C806 C 0.80843 0.25037 0.62807 0.0
C807 C 0.83039 0.28592 0.59741 0.0
H808 H 0.7749 0.28791 0.58068 0.0
C809 C 0.80144 0.33286 0.54002 0.0
C810 C 0.78531 0.34397 0.54403 0.0
C811 C 0.80835 0.31953 0.55201 0.0
C812 C 0.79044 0.2876 0.58535 0.0
H813 H 0.85881 0.22694 0.62463 0.0
H814 H 0.84989 0.25203 0.6043 0.0
H815 H 0.78422 0.26226 0.60005 0.0
H816 H 0.76414 0.35021 0.56392 0.0
H817 H 0.77598 0.32669 0.58462 0.0
H818 H 0.83649 0.31097 0.58202 0.0
C819 C 0.83963 0.24789 0.61418 0.0
C820 C 0.79581 0.27296 0.59655 0.0
C821 C 0.8447 0.23339 0.6257 0.0
C822 C 0.7766 0.34188 0.56045 0.0
C823 C 0.78329 0.32835 0.57226 0.0
C824 C 0.82502 0.30038 0.58593 0.0
C825 C 0.82141 0.2566 0.6152 0.0
C826 C 0.81584 0.272 0.60289 0.0
C827 C 0.79903 0.31685 0.56804 0.0
C828 C 0.80497 0.30144 0.57995 0.0
H829 H 0.80305 0.23124 0.64911 0.0
H830 H 0.7945 0.257 0.62961 0.0
H831 H 0.84592 0.28589 0.6022 0.0
H832 H 0.80846 0.33418 0.52747 0.0
H833 H 0.82049 0.31078 0.54844 0.0
C834 C 0.49236 0.00676 0.58948 0.0
C835 C 0.50047 0.99834 0.57401 0.0
C836 C 0.50284 0.00762 0.60649 0.0
C837 C 0.54006 0.98288 0.63231 0.0
H838 H 0.55009 0.03276 0.66212 0.0
C839 C 0.59651 0.99201 0.69507 0.0
C840 C 0.59346 0.00582 0.7095 0.0
C841 C 0.58386 0.9903 0.6792 0.0
C842 C 0.54711 0.01858 0.65421 0.0
H843 H 0.52643 0.98492 0.56443 0.0
H844 H 0.5442 0.98578 0.59413 0.0
H845 H 0.53031 0.03161 0.63332 0.0
H846 H 0.57416 0.02791 0.719 0.0
H847 H 0.55157 0.02428 0.69177 0.0
H848 H 0.55637 0.96963 0.65321 0.0
C849 C 0.52969 0.99159 0.59303 0.0
C850 C 0.53585 0.018 0.63763 0.0
C851 C 0.51942 0.99104 0.57602 0.0
C852 C 0.57701 0.01726 0.70803 0.0
C853 C 0.56415 0.01529 0.69232 0.0
C854 C 0.55102 0.98335 0.64902 0.0
C855 C 0.52148 0.99981 0.60843 0.0
C856 C 0.53245 1.00021 0.62644 0.0
C857 C 0.56764 0.00211 0.67749 0.0
C858 C 0.55494 0.00127 0.66013 0.0
H859 H 0.47773 0.01228 0.58856 0.0
H860 H 0.49616 0.01397 0.61819 0.0
H861 H 0.53743 0.96891 0.62399 0.0
H862 H 0.60918 0.98313 0.69571 0.0
H863 H 0.58729 0.9802 0.66806 0.0
C864 C 0.87122 0.205 0.71879 0.0
C865 C 0.86489 0.18517 0.71269 0.0
C866 C 0.88663 0.20934 0.7324 0.0
C867 C 0.92867 0.1886 0.75706 0.0
H868 H 0.91905 0.22877 0.79476 0.0
C869 C 0.97944 0.20378 0.82382 0.0
C870 C 0.98237 0.22355 0.83132 0.0
C871 C 0.9656 0.19857 0.80896 0.0
C872 C 0.92212 0.21763 0.78432 0.0
H873 H 0.87041 0.15436 0.71551 0.0
H874 H 0.8972 0.16194 0.73948 0.0
H875 H 0.89456 0.22076 0.76929 0.0
H876 H 0.97474 0.25368 0.82844 0.0
H877 H 0.95103 0.24485 0.80234 0.0
H878 H 0.95632 0.18554 0.77214 0.0
C879 C 0.89027 0.17413 0.73367 0.0
C880 C 0.90806 0.21308 0.76965 0.0
C881 C 0.87482 0.16978 0.72006 0.0
C882 C 0.97216 0.2382 0.82322 0.0
C883 C 0.95856 0.2331 0.80829 0.0
C884 C 0.94281 0.19319 0.77178 0.0
C885 C 0.89607 0.19395 0.74024 0.0
C886 C 0.9112 0.19861 0.75579 0.0
C887 C 0.95486 0.21318 0.8011 0.0
C888 C 0.93974 0.20783 0.78557 0.0
H889 H 0.86378 0.2172 0.71354 0.0
H890 H 0.89095 0.22478 0.73697 0.0
H891 H 0.93158 0.17748 0.74651 0.0
H892 H 0.9875 0.19233 0.82973 0.0
H893 H 0.96306 0.18307 0.80386 0.0
C894 C 0.51332 0.91844 0.50403 0.0
C895 C 0.49849 0.93156 0.50138 0.0
C896 C 0.51413 0.90165 0.49201 0.0
C897 C 0.48333 0.86884 0.45661 0.0
H898 H 0.53448 0.85003 0.44622 0.0
C899 C 0.4885 0.79197 0.41936 0.0
C900 C 0.50302 0.78989 0.40685 0.0
C901 C 0.48856 0.80942 0.4307 0.0
C902 C 0.52007 0.85517 0.44879 0.0
H903 H 0.47301 0.93767 0.48392 0.0
H904 H 0.47469 0.90864 0.46259 0.0
H905 H 0.53332 0.88066 0.46543 0.0
H906 H 0.52915 0.80451 0.39659 0.0
H907 H 0.52898 0.83523 0.41609 0.0
H908 H 0.47008 0.84378 0.43946 0.0
C909 C 0.48546 0.911 0.47421 0.0
C910 C 0.51938 0.87263 0.46004 0.0
C911 C 0.48453 0.92772 0.48637 0.0
C912 C 0.51783 0.80558 0.40616 0.0
C913 C 0.51775 0.82319 0.41739 0.0
C914 C 0.48402 0.85151 0.44522 0.0
C915 C 0.50024 0.8977 0.4769 0.0
C916 C 0.501 0.87959 0.46426 0.0
C917 C 0.50298 0.8254 0.42969 0.0
C918 C 0.50238 0.8443 0.44132 0.0
H919 H 0.52421 0.92105 0.51556 0.0
H920 H 0.52548 0.8916 0.49476 0.0
H921 H 0.4689 0.87358 0.45966 0.0
H922 H 0.477 0.7801 0.4204 0.0
H923 H 0.47726 0.81033 0.44029 0.0
C924 C 0.15552 0.33596 0.7458 0.0
C925 C 0.16979 0.32351 0.73979 0.0
C926 C 0.14302 0.33026 0.75903 0.0
C927 C 0.12501 0.28578 0.78195 0.0
H928 H 0.10637 0.32581 0.81545 0.0
C929 C 0.08096 0.26587 0.84273 0.0
C930 C 0.06245 0.274 0.8432 0.0
C931 C 0.09503 0.27276 0.83126 0.0
C932 C 0.11147 0.31451 0.80615 0.0
H933 H 0.18268 0.29557 0.74322 0.0
H934 H 0.16154 0.28593 0.76683 0.0
H935 H 0.12936 0.3359 0.79332 0.0
H936 H 0.04452 0.29635 0.83267 0.0
H937 H 0.06943 0.30879 0.81298 0.0
H938 H 0.10744 0.2644 0.79525 0.0
C939 C 0.15937 0.2998 0.76093 0.0
C940 C 0.12453 0.32025 0.79335 0.0
C941 C 0.17161 0.30536 0.74744 0.0
C942 C 0.05866 0.28979 0.83259 0.0
C943 C 0.0729 0.29693 0.82136 0.0
C944 C 0.11225 0.28003 0.79496 0.0
C945 C 0.14479 0.31211 0.76685 0.0
C946 C 0.13137 0.30598 0.78094 0.0
C947 C 0.09103 0.28817 0.8203 0.0
C948 C 0.10524 0.29435 0.80709 0.0
H949 H 0.15382 0.35002 0.74005 0.0
H950 H 0.13178 0.34001 0.76289 0.0
H951 H 0.12952 0.27434 0.77245 0.0
H952 H 0.08429 0.25363 0.8507 0.0
H953 H 0.10896 0.26585 0.83077 0.0
C954 C 0.54139 0.60121 0.51046 0.0
C955 C 0.56115 0.59594 0.51155 0.0
C956 C 0.53523 0.61441 0.49802 0.0
C957 C 0.55459 0.65365 0.47038 0.0
H958 H 0.50372 0.64235 0.4424 0.0
C959 C 0.49861 0.69435 0.4186 0.0
C960 C 0.51268 0.70294 0.40779 0.0
C961 C 0.50429 0.68135 0.43138 0.0
C962 C 0.51786 0.64587 0.45026 0.0
H963 H 0.58989 0.60022 0.50056 0.0
H964 H 0.57917 0.62323 0.47883 0.0
H965 H 0.51397 0.61982 0.46469 0.0
H966 H 0.54379 0.70425 0.40187 0.0
H967 H 0.55357 0.6814 0.4239 0.0
H968 H 0.55849 0.67972 0.45604 0.0
C969 C 0.56848 0.61737 0.48767 0.0
C970 C 0.52374 0.63294 0.46303 0.0
C971 C 0.5746 0.60413 0.50004 0.0
C972 C 0.53254 0.69804 0.41 0.0
C973 C 0.5382 0.68501 0.42274 0.0
C974 C 0.5487 0.66661 0.45766 0.0
C975 C 0.54871 0.62266 0.48649 0.0
C976 C 0.54222 0.63663 0.47318 0.0
C977 C 0.52417 0.67655 0.43365 0.0
C978 C 0.53029 0.66285 0.44737 0.0
H979 H 0.53065 0.59512 0.51914 0.0
H980 H 0.51995 0.61833 0.49757 0.0
H981 H 0.56878 0.6571 0.47817 0.0
H982 H 0.48319 0.69778 0.41733 0.0
H983 H 0.49313 0.6753 0.43968 0.0
C984 C 0.86973 0.80308 0.76168 0.0
C985 C 0.87831 0.81122 0.77866 0.0
C986 C 0.88177 0.79852 0.74766 0.0
C987 C 0.92958 0.81083 0.72989 0.0
H988 H 0.92269 0.75708 0.70679 0.0
C989 C 0.98244 0.78143 0.6773 0.0
C990 C 0.97442 0.76663 0.66391 0.0
C991 C 0.9708 0.78817 0.69104 0.0
C992 C 0.9246 0.77229 0.71277 0.0
H993 H 0.90606 0.82123 0.79428 0.0
H994 H 0.92719 0.81368 0.7695 0.0
H995 H 0.90217 0.76648 0.7311 0.0
H996 H 0.94767 0.74823 0.65364 0.0
H997 H 0.92714 0.76069 0.67676 0.0
H998 H 0.95157 0.81691 0.71122 0.0
C999 C 0.91116 0.81076 0.76715 0.0
C1000 C 0.91291 0.77759 0.72682 0.0
C1001 C 0.89912 0.81496 0.7813 0.0
C1002 C 0.95432 0.75948 0.66393 0.0
C1003 C 0.94261 0.7665 0.67735 0.0
C1004 C 0.94107 0.80564 0.71555 0.0
C1005 C 0.90259 0.80232 0.75026 0.0
C1006 C 0.91526 0.79688 0.7355 0.0
C1007 C 0.95081 0.78049 0.69144 0.0
C1008 C 0.93869 0.78629 0.70674 0.0
H1009 H 0.85373 0.79994 0.75927 0.0
H1010 H 0.87481 0.79208 0.73474 0.0
H1011 H 0.93157 0.82585 0.73634 0.0
H1012 H 0.99795 0.7871 0.67766 0.0
H1013 H 0.97775 0.79883 0.70169 0.0
C1014 C 0.03644 0.92777 0.51399 0.0
C1015 C 0.05566 0.93758 0.51726 0.0
C1016 C 0.0299 0.91319 0.52514 0.0
C1017 C 0.03989 0.89514 0.57026 0.0
H1018 H 0.01616 0.84431 0.54782 0.0
C1019 C 0.03598 0.82408 0.60828 0.0
C1020 C 0.0197 0.8098 0.60412 0.0
C1021 C 0.03805 0.84089 0.59854 0.0
C1022 C 0.02241 0.85852 0.55437 0.0
H1023 H 0.08294 0.94012 0.53474 0.0
H1024 H 0.07153 0.91486 0.55419 0.0
H1025 H 0.02377 0.87151 0.52909 0.0
H1026 H 0.99238 0.80235 0.58698 0.0
H1027 H 0.99576 0.83189 0.57024 0.0
H1028 H 0.03871 0.88219 0.59552 0.0
C1029 C 0.06146 0.91843 0.54316 0.0
C1030 C 0.0268 0.8741 0.5436 0.0
C1031 C 0.06804 0.9328 0.53196 0.0
C1032 C 0.00515 0.81304 0.59045 0.0
C1033 C 0.00717 0.82991 0.58076 0.0
C1034 C 0.03539 0.87962 0.58104 0.0
C1035 C 0.04237 0.90837 0.53983 0.0
C1036 C 0.03593 0.89247 0.55139 0.0
C1037 C 0.02382 0.84388 0.58447 0.0
C1038 C 0.02693 0.86098 0.57321 0.0
H1039 H 0.02657 0.93114 0.50274 0.0
H1040 H 0.01507 0.90575 0.5223 0.0
H1041 H 0.04663 0.90924 0.57669 0.0
H1042 H 0.0475 0.82199 0.61868 0.0
H1043 H 0.05121 0.85115 0.60164 0.0
C1044 C 0.18412 0.69497 0.74326 0.0
C1045 C 0.18067 0.6895 0.76064 0.0
C1046 C 0.16829 0.69934 0.73149 0.0
C1047 C 0.11481 0.69016 0.72063 0.0
H1048 H 0.11849 0.74153 0.70077 0.0
C1049 C 0.04775 0.71752 0.68003 0.0
C1050 C 0.05159 0.729 0.66553 0.0
C1051 C 0.06338 0.7129 0.69191 0.0
C1052 C 0.11729 0.72698 0.7059 0.0
H1053 H 0.15795 0.68349 0.77917 0.0
H1054 H 0.13017 0.69061 0.75836 0.0
H1055 H 0.14618 0.73212 0.7202 0.0
H1056 H 0.07485 0.74446 0.652 0.0
H1057 H 0.10212 0.73578 0.67217 0.0
H1058 H 0.0863 0.68457 0.70594 0.0
C1059 C 0.14516 0.69177 0.75396 0.0
C1060 C 0.13315 0.72166 0.71711 0.0
C1061 C 0.16104 0.68778 0.76586 0.0
C1062 C 0.07137 0.73579 0.66318 0.0
C1063 C 0.08703 0.73087 0.67485 0.0
C1064 C 0.09908 0.69529 0.70914 0.0
C1065 C 0.14869 0.69788 0.73679 0.0
C1066 C 0.13202 0.70325 0.72462 0.0
C1067 C 0.08328 0.71932 0.68937 0.0
C1068 C 0.10005 0.71382 0.70166 0.0
H1069 H 0.19914 0.69638 0.73895 0.0
H1070 H 0.17134 0.70388 0.71826 0.0
H1071 H 0.11368 0.6758 0.72616 0.0
H1072 H 0.03264 0.71218 0.68227 0.0
H1073 H 0.05979 0.70437 0.70313 0.0
C1074 C 0.01327 0.58024 0.50276 0.0
C1075 C 0.99361 0.57416 0.4959 0.0
C1076 C 0.01768 0.5985 0.51298 0.0
C1077 C 0.99842 0.64748 0.52308 0.0
H1078 H 0.03166 0.64851 0.56784 0.0
C1079 C 1.00094 0.71133 0.57936 0.0
C1080 C 0.01859 0.71604 0.59043 0.0
C1081 C 0.99952 0.69541 0.56608 0.0
C1082 C 0.0226 0.64862 0.55526 0.0
H1083 H 0.96326 0.58268 0.49393 0.0
H1084 H 0.97091 0.61444 0.51192 0.0
H1085 H 0.02594 0.61785 0.54813 0.0
H1086 H 0.04929 0.70957 0.59526 0.0
H1087 H 0.04699 0.68166 0.57196 0.0
H1088 H 0.99493 0.67819 0.53025 0.0
C1089 C 0.98294 0.60515 0.50934 0.0
C1090 C 0.01932 0.631 0.54396 0.0
C1091 C 0.97852 0.58686 0.49921 0.0
C1092 C 0.03534 0.70569 0.58717 0.0
C1093 C 0.03396 0.68972 0.5739 0.0
C1094 C 0.00175 0.66512 0.53435 0.0
C1095 C 0.00254 0.61111 0.51644 0.0
C1096 C 0.00699 0.63017 0.52786 0.0
C1097 C 0.01588 0.68408 0.56348 0.0
C1098 C 0.01365 0.66584 0.55071 0.0
H1099 H 0.02519 0.57071 0.50052 0.0
H1100 H 0.03295 0.60277 0.51816 0.0
H1101 H 0.98911 0.64738 0.5106 0.0
H1102 H 0.98807 0.71966 0.58129 0.0
H1103 H 0.98534 0.69151 0.5584 0.0
C1104 C 0.75873 0.86521 0.21784 0.0
C1105 C 0.74974 0.86077 0.20022 0.0
C1106 C 0.77383 0.88063 0.22154 0.0
C1107 C 0.79755 0.92558 0.20343 0.0
H1108 H 0.84174 0.91582 0.23679 0.0
C1109 C 0.86982 0.9791 0.21659 0.0
C1110 C 0.87766 0.98226 0.23462 0.0
C1111 C 0.8542 0.96436 0.21159 0.0
C1112 C 0.82952 0.91883 0.22747 0.0
H1113 H 0.74912 0.86964 0.17281 0.0
H1114 H 0.77592 0.89614 0.17917 0.0
H1115 H 0.81444 0.89025 0.22959 0.0
H1116 H 0.87446 0.97397 0.26183 0.0
H1117 H 0.84729 0.94835 0.25325 0.0
H1118 H 0.81291 0.95418 0.20127 0.0
C1119 C 0.77113 0.88783 0.19017 0.0
C1120 C 0.81376 0.9042 0.22343 0.0
C1121 C 0.75592 0.87247 0.18648 0.0
C1122 C 0.86912 0.97121 0.24771 0.0
C1123 C 0.85356 0.95658 0.24278 0.0
C1124 C 0.81347 0.9402 0.20739 0.0
C1125 C 0.78047 0.89192 0.2077 0.0
C1126 C 0.79744 0.90745 0.21153 0.0
C1127 C 0.846 0.95285 0.22465 0.0
C1128 C 0.82954 0.93705 0.2196 0.0
H1129 H 0.75453 0.85642 0.22873 0.0
H1130 H 0.78041 0.8836 0.23528 0.0
H1131 H 0.78514 0.92866 0.19434 0.0
H1132 H 0.87597 0.98779 0.20637 0.0
H1133 H 0.84872 0.96181 0.19751 0.0
C1134 C 0.76952 0.1635 0.29562 0.0
C1135 C 0.76305 0.16742 0.313 0.0
C1136 C 0.78526 0.15165 0.29288 0.0
C1137 C 0.81437 0.11417 0.31456 0.0
H1138 H 0.84892 0.12431 0.27628 0.0
C1139 C 0.86544 0.05598 0.28757 0.0
C1140 C 0.8833 0.06242 0.28038 0.0
C1141 C 0.85229 0.06969 0.29335 0.0
C1142 C 0.83968 0.12138 0.28724 0.0
H1143 H 0.76838 0.16185 0.34119 0.0
H1144 H 0.79641 0.14202 0.33655 0.0
H1145 H 0.82378 0.14693 0.28303 0.0
H1146 H 0.90187 0.08835 0.27445 0.0
H1147 H 0.87935 0.11239 0.28521 0.0
H1148 H 0.83076 0.08901 0.3192 0.0
C1149 C 0.78897 0.14771 0.32492 0.0
C1150 C 0.82494 0.13422 0.29091 0.0
C1151 C 0.77302 0.15937 0.32762 0.0
C1152 C 0.88814 0.08293 0.27981 0.0
C1153 C 0.87511 0.09669 0.28584 0.0
C1154 C 0.8293 0.10147 0.31105 0.0
C1155 C 0.79525 0.14357 0.30748 0.0
C1156 C 0.81183 0.13061 0.30441 0.0
C1157 C 0.85679 0.09024 0.29234 0.0
C1158 C 0.84196 0.1047 0.29714 0.0
H1159 H 0.7625 0.16968 0.28404 0.0
H1160 H 0.78938 0.14859 0.27921 0.0
H1161 H 0.80451 0.11073 0.32495 0.0
H1162 H 0.86121 0.04025 0.28808 0.0
H1163 H 0.83825 0.06404 0.29797 0.0
C1164 C 0.44051 0.99574 0.97296 0.0
C1165 C 0.453 0.00709 0.98658 0.0
C1166 C 0.42359 0.98431 0.9773 0.0
C1167 C 0.3856 0.98367 0.00861 0.0
H1168 H 0.37459 0.92757 0.99281 0.0
C1169 C 0.30767 0.93997 0.99773 0.0
C1170 C 0.30552 0.92164 0.00536 0.0
C1171 C 0.32621 0.95094 0.99888 0.0
C1172 C 0.37759 0.94319 0.99745 0.0
H1173 H 0.45776 0.01442 0.01562 0.0
H1174 H 0.42766 0.99525 0.02293 0.0
H1175 H 0.40661 0.94496 0.98727 0.0
H1176 H 0.32087 0.90065 0.02063 0.0
H1177 H 0.35355 0.91964 0.02216 0.0
H1178 H 0.35616 0.98213 0.01794 0.0
C1179 C 0.43114 0.99525 0.00895 0.0
C1180 C 0.39579 0.95311 0.99418 0.0
C1181 C 0.44829 0.00633 0.00468 0.0
C1182 C 0.32207 0.91486 0.01483 0.0
C1183 C 0.34075 0.9256 0.01559 0.0
C1184 C 0.36722 0.97385 0.0115 0.0
C1185 C 0.4186 0.98427 0.99528 0.0
C1186 C 0.39987 0.97345 0.99964 0.0
C1187 C 0.34302 0.94352 0.00731 0.0
C1188 C 0.36304 0.95355 0.00587 0.0
H1189 H 0.44337 0.99615 0.95886 0.0
H1190 H 0.414 0.97605 0.96652 0.0
H1191 H 0.38841 0.9994 0.01283 0.0
H1192 H 0.29515 0.94548 0.9903 0.0
H1193 H 0.32765 0.96466 0.99231 0.0
C1194 C 0.27209 0.34281 0.30767 0.0
C1195 C 0.29221 0.35026 0.30928 0.0
C1196 C 0.25707 0.35522 0.30339 0.0
C1197 C 0.25006 0.40383 0.28421 0.0
H1198 H 0.19781 0.39719 0.30267 0.0
C1199 C 0.19374 0.46291 0.27965 0.0
C1200 C 0.17485 0.45629 0.27118 0.0
C1201 C 0.20712 0.44929 0.28481 0.0
C1202 C 0.21232 0.39909 0.29735 0.0
H1203 H 0.31243 0.37659 0.30848 0.0
H1204 H 0.28638 0.39847 0.30186 0.0
H1205 H 0.22326 0.37505 0.31113 0.0
H1206 H 0.15485 0.43018 0.26214 0.0
H1207 H 0.17824 0.40625 0.27168 0.0
H1208 H 0.23927 0.42831 0.27099 0.0
C1209 C 0.28205 0.38291 0.30313 0.0
C1210 C 0.2269 0.38637 0.30212 0.0
C1211 C 0.29703 0.37044 0.30708 0.0
C1212 C 0.16932 0.43571 0.26861 0.0
C1213 C 0.18264 0.42204 0.27409 0.0
C1214 C 0.23564 0.4167 0.27974 0.0
C1215 C 0.26186 0.37543 0.3009 0.0
C1216 C 0.24605 0.38865 0.29569 0.0
C1217 C 0.2018 0.42875 0.28191 0.0
C1218 C 0.21668 0.41453 0.28633 0.0
H1219 H 0.26802 0.32724 0.30918 0.0
H1220 H 0.24178 0.34879 0.30158 0.0
H1221 H 0.26435 0.40577 0.27852 0.0
H1222 H 0.19849 0.47865 0.28182 0.0
H1223 H 0.22174 0.45483 0.29095 0.0
C1224 C 0.11796 0.0055 0.48429 0.0
C1225 C 0.10103 0.01283 0.47585 0.0
C1226 C 0.13582 0.01763 0.48777 0.0
C1227 C 0.16282 0.06097 0.47157 0.0
H1228 H 0.19402 0.06479 0.51766 0.0
C1229 C 0.23702 0.1095 0.482 0.0
C1230 C 0.24112 0.12068 0.49867 0.0
C1231 C 0.22155 0.09434 0.47968 0.0
C1232 C 0.18545 0.06401 0.50474 0.0
H1233 H 0.08946 0.03893 0.46513 0.0
H1234 H 0.12067 0.05987 0.47088 0.0
H1235 H 0.16323 0.04285 0.51302 0.0
H1236 H 0.2335 0.12415 0.52639 0.0
H1237 H 0.20562 0.09841 0.52223 0.0
H1238 H 0.18471 0.08185 0.4631 0.0
C1239 C 0.12017 0.04468 0.47461 0.0
C1240 C 0.16791 0.05128 0.50204 0.0
C1241 C 0.10231 0.03265 0.47127 0.0
C1242 C 0.23029 0.11585 0.51332 0.0
C1243 C 0.21447 0.10095 0.51093 0.0
C1244 C 0.18039 0.07348 0.47418 0.0
C1245 C 0.13715 0.03725 0.48275 0.0
C1246 C 0.15626 0.04991 0.48552 0.0
C1247 C 0.20968 0.09019 0.49397 0.0
C1248 C 0.19178 0.07554 0.49091 0.0
H1249 H 0.11757 0.99025 0.48782 0.0
H1250 H 0.14874 0.01148 0.49394 0.0
H1251 H 0.15434 0.05994 0.45858 0.0
H1252 H 0.24569 0.1126 0.47068 0.0
H1253 H 0.21882 0.08605 0.46658 0.0
C1254 C 0.79425 0.1454 0.71419 0.0
C1255 C 0.79825 0.14773 0.69616 0.0
C1256 C 0.77925 0.13141 0.71827 0.0
C1257 C 0.74822 0.08595 0.69912 0.0
H1258 H 0.71619 0.09921 0.73886 0.0
C1259 C 0.67918 0.03551 0.71454 0.0
C1260 C 0.67601 0.0338 0.73278 0.0
C1261 C 0.69391 0.04941 0.70972 0.0
C1262 C 0.725 0.09521 0.72776 0.0
H1263 H 0.78954 0.13708 0.66826 0.0
H1264 H 0.7629 0.11308 0.67535 0.0
H1265 H 0.74163 0.12365 0.73078 0.0
H1266 H 0.68664 0.04375 0.76034 0.0
H1267 H 0.71252 0.06795 0.75205 0.0
H1268 H 0.7314 0.05753 0.69606 0.0
C1269 C 0.77164 0.12185 0.68637 0.0
C1270 C 0.7397 0.10922 0.72317 0.0
C1271 C 0.78676 0.13579 0.68229 0.0
C1272 C 0.68837 0.04542 0.74617 0.0
C1273 C 0.70318 0.05922 0.74139 0.0
C1274 C 0.73336 0.07198 0.70363 0.0
C1275 C 0.7677 0.1195 0.70442 0.0
C1276 C 0.75161 0.10473 0.70888 0.0
C1277 C 0.70603 0.06151 0.7231 0.0
C1278 C 0.72162 0.07642 0.71805 0.0
H1279 H 0.80257 0.15454 0.72523 0.0
H1280 H 0.77684 0.12984 0.73234 0.0
H1281 H 0.75731 0.08185 0.68823 0.0
H1282 H 0.67001 0.02634 0.70404 0.0
H1283 H 0.69561 0.05086 0.69552 0.0
C1284 C 0.4483 0.02906 0.51076 0.0
C1285 C 0.45182 0.02478 0.5289 0.0
C1286 C 0.43491 0.04295 0.50607 0.0
C1287 C 0.41313 0.08733 0.52268 0.0
H1288 H 0.36698 0.07006 0.48958 0.0
C1289 C 0.34613 0.13463 0.516 0.0
C1290 C 0.33392 0.13307 0.4998 0.0
C1291 C 0.36185 0.12254 0.51814 0.0
C1292 C 0.37997 0.07537 0.49852 0.0
H1293 H 0.44367 0.03203 0.55624 0.0
H1294 H 0.42122 0.05694 0.54806 0.0
H1295 H 0.39208 0.04696 0.49583 0.0
H1296 H 0.32915 0.11825 0.4728 0.0
H1297 H 0.35725 0.09783 0.47612 0.0
H1298 H 0.40161 0.11585 0.52509 0.0
C1299 C 0.42879 0.04932 0.53754 0.0
C1300 C 0.39427 0.06202 0.50218 0.0
C1301 C 0.44181 0.03513 0.5422 0.0
C1302 C 0.33827 0.11972 0.48548 0.0
C1303 C 0.35428 0.10786 0.48749 0.0
C1304 C 0.39909 0.10083 0.51872 0.0
C1305 C 0.42511 0.05323 0.51943 0.0
C1306 C 0.41077 0.06779 0.51454 0.0
C1307 C 0.36607 0.1088 0.504 0.0
C1308 C 0.38205 0.09495 0.50687 0.0
H1309 H 0.45597 0.02183 0.50013 0.0
H1310 H 0.4324 0.04584 0.49202 0.0
H1311 H 0.42588 0.09216 0.53211 0.0
H1312 H 0.34306 0.14462 0.52737 0.0
H1313 H 0.37018 0.12354 0.53119 0.0
C1314 C 0.59248 0.50742 0.52948 0.0
C1315 C 0.59059 0.5134 0.54776 0.0
C1316 C 0.60683 0.4946 0.52454 0.0
C1317 C 0.65417 0.47588 0.54207 0.0
H1318 H 0.64348 0.4371 0.50062 0.0
C1319 C 0.70865 0.41693 0.52318 0.0
C1320 C 0.71263 0.41458 0.50486 0.0
C1321 C 0.69338 0.42834 0.52865 0.0
C1322 C 0.64672 0.44795 0.51216 0.0
H1323 H 0.6023 0.51028 0.57521 0.0
H1324 H 0.62674 0.48737 0.56666 0.0
H1325 H 0.61733 0.45773 0.50992 0.0
H1326 H 0.70337 0.42219 0.47792 0.0
H1327 H 0.67666 0.44194 0.4875 0.0
H1328 H 0.68351 0.46585 0.54438 0.0
C1329 C 0.61742 0.49293 0.55607 0.0
C1330 C 0.63175 0.45984 0.51748 0.0
C1331 C 0.60317 0.50588 0.561 0.0
C1332 C 0.70078 0.42371 0.49214 0.0
C1333 C 0.68538 0.43494 0.4976 0.0
C1334 C 0.66907 0.46386 0.53685 0.0
C1335 C 0.61959 0.48726 0.53776 0.0
C1336 C 0.63531 0.47408 0.53244 0.0
C1337 C 0.68159 0.43748 0.51593 0.0
C1338 C 0.66555 0.44985 0.52176 0.0
H1339 H 0.58287 0.51264 0.5189 0.0
H1340 H 0.60815 0.49078 0.5103 0.0
H1341 H 0.65763 0.4869 0.55344 0.0
H1342 H 0.71747 0.41014 0.53336 0.0
H1343 H 0.6907 0.42989 0.54285 0.0
C1344 C 0.73519 0.21438 0.36742 0.0
C1345 C 0.73053 0.21966 0.34983 0.0
C1346 C 0.73555 0.22854 0.38225 0.0
C1347 C 0.74372 0.28202 0.39411 0.0
H1348 H 0.71722 0.27173 0.43743 0.0
C1349 C 0.72351 0.32839 0.46383 0.0
C1350 C 0.74212 0.33894 0.46849 0.0
C1351 C 0.72128 0.31343 0.44951 0.0
C1352 C 0.72457 0.27485 0.42537 0.0
H1353 H 0.72286 0.24384 0.33389 0.0
H1354 H 0.72373 0.26856 0.35971 0.0
H1355 H 0.71483 0.24605 0.41202 0.0
H1356 H 0.7733 0.34118 0.4631 0.0
H1357 H 0.76949 0.31532 0.43815 0.0
H1358 H 0.75381 0.3105 0.40737 0.0
C1359 C 0.72694 0.25349 0.36207 0.0
C1360 C 0.72336 0.26011 0.41093 0.0
C1361 C 0.72633 0.23933 0.34732 0.0
C1362 C 0.75862 0.33375 0.45926 0.0
C1363 C 0.75644 0.31891 0.44502 0.0
C1364 C 0.74517 0.29658 0.40858 0.0
C1365 C 0.73157 0.24826 0.37967 0.0
C1366 C 0.73288 0.26361 0.39514 0.0
C1367 C 0.73773 0.30868 0.43985 0.0
C1368 C 0.7356 0.29321 0.42437 0.0
H1369 H 0.7384 0.19929 0.36971 0.0
H1370 H 0.73931 0.22418 0.39568 0.0
H1371 H 0.75135 0.28506 0.38217 0.0
H1372 H 0.71068 0.33193 0.47105 0.0
H1373 H 0.70667 0.30581 0.44582 0.0
C1374 C 0.52393 0.02089 0.91181 0.0
C1375 C 0.51827 0.00371 0.92029 0.0
C1376 C 0.53272 0.01939 0.89539 0.0
C1377 C 0.56131 0.98725 0.867 0.0
H1378 H 0.54437 0.02049 0.82963 0.0
C1379 C 0.59642 0.98742 0.79773 0.0
C1380 C 0.60051 0.00634 0.79151 0.0
C1381 C 0.58504 0.98516 0.81261 0.0
C1382 C 0.54939 0.0112 0.83996 0.0
H1383 H 0.51737 0.97153 0.91831 0.0
H1384 H 0.533 0.96889 0.88952 0.0
H1385 H 0.5272 0.02025 0.85732 0.0
H1386 H 0.59581 0.0377 0.79624 0.0
H1387 H 0.5764 0.03377 0.82202 0.0
H1388 H 0.58389 0.97863 0.84981 0.0
C1389 C 0.53063 0.9835 0.89564 0.0
C1390 C 0.53952 0.01106 0.85581 0.0
C1391 C 0.52164 0.985 0.91204 0.0
C1392 C 0.59289 0.02286 0.80048 0.0
C1393 C 0.58159 0.0206 0.81527 0.0
C1394 C 0.5713 0.98748 0.85113 0.0
C1395 C 0.53616 0.0007 0.8871 0.0
C1396 C 0.5456 0.99939 0.86966 0.0
C1397 C 0.57748 0.00176 0.82154 0.0
C1398 C 0.5657 0.99979 0.83758 0.0
H1399 H 0.52152 0.03555 0.91778 0.0
H1400 H 0.53706 0.03293 0.88926 0.0
H1401 H 0.56639 0.97818 0.87748 0.0
H1402 H 0.60205 0.97437 0.79117 0.0
H1403 H 0.58203 0.97042 0.81703 0.0
C1404 C 0.30427 0.28877 0.34851 0.0
C1405 C 0.3225 0.29879 0.34515 0.0
C1406 C 0.30325 0.27607 0.36237 0.0
C1407 C 0.32877 0.26444 0.40522 0.0
H1408 H 0.29276 0.21648 0.39672 0.0
C1409 C 0.31117 0.20551 0.45804 0.0
C1410 C 0.2905 0.20195 0.45944 0.0
C1411 C 0.31837 0.21695 0.44451 0.0
C1412 C 0.30298 0.22976 0.39926 0.0
H1413 H 0.354 0.30337 0.35388 0.0
H1414 H 0.35222 0.28089 0.37808 0.0
H1415 H 0.29921 0.23677 0.37182 0.0
H1416 H 0.26134 0.2085 0.44807 0.0
H1417 H 0.27386 0.2279 0.42479 0.0
H1418 H 0.33212 0.25735 0.43289 0.0
C1419 C 0.3387 0.28303 0.36999 0.0
C1420 C 0.30658 0.24146 0.38504 0.0
C1421 C 0.33974 0.29575 0.35603 0.0
C1422 C 0.27735 0.21063 0.44743 0.0
C1423 C 0.28448 0.22175 0.43396 0.0
C1424 C 0.32522 0.25259 0.41951 0.0
C1425 C 0.32044 0.27295 0.37325 0.0
C1426 C 0.31897 0.25929 0.38794 0.0
C1427 C 0.30499 0.22473 0.4321 0.0
C1428 C 0.31177 0.23549 0.41674 0.0
H1429 H 0.29074 0.29055 0.34027 0.0
H1430 H 0.28886 0.26882 0.36467 0.0
H1431 H 0.33838 0.2781 0.40791 0.0
H1432 H 0.32172 0.1991 0.46706 0.0
H1433 H 0.33429 0.21915 0.44336 0.0
C1434 C 0.53829 0.51628 0.92781 0.0
C1435 C 0.53803 0.49744 0.93472 0.0
C1436 C 0.52786 0.51882 0.91139 0.0
C1437 C 0.48539 0.50062 0.88089 0.0
H1438 H 0.5157 0.5203 0.84257 0.0
C1439 C 0.44947 0.52381 0.8133 0.0
C1440 C 0.45486 0.5122 0.7982 0.0
C1441 C 0.45993 0.52345 0.83018 0.0
C1442 C 0.50709 0.51492 0.85321 0.0
H1443 H 0.52585 0.46662 0.92975 0.0
H1444 H 0.50683 0.47141 0.90145 0.0
H1445 H 0.53274 0.51642 0.87217 0.0
H1446 H 0.47591 0.4919 0.7887 0.0
H1447 H 0.4947 0.492 0.81808 0.0
H1448 H 0.45968 0.49944 0.862 0.0
C1449 C 0.51549 0.48406 0.90878 0.0
C1450 C 0.51678 0.51272 0.87007 0.0
C1451 C 0.5263 0.48139 0.92505 0.0
C1452 C 0.47147 0.50101 0.80011 0.0
C1453 C 0.48221 0.50106 0.81687 0.0
C1454 C 0.47562 0.50327 0.86415 0.0
C1455 C 0.51646 0.50273 0.90169 0.0
C1456 C 0.50604 0.50538 0.88399 0.0
C1457 C 0.47623 0.5119 0.83212 0.0
C1458 C 0.48642 0.51028 0.85013 0.0
H1459 H 0.54661 0.52917 0.93505 0.0
H1460 H 0.5286 0.53341 0.90629 0.0
H1461 H 0.47682 0.49501 0.89146 0.0
H1462 H 0.4366 0.53239 0.81226 0.0
H1463 H 0.45512 0.53197 0.84179 0.0
C1464 C 0.72757 0.78053 0.16163 0.0
C1465 C 0.72345 0.80037 0.16016 0.0
C1466 C 0.73118 0.76843 0.1463 0.0
C1467 C 0.74481 0.77187 0.09879 0.0
H1468 H 0.73161 0.71477 0.09534 0.0
C1469 C 0.74681 0.7194 0.03354 0.0
C1470 C 0.758 0.70289 0.03537 0.0
C1471 C 0.74288 0.7315 0.04875 0.0
C1472 C 0.73545 0.7307 0.09621 0.0
H1473 H 0.71905 0.823 0.14163 0.0
H1474 H 0.72421 0.80168 0.11469 0.0
H1475 H 0.72275 0.73525 0.12155 0.0
H1476 H 0.77375 0.68604 0.05458 0.0
H1477 H 0.76636 0.70696 0.08126 0.0
H1478 H 0.75679 0.76719 0.073 0.0
C1479 C 0.7255 0.79554 0.12768 0.0
C1480 C 0.73049 0.74247 0.11126 0.0
C1481 C 0.7223 0.80774 0.14306 0.0
C1482 C 0.76521 0.69874 0.05274 0.0
C1483 C 0.76089 0.7106 0.06799 0.0
C1484 C 0.74939 0.76014 0.08358 0.0
C1485 C 0.73039 0.77582 0.1291 0.0
C1486 C 0.73518 0.76324 0.11283 0.0
C1487 C 0.74969 0.72705 0.06611 0.0
C1488 C 0.74485 0.73945 0.08222 0.0
H1489 H 0.72877 0.77463 0.17475 0.0
H1490 H 0.73522 0.75349 0.14808 0.0
H1491 H 0.74914 0.78769 0.0996 0.0
H1492 H 0.7411 0.72299 0.02032 0.0
H1493 H 0.73415 0.74408 0.04699 0.0
C1494 C 0.0421 0.05522 0.10288 0.0
C1495 C 0.04278 0.0388 0.09024 0.0
C1496 C 0.03231 0.0532 0.11868 0.0
C1497 C 0.01143 0.01449 0.14712 0.0
H1498 H 0.98541 0.05875 0.16834 0.0
C1499 C 0.97516 0.00854 0.21439 0.0
C1500 C 0.95753 0.01784 0.21673 0.0
C1501 C 0.98649 0.01236 0.19984 0.0
C1502 C 0.99238 0.04612 0.16253 0.0
H1503 H 0.03339 0.00755 0.0839 0.0
H1504 H 0.01551 0.00411 0.11094 0.0
H1505 H 0.0022 0.06241 0.14086 0.0
H1506 H 0.93801 0.03859 0.20575 0.0
H1507 H 0.95719 0.0446 0.1799 0.0
H1508 H 1.00058 0.99778 0.16805 0.0
C1509 C 0.02314 0.01843 0.10916 0.0
C1510 C 0.00236 0.04834 0.14685 0.0
C1511 C 0.03327 0.02038 0.09356 0.0
C1512 C 0.95165 0.03135 0.20439 0.0
C1513 C 0.96275 0.03484 0.18959 0.0
C1514 C 0.00115 0.01216 0.16258 0.0
C1515 C 0.02261 0.03477 0.12205 0.0
C1516 C 0.01205 0.03254 0.13889 0.0
C1517 C 0.98023 0.02521 0.18695 0.0
C1518 C 0.99148 0.02794 0.17057 0.0
H1519 H 0.04948 0.06955 0.10068 0.0
H1520 H 0.03262 0.06606 0.12835 0.0
H1521 H 0.01897 0.00205 0.14171 0.0
H1522 H 0.98018 0.9982 0.22379 0.0
H1523 H 1.00012 0.00507 0.19868 0.0
C1524 C 0.32837 0.75863 0.15433 0.0
C1525 C 0.3279 0.73803 0.15004 0.0
C1526 C 0.32472 0.77139 0.14081 0.0
C1527 C 0.30283 0.77112 0.09335 0.0
H1528 H 0.32744 0.82527 0.09803 0.0
C1529 C 0.29405 0.82546 0.03751 0.0
C1530 C 0.28619 0.84326 0.04343 0.0
C1531 C 0.30102 0.81273 0.05002 0.0
C1532 C 0.3205 0.81017 0.09658 0.0
H1533 H 0.324 0.71456 0.12824 0.0
H1534 H 0.31851 0.73681 0.10449 0.0
H1535 H 0.33645 0.80248 0.1205 0.0
H1536 H 0.2802 0.86212 0.067 0.0
H1537 H 0.29296 0.84011 0.08887 0.0
H1538 H 0.28729 0.77888 0.06913 0.0
C1539 C 0.32093 0.74318 0.11834 0.0
C1540 C 0.32551 0.79711 0.10951 0.0
C1541 C 0.3242 0.73039 0.13194 0.0
C1542 C 0.28615 0.84847 0.06207 0.0
C1543 C 0.2935 0.83595 0.07457 0.0
C1544 C 0.29814 0.78408 0.08025 0.0
C1545 C 0.32093 0.76386 0.1226 0.0
C1546 C 0.31652 0.77747 0.10824 0.0
C1547 C 0.30065 0.8178 0.06864 0.0
C1548 C 0.30674 0.80378 0.08188 0.0
H1549 H 0.33114 0.76484 0.16823 0.0
H1550 H 0.32447 0.78711 0.14476 0.0
H1551 H 0.29526 0.7563 0.09201 0.0
H1552 H 0.29419 0.82103 0.02322 0.0
H1553 H 0.30655 0.79883 0.04515 0.0
C1554 C 0.98968 0.50152 0.09356 0.0
C1555 C 0.99807 0.49383 0.07796 0.0
C1556 C 1.00008 0.50208 0.11058 0.0
C1557 C 0.03843 0.47797 0.13588 0.0
H1558 H 0.04701 0.52755 0.16627 0.0
C1559 C 0.09632 0.4888 0.19765 0.0
C1560 C 0.09316 0.50242 0.21218 0.0
C1561 C 0.08311 0.48648 0.18212 0.0
C1562 C 0.04444 0.51342 0.15821 0.0
H1563 H 0.0244 0.48132 0.06818 0.0
H1564 H 0.04206 0.48165 0.09786 0.0
H1565 H 0.02676 0.52617 0.13773 0.0
H1566 H 0.07306 0.52336 0.22234 0.0
H1567 H 0.04952 0.51861 0.19576 0.0
H1568 H 0.05572 0.46502 0.15636 0.0
C1569 C 0.02738 0.48711 0.09687 0.0
C1570 C 0.0329 0.51272 0.14178 0.0
C1571 C 0.01718 0.48687 0.07986 0.0
C1572 C 0.07599 0.51289 0.21127 0.0
C1573 C 0.06259 0.51029 0.19592 0.0
C1574 C 0.04969 0.47856 0.15245 0.0
C1575 C 0.01894 0.49468 0.11239 0.0
C1576 C 0.03003 0.49507 0.13035 0.0
C1577 C 0.06624 0.49747 0.1809 0.0
C1578 C 0.0531 0.49638 0.16377 0.0
H1579 H 0.97492 0.50676 0.09271 0.0
H1580 H 0.99323 0.50793 0.12238 0.0
H1581 H 0.03624 0.46411 0.12737 0.0
H1582 H 0.10954 0.48068 0.19789 0.0
H1583 H 0.08665 0.47666 0.17082 0.0
C1584 C 0.36968 0.70222 0.22295 0.0
C1585 C 0.36278 0.68291 0.21562 0.0
C1586 C 0.38561 0.7052 0.23616 0.0
C1587 C 0.41286 0.6804 0.27126 0.0
H1588 H 0.45237 0.72488 0.26925 0.0
C1589 C 0.48061 0.69869 0.32445 0.0
C1590 C 0.48316 0.71873 0.33124 0.0
C1591 C 0.46722 0.69276 0.30937 0.0
C1592 C 0.44142 0.71243 0.27003 0.0
H1593 H 0.36739 0.65158 0.21637 0.0
H1594 H 0.3952 0.65683 0.23959 0.0
H1595 H 0.42631 0.71739 0.24477 0.0
H1596 H 0.47524 0.74852 0.32705 0.0
H1597 H 0.45195 0.73831 0.30089 0.0
H1598 H 0.42787 0.67573 0.29677 0.0
C1599 C 0.38813 0.66962 0.23516 0.0
C1600 C 0.42647 0.70817 0.25602 0.0
C1601 C 0.3722 0.66663 0.22187 0.0
C1602 C 0.47308 0.73289 0.32227 0.0
C1603 C 0.45995 0.72706 0.30718 0.0
C1604 C 0.42786 0.68468 0.28531 0.0
C1605 C 0.39502 0.68896 0.24242 0.0
C1606 C 0.4118 0.69234 0.25663 0.0
C1607 C 0.45672 0.70693 0.30064 0.0
C1608 C 0.44207 0.70098 0.28498 0.0
H1609 H 0.36252 0.71506 0.21875 0.0
H1610 H 0.3903 0.72026 0.24173 0.0
H1611 H 0.40167 0.6682 0.27219 0.0
H1612 H 0.4886 0.68763 0.33102 0.0
H1613 H 0.46515 0.67716 0.3045 0.0
C1614 C 0.99331 0.42645 0.99208 0.0
C1615 C 0.98659 0.4227 0.00903 0.0
C1616 C 0.99711 0.41063 0.97983 0.0
C1617 C 0.98184 0.35845 0.9672 0.0
H1618 H 0.03223 0.35561 0.94548 0.0
C1619 C 0.99773 0.28733 0.92628 0.0
C1620 C 0.00775 0.289 0.91052 0.0
C1621 C 0.99704 0.30382 0.93861 0.0
C1622 C 0.01797 0.35628 0.95121 0.0
H1623 H 0.9787 0.39972 0.02657 0.0
H1624 H 0.98478 0.3721 0.00501 0.0
H1625 H 0.02686 0.38466 0.96579 0.0
H1626 H 0.02547 0.30901 0.89549 0.0
H1627 H 0.02368 0.33823 0.91674 0.0
H1628 H 0.97249 0.33064 0.9524 0.0
C1629 C 0.98722 0.3872 0.00123 0.0
C1630 C 0.01495 0.37289 0.96287 0.0
C1631 C 0.98378 0.40297 0.01355 0.0
C1632 C 0.01778 0.30734 0.90764 0.0
C1633 C 0.01674 0.32404 0.91984 0.0
C1634 C 0.9847 0.34207 0.95538 0.0
C1635 C 0.99389 0.39087 0.98425 0.0
C1636 C 0.99694 0.37396 0.97115 0.0
C1637 C 0.00591 0.32259 0.93527 0.0
C1638 C 0.00292 0.34054 0.94744 0.0
H1639 H 0.99575 0.44155 0.98832 0.0
H1640 H 0.00217 0.41381 0.96678 0.0
H1641 H 0.96769 0.35908 0.97319 0.0
H1642 H 0.99006 0.27327 0.9289 0.0
H1643 H 0.98917 0.30188 0.95062 0.0
C1644 C 0.686 0.81673 0.2676 0.0
C1645 C 0.68091 0.81643 0.24897 0.0
C1646 C 0.6714 0.81238 0.27946 0.0
C1647 C 0.61807 0.81245 0.28501 0.0
H1648 H 0.62699 0.77257 0.3187 0.0
C1649 C 0.55526 0.77972 0.32562 0.0
C1650 C 0.56025 0.77319 0.34269 0.0
C1651 C 0.57015 0.78657 0.31494 0.0
C1652 C 0.62435 0.78405 0.30968 0.0
H1653 H 0.65653 0.81183 0.22809 0.0
H1654 H 0.63089 0.80457 0.24892 0.0
H1655 H 0.6526 0.78148 0.29861 0.0
H1656 H 0.58468 0.76966 0.36234 0.0
H1657 H 0.61065 0.78244 0.3441 0.0
H1658 H 0.59005 0.81544 0.29625 0.0
C1659 C 0.64622 0.80802 0.25431 0.0
C1660 C 0.63902 0.78903 0.29807 0.0
C1661 C 0.66089 0.81205 0.2424 0.0
C1662 C 0.58039 0.77446 0.34918 0.0
C1663 C 0.59529 0.78161 0.33862 0.0
C1664 C 0.6035 0.80771 0.29682 0.0
C1665 C 0.65137 0.80801 0.27294 0.0
C1666 C 0.63596 0.80315 0.28553 0.0
C1667 C 0.59041 0.78736 0.32117 0.0
C1668 C 0.60635 0.79329 0.30922 0.0
H1669 H 0.70134 0.82015 0.27299 0.0
H1670 H 0.67575 0.81263 0.29377 0.0
H1671 H 0.61544 0.82357 0.2756 0.0
H1672 H 0.53986 0.77878 0.32018 0.0
H1673 H 0.56574 0.79055 0.30152 0.0
C1674 C 0.03943 0.09897 0.00747 0.0
C1675 C 0.05934 0.09423 0.00907 0.0
C1676 C 0.03319 0.11165 0.99459 0.0
C1677 C 0.04746 0.13214 0.95205 0.0
H1678 H 0.01138 0.17206 0.96452 0.0
C1679 C 0.03228 0.19646 0.90751 0.0
C1680 C 0.01258 0.20182 0.90537 0.0
C1681 C 0.03746 0.18269 0.91974 0.0
C1682 C 0.02128 0.16083 0.96075 0.0
H1683 H 0.08831 0.099 0.99861 0.0
H1684 H 0.07756 0.12133 0.97634 0.0
H1685 H 0.02131 0.14935 0.98674 0.0
H1686 H 0.9828 0.19653 0.91432 0.0
H1687 H 0.99186 0.1725 0.93553 0.0
H1688 H 0.04757 0.14377 0.92612 0.0
C1689 C 0.06665 0.11507 0.98478 0.0
C1690 C 0.02696 0.1478 0.97349 0.0
C1691 C 0.07286 0.10239 0.99761 0.0
C1692 C 0.99815 0.19286 0.91563 0.0
C1693 C 0.00335 0.17915 0.92789 0.0
C1694 C 0.04182 0.1452 0.93934 0.0
C1695 C 0.04672 0.11983 0.98306 0.0
C1696 C 0.04021 0.13335 0.96934 0.0
C1697 C 0.02308 0.17397 0.93017 0.0
C1698 C 0.02873 0.15977 0.94355 0.0
H1699 H 0.02863 0.09282 0.01607 0.0
H1700 H 0.01768 0.11481 0.9935 0.0
H1701 H 0.0574 0.12097 0.94828 0.0
H1702 H 0.04381 0.20304 0.89988 0.0
H1703 H 0.05284 0.17918 0.9213 0.0
C1704 C 0.37764 0.30859 0.26189 0.0
C1705 C 0.38612 0.31368 0.27956 0.0
C1706 C 0.38976 0.30528 0.24767 0.0
C1707 C 0.44189 0.29524 0.23825 0.0
H1708 H 0.42323 0.30578 0.18972 0.0
C1709 C 0.48853 0.28599 0.17568 0.0
C1710 C 0.47927 0.27132 0.16269 0.0
C1711 C 0.47788 0.29375 0.18971 0.0
C1712 C 0.42863 0.3029 0.20324 0.0
H1713 H 0.41381 0.31953 0.29629 0.0
H1714 H 0.43511 0.31475 0.27139 0.0
H1715 H 0.40365 0.31472 0.21499 0.0
H1716 H 0.45146 0.25398 0.15366 0.0
H1717 H 0.43269 0.26816 0.17774 0.0
H1718 H 0.46715 0.28385 0.22627 0.0
C1719 C 0.41911 0.31265 0.26847 0.0
C1720 C 0.41734 0.30779 0.21774 0.0
C1721 C 0.40694 0.31554 0.28276 0.0
C1722 C 0.45897 0.26526 0.1635 0.0
C1723 C 0.44822 0.27338 0.17722 0.0
C1724 C 0.45338 0.29077 0.22378 0.0
C1725 C 0.4107 0.30738 0.25069 0.0
C1726 C 0.42357 0.30364 0.23543 0.0
C1727 C 0.45769 0.28736 0.19065 0.0
C1728 C 0.44666 0.29422 0.20613 0.0
H1729 H 0.3616 0.3068 0.25906 0.0
H1730 H 0.3826 0.30072 0.23436 0.0
H1731 H 0.44712 0.29147 0.25153 0.0
H1732 H 0.50421 0.29079 0.17544 0.0
H1733 H 0.48545 0.30453 0.19996 0.0
C1734 C 0.53669 0.43096 0.01294 0.0
C1735 C 0.55069 0.44652 0.02017 0.0
C1736 C 0.53209 0.4147 0.02291 0.0
C1737 C 0.53634 0.39857 0.06971 0.0
H1738 H 0.52862 0.34556 0.04502 0.0
C1739 C 0.53782 0.32659 0.10693 0.0
C1740 C 0.52359 0.31075 0.10084 0.0
C1741 C 0.53966 0.34364 0.09747 0.0
C1742 C 0.5305 0.3603 0.05209 0.0
H1743 H 0.57086 0.45734 0.04337 0.0
H1744 H 0.56326 0.42887 0.0606 0.0
H1745 H 0.53469 0.37424 0.02765 0.0
H1746 H 0.49988 0.30054 0.08022 0.0
H1747 H 0.50317 0.33027 0.06368 0.0
H1748 H 0.53263 0.38447 0.0942 0.0
C1749 C 0.55545 0.4293 0.04744 0.0
C1750 C 0.53394 0.37676 0.04213 0.0
C1751 C 0.55993 0.44557 0.03753 0.0
C1752 C 0.511 0.31248 0.08527 0.0
C1753 C 0.51296 0.32945 0.07572 0.0
C1754 C 0.53305 0.38208 0.07968 0.0
C1755 C 0.54147 0.41362 0.04028 0.0
C1756 C 0.53703 0.39612 0.05081 0.0
C1757 C 0.52743 0.34514 0.08162 0.0
C1758 C 0.5302 0.36275 0.07099 0.0
H1759 H 0.52925 0.43131 0.99961 0.0
H1760 H 0.52105 0.40306 0.01705 0.0
H1761 H 0.53825 0.41325 0.07684 0.0
H1762 H 0.54776 0.3257 0.11887 0.0
H1763 H 0.55107 0.35541 0.10227 0.0
C1764 C 0.68578 0.19591 0.24268 0.0
C1765 C 0.68233 0.19081 0.26015 0.0
C1766 C 0.67001 0.20039 0.23089 0.0
C1767 C 0.61762 0.21449 0.23077 0.0
H1768 H 0.61831 0.2027 0.17901 0.0
C1769 C 0.55022 0.22018 0.17906 0.0
C1770 C 0.55429 0.23107 0.16421 0.0
C1771 C 0.56573 0.21549 0.19102 0.0
C1772 C 0.61802 0.20616 0.19344 0.0
H1773 H 0.65965 0.1855 0.27883 0.0
H1774 H 0.632 0.19239 0.25807 0.0
H1775 H 0.64525 0.19294 0.19914 0.0
H1776 H 0.57785 0.24551 0.15025 0.0
H1777 H 0.60498 0.23689 0.17097 0.0
H1778 H 0.58994 0.22711 0.2249 0.0
C1779 C 0.64693 0.19375 0.25359 0.0
C1780 C 0.63349 0.20067 0.20501 0.0
C1781 C 0.66276 0.18963 0.26548 0.0
C1782 C 0.57421 0.23721 0.16162 0.0
C1783 C 0.58974 0.23218 0.17338 0.0
C1784 C 0.60197 0.21964 0.2192 0.0
C1785 C 0.65035 0.19949 0.23622 0.0
C1786 C 0.63359 0.20487 0.22385 0.0
C1787 C 0.58564 0.22125 0.18816 0.0
C1788 C 0.60211 0.21564 0.20044 0.0
H1789 H 0.70078 0.197 0.23831 0.0
H1790 H 0.67337 0.20504 0.21778 0.0
H1791 H 0.6173 0.21839 0.24513 0.0
H1792 H 0.53503 0.21526 0.18143 0.0
H1793 H 0.56221 0.20697 0.20228 0.0
C1794 C 0.50043 0.08896 0.98989 0.0
C1795 C 0.49595 0.07143 0.99833 0.0
C1796 C 0.50472 0.10721 1.00017 0.0
C1797 C 0.52061 0.12904 0.04658 0.0
H1798 H 0.49721 0.17584 0.03063 0.0
C1799 C 0.50293 0.21108 0.07877 0.0
C1800 C 0.52058 0.21604 0.08981 0.0
C1801 C 0.50137 0.19457 0.06608 0.0
C1802 C 0.50381 0.1629 0.03531 0.0
H1803 H 0.49285 0.05928 0.0242 0.0
H1804 H 0.49996 0.09111 0.04208 0.0
H1805 H 0.49141 0.14436 0.01195 0.0
H1806 H 0.55112 0.20929 0.09515 0.0
H1807 H 0.54855 0.18034 0.07295 0.0
H1808 H 0.53256 0.14734 0.07014 0.0
C1809 C 0.50035 0.09075 0.02753 0.0
C1810 C 0.50066 0.1449 0.0245 0.0
C1811 C 0.49604 0.07254 0.01727 0.0
C1812 C 0.53717 0.20526 0.0871 0.0
C1813 C 0.53563 0.1887 0.07446 0.0
C1814 C 0.52379 0.14702 0.05735 0.0
C1815 C 0.50469 0.10832 0.01911 0.0
C1816 C 0.50885 0.12771 0.03011 0.0
C1817 C 0.51756 0.18287 0.06408 0.0
C1818 C 0.51524 0.16413 0.05196 0.0
H1819 H 0.50032 0.08862 0.97532 0.0
H1820 H 0.50817 0.12044 0.99329 0.0
H1821 H 0.52736 0.11613 0.05118 0.0
H1822 H 0.4902 0.21972 0.08025 0.0
H1823 H 0.48721 0.19054 0.05839 0.0
C1824 C 0.25406 0.37373 0.68427 0.0
C1825 C 0.24805 0.36232 0.69827 0.0
C1826 C 0.26832 0.38997 0.68785 0.0
C1827 C 0.29202 0.42562 0.72452 0.0
H1828 H 0.33624 0.42991 0.69404 0.0
C1829 C 0.36394 0.47505 0.74656 0.0
C1830 C 0.37341 0.48546 0.73357 0.0
C1831 C 0.34777 0.46118 0.74145 0.0
C1832 C 0.32382 0.42912 0.7025 0.0
H1833 H 0.25233 0.35922 0.72705 0.0
H1834 H 0.27688 0.38774 0.73331 0.0
H1835 H 0.30924 0.40365 0.68654 0.0
H1836 H 0.37281 0.4908 0.70529 0.0
H1837 H 0.34433 0.46629 0.69612 0.0
H1838 H 0.30656 0.45096 0.74054 0.0
C1839 C 0.27045 0.38417 0.71958 0.0
C1840 C 0.30838 0.41407 0.69822 0.0
C1841 C 0.25631 0.36786 0.71599 0.0
C1842 C 0.36594 0.48251 0.71543 0.0
C1843 C 0.34974 0.46849 0.71024 0.0
C1844 C 0.30736 0.4407 0.72874 0.0
C1845 C 0.27676 0.39528 0.70553 0.0
C1846 C 0.29246 0.41201 0.70933 0.0
C1847 C 0.34053 0.45763 0.72322 0.0
C1848 C 0.32358 0.44246 0.71792 0.0
H1849 H 0.24777 0.37007 0.67051 0.0
H1850 H 0.27271 0.39842 0.67679 0.0
H1851 H 0.27979 0.4246 0.73317 0.0
H1852 H 0.36915 0.47757 0.76073 0.0
H1853 H 0.34118 0.45295 0.75176 0.0
C1854 C 0.27264 0.66128 0.82847 0.0
C1855 C 0.2623 0.6688 0.81375 0.0
C1856 C 0.28893 0.65007 0.82585 0.0
C1857 C 0.32488 0.63665 0.79174 0.0
H1858 H 0.33147 0.59195 0.8205 0.0
C1859 C 0.38757 0.58482 0.77984 0.0
C1860 C 0.3825 0.56437 0.78059 0.0
C1861 C 0.37488 0.59882 0.7861 0.0
C1862 C 0.3298 0.60427 0.81223 0.0
H1863 H 0.26152 0.6707 0.78473 0.0
H1864 H 0.28901 0.65035 0.78007 0.0
H1865 H 0.30518 0.61356 0.82634 0.0
H1866 H 0.36039 0.54258 0.78888 0.0
H1867 H 0.33806 0.56674 0.79916 0.0
H1868 H 0.34866 0.62663 0.77687 0.0
C1869 C 0.2849 0.65347 0.79374 0.0
C1870 C 0.31485 0.61692 0.81579 0.0
C1871 C 0.26881 0.66489 0.79638 0.0
C1872 C 0.3648 0.55824 0.7882 0.0
C1873 C 0.35201 0.57218 0.79423 0.0
C1874 C 0.33964 0.62385 0.78802 0.0
C1875 C 0.2952 0.64586 0.80842 0.0
C1876 C 0.31199 0.63314 0.80543 0.0
C1877 C 0.3567 0.59267 0.79303 0.0
C1878 C 0.34214 0.6073 0.79805 0.0
H1879 H 0.268 0.66377 0.84203 0.0
H1880 H 0.29661 0.64474 0.83755 0.0
H1881 H 0.32347 0.64921 0.7837 0.0
H1882 H 0.40117 0.59 0.77413 0.0
H1883 H 0.37923 0.61446 0.78529 0.0
C1884 C 0.94965 0.4922 0.48776 0.0
C1885 C 0.94876 0.51167 0.48269 0.0
C1886 C 0.93246 0.48141 0.49242 0.0
C1887 C 0.88052 0.48842 0.50503 0.0
H1888 H 0.8725 0.43139 0.49298 0.0
C1889 C 0.80441 0.44171 0.4969 0.0
C1890 C 0.80311 0.42356 0.5049 0.0
C1891 C 0.82256 0.45331 0.49765 0.0
C1892 C 0.8747 0.44728 0.49666 0.0
H1893 H 0.92931 0.53495 0.47783 0.0
H1894 H 0.89917 0.51594 0.485 0.0
H1895 H 0.90345 0.44946 0.48628 0.0
H1896 H 0.81957 0.4036 0.52047 0.0
H1897 H 0.85154 0.42373 0.52137 0.0
H1898 H 0.85113 0.48619 0.51441 0.0
C1899 C 0.91314 0.50913 0.48619 0.0
C1900 C 0.89245 0.45767 0.49286 0.0
C1901 C 0.93036 0.52 0.48187 0.0
C1902 C 0.8201 0.41765 0.51438 0.0
C1903 C 0.8384 0.42904 0.51476 0.0
C1904 C 0.86262 0.47806 0.50849 0.0
C1905 C 0.91396 0.48978 0.49179 0.0
C1906 C 0.89553 0.47845 0.49678 0.0
C1907 C 0.83984 0.44674 0.50605 0.0
C1908 C 0.85949 0.45744 0.50419 0.0
H1909 H 0.96375 0.48556 0.48864 0.0
H1910 H 0.9338 0.46668 0.49687 0.0
H1911 H 0.88247 0.5043 0.50872 0.0
H1912 H 0.79154 0.44656 0.48945 0.0
H1913 H 0.82333 0.46684 0.49075 0.0
C1914 C 0.77146 0.84078 0.79168 0.0
C1915 C 0.78302 0.84452 0.80821 0.0
C1916 C 0.75586 0.85247 0.78745 0.0
C1917 C 0.72444 0.89041 0.80762 0.0
H1918 H 0.71637 0.90299 0.75784 0.0
C1919 C 0.68171 0.9563 0.78446 0.0
C1920 C 0.66838 0.95249 0.76897 0.0
C1921 C 0.69381 0.94169 0.79002 0.0
C1922 C 0.71829 0.89942 0.77175 0.0
H1923 H 0.7873 0.86328 0.83333 0.0
H1924 H 0.76059 0.88419 0.82577 0.0
H1925 H 0.74129 0.88047 0.76598 0.0
H1926 H 0.65695 0.93024 0.74739 0.0
H1927 H 0.67838 0.90484 0.75694 0.0
H1928 H 0.70192 0.91021 0.81337 0.0
C1929 C 0.76309 0.87189 0.81622 0.0
C1930 C 0.73254 0.88642 0.77645 0.0
C1931 C 0.77849 0.85998 0.82055 0.0
C1932 C 0.66704 0.93361 0.7594 0.0
C1933 C 0.67937 0.91911 0.7648 0.0
C1934 C 0.71039 0.90366 0.80294 0.0
C1935 C 0.75165 0.86842 0.79952 0.0
C1936 C 0.73589 0.88176 0.79447 0.0
C1937 C 0.69304 0.92309 0.78004 0.0
C1938 C 0.70722 0.90833 0.78497 0.0
H1939 H 0.7745 0.82878 0.78201 0.0
H1940 H 0.74714 0.84897 0.77466 0.0
H1941 H 0.72627 0.88694 0.82156 0.0
H1942 H 0.68305 0.97069 0.79213 0.0
H1943 H 0.7043 0.94521 0.80175 0.0
C1944 C 0.60117 0.53642 0.97173 0.0
C1945 C 0.59994 0.51636 0.97562 0.0
C1946 C 0.61913 0.54828 0.97492 0.0
C1947 C 0.66759 0.55374 0.00113 0.0
H1948 H 0.68293 0.58668 0.96328 0.0
C1949 C 0.72987 0.61831 0.01332 0.0
C1950 C 0.74088 0.62321 0.99879 0.0
C1951 C 0.71378 0.60375 0.0107 0.0
C1952 C 0.67899 0.57762 0.97402 0.0
H1953 H 0.6167 0.49317 0.98623 0.0
H1954 H 0.64812 0.51412 0.99209 0.0
H1955 H 0.6526 0.56458 0.95859 0.0
H1956 H 0.74534 0.61556 0.9707 0.0
H1957 H 0.71767 0.58976 0.9661 0.0
H1958 H 0.69403 0.56678 0.01657 0.0
C1959 C 0.63506 0.52056 0.98655 0.0
C1960 C 0.66148 0.565 0.97135 0.0
C1961 C 0.61707 0.5086 0.98323 0.0
C1962 C 0.73651 0.61248 0.98192 0.0
C1963 C 0.72066 0.59772 0.97933 0.0
C1964 C 0.68507 0.56655 0.00389 0.0
C1965 C 0.63631 0.54046 0.98221 0.0
C1966 C 0.65546 0.55309 0.98493 0.0
C1967 C 0.7088 0.59341 0.9936 0.0
C1968 C 0.69087 0.57886 0.99044 0.0
H1969 H 0.58817 0.54303 0.96628 0.0
H1970 H 0.61954 0.56368 0.97177 0.0
H1971 H 0.66331 0.5447 0.01184 0.0
H1972 H 0.7333 0.62621 0.02655 0.0
H1973 H 0.70493 0.60102 0.02197 0.0
C1974 C 0.27763 0.6516 0.19219 0.0
C1975 C 0.29742 0.64649 0.19223 0.0
C1976 C 0.26234 0.63756 0.19562 0.0
C1977 C 0.24808 0.5841 0.19564 0.0
H1978 H 0.21387 0.60037 0.23284 0.0
C1979 C 0.17893 0.53472 0.21282 0.0
C1980 C 0.176 0.53406 0.23122 0.0
C1981 C 0.19337 0.54843 0.20722 0.0
C1982 C 0.22321 0.59561 0.22238 0.0
H1983 H 0.31665 0.62258 0.19523 0.0
H1984 H 0.28979 0.59791 0.20103 0.0
H1985 H 0.23952 0.62422 0.22386 0.0
H1986 H 0.18673 0.54577 0.25833 0.0
H1987 H 0.21188 0.56987 0.24866 0.0
H1988 H 0.23181 0.55542 0.19426 0.0
C1989 C 0.28618 0.61279 0.1984 0.0
C1990 C 0.23783 0.6093 0.21717 0.0
C1991 C 0.30153 0.62691 0.1952 0.0
C1992 C 0.18823 0.54664 0.24402 0.0
C1993 C 0.20264 0.56035 0.23847 0.0
C1994 C 0.23322 0.57045 0.20067 0.0
C1995 C 0.26649 0.61809 0.19894 0.0
C1996 C 0.2505 0.60366 0.20384 0.0
C1997 C 0.20533 0.56145 0.22 0.0
C1998 C 0.2207 0.57604 0.21418 0.0
H1999 H 0.27407 0.66663 0.1901 0.0
H2000 H 0.24726 0.64199 0.19585 0.0
H2001 H 0.25764 0.57939 0.18531 0.0
H2002 H 0.1699 0.52479 0.20277 0.0
H2003 H 0.19505 0.54896 0.1929 0.0
C2004 C 0.95574 0.54235 0.03877 0.0
C2005 C 0.9512 0.52219 0.0325 0.0
C2006 C 0.94269 0.55668 0.03445 0.0
C2007 C 0.9022 0.56685 0.0016 0.0
H2008 H 0.88653 0.6027 0.04027 0.0
C2009 C 0.83418 0.61301 0.99255 0.0
C2010 C 0.83433 0.63152 0.00255 0.0
C2011 C 0.84986 0.60091 0.99517 0.0
C2012 C 0.89099 0.59312 0.0292 0.0
H2013 H 0.92906 0.50146 0.01687 0.0
H2014 H 0.90672 0.52652 0.00896 0.0
H2015 H 0.91138 0.57949 0.04681 0.0
H2016 H 0.85149 0.65232 0.0225 0.0
H2017 H 0.87917 0.63163 0.02659 0.0
H2018 H 0.88204 0.58053 0.98391 0.0
C2019 C 0.92046 0.53121 0.01713 0.0
C2020 C 0.9052 0.57974 0.033 0.0
C2021 C 0.93335 0.51685 0.02163 0.0
C2022 C 0.85088 0.63806 0.01467 0.0
C2023 C 0.86668 0.62608 0.01713 0.0
C2024 C 0.88817 0.58041 0.99774 0.0
C2025 C 0.92492 0.55125 0.02357 0.0
C2026 C 0.91077 0.56629 0.01929 0.0
C2027 C 0.8662 0.60714 0.00771 0.0
C2028 C 0.88215 0.59357 0.01153 0.0
H2029 H 0.96947 0.54714 0.0469 0.0
H2030 H 0.94659 0.57207 0.03947 0.0
H2031 H 0.90639 0.55682 0.99072 0.0
H2032 H 0.82158 0.60749 0.9832 0.0
H2033 H 0.84874 0.58635 0.98783 0.0
C2034 C 0.09185 0.9958 0.0525 0.0
C2035 C 0.09336 0.01583 0.04839 0.0
C2036 C 0.10648 0.98317 0.04777 0.0
C2037 C 0.14323 0.97546 0.01505 0.0
H2038 H 0.17014 0.94577 0.05052 0.0
C2039 C 0.21199 0.93437 0.99812 0.0
C2040 C 0.21512 0.91653 0.00596 0.0
C2041 C 0.19694 0.94603 0.00359 0.0
C2042 C 0.16257 0.95364 0.04033 0.0
H2043 H 0.11202 0.03826 0.03654 0.0
H2044 H 0.1369 0.01598 0.02767 0.0
H2045 H 0.14385 0.96647 0.05947 0.0
H2046 H 0.20471 0.8968 0.02554 0.0
H2047 H 0.17793 0.91668 0.03457 0.0
H2048 H 0.16129 0.96235 0.99573 0.0
C2049 C 0.12435 0.01014 0.03453 0.0
C2050 C 0.14757 0.96557 0.04552 0.0
C2051 C 0.10997 0.02285 0.03953 0.0
C2052 C 0.20279 0.91056 0.01934 0.0
C2053 C 0.18748 0.92206 0.0246 0.0
C2054 C 0.15795 0.96327 0.00977 0.0
C2055 C 0.12273 0.99018 0.03857 0.0
C2056 C 0.13795 0.97677 0.03298 0.0
C2057 C 0.18433 0.93999 0.0168 0.0
C2058 C 0.16804 0.95237 0.02237 0.0
H2059 H 0.07919 0.98972 0.05906 0.0
H2060 H 0.10486 0.96778 0.05094 0.0
H2061 H 0.13584 0.98376 0.00507 0.0
H2062 H 0.22136 0.9395 0.9879 0.0
H2063 H 0.19539 0.95993 0.99755 0.0
loop_
_geom_bond_atom_site_label_1
_geom_bond_atom_site_label_2
_geom_bond_distance
_geom_bond_site_symmetry_2
_ccdc_geom_bond_type
H0 C5 0.930 . S
H1 C8 0.930 . S
H2 C10 0.930 . S
H3 C4 1.016 1_556 S
C4 H3 1.016 1_554 S
C4 N11 1.286 . S
C5 H0 0.930 . S
C5 C6 1.397 . S
C5 C7 1.361 . S
C6 C5 1.397 . S
C6 C10 1.390 . S
C7 C5 1.361 . S
C7 C8 1.393 . S
C7 N11 1.413 . S
C8 H1 0.930 . S
C8 C7 1.393 . S
C8 C9 1.399 . S
C9 C8 1.399 . S
C9 C10 1.381 . S
C10 H2 0.930 . S
C10 C6 1.390 . S
C10 C9 1.381 . S
N11 C4 1.286 . S
N11 C7 1.413 . S
H12 C17 0.930 . S
H13 C20 0.930 . S
H14 C22 0.930 . S
H15 C16 1.016 . S
C16 H15 1.016 . S
C16 N23 1.286 . S
C17 H12 0.930 . S
C17 C18 1.397 . S
C17 C19 1.361 . S
C18 C17 1.397 . S
C18 C22 1.390 . S
C19 C17 1.361 . S
C19 C20 1.393 . S
C19 N23 1.413 . S
C20 H13 0.930 . S
C20 C19 1.393 . S
C20 C21 1.399 . S
C21 C20 1.399 . S
C21 C22 1.381 . S
C22 H14 0.930 . S
C22 C18 1.390 . S
C22 C21 1.381 . S
N23 C16 1.286 . S
N23 C19 1.413 . S
H24 C29 0.930 . S
H25 C32 0.930 . S
H26 C34 0.930 . S
H27 C28 1.016 . S
C28 H27 1.016 . S
C28 N35 1.286 . S
C29 H24 0.930 . S
C29 C30 1.397 . S
C29 C31 1.361 . S
C30 C29 1.397 . S
C30 C34 1.390 . S
C31 C29 1.361 . S
C31 C32 1.393 . S
C31 N35 1.413 . S
C32 H25 0.930 . S
C32 C31 1.393 . S
C32 C33 1.399 . S
C33 C32 1.399 . S
C33 C34 1.381 . S
C34 H26 0.930 . S
C34 C30 1.390 . S
C34 C33 1.381 . S
N35 C28 1.286 . S
N35 C31 1.413 . S
H36 C41 0.930 . S
H37 C44 0.930 . S
H38 C46 0.930 . S
H39 C40 1.016 . S
C40 H39 1.016 . S
C40 N47 1.286 . S
C41 H36 0.930 . S
C41 C42 1.397 . S
C41 C43 1.361 . S
C42 C41 1.397 . S
C42 C46 1.390 . S
C43 C41 1.361 . S
C43 C44 1.393 . S
C43 N47 1.413 . S
C44 H37 0.930 . S
C44 C43 1.393 . S
C44 C45 1.399 . S
C45 C44 1.399 . S
C45 C46 1.381 . S
C46 H38 0.930 . S
C46 C42 1.390 . S
C46 C45 1.381 . S
N47 C40 1.286 . S
N47 C43 1.413 . S
H48 C53 0.930 . S
H49 C56 0.930 . S
H50 C58 0.930 1_545 S
H51 C52 1.016 . S
C52 H51 1.016 . S
C52 N59 1.286 . S
C53 H48 0.930 . S
C53 C54 1.397 . S
C53 C55 1.361 . S
C54 C53 1.397 . S
C54 C58 1.390 . S
C55 C53 1.361 . S
C55 C56 1.393 . S
C55 N59 1.413 . S
C56 H49 0.930 . S
C56 C55 1.393 . S
C56 C57 1.399 . S
C57 C56 1.399 . S
C57 C58 1.381 . S
C58 H50 0.930 1_565 S
C58 C54 1.390 . S
C58 C57 1.381 . S
N59 C52 1.286 . S
N59 C55 1.413 . S
H60 C65 0.930 . S
H61 C68 0.930 . S
H62 C70 0.930 . S
H63 C64 1.016 . S
C64 H63 1.016 . S
C64 N71 1.286 . S
C65 H60 0.930 . S
C65 C66 1.397 . S
C65 C67 1.361 . S
C66 C65 1.397 . S
C66 C70 1.390 . S
C67 C65 1.361 . S
C67 C68 1.393 . S
C67 N71 1.413 . S
C68 H61 0.930 . S
C68 C67 1.393 . S
C68 C69 1.399 . S
C69 C68 1.399 . S
C69 C70 1.381 . S
C70 H62 0.930 . S
C70 C66 1.390 . S
C70 C69 1.381 . S
N71 C64 1.286 . S
N71 C67 1.413 . S
H72 C77 0.930 . S
H73 C80 0.930 . S
H74 C82 0.930 . S
H75 C76 1.016 . S
C76 H75 1.016 . S
C76 N83 1.286 . S
C77 H72 0.930 . S
C77 C78 1.397 1_455 S
C77 C79 1.360 1_455 S
C78 C77 1.397 1_655 S
C78 C82 1.390 . S
C79 C77 1.360 1_655 S
C79 C80 1.413 . S
C79 N83 1.394 1_655 S
C80 H73 0.930 . S
C80 C79 1.413 . S
C80 C81 1.399 . S
C81 C80 1.399 . S
C81 C82 1.381 . S
C82 H74 0.930 . S
C82 C78 1.390 . S
C82 C81 1.381 . S
N83 C76 1.286 . S
N83 C79 1.394 1_455 S
H84 C89 0.930 . S
H85 C92 0.930 . S
H86 C94 0.930 . S
H87 C88 1.016 . S
C88 H87 1.016 . S
C88 N95 1.286 . S
C89 H84 0.930 . S
C89 C90 1.397 . S
C89 C91 1.361 . S
C90 C89 1.397 . S
C90 C94 1.390 . S
C91 C89 1.361 . S
C91 C92 1.393 . S
C91 N95 1.413 . S
C92 H85 0.930 . S
C92 C91 1.393 . S
C92 C93 1.399 . S
C93 C92 1.399 . S
C93 C94 1.381 . S
C94 H86 0.930 . S
C94 C90 1.390 . S
C94 C93 1.381 . S
N95 C88 1.286 . S
N95 C91 1.413 . S
H96 C101 0.930 . S
H97 C104 0.930 . S
H98 C106 0.930 . S
H99 C100 1.016 . S
C100 H99 1.016 . S
C100 N107 1.286 . S
C101 H96 0.930 . S
C101 C102 1.397 . S
C101 C103 1.361 . S
C102 C101 1.397 . S
C102 C106 1.390 . S
C103 C101 1.361 . S
C103 C104 1.393 . S
C103 N107 1.413 . S
C104 H97 0.930 . S
C104 C103 1.393 . S
C104 C105 1.399 . S
C105 C104 1.399 . S
C105 C106 1.381 . S
C106 H98 0.930 . S
C106 C102 1.390 . S
C106 C105 1.381 . S
N107 C100 1.286 . S
N107 C103 1.413 . S
H108 C113 0.930 . S
H109 C116 0.930 . S
H110 C118 0.930 1_545 S
H111 C112 1.016 . S
C112 H111 1.016 . S
C112 N119 1.286 . S
C113 H108 0.930 . S
C113 C114 1.397 . S
C113 C115 1.361 . S
C114 C113 1.397 . S
C114 C118 1.390 . S
C115 C113 1.361 . S
C115 C116 1.393 . S
C115 N119 1.413 . S
C116 H109 0.930 . S
C116 C115 1.393 . S
C116 C117 1.399 . S
C117 C116 1.399 . S
C117 C118 1.381 . S
C118 H110 0.930 1_565 S
C118 C114 1.390 . S
C118 C117 1.381 . S
N119 C112 1.286 . S
N119 C115 1.413 . S
H120 C125 0.930 . S
H121 C128 0.930 . S
H122 C130 0.930 . S
H123 C124 1.016 . S
C124 H123 1.016 . S
C124 N131 1.286 . S
C125 H120 0.930 . S
C125 C126 1.397 . S
C125 C127 1.361 . S
C126 C125 1.397 . S
C126 C130 1.390 . S
C127 C125 1.361 . S
C127 C128 1.393 . S
C127 N131 1.413 . S
C128 H121 0.930 . S
C128 C127 1.393 . S
C128 C129 1.399 . S
C129 C128 1.399 . S
C129 C130 1.381 . S
C130 H122 0.930 . S
C130 C126 1.390 . S
C130 C129 1.381 . S
N131 C124 1.286 . S
N131 C127 1.413 . S
H132 C137 0.930 . S
H133 C140 0.930 . S
H134 C142 0.930 . S
H135 C136 1.016 . S
C136 H135 1.016 . S
C136 N143 1.286 . S
C137 H132 0.930 . S
C137 C138 1.397 . S
C137 C139 1.361 . S
C138 C137 1.397 . S
C138 C142 1.390 . S
C139 C137 1.361 . S
C139 C140 1.393 . S
C139 N143 1.413 . S
C140 H133 0.930 . S
C140 C139 1.393 . S
C140 C141 1.399 . S
C141 C140 1.399 . S
C141 C142 1.381 . S
C142 H134 0.930 . S
C142 C138 1.390 . S
C142 C141 1.381 . S
N143 C136 1.286 . S
N143 C139 1.413 . S
H144 C149 0.930 . S
H145 C152 0.930 . S
H146 C154 0.930 . S
H147 C148 1.016 . S
C148 H147 1.016 . S
C148 N155 1.286 . S
C149 H144 0.930 . S
C149 C150 1.397 . S
C149 C151 1.361 . S
C150 C149 1.397 . S
C150 C154 1.390 . S
C151 C149 1.361 . S
C151 C152 1.393 . S
C151 N155 1.413 . S
C152 H145 0.930 . S
C152 C151 1.393 . S
C152 C153 1.399 . S
C153 C152 1.399 . S
C153 C154 1.381 . S
C154 H146 0.930 . S
C154 C150 1.390 . S
C154 C153 1.381 . S
N155 C148 1.286 . S
N155 C151 1.413 . S
H156 C161 0.930 . S
H157 C164 0.930 . S
H158 C166 0.930 . S
H159 C160 1.016 1_554 S
C160 H159 1.016 1_556 S
C160 N167 1.286 . S
C161 H156 0.930 . S
C161 C162 1.397 . S
C161 C163 1.361 . S
C162 C161 1.397 . S
C162 C166 1.390 . S
C163 C161 1.361 . S
C163 C164 1.393 . S
C163 N167 1.413 . S
C164 H157 0.930 . S
C164 C163 1.393 . S
C164 C165 1.399 . S
C165 C164 1.399 . S
C165 C166 1.381 . S
C166 H158 0.930 . S
C166 C162 1.390 . S
C166 C165 1.381 . S
N167 C160 1.286 . S
N167 C163 1.413 . S
H168 C173 0.930 . S
H169 C176 0.930 . S
H170 C178 0.930 . S
H171 C172 1.016 . S
C172 H171 1.016 . S
C172 N179 1.286 . S
C173 H168 0.930 . S
C173 C174 1.397 . S
C173 C175 1.361 . S
C174 C173 1.397 . S
C174 C178 1.390 . S
C175 C173 1.361 . S
C175 C176 1.393 . S
C175 N179 1.413 . S
C176 H169 0.930 . S
C176 C175 1.393 . S
C176 C177 1.399 . S
C177 C176 1.399 . S
C177 C178 1.381 . S
C178 H170 0.930 . S
C178 C174 1.390 . S
C178 C177 1.381 . S
N179 C172 1.286 . S
N179 C175 1.413 . S
H180 C185 0.930 . S
H181 C188 0.930 . S
H182 C190 0.930 . S
H183 C184 1.016 . S
C184 H183 1.016 . S
C184 N191 1.286 . S
C185 H180 0.930 . S
C185 C186 1.397 . S
C185 C187 1.361 . S
C186 C185 1.397 . S
C186 C190 1.390 . S
C187 C185 1.361 . S
C187 C188 1.393 . S
C187 N191 1.413 . S
C188 H181 0.930 . S
C188 C187 1.393 . S
C188 C189 1.399 . S
C189 C188 1.399 . S
C189 C190 1.381 . S
C190 H182 0.930 . S
C190 C186 1.390 . S
C190 C189 1.381 . S
N191 C184 1.286 . S
N191 C187 1.413 . S
Mn192 O197 2.095 . S
Mn192 O207 2.162 . S
Mn192 O208 2.297 . S
Mn192 O216 2.385 . S
Mn192 O217 2.209 1_554 S
Mn192 O218 2.094 . S
Mn193 O198 2.121 . S
Mn193 N200 2.257 . S
Mn193 N209 2.282 . S
Mn193 O217 2.215 . S
Mn193 O219 2.117 1_556 S
C194 O216 1.234 1_556 S
C194 O217 1.283 . S
C195 O207 1.281 . S
C195 O208 1.236 . S
C196 O218 1.240 . S
C196 O219 1.264 . S
O197 Mn192 2.095 . S
O197 C206 1.250 . S
O198 Mn193 2.121 . S
O198 C206 1.258 1_556 S
C199 N200 1.326 . S
C199 C203 1.460 . S
C199 H205 0.929 . S
N200 Mn193 2.257 . S
N200 C199 1.326 . S
N200 C204 1.362 . S
C201 C202 1.258 . S
C201 C204 1.431 . S
C201 C221 1.449 . S
C202 C201 1.258 . S
C202 C203 1.477 . S
C202 H222 0.931 . S
C203 C199 1.460 . S
C203 C202 1.477 . S
C203 H223 0.930 . S
C204 N200 1.362 . S
C204 C201 1.431 . S
C204 C214 1.476 . S
H205 C199 0.929 . S
C206 O197 1.250 . S
C206 O198 1.258 1_554 S
O207 Mn192 2.162 . S
O207 C195 1.281 . S
O208 Mn192 2.297 . S
O208 C195 1.236 . S
N209 Mn193 2.282 . S
N209 C210 1.328 . S
N209 C214 1.318 . S
C210 N209 1.328 . S
C210 C211 1.457 . S
C210 H215 0.929 . S
C211 C210 1.457 . S
C211 C212 1.291 . S
C211 H224 0.931 . S
C212 C211 1.291 . S
C212 C213 1.373 . S
C212 H225 0.929 . S
C213 C212 1.373 . S
C213 C214 1.396 . S
C213 C220 1.403 . S
C214 C204 1.476 . S
C214 N209 1.318 . S
C214 C213 1.396 . S
H215 C210 0.929 . S
O216 Mn192 2.385 . S
O216 C194 1.234 1_554 S
O217 Mn192 2.209 1_556 S
O217 Mn193 2.215 . S
O217 C194 1.283 . S
O218 Mn192 2.094 . S
O218 C196 1.240 . S
O219 Mn193 2.117 1_554 S
O219 C196 1.264 . S
C220 C213 1.403 . S
C220 C221 1.399 . S
C220 H226 0.929 . S
C221 C201 1.449 . S
C221 C220 1.399 . S
C221 H227 0.930 . S
H222 C202 0.931 . S
H223 C203 0.930 . S
H224 C211 0.931 . S
H225 C212 0.929 . S
H226 C220 0.929 . S
H227 C221 0.930 . S
Mn228 O233 2.095 . S
Mn228 O243 2.162 . S
Mn228 O244 2.297 . S
Mn228 O252 2.385 . S
Mn228 O253 2.209 . S
Mn228 O254 2.094 . S
Mn229 O234 2.121 . S
Mn229 N236 2.257 . S
Mn229 N245 2.282 . S
Mn229 O253 2.215 . S
Mn229 O255 2.117 . S
C230 O252 1.234 . S
C230 O253 1.283 . S
C231 O243 1.281 . S
C231 O244 1.236 . S
C232 O254 1.240 . S
C232 O255 1.264 . S
O233 Mn228 2.095 . S
O233 C242 1.250 . S
O234 Mn229 2.121 . S
O234 C242 1.258 . S
C235 N236 1.326 . S
C235 C239 1.460 . S
C235 H241 0.929 . S
N236 Mn229 2.257 . S
N236 C235 1.326 . S
N236 C240 1.362 . S
C237 C238 1.258 . S
C237 C240 1.431 . S
C237 C257 1.449 . S
C238 C237 1.258 . S
C238 C239 1.477 . S
C238 H258 0.931 . S
C239 C235 1.460 . S
C239 C238 1.477 . S
C239 H259 0.930 . S
C240 N236 1.362 . S
C240 C237 1.431 . S
C240 C250 1.476 . S
H241 C235 0.929 . S
C242 O233 1.250 . S
C242 O234 1.258 . S
O243 Mn228 2.162 . S
O243 C231 1.281 . S
O244 Mn228 2.297 . S
O244 C231 1.236 . S
N245 Mn229 2.282 . S
N245 C246 1.328 . S
N245 C250 1.318 . S
C246 N245 1.328 . S
C246 C247 1.457 . S
C246 H251 0.929 . S
C247 C246 1.457 . S
C247 C248 1.291 . S
C247 H260 0.931 . S
C248 C247 1.291 . S
C248 C249 1.373 . S
C248 H261 0.929 . S
C249 C248 1.373 . S
C249 C250 1.396 . S
C249 C256 1.403 . S
C250 C240 1.476 . S
C250 N245 1.318 . S
C250 C249 1.396 . S
H251 C246 0.929 . S
O252 Mn228 2.385 . S
O252 C230 1.234 . S
O253 Mn228 2.209 . S
O253 Mn229 2.215 . S
O253 C230 1.283 . S
O254 Mn228 2.094 . S
O254 C232 1.240 . S
O255 Mn229 2.117 . S
O255 C232 1.264 . S
C256 C249 1.403 . S
C256 C257 1.399 . S
C256 H262 0.929 . S
C257 C237 1.449 . S
C257 C256 1.399 . S
C257 H263 0.930 . S
H258 C238 0.931 . S
H259 C239 0.930 . S
H260 C247 0.931 . S
H261 C248 0.929 . S
H262 C256 0.929 . S
H263 C257 0.930 . S
Mn264 O269 2.095 1_554 S
Mn264 O279 2.162 . S
Mn264 O280 2.297 1_554 S
Mn264 O288 2.385 . S
Mn264 O289 2.209 1_554 S
Mn264 O290 2.094 . S
Mn265 O270 2.121 . S
Mn265 N272 2.257 . S
Mn265 N281 2.269 1_556 S
Mn265 O289 2.215 . S
Mn265 O291 2.117 1_556 S
C266 O288 1.234 . S
C266 O289 1.283 1_554 S
C267 O279 1.281 . S
C267 O280 1.236 1_554 S
C268 O290 1.240 . S
C268 O291 1.264 . S
O269 Mn264 2.095 1_556 S
O269 C278 1.250 . S
O270 Mn265 2.121 . S
O270 C278 1.258 . S
C271 N272 1.326 . S
C271 C275 1.460 . S
C271 H277 0.929 . S
N272 Mn265 2.257 . S
N272 C271 1.326 . S
N272 C276 1.362 . S
C273 C274 1.258 . S
C273 C276 1.431 . S
C273 C293 1.449 . S
C274 C273 1.258 . S
C274 C275 1.477 . S
C274 H294 0.931 . S
C275 C271 1.460 . S
C275 C274 1.477 . S
C275 H295 0.930 . S
C276 N272 1.362 . S
C276 C273 1.431 . S
C276 C286 1.476 . S
H277 C271 0.929 . S
C278 O269 1.250 . S
C278 O270 1.258 . S
O279 Mn264 2.162 . S
O279 C267 1.281 . S
O280 Mn264 2.297 1_556 S
O280 C267 1.236 1_556 S
N281 Mn265 2.269 1_554 S
N281 C282 1.356 . S
N281 C286 1.301 1_554 S
C282 N281 1.356 . S
C282 C283 1.457 . S
C282 H287 0.929 . S
C283 C282 1.457 . S
C283 C284 1.291 . S
C283 H296 0.931 . S
C284 C283 1.291 . S
C284 C285 1.373 1_554 S
C284 H297 0.929 . S
C285 C284 1.373 1_556 S
C285 C286 1.396 . S
C285 C292 1.403 . S
C286 C276 1.476 . S
C286 N281 1.301 1_556 S
C286 C285 1.396 . S
H287 C282 0.929 . S
O288 Mn264 2.385 . S
O288 C266 1.234 . S
O289 Mn264 2.209 1_556 S
O289 Mn265 2.215 . S
O289 C266 1.283 1_556 S
O290 Mn264 2.094 . S
O290 C268 1.240 . S
O291 Mn265 2.117 1_554 S
O291 C268 1.264 . S
C292 C285 1.403 . S
C292 C293 1.399 . S
C292 H298 0.929 . S
C293 C273 1.449 . S
C293 C292 1.399 . S
C293 H299 0.930 . S
H294 C274 0.931 . S
H295 C275 0.930 . S
H296 C283 0.931 . S
H297 C284 0.929 . S
H298 C292 0.929 . S
H299 C293 0.930 . S
Mn300 O305 2.095 . S
Mn300 O315 2.162 . S
Mn300 O316 2.297 . S
Mn300 O324 2.385 . S
Mn300 O325 2.209 . S
Mn300 O326 2.094 . S
Mn301 O306 2.121 1_565 S
Mn301 N308 2.257 . S
Mn301 N317 2.282 . S
Mn301 O325 2.215 1_565 S
Mn301 O327 2.117 1_565 S
C302 O324 1.234 . S
C302 O325 1.283 . S
C303 O315 1.281 . S
C303 O316 1.236 . S
C304 O326 1.240 . S
C304 O327 1.264 . S
O305 Mn300 2.095 . S
O305 C314 1.250 . S
O306 Mn301 2.121 1_545 S
O306 C314 1.258 . S
C307 N308 1.326 . S
C307 C311 1.460 . S
C307 H313 0.929 . S
N308 Mn301 2.257 . S
N308 C307 1.326 . S
N308 C312 1.362 . S
C309 C310 1.258 . S
C309 C312 1.431 . S
C309 C329 1.449 . S
C310 C309 1.258 . S
C310 C311 1.477 . S
C310 H330 0.931 . S
C311 C307 1.460 . S
C311 C310 1.477 . S
C311 H331 0.930 . S
C312 N308 1.362 . S
C312 C309 1.431 . S
C312 C322 1.476 . S
H313 C307 0.929 . S
C314 O305 1.250 . S
C314 O306 1.258 . S
O315 Mn300 2.162 . S
O315 C303 1.281 . S
O316 Mn300 2.297 . S
O316 C303 1.236 . S
N317 Mn301 2.282 . S
N317 C318 1.328 . S
N317 C322 1.318 . S
C318 N317 1.328 . S
C318 C319 1.457 . S
C318 H323 0.929 . S
C319 C318 1.457 . S
C319 C320 1.291 . S
C319 H332 0.931 . S
C320 C319 1.291 . S
C320 C321 1.373 . S
C320 H333 0.929 . S
C321 C320 1.373 . S
C321 C322 1.396 . S
C321 C328 1.403 . S
C322 C312 1.476 . S
C322 N317 1.318 . S
C322 C321 1.396 . S
H323 C318 0.929 . S
O324 Mn300 2.385 . S
O324 C302 1.234 . S
O325 Mn300 2.209 . S
O325 Mn301 2.215 1_545 S
O325 C302 1.283 . S
O326 Mn300 2.094 . S
O326 C304 1.240 . S
O327 Mn301 2.117 1_545 S
O327 C304 1.264 . S
C328 C321 1.403 . S
C328 C329 1.399 . S
C328 H334 0.929 . S
C329 C309 1.449 . S
C329 C328 1.399 . S
C329 H335 0.930 . S
H330 C310 0.931 . S
H331 C311 0.930 . S
H332 C319 0.931 . S
H333 C320 0.929 . S
H334 C328 0.929 . S
H335 C329 0.930 . S
Mn336 O341 2.095 . S
Mn336 O351 2.162 . S
Mn336 O352 2.297 . S
Mn336 O360 2.385 . S
Mn336 O361 2.209 . S
Mn336 O362 2.094 . S
Mn337 O342 2.121 . S
Mn337 N344 2.257 . S
Mn337 N353 2.282 . S
Mn337 O361 2.215 . S
Mn337 O363 2.117 . S
C338 O360 1.234 . S
C338 O361 1.283 . S
C339 O351 1.281 . S
C339 O352 1.236 . S
C340 O362 1.240 . S
C340 O363 1.264 . S
O341 Mn336 2.095 . S
O341 C350 1.250 . S
O342 Mn337 2.121 . S
O342 C350 1.258 . S
C343 N344 1.326 . S
C343 C347 1.460 . S
C343 H349 0.929 . S
N344 Mn337 2.257 . S
N344 C343 1.326 . S
N344 C348 1.362 . S
C345 C346 1.258 . S
C345 C348 1.431 . S
C345 C365 1.449 . S
C346 C345 1.258 . S
C346 C347 1.477 . S
C346 H366 0.931 . S
C347 C343 1.460 . S
C347 C346 1.477 . S
C347 H367 0.930 . S
C348 N344 1.362 . S
C348 C345 1.431 . S
C348 C358 1.476 . S
H349 C343 0.929 . S
C350 O341 1.250 . S
C350 O342 1.258 . S
O351 Mn336 2.162 . S
O351 C339 1.281 . S
O352 Mn336 2.297 . S
O352 C339 1.236 . S
N353 Mn337 2.282 . S
N353 C354 1.328 . S
N353 C358 1.318 . S
C354 N353 1.328 . S
C354 C355 1.457 . S
C354 H359 0.929 . S
C355 C354 1.457 . S
C355 C356 1.291 . S
C355 H368 0.931 . S
C356 C355 1.291 . S
C356 C357 1.373 . S
C356 H369 0.929 . S
C357 C356 1.373 . S
C357 C358 1.396 . S
C357 C364 1.403 . S
C358 C348 1.476 . S
C358 N353 1.318 . S
C358 C357 1.396 . S
H359 C354 0.929 . S
O360 Mn336 2.385 . S
O360 C338 1.234 . S
O361 Mn336 2.209 . S
O361 Mn337 2.215 . S
O361 C338 1.283 . S
O362 Mn336 2.094 . S
O362 C340 1.240 . S
O363 Mn337 2.117 . S
O363 C340 1.264 . S
C364 C357 1.403 . S
C364 C365 1.399 . S
C364 H370 0.929 . S
C365 C345 1.449 . S
C365 C364 1.399 . S
C365 H371 0.930 . S
H366 C346 0.931 . S
H367 C347 0.930 . S
H368 C355 0.931 . S
H369 C356 0.929 . S
H370 C364 0.929 . S
H371 C365 0.930 . S
Mn372 O377 2.095 . S
Mn372 O387 2.162 . S
Mn372 O388 2.297 . S
Mn372 O396 2.385 . S
Mn372 O397 2.209 . S
Mn372 O398 2.094 . S
Mn373 O378 2.121 . S
Mn373 N380 2.257 . S
Mn373 N389 2.282 . S
Mn373 O397 2.215 . S
Mn373 O399 2.117 . S
C374 O396 1.234 . S
C374 O397 1.283 . S
C375 O387 1.281 . S
C375 O388 1.236 . S
C376 O398 1.240 . S
C376 O399 1.264 . S
O377 Mn372 2.095 . S
O377 C386 1.250 . S
O378 Mn373 2.121 . S
O378 C386 1.258 . S
C379 N380 1.326 . S
C379 C383 1.460 . S
C379 H385 0.929 . S
N380 Mn373 2.257 . S
N380 C379 1.326 . S
N380 C384 1.362 . S
C381 C382 1.258 . S
C381 C384 1.431 . S
C381 C401 1.449 . S
C382 C381 1.258 . S
C382 C383 1.477 . S
C382 H402 0.931 . S
C383 C379 1.460 . S
C383 C382 1.477 . S
C383 H403 0.930 . S
C384 N380 1.362 . S
C384 C381 1.431 . S
C384 C394 1.476 . S
H385 C379 0.929 . S
C386 O377 1.250 . S
C386 O378 1.258 . S
O387 Mn372 2.162 . S
O387 C375 1.281 . S
O388 Mn372 2.297 . S
O388 C375 1.236 . S
N389 Mn373 2.282 . S
N389 C390 1.328 . S
N389 C394 1.318 . S
C390 N389 1.328 . S
C390 C391 1.457 . S
C390 H395 0.929 . S
C391 C390 1.457 . S
C391 C392 1.291 . S
C391 H404 0.931 . S
C392 C391 1.291 . S
C392 C393 1.373 . S
C392 H405 0.929 . S
C393 C392 1.373 . S
C393 C394 1.396 . S
C393 C400 1.403 . S
C394 C384 1.476 . S
C394 N389 1.318 . S
C394 C393 1.396 . S
H395 C390 0.929 . S
O396 Mn372 2.385 . S
O396 C374 1.234 . S
O397 Mn372 2.209 . S
O397 Mn373 2.215 . S
O397 C374 1.283 . S
O398 Mn372 2.094 . S
O398 C376 1.240 . S
O399 Mn373 2.117 . S
O399 C376 1.264 . S
C400 C393 1.403 . S
C400 C401 1.399 . S
C400 H406 0.929 . S
C401 C381 1.449 . S
C401 C400 1.399 . S
C401 H407 0.930 . S
H402 C382 0.931 . S
H403 C383 0.930 . S
H404 C391 0.931 . S
H405 C392 0.929 . S
H406 C400 0.929 . S
H407 C401 0.930 . S
Mn408 O413 2.095 . S
Mn408 O423 2.162 . S
Mn408 O424 2.297 . S
Mn408 O432 2.385 . S
Mn408 O433 2.209 . S
Mn408 O434 2.094 . S
Mn409 O414 2.121 . S
Mn409 N416 2.257 . S
Mn409 N425 2.282 . S
Mn409 O433 2.215 . S
Mn409 O435 2.117 . S
C410 O432 1.234 . S
C410 O433 1.283 . S
C411 O423 1.281 . S
C411 O424 1.236 . S
C412 O434 1.240 . S
C412 O435 1.264 . S
O413 Mn408 2.095 . S
O413 C422 1.250 . S
O414 Mn409 2.121 . S
O414 C422 1.258 . S
C415 N416 1.326 . S
C415 C419 1.460 . S
C415 H421 0.929 . S
N416 Mn409 2.257 . S
N416 C415 1.326 . S
N416 C420 1.362 . S
C417 C418 1.258 . S
C417 C420 1.431 . S
C417 C437 1.449 . S
C418 C417 1.258 . S
C418 C419 1.477 . S
C418 H438 0.931 . S
C419 C415 1.460 . S
C419 C418 1.477 . S
C419 H439 0.930 . S
C420 N416 1.362 . S
C420 C417 1.431 . S
C420 C430 1.476 . S
H421 C415 0.929 . S
C422 O413 1.250 . S
C422 O414 1.258 . S
O423 Mn408 2.162 . S
O423 C411 1.281 . S
O424 Mn408 2.297 . S
O424 C411 1.236 . S
N425 Mn409 2.282 . S
N425 C426 1.328 . S
N425 C430 1.318 . S
C426 N425 1.328 . S
C426 C427 1.457 . S
C426 H431 0.929 . S
C427 C426 1.457 . S
C427 C428 1.291 . S
C427 H440 0.931 . S
C428 C427 1.291 . S
C428 C429 1.373 . S
C428 H441 0.929 . S
C429 C428 1.373 . S
C429 C430 1.396 . S
C429 C436 1.403 . S
C430 C420 1.476 . S
C430 N425 1.318 . S
C430 C429 1.396 . S
H431 C426 0.929 . S
O432 Mn408 2.385 . S
O432 C410 1.234 . S
O433 Mn408 2.209 . S
O433 Mn409 2.215 . S
O433 C410 1.283 . S
O434 Mn408 2.094 . S
O434 C412 1.240 . S
O435 Mn409 2.117 . S
O435 C412 1.264 . S
C436 C429 1.403 . S
C436 C437 1.399 . S
C436 H442 0.929 . S
C437 C417 1.449 . S
C437 C436 1.399 . S
C437 H443 0.930 . S
H438 C418 0.931 . S
H439 C419 0.930 . S
H440 C427 0.931 . S
H441 C428 0.929 . S
H442 C436 0.929 . S
H443 C437 0.930 . S
Mn444 O449 2.095 . S
Mn444 O459 2.162 . S
Mn444 O460 2.297 . S
Mn444 O468 2.385 1_565 S
Mn444 O469 2.209 1_565 S
Mn444 O470 2.094 . S
Mn445 O450 2.121 . S
Mn445 N452 2.257 . S
Mn445 N461 2.282 . S
Mn445 O469 2.215 . S
Mn445 O471 2.117 . S
C446 O468 1.234 . S
C446 O469 1.283 . S
C447 O459 1.281 . S
C447 O460 1.236 . S
C448 O470 1.240 . S
C448 O471 1.264 1_565 S
O449 Mn444 2.095 . S
O449 C458 1.250 1_565 S
O450 Mn445 2.121 . S
O450 C458 1.258 . S
C451 N452 1.326 . S
C451 C455 1.460 . S
C451 H457 0.929 . S
N452 Mn445 2.257 . S
N452 C451 1.326 . S
N452 C456 1.362 . S
C453 C454 1.258 . S
C453 C456 1.431 . S
C453 C473 1.449 . S
C454 C453 1.258 . S
C454 C455 1.477 . S
C454 H474 0.931 . S
C455 C451 1.460 . S
C455 C454 1.477 . S
C455 H475 0.930 . S
C456 N452 1.362 . S
C456 C453 1.431 . S
C456 C466 1.476 . S
H457 C451 0.929 . S
C458 O449 1.250 1_545 S
C458 O450 1.258 . S
O459 Mn444 2.162 . S
O459 C447 1.281 . S
O460 Mn444 2.297 . S
O460 C447 1.236 . S
N461 Mn445 2.282 . S
N461 C462 1.328 . S
N461 C466 1.318 . S
C462 N461 1.328 . S
C462 C463 1.457 . S
C462 H467 0.929 . S
C463 C462 1.457 . S
C463 C464 1.291 . S
C463 H476 0.931 . S
C464 C463 1.291 . S
C464 C465 1.373 . S
C464 H477 0.929 . S
C465 C464 1.373 . S
C465 C466 1.396 . S
C465 C472 1.403 . S
C466 C456 1.476 . S
C466 N461 1.318 . S
C466 C465 1.396 . S
H467 C462 0.929 . S
O468 Mn444 2.385 1_545 S
O468 C446 1.234 . S
O469 Mn444 2.209 1_545 S
O469 Mn445 2.215 . S
O469 C446 1.283 . S
O470 Mn444 2.094 . S
O470 C448 1.240 . S
O471 Mn445 2.117 . S
O471 C448 1.264 1_545 S
C472 C465 1.403 . S
C472 C473 1.399 . S
C472 H478 0.929 . S
C473 C453 1.449 . S
C473 C472 1.399 . S
C473 H479 0.930 . S
H474 C454 0.931 . S
H475 C455 0.930 . S
H476 C463 0.931 . S
H477 C464 0.929 . S
H478 C472 0.929 . S
H479 C473 0.930 . S
Mn480 O485 2.095 . S
Mn480 O495 2.162 . S
Mn480 O496 2.297 . S
Mn480 O504 2.384 . S
Mn480 O505 2.209 1_455 S
Mn480 O506 2.094 . S
Mn481 O486 2.121 . S
Mn481 N488 2.257 . S
Mn481 N497 2.282 . S
Mn481 O505 2.215 . S
Mn481 O507 2.117 . S
C482 O504 1.235 1_655 S
C482 O505 1.283 . S
C483 O495 1.281 . S
C483 O496 1.236 . S
C484 O506 1.240 . S
C484 O507 1.264 1_455 S
O485 Mn480 2.095 . S
O485 C494 1.250 . S
O486 Mn481 2.121 . S
O486 C494 1.258 1_655 S
C487 N488 1.326 . S
C487 C491 1.460 . S
C487 H493 0.929 . S
N488 Mn481 2.257 . S
N488 C487 1.326 . S
N488 C492 1.362 . S
C489 C490 1.258 . S
C489 C492 1.431 . S
C489 C509 1.449 . S
C490 C489 1.258 . S
C490 C491 1.477 . S
C490 H510 0.931 . S
C491 C487 1.460 . S
C491 C490 1.477 . S
C491 H511 0.930 . S
C492 N488 1.362 . S
C492 C489 1.431 . S
C492 C502 1.476 . S
H493 C487 0.929 . S
C494 O485 1.250 . S
C494 O486 1.258 1_455 S
O495 Mn480 2.162 . S
O495 C483 1.281 . S
O496 Mn480 2.297 . S
O496 C483 1.236 . S
N497 Mn481 2.282 . S
N497 C498 1.328 . S
N497 C502 1.318 . S
C498 N497 1.328 . S
C498 C499 1.457 . S
C498 H503 0.929 . S
C499 C498 1.457 . S
C499 C500 1.291 . S
C499 H512 0.931 . S
C500 C499 1.291 . S
C500 C501 1.373 . S
C500 H513 0.929 . S
C501 C500 1.373 . S
C501 C502 1.396 . S
C501 C508 1.403 . S
C502 C492 1.476 . S
C502 N497 1.318 . S
C502 C501 1.396 . S
H503 C498 0.929 . S
O504 Mn480 2.384 . S
O504 C482 1.235 1_455 S
O505 Mn480 2.209 1_655 S
O505 Mn481 2.215 . S
O505 C482 1.283 . S
O506 Mn480 2.094 . S
O506 C484 1.240 . S
O507 Mn481 2.117 . S
O507 C484 1.264 1_655 S
C508 C501 1.403 . S
C508 C509 1.399 . S
C508 H514 0.929 . S
C509 C489 1.449 . S
C509 C508 1.399 . S
C509 H515 0.930 . S
H510 C490 0.931 . S
H511 C491 0.930 . S
H512 C499 0.931 . S
H513 C500 0.929 . S
H514 C508 0.929 . S
H515 C509 0.930 . S
Mn516 O521 2.095 . S
Mn516 O531 2.162 . S
Mn516 O532 2.297 . S
Mn516 O540 2.385 . S
Mn516 O541 2.209 . S
Mn516 O542 2.094 . S
Mn517 O522 2.121 . S
Mn517 N524 2.257 . S
Mn517 N533 2.282 . S
Mn517 O541 2.215 . S
Mn517 O543 2.117 . S
C518 O540 1.234 . S
C518 O541 1.283 . S
C519 O531 1.281 . S
C519 O532 1.236 . S
C520 O542 1.240 . S
C520 O543 1.264 . S
O521 Mn516 2.095 . S
O521 C530 1.250 . S
O522 Mn517 2.121 . S
O522 C530 1.258 . S
C523 N524 1.326 . S
C523 C527 1.460 . S
C523 H529 0.929 . S
N524 Mn517 2.257 . S
N524 C523 1.326 . S
N524 C528 1.362 . S
C525 C526 1.258 . S
C525 C528 1.431 . S
C525 C545 1.449 . S
C526 C525 1.258 . S
C526 C527 1.477 . S
C526 H546 0.931 . S
C527 C523 1.460 . S
C527 C526 1.477 . S
C527 H547 0.930 . S
C528 N524 1.362 . S
C528 C525 1.431 . S
C528 C538 1.476 . S
H529 C523 0.929 . S
C530 O521 1.250 . S
C530 O522 1.258 . S
O531 Mn516 2.162 . S
O531 C519 1.281 . S
O532 Mn516 2.297 . S
O532 C519 1.236 . S
N533 Mn517 2.282 . S
N533 C534 1.328 . S
N533 C538 1.318 . S
C534 N533 1.328 . S
C534 C535 1.457 . S
C534 H539 0.929 . S
C535 C534 1.457 . S
C535 C536 1.291 . S
C535 H548 0.931 . S
C536 C535 1.291 . S
C536 C537 1.373 . S
C536 H549 0.929 . S
C537 C536 1.373 . S
C537 C538 1.396 . S
C537 C544 1.403 . S
C538 C528 1.476 . S
C538 N533 1.318 . S
C538 C537 1.396 . S
H539 C534 0.929 . S
O540 Mn516 2.385 . S
O540 C518 1.234 . S
O541 Mn516 2.209 . S
O541 Mn517 2.215 . S
O541 C518 1.283 . S
O542 Mn516 2.094 . S
O542 C520 1.240 . S
O543 Mn517 2.117 . S
O543 C520 1.264 . S
C544 C537 1.403 . S
C544 C545 1.399 . S
C544 H550 0.929 . S
C545 C525 1.449 . S
C545 C544 1.399 . S
C545 H551 0.930 . S
H546 C526 0.931 . S
H547 C527 0.930 . S
H548 C535 0.931 . S
H549 C536 0.929 . S
H550 C544 0.929 . S
H551 C545 0.930 . S
Mn552 O557 2.095 . S
Mn552 O567 2.162 . S
Mn552 O568 2.297 . S
Mn552 O576 2.385 . S
Mn552 O577 2.209 . S
Mn552 O578 2.094 . S
Mn553 O558 2.121 . S
Mn553 N560 2.257 . S
Mn553 N569 2.282 1_655 S
Mn553 O577 2.215 1_655 S
Mn553 O579 2.117 1_655 S
C554 O576 1.234 . S
C554 O577 1.283 . S
C555 O567 1.281 . S
C555 O568 1.236 . S
C556 O578 1.240 . S
C556 O579 1.264 . S
O557 Mn552 2.095 . S
O557 C566 1.250 1_455 S
O558 Mn553 2.121 . S
O558 C566 1.258 . S
C559 N560 1.326 . S
C559 C563 1.460 . S
C559 H565 0.929 . S
N560 Mn553 2.257 . S
N560 C559 1.326 . S
N560 C564 1.362 . S
C561 C562 1.258 . S
C561 C564 1.431 . S
C561 C581 1.449 . S
C562 C561 1.258 . S
C562 C563 1.477 . S
C562 H582 0.931 . S
C563 C559 1.460 . S
C563 C562 1.477 . S
C563 H583 0.930 . S
C564 N560 1.362 . S
C564 C561 1.431 . S
C564 C574 1.476 . S
H565 C559 0.929 . S
C566 O557 1.250 1_655 S
C566 O558 1.258 . S
O567 Mn552 2.162 . S
O567 C555 1.281 . S
O568 Mn552 2.297 . S
O568 C555 1.236 . S
N569 Mn553 2.282 1_455 S
N569 C570 1.328 . S
N569 C574 1.318 1_455 S
C570 N569 1.328 . S
C570 C571 1.457 . S
C570 H575 0.929 . S
C571 C570 1.457 . S
C571 C572 1.291 . S
C571 H584 0.931 . S
C572 C571 1.291 . S
C572 C573 1.390 . S
C572 H585 0.929 . S
C573 C572 1.390 . S
C573 C574 1.391 1_455 S
C573 C580 1.391 1_455 S
C574 C564 1.476 . S
C574 N569 1.318 1_655 S
C574 C573 1.391 1_655 S
H575 C570 0.929 . S
O576 Mn552 2.385 . S
O576 C554 1.234 . S
O577 Mn552 2.209 . S
O577 Mn553 2.215 1_455 S
O577 C554 1.283 . S
O578 Mn552 2.094 . S
O578 C556 1.240 . S
O579 Mn553 2.117 1_455 S
O579 C556 1.264 . S
C580 C573 1.391 1_655 S
C580 C581 1.399 . S
C580 H586 0.929 . S
C581 C561 1.449 . S
C581 C580 1.399 . S
C581 H587 0.930 . S
H582 C562 0.931 . S
H583 C563 0.930 . S
H584 C571 0.931 . S
H585 C572 0.929 . S
H586 C580 0.929 . S
H587 C581 0.930 . S
Mn588 O593 2.095 . S
Mn588 O603 2.162 . S
Mn588 O604 2.297 . S
Mn588 O612 2.385 . S
Mn588 O613 2.209 . S
Mn588 O614 2.094 . S
Mn589 O594 2.121 . S
Mn589 N596 2.257 . S
Mn589 N605 2.282 . S
Mn589 O613 2.215 . S
Mn589 O615 2.117 . S
C590 O612 1.234 . S
C590 O613 1.283 . S
C591 O603 1.281 . S
C591 O604 1.236 . S
C592 O614 1.240 . S
C592 O615 1.264 . S
O593 Mn588 2.095 . S
O593 C602 1.250 . S
O594 Mn589 2.121 . S
O594 C602 1.258 . S
C595 N596 1.326 . S
C595 C599 1.460 . S
C595 H601 0.929 . S
N596 Mn589 2.257 . S
N596 C595 1.326 . S
N596 C600 1.362 . S
C597 C598 1.258 . S
C597 C600 1.431 . S
C597 C617 1.449 . S
C598 C597 1.258 . S
C598 C599 1.477 . S
C598 H618 0.931 . S
C599 C595 1.460 . S
C599 C598 1.477 . S
C599 H619 0.930 . S
C600 N596 1.362 . S
C600 C597 1.431 . S
C600 C610 1.476 . S
H601 C595 0.929 . S
C602 O593 1.250 . S
C602 O594 1.258 . S
O603 Mn588 2.162 . S
O603 C591 1.281 . S
O604 Mn588 2.297 . S
O604 C591 1.236 . S
N605 Mn589 2.282 . S
N605 C606 1.328 . S
N605 C610 1.318 . S
C606 N605 1.328 . S
C606 C607 1.457 . S
C606 H611 0.929 . S
C607 C606 1.457 . S
C607 C608 1.291 . S
C607 H620 0.931 . S
C608 C607 1.291 . S
C608 C609 1.373 . S
C608 H621 0.929 . S
C609 C608 1.373 . S
C609 C610 1.396 . S
C609 C616 1.403 . S
C610 C600 1.476 . S
C610 N605 1.318 . S
C610 C609 1.396 . S
H611 C606 0.929 . S
O612 Mn588 2.385 . S
O612 C590 1.234 . S
O613 Mn588 2.209 . S
O613 Mn589 2.215 . S
O613 C590 1.283 . S
O614 Mn588 2.094 . S
O614 C592 1.240 . S
O615 Mn589 2.117 . S
O615 C592 1.264 . S
C616 C609 1.403 . S
C616 C617 1.399 . S
C616 H622 0.929 . S
C617 C597 1.449 . S
C617 C616 1.399 . S
C617 H623 0.930 . S
H618 C598 0.931 . S
H619 C599 0.930 . S
H620 C607 0.931 . S
H621 C608 0.929 . S
H622 C616 0.929 . S
H623 C617 0.930 . S
C624 C625 1.349 . S
C624 C626 1.327 . S
C624 H649 0.950 . S
C625 C624 1.349 . S
C625 C641 1.349 . S
C626 C624 1.327 . S
C626 C645 1.429 . S
C626 H650 0.950 . S
C627 C644 1.574 . S
C627 C646 1.368 . S
C627 H651 0.949 . S
H628 C632 0.949 . S
C629 C630 1.349 . S
C629 C631 1.327 . S
C629 H652 0.950 . S
C630 C629 1.349 . S
C630 C642 1.349 . S
C631 C629 1.327 . S
C631 C647 1.429 . S
C631 H653 0.950 . S
C632 H628 0.949 . S
C632 C640 1.574 . S
C632 C648 1.368 . S
H633 C641 0.950 . S
H634 C639 0.950 . S
H635 C640 0.949 . S
H636 C642 0.950 . S
H637 C643 0.950 . S
H638 C644 0.949 . S
C639 H634 0.950 . S
C639 C641 1.327 . S
C639 C645 1.429 . S
C640 C632 1.574 . S
C640 H635 0.949 . S
C640 C646 1.368 . S
C641 C625 1.349 . S
C641 H633 0.950 . S
C641 C639 1.327 . S
C642 C630 1.349 . S
C642 H636 0.950 . S
C642 C643 1.327 . S
C643 H637 0.950 . S
C643 C642 1.327 . S
C643 C647 1.429 . S
C644 C627 1.574 . S
C644 H638 0.949 . S
C644 C648 1.368 . S
C645 C626 1.429 . S
C645 C639 1.429 . S
C645 C646 1.523 . S
C646 C627 1.368 . S
C646 C640 1.368 . S
C646 C645 1.523 . S
C647 C631 1.429 . S
C647 C643 1.429 . S
C647 C648 1.523 . S
C648 C632 1.368 . S
C648 C644 1.368 . S
C648 C647 1.523 . S
H649 C624 0.950 . S
H650 C626 0.950 . S
H651 C627 0.949 . S
H652 C629 0.950 . S
H653 C631 0.950 . S
C654 C655 1.349 . S
C654 C656 1.327 . S
C654 H679 0.950 . S
C655 C654 1.349 . S
C655 C671 1.349 . S
C656 C654 1.327 . S
C656 C675 1.429 . S
C656 H680 0.950 . S
C657 C674 1.574 . S
C657 C676 1.368 . S
C657 H681 0.949 . S
H658 C662 0.949 . S
C659 C660 1.349 . S
C659 C661 1.327 . S
C659 H682 0.950 . S
C660 C659 1.349 . S
C660 C672 1.349 . S
C661 C659 1.327 . S
C661 C677 1.429 . S
C661 H683 0.950 . S
C662 H658 0.949 . S
C662 C670 1.574 . S
C662 C678 1.368 . S
H663 C671 0.950 . S
H664 C669 0.950 . S
H665 C670 0.949 . S
H666 C672 0.950 . S
H667 C673 0.950 . S
H668 C674 0.949 . S
C669 H664 0.950 . S
C669 C671 1.327 . S
C669 C675 1.429 . S
C670 C662 1.574 . S
C670 H665 0.949 . S
C670 C676 1.368 . S
C671 C655 1.349 . S
C671 H663 0.950 . S
C671 C669 1.327 . S
C672 C660 1.349 . S
C672 H666 0.950 . S
C672 C673 1.327 . S
C673 H667 0.950 . S
C673 C672 1.327 . S
C673 C677 1.429 . S
C674 C657 1.574 . S
C674 H668 0.949 . S
C674 C678 1.368 . S
C675 C656 1.429 . S
C675 C669 1.429 . S
C675 C676 1.523 . S
C676 C657 1.368 . S
C676 C670 1.368 . S
C676 C675 1.523 . S
C677 C661 1.429 . S
C677 C673 1.429 . S
C677 C678 1.523 . S
C678 C662 1.368 . S
C678 C674 1.368 . S
C678 C677 1.523 . S
H679 C654 0.950 . S
H680 C656 0.950 . S
H681 C657 0.949 . S
H682 C659 0.950 . S
H683 C661 0.950 . S
C684 C685 1.349 . S
C684 C686 1.327 . S
C684 H709 0.950 . S
C685 C684 1.349 . S
C685 C701 1.349 . S
C686 C684 1.327 . S
C686 C705 1.429 . S
C686 H710 0.950 . S
C687 C704 1.574 . S
C687 C706 1.368 . S
C687 H711 0.949 . S
H688 C692 0.949 . S
C689 C690 1.349 . S
C689 C691 1.327 . S
C689 H712 0.950 . S
C690 C689 1.349 . S
C690 C702 1.349 . S
C691 C689 1.327 . S
C691 C707 1.429 . S
C691 H713 0.950 . S
C692 H688 0.949 . S
C692 C700 1.574 . S
C692 C708 1.368 . S
H693 C701 0.950 . S
H694 C699 0.950 . S
H695 C700 0.949 . S
H696 C702 0.950 . S
H697 C703 0.950 . S
H698 C704 0.949 . S
C699 H694 0.950 . S
C699 C701 1.327 . S
C699 C705 1.429 . S
C700 C692 1.574 . S
C700 H695 0.949 . S
C700 C706 1.368 . S
C701 C685 1.349 . S
C701 H693 0.950 . S
C701 C699 1.327 . S
C702 C690 1.349 . S
C702 H696 0.950 . S
C702 C703 1.327 . S
C703 H697 0.950 . S
C703 C702 1.327 . S
C703 C707 1.429 . S
C704 C687 1.574 . S
C704 H698 0.949 . S
C704 C708 1.368 . S
C705 C686 1.429 . S
C705 C699 1.429 . S
C705 C706 1.523 . S
C706 C687 1.368 . S
C706 C700 1.368 . S
C706 C705 1.523 . S
C707 C691 1.429 . S
C707 C703 1.429 . S
C707 C708 1.523 . S
C708 C692 1.368 . S
C708 C704 1.368 . S
C708 C707 1.523 . S
H709 C684 0.950 . S
H710 C686 0.950 . S
H711 C687 0.949 . S
H712 C689 0.950 . S
H713 C691 0.950 . S
C714 C715 1.349 1_545 S
C714 C716 1.327 . S
C714 H739 0.950 . S
C715 C714 1.349 1_565 S
C715 C731 1.349 . S
C716 C714 1.327 . S
C716 C735 1.429 1_545 S
C716 H740 0.950 . S
C717 C734 1.574 . S
C717 C736 1.368 1_665 S
C717 H741 0.949 . S
H718 C722 0.949 . S
C719 C720 1.349 . S
C719 C721 1.327 . S
C719 H742 0.950 . S
C720 C719 1.349 . S
C720 C732 1.349 . S
C721 C719 1.327 . S
C721 C737 1.429 . S
C721 H743 0.950 1_545 S
C722 H718 0.949 . S
C722 C730 1.574 . S
C722 C738 1.368 1_455 S
H723 C731 0.950 . S
H724 C729 0.950 1_655 S
H725 C730 0.949 . S
H726 C732 0.950 . S
H727 C733 0.900 1_455 S
H728 C734 0.949 . S
C729 H724 0.950 1_455 S
C729 C731 1.327 . S
C729 C735 1.429 . S
C730 C722 1.574 . S
C730 H725 0.949 . S
C730 C736 1.368 . S
C731 C715 1.349 . S
C731 H723 0.950 . S
C731 C729 1.327 . S
C732 C720 1.349 . S
C732 H726 0.950 . S
C732 C733 1.327 . S
C733 H727 0.900 1_655 S
C733 C732 1.327 . S
C733 C737 1.429 . S
C734 C717 1.574 . S
C734 H728 0.949 . S
C734 C738 1.368 1_565 S
C735 C716 1.429 1_565 S
C735 C729 1.429 . S
C735 C736 1.523 1_565 S
C736 C717 1.368 1_445 S
C736 C730 1.368 . S
C736 C735 1.523 1_545 S
C737 C721 1.429 . S
C737 C733 1.429 . S
C737 C738 1.523 . S
C738 C722 1.368 1_655 S
C738 C734 1.368 1_545 S
C738 C737 1.523 . S
H739 C714 0.950 . S
H740 C716 0.950 . S
H741 C717 0.949 . S
H742 C719 0.950 . S
H743 C721 0.950 1_565 S
C744 C745 1.349 . S
C744 C746 1.327 . S
C744 H769 0.950 . S
C745 C744 1.349 . S
C745 C761 1.349 . S
C746 C744 1.327 . S
C746 C765 1.429 . S
C746 H770 0.950 . S
C747 C764 1.574 . S
C747 C766 1.368 . S
C747 H771 0.949 . S
H748 C752 0.949 . S
C749 C750 1.349 . S
C749 C751 1.327 . S
C749 H772 0.950 . S
C750 C749 1.349 . S
C750 C762 1.349 . S
C751 C749 1.327 . S
C751 C767 1.429 . S
C751 H773 0.950 . S
C752 H748 0.949 . S
C752 C760 1.574 . S
C752 C768 1.368 . S
H753 C761 0.950 . S
H754 C759 0.950 . S
H755 C760 0.949 . S
H756 C762 0.950 . S
H757 C763 0.950 . S
H758 C764 0.949 . S
C759 H754 0.950 . S
C759 C761 1.327 . S
C759 C765 1.429 . S
C760 C752 1.574 . S
C760 H755 0.949 . S
C760 C766 1.368 . S
C761 C745 1.349 . S
C761 H753 0.950 . S
C761 C759 1.327 . S
C762 C750 1.349 . S
C762 H756 0.950 . S
C762 C763 1.327 . S
C763 H757 0.950 . S
C763 C762 1.327 . S
C763 C767 1.429 . S
C764 C747 1.574 . S
C764 H758 0.949 . S
C764 C768 1.368 . S
C765 C746 1.429 . S
C765 C759 1.429 . S
C765 C766 1.523 . S
C766 C747 1.368 . S
C766 C760 1.368 . S
C766 C765 1.523 . S
C767 C751 1.429 . S
C767 C763 1.429 . S
C767 C768 1.523 . S
C768 C752 1.368 . S
C768 C764 1.368 . S
C768 C767 1.523 . S
H769 C744 0.950 . S
H770 C746 0.950 . S
H771 C747 0.949 . S
H772 C749 0.950 . S
H773 C751 0.950 . S
C774 C775 1.349 . S
C774 C776 1.327 . S
C774 H799 0.950 . S
C775 C774 1.349 . S
C775 C791 1.349 . S
C776 C774 1.327 . S
C776 C795 1.429 . S
C776 H800 0.950 . S
C777 C794 1.574 . S
C777 C796 1.368 . S
C777 H801 0.949 . S
H778 C782 0.949 . S
C779 C780 1.349 . S
C779 C781 1.327 . S
C779 H802 0.950 . S
C780 C779 1.349 . S
C780 C792 1.349 . S
C781 C779 1.327 . S
C781 C797 1.429 . S
C781 H803 0.950 . S
C782 H778 0.949 . S
C782 C790 1.574 . S
C782 C798 1.368 . S
H783 C791 0.950 . S
H784 C789 0.950 . S
H785 C790 0.949 . S
H786 C792 0.950 . S
H787 C793 0.950 . S
H788 C794 0.949 . S
C789 H784 0.950 . S
C789 C791 1.327 . S
C789 C795 1.429 . S
C790 C782 1.574 . S
C790 H785 0.949 . S
C790 C796 1.368 . S
C791 C775 1.349 . S
C791 H783 0.950 . S
C791 C789 1.327 . S
C792 C780 1.349 . S
C792 H786 0.950 . S
C792 C793 1.327 . S
C793 H787 0.950 . S
C793 C792 1.327 . S
C793 C797 1.429 . S
C794 C777 1.574 . S
C794 H788 0.949 . S
C794 C798 1.368 . S
C795 C776 1.429 . S
C795 C789 1.429 . S
C795 C796 1.523 . S
C796 C777 1.368 . S
C796 C790 1.368 . S
C796 C795 1.523 . S
C797 C781 1.429 . S
C797 C793 1.429 . S
C797 C798 1.523 . S
C798 C782 1.368 . S
C798 C794 1.368 . S
C798 C797 1.523 . S
H799 C774 0.950 . S
H800 C776 0.950 . S
H801 C777 0.949 . S
H802 C779 0.950 . S
H803 C781 0.950 . S
C804 C805 1.349 . S
C804 C806 1.327 . S
C804 H829 0.950 . S
C805 C804 1.349 . S
C805 C821 1.349 . S
C806 C804 1.327 . S
C806 C825 1.429 . S
C806 H830 0.950 . S
C807 C824 1.574 . S
C807 C826 1.368 . S
C807 H831 0.949 . S
H808 C812 0.949 . S
C809 C810 1.349 . S
C809 C811 1.327 . S
C809 H832 0.950 . S
C810 C809 1.349 . S
C810 C822 1.349 . S
C811 C809 1.327 . S
C811 C827 1.429 . S
C811 H833 0.950 . S
C812 H808 0.949 . S
C812 C820 1.574 . S
C812 C828 1.368 . S
H813 C821 0.950 . S
H814 C819 0.950 . S
H815 C820 0.949 . S
H816 C822 0.950 . S
H817 C823 0.950 . S
H818 C824 0.949 . S
C819 H814 0.950 . S
C819 C821 1.327 . S
C819 C825 1.429 . S
C820 C812 1.574 . S
C820 H815 0.949 . S
C820 C826 1.368 . S
C821 C805 1.349 . S
C821 H813 0.950 . S
C821 C819 1.327 . S
C822 C810 1.349 . S
C822 H816 0.950 . S
C822 C823 1.327 . S
C823 H817 0.950 . S
C823 C822 1.327 . S
C823 C827 1.429 . S
C824 C807 1.574 . S
C824 H818 0.949 . S
C824 C828 1.368 . S
C825 C806 1.429 . S
C825 C819 1.429 . S
C825 C826 1.523 . S
C826 C807 1.368 . S
C826 C820 1.368 . S
C826 C825 1.523 . S
C827 C811 1.429 . S
C827 C823 1.429 . S
C827 C828 1.523 . S
C828 C812 1.368 . S
C828 C824 1.368 . S
C828 C827 1.523 . S
H829 C804 0.950 . S
H830 C806 0.950 . S
H831 C807 0.949 . S
H832 C809 0.950 . S
H833 C811 0.950 . S
C834 C835 1.349 . S
C834 C836 1.328 1_565 S
C834 H859 0.950 1_565 S
C835 C834 1.349 . S
C835 C851 1.349 . S
C836 C834 1.328 1_545 S
C836 C855 1.417 1_545 S
C836 H860 0.961 . S
C837 C854 1.574 . S
C837 C856 1.368 . S
C837 H861 0.949 . S
H838 C842 0.949 . S
C839 C840 1.349 . S
C839 C841 1.327 . S
C839 H862 0.950 . S
C840 C839 1.349 . S
C840 C852 1.349 1_565 S
C841 C839 1.327 . S
C841 C857 1.429 . S
C841 H863 0.950 . S
C842 H838 0.949 . S
C842 C850 1.574 . S
C842 C858 1.368 1_545 S
H843 C851 0.950 . S
H844 C849 0.950 . S
H845 C850 0.949 . S
H846 C852 0.950 . S
H847 C853 0.950 . S
H848 C854 0.949 . S
C849 H844 0.950 . S
C849 C851 1.327 . S
C849 C855 1.429 . S
C850 C842 1.574 . S
C850 H845 0.949 . S
C850 C856 1.368 1_545 S
C851 C835 1.349 . S
C851 H843 0.950 . S
C851 C849 1.327 . S
C852 C840 1.349 1_545 S
C852 H846 0.950 . S
C852 C853 1.327 . S
C853 H847 0.950 . S
C853 C852 1.327 . S
C853 C857 1.429 1_545 S
C854 C837 1.574 . S
C854 H848 0.949 . S
C854 C858 1.368 . S
C855 C836 1.417 1_565 S
C855 C849 1.429 . S
C855 C856 1.523 . S
C856 C837 1.368 . S
C856 C850 1.368 1_565 S
C856 C855 1.523 . S
C857 C841 1.429 . S
C857 C853 1.429 1_565 S
C857 C858 1.523 . S
C858 C842 1.368 1_565 S
C858 C854 1.368 . S
C858 C857 1.523 . S
H859 C834 0.950 1_545 S
H860 C836 0.961 . S
H861 C837 0.949 . S
H862 C839 0.950 . S
H863 C841 0.950 . S
C864 C865 1.349 . S
C864 C866 1.327 . S
C864 H889 0.950 . S
C865 C864 1.349 . S
C865 C881 1.349 . S
C866 C864 1.327 . S
C866 C885 1.429 . S
C866 H890 0.950 . S
C867 C884 1.574 . S
C867 C886 1.368 . S
C867 H891 0.949 . S
H868 C872 0.949 . S
C869 C870 1.349 . S
C869 C871 1.327 . S
C869 H892 0.950 . S
C870 C869 1.349 . S
C870 C882 1.349 . S
C871 C869 1.327 . S
C871 C887 1.429 . S
C871 H893 0.950 . S
C872 H868 0.949 . S
C872 C880 1.574 . S
C872 C888 1.368 . S
H873 C881 0.950 . S
H874 C879 0.950 . S
H875 C880 0.949 . S
H876 C882 0.950 . S
H877 C883 0.950 . S
H878 C884 0.949 . S
C879 H874 0.950 . S
C879 C881 1.327 . S
C879 C885 1.429 . S
C880 C872 1.574 . S
C880 H875 0.949 . S
C880 C886 1.368 . S
C881 C865 1.349 . S
C881 H873 0.950 . S
C881 C879 1.327 . S
C882 C870 1.349 . S
C882 H876 0.950 . S
C882 C883 1.327 . S
C883 H877 0.950 . S
C883 C882 1.327 . S
C883 C887 1.429 . S
C884 C867 1.574 . S
C884 H878 0.949 . S
C884 C888 1.368 . S
C885 C866 1.429 . S
C885 C879 1.429 . S
C885 C886 1.523 . S
C886 C867 1.368 . S
C886 C880 1.368 . S
C886 C885 1.523 . S
C887 C871 1.429 . S
C887 C883 1.429 . S
C887 C888 1.523 . S
C888 C872 1.368 . S
C888 C884 1.368 . S
C888 C887 1.523 . S
H889 C864 0.950 . S
H890 C866 0.950 . S
H891 C867 0.949 . S
H892 C869 0.950 . S
H893 C871 0.950 . S
C894 C895 1.349 . S
C894 C896 1.327 . S
C894 H919 0.950 . S
C895 C894 1.349 . S
C895 C911 1.349 . S
C896 C894 1.327 . S
C896 C915 1.429 . S
C896 H920 0.950 . S
C897 C914 1.574 . S
C897 C916 1.368 . S
C897 H921 0.949 . S
H898 C902 0.949 . S
C899 C900 1.349 . S
C899 C901 1.327 . S
C899 H922 0.950 . S
C900 C899 1.349 . S
C900 C912 1.349 . S
C901 C899 1.327 . S
C901 C917 1.429 . S
C901 H923 0.950 . S
C902 H898 0.949 . S
C902 C910 1.574 . S
C902 C918 1.368 . S
H903 C911 0.950 . S
H904 C909 0.950 . S
H905 C910 0.949 . S
H906 C912 0.950 . S
H907 C913 0.950 . S
H908 C914 0.949 . S
C909 H904 0.950 . S
C909 C911 1.327 . S
C909 C915 1.429 . S
C910 C902 1.574 . S
C910 H905 0.949 . S
C910 C916 1.368 . S
C911 C895 1.349 . S
C911 H903 0.950 . S
C911 C909 1.327 . S
C912 C900 1.349 . S
C912 H906 0.950 . S
C912 C913 1.327 . S
C913 H907 0.950 . S
C913 C912 1.327 . S
C913 C917 1.429 . S
C914 C897 1.574 . S
C914 H908 0.949 . S
C914 C918 1.368 . S
C915 C896 1.429 . S
C915 C909 1.429 . S
C915 C916 1.523 . S
C916 C897 1.368 . S
C916 C910 1.368 . S
C916 C915 1.523 . S
C917 C901 1.429 . S
C917 C913 1.429 . S
C917 C918 1.523 . S
C918 C902 1.368 . S
C918 C914 1.368 . S
C918 C917 1.523 . S
H919 C894 0.950 . S
H920 C896 0.950 . S
H921 C897 0.949 . S
H922 C899 0.950 . S
H923 C901 0.950 . S
C924 C925 1.349 . S
C924 C926 1.327 . S
C924 H949 0.950 . S
C925 C924 1.349 . S
C925 C941 1.349 . S
C926 C924 1.327 . S
C926 C945 1.429 . S
C926 H950 0.950 . S
C927 C944 1.574 . S
C927 C946 1.368 . S
C927 H951 0.949 . S
H928 C932 0.949 . S
C929 C930 1.349 . S
C929 C931 1.327 . S
C929 H952 0.950 . S
C930 C929 1.349 . S
C930 C942 1.349 . S
C931 C929 1.327 . S
C931 C947 1.429 . S
C931 H953 0.950 . S
C932 H928 0.949 . S
C932 C940 1.574 . S
C932 C948 1.368 . S
H933 C941 0.950 . S
H934 C939 0.950 . S
H935 C940 0.949 . S
H936 C942 0.950 . S
H937 C943 0.950 . S
H938 C944 0.949 . S
C939 H934 0.950 . S
C939 C941 1.327 . S
C939 C945 1.429 . S
C940 C932 1.574 . S
C940 H935 0.949 . S
C940 C946 1.368 . S
C941 C925 1.349 . S
C941 H933 0.950 . S
C941 C939 1.327 . S
C942 C930 1.349 . S
C942 H936 0.950 . S
C942 C943 1.327 . S
C943 H937 0.950 . S
C943 C942 1.327 . S
C943 C947 1.429 . S
C944 C927 1.574 . S
C944 H938 0.949 . S
C944 C948 1.368 . S
C945 C926 1.429 . S
C945 C939 1.429 . S
C945 C946 1.523 . S
C946 C927 1.368 . S
C946 C940 1.368 . S
C946 C945 1.523 . S
C947 C931 1.429 . S
C947 C943 1.429 . S
C947 C948 1.523 . S
C948 C932 1.368 . S
C948 C944 1.368 . S
C948 C947 1.523 . S
H949 C924 0.950 . S
H950 C926 0.950 . S
H951 C927 0.949 . S
H952 C929 0.950 . S
H953 C931 0.950 . S
C954 C955 1.349 . S
C954 C956 1.327 . S
C954 H979 0.950 . S
C955 C954 1.349 . S
C955 C971 1.349 . S
C956 C954 1.327 . S
C956 C975 1.429 . S
C956 H980 0.950 . S
C957 C974 1.574 . S
C957 C976 1.368 . S
C957 H981 0.949 . S
H958 C962 0.949 . S
C959 C960 1.349 . S
C959 C961 1.327 . S
C959 H982 0.950 . S
C960 C959 1.349 . S
C960 C972 1.349 . S
C961 C959 1.327 . S
C961 C977 1.429 . S
C961 H983 0.950 . S
C962 H958 0.949 . S
C962 C970 1.574 . S
C962 C978 1.368 . S
H963 C971 0.950 . S
H964 C969 0.950 . S
H965 C970 0.949 . S
H966 C972 0.950 . S
H967 C973 0.950 . S
H968 C974 0.949 . S
C969 H964 0.950 . S
C969 C971 1.327 . S
C969 C975 1.429 . S
C970 C962 1.574 . S
C970 H965 0.949 . S
C970 C976 1.368 . S
C971 C955 1.349 . S
C971 H963 0.950 . S
C971 C969 1.327 . S
C972 C960 1.349 . S
C972 H966 0.950 . S
C972 C973 1.327 . S
C973 H967 0.950 . S
C973 C972 1.327 . S
C973 C977 1.429 . S
C974 C957 1.574 . S
C974 H968 0.949 . S
C974 C978 1.368 . S
C975 C956 1.429 . S
C975 C969 1.429 . S
C975 C976 1.523 . S
C976 C957 1.368 . S
C976 C970 1.368 . S
C976 C975 1.523 . S
C977 C961 1.429 . S
C977 C973 1.429 . S
C977 C978 1.523 . S
C978 C962 1.368 . S
C978 C974 1.368 . S
C978 C977 1.523 . S
H979 C954 0.950 . S
H980 C956 0.950 . S
H981 C957 0.949 . S
H982 C959 0.950 . S
H983 C961 0.950 . S
C984 C985 1.349 . S
C984 C986 1.327 . S
C984 H1009 0.950 . S
C985 C984 1.349 . S
C985 C1001 1.349 . S
C986 C984 1.327 . S
C986 C1005 1.429 . S
C986 H1010 0.950 . S
C987 C1004 1.574 . S
C987 C1006 1.368 . S
C987 H1011 0.949 . S
H988 C992 0.949 . S
C989 C990 1.349 . S
C989 C991 1.327 . S
C989 H1012 0.950 . S
C990 C989 1.349 . S
C990 C1002 1.349 . S
C991 C989 1.327 . S
C991 C1007 1.429 . S
C991 H1013 0.950 . S
C992 H988 0.949 . S
C992 C1000 1.574 . S
C992 C1008 1.368 . S
H993 C1001 0.950 . S
H994 C999 0.950 . S
H995 C1000 0.949 . S
H996 C1002 0.950 . S
H997 C1003 0.950 . S
H998 C1004 0.949 . S
C999 H994 0.950 . S
C999 C1001 1.327 . S
C999 C1005 1.429 . S
C1000 C992 1.574 . S
C1000 H995 0.949 . S
C1000 C1006 1.368 . S
C1001 C985 1.349 . S
C1001 H993 0.950 . S
C1001 C999 1.327 . S
C1002 C990 1.349 . S
C1002 H996 0.950 . S
C1002 C1003 1.327 . S
C1003 H997 0.950 . S
C1003 C1002 1.327 . S
C1003 C1007 1.429 . S
C1004 C987 1.574 . S
C1004 H998 0.949 . S
C1004 C1008 1.368 . S
C1005 C986 1.429 . S
C1005 C999 1.429 . S
C1005 C1006 1.523 . S
C1006 C987 1.368 . S
C1006 C1000 1.368 . S
C1006 C1005 1.523 . S
C1007 C991 1.429 . S
C1007 C1003 1.429 . S
C1007 C1008 1.523 . S
C1008 C992 1.368 . S
C1008 C1004 1.368 . S
C1008 C1007 1.523 . S
H1009 C984 0.950 . S
H1010 C986 0.950 . S
H1011 C987 0.949 . S
H1012 C989 0.950 . S
H1013 C991 0.950 . S
C1014 C1015 1.349 . S
C1014 C1016 1.327 . S
C1014 H1039 0.950 . S
C1015 C1014 1.349 . S
C1015 C1031 1.349 . S
C1016 C1014 1.327 . S
C1016 C1035 1.429 . S
C1016 H1040 0.950 . S
C1017 C1034 1.574 . S
C1017 C1036 1.368 . S
C1017 H1041 0.949 . S
H1018 C1022 0.949 . S
C1019 C1020 1.349 . S
C1019 C1021 1.327 . S
C1019 H1042 0.950 . S
C1020 C1019 1.349 . S
C1020 C1032 1.349 . S
C1021 C1019 1.327 . S
C1021 C1037 1.429 . S
C1021 H1043 0.950 . S
C1022 H1018 0.949 . S
C1022 C1030 1.574 . S
C1022 C1038 1.368 . S
H1023 C1031 0.950 . S
H1024 C1029 0.950 . S
H1025 C1030 0.949 . S
H1026 C1032 0.945 1_655 S
H1027 C1033 0.950 . S
H1028 C1034 0.949 . S
C1029 H1024 0.950 . S
C1029 C1031 1.327 . S
C1029 C1035 1.429 . S
C1030 C1022 1.574 . S
C1030 H1025 0.949 . S
C1030 C1036 1.368 . S
C1031 C1015 1.349 . S
C1031 H1023 0.950 . S
C1031 C1029 1.327 . S
C1032 C1020 1.349 . S
C1032 H1026 0.945 1_455 S
C1032 C1033 1.327 . S
C1033 H1027 0.950 . S
C1033 C1032 1.327 . S
C1033 C1037 1.429 . S
C1034 C1017 1.574 . S
C1034 H1028 0.949 . S
C1034 C1038 1.368 . S
C1035 C1016 1.429 . S
C1035 C1029 1.429 . S
C1035 C1036 1.523 . S
C1036 C1017 1.368 . S
C1036 C1030 1.368 . S
C1036 C1035 1.523 . S
C1037 C1021 1.429 . S
C1037 C1033 1.429 . S
C1037 C1038 1.523 . S
C1038 C1022 1.368 . S
C1038 C1034 1.368 . S
C1038 C1037 1.523 . S
H1039 C1014 0.950 . S
H1040 C1016 0.950 . S
H1041 C1017 0.949 . S
H1042 C1019 0.950 . S
H1043 C1021 0.950 . S
C1044 C1045 1.349 . S
C1044 C1046 1.327 . S
C1044 H1069 0.950 . S
C1045 C1044 1.349 . S
C1045 C1061 1.349 . S
C1046 C1044 1.327 . S
C1046 C1065 1.429 . S
C1046 H1070 0.950 . S
C1047 C1064 1.574 . S
C1047 C1066 1.368 . S
C1047 H1071 0.949 . S
H1048 C1052 0.949 . S
C1049 C1050 1.349 . S
C1049 C1051 1.327 . S
C1049 H1072 0.950 . S
C1050 C1049 1.349 . S
C1050 C1062 1.349 . S
C1051 C1049 1.327 . S
C1051 C1067 1.429 . S
C1051 H1073 0.950 . S
C1052 H1048 0.949 . S
C1052 C1060 1.574 . S
C1052 C1068 1.368 . S
H1053 C1061 0.950 . S
H1054 C1059 0.950 . S
H1055 C1060 0.949 . S
H1056 C1062 0.950 . S
H1057 C1063 0.950 . S
H1058 C1064 0.949 . S
C1059 H1054 0.950 . S
C1059 C1061 1.327 . S
C1059 C1065 1.429 . S
C1060 C1052 1.574 . S
C1060 H1055 0.949 . S
C1060 C1066 1.368 . S
C1061 C1045 1.349 . S
C1061 H1053 0.950 . S
C1061 C1059 1.327 . S
C1062 C1050 1.349 . S
C1062 H1056 0.950 . S
C1062 C1063 1.327 . S
C1063 H1057 0.950 . S
C1063 C1062 1.327 . S
C1063 C1067 1.429 . S
C1064 C1047 1.574 . S
C1064 H1058 0.949 . S
C1064 C1068 1.368 . S
C1065 C1046 1.429 . S
C1065 C1059 1.429 . S
C1065 C1066 1.523 . S
C1066 C1047 1.368 . S
C1066 C1060 1.368 . S
C1066 C1065 1.523 . S
C1067 C1051 1.429 . S
C1067 C1063 1.429 . S
C1067 C1068 1.523 . S
C1068 C1052 1.368 . S
C1068 C1064 1.368 . S
C1068 C1067 1.523 . S
H1069 C1044 0.950 . S
H1070 C1046 0.950 . S
H1071 C1047 0.949 . S
H1072 C1049 0.950 . S
H1073 C1051 0.950 . S
C1074 C1075 1.349 1_455 S
C1074 C1076 1.327 . S
C1074 H1099 0.950 . S
C1075 C1074 1.349 1_655 S
C1075 C1091 1.349 . S
C1076 C1074 1.327 . S
C1076 C1095 1.429 1_455 S
C1076 H1100 0.950 . S
C1077 C1094 1.574 . S
C1077 C1096 1.342 1_655 S
C1077 H1101 0.949 . S
H1078 C1082 0.949 . S
C1079 C1080 1.349 1_655 S
C1079 C1081 1.327 . S
C1079 H1102 0.950 . S
C1080 C1079 1.349 1_455 S
C1080 C1092 1.349 . S
C1081 C1079 1.327 . S
C1081 C1097 1.429 1_655 S
C1081 H1103 0.950 . S
C1082 H1078 0.949 . S
C1082 C1090 1.574 . S
C1082 C1098 1.368 . S
H1083 C1091 0.950 . S
H1084 C1089 0.950 . S
H1085 C1090 0.949 . S
H1086 C1092 0.950 . S
H1087 C1093 0.950 . S
H1088 C1094 0.949 . S
C1089 H1084 0.950 . S
C1089 C1091 1.327 . S
C1089 C1095 1.429 . S
C1090 C1082 1.574 . S
C1090 H1085 0.949 . S
C1090 C1096 1.394 . S
C1091 C1075 1.349 . S
C1091 H1083 0.950 . S
C1091 C1089 1.327 . S
C1092 C1080 1.349 . S
C1092 H1086 0.950 . S
C1092 C1093 1.327 . S
C1093 H1087 0.950 . S
C1093 C1092 1.327 . S
C1093 C1097 1.429 . S
C1094 C1077 1.574 . S
C1094 H1088 0.949 . S
C1094 C1098 1.368 1_655 S
C1095 C1076 1.429 1_655 S
C1095 C1089 1.429 . S
C1095 C1096 1.525 1_655 S
C1096 C1077 1.342 1_455 S
C1096 C1090 1.394 . S
C1096 C1095 1.525 1_455 S
C1097 C1081 1.429 1_455 S
C1097 C1093 1.429 . S
C1097 C1098 1.523 . S
C1098 C1082 1.368 . S
C1098 C1094 1.368 1_455 S
C1098 C1097 1.523 . S
H1099 C1074 0.950 . S
H1100 C1076 0.950 . S
H1101 C1077 0.949 . S
H1102 C1079 0.950 . S
H1103 C1081 0.950 . S
C1104 C1105 1.349 . S
C1104 C1106 1.327 . S
C1104 H1129 0.950 . S
C1105 C1104 1.349 . S
C1105 C1121 1.349 . S
C1106 C1104 1.327 . S
C1106 C1125 1.429 . S
C1106 H1130 0.950 . S
C1107 C1124 1.574 . S
C1107 C1126 1.368 . S
C1107 H1131 0.949 . S
H1108 C1112 0.949 . S
C1109 C1110 1.349 . S
C1109 C1111 1.327 . S
C1109 H1132 0.938 1_565 S
C1110 C1109 1.349 . S
C1110 C1122 1.349 . S
C1111 C1109 1.327 . S
C1111 C1127 1.429 . S
C1111 H1133 0.950 . S
C1112 H1108 0.949 . S
C1112 C1120 1.574 . S
C1112 C1128 1.368 . S
H1113 C1121 0.950 . S
H1114 C1119 0.950 . S
H1115 C1120 0.949 . S
H1116 C1122 0.950 . S
H1117 C1123 0.950 . S
H1118 C1124 0.949 . S
C1119 H1114 0.950 . S
C1119 C1121 1.327 . S
C1119 C1125 1.429 . S
C1120 C1112 1.574 . S
C1120 H1115 0.949 . S
C1120 C1126 1.368 . S
C1121 C1105 1.349 . S
C1121 H1113 0.950 . S
C1121 C1119 1.327 . S
C1122 C1110 1.349 . S
C1122 H1116 0.950 . S
C1122 C1123 1.327 . S
C1123 H1117 0.950 . S
C1123 C1122 1.327 . S
C1123 C1127 1.429 . S
C1124 C1107 1.574 . S
C1124 H1118 0.949 . S
C1124 C1128 1.368 . S
C1125 C1106 1.429 . S
C1125 C1119 1.429 . S
C1125 C1126 1.523 . S
C1126 C1107 1.368 . S
C1126 C1120 1.368 . S
C1126 C1125 1.523 . S
C1127 C1111 1.429 . S
C1127 C1123 1.429 . S
C1127 C1128 1.523 . S
C1128 C1112 1.368 . S
C1128 C1124 1.368 . S
C1128 C1127 1.523 . S
H1129 C1104 0.950 . S
H1130 C1106 0.950 . S
H1131 C1107 0.949 . S
H1132 C1109 0.938 1_545 S
H1133 C1111 0.950 . S
C1134 C1135 1.349 . S
C1134 C1136 1.327 . S
C1134 H1159 0.950 . S
C1135 C1134 1.349 . S
C1135 C1151 1.349 . S
C1136 C1134 1.327 . S
C1136 C1155 1.429 . S
C1136 H1160 0.950 . S
C1137 C1154 1.574 . S
C1137 C1156 1.368 . S
C1137 H1161 0.949 . S
H1138 C1142 0.949 . S
C1139 C1140 1.349 . S
C1139 C1141 1.327 . S
C1139 H1162 0.950 . S
C1140 C1139 1.349 . S
C1140 C1152 1.349 . S
C1141 C1139 1.327 . S
C1141 C1157 1.429 . S
C1141 H1163 0.950 . S
C1142 H1138 0.949 . S
C1142 C1150 1.574 . S
C1142 C1158 1.368 . S
H1143 C1151 0.950 . S
H1144 C1149 0.950 . S
H1145 C1150 0.949 . S
H1146 C1152 0.950 . S
H1147 C1153 0.950 . S
H1148 C1154 0.949 . S
C1149 H1144 0.950 . S
C1149 C1151 1.327 . S
C1149 C1155 1.429 . S
C1150 C1142 1.574 . S
C1150 H1145 0.949 . S
C1150 C1156 1.368 . S
C1151 C1135 1.349 . S
C1151 H1143 0.950 . S
C1151 C1149 1.327 . S
C1152 C1140 1.349 . S
C1152 H1146 0.950 . S
C1152 C1153 1.327 . S
C1153 H1147 0.950 . S
C1153 C1152 1.327 . S
C1153 C1157 1.429 . S
C1154 C1137 1.574 . S
C1154 H1148 0.949 . S
C1154 C1158 1.368 . S
C1155 C1136 1.429 . S
C1155 C1149 1.429 . S
C1155 C1156 1.523 . S
C1156 C1137 1.368 . S
C1156 C1150 1.368 . S
C1156 C1155 1.523 . S
C1157 C1141 1.429 . S
C1157 C1153 1.429 . S
C1157 C1158 1.523 . S
C1158 C1142 1.368 . S
C1158 C1154 1.368 . S
C1158 C1157 1.523 . S
H1159 C1134 0.950 . S
H1160 C1136 0.950 . S
H1161 C1137 0.949 . S
H1162 C1139 0.950 . S
H1163 C1141 0.950 . S
C1164 C1165 1.349 1_565 S
C1164 C1166 1.327 . S
C1164 H1189 0.950 . S
C1165 C1164 1.349 1_545 S
C1165 C1181 1.349 . S
C1166 C1164 1.327 . S
C1166 C1185 1.429 . S
C1166 H1190 0.950 . S
C1167 C1184 1.574 . S
C1167 C1186 1.368 1_554 S
C1167 H1191 0.949 . S
H1168 C1172 0.949 . S
C1169 C1170 1.349 . S
C1169 C1171 1.327 . S
C1169 H1192 0.950 . S
C1170 C1169 1.349 . S
C1170 C1182 1.349 1_554 S
C1171 C1169 1.327 . S
C1171 C1187 1.429 . S
C1171 H1193 0.950 . S
C1172 H1168 0.949 . S
C1172 C1180 1.574 . S
C1172 C1188 1.412 . S
H1173 C1181 0.950 1_554 S
H1174 C1179 0.950 1_554 S
H1175 C1180 0.949 . S
H1176 C1182 0.950 . S
H1177 C1183 0.950 . S
H1178 C1184 0.949 . S
C1179 H1174 0.950 1_556 S
C1179 C1181 1.327 1_565 S
C1179 C1185 1.429 . S
C1180 C1172 1.574 . S
C1180 H1175 0.949 . S
C1180 C1186 1.368 . S
C1181 C1165 1.349 . S
C1181 H1173 0.950 1_556 S
C1181 C1179 1.327 1_545 S
C1182 C1170 1.349 1_556 S
C1182 H1176 0.950 . S
C1182 C1183 1.327 . S
C1183 H1177 0.950 . S
C1183 C1182 1.327 . S
C1183 C1187 1.429 1_556 S
C1184 C1167 1.574 . S
C1184 H1178 0.949 . S
C1184 C1188 1.337 1_554 S
C1185 C1166 1.429 . S
C1185 C1179 1.429 . S
C1185 C1186 1.523 . S
C1186 C1167 1.368 1_556 S
C1186 C1180 1.368 . S
C1186 C1185 1.523 . S
C1187 C1171 1.429 . S
C1187 C1183 1.429 1_554 S
C1187 C1188 1.508 1_554 S
C1188 C1172 1.412 . S
C1188 C1184 1.337 1_556 S
C1188 C1187 1.508 1_556 S
H1189 C1164 0.950 . S
H1190 C1166 0.950 . S
H1191 C1167 0.949 . S
H1192 C1169 0.950 . S
H1193 C1171 0.950 . S
C1194 C1195 1.349 . S
C1194 C1196 1.327 . S
C1194 H1219 0.950 . S
C1195 C1194 1.349 . S
C1195 C1211 1.349 . S
C1196 C1194 1.327 . S
C1196 C1215 1.429 . S
C1196 H1220 0.950 . S
C1197 C1214 1.574 . S
C1197 C1216 1.368 . S
C1197 H1221 0.949 . S
H1198 C1202 0.949 . S
C1199 C1200 1.349 . S
C1199 C1201 1.327 . S
C1199 H1222 0.950 . S
C1200 C1199 1.349 . S
C1200 C1212 1.349 . S
C1201 C1199 1.327 . S
C1201 C1217 1.429 . S
C1201 H1223 0.950 . S
C1202 H1198 0.949 . S
C1202 C1210 1.574 . S
C1202 C1218 1.368 . S
H1203 C1211 0.950 . S
H1204 C1209 0.950 . S
H1205 C1210 0.949 . S
H1206 C1212 0.950 . S
H1207 C1213 0.950 . S
H1208 C1214 0.949 . S
C1209 H1204 0.950 . S
C1209 C1211 1.327 . S
C1209 C1215 1.429 . S
C1210 C1202 1.574 . S
C1210 H1205 0.949 . S
C1210 C1216 1.368 . S
C1211 C1195 1.349 . S
C1211 H1203 0.950 . S
C1211 C1209 1.327 . S
C1212 C1200 1.349 . S
C1212 H1206 0.950 . S
C1212 C1213 1.327 . S
C1213 H1207 0.950 . S
C1213 C1212 1.327 . S
C1213 C1217 1.429 . S
C1214 C1197 1.574 . S
C1214 H1208 0.949 . S
C1214 C1218 1.368 . S
C1215 C1196 1.429 . S
C1215 C1209 1.429 . S
C1215 C1216 1.523 . S
C1216 C1197 1.368 . S
C1216 C1210 1.368 . S
C1216 C1215 1.523 . S
C1217 C1201 1.429 . S
C1217 C1213 1.429 . S
C1217 C1218 1.523 . S
C1218 C1202 1.368 . S
C1218 C1214 1.368 . S
C1218 C1217 1.523 . S
H1219 C1194 0.950 . S
H1220 C1196 0.950 . S
H1221 C1197 0.949 . S
H1222 C1199 0.950 . S
H1223 C1201 0.950 . S
C1224 C1225 1.349 . S
C1224 C1226 1.327 . S
C1224 H1249 0.950 . S
C1225 C1224 1.349 . S
C1225 C1241 1.349 . S
C1226 C1224 1.327 . S
C1226 C1245 1.429 . S
C1226 H1250 0.950 . S
C1227 C1244 1.574 . S
C1227 C1246 1.368 . S
C1227 H1251 0.949 . S
H1228 C1232 0.949 . S
C1229 C1230 1.349 . S
C1229 C1231 1.327 . S
C1229 H1252 0.950 . S
C1230 C1229 1.349 . S
C1230 C1242 1.349 . S
C1231 C1229 1.327 . S
C1231 C1247 1.429 . S
C1231 H1253 0.950 . S
C1232 H1228 0.949 . S
C1232 C1240 1.574 . S
C1232 C1248 1.368 . S
H1233 C1241 0.950 . S
H1234 C1239 0.950 . S
H1235 C1240 0.949 . S
H1236 C1242 0.950 . S
H1237 C1243 0.950 . S
H1238 C1244 0.949 . S
C1239 H1234 0.950 . S
C1239 C1241 1.327 . S
C1239 C1245 1.429 . S
C1240 C1232 1.574 . S
C1240 H1235 0.949 . S
C1240 C1246 1.368 . S
C1241 C1225 1.349 . S
C1241 H1233 0.950 . S
C1241 C1239 1.327 . S
C1242 C1230 1.349 . S
C1242 H1236 0.950 . S
C1242 C1243 1.327 . S
C1243 H1237 0.950 . S
C1243 C1242 1.327 . S
C1243 C1247 1.429 . S
C1244 C1227 1.574 . S
C1244 H1238 0.949 . S
C1244 C1248 1.368 . S
C1245 C1226 1.429 . S
C1245 C1239 1.429 . S
C1245 C1246 1.523 . S
C1246 C1227 1.368 . S
C1246 C1240 1.368 . S
C1246 C1245 1.523 . S
C1247 C1231 1.429 . S
C1247 C1243 1.429 . S
C1247 C1248 1.523 . S
C1248 C1232 1.368 . S
C1248 C1244 1.368 . S
C1248 C1247 1.523 . S
H1249 C1224 0.950 . S
H1250 C1226 0.950 . S
H1251 C1227 0.949 . S
H1252 C1229 0.950 . S
H1253 C1231 0.950 . S
C1254 C1255 1.349 . S
C1254 C1256 1.327 . S
C1254 H1279 0.950 . S
C1255 C1254 1.349 . S
C1255 C1271 1.349 . S
C1256 C1254 1.327 . S
C1256 C1275 1.429 . S
C1256 H1280 0.950 . S
C1257 C1274 1.574 . S
C1257 C1276 1.368 . S
C1257 H1281 0.949 . S
H1258 C1262 0.949 . S
C1259 C1260 1.349 . S
C1259 C1261 1.327 . S
C1259 H1282 0.950 . S
C1260 C1259 1.349 . S
C1260 C1272 1.349 . S
C1261 C1259 1.327 . S
C1261 C1277 1.429 . S
C1261 H1283 0.950 . S
C1262 H1258 0.949 . S
C1262 C1270 1.574 . S
C1262 C1278 1.368 . S
H1263 C1271 0.950 . S
H1264 C1269 0.950 . S
H1265 C1270 0.949 . S
H1266 C1272 0.950 . S
H1267 C1273 0.950 . S
H1268 C1274 0.949 . S
C1269 H1264 0.950 . S
C1269 C1271 1.327 . S
C1269 C1275 1.429 . S
C1270 C1262 1.574 . S
C1270 H1265 0.949 . S
C1270 C1276 1.368 . S
C1271 C1255 1.349 . S
C1271 H1263 0.950 . S
C1271 C1269 1.327 . S
C1272 C1260 1.349 . S
C1272 H1266 0.950 . S
C1272 C1273 1.327 . S
C1273 H1267 0.950 . S
C1273 C1272 1.327 . S
C1273 C1277 1.429 . S
C1274 C1257 1.574 . S
C1274 H1268 0.949 . S
C1274 C1278 1.368 . S
C1275 C1256 1.429 . S
C1275 C1269 1.429 . S
C1275 C1276 1.523 . S
C1276 C1257 1.368 . S
C1276 C1270 1.368 . S
C1276 C1275 1.523 . S
C1277 C1261 1.429 . S
C1277 C1273 1.429 . S
C1277 C1278 1.523 . S
C1278 C1262 1.368 . S
C1278 C1274 1.368 . S
C1278 C1277 1.523 . S
H1279 C1254 0.950 . S
H1280 C1256 0.950 . S
H1281 C1257 0.949 . S
H1282 C1259 0.950 . S
H1283 C1261 0.950 . S
C1284 C1285 1.349 . S
C1284 C1286 1.327 . S
C1284 H1309 0.992 . S
C1285 C1284 1.349 . S
C1285 C1301 1.349 . S
C1286 C1284 1.327 . S
C1286 C1305 1.429 . S
C1286 H1310 0.950 . S
C1287 C1304 1.574 . S
C1287 C1306 1.368 . S
C1287 H1311 0.949 . S
H1288 C1292 0.949 . S
C1289 C1290 1.349 . S
C1289 C1291 1.327 . S
C1289 H1312 0.950 . S
C1290 C1289 1.349 . S
C1290 C1302 1.349 . S
C1291 C1289 1.327 . S
C1291 C1307 1.429 . S
C1291 H1313 0.950 . S
C1292 H1288 0.949 . S
C1292 C1300 1.574 . S
C1292 C1308 1.368 . S
H1293 C1301 0.950 . S
H1294 C1299 0.950 . S
H1295 C1300 0.949 . S
H1296 C1302 0.950 . S
H1297 C1303 0.950 . S
H1298 C1304 0.949 . S
C1299 H1294 0.950 . S
C1299 C1301 1.327 . S
C1299 C1305 1.429 . S
C1300 C1292 1.574 . S
C1300 H1295 0.949 . S
C1300 C1306 1.368 . S
C1301 C1285 1.349 . S
C1301 H1293 0.950 . S
C1301 C1299 1.327 . S
C1302 C1290 1.349 . S
C1302 H1296 0.950 . S
C1302 C1303 1.327 . S
C1303 H1297 0.950 . S
C1303 C1302 1.327 . S
C1303 C1307 1.429 . S
C1304 C1287 1.574 . S
C1304 H1298 0.949 . S
C1304 C1308 1.368 . S
C1305 C1286 1.429 . S
C1305 C1299 1.429 . S
C1305 C1306 1.523 . S
C1306 C1287 1.368 . S
C1306 C1300 1.368 . S
C1306 C1305 1.523 . S
C1307 C1291 1.429 . S
C1307 C1303 1.429 . S
C1307 C1308 1.523 . S
C1308 C1292 1.368 . S
C1308 C1304 1.368 . S
C1308 C1307 1.523 . S
H1309 C1284 0.992 . S
H1310 C1286 0.950 . S
H1311 C1287 0.949 . S
H1312 C1289 0.950 . S
H1313 C1291 0.950 . S
C1314 C1315 1.349 . S
C1314 C1316 1.327 . S
C1314 H1339 0.950 . S
C1315 C1314 1.349 . S
C1315 C1331 1.349 . S
C1316 C1314 1.327 . S
C1316 C1335 1.429 . S
C1316 H1340 0.950 . S
C1317 C1334 1.574 . S
C1317 C1336 1.368 . S
C1317 H1341 0.949 . S
H1318 C1322 0.949 . S
C1319 C1320 1.349 . S
C1319 C1321 1.327 . S
C1319 H1342 0.950 . S
C1320 C1319 1.349 . S
C1320 C1332 1.349 . S
C1321 C1319 1.327 . S
C1321 C1337 1.429 . S
C1321 H1343 0.950 . S
C1322 H1318 0.949 . S
C1322 C1330 1.574 . S
C1322 C1338 1.368 . S
H1323 C1331 0.950 . S
H1324 C1329 0.950 . S
H1325 C1330 0.949 . S
H1326 C1332 0.950 . S
H1327 C1333 0.950 . S
H1328 C1334 0.949 . S
C1329 H1324 0.950 . S
C1329 C1331 1.327 . S
C1329 C1335 1.429 . S
C1330 C1322 1.574 . S
C1330 H1325 0.949 . S
C1330 C1336 1.368 . S
C1331 C1315 1.349 . S
C1331 H1323 0.950 . S
C1331 C1329 1.327 . S
C1332 C1320 1.349 . S
C1332 H1326 0.950 . S
C1332 C1333 1.327 . S
C1333 H1327 0.950 . S
C1333 C1332 1.327 . S
C1333 C1337 1.429 . S
C1334 C1317 1.574 . S
C1334 H1328 0.949 . S
C1334 C1338 1.368 . S
C1335 C1316 1.429 . S
C1335 C1329 1.429 . S
C1335 C1336 1.523 . S
C1336 C1317 1.368 . S
C1336 C1330 1.368 . S
C1336 C1335 1.523 . S
C1337 C1321 1.429 . S
C1337 C1333 1.429 . S
C1337 C1338 1.523 . S
C1338 C1322 1.368 . S
C1338 C1334 1.368 . S
C1338 C1337 1.523 . S
H1339 C1314 0.950 . S
H1340 C1316 0.950 . S
H1341 C1317 0.949 . S
H1342 C1319 0.950 . S
H1343 C1321 0.950 . S
C1344 C1345 1.349 . S
C1344 C1346 1.327 . S
C1344 H1369 0.950 . S
C1345 C1344 1.349 . S
C1345 C1361 1.349 . S
C1346 C1344 1.327 . S
C1346 C1365 1.429 . S
C1346 H1370 0.950 . S
C1347 C1364 1.574 . S
C1347 C1366 1.368 . S
C1347 H1371 0.949 . S
H1348 C1352 0.949 . S
C1349 C1350 1.349 . S
C1349 C1351 1.327 . S
C1349 H1372 0.950 . S
C1350 C1349 1.349 . S
C1350 C1362 1.349 . S
C1351 C1349 1.327 . S
C1351 C1367 1.429 . S
C1351 H1373 0.950 . S
C1352 H1348 0.949 . S
C1352 C1360 1.574 . S
C1352 C1368 1.368 . S
H1353 C1361 0.950 . S
H1354 C1359 0.950 . S
H1355 C1360 0.949 . S
H1356 C1362 0.950 . S
H1357 C1363 0.950 . S
H1358 C1364 0.949 . S
C1359 H1354 0.950 . S
C1359 C1361 1.327 . S
C1359 C1365 1.429 . S
C1360 C1352 1.574 . S
C1360 H1355 0.949 . S
C1360 C1366 1.368 . S
C1361 C1345 1.349 . S
C1361 H1353 0.950 . S
C1361 C1359 1.327 . S
C1362 C1350 1.349 . S
C1362 H1356 0.950 . S
C1362 C1363 1.327 . S
C1363 H1357 0.950 . S
C1363 C1362 1.327 . S
C1363 C1367 1.429 . S
C1364 C1347 1.574 . S
C1364 H1358 0.949 . S
C1364 C1368 1.368 . S
C1365 C1346 1.429 . S
C1365 C1359 1.429 . S
C1365 C1366 1.523 . S
C1366 C1347 1.368 . S
C1366 C1360 1.368 . S
C1366 C1365 1.523 . S
C1367 C1351 1.429 . S
C1367 C1363 1.429 . S
C1367 C1368 1.523 . S
C1368 C1352 1.368 . S
C1368 C1364 1.368 . S
C1368 C1367 1.523 . S
H1369 C1344 0.950 . S
H1370 C1346 0.950 . S
H1371 C1347 0.949 . S
H1372 C1349 0.950 . S
H1373 C1351 0.950 . S
C1374 C1375 1.349 . S
C1374 C1376 1.327 . S
C1374 H1399 0.950 . S
C1375 C1374 1.349 . S
C1375 C1391 1.349 . S
C1376 C1374 1.327 . S
C1376 C1395 1.429 . S
C1376 H1400 0.950 . S
C1377 C1394 1.578 . S
C1377 C1396 1.329 1_565 S
C1377 H1401 0.982 . S
H1378 C1382 0.949 . S
C1379 C1380 1.349 1_565 S
C1379 C1381 1.327 . S
C1379 H1402 0.950 . S
C1380 C1379 1.349 1_545 S
C1380 C1392 1.349 . S
C1381 C1379 1.327 . S
C1381 C1397 1.429 1_565 S
C1381 H1403 0.950 . S
C1382 H1378 0.949 . S
C1382 C1390 1.574 . S
C1382 C1398 1.368 . S
H1383 C1391 0.950 1_565 S
H1384 C1389 0.950 1_565 S
H1385 C1390 0.949 . S
H1386 C1392 0.950 . S
H1387 C1393 0.950 . S
H1388 C1394 0.949 . S
C1389 H1384 0.950 1_545 S
C1389 C1391 1.327 . S
C1389 C1395 1.429 . S
C1390 C1382 1.574 . S
C1390 H1385 0.949 . S
C1390 C1396 1.368 . S
C1391 C1375 1.349 . S
C1391 H1383 0.950 1_545 S
C1391 C1389 1.327 . S
C1392 C1380 1.349 . S
C1392 H1386 0.950 . S
C1392 C1393 1.327 . S
C1393 H1387 0.950 . S
C1393 C1392 1.327 . S
C1393 C1397 1.429 . S
C1394 C1377 1.578 . S
C1394 H1388 0.949 . S
C1394 C1398 1.368 1_565 S
C1395 C1376 1.429 . S
C1395 C1389 1.429 . S
C1395 C1396 1.523 . S
C1396 C1377 1.329 1_545 S
C1396 C1390 1.368 . S
C1396 C1395 1.523 . S
C1397 C1381 1.429 1_545 S
C1397 C1393 1.429 . S
C1397 C1398 1.523 . S
C1398 C1382 1.368 . S
C1398 C1394 1.368 1_545 S
C1398 C1397 1.523 . S
H1399 C1374 0.950 . S
H1400 C1376 0.950 . S
H1401 C1377 0.982 . S
H1402 C1379 0.950 . S
H1403 C1381 0.950 . S
C1404 C1405 1.349 . S
C1404 C1406 1.327 . S
C1404 H1429 0.950 . S
C1405 C1404 1.349 . S
C1405 C1421 1.349 . S
C1406 C1404 1.327 . S
C1406 C1425 1.429 . S
C1406 H1430 0.950 . S
C1407 C1424 1.574 . S
C1407 C1426 1.368 . S
C1407 H1431 0.949 . S
H1408 C1412 0.949 . S
C1409 C1410 1.349 . S
C1409 C1411 1.327 . S
C1409 H1432 0.950 . S
C1410 C1409 1.349 . S
C1410 C1422 1.349 . S
C1411 C1409 1.327 . S
C1411 C1427 1.429 . S
C1411 H1433 0.950 . S
C1412 H1408 0.949 . S
C1412 C1420 1.574 . S
C1412 C1428 1.368 . S
H1413 C1421 0.950 . S
H1414 C1419 0.950 . S
H1415 C1420 0.949 . S
H1416 C1422 0.950 . S
H1417 C1423 0.950 . S
H1418 C1424 0.949 . S
C1419 H1414 0.950 . S
C1419 C1421 1.327 . S
C1419 C1425 1.429 . S
C1420 C1412 1.574 . S
C1420 H1415 0.949 . S
C1420 C1426 1.368 . S
C1421 C1405 1.349 . S
C1421 H1413 0.950 . S
C1421 C1419 1.327 . S
C1422 C1410 1.349 . S
C1422 H1416 0.950 . S
C1422 C1423 1.327 . S
C1423 H1417 0.950 . S
C1423 C1422 1.327 . S
C1423 C1427 1.429 . S
C1424 C1407 1.574 . S
C1424 H1418 0.949 . S
C1424 C1428 1.368 . S
C1425 C1406 1.429 . S
C1425 C1419 1.429 . S
C1425 C1426 1.523 . S
C1426 C1407 1.368 . S
C1426 C1420 1.368 . S
C1426 C1425 1.523 . S
C1427 C1411 1.429 . S
C1427 C1423 1.429 . S
C1427 C1428 1.523 . S
C1428 C1412 1.368 . S
C1428 C1424 1.368 . S
C1428 C1427 1.523 . S
H1429 C1404 0.950 . S
H1430 C1406 0.950 . S
H1431 C1407 0.949 . S
H1432 C1409 0.950 . S
H1433 C1411 0.950 . S
C1434 C1435 1.349 . S
C1434 C1436 1.327 . S
C1434 H1459 0.950 . S
C1435 C1434 1.349 . S
C1435 C1451 1.349 . S
C1436 C1434 1.327 . S
C1436 C1455 1.429 . S
C1436 H1460 0.950 . S
C1437 C1454 1.574 . S
C1437 C1456 1.368 . S
C1437 H1461 0.949 . S
H1438 C1442 0.949 . S
C1439 C1440 1.349 . S
C1439 C1441 1.327 . S
C1439 H1462 0.950 . S
C1440 C1439 1.349 . S
C1440 C1452 1.349 . S
C1441 C1439 1.327 . S
C1441 C1457 1.429 . S
C1441 H1463 0.950 . S
C1442 H1438 0.949 . S
C1442 C1450 1.574 . S
C1442 C1458 1.368 . S
H1443 C1451 0.950 . S
H1444 C1449 0.950 . S
H1445 C1450 0.949 . S
H1446 C1452 0.950 . S
H1447 C1453 0.950 . S
H1448 C1454 0.949 . S
C1449 H1444 0.950 . S
C1449 C1451 1.327 . S
C1449 C1455 1.429 . S
C1450 C1442 1.574 . S
C1450 H1445 0.949 . S
C1450 C1456 1.368 . S
C1451 C1435 1.349 . S
C1451 H1443 0.950 . S
C1451 C1449 1.327 . S
C1452 C1440 1.349 . S
C1452 H1446 0.950 . S
C1452 C1453 1.327 . S
C1453 H1447 0.950 . S
C1453 C1452 1.327 . S
C1453 C1457 1.429 . S
C1454 C1437 1.574 . S
C1454 H1448 0.949 . S
C1454 C1458 1.368 . S
C1455 C1436 1.429 . S
C1455 C1449 1.429 . S
C1455 C1456 1.523 . S
C1456 C1437 1.368 . S
C1456 C1450 1.368 . S
C1456 C1455 1.523 . S
C1457 C1441 1.429 . S
C1457 C1453 1.429 . S
C1457 C1458 1.523 . S
C1458 C1442 1.368 . S
C1458 C1454 1.368 . S
C1458 C1457 1.523 . S
H1459 C1434 0.950 . S
H1460 C1436 0.950 . S
H1461 C1437 0.949 . S
H1462 C1439 0.950 . S
H1463 C1441 0.950 . S
C1464 C1465 1.349 . S
C1464 C1466 1.327 . S
C1464 H1489 0.950 . S
C1465 C1464 1.349 . S
C1465 C1481 1.349 . S
C1466 C1464 1.327 . S
C1466 C1485 1.429 . S
C1466 H1490 0.950 . S
C1467 C1484 1.574 . S
C1467 C1486 1.368 . S
C1467 H1491 0.949 . S
H1468 C1472 0.949 . S
C1469 C1470 1.349 . S
C1469 C1471 1.327 . S
C1469 H1492 0.950 . S
C1470 C1469 1.349 . S
C1470 C1482 1.349 . S
C1471 C1469 1.327 . S
C1471 C1487 1.429 . S
C1471 H1493 0.950 . S
C1472 H1468 0.949 . S
C1472 C1480 1.574 . S
C1472 C1488 1.368 . S
H1473 C1481 0.950 . S
H1474 C1479 0.950 . S
H1475 C1480 0.949 . S
H1476 C1482 0.950 . S
H1477 C1483 0.950 . S
H1478 C1484 0.949 . S
C1479 H1474 0.950 . S
C1479 C1481 1.327 . S
C1479 C1485 1.429 . S
C1480 C1472 1.574 . S
C1480 H1475 0.949 . S
C1480 C1486 1.368 . S
C1481 C1465 1.349 . S
C1481 H1473 0.950 . S
C1481 C1479 1.327 . S
C1482 C1470 1.349 . S
C1482 H1476 0.950 . S
C1482 C1483 1.327 . S
C1483 H1477 0.950 . S
C1483 C1482 1.327 . S
C1483 C1487 1.429 . S
C1484 C1467 1.574 . S
C1484 H1478 0.949 . S
C1484 C1488 1.368 . S
C1485 C1466 1.429 . S
C1485 C1479 1.429 . S
C1485 C1486 1.523 . S
C1486 C1467 1.368 . S
C1486 C1480 1.368 . S
C1486 C1485 1.523 . S
C1487 C1471 1.429 . S
C1487 C1483 1.429 . S
C1487 C1488 1.523 . S
C1488 C1472 1.368 . S
C1488 C1484 1.368 . S
C1488 C1487 1.523 . S
H1489 C1464 0.950 . S
H1490 C1466 0.950 . S
H1491 C1467 0.949 . S
H1492 C1469 0.950 . S
H1493 C1471 0.950 . S
C1494 C1495 1.349 . S
C1494 C1496 1.327 . S
C1494 H1519 0.950 . S
C1495 C1494 1.349 . S
C1495 C1511 1.349 . S
C1496 C1494 1.327 . S
C1496 C1515 1.429 . S
C1496 H1520 0.959 . S
C1497 C1514 1.574 1_455 S
C1497 C1516 1.368 . S
C1497 H1521 0.949 . S
H1498 C1502 0.949 . S
C1499 C1500 1.349 . S
C1499 C1501 1.327 . S
C1499 H1522 0.950 . S
C1500 C1499 1.349 . S
C1500 C1512 1.349 . S
C1501 C1499 1.327 . S
C1501 C1517 1.429 . S
C1501 H1523 0.950 . S
C1502 H1498 0.949 . S
C1502 C1510 1.574 . S
C1502 C1518 1.368 . S
H1503 C1511 0.950 . S
H1504 C1509 0.950 . S
H1505 C1510 0.949 . S
H1506 C1512 0.950 . S
H1507 C1513 0.950 . S
H1508 C1514 0.953 . S
C1509 H1504 0.950 . S
C1509 C1511 1.327 . S
C1509 C1515 1.429 . S
C1510 C1502 1.574 . S
C1510 H1505 0.949 . S
C1510 C1516 1.368 1_655 S
C1511 C1495 1.349 . S
C1511 H1503 0.950 . S
C1511 C1509 1.327 . S
C1512 C1500 1.349 . S
C1512 H1506 0.950 . S
C1512 C1513 1.327 . S
C1513 H1507 0.950 . S
C1513 C1512 1.327 . S
C1513 C1517 1.429 . S
C1514 C1497 1.574 1_655 S
C1514 H1508 0.953 . S
C1514 C1518 1.368 . S
C1515 C1496 1.429 . S
C1515 C1509 1.429 . S
C1515 C1516 1.523 . S
C1516 C1497 1.368 . S
C1516 C1510 1.368 1_455 S
C1516 C1515 1.523 . S
C1517 C1501 1.429 . S
C1517 C1513 1.429 . S
C1517 C1518 1.523 . S
C1518 C1502 1.368 . S
C1518 C1514 1.368 . S
C1518 C1517 1.523 . S
H1519 C1494 0.950 . S
H1520 C1496 0.959 . S
H1521 C1497 0.949 . S
H1522 C1499 0.950 . S
H1523 C1501 0.950 . S
C1524 C1525 1.349 . S
C1524 C1526 1.327 . S
C1524 H1549 0.950 . S
C1525 C1524 1.349 . S
C1525 C1541 1.349 . S
C1526 C1524 1.327 . S
C1526 C1545 1.429 . S
C1526 H1550 0.950 . S
C1527 C1544 1.574 . S
C1527 C1546 1.368 . S
C1527 H1551 0.949 . S
H1528 C1532 0.949 . S
C1529 C1530 1.349 . S
C1529 C1531 1.327 . S
C1529 H1552 0.950 . S
C1530 C1529 1.349 . S
C1530 C1542 1.349 . S
C1531 C1529 1.327 . S
C1531 C1547 1.429 . S
C1531 H1553 0.950 . S
C1532 H1528 0.949 . S
C1532 C1540 1.574 . S
C1532 C1548 1.368 . S
H1533 C1541 0.950 . S
H1534 C1539 0.950 . S
H1535 C1540 0.949 . S
H1536 C1542 0.950 . S
H1537 C1543 0.950 . S
H1538 C1544 0.949 . S
C1539 H1534 0.950 . S
C1539 C1541 1.327 . S
C1539 C1545 1.429 . S
C1540 C1532 1.574 . S
C1540 H1535 0.949 . S
C1540 C1546 1.368 . S
C1541 C1525 1.349 . S
C1541 H1533 0.950 . S
C1541 C1539 1.327 . S
C1542 C1530 1.349 . S
C1542 H1536 0.950 . S
C1542 C1543 1.327 . S
C1543 H1537 0.950 . S
C1543 C1542 1.327 . S
C1543 C1547 1.429 . S
C1544 C1527 1.574 . S
C1544 H1538 0.949 . S
C1544 C1548 1.368 . S
C1545 C1526 1.429 . S
C1545 C1539 1.429 . S
C1545 C1546 1.523 . S
C1546 C1527 1.368 . S
C1546 C1540 1.368 . S
C1546 C1545 1.523 . S
C1547 C1531 1.429 . S
C1547 C1543 1.429 . S
C1547 C1548 1.523 . S
C1548 C1532 1.368 . S
C1548 C1544 1.368 . S
C1548 C1547 1.523 . S
H1549 C1524 0.950 . S
H1550 C1526 0.950 . S
H1551 C1527 0.949 . S
H1552 C1529 0.950 . S
H1553 C1531 0.950 . S
C1554 C1555 1.349 . S
C1554 C1556 1.327 . S
C1554 H1579 0.950 1_455 S
C1555 C1554 1.349 . S
C1555 C1571 1.349 . S
C1556 C1554 1.327 . S
C1556 C1575 1.429 . S
C1556 H1580 0.950 . S
C1557 C1574 1.574 . S
C1557 C1576 1.368 . S
C1557 H1581 0.949 . S
H1558 C1562 0.949 . S
C1559 C1560 1.349 . S
C1559 C1561 1.327 . S
C1559 H1582 0.950 . S
C1560 C1559 1.349 . S
C1560 C1572 1.349 . S
C1561 C1559 1.327 . S
C1561 C1577 1.429 . S
C1561 H1583 0.950 . S
C1562 H1558 0.949 . S
C1562 C1570 1.574 . S
C1562 C1578 1.368 . S
H1563 C1571 0.950 . S
H1564 C1569 0.950 . S
H1565 C1570 0.949 . S
H1566 C1572 0.950 . S
H1567 C1573 0.950 . S
H1568 C1574 0.949 . S
C1569 H1564 0.950 . S
C1569 C1571 1.327 . S
C1569 C1575 1.429 . S
C1570 C1562 1.574 . S
C1570 H1565 0.949 . S
C1570 C1576 1.368 . S
C1571 C1555 1.349 . S
C1571 H1563 0.950 . S
C1571 C1569 1.327 . S
C1572 C1560 1.349 . S
C1572 H1566 0.950 . S
C1572 C1573 1.327 . S
C1573 H1567 0.950 . S
C1573 C1572 1.327 . S
C1573 C1577 1.429 . S
C1574 C1557 1.574 . S
C1574 H1568 0.949 . S
C1574 C1578 1.368 . S
C1575 C1556 1.429 . S
C1575 C1569 1.429 . S
C1575 C1576 1.523 . S
C1576 C1557 1.368 . S
C1576 C1570 1.368 . S
C1576 C1575 1.523 . S
C1577 C1561 1.429 . S
C1577 C1573 1.429 . S
C1577 C1578 1.523 . S
C1578 C1562 1.368 . S
C1578 C1574 1.368 . S
C1578 C1577 1.523 . S
H1579 C1554 0.950 1_655 S
H1580 C1556 0.950 . S
H1581 C1557 0.949 . S
H1582 C1559 0.950 . S
H1583 C1561 0.950 . S
C1584 C1585 1.349 . S
C1584 C1586 1.327 . S
C1584 H1609 0.950 . S
C1585 C1584 1.349 . S
C1585 C1601 1.349 . S
C1586 C1584 1.327 . S
C1586 C1605 1.429 . S
C1586 H1610 0.950 . S
C1587 C1604 1.574 . S
C1587 C1606 1.368 . S
C1587 H1611 0.949 . S
H1588 C1592 0.949 . S
C1589 C1590 1.349 . S
C1589 C1591 1.327 . S
C1589 H1612 0.950 . S
C1590 C1589 1.349 . S
C1590 C1602 1.349 . S
C1591 C1589 1.327 . S
C1591 C1607 1.429 . S
C1591 H1613 0.950 . S
C1592 H1588 0.949 . S
C1592 C1600 1.574 . S
C1592 C1608 1.368 . S
H1593 C1601 0.950 . S
H1594 C1599 0.950 . S
H1595 C1600 0.949 . S
H1596 C1602 0.950 . S
H1597 C1603 0.950 . S
H1598 C1604 0.949 . S
C1599 H1594 0.950 . S
C1599 C1601 1.327 . S
C1599 C1605 1.429 . S
C1600 C1592 1.574 . S
C1600 H1595 0.949 . S
C1600 C1606 1.368 . S
C1601 C1585 1.349 . S
C1601 H1593 0.950 . S
C1601 C1599 1.327 . S
C1602 C1590 1.349 . S
C1602 H1596 0.950 . S
C1602 C1603 1.327 . S
C1603 H1597 0.950 . S
C1603 C1602 1.327 . S
C1603 C1607 1.429 . S
C1604 C1587 1.574 . S
C1604 H1598 0.949 . S
C1604 C1608 1.368 . S
C1605 C1586 1.429 . S
C1605 C1599 1.429 . S
C1605 C1606 1.523 . S
C1606 C1587 1.368 . S
C1606 C1600 1.368 . S
C1606 C1605 1.523 . S
C1607 C1591 1.429 . S
C1607 C1603 1.429 . S
C1607 C1608 1.523 . S
C1608 C1592 1.368 . S
C1608 C1604 1.368 . S
C1608 C1607 1.523 . S
H1609 C1584 0.950 . S
H1610 C1586 0.950 . S
H1611 C1587 0.949 . S
H1612 C1589 0.950 . S
H1613 C1591 0.950 . S
C1614 C1615 1.349 . S
C1614 C1616 1.327 . S
C1614 H1639 0.950 . S
C1615 C1614 1.349 . S
C1615 C1631 1.349 . S
C1616 C1614 1.327 . S
C1616 C1635 1.429 . S
C1616 H1640 0.950 . S
C1617 C1634 1.574 . S
C1617 C1636 1.368 . S
C1617 H1641 0.949 . S
H1618 C1622 0.949 . S
C1619 C1620 1.349 . S
C1619 C1621 1.327 . S
C1619 H1642 0.950 . S
C1620 C1619 1.349 . S
C1620 C1632 1.349 . S
C1621 C1619 1.327 . S
C1621 C1637 1.426 1_455 S
C1621 H1643 0.954 . S
C1622 H1618 0.949 . S
C1622 C1630 1.574 . S
C1622 C1638 1.368 . S
H1623 C1631 0.950 1_554 S
H1624 C1629 0.950 . S
H1625 C1630 0.949 . S
H1626 C1632 0.950 . S
H1627 C1633 0.945 1_655 S
H1628 C1634 0.949 . S
C1629 H1624 0.950 . S
C1629 C1631 1.327 . S
C1629 C1635 1.429 . S
C1630 C1622 1.574 . S
C1630 H1625 0.949 . S
C1630 C1636 1.368 . S
C1631 C1615 1.349 . S
C1631 H1623 0.950 1_556 S
C1631 C1629 1.327 . S
C1632 C1620 1.349 . S
C1632 H1626 0.950 . S
C1632 C1633 1.334 . S
C1633 H1627 0.945 1_455 S
C1633 C1632 1.334 . S
C1633 C1637 1.424 1_455 S
C1634 C1617 1.574 . S
C1634 H1628 0.949 . S
C1634 C1638 1.368 . S
C1635 C1616 1.429 . S
C1635 C1629 1.429 . S
C1635 C1636 1.523 . S
C1636 C1617 1.368 . S
C1636 C1630 1.368 . S
C1636 C1635 1.523 . S
C1637 C1621 1.426 1_655 S
C1637 C1633 1.424 1_655 S
C1637 C1638 1.528 . S
C1638 C1622 1.368 . S
C1638 C1634 1.368 . S
C1638 C1637 1.528 . S
H1639 C1614 0.950 . S
H1640 C1616 0.950 . S
H1641 C1617 0.949 . S
H1642 C1619 0.950 . S
H1643 C1621 0.954 . S
C1644 C1645 1.349 . S
C1644 C1646 1.327 . S
C1644 H1669 0.950 . S
C1645 C1644 1.349 . S
C1645 C1661 1.349 . S
C1646 C1644 1.327 . S
C1646 C1665 1.429 . S
C1646 H1670 0.950 . S
C1647 C1664 1.574 . S
C1647 C1666 1.368 . S
C1647 H1671 0.949 . S
H1648 C1652 0.949 . S
C1649 C1650 1.349 . S
C1649 C1651 1.327 . S
C1649 H1672 0.950 . S
C1650 C1649 1.349 . S
C1650 C1662 1.349 . S
C1651 C1649 1.327 . S
C1651 C1667 1.429 . S
C1651 H1673 0.950 . S
C1652 H1648 0.949 . S
C1652 C1660 1.574 . S
C1652 C1668 1.368 . S
H1653 C1661 0.950 . S
H1654 C1659 0.950 . S
H1655 C1660 0.949 . S
H1656 C1662 0.950 . S
H1657 C1663 0.950 . S
H1658 C1664 0.949 . S
C1659 H1654 0.950 . S
C1659 C1661 1.327 . S
C1659 C1665 1.429 . S
C1660 C1652 1.574 . S
C1660 H1655 0.949 . S
C1660 C1666 1.368 . S
C1661 C1645 1.349 . S
C1661 H1653 0.950 . S
C1661 C1659 1.327 . S
C1662 C1650 1.349 . S
C1662 H1656 0.950 . S
C1662 C1663 1.327 . S
C1663 H1657 0.950 . S
C1663 C1662 1.327 . S
C1663 C1667 1.429 . S
C1664 C1647 1.574 . S
C1664 H1658 0.949 . S
C1664 C1668 1.368 . S
C1665 C1646 1.429 . S
C1665 C1659 1.429 . S
C1665 C1666 1.523 . S
C1666 C1647 1.368 . S
C1666 C1660 1.368 . S
C1666 C1665 1.523 . S
C1667 C1651 1.429 . S
C1667 C1663 1.429 . S
C1667 C1668 1.523 . S
C1668 C1652 1.368 . S
C1668 C1664 1.368 . S
C1668 C1667 1.523 . S
H1669 C1644 0.950 . S
H1670 C1646 0.950 . S
H1671 C1647 0.949 . S
H1672 C1649 0.950 . S
H1673 C1651 0.950 . S
C1674 C1675 1.349 . S
C1674 C1676 1.327 . S
C1674 H1699 0.950 . S
C1675 C1674 1.349 . S
C1675 C1691 1.349 . S
C1676 C1674 1.327 . S
C1676 C1695 1.429 . S
C1676 H1700 0.950 . S
C1677 C1694 1.574 . S
C1677 C1696 1.368 . S
C1677 H1701 0.949 . S
H1678 C1682 0.949 1_655 S
C1679 C1680 1.349 . S
C1679 C1681 1.327 . S
C1679 H1702 0.950 . S
C1680 C1679 1.349 . S
C1680 C1692 1.349 1_455 S
C1681 C1679 1.327 . S
C1681 C1697 1.429 . S
C1681 H1703 0.950 . S
C1682 H1678 0.949 1_455 S
C1682 C1690 1.574 . S
C1682 C1698 1.368 . S
H1683 C1691 0.950 . S
H1684 C1689 0.950 . S
H1685 C1690 0.949 . S
H1686 C1692 0.950 . S
H1687 C1693 0.950 1_655 S
H1688 C1694 0.949 . S
C1689 H1684 0.950 . S
C1689 C1691 1.327 . S
C1689 C1695 1.429 . S
C1690 C1682 1.574 . S
C1690 H1685 0.949 . S
C1690 C1696 1.368 . S
C1691 C1675 1.349 . S
C1691 H1683 0.950 . S
C1691 C1689 1.327 . S
C1692 C1680 1.349 1_655 S
C1692 H1686 0.950 . S
C1692 C1693 1.327 1_655 S
C1693 H1687 0.950 1_455 S
C1693 C1692 1.327 1_455 S
C1693 C1697 1.429 . S
C1694 C1677 1.574 . S
C1694 H1688 0.949 . S
C1694 C1698 1.368 . S
C1695 C1676 1.429 . S
C1695 C1689 1.429 . S
C1695 C1696 1.523 . S
C1696 C1677 1.368 . S
C1696 C1690 1.368 . S
C1696 C1695 1.523 . S
C1697 C1681 1.429 . S
C1697 C1693 1.429 . S
C1697 C1698 1.523 . S
C1698 C1682 1.368 . S
C1698 C1694 1.368 . S
C1698 C1697 1.523 . S
H1699 C1674 0.950 . S
H1700 C1676 0.950 . S
H1701 C1677 0.949 . S
H1702 C1679 0.950 . S
H1703 C1681 0.950 . S
C1704 C1705 1.349 . S
C1704 C1706 1.327 . S
C1704 H1729 0.950 . S
C1705 C1704 1.349 . S
C1705 C1721 1.349 . S
C1706 C1704 1.327 . S
C1706 C1725 1.429 . S
C1706 H1730 0.950 . S
C1707 C1724 1.574 . S
C1707 C1726 1.368 . S
C1707 H1731 0.949 . S
H1708 C1712 0.949 . S
C1709 C1710 1.349 . S
C1709 C1711 1.327 . S
C1709 H1732 0.950 . S
C1710 C1709 1.349 . S
C1710 C1722 1.349 . S
C1711 C1709 1.327 . S
C1711 C1727 1.429 . S
C1711 H1733 0.950 . S
C1712 H1708 0.949 . S
C1712 C1720 1.574 . S
C1712 C1728 1.368 . S
H1713 C1721 0.950 . S
H1714 C1719 0.950 . S
H1715 C1720 0.949 . S
H1716 C1722 0.950 . S
H1717 C1723 0.950 . S
H1718 C1724 0.949 . S
C1719 H1714 0.950 . S
C1719 C1721 1.327 . S
C1719 C1725 1.429 . S
C1720 C1712 1.574 . S
C1720 H1715 0.949 . S
C1720 C1726 1.368 . S
C1721 C1705 1.349 . S
C1721 H1713 0.950 . S
C1721 C1719 1.327 . S
C1722 C1710 1.349 . S
C1722 H1716 0.950 . S
C1722 C1723 1.327 . S
C1723 H1717 0.950 . S
C1723 C1722 1.327 . S
C1723 C1727 1.429 . S
C1724 C1707 1.574 . S
C1724 H1718 0.949 . S
C1724 C1728 1.368 . S
C1725 C1706 1.429 . S
C1725 C1719 1.429 . S
C1725 C1726 1.523 . S
C1726 C1707 1.368 . S
C1726 C1720 1.368 . S
C1726 C1725 1.523 . S
C1727 C1711 1.429 . S
C1727 C1723 1.429 . S
C1727 C1728 1.523 . S
C1728 C1712 1.368 . S
C1728 C1724 1.368 . S
C1728 C1727 1.523 . S
H1729 C1704 0.950 . S
H1730 C1706 0.950 . S
H1731 C1707 0.949 . S
H1732 C1709 0.950 . S
H1733 C1711 0.950 . S
C1734 C1735 1.374 . S
C1734 C1736 1.368 . S
C1734 H1759 0.885 1_554 S
C1735 C1734 1.374 . S
C1735 C1751 1.349 . S
C1736 C1734 1.368 . S
C1736 C1755 1.429 . S
C1736 H1760 0.950 . S
C1737 C1754 1.574 . S
C1737 C1756 1.368 . S
C1737 H1761 0.949 . S
H1738 C1742 0.949 . S
C1739 C1740 1.349 . S
C1739 C1741 1.327 . S
C1739 H1762 0.950 . S
C1740 C1739 1.349 . S
C1740 C1752 1.349 . S
C1741 C1739 1.327 . S
C1741 C1757 1.429 . S
C1741 H1763 0.950 . S
C1742 H1738 0.949 . S
C1742 C1750 1.574 . S
C1742 C1758 1.368 . S
H1743 C1751 0.950 . S
H1744 C1749 0.950 . S
H1745 C1750 0.949 . S
H1746 C1752 0.950 . S
H1747 C1753 0.950 . S
H1748 C1754 0.949 . S
C1749 H1744 0.950 . S
C1749 C1751 1.327 . S
C1749 C1755 1.429 . S
C1750 C1742 1.574 . S
C1750 H1745 0.949 . S
C1750 C1756 1.368 . S
C1751 C1735 1.349 . S
C1751 H1743 0.950 . S
C1751 C1749 1.327 . S
C1752 C1740 1.349 . S
C1752 H1746 0.950 . S
C1752 C1753 1.327 . S
C1753 H1747 0.950 . S
C1753 C1752 1.327 . S
C1753 C1757 1.429 . S
C1754 C1737 1.574 . S
C1754 H1748 0.949 . S
C1754 C1758 1.368 . S
C1755 C1736 1.429 . S
C1755 C1749 1.429 . S
C1755 C1756 1.523 . S
C1756 C1737 1.368 . S
C1756 C1750 1.368 . S
C1756 C1755 1.523 . S
C1757 C1741 1.429 . S
C1757 C1753 1.429 . S
C1757 C1758 1.523 . S
C1758 C1742 1.368 . S
C1758 C1754 1.368 . S
C1758 C1757 1.523 . S
H1759 C1734 0.885 1_556 S
H1760 C1736 0.950 . S
H1761 C1737 0.949 . S
H1762 C1739 0.950 . S
H1763 C1741 0.950 . S
C1764 C1765 1.349 . S
C1764 C1766 1.327 . S
C1764 H1789 0.950 . S
C1765 C1764 1.349 . S
C1765 C1781 1.349 . S
C1766 C1764 1.327 . S
C1766 C1785 1.429 . S
C1766 H1790 0.950 . S
C1767 C1784 1.574 . S
C1767 C1786 1.368 . S
C1767 H1791 0.949 . S
H1768 C1772 0.949 . S
C1769 C1770 1.349 . S
C1769 C1771 1.327 . S
C1769 H1792 0.950 . S
C1770 C1769 1.349 . S
C1770 C1782 1.349 . S
C1771 C1769 1.327 . S
C1771 C1787 1.429 . S
C1771 H1793 0.950 . S
C1772 H1768 0.949 . S
C1772 C1780 1.574 . S
C1772 C1788 1.368 . S
H1773 C1781 0.950 . S
H1774 C1779 0.950 . S
H1775 C1780 0.949 . S
H1776 C1782 0.950 . S
H1777 C1783 0.950 . S
H1778 C1784 0.949 . S
C1779 H1774 0.950 . S
C1779 C1781 1.327 . S
C1779 C1785 1.429 . S
C1780 C1772 1.574 . S
C1780 H1775 0.949 . S
C1780 C1786 1.368 . S
C1781 C1765 1.349 . S
C1781 H1773 0.950 . S
C1781 C1779 1.327 . S
C1782 C1770 1.349 . S
C1782 H1776 0.950 . S
C1782 C1783 1.327 . S
C1783 H1777 0.950 . S
C1783 C1782 1.327 . S
C1783 C1787 1.429 . S
C1784 C1767 1.574 . S
C1784 H1778 0.949 . S
C1784 C1788 1.368 . S
C1785 C1766 1.429 . S
C1785 C1779 1.429 . S
C1785 C1786 1.523 . S
C1786 C1767 1.368 . S
C1786 C1780 1.368 . S
C1786 C1785 1.523 . S
C1787 C1771 1.429 . S
C1787 C1783 1.429 . S
C1787 C1788 1.523 . S
C1788 C1772 1.368 . S
C1788 C1784 1.368 . S
C1788 C1787 1.523 . S
H1789 C1764 0.950 . S
H1790 C1766 0.950 . S
H1791 C1767 0.949 . S
H1792 C1769 0.950 . S
H1793 C1771 0.950 . S
C1794 C1795 1.349 . S
C1794 C1796 1.327 1_556 S
C1794 H1819 0.950 . S
C1795 C1794 1.349 . S
C1795 C1811 1.349 1_556 S
C1796 C1794 1.327 1_554 S
C1796 C1815 1.429 . S
C1796 H1820 0.950 . S
C1797 C1814 1.574 . S
C1797 C1816 1.368 . S
C1797 H1821 0.949 . S
H1798 C1802 0.949 . S
C1799 C1800 1.349 . S
C1799 C1801 1.327 . S
C1799 H1822 0.950 . S
C1800 C1799 1.349 . S
C1800 C1812 1.349 . S
C1801 C1799 1.327 . S
C1801 C1817 1.429 . S
C1801 H1823 0.950 . S
C1802 H1798 0.949 . S
C1802 C1810 1.574 . S
C1802 C1818 1.368 . S
H1803 C1811 0.950 . S
H1804 C1809 0.950 . S
H1805 C1810 0.949 . S
H1806 C1812 0.950 . S
H1807 C1813 0.950 . S
H1808 C1814 0.949 . S
C1809 H1804 0.950 . S
C1809 C1811 1.327 . S
C1809 C1815 1.429 . S
C1810 C1802 1.574 . S
C1810 H1805 0.949 . S
C1810 C1816 1.368 . S
C1811 C1795 1.349 1_554 S
C1811 H1803 0.950 . S
C1811 C1809 1.327 . S
C1812 C1800 1.349 . S
C1812 H1806 0.950 . S
C1812 C1813 1.327 . S
C1813 H1807 0.950 . S
C1813 C1812 1.327 . S
C1813 C1817 1.429 . S
C1814 C1797 1.574 . S
C1814 H1808 0.949 . S
C1814 C1818 1.368 . S
C1815 C1796 1.429 . S
C1815 C1809 1.429 . S
C1815 C1816 1.523 . S
C1816 C1797 1.368 . S
C1816 C1810 1.368 . S
C1816 C1815 1.523 . S
C1817 C1801 1.429 . S
C1817 C1813 1.429 . S
C1817 C1818 1.523 . S
C1818 C1802 1.368 . S
C1818 C1814 1.368 . S
C1818 C1817 1.523 . S
H1819 C1794 0.950 . S
H1820 C1796 0.950 . S
H1821 C1797 0.949 . S
H1822 C1799 0.950 . S
H1823 C1801 0.950 . S
C1824 C1825 1.349 . S
C1824 C1826 1.327 . S
C1824 H1849 0.950 . S
C1825 C1824 1.349 . S
C1825 C1841 1.349 . S
C1826 C1824 1.327 . S
C1826 C1845 1.429 . S
C1826 H1850 0.950 . S
C1827 C1844 1.574 . S
C1827 C1846 1.368 . S
C1827 H1851 0.949 . S
H1828 C1832 0.949 . S
C1829 C1830 1.349 . S
C1829 C1831 1.327 . S
C1829 H1852 0.950 . S
C1830 C1829 1.349 . S
C1830 C1842 1.349 . S
C1831 C1829 1.327 . S
C1831 C1847 1.429 . S
C1831 H1853 0.950 . S
C1832 H1828 0.949 . S
C1832 C1840 1.574 . S
C1832 C1848 1.368 . S
H1833 C1841 0.950 . S
H1834 C1839 0.950 . S
H1835 C1840 0.949 . S
H1836 C1842 0.950 . S
H1837 C1843 0.950 . S
H1838 C1844 0.949 . S
C1839 H1834 0.950 . S
C1839 C1841 1.327 . S
C1839 C1845 1.429 . S
C1840 C1832 1.574 . S
C1840 H1835 0.949 . S
C1840 C1846 1.368 . S
C1841 C1825 1.349 . S
C1841 H1833 0.950 . S
C1841 C1839 1.327 . S
C1842 C1830 1.349 . S
C1842 H1836 0.950 . S
C1842 C1843 1.327 . S
C1843 H1837 0.950 . S
C1843 C1842 1.327 . S
C1843 C1847 1.429 . S
C1844 C1827 1.574 . S
C1844 H1838 0.949 . S
C1844 C1848 1.368 . S
C1845 C1826 1.429 . S
C1845 C1839 1.429 . S
C1845 C1846 1.523 . S
C1846 C1827 1.368 . S
C1846 C1840 1.368 . S
C1846 C1845 1.523 . S
C1847 C1831 1.429 . S
C1847 C1843 1.429 . S
C1847 C1848 1.523 . S
C1848 C1832 1.368 . S
C1848 C1844 1.368 . S
C1848 C1847 1.523 . S
H1849 C1824 0.950 . S
H1850 C1826 0.950 . S
H1851 C1827 0.949 . S
H1852 C1829 0.950 . S
H1853 C1831 0.950 . S
C1854 C1855 1.349 . S
C1854 C1856 1.327 . S
C1854 H1879 0.950 . S
C1855 C1854 1.349 . S
C1855 C1871 1.349 . S
C1856 C1854 1.327 . S
C1856 C1875 1.429 . S
C1856 H1880 0.950 . S
C1857 C1874 1.574 . S
C1857 C1876 1.368 . S
C1857 H1881 0.949 . S
H1858 C1862 0.949 . S
C1859 C1860 1.349 . S
C1859 C1861 1.327 . S
C1859 H1882 0.950 . S
C1860 C1859 1.349 . S
C1860 C1872 1.349 . S
C1861 C1859 1.327 . S
C1861 C1877 1.429 . S
C1861 H1883 0.950 . S
C1862 H1858 0.949 . S
C1862 C1870 1.574 . S
C1862 C1878 1.368 . S
H1863 C1871 0.950 . S
H1864 C1869 0.950 . S
H1865 C1870 0.949 . S
H1866 C1872 0.950 . S
H1867 C1873 0.950 . S
H1868 C1874 0.949 . S
C1869 H1864 0.950 . S
C1869 C1871 1.327 . S
C1869 C1875 1.429 . S
C1870 C1862 1.574 . S
C1870 H1865 0.949 . S
C1870 C1876 1.368 . S
C1871 C1855 1.349 . S
C1871 H1863 0.950 . S
C1871 C1869 1.327 . S
C1872 C1860 1.349 . S
C1872 H1866 0.950 . S
C1872 C1873 1.327 . S
C1873 H1867 0.950 . S
C1873 C1872 1.327 . S
C1873 C1877 1.429 . S
C1874 C1857 1.574 . S
C1874 H1868 0.949 . S
C1874 C1878 1.368 . S
C1875 C1856 1.429 . S
C1875 C1869 1.429 . S
C1875 C1876 1.523 . S
C1876 C1857 1.368 . S
C1876 C1870 1.368 . S
C1876 C1875 1.523 . S
C1877 C1861 1.429 . S
C1877 C1873 1.429 . S
C1877 C1878 1.523 . S
C1878 C1862 1.368 . S
C1878 C1874 1.368 . S
C1878 C1877 1.523 . S
H1879 C1854 0.950 . S
H1880 C1856 0.950 . S
H1881 C1857 0.949 . S
H1882 C1859 0.950 . S
H1883 C1861 0.950 . S
C1884 C1885 1.349 . S
C1884 C1886 1.327 . S
C1884 H1909 0.950 . S
C1885 C1884 1.349 . S
C1885 C1901 1.349 . S
C1886 C1884 1.327 . S
C1886 C1905 1.429 . S
C1886 H1910 0.950 . S
C1887 C1904 1.574 . S
C1887 C1906 1.368 . S
C1887 H1911 0.949 . S
H1888 C1892 0.949 . S
C1889 C1890 1.349 . S
C1889 C1891 1.327 . S
C1889 H1912 0.950 . S
C1890 C1889 1.349 . S
C1890 C1902 1.349 . S
C1891 C1889 1.327 . S
C1891 C1907 1.429 . S
C1891 H1913 0.950 . S
C1892 H1888 0.949 . S
C1892 C1900 1.574 . S
C1892 C1908 1.368 . S
H1893 C1901 0.950 . S
H1894 C1899 0.950 . S
H1895 C1900 0.949 . S
H1896 C1902 0.950 . S
H1897 C1903 0.950 . S
H1898 C1904 0.949 . S
C1899 H1894 0.950 . S
C1899 C1901 1.327 . S
C1899 C1905 1.429 . S
C1900 C1892 1.574 . S
C1900 H1895 0.949 . S
C1900 C1906 1.368 . S
C1901 C1885 1.349 . S
C1901 H1893 0.950 . S
C1901 C1899 1.327 . S
C1902 C1890 1.349 . S
C1902 H1896 0.950 . S
C1902 C1903 1.327 . S
C1903 H1897 0.950 . S
C1903 C1902 1.327 . S
C1903 C1907 1.429 . S
C1904 C1887 1.574 . S
C1904 H1898 0.949 . S
C1904 C1908 1.368 . S
C1905 C1886 1.429 . S
C1905 C1899 1.429 . S
C1905 C1906 1.523 . S
C1906 C1887 1.368 . S
C1906 C1900 1.368 . S
C1906 C1905 1.523 . S
C1907 C1891 1.429 . S
C1907 C1903 1.429 . S
C1907 C1908 1.523 . S
C1908 C1892 1.368 . S
C1908 C1904 1.368 . S
C1908 C1907 1.523 . S
H1909 C1884 0.950 . S
H1910 C1886 0.950 . S
H1911 C1887 0.949 . S
H1912 C1889 0.950 . S
H1913 C1891 0.950 . S
C1914 C1915 1.349 . S
C1914 C1916 1.327 . S
C1914 H1939 0.950 . S
C1915 C1914 1.349 . S
C1915 C1931 1.349 . S
C1916 C1914 1.327 . S
C1916 C1935 1.429 . S
C1916 H1940 0.950 . S
C1917 C1934 1.574 . S
C1917 C1936 1.368 . S
C1917 H1941 0.949 . S
H1918 C1922 0.949 . S
C1919 C1920 1.349 . S
C1919 C1921 1.327 . S
C1919 H1942 0.950 . S
C1920 C1919 1.349 . S
C1920 C1932 1.349 . S
C1921 C1919 1.327 . S
C1921 C1937 1.429 . S
C1921 H1943 0.950 . S
C1922 H1918 0.949 . S
C1922 C1930 1.574 . S
C1922 C1938 1.368 . S
H1923 C1931 0.950 . S
H1924 C1929 0.950 . S
H1925 C1930 0.949 . S
H1926 C1932 0.950 . S
H1927 C1933 0.950 . S
H1928 C1934 0.949 . S
C1929 H1924 0.950 . S
C1929 C1931 1.327 . S
C1929 C1935 1.429 . S
C1930 C1922 1.574 . S
C1930 H1925 0.949 . S
C1930 C1936 1.368 . S
C1931 C1915 1.349 . S
C1931 H1923 0.950 . S
C1931 C1929 1.327 . S
C1932 C1920 1.349 . S
C1932 H1926 0.950 . S
C1932 C1933 1.327 . S
C1933 H1927 0.950 . S
C1933 C1932 1.327 . S
C1933 C1937 1.429 . S
C1934 C1917 1.574 . S
C1934 H1928 0.949 . S
C1934 C1938 1.368 . S
C1935 C1916 1.429 . S
C1935 C1929 1.429 . S
C1935 C1936 1.523 . S
C1936 C1917 1.368 . S
C1936 C1930 1.368 . S
C1936 C1935 1.523 . S
C1937 C1921 1.429 . S
C1937 C1933 1.429 . S
C1937 C1938 1.523 . S
C1938 C1922 1.368 . S
C1938 C1934 1.368 . S
C1938 C1937 1.523 . S
H1939 C1914 0.950 . S
H1940 C1916 0.950 . S
H1941 C1917 0.949 . S
H1942 C1919 0.950 . S
H1943 C1921 0.950 . S
C1944 C1945 1.349 . S
C1944 C1946 1.327 . S
C1944 H1969 0.950 . S
C1945 C1944 1.349 . S
C1945 C1961 1.349 . S
C1946 C1944 1.327 . S
C1946 C1965 1.429 . S
C1946 H1970 0.950 . S
C1947 C1964 1.574 1_556 S
C1947 C1966 1.368 . S
C1947 H1971 0.949 1_556 S
H1948 C1952 0.949 . S
C1949 C1950 1.349 1_554 S
C1949 C1951 1.327 . S
C1949 H1972 0.950 . S
C1950 C1949 1.349 1_556 S
C1950 C1962 1.349 . S
C1951 C1949 1.327 . S
C1951 C1967 1.429 1_554 S
C1951 H1973 0.950 . S
C1952 H1948 0.949 . S
C1952 C1960 1.574 . S
C1952 C1968 1.368 . S
H1953 C1961 0.950 . S
H1954 C1959 0.950 1_554 S
H1955 C1960 0.949 . S
H1956 C1962 0.950 . S
H1957 C1963 0.950 . S
H1958 C1964 0.949 . S
C1959 H1954 0.950 1_556 S
C1959 C1961 1.327 . S
C1959 C1965 1.429 . S
C1960 C1952 1.574 . S
C1960 H1955 0.949 . S
C1960 C1966 1.368 . S
C1961 C1945 1.349 . S
C1961 H1953 0.950 . S
C1961 C1959 1.327 . S
C1962 C1950 1.349 . S
C1962 H1956 0.950 . S
C1962 C1963 1.327 . S
C1963 H1957 0.950 . S
C1963 C1962 1.327 . S
C1963 C1967 1.429 . S
C1964 C1947 1.574 1_554 S
C1964 H1958 0.949 . S
C1964 C1968 1.368 1_554 S
C1965 C1946 1.429 . S
C1965 C1959 1.429 . S
C1965 C1966 1.523 . S
C1966 C1947 1.368 . S
C1966 C1960 1.368 . S
C1966 C1965 1.523 . S
C1967 C1951 1.429 1_556 S
C1967 C1963 1.429 . S
C1967 C1968 1.523 . S
C1968 C1952 1.368 . S
C1968 C1964 1.368 1_556 S
C1968 C1967 1.523 . S
H1969 C1944 0.950 . S
H1970 C1946 0.950 . S
H1971 C1947 0.949 1_554 S
H1972 C1949 0.950 . S
H1973 C1951 0.950 . S
C1974 C1975 1.349 . S
C1974 C1976 1.327 . S
C1974 H1999 0.950 . S
C1975 C1974 1.349 . S
C1975 C1991 1.349 . S
C1976 C1974 1.327 . S
C1976 C1995 1.429 . S
C1976 H2000 0.950 . S
C1977 C1994 1.574 . S
C1977 C1996 1.368 . S
C1977 H2001 0.949 . S
H1978 C1982 0.949 . S
C1979 C1980 1.349 . S
C1979 C1981 1.327 . S
C1979 H2002 0.950 . S
C1980 C1979 1.349 . S
C1980 C1992 1.349 . S
C1981 C1979 1.327 . S
C1981 C1997 1.429 . S
C1981 H2003 0.950 . S
C1982 H1978 0.949 . S
C1982 C1990 1.574 . S
C1982 C1998 1.368 . S
H1983 C1991 0.950 . S
H1984 C1989 0.950 . S
H1985 C1990 0.949 . S
H1986 C1992 0.950 . S
H1987 C1993 0.950 . S
H1988 C1994 0.949 . S
C1989 H1984 0.950 . S
C1989 C1991 1.327 . S
C1989 C1995 1.429 . S
C1990 C1982 1.574 . S
C1990 H1985 0.949 . S
C1990 C1996 1.368 . S
C1991 C1975 1.349 . S
C1991 H1983 0.950 . S
C1991 C1989 1.327 . S
C1992 C1980 1.349 . S
C1992 H1986 0.950 . S
C1992 C1993 1.327 . S
C1993 H1987 0.950 . S
C1993 C1992 1.327 . S
C1993 C1997 1.429 . S
C1994 C1977 1.574 . S
C1994 H1988 0.949 . S
C1994 C1998 1.368 . S
C1995 C1976 1.429 . S
C1995 C1989 1.429 . S
C1995 C1996 1.523 . S
C1996 C1977 1.368 . S
C1996 C1990 1.368 . S
C1996 C1995 1.523 . S
C1997 C1981 1.429 . S
C1997 C1993 1.429 . S
C1997 C1998 1.523 . S
C1998 C1982 1.368 . S
C1998 C1994 1.368 . S
C1998 C1997 1.523 . S
H1999 C1974 0.950 . S
H2000 C1976 0.950 . S
H2001 C1977 0.949 . S
H2002 C1979 0.950 . S
H2003 C1981 0.950 . S
C2004 C2005 1.349 . S
C2004 C2006 1.327 . S
C2004 H2029 0.950 . S
C2005 C2004 1.349 . S
C2005 C2021 1.349 . S
C2006 C2004 1.327 . S
C2006 C2025 1.429 . S
C2006 H2030 0.950 . S
C2007 C2024 1.574 . S
C2007 C2026 1.368 . S
C2007 H2031 0.949 . S
H2008 C2012 0.949 . S
C2009 C2010 1.359 . S
C2009 C2011 1.331 . S
C2009 H2032 0.936 1_554 S
C2010 C2009 1.359 . S
C2010 C2022 1.349 . S
C2011 C2009 1.331 . S
C2011 C2027 1.429 . S
C2011 H2033 0.950 1_554 S
C2012 H2008 0.949 . S
C2012 C2020 1.574 . S
C2012 C2028 1.368 . S
H2013 C2021 0.950 . S
H2014 C2019 0.950 . S
H2015 C2020 0.949 . S
H2016 C2022 0.950 . S
H2017 C2023 0.950 . S
H2018 C2024 0.969 . S
C2019 H2014 0.950 . S
C2019 C2021 1.327 . S
C2019 C2025 1.429 . S
C2020 C2012 1.574 . S
C2020 H2015 0.949 . S
C2020 C2026 1.368 . S
C2021 C2005 1.349 . S
C2021 H2013 0.950 . S
C2021 C2019 1.327 . S
C2022 C2010 1.349 . S
C2022 H2016 0.950 . S
C2022 C2023 1.327 . S
C2023 H2017 0.950 . S
C2023 C2022 1.327 . S
C2023 C2027 1.429 . S
C2024 C2007 1.574 . S
C2024 H2018 0.969 . S
C2024 C2028 1.368 . S
C2025 C2006 1.429 . S
C2025 C2019 1.429 . S
C2025 C2026 1.523 . S
C2026 C2007 1.368 . S
C2026 C2020 1.368 . S
C2026 C2025 1.523 . S
C2027 C2011 1.429 . S
C2027 C2023 1.429 . S
C2027 C2028 1.523 . S
C2028 C2012 1.368 . S
C2028 C2024 1.368 . S
C2028 C2027 1.523 . S
H2029 C2004 0.950 . S
H2030 C2006 0.950 . S
H2031 C2007 0.949 . S
H2032 C2009 0.936 1_556 S
H2033 C2011 0.950 1_556 S
C2034 C2035 1.349 1_565 S
C2034 C2036 1.327 . S
C2034 H2059 0.950 . S
C2035 C2034 1.349 1_545 S
C2035 C2051 1.349 . S
C2036 C2034 1.327 . S
C2036 C2055 1.429 . S
C2036 H2060 0.950 . S
C2037 C2054 1.574 . S
C2037 C2056 1.368 . S
C2037 H2061 0.949 . S
H2038 C2042 0.949 . S
C2039 C2040 1.349 . S
C2039 C2041 1.327 . S
C2039 H2062 0.950 1_554 S
C2040 C2039 1.349 . S
C2040 C2052 1.349 . S
C2041 C2039 1.327 . S
C2041 C2057 1.429 . S
C2041 H2063 0.913 1_554 S
C2042 H2038 0.949 . S
C2042 C2050 1.574 . S
C2042 C2058 1.368 . S
H2043 C2051 0.950 . S
H2044 C2049 0.945 1_545 S
H2045 C2050 0.949 . S
H2046 C2052 0.950 . S
H2047 C2053 0.950 . S
H2048 C2054 0.994 . S
C2049 H2044 0.945 1_565 S
C2049 C2051 1.308 1_565 S
C2049 C2055 1.453 . S
C2050 C2042 1.574 . S
C2050 H2045 0.949 . S
C2050 C2056 1.368 . S
C2051 C2035 1.349 . S
C2051 H2043 0.950 . S
C2051 C2049 1.308 1_545 S
C2052 C2040 1.349 . S
C2052 H2046 0.950 . S
C2052 C2053 1.327 . S
C2053 H2047 0.950 . S
C2053 C2052 1.327 . S
C2053 C2057 1.429 . S
C2054 C2037 1.574 . S
C2054 H2048 0.994 . S
C2054 C2058 1.368 . S
C2055 C2036 1.429 . S
C2055 C2049 1.453 . S
C2055 C2056 1.523 . S
C2056 C2037 1.368 . S
C2056 C2050 1.368 . S
C2056 C2055 1.523 . S
C2057 C2041 1.429 . S
C2057 C2053 1.429 . S
C2057 C2058 1.523 . S
C2058 C2042 1.368 . S
C2058 C2054 1.368 . S
C2058 C2057 1.523 . S
H2059 C2034 0.950 . S
H2060 C2036 0.950 . S
H2061 C2037 0.949 . S
H2062 C2039 0.950 1_556 S
H2063 C2041 0.913 1_556 S
C630 C194 1.691 . S
C625 C66 1.690 . S
C660 C242 1.199 . S
C655 C76 1.224 . S
C685 C93 1.762 . S
C690 C278 1.698 . S
C720 C314 1.563 . S
C715 C54 1.615 . S
C750 C340 1.417 . S
C745 C126 1.423 . S
C780 C376 1.942 . S
C775 C150 1.960 . S
C805 C136 1.100 . S
C810 C411 1.115 . S
C840 C448 1.874 . S
C835 C117 1.887 . S
C865 C141 1.160 . S
C870 C482 1.158 . S
C900 C530 1.340 . S
C895 C112 1.375 . S
C925 C124 1.482 . S
C930 C483 1.499 . S
C960 C520 1.398 . S
C955 C148 1.393 . S
C985 C88 1.184 . S
C990 C566 1.134 . S
C1015 C52 1.734 . S
C1020 C555 1.733 . S
C1045 C64 1.190 . S
C1050 C556 1.198 . S
C1075 C78 1.288 . S
C1080 C554 1.281 . S
C1105 C45 1.631 . S
C1110 C302 1.626 1_565 S
C1135 C177 1.831 . S
C1140 C303 1.834 . S
C1170 C206 1.513 . S
C1165 C189 1.582 . S
C1200 C231 1.550 . S
C1195 C102 1.543 . S
C1225 C57 1.875 1_545 S
C1230 C338 1.873 . S
C1260 C446 1.380 . S
C1255 C138 1.399 . S
C1290 C339 1.849 . S
C1285 C114 1.850 1_545 S
C1320 C412 1.869 . S
C1315 C153 1.873 . S
C1350 C410 1.691 . S
C1345 C174 1.690 . S
C1375 C184 1.224 . S
C1380 C458 1.199 . S
C1405 C105 1.762 . S
C1410 C350 1.698 . S
C1440 C386 1.563 . S
C1435 C162 1.615 . S
C1465 C42 1.423 . S
C1470 C268 1.417 . S
C1500 C304 1.942 . S
C1495 C6 1.960 . S
C1530 C195 1.115 . S
C1525 C16 1.100 . S
C1560 C232 1.875 . S
C1555 C33 1.887 1_455 S
C1585 C21 1.159 . S
C1590 C518 1.158 . S
C1615 C28 1.375 1_556 S
C1620 C494 1.340 . S
C1645 C40 1.482 . S
C1650 C519 1.498 . S
C1675 C4 1.393 1_556 S
C1680 C484 1.398 . S
C1710 C602 1.134 . S
C1705 C100 1.184 . S
C1740 C591 1.733 . S
C1735 C160 1.734 1_554 S
C1770 C592 1.198 . S
C1765 C172 1.190 . S
C1795 C186 1.288 . S
C1800 C590 1.281 . S
C1825 C129 1.631 . S
C1830 C374 1.626 . S
C1860 C375 1.834 . S
C1855 C69 1.831 . S
C1890 C422 1.513 . S
C1885 C81 1.582 . S
C1920 C447 1.550 . S
C1915 C90 1.543 . S
C1945 C165 1.875 . S
C1950 C266 1.873 1_556 S
C1980 C230 1.379 . S
C1975 C18 1.399 . S
C2005 C30 1.850 . S
C2010 C267 1.849 . S
C2040 C196 1.869 . S
C2035 C9 1.873 . S
