# Generated by pormake.
# Topology tsx, (6,3)-cn, num edge types: 1
# Building blocks:
#     Node 0, Type 0, BuildingBlock: JUFBIX_clean_sbu_0, # of connection points: 6
#     Node 1, Type 0, BuildingBlock: JUFBIX_clean_sbu_0, # of connection points: 6
#     Node 2, Type 1, BuildingBlock: INOVEN_clean_linker_0, # of connection points: 3
#     Node 3, Type 1, BuildingBlock: INOVEN_clean_linker_0, # of connection points: 3
#     Node 4, Type 1, BuildingBlock: INOVEN_clean_linker_0, # of connection points: 3
#     Node 5, Type 1, BuildingBlock: INOVEN_clean_linker_0, # of connection points: 3
#     Edge 6, Type (0, 1), BuildingBlock: XIVTED_clean_linker_0, # of connection points: 2
#     Edge 7, Type (0, 1), BuildingBlock: XIVTED_clean_linker_0, # of connection points: 2
#     Edge 8, Type (0, 1), BuildingBlock: XIVTED_clean_linker_0, # of connection points: 2
#     Edge 9, Type (0, 1), BuildingBlock: XIVTED_clean_linker_0, # of connection points: 2
#     Edge 10, Type (0, 1), BuildingBlock: XIVTED_clean_linker_0, # of connection points: 2
#     Edge 11, Type (0, 1), BuildingBlock: XIVTED_clean_linker_0, # of connection points: 2
#     Edge 12, Type (0, 1), BuildingBlock: XIVTED_clean_linker_0, # of connection points: 2
#     Edge 13, Type (0, 1), BuildingBlock: XIVTED_clean_linker_0, # of connection points: 2
#     Edge 14, Type (0, 1), BuildingBlock: XIVTED_clean_linker_0, # of connection points: 2
#     Edge 15, Type (0, 1), BuildingBlock: XIVTED_clean_linker_0, # of connection points: 2
#     Edge 16, Type (0, 1), BuildingBlock: XIVTED_clean_linker_0, # of connection points: 2
#     Edge 17, Type (0, 1), BuildingBlock: XIVTED_clean_linker_0, # of connection points: 2
# Relax obj value: 0.097
# Max RMSD: 0.121
# Mean RMSD: 0.110
data_MOF--net-tsx--node1-JUFBIX_clean_sbu_0--node2-INOVEN_clean_linker_0--edge1-XIVTED_clean_linker_0
_symmetry_space_group_name_H-M    P1
_symmetry_Int_Tables_number       1
_symmetry_cell_setting            triclinic
loop_
_symmetry_equiv_pos_as_xyz
'x, y, z'
_cell_length_a     20.1301
_cell_length_b     24.060384
_cell_length_c     32.806371
_cell_angle_alpha  92.692134
_cell_angle_beta   98.067896
_cell_angle_gamma 99.264653
loop_
_atom_site_label
_atom_site_type_symbol
_atom_site_fract_x
_atom_site_fract_y
_atom_site_fract_z
_atom_type_partial_charge
Co0 Co 0.07575 0.97411 -0.00242 0.0
C1 C 0.98858 0.99105 0.92625 0.0
Co2 Co 0.99934 0.02835 0.00681 0.0
C3 C 0.16251 0.88661 0.00119 0.0
C4 C 0.18507 0.94831 0.95789 0.0
N5 N 0.14251 0.93328 0.98535 0.0
N6 N 0.21663 0.87316 0.98512 0.0
C7 C 0.23086 0.91184 0.95796 0.0
H8 H 0.13894 0.86373 0.02453 0.0
H9 H 0.18327 0.9839 0.93906 0.0
C10 C 0.08739 0.01245 0.07796 0.0
N11 N 0.9345 0.07 0.01993 0.0
C12 C 0.91245 0.11393 0.00136 0.0
C13 C 0.90312 0.06491 0.05367 0.0
N14 N 0.86925 0.13673 0.02252 0.0
C15 C 0.86323 0.10599 0.05542 0.0
C16 C 0.95738 0.91246 0.01428 0.0
O17 O 0.11208 0.9802 0.05454 0.0
O18 O 0.03921 0.03691 0.06286 0.0
O19 O 0.94226 0.96165 0.01656 0.0
O20 O 0.01536 0.90625 0.00517 0.0
O21 O 0.96081 0.02006 0.95026 0.0
H22 H 0.90993 0.03395 0.07607 0.0
H23 H 0.92942 0.12996 0.97361 0.0
O24 O 0.03871 0.96824 0.9409 0.0
O25 O 0.13508 0.04333 0.99031 0.0
O26 O 0.05609 0.09447 -0.00293 0.0
C27 C 0.11594 0.09122 0.99049 0.0
H28 H 0.27111 0.91309 0.93915 0.0
H29 H 0.83203 0.11262 0.07894 0.0
Co30 Co 0.55998 0.47811 0.49176 0.0
C31 C 0.47001 0.50085 0.42267 0.0
Co32 Co 0.48693 0.5344 0.50369 0.0
C33 C 0.6424 0.38759 0.48958 0.0
C34 C 0.65424 0.44588 0.44262 0.0
N35 N 0.62204 0.43514 0.47555 0.0
N36 N 0.68538 0.36851 0.46621 0.0
C37 C 0.69268 0.40493 0.43669 0.0
H38 H 0.62413 0.36629 0.51521 0.0
H39 H 0.64859 0.48057 0.42334 0.0
C40 C 0.57729 0.51245 0.57263 0.0
N41 N 0.42602 0.57773 0.52034 0.0
C42 C 0.40304 0.62232 0.5033 0.0
C43 C 0.39828 0.57235 0.55542 0.0
N44 N 0.36285 0.64521 0.52672 0.0
C45 C 0.35978 0.61392 0.55952 0.0
C46 C 0.44076 0.41887 0.50915 0.0
O47 O 0.60004 0.48061 0.54788 0.0
O48 O 0.52987 0.53866 0.55903 0.0
O49 O 0.42758 0.4686 0.51259 0.0
O50 O 0.49782 0.41155 0.49922 0.0
O51 O 0.4452 0.53047 0.44785 0.0
H52 H 0.40632 0.54058 0.577 0.0
H53 H 0.41687 0.63852 0.47486 0.0
O54 O 0.51879 0.47573 0.43591 0.0
O55 O 0.62146 0.54596 0.48458 0.0
O56 O 0.54603 0.59952 0.49474 0.0
C57 C 0.60469 0.59472 0.48661 0.0
H58 H 0.7227 0.40135 0.41206 0.0
H59 H 0.33117 0.62034 0.58443 0.0
H60 H 0.08721 0.9951 0.49342 0.0
H61 H 0.19353 0.95673 0.39393 0.0
H62 H 0.06098 0.07991 0.38099 0.0
N63 N 0.02196 0.07161 0.45548 0.0
N64 N 0.97611 0.08682 0.43103 0.0
C65 C 0.10029 0.00324 0.46314 0.0
C66 C 0.14269 0.97078 0.4458 0.0
C67 C 0.07062 0.04293 0.43981 0.0
C68 C 0.08566 0.05088 0.39956 0.0
C69 C 0.12965 0.01974 0.38254 0.0
C70 C 0.15937 0.98114 0.40653 0.0
H71 H 0.97308 0.98768 0.50585 0.0
H72 H 0.87085 0.91701 0.60268 0.0
H73 H 0.02191 0.06681 0.62947 0.0
N74 N 0.053 0.07351 0.55237 0.0
N75 N 0.0786 0.11747 0.57441 0.0
C76 C 0.9654 0.9893 0.53783 0.0
C77 C 0.91771 0.9478 0.55121 0.0
C78 C 1.00288 0.03282 0.56583 0.0
C79 C 0.99185 0.03436 0.60734 0.0
C80 C 0.94478 0.99247 0.62096 0.0
C81 C 0.90755 0.9496 0.59256 0.0
H82 H 0.60228 0.4891 -0.00687 0.0
H83 H 0.68281 0.44711 0.88332 0.0
H84 H 0.55217 0.57189 0.88221 0.0
N85 N 0.53404 0.56733 0.96094 0.0
N86 N 0.47712 0.57424 0.94339 0.0
C87 C 0.60772 0.49563 0.96126 0.0
C88 C 0.64405 0.46161 0.93996 0.0
C89 C 0.57433 0.53538 0.94032 0.0
C90 C 0.57934 0.54217 0.89844 0.0
C91 C 0.61832 0.51031 0.87752 0.0
C92 C 0.65163 0.4713 0.89895 0.0
H93 H 0.48608 0.48325 0.00734 0.0
H94 H 0.36305 0.42432 0.09838 0.0
H95 H 0.52412 0.56645 0.1297 0.0
N96 N 0.56452 0.56923 0.05468 0.0
N97 N 0.59137 0.61244 0.07726 0.0
C98 C 0.47358 0.48743 0.0382 0.0
C99 C 0.41991 0.44961 0.04961 0.0
C100 C 0.51048 0.53075 0.06663 0.0
C101 C 0.49418 0.53469 0.10701 0.0
C102 C 0.44178 0.49591 0.11892 0.0
C103 C 0.40402 0.45433 0.08967 0.0
H104 H 0.25396 0.10473 0.98949 0.0
H105 H 0.29011 0.43937 0.01093 0.0
H106 H 0.08539 0.19629 0.97916 0.0
H107 H 0.46124 0.35172 0.02784 0.0
H108 H 0.21656 0.35104 0.9828 0.0
H109 H 0.33195 0.19405 0.98889 0.0
C110 C 0.23328 0.14347 0.98656 0.0
C111 C 0.16322 0.14322 0.98518 0.0
C112 C 0.27046 0.35113 -0.00831 0.0
C113 C 0.25192 0.24529 0.98433 0.0
C114 C 0.31238 0.40165 0.00731 0.0
C115 C 0.38141 0.40237 0.02144 0.0
C116 C 0.29766 0.30085 -0.00885 0.0
C117 C 0.40812 0.35255 0.01688 0.0
C118 C 0.27779 0.19441 0.98618 0.0
C119 C 0.13914 0.19456 0.98104 0.0
N120 N 0.36589 0.30338 0.0028 0.0
N121 N 0.18343 0.24348 0.9812 0.0
H122 H 0.35151 0.87943 0.00634 0.0
H123 H 0.34388 0.56845 0.9236 0.0
H124 H 0.16305 0.76211 0.98025 0.0
H125 H 0.51995 0.66189 0.00174 0.0
H126 H 0.27554 0.63723 0.94517 0.0
H127 H 0.41445 0.80022 0.00692 0.0
C128 C 0.3236 0.83667 0.00164 0.0
C129 C 0.25234 0.82689 -0.00668 0.0
C130 C 0.32877 0.6421 0.95831 0.0
C131 C 0.32348 0.73633 -0.00736 0.0
C132 C 0.36757 0.603 0.94596 0.0
C133 C 0.43707 0.60958 0.96102 0.0
C134 C 0.36042 0.68908 0.98505 0.0
C135 C 0.46621 0.65513 0.98969 0.0
C136 C 0.35933 0.79155 0.00196 0.0
C137 C 0.21805 0.771 0.98709 0.0
N138 N 0.42793 0.6938 0.00022 0.0
N139 N 0.254 0.72771 0.98602 0.0
H140 H 0.94771 0.79846 -0.00749 0.0
H141 H 0.63642 0.71199 0.11641 0.0
H142 H 0.85232 0.91721 0.05678 0.0
H143 H 0.6704 0.60296 0.01629 0.0
H144 H 0.72919 0.78348 0.10164 0.0
H145 H 0.85896 0.72153 0.00705 0.0
C146 C 0.9085 0.80827 0.00979 0.0
C147 C 0.90724 0.86429 0.02334 0.0
C148 C 0.71644 0.74402 0.08274 0.0
C149 C 0.80683 0.77719 0.04023 0.0
C150 C 0.66372 0.70342 0.09125 0.0
C151 C 0.64564 0.65231 0.06737 0.0
C152 C 0.75217 0.73315 0.05023 0.0
C153 C 0.68249 0.64238 0.03513 0.0
C154 C 0.85785 0.76456 0.01784 0.0
C155 C 0.85519 0.87479 0.04546 0.0
N156 N 0.7344 0.6826 0.0275 0.0
N157 N 0.80749 0.83177 0.05331 0.0
H158 H 0.82296 0.16462 0.94632 0.0
H159 H 0.71925 0.45515 0.01651 0.0
H160 H 0.84041 0.21636 0.07552 0.0
H161 H 0.62674 0.35573 0.904 0.0
H162 H 0.7734 0.3746 0.03945 0.0
H163 H 0.76371 0.24349 0.92934 0.0
C164 C 0.81462 0.19289 0.97105 0.0
C165 C 0.83623 0.184 0.01229 0.0
C166 C 0.74073 0.37062 0.00992 0.0
C167 C 0.76854 0.27416 -0.0067 0.0
C168 C 0.70972 0.41629 -0.00303 0.0
C169 C 0.66983 0.41241 0.95795 0.0
C170 C 0.73186 0.32147 0.98338 0.0
C171 C 0.65873 0.36108 0.93382 0.0
C172 C 0.78036 0.23755 0.96145 0.0
C173 C 0.82371 0.22158 0.04333 0.0
N174 N 0.69028 0.31804 0.94664 0.0
N175 N 0.79093 0.26539 0.03322 0.0
H176 H 0.74236 0.60499 0.48555 0.0
H177 H 0.79053 0.94082 0.5092 0.0
H178 H 0.57808 0.70119 0.47672 0.0
H179 H 0.95542 0.8473 0.53306 0.0
H180 H 0.71521 0.85382 0.4796 0.0
H181 H 0.82332 0.69302 0.48668 0.0
C182 C 0.72325 0.64449 0.48326 0.0
C183 C 0.65356 0.64593 0.48186 0.0
C184 C 0.76823 0.85238 0.49037 0.0
C185 C 0.74559 0.74648 0.48301 0.0
C186 C 0.81116 0.90207 0.50684 0.0
C187 C 0.8788 0.90069 0.52322 0.0
C188 C 0.7931 0.80099 0.49111 0.0
C189 C 0.90339 0.84965 0.52034 0.0
C190 C 0.76944 0.69469 0.48391 0.0
C191 C 0.63151 0.6982 0.4786 0.0
N192 N 0.86021 0.80146 0.50518 0.0
N193 N 0.6774 0.74637 0.47972 0.0
H194 H 0.6631 0.28466 0.40707 0.0
H195 H 0.97731 0.14435 0.50559 0.0
H196 H 0.77253 0.33759 0.52846 0.0
H197 H 0.86462 0.10112 0.38368 0.0
H198 H 0.89506 0.20565 0.52002 0.0
H199 H 0.72617 0.20647 0.40359 0.0
C200 C 0.69975 0.27879 0.43334 0.0
C201 C 0.71282 0.31708 0.46806 0.0
C202 C 0.8878 0.18205 0.49036 0.0
C203 C 0.7873 0.22895 0.46409 0.0
C204 C 0.93451 0.14696 0.48223 0.0
C205 C 0.92707 0.11779 0.4433 0.0
C206 C 0.83381 0.18761 0.45933 0.0
C207 C 0.87162 0.12309 0.41394 0.0
C208 C 0.73613 0.23447 0.43137 0.0
C209 C 0.76098 0.30836 0.50134 0.0
N210 N 0.82738 0.15742 0.42241 0.0
N211 N 0.79744 0.26556 0.49834 0.0
H212 H 0.43144 0.30476 0.48863 0.0
H213 H 0.1168 0.2201 0.60993 0.0
H214 H 0.33319 0.42486 0.54941 0.0
H215 H 0.1592 0.10762 0.51461 0.0
H216 H 0.20731 0.29278 0.59388 0.0
H217 H 0.34241 0.22831 0.50317 0.0
C218 C 0.39144 0.31499 0.50506 0.0
C219 C 0.38961 0.37122 0.51774 0.0
C220 C 0.19672 0.25235 0.57621 0.0
C221 C 0.28876 0.28462 0.5346 0.0
C222 C 0.14524 0.21112 0.58542 0.0
C223 C 0.13024 0.15866 0.56322 0.0
C224 C 0.23435 0.24066 0.54483 0.0
C225 C 0.16865 0.14814 0.53194 0.0
C226 C 0.34064 0.27152 0.51314 0.0
C227 C 0.33657 0.38224 0.53883 0.0
N228 N 0.21939 0.18891 0.52371 0.0
N229 N 0.28865 0.33942 0.54671 0.0
H230 H 0.34249 0.72556 0.58213 0.0
H231 H 0.11058 0.86392 0.41242 0.0
H232 H 0.3057 0.67218 0.45251 0.0
H233 H 0.22095 0.96325 0.52089 0.0
H234 H 0.16087 0.78287 0.4351 0.0
H235 H 0.28102 0.80455 0.56712 0.0
C236 C 0.32126 0.73049 0.55057 0.0
C237 C 0.32905 0.69256 0.5184 0.0
C238 C 0.17371 0.82217 0.4542 0.0
C239 C 0.25833 0.78151 0.50132 0.0
C240 C 0.14474 0.86821 0.44147 0.0
C241 C 0.16258 0.92027 0.46464 0.0
C242 C 0.22072 0.82797 0.49054 0.0
C243 C 0.20632 0.92369 0.50222 0.0
C244 C 0.28656 0.77547 0.54209 0.0
C245 C 0.3013 0.70083 0.47804 0.0
N246 N 0.23467 0.87804 0.51396 0.0
N247 N 0.26672 0.74418 0.47068 0.0
H248 H 0.07585 0.09995 0.13044 0.0
H249 H 0.13849 0.93255 0.32774 0.0
H250 H 0.15193 0.9423 0.1271 0.0
H251 H 0.13976 0.11255 0.33606 0.0
H252 H 0.14563 0.93586 0.25467 0.0
H253 H 0.10086 0.10662 0.20563 0.0
C254 C 0.09859 0.06703 0.1456 0.0
C255 C 0.11119 0.02014 0.12267 0.0
C256 C 0.1454 0.97479 0.27257 0.0
C257 C 0.13907 0.02722 0.2086 0.0
C258 C 0.14169 0.97312 0.31453 0.0
C259 C 0.13873 0.0225 0.33843 0.0
C260 C 0.14463 0.02592 0.25393 0.0
C261 C 0.14086 0.07329 0.31886 0.0
C262 C 0.11308 0.07101 0.18848 0.0
C263 C 0.14127 0.97901 0.14372 0.0
N264 N 0.14289 0.07358 0.27762 0.0
N265 N 0.15316 0.98301 0.18567 0.0
H266 H 1.00234 0.90707 0.87154 0.0
H267 H 0.93362 0.07991 0.67512 0.0
H268 H 0.92657 0.06452 0.87891 0.0
H269 H 0.94185 0.90168 0.66769 0.0
H270 H 0.93136 0.07675 0.7496 0.0
H271 H 0.97997 0.90488 0.79647 0.0
C272 C 0.98024 0.9409 0.85725 0.0
C273 C 0.96655 0.98618 0.88132 0.0
C274 C 0.93275 0.03826 0.7315 0.0
C275 C 0.94191 0.98451 0.79541 0.0
C276 C 0.93451 0.04012 0.68915 0.0
C277 C 0.93816 0.99102 0.66532 0.0
C278 C 0.93577 0.98713 0.75008 0.0
C279 C 0.93854 0.94043 0.68485 0.0
C280 C 0.96736 0.93961 0.8144 0.0
C281 C 0.93766 0.0288 0.86133 0.0
N282 N 0.93811 0.93993 0.72614 0.0
N283 N 0.92722 0.02742 0.81938 0.0
H284 H 0.63632 0.43663 0.6191 0.0
H285 H 0.62685 0.60556 0.8338 0.0
H286 H 0.5712 0.59859 0.62768 0.0
H287 H 0.61688 0.42486 0.81905 0.0
H288 H 0.63059 0.61033 0.75968 0.0
H289 H 0.65736 0.43949 0.69477 0.0
C290 C 0.62778 0.4732 0.63691 0.0
C291 C 0.60127 0.51709 0.61732 0.0
C292 C 0.62818 0.56979 0.77294 0.0
C293 C 0.62482 0.5206 0.70326 0.0
C294 C 0.62549 0.56697 0.81511 0.0
C295 C 0.62169 0.51479 0.83282 0.0
C296 C 0.62752 0.52017 0.74844 0.0
C297 C 0.62115 0.46623 0.80708 0.0
C298 C 0.63927 0.47466 0.67996 0.0
C299 C 0.59083 0.56352 0.64171 0.0
N300 N 0.62403 0.47012 0.76626 0.0
N301 N 0.60224 0.56393 0.68346 0.0
H302 H 0.41741 0.58036 0.37662 0.0
H303 H 0.42185 0.40441 0.16434 0.0
H304 H 0.47128 0.41428 0.3672 0.0
H305 H 0.43691 0.5857 0.17313 0.0
H306 H 0.41177 0.40341 0.23738 0.0
H307 H 0.39698 0.57849 0.30073 0.0
C308 C 0.42347 0.54312 0.35857 0.0
C309 C 0.44647 0.49755 0.37796 0.0
C310 C 0.41667 0.44341 0.2233 0.0
C311 C 0.42335 0.49513 0.29196 0.0
C312 C 0.42196 0.444 0.1815 0.0
C313 C 0.43045 0.49528 0.16262 0.0
C314 C 0.41993 0.49443 0.24661 0.0
C315 C 0.43131 0.54534 0.18666 0.0
C316 C 0.41236 0.54226 0.31544 0.0
C317 C 0.45416 0.45048 0.35337 0.0
N318 N 0.42646 0.54374 0.22757 0.0
N319 N 0.44285 0.45058 0.31168 0.0
loop_
_geom_bond_atom_site_label_1
_geom_bond_atom_site_label_2
_geom_bond_distance
_geom_bond_site_symmetry_2
_ccdc_geom_bond_type
Co0 N5 2.057 . S
Co0 O17 2.021 . S
Co0 O20 2.062 1_455 S
Co0 O24 2.117 1_554 S
Co0 O25 2.020 1_565 S
C1 O21 1.259 1_455 S
C1 O24 1.258 1_545 S
Co2 N11 2.057 . S
Co2 O18 2.117 . S
Co2 O19 2.020 1_545 S
Co2 O21 2.021 1_554 S
Co2 O26 2.062 1_655 S
C3 N5 1.316 . S
C3 N6 1.347 . S
C3 H8 0.931 . S
C4 N5 1.375 1_556 S
C4 C7 1.350 . S
C4 H9 0.930 . S
N5 Co0 2.057 . S
N5 C3 1.316 . S
N5 C4 1.375 1_554 S
N6 C3 1.347 . S
N6 C7 1.373 1_554 S
C7 C4 1.350 . S
C7 N6 1.373 1_556 S
C7 H28 0.931 . S
H8 C3 0.931 . S
H9 C4 0.930 . S
C10 O17 1.259 1_545 S
C10 O18 1.258 1_455 S
N11 Co2 2.057 . S
N11 C12 1.316 1_554 S
N11 C13 1.375 . S
C12 N11 1.316 1_556 S
C12 N14 1.347 1_556 S
C12 H23 0.931 . S
C13 N11 1.375 . S
C13 C15 1.350 . S
C13 H22 0.930 . S
N14 C12 1.347 1_554 S
N14 C15 1.373 . S
C15 C13 1.350 . S
C15 N14 1.373 . S
C15 H29 0.931 . S
C16 O19 1.256 . S
C16 O20 1.255 . S
O17 Co0 2.021 . S
O17 C10 1.259 1_565 S
O18 Co2 2.117 . S
O18 C10 1.258 1_655 S
O19 Co2 2.020 1_565 S
O19 C16 1.256 . S
O20 Co0 2.062 1_655 S
O20 C16 1.255 . S
O21 C1 1.259 1_655 S
O21 Co2 2.021 1_556 S
H22 C13 0.930 . S
H23 C12 0.931 . S
O24 Co0 2.117 1_556 S
O24 C1 1.258 1_565 S
O25 Co0 2.020 1_545 S
O25 C27 1.256 . S
O26 Co2 2.062 1_455 S
O26 C27 1.255 . S
C27 O25 1.256 . S
C27 O26 1.255 . S
H28 C7 0.931 . S
H29 C15 0.931 . S
Co30 N35 2.057 . S
Co30 O47 2.021 . S
Co30 O50 2.062 . S
Co30 O54 2.117 . S
Co30 O55 2.020 . S
C31 O51 1.259 . S
C31 O54 1.258 . S
Co32 N41 2.057 . S
Co32 O48 2.117 . S
Co32 O49 2.020 . S
Co32 O51 2.021 . S
Co32 O56 2.062 . S
C33 N35 1.316 . S
C33 N36 1.347 . S
C33 H38 0.931 . S
C34 N35 1.375 . S
C34 C37 1.350 . S
C34 H39 0.930 . S
N35 Co30 2.057 . S
N35 C33 1.316 . S
N35 C34 1.375 . S
N36 C33 1.347 . S
N36 C37 1.373 . S
C37 C34 1.350 . S
C37 N36 1.373 . S
C37 H58 0.931 . S
H38 C33 0.931 . S
H39 C34 0.930 . S
C40 O47 1.259 . S
C40 O48 1.258 . S
N41 Co32 2.057 . S
N41 C42 1.316 . S
N41 C43 1.375 . S
C42 N41 1.316 . S
C42 N44 1.347 . S
C42 H53 0.931 . S
C43 N41 1.375 . S
C43 C45 1.350 . S
C43 H52 0.930 . S
N44 C42 1.347 . S
N44 C45 1.373 . S
C45 C43 1.350 . S
C45 N44 1.373 . S
C45 H59 0.931 . S
C46 O49 1.256 . S
C46 O50 1.255 . S
O47 Co30 2.021 . S
O47 C40 1.259 . S
O48 Co32 2.117 . S
O48 C40 1.258 . S
O49 Co32 2.020 . S
O49 C46 1.256 . S
O50 Co30 2.062 . S
O50 C46 1.255 . S
O51 C31 1.259 . S
O51 Co32 2.021 . S
H52 C43 0.930 . S
H53 C42 0.931 . S
O54 Co30 2.117 . S
O54 C31 1.258 . S
O55 Co30 2.020 . S
O55 C57 1.256 . S
O56 Co32 2.062 . S
O56 C57 1.255 . S
C57 O55 1.256 . S
C57 O56 1.255 . S
H58 C37 0.931 . S
H59 C45 0.931 . S
H60 C65 0.929 . S
H61 C70 0.931 . S
H62 C68 0.930 1_655 S
N63 N64 1.234 . S
N63 C67 1.453 1_655 S
N64 N63 1.234 . S
C65 H60 0.929 . S
C65 C66 1.373 . S
C65 C67 1.368 1_565 S
C66 C65 1.373 . S
C66 C70 1.397 . S
C67 N63 1.453 1_455 S
C67 C65 1.368 1_545 S
C67 C68 1.373 . S
C68 H62 0.930 1_455 S
C68 C67 1.373 . S
C68 C69 1.371 1_545 S
C69 C68 1.371 1_565 S
C69 C70 1.383 . S
C70 H61 0.931 . S
C70 C66 1.397 . S
C70 C69 1.383 . S
H71 C76 0.929 . S
H72 C81 0.931 . S
H73 C79 0.930 . S
N74 N75 1.234 . S
N74 C78 1.453 . S
N75 N74 1.234 . S
C76 H71 0.929 . S
C76 C77 1.373 . S
C76 C78 1.368 1_665 S
C77 C76 1.373 . S
C77 C81 1.397 . S
C78 N74 1.453 . S
C78 C76 1.368 1_445 S
C78 C79 1.373 . S
C79 H73 0.930 . S
C79 C78 1.373 . S
C79 C80 1.377 1_455 S
C80 C79 1.377 1_655 S
C80 C81 1.376 1_545 S
C81 H72 0.931 . S
C81 C77 1.397 . S
C81 C80 1.376 1_565 S
H82 C87 0.929 1_554 S
H83 C92 0.931 . S
H84 C90 0.930 . S
N85 N86 1.234 . S
N85 C89 1.453 . S
N86 N85 1.234 . S
C87 H82 0.929 1_556 S
C87 C88 1.373 . S
C87 C89 1.368 . S
C88 C87 1.373 . S
C88 C92 1.397 . S
C89 N85 1.453 . S
C89 C87 1.368 . S
C89 C90 1.373 . S
C90 H84 0.930 . S
C90 C89 1.373 . S
C90 C91 1.371 . S
C91 C90 1.371 . S
C91 C92 1.383 . S
C92 H83 0.931 . S
C92 C88 1.397 . S
C92 C91 1.383 . S
H93 C98 0.929 . S
H94 C103 0.931 . S
H95 C101 0.930 . S
N96 N97 1.234 . S
N96 C100 1.453 . S
N97 N96 1.234 . S
C98 H93 0.929 . S
C98 C99 1.373 . S
C98 C100 1.368 . S
C99 C98 1.373 . S
C99 C103 1.397 . S
C100 N96 1.453 . S
C100 C98 1.368 . S
C100 C101 1.373 . S
C101 H95 0.930 . S
C101 C100 1.373 . S
C101 C102 1.371 . S
C102 C101 1.371 . S
C102 C103 1.383 . S
C103 H94 0.931 . S
C103 C99 1.397 . S
C103 C102 1.383 . S
H104 C110 0.930 . S
H105 C114 0.930 1_556 S
H106 C119 0.929 . S
H107 C117 0.929 . S
H108 C112 0.929 1_556 S
H109 C118 0.929 . S
C110 H104 0.930 . S
C110 C111 1.367 . S
C110 C118 1.378 . S
C111 C110 1.367 . S
C111 C119 1.433 1_554 S
C112 H108 0.929 1_554 S
C112 C114 1.378 . S
C112 C116 1.350 . S
C113 C116 1.463 . S
C113 C118 1.350 . S
C113 N121 1.427 1_554 S
C114 H105 0.930 1_554 S
C114 C112 1.378 . S
C114 C115 1.367 . S
C115 C114 1.367 . S
C115 C117 1.433 . S
C116 C112 1.350 . S
C116 C113 1.463 . S
C116 N120 1.427 . S
C117 H107 0.929 . S
C117 C115 1.433 . S
C117 N120 1.384 . S
C118 H109 0.929 . S
C118 C110 1.378 . S
C118 C113 1.350 . S
C119 H106 0.929 . S
C119 C111 1.433 1_556 S
C119 N121 1.384 . S
N120 C116 1.427 . S
N120 C117 1.384 . S
N121 C113 1.427 1_556 S
N121 C119 1.384 . S
H122 C128 0.930 . S
H123 C132 0.930 . S
H124 C137 0.929 . S
H125 C135 0.929 . S
H126 C130 0.929 . S
H127 C136 0.929 . S
C128 H122 0.930 . S
C128 C129 1.367 . S
C128 C136 1.378 . S
C129 C128 1.367 . S
C129 C137 1.433 1_554 S
C130 H126 0.929 . S
C130 C132 1.378 . S
C130 C134 1.350 1_556 S
C131 C134 1.463 . S
C131 C136 1.350 . S
C131 N139 1.427 1_554 S
C132 H123 0.930 . S
C132 C130 1.378 . S
C132 C133 1.367 . S
C133 C132 1.367 . S
C133 C135 1.433 1_556 S
C134 C130 1.350 1_554 S
C134 C131 1.463 . S
C134 N138 1.427 . S
C135 H125 0.929 . S
C135 C133 1.433 1_554 S
C135 N138 1.384 . S
C136 H127 0.929 . S
C136 C128 1.378 . S
C136 C131 1.350 . S
C137 H124 0.929 . S
C137 C129 1.433 1_556 S
C137 N139 1.384 . S
N138 C134 1.427 . S
N138 C135 1.384 . S
N139 C131 1.427 1_556 S
N139 C137 1.384 . S
H140 C146 0.930 . S
H141 C150 0.930 . S
H142 C155 0.929 . S
H143 C153 0.929 . S
H144 C148 0.929 . S
H145 C154 0.929 . S
C146 H140 0.930 . S
C146 C147 1.367 1_556 S
C146 C154 1.378 . S
C147 C146 1.367 1_554 S
C147 C155 1.433 . S
C148 H144 0.929 . S
C148 C150 1.378 . S
C148 C152 1.350 . S
C149 C152 1.463 . S
C149 C154 1.350 1_554 S
C149 N157 1.427 . S
C150 H141 0.930 . S
C150 C148 1.378 . S
C150 C151 1.367 . S
C151 C150 1.367 . S
C151 C153 1.433 1_554 S
C152 C148 1.350 . S
C152 C149 1.463 . S
C152 N156 1.427 1_554 S
C153 H143 0.929 . S
C153 C151 1.433 1_556 S
C153 N156 1.384 . S
C154 H145 0.929 . S
C154 C146 1.378 . S
C154 C149 1.350 1_556 S
C155 H142 0.929 . S
C155 C147 1.433 . S
C155 N157 1.384 . S
N156 C152 1.427 1_556 S
N156 C153 1.384 . S
N157 C149 1.427 . S
N157 C155 1.384 . S
H158 C164 0.930 . S
H159 C168 0.930 . S
H160 C173 0.929 . S
H161 C171 0.929 . S
H162 C166 0.929 . S
H163 C172 0.929 . S
C164 H158 0.930 . S
C164 C165 1.367 . S
C164 C172 1.378 . S
C165 C164 1.367 . S
C165 C173 1.433 1_556 S
C166 H162 0.929 . S
C166 C168 1.378 . S
C166 C170 1.350 1_554 S
C167 C170 1.463 . S
C167 C172 1.350 . S
C167 N175 1.427 1_556 S
C168 H159 0.930 . S
C168 C166 1.378 . S
C168 C169 1.367 1_554 S
C169 C168 1.367 1_556 S
C169 C171 1.433 . S
C170 C166 1.350 1_556 S
C170 C167 1.463 . S
C170 N174 1.427 . S
C171 H161 0.929 . S
C171 C169 1.433 . S
C171 N174 1.384 . S
C172 H163 0.929 . S
C172 C164 1.378 . S
C172 C167 1.350 . S
C173 H160 0.929 . S
C173 C165 1.433 1_554 S
C173 N175 1.384 . S
N174 C170 1.427 . S
N174 C171 1.384 . S
N175 C167 1.427 1_554 S
N175 C173 1.384 . S
H176 C182 0.930 . S
H177 C186 0.930 . S
H178 C191 0.929 . S
H179 C189 0.929 . S
H180 C184 0.929 . S
H181 C190 0.929 . S
C182 H176 0.930 . S
C182 C183 1.367 . S
C182 C190 1.378 . S
C183 C182 1.367 . S
C183 C191 1.433 . S
C184 H180 0.929 . S
C184 C186 1.378 . S
C184 C188 1.350 . S
C185 C188 1.463 . S
C185 C190 1.350 . S
C185 N193 1.427 . S
C186 H177 0.930 . S
C186 C184 1.378 . S
C186 C187 1.367 . S
C187 C186 1.367 . S
C187 C189 1.433 . S
C188 C184 1.350 . S
C188 C185 1.463 . S
C188 N192 1.427 . S
C189 H179 0.929 . S
C189 C187 1.433 . S
C189 N192 1.384 . S
C190 H181 0.929 . S
C190 C182 1.378 . S
C190 C185 1.350 . S
C191 H178 0.929 . S
C191 C183 1.433 . S
C191 N193 1.384 . S
N192 C188 1.427 . S
N192 C189 1.384 . S
N193 C185 1.427 . S
N193 C191 1.384 . S
H194 C200 0.930 . S
H195 C204 0.930 . S
H196 C209 0.929 . S
H197 C207 0.929 . S
H198 C202 0.929 . S
H199 C208 0.929 . S
C200 H194 0.930 . S
C200 C201 1.367 . S
C200 C208 1.378 . S
C201 C200 1.367 . S
C201 C209 1.433 . S
C202 H198 0.929 . S
C202 C204 1.378 . S
C202 C206 1.350 . S
C203 C206 1.463 . S
C203 C208 1.350 . S
C203 N211 1.427 . S
C204 H195 0.930 . S
C204 C202 1.378 . S
C204 C205 1.367 . S
C205 C204 1.367 . S
C205 C207 1.433 . S
C206 C202 1.350 . S
C206 C203 1.463 . S
C206 N210 1.427 . S
C207 H197 0.929 . S
C207 C205 1.433 . S
C207 N210 1.384 . S
C208 H199 0.929 . S
C208 C200 1.378 . S
C208 C203 1.350 . S
C209 H196 0.929 . S
C209 C201 1.433 . S
C209 N211 1.384 . S
N210 C206 1.427 . S
N210 C207 1.384 . S
N211 C203 1.427 . S
N211 C209 1.384 . S
H212 C218 0.930 . S
H213 C222 0.930 . S
H214 C227 0.929 . S
H215 C225 0.929 . S
H216 C220 0.929 . S
H217 C226 0.929 . S
C218 H212 0.930 . S
C218 C219 1.367 . S
C218 C226 1.378 . S
C219 C218 1.367 . S
C219 C227 1.433 . S
C220 H216 0.929 . S
C220 C222 1.378 . S
C220 C224 1.350 . S
C221 C224 1.463 . S
C221 C226 1.350 . S
C221 N229 1.427 . S
C222 H213 0.930 . S
C222 C220 1.378 . S
C222 C223 1.367 . S
C223 C222 1.367 . S
C223 C225 1.433 . S
C224 C220 1.350 . S
C224 C221 1.463 . S
C224 N228 1.427 . S
C225 H215 0.929 . S
C225 C223 1.433 . S
C225 N228 1.384 . S
C226 H217 0.929 . S
C226 C218 1.378 . S
C226 C221 1.350 . S
C227 H214 0.929 . S
C227 C219 1.433 . S
C227 N229 1.384 . S
N228 C224 1.427 . S
N228 C225 1.384 . S
N229 C221 1.427 . S
N229 C227 1.384 . S
H230 C236 0.930 . S
H231 C240 0.930 . S
H232 C245 0.929 . S
H233 C243 0.929 . S
H234 C238 0.929 . S
H235 C244 0.929 . S
C236 H230 0.930 . S
C236 C237 1.367 . S
C236 C244 1.378 . S
C237 C236 1.367 . S
C237 C245 1.433 . S
C238 H234 0.929 . S
C238 C240 1.378 . S
C238 C242 1.350 . S
C239 C242 1.463 . S
C239 C244 1.350 . S
C239 N247 1.427 . S
C240 H231 0.930 . S
C240 C238 1.378 . S
C240 C241 1.367 . S
C241 C240 1.367 . S
C241 C243 1.433 . S
C242 C238 1.350 . S
C242 C239 1.463 . S
C242 N246 1.427 . S
C243 H233 0.929 . S
C243 C241 1.433 . S
C243 N246 1.384 . S
C244 H235 0.929 . S
C244 C236 1.378 . S
C244 C239 1.350 . S
C245 H232 0.929 . S
C245 C237 1.433 . S
C245 N247 1.384 . S
N246 C242 1.427 . S
N246 C243 1.384 . S
N247 C239 1.427 . S
N247 C245 1.384 . S
H248 C254 0.930 . S
H249 C258 0.930 . S
H250 C263 0.929 . S
H251 C261 0.929 . S
H252 C256 0.929 . S
H253 C262 0.929 . S
C254 H248 0.930 . S
C254 C255 1.367 . S
C254 C262 1.378 . S
C255 C254 1.367 . S
C255 C263 1.433 1_545 S
C256 H252 0.929 . S
C256 C258 1.378 . S
C256 C260 1.350 . S
C257 C260 1.463 1_545 S
C257 C262 1.350 . S
C257 N265 1.427 1_545 S
C258 H249 0.930 . S
C258 C256 1.378 . S
C258 C259 1.367 . S
C259 C258 1.367 . S
C259 C261 1.433 1_565 S
C260 C256 1.350 . S
C260 C257 1.463 1_565 S
C260 N264 1.427 1_565 S
C261 H251 0.929 . S
C261 C259 1.433 1_545 S
C261 N264 1.384 . S
C262 H253 0.929 . S
C262 C254 1.378 . S
C262 C257 1.350 . S
C263 H250 0.929 . S
C263 C255 1.433 1_565 S
C263 N265 1.384 . S
N264 C260 1.427 1_545 S
N264 C261 1.384 . S
N265 C257 1.427 1_565 S
N265 C263 1.384 . S
H266 C272 0.930 . S
H267 C276 0.930 . S
H268 C281 0.930 . S
H269 C279 0.933 . S
H270 C274 0.929 . S
H271 C280 0.929 . S
C272 H266 0.930 . S
C272 C273 1.367 1_565 S
C272 C280 1.378 . S
C273 C272 1.367 1_545 S
C273 C281 1.433 1_455 S
C274 H270 0.929 . S
C274 C276 1.378 . S
C274 C278 1.350 . S
C275 C278 1.463 . S
C275 C280 1.350 1_645 S
C275 N283 1.427 . S
C276 H267 0.930 . S
C276 C274 1.378 . S
C276 C277 1.367 . S
C277 C276 1.367 . S
C277 C279 1.433 1_545 S
C278 C274 1.350 . S
C278 C275 1.463 . S
C278 N282 1.427 1_545 S
C279 H269 0.933 . S
C279 C277 1.433 1_565 S
C279 N282 1.384 . S
C280 H271 0.929 . S
C280 C272 1.378 . S
C280 C275 1.350 1_465 S
C281 H268 0.930 . S
C281 C273 1.433 1_655 S
C281 N283 1.383 . S
N282 C278 1.427 1_565 S
N282 C279 1.384 . S
N283 C275 1.427 . S
N283 C281 1.383 . S
H284 C290 0.930 . S
H285 C294 0.930 . S
H286 C299 0.929 . S
H287 C297 0.929 . S
H288 C292 0.929 . S
H289 C298 0.929 . S
C290 H284 0.930 . S
C290 C291 1.367 . S
C290 C298 1.378 . S
C291 C290 1.367 . S
C291 C299 1.433 . S
C292 H288 0.929 . S
C292 C294 1.378 . S
C292 C296 1.350 . S
C293 C296 1.463 . S
C293 C298 1.350 . S
C293 N301 1.427 . S
C294 H285 0.930 . S
C294 C292 1.378 . S
C294 C295 1.367 . S
C295 C294 1.367 . S
C295 C297 1.433 . S
C296 C292 1.350 . S
C296 C293 1.463 . S
C296 N300 1.427 . S
C297 H287 0.929 . S
C297 C295 1.433 . S
C297 N300 1.384 . S
C298 H289 0.929 . S
C298 C290 1.378 . S
C298 C293 1.350 . S
C299 H286 0.929 . S
C299 C291 1.433 . S
C299 N301 1.384 . S
N300 C296 1.427 . S
N300 C297 1.384 . S
N301 C293 1.427 . S
N301 C299 1.384 . S
H302 C308 0.930 . S
H303 C312 0.930 . S
H304 C317 0.929 . S
H305 C315 0.929 . S
H306 C310 0.929 . S
H307 C316 0.929 . S
C308 H302 0.930 . S
C308 C309 1.367 . S
C308 C316 1.378 . S
C309 C308 1.367 . S
C309 C317 1.433 . S
C310 H306 0.929 . S
C310 C312 1.378 . S
C310 C314 1.350 . S
C311 C314 1.463 . S
C311 C316 1.350 . S
C311 N319 1.427 . S
C312 H303 0.930 . S
C312 C310 1.378 . S
C312 C313 1.367 . S
C313 C312 1.367 . S
C313 C315 1.433 . S
C314 C310 1.350 . S
C314 C311 1.463 . S
C314 N318 1.427 . S
C315 H305 0.929 . S
C315 C313 1.433 . S
C315 N318 1.384 . S
C316 H307 0.929 . S
C316 C308 1.378 . S
C316 C311 1.350 . S
C317 H304 0.929 . S
C317 C309 1.433 . S
C317 N319 1.384 . S
N318 C314 1.427 . S
N318 C315 1.384 . S
N319 C311 1.427 . S
N319 C317 1.384 . S
C115 C99 1.460 . S
C111 C27 1.481 . S
C129 N6 1.354 . S
C133 N86 1.365 . S
C147 C16 1.429 . S
C151 N97 1.376 . S
C165 N14 1.438 1_556 S
C169 C88 1.442 . S
C183 C57 1.481 . S
C187 C77 1.460 . S
C201 N36 1.343 . S
C205 N64 1.377 . S
C223 N75 1.386 . S
C219 C46 1.426 . S
C241 C66 1.433 . S
C237 N44 1.431 . S
C255 C10 1.472 . S
C259 C69 1.466 . S
C273 C1 1.542 . S
C277 C80 1.539 . S
C295 C91 1.470 . S
C291 C40 1.470 . S
C309 C31 1.542 . S
C313 C102 1.533 . S
