# Generated by pormake.
# Topology rtl, (3,6)-cn, num edge types: 1
# Building blocks:
#     Node 0, Type 0, BuildingBlock: PAMTOO_clean_linker_0, # of connection points: 3
#     Node 1, Type 0, BuildingBlock: PAMTOO_clean_linker_0, # of connection points: 3
#     Node 2, Type 0, BuildingBlock: PAMTOO_clean_linker_0, # of connection points: 3
#     Node 3, Type 0, BuildingBlock: PAMTOO_clean_linker_0, # of connection points: 3
#     Node 4, Type 1, BuildingBlock: KUMJIN_clean_sbu_1, # of connection points: 6
#     Node 5, Type 1, BuildingBlock: KUMJIN_clean_sbu_1, # of connection points: 6
#     Edge 6, Type (0, 1), BuildingBlock: UVAHIK_clean_linker_0, # of connection points: 2
#     Edge 7, Type (0, 1), BuildingBlock: UVAHIK_clean_linker_0, # of connection points: 2
#     Edge 8, Type (0, 1), BuildingBlock: UVAHIK_clean_linker_0, # of connection points: 2
#     Edge 9, Type (0, 1), BuildingBlock: UVAHIK_clean_linker_0, # of connection points: 2
#     Edge 10, Type (0, 1), BuildingBlock: UVAHIK_clean_linker_0, # of connection points: 2
#     Edge 11, Type (0, 1), BuildingBlock: UVAHIK_clean_linker_0, # of connection points: 2
#     Edge 12, Type (0, 1), BuildingBlock: UVAHIK_clean_linker_0, # of connection points: 2
#     Edge 13, Type (0, 1), BuildingBlock: UVAHIK_clean_linker_0, # of connection points: 2
#     Edge 14, Type (0, 1), BuildingBlock: UVAHIK_clean_linker_0, # of connection points: 2
#     Edge 15, Type (0, 1), BuildingBlock: UVAHIK_clean_linker_0, # of connection points: 2
#     Edge 16, Type (0, 1), BuildingBlock: UVAHIK_clean_linker_0, # of connection points: 2
#     Edge 17, Type (0, 1), BuildingBlock: UVAHIK_clean_linker_0, # of connection points: 2
# Relax obj value: 0.051
# Max RMSD: 0.206
# Mean RMSD: 0.157
data_MOF--net-rtl--node1-KUMJIN_clean_sbu_1--node2-PAMTOO_clean_linker_0--edge1-UVAHIK_clean_linker_0
_symmetry_space_group_name_H-M    P1
_symmetry_Int_Tables_number       1
_symmetry_cell_setting            triclinic
loop_
_symmetry_equiv_pos_as_xyz
'x, y, z'
_cell_length_a     45.130013
_cell_length_b     45.329787
_cell_length_c     34.190471
_cell_angle_alpha  81.724335
_cell_angle_beta   99.604865
_cell_angle_gamma 91.013236
loop_
_atom_site_label
_atom_site_type_symbol
_atom_site_fract_x
_atom_site_fract_y
_atom_site_fract_z
_atom_type_partial_charge
H0 H 0.1898 0.88966 1.00164 0.0
H1 H 0.23937 0.82127 0.08728 0.0
H2 H 0.24314 0.82571 0.96222 0.0
H3 H 0.23656 0.76646 0.00897 0.0
C4 C 0.25335 0.7691 0.03606 0.0
O5 O 0.26323 0.79815 0.03417 0.0
H6 H 0.24213 0.76331 0.06275 0.0
C7 C 0.20484 0.87058 0.00868 0.0
C8 C 0.21518 0.85926 0.97724 0.0
C9 C 0.21288 0.85696 0.04869 0.0
C10 C 0.23289 0.83251 0.05695 0.0
C11 C 0.24395 0.82156 0.02585 0.0
C12 C 0.23488 0.83471 0.98609 0.0
H13 H 0.64426 0.66823 0.61911 0.0
H14 H 0.70825 0.72142 0.55952 0.0
H15 H 0.70475 0.72602 0.68306 0.0
H16 H 0.71392 0.78492 0.63669 0.0
C17 C 0.72373 0.77735 0.61202 0.0
O18 O 0.73023 0.74728 0.62131 0.0
H19 H 0.70672 0.78169 0.58419 0.0
C20 C 0.6622 0.68445 0.61947 0.0
C21 C 0.67297 0.69588 0.6552 0.0
C22 C 0.67491 0.69306 0.58469 0.0
C23 C 0.69788 0.71447 0.58571 0.0
C24 C 0.70829 0.72657 0.62093 0.0
C25 C 0.69622 0.71691 0.65578 0.0
H26 H 0.8458 0.13144 0.05589 0.0
H27 H 0.78488 0.1936 0.97541 0.0
H28 H 0.79007 0.18925 0.10252 0.0
H29 H 0.72898 0.19247 0.05318 0.0
C30 C 0.73373 0.20889 0.02749 0.0
O31 O 0.76398 0.21537 0.03217 0.0
H32 H 0.72699 0.19866 0.99965 0.0
C33 C 0.82841 0.14841 0.05081 0.0
C34 C 0.81916 0.15843 0.08389 0.0
C35 C 0.81644 0.16098 0.01142 0.0
C36 C 0.79472 0.18377 0.00545 0.0
C37 C 0.78514 0.19371 0.03826 0.0
C38 C 0.79756 0.1813 0.07736 0.0
H39 H 0.38748 0.34582 0.44514 0.0
H40 H 0.3235 0.29245 0.50454 0.0
H41 H 0.32682 0.28836 0.38083 0.0
H42 H 0.26566 0.28367 0.39947 0.0
C43 C 0.27102 0.27576 0.43222 0.0
O44 O 0.30089 0.26742 0.44222 0.0
H45 H 0.26646 0.29453 0.44816 0.0
C46 C 0.36959 0.32954 0.44474 0.0
C47 C 0.35877 0.31824 0.40892 0.0
C48 C 0.35691 0.3208 0.47951 0.0
C49 C 0.33392 0.29941 0.47839 0.0
C50 C 0.32325 0.28769 0.44295 0.0
C51 C 0.33549 0.29726 0.40822 0.0
Eu52 Eu 0.03512 0.97675 0.50716 0.0
C53 C 0.97005 0.09895 0.5028 0.0
N54 N 0.99581 0.08896 0.52744 0.0
C55 C 0.0179 0.13726 0.5166 0.0
C56 C 0.96752 0.12864 0.48334 0.0
C57 C 0.01942 0.10762 0.53507 0.0
C58 C 0.99189 0.1478 0.49047 0.0
C59 C 0.91969 0.08879 0.46995 0.0
C60 C 0.94641 0.07916 0.49611 0.0
C61 C 0.91715 0.11832 0.45048 0.0
C62 C 0.94098 0.13818 0.45716 0.0
Eu63 Eu 0.99668 0.03851 0.55637 0.0
N64 N 0.94986 0.05036 0.51433 0.0
C65 C 0.89631 0.0684 0.46401 0.0
C66 C 0.92649 0.03093 0.51033 0.0
C67 C 0.89961 0.03946 0.48467 0.0
H68 H 0.03925 0.09976 0.55597 0.0
H69 H 0.88132 0.02378 0.48118 0.0
H70 H 0.99501 0.9143 0.51996 0.0
H71 H 0.15307 0.99814 0.56628 0.0
H72 H 0.92803 0.00905 0.52735 0.0
H73 H 0.87546 0.07491 0.4441 0.0
H74 H 0.10439 0.00881 0.52296 0.0
H75 H 0.03674 0.15198 0.52262 0.0
H76 H 0.89685 0.12602 0.43013 0.0
H77 H 0.93868 0.16088 0.44183 0.0
H78 H 1.0011 0.8638 0.55877 0.0
H79 H 0.99081 0.17076 0.47609 0.0
H80 H 0.16192 0.94972 0.61014 0.0
N81 N 0.03913 0.92787 0.54207 0.0
C82 C 0.06621 0.91993 0.56495 0.0
C83 C 0.01952 0.87941 0.56095 0.0
C84 C 0.07072 0.8913 0.58751 0.0
C85 C 0.01601 0.9081 0.53933 0.0
C86 C 0.04695 0.871 0.58526 0.0
N87 N 0.08399 0.96864 0.54545 0.0
C88 C 0.107 0.98846 0.5436 0.0
C89 C 0.11719 0.93342 0.59127 0.0
C90 C 0.08913 0.94093 0.56697 0.0
C91 C 0.14008 0.95463 0.59184 0.0
C92 C 0.1351 0.98207 0.56738 0.0
H93 H 0.04954 0.8488 0.60216 0.0
H94 H 0.10233 0.86215 0.62973 0.0
H95 H 0.14301 0.89894 0.63293 0.0
O96 O 0.06021 0.98199 0.45706 0.0
O97 O 0.03411 0.96923 0.57419 0.0
O98 O 0.0389 0.01589 0.59266 0.0
O99 O 0.03398 0.94239 0.46845 0.0
O100 O 0.05232 0.02461 0.49882 0.0
O101 O 0.04654 0.04403 0.55605 0.0
O102 O 0.96755 0.03213 0.60176 0.0
O103 O 0.99668 0.04613 0.48911 0.0
O104 O 0.99305 0.99939 0.47042 0.0
O105 O 0.99828 0.06915 0.60056 0.0
O106 O 0.97896 0.99091 0.56394 0.0
O107 O 0.9853 0.97049 0.50757 0.0
C108 C 0.04396 0.98707 0.6004 0.0
C109 C 0.03925 0.95865 0.40152 0.0
C110 C 0.04858 0.95194 0.33495 0.0
C111 C 0.01803 0.95846 0.31977 0.0
C112 C 0.00903 0.96525 0.38574 0.0
C113 C 0.99854 0.96529 0.34499 0.0
C114 C 0.05897 0.95242 0.37609 0.0
C115 C 0.05937 0.04401 0.5242 0.0
C116 C 0.05036 0.95722 0.44462 0.0
C117 C 0.09852 0.88398 0.61202 0.0
C118 C 0.12166 0.90497 0.61393 0.0
C119 C 0.98799 0.02822 0.46252 0.0
C120 C 0.98654 0.04828 0.66327 0.0
C121 C 0.9749 0.05335 0.72915 0.0
C122 C 0.99992 0.03523 0.74697 0.0
C123 C 0.01139 0.03029 0.68153 0.0
C124 C 0.96843 0.05984 0.68709 0.0
C125 C 0.01806 0.02386 0.72322 0.0
C126 C 0.97199 0.97129 0.53891 0.0
C127 C 0.97868 0.05442 0.61947 0.0
H128 H 0.00893 0.95774 0.28857 0.0
H129 H 0.99353 0.96993 0.40505 0.0
H130 H 0.97512 0.97018 0.333 0.0
H131 H 0.08241 0.94792 0.38859 0.0
H132 H 1.00564 0.0301 0.77926 0.0
H133 H 0.02546 0.02115 0.66356 0.0
H134 H 0.94896 0.07338 0.67282 0.0
H135 H 0.0373 0.00997 0.73715 0.0
Eu136 Eu 0.48108 0.49708 0.98825 0.0
C137 C 0.60418 0.55404 0.04539 0.0
N138 N 0.59538 0.5254 0.05478 0.0
C139 C 0.64206 0.50716 0.04275 0.0
C140 C 0.63228 0.56025 0.03325 0.0
C141 C 0.6139 0.50204 0.05425 0.0
C142 C 0.65126 0.53638 0.03205 0.0
C143 C 0.59315 0.607 0.0367 0.0
C144 C 0.58457 0.57712 0.04679 0.0
C145 C 0.62089 0.61322 0.02388 0.0
C146 C 0.6404 0.58993 0.02221 0.0
Eu147 Eu 0.54791 0.51879 0.07467 0.0
N148 N 0.55769 0.5705 0.05913 0.0
C149 C 0.57396 0.62984 0.04079 0.0
C150 C 0.54039 0.5928 0.06666 0.0
C151 C 0.54776 0.62269 0.05657 0.0
H152 H 0.60688 0.47948 0.06284 0.0
H153 H 0.53355 0.6402 0.06182 0.0
H154 H 0.42211 0.5363 1.00038 0.0
H155 H 0.49527 0.37571 1.0004 0.0
H156 H 0.52139 0.58797 0.08172 0.0
H157 H 0.57975 0.65304 0.03337 0.0
H158 H 0.50725 0.42799 0.9804 0.0
H159 H 0.65663 0.48859 0.0421 0.0
H160 H 0.62766 0.63603 0.01575 0.0
H161 H 0.66179 0.59512 0.01249 0.0
H162 H 0.37255 0.52714 0.02164 0.0
H163 H 0.67301 0.54027 0.02287 0.0
H164 H 0.44936 0.36279 0.02952 0.0
N165 N 0.43372 0.49042 0.00854 0.0
C166 C 0.42497 0.46176 0.01798 0.0
C167 C 0.38712 0.50859 0.02091 0.0
C168 C 0.39696 0.45551 0.03038 0.0
C169 C 0.41519 0.51375 0.00914 0.0
C170 C 0.37801 0.47936 0.03175 0.0
N171 N 0.47129 0.44536 0.0037 0.0
C172 C 0.48846 0.42309 0.9958 0.0
C173 C 0.436 0.40881 0.02648 0.0
C174 C 0.44453 0.4387 0.01636 0.0
C175 C 0.45511 0.386 0.02209 0.0
C176 C 0.48115 0.39319 0.00593 0.0
H177 H 0.35633 0.47545 0.04114 0.0
H178 H 0.3676 0.42061 0.05144 0.0
H179 H 0.40165 0.37974 0.04778 0.0
O180 O 0.47661 0.48308 0.92771 0.0
O181 O 0.47251 0.49146 0.05283 0.0
O182 O 0.51892 0.47871 0.08946 0.0
O183 O 0.44629 0.51616 0.94047 0.0
O184 O 0.52701 0.47498 0.99333 0.0
O185 O 0.54548 0.47141 0.06095 0.0
O186 O 0.55188 0.53263 0.13531 0.0
O187 O 0.55661 0.52434 0.01018 0.0
O188 O 0.51027 0.53694 0.97308 0.0
O189 O 0.58259 0.49989 0.12262 0.0
O190 O 0.50196 0.54075 0.06954 0.0
O191 O 0.48368 0.5445 1.00188 0.0
C192 C 0.48951 0.47798 0.08515 0.0
C193 C 0.43749 0.50559 0.87252 0.0
C194 C 0.42345 0.49011 0.80636 0.0
C195 C 0.40609 0.51629 0.79379 0.0
C196 C 0.42001 0.53157 0.85902 0.0
C197 C 0.40444 0.5368 0.81996 0.0
C198 C 0.43909 0.48473 0.84606 0.0
C199 C 0.54532 0.46294 0.02574 0.0
C200 C 0.45377 0.50102 0.91416 0.0
C201 C 0.38891 0.42582 0.0415 0.0
C202 C 0.40838 0.40256 0.03961 0.0
C203 C 0.53971 0.53774 0.97771 0.0
C204 C 0.59073 0.50986 0.19074 0.0
C205 C 0.60468 0.52502 0.2571 0.0
C206 C 0.62131 0.4984 0.26984 0.0
C207 C 0.60746 0.48343 0.20441 0.0
C208 C 0.58945 0.53077 0.21721 0.0
C209 C 0.62264 0.47782 0.24366 0.0
C210 C 0.48369 0.55282 0.03714 0.0
C211 C 0.57476 0.51477 0.14896 0.0
H212 H 0.39342 0.52075 0.7637 0.0
H213 H 0.41844 0.54803 0.87864 0.0
H214 H 0.39098 0.55684 0.80993 0.0
H215 H 0.45252 0.46464 0.85613 0.0
H216 H 0.63366 0.49363 0.30007 0.0
H217 H 0.60873 0.4669 0.18478 0.0
H218 H 0.57657 0.55119 0.20699 0.0
H219 H 0.63552 0.45744 0.25382 0.0
C220 C 0.23891 0.23165 0.41513 0.0
C221 C 0.25144 0.24974 0.4436 0.0
C222 C 0.21991 0.20813 0.42545 0.0
C223 C 0.17057 0.18231 0.49947 0.0
H224 H 0.17206 0.10766 0.45688 0.0
C225 C 0.09708 0.08198 0.5471 0.0
C226 C 0.08283 0.06642 0.51653 0.0
C227 C 0.11884 0.10345 0.5395 0.0
C228 C 0.17117 0.12848 0.46874 0.0
H229 H 0.2555 0.25658 0.50558 0.0
H230 H 0.22245 0.2153 0.52392 0.0
H231 H 0.20831 0.14638 0.44157 0.0
H232 H 0.08063 0.06088 0.45415 0.0
H233 H 0.11846 0.09834 0.44088 0.0
H234 H 0.13331 0.1645 0.52641 0.0
C235 C 0.22662 0.2197 0.49334 0.0
C236 C 0.19197 0.15068 0.45996 0.0
C237 C 0.24562 0.24321 0.48297 0.0
C238 C 0.0912 0.07243 0.4784 0.0
C239 C 0.113 0.09383 0.47083 0.0
C240 C 0.14979 0.16011 0.50827 0.0
C241 C 0.21323 0.20206 0.46458 0.0
C242 C 0.19183 0.17795 0.47503 0.0
C243 C 0.127 0.10971 0.50123 0.0
C244 C 0.14972 0.13297 0.49283 0.0
H245 H 0.2434 0.23606 0.38468 0.0
H246 H 0.20986 0.19516 0.40247 0.0
H247 H 0.16947 0.2032 0.51106 0.0
H248 H 0.0915 0.07753 0.57699 0.0
H249 H 0.1295 0.11493 0.56376 0.0
C250 C 0.29441 0.73446 0.07571 0.0
C251 C 0.2796 0.74851 0.03848 0.0
C252 C 0.3185 0.71498 0.07778 0.0
C253 C 0.3751 0.69376 0.01955 0.0
H254 H 0.37741 0.61863 0.09047 0.0
C255 C 0.44873 0.59484 0.00473 0.0
C256 C 0.46294 0.57717 0.03981 0.0
C257 C 0.42826 0.6171 0.00666 0.0
C258 C 0.37738 0.63969 0.07096 0.0
H259 H 0.27904 0.75453 0.97445 0.0
H260 H 0.32093 0.72023 0.97779 0.0
H261 H 0.33828 0.65518 0.08989 0.0
H262 H 0.46699 0.56928 0.10455 0.0
H263 H 0.43138 0.6085 0.10798 0.0
H264 H 0.41399 0.67814 1.00026 0.0
C265 C 0.31402 0.72417 0.00546 0.0
C266 C 0.35492 0.66066 0.0706 0.0
C267 C 0.28992 0.7436 0.00345 0.0
C268 C 0.45647 0.58254 0.07698 0.0
C269 C 0.4359 0.60486 0.07891 0.0
C270 C 0.39755 0.67282 0.01992 0.0
C271 C 0.32845 0.70941 0.04264 0.0
C272 C 0.35331 0.68781 0.04456 0.0
C273 C 0.42146 0.62232 0.04373 0.0
C274 C 0.39877 0.64538 0.04528 0.0
H275 H 0.28716 0.73837 0.10319 0.0
H276 H 0.32944 0.7044 0.10691 0.0
H277 H 0.37484 0.71467 0.99965 0.0
H278 H 0.45318 0.59133 0.97557 0.0
H279 H 0.41725 0.62979 0.97892 0.0
C280 C 0.76788 0.8088 0.63647 0.0
C281 C 0.75179 0.7946 0.60573 0.0
C282 C 0.79294 0.8262 0.62981 0.0
C283 C 0.84953 0.84177 0.56236 0.0
H284 H 0.85511 0.9181 0.60163 0.0
C285 C 0.93403 0.9332 0.5166 0.0
C286 C 0.94784 0.94964 0.54646 0.0
C287 C 0.91086 0.91324 0.52392 0.0
C288 C 0.85417 0.89671 0.59088 0.0
H289 H 0.75009 0.7859 0.54484 0.0
H290 H 0.79383 0.81654 0.53288 0.0
H291 H 0.81415 0.88459 0.61497 0.0
H292 H 0.94838 0.95765 0.60764 0.0
H293 H 0.90841 0.92279 0.62047 0.0
H294 H 0.88962 0.85401 0.53821 0.0
C295 C 0.78711 0.81434 0.56212 0.0
C296 C 0.83064 0.87747 0.59856 0.0
C297 C 0.762 0.79697 0.56881 0.0
C298 C 0.9381 0.94554 0.58382 0.0
C299 C 0.91505 0.9256 0.59115 0.0
C300 C 0.87316 0.86104 0.55474 0.0
C301 C 0.80259 0.82958 0.59234 0.0
C302 C 0.82802 0.84973 0.58447 0.0
C303 C 0.90097 0.90932 0.56124 0.0
C304 C 0.8758 0.88875 0.56897 0.0
H305 H 0.76072 0.80687 0.66544 0.0
H306 H 0.80471 0.83711 0.654 0.0
H307 H 0.84835 0.82045 0.55142 0.0
H308 H 0.94084 0.93601 0.48738 0.0
H309 H 0.9003 0.90135 0.50004 0.0
C310 C 0.70435 0.25358 0.9882 0.0
C311 C 0.71588 0.23696 0.02537 0.0
C312 C 0.6873 0.27939 0.98633 0.0
C313 C 0.67044 0.33636 0.04731 0.0
H314 H 0.59724 0.34863 0.96922 0.0
C315 C 0.57966 0.42061 0.05875 0.0
C316 C 0.56544 0.43797 0.0234 0.0
C317 C 0.59898 0.39729 0.05716 0.0
C318 C 0.61782 0.34576 0.99083 0.0
H319 H 0.72003 0.23479 0.08966 0.0
H320 H 0.68997 0.27967 0.08661 0.0
H321 H 0.62962 0.30592 0.96996 0.0
H322 H 0.56053 0.44443 0.95856 0.0
H323 H 0.59437 0.40347 0.95577 0.0
H324 H 0.6585 0.37597 0.06848 0.0
C325 C 0.69401 0.27289 0.05885 0.0
C326 C 0.63639 0.32127 0.99126 0.0
C327 C 0.71101 0.2471 0.06066 0.0
C328 C 0.57097 0.43135 0.98633 0.0
C329 C 0.5903 0.40786 0.98473 0.0
C330 C 0.65189 0.36079 0.04688 0.0
C331 C 0.68173 0.28923 0.02164 0.0
C332 C 0.66277 0.3161 0.0198 0.0
C333 C 0.60462 0.39064 0.02018 0.0
C334 C 0.62517 0.3656 0.01895 0.0
H335 H 0.7083 0.24644 0.9606 0.0
H336 H 0.67864 0.29172 0.95724 0.0
H337 H 0.69087 0.33337 0.06919 0.0
H338 H 0.57581 0.42493 0.08785 0.0
H339 H 0.6092 0.38416 0.08501 0.0
C340 C 0.16958 0.87869 0.07314 0.0
C341 C 0.19928 0.86758 0.08115 0.0
C342 C 0.15677 0.88913 0.10299 0.0
C343 C 0.15306 0.87879 0.20634 0.0
H344 H 0.12647 0.96111 0.19189 0.0
C345 C 0.09249 0.92292 0.32256 0.0
C346 C 0.06927 0.94402 0.30818 0.0
C347 C 0.11139 0.91499 0.29722 0.0
C348 C 0.13333 0.93795 0.19624 0.0
H349 H 0.23848 0.85853 0.12765 0.0
H350 H 0.21519 0.87541 0.18038 0.0
H351 H 0.15342 0.94405 0.14305 0.0
H352 H 0.04844 0.97375 0.2556 0.0
H353 H 0.07982 0.95853 0.21106 0.0
H354 H 0.13148 0.87186 0.25791 0.0
C355 C 0.20233 0.87641 0.15048 0.0
C356 C 0.14904 0.92834 0.16844 0.0
C357 C 0.2155 0.86657 0.12031 0.0
C358 C 0.06565 0.95705 0.26776 0.0
C359 C 0.08416 0.94869 0.24225 0.0
C360 C 0.13675 0.88819 0.23372 0.0
C361 C 0.17299 0.88802 0.14183 0.0
C362 C 0.15879 0.89866 0.17313 0.0
C363 C 0.10728 0.92748 0.25655 0.0
C364 C 0.12633 0.91786 0.22883 0.0
H365 H 0.15589 0.879 0.04391 0.0
H366 H 0.13391 0.89761 0.0959 0.0
H367 H 0.16016 0.85569 0.21021 0.0
H368 H 0.09583 0.912 0.35329 0.0
H369 H 0.12919 0.89896 0.30966 0.0
C370 C 0.6293 0.68374 0.69118 0.0
C371 C 0.66053 0.68462 0.692 0.0
C372 C 0.61736 0.67035 0.72455 0.0
C373 C 0.63357 0.61148 0.80932 0.0
H374 H 0.56991 0.64729 0.85036 0.0
C375 C 0.5849 0.55151 0.94525 0.0
C376 C 0.5542 0.55522 0.94606 0.0
C377 C 0.59883 0.56868 0.91623 0.0
C378 C 0.58736 0.63672 0.83896 0.0
H379 H 0.7038 0.67266 0.72842 0.0
H380 H 0.68287 0.64873 0.78675 0.0
H381 H 0.59238 0.67544 0.79647 0.0
H382 H 0.51369 0.57912 0.91581 0.0
H383 H 0.53746 0.60788 0.86394 0.0
H384 H 0.62791 0.57234 0.85026 0.0
C385 C 0.66769 0.6586 0.76033 0.0
C386 C 0.60037 0.65299 0.80825 0.0
C387 C 0.67965 0.67247 0.72716 0.0
C388 C 0.53748 0.57586 0.91632 0.0
C389 C 0.55126 0.59267 0.8868 0.0
C390 C 0.62028 0.59502 0.83958 0.0
C391 C 0.63641 0.65711 0.75918 0.0
C392 C 0.62355 0.64051 0.79307 0.0
C393 C 0.5822 0.58949 0.88645 0.0
C394 C 0.59689 0.60735 0.85479 0.0
H395 H 0.6141 0.693 0.66443 0.0
H396 H 0.59318 0.66936 0.72274 0.0
H397 H 0.65112 0.60114 0.79777 0.0
H398 H 0.59822 0.53513 0.96688 0.0
H399 H 0.62272 0.56568 0.91739 0.0
C400 C 0.84508 0.16368 0.15331 0.0
C401 C 0.83285 0.14529 0.12502 0.0
C402 C 0.86045 0.15119 0.19085 0.0
C403 C 0.87032 0.08265 0.26355 0.0
H404 H 0.94993 0.11327 0.29651 0.0
C405 C 0.95183 0.02323 0.39958 0.0
C406 C 0.97051 0.04111 0.42345 0.0
C407 C 0.9345 0.03591 0.36344 0.0
C408 C 0.92757 0.10471 0.28822 0.0
H409 H 0.82596 0.09952 0.11425 0.0
H410 H 0.85244 0.07767 0.18013 0.0
H411 H 0.91936 0.13611 0.23439 0.0
H412 H 0.986 0.08626 0.42785 0.0
H413 H 0.95479 0.10854 0.3663 0.0
H414 H 0.87815 0.05161 0.31764 0.0
C415 C 0.85031 0.1017 0.17319 0.0
C416 C 0.9101 0.11781 0.25251 0.0
C417 C 0.83533 0.11418 0.13548 0.0
C418 C 0.97162 0.07187 0.41035 0.0
C419 C 0.95397 0.08462 0.37467 0.0
C420 C 0.88764 0.06978 0.29959 0.0
C421 C 0.86346 0.12008 0.20099 0.0
C422 C 0.88137 0.10684 0.23973 0.0
C423 C 0.9352 0.06683 0.35061 0.0
C424 C 0.91657 0.08056 0.31234 0.0
H425 H 0.84363 0.18772 0.1459 0.0
H426 H 0.87021 0.16585 0.21187 0.0
H427 H 0.84813 0.0739 0.2545 0.0
H428 H 0.9502 0.9995 0.40908 0.0
H429 H 0.92069 0.02139 0.34549 0.0
C430 C 0.37251 0.36615 0.51189 0.0
C431 C 0.36644 0.33543 0.5159 0.0
C432 C 0.38072 0.38037 0.54559 0.0
C433 C 0.40936 0.36762 0.65487 0.0
H434 H 0.377 0.44717 0.64849 0.0
C435 C 0.41844 0.43827 0.78761 0.0
C436 C 0.42433 0.46874 0.77748 0.0
C437 C 0.41403 0.41946 0.75796 0.0
C438 C 0.38643 0.42506 0.65064 0.0
H439 H 0.36468 0.29554 0.5589 0.0
H440 H 0.37819 0.32069 0.61802 0.0
H441 H 0.36283 0.41924 0.59283 0.0
H442 H 0.43297 0.50277 0.72939 0.0
H443 H 0.42531 0.47014 0.67795 0.0
H444 H 0.43259 0.37367 0.7134 0.0
C445 C 0.37702 0.33362 0.58859 0.0
C446 C 0.37837 0.40905 0.61866 0.0
C447 C 0.36893 0.31928 0.55469 0.0
C448 C 0.42784 0.47953 0.73791 0.0
C449 C 0.42341 0.46087 0.70845 0.0
C450 C 0.41727 0.38367 0.68721 0.0
C451 C 0.38274 0.36443 0.58439 0.0
C452 C 0.39014 0.38035 0.61995 0.0
C453 C 0.41542 0.43092 0.71783 0.0
C454 C 0.4063 0.41278 0.68501 0.0
H455 H 0.37038 0.37948 0.4826 0.0
H456 H 0.38546 0.40401 0.54112 0.0
H457 H 0.41891 0.34561 0.65682 0.0
H458 H 0.41554 0.42939 0.81788 0.0
H459 H 0.40794 0.39643 0.76599 0.0
C460 C 0.66268 0.69475 0.50951 0.0
C461 C 0.66516 0.67854 0.54827 0.0
C462 C 0.65425 0.68055 0.47556 0.0
C463 C 0.65141 0.60513 0.44513 0.0
H464 H 0.59771 0.64163 0.35057 0.0
C465 C 0.60015 0.5358 0.32542 0.0
C466 C 0.60413 0.54644 0.28598 0.0
C467 C 0.60493 0.55438 0.35496 0.0
C468 C 0.61287 0.63131 0.37673 0.0
H469 H 0.66082 0.63452 0.58143 0.0
H470 H 0.64507 0.61025 0.52284 0.0
H471 H 0.61208 0.66935 0.40735 0.0
H472 H 0.61408 0.58551 0.24589 0.0
H473 H 0.62225 0.61833 0.29792 0.0
H474 H 0.65187 0.56701 0.41507 0.0
C475 C 0.65013 0.63382 0.51843 0.0
C476 C 0.6212 0.64717 0.40917 0.0
C477 C 0.65873 0.6479 0.55218 0.0
C478 C 0.61082 0.57675 0.27604 0.0
C479 C 0.61555 0.59547 0.30578 0.0
C480 C 0.64292 0.5893 0.41306 0.0
C481 C 0.64812 0.64982 0.47966 0.0
C482 C 0.64025 0.63405 0.44401 0.0
C483 C 0.61371 0.5841 0.3458 0.0
C484 C 0.62324 0.602 0.37875 0.0
H485 H 0.66718 0.71844 0.50536 0.0
H486 H 0.65309 0.69353 0.44617 0.0
H487 H 0.66682 0.59461 0.47089 0.0
H488 H 0.59441 0.5127 0.33378 0.0
H489 H 0.60269 0.54519 0.38537 0.0
C490 C 0.8332 0.12024 0.97736 0.0
C491 C 0.82737 0.15066 0.97695 0.0
C492 C 0.84579 0.11067 0.9467 0.0
C493 C 0.89152 0.13811 0.86926 0.0
H494 H 0.8708 0.06198 0.83309 0.0
C495 C 0.94558 0.09505 0.74596 0.0
C496 C 0.95545 0.06522 0.75435 0.0
C497 C 0.92764 0.10629 0.77011 0.0
C498 C 0.87692 0.08323 0.84305 0.0
H499 H 0.82942 0.19478 0.94323 0.0
H500 H 0.85068 0.17797 0.88908 0.0
H501 H 0.84261 0.08039 0.8797 0.0
H502 H 0.9537 0.02361 0.79406 0.0
H503 H 0.92258 0.04327 0.83639 0.0
H504 H 0.92594 0.14082 0.83273 0.0
C505 C 0.846 0.16157 0.91357 0.0
C506 C 0.8608 0.09378 0.86978 0.0
C507 C 0.83346 0.17117 0.94436 0.0
C508 C 0.9467 0.04677 0.78709 0.0
C509 C 0.92861 0.05794 0.81106 0.0
C510 C 0.90753 0.12763 0.84235 0.0
C511 C 0.85273 0.13124 0.91467 0.0
C512 C 0.86819 0.12115 0.8837 0.0
C513 C 0.919 0.08786 0.80297 0.0
C514 C 0.90069 0.09988 0.82941 0.0
H515 H 0.82836 0.10379 1.00172 0.0
H516 H 0.85092 0.08719 0.94879 0.0
H517 H 0.89814 0.15906 0.87977 0.0
H518 H 0.95212 0.10985 0.72108 0.0
H519 H 0.92042 0.12938 0.76298 0.0
C520 C 0.35162 0.34201 0.3371 0.0
C521 C 0.37096 0.32982 0.37204 0.0
C522 C 0.36331 0.3561 0.30383 0.0
C523 C 0.43012 0.36215 0.255 0.0
H524 H 0.40227 0.44282 0.21372 0.0
C525 C 0.4921 0.43969 0.14637 0.0
C526 C 0.47521 0.46039 0.11689 0.0
C527 C 0.47854 0.42278 0.17602 0.0
C528 C 0.40998 0.42014 0.2242 0.0
H529 H 0.41752 0.32166 0.39912 0.0
H530 H 0.43798 0.34568 0.34061 0.0
H531 H 0.37952 0.41381 0.26651 0.0
H532 H 0.43115 0.4805 0.09669 0.0
H533 H 0.40699 0.44976 0.14641 0.0
H534 H 0.46018 0.36805 0.21238 0.0
C535 C 0.41382 0.34454 0.33906 0.0
C536 C 0.39696 0.40356 0.25463 0.0
C537 C 0.40215 0.33093 0.37254 0.0
C538 C 0.44457 0.46407 0.1181 0.0
C539 C 0.43085 0.44679 0.14725 0.0
C540 C 0.44285 0.37854 0.22411 0.0
C541 C 0.39454 0.35778 0.30466 0.0
C542 C 0.40711 0.37453 0.27062 0.0
C543 C 0.44765 0.42591 0.17676 0.0
C544 C 0.43321 0.40792 0.20856 0.0
H545 H 0.32749 0.34166 0.33608 0.0
H546 H 0.34796 0.36597 0.27758 0.0
H547 H 0.43819 0.3397 0.26657 0.0
H548 H 0.51585 0.43646 0.14657 0.0
H549 H 0.49247 0.40752 0.19866 0.0
C550 C 0.19048 0.85329 0.9077 0.0
C551 C 0.2034 0.87199 0.93521 0.0
C552 C 0.17549 0.86544 0.86982 0.0
C553 C 0.16593 0.93284 0.79487 0.0
H554 H 0.08491 0.90385 0.76703 0.0
C555 C 0.08209 0.99216 0.66134 0.0
C556 C 0.06222 0.97429 0.63892 0.0
C557 C 0.10023 0.9796 0.6969 0.0
C558 C 0.10764 0.91191 0.77385 0.0
H559 H 0.21224 0.9179 0.94407 0.0
H560 H 0.18638 0.93917 0.87752 0.0
H561 H 0.11656 0.88138 0.82839 0.0
H562 H 0.04503 0.92952 0.63682 0.0
H563 H 0.07768 0.90732 0.69726 0.0
H564 H 0.15729 0.96307 0.74005 0.0
C565 C 0.1877 0.91516 0.88535 0.0
C566 C 0.12575 0.89904 0.80913 0.0
C567 C 0.20235 0.90302 0.92343 0.0
C568 C 0.06054 0.94376 0.65302 0.0
C569 C 0.07898 0.93112 0.68812 0.0
C570 C 0.14795 0.94549 0.75922 0.0
C571 C 0.17349 0.8965 0.85856 0.0
C572 C 0.15501 0.90944 0.8201 0.0
C573 C 0.09908 0.94885 0.71061 0.0
C574 C 0.11848 0.93528 0.74833 0.0
H575 H 0.19077 0.82931 0.91613 0.0
H576 H 0.16494 0.85056 0.84957 0.0
H577 H 0.18849 0.94116 0.80255 0.0
H578 H 0.08382 0.0158 0.65125 0.0
H579 H 0.11497 0.9941 0.71375 0.0
loop_
_geom_bond_atom_site_label_1
_geom_bond_atom_site_label_2
_geom_bond_distance
_geom_bond_site_symmetry_2
_ccdc_geom_bond_type
H0 C7 0.929 . S
H1 C10 0.930 . S
H2 C12 0.929 . S
H3 C4 0.969 . S
C4 H3 0.969 . S
C4 O5 1.550 . S
C4 H6 0.973 . S
O5 C4 1.550 . S
O5 C11 1.412 . S
H6 C4 0.973 . S
C7 H0 0.929 . S
C7 C8 1.400 1_554 S
C7 C9 1.364 . S
C8 C7 1.400 1_556 S
C8 C12 1.377 . S
C9 C7 1.364 . S
C9 C10 1.374 . S
C10 H1 0.930 . S
C10 C9 1.374 . S
C10 C11 1.383 . S
C11 O5 1.412 . S
C11 C10 1.383 . S
C11 C12 1.394 1_554 S
C12 H2 0.929 . S
C12 C8 1.377 . S
C12 C11 1.394 1_556 S
H13 C20 0.929 . S
H14 C23 0.930 . S
H15 C25 0.929 . S
H16 C17 0.969 . S
C17 H16 0.969 . S
C17 O18 1.550 . S
C17 H19 0.973 . S
O18 C17 1.550 . S
O18 C24 1.412 . S
H19 C17 0.973 . S
C20 H13 0.929 . S
C20 C21 1.400 . S
C20 C22 1.364 . S
C21 C20 1.400 . S
C21 C25 1.377 . S
C22 C20 1.364 . S
C22 C23 1.374 . S
C23 H14 0.930 . S
C23 C22 1.374 . S
C23 C24 1.383 . S
C24 O18 1.412 . S
C24 C23 1.383 . S
C24 C25 1.394 . S
C25 H15 0.929 . S
C25 C21 1.377 . S
C25 C24 1.394 . S
H26 C33 0.929 . S
H27 C36 0.930 1_556 S
H28 C38 0.929 . S
H29 C30 0.969 . S
C30 H29 0.969 . S
C30 O31 1.550 . S
C30 H32 0.973 1_554 S
O31 C30 1.550 . S
O31 C37 1.412 . S
H32 C30 0.973 1_556 S
C33 H26 0.929 . S
C33 C34 1.400 . S
C33 C35 1.364 . S
C34 C33 1.400 . S
C34 C38 1.377 . S
C35 C33 1.364 . S
C35 C36 1.374 . S
C36 H27 0.930 1_554 S
C36 C35 1.374 . S
C36 C37 1.383 . S
C37 O31 1.412 . S
C37 C36 1.383 . S
C37 C38 1.394 . S
C38 H28 0.929 . S
C38 C34 1.377 . S
C38 C37 1.394 . S
H39 C46 0.929 . S
H40 C49 0.930 . S
H41 C51 0.929 . S
H42 C43 0.969 . S
C43 H42 0.969 . S
C43 O44 1.550 . S
C43 H45 0.973 . S
O44 C43 1.550 . S
O44 C50 1.412 . S
H45 C43 0.973 . S
C46 H39 0.929 . S
C46 C47 1.400 . S
C46 C48 1.364 . S
C47 C46 1.400 . S
C47 C51 1.377 . S
C48 C46 1.364 . S
C48 C49 1.374 . S
C49 H40 0.930 . S
C49 C48 1.374 . S
C49 C50 1.383 . S
C50 O44 1.412 . S
C50 C49 1.383 . S
C50 C51 1.394 . S
C51 H41 0.929 . S
C51 C47 1.377 . S
C51 C50 1.394 . S
Eu52 N81 2.600 . S
Eu52 N87 2.562 . S
Eu52 O96 2.462 . S
Eu52 O97 2.373 . S
Eu52 O99 2.432 . S
Eu52 O100 2.291 1_565 S
Eu52 O104 2.335 1_465 S
Eu52 O107 2.372 1_455 S
Eu52 C116 2.787 . S
C53 N54 1.365 . S
C53 C56 1.405 . S
C53 C60 1.448 . S
N54 C53 1.365 . S
N54 C57 1.319 1_655 S
N54 Eu63 2.600 . S
C55 C57 1.397 . S
C55 C58 1.367 1_455 S
C55 H75 0.931 . S
C56 C53 1.405 . S
C56 C58 1.403 . S
C56 C62 1.439 . S
C57 N54 1.319 1_455 S
C57 C55 1.397 . S
C57 H68 0.930 . S
C58 C55 1.367 1_655 S
C58 C56 1.403 . S
C58 H79 0.929 . S
C59 C60 1.430 . S
C59 C61 1.387 . S
C59 C65 1.404 . S
C60 C53 1.448 . S
C60 C59 1.430 . S
C60 N64 1.351 . S
C61 C59 1.387 . S
C61 C62 1.374 . S
C61 H76 0.931 . S
C62 C56 1.439 . S
C62 C61 1.374 . S
C62 H77 0.931 . S
Eu63 N54 2.600 . S
Eu63 N64 2.562 . S
Eu63 O98 2.335 1_655 S
Eu63 O101 2.372 1_655 S
Eu63 O102 2.462 . S
Eu63 O103 2.373 . S
Eu63 O105 2.432 . S
Eu63 O106 2.291 1_545 S
Eu63 C127 2.787 . S
N64 C60 1.351 . S
N64 Eu63 2.562 . S
N64 C66 1.325 . S
C65 C59 1.404 . S
C65 C67 1.366 . S
C65 H73 0.930 . S
C66 N64 1.325 . S
C66 C67 1.416 . S
C66 H72 0.929 . S
C67 C65 1.366 . S
C67 C66 1.416 . S
C67 H69 0.930 . S
H68 C57 0.930 . S
H69 C67 0.930 . S
H70 C85 0.930 1_655 S
H71 C92 0.930 . S
H72 C66 0.929 . S
H73 C65 0.930 . S
H74 C88 0.929 . S
H75 C55 0.931 . S
H76 C61 0.931 . S
H77 C62 0.931 . S
H78 C83 0.931 1_655 S
H79 C58 0.929 . S
H80 C91 0.930 . S
N81 Eu52 2.600 . S
N81 C82 1.365 . S
N81 C85 1.319 . S
C82 N81 1.365 . S
C82 C84 1.405 . S
C82 C90 1.448 . S
C83 H78 0.931 1_455 S
C83 C85 1.397 . S
C83 C86 1.367 . S
C84 C82 1.405 . S
C84 C86 1.403 . S
C84 C117 1.439 . S
C85 H70 0.930 1_455 S
C85 N81 1.319 . S
C85 C83 1.397 . S
C86 C83 1.367 . S
C86 C84 1.403 . S
C86 H93 0.929 . S
N87 Eu52 2.562 . S
N87 C88 1.325 . S
N87 C90 1.351 . S
C88 H74 0.929 . S
C88 N87 1.325 . S
C88 C92 1.416 . S
C89 C90 1.430 . S
C89 C91 1.404 . S
C89 C118 1.387 . S
C90 C82 1.448 . S
C90 N87 1.351 . S
C90 C89 1.430 . S
C91 H80 0.930 . S
C91 C89 1.404 . S
C91 C92 1.366 . S
C92 H71 0.930 . S
C92 C88 1.416 . S
C92 C91 1.366 . S
H93 C86 0.929 . S
H94 C117 0.931 . S
H95 C118 0.931 . S
O96 Eu52 2.462 . S
O96 C116 1.252 . S
O97 Eu52 2.373 . S
O97 C108 1.249 . S
O98 Eu63 2.335 1_455 S
O98 C108 1.264 1_545 S
O99 Eu52 2.432 . S
O99 C116 1.268 . S
O100 Eu52 2.291 1_545 S
O100 C115 1.255 . S
O101 Eu63 2.372 1_455 S
O101 C115 1.257 . S
O102 Eu63 2.462 . S
O102 C127 1.252 . S
O103 Eu63 2.373 . S
O103 C119 1.249 . S
O104 Eu52 2.335 1_645 S
O104 C119 1.264 . S
O105 Eu63 2.432 . S
O105 C127 1.268 . S
O106 Eu63 2.291 1_565 S
O106 C126 1.255 . S
O107 Eu52 2.372 1_655 S
O107 C126 1.257 . S
C108 O97 1.249 . S
C108 O98 1.264 1_565 S
C109 C112 1.382 . S
C109 C114 1.390 . S
C109 C116 1.506 . S
C110 C111 1.398 . S
C110 C114 1.392 . S
C111 C110 1.398 . S
C111 C113 1.372 . S
C111 H128 0.931 . S
C112 C109 1.382 . S
C112 C113 1.390 . S
C112 H129 0.931 . S
C113 C111 1.372 . S
C113 C112 1.390 . S
C113 H130 0.929 . S
C114 C109 1.390 . S
C114 C110 1.392 . S
C114 H131 0.930 . S
C115 O100 1.255 . S
C115 O101 1.257 . S
C116 Eu52 2.787 . S
C116 O96 1.252 . S
C116 O99 1.268 . S
C116 C109 1.506 . S
C117 C84 1.439 . S
C117 H94 0.931 . S
C117 C118 1.374 . S
C118 C89 1.387 . S
C118 H95 0.931 . S
C118 C117 1.374 . S
C119 O103 1.249 . S
C119 O104 1.264 . S
C120 C123 1.382 . S
C120 C124 1.390 . S
C120 C127 1.506 . S
C121 C122 1.398 . S
C121 C124 1.392 . S
C122 C121 1.398 . S
C122 C125 1.372 . S
C122 H132 0.931 . S
C123 C120 1.382 . S
C123 C125 1.390 . S
C123 H133 0.931 . S
C124 C120 1.390 . S
C124 C121 1.392 . S
C124 H134 0.930 . S
C125 C122 1.372 . S
C125 C123 1.390 . S
C125 H135 0.929 . S
C126 O106 1.255 . S
C126 O107 1.257 . S
C127 Eu63 2.787 . S
C127 O102 1.252 . S
C127 O105 1.268 . S
C127 C120 1.506 . S
H128 C111 0.931 . S
H129 C112 0.931 . S
H130 C113 0.929 . S
H131 C114 0.930 . S
H132 C122 0.931 . S
H133 C123 0.931 . S
H134 C124 0.930 . S
H135 C125 0.929 . S
Eu136 N165 2.600 . S
Eu136 N171 2.562 1_556 S
Eu136 O180 2.462 . S
Eu136 O181 2.373 1_556 S
Eu136 O183 2.432 . S
Eu136 O184 2.291 1_556 S
Eu136 O188 2.335 . S
Eu136 O191 2.372 . S
Eu136 C200 2.787 . S
C137 N138 1.365 . S
C137 C140 1.405 . S
C137 C144 1.448 . S
N138 C137 1.365 . S
N138 C141 1.319 . S
N138 Eu147 2.600 . S
C139 C141 1.397 . S
C139 C142 1.367 . S
C139 H159 0.931 . S
C140 C137 1.405 . S
C140 C142 1.403 . S
C140 C146 1.439 . S
C141 N138 1.319 . S
C141 C139 1.397 . S
C141 H152 0.930 . S
C142 C139 1.367 . S
C142 C140 1.403 . S
C142 H163 0.929 . S
C143 C144 1.430 . S
C143 C145 1.387 . S
C143 C149 1.404 . S
C144 C137 1.448 . S
C144 C143 1.430 . S
C144 N148 1.351 . S
C145 C143 1.387 . S
C145 C146 1.374 . S
C145 H160 0.931 . S
C146 C140 1.439 . S
C146 C145 1.374 . S
C146 H161 0.931 . S
Eu147 N138 2.600 . S
Eu147 N148 2.562 . S
Eu147 O182 2.335 . S
Eu147 O185 2.372 . S
Eu147 O186 2.462 . S
Eu147 O187 2.373 1_554 S
Eu147 O189 2.432 . S
Eu147 O190 2.291 . S
Eu147 C211 2.787 . S
N148 C144 1.351 . S
N148 Eu147 2.562 . S
N148 C150 1.325 . S
C149 C143 1.404 . S
C149 C151 1.366 . S
C149 H157 0.930 . S
C150 N148 1.325 . S
C150 C151 1.416 . S
C150 H156 0.929 . S
C151 C149 1.366 . S
C151 C150 1.416 . S
C151 H153 0.930 . S
H152 C141 0.930 . S
H153 C151 0.930 . S
H154 C169 0.930 . S
H155 C176 0.930 . S
H156 C150 0.929 . S
H157 C149 0.930 . S
H158 C172 0.929 . S
H159 C139 0.931 . S
H160 C145 0.931 . S
H161 C146 0.931 . S
H162 C167 0.931 . S
H163 C142 0.929 . S
H164 C175 0.930 . S
N165 Eu136 2.600 . S
N165 C166 1.365 1_556 S
N165 C169 1.319 . S
C166 N165 1.365 1_554 S
C166 C168 1.405 . S
C166 C174 1.448 . S
C167 H162 0.931 . S
C167 C169 1.397 . S
C167 C170 1.367 1_556 S
C168 C166 1.405 . S
C168 C170 1.403 . S
C168 C201 1.439 . S
C169 H154 0.930 . S
C169 N165 1.319 . S
C169 C167 1.397 . S
C170 C167 1.367 1_554 S
C170 C168 1.403 . S
C170 H177 0.929 . S
N171 Eu136 2.562 1_554 S
N171 C172 1.325 . S
N171 C174 1.351 . S
C172 H158 0.929 . S
C172 N171 1.325 . S
C172 C176 1.416 . S
C173 C174 1.430 . S
C173 C175 1.404 . S
C173 C202 1.387 . S
C174 C166 1.448 . S
C174 N171 1.351 . S
C174 C173 1.430 . S
C175 H164 0.930 . S
C175 C173 1.404 . S
C175 C176 1.366 . S
C176 H155 0.930 . S
C176 C172 1.416 . S
C176 C175 1.366 . S
H177 C170 0.929 . S
H178 C201 0.931 . S
H179 C202 0.931 . S
O180 Eu136 2.462 . S
O180 C200 1.252 . S
O181 Eu136 2.373 1_554 S
O181 C192 1.249 . S
O182 Eu147 2.335 . S
O182 C192 1.264 . S
O183 Eu136 2.432 . S
O183 C200 1.268 . S
O184 Eu136 2.291 1_554 S
O184 C199 1.255 . S
O185 Eu147 2.372 . S
O185 C199 1.257 . S
O186 Eu147 2.462 . S
O186 C211 1.252 . S
O187 Eu147 2.373 1_556 S
O187 C203 1.249 . S
O188 Eu136 2.335 . S
O188 C203 1.264 . S
O189 Eu147 2.432 . S
O189 C211 1.268 . S
O190 Eu147 2.291 . S
O190 C210 1.255 . S
O191 Eu136 2.372 . S
O191 C210 1.257 1_556 S
C192 O181 1.249 . S
C192 O182 1.264 . S
C193 C196 1.382 . S
C193 C198 1.390 . S
C193 C200 1.506 . S
C194 C195 1.398 . S
C194 C198 1.392 . S
C195 C194 1.398 . S
C195 C197 1.372 . S
C195 H212 0.931 . S
C196 C193 1.382 . S
C196 C197 1.390 . S
C196 H213 0.931 . S
C197 C195 1.372 . S
C197 C196 1.390 . S
C197 H214 0.929 . S
C198 C193 1.390 . S
C198 C194 1.392 . S
C198 H215 0.930 . S
C199 O184 1.255 . S
C199 O185 1.257 . S
C200 Eu136 2.787 . S
C200 O180 1.252 . S
C200 O183 1.268 . S
C200 C193 1.506 . S
C201 C168 1.439 . S
C201 H178 0.931 . S
C201 C202 1.374 . S
C202 C173 1.387 . S
C202 H179 0.931 . S
C202 C201 1.374 . S
C203 O187 1.249 . S
C203 O188 1.264 . S
C204 C207 1.382 . S
C204 C208 1.390 . S
C204 C211 1.506 . S
C205 C206 1.398 . S
C205 C208 1.392 . S
C206 C205 1.398 . S
C206 C209 1.372 . S
C206 H216 0.931 . S
C207 C204 1.382 . S
C207 C209 1.390 . S
C207 H217 0.931 . S
C208 C204 1.390 . S
C208 C205 1.392 . S
C208 H218 0.930 . S
C209 C206 1.372 . S
C209 C207 1.390 . S
C209 H219 0.929 . S
C210 O190 1.255 . S
C210 O191 1.257 1_554 S
C211 Eu147 2.787 . S
C211 O186 1.252 . S
C211 O189 1.268 . S
C211 C204 1.506 . S
H212 C195 0.931 . S
H213 C196 0.931 . S
H214 C197 0.929 . S
H215 C198 0.930 . S
H216 C206 0.931 . S
H217 C207 0.931 . S
H218 C208 0.930 . S
H219 C209 0.929 . S
C220 C221 1.349 . S
C220 C222 1.327 . S
C220 H245 0.950 . S
C221 C220 1.349 . S
C221 C237 1.349 . S
C222 C220 1.327 . S
C222 C241 1.429 . S
C222 H246 0.950 . S
C223 C240 1.574 . S
C223 C242 1.368 . S
C223 H247 0.949 . S
H224 C228 0.949 . S
C225 C226 1.349 . S
C225 C227 1.327 . S
C225 H248 0.950 . S
C226 C225 1.349 . S
C226 C238 1.349 . S
C227 C225 1.327 . S
C227 C243 1.429 . S
C227 H249 0.950 . S
C228 H224 0.949 . S
C228 C236 1.574 . S
C228 C244 1.368 . S
H229 C237 0.950 . S
H230 C235 0.950 . S
H231 C236 0.949 . S
H232 C238 0.950 . S
H233 C239 0.950 . S
H234 C240 0.949 . S
C235 H230 0.950 . S
C235 C237 1.327 . S
C235 C241 1.429 . S
C236 C228 1.574 . S
C236 H231 0.949 . S
C236 C242 1.368 . S
C237 C221 1.349 . S
C237 H229 0.950 . S
C237 C235 1.327 . S
C238 C226 1.349 . S
C238 H232 0.950 . S
C238 C239 1.327 . S
C239 H233 0.950 . S
C239 C238 1.327 . S
C239 C243 1.429 . S
C240 C223 1.574 . S
C240 H234 0.949 . S
C240 C244 1.368 . S
C241 C222 1.429 . S
C241 C235 1.429 . S
C241 C242 1.523 . S
C242 C223 1.368 . S
C242 C236 1.368 . S
C242 C241 1.523 . S
C243 C227 1.429 . S
C243 C239 1.429 . S
C243 C244 1.523 . S
C244 C228 1.368 . S
C244 C240 1.368 . S
C244 C243 1.523 . S
H245 C220 0.950 . S
H246 C222 0.950 . S
H247 C223 0.949 . S
H248 C225 0.950 . S
H249 C227 0.950 . S
C250 C251 1.349 . S
C250 C252 1.327 . S
C250 H275 0.950 . S
C251 C250 1.349 . S
C251 C267 1.349 . S
C252 C250 1.327 . S
C252 C271 1.429 . S
C252 H276 0.950 . S
C253 C270 1.574 . S
C253 C272 1.368 . S
C253 H277 0.949 1_554 S
H254 C258 0.949 . S
C255 C256 1.349 . S
C255 C257 1.327 . S
C255 H278 0.950 1_554 S
C256 C255 1.349 . S
C256 C268 1.349 . S
C257 C255 1.327 . S
C257 C273 1.429 . S
C257 H279 0.950 1_554 S
C258 H254 0.949 . S
C258 C266 1.574 . S
C258 C274 1.368 . S
H259 C267 0.950 1_556 S
H260 C265 0.950 1_556 S
H261 C266 0.949 . S
H262 C268 0.950 . S
H263 C269 0.950 . S
H264 C270 0.949 1_556 S
C265 H260 0.950 1_554 S
C265 C267 1.327 . S
C265 C271 1.429 . S
C266 C258 1.574 . S
C266 H261 0.949 . S
C266 C272 1.368 . S
C267 C251 1.349 . S
C267 H259 0.950 1_554 S
C267 C265 1.327 . S
C268 C256 1.349 . S
C268 H262 0.950 . S
C268 C269 1.327 . S
C269 H263 0.950 . S
C269 C268 1.327 . S
C269 C273 1.429 . S
C270 C253 1.574 . S
C270 H264 0.949 1_554 S
C270 C274 1.368 . S
C271 C252 1.429 . S
C271 C265 1.429 . S
C271 C272 1.523 . S
C272 C253 1.368 . S
C272 C266 1.368 . S
C272 C271 1.523 . S
C273 C257 1.429 . S
C273 C269 1.429 . S
C273 C274 1.523 . S
C274 C258 1.368 . S
C274 C270 1.368 . S
C274 C273 1.523 . S
H275 C250 0.950 . S
H276 C252 0.950 . S
H277 C253 0.949 1_556 S
H278 C255 0.950 1_556 S
H279 C257 0.950 1_556 S
C280 C281 1.349 . S
C280 C282 1.327 . S
C280 H305 0.950 . S
C281 C280 1.349 . S
C281 C297 1.349 . S
C282 C280 1.327 . S
C282 C301 1.429 . S
C282 H306 0.950 . S
C283 C300 1.574 . S
C283 C302 1.368 . S
C283 H307 0.949 . S
H284 C288 0.949 . S
C285 C286 1.349 . S
C285 C287 1.327 . S
C285 H308 0.950 . S
C286 C285 1.349 . S
C286 C298 1.349 . S
C287 C285 1.327 . S
C287 C303 1.429 . S
C287 H309 0.950 . S
C288 H284 0.949 . S
C288 C296 1.574 . S
C288 C304 1.368 . S
H289 C297 0.950 . S
H290 C295 0.950 . S
H291 C296 0.949 . S
H292 C298 0.950 . S
H293 C299 0.950 . S
H294 C300 0.949 . S
C295 H290 0.950 . S
C295 C297 1.327 . S
C295 C301 1.429 . S
C296 C288 1.574 . S
C296 H291 0.949 . S
C296 C302 1.368 . S
C297 C281 1.349 . S
C297 H289 0.950 . S
C297 C295 1.327 . S
C298 C286 1.349 . S
C298 H292 0.950 . S
C298 C299 1.327 . S
C299 H293 0.950 . S
C299 C298 1.327 . S
C299 C303 1.429 . S
C300 C283 1.574 . S
C300 H294 0.949 . S
C300 C304 1.368 . S
C301 C282 1.429 . S
C301 C295 1.429 . S
C301 C302 1.523 . S
C302 C283 1.368 . S
C302 C296 1.368 . S
C302 C301 1.523 . S
C303 C287 1.429 . S
C303 C299 1.429 . S
C303 C304 1.523 . S
C304 C288 1.368 . S
C304 C300 1.368 . S
C304 C303 1.523 . S
H305 C280 0.950 . S
H306 C282 0.950 . S
H307 C283 0.949 . S
H308 C285 0.950 . S
H309 C287 0.950 . S
C310 C311 1.349 1_556 S
C310 C312 1.327 . S
C310 H335 0.950 . S
C311 C310 1.349 1_554 S
C311 C327 1.349 . S
C312 C310 1.327 . S
C312 C331 1.429 1_556 S
C312 H336 0.950 . S
C313 C330 1.574 . S
C313 C332 1.368 . S
C313 H337 0.949 . S
H314 C318 0.949 . S
C315 C316 1.349 . S
C315 C317 1.327 . S
C315 H338 0.950 . S
C316 C315 1.349 . S
C316 C328 1.349 1_554 S
C317 C315 1.327 . S
C317 C333 1.429 . S
C317 H339 0.950 . S
C318 H314 0.949 . S
C318 C326 1.574 . S
C318 C334 1.368 1_556 S
H319 C327 0.950 . S
H320 C325 0.950 . S
H321 C326 0.949 . S
H322 C328 0.950 . S
H323 C329 0.950 . S
H324 C330 0.949 . S
C325 H320 0.950 . S
C325 C327 1.327 . S
C325 C331 1.429 . S
C326 C318 1.574 . S
C326 H321 0.949 . S
C326 C332 1.368 1_556 S
C327 C311 1.349 . S
C327 H319 0.950 . S
C327 C325 1.327 . S
C328 C316 1.349 1_556 S
C328 H322 0.950 . S
C328 C329 1.327 . S
C329 H323 0.950 . S
C329 C328 1.327 . S
C329 C333 1.429 1_556 S
C330 C313 1.574 . S
C330 H324 0.949 . S
C330 C334 1.368 . S
C331 C312 1.429 1_554 S
C331 C325 1.429 . S
C331 C332 1.523 . S
C332 C313 1.368 . S
C332 C326 1.368 1_554 S
C332 C331 1.523 . S
C333 C317 1.429 . S
C333 C329 1.429 1_554 S
C333 C334 1.523 . S
C334 C318 1.368 1_554 S
C334 C330 1.368 . S
C334 C333 1.523 . S
H335 C310 0.950 . S
H336 C312 0.950 . S
H337 C313 0.949 . S
H338 C315 0.950 . S
H339 C317 0.950 . S
C340 C341 1.349 . S
C340 C342 1.327 . S
C340 H365 0.950 . S
C341 C340 1.349 . S
C341 C357 1.349 . S
C342 C340 1.327 . S
C342 C361 1.429 . S
C342 H366 0.950 . S
C343 C360 1.574 . S
C343 C362 1.368 . S
C343 H367 0.949 . S
H344 C348 0.949 . S
C345 C346 1.349 . S
C345 C347 1.327 . S
C345 H368 0.950 . S
C346 C345 1.349 . S
C346 C358 1.349 . S
C347 C345 1.327 . S
C347 C363 1.429 . S
C347 H369 0.950 . S
C348 H344 0.949 . S
C348 C356 1.574 . S
C348 C364 1.368 . S
H349 C357 0.950 . S
H350 C355 0.950 . S
H351 C356 0.949 . S
H352 C358 0.950 . S
H353 C359 0.950 . S
H354 C360 0.949 . S
C355 H350 0.950 . S
C355 C357 1.327 . S
C355 C361 1.429 . S
C356 C348 1.574 . S
C356 H351 0.949 . S
C356 C362 1.368 . S
C357 C341 1.349 . S
C357 H349 0.950 . S
C357 C355 1.327 . S
C358 C346 1.349 . S
C358 H352 0.950 . S
C358 C359 1.327 . S
C359 H353 0.950 . S
C359 C358 1.327 . S
C359 C363 1.429 . S
C360 C343 1.574 . S
C360 H354 0.949 . S
C360 C364 1.368 . S
C361 C342 1.429 . S
C361 C355 1.429 . S
C361 C362 1.523 . S
C362 C343 1.368 . S
C362 C356 1.368 . S
C362 C361 1.523 . S
C363 C347 1.429 . S
C363 C359 1.429 . S
C363 C364 1.523 . S
C364 C348 1.368 . S
C364 C360 1.368 . S
C364 C363 1.523 . S
H365 C340 0.950 . S
H366 C342 0.950 . S
H367 C343 0.949 . S
H368 C345 0.950 . S
H369 C347 0.950 . S
C370 C371 1.349 . S
C370 C372 1.327 . S
C370 H395 0.950 . S
C371 C370 1.349 . S
C371 C387 1.349 . S
C372 C370 1.327 . S
C372 C391 1.429 . S
C372 H396 0.950 . S
C373 C390 1.574 . S
C373 C392 1.368 . S
C373 H397 0.949 . S
H374 C378 0.949 . S
C375 C376 1.349 . S
C375 C377 1.327 . S
C375 H398 0.950 . S
C376 C375 1.349 . S
C376 C388 1.349 . S
C377 C375 1.327 . S
C377 C393 1.429 . S
C377 H399 0.950 . S
C378 H374 0.949 . S
C378 C386 1.574 . S
C378 C394 1.368 . S
H379 C387 0.950 . S
H380 C385 0.950 . S
H381 C386 0.949 . S
H382 C388 0.950 . S
H383 C389 0.950 . S
H384 C390 0.949 . S
C385 H380 0.950 . S
C385 C387 1.327 . S
C385 C391 1.429 . S
C386 C378 1.574 . S
C386 H381 0.949 . S
C386 C392 1.368 . S
C387 C371 1.349 . S
C387 H379 0.950 . S
C387 C385 1.327 . S
C388 C376 1.349 . S
C388 H382 0.950 . S
C388 C389 1.327 . S
C389 H383 0.950 . S
C389 C388 1.327 . S
C389 C393 1.429 . S
C390 C373 1.574 . S
C390 H384 0.949 . S
C390 C394 1.368 . S
C391 C372 1.429 . S
C391 C385 1.429 . S
C391 C392 1.523 . S
C392 C373 1.368 . S
C392 C386 1.368 . S
C392 C391 1.523 . S
C393 C377 1.429 . S
C393 C389 1.429 . S
C393 C394 1.523 . S
C394 C378 1.368 . S
C394 C390 1.368 . S
C394 C393 1.523 . S
H395 C370 0.950 . S
H396 C372 0.950 . S
H397 C373 0.949 . S
H398 C375 0.950 . S
H399 C377 0.950 . S
C400 C401 1.349 . S
C400 C402 1.327 . S
C400 H425 0.950 . S
C401 C400 1.349 . S
C401 C417 1.349 . S
C402 C400 1.327 . S
C402 C421 1.429 . S
C402 H426 0.950 . S
C403 C420 1.574 . S
C403 C422 1.368 . S
C403 H427 0.949 . S
H404 C408 0.949 . S
C405 C406 1.349 . S
C405 C407 1.327 . S
C405 H428 0.931 1_545 S
C406 C405 1.349 . S
C406 C418 1.349 . S
C407 C405 1.327 . S
C407 C423 1.429 . S
C407 H429 0.950 . S
C408 H404 0.949 . S
C408 C416 1.574 . S
C408 C424 1.368 . S
H409 C417 0.950 . S
H410 C415 0.950 . S
H411 C416 0.949 . S
H412 C418 0.950 . S
H413 C419 0.950 . S
H414 C420 0.949 . S
C415 H410 0.950 . S
C415 C417 1.327 . S
C415 C421 1.429 . S
C416 C408 1.574 . S
C416 H411 0.949 . S
C416 C422 1.368 . S
C417 C401 1.349 . S
C417 H409 0.950 . S
C417 C415 1.327 . S
C418 C406 1.349 . S
C418 H412 0.950 . S
C418 C419 1.327 . S
C419 H413 0.950 . S
C419 C418 1.327 . S
C419 C423 1.429 . S
C420 C403 1.574 . S
C420 H414 0.949 . S
C420 C424 1.368 . S
C421 C402 1.429 . S
C421 C415 1.429 . S
C421 C422 1.523 . S
C422 C403 1.368 . S
C422 C416 1.368 . S
C422 C421 1.523 . S
C423 C407 1.429 . S
C423 C419 1.429 . S
C423 C424 1.523 . S
C424 C408 1.368 . S
C424 C420 1.368 . S
C424 C423 1.523 . S
H425 C400 0.950 . S
H426 C402 0.950 . S
H427 C403 0.949 . S
H428 C405 0.931 1_565 S
H429 C407 0.950 . S
C430 C431 1.349 . S
C430 C432 1.327 . S
C430 H455 0.950 . S
C431 C430 1.349 . S
C431 C447 1.349 . S
C432 C430 1.327 . S
C432 C451 1.429 . S
C432 H456 0.950 . S
C433 C450 1.574 . S
C433 C452 1.368 . S
C433 H457 0.949 . S
H434 C438 0.949 . S
C435 C436 1.349 . S
C435 C437 1.327 . S
C435 H458 0.950 . S
C436 C435 1.349 . S
C436 C448 1.349 . S
C437 C435 1.327 . S
C437 C453 1.429 . S
C437 H459 0.950 . S
C438 H434 0.949 . S
C438 C446 1.574 . S
C438 C454 1.368 . S
H439 C447 0.950 . S
H440 C445 0.950 . S
H441 C446 0.949 . S
H442 C448 0.950 . S
H443 C449 0.950 . S
H444 C450 0.949 . S
C445 H440 0.950 . S
C445 C447 1.327 . S
C445 C451 1.429 . S
C446 C438 1.574 . S
C446 H441 0.949 . S
C446 C452 1.368 . S
C447 C431 1.349 . S
C447 H439 0.950 . S
C447 C445 1.327 . S
C448 C436 1.349 . S
C448 H442 0.950 . S
C448 C449 1.327 . S
C449 H443 0.950 . S
C449 C448 1.327 . S
C449 C453 1.429 . S
C450 C433 1.574 . S
C450 H444 0.949 . S
C450 C454 1.368 . S
C451 C432 1.429 . S
C451 C445 1.429 . S
C451 C452 1.523 . S
C452 C433 1.368 . S
C452 C446 1.368 . S
C452 C451 1.523 . S
C453 C437 1.429 . S
C453 C449 1.429 . S
C453 C454 1.523 . S
C454 C438 1.368 . S
C454 C450 1.368 . S
C454 C453 1.523 . S
H455 C430 0.950 . S
H456 C432 0.950 . S
H457 C433 0.949 . S
H458 C435 0.950 . S
H459 C437 0.950 . S
C460 C461 1.349 . S
C460 C462 1.327 . S
C460 H485 0.950 . S
C461 C460 1.349 . S
C461 C477 1.349 . S
C462 C460 1.327 . S
C462 C481 1.429 . S
C462 H486 0.950 . S
C463 C480 1.574 . S
C463 C482 1.368 . S
C463 H487 0.949 . S
H464 C468 0.949 . S
C465 C466 1.349 . S
C465 C467 1.327 . S
C465 H488 0.950 . S
C466 C465 1.349 . S
C466 C478 1.349 . S
C467 C465 1.327 . S
C467 C483 1.429 . S
C467 H489 0.950 . S
C468 H464 0.949 . S
C468 C476 1.574 . S
C468 C484 1.368 . S
H469 C477 0.950 . S
H470 C475 0.950 . S
H471 C476 0.949 . S
H472 C478 0.950 . S
H473 C479 0.950 . S
H474 C480 0.949 . S
C475 H470 0.950 . S
C475 C477 1.327 . S
C475 C481 1.429 . S
C476 C468 1.574 . S
C476 H471 0.949 . S
C476 C482 1.368 . S
C477 C461 1.349 . S
C477 H469 0.950 . S
C477 C475 1.327 . S
C478 C466 1.349 . S
C478 H472 0.950 . S
C478 C479 1.327 . S
C479 H473 0.950 . S
C479 C478 1.327 . S
C479 C483 1.429 . S
C480 C463 1.574 . S
C480 H474 0.949 . S
C480 C484 1.368 . S
C481 C462 1.429 . S
C481 C475 1.429 . S
C481 C482 1.523 . S
C482 C463 1.368 . S
C482 C476 1.368 . S
C482 C481 1.523 . S
C483 C467 1.429 . S
C483 C479 1.429 . S
C483 C484 1.523 . S
C484 C468 1.368 . S
C484 C480 1.368 . S
C484 C483 1.523 . S
H485 C460 0.950 . S
H486 C462 0.950 . S
H487 C463 0.949 . S
H488 C465 0.950 . S
H489 C467 0.950 . S
C490 C491 1.349 . S
C490 C492 1.327 . S
C490 H515 0.950 . S
C491 C490 1.349 . S
C491 C507 1.349 . S
C492 C490 1.327 . S
C492 C511 1.429 . S
C492 H516 0.950 . S
C493 C510 1.574 . S
C493 C512 1.368 . S
C493 H517 0.949 . S
H494 C498 0.949 . S
C495 C496 1.349 . S
C495 C497 1.327 . S
C495 H518 0.950 . S
C496 C495 1.349 . S
C496 C508 1.349 . S
C497 C495 1.327 . S
C497 C513 1.429 . S
C497 H519 0.950 . S
C498 H494 0.949 . S
C498 C506 1.574 . S
C498 C514 1.368 . S
H499 C507 0.950 . S
H500 C505 0.950 . S
H501 C506 0.949 . S
H502 C508 0.950 . S
H503 C509 0.950 . S
H504 C510 0.949 . S
C505 H500 0.950 . S
C505 C507 1.327 . S
C505 C511 1.429 . S
C506 C498 1.574 . S
C506 H501 0.949 . S
C506 C512 1.368 . S
C507 C491 1.349 . S
C507 H499 0.950 . S
C507 C505 1.327 . S
C508 C496 1.349 . S
C508 H502 0.950 . S
C508 C509 1.327 . S
C509 H503 0.950 . S
C509 C508 1.327 . S
C509 C513 1.429 . S
C510 C493 1.574 . S
C510 H504 0.949 . S
C510 C514 1.368 . S
C511 C492 1.429 . S
C511 C505 1.429 . S
C511 C512 1.523 . S
C512 C493 1.368 . S
C512 C506 1.368 . S
C512 C511 1.523 . S
C513 C497 1.429 . S
C513 C509 1.429 . S
C513 C514 1.523 . S
C514 C498 1.368 . S
C514 C510 1.368 . S
C514 C513 1.523 . S
H515 C490 0.950 . S
H516 C492 0.950 . S
H517 C493 0.949 . S
H518 C495 0.950 . S
H519 C497 0.950 . S
C520 C521 1.349 . S
C520 C522 1.327 . S
C520 H545 0.950 . S
C521 C520 1.349 . S
C521 C537 1.349 . S
C522 C520 1.327 . S
C522 C541 1.429 . S
C522 H546 0.950 . S
C523 C540 1.574 . S
C523 C542 1.368 . S
C523 H547 0.949 . S
H524 C528 0.949 . S
C525 C526 1.349 . S
C525 C527 1.327 . S
C525 H548 0.950 . S
C526 C525 1.349 . S
C526 C538 1.349 . S
C527 C525 1.327 . S
C527 C543 1.429 . S
C527 H549 0.950 . S
C528 H524 0.949 . S
C528 C536 1.574 . S
C528 C544 1.368 . S
H529 C537 0.950 . S
H530 C535 0.950 . S
H531 C536 0.949 . S
H532 C538 0.950 . S
H533 C539 0.950 . S
H534 C540 0.949 . S
C535 H530 0.950 . S
C535 C537 1.327 . S
C535 C541 1.429 . S
C536 C528 1.574 . S
C536 H531 0.949 . S
C536 C542 1.368 . S
C537 C521 1.349 . S
C537 H529 0.950 . S
C537 C535 1.327 . S
C538 C526 1.349 . S
C538 H532 0.950 . S
C538 C539 1.327 . S
C539 H533 0.950 . S
C539 C538 1.327 . S
C539 C543 1.429 . S
C540 C523 1.574 . S
C540 H534 0.949 . S
C540 C544 1.368 . S
C541 C522 1.429 . S
C541 C535 1.429 . S
C541 C542 1.523 . S
C542 C523 1.368 . S
C542 C536 1.368 . S
C542 C541 1.523 . S
C543 C527 1.429 . S
C543 C539 1.429 . S
C543 C544 1.523 . S
C544 C528 1.368 . S
C544 C540 1.368 . S
C544 C543 1.523 . S
H545 C520 0.950 . S
H546 C522 0.950 . S
H547 C523 0.949 . S
H548 C525 0.950 . S
H549 C527 0.950 . S
C550 C551 1.349 . S
C550 C552 1.327 . S
C550 H575 0.950 . S
C551 C550 1.349 . S
C551 C567 1.349 . S
C552 C550 1.327 . S
C552 C571 1.429 . S
C552 H576 0.950 . S
C553 C570 1.574 . S
C553 C572 1.368 . S
C553 H577 0.949 . S
H554 C558 0.949 . S
C555 C556 1.349 . S
C555 C557 1.327 . S
C555 H578 0.950 1_565 S
C556 C555 1.349 . S
C556 C568 1.349 . S
C557 C555 1.327 . S
C557 C573 1.429 . S
C557 H579 0.950 . S
C558 H554 0.949 . S
C558 C566 1.574 . S
C558 C574 1.368 . S
H559 C567 0.950 . S
H560 C565 0.950 . S
H561 C566 0.949 . S
H562 C568 0.950 . S
H563 C569 0.950 . S
H564 C570 0.949 . S
C565 H560 0.950 . S
C565 C567 1.327 . S
C565 C571 1.429 . S
C566 C558 1.574 . S
C566 H561 0.949 . S
C566 C572 1.368 . S
C567 C551 1.349 . S
C567 H559 0.950 . S
C567 C565 1.327 . S
C568 C556 1.349 . S
C568 H562 0.950 . S
C568 C569 1.327 . S
C569 H563 0.950 . S
C569 C568 1.327 . S
C569 C573 1.429 . S
C570 C553 1.574 . S
C570 H564 0.949 . S
C570 C574 1.368 . S
C571 C552 1.429 . S
C571 C565 1.429 . S
C571 C572 1.523 . S
C572 C553 1.368 . S
C572 C566 1.368 . S
C572 C571 1.523 . S
C573 C557 1.429 . S
C573 C569 1.429 . S
C573 C574 1.523 . S
C574 C558 1.368 . S
C574 C570 1.368 . S
C574 C573 1.523 . S
H575 C550 0.950 . S
H576 C552 0.950 . S
H577 C553 0.949 . S
H578 C555 0.950 1_545 S
H579 C557 0.950 . S
C226 C115 1.681 . S
C221 C43 1.600 . S
C251 C4 1.629 . S
C256 C210 1.665 . S
C281 C17 1.630 . S
C286 C126 1.681 . S
C311 C30 1.668 . S
C316 C199 1.665 . S
C346 C110 1.433 . S
C341 C9 1.597 . S
C376 C203 1.692 . S
C371 C21 1.690 . S
C401 C34 1.633 . S
C406 C119 1.636 . S
C431 C48 1.595 . S
C436 C194 1.426 . S
C466 C205 1.426 . S
C461 C22 1.596 . S
C496 C121 1.433 . S
C491 C35 1.598 1_556 S
C526 C192 1.692 . S
C521 C47 1.687 . S
C551 C8 1.629 . S
C556 C108 1.636 . S
