# Generated by pormake.
# Topology tsx, (6,3)-cn, num edge types: 1
# Building blocks:
#     Node 0, Type 0, BuildingBlock: CIFDUS_clean_sbu_1, # of connection points: 6
#     Node 1, Type 0, BuildingBlock: CIFDUS_clean_sbu_1, # of connection points: 6
#     Node 2, Type 1, BuildingBlock: BETDIP_clean_linker_0, # of connection points: 3
#     Node 3, Type 1, BuildingBlock: BETDIP_clean_linker_0, # of connection points: 3
#     Node 4, Type 1, BuildingBlock: BETDIP_clean_linker_0, # of connection points: 3
#     Node 5, Type 1, BuildingBlock: BETDIP_clean_linker_0, # of connection points: 3
#     Edge 6, Type (0, 1), BuildingBlock: MIFKUJ_clean_linker_0, # of connection points: 2
#     Edge 7, Type (0, 1), BuildingBlock: MIFKUJ_clean_linker_0, # of connection points: 2
#     Edge 8, Type (0, 1), BuildingBlock: MIFKUJ_clean_linker_0, # of connection points: 2
#     Edge 9, Type (0, 1), BuildingBlock: MIFKUJ_clean_linker_0, # of connection points: 2
#     Edge 10, Type (0, 1), BuildingBlock: MIFKUJ_clean_linker_0, # of connection points: 2
#     Edge 11, Type (0, 1), BuildingBlock: MIFKUJ_clean_linker_0, # of connection points: 2
#     Edge 12, Type (0, 1), BuildingBlock: MIFKUJ_clean_linker_0, # of connection points: 2
#     Edge 13, Type (0, 1), BuildingBlock: MIFKUJ_clean_linker_0, # of connection points: 2
#     Edge 14, Type (0, 1), BuildingBlock: MIFKUJ_clean_linker_0, # of connection points: 2
#     Edge 15, Type (0, 1), BuildingBlock: MIFKUJ_clean_linker_0, # of connection points: 2
#     Edge 16, Type (0, 1), BuildingBlock: MIFKUJ_clean_linker_0, # of connection points: 2
#     Edge 17, Type (0, 1), BuildingBlock: MIFKUJ_clean_linker_0, # of connection points: 2
# Relax obj value: 0.094
# Max RMSD: 0.150
# Mean RMSD: 0.112
data_MOF--net-tsx--node1-CIFDUS_clean_sbu_1--node2-BETDIP_clean_linker_0--edge1-MIFKUJ_clean_linker_0
_symmetry_space_group_name_H-M    P1
_symmetry_Int_Tables_number       1
_symmetry_cell_setting            triclinic
loop_
_symmetry_equiv_pos_as_xyz
'x, y, z'
_cell_length_a     24.130739
_cell_length_b     29.64473
_cell_length_c     44.158007
_cell_angle_alpha  96.800225
_cell_angle_beta   101.47773
_cell_angle_gamma 91.003818
loop_
_atom_site_label
_atom_site_type_symbol
_atom_site_fract_x
_atom_site_fract_y
_atom_site_fract_z
_atom_type_partial_charge
O0 O 1.00036 0.09023 0.01343 0.0
Mn1 Mn 0.04386 0.02976 0.00654 0.0
O2 O 0.90755 0.07175 0.9974 0.0
Mn3 Mn 0.91824 0.01715 0.97503 0.0
O4 O 0.08676 0.96911 0.99919 0.0
O5 O 0.11631 0.06957 0.01406 0.0
Mn6 Mn 0.16872 0.04121 0.03791 0.0
O7 O 0.05347 0.02422 0.05429 0.0
O8 O 0.17947 0.98666 0.01571 0.0
O9 O 0.03408 0.03513 0.95881 0.0
O10 O 0.94175 0.02078 0.9379 0.0
O11 O 0.20506 0.09272 0.03171 0.0
O12 O 0.14579 0.03808 0.07515 0.0
C13 C 0.93371 0.95821 0.99812 0.0
C14 C 0.9479 0.09998 0.01057 0.0
C15 C 0.13901 0.95889 0.00208 0.0
C16 C 0.15601 0.10057 0.01558 0.0
C17 C 0.09518 0.02949 0.07782 0.0
C18 C 0.99235 0.02975 0.93528 0.0
O19 O 0.97174 0.99014 0.99896 0.0
O20 O 0.88425 0.96454 0.98185 0.0
O21 O 0.52084 0.55999 0.51487 0.0
Mn22 Mn 0.57496 0.50536 0.51524 0.0
O23 O 0.44387 0.53758 0.47778 0.0
Mn24 Mn 0.46953 0.48148 0.46429 0.0
O25 O 0.62938 0.44988 0.51479 0.0
O26 O 0.6401 0.55085 0.53292 0.0
Mn27 Mn 0.68795 0.52699 0.56168 0.0
O28 O 0.56376 0.49633 0.56024 0.0
O29 O 0.71493 0.47645 0.5417 0.0
O30 O 0.58888 0.51502 0.47079 0.0
O31 O 0.51563 0.48121 0.43565 0.0
O32 O 0.71756 0.58436 0.56096 0.0
O33 O 0.6483 0.51555 0.59192 0.0
C34 C 0.46881 0.42804 0.49218 0.0
C35 C 0.47138 0.56692 0.49926 0.0
C36 C 0.68292 0.44522 0.52415 0.0
C37 C 0.6733 0.58704 0.53933 0.0
C38 C 0.59656 0.5018 0.58739 0.0
C39 C 0.56458 0.50059 0.44263 0.0
O40 O 0.50793 0.46048 0.49787 0.0
O41 O 0.43043 0.42945 0.46728 0.0
H42 H 0.11613 0.97334 0.48632 0.0
H43 H 0.04475 0.04084 0.40763 0.0
H44 H 0.16332 0.93683 0.39746 0.0
H45 H 0.08812 0.10289 0.46096 0.0
C46 C 0.05249 0.08773 0.46842 0.0
C47 C 0.11326 0.97754 0.46203 0.0
C48 C 0.14469 0.95037 0.44362 0.0
C49 C 0.07843 0.01092 0.44927 0.0
C50 C 0.07257 0.01572 0.41756 0.0
C51 C 0.10235 0.98845 0.39869 0.0
C52 C 0.1392 0.95677 0.41202 0.0
N53 N 0.04922 0.03977 0.46828 0.0
H54 H 0.98579 0.0111 0.52169 0.0
H55 H 0.05514 0.08932 0.61031 0.0
H56 H 0.94369 0.97341 0.60591 0.0
H57 H 0.03844 0.14704 0.5754 0.0
C58 C 0.06451 0.13065 0.56025 0.0
C59 C 0.98916 0.01723 0.54669 0.0
C60 C 0.96041 0.98769 0.56177 0.0
C61 C 0.02295 0.05447 0.56405 0.0
C62 C 0.02826 0.06149 0.59665 0.0
C63 C 0.99947 0.03266 0.61185 0.0
C64 C 0.96555 -0.00389 0.59421 0.0
N65 N 0.05326 0.08364 0.54894 0.0
H66 H 0.57461 0.4965 0.99069 0.0
H67 H 0.49434 0.54432 0.90516 0.0
H68 H 0.61498 0.43941 0.9038 0.0
H69 H 0.52905 0.61502 0.94861 0.0
C70 C 0.49764 0.60139 0.96007 0.0
C71 C 0.56853 0.49466 0.96559 0.0
C72 C 0.60048 0.4651 0.94917 0.0
C73 C 0.53101 0.52381 0.94978 0.0
C74 C 0.52348 0.52185 0.91724 0.0
C75 C 0.55341 0.49142 0.90033 0.0
C76 C 0.59204 0.46341 0.91659 0.0
N77 N 0.50135 0.55559 0.9666 0.0
H78 H 0.51568 0.50761 0.03425 0.0
H79 H 0.61538 0.5649 0.12293 0.0
H80 H 0.48962 0.45946 0.1191 0.0
H81 H 0.59771 0.62961 0.09598 0.0
C82 C 0.61549 0.61543 0.07631 0.0
C83 C 0.52662 0.50842 0.05933 0.0
C84 C 0.49687 0.47957 0.07447 0.0
C85 C 0.56852 0.54018 0.07675 0.0
C86 C 0.58206 0.5416 0.10936 0.0
C87 C 0.55385 0.51265 0.12472 0.0
C88 C 0.51163 0.48166 0.10715 0.0
N89 N 0.59665 0.57084 0.06157 0.0
H90 H 0.18284 0.11968 0.96179 0.0
H91 H 0.22388 0.19364 0.95638 0.0
H92 H 0.16521 0.25321 0.03757 0.0
H93 H 0.12311 0.17946 0.04245 0.0
H94 H 0.17673 0.3177 0.99824 0.0
H95 H 0.28928 0.20045 0.0464 0.0
H96 H 0.32747 0.1238 0.04672 0.0
H97 H 0.40238 0.14349 0.96857 0.0
H98 H 0.36412 0.22015 0.96763 0.0
H99 H 0.39436 0.46477 0.08967 0.0
H100 H 0.32078 0.40719 0.06526 0.0
H101 H 0.41612 0.36543 0.99457 0.0
H102 H 0.49132 0.42261 0.0197 0.0
H103 H 0.38324 0.29387 0.01741 0.0
H104 H 0.28798 0.41905 0.97753 0.0
H105 H 0.25098 0.49607 0.97846 0.0
H106 H 0.14404 0.46328 0.0404 0.0
H107 H 0.18108 0.38628 0.04029 0.0
C108 C 0.17529 0.14923 0.97714 0.0
C109 C 0.14937 0.14392 0.00238 0.0
C110 C 0.19968 0.19143 0.97439 0.0
C111 C 0.19929 0.22876 0.99718 0.0
C112 C 0.16649 0.22495 0.0198 0.0
C113 C 0.14173 0.18278 0.02238 0.0
C114 C 0.24086 0.26805 1.00116 0.0
C115 C 0.22188 0.31261 0.0024 0.0
C116 C 0.29992 0.26154 0.00598 0.0
C117 C 0.32336 0.21572 0.00672 0.0
C118 C 0.31365 0.1883 0.02919 0.0
C119 C 0.33531 0.14489 0.02949 0.0
C120 C 0.36714 0.12872 0.00761 0.0
C121 C 0.37759 0.15601 0.98545 0.0
C122 C 0.35597 0.19944 0.98503 0.0
C123 C 0.39972 0.44351 0.06884 0.0
C124 C 0.44922 0.44798 0.05691 0.0
C125 C 0.35708 0.41087 0.05461 0.0
C126 C 0.36228 0.38201 0.0278 0.0
C127 C 0.41086 0.38733 0.01517 0.0
C128 C 0.45373 0.42018 0.02945 0.0
C129 C 0.3194 0.34393 0.01498 0.0
C130 C 0.33817 0.29936 0.01239 0.0
C131 C 0.26028 0.35063 0.00895 0.0
C132 C 0.23762 0.39689 0.00904 0.0
C133 C 0.25688 0.42834 0.99154 0.0
C134 C 0.23585 0.472 0.9919 0.0
C135 C 0.19524 0.48458 0.00951 0.0
C136 C 0.17551 0.45349 0.02677 0.0
C137 C 0.19646 0.4098 0.02653 0.0
H138 H 0.17901 0.51839 0.00976 0.0
H139 H 0.38385 0.09509 0.00786 0.0
H140 H 0.08745 0.8753 0.00296 0.0
H141 H 0.12704 0.80037 0.99171 0.0
H142 H 0.26689 0.86596 0.96411 0.0
H143 H 0.22804 0.93977 0.97522 0.0
H144 H 0.23 0.78783 0.92587 0.0
H145 H 0.27484 0.83957 0.03922 0.0
H146 H 0.24561 0.85996 0.08943 0.0
H147 H 0.15965 0.72941 0.07973 0.0
H148 H 0.18803 0.70843 0.02934 0.0
H149 H 0.48772 0.68947 0.95199 0.0
H150 H 0.40775 0.73732 0.95624 0.0
H151 H 0.31939 0.62641 0.98403 0.0
H152 H 0.40053 0.57826 0.98031 0.0
H153 H 0.30453 0.70869 0.01756 0.0
H154 H 0.28002 0.65014 0.91121 0.0
H155 H 0.30794 0.62844 0.8609 0.0
H156 H 0.34931 0.76829 0.85536 0.0
H157 H 0.3225 0.7908 0.90589 0.0
C158 C 0.12585 0.87335 0.99375 0.0
C159 C 0.15492 0.91326 0.9901 0.0
C160 C 0.14864 0.83068 0.98757 0.0
C161 C 0.20032 0.82759 0.97737 0.0
C162 C 0.22708 0.86736 0.97194 0.0
C163 C 0.20487 0.90961 0.97838 0.0
C164 C 0.22996 0.78422 0.97425 0.0
C165 C 0.246 0.7703 0.94585 0.0
C166 C 0.24915 0.76017 0.99997 0.0
C167 C 0.23305 0.77263 0.03044 0.0
C168 C 0.24951 0.81532 0.04776 0.0
C169 C 0.23314 0.82696 0.07624 0.0
C170 C 0.20072 0.79602 0.08772 0.0
C171 C 0.18473 0.75334 0.07079 0.0
C172 C 0.20098 0.74155 0.0423 0.0
C173 C 0.45148 0.67537 0.95928 0.0
C174 C 0.4502 0.63016 0.96563 0.0
C175 C 0.40563 0.70264 0.96154 0.0
C176 C 0.35696 0.6852 0.96978 0.0
C177 C 0.3563 0.64048 0.97739 0.0
C178 C 0.40262 0.61304 0.97525 0.0
C179 C 0.30706 0.71411 0.96961 0.0
C180 C 0.28723 0.72517 0.99729 0.0
C181 C 0.28381 0.73533 0.94309 0.0
C182 C 0.29936 0.72213 0.91243 0.0
C183 C 0.29533 0.67626 0.89935 0.0
C184 C 0.31096 0.66381 0.87078 0.0
C185 C 0.33042 0.69696 0.85495 0.0
C186 C 0.33418 0.74265 0.86764 0.0
C187 C 0.31867 0.75528 0.89623 0.0
H188 H 0.34253 0.68725 0.83284 0.0
H189 H 0.18809 0.80502 0.10975 0.0
H190 H 0.92499 0.94682 0.05689 0.0
H191 H 0.89235 0.8757 0.07179 0.0
H192 H 0.92023 0.80371 0.98569 0.0
H193 H 0.95239 0.87516 0.9708 0.0
H194 H 0.81401 0.79236 0.98961 0.0
H195 H 0.98893 0.77478 0.05762 0.0
H196 H 0.0734 0.79395 0.09924 0.0
H197 H 0.96775 0.82296 0.16611 0.0
H198 H 0.88254 0.80443 0.12486 0.0
H199 H 0.6721 0.5968 0.02757 0.0
H200 H 0.74715 0.64458 0.01524 0.0
H201 H 0.73548 0.74324 0.09355 0.0
H202 H 0.6613 0.69589 0.10588 0.0
H203 H 0.84527 0.72932 0.09045 0.0
H204 H 0.67158 0.75875 0.02008 0.0
H205 H 0.58695 0.73474 0.97945 0.0
H206 H 0.69259 0.68177 0.91715 0.0
H207 H 0.77789 0.70492 0.95763 0.0
C208 C 0.92755 0.91536 0.0421 0.0
C209 C 0.94236 0.91632 0.01301 0.0
C210 C 0.90823 0.87461 0.05045 0.0
C211 C 0.90327 0.83409 0.02977 0.0
C212 C 0.92339 0.83438 0.00203 0.0
C213 C 0.94271 0.87513 0.99374 0.0
C214 C 0.86905 0.79407 0.03476 0.0
C215 C 0.82188 0.77787 0.01143 0.0
C216 C 0.87819 0.77549 0.06336 0.0
C217 C 0.92926 0.78835 0.08807 0.0
C218 C 0.98364 0.78571 0.08113 0.0
C219 C 0.03168 0.79633 0.10468 0.0
C220 C 0.02591 0.80952 0.1353 0.0
C221 C 0.97212 0.81258 0.14239 0.0
C222 C 0.92394 0.80195 0.11894 0.0
C223 C 0.68572 0.62864 0.04211 0.0
C224 C 0.66069 0.64279 0.06761 0.0
C225 C 0.7286 0.65591 0.03508 0.0
C226 C 0.74704 0.69765 0.05347 0.0
C227 C 0.72241 0.71118 0.07913 0.0
C228 C 0.67967 0.68421 0.08602 0.0
C229 C 0.7901 0.72864 0.04563 0.0
C230 C 0.83847 0.74328 0.06844 0.0
C231 C 0.78217 0.74583 0.01659 0.0
C232 C 0.73104 0.73311 0.99197 0.0
C233 C 0.67673 0.74178 0.99776 0.0
C234 C 0.62865 0.72833 0.97477 0.0
C235 C 0.63437 0.70659 0.94577 0.0
C236 C 0.68822 0.69852 0.93965 0.0
C237 C 0.73645 0.71182 0.9626 0.0
H238 H 0.59709 0.6961 0.92803 0.0
H239 H 0.06309 0.81714 0.1536 0.0
H240 H 0.86989 0.12404 0.045 0.0
H241 H 0.82086 0.19542 0.04644 0.0
H242 H 0.93515 0.25106 0.99536 0.0
H243 H 0.9859 0.17985 0.99504 0.0
H244 H 0.89788 0.31826 0.03394 0.0
H245 H 0.81442 0.19524 0.95677 0.0
H246 H 0.77696 0.11688 0.93777 0.0
H247 H 0.64941 0.1345 0.99301 0.0
H248 H 0.68675 0.21279 0.01275 0.0
H249 H 0.70887 0.45445 0.94137 0.0
H250 H 0.7764 0.40059 0.96331 0.0
H251 H 0.65712 0.35593 0.0156 0.0
H252 H 0.58899 0.40992 0.99349 0.0
H253 H 0.69722 0.28542 0.98107 0.0
H254 H 0.7766 0.41435 0.05293 0.0
H255 H 0.81479 0.49311 0.069 0.0
H256 H 0.95005 0.46568 0.02019 0.0
H257 H 0.91214 0.38693 0.00336 0.0
C258 C 0.88599 0.1522 0.03524 0.0
C259 C 0.93149 0.14651 0.01985 0.0
C260 C 0.85768 0.19286 0.03583 0.0
C261 C 0.8732 0.22814 0.02019 0.0
C262 C 0.92214 0.22421 0.00741 0.0
C263 C 0.9513 0.18361 0.00734 0.0
C264 C 0.83411 0.26576 0.01359 0.0
C265 C 0.85412 0.31116 0.02222 0.0
C266 C 0.77669 0.25657 0.99857 0.0
C267 C 0.75376 0.20968 0.98649 0.0
C268 C 0.77863 0.18229 0.96503 0.0
C269 C 0.75741 0.1379 0.95412 0.0
C270 C 0.71093 0.12068 0.96424 0.0
C271 C 0.68548 0.14787 0.98524 0.0
C272 C 0.70665 0.19225 0.99629 0.0
C273 C 0.69724 0.43347 0.9578 0.0
C274 C 0.64344 0.4361 0.96551 0.0
C275 C 0.73608 0.40297 0.97053 0.0
C276 C 0.72203 0.37433 0.99124 0.0
C277 C 0.66895 0.37782 0.99974 0.0
C278 C 0.63016 0.40875 0.98721 0.0
C279 C 0.76071 0.33806 1.00156 0.0
C280 C 0.7407 0.2927 0.99328 0.0
C281 C 0.81812 0.34747 0.01646 0.0
C282 C 0.84122 0.39478 0.02666 0.0
C283 C 0.81422 0.42519 0.04539 0.0
C284 C 0.83586 0.46984 0.05468 0.0
C285 C 0.88475 0.48442 0.04557 0.0
C286 C 0.91215 0.45435 0.02721 0.0
C287 C 0.89063 0.40968 0.01781 0.0
H288 H 0.90144 0.51899 0.05279 0.0
H289 H 0.69454 0.08631 0.95576 0.0
H290 H 0.67146 0.60258 0.47909 0.0
H291 H 0.69845 0.67615 0.46444 0.0
H292 H 0.68846 0.74102 0.55588 0.0
H293 H 0.66012 0.66843 0.56988 0.0
H294 H 0.67109 0.80218 0.51774 0.0
H295 H 0.81259 0.68597 0.53915 0.0
H296 H 0.85014 0.61039 0.52732 0.0
H297 H 0.85534 0.63914 0.43483 0.0
H298 H 0.81739 0.71479 0.44612 0.0
H299 H 0.97161 0.90039 0.57383 0.0
H300 H 0.90573 0.83555 0.5534 0.0
H301 H 0.80366 0.91766 0.49129 0.0
H302 H 0.86993 0.98334 0.51224 0.0
H303 H 0.86636 0.78568 0.49934 0.0
H304 H 0.66106 0.88201 0.48742 0.0
H305 H 0.62657 0.95629 0.5056 0.0
H306 H 0.75527 0.96658 0.58898 0.0
H307 H 0.78987 0.89211 0.57151 0.0
C308 C 0.67182 0.63309 0.49529 0.0
C309 C 0.66365 0.62996 0.52561 0.0
C310 C 0.68813 0.67509 0.48713 0.0
C311 C 0.69748 0.71413 0.50941 0.0
C312 C 0.68213 0.71168 0.53824 0.0
C313 C 0.66561 0.67003 0.54626 0.0
C314 C 0.73218 0.75476 0.50568 0.0
C315 C 0.71334 0.79858 0.51301 0.0
C316 C 0.78774 0.75055 0.49988 0.0
C317 C 0.81178 0.7057 0.49336 0.0
C318 C 0.82176 0.67609 0.51631 0.0
C319 C 0.84303 0.63327 0.50969 0.0
C320 C 0.85501 0.61995 0.48032 0.0
C321 C 0.84598 0.6495 0.45755 0.0
C322 C 0.82462 0.69234 0.46404 0.0
C323 C 0.93566 0.90443 0.55541 0.0
C324 C 0.92577 0.94698 0.54474 0.0
C325 C 0.89802 0.86725 0.54364 0.0
C326 C 0.84914 0.87159 0.521 0.0
C327 C 0.84069 0.91346 0.50896 0.0
C328 C 0.87877 0.95087 0.52073 0.0
C329 C 0.80589 0.83299 0.51231 0.0
C330 C 0.82333 0.78954 0.50279 0.0
C331 C 0.74957 0.83755 0.51683 0.0
C332 C 0.72858 0.88191 0.52789 0.0
C333 C 0.68189 0.90014 0.50964 0.0
C334 C 0.66231 0.94224 0.51984 0.0
C335 C 0.68891 0.96626 0.54835 0.0
C336 C 0.73488 0.94806 0.56684 0.0
C337 C 0.75449 0.90592 0.5568 0.0
H338 H 0.67379 -0.00111 0.55615 0.0
H339 H 0.87138 0.58675 0.47521 0.0
H340 H 0.79443 0.43448 0.52468 0.0
H341 H 0.84263 0.36513 0.51376 0.0
H342 H 0.68358 0.28813 0.49306 0.0
H343 H 0.63402 0.35855 0.50416 0.0
H344 H 0.77953 0.24703 0.53303 0.0
H345 H 0.73304 0.30204 0.43448 0.0
H346 H 0.72302 0.36 0.39826 0.0
H347 H 0.90256 0.38853 0.42097 0.0
H348 H 0.91364 0.33126 0.45776 0.0
H349 H 0.94443 0.06474 0.47504 0.0
H350 H 0.8697 0.11731 0.4832 0.0
H351 H 0.98749 0.23116 0.49032 0.0
H352 H 0.06117 0.1789 0.48099 0.0
H353 H 0.89408 0.24354 0.45116 0.0
H354 H 0.93722 0.19636 0.55543 0.0
H355 H 0.94746 0.13801 0.59149 0.0
H356 H 0.77456 0.09193 0.55614 0.0
H357 H 0.76304 0.15028 0.52007 0.0
C358 C 0.76925 0.40297 0.51781 0.0
C359 C 0.71014 0.40226 0.51529 0.0
C360 C 0.79709 0.36321 0.51158 0.0
C361 C 0.76686 0.32138 0.50263 0.0
C362 C 0.70777 0.32008 0.50007 0.0
C363 C 0.67948 0.36034 0.50611 0.0
C364 C 0.79833 0.28011 0.49512 0.0
C365 C 0.80364 0.24562 0.51469 0.0
C366 C 0.83028 0.27843 0.47143 0.0
C367 C 0.8241 0.31249 0.44901 0.0
C368 C 0.77036 0.32087 0.43191 0.0
C369 C 0.76449 0.35357 0.41127 0.0
C370 C 0.81211 0.37791 0.40737 0.0
C371 C 0.86573 0.36959 0.42404 0.0
C372 C 0.87184 0.33697 0.44476 0.0
C373 C 0.95437 0.10098 0.47869 0.0
C374 C 1.00841 0.11789 0.47715 0.0
C375 C 0.91169 0.13104 0.48346 0.0
C376 C 0.92276 0.17838 0.48729 0.0
C377 C 0.97757 0.19491 0.48705 0.0
C378 C 0.01973 0.16505 0.48184 0.0
C379 C 0.87727 0.21129 0.48982 0.0
C380 C 0.86932 0.24431 0.46919 0.0
C381 C 0.84299 0.21132 0.51244 0.0
C382 C 0.84938 0.17744 0.53491 0.0
C383 C 0.9014 0.17375 0.55534 0.0
C384 C 0.90747 0.14068 0.57575 0.0
C385 C 0.86189 0.11106 0.57592 0.0
C386 C 0.80988 0.11483 0.55594 0.0
C387 C 0.80346 0.14803 0.53562 0.0
H388 H 0.86685 0.0853 0.5916 0.0
H389 H 0.80743 0.40317 0.39141 0.0
H390 H 0.43073 0.44416 0.54591 0.0
H391 H 0.37217 0.38903 0.5643 0.0
H392 H 0.42123 0.282 0.5012 0.0
H393 H 0.47886 0.33721 0.48255 0.0
H394 H 0.28159 0.34588 0.52021 0.0
H395 H 0.39979 0.1786 0.52914 0.0
H396 H 0.49663 0.15354 0.54656 0.0
H397 H 0.53727 0.27662 0.60976 0.0
H398 H 0.4405 0.30212 0.59308 0.0
H399 H 0.14715 0.10403 0.52692 0.0
H400 H 0.22688 0.15152 0.51937 0.0
H401 H 0.17015 0.26571 0.5736 0.0
H402 H 0.09036 0.21905 0.58038 0.0
H403 H 0.31582 0.19654 0.55916 0.0
H404 H 0.19324 0.36279 0.54764 0.0
H405 H 0.09663 0.38577 0.5269 0.0
H406 H 0.06601 0.2625 0.46332 0.0
H407 H 0.16236 0.23881 0.48361 0.0
C408 C 0.43175 0.40842 0.53741 0.0
C409 C 0.46023 0.39478 0.51326 0.0
C410 C 0.39744 0.37702 0.5475 0.0
C411 C 0.39179 0.33134 0.53394 0.0
C412 C 0.42511 0.31687 0.51222 0.0
C413 C 0.45871 0.34838 0.50184 0.0
C414 C 0.3452 0.30079 0.53865 0.0
C415 C 0.2892 0.31364 0.52934 0.0
C416 C 0.35484 0.25769 0.54908 0.0
C417 C 0.41299 0.24245 0.5596 0.0
C418 C 0.42931 0.20024 0.54685 0.0
C419 C 0.48422 0.18597 0.55658 0.0
C420 C 0.52314 0.21354 0.57917 0.0
C421 C 0.50717 0.25538 0.59216 0.0
C422 C 0.45231 0.26979 0.58253 0.0
C423 C 0.15155 0.13937 0.53693 0.0
C424 C 0.1123 0.158 0.55406 0.0
C425 C 0.19732 0.16642 0.5328 0.0
C426 C 0.20443 0.21246 0.54565 0.0
C427 C 0.1653 0.23064 0.56294 0.0
C428 C 0.1197 0.20387 0.5669 0.0
C429 C 0.25228 0.24203 0.54117 0.0
C430 C 0.3083 0.22891 0.55023 0.0
C431 C 0.2428 0.28466 0.52995 0.0
C432 C 0.18491 0.29889 0.51736 0.0
C433 C 0.16594 0.34065 0.52918 0.0
C434 C 0.11116 0.35373 0.51755 0.0
C435 C 0.07509 0.32549 0.49393 0.0
C436 C 0.09382 0.28419 0.48178 0.0
C437 C 0.14846 0.27087 0.49339 0.0
H438 H 0.0327 0.33566 0.48497 0.0
H439 H 0.56563 0.20244 0.58666 0.0
H440 H 0.35944 0.58379 0.48532 0.0
H441 H 0.31537 0.65687 0.48846 0.0
H442 H 0.47762 0.72363 0.52978 0.0
H443 H 0.52262 0.64988 0.52646 0.0
H444 H 0.30603 0.72573 0.53444 0.0
H445 H 0.47808 0.82453 0.49895 0.0
H446 H 0.56417 0.81132 0.4774 0.0
H447 H 0.48551 0.68943 0.42209 0.0
H448 H 0.39891 0.70217 0.44319 0.0
H449 H 0.21075 0.95335 0.50284 0.0
H450 H 0.27575 0.89625 0.52319 0.0
H451 H 0.23368 0.8124 0.43458 0.0
H452 H 0.16634 0.86718 0.41464 0.0
H453 H 0.35923 0.83052 0.46424 0.0
H454 H 0.17374 0.7804 0.48282 0.0
H455 H 0.09014 0.79336 0.50654 0.0
H456 H 0.19771 0.81848 0.59731 0.0
H457 H 0.28201 0.80626 0.57401 0.0
C458 C 0.38589 0.61386 0.49543 0.0
C459 C 0.44473 0.611 0.50527 0.0
C460 C 0.36044 0.65568 0.49744 0.0
C461 C 0.39311 0.69585 0.50911 0.0
C462 C 0.45158 0.69308 0.5205 0.0
C463 C 0.47721 0.65092 0.51866 0.0
C464 C 0.3658 0.74019 0.50614 0.0
C465 C 0.31835 0.74908 0.51956 0.0
C466 C 0.38189 0.77098 0.48693 0.0
C467 C 0.43232 0.76418 0.47277 0.0
C468 C 0.47909 0.79512 0.48201 0.0
C469 C 0.52799 0.78766 0.46995 0.0
C470 C 0.53035 0.7495 0.44845 0.0
C471 C 0.48366 0.71892 0.43879 0.0
C472 C 0.43467 0.72625 0.45078 0.0
C473 C 0.21458 0.9225 0.48776 0.0
C474 C 0.18335 0.91541 0.45686 0.0
C475 C 0.25232 0.89017 0.49937 0.0
C476 C 0.26015 0.85052 0.4802 0.0
C477 C 0.22903 0.84321 0.44956 0.0
C478 C 0.19062 0.87486 0.43817 0.0
C479 C 0.29883 0.81526 0.49195 0.0
C480 C 0.34815 0.80805 0.48 0.0
C481 C 0.2848 0.78627 0.51274 0.0
C482 C 0.23411 0.79298 0.52667 0.0
C483 C 0.17955 0.78908 0.5078 0.0
C484 C 0.13205 0.7962 0.52117 0.0
C485 C 0.13861 0.80689 0.5534 0.0
C486 C 0.19269 0.81029 0.57234 0.0
C487 C 0.24032 0.80325 0.55908 0.0
H488 H 0.10179 0.81242 0.56371 0.0
H489 H 0.56834 0.74364 0.43926 0.0
H490 H 0.17287 0.04422 0.13226 0.0
H491 H 0.16082 0.03375 0.18422 0.0
H492 H 0.98497 0.99423 0.14864 0.0
H493 H 0.99646 0.00488 0.09574 0.0
H494 H 1.00899 0.05637 0.20667 0.0
H495 H 0.07048 0.91549 0.1622 0.0
H496 H 0.13231 0.86948 0.1338 0.0
H497 H 0.27551 0.91102 0.20723 0.0
H498 H 0.21517 0.95897 0.23548 0.0
H499 H 1.00294 0.98753 0.35628 0.0
H500 H 0.9902 0.99033 0.3001 0.0
H501 H 0.17147 0.00191 0.30899 0.0
H502 H 0.18418 -0.00245 0.3649 0.0
H503 H 0.13037 0.945 0.26085 0.0
H504 H 0.08007 0.09458 0.29943 0.0
H505 H 0.02668 0.14999 0.32716 0.0
H506 H 0.87142 0.09823 0.26623 0.0
H507 H 0.92387 0.04209 0.23838 0.0
C508 C 0.13137 0.0334 0.13519 0.0
C509 C 0.0857 0.02495 0.10958 0.0
C510 C 0.12465 0.02746 0.16507 0.0
C511 C 0.07227 0.01266 0.17021 0.0
C512 C 0.02584 0.00554 0.14505 0.0
C513 C 0.03254 0.01149 0.11488 0.0
C514 C 0.06772 0.0035 0.20195 0.0
C515 C 0.03446 0.03132 0.21839 0.0
C516 C 0.10219 0.97156 0.21733 0.0
C517 C 0.13818 0.94114 0.20093 0.0
C518 C 0.11522 0.91514 0.17223 0.0
C519 C 0.15006 0.88874 0.15611 0.0
C520 C 0.20774 0.8872 0.16874 0.0
C521 C 0.23078 0.91219 0.19749 0.0
C522 C 0.19629 0.9391 0.21353 0.0
C523 C 0.03996 0.99101 0.34619 0.0
C524 C 0.09455 0.99243 0.36491 0.0
C525 C 0.03267 0.99267 0.31409 0.0
C526 C 0.07983 -0.00321 0.3002 0.0
C527 C 0.13437 -0.0015 0.31902 0.0
C528 C 0.14165 -0.00386 0.35099 0.0
C529 C 0.07296 -0.00109 0.2661 0.0
C530 C 0.10403 0.96955 0.24912 0.0
C531 C 0.03734 0.03003 0.2504 0.0
C532 C 1.00579 0.06379 0.26708 0.0
C533 C 0.03449 0.09478 0.29211 0.0
C534 C 1.00442 0.12636 0.30782 0.0
C535 C 0.94567 0.12753 0.29853 0.0
C536 C 0.91691 0.09722 0.27344 0.0
C537 C 0.94678 0.06553 0.25768 0.0
H538 H 0.92246 0.152 0.31072 0.0
H539 H 0.23462 0.86669 0.15625 0.0
H540 H 0.09368 0.04195 0.91637 0.0
H541 H 0.10727 0.04465 0.86289 0.0
H542 H 0.9267 0.02903 0.82912 0.0
H543 H 0.91277 0.02578 0.88169 0.0
H544 H 0.98152 0.97185 0.79495 0.0
H545 H 0.99945 0.13228 0.83695 0.0
H546 H 0.04404 0.19711 0.8747 0.0
H547 H 0.20381 0.17212 0.84842 0.0
H548 H 0.16027 0.10673 0.81078 0.0
H549 H 0.91595 0.03202 0.64528 0.0
H550 H 0.92655 0.03509 0.7017 0.0
H551 H 0.10776 0.05116 0.71279 0.0
H552 H 0.09728 0.0485 0.65614 0.0
H553 H 0.06933 0.10341 0.75951 0.0
H554 H 0.05076 0.94849 0.71406 0.0
H555 H 1.00813 0.88268 0.67669 0.0
H556 H 0.85327 0.89488 0.71036 0.0
H557 H 0.89467 0.96127 0.7476 0.0
C558 C 0.05692 0.03924 0.89754 0.0
C559 C 1.00216 0.0334 0.90345 0.0
C560 C 0.06475 0.0409 0.867 0.0
C561 C 0.01794 0.03702 0.84197 0.0
C562 C 0.96348 0.03177 0.84797 0.0
C563 C 0.95565 0.03003 0.87822 0.0
C564 C 0.02442 0.03753 0.80922 0.0
C565 C 1.00047 0.00076 0.78722 0.0
C566 C 0.05099 0.07445 0.79923 0.0
C567 C 0.07677 0.11435 0.82131 0.0
C568 C 0.04416 0.14047 0.83935 0.0
C569 C 0.06923 0.17732 0.86071 0.0
C570 C 0.12677 0.18863 0.86403 0.0
C571 C 0.15928 0.16326 0.84587 0.0
C572 C 0.13442 0.12633 0.8245 0.0
C573 C 0.95803 0.03645 0.65975 0.0
C574 C 1.00582 0.03942 0.64628 0.0
C575 C 0.96407 0.03826 0.69198 0.0
C576 C 0.01806 0.04246 0.71144 0.0
C577 C 0.06574 0.04775 0.69823 0.0
C578 C 0.05968 0.04624 0.66589 0.0
C579 C 0.02425 0.03855 0.74521 0.0
C580 C 0.05092 0.07435 0.76732 0.0
C581 C 1.0005 0.00054 0.75547 0.0
C582 C 0.97573 0.96006 0.73349 0.0
C583 C 1.00751 0.9373 0.71339 0.0
C584 C 0.98357 0.89989 0.69223 0.0
C585 C 0.928 0.88466 0.69112 0.0
C586 C 0.89631 0.90674 0.71124 0.0
C587 C 0.92002 0.94423 0.7324 0.0
H588 H 0.90952 0.85571 0.6747 0.0
H589 H 0.14613 0.21711 0.88063 0.0
H590 H 0.48637 0.4983 0.59685 0.0
H591 H 0.45654 0.48729 0.64587 0.0
H592 H 0.63047 0.47108 0.68937 0.0
H593 H 0.66 0.48134 0.64131 0.0
H594 H 0.56226 0.41031 0.70566 0.0
H595 H 0.56627 0.57379 0.69682 0.0
H596 H 0.53338 0.64109 0.67151 0.0
H597 H 0.36362 0.61097 0.68139 0.0
H598 H 0.3955 0.54316 0.70644 0.0
H599 H 0.6339 0.48301 0.86449 0.0
H600 H 0.62004 0.4762 0.80789 0.0
H601 H 0.44032 0.48865 0.80096 0.0
H602 H 0.4537 0.49478 0.85786 0.0
H603 H 0.48309 0.54061 0.7619 0.0
H604 H 0.48693 0.38666 0.78241 0.0
H605 H 0.52281 0.32123 0.80895 0.0
H606 H 0.67905 0.33323 0.77745 0.0
H607 H 0.64449 0.39918 0.7511 0.0
C608 C 0.51793 0.4918 0.61682 0.0
C609 C 0.57561 0.49131 0.61527 0.0
C610 C 0.50092 0.4857 0.6448 0.0
C611 C 0.5414 0.47869 0.67139 0.0
C612 C 0.59843 0.47635 0.66926 0.0
C613 C 0.6153 0.48263 0.64169 0.0
C614 C 0.52662 0.47604 0.70227 0.0
C615 C 0.54463 0.43867 0.71791 0.0
C616 C 0.50205 0.5124 0.718 0.0
C617 C 0.48308 0.55317 0.70309 0.0
C618 C 0.52186 0.58137 0.69337 0.0
C619 C 0.50343 0.61961 0.67912 0.0
C620 C 0.4464 0.63021 0.67474 0.0
C621 C 0.40774 0.60265 0.68472 0.0
C622 C 0.42596 0.56433 0.69894 0.0
C623 C 0.59129 0.48381 0.851 0.0
C624 C 0.54488 0.48896 0.86578 0.0
C625 C 0.58344 0.48003 0.8186 0.0
C626 C 0.52902 0.48117 0.80015 0.0
C627 C 0.48264 0.48749 0.81475 0.0
C628 C 0.49044 0.49117 0.84727 0.0
C629 C 0.52147 0.4759 0.76567 0.0
C630 C 0.49914 0.51161 0.74943 0.0
C631 C 0.54233 0.43807 0.74936 0.0
C632 C 0.56313 0.39802 0.76486 0.0
C633 C 0.52906 0.37551 0.78127 0.0
C634 C 0.54916 0.33831 0.79628 0.0
C635 C 0.60319 0.32311 0.79491 0.0
C636 C 0.63719 0.34503 0.77847 0.0
C637 C 0.61732 0.38228 0.76345 0.0
H638 H 0.61869 0.29432 0.80656 0.0
H639 H 0.4322 0.65983 0.66371 0.0
H640 H 0.59917 0.43802 0.40152 0.0
H641 H 0.61823 0.45021 0.35057 0.0
H642 H 0.60163 0.59445 0.3723 0.0
H643 H 0.58429 0.5823 0.42385 0.0
H644 H 0.52558 0.55332 0.31836 0.0
H645 H 0.72121 0.56476 0.35983 0.0
H646 H 0.81415 0.54574 0.38891 0.0
H647 H 0.80735 0.42044 0.32831 0.0
H648 H 0.71373 0.43824 0.29919 0.0
H649 H 0.56258 0.5893 0.16647 0.0
H650 H 0.581 0.59478 0.22344 0.0
H651 H 0.59386 0.44927 0.21795 0.0
H652 H 0.57505 0.44353 0.16086 0.0
H653 H 0.68025 0.50149 0.26525 0.0
H654 H 0.47707 0.48818 0.22898 0.0
H655 H 0.3858 0.51025 0.19957 0.0
H656 H 0.4099 0.64345 0.25154 0.0
H657 H 0.50184 0.62235 0.28095 0.0
C658 C 0.60201 0.47245 0.39585 0.0
C659 C 0.59103 0.5093 0.41654 0.0
C660 C 0.61271 0.47941 0.36677 0.0
C661 C 0.61124 0.52323 0.35764 0.0
C662 C 0.60321 0.56042 0.37898 0.0
C663 C 0.59376 0.55354 0.40843 0.0
C664 C 0.61009 0.52873 0.32455 0.0
C665 C 0.55998 0.54301 0.30691 0.0
C666 C 0.65448 0.51436 0.30952 0.0
C667 C 0.71009 0.5027 0.32745 0.0
C668 C 0.73913 0.53286 0.35291 0.0
C669 C 0.79206 0.52238 0.36935 0.0
C670 C 0.81669 0.48196 0.36042 0.0
C671 C 0.78827 0.45181 0.33513 0.0
C672 C 0.73523 0.46207 0.31866 0.0
C673 C 0.56991 0.55854 0.17744 0.0
C674 C 0.56722 0.51596 0.15926 0.0
C675 C 0.58032 0.56172 0.20994 0.0
C676 C 0.58875 0.52243 0.22488 0.0
C677 C 0.58765 0.47999 0.20685 0.0
C678 C 0.57646 0.47672 0.1743 0.0
C679 C 0.59551 0.52535 0.2592 0.0
C680 C 0.64638 0.51243 0.27693 0.0
C681 C 0.55198 0.54122 0.27443 0.0
C682 C 0.49664 0.55388 0.25688 0.0
C683 C 0.46317 0.52232 0.23393 0.0
C684 C 0.41127 0.53462 0.2173 0.0
C685 C 0.39215 0.57828 0.22361 0.0
C686 C 0.42483 0.60968 0.24663 0.0
C687 C 0.47683 0.59757 0.26329 0.0
H688 H 0.35194 0.58773 0.21072 0.0
H689 H 0.85775 0.47395 0.37312 0.0
loop_
_geom_bond_atom_site_label_1
_geom_bond_atom_site_label_2
_geom_bond_distance
_geom_bond_site_symmetry_2
_ccdc_geom_bond_type
O0 Mn1 2.163 . S
O0 C14 1.244 1_454 S
Mn1 O0 2.163 . S
Mn1 O4 2.162 1_545 S
Mn1 O5 2.221 . S
Mn1 O7 2.163 . S
Mn1 O9 2.160 1_554 S
Mn1 O19 2.221 1_444 S
O2 Mn3 2.087 1_545 S
O2 C14 1.256 . S
Mn3 O2 2.087 1_565 S
Mn3 O10 2.089 1_565 S
Mn3 O19 2.290 . S
Mn3 O20 2.251 . S
O4 Mn1 2.162 1_565 S
O4 C15 1.256 . S
O5 Mn1 2.221 . S
O5 Mn6 2.290 . S
O5 C16 1.278 . S
Mn6 O5 2.290 . S
Mn6 O8 2.089 1_545 S
Mn6 O11 2.251 . S
Mn6 O12 2.087 . S
O7 Mn1 2.163 . S
O7 C17 1.244 . S
O8 Mn6 2.089 1_565 S
O8 C15 1.256 . S
O9 Mn1 2.160 1_556 S
O9 C18 1.239 . S
O10 Mn3 2.089 1_545 S
O10 C18 1.256 1_655 S
O11 Mn6 2.251 . S
O11 C16 1.241 . S
O12 Mn6 2.087 . S
O12 C17 1.256 . S
C13 O19 1.290 . S
C13 O20 1.244 . S
C14 O0 1.244 1_656 S
C14 O2 1.256 . S
C15 O4 1.256 . S
C15 O8 1.256 . S
C16 O5 1.278 . S
C16 O11 1.241 . S
C17 O7 1.244 . S
C17 O12 1.256 . S
C18 O9 1.239 . S
C18 O10 1.256 1_455 S
O19 Mn1 2.221 1_666 S
O19 Mn3 2.290 . S
O19 C13 1.290 . S
O20 Mn3 2.251 . S
O20 C13 1.244 . S
O21 Mn22 2.163 . S
O21 C35 1.244 . S
Mn22 O21 2.163 . S
Mn22 O25 2.160 . S
Mn22 O26 2.221 . S
Mn22 O28 2.163 . S
Mn22 O30 2.160 . S
Mn22 O40 2.221 . S
O23 Mn24 2.087 . S
O23 C35 1.256 . S
Mn24 O23 2.087 . S
Mn24 O31 2.089 . S
Mn24 O40 2.290 . S
Mn24 O41 2.251 . S
O25 Mn22 2.160 . S
O25 C36 1.239 . S
O26 Mn22 2.221 . S
O26 Mn27 2.290 . S
O26 C37 1.278 . S
Mn27 O26 2.290 . S
Mn27 O29 2.089 . S
Mn27 O32 2.251 . S
Mn27 O33 2.087 . S
O28 Mn22 2.163 . S
O28 C38 1.244 . S
O29 Mn27 2.089 . S
O29 C36 1.256 . S
O30 Mn22 2.160 . S
O30 C39 1.239 . S
O31 Mn24 2.089 . S
O31 C39 1.256 . S
O32 Mn27 2.251 . S
O32 C37 1.241 . S
O33 Mn27 2.087 . S
O33 C38 1.256 . S
C34 O40 1.278 . S
C34 O41 1.241 . S
C35 O21 1.244 . S
C35 O23 1.256 . S
C36 O25 1.239 . S
C36 O29 1.256 . S
C37 O26 1.278 . S
C37 O32 1.241 . S
C38 O28 1.244 . S
C38 O33 1.256 . S
C39 O30 1.239 . S
C39 O31 1.256 . S
O40 Mn22 2.221 . S
O40 Mn24 2.290 . S
O40 C34 1.278 . S
O41 Mn24 2.251 . S
O41 C34 1.241 . S
H42 C47 0.930 . S
H43 C50 0.930 . S
H44 C52 0.930 . S
H45 C46 1.016 . S
C46 H45 1.016 . S
C46 N53 1.286 1_655 S
C47 H42 0.930 . S
C47 C48 1.397 . S
C47 C49 1.361 1_565 S
C48 C47 1.397 . S
C48 C52 1.390 . S
C49 C47 1.361 1_545 S
C49 C50 1.393 . S
C49 N53 1.413 . S
C50 H43 0.930 . S
C50 C49 1.393 . S
C50 C51 1.399 1_545 S
C51 C50 1.399 1_565 S
C51 C52 1.381 . S
C52 H44 0.930 . S
C52 C48 1.390 . S
C52 C51 1.381 . S
N53 C46 1.286 1_455 S
N53 C49 1.413 . S
H54 C59 0.930 . S
H55 C62 0.930 . S
H56 C64 0.930 . S
H57 C58 1.016 . S
C58 H57 1.016 . S
C58 N65 1.286 . S
C59 H54 0.930 . S
C59 C60 1.397 . S
C59 C61 1.361 1_655 S
C60 C59 1.397 . S
C60 C64 1.390 . S
C61 C59 1.361 1_455 S
C61 C62 1.393 . S
C61 N65 1.413 . S
C62 H55 0.930 . S
C62 C61 1.393 . S
C62 C63 1.399 1_455 S
C63 C62 1.399 1_655 S
C63 C64 1.381 . S
C64 H56 0.930 . S
C64 C60 1.390 . S
C64 C63 1.381 . S
N65 C58 1.286 . S
N65 C61 1.413 . S
H66 C71 0.930 . S
H67 C74 0.930 . S
H68 C76 0.930 . S
H69 C70 1.016 . S
C70 H69 1.016 . S
C70 N77 1.286 . S
C71 H66 0.930 . S
C71 C72 1.397 . S
C71 C73 1.361 . S
C72 C71 1.397 . S
C72 C76 1.390 . S
C73 C71 1.361 . S
C73 C74 1.393 . S
C73 N77 1.413 . S
C74 H67 0.930 . S
C74 C73 1.393 . S
C74 C75 1.399 . S
C75 C74 1.399 . S
C75 C76 1.381 . S
C76 H68 0.930 . S
C76 C72 1.390 . S
C76 C75 1.381 . S
N77 C70 1.286 . S
N77 C73 1.413 . S
H78 C83 0.930 . S
H79 C86 0.930 . S
H80 C88 0.930 . S
H81 C82 1.016 . S
C82 H81 1.016 . S
C82 N89 1.286 . S
C83 H78 0.930 . S
C83 C84 1.397 . S
C83 C85 1.361 . S
C84 C83 1.397 . S
C84 C88 1.390 . S
C85 C83 1.361 . S
C85 C86 1.393 . S
C85 N89 1.413 . S
C86 H79 0.930 . S
C86 C85 1.393 . S
C86 C87 1.399 . S
C87 C86 1.399 . S
C87 C88 1.381 . S
C88 H80 0.930 . S
C88 C84 1.390 . S
C88 C87 1.381 . S
N89 C82 1.286 . S
N89 C85 1.413 . S
H90 C108 0.942 1_556 S
H91 C110 0.951 1_556 S
H92 C112 0.950 . S
H93 C113 0.950 . S
H94 C115 0.950 . S
H95 C118 0.950 . S
H96 C119 0.950 . S
H97 C121 0.950 . S
H98 C122 0.950 . S
H99 C123 0.951 . S
H100 C125 0.951 . S
H101 C127 0.950 . S
H102 C128 0.950 . S
H103 C130 0.950 . S
H104 C133 0.950 1_556 S
H105 C134 0.950 1_556 S
H106 C136 0.950 . S
H107 C137 0.950 . S
C108 H90 0.942 1_554 S
C108 C109 1.376 . S
C108 C110 1.387 . S
C109 C108 1.376 . S
C109 C113 1.385 . S
C110 H91 0.951 1_554 S
C110 C108 1.387 . S
C110 C111 1.366 . S
C111 C110 1.366 . S
C111 C112 1.414 . S
C111 C114 1.499 . S
C112 H92 0.950 . S
C112 C111 1.414 . S
C112 C113 1.374 . S
C113 H93 0.950 . S
C113 C109 1.385 . S
C113 C112 1.374 . S
C114 C111 1.499 . S
C114 C115 1.373 . S
C114 C116 1.389 . S
C115 H94 0.950 . S
C115 C114 1.373 . S
C115 C131 1.377 . S
C116 C114 1.389 . S
C116 C117 1.524 . S
C116 C130 1.377 . S
C117 C116 1.524 . S
C117 C118 1.397 . S
C117 C122 1.363 . S
C118 H95 0.950 . S
C118 C117 1.397 . S
C118 C119 1.334 . S
C119 H96 0.950 . S
C119 C118 1.334 . S
C119 C120 1.287 . S
C120 C119 1.287 . S
C120 C121 1.524 . S
C120 H139 0.913 . S
C121 H97 0.950 . S
C121 C120 1.524 . S
C121 C122 1.415 . S
C122 H98 0.950 . S
C122 C117 1.363 . S
C122 C121 1.415 . S
C123 H99 0.951 . S
C123 C124 1.366 . S
C123 C125 1.388 . S
C124 C123 1.366 . S
C124 C128 1.385 . S
C125 H100 0.951 . S
C125 C123 1.388 . S
C125 C126 1.366 . S
C126 C125 1.366 . S
C126 C127 1.414 . S
C126 C129 1.499 . S
C127 H101 0.950 . S
C127 C126 1.414 . S
C127 C128 1.374 . S
C128 H102 0.950 . S
C128 C124 1.385 . S
C128 C127 1.374 . S
C129 C126 1.499 . S
C129 C130 1.373 . S
C129 C131 1.389 . S
C130 H103 0.950 . S
C130 C116 1.377 . S
C130 C129 1.373 . S
C131 C115 1.377 . S
C131 C129 1.389 . S
C131 C132 1.524 . S
C132 C131 1.524 . S
C132 C133 1.397 . S
C132 C137 1.363 . S
C133 H104 0.950 1_554 S
C133 C132 1.397 . S
C133 C134 1.334 . S
C134 H105 0.950 1_554 S
C134 C133 1.334 . S
C134 C135 1.287 . S
C135 C134 1.287 . S
C135 C136 1.524 . S
C135 H138 0.999 . S
C136 H106 0.950 . S
C136 C135 1.524 . S
C136 C137 1.415 . S
C137 H107 0.950 . S
C137 C132 1.363 . S
C137 C136 1.415 . S
H138 C135 0.999 . S
H139 C120 0.913 . S
H140 C158 0.951 . S
H141 C160 0.951 . S
H142 C162 0.940 1_556 S
H143 C163 0.950 . S
H144 C165 0.950 . S
H145 C168 0.950 . S
H146 C169 0.950 . S
H147 C171 0.950 . S
H148 C172 0.950 . S
H149 C173 0.951 . S
H150 C175 0.951 . S
H151 C177 0.950 . S
H152 C178 0.950 . S
H153 C180 0.950 . S
H154 C183 0.950 . S
H155 C184 0.950 . S
H156 C186 0.950 . S
H157 C187 0.950 . S
C158 H140 0.951 . S
C158 C159 1.366 . S
C158 C160 1.388 . S
C159 C158 1.366 . S
C159 C163 1.385 . S
C160 H141 0.951 . S
C160 C158 1.388 . S
C160 C161 1.366 . S
C161 C160 1.366 . S
C161 C162 1.421 . S
C161 C164 1.499 . S
C162 H142 0.940 1_554 S
C162 C161 1.421 . S
C162 C163 1.377 . S
C163 H143 0.950 . S
C163 C159 1.385 . S
C163 C162 1.377 . S
C164 C161 1.499 . S
C164 C165 1.370 1_554 S
C164 C166 1.392 . S
C165 H144 0.950 . S
C165 C164 1.370 1_556 S
C165 C181 1.377 . S
C166 C164 1.392 . S
C166 C167 1.524 . S
C166 C180 1.377 . S
C167 C166 1.524 . S
C167 C168 1.397 . S
C167 C172 1.363 . S
C168 H145 0.950 . S
C168 C167 1.397 . S
C168 C169 1.334 . S
C169 H146 0.950 . S
C169 C168 1.334 . S
C169 C170 1.287 . S
C170 C169 1.287 . S
C170 C171 1.524 . S
C170 H189 0.913 . S
C171 H147 0.950 . S
C171 C170 1.524 . S
C171 C172 1.415 . S
C172 H148 0.950 . S
C172 C167 1.363 . S
C172 C171 1.415 . S
C173 H149 0.951 . S
C173 C174 1.366 . S
C173 C175 1.388 . S
C174 C173 1.366 . S
C174 C178 1.385 . S
C175 H150 0.951 . S
C175 C173 1.388 . S
C175 C176 1.366 . S
C176 C175 1.366 . S
C176 C177 1.414 . S
C176 C179 1.499 . S
C177 H151 0.950 . S
C177 C176 1.414 . S
C177 C178 1.374 . S
C178 H152 0.950 . S
C178 C174 1.385 . S
C178 C177 1.374 . S
C179 C176 1.499 . S
C179 C180 1.373 1_556 S
C179 C181 1.389 . S
C180 H153 0.950 . S
C180 C166 1.377 . S
C180 C179 1.373 1_554 S
C181 C165 1.377 . S
C181 C179 1.389 . S
C181 C182 1.524 . S
C182 C181 1.524 . S
C182 C183 1.397 . S
C182 C187 1.363 . S
C183 H154 0.950 . S
C183 C182 1.397 . S
C183 C184 1.334 . S
C184 H155 0.950 . S
C184 C183 1.334 . S
C184 C185 1.287 . S
C185 C184 1.287 . S
C185 C186 1.524 . S
C185 H188 0.999 . S
C186 H156 0.950 . S
C186 C185 1.524 . S
C186 C187 1.415 . S
C187 H157 0.950 . S
C187 C182 1.363 . S
C187 C186 1.415 . S
H188 C185 0.999 . S
H189 C170 0.913 . S
H190 C208 0.951 . S
H191 C210 0.951 . S
H192 C212 0.950 . S
H193 C213 0.950 . S
H194 C215 0.950 1_556 S
H195 C218 0.950 . S
H196 C219 0.950 . S
H197 C221 0.950 . S
H198 C222 0.950 . S
H199 C223 0.951 1_556 S
H200 C225 0.951 1_556 S
H201 C227 0.950 . S
H202 C228 0.950 . S
H203 C230 0.950 . S
H204 C233 0.950 . S
H205 C234 0.950 1_554 S
H206 C236 0.950 . S
H207 C237 0.950 . S
C208 H190 0.951 . S
C208 C209 1.366 . S
C208 C210 1.388 . S
C209 C208 1.366 . S
C209 C213 1.385 1_554 S
C210 H191 0.951 . S
C210 C208 1.388 . S
C210 C211 1.366 . S
C211 C210 1.366 . S
C211 C212 1.414 1_554 S
C211 C214 1.499 . S
C212 H192 0.950 . S
C212 C211 1.414 1_556 S
C212 C213 1.374 . S
C213 H193 0.950 . S
C213 C209 1.385 1_556 S
C213 C212 1.374 . S
C214 C211 1.499 . S
C214 C215 1.373 . S
C214 C216 1.389 . S
C215 H194 0.950 1_554 S
C215 C214 1.373 . S
C215 C231 1.377 . S
C216 C214 1.389 . S
C216 C217 1.524 . S
C216 C230 1.377 . S
C217 C216 1.524 . S
C217 C218 1.397 . S
C217 C222 1.363 . S
C218 H195 0.950 . S
C218 C217 1.397 . S
C218 C219 1.334 . S
C219 H196 0.950 . S
C219 C218 1.334 . S
C219 C220 1.287 . S
C220 C219 1.287 . S
C220 C221 1.524 . S
C220 H239 0.913 1_655 S
C221 H197 0.950 . S
C221 C220 1.524 . S
C221 C222 1.415 . S
C222 H198 0.950 . S
C222 C217 1.363 . S
C222 C221 1.415 . S
C223 H199 0.951 1_554 S
C223 C224 1.366 . S
C223 C225 1.388 . S
C224 C223 1.366 . S
C224 C228 1.385 . S
C225 H200 0.951 1_554 S
C225 C223 1.388 . S
C225 C226 1.366 . S
C226 C225 1.366 . S
C226 C227 1.414 . S
C226 C229 1.499 . S
C227 H201 0.950 . S
C227 C226 1.414 . S
C227 C228 1.374 . S
C228 H202 0.950 . S
C228 C224 1.385 . S
C228 C227 1.374 . S
C229 C226 1.499 . S
C229 C230 1.373 . S
C229 C231 1.389 . S
C230 H203 0.950 . S
C230 C216 1.377 . S
C230 C229 1.373 . S
C231 C215 1.377 . S
C231 C229 1.389 . S
C231 C232 1.524 1_554 S
C232 C231 1.524 1_556 S
C232 C233 1.397 1_556 S
C232 C237 1.363 . S
C233 H204 0.950 . S
C233 C232 1.397 1_554 S
C233 C234 1.334 1_554 S
C234 H205 0.950 1_556 S
C234 C233 1.334 1_556 S
C234 C235 1.287 . S
C235 C234 1.287 . S
C235 C236 1.524 . S
C235 H238 0.999 . S
C236 H206 0.950 . S
C236 C235 1.524 . S
C236 C237 1.415 . S
C237 H207 0.950 . S
C237 C232 1.363 . S
C237 C236 1.415 . S
H238 C235 0.999 . S
H239 C220 0.913 1_455 S
H240 C258 0.951 . S
H241 C260 0.951 1_554 S
H242 C262 0.950 . S
H243 C263 0.950 . S
H244 C265 0.950 . S
H245 C268 0.950 . S
H246 C269 0.950 . S
H247 C271 0.950 . S
H248 C272 0.950 . S
H249 C273 0.951 . S
H250 C275 0.951 . S
H251 C277 0.950 . S
H252 C278 0.950 . S
H253 C280 0.950 . S
H254 C283 0.950 . S
H255 C284 0.950 . S
H256 C286 0.950 . S
H257 C287 0.950 . S
C258 H240 0.951 . S
C258 C259 1.366 1_554 S
C258 C260 1.388 1_554 S
C259 C258 1.366 1_556 S
C259 C263 1.385 . S
C260 H241 0.951 1_556 S
C260 C258 1.388 1_556 S
C260 C261 1.366 . S
C261 C260 1.366 . S
C261 C262 1.414 . S
C261 C264 1.499 . S
C262 H242 0.950 . S
C262 C261 1.414 . S
C262 C263 1.374 . S
C263 H243 0.950 . S
C263 C259 1.385 . S
C263 C262 1.374 . S
C264 C261 1.499 . S
C264 C265 1.373 . S
C264 C266 1.389 . S
C265 H244 0.950 . S
C265 C264 1.373 . S
C265 C281 1.377 . S
C266 C264 1.389 . S
C266 C267 1.524 . S
C266 C280 1.377 . S
C267 C266 1.524 . S
C267 C268 1.397 . S
C267 C272 1.363 . S
C268 H245 0.950 . S
C268 C267 1.397 . S
C268 C269 1.334 . S
C269 H246 0.950 . S
C269 C268 1.334 . S
C269 C270 1.287 . S
C270 C269 1.287 . S
C270 C271 1.524 . S
C270 H289 0.913 . S
C271 H247 0.950 . S
C271 C270 1.524 . S
C271 C272 1.415 . S
C272 H248 0.950 . S
C272 C267 1.363 . S
C272 C271 1.415 . S
C273 H249 0.951 . S
C273 C274 1.366 . S
C273 C275 1.388 . S
C274 C273 1.366 . S
C274 C278 1.385 . S
C275 H250 0.951 . S
C275 C273 1.388 . S
C275 C276 1.366 . S
C276 C275 1.366 . S
C276 C277 1.414 . S
C276 C279 1.499 . S
C277 H251 0.950 . S
C277 C276 1.414 . S
C277 C278 1.374 . S
C278 H252 0.950 . S
C278 C274 1.385 . S
C278 C277 1.374 . S
C279 C276 1.499 . S
C279 C280 1.373 . S
C279 C281 1.389 . S
C280 H253 0.950 . S
C280 C266 1.377 . S
C280 C279 1.373 . S
C281 C265 1.377 . S
C281 C279 1.389 . S
C281 C282 1.524 1_556 S
C282 C281 1.524 1_554 S
C282 C283 1.397 . S
C282 C287 1.363 1_554 S
C283 H254 0.950 . S
C283 C282 1.397 . S
C283 C284 1.334 . S
C284 H255 0.950 . S
C284 C283 1.334 . S
C284 C285 1.287 . S
C285 C284 1.287 . S
C285 C286 1.524 . S
C285 H288 0.999 . S
C286 H256 0.950 . S
C286 C285 1.524 . S
C286 C287 1.415 1_554 S
C287 H257 0.950 . S
C287 C282 1.363 1_556 S
C287 C286 1.415 1_556 S
H288 C285 0.999 . S
H289 C270 0.913 . S
H290 C308 0.951 . S
H291 C310 0.951 . S
H292 C312 0.950 . S
H293 C313 0.950 . S
H294 C315 0.950 . S
H295 C318 0.950 . S
H296 C319 0.950 . S
H297 C321 0.950 . S
H298 C322 0.950 . S
H299 C323 0.951 . S
H300 C325 0.951 . S
H301 C327 0.950 . S
H302 C328 0.950 . S
H303 C330 0.950 . S
H304 C333 0.950 . S
H305 C334 0.950 . S
H306 C336 0.950 . S
H307 C337 0.950 . S
C308 H290 0.951 . S
C308 C309 1.366 . S
C308 C310 1.388 . S
C309 C308 1.366 . S
C309 C313 1.385 . S
C310 H291 0.951 . S
C310 C308 1.388 . S
C310 C311 1.366 . S
C311 C310 1.366 . S
C311 C312 1.414 . S
C311 C314 1.499 . S
C312 H292 0.950 . S
C312 C311 1.414 . S
C312 C313 1.374 . S
C313 H293 0.950 . S
C313 C309 1.385 . S
C313 C312 1.374 . S
C314 C311 1.499 . S
C314 C315 1.373 . S
C314 C316 1.389 . S
C315 H294 0.950 . S
C315 C314 1.373 . S
C315 C331 1.377 . S
C316 C314 1.389 . S
C316 C317 1.524 . S
C316 C330 1.377 . S
C317 C316 1.524 . S
C317 C318 1.397 . S
C317 C322 1.363 . S
C318 H295 0.950 . S
C318 C317 1.397 . S
C318 C319 1.334 . S
C319 H296 0.950 . S
C319 C318 1.334 . S
C319 C320 1.287 . S
C320 C319 1.287 . S
C320 C321 1.524 . S
C320 H339 0.913 . S
C321 H297 0.950 . S
C321 C320 1.524 . S
C321 C322 1.415 . S
C322 H298 0.950 . S
C322 C317 1.363 . S
C322 C321 1.415 . S
C323 H299 0.951 . S
C323 C324 1.366 . S
C323 C325 1.388 . S
C324 C323 1.366 . S
C324 C328 1.385 . S
C325 H300 0.951 . S
C325 C323 1.388 . S
C325 C326 1.366 . S
C326 C325 1.366 . S
C326 C327 1.414 . S
C326 C329 1.499 . S
C327 H301 0.950 . S
C327 C326 1.414 . S
C327 C328 1.374 . S
C328 H302 0.950 . S
C328 C324 1.385 . S
C328 C327 1.374 . S
C329 C326 1.499 . S
C329 C330 1.373 . S
C329 C331 1.389 . S
C330 H303 0.950 . S
C330 C316 1.377 . S
C330 C329 1.373 . S
C331 C315 1.377 . S
C331 C329 1.389 . S
C331 C332 1.524 . S
C332 C331 1.524 . S
C332 C333 1.397 . S
C332 C337 1.363 . S
C333 H304 0.950 . S
C333 C332 1.397 . S
C333 C334 1.334 . S
C334 H305 0.950 . S
C334 C333 1.334 . S
C334 C335 1.287 . S
C335 C334 1.287 . S
C335 C336 1.524 . S
C335 H338 0.999 . S
C336 H306 0.950 . S
C336 C335 1.524 . S
C336 C337 1.415 . S
C337 H307 0.950 . S
C337 C332 1.363 . S
C337 C336 1.415 . S
H338 C335 0.999 . S
H339 C320 0.913 . S
H340 C358 0.951 . S
H341 C360 0.951 . S
H342 C362 0.950 . S
H343 C363 0.950 . S
H344 C365 0.950 . S
H345 C368 0.950 . S
H346 C369 0.950 . S
H347 C371 0.950 . S
H348 C372 0.950 . S
H349 C373 0.951 . S
H350 C375 0.951 . S
H351 C377 0.950 . S
H352 C378 0.950 1_455 S
H353 C380 0.950 . S
H354 C383 0.950 . S
H355 C384 0.950 . S
H356 C386 0.950 . S
H357 C387 0.950 . S
C358 H340 0.951 . S
C358 C359 1.366 . S
C358 C360 1.388 . S
C359 C358 1.366 . S
C359 C363 1.385 . S
C360 H341 0.951 . S
C360 C358 1.388 . S
C360 C361 1.366 . S
C361 C360 1.366 . S
C361 C362 1.414 . S
C361 C364 1.499 . S
C362 H342 0.950 . S
C362 C361 1.414 . S
C362 C363 1.374 . S
C363 H343 0.950 . S
C363 C359 1.385 . S
C363 C362 1.374 . S
C364 C361 1.499 . S
C364 C365 1.373 . S
C364 C366 1.389 . S
C365 H344 0.950 . S
C365 C364 1.373 . S
C365 C381 1.377 . S
C366 C364 1.389 . S
C366 C367 1.524 . S
C366 C380 1.377 . S
C367 C366 1.524 . S
C367 C368 1.397 . S
C367 C372 1.363 . S
C368 H345 0.950 . S
C368 C367 1.397 . S
C368 C369 1.334 . S
C369 H346 0.950 . S
C369 C368 1.334 . S
C369 C370 1.287 . S
C370 C369 1.287 . S
C370 C371 1.524 . S
C370 H389 0.913 . S
C371 H347 0.950 . S
C371 C370 1.524 . S
C371 C372 1.415 . S
C372 H348 0.950 . S
C372 C367 1.363 . S
C372 C371 1.415 . S
C373 H349 0.951 . S
C373 C374 1.366 . S
C373 C375 1.388 . S
C374 C373 1.366 . S
C374 C378 1.385 . S
C375 H350 0.951 . S
C375 C373 1.388 . S
C375 C376 1.366 . S
C376 C375 1.366 . S
C376 C377 1.414 . S
C376 C379 1.499 . S
C377 H351 0.950 . S
C377 C376 1.414 . S
C377 C378 1.374 . S
C378 H352 0.950 1_655 S
C378 C374 1.385 . S
C378 C377 1.374 . S
C379 C376 1.499 . S
C379 C380 1.373 . S
C379 C381 1.389 . S
C380 H353 0.950 . S
C380 C366 1.377 . S
C380 C379 1.373 . S
C381 C365 1.377 . S
C381 C379 1.389 . S
C381 C382 1.524 . S
C382 C381 1.524 . S
C382 C383 1.397 . S
C382 C387 1.363 . S
C383 H354 0.950 . S
C383 C382 1.397 . S
C383 C384 1.334 . S
C384 H355 0.950 . S
C384 C383 1.334 . S
C384 C385 1.287 . S
C385 C384 1.287 . S
C385 C386 1.524 . S
C385 H388 0.999 . S
C386 H356 0.950 . S
C386 C385 1.524 . S
C386 C387 1.415 . S
C387 H357 0.950 . S
C387 C382 1.363 . S
C387 C386 1.415 . S
H388 C385 0.999 . S
H389 C370 0.913 . S
H390 C408 0.951 . S
H391 C410 0.951 . S
H392 C412 0.950 . S
H393 C413 0.950 . S
H394 C415 0.950 . S
H395 C418 0.950 . S
H396 C419 0.950 . S
H397 C421 0.950 . S
H398 C422 0.950 . S
H399 C423 0.951 . S
H400 C425 0.951 . S
H401 C427 0.950 . S
H402 C428 0.950 . S
H403 C430 0.950 . S
H404 C433 0.950 . S
H405 C434 0.950 . S
H406 C436 0.950 . S
H407 C437 0.950 . S
C408 H390 0.951 . S
C408 C409 1.366 . S
C408 C410 1.388 . S
C409 C408 1.366 . S
C409 C413 1.385 . S
C410 H391 0.951 . S
C410 C408 1.388 . S
C410 C411 1.366 . S
C411 C410 1.366 . S
C411 C412 1.414 . S
C411 C414 1.499 . S
C412 H392 0.950 . S
C412 C411 1.414 . S
C412 C413 1.374 . S
C413 H393 0.950 . S
C413 C409 1.385 . S
C413 C412 1.374 . S
C414 C411 1.499 . S
C414 C415 1.373 . S
C414 C416 1.389 . S
C415 H394 0.950 . S
C415 C414 1.373 . S
C415 C431 1.377 . S
C416 C414 1.389 . S
C416 C417 1.524 . S
C416 C430 1.377 . S
C417 C416 1.524 . S
C417 C418 1.397 . S
C417 C422 1.363 . S
C418 H395 0.950 . S
C418 C417 1.397 . S
C418 C419 1.334 . S
C419 H396 0.950 . S
C419 C418 1.334 . S
C419 C420 1.287 . S
C420 C419 1.287 . S
C420 C421 1.524 . S
C420 H439 0.913 . S
C421 H397 0.950 . S
C421 C420 1.524 . S
C421 C422 1.415 . S
C422 H398 0.950 . S
C422 C417 1.363 . S
C422 C421 1.415 . S
C423 H399 0.951 . S
C423 C424 1.366 . S
C423 C425 1.388 . S
C424 C423 1.366 . S
C424 C428 1.385 . S
C425 H400 0.951 . S
C425 C423 1.388 . S
C425 C426 1.366 . S
C426 C425 1.366 . S
C426 C427 1.414 . S
C426 C429 1.499 . S
C427 H401 0.950 . S
C427 C426 1.414 . S
C427 C428 1.374 . S
C428 H402 0.950 . S
C428 C424 1.385 . S
C428 C427 1.374 . S
C429 C426 1.499 . S
C429 C430 1.373 . S
C429 C431 1.389 . S
C430 H403 0.950 . S
C430 C416 1.377 . S
C430 C429 1.373 . S
C431 C415 1.377 . S
C431 C429 1.389 . S
C431 C432 1.524 . S
C432 C431 1.524 . S
C432 C433 1.397 . S
C432 C437 1.363 . S
C433 H404 0.950 . S
C433 C432 1.397 . S
C433 C434 1.334 . S
C434 H405 0.950 . S
C434 C433 1.334 . S
C434 C435 1.287 . S
C435 C434 1.287 . S
C435 C436 1.524 . S
C435 H438 0.999 . S
C436 H406 0.950 . S
C436 C435 1.524 . S
C436 C437 1.415 . S
C437 H407 0.950 . S
C437 C432 1.363 . S
C437 C436 1.415 . S
H438 C435 0.999 . S
H439 C420 0.913 . S
H440 C458 0.951 . S
H441 C460 0.951 . S
H442 C462 0.950 . S
H443 C463 0.950 . S
H444 C465 0.950 . S
H445 C468 0.950 . S
H446 C469 0.950 . S
H447 C471 0.950 . S
H448 C472 0.950 . S
H449 C473 0.951 . S
H450 C475 0.951 . S
H451 C477 0.950 . S
H452 C478 0.950 . S
H453 C480 0.950 . S
H454 C483 0.950 . S
H455 C484 0.950 . S
H456 C486 0.950 . S
H457 C487 0.950 . S
C458 H440 0.951 . S
C458 C459 1.366 . S
C458 C460 1.388 . S
C459 C458 1.366 . S
C459 C463 1.385 . S
C460 H441 0.951 . S
C460 C458 1.388 . S
C460 C461 1.366 . S
C461 C460 1.366 . S
C461 C462 1.414 . S
C461 C464 1.499 . S
C462 H442 0.950 . S
C462 C461 1.414 . S
C462 C463 1.374 . S
C463 H443 0.950 . S
C463 C459 1.385 . S
C463 C462 1.374 . S
C464 C461 1.499 . S
C464 C465 1.373 . S
C464 C466 1.389 . S
C465 H444 0.950 . S
C465 C464 1.373 . S
C465 C481 1.377 . S
C466 C464 1.389 . S
C466 C467 1.524 . S
C466 C480 1.377 . S
C467 C466 1.524 . S
C467 C468 1.397 . S
C467 C472 1.363 . S
C468 H445 0.950 . S
C468 C467 1.397 . S
C468 C469 1.334 . S
C469 H446 0.950 . S
C469 C468 1.334 . S
C469 C470 1.287 . S
C470 C469 1.287 . S
C470 C471 1.524 . S
C470 H489 0.913 . S
C471 H447 0.950 . S
C471 C470 1.524 . S
C471 C472 1.415 . S
C472 H448 0.950 . S
C472 C467 1.363 . S
C472 C471 1.415 . S
C473 H449 0.951 . S
C473 C474 1.366 . S
C473 C475 1.388 . S
C474 C473 1.366 . S
C474 C478 1.385 . S
C475 H450 0.951 . S
C475 C473 1.388 . S
C475 C476 1.366 . S
C476 C475 1.366 . S
C476 C477 1.414 . S
C476 C479 1.499 . S
C477 H451 0.950 . S
C477 C476 1.414 . S
C477 C478 1.374 . S
C478 H452 0.950 . S
C478 C474 1.385 . S
C478 C477 1.374 . S
C479 C476 1.499 . S
C479 C480 1.373 . S
C479 C481 1.389 . S
C480 H453 0.950 . S
C480 C466 1.377 . S
C480 C479 1.373 . S
C481 C465 1.377 . S
C481 C479 1.389 . S
C481 C482 1.524 . S
C482 C481 1.524 . S
C482 C483 1.397 . S
C482 C487 1.363 . S
C483 H454 0.950 . S
C483 C482 1.397 . S
C483 C484 1.334 . S
C484 H455 0.950 . S
C484 C483 1.334 . S
C484 C485 1.287 . S
C485 C484 1.287 . S
C485 C486 1.524 . S
C485 H488 0.999 . S
C486 H456 0.950 . S
C486 C485 1.524 . S
C486 C487 1.415 . S
C487 H457 0.950 . S
C487 C482 1.363 . S
C487 C486 1.415 . S
H488 C485 0.999 . S
H489 C470 0.913 . S
H490 C508 0.951 . S
H491 C510 0.951 . S
H492 C512 0.950 1_655 S
H493 C513 0.950 1_655 S
H494 C515 0.937 1_655 S
H495 C518 0.950 . S
H496 C519 0.950 . S
H497 C521 0.950 . S
H498 C522 0.950 . S
H499 C523 0.951 1_655 S
H500 C525 0.951 1_655 S
H501 C527 0.950 . S
H502 C528 0.950 . S
H503 C530 0.950 . S
H504 C533 0.950 . S
H505 C534 0.950 . S
H506 C536 0.950 . S
H507 C537 0.950 . S
C508 H490 0.951 . S
C508 C509 1.366 . S
C508 C510 1.388 . S
C509 C508 1.366 . S
C509 C513 1.385 1_545 S
C510 H491 0.951 . S
C510 C508 1.388 . S
C510 C511 1.366 1_545 S
C511 C510 1.366 1_565 S
C511 C512 1.414 . S
C511 C514 1.499 . S
C512 H492 0.950 1_455 S
C512 C511 1.414 . S
C512 C513 1.374 . S
C513 H493 0.950 1_455 S
C513 C509 1.385 1_565 S
C513 C512 1.374 . S
C514 C511 1.499 . S
C514 C515 1.373 1_565 S
C514 C516 1.389 . S
C515 H494 0.937 1_455 S
C515 C514 1.373 1_545 S
C515 C531 1.377 . S
C516 C514 1.389 . S
C516 C517 1.524 . S
C516 C530 1.377 . S
C517 C516 1.524 . S
C517 C518 1.397 . S
C517 C522 1.363 . S
C518 H495 0.950 . S
C518 C517 1.397 . S
C518 C519 1.334 . S
C519 H496 0.950 . S
C519 C518 1.334 . S
C519 C520 1.287 . S
C520 C519 1.287 . S
C520 C521 1.524 . S
C520 H539 0.913 . S
C521 H497 0.950 . S
C521 C520 1.524 . S
C521 C522 1.415 . S
C522 H498 0.950 . S
C522 C517 1.363 . S
C522 C521 1.415 . S
C523 H499 0.951 1_455 S
C523 C524 1.366 . S
C523 C525 1.388 . S
C524 C523 1.366 . S
C524 C528 1.385 1_565 S
C525 H500 0.951 1_455 S
C525 C523 1.388 . S
C525 C526 1.366 . S
C526 C525 1.366 . S
C526 C527 1.414 1_565 S
C526 C529 1.499 . S
C527 H501 0.950 . S
C527 C526 1.414 1_545 S
C527 C528 1.374 . S
C528 H502 0.950 . S
C528 C524 1.385 1_545 S
C528 C527 1.374 . S
C529 C526 1.499 . S
C529 C530 1.374 . S
C529 C531 1.389 1_565 S
C530 H503 0.950 . S
C530 C516 1.377 . S
C530 C529 1.374 . S
C531 C515 1.377 . S
C531 C529 1.389 1_545 S
C531 C532 1.524 1_455 S
C532 C531 1.524 1_655 S
C532 C533 1.397 1_655 S
C532 C537 1.363 . S
C533 H504 0.950 . S
C533 C532 1.397 1_455 S
C533 C534 1.334 1_455 S
C534 H505 0.950 . S
C534 C533 1.334 1_655 S
C534 C535 1.287 . S
C535 C534 1.287 . S
C535 C536 1.524 . S
C535 H538 0.999 . S
C536 H506 0.950 . S
C536 C535 1.524 . S
C536 C537 1.415 . S
C537 H507 0.950 . S
C537 C532 1.363 . S
C537 C536 1.415 . S
H538 C535 0.999 . S
H539 C520 0.913 . S
H540 C558 0.951 . S
H541 C560 0.951 . S
H542 C562 0.950 . S
H543 C563 0.950 . S
H544 C565 0.950 1_565 S
H545 C568 0.950 . S
H546 C569 0.950 . S
H547 C571 0.950 . S
H548 C572 0.950 . S
H549 C573 0.951 . S
H550 C575 0.951 . S
H551 C577 0.950 . S
H552 C578 0.950 . S
H553 C580 0.950 . S
H554 C583 0.940 1_455 S
H555 C584 0.950 . S
H556 C586 0.950 . S
H557 C587 0.950 . S
C558 H540 0.951 . S
C558 C559 1.366 . S
C558 C560 1.388 . S
C559 C558 1.366 . S
C559 C563 1.385 1_455 S
C560 H541 0.951 . S
C560 C558 1.388 . S
C560 C561 1.366 . S
C561 C560 1.366 . S
C561 C562 1.414 1_455 S
C561 C564 1.499 . S
C562 H542 0.950 . S
C562 C561 1.414 1_655 S
C562 C563 1.374 . S
C563 H543 0.950 . S
C563 C559 1.385 1_655 S
C563 C562 1.374 . S
C564 C561 1.499 . S
C564 C565 1.373 1_455 S
C564 C566 1.389 . S
C565 H544 0.950 1_545 S
C565 C564 1.373 1_655 S
C565 C581 1.377 . S
C566 C564 1.389 . S
C566 C567 1.524 . S
C566 C580 1.377 . S
C567 C566 1.524 . S
C567 C568 1.397 . S
C567 C572 1.363 . S
C568 H545 0.950 . S
C568 C567 1.397 . S
C568 C569 1.334 . S
C569 H546 0.950 . S
C569 C568 1.334 . S
C569 C570 1.287 . S
C570 C569 1.287 . S
C570 C571 1.524 . S
C570 H589 0.913 . S
C571 H547 0.950 . S
C571 C570 1.524 . S
C571 C572 1.415 . S
C572 H548 0.950 . S
C572 C567 1.363 . S
C572 C571 1.415 . S
C573 H549 0.951 . S
C573 C574 1.366 . S
C573 C575 1.388 . S
C574 C573 1.366 . S
C574 C578 1.385 1_655 S
C575 H550 0.951 . S
C575 C573 1.388 . S
C575 C576 1.366 1_655 S
C576 C575 1.366 1_455 S
C576 C577 1.414 . S
C576 C579 1.499 . S
C577 H551 0.950 . S
C577 C576 1.414 . S
C577 C578 1.374 . S
C578 H552 0.950 . S
C578 C574 1.385 1_455 S
C578 C577 1.374 . S
C579 C576 1.499 . S
C579 C580 1.373 . S
C579 C581 1.389 1_455 S
C580 H553 0.950 . S
C580 C566 1.377 . S
C580 C579 1.373 . S
C581 C565 1.377 . S
C581 C579 1.389 1_655 S
C581 C582 1.524 1_545 S
C582 C581 1.524 1_565 S
C582 C583 1.397 . S
C582 C587 1.363 . S
C583 H554 0.940 1_655 S
C583 C582 1.397 . S
C583 C584 1.334 . S
C584 H555 0.950 . S
C584 C583 1.334 . S
C584 C585 1.287 . S
C585 C584 1.287 . S
C585 C586 1.524 . S
C585 H588 0.999 . S
C586 H556 0.950 . S
C586 C585 1.524 . S
C586 C587 1.415 . S
C587 H557 0.950 . S
C587 C582 1.363 . S
C587 C586 1.415 . S
H588 C585 0.999 . S
H589 C570 0.913 . S
H590 C608 0.951 . S
H591 C610 0.951 . S
H592 C612 0.950 . S
H593 C613 0.950 . S
H594 C615 0.950 . S
H595 C618 0.950 . S
H596 C619 0.950 . S
H597 C621 0.950 . S
H598 C622 0.950 . S
H599 C623 0.951 . S
H600 C625 0.951 . S
H601 C627 0.950 . S
H602 C628 0.950 . S
H603 C630 0.950 . S
H604 C633 0.950 . S
H605 C634 0.950 . S
H606 C636 0.950 . S
H607 C637 0.950 . S
C608 H590 0.951 . S
C608 C609 1.366 . S
C608 C610 1.388 . S
C609 C608 1.366 . S
C609 C613 1.385 . S
C610 H591 0.951 . S
C610 C608 1.388 . S
C610 C611 1.366 . S
C611 C610 1.366 . S
C611 C612 1.414 . S
C611 C614 1.499 . S
C612 H592 0.950 . S
C612 C611 1.414 . S
C612 C613 1.374 . S
C613 H593 0.950 . S
C613 C609 1.385 . S
C613 C612 1.374 . S
C614 C611 1.499 . S
C614 C615 1.373 . S
C614 C616 1.389 . S
C615 H594 0.950 . S
C615 C614 1.373 . S
C615 C631 1.377 . S
C616 C614 1.389 . S
C616 C617 1.524 . S
C616 C630 1.377 . S
C617 C616 1.524 . S
C617 C618 1.397 . S
C617 C622 1.363 . S
C618 H595 0.950 . S
C618 C617 1.397 . S
C618 C619 1.334 . S
C619 H596 0.950 . S
C619 C618 1.334 . S
C619 C620 1.287 . S
C620 C619 1.287 . S
C620 C621 1.524 . S
C620 H639 0.913 . S
C621 H597 0.950 . S
C621 C620 1.524 . S
C621 C622 1.415 . S
C622 H598 0.950 . S
C622 C617 1.363 . S
C622 C621 1.415 . S
C623 H599 0.951 . S
C623 C624 1.366 . S
C623 C625 1.388 . S
C624 C623 1.366 . S
C624 C628 1.385 . S
C625 H600 0.951 . S
C625 C623 1.388 . S
C625 C626 1.366 . S
C626 C625 1.366 . S
C626 C627 1.414 . S
C626 C629 1.499 . S
C627 H601 0.950 . S
C627 C626 1.414 . S
C627 C628 1.374 . S
C628 H602 0.950 . S
C628 C624 1.385 . S
C628 C627 1.374 . S
C629 C626 1.499 . S
C629 C630 1.373 . S
C629 C631 1.389 . S
C630 H603 0.950 . S
C630 C616 1.377 . S
C630 C629 1.373 . S
C631 C615 1.377 . S
C631 C629 1.389 . S
C631 C632 1.524 . S
C632 C631 1.524 . S
C632 C633 1.397 . S
C632 C637 1.363 . S
C633 H604 0.950 . S
C633 C632 1.397 . S
C633 C634 1.334 . S
C634 H605 0.950 . S
C634 C633 1.334 . S
C634 C635 1.287 . S
C635 C634 1.287 . S
C635 C636 1.524 . S
C635 H638 0.999 . S
C636 H606 0.950 . S
C636 C635 1.524 . S
C636 C637 1.415 . S
C637 H607 0.950 . S
C637 C632 1.363 . S
C637 C636 1.415 . S
H638 C635 0.999 . S
H639 C620 0.913 . S
H640 C658 0.951 . S
H641 C660 0.951 . S
H642 C662 0.950 . S
H643 C663 0.950 . S
H644 C665 0.950 . S
H645 C668 0.950 . S
H646 C669 0.950 . S
H647 C671 0.950 . S
H648 C672 0.950 . S
H649 C673 0.951 . S
H650 C675 0.951 . S
H651 C677 0.950 . S
H652 C678 0.950 . S
H653 C680 0.950 . S
H654 C683 0.950 . S
H655 C684 0.950 . S
H656 C686 0.950 . S
H657 C687 0.950 . S
C658 H640 0.951 . S
C658 C659 1.366 . S
C658 C660 1.388 . S
C659 C658 1.366 . S
C659 C663 1.385 . S
C660 H641 0.951 . S
C660 C658 1.388 . S
C660 C661 1.366 . S
C661 C660 1.366 . S
C661 C662 1.414 . S
C661 C664 1.499 . S
C662 H642 0.950 . S
C662 C661 1.414 . S
C662 C663 1.374 . S
C663 H643 0.950 . S
C663 C659 1.385 . S
C663 C662 1.374 . S
C664 C661 1.499 . S
C664 C665 1.373 . S
C664 C666 1.389 . S
C665 H644 0.950 . S
C665 C664 1.373 . S
C665 C681 1.377 . S
C666 C664 1.389 . S
C666 C667 1.524 . S
C666 C680 1.377 . S
C667 C666 1.524 . S
C667 C668 1.397 . S
C667 C672 1.363 . S
C668 H645 0.950 . S
C668 C667 1.397 . S
C668 C669 1.334 . S
C669 H646 0.950 . S
C669 C668 1.334 . S
C669 C670 1.287 . S
C670 C669 1.287 . S
C670 C671 1.524 . S
C670 H689 0.913 . S
C671 H647 0.950 . S
C671 C670 1.524 . S
C671 C672 1.415 . S
C672 H648 0.950 . S
C672 C667 1.363 . S
C672 C671 1.415 . S
C673 H649 0.951 . S
C673 C674 1.366 . S
C673 C675 1.388 . S
C674 C673 1.366 . S
C674 C678 1.385 . S
C675 H650 0.951 . S
C675 C673 1.388 . S
C675 C676 1.366 . S
C676 C675 1.366 . S
C676 C677 1.414 . S
C676 C679 1.499 . S
C677 H651 0.950 . S
C677 C676 1.414 . S
C677 C678 1.374 . S
C678 H652 0.950 . S
C678 C674 1.385 . S
C678 C677 1.374 . S
C679 C676 1.499 . S
C679 C680 1.373 . S
C679 C681 1.389 . S
C680 H653 0.950 . S
C680 C666 1.377 . S
C680 C679 1.373 . S
C681 C665 1.377 . S
C681 C679 1.389 . S
C681 C682 1.524 . S
C682 C681 1.524 . S
C682 C683 1.397 . S
C682 C687 1.363 . S
C683 H654 0.950 . S
C683 C682 1.397 . S
C683 C684 1.334 . S
C684 H655 0.950 . S
C684 C683 1.334 . S
C684 C685 1.287 . S
C685 C684 1.287 . S
C685 C686 1.524 . S
C685 H688 0.999 . S
C686 H656 0.950 . S
C686 C685 1.524 . S
C686 C687 1.415 . S
C687 H657 0.950 . S
C687 C682 1.363 . S
C687 C686 1.415 . S
H688 C685 0.999 . S
H689 C670 0.913 . S
C124 C84 1.435 . S
C109 C16 1.293 . S
C159 C15 1.381 . S
C174 C70 1.357 . S
C209 C13 1.236 1_554 S
C224 C82 1.388 . S
C259 C14 1.410 . S
C274 C72 1.440 . S
C309 C37 1.292 . S
C324 C60 1.436 1_565 S
C359 C36 1.381 . S
C374 C46 1.355 . S
C424 C58 1.389 . S
C409 C34 1.249 . S
C474 C48 1.440 . S
C459 C35 1.409 . S
C509 C17 1.588 . S
C524 C51 1.627 . S
C559 C18 1.384 . S
C574 C63 1.411 . S
C624 C75 1.628 . S
C609 C38 1.588 . S
C659 C39 1.383 . S
C674 C87 1.410 . S
