# Generated by pormake.
# Topology zzz, (3,6)-cn, num edge types: 1
# Building blocks:
#     Node 0, Type 0, BuildingBlock: PAMTOO_clean_linker_0, # of connection points: 3
#     Node 1, Type 0, BuildingBlock: PAMTOO_clean_linker_0, # of connection points: 3
#     Node 2, Type 0, BuildingBlock: PAMTOO_clean_linker_0, # of connection points: 3
#     Node 3, Type 0, BuildingBlock: PAMTOO_clean_linker_0, # of connection points: 3
#     Node 4, Type 0, BuildingBlock: PAMTOO_clean_linker_0, # of connection points: 3
#     Node 5, Type 0, BuildingBlock: PAMTOO_clean_linker_0, # of connection points: 3
#     Node 6, Type 0, BuildingBlock: PAMTOO_clean_linker_0, # of connection points: 3
#     Node 7, Type 0, BuildingBlock: PAMTOO_clean_linker_0, # of connection points: 3
#     Node 8, Type 1, BuildingBlock: PAMTUU_clean_sbu_0, # of connection points: 6
#     Node 9, Type 1, BuildingBlock: PAMTUU_clean_sbu_0, # of connection points: 6
#     Node 10, Type 1, BuildingBlock: PAMTUU_clean_sbu_0, # of connection points: 6
#     Node 11, Type 1, BuildingBlock: PAMTUU_clean_sbu_0, # of connection points: 6
#     Edge 12, Type (0, 1), BuildingBlock: OJICUG_clean_linker_0, # of connection points: 2
#     Edge 13, Type (0, 1), BuildingBlock: OJICUG_clean_linker_0, # of connection points: 2
#     Edge 14, Type (0, 1), BuildingBlock: OJICUG_clean_linker_0, # of connection points: 2
#     Edge 15, Type (0, 1), BuildingBlock: OJICUG_clean_linker_0, # of connection points: 2
#     Edge 16, Type (0, 1), BuildingBlock: OJICUG_clean_linker_0, # of connection points: 2
#     Edge 17, Type (0, 1), BuildingBlock: OJICUG_clean_linker_0, # of connection points: 2
#     Edge 18, Type (0, 1), BuildingBlock: OJICUG_clean_linker_0, # of connection points: 2
#     Edge 19, Type (0, 1), BuildingBlock: OJICUG_clean_linker_0, # of connection points: 2
#     Edge 20, Type (0, 1), BuildingBlock: OJICUG_clean_linker_0, # of connection points: 2
#     Edge 21, Type (0, 1), BuildingBlock: OJICUG_clean_linker_0, # of connection points: 2
#     Edge 22, Type (0, 1), BuildingBlock: OJICUG_clean_linker_0, # of connection points: 2
#     Edge 23, Type (0, 1), BuildingBlock: OJICUG_clean_linker_0, # of connection points: 2
#     Edge 24, Type (0, 1), BuildingBlock: OJICUG_clean_linker_0, # of connection points: 2
#     Edge 25, Type (0, 1), BuildingBlock: OJICUG_clean_linker_0, # of connection points: 2
#     Edge 26, Type (0, 1), BuildingBlock: OJICUG_clean_linker_0, # of connection points: 2
#     Edge 27, Type (0, 1), BuildingBlock: OJICUG_clean_linker_0, # of connection points: 2
#     Edge 28, Type (0, 1), BuildingBlock: OJICUG_clean_linker_0, # of connection points: 2
#     Edge 29, Type (0, 1), BuildingBlock: OJICUG_clean_linker_0, # of connection points: 2
#     Edge 30, Type (0, 1), BuildingBlock: OJICUG_clean_linker_0, # of connection points: 2
#     Edge 31, Type (0, 1), BuildingBlock: OJICUG_clean_linker_0, # of connection points: 2
#     Edge 32, Type (0, 1), BuildingBlock: OJICUG_clean_linker_0, # of connection points: 2
#     Edge 33, Type (0, 1), BuildingBlock: OJICUG_clean_linker_0, # of connection points: 2
#     Edge 34, Type (0, 1), BuildingBlock: OJICUG_clean_linker_0, # of connection points: 2
#     Edge 35, Type (0, 1), BuildingBlock: OJICUG_clean_linker_0, # of connection points: 2
# Relax obj value: 0.278
# Max RMSD: 0.253
# Mean RMSD: 0.114
data_MOF--net-zzz--node1-PAMTUU_clean_sbu_0--node2-PAMTOO_clean_linker_0--edge1-OJICUG_clean_linker_0
_symmetry_space_group_name_H-M    P1
_symmetry_Int_Tables_number       1
_symmetry_cell_setting            triclinic
loop_
_symmetry_equiv_pos_as_xyz
'x, y, z'
_cell_length_a     34.578246
_cell_length_b     39.508599
_cell_length_c     11.857644
_cell_angle_alpha  103.00246
_cell_angle_beta   90.049696
_cell_angle_gamma 89.841931
loop_
_atom_site_label
_atom_site_type_symbol
_atom_site_fract_x
_atom_site_fract_y
_atom_site_fract_z
_atom_type_partial_charge
H0 H 0.87625 0.57812 0.49646 0.0
H1 H 0.75591 0.56681 0.40578 0.0
H2 H 0.80565 0.50731 0.63179 0.0
H3 H 0.71981 0.47001 0.45294 0.0
C4 C 0.73272 0.49121 0.41781 0.0
O5 O 0.74246 0.51827 0.51071 0.0
H6 H 0.75922 0.47979 0.37057 0.0
C7 C 0.84791 0.5681 0.50925 0.0
C8 C 0.84493 0.54437 0.58141 0.0
C9 C 0.81654 0.57558 0.44225 0.0
C10 C 0.78044 0.56123 0.45572 0.0
C11 C 0.77674 0.53553 0.51834 0.0
C12 C 0.80887 0.52706 0.58235 0.0
H13 H 0.09111 0.8356 0.43079 0.0
H14 H 0.07176 0.73492 0.20958 0.0
H15 H 1.00273 0.76942 0.51662 0.0
H16 H 1.00906 0.68321 0.44223 0.0
C17 C 1.03025 0.68879 0.37839 0.0
O18 O 1.01743 0.71722 0.339 0.0
H19 H 1.05842 0.69409 0.42481 0.0
C20 C 0.07635 0.81073 0.41302 0.0
C21 C 1.04622 0.80547 0.48555 0.0
C22 C 0.08577 0.7856 0.31348 0.0
C23 C 0.06531 0.75426 0.28774 0.0
C24 C 1.03616 0.74799 0.36278 0.0
C25 C 1.02607 0.77387 0.46087 0.0
H26 H 0.76724 0.07837 0.63752 0.0
H27 H 0.86409 0.05957 0.40484 0.0
H28 H 0.82241 0.97814 0.56001 0.0
H29 H 0.92121 0.97351 0.46678 0.0
C30 C 0.91354 0.99586 0.42855 0.0
O31 O 0.8737 0.99526 0.40999 0.0
H32 H 0.92186 0.01988 0.49213 0.0
C33 C 0.79095 0.06185 0.59825 0.0
C34 C 0.79259 0.02775 0.61438 0.0
C35 C 0.81575 0.07333 0.52057 0.0
C36 C 0.84495 0.05106 0.46509 0.0
C37 C 0.84803 0.01695 0.47894 0.0
C38 C 0.8214 1.00499 0.55305 0.0
H39 H 0.56453 0.68753 0.29747 0.0
H40 H 0.54185 0.75316 0.06057 0.0
H41 H 0.61497 0.78912 0.35857 0.0
H42 H 0.55819 0.84222 0.31308 0.0
C43 C 0.55756 0.83519 0.21677 0.0
O44 O 0.58178 0.80685 0.1783 0.0
H45 H 0.52739 0.82793 0.18911 0.0
C46 C 0.56685 0.71256 0.27443 0.0
C47 C 0.59112 0.73757 0.34002 0.0
C48 C 0.54934 0.71733 0.17303 0.0
C49 C 0.55443 0.74928 0.1404 0.0
C50 C 0.5768 0.77601 0.20997 0.0
C51 C 0.59598 0.76962 0.30861 0.0
H52 H 0.25493 0.42687 0.16174 0.0
H53 H 0.36702 0.43621 0.3263 0.0
H54 H 0.32104 0.51988 0.18955 0.0
H55 H 0.35588 0.51405 0.46573 0.0
C56 C 0.38244 0.51777 0.4167 0.0
O57 O 0.38057 0.49809 0.30338 0.0
H58 H 0.38255 0.54568 0.4138 0.0
C59 C 0.2818 0.44064 0.18586 0.0
C60 C 0.28499 0.47377 0.16307 0.0
C61 C 0.30953 0.42777 0.25336 0.0
C62 C 0.34455 0.44597 0.27822 0.0
C63 C 0.3487 0.47938 0.25882 0.0
C64 C 0.3186 0.49361 0.20158 0.0
H65 H 1.01706 0.18243 0.24342 0.0
H66 H 1.0271 0.28659 0.44989 0.0
H67 H 0.10489 0.25002 0.16474 0.0
H68 H 0.14204 0.31383 0.35921 0.0
C69 C 0.11516 0.31141 0.40804 0.0
O70 O 0.08478 0.30361 0.33078 0.0
H71 H 0.12026 0.29022 0.4546 0.0
C72 C 1.02989 0.20812 0.25903 0.0
C73 C 1.0615 0.21341 0.19197 0.0
C74 C 1.01727 0.23406 0.35282 0.0
C75 C 1.03581 0.26646 0.37612 0.0
C76 C 0.0669 0.27243 0.30691 0.0
C77 C 0.08002 0.24576 0.21527 0.0
H78 H 0.38343 0.06781 0.3593 0.0
H79 H 0.26718 0.0565 0.46974 0.0
H80 H 0.30026 1.01324 0.1166 0.0
H81 H 0.19313 0.02572 0.20445 0.0
C82 C 0.20804 0.03361 0.28921 0.0
O83 O 0.24406 0.01721 0.27925 0.0
H84 H 0.21142 0.06234 0.30683 0.0
C85 C 0.35367 0.0604 0.33868 0.0
C86 C 0.34514 0.04285 0.22474 0.0
C87 C 0.32638 0.0639 0.42865 0.0
C88 C 0.28845 0.05326 0.40131 0.0
C89 C 0.2787 0.03425 0.29108 0.0
C90 C 0.30719 0.02889 0.20143 0.0
H91 H 0.55267 0.33074 0.51815 0.0
H92 H 0.58877 0.26255 0.73434 0.0
H93 H 0.51887 0.22357 0.43031 0.0
H94 H 0.50081 0.19029 0.62067 0.0
C95 C 0.52847 0.19366 0.66985 0.0
O96 O 0.55622 0.2063 0.60568 0.0
H97 H 0.52323 0.2129 0.75267 0.0
C98 C 0.55382 0.30493 0.53585 0.0
C99 C 0.53356 0.27817 0.46365 0.0
C100 C 0.57388 0.2999 0.63277 0.0
C101 C 0.57378 0.26674 0.65838 0.0
C102 C 0.55443 0.23879 0.58442 0.0
C103 C 0.53414 0.2447 0.48669 0.0
Tb104 Tb 1.02253 0.01956 0.78375 0.0
Tb105 Tb 0.09769 0.99741 0.91908 0.0
C106 C 1.01421 1.00153 0.03068 0.0
C107 C 0.96455 0.07614 0.65015 0.0
C108 C 0.96346 0.14189 0.5962 0.0
C109 C 0.92857 0.12479 0.60798 0.0
C110 C 0.92914 0.09222 0.63657 0.0
C111 C 0.99923 0.09285 0.63549 0.0
C112 C 0.9987 0.1254 0.60933 0.0
C113 C 0.96617 0.04408 0.69256 0.0
O114 O 1.05796 0.06573 0.83646 0.0
O115 O 0.08917 0.05254 0.99135 0.0
O116 O 0.12162 0.01638 0.77353 0.0
O117 O 0.06881 1.01011 0.65327 0.0
O118 O 0.12623 0.99241 0.07149 0.0
O119 O 0.15418 0.97748 0.90543 0.0
O120 O 0.07769 0.95014 0.80388 0.0
O121 O 1.01511 0.96384 0.76426 0.0
O122 O 1.00374 0.02158 0.96134 0.0
O123 O 1.04741 0.98464 0.0153 0.0
C124 C 0.07685 0.07535 0.93424 0.0
O125 O 0.9888 0.01962 0.63586 0.0
O126 O 0.97169 0.04932 0.80354 0.0
C127 C 0.1064 1.01408 0.67021 0.0
C128 C 0.16277 0.94075 0.03504 0.0
C129 C 0.16161 0.87453 0.08664 0.0
C130 C 0.16889 0.90448 0.17402 0.0
C131 C 0.1695 0.93725 0.14827 0.0
C132 C 0.15867 0.91068 0.94603 0.0
C133 C 0.15824 0.87788 0.9716 0.0
C134 C 0.15498 0.97546 0.01346 0.0
C135 C 1.04274 0.94101 0.76566 0.0
H136 H 0.90105 0.13677 0.59651 0.0
H137 H 0.90213 0.07982 0.64954 0.0
H138 H 1.02684 0.08093 0.646 0.0
H139 H 1.02606 0.13743 0.59728 0.0
H140 H 0.17108 0.90306 0.26394 0.0
H141 H 0.17269 0.95998 0.21814 0.0
H142 H 0.1536 0.91249 0.85743 0.0
H143 H 0.15306 0.85534 0.9022 0.0
Tb144 Tb 0.55868 0.98614 0.81198 0.0
Tb145 Tb 0.58479 0.03922 0.04382 0.0
C146 C 0.58029 0.95821 0.02461 0.0
C147 C 0.48794 0.95787 0.60983 0.0
C148 C 0.42671 1.0056 0.63373 0.0
C149 C 0.45248 1.00188 0.53996 0.0
C150 C 0.48259 0.97788 0.5272 0.0
C151 C 0.45876 0.95805 0.69318 0.0
C152 C 0.42857 0.98205 0.70578 0.0
C153 C 0.52787 0.94957 0.63763 0.0
O154 O 0.50692 0.99259 0.92363 0.0
O155 O 0.52169 0.04529 0.03852 0.0
O156 O 0.5899 0.06818 0.90893 0.0
O157 O 0.54236 0.03875 0.79592 0.0
O158 O 0.61396 0.04853 0.2028 0.0
O159 O 0.57887 0.08844 0.15496 0.0
O160 O 0.64046 0.02513 0.95306 0.0
O161 O 0.6196 0.99374 0.77527 0.0
O162 O 0.58736 0.9543 0.91405 0.0
O163 O 0.57096 0.98915 0.08674 0.0
C164 C 0.49612 0.02106 0.99758 0.0
O165 O 0.55283 0.97381 0.6311 0.0
O166 O 0.53213 0.93884 0.7333 0.0
C167 C 0.56399 0.06665 0.82737 0.0
C168 C 0.63361 0.10611 0.27106 0.0
C169 C 0.70388 0.13836 0.35025 0.0
C170 C 0.6758 0.13197 0.42927 0.0
C171 C 0.64104 0.11585 0.38969 0.0
C172 C 0.65872 0.11673 0.19298 0.0
C173 C 0.69337 0.13341 0.23272 0.0
C174 C 0.60287 0.08095 0.2305 0.0
C175 C 0.64745 1.00886 0.84439 0.0
H176 H 0.45019 0.01842 0.47868 0.0
H177 H 0.5042 0.97794 0.46107 0.0
H178 H 0.46141 0.94242 0.75705 0.0
H179 H 0.40801 0.98344 0.77556 0.0
H180 H 0.68216 0.13541 0.52052 0.0
H181 H 0.62154 0.10825 0.45113 0.0
H182 H 0.65295 0.10986 0.1008 0.0
H183 H 0.71358 0.13907 0.16976 0.0
Tb184 Tb 0.53007 0.49776 0.98866 0.0
Tb185 Tb 0.59688 0.51909 0.818 0.0
C186 C 0.51032 0.50614 0.73376 0.0
C187 C 0.48445 0.44089 0.15504 0.0
C188 C 0.48961 0.3758 0.2178 0.0
C189 C 0.45333 0.39074 0.20403 0.0
C190 C 0.45083 0.42286 0.17228 0.0
C191 C 0.52061 0.42637 0.17041 0.0
C192 C 0.52317 0.39431 0.20152 0.0
C193 C 0.48194 0.47246 0.10791 0.0
O194 O 0.56857 0.45352 0.94061 0.0
O195 O 0.59416 0.46233 0.77099 0.0
O196 O 0.6289 0.50611 0.9625 0.0
O197 O 0.58075 0.51429 0.0997 0.0
O198 O 0.61901 0.51891 0.65269 0.0
O199 O 0.64748 0.54753 0.80601 0.0
O200 O 0.57573 0.56685 0.92745 0.0
O201 O 0.51655 0.55217 0.9913 0.0
O202 O 0.50504 0.48825 0.8137 0.0
O203 O 0.54146 0.52522 0.73477 0.0
C204 C 0.58578 0.4418 0.84113 0.0
O205 O 0.50525 0.49799 0.15149 0.0
O206 O 0.48161 0.46636 0.99557 0.0
C207 C 0.6177 0.51066 0.07126 0.0
C208 C 0.64232 0.57507 0.65095 0.0
C209 C 0.63752 0.63983 0.58604 0.0
C210 C 0.67357 0.62343 0.59107 0.0
C211 C 0.67592 0.59142 0.62372 0.0
C212 C 0.6064 0.59122 0.64535 0.0
C213 C 0.60401 0.62306 0.61307 0.0
C214 C 0.64454 0.54279 0.69408 0.0
C215 C 0.54115 0.5754 0.9699 0.0
H216 H 0.42687 0.37735 0.21573 0.0
H217 H 0.42264 0.43328 0.15874 0.0
H218 H 0.54701 0.43956 0.15645 0.0
H219 H 0.55162 0.38424 0.21407 0.0
H220 H 0.70001 0.63548 0.57108 0.0
H221 H 0.70399 0.57967 0.62908 0.0
H222 H 0.58006 0.57932 0.66696 0.0
H223 H 0.57562 0.6342 0.60747 0.0
Tb224 Tb 0.08569 0.52334 0.77666 0.0
Tb225 Tb 1.04534 0.48516 0.95391 0.0
C226 C 1.05173 0.56598 1.00841 0.0
C227 C 0.15854 0.51987 0.5773 0.0
C228 C 0.20849 0.46165 0.51167 0.0
C229 C 0.21274 0.48519 0.6191 0.0
C230 C 0.18854 0.51398 0.6508 0.0
C231 C 0.15534 0.49761 0.46744 0.0
C232 C 0.18003 0.46899 0.43483 0.0
C233 C 0.12528 0.54182 0.62704 0.0
O234 O 0.13285 0.49925 0.85511 0.0
O235 O 0.10388 0.49679 0.02557 0.0
O236 O 0.07731 0.44381 0.84116 0.0
O237 O 0.07469 0.46967 0.68841 0.0
O238 O 1.03258 0.4832 0.1254 0.0
O239 O 1.00803 0.44582 0.98194 0.0
O240 O 1.00183 0.48908 0.82072 0.0
O241 O 1.02449 0.5372 0.76669 0.0
O242 O 0.08049 0.56358 0.93494 0.0
O243 O 1.02898 0.53948 1.00718 0.0
C244 C 0.13549 0.49731 0.96406 0.0
O245 O 0.09162 0.52707 0.60318 0.0
O246 O 0.12804 0.55695 0.73663 0.0
C247 C 0.08048 0.44206 0.73009 0.0
C248 C 0.96547 0.47947 0.118 0.0
C249 C 0.91018 0.53326 0.15176 0.0
C250 C 0.91301 0.50982 0.04429 0.0
C251 C 0.94028 0.48308 0.02763 0.0
C252 C 0.96028 0.50115 0.22794 0.0
C253 C 0.93302 0.52782 0.24459 0.0
C254 C 1.0034 0.4627 0.08926 0.0
C255 C 0.99578 0.51598 0.77444 0.0
H256 H 0.23417 0.48133 0.68119 0.0
H257 H 0.19197 0.53034 0.7367 0.0
H258 H 0.13239 0.50126 0.40901 0.0
H259 H 0.17661 0.45285 0.34878 0.0
H260 H 0.89489 0.51274 0.97246 0.0
H261 H 0.94332 0.4668 0.94149 0.0
H262 H 0.97934 0.49917 0.2988 0.0
H263 H 0.93008 0.54443 0.33033 0.0
C264 C 0.14181 0.02943 0.37901 0.0
C265 C 0.18221 0.02498 0.38471 0.0
H266 H 0.08649 0.02908 0.46143 0.0
C267 C 0.19723 0.01601 0.48472 0.0
H268 H 0.12913 0.03678 0.30443 0.0
C269 C 0.17277 1.01239 0.57649 0.0
C270 C 0.13238 0.0171 0.57086 0.0
H271 H 0.22792 1.01194 0.493 0.0
H272 H 0.1856 1.00583 0.65217 0.0
C273 C 0.11729 0.02515 0.46963 0.0
C274 C 0.51914 0.1289 0.65873 0.0
C275 C 0.54081 0.15943 0.69827 0.0
H276 H 0.50939 0.07584 0.66735 0.0
C277 C 0.57165 0.15843 0.7747 0.0
H278 H 0.49504 0.12879 0.60026 0.0
C279 C 0.57979 0.12811 0.81383 0.0
C280 C 0.55726 0.09788 0.77766 0.0
H281 H 0.58869 0.18154 0.80723 0.0
H282 H 0.60322 0.12871 0.8749 0.0
C283 C 0.52729 0.09853 0.69768 0.0
C284 C 0.45296 0.52818 0.4814 0.0
C285 C 0.41813 0.50993 0.48365 0.0
H286 H 0.50892 0.54157 0.5574 0.0
C287 C 0.41539 0.48796 0.56187 0.0
H288 H 0.45611 0.54534 0.42249 0.0
C289 C 0.44556 0.48597 0.64026 0.0
C290 C 0.47961 0.50575 0.64274 0.0
H291 H 0.38906 0.47351 0.56611 0.0
H292 H 0.44162 0.46963 0.70142 0.0
C293 C 0.48319 0.52617 0.5597 0.0
C294 C 0.09478 0.34552 0.60626 0.0
C295 C 0.10699 0.34517 0.49301 0.0
H296 H 0.07724 0.3765 0.77087 0.0
C297 C 0.11031 0.37671 0.45829 0.0
H298 H 0.09158 0.32144 0.63448 0.0
C299 C 0.10174 0.40812 0.53552 0.0
C300 C 0.08975 0.40862 0.64929 0.0
H301 H 0.11944 0.377 0.37113 0.0
H302 H 0.10468 0.43203 0.50607 0.0
C303 C 0.08657 0.377 0.68409 0.0
C304 C 0.9264 1.01303 0.23491 0.0
C305 C 0.9374 0.99453 0.31836 0.0
H306 H 0.94133 0.02952 0.07994 0.0
C307 C 0.97404 0.97827 0.30593 0.0
H308 H 0.89894 0.02652 0.24226 0.0
C309 C 0.99863 0.98 0.21257 0.0
C310 C 0.98769 0.99855 0.12908 0.0
H311 H 0.98405 0.96461 0.37008 0.0
H312 H 1.02656 0.96727 0.20714 0.0
C313 C 0.95102 0.01487 0.14169 0.0
C314 C 0.57785 0.86342 0.05178 0.0
C315 C 0.56874 0.86668 0.16931 0.0
H316 H 0.5893 0.88937 0.91457 0.0
C317 C 0.56495 0.90041 0.23963 0.0
H318 H 0.58003 0.83792 0.99454 0.0
C319 C 0.56989 0.93 0.19388 0.0
C320 C 0.57853 0.92681 0.07596 0.0
H321 H 0.55706 0.90395 0.32994 0.0
H322 H 0.56596 0.95539 0.25061 0.0
C323 C 0.58298 0.89304 1.00596 0.0
C324 C 0.71483 0.5023 0.21991 0.0
C325 C 0.70374 0.50176 0.33375 0.0
H326 H 0.69703 0.5055 0.0491 0.0
C327 C 0.66433 0.50668 0.36258 0.0
H328 H 0.74482 0.49828 0.19407 0.0
C329 C 0.63663 0.51067 0.27906 0.0
C330 C 0.64748 0.5097 0.16361 0.0
H331 H 0.65474 0.50591 0.44866 0.0
H332 H 0.60649 0.51337 0.30435 0.0
C333 C 0.68721 0.5062 0.1363 0.0
C334 C 0.06774 0.65455 0.20732 0.0
C335 C 1.03481 0.65789 0.2783 0.0
H336 H 0.09891 0.62296 0.06563 0.0
C337 C 1.00638 0.63199 0.25522 0.0
H338 H 0.08996 0.67432 0.22333 0.0
C339 C 1.01149 0.60255 0.16572 0.0
C340 C 1.045 0.59859 0.09651 0.0
H341 H 0.98056 0.63421 0.30805 0.0
H342 H 0.98936 0.58267 0.15194 0.0
C343 C 0.07278 0.6252 0.1171 0.0
C344 C 0.95898 0.20216 0.39546 0.0
C345 C 0.9908 0.22354 0.43666 0.0
H346 H 0.92497 0.1587 0.41568 0.0
C347 C 1.00439 0.22495 0.54913 0.0
H348 H 0.94772 0.20095 0.30933 0.0
C349 C 0.99129 0.20084 0.6101 0.0
C350 C 0.96448 0.17522 0.55917 0.0
H351 H 1.02874 0.24128 0.58336 0.0
H352 H 1.00536 0.19968 0.69085 0.0
C353 C 0.94597 0.17793 0.45628 0.0
C354 C 0.37613 0.08303 0.58121 0.0
C355 C 0.34057 0.06656 0.54872 0.0
H356 H 0.43407 0.07456 0.63214 0.0
C357 C 0.32933 0.03978 0.60289 0.0
H358 H 0.38462 0.10537 0.54826 0.0
C359 C 0.35754 0.02201 0.65037 0.0
C360 C 0.39618 0.03224 0.64803 0.0
H361 H 0.30119 0.02768 0.58753 0.0
H362 H 0.34998 0.99744 0.67052 0.0
C363 C 0.40457 0.06519 0.62804 0.0
C364 C 0.57312 0.34516 0.81611 0.0
C365 C 0.59052 0.33153 0.70877 0.0
H366 H 0.55803 0.39091 0.94248 0.0
C367 C 0.61336 0.35364 0.65811 0.0
H368 H 0.55502 0.32889 0.85642 0.0
C369 C 0.61406 0.38947 0.70493 0.0
C370 C 0.59271 0.40373 0.80495 0.0
H371 H 0.62698 0.34374 0.5749 0.0
H372 H 0.62912 0.40612 0.65845 0.0
C373 C 0.57435 0.38094 0.86411 0.0
C374 C 0.30449 0.41769 0.44797 0.0
C375 C 0.29636 0.40449 0.33007 0.0
H376 H 0.28273 0.45231 0.59736 0.0
C377 C 0.25954 0.38933 0.30762 0.0
H378 H 0.33384 0.42375 0.47739 0.0
C379 C 0.22869 0.40513 0.37672 0.0
C380 C 0.2365 0.43235 0.4737 0.0
H381 H 0.25303 0.37321 0.22313 0.0
H382 H 0.19944 0.39904 0.34653 0.0
C383 C 0.27461 0.43457 0.51773 0.0
C384 C 0.1491 0.80946 0.27095 0.0
C385 C 0.11299 0.79554 0.23107 0.0
H386 H 0.19407 0.84495 0.25302 0.0
C387 C 0.09864 0.80075 0.12573 0.0
H388 H 0.16071 0.8056 0.35206 0.0
C389 C 0.11723 0.82379 0.07023 0.0
C390 C 0.15055 0.84171 0.11928 0.0
H391 H 0.07069 0.79044 0.09392 0.0
H392 H 0.10298 0.83037 0.99662 0.0
C393 C 0.1679 0.83227 0.215 0.0
C394 C 0.80041 0.09974 0.35466 0.0
C395 C 0.80395 0.10395 0.4751 0.0
H396 H 0.76558 0.1089 0.21769 0.0
C397 C 0.78501 0.13224 0.54727 0.0
H398 H 0.81537 0.07898 0.29542 0.0
C399 C 0.75603 0.15002 0.50167 0.0
C400 C 0.74546 0.13896 0.38442 0.0
H401 H 0.78863 0.13732 0.64032 0.0
H402 H 0.73821 0.16843 0.56108 0.0
C403 C 0.77136 0.11726 0.30943 0.0
C404 C 0.55293 0.6716 0.99189 0.0
C405 C 0.53331 0.68557 0.09529 0.0
H406 H 0.57068 0.62551 0.87135 0.0
C407 C 0.50867 0.66362 0.14145 0.0
H408 H 0.57231 0.68764 0.95462 0.0
C409 C 0.50815 0.62766 0.09474 0.0
C410 C 0.53221 0.61319 1.00102 0.0
H411 H 0.4933 0.67373 0.22159 0.0
H412 H 0.49186 0.61106 0.13856 0.0
C413 C 0.55252 0.63578 0.94557 0.0
C414 C 0.81307 0.56527 0.23095 0.0
C415 C 0.82471 0.58796 0.33482 0.0
H416 H 0.83418 0.52706 0.08737 0.0
C417 C 0.85883 0.60696 0.33113 0.0
H418 H 0.78515 0.55268 0.22383 0.0
C419 C 0.88752 0.59216 0.25235 0.0
C420 C 0.88 0.56043 0.17409 0.0
H421 H 0.86716 0.62718 0.40501 0.0
H422 H 0.91681 0.60182 0.26641 0.0
C423 C 0.84141 0.5503 0.15171 0.0
C424 C 1.05797 0.17217 1.00073 0.0
C425 C 0.07639 0.18284 0.10812 0.0
H426 H 1.04413 0.12971 0.86009 0.0
C427 C 0.0999 0.15917 0.14907 0.0
H428 H 1.03895 0.18982 0.96909 0.0
C429 C 0.10227 0.12451 0.08842 0.0
C430 C 0.08115 0.113 0.98564 0.0
H431 H 0.11361 0.16674 0.23318 0.0
H432 H 0.11863 0.10636 0.12596 0.0
C433 C 1.0606 0.13759 0.93935 0.0
C434 C 0.40352 0.06506 0.13622 0.0
C435 C 0.3788 0.03698 0.14048 0.0
H436 H 0.45898 0.08219 0.09065 0.0
C437 C 0.39167 1.00341 0.0853 0.0
H438 H 0.39492 0.0913 0.17759 0.0
C439 C 0.42894 0.99812 0.03411 0.0
C440 C 0.4546 0.02619 0.03813 0.0
H441 H 0.37398 0.98104 0.08809 0.0
H442 H 0.43837 0.97185 0.99662 0.0
C443 C 0.44067 0.05978 0.08713 0.0
C444 C 0.47821 0.30838 0.39861 0.0
C445 C 0.51189 0.28833 0.36863 0.0
H446 H 0.44514 0.35233 0.37653 0.0
C447 C 0.5329 0.29228 0.27113 0.0
H448 H 0.46202 0.30648 0.47515 0.0
C449 C 0.52355 0.31889 0.21501 0.0
C450 C 0.49304 0.34218 0.25554 0.0
H451 H 0.55937 0.27769 0.24737 0.0
H452 H 0.54208 0.32284 0.1455 0.0
C453 C 0.46893 0.33513 0.34299 0.0
C454 C 0.2177 0.49906 0.18427 0.0
C455 C 0.24983 0.48736 0.11274 0.0
H456 H 0.15681 0.51104 0.19507 0.0
C457 C 0.2441 0.47997 0.99227 0.0
H458 H 0.2208 0.50392 0.27741 0.0
C459 C 0.20734 0.48379 0.94494 0.0
C460 C 0.17491 0.49461 0.01619 0.0
H461 H 0.26765 0.46952 0.9346 0.0
H462 H 0.20386 0.47668 0.85217 0.0
C463 C 0.18082 0.50259 0.13691 0.0
C464 C 1.06162 0.8447 0.67372 0.0
C465 C 1.03575 0.83492 0.58114 0.0
H466 H 0.08358 0.886 0.80629 0.0
C467 C 1.0076 0.85878 0.56247 0.0
H468 H 0.08399 0.82689 0.6883 0.0
C469 C 1.00762 0.89296 0.62898 0.0
C470 C 1.03611 0.90369 0.71407 0.0
H471 H 0.98797 0.85194 0.48967 0.0
H472 H 0.98745 0.91155 0.6073 0.0
C473 C 1.06172 0.87873 0.73984 0.0
C474 C 0.75152 0.03646 0.79571 0.0
C475 C 0.76022 0.01668 0.68374 0.0
H476 H 0.71017 0.0494 0.93436 0.0
C477 C 0.73288 0.99185 0.63048 0.0
H478 H 0.77151 0.05626 0.83883 0.0
C479 C 0.69715 0.98834 0.68453 0.0
C480 C 0.68765 1.00933 0.79426 0.0
H481 H 0.73798 0.97672 0.54358 0.0
H482 H 0.67632 0.96996 0.63799 0.0
C483 C 0.71607 0.03266 0.8504 0.0
C484 C 0.64613 0.70481 0.39518 0.0
C485 C 0.61372 0.7261 0.43077 0.0
H486 H 0.67869 0.66032 0.41452 0.0
C487 C 0.59467 0.72351 0.53293 0.0
H488 H 0.66069 0.70566 0.31497 0.0
C489 C 0.60484 0.69739 0.59024 0.0
C490 C 0.63395 0.673 0.54555 0.0
H491 H 0.56914 0.73909 0.561 0.0
H492 H 0.5879 0.69473 0.66453 0.0
C493 C 0.65609 0.67843 0.45166 0.0
C494 C 0.89134 0.50313 0.65635 0.0
C495 C 0.88124 0.53682 0.64459 0.0
H496 H 0.93489 0.47002 0.70621 0.0
C497 C 0.90854 0.56351 0.68386 0.0
H498 H 0.8716 0.48172 0.62744 0.0
C499 C 0.94519 0.5566 0.72502 0.0
C500 C 0.95591 0.52286 0.73249 0.0
H501 H 0.90195 0.59009 0.68065 0.0
H502 H 0.96524 0.57794 0.75135 0.0
C503 C 0.92798 0.49633 0.70055 0.0
loop_
_geom_bond_atom_site_label_1
_geom_bond_atom_site_label_2
_geom_bond_distance
_geom_bond_site_symmetry_2
_ccdc_geom_bond_type
H0 C7 0.929 . S
H1 C10 0.930 . S
H2 C12 0.929 . S
H3 C4 0.969 . S
C4 H3 0.969 . S
C4 O5 1.550 . S
C4 H6 0.973 . S
O5 C4 1.550 . S
O5 C11 1.412 . S
H6 C4 0.973 . S
C7 H0 0.929 . S
C7 C8 1.400 . S
C7 C9 1.364 . S
C8 C7 1.400 . S
C8 C12 1.377 . S
C9 C7 1.364 . S
C9 C10 1.374 . S
C10 H1 0.930 . S
C10 C9 1.374 . S
C10 C11 1.383 . S
C11 O5 1.412 . S
C11 C10 1.383 . S
C11 C12 1.394 . S
C12 H2 0.929 . S
C12 C8 1.377 . S
C12 C11 1.394 . S
H13 C20 0.928 1_655 S
H14 C23 0.931 . S
H15 C25 0.928 1_655 S
H16 C17 0.969 . S
C17 H16 0.969 . S
C17 O18 1.550 1_455 S
C17 H19 0.973 1_455 S
O18 C17 1.550 1_655 S
O18 C24 1.404 1_655 S
H19 C17 0.973 1_655 S
C20 H13 0.928 1_455 S
C20 C21 1.400 . S
C20 C22 1.364 . S
C21 C20 1.400 . S
C21 C25 1.377 . S
C22 C20 1.364 . S
C22 C23 1.374 1_455 S
C23 H14 0.931 . S
C23 C22 1.374 1_655 S
C23 C24 1.383 1_655 S
C24 O18 1.404 1_455 S
C24 C23 1.383 1_455 S
C24 C25 1.394 . S
C25 H15 0.928 1_455 S
C25 C21 1.377 . S
C25 C24 1.394 . S
H26 C33 0.928 1_565 S
H27 C36 0.929 . S
H28 C38 0.924 1_565 S
H29 C30 0.969 . S
C30 H29 0.969 . S
C30 O31 1.550 1_545 S
C30 H32 0.973 1_545 S
O31 C30 1.550 1_565 S
O31 C37 1.404 1_565 S
H32 C30 0.973 1_565 S
C33 H26 0.928 1_545 S
C33 C34 1.403 . S
C33 C35 1.363 . S
C34 C33 1.403 . S
C34 C38 1.377 . S
C35 C33 1.363 . S
C35 C36 1.375 1_545 S
C36 H27 0.929 . S
C36 C35 1.375 1_565 S
C36 C37 1.391 1_565 S
C37 O31 1.404 1_545 S
C37 C36 1.391 1_545 S
C37 C38 1.387 . S
C38 H28 0.924 1_545 S
C38 C34 1.377 . S
C38 C37 1.387 . S
H39 C46 0.929 . S
H40 C49 0.930 . S
H41 C51 0.929 . S
H42 C43 0.969 . S
C43 H42 0.969 . S
C43 O44 1.550 1_556 S
C43 H45 0.973 . S
O44 C43 1.550 1_554 S
O44 C50 1.412 . S
H45 C43 0.973 . S
C46 H39 0.929 . S
C46 C47 1.400 . S
C46 C48 1.364 1_554 S
C47 C46 1.400 . S
C47 C51 1.377 . S
C48 C46 1.364 1_556 S
C48 C49 1.374 . S
C49 H40 0.930 . S
C49 C48 1.374 . S
C49 C50 1.383 1_556 S
C50 O44 1.412 . S
C50 C49 1.383 1_554 S
C50 C51 1.394 . S
C51 H41 0.929 . S
C51 C47 1.377 . S
C51 C50 1.394 . S
H52 C59 0.929 . S
H53 C62 0.930 . S
H54 C64 0.929 . S
H55 C56 0.969 . S
C56 H55 0.969 . S
C56 O57 1.550 . S
C56 H58 0.973 . S
O57 C56 1.550 . S
O57 C63 1.412 . S
H58 C56 0.973 . S
C59 H52 0.929 . S
C59 C60 1.400 . S
C59 C61 1.364 . S
C60 C59 1.400 . S
C60 C64 1.377 . S
C61 C59 1.364 . S
C61 C62 1.374 . S
C62 H53 0.930 . S
C62 C61 1.374 . S
C62 C63 1.383 . S
C63 O57 1.412 . S
C63 C62 1.383 . S
C63 C64 1.394 . S
C64 H54 0.929 . S
C64 C60 1.377 . S
C64 C63 1.394 . S
H65 C72 0.928 1_655 S
H66 C75 0.930 . S
H67 C77 0.929 1_655 S
H68 C69 0.969 . S
C69 H68 0.969 . S
C69 O70 1.550 1_455 S
C69 H71 0.973 1_455 S
O70 C69 1.550 1_655 S
O70 C76 1.412 1_655 S
H71 C69 0.973 1_655 S
C72 H65 0.928 1_455 S
C72 C73 1.399 . S
C72 C74 1.364 . S
C73 C72 1.399 . S
C73 C77 1.377 . S
C74 C72 1.364 . S
C74 C75 1.374 1_455 S
C75 H66 0.930 . S
C75 C74 1.374 1_655 S
C75 C76 1.383 1_655 S
C76 O70 1.412 1_455 S
C76 C75 1.383 1_455 S
C76 C77 1.395 . S
C77 H67 0.929 1_455 S
C77 C73 1.377 . S
C77 C76 1.395 . S
H78 C85 0.929 1_565 S
H79 C88 0.930 . S
H80 C90 0.933 1_565 S
H81 C82 0.969 . S
C82 H81 0.969 . S
C82 O83 1.550 1_545 S
C82 H84 0.973 1_545 S
O83 C82 1.550 1_565 S
O83 C89 1.412 1_565 S
H84 C82 0.973 1_565 S
C85 H78 0.929 1_545 S
C85 C86 1.396 . S
C85 C87 1.365 . S
C86 C85 1.396 . S
C86 C90 1.376 . S
C87 C85 1.365 . S
C87 C88 1.374 1_545 S
C88 H79 0.930 . S
C88 C87 1.374 1_565 S
C88 C89 1.383 1_565 S
C89 O83 1.412 1_545 S
C89 C88 1.383 1_545 S
C89 C90 1.392 . S
C90 H80 0.933 1_545 S
C90 C86 1.376 . S
C90 C89 1.392 . S
H91 C98 0.929 . S
H92 C101 0.930 . S
H93 C103 0.929 . S
H94 C95 0.969 . S
C95 H94 0.969 . S
C95 O96 1.550 . S
C95 H97 0.973 . S
O96 C95 1.550 . S
O96 C102 1.412 . S
H97 C95 0.973 . S
C98 H91 0.929 . S
C98 C99 1.400 . S
C98 C100 1.364 . S
C99 C98 1.400 . S
C99 C103 1.377 . S
C100 C98 1.364 . S
C100 C101 1.374 . S
C101 H92 0.930 . S
C101 C100 1.374 . S
C101 C102 1.383 . S
C102 O96 1.412 . S
C102 C101 1.383 . S
C102 C103 1.394 . S
C103 H93 0.929 . S
C103 C99 1.377 . S
C103 C102 1.394 . S
Tb104 C113 2.764 . S
Tb104 O114 2.325 . S
Tb104 O117 2.303 1_655 S
Tb104 O121 2.322 1_545 S
Tb104 O122 2.349 . S
Tb104 O125 2.415 . S
Tb104 O126 2.399 . S
Tb105 O115 2.322 1_566 S
Tb105 O116 2.349 . S
Tb105 O118 2.415 1_556 S
Tb105 O119 2.399 1_556 S
Tb105 O120 2.325 . S
Tb105 O123 2.303 1_455 S
Tb105 C134 2.764 1_556 S
C106 O122 1.261 . S
C106 O123 1.257 1_545 S
C107 C110 1.358 . S
C107 C111 1.332 . S
C107 C113 1.504 . S
C108 C109 1.373 . S
C108 C112 1.308 . S
C109 C108 1.373 . S
C109 C110 1.429 . S
C109 H136 0.932 . S
C110 C107 1.358 . S
C110 C109 1.429 . S
C110 H137 0.930 . S
C111 C107 1.332 . S
C111 C112 1.394 . S
C111 H138 0.932 1_655 S
C112 C108 1.308 . S
C112 C111 1.394 . S
C112 H139 0.929 . S
C113 Tb104 2.764 . S
C113 C107 1.504 . S
C113 O125 1.239 . S
C113 O126 1.263 . S
O114 Tb104 2.325 . S
O114 C124 1.236 1_655 S
O115 Tb105 2.322 1_544 S
O115 C124 1.257 1_554 S
O116 Tb105 2.349 . S
O116 C127 1.261 . S
O117 Tb104 2.303 1_455 S
O117 C127 1.257 1_545 S
O118 Tb105 2.415 1_554 S
O118 C134 1.239 . S
O119 Tb105 2.399 1_554 S
O119 C134 1.263 . S
O120 Tb105 2.325 . S
O120 C135 1.236 1_455 S
O121 Tb104 2.322 1_565 S
O121 C135 1.257 . S
O122 Tb104 2.349 . S
O122 C106 1.261 . S
O123 Tb105 2.303 1_655 S
O123 C106 1.257 1_565 S
C124 O114 1.236 1_455 S
C124 O115 1.257 1_556 S
O125 Tb104 2.415 . S
O125 C113 1.239 . S
O126 Tb104 2.399 . S
O126 C113 1.263 . S
C127 O116 1.261 . S
C127 O117 1.257 1_565 S
C128 C131 1.358 . S
C128 C132 1.332 . S
C128 C134 1.504 . S
C129 C130 1.373 . S
C129 C133 1.308 . S
C130 C129 1.373 . S
C130 C131 1.429 . S
C130 H140 0.932 . S
C131 C128 1.358 . S
C131 C130 1.429 . S
C131 H141 0.930 . S
C132 C128 1.332 . S
C132 C133 1.394 . S
C132 H142 0.932 1_455 S
C133 C129 1.308 . S
C133 C132 1.394 . S
C133 H143 0.929 . S
C134 Tb105 2.764 1_554 S
C134 O118 1.239 . S
C134 O119 1.263 . S
C134 C128 1.504 . S
C135 O120 1.236 1_655 S
C135 O121 1.257 . S
H136 C109 0.932 . S
H137 C110 0.930 . S
H138 C111 0.932 1_455 S
H139 C112 0.929 . S
H140 C130 0.932 . S
H141 C131 0.930 . S
H142 C132 0.932 1_655 S
H143 C133 0.929 . S
Tb144 C153 2.764 . S
Tb144 O154 2.325 . S
Tb144 O157 2.303 1_565 S
Tb144 O161 2.322 . S
Tb144 O162 2.349 . S
Tb144 O165 2.415 1_565 S
Tb144 O166 2.399 . S
Tb145 O155 2.322 . S
Tb145 O156 2.349 1_554 S
Tb145 O158 2.415 1_545 S
Tb145 O159 2.399 . S
Tb145 O160 2.325 1_554 S
Tb145 O163 2.303 1_544 S
Tb145 C174 2.764 . S
C146 O162 1.261 . S
C146 O163 1.257 . S
C147 C150 1.358 . S
C147 C151 1.332 1_565 S
C147 C153 1.504 . S
C148 C149 1.373 . S
C148 C152 1.308 1_565 S
C149 C148 1.373 . S
C149 C150 1.429 . S
C149 H176 0.932 . S
C150 C147 1.358 . S
C150 C149 1.429 . S
C150 H177 0.930 . S
C151 C147 1.332 1_545 S
C151 C152 1.394 . S
C151 H178 0.932 . S
C152 C148 1.308 1_545 S
C152 C151 1.394 . S
C152 H179 0.929 . S
C153 Tb144 2.764 . S
C153 C147 1.504 . S
C153 O165 1.239 1_565 S
C153 O166 1.263 . S
O154 Tb144 2.325 . S
O154 C164 1.236 1_565 S
O155 Tb145 2.322 . S
O155 C164 1.257 1_554 S
O156 Tb145 2.349 1_556 S
O156 C167 1.261 . S
O157 Tb144 2.303 1_545 S
O157 C167 1.257 . S
O158 Tb145 2.415 1_565 S
O158 C174 1.239 1_565 S
O159 Tb145 2.399 . S
O159 C174 1.263 . S
O160 Tb145 2.325 1_556 S
O160 C175 1.236 1_545 S
O161 Tb144 2.322 . S
O161 C175 1.257 . S
O162 Tb144 2.349 . S
O162 C146 1.261 . S
O163 Tb145 2.303 1_566 S
O163 C146 1.257 . S
C164 O154 1.236 1_545 S
C164 O155 1.257 1_556 S
O165 Tb144 2.415 1_545 S
O165 C153 1.239 1_545 S
O166 Tb144 2.399 . S
O166 C153 1.263 . S
C167 O156 1.261 . S
C167 O157 1.257 . S
C168 C171 1.358 . S
C168 C172 1.332 1_545 S
C168 C174 1.504 . S
C169 C170 1.373 . S
C169 C173 1.308 1_545 S
C170 C169 1.373 . S
C170 C171 1.429 . S
C170 H180 0.932 . S
C171 C168 1.358 . S
C171 C170 1.429 . S
C171 H181 0.930 . S
C172 C168 1.332 1_565 S
C172 C173 1.394 . S
C172 H182 0.932 . S
C173 C169 1.308 1_565 S
C173 C172 1.394 . S
C173 H183 0.929 . S
C174 Tb145 2.764 . S
C174 O158 1.239 1_545 S
C174 O159 1.263 . S
C174 C168 1.504 . S
C175 O160 1.236 1_565 S
C175 O161 1.257 . S
H176 C149 0.932 . S
H177 C150 0.930 . S
H178 C151 0.932 . S
H179 C152 0.929 . S
H180 C170 0.932 . S
H181 C171 0.930 . S
H182 C172 0.932 . S
H183 C173 0.929 . S
Tb184 C193 2.764 . S
Tb184 O194 2.325 1_554 S
Tb184 O197 2.303 1_554 S
Tb184 O201 2.322 1_554 S
Tb184 O202 2.349 1_554 S
Tb184 O205 2.415 . S
Tb184 O206 2.399 . S
Tb185 O195 2.322 . S
Tb185 O196 2.349 . S
Tb185 O198 2.415 . S
Tb185 O199 2.399 . S
Tb185 O200 2.325 . S
Tb185 O203 2.303 . S
Tb185 C214 2.764 . S
C186 O202 1.261 . S
C186 O203 1.257 . S
C187 C190 1.358 . S
C187 C191 1.332 . S
C187 C193 1.504 . S
C188 C189 1.373 . S
C188 C192 1.308 . S
C189 C188 1.373 . S
C189 C190 1.429 . S
C189 H216 0.932 . S
C190 C187 1.358 . S
C190 C189 1.429 . S
C190 H217 0.930 . S
C191 C187 1.332 . S
C191 C192 1.394 . S
C191 H218 0.932 . S
C192 C188 1.308 . S
C192 C191 1.394 . S
C192 H219 0.929 . S
C193 Tb184 2.764 . S
C193 C187 1.504 . S
C193 O205 1.239 . S
C193 O206 1.263 . S
O194 Tb184 2.325 1_556 S
O194 C204 1.236 . S
O195 Tb185 2.322 . S
O195 C204 1.257 . S
O196 Tb185 2.349 . S
O196 C207 1.261 . S
O197 Tb184 2.303 1_556 S
O197 C207 1.257 . S
O198 Tb185 2.415 . S
O198 C214 1.239 . S
O199 Tb185 2.399 . S
O199 C214 1.263 . S
O200 Tb185 2.325 . S
O200 C215 1.236 . S
O201 Tb184 2.322 1_556 S
O201 C215 1.257 . S
O202 Tb184 2.349 1_556 S
O202 C186 1.261 . S
O203 Tb185 2.303 . S
O203 C186 1.257 . S
C204 O194 1.236 . S
C204 O195 1.257 . S
O205 Tb184 2.415 . S
O205 C193 1.239 . S
O206 Tb184 2.399 . S
O206 C193 1.263 . S
C207 O196 1.261 . S
C207 O197 1.257 . S
C208 C211 1.358 . S
C208 C212 1.332 . S
C208 C214 1.504 . S
C209 C210 1.373 . S
C209 C213 1.308 . S
C210 C209 1.373 . S
C210 C211 1.429 . S
C210 H220 0.932 . S
C211 C208 1.358 . S
C211 C210 1.429 . S
C211 H221 0.930 . S
C212 C208 1.332 . S
C212 C213 1.394 . S
C212 H222 0.932 . S
C213 C209 1.308 . S
C213 C212 1.394 . S
C213 H223 0.929 . S
C214 Tb185 2.764 . S
C214 O198 1.239 . S
C214 O199 1.263 . S
C214 C208 1.504 . S
C215 O200 1.236 . S
C215 O201 1.257 . S
H216 C189 0.932 . S
H217 C190 0.930 . S
H218 C191 0.932 . S
H219 C192 0.929 . S
H220 C210 0.932 . S
H221 C211 0.930 . S
H222 C212 0.932 . S
H223 C213 0.929 . S
Tb224 C233 2.764 . S
Tb224 O234 2.325 . S
Tb224 O237 2.303 . S
Tb224 O241 2.322 1_455 S
Tb224 O242 2.349 . S
Tb224 O245 2.415 . S
Tb224 O246 2.399 . S
Tb225 O235 2.322 1_655 S
Tb225 O236 2.349 . S
Tb225 O238 2.415 1_556 S
Tb225 O239 2.399 1_556 S
Tb225 O240 2.325 . S
Tb225 O243 2.303 . S
Tb225 C254 2.764 1_556 S
C226 O242 1.261 . S
C226 O243 1.257 1_455 S
C227 C230 1.358 . S
C227 C231 1.332 . S
C227 C233 1.504 . S
C228 C229 1.373 . S
C228 C232 1.308 . S
C229 C228 1.373 . S
C229 C230 1.429 . S
C229 H256 0.932 . S
C230 C227 1.358 . S
C230 C229 1.429 . S
C230 H257 0.930 . S
C231 C227 1.332 . S
C231 C232 1.394 . S
C231 H258 0.932 . S
C232 C228 1.308 . S
C232 C231 1.394 . S
C232 H259 0.929 . S
C233 Tb224 2.764 . S
C233 C227 1.504 . S
C233 O245 1.239 . S
C233 O246 1.263 . S
O234 Tb224 2.325 . S
O234 C244 1.236 . S
O235 Tb225 2.322 1_455 S
O235 C244 1.257 . S
O236 Tb225 2.349 . S
O236 C247 1.261 . S
O237 Tb224 2.303 . S
O237 C247 1.257 1_455 S
O238 Tb225 2.415 1_554 S
O238 C254 1.239 . S
O239 Tb225 2.399 1_554 S
O239 C254 1.263 . S
O240 Tb225 2.325 . S
O240 C255 1.236 . S
O241 Tb224 2.322 1_655 S
O241 C255 1.257 . S
O242 Tb224 2.349 . S
O242 C226 1.261 . S
O243 Tb225 2.303 . S
O243 C226 1.257 1_655 S
C244 O234 1.236 . S
C244 O235 1.257 . S
O245 Tb224 2.415 . S
O245 C233 1.239 . S
O246 Tb224 2.399 . S
O246 C233 1.263 . S
C247 O236 1.261 . S
C247 O237 1.257 1_655 S
C248 C251 1.358 . S
C248 C252 1.332 . S
C248 C254 1.504 . S
C249 C250 1.373 . S
C249 C253 1.308 . S
C250 C249 1.373 . S
C250 C251 1.429 . S
C250 H260 0.932 . S
C251 C248 1.358 . S
C251 C250 1.429 . S
C251 H261 0.930 . S
C252 C248 1.332 . S
C252 C253 1.394 . S
C252 H262 0.932 . S
C253 C249 1.308 . S
C253 C252 1.394 . S
C253 H263 0.929 . S
C254 Tb225 2.764 1_554 S
C254 O238 1.239 . S
C254 O239 1.263 . S
C254 C248 1.504 . S
C255 O240 1.236 . S
C255 O241 1.257 . S
H256 C229 0.932 . S
H257 C230 0.930 . S
H258 C231 0.932 . S
H259 C232 0.929 . S
H260 C250 0.932 . S
H261 C251 0.930 . S
H262 C252 0.932 . S
H263 C253 0.929 . S
C264 C265 1.363 1_565 S
C264 H268 0.950 . S
C264 C273 1.390 . S
C265 C264 1.363 1_545 S
C265 C267 1.405 . S
H266 C273 0.950 . S
C267 C265 1.405 . S
C267 C269 1.390 . S
C267 H271 0.950 . S
H268 C264 0.950 . S
C269 C267 1.390 . S
C269 C270 1.387 . S
C269 H272 0.950 . S
C270 C269 1.387 . S
C270 C273 1.387 1_545 S
H271 C267 0.950 . S
H272 C269 0.950 . S
C273 C264 1.390 . S
C273 H266 0.950 . S
C273 C270 1.387 1_565 S
C274 C275 1.387 . S
C274 H278 0.950 . S
C274 C283 1.390 . S
C275 C274 1.387 . S
C275 C277 1.387 . S
H276 C283 0.950 . S
C277 C275 1.387 . S
C277 C279 1.390 . S
C277 H281 0.950 . S
H278 C274 0.950 . S
C279 C277 1.390 . S
C279 C280 1.387 . S
C279 H282 0.950 1_556 S
C280 C279 1.387 . S
C280 C283 1.387 . S
H281 C277 0.950 . S
H282 C279 0.950 1_554 S
C283 C274 1.390 . S
C283 H276 0.950 . S
C283 C280 1.387 . S
C284 C285 1.387 . S
C284 H288 0.950 . S
C284 C293 1.390 . S
C285 C284 1.387 . S
C285 C287 1.387 . S
H286 C293 0.950 . S
C287 C285 1.387 . S
C287 C289 1.390 . S
C287 H291 0.950 . S
H288 C284 0.950 . S
C289 C287 1.390 . S
C289 C290 1.387 . S
C289 H292 0.950 . S
C290 C289 1.387 . S
C290 C293 1.387 . S
H291 C287 0.950 . S
H292 C289 0.950 . S
C293 C284 1.390 . S
C293 H286 0.950 . S
C293 C290 1.387 . S
C294 C295 1.381 1_655 S
C294 H298 0.950 . S
C294 C303 1.390 . S
C295 C294 1.381 1_455 S
C295 C297 1.394 . S
H296 C303 0.950 . S
C297 C295 1.394 . S
C297 C299 1.390 . S
C297 H301 0.950 . S
H298 C294 0.950 . S
C299 C297 1.390 . S
C299 C300 1.415 . S
C299 H302 0.950 . S
C300 C299 1.415 . S
C300 C303 1.359 1_455 S
H301 C297 0.950 . S
H302 C299 0.950 . S
C303 C294 1.390 . S
C303 H296 0.950 . S
C303 C300 1.359 1_655 S
C304 C305 1.402 . S
C304 H308 0.950 . S
C304 C313 1.390 . S
C305 C304 1.402 . S
C305 C307 1.369 1_565 S
H306 C313 0.950 . S
C307 C305 1.369 1_545 S
C307 C309 1.390 . S
C307 H311 0.950 . S
H308 C304 0.950 . S
C309 C307 1.390 . S
C309 C310 1.387 1_545 S
C309 H312 0.950 . S
C310 C309 1.387 1_565 S
C310 C313 1.387 . S
H311 C307 0.950 . S
H312 C309 0.950 . S
C313 C304 1.390 . S
C313 H306 0.950 . S
C313 C310 1.387 . S
C314 C315 1.387 . S
C314 H318 0.950 . S
C314 C323 1.390 . S
C315 C314 1.387 . S
C315 C317 1.387 1_556 S
H316 C323 0.950 . S
C317 C315 1.387 1_554 S
C317 C319 1.390 . S
C317 H321 0.950 . S
H318 C314 0.950 . S
C319 C317 1.390 . S
C319 C320 1.387 1_554 S
C319 H322 0.950 . S
C320 C319 1.387 1_556 S
C320 C323 1.387 . S
H321 C317 0.950 . S
H322 C319 0.950 . S
C323 C314 1.390 . S
C323 H316 0.950 . S
C323 C320 1.387 . S
C324 C325 1.387 . S
C324 H328 0.950 . S
C324 C333 1.390 . S
C325 C324 1.387 . S
C325 C327 1.387 . S
H326 C333 0.950 . S
C327 C325 1.387 . S
C327 C329 1.390 . S
C327 H331 0.950 . S
H328 C324 0.950 . S
C329 C327 1.390 . S
C329 C330 1.387 . S
C329 H332 0.950 . S
C330 C329 1.387 . S
C330 C333 1.387 . S
H331 C327 0.950 . S
H332 C329 0.950 . S
C333 C324 1.390 . S
C333 H326 0.950 . S
C333 C330 1.387 . S
C334 C335 1.381 1_455 S
C334 H338 0.950 . S
C334 C343 1.390 . S
C335 C334 1.381 1_655 S
C335 C337 1.394 . S
H336 C343 0.950 . S
C337 C335 1.394 . S
C337 C339 1.390 . S
C337 H341 0.950 . S
H338 C334 0.950 . S
C339 C337 1.390 . S
C339 C340 1.415 . S
C339 H342 0.950 . S
C340 C339 1.415 . S
C340 C343 1.359 1_655 S
H341 C337 0.950 . S
H342 C339 0.950 . S
C343 C334 1.390 . S
C343 H336 0.950 . S
C343 C340 1.359 1_455 S
C344 C345 1.387 . S
C344 H348 0.950 . S
C344 C353 1.390 . S
C345 C344 1.387 . S
C345 C347 1.387 . S
H346 C353 0.950 . S
C347 C345 1.387 . S
C347 C349 1.390 . S
C347 H351 0.950 . S
H348 C344 0.950 . S
C349 C347 1.390 . S
C349 C350 1.387 . S
C349 H352 0.950 . S
C350 C349 1.387 . S
C350 C353 1.387 . S
H351 C347 0.950 . S
H352 C349 0.950 . S
C353 C344 1.390 . S
C353 H346 0.950 . S
C353 C350 1.387 . S
C354 C355 1.387 . S
C354 H358 0.950 . S
C354 C363 1.390 . S
C355 C354 1.387 . S
C355 C357 1.387 1_545 S
H356 C363 0.950 . S
C357 C355 1.387 1_565 S
C357 C359 1.390 . S
C357 H361 0.950 . S
H358 C354 0.950 . S
C359 C357 1.390 . S
C359 C360 1.387 . S
C359 H362 0.950 . S
C360 C359 1.387 . S
C360 C363 1.387 1_565 S
H361 C357 0.950 . S
H362 C359 0.950 . S
C363 C354 1.390 . S
C363 H356 0.950 . S
C363 C360 1.387 1_545 S
C364 C365 1.387 . S
C364 H368 0.950 1_556 S
C364 C373 1.390 . S
C365 C364 1.387 . S
C365 C367 1.387 . S
H366 C373 0.950 1_554 S
C367 C365 1.387 . S
C367 C369 1.390 . S
C367 H371 0.950 . S
H368 C364 0.950 1_554 S
C369 C367 1.390 . S
C369 C370 1.387 . S
C369 H372 0.950 . S
C370 C369 1.387 . S
C370 C373 1.387 . S
H371 C367 0.950 . S
H372 C369 0.950 . S
C373 C364 1.390 . S
C373 H366 0.950 1_556 S
C373 C370 1.387 . S
C374 C375 1.387 . S
C374 H378 0.950 . S
C374 C383 1.390 . S
C375 C374 1.387 . S
C375 C377 1.387 . S
H376 C383 0.950 . S
C377 C375 1.387 . S
C377 C379 1.390 . S
C377 H381 0.950 . S
H378 C374 0.950 . S
C379 C377 1.390 . S
C379 C380 1.387 . S
C379 H382 0.950 . S
C380 C379 1.387 . S
C380 C383 1.387 . S
H381 C377 0.950 . S
H382 C379 0.950 . S
C383 C374 1.390 . S
C383 H376 0.950 . S
C383 C380 1.387 . S
C384 C385 1.387 . S
C384 H388 0.950 . S
C384 C393 1.390 . S
C385 C384 1.387 . S
C385 C387 1.387 . S
H386 C393 0.950 . S
C387 C385 1.387 . S
C387 C389 1.390 . S
C387 H391 0.950 1_455 S
H388 C384 0.950 . S
C389 C387 1.390 . S
C389 C390 1.387 . S
C389 H392 0.950 . S
C390 C389 1.387 . S
C390 C393 1.387 . S
H391 C387 0.950 1_655 S
H392 C389 0.950 . S
C393 C384 1.390 . S
C393 H386 0.950 . S
C393 C390 1.387 . S
C394 C395 1.387 . S
C394 H398 0.950 . S
C394 C403 1.387 1_565 S
C395 C394 1.387 . S
C395 C397 1.387 1_565 S
H396 C403 0.949 1_565 S
C397 C395 1.387 1_545 S
C397 C399 1.390 . S
C397 H401 0.950 . S
H398 C394 0.950 . S
C399 C397 1.390 . S
C399 C400 1.387 . S
C399 H402 0.950 . S
C400 C399 1.387 . S
C400 C403 1.392 . S
H401 C397 0.950 . S
H402 C399 0.950 . S
C403 C394 1.387 1_545 S
C403 H396 0.949 1_545 S
C403 C400 1.392 . S
C404 C405 1.387 . S
C404 H408 0.950 1_556 S
C404 C413 1.390 . S
C405 C404 1.387 . S
C405 C407 1.387 . S
H406 C413 0.950 1_554 S
C407 C405 1.387 . S
C407 C409 1.390 . S
C407 H411 0.950 . S
H408 C404 0.950 1_554 S
C409 C407 1.390 . S
C409 C410 1.387 . S
C409 H412 0.950 . S
C410 C409 1.387 . S
C410 C413 1.387 . S
H411 C407 0.950 . S
H412 C409 0.950 . S
C413 C404 1.390 . S
C413 H406 0.950 1_556 S
C413 C410 1.387 . S
C414 C415 1.387 . S
C414 H418 0.950 . S
C414 C423 1.390 . S
C415 C414 1.387 . S
C415 C417 1.387 . S
H416 C423 0.950 . S
C417 C415 1.387 . S
C417 C419 1.390 . S
C417 H421 0.950 . S
H418 C414 0.950 . S
C419 C417 1.390 . S
C419 C420 1.387 . S
C419 H422 0.950 . S
C420 C419 1.387 . S
C420 C423 1.387 . S
H421 C417 0.950 . S
H422 C419 0.950 . S
C423 C414 1.390 . S
C423 H416 0.950 . S
C423 C420 1.387 . S
C424 C425 1.387 1_556 S
C424 H428 0.954 . S
C424 C433 1.390 . S
C425 C424 1.387 1_554 S
C425 C427 1.387 . S
H426 C433 0.950 . S
C427 C425 1.387 . S
C427 C429 1.390 . S
C427 H431 0.950 . S
H428 C424 0.954 . S
C429 C427 1.390 . S
C429 C430 1.387 . S
C429 H432 0.950 . S
C430 C429 1.387 . S
C430 C433 1.387 1_554 S
H431 C427 0.950 . S
H432 C429 0.950 . S
C433 C424 1.390 . S
C433 H426 0.950 . S
C433 C430 1.387 1_556 S
C434 C435 1.387 . S
C434 H438 0.950 . S
C434 C443 1.390 . S
C435 C434 1.387 . S
C435 C437 1.387 1_544 S
H436 C443 0.950 . S
C437 C435 1.387 1_566 S
C437 C439 1.390 . S
C437 H441 0.950 . S
H438 C434 0.950 . S
C439 C437 1.390 . S
C439 C440 1.387 1_565 S
C439 H442 0.950 . S
C440 C439 1.387 1_545 S
C440 C443 1.388 1_556 S
H441 C437 0.950 . S
H442 C439 0.950 . S
C443 C434 1.390 . S
C443 H436 0.950 . S
C443 C440 1.388 1_554 S
C444 C445 1.387 . S
C444 H448 0.950 . S
C444 C453 1.390 . S
C445 C444 1.387 . S
C445 C447 1.387 . S
H446 C453 0.950 . S
C447 C445 1.387 . S
C447 C449 1.390 . S
C447 H451 0.950 . S
H448 C444 0.950 . S
C449 C447 1.390 . S
C449 C450 1.387 . S
C449 H452 0.950 . S
C450 C449 1.387 . S
C450 C453 1.387 . S
H451 C447 0.950 . S
H452 C449 0.950 . S
C453 C444 1.390 . S
C453 H446 0.950 . S
C453 C450 1.387 . S
C454 C455 1.387 1_554 S
C454 H458 0.950 . S
C454 C463 1.390 . S
C455 C454 1.387 1_556 S
C455 C457 1.387 . S
H456 C463 0.950 . S
C457 C455 1.387 . S
C457 C459 1.390 . S
C457 H461 0.950 . S
H458 C454 0.950 . S
C459 C457 1.390 . S
C459 C460 1.387 . S
C459 H462 0.950 . S
C460 C459 1.387 . S
C460 C463 1.387 1_556 S
H461 C457 0.950 . S
H462 C459 0.950 . S
C463 C454 1.390 . S
C463 H456 0.950 . S
C463 C460 1.387 1_554 S
C464 C465 1.387 1_455 S
C464 H468 0.950 . S
C464 C473 1.390 . S
C465 C464 1.387 1_655 S
C465 C467 1.387 . S
H466 C473 0.950 . S
C467 C465 1.387 . S
C467 C469 1.390 . S
C467 H471 0.950 . S
H468 C464 0.950 . S
C469 C467 1.390 . S
C469 C470 1.387 . S
C469 H472 0.950 . S
C470 C469 1.387 . S
C470 C473 1.387 1_655 S
H471 C467 0.950 . S
H472 C469 0.950 . S
C473 C464 1.390 . S
C473 H466 0.950 . S
C473 C470 1.387 1_455 S
C474 C475 1.387 1_545 S
C474 H478 0.950 . S
C474 C483 1.390 . S
C475 C474 1.387 1_565 S
C475 C477 1.387 . S
H476 C483 0.950 . S
C477 C475 1.387 . S
C477 C479 1.390 . S
C477 H481 0.950 . S
H478 C474 0.950 . S
C479 C477 1.390 . S
C479 C480 1.387 . S
C479 H482 0.950 . S
C480 C479 1.387 . S
C480 C483 1.387 1_565 S
H481 C477 0.950 . S
H482 C479 0.950 . S
C483 C474 1.390 . S
C483 H476 0.950 . S
C483 C480 1.387 1_545 S
C484 C485 1.387 . S
C484 H488 0.950 . S
C484 C493 1.390 . S
C485 C484 1.387 . S
C485 C487 1.387 . S
H486 C493 0.950 . S
C487 C485 1.387 . S
C487 C489 1.390 . S
C487 H491 0.950 . S
H488 C484 0.950 . S
C489 C487 1.390 . S
C489 C490 1.387 . S
C489 H492 0.950 . S
C490 C489 1.387 . S
C490 C493 1.387 . S
H491 C487 0.950 . S
H492 C489 0.950 . S
C493 C484 1.390 . S
C493 H486 0.950 . S
C493 C490 1.387 . S
C494 C495 1.387 . S
C494 H498 0.950 . S
C494 C503 1.390 . S
C495 C494 1.387 . S
C495 C497 1.387 . S
H496 C503 0.950 . S
C497 C495 1.387 . S
C497 C499 1.390 . S
C497 H501 0.950 . S
H498 C494 0.950 . S
C499 C497 1.390 . S
C499 C500 1.387 . S
C499 H502 0.950 . S
C500 C499 1.387 . S
C500 C503 1.387 . S
H501 C497 0.950 . S
H502 C499 0.950 . S
C503 C494 1.390 . S
C503 H496 0.950 . S
C503 C500 1.387 . S
C265 C82 1.828 . S
C270 C127 2.266 1_545 S
C280 C167 1.813 . S
C275 C95 1.781 . S
C290 C186 2.277 . S
C285 C56 1.891 . S
C300 C247 1.562 1_455 S
C295 C69 1.258 . S
C310 C106 2.267 1_564 S
C305 C30 1.830 1_565 S
C315 C43 1.728 . S
C320 C146 1.817 . S
C325 C4 1.806 . S
C330 C207 2.277 1_554 S
C335 C17 1.251 1_655 S
C340 C226 1.561 1_654 S
C350 C108 1.154 . S
C345 C74 1.217 1_655 S
C360 C148 0.596 . S
C355 C87 0.583 . S
C370 C204 1.374 . S
C365 C100 1.193 . S
C375 C61 0.715 . S
C380 C228 0.713 . S
C385 C22 1.218 . S
C390 C129 1.159 . S
C400 C169 0.596 . S
C395 C35 0.593 1_565 S
C410 C215 1.374 . S
C405 C48 1.190 . S
C415 C9 0.721 . S
C420 C249 0.725 . S
C425 C73 1.639 . S
C430 C124 1.851 1_554 S
C435 C86 2.323 . S
C440 C164 2.583 . S
C450 C188 1.639 . S
C445 C99 1.673 . S
C460 C244 2.573 . S
C455 C60 2.313 1_556 S
C465 C21 1.642 1_655 S
C470 C135 1.857 . S
C480 C175 2.582 . S
C475 C34 2.318 1_565 S
C490 C209 1.639 . S
C485 C47 1.681 . S
C495 C8 2.316 . S
C500 C255 2.578 . S
