# Generated by pormake.
# Topology llk, (3,12)-cn, num edge types: 1
# Building blocks:
#     Node 0, Type 0, BuildingBlock: PAMTOO_clean_linker_0, # of connection points: 3
#     Node 1, Type 0, BuildingBlock: PAMTOO_clean_linker_0, # of connection points: 3
#     Node 2, Type 0, BuildingBlock: PAMTOO_clean_linker_0, # of connection points: 3
#     Node 3, Type 0, BuildingBlock: PAMTOO_clean_linker_0, # of connection points: 3
#     Node 4, Type 0, BuildingBlock: PAMTOO_clean_linker_0, # of connection points: 3
#     Node 5, Type 0, BuildingBlock: PAMTOO_clean_linker_0, # of connection points: 3
#     Node 6, Type 0, BuildingBlock: PAMTOO_clean_linker_0, # of connection points: 3
#     Node 7, Type 0, BuildingBlock: PAMTOO_clean_linker_0, # of connection points: 3
#     Node 8, Type 0, BuildingBlock: PAMTOO_clean_linker_0, # of connection points: 3
#     Node 9, Type 0, BuildingBlock: PAMTOO_clean_linker_0, # of connection points: 3
#     Node 10, Type 0, BuildingBlock: PAMTOO_clean_linker_0, # of connection points: 3
#     Node 11, Type 0, BuildingBlock: PAMTOO_clean_linker_0, # of connection points: 3
#     Node 12, Type 0, BuildingBlock: PAMTOO_clean_linker_0, # of connection points: 3
#     Node 13, Type 0, BuildingBlock: PAMTOO_clean_linker_0, # of connection points: 3
#     Node 14, Type 0, BuildingBlock: PAMTOO_clean_linker_0, # of connection points: 3
#     Node 15, Type 0, BuildingBlock: PAMTOO_clean_linker_0, # of connection points: 3
#     Node 16, Type 0, BuildingBlock: PAMTOO_clean_linker_0, # of connection points: 3
#     Node 17, Type 0, BuildingBlock: PAMTOO_clean_linker_0, # of connection points: 3
#     Node 18, Type 0, BuildingBlock: PAMTOO_clean_linker_0, # of connection points: 3
#     Node 19, Type 0, BuildingBlock: PAMTOO_clean_linker_0, # of connection points: 3
#     Node 20, Type 0, BuildingBlock: PAMTOO_clean_linker_0, # of connection points: 3
#     Node 21, Type 0, BuildingBlock: PAMTOO_clean_linker_0, # of connection points: 3
#     Node 22, Type 0, BuildingBlock: PAMTOO_clean_linker_0, # of connection points: 3
#     Node 23, Type 0, BuildingBlock: PAMTOO_clean_linker_0, # of connection points: 3
#     Node 24, Type 1, BuildingBlock: EZIPEK_clean_sbu_0, # of connection points: 12
#     Node 25, Type 1, BuildingBlock: EZIPEK_clean_sbu_0, # of connection points: 12
#     Node 26, Type 1, BuildingBlock: EZIPEK_clean_sbu_0, # of connection points: 12
#     Node 27, Type 1, BuildingBlock: EZIPEK_clean_sbu_0, # of connection points: 12
#     Node 28, Type 1, BuildingBlock: EZIPEK_clean_sbu_0, # of connection points: 12
#     Node 29, Type 1, BuildingBlock: EZIPEK_clean_sbu_0, # of connection points: 12
#     Edge 30, Type (0, 1), BuildingBlock: ZUJKAS_clean_linker_0, # of connection points: 2
#     Edge 31, Type (0, 1), BuildingBlock: ZUJKAS_clean_linker_0, # of connection points: 2
#     Edge 32, Type (0, 1), BuildingBlock: ZUJKAS_clean_linker_0, # of connection points: 2
#     Edge 33, Type (0, 1), BuildingBlock: ZUJKAS_clean_linker_0, # of connection points: 2
#     Edge 34, Type (0, 1), BuildingBlock: ZUJKAS_clean_linker_0, # of connection points: 2
#     Edge 35, Type (0, 1), BuildingBlock: ZUJKAS_clean_linker_0, # of connection points: 2
#     Edge 36, Type (0, 1), BuildingBlock: ZUJKAS_clean_linker_0, # of connection points: 2
#     Edge 37, Type (0, 1), BuildingBlock: ZUJKAS_clean_linker_0, # of connection points: 2
#     Edge 38, Type (0, 1), BuildingBlock: ZUJKAS_clean_linker_0, # of connection points: 2
#     Edge 39, Type (0, 1), BuildingBlock: ZUJKAS_clean_linker_0, # of connection points: 2
#     Edge 40, Type (0, 1), BuildingBlock: ZUJKAS_clean_linker_0, # of connection points: 2
#     Edge 41, Type (0, 1), BuildingBlock: ZUJKAS_clean_linker_0, # of connection points: 2
#     Edge 42, Type (0, 1), BuildingBlock: ZUJKAS_clean_linker_0, # of connection points: 2
#     Edge 43, Type (0, 1), BuildingBlock: ZUJKAS_clean_linker_0, # of connection points: 2
#     Edge 44, Type (0, 1), BuildingBlock: ZUJKAS_clean_linker_0, # of connection points: 2
#     Edge 45, Type (0, 1), BuildingBlock: ZUJKAS_clean_linker_0, # of connection points: 2
#     Edge 46, Type (0, 1), BuildingBlock: ZUJKAS_clean_linker_0, # of connection points: 2
#     Edge 47, Type (0, 1), BuildingBlock: ZUJKAS_clean_linker_0, # of connection points: 2
#     Edge 48, Type (0, 1), BuildingBlock: ZUJKAS_clean_linker_0, # of connection points: 2
#     Edge 49, Type (0, 1), BuildingBlock: ZUJKAS_clean_linker_0, # of connection points: 2
#     Edge 50, Type (0, 1), BuildingBlock: ZUJKAS_clean_linker_0, # of connection points: 2
#     Edge 51, Type (0, 1), BuildingBlock: ZUJKAS_clean_linker_0, # of connection points: 2
#     Edge 52, Type (0, 1), BuildingBlock: ZUJKAS_clean_linker_0, # of connection points: 2
#     Edge 53, Type (0, 1), BuildingBlock: ZUJKAS_clean_linker_0, # of connection points: 2
#     Edge 54, Type (0, 1), BuildingBlock: ZUJKAS_clean_linker_0, # of connection points: 2
#     Edge 55, Type (0, 1), BuildingBlock: ZUJKAS_clean_linker_0, # of connection points: 2
#     Edge 56, Type (0, 1), BuildingBlock: ZUJKAS_clean_linker_0, # of connection points: 2
#     Edge 57, Type (0, 1), BuildingBlock: ZUJKAS_clean_linker_0, # of connection points: 2
#     Edge 58, Type (0, 1), BuildingBlock: ZUJKAS_clean_linker_0, # of connection points: 2
#     Edge 59, Type (0, 1), BuildingBlock: ZUJKAS_clean_linker_0, # of connection points: 2
#     Edge 60, Type (0, 1), BuildingBlock: ZUJKAS_clean_linker_0, # of connection points: 2
#     Edge 61, Type (0, 1), BuildingBlock: ZUJKAS_clean_linker_0, # of connection points: 2
#     Edge 62, Type (0, 1), BuildingBlock: ZUJKAS_clean_linker_0, # of connection points: 2
#     Edge 63, Type (0, 1), BuildingBlock: ZUJKAS_clean_linker_0, # of connection points: 2
#     Edge 64, Type (0, 1), BuildingBlock: ZUJKAS_clean_linker_0, # of connection points: 2
#     Edge 65, Type (0, 1), BuildingBlock: ZUJKAS_clean_linker_0, # of connection points: 2
#     Edge 66, Type (0, 1), BuildingBlock: ZUJKAS_clean_linker_0, # of connection points: 2
#     Edge 67, Type (0, 1), BuildingBlock: ZUJKAS_clean_linker_0, # of connection points: 2
#     Edge 68, Type (0, 1), BuildingBlock: ZUJKAS_clean_linker_0, # of connection points: 2
#     Edge 69, Type (0, 1), BuildingBlock: ZUJKAS_clean_linker_0, # of connection points: 2
#     Edge 70, Type (0, 1), BuildingBlock: ZUJKAS_clean_linker_0, # of connection points: 2
#     Edge 71, Type (0, 1), BuildingBlock: ZUJKAS_clean_linker_0, # of connection points: 2
#     Edge 72, Type (0, 1), BuildingBlock: ZUJKAS_clean_linker_0, # of connection points: 2
#     Edge 73, Type (0, 1), BuildingBlock: ZUJKAS_clean_linker_0, # of connection points: 2
#     Edge 74, Type (0, 1), BuildingBlock: ZUJKAS_clean_linker_0, # of connection points: 2
#     Edge 75, Type (0, 1), BuildingBlock: ZUJKAS_clean_linker_0, # of connection points: 2
#     Edge 76, Type (0, 1), BuildingBlock: ZUJKAS_clean_linker_0, # of connection points: 2
#     Edge 77, Type (0, 1), BuildingBlock: ZUJKAS_clean_linker_0, # of connection points: 2
#     Edge 78, Type (0, 1), BuildingBlock: ZUJKAS_clean_linker_0, # of connection points: 2
#     Edge 79, Type (0, 1), BuildingBlock: ZUJKAS_clean_linker_0, # of connection points: 2
#     Edge 80, Type (0, 1), BuildingBlock: ZUJKAS_clean_linker_0, # of connection points: 2
#     Edge 81, Type (0, 1), BuildingBlock: ZUJKAS_clean_linker_0, # of connection points: 2
#     Edge 82, Type (0, 1), BuildingBlock: ZUJKAS_clean_linker_0, # of connection points: 2
#     Edge 83, Type (0, 1), BuildingBlock: ZUJKAS_clean_linker_0, # of connection points: 2
#     Edge 84, Type (0, 1), BuildingBlock: ZUJKAS_clean_linker_0, # of connection points: 2
#     Edge 85, Type (0, 1), BuildingBlock: ZUJKAS_clean_linker_0, # of connection points: 2
#     Edge 86, Type (0, 1), BuildingBlock: ZUJKAS_clean_linker_0, # of connection points: 2
#     Edge 87, Type (0, 1), BuildingBlock: ZUJKAS_clean_linker_0, # of connection points: 2
#     Edge 88, Type (0, 1), BuildingBlock: ZUJKAS_clean_linker_0, # of connection points: 2
#     Edge 89, Type (0, 1), BuildingBlock: ZUJKAS_clean_linker_0, # of connection points: 2
#     Edge 90, Type (0, 1), BuildingBlock: ZUJKAS_clean_linker_0, # of connection points: 2
#     Edge 91, Type (0, 1), BuildingBlock: ZUJKAS_clean_linker_0, # of connection points: 2
#     Edge 92, Type (0, 1), BuildingBlock: ZUJKAS_clean_linker_0, # of connection points: 2
#     Edge 93, Type (0, 1), BuildingBlock: ZUJKAS_clean_linker_0, # of connection points: 2
#     Edge 94, Type (0, 1), BuildingBlock: ZUJKAS_clean_linker_0, # of connection points: 2
#     Edge 95, Type (0, 1), BuildingBlock: ZUJKAS_clean_linker_0, # of connection points: 2
#     Edge 96, Type (0, 1), BuildingBlock: ZUJKAS_clean_linker_0, # of connection points: 2
#     Edge 97, Type (0, 1), BuildingBlock: ZUJKAS_clean_linker_0, # of connection points: 2
#     Edge 98, Type (0, 1), BuildingBlock: ZUJKAS_clean_linker_0, # of connection points: 2
#     Edge 99, Type (0, 1), BuildingBlock: ZUJKAS_clean_linker_0, # of connection points: 2
#     Edge 100, Type (0, 1), BuildingBlock: ZUJKAS_clean_linker_0, # of connection points: 2
#     Edge 101, Type (0, 1), BuildingBlock: ZUJKAS_clean_linker_0, # of connection points: 2
# Relax obj value: 0.068
# Max RMSD: 0.163
# Mean RMSD: 0.123
data_MOF--net-llk--node1-EZIPEK_clean_sbu_0--node2-PAMTOO_clean_linker_0--edge1-ZUJKAS_clean_linker_0
_symmetry_space_group_name_H-M    P1
_symmetry_Int_Tables_number       1
_symmetry_cell_setting            triclinic
loop_
_symmetry_equiv_pos_as_xyz
'x, y, z'
_cell_length_a     58.887114
_cell_length_b     60.124822
_cell_length_c     59.528169
_cell_angle_alpha  90.024893
_cell_angle_beta   89.968349
_cell_angle_gamma 90.007648
loop_
_atom_site_label
_atom_site_type_symbol
_atom_site_fract_x
_atom_site_fract_y
_atom_site_fract_z
_atom_type_partial_charge
H0 H 0.01453 0.32094 0.25558 0.0
H1 H 0.02133 0.26158 0.29519 0.0
H2 H 0.01506 0.25671 0.22336 0.0
H3 H 0.99677 0.21039 0.25204 0.0
C4 C 0.00103 0.22068 0.26697 0.0
O5 O 0.01946 0.23405 0.26168 0.0
H6 H 0.98566 0.23086 0.27069 0.0
C7 C 0.01556 0.30295 0.25658 0.0
C8 C 0.01444 0.29027 0.2368 0.0
C9 C 0.01799 0.2928 0.27764 0.0
C10 C 0.01925 0.26959 0.27902 0.0
C11 C 0.01802 0.25651 0.25963 0.0
C12 C 0.01583 0.26684 0.23839 0.0
H13 H 0.76982 0.0207 0.3152 0.0
H14 H 0.72832 0.01014 0.25693 0.0
H15 H 0.80106 1.0084 0.25096 0.0
H16 H 0.77602 0.02207 0.20341 0.0
C17 C 0.7599 0.02115 0.21308 0.0
O18 O 0.76212 1.00459 0.22908 0.0
H19 H 0.75713 0.03769 0.22107 0.0
C20 C 0.76833 0.01796 0.29725 0.0
C21 C 0.78806 0.01532 0.28431 0.0
C22 C 0.74674 0.01594 0.2876 0.0
C23 C 0.74492 0.01149 0.26457 0.0
C24 C 0.76439 1.00897 0.2513 0.0
C25 C 0.78602 0.01063 0.2612 0.0
H26 H 0.01322 0.76166 0.3177 0.0
H27 H 0.02179 0.72169 0.25836 0.0
H28 H 0.01564 0.79268 0.25252 0.0
H29 H 0.99789 0.76386 0.20576 0.0
C30 C 0.00167 0.74926 0.21658 0.0
O31 O 0.02004 0.75444 0.23018 0.0
H32 H 0.98607 0.74621 0.22676 0.0
C33 C 0.0148 0.76037 0.2996 0.0
C34 C 0.01422 0.77981 0.28654 0.0
C35 C 0.01753 0.73935 0.28969 0.0
C36 C 0.0194 0.73775 0.26627 0.0
C37 C 0.01838 0.75677 0.25281 0.0
C38 C 0.0161 0.77792 0.26294 0.0
H39 H 0.32412 0.01406 0.25274 0.0
H40 H 0.26359 1.00122 0.29115 0.0
H41 H 0.25961 1.00794 0.21939 0.0
H42 H 0.20743 0.01608 0.24637 0.0
C43 C 0.22056 0.01758 0.25966 0.0
O44 O 0.23642 1.00088 0.25652 0.0
H45 H 0.22854 0.0343 0.25777 0.0
C46 C 0.3059 0.01149 0.2535 0.0
C47 C 0.29323 0.0117 0.23357 0.0
C48 C 0.29552 1.00754 0.27433 0.0
C49 C 0.27193 1.00439 0.27524 0.0
C50 C 0.25902 1.00468 0.25548 0.0
C51 C 0.26967 1.00806 0.23462 0.0
H52 H 0.02381 0.69899 0.75713 0.0
H53 H 0.02355 0.75882 0.71757 0.0
H54 H 0.01985 0.76293 0.7896 0.0
H55 H 0.99916 0.80997 0.76038 0.0
C56 C 0.00275 0.79863 0.74609 0.0
O57 O 0.0217 0.78597 0.7513 0.0
H58 H 0.98744 0.7879 0.7441 0.0
C59 C 0.02344 0.717 0.75614 0.0
C60 C 0.02217 0.72949 0.77603 0.0
C61 C 0.02368 0.72732 0.73502 0.0
C62 C 0.02286 0.75058 0.73374 0.0
C63 C 0.02136 0.76346 0.75324 0.0
C64 C 0.02071 0.75293 0.77449 0.0
H65 H 0.32306 0.01201 0.75543 0.0
H66 H 0.25975 0.0174 0.71988 0.0
H67 H 0.25976 1.00756 0.79138 0.0
H68 H 0.21041 0.99029 0.76631 0.0
C69 C 0.22165 0.99318 0.7516 0.0
O70 O 0.23424 0.01222 0.75539 0.0
H71 H 0.23272 0.9782 0.75016 0.0
C72 C 0.30465 0.0122 0.75551 0.0
C73 C 0.29297 1.00943 0.77587 0.0
C74 C 0.29289 0.0151 0.73525 0.0
C75 C 0.26909 0.01514 0.73538 0.0
C76 C 0.25719 0.01234 0.75556 0.0
C77 C 0.2691 0.00971 0.77584 0.0
H78 H 0.01391 0.25868 0.69431 0.0
H79 H 0.02164 0.29835 0.75392 0.0
H80 H 0.0158 0.22729 0.75937 0.0
H81 H 0.99785 0.25587 0.80633 0.0
C82 C 0.00153 0.27049 0.7955 0.0
O83 O 0.01998 0.26545 0.78194 0.0
H84 H 0.98594 0.27338 0.7853 0.0
C85 C 0.01529 0.25984 0.71244 0.0
C86 C 0.01462 0.24033 0.72539 0.0
C87 C 0.01776 0.2808 0.72251 0.0
C88 C 0.01944 0.2823 0.74593 0.0
C89 C 0.01844 0.26321 0.75928 0.0
C90 C 0.01631 0.2421 0.74903 0.0
H91 H 0.76532 0.0108 0.69715 0.0
H92 H 0.72844 0.0175 0.75918 0.0
H93 H 0.80103 0.00992 0.76022 0.0
H94 H 0.77586 0.9953 0.8102 0.0
C95 C 0.76117 0.99655 0.79856 0.0
O96 O 0.76422 0.01491 0.78492 0.0
H97 H 0.76098 0.98084 0.78861 0.0
C98 C 0.76517 0.0116 0.71535 0.0
C99 C 0.78567 0.0098 0.72718 0.0
C100 C 0.74448 0.01449 0.72664 0.0
C101 C 0.74428 0.0153 0.75018 0.0
C102 C 0.76463 0.01365 0.76224 0.0
C103 C 0.78536 0.01112 0.75077 0.0
H104 H 0.26289 0.32047 1.00212 0.0
H105 H 0.3045 0.26174 1.00157 0.0
H106 H 0.23175 0.25576 0.99893 0.0
H107 H 0.2585 0.21023 0.02023 0.0
C108 C 0.27413 0.22024 0.01751 0.0
O109 O 0.27091 0.23376 0.99896 0.0
H110 H 0.27672 0.23027 0.03305 0.0
C111 C 0.26441 0.30249 1.00179 0.0
C112 C 0.24473 0.28947 1.00029 0.0
C113 C 0.28599 0.29272 1.00256 0.0
C114 C 0.28792 0.26951 1.00135 0.0
C115 C 0.26847 0.25614 1.00037 0.0
C116 C 0.24677 0.2661 1.00005 0.0
H117 H 0.26435 0.69993 0.00602 0.0
H118 H 0.30357 0.75987 0.01308 0.0
H119 H 0.23094 0.76363 0.00631 0.0
H120 H 0.25816 0.81161 0.99064 0.0
C121 C 0.273 0.80041 0.99283 0.0
O122 O 0.26901 0.78677 0.01114 0.0
H123 H 0.27441 0.79055 0.97702 0.0
C124 C 0.26517 0.71793 0.00704 0.0
C125 C 0.24507 0.73035 0.00564 0.0
C126 C 0.28627 0.72833 0.00985 0.0
C127 C 0.28737 0.75159 0.01091 0.0
C128 C 0.26752 0.76433 0.00957 0.0
C129 C 0.24628 0.75372 0.00718 0.0
H130 H 0.76721 0.3177 0.99565 0.0
H131 H 0.72761 0.25849 0.00588 0.0
H132 H 0.80052 0.25461 1.00477 0.0
H133 H 0.77534 0.20623 0.99025 0.0
C134 C 0.7598 0.21669 0.99116 0.0
O135 O 0.76226 0.23171 0.00861 0.0
H136 H 0.75839 0.22533 0.97465 0.0
C137 C 0.7663 0.29982 0.99792 0.0
C138 C 0.78645 0.28752 0.99962 0.0
C139 C 0.74504 0.2896 1.00018 0.0
C140 C 0.74392 0.26663 1.00408 0.0
C141 C 0.76382 0.25395 0.00533 0.0
C142 C 0.78515 0.26442 1.00344 0.0
H143 H 0.7682 0.70193 1.00379 0.0
H144 H 0.72893 0.76189 0.99749 0.0
H145 H 0.80109 0.76572 0.00816 0.0
H146 H 0.77338 0.81141 0.02631 0.0
C147 C 0.75832 0.8011 0.02206 0.0
O148 O 0.76315 0.78886 1.00296 0.0
H149 H 0.7552 0.7901 0.03682 0.0
C150 C 0.76729 0.71995 1.0034 0.0
C151 C 0.78717 0.73242 0.00636 0.0
C152 C 0.74627 0.73034 1.0001 0.0
C153 C 0.74508 0.75362 0.99999 0.0
C154 C 0.76474 0.76639 1.00301 0.0
C155 C 0.78589 0.7558 0.00592 0.0
H156 H 0.51931 0.8203 0.75421 0.0
H157 H 0.52085 0.76079 0.79414 0.0
H158 H 0.52016 0.75609 0.72204 0.0
H159 H 0.49925 0.70959 0.75038 0.0
C160 C 0.503 0.72002 0.76534 0.0
O161 O 0.5216 0.73335 0.76055 0.0
H162 H 0.48752 0.73023 0.76848 0.0
C163 C 0.51949 0.80229 0.7553 0.0
C164 C 0.51994 0.78964 0.73549 0.0
C165 C 0.51953 0.7921 0.77648 0.0
C166 C 0.52048 0.76887 0.77789 0.0
C167 C 0.52035 0.75581 0.75844 0.0
C168 C 0.51985 0.76618 0.73711 0.0
H169 H 0.26949 0.52034 0.8152 0.0
H170 H 0.22874 0.50948 0.75648 0.0
H171 H 0.30153 0.50806 0.75135 0.0
H172 H 0.27766 0.52124 0.70365 0.0
C173 C 0.26131 0.52052 0.71297 0.0
O174 O 0.26297 0.50399 0.72906 0.0
H175 H 0.25852 0.53712 0.72083 0.0
C176 C 0.26822 0.51756 0.79725 0.0
C177 C 0.28811 0.51499 0.78452 0.0
C178 C 0.24675 0.51543 0.78735 0.0
C179 C 0.24523 0.51092 0.7643 0.0
C180 C 0.26488 0.50843 0.75128 0.0
C181 C 0.28636 0.51023 0.76143 0.0
H182 H 0.52146 0.26141 0.81789 0.0
H183 H 0.52135 0.22181 0.75776 0.0
H184 H 0.51954 0.29313 0.75299 0.0
H185 H 0.49746 0.26454 0.7066 0.0
C186 C 0.50157 0.24995 0.71731 0.0
O187 O 0.52061 0.25497 0.73004 0.0
H188 H 0.48644 0.24711 0.72821 0.0
C189 C 0.52104 0.26031 0.79971 0.0
C190 C 0.52076 0.27992 0.78691 0.0
C191 C 0.521 0.23932 0.78943 0.0
C192 C 0.52111 0.23791 0.76594 0.0
C193 C 0.52022 0.25712 0.75275 0.0
C194 C 0.51982 0.27824 0.76322 0.0
H195 H 0.82376 0.50967 0.75624 0.0
H196 H 0.76105 0.50167 0.79243 0.0
H197 H 0.76016 0.50905 0.72062 0.0
H198 H 0.70847 0.52215 0.74614 0.0
C199 C 0.72094 0.5216 0.76014 0.0
O200 O 0.73515 0.5036 0.75691 0.0
H201 H 0.73048 0.53761 0.75947 0.0
C202 C 0.80538 0.50849 0.7563 0.0
C203 C 0.79348 0.50993 0.73596 0.0
C204 C 0.79393 0.50542 0.77671 0.0
C205 C 0.77016 0.50405 0.77679 0.0
C206 C 0.75804 0.50538 0.75661 0.0
C207 C 0.76967 0.50811 0.73617 0.0
H208 H 0.52002 0.19815 0.25686 0.0
H209 H 0.52068 0.2572 0.2162 0.0
H210 H 0.51986 0.26277 0.28822 0.0
H211 H 0.49809 0.30821 0.25974 0.0
C212 C 0.50223 0.29811 0.24465 0.0
O213 O 0.52104 0.28506 0.24941 0.0
H214 H 0.48701 0.28764 0.24116 0.0
C215 C 0.51992 0.21614 0.25554 0.0
C216 C 0.52013 0.22904 0.2752 0.0
C217 C 0.51985 0.22607 0.23424 0.0
C218 C 0.52043 0.24931 0.23255 0.0
C219 C 0.52009 0.26261 0.25182 0.0
C220 C 0.51972 0.25249 0.27328 0.0
H221 H 0.82396 0.50539 0.26235 0.0
H222 H 0.76542 0.51841 0.22141 0.0
H223 H 0.75838 0.51391 0.29311 0.0
H224 H 0.71102 0.50133 0.26795 0.0
C225 C 0.72124 0.50257 0.2523 0.0
O226 O 0.73666 0.51975 0.2549 0.0
H227 H 0.73003 0.48634 0.24984 0.0
C228 C 0.80587 0.50844 0.26082 0.0
C229 C 0.79242 0.50911 0.28025 0.0
C230 C 0.79639 0.51199 0.23953 0.0
C231 C 0.77295 0.51565 0.23773 0.0
C232 C 0.75925 0.5162 0.25697 0.0
C233 C 0.76902 0.51326 0.27827 0.0
H234 H 0.50911 0.76032 0.19519 0.0
H235 H 0.51801 0.79943 0.25505 0.0
H236 H 0.51848 0.72807 0.25916 0.0
H237 H 0.50518 0.75542 0.30982 0.0
C238 C 0.50513 0.7695 0.29774 0.0
O239 O 0.52223 0.76601 0.2821 0.0
H240 H 0.4881 0.76933 0.28958 0.0
C241 C 0.51119 0.76126 0.21327 0.0
C242 C 0.5131 0.74151 0.22574 0.0
C243 C 0.51302 0.78219 0.22357 0.0
C244 C 0.51667 0.78341 0.2468 0.0
C245 C 0.51838 0.76407 0.2597 0.0
C246 C 0.51683 0.74303 0.24917 0.0
H247 H 0.2677 0.49992 0.19768 0.0
H248 H 0.22839 0.51041 0.25764 0.0
H249 H 0.3013 0.50999 0.26107 0.0
H250 H 0.2763 0.49675 0.31081 0.0
C251 C 0.26109 0.4968 0.29978 0.0
O252 O 0.26328 0.51386 0.28434 0.0
H253 H 0.26062 0.48023 0.29137 0.0
C254 C 0.26687 0.50234 0.21571 0.0
C255 C 0.28708 0.50435 0.228 0.0
C256 C 0.24564 0.5045 0.22615 0.0
C257 C 0.24465 0.50867 0.24931 0.0
C258 C 0.26464 0.51028 0.26193 0.0
C259 C 0.28589 0.50841 0.25127 0.0
H260 H 0.76396 0.82053 0.50539 0.0
H261 H 0.80352 0.76078 0.49916 0.0
H262 H 0.73105 0.75656 0.50724 0.0
H263 H 0.75908 0.71063 0.5255 0.0
C264 C 0.77429 0.7207 0.5212 0.0
O265 O 0.76933 0.73358 0.50256 0.0
H266 H 0.77796 0.73125 0.53618 0.0
C267 C 0.76487 0.80252 0.50474 0.0
C268 C 0.74489 0.78997 0.50671 0.0
C269 C 0.78602 0.7922 0.50201 0.0
C270 C 0.78727 0.76895 0.50135 0.0
C271 C 0.76758 0.75606 0.50335 0.0
C272 C 0.74628 0.76656 0.50581 0.0
H273 H 0.76535 0.20053 0.49762 0.0
H274 H 0.80471 0.2591 0.51113 0.0
H275 H 0.73177 0.26307 0.51014 0.0
H276 H 0.75686 0.3119 0.49711 0.0
C277 C 0.77246 0.30152 0.49761 0.0
O278 O 0.77011 0.28592 0.51458 0.0
H279 H 0.77383 0.2934 0.48082 0.0
C280 C 0.76603 0.21826 0.50094 0.0
C281 C 0.74582 0.23037 0.50347 0.0
C282 C 0.7872 0.22846 0.50377 0.0
C283 C 0.78836 0.25115 0.50882 0.0
C284 C 0.76848 0.26378 0.51054 0.0
C285 C 0.74713 0.25334 0.50829 0.0
H286 H 0.26731 0.81833 0.50808 0.0
H287 H 0.22854 0.75799 0.51363 0.0
H288 H 0.3006 0.75488 0.502 0.0
H289 H 0.27292 0.70929 0.48337 0.0
C290 C 0.25785 0.71942 0.48804 0.0
O291 O 0.26289 0.73137 0.50728 0.0
H292 H 0.25444 0.73066 0.47353 0.0
C293 C 0.26655 0.8003 0.50811 0.0
C294 C 0.28648 0.78804 0.50462 0.0
C295 C 0.24564 0.78969 0.51145 0.0
C296 C 0.24461 0.76641 0.51111 0.0
C297 C 0.26433 0.75385 0.50762 0.0
C298 C 0.28537 0.76464 0.50463 0.0
H299 H 0.26591 0.20199 0.50534 0.0
H300 H 0.22749 0.26245 0.49886 0.0
H301 H 0.3002 0.26525 0.50549 0.0
H302 H 0.27374 0.31402 0.52062 0.0
C303 C 0.25904 0.30256 0.51903 0.0
O304 O 0.26258 0.28886 0.50068 0.0
H305 H 0.25835 0.2928 0.53494 0.0
C306 C 0.26536 0.22001 0.50449 0.0
C307 C 0.2856 0.23218 0.50601 0.0
C308 C 0.24441 0.2307 0.50181 0.0
C309 C 0.2436 0.25397 0.5009 0.0
C310 C 0.26366 0.26642 0.50221 0.0
C311 C 0.28473 0.25555 0.50456 0.0
C312 C 0.01678 0.9554 0.56101 0.0
C313 C 0.01762 0.95582 0.45117 0.0
C314 C 0.0164 0.06352 0.56139 0.0
C315 C 0.01726 0.06389 0.45158 0.0
C316 C 0.962 0.06332 0.50525 0.0
C317 C 0.96252 0.95532 0.50562 0.0
C318 C 0.07177 0.06406 0.50677 0.0
C319 C 0.07227 0.95571 0.50742 0.0
C320 C 0.07278 0.00992 0.45192 0.0
C321 C 0.96281 0.00955 0.4511 0.0
C322 C 0.072 0.00979 0.56124 0.0
C323 C 0.96199 1.00895 0.56079 0.0
Eu324 Eu 0.0174 0.96749 0.50614 0.0
O325 O 0.99726 0.98991 0.48621 0.0
O326 O 0.03743 0.98995 0.52621 0.0
Eu327 Eu 0.974 1.00941 0.50605 0.0
Eu328 Eu 0.06051 0.00981 0.50652 0.0
O329 O 0.99695 0.98974 0.52602 0.0
O330 O 0.03784 0.98992 0.48637 0.0
Eu331 Eu 0.01699 0.00953 0.54869 0.0
Eu332 Eu 0.01766 0.00978 0.46391 0.0
O333 O 0.99668 0.02932 0.52621 0.0
O334 O 0.99709 0.02929 0.48638 0.0
O335 O 0.03758 0.02963 0.4866 0.0
O336 O 0.03724 0.02944 0.5263 0.0
Eu337 Eu 0.01695 0.05182 0.50642 0.0
O338 O 0.01702 0.94861 0.53956 0.0
O339 O 0.0177 0.94888 0.47256 0.0
O340 O 0.01646 0.07044 0.53998 0.0
O341 O 0.01704 0.07067 0.47303 0.0
O342 O 0.95495 0.04221 0.50606 0.0
O343 O 0.95532 0.9764 0.5057 0.0
O344 O 0.07911 0.043 0.50672 0.0
O345 O 0.0794 0.97683 0.50718 0.0
O346 O 0.05114 0.01005 0.44527 0.0
O347 O 0.98455 0.00969 0.44481 0.0
O348 O 0.05028 0.0098 0.5677 0.0
O349 O 0.98363 1.00911 0.5674 0.0
O350 O 0.05009 0.07045 0.50669 0.0
O351 O 0.98354 0.07014 0.5051 0.0
O352 O 0.05067 0.9491 0.50696 0.0
O353 O 0.98417 0.94881 0.50576 0.0
O354 O 0.01761 0.97711 0.44472 0.0
O355 O 0.01756 0.04264 0.44495 0.0
O356 O 0.01681 0.97666 0.56762 0.0
O357 O 0.01655 0.04224 0.56786 0.0
O358 O 0.95491 1.00908 0.53942 0.0
O359 O 0.9554 1.00948 0.47238 0.0
O360 O 0.07927 0.00972 0.53995 0.0
O361 O 0.07979 0.00968 0.4733 0.0
C362 C 0.51508 0.95794 0.0615 0.0
C363 C 0.51664 0.06567 0.05691 0.0
C364 C 0.51622 0.95337 0.9527 0.0
C365 C 0.51651 0.06121 0.94806 0.0
C366 C 0.57091 1.00717 0.95017 0.0
C367 C 0.5712 0.0112 0.05894 0.0
C368 C 0.46038 1.00753 0.95052 0.0
C369 C 0.46048 0.01193 0.059 0.0
C370 C 0.46045 0.06365 1.0031 0.0
C371 C 0.57117 0.06342 1.00288 0.0
C372 C 0.46023 0.95569 0.00613 0.0
C373 C 0.57095 0.95553 0.00658 0.0
Eu374 Eu 0.51584 0.01126 0.04736 0.0
O375 O 0.53587 0.03011 0.02382 0.0
O376 O 0.49558 0.99059 0.0256 0.0
Eu377 Eu 0.55854 1.00949 1.00462 0.0
Eu378 Eu 0.47299 0.00966 1.00474 0.0
O379 O 0.53591 0.99047 0.02554 0.0
O380 O 0.49576 0.03019 0.02393 0.0
Eu381 Eu 0.51563 0.96734 0.00656 0.0
Eu382 Eu 0.51581 0.0518 1.003 0.0
O383 O 0.53566 0.98896 0.98559 0.0
O384 O 0.53584 0.02853 0.98387 0.0
O385 O 0.49562 0.02869 0.98384 0.0
O386 O 0.49564 0.98898 0.98558 0.0
Eu387 Eu 0.51569 1.00784 0.96208 0.0
O388 O 0.51526 0.97934 0.06749 0.0
O389 O 0.51661 0.04482 0.06464 0.0
O390 O 0.51608 0.9742 0.9449 0.0
O391 O 0.51616 0.03982 0.94204 0.0
O392 O 0.57761 1.008 0.97158 0.0
O393 O 0.57773 0.01072 0.03747 0.0
O394 O 0.4538 1.00845 0.97194 0.0
O395 O 0.45389 0.01084 0.0376 0.0
O396 O 0.48208 0.07053 1.00281 0.0
O397 O 0.54958 0.07036 1.00235 0.0
O398 O 0.48182 0.94874 0.00678 0.0
O399 O 0.54934 0.94866 0.0073 0.0
O400 O 0.48194 1.00719 0.94341 0.0
O401 O 0.54932 1.00708 0.94321 0.0
O402 O 0.48205 0.01239 0.06607 0.0
O403 O 0.54965 0.01125 0.0661 0.0
O404 O 0.51624 0.0716 0.03531 0.0
O405 O 0.51633 0.06885 0.96913 0.0
O406 O 0.51522 0.9503 0.04044 0.0
O407 O 0.516 0.94751 0.97432 0.0
O408 O 0.57763 0.97674 0.00555 0.0
O409 O 0.57778 0.04218 1.0037 0.0
O410 O 0.45368 0.97696 0.00542 0.0
O411 O 0.4538 0.0424 1.00364 0.0
C412 C 0.01437 0.45485 0.0603 0.0
C413 C 0.0144 0.45586 0.95116 0.0
C414 C 0.01472 0.56367 0.06145 0.0
C415 C 0.01416 0.56472 0.95227 0.0
C416 C 0.9596 0.56413 0.00732 0.0
C417 C 0.95954 0.4554 0.00596 0.0
C418 C 0.0695 0.56402 0.00635 0.0
C419 C 0.06936 0.45535 0.00548 0.0
C420 C 0.06891 0.51086 0.95144 0.0
C421 C 0.95854 0.51009 0.95244 0.0
C422 C 0.06937 0.50892 0.06081 0.0
C423 C 0.95927 0.50912 0.06092 0.0
Eu424 Eu 0.01442 0.46791 0.00587 0.0
O425 O 0.99395 0.49024 0.98615 0.0
O426 O 0.03462 0.48996 0.02611 0.0
Eu427 Eu 0.97124 0.50975 0.00659 0.0
Eu428 Eu 0.05757 0.5097 0.00616 0.0
O429 O 0.9942 0.48988 0.02628 0.0
O430 O 0.03445 0.49038 0.9859 0.0
Eu431 Eu 0.01438 0.50938 0.0491 0.0
Eu432 Eu 0.0139 0.51016 0.96347 0.0
O433 O 0.99423 0.52933 0.02665 0.0
O434 O 0.99401 0.5297 0.98659 0.0
O435 O 0.03437 0.52943 0.98642 0.0
O436 O 0.0347 0.52922 0.02652 0.0
Eu437 Eu 0.01449 0.55167 0.00674 0.0
O438 O 0.01439 0.44866 0.03873 0.0
O439 O 0.01465 0.44931 0.97262 0.0
O440 O 0.01492 0.57025 0.04 0.0
O441 O 0.01443 0.57089 0.97385 0.0
O442 O 0.95233 0.54301 0.00704 0.0
O443 O 0.95229 0.47652 0.0063 0.0
O444 O 0.07664 0.54287 0.00636 0.0
O445 O 0.07658 0.47649 0.00559 0.0
O446 O 0.04728 0.51076 0.94474 0.0
O447 O 0.98003 0.5103 0.94516 0.0
O448 O 0.04778 0.50903 0.06759 0.0
O449 O 0.98085 0.50932 0.06782 0.0
O450 O 0.0478 0.57042 0.00646 0.0
O451 O 0.98131 0.57045 0.00727 0.0
O452 O 0.04763 0.44905 0.00562 0.0
O453 O 0.98125 0.44909 0.00572 0.0
O454 O 0.01397 0.47709 0.94431 0.0
O455 O 0.01383 0.5436 0.94503 0.0
O456 O 0.01438 0.47596 0.06754 0.0
O457 O 0.0144 0.54242 0.06827 0.0
O458 O 0.95236 0.50916 0.03959 0.0
O459 O 0.95202 0.5099 0.97388 0.0
O460 O 0.07642 0.50914 0.03945 0.0
O461 O 0.07606 0.51043 0.97274 0.0
C462 C 0.51677 0.45629 0.06073 0.0
C463 C 0.51736 0.56438 0.06135 0.0
C464 C 0.51758 0.45684 0.95091 0.0
C465 C 0.51762 0.56491 0.95151 0.0
C466 C 0.57306 0.51125 0.9519 0.0
C467 C 0.57189 0.50978 0.06121 0.0
C468 C 0.46307 0.51086 0.9509 0.0
C469 C 0.4621 0.51053 0.0606 0.0
C470 C 0.4627 0.56494 0.00652 0.0
C471 C 0.57247 0.56456 0.00571 0.0
C472 C 0.46221 0.45679 0.00557 0.0
C473 C 0.57202 0.45626 0.00629 0.0
Eu474 Eu 0.5171 0.51041 0.04842 0.0
O475 O 0.53769 0.53032 0.02631 0.0
O476 O 0.49687 0.49081 0.02574 0.0
Eu477 Eu 0.56071 0.51046 0.00647 0.0
Eu478 Eu 0.47414 0.51081 0.00582 0.0
O479 O 0.53742 0.49066 0.02598 0.0
O480 O 0.49706 0.53038 0.02595 0.0
Eu481 Eu 0.51718 0.46844 0.00589 0.0
Eu482 Eu 0.51755 0.5528 0.00637 0.0
O483 O 0.53784 0.4908 0.98627 0.0
O484 O 0.53789 0.53037 0.98658 0.0
O485 O 0.49743 0.53054 0.98617 0.0
O486 O 0.49727 0.49108 0.98599 0.0
Eu487 Eu 0.51789 0.51081 0.96376 0.0
O488 O 0.51687 0.47755 0.06735 0.0
O489 O 0.51713 0.54307 0.06775 0.0
O490 O 0.51805 0.47815 0.94449 0.0
O491 O 0.518 0.54367 0.94488 0.0
O492 O 0.58002 0.51065 0.97328 0.0
O493 O 0.57937 0.51045 0.04 0.0
O494 O 0.45561 0.51095 0.97215 0.0
O495 O 0.45499 0.51065 0.03923 0.0
O496 O 0.48434 0.57144 0.00673 0.0
O497 O 0.55086 0.57118 0.00581 0.0
O498 O 0.4838 0.45009 0.00569 0.0
O499 O 0.55036 0.44983 0.00606 0.0
O500 O 0.48482 0.5108 0.94463 0.0
O501 O 0.55144 0.5114 0.94519 0.0
O502 O 0.48376 0.51043 0.06715 0.0
O503 O 0.55016 0.50957 0.06751 0.0
O504 O 0.51764 0.57134 0.03997 0.0
O505 O 0.51725 0.57169 0.97296 0.0
O506 O 0.51678 0.44952 0.03928 0.0
O507 O 0.51714 0.44989 0.97229 0.0
O508 O 0.57933 0.47732 0.00647 0.0
O509 O 0.57959 0.54344 0.00613 0.0
O510 O 0.45518 0.47793 0.00554 0.0
O511 O 0.45547 0.54387 0.00604 0.0
C512 C 0.01624 0.45804 0.56254 0.0
C513 C 0.0149 0.4543 0.45374 0.0
C514 C 0.01694 0.56593 0.55885 0.0
C515 C 0.01526 0.56212 0.44997 0.0
C516 C 0.96049 0.56423 0.50566 0.0
C517 C 0.96037 0.45628 0.50873 0.0
C518 C 0.07118 0.56403 0.5041 0.0
C519 C 0.07103 0.45613 0.50738 0.0
C520 C 0.07021 0.50873 0.45093 0.0
C521 C 0.95956 0.50861 0.45311 0.0
C522 C 0.07196 0.51174 0.5597 0.0
C523 C 0.9613 0.51196 0.56151 0.0
Eu524 Eu 0.01574 0.46797 0.5077 0.0
O525 O 0.99534 0.48973 0.48728 0.0
O526 O 0.03617 0.49102 0.52665 0.0
Eu527 Eu 0.97308 0.51023 0.50708 0.0
Eu528 Eu 0.05856 0.51009 0.50556 0.0
O529 O 0.99601 0.49102 0.52736 0.0
O530 O 0.03558 0.48962 0.48655 0.0
Eu531 Eu 0.01646 0.51154 0.54903 0.0
Eu532 Eu 0.01509 0.50866 0.4636 0.0
O533 O 0.99609 0.53069 0.52604 0.0
O534 O 0.99543 0.52931 0.48594 0.0
O535 O 0.03553 0.52924 0.48527 0.0
O536 O 0.03615 0.53054 0.52529 0.0
Eu537 Eu 0.01584 0.55237 0.50486 0.0
O538 O 0.01606 0.45062 0.5414 0.0
O539 O 0.01535 0.44831 0.47532 0.0
O540 O 0.01663 0.57194 0.53727 0.0
O541 O 0.01567 0.56961 0.47109 0.0
O542 O 0.95385 0.54298 0.50634 0.0
O543 O 0.95378 0.47754 0.50852 0.0
O544 O 0.07779 0.54278 0.50469 0.0
O545 O 0.07771 0.47735 0.50652 0.0
O546 O 0.04852 0.50804 0.44424 0.0
O547 O 0.98096 0.50827 0.44555 0.0
O548 O 0.05053 0.51168 0.56719 0.0
O549 O 0.98296 0.51211 0.5683 0.0
O550 O 0.04959 0.57096 0.50391 0.0
O551 O 0.98211 0.5711 0.50507 0.0
O552 O 0.04941 0.44927 0.50785 0.0
O553 O 0.98197 0.44933 0.50837 0.0
O554 O 0.01466 0.47519 0.44611 0.0
O555 O 0.01485 0.54078 0.44378 0.0
O556 O 0.01638 0.47937 0.56878 0.0
O557 O 0.01689 0.54504 0.5665 0.0
O558 O 0.95444 0.51136 0.54017 0.0
O559 O 0.95341 0.50926 0.47465 0.0
O560 O 0.0782 0.51133 0.53815 0.0
O561 O 0.07716 0.50957 0.47226 0.0
C562 C 0.51354 0.95556 0.56046 0.0
C563 C 0.51472 0.95646 0.45137 0.0
C564 C 0.51376 0.06447 0.56151 0.0
C565 C 0.51502 0.06531 0.4523 0.0
C566 C 0.4596 0.06494 0.50631 0.0
C567 C 0.45939 0.95624 0.5048 0.0
C568 C 0.56954 0.06465 0.50746 0.0
C569 C 0.56922 0.956 0.50697 0.0
C570 C 0.57 0.01111 0.45273 0.0
C571 C 0.45972 0.01113 0.45135 0.0
C572 C 0.56797 0.0105 0.56219 0.0
C573 C 0.45778 0.0105 0.55977 0.0
Eu574 Eu 0.51427 0.96862 0.50607 0.0
O575 O 0.49432 0.99099 0.48592 0.0
O576 O 0.53402 0.9907 0.52673 0.0
Eu577 Eu 0.47119 0.01058 0.50576 0.0
Eu578 Eu 0.55747 0.01035 0.50722 0.0
O579 O 0.49354 0.99058 0.52605 0.0
O580 O 0.53482 0.99097 0.48649 0.0
Eu581 Eu 0.51323 0.01012 0.54928 0.0
Eu582 Eu 0.51479 0.01078 0.46364 0.0
O583 O 0.49374 0.03012 0.52631 0.0
O584 O 0.49444 0.03042 0.48626 0.0
O585 O 0.53481 0.03013 0.48692 0.0
O586 O 0.53407 0.02982 0.52701 0.0
Eu587 Eu 0.51448 0.05241 0.5068 0.0
O588 O 0.51388 0.9494 0.53889 0.0
O589 O 0.51446 0.94994 0.47285 0.0
O590 O 0.51449 0.071 0.54005 0.0
O591 O 0.51493 0.07154 0.47386 0.0
O592 O 0.45235 0.04383 0.50585 0.0
O593 O 0.45219 0.97738 0.50498 0.0
O594 O 0.57662 0.04347 0.50758 0.0
O595 O 0.57644 0.97713 0.50727 0.0
O596 O 0.54851 0.01115 0.44565 0.0
O597 O 0.48137 0.01083 0.44458 0.0
O598 O 0.54623 0.01036 0.56849 0.0
O599 O 0.47917 0.01016 0.56725 0.0
O600 O 0.54785 0.07109 0.50717 0.0
O601 O 0.48131 0.07126 0.50672 0.0
O602 O 0.5475 0.94969 0.50646 0.0
O603 O 0.48107 0.94986 0.50523 0.0
O604 O 0.51502 0.97769 0.4445 0.0
O605 O 0.51494 0.04417 0.44511 0.0
O606 O 0.51321 0.97667 0.56774 0.0
O607 O 0.51299 0.04324 0.56837 0.0
O608 O 0.45151 0.01064 0.53825 0.0
O609 O 0.45268 0.01118 0.47264 0.0
O610 O 0.57551 0.01041 0.54099 0.0
O611 O 0.57675 0.01076 0.47417 0.0
H612 H 0.23674 0.19609 0.47357 0.0
H613 H 0.20461 0.17029 0.47409 0.0
H614 H 0.1734 0.2084 0.52718 0.0
H615 H 0.20565 0.2344 0.5267 0.0
H616 H 0.18009 0.16024 0.5351 0.0
H617 H 0.13671 0.17933 0.45448 0.0
H618 H 0.16706 0.1764 0.45284 0.0
H619 H 0.15503 0.199 0.46858 0.0
C620 C 0.22283 0.19914 0.48509 0.0
C621 C 0.22359 0.21714 0.50013 0.0
C622 C 0.2045 0.18448 0.48531 0.0
C623 C 0.18668 0.18757 0.50059 0.0
C624 C 0.18702 0.20589 0.5152 0.0
H625 H 0.06399 0.10889 0.50632 0.0
H626 H 0.09182 0.13875 0.50584 0.0
C627 C 0.2053 0.22074 0.51484 0.0
C628 C 0.1687 0.1706 0.50237 0.0
H629 H 0.12597 0.14586 0.4729 0.0
C630 C 0.16809 0.15717 0.52162 0.0
C631 C 0.15317 0.16677 0.48473 0.0
C632 C 0.1528 0.18122 0.46403 0.0
C633 C 0.15258 0.13957 0.52349 0.0
C634 C 0.13752 0.13529 0.50553 0.0
C635 C 0.13776 0.14908 0.48651 0.0
C636 C 0.12095 0.11689 0.50633 0.0
C637 C 0.15232 0.12577 0.54465 0.0
C638 C 0.12819 0.09465 0.50665 0.0
C639 C 0.11229 0.07737 0.50691 0.0
C640 C 0.08889 0.08211 0.50677 0.0
C641 C 0.08182 0.10449 0.50644 0.0
C642 C 0.0977 0.12167 0.50615 0.0
H643 H 0.16142 0.13414 0.55865 0.0
H644 H 0.13462 0.12226 0.55003 0.0
H645 H 0.16083 0.10963 0.54134 0.0
H646 H 0.14613 0.09068 0.50645 0.0
H647 H 0.11835 0.06037 0.50708 0.0
H648 H 0.81787 0.22019 0.53671 0.0
H649 H 0.84934 0.19358 0.53548 0.0
H650 H 0.83456 0.17995 0.46576 0.0
H651 H 0.80234 0.20569 0.46744 0.0
H652 H 0.83899 0.14303 0.4872 0.0
H653 H 0.91175 0.1963 0.51055 0.0
H654 H 0.8899 0.19738 0.53148 0.0
H655 H 0.88431 0.20769 0.50359 0.0
C656 C 0.82171 0.21177 0.52106 0.0
C657 C 0.80795 0.21493 0.50213 0.0
C658 C 0.83973 0.19669 0.52031 0.0
C659 C 0.84459 0.18501 0.50041 0.0
C660 C 0.83118 0.18879 0.48127 0.0
H661 H 0.96544 0.10357 0.48479 0.0
H662 H 0.93662 0.13267 0.48257 0.0
C663 C 0.81289 0.2035 0.48218 0.0
C664 C 0.86236 0.16755 0.50003 0.0
H665 H 0.9176 0.15692 0.51347 0.0
C666 C 0.85626 0.14615 0.49271 0.0
C667 C 0.88496 0.17164 0.50695 0.0
C668 C 0.89317 0.19457 0.51334 0.0
C669 C 0.87199 0.12867 0.49242 0.0
C670 C 0.89422 0.13245 0.50057 0.0
C671 C 0.90046 0.15393 0.50753 0.0
C672 C 0.91143 0.1145 0.5017 0.0
C673 C 0.86468 0.10651 0.48293 0.0
C674 C 0.90692 0.09463 0.5133 0.0
C675 C 0.92322 0.07777 0.5142 0.0
C676 C 0.94453 0.0808 0.50407 0.0
C677 C 0.94918 0.10085 0.49286 0.0
C678 C 0.93273 0.11748 0.49158 0.0
H679 H 0.85028 0.10841 0.47103 0.0
H680 H 0.87886 0.09811 0.47402 0.0
H681 H 0.85889 0.09561 0.49683 0.0
H682 H 0.89087 0.09221 0.52184 0.0
H683 H 0.91933 0.06258 0.52321 0.0
H684 H 0.79308 0.82777 0.47466 0.0
H685 H 0.82568 0.85309 0.47472 0.0
H686 H 0.85788 0.81343 0.52594 0.0
H687 H 0.82528 0.78792 0.52593 0.0
H688 H 0.85123 0.86303 0.53404 0.0
H689 H 0.89408 0.841 0.4537 0.0
H690 H 0.86362 0.84363 0.45299 0.0
H691 H 0.87636 0.82162 0.46893 0.0
C692 C 0.80725 0.82433 0.48574 0.0
C693 C 0.80672 0.80598 0.50034 0.0
C694 C 0.82583 0.83871 0.48568 0.0
C695 C 0.8441 0.83499 0.50027 0.0
C696 C 0.84391 0.81641 0.5145 0.0
H697 H 0.96947 0.91029 0.50554 0.0
H698 H 0.94093 0.88095 0.50505 0.0
C699 C 0.8254 0.80186 0.5144 0.0
C700 C 0.86256 0.85146 0.5017 0.0
H701 H 0.90669 0.87368 0.47217 0.0
C702 C 0.8635 0.86531 0.52063 0.0
C703 C 0.87844 0.85421 0.48416 0.0
C704 C 0.87831 0.83927 0.4638 0.0
C705 C 0.87974 0.88228 0.52227 0.0
C706 C 0.89522 0.88548 0.50441 0.0
C707 C 0.89462 0.87125 0.48572 0.0
C708 C 0.9123 0.90345 0.50487 0.0
C709 C 0.88027 0.89658 0.5431 0.0
C710 C 0.90557 0.92582 0.50472 0.0
C711 C 0.92183 0.94274 0.50501 0.0
C712 C 0.94513 0.93753 0.50534 0.0
C713 C 0.95172 0.91501 0.50532 0.0
C714 C 0.93545 0.89816 0.50502 0.0
H715 H 0.87093 0.88875 0.55727 0.0
H716 H 0.89802 0.89983 0.54846 0.0
H717 H 0.87213 0.91281 0.5394 0.0
H718 H 0.88773 0.93019 0.50422 0.0
H719 H 0.91611 0.95985 0.50489 0.0
H720 H 0.20513 0.78571 0.48951 0.0
H721 H 0.17329 0.81208 0.49043 0.0
H722 H 0.20822 0.851 0.54053 0.0
H723 H 0.23988 0.82466 0.53987 0.0
H724 H 0.15953 0.84506 0.54757 0.0
H725 H 0.18292 0.87547 0.4623 0.0
H726 H 0.17861 0.84598 0.46513 0.0
H727 H 0.20197 0.85904 0.4793 0.0
C728 C 0.20573 0.79963 0.50106 0.0
C729 C 0.22499 0.80334 0.51445 0.0
C730 C 0.18768 0.81472 0.50144 0.0
C731 C 0.18868 0.83359 0.51528 0.0
C732 C 0.20726 0.83658 0.52965 0.0
H733 H 0.11875 0.95989 0.50599 0.0
H734 H 0.14694 0.93006 0.50853 0.0
C735 C 0.22532 0.8216 0.5292 0.0
C736 C 0.17117 0.85107 0.51384 0.0
H737 H 0.15094 0.8919 0.47945 0.0
C738 C 0.15752 0.85525 0.53267 0.0
C739 C 0.16901 0.86453 0.49449 0.0
C740 C 0.18398 0.86125 0.47417 0.0
C741 C 0.1415 0.87251 0.53258 0.0
C742 C 0.13908 0.88572 0.51308 0.0
C743 C 0.15286 0.88165 0.49432 0.0
C744 C 0.12211 0.90372 0.51171 0.0
C745 C 0.12757 0.87674 0.55343 0.0
C746 C 0.09893 0.89864 0.51236 0.0
C747 C 0.08282 0.91554 0.51087 0.0
C748 C 0.08959 0.9379 0.50862 0.0
C749 C 0.11292 0.9429 0.50777 0.0
C750 C 0.12905 0.9259 0.50921 0.0
H751 H 0.13509 0.86866 0.56847 0.0
H752 H 0.12596 0.89486 0.5567 0.0
H753 H 0.11024 0.8699 0.55098 0.0
H754 H 0.0933 0.88155 0.5139 0.0
H755 H 0.06505 0.91097 0.51156 0.0
H756 H 0.54549 0.23013 0.19609 0.0
H757 H 0.54495 0.2059 0.16292 0.0
H758 H 0.49255 0.16593 0.19349 0.0
H759 H 0.49268 0.19024 0.22641 0.0
H760 H 0.55361 0.15942 0.163 0.0
H761 H 0.46784 0.17898 0.12996 0.0
H762 H 0.48248 0.19674 0.1497 0.0
H763 H 0.4682 0.17209 0.15931 0.0
C764 C 0.53363 0.21636 0.19556 0.0
C765 C 0.51914 0.21203 0.21381 0.0
C766 C 0.53341 0.20252 0.17669 0.0
C767 C 0.51852 0.18434 0.17571 0.0
C768 C 0.50391 0.18011 0.19381 0.0
H769 H 0.52223 0.062 0.10246 0.0
H770 H 0.52364 0.09199 0.13004 0.0
C771 C 0.50417 0.19385 0.21268 0.0
C772 C 0.51902 0.16899 0.15636 0.0
H773 H 0.48566 0.14622 0.11554 0.0
C774 C 0.53886 0.15668 0.15244 0.0
C775 C 0.4998 0.16567 0.14254 0.0
C776 C 0.47843 0.17921 0.1454 0.0
C777 C 0.53971 0.14047 0.13554 0.0
C778 C 0.52012 0.13637 0.12247 0.0
C779 C 0.50057 0.14928 0.1258 0.0
C780 C 0.51938 0.11833 0.10566 0.0
C781 C 0.5615 0.12778 0.13186 0.0
C782 C 0.51601 0.12325 0.0829 0.0
C783 C 0.51511 0.10616 0.06704 0.0
C784 C 0.51737 0.08381 0.07373 0.0
C785 C 0.52047 0.07898 0.09665 0.0
C786 C 0.52143 0.0961 0.11246 0.0
H787 H 0.57635 0.13669 0.13905 0.0
H788 H 0.56024 0.11133 0.14023 0.0
H789 H 0.56458 0.12491 0.11368 0.0
H790 H 0.51422 0.14034 0.07741 0.0
H791 H 0.51258 0.11052 0.04957 0.0
H792 H 0.78834 0.49301 0.19837 0.0
H793 H 0.81413 0.49194 0.16594 0.0
H794 H 0.86365 0.52985 0.20304 0.0
H795 H 0.83793 0.53156 0.2352 0.0
H796 H 0.84002 0.53477 0.14483 0.0
H797 H 0.89205 0.46588 0.18038 0.0
H798 H 0.86242 0.4696 0.18742 0.0
H799 H 0.88338 0.48792 0.19904 0.0
C800 C 0.80459 0.50138 0.19948 0.0
C801 C 0.81122 0.51217 0.21941 0.0
C802 C 0.81928 0.50067 0.18103 0.0
C803 C 0.84074 0.51065 0.18235 0.0
C804 C 0.84717 0.5219 0.20192 0.0
H805 H 0.96395 0.51741 0.10592 0.0
H806 H 0.93414 0.51757 0.13447 0.0
C807 C 0.83253 0.52272 0.22028 0.0
C808 C 0.85686 0.50901 0.16353 0.0
H809 H 0.90591 0.48336 0.14763 0.0
C810 C 0.85433 0.52341 0.14522 0.0
C811 C 0.87548 0.49428 0.1644 0.0
C812 C 0.87859 0.4784 0.18377 0.0
C813 C 0.87046 0.52389 0.12787 0.0
C814 C 0.88925 0.50923 0.1288 0.0
C815 C 0.8915 0.49458 0.147 0.0
C816 C 0.90711 0.50917 0.11136 0.0
C817 C 0.8677 0.54062 0.10917 0.0
C818 C 0.90177 0.50412 0.08899 0.0
C819 C 0.91872 0.50413 0.0726 0.0
C820 C 0.94138 0.50893 0.07836 0.0
C821 C 0.94671 0.51361 0.1009 0.0
C822 C 0.9297 0.51373 0.11724 0.0
H823 H 0.85582 0.5542 0.1139 0.0
H824 H 0.88429 0.54808 0.10451 0.0
H825 H 0.86069 0.53213 0.09414 0.0
H826 H 0.88452 0.50003 0.08423 0.0
H827 H 0.91405 0.50018 0.05546 0.0
H828 H 0.4831 0.79172 0.1899 0.0
H829 H 0.48346 0.82396 0.16483 0.0
H830 H 0.54026 0.85134 0.20124 0.0
H831 H 0.54041 0.81885 0.22605 0.0
H832 H 0.48019 0.87052 0.17404 0.0
H833 H 0.56273 0.84655 0.13546 0.0
H834 H 0.5462 0.8276 0.15237 0.0
H835 H 0.5627 0.84907 0.16555 0.0
C836 C 0.49567 0.80461 0.19255 0.0
C837 C 0.51188 0.80266 0.20977 0.0
C838 C 0.49575 0.82305 0.17834 0.0
C839 C 0.51208 0.83981 0.18105 0.0
C840 C 0.52772 0.83839 0.19874 0.0
H841 H 0.5138 0.96528 0.10702 0.0
H842 H 0.51309 0.93746 0.13691 0.0
C843 C 0.52765 0.81994 0.21299 0.0
C844 C 0.51322 0.85825 0.16472 0.0
H845 H 0.54607 0.87996 0.12291 0.0
C846 C 0.49462 0.87272 0.16292 0.0
C847 C 0.53198 0.86079 0.15012 0.0
C848 C 0.55199 0.84511 0.15075 0.0
C849 C 0.49426 0.8897 0.14677 0.0
C850 C 0.51311 0.89233 0.1323 0.0
C851 C 0.53174 0.87793 0.13418 0.0
C852 C 0.51344 0.90926 0.11434 0.0
C853 C 0.47348 0.90427 0.14485 0.0
C854 C 0.5143 0.90255 0.09181 0.0
C855 C 0.51481 0.91835 0.07467 0.0
C856 C 0.5146 0.94121 0.07975 0.0
C857 C 0.5139 0.94785 0.10243 0.0
C858 C 0.51337 0.93199 0.11957 0.0
H859 H 0.45872 0.89718 0.15402 0.0
H860 H 0.47727 0.92086 0.15211 0.0
H861 H 0.4687 0.90665 0.12697 0.0
H862 H 0.51445 0.88504 0.08749 0.0
H863 H 0.51539 0.91256 0.05745 0.0
H864 H 0.23548 0.47378 0.19406 0.0
H865 H 0.20358 0.47439 0.16779 0.0
H866 H 0.17661 0.53243 0.20101 0.0
H867 H 0.20884 0.53225 0.22708 0.0
H868 H 0.15594 0.47341 0.17442 0.0
H869 H 0.18568 0.55203 0.1349 0.0
H870 H 0.20337 0.53571 0.15336 0.0
H871 H 0.18145 0.55313 0.16479 0.0
C872 C 0.22269 0.48662 0.19582 0.0
C873 C 0.22476 0.50315 0.2124 0.0
C874 C 0.20446 0.48687 0.1809 0.0
C875 C 0.18803 0.50368 0.18227 0.0
C876 C 0.18937 0.51955 0.19951 0.0
H877 H 0.06263 0.50882 0.10631 0.0
H878 H 0.09122 0.50742 0.13578 0.0
C879 C 0.20763 0.51929 0.2145 0.0
C880 C 0.17015 0.50503 0.16495 0.0
H881 H 0.15135 0.53685 0.1213 0.0
C882 C 0.15483 0.4873 0.16285 0.0
C883 C 0.16911 0.52302 0.14969 0.0
C884 C 0.18587 0.542 0.15058 0.0
C885 C 0.13831 0.48714 0.14589 0.0
C886 C 0.13699 0.50534 0.1309 0.0
C887 C 0.15239 0.523 0.13293 0.0
C888 C 0.11976 0.50632 0.11293 0.0
C889 C 0.12272 0.46731 0.14384 0.0
C890 C 0.12642 0.50673 0.09031 0.0
C891 C 0.11011 0.50764 0.07329 0.0
C892 C 0.08685 0.5083 0.07867 0.0
C893 C 0.08034 0.5082 0.10145 0.0
C894 C 0.09665 0.50728 0.11839 0.0
H895 H 0.12947 0.4526 0.15295 0.0
H896 H 0.10594 0.47154 0.15117 0.0
H897 H 0.12012 0.46274 0.12595 0.0
H898 H 0.14425 0.50613 0.08583 0.0
H899 H 0.11576 0.50775 0.05598 0.0
H900 H 0.54544 0.78823 0.81442 0.0
H901 H 0.54488 0.81248 0.8476 0.0
H902 H 0.49148 0.85157 0.81765 0.0
H903 H 0.49164 0.82726 0.78474 0.0
H904 H 0.55291 0.85907 0.84701 0.0
H905 H 0.46796 0.83871 0.88165 0.0
H906 H 0.48251 0.82097 0.86181 0.0
H907 H 0.46771 0.84533 0.85223 0.0
C908 C 0.53335 0.80179 0.81512 0.0
C909 C 0.51861 0.80592 0.79703 0.0
C910 C 0.53311 0.81564 0.83398 0.0
C911 C 0.51796 0.8336 0.83511 0.0
C912 C 0.50304 0.83756 0.81722 0.0
H913 H 0.52115 0.95679 0.90703 0.0
H914 H 0.52257 0.92658 0.87967 0.0
C915 C 0.50332 0.82382 0.79836 0.0
C916 C 0.51856 0.84911 0.85431 0.0
H917 H 0.48547 0.87197 0.8953 0.0
C918 C 0.53828 0.86174 0.85776 0.0
C919 C 0.4995 0.85235 0.86837 0.0
C920 C 0.47828 0.83848 0.86602 0.0
C921 C 0.53914 0.87819 0.87442 0.0
C922 C 0.51967 0.8822 0.88771 0.0
C923 C 0.50026 0.86898 0.88487 0.0
C924 C 0.51893 0.9004 0.90434 0.0
C925 C 0.5608 0.89123 0.8776 0.0
C926 C 0.5159 0.89562 0.92717 0.0
C927 C 0.51498 0.91283 0.94289 0.0
C928 C 0.5169 0.93515 0.93599 0.0
C929 C 0.51966 0.93983 0.91299 0.0
C930 C 0.52063 0.92259 0.89731 0.0
H931 H 0.57567 0.88243 0.87029 0.0
H932 H 0.55918 0.90755 0.86905 0.0
H933 H 0.5641 0.89436 0.8957 0.0
H934 H 0.5144 0.87856 0.93284 0.0
H935 H 0.51273 0.90857 0.96042 0.0
H936 H 0.23736 0.54584 0.82015 0.0
H937 H 0.20539 0.54553 0.84641 0.0
H938 H 0.17737 0.48835 0.81255 0.0
H939 H 0.20961 0.48817 0.78657 0.0
H940 H 0.15757 0.54742 0.83934 0.0
H941 H 0.18558 0.46808 0.87852 0.0
H942 H 0.20374 0.48429 0.86039 0.0
H943 H 0.18177 0.46717 0.84858 0.0
C944 C 0.22436 0.53323 0.81828 0.0
C945 C 0.22609 0.51687 0.80148 0.0
C946 C 0.20607 0.53316 0.83319 0.0
C947 C 0.18929 0.51671 0.83158 0.0
C948 C 0.19038 0.50098 0.81421 0.0
H949 H 0.06244 0.51204 0.90586 0.0
H950 H 0.09135 0.51376 0.87658 0.0
C951 C 0.20867 0.50103 0.79928 0.0
C952 C 0.1712 0.51553 0.84871 0.0
H953 H 0.15097 0.48332 0.89143 0.0
C954 C 0.15604 0.53341 0.85071 0.0
C955 C 0.16958 0.49735 0.86368 0.0
C956 C 0.18612 0.47819 0.8629 0.0
C957 C 0.13909 0.5335 0.86727 0.0
C958 C 0.13719 0.51511 0.88194 0.0
C959 C 0.15244 0.49731 0.88002 0.0
C960 C 0.11969 0.51413 0.89968 0.0
C961 C 0.12368 0.55346 0.86925 0.0
C962 C 0.12613 0.51324 0.92233 0.0
C963 C 0.10967 0.51213 0.93917 0.0
C964 C 0.08645 0.51175 0.93362 0.0
C965 C 0.08013 0.5124 0.91082 0.0
C966 C 0.09661 0.51352 0.89402 0.0
H967 H 0.13072 0.56818 0.86039 0.0
H968 H 0.10697 0.54945 0.86165 0.0
H969 H 0.12082 0.55788 0.88715 0.0
H970 H 0.14392 0.51357 0.92697 0.0
H971 H 0.11521 0.51161 0.95651 0.0
H972 H 0.54673 0.20175 0.7843 0.0
H973 H 0.54632 0.16831 0.80791 0.0
H974 H 0.49447 0.19772 0.84962 0.0
H975 H 0.49448 0.23092 0.82595 0.0
H976 H 0.55521 0.16691 0.85495 0.0
H977 H 0.46918 0.13537 0.83427 0.0
H978 H 0.48399 0.1553 0.81691 0.0
H979 H 0.46977 0.16423 0.84207 0.0
C980 C 0.53506 0.20093 0.79835 0.0
C981 C 0.52064 0.21891 0.80332 0.0
C982 C 0.53491 0.18191 0.81183 0.0
C983 C 0.52016 0.18051 0.83028 0.0
C984 C 0.50571 0.19838 0.83522 0.0
H985 H 0.52271 0.10616 0.95207 0.0
H986 H 0.52473 0.13361 0.92201 0.0
C987 C 0.50591 0.2174 0.82184 0.0
C988 C 0.52055 0.16087 0.84513 0.0
H989 H 0.48682 0.12015 0.86703 0.0
C990 C 0.54037 0.15649 0.85742 0.0
C991 C 0.50123 0.14722 0.84807 0.0
C992 C 0.47989 0.15058 0.83448 0.0
C993 C 0.54105 0.13934 0.87335 0.0
C994 C 0.52132 0.12649 0.87716 0.0
C995 C 0.50183 0.13023 0.86418 0.0
C996 C 0.52028 0.1097 0.89521 0.0
C997 C 0.56278 0.13523 0.8861 0.0
C998 C 0.51659 0.08724 0.89005 0.0
C999 C 0.51532 0.07145 0.9072 0.0
C1000 C 0.51752 0.07791 0.92983 0.0
C1001 C 0.52095 0.10053 0.93487 0.0
C1002 C 0.52228 0.11626 0.91771 0.0
H1003 H 0.57773 0.14226 0.87718 0.0
H1004 H 0.56165 0.14334 0.90281 0.0
H1005 H 0.56559 0.11716 0.88876 0.0
H1006 H 0.51483 0.08194 0.87274 0.0
H1007 H 0.51257 0.05421 0.90268 0.0
H1008 H 0.83072 0.47933 0.78458 0.0
H1009 H 0.85546 0.47973 0.81753 0.0
H1010 H 0.81201 0.52832 0.8491 0.0
H1011 H 0.78716 0.52812 0.81593 0.0
H1012 H 0.85953 0.53972 0.84679 0.0
H1013 H 0.84541 0.45535 0.88193 0.0
H1014 H 0.85089 0.45579 0.85224 0.0
H1015 H 0.82556 0.46858 0.86304 0.0
C1016 C 0.82631 0.4899 0.79867 0.0
C1017 C 0.80713 0.50377 0.79775 0.0
C1018 C 0.84034 0.48999 0.8175 0.0
C1019 C 0.83542 0.50392 0.83575 0.0
C1020 C 0.81595 0.51737 0.83518 0.0
H1021 H 0.913 0.50476 0.95969 0.0
H1022 H 0.88265 0.50439 0.93192 0.0
C1023 C 0.80176 0.51716 0.81635 0.0
C1024 C 0.85168 0.50558 0.85452 0.0
H1025 H 0.87824 0.47485 0.89484 0.0
C1026 C 0.86348 0.52564 0.85749 0.0
C1027 C 0.85665 0.48719 0.86843 0.0
C1028 C 0.84384 0.46555 0.86645 0.0
C1029 C 0.88071 0.52757 0.87362 0.0
C1030 C 0.88634 0.50888 0.88687 0.0
C1031 C 0.87402 0.48905 0.88442 0.0
C1032 C 0.90491 0.50957 0.90352 0.0
C1033 C 0.89277 0.54955 0.87637 0.0
C1034 C 0.92751 0.51243 0.89663 0.0
C1035 C 0.94503 0.51262 0.91247 0.0
C1036 C 0.94018 0.50994 0.93545 0.0
C1037 C 0.91744 0.507 0.94218 0.0
C1038 C 0.90001 0.50674 0.92635 0.0
H1039 H 0.88304 0.56345 0.86873 0.0
H1040 H 0.89568 0.55331 0.8944 0.0
H1041 H 0.90957 0.54867 0.86794 0.0
H1042 H 0.93161 0.51429 0.87899 0.0
H1043 H 0.96232 0.51488 0.90667 0.0
H1044 H 0.7057 0.7347 0.02196 0.0
H1045 H 0.67386 0.70832 0.02154 0.0
H1046 H 0.70905 0.66823 0.97254 0.0
H1047 H 0.74068 0.6946 0.97263 0.0
H1048 H 0.66097 0.67381 0.96477 0.0
H1049 H 0.68229 0.64592 0.05139 0.0
H1050 H 0.67793 0.6753 0.04775 0.0
H1051 H 0.70167 0.662 0.0344 0.0
C1052 C 0.70638 0.7205 0.01077 0.0
C1053 C 0.72569 0.7165 0.99751 0.0
C1054 C 0.68833 0.7054 0.01068 0.0
C1055 C 0.68939 0.68621 0.9973 0.0
C1056 C 0.70805 0.68289 0.98308 0.0
H1057 H 0.61887 0.56038 0.00844 0.0
H1058 H 0.64717 0.59013 0.00592 0.0
C1059 C 0.72609 0.69789 0.98322 0.0
C1060 C 0.67177 0.66884 0.99894 0.0
H1061 H 0.65051 0.62918 0.03415 0.0
C1062 C 0.65856 0.6641 0.97994 0.0
C1063 C 0.66908 0.65601 0.01866 0.0
C1064 C 0.68357 0.65985 0.0392 0.0
C1065 C 0.64248 0.64691 0.98022 0.0
C1066 C 0.63951 0.63434 1.00008 0.0
C1067 C 0.65284 0.63896 0.01901 0.0
C1068 C 0.62248 0.61641 1.00159 0.0
C1069 C 0.62907 0.64202 0.95919 0.0
C1070 C 0.59933 0.62151 1.0003 0.0
C1071 C 0.58315 0.60466 1.00177 0.0
C1072 C 0.58983 0.58234 1.00463 0.0
C1073 C 0.61312 0.57734 0.00616 0.0
C1074 C 0.62931 0.59429 1.00475 0.0
H1075 H 0.63694 0.64968 0.94409 0.0
H1076 H 0.62759 0.62381 0.95644 0.0
H1077 H 0.61167 0.64888 0.96104 0.0
H1078 H 0.59377 0.63856 0.99823 0.0
H1079 H 0.56541 0.60922 1.00055 0.0
H1080 H 0.32633 0.73341 0.98716 0.0
H1081 H 0.35887 0.70782 0.98716 0.0
H1082 H 0.32504 0.66653 0.03605 0.0
H1083 H 0.29272 0.69207 0.03633 0.0
H1084 H 0.37301 0.67449 0.04402 0.0
H1085 H 0.35311 0.64466 0.95766 0.0
H1086 H 0.35599 0.67424 0.96128 0.0
H1087 H 0.33287 0.65987 0.97451 0.0
C1088 C 0.32607 0.71907 0.99815 0.0
C1089 C 0.30698 0.71454 0.01157 0.0
C1090 C 0.34452 0.70443 0.99802 0.0
C1091 C 0.3441 0.68519 0.01136 0.0
C1092 C 0.32555 0.68124 0.02555 0.0
H1093 H 0.41633 0.56075 1.00365 0.0
H1094 H 0.38806 0.59054 1.00499 0.0
C1095 C 0.30711 0.69576 0.02562 0.0
C1096 C 0.36243 0.66853 0.00995 0.0
H1097 H 0.38487 0.62875 0.97558 0.0
C1098 C 0.37576 0.66457 0.02904 0.0
C1099 C 0.3656 0.65545 0.99045 0.0
C1100 C 0.35108 0.65855 0.96981 0.0
C1101 C 0.3923 0.6478 0.02914 0.0
C1102 C 0.39561 0.63486 0.00958 0.0
C1103 C 0.38227 0.63881 0.99049 0.0
C1104 C 0.41272 0.61696 0.00868 0.0
C1105 C 0.40575 0.64368 0.05031 0.0
C1106 C 0.43586 0.62209 0.01004 0.0
C1107 C 0.45205 0.60518 0.00926 0.0
C1108 C 0.44538 0.58279 0.00704 0.0
C1109 C 0.4221 0.57776 0.00545 0.0
C1110 C 0.40591 0.59474 0.00618 0.0
H1111 H 0.39785 0.65174 0.06518 0.0
H1112 H 0.40736 0.62557 0.05362 0.0
H1113 H 0.4231 0.65058 0.04824 0.0
H1114 H 0.44141 0.6392 0.01163 0.0
H1115 H 0.46979 0.60976 0.01048 0.0
H1116 H 0.2924 0.32751 0.03107 0.0
H1117 H 0.32418 0.35367 0.03165 0.0
H1118 H 0.35737 0.31641 0.97913 0.0
H1119 H 0.32532 0.2903 0.97815 0.0
H1120 H 0.37168 0.34631 0.03841 0.0
H1121 H 0.35131 0.38079 0.95403 0.0
H1122 H 0.33147 0.36405 0.96981 0.0
H1123 H 0.35484 0.35111 0.95551 0.0
C1124 C 0.30649 0.32488 0.01966 0.0
C1125 C 0.30632 0.30706 1.00437 0.0
C1126 C 0.32464 0.33974 0.0201 0.0
C1127 C 0.34287 0.3371 1.00521 0.0
C1128 C 0.34324 0.31884 0.99052 0.0
H1129 H 0.46881 0.41181 0.00827 0.0
H1130 H 0.44012 0.38264 0.00826 0.0
C1131 C 0.32507 0.30388 0.99011 0.0
C1132 C 0.36105 0.35398 1.0047 0.0
H1133 H 0.3836 0.39531 0.97237 0.0
C1134 C 0.37441 0.35697 0.02396 0.0
C1135 C 0.3642 0.36803 0.98591 0.0
C1136 C 0.34962 0.36605 0.96517 0.0
C1137 C 0.391 0.37367 0.0249 0.0
C1138 C 0.39437 0.3875 0.006 0.0
C1139 C 0.38097 0.38456 0.98677 0.0
C1140 C 0.41167 0.40525 0.0059 0.0
C1141 C 0.40445 0.37671 0.04626 0.0
C1142 C 0.40512 0.42761 1.00411 0.0
C1143 C 0.42149 0.44443 1.00403 0.0
C1144 C 0.44471 0.43911 0.00557 0.0
C1145 C 0.45113 0.4166 0.00712 0.0
C1146 C 0.43475 0.39985 0.00724 0.0
H1147 H 0.39632 0.36822 0.06076 0.0
H1148 H 0.42166 0.36953 0.04397 0.0
H1149 H 0.40642 0.39463 0.05032 0.0
H1150 H 0.38733 0.43203 1.00295 0.0
H1151 H 0.41591 0.46154 1.00273 0.0
H1152 H 0.70891 0.2891 0.029 0.0
H1153 H 0.67679 0.31508 0.02971 0.0
H1154 H 0.70284 0.34757 0.97047 0.0
H1155 H 0.73464 0.32148 0.96941 0.0
H1156 H 0.68186 0.36163 0.03378 0.0
H1157 H 0.63513 0.33893 0.95618 0.0
H1158 H 0.65557 0.32064 0.96923 0.0
H1159 H 0.66499 0.34335 0.95194 0.0
C1160 C 0.70744 0.30145 0.01584 0.0
C1161 C 0.72424 0.30335 0.99918 0.0
C1162 C 0.68922 0.31633 0.01635 0.0
C1163 C 0.68742 0.33309 1.00005 0.0
C1164 C 0.70377 0.33454 0.98299 0.0
H1165 H 0.61857 0.46016 0.00589 0.0
H1166 H 0.64648 0.43001 1.00517 0.0
C1167 C 0.72199 0.31976 0.98252 0.0
C1168 C 0.66949 0.35017 1.00176 0.0
H1169 H 0.62558 0.37373 0.97301 0.0
C1170 C 0.66941 0.36419 0.02061 0.0
C1171 C 0.65327 0.35333 0.98457 0.0
C1172 C 0.65204 0.33815 0.96442 0.0
C1173 C 0.65378 0.38168 0.0225 0.0
C1174 C 0.63811 0.38534 1.00492 0.0
C1175 C 0.63785 0.371 0.98632 0.0
C1176 C 0.62144 0.40366 0.00571 0.0
C1177 C 0.65404 0.39598 0.04334 0.0
C1178 C 0.59821 0.39876 0.00589 0.0
C1179 C 0.58225 0.41586 0.0062 0.0
C1180 C 0.58921 0.43828 0.00622 0.0
C1181 C 0.61258 0.44313 0.00599 0.0
C1182 C 0.62857 0.42594 0.00568 0.0
H1183 H 0.66333 0.38786 0.05735 0.0
H1184 H 0.66264 0.41196 0.03951 0.0
H1185 H 0.63648 0.39977 0.04899 0.0
H1186 H 0.59241 0.38166 0.00584 0.0
H1187 H 0.56443 0.41139 0.00636 0.0
H1188 H 0.05101 0.69166 0.72651 0.0
H1189 H 0.05007 0.66709 0.69378 0.0
H1190 H 0.99743 0.70743 0.66418 0.0
H1191 H 0.99798 0.73191 0.69714 0.0
H1192 H 0.9877 0.66126 0.66596 0.0
H1193 H 0.07255 0.6778 0.62895 0.0
H1194 H 0.0731 0.67167 0.65848 0.0
H1195 H 0.05917 0.69645 0.64874 0.0
C1196 C 0.03932 0.69535 0.71297 0.0
C1197 C 0.02451 0.71363 0.71437 0.0
C1198 C 0.03896 0.68145 0.69421 0.0
C1199 C 0.02386 0.68563 0.67651 0.0
C1200 C 0.00931 0.70407 0.67765 0.0
H1201 H 0.02152 0.61067 0.55131 0.0
H1202 H 0.02219 0.64048 0.57915 0.0
C1203 C 0.00973 0.71806 0.69638 0.0
C1204 C 0.02221 0.66981 0.65762 0.0
H1205 H 0.05309 0.64545 0.61581 0.0
C1206 C 0.0019 0.65794 0.65483 0.0
C1207 C 0.04072 0.6657 0.64308 0.0
C1208 C 0.06256 0.67871 0.64477 0.0
C1209 C 0.99986 0.64146 0.63829 0.0
C1210 C 0.01871 0.63667 0.62442 0.0
C1211 C 0.03876 0.64906 0.62668 0.0
C1212 C 0.01806 0.61858 0.60766 0.0
C1213 C 0.97758 0.6293 0.6358 0.0
C1214 C 0.01576 0.59641 0.61458 0.0
C1215 C 0.0154 0.57928 0.59876 0.0
C1216 C 0.01738 0.58404 0.5757 0.0
C1217 C 0.01983 0.60634 0.56889 0.0
C1218 C 0.02026 0.62343 0.58475 0.0
H1219 H 0.96336 0.63855 0.64375 0.0
H1220 H 0.97349 0.62651 0.61781 0.0
H1221 H 0.97889 0.61282 0.64409 0.0
H1222 H 0.01441 0.59235 0.63226 0.0
H1223 H 0.01353 0.56233 0.60465 0.0
H1224 H 0.32895 0.04226 0.72717 0.0
H1225 H 0.3536 0.04237 0.69411 0.0
H1226 H 0.31095 0.99308 0.66261 0.0
H1227 H 0.28627 0.99271 0.69587 0.0
H1228 H 0.35801 0.98204 0.66493 0.0
H1229 H 0.34434 0.0664 0.6297 0.0
H1230 H 0.34988 0.06607 0.65938 0.0
H1231 H 0.32446 0.05334 0.6487 0.0
C1232 C 0.32467 0.03167 0.71306 0.0
C1233 C 0.3058 0.0174 0.71406 0.0
C1234 C 0.33864 0.03188 0.69414 0.0
C1235 C 0.33395 0.01787 0.6759 0.0
C1236 C 0.31471 1.00411 0.67652 0.0
H1237 H 0.41232 0.0162 0.55217 0.0
H1238 H 0.38176 0.01708 0.57977 0.0
C1239 C 0.30061 1.00399 0.69542 0.0
C1240 C 0.35035 0.01622 0.6572 0.0
H1241 H 0.37722 0.04681 0.61692 0.0
C1242 C 0.36206 0.9961 0.65425 0.0
C1243 C 0.35547 0.03459 0.6433 0.0
C1244 C 0.34275 0.05628 0.64523 0.0
C1245 C 0.37932 0.99408 0.63815 0.0
C1246 C 0.3851 0.01274 0.6249 0.0
C1247 C 0.37288 0.03263 0.62734 0.0
C1248 C 0.40377 0.01192 0.60835 0.0
C1249 C 0.39126 0.97204 0.63543 0.0
C1250 C 0.42629 1.00893 0.61538 0.0
C1251 C 0.44392 1.00843 0.59965 0.0
C1252 C 0.43926 0.01094 0.57662 0.0
C1253 C 0.4166 0.01406 0.56973 0.0
C1254 C 0.39906 0.01463 0.58547 0.0
H1255 H 0.38139 0.95819 0.64302 0.0
H1256 H 0.39423 0.96826 0.61741 0.0
H1257 H 0.408 0.97281 0.64393 0.0
H1258 H 0.43025 1.00714 0.63306 0.0
H1259 H 0.46113 1.00606 0.60558 0.0
H1260 H 0.04155 0.28742 0.68373 0.0
H1261 H 0.04068 0.32016 0.65927 0.0
H1262 H 0.99464 0.35274 0.70497 0.0
H1263 H 0.99519 0.31994 0.72951 0.0
H1264 H 0.9865 0.34439 0.64875 0.0
H1265 H 0.06143 0.39082 0.68163 0.0
H1266 H 0.06221 0.36081 0.68037 0.0
H1267 H 0.04353 0.37431 0.69982 0.0
C1268 C 0.03124 0.30155 0.68857 0.0
C1269 C 0.01834 0.30111 0.70845 0.0
C1270 C 0.03088 0.32022 0.67469 0.0
C1271 C 0.01765 0.3387 0.68046 0.0
C1272 C 0.00503 0.33856 0.70041 0.0
H1273 H 0.01138 0.46463 0.60792 0.0
H1274 H 0.01048 0.43636 0.63741 0.0
C1275 C 0.00544 0.3199 0.71439 0.0
C1276 C 0.01621 0.35768 0.66495 0.0
H1277 H 0.04386 0.40489 0.64894 0.0
C1278 C 0.99889 0.35775 0.64884 0.0
C1279 C 0.03234 0.375 0.66538 0.0
C1280 C 0.05098 0.37547 0.68272 0.0
C1281 C 0.99758 0.37461 0.63264 0.0
C1282 C 0.01428 0.39154 0.63247 0.0
C1283 C 0.03119 0.3918 0.64908 0.0
C1284 C 0.01492 0.40864 0.61467 0.0
C1285 C 0.97838 0.37414 0.61587 0.0
C1286 C 0.01809 0.40236 0.59221 0.0
C1287 C 0.01857 0.41841 0.5753 0.0
C1288 C 0.01609 0.44109 0.58058 0.0
C1289 C 0.01333 0.44734 0.60322 0.0
C1290 C 0.0128 0.43122 0.62011 0.0
H1291 H 0.96383 0.3641 0.62206 0.0
H1292 H 0.9723 0.39121 0.61204 0.0
H1293 H 0.98448 0.3665 0.6 0.0
H1294 H 0.02028 0.38503 0.58775 0.0
H1295 H 0.02097 0.41296 0.55812 0.0
H1296 H 0.70457 0.99201 0.73273 0.0
H1297 H 0.67149 0.99195 0.70754 0.0
H1298 H 0.70405 0.04096 0.66557 0.0
H1299 H 0.73688 0.04129 0.69069 0.0
H1300 H 0.65611 0.04813 0.67388 0.0
H1301 H 0.67708 0.96284 0.64379 0.0
H1302 H 0.67421 0.96644 0.67366 0.0
H1303 H 0.69714 0.97977 0.65907 0.0
C1304 C 0.70441 1.00305 0.71835 0.0
C1305 C 0.72331 0.01647 0.71345 0.0
C1306 C 0.68565 1.00288 0.70394 0.0
C1307 C 0.68558 0.0162 0.68458 0.0
C1308 C 0.70389 0.03048 0.68037 0.0
H1309 H 0.61442 1.00803 0.55858 0.0
H1310 H 0.64226 1.00949 0.58904 0.0
C1311 C 0.72263 0.03058 0.69465 0.0
C1312 C 0.66713 0.01452 0.66788 0.0
H1313 H 0.64525 0.98028 0.62759 0.0
C1314 C 0.65356 0.03326 0.66387 0.0
C1315 C 0.66422 0.99519 0.65467 0.0
C1316 C 0.67899 0.97491 0.6578 0.0
C1317 C 0.63708 0.0332 0.64686 0.0
C1318 C 0.6341 0.01382 0.63373 0.0
C1319 C 0.64761 0.99506 0.63779 0.0
C1320 C 0.61722 0.01281 0.61542 0.0
C1321 C 0.62342 0.05401 0.64265 0.0
C1322 C 0.59399 0.01393 0.6203 0.0
C1323 C 0.57804 0.01308 0.60301 0.0
C1324 C 0.58504 0.01104 0.58046 0.0
C1325 C 0.6084 0.00969 0.57569 0.0
C1326 C 0.62435 0.01048 0.59306 0.0
H1327 H 0.63103 0.06879 0.65095 0.0
H1328 H 0.622 0.05735 0.62435 0.0
H1329 H 0.60601 0.05172 0.6494 0.0
H1330 H 0.58819 0.01539 0.63751 0.0
H1331 H 0.56023 0.01412 0.6074 0.0
H1332 H 0.0441 0.32948 0.28495 0.0
H1333 H 0.04354 0.35406 0.31776 0.0
H1334 H 0.99328 0.31218 0.34918 0.0
H1335 H 0.99372 0.28745 0.31633 0.0
H1336 H 0.98332 0.36082 0.34548 0.0
H1337 H 0.06703 0.34102 0.38378 0.0
H1338 H 0.06698 0.3454 0.35387 0.0
H1339 H 0.05219 0.32196 0.36544 0.0
C1340 C 0.03305 0.32545 0.29893 0.0
C1341 C 0.01891 0.30664 0.29815 0.0
C1342 C 0.03286 0.33939 0.31766 0.0
C1343 C 0.01849 0.33477 0.33584 0.0
C1344 C 0.00457 0.31585 0.3353 0.0
H1345 H 0.01661 0.40934 0.46127 0.0
H1346 H 0.01632 0.37959 0.43336 0.0
C1347 C 0.00491 0.30176 0.31663 0.0
C1348 C 0.01706 0.35055 0.35475 0.0
H1349 H 0.04797 0.37312 0.39749 0.0
C1350 C 0.99733 0.3634 0.35702 0.0
C1351 C 0.03535 0.35368 0.36974 0.0
C1352 C 0.05657 0.3397 0.3683 0.0
C1353 C 0.99569 0.37991 0.37357 0.0
C1354 C 0.01435 0.38367 0.38801 0.0
C1355 C 0.03378 0.37028 0.38622 0.0
C1356 C 0.0142 0.40172 0.40482 0.0
C1357 C 0.97407 0.39326 0.37544 0.0
C1358 C 0.01334 0.42399 0.39791 0.0
C1359 C 0.01352 0.44109 0.41378 0.0
C1360 C 0.01466 0.4362 0.43687 0.0
C1361 C 0.01566 0.41379 0.44367 0.0
C1362 C 0.01552 0.39672 0.42776 0.0
H1363 H 0.95961 0.3848 0.36705 0.0
H1364 H 0.96958 0.39625 0.39331 0.0
H1365 H 0.97656 0.40965 0.36723 0.0
H1366 H 0.01271 0.42815 0.38022 0.0
H1367 H 0.01283 0.45812 0.40788 0.0
H1368 H 0.7098 0.9885 0.28746 0.0
H1369 H 0.67776 0.98881 0.31369 0.0
H1370 H 0.70601 0.04622 0.34697 0.0
H1371 H 0.73778 0.04637 0.32049 0.0
H1372 H 0.68237 0.98422 0.36047 0.0
H1373 H 0.63892 0.06306 0.33798 0.0
H1374 H 0.65903 0.04956 0.31955 0.0
H1375 H 0.66888 0.06587 0.3429 0.0
C1376 C 0.70889 1.0015 0.30003 0.0
C1377 C 0.72627 0.01741 0.30196 0.0
C1378 C 0.69069 1.00156 0.31507 0.0
C1379 C 0.68949 0.01764 0.33211 0.0
C1380 C 0.70649 0.03388 0.33372 0.0
H1381 H 0.61632 0.01107 0.45825 0.0
H1382 H 0.64531 0.01234 0.42886 0.0
C1383 C 0.7247 0.03382 0.31873 0.0
C1384 C 0.67135 0.01649 0.34919 0.0
H1385 H 0.6275 0.04577 0.37215 0.0
C1386 C 0.67027 0.99759 0.36297 0.0
C1387 C 0.65558 0.03394 0.35224 0.0
C1388 C 0.65545 0.05418 0.33727 0.0
C1389 C 0.65399 0.99583 0.38005 0.0
C1390 C 0.63867 0.01358 0.38356 0.0
C1391 C 0.63948 0.03231 0.36952 0.0
C1392 C 0.62127 0.01282 0.40139 0.0
C1393 C 0.65313 0.97492 0.39403 0.0
C1394 C 0.59823 0.01307 0.39561 0.0
C1395 C 0.58163 0.01243 0.41229 0.0
C1396 C 0.58777 0.01164 0.43514 0.0
C1397 C 0.61095 0.01155 0.44086 0.0
C1398 C 0.62756 0.01219 0.4241 0.0
H1399 H 0.66241 0.96098 0.3859 0.0
H1400 H 0.66115 0.97816 0.41058 0.0
H1401 H 0.6353 0.96969 0.39704 0.0
H1402 H 0.5931 0.01363 0.37814 0.0
H1403 H 0.56399 0.01258 0.40717 0.0
H1404 H 0.99668 0.69929 0.28222 0.0
H1405 H 0.9962 0.66679 0.30712 0.0
H1406 H 0.03897 0.70146 0.3543 0.0
H1407 H 0.04005 0.73378 0.32938 0.0
H1408 H 0.04215 0.64478 0.33146 0.0
H1409 H 0.97221 0.68003 0.38362 0.0
H1410 H 0.9751 0.68641 0.35409 0.0
H1411 H 0.99443 0.69833 0.37398 0.0
C1412 C 0.00629 0.69985 0.29772 0.0
C1413 C 0.01826 0.71915 0.30394 0.0
C1414 C 0.00592 0.68134 0.3119 0.0
C1415 C 0.01745 0.68194 0.33246 0.0
C1416 C 0.02989 0.70086 0.33848 0.0
H1417 H 0.02428 0.60656 0.45382 0.0
H1418 H 0.02461 0.63438 0.42405 0.0
C1419 C 0.03034 0.71932 0.32432 0.0
C1420 C 0.01584 0.66319 0.34826 0.0
H1421 H 0.98936 0.64699 0.39645 0.0
C1422 C 0.03051 0.64504 0.34559 0.0
C1423 C 1.00068 0.66388 0.3666 0.0
C1424 C 0.98458 0.68312 0.36987 0.0
C1425 C 0.03084 0.62767 0.36132 0.0
C1426 C 0.0158 0.62844 0.37986 0.0
C1427 C 1.00085 0.64647 0.38221 0.0
C1428 C 0.01588 0.61123 0.39758 0.0
C1429 C 0.04784 0.6091 0.35844 0.0
C1430 C 0.01068 0.58902 0.39256 0.0
C1431 C 0.01057 0.57299 0.40954 0.0
C1432 C 0.0154 0.57899 0.43189 0.0
C1433 C 0.02039 0.60134 0.43684 0.0
C1434 C 0.02062 0.61728 0.41984 0.0
H1435 H 0.06159 0.61368 0.34652 0.0
H1436 H 0.05562 0.60455 0.3748 0.0
H1437 H 0.03906 0.5942 0.3517 0.0
H1438 H 0.00649 0.58412 0.37555 0.0
H1439 H 0.00645 0.55598 0.40516 0.0
H1440 H 0.28772 0.02697 0.3153 0.0
H1441 H 0.31358 0.02768 0.34774 0.0
H1442 H 0.36115 0.9865 0.31167 0.0
H1443 H 0.33543 0.98536 0.27948 0.0
H1444 H 0.34062 0.98232 0.36881 0.0
H1445 H 0.38942 0.0533 0.3327 0.0
H1446 H 0.35936 0.04984 0.32764 0.0
H1447 H 0.37931 0.03171 0.31419 0.0
C1448 C 0.30352 0.01776 0.31449 0.0
C1449 C 0.30972 1.00633 0.29481 0.0
C1450 C 0.31824 0.01826 0.33293 0.0
C1451 C 0.33922 1.00729 0.33185 0.0
C1452 C 0.34504 0.99516 0.31263 0.0
H1453 H 0.46444 1.00384 0.40607 0.0
H1454 H 0.43437 1.00306 0.37774 0.0
C1455 C 0.3304 0.99464 0.29427 0.0
C1456 C 0.35576 1.00919 0.35028 0.0
H1457 H 0.40419 0.03646 0.3653 0.0
C1458 C 0.35442 0.99427 0.36828 0.0
C1459 C 0.37376 0.02465 0.34916 0.0
C1460 C 0.37569 0.04091 0.32997 0.0
C1461 C 0.37105 0.99412 0.38515 0.0
C1462 C 0.38915 0.00959 0.38404 0.0
C1463 C 0.39029 0.02465 0.36608 0.0
C1464 C 0.40727 0.01025 0.4012 0.0
C1465 C 0.3695 0.97697 0.40359 0.0
C1466 C 0.40198 0.01494 0.42366 0.0
C1467 C 0.41905 0.01532 0.43988 0.0
C1468 C 0.44182 0.01125 0.43391 0.0
C1469 C 0.44712 1.00704 0.41127 0.0
C1470 C 0.42997 1.00656 0.39506 0.0
H1471 H 0.35815 0.96295 0.39889 0.0
H1472 H 0.38653 0.97018 0.40772 0.0
H1473 H 0.36248 0.98486 0.41894 0.0
H1474 H 0.38463 0.01837 0.42863 0.0
H1475 H 0.41433 0.01891 0.45709 0.0
H1476 H 0.99738 0.23059 0.31197 0.0
H1477 H 0.00272 0.20574 0.34429 0.0
H1478 H 0.02053 0.15225 0.2993 0.0
H1479 H 0.01578 0.17723 0.26711 0.0
H1480 H 0.97977 0.1684 0.35472 0.0
H1481 H 0.0705 0.14669 0.3448 0.0
H1482 H 0.05751 0.1693 0.32958 0.0
H1483 H 0.05437 0.14109 0.3199 0.0
C1484 C 0.00282 0.21362 0.30906 0.0
C1485 C 0.00614 0.20585 0.28701 0.0
C1486 C 0.00577 0.19938 0.32752 0.0
C1487 C 0.01229 0.17707 0.3244 0.0
C1488 C 0.016 0.16944 0.30235 0.0
H1489 H 0.02242 0.05802 0.40606 0.0
H1490 H 0.02131 0.08608 0.37644 0.0
C1491 C 0.01315 0.18371 0.2839 0.0
C1492 C 0.01398 0.16151 0.34402 0.0
H1493 H 0.04894 0.12383 0.3698 0.0
C1494 C 0.995 0.15885 0.35813 0.0
C1495 C 0.03381 0.14893 0.34861 0.0
C1496 C 0.05528 0.15178 0.33506 0.0
C1497 C 0.99505 0.1436 0.37612 0.0
C1498 C 0.01473 0.13075 0.38043 0.0
C1499 C 0.03381 0.13358 0.36652 0.0
C1500 C 0.01565 0.11383 0.39886 0.0
C1501 C 0.97374 0.14084 0.38993 0.0
C1502 C 0.01313 0.12 0.42152 0.0
C1503 C 0.01379 0.10392 0.43865 0.0
C1504 C 0.01701 0.08124 0.43353 0.0
C1505 C 0.01979 0.07522 0.41079 0.0
C1506 C 0.01922 0.0913 0.39374 0.0
H1507 H 0.95865 0.14802 0.3814 0.0
H1508 H 0.97041 0.123 0.39346 0.0
H1509 H 0.97591 0.14953 0.40624 0.0
H1510 H 0.01075 0.1373 0.42601 0.0
H1511 H 0.01164 0.10929 0.45588 0.0
H1512 H 0.80325 0.04811 0.31187 0.0
H1513 H 0.83599 0.04677 0.33702 0.0
H1514 H 0.8556 0.98356 0.30877 0.0
H1515 H 0.82248 0.98472 0.28364 0.0
H1516 H 0.85193 0.9831 0.35551 0.0
H1517 H 0.90413 0.05469 0.32791 0.0
H1518 H 0.87493 0.06187 0.33262 0.0
H1519 H 0.88216 0.0427 0.31054 0.0
C1520 C 0.81487 0.03418 0.31065 0.0
C1521 C 0.81038 0.01653 0.2958 0.0
C1522 C 0.83361 0.03347 0.32497 0.0
C1523 C 0.84835 0.01514 0.32469 0.0
C1524 C 0.84449 0.99791 0.30918 0.0
H1525 H 0.97076 1.00772 0.40581 0.0
H1526 H 0.94321 1.00799 0.3754 0.0
C1527 C 0.82572 0.99867 0.29471 0.0
C1528 C 0.86637 0.01318 0.34203 0.0
H1529 H 0.91196 0.04027 0.36458 0.0
C1530 C 0.86521 0.99546 0.35736 0.0
C1531 C 0.88374 0.02926 0.34439 0.0
C1532 C 0.8865 0.04809 0.32786 0.0
C1533 C 0.88059 0.99372 0.37533 0.0
C1534 C 0.89735 0.01033 0.37823 0.0
C1535 C 0.8989 0.0277 0.36253 0.0
C1536 C 0.91384 0.00974 0.39712 0.0
C1537 C 0.87886 0.97402 0.39092 0.0
C1538 C 0.90651 0.01077 0.41957 0.0
C1539 C 0.92229 0.01059 0.4372 0.0
C1540 C 0.94573 1.00952 0.43267 0.0
C1541 C 0.95291 1.00857 0.41009 0.0
C1542 C 0.93716 1.00874 0.39257 0.0
H1543 H 0.86916 0.96012 0.3832 0.0
H1544 H 0.89596 0.96785 0.39569 0.0
H1545 H 0.86987 0.97912 0.40648 0.0
H1546 H 0.88858 0.01199 0.42346 0.0
H1547 H 0.91611 0.01146 0.45431 0.0
H1548 H 0.98225 0.79191 0.31729 0.0
H1549 H 0.98271 0.82419 0.34226 0.0
H1550 H 0.04246 0.84894 0.30868 0.0
H1551 H 0.04213 0.81633 0.28362 0.0
H1552 H 0.04704 0.84712 0.35556 0.0
H1553 H 0.96684 0.88963 0.33292 0.0
H1554 H 0.96316 0.86057 0.33879 0.0
H1555 H 0.97995 0.86903 0.31503 0.0
C1556 C 0.9952 0.80449 0.31487 0.0
C1557 C 0.01209 0.80162 0.29838 0.0
C1558 C 0.99541 0.823 0.32915 0.0
C1559 C 0.01252 0.83917 0.32734 0.0
C1560 C 0.02901 0.83676 0.31037 0.0
H1561 H 0.01434 0.96246 0.40559 0.0
H1562 H 0.01399 0.93469 0.3757 0.0
C1563 C 0.02871 0.81825 0.29591 0.0
C1564 C 0.014 0.85754 0.34424 0.0
H1565 H 0.98378 0.90023 0.3678 0.0
C1566 C 0.03328 0.85885 0.35809 0.0
C1567 C 0.99615 0.87299 0.34756 0.0
C1568 C 0.97544 0.87318 0.33265 0.0
C1569 C 0.03492 0.87472 0.37546 0.0
C1570 C 0.01667 0.88959 0.37936 0.0
C1571 C 0.99767 0.88869 0.36509 0.0
C1572 C 0.01709 0.90641 0.39789 0.0
C1573 C 0.05631 0.87555 0.38937 0.0
C1574 C 0.01871 0.89987 0.42053 0.0
C1575 C 0.0189 0.91578 0.43782 0.0
C1576 C 0.01743 0.93867 0.43292 0.0
C1577 C 0.01563 0.94508 0.41019 0.0
C1578 C 0.01537 0.92918 0.39297 0.0
H1579 H 0.07074 0.86725 0.38074 0.0
H1580 H 0.06118 0.893 0.39317 0.0
H1581 H 0.05333 0.86682 0.40553 0.0
H1582 H 0.0196 0.8824 0.42486 0.0
H1583 H 0.02018 0.9101 0.45504 0.0
H1584 H 0.19773 0.05007 0.28194 0.0
H1585 H 0.1761 0.04741 0.31695 0.0
H1586 H 0.19509 0.97839 0.32311 0.0
H1587 H 0.21608 0.98079 0.28772 0.0
H1588 H 0.15102 0.98357 0.32999 0.0
H1589 H 0.19636 0.04602 0.38133 0.0
H1590 H 0.18675 0.05752 0.35524 0.0
H1591 H 0.20763 0.03563 0.35515 0.0
C1592 C 0.19759 0.03445 0.291 0.0
C1593 C 0.20909 0.01585 0.28235 0.0
C1594 C 0.18535 0.03296 0.31108 0.0
C1595 C 0.18442 0.01285 0.32304 0.0
C1596 C 0.1958 0.99418 0.31436 0.0
H1597 H 0.11909 1.00439 0.4559 0.0
H1598 H 0.1473 1.00362 0.42559 0.0
C1599 C 0.2079 0.9956 0.29416 0.0
C1600 C 0.17023 0.01092 0.34365 0.0
H1601 H 0.15924 0.03537 0.39437 0.0
C1602 C 0.15303 0.99474 0.34417 0.0
C1603 C 0.173 0.02522 0.36237 0.0
C1604 C 0.1921 0.04191 0.36363 0.0
C1605 C 0.13801 0.99306 0.36242 0.0
C1606 C 0.13985 1.00832 0.38045 0.0
C1607 C 0.15762 0.02389 0.3804 0.0
C1608 C 0.12291 1.00895 0.39896 0.0
C1609 C 0.12029 0.97492 0.36218 0.0
C1610 C 0.09991 0.01265 0.39412 0.0
C1611 C 0.08378 0.01303 0.41131 0.0
C1612 C 0.09026 0.00995 0.43387 0.0
C1613 C 0.11343 1.00676 0.43876 0.0
C1614 C 0.1296 1.0063 0.42145 0.0
H1615 H 0.12556 0.96078 0.35135 0.0
H1616 H 0.11694 0.96855 0.37937 0.0
H1617 H 0.1042 0.98168 0.3553 0.0
H1618 H 0.09441 0.01534 0.37698 0.0
H1619 H 0.06619 0.01583 0.40682 0.0
H1620 H 0.03394 0.83203 0.7392 0.0
H1621 H 0.0375 0.85702 0.70664 0.0
H1622 H 0.98353 0.82165 0.67324 0.0
H1623 H 0.97997 0.79672 0.70567 0.0
H1624 H 0.04563 0.8487 0.65953 0.0
H1625 H 0.96115 0.88696 0.67464 0.0
H1626 H 0.97551 0.87037 0.69553 0.0
H1627 H 0.96113 0.85714 0.67252 0.0
C1628 C 0.02305 0.82947 0.72477 0.0
C1629 C 0.00663 0.81247 0.72504 0.0
C1630 C 0.02506 0.84376 0.70618 0.0
C1631 C 0.01054 0.84149 0.68756 0.0
C1632 C 0.99468 0.82402 0.68751 0.0
H1633 H 0.02124 0.90979 0.55698 0.0
H1634 H 0.0202 0.88184 0.58695 0.0
C1635 C 0.99274 0.80968 0.70602 0.0
C1636 C 0.01149 0.85778 0.66856 0.0
H1637 H 0.9805 0.89791 0.64166 0.0
C1638 C 0.03138 0.85943 0.65559 0.0
C1639 C 0.99301 0.87202 0.66352 0.0
C1640 C 0.97153 0.87177 0.67736 0.0
C1641 C 0.03317 0.87468 0.63765 0.0
C1642 C 0.01452 0.88864 0.63237 0.0
C1643 C 0.99474 0.88713 0.6455 0.0
C1644 C 0.01544 0.90555 0.6139 0.0
C1645 C 0.05521 0.87609 0.6248 0.0
C1646 C 0.01269 0.92823 0.61886 0.0
C1647 C 0.01323 0.94426 0.60177 0.0
C1648 C 0.01634 0.93808 0.57912 0.0
C1649 C 0.01889 0.91529 0.57415 0.0
C1650 C 0.01844 0.89923 0.59133 0.0
H1651 H 0.0694 0.86806 0.63402 0.0
H1652 H 0.05324 0.86749 0.60843 0.0
H1653 H 0.0598 0.89369 0.6214 0.0
H1654 H 0.01023 0.93358 0.63608 0.0
H1655 H 0.01108 0.96155 0.60641 0.0
H1656 H 0.17822 1.00899 0.74762 0.0
H1657 H 0.15534 0.01274 0.71339 0.0
H1658 H 0.21155 0.98841 0.67388 0.0
H1659 H 0.23422 0.98411 0.70821 0.0
H1660 H 0.16236 0.03751 0.67533 0.0
H1661 H 0.16042 0.94755 0.65406 0.0
H1662 H 0.1699 0.95764 0.68101 0.0
H1663 H 0.18842 0.95899 0.65703 0.0
C1664 C 0.18556 1.0043 0.73162 0.0
C1665 C 0.20775 0.99581 0.73052 0.0
C1666 C 0.17256 1.00652 0.71209 0.0
C1667 C 0.18155 1.00042 0.69111 0.0
C1668 C 0.20403 0.99265 0.68993 0.0
H1669 H 0.11772 1.00099 0.55781 0.0
H1670 H 0.14573 0.99988 0.58826 0.0
C1671 C 0.217 0.99032 0.70948 0.0
C1672 C 0.16736 1.00234 0.67056 0.0
H1673 H 0.14351 0.97213 0.628 0.0
C1674 C 0.15828 0.02322 0.66497 0.0
C1675 C 0.16208 0.98369 0.65699 0.0
C1676 C 0.17052 0.96065 0.66262 0.0
C1677 C 0.14398 0.02592 0.64628 0.0
C1678 C 0.13843 1.00721 0.63297 0.0
C1679 C 0.14789 0.98644 0.63822 0.0
C1680 C 0.12175 1.00861 0.61435 0.0
C1681 C 0.13494 0.04878 0.6409 0.0
C1682 C 0.099 0.0137 0.61898 0.0
C1683 C 0.08296 0.01426 0.60171 0.0
C1684 C 0.08933 0.00971 0.57937 0.0
C1685 C 0.11222 1.0047 0.57476 0.0
C1686 C 0.12825 1.00401 0.59214 0.0
H1687 H 0.14527 0.06206 0.6489 0.0
H1688 H 0.13458 0.05163 0.62247 0.0
H1689 H 0.1173 0.05022 0.64733 0.0
H1690 H 0.09355 0.01695 0.63606 0.0
H1691 H 0.06554 0.01821 0.60596 0.0
H1692 H 0.98285 0.22854 0.69436 0.0
H1693 H 0.98305 0.19615 0.66952 0.0
H1694 H 0.0423 0.17085 0.70347 0.0
H1695 H 0.04221 0.20355 0.72842 0.0
H1696 H 0.047 0.17232 0.65642 0.0
H1697 H 0.96629 0.1309 0.67951 0.0
H1698 H 0.96302 0.15998 0.6735 0.0
H1699 H 0.97972 0.15141 0.69726 0.0
C1700 C 0.99564 0.21583 0.69687 0.0
C1701 C 0.01246 0.21857 0.71345 0.0
C1702 C 0.9957 0.19726 0.68267 0.0
C1703 C 0.01258 0.18088 0.68464 0.0
C1704 C 0.02902 0.18318 0.70166 0.0
H1705 H 0.01292 0.05705 0.60699 0.0
H1706 H 0.01287 0.08493 0.63681 0.0
C1707 C 0.02886 0.20176 0.71605 0.0
C1708 C 0.01385 0.16236 0.66788 0.0
H1709 H 0.9831 0.11982 0.64471 0.0
C1710 C 0.0331 0.16072 0.65401 0.0
C1711 C 0.99582 0.14707 0.66472 0.0
C1712 C 0.97513 0.14723 0.67967 0.0
C1713 C 0.03453 0.14471 0.63675 0.0
C1714 C 0.0161 0.13002 0.63299 0.0
C1715 C 0.99714 0.13122 0.64731 0.0
C1716 C 0.01626 0.11311 0.61452 0.0
C1717 C 0.05589 0.14354 0.62279 0.0
C1718 C 0.01791 0.11956 0.59186 0.0
C1719 C 0.0179 0.10359 0.57462 0.0
C1720 C 0.0162 0.08073 0.5796 0.0
C1721 C 0.01436 0.07441 0.60234 0.0
C1722 C 0.01429 0.09038 0.61952 0.0
H1723 H 0.07043 0.15171 0.63134 0.0
H1724 H 0.06052 0.12602 0.61906 0.0
H1725 H 0.053 0.15224 0.6066 0.0
H1726 H 0.019 0.137 0.58747 0.0
H1727 H 0.01927 0.1092 0.55739 0.0
H1728 H 0.82502 0.03394 0.73067 0.0
H1729 H 0.85757 0.03311 0.70477 0.0
H1730 H 0.82651 0.97911 0.66829 0.0
H1731 H 0.79426 0.9797 0.69417 0.0
H1732 H 0.87398 0.97427 0.6744 0.0
H1733 H 0.85049 0.05705 0.63978 0.0
H1734 H 0.8548 0.05592 0.66966 0.0
H1735 H 0.83151 0.04105 0.65727 0.0
C1736 C 0.82544 0.0216 0.71742 0.0
C1737 C 0.80706 1.00701 0.71428 0.0
C1738 C 0.84389 0.02128 0.70252 0.0
C1739 C 0.84421 1.00633 0.68436 0.0
C1740 C 0.82652 0.99088 0.68208 0.0
H1741 H 0.91543 0.01142 0.55679 0.0
H1742 H 0.88724 0.0105 0.58707 0.0
C1743 C 0.80811 0.99126 0.69684 0.0
C1744 C 0.86223 1.00734 0.66695 0.0
H1745 H 0.88296 0.03976 0.62448 0.0
C1746 C 0.87607 0.98863 0.66357 0.0
C1747 C 0.86458 0.02594 0.65257 0.0
C1748 C 0.84948 0.0461 0.65478 0.0
C1749 C 0.89229 0.98806 0.64626 0.0
C1750 C 0.89487 1.00679 0.6321 0.0
C1751 C 0.88098 0.02547 0.63542 0.0
C1752 C 0.91194 1.00733 0.61376 0.0
C1753 C 0.90617 0.96722 0.64293 0.0
C1754 C 0.93516 1.00614 0.61876 0.0
C1755 C 0.95129 1.00666 0.60157 0.0
C1756 C 0.94459 1.00849 0.57891 0.0
C1757 C 0.92126 0.0099 0.57397 0.0
C1758 C 0.9051 1.00942 0.59126 0.0
H1759 H 0.89838 0.95264 0.65144 0.0
H1760 H 0.90812 0.96335 0.62478 0.0
H1761 H 0.92335 0.96976 0.65011 0.0
H1762 H 0.94083 1.00493 0.63603 0.0
H1763 H 0.96905 1.0056 0.60615 0.0
H1764 H 0.29088 0.98553 0.19602 0.0
H1765 H 0.31662 0.98647 0.16351 0.0
H1766 H 0.34931 0.04483 0.19052 0.0
H1767 H 0.32353 0.04413 0.22275 0.0
H1768 H 0.34311 0.04593 0.14317 0.0
H1769 H 0.38382 0.96774 0.17268 0.0
H1770 H 0.35365 0.96639 0.16825 0.0
H1771 H 0.36485 0.9838 0.19012 0.0
C1772 C 0.30317 0.99887 0.19467 0.0
C1773 C 0.30537 0.01465 0.21195 0.0
C1774 C 0.318 0.99926 0.17626 0.0
C1775 C 0.33515 0.01546 0.17489 0.0
C1776 C 0.33631 0.0321 0.19135 0.0
H1777 H 0.46449 0.01295 0.1051 0.0
H1778 H 0.43378 0.01425 0.13284 0.0
C1779 C 0.3216 0.03167 0.20974 0.0
C1780 C 0.3529 0.0144 0.15724 0.0
H1781 H 0.39811 0.98351 0.13927 0.0
C1782 C 0.35506 0.03224 0.1422 0.0
C1783 C 0.36874 0.99671 0.15635 0.0
C1784 C 0.36788 0.97763 0.17279 0.0
C1785 C 0.37257 0.0328 0.12616 0.0
C1786 C 0.38816 0.01492 0.12503 0.0
C1787 C 0.38607 0.99714 0.14014 0.0
C1788 C 0.40676 0.01432 0.10822 0.0
C1789 C 0.37455 0.05275 0.11093 0.0
C1790 C 0.40173 0.01365 0.08524 0.0
C1791 C 0.41917 0.01292 0.06936 0.0
C1792 C 0.44211 0.01272 0.07612 0.0
C1793 C 0.44709 0.01318 0.09924 0.0
C1794 C 0.42955 0.01389 0.11513 0.0
H1795 H 0.36506 0.06729 0.11762 0.0
H1796 H 0.39259 0.05758 0.10856 0.0
H1797 H 0.36737 0.04855 0.09422 0.0
H1798 H 0.38425 0.01352 0.07955 0.0
H1799 H 0.41455 0.01247 0.05176 0.0
H1800 H 0.04151 0.28749 0.1992 0.0
H1801 H 0.04151 0.31284 0.1667 0.0
H1802 H 0.9827 0.34637 0.19344 0.0
H1803 H 0.98255 0.32109 0.22562 0.0
H1804 H 0.98056 0.34061 0.1468 0.0
H1805 H 0.06276 0.37796 0.17288 0.0
H1806 H 0.06304 0.34835 0.16869 0.0
H1807 H 0.04645 0.36005 0.1911 0.0
C1808 C 0.02828 0.29992 0.19781 0.0
C1809 C 0.01207 0.30232 0.21499 0.0
C1810 C 0.02845 0.3146 0.17939 0.0
C1811 C 0.01237 0.33187 0.17781 0.0
C1812 C 0.99538 0.33335 0.19429 0.0
H1813 H 0.01677 0.45832 0.10651 0.0
H1814 H 0.01629 0.4282 0.13423 0.0
C1815 C 0.99529 0.31884 0.21268 0.0
C1816 C 0.01357 0.34908 0.15969 0.0
H1817 H 0.04604 0.39207 0.13983 0.0
C1818 C 0.99495 0.35175 0.14518 0.0
C1819 C 0.03215 0.36396 0.1578 0.0
C1820 C 0.05219 0.36267 0.17352 0.0
C1821 C 0.99444 0.36872 0.12885 0.0
C1822 C 0.01316 0.3834 0.12675 0.0
C1823 C 0.03174 0.38078 0.14131 0.0
C1824 C 0.01363 0.40173 0.10975 0.0
C1825 C 0.97355 0.37118 0.1144 0.0
C1826 C 0.01259 0.39698 0.08668 0.0
C1827 C 0.01286 0.41416 0.07076 0.0
C1828 C 0.01426 0.43663 0.07745 0.0
C1829 C 0.01557 0.44132 0.10062 0.0
C1830 C 0.01535 0.42407 0.11654 0.0
H1831 H 0.95867 0.36246 0.12178 0.0
H1832 H 0.96914 0.38898 0.11203 0.0
H1833 H 0.97691 0.36383 0.09763 0.0
H1834 H 0.0117 0.37991 0.08093 0.0
H1835 H 0.01194 0.40972 0.05315 0.0
H1836 H 0.75562 0.03413 0.16942 0.0
H1837 H 0.72265 0.03042 0.14451 0.0
H1838 H 0.68625 0.99582 0.19669 0.0
H1839 H 0.71918 0.99908 0.22146 0.0
H1840 H 0.69772 0.98787 0.13212 0.0
H1841 H 0.64549 0.05098 0.17713 0.0
H1842 H 0.67608 0.05019 0.17936 0.0
H1843 H 0.65919 0.02983 0.1937 0.0
C1844 C 0.74071 0.02544 0.17545 0.0
C1845 C 0.74018 0.01671 0.19736 0.0
C1846 C 0.72187 0.02342 0.16126 0.0
C1847 C 0.70198 0.01301 0.16884 0.0
C1848 C 0.7014 1.00409 0.1906 0.0
H1849 H 0.56842 1.00209 0.10422 0.0
H1850 H 0.59963 1.00119 0.1315 0.0
C1851 C 0.72029 1.00596 0.20475 0.0
C1852 C 0.68179 0.01168 0.154 0.0
H1853 H 0.62879 0.03336 0.14591 0.0
C1854 C 0.68262 0.99776 0.13513 0.0
C1855 C 0.66205 0.02443 0.15814 0.0
C1856 C 0.66051 0.03984 0.17809 0.0
C1857 C 0.66421 0.99628 0.12018 0.0
C1858 C 0.64471 0.00962 0.12386 0.0
C1859 C 0.64373 0.02321 0.14304 0.0
C1860 C 0.62561 0.01039 0.1075 0.0
C1861 C 0.66576 0.9802 0.10076 0.0
C1862 C 0.62971 0.01638 0.08509 0.0
C1863 C 0.61201 0.01678 0.06949 0.0
C1864 C 0.58964 0.01152 0.07598 0.0
C1865 C 0.58541 1.0062 0.09862 0.0
C1866 C 0.60325 1.00564 0.11423 0.0
H1867 H 0.67787 0.96649 0.10438 0.0
H1868 H 0.64893 0.97286 0.09677 0.0
H1869 H 0.67203 0.98915 0.08569 0.0
H1870 H 0.64665 0.02082 0.07961 0.0
H1871 H 0.61592 0.02133 0.05231 0.0
H1872 H 0.99699 0.70509 0.22775 0.0
H1873 H 0.00186 0.67232 0.20355 0.0
H1874 H 0.02106 0.71501 0.14852 0.0
H1875 H 0.01679 0.74764 0.17286 0.0
H1876 H 0.97904 0.6614 0.16602 0.0
H1877 H 0.07008 0.66886 0.14443 0.0
H1878 H 0.05724 0.6848 0.16676 0.0
H1879 H 0.05456 0.69371 0.138 0.0
C1880 C 0.00264 0.70739 0.2106 0.0
C1881 C 0.00649 0.72892 0.2022 0.0
C1882 C 0.00532 0.68867 0.19672 0.0
C1883 C 0.0121 0.69102 0.17417 0.0
C1884 C 0.01633 0.71256 0.16592 0.0
H1885 H 0.02041 0.6086 0.05531 0.0
H1886 H 0.01991 0.63807 0.08348 0.0
C1887 C 0.01375 0.73126 0.17981 0.0
C1888 C 0.0135 0.67117 0.15898 0.0
H1889 H 0.04808 0.64421 0.12155 0.0
C1890 C 0.99425 0.65751 0.15651 0.0
C1891 C 0.0333 0.66595 0.14648 0.0
C1892 C 0.05503 0.67897 0.1492 0.0
C1893 C 0.99401 0.6394 0.14145 0.0
C1894 C 0.01363 0.63452 0.12861 0.0
C1895 C 0.03299 0.64793 0.13131 0.0
C1896 C 0.01416 0.61613 0.11167 0.0
C1897 C 0.97245 0.62608 0.13884 0.0
C1898 C 0.01136 0.59376 0.11805 0.0
C1899 C 0.01168 0.5767 0.10189 0.0
C1900 C 0.01479 0.58159 0.07893 0.0
C1901 C 0.01784 0.60403 0.07272 0.0
C1902 C 0.01762 0.62101 0.08887 0.0
H1903 H 0.95755 0.63478 0.14618 0.0
H1904 H 0.96897 0.62261 0.12085 0.0
H1905 H 0.97441 0.60991 0.1476 0.0
H1906 H 0.00903 0.58948 0.13556 0.0
H1907 H 0.00935 0.55969 0.10741 0.0
H1908 H 0.2885 0.03195 0.81564 0.0
H1909 H 0.31449 0.03072 0.84794 0.0
H1910 H 0.3536 0.97948 0.81516 0.0
H1911 H 0.32767 0.98048 0.7831 0.0
H1912 H 0.34646 0.9726 0.86234 0.0
H1913 H 0.37987 0.05682 0.842 0.0
H1914 H 0.34962 0.05464 0.84559 0.0
H1915 H 0.3631 0.04084 0.8224 0.0
C1916 C 0.30237 0.02013 0.81559 0.0
C1917 C 0.30623 1.00646 0.79683 0.0
C1918 C 0.3173 0.01958 0.83391 0.0
C1919 C 0.33617 1.00527 0.83372 0.0
C1920 C 0.33924 0.99073 0.81556 0.0
H1921 H 0.46439 0.01031 0.90455 0.0
H1922 H 0.4338 1.00939 0.8767 0.0
C1923 C 0.32446 0.99136 0.79726 0.0
C1924 C 0.35351 1.00611 0.85174 0.0
H1925 H 0.3956 0.03875 0.87349 0.0
C1926 C 0.35711 0.9871 0.86492 0.0
C1927 C 0.36762 0.02493 0.85473 0.0
C1928 C 0.36509 0.04545 0.84036 0.0
C1929 C 0.37444 0.98642 0.88112 0.0
C1930 C 0.38839 1.00533 0.88427 0.0
C1931 C 0.38481 0.02432 0.87105 0.0
C1932 C 0.40687 1.00569 0.90115 0.0
C1933 C 0.37806 0.96532 0.89434 0.0
C1934 C 0.40182 1.00413 0.9241 0.0
C1935 C 0.4192 1.00467 0.94004 0.0
C1936 C 0.44206 1.00685 0.93338 0.0
C1937 C 0.44705 1.00851 0.91032 0.0
C1938 C 0.42959 1.00804 0.89437 0.0
H1939 H 0.36951 0.95084 0.8864 0.0
H1940 H 0.39645 0.96158 0.89603 0.0
H1941 H 0.37094 0.96745 0.91147 0.0
H1942 H 0.38438 1.00267 0.9297 0.0
H1943 H 0.41461 1.00337 0.95761 0.0
H1944 H 0.01625 0.27236 0.83937 0.0
H1945 H 0.01996 0.30513 0.86368 0.0
H1946 H 0.00151 0.34749 0.80817 0.0
H1947 H 0.99711 0.31463 0.78405 0.0
H1948 H 0.04617 0.34203 0.86274 0.0
H1949 H 0.95595 0.36722 0.85453 0.0
H1950 H 0.96626 0.34074 0.8446 0.0
H1951 H 0.97067 0.3655 0.82819 0.0
C1952 C 0.01306 0.28869 0.83236 0.0
C1953 C 0.0061 0.2909 0.80988 0.0
C1954 C 0.01519 0.30744 0.84627 0.0
C1955 C 0.01047 0.32887 0.83802 0.0
C1956 C 0.0046 0.33117 0.81522 0.0
H1957 H 0.00856 0.45959 0.90523 0.0
H1958 H 0.00861 0.42968 0.87715 0.0
C1959 C 0.00234 0.3124 0.80134 0.0
C1960 C 0.01152 0.34864 0.85336 0.0
H1961 H 0.97998 0.39168 0.87465 0.0
C1962 C 0.03167 0.35285 0.86531 0.0
C1963 C 0.99264 0.36291 0.85684 0.0
C1964 C 0.97009 0.3588 0.84555 0.0
C1965 C 0.03348 0.37082 0.88043 0.0
C1966 C 0.01455 0.38493 0.88403 0.0
C1967 C 0.99452 0.38096 0.87187 0.0
C1968 C 0.01489 0.40328 0.90103 0.0
C1969 C 0.05577 0.37468 0.89229 0.0
C1970 C 0.01812 0.39849 0.92389 0.0
C1971 C 0.01802 0.41551 0.93999 0.0
C1972 C 0.01464 0.43788 0.93372 0.0
C1973 C 0.01132 0.44265 0.91077 0.0
C1974 C 0.01131 0.42553 0.89465 0.0
H1975 H 0.07011 0.36658 0.88331 0.0
H1976 H 0.05944 0.39272 0.8939 0.0
H1977 H 0.05485 0.36748 0.90942 0.0
H1978 H 0.02048 0.38147 0.92936 0.0
H1979 H 0.0206 0.41101 0.95742 0.0
H1980 H 0.72014 0.97589 0.79159 0.0
H1981 H 0.68557 0.97853 0.81457 0.0
H1982 H 0.719 0.02543 0.8583 0.0
H1983 H 0.75356 0.02279 0.83534 0.0
H1984 H 0.6824 0.96813 0.86103 0.0
H1985 H 0.65758 0.05555 0.84403 0.0
H1986 H 0.67709 0.04037 0.82631 0.0
H1987 H 0.68666 0.05206 0.85243 0.0
C1988 C 0.72001 0.98681 0.80606 0.0
C1989 C 0.73954 0.99892 0.81193 0.0
C1990 C 0.7003 0.98833 0.81914 0.0
C1991 C 0.69966 1.00229 0.83806 0.0
C1992 C 0.719 0.0148 0.8436 0.0
H1993 H 0.61626 0.99925 0.95653 0.0
H1994 H 0.6462 0.99763 0.92825 0.0
C1995 C 0.73874 0.0132 0.8306 0.0
C1996 C 0.67924 1.00284 0.85272 0.0
H1997 H 0.63885 0.03751 0.87455 0.0
C1998 C 0.67276 0.98325 0.86384 0.0
C1999 C 0.66655 0.02253 0.85621 0.0
C2000 C 0.67214 0.0438 0.84398 0.0
C2001 C 0.6544 0.983 0.87893 0.0
C2002 C 0.6423 1.0029 0.88311 0.0
C2003 C 0.64827 0.02232 0.87143 0.0
C2004 C 0.6239 1.00398 0.90013 0.0
C2005 C 0.64811 0.96146 0.89033 0.0
C2006 C 0.60142 1.00847 0.89375 0.0
C2007 C 0.58413 1.0094 0.90992 0.0
C2008 C 0.58908 1.00613 0.93283 0.0
C2009 C 0.61173 1.00189 0.9391 0.0
C2010 C 0.62891 1.00082 0.92293 0.0
H2011 H 0.65528 0.94683 0.8814 0.0
H2012 H 0.65494 0.9615 0.90771 0.0
H2013 H 0.62938 0.95957 0.89136 0.0
H2014 H 0.59723 0.01108 0.87623 0.0
H2015 H 0.56694 0.01282 0.90446 0.0
H2016 H 0.99174 0.73142 0.8112 0.0
H2017 H 0.98985 0.70629 0.84387 0.0
H2018 H 0.05134 0.67401 0.82189 0.0
H2019 H 0.05334 0.69901 0.78962 0.0
H2020 H 0.9862 0.65968 0.84212 0.0
H2021 H 0.06383 0.68375 0.88854 0.0
H2022 H 0.0514 0.70113 0.86708 0.0
H2023 H 0.06912 0.67795 0.85943 0.0
C2024 C 0.00514 0.71935 0.81374 0.0
C2025 C 0.02275 0.71729 0.7979 0.0
C2026 C 0.00396 0.70486 0.83228 0.0
C2027 C 0.02056 0.68829 0.83553 0.0
C2028 C 0.03853 0.68681 0.82009 0.0
H2029 H 0.01238 0.56132 0.906 0.0
H2030 H 0.01304 0.59146 0.87835 0.0
C2031 C 0.03962 0.7011 0.80157 0.0
C2032 C 0.01852 0.67154 0.85403 0.0
H2033 H 0.04742 0.64863 0.89821 0.0
C2034 C 0.99949 0.65742 0.85452 0.0
C2035 C 0.03574 0.66857 0.87037 0.0
C2036 C 0.05608 0.68379 0.87153 0.0
C2037 C 0.99756 0.6401 0.87038 0.0
C2038 C 0.01527 0.63652 0.88609 0.0
C2039 C 0.03395 0.65109 0.88604 0.0
C2040 C 0.01466 0.61798 0.90289 0.0
C2041 C 0.97644 0.6259 0.87029 0.0
C2042 C 0.01588 0.62265 0.92598 0.0
C2043 C 0.01562 0.60543 0.94186 0.0
C2044 C 0.0143 0.58297 0.93513 0.0
C2045 C 0.01328 0.57832 0.91194 0.0
C2046 C 0.0135 0.5956 0.89604 0.0
H2047 H 0.96212 0.63433 0.86163 0.0
H2048 H 0.98001 0.61015 0.86123 0.0
H2049 H 0.97108 0.6217 0.88767 0.0
H2050 H 0.0169 0.63971 0.93176 0.0
H2051 H 0.01653 0.60984 0.95948 0.0
H2052 H 0.2083 0.28726 0.02898 0.0
H2053 H 0.17542 0.3126 0.02982 0.0
H2054 H 0.19951 0.34437 0.9694 0.0
H2055 H 0.23204 0.31915 0.96849 0.0
H2056 H 0.1788 0.35904 0.0334 0.0
H2057 H 0.13207 0.33614 0.95607 0.0
H2058 H 0.15306 0.31816 0.96869 0.0
H2059 H 0.16174 0.34106 0.95123 0.0
C2060 C 0.2061 0.2992 0.01553 0.0
C2061 C 0.22255 0.30113 0.99855 0.0
C2062 C 0.18746 0.31379 0.01612 0.0
C2063 C 0.18487 0.33032 0.99957 0.0
C2064 C 0.20085 0.33156 0.98212 0.0
H2065 H 0.11615 0.45862 0.00673 0.0
H2066 H 0.14387 0.4282 0.00602 0.0
C2067 C 0.21945 0.31715 0.98162 0.0
C2068 C 0.16668 0.34747 1.00134 0.0
H2069 H 0.12308 0.37149 0.97223 0.0
C2070 C 0.16646 0.36162 0.02013 0.0
C2071 C 0.1505 0.35083 0.98409 0.0
C2072 C 0.14915 0.33561 0.96398 0.0
C2073 C 0.15094 0.37936 0.02185 0.0
C2074 C 0.13538 0.38327 1.00416 0.0
C2075 C 0.13519 0.36873 0.98566 0.0
C2076 C 0.11873 0.40195 1.00473 0.0
C2077 C 0.15119 0.39362 0.04271 0.0
C2078 C 0.0954 0.39743 1.00375 0.0
C2079 C 0.07954 0.41473 1.00403 0.0
C2080 C 0.08658 0.43713 1.00516 0.0
C2081 C 0.11003 0.44165 0.00595 0.0
C2082 C 0.12593 0.42424 0.0057 0.0
H2083 H 0.15989 0.38517 0.05689 0.0
H2084 H 0.16045 0.40929 0.03911 0.0
H2085 H 0.13366 0.39797 0.04801 0.0
H2086 H 0.0894 0.38041 1.0029 0.0
H2087 H 0.0617 0.41043 1.00331 0.0
H2088 H 0.20697 0.73265 0.03214 0.0
H2089 H 0.17459 0.70673 0.03194 0.0
H2090 H 0.20245 0.6738 0.97377 0.0
H2091 H 0.23451 0.69966 0.9738 0.0
H2092 H 0.15502 0.67876 0.97189 0.0
H2093 H 0.18324 0.64167 0.05273 0.0
H2094 H 0.17831 0.67117 0.05317 0.0
H2095 H 0.20103 0.66005 0.03645 0.0
C2096 C 0.20581 0.72024 0.019 0.0
C2097 C 0.22327 0.71811 1.00303 0.0
C2098 C 0.18749 0.70527 0.01905 0.0
C2099 C 0.18634 0.68801 1.00311 0.0
C2100 C 0.20302 0.68684 0.98632 0.0
H2101 H 0.11625 0.56044 0.0074 0.0
H2102 H 0.1442 0.59067 0.00648 0.0
C2103 C 0.22131 0.70165 0.98633 0.0
C2104 C 0.16856 0.67041 1.00437 0.0
H2105 H 0.14995 0.62688 0.03649 0.0
C2106 C 0.15381 0.66751 0.98607 0.0
C2107 C 0.16729 0.65541 0.02268 0.0
C2108 C 0.1834 0.65701 0.04233 0.0
C2109 C 0.13775 0.65017 0.98566 0.0
C2110 C 0.13621 0.63543 1.00415 0.0
C2111 C 0.15106 0.63823 0.02238 0.0
C2112 C 0.11926 0.61704 1.00487 0.0
C2113 C 0.12292 0.64747 0.96517 0.0
C2114 C 0.09595 0.62178 1.00461 0.0
C2115 C 0.07995 0.6046 1.00514 0.0
C2116 C 0.08683 0.58215 0.00606 0.0
C2117 C 0.11025 0.57745 0.00661 0.0
C2118 C 0.12628 0.59473 0.00612 0.0
H2119 H 0.13002 0.65633 0.95038 0.0
H2120 H 0.12079 0.62963 0.96081 0.0
H2121 H 0.10587 0.65451 0.96873 0.0
H2122 H 0.09009 0.63885 1.00409 0.0
H2123 H 0.06213 0.60904 1.0048 0.0
H2124 H 0.27476 0.17685 1.00286 0.0
H2125 H 0.30751 0.15182 0.99936 0.0
H2126 H 0.35208 0.20504 0.01981 0.0
H2127 H 0.31925 0.22984 0.02397 0.0
H2128 H 0.34551 0.15304 0.9737 0.0
H2129 H 0.37009 0.15698 0.06355 0.0
H2130 H 0.34344 0.1678 0.0534 0.0
H2131 H 0.36913 0.18368 0.05013 0.0
C2132 C 0.29157 0.18314 0.00665 0.0
C2133 C 0.29445 0.20517 0.01404 0.0
C2134 C 0.31028 0.16886 1.00461 0.0
C2135 C 0.33229 0.17633 0.00982 0.0
C2136 C 0.33526 0.19864 0.01631 0.0
H2137 H 0.46454 0.10891 0.00934 0.0
H2138 H 0.43414 0.13676 0.01 0.0
C2139 C 0.31653 0.21288 0.01848 0.0
C2140 C 0.35202 0.16075 0.00843 0.0
H2141 H 0.39517 0.13778 0.03919 0.0
C2142 C 0.35633 0.14971 0.98804 0.0
C2143 C 0.36622 0.15631 0.02713 0.0
C2144 C 0.36191 0.16663 0.04985 0.0
C2145 C 0.37443 0.13456 0.98582 0.0
C2146 C 0.38853 0.13009 1.00452 0.0
C2147 C 0.38443 0.14129 0.02482 0.0
C2148 C 0.4071 0.11325 1.0036 0.0
C2149 C 0.37846 0.12361 0.96336 0.0
C2150 C 0.40204 0.09072 1.0 0.0
C2151 C 0.41933 0.07474 0.9997 0.0
C2152 C 0.44219 0.08088 1.003 0.0
C2153 C 0.44721 0.10352 0.00659 0.0
C2154 C 0.42983 0.11949 0.00703 0.0
H2155 H 0.37008 0.13283 0.94949 0.0
H2156 H 0.39691 0.12237 0.95969 0.0
H2157 H 0.37136 0.10651 0.96371 0.0
H2158 H 0.38461 0.08542 0.9977 0.0
H2159 H 0.4147 0.05753 0.99691 0.0
H2160 H 0.79997 0.31618 0.96695 0.0
H2161 H 0.83196 0.34203 0.96816 0.0
H2162 H 0.85407 0.31305 0.03069 0.0
H2163 H 0.82171 0.28718 0.02964 0.0
H2164 H 0.84946 0.35938 0.03239 0.0
H2165 H 0.90005 0.33467 0.95799 0.0
H2166 H 0.87055 0.33889 0.95176 0.0
H2167 H 0.87884 0.31676 0.97035 0.0
C2168 C 0.81197 0.31496 0.98068 0.0
C2169 C 0.80841 0.29963 0.99818 0.0
C2170 C 0.83029 0.32971 0.98133 0.0
C2171 C 0.84553 0.32942 0.99944 0.0
C2172 C 0.84257 0.31351 0.01651 0.0
H2173 H 0.96738 0.41051 0.00628 0.0
H2174 H 0.93981 0.38042 0.00566 0.0
C2175 C 0.82423 0.29861 0.0158 0.0
C2176 C 0.86326 0.34696 1.00132 0.0
H2177 H 0.90787 0.37058 0.97341 0.0
C2178 C 0.86238 0.36171 0.01961 0.0
C2179 C 0.88016 0.34997 0.98469 0.0
C2180 C 0.88265 0.33411 0.9652 0.0
C2181 C 0.87758 0.37967 0.02144 0.0
C2182 C 0.89391 0.38318 1.00436 0.0
C2183 C 0.89515 0.36809 0.98636 0.0
C2184 C 0.91041 0.40192 1.00516 0.0
C2185 C 0.87619 0.3946 0.04178 0.0
C2186 C 0.9031 0.42419 1.00495 0.0
C2187 C 0.91892 0.44165 0.00532 0.0
C2188 C 0.94238 0.43717 0.00579 0.0
C2189 C 0.94952 0.41478 0.00592 0.0
C2190 C 0.93375 0.39743 0.00555 0.0
H2191 H 0.86675 0.38659 0.05577 0.0
H2192 H 0.8934 0.39918 0.04781 0.0
H2193 H 0.86712 0.41012 0.03719 0.0
H2194 H 0.88516 0.42807 1.00423 0.0
H2195 H 0.91275 0.45862 1.00509 0.0
H2196 H 0.75716 0.84487 0.00893 0.0
H2197 H 0.72391 0.86916 1.00494 0.0
H2198 H 0.67999 0.81416 0.02165 0.0
H2199 H 0.71331 0.79002 0.02617 0.0
H2200 H 0.68651 0.86719 0.97754 0.0
H2201 H 0.65992 0.86077 0.0668 0.0
H2202 H 0.68722 0.85114 0.05706 0.0
H2203 H 0.66223 0.83452 0.05261 0.0
C2204 C 0.74039 0.83803 0.01177 0.0
C2205 C 0.73778 0.81571 0.01826 0.0
C2206 C 0.7214 0.85187 0.00945 0.0
C2207 C 0.69943 0.84365 0.0135 0.0
C2208 C 0.69677 0.82108 0.01904 0.0
H2209 H 0.56679 0.91033 0.0132 0.0
H2210 H 0.59714 0.88244 0.01377 0.0
C2211 C 0.71577 0.80725 0.02145 0.0
C2212 C 0.67943 0.8588 0.01199 0.0
H2213 H 0.63553 0.88067 0.04251 0.0
C2214 C 0.67537 0.87012 0.99175 0.0
C2215 C 0.66483 0.86264 0.03053 0.0
C2216 C 0.66882 0.8518 0.05305 0.0
C2217 C 0.65714 0.88509 0.98952 0.0
C2218 C 0.64272 0.8891 0.00812 0.0
C2219 C 0.64654 0.87753 0.02825 0.0
C2220 C 0.62419 0.90593 0.00734 0.0
C2221 C 0.65335 0.89634 0.96718 0.0
C2222 C 0.62931 0.92846 1.00381 0.0
C2223 C 0.61206 0.94444 1.00353 0.0
C2224 C 0.58919 0.93832 0.00685 0.0
C2225 C 0.58413 0.91571 0.01048 0.0
C2226 C 0.60147 0.89971 0.01085 0.0
H2227 H 0.66165 0.88712 0.95324 0.0
H2228 H 0.63495 0.8979 0.96345 0.0
H2229 H 0.66075 0.9133 0.96773 0.0
H2230 H 0.64674 0.93374 1.0015 0.0
H2231 H 0.61674 0.96163 1.0007 0.0
H2232 H 0.79644 0.70169 0.03839 0.0
H2233 H 0.8284 0.67576 0.03938 0.0
H2234 H 0.85818 0.70866 0.98213 0.0
H2235 H 0.82592 0.73469 0.98103 0.0
H2236 H 0.85322 0.66229 0.97689 0.0
H2237 H 0.89506 0.68192 0.05787 0.0
H2238 H 0.86495 0.67793 0.06028 0.0
H2239 H 0.87575 0.70092 0.04419 0.0
C2240 C 0.81013 0.70376 0.0264 0.0
C2241 C 0.80882 0.72025 0.00972 0.0
C2242 C 0.8284 0.68896 0.027 0.0
C2243 C 0.84578 0.69033 0.01093 0.0
C2244 C 0.845 0.70737 0.99477 0.0
H2245 H 0.96743 0.60887 0.01104 0.0
H2246 H 0.93992 0.63901 0.01123 0.0
C2247 C 0.82672 0.72234 0.99426 0.0
C2248 C 0.86352 0.67275 0.00995 0.0
H2249 H 0.9046 0.64707 0.04106 0.0
C2250 C 0.86461 0.65908 0.99083 0.0
C2251 C 0.8784 0.66858 0.02812 0.0
C2252 C 0.87869 0.68323 0.0487 0.0
C2253 C 0.87981 0.64108 0.9896 0.0
C2254 C 0.89412 0.63644 0.00811 0.0
C2255 C 0.89341 0.65043 0.02701 0.0
C2256 C 0.91058 0.61767 0.00789 0.0
C2257 C 0.88061 0.62733 0.96841 0.0
C2258 C 0.90325 0.59547 0.00617 0.0
C2259 C 0.91904 0.57798 0.00605 0.0
C2260 C 0.94247 0.58237 0.00769 0.0
C2261 C 0.9496 0.60468 0.00963 0.0
C2262 C 0.93387 0.62205 0.00979 0.0
H2263 H 0.87261 0.63609 0.95402 0.0
H2264 H 0.89839 0.62312 0.96388 0.0
H2265 H 0.87124 0.61155 0.97118 0.0
H2266 H 0.88531 0.59166 1.00508 0.0
H2267 H 0.91287 0.56107 1.00462 0.0
H2268 H 0.27898 0.83563 0.02152 0.0
H2269 H 0.31217 0.86023 0.02497 0.0
H2270 H 0.34778 0.82092 0.97566 0.0
H2271 H 0.31466 0.79633 0.97222 0.0
H2272 H 0.35931 0.85096 0.03564 0.0
H2273 H 0.34808 0.88518 0.94962 0.0
H2274 H 0.32598 0.86995 0.96396 0.0
H2275 H 0.34943 0.85537 0.95149 0.0
C2276 C 0.29399 0.83219 0.01158 0.0
C2277 C 0.29415 0.8143 0.99638 0.0
C2278 C 0.31292 0.84621 0.01355 0.0
C2279 C 0.33234 0.84266 1.0003 0.0
C2280 C 0.33286 0.82423 0.98577 0.0
H2281 H 0.46415 0.91032 0.01185 0.0
H2282 H 0.43381 0.88243 0.01091 0.0
C2283 C 0.31397 0.81016 0.98387 0.0
C2284 C 0.35171 0.85861 1.00115 0.0
H2285 H 0.38039 0.89712 0.96978 0.0
C2286 C 0.36399 0.86101 0.02123 0.0
C2287 C 0.35763 0.87191 0.98242 0.0
C2288 C 0.34453 0.8707 0.96067 0.0
C2289 C 0.38212 0.87621 0.02301 0.0
C2290 C 0.38822 0.88929 1.00418 0.0
C2291 C 0.37584 0.88698 0.98416 0.0
C2292 C 0.40681 0.90613 1.0051 0.0
C2293 C 0.39426 0.87855 0.04519 0.0
C2294 C 0.40184 0.92872 1.00179 0.0
C2295 C 0.41912 0.94471 1.00229 0.0
C2296 C 0.44191 0.93851 0.00592 0.0
C2297 C 0.44686 0.91579 0.00908 0.0
C2298 C 0.42949 0.8998 0.00868 0.0
H2299 H 0.38454 0.87087 0.05919 0.0
H2300 H 0.411 0.87015 0.04412 0.0
H2301 H 0.39729 0.89634 0.0492 0.0
H2302 H 0.38451 0.93402 0.99889 0.0
H2303 H 0.41454 0.96196 0.99965 0.0
H2304 H 0.71543 0.22644 0.98118 0.0
H2305 H 0.68187 0.20256 0.98541 0.0
H2306 H 0.7241 0.15053 0.01266 0.0
H2307 H 0.75747 0.17464 0.00907 0.0
H2308 H 0.67312 0.16329 0.96555 0.0
H2309 H 0.67325 0.15103 0.05767 0.0
H2310 H 0.69037 0.17202 0.04414 0.0
H2311 H 0.69986 0.14356 0.04511 0.0
C2312 C 0.71742 0.21002 0.98837 0.0
C2313 C 0.73902 0.20234 0.99474 0.0
C2314 C 0.69828 0.19635 0.99071 0.0
C2315 C 0.70033 0.17479 0.99963 0.0
C2316 C 0.72191 0.16724 0.00623 0.0
H2317 H 0.61661 0.05762 0.01105 0.0
H2318 H 0.64669 0.08555 0.01025 0.0
C2319 C 0.74102 0.18095 1.00402 0.0
C2320 C 0.68016 0.1598 1.00088 0.0
H2321 H 0.65006 0.12607 0.03632 0.0
C2322 C 0.66793 0.15537 0.98109 0.0
C2323 C 0.6733 0.14942 0.02115 0.0
C2324 C 0.68474 0.15441 0.04326 0.0
C2325 C 0.64959 0.14036 0.98088 0.0
C2326 C 0.64313 0.12961 1.00102 0.0
C2327 C 0.65509 0.13426 0.02087 0.0
C2328 C 0.6245 0.11289 1.00167 0.0
C2329 C 0.6377 0.13558 0.95895 0.0
C2330 C 0.60189 0.119 0.99735 0.0
C2331 C 0.58453 0.10303 0.99783 0.0
C2332 C 0.58943 0.08059 1.00261 0.0
C2333 C 0.61212 0.07465 0.00713 0.0
C2334 C 0.62939 0.09062 0.00677 0.0
H2335 H 0.64745 0.14186 0.94428 0.0
H2336 H 0.63494 0.11742 0.95686 0.0
H2337 H 0.62084 0.1438 0.95898 0.0
H2338 H 0.59767 0.13614 0.99367 0.0
H2339 H 0.5673 0.10828 0.99431 0.0
H2340 H 0.49715 0.72999 0.8101 0.0
H2341 H 0.50213 0.70555 0.84277 0.0
H2342 H 0.5231 0.6523 0.79884 0.0
H2343 H 0.51876 0.67693 0.76631 0.0
H2344 H 0.48021 0.66781 0.85303 0.0
H2345 H 0.57176 0.64854 0.84575 0.0
H2346 H 0.55853 0.67056 0.82987 0.0
H2347 H 0.55652 0.64215 0.82049 0.0
C2348 C 0.50319 0.71317 0.8075 0.0
C2349 C 0.50755 0.70537 0.78564 0.0
C2350 C 0.50593 0.69916 0.82617 0.0
C2351 C 0.51327 0.67704 0.82345 0.0
C2352 C 0.51794 0.66936 0.80159 0.0
H2353 H 0.5237 0.55894 0.90615 0.0
H2354 H 0.52277 0.58683 0.87639 0.0
C2355 C 0.51531 0.68342 0.78294 0.0
C2356 C 0.51487 0.66173 0.84327 0.0
H2357 H 0.55017 0.62526 0.87036 0.0
C2358 C 0.49561 0.65871 0.85693 0.0
C2359 C 0.53493 0.64975 0.84852 0.0
C2360 C 0.55667 0.65306 0.83552 0.0
C2361 C 0.49562 0.64367 0.8751 0.0
C2362 C 0.51552 0.63139 0.88003 0.0
C2363 C 0.53488 0.63459 0.86659 0.0
C2364 C 0.51637 0.61461 0.89858 0.0
C2365 C 0.47407 0.6405 0.88844 0.0
C2366 C 0.51338 0.62086 0.92116 0.0
C2367 C 0.51395 0.60487 0.93838 0.0
C2368 C 0.51749 0.58221 0.93342 0.0
C2369 C 0.52076 0.57612 0.91076 0.0
C2370 C 0.52031 0.59211 0.89363 0.0
H2371 H 0.45903 0.64743 0.87962 0.0
H2372 H 0.47101 0.62259 0.89184 0.0
H2373 H 0.47573 0.64915 0.90482 0.0
H2374 H 0.51069 0.63816 0.9255 0.0
H2375 H 0.51144 0.61029 0.95555 0.0
H2376 H 0.30261 0.54765 0.81263 0.0
H2377 H 0.33547 0.54667 0.83763 0.0
H2378 H 0.35631 0.48422 0.8085 0.0
H2379 H 0.32307 0.485 0.78354 0.0
H2380 H 0.35283 0.48317 0.85524 0.0
H2381 H 0.40339 0.55607 0.82814 0.0
H2382 H 0.37407 0.56262 0.83304 0.0
H2383 H 0.3816 0.5438 0.81075 0.0
C2384 C 0.31448 0.53395 0.81122 0.0
C2385 C 0.31032 0.51639 0.79617 0.0
C2386 C 0.33331 0.53346 0.82544 0.0
C2387 C 0.34844 0.51546 0.82483 0.0
C2388 C 0.34488 0.49833 0.80915 0.0
H2389 H 0.47112 0.50959 0.90561 0.0
H2390 H 0.44358 0.50962 0.87519 0.0
C2391 C 0.32604 0.49887 0.79479 0.0
C2392 C 0.36658 0.51367 0.84202 0.0
H2393 H 0.41164 0.54149 0.86467 0.0
C2394 C 0.36586 0.49578 0.85716 0.0
C2395 C 0.38361 0.53009 0.84446 0.0
C2396 C 0.3859 0.54912 0.8281 0.0
C2397 C 0.38132 0.49419 0.87505 0.0
C2398 C 0.39771 0.51113 0.87807 0.0
C2399 C 0.39886 0.52868 0.86253 0.0
C2400 C 0.41419 0.51075 0.89692 0.0
C2401 C 0.38008 0.47432 0.89047 0.0
C2402 C 0.40682 0.51154 0.91936 0.0
C2403 C 0.42259 0.5115 0.93699 0.0
C2404 C 0.44604 0.5108 0.93246 0.0
C2405 C 0.45326 0.51013 0.90989 0.0
C2406 C 0.43752 0.51016 0.89237 0.0
H2407 H 0.37067 0.46029 0.88265 0.0
H2408 H 0.39734 0.46847 0.89512 0.0
H2409 H 0.37104 0.47909 0.90611 0.0
H2410 H 0.38887 0.51242 0.92325 0.0
H2411 H 0.41638 0.51214 0.9541 0.0
H2412 H 0.49154 0.31564 0.7843 0.0
H2413 H 0.4906 0.34841 0.80921 0.0
H2414 H 0.55102 0.32511 0.84261 0.0
H2415 H 0.55206 0.29271 0.81785 0.0
H2416 H 0.48671 0.34736 0.85651 0.0
H2417 H 0.56577 0.39064 0.83153 0.0
H2418 H 0.55259 0.36961 0.81423 0.0
H2419 H 0.57003 0.36172 0.83771 0.0
C2420 C 0.50492 0.31788 0.79658 0.0
C2421 C 0.52193 0.30166 0.79903 0.0
C2422 C 0.50428 0.33649 0.81094 0.0
C2423 C 0.52085 0.3394 0.82774 0.0
C2424 C 0.53825 0.32355 0.82961 0.0
H2425 H 0.51503 0.41114 0.95488 0.0
H2426 H 0.51496 0.38339 0.92477 0.0
C2427 C 0.53878 0.30496 0.81547 0.0
C2428 C 0.51936 0.35805 0.84434 0.0
H2429 H 0.54956 0.40134 0.86675 0.0
C2430 C 0.50036 0.35929 0.85859 0.0
C2431 C 0.53706 0.37378 0.84707 0.0
C2432 C 0.55742 0.37406 0.83169 0.0
C2433 C 0.49891 0.37533 0.87584 0.0
C2434 C 0.51708 0.39043 0.87919 0.0
C2435 C 0.53574 0.38963 0.86447 0.0
C2436 C 0.51699 0.40732 0.89769 0.0
C2437 C 0.47782 0.37604 0.89022 0.0
C2438 C 0.51869 0.43008 0.8927 0.0
C2439 C 0.51885 0.44603 0.9099 0.0
C2440 C 0.51748 0.43967 0.93267 0.0
C2441 C 0.516 0.41679 0.93764 0.0
C2442 C 0.5158 0.40084 0.92037 0.0
H2443 H 0.46325 0.36769 0.88188 0.0
H2444 H 0.48117 0.36726 0.90627 0.0
H2445 H 0.47295 0.39345 0.89418 0.0
H2446 H 0.51975 0.43557 0.87539 0.0
H2447 H 0.52007 0.4634 0.90525 0.0
H2448 H 0.72964 0.54294 0.80005 0.0
H2449 H 0.70824 0.54033 0.8354 0.0
H2450 H 0.66329 0.49227 0.80511 0.0
H2451 H 0.68469 0.49486 0.76981 0.0
H2452 H 0.66175 0.5502 0.8408 0.0
H2453 H 0.68051 0.46318 0.86541 0.0
H2454 H 0.6973 0.47817 0.845 0.0
H2455 H 0.67057 0.46606 0.83703 0.0
C2456 C 0.71524 0.53177 0.80104 0.0
C2457 C 0.70854 0.51933 0.78219 0.0
C2458 C 0.70308 0.53026 0.8212 0.0
C2459 C 0.68427 0.51598 0.82295 0.0
C2460 C 0.67793 0.50314 0.80426 0.0
H2461 H 0.56665 0.51908 0.90706 0.0
H2462 H 0.59515 0.5207 0.87745 0.0
C2463 C 0.69003 0.50472 0.78409 0.0
C2464 C 0.67039 0.51553 0.8438 0.0
H2465 H 0.64966 0.48092 0.88447 0.0
C2466 C 0.6593 0.53511 0.85048 0.0
C2467 C 0.6674 0.4959 0.85657 0.0
C2468 C 0.67974 0.47466 0.85081 0.0
C2469 C 0.64459 0.53536 0.86906 0.0
C2470 C 0.64072 0.51547 0.88116 0.0
C2471 C 0.65251 0.4961 0.87505 0.0
C2472 C 0.62361 0.51427 0.89944 0.0
C2473 C 0.63314 0.55689 0.87551 0.0
C2474 C 0.63011 0.50968 0.92165 0.0
C2475 C 0.61378 0.50873 0.93879 0.0
C2476 C 0.59062 0.51209 0.93393 0.0
C2477 C 0.58426 0.51639 0.91154 0.0
C2478 C 0.60057 0.51745 0.89453 0.0
H2479 H 0.64219 0.57153 0.86848 0.0
H2480 H 0.61556 0.55695 0.8688 0.0
H2481 H 0.63217 0.55867 0.89405 0.0
H2482 H 0.64782 0.50704 0.92575 0.0
H2483 H 0.61931 0.50528 0.95578 0.0
H2484 H 0.51597 0.34192 0.24445 0.0
H2485 H 0.51973 0.36713 0.21223 0.0
H2486 H 0.50288 0.31329 0.16736 0.0
H2487 H 0.49845 0.28827 0.19963 0.0
H2488 H 0.54661 0.36776 0.17541 0.0
H2489 H 0.45705 0.35912 0.14805 0.0
H2490 H 0.467 0.34862 0.17465 0.0
H2491 H 0.47205 0.33318 0.14923 0.0
C2492 C 0.51312 0.33548 0.22769 0.0
C2493 C 0.50662 0.31318 0.2246 0.0
C2494 C 0.51528 0.3499 0.20926 0.0
C2495 C 0.51104 0.34236 0.18727 0.0
C2496 C 0.50559 0.31978 0.18411 0.0
H2497 H 0.51109 0.41086 0.05658 0.0
H2498 H 0.51063 0.38288 0.08656 0.0
C2499 C 0.50331 0.30539 0.20256 0.0
C2500 C 0.51224 0.35817 0.16781 0.0
H2501 H 0.48136 0.37976 0.12416 0.0
C2502 C 0.53231 0.37037 0.16425 0.0
C2503 C 0.49362 0.36171 0.15311 0.0
C2504 C 0.47114 0.35015 0.15652 0.0
C2505 C 0.53432 0.38574 0.14647 0.0
C2506 C 0.51567 0.38935 0.13188 0.0
C2507 C 0.4957 0.37699 0.13524 0.0
C2508 C 0.51628 0.40636 0.11352 0.0
C2509 C 0.55655 0.39781 0.14328 0.0
C2510 C 0.51933 0.42898 0.11859 0.0
C2511 C 0.51954 0.44504 0.10152 0.0
C2512 C 0.51665 0.43896 0.07881 0.0
C2513 C 0.51349 0.41626 0.07378 0.0
C2514 C 0.51317 0.40019 0.09094 0.0
H2515 H 0.5708 0.38898 0.15164 0.0
H2516 H 0.56063 0.39971 0.12517 0.0
H2517 H 0.55525 0.41465 0.15079 0.0
H2518 H 0.52132 0.4343 0.13587 0.0
H2519 H 0.52197 0.46228 0.10621 0.0
H2520 H 0.72883 0.52753 0.21355 0.0
H2521 H 0.70468 0.5301 0.18032 0.0
H2522 H 0.65471 0.48844 0.21239 0.0
H2523 H 0.6791 0.48534 0.24565 0.0
H2524 H 0.68638 0.48998 0.15472 0.0
H2525 H 0.62085 0.54714 0.18945 0.0
H2526 H 0.64934 0.54564 0.20065 0.0
H2527 H 0.62923 0.52409 0.20687 0.0
C2528 C 0.71274 0.51893 0.21366 0.0
C2529 C 0.70577 0.50639 0.23241 0.0
C2530 C 0.69893 0.52047 0.19462 0.0
C2531 C 0.67789 0.5096 0.19403 0.0
C2532 C 0.67081 0.49715 0.21268 0.0
H2533 H 0.56533 0.49582 0.10424 0.0
H2534 H 0.59239 0.49603 0.13513 0.0
C2535 C 0.68469 0.49545 0.23164 0.0
C2536 C 0.66357 0.51071 0.17366 0.0
H2537 H 0.6134 0.53118 0.15394 0.0
C2538 C 0.67048 0.49909 0.1544 0.0
C2539 C 0.64291 0.5226 0.17345 0.0
C2540 C 0.63509 0.53574 0.19362 0.0
C2541 C 0.65681 0.49842 0.13507 0.0
C2542 C 0.63598 0.51017 0.13489 0.0
C2543 C 0.62936 0.52217 0.15408 0.0
C2544 C 0.62015 0.5094 0.1155 0.0
C2545 C 0.66439 0.48444 0.11538 0.0
C2546 C 0.62676 0.51678 0.09407 0.0
C2547 C 0.6113 0.5165 0.07618 0.0
C2548 C 0.58886 0.50919 0.07956 0.0
C2549 C 0.5824 0.50176 0.10105 0.0
C2550 C 0.59787 0.50184 0.11877 0.0
H2551 H 0.67758 0.47216 0.1203 0.0
H2552 H 0.64984 0.47536 0.10786 0.0
H2553 H 0.67177 0.49543 0.1023 0.0
H2554 H 0.64373 0.52313 0.09126 0.0
H2555 H 0.61674 0.52251 0.0599 0.0
H2556 H 0.54251 0.70589 0.22772 0.0
H2557 H 0.54356 0.67349 0.20245 0.0
H2558 H 0.48248 0.69641 0.16998 0.0
H2559 H 0.48119 0.72842 0.19528 0.0
H2560 H 0.48257 0.65073 0.17604 0.0
H2561 H 0.56305 0.67886 0.13643 0.0
H2562 H 0.56425 0.67501 0.16635 0.0
H2563 H 0.54656 0.69649 0.15478 0.0
C2564 C 0.52906 0.70372 0.21552 0.0
C2565 C 0.51185 0.71983 0.21345 0.0
C2566 C 0.52982 0.68535 0.20086 0.0
C2567 C 0.51337 0.6827 0.18389 0.0
C2568 C 0.49549 0.69809 0.18273 0.0
H2569 H 0.51871 0.61011 0.05728 0.0
H2570 H 0.51784 0.63796 0.08731 0.0
C2571 C 0.49478 0.71642 0.19724 0.0
C2572 C 0.51497 0.6645 0.16677 0.0
H2573 H 0.54751 0.64511 0.12323 0.0
C2574 C 0.49685 0.64942 0.1646 0.0
C2575 C 0.53339 0.66297 0.15149 0.0
C2576 C 0.55286 0.67927 0.15214 0.0
C2577 C 0.49667 0.63293 0.14775 0.0
C2578 C 0.51524 0.63118 0.1327 0.0
C2579 C 0.53333 0.6463 0.13481 0.0
C2580 C 0.51602 0.61407 0.11442 0.0
C2581 C 0.47623 0.61791 0.14582 0.0
C2582 C 0.5156 0.59126 0.11952 0.0
C2583 C 0.5161 0.57526 0.10237 0.0
C2584 C 0.51713 0.58159 0.07957 0.0
C2585 C 0.51785 0.60448 0.07453 0.0
C2586 C 0.51739 0.62049 0.09174 0.0
H2587 H 0.46122 0.62492 0.15465 0.0
H2588 H 0.47169 0.61503 0.12795 0.0
H2589 H 0.48022 0.60158 0.15355 0.0
H2590 H 0.51501 0.58579 0.13684 0.0
H2591 H 0.51564 0.55787 0.10708 0.0
H2592 H 0.3005 0.47233 0.19857 0.0
H2593 H 0.33286 0.47354 0.1729 0.0
H2594 H 0.35525 0.53486 0.20328 0.0
H2595 H 0.32252 0.53385 0.22894 0.0
H2596 H 0.35126 0.53705 0.15642 0.0
H2597 H 0.40076 0.46274 0.18144 0.0
H2598 H 0.37125 0.45691 0.17671 0.0
H2599 H 0.37941 0.47505 0.19935 0.0
C2600 C 0.31259 0.48583 0.20009 0.0
C2601 C 0.30902 0.503 0.21575 0.0
C2602 C 0.33113 0.48645 0.18547 0.0
C2603 C 0.34657 0.5042 0.18625 0.0
C2604 C 0.34358 0.52095 0.20247 0.0
H2605 H 0.46955 0.51078 0.106 0.0
H2606 H 0.44166 0.51025 0.13613 0.0
C2607 C 0.32502 0.52028 0.21723 0.0
C2608 C 0.3646 0.50607 0.16887 0.0
H2609 H 0.40931 0.47827 0.14545 0.0
C2610 C 0.3641 0.52431 0.15414 0.0
C2611 C 0.38139 0.4895 0.16596 0.0
C2612 C 0.38343 0.47004 0.18183 0.0
C2613 C 0.37959 0.52614 0.13626 0.0
C2614 C 0.3958 0.50911 0.13282 0.0
C2615 C 0.39667 0.49117 0.1479 0.0
C2616 C 0.41249 0.50987 0.1141 0.0
C2617 C 0.37861 0.54639 0.12133 0.0
C2618 C 0.4054 0.5097 0.09156 0.0
C2619 C 0.42139 0.51002 0.07408 0.0
C2620 C 0.4448 0.51041 0.07885 0.0
C2621 C 0.45173 0.5105 0.10152 0.0
C2622 C 0.43578 0.51018 0.11888 0.0
H2623 H 0.36917 0.56027 0.12939 0.0
H2624 H 0.39595 0.55226 0.11701 0.0
H2625 H 0.36975 0.54203 0.10548 0.0
H2626 H 0.38749 0.50906 0.08746 0.0
H2627 H 0.41538 0.50983 0.05689 0.0
H2628 H 0.82633 0.54054 0.72735 0.0
H2629 H 0.85222 0.54166 0.69528 0.0
H2630 H 0.81654 0.48666 0.66498 0.0
H2631 H 0.7906 0.48533 0.69734 0.0
H2632 H 0.86413 0.48058 0.6686 0.0
H2633 H 0.8436 0.56203 0.62997 0.0
H2634 H 0.84852 0.56343 0.65971 0.0
H2635 H 0.82461 0.54804 0.64917 0.0
C2636 C 0.82376 0.52894 0.71366 0.0
C2637 C 0.80649 0.51283 0.71482 0.0
C2638 C 0.83849 0.52967 0.69529 0.0
C2639 C 0.83621 0.51435 0.67767 0.0
C2640 C 0.81849 0.4987 0.67838 0.0
H2641 H 0.9155 0.51582 0.55481 0.0
H2642 H 0.8854 0.51576 0.58284 0.0
C2643 C 0.80361 0.49805 0.69675 0.0
C2644 C 0.8535 0.51365 0.65955 0.0
H2645 H 0.87851 0.54517 0.61875 0.0
C2646 C 0.86716 0.49462 0.65755 0.0
C2647 C 0.85736 0.53195 0.64513 0.0
C2648 C 0.84262 0.55246 0.6459 0.0
C2649 C 0.88495 0.4936 0.64185 0.0
C2650 C 0.88934 0.51222 0.628 0.0
C2651 C 0.87531 0.53103 0.62961 0.0
C2652 C 0.90799 0.51226 0.61123 0.0
C2653 C 0.89878 0.47254 0.64007 0.0
C2654 C 0.9308 0.51057 0.61791 0.0
C2655 C 0.94823 0.5106 0.60186 0.0
C2656 C 0.94312 0.51236 0.57884 0.0
C2657 C 0.92019 0.51431 0.57233 0.0
C2658 C 0.90287 0.51433 0.58835 0.0
H2659 H 0.89002 0.45819 0.64802 0.0
H2660 H 0.90235 0.46841 0.62223 0.0
H2661 H 0.91526 0.47498 0.64875 0.0
H2662 H 0.93513 0.50933 0.63554 0.0
H2663 H 0.96564 0.50914 0.60752 0.0
H2664 H 0.55132 0.82017 0.72272 0.0
H2665 H 0.5496 0.8457 0.6908 0.0
H2666 H 0.48891 0.81302 0.66729 0.0
H2667 H 0.49052 0.7874 0.69958 0.0
H2668 H 0.54921 0.84033 0.64438 0.0
H2669 H 0.46876 0.87823 0.67471 0.0
H2670 H 0.48571 0.85997 0.69195 0.0
H2671 H 0.46794 0.84867 0.67024 0.0
C2672 C 0.53782 0.81816 0.71052 0.0
C2673 C 0.52103 0.8018 0.71367 0.0
C2674 C 0.53683 0.83281 0.69229 0.0
C2675 C 0.51889 0.83165 0.67682 0.0
C2676 C 0.5027 0.81455 0.67922 0.0
H2677 H 0.51487 0.91046 0.55299 0.0
H2678 H 0.51571 0.88049 0.58053 0.0
C2679 C 0.50378 0.79972 0.69749 0.0
C2680 C 0.51693 0.84898 0.65889 0.0
H2681 H 0.48405 0.8925 0.64103 0.0
C2682 C 0.53487 0.85162 0.64355 0.0
C2683 C 0.49845 0.86406 0.65804 0.0
C2684 C 0.47917 0.86282 0.67469 0.0
C2685 C 0.53483 0.86878 0.62742 0.0
C2686 C 0.51619 0.88366 0.62635 0.0
C2687 C 0.49827 0.88107 0.64173 0.0
C2688 C 0.51513 0.90213 0.60954 0.0
C2689 C 0.55509 0.8712 0.61208 0.0
C2690 C 0.51388 0.92445 0.61654 0.0
C2691 C 0.51329 0.94181 0.60075 0.0
C2692 C 0.51377 0.93726 0.57753 0.0
C2693 C 0.51462 0.91481 0.57065 0.0
C2694 C 0.51523 0.89753 0.58642 0.0
H2695 H 0.57022 0.86238 0.61876 0.0
H2696 H 0.55096 0.86393 0.59544 0.0
H2697 H 0.5595 0.88899 0.60959 0.0
H2698 H 0.51366 0.92847 0.63428 0.0
H2699 H 0.51256 0.95879 0.60678 0.0
H2700 H 0.21999 0.49952 0.72088 0.0
H2701 H 0.18753 0.49653 0.69553 0.0
H2702 H 0.22577 0.52941 0.64349 0.0
H2703 H 0.2583 0.53285 0.66899 0.0
H2704 H 0.16554 0.53479 0.6729 0.0
H2705 H 0.19928 0.4711 0.61393 0.0
H2706 H 0.21025 0.47466 0.64205 0.0
H2707 H 0.2179 0.49396 0.62034 0.0
C2708 C 0.22163 0.506 0.70405 0.0
C2709 C 0.24191 0.51618 0.69687 0.0
C2710 C 0.20303 0.50425 0.68956 0.0
C2711 C 0.20434 0.51253 0.66759 0.0
C2712 C 0.22454 0.52259 0.66029 0.0
H2713 H 0.1165 0.5223 0.55257 0.0
H2714 H 0.14748 0.52239 0.57967 0.0
C2715 C 0.2431 0.5245 0.67484 0.0
C2716 C 0.18428 0.51155 0.6526 0.0
H2717 H 0.16478 0.48859 0.60385 0.0
C2718 C 0.16525 0.5246 0.65786 0.0
C2719 C 0.18406 0.49829 0.63301 0.0
C2720 C 0.20386 0.48354 0.62696 0.0
C2721 C 0.14619 0.52526 0.64365 0.0
C2722 C 0.14597 0.51203 0.62396 0.0
C2723 C 0.16493 0.49873 0.61893 0.0
C2724 C 0.12667 0.51233 0.60786 0.0
C2725 C 0.12688 0.54072 0.64947 0.0
C2726 C 0.10456 0.50659 0.61462 0.0
C2727 C 0.08664 0.50671 0.59914 0.0
C2728 C 0.09058 0.51223 0.5765 0.0
C2729 C 0.11279 0.51784 0.56981 0.0
C2730 C 0.13059 0.51791 0.5853 0.0
H2731 H 0.13225 0.55385 0.66149 0.0
H2732 H 0.11998 0.54886 0.63418 0.0
H2733 H 0.11302 0.53104 0.65745 0.0
H2734 H 0.1012 0.50172 0.63181 0.0
H2735 H 0.06982 0.50208 0.60482 0.0
H2736 H 0.51657 0.248 0.67354 0.0
H2737 H 0.5199 0.21527 0.64908 0.0
H2738 H 0.49971 0.17305 0.70412 0.0
H2739 H 0.49573 0.20585 0.72836 0.0
H2740 H 0.54545 0.1779 0.65038 0.0
H2741 H 0.45466 0.1542 0.65692 0.0
H2742 H 0.46525 0.18048 0.6671 0.0
H2743 H 0.46888 0.15563 0.68353 0.0
C2744 C 0.51288 0.23171 0.68039 0.0
C2745 C 0.50556 0.22953 0.70277 0.0
C2746 C 0.5148 0.21299 0.66641 0.0
C2747 C 0.50952 0.19161 0.67449 0.0
C2748 C 0.50324 0.18933 0.69719 0.0
H2749 H 0.5071 0.06085 0.60736 0.0
H2750 H 0.50699 0.0908 0.6354 0.0
C2751 C 0.5012 0.20807 0.71114 0.0
C2752 C 0.51051 0.17186 0.65911 0.0
H2753 H 0.47868 0.1293 0.63729 0.0
C2754 C 0.53081 0.16732 0.64754 0.0
C2755 C 0.49146 0.15789 0.6553 0.0
C2756 C 0.46876 0.16236 0.66618 0.0
C2757 C 0.53263 0.1493 0.63248 0.0
C2758 C 0.51355 0.13548 0.62855 0.0
C2759 C 0.49334 0.13979 0.64033 0.0
C2760 C 0.51394 0.1171 0.61158 0.0
C2761 C 0.55508 0.14507 0.62104 0.0
C2762 C 0.51759 0.12183 0.58877 0.0
C2763 C 0.51758 0.1048 0.57269 0.0
C2764 C 0.51387 0.08246 0.57894 0.0
C2765 C 0.51012 0.07775 0.60184 0.0
C2766 C 0.51001 0.0949 0.61793 0.0
H2767 H 0.56937 0.15302 0.63021 0.0
H2768 H 0.55851 0.12696 0.61961 0.0
H2769 H 0.55459 0.15216 0.60384 0.0
H2770 H 0.52023 0.13882 0.58331 0.0
H2771 H 0.52049 0.10924 0.5553 0.0
H2772 H 0.82088 0.4759 0.29302 0.0
H2773 H 0.84553 0.47529 0.32599 0.0
H2774 H 0.81449 0.53578 0.35002 0.0
H2775 H 0.7899 0.53662 0.3167 0.0
H2776 H 0.8616 0.53814 0.34649 0.0
H2777 H 0.83617 0.4621 0.3926 0.0
H2778 H 0.84117 0.45719 0.36327 0.0
H2779 H 0.81822 0.47506 0.37178 0.0
C2780 C 0.81895 0.48878 0.30562 0.0
C2781 C 0.80356 0.50634 0.30235 0.0
C2782 C 0.83295 0.48834 0.3245 0.0
C2783 C 0.83174 0.5054 0.34053 0.0
C2784 C 0.81558 0.5224 0.33788 0.0
H2785 H 0.91387 0.5082 0.46152 0.0
H2786 H 0.8829 0.50824 0.43452 0.0
C2787 C 0.80146 0.52278 0.31897 0.0
C2788 C 0.84904 0.50667 0.35853 0.0
H2789 H 0.87283 0.4771 0.40141 0.0
C2790 C 0.8639 0.52493 0.35869 0.0
C2791 C 0.85196 0.48945 0.37443 0.0
C2792 C 0.83589 0.46994 0.37571 0.0
C2793 C 0.88203 0.52613 0.37393 0.0
C2794 C 0.88555 0.50843 0.38916 0.0
C2795 C 0.87028 0.49049 0.38947 0.0
C2796 C 0.90469 0.50844 0.40529 0.0
C2797 C 0.89718 0.54637 0.37368 0.0
C2798 C 0.9273 0.5083 0.39778 0.0
C2799 C 0.94523 0.50831 0.41321 0.0
C2800 C 0.94081 0.50835 0.43645 0.0
C2801 C 0.91806 0.50824 0.4438 0.0
C2802 C 0.90023 0.50822 0.42839 0.0
H2803 H 0.88899 0.56064 0.36504 0.0
H2804 H 0.90174 0.5515 0.39102 0.0
H2805 H 0.9131 0.54235 0.36456 0.0
H2806 H 0.93108 0.50806 0.37997 0.0
H2807 H 0.96249 0.5083 0.40692 0.0
H2808 H 0.48117 0.8087 0.2941 0.0
H2809 H 0.48415 0.84216 0.31756 0.0
H2810 H 0.53961 0.81238 0.35399 0.0
H2811 H 0.53666 0.77891 0.33045 0.0
H2812 H 0.47823 0.84425 0.36374 0.0
H2813 H 0.56399 0.87483 0.34092 0.0
H2814 H 0.54882 0.85468 0.32415 0.0
H2815 H 0.56335 0.84613 0.34925 0.0
C2816 C 0.49419 0.80943 0.30692 0.0
C2817 C 0.50863 0.79114 0.31051 0.0
C2818 C 0.49586 0.82855 0.32036 0.0
C2819 C 0.51221 0.82998 0.33753 0.0
C2820 C 0.5271 0.81194 0.34067 0.0
H2821 H 0.50916 0.91154 0.45775 0.0
H2822 H 0.50844 0.88204 0.42965 0.0
C2823 C 0.52537 0.79277 0.32727 0.0
C2824 C 0.51269 0.84966 0.35297 0.0
H2825 H 0.54674 0.89134 0.37314 0.0
C2826 C 0.49319 0.85459 0.36567 0.0
C2827 C 0.53209 0.86341 0.35542 0.0
C2828 C 0.5532 0.85968 0.34157 0.0
C2829 C 0.49275 0.8724 0.38107 0.0
C2830 C 0.51241 0.88565 0.38412 0.0
C2831 C 0.53172 0.88112 0.37099 0.0
C2832 C 0.51331 0.9039 0.40122 0.0
C2833 C 0.47112 0.87698 0.39387 0.0
C2834 C 0.5168 0.92614 0.39478 0.0
C2835 C 0.51724 0.94324 0.41092 0.0
C2836 C 0.51445 0.93846 0.43395 0.0
C2837 C 0.51133 0.91606 0.44027 0.0
C2838 C 0.51078 0.89906 0.42416 0.0
H2839 H 0.45613 0.86937 0.38553 0.0
H2840 H 0.47252 0.86976 0.41096 0.0
H2841 H 0.46816 0.89514 0.3956 0.0
H2842 H 0.51892 0.93033 0.3772 0.0
H2843 H 0.51979 0.96019 0.40532 0.0
H2844 H 0.21765 0.48402 0.28936 0.0
H2845 H 0.18314 0.48817 0.31215 0.0
H2846 H 0.22235 0.52017 0.36414 0.0
H2847 H 0.25665 0.51663 0.34107 0.0
H2848 H 0.17388 0.47073 0.35278 0.0
H2849 H 0.16977 0.56246 0.35886 0.0
H2850 H 0.18812 0.54843 0.33914 0.0
H2851 H 0.19665 0.55179 0.36799 0.0
C2852 C 0.21877 0.49217 0.30555 0.0
C2853 C 0.23977 0.49991 0.31354 0.0
C2854 C 0.19909 0.49449 0.31858 0.0
C2855 C 0.20002 0.50475 0.33978 0.0
C2856 C 0.22103 0.51267 0.34766 0.0
H2857 H 0.11536 0.5182 0.45619 0.0
H2858 H 0.14526 0.51731 0.42784 0.0
C2859 C 0.24066 0.51047 0.33457 0.0
C2860 C 0.17934 0.50613 0.35415 0.0
H2861 H 0.14703 0.54206 0.38519 0.0
C2862 C 0.16783 0.48637 0.35961 0.0
C2863 C 0.17136 0.52655 0.36305 0.0
C2864 C 0.18198 0.54852 0.35678 0.0
C2865 C 0.14917 0.48638 0.37437 0.0
C2866 C 0.1417 0.50668 0.3838 0.0
C2867 C 0.15285 0.5265 0.37799 0.0
C2868 C 0.1231 0.50755 0.40064 0.0
C2869 C 0.13804 0.46458 0.38042 0.0
C2870 C 0.10058 0.50258 0.3947 0.0
C2871 C 0.08329 0.50314 0.41091 0.0
C2872 C 0.08824 0.50858 0.4334 0.0
C2873 C 0.11085 0.51376 0.43913 0.0
C2874 C 0.12802 0.51335 0.42292 0.0
H2875 H 0.14806 0.45005 0.37451 0.0
H2876 H 0.13577 0.4633 0.3989 0.0
H2877 H 0.12097 0.46378 0.37257 0.0
H2878 H 0.09638 0.49829 0.37752 0.0
H2879 H 0.06612 0.49908 0.40585 0.0
H2880 H 0.4905 0.23131 0.31095 0.0
H2881 H 0.48933 0.20642 0.34385 0.0
H2882 H 0.55053 0.17421 0.32098 0.0
H2883 H 0.55177 0.19894 0.28844 0.0
H2884 H 0.48587 0.15969 0.34215 0.0
H2885 H 0.56398 0.18432 0.38752 0.0
H2886 H 0.5511 0.20162 0.36626 0.0
H2887 H 0.56883 0.17855 0.35832 0.0
C2888 C 0.50402 0.21933 0.31336 0.0
C2889 C 0.52132 0.2172 0.29722 0.0
C2890 C 0.50324 0.20497 0.33203 0.0
C2891 C 0.51995 0.18848 0.33507 0.0
C2892 C 0.53765 0.18696 0.31934 0.0
H2893 H 0.5134 0.06174 0.40605 0.0
H2894 H 0.51379 0.09179 0.37829 0.0
C2895 C 0.53833 0.20111 0.30068 0.0
C2896 C 0.51825 0.17179 0.35365 0.0
H2897 H 0.54779 0.14923 0.3976 0.0
C2898 C 0.49932 0.15756 0.35441 0.0
C2899 C 0.53568 0.16898 0.3698 0.0
C2900 C 0.55595 0.18431 0.37063 0.0
C2901 C 0.49768 0.14028 0.37035 0.0
C2902 C 0.51559 0.13688 0.38588 0.0
C2903 C 0.53418 0.15156 0.38556 0.0
C2904 C 0.51526 0.1184 0.40275 0.0
C2905 C 0.47666 0.12594 0.37054 0.0
C2906 C 0.5165 0.12316 0.42581 0.0
C2907 C 0.51639 0.10599 0.44175 0.0
C2908 C 0.5152 0.0835 0.4351 0.0
C2909 C 0.51421 0.07877 0.41193 0.0
C2910 C 0.51428 0.096 0.39597 0.0
H2911 H 0.46221 0.13421 0.36193 0.0
H2912 H 0.48028 0.11015 0.36156 0.0
H2913 H 0.47148 0.12183 0.38799 0.0
H2914 H 0.5174 0.14024 0.43153 0.0
H2915 H 0.51726 0.11046 0.45936 0.0
H2916 H 0.73451 0.82084 0.53842 0.0
H2917 H 0.70208 0.84621 0.53894 0.0
H2918 H 0.67393 0.81293 0.48113 0.0
H2919 H 0.70666 0.78743 0.48052 0.0
H2920 H 0.67752 0.85954 0.47625 0.0
H2921 H 0.63532 0.83828 0.55664 0.0
H2922 H 0.66529 0.84304 0.55938 0.0
H2923 H 0.65529 0.81989 0.54301 0.0
C2924 C 0.72111 0.81858 0.52615 0.0
C2925 C 0.72303 0.80208 0.5095 0.0
C2926 C 0.70255 0.83307 0.52649 0.0
C2927 C 0.68544 0.83143 0.51018 0.0
C2928 C 0.68687 0.81445 0.49396 0.0
H2929 H 0.56179 0.91109 0.51033 0.0
H2930 H 0.58964 0.88115 0.51034 0.0
C2931 C 0.70544 0.79977 0.49373 0.0
C2932 C 0.66719 0.84859 0.50913 0.0
H2933 H 0.62502 0.873 0.54001 0.0
C2934 C 0.6659 0.86235 0.4901 0.0
C2935 C 0.65196 0.85224 0.52716 0.0
C2936 C 0.65183 0.83746 0.54762 0.0
C2937 C 0.65021 0.87998 0.48887 0.0
C2938 C 0.63556 0.88416 0.50726 0.0
C2939 C 0.63644 0.87001 0.52603 0.0
C2940 C 0.6188 0.90276 0.50715 0.0
C2941 C 0.64931 0.89386 0.46778 0.0
C2942 C 0.62587 0.92506 0.50561 0.0
C2943 C 0.6099 0.9424 0.50561 0.0
C2944 C 0.5865 0.93782 0.50719 0.0
C2945 C 0.57959 0.91542 0.50895 0.0
C2946 C 0.59553 0.89817 0.50902 0.0
H2947 H 0.65746 0.88526 0.45335 0.0
H2948 H 0.63149 0.89789 0.46323 0.0
H2949 H 0.65849 0.90972 0.47067 0.0
H2950 H 0.64376 0.92907 0.50458 0.0
H2951 H 0.61593 0.95937 0.50432 0.0
H2952 H 0.73224 0.20166 0.47067 0.0
H2953 H 0.69996 0.17615 0.47157 0.0
H2954 H 0.67767 0.20515 0.53406 0.0
H2955 H 0.71034 0.23064 0.53338 0.0
H2956 H 0.68096 0.15887 0.53567 0.0
H2957 H 0.63227 0.18466 0.46051 0.0
H2958 H 0.66174 0.17968 0.45468 0.0
H2959 H 0.65375 0.20206 0.47314 0.0
C2960 C 0.7202 0.20292 0.48438 0.0
C2961 C 0.72382 0.2182 0.50195 0.0
C2962 C 0.70168 0.18837 0.48483 0.0
C2963 C 0.68624 0.18878 0.5028 0.0
C2964 C 0.68931 0.20458 0.51997 0.0
H2965 H 0.56233 0.10972 0.50726 0.0
H2966 H 0.59038 0.13946 0.5071 0.0
C2967 C 0.70784 0.21928 0.51947 0.0
C2968 C 0.66806 0.17157 0.50436 0.0
H2969 H 0.62331 0.14896 0.47579 0.0
C2970 C 0.66822 0.15683 0.52268 0.0
C2971 C 0.65135 0.16892 0.48749 0.0
C2972 C 0.64957 0.1848 0.46795 0.0
C2973 C 0.65252 0.13924 0.52429 0.0
C2974 C 0.63638 0.13607 0.50696 0.0
C2975 C 0.63585 0.15116 0.48894 0.0
C2976 C 0.6195 0.11757 0.50743 0.0
C2977 C 0.65319 0.12435 0.54467 0.0
C2978 C 0.62644 0.09519 0.5075 0.0
C2979 C 0.61035 0.07794 0.50761 0.0
C2980 C 0.58694 0.08273 0.50754 0.0
C2981 C 0.58013 0.10522 0.50736 0.0
C2982 C 0.59619 0.12236 0.50724 0.0
H2983 H 0.6624 0.13228 0.55886 0.0
H2984 H 0.63577 0.12003 0.55033 0.0
H2985 H 0.66215 0.1087 0.54033 0.0
H2986 H 0.64433 0.09103 0.50721 0.0
H2987 H 0.6163 0.0609 0.50762 0.0
H2988 H 0.81968 0.73067 0.52458 0.0
H2989 H 0.85234 0.70579 0.51933 0.0
H2990 H 0.80679 0.65195 0.50306 0.0
H2991 H 0.77425 0.67696 0.50773 0.0
H2992 H 0.86295 0.66863 0.54251 0.0
H2993 H 0.85225 0.64635 0.45293 0.0
H2994 H 0.83702 0.66908 0.46578 0.0
H2995 H 0.8272 0.64092 0.46917 0.0
C2996 C 0.81673 0.7136 0.51956 0.0
C2997 C 0.79445 0.70571 0.51664 0.0
C2998 C 0.83537 0.69936 0.51664 0.0
C2999 C 0.83215 0.67698 0.51053 0.0
C3000 C 0.80986 0.66921 0.50728 0.0
H3001 H 0.91444 0.55806 0.50176 0.0
H3002 H 0.88448 0.5861 0.50273 0.0
C3003 C 0.79123 0.68347 0.5101 0.0
C3004 C 0.85194 0.6615 0.50877 0.0
H3005 H 0.87776 0.62368 0.47418 0.0
C3006 C 0.86631 0.659 0.52746 0.0
C3007 C 0.85643 0.64885 0.48917 0.0
C3008 C 0.84255 0.65157 0.46805 0.0
C3009 C 0.8845 0.64379 0.52734 0.0
C3010 C 0.88869 0.63085 0.5079 0.0
C3011 C 0.87452 0.63353 0.48911 0.0
C3012 C 0.90726 0.61399 0.50696 0.0
C3013 C 0.89868 0.64117 0.54827 0.0
C3014 C 0.93017 0.6203 0.50872 0.0
C3015 C 0.94747 0.60426 0.50812 0.0
C3016 C 0.94225 0.5815 0.50577 0.0
C3017 C 0.91924 0.57534 0.50373 0.0
C3018 C 0.90201 0.59139 0.50422 0.0
H3019 H 0.89035 0.64869 0.56321 0.0
H3020 H 0.90203 0.62333 0.55178 0.0
H3021 H 0.91527 0.64958 0.54578 0.0
H3022 H 0.93469 0.63768 0.51049 0.0
H3023 H 0.96492 0.60972 0.50968 0.0
H3024 H 0.3259 0.7852 0.52892 0.0
H3025 H 0.35787 0.81158 0.52799 0.0
H3026 H 0.32666 0.84596 0.47244 0.0
H3027 H 0.29497 0.81966 0.47322 0.0
H3028 H 0.37428 0.8418 0.46835 0.0
H3029 H 0.34832 0.87585 0.55135 0.0
H3030 H 0.35381 0.84644 0.5506 0.0
H3031 H 0.33029 0.85766 0.53511 0.0
C3032 C 0.32625 0.79803 0.51615 0.0
C3033 C 0.30799 0.80046 0.50118 0.0
C3034 C 0.34434 0.81324 0.51579 0.0
C3035 C 0.34441 0.83101 0.50043 0.0
C3036 C 0.32691 0.83249 0.48453 0.0
H3037 H 0.41265 0.9595 0.50676 0.0
H3038 H 0.38493 0.92906 0.50527 0.0
C3039 C 0.30885 0.81743 0.48496 0.0
C3040 C 0.36181 0.84891 0.50156 0.0
H3041 H 0.38066 0.89182 0.53437 0.0
C3042 C 0.37579 0.85265 0.48283 0.0
C3043 C 0.3634 0.86338 0.52028 0.0
C3044 C 0.34807 0.86085 0.54044 0.0
C3045 C 0.39145 0.87031 0.48239 0.0
C3046 C 0.39335 0.8845 0.50128 0.0
C3047 C 0.37925 0.88088 0.51994 0.0
C3048 C 0.41008 0.90301 0.5021 0.0
C3049 C 0.4055 0.87392 0.4615 0.0
C3050 C 0.43339 0.89847 0.5011 0.0
C3051 C 0.44924 0.91574 0.50196 0.0
C3052 C 0.44218 0.93807 0.50395 0.0
C3053 C 0.41875 0.94258 0.50514 0.0
C3054 C 0.40287 0.92519 0.50433 0.0
H3055 H 0.39802 0.86542 0.44666 0.0
H3056 H 0.40721 0.89192 0.45769 0.0
H3057 H 0.42277 0.86704 0.4642 0.0
H3058 H 0.43938 0.88148 0.49981 0.0
H3059 H 0.46708 0.91146 0.50104 0.0
H3060 H 0.21856 0.29874 0.54182 0.0
H3061 H 0.18475 0.32244 0.53868 0.0
H3062 H 0.21747 0.36037 0.4864 0.0
H3063 H 0.25131 0.33667 0.48955 0.0
H3064 H 0.18367 0.36889 0.54564 0.0
H3065 H 0.15414 0.34694 0.45994 0.0
H3066 H 0.17376 0.32981 0.47558 0.0
H3067 H 0.18362 0.35449 0.46163 0.0
C3068 C 0.21842 0.31203 0.52954 0.0
C3069 C 0.23757 0.31602 0.51601 0.0
C3070 C 0.19913 0.32554 0.52775 0.0
C3071 C 0.19848 0.34309 0.51219 0.0
C3072 C 0.21742 0.34674 0.49829 0.0
H3073 H 0.11687 0.46245 0.51245 0.0
H3074 H 0.14673 0.43437 0.5138 0.0
C3075 C 0.23676 0.33329 0.50015 0.0
C3076 C 0.1786 0.35838 0.51144 0.0
H3077 H 0.13702 0.37866 0.47697 0.0
C3078 C 0.17339 0.37092 0.53067 0.0
C3079 C 0.16504 0.36088 0.49197 0.0
C3080 C 0.16923 0.34719 0.47114 0.0
C3081 C 0.15541 0.3863 0.53077 0.0
C3082 C 0.14236 0.38939 0.51106 0.0
C3083 C 0.14714 0.37641 0.49202 0.0
C3084 C 0.12403 0.40638 0.50983 0.0
C3085 C 0.15046 0.39911 0.55202 0.0
C3086 C 0.1013 0.40004 0.5067 0.0
C3087 C 0.08405 0.41611 0.50593 0.0
C3088 C 0.08922 0.4389 0.50802 0.0
C3089 C 0.11212 0.44513 0.5108 0.0
C3090 C 0.12928 0.42906 0.5117 0.0
H3091 H 0.15817 0.39107 0.56699 0.0
H3092 H 0.15765 0.41611 0.55052 0.0
H3093 H 0.13187 0.40067 0.55477 0.0
H3094 H 0.09688 0.38262 0.50511 0.0
H3095 H 0.06668 0.41064 0.50364 0.0
H3096 H 0.32394 0.23438 0.47992 0.0
H3097 H 0.35615 0.20828 0.48035 0.0
H3098 H 0.32735 0.17519 0.53797 0.0
H3099 H 0.29548 0.20125 0.53773 0.0
H3100 H 0.37479 0.18 0.54037 0.0
H3101 H 0.34699 0.14334 0.45913 0.0
H3102 H 0.35215 0.17281 0.45888 0.0
H3103 H 0.3292 0.16178 0.47535 0.0
C3104 C 0.32486 0.22188 0.49299 0.0
C3105 C 0.30721 0.21974 0.50873 0.0
C3106 C 0.34308 0.20683 0.49307 0.0
C3107 C 0.34389 0.18949 0.50892 0.0
C3108 C 0.32701 0.1883 0.5255 0.0
H3109 H 0.41288 0.06153 0.50498 0.0
H3110 H 0.3851 0.09192 0.50576 0.0
C3111 C 0.30883 0.20321 0.52536 0.0
C3112 C 0.3615 0.1718 0.50774 0.0
H3113 H 0.37996 0.1282 0.47566 0.0
C3114 C 0.37604 0.16876 0.52617 0.0
C3115 C 0.36276 0.15685 0.48939 0.0
C3116 C 0.34685 0.15863 0.46961 0.0
C3117 C 0.39189 0.15128 0.52669 0.0
C3118 C 0.39343 0.13658 0.50816 0.0
C3119 C 0.37882 0.13954 0.48979 0.0
C3120 C 0.41023 0.11813 0.50751 0.0
C3121 C 0.4065 0.14839 0.5473 0.0
C3122 C 0.43354 0.12277 0.50789 0.0
C3123 C 0.44942 0.10552 0.50745 0.0
C3124 C 0.4424 0.08311 0.5065 0.0
C3125 C 0.41896 0.07851 0.5058 0.0
C3126 C 0.40305 0.09587 0.50621 0.0
H3127 H 0.39934 0.15728 0.56206 0.0
H3128 H 0.40842 0.13052 0.55161 0.0
H3129 H 0.42365 0.15529 0.54393 0.0
H3130 H 0.4395 0.13981 0.50844 0.0
H3131 H 0.46726 0.10987 0.50788 0.0
H3132 H 0.77458 0.34377 0.51525 0.0
H3133 H 0.8078 0.36821 0.51839 0.0
H3134 H 0.85044 0.31582 0.49244 0.0
H3135 H 0.81708 0.29167 0.48856 0.0
H3136 H 0.84714 0.36581 0.5414 0.0
H3137 H 0.86629 0.36563 0.45016 0.0
H3138 H 0.84027 0.35438 0.4614 0.0
H3139 H 0.86607 0.33837 0.4624 0.0
C3140 C 0.79107 0.3375 0.51025 0.0
C3141 C 0.79322 0.31592 0.5014 0.0
C3142 C 0.81006 0.35145 0.51206 0.0
C3143 C 0.83164 0.34411 0.50515 0.0
C3144 C 0.83395 0.32216 0.49728 0.0
H3145 H 0.96406 0.4112 0.50119 0.0
H3146 H 0.93361 0.38338 0.50129 0.0
C3147 C 0.81492 0.30826 0.49531 0.0
C3148 C 0.85155 0.35951 0.50605 0.0
H3149 H 0.8929 0.38367 0.47378 0.0
C3150 C 0.85711 0.36971 0.52659 0.0
C3151 C 0.86464 0.3647 0.48674 0.0
C3152 C 0.85893 0.35539 0.46388 0.0
C3153 C 0.87535 0.38476 0.52836 0.0
C3154 C 0.88834 0.38996 0.50905 0.0
C3155 C 0.88301 0.37959 0.48859 0.0
C3156 C 0.90696 0.40675 0.50956 0.0
C3157 C 0.88072 0.39487 0.55093 0.0
C3158 C 0.90212 0.42918 0.51397 0.0
C3159 C 0.91943 0.44515 0.5138 0.0
C3160 C 0.94209 0.43908 0.50926 0.0
C3161 C 0.9469 0.41653 0.5049 0.0
C3162 C 0.92948 0.40058 0.50489 0.0
H3163 H 0.87294 0.38527 0.56491 0.0
H3164 H 0.89935 0.39575 0.55365 0.0
H3165 H 0.87389 0.41206 0.55155 0.0
H3166 H 0.88483 0.43442 0.51726 0.0
H3167 H 0.91498 0.46229 0.51725 0.0
H3168 H 0.25718 0.67545 0.50051 0.0
H3169 H 0.22416 0.65086 0.50456 0.0
H3170 H 0.17963 0.70577 0.4893 0.0
H3171 H 0.21271 0.73023 0.48471 0.0
H3172 H 0.18712 0.65209 0.53247 0.0
H3173 H 0.15927 0.65972 0.44372 0.0
H3174 H 0.18663 0.66941 0.45324 0.0
H3175 H 0.16157 0.68577 0.45828 0.0
C3176 C 0.24032 0.68221 0.498 0.0
C3177 C 0.23747 0.70461 0.49189 0.0
C3178 C 0.22147 0.66819 0.50035 0.0
C3179 C 0.19939 0.6763 0.49673 0.0
C3180 C 0.19649 0.69894 0.49157 0.0
H3181 H 0.06698 0.60931 0.49818 0.0
H3182 H 0.09734 0.63718 0.49745 0.0
C3183 C 0.21536 0.71295 0.48913 0.0
C3184 C 0.17951 0.66099 0.49827 0.0
H3185 H 0.13527 0.63937 0.46807 0.0
C3186 C 0.1758 0.64932 0.51838 0.0
C3187 C 0.16467 0.65735 0.47989 0.0
C3188 C 0.16829 0.66855 0.45749 0.0
C3189 C 0.15767 0.63424 0.52065 0.0
C3190 C 0.14299 0.63045 0.50221 0.0
C3191 C 0.14648 0.64234 0.48222 0.0
C3192 C 0.12448 0.61359 0.50305 0.0
C3193 C 0.15424 0.62263 0.54286 0.0
C3194 C 0.12963 0.59101 0.50615 0.0
C3195 C 0.11236 0.57503 0.50652 0.0
C3196 C 0.08945 0.58121 0.50372 0.0
C3197 C 0.08435 0.60388 0.5005 0.0
C3198 C 0.1017 0.61986 0.50004 0.0
H3199 H 0.16277 0.63163 0.55681 0.0
H3200 H 0.1359 0.62101 0.54688 0.0
H3201 H 0.16162 0.60567 0.54191 0.0
H3202 H 0.14709 0.58569 0.50807 0.0
H3203 H 0.11707 0.55779 0.50901 0.0
loop_
_geom_bond_atom_site_label_1
_geom_bond_atom_site_label_2
_geom_bond_distance
_geom_bond_site_symmetry_2
_ccdc_geom_bond_type
H0 C7 0.929 . S
H1 C10 0.930 . S
H2 C12 0.929 . S
H3 C4 0.969 1_655 S
C4 H3 0.969 1_455 S
C4 O5 1.550 . S
C4 H6 0.973 . S
O5 C4 1.550 . S
O5 C11 1.412 . S
H6 C4 0.973 . S
C7 H0 0.929 . S
C7 C8 1.400 . S
C7 C9 1.364 . S
C8 C7 1.400 . S
C8 C12 1.377 . S
C9 C7 1.364 . S
C9 C10 1.374 . S
C10 H1 0.930 . S
C10 C9 1.374 . S
C10 C11 1.383 . S
C11 O5 1.412 . S
C11 C10 1.383 . S
C11 C12 1.394 . S
C12 H2 0.929 . S
C12 C8 1.377 . S
C12 C11 1.394 . S
H13 C20 0.931 . S
H14 C23 0.930 . S
H15 C25 0.931 . S
H16 C17 0.969 . S
C17 H16 0.969 . S
C17 O18 1.550 1_545 S
C17 H19 0.973 1_545 S
O18 C17 1.550 1_565 S
O18 C24 1.412 1_565 S
H19 C17 0.973 1_565 S
C20 H13 0.931 . S
C20 C21 1.400 . S
C20 C22 1.364 . S
C21 C20 1.400 . S
C21 C25 1.377 . S
C22 C20 1.364 . S
C22 C23 1.376 . S
C23 H14 0.930 . S
C23 C22 1.376 . S
C23 C24 1.386 . S
C24 O18 1.412 1_545 S
C24 C23 1.386 . S
C24 C25 1.394 . S
C25 H15 0.931 . S
C25 C21 1.377 . S
C25 C24 1.394 . S
H26 C33 0.929 . S
H27 C36 0.930 . S
H28 C38 0.929 . S
H29 C30 0.969 1_655 S
C30 H29 0.969 1_455 S
C30 O31 1.550 . S
C30 H32 0.973 . S
O31 C30 1.550 . S
O31 C37 1.412 . S
H32 C30 0.973 . S
C33 H26 0.929 . S
C33 C34 1.400 . S
C33 C35 1.364 . S
C34 C33 1.400 . S
C34 C38 1.377 . S
C35 C33 1.364 . S
C35 C36 1.374 . S
C36 H27 0.930 . S
C36 C35 1.374 . S
C36 C37 1.383 . S
C37 O31 1.412 . S
C37 C36 1.383 . S
C37 C38 1.394 . S
C38 H28 0.929 . S
C38 C34 1.377 . S
C38 C37 1.394 . S
H39 C46 0.931 . S
H40 C49 0.930 . S
H41 C51 0.931 . S
H42 C43 0.969 . S
C43 H42 0.969 . S
C43 O44 1.550 1_545 S
C43 H45 0.973 1_545 S
O44 C43 1.550 1_565 S
O44 C50 1.412 1_565 S
H45 C43 0.973 1_565 S
C46 H39 0.931 . S
C46 C47 1.400 . S
C46 C48 1.364 . S
C47 C46 1.400 . S
C47 C51 1.377 . S
C48 C46 1.364 . S
C48 C49 1.376 . S
C49 H40 0.930 . S
C49 C48 1.376 . S
C49 C50 1.386 . S
C50 O44 1.412 1_545 S
C50 C49 1.386 . S
C50 C51 1.394 . S
C51 H41 0.931 . S
C51 C47 1.377 . S
C51 C50 1.394 . S
H52 C59 0.929 . S
H53 C62 0.930 . S
H54 C64 0.929 . S
H55 C56 0.969 1_655 S
C56 H55 0.969 1_455 S
C56 O57 1.550 . S
C56 H58 0.973 . S
O57 C56 1.550 . S
O57 C63 1.412 . S
H58 C56 0.973 . S
C59 H52 0.929 . S
C59 C60 1.400 . S
C59 C61 1.364 . S
C60 C59 1.400 . S
C60 C64 1.377 . S
C61 C59 1.364 . S
C61 C62 1.374 . S
C62 H53 0.930 . S
C62 C61 1.374 . S
C62 C63 1.383 . S
C63 O57 1.412 . S
C63 C62 1.383 . S
C63 C64 1.394 . S
C64 H54 0.929 . S
C64 C60 1.377 . S
C64 C63 1.394 . S
H65 C72 0.928 1_545 S
H66 C75 0.930 . S
H67 C77 0.928 1_545 S
H68 C69 0.969 . S
C69 H68 0.969 . S
C69 O70 1.550 1_565 S
C69 H71 0.973 1_565 S
O70 C69 1.550 1_545 S
O70 C76 1.405 1_545 S
H71 C69 0.973 1_545 S
C72 H65 0.928 1_565 S
C72 C73 1.400 . S
C72 C74 1.364 . S
C73 C72 1.400 . S
C73 C77 1.377 . S
C74 C72 1.364 . S
C74 C75 1.374 1_565 S
C75 H66 0.930 . S
C75 C74 1.374 1_545 S
C75 C76 1.382 1_545 S
C76 O70 1.405 1_565 S
C76 C75 1.382 1_565 S
C76 C77 1.394 . S
C77 H67 0.928 1_565 S
C77 C73 1.377 . S
C77 C76 1.394 . S
H78 C85 0.929 . S
H79 C88 0.930 . S
H80 C90 0.929 . S
H81 C82 0.969 1_655 S
C82 H81 0.969 1_455 S
C82 O83 1.550 . S
C82 H84 0.973 . S
O83 C82 1.550 . S
O83 C89 1.412 . S
H84 C82 0.973 . S
C85 H78 0.929 . S
C85 C86 1.400 . S
C85 C87 1.364 . S
C86 C85 1.400 . S
C86 C90 1.377 . S
C87 C85 1.364 . S
C87 C88 1.374 . S
C88 H79 0.930 . S
C88 C87 1.374 . S
C88 C89 1.383 . S
C89 O83 1.412 . S
C89 C88 1.383 . S
C89 C90 1.394 . S
C90 H80 0.929 . S
C90 C86 1.377 . S
C90 C89 1.394 . S
H91 C98 0.928 1_545 S
H92 C101 0.930 . S
H93 C103 0.928 1_545 S
H94 C95 0.969 . S
C95 H94 0.969 . S
C95 O96 1.550 1_565 S
C95 H97 0.973 1_565 S
O96 C95 1.550 1_545 S
O96 C102 1.405 1_545 S
H97 C95 0.973 1_545 S
C98 H91 0.928 1_565 S
C98 C99 1.400 . S
C98 C100 1.364 . S
C99 C98 1.400 . S
C99 C103 1.377 . S
C100 C98 1.364 . S
C100 C101 1.374 1_565 S
C101 H92 0.930 . S
C101 C100 1.374 1_545 S
C101 C102 1.382 1_545 S
C102 O96 1.405 1_565 S
C102 C101 1.382 1_565 S
C102 C103 1.394 . S
C103 H93 0.928 1_565 S
C103 C99 1.377 . S
C103 C102 1.394 . S
H104 C111 0.928 1_556 S
H105 C114 0.930 . S
H106 C116 0.928 1_556 S
H107 C108 0.969 . S
C108 H107 0.969 . S
C108 O109 1.550 1_554 S
C108 H110 0.973 1_554 S
O109 C108 1.550 1_556 S
O109 C115 1.402 1_556 S
H110 C108 0.973 1_556 S
C111 H104 0.928 1_554 S
C111 C112 1.400 . S
C111 C113 1.364 . S
C112 C111 1.400 . S
C112 C116 1.377 . S
C113 C111 1.364 . S
C113 C114 1.374 1_554 S
C114 H105 0.930 . S
C114 C113 1.374 1_556 S
C114 C115 1.382 1_556 S
C115 O109 1.402 1_554 S
C115 C114 1.382 1_554 S
C115 C116 1.394 . S
C116 H106 0.928 1_554 S
C116 C112 1.377 . S
C116 C115 1.394 . S
H117 C124 0.931 . S
H118 C127 0.930 . S
H119 C129 0.932 . S
H120 C121 0.969 . S
C121 H120 0.969 . S
C121 O122 1.550 1_556 S
C121 H123 0.973 1_556 S
O122 C121 1.550 1_554 S
O122 C128 1.418 . S
H123 C121 0.973 1_554 S
C124 H117 0.931 . S
C124 C125 1.400 . S
C124 C126 1.364 . S
C125 C124 1.400 . S
C125 C129 1.377 . S
C126 C124 1.364 . S
C126 C127 1.376 . S
C127 H118 0.930 . S
C127 C126 1.376 . S
C127 C128 1.384 . S
C128 O122 1.418 . S
C128 C127 1.384 . S
C128 C129 1.394 . S
C129 H119 0.932 . S
C129 C125 1.377 . S
C129 C128 1.394 . S
H130 C137 0.928 1_554 S
H131 C140 0.930 . S
H132 C142 0.928 1_554 S
H133 C134 0.969 . S
C134 H133 0.969 . S
C134 O135 1.550 1_556 S
C134 H136 0.973 1_556 S
O135 C134 1.550 1_554 S
O135 C141 1.405 1_554 S
H136 C134 0.973 1_554 S
C137 H130 0.928 1_556 S
C137 C138 1.400 . S
C137 C139 1.364 . S
C138 C137 1.400 . S
C138 C142 1.377 . S
C139 C137 1.364 . S
C139 C140 1.374 1_556 S
C140 H131 0.930 . S
C140 C139 1.374 1_554 S
C140 C141 1.382 1_554 S
C141 O135 1.405 1_556 S
C141 C140 1.382 1_556 S
C141 C142 1.394 . S
C142 H132 0.928 1_556 S
C142 C138 1.377 . S
C142 C141 1.394 . S
H143 C150 0.931 . S
H144 C153 0.930 . S
H145 C155 0.931 . S
H146 C147 0.969 . S
C147 H146 0.969 . S
C147 O148 1.550 1_554 S
C147 H149 0.973 1_554 S
O148 C147 1.550 1_556 S
O148 C154 1.412 1_556 S
H149 C147 0.973 1_556 S
C150 H143 0.931 . S
C150 C151 1.400 . S
C150 C152 1.364 . S
C151 C150 1.400 . S
C151 C155 1.377 . S
C152 C150 1.364 . S
C152 C153 1.376 . S
C153 H144 0.930 . S
C153 C152 1.376 . S
C153 C154 1.386 . S
C154 O148 1.412 1_554 S
C154 C153 1.386 . S
C154 C155 1.394 . S
C155 H145 0.931 . S
C155 C151 1.377 . S
C155 C154 1.394 . S
H156 C163 0.929 . S
H157 C166 0.930 . S
H158 C168 0.929 . S
H159 C160 0.969 . S
C160 H159 0.969 . S
C160 O161 1.550 . S
C160 H162 0.973 . S
O161 C160 1.550 . S
O161 C167 1.412 . S
H162 C160 0.973 . S
C163 H156 0.929 . S
C163 C164 1.400 . S
C163 C165 1.364 . S
C164 C163 1.400 . S
C164 C168 1.377 . S
C165 C163 1.364 . S
C165 C166 1.374 . S
C166 H157 0.930 . S
C166 C165 1.374 . S
C166 C167 1.383 . S
C167 O161 1.412 . S
C167 C166 1.383 . S
C167 C168 1.394 . S
C168 H158 0.929 . S
C168 C164 1.377 . S
C168 C167 1.394 . S
H169 C176 0.929 . S
H170 C179 0.930 . S
H171 C181 0.929 . S
H172 C173 0.969 . S
C173 H172 0.969 . S
C173 O174 1.550 . S
C173 H175 0.973 . S
O174 C173 1.550 . S
O174 C180 1.412 . S
H175 C173 0.973 . S
C176 H169 0.929 . S
C176 C177 1.400 . S
C176 C178 1.364 . S
C177 C176 1.400 . S
C177 C181 1.377 . S
C178 C176 1.364 . S
C178 C179 1.374 . S
C179 H170 0.930 . S
C179 C178 1.374 . S
C179 C180 1.383 . S
C180 O174 1.412 . S
C180 C179 1.383 . S
C180 C181 1.394 . S
C181 H171 0.929 . S
C181 C177 1.377 . S
C181 C180 1.394 . S
H182 C189 0.929 . S
H183 C192 0.930 . S
H184 C194 0.929 . S
H185 C186 0.969 . S
C186 H185 0.969 . S
C186 O187 1.550 . S
C186 H188 0.973 . S
O187 C186 1.550 . S
O187 C193 1.412 . S
H188 C186 0.973 . S
C189 H182 0.929 . S
C189 C190 1.400 . S
C189 C191 1.364 . S
C190 C189 1.400 . S
C190 C194 1.377 . S
C191 C189 1.364 . S
C191 C192 1.374 . S
C192 H183 0.930 . S
C192 C191 1.374 . S
C192 C193 1.383 . S
C193 O187 1.412 . S
C193 C192 1.383 . S
C193 C194 1.394 . S
C194 H184 0.929 . S
C194 C190 1.377 . S
C194 C193 1.394 . S
H195 C202 0.929 . S
H196 C205 0.930 . S
H197 C207 0.929 . S
H198 C199 0.969 . S
C199 H198 0.969 . S
C199 O200 1.550 . S
C199 H201 0.973 . S
O200 C199 1.550 . S
O200 C206 1.412 . S
H201 C199 0.973 . S
C202 H195 0.929 . S
C202 C203 1.400 . S
C202 C204 1.364 . S
C203 C202 1.400 . S
C203 C207 1.377 . S
C204 C202 1.364 . S
C204 C205 1.374 . S
C205 H196 0.930 . S
C205 C204 1.374 . S
C205 C206 1.383 . S
C206 O200 1.412 . S
C206 C205 1.383 . S
C206 C207 1.394 . S
C207 H197 0.929 . S
C207 C203 1.377 . S
C207 C206 1.394 . S
H208 C215 0.929 . S
H209 C218 0.930 . S
H210 C220 0.929 . S
H211 C212 0.969 . S
C212 H211 0.969 . S
C212 O213 1.550 . S
C212 H214 0.973 . S
O213 C212 1.550 . S
O213 C219 1.412 . S
H214 C212 0.973 . S
C215 H208 0.929 . S
C215 C216 1.400 . S
C215 C217 1.364 . S
C216 C215 1.400 . S
C216 C220 1.377 . S
C217 C215 1.364 . S
C217 C218 1.374 . S
C218 H209 0.930 . S
C218 C217 1.374 . S
C218 C219 1.383 . S
C219 O213 1.412 . S
C219 C218 1.383 . S
C219 C220 1.394 . S
C220 H210 0.929 . S
C220 C216 1.377 . S
C220 C219 1.394 . S
H221 C228 0.929 . S
H222 C231 0.930 . S
H223 C233 0.929 . S
H224 C225 0.969 . S
C225 H224 0.969 . S
C225 O226 1.550 . S
C225 H227 0.973 . S
O226 C225 1.550 . S
O226 C232 1.412 . S
H227 C225 0.973 . S
C228 H221 0.929 . S
C228 C229 1.400 . S
C228 C230 1.364 . S
C229 C228 1.400 . S
C229 C233 1.377 . S
C230 C228 1.364 . S
C230 C231 1.374 . S
C231 H222 0.930 . S
C231 C230 1.374 . S
C231 C232 1.383 . S
C232 O226 1.412 . S
C232 C231 1.383 . S
C232 C233 1.394 . S
C233 H223 0.929 . S
C233 C229 1.377 . S
C233 C232 1.394 . S
H234 C241 0.929 . S
H235 C244 0.930 . S
H236 C246 0.929 . S
H237 C238 0.969 . S
C238 H237 0.969 . S
C238 O239 1.550 . S
C238 H240 0.973 . S
O239 C238 1.550 . S
O239 C245 1.412 . S
H240 C238 0.973 . S
C241 H234 0.929 . S
C241 C242 1.400 . S
C241 C243 1.364 . S
C242 C241 1.400 . S
C242 C246 1.377 . S
C243 C241 1.364 . S
C243 C244 1.374 . S
C244 H235 0.930 . S
C244 C243 1.374 . S
C244 C245 1.383 . S
C245 O239 1.412 . S
C245 C244 1.383 . S
C245 C246 1.394 . S
C246 H236 0.929 . S
C246 C242 1.377 . S
C246 C245 1.394 . S
H247 C254 0.929 . S
H248 C257 0.930 . S
H249 C259 0.929 . S
H250 C251 0.969 . S
C251 H250 0.969 . S
C251 O252 1.550 . S
C251 H253 0.973 . S
O252 C251 1.550 . S
O252 C258 1.412 . S
H253 C251 0.973 . S
C254 H247 0.929 . S
C254 C255 1.400 . S
C254 C256 1.364 . S
C255 C254 1.400 . S
C255 C259 1.377 . S
C256 C254 1.364 . S
C256 C257 1.374 . S
C257 H248 0.930 . S
C257 C256 1.374 . S
C257 C258 1.383 . S
C258 O252 1.412 . S
C258 C257 1.383 . S
C258 C259 1.394 . S
C259 H249 0.929 . S
C259 C255 1.377 . S
C259 C258 1.394 . S
H260 C267 0.929 . S
H261 C270 0.930 . S
H262 C272 0.929 . S
H263 C264 0.969 . S
C264 H263 0.969 . S
C264 O265 1.550 . S
C264 H266 0.973 . S
O265 C264 1.550 . S
O265 C271 1.412 . S
H266 C264 0.973 . S
C267 H260 0.929 . S
C267 C268 1.400 . S
C267 C269 1.364 . S
C268 C267 1.400 . S
C268 C272 1.377 . S
C269 C267 1.364 . S
C269 C270 1.374 . S
C270 H261 0.930 . S
C270 C269 1.374 . S
C270 C271 1.383 . S
C271 O265 1.412 . S
C271 C270 1.383 . S
C271 C272 1.394 . S
C272 H262 0.929 . S
C272 C268 1.377 . S
C272 C271 1.394 . S
H273 C280 0.929 . S
H274 C283 0.930 . S
H275 C285 0.929 . S
H276 C277 0.969 . S
C277 H276 0.969 . S
C277 O278 1.550 . S
C277 H279 0.973 . S
O278 C277 1.550 . S
O278 C284 1.412 . S
H279 C277 0.973 . S
C280 H273 0.929 . S
C280 C281 1.400 . S
C280 C282 1.364 . S
C281 C280 1.400 . S
C281 C285 1.377 . S
C282 C280 1.364 . S
C282 C283 1.374 . S
C283 H274 0.930 . S
C283 C282 1.374 . S
C283 C284 1.383 . S
C284 O278 1.412 . S
C284 C283 1.383 . S
C284 C285 1.394 . S
C285 H275 0.929 . S
C285 C281 1.377 . S
C285 C284 1.394 . S
H286 C293 0.929 . S
H287 C296 0.930 . S
H288 C298 0.929 . S
H289 C290 0.969 . S
C290 H289 0.969 . S
C290 O291 1.550 . S
C290 H292 0.973 . S
O291 C290 1.550 . S
O291 C297 1.412 . S
H292 C290 0.973 . S
C293 H286 0.929 . S
C293 C294 1.400 . S
C293 C295 1.364 . S
C294 C293 1.400 . S
C294 C298 1.377 . S
C295 C293 1.364 . S
C295 C296 1.374 . S
C296 H287 0.930 . S
C296 C295 1.374 . S
C296 C297 1.383 . S
C297 O291 1.412 . S
C297 C296 1.383 . S
C297 C298 1.394 . S
C298 H288 0.929 . S
C298 C294 1.377 . S
C298 C297 1.394 . S
H299 C306 0.929 . S
H300 C309 0.930 . S
H301 C311 0.929 . S
H302 C303 0.969 . S
C303 H302 0.969 . S
C303 O304 1.550 . S
C303 H305 0.973 . S
O304 C303 1.550 . S
O304 C310 1.412 . S
H305 C303 0.973 . S
C306 H299 0.929 . S
C306 C307 1.400 . S
C306 C308 1.364 . S
C307 C306 1.400 . S
C307 C311 1.377 . S
C308 C306 1.364 . S
C308 C309 1.374 . S
C309 H300 0.930 . S
C309 C308 1.374 . S
C309 C310 1.383 . S
C310 O304 1.412 . S
C310 C309 1.383 . S
C310 C311 1.394 . S
C311 H301 0.929 . S
C311 C307 1.377 . S
C311 C310 1.394 . S
C312 O338 1.283 . S
C312 O356 1.283 . S
C313 O339 1.283 . S
C313 O354 1.283 . S
C314 O340 1.283 . S
C314 O357 1.283 . S
C315 O341 1.283 . S
C315 O355 1.283 . S
C316 O342 1.283 . S
C316 O351 1.283 . S
C317 O343 1.283 . S
C317 O353 1.283 . S
C318 O344 1.283 . S
C318 O350 1.283 . S
C319 O345 1.283 . S
C319 O352 1.283 . S
C320 O346 1.283 . S
C320 O361 1.283 . S
C321 O347 1.283 . S
C321 O359 1.283 . S
C322 O348 1.283 . S
C322 O360 1.283 . S
C323 O349 1.283 . S
C323 O358 1.283 . S
Eu324 O325 2.370 1_455 S
Eu324 O326 2.370 . S
Eu324 O329 2.370 1_455 S
Eu324 O330 2.370 . S
Eu324 O338 2.363 . S
Eu324 O339 2.363 . S
Eu324 O352 2.363 . S
Eu324 O353 2.363 1_455 S
O325 Eu324 2.370 1_655 S
O325 Eu327 2.356 1_565 S
O325 Eu332 2.354 1_665 S
O326 Eu324 2.370 . S
O326 Eu328 2.356 1_565 S
O326 Eu331 2.357 1_565 S
Eu327 O325 2.356 1_545 S
Eu327 O329 2.356 1_545 S
Eu327 O333 2.385 . S
Eu327 O334 2.385 . S
Eu327 O342 2.388 . S
Eu327 O343 2.338 1_545 S
Eu327 O358 2.363 . S
Eu327 O359 2.363 . S
Eu328 O326 2.356 1_545 S
Eu328 O330 2.356 1_545 S
Eu328 O335 2.385 . S
Eu328 O336 2.385 . S
Eu328 O344 2.388 . S
Eu328 O345 2.338 1_545 S
Eu328 O360 2.363 . S
Eu328 O361 2.363 . S
O329 Eu324 2.370 1_655 S
O329 Eu327 2.356 1_565 S
O329 Eu331 2.357 1_665 S
O330 Eu324 2.370 . S
O330 Eu328 2.356 1_565 S
O330 Eu332 2.354 1_565 S
Eu331 O326 2.357 1_545 S
Eu331 O329 2.357 1_445 S
Eu331 O333 2.383 1_455 S
Eu331 O336 2.383 . S
Eu331 O348 2.363 . S
Eu331 O349 2.363 1_455 S
Eu331 O356 2.341 1_545 S
Eu331 O357 2.384 . S
Eu332 O325 2.354 1_445 S
Eu332 O330 2.354 1_545 S
Eu332 O334 2.387 1_455 S
Eu332 O335 2.387 . S
Eu332 O346 2.363 . S
Eu332 O347 2.363 1_455 S
Eu332 O354 2.335 1_545 S
Eu332 O355 2.391 . S
O333 Eu327 2.385 . S
O333 Eu331 2.383 1_655 S
O333 Eu337 2.370 1_655 S
O334 Eu327 2.385 . S
O334 Eu332 2.387 1_655 S
O334 Eu337 2.370 1_655 S
O335 Eu328 2.385 . S
O335 Eu332 2.387 . S
O335 Eu337 2.370 . S
O336 Eu328 2.385 . S
O336 Eu331 2.383 . S
O336 Eu337 2.370 . S
Eu337 O333 2.370 1_455 S
Eu337 O334 2.370 1_455 S
Eu337 O335 2.370 . S
Eu337 O336 2.370 . S
Eu337 O340 2.363 . S
Eu337 O341 2.363 . S
Eu337 O350 2.363 . S
Eu337 O351 2.363 1_455 S
O338 C312 1.283 . S
O338 Eu324 2.363 . S
O339 C313 1.283 . S
O339 Eu324 2.363 . S
O340 C314 1.283 . S
O340 Eu337 2.363 . S
O341 C315 1.283 . S
O341 Eu337 2.363 . S
O342 C316 1.283 . S
O342 Eu327 2.388 . S
O343 C317 1.283 . S
O343 Eu327 2.338 1_565 S
O344 C318 1.283 . S
O344 Eu328 2.388 . S
O345 C319 1.283 . S
O345 Eu328 2.338 1_565 S
O346 C320 1.283 . S
O346 Eu332 2.363 . S
O347 C321 1.283 . S
O347 Eu332 2.363 1_655 S
O348 C322 1.283 . S
O348 Eu331 2.363 . S
O349 C323 1.283 . S
O349 Eu331 2.363 1_655 S
O350 C318 1.283 . S
O350 Eu337 2.363 . S
O351 C316 1.283 . S
O351 Eu337 2.363 1_655 S
O352 C319 1.283 . S
O352 Eu324 2.363 . S
O353 C317 1.283 . S
O353 Eu324 2.363 1_655 S
O354 C313 1.283 . S
O354 Eu332 2.335 1_565 S
O355 C315 1.283 . S
O355 Eu332 2.391 . S
O356 C312 1.283 . S
O356 Eu331 2.341 1_565 S
O357 C314 1.283 . S
O357 Eu331 2.384 . S
O358 C323 1.283 . S
O358 Eu327 2.363 . S
O359 C321 1.283 . S
O359 Eu327 2.363 . S
O360 C322 1.283 . S
O360 Eu328 2.363 . S
O361 C320 1.283 . S
O361 Eu328 2.363 . S
C362 O388 1.283 . S
C362 O406 1.283 . S
C363 O389 1.283 . S
C363 O404 1.283 . S
C364 O390 1.283 . S
C364 O407 1.283 . S
C365 O391 1.283 . S
C365 O405 1.283 . S
C366 O392 1.283 . S
C366 O401 1.283 . S
C367 O393 1.283 . S
C367 O403 1.283 . S
C368 O394 1.283 . S
C368 O400 1.283 . S
C369 O395 1.283 . S
C369 O402 1.283 . S
C370 O396 1.283 . S
C370 O411 1.283 . S
C371 O397 1.283 . S
C371 O409 1.283 . S
C372 O398 1.283 . S
C372 O410 1.283 . S
C373 O399 1.283 . S
C373 O408 1.283 . S
Eu374 O375 2.390 . S
Eu374 O376 2.350 1_545 S
Eu374 O379 2.350 1_545 S
Eu374 O380 2.390 . S
Eu374 O388 2.329 1_545 S
Eu374 O389 2.397 . S
Eu374 O402 2.363 . S
Eu374 O403 2.363 . S
O375 Eu374 2.390 . S
O375 Eu377 2.399 . S
O375 Eu382 2.379 . S
O376 Eu374 2.350 1_565 S
O376 Eu378 2.370 1_565 S
O376 Eu381 2.390 . S
Eu377 O375 2.399 . S
Eu377 O379 2.370 1_545 S
Eu377 O383 2.341 1_544 S
Eu377 O384 2.371 1_554 S
Eu377 O392 2.339 1_554 S
Eu377 O393 2.387 . S
Eu377 O408 2.338 1_545 S
Eu377 O409 2.388 . S
Eu378 O376 2.370 1_545 S
Eu378 O380 2.399 . S
Eu378 O385 2.371 1_554 S
Eu378 O386 2.341 1_544 S
Eu378 O394 2.339 1_554 S
Eu378 O395 2.387 . S
Eu378 O410 2.338 1_545 S
Eu378 O411 2.388 . S
O379 Eu374 2.350 1_565 S
O379 Eu377 2.370 1_565 S
O379 Eu381 2.390 . S
O380 Eu374 2.390 . S
O380 Eu378 2.399 . S
O380 Eu382 2.379 . S
Eu381 O376 2.390 . S
Eu381 O379 2.390 . S
Eu381 O383 2.350 1_554 S
Eu381 O386 2.350 1_554 S
Eu381 O398 2.363 . S
Eu381 O399 2.363 . S
Eu381 O406 2.396 . S
Eu381 O407 2.330 1_554 S
Eu382 O375 2.379 . S
Eu382 O380 2.379 . S
Eu382 O384 2.362 1_554 S
Eu382 O385 2.362 1_554 S
Eu382 O396 2.363 . S
Eu382 O397 2.363 . S
Eu382 O404 2.377 . S
Eu382 O405 2.349 1_554 S
O383 Eu377 2.341 1_566 S
O383 Eu381 2.350 1_556 S
O383 Eu387 2.361 1_565 S
O384 Eu377 2.371 1_556 S
O384 Eu382 2.362 1_556 S
O384 Eu387 2.379 . S
O385 Eu378 2.371 1_556 S
O385 Eu382 2.362 1_556 S
O385 Eu387 2.379 . S
O386 Eu378 2.341 1_566 S
O386 Eu381 2.350 1_556 S
O386 Eu387 2.361 1_565 S
Eu387 O383 2.361 1_545 S
Eu387 O384 2.379 . S
Eu387 O385 2.379 . S
Eu387 O386 2.361 1_545 S
Eu387 O390 2.348 1_545 S
Eu387 O391 2.378 . S
Eu387 O400 2.363 . S
Eu387 O401 2.363 . S
O388 C362 1.283 . S
O388 Eu374 2.329 1_565 S
O389 C363 1.283 . S
O389 Eu374 2.397 . S
O390 C364 1.283 . S
O390 Eu387 2.348 1_565 S
O391 C365 1.283 . S
O391 Eu387 2.378 . S
O392 C366 1.283 . S
O392 Eu377 2.339 1_556 S
O393 C367 1.283 . S
O393 Eu377 2.387 . S
O394 C368 1.283 . S
O394 Eu378 2.339 1_556 S
O395 C369 1.283 . S
O395 Eu378 2.387 . S
O396 C370 1.283 . S
O396 Eu382 2.363 . S
O397 C371 1.283 . S
O397 Eu382 2.363 . S
O398 C372 1.283 . S
O398 Eu381 2.363 . S
O399 C373 1.283 . S
O399 Eu381 2.363 . S
O400 C368 1.283 . S
O400 Eu387 2.363 . S
O401 C366 1.283 . S
O401 Eu387 2.363 . S
O402 C369 1.283 . S
O402 Eu374 2.363 . S
O403 C367 1.283 . S
O403 Eu374 2.363 . S
O404 C363 1.283 . S
O404 Eu382 2.377 . S
O405 C365 1.283 . S
O405 Eu382 2.349 1_556 S
O406 C362 1.283 . S
O406 Eu381 2.396 . S
O407 C364 1.283 . S
O407 Eu381 2.330 1_556 S
O408 C373 1.283 . S
O408 Eu377 2.338 1_565 S
O409 C371 1.283 . S
O409 Eu377 2.388 . S
O410 C372 1.283 . S
O410 Eu378 2.338 1_565 S
O411 C370 1.283 . S
O411 Eu378 2.388 . S
C412 O438 1.283 . S
C412 O456 1.283 . S
C413 O439 1.283 . S
C413 O454 1.283 . S
C414 O440 1.283 . S
C414 O457 1.283 . S
C415 O441 1.283 . S
C415 O455 1.283 . S
C416 O442 1.283 . S
C416 O451 1.283 . S
C417 O443 1.283 . S
C417 O453 1.283 . S
C418 O444 1.283 . S
C418 O450 1.283 . S
C419 O445 1.283 . S
C419 O452 1.283 . S
C420 O446 1.283 . S
C420 O461 1.283 . S
C421 O447 1.283 . S
C421 O459 1.283 . S
C422 O448 1.283 . S
C422 O460 1.283 . S
C423 O449 1.283 . S
C423 O458 1.283 . S
Eu424 O425 2.364 1_554 S
Eu424 O426 2.382 . S
Eu424 O429 2.388 . S
Eu424 O430 2.358 1_554 S
Eu424 O438 2.384 . S
Eu424 O439 2.342 1_554 S
Eu424 O452 2.363 . S
Eu424 O453 2.363 1_455 S
O425 Eu424 2.364 1_556 S
O425 Eu427 2.349 1_456 S
O425 Eu432 2.376 . S
O426 Eu424 2.382 . S
O426 Eu428 2.384 . S
O426 Eu431 2.370 . S
Eu427 O425 2.349 1_654 S
Eu427 O429 2.377 1_655 S
Eu427 O433 2.377 1_655 S
Eu427 O434 2.349 1_654 S
Eu427 O442 2.363 . S
Eu427 O443 2.363 . S
Eu427 O458 2.387 . S
Eu427 O459 2.339 1_554 S
Eu428 O426 2.384 . S
Eu428 O430 2.356 1_554 S
Eu428 O435 2.356 1_554 S
Eu428 O436 2.384 . S
Eu428 O444 2.363 . S
Eu428 O445 2.363 . S
Eu428 O460 2.387 . S
Eu428 O461 2.339 1_554 S
O429 Eu424 2.388 . S
O429 Eu427 2.377 1_455 S
O429 Eu431 2.376 . S
O430 Eu424 2.358 1_556 S
O430 Eu428 2.356 1_556 S
O430 Eu432 2.370 . S
Eu431 O426 2.370 . S
Eu431 O429 2.376 . S
Eu431 O433 2.376 . S
Eu431 O436 2.370 . S
Eu431 O448 2.363 . S
Eu431 O449 2.363 1_455 S
Eu431 O456 2.363 . S
Eu431 O457 2.363 . S
Eu432 O425 2.376 . S
Eu432 O430 2.370 . S
Eu432 O434 2.376 . S
Eu432 O435 2.370 . S
Eu432 O446 2.363 . S
Eu432 O447 2.363 1_455 S
Eu432 O454 2.363 . S
Eu432 O455 2.363 . S
O433 Eu427 2.377 1_455 S
O433 Eu431 2.376 . S
O433 Eu437 2.392 . S
O434 Eu427 2.349 1_456 S
O434 Eu432 2.376 . S
O434 Eu437 2.360 1_556 S
O435 Eu428 2.356 1_556 S
O435 Eu432 2.370 . S
O435 Eu437 2.354 1_556 S
O436 Eu428 2.384 . S
O436 Eu431 2.370 . S
O436 Eu437 2.386 . S
Eu437 O433 2.392 . S
Eu437 O434 2.360 1_554 S
Eu437 O435 2.354 1_554 S
Eu437 O436 2.386 . S
Eu437 O440 2.390 . S
Eu437 O441 2.336 1_554 S
Eu437 O450 2.363 . S
Eu437 O451 2.363 1_455 S
O438 C412 1.283 . S
O438 Eu424 2.384 . S
O439 C413 1.283 . S
O439 Eu424 2.342 1_556 S
O440 C414 1.283 . S
O440 Eu437 2.390 . S
O441 C415 1.283 . S
O441 Eu437 2.336 1_556 S
O442 C416 1.283 . S
O442 Eu427 2.363 . S
O443 C417 1.283 . S
O443 Eu427 2.363 . S
O444 C418 1.283 . S
O444 Eu428 2.363 . S
O445 C419 1.283 . S
O445 Eu428 2.363 . S
O446 C420 1.283 . S
O446 Eu432 2.363 . S
O447 C421 1.283 . S
O447 Eu432 2.363 1_655 S
O448 C422 1.283 . S
O448 Eu431 2.363 . S
O449 C423 1.283 . S
O449 Eu431 2.363 1_655 S
O450 C418 1.283 . S
O450 Eu437 2.363 . S
O451 C416 1.283 . S
O451 Eu437 2.363 1_655 S
O452 C419 1.283 . S
O452 Eu424 2.363 . S
O453 C417 1.283 . S
O453 Eu424 2.363 1_655 S
O454 C413 1.283 . S
O454 Eu432 2.363 . S
O455 C415 1.283 . S
O455 Eu432 2.363 . S
O456 C412 1.283 . S
O456 Eu431 2.363 . S
O457 C414 1.283 . S
O457 Eu431 2.363 . S
O458 C423 1.283 . S
O458 Eu427 2.387 . S
O459 C421 1.283 . S
O459 Eu427 2.339 1_556 S
O460 C422 1.283 . S
O460 Eu428 2.387 . S
O461 C420 1.283 . S
O461 Eu428 2.339 1_556 S
C462 O488 1.283 . S
C462 O506 1.283 . S
C463 O489 1.283 . S
C463 O504 1.283 . S
C464 O490 1.283 . S
C464 O507 1.283 . S
C465 O491 1.283 . S
C465 O505 1.283 . S
C466 O492 1.283 . S
C466 O501 1.283 . S
C467 O493 1.283 . S
C467 O503 1.283 . S
C468 O494 1.283 . S
C468 O500 1.283 . S
C469 O495 1.283 . S
C469 O502 1.283 . S
C470 O496 1.283 . S
C470 O511 1.283 . S
C471 O497 1.283 . S
C471 O509 1.283 . S
C472 O498 1.283 . S
C472 O510 1.283 . S
C473 O499 1.283 . S
C473 O508 1.283 . S
Eu474 O475 2.370 . S
Eu474 O476 2.370 . S
Eu474 O479 2.370 . S
Eu474 O480 2.370 . S
Eu474 O488 2.363 . S
Eu474 O489 2.363 . S
Eu474 O502 2.363 . S
Eu474 O503 2.363 . S
O475 Eu474 2.370 . S
O475 Eu477 2.384 . S
O475 Eu482 2.386 . S
O476 Eu474 2.370 . S
O476 Eu478 2.384 . S
O476 Eu481 2.382 . S
Eu477 O475 2.384 . S
Eu477 O479 2.384 . S
Eu477 O483 2.356 1_554 S
Eu477 O484 2.356 1_554 S
Eu477 O492 2.339 1_554 S
Eu477 O493 2.387 . S
Eu477 O508 2.363 . S
Eu477 O509 2.363 . S
Eu478 O476 2.384 . S
Eu478 O480 2.384 . S
Eu478 O485 2.356 1_554 S
Eu478 O486 2.356 1_554 S
Eu478 O494 2.339 1_554 S
Eu478 O495 2.387 . S
Eu478 O510 2.363 . S
Eu478 O511 2.363 . S
O479 Eu474 2.370 . S
O479 Eu477 2.384 . S
O479 Eu481 2.382 . S
O480 Eu474 2.370 . S
O480 Eu478 2.384 . S
O480 Eu482 2.386 . S
Eu481 O476 2.382 . S
Eu481 O479 2.382 . S
Eu481 O483 2.358 1_554 S
Eu481 O486 2.358 1_554 S
Eu481 O498 2.363 . S
Eu481 O499 2.363 . S
Eu481 O506 2.384 . S
Eu481 O507 2.342 1_554 S
Eu482 O475 2.386 . S
Eu482 O480 2.386 . S
Eu482 O484 2.354 1_554 S
Eu482 O485 2.354 1_554 S
Eu482 O496 2.363 . S
Eu482 O497 2.363 . S
Eu482 O504 2.390 . S
Eu482 O505 2.336 1_554 S
O483 Eu477 2.356 1_556 S
O483 Eu481 2.358 1_556 S
O483 Eu487 2.370 . S
O484 Eu477 2.356 1_556 S
O484 Eu482 2.354 1_556 S
O484 Eu487 2.370 . S
O485 Eu478 2.356 1_556 S
O485 Eu482 2.354 1_556 S
O485 Eu487 2.370 . S
O486 Eu478 2.356 1_556 S
O486 Eu481 2.358 1_556 S
O486 Eu487 2.370 . S
Eu487 O483 2.370 . S
Eu487 O484 2.370 . S
Eu487 O485 2.370 . S
Eu487 O486 2.370 . S
Eu487 O490 2.363 . S
Eu487 O491 2.363 . S
Eu487 O500 2.363 . S
Eu487 O501 2.363 . S
O488 C462 1.283 . S
O488 Eu474 2.363 . S
O489 C463 1.283 . S
O489 Eu474 2.363 . S
O490 C464 1.283 . S
O490 Eu487 2.363 . S
O491 C465 1.283 . S
O491 Eu487 2.363 . S
O492 C466 1.283 . S
O492 Eu477 2.339 1_556 S
O493 C467 1.283 . S
O493 Eu477 2.387 . S
O494 C468 1.283 . S
O494 Eu478 2.339 1_556 S
O495 C469 1.283 . S
O495 Eu478 2.387 . S
O496 C470 1.283 . S
O496 Eu482 2.363 . S
O497 C471 1.283 . S
O497 Eu482 2.363 . S
O498 C472 1.283 . S
O498 Eu481 2.363 . S
O499 C473 1.283 . S
O499 Eu481 2.363 . S
O500 C468 1.283 . S
O500 Eu487 2.363 . S
O501 C466 1.283 . S
O501 Eu487 2.363 . S
O502 C469 1.283 . S
O502 Eu474 2.363 . S
O503 C467 1.283 . S
O503 Eu474 2.363 . S
O504 C463 1.283 . S
O504 Eu482 2.390 . S
O505 C465 1.283 . S
O505 Eu482 2.336 1_556 S
O506 C462 1.283 . S
O506 Eu481 2.384 . S
O507 C464 1.283 . S
O507 Eu481 2.342 1_556 S
O508 C473 1.283 . S
O508 Eu477 2.363 . S
O509 C471 1.283 . S
O509 Eu477 2.363 . S
O510 C472 1.283 . S
O510 Eu478 2.363 . S
O511 C470 1.283 . S
O511 Eu478 2.363 . S
C512 O538 1.283 . S
C512 O556 1.283 . S
C513 O539 1.283 . S
C513 O554 1.283 . S
C514 O540 1.283 . S
C514 O557 1.283 . S
C515 O541 1.283 . S
C515 O555 1.283 . S
C516 O542 1.283 . S
C516 O551 1.283 . S
C517 O543 1.283 . S
C517 O553 1.283 . S
C518 O544 1.283 . S
C518 O550 1.283 . S
C519 O545 1.283 . S
C519 O552 1.283 . S
C520 O546 1.283 . S
C520 O561 1.283 . S
C521 O547 1.283 . S
C521 O559 1.283 . S
C522 O548 1.283 . S
C522 O560 1.283 . S
C523 O549 1.283 . S
C523 O558 1.283 . S
Eu524 O525 2.370 1_455 S
Eu524 O526 2.370 . S
Eu524 O529 2.370 1_455 S
Eu524 O530 2.370 . S
Eu524 O538 2.363 . S
Eu524 O539 2.363 . S
Eu524 O552 2.363 . S
Eu524 O553 2.363 1_455 S
O525 Eu524 2.370 1_655 S
O525 Eu527 2.370 . S
O525 Eu532 2.370 1_655 S
O526 Eu524 2.370 . S
O526 Eu528 2.370 . S
O526 Eu531 2.370 . S
Eu527 O525 2.370 . S
Eu527 O529 2.370 . S
Eu527 O533 2.370 . S
Eu527 O534 2.370 . S
Eu527 O542 2.363 . S
Eu527 O543 2.363 . S
Eu527 O558 2.363 . S
Eu527 O559 2.363 . S
Eu528 O526 2.370 . S
Eu528 O530 2.370 . S
Eu528 O535 2.370 . S
Eu528 O536 2.370 . S
Eu528 O544 2.363 . S
Eu528 O545 2.363 . S
Eu528 O560 2.363 . S
Eu528 O561 2.363 . S
O529 Eu524 2.370 1_655 S
O529 Eu527 2.370 . S
O529 Eu531 2.370 1_655 S
O530 Eu524 2.370 . S
O530 Eu528 2.370 . S
O530 Eu532 2.370 . S
Eu531 O526 2.370 . S
Eu531 O529 2.370 1_455 S
Eu531 O533 2.370 1_455 S
Eu531 O536 2.370 . S
Eu531 O548 2.363 . S
Eu531 O549 2.363 1_455 S
Eu531 O556 2.363 . S
Eu531 O557 2.363 . S
Eu532 O525 2.370 1_455 S
Eu532 O530 2.370 . S
Eu532 O534 2.370 1_455 S
Eu532 O535 2.370 . S
Eu532 O546 2.363 . S
Eu532 O547 2.363 1_455 S
Eu532 O554 2.363 . S
Eu532 O555 2.363 . S
O533 Eu527 2.370 . S
O533 Eu531 2.370 1_655 S
O533 Eu537 2.370 1_655 S
O534 Eu527 2.370 . S
O534 Eu532 2.370 1_655 S
O534 Eu537 2.370 1_655 S
O535 Eu528 2.370 . S
O535 Eu532 2.370 . S
O535 Eu537 2.370 . S
O536 Eu528 2.370 . S
O536 Eu531 2.370 . S
O536 Eu537 2.370 . S
Eu537 O533 2.370 1_455 S
Eu537 O534 2.370 1_455 S
Eu537 O535 2.370 . S
Eu537 O536 2.370 . S
Eu537 O540 2.363 . S
Eu537 O541 2.363 . S
Eu537 O550 2.363 . S
Eu537 O551 2.363 1_455 S
O538 C512 1.283 . S
O538 Eu524 2.363 . S
O539 C513 1.283 . S
O539 Eu524 2.363 . S
O540 C514 1.283 . S
O540 Eu537 2.363 . S
O541 C515 1.283 . S
O541 Eu537 2.363 . S
O542 C516 1.283 . S
O542 Eu527 2.363 . S
O543 C517 1.283 . S
O543 Eu527 2.363 . S
O544 C518 1.283 . S
O544 Eu528 2.363 . S
O545 C519 1.283 . S
O545 Eu528 2.363 . S
O546 C520 1.283 . S
O546 Eu532 2.363 . S
O547 C521 1.283 . S
O547 Eu532 2.363 1_655 S
O548 C522 1.283 . S
O548 Eu531 2.363 . S
O549 C523 1.283 . S
O549 Eu531 2.363 1_655 S
O550 C518 1.283 . S
O550 Eu537 2.363 . S
O551 C516 1.283 . S
O551 Eu537 2.363 1_655 S
O552 C519 1.283 . S
O552 Eu524 2.363 . S
O553 C517 1.283 . S
O553 Eu524 2.363 1_655 S
O554 C513 1.283 . S
O554 Eu532 2.363 . S
O555 C515 1.283 . S
O555 Eu532 2.363 . S
O556 C512 1.283 . S
O556 Eu531 2.363 . S
O557 C514 1.283 . S
O557 Eu531 2.363 . S
O558 C523 1.283 . S
O558 Eu527 2.363 . S
O559 C521 1.283 . S
O559 Eu527 2.363 . S
O560 C522 1.283 . S
O560 Eu528 2.363 . S
O561 C520 1.283 . S
O561 Eu528 2.363 . S
C562 O588 1.283 . S
C562 O606 1.283 . S
C563 O589 1.283 . S
C563 O604 1.283 . S
C564 O590 1.283 . S
C564 O607 1.283 . S
C565 O591 1.283 . S
C565 O605 1.283 . S
C566 O592 1.283 . S
C566 O601 1.283 . S
C567 O593 1.283 . S
C567 O603 1.283 . S
C568 O594 1.283 . S
C568 O600 1.283 . S
C569 O595 1.283 . S
C569 O602 1.283 . S
C570 O596 1.283 . S
C570 O611 1.283 . S
C571 O597 1.283 . S
C571 O609 1.283 . S
C572 O598 1.283 . S
C572 O610 1.283 . S
C573 O599 1.283 . S
C573 O608 1.283 . S
Eu574 O575 2.370 . S
Eu574 O576 2.370 . S
Eu574 O579 2.370 . S
Eu574 O580 2.370 . S
Eu574 O588 2.363 . S
Eu574 O589 2.363 . S
Eu574 O602 2.363 . S
Eu574 O603 2.363 . S
O575 Eu574 2.370 . S
O575 Eu577 2.356 1_565 S
O575 Eu582 2.354 1_565 S
O576 Eu574 2.370 . S
O576 Eu578 2.356 1_565 S
O576 Eu581 2.357 1_565 S
Eu577 O575 2.356 1_545 S
Eu577 O579 2.356 1_545 S
Eu577 O583 2.385 . S
Eu577 O584 2.385 . S
Eu577 O592 2.388 . S
Eu577 O593 2.338 1_545 S
Eu577 O608 2.363 . S
Eu577 O609 2.363 . S
Eu578 O576 2.356 1_545 S
Eu578 O580 2.356 1_545 S
Eu578 O585 2.385 . S
Eu578 O586 2.385 . S
Eu578 O594 2.388 . S
Eu578 O595 2.338 1_545 S
Eu578 O610 2.363 . S
Eu578 O611 2.363 . S
O579 Eu574 2.370 . S
O579 Eu577 2.356 1_565 S
O579 Eu581 2.357 1_565 S
O580 Eu574 2.370 . S
O580 Eu578 2.356 1_565 S
O580 Eu582 2.354 1_565 S
Eu581 O576 2.357 1_545 S
Eu581 O579 2.357 1_545 S
Eu581 O583 2.383 . S
Eu581 O586 2.383 . S
Eu581 O598 2.363 . S
Eu581 O599 2.363 . S
Eu581 O606 2.341 1_545 S
Eu581 O607 2.384 . S
Eu582 O575 2.354 1_545 S
Eu582 O580 2.354 1_545 S
Eu582 O584 2.387 . S
Eu582 O585 2.387 . S
Eu582 O596 2.363 . S
Eu582 O597 2.363 . S
Eu582 O604 2.335 1_545 S
Eu582 O605 2.391 . S
O583 Eu577 2.385 . S
O583 Eu581 2.383 . S
O583 Eu587 2.370 . S
O584 Eu577 2.385 . S
O584 Eu582 2.387 . S
O584 Eu587 2.370 . S
O585 Eu578 2.385 . S
O585 Eu582 2.387 . S
O585 Eu587 2.370 . S
O586 Eu578 2.385 . S
O586 Eu581 2.383 . S
O586 Eu587 2.370 . S
Eu587 O583 2.370 . S
Eu587 O584 2.370 . S
Eu587 O585 2.370 . S
Eu587 O586 2.370 . S
Eu587 O590 2.363 . S
Eu587 O591 2.363 . S
Eu587 O600 2.363 . S
Eu587 O601 2.363 . S
O588 C562 1.283 . S
O588 Eu574 2.363 . S
O589 C563 1.283 . S
O589 Eu574 2.363 . S
O590 C564 1.283 . S
O590 Eu587 2.363 . S
O591 C565 1.283 . S
O591 Eu587 2.363 . S
O592 C566 1.283 . S
O592 Eu577 2.388 . S
O593 C567 1.283 . S
O593 Eu577 2.338 1_565 S
O594 C568 1.283 . S
O594 Eu578 2.388 . S
O595 C569 1.283 . S
O595 Eu578 2.338 1_565 S
O596 C570 1.283 . S
O596 Eu582 2.363 . S
O597 C571 1.283 . S
O597 Eu582 2.363 . S
O598 C572 1.283 . S
O598 Eu581 2.363 . S
O599 C573 1.283 . S
O599 Eu581 2.363 . S
O600 C568 1.283 . S
O600 Eu587 2.363 . S
O601 C566 1.283 . S
O601 Eu587 2.363 . S
O602 C569 1.283 . S
O602 Eu574 2.363 . S
O603 C567 1.283 . S
O603 Eu574 2.363 . S
O604 C563 1.283 . S
O604 Eu582 2.335 1_565 S
O605 C565 1.283 . S
O605 Eu582 2.391 . S
O606 C562 1.283 . S
O606 Eu581 2.341 1_565 S
O607 C564 1.283 . S
O607 Eu581 2.384 . S
O608 C573 1.283 . S
O608 Eu577 2.363 . S
O609 C571 1.283 . S
O609 Eu577 2.363 . S
O610 C572 1.283 . S
O610 Eu578 2.363 . S
O611 C570 1.283 . S
O611 Eu578 2.363 . S
H612 C620 0.929 . S
H613 C622 0.930 . S
H614 C624 0.930 . S
H615 C627 0.929 . S
H616 C630 0.930 . S
H617 C632 0.960 . S
H618 C632 0.960 . S
H619 C632 0.960 . S
C620 H612 0.929 . S
C620 C621 1.377 . S
C620 C622 1.384 . S
C621 C620 1.377 . S
C621 C627 1.390 . S
C622 H613 0.930 . S
C622 C620 1.384 . S
C622 C623 1.372 . S
C623 C622 1.372 . S
C623 C624 1.400 . S
C623 C628 1.490 . S
C624 H614 0.930 . S
C624 C623 1.400 . S
C624 C627 1.386 . S
H625 C641 0.930 . S
H626 C642 0.931 . S
C627 H615 0.929 . S
C627 C621 1.390 . S
C627 C624 1.386 . S
C628 C623 1.490 . S
C628 C630 1.395 . S
C628 C631 1.403 . S
H629 C635 0.930 . S
C630 H616 0.930 . S
C630 C628 1.395 . S
C630 C633 1.403 . S
C631 C628 1.403 . S
C631 C632 1.524 . S
C631 C635 1.400 . S
C632 H617 0.960 . S
C632 H618 0.960 . S
C632 H619 0.960 . S
C632 C631 1.524 . S
C633 C630 1.403 . S
C633 C634 1.392 . S
C633 C637 1.495 . S
C634 C633 1.392 . S
C634 C635 1.385 . S
C634 C636 1.478 . S
C635 H629 0.930 . S
C635 C631 1.400 . S
C635 C634 1.385 . S
C636 C634 1.478 . S
C636 C638 1.381 . S
C636 C642 1.383 . S
C637 C633 1.495 . S
C637 H643 0.959 . S
C637 H644 0.961 . S
C637 H645 0.960 . S
C638 C636 1.381 . S
C638 C639 1.394 . S
C638 H646 0.930 . S
C639 C638 1.394 . S
C639 C640 1.383 . S
C639 H647 0.929 . S
C640 C639 1.383 . S
C640 C641 1.377 . S
C641 H625 0.930 . S
C641 C640 1.377 . S
C641 C642 1.379 . S
C642 H626 0.931 . S
C642 C636 1.383 . S
C642 C641 1.379 . S
H643 C637 0.959 . S
H644 C637 0.961 . S
H645 C637 0.960 . S
H646 C638 0.930 . S
H647 C639 0.929 . S
H648 C656 0.929 . S
H649 C658 0.930 . S
H650 C660 0.930 . S
H651 C663 0.929 . S
H652 C666 0.930 . S
H653 C668 0.960 . S
H654 C668 0.960 . S
H655 C668 0.960 . S
C656 H648 0.929 . S
C656 C657 1.377 . S
C656 C658 1.384 . S
C657 C656 1.377 . S
C657 C663 1.390 . S
C658 H649 0.930 . S
C658 C656 1.384 . S
C658 C659 1.372 . S
C659 C658 1.372 . S
C659 C660 1.400 . S
C659 C664 1.490 . S
C660 H650 0.930 . S
C660 C659 1.400 . S
C660 C663 1.386 . S
H661 C677 0.930 . S
H662 C678 0.931 . S
C663 H651 0.929 . S
C663 C657 1.390 . S
C663 C660 1.386 . S
C664 C659 1.490 . S
C664 C666 1.395 . S
C664 C667 1.403 . S
H665 C671 0.930 . S
C666 H652 0.930 . S
C666 C664 1.395 . S
C666 C669 1.403 . S
C667 C664 1.403 . S
C667 C668 1.524 . S
C667 C671 1.400 . S
C668 H653 0.960 . S
C668 H654 0.960 . S
C668 H655 0.960 . S
C668 C667 1.524 . S
C669 C666 1.403 . S
C669 C670 1.392 . S
C669 C673 1.495 . S
C670 C669 1.392 . S
C670 C671 1.385 . S
C670 C672 1.478 . S
C671 H665 0.930 . S
C671 C667 1.400 . S
C671 C670 1.385 . S
C672 C670 1.478 . S
C672 C674 1.381 . S
C672 C678 1.383 . S
C673 C669 1.495 . S
C673 H679 0.959 . S
C673 H680 0.961 . S
C673 H681 0.960 . S
C674 C672 1.381 . S
C674 C675 1.394 . S
C674 H682 0.930 . S
C675 C674 1.394 . S
C675 C676 1.383 . S
C675 H683 0.929 . S
C676 C675 1.383 . S
C676 C677 1.377 . S
C677 H661 0.930 . S
C677 C676 1.377 . S
C677 C678 1.379 . S
C678 H662 0.931 . S
C678 C672 1.383 . S
C678 C677 1.379 . S
H679 C673 0.959 . S
H680 C673 0.961 . S
H681 C673 0.960 . S
H682 C674 0.930 . S
H683 C675 0.929 . S
H684 C692 0.929 . S
H685 C694 0.930 . S
H686 C696 0.930 . S
H687 C699 0.929 . S
H688 C702 0.930 . S
H689 C704 0.960 . S
H690 C704 0.960 . S
H691 C704 0.960 . S
C692 H684 0.929 . S
C692 C693 1.377 . S
C692 C694 1.384 . S
C693 C692 1.377 . S
C693 C699 1.390 . S
C694 H685 0.930 . S
C694 C692 1.384 . S
C694 C695 1.372 . S
C695 C694 1.372 . S
C695 C696 1.400 . S
C695 C700 1.490 . S
C696 H686 0.930 . S
C696 C695 1.400 . S
C696 C699 1.386 . S
H697 C713 0.930 . S
H698 C714 0.931 . S
C699 H687 0.929 . S
C699 C693 1.390 . S
C699 C696 1.386 . S
C700 C695 1.490 . S
C700 C702 1.395 . S
C700 C703 1.403 . S
H701 C707 0.930 . S
C702 H688 0.930 . S
C702 C700 1.395 . S
C702 C705 1.403 . S
C703 C700 1.403 . S
C703 C704 1.524 . S
C703 C707 1.400 . S
C704 H689 0.960 . S
C704 H690 0.960 . S
C704 H691 0.960 . S
C704 C703 1.524 . S
C705 C702 1.403 . S
C705 C706 1.392 . S
C705 C709 1.495 . S
C706 C705 1.392 . S
C706 C707 1.385 . S
C706 C708 1.478 . S
C707 H701 0.930 . S
C707 C703 1.400 . S
C707 C706 1.385 . S
C708 C706 1.478 . S
C708 C710 1.381 . S
C708 C714 1.383 . S
C709 C705 1.495 . S
C709 H715 0.959 . S
C709 H716 0.961 . S
C709 H717 0.960 . S
C710 C708 1.381 . S
C710 C711 1.394 . S
C710 H718 0.930 . S
C711 C710 1.394 . S
C711 C712 1.383 . S
C711 H719 0.929 . S
C712 C711 1.383 . S
C712 C713 1.377 . S
C713 H697 0.930 . S
C713 C712 1.377 . S
C713 C714 1.379 . S
C714 H698 0.931 . S
C714 C708 1.383 . S
C714 C713 1.379 . S
H715 C709 0.959 . S
H716 C709 0.961 . S
H717 C709 0.960 . S
H718 C710 0.930 . S
H719 C711 0.929 . S
H720 C728 0.929 . S
H721 C730 0.930 . S
H722 C732 0.930 . S
H723 C735 0.929 . S
H724 C738 0.930 . S
H725 C740 0.960 . S
H726 C740 0.960 . S
H727 C740 0.960 . S
C728 H720 0.929 . S
C728 C729 1.377 . S
C728 C730 1.384 . S
C729 C728 1.377 . S
C729 C735 1.390 . S
C730 H721 0.930 . S
C730 C728 1.384 . S
C730 C731 1.372 . S
C731 C730 1.372 . S
C731 C732 1.400 . S
C731 C736 1.490 . S
C732 H722 0.930 . S
C732 C731 1.400 . S
C732 C735 1.386 . S
H733 C749 0.930 . S
H734 C750 0.931 . S
C735 H723 0.929 . S
C735 C729 1.390 . S
C735 C732 1.386 . S
C736 C731 1.490 . S
C736 C738 1.395 . S
C736 C739 1.403 . S
H737 C743 0.930 . S
C738 H724 0.930 . S
C738 C736 1.395 . S
C738 C741 1.403 . S
C739 C736 1.403 . S
C739 C740 1.524 . S
C739 C743 1.400 . S
C740 H725 0.960 . S
C740 H726 0.960 . S
C740 H727 0.960 . S
C740 C739 1.524 . S
C741 C738 1.403 . S
C741 C742 1.392 . S
C741 C745 1.495 . S
C742 C741 1.392 . S
C742 C743 1.385 . S
C742 C744 1.478 . S
C743 H737 0.930 . S
C743 C739 1.400 . S
C743 C742 1.385 . S
C744 C742 1.478 . S
C744 C746 1.381 . S
C744 C750 1.383 . S
C745 C741 1.495 . S
C745 H751 0.959 . S
C745 H752 0.961 . S
C745 H753 0.960 . S
C746 C744 1.381 . S
C746 C747 1.394 . S
C746 H754 0.930 . S
C747 C746 1.394 . S
C747 C748 1.383 . S
C747 H755 0.929 . S
C748 C747 1.383 . S
C748 C749 1.377 . S
C749 H733 0.930 . S
C749 C748 1.377 . S
C749 C750 1.379 . S
C750 H734 0.931 . S
C750 C744 1.383 . S
C750 C749 1.379 . S
H751 C745 0.959 . S
H752 C745 0.961 . S
H753 C745 0.960 . S
H754 C746 0.930 . S
H755 C747 0.929 . S
H756 C764 0.929 . S
H757 C766 0.930 . S
H758 C768 0.930 . S
H759 C771 0.929 . S
H760 C774 0.930 . S
H761 C776 0.960 . S
H762 C776 0.960 . S
H763 C776 0.960 . S
C764 H756 0.929 . S
C764 C765 1.377 . S
C764 C766 1.384 . S
C765 C764 1.377 . S
C765 C771 1.390 . S
C766 H757 0.930 . S
C766 C764 1.384 . S
C766 C767 1.372 . S
C767 C766 1.372 . S
C767 C768 1.400 . S
C767 C772 1.490 . S
C768 H758 0.930 . S
C768 C767 1.400 . S
C768 C771 1.386 . S
H769 C785 0.930 . S
H770 C786 0.931 . S
C771 H759 0.929 . S
C771 C765 1.390 . S
C771 C768 1.386 . S
C772 C767 1.490 . S
C772 C774 1.395 . S
C772 C775 1.403 . S
H773 C779 0.930 . S
C774 H760 0.930 . S
C774 C772 1.395 . S
C774 C777 1.403 . S
C775 C772 1.403 . S
C775 C776 1.524 . S
C775 C779 1.400 . S
C776 H761 0.960 . S
C776 H762 0.960 . S
C776 H763 0.960 . S
C776 C775 1.524 . S
C777 C774 1.403 . S
C777 C778 1.392 . S
C777 C781 1.495 . S
C778 C777 1.392 . S
C778 C779 1.385 . S
C778 C780 1.478 . S
C779 H773 0.930 . S
C779 C775 1.400 . S
C779 C778 1.385 . S
C780 C778 1.478 . S
C780 C782 1.381 . S
C780 C786 1.383 . S
C781 C777 1.495 . S
C781 H787 0.959 . S
C781 H788 0.961 . S
C781 H789 0.960 . S
C782 C780 1.381 . S
C782 C783 1.394 . S
C782 H790 0.930 . S
C783 C782 1.394 . S
C783 C784 1.383 . S
C783 H791 0.929 . S
C784 C783 1.383 . S
C784 C785 1.377 . S
C785 H769 0.930 . S
C785 C784 1.377 . S
C785 C786 1.379 . S
C786 H770 0.931 . S
C786 C780 1.383 . S
C786 C785 1.379 . S
H787 C781 0.959 . S
H788 C781 0.961 . S
H789 C781 0.960 . S
H790 C782 0.930 . S
H791 C783 0.929 . S
H792 C800 0.929 . S
H793 C802 0.930 . S
H794 C804 0.930 . S
H795 C807 0.929 . S
H796 C810 0.930 . S
H797 C812 0.960 . S
H798 C812 0.960 . S
H799 C812 0.960 . S
C800 H792 0.929 . S
C800 C801 1.377 . S
C800 C802 1.384 . S
C801 C800 1.377 . S
C801 C807 1.390 . S
C802 H793 0.930 . S
C802 C800 1.384 . S
C802 C803 1.372 . S
C803 C802 1.372 . S
C803 C804 1.400 . S
C803 C808 1.490 . S
C804 H794 0.930 . S
C804 C803 1.400 . S
C804 C807 1.386 . S
H805 C821 0.930 . S
H806 C822 0.931 . S
C807 H795 0.929 . S
C807 C801 1.390 . S
C807 C804 1.386 . S
C808 C803 1.490 . S
C808 C810 1.395 . S
C808 C811 1.403 . S
H809 C815 0.930 . S
C810 H796 0.930 . S
C810 C808 1.395 . S
C810 C813 1.403 . S
C811 C808 1.403 . S
C811 C812 1.524 . S
C811 C815 1.400 . S
C812 H797 0.960 . S
C812 H798 0.960 . S
C812 H799 0.960 . S
C812 C811 1.524 . S
C813 C810 1.403 . S
C813 C814 1.392 . S
C813 C817 1.495 . S
C814 C813 1.392 . S
C814 C815 1.385 . S
C814 C816 1.478 . S
C815 H809 0.930 . S
C815 C811 1.400 . S
C815 C814 1.385 . S
C816 C814 1.478 . S
C816 C818 1.381 . S
C816 C822 1.383 . S
C817 C813 1.495 . S
C817 H823 0.959 . S
C817 H824 0.961 . S
C817 H825 0.960 . S
C818 C816 1.381 . S
C818 C819 1.394 . S
C818 H826 0.930 . S
C819 C818 1.394 . S
C819 C820 1.383 . S
C819 H827 0.929 . S
C820 C819 1.383 . S
C820 C821 1.377 . S
C821 H805 0.930 . S
C821 C820 1.377 . S
C821 C822 1.379 . S
C822 H806 0.931 . S
C822 C816 1.383 . S
C822 C821 1.379 . S
H823 C817 0.959 . S
H824 C817 0.961 . S
H825 C817 0.960 . S
H826 C818 0.930 . S
H827 C819 0.929 . S
H828 C836 0.929 . S
H829 C838 0.930 . S
H830 C840 0.930 . S
H831 C843 0.929 . S
H832 C846 0.930 . S
H833 C848 0.960 . S
H834 C848 0.960 . S
H835 C848 0.960 . S
C836 H828 0.929 . S
C836 C837 1.377 . S
C836 C838 1.384 . S
C837 C836 1.377 . S
C837 C843 1.390 . S
C838 H829 0.930 . S
C838 C836 1.384 . S
C838 C839 1.372 . S
C839 C838 1.372 . S
C839 C840 1.400 . S
C839 C844 1.490 . S
C840 H830 0.930 . S
C840 C839 1.400 . S
C840 C843 1.386 . S
H841 C857 0.930 . S
H842 C858 0.931 . S
C843 H831 0.929 . S
C843 C837 1.390 . S
C843 C840 1.386 . S
C844 C839 1.490 . S
C844 C846 1.395 . S
C844 C847 1.403 . S
H845 C851 0.930 . S
C846 H832 0.930 . S
C846 C844 1.395 . S
C846 C849 1.403 . S
C847 C844 1.403 . S
C847 C848 1.524 . S
C847 C851 1.400 . S
C848 H833 0.960 . S
C848 H834 0.960 . S
C848 H835 0.960 . S
C848 C847 1.524 . S
C849 C846 1.403 . S
C849 C850 1.392 . S
C849 C853 1.495 . S
C850 C849 1.392 . S
C850 C851 1.385 . S
C850 C852 1.478 . S
C851 H845 0.930 . S
C851 C847 1.400 . S
C851 C850 1.385 . S
C852 C850 1.478 . S
C852 C854 1.381 . S
C852 C858 1.383 . S
C853 C849 1.495 . S
C853 H859 0.959 . S
C853 H860 0.961 . S
C853 H861 0.960 . S
C854 C852 1.381 . S
C854 C855 1.394 . S
C854 H862 0.930 . S
C855 C854 1.394 . S
C855 C856 1.383 . S
C855 H863 0.929 . S
C856 C855 1.383 . S
C856 C857 1.377 . S
C857 H841 0.930 . S
C857 C856 1.377 . S
C857 C858 1.379 . S
C858 H842 0.931 . S
C858 C852 1.383 . S
C858 C857 1.379 . S
H859 C853 0.959 . S
H860 C853 0.961 . S
H861 C853 0.960 . S
H862 C854 0.930 . S
H863 C855 0.929 . S
H864 C872 0.929 . S
H865 C874 0.930 . S
H866 C876 0.930 . S
H867 C879 0.929 . S
H868 C882 0.930 . S
H869 C884 0.960 . S
H870 C884 0.960 . S
H871 C884 0.960 . S
C872 H864 0.929 . S
C872 C873 1.377 . S
C872 C874 1.384 . S
C873 C872 1.377 . S
C873 C879 1.390 . S
C874 H865 0.930 . S
C874 C872 1.384 . S
C874 C875 1.372 . S
C875 C874 1.372 . S
C875 C876 1.400 . S
C875 C880 1.490 . S
C876 H866 0.930 . S
C876 C875 1.400 . S
C876 C879 1.386 . S
H877 C893 0.930 . S
H878 C894 0.931 . S
C879 H867 0.929 . S
C879 C873 1.390 . S
C879 C876 1.386 . S
C880 C875 1.490 . S
C880 C882 1.395 . S
C880 C883 1.403 . S
H881 C887 0.930 . S
C882 H868 0.930 . S
C882 C880 1.395 . S
C882 C885 1.403 . S
C883 C880 1.403 . S
C883 C884 1.524 . S
C883 C887 1.400 . S
C884 H869 0.960 . S
C884 H870 0.960 . S
C884 H871 0.960 . S
C884 C883 1.524 . S
C885 C882 1.403 . S
C885 C886 1.392 . S
C885 C889 1.495 . S
C886 C885 1.392 . S
C886 C887 1.385 . S
C886 C888 1.478 . S
C887 H881 0.930 . S
C887 C883 1.400 . S
C887 C886 1.385 . S
C888 C886 1.478 . S
C888 C890 1.381 . S
C888 C894 1.383 . S
C889 C885 1.495 . S
C889 H895 0.959 . S
C889 H896 0.961 . S
C889 H897 0.960 . S
C890 C888 1.381 . S
C890 C891 1.394 . S
C890 H898 0.930 . S
C891 C890 1.394 . S
C891 C892 1.383 . S
C891 H899 0.929 . S
C892 C891 1.383 . S
C892 C893 1.377 . S
C893 H877 0.930 . S
C893 C892 1.377 . S
C893 C894 1.379 . S
C894 H878 0.931 . S
C894 C888 1.383 . S
C894 C893 1.379 . S
H895 C889 0.959 . S
H896 C889 0.961 . S
H897 C889 0.960 . S
H898 C890 0.930 . S
H899 C891 0.929 . S
H900 C908 0.929 . S
H901 C910 0.930 . S
H902 C912 0.930 . S
H903 C915 0.929 . S
H904 C918 0.930 . S
H905 C920 0.960 . S
H906 C920 0.960 . S
H907 C920 0.960 . S
C908 H900 0.929 . S
C908 C909 1.377 . S
C908 C910 1.384 . S
C909 C908 1.377 . S
C909 C915 1.390 . S
C910 H901 0.930 . S
C910 C908 1.384 . S
C910 C911 1.372 . S
C911 C910 1.372 . S
C911 C912 1.400 . S
C911 C916 1.490 . S
C912 H902 0.930 . S
C912 C911 1.400 . S
C912 C915 1.386 . S
H913 C929 0.930 . S
H914 C930 0.931 . S
C915 H903 0.929 . S
C915 C909 1.390 . S
C915 C912 1.386 . S
C916 C911 1.490 . S
C916 C918 1.395 . S
C916 C919 1.403 . S
H917 C923 0.930 . S
C918 H904 0.930 . S
C918 C916 1.395 . S
C918 C921 1.403 . S
C919 C916 1.403 . S
C919 C920 1.524 . S
C919 C923 1.400 . S
C920 H905 0.960 . S
C920 H906 0.960 . S
C920 H907 0.960 . S
C920 C919 1.524 . S
C921 C918 1.403 . S
C921 C922 1.392 . S
C921 C925 1.495 . S
C922 C921 1.392 . S
C922 C923 1.385 . S
C922 C924 1.478 . S
C923 H917 0.930 . S
C923 C919 1.400 . S
C923 C922 1.385 . S
C924 C922 1.478 . S
C924 C926 1.381 . S
C924 C930 1.383 . S
C925 C921 1.495 . S
C925 H931 0.959 . S
C925 H932 0.961 . S
C925 H933 0.960 . S
C926 C924 1.381 . S
C926 C927 1.394 . S
C926 H934 0.930 . S
C927 C926 1.394 . S
C927 C928 1.383 . S
C927 H935 0.929 . S
C928 C927 1.383 . S
C928 C929 1.377 . S
C929 H913 0.930 . S
C929 C928 1.377 . S
C929 C930 1.379 . S
C930 H914 0.931 . S
C930 C924 1.383 . S
C930 C929 1.379 . S
H931 C925 0.959 . S
H932 C925 0.961 . S
H933 C925 0.960 . S
H934 C926 0.930 . S
H935 C927 0.929 . S
H936 C944 0.929 . S
H937 C946 0.930 . S
H938 C948 0.930 . S
H939 C951 0.929 . S
H940 C954 0.930 . S
H941 C956 0.960 . S
H942 C956 0.960 . S
H943 C956 0.960 . S
C944 H936 0.929 . S
C944 C945 1.377 . S
C944 C946 1.384 . S
C945 C944 1.377 . S
C945 C951 1.390 . S
C946 H937 0.930 . S
C946 C944 1.384 . S
C946 C947 1.372 . S
C947 C946 1.372 . S
C947 C948 1.400 . S
C947 C952 1.490 . S
C948 H938 0.930 . S
C948 C947 1.400 . S
C948 C951 1.386 . S
H949 C965 0.930 . S
H950 C966 0.931 . S
C951 H939 0.929 . S
C951 C945 1.390 . S
C951 C948 1.386 . S
C952 C947 1.490 . S
C952 C954 1.395 . S
C952 C955 1.403 . S
H953 C959 0.930 . S
C954 H940 0.930 . S
C954 C952 1.395 . S
C954 C957 1.403 . S
C955 C952 1.403 . S
C955 C956 1.524 . S
C955 C959 1.400 . S
C956 H941 0.960 . S
C956 H942 0.960 . S
C956 H943 0.960 . S
C956 C955 1.524 . S
C957 C954 1.403 . S
C957 C958 1.392 . S
C957 C961 1.495 . S
C958 C957 1.392 . S
C958 C959 1.385 . S
C958 C960 1.478 . S
C959 H953 0.930 . S
C959 C955 1.400 . S
C959 C958 1.385 . S
C960 C958 1.478 . S
C960 C962 1.381 . S
C960 C966 1.383 . S
C961 C957 1.495 . S
C961 H967 0.959 . S
C961 H968 0.961 . S
C961 H969 0.960 . S
C962 C960 1.381 . S
C962 C963 1.394 . S
C962 H970 0.930 . S
C963 C962 1.394 . S
C963 C964 1.383 . S
C963 H971 0.929 . S
C964 C963 1.383 . S
C964 C965 1.377 . S
C965 H949 0.930 . S
C965 C964 1.377 . S
C965 C966 1.379 . S
C966 H950 0.931 . S
C966 C960 1.383 . S
C966 C965 1.379 . S
H967 C961 0.959 . S
H968 C961 0.961 . S
H969 C961 0.960 . S
H970 C962 0.930 . S
H971 C963 0.929 . S
H972 C980 0.929 . S
H973 C982 0.930 . S
H974 C984 0.930 . S
H975 C987 0.929 . S
H976 C990 0.930 . S
H977 C992 0.960 . S
H978 C992 0.960 . S
H979 C992 0.960 . S
C980 H972 0.929 . S
C980 C981 1.377 . S
C980 C982 1.384 . S
C981 C980 1.377 . S
C981 C987 1.390 . S
C982 H973 0.930 . S
C982 C980 1.384 . S
C982 C983 1.372 . S
C983 C982 1.372 . S
C983 C984 1.400 . S
C983 C988 1.490 . S
C984 H974 0.930 . S
C984 C983 1.400 . S
C984 C987 1.386 . S
H985 C1001 0.930 . S
H986 C1002 0.931 . S
C987 H975 0.929 . S
C987 C981 1.390 . S
C987 C984 1.386 . S
C988 C983 1.490 . S
C988 C990 1.395 . S
C988 C991 1.403 . S
H989 C995 0.930 . S
C990 H976 0.930 . S
C990 C988 1.395 . S
C990 C993 1.403 . S
C991 C988 1.403 . S
C991 C992 1.524 . S
C991 C995 1.400 . S
C992 H977 0.960 . S
C992 H978 0.960 . S
C992 H979 0.960 . S
C992 C991 1.524 . S
C993 C990 1.403 . S
C993 C994 1.392 . S
C993 C997 1.495 . S
C994 C993 1.392 . S
C994 C995 1.385 . S
C994 C996 1.478 . S
C995 H989 0.930 . S
C995 C991 1.400 . S
C995 C994 1.385 . S
C996 C994 1.478 . S
C996 C998 1.381 . S
C996 C1002 1.383 . S
C997 C993 1.495 . S
C997 H1003 0.959 . S
C997 H1004 0.961 . S
C997 H1005 0.960 . S
C998 C996 1.381 . S
C998 C999 1.394 . S
C998 H1006 0.930 . S
C999 C998 1.394 . S
C999 C1000 1.383 . S
C999 H1007 0.929 . S
C1000 C999 1.383 . S
C1000 C1001 1.377 . S
C1001 H985 0.930 . S
C1001 C1000 1.377 . S
C1001 C1002 1.379 . S
C1002 H986 0.931 . S
C1002 C996 1.383 . S
C1002 C1001 1.379 . S
H1003 C997 0.959 . S
H1004 C997 0.961 . S
H1005 C997 0.960 . S
H1006 C998 0.930 . S
H1007 C999 0.929 . S
H1008 C1016 0.929 . S
H1009 C1018 0.930 . S
H1010 C1020 0.930 . S
H1011 C1023 0.929 . S
H1012 C1026 0.930 . S
H1013 C1028 0.960 . S
H1014 C1028 0.960 . S
H1015 C1028 0.960 . S
C1016 H1008 0.929 . S
C1016 C1017 1.377 . S
C1016 C1018 1.384 . S
C1017 C1016 1.377 . S
C1017 C1023 1.390 . S
C1018 H1009 0.930 . S
C1018 C1016 1.384 . S
C1018 C1019 1.372 . S
C1019 C1018 1.372 . S
C1019 C1020 1.400 . S
C1019 C1024 1.490 . S
C1020 H1010 0.930 . S
C1020 C1019 1.400 . S
C1020 C1023 1.386 . S
H1021 C1037 0.930 . S
H1022 C1038 0.931 . S
C1023 H1011 0.929 . S
C1023 C1017 1.390 . S
C1023 C1020 1.386 . S
C1024 C1019 1.490 . S
C1024 C1026 1.395 . S
C1024 C1027 1.403 . S
H1025 C1031 0.930 . S
C1026 H1012 0.930 . S
C1026 C1024 1.395 . S
C1026 C1029 1.403 . S
C1027 C1024 1.403 . S
C1027 C1028 1.524 . S
C1027 C1031 1.400 . S
C1028 H1013 0.960 . S
C1028 H1014 0.960 . S
C1028 H1015 0.960 . S
C1028 C1027 1.524 . S
C1029 C1026 1.403 . S
C1029 C1030 1.392 . S
C1029 C1033 1.495 . S
C1030 C1029 1.392 . S
C1030 C1031 1.385 . S
C1030 C1032 1.478 . S
C1031 H1025 0.930 . S
C1031 C1027 1.400 . S
C1031 C1030 1.385 . S
C1032 C1030 1.478 . S
C1032 C1034 1.381 . S
C1032 C1038 1.383 . S
C1033 C1029 1.495 . S
C1033 H1039 0.959 . S
C1033 H1040 0.961 . S
C1033 H1041 0.960 . S
C1034 C1032 1.381 . S
C1034 C1035 1.394 . S
C1034 H1042 0.930 . S
C1035 C1034 1.394 . S
C1035 C1036 1.383 . S
C1035 H1043 0.929 . S
C1036 C1035 1.383 . S
C1036 C1037 1.377 . S
C1037 H1021 0.930 . S
C1037 C1036 1.377 . S
C1037 C1038 1.379 . S
C1038 H1022 0.931 . S
C1038 C1032 1.383 . S
C1038 C1037 1.379 . S
H1039 C1033 0.959 . S
H1040 C1033 0.961 . S
H1041 C1033 0.960 . S
H1042 C1034 0.930 . S
H1043 C1035 0.929 . S
H1044 C1052 0.929 . S
H1045 C1054 0.930 . S
H1046 C1056 0.930 . S
H1047 C1059 0.929 . S
H1048 C1062 0.930 . S
H1049 C1064 0.960 . S
H1050 C1064 0.960 . S
H1051 C1064 0.960 . S
C1052 H1044 0.929 . S
C1052 C1053 1.377 . S
C1052 C1054 1.384 . S
C1053 C1052 1.377 . S
C1053 C1059 1.390 1_554 S
C1054 H1045 0.930 . S
C1054 C1052 1.384 . S
C1054 C1055 1.372 . S
C1055 C1054 1.372 . S
C1055 C1056 1.400 1_554 S
C1055 C1060 1.492 . S
C1056 H1046 0.930 . S
C1056 C1055 1.400 1_556 S
C1056 C1059 1.386 . S
H1057 C1073 0.930 . S
H1058 C1074 0.931 . S
C1059 H1047 0.929 . S
C1059 C1053 1.390 1_556 S
C1059 C1056 1.386 . S
C1060 C1055 1.492 . S
C1060 C1062 1.365 1_554 S
C1060 C1063 1.432 . S
H1061 C1067 0.930 . S
C1062 H1048 0.930 . S
C1062 C1060 1.365 1_556 S
C1062 C1065 1.403 . S
C1063 C1060 1.432 . S
C1063 C1064 1.524 . S
C1063 C1067 1.400 . S
C1064 H1049 0.960 . S
C1064 H1050 0.960 . S
C1064 H1051 0.960 . S
C1064 C1063 1.524 . S
C1065 C1062 1.403 . S
C1065 C1066 1.392 . S
C1065 C1069 1.495 . S
C1066 C1065 1.392 . S
C1066 C1067 1.385 1_556 S
C1066 C1068 1.478 . S
C1067 H1061 0.930 . S
C1067 C1063 1.400 . S
C1067 C1066 1.385 1_554 S
C1068 C1066 1.478 . S
C1068 C1070 1.381 1_556 S
C1068 C1074 1.383 . S
C1069 C1065 1.495 . S
C1069 H1075 0.959 . S
C1069 H1076 0.961 . S
C1069 H1077 0.960 . S
C1070 C1068 1.381 1_554 S
C1070 C1071 1.394 . S
C1070 H1078 0.930 . S
C1071 C1070 1.394 . S
C1071 C1072 1.373 1_554 S
C1071 H1079 0.929 . S
C1072 C1071 1.373 1_556 S
C1072 C1073 1.388 . S
C1073 H1057 0.930 . S
C1073 C1072 1.388 . S
C1073 C1074 1.379 . S
C1074 H1058 0.931 . S
C1074 C1068 1.383 . S
C1074 C1073 1.379 . S
H1075 C1069 0.959 . S
H1076 C1069 0.961 . S
H1077 C1069 0.960 . S
H1078 C1070 0.930 . S
H1079 C1071 0.929 . S
H1080 C1088 0.929 . S
H1081 C1090 0.930 . S
H1082 C1092 0.930 . S
H1083 C1095 0.929 . S
H1084 C1098 0.930 . S
H1085 C1100 0.960 . S
H1086 C1100 0.960 . S
H1087 C1100 0.960 . S
C1088 H1080 0.929 . S
C1088 C1089 1.360 1_556 S
C1088 C1090 1.384 . S
C1089 C1088 1.360 1_554 S
C1089 C1095 1.407 . S
C1090 H1081 0.930 . S
C1090 C1088 1.384 . S
C1090 C1091 1.372 1_556 S
C1091 C1090 1.372 1_554 S
C1091 C1092 1.400 . S
C1091 C1096 1.490 . S
C1092 H1082 0.930 . S
C1092 C1091 1.400 . S
C1092 C1095 1.386 . S
H1093 C1109 0.930 . S
H1094 C1110 0.931 . S
C1095 H1083 0.929 . S
C1095 C1089 1.407 . S
C1095 C1092 1.386 . S
C1096 C1091 1.490 . S
C1096 C1098 1.403 . S
C1096 C1099 1.395 1_554 S
H1097 C1103 0.930 . S
C1098 H1084 0.930 . S
C1098 C1096 1.403 . S
C1098 C1101 1.403 . S
C1099 C1096 1.395 1_556 S
C1099 C1100 1.524 . S
C1099 C1103 1.400 . S
C1100 H1085 0.960 . S
C1100 H1086 0.960 . S
C1100 H1087 0.960 . S
C1100 C1099 1.524 . S
C1101 C1098 1.403 . S
C1101 C1102 1.392 . S
C1101 C1105 1.495 . S
C1102 C1101 1.392 . S
C1102 C1103 1.385 1_554 S
C1102 C1104 1.478 . S
C1103 H1097 0.930 . S
C1103 C1099 1.400 . S
C1103 C1102 1.385 1_556 S
C1104 C1102 1.478 . S
C1104 C1106 1.381 1_554 S
C1104 C1110 1.383 . S
C1105 C1101 1.495 . S
C1105 H1111 0.959 . S
C1105 H1112 0.961 . S
C1105 H1113 0.960 . S
C1106 C1104 1.381 1_556 S
C1106 C1107 1.394 . S
C1106 H1114 0.930 . S
C1107 C1106 1.394 . S
C1107 C1108 1.383 1_556 S
C1107 H1115 0.929 . S
C1108 C1107 1.383 1_554 S
C1108 C1109 1.377 . S
C1109 H1093 0.930 . S
C1109 C1108 1.377 . S
C1109 C1110 1.379 . S
C1110 H1094 0.931 . S
C1110 C1104 1.383 . S
C1110 C1109 1.379 . S
H1111 C1105 0.959 . S
H1112 C1105 0.961 . S
H1113 C1105 0.960 . S
H1114 C1106 0.930 . S
H1115 C1107 0.929 . S
H1116 C1124 0.929 . S
H1117 C1126 0.930 . S
H1118 C1128 0.930 . S
H1119 C1131 0.929 . S
H1120 C1134 0.930 . S
H1121 C1136 0.960 . S
H1122 C1136 0.960 . S
H1123 C1136 0.960 . S
C1124 H1116 0.929 . S
C1124 C1125 1.390 . S
C1124 C1126 1.384 . S
C1125 C1124 1.390 . S
C1125 C1131 1.377 1_554 S
C1126 H1117 0.930 . S
C1126 C1124 1.384 . S
C1126 C1127 1.372 . S
C1127 C1126 1.372 . S
C1127 C1128 1.400 1_554 S
C1127 C1132 1.490 . S
C1128 H1118 0.930 . S
C1128 C1127 1.400 1_556 S
C1128 C1131 1.386 . S
H1129 C1145 0.930 . S
H1130 C1146 0.931 . S
C1131 H1119 0.929 . S
C1131 C1125 1.377 1_556 S
C1131 C1128 1.386 . S
C1132 C1127 1.490 . S
C1132 C1134 1.395 . S
C1132 C1135 1.403 1_554 S
H1133 C1139 0.930 . S
C1134 H1120 0.930 . S
C1134 C1132 1.395 . S
C1134 C1137 1.403 . S
C1135 C1132 1.403 1_556 S
C1135 C1136 1.524 . S
C1135 C1139 1.400 . S
C1136 H1121 0.960 . S
C1136 H1122 0.960 . S
C1136 H1123 0.960 . S
C1136 C1135 1.524 . S
C1137 C1134 1.403 . S
C1137 C1138 1.392 . S
C1137 C1141 1.495 . S
C1138 C1137 1.392 . S
C1138 C1139 1.385 1_554 S
C1138 C1140 1.478 . S
C1139 H1133 0.930 . S
C1139 C1135 1.400 . S
C1139 C1138 1.385 1_556 S
C1140 C1138 1.478 . S
C1140 C1142 1.381 . S
C1140 C1146 1.383 1_554 S
C1141 C1137 1.495 . S
C1141 H1147 0.959 . S
C1141 H1148 0.961 . S
C1141 H1149 0.960 . S
C1142 C1140 1.381 . S
C1142 C1143 1.394 . S
C1142 H1150 0.930 . S
C1143 C1142 1.394 . S
C1143 C1144 1.383 . S
C1143 H1151 0.929 . S
C1144 C1143 1.383 . S
C1144 C1145 1.377 1_554 S
C1145 H1129 0.930 . S
C1145 C1144 1.377 1_556 S
C1145 C1146 1.379 . S
C1146 H1130 0.931 . S
C1146 C1140 1.383 1_556 S
C1146 C1145 1.379 . S
H1147 C1141 0.959 . S
H1148 C1141 0.961 . S
H1149 C1141 0.960 . S
H1150 C1142 0.930 . S
H1151 C1143 0.929 . S
H1152 C1160 0.929 . S
H1153 C1162 0.930 . S
H1154 C1164 0.930 . S
H1155 C1167 0.929 . S
H1156 C1170 0.930 . S
H1157 C1172 0.960 . S
H1158 C1172 0.960 . S
H1159 C1172 0.960 . S
C1160 H1152 0.929 . S
C1160 C1161 1.385 . S
C1160 C1162 1.384 . S
C1161 C1160 1.385 . S
C1161 C1167 1.382 1_554 S
C1162 H1153 0.930 . S
C1162 C1160 1.384 . S
C1162 C1163 1.372 . S
C1163 C1162 1.372 . S
C1163 C1164 1.400 1_554 S
C1163 C1168 1.490 . S
C1164 H1154 0.930 . S
C1164 C1163 1.400 1_556 S
C1164 C1167 1.386 . S
H1165 C1181 0.930 . S
H1166 C1182 0.931 . S
C1167 H1155 0.929 . S
C1167 C1161 1.382 1_556 S
C1167 C1164 1.386 . S
C1168 C1163 1.490 . S
C1168 C1170 1.395 . S
C1168 C1171 1.403 1_554 S
H1169 C1175 0.930 . S
C1170 H1156 0.930 . S
C1170 C1168 1.395 . S
C1170 C1173 1.403 . S
C1171 C1168 1.403 1_556 S
C1171 C1172 1.524 . S
C1171 C1175 1.400 . S
C1172 H1157 0.960 . S
C1172 H1158 0.960 . S
C1172 H1159 0.960 . S
C1172 C1171 1.524 . S
C1173 C1170 1.403 . S
C1173 C1174 1.392 . S
C1173 C1177 1.495 . S
C1174 C1173 1.392 . S
C1174 C1175 1.385 1_554 S
C1174 C1176 1.478 . S
C1175 H1169 0.930 . S
C1175 C1171 1.400 . S
C1175 C1174 1.385 1_556 S
C1176 C1174 1.478 . S
C1176 C1178 1.381 . S
C1176 C1182 1.383 1_554 S
C1177 C1173 1.495 . S
C1177 H1183 0.959 . S
C1177 H1184 0.961 . S
C1177 H1185 0.960 . S
C1178 C1176 1.381 . S
C1178 C1179 1.394 . S
C1178 H1186 0.930 . S
C1179 C1178 1.394 . S
C1179 C1180 1.383 . S
C1179 H1187 0.929 . S
C1180 C1179 1.383 . S
C1180 C1181 1.377 1_554 S
C1181 H1165 0.930 . S
C1181 C1180 1.377 1_556 S
C1181 C1182 1.379 . S
C1182 H1166 0.931 . S
C1182 C1176 1.383 1_556 S
C1182 C1181 1.379 . S
H1183 C1177 0.959 . S
H1184 C1177 0.961 . S
H1185 C1177 0.960 . S
H1186 C1178 0.930 . S
H1187 C1179 0.929 . S
H1188 C1196 0.929 . S
H1189 C1198 0.930 . S
H1190 C1200 0.930 . S
H1191 C1203 0.929 . S
H1192 C1206 0.930 . S
H1193 C1208 0.960 . S
H1194 C1208 0.960 . S
H1195 C1208 0.960 . S
C1196 H1188 0.929 . S
C1196 C1197 1.377 . S
C1196 C1198 1.384 . S
C1197 C1196 1.377 . S
C1197 C1203 1.390 1_455 S
C1198 H1189 0.930 . S
C1198 C1196 1.384 . S
C1198 C1199 1.372 . S
C1199 C1198 1.372 . S
C1199 C1200 1.400 1_455 S
C1199 C1204 1.490 . S
C1200 H1190 0.930 . S
C1200 C1199 1.400 1_655 S
C1200 C1203 1.386 . S
H1201 C1217 0.930 . S
H1202 C1218 0.931 . S
C1203 H1191 0.929 . S
C1203 C1197 1.390 1_655 S
C1203 C1200 1.386 . S
C1204 C1199 1.490 . S
C1204 C1206 1.395 . S
C1204 C1207 1.403 . S
H1205 C1211 0.930 . S
C1206 H1192 0.930 . S
C1206 C1204 1.395 . S
C1206 C1209 1.403 . S
C1207 C1204 1.403 . S
C1207 C1208 1.524 . S
C1207 C1211 1.400 . S
C1208 H1193 0.960 . S
C1208 H1194 0.960 . S
C1208 H1195 0.960 . S
C1208 C1207 1.524 . S
C1209 C1206 1.403 . S
C1209 C1210 1.392 . S
C1209 C1213 1.495 . S
C1210 C1209 1.392 . S
C1210 C1211 1.385 . S
C1210 C1212 1.478 . S
C1211 H1205 0.930 . S
C1211 C1207 1.400 . S
C1211 C1210 1.385 . S
C1212 C1210 1.478 . S
C1212 C1214 1.381 . S
C1212 C1218 1.383 1_455 S
C1213 C1209 1.495 . S
C1213 H1219 0.959 . S
C1213 H1220 0.961 . S
C1213 H1221 0.960 . S
C1214 C1212 1.381 . S
C1214 C1215 1.394 . S
C1214 H1222 0.930 . S
C1215 C1214 1.394 . S
C1215 C1216 1.383 . S
C1215 H1223 0.929 . S
C1216 C1215 1.383 . S
C1216 C1217 1.377 1_455 S
C1217 H1201 0.930 . S
C1217 C1216 1.377 1_655 S
C1217 C1218 1.379 . S
C1218 H1202 0.931 . S
C1218 C1212 1.383 1_655 S
C1218 C1217 1.379 . S
H1219 C1213 0.959 . S
H1220 C1213 0.961 . S
H1221 C1213 0.960 . S
H1222 C1214 0.930 . S
H1223 C1215 0.929 . S
H1224 C1232 0.929 . S
H1225 C1234 0.930 . S
H1226 C1236 0.930 . S
H1227 C1239 0.929 . S
H1228 C1242 0.930 . S
H1229 C1244 0.960 . S
H1230 C1244 0.960 . S
H1231 C1244 0.960 . S
C1232 H1224 0.929 . S
C1232 C1233 1.391 . S
C1232 C1234 1.384 . S
C1233 C1232 1.391 . S
C1233 C1239 1.377 1_545 S
C1234 H1225 0.930 . S
C1234 C1232 1.384 . S
C1234 C1235 1.372 . S
C1235 C1234 1.372 . S
C1235 C1236 1.400 1_545 S
C1235 C1240 1.490 . S
C1236 H1226 0.930 . S
C1236 C1235 1.400 1_565 S
C1236 C1239 1.386 . S
H1237 C1253 0.930 . S
H1238 C1254 0.931 . S
C1239 H1227 0.929 . S
C1239 C1233 1.377 1_565 S
C1239 C1236 1.386 . S
C1240 C1235 1.490 . S
C1240 C1242 1.395 1_545 S
C1240 C1243 1.403 . S
H1241 C1247 0.930 . S
C1242 H1228 0.930 . S
C1242 C1240 1.395 1_565 S
C1242 C1245 1.403 . S
C1243 C1240 1.403 . S
C1243 C1244 1.524 . S
C1243 C1247 1.400 . S
C1244 H1229 0.960 . S
C1244 H1230 0.960 . S
C1244 H1231 0.960 . S
C1244 C1243 1.524 . S
C1245 C1242 1.403 . S
C1245 C1246 1.395 . S
C1245 C1249 1.495 . S
C1246 C1245 1.395 . S
C1246 C1247 1.382 1_565 S
C1246 C1248 1.477 . S
C1247 H1241 0.930 . S
C1247 C1243 1.400 . S
C1247 C1246 1.382 1_545 S
C1248 C1246 1.477 . S
C1248 C1250 1.352 1_565 S
C1248 C1254 1.411 . S
C1249 C1245 1.495 . S
C1249 H1255 0.959 . S
C1249 H1256 0.961 . S
C1249 H1257 0.994 . S
C1250 C1248 1.352 1_545 S
C1250 C1251 1.394 . S
C1250 H1258 0.930 . S
C1251 C1250 1.394 . S
C1251 C1252 1.384 1_545 S
C1251 H1259 0.929 . S
C1252 C1251 1.384 1_565 S
C1252 C1253 1.376 . S
C1253 H1237 0.930 . S
C1253 C1252 1.376 . S
C1253 C1254 1.379 . S
C1254 H1238 0.931 . S
C1254 C1248 1.411 . S
C1254 C1253 1.379 . S
H1255 C1249 0.959 . S
H1256 C1249 0.961 . S
H1257 C1249 0.994 . S
H1258 C1250 0.930 . S
H1259 C1251 0.929 . S
H1260 C1268 0.929 . S
H1261 C1270 0.930 . S
H1262 C1272 0.930 1_655 S
H1263 C1275 0.929 1_655 S
H1264 C1278 0.930 . S
H1265 C1280 0.960 . S
H1266 C1280 0.960 . S
H1267 C1280 0.960 . S
C1268 H1260 0.929 . S
C1268 C1269 1.377 . S
C1268 C1270 1.384 . S
C1269 C1268 1.377 . S
C1269 C1275 1.390 . S
C1270 H1261 0.930 . S
C1270 C1268 1.384 . S
C1270 C1271 1.372 . S
C1271 C1270 1.372 . S
C1271 C1272 1.400 . S
C1271 C1276 1.490 . S
C1272 H1262 0.930 1_455 S
C1272 C1271 1.400 . S
C1272 C1275 1.386 . S
H1273 C1289 0.917 1_655 S
H1274 C1290 0.932 . S
C1275 H1263 0.929 1_455 S
C1275 C1269 1.390 . S
C1275 C1272 1.386 . S
C1276 C1271 1.490 . S
C1276 C1278 1.395 . S
C1276 C1279 1.403 . S
H1277 C1283 0.930 . S
C1278 H1264 0.930 . S
C1278 C1276 1.395 . S
C1278 C1281 1.403 . S
C1279 C1276 1.403 . S
C1279 C1280 1.524 . S
C1279 C1283 1.400 . S
C1280 H1265 0.960 . S
C1280 H1266 0.960 . S
C1280 H1267 0.960 . S
C1280 C1279 1.524 . S
C1281 C1278 1.403 . S
C1281 C1282 1.392 . S
C1281 C1285 1.495 1_455 S
C1282 C1281 1.392 . S
C1282 C1283 1.385 . S
C1282 C1284 1.478 . S
C1283 H1277 0.930 . S
C1283 C1279 1.400 . S
C1283 C1282 1.385 . S
C1284 C1282 1.478 . S
C1284 C1286 1.381 . S
C1284 C1290 1.382 1_455 S
C1285 C1281 1.495 1_655 S
C1285 H1291 0.959 . S
C1285 H1292 0.961 . S
C1285 H1293 0.960 1_655 S
C1286 C1284 1.381 . S
C1286 C1287 1.394 . S
C1286 H1294 0.930 . S
C1287 C1286 1.394 . S
C1287 C1288 1.383 . S
C1287 H1295 0.929 . S
C1288 C1287 1.383 . S
C1288 C1289 1.390 . S
C1289 H1273 0.917 1_455 S
C1289 C1288 1.390 . S
C1289 C1290 1.379 1_455 S
C1290 H1274 0.932 . S
C1290 C1284 1.382 1_655 S
C1290 C1289 1.379 1_655 S
H1291 C1285 0.959 . S
H1292 C1285 0.961 . S
H1293 C1285 0.960 1_455 S
H1294 C1286 0.930 . S
H1295 C1287 0.929 . S
H1296 C1304 0.929 . S
H1297 C1306 0.930 . S
H1298 C1308 0.930 . S
H1299 C1311 0.929 . S
H1300 C1314 0.930 . S
H1301 C1316 0.960 . S
H1302 C1316 0.960 . S
H1303 C1316 0.960 . S
C1304 H1296 0.929 . S
C1304 C1305 1.382 . S
C1304 C1306 1.384 . S
C1305 C1304 1.382 . S
C1305 C1311 1.385 1_565 S
C1306 H1297 0.930 . S
C1306 C1304 1.384 . S
C1306 C1307 1.397 . S
C1307 C1306 1.397 . S
C1307 C1308 1.375 1_565 S
C1307 C1312 1.490 . S
C1308 H1298 0.930 . S
C1308 C1307 1.375 1_545 S
C1308 C1311 1.386 . S
H1309 C1325 0.930 . S
H1310 C1326 0.931 . S
C1311 H1299 0.929 . S
C1311 C1305 1.385 1_545 S
C1311 C1308 1.386 . S
C1312 C1307 1.490 . S
C1312 C1314 1.389 1_565 S
C1312 C1315 1.409 . S
H1313 C1319 0.930 . S
C1314 H1300 0.930 . S
C1314 C1312 1.389 1_545 S
C1314 C1317 1.403 . S
C1315 C1312 1.409 . S
C1315 C1316 1.524 . S
C1315 C1319 1.400 . S
C1316 H1301 0.960 . S
C1316 H1302 0.960 . S
C1316 H1303 0.960 . S
C1316 C1315 1.524 . S
C1317 C1314 1.403 . S
C1317 C1318 1.405 . S
C1317 C1321 1.495 . S
C1318 C1317 1.405 . S
C1318 C1319 1.373 1_545 S
C1318 C1320 1.480 . S
C1319 H1313 0.930 . S
C1319 C1315 1.400 . S
C1319 C1318 1.373 1_565 S
C1320 C1318 1.480 . S
C1320 C1322 1.381 1_545 S
C1320 C1326 1.383 . S
C1321 C1317 1.495 . S
C1321 H1327 0.959 . S
C1321 H1328 0.961 . S
C1321 H1329 0.991 . S
C1322 C1320 1.381 1_565 S
C1322 C1323 1.394 . S
C1322 H1330 0.930 . S
C1323 C1322 1.394 . S
C1323 C1324 1.383 1_565 S
C1323 H1331 0.929 . S
C1324 C1323 1.383 1_545 S
C1324 C1325 1.377 . S
C1325 H1309 0.930 . S
C1325 C1324 1.377 . S
C1325 C1326 1.379 . S
C1326 H1310 0.931 . S
C1326 C1320 1.383 . S
C1326 C1325 1.379 . S
H1327 C1321 0.959 . S
H1328 C1321 0.961 . S
H1329 C1321 0.991 . S
H1330 C1322 0.930 . S
H1331 C1323 0.929 . S
H1332 C1340 0.929 . S
H1333 C1342 0.930 . S
H1334 C1344 0.930 . S
H1335 C1347 0.929 . S
H1336 C1350 0.930 1_655 S
H1337 C1352 0.960 . S
H1338 C1352 0.960 . S
H1339 C1352 0.960 . S
C1340 H1332 0.929 . S
C1340 C1341 1.377 . S
C1340 C1342 1.384 . S
C1341 C1340 1.377 . S
C1341 C1347 1.390 . S
C1342 H1333 0.930 . S
C1342 C1340 1.384 . S
C1342 C1343 1.372 . S
C1343 C1342 1.372 . S
C1343 C1344 1.400 . S
C1343 C1348 1.490 . S
C1344 H1334 0.930 . S
C1344 C1343 1.400 . S
C1344 C1347 1.386 . S
H1345 C1361 0.930 1_655 S
H1346 C1362 0.931 1_655 S
C1347 H1335 0.929 . S
C1347 C1341 1.390 . S
C1347 C1344 1.386 . S
C1348 C1343 1.490 . S
C1348 C1350 1.395 . S
C1348 C1351 1.403 . S
H1349 C1355 0.930 . S
C1350 H1336 0.930 1_455 S
C1350 C1348 1.395 . S
C1350 C1353 1.405 . S
C1351 C1348 1.403 . S
C1351 C1352 1.524 . S
C1351 C1355 1.400 . S
C1352 H1337 0.960 . S
C1352 H1338 0.960 . S
C1352 H1339 0.960 . S
C1352 C1351 1.524 . S
C1353 C1350 1.405 . S
C1353 C1354 1.403 . S
C1353 C1357 1.483 1_455 S
C1354 C1353 1.403 . S
C1354 C1355 1.385 . S
C1354 C1356 1.478 . S
C1355 H1349 0.930 . S
C1355 C1351 1.400 . S
C1355 C1354 1.385 . S
C1356 C1354 1.478 . S
C1356 C1358 1.381 . S
C1356 C1362 1.383 . S
C1357 C1353 1.483 1_655 S
C1357 H1363 0.959 . S
C1357 H1364 0.961 . S
C1357 H1365 0.960 . S
C1358 C1356 1.381 . S
C1358 C1359 1.394 . S
C1358 H1366 0.930 . S
C1359 C1358 1.394 . S
C1359 C1360 1.383 . S
C1359 H1367 0.929 . S
C1360 C1359 1.383 . S
C1360 C1361 1.377 . S
C1361 H1345 0.930 1_455 S
C1361 C1360 1.377 . S
C1361 C1362 1.379 . S
C1362 H1346 0.931 1_455 S
C1362 C1356 1.383 . S
C1362 C1361 1.379 . S
H1363 C1357 0.959 . S
H1364 C1357 0.961 . S
H1365 C1357 0.960 . S
H1366 C1358 0.930 . S
H1367 C1359 0.929 . S
H1368 C1376 0.929 . S
H1369 C1378 0.930 . S
H1370 C1380 0.930 . S
H1371 C1383 0.929 . S
H1372 C1386 0.930 . S
H1373 C1388 0.960 . S
H1374 C1388 0.960 . S
H1375 C1388 0.960 . S
C1376 H1368 0.929 . S
C1376 C1377 1.377 1_565 S
C1376 C1378 1.384 . S
C1377 C1376 1.377 1_545 S
C1377 C1383 1.390 . S
C1378 H1369 0.930 . S
C1378 C1376 1.384 . S
C1378 C1379 1.370 1_565 S
C1379 C1378 1.370 1_545 S
C1379 C1380 1.402 . S
C1379 C1384 1.489 1_545 S
C1380 H1370 0.930 . S
C1380 C1379 1.402 . S
C1380 C1383 1.386 . S
H1381 C1397 0.930 . S
H1382 C1398 0.931 . S
C1383 H1371 0.929 . S
C1383 C1377 1.390 . S
C1383 C1380 1.386 . S
C1384 C1379 1.489 1_565 S
C1384 C1386 1.422 . S
C1384 C1387 1.377 1_565 S
H1385 C1391 0.930 . S
C1386 H1372 0.930 . S
C1386 C1384 1.422 . S
C1386 C1389 1.403 . S
C1387 C1384 1.377 1_545 S
C1387 C1388 1.524 . S
C1387 C1391 1.400 . S
C1388 H1373 0.960 . S
C1388 H1374 0.960 . S
C1388 H1375 0.960 . S
C1388 C1387 1.524 . S
C1389 C1386 1.403 . S
C1389 C1390 1.392 . S
C1389 C1393 1.495 . S
C1390 C1389 1.392 . S
C1390 C1391 1.385 1_565 S
C1390 C1392 1.478 . S
C1391 H1385 0.930 . S
C1391 C1387 1.400 . S
C1391 C1390 1.385 1_545 S
C1392 C1390 1.478 . S
C1392 C1394 1.381 . S
C1392 C1398 1.383 1_565 S
C1393 C1389 1.495 . S
C1393 H1399 0.959 . S
C1393 H1400 0.961 . S
C1393 H1401 0.960 . S
C1394 C1392 1.381 . S
C1394 C1395 1.394 . S
C1394 H1402 0.930 . S
C1395 C1394 1.394 . S
C1395 C1396 1.412 . S
C1395 H1403 0.929 . S
C1396 C1395 1.412 . S
C1396 C1397 1.351 1_565 S
C1397 H1381 0.930 . S
C1397 C1396 1.351 1_545 S
C1397 C1398 1.379 . S
C1398 H1382 0.931 . S
C1398 C1392 1.383 1_545 S
C1398 C1397 1.379 . S
H1399 C1393 0.959 . S
H1400 C1393 0.961 . S
H1401 C1393 0.960 . S
H1402 C1394 0.930 . S
H1403 C1395 0.929 . S
H1404 C1412 0.929 . S
H1405 C1414 0.930 . S
H1406 C1416 0.930 . S
H1407 C1419 0.929 . S
H1408 C1422 0.930 . S
H1409 C1424 0.960 . S
H1410 C1424 0.960 . S
H1411 C1424 0.960 . S
C1412 H1404 0.929 . S
C1412 C1413 1.377 1_655 S
C1412 C1414 1.384 . S
C1413 C1412 1.377 1_455 S
C1413 C1419 1.390 . S
C1414 H1405 0.930 . S
C1414 C1412 1.384 . S
C1414 C1415 1.372 1_655 S
C1415 C1414 1.372 1_455 S
C1415 C1416 1.400 . S
C1415 C1420 1.490 . S
C1416 H1406 0.930 . S
C1416 C1415 1.400 . S
C1416 C1419 1.386 . S
H1417 C1433 0.930 . S
H1418 C1434 0.931 . S
C1419 H1407 0.929 . S
C1419 C1413 1.390 . S
C1419 C1416 1.386 . S
C1420 C1415 1.490 . S
C1420 C1422 1.395 . S
C1420 C1423 1.403 . S
H1421 C1427 0.930 . S
C1422 H1408 0.930 . S
C1422 C1420 1.395 . S
C1422 C1425 1.403 . S
C1423 C1420 1.403 . S
C1423 C1424 1.524 . S
C1423 C1427 1.400 . S
C1424 H1409 0.960 . S
C1424 H1410 0.960 . S
C1424 H1411 0.960 . S
C1424 C1423 1.524 . S
C1425 C1422 1.403 . S
C1425 C1426 1.392 . S
C1425 C1429 1.495 . S
C1426 C1425 1.392 . S
C1426 C1427 1.385 . S
C1426 C1428 1.478 . S
C1427 H1421 0.930 . S
C1427 C1423 1.400 . S
C1427 C1426 1.385 . S
C1428 C1426 1.478 . S
C1428 C1430 1.381 1_455 S
C1428 C1434 1.383 . S
C1429 C1425 1.495 . S
C1429 H1435 0.959 1_455 S
C1429 H1436 0.961 . S
C1429 H1437 0.960 1_455 S
C1430 C1428 1.381 1_655 S
C1430 C1431 1.394 . S
C1430 H1438 0.930 . S
C1431 C1430 1.394 . S
C1431 C1432 1.383 1_655 S
C1431 H1439 0.929 . S
C1432 C1431 1.383 1_455 S
C1432 C1433 1.377 . S
C1433 H1417 0.930 . S
C1433 C1432 1.377 . S
C1433 C1434 1.379 . S
C1434 H1418 0.931 . S
C1434 C1428 1.383 . S
C1434 C1433 1.379 . S
H1435 C1429 0.959 1_655 S
H1436 C1429 0.961 . S
H1437 C1429 0.960 1_655 S
H1438 C1430 0.930 . S
H1439 C1431 0.929 . S
H1440 C1448 0.929 . S
H1441 C1450 0.930 . S
H1442 C1452 0.930 . S
H1443 C1455 0.929 . S
H1444 C1458 0.930 . S
H1445 C1460 0.960 . S
H1446 C1460 0.960 . S
H1447 C1460 0.960 . S
C1448 H1440 0.929 . S
C1448 C1449 1.377 . S
C1448 C1450 1.384 . S
C1449 C1448 1.377 . S
C1449 C1455 1.390 1_545 S
C1450 H1441 0.930 . S
C1450 C1448 1.384 . S
C1450 C1451 1.372 . S
C1451 C1450 1.372 . S
C1451 C1452 1.400 1_545 S
C1451 C1456 1.490 . S
C1452 H1442 0.930 . S
C1452 C1451 1.400 1_565 S
C1452 C1455 1.386 . S
H1453 C1469 0.930 . S
H1454 C1470 0.931 . S
C1455 H1443 0.929 . S
C1455 C1449 1.390 1_565 S
C1455 C1452 1.386 . S
C1456 C1451 1.490 . S
C1456 C1458 1.395 1_545 S
C1456 C1459 1.403 . S
H1457 C1463 0.930 . S
C1458 H1444 0.930 . S
C1458 C1456 1.395 1_565 S
C1458 C1461 1.403 . S
C1459 C1456 1.403 . S
C1459 C1460 1.524 . S
C1459 C1463 1.400 . S
C1460 H1445 0.960 . S
C1460 H1446 0.960 . S
C1460 H1447 0.960 . S
C1460 C1459 1.524 . S
C1461 C1458 1.403 . S
C1461 C1462 1.396 . S
C1461 C1465 1.495 . S
C1462 C1461 1.396 . S
C1462 C1463 1.381 1_565 S
C1462 C1464 1.477 . S
C1463 H1457 0.930 . S
C1463 C1459 1.400 . S
C1463 C1462 1.381 1_545 S
C1464 C1462 1.477 . S
C1464 C1466 1.350 1_565 S
C1464 C1470 1.414 . S
C1465 C1461 1.495 . S
C1465 H1471 0.959 . S
C1465 H1472 0.961 . S
C1465 H1473 0.960 . S
C1466 C1464 1.350 1_545 S
C1466 C1467 1.394 . S
C1466 H1474 0.930 . S
C1467 C1466 1.394 . S
C1467 C1468 1.382 1_545 S
C1467 H1475 0.929 . S
C1468 C1467 1.382 1_565 S
C1468 C1469 1.378 . S
C1469 H1453 0.930 . S
C1469 C1468 1.378 . S
C1469 C1470 1.379 . S
C1470 H1454 0.931 . S
C1470 C1464 1.414 . S
C1470 C1469 1.379 . S
H1471 C1465 0.959 . S
H1472 C1465 0.961 . S
H1473 C1465 0.960 . S
H1474 C1466 0.930 . S
H1475 C1467 0.929 . S
H1476 C1484 0.929 . S
H1477 C1486 0.930 . S
H1478 C1488 0.930 . S
H1479 C1491 0.929 . S
H1480 C1494 0.930 . S
H1481 C1496 0.960 . S
H1482 C1496 0.960 . S
H1483 C1496 0.960 . S
C1484 H1476 0.929 . S
C1484 C1485 1.377 . S
C1484 C1486 1.384 . S
C1485 C1484 1.377 . S
C1485 C1491 1.390 1_455 S
C1486 H1477 0.930 . S
C1486 C1484 1.384 . S
C1486 C1487 1.372 . S
C1487 C1486 1.372 . S
C1487 C1488 1.400 1_455 S
C1487 C1492 1.490 . S
C1488 H1478 0.930 . S
C1488 C1487 1.400 1_655 S
C1488 C1491 1.386 . S
H1489 C1505 0.930 . S
H1490 C1506 0.931 . S
C1491 H1479 0.929 . S
C1491 C1485 1.390 1_655 S
C1491 C1488 1.386 . S
C1492 C1487 1.490 . S
C1492 C1494 1.395 . S
C1492 C1495 1.403 . S
H1493 C1499 0.930 . S
C1494 H1480 0.930 . S
C1494 C1492 1.395 . S
C1494 C1497 1.403 . S
C1495 C1492 1.403 . S
C1495 C1496 1.524 . S
C1495 C1499 1.400 . S
C1496 H1481 0.960 . S
C1496 H1482 0.960 . S
C1496 H1483 0.960 . S
C1496 C1495 1.524 . S
C1497 C1494 1.403 . S
C1497 C1498 1.392 . S
C1497 C1501 1.495 . S
C1498 C1497 1.392 . S
C1498 C1499 1.385 . S
C1498 C1500 1.478 . S
C1499 H1493 0.930 . S
C1499 C1495 1.400 . S
C1499 C1498 1.385 . S
C1500 C1498 1.478 . S
C1500 C1502 1.381 . S
C1500 C1506 1.383 1_455 S
C1501 C1497 1.495 . S
C1501 H1507 0.959 . S
C1501 H1508 0.961 1_455 S
C1501 H1509 0.960 . S
C1502 C1500 1.381 . S
C1502 C1503 1.394 . S
C1502 H1510 0.930 . S
C1503 C1502 1.394 . S
C1503 C1504 1.383 . S
C1503 H1511 0.929 . S
C1504 C1503 1.383 . S
C1504 C1505 1.377 1_455 S
C1505 H1489 0.930 . S
C1505 C1504 1.377 1_655 S
C1505 C1506 1.379 . S
C1506 H1490 0.931 . S
C1506 C1500 1.383 1_655 S
C1506 C1505 1.379 . S
H1507 C1501 0.959 . S
H1508 C1501 0.961 1_655 S
H1509 C1501 0.960 . S
H1510 C1502 0.930 . S
H1511 C1503 0.929 . S
H1512 C1520 0.929 . S
H1513 C1522 0.930 . S
H1514 C1524 0.930 . S
H1515 C1527 0.929 . S
H1516 C1530 0.930 . S
H1517 C1532 0.960 . S
H1518 C1532 0.960 1_545 S
H1519 C1532 0.960 . S
C1520 H1512 0.929 . S
C1520 C1521 1.377 . S
C1520 C1522 1.384 . S
C1521 C1520 1.377 . S
C1521 C1527 1.390 1_545 S
C1522 H1513 0.930 . S
C1522 C1520 1.384 . S
C1522 C1523 1.372 . S
C1523 C1522 1.372 . S
C1523 C1524 1.400 1_545 S
C1523 C1528 1.490 . S
C1524 H1514 0.930 . S
C1524 C1523 1.400 1_565 S
C1524 C1527 1.386 . S
H1525 C1541 0.930 . S
H1526 C1542 0.931 . S
C1527 H1515 0.929 . S
C1527 C1521 1.390 1_565 S
C1527 C1524 1.386 . S
C1528 C1523 1.490 . S
C1528 C1530 1.395 . S
C1528 C1531 1.403 1_545 S
H1529 C1535 0.930 . S
C1530 H1516 0.930 . S
C1530 C1528 1.395 . S
C1530 C1533 1.403 . S
C1531 C1528 1.403 1_565 S
C1531 C1532 1.524 . S
C1531 C1535 1.400 . S
C1532 H1517 0.960 . S
C1532 H1518 0.960 1_565 S
C1532 H1519 0.960 . S
C1532 C1531 1.524 . S
C1533 C1530 1.403 . S
C1533 C1534 1.392 . S
C1533 C1537 1.495 . S
C1534 C1533 1.392 . S
C1534 C1535 1.385 1_545 S
C1534 C1536 1.478 . S
C1535 H1529 0.930 . S
C1535 C1531 1.400 . S
C1535 C1534 1.385 1_565 S
C1536 C1534 1.478 . S
C1536 C1538 1.381 . S
C1536 C1542 1.383 1_545 S
C1537 C1533 1.495 . S
C1537 H1543 0.959 . S
C1537 H1544 0.980 . S
C1537 H1545 0.960 . S
C1538 C1536 1.381 . S
C1538 C1539 1.394 . S
C1538 H1546 0.930 . S
C1539 C1538 1.394 . S
C1539 C1540 1.426 . S
C1539 H1547 0.929 . S
C1540 C1539 1.426 . S
C1540 C1541 1.336 1_545 S
C1541 H1525 0.930 . S
C1541 C1540 1.336 1_565 S
C1541 C1542 1.379 . S
C1542 H1526 0.931 . S
C1542 C1536 1.383 1_565 S
C1542 C1541 1.379 . S
H1543 C1537 0.959 . S
H1544 C1537 0.980 . S
H1545 C1537 0.960 . S
H1546 C1538 0.930 . S
H1547 C1539 0.929 . S
H1548 C1556 0.929 . S
H1549 C1558 0.930 . S
H1550 C1560 0.930 . S
H1551 C1563 0.929 . S
H1552 C1566 0.930 . S
H1553 C1568 0.960 . S
H1554 C1568 0.960 . S
H1555 C1568 0.960 . S
C1556 H1548 0.929 . S
C1556 C1557 1.377 . S
C1556 C1558 1.384 . S
C1557 C1556 1.377 . S
C1557 C1563 1.390 . S
C1558 H1549 0.930 . S
C1558 C1556 1.384 . S
C1558 C1559 1.372 . S
C1559 C1558 1.372 . S
C1559 C1560 1.400 . S
C1559 C1564 1.490 . S
C1560 H1550 0.930 . S
C1560 C1559 1.400 . S
C1560 C1563 1.386 . S
H1561 C1577 0.930 . S
H1562 C1578 0.931 . S
C1563 H1551 0.929 . S
C1563 C1557 1.390 . S
C1563 C1560 1.386 . S
C1564 C1559 1.490 . S
C1564 C1566 1.395 . S
C1564 C1567 1.403 1_455 S
H1565 C1571 0.930 . S
C1566 H1552 0.930 . S
C1566 C1564 1.395 . S
C1566 C1569 1.403 . S
C1567 C1564 1.403 1_655 S
C1567 C1568 1.524 . S
C1567 C1571 1.400 . S
C1568 H1553 0.960 . S
C1568 H1554 0.960 . S
C1568 H1555 0.960 . S
C1568 C1567 1.524 . S
C1569 C1566 1.403 . S
C1569 C1570 1.392 . S
C1569 C1573 1.495 . S
C1570 C1569 1.392 . S
C1570 C1571 1.385 1_455 S
C1570 C1572 1.478 . S
C1571 H1565 0.930 . S
C1571 C1567 1.400 . S
C1571 C1570 1.385 1_655 S
C1572 C1570 1.478 . S
C1572 C1574 1.381 . S
C1572 C1578 1.383 . S
C1573 C1569 1.495 . S
C1573 H1579 0.959 . S
C1573 H1580 0.961 . S
C1573 H1581 0.960 . S
C1574 C1572 1.381 . S
C1574 C1575 1.394 . S
C1574 H1582 0.930 . S
C1575 C1574 1.394 . S
C1575 C1576 1.383 . S
C1575 H1583 0.916 1_455 S
C1576 C1575 1.383 . S
C1576 C1577 1.377 . S
C1577 H1561 0.930 . S
C1577 C1576 1.377 . S
C1577 C1578 1.379 . S
C1578 H1562 0.931 . S
C1578 C1572 1.383 . S
C1578 C1577 1.379 . S
H1579 C1573 0.959 . S
H1580 C1573 0.961 . S
H1581 C1573 0.960 . S
H1582 C1574 0.930 . S
H1583 C1575 0.916 1_655 S
H1584 C1592 0.929 . S
H1585 C1594 0.930 . S
H1586 C1596 0.930 . S
H1587 C1599 0.929 . S
H1588 C1602 0.930 . S
H1589 C1604 0.960 . S
H1590 C1604 0.960 . S
H1591 C1604 0.960 . S
C1592 H1584 0.929 . S
C1592 C1593 1.377 . S
C1592 C1594 1.384 . S
C1593 C1592 1.377 . S
C1593 C1599 1.390 1_545 S
C1594 H1585 0.930 . S
C1594 C1592 1.384 . S
C1594 C1595 1.372 . S
C1595 C1594 1.372 . S
C1595 C1596 1.400 1_545 S
C1595 C1600 1.490 . S
C1596 H1586 0.930 . S
C1596 C1595 1.400 1_565 S
C1596 C1599 1.386 . S
H1597 C1613 0.930 . S
H1598 C1614 0.931 . S
C1599 H1587 0.929 . S
C1599 C1593 1.390 1_565 S
C1599 C1596 1.386 . S
C1600 C1595 1.490 . S
C1600 C1602 1.395 1_545 S
C1600 C1603 1.403 . S
H1601 C1607 0.930 . S
C1602 H1588 0.930 . S
C1602 C1600 1.395 1_565 S
C1602 C1605 1.403 . S
C1603 C1600 1.403 . S
C1603 C1604 1.524 . S
C1603 C1607 1.400 . S
C1604 H1589 0.960 . S
C1604 H1590 0.960 . S
C1604 H1591 0.960 . S
C1604 C1603 1.524 . S
C1605 C1602 1.403 . S
C1605 C1606 1.407 . S
C1605 C1609 1.495 . S
C1606 C1605 1.407 . S
C1606 C1607 1.369 1_565 S
C1606 C1608 1.479 . S
C1607 H1601 0.930 . S
C1607 C1603 1.400 . S
C1607 C1606 1.369 1_545 S
C1608 C1606 1.479 . S
C1608 C1610 1.381 1_565 S
C1608 C1614 1.383 . S
C1609 C1605 1.495 . S
C1609 H1615 0.959 . S
C1609 H1616 0.961 . S
C1609 H1617 0.960 . S
C1610 C1608 1.381 1_545 S
C1610 C1611 1.394 . S
C1610 H1618 0.930 . S
C1611 C1610 1.394 . S
C1611 C1612 1.378 1_545 S
C1611 H1619 0.929 . S
C1612 C1611 1.378 1_565 S
C1612 C1613 1.383 . S
C1613 H1597 0.930 . S
C1613 C1612 1.383 . S
C1613 C1614 1.379 . S
C1614 H1598 0.931 . S
C1614 C1608 1.383 . S
C1614 C1613 1.379 . S
H1615 C1609 0.959 . S
H1616 C1609 0.961 . S
H1617 C1609 0.960 . S
H1618 C1610 0.930 . S
H1619 C1611 0.929 . S
H1620 C1628 0.929 . S
H1621 C1630 0.930 . S
H1622 C1632 0.930 . S
H1623 C1635 0.929 . S
H1624 C1638 0.930 . S
H1625 C1640 0.960 . S
H1626 C1640 0.960 1_455 S
H1627 C1640 0.960 . S
C1628 H1620 0.929 . S
C1628 C1629 1.377 . S
C1628 C1630 1.384 . S
C1629 C1628 1.377 . S
C1629 C1635 1.390 1_455 S
C1630 H1621 0.930 . S
C1630 C1628 1.384 . S
C1630 C1631 1.372 . S
C1631 C1630 1.372 . S
C1631 C1632 1.400 1_455 S
C1631 C1636 1.490 . S
C1632 H1622 0.930 . S
C1632 C1631 1.400 1_655 S
C1632 C1635 1.386 . S
H1633 C1649 0.930 . S
H1634 C1650 0.931 . S
C1635 H1623 0.929 . S
C1635 C1629 1.390 1_655 S
C1635 C1632 1.386 . S
C1636 C1631 1.490 . S
C1636 C1638 1.395 . S
C1636 C1639 1.403 . S
H1637 C1643 0.930 1_655 S
C1638 H1624 0.930 . S
C1638 C1636 1.395 . S
C1638 C1641 1.403 . S
C1639 C1636 1.403 . S
C1639 C1640 1.524 1_455 S
C1639 C1643 1.400 . S
C1640 H1625 0.960 . S
C1640 H1626 0.960 1_655 S
C1640 H1627 0.960 . S
C1640 C1639 1.524 1_655 S
C1641 C1638 1.403 . S
C1641 C1642 1.392 . S
C1641 C1645 1.495 . S
C1642 C1641 1.392 . S
C1642 C1643 1.385 . S
C1642 C1644 1.478 . S
C1643 H1637 0.930 1_455 S
C1643 C1639 1.400 . S
C1643 C1642 1.385 . S
C1644 C1642 1.478 . S
C1644 C1646 1.381 . S
C1644 C1650 1.383 1_455 S
C1645 C1641 1.495 . S
C1645 H1651 0.959 . S
C1645 H1652 0.961 . S
C1645 H1653 0.960 . S
C1646 C1644 1.381 . S
C1646 C1647 1.394 . S
C1646 H1654 0.930 . S
C1647 C1646 1.394 . S
C1647 C1648 1.383 . S
C1647 H1655 0.929 . S
C1648 C1647 1.383 . S
C1648 C1649 1.377 1_455 S
C1649 H1633 0.930 . S
C1649 C1648 1.377 1_655 S
C1649 C1650 1.379 . S
C1650 H1634 0.931 . S
C1650 C1644 1.383 1_655 S
C1650 C1649 1.379 . S
H1651 C1645 0.959 . S
H1652 C1645 0.961 . S
H1653 C1645 0.960 . S
H1654 C1646 0.930 . S
H1655 C1647 0.929 . S
H1656 C1664 0.929 . S
H1657 C1666 0.930 . S
H1658 C1668 0.930 . S
H1659 C1671 0.929 . S
H1660 C1674 0.930 . S
H1661 C1676 0.960 . S
H1662 C1676 0.960 . S
H1663 C1676 0.960 . S
C1664 H1656 0.929 . S
C1664 C1665 1.377 1_545 S
C1664 C1666 1.384 . S
C1665 C1664 1.377 1_565 S
C1665 C1671 1.391 . S
C1666 H1657 0.930 . S
C1666 C1664 1.384 . S
C1666 C1667 1.372 . S
C1667 C1666 1.372 . S
C1667 C1668 1.400 1_545 S
C1667 C1672 1.489 . S
C1668 H1658 0.930 . S
C1668 C1667 1.400 1_565 S
C1668 C1671 1.386 . S
H1669 C1685 0.930 . S
H1670 C1686 0.931 . S
C1671 H1659 0.929 . S
C1671 C1665 1.391 . S
C1671 C1668 1.386 . S
C1672 C1667 1.489 . S
C1672 C1674 1.432 . S
C1672 C1675 1.368 1_545 S
H1673 C1679 0.930 . S
C1674 H1660 0.930 . S
C1674 C1672 1.432 . S
C1674 C1677 1.403 . S
C1675 C1672 1.368 1_565 S
C1675 C1676 1.524 . S
C1675 C1679 1.400 . S
C1676 H1661 0.960 . S
C1676 H1662 0.960 . S
C1676 H1663 0.960 . S
C1676 C1675 1.524 . S
C1677 C1674 1.403 . S
C1677 C1678 1.392 . S
C1677 C1681 1.495 . S
C1678 C1677 1.392 . S
C1678 C1679 1.385 1_545 S
C1678 C1680 1.478 . S
C1679 H1673 0.930 . S
C1679 C1675 1.400 . S
C1679 C1678 1.385 1_565 S
C1680 C1678 1.478 . S
C1680 C1682 1.381 . S
C1680 C1686 1.383 . S
C1681 C1677 1.495 . S
C1681 H1687 0.959 . S
C1681 H1688 0.961 . S
C1681 H1689 0.960 . S
C1682 C1680 1.381 . S
C1682 C1683 1.394 . S
C1682 H1690 0.930 . S
C1683 C1682 1.394 . S
C1683 C1684 1.383 . S
C1683 H1691 0.929 . S
C1684 C1683 1.383 . S
C1684 C1685 1.377 . S
C1685 H1669 0.930 . S
C1685 C1684 1.377 . S
C1685 C1686 1.379 . S
C1686 H1670 0.931 . S
C1686 C1680 1.383 . S
C1686 C1685 1.379 . S
H1687 C1681 0.959 . S
H1688 C1681 0.961 . S
H1689 C1681 0.960 . S
H1690 C1682 0.930 . S
H1691 C1683 0.929 . S
H1692 C1700 0.929 . S
H1693 C1702 0.930 . S
H1694 C1704 0.930 . S
H1695 C1707 0.929 . S
H1696 C1710 0.930 . S
H1697 C1712 0.960 . S
H1698 C1712 0.960 . S
H1699 C1712 0.960 1_455 S
C1700 H1692 0.929 . S
C1700 C1701 1.377 1_655 S
C1700 C1702 1.384 . S
C1701 C1700 1.377 1_455 S
C1701 C1707 1.390 . S
C1702 H1693 0.930 . S
C1702 C1700 1.384 . S
C1702 C1703 1.372 1_655 S
C1703 C1702 1.372 1_455 S
C1703 C1704 1.400 . S
C1703 C1708 1.490 . S
C1704 H1694 0.930 . S
C1704 C1703 1.400 . S
C1704 C1707 1.386 . S
H1705 C1721 0.930 . S
H1706 C1722 0.931 . S
C1707 H1695 0.929 . S
C1707 C1701 1.390 . S
C1707 C1704 1.386 . S
C1708 C1703 1.490 . S
C1708 C1710 1.395 . S
C1708 C1711 1.403 . S
H1709 C1715 0.930 . S
C1710 H1696 0.930 . S
C1710 C1708 1.395 . S
C1710 C1713 1.403 . S
C1711 C1708 1.403 . S
C1711 C1712 1.524 1_455 S
C1711 C1715 1.400 . S
C1712 H1697 0.960 . S
C1712 H1698 0.960 . S
C1712 H1699 0.960 1_655 S
C1712 C1711 1.524 1_655 S
C1713 C1710 1.403 . S
C1713 C1714 1.392 . S
C1713 C1717 1.495 . S
C1714 C1713 1.392 . S
C1714 C1715 1.385 . S
C1714 C1716 1.478 . S
C1715 H1709 0.930 . S
C1715 C1711 1.400 . S
C1715 C1714 1.385 . S
C1716 C1714 1.478 . S
C1716 C1718 1.381 1_455 S
C1716 C1722 1.383 . S
C1717 C1713 1.495 . S
C1717 H1723 0.959 . S
C1717 H1724 0.961 . S
C1717 H1725 0.960 . S
C1718 C1716 1.381 1_655 S
C1718 C1719 1.394 . S
C1718 H1726 0.930 . S
C1719 C1718 1.394 . S
C1719 C1720 1.383 1_655 S
C1719 H1727 0.929 . S
C1720 C1719 1.383 1_455 S
C1720 C1721 1.377 . S
C1721 H1705 0.930 . S
C1721 C1720 1.377 . S
C1721 C1722 1.379 . S
C1722 H1706 0.931 . S
C1722 C1716 1.383 . S
C1722 C1721 1.379 . S
H1723 C1717 0.959 . S
H1724 C1717 0.961 . S
H1725 C1717 0.960 . S
H1726 C1718 0.930 . S
H1727 C1719 0.929 . S
H1728 C1736 0.929 . S
H1729 C1738 0.930 . S
H1730 C1740 0.930 . S
H1731 C1743 0.929 . S
H1732 C1746 0.930 . S
H1733 C1748 0.962 . S
H1734 C1748 0.940 1_545 S
H1735 C1748 0.980 . S
C1736 H1728 0.929 . S
C1736 C1737 1.389 . S
C1736 C1738 1.384 . S
C1737 C1736 1.389 . S
C1737 C1743 1.379 1_545 S
C1738 H1729 0.930 . S
C1738 C1736 1.384 . S
C1738 C1739 1.372 . S
C1739 C1738 1.372 . S
C1739 C1740 1.400 1_545 S
C1739 C1744 1.490 . S
C1740 H1730 0.930 . S
C1740 C1739 1.400 1_565 S
C1740 C1743 1.386 . S
H1741 C1757 0.930 . S
H1742 C1758 0.931 . S
C1743 H1731 0.929 . S
C1743 C1737 1.379 1_565 S
C1743 C1740 1.386 . S
C1744 C1739 1.490 . S
C1744 C1746 1.395 . S
C1744 C1747 1.403 . S
H1745 C1751 0.931 . S
C1746 H1732 0.930 . S
C1746 C1744 1.395 . S
C1746 C1749 1.403 . S
C1747 C1744 1.403 . S
C1747 C1748 1.523 1_545 S
C1747 C1751 1.400 1_545 S
C1748 H1733 0.962 . S
C1748 H1734 0.940 1_565 S
C1748 H1735 0.980 . S
C1748 C1747 1.523 1_565 S
C1749 C1746 1.403 . S
C1749 C1750 1.392 . S
C1749 C1753 1.495 . S
C1750 C1749 1.392 . S
C1750 C1751 1.385 1_545 S
C1750 C1752 1.479 . S
C1751 H1745 0.931 . S
C1751 C1747 1.400 1_565 S
C1751 C1750 1.385 1_565 S
C1752 C1750 1.479 . S
C1752 C1754 1.413 . S
C1752 C1758 1.351 1_545 S
C1753 C1749 1.495 . S
C1753 H1759 0.959 . S
C1753 H1760 0.961 1_545 S
C1753 H1761 0.960 . S
C1754 C1752 1.413 . S
C1754 C1755 1.394 . S
C1754 H1762 0.930 . S
C1755 C1754 1.394 . S
C1755 C1756 1.399 . S
C1755 H1763 0.929 . S
C1756 C1755 1.399 . S
C1756 C1757 1.361 1_545 S
C1757 H1741 0.930 . S
C1757 C1756 1.361 1_565 S
C1757 C1758 1.379 . S
C1758 H1742 0.931 . S
C1758 C1752 1.351 1_565 S
C1758 C1757 1.379 . S
H1759 C1753 0.959 . S
H1760 C1753 0.961 1_565 S
H1761 C1753 0.960 . S
H1762 C1754 0.930 . S
H1763 C1755 0.929 . S
H1764 C1772 0.929 . S
H1765 C1774 0.930 . S
H1766 C1776 0.930 . S
H1767 C1779 0.929 . S
H1768 C1782 0.930 . S
H1769 C1784 0.960 . S
H1770 C1784 0.960 . S
H1771 C1784 0.997 . S
C1772 H1764 0.929 . S
C1772 C1773 1.354 1_565 S
C1772 C1774 1.384 . S
C1773 C1772 1.354 1_545 S
C1773 C1779 1.413 . S
C1774 H1765 0.930 . S
C1774 C1772 1.384 . S
C1774 C1775 1.369 . S
C1775 C1774 1.369 . S
C1775 C1776 1.403 1_565 S
C1775 C1780 1.490 1_565 S
C1776 H1766 0.930 . S
C1776 C1775 1.403 1_545 S
C1776 C1779 1.386 . S
H1777 C1793 0.930 . S
H1778 C1794 0.931 . S
C1779 H1767 0.929 . S
C1779 C1773 1.413 . S
C1779 C1776 1.386 . S
C1780 C1775 1.490 1_545 S
C1780 C1782 1.396 . S
C1780 C1783 1.402 1_545 S
H1781 C1787 0.930 . S
C1782 H1768 0.930 . S
C1782 C1780 1.396 . S
C1782 C1785 1.403 . S
C1783 C1780 1.402 1_565 S
C1783 C1784 1.524 . S
C1783 C1787 1.400 . S
C1784 H1769 0.960 . S
C1784 H1770 0.960 . S
C1784 H1771 0.997 . S
C1784 C1783 1.524 . S
C1785 C1782 1.403 . S
C1785 C1786 1.392 . S
C1785 C1789 1.495 . S
C1786 C1785 1.392 . S
C1786 C1787 1.385 1_545 S
C1786 C1788 1.478 . S
C1787 H1781 0.930 . S
C1787 C1783 1.400 . S
C1787 C1786 1.385 1_565 S
C1788 C1786 1.478 . S
C1788 C1790 1.381 1_545 S
C1788 C1794 1.383 . S
C1789 C1785 1.495 . S
C1789 H1795 0.959 . S
C1789 H1796 0.961 . S
C1789 H1797 0.992 . S
C1790 C1788 1.381 1_565 S
C1790 C1791 1.394 . S
C1790 H1798 0.930 . S
C1791 C1790 1.394 . S
C1791 C1792 1.383 1_565 S
C1791 H1799 0.929 . S
C1792 C1791 1.383 1_545 S
C1792 C1793 1.377 . S
C1793 H1777 0.930 . S
C1793 C1792 1.377 . S
C1793 C1794 1.379 . S
C1794 H1778 0.931 . S
C1794 C1788 1.383 . S
C1794 C1793 1.379 . S
H1795 C1789 0.959 . S
H1796 C1789 0.961 . S
H1797 C1789 0.992 . S
H1798 C1790 0.930 . S
H1799 C1791 0.929 . S
H1800 C1808 0.929 . S
H1801 C1810 0.930 . S
H1802 C1812 0.930 . S
H1803 C1815 0.929 . S
H1804 C1818 0.930 . S
H1805 C1820 0.960 . S
H1806 C1820 0.960 . S
H1807 C1820 0.960 1_655 S
C1808 H1800 0.929 . S
C1808 C1809 1.377 . S
C1808 C1810 1.384 . S
C1809 C1808 1.377 . S
C1809 C1815 1.390 1_455 S
C1810 H1801 0.930 . S
C1810 C1808 1.384 . S
C1810 C1811 1.372 . S
C1811 C1810 1.372 . S
C1811 C1812 1.400 1_455 S
C1811 C1816 1.490 . S
C1812 H1802 0.930 . S
C1812 C1811 1.400 1_655 S
C1812 C1815 1.386 . S
H1813 C1829 0.930 1_655 S
H1814 C1830 0.931 1_655 S
C1815 H1803 0.929 . S
C1815 C1809 1.390 1_655 S
C1815 C1812 1.386 . S
C1816 C1811 1.490 . S
C1816 C1818 1.395 . S
C1816 C1819 1.403 . S
H1817 C1823 0.930 . S
C1818 H1804 0.930 . S
C1818 C1816 1.395 . S
C1818 C1821 1.403 . S
C1819 C1816 1.403 . S
C1819 C1820 1.524 . S
C1819 C1823 1.400 . S
C1820 H1805 0.960 . S
C1820 H1806 0.960 . S
C1820 H1807 0.960 1_455 S
C1820 C1819 1.524 . S
C1821 C1818 1.403 . S
C1821 C1822 1.392 . S
C1821 C1825 1.495 . S
C1822 C1821 1.392 . S
C1822 C1823 1.385 . S
C1822 C1824 1.478 . S
C1823 H1817 0.930 . S
C1823 C1819 1.400 . S
C1823 C1822 1.385 . S
C1824 C1822 1.478 . S
C1824 C1826 1.381 . S
C1824 C1830 1.383 . S
C1825 C1821 1.495 . S
C1825 H1831 0.959 . S
C1825 H1832 0.961 . S
C1825 H1833 0.960 . S
C1826 C1824 1.381 . S
C1826 C1827 1.394 . S
C1826 H1834 0.930 . S
C1827 C1826 1.394 . S
C1827 C1828 1.383 . S
C1827 H1835 0.929 . S
C1828 C1827 1.383 . S
C1828 C1829 1.377 . S
C1829 H1813 0.930 1_455 S
C1829 C1828 1.377 . S
C1829 C1830 1.379 . S
C1830 H1814 0.931 1_455 S
C1830 C1824 1.383 . S
C1830 C1829 1.379 . S
H1831 C1825 0.959 . S
H1832 C1825 0.961 . S
H1833 C1825 0.960 . S
H1834 C1826 0.930 . S
H1835 C1827 0.929 . S
H1836 C1844 0.929 . S
H1837 C1846 0.930 . S
H1838 C1848 0.930 . S
H1839 C1851 0.929 . S
H1840 C1854 0.930 . S
H1841 C1856 0.960 . S
H1842 C1856 0.960 1_545 S
H1843 C1856 0.960 . S
C1844 H1836 0.929 . S
C1844 C1845 1.377 . S
C1844 C1846 1.384 . S
C1845 C1844 1.377 . S
C1845 C1851 1.390 1_545 S
C1846 H1837 0.930 . S
C1846 C1844 1.384 . S
C1846 C1847 1.372 . S
C1847 C1846 1.372 . S
C1847 C1848 1.400 1_545 S
C1847 C1852 1.490 . S
C1848 H1838 0.930 . S
C1848 C1847 1.400 1_565 S
C1848 C1851 1.386 . S
H1849 C1865 0.930 . S
H1850 C1866 0.931 . S
C1851 H1839 0.929 . S
C1851 C1845 1.390 1_565 S
C1851 C1848 1.386 . S
C1852 C1847 1.490 . S
C1852 C1854 1.395 . S
C1852 C1855 1.403 1_545 S
H1853 C1859 0.930 . S
C1854 H1840 0.930 . S
C1854 C1852 1.395 . S
C1854 C1857 1.403 . S
C1855 C1852 1.403 1_565 S
C1855 C1856 1.524 . S
C1855 C1859 1.400 . S
C1856 H1841 0.960 . S
C1856 H1842 0.960 1_565 S
C1856 H1843 0.960 . S
C1856 C1855 1.524 . S
C1857 C1854 1.403 . S
C1857 C1858 1.392 . S
C1857 C1861 1.495 . S
C1858 C1857 1.392 . S
C1858 C1859 1.385 1_545 S
C1858 C1860 1.478 . S
C1859 H1853 0.930 . S
C1859 C1855 1.400 . S
C1859 C1858 1.385 1_565 S
C1860 C1858 1.478 . S
C1860 C1862 1.381 . S
C1860 C1866 1.383 1_545 S
C1861 C1857 1.495 . S
C1861 H1867 0.959 . S
C1861 H1868 0.958 . S
C1861 H1869 0.960 . S
C1862 C1860 1.381 . S
C1862 C1863 1.394 . S
C1862 H1870 0.930 . S
C1863 C1862 1.394 . S
C1863 C1864 1.383 . S
C1863 H1871 0.929 . S
C1864 C1863 1.383 . S
C1864 C1865 1.377 1_545 S
C1865 H1849 0.930 . S
C1865 C1864 1.377 1_565 S
C1865 C1866 1.379 . S
C1866 H1850 0.931 . S
C1866 C1860 1.383 1_565 S
C1866 C1865 1.379 . S
H1867 C1861 0.959 . S
H1868 C1861 0.958 . S
H1869 C1861 0.960 . S
H1870 C1862 0.930 . S
H1871 C1863 0.929 . S
H1872 C1880 0.929 . S
H1873 C1882 0.930 . S
H1874 C1884 0.905 1_655 S
H1875 C1887 0.948 . S
H1876 C1890 0.930 . S
H1877 C1892 0.960 . S
H1878 C1892 0.960 . S
H1879 C1892 0.960 . S
C1880 H1872 0.929 . S
C1880 C1881 1.377 . S
C1880 C1882 1.384 . S
C1881 C1880 1.377 . S
C1881 C1887 1.372 1_455 S
C1882 H1873 0.930 . S
C1882 C1880 1.384 . S
C1882 C1883 1.372 . S
C1883 C1882 1.372 . S
C1883 C1884 1.427 . S
C1883 C1888 1.490 . S
C1884 H1874 0.905 1_455 S
C1884 C1883 1.427 . S
C1884 C1887 1.384 1_455 S
H1885 C1901 0.930 1_655 S
H1886 C1902 0.931 1_655 S
C1887 H1875 0.948 . S
C1887 C1881 1.372 1_655 S
C1887 C1884 1.384 1_655 S
C1888 C1883 1.490 . S
C1888 C1890 1.395 . S
C1888 C1891 1.403 . S
H1889 C1895 0.930 . S
C1890 H1876 0.930 . S
C1890 C1888 1.395 . S
C1890 C1893 1.403 . S
C1891 C1888 1.403 . S
C1891 C1892 1.524 . S
C1891 C1895 1.400 . S
C1892 H1877 0.960 . S
C1892 H1878 0.960 . S
C1892 H1879 0.960 . S
C1892 C1891 1.524 . S
C1893 C1890 1.403 . S
C1893 C1894 1.392 . S
C1893 C1897 1.495 . S
C1894 C1893 1.392 . S
C1894 C1895 1.385 . S
C1894 C1896 1.478 . S
C1895 H1889 0.930 . S
C1895 C1891 1.400 . S
C1895 C1894 1.385 . S
C1896 C1894 1.478 . S
C1896 C1898 1.381 . S
C1896 C1902 1.383 . S
C1897 C1893 1.495 . S
C1897 H1903 0.959 . S
C1897 H1904 0.961 . S
C1897 H1905 0.960 . S
C1898 C1896 1.381 . S
C1898 C1899 1.394 . S
C1898 H1906 0.930 . S
C1899 C1898 1.394 . S
C1899 C1900 1.383 . S
C1899 H1907 0.929 . S
C1900 C1899 1.383 . S
C1900 C1901 1.377 . S
C1901 H1885 0.930 1_455 S
C1901 C1900 1.377 . S
C1901 C1902 1.379 . S
C1902 H1886 0.931 1_455 S
C1902 C1896 1.383 . S
C1902 C1901 1.379 . S
H1903 C1897 0.959 . S
H1904 C1897 0.961 . S
H1905 C1897 0.960 . S
H1906 C1898 0.930 . S
H1907 C1899 0.929 . S
H1908 C1916 0.929 . S
H1909 C1918 0.930 . S
H1910 C1920 0.930 . S
H1911 C1923 0.929 . S
H1912 C1926 0.930 . S
H1913 C1928 0.960 . S
H1914 C1928 0.960 . S
H1915 C1928 0.960 . S
C1916 H1908 0.929 . S
C1916 C1917 1.380 . S
C1916 C1918 1.384 . S
C1917 C1916 1.380 . S
C1917 C1923 1.388 1_545 S
C1918 H1909 0.930 . S
C1918 C1916 1.384 . S
C1918 C1919 1.376 . S
C1919 C1918 1.376 . S
C1919 C1920 1.397 1_545 S
C1919 C1924 1.490 1_545 S
C1920 H1910 0.930 . S
C1920 C1919 1.397 1_565 S
C1920 C1923 1.386 . S
H1921 C1937 0.930 . S
H1922 C1938 0.931 . S
C1923 H1911 0.929 . S
C1923 C1917 1.388 1_565 S
C1923 C1920 1.386 . S
C1924 C1919 1.490 1_565 S
C1924 C1926 1.391 . S
C1924 C1927 1.406 1_565 S
H1925 C1931 0.930 . S
C1926 H1912 0.930 . S
C1926 C1924 1.391 . S
C1926 C1929 1.403 . S
C1927 C1924 1.406 1_545 S
C1927 C1928 1.524 . S
C1927 C1931 1.400 . S
C1928 H1913 0.960 . S
C1928 H1914 0.960 . S
C1928 H1915 0.960 . S
C1928 C1927 1.524 . S
C1929 C1926 1.403 . S
C1929 C1930 1.392 . S
C1929 C1933 1.495 . S
C1930 C1929 1.392 . S
C1930 C1931 1.385 1_565 S
C1930 C1932 1.478 . S
C1931 H1925 0.930 . S
C1931 C1927 1.400 . S
C1931 C1930 1.385 1_545 S
C1932 C1930 1.478 . S
C1932 C1934 1.381 1_565 S
C1932 C1938 1.383 . S
C1933 C1929 1.495 . S
C1933 H1939 0.959 . S
C1933 H1940 0.961 . S
C1933 H1941 0.960 . S
C1934 C1932 1.381 1_545 S
C1934 C1935 1.394 . S
C1934 H1942 0.930 . S
C1935 C1934 1.394 . S
C1935 C1936 1.383 1_545 S
C1935 H1943 0.929 . S
C1936 C1935 1.383 1_565 S
C1936 C1937 1.377 . S
C1937 H1921 0.930 . S
C1937 C1936 1.377 . S
C1937 C1938 1.379 . S
C1938 H1922 0.931 . S
C1938 C1932 1.383 . S
C1938 C1937 1.379 . S
H1939 C1933 0.959 . S
H1940 C1933 0.961 . S
H1941 C1933 0.960 . S
H1942 C1934 0.930 . S
H1943 C1935 0.929 . S
H1944 C1952 0.929 . S
H1945 C1954 0.930 . S
H1946 C1956 0.930 . S
H1947 C1959 0.929 . S
H1948 C1962 0.930 . S
H1949 C1964 0.960 . S
H1950 C1964 0.960 . S
H1951 C1964 0.960 . S
C1952 H1944 0.929 . S
C1952 C1953 1.377 1_655 S
C1952 C1954 1.384 . S
C1953 C1952 1.377 1_455 S
C1953 C1959 1.390 . S
C1954 H1945 0.930 . S
C1954 C1952 1.384 . S
C1954 C1955 1.372 1_655 S
C1955 C1954 1.372 1_455 S
C1955 C1956 1.400 . S
C1955 C1960 1.490 . S
C1956 H1946 0.930 . S
C1956 C1955 1.400 . S
C1956 C1959 1.386 . S
H1957 C1973 0.930 . S
H1958 C1974 0.931 . S
C1959 H1947 0.929 . S
C1959 C1953 1.390 . S
C1959 C1956 1.386 . S
C1960 C1955 1.490 . S
C1960 C1962 1.395 . S
C1960 C1963 1.403 . S
H1961 C1967 0.930 . S
C1962 H1948 0.930 . S
C1962 C1960 1.395 . S
C1962 C1965 1.403 . S
C1963 C1960 1.403 . S
C1963 C1964 1.524 . S
C1963 C1967 1.400 . S
C1964 H1949 0.960 . S
C1964 H1950 0.960 . S
C1964 H1951 0.960 . S
C1964 C1963 1.524 . S
C1965 C1962 1.403 . S
C1965 C1966 1.392 . S
C1965 C1969 1.486 1_455 S
C1966 C1965 1.392 . S
C1966 C1967 1.385 . S
C1966 C1968 1.478 . S
C1967 H1961 0.930 . S
C1967 C1963 1.400 . S
C1967 C1966 1.385 . S
C1968 C1966 1.478 . S
C1968 C1970 1.381 1_455 S
C1968 C1974 1.383 . S
C1969 C1965 1.486 1_655 S
C1969 H1975 0.968 . S
C1969 H1976 0.942 1_655 S
C1969 H1977 0.979 . S
C1970 C1968 1.381 1_655 S
C1970 C1971 1.394 1_655 S
C1970 H1978 0.930 . S
C1971 C1970 1.394 1_455 S
C1971 C1972 1.388 . S
C1971 H1979 0.924 1_455 S
C1972 C1971 1.388 . S
C1972 C1973 1.377 . S
C1973 H1957 0.930 . S
C1973 C1972 1.377 . S
C1973 C1974 1.379 . S
C1974 H1958 0.931 . S
C1974 C1968 1.383 . S
C1974 C1973 1.379 . S
H1975 C1969 0.968 . S
H1976 C1969 0.942 1_455 S
H1977 C1969 0.979 . S
H1978 C1970 0.930 . S
H1979 C1971 0.924 1_655 S
H1980 C1988 0.929 . S
H1981 C1990 0.930 . S
H1982 C1992 0.930 . S
H1983 C1995 0.929 . S
H1984 C1998 0.930 . S
H1985 C2000 0.960 . S
H1986 C2000 0.960 . S
H1987 C2000 0.960 . S
C1988 H1980 0.929 . S
C1988 C1989 1.380 1_565 S
C1988 C1990 1.384 . S
C1989 C1988 1.380 1_545 S
C1989 C1995 1.388 . S
C1990 H1981 0.930 . S
C1990 C1988 1.384 . S
C1990 C1991 1.393 . S
C1991 C1990 1.393 . S
C1991 C1992 1.378 1_565 S
C1991 C1996 1.491 . S
C1992 H1982 0.930 . S
C1992 C1991 1.378 1_545 S
C1992 C1995 1.386 . S
H1993 C2009 0.930 . S
H1994 C2010 0.931 . S
C1995 H1983 0.929 . S
C1995 C1989 1.388 . S
C1995 C1992 1.386 . S
C1996 C1991 1.491 . S
C1996 C1998 1.395 . S
C1996 C1999 1.403 1_565 S
H1997 C2003 0.930 . S
C1998 H1984 0.930 . S
C1998 C1996 1.395 . S
C1998 C2001 1.403 . S
C1999 C1996 1.403 1_545 S
C1999 C2000 1.524 . S
C1999 C2003 1.400 . S
C2000 H1985 0.960 . S
C2000 H1986 0.960 . S
C2000 H1987 0.960 . S
C2000 C1999 1.524 . S
C2001 C1998 1.403 . S
C2001 C2002 1.392 . S
C2001 C2005 1.495 . S
C2002 C2001 1.392 . S
C2002 C2003 1.385 1_565 S
C2002 C2004 1.478 . S
C2003 H1997 0.930 . S
C2003 C1999 1.400 . S
C2003 C2002 1.385 1_545 S
C2004 C2002 1.478 . S
C2004 C2006 1.381 . S
C2004 C2010 1.383 1_565 S
C2005 C2001 1.495 . S
C2005 H2011 0.959 . S
C2005 H2012 0.961 . S
C2005 H2013 0.960 . S
C2006 C2004 1.381 . S
C2006 C2007 1.394 . S
C2006 H2014 0.930 . S
C2007 C2006 1.394 . S
C2007 C2008 1.383 . S
C2007 H2015 0.929 . S
C2008 C2007 1.383 . S
C2008 C2009 1.377 1_565 S
C2009 H1993 0.930 . S
C2009 C2008 1.377 1_545 S
C2009 C2010 1.379 . S
C2010 H1994 0.931 . S
C2010 C2004 1.383 1_545 S
C2010 C2009 1.379 . S
H2011 C2005 0.959 . S
H2012 C2005 0.961 . S
H2013 C2005 0.960 . S
H2014 C2006 0.930 . S
H2015 C2007 0.929 . S
H2016 C2024 0.929 1_655 S
H2017 C2026 0.930 1_655 S
H2018 C2028 0.930 . S
H2019 C2031 0.929 . S
H2020 C2034 0.930 . S
H2021 C2036 0.960 . S
H2022 C2036 0.960 . S
H2023 C2036 0.960 . S
C2024 H2016 0.929 1_455 S
C2024 C2025 1.377 . S
C2024 C2026 1.384 . S
C2025 C2024 1.377 . S
C2025 C2031 1.390 . S
C2026 H2017 0.930 1_455 S
C2026 C2024 1.384 . S
C2026 C2027 1.372 . S
C2027 C2026 1.372 . S
C2027 C2028 1.400 . S
C2027 C2032 1.490 . S
C2028 H2018 0.930 . S
C2028 C2027 1.400 . S
C2028 C2031 1.386 . S
H2029 C2045 0.930 . S
H2030 C2046 0.931 . S
C2031 H2019 0.929 . S
C2031 C2025 1.390 . S
C2031 C2028 1.386 . S
C2032 C2027 1.490 . S
C2032 C2034 1.395 1_455 S
C2032 C2035 1.403 . S
H2033 C2039 0.930 . S
C2034 H2020 0.930 . S
C2034 C2032 1.395 1_655 S
C2034 C2037 1.403 . S
C2035 C2032 1.403 . S
C2035 C2036 1.524 . S
C2035 C2039 1.400 . S
C2036 H2021 0.960 . S
C2036 H2022 0.960 . S
C2036 H2023 0.960 . S
C2036 C2035 1.524 . S
C2037 C2034 1.403 . S
C2037 C2038 1.392 1_655 S
C2037 C2041 1.495 . S
C2038 C2037 1.392 1_455 S
C2038 C2039 1.385 . S
C2038 C2040 1.478 . S
C2039 H2033 0.930 . S
C2039 C2035 1.400 . S
C2039 C2038 1.385 . S
C2040 C2038 1.478 . S
C2040 C2042 1.381 . S
C2040 C2046 1.383 . S
C2041 C2037 1.495 . S
C2041 H2047 0.959 . S
C2041 H2048 0.961 . S
C2041 H2049 0.960 . S
C2042 C2040 1.381 . S
C2042 C2043 1.394 . S
C2042 H2050 0.930 1_455 S
C2043 C2042 1.394 . S
C2043 C2044 1.383 . S
C2043 H2051 0.929 1_455 S
C2044 C2043 1.383 . S
C2044 C2045 1.377 . S
C2045 H2029 0.930 . S
C2045 C2044 1.377 . S
C2045 C2046 1.379 . S
C2046 H2030 0.931 . S
C2046 C2040 1.383 . S
C2046 C2045 1.379 . S
H2047 C2041 0.959 . S
H2048 C2041 0.961 . S
H2049 C2041 0.960 . S
H2050 C2042 0.930 1_655 S
H2051 C2043 0.929 1_655 S
H2052 C2060 0.929 . S
H2053 C2062 0.930 . S
H2054 C2064 0.930 . S
H2055 C2067 0.929 . S
H2056 C2070 0.930 . S
H2057 C2072 0.960 . S
H2058 C2072 0.960 . S
H2059 C2072 0.960 . S
C2060 H2052 0.929 . S
C2060 C2061 1.377 1_554 S
C2060 C2062 1.384 . S
C2061 C2060 1.377 1_556 S
C2061 C2067 1.390 . S
C2062 H2053 0.930 . S
C2062 C2060 1.384 . S
C2062 C2063 1.372 1_554 S
C2063 C2062 1.372 1_556 S
C2063 C2064 1.399 . S
C2063 C2068 1.489 1_556 S
C2064 H2054 0.930 . S
C2064 C2063 1.399 . S
C2064 C2067 1.386 . S
H2065 C2081 0.930 . S
H2066 C2082 0.931 . S
C2067 H2055 0.929 . S
C2067 C2061 1.390 . S
C2067 C2064 1.386 . S
C2068 C2063 1.489 1_554 S
C2068 C2070 1.429 . S
C2068 C2071 1.371 1_554 S
H2069 C2075 0.930 . S
C2070 H2056 0.930 . S
C2070 C2068 1.429 . S
C2070 C2073 1.403 . S
C2071 C2068 1.371 1_556 S
C2071 C2072 1.524 . S
C2071 C2075 1.400 . S
C2072 H2057 0.960 . S
C2072 H2058 0.960 . S
C2072 H2059 0.960 . S
C2072 C2071 1.524 . S
C2073 C2070 1.403 . S
C2073 C2074 1.392 . S
C2073 C2077 1.495 . S
C2074 C2073 1.392 . S
C2074 C2075 1.385 1_554 S
C2074 C2076 1.478 . S
C2075 H2069 0.930 . S
C2075 C2071 1.400 . S
C2075 C2074 1.385 1_556 S
C2076 C2074 1.478 . S
C2076 C2078 1.381 . S
C2076 C2082 1.383 . S
C2077 C2073 1.495 . S
C2077 H2083 0.959 . S
C2077 H2084 0.961 . S
C2077 H2085 0.960 . S
C2078 C2076 1.381 . S
C2078 C2079 1.394 . S
C2078 H2086 0.930 . S
C2079 C2078 1.394 . S
C2079 C2080 1.383 . S
C2079 H2087 0.929 . S
C2080 C2079 1.383 . S
C2080 C2081 1.377 . S
C2081 H2065 0.930 . S
C2081 C2080 1.377 . S
C2081 C2082 1.379 . S
C2082 H2066 0.931 . S
C2082 C2076 1.383 . S
C2082 C2081 1.379 . S
H2083 C2077 0.959 . S
H2084 C2077 0.961 . S
H2085 C2077 0.960 . S
H2086 C2078 0.930 . S
H2087 C2079 0.929 . S
H2088 C2096 0.929 . S
H2089 C2098 0.930 . S
H2090 C2100 0.930 . S
H2091 C2103 0.929 . S
H2092 C2106 0.930 . S
H2093 C2108 0.960 . S
H2094 C2108 0.960 . S
H2095 C2108 0.960 1_556 S
C2096 H2088 0.929 . S
C2096 C2097 1.377 . S
C2096 C2098 1.384 . S
C2097 C2096 1.377 . S
C2097 C2103 1.390 1_554 S
C2098 H2089 0.930 . S
C2098 C2096 1.384 . S
C2098 C2099 1.372 . S
C2099 C2098 1.372 . S
C2099 C2100 1.400 1_554 S
C2099 C2104 1.490 . S
C2100 H2090 0.930 . S
C2100 C2099 1.400 1_556 S
C2100 C2103 1.386 . S
H2101 C2117 0.930 . S
H2102 C2118 0.931 . S
C2103 H2091 0.929 . S
C2103 C2097 1.390 1_556 S
C2103 C2100 1.386 . S
C2104 C2099 1.490 . S
C2104 C2106 1.395 . S
C2104 C2107 1.403 . S
H2105 C2111 0.931 . S
C2106 H2092 0.930 . S
C2106 C2104 1.395 . S
C2106 C2109 1.403 . S
C2107 C2104 1.403 . S
C2107 C2108 1.524 . S
C2107 C2111 1.400 . S
C2108 H2093 0.960 . S
C2108 H2094 0.960 . S
C2108 H2095 0.960 1_554 S
C2108 C2107 1.524 . S
C2109 C2106 1.403 . S
C2109 C2110 1.392 . S
C2109 C2113 1.495 . S
C2110 C2109 1.392 . S
C2110 C2111 1.385 . S
C2110 C2112 1.480 . S
C2111 H2105 0.931 . S
C2111 C2107 1.400 . S
C2111 C2110 1.385 . S
C2112 C2110 1.480 . S
C2112 C2114 1.422 . S
C2112 C2118 1.342 1_554 S
C2113 C2109 1.495 . S
C2113 H2119 0.959 . S
C2113 H2120 0.961 1_554 S
C2113 H2121 0.960 . S
C2114 C2112 1.422 . S
C2114 C2115 1.394 . S
C2114 H2122 0.930 . S
C2115 C2114 1.394 . S
C2115 C2116 1.405 . S
C2115 H2123 0.929 . S
C2116 C2115 1.405 . S
C2116 C2117 1.356 1_554 S
C2117 H2101 0.930 . S
C2117 C2116 1.356 1_556 S
C2117 C2118 1.379 . S
C2118 H2102 0.931 . S
C2118 C2112 1.342 1_556 S
C2118 C2117 1.379 . S
H2119 C2113 0.959 . S
H2120 C2113 0.961 1_556 S
H2121 C2113 0.960 . S
H2122 C2114 0.930 . S
H2123 C2115 0.929 . S
H2124 C2132 0.929 . S
H2125 C2134 0.930 . S
H2126 C2136 0.930 . S
H2127 C2139 0.929 . S
H2128 C2142 0.930 . S
H2129 C2144 0.960 . S
H2130 C2144 0.960 . S
H2131 C2144 0.960 . S
C2132 H2124 0.929 . S
C2132 C2133 1.376 1_556 S
C2132 C2134 1.384 . S
C2133 C2132 1.376 1_554 S
C2133 C2139 1.391 . S
C2134 H2125 0.930 . S
C2134 C2132 1.384 . S
C2134 C2135 1.371 . S
C2135 C2134 1.371 . S
C2135 C2136 1.401 1_556 S
C2135 C2140 1.489 . S
C2136 H2126 0.930 . S
C2136 C2135 1.401 1_554 S
C2136 C2139 1.386 . S
H2137 C2153 0.939 . S
H2138 C2154 0.927 1_554 S
C2139 H2127 0.929 . S
C2139 C2133 1.391 . S
C2139 C2136 1.386 . S
C2140 C2135 1.489 . S
C2140 C2142 1.430 . S
C2140 C2143 1.370 1_556 S
H2141 C2147 0.930 . S
C2142 H2128 0.930 . S
C2142 C2140 1.430 . S
C2142 C2145 1.403 . S
C2143 C2140 1.370 1_554 S
C2143 C2144 1.524 . S
C2143 C2147 1.400 . S
C2144 H2129 0.960 . S
C2144 H2130 0.960 . S
C2144 H2131 0.960 . S
C2144 C2143 1.524 . S
C2145 C2142 1.403 . S
C2145 C2146 1.392 . S
C2145 C2149 1.495 . S
C2146 C2145 1.392 . S
C2146 C2147 1.385 1_556 S
C2146 C2148 1.478 . S
C2147 H2141 0.930 . S
C2147 C2143 1.400 . S
C2147 C2146 1.385 1_554 S
C2148 C2146 1.478 . S
C2148 C2150 1.381 . S
C2148 C2154 1.387 . S
C2149 C2145 1.495 . S
C2149 H2155 0.959 . S
C2149 H2156 0.961 . S
C2149 H2157 0.960 . S
C2150 C2148 1.381 . S
C2150 C2151 1.394 . S
C2150 H2158 0.930 . S
C2151 C2150 1.394 . S
C2151 C2152 1.383 . S
C2151 H2159 0.929 . S
C2152 C2151 1.383 . S
C2152 C2153 1.373 1_556 S
C2153 H2137 0.939 . S
C2153 C2152 1.373 1_554 S
C2153 C2154 1.377 1_554 S
C2154 H2138 0.927 1_556 S
C2154 C2148 1.387 . S
C2154 C2153 1.377 1_556 S
H2155 C2149 0.959 . S
H2156 C2149 0.961 . S
H2157 C2149 0.960 . S
H2158 C2150 0.930 . S
H2159 C2151 0.929 . S
H2160 C2168 0.929 . S
H2161 C2170 0.930 . S
H2162 C2172 0.930 . S
H2163 C2175 0.929 . S
H2164 C2178 0.930 . S
H2165 C2180 0.960 . S
H2166 C2180 0.960 . S
H2167 C2180 0.960 . S
C2168 H2160 0.929 . S
C2168 C2169 1.384 . S
C2168 C2170 1.384 . S
C2169 C2168 1.384 . S
C2169 C2175 1.383 1_556 S
C2170 H2161 0.930 . S
C2170 C2168 1.384 . S
C2170 C2171 1.393 . S
C2171 C2170 1.393 . S
C2171 C2172 1.380 1_556 S
C2171 C2176 1.490 . S
C2172 H2162 0.930 . S
C2172 C2171 1.380 1_554 S
C2172 C2175 1.386 . S
H2173 C2189 0.930 . S
H2174 C2190 0.931 . S
C2175 H2163 0.929 . S
C2175 C2169 1.383 1_554 S
C2175 C2172 1.386 . S
C2176 C2171 1.490 . S
C2176 C2178 1.388 1_556 S
C2176 C2179 1.409 . S
H2177 C2183 0.930 . S
C2178 H2164 0.930 . S
C2178 C2176 1.388 1_554 S
C2178 C2181 1.403 . S
C2179 C2176 1.409 . S
C2179 C2180 1.524 . S
C2179 C2183 1.400 . S
C2180 H2165 0.960 . S
C2180 H2166 0.960 . S
C2180 H2167 0.960 . S
C2180 C2179 1.524 . S
C2181 C2178 1.403 . S
C2181 C2182 1.392 . S
C2181 C2185 1.495 . S
C2182 C2181 1.392 . S
C2182 C2183 1.385 1_554 S
C2182 C2184 1.478 . S
C2183 H2177 0.930 . S
C2183 C2179 1.400 . S
C2183 C2182 1.385 1_556 S
C2184 C2182 1.478 . S
C2184 C2186 1.381 1_554 S
C2184 C2190 1.383 . S
C2185 C2181 1.495 . S
C2185 H2191 0.959 . S
C2185 H2192 0.961 . S
C2185 H2193 0.960 . S
C2186 C2184 1.381 1_556 S
C2186 C2187 1.394 . S
C2186 H2194 0.930 . S
C2187 C2186 1.394 . S
C2187 C2188 1.383 1_556 S
C2187 H2195 0.929 . S
C2188 C2187 1.383 1_554 S
C2188 C2189 1.377 . S
C2189 H2173 0.930 . S
C2189 C2188 1.377 . S
C2189 C2190 1.379 . S
C2190 H2174 0.931 . S
C2190 C2184 1.383 . S
C2190 C2189 1.379 . S
H2191 C2185 0.959 . S
H2192 C2185 0.961 . S
H2193 C2185 0.960 . S
H2194 C2186 0.930 . S
H2195 C2187 0.929 . S
H2196 C2204 0.929 . S
H2197 C2206 0.930 . S
H2198 C2208 0.930 . S
H2199 C2211 0.929 . S
H2200 C2214 0.930 . S
H2201 C2216 0.960 . S
H2202 C2216 0.960 1_554 S
H2203 C2216 0.960 . S
C2204 H2196 0.929 . S
C2204 C2205 1.377 . S
C2204 C2206 1.384 . S
C2205 C2204 1.377 . S
C2205 C2211 1.390 1_554 S
C2206 H2197 0.930 . S
C2206 C2204 1.384 . S
C2206 C2207 1.372 . S
C2207 C2206 1.372 . S
C2207 C2208 1.400 1_554 S
C2207 C2212 1.490 . S
C2208 H2198 0.930 . S
C2208 C2207 1.400 1_556 S
C2208 C2211 1.386 . S
H2209 C2225 0.930 . S
H2210 C2226 0.931 . S
C2211 H2199 0.929 . S
C2211 C2205 1.390 1_556 S
C2211 C2208 1.386 . S
C2212 C2207 1.490 . S
C2212 C2214 1.395 . S
C2212 C2215 1.403 1_554 S
H2213 C2219 0.930 . S
C2214 H2200 0.930 . S
C2214 C2212 1.395 . S
C2214 C2217 1.403 . S
C2215 C2212 1.403 1_556 S
C2215 C2216 1.524 . S
C2215 C2219 1.400 . S
C2216 H2201 0.960 . S
C2216 H2202 0.960 1_556 S
C2216 H2203 0.960 . S
C2216 C2215 1.524 . S
C2217 C2214 1.403 . S
C2217 C2218 1.392 . S
C2217 C2221 1.495 . S
C2218 C2217 1.392 . S
C2218 C2219 1.385 1_554 S
C2218 C2220 1.478 . S
C2219 H2213 0.930 . S
C2219 C2215 1.400 . S
C2219 C2218 1.385 1_556 S
C2220 C2218 1.478 . S
C2220 C2222 1.381 . S
C2220 C2226 1.383 1_554 S
C2221 C2217 1.495 . S
C2221 H2227 0.959 . S
C2221 H2228 0.961 1_554 S
C2221 H2229 0.960 . S
C2222 C2220 1.381 . S
C2222 C2223 1.394 . S
C2222 H2230 0.930 . S
C2223 C2222 1.394 . S
C2223 C2224 1.429 . S
C2223 H2231 0.929 . S
C2224 C2223 1.429 . S
C2224 C2225 1.333 1_554 S
C2225 H2209 0.930 . S
C2225 C2224 1.333 1_556 S
C2225 C2226 1.379 . S
C2226 H2210 0.931 . S
C2226 C2220 1.383 1_556 S
C2226 C2225 1.379 . S
H2227 C2221 0.959 . S
H2228 C2221 0.961 1_556 S
H2229 C2221 0.960 . S
H2230 C2222 0.930 . S
H2231 C2223 0.929 . S
H2232 C2240 0.929 . S
H2233 C2242 0.930 . S
H2234 C2244 0.930 . S
H2235 C2247 0.929 . S
H2236 C2250 0.930 . S
H2237 C2252 0.960 . S
H2238 C2252 0.960 . S
H2239 C2252 0.960 . S
C2240 H2232 0.929 . S
C2240 C2241 1.377 . S
C2240 C2242 1.384 . S
C2241 C2240 1.377 . S
C2241 C2247 1.390 1_554 S
C2242 H2233 0.930 . S
C2242 C2240 1.384 . S
C2242 C2243 1.372 . S
C2243 C2242 1.372 . S
C2243 C2244 1.400 1_554 S
C2243 C2248 1.490 . S
C2244 H2234 0.930 . S
C2244 C2243 1.400 1_556 S
C2244 C2247 1.386 . S
H2245 C2261 0.930 . S
H2246 C2262 0.931 . S
C2247 H2235 0.929 . S
C2247 C2241 1.390 1_556 S
C2247 C2244 1.386 . S
C2248 C2243 1.490 . S
C2248 C2250 1.395 1_554 S
C2248 C2251 1.403 . S
H2249 C2255 0.930 . S
C2250 H2236 0.930 . S
C2250 C2248 1.395 1_556 S
C2250 C2253 1.403 . S
C2251 C2248 1.403 . S
C2251 C2252 1.524 . S
C2251 C2255 1.400 . S
C2252 H2237 0.960 . S
C2252 H2238 0.960 . S
C2252 H2239 0.960 . S
C2252 C2251 1.524 . S
C2253 C2250 1.403 . S
C2253 C2254 1.396 . S
C2253 C2257 1.495 . S
C2254 C2253 1.396 . S
C2254 C2255 1.381 1_556 S
C2254 C2256 1.477 . S
C2255 H2249 0.930 . S
C2255 C2251 1.400 . S
C2255 C2254 1.381 1_554 S
C2256 C2254 1.477 . S
C2256 C2258 1.350 1_556 S
C2256 C2262 1.414 . S
C2257 C2253 1.495 . S
C2257 H2263 0.959 . S
C2257 H2264 0.961 . S
C2257 H2265 0.960 . S
C2258 C2256 1.350 1_554 S
C2258 C2259 1.394 . S
C2258 H2266 0.930 . S
C2259 C2258 1.394 . S
C2259 C2260 1.382 1_554 S
C2259 H2267 0.929 . S
C2260 C2259 1.382 1_556 S
C2260 C2261 1.378 . S
C2261 H2245 0.930 . S
C2261 C2260 1.378 . S
C2261 C2262 1.379 . S
C2262 H2246 0.931 . S
C2262 C2256 1.414 . S
C2262 C2261 1.379 . S
H2263 C2257 0.959 . S
H2264 C2257 0.961 . S
H2265 C2257 0.960 . S
H2266 C2258 0.930 . S
H2267 C2259 0.929 . S
H2268 C2276 0.929 . S
H2269 C2278 0.930 . S
H2270 C2280 0.930 . S
H2271 C2283 0.929 . S
H2272 C2286 0.930 . S
H2273 C2288 0.960 . S
H2274 C2288 0.960 . S
H2275 C2288 0.960 . S
C2276 H2268 0.929 . S
C2276 C2277 1.377 . S
C2276 C2278 1.384 . S
C2277 C2276 1.377 . S
C2277 C2283 1.390 1_554 S
C2278 H2269 0.930 . S
C2278 C2276 1.384 . S
C2278 C2279 1.372 . S
C2279 C2278 1.372 . S
C2279 C2280 1.400 1_554 S
C2279 C2284 1.490 . S
C2280 H2270 0.930 . S
C2280 C2279 1.400 1_556 S
C2280 C2283 1.386 . S
H2281 C2297 0.930 . S
H2282 C2298 0.931 . S
C2283 H2271 0.929 . S
C2283 C2277 1.390 1_556 S
C2283 C2280 1.386 . S
C2284 C2279 1.490 . S
C2284 C2286 1.395 . S
C2284 C2287 1.403 1_554 S
H2285 C2291 0.930 . S
C2286 H2272 0.930 . S
C2286 C2284 1.395 . S
C2286 C2289 1.403 . S
C2287 C2284 1.403 1_556 S
C2287 C2288 1.524 . S
C2287 C2291 1.400 . S
C2288 H2273 0.960 . S
C2288 H2274 0.960 . S
C2288 H2275 0.960 . S
C2288 C2287 1.524 . S
C2289 C2286 1.403 . S
C2289 C2290 1.392 . S
C2289 C2293 1.495 . S
C2290 C2289 1.392 . S
C2290 C2291 1.385 1_554 S
C2290 C2292 1.478 . S
C2291 H2285 0.930 . S
C2291 C2287 1.400 . S
C2291 C2290 1.385 1_556 S
C2292 C2290 1.478 . S
C2292 C2294 1.381 . S
C2292 C2298 1.383 1_554 S
C2293 C2289 1.495 . S
C2293 H2299 0.959 . S
C2293 H2300 0.961 . S
C2293 H2301 0.960 . S
C2294 C2292 1.381 . S
C2294 C2295 1.394 . S
C2294 H2302 0.930 . S
C2295 C2294 1.394 . S
C2295 C2296 1.383 . S
C2295 H2303 0.929 . S
C2296 C2295 1.383 . S
C2296 C2297 1.377 1_554 S
C2297 H2281 0.930 . S
C2297 C2296 1.377 1_556 S
C2297 C2298 1.379 . S
C2298 H2282 0.931 . S
C2298 C2292 1.383 1_556 S
C2298 C2297 1.379 . S
H2299 C2293 0.959 . S
H2300 C2293 0.961 . S
H2301 C2293 0.960 . S
H2302 C2294 0.930 . S
H2303 C2295 0.929 . S
H2304 C2312 0.929 . S
H2305 C2314 0.930 . S
H2306 C2316 0.930 . S
H2307 C2319 0.929 . S
H2308 C2322 0.930 . S
H2309 C2324 0.960 . S
H2310 C2324 0.960 . S
H2311 C2324 0.960 . S
C2312 H2304 0.929 . S
C2312 C2313 1.387 . S
C2312 C2314 1.384 . S
C2313 C2312 1.387 . S
C2313 C2319 1.381 1_554 S
C2314 H2305 0.930 . S
C2314 C2312 1.384 . S
C2314 C2315 1.372 . S
C2315 C2314 1.372 . S
C2315 C2316 1.400 1_554 S
C2315 C2320 1.491 . S
C2316 H2306 0.930 . S
C2316 C2315 1.400 1_556 S
C2316 C2319 1.386 . S
H2317 C2333 0.930 . S
H2318 C2334 0.931 . S
C2319 H2307 0.929 . S
C2319 C2313 1.381 1_556 S
C2319 C2316 1.386 . S
C2320 C2315 1.491 . S
C2320 C2322 1.382 1_554 S
C2320 C2323 1.416 . S
H2321 C2327 0.930 . S
C2322 H2308 0.930 . S
C2322 C2320 1.382 1_556 S
C2322 C2325 1.403 . S
C2323 C2320 1.416 . S
C2323 C2324 1.524 . S
C2323 C2327 1.400 . S
C2324 H2309 0.960 . S
C2324 H2310 0.960 . S
C2324 H2311 0.960 . S
C2324 C2323 1.524 . S
C2325 C2322 1.403 . S
C2325 C2326 1.403 . S
C2325 C2329 1.495 . S
C2326 C2325 1.403 . S
C2326 C2327 1.374 1_556 S
C2326 C2328 1.479 . S
C2327 H2321 0.930 . S
C2327 C2323 1.400 . S
C2327 C2326 1.374 1_554 S
C2328 C2326 1.479 . S
C2328 C2330 1.381 1_556 S
C2328 C2334 1.383 . S
C2329 C2325 1.495 . S
C2329 H2335 0.959 . S
C2329 H2336 0.961 . S
C2329 H2337 0.960 . S
C2330 C2328 1.381 1_554 S
C2330 C2331 1.394 . S
C2330 H2338 0.930 . S
C2331 C2330 1.394 . S
C2331 C2332 1.371 1_554 S
C2331 H2339 0.929 . S
C2332 C2331 1.371 1_556 S
C2332 C2333 1.390 . S
C2333 H2317 0.930 . S
C2333 C2332 1.390 . S
C2333 C2334 1.379 . S
C2334 H2318 0.931 . S
C2334 C2328 1.383 . S
C2334 C2333 1.379 . S
H2335 C2329 0.959 . S
H2336 C2329 0.961 . S
H2337 C2329 0.960 . S
H2338 C2330 0.930 . S
H2339 C2331 0.929 . S
H2340 C2348 0.929 . S
H2341 C2350 0.930 . S
H2342 C2352 0.930 . S
H2343 C2355 0.929 . S
H2344 C2358 0.930 . S
H2345 C2360 0.960 . S
H2346 C2360 0.960 . S
H2347 C2360 0.960 . S
C2348 H2340 0.929 . S
C2348 C2349 1.377 . S
C2348 C2350 1.384 . S
C2349 C2348 1.377 . S
C2349 C2355 1.390 . S
C2350 H2341 0.930 . S
C2350 C2348 1.384 . S
C2350 C2351 1.372 . S
C2351 C2350 1.372 . S
C2351 C2352 1.400 . S
C2351 C2356 1.490 . S
C2352 H2342 0.930 . S
C2352 C2351 1.400 . S
C2352 C2355 1.386 . S
H2353 C2369 0.930 . S
H2354 C2370 0.931 . S
C2355 H2343 0.929 . S
C2355 C2349 1.390 . S
C2355 C2352 1.386 . S
C2356 C2351 1.490 . S
C2356 C2358 1.395 . S
C2356 C2359 1.403 . S
H2357 C2363 0.930 . S
C2358 H2344 0.930 . S
C2358 C2356 1.395 . S
C2358 C2361 1.403 . S
C2359 C2356 1.403 . S
C2359 C2360 1.524 . S
C2359 C2363 1.400 . S
C2360 H2345 0.960 . S
C2360 H2346 0.960 . S
C2360 H2347 0.960 . S
C2360 C2359 1.524 . S
C2361 C2358 1.403 . S
C2361 C2362 1.392 . S
C2361 C2365 1.495 . S
C2362 C2361 1.392 . S
C2362 C2363 1.385 . S
C2362 C2364 1.478 . S
C2363 H2357 0.930 . S
C2363 C2359 1.400 . S
C2363 C2362 1.385 . S
C2364 C2362 1.478 . S
C2364 C2366 1.381 . S
C2364 C2370 1.383 . S
C2365 C2361 1.495 . S
C2365 H2371 0.959 . S
C2365 H2372 0.961 . S
C2365 H2373 0.960 . S
C2366 C2364 1.381 . S
C2366 C2367 1.394 . S
C2366 H2374 0.930 . S
C2367 C2366 1.394 . S
C2367 C2368 1.383 . S
C2367 H2375 0.929 . S
C2368 C2367 1.383 . S
C2368 C2369 1.377 . S
C2369 H2353 0.930 . S
C2369 C2368 1.377 . S
C2369 C2370 1.379 . S
C2370 H2354 0.931 . S
C2370 C2364 1.383 . S
C2370 C2369 1.379 . S
H2371 C2365 0.959 . S
H2372 C2365 0.961 . S
H2373 C2365 0.960 . S
H2374 C2366 0.930 . S
H2375 C2367 0.929 . S
H2376 C2384 0.929 . S
H2377 C2386 0.930 . S
H2378 C2388 0.930 . S
H2379 C2391 0.929 . S
H2380 C2394 0.930 . S
H2381 C2396 0.960 . S
H2382 C2396 0.960 . S
H2383 C2396 0.960 . S
C2384 H2376 0.929 . S
C2384 C2385 1.377 . S
C2384 C2386 1.384 . S
C2385 C2384 1.377 . S
C2385 C2391 1.390 . S
C2386 H2377 0.930 . S
C2386 C2384 1.384 . S
C2386 C2387 1.372 . S
C2387 C2386 1.372 . S
C2387 C2388 1.400 . S
C2387 C2392 1.490 . S
C2388 H2378 0.930 . S
C2388 C2387 1.400 . S
C2388 C2391 1.386 . S
H2389 C2405 0.930 . S
H2390 C2406 0.931 . S
C2391 H2379 0.929 . S
C2391 C2385 1.390 . S
C2391 C2388 1.386 . S
C2392 C2387 1.490 . S
C2392 C2394 1.395 . S
C2392 C2395 1.403 . S
H2393 C2399 0.930 . S
C2394 H2380 0.930 . S
C2394 C2392 1.395 . S
C2394 C2397 1.403 . S
C2395 C2392 1.403 . S
C2395 C2396 1.524 . S
C2395 C2399 1.400 . S
C2396 H2381 0.960 . S
C2396 H2382 0.960 . S
C2396 H2383 0.960 . S
C2396 C2395 1.524 . S
C2397 C2394 1.403 . S
C2397 C2398 1.392 . S
C2397 C2401 1.495 . S
C2398 C2397 1.392 . S
C2398 C2399 1.385 . S
C2398 C2400 1.478 . S
C2399 H2393 0.930 . S
C2399 C2395 1.400 . S
C2399 C2398 1.385 . S
C2400 C2398 1.478 . S
C2400 C2402 1.381 . S
C2400 C2406 1.383 . S
C2401 C2397 1.495 . S
C2401 H2407 0.959 . S
C2401 H2408 0.961 . S
C2401 H2409 0.960 . S
C2402 C2400 1.381 . S
C2402 C2403 1.394 . S
C2402 H2410 0.930 . S
C2403 C2402 1.394 . S
C2403 C2404 1.383 . S
C2403 H2411 0.929 . S
C2404 C2403 1.383 . S
C2404 C2405 1.377 . S
C2405 H2389 0.930 . S
C2405 C2404 1.377 . S
C2405 C2406 1.379 . S
C2406 H2390 0.931 . S
C2406 C2400 1.383 . S
C2406 C2405 1.379 . S
H2407 C2401 0.959 . S
H2408 C2401 0.961 . S
H2409 C2401 0.960 . S
H2410 C2402 0.930 . S
H2411 C2403 0.929 . S
H2412 C2420 0.929 . S
H2413 C2422 0.930 . S
H2414 C2424 0.930 . S
H2415 C2427 0.929 . S
H2416 C2430 0.930 . S
H2417 C2432 0.960 . S
H2418 C2432 0.960 . S
H2419 C2432 0.960 . S
C2420 H2412 0.929 . S
C2420 C2421 1.377 . S
C2420 C2422 1.384 . S
C2421 C2420 1.377 . S
C2421 C2427 1.390 . S
C2422 H2413 0.930 . S
C2422 C2420 1.384 . S
C2422 C2423 1.372 . S
C2423 C2422 1.372 . S
C2423 C2424 1.400 . S
C2423 C2428 1.490 . S
C2424 H2414 0.930 . S
C2424 C2423 1.400 . S
C2424 C2427 1.386 . S
H2425 C2441 0.930 . S
H2426 C2442 0.931 . S
C2427 H2415 0.929 . S
C2427 C2421 1.390 . S
C2427 C2424 1.386 . S
C2428 C2423 1.490 . S
C2428 C2430 1.395 . S
C2428 C2431 1.403 . S
H2429 C2435 0.930 . S
C2430 H2416 0.930 . S
C2430 C2428 1.395 . S
C2430 C2433 1.403 . S
C2431 C2428 1.403 . S
C2431 C2432 1.524 . S
C2431 C2435 1.400 . S
C2432 H2417 0.960 . S
C2432 H2418 0.960 . S
C2432 H2419 0.960 . S
C2432 C2431 1.524 . S
C2433 C2430 1.403 . S
C2433 C2434 1.392 . S
C2433 C2437 1.495 . S
C2434 C2433 1.392 . S
C2434 C2435 1.385 . S
C2434 C2436 1.478 . S
C2435 H2429 0.930 . S
C2435 C2431 1.400 . S
C2435 C2434 1.385 . S
C2436 C2434 1.478 . S
C2436 C2438 1.381 . S
C2436 C2442 1.383 . S
C2437 C2433 1.495 . S
C2437 H2443 0.959 . S
C2437 H2444 0.961 . S
C2437 H2445 0.960 . S
C2438 C2436 1.381 . S
C2438 C2439 1.394 . S
C2438 H2446 0.930 . S
C2439 C2438 1.394 . S
C2439 C2440 1.383 . S
C2439 H2447 0.929 . S
C2440 C2439 1.383 . S
C2440 C2441 1.377 . S
C2441 H2425 0.930 . S
C2441 C2440 1.377 . S
C2441 C2442 1.379 . S
C2442 H2426 0.931 . S
C2442 C2436 1.383 . S
C2442 C2441 1.379 . S
H2443 C2437 0.959 . S
H2444 C2437 0.961 . S
H2445 C2437 0.960 . S
H2446 C2438 0.930 . S
H2447 C2439 0.929 . S
H2448 C2456 0.929 . S
H2449 C2458 0.930 . S
H2450 C2460 0.930 . S
H2451 C2463 0.929 . S
H2452 C2466 0.930 . S
H2453 C2468 0.960 . S
H2454 C2468 0.960 . S
H2455 C2468 0.960 . S
C2456 H2448 0.929 . S
C2456 C2457 1.377 . S
C2456 C2458 1.384 . S
C2457 C2456 1.377 . S
C2457 C2463 1.390 . S
C2458 H2449 0.930 . S
C2458 C2456 1.384 . S
C2458 C2459 1.372 . S
C2459 C2458 1.372 . S
C2459 C2460 1.400 . S
C2459 C2464 1.490 . S
C2460 H2450 0.930 . S
C2460 C2459 1.400 . S
C2460 C2463 1.386 . S
H2461 C2477 0.930 . S
H2462 C2478 0.931 . S
C2463 H2451 0.929 . S
C2463 C2457 1.390 . S
C2463 C2460 1.386 . S
C2464 C2459 1.490 . S
C2464 C2466 1.395 . S
C2464 C2467 1.403 . S
H2465 C2471 0.930 . S
C2466 H2452 0.930 . S
C2466 C2464 1.395 . S
C2466 C2469 1.403 . S
C2467 C2464 1.403 . S
C2467 C2468 1.524 . S
C2467 C2471 1.400 . S
C2468 H2453 0.960 . S
C2468 H2454 0.960 . S
C2468 H2455 0.960 . S
C2468 C2467 1.524 . S
C2469 C2466 1.403 . S
C2469 C2470 1.392 . S
C2469 C2473 1.495 . S
C2470 C2469 1.392 . S
C2470 C2471 1.385 . S
C2470 C2472 1.478 . S
C2471 H2465 0.930 . S
C2471 C2467 1.400 . S
C2471 C2470 1.385 . S
C2472 C2470 1.478 . S
C2472 C2474 1.381 . S
C2472 C2478 1.383 . S
C2473 C2469 1.495 . S
C2473 H2479 0.959 . S
C2473 H2480 0.961 . S
C2473 H2481 0.960 . S
C2474 C2472 1.381 . S
C2474 C2475 1.394 . S
C2474 H2482 0.930 . S
C2475 C2474 1.394 . S
C2475 C2476 1.383 . S
C2475 H2483 0.929 . S
C2476 C2475 1.383 . S
C2476 C2477 1.377 . S
C2477 H2461 0.930 . S
C2477 C2476 1.377 . S
C2477 C2478 1.379 . S
C2478 H2462 0.931 . S
C2478 C2472 1.383 . S
C2478 C2477 1.379 . S
H2479 C2473 0.959 . S
H2480 C2473 0.961 . S
H2481 C2473 0.960 . S
H2482 C2474 0.930 . S
H2483 C2475 0.929 . S
H2484 C2492 0.929 . S
H2485 C2494 0.930 . S
H2486 C2496 0.930 . S
H2487 C2499 0.929 . S
H2488 C2502 0.930 . S
H2489 C2504 0.960 . S
H2490 C2504 0.960 . S
H2491 C2504 0.960 . S
C2492 H2484 0.929 . S
C2492 C2493 1.377 . S
C2492 C2494 1.384 . S
C2493 C2492 1.377 . S
C2493 C2499 1.390 . S
C2494 H2485 0.930 . S
C2494 C2492 1.384 . S
C2494 C2495 1.372 . S
C2495 C2494 1.372 . S
C2495 C2496 1.400 . S
C2495 C2500 1.490 . S
C2496 H2486 0.930 . S
C2496 C2495 1.400 . S
C2496 C2499 1.386 . S
H2497 C2513 0.930 . S
H2498 C2514 0.931 . S
C2499 H2487 0.929 . S
C2499 C2493 1.390 . S
C2499 C2496 1.386 . S
C2500 C2495 1.490 . S
C2500 C2502 1.395 . S
C2500 C2503 1.403 . S
H2501 C2507 0.930 . S
C2502 H2488 0.930 . S
C2502 C2500 1.395 . S
C2502 C2505 1.403 . S
C2503 C2500 1.403 . S
C2503 C2504 1.524 . S
C2503 C2507 1.400 . S
C2504 H2489 0.960 . S
C2504 H2490 0.960 . S
C2504 H2491 0.960 . S
C2504 C2503 1.524 . S
C2505 C2502 1.403 . S
C2505 C2506 1.392 . S
C2505 C2509 1.495 . S
C2506 C2505 1.392 . S
C2506 C2507 1.385 . S
C2506 C2508 1.478 . S
C2507 H2501 0.930 . S
C2507 C2503 1.400 . S
C2507 C2506 1.385 . S
C2508 C2506 1.478 . S
C2508 C2510 1.381 . S
C2508 C2514 1.383 . S
C2509 C2505 1.495 . S
C2509 H2515 0.959 . S
C2509 H2516 0.961 . S
C2509 H2517 0.960 . S
C2510 C2508 1.381 . S
C2510 C2511 1.394 . S
C2510 H2518 0.930 . S
C2511 C2510 1.394 . S
C2511 C2512 1.383 . S
C2511 H2519 0.929 . S
C2512 C2511 1.383 . S
C2512 C2513 1.377 . S
C2513 H2497 0.930 . S
C2513 C2512 1.377 . S
C2513 C2514 1.379 . S
C2514 H2498 0.931 . S
C2514 C2508 1.383 . S
C2514 C2513 1.379 . S
H2515 C2509 0.959 . S
H2516 C2509 0.961 . S
H2517 C2509 0.960 . S
H2518 C2510 0.930 . S
H2519 C2511 0.929 . S
H2520 C2528 0.929 . S
H2521 C2530 0.930 . S
H2522 C2532 0.930 . S
H2523 C2535 0.929 . S
H2524 C2538 0.930 . S
H2525 C2540 0.960 . S
H2526 C2540 0.960 . S
H2527 C2540 0.960 . S
C2528 H2520 0.929 . S
C2528 C2529 1.377 . S
C2528 C2530 1.384 . S
C2529 C2528 1.377 . S
C2529 C2535 1.390 . S
C2530 H2521 0.930 . S
C2530 C2528 1.384 . S
C2530 C2531 1.372 . S
C2531 C2530 1.372 . S
C2531 C2532 1.400 . S
C2531 C2536 1.490 . S
C2532 H2522 0.930 . S
C2532 C2531 1.400 . S
C2532 C2535 1.386 . S
H2533 C2549 0.930 . S
H2534 C2550 0.931 . S
C2535 H2523 0.929 . S
C2535 C2529 1.390 . S
C2535 C2532 1.386 . S
C2536 C2531 1.490 . S
C2536 C2538 1.395 . S
C2536 C2539 1.403 . S
H2537 C2543 0.930 . S
C2538 H2524 0.930 . S
C2538 C2536 1.395 . S
C2538 C2541 1.403 . S
C2539 C2536 1.403 . S
C2539 C2540 1.524 . S
C2539 C2543 1.400 . S
C2540 H2525 0.960 . S
C2540 H2526 0.960 . S
C2540 H2527 0.960 . S
C2540 C2539 1.524 . S
C2541 C2538 1.403 . S
C2541 C2542 1.392 . S
C2541 C2545 1.495 . S
C2542 C2541 1.392 . S
C2542 C2543 1.385 . S
C2542 C2544 1.478 . S
C2543 H2537 0.930 . S
C2543 C2539 1.400 . S
C2543 C2542 1.385 . S
C2544 C2542 1.478 . S
C2544 C2546 1.381 . S
C2544 C2550 1.383 . S
C2545 C2541 1.495 . S
C2545 H2551 0.959 . S
C2545 H2552 0.961 . S
C2545 H2553 0.960 . S
C2546 C2544 1.381 . S
C2546 C2547 1.394 . S
C2546 H2554 0.930 . S
C2547 C2546 1.394 . S
C2547 C2548 1.383 . S
C2547 H2555 0.929 . S
C2548 C2547 1.383 . S
C2548 C2549 1.377 . S
C2549 H2533 0.930 . S
C2549 C2548 1.377 . S
C2549 C2550 1.379 . S
C2550 H2534 0.931 . S
C2550 C2544 1.383 . S
C2550 C2549 1.379 . S
H2551 C2545 0.959 . S
H2552 C2545 0.961 . S
H2553 C2545 0.960 . S
H2554 C2546 0.930 . S
H2555 C2547 0.929 . S
H2556 C2564 0.929 . S
H2557 C2566 0.930 . S
H2558 C2568 0.930 . S
H2559 C2571 0.929 . S
H2560 C2574 0.930 . S
H2561 C2576 0.960 . S
H2562 C2576 0.960 . S
H2563 C2576 0.960 . S
C2564 H2556 0.929 . S
C2564 C2565 1.377 . S
C2564 C2566 1.384 . S
C2565 C2564 1.377 . S
C2565 C2571 1.390 . S
C2566 H2557 0.930 . S
C2566 C2564 1.384 . S
C2566 C2567 1.372 . S
C2567 C2566 1.372 . S
C2567 C2568 1.400 . S
C2567 C2572 1.490 . S
C2568 H2558 0.930 . S
C2568 C2567 1.400 . S
C2568 C2571 1.386 . S
H2569 C2585 0.930 . S
H2570 C2586 0.931 . S
C2571 H2559 0.929 . S
C2571 C2565 1.390 . S
C2571 C2568 1.386 . S
C2572 C2567 1.490 . S
C2572 C2574 1.395 . S
C2572 C2575 1.403 . S
H2573 C2579 0.930 . S
C2574 H2560 0.930 . S
C2574 C2572 1.395 . S
C2574 C2577 1.403 . S
C2575 C2572 1.403 . S
C2575 C2576 1.524 . S
C2575 C2579 1.400 . S
C2576 H2561 0.960 . S
C2576 H2562 0.960 . S
C2576 H2563 0.960 . S
C2576 C2575 1.524 . S
C2577 C2574 1.403 . S
C2577 C2578 1.392 . S
C2577 C2581 1.495 . S
C2578 C2577 1.392 . S
C2578 C2579 1.385 . S
C2578 C2580 1.478 . S
C2579 H2573 0.930 . S
C2579 C2575 1.400 . S
C2579 C2578 1.385 . S
C2580 C2578 1.478 . S
C2580 C2582 1.381 . S
C2580 C2586 1.383 . S
C2581 C2577 1.495 . S
C2581 H2587 0.959 . S
C2581 H2588 0.961 . S
C2581 H2589 0.960 . S
C2582 C2580 1.381 . S
C2582 C2583 1.394 . S
C2582 H2590 0.930 . S
C2583 C2582 1.394 . S
C2583 C2584 1.383 . S
C2583 H2591 0.929 . S
C2584 C2583 1.383 . S
C2584 C2585 1.377 . S
C2585 H2569 0.930 . S
C2585 C2584 1.377 . S
C2585 C2586 1.379 . S
C2586 H2570 0.931 . S
C2586 C2580 1.383 . S
C2586 C2585 1.379 . S
H2587 C2581 0.959 . S
H2588 C2581 0.961 . S
H2589 C2581 0.960 . S
H2590 C2582 0.930 . S
H2591 C2583 0.929 . S
H2592 C2600 0.929 . S
H2593 C2602 0.930 . S
H2594 C2604 0.930 . S
H2595 C2607 0.929 . S
H2596 C2610 0.930 . S
H2597 C2612 0.960 . S
H2598 C2612 0.960 . S
H2599 C2612 0.960 . S
C2600 H2592 0.929 . S
C2600 C2601 1.377 . S
C2600 C2602 1.384 . S
C2601 C2600 1.377 . S
C2601 C2607 1.390 . S
C2602 H2593 0.930 . S
C2602 C2600 1.384 . S
C2602 C2603 1.372 . S
C2603 C2602 1.372 . S
C2603 C2604 1.400 . S
C2603 C2608 1.490 . S
C2604 H2594 0.930 . S
C2604 C2603 1.400 . S
C2604 C2607 1.386 . S
H2605 C2621 0.930 . S
H2606 C2622 0.931 . S
C2607 H2595 0.929 . S
C2607 C2601 1.390 . S
C2607 C2604 1.386 . S
C2608 C2603 1.490 . S
C2608 C2610 1.395 . S
C2608 C2611 1.403 . S
H2609 C2615 0.930 . S
C2610 H2596 0.930 . S
C2610 C2608 1.395 . S
C2610 C2613 1.403 . S
C2611 C2608 1.403 . S
C2611 C2612 1.524 . S
C2611 C2615 1.400 . S
C2612 H2597 0.960 . S
C2612 H2598 0.960 . S
C2612 H2599 0.960 . S
C2612 C2611 1.524 . S
C2613 C2610 1.403 . S
C2613 C2614 1.392 . S
C2613 C2617 1.495 . S
C2614 C2613 1.392 . S
C2614 C2615 1.385 . S
C2614 C2616 1.478 . S
C2615 H2609 0.930 . S
C2615 C2611 1.400 . S
C2615 C2614 1.385 . S
C2616 C2614 1.478 . S
C2616 C2618 1.381 . S
C2616 C2622 1.383 . S
C2617 C2613 1.495 . S
C2617 H2623 0.959 . S
C2617 H2624 0.961 . S
C2617 H2625 0.960 . S
C2618 C2616 1.381 . S
C2618 C2619 1.394 . S
C2618 H2626 0.930 . S
C2619 C2618 1.394 . S
C2619 C2620 1.383 . S
C2619 H2627 0.929 . S
C2620 C2619 1.383 . S
C2620 C2621 1.377 . S
C2621 H2605 0.930 . S
C2621 C2620 1.377 . S
C2621 C2622 1.379 . S
C2622 H2606 0.931 . S
C2622 C2616 1.383 . S
C2622 C2621 1.379 . S
H2623 C2617 0.959 . S
H2624 C2617 0.961 . S
H2625 C2617 0.960 . S
H2626 C2618 0.930 . S
H2627 C2619 0.929 . S
H2628 C2636 0.929 . S
H2629 C2638 0.930 . S
H2630 C2640 0.930 . S
H2631 C2643 0.929 . S
H2632 C2646 0.930 . S
H2633 C2648 0.960 . S
H2634 C2648 0.960 . S
H2635 C2648 0.960 . S
C2636 H2628 0.929 . S
C2636 C2637 1.377 . S
C2636 C2638 1.384 . S
C2637 C2636 1.377 . S
C2637 C2643 1.390 . S
C2638 H2629 0.930 . S
C2638 C2636 1.384 . S
C2638 C2639 1.372 . S
C2639 C2638 1.372 . S
C2639 C2640 1.400 . S
C2639 C2644 1.490 . S
C2640 H2630 0.930 . S
C2640 C2639 1.400 . S
C2640 C2643 1.386 . S
H2641 C2657 0.930 . S
H2642 C2658 0.931 . S
C2643 H2631 0.929 . S
C2643 C2637 1.390 . S
C2643 C2640 1.386 . S
C2644 C2639 1.490 . S
C2644 C2646 1.395 . S
C2644 C2647 1.403 . S
H2645 C2651 0.930 . S
C2646 H2632 0.930 . S
C2646 C2644 1.395 . S
C2646 C2649 1.403 . S
C2647 C2644 1.403 . S
C2647 C2648 1.524 . S
C2647 C2651 1.400 . S
C2648 H2633 0.960 . S
C2648 H2634 0.960 . S
C2648 H2635 0.960 . S
C2648 C2647 1.524 . S
C2649 C2646 1.403 . S
C2649 C2650 1.392 . S
C2649 C2653 1.495 . S
C2650 C2649 1.392 . S
C2650 C2651 1.385 . S
C2650 C2652 1.478 . S
C2651 H2645 0.930 . S
C2651 C2647 1.400 . S
C2651 C2650 1.385 . S
C2652 C2650 1.478 . S
C2652 C2654 1.381 . S
C2652 C2658 1.383 . S
C2653 C2649 1.495 . S
C2653 H2659 0.959 . S
C2653 H2660 0.961 . S
C2653 H2661 0.960 . S
C2654 C2652 1.381 . S
C2654 C2655 1.394 . S
C2654 H2662 0.930 . S
C2655 C2654 1.394 . S
C2655 C2656 1.383 . S
C2655 H2663 0.929 . S
C2656 C2655 1.383 . S
C2656 C2657 1.377 . S
C2657 H2641 0.930 . S
C2657 C2656 1.377 . S
C2657 C2658 1.379 . S
C2658 H2642 0.931 . S
C2658 C2652 1.383 . S
C2658 C2657 1.379 . S
H2659 C2653 0.959 . S
H2660 C2653 0.961 . S
H2661 C2653 0.960 . S
H2662 C2654 0.930 . S
H2663 C2655 0.929 . S
H2664 C2672 0.929 . S
H2665 C2674 0.930 . S
H2666 C2676 0.930 . S
H2667 C2679 0.929 . S
H2668 C2682 0.930 . S
H2669 C2684 0.960 . S
H2670 C2684 0.960 . S
H2671 C2684 0.960 . S
C2672 H2664 0.929 . S
C2672 C2673 1.377 . S
C2672 C2674 1.384 . S
C2673 C2672 1.377 . S
C2673 C2679 1.390 . S
C2674 H2665 0.930 . S
C2674 C2672 1.384 . S
C2674 C2675 1.372 . S
C2675 C2674 1.372 . S
C2675 C2676 1.400 . S
C2675 C2680 1.490 . S
C2676 H2666 0.930 . S
C2676 C2675 1.400 . S
C2676 C2679 1.386 . S
H2677 C2693 0.930 . S
H2678 C2694 0.931 . S
C2679 H2667 0.929 . S
C2679 C2673 1.390 . S
C2679 C2676 1.386 . S
C2680 C2675 1.490 . S
C2680 C2682 1.395 . S
C2680 C2683 1.403 . S
H2681 C2687 0.930 . S
C2682 H2668 0.930 . S
C2682 C2680 1.395 . S
C2682 C2685 1.403 . S
C2683 C2680 1.403 . S
C2683 C2684 1.524 . S
C2683 C2687 1.400 . S
C2684 H2669 0.960 . S
C2684 H2670 0.960 . S
C2684 H2671 0.960 . S
C2684 C2683 1.524 . S
C2685 C2682 1.403 . S
C2685 C2686 1.392 . S
C2685 C2689 1.495 . S
C2686 C2685 1.392 . S
C2686 C2687 1.385 . S
C2686 C2688 1.478 . S
C2687 H2681 0.930 . S
C2687 C2683 1.400 . S
C2687 C2686 1.385 . S
C2688 C2686 1.478 . S
C2688 C2690 1.381 . S
C2688 C2694 1.383 . S
C2689 C2685 1.495 . S
C2689 H2695 0.959 . S
C2689 H2696 0.961 . S
C2689 H2697 0.960 . S
C2690 C2688 1.381 . S
C2690 C2691 1.394 . S
C2690 H2698 0.930 . S
C2691 C2690 1.394 . S
C2691 C2692 1.383 . S
C2691 H2699 0.929 . S
C2692 C2691 1.383 . S
C2692 C2693 1.377 . S
C2693 H2677 0.930 . S
C2693 C2692 1.377 . S
C2693 C2694 1.379 . S
C2694 H2678 0.931 . S
C2694 C2688 1.383 . S
C2694 C2693 1.379 . S
H2695 C2689 0.959 . S
H2696 C2689 0.961 . S
H2697 C2689 0.960 . S
H2698 C2690 0.930 . S
H2699 C2691 0.929 . S
H2700 C2708 0.929 . S
H2701 C2710 0.930 . S
H2702 C2712 0.930 . S
H2703 C2715 0.929 . S
H2704 C2718 0.930 . S
H2705 C2720 0.960 . S
H2706 C2720 0.960 . S
H2707 C2720 0.960 . S
C2708 H2700 0.929 . S
C2708 C2709 1.377 . S
C2708 C2710 1.384 . S
C2709 C2708 1.377 . S
C2709 C2715 1.390 . S
C2710 H2701 0.930 . S
C2710 C2708 1.384 . S
C2710 C2711 1.372 . S
C2711 C2710 1.372 . S
C2711 C2712 1.400 . S
C2711 C2716 1.490 . S
C2712 H2702 0.930 . S
C2712 C2711 1.400 . S
C2712 C2715 1.386 . S
H2713 C2729 0.930 . S
H2714 C2730 0.931 . S
C2715 H2703 0.929 . S
C2715 C2709 1.390 . S
C2715 C2712 1.386 . S
C2716 C2711 1.490 . S
C2716 C2718 1.395 . S
C2716 C2719 1.403 . S
H2717 C2723 0.930 . S
C2718 H2704 0.930 . S
C2718 C2716 1.395 . S
C2718 C2721 1.403 . S
C2719 C2716 1.403 . S
C2719 C2720 1.524 . S
C2719 C2723 1.400 . S
C2720 H2705 0.960 . S
C2720 H2706 0.960 . S
C2720 H2707 0.960 . S
C2720 C2719 1.524 . S
C2721 C2718 1.403 . S
C2721 C2722 1.392 . S
C2721 C2725 1.495 . S
C2722 C2721 1.392 . S
C2722 C2723 1.385 . S
C2722 C2724 1.478 . S
C2723 H2717 0.930 . S
C2723 C2719 1.400 . S
C2723 C2722 1.385 . S
C2724 C2722 1.478 . S
C2724 C2726 1.381 . S
C2724 C2730 1.383 . S
C2725 C2721 1.495 . S
C2725 H2731 0.959 . S
C2725 H2732 0.961 . S
C2725 H2733 0.960 . S
C2726 C2724 1.381 . S
C2726 C2727 1.394 . S
C2726 H2734 0.930 . S
C2727 C2726 1.394 . S
C2727 C2728 1.383 . S
C2727 H2735 0.929 . S
C2728 C2727 1.383 . S
C2728 C2729 1.377 . S
C2729 H2713 0.930 . S
C2729 C2728 1.377 . S
C2729 C2730 1.379 . S
C2730 H2714 0.931 . S
C2730 C2724 1.383 . S
C2730 C2729 1.379 . S
H2731 C2725 0.959 . S
H2732 C2725 0.961 . S
H2733 C2725 0.960 . S
H2734 C2726 0.930 . S
H2735 C2727 0.929 . S
H2736 C2744 0.929 . S
H2737 C2746 0.930 . S
H2738 C2748 0.930 . S
H2739 C2751 0.929 . S
H2740 C2754 0.930 . S
H2741 C2756 0.960 . S
H2742 C2756 0.960 . S
H2743 C2756 0.960 . S
C2744 H2736 0.929 . S
C2744 C2745 1.377 . S
C2744 C2746 1.384 . S
C2745 C2744 1.377 . S
C2745 C2751 1.390 . S
C2746 H2737 0.930 . S
C2746 C2744 1.384 . S
C2746 C2747 1.372 . S
C2747 C2746 1.372 . S
C2747 C2748 1.400 . S
C2747 C2752 1.490 . S
C2748 H2738 0.930 . S
C2748 C2747 1.400 . S
C2748 C2751 1.386 . S
H2749 C2765 0.930 . S
H2750 C2766 0.931 . S
C2751 H2739 0.929 . S
C2751 C2745 1.390 . S
C2751 C2748 1.386 . S
C2752 C2747 1.490 . S
C2752 C2754 1.395 . S
C2752 C2755 1.403 . S
H2753 C2759 0.930 . S
C2754 H2740 0.930 . S
C2754 C2752 1.395 . S
C2754 C2757 1.403 . S
C2755 C2752 1.403 . S
C2755 C2756 1.524 . S
C2755 C2759 1.400 . S
C2756 H2741 0.960 . S
C2756 H2742 0.960 . S
C2756 H2743 0.960 . S
C2756 C2755 1.524 . S
C2757 C2754 1.403 . S
C2757 C2758 1.392 . S
C2757 C2761 1.495 . S
C2758 C2757 1.392 . S
C2758 C2759 1.385 . S
C2758 C2760 1.478 . S
C2759 H2753 0.930 . S
C2759 C2755 1.400 . S
C2759 C2758 1.385 . S
C2760 C2758 1.478 . S
C2760 C2762 1.381 . S
C2760 C2766 1.383 . S
C2761 C2757 1.495 . S
C2761 H2767 0.959 . S
C2761 H2768 0.961 . S
C2761 H2769 0.960 . S
C2762 C2760 1.381 . S
C2762 C2763 1.394 . S
C2762 H2770 0.930 . S
C2763 C2762 1.394 . S
C2763 C2764 1.383 . S
C2763 H2771 0.929 . S
C2764 C2763 1.383 . S
C2764 C2765 1.377 . S
C2765 H2749 0.930 . S
C2765 C2764 1.377 . S
C2765 C2766 1.379 . S
C2766 H2750 0.931 . S
C2766 C2760 1.383 . S
C2766 C2765 1.379 . S
H2767 C2761 0.959 . S
H2768 C2761 0.961 . S
H2769 C2761 0.960 . S
H2770 C2762 0.930 . S
H2771 C2763 0.929 . S
H2772 C2780 0.929 . S
H2773 C2782 0.930 . S
H2774 C2784 0.930 . S
H2775 C2787 0.929 . S
H2776 C2790 0.930 . S
H2777 C2792 0.960 . S
H2778 C2792 0.960 . S
H2779 C2792 0.960 . S
C2780 H2772 0.929 . S
C2780 C2781 1.377 . S
C2780 C2782 1.384 . S
C2781 C2780 1.377 . S
C2781 C2787 1.390 . S
C2782 H2773 0.930 . S
C2782 C2780 1.384 . S
C2782 C2783 1.372 . S
C2783 C2782 1.372 . S
C2783 C2784 1.400 . S
C2783 C2788 1.490 . S
C2784 H2774 0.930 . S
C2784 C2783 1.400 . S
C2784 C2787 1.386 . S
H2785 C2801 0.930 . S
H2786 C2802 0.931 . S
C2787 H2775 0.929 . S
C2787 C2781 1.390 . S
C2787 C2784 1.386 . S
C2788 C2783 1.490 . S
C2788 C2790 1.395 . S
C2788 C2791 1.403 . S
H2789 C2795 0.930 . S
C2790 H2776 0.930 . S
C2790 C2788 1.395 . S
C2790 C2793 1.403 . S
C2791 C2788 1.403 . S
C2791 C2792 1.524 . S
C2791 C2795 1.400 . S
C2792 H2777 0.960 . S
C2792 H2778 0.960 . S
C2792 H2779 0.960 . S
C2792 C2791 1.524 . S
C2793 C2790 1.403 . S
C2793 C2794 1.392 . S
C2793 C2797 1.495 . S
C2794 C2793 1.392 . S
C2794 C2795 1.385 . S
C2794 C2796 1.478 . S
C2795 H2789 0.930 . S
C2795 C2791 1.400 . S
C2795 C2794 1.385 . S
C2796 C2794 1.478 . S
C2796 C2798 1.381 . S
C2796 C2802 1.383 . S
C2797 C2793 1.495 . S
C2797 H2803 0.959 . S
C2797 H2804 0.961 . S
C2797 H2805 0.960 . S
C2798 C2796 1.381 . S
C2798 C2799 1.394 . S
C2798 H2806 0.930 . S
C2799 C2798 1.394 . S
C2799 C2800 1.383 . S
C2799 H2807 0.929 . S
C2800 C2799 1.383 . S
C2800 C2801 1.377 . S
C2801 H2785 0.930 . S
C2801 C2800 1.377 . S
C2801 C2802 1.379 . S
C2802 H2786 0.931 . S
C2802 C2796 1.383 . S
C2802 C2801 1.379 . S
H2803 C2797 0.959 . S
H2804 C2797 0.961 . S
H2805 C2797 0.960 . S
H2806 C2798 0.930 . S
H2807 C2799 0.929 . S
H2808 C2816 0.929 . S
H2809 C2818 0.930 . S
H2810 C2820 0.930 . S
H2811 C2823 0.929 . S
H2812 C2826 0.930 . S
H2813 C2828 0.960 . S
H2814 C2828 0.960 . S
H2815 C2828 0.960 . S
C2816 H2808 0.929 . S
C2816 C2817 1.377 . S
C2816 C2818 1.384 . S
C2817 C2816 1.377 . S
C2817 C2823 1.390 . S
C2818 H2809 0.930 . S
C2818 C2816 1.384 . S
C2818 C2819 1.372 . S
C2819 C2818 1.372 . S
C2819 C2820 1.400 . S
C2819 C2824 1.490 . S
C2820 H2810 0.930 . S
C2820 C2819 1.400 . S
C2820 C2823 1.386 . S
H2821 C2837 0.930 . S
H2822 C2838 0.931 . S
C2823 H2811 0.929 . S
C2823 C2817 1.390 . S
C2823 C2820 1.386 . S
C2824 C2819 1.490 . S
C2824 C2826 1.395 . S
C2824 C2827 1.403 . S
H2825 C2831 0.930 . S
C2826 H2812 0.930 . S
C2826 C2824 1.395 . S
C2826 C2829 1.403 . S
C2827 C2824 1.403 . S
C2827 C2828 1.524 . S
C2827 C2831 1.400 . S
C2828 H2813 0.960 . S
C2828 H2814 0.960 . S
C2828 H2815 0.960 . S
C2828 C2827 1.524 . S
C2829 C2826 1.403 . S
C2829 C2830 1.392 . S
C2829 C2833 1.495 . S
C2830 C2829 1.392 . S
C2830 C2831 1.385 . S
C2830 C2832 1.478 . S
C2831 H2825 0.930 . S
C2831 C2827 1.400 . S
C2831 C2830 1.385 . S
C2832 C2830 1.478 . S
C2832 C2834 1.381 . S
C2832 C2838 1.383 . S
C2833 C2829 1.495 . S
C2833 H2839 0.959 . S
C2833 H2840 0.961 . S
C2833 H2841 0.960 . S
C2834 C2832 1.381 . S
C2834 C2835 1.394 . S
C2834 H2842 0.930 . S
C2835 C2834 1.394 . S
C2835 C2836 1.383 . S
C2835 H2843 0.929 . S
C2836 C2835 1.383 . S
C2836 C2837 1.377 . S
C2837 H2821 0.930 . S
C2837 C2836 1.377 . S
C2837 C2838 1.379 . S
C2838 H2822 0.931 . S
C2838 C2832 1.383 . S
C2838 C2837 1.379 . S
H2839 C2833 0.959 . S
H2840 C2833 0.961 . S
H2841 C2833 0.960 . S
H2842 C2834 0.930 . S
H2843 C2835 0.929 . S
H2844 C2852 0.929 . S
H2845 C2854 0.930 . S
H2846 C2856 0.930 . S
H2847 C2859 0.929 . S
H2848 C2862 0.930 . S
H2849 C2864 0.960 . S
H2850 C2864 0.960 . S
H2851 C2864 0.960 . S
C2852 H2844 0.929 . S
C2852 C2853 1.377 . S
C2852 C2854 1.384 . S
C2853 C2852 1.377 . S
C2853 C2859 1.390 . S
C2854 H2845 0.930 . S
C2854 C2852 1.384 . S
C2854 C2855 1.372 . S
C2855 C2854 1.372 . S
C2855 C2856 1.400 . S
C2855 C2860 1.490 . S
C2856 H2846 0.930 . S
C2856 C2855 1.400 . S
C2856 C2859 1.386 . S
H2857 C2873 0.930 . S
H2858 C2874 0.931 . S
C2859 H2847 0.929 . S
C2859 C2853 1.390 . S
C2859 C2856 1.386 . S
C2860 C2855 1.490 . S
C2860 C2862 1.395 . S
C2860 C2863 1.403 . S
H2861 C2867 0.930 . S
C2862 H2848 0.930 . S
C2862 C2860 1.395 . S
C2862 C2865 1.403 . S
C2863 C2860 1.403 . S
C2863 C2864 1.524 . S
C2863 C2867 1.400 . S
C2864 H2849 0.960 . S
C2864 H2850 0.960 . S
C2864 H2851 0.960 . S
C2864 C2863 1.524 . S
C2865 C2862 1.403 . S
C2865 C2866 1.392 . S
C2865 C2869 1.495 . S
C2866 C2865 1.392 . S
C2866 C2867 1.385 . S
C2866 C2868 1.478 . S
C2867 H2861 0.930 . S
C2867 C2863 1.400 . S
C2867 C2866 1.385 . S
C2868 C2866 1.478 . S
C2868 C2870 1.381 . S
C2868 C2874 1.383 . S
C2869 C2865 1.495 . S
C2869 H2875 0.959 . S
C2869 H2876 0.961 . S
C2869 H2877 0.960 . S
C2870 C2868 1.381 . S
C2870 C2871 1.394 . S
C2870 H2878 0.930 . S
C2871 C2870 1.394 . S
C2871 C2872 1.383 . S
C2871 H2879 0.929 . S
C2872 C2871 1.383 . S
C2872 C2873 1.377 . S
C2873 H2857 0.930 . S
C2873 C2872 1.377 . S
C2873 C2874 1.379 . S
C2874 H2858 0.931 . S
C2874 C2868 1.383 . S
C2874 C2873 1.379 . S
H2875 C2869 0.959 . S
H2876 C2869 0.961 . S
H2877 C2869 0.960 . S
H2878 C2870 0.930 . S
H2879 C2871 0.929 . S
H2880 C2888 0.929 . S
H2881 C2890 0.930 . S
H2882 C2892 0.930 . S
H2883 C2895 0.929 . S
H2884 C2898 0.930 . S
H2885 C2900 0.960 . S
H2886 C2900 0.960 . S
H2887 C2900 0.960 . S
C2888 H2880 0.929 . S
C2888 C2889 1.377 . S
C2888 C2890 1.384 . S
C2889 C2888 1.377 . S
C2889 C2895 1.390 . S
C2890 H2881 0.930 . S
C2890 C2888 1.384 . S
C2890 C2891 1.372 . S
C2891 C2890 1.372 . S
C2891 C2892 1.400 . S
C2891 C2896 1.490 . S
C2892 H2882 0.930 . S
C2892 C2891 1.400 . S
C2892 C2895 1.386 . S
H2893 C2909 0.930 . S
H2894 C2910 0.931 . S
C2895 H2883 0.929 . S
C2895 C2889 1.390 . S
C2895 C2892 1.386 . S
C2896 C2891 1.490 . S
C2896 C2898 1.395 . S
C2896 C2899 1.403 . S
H2897 C2903 0.930 . S
C2898 H2884 0.930 . S
C2898 C2896 1.395 . S
C2898 C2901 1.403 . S
C2899 C2896 1.403 . S
C2899 C2900 1.524 . S
C2899 C2903 1.400 . S
C2900 H2885 0.960 . S
C2900 H2886 0.960 . S
C2900 H2887 0.960 . S
C2900 C2899 1.524 . S
C2901 C2898 1.403 . S
C2901 C2902 1.392 . S
C2901 C2905 1.495 . S
C2902 C2901 1.392 . S
C2902 C2903 1.385 . S
C2902 C2904 1.478 . S
C2903 H2897 0.930 . S
C2903 C2899 1.400 . S
C2903 C2902 1.385 . S
C2904 C2902 1.478 . S
C2904 C2906 1.381 . S
C2904 C2910 1.383 . S
C2905 C2901 1.495 . S
C2905 H2911 0.959 . S
C2905 H2912 0.961 . S
C2905 H2913 0.960 . S
C2906 C2904 1.381 . S
C2906 C2907 1.394 . S
C2906 H2914 0.930 . S
C2907 C2906 1.394 . S
C2907 C2908 1.383 . S
C2907 H2915 0.929 . S
C2908 C2907 1.383 . S
C2908 C2909 1.377 . S
C2909 H2893 0.930 . S
C2909 C2908 1.377 . S
C2909 C2910 1.379 . S
C2910 H2894 0.931 . S
C2910 C2904 1.383 . S
C2910 C2909 1.379 . S
H2911 C2905 0.959 . S
H2912 C2905 0.961 . S
H2913 C2905 0.960 . S
H2914 C2906 0.930 . S
H2915 C2907 0.929 . S
H2916 C2924 0.929 . S
H2917 C2926 0.930 . S
H2918 C2928 0.930 . S
H2919 C2931 0.929 . S
H2920 C2934 0.930 . S
H2921 C2936 0.960 . S
H2922 C2936 0.960 . S
H2923 C2936 0.960 . S
C2924 H2916 0.929 . S
C2924 C2925 1.377 . S
C2924 C2926 1.384 . S
C2925 C2924 1.377 . S
C2925 C2931 1.390 . S
C2926 H2917 0.930 . S
C2926 C2924 1.384 . S
C2926 C2927 1.372 . S
C2927 C2926 1.372 . S
C2927 C2928 1.400 . S
C2927 C2932 1.490 . S
C2928 H2918 0.930 . S
C2928 C2927 1.400 . S
C2928 C2931 1.386 . S
H2929 C2945 0.930 . S
H2930 C2946 0.931 . S
C2931 H2919 0.929 . S
C2931 C2925 1.390 . S
C2931 C2928 1.386 . S
C2932 C2927 1.490 . S
C2932 C2934 1.395 . S
C2932 C2935 1.403 . S
H2933 C2939 0.930 . S
C2934 H2920 0.930 . S
C2934 C2932 1.395 . S
C2934 C2937 1.403 . S
C2935 C2932 1.403 . S
C2935 C2936 1.524 . S
C2935 C2939 1.400 . S
C2936 H2921 0.960 . S
C2936 H2922 0.960 . S
C2936 H2923 0.960 . S
C2936 C2935 1.524 . S
C2937 C2934 1.403 . S
C2937 C2938 1.392 . S
C2937 C2941 1.495 . S
C2938 C2937 1.392 . S
C2938 C2939 1.385 . S
C2938 C2940 1.478 . S
C2939 H2933 0.930 . S
C2939 C2935 1.400 . S
C2939 C2938 1.385 . S
C2940 C2938 1.478 . S
C2940 C2942 1.381 . S
C2940 C2946 1.383 . S
C2941 C2937 1.495 . S
C2941 H2947 0.959 . S
C2941 H2948 0.961 . S
C2941 H2949 0.960 . S
C2942 C2940 1.381 . S
C2942 C2943 1.394 . S
C2942 H2950 0.930 . S
C2943 C2942 1.394 . S
C2943 C2944 1.383 . S
C2943 H2951 0.929 . S
C2944 C2943 1.383 . S
C2944 C2945 1.377 . S
C2945 H2929 0.930 . S
C2945 C2944 1.377 . S
C2945 C2946 1.379 . S
C2946 H2930 0.931 . S
C2946 C2940 1.383 . S
C2946 C2945 1.379 . S
H2947 C2941 0.959 . S
H2948 C2941 0.961 . S
H2949 C2941 0.960 . S
H2950 C2942 0.930 . S
H2951 C2943 0.929 . S
H2952 C2960 0.929 . S
H2953 C2962 0.930 . S
H2954 C2964 0.930 . S
H2955 C2967 0.929 . S
H2956 C2970 0.930 . S
H2957 C2972 0.960 . S
H2958 C2972 0.960 . S
H2959 C2972 0.960 . S
C2960 H2952 0.929 . S
C2960 C2961 1.377 . S
C2960 C2962 1.384 . S
C2961 C2960 1.377 . S
C2961 C2967 1.390 . S
C2962 H2953 0.930 . S
C2962 C2960 1.384 . S
C2962 C2963 1.372 . S
C2963 C2962 1.372 . S
C2963 C2964 1.400 . S
C2963 C2968 1.490 . S
C2964 H2954 0.930 . S
C2964 C2963 1.400 . S
C2964 C2967 1.386 . S
H2965 C2981 0.930 . S
H2966 C2982 0.931 . S
C2967 H2955 0.929 . S
C2967 C2961 1.390 . S
C2967 C2964 1.386 . S
C2968 C2963 1.490 . S
C2968 C2970 1.395 . S
C2968 C2971 1.403 . S
H2969 C2975 0.930 . S
C2970 H2956 0.930 . S
C2970 C2968 1.395 . S
C2970 C2973 1.403 . S
C2971 C2968 1.403 . S
C2971 C2972 1.524 . S
C2971 C2975 1.400 . S
C2972 H2957 0.960 . S
C2972 H2958 0.960 . S
C2972 H2959 0.960 . S
C2972 C2971 1.524 . S
C2973 C2970 1.403 . S
C2973 C2974 1.392 . S
C2973 C2977 1.495 . S
C2974 C2973 1.392 . S
C2974 C2975 1.385 . S
C2974 C2976 1.478 . S
C2975 H2969 0.930 . S
C2975 C2971 1.400 . S
C2975 C2974 1.385 . S
C2976 C2974 1.478 . S
C2976 C2978 1.381 . S
C2976 C2982 1.383 . S
C2977 C2973 1.495 . S
C2977 H2983 0.959 . S
C2977 H2984 0.961 . S
C2977 H2985 0.960 . S
C2978 C2976 1.381 . S
C2978 C2979 1.394 . S
C2978 H2986 0.930 . S
C2979 C2978 1.394 . S
C2979 C2980 1.383 . S
C2979 H2987 0.929 . S
C2980 C2979 1.383 . S
C2980 C2981 1.377 . S
C2981 H2965 0.930 . S
C2981 C2980 1.377 . S
C2981 C2982 1.379 . S
C2982 H2966 0.931 . S
C2982 C2976 1.383 . S
C2982 C2981 1.379 . S
H2983 C2977 0.959 . S
H2984 C2977 0.961 . S
H2985 C2977 0.960 . S
H2986 C2978 0.930 . S
H2987 C2979 0.929 . S
H2988 C2996 0.929 . S
H2989 C2998 0.930 . S
H2990 C3000 0.930 . S
H2991 C3003 0.929 . S
H2992 C3006 0.930 . S
H2993 C3008 0.960 . S
H2994 C3008 0.960 . S
H2995 C3008 0.960 . S
C2996 H2988 0.929 . S
C2996 C2997 1.377 . S
C2996 C2998 1.384 . S
C2997 C2996 1.377 . S
C2997 C3003 1.390 . S
C2998 H2989 0.930 . S
C2998 C2996 1.384 . S
C2998 C2999 1.372 . S
C2999 C2998 1.372 . S
C2999 C3000 1.400 . S
C2999 C3004 1.490 . S
C3000 H2990 0.930 . S
C3000 C2999 1.400 . S
C3000 C3003 1.386 . S
H3001 C3017 0.930 . S
H3002 C3018 0.931 . S
C3003 H2991 0.929 . S
C3003 C2997 1.390 . S
C3003 C3000 1.386 . S
C3004 C2999 1.490 . S
C3004 C3006 1.395 . S
C3004 C3007 1.403 . S
H3005 C3011 0.930 . S
C3006 H2992 0.930 . S
C3006 C3004 1.395 . S
C3006 C3009 1.403 . S
C3007 C3004 1.403 . S
C3007 C3008 1.524 . S
C3007 C3011 1.400 . S
C3008 H2993 0.960 . S
C3008 H2994 0.960 . S
C3008 H2995 0.960 . S
C3008 C3007 1.524 . S
C3009 C3006 1.403 . S
C3009 C3010 1.392 . S
C3009 C3013 1.495 . S
C3010 C3009 1.392 . S
C3010 C3011 1.385 . S
C3010 C3012 1.478 . S
C3011 H3005 0.930 . S
C3011 C3007 1.400 . S
C3011 C3010 1.385 . S
C3012 C3010 1.478 . S
C3012 C3014 1.381 . S
C3012 C3018 1.383 . S
C3013 C3009 1.495 . S
C3013 H3019 0.959 . S
C3013 H3020 0.961 . S
C3013 H3021 0.960 . S
C3014 C3012 1.381 . S
C3014 C3015 1.394 . S
C3014 H3022 0.930 . S
C3015 C3014 1.394 . S
C3015 C3016 1.383 . S
C3015 H3023 0.929 . S
C3016 C3015 1.383 . S
C3016 C3017 1.377 . S
C3017 H3001 0.930 . S
C3017 C3016 1.377 . S
C3017 C3018 1.379 . S
C3018 H3002 0.931 . S
C3018 C3012 1.383 . S
C3018 C3017 1.379 . S
H3019 C3013 0.959 . S
H3020 C3013 0.961 . S
H3021 C3013 0.960 . S
H3022 C3014 0.930 . S
H3023 C3015 0.929 . S
H3024 C3032 0.929 . S
H3025 C3034 0.930 . S
H3026 C3036 0.930 . S
H3027 C3039 0.929 . S
H3028 C3042 0.930 . S
H3029 C3044 0.960 . S
H3030 C3044 0.960 . S
H3031 C3044 0.960 . S
C3032 H3024 0.929 . S
C3032 C3033 1.377 . S
C3032 C3034 1.384 . S
C3033 C3032 1.377 . S
C3033 C3039 1.390 . S
C3034 H3025 0.930 . S
C3034 C3032 1.384 . S
C3034 C3035 1.372 . S
C3035 C3034 1.372 . S
C3035 C3036 1.400 . S
C3035 C3040 1.490 . S
C3036 H3026 0.930 . S
C3036 C3035 1.400 . S
C3036 C3039 1.386 . S
H3037 C3053 0.930 . S
H3038 C3054 0.931 . S
C3039 H3027 0.929 . S
C3039 C3033 1.390 . S
C3039 C3036 1.386 . S
C3040 C3035 1.490 . S
C3040 C3042 1.395 . S
C3040 C3043 1.403 . S
H3041 C3047 0.930 . S
C3042 H3028 0.930 . S
C3042 C3040 1.395 . S
C3042 C3045 1.403 . S
C3043 C3040 1.403 . S
C3043 C3044 1.524 . S
C3043 C3047 1.400 . S
C3044 H3029 0.960 . S
C3044 H3030 0.960 . S
C3044 H3031 0.960 . S
C3044 C3043 1.524 . S
C3045 C3042 1.403 . S
C3045 C3046 1.392 . S
C3045 C3049 1.495 . S
C3046 C3045 1.392 . S
C3046 C3047 1.385 . S
C3046 C3048 1.478 . S
C3047 H3041 0.930 . S
C3047 C3043 1.400 . S
C3047 C3046 1.385 . S
C3048 C3046 1.478 . S
C3048 C3050 1.381 . S
C3048 C3054 1.383 . S
C3049 C3045 1.495 . S
C3049 H3055 0.959 . S
C3049 H3056 0.961 . S
C3049 H3057 0.960 . S
C3050 C3048 1.381 . S
C3050 C3051 1.394 . S
C3050 H3058 0.930 . S
C3051 C3050 1.394 . S
C3051 C3052 1.383 . S
C3051 H3059 0.929 . S
C3052 C3051 1.383 . S
C3052 C3053 1.377 . S
C3053 H3037 0.930 . S
C3053 C3052 1.377 . S
C3053 C3054 1.379 . S
C3054 H3038 0.931 . S
C3054 C3048 1.383 . S
C3054 C3053 1.379 . S
H3055 C3049 0.959 . S
H3056 C3049 0.961 . S
H3057 C3049 0.960 . S
H3058 C3050 0.930 . S
H3059 C3051 0.929 . S
H3060 C3068 0.929 . S
H3061 C3070 0.930 . S
H3062 C3072 0.930 . S
H3063 C3075 0.929 . S
H3064 C3078 0.930 . S
H3065 C3080 0.960 . S
H3066 C3080 0.960 . S
H3067 C3080 0.960 . S
C3068 H3060 0.929 . S
C3068 C3069 1.377 . S
C3068 C3070 1.384 . S
C3069 C3068 1.377 . S
C3069 C3075 1.390 . S
C3070 H3061 0.930 . S
C3070 C3068 1.384 . S
C3070 C3071 1.372 . S
C3071 C3070 1.372 . S
C3071 C3072 1.400 . S
C3071 C3076 1.490 . S
C3072 H3062 0.930 . S
C3072 C3071 1.400 . S
C3072 C3075 1.386 . S
H3073 C3089 0.930 . S
H3074 C3090 0.931 . S
C3075 H3063 0.929 . S
C3075 C3069 1.390 . S
C3075 C3072 1.386 . S
C3076 C3071 1.490 . S
C3076 C3078 1.395 . S
C3076 C3079 1.403 . S
H3077 C3083 0.930 . S
C3078 H3064 0.930 . S
C3078 C3076 1.395 . S
C3078 C3081 1.403 . S
C3079 C3076 1.403 . S
C3079 C3080 1.524 . S
C3079 C3083 1.400 . S
C3080 H3065 0.960 . S
C3080 H3066 0.960 . S
C3080 H3067 0.960 . S
C3080 C3079 1.524 . S
C3081 C3078 1.403 . S
C3081 C3082 1.392 . S
C3081 C3085 1.495 . S
C3082 C3081 1.392 . S
C3082 C3083 1.385 . S
C3082 C3084 1.478 . S
C3083 H3077 0.930 . S
C3083 C3079 1.400 . S
C3083 C3082 1.385 . S
C3084 C3082 1.478 . S
C3084 C3086 1.381 . S
C3084 C3090 1.383 . S
C3085 C3081 1.495 . S
C3085 H3091 0.959 . S
C3085 H3092 0.961 . S
C3085 H3093 0.960 . S
C3086 C3084 1.381 . S
C3086 C3087 1.394 . S
C3086 H3094 0.930 . S
C3087 C3086 1.394 . S
C3087 C3088 1.383 . S
C3087 H3095 0.929 . S
C3088 C3087 1.383 . S
C3088 C3089 1.377 . S
C3089 H3073 0.930 . S
C3089 C3088 1.377 . S
C3089 C3090 1.379 . S
C3090 H3074 0.931 . S
C3090 C3084 1.383 . S
C3090 C3089 1.379 . S
H3091 C3085 0.959 . S
H3092 C3085 0.961 . S
H3093 C3085 0.960 . S
H3094 C3086 0.930 . S
H3095 C3087 0.929 . S
H3096 C3104 0.929 . S
H3097 C3106 0.930 . S
H3098 C3108 0.930 . S
H3099 C3111 0.929 . S
H3100 C3114 0.930 . S
H3101 C3116 0.960 . S
H3102 C3116 0.960 . S
H3103 C3116 0.960 . S
C3104 H3096 0.929 . S
C3104 C3105 1.377 . S
C3104 C3106 1.384 . S
C3105 C3104 1.377 . S
C3105 C3111 1.390 . S
C3106 H3097 0.930 . S
C3106 C3104 1.384 . S
C3106 C3107 1.372 . S
C3107 C3106 1.372 . S
C3107 C3108 1.400 . S
C3107 C3112 1.490 . S
C3108 H3098 0.930 . S
C3108 C3107 1.400 . S
C3108 C3111 1.386 . S
H3109 C3125 0.930 . S
H3110 C3126 0.931 . S
C3111 H3099 0.929 . S
C3111 C3105 1.390 . S
C3111 C3108 1.386 . S
C3112 C3107 1.490 . S
C3112 C3114 1.395 . S
C3112 C3115 1.403 . S
H3113 C3119 0.930 . S
C3114 H3100 0.930 . S
C3114 C3112 1.395 . S
C3114 C3117 1.403 . S
C3115 C3112 1.403 . S
C3115 C3116 1.524 . S
C3115 C3119 1.400 . S
C3116 H3101 0.960 . S
C3116 H3102 0.960 . S
C3116 H3103 0.960 . S
C3116 C3115 1.524 . S
C3117 C3114 1.403 . S
C3117 C3118 1.392 . S
C3117 C3121 1.495 . S
C3118 C3117 1.392 . S
C3118 C3119 1.385 . S
C3118 C3120 1.478 . S
C3119 H3113 0.930 . S
C3119 C3115 1.400 . S
C3119 C3118 1.385 . S
C3120 C3118 1.478 . S
C3120 C3122 1.381 . S
C3120 C3126 1.383 . S
C3121 C3117 1.495 . S
C3121 H3127 0.959 . S
C3121 H3128 0.961 . S
C3121 H3129 0.960 . S
C3122 C3120 1.381 . S
C3122 C3123 1.394 . S
C3122 H3130 0.930 . S
C3123 C3122 1.394 . S
C3123 C3124 1.383 . S
C3123 H3131 0.929 . S
C3124 C3123 1.383 . S
C3124 C3125 1.377 . S
C3125 H3109 0.930 . S
C3125 C3124 1.377 . S
C3125 C3126 1.379 . S
C3126 H3110 0.931 . S
C3126 C3120 1.383 . S
C3126 C3125 1.379 . S
H3127 C3121 0.959 . S
H3128 C3121 0.961 . S
H3129 C3121 0.960 . S
H3130 C3122 0.930 . S
H3131 C3123 0.929 . S
H3132 C3140 0.929 . S
H3133 C3142 0.930 . S
H3134 C3144 0.930 . S
H3135 C3147 0.929 . S
H3136 C3150 0.930 . S
H3137 C3152 0.960 . S
H3138 C3152 0.960 . S
H3139 C3152 0.960 . S
C3140 H3132 0.929 . S
C3140 C3141 1.377 . S
C3140 C3142 1.384 . S
C3141 C3140 1.377 . S
C3141 C3147 1.390 . S
C3142 H3133 0.930 . S
C3142 C3140 1.384 . S
C3142 C3143 1.372 . S
C3143 C3142 1.372 . S
C3143 C3144 1.400 . S
C3143 C3148 1.490 . S
C3144 H3134 0.930 . S
C3144 C3143 1.400 . S
C3144 C3147 1.386 . S
H3145 C3161 0.930 . S
H3146 C3162 0.931 . S
C3147 H3135 0.929 . S
C3147 C3141 1.390 . S
C3147 C3144 1.386 . S
C3148 C3143 1.490 . S
C3148 C3150 1.395 . S
C3148 C3151 1.403 . S
H3149 C3155 0.930 . S
C3150 H3136 0.930 . S
C3150 C3148 1.395 . S
C3150 C3153 1.403 . S
C3151 C3148 1.403 . S
C3151 C3152 1.524 . S
C3151 C3155 1.400 . S
C3152 H3137 0.960 . S
C3152 H3138 0.960 . S
C3152 H3139 0.960 . S
C3152 C3151 1.524 . S
C3153 C3150 1.403 . S
C3153 C3154 1.392 . S
C3153 C3157 1.495 . S
C3154 C3153 1.392 . S
C3154 C3155 1.385 . S
C3154 C3156 1.478 . S
C3155 H3149 0.930 . S
C3155 C3151 1.400 . S
C3155 C3154 1.385 . S
C3156 C3154 1.478 . S
C3156 C3158 1.381 . S
C3156 C3162 1.383 . S
C3157 C3153 1.495 . S
C3157 H3163 0.959 . S
C3157 H3164 0.961 . S
C3157 H3165 0.960 . S
C3158 C3156 1.381 . S
C3158 C3159 1.394 . S
C3158 H3166 0.930 . S
C3159 C3158 1.394 . S
C3159 C3160 1.383 . S
C3159 H3167 0.929 . S
C3160 C3159 1.383 . S
C3160 C3161 1.377 . S
C3161 H3145 0.930 . S
C3161 C3160 1.377 . S
C3161 C3162 1.379 . S
C3162 H3146 0.931 . S
C3162 C3156 1.383 . S
C3162 C3161 1.379 . S
H3163 C3157 0.959 . S
H3164 C3157 0.961 . S
H3165 C3157 0.960 . S
H3166 C3158 0.930 . S
H3167 C3159 0.929 . S
H3168 C3176 0.929 . S
H3169 C3178 0.930 . S
H3170 C3180 0.930 . S
H3171 C3183 0.929 . S
H3172 C3186 0.930 . S
H3173 C3188 0.960 . S
H3174 C3188 0.960 . S
H3175 C3188 0.960 . S
C3176 H3168 0.929 . S
C3176 C3177 1.377 . S
C3176 C3178 1.384 . S
C3177 C3176 1.377 . S
C3177 C3183 1.390 . S
C3178 H3169 0.930 . S
C3178 C3176 1.384 . S
C3178 C3179 1.372 . S
C3179 C3178 1.372 . S
C3179 C3180 1.400 . S
C3179 C3184 1.490 . S
C3180 H3170 0.930 . S
C3180 C3179 1.400 . S
C3180 C3183 1.386 . S
H3181 C3197 0.930 . S
H3182 C3198 0.931 . S
C3183 H3171 0.929 . S
C3183 C3177 1.390 . S
C3183 C3180 1.386 . S
C3184 C3179 1.490 . S
C3184 C3186 1.395 . S
C3184 C3187 1.403 . S
H3185 C3191 0.930 . S
C3186 H3172 0.930 . S
C3186 C3184 1.395 . S
C3186 C3189 1.403 . S
C3187 C3184 1.403 . S
C3187 C3188 1.524 . S
C3187 C3191 1.400 . S
C3188 H3173 0.960 . S
C3188 H3174 0.960 . S
C3188 H3175 0.960 . S
C3188 C3187 1.524 . S
C3189 C3186 1.403 . S
C3189 C3190 1.392 . S
C3189 C3193 1.495 . S
C3190 C3189 1.392 . S
C3190 C3191 1.385 . S
C3190 C3192 1.478 . S
C3191 H3185 0.930 . S
C3191 C3187 1.400 . S
C3191 C3190 1.385 . S
C3192 C3190 1.478 . S
C3192 C3194 1.381 . S
C3192 C3198 1.383 . S
C3193 C3189 1.495 . S
C3193 H3199 0.959 . S
C3193 H3200 0.961 . S
C3193 H3201 0.960 . S
C3194 C3192 1.381 . S
C3194 C3195 1.394 . S
C3194 H3202 0.930 . S
C3195 C3194 1.394 . S
C3195 C3196 1.383 . S
C3195 H3203 0.929 . S
C3196 C3195 1.383 . S
C3196 C3197 1.377 . S
C3197 H3181 0.930 . S
C3197 C3196 1.377 . S
C3197 C3198 1.379 . S
C3198 H3182 0.931 . S
C3198 C3192 1.383 . S
C3198 C3197 1.379 . S
H3199 C3193 0.959 . S
H3200 C3193 0.961 . S
H3201 C3193 0.960 . S
H3202 C3194 0.930 . S
H3203 C3195 0.929 . S
C640 C318 1.524 . S
C621 C308 1.529 . S
C657 C282 1.300 . S
C676 C316 1.299 . S
C712 C317 1.299 . S
C693 C269 1.299 . S
C729 C295 1.528 . S
C748 C319 1.527 . S
C784 C363 1.463 . S
C765 C217 1.466 . S
C820 C423 1.471 . S
C801 C230 1.472 . S
C837 C243 1.470 . S
C856 C362 1.470 . S
C892 C422 1.252 . S
C873 C256 1.253 . S
C909 C165 1.466 . S
C928 C364 1.463 . S
C964 C420 1.253 . S
C945 C178 1.253 . S
C981 C191 1.471 . S
C1000 C365 1.468 . S
C1017 C204 1.473 . S
C1036 C421 1.470 . S
C1072 C471 1.525 1_556 S
C1053 C152 1.529 . S
C1089 C126 1.299 . S
C1108 C470 1.299 . S
C1125 C113 1.298 . S
C1144 C472 1.298 . S
C1180 C473 1.525 . S
C1161 C139 1.529 1_554 S
C1197 C61 1.466 . S
C1216 C514 1.462 . S
C1233 C74 1.472 1_545 S
C1252 C573 1.469 1_565 S
C1269 C87 1.471 . S
C1288 C512 1.466 . S
C1305 C100 1.254 . S
C1324 C572 1.253 . S
C1360 C513 1.462 . S
C1341 C9 1.465 . S
C1396 C570 1.250 1_565 S
C1377 C22 1.255 . S
C1413 C35 1.471 . S
C1432 C515 1.470 . S
C1468 C571 1.470 1_565 S
C1449 C48 1.472 . S
C1504 C315 1.453 . S
C1485 C4 1.274 . S
C1521 C21 1.403 . S
C1540 C321 1.440 . S
C1557 C34 1.776 . S
C1576 C313 1.807 . S
C1593 C43 1.122 . S
C1612 C320 1.279 1_565 S
C1629 C56 1.278 . S
C1648 C312 1.452 . S
C1684 C322 1.284 . S
C1665 C69 1.130 . S
C1701 C86 1.778 . S
C1720 C314 1.807 . S
C1756 C323 1.435 . S
C1737 C99 1.397 1_545 S
C1792 C369 1.667 . S
C1773 C47 1.634 . S
C1809 C8 1.702 . S
C1828 C412 1.740 . S
C1864 C367 1.196 . S
C1845 C17 1.043 . S
C1900 C414 1.395 . S
C1881 C30 1.218 . S
C1917 C73 1.634 1_545 S
C1936 C368 1.664 1_565 S
C1972 C413 1.387 . S
C1953 C82 1.200 . S
C2008 C366 1.196 1_565 S
C1989 C95 1.041 1_545 S
C2044 C415 1.738 . S
C2025 C60 1.708 . S
C2080 C419 1.468 . S
C2061 C112 1.431 1_556 S
C2097 C125 1.427 . S
C2116 C418 1.464 . S
C2152 C370 1.384 1_556 S
C2133 C108 1.221 . S
C2188 C417 1.718 . S
C2169 C138 1.685 . S
C2205 C147 1.222 . S
C2224 C373 1.402 . S
C2241 C151 1.685 . S
C2260 C416 1.717 1_556 S
C2296 C372 1.389 . S
C2277 C121 1.224 1_554 S
C2332 C371 1.405 1_556 S
C2313 C134 1.231 1_554 S
C2368 C465 1.453 . S
C2349 C160 1.277 . S
C2404 C468 1.440 . S
C2385 C177 1.401 . S
C2421 C190 1.780 . S
C2440 C464 1.809 . S
C2476 C466 1.280 . S
C2457 C199 1.113 . S
C2512 C462 1.449 . S
C2493 C212 1.258 . S
C2529 C225 1.130 . S
C2548 C467 1.286 . S
C2565 C242 1.776 . S
C2584 C463 1.810 . S
C2620 C469 1.440 . S
C2601 C255 1.400 . S
C2656 C523 1.664 . S
C2637 C203 1.634 . S
C2673 C164 1.701 . S
C2692 C562 1.740 . S
C2728 C522 1.203 . S
C2709 C173 1.064 . S
C2764 C564 1.391 . S
C2745 C186 1.213 . S
C2800 C521 1.664 . S
C2781 C229 1.631 . S
C2817 C238 1.199 . S
C2836 C563 1.388 . S
C2872 C520 1.201 . S
C2853 C251 1.053 . S
C2908 C565 1.738 . S
C2889 C216 1.708 . S
C2944 C569 1.469 . S
C2925 C268 1.426 . S
C2961 C281 1.429 . S
C2980 C568 1.469 . S
C3016 C516 1.387 . S
C2997 C264 1.221 . S
C3033 C294 1.686 . S
C3052 C567 1.718 . S
C3088 C519 1.403 . S
C3069 C303 1.220 . S
C3124 C566 1.718 . S
C3105 C307 1.686 . S
C3160 C517 1.383 . S
C3141 C277 1.204 . S
C3177 C290 1.224 . S
C3196 C518 1.402 . S
