# Generated by pormake.
# Topology pts, (4,4)-cn, num edge types: 1
# Building blocks:
#     Node 0, Type 0, BuildingBlock: GIZVER_clean_linker_0, # of connection points: 4
#     Node 1, Type 0, BuildingBlock: GIZVER_clean_linker_0, # of connection points: 4
#     Node 2, Type 1, BuildingBlock: AZAVOO_clean_sbu_0, # of connection points: 4
#     Node 3, Type 1, BuildingBlock: AZAVOO_clean_sbu_0, # of connection points: 4
#     Edge 4, Type (0, 1), BuildingBlock: ZUJKAS_clean_linker_0, # of connection points: 2
#     Edge 5, Type (0, 1), BuildingBlock: ZUJKAS_clean_linker_0, # of connection points: 2
#     Edge 6, Type (0, 1), BuildingBlock: ZUJKAS_clean_linker_0, # of connection points: 2
#     Edge 7, Type (0, 1), BuildingBlock: ZUJKAS_clean_linker_0, # of connection points: 2
#     Edge 8, Type (0, 1), BuildingBlock: ZUJKAS_clean_linker_0, # of connection points: 2
#     Edge 9, Type (0, 1), BuildingBlock: ZUJKAS_clean_linker_0, # of connection points: 2
#     Edge 10, Type (0, 1), BuildingBlock: ZUJKAS_clean_linker_0, # of connection points: 2
#     Edge 11, Type (0, 1), BuildingBlock: ZUJKAS_clean_linker_0, # of connection points: 2
# Relax obj value: 0.014
# Max RMSD: 0.078
# Mean RMSD: 0.071
data_MOF--net-pts--node1-AZAVOO_clean_sbu_0--node2-GIZVER_clean_linker_0--edge1-ZUJKAS_clean_linker_0
_symmetry_space_group_name_H-M    P1
_symmetry_Int_Tables_number       1
_symmetry_cell_setting            triclinic
loop_
_symmetry_equiv_pos_as_xyz
'x, y, z'
_cell_length_a     32.112482
_cell_length_b     33.734563
_cell_length_c     45.143419
_cell_angle_alpha  90.395088
_cell_angle_beta   95.631272
_cell_angle_gamma 89.938641
loop_
_atom_site_label
_atom_site_type_symbol
_atom_site_fract_x
_atom_site_fract_y
_atom_site_fract_z
_atom_type_partial_charge
H0 H 0.59124 0.07929 0.02875 0.0
H1 H 0.59304 0.10815 0.93597 0.0
H2 H 0.69816 0.04948 -0.01729 0.0
H3 H 0.54809 0.13577 0.0036 0.0
H4 H 0.54168 0.13831 0.96402 0.0
H5 H 0.506 0.09151 0.02986 0.0
H6 H 0.40482 0.03092 0.97945 0.0
H7 H 0.50158 0.08514 0.93423 0.0
C8 C 0.60651 0.07801 0.00839 0.0
C9 C 0.64656 0.06106 0.00863 0.0
C10 C 0.58669 0.09463 -0.01788 0.0
C11 C 0.60738 0.09417 0.95599 0.0
C12 C 0.64783 0.07828 0.9563 0.0
C13 C 0.66664 0.06117 -0.01756 0.0
C14 C 0.54625 0.11732 -0.01702 0.0
C15 C 0.50874 0.09022 -0.01782 0.0
C16 C 0.49134 0.08072 0.00869 0.0
C17 C 0.45411 0.05875 0.00781 0.0
C18 C 0.4348 0.04587 -0.01975 0.0
C19 C 0.45139 0.05523 0.95356 0.0
C20 C 0.48878 0.0771 0.9547 0.0
H21 H 0.1078 0.54592 0.44149 0.0
H22 H 0.12125 0.55595 0.53713 0.0
H23 H 0.06123 0.64886 0.48413 0.0
H24 H 0.16217 0.50714 0.474 0.0
H25 H 0.15952 0.50566 0.51331 0.0
H26 H 0.11495 0.46786 0.44031 0.0
H27 H 0.04303 0.37755 0.47879 0.0
H28 H 0.10232 0.469 0.53438 0.0
C29 C 0.10193 0.56189 0.46158 0.0
C30 C 0.08177 0.59885 0.45947 0.0
C31 C 0.11568 0.54599 0.48957 0.0
C32 C 0.10936 0.56746 0.51558 0.0
C33 C 0.09017 0.60486 0.51369 0.0
C34 C 0.0756 0.61975 0.48564 0.0
C35 C 0.14013 0.50781 0.49155 0.0
C36 C 0.11118 0.47265 0.48765 0.0
C37 C 0.10184 0.45528 0.45937 0.0
C38 C 0.07703 0.42097 0.45583 0.0
C39 C 0.06044 0.40511 0.48086 0.0
C40 C 0.06931 0.42221 0.50918 0.0
C41 C 0.09461 0.45611 0.51246 0.0
Mg42 Mg 0.08511 0.99622 0.25222 0.0
O43 O 1.01858 0.99706 0.22727 0.0
O44 O 0.97441 0.98902 0.26217 0.0
Mg45 Mg 1.01078 0.98283 0.30786 0.0
C46 C 0.98142 0.99404 0.23508 0.0
C47 C 0.12762 0.99609 0.19318 0.0
O48 O 0.11597 0.95885 0.1942 0.0
O49 O 0.0749 0.05859 0.26966 0.0
O50 O 0.0315 0.04801 0.30459 0.0
O51 O 0.0886 0.93039 0.24758 0.0
O52 O 0.0639 0.96117 0.28539 0.0
C53 C 0.05349 0.07125 0.29016 0.0
C54 C 0.07127 0.92829 0.2722 0.0
O55 O 0.11626 0.02024 0.2126 0.0
Mg56 Mg 1.00772 1.00235 0.70898 0.0
O57 O 0.07412 1.00652 0.73414 0.0
O58 O 0.1186 0.99613 0.69964 0.0
Mg59 Mg 0.08271 0.98431 0.6544 0.0
C60 C 0.11138 1.00357 0.72644 0.0
C61 C 0.94112 0.04652 0.73914 0.0
O62 O 0.92953 0.0499 0.71053 0.0
O63 O 1.01667 0.06311 0.68865 0.0
O64 O 0.05994 0.04902 0.6542 0.0
O65 O 1.00563 0.93723 0.71716 0.0
O66 O 0.03028 0.9641 0.67802 0.0
C67 C 0.03757 0.07361 0.66738 0.0
C68 C 0.02375 0.9327 0.69298 0.0
O69 O 0.9757 0.02947 0.7472 0.0
H70 H 0.43663 0.11438 0.04911 0.0
H71 H 0.3869 0.10792 0.08671 0.0
H72 H 0.36912 0.98455 0.06313 0.0
H73 H 0.41932 0.99064 0.02614 0.0
H74 H 0.30439 0.08858 0.07173 0.0
H75 H 0.37603 0.98053 0.15314 0.0
H76 H 0.40597 1.00621 0.12739 0.0
H77 H 0.37582 0.96298 0.11553 0.0
C78 C 0.42328 0.08556 0.05277 0.0
C79 C 0.43183 0.05298 0.03474 0.0
C80 C 0.39461 0.08199 0.07405 0.0
C81 C 0.37446 0.04571 0.07786 0.0
C82 C 0.3848 0.01264 0.06101 0.0
H83 H 0.16139 0.95031 0.15155 0.0
H84 H 0.22083 0.9662 0.12394 0.0
C85 C 0.41332 0.0162 0.03976 0.0
C86 C 0.33925 0.04321 0.09674 0.0
H87 H 0.3014 0.98871 0.1516 0.0
C88 C 0.30397 0.06723 0.08956 0.0
C89 C 0.33871 0.01526 0.11989 0.0
C90 C 0.37635 0.99006 0.12965 0.0
C91 C 0.26745 0.06276 0.10399 0.0
C92 C 0.26645 0.0338 0.12638 0.0
C93 C 0.30216 0.01067 0.13422 0.0
C94 C 0.22824 0.02595 0.14132 0.0
C95 C 0.22967 0.08782 0.09434 0.0
C96 C 0.21221 0.05458 0.15984 0.0
C97 C 0.17805 0.04564 0.17565 0.0
C98 C 0.15953 0.0078 0.17331 0.0
C99 C 0.17485 0.97972 0.15391 0.0
C100 C 0.20895 0.98867 0.13818 0.0
H101 H 0.23282 0.10307 0.07294 0.0
H102 H 0.20087 0.06941 0.09189 0.0
H103 H 0.22577 0.11076 0.11158 0.0
H104 H 0.22695 0.08338 0.16284 0.0
H105 H 0.16719 0.06789 0.1905 0.0
H106 H 0.99106 0.39715 0.51861 0.0
H107 H 0.97334 0.34829 0.55522 0.0
H108 H 0.10194 0.34761 0.59343 0.0
H109 H 0.11923 0.39736 0.55759 0.0
H110 H 1.00373 0.27735 0.55374 0.0
H111 H 0.04489 0.33495 0.66741 0.0
H112 H 0.03919 0.36703 0.63539 0.0
H113 H 0.08783 0.34147 0.64539 0.0
C114 C 1.01508 0.3876 0.53561 0.0
C115 C 0.05647 0.40091 0.53535 0.0
C116 C 1.005 0.3597 0.55648 0.0
C117 C 0.03621 0.34432 0.57725 0.0
C118 C 0.07701 0.35965 0.57823 0.0
H119 H 0.0816 0.10719 0.62534 0.0
H120 H 0.07611 0.17447 0.60623 0.0
C121 C 0.08697 0.38801 0.55762 0.0
C122 C 0.02815 0.30775 0.59394 0.0
H123 H 0.0478 0.26292 0.66154 0.0
C124 C 1.01248 0.2746 0.57746 0.0
C125 C 0.03916 0.30394 0.62494 0.0
C126 C 0.05326 0.33894 0.64431 0.0
C127 C 1.00997 0.23737 0.59068 0.0
C128 C 0.02435 0.23289 0.62106 0.0
C129 C 0.03746 0.26637 0.63809 0.0
C130 C 0.02907 0.19309 0.63456 0.0
C131 C 0.993 0.20286 0.57176 0.0
C132 C 1.00537 0.18167 0.65757 0.0
C133 C 1.00848 0.14299 0.66871 0.0
C134 C 0.0355 0.11528 0.65705 0.0
C135 C 0.06013 0.12748 0.63467 0.0
C136 C 0.05702 0.16596 0.62364 0.0
H137 H 0.97227 0.213 0.55211 0.0
H138 H 1.01946 0.18629 0.5635 0.0
H139 H 0.97518 0.18219 0.58481 0.0
H140 H 0.98381 0.20235 0.66637 0.0
H141 H 0.9892 0.13465 0.68604 0.0
H142 H 0.65632 0.09879 0.06271 0.0
H143 H 0.70823 0.08335 0.10454 0.0
H144 H 0.74436 0.97824 0.05852 0.0
H145 H 0.6918 0.99287 0.01711 0.0
H146 H 0.74553 0.9675 0.11968 0.0
H147 H 0.83153 0.10339 0.09282 0.0
H148 H 0.77868 0.11185 0.10115 0.0
H149 H 0.78837 0.08372 0.06857 0.0
C150 C 0.67439 0.07174 0.06196 0.0
C151 C 0.67037 0.04726 0.03651 0.0
C152 C 0.7044 0.06322 0.08568 0.0
C153 C 0.7309 0.03024 0.08423 0.0
C154 C 0.72455 1.00407 0.05995 0.0
H155 H 0.98113 1.00249 0.17447 0.0
H156 H 0.9201 0.009 0.13773 0.0
C157 C 0.69457 0.01249 0.03631 0.0
C158 C 0.76731 0.02451 0.10666 0.0
H159 H 0.85968 0.06682 0.1345 0.0
C160 C 0.77044 0.98924 0.12303 0.0
C161 C 0.80026 0.05251 0.11042 0.0
C162 C 0.79992 0.08984 0.09215 0.0
C163 C 0.80539 0.98146 0.1434 0.0
C164 C 0.8377 0.01003 0.14783 0.0
C165 C 0.83477 0.04507 0.13119 0.0
C166 C 0.8746 1.00451 0.16989 0.0
C167 C 0.80779 0.94234 0.1595 0.0
C168 C 0.86928 1.00017 0.20014 0.0
C169 C 0.90396 0.99632 0.22111 0.0
C170 C 0.94487 0.99713 0.21236 0.0
C171 C 0.95015 1.00165 0.182 0.0
C172 C 0.91531 1.00539 0.16098 0.0
H173 H 0.78731 0.91966 0.14755 0.0
H174 H 0.84036 0.93088 0.16218 0.0
H175 H 0.79718 0.94654 0.18197 0.0
H176 H 0.83826 1.00039 0.20763 0.0
H177 H 0.89856 0.99318 0.24429 0.0
H178 H 0.06512 0.58539 0.56835 0.0
H179 H 0.05935 0.63032 0.61101 0.0
H180 H 0.10603 0.72663 0.5613 0.0
H181 H 0.11281 0.68214 0.51936 0.0
H182 H 0.14131 0.7232 0.62097 0.0
H183 H 0.96693 0.71576 0.61081 0.0
H184 H 0.9956 0.67 0.61535 0.0
H185 H 0.99687 0.69775 0.58169 0.0
C186 C 0.0745 0.61607 0.56678 0.0
C187 C 0.08867 0.63048 0.54039 0.0
C188 C 0.07096 0.64169 0.59101 0.0
C189 C 0.08172 0.6819 0.58909 0.0
C190 C 0.09739 0.69577 0.56319 0.0
H191 H 0.0643 0.91453 0.64419 0.0
H192 H 0.08186 0.84908 0.62608 0.0
C193 C 0.10086 0.67039 0.53913 0.0
C194 C 0.07537 0.71068 0.61314 0.0
H195 H 0.99893 0.76495 0.64196 0.0
C196 C 0.11024 0.73179 0.6261 0.0
C197 C 0.03481 0.72172 0.61986 0.0
C198 C 0.99625 0.70039 0.60618 0.0
C199 C 0.10545 0.76517 0.64413 0.0
C200 C 0.06476 0.77789 0.64905 0.0
C201 C 0.03008 0.75509 0.638 0.0
C202 C 0.05721 0.81733 0.66201 0.0
C203 C 0.14386 0.78753 0.65679 0.0
C204 C 0.03715 0.82116 0.6881 0.0
C205 C 0.02726 0.85878 0.69869 0.0
C206 C 0.03674 0.89306 0.68306 0.0
C207 C 0.05705 0.88894 0.65703 0.0
C208 C 0.06723 0.85147 0.64665 0.0
H209 H 0.17193 0.76808 0.65888 0.0
H210 H 0.14991 0.81218 0.64163 0.0
H211 H 0.13943 0.80036 0.67899 0.0
H212 H 0.02876 0.79508 0.70005 0.0
H213 H 1.0114 0.86092 0.71873 0.0
H214 H 0.43402 0.10415 0.90574 0.0
H215 H 0.3806 0.09405 0.86382 0.0
H216 H 0.35602 0.97707 0.89587 0.0
H217 H 0.4105 0.98632 0.93707 0.0
H218 H 0.35083 0.97894 0.83545 0.0
H219 H 0.25809 0.10156 0.87879 0.0
H220 H 0.30925 0.11614 0.87018 0.0
H221 H 0.30397 0.08138 0.89961 0.0
C222 C 0.41817 0.07583 0.90334 0.0
C223 C 0.4261 0.04621 0.92494 0.0
C224 C 0.38718 0.07033 0.87963 0.0
C225 C 0.36342 0.03531 0.87728 0.0
C226 C 0.37357 1.00455 0.89747 0.0
H227 H 0.11236 1.00679 0.78745 0.0
H228 H 0.17369 0.01332 0.82406 0.0
C229 C 0.40464 0.00991 0.92103 0.0
C230 C 0.32643 0.03137 0.855 0.0
H231 H 0.23104 0.07228 0.83314 0.0
C232 C 0.32467 0.99938 0.83489 0.0
C233 C 0.29184 0.05751 0.8548 0.0
C234 C 0.29052 0.09085 0.87717 0.0
C235 C 0.28954 0.9931 0.8143 0.0
C236 C 0.25564 0.02012 0.81336 0.0
C237 C 0.25718 0.0518 0.83372 0.0
C238 C 0.21844 0.01622 0.79126 0.0
C239 C 0.28873 0.95705 0.79427 0.0
C240 C 0.22314 0.01645 0.76072 0.0
C241 C 0.18834 0.01246 0.73984 0.0
C242 C 0.14785 0.00872 0.749 0.0
C243 C 0.14305 0.00952 0.77963 0.0
C244 C 0.17806 0.01322 0.80057 0.0
H245 H 0.3104 0.93365 0.80373 0.0
H246 H 0.25675 0.94435 0.7905 0.0
H247 H 0.29888 0.96564 0.77242 0.0
H248 H 0.25379 0.0199 0.75297 0.0
H249 H 0.19327 0.01251 0.71645 0.0
H250 H 0.13661 0.40739 0.41745 0.0
H251 H 0.1332 0.35967 0.3764 0.0
H252 H 1.00515 0.33313 0.39016 0.0
H253 H 1.00753 0.38243 0.42994 0.0
H254 H 0.12448 0.28419 0.3856 0.0
H255 H 0.99655 0.32779 0.30177 0.0
H256 H 1.01858 0.36175 0.33017 0.0
H257 H 0.97827 0.32725 0.33799 0.0
C258 C 0.10714 0.39269 0.41092 0.0
C259 C 0.07242 0.39851 0.42721 0.0
C260 C 0.10535 0.36513 0.38755 0.0
C261 C 0.06888 0.34284 0.38001 0.0
C262 C 0.03339 0.35044 0.39501 0.0
H263 H 1.00319 0.11109 0.32572 0.0
H264 H 1.00888 0.18015 0.34219 0.0
C265 C 0.035 0.37827 0.41813 0.0
C266 C 0.0698 0.30767 0.36009 0.0
H267 H 1.01237 0.25695 0.30444 0.0
C268 C 0.10059 0.27875 0.36733 0.0
C269 C 0.03862 0.30041 0.33627 0.0
C270 C 1.00646 0.33122 0.32593 0.0
C271 C 0.09954 0.24195 0.35267 0.0
C272 C 0.0669 0.23387 0.33016 0.0
C273 C 0.03721 0.26329 0.32188 0.0
C274 C 0.06112 0.19367 0.31722 0.0
C275 C 0.13197 0.21105 0.3624 0.0
C276 C 0.08824 0.17876 0.29732 0.0
C277 C 0.08508 0.13922 0.28776 0.0
C278 C 0.05493 0.11395 0.2982 0.0
C279 C 0.027 0.12956 0.31743 0.0
C280 C 0.03001 0.16908 0.32675 0.0
H281 H 0.15333 0.22096 0.38189 0.0
H282 H 0.11643 0.18315 0.36822 0.0
H283 H 0.15101 0.20428 0.34377 0.0
H284 H 0.11244 0.19744 0.28975 0.0
H285 H 0.10702 0.1282 0.27291 0.0
H286 H 0.62667 0.05558 0.89824 0.0
H287 H 0.67253 0.05572 0.85754 0.0
H288 H 0.77072 0.10988 0.91621 0.0
H289 H 0.72528 0.11003 0.95655 0.0
H290 H 0.75987 0.14218 0.85684 0.0
H291 H 0.77436 0.97768 0.85962 0.0
H292 H 0.72219 0.99769 0.85499 0.0
H293 H 0.75429 1.00571 0.88933 0.0
C294 C 0.65782 0.06802 0.90217 0.0
C295 C 0.67271 0.08232 0.93053 0.0
C296 C 0.684 0.06789 0.87907 0.0
C297 C 0.72516 0.08234 0.88407 0.0
C298 C 0.73916 0.09846 0.91195 0.0
H299 H 0.94843 0.03198 0.79912 0.0
H300 H 0.89556 0.04357 0.83382 0.0
C301 C 0.71326 0.09835 0.93497 0.0
C302 C 0.75487 0.0789 0.86108 0.0
H303 H 0.8129 0.01155 0.82604 0.0
C304 C 0.77123 0.11366 0.84983 0.0
C305 C 0.77009 0.04162 0.85249 0.0
C306 C 0.75468 1.00344 0.8648 0.0
C307 C 0.8026 0.11211 0.83024 0.0
C308 C 0.81773 0.07482 0.82161 0.0
C309 C 0.80119 0.04008 0.83273 0.0
C310 C 0.85094 0.07102 0.80119 0.0
C311 C 0.82014 0.15034 0.81956 0.0
C312 C 0.84351 0.08303 0.77148 0.0
C313 C 0.8736 0.07647 0.75163 0.0
C314 C 0.91167 0.05761 0.7611 0.0
C315 C 0.91953 0.04667 0.79113 0.0
C316 C 0.88931 0.05313 0.81095 0.0
H317 H 0.81194 0.17613 0.83329 0.0
H318 H 0.85473 0.1486 0.81998 0.0
H319 H 0.80711 0.15565 0.79624 0.0
H320 H 0.8139 0.09639 0.7634 0.0
H321 H 0.8665 0.08521 0.72865 0.0
H322 H 0.1321 0.60609 0.41448 0.0
H323 H 0.1234 0.65341 0.37345 0.0
H324 H 1.00182 0.68564 0.39879 0.0
H325 H 1.00995 0.63788 0.43953 0.0
H326 H 1.01204 0.68642 0.33332 0.0
H327 H 0.13132 0.77096 0.40613 0.0
H328 H 0.14533 0.72129 0.39632 0.0
H329 H 0.10364 0.7292 0.41944 0.0
C330 C 0.10282 0.62206 0.41058 0.0
C331 C 0.07192 0.61874 0.43043 0.0
C332 C 0.09801 0.64924 0.38725 0.0
C333 C 0.06227 0.67336 0.38348 0.0
C334 C 0.02966 0.66733 0.40143 0.0
H335 H 0.04115 0.91459 0.32571 0.0
H336 H 0.03437 0.85077 0.34996 0.0
C337 C 0.03444 0.64021 0.42475 0.0
C338 C 0.06168 0.70885 0.36442 0.0
H339 H 0.10514 0.80077 0.36132 0.0
C340 C 0.03254 0.71137 0.33921 0.0
C341 C 0.088 0.74151 0.3726 0.0
C342 C 0.11868 0.74099 0.4002 0.0
C343 C 0.02924 0.7459 0.32182 0.0
C344 C 0.05577 0.7784 0.33 0.0
C345 C 0.08488 0.77572 0.35515 0.0
C346 C 0.05381 0.81603 0.31328 0.0
C347 C 0.99683 0.74785 0.29535 0.0
C348 C 0.06632 0.81753 0.28441 0.0
C349 C 0.07024 0.85404 0.27045 0.0
C350 C 0.06185 0.88961 0.28522 0.0
C351 C 0.04768 0.88781 0.31366 0.0
C352 C 0.04383 0.85135 0.32758 0.0
H353 H 0.97355 0.72351 0.29543 0.0
H354 H 0.98011 0.77671 0.29491 0.0
H355 H 1.01258 0.74533 0.27461 0.0
H356 H 0.07481 0.79064 0.2732 0.0
H357 H 0.08129 0.85444 0.24855 0.0
loop_
_geom_bond_atom_site_label_1
_geom_bond_atom_site_label_2
_geom_bond_distance
_geom_bond_site_symmetry_2
_ccdc_geom_bond_type
H0 C8 0.930 . S
H1 C11 0.930 . S
H2 C13 0.919 1_565 S
H3 C14 0.970 . S
H4 C14 0.970 1_556 S
H5 C16 0.930 . S
H6 C18 0.931 . S
H7 C20 0.930 . S
C8 H0 0.930 . S
C8 C9 1.382 . S
C8 C10 1.426 . S
C9 C8 1.382 . S
C9 C13 1.395 . S
C10 C8 1.426 . S
C10 C11 1.375 1_554 S
C10 C14 1.532 . S
C11 H1 0.930 . S
C11 C10 1.375 1_556 S
C11 C12 1.416 . S
C12 C11 1.416 . S
C12 C13 1.376 1_556 S
C13 H2 0.919 1_545 S
C13 C9 1.395 . S
C13 C12 1.376 1_554 S
C14 H3 0.970 . S
C14 H4 0.970 1_554 S
C14 C10 1.532 . S
C14 C15 1.498 . S
C15 C14 1.498 . S
C15 C16 1.386 . S
C15 C20 1.401 1_554 S
C16 H5 0.930 . S
C16 C15 1.386 . S
C16 C17 1.407 . S
C17 C16 1.407 . S
C17 C18 1.359 1_544 S
C18 H6 0.931 . S
C18 C17 1.359 1_566 S
C18 C19 1.399 1_565 S
C19 C18 1.399 1_545 S
C19 C20 1.387 . S
C20 H7 0.930 . S
C20 C15 1.401 1_556 S
C20 C19 1.387 . S
H21 C29 0.930 . S
H22 C32 0.930 . S
H23 C34 0.930 . S
H24 C35 0.970 . S
H25 C35 0.970 . S
H26 C37 0.930 . S
H27 C39 0.930 . S
H28 C41 0.930 . S
C29 H21 0.930 . S
C29 C30 1.382 . S
C29 C31 1.426 . S
C30 C29 1.382 . S
C30 C34 1.389 . S
C31 C29 1.426 . S
C31 C32 1.375 . S
C31 C35 1.532 . S
C32 H22 0.930 . S
C32 C31 1.375 . S
C32 C33 1.416 . S
C33 C32 1.416 . S
C33 C34 1.371 . S
C34 H23 0.930 . S
C34 C30 1.389 . S
C34 C33 1.371 . S
C35 H24 0.970 . S
C35 H25 0.970 . S
C35 C31 1.532 . S
C35 C36 1.499 . S
C36 C35 1.499 . S
C36 C37 1.370 . S
C36 C41 1.415 . S
C37 H26 0.930 . S
C37 C36 1.370 . S
C37 C38 1.407 . S
C38 C37 1.407 . S
C38 C39 1.365 . S
C39 H27 0.930 . S
C39 C38 1.365 . S
C39 C40 1.393 . S
C40 C39 1.393 . S
C40 C41 1.387 . S
C41 H28 0.930 . S
C41 C36 1.415 . S
C41 C40 1.387 . S
Mg42 O43 2.028 . S
Mg42 O49 1.986 . S
Mg42 O51 2.114 1_545 S
Mg42 O52 2.251 1_545 S
Mg42 O55 2.010 . S
O43 Mg42 2.028 . S
O43 C46 1.250 1_455 S
O44 Mg45 2.028 . S
O44 C46 1.248 . S
Mg45 O44 2.028 . S
Mg45 O50 2.032 1_655 S
Mg45 O52 2.079 1_645 S
C46 O43 1.250 1_655 S
C46 O44 1.248 . S
C47 O48 1.264 . S
C47 O55 1.249 . S
O48 C47 1.264 . S
O49 Mg42 1.986 . S
O49 C53 1.246 . S
O50 Mg45 2.032 1_455 S
O50 C53 1.259 . S
O51 Mg42 2.114 1_565 S
O51 C54 1.252 . S
O52 Mg42 2.251 1_565 S
O52 Mg45 2.079 1_465 S
O52 C54 1.273 . S
C53 O49 1.246 . S
C53 O50 1.259 . S
C54 O51 1.252 . S
C54 O52 1.273 . S
O55 Mg42 2.010 . S
O55 C47 1.249 . S
Mg56 O57 2.028 1_655 S
Mg56 O63 1.986 . S
Mg56 O65 2.114 1_545 S
Mg56 O66 2.251 1_645 S
Mg56 O69 2.010 . S
O57 Mg56 2.028 1_455 S
O57 C60 1.250 . S
O58 Mg59 2.028 . S
O58 C60 1.248 . S
Mg59 O58 2.028 . S
Mg59 O64 2.032 . S
Mg59 O66 2.079 1_545 S
C60 O57 1.250 . S
C60 O58 1.248 . S
C61 O62 1.264 . S
C61 O69 1.249 . S
O62 C61 1.264 . S
O63 Mg56 1.986 . S
O63 C67 1.246 1_655 S
O64 Mg59 2.032 . S
O64 C67 1.259 . S
O65 Mg56 2.114 1_565 S
O65 C68 1.252 1_655 S
O66 Mg56 2.251 1_465 S
O66 Mg59 2.079 1_565 S
O66 C68 1.273 . S
C67 O63 1.246 1_455 S
C67 O64 1.259 . S
C68 O65 1.252 1_455 S
C68 O66 1.273 . S
O69 Mg56 2.010 . S
O69 C61 1.249 . S
H70 C78 0.929 . S
H71 C80 0.930 . S
H72 C82 0.930 . S
H73 C85 0.929 . S
H74 C88 0.930 . S
H75 C90 0.960 . S
H76 C90 0.960 . S
H77 C90 0.960 . S
C78 H70 0.929 . S
C78 C79 1.377 . S
C78 C80 1.384 . S
C79 C78 1.377 . S
C79 C85 1.390 1_545 S
C80 H71 0.930 . S
C80 C78 1.384 . S
C80 C81 1.372 . S
C81 C80 1.372 . S
C81 C82 1.400 1_545 S
C81 C86 1.490 . S
C82 H72 0.930 . S
C82 C81 1.400 1_565 S
C82 C85 1.386 . S
H83 C99 0.930 . S
H84 C100 0.931 . S
C85 H73 0.929 . S
C85 C79 1.390 1_565 S
C85 C82 1.386 . S
C86 C81 1.490 . S
C86 C88 1.395 . S
C86 C89 1.403 1_545 S
H87 C93 0.930 . S
C88 H74 0.930 . S
C88 C86 1.395 . S
C88 C91 1.403 . S
C89 C86 1.403 1_565 S
C89 C90 1.524 . S
C89 C93 1.400 . S
C90 H75 0.960 . S
C90 H76 0.960 . S
C90 H77 0.960 . S
C90 C89 1.524 . S
C91 C88 1.403 . S
C91 C92 1.392 . S
C91 C95 1.495 . S
C92 C91 1.392 . S
C92 C93 1.385 1_545 S
C92 C94 1.478 . S
C93 H87 0.930 . S
C93 C89 1.400 . S
C93 C92 1.385 1_565 S
C94 C92 1.478 . S
C94 C96 1.381 . S
C94 C100 1.383 1_545 S
C95 C91 1.495 . S
C95 H101 0.959 . S
C95 H102 0.961 . S
C95 H103 0.960 . S
C96 C94 1.381 . S
C96 C97 1.394 . S
C96 H104 0.930 . S
C97 C96 1.394 . S
C97 C98 1.383 . S
C97 H105 0.929 . S
C98 C97 1.383 . S
C98 C99 1.377 1_545 S
C99 H83 0.930 . S
C99 C98 1.377 1_565 S
C99 C100 1.379 . S
C100 H84 0.931 . S
C100 C94 1.383 1_565 S
C100 C99 1.379 . S
H101 C95 0.959 . S
H102 C95 0.961 . S
H103 C95 0.960 . S
H104 C96 0.930 . S
H105 C97 0.929 . S
H106 C114 0.929 . S
H107 C116 0.930 . S
H108 C118 0.930 . S
H109 C121 0.929 . S
H110 C124 0.930 . S
H111 C126 0.960 . S
H112 C126 0.960 . S
H113 C126 0.960 . S
C114 H106 0.929 . S
C114 C115 1.377 1_655 S
C114 C116 1.384 . S
C115 C114 1.377 1_455 S
C115 C121 1.390 . S
C116 H107 0.930 . S
C116 C114 1.384 . S
C116 C117 1.372 1_655 S
C117 C116 1.372 1_455 S
C117 C118 1.400 . S
C117 C122 1.490 . S
C118 H108 0.930 . S
C118 C117 1.400 . S
C118 C121 1.386 . S
H119 C135 0.930 . S
H120 C136 0.931 . S
C121 H109 0.929 . S
C121 C115 1.390 . S
C121 C118 1.386 . S
C122 C117 1.490 . S
C122 C124 1.395 1_455 S
C122 C125 1.403 . S
H123 C129 0.930 . S
C124 H110 0.930 . S
C124 C122 1.395 1_655 S
C124 C127 1.403 . S
C125 C122 1.403 . S
C125 C126 1.524 . S
C125 C129 1.400 . S
C126 H111 0.960 . S
C126 H112 0.960 . S
C126 H113 0.960 . S
C126 C125 1.524 . S
C127 C124 1.403 . S
C127 C128 1.392 1_655 S
C127 C131 1.495 . S
C128 C127 1.392 1_455 S
C128 C129 1.385 . S
C128 C130 1.478 . S
C129 H123 0.930 . S
C129 C125 1.400 . S
C129 C128 1.385 . S
C130 C128 1.478 . S
C130 C132 1.381 1_455 S
C130 C136 1.383 . S
C131 C127 1.495 . S
C131 H137 0.959 . S
C131 H138 0.961 . S
C131 H139 0.960 . S
C132 C130 1.381 1_655 S
C132 C133 1.394 . S
C132 H140 0.930 . S
C133 C132 1.394 . S
C133 C134 1.383 1_655 S
C133 H141 0.929 . S
C134 C133 1.383 1_455 S
C134 C135 1.377 . S
C135 H119 0.930 . S
C135 C134 1.377 . S
C135 C136 1.379 . S
C136 H120 0.931 . S
C136 C130 1.383 . S
C136 C135 1.379 . S
H137 C131 0.959 . S
H138 C131 0.961 . S
H139 C131 0.960 . S
H140 C132 0.930 . S
H141 C133 0.929 . S
H142 C150 0.929 . S
H143 C152 0.930 . S
H144 C154 0.930 . S
H145 C157 0.929 . S
H146 C160 0.930 . S
H147 C162 0.960 . S
H148 C162 0.960 . S
H149 C162 0.960 1_565 S
C150 H142 0.929 . S
C150 C151 1.377 . S
C150 C152 1.384 . S
C151 C150 1.377 . S
C151 C157 1.390 1_545 S
C152 H143 0.930 . S
C152 C150 1.384 . S
C152 C153 1.372 . S
C153 C152 1.372 . S
C153 C154 1.400 1_545 S
C153 C158 1.490 . S
C154 H144 0.930 . S
C154 C153 1.400 1_565 S
C154 C157 1.386 . S
H155 C171 0.930 . S
H156 C172 0.931 . S
C157 H145 0.929 . S
C157 C151 1.390 1_565 S
C157 C154 1.386 . S
C158 C153 1.490 . S
C158 C160 1.395 . S
C158 C161 1.403 . S
H159 C165 0.930 . S
C160 H146 0.930 . S
C160 C158 1.395 . S
C160 C163 1.403 . S
C161 C158 1.403 . S
C161 C162 1.524 . S
C161 C165 1.400 . S
C162 H147 0.960 . S
C162 H148 0.960 . S
C162 H149 0.960 1_545 S
C162 C161 1.524 . S
C163 C160 1.403 . S
C163 C164 1.392 . S
C163 C167 1.495 . S
C164 C163 1.392 . S
C164 C165 1.385 . S
C164 C166 1.478 . S
C165 H159 0.930 . S
C165 C161 1.400 . S
C165 C164 1.385 . S
C166 C164 1.478 . S
C166 C168 1.381 . S
C166 C172 1.383 1_545 S
C167 C163 1.495 . S
C167 H173 0.959 . S
C167 H174 0.961 1_545 S
C167 H175 0.960 . S
C168 C166 1.381 . S
C168 C169 1.394 . S
C168 H176 0.930 . S
C169 C168 1.394 . S
C169 C170 1.383 . S
C169 H177 0.929 . S
C170 C169 1.383 . S
C170 C171 1.377 1_545 S
C171 H155 0.930 . S
C171 C170 1.377 1_565 S
C171 C172 1.379 . S
C172 H156 0.931 . S
C172 C166 1.383 1_565 S
C172 C171 1.379 . S
H173 C167 0.959 . S
H174 C167 0.961 1_565 S
H175 C167 0.960 . S
H176 C168 0.930 . S
H177 C169 0.929 . S
H178 C186 0.929 . S
H179 C188 0.930 . S
H180 C190 0.930 . S
H181 C193 0.929 . S
H182 C196 0.930 . S
H183 C198 0.960 . S
H184 C198 0.960 . S
H185 C198 0.960 . S
C186 H178 0.929 . S
C186 C187 1.377 . S
C186 C188 1.384 . S
C187 C186 1.377 . S
C187 C193 1.390 . S
C188 H179 0.930 . S
C188 C186 1.384 . S
C188 C189 1.372 . S
C189 C188 1.372 . S
C189 C190 1.400 . S
C189 C194 1.490 . S
C190 H180 0.930 . S
C190 C189 1.400 . S
C190 C193 1.386 . S
H191 C207 0.930 . S
H192 C208 0.931 . S
C193 H181 0.929 . S
C193 C187 1.390 . S
C193 C190 1.386 . S
C194 C189 1.490 . S
C194 C196 1.395 . S
C194 C197 1.403 1_455 S
H195 C201 0.930 . S
C196 H182 0.930 . S
C196 C194 1.395 . S
C196 C199 1.403 . S
C197 C194 1.403 1_655 S
C197 C198 1.524 . S
C197 C201 1.400 . S
C198 H183 0.960 . S
C198 H184 0.960 . S
C198 H185 0.960 . S
C198 C197 1.524 . S
C199 C196 1.403 . S
C199 C200 1.392 . S
C199 C203 1.495 . S
C200 C199 1.392 . S
C200 C201 1.385 1_455 S
C200 C202 1.478 . S
C201 H195 0.930 . S
C201 C197 1.400 . S
C201 C200 1.385 1_655 S
C202 C200 1.478 . S
C202 C204 1.381 . S
C202 C208 1.383 . S
C203 C199 1.495 . S
C203 H209 0.959 . S
C203 H210 0.961 . S
C203 H211 0.960 . S
C204 C202 1.381 . S
C204 C205 1.394 . S
C204 H212 0.930 . S
C205 C204 1.394 . S
C205 C206 1.383 . S
C205 H213 0.929 . S
C206 C205 1.383 . S
C206 C207 1.377 . S
C207 H191 0.930 . S
C207 C206 1.377 . S
C207 C208 1.379 . S
C208 H192 0.931 . S
C208 C202 1.383 . S
C208 C207 1.379 . S
H209 C203 0.959 . S
H210 C203 0.961 . S
H211 C203 0.960 . S
H212 C204 0.930 . S
H213 C205 0.929 . S
H214 C222 0.929 . S
H215 C224 0.930 . S
H216 C226 0.930 . S
H217 C229 0.929 . S
H218 C232 0.930 . S
H219 C234 0.962 . S
H220 C234 0.951 1_545 S
H221 C234 0.970 . S
C222 H214 0.929 . S
C222 C223 1.377 . S
C222 C224 1.384 . S
C223 C222 1.377 . S
C223 C229 1.390 1_545 S
C224 H215 0.930 . S
C224 C222 1.384 . S
C224 C225 1.372 . S
C225 C224 1.372 . S
C225 C226 1.400 1_545 S
C225 C230 1.490 . S
C226 H216 0.930 . S
C226 C225 1.400 1_565 S
C226 C229 1.386 . S
H227 C243 0.930 . S
H228 C244 0.931 . S
C229 H217 0.929 . S
C229 C223 1.390 1_565 S
C229 C226 1.386 . S
C230 C225 1.490 . S
C230 C232 1.395 . S
C230 C233 1.403 . S
H231 C237 0.930 . S
C232 H218 0.930 . S
C232 C230 1.395 . S
C232 C235 1.403 . S
C233 C230 1.403 . S
C233 C234 1.522 1_545 S
C233 C237 1.400 . S
C234 H219 0.962 . S
C234 H220 0.951 1_565 S
C234 H221 0.970 . S
C234 C233 1.522 1_565 S
C235 C232 1.403 . S
C235 C236 1.392 . S
C235 C239 1.495 . S
C236 C235 1.392 . S
C236 C237 1.385 . S
C236 C238 1.478 . S
C237 H231 0.930 . S
C237 C233 1.400 . S
C237 C236 1.385 . S
C238 C236 1.478 . S
C238 C240 1.381 . S
C238 C244 1.383 1_545 S
C239 C235 1.495 . S
C239 H245 0.959 . S
C239 H246 0.961 . S
C239 H247 0.960 . S
C240 C238 1.381 . S
C240 C241 1.394 . S
C240 H248 0.930 . S
C241 C240 1.394 . S
C241 C242 1.383 . S
C241 H249 0.929 . S
C242 C241 1.383 . S
C242 C243 1.377 1_545 S
C243 H227 0.930 . S
C243 C242 1.377 1_565 S
C243 C244 1.379 . S
C244 H228 0.931 . S
C244 C238 1.383 1_565 S
C244 C243 1.379 . S
H245 C239 0.959 . S
H246 C239 0.961 . S
H247 C239 0.960 . S
H248 C240 0.930 . S
H249 C241 0.929 . S
H250 C258 0.929 . S
H251 C260 0.930 . S
H252 C262 0.930 1_655 S
H253 C265 0.929 1_655 S
H254 C268 0.930 . S
H255 C270 0.960 . S
H256 C270 0.960 . S
H257 C270 0.960 . S
C258 H250 0.929 . S
C258 C259 1.377 . S
C258 C260 1.384 . S
C259 C258 1.377 . S
C259 C265 1.390 . S
C260 H251 0.930 . S
C260 C258 1.384 . S
C260 C261 1.372 . S
C261 C260 1.372 . S
C261 C262 1.400 . S
C261 C266 1.490 . S
C262 H252 0.930 1_455 S
C262 C261 1.400 . S
C262 C265 1.386 . S
H263 C279 0.930 . S
H264 C280 0.931 . S
C265 H253 0.929 1_455 S
C265 C259 1.390 . S
C265 C262 1.386 . S
C266 C261 1.490 . S
C266 C268 1.395 . S
C266 C269 1.403 . S
H267 C273 0.930 1_655 S
C268 H254 0.930 . S
C268 C266 1.395 . S
C268 C271 1.403 . S
C269 C266 1.403 . S
C269 C270 1.524 1_455 S
C269 C273 1.400 . S
C270 H255 0.960 . S
C270 H256 0.960 . S
C270 H257 0.960 . S
C270 C269 1.524 1_655 S
C271 C268 1.403 . S
C271 C272 1.392 . S
C271 C275 1.495 . S
C272 C271 1.392 . S
C272 C273 1.385 . S
C272 C274 1.478 . S
C273 H267 0.930 1_455 S
C273 C269 1.400 . S
C273 C272 1.385 . S
C274 C272 1.478 . S
C274 C276 1.381 . S
C274 C280 1.383 . S
C275 C271 1.495 . S
C275 H281 0.959 . S
C275 H282 0.961 . S
C275 H283 0.960 . S
C276 C274 1.381 . S
C276 C277 1.394 . S
C276 H284 0.930 . S
C277 C276 1.394 . S
C277 C278 1.383 . S
C277 H285 0.929 . S
C278 C277 1.383 . S
C278 C279 1.377 . S
C279 H263 0.930 . S
C279 C278 1.377 . S
C279 C280 1.379 . S
C280 H264 0.931 . S
C280 C274 1.383 . S
C280 C279 1.379 . S
H281 C275 0.959 . S
H282 C275 0.961 . S
H283 C275 0.960 . S
H284 C276 0.930 . S
H285 C277 0.929 . S
H286 C294 0.929 . S
H287 C296 0.930 . S
H288 C298 0.930 . S
H289 C301 0.929 . S
H290 C304 0.930 . S
H291 C306 0.960 . S
H292 C306 0.960 . S
H293 C306 0.960 . S
C294 H286 0.929 . S
C294 C295 1.377 . S
C294 C296 1.384 . S
C295 C294 1.377 . S
C295 C301 1.390 1_545 S
C296 H287 0.930 . S
C296 C294 1.384 . S
C296 C297 1.372 . S
C297 C296 1.372 . S
C297 C298 1.400 1_545 S
C297 C302 1.490 . S
C298 H288 0.930 . S
C298 C297 1.400 1_565 S
C298 C301 1.386 . S
H299 C315 0.930 . S
H300 C316 0.931 . S
C301 H289 0.929 . S
C301 C295 1.390 1_565 S
C301 C298 1.386 . S
C302 C297 1.490 . S
C302 C304 1.395 . S
C302 C305 1.403 1_545 S
H303 C309 0.930 . S
C304 H290 0.930 . S
C304 C302 1.395 . S
C304 C307 1.403 . S
C305 C302 1.403 1_565 S
C305 C306 1.524 . S
C305 C309 1.400 . S
C306 H291 0.960 . S
C306 H292 0.960 . S
C306 H293 0.960 . S
C306 C305 1.524 . S
C307 C304 1.403 . S
C307 C308 1.392 . S
C307 C311 1.495 . S
C308 C307 1.392 . S
C308 C309 1.385 1_545 S
C308 C310 1.478 . S
C309 H303 0.930 . S
C309 C305 1.400 . S
C309 C308 1.385 1_565 S
C310 C308 1.478 . S
C310 C312 1.381 . S
C310 C316 1.383 . S
C311 C307 1.495 . S
C311 H317 0.959 . S
C311 H318 0.961 . S
C311 H319 0.960 . S
C312 C310 1.381 . S
C312 C313 1.394 . S
C312 H320 0.930 . S
C313 C312 1.394 . S
C313 C314 1.383 . S
C313 H321 0.929 . S
C314 C313 1.383 . S
C314 C315 1.377 . S
C315 H299 0.930 . S
C315 C314 1.377 . S
C315 C316 1.379 . S
C316 H300 0.931 . S
C316 C310 1.383 . S
C316 C315 1.379 . S
H317 C311 0.959 . S
H318 C311 0.961 . S
H319 C311 0.960 . S
H320 C312 0.930 . S
H321 C313 0.929 . S
H322 C330 0.929 . S
H323 C332 0.930 . S
H324 C334 0.930 1_655 S
H325 C337 0.929 1_655 S
H326 C340 0.930 . S
H327 C342 0.960 . S
H328 C342 0.960 . S
H329 C342 0.960 . S
C330 H322 0.929 . S
C330 C331 1.377 . S
C330 C332 1.384 . S
C331 C330 1.377 . S
C331 C337 1.390 . S
C332 H323 0.930 . S
C332 C330 1.384 . S
C332 C333 1.372 . S
C333 C332 1.372 . S
C333 C334 1.400 . S
C333 C338 1.490 . S
C334 H324 0.930 1_455 S
C334 C333 1.400 . S
C334 C337 1.386 . S
H335 C351 0.930 1_655 S
H336 C352 0.931 1_655 S
C337 H325 0.929 1_455 S
C337 C331 1.390 . S
C337 C334 1.386 . S
C338 C333 1.490 . S
C338 C340 1.395 . S
C338 C341 1.403 . S
H339 C345 0.930 . S
C340 H326 0.930 . S
C340 C338 1.395 . S
C340 C343 1.403 . S
C341 C338 1.403 . S
C341 C342 1.524 . S
C341 C345 1.400 . S
C342 H327 0.960 . S
C342 H328 0.960 . S
C342 H329 0.960 . S
C342 C341 1.524 . S
C343 C340 1.403 . S
C343 C344 1.392 . S
C343 C347 1.495 . S
C344 C343 1.392 . S
C344 C345 1.385 . S
C344 C346 1.478 . S
C345 H339 0.930 . S
C345 C341 1.400 . S
C345 C344 1.385 . S
C346 C344 1.478 . S
C346 C348 1.381 . S
C346 C352 1.383 . S
C347 C343 1.495 . S
C347 H353 0.959 . S
C347 H354 0.961 . S
C347 H355 0.960 . S
C348 C346 1.381 . S
C348 C349 1.394 . S
C348 H356 0.930 . S
C349 C348 1.394 . S
C349 C350 1.383 . S
C349 H357 0.929 . S
C350 C349 1.383 . S
C350 C351 1.377 . S
C351 H335 0.930 1_455 S
C351 C350 1.377 . S
C351 C352 1.379 . S
C352 H336 0.931 1_455 S
C352 C346 1.383 . S
C352 C351 1.379 . S
H353 C347 0.959 . S
H354 C347 0.961 . S
H355 C347 0.960 . S
H356 C348 0.930 . S
H357 C349 0.929 . S
C98 C47 1.325 . S
C79 C17 1.492 . S
C134 C67 1.539 . S
C115 C40 1.497 . S
C170 C46 1.480 . S
C151 C9 1.480 . S
C206 C68 1.560 . S
C187 C33 1.471 . S
C242 C60 1.467 . S
C223 C19 1.480 . S
C278 C53 1.554 . S
C259 C38 1.482 . S
C314 C61 1.278 . S
C295 C12 1.479 . S
C331 C30 1.491 . S
C350 C54 1.565 . S
