# Generated by pormake.
# Topology anh, (6,3)-cn, num edge types: 1
# Building blocks:
#     Node 0, Type 0, BuildingBlock: VOLQOD_clean_sbu_1, # of connection points: 6
#     Node 1, Type 0, BuildingBlock: VOLQOD_clean_sbu_1, # of connection points: 6
#     Node 2, Type 0, BuildingBlock: VOLQOD_clean_sbu_1, # of connection points: 6
#     Node 3, Type 1, BuildingBlock: MIDCAF_clean_linker_0, # of connection points: 3
#     Node 4, Type 1, BuildingBlock: MIDCAF_clean_linker_0, # of connection points: 3
#     Node 5, Type 1, BuildingBlock: MIDCAF_clean_linker_0, # of connection points: 3
#     Node 6, Type 1, BuildingBlock: MIDCAF_clean_linker_0, # of connection points: 3
#     Node 7, Type 1, BuildingBlock: MIDCAF_clean_linker_0, # of connection points: 3
#     Node 8, Type 1, BuildingBlock: MIDCAF_clean_linker_0, # of connection points: 3
#     Edge 9, Type (0, 1), BuildingBlock: AJUNOK_clean_linker_0, # of connection points: 2
#     Edge 10, Type (0, 1), BuildingBlock: AJUNOK_clean_linker_0, # of connection points: 2
#     Edge 11, Type (0, 1), BuildingBlock: AJUNOK_clean_linker_0, # of connection points: 2
#     Edge 12, Type (0, 1), BuildingBlock: AJUNOK_clean_linker_0, # of connection points: 2
#     Edge 13, Type (0, 1), BuildingBlock: AJUNOK_clean_linker_0, # of connection points: 2
#     Edge 14, Type (0, 1), BuildingBlock: AJUNOK_clean_linker_0, # of connection points: 2
#     Edge 15, Type (0, 1), BuildingBlock: AJUNOK_clean_linker_0, # of connection points: 2
#     Edge 16, Type (0, 1), BuildingBlock: AJUNOK_clean_linker_0, # of connection points: 2
#     Edge 17, Type (0, 1), BuildingBlock: AJUNOK_clean_linker_0, # of connection points: 2
#     Edge 18, Type (0, 1), BuildingBlock: AJUNOK_clean_linker_0, # of connection points: 2
#     Edge 19, Type (0, 1), BuildingBlock: AJUNOK_clean_linker_0, # of connection points: 2
#     Edge 20, Type (0, 1), BuildingBlock: AJUNOK_clean_linker_0, # of connection points: 2
#     Edge 21, Type (0, 1), BuildingBlock: AJUNOK_clean_linker_0, # of connection points: 2
#     Edge 22, Type (0, 1), BuildingBlock: AJUNOK_clean_linker_0, # of connection points: 2
#     Edge 23, Type (0, 1), BuildingBlock: AJUNOK_clean_linker_0, # of connection points: 2
#     Edge 24, Type (0, 1), BuildingBlock: AJUNOK_clean_linker_0, # of connection points: 2
#     Edge 25, Type (0, 1), BuildingBlock: AJUNOK_clean_linker_0, # of connection points: 2
#     Edge 26, Type (0, 1), BuildingBlock: AJUNOK_clean_linker_0, # of connection points: 2
# Relax obj value: 0.167
# Max RMSD: 0.230
# Mean RMSD: 0.115
data_MOF--net-anh--node1-VOLQOD_clean_sbu_1--node2-MIDCAF_clean_linker_0--edge1-AJUNOK_clean_linker_0
_symmetry_space_group_name_H-M    P1
_symmetry_Int_Tables_number       1
_symmetry_cell_setting            triclinic
loop_
_symmetry_equiv_pos_as_xyz
'x, y, z'
_cell_length_a     27.610727
_cell_length_b     27.490492
_cell_length_c     58.96029
_cell_angle_alpha  90.157374
_cell_angle_beta   89.627572
_cell_angle_gamma 120.40403
loop_
_atom_site_label
_atom_site_type_symbol
_atom_site_fract_x
_atom_site_fract_y
_atom_site_fract_z
_atom_type_partial_charge
O0 O -0.01115 0.52637 0.21268 0.0
Zn1 Zn -0.01376 0.54633 0.18011 0.0
O2 O -0.00991 0.49149 0.16 0.0
Zn3 Zn 0.92207 0.45161 0.14229 0.0
Zn4 Zn -0.0015 0.43606 0.17766 0.0
Zn5 Zn 0.05331 0.53168 0.13943 0.0
O6 O 0.93744 0.46242 0.10879 0.0
O7 O 0.02895 0.52316 0.10691 0.0
O8 O 0.91554 0.54939 0.17535 0.0
O9 O 0.87116 0.48028 0.15024 0.0
O10 O 0.87857 0.36908 0.14936 0.0
O11 O 0.93062 0.35846 0.17505 0.0
O12 O 0.06628 0.43219 0.16771 0.0
O13 O 0.053 0.62403 0.17569 0.0
O14 O 0.10441 0.50081 0.14202 0.0
O15 O 0.09994 0.61369 0.14727 0.0
C16 C -0.00098 0.49107 0.2223 0.0
C17 C 0.98176 0.49316 0.09725 0.0
C18 C 0.88651 0.33811 0.16302 0.0
C19 C 0.87308 0.51833 0.16312 0.0
C20 C 0.10497 0.46208 0.15354 0.0
C21 C 0.09484 0.6444 0.16216 0.0
O22 O 0.00589 0.45578 0.21076 0.0
O23 O 0.45456 0.01131 0.44578 0.0
Zn24 Zn 0.43484 0.00974 0.47876 0.0
O25 O 0.48947 0.00308 0.49751 0.0
Zn26 Zn 0.52862 0.06844 0.51695 0.0
Zn27 Zn 0.54499 -0.00217 0.47851 0.0
Zn28 Zn 0.44968 0.9365 0.51642 0.0
O29 O 0.51647 0.04785 0.54991 0.0
O30 O 0.45547 0.95602 0.5495 0.0
O31 O 0.43137 0.07963 0.48629 0.0
O32 O 0.50005 0.1206 0.51156 0.0
O33 O 0.61082 0.11333 0.51015 0.0
O34 O 0.62146 0.0669 0.48165 0.0
O35 O 0.5518 0.93056 0.48696 0.0
O36 O 0.35748 0.94206 0.48232 0.0
O37 O 0.48256 0.88728 0.51218 0.0
O38 O 0.36861 0.89022 0.50814 0.0
C39 C 0.48891 0.00148 0.43506 0.0
C40 C 0.48485 0.00185 0.56032 0.0
C41 C 0.64153 0.10873 0.49516 0.0
C42 C 0.46185 0.12025 0.49956 0.0
C43 C 0.52271 0.88994 0.50051 0.0
C44 C 0.33763 0.89767 0.4944 0.0
O45 O 0.52409 -0.00714 0.44557 0.0
O46 O 0.45646 0.47431 0.78006 0.0
Zn47 Zn 0.44024 0.45506 0.81319 0.0
O48 O 0.50345 0.5101 0.8315 0.0
Zn49 Zn 0.47875 0.54772 0.85237 0.0
Zn50 Zn 0.56272 0.56745 0.81211 0.0
Zn51 Zn 0.53219 0.47068 0.84905 0.0
O52 O 0.49152 0.53635 0.88478 0.0
O53 O 0.52488 0.47827 0.8827 0.0
O54 O 0.36799 0.45238 0.82163 0.0
O55 O 0.39712 0.51747 0.84871 0.0
O56 O 0.51402 0.62991 0.84585 0.0
O57 O 0.56955 0.6435 0.8164 0.0
O58 O 0.63784 0.57441 0.81832 0.0
O59 O 0.42823 0.37693 0.81684 0.0
O60 O 0.61305 0.5023 0.84189 0.0
O61 O 0.49352 0.38856 0.84146 0.0
C62 C 0.49952 0.51048 0.76903 0.0
C63 C 0.50884 0.50665 0.89437 0.0
C64 C 0.54784 0.66198 0.83064 0.0
C65 C 0.35855 0.48094 0.83617 0.0
C66 C 0.64979 0.54324 0.83013 0.0
C67 C 0.45283 0.35704 0.82852 0.0
O68 O 0.54365 0.54711 0.77923 0.0
C69 C 0.29088 0.84991 0.21687 0.0
C70 C 0.29029 0.84659 0.1931 0.0
C71 C 0.34004 0.88116 0.18094 0.0
C72 C 0.38972 0.91748 0.19241 0.0
H73 H 0.55933 0.03167 0.18274 0.0
H74 H 0.64613 0.09808 0.16306 0.0
H75 H 0.73079 0.15303 0.22739 0.0
H76 H 0.64528 0.08634 0.24702 0.0
H77 H 0.58002 0.04872 0.29201 0.0
H78 H 0.57802 0.0521 0.3333 0.0
H79 H 0.40043 0.93052 0.33318 0.0
H80 H 0.40172 0.92753 0.29189 0.0
H81 H 0.33918 0.88656 0.24667 0.0
H82 H 0.25363 0.82267 0.22676 0.0
H83 H 0.34073 0.87923 0.1626 0.0
H84 H 0.42758 0.94286 0.18256 0.0
N85 N 0.49291 0.98634 0.2173 0.0
N86 N 0.54053 0.01806 0.25183 0.0
N87 N 0.44351 0.95559 0.25171 0.0
C88 C 0.54159 0.01796 0.2288 0.0
C89 C 0.49172 0.98698 0.26343 0.0
C90 C 0.44364 0.95498 0.22868 0.0
C91 C 0.59506 0.05393 0.21651 0.0
C92 C 0.59669 0.05719 0.19268 0.0
C93 C 0.64635 0.09513 0.18138 0.0
C94 C 0.69531 0.13028 0.19367 0.0
C95 C 0.69416 0.12552 0.21739 0.0
C96 C 0.64475 0.08765 0.22867 0.0
C97 C 0.49094 0.98809 0.28855 0.0
C98 C 0.54044 0.02268 0.30071 0.0
C99 C 0.53944 0.02458 0.32437 0.0
C100 C 0.48898 0.99211 0.33636 0.0
C101 C 0.43968 0.9569 0.3243 0.0
C102 C 0.44059 0.95498 0.30064 0.0
C103 C 0.39058 0.91966 0.21626 0.0
C104 C 0.3403 0.88615 0.22831 0.0
C105 C 0.4324 0.30947 0.54892 0.0
C106 C 0.44645 0.31225 0.52586 0.0
C107 C 0.47001 0.364 0.51446 0.0
C108 C 0.48179 0.41286 0.52618 0.0
H109 H 0.51566 0.573 0.51723 0.0
H110 H 0.52791 0.65625 0.49756 0.0
H111 H 0.59018 0.75362 0.55895 0.0
H112 H 0.57758 0.67029 0.57901 0.0
H113 H 0.5416 0.60253 0.62596 0.0
H114 H 0.53778 0.60113 0.66731 0.0
H115 H 0.47072 0.4212 0.66685 0.0
H116 H 0.47348 0.42194 0.62555 0.0
H117 H 0.43532 0.35537 0.57873 0.0
H118 H 0.41505 0.27001 0.55812 0.0
H119 H 0.4815 0.36698 0.49669 0.0
H120 H 0.50171 0.45245 0.51701 0.0
N121 N 0.50896 0.51302 0.55118 0.0
N122 N 0.52762 0.5618 0.5856 0.0
N123 N 0.48971 0.46376 0.58548 0.0
C124 C 0.52794 0.5622 0.56256 0.0
C125 C 0.50864 0.51269 0.5972 0.0
C126 C 0.4898 0.46368 0.56245 0.0
C127 C 0.5446 0.6147 0.54986 0.0
C128 C 0.53316 0.61231 0.52652 0.0
C129 C 0.54039 0.65992 0.51515 0.0
C130 C 0.56005 0.71091 0.52679 0.0
C131 C 0.57559 0.71468 0.54962 0.0
C132 C 0.56778 0.66685 0.56112 0.0
C133 C 0.50755 0.51228 0.62234 0.0
C134 C 0.52591 0.56256 0.63461 0.0
C135 C 0.5239 0.56189 0.65829 0.0
C136 C 0.50331 0.51099 0.67021 0.0
C137 C 0.48566 0.46086 0.65804 0.0
C138 C 0.48764 0.46145 0.63437 0.0
C139 C 0.47098 0.4109 0.54962 0.0
C140 C 0.44469 0.35845 0.56074 0.0
C141 C 0.86985 0.57828 0.87643 0.0
C142 C 0.86015 0.56553 0.85325 0.0
C143 C 0.88884 0.54264 0.84193 0.0
C144 C 0.92428 0.52966 0.85388 0.0
H145 H 0.05065 0.49424 0.84676 0.0
H146 H 0.12498 0.48433 0.82884 0.0
H147 H 0.14685 0.4142 0.89059 0.0
H148 H 0.0728 0.42433 0.9089 0.0
H149 H 0.03626 0.45661 0.95497 0.0
H150 H 0.0326 0.45573 0.99627 0.0
H151 H 0.92398 0.52611 0.99469 0.0
H152 H 0.92671 0.5265 0.95335 0.0
H153 H 0.9096 0.57292 0.90652 0.0
H154 H 0.84736 0.59504 0.8856 0.0
H155 H 0.88157 0.53215 0.82407 0.0
H156 H 0.94404 0.5099 0.84481 0.0
N157 N -0.00744 0.49859 0.87971 0.0
N158 N 0.01573 0.47484 0.91447 0.0
N159 N 0.95818 0.51472 0.91359 0.0
C160 C 0.01962 0.47724 0.89148 0.0
C161 C 0.98497 0.49341 0.92566 0.0
C162 C 0.9618 0.51741 0.8906 0.0
C163 C 0.05665 0.46126 0.87946 0.0
C164 C 0.0702 0.47544 0.85645 0.0
C165 C 0.11245 0.46954 0.84609 0.0
C166 C 0.1412 0.44869 0.85845 0.0
C167 C 0.12466 0.43001 0.88078 0.0
C168 C 0.08273 0.43637 0.89126 0.0
C169 C 0.98175 0.49161 0.95076 0.0
C170 C 0.01129 0.47165 0.96334 0.0
C171 C 0.0094 0.47127 0.987 0.0
C172 C 0.97775 0.4905 -0.00141 0.0
C173 C 0.94796 0.51017 0.98612 0.0
C174 C 0.94988 0.51068 0.96244 0.0
C175 C 0.93093 0.53862 0.87744 0.0
C176 C 0.90487 0.56484 0.88845 0.0
C177 C 0.1339 0.70087 0.43945 0.0
C178 C 0.13559 0.70262 0.46324 0.0
C179 C 0.10003 0.65342 0.47555 0.0
C180 C 0.06465 0.60297 0.46424 0.0
H181 H 0.95882 0.43111 0.47474 0.0
H182 H 0.89034 0.34624 0.49502 0.0
H183 H 0.82264 0.26282 0.43113 0.0
H184 H 0.8916 0.34622 0.41087 0.0
H185 H 0.94668 0.40476 0.36579 0.0
H186 H 0.94802 0.40353 0.3245 0.0
H187 H 0.0644 0.58302 0.32355 0.0
H188 H 0.06274 0.58493 0.36489 0.0
H189 H 0.09954 0.65076 0.40979 0.0
H190 H 0.16187 0.73772 0.42948 0.0
H191 H 0.10071 0.65367 0.49392 0.0
H192 H 0.03865 0.56548 0.47422 0.0
N193 N -0.00191 0.4981 0.43986 0.0
N194 N 0.97031 0.44788 0.40565 0.0
N195 N 0.03269 0.54529 0.40524 0.0
C196 C 0.9678 0.44845 0.42865 0.0
C197 C 0.00271 0.49604 0.39382 0.0
C198 C 0.03062 0.54675 0.42824 0.0
C199 C 0.93021 0.39584 0.44116 0.0
C200 C 0.92972 0.39445 0.46501 0.0
C201 C 0.89046 0.34597 0.47665 0.0
C202 C 0.85068 0.29829 0.46464 0.0
C203 C 0.853 0.29882 0.44085 0.0
C204 C 0.89237 0.34692 0.42924 0.0
C205 C 0.00463 0.49497 0.36873 0.0
C206 C 0.97283 0.44403 0.35686 0.0
C207 C 0.97382 0.44315 0.3332 0.0
C208 C 0.00677 0.49308 0.32091 0.0
C209 C 0.03862 0.54396 0.33268 0.0
C210 C 0.03769 0.54492 0.35635 0.0
C211 C 0.06442 0.6008 0.44039 0.0
C212 C 0.09859 0.65065 0.42815 0.0
C213 C 0.41326 0.13288 0.77803 0.0
C214 C 0.4224 0.14174 0.80145 0.0
C215 C 0.43814 0.10824 0.81374 0.0
C216 C 0.44673 0.06817 0.80263 0.0
H217 H 0.51381 0.96262 0.81139 0.0
H218 H 0.54235 0.90273 0.83084 0.0
H219 H 0.53807 0.82247 0.76722 0.0
H220 H 0.51149 0.88278 0.74773 0.0
H221 H 0.49855 0.93128 0.70271 0.0
H222 H 0.50159 0.93492 0.66138 0.0
H223 H 0.43931 0.05068 0.66241 0.0
H224 H 0.43684 0.04803 0.70372 0.0
H225 H 0.41566 0.08857 0.74878 0.0
H226 H 0.40253 0.15897 0.76797 0.0
H227 H 0.44552 0.1143 0.83182 0.0
H228 H 0.46049 0.0442 0.81246 0.0
N229 N 0.47386 -0.00667 0.77778 0.0
N230 N 0.48712 0.95964 0.74307 0.0
N231 N 0.45272 0.02174 0.74359 0.0
C232 C 0.48987 0.96104 0.76606 0.0
C233 C 0.46865 0.98986 0.73169 0.0
C234 C 0.45499 0.02368 0.76658 0.0
C235 C 0.50973 0.92715 0.77802 0.0
C236 C 0.51935 0.93245 0.80154 0.0
C237 C 0.53559 0.89814 0.8127 0.0
C238 C 0.54196 0.85763 0.80057 0.0
C239 C 0.53408 0.8537 0.777 0.0
C240 C 0.51834 0.88808 0.76585 0.0
C241 C 0.46787 0.98972 0.7066 0.0
C242 C 0.4854 0.9575 0.69419 0.0
C243 C 0.48702 0.95938 0.67053 0.0
C244 C 0.4714 -0.00636 0.65882 0.0
C245 C 0.45266 0.02482 0.67111 0.0
C246 C 0.45095 0.02296 0.69476 0.0
C247 C 0.43992 0.0611 0.779 0.0
C248 C 0.42159 0.09287 0.76697 0.0
C249 C 0.6856 0.54214 0.11602 0.0
C250 C 0.68129 0.53157 0.13942 0.0
C251 C 0.62946 0.51169 0.15041 0.0
C252 C 0.58179 0.49908 0.13789 0.0
H253 H 0.42037 0.46371 0.14362 0.0
H254 H 0.33644 0.45636 0.16085 0.0
H255 H 0.24674 0.39157 0.09817 0.0
H256 H 0.33066 0.39923 0.08054 0.0
H257 H 0.40384 0.44287 0.03532 0.0
H258 H 0.41028 0.45267 0.9942 0.0
H259 H 0.58687 0.50797 -0.00325 0.0
H260 H 0.58092 0.49791 0.03798 0.0
H261 H 0.64232 0.53584 0.08529 0.0
H262 H 0.7252 0.55707 0.10719 0.0
H263 H 0.62541 0.50348 0.16848 0.0
H264 H 0.54195 0.48176 0.14674 0.0
N265 N 0.48363 0.46738 0.1111 0.0
N266 N 0.43887 0.44875 0.07591 0.0
N267 N 0.53616 0.48615 0.07759 0.0
C268 C 0.43595 0.44845 0.09891 0.0
C269 C 0.48881 0.46739 0.06512 0.0
C270 C 0.53383 0.48622 0.10061 0.0
C271 C 0.38257 0.43323 0.11052 0.0
C272 C 0.38251 0.44655 0.13359 0.0
C273 C 0.33454 0.44215 0.14354 0.0
C274 C 0.28581 0.42361 0.13071 0.0
C275 C 0.28408 0.40563 0.10832 0.0
C276 C 0.33223 0.41054 0.09824 0.0
C277 C 0.49199 0.47007 0.04004 0.0
C278 C 0.44409 0.45689 0.02721 0.0
C279 C 0.44773 0.46279 0.00367 0.0
C280 C 0.49924 0.4819 0.99247 0.0
C281 C 0.54675 0.49334 0.00509 0.0
C282 C 0.54324 0.4877 0.02868 0.0
C283 C 0.58523 0.50589 0.11417 0.0
C284 C 0.63798 0.52931 0.10347 0.0
C285 C 0.14263 0.39705 0.14875 0.0
C286 C 0.15207 0.45228 0.15016 0.0
C287 C 0.18648 0.38749 0.14294 0.0
C288 C 0.24096 0.43295 0.13907 0.0
H289 H 0.10078 0.36117 0.15119 0.0
H290 H 0.17767 0.34454 0.14109 0.0
S291 S 0.2879 0.58512 0.14218 0.0
N292 N 0.22012 0.5527 0.14818 0.0
N293 N 0.30259 0.53461 0.13779 0.0
C294 C 0.25124 0.48816 0.14131 0.0
C295 C 0.20669 0.49788 0.14676 0.0
C296 C 0.73625 0.14844 0.4771 0.0
C297 C 0.69962 0.15601 0.49143 0.0
C298 C 0.78718 0.19443 0.46975 0.0
C299 C 0.80334 0.24976 0.47639 0.0
H300 H 0.72448 0.10694 0.47069 0.0
H301 H 0.81296 0.18689 0.45797 0.0
S302 S 0.72502 0.29224 0.51525 0.0
N303 N 0.6855 0.223 0.51349 0.0
N304 N 0.78058 0.30937 0.49921 0.0
C305 C 0.76896 0.25766 0.49185 0.0
C306 C 0.71724 0.21079 0.49949 0.0
C307 C 0.59233 0.75461 0.81036 0.0
C308 C 0.55506 0.71879 0.82721 0.0
C309 C 0.59086 0.80223 0.80302 0.0
C310 C 0.55206 0.81585 0.81222 0.0
H311 H 0.62083 0.74424 0.80186 0.0
H312 H 0.61834 0.82696 0.78921 0.0
S313 S 0.45051 0.74048 0.85883 0.0
N314 N 0.48268 0.70435 0.85478 0.0
N315 N 0.47918 0.79301 0.84049 0.0
C316 C 0.51775 0.78319 0.83032 0.0
C317 C 0.51945 0.73486 0.83794 0.0
C318 C 0.83013 0.57728 0.156 0.0
C319 C 0.82438 0.52597 0.16318 0.0
C320 C 0.78276 0.58035 0.14987 0.0
C321 C 0.72864 0.53246 0.1512 0.0
H322 H 0.87148 0.61381 0.15339 0.0
H323 H 0.78867 0.61935 0.14281 0.0
S324 S 0.69199 0.39035 0.17168 0.0
N325 N 0.76112 0.42807 0.17329 0.0
N326 N 0.67196 0.43383 0.16215 0.0
C327 C 0.72239 0.48231 0.16018 0.0
C328 C 0.77046 0.47906 0.16607 0.0
C329 C 0.26435 0.79595 0.49787 0.0
C330 C 0.27995 0.85042 0.49012 0.0
C331 C 0.21522 0.74849 0.4903 0.0
C332 C 0.17963 0.75368 0.47482 0.0
H333 H 0.29192 0.78928 0.50875 0.0
H334 H 0.20711 0.70722 0.49546 0.0
S335 S 0.19475 0.8872 0.45316 0.0
N336 N 0.25122 0.90726 0.46876 0.0
N337 N 0.15835 0.81769 0.45478 0.0
C338 C 0.19189 0.80807 0.46856 0.0
C339 C 0.24213 0.85653 0.47618 0.0
C340 C 0.4775 0.28158 0.83119 0.0
C341 C 0.43844 0.29781 0.8251 0.0
C342 C 0.46997 0.22921 0.82476 0.0
C343 C 0.42292 0.19086 0.81214 0.0
H344 H 0.51591 0.31071 0.83988 0.0
H345 H 0.50305 0.22026 0.82851 0.0
S346 S 0.30296 0.20808 0.7958 0.0
N347 N 0.34721 0.26805 0.80838 0.0
N348 N 0.33276 0.16902 0.79663 0.0
C349 C 0.38129 0.20451 0.80756 0.0
C350 C 0.3891 0.25809 0.81397 0.0
C351 C 0.49107 0.78873 0.50447 0.0
C352 C 0.53559 0.84475 0.50344 0.0
C353 C 0.50036 0.7452 0.51069 0.0
C354 C 0.5543 0.75648 0.51656 0.0
H355 H 0.44845 0.77874 0.50111 0.0
H356 H 0.46458 0.70282 0.51211 0.0
S357 S 0.68528 0.8956 0.51546 0.0
N358 N 0.63596 0.90906 0.50749 0.0
N359 N 0.65322 0.82684 0.51994 0.0
C360 C 0.59955 0.81196 0.51484 0.0
C361 C 0.59025 0.85628 0.50801 0.0
C362 C 0.71625 0.5083 0.8289 0.0
C363 C 0.70748 0.55415 0.83088 0.0
C364 C 0.76799 0.514 0.83432 0.0
C365 C 0.81226 0.5655 0.84233 0.0
H366 H 0.68199 0.467 0.8242 0.0
H367 H 0.77195 0.47675 0.83384 0.0
S368 S 0.81208 0.69959 0.84828 0.0
N369 N 0.74828 0.65386 0.83927 0.0
N370 N 0.84584 0.66438 0.85008 0.0
C371 C 0.80516 0.61259 0.84304 0.0
C372 C 0.75259 0.60698 0.83709 0.0
C373 C 0.19672 0.71625 0.15878 0.0
C374 C 0.14251 0.70213 0.16615 0.0
C375 C 0.24433 0.76534 0.16637 0.0
C376 C 0.23949 0.80233 0.18148 0.0
H377 H 0.20294 0.68743 0.14828 0.0
H378 H 0.28531 0.77233 0.16155 0.0
S379 S 0.1069 0.79112 0.20191 0.0
N380 N 0.08647 0.73351 0.18668 0.0
N381 N 0.1762 0.82638 0.20064 0.0
C382 C 0.18545 0.79145 0.1873 0.0
C383 C 0.1369 0.74125 0.17969 0.0
C384 C 0.50098 0.22309 0.50107 0.0
C385 C 0.4536 0.16866 0.50164 0.0
C386 C 0.49709 0.26994 0.5074 0.0
C387 C 0.44589 0.26369 0.51497 0.0
H388 H 0.54184 0.22918 0.4966 0.0
H389 H 0.53515 0.31089 0.50774 0.0
S390 S 0.30887 0.13054 0.51795 0.0
N391 N 0.35326 0.11121 0.50867 0.0
N392 N 0.34613 0.19971 0.52124 0.0
C393 C 0.39761 0.20984 0.51458 0.0
C394 C 0.4014 0.16211 0.50768 0.0
C395 C 0.25473 0.418 0.84007 0.0
C396 C 0.30195 0.47261 0.83878 0.0
C397 C 0.20176 0.40997 0.84583 0.0
C398 C 0.19467 0.45642 0.84978 0.0
H399 H 0.25929 0.38141 0.83772 0.0
H400 H 0.16651 0.36745 0.8477 0.0
S401 S 0.30431 0.60758 0.84686 0.0
N402 N 0.33778 0.57353 0.84084 0.0
N403 N 0.23813 0.55838 0.85114 0.0
C404 C 0.24105 0.51106 0.84752 0.0
C405 C 0.29483 0.51919 0.84212 0.0
C406 C 0.78532 0.26385 0.16035 0.0
C407 C 0.84012 0.27971 0.16726 0.0
C408 C 0.73887 0.2134 0.16779 0.0
C409 C 0.74541 0.1767 0.18231 0.0
H410 H 0.77764 0.29207 0.15022 0.0
H411 H 0.69732 0.20492 0.16327 0.0
S412 S 0.8803 0.19282 0.20166 0.0
N413 N 0.89868 0.25066 0.1869 0.0
N414 N 0.81107 0.15532 0.20062 0.0
C415 C 0.80012 0.1896 0.18779 0.0
C416 C 0.84754 0.24117 0.18031 0.0
C417 C 0.02911 0.51747 0.05928 0.0
C418 C 0.97903 0.49296 0.07212 0.0
C419 C 0.02819 0.51645 0.03556 0.0
C420 C 0.97722 0.49134 0.0237 0.0
H421 H 0.06957 0.53713 0.06757 0.0
H422 H 0.06778 0.53579 0.0264 0.0
S423 S 0.83426 0.42154 0.0489 0.0
N424 N 0.87674 0.44311 0.07094 0.0
N425 N 0.87541 0.44119 0.02628 0.0
C426 C 0.92682 0.46711 0.03617 0.0
C427 C 0.92763 0.46785 0.06038 0.0
C428 C 0.52711 0.99066 0.39793 0.0
C429 C 0.48791 -0.00036 0.40986 0.0
C430 C 0.52724 0.98846 0.37421 0.0
C431 C 0.48802 -0.00516 0.36144 0.0
H432 H 0.55811 0.98519 0.40694 0.0
H433 H 0.55792 0.98106 0.36579 0.0
S434 S 0.37772 0.02125 0.38399 0.0
N435 N 0.40926 0.01606 0.40676 0.0
N436 N 0.41015 0.01229 0.36217 0.0
C437 C 0.44882 0.00418 0.373 0.0
C438 C 0.44865 0.00656 0.39718 0.0
C439 C 0.54745 0.54784 0.73157 0.0
C440 C 0.49876 0.50991 0.74381 0.0
C441 C 0.54842 0.54811 0.70782 0.0
C442 C 0.50086 0.51036 0.69533 0.0
H443 H 0.58545 0.57753 0.74035 0.0
H444 H 0.58701 0.57762 0.69917 0.0
S445 S 0.36185 0.40457 0.71874 0.0
N446 N 0.40092 0.43462 0.74129 0.0
N447 N 0.40307 0.43572 0.69666 0.0
C448 C 0.45171 0.47266 0.70719 0.0
C449 C 0.45056 0.47233 0.73141 0.0
C450 C 0.4534 0.94944 0.59711 0.0
C451 C 0.48205 0.0013 0.58546 0.0
C452 C 0.4502 0.94736 0.62082 0.0
C453 C 0.47509 -0.003 0.63379 0.0
H454 H 0.43342 0.90993 0.5879 0.0
H455 H 0.42765 0.90656 0.62906 0.0
S456 S 0.55579 0.14349 0.61198 0.0
N457 N 0.53626 0.10372 0.58901 0.0
N458 N 0.53028 0.09934 0.63359 0.0
C459 C 0.50386 0.0491 0.62251 0.0
C460 C 0.50739 0.05136 0.59836 0.0
C461 C 0.52809 0.47094 0.93028 0.0
C462 C 0.50842 0.50333 0.91951 0.0
C463 C 0.52582 0.46489 0.95391 0.0
C464 C 0.50343 0.49062 0.96764 0.0
H465 H 0.54489 0.44948 0.92041 0.0
H466 H 0.54063 0.43893 0.96147 0.0
S467 S 0.45001 0.58303 0.94846 0.0
N468 N 0.46825 0.56382 0.92487 0.0
N469 N 0.46423 0.55215 0.96923 0.0
C470 C 0.48481 0.52409 0.95729 0.0
C471 C 0.4873 0.53057 0.93326 0.0
C472 C -0.00598 0.52964 0.26019 0.0
C473 C 0.00245 0.49108 0.24743 0.0
C474 C -0.00387 0.53035 0.2839 0.0
C475 C 0.00654 0.49245 0.29582 0.0
H476 H -0.01467 0.55946 0.25186 0.0
H477 H -0.01139 0.56023 0.29299 0.0
S478 S 0.03445 0.38505 0.27085 0.0
N479 N 0.02356 0.41504 0.24878 0.0
N480 N 0.02777 0.41698 0.29339 0.0
C481 C 0.01581 0.45419 0.28342 0.0
C482 C 0.01378 0.45341 0.25924 0.0
loop_
_geom_bond_atom_site_label_1
_geom_bond_atom_site_label_2
_geom_bond_distance
_geom_bond_site_symmetry_2
_ccdc_geom_bond_type
O0 Zn1 1.953 . S
O0 C16 1.225 1_655 S
Zn1 O0 1.953 . S
Zn1 O2 1.949 1_655 S
Zn1 O8 1.919 . S
Zn1 O13 1.924 1_655 S
O2 Zn1 1.949 1_455 S
O2 Zn3 1.923 1_455 S
O2 Zn4 1.950 . S
O2 Zn5 1.945 . S
Zn3 O2 1.923 1_655 S
Zn3 O6 1.933 . S
Zn3 O9 1.941 . S
Zn3 O10 1.965 . S
Zn4 O2 1.950 . S
Zn4 O11 1.938 1_455 S
Zn4 O12 1.906 . S
Zn4 O22 1.953 . S
Zn5 O2 1.945 . S
Zn5 O7 1.932 . S
Zn5 O14 1.977 . S
Zn5 O15 1.910 . S
O6 Zn3 1.933 . S
O6 C17 1.226 1_655 S
O7 Zn5 1.932 . S
O7 C17 1.307 . S
O8 Zn1 1.919 . S
O8 C19 1.253 . S
O9 Zn3 1.941 . S
O9 C19 1.283 . S
O10 Zn3 1.965 . S
O10 C18 1.303 . S
O11 Zn4 1.938 1_655 S
O11 C18 1.247 . S
O12 Zn4 1.906 . S
O12 C20 1.304 . S
O13 Zn1 1.924 1_455 S
O13 C21 1.311 . S
O14 Zn5 1.977 . S
O14 C20 1.272 . S
O15 Zn5 1.910 . S
O15 C21 1.231 . S
C16 O0 1.225 1_455 S
C16 O22 1.298 . S
C17 O6 1.226 1_455 S
C17 O7 1.307 . S
C18 O10 1.303 . S
C18 O11 1.247 . S
C19 O8 1.253 . S
C19 O9 1.283 . S
C20 O12 1.304 . S
C20 O14 1.272 . S
C21 O13 1.311 . S
C21 O15 1.231 . S
O22 Zn4 1.953 . S
O22 C16 1.298 . S
O23 Zn24 1.953 . S
O23 C39 1.225 . S
Zn24 O23 1.953 . S
Zn24 O25 1.949 . S
Zn24 O31 1.919 . S
Zn24 O36 1.924 1_545 S
O25 Zn24 1.949 . S
O25 Zn26 1.923 . S
O25 Zn27 1.950 1_545 S
O25 Zn28 1.945 1_545 S
Zn26 O25 1.923 . S
Zn26 O29 1.933 . S
Zn26 O32 1.941 . S
Zn26 O33 1.965 . S
Zn27 O25 1.950 1_565 S
Zn27 O34 1.938 1_565 S
Zn27 O35 1.906 . S
Zn27 O45 1.953 . S
Zn28 O25 1.945 1_565 S
Zn28 O30 1.932 . S
Zn28 O37 1.977 . S
Zn28 O38 1.910 . S
O29 Zn26 1.933 . S
O29 C40 1.226 . S
O30 Zn28 1.932 . S
O30 C40 1.307 1_565 S
O31 Zn24 1.919 . S
O31 C42 1.253 . S
O32 Zn26 1.941 . S
O32 C42 1.283 . S
O33 Zn26 1.965 . S
O33 C41 1.303 . S
O34 Zn27 1.938 1_545 S
O34 C41 1.247 . S
O35 Zn27 1.906 . S
O35 C43 1.304 . S
O36 Zn24 1.924 1_565 S
O36 C44 1.311 . S
O37 Zn28 1.977 . S
O37 C43 1.272 . S
O38 Zn28 1.910 . S
O38 C44 1.231 . S
C39 O23 1.225 . S
C39 O45 1.298 1_545 S
C40 O29 1.226 . S
C40 O30 1.307 1_545 S
C41 O33 1.303 . S
C41 O34 1.247 . S
C42 O31 1.253 . S
C42 O32 1.283 . S
C43 O35 1.304 . S
C43 O37 1.272 . S
C44 O36 1.311 . S
C44 O38 1.231 . S
O45 Zn27 1.953 . S
O45 C39 1.298 1_565 S
O46 Zn47 1.953 . S
O46 C62 1.225 . S
Zn47 O46 1.953 . S
Zn47 O48 1.949 . S
Zn47 O54 1.919 . S
Zn47 O59 1.924 . S
O48 Zn47 1.949 . S
O48 Zn49 1.923 . S
O48 Zn50 1.950 . S
O48 Zn51 1.945 . S
Zn49 O48 1.923 . S
Zn49 O52 1.933 . S
Zn49 O55 1.941 . S
Zn49 O56 1.965 . S
Zn50 O48 1.950 . S
Zn50 O57 1.938 . S
Zn50 O58 1.906 . S
Zn50 O68 1.953 . S
Zn51 O48 1.945 . S
Zn51 O53 1.932 . S
Zn51 O60 1.977 . S
Zn51 O61 1.910 . S
O52 Zn49 1.933 . S
O52 C63 1.226 . S
O53 Zn51 1.932 . S
O53 C63 1.307 . S
O54 Zn47 1.919 . S
O54 C65 1.253 . S
O55 Zn49 1.941 . S
O55 C65 1.283 . S
O56 Zn49 1.965 . S
O56 C64 1.303 . S
O57 Zn50 1.938 . S
O57 C64 1.247 . S
O58 Zn50 1.906 . S
O58 C66 1.304 . S
O59 Zn47 1.924 . S
O59 C67 1.311 . S
O60 Zn51 1.977 . S
O60 C66 1.272 . S
O61 Zn51 1.910 . S
O61 C67 1.231 . S
C62 O46 1.225 . S
C62 O68 1.298 . S
C63 O52 1.226 . S
C63 O53 1.307 . S
C64 O56 1.303 . S
C64 O57 1.247 . S
C65 O54 1.253 . S
C65 O55 1.283 . S
C66 O58 1.304 . S
C66 O60 1.272 . S
C67 O59 1.311 . S
C67 O61 1.231 . S
O68 Zn50 1.953 . S
O68 C62 1.298 . S
C69 C70 1.384 . S
C69 H82 0.947 . S
C69 C104 1.382 . S
C70 C69 1.384 . S
C70 C71 1.378 . S
C71 C70 1.378 . S
C71 C72 1.378 . S
C71 H83 0.952 . S
C72 C71 1.378 . S
C72 H84 0.950 . S
C72 C103 1.383 . S
H73 C92 0.947 . S
H74 C93 0.946 . S
H75 C95 0.953 . S
H76 C96 0.945 . S
H77 C98 0.952 . S
H78 C99 0.949 . S
H79 C101 0.950 . S
H80 C102 0.948 . S
H81 C104 0.951 . S
H82 C69 0.947 . S
H83 C71 0.952 . S
H84 C72 0.950 . S
N85 C88 1.382 . S
N85 C90 1.363 1_545 S
N86 C88 1.371 . S
N86 C89 1.372 . S
N87 C89 1.361 1_565 S
N87 C90 1.377 . S
C88 N85 1.382 . S
C88 N86 1.371 . S
C88 C91 1.480 . S
C89 N86 1.372 . S
C89 N87 1.361 1_545 S
C89 C97 1.457 . S
C90 N85 1.363 1_565 S
C90 N87 1.377 . S
C90 C103 1.479 . S
C91 C88 1.480 . S
C91 C92 1.383 . S
C91 C96 1.385 . S
C92 H73 0.947 . S
C92 C91 1.383 . S
C92 C93 1.388 . S
C93 H74 0.946 . S
C93 C92 1.388 . S
C93 C94 1.384 . S
C94 C93 1.384 . S
C94 C95 1.377 . S
C95 H75 0.953 . S
C95 C94 1.377 . S
C95 C96 1.369 . S
C96 H76 0.945 . S
C96 C91 1.385 . S
C96 C95 1.369 . S
C97 C89 1.457 . S
C97 C98 1.372 . S
C97 C102 1.364 1_545 S
C98 H77 0.952 . S
C98 C97 1.372 . S
C98 C99 1.389 . S
C99 H78 0.949 . S
C99 C98 1.389 . S
C99 C100 1.387 . S
C100 C99 1.387 . S
C100 C101 1.372 1_545 S
C101 H79 0.950 . S
C101 C100 1.372 1_565 S
C101 C102 1.379 . S
C102 H80 0.948 . S
C102 C97 1.364 1_565 S
C102 C101 1.379 . S
C103 C72 1.383 . S
C103 C90 1.479 . S
C103 C104 1.398 . S
C104 C69 1.382 . S
C104 H81 0.951 . S
C104 C103 1.398 . S
C105 C106 1.384 . S
C105 H118 0.947 . S
C105 C140 1.382 . S
C106 C105 1.384 . S
C106 C107 1.378 . S
C107 C106 1.378 . S
C107 C108 1.378 . S
C107 H119 0.952 . S
C108 C107 1.378 . S
C108 H120 0.950 . S
C108 C139 1.383 . S
H109 C128 0.947 . S
H110 C129 0.946 . S
H111 C131 0.953 . S
H112 C132 0.945 . S
H113 C134 0.952 . S
H114 C135 0.949 . S
H115 C137 0.950 . S
H116 C138 0.948 . S
H117 C140 0.951 . S
H118 C105 0.947 . S
H119 C107 0.952 . S
H120 C108 0.950 . S
N121 C124 1.382 . S
N121 C126 1.363 . S
N122 C124 1.371 . S
N122 C125 1.372 . S
N123 C125 1.361 . S
N123 C126 1.377 . S
C124 N121 1.382 . S
C124 N122 1.371 . S
C124 C127 1.480 . S
C125 N122 1.372 . S
C125 N123 1.361 . S
C125 C133 1.457 . S
C126 N121 1.363 . S
C126 N123 1.377 . S
C126 C139 1.479 . S
C127 C124 1.480 . S
C127 C128 1.383 . S
C127 C132 1.385 . S
C128 H109 0.947 . S
C128 C127 1.383 . S
C128 C129 1.388 . S
C129 H110 0.946 . S
C129 C128 1.388 . S
C129 C130 1.384 . S
C130 C129 1.384 . S
C130 C131 1.377 . S
C131 H111 0.953 . S
C131 C130 1.377 . S
C131 C132 1.369 . S
C132 H112 0.945 . S
C132 C127 1.385 . S
C132 C131 1.369 . S
C133 C125 1.457 . S
C133 C134 1.372 . S
C133 C138 1.364 . S
C134 H113 0.952 . S
C134 C133 1.372 . S
C134 C135 1.389 . S
C135 H114 0.949 . S
C135 C134 1.389 . S
C135 C136 1.387 . S
C136 C135 1.387 . S
C136 C137 1.372 . S
C137 H115 0.950 . S
C137 C136 1.372 . S
C137 C138 1.379 . S
C138 H116 0.948 . S
C138 C133 1.364 . S
C138 C137 1.379 . S
C139 C108 1.383 . S
C139 C126 1.479 . S
C139 C140 1.398 . S
C140 C105 1.382 . S
C140 H117 0.951 . S
C140 C139 1.398 . S
C141 C142 1.384 . S
C141 H154 0.947 . S
C141 C176 1.382 . S
C142 C141 1.384 . S
C142 C143 1.378 . S
C143 C142 1.378 . S
C143 C144 1.378 . S
C143 H155 0.952 . S
C144 C143 1.378 . S
C144 H156 0.950 . S
C144 C175 1.383 . S
H145 C164 0.947 . S
H146 C165 0.946 . S
H147 C167 0.953 . S
H148 C168 0.945 . S
H149 C170 0.952 . S
H150 C171 0.949 1_554 S
H151 C173 0.950 1_554 S
H152 C174 0.948 . S
H153 C176 0.951 . S
H154 C141 0.947 . S
H155 C143 0.952 . S
H156 C144 0.950 . S
N157 C160 1.382 . S
N157 C162 1.363 1_455 S
N158 C160 1.371 . S
N158 C161 1.372 . S
N159 C161 1.361 1_655 S
N159 C162 1.377 . S
C160 N157 1.382 . S
C160 N158 1.371 . S
C160 C163 1.480 . S
C161 N158 1.372 . S
C161 N159 1.361 1_455 S
C161 C169 1.457 . S
C162 N157 1.363 1_655 S
C162 N159 1.377 . S
C162 C175 1.479 . S
C163 C160 1.480 . S
C163 C164 1.383 . S
C163 C168 1.385 . S
C164 H145 0.947 . S
C164 C163 1.383 . S
C164 C165 1.388 . S
C165 H146 0.946 . S
C165 C164 1.388 . S
C165 C166 1.384 . S
C166 C165 1.384 . S
C166 C167 1.377 . S
C167 H147 0.953 . S
C167 C166 1.377 . S
C167 C168 1.369 . S
C168 H148 0.945 . S
C168 C163 1.385 . S
C168 C167 1.369 . S
C169 C161 1.457 . S
C169 C170 1.372 . S
C169 C174 1.364 1_455 S
C170 H149 0.952 . S
C170 C169 1.372 . S
C170 C171 1.389 . S
C171 H150 0.949 1_556 S
C171 C170 1.389 . S
C171 C172 1.387 1_556 S
C172 C171 1.387 1_554 S
C172 C173 1.372 1_454 S
C173 H151 0.950 1_556 S
C173 C172 1.372 1_656 S
C173 C174 1.379 . S
C174 H152 0.948 . S
C174 C169 1.364 1_655 S
C174 C173 1.379 . S
C175 C144 1.383 . S
C175 C162 1.479 . S
C175 C176 1.398 . S
C176 C141 1.382 . S
C176 H153 0.951 . S
C176 C175 1.398 . S
C177 C178 1.384 . S
C177 H190 0.947 . S
C177 C212 1.382 . S
C178 C177 1.384 . S
C178 C179 1.378 . S
C179 C178 1.378 . S
C179 C180 1.378 . S
C179 H191 0.952 . S
C180 C179 1.378 . S
C180 H192 0.950 . S
C180 C211 1.383 . S
H181 C200 0.947 . S
H182 C201 0.946 . S
H183 C203 0.953 . S
H184 C204 0.945 . S
H185 C206 0.952 . S
H186 C207 0.949 . S
H187 C209 0.950 . S
H188 C210 0.948 . S
H189 C212 0.951 . S
H190 C177 0.947 . S
H191 C179 0.952 . S
H192 C180 0.950 . S
N193 C196 1.382 1_455 S
N193 C198 1.363 . S
N194 C196 1.371 . S
N194 C197 1.372 1_655 S
N195 C197 1.361 . S
N195 C198 1.377 . S
C196 N193 1.382 1_655 S
C196 N194 1.371 . S
C196 C199 1.480 . S
C197 N194 1.372 1_455 S
C197 N195 1.361 . S
C197 C205 1.457 . S
C198 N193 1.363 . S
C198 N195 1.377 . S
C198 C211 1.479 . S
C199 C196 1.480 . S
C199 C200 1.383 . S
C199 C204 1.385 . S
C200 H181 0.947 . S
C200 C199 1.383 . S
C200 C201 1.388 . S
C201 H182 0.946 . S
C201 C200 1.388 . S
C201 C202 1.384 . S
C202 C201 1.384 . S
C202 C203 1.377 . S
C203 H183 0.953 . S
C203 C202 1.377 . S
C203 C204 1.369 . S
C204 H184 0.945 . S
C204 C199 1.385 . S
C204 C203 1.369 . S
C205 C197 1.457 . S
C205 C206 1.372 1_455 S
C205 C210 1.364 . S
C206 H185 0.952 . S
C206 C205 1.372 1_655 S
C206 C207 1.389 . S
C207 H186 0.949 . S
C207 C206 1.389 . S
C207 C208 1.387 1_655 S
C208 C207 1.387 1_455 S
C208 C209 1.372 . S
C209 H187 0.950 . S
C209 C208 1.372 . S
C209 C210 1.379 . S
C210 H188 0.948 . S
C210 C205 1.364 . S
C210 C209 1.379 . S
C211 C180 1.383 . S
C211 C198 1.479 . S
C211 C212 1.398 . S
C212 C177 1.382 . S
C212 H189 0.951 . S
C212 C211 1.398 . S
C213 C214 1.384 . S
C213 H226 0.947 . S
C213 C248 1.382 . S
C214 C213 1.384 . S
C214 C215 1.378 . S
C215 C214 1.378 . S
C215 C216 1.378 . S
C215 H227 0.952 . S
C216 C215 1.378 . S
C216 H228 0.950 . S
C216 C247 1.383 . S
H217 C236 0.947 . S
H218 C237 0.946 . S
H219 C239 0.953 . S
H220 C240 0.945 . S
H221 C242 0.952 . S
H222 C243 0.949 . S
H223 C245 0.950 . S
H224 C246 0.948 . S
H225 C248 0.951 . S
H226 C213 0.947 . S
H227 C215 0.952 . S
H228 C216 0.950 . S
N229 C232 1.382 1_545 S
N229 C234 1.363 . S
N230 C232 1.371 . S
N230 C233 1.372 1_565 S
N231 C233 1.361 . S
N231 C234 1.377 . S
C232 N229 1.382 1_565 S
C232 N230 1.371 . S
C232 C235 1.480 . S
C233 N230 1.372 1_545 S
C233 N231 1.361 . S
C233 C241 1.457 . S
C234 N229 1.363 . S
C234 N231 1.377 . S
C234 C247 1.479 . S
C235 C232 1.480 . S
C235 C236 1.383 . S
C235 C240 1.385 . S
C236 H217 0.947 . S
C236 C235 1.383 . S
C236 C237 1.388 . S
C237 H218 0.946 . S
C237 C236 1.388 . S
C237 C238 1.384 . S
C238 C237 1.384 . S
C238 C239 1.377 . S
C239 H219 0.953 . S
C239 C238 1.377 . S
C239 C240 1.369 . S
C240 H220 0.945 . S
C240 C235 1.385 . S
C240 C239 1.369 . S
C241 C233 1.457 . S
C241 C242 1.372 1_545 S
C241 C246 1.364 . S
C242 H221 0.952 . S
C242 C241 1.372 1_565 S
C242 C243 1.389 . S
C243 H222 0.949 . S
C243 C242 1.389 . S
C243 C244 1.387 1_565 S
C244 C243 1.387 1_545 S
C244 C245 1.372 . S
C245 H223 0.950 . S
C245 C244 1.372 . S
C245 C246 1.379 . S
C246 H224 0.948 . S
C246 C241 1.364 . S
C246 C245 1.379 . S
C247 C216 1.383 . S
C247 C234 1.479 . S
C247 C248 1.398 . S
C248 C213 1.382 . S
C248 H225 0.951 . S
C248 C247 1.398 . S
C249 C250 1.384 . S
C249 H262 0.947 . S
C249 C284 1.382 . S
C250 C249 1.384 . S
C250 C251 1.378 . S
C251 C250 1.378 . S
C251 C252 1.378 . S
C251 H263 0.952 . S
C252 C251 1.378 . S
C252 H264 0.950 . S
C252 C283 1.383 . S
H253 C272 0.947 . S
H254 C273 0.946 . S
H255 C275 0.953 . S
H256 C276 0.945 . S
H257 C278 0.952 . S
H258 C279 0.949 1_556 S
H259 C281 0.950 1_556 S
H260 C282 0.948 . S
H261 C284 0.951 . S
H262 C249 0.947 . S
H263 C251 0.952 . S
H264 C252 0.950 . S
N265 C268 1.382 . S
N265 C270 1.363 . S
N266 C268 1.371 . S
N266 C269 1.372 . S
N267 C269 1.361 . S
N267 C270 1.377 . S
C268 N265 1.382 . S
C268 N266 1.371 . S
C268 C271 1.480 . S
C269 N266 1.372 . S
C269 N267 1.361 . S
C269 C277 1.457 . S
C270 N265 1.363 . S
C270 N267 1.377 . S
C270 C283 1.479 . S
C271 C268 1.480 . S
C271 C272 1.383 . S
C271 C276 1.385 . S
C272 H253 0.947 . S
C272 C271 1.383 . S
C272 C273 1.388 . S
C273 H254 0.946 . S
C273 C272 1.388 . S
C273 C274 1.384 . S
C274 C273 1.384 . S
C274 C275 1.377 . S
C275 H255 0.953 . S
C275 C274 1.377 . S
C275 C276 1.369 . S
C276 H256 0.945 . S
C276 C271 1.385 . S
C276 C275 1.369 . S
C277 C269 1.457 . S
C277 C278 1.372 . S
C277 C282 1.364 . S
C278 H257 0.952 . S
C278 C277 1.372 . S
C278 C279 1.389 . S
C279 H258 0.949 1_554 S
C279 C278 1.389 . S
C279 C280 1.387 1_554 S
C280 C279 1.387 1_556 S
C280 C281 1.372 1_556 S
C281 H259 0.950 1_554 S
C281 C280 1.372 1_554 S
C281 C282 1.379 . S
C282 H260 0.948 . S
C282 C277 1.364 . S
C282 C281 1.379 . S
C283 C252 1.383 . S
C283 C270 1.479 . S
C283 C284 1.398 . S
C284 C249 1.382 . S
C284 H261 0.951 . S
C284 C283 1.398 . S
C285 C286 1.369 . S
C285 C287 1.419 . S
C285 H289 0.930 . S
C286 C285 1.369 . S
C286 C295 1.429 . S
C287 C285 1.419 . S
C287 C288 1.363 . S
C287 H290 0.929 . S
C288 C287 1.363 . S
C288 C294 1.428 . S
H289 C285 0.930 . S
H290 C287 0.929 . S
S291 N292 1.613 . S
S291 N293 1.610 . S
N292 S291 1.613 . S
N292 C295 1.350 . S
N293 S291 1.610 . S
N293 C294 1.351 . S
C294 C288 1.428 . S
C294 N293 1.351 . S
C294 C295 1.434 . S
C295 C286 1.429 . S
C295 N292 1.350 . S
C295 C294 1.434 . S
C296 C297 1.369 . S
C296 C298 1.419 . S
C296 H300 0.930 . S
C297 C296 1.369 . S
C297 C306 1.429 . S
C298 C296 1.419 . S
C298 C299 1.363 . S
C298 H301 0.929 . S
C299 C298 1.363 . S
C299 C305 1.428 . S
H300 C296 0.930 . S
H301 C298 0.929 . S
S302 N303 1.613 . S
S302 N304 1.610 . S
N303 S302 1.613 . S
N303 C306 1.350 . S
N304 S302 1.610 . S
N304 C305 1.351 . S
C305 C299 1.428 . S
C305 N304 1.351 . S
C305 C306 1.434 . S
C306 C297 1.429 . S
C306 N303 1.350 . S
C306 C305 1.434 . S
C307 C308 1.369 . S
C307 C309 1.419 . S
C307 H311 0.930 . S
C308 C307 1.369 . S
C308 C317 1.429 . S
C309 C307 1.419 . S
C309 C310 1.363 . S
C309 H312 0.929 . S
C310 C309 1.363 . S
C310 C316 1.428 . S
H311 C307 0.930 . S
H312 C309 0.929 . S
S313 N314 1.613 . S
S313 N315 1.610 . S
N314 S313 1.613 . S
N314 C317 1.350 . S
N315 S313 1.610 . S
N315 C316 1.351 . S
C316 C310 1.428 . S
C316 N315 1.351 . S
C316 C317 1.434 . S
C317 C308 1.429 . S
C317 N314 1.350 . S
C317 C316 1.434 . S
C318 C319 1.369 . S
C318 C320 1.419 . S
C318 H322 0.930 . S
C319 C318 1.369 . S
C319 C328 1.429 . S
C320 C318 1.419 . S
C320 C321 1.363 . S
C320 H323 0.929 . S
C321 C320 1.363 . S
C321 C327 1.428 . S
H322 C318 0.930 . S
H323 C320 0.929 . S
S324 N325 1.613 . S
S324 N326 1.610 . S
N325 S324 1.613 . S
N325 C328 1.350 . S
N326 S324 1.610 . S
N326 C327 1.351 . S
C327 C321 1.428 . S
C327 N326 1.351 . S
C327 C328 1.434 . S
C328 C319 1.429 . S
C328 N325 1.350 . S
C328 C327 1.434 . S
C329 C330 1.369 . S
C329 C331 1.419 . S
C329 H333 0.930 . S
C330 C329 1.369 . S
C330 C339 1.429 . S
C331 C329 1.419 . S
C331 C332 1.363 . S
C331 H334 0.929 . S
C332 C331 1.363 . S
C332 C338 1.428 . S
H333 C329 0.930 . S
H334 C331 0.929 . S
S335 N336 1.613 . S
S335 N337 1.610 . S
N336 S335 1.613 . S
N336 C339 1.350 . S
N337 S335 1.610 . S
N337 C338 1.351 . S
C338 C332 1.428 . S
C338 N337 1.351 . S
C338 C339 1.434 . S
C339 C330 1.429 . S
C339 N336 1.350 . S
C339 C338 1.434 . S
C340 C341 1.369 . S
C340 C342 1.419 . S
C340 H344 0.930 . S
C341 C340 1.369 . S
C341 C350 1.429 . S
C342 C340 1.419 . S
C342 C343 1.363 . S
C342 H345 0.929 . S
C343 C342 1.363 . S
C343 C349 1.428 . S
H344 C340 0.930 . S
H345 C342 0.929 . S
S346 N347 1.613 . S
S346 N348 1.610 . S
N347 S346 1.613 . S
N347 C350 1.350 . S
N348 S346 1.610 . S
N348 C349 1.351 . S
C349 C343 1.428 . S
C349 N348 1.351 . S
C349 C350 1.434 . S
C350 C341 1.429 . S
C350 N347 1.350 . S
C350 C349 1.434 . S
C351 C352 1.369 . S
C351 C353 1.419 . S
C351 H355 0.930 . S
C352 C351 1.369 . S
C352 C361 1.429 . S
C353 C351 1.419 . S
C353 C354 1.363 . S
C353 H356 0.929 . S
C354 C353 1.363 . S
C354 C360 1.428 . S
H355 C351 0.930 . S
H356 C353 0.929 . S
S357 N358 1.613 . S
S357 N359 1.610 . S
N358 S357 1.613 . S
N358 C361 1.350 . S
N359 S357 1.610 . S
N359 C360 1.351 . S
C360 C354 1.428 . S
C360 N359 1.351 . S
C360 C361 1.434 . S
C361 C352 1.429 . S
C361 N358 1.350 . S
C361 C360 1.434 . S
C362 C363 1.369 . S
C362 C364 1.419 . S
C362 H366 0.930 . S
C363 C362 1.369 . S
C363 C372 1.429 . S
C364 C362 1.419 . S
C364 C365 1.363 . S
C364 H367 0.929 . S
C365 C364 1.363 . S
C365 C371 1.428 . S
H366 C362 0.930 . S
H367 C364 0.929 . S
S368 N369 1.613 . S
S368 N370 1.610 . S
N369 S368 1.613 . S
N369 C372 1.350 . S
N370 S368 1.610 . S
N370 C371 1.351 . S
C371 C365 1.428 . S
C371 N370 1.351 . S
C371 C372 1.434 . S
C372 C363 1.429 . S
C372 N369 1.350 . S
C372 C371 1.434 . S
C373 C374 1.369 . S
C373 C375 1.419 . S
C373 H377 0.930 . S
C374 C373 1.369 . S
C374 C383 1.429 . S
C375 C373 1.419 . S
C375 C376 1.363 . S
C375 H378 0.929 . S
C376 C375 1.363 . S
C376 C382 1.428 . S
H377 C373 0.930 . S
H378 C375 0.929 . S
S379 N380 1.613 . S
S379 N381 1.610 . S
N380 S379 1.613 . S
N380 C383 1.350 . S
N381 S379 1.610 . S
N381 C382 1.351 . S
C382 C376 1.428 . S
C382 N381 1.351 . S
C382 C383 1.434 . S
C383 C374 1.429 . S
C383 N380 1.350 . S
C383 C382 1.434 . S
C384 C385 1.369 . S
C384 C386 1.419 . S
C384 H388 0.930 . S
C385 C384 1.369 . S
C385 C394 1.429 . S
C386 C384 1.419 . S
C386 C387 1.363 . S
C386 H389 0.929 . S
C387 C386 1.363 . S
C387 C393 1.428 . S
H388 C384 0.930 . S
H389 C386 0.929 . S
S390 N391 1.613 . S
S390 N392 1.610 . S
N391 S390 1.613 . S
N391 C394 1.350 . S
N392 S390 1.610 . S
N392 C393 1.351 . S
C393 C387 1.428 . S
C393 N392 1.351 . S
C393 C394 1.434 . S
C394 C385 1.429 . S
C394 N391 1.350 . S
C394 C393 1.434 . S
C395 C396 1.369 . S
C395 C397 1.419 . S
C395 H399 0.930 . S
C396 C395 1.369 . S
C396 C405 1.429 . S
C397 C395 1.419 . S
C397 C398 1.363 . S
C397 H400 0.929 . S
C398 C397 1.363 . S
C398 C404 1.428 . S
H399 C395 0.930 . S
H400 C397 0.929 . S
S401 N402 1.613 . S
S401 N403 1.610 . S
N402 S401 1.613 . S
N402 C405 1.350 . S
N403 S401 1.610 . S
N403 C404 1.351 . S
C404 C398 1.428 . S
C404 N403 1.351 . S
C404 C405 1.434 . S
C405 C396 1.429 . S
C405 N402 1.350 . S
C405 C404 1.434 . S
C406 C407 1.369 . S
C406 C408 1.419 . S
C406 H410 0.930 . S
C407 C406 1.369 . S
C407 C416 1.429 . S
C408 C406 1.419 . S
C408 C409 1.363 . S
C408 H411 0.929 . S
C409 C408 1.363 . S
C409 C415 1.428 . S
H410 C406 0.930 . S
H411 C408 0.929 . S
S412 N413 1.613 . S
S412 N414 1.610 . S
N413 S412 1.613 . S
N413 C416 1.350 . S
N414 S412 1.610 . S
N414 C415 1.351 . S
C415 C409 1.428 . S
C415 N414 1.351 . S
C415 C416 1.434 . S
C416 C407 1.429 . S
C416 N413 1.350 . S
C416 C415 1.434 . S
C417 C418 1.369 . S
C417 C419 1.419 . S
C417 H421 0.930 . S
C418 C417 1.369 . S
C418 C427 1.429 1_455 S
C419 C417 1.419 . S
C419 C420 1.363 . S
C419 H422 0.929 . S
C420 C419 1.363 . S
C420 C426 1.428 1_455 S
H421 C417 0.930 . S
H422 C419 0.929 . S
S423 N424 1.613 . S
S423 N425 1.610 . S
N424 S423 1.613 . S
N424 C427 1.350 . S
N425 S423 1.610 . S
N425 C426 1.351 . S
C426 C420 1.428 1_655 S
C426 N425 1.351 . S
C426 C427 1.434 . S
C427 C418 1.429 1_655 S
C427 N424 1.350 . S
C427 C426 1.434 . S
C428 C429 1.369 . S
C428 C430 1.419 . S
C428 H432 0.930 . S
C429 C428 1.369 . S
C429 C438 1.429 1_545 S
C430 C428 1.419 . S
C430 C431 1.363 . S
C430 H433 0.929 . S
C431 C430 1.363 . S
C431 C437 1.428 1_545 S
H432 C428 0.930 . S
H433 C430 0.929 . S
S434 N435 1.613 . S
S434 N436 1.610 . S
N435 S434 1.613 . S
N435 C438 1.350 . S
N436 S434 1.610 . S
N436 C437 1.351 . S
C437 C431 1.428 1_565 S
C437 N436 1.351 . S
C437 C438 1.434 . S
C438 C429 1.429 1_565 S
C438 N435 1.350 . S
C438 C437 1.434 . S
C439 C440 1.369 . S
C439 C441 1.419 . S
C439 H443 0.930 . S
C440 C439 1.369 . S
C440 C449 1.429 . S
C441 C439 1.419 . S
C441 C442 1.363 . S
C441 H444 0.929 . S
C442 C441 1.363 . S
C442 C448 1.428 . S
H443 C439 0.930 . S
H444 C441 0.929 . S
S445 N446 1.613 . S
S445 N447 1.610 . S
N446 S445 1.613 . S
N446 C449 1.350 . S
N447 S445 1.610 . S
N447 C448 1.351 . S
C448 C442 1.428 . S
C448 N447 1.351 . S
C448 C449 1.434 . S
C449 C440 1.429 . S
C449 N446 1.350 . S
C449 C448 1.434 . S
C450 C451 1.369 1_565 S
C450 C452 1.419 . S
C450 H454 0.930 . S
C451 C450 1.369 1_545 S
C451 C460 1.429 . S
C452 C450 1.419 . S
C452 C453 1.363 1_565 S
C452 H455 0.929 . S
C453 C452 1.363 1_545 S
C453 C459 1.428 . S
H454 C450 0.930 . S
H455 C452 0.929 . S
S456 N457 1.613 . S
S456 N458 1.610 . S
N457 S456 1.613 . S
N457 C460 1.350 . S
N458 S456 1.610 . S
N458 C459 1.351 . S
C459 C453 1.428 . S
C459 N458 1.351 . S
C459 C460 1.434 . S
C460 C451 1.429 . S
C460 N457 1.350 . S
C460 C459 1.434 . S
C461 C462 1.369 . S
C461 C463 1.419 . S
C461 H465 0.930 . S
C462 C461 1.369 . S
C462 C471 1.429 . S
C463 C461 1.419 . S
C463 C464 1.363 . S
C463 H466 0.929 . S
C464 C463 1.363 . S
C464 C470 1.428 . S
H465 C461 0.930 . S
H466 C463 0.929 . S
S467 N468 1.613 . S
S467 N469 1.610 . S
N468 S467 1.613 . S
N468 C471 1.350 . S
N469 S467 1.610 . S
N469 C470 1.351 . S
C470 C464 1.428 . S
C470 N469 1.351 . S
C470 C471 1.434 . S
C471 C462 1.429 . S
C471 N468 1.350 . S
C471 C470 1.434 . S
C472 C473 1.369 . S
C472 C474 1.419 . S
C472 H476 0.930 . S
C473 C472 1.369 . S
C473 C482 1.429 1_455 S
C474 C472 1.419 . S
C474 C475 1.363 . S
C474 H477 0.929 . S
C475 C474 1.363 . S
C475 C481 1.428 1_455 S
H476 C472 0.930 . S
H477 C474 0.929 . S
S478 N479 1.613 . S
S478 N480 1.610 . S
N479 S478 1.613 . S
N479 C482 1.350 . S
N480 S478 1.610 . S
N480 C481 1.351 . S
C481 C475 1.428 1_655 S
C481 N480 1.351 . S
C481 C482 1.434 . S
C482 C473 1.429 1_655 S
C482 N479 1.350 . S
C482 C481 1.434 . S
C286 C20 1.265 . S
C288 C274 1.295 . S
C297 C41 1.365 . S
C299 C202 1.320 . S
C308 C64 1.396 . S
C310 C238 1.351 . S
C319 C19 1.314 . S
C321 C250 1.403 . S
C332 C178 1.355 . S
C330 C44 1.347 . S
C343 C214 1.339 . S
C341 C67 1.330 . S
C352 C43 1.274 . S
C354 C130 1.294 . S
C363 C66 1.274 . S
C365 C142 1.320 . S
C374 C21 1.346 . S
C376 C70 1.354 . S
C387 C106 1.381 . S
C385 C42 1.306 . S
C398 C166 1.356 . S
C396 C65 1.318 . S
C407 C18 1.368 . S
C409 C94 1.322 . S
C420 C172 1.462 . S
C418 C17 1.471 . S
C429 C39 1.466 . S
C431 C100 1.461 . S
C440 C62 1.482 . S
C442 C136 1.481 . S
C453 C244 1.448 . S
C451 C40 1.453 . S
C464 C280 1.471 . S
C462 C63 1.471 . S
C473 C16 1.466 . S
C475 C208 1.462 . S
