# Generated by pormake.
# Topology nom, (4,4)-cn, num edge types: 1
# Building blocks:
#     Node 0, Type 0, BuildingBlock: GIZVER_clean_linker_0, # of connection points: 4
#     Node 1, Type 0, BuildingBlock: GIZVER_clean_linker_0, # of connection points: 4
#     Node 2, Type 0, BuildingBlock: GIZVER_clean_linker_0, # of connection points: 4
#     Node 3, Type 0, BuildingBlock: GIZVER_clean_linker_0, # of connection points: 4
#     Node 4, Type 0, BuildingBlock: GIZVER_clean_linker_0, # of connection points: 4
#     Node 5, Type 0, BuildingBlock: GIZVER_clean_linker_0, # of connection points: 4
#     Node 6, Type 1, BuildingBlock: GALJAG_clean_sbu_0, # of connection points: 4
#     Node 7, Type 1, BuildingBlock: GALJAG_clean_sbu_0, # of connection points: 4
#     Node 8, Type 1, BuildingBlock: GALJAG_clean_sbu_0, # of connection points: 4
#     Node 9, Type 1, BuildingBlock: GALJAG_clean_sbu_0, # of connection points: 4
#     Node 10, Type 1, BuildingBlock: GALJAG_clean_sbu_0, # of connection points: 4
#     Node 11, Type 1, BuildingBlock: GALJAG_clean_sbu_0, # of connection points: 4
#     Edge 12, Type (0, 1), BuildingBlock: UVAHIK_clean_linker_0, # of connection points: 2
#     Edge 13, Type (0, 1), BuildingBlock: UVAHIK_clean_linker_0, # of connection points: 2
#     Edge 14, Type (0, 1), BuildingBlock: UVAHIK_clean_linker_0, # of connection points: 2
#     Edge 15, Type (0, 1), BuildingBlock: UVAHIK_clean_linker_0, # of connection points: 2
#     Edge 16, Type (0, 1), BuildingBlock: UVAHIK_clean_linker_0, # of connection points: 2
#     Edge 17, Type (0, 1), BuildingBlock: UVAHIK_clean_linker_0, # of connection points: 2
#     Edge 18, Type (0, 1), BuildingBlock: UVAHIK_clean_linker_0, # of connection points: 2
#     Edge 19, Type (0, 1), BuildingBlock: UVAHIK_clean_linker_0, # of connection points: 2
#     Edge 20, Type (0, 1), BuildingBlock: UVAHIK_clean_linker_0, # of connection points: 2
#     Edge 21, Type (0, 1), BuildingBlock: UVAHIK_clean_linker_0, # of connection points: 2
#     Edge 22, Type (0, 1), BuildingBlock: UVAHIK_clean_linker_0, # of connection points: 2
#     Edge 23, Type (0, 1), BuildingBlock: UVAHIK_clean_linker_0, # of connection points: 2
#     Edge 24, Type (0, 1), BuildingBlock: UVAHIK_clean_linker_0, # of connection points: 2
#     Edge 25, Type (0, 1), BuildingBlock: UVAHIK_clean_linker_0, # of connection points: 2
#     Edge 26, Type (0, 1), BuildingBlock: UVAHIK_clean_linker_0, # of connection points: 2
#     Edge 27, Type (0, 1), BuildingBlock: UVAHIK_clean_linker_0, # of connection points: 2
#     Edge 28, Type (0, 1), BuildingBlock: UVAHIK_clean_linker_0, # of connection points: 2
#     Edge 29, Type (0, 1), BuildingBlock: UVAHIK_clean_linker_0, # of connection points: 2
#     Edge 30, Type (0, 1), BuildingBlock: UVAHIK_clean_linker_0, # of connection points: 2
#     Edge 31, Type (0, 1), BuildingBlock: UVAHIK_clean_linker_0, # of connection points: 2
#     Edge 32, Type (0, 1), BuildingBlock: UVAHIK_clean_linker_0, # of connection points: 2
#     Edge 33, Type (0, 1), BuildingBlock: UVAHIK_clean_linker_0, # of connection points: 2
#     Edge 34, Type (0, 1), BuildingBlock: UVAHIK_clean_linker_0, # of connection points: 2
#     Edge 35, Type (0, 1), BuildingBlock: UVAHIK_clean_linker_0, # of connection points: 2
# Relax obj value: 0.013
# Max RMSD: 0.088
# Mean RMSD: 0.072
data_MOF--net-nom--node1-GALJAG_clean_sbu_0--node2-GIZVER_clean_linker_0--edge1-UVAHIK_clean_linker_0
_symmetry_space_group_name_H-M    P1
_symmetry_Int_Tables_number       1
_symmetry_cell_setting            triclinic
loop_
_symmetry_equiv_pos_as_xyz
'x, y, z'
_cell_length_a     59.180988
_cell_length_b     59.136218
_cell_length_c     61.36415
_cell_angle_alpha  89.97489
_cell_angle_beta   89.982265
_cell_angle_gamma 120.03717
loop_
_atom_site_label
_atom_site_type_symbol
_atom_site_fract_x
_atom_site_fract_y
_atom_site_fract_z
_atom_type_partial_charge
H0 H 0.98048 0.56917 0.35107 0.0
H1 H 1.00539 0.57784 0.28402 0.0
H2 H 0.93128 0.5133 0.30289 0.0
H3 H 0.01821 0.60909 0.33954 0.0
H4 H 0.02384 0.61585 0.31106 0.0
H5 H 0.03396 0.58015 0.35733 0.0
H6 H 0.10713 0.59335 0.33159 0.0
H7 H 0.06009 0.61566 0.29418 0.0
C8 C 0.97723 0.56192 0.33448 0.0
C9 C 0.95379 0.53916 0.32909 0.0
C10 C 0.99619 0.57575 0.31835 0.0
C11 C 0.99138 0.56679 0.29669 0.0
C12 C 0.96813 0.54404 0.29128 0.0
C13 C 0.9497 0.53021 0.30749 0.0
C14 C 0.02053 0.60112 0.32381 0.0
C15 C 0.04399 0.59751 0.32529 0.0
C16 C 0.04805 0.5865 0.34416 0.0
C17 C 0.07069 0.58467 0.34643 0.0
C18 C 0.08898 0.59342 0.32941 0.0
C19 C 0.08546 0.60476 0.31059 0.0
C20 C 0.06276 0.60655 0.30852 0.0
H21 H 0.42268 0.97799 0.51703 0.0
H22 H 0.45301 1.00529 0.45262 0.0
H23 H 0.43774 0.92971 0.47415 0.0
H24 H 0.42346 0.0162 0.50312 0.0
H25 H 0.42702 0.02192 0.47441 0.0
H26 H 0.46539 0.03194 0.52603 0.0
H27 H 0.52839 0.1059 0.50458 0.0
H28 H 0.46529 0.05916 0.46086 0.0
C29 C 0.43002 0.97526 0.50165 0.0
C30 C 0.43012 0.95191 0.49776 0.0
C31 C 0.43855 0.99473 0.48548 0.0
C32 C 0.44711 0.99061 0.46528 0.0
C33 C 0.44718 0.96728 0.46112 0.0
C34 C 0.43905 0.94831 0.4776 0.0
C35 C 0.43632 0.0188 0.48898 0.0
C36 C 0.46273 0.04259 0.49283 0.0
C37 C 0.47486 0.04637 0.51327 0.0
C38 C 0.49881 0.06902 0.51744 0.0
C39 C 0.51061 0.08779 0.50096 0.0
C40 C 0.4987 0.08458 0.48055 0.0
C41 C 0.47478 0.06176 0.4765 0.0
H42 H 0.42181 0.45799 0.62718 0.0
H43 H 0.45176 0.46399 0.69223 0.0
H44 H 0.43883 0.52438 0.66688 0.0
H45 H 0.42018 0.42009 0.64445 0.0
H46 H 0.42884 0.42136 0.67253 0.0
H47 H 0.45963 0.44874 0.61749 0.0
H48 H 0.52484 0.43795 0.62984 0.0
H49 H 0.46614 0.4176 0.67925 0.0
C50 C 0.42927 0.46882 0.64222 0.0
C51 C 0.43027 0.49289 0.64481 0.0
C52 C 0.43746 0.4585 0.65917 0.0
C53 C 0.44615 0.47224 0.67894 0.0
C54 C 0.44688 0.49617 0.68179 0.0
C55 C 0.43936 0.50648 0.66449 0.0
C56 C 0.43526 0.43204 0.65677 0.0
C57 C 0.46091 0.43459 0.64976 0.0
C58 C 0.4705 0.44352 0.62862 0.0
C59 C 0.49369 0.44494 0.62161 0.0
C60 C 0.50715 0.43718 0.63563 0.0
C61 C 0.49704 0.42644 0.65617 0.0
C62 C 0.47425 0.42594 0.66346 0.0
H63 H 0.98369 0.42952 0.7905 0.0
H64 H 1.00683 0.44584 0.85782 0.0
H65 H 0.93487 0.43957 0.83696 0.0
H66 H 0.01802 0.42269 0.80415 0.0
H67 H 0.02415 0.42421 0.83271 0.0
H68 H 0.04246 0.46126 0.78093 0.0
H69 H 0.1128 0.52443 0.80768 0.0
H70 H 0.05684 0.46512 0.85018 0.0
C71 C 0.98024 0.4341 0.80682 0.0
C72 C 0.95714 0.43449 0.81146 0.0
C73 C 0.99843 0.43845 0.82342 0.0
C74 C 0.99349 0.44349 0.84477 0.0
C75 C 0.97086 0.44454 0.84944 0.0
C76 C 0.95303 0.44031 0.83278 0.0
C77 C 0.02155 0.43492 0.81892 0.0
C78 C 0.04631 0.46083 0.81599 0.0
C79 C 0.05433 0.47146 0.79496 0.0
C80 C 0.07859 0.49416 0.79192 0.0
C81 C 0.09394 0.50703 0.8101 0.0
C82 C 0.08636 0.49681 0.83113 0.0
C83 C 0.06248 0.47359 0.83404 0.0
H84 H 0.61158 0.05629 0.01574 0.0
H85 H 0.58819 0.02979 0.94984 0.0
H86 H 0.59891 0.10402 0.97019 0.0
H87 H 0.61569 0.02019 0.00161 0.0
H88 H 0.61027 0.01196 0.97336 0.0
H89 H 0.57666 1.00483 0.02689 0.0
H90 H 0.51171 0.93005 0.00971 0.0
H91 H 0.56982 0.97526 0.96162 0.0
C92 C 0.60567 0.0591 -0.00029 0.0
C93 C 0.60513 0.0821 -0.00489 0.0
C94 C 0.59929 0.04001 0.98348 0.0
C95 C 0.59244 0.04414 0.96251 0.0
C96 C 0.59192 0.06709 0.9577 0.0
C97 C 0.59795 0.08569 0.97417 0.0
C98 C 0.60189 0.01632 0.98792 0.0
C99 C 0.57583 0.99288 0.99352 0.0
C100 C 0.56585 0.98992 0.01478 0.0
C101 C 0.54246 0.96743 0.02061 0.0
C102 C 0.52897 0.94806 0.00488 0.0
C103 C 0.53861 0.95055 0.9836 0.0
C104 C 0.56202 0.97321 0.97794 0.0
H105 H 0.61402 0.57294 0.12289 0.0
H106 H 0.59576 0.58083 0.1895 0.0
H107 H 0.60317 0.51503 0.17064 0.0
H108 H 0.61856 0.614 0.13541 0.0
H109 H 0.61519 0.61883 0.16373 0.0
H110 H 0.57599 0.58357 0.11382 0.0
H111 H 0.51234 0.59515 0.13139 0.0
H112 H 0.57784 0.62101 0.17462 0.0
C113 C 0.60916 0.56532 0.13934 0.0
C114 C 0.60862 0.54191 0.14465 0.0
C115 C 0.60404 0.57924 0.15538 0.0
C116 C 0.59876 0.56977 0.17689 0.0
C117 C 0.59806 0.54639 0.18223 0.0
C118 C 0.60257 0.53245 0.16607 0.0
C119 C 0.60591 0.60501 0.14993 0.0
C120 C 0.57928 0.60148 0.14527 0.0
C121 C 0.56667 0.59002 0.12551 0.0
C122 C 0.54241 0.58755 0.12055 0.0
C123 C 0.53087 0.59665 0.13546 0.0
C124 C 0.5437 0.60942 0.1547 0.0
C125 C 0.56765 0.61111 0.15986 0.0
In126 In 0.63938 0.40027 0.40434 0.0
O127 O 0.68166 0.42986 0.41372 0.0
O128 O 0.67521 0.40117 0.38991 0.0
C129 C 0.61588 0.41046 0.43753 0.0
C130 C 0.63214 0.42408 0.36974 0.0
C131 C 0.61715 0.34787 0.40885 0.0
O132 O 0.63772 0.41176 0.4398 0.0
O133 O 0.60589 0.40352 0.41888 0.0
O134 O 0.60803 0.35811 0.39613 0.0
O135 O 0.63718 0.36398 0.41923 0.0
C136 C 0.69156 0.42049 0.40089 0.0
O137 O 0.62867 0.40122 0.36852 0.0
O138 O 0.63968 0.43483 0.38808 0.0
In139 In 0.25995 0.63409 0.56494 0.0
O140 O 0.26477 0.59805 0.56621 0.0
O141 O 0.2991 0.63513 0.56363 0.0
C142 C 0.22688 0.61855 0.53072 0.0
C143 C 0.23013 0.61804 0.60142 0.0
C144 C 0.2897 0.68673 0.56139 0.0
O145 O 0.24276 0.61044 0.53361 0.0
O146 O 0.22808 0.63463 0.54482 0.0
O147 O 0.28076 0.67549 0.57942 0.0
O148 O 0.28396 0.67146 0.54539 0.0
C149 C 0.28936 0.61072 0.5652 0.0
O150 O 0.2542 0.62564 0.60165 0.0
O151 O 0.22135 0.61906 0.58301 0.0
In152 In 0.64352 0.25805 0.73703 0.0
O153 O 0.68565 0.27268 0.72664 0.0
O154 O 0.67936 0.29339 0.75189 0.0
C155 C 0.62071 0.22335 0.70432 0.0
C156 C 0.63295 0.2249 0.77092 0.0
C157 C 0.62394 0.29025 0.73089 0.0
O158 O 0.64465 0.24032 0.70435 0.0
O159 O 0.60814 0.22411 0.72063 0.0
O160 O 0.62324 0.2801 0.74916 0.0
O161 O 0.63469 0.28436 0.71592 0.0
C162 C 0.69564 0.29134 0.74001 0.0
O163 O 0.62168 0.23806 0.76851 0.0
O164 O 0.64979 0.22892 0.75658 0.0
In165 In 0.39871 0.63508 0.90466 0.0
O166 O 0.35624 0.60537 0.9126 0.0
O167 O 0.36337 0.63527 0.88981 0.0
C168 C 0.42026 0.62267 0.93812 0.0
C169 C 0.40913 0.61483 0.86906 0.0
C170 C 0.4189 0.68683 0.91171 0.0
O171 O 0.39646 0.61615 0.93774 0.0
O172 O 0.43325 0.63592 0.92195 0.0
O173 O 0.4284 0.67799 0.89801 0.0
O174 O 0.3993 0.6696 0.92194 0.0
C175 C 0.34671 0.61539 0.90013 0.0
O176 O 0.41521 0.63851 0.87023 0.0
O177 O 0.39737 0.60139 0.88554 0.0
In178 In 0.77933 0.39737 0.07011 0.0
O179 O 0.79194 0.3984 0.10563 0.0
O180 O 0.81389 0.43208 0.08595 0.0
C181 C 0.74844 0.34496 0.06663 0.0
C182 C 0.7482 0.4185 0.07384 0.0
C183 C 0.81154 0.40614 0.03599 0.0
O184 O 0.76837 0.35527 0.07872 0.0
O185 O 0.74428 0.36101 0.0564 0.0
O186 O 0.79095 0.40742 0.0342 0.0
O187 O 0.81548 0.40006 0.05471 0.0
C188 C 0.81117 0.42135 0.10426 0.0
O189 O 0.76737 0.42754 0.06091 0.0
O190 O 0.74487 0.39901 0.08479 0.0
In191 In 0.40225 0.77909 0.24072 0.0
O192 O 0.42377 0.7582 0.25284 0.0
O193 O 0.40709 0.74902 0.22123 0.0
C194 C 0.41437 0.81385 0.27335 0.0
C195 C 0.42647 0.81432 0.20858 0.0
C196 C 0.35001 0.74753 0.2453 0.0
O197 O 0.42226 0.79756 0.27303 0.0
O198 O 0.40019 0.81229 0.25743 0.0
O199 O 0.36048 0.75786 0.22735 0.0
O200 O 0.36588 0.75276 0.26078 0.0
C201 C 0.42004 0.7452 0.23559 0.0
O202 O 0.40193 0.80072 0.20995 0.0
O203 O 0.4387 0.80984 0.22318 0.0
C204 C 0.1212 0.60535 0.28823 0.0
C205 C 0.10744 0.61781 0.29494 0.0
C206 C 0.14535 0.61947 0.2778 0.0
C207 C 0.2008 0.68544 0.27851 0.0
H208 H 0.22899 0.66019 0.23376 0.0
C209 C 0.3108 0.72481 0.26934 0.0
C210 C 0.32142 0.73169 0.24828 0.0
C211 C 0.28379 0.71117 0.27241 0.0
C212 C 0.22131 0.66757 0.24615 0.0
H213 H 0.1073 0.65437 0.29465 0.0
H214 H 0.14946 0.67905 0.2763 0.0
H215 H 0.18209 0.63598 0.24179 0.0
H216 H 0.31208 0.72914 0.21388 0.0
H217 H 0.26467 0.70484 0.21929 0.0
H218 H 0.23997 0.7166 0.28331 0.0
C219 C 0.14163 0.65839 0.27926 0.0
C220 C 0.19454 0.65368 0.2508 0.0
C221 C 0.11737 0.64421 0.28955 0.0
C222 C 0.30444 0.72411 0.23031 0.0
C223 C 0.27735 0.71016 0.23338 0.0
C224 C 0.22752 0.69911 0.27405 0.0
C225 C 0.15631 0.6464 0.27402 0.0
C226 C 0.18405 0.66234 0.2672 0.0
C227 C 0.26678 0.70388 0.25449 0.0
C228 C 0.23812 0.69013 0.25806 0.0
H229 H 0.11392 0.58497 0.29212 0.0
H230 H 0.1562 0.60968 0.27405 0.0
H231 H 0.19342 0.69246 0.29144 0.0
H232 H 0.32337 0.73034 0.28351 0.0
H233 H 0.27619 0.70628 0.28885 0.0
C234 C 0.49492 0.11597 0.45526 0.0
C235 C 0.51032 0.10667 0.4648 0.0
C236 C 0.50669 0.14023 0.44467 0.0
C237 C 0.56595 0.20271 0.44991 0.0
H238 H 0.54525 0.22238 0.3965 0.0
C239 C 0.61999 0.30923 0.42125 0.0
C240 C 0.60539 0.31935 0.41167 0.0
C241 C 0.60885 0.28243 0.42485 0.0
C242 C 0.55107 0.21727 0.41159 0.0
H243 H 0.54988 0.11416 0.46877 0.0
H244 H 0.57036 0.1565 0.45051 0.0
H245 H 0.52453 0.17624 0.40686 0.0
H246 H 0.56782 0.3094 0.39796 0.0
H247 H 0.54786 0.26259 0.40508 0.0
H248 H 0.59147 0.24334 0.45543 0.0
C249 C 0.54926 0.14527 0.4515 0.0
C250 C 0.53929 0.19082 0.41741 0.0
C251 C 0.53753 0.12104 0.46192 0.0
C252 C 0.57952 0.30208 0.40537 0.0
C253 C 0.56817 0.27522 0.40933 0.0
C254 C 0.57739 0.22903 0.4443 0.0
C255 C 0.53403 0.15558 0.44356 0.0
C256 C 0.54676 0.18332 0.43659 0.0
C257 C 0.58261 0.26506 0.41938 0.0
C258 C 0.57026 0.23675 0.42502 0.0
H259 H 0.47392 0.10544 0.45733 0.0
H260 H 0.49449 0.14775 0.43872 0.0
H261 H 0.57166 0.19755 0.46506 0.0
H262 H 0.64011 0.32205 0.426 0.0
H263 H 0.62088 0.27539 0.43204 0.0
C264 C 0.43363 0.52943 0.62194 0.0
C265 C 0.41943 0.50309 0.62823 0.0
C266 C 0.42163 0.54072 0.6101 0.0
C267 C 0.36109 0.52665 0.57998 0.0
H268 H 0.37725 0.59407 0.60326 0.0
C269 C 0.29374 0.57099 0.56998 0.0
C270 C 0.30551 0.59816 0.56718 0.0
C271 C 0.30899 0.5594 0.57376 0.0
C272 C 0.37277 0.57546 0.59627 0.0
H273 H 0.38202 0.46749 0.62608 0.0
H274 H 0.36083 0.48721 0.60567 0.0
H275 H 0.40175 0.57369 0.61568 0.0
H276 H 0.34252 0.63436 0.56531 0.0
H277 H 0.36914 0.61414 0.57178 0.0
H278 H 0.33144 0.52825 0.56107 0.0
C279 C 0.38135 0.49914 0.60955 0.0
C280 C 0.3869 0.56375 0.60337 0.0
C281 C 0.39347 0.48778 0.62124 0.0
C282 C 0.33287 0.61339 0.56751 0.0
C283 C 0.34811 0.60181 0.57133 0.0
C284 C 0.34685 0.53837 0.57292 0.0
C285 C 0.39504 0.52599 0.60453 0.0
C286 C 0.38114 0.53909 0.59547 0.0
C287 C 0.33634 0.57474 0.57488 0.0
C288 C 0.3524 0.56283 0.58113 0.0
H289 H 0.45374 0.54159 0.62702 0.0
H290 H 0.43297 0.56127 0.60603 0.0
H291 H 0.3563 0.50779 0.57338 0.0
H292 H 0.27269 0.55874 0.56982 0.0
H293 H 0.29928 0.53854 0.57663 0.0
C294 C 0.92868 0.40342 0.78228 0.0
C295 C 0.93551 0.42547 0.79531 0.0
C296 C 0.90512 0.39144 0.77075 0.0
C297 C 0.84699 0.398 0.75586 0.0
H298 H 0.81076 0.32246 0.76037 0.0
C299 C 0.73444 0.3316 0.75466 0.0
C300 C 0.72417 0.30875 0.74205 0.0
C301 C 0.76144 0.34743 0.75728 0.0
C302 C 0.82072 0.34352 0.75872 0.0
H303 H 0.9241 0.45374 0.80458 0.0
H304 H 0.8827 0.43232 0.78549 0.0
H305 H 0.85638 0.34772 0.77086 0.0
H306 H 0.73406 0.28474 0.72202 0.0
H307 H 0.7812 0.31213 0.72698 0.0
H308 H 0.81055 0.39351 0.74485 0.0
C309 C 0.89549 0.42426 0.78387 0.0
C310 C 0.84701 0.35809 0.7646 0.0
C311 C 0.9192 0.43644 0.79509 0.0
C312 C 0.74141 0.30223 0.73185 0.0
C313 C 0.76837 0.31785 0.73473 0.0
C314 C 0.82054 0.3834 0.7503 0.0
C315 C 0.88764 0.40101 0.7722 0.0
C316 C 0.86048 0.38557 0.76354 0.0
C317 C 0.77864 0.3405 0.74759 0.0
C318 C 0.80709 0.35604 0.75192 0.0
H319 H 0.94068 0.39436 0.78203 0.0
H320 H 0.90016 0.37402 0.76143 0.0
H321 H 0.85674 0.41905 0.75441 0.0
H322 H 0.72161 0.33713 0.76267 0.0
H323 H 0.76883 0.36467 0.76744 0.0
C324 C 0.53983 0.91868 0.9572 0.0
C325 C 0.52538 0.92791 0.96852 0.0
C326 C 0.52714 0.89421 0.94699 0.0
C327 C 0.46902 0.83126 0.95525 0.0
H328 H 0.48523 0.81205 0.89948 0.0
C329 C 0.41548 0.72418 0.927 0.0
C330 C 0.4299 0.7151 0.91557 0.0
C331 C 0.426 0.75086 0.931 0.0
C332 C 0.48068 0.81702 0.91522 0.0
H333 H 0.48628 0.91993 0.97614 0.0
H334 H 0.46424 0.87719 0.95858 0.0
H335 H 0.50592 0.85813 0.90976 0.0
H336 H 0.46658 0.72675 0.89922 0.0
H337 H 0.48544 0.77318 0.90696 0.0
H338 H 0.44483 0.7905 0.96139 0.0
C339 C 0.48534 0.88866 0.95788 0.0
C340 C 0.49243 0.84344 0.92101 0.0
C341 C 0.49797 0.91313 0.96791 0.0
C342 C 0.45498 0.73322 0.90804 0.0
C343 C 0.4657 0.7599 0.91233 0.0
C344 C 0.45759 0.80493 0.94965 0.0
C345 C 0.49983 0.87854 0.94804 0.0
C346 C 0.48667 0.85079 0.94109 0.0
C347 C 0.45141 0.76909 0.92401 0.0
C348 C 0.46323 0.79736 0.92956 0.0
H349 H 0.56096 0.92949 0.9575 0.0
H350 H 0.53879 0.88685 0.93955 0.0
H351 H 0.46462 0.83631 0.97105 0.0
H352 H 0.39597 0.71067 0.93279 0.0
H353 H 0.41411 0.75714 0.93958 0.0
C354 C 0.64075 0.54281 0.11743 0.0
C355 C 0.61721 0.52855 0.12899 0.0
C356 C 0.65204 0.52988 0.10688 0.0
C357 C 0.65548 0.47091 0.11478 0.0
H358 H 0.69195 0.48755 0.05944 0.0
C359 C 0.70694 0.41565 0.08691 0.0
C360 C 0.73113 0.42992 0.07638 0.0
C361 C 0.69116 0.42666 0.09034 0.0
C362 C 0.68208 0.48286 0.07505 0.0
H363 H 0.58574 0.48961 0.13666 0.0
H364 H 0.60548 0.4671 0.11835 0.0
H365 H 0.66712 0.50886 0.06971 0.0
H366 H 0.75762 0.46671 0.06077 0.0
H367 H 0.73056 0.48644 0.06752 0.0
H368 H 0.67111 0.44594 0.12081 0.0
C369 C 0.61543 0.48824 0.11776 0.0
C370 C 0.66776 0.49497 0.08084 0.0
C371 C 0.60411 0.50112 0.12819 0.0
C372 C 0.73902 0.45526 0.06892 0.0
C373 C 0.72339 0.46648 0.07267 0.0
C374 C 0.66999 0.4591 0.10917 0.0
C375 C 0.64001 0.5025 0.10778 0.0
C376 C 0.65426 0.48904 0.10076 0.0
C377 C 0.69938 0.45243 0.0837 0.0
C378 C 0.68349 0.46484 0.08922 0.0
H379 H 0.65139 0.56396 0.11788 0.0
H380 H 0.67103 0.54137 0.09935 0.0
H381 H 0.6458 0.4664 0.13048 0.0
H382 H 0.70019 0.39593 0.09258 0.0
H383 H 0.67253 0.41493 0.09836 0.0
C384 C 0.43007 0.91494 0.51778 0.0
C385 C 0.41792 0.92964 0.51322 0.0
C386 C 0.41636 0.89081 0.52834 0.0
C387 C 0.34973 0.83699 0.53175 0.0
H388 H 0.3781 0.80713 0.57215 0.0
C389 C 0.30988 0.72662 0.538 0.0
C390 C 0.30484 0.71545 0.55891 0.0
C391 C 0.32324 0.75371 0.5354 0.0
C392 C 0.36984 0.81529 0.56103 0.0
H393 H 0.38248 0.93141 0.51735 0.0
H394 H 0.3585 0.88923 0.53588 0.0
H395 H 0.40265 0.85408 0.56418 0.0
H396 H 0.31029 0.72389 0.5935 0.0
H397 H 0.3342 0.77152 0.58889 0.0
H398 H 0.31739 0.79821 0.52802 0.0
C399 C 0.37859 0.89634 0.53118 0.0
C400 C 0.38392 0.84208 0.5564 0.0
C401 C 0.3924 0.92059 0.52078 0.0
C402 C 0.31388 0.73197 0.57719 0.0
C403 C 0.3276 0.75918 0.57457 0.0
C404 C 0.33587 0.81024 0.53616 0.0
C405 C 0.39014 0.8808 0.53439 0.0
C406 C 0.37415 0.85315 0.54148 0.0
C407 C 0.33213 0.77028 0.55364 0.0
C408 C 0.34596 0.79903 0.55056 0.0
H409 H 0.44977 0.92153 0.51218 0.0
H410 H 0.42576 0.87927 0.53047 0.0
H411 H 0.34181 0.84482 0.51997 0.0
H412 H 0.30319 0.71443 0.52359 0.0
H413 H 0.32676 0.76173 0.51907 0.0
C414 C 0.51763 0.39848 0.65697 0.0
C415 C 0.50909 0.41342 0.66846 0.0
C416 C 0.53085 0.38776 0.66757 0.0
C417 C 0.54027 0.36169 0.71677 0.0
H418 H 0.60767 0.38073 0.69163 0.0
C419 C 0.60112 0.31388 0.74408 0.0
C420 C 0.61259 0.30722 0.72704 0.0
C421 C 0.58989 0.32947 0.74006 0.0
C422 C 0.58885 0.37508 0.6988 0.0
H423 H 0.5063 0.42728 0.7005 0.0
H424 H 0.52906 0.40756 0.71934 0.0
H425 H 0.58439 0.40266 0.67936 0.0
H426 H 0.62123 0.31159 0.69245 0.0
H427 H 0.60138 0.3382 0.68537 0.0
H428 H 0.54404 0.33303 0.73535 0.0
C429 C 0.52581 0.40485 0.70193 0.0
C430 C 0.57566 0.38781 0.6919 0.0
C431 C 0.51278 0.41602 0.69119 0.0
C432 C 0.61271 0.31652 0.70597 0.0
C433 C 0.60147 0.33197 0.70195 0.0
C434 C 0.5534 0.34868 0.72356 0.0
C435 C 0.53547 0.39117 0.69003 0.0
C436 C 0.55097 0.38076 0.70037 0.0
C437 C 0.58994 0.3387 0.71891 0.0
C438 C 0.5775 0.3547 0.71414 0.0
H439 H 0.5143 0.39519 0.63962 0.0
H440 H 0.53761 0.3768 0.65813 0.0
H441 H 0.52116 0.35585 0.72342 0.0
H442 H 0.60075 0.307 0.76051 0.0
H443 H 0.58133 0.33441 0.75352 0.0
C444 C 0.11901 0.53634 0.85132 0.0
C445 C 0.10569 0.50905 0.84892 0.0
C446 C 0.14279 0.54909 0.86238 0.0
C447 C 0.18982 0.54182 0.89704 0.0
H448 H 0.24073 0.59192 0.85669 0.0
C449 C 0.30056 0.57926 0.90495 0.0
C450 C 0.31829 0.60464 0.89773 0.0
C451 C 0.2737 0.56878 0.90198 0.0
C452 C 0.2269 0.57849 0.86847 0.0
H453 H 0.10532 0.47351 0.85811 0.0
H454 H 0.14683 0.49583 0.87779 0.0
H455 H 0.19462 0.57202 0.84853 0.0
H456 H 0.32185 0.63936 0.88256 0.0
H457 H 0.27509 0.6216 0.87814 0.0
H458 H 0.22219 0.54837 0.91705 0.0
C459 C 0.13891 0.50734 0.87104 0.0
C460 C 0.20037 0.567 0.86373 0.0
C461 C 0.11509 0.49454 0.85987 0.0
C462 C 0.30864 0.61961 0.88804 0.0
C463 C 0.28179 0.60932 0.88541 0.0
C464 C 0.21647 0.55364 0.90199 0.0
C465 C 0.15363 0.53479 0.87134 0.0
C466 C 0.18153 0.54839 0.87783 0.0
C467 C 0.26392 0.58359 0.89202 0.0
C468 C 0.23541 0.57195 0.88762 0.0
H469 H 0.11208 0.54794 0.84311 0.0
H470 H 0.15351 0.57025 0.8627 0.0
H471 H 0.1757 0.52753 0.9082 0.0
H472 H 0.30747 0.56726 0.91244 0.0
H473 H 0.2607 0.5488 0.90699 0.0
C474 C 0.60191 0.1184 0.01301 0.0
C475 C 0.61484 0.10403 0.01091 0.0
C476 C 0.61392 0.14253 0.02357 0.0
C477 C 0.66849 0.1879 0.05883 0.0
H478 H 0.66932 0.24059 0.02067 0.0
C479 C 0.73995 0.2991 0.07049 0.0
C480 C 0.73142 0.31642 0.06419 0.0
C481 C 0.72427 0.27222 0.06673 0.0
C482 C 0.66894 0.22622 0.03183 0.0
H483 H 0.64958 0.10268 0.01984 0.0
H484 H 0.6705 0.14485 0.03859 0.0
H485 H 0.64356 0.19487 0.01086 0.0
H486 H 0.69933 0.3192 0.05009 0.0
H487 H 0.67165 0.27251 0.04432 0.0
H488 H 0.69388 0.21939 0.07988 0.0
C489 C 0.65107 0.13741 0.03199 0.0
C490 C 0.65417 0.19993 0.02613 0.0
C491 C 0.63906 0.11322 0.02131 0.0
C492 C 0.70658 0.30634 0.05485 0.0
C493 C 0.69078 0.27954 0.05141 0.0
C494 C 0.6831 0.21432 0.06471 0.0
C495 C 0.63908 0.15278 0.03238 0.0
C496 C 0.65381 0.18047 0.0395 0.0
C497 C 0.6996 0.26213 0.05685 0.0
C498 C 0.68357 0.23385 0.05122 0.0
H499 H 0.58305 0.11161 0.00545 0.0
H500 H 0.60401 0.15375 0.024 0.0
H501 H 0.66854 0.17329 0.06944 0.0
H502 H 0.75905 0.30637 0.07772 0.0
H503 H 0.73188 0.25953 0.07095 0.0
C504 C 0.52204 0.63633 0.15715 0.0
C505 C 0.53281 0.62289 0.16789 0.0
C506 C 0.50956 0.64711 0.1688 0.0
C507 C 0.50551 0.67675 0.21746 0.0
H508 H 0.43355 0.65091 0.20038 0.0
C509 C 0.4457 0.7242 0.24805 0.0
C510 C 0.43091 0.72778 0.23192 0.0
C511 C 0.45696 0.70866 0.24392 0.0
C512 C 0.45364 0.65844 0.20531 0.0
H513 H 0.54039 0.61182 0.19957 0.0
H514 H 0.51897 0.63169 0.22022 0.0
H515 H 0.45684 0.62957 0.18667 0.0
H516 H 0.41614 0.71774 0.19893 0.0
H517 H 0.43599 0.69122 0.19159 0.0
H518 H 0.50288 0.70669 0.235 0.0
C519 C 0.51989 0.63317 0.20261 0.0
C520 C 0.46685 0.64606 0.19761 0.0
C521 C 0.53217 0.62192 0.19083 0.0
C522 C 0.4273 0.71526 0.21174 0.0
C523 C 0.43855 0.69986 0.2076 0.0
C524 C 0.49234 0.68941 0.22501 0.0
C525 C 0.50796 0.64526 0.19155 0.0
C526 C 0.49307 0.65552 0.20313 0.0
C527 C 0.45362 0.6964 0.22358 0.0
C528 C 0.46648 0.68088 0.21843 0.0
H529 H 0.52297 0.63831 0.13957 0.0
H530 H 0.50095 0.65681 0.15997 0.0
H531 H 0.52581 0.68446 0.22177 0.0
H532 H 0.44879 0.7336 0.26378 0.0
H533 H 0.46826 0.70626 0.25665 0.0
C534 C 0.91703 0.49866 0.34549 0.0
C535 C 0.93198 0.52606 0.34492 0.0
C536 C 0.89294 0.48619 0.35612 0.0
C537 C 0.84845 0.49407 0.39366 0.0
H538 H 0.79523 0.44591 0.35384 0.0
C539 C 0.73783 0.4566 0.40588 0.0
C540 C 0.71999 0.43136 0.39846 0.0
C541 C 0.76463 0.46731 0.40213 0.0
C542 C 0.80974 0.45883 0.36544 0.0
H543 H 0.93444 0.56181 0.35659 0.0
H544 H 0.89233 0.53994 0.37541 0.0
H545 H 0.84084 0.46549 0.34391 0.0
H546 H 0.7162 0.39702 0.38238 0.0
H547 H 0.76275 0.41515 0.37658 0.0
H548 H 0.81718 0.48732 0.41523 0.0
C549 C 0.89928 0.52814 0.36759 0.0
C550 C 0.83598 0.47013 0.35968 0.0
C551 C 0.92343 0.54066 0.35687 0.0
C552 C 0.72947 0.41667 0.38801 0.0
C553 C 0.7562 0.42718 0.38457 0.0
C554 C 0.82207 0.48248 0.39958 0.0
C555 C 0.88331 0.50084 0.36648 0.0
C556 C 0.85564 0.48793 0.37365 0.0
C557 C 0.77414 0.45286 0.39112 0.0
C558 C 0.80235 0.46476 0.38547 0.0
H559 H 0.92332 0.4869 0.33669 0.0
H560 H 0.88127 0.46509 0.35537 0.0
H561 H 0.86322 0.50772 0.40475 0.0
H562 H 0.73103 0.46836 0.41398 0.0
H563 H 0.77776 0.48722 0.40723 0.0
C564 C 0.07599 0.58894 0.38693 0.0
C565 C 0.07752 0.57725 0.36748 0.0
C566 C 0.08777 0.58677 0.40593 0.0
C567 C 0.14304 0.57863 0.42141 0.0
H568 H 0.11938 0.57952 0.48014 0.0
C569 C 0.2068 0.5917 0.49714 0.0
C570 C 0.2078 0.6096 0.5127 0.0
C571 C 0.18848 0.58326 0.48024 0.0
C572 C 0.12627 0.57936 0.46382 0.0
H573 H 0.09045 0.55217 0.35315 0.0
H574 H 0.11074 0.54807 0.38644 0.0
H575 H 0.08991 0.57099 0.44947 0.0
H576 H 0.19037 0.63259 0.52286 0.0
H577 H 0.15872 0.61815 0.49335 0.0
H578 H 0.17962 0.5877 0.43566 0.0
C579 C 0.101 0.55944 0.38687 0.0
C580 C 0.10938 0.57443 0.44627 0.0
C581 C 0.08927 0.56166 0.36786 0.0
C582 C 0.19007 0.61876 0.51112 0.0
C583 C 0.17176 0.6103 0.49431 0.0
C584 C 0.15991 0.58352 0.43895 0.0
C585 C 0.10125 0.57279 0.4059 0.0
C586 C 0.11775 0.57454 0.42481 0.0
C587 C 0.17075 0.59248 0.47866 0.0
C588 C 0.15191 0.5845 0.46031 0.0
H589 H 0.06734 0.60132 0.3871 0.0
H590 H 0.08776 0.59749 0.42024 0.0
H591 H 0.15031 0.5793 0.40508 0.0
H592 H 0.22016 0.58423 0.49801 0.0
H593 H 0.18808 0.5694 0.4685 0.0
C594 C 0.49567 0.07428 0.55762 0.0
C595 C 0.51057 0.07508 0.5395 0.0
C596 C 0.50792 0.08584 0.57732 0.0
C597 C 0.57058 0.13996 0.59522 0.0
H598 H 0.54357 0.11694 0.65353 0.0
C599 C 0.6239 0.20208 0.6702 0.0
C600 C 0.60847 0.20396 0.68667 0.0
C601 C 0.61241 0.18385 0.65343 0.0
C602 C 0.55124 0.12372 0.63733 0.0
H603 H 0.54949 0.08624 0.52829 0.0
H604 H 0.57084 0.10607 0.56271 0.0
H605 H 0.52251 0.08783 0.62256 0.0
H606 H 0.56893 0.18812 0.69867 0.0
H607 H 0.54874 0.15671 0.66908 0.0
H608 H 0.59873 0.17603 0.60965 0.0
C609 C 0.54982 0.09712 0.5616 0.0
C610 C 0.53923 0.107 0.61962 0.0
C611 C 0.53761 0.08565 0.54195 0.0
C612 C 0.58132 0.18709 0.68617 0.0
C613 C 0.56978 0.16895 0.66931 0.0
C614 C 0.58246 0.15666 0.61284 0.0
C615 C 0.53525 0.09834 0.5792 0.0
C616 C 0.54875 0.115 0.59836 0.0
C617 C 0.58518 0.16721 0.65265 0.0
C618 C 0.5729 0.14884 0.63411 0.0
H619 H 0.47482 0.06644 0.55612 0.0
H620 H 0.49616 0.08652 0.59055 0.0
H621 H 0.57803 0.14699 0.579 0.0
H622 H 0.64491 0.21466 0.67026 0.0
H623 H 0.62492 0.18276 0.6411 0.0
C624 C 0.46715 0.53655 0.70483 0.0
C625 C 0.45229 0.50918 0.70337 0.0
C626 C 0.4675 0.54929 0.72409 0.0
C627 C 0.44958 0.54 0.78269 0.0
H628 H 0.43401 0.59549 0.77227 0.0
C629 C 0.40768 0.57703 0.8496 0.0
C630 C 0.41617 0.60385 0.85037 0.0
C631 C 0.41495 0.56663 0.83233 0.0
C632 C 0.43879 0.58037 0.77555 0.0
H633 H 0.42765 0.47364 0.72141 0.0
H634 H 0.42836 0.49588 0.7551 0.0
H635 H 0.44365 0.5756 0.74166 0.0
H636 H 0.43905 0.64087 0.83375 0.0
H637 H 0.45205 0.62281 0.80369 0.0
H638 H 0.44439 0.54459 0.81661 0.0
C639 C 0.43982 0.5075 0.74138 0.0
C640 C 0.44436 0.56897 0.75797 0.0
C641 C 0.43946 0.49473 0.72209 0.0
C642 C 0.43206 0.62008 0.8335 0.0
C643 C 0.43944 0.6097 0.81626 0.0
C644 C 0.44413 0.55151 0.80032 0.0
C645 C 0.45302 0.53494 0.7423 0.0
C646 C 0.44953 0.54846 0.7613 0.0
C647 C 0.43098 0.58283 0.81547 0.0
C648 C 0.43832 0.5716 0.79692 0.0
H649 H 0.47754 0.54817 0.69074 0.0
H650 H 0.47831 0.57045 0.72445 0.0
H651 H 0.45373 0.52441 0.78579 0.0
H652 H 0.39537 0.56401 0.86236 0.0
H653 H 0.40767 0.54579 0.83206 0.0
C654 C 0.95863 0.46654 0.87792 0.0
C655 C 0.96347 0.44644 0.87204 0.0
C656 C 0.94626 0.46535 0.89763 0.0
C657 C 0.92185 0.42726 0.94966 0.0
H658 H 0.87133 0.45056 0.94569 0.0
C659 C 0.85571 0.41756 0.02238 0.0
C660 C 0.83018 0.41208 0.01794 0.0
C661 C 0.87369 0.42365 0.00551 0.0
C662 C 0.88509 0.44364 0.94705 0.0
H663 H 0.96005 0.40983 0.88211 0.0
H664 H 0.93763 0.40709 0.91615 0.0
H665 H 0.90048 0.45804 0.9154 0.0
H666 H 0.80327 0.40832 0.99242 0.0
H667 H 0.83422 0.41775 0.96278 0.0
H668 H 0.90522 0.41129 0.98071 0.0
C669 C 0.94402 0.42427 0.90607 0.0
C670 C 0.90229 0.44843 0.92977 0.0
C671 C 0.95688 0.42576 0.88655 0.0
C672 C 0.82289 0.41261 -0.00371 0.0
C673 C 0.84075 0.41825 0.97934 0.0
C674 C 0.90434 0.42207 0.96679 0.0
C675 C 0.93783 0.44367 0.91158 0.0
C676 C 0.92084 0.44019 0.93075 0.0
C677 C 0.86646 0.42396 0.98372 0.0
C678 C 0.88558 0.43004 0.96568 0.0
H679 H 0.96351 0.48262 0.86685 0.0
H680 H 0.94252 0.48104 0.90154 0.0
H681 H 0.93604 0.42091 0.95122 0.0
H682 H 0.86195 0.41754 0.03897 0.0
H683 H 0.89338 0.42844 0.00966 0.0
C684 C 0.55051 0.9649 0.06037 0.0
C685 C 0.53326 0.96218 0.04353 0.0
C686 C 0.54093 0.95454 0.08104 0.0
C687 C 0.48141 0.92476 0.11603 0.0
H688 H 0.50935 0.88168 0.13665 0.0
C689 C 0.4255 0.83862 0.1755 0.0
C690 C 0.43988 0.8343 0.19151 0.0
C691 C 0.43827 0.85759 0.15941 0.0
C692 C 0.50158 0.89392 0.13138 0.0
H693 H 0.4928 0.94865 0.03557 0.0
H694 H 0.47603 0.93035 0.07147 0.0
H695 H 0.52984 0.91085 0.10591 0.0
H696 H 0.47884 0.84668 0.20345 0.0
H697 H 0.50112 0.87988 0.17546 0.0
H698 H 0.45268 0.90719 0.14122 0.0
C699 C 0.49694 0.94047 0.06885 0.0
C700 C 0.5134 0.91074 0.11376 0.0
C701 C 0.50651 0.95079 0.04822 0.0
C702 C 0.46724 0.84945 0.19123 0.0
C703 C 0.48001 0.86842 0.17516 0.0
C704 C 0.46957 0.9079 0.13367 0.0
C705 C 0.51393 0.94133 0.08525 0.0
C706 C 0.50322 0.92606 0.10565 0.0
C707 C 0.46568 0.87265 0.159 0.0
C708 C 0.47928 0.89198 0.14132 0.0
H709 H 0.57121 0.97348 0.05722 0.0
H710 H 0.55456 0.95591 0.09345 0.0
H711 H 0.47328 0.93651 0.11032 0.0
H712 H 0.40438 0.82724 0.17531 0.0
H713 H 0.42666 0.86008 0.14702 0.0
C714 C 0.57509 0.51355 0.21153 0.0
C715 C 0.59605 0.53769 0.20501 0.0
C716 C 0.57602 0.50242 0.23137 0.0
C717 C 0.59126 0.47401 0.2636 0.0
H718 H 0.63204 0.51435 0.31313 0.0
C719 C 0.6247 0.42814 0.33008 0.0
C720 C 0.62681 0.43708 0.35156 0.0
C721 C 0.61959 0.44067 0.31304 0.0
C722 C 0.62022 0.50263 0.29963 0.0
H723 H 0.63405 0.56955 0.21397 0.0
H724 H 0.63631 0.54993 0.24819 0.0
H725 H 0.62324 0.53612 0.28362 0.0
H726 H 0.62465 0.46567 0.3722 0.0
H727 H 0.61463 0.48674 0.3428 0.0
H728 H 0.58728 0.44036 0.28002 0.0
C729 C 0.61867 0.53979 0.23859 0.0
C730 C 0.61549 0.51525 0.28247 0.0
C731 C 0.61745 0.55112 0.21896 0.0
C732 C 0.62342 0.45853 0.35574 0.0
C733 C 0.61782 0.47073 0.33881 0.0
C734 C 0.59558 0.46133 0.28093 0.0
C735 C 0.59829 0.5149 0.24477 0.0
C736 C 0.60127 0.5012 0.26404 0.0
C737 C 0.61597 0.4621 0.31718 0.0
C738 C 0.61046 0.47549 0.29906 0.0
H739 H 0.55848 0.50282 0.20085 0.0
H740 H 0.55964 0.48359 0.23579 0.0
H741 H 0.5806 0.46246 0.24961 0.0
H742 H 0.62735 0.4117 0.32641 0.0
H743 H 0.61883 0.43371 0.29659 0.0
C744 C 0.46588 0.9471 0.43627 0.0
C745 C 0.45233 0.9608 0.43895 0.0
C746 C 0.466 0.93611 0.41616 0.0
C747 C 0.4242 0.91027 0.36798 0.0
H748 H 0.48004 0.90023 0.34611 0.0
C749 C 0.41217 0.85124 0.28996 0.0
C750 C 0.42129 0.83342 0.29081 0.0
C751 C 0.41843 0.86968 0.30647 0.0
C752 C 0.46423 0.90276 0.35211 0.0
H753 H 0.42994 0.97537 0.42216 0.0
H754 H 0.43078 0.95684 0.38691 0.0
H755 H 0.48811 0.92927 0.3771 0.0
H756 H 0.44436 0.82111 0.30944 0.0
H757 H 0.45504 0.85315 0.3385 0.0
H758 H 0.40016 0.88343 0.34337 0.0
C759 C 0.44082 0.95408 0.40051 0.0
C760 C 0.46886 0.91943 0.36981 0.0
C761 C 0.44064 0.96502 0.42065 0.0
C762 C 0.43705 0.8346 0.30837 0.0
C763 C 0.44332 0.85307 0.32492 0.0
C764 C 0.41959 0.89367 0.3503 0.0
C765 C 0.45264 0.93866 0.39825 0.0
C766 C 0.4488 0.92315 0.37811 0.0
C767 C 0.43393 0.87071 0.32422 0.0
C768 C 0.43944 0.88948 0.3423 0.0
H769 H 0.47535 0.9438 0.45003 0.0
H770 H 0.47525 0.92432 0.41505 0.0
H771 H 0.40812 0.91219 0.37422 0.0
H772 H 0.40013 0.85093 0.27655 0.0
H773 H 0.41116 0.8832 0.3053 0.0
C774 C 0.4883 0.43079 0.58309 0.0
C775 C 0.50219 0.45016 0.59869 0.0
C776 C 0.4999 0.43109 0.56318 0.0
C777 C 0.56647 0.45651 0.54086 0.0
H778 H 0.52783 0.42015 0.48918 0.0
C779 C 0.61055 0.4185 0.47677 0.0
C780 C 0.60327 0.4175 0.4549 0.0
C781 C 0.59833 0.42511 0.49306 0.0
C782 C 0.53914 0.43077 0.50328 0.0
H783 H 0.53802 0.48609 0.60537 0.0
H784 H 0.55779 0.48775 0.57001 0.0
H785 H 0.50599 0.42993 0.51798 0.0
H786 H 0.57807 0.42327 0.43275 0.0
H787 H 0.55763 0.4359 0.46087 0.0
H788 H 0.59985 0.45824 0.52584 0.0
C789 C 0.53836 0.4717 0.57333 0.0
C790 C 0.52643 0.43606 0.52002 0.0
C791 C 0.52693 0.47107 0.59342 0.0
C792 C 0.58386 0.42359 0.44954 0.0
C793 C 0.57202 0.4307 0.46573 0.0
C794 C 0.57928 0.45166 0.52396 0.0
C795 C 0.52555 0.45099 0.55839 0.0
C796 C 0.53976 0.44849 0.53928 0.0
C797 C 0.57893 0.43139 0.48776 0.0
C798 C 0.56568 0.43819 0.50513 0.0
H799 H 0.46937 0.41421 0.58704 0.0
H800 H 0.4894 0.41462 0.55235 0.0
H801 H 0.57744 0.46576 0.55548 0.0
H802 H 0.62539 0.41377 0.48133 0.0
H803 H 0.60386 0.42486 0.50983 0.0
C804 C 0.07672 0.50922 0.75382 0.0
C805 C 0.08989 0.50342 0.76996 0.0
C806 C 0.08958 0.5215 0.7344 0.0
C807 C 0.15585 0.5653 0.71499 0.0
H808 H 0.12932 0.54309 0.6565 0.0
C809 C 0.223 0.60319 0.64023 0.0
C810 C 0.21319 0.60739 0.62078 0.0
C811 C 0.20653 0.59157 0.65809 0.0
C812 C 0.13685 0.54982 0.67274 0.0
H813 H 0.12576 0.50372 0.7778 0.0
H814 H 0.14804 0.52507 0.74421 0.0
H815 H 0.10194 0.51968 0.68787 0.0
H816 H 0.17861 0.60328 0.60487 0.0
H817 H 0.14996 0.58349 0.63623 0.0
H818 H 0.19063 0.59539 0.70018 0.0
C819 C 0.12814 0.5208 0.74665 0.0
C820 C 0.12116 0.53636 0.69065 0.0
C821 C 0.11537 0.50854 0.76583 0.0
C822 C 0.1867 0.60021 0.61966 0.0
C823 C 0.17024 0.5887 0.63757 0.0
C824 C 0.17139 0.57884 0.69718 0.0
C825 C 0.11571 0.52811 0.73102 0.0
C826 C 0.1308 0.54364 0.71192 0.0
C827 C 0.17991 0.58405 0.65695 0.0
C828 C 0.16235 0.57094 0.67582 0.0
H829 H 0.05704 0.50539 0.75665 0.0
H830 H 0.07955 0.52684 0.7225 0.0
H831 H 0.16356 0.57163 0.73126 0.0
H832 H 0.24328 0.60836 0.64152 0.0
H833 H 0.21458 0.5879 0.67262 0.0
C834 C 0.60301 0.07157 0.91797 0.0
C835 C 0.58841 0.07368 0.93508 0.0
C836 C 0.60434 0.08314 0.89777 0.0
C837 C 0.57601 0.11531 0.86419 0.0
H838 H 0.64746 0.15823 0.84445 0.0
C839 C 0.6076 0.20164 0.80436 0.0
C840 C 0.62642 0.2056 0.78857 0.0
C841 C 0.6012 0.18295 0.82076 0.0
C842 C 0.62734 0.14608 0.84948 0.0
H843 H 0.56194 0.08748 0.94394 0.0
H844 H 0.56441 0.10785 0.90882 0.0
H845 H 0.63793 0.12812 0.87461 0.0
H846 H 0.65308 0.19293 0.77739 0.0
H847 H 0.64178 0.16024 0.80582 0.0
H848 H 0.56555 0.13374 0.83924 0.0
C849 C 0.57484 0.0973 0.9109 0.0
C850 C 0.62185 0.12872 0.86676 0.0
C851 C 0.57354 0.08577 0.93107 0.0
C852 C 0.63863 0.19046 0.78944 0.0
C853 C 0.63221 0.17178 0.80578 0.0
C854 C 0.58151 0.13268 0.84685 0.0
C855 C 0.59105 0.09699 0.8943 0.0
C856 C 0.59618 0.11333 0.87448 0.0
C857 C 0.61347 0.16783 0.82168 0.0
C858 C 0.60729 0.14848 0.83945 0.0
H859 H 0.61478 0.06249 0.92059 0.0
H860 H 0.61665 0.08219 0.88517 0.0
H861 H 0.556 0.10355 0.86964 0.0
H862 H 0.59786 0.21301 0.80408 0.0
H863 H 0.58695 0.18066 0.83294 0.0
C864 C 0.54458 0.59258 0.08011 0.0
C865 C 0.53036 0.57922 0.09874 0.0
C866 C 0.53161 0.59081 0.06057 0.0
C867 C 0.46845 0.58208 0.04474 0.0
H868 H 0.49416 0.58761 0.98576 0.0
C869 C 0.41597 0.59685 0.97174 0.0
C870 C 0.43184 0.61457 0.95563 0.0
C871 C 0.42688 0.58867 0.98794 0.0
C872 C 0.48683 0.58626 0.00217 0.0
H873 H 0.49203 0.55133 0.11103 0.0
H874 H 0.46941 0.54783 0.07683 0.0
H875 H 0.51534 0.57795 0.01565 0.0
H876 H 0.47156 0.63765 0.94381 0.0
H877 H 0.49073 0.62398 0.97242 0.0
H878 H 0.44066 0.59133 0.03161 0.0
C879 C 0.49044 0.56017 0.07741 0.0
C880 C 0.49889 0.5806 0.01924 0.0
C881 C 0.50338 0.56199 0.09691 0.0
C882 C 0.45883 0.62395 0.95603 0.0
C883 C 0.46978 0.61591 0.97231 0.0
C884 C 0.45652 0.58786 0.02775 0.0
C885 C 0.50424 0.57562 0.05939 0.0
C886 C 0.48998 0.5787 0.04076 0.0
C887 C 0.45394 0.59816 0.98848 0.0
C888 C 0.46573 0.59034 0.00627 0.0
H889 H 0.56536 0.60617 0.08114 0.0
H890 H 0.54281 0.603 0.047 0.0
H891 H 0.46146 0.58136 0.06119 0.0
H892 H 0.39506 0.58911 0.97172 0.0
H893 H 0.41405 0.57472 -4e-05 0.0
C894 C 0.96062 0.51368 0.26046 0.0
C895 C 0.96094 0.53601 0.26847 0.0
C896 C 0.94846 0.50275 0.2406 0.0
C897 C 0.90458 0.47246 0.2088 0.0
H898 H 0.89816 0.51284 0.16197 0.0
C899 C 0.82397 0.42453 0.14355 0.0
C900 C 0.82971 0.43454 0.12228 0.0
C901 C 0.84176 0.43724 0.16046 0.0
C902 C 0.89996 0.50117 0.1747 0.0
H903 H 0.94949 0.56485 0.26229 0.0
H904 H 0.9276 0.54557 0.22799 0.0
H905 H 0.92856 0.53518 0.19149 0.0
H906 H 0.85871 0.46534 0.10186 0.0
H907 H 0.89004 0.48694 0.13103 0.0
H908 H 0.87665 0.43841 0.19164 0.0
C909 C 0.93736 0.53678 0.23642 0.0
C910 C 0.9172 0.51406 0.19186 0.0
C911 C 0.94988 0.54789 0.25608 0.0
C912 C 0.85364 0.4573 0.11816 0.0
C913 C 0.87156 0.46978 0.13495 0.0
C914 C 0.88762 0.45955 0.19149 0.0
C915 C 0.93586 0.51364 0.22868 0.0
C916 C 0.91946 0.49991 0.20933 0.0
C917 C 0.86584 0.46002 0.15637 0.0
C918 C 0.88477 0.47373 0.17436 0.0
H919 H 0.96883 0.50411 0.26999 0.0
H920 H 0.94822 0.48529 0.23497 0.0
H921 H 0.90541 0.46081 0.22206 0.0
H922 H 0.80562 0.40705 0.14719 0.0
H923 H 0.83641 0.42936 0.17678 0.0
loop_
_geom_bond_atom_site_label_1
_geom_bond_atom_site_label_2
_geom_bond_distance
_geom_bond_site_symmetry_2
_ccdc_geom_bond_type
H0 C8 0.930 . S
H1 C11 0.930 . S
H2 C13 0.930 . S
H3 C14 0.970 . S
H4 C14 0.970 . S
H5 C16 0.930 . S
H6 C18 0.930 . S
H7 C20 0.930 . S
C8 H0 0.930 . S
C8 C9 1.382 . S
C8 C10 1.426 . S
C9 C8 1.382 . S
C9 C13 1.389 . S
C10 C8 1.426 . S
C10 C11 1.375 . S
C10 C14 1.532 1_655 S
C11 H1 0.930 . S
C11 C10 1.375 . S
C11 C12 1.416 . S
C12 C11 1.416 . S
C12 C13 1.371 . S
C13 H2 0.930 . S
C13 C9 1.389 . S
C13 C12 1.371 . S
C14 H3 0.970 . S
C14 H4 0.970 . S
C14 C10 1.532 1_455 S
C14 C15 1.499 . S
C15 C14 1.499 . S
C15 C16 1.370 . S
C15 C20 1.415 . S
C16 H5 0.930 . S
C16 C15 1.370 . S
C16 C17 1.407 . S
C17 C16 1.407 . S
C17 C18 1.365 . S
C18 H6 0.930 . S
C18 C17 1.365 . S
C18 C19 1.393 . S
C19 C18 1.393 . S
C19 C20 1.387 . S
C20 H7 0.930 . S
C20 C15 1.415 . S
C20 C19 1.387 . S
H21 C29 0.930 . S
H22 C32 0.930 . S
H23 C34 0.930 . S
H24 C35 0.970 . S
H25 C35 0.970 . S
H26 C37 0.930 . S
H27 C39 0.930 . S
H28 C41 0.930 . S
C29 H21 0.930 . S
C29 C30 1.382 . S
C29 C31 1.426 . S
C30 C29 1.382 . S
C30 C34 1.389 . S
C31 C29 1.426 . S
C31 C32 1.375 . S
C31 C35 1.532 1_565 S
C32 H22 0.930 . S
C32 C31 1.375 . S
C32 C33 1.416 . S
C33 C32 1.416 . S
C33 C34 1.371 . S
C34 H23 0.930 . S
C34 C30 1.389 . S
C34 C33 1.371 . S
C35 H24 0.970 . S
C35 H25 0.970 . S
C35 C31 1.532 1_545 S
C35 C36 1.499 . S
C36 C35 1.499 . S
C36 C37 1.370 . S
C36 C41 1.415 . S
C37 H26 0.930 . S
C37 C36 1.370 . S
C37 C38 1.407 . S
C38 C37 1.407 . S
C38 C39 1.365 . S
C39 H27 0.930 . S
C39 C38 1.365 . S
C39 C40 1.393 . S
C40 C39 1.393 . S
C40 C41 1.387 . S
C41 H28 0.930 . S
C41 C36 1.415 . S
C41 C40 1.387 . S
H42 C50 0.930 . S
H43 C53 0.930 . S
H44 C55 0.930 . S
H45 C56 0.970 . S
H46 C56 0.970 . S
H47 C58 0.930 . S
H48 C60 0.930 . S
H49 C62 0.930 . S
C50 H42 0.930 . S
C50 C51 1.382 . S
C50 C52 1.426 . S
C51 C50 1.382 . S
C51 C55 1.389 . S
C52 C50 1.426 . S
C52 C53 1.375 . S
C52 C56 1.532 . S
C53 H43 0.930 . S
C53 C52 1.375 . S
C53 C54 1.416 . S
C54 C53 1.416 . S
C54 C55 1.371 . S
C55 H44 0.930 . S
C55 C51 1.389 . S
C55 C54 1.371 . S
C56 H45 0.970 . S
C56 H46 0.970 . S
C56 C52 1.532 . S
C56 C57 1.499 . S
C57 C56 1.499 . S
C57 C58 1.370 . S
C57 C62 1.415 . S
C58 H47 0.930 . S
C58 C57 1.370 . S
C58 C59 1.407 . S
C59 C58 1.407 . S
C59 C60 1.365 . S
C60 H48 0.930 . S
C60 C59 1.365 . S
C60 C61 1.393 . S
C61 C60 1.393 . S
C61 C62 1.387 . S
C62 H49 0.930 . S
C62 C57 1.415 . S
C62 C61 1.387 . S
H63 C71 0.930 . S
H64 C74 0.930 . S
H65 C76 0.930 . S
H66 C77 0.970 . S
H67 C77 0.970 . S
H68 C79 0.930 . S
H69 C81 0.930 . S
H70 C83 0.930 . S
C71 H63 0.930 . S
C71 C72 1.382 . S
C71 C73 1.426 . S
C72 C71 1.382 . S
C72 C76 1.389 . S
C73 C71 1.426 . S
C73 C74 1.375 . S
C73 C77 1.532 1_655 S
C74 H64 0.930 . S
C74 C73 1.375 . S
C74 C75 1.416 . S
C75 C74 1.416 . S
C75 C76 1.371 . S
C76 H65 0.930 . S
C76 C72 1.389 . S
C76 C75 1.371 . S
C77 H66 0.970 . S
C77 H67 0.970 . S
C77 C73 1.532 1_455 S
C77 C78 1.499 . S
C78 C77 1.499 . S
C78 C79 1.370 . S
C78 C83 1.415 . S
C79 H68 0.930 . S
C79 C78 1.370 . S
C79 C80 1.407 . S
C80 C79 1.407 . S
C80 C81 1.365 . S
C81 H69 0.930 . S
C81 C80 1.365 . S
C81 C82 1.393 . S
C82 C81 1.393 . S
C82 C83 1.387 . S
C83 H70 0.930 . S
C83 C78 1.415 . S
C83 C82 1.387 . S
H84 C92 0.930 . S
H85 C95 0.930 . S
H86 C97 0.930 . S
H87 C98 0.970 1_554 S
H88 C98 0.970 . S
H89 C100 0.930 . S
H90 C102 0.930 . S
H91 C104 0.930 . S
C92 H84 0.930 . S
C92 C93 1.382 1_554 S
C92 C94 1.426 1_554 S
C93 C92 1.382 1_556 S
C93 C97 1.389 . S
C94 C92 1.426 1_556 S
C94 C95 1.375 . S
C94 C98 1.532 . S
C95 H85 0.930 . S
C95 C94 1.375 . S
C95 C96 1.416 . S
C96 C95 1.416 . S
C96 C97 1.371 . S
C97 H86 0.930 . S
C97 C93 1.389 . S
C97 C96 1.371 . S
C98 H87 0.970 1_556 S
C98 H88 0.970 . S
C98 C94 1.532 . S
C98 C99 1.499 1_545 S
C99 C98 1.499 1_565 S
C99 C100 1.370 1_556 S
C99 C104 1.415 . S
C100 H89 0.930 . S
C100 C99 1.370 1_554 S
C100 C101 1.407 . S
C101 C100 1.407 . S
C101 C102 1.365 . S
C102 H90 0.930 . S
C102 C101 1.365 . S
C102 C103 1.393 1_554 S
C103 C102 1.393 1_556 S
C103 C104 1.387 . S
C104 H91 0.930 . S
C104 C99 1.415 . S
C104 C103 1.387 . S
H105 C113 0.930 . S
H106 C116 0.930 . S
H107 C118 0.930 . S
H108 C119 0.970 . S
H109 C119 0.970 . S
H110 C121 0.930 . S
H111 C123 0.930 . S
H112 C125 0.930 . S
C113 H105 0.930 . S
C113 C114 1.382 . S
C113 C115 1.426 . S
C114 C113 1.382 . S
C114 C118 1.389 . S
C115 C113 1.426 . S
C115 C116 1.375 . S
C115 C119 1.532 . S
C116 H106 0.930 . S
C116 C115 1.375 . S
C116 C117 1.416 . S
C117 C116 1.416 . S
C117 C118 1.371 . S
C118 H107 0.930 . S
C118 C114 1.389 . S
C118 C117 1.371 . S
C119 H108 0.970 . S
C119 H109 0.970 . S
C119 C115 1.532 . S
C119 C120 1.499 . S
C120 C119 1.499 . S
C120 C121 1.370 . S
C120 C125 1.415 . S
C121 H110 0.930 . S
C121 C120 1.370 . S
C121 C122 1.407 . S
C122 C121 1.407 . S
C122 C123 1.365 . S
C123 H111 0.930 . S
C123 C122 1.365 . S
C123 C124 1.393 . S
C124 C123 1.393 . S
C124 C125 1.387 . S
C125 H112 0.930 . S
C125 C120 1.415 . S
C125 C124 1.387 . S
In126 O127 2.294 . S
In126 O128 2.326 . S
In126 O132 2.266 . S
In126 O133 2.326 . S
In126 O134 2.266 . S
In126 O135 2.326 . S
In126 O137 2.294 . S
In126 O138 2.326 . S
O127 In126 2.294 . S
O127 C136 1.240 . S
O128 In126 2.326 . S
O128 C136 1.252 . S
C129 O132 1.252 . S
C129 O133 1.260 . S
C130 O137 1.240 . S
C130 O138 1.252 . S
C131 O134 1.252 . S
C131 O135 1.260 . S
O132 In126 2.266 . S
O132 C129 1.252 . S
O133 In126 2.326 . S
O133 C129 1.260 . S
O134 In126 2.266 . S
O134 C131 1.252 . S
O135 In126 2.326 . S
O135 C131 1.260 . S
C136 O127 1.240 . S
C136 O128 1.252 . S
O137 In126 2.294 . S
O137 C130 1.240 . S
O138 In126 2.326 . S
O138 C130 1.252 . S
In139 O140 2.294 . S
In139 O141 2.326 . S
In139 O145 2.266 . S
In139 O146 2.326 . S
In139 O147 2.266 . S
In139 O148 2.326 . S
In139 O150 2.294 . S
In139 O151 2.326 . S
O140 In139 2.294 . S
O140 C149 1.240 . S
O141 In139 2.326 . S
O141 C149 1.252 . S
C142 O145 1.252 . S
C142 O146 1.260 . S
C143 O150 1.240 . S
C143 O151 1.252 . S
C144 O147 1.252 . S
C144 O148 1.260 . S
O145 In139 2.266 . S
O145 C142 1.252 . S
O146 In139 2.326 . S
O146 C142 1.260 . S
O147 In139 2.266 . S
O147 C144 1.252 . S
O148 In139 2.326 . S
O148 C144 1.260 . S
C149 O140 1.240 . S
C149 O141 1.252 . S
O150 In139 2.294 . S
O150 C143 1.240 . S
O151 In139 2.326 . S
O151 C143 1.252 . S
In152 O153 2.294 . S
In152 O154 2.326 . S
In152 O158 2.266 . S
In152 O159 2.326 . S
In152 O160 2.266 . S
In152 O161 2.326 . S
In152 O163 2.294 . S
In152 O164 2.326 . S
O153 In152 2.294 . S
O153 C162 1.240 . S
O154 In152 2.326 . S
O154 C162 1.252 . S
C155 O158 1.252 . S
C155 O159 1.260 . S
C156 O163 1.240 . S
C156 O164 1.252 . S
C157 O160 1.252 . S
C157 O161 1.260 . S
O158 In152 2.266 . S
O158 C155 1.252 . S
O159 In152 2.326 . S
O159 C155 1.260 . S
O160 In152 2.266 . S
O160 C157 1.252 . S
O161 In152 2.326 . S
O161 C157 1.260 . S
C162 O153 1.240 . S
C162 O154 1.252 . S
O163 In152 2.294 . S
O163 C156 1.240 . S
O164 In152 2.326 . S
O164 C156 1.252 . S
In165 O166 2.294 . S
In165 O167 2.326 . S
In165 O171 2.266 . S
In165 O172 2.326 . S
In165 O173 2.266 . S
In165 O174 2.326 . S
In165 O176 2.294 . S
In165 O177 2.326 . S
O166 In165 2.294 . S
O166 C175 1.240 . S
O167 In165 2.326 . S
O167 C175 1.252 . S
C168 O171 1.252 . S
C168 O172 1.260 . S
C169 O176 1.240 . S
C169 O177 1.252 . S
C170 O173 1.252 . S
C170 O174 1.260 . S
O171 In165 2.266 . S
O171 C168 1.252 . S
O172 In165 2.326 . S
O172 C168 1.260 . S
O173 In165 2.266 . S
O173 C170 1.252 . S
O174 In165 2.326 . S
O174 C170 1.260 . S
C175 O166 1.240 . S
C175 O167 1.252 . S
O176 In165 2.294 . S
O176 C169 1.240 . S
O177 In165 2.326 . S
O177 C169 1.252 . S
In178 O179 2.294 . S
In178 O180 2.326 . S
In178 O184 2.266 . S
In178 O185 2.326 . S
In178 O186 2.266 . S
In178 O187 2.326 . S
In178 O189 2.294 . S
In178 O190 2.326 . S
O179 In178 2.294 . S
O179 C188 1.240 . S
O180 In178 2.326 . S
O180 C188 1.252 . S
C181 O184 1.252 . S
C181 O185 1.260 . S
C182 O189 1.240 . S
C182 O190 1.252 . S
C183 O186 1.252 . S
C183 O187 1.260 . S
O184 In178 2.266 . S
O184 C181 1.252 . S
O185 In178 2.326 . S
O185 C181 1.260 . S
O186 In178 2.266 . S
O186 C183 1.252 . S
O187 In178 2.326 . S
O187 C183 1.260 . S
C188 O179 1.240 . S
C188 O180 1.252 . S
O189 In178 2.294 . S
O189 C182 1.240 . S
O190 In178 2.326 . S
O190 C182 1.252 . S
In191 O192 2.294 . S
In191 O193 2.326 . S
In191 O197 2.266 . S
In191 O198 2.326 . S
In191 O199 2.266 . S
In191 O200 2.326 . S
In191 O202 2.294 . S
In191 O203 2.326 . S
O192 In191 2.294 . S
O192 C201 1.240 . S
O193 In191 2.326 . S
O193 C201 1.252 . S
C194 O197 1.252 . S
C194 O198 1.260 . S
C195 O202 1.240 . S
C195 O203 1.252 . S
C196 O199 1.252 . S
C196 O200 1.260 . S
O197 In191 2.266 . S
O197 C194 1.252 . S
O198 In191 2.326 . S
O198 C194 1.260 . S
O199 In191 2.266 . S
O199 C196 1.252 . S
O200 In191 2.326 . S
O200 C196 1.260 . S
C201 O192 1.240 . S
C201 O193 1.252 . S
O202 In191 2.294 . S
O202 C195 1.240 . S
O203 In191 2.326 . S
O203 C195 1.252 . S
C204 C205 1.349 . S
C204 C206 1.327 . S
C204 H229 0.950 . S
C205 C204 1.349 . S
C205 C221 1.349 . S
C206 C204 1.327 . S
C206 C225 1.429 . S
C206 H230 0.950 . S
C207 C224 1.574 . S
C207 C226 1.368 . S
C207 H231 0.949 . S
H208 C212 0.949 . S
C209 C210 1.349 . S
C209 C211 1.327 . S
C209 H232 0.950 . S
C210 C209 1.349 . S
C210 C222 1.349 . S
C211 C209 1.327 . S
C211 C227 1.429 . S
C211 H233 0.950 . S
C212 H208 0.949 . S
C212 C220 1.574 . S
C212 C228 1.368 . S
H213 C221 0.950 . S
H214 C219 0.950 . S
H215 C220 0.949 . S
H216 C222 0.950 . S
H217 C223 0.950 . S
H218 C224 0.949 . S
C219 H214 0.950 . S
C219 C221 1.327 . S
C219 C225 1.429 . S
C220 C212 1.574 . S
C220 H215 0.949 . S
C220 C226 1.368 . S
C221 C205 1.349 . S
C221 H213 0.950 . S
C221 C219 1.327 . S
C222 C210 1.349 . S
C222 H216 0.950 . S
C222 C223 1.327 . S
C223 H217 0.950 . S
C223 C222 1.327 . S
C223 C227 1.429 . S
C224 C207 1.574 . S
C224 H218 0.949 . S
C224 C228 1.368 . S
C225 C206 1.429 . S
C225 C219 1.429 . S
C225 C226 1.523 . S
C226 C207 1.368 . S
C226 C220 1.368 . S
C226 C225 1.523 . S
C227 C211 1.429 . S
C227 C223 1.429 . S
C227 C228 1.523 . S
C228 C212 1.368 . S
C228 C224 1.368 . S
C228 C227 1.523 . S
H229 C204 0.950 . S
H230 C206 0.950 . S
H231 C207 0.949 . S
H232 C209 0.950 . S
H233 C211 0.950 . S
C234 C235 1.349 . S
C234 C236 1.327 . S
C234 H259 0.950 . S
C235 C234 1.349 . S
C235 C251 1.349 . S
C236 C234 1.327 . S
C236 C255 1.429 . S
C236 H260 0.950 . S
C237 C254 1.574 . S
C237 C256 1.368 . S
C237 H261 0.949 . S
H238 C242 0.949 . S
C239 C240 1.349 . S
C239 C241 1.327 . S
C239 H262 0.950 . S
C240 C239 1.349 . S
C240 C252 1.349 . S
C241 C239 1.327 . S
C241 C257 1.429 . S
C241 H263 0.950 . S
C242 H238 0.949 . S
C242 C250 1.574 . S
C242 C258 1.368 . S
H243 C251 0.950 . S
H244 C249 0.950 . S
H245 C250 0.949 . S
H246 C252 0.950 . S
H247 C253 0.950 . S
H248 C254 0.949 . S
C249 H244 0.950 . S
C249 C251 1.327 . S
C249 C255 1.429 . S
C250 C242 1.574 . S
C250 H245 0.949 . S
C250 C256 1.368 . S
C251 C235 1.349 . S
C251 H243 0.950 . S
C251 C249 1.327 . S
C252 C240 1.349 . S
C252 H246 0.950 . S
C252 C253 1.327 . S
C253 H247 0.950 . S
C253 C252 1.327 . S
C253 C257 1.429 . S
C254 C237 1.574 . S
C254 H248 0.949 . S
C254 C258 1.368 . S
C255 C236 1.429 . S
C255 C249 1.429 . S
C255 C256 1.523 . S
C256 C237 1.368 . S
C256 C250 1.368 . S
C256 C255 1.523 . S
C257 C241 1.429 . S
C257 C253 1.429 . S
C257 C258 1.523 . S
C258 C242 1.368 . S
C258 C254 1.368 . S
C258 C257 1.523 . S
H259 C234 0.950 . S
H260 C236 0.950 . S
H261 C237 0.949 . S
H262 C239 0.950 . S
H263 C241 0.950 . S
C264 C265 1.349 . S
C264 C266 1.327 . S
C264 H289 0.950 . S
C265 C264 1.349 . S
C265 C281 1.349 . S
C266 C264 1.327 . S
C266 C285 1.429 . S
C266 H290 0.950 . S
C267 C284 1.574 . S
C267 C286 1.368 . S
C267 H291 0.949 . S
H268 C272 0.949 . S
C269 C270 1.349 . S
C269 C271 1.327 . S
C269 H292 0.950 . S
C270 C269 1.349 . S
C270 C282 1.349 . S
C271 C269 1.327 . S
C271 C287 1.429 . S
C271 H293 0.950 . S
C272 H268 0.949 . S
C272 C280 1.574 . S
C272 C288 1.368 . S
H273 C281 0.950 . S
H274 C279 0.950 . S
H275 C280 0.949 . S
H276 C282 0.950 . S
H277 C283 0.950 . S
H278 C284 0.949 . S
C279 H274 0.950 . S
C279 C281 1.327 . S
C279 C285 1.429 . S
C280 C272 1.574 . S
C280 H275 0.949 . S
C280 C286 1.368 . S
C281 C265 1.349 . S
C281 H273 0.950 . S
C281 C279 1.327 . S
C282 C270 1.349 . S
C282 H276 0.950 . S
C282 C283 1.327 . S
C283 H277 0.950 . S
C283 C282 1.327 . S
C283 C287 1.429 . S
C284 C267 1.574 . S
C284 H278 0.949 . S
C284 C288 1.368 . S
C285 C266 1.429 . S
C285 C279 1.429 . S
C285 C286 1.523 . S
C286 C267 1.368 . S
C286 C280 1.368 . S
C286 C285 1.523 . S
C287 C271 1.429 . S
C287 C283 1.429 . S
C287 C288 1.523 . S
C288 C272 1.368 . S
C288 C284 1.368 . S
C288 C287 1.523 . S
H289 C264 0.950 . S
H290 C266 0.950 . S
H291 C267 0.949 . S
H292 C269 0.950 . S
H293 C271 0.950 . S
C294 C295 1.349 . S
C294 C296 1.327 . S
C294 H319 0.950 . S
C295 C294 1.349 . S
C295 C311 1.349 . S
C296 C294 1.327 . S
C296 C315 1.429 . S
C296 H320 0.950 . S
C297 C314 1.574 . S
C297 C316 1.368 . S
C297 H321 0.949 . S
H298 C302 0.949 . S
C299 C300 1.349 . S
C299 C301 1.327 . S
C299 H322 0.950 . S
C300 C299 1.349 . S
C300 C312 1.349 . S
C301 C299 1.327 . S
C301 C317 1.429 . S
C301 H323 0.950 . S
C302 H298 0.949 . S
C302 C310 1.574 . S
C302 C318 1.368 . S
H303 C311 0.950 . S
H304 C309 0.950 . S
H305 C310 0.949 . S
H306 C312 0.950 . S
H307 C313 0.950 . S
H308 C314 0.949 . S
C309 H304 0.950 . S
C309 C311 1.327 . S
C309 C315 1.429 . S
C310 C302 1.574 . S
C310 H305 0.949 . S
C310 C316 1.368 . S
C311 C295 1.349 . S
C311 H303 0.950 . S
C311 C309 1.327 . S
C312 C300 1.349 . S
C312 H306 0.950 . S
C312 C313 1.327 . S
C313 H307 0.950 . S
C313 C312 1.327 . S
C313 C317 1.429 . S
C314 C297 1.574 . S
C314 H308 0.949 . S
C314 C318 1.368 . S
C315 C296 1.429 . S
C315 C309 1.429 . S
C315 C316 1.523 . S
C316 C297 1.368 . S
C316 C310 1.368 . S
C316 C315 1.523 . S
C317 C301 1.429 . S
C317 C313 1.429 . S
C317 C318 1.523 . S
C318 C302 1.368 . S
C318 C314 1.368 . S
C318 C317 1.523 . S
H319 C294 0.950 . S
H320 C296 0.950 . S
H321 C297 0.949 . S
H322 C299 0.950 . S
H323 C301 0.950 . S
C324 C325 1.349 . S
C324 C326 1.327 . S
C324 H349 0.950 . S
C325 C324 1.349 . S
C325 C341 1.349 . S
C326 C324 1.327 . S
C326 C345 1.429 . S
C326 H350 0.950 . S
C327 C344 1.574 . S
C327 C346 1.368 . S
C327 H351 0.949 . S
H328 C332 0.949 . S
C329 C330 1.349 . S
C329 C331 1.327 . S
C329 H352 0.950 . S
C330 C329 1.349 . S
C330 C342 1.349 . S
C331 C329 1.327 . S
C331 C347 1.429 . S
C331 H353 0.950 . S
C332 H328 0.949 . S
C332 C340 1.574 . S
C332 C348 1.368 . S
H333 C341 0.950 1_554 S
H334 C339 0.950 . S
H335 C340 0.949 . S
H336 C342 0.950 . S
H337 C343 0.950 . S
H338 C344 0.949 . S
C339 H334 0.950 . S
C339 C341 1.327 . S
C339 C345 1.429 . S
C340 C332 1.574 . S
C340 H335 0.949 . S
C340 C346 1.368 . S
C341 C325 1.349 . S
C341 H333 0.950 1_556 S
C341 C339 1.327 . S
C342 C330 1.349 . S
C342 H336 0.950 . S
C342 C343 1.327 . S
C343 H337 0.950 . S
C343 C342 1.327 . S
C343 C347 1.429 . S
C344 C327 1.574 . S
C344 H338 0.949 . S
C344 C348 1.368 . S
C345 C326 1.429 . S
C345 C339 1.429 . S
C345 C346 1.523 . S
C346 C327 1.368 . S
C346 C340 1.368 . S
C346 C345 1.523 . S
C347 C331 1.429 . S
C347 C343 1.429 . S
C347 C348 1.523 . S
C348 C332 1.368 . S
C348 C344 1.368 . S
C348 C347 1.523 . S
H349 C324 0.950 . S
H350 C326 0.950 . S
H351 C327 0.949 . S
H352 C329 0.950 . S
H353 C331 0.950 . S
C354 C355 1.349 . S
C354 C356 1.327 . S
C354 H379 0.950 . S
C355 C354 1.349 . S
C355 C371 1.349 . S
C356 C354 1.327 . S
C356 C375 1.429 . S
C356 H380 0.950 . S
C357 C374 1.574 . S
C357 C376 1.368 . S
C357 H381 0.949 . S
H358 C362 0.949 . S
C359 C360 1.349 . S
C359 C361 1.327 . S
C359 H382 0.950 . S
C360 C359 1.349 . S
C360 C372 1.349 . S
C361 C359 1.327 . S
C361 C377 1.429 . S
C361 H383 0.950 . S
C362 H358 0.949 . S
C362 C370 1.574 . S
C362 C378 1.368 . S
H363 C371 0.950 . S
H364 C369 0.950 . S
H365 C370 0.949 . S
H366 C372 0.950 . S
H367 C373 0.950 . S
H368 C374 0.949 . S
C369 H364 0.950 . S
C369 C371 1.327 . S
C369 C375 1.429 . S
C370 C362 1.574 . S
C370 H365 0.949 . S
C370 C376 1.368 . S
C371 C355 1.349 . S
C371 H363 0.950 . S
C371 C369 1.327 . S
C372 C360 1.349 . S
C372 H366 0.950 . S
C372 C373 1.327 . S
C373 H367 0.950 . S
C373 C372 1.327 . S
C373 C377 1.429 . S
C374 C357 1.574 . S
C374 H368 0.949 . S
C374 C378 1.368 . S
C375 C356 1.429 . S
C375 C369 1.429 . S
C375 C376 1.523 . S
C376 C357 1.368 . S
C376 C370 1.368 . S
C376 C375 1.523 . S
C377 C361 1.429 . S
C377 C373 1.429 . S
C377 C378 1.523 . S
C378 C362 1.368 . S
C378 C374 1.368 . S
C378 C377 1.523 . S
H379 C354 0.950 . S
H380 C356 0.950 . S
H381 C357 0.949 . S
H382 C359 0.950 . S
H383 C361 0.950 . S
C384 C385 1.349 . S
C384 C386 1.327 . S
C384 H409 0.950 . S
C385 C384 1.349 . S
C385 C401 1.349 . S
C386 C384 1.327 . S
C386 C405 1.429 . S
C386 H410 0.950 . S
C387 C404 1.574 . S
C387 C406 1.368 . S
C387 H411 0.949 . S
H388 C392 0.949 . S
C389 C390 1.349 . S
C389 C391 1.327 . S
C389 H412 0.950 . S
C390 C389 1.349 . S
C390 C402 1.349 . S
C391 C389 1.327 . S
C391 C407 1.429 . S
C391 H413 0.950 . S
C392 H388 0.949 . S
C392 C400 1.574 . S
C392 C408 1.368 . S
H393 C401 0.950 . S
H394 C399 0.950 . S
H395 C400 0.949 . S
H396 C402 0.950 . S
H397 C403 0.950 . S
H398 C404 0.949 . S
C399 H394 0.950 . S
C399 C401 1.327 . S
C399 C405 1.429 . S
C400 C392 1.574 . S
C400 H395 0.949 . S
C400 C406 1.368 . S
C401 C385 1.349 . S
C401 H393 0.950 . S
C401 C399 1.327 . S
C402 C390 1.349 . S
C402 H396 0.950 . S
C402 C403 1.327 . S
C403 H397 0.950 . S
C403 C402 1.327 . S
C403 C407 1.429 . S
C404 C387 1.574 . S
C404 H398 0.949 . S
C404 C408 1.368 . S
C405 C386 1.429 . S
C405 C399 1.429 . S
C405 C406 1.523 . S
C406 C387 1.368 . S
C406 C400 1.368 . S
C406 C405 1.523 . S
C407 C391 1.429 . S
C407 C403 1.429 . S
C407 C408 1.523 . S
C408 C392 1.368 . S
C408 C404 1.368 . S
C408 C407 1.523 . S
H409 C384 0.950 . S
H410 C386 0.950 . S
H411 C387 0.949 . S
H412 C389 0.950 . S
H413 C391 0.950 . S
C414 C415 1.349 . S
C414 C416 1.327 . S
C414 H439 0.950 . S
C415 C414 1.349 . S
C415 C431 1.349 . S
C416 C414 1.327 . S
C416 C435 1.429 . S
C416 H440 0.950 . S
C417 C434 1.574 . S
C417 C436 1.368 . S
C417 H441 0.949 . S
H418 C422 0.949 . S
C419 C420 1.349 . S
C419 C421 1.327 . S
C419 H442 0.950 . S
C420 C419 1.349 . S
C420 C432 1.349 . S
C421 C419 1.327 . S
C421 C437 1.429 . S
C421 H443 0.950 . S
C422 H418 0.949 . S
C422 C430 1.574 . S
C422 C438 1.368 . S
H423 C431 0.950 . S
H424 C429 0.950 . S
H425 C430 0.949 . S
H426 C432 0.950 . S
H427 C433 0.950 . S
H428 C434 0.949 . S
C429 H424 0.950 . S
C429 C431 1.327 . S
C429 C435 1.429 . S
C430 C422 1.574 . S
C430 H425 0.949 . S
C430 C436 1.368 . S
C431 C415 1.349 . S
C431 H423 0.950 . S
C431 C429 1.327 . S
C432 C420 1.349 . S
C432 H426 0.950 . S
C432 C433 1.327 . S
C433 H427 0.950 . S
C433 C432 1.327 . S
C433 C437 1.429 . S
C434 C417 1.574 . S
C434 H428 0.949 . S
C434 C438 1.368 . S
C435 C416 1.429 . S
C435 C429 1.429 . S
C435 C436 1.523 . S
C436 C417 1.368 . S
C436 C430 1.368 . S
C436 C435 1.523 . S
C437 C421 1.429 . S
C437 C433 1.429 . S
C437 C438 1.523 . S
C438 C422 1.368 . S
C438 C434 1.368 . S
C438 C437 1.523 . S
H439 C414 0.950 . S
H440 C416 0.950 . S
H441 C417 0.949 . S
H442 C419 0.950 . S
H443 C421 0.950 . S
C444 C445 1.349 . S
C444 C446 1.327 . S
C444 H469 0.950 . S
C445 C444 1.349 . S
C445 C461 1.349 . S
C446 C444 1.327 . S
C446 C465 1.429 . S
C446 H470 0.950 . S
C447 C464 1.574 . S
C447 C466 1.368 . S
C447 H471 0.949 . S
H448 C452 0.949 . S
C449 C450 1.349 . S
C449 C451 1.327 . S
C449 H472 0.950 . S
C450 C449 1.349 . S
C450 C462 1.349 . S
C451 C449 1.327 . S
C451 C467 1.429 . S
C451 H473 0.950 . S
C452 H448 0.949 . S
C452 C460 1.574 . S
C452 C468 1.368 . S
H453 C461 0.950 . S
H454 C459 0.950 . S
H455 C460 0.949 . S
H456 C462 0.950 . S
H457 C463 0.950 . S
H458 C464 0.949 . S
C459 H454 0.950 . S
C459 C461 1.327 . S
C459 C465 1.429 . S
C460 C452 1.574 . S
C460 H455 0.949 . S
C460 C466 1.368 . S
C461 C445 1.349 . S
C461 H453 0.950 . S
C461 C459 1.327 . S
C462 C450 1.349 . S
C462 H456 0.950 . S
C462 C463 1.327 . S
C463 H457 0.950 . S
C463 C462 1.327 . S
C463 C467 1.429 . S
C464 C447 1.574 . S
C464 H458 0.949 . S
C464 C468 1.368 . S
C465 C446 1.429 . S
C465 C459 1.429 . S
C465 C466 1.523 . S
C466 C447 1.368 . S
C466 C460 1.368 . S
C466 C465 1.523 . S
C467 C451 1.429 . S
C467 C463 1.429 . S
C467 C468 1.523 . S
C468 C452 1.368 . S
C468 C464 1.368 . S
C468 C467 1.523 . S
H469 C444 0.950 . S
H470 C446 0.950 . S
H471 C447 0.949 . S
H472 C449 0.950 . S
H473 C451 0.950 . S
C474 C475 1.349 1_556 S
C474 C476 1.332 . S
C474 H499 0.950 . S
C475 C474 1.349 1_554 S
C475 C491 1.349 . S
C476 C474 1.332 . S
C476 C495 1.410 1_556 S
C476 H500 0.964 . S
C477 C494 1.574 . S
C477 C496 1.368 . S
C477 H501 0.949 . S
H478 C482 0.949 . S
C479 C480 1.349 . S
C479 C481 1.327 . S
C479 H502 0.950 . S
C480 C479 1.349 . S
C480 C492 1.349 . S
C481 C479 1.327 . S
C481 C497 1.429 . S
C481 H503 0.950 . S
C482 H478 0.949 . S
C482 C490 1.574 . S
C482 C498 1.368 . S
H483 C491 0.950 . S
H484 C489 0.950 . S
H485 C490 0.949 1_556 S
H486 C492 0.950 . S
H487 C493 0.950 . S
H488 C494 0.949 . S
C489 H484 0.950 . S
C489 C491 1.327 . S
C489 C495 1.429 . S
C490 C482 1.574 . S
C490 H485 0.949 1_554 S
C490 C496 1.368 . S
C491 C475 1.349 . S
C491 H483 0.950 . S
C491 C489 1.327 . S
C492 C480 1.349 . S
C492 H486 0.950 . S
C492 C493 1.327 . S
C493 H487 0.950 . S
C493 C492 1.327 . S
C493 C497 1.429 . S
C494 C477 1.574 . S
C494 H488 0.949 . S
C494 C498 1.368 . S
C495 C476 1.410 1_554 S
C495 C489 1.429 . S
C495 C496 1.523 . S
C496 C477 1.368 . S
C496 C490 1.368 . S
C496 C495 1.523 . S
C497 C481 1.429 . S
C497 C493 1.429 . S
C497 C498 1.523 . S
C498 C482 1.368 . S
C498 C494 1.368 . S
C498 C497 1.523 . S
H499 C474 0.950 . S
H500 C476 0.964 . S
H501 C477 0.949 . S
H502 C479 0.950 . S
H503 C481 0.950 . S
C504 C505 1.349 . S
C504 C506 1.327 . S
C504 H529 0.950 . S
C505 C504 1.349 . S
C505 C521 1.349 . S
C506 C504 1.327 . S
C506 C525 1.429 . S
C506 H530 0.950 . S
C507 C524 1.574 . S
C507 C526 1.368 . S
C507 H531 0.949 . S
H508 C512 0.949 . S
C509 C510 1.349 . S
C509 C511 1.327 . S
C509 H532 0.950 . S
C510 C509 1.349 . S
C510 C522 1.349 . S
C511 C509 1.327 . S
C511 C527 1.429 . S
C511 H533 0.950 . S
C512 H508 0.949 . S
C512 C520 1.574 . S
C512 C528 1.368 . S
H513 C521 0.950 . S
H514 C519 0.950 . S
H515 C520 0.949 . S
H516 C522 0.950 . S
H517 C523 0.950 . S
H518 C524 0.949 . S
C519 H514 0.950 . S
C519 C521 1.327 . S
C519 C525 1.429 . S
C520 C512 1.574 . S
C520 H515 0.949 . S
C520 C526 1.368 . S
C521 C505 1.349 . S
C521 H513 0.950 . S
C521 C519 1.327 . S
C522 C510 1.349 . S
C522 H516 0.950 . S
C522 C523 1.327 . S
C523 H517 0.950 . S
C523 C522 1.327 . S
C523 C527 1.429 . S
C524 C507 1.574 . S
C524 H518 0.949 . S
C524 C528 1.368 . S
C525 C506 1.429 . S
C525 C519 1.429 . S
C525 C526 1.523 . S
C526 C507 1.368 . S
C526 C520 1.368 . S
C526 C525 1.523 . S
C527 C511 1.429 . S
C527 C523 1.429 . S
C527 C528 1.523 . S
C528 C512 1.368 . S
C528 C524 1.368 . S
C528 C527 1.523 . S
H529 C504 0.950 . S
H530 C506 0.950 . S
H531 C507 0.949 . S
H532 C509 0.950 . S
H533 C511 0.950 . S
C534 C535 1.349 . S
C534 C536 1.327 . S
C534 H559 0.950 . S
C535 C534 1.349 . S
C535 C551 1.349 . S
C536 C534 1.327 . S
C536 C555 1.429 . S
C536 H560 0.950 . S
C537 C554 1.574 . S
C537 C556 1.368 . S
C537 H561 0.949 . S
H538 C542 0.949 . S
C539 C540 1.349 . S
C539 C541 1.327 . S
C539 H562 0.950 . S
C540 C539 1.349 . S
C540 C552 1.349 . S
C541 C539 1.327 . S
C541 C557 1.429 . S
C541 H563 0.950 . S
C542 H538 0.949 . S
C542 C550 1.574 . S
C542 C558 1.368 . S
H543 C551 0.950 . S
H544 C549 0.950 . S
H545 C550 0.949 . S
H546 C552 0.950 . S
H547 C553 0.950 . S
H548 C554 0.949 . S
C549 H544 0.950 . S
C549 C551 1.327 . S
C549 C555 1.429 . S
C550 C542 1.574 . S
C550 H545 0.949 . S
C550 C556 1.368 . S
C551 C535 1.349 . S
C551 H543 0.950 . S
C551 C549 1.327 . S
C552 C540 1.349 . S
C552 H546 0.950 . S
C552 C553 1.327 . S
C553 H547 0.950 . S
C553 C552 1.327 . S
C553 C557 1.429 . S
C554 C537 1.574 . S
C554 H548 0.949 . S
C554 C558 1.368 . S
C555 C536 1.429 . S
C555 C549 1.429 . S
C555 C556 1.523 . S
C556 C537 1.368 . S
C556 C550 1.368 . S
C556 C555 1.523 . S
C557 C541 1.429 . S
C557 C553 1.429 . S
C557 C558 1.523 . S
C558 C542 1.368 . S
C558 C554 1.368 . S
C558 C557 1.523 . S
H559 C534 0.950 . S
H560 C536 0.950 . S
H561 C537 0.949 . S
H562 C539 0.950 . S
H563 C541 0.950 . S
C564 C565 1.349 . S
C564 C566 1.327 . S
C564 H589 0.950 . S
C565 C564 1.349 . S
C565 C581 1.349 . S
C566 C564 1.327 . S
C566 C585 1.429 . S
C566 H590 0.950 . S
C567 C584 1.574 . S
C567 C586 1.368 . S
C567 H591 0.949 . S
H568 C572 0.949 . S
C569 C570 1.349 . S
C569 C571 1.327 . S
C569 H592 0.950 . S
C570 C569 1.349 . S
C570 C582 1.349 . S
C571 C569 1.327 . S
C571 C587 1.429 . S
C571 H593 0.950 . S
C572 H568 0.949 . S
C572 C580 1.574 . S
C572 C588 1.368 . S
H573 C581 0.950 . S
H574 C579 0.950 . S
H575 C580 0.949 . S
H576 C582 0.950 . S
H577 C583 0.950 . S
H578 C584 0.949 . S
C579 H574 0.950 . S
C579 C581 1.327 . S
C579 C585 1.429 . S
C580 C572 1.574 . S
C580 H575 0.949 . S
C580 C586 1.368 . S
C581 C565 1.349 . S
C581 H573 0.950 . S
C581 C579 1.327 . S
C582 C570 1.349 . S
C582 H576 0.950 . S
C582 C583 1.327 . S
C583 H577 0.950 . S
C583 C582 1.327 . S
C583 C587 1.429 . S
C584 C567 1.574 . S
C584 H578 0.949 . S
C584 C588 1.368 . S
C585 C566 1.429 . S
C585 C579 1.429 . S
C585 C586 1.523 . S
C586 C567 1.368 . S
C586 C580 1.368 . S
C586 C585 1.523 . S
C587 C571 1.429 . S
C587 C583 1.429 . S
C587 C588 1.523 . S
C588 C572 1.368 . S
C588 C584 1.368 . S
C588 C587 1.523 . S
H589 C564 0.950 . S
H590 C566 0.950 . S
H591 C567 0.949 . S
H592 C569 0.950 . S
H593 C571 0.950 . S
C594 C595 1.349 . S
C594 C596 1.327 . S
C594 H619 0.950 . S
C595 C594 1.349 . S
C595 C611 1.349 . S
C596 C594 1.327 . S
C596 C615 1.429 . S
C596 H620 0.950 . S
C597 C614 1.574 . S
C597 C616 1.368 . S
C597 H621 0.949 . S
H598 C602 0.949 . S
C599 C600 1.349 . S
C599 C601 1.327 . S
C599 H622 0.950 . S
C600 C599 1.349 . S
C600 C612 1.349 . S
C601 C599 1.327 . S
C601 C617 1.429 . S
C601 H623 0.950 . S
C602 H598 0.949 . S
C602 C610 1.574 . S
C602 C618 1.368 . S
H603 C611 0.950 . S
H604 C609 0.950 . S
H605 C610 0.949 . S
H606 C612 0.950 . S
H607 C613 0.950 . S
H608 C614 0.949 . S
C609 H604 0.950 . S
C609 C611 1.327 . S
C609 C615 1.429 . S
C610 C602 1.574 . S
C610 H605 0.949 . S
C610 C616 1.368 . S
C611 C595 1.349 . S
C611 H603 0.950 . S
C611 C609 1.327 . S
C612 C600 1.349 . S
C612 H606 0.950 . S
C612 C613 1.327 . S
C613 H607 0.950 . S
C613 C612 1.327 . S
C613 C617 1.429 . S
C614 C597 1.574 . S
C614 H608 0.949 . S
C614 C618 1.368 . S
C615 C596 1.429 . S
C615 C609 1.429 . S
C615 C616 1.523 . S
C616 C597 1.368 . S
C616 C610 1.368 . S
C616 C615 1.523 . S
C617 C601 1.429 . S
C617 C613 1.429 . S
C617 C618 1.523 . S
C618 C602 1.368 . S
C618 C614 1.368 . S
C618 C617 1.523 . S
H619 C594 0.950 . S
H620 C596 0.950 . S
H621 C597 0.949 . S
H622 C599 0.950 . S
H623 C601 0.950 . S
C624 C625 1.349 . S
C624 C626 1.327 . S
C624 H649 0.950 . S
C625 C624 1.349 . S
C625 C641 1.349 . S
C626 C624 1.327 . S
C626 C645 1.429 . S
C626 H650 0.950 . S
C627 C644 1.574 . S
C627 C646 1.368 . S
C627 H651 0.949 . S
H628 C632 0.949 . S
C629 C630 1.349 . S
C629 C631 1.327 . S
C629 H652 0.950 . S
C630 C629 1.349 . S
C630 C642 1.349 . S
C631 C629 1.327 . S
C631 C647 1.429 . S
C631 H653 0.950 . S
C632 H628 0.949 . S
C632 C640 1.574 . S
C632 C648 1.368 . S
H633 C641 0.950 . S
H634 C639 0.950 . S
H635 C640 0.949 . S
H636 C642 0.950 . S
H637 C643 0.950 . S
H638 C644 0.949 . S
C639 H634 0.950 . S
C639 C641 1.327 . S
C639 C645 1.429 . S
C640 C632 1.574 . S
C640 H635 0.949 . S
C640 C646 1.368 . S
C641 C625 1.349 . S
C641 H633 0.950 . S
C641 C639 1.327 . S
C642 C630 1.349 . S
C642 H636 0.950 . S
C642 C643 1.327 . S
C643 H637 0.950 . S
C643 C642 1.327 . S
C643 C647 1.429 . S
C644 C627 1.574 . S
C644 H638 0.949 . S
C644 C648 1.368 . S
C645 C626 1.429 . S
C645 C639 1.429 . S
C645 C646 1.523 . S
C646 C627 1.368 . S
C646 C640 1.368 . S
C646 C645 1.523 . S
C647 C631 1.429 . S
C647 C643 1.429 . S
C647 C648 1.523 . S
C648 C632 1.368 . S
C648 C644 1.368 . S
C648 C647 1.523 . S
H649 C624 0.950 . S
H650 C626 0.950 . S
H651 C627 0.949 . S
H652 C629 0.950 . S
H653 C631 0.950 . S
C654 C655 1.349 . S
C654 C656 1.327 . S
C654 H679 0.950 . S
C655 C654 1.349 . S
C655 C671 1.349 . S
C656 C654 1.327 . S
C656 C675 1.429 . S
C656 H680 0.950 . S
C657 C674 1.574 . S
C657 C676 1.368 . S
C657 H681 0.949 . S
H658 C662 0.949 . S
C659 C660 1.349 . S
C659 C661 1.333 . S
C659 H682 0.950 . S
C660 C659 1.349 . S
C660 C672 1.349 . S
C661 C659 1.333 . S
C661 C677 1.424 1_554 S
C661 H683 0.948 1_554 S
C662 H658 0.949 . S
C662 C670 1.574 . S
C662 C678 1.368 . S
H663 C671 0.950 . S
H664 C669 0.950 . S
H665 C670 0.949 . S
H666 C672 0.950 . S
H667 C673 0.950 . S
H668 C674 0.949 . S
C669 H664 0.950 . S
C669 C671 1.327 . S
C669 C675 1.429 . S
C670 C662 1.574 . S
C670 H665 0.949 . S
C670 C676 1.368 . S
C671 C655 1.349 . S
C671 H663 0.950 . S
C671 C669 1.327 . S
C672 C660 1.349 . S
C672 H666 0.950 . S
C672 C673 1.327 1_554 S
C673 H667 0.950 . S
C673 C672 1.327 1_556 S
C673 C677 1.429 . S
C674 C657 1.574 . S
C674 H668 0.949 . S
C674 C678 1.368 . S
C675 C656 1.429 . S
C675 C669 1.429 . S
C675 C676 1.523 . S
C676 C657 1.368 . S
C676 C670 1.368 . S
C676 C675 1.523 . S
C677 C661 1.424 1_556 S
C677 C673 1.429 . S
C677 C678 1.523 . S
C678 C662 1.368 . S
C678 C674 1.368 . S
C678 C677 1.523 . S
H679 C654 0.950 . S
H680 C656 0.950 . S
H681 C657 0.949 . S
H682 C659 0.950 . S
H683 C661 0.948 1_556 S
C684 C685 1.349 . S
C684 C686 1.327 . S
C684 H709 0.950 . S
C685 C684 1.349 . S
C685 C701 1.349 . S
C686 C684 1.327 . S
C686 C705 1.429 . S
C686 H710 0.950 . S
C687 C704 1.574 . S
C687 C706 1.368 . S
C687 H711 0.949 . S
H688 C692 0.949 . S
C689 C690 1.349 . S
C689 C691 1.327 . S
C689 H712 0.950 . S
C690 C689 1.349 . S
C690 C702 1.349 . S
C691 C689 1.327 . S
C691 C707 1.429 . S
C691 H713 0.950 . S
C692 H688 0.949 . S
C692 C700 1.574 . S
C692 C708 1.368 . S
H693 C701 0.950 . S
H694 C699 0.950 . S
H695 C700 0.949 . S
H696 C702 0.950 . S
H697 C703 0.950 . S
H698 C704 0.949 . S
C699 H694 0.950 . S
C699 C701 1.327 . S
C699 C705 1.429 . S
C700 C692 1.574 . S
C700 H695 0.949 . S
C700 C706 1.368 . S
C701 C685 1.349 . S
C701 H693 0.950 . S
C701 C699 1.327 . S
C702 C690 1.349 . S
C702 H696 0.950 . S
C702 C703 1.327 . S
C703 H697 0.950 . S
C703 C702 1.327 . S
C703 C707 1.429 . S
C704 C687 1.574 . S
C704 H698 0.949 . S
C704 C708 1.368 . S
C705 C686 1.429 . S
C705 C699 1.429 . S
C705 C706 1.523 . S
C706 C687 1.368 . S
C706 C700 1.368 . S
C706 C705 1.523 . S
C707 C691 1.429 . S
C707 C703 1.429 . S
C707 C708 1.523 . S
C708 C692 1.368 . S
C708 C704 1.368 . S
C708 C707 1.523 . S
H709 C684 0.950 . S
H710 C686 0.950 . S
H711 C687 0.949 . S
H712 C689 0.950 . S
H713 C691 0.950 . S
C714 C715 1.349 . S
C714 C716 1.327 . S
C714 H739 0.950 . S
C715 C714 1.349 . S
C715 C731 1.349 . S
C716 C714 1.327 . S
C716 C735 1.429 . S
C716 H740 0.950 . S
C717 C734 1.574 . S
C717 C736 1.368 . S
C717 H741 0.949 . S
H718 C722 0.949 . S
C719 C720 1.349 . S
C719 C721 1.327 . S
C719 H742 0.950 . S
C720 C719 1.349 . S
C720 C732 1.349 . S
C721 C719 1.327 . S
C721 C737 1.429 . S
C721 H743 0.950 . S
C722 H718 0.949 . S
C722 C730 1.574 . S
C722 C738 1.368 . S
H723 C731 0.950 . S
H724 C729 0.950 . S
H725 C730 0.949 . S
H726 C732 0.950 . S
H727 C733 0.950 . S
H728 C734 0.949 . S
C729 H724 0.950 . S
C729 C731 1.327 . S
C729 C735 1.429 . S
C730 C722 1.574 . S
C730 H725 0.949 . S
C730 C736 1.368 . S
C731 C715 1.349 . S
C731 H723 0.950 . S
C731 C729 1.327 . S
C732 C720 1.349 . S
C732 H726 0.950 . S
C732 C733 1.327 . S
C733 H727 0.950 . S
C733 C732 1.327 . S
C733 C737 1.429 . S
C734 C717 1.574 . S
C734 H728 0.949 . S
C734 C738 1.368 . S
C735 C716 1.429 . S
C735 C729 1.429 . S
C735 C736 1.523 . S
C736 C717 1.368 . S
C736 C730 1.368 . S
C736 C735 1.523 . S
C737 C721 1.429 . S
C737 C733 1.429 . S
C737 C738 1.523 . S
C738 C722 1.368 . S
C738 C734 1.368 . S
C738 C737 1.523 . S
H739 C714 0.950 . S
H740 C716 0.950 . S
H741 C717 0.949 . S
H742 C719 0.950 . S
H743 C721 0.950 . S
C744 C745 1.349 . S
C744 C746 1.327 . S
C744 H769 0.950 . S
C745 C744 1.349 . S
C745 C761 1.349 . S
C746 C744 1.327 . S
C746 C765 1.429 . S
C746 H770 0.950 . S
C747 C764 1.574 . S
C747 C766 1.368 . S
C747 H771 0.949 . S
H748 C752 0.949 . S
C749 C750 1.349 . S
C749 C751 1.327 . S
C749 H772 0.950 . S
C750 C749 1.349 . S
C750 C762 1.349 . S
C751 C749 1.327 . S
C751 C767 1.429 . S
C751 H773 0.950 . S
C752 H748 0.949 . S
C752 C760 1.574 . S
C752 C768 1.368 . S
H753 C761 0.950 . S
H754 C759 0.950 . S
H755 C760 0.949 . S
H756 C762 0.950 . S
H757 C763 0.950 . S
H758 C764 0.949 . S
C759 H754 0.950 . S
C759 C761 1.327 . S
C759 C765 1.429 . S
C760 C752 1.574 . S
C760 H755 0.949 . S
C760 C766 1.368 . S
C761 C745 1.349 . S
C761 H753 0.950 . S
C761 C759 1.327 . S
C762 C750 1.349 . S
C762 H756 0.950 . S
C762 C763 1.327 . S
C763 H757 0.950 . S
C763 C762 1.327 . S
C763 C767 1.429 . S
C764 C747 1.574 . S
C764 H758 0.949 . S
C764 C768 1.368 . S
C765 C746 1.429 . S
C765 C759 1.429 . S
C765 C766 1.523 . S
C766 C747 1.368 . S
C766 C760 1.368 . S
C766 C765 1.523 . S
C767 C751 1.429 . S
C767 C763 1.429 . S
C767 C768 1.523 . S
C768 C752 1.368 . S
C768 C764 1.368 . S
C768 C767 1.523 . S
H769 C744 0.950 . S
H770 C746 0.950 . S
H771 C747 0.949 . S
H772 C749 0.950 . S
H773 C751 0.950 . S
C774 C775 1.349 . S
C774 C776 1.327 . S
C774 H799 0.950 . S
C775 C774 1.349 . S
C775 C791 1.349 . S
C776 C774 1.327 . S
C776 C795 1.429 . S
C776 H800 0.950 . S
C777 C794 1.574 . S
C777 C796 1.368 . S
C777 H801 0.949 . S
H778 C782 0.949 . S
C779 C780 1.349 . S
C779 C781 1.327 . S
C779 H802 0.950 . S
C780 C779 1.349 . S
C780 C792 1.349 . S
C781 C779 1.327 . S
C781 C797 1.429 . S
C781 H803 0.950 . S
C782 H778 0.949 . S
C782 C790 1.574 . S
C782 C798 1.368 . S
H783 C791 0.950 . S
H784 C789 0.950 . S
H785 C790 0.949 . S
H786 C792 0.950 . S
H787 C793 0.950 . S
H788 C794 0.949 . S
C789 H784 0.950 . S
C789 C791 1.327 . S
C789 C795 1.429 . S
C790 C782 1.574 . S
C790 H785 0.949 . S
C790 C796 1.368 . S
C791 C775 1.349 . S
C791 H783 0.950 . S
C791 C789 1.327 . S
C792 C780 1.349 . S
C792 H786 0.950 . S
C792 C793 1.327 . S
C793 H787 0.950 . S
C793 C792 1.327 . S
C793 C797 1.429 . S
C794 C777 1.574 . S
C794 H788 0.949 . S
C794 C798 1.368 . S
C795 C776 1.429 . S
C795 C789 1.429 . S
C795 C796 1.523 . S
C796 C777 1.368 . S
C796 C790 1.368 . S
C796 C795 1.523 . S
C797 C781 1.429 . S
C797 C793 1.429 . S
C797 C798 1.523 . S
C798 C782 1.368 . S
C798 C794 1.368 . S
C798 C797 1.523 . S
H799 C774 0.950 . S
H800 C776 0.950 . S
H801 C777 0.949 . S
H802 C779 0.950 . S
H803 C781 0.950 . S
C804 C805 1.349 . S
C804 C806 1.327 . S
C804 H829 0.950 . S
C805 C804 1.349 . S
C805 C821 1.349 . S
C806 C804 1.327 . S
C806 C825 1.429 . S
C806 H830 0.950 . S
C807 C824 1.574 . S
C807 C826 1.368 . S
C807 H831 0.949 . S
H808 C812 0.949 . S
C809 C810 1.349 . S
C809 C811 1.327 . S
C809 H832 0.950 . S
C810 C809 1.349 . S
C810 C822 1.349 . S
C811 C809 1.327 . S
C811 C827 1.429 . S
C811 H833 0.950 . S
C812 H808 0.949 . S
C812 C820 1.574 . S
C812 C828 1.368 . S
H813 C821 0.950 . S
H814 C819 0.950 . S
H815 C820 0.949 . S
H816 C822 0.950 . S
H817 C823 0.950 . S
H818 C824 0.949 . S
C819 H814 0.950 . S
C819 C821 1.327 . S
C819 C825 1.429 . S
C820 C812 1.574 . S
C820 H815 0.949 . S
C820 C826 1.368 . S
C821 C805 1.349 . S
C821 H813 0.950 . S
C821 C819 1.327 . S
C822 C810 1.349 . S
C822 H816 0.950 . S
C822 C823 1.327 . S
C823 H817 0.950 . S
C823 C822 1.327 . S
C823 C827 1.429 . S
C824 C807 1.574 . S
C824 H818 0.949 . S
C824 C828 1.368 . S
C825 C806 1.429 . S
C825 C819 1.429 . S
C825 C826 1.523 . S
C826 C807 1.368 . S
C826 C820 1.368 . S
C826 C825 1.523 . S
C827 C811 1.429 . S
C827 C823 1.429 . S
C827 C828 1.523 . S
C828 C812 1.368 . S
C828 C824 1.368 . S
C828 C827 1.523 . S
H829 C804 0.950 . S
H830 C806 0.950 . S
H831 C807 0.949 . S
H832 C809 0.950 . S
H833 C811 0.950 . S
C834 C835 1.349 . S
C834 C836 1.327 . S
C834 H859 0.950 . S
C835 C834 1.349 . S
C835 C851 1.349 . S
C836 C834 1.327 . S
C836 C855 1.429 . S
C836 H860 0.950 . S
C837 C854 1.574 . S
C837 C856 1.368 . S
C837 H861 0.949 . S
H838 C842 0.949 . S
C839 C840 1.349 . S
C839 C841 1.327 . S
C839 H862 0.950 . S
C840 C839 1.349 . S
C840 C852 1.349 . S
C841 C839 1.327 . S
C841 C857 1.429 . S
C841 H863 0.950 . S
C842 H838 0.949 . S
C842 C850 1.574 . S
C842 C858 1.368 . S
H843 C851 0.950 . S
H844 C849 0.950 . S
H845 C850 0.949 . S
H846 C852 0.950 . S
H847 C853 0.950 . S
H848 C854 0.949 . S
C849 H844 0.950 . S
C849 C851 1.327 . S
C849 C855 1.429 . S
C850 C842 1.574 . S
C850 H845 0.949 . S
C850 C856 1.368 . S
C851 C835 1.349 . S
C851 H843 0.950 . S
C851 C849 1.327 . S
C852 C840 1.349 . S
C852 H846 0.950 . S
C852 C853 1.327 . S
C853 H847 0.950 . S
C853 C852 1.327 . S
C853 C857 1.429 . S
C854 C837 1.574 . S
C854 H848 0.949 . S
C854 C858 1.368 . S
C855 C836 1.429 . S
C855 C849 1.429 . S
C855 C856 1.523 . S
C856 C837 1.368 . S
C856 C850 1.368 . S
C856 C855 1.523 . S
C857 C841 1.429 . S
C857 C853 1.429 . S
C857 C858 1.523 . S
C858 C842 1.368 . S
C858 C854 1.368 . S
C858 C857 1.523 . S
H859 C834 0.950 . S
H860 C836 0.950 . S
H861 C837 0.949 . S
H862 C839 0.950 . S
H863 C841 0.950 . S
C864 C865 1.349 . S
C864 C866 1.327 . S
C864 H889 0.950 . S
C865 C864 1.349 . S
C865 C881 1.349 . S
C866 C864 1.327 . S
C866 C885 1.429 . S
C866 H890 0.950 . S
C867 C884 1.574 . S
C867 C886 1.368 . S
C867 H891 0.949 . S
H868 C872 0.949 . S
C869 C870 1.349 . S
C869 C871 1.327 . S
C869 H892 0.950 . S
C870 C869 1.349 . S
C870 C882 1.349 . S
C871 C869 1.327 . S
C871 C887 1.429 . S
C871 H893 0.950 1_556 S
C872 H868 0.949 . S
C872 C880 1.574 . S
C872 C888 1.368 . S
H873 C881 0.950 . S
H874 C879 0.950 . S
H875 C880 0.949 . S
H876 C882 0.950 . S
H877 C883 0.950 . S
H878 C884 0.949 . S
C879 H874 0.950 . S
C879 C881 1.327 . S
C879 C885 1.429 . S
C880 C872 1.574 . S
C880 H875 0.949 . S
C880 C886 1.368 . S
C881 C865 1.349 . S
C881 H873 0.950 . S
C881 C879 1.327 . S
C882 C870 1.349 . S
C882 H876 0.950 . S
C882 C883 1.327 . S
C883 H877 0.950 . S
C883 C882 1.327 . S
C883 C887 1.429 . S
C884 C867 1.574 . S
C884 H878 0.949 . S
C884 C888 1.368 . S
C885 C866 1.429 . S
C885 C879 1.429 . S
C885 C886 1.523 . S
C886 C867 1.368 . S
C886 C880 1.368 . S
C886 C885 1.523 . S
C887 C871 1.429 . S
C887 C883 1.429 . S
C887 C888 1.523 1_556 S
C888 C872 1.368 . S
C888 C884 1.368 . S
C888 C887 1.523 1_554 S
H889 C864 0.950 . S
H890 C866 0.950 . S
H891 C867 0.949 . S
H892 C869 0.950 . S
H893 C871 0.950 1_554 S
C894 C895 1.349 . S
C894 C896 1.327 . S
C894 H919 0.950 . S
C895 C894 1.349 . S
C895 C911 1.349 . S
C896 C894 1.327 . S
C896 C915 1.429 . S
C896 H920 0.950 . S
C897 C914 1.574 . S
C897 C916 1.368 . S
C897 H921 0.949 . S
H898 C902 0.949 . S
C899 C900 1.349 . S
C899 C901 1.327 . S
C899 H922 0.950 . S
C900 C899 1.349 . S
C900 C912 1.349 . S
C901 C899 1.327 . S
C901 C917 1.429 . S
C901 H923 0.950 . S
C902 H898 0.949 . S
C902 C910 1.574 . S
C902 C918 1.368 . S
H903 C911 0.950 . S
H904 C909 0.950 . S
H905 C910 0.949 . S
H906 C912 0.950 . S
H907 C913 0.950 . S
H908 C914 0.949 . S
C909 H904 0.950 . S
C909 C911 1.327 . S
C909 C915 1.429 . S
C910 C902 1.574 . S
C910 H905 0.949 . S
C910 C916 1.368 . S
C911 C895 1.349 . S
C911 H903 0.950 . S
C911 C909 1.327 . S
C912 C900 1.349 . S
C912 H906 0.950 . S
C912 C913 1.327 . S
C913 H907 0.950 . S
C913 C912 1.327 . S
C913 C917 1.429 . S
C914 C897 1.574 . S
C914 H908 0.949 . S
C914 C918 1.368 . S
C915 C896 1.429 . S
C915 C909 1.429 . S
C915 C916 1.523 . S
C916 C897 1.368 . S
C916 C910 1.368 . S
C916 C915 1.523 . S
C917 C901 1.429 . S
C917 C913 1.429 . S
C917 C918 1.523 . S
C918 C902 1.368 . S
C918 C914 1.368 . S
C918 C917 1.523 . S
H919 C894 0.950 . S
H920 C896 0.950 . S
H921 C897 0.949 . S
H922 C899 0.950 . S
H923 C901 0.950 . S
C210 C196 1.636 . S
C205 C19 1.565 . S
C235 C40 1.572 . S
C240 C131 1.642 . S
C265 C51 1.565 . S
C270 C149 1.648 . S
C295 C72 1.547 . S
C300 C162 1.629 . S
C330 C170 1.640 . S
C325 C103 1.569 . S
C355 C114 1.556 . S
C360 C182 1.638 . S
C385 C30 1.570 . S
C390 C144 1.654 . S
C415 C61 1.568 . S
C420 C157 1.638 . S
C445 C82 1.562 . S
C450 C175 1.631 . S
C480 C181 1.646 . S
C475 C93 1.562 1_554 S
C510 C201 1.625 . S
C505 C124 1.556 . S
C540 C136 1.638 . S
C535 C9 1.555 . S
C565 C17 1.546 . S
C570 C142 1.621 . S
C595 C38 1.546 . S
C600 C155 1.621 . S
C630 C169 1.613 . S
C625 C54 1.535 . S
C655 C75 1.548 . S
C660 C183 1.626 . S
C690 C195 1.610 . S
C685 C101 1.535 . S
C720 C130 1.613 . S
C715 C117 1.534 . S
C750 C194 1.617 . S
C745 C33 1.540 . S
C775 C59 1.542 . S
C780 C129 1.617 . S
C810 C143 1.619 . S
C805 C80 1.543 . S
C835 C96 1.531 . S
C840 C156 1.609 . S
C865 C122 1.546 . S
C870 C168 1.621 . S
C895 C12 1.541 . S
C900 C188 1.620 . S
