# Generated by pormake.
# Topology pyr, (3,6)-cn, num edge types: 1
# Building blocks:
#     Node 0, Type 0, BuildingBlock: MIDCAF_clean_linker_0, # of connection points: 3
#     Node 1, Type 0, BuildingBlock: MIDCAF_clean_linker_0, # of connection points: 3
#     Node 2, Type 0, BuildingBlock: MIDCAF_clean_linker_0, # of connection points: 3
#     Node 3, Type 0, BuildingBlock: MIDCAF_clean_linker_0, # of connection points: 3
#     Node 4, Type 0, BuildingBlock: MIDCAF_clean_linker_0, # of connection points: 3
#     Node 5, Type 0, BuildingBlock: MIDCAF_clean_linker_0, # of connection points: 3
#     Node 6, Type 0, BuildingBlock: MIDCAF_clean_linker_0, # of connection points: 3
#     Node 7, Type 0, BuildingBlock: MIDCAF_clean_linker_0, # of connection points: 3
#     Node 8, Type 1, BuildingBlock: BETFEN_clean_sbu_0, # of connection points: 6
#     Node 9, Type 1, BuildingBlock: BETFEN_clean_sbu_0, # of connection points: 6
#     Node 10, Type 1, BuildingBlock: BETFEN_clean_sbu_0, # of connection points: 6
#     Node 11, Type 1, BuildingBlock: BETFEN_clean_sbu_0, # of connection points: 6
#     Edge 12, Type (0, 1), BuildingBlock: KIFKEQ_clean_linker_1, # of connection points: 2
#     Edge 13, Type (0, 1), BuildingBlock: KIFKEQ_clean_linker_1, # of connection points: 2
#     Edge 14, Type (0, 1), BuildingBlock: KIFKEQ_clean_linker_1, # of connection points: 2
#     Edge 15, Type (0, 1), BuildingBlock: KIFKEQ_clean_linker_1, # of connection points: 2
#     Edge 16, Type (0, 1), BuildingBlock: KIFKEQ_clean_linker_1, # of connection points: 2
#     Edge 17, Type (0, 1), BuildingBlock: KIFKEQ_clean_linker_1, # of connection points: 2
#     Edge 18, Type (0, 1), BuildingBlock: KIFKEQ_clean_linker_1, # of connection points: 2
#     Edge 19, Type (0, 1), BuildingBlock: KIFKEQ_clean_linker_1, # of connection points: 2
#     Edge 20, Type (0, 1), BuildingBlock: KIFKEQ_clean_linker_1, # of connection points: 2
#     Edge 21, Type (0, 1), BuildingBlock: KIFKEQ_clean_linker_1, # of connection points: 2
#     Edge 22, Type (0, 1), BuildingBlock: KIFKEQ_clean_linker_1, # of connection points: 2
#     Edge 23, Type (0, 1), BuildingBlock: KIFKEQ_clean_linker_1, # of connection points: 2
#     Edge 24, Type (0, 1), BuildingBlock: KIFKEQ_clean_linker_1, # of connection points: 2
#     Edge 25, Type (0, 1), BuildingBlock: KIFKEQ_clean_linker_1, # of connection points: 2
#     Edge 26, Type (0, 1), BuildingBlock: KIFKEQ_clean_linker_1, # of connection points: 2
#     Edge 27, Type (0, 1), BuildingBlock: KIFKEQ_clean_linker_1, # of connection points: 2
#     Edge 28, Type (0, 1), BuildingBlock: KIFKEQ_clean_linker_1, # of connection points: 2
#     Edge 29, Type (0, 1), BuildingBlock: KIFKEQ_clean_linker_1, # of connection points: 2
#     Edge 30, Type (0, 1), BuildingBlock: KIFKEQ_clean_linker_1, # of connection points: 2
#     Edge 31, Type (0, 1), BuildingBlock: KIFKEQ_clean_linker_1, # of connection points: 2
#     Edge 32, Type (0, 1), BuildingBlock: KIFKEQ_clean_linker_1, # of connection points: 2
#     Edge 33, Type (0, 1), BuildingBlock: KIFKEQ_clean_linker_1, # of connection points: 2
#     Edge 34, Type (0, 1), BuildingBlock: KIFKEQ_clean_linker_1, # of connection points: 2
#     Edge 35, Type (0, 1), BuildingBlock: KIFKEQ_clean_linker_1, # of connection points: 2
# Relax obj value: 0.131
# Max RMSD: 0.233
# Mean RMSD: 0.112
data_MOF--net-pyr--node1-BETFEN_clean_sbu_0--node2-MIDCAF_clean_linker_0--edge1-KIFKEQ_clean_linker_1
_symmetry_space_group_name_H-M    P1
_symmetry_Int_Tables_number       1
_symmetry_cell_setting            triclinic
loop_
_symmetry_equiv_pos_as_xyz
'x, y, z'
_cell_length_a     45.59845
_cell_length_b     50.107894
_cell_length_c     47.153285
_cell_angle_alpha  91.18156
_cell_angle_beta   98.742544
_cell_angle_gamma 107.91081
loop_
_atom_site_label
_atom_site_type_symbol
_atom_site_fract_x
_atom_site_fract_y
_atom_site_fract_z
_atom_type_partial_charge
C0 C 0.30829 0.28731 0.36936 0.0
C1 C 0.32029 0.26716 0.38271 0.0
C2 C 0.34731 0.26339 0.37469 0.0
C3 C 0.36067 0.27795 0.35247 0.0
H4 H 0.41088 0.26617 0.29161 0.0
H5 H 0.4305 0.23639 0.26328 0.0
H6 H 0.41687 0.28293 0.18903 0.0
H7 H 0.39681 0.31258 0.21713 0.0
H8 H 0.35747 0.35362 0.21718 0.0
H9 H 0.32312 0.37462 0.1873 0.0
H10 H 0.27177 0.37468 0.25701 0.0
H11 H 0.30575 0.35358 0.28691 0.0
H12 H 0.31092 0.31638 0.33663 0.0
H13 H 0.28737 0.29064 0.37478 0.0
H14 H 0.35756 0.24847 0.38496 0.0
H15 H 0.38069 0.27363 0.34609 0.0
N16 N 0.37743 0.29809 0.29835 0.0
N17 N 0.37099 0.32408 0.25845 0.0
N18 N 0.34501 0.32648 0.29716 0.0
C19 C 0.38419 0.30592 0.27206 0.0
C20 C 0.35154 0.33463 0.27091 0.0
C21 C 0.358 0.30839 0.31115 0.0
C22 C 0.40165 0.29148 0.25656 0.0
C23 C 0.41255 0.27045 0.26939 0.0
C24 C 0.424 0.25343 0.25319 0.0
C25 C 0.42479 0.25706 0.22381 0.0
C26 C 0.41598 0.27932 0.2115 0.0
C27 C 0.40461 0.29639 0.2277 0.0
C28 C 0.33413 0.35146 0.25436 0.0
C29 C 0.33917 0.35848 0.22635 0.0
C30 C 0.31959 0.37063 0.20922 0.0
C31 C 0.29452 0.37588 0.21972 0.0
C32 C 0.29059 0.37039 0.24822 0.0
C33 C 0.31022 0.3584 0.26538 0.0
C34 C 0.3474 0.29673 0.33784 0.0
C35 C 0.32175 0.302 0.34728 0.0
C36 C 0.21048 0.88034 0.6668 0.0
C37 C 0.2016 0.88109 0.63705 0.0
C38 C 0.21368 0.86683 0.61808 0.0
C39 C 0.23467 0.8526 0.62868 0.0
H40 H 0.27846 0.78681 0.61044 0.0
H41 H 0.30235 0.76013 0.58194 0.0
H42 H 0.38492 0.78301 0.64724 0.0
H43 H 0.36154 0.80933 0.67534 0.0
H44 H 0.35692 0.82469 0.73675 0.0
H45 H 0.38436 0.84057 0.78547 0.0
H46 H 0.31236 0.87556 0.80124 0.0
H47 H 0.28459 0.85965 0.7524 0.0
H48 H 0.23795 0.86658 0.70046 0.0
H49 H 0.20198 0.89138 0.68204 0.0
H50 H 0.20699 0.86673 0.59502 0.0
H51 H 0.24395 0.84224 0.6135 0.0
N52 N 0.2801 0.82502 0.65265 0.0
N53 N 0.31554 0.81997 0.69221 0.0
N54 N 0.28046 0.84416 0.69868 0.0
C55 C 0.30377 0.81508 0.6637 0.0
C56 C 0.30399 0.83434 0.70988 0.0
C57 C 0.26832 0.83965 0.67018 0.0
C58 C 0.31801 0.80006 0.64521 0.0
C59 C 0.30181 0.78629 0.61848 0.0
C60 C 0.31539 0.77096 0.60226 0.0
C61 C 0.34556 0.76967 0.6123 0.0
C62 C 0.36184 0.78395 0.6387 0.0
C63 C 0.34824 0.79884 0.65496 0.0
C64 C 0.3187 0.84119 0.74048 0.0
C65 C 0.34662 0.83544 0.75062 0.0
C66 C 0.36244 0.8446 0.77851 0.0
C67 C 0.35059 0.85948 0.79697 0.0
C68 C 0.32191 0.864 0.78745 0.0
C69 C 0.30615 0.85503 0.75941 0.0
C70 C 0.2441 0.85247 0.65848 0.0
C71 C 0.23137 0.86621 0.67736 0.0
C72 C 0.618 0.23709 0.87482 0.0
C73 C 0.58577 0.2228 0.87024 0.0
C74 C 0.56604 0.23345 0.85085 0.0
C75 C 0.57829 0.25857 0.83753 0.0
H76 H 0.57114 0.35013 0.7871 0.0
H77 H 0.5574 0.37751 0.74766 0.0
H78 H 0.63952 0.37611 0.71303 0.0
H79 H 0.65376 0.3504 0.75323 0.0
H80 H 0.69541 0.40082 0.8401 0.0
H81 H 0.74413 0.42892 0.87025 0.0
H82 H 0.75752 0.35297 0.90349 0.0
H83 H 0.70852 0.32529 0.87452 0.0
H84 H 0.65513 0.27217 0.86634 0.0
H85 H 0.63408 0.2292 0.88886 0.0
H86 H 0.54106 0.22291 0.84674 0.0
H87 H 0.56249 0.26677 0.82354 0.0
N88 N 0.61078 0.31135 0.80879 0.0
N89 N 0.65396 0.35296 0.81469 0.0
N90 N 0.65265 0.31805 0.84689 0.0
C91 C 0.6258 0.33709 0.79975 0.0
C92 C 0.66742 0.34363 0.83841 0.0
C93 C 0.62454 0.30165 0.83252 0.0
C94 C 0.61339 0.34801 0.77309 0.0
C95 C 0.58576 0.35525 0.77063 0.0
C96 C 0.578 0.37104 0.74797 0.0
C97 C 0.59757 0.37969 0.72709 0.0
C98 C 0.62426 0.37084 0.72894 0.0
C99 C 0.63223 0.35562 0.75178 0.0
C100 C 0.69792 0.36084 0.8551 0.0
C101 C 0.70887 0.39019 0.85383 0.0
C102 C 0.73688 0.40628 0.87106 0.0
C103 C 0.75472 0.39333 0.88967 0.0
C104 C 0.74408 0.36386 0.89015 0.0
C105 C 0.71599 0.3479 0.8733 0.0
C106 C 0.6105 0.27344 0.84335 0.0
C107 C 0.63011 0.26187 0.86168 0.0
C108 C 0.76869 0.63589 0.38184 0.0
C109 C 0.75475 0.60652 0.38007 0.0
C110 C 0.76735 0.59024 0.36344 0.0
C111 C 0.79295 0.60306 0.34918 0.0
H112 H 0.84254 0.60359 0.26929 0.0
H113 H 0.86187 0.58471 0.23012 0.0
H114 H 0.94816 0.65339 0.24816 0.0
H115 H 0.92891 0.67223 0.28704 0.0
H116 H 0.9128 0.73852 0.31806 0.0
H117 H 0.93494 0.78622 0.34232 0.0
H118 H 0.90318 0.75388 0.42013 0.0
H119 H 0.88122 0.70699 0.39623 0.0
H120 H 0.80371 0.67122 0.37044 0.0
H121 H 0.76048 0.64941 0.39465 0.0
H122 H 0.75734 0.56757 0.36129 0.0
H123 H 0.80212 0.58988 0.33692 0.0
N124 N 0.8459 0.6364 0.31679 0.0
N125 N 0.88814 0.67859 0.31833 0.0
N126 N 0.85257 0.67396 0.3503 0.0
C127 C 0.87221 0.6518 0.30624 0.0
C128 C 0.87843 0.68974 0.34054 0.0
C129 C 0.83587 0.6476 0.33892 0.0
C130 C 0.88391 0.63966 0.28184 0.0
C131 C 0.86567 0.61475 0.26501 0.0
C132 C 0.87679 0.60392 0.24222 0.0
C133 C 0.90687 0.61725 0.23551 0.0
C134 C 0.9251 0.64206 0.25248 0.0
C135 C 0.91384 0.65308 0.27492 0.0
C136 C 0.89517 0.71866 0.35506 0.0
C137 C 0.91092 0.74159 0.34043 0.0
C138 C 0.92334 0.76902 0.3543 0.0
C139 C 0.92094 0.77414 0.38334 0.0
C140 C 0.90586 0.75099 0.39795 0.0
C141 C 0.89309 0.72393 0.38407 0.0
C142 C 0.80697 0.63252 0.35146 0.0
C143 C 0.79404 0.64852 0.36793 0.0
C144 C 0.62364 0.76911 0.78817 0.0
C145 C 0.62259 0.76573 0.81753 0.0
C146 C 0.63016 0.74295 0.82997 0.0
C147 C 0.64025 0.72485 0.81378 0.0
H148 H 0.67645 0.65993 0.82184 0.0
H149 H 0.70424 0.63227 0.84998 0.0
H150 H 0.75322 0.62653 0.77967 0.0
H151 H 0.72506 0.65347 0.7513 0.0
H152 H 0.72546 0.6928 0.70178 0.0
H153 H 0.75305 0.71727 0.66482 0.0
H154 H 0.702 0.77702 0.66426 0.0
H155 H 0.67399 0.75241 0.70074 0.0
H156 H 0.63563 0.75506 0.74973 0.0
H157 H 0.61811 0.78656 0.77802 0.0
H158 H 0.62911 0.7396 0.85246 0.0
H159 H 0.64698 0.70815 0.82439 0.0
N160 N 0.66815 0.69232 0.78171 0.0
N161 N 0.69408 0.68826 0.74337 0.0
N162 N 0.66747 0.72145 0.74354 0.0
C163 C 0.6856 0.6796 0.7689 0.0
C164 C 0.68499 0.70906 0.73044 0.0
C165 C 0.6588 0.71314 0.76909 0.0
C166 C 0.69879 0.65932 0.78439 0.0
C167 C 0.69274 0.65237 0.81215 0.0
C168 C 0.70879 0.63661 0.82838 0.0
C169 C 0.73121 0.62744 0.81723 0.0
C170 C 0.73591 0.63301 0.78888 0.0
C171 C 0.71985 0.64869 0.77264 0.0
C172 C 0.69781 0.72087 0.70466 0.0
C173 C 0.71963 0.71083 0.69343 0.0
C174 C 0.73559 0.72493 0.67231 0.0
C175 C 0.73003 0.74929 0.66187 0.0
C176 C 0.70673 0.75821 0.67168 0.0
C177 C 0.69078 0.74415 0.69281 0.0
C178 C 0.64321 0.72928 0.78484 0.0
C179 C 0.63388 0.75111 0.772 0.0
C180 C 0.72803 0.16662 0.25263 0.0
C181 C 0.6982 0.16758 0.24065 0.0
C182 C 0.68151 0.17862 0.2579 0.0
C183 C 0.69384 0.18762 0.28663 0.0
H184 H 0.67572 0.22279 0.35338 0.0
H185 H 0.6486 0.24877 0.37674 0.0
H186 H 0.71503 0.25914 0.45514 0.0
H187 H 0.74329 0.23318 0.43119 0.0
H188 H 0.78539 0.1845 0.43074 0.0
H189 H 0.82315 0.16196 0.45257 0.0
H190 H 0.83942 0.14163 0.36806 0.0
H191 H 0.80295 0.16451 0.34651 0.0
H192 H 0.76296 0.1737 0.29029 0.0
H193 H 0.74178 0.15872 0.23982 0.0
H194 H 0.65826 0.17925 0.24964 0.0
H195 H 0.67986 0.19523 0.29942 0.0
N196 N 0.72023 0.20606 0.34567 0.0
N197 N 0.75215 0.20189 0.38825 0.0
N198 N 0.75754 0.18337 0.34378 0.0
C199 C 0.72885 0.21109 0.37459 0.0
C200 C 0.76664 0.18797 0.37276 0.0
C201 C 0.73439 0.19234 0.33011 0.0
C202 C 0.71193 0.22592 0.39033 0.0
C203 C 0.68479 0.23044 0.37563 0.0
C204 C 0.66888 0.24517 0.38916 0.0
C205 C 0.67941 0.25582 0.4179 0.0
C206 C 0.70641 0.25123 0.43291 0.0
C207 C 0.72248 0.23627 0.41926 0.0
C208 C 0.79098 0.1763 0.38685 0.0
C209 C 0.79735 0.17551 0.4169 0.0
C210 C 0.81879 0.16241 0.42939 0.0
C211 C 0.83434 0.14999 0.41206 0.0
C212 C 0.82832 0.15133 0.38213 0.0
C213 C 0.80707 0.16434 0.36973 0.0
C214 C 0.72302 0.18546 0.29895 0.0
C215 C 0.74024 0.17532 0.28153 0.0
C216 C 0.30116 0.63291 0.18675 0.0
C217 C 0.29263 0.63968 0.1585 0.0
C218 C 0.3145 0.66072 0.1465 0.0
C219 C 0.34358 0.67536 0.16257 0.0
H220 H 0.3957 0.75637 0.17833 0.0
H221 H 0.4169 0.79979 0.1569 0.0
H222 H 0.50861 0.8087 0.20423 0.0
H223 H 0.48706 0.76387 0.2258 0.0
H224 H 0.48309 0.69818 0.27254 0.0
H225 H 0.50023 0.67429 0.31399 0.0
H226 H 0.40452 0.63965 0.32692 0.0
H227 H 0.38759 0.66299 0.28582 0.0
H228 H 0.33614 0.64221 0.22474 0.0
H229 H 0.28484 0.61693 0.19674 0.0
H230 H 0.30915 0.66602 0.12458 0.0
H231 H 0.35955 0.69164 0.15257 0.0
N232 N 0.39781 0.7114 0.19948 0.0
N233 N 0.43795 0.71879 0.2393 0.0
N234 N 0.3943 0.67754 0.23307 0.0
C235 C 0.42537 0.72802 0.21461 0.0
C236 C 0.42216 0.6934 0.24866 0.0
C237 C 0.38218 0.68626 0.20828 0.0
C238 C 0.43963 0.75623 0.20383 0.0
C239 C 0.42046 0.76736 0.18446 0.0
C240 C 0.43261 0.79267 0.17223 0.0
C241 C 0.4645 0.80809 0.17885 0.0
C242 C 0.48392 0.79733 0.19851 0.0
C243 C 0.47156 0.77175 0.21105 0.0
C244 C 0.43398 0.68249 0.2758 0.0
C245 C 0.46587 0.68584 0.28458 0.0
C246 C 0.47561 0.67195 0.30817 0.0
C247 C 0.45374 0.65498 0.32384 0.0
C248 C 0.42207 0.65269 0.31563 0.0
C249 C 0.41235 0.66602 0.2919 0.0
C250 C 0.35186 0.66921 0.19106 0.0
C251 C 0.33053 0.64747 0.20285 0.0
C252 C 0.14257 0.28166 0.65744 0.0
C253 C 0.12143 0.26035 0.66991 0.0
C254 C 0.11262 0.26799 0.69567 0.0
C255 C 0.12517 0.29577 0.70871 0.0
H256 H 0.11197 0.36319 0.76401 0.0
H257 H 0.09278 0.38199 0.80299 0.0
H258 H 0.17769 0.45231 0.81892 0.0
H259 H 0.19694 0.43346 0.77973 0.0
H260 H 0.23829 0.44673 0.71402 0.0
H261 H 0.2829 0.46951 0.68961 0.0
H262 H 0.27902 0.3882 0.65413 0.0
H263 H 0.23606 0.36593 0.67838 0.0
H264 H 0.17135 0.32442 0.6597 0.0
H265 H 0.14945 0.2773 0.6373 0.0
H266 H 0.09652 0.25236 0.70619 0.0
H267 H 0.11828 0.30061 0.72869 0.0
N268 N 0.15264 0.35745 0.73213 0.0
N269 N 0.19414 0.40012 0.73314 0.0
N270 N 0.18845 0.36227 0.7004 0.0
C271 C 0.16806 0.38448 0.74384 0.0
C272 C 0.20451 0.38893 0.71127 0.0
C273 C 0.16276 0.34622 0.71023 0.0
C274 C 0.15626 0.39658 0.76819 0.0
C275 C 0.12673 0.3827 0.77568 0.0
C276 C 0.11551 0.39369 0.79819 0.0
C277 C 0.13339 0.41894 0.81461 0.0
C278 C 0.16305 0.43274 0.80728 0.0
C279 C 0.17413 0.42193 0.78447 0.0
C280 C 0.23312 0.4043 0.69846 0.0
C281 C 0.24724 0.43376 0.70126 0.0
C282 C 0.27275 0.44686 0.68699 0.0
C283 C 0.28514 0.43085 0.66981 0.0
C284 C 0.27102 0.4015 0.66742 0.0
C285 C 0.24579 0.38861 0.68136 0.0
C286 C 0.14696 0.31675 0.6964 0.0
C287 C 0.15507 0.3091 0.67038 0.0
Pr288 Pr 0.99701 1.00787 0.54206 0.0
Pr289 Pr 0.04136 0.02621 0.51092 0.0
C290 C 0.9561 0.98114 0.57617 0.0
C291 C 0.93035 0.95526 0.57735 0.0
C292 C 0.90976 0.95499 0.59659 0.0
C293 C 0.8856 0.9305 0.59898 0.0
C294 C 0.88155 0.90576 0.58209 0.0
C295 C 0.90209 0.9062 0.56249 0.0
C296 C 0.92629 0.93084 0.56007 0.0
C297 C 0.02973 0.06522 0.5606 0.0
C298 C 0.06234 0.99546 0.5626 0.0
C299 C 0.08283 0.0528 0.47725 0.0
C300 C 0.11105 0.07686 0.47684 0.0
C301 C 0.13481 0.07285 0.46329 0.0
C302 C 0.16101 0.0955 0.46073 0.0
C303 C 0.16394 0.1227 0.47163 0.0
C304 C 0.14041 0.12657 0.48586 0.0
C305 C 0.11418 0.1038 0.48853 0.0
C306 C 1.0086 0.96884 0.49261 0.0
C307 C 0.97564 0.03848 0.4903 0.0
O308 O 0.95064 0.99891 0.55797 0.0
O309 O 0.98394 0.9788 0.5774 0.0
O310 O 0.04292 0.04704 0.55592 0.0
O311 O 0.99978 0.0542 0.55473 0.0
O312 O 0.0736 0.01929 0.55119 0.0
O313 O 0.032 0.98318 0.55754 0.0
O314 O 0.08601 0.03225 0.49258 0.0
O315 O 0.05668 0.05798 0.47836 0.0
O316 O 0.99548 0.98715 0.49699 0.0
O317 O 0.03854 0.97978 0.49861 0.0
O318 O 0.96436 0.015 0.50226 0.0
O319 O 1.00605 0.0504 0.49464 0.0
H320 H 0.91265 0.97368 0.61012 0.0
H321 H 0.87059 0.93077 0.61464 0.0
H322 H 0.89943 0.88753 0.54906 0.0
H323 H 0.94196 0.93078 0.54496 0.0
H324 H 0.13275 0.05223 0.45407 0.0
H325 H 0.17843 0.09185 0.44926 0.0
H326 H 0.14215 0.14724 0.49468 0.0
H327 H 0.09618 0.10734 0.49927 0.0
Pr328 Pr 0.49729 0.01631 0.02917 0.0
Pr329 Pr 0.5519 1.00767 1.01149 0.0
C330 C 0.45431 0.02536 0.05819 0.0
C331 C 0.45202 0.04872 0.07633 0.0
C332 C 0.42705 0.05939 0.06894 0.0
C333 C 0.42519 0.08236 0.085 0.0
C334 C 0.4482 0.09507 0.10896 0.0
C335 C 0.47306 0.08414 0.11649 0.0
C336 C 0.475 0.06124 0.10031 0.0
C337 C 0.51801 0.05128 0.98559 0.0
C338 C 0.56767 0.05465 0.06309 0.0
C339 C 0.59511 0.99857 0.98286 0.0
C340 C 0.59738 0.97521 0.96471 0.0
C341 C 0.62238 0.96458 0.97205 0.0
C342 C 0.62421 0.94159 0.95599 0.0
C343 C 0.60112 0.92885 0.9321 0.0
C344 C 0.57624 0.93976 0.92461 0.0
C345 C 0.57433 0.96265 0.94079 0.0
C346 C 0.53149 0.97335 0.05555 0.0
C347 C 0.48179 0.96974 0.97693 0.0
O348 O 0.47412 1.0125 0.06866 0.0
O349 O 0.45422 0.0294 0.0309 0.0
O350 O 0.53558 0.04684 1.00721 0.0
O351 O 0.48897 0.03733 0.98597 0.0
O352 O 0.57894 0.04777 0.04103 0.0
O353 O 0.53803 0.04298 0.06523 0.0
O354 O 0.57546 1.01155 0.97226 0.0
O355 O 0.59493 0.99442 1.0101 0.0
O356 O 0.51376 0.97726 0.03374 0.0
O357 O 0.56047 0.98743 0.05505 0.0
O358 O 0.47001 0.97676 0.99859 0.0
O359 O 0.51159 0.98115 0.97533 0.0
H360 H 0.40917 0.05016 0.05045 0.0
H361 H 0.40598 0.09048 0.0783 0.0
H362 H 0.49095 0.09313 0.13502 0.0
H363 H 0.49458 0.05349 0.10653 0.0
H364 H 0.6403 0.97384 0.9905 0.0
H365 H 0.64343 0.93348 0.96267 0.0
H366 H 0.5583 0.93074 0.90613 0.0
H367 H 0.5547 0.97037 0.93464 0.0
Pr368 Pr 0.5319 0.5498 0.54343 0.0
Pr369 Pr 0.51311 0.48671 0.51368 0.0
C370 C 0.53437 0.60246 0.55938 0.0
C371 C 0.51204 0.61808 0.56024 0.0
C372 C 0.52307 0.64736 0.56534 0.0
C373 C 0.50205 0.66258 0.56552 0.0
C374 C 0.46962 0.64872 0.56062 0.0
C375 C 0.45868 0.61928 0.55546 0.0
C376 C 0.47975 0.60409 0.55516 0.0
C377 C 0.55454 0.51169 0.57534 0.0
C378 C 0.4628 0.50191 0.55162 0.0
C379 C 0.5131 0.43317 0.50977 0.0
C380 C 0.52598 0.41336 0.49684 0.0
C381 C 0.53937 0.41877 0.47183 0.0
C382 C 0.55565 0.40148 0.4627 0.0
C383 C 0.55917 0.379 0.47883 0.0
C384 C 0.54498 0.37335 0.50339 0.0
C385 C 0.52847 0.39034 0.51225 0.0
C386 C 0.49469 0.52235 0.47414 0.0
C387 C 0.57861 0.53584 0.50037 0.0
O388 O 0.5378 0.59493 0.53369 0.0
O389 O 0.53323 0.58284 0.57747 0.0
O390 O 0.52806 0.50668 0.55991 0.0
O391 O 0.57068 0.53821 0.57557 0.0
O392 O 0.47066 0.48203 0.53846 0.0
O393 O 0.48016 0.52886 0.55331 0.0
O394 O 0.5334 0.45279 0.52782 0.0
O395 O 0.49196 0.4418 0.49386 0.0
O396 O 0.50775 0.52827 0.5 0.0
O397 O 0.48971 0.49569 0.46762 0.0
O398 O 0.57057 0.55544 0.51379 0.0
O399 O 0.56287 0.50864 0.50034 0.0
H400 H 0.54795 0.65846 0.56919 0.0
H401 H 0.51123 0.68518 0.56998 0.0
H402 H 0.43385 0.60804 0.55136 0.0
H403 H 0.47085 0.58147 0.55088 0.0
H404 H 0.5381 0.43679 0.45998 0.0
H405 H 0.56651 0.4063 0.44373 0.0
H406 H 0.54702 0.35597 0.51599 0.0
H407 H 0.51856 0.38609 0.53181 0.0
Pr408 Pr 0.0183 0.54147 1.00754 0.0
Pr409 Pr 0.02538 0.49639 0.04364 0.0
C410 C 0.99866 0.5787 0.9756 0.0
C411 C 0.96855 0.58021 0.96095 0.0
C412 C 0.96794 0.59977 0.94032 0.0
C413 C 0.93946 0.60068 0.92531 0.0
C414 C 0.9111 0.58202 0.93076 0.0
C415 C 0.91181 0.56252 0.95167 0.0
C416 C 0.94037 0.56152 0.96657 0.0
C417 C 0.07938 0.55366 0.03766 0.0
C418 C 0.99464 0.53948 0.07224 0.0
C419 C 0.04279 0.45774 0.07498 0.0
C420 C 0.07018 0.44827 0.08237 0.0
C421 C 0.06712 0.42354 0.0965 0.0
C422 C 0.09337 0.41539 0.10601 0.0
C423 C 0.12321 0.43189 0.10154 0.0
C424 C 0.12603 0.45637 0.08663 0.0
C425 C 0.09967 0.4645 0.07709 0.0
C426 C 0.96448 0.48547 1.01351 0.0
C427 C 0.04746 0.49731 0.97886 0.0
O428 O 1.00842 0.55944 0.96484 0.0
O429 O 1.00297 0.58032 1.00367 0.0
O430 O 0.0549 0.54281 0.04798 0.0
O431 O 0.07281 0.56044 1.01168 0.0
O432 O 1.01176 0.52276 0.07867 0.0
O433 O 0.98953 0.54615 0.04521 0.0
O434 O 0.04571 0.48292 0.0854 0.0
O435 O 0.02812 0.45221 0.04845 0.0
O436 O 0.9891 0.49518 1.00313 0.0
O437 O 0.97061 0.48004 0.04011 0.0
O438 O 0.02889 0.5128 0.97247 0.0
O439 O 0.05434 0.49208 1.00614 0.0
H440 H 0.98952 0.61424 0.93569 0.0
H441 H 0.9396 0.61616 0.90958 0.0
H442 H 0.89034 0.54775 0.95612 0.0
H443 H 0.94051 0.54605 0.98228 0.0
H444 H 0.04451 0.4109 0.10087 0.0
H445 H 0.09041 0.39669 0.11782 0.0
H446 H 0.14863 0.46938 0.08262 0.0
H447 H 0.10237 0.48371 0.06615 0.0
H448 H 0.28981 0.28032 0.42443 0.0
H449 H 0.31025 0.21075 0.3853 0.0
H450 H 0.25518 0.24763 0.45191 0.0
H451 H 0.27615 0.1784 0.41282 0.0
H452 H 0.22555 0.12603 0.47617 0.0
H453 H 0.26744 0.16317 0.46052 0.0
H454 H 0.20402 0.21115 0.43893 0.0
H455 H 0.16221 0.17407 0.45458 0.0
C456 C 0.28719 0.25814 0.42189 0.0
C457 C 0.30276 0.24819 0.40255 0.0
C458 C 0.26739 0.23944 0.43765 0.0
C459 C 0.26285 0.21041 0.4345 0.0
C460 C 0.27949 0.20066 0.41614 0.0
C461 C 0.29915 0.21929 0.40035 0.0
C462 C 0.22067 0.14464 0.46834 0.0
C463 C 0.19048 0.14697 0.46631 0.0
C464 C 0.24465 0.16591 0.4594 0.0
C465 C 0.23898 0.18997 0.44821 0.0
C466 C 0.20927 0.19302 0.44772 0.0
C467 C 0.18527 0.17175 0.45668 0.0
H468 H 0.41203 0.88999 0.80774 0.0
H469 H 0.33139 0.85824 0.84937 0.0
H470 H 0.44284 0.91366 0.85295 0.0
H471 H 0.36257 0.88125 0.89527 0.0
H472 H 0.41857 0.95629 0.96107 0.0
H473 H 0.38627 0.92688 0.9189 0.0
H474 H 0.46704 0.90714 0.89872 0.0
H475 H 0.49938 0.93751 0.94004 0.0
C476 C 0.4011 0.88762 0.82679 0.0
C477 C 0.3694 0.87221 0.82513 0.0
C478 C 0.41878 0.9011 0.85279 0.0
C479 C 0.40529 0.89925 0.87789 0.0
C480 C 0.37361 0.88341 0.8763 0.0
C481 C 0.35578 0.87015 0.85011 0.0
C482 C 0.42927 0.94541 0.94773 0.0
C483 C 0.46152 0.94947 0.95353 0.0
C484 C 0.41075 0.92842 0.92363 0.0
C485 C 0.42409 0.91488 0.90515 0.0
C486 C 0.45611 0.91784 0.912 0.0
C487 C 0.47465 0.93514 0.93576 0.0
H488 H 0.54063 0.38262 0.69931 0.0
H489 H 0.6401 0.42086 0.70296 0.0
H490 H 0.53094 0.4145 0.66355 0.0
H491 H 0.63038 0.45098 0.66564 0.0
H492 H 0.60549 0.52149 0.61814 0.0
H493 H 0.61544 0.49016 0.65469 0.0
H494 H 0.53063 0.4254 0.61604 0.0
H495 H 0.51994 0.45741 0.58082 0.0
C496 C 0.56051 0.39767 0.69251 0.0
C497 C 0.59121 0.39877 0.70427 0.0
C498 C 0.55492 0.41581 0.67149 0.0
C499 C 0.57981 0.43553 0.66127 0.0
C500 C 0.61046 0.43653 0.67299 0.0
C501 C 0.61605 0.41868 0.69422 0.0
C502 C 0.58907 0.50051 0.61743 0.0
C503 C 0.56206 0.49195 0.59636 0.0
C504 C 0.59483 0.48235 0.63836 0.0
C505 C 0.5739 0.45494 0.63865 0.0
C506 C 0.54712 0.44636 0.61714 0.0
C507 C 0.54118 0.46465 0.59652 0.0
H508 H 0.96702 0.61591 0.23355 0.0
H509 H 0.87534 0.59163 0.18166 0.0
H510 H 0.98723 0.59782 0.19481 0.0
H511 H 0.89557 0.57327 0.14288 0.0
H512 H 0.9501 0.56748 0.0674 0.0
H513 H 0.92887 0.5856 0.1057 0.0
H514 H 0.98715 0.55537 0.16929 0.0
H515 H 1.00814 0.53725 0.13115 0.0
C516 C 0.95102 0.60683 0.21388 0.0
C517 C 0.91929 0.60551 0.21124 0.0
C518 C 0.96268 0.59609 0.19152 0.0
C519 C 0.9433 0.58381 0.16521 0.0
C520 C 0.91159 0.58264 0.16245 0.0
C521 C 0.89981 0.59303 0.18502 0.0
C522 C 0.95843 0.56462 0.08953 0.0
C523 C 0.98107 0.55071 0.09577 0.0
C524 C 0.94604 0.57497 0.11169 0.0
C525 C 0.9561 0.57225 0.1411 0.0
C526 C 0.97882 0.5584 0.14723 0.0
C527 C 0.99085 0.54774 0.12511 0.0
H528 H 0.39312 0.23326 0.17113 0.0
H529 H 0.47117 0.23263 0.23549 0.0
H530 H 0.40049 0.19529 0.1429 0.0
H531 H 0.47814 0.19406 0.20735 0.0
H532 H 0.49607 0.14206 0.13261 0.0
H533 H 0.49248 0.18263 0.15984 0.0
H534 H 0.39244 0.14455 0.15034 0.0
H535 H 0.39595 0.1038 0.12374 0.0
C536 C 0.41219 0.22532 0.17903 0.0
C537 C 0.4316 0.23596 0.20554 0.0
C538 C 0.41615 0.20334 0.16302 0.0
C539 C 0.43968 0.19155 0.17307 0.0
C540 C 0.45986 0.20282 0.19905 0.0
C541 C 0.45575 0.22474 0.21522 0.0
C542 C 0.47334 0.14217 0.13662 0.0
C543 C 0.44627 0.11967 0.12587 0.0
C544 C 0.47132 0.16545 0.15213 0.0
C545 C 0.44218 0.16683 0.15699 0.0
C546 C 0.41517 0.1443 0.14644 0.0
C547 C 0.4172 0.12097 0.13116 0.0
H548 H 0.20604 0.91517 0.59214 0.0
H549 H 0.14971 0.88436 0.65758 0.0
H550 H 0.17266 0.94351 0.57564 0.0
H551 H 0.1173 0.91362 0.64199 0.0
H552 H 0.04535 0.94412 0.5845 0.0
H553 H 0.07885 0.91658 0.60242 0.0
H554 H 0.16014 0.98489 0.59053 0.0
H555 H 0.1264 1.01229 0.57182 0.0
C556 C 0.18646 0.91434 0.60291 0.0
C557 C 0.18055 0.89748 0.62616 0.0
C558 C 0.16762 0.93092 0.59375 0.0
C559 C 0.14242 0.931 0.60762 0.0
C560 C 0.13635 0.91392 0.63068 0.0
C561 C 0.15513 0.89733 0.63979 0.0
C562 C 0.07039 0.95343 0.58597 0.0
C563 C 0.08321 0.98039 0.57668 0.0
C564 C 0.08963 0.93764 0.59634 0.0
C565 C 0.12219 0.94844 0.59778 0.0
C566 C 0.13511 0.97576 0.58925 0.0
C567 C 0.11581 0.99157 0.57881 0.0
H568 H 0.77681 0.38379 0.94461 0.0
H569 H 0.79945 0.44132 0.87828 0.0
H570 H 0.82648 0.40841 0.97425 0.0
H571 H 0.84832 0.46747 0.90905 0.0
H572 H 0.94936 0.48333 0.95518 0.0
H573 H 0.89786 0.4638 0.92591 0.0
H574 H 0.85662 0.44853 1.0032 0.0
H575 H 0.90851 0.46677 0.03231 0.0
C576 C 0.7923 0.4018 0.93634 0.0
C577 C 0.78417 0.41018 0.90873 0.0
C578 C 0.8207 0.41634 0.95367 0.0
C579 C 0.84167 0.44003 0.94418 0.0
C580 C 0.83308 0.44906 0.91697 0.0
C581 C 0.80477 0.43425 0.89942 0.0
C582 C 0.92923 0.47586 0.96586 0.0
C583 C 0.93293 0.47609 0.99599 0.0
C584 C 0.89959 0.46488 0.94908 0.0
C585 C 0.87289 0.45423 0.96207 0.0
C586 C 0.87662 0.4558 0.99235 0.0
C587 C 0.90634 0.46642 1.0091 0.0
H588 H 0.74082 0.55716 0.4087 0.0
H589 H 0.70631 0.62662 0.38771 0.0
H590 H 0.6994 0.53938 0.43759 0.0
H591 H 0.66536 0.60908 0.41639 0.0
H592 H 0.6153 0.58963 0.49338 0.0
H593 H 0.65663 0.60486 0.46454 0.0
H594 H 0.64425 0.51833 0.4392 0.0
H595 H 0.60298 0.50301 0.46859 0.0
C596 C 0.7243 0.56855 0.40989 0.0
C597 C 0.72761 0.59372 0.39593 0.0
C598 C 0.70041 0.55832 0.42662 0.0
C599 C 0.67893 0.57289 0.43002 0.0
C600 C 0.68172 0.59751 0.41525 0.0
C601 C 0.70543 0.60764 0.39858 0.0
C602 C 0.62136 0.5737 0.48186 0.0
C603 C 0.60542 0.54496 0.4836 0.0
C604 C 0.64511 0.58251 0.46494 0.0
C605 C 0.65402 0.56299 0.44898 0.0
C606 C 0.6385 0.53417 0.45116 0.0
C607 C 0.61459 0.52533 0.46806 0.0
H608 H 0.23136 0.35416 0.2136 0.0
H609 H 0.30466 0.4175 0.18198 0.0
H610 H 0.19215 0.36805 0.1818 0.0
H611 H 0.26513 0.43128 0.14966 0.0
H612 H 0.17973 0.467 0.12885 0.0
H613 H 0.22313 0.45374 0.15481 0.0
H614 H 0.17322 0.36635 0.12904 0.0
H615 H 0.13002 0.37954 0.10274 0.0
C616 C 0.23907 0.37117 0.19993 0.0
C617 C 0.27105 0.38491 0.20043 0.0
C618 C 0.21662 0.37888 0.18145 0.0
C619 C 0.2256 0.40061 0.16312 0.0
C620 C 0.25759 0.41449 0.16363 0.0
C621 C 0.28015 0.40656 0.18199 0.0
C622 C 0.17833 0.44502 0.12813 0.0
C623 C 0.15124 0.42428 0.11402 0.0
C624 C 0.20317 0.43745 0.14305 0.0
C625 C 0.20133 0.409 0.14424 0.0
C626 C 0.17498 0.38841 0.12892 0.0
C627 C 0.15025 0.39597 0.11391 0.0
H628 H 0.60324 0.21598 0.92698 0.0
H629 H 0.5405 0.17216 0.8507 0.0
H630 H 0.58687 0.17425 0.95331 0.0
H631 H 0.52412 0.12994 0.87715 0.0
H632 H 0.48124 0.06838 0.94316 0.0
H633 H 0.49625 0.10922 0.91487 0.0
H634 H 0.59203 0.12849 0.95716 0.0
H635 H 0.57675 0.088 0.9859 0.0
C636 C 0.58604 0.19732 0.91571 0.0
C637 C 0.57351 0.19744 0.88652 0.0
C638 C 0.57671 0.17324 0.93086 0.0
C639 C 0.55447 0.14837 0.91739 0.0
C640 C 0.5412 0.14867 0.88837 0.0
C641 C 0.55055 0.17291 0.87316 0.0
C642 C 0.50555 0.08128 0.94632 0.0
C643 C 0.52777 0.07501 0.96696 0.0
C644 C 0.5142 0.10467 0.92995 0.0
C645 C 0.54536 0.12248 0.93375 0.0
C646 C 0.5677 0.11569 0.95395 0.0
C647 C 0.55902 0.09231 0.97033 0.0
H648 H 0.91689 0.82495 0.36385 0.0
H649 H 0.95384 0.78941 0.43816 0.0
H650 H 0.93589 0.8715 0.39021 0.0
H651 H 0.97257 0.83554 0.46435 0.0
H652 H 0.03418 0.92683 0.49023 0.0
H653 H 1.01286 0.88096 0.46377 0.0
H654 H 0.92771 0.89938 0.43263 0.0
H655 H 0.9493 0.9458 0.45963 0.0
C656 C 0.92922 0.82702 0.3857 0.0
C657 C 0.93377 0.80318 0.39872 0.0
C658 C 0.93982 0.85373 0.40098 0.0
C659 C 0.95583 0.85754 0.42958 0.0
C660 C 0.96059 0.83371 0.44239 0.0
C661 C 0.94964 0.80707 0.42733 0.0
C662 C 1.0108 0.92116 0.4779 0.0
C663 C 0.99353 0.94018 0.47721 0.0
C664 C 0.99847 0.89465 0.46272 0.0
C665 C 0.96845 0.88615 0.44589 0.0
C666 C 0.951 0.90516 0.44513 0.0
C667 C 0.96326 0.93172 0.4608 0.0
H668 H 0.40502 0.78499 0.60088 0.0
H669 H 0.31902 0.71564 0.58859 0.0
H670 H 0.43189 0.7547 0.58311 0.0
H671 H 0.34575 0.68527 0.56985 0.0
H672 H 0.41773 0.63557 0.58652 0.0
H673 H 0.38443 0.66442 0.59243 0.0
H674 H 0.43801 0.72744 0.54297 0.0
H675 H 0.47149 0.69863 0.53727 0.0
C676 C 0.39173 0.76335 0.59381 0.0
C677 C 0.36003 0.75258 0.59643 0.0
C678 C 0.40706 0.74602 0.58337 0.0
C679 C 0.39104 0.71746 0.57527 0.0
C680 C 0.35884 0.70708 0.57631 0.0
C681 C 0.34345 0.72451 0.58672 0.0
C682 C 0.42203 0.65534 0.57644 0.0
C683 C 0.44746 0.66497 0.56171 0.0
C684 C 0.40286 0.67185 0.57974 0.0
C685 C 0.40865 0.69834 0.56831 0.0
C686 C 0.43324 0.70737 0.55245 0.0
C687 C 0.45245 0.69089 0.54923 0.0
H688 H 0.71337 0.7766 0.61522 0.0
H689 H 0.79336 0.76285 0.66708 0.0
H690 H 0.74825 0.81115 0.58955 0.0
H691 H 0.82804 0.7973 0.64173 0.0
H692 H 0.88586 0.85251 0.58478 0.0
H693 H 0.84732 0.81063 0.59748 0.0
H694 H 0.78347 0.85819 0.60273 0.0
H695 H 0.8214 0.89958 0.58885 0.0
C696 C 0.73836 0.78073 0.62092 0.0
C697 C 0.75058 0.76708 0.64329 0.0
C698 C 0.75834 0.80053 0.60625 0.0
C699 C 0.79096 0.80715 0.61371 0.0
C700 C 0.80306 0.79244 0.63509 0.0
C701 C 0.78312 0.77264 0.64968 0.0
C702 C 0.86329 0.85381 0.58792 0.0
C703 C 0.85682 0.87946 0.58614 0.0
C704 C 0.84132 0.82988 0.59549 0.0
C705 C 0.81242 0.8311 0.60142 0.0
C706 C 0.80536 0.85638 0.5981 0.0
C707 C 0.82728 0.88025 0.59051 0.0
H708 H 0.66013 0.18643 0.20065 0.0
H709 H 0.70208 0.12012 0.21386 0.0
H710 H 0.62995 0.16199 0.15509 0.0
H711 H 0.67285 0.09652 0.16792 0.0
H712 H 0.63139 0.07223 0.07334 0.0
H713 H 0.66596 0.10324 0.11362 0.0
H714 H 0.58588 0.11425 0.14484 0.0
H715 H 0.55123 0.08317 0.1047 0.0
C716 C 0.66317 0.16684 0.19377 0.0
C717 C 0.68334 0.15513 0.2111 0.0
C718 C 0.646 0.15297 0.16766 0.0
C719 C 0.64906 0.1274 0.15815 0.0
C720 C 0.67035 0.1164 0.17466 0.0
C721 C 0.68719 0.13003 0.20094 0.0
C722 C 0.62118 0.08151 0.08862 0.0
C723 C 0.5886 0.0751 0.08605 0.0
C724 C 0.64096 0.09916 0.11166 0.0
C725 C 0.62853 0.11104 0.13225 0.0
C726 C 0.59604 0.10552 0.12908 0.0
C727 C 0.57622 0.08756 0.10626 0.0
H728 H 0.43509 0.64892 0.37671 0.0
H729 H 0.49318 0.62304 0.3249 0.0
H730 H 0.44602 0.61809 0.4136 0.0
H731 H 0.50426 0.59228 0.36188 0.0
H732 H 0.48136 0.51425 0.4157 0.0
H733 H 0.47394 0.54786 0.3807 0.0
H734 H 0.48844 0.61066 0.44992 0.0
H735 H 0.49591 0.57684 0.485 0.0
C736 C 0.45041 0.63682 0.37328 0.0
C737 C 0.46317 0.63846 0.34773 0.0
C738 C 0.45684 0.61925 0.39455 0.0
C739 C 0.47587 0.60249 0.39071 0.0
C740 C 0.48922 0.60462 0.36545 0.0
C741 C 0.48314 0.6225 0.34435 0.0
C742 C 0.48294 0.53523 0.42348 0.0
C743 C 0.48932 0.54288 0.45317 0.0
C744 C 0.47895 0.5546 0.40338 0.0
C745 C 0.48079 0.58211 0.41239 0.0
C746 C 0.48677 0.58966 0.44217 0.0
C747 C 0.4912 0.57034 0.4623 0.0
H748 H 0.1656 0.44615 0.86764 0.0
H749 H 0.07287 0.41863 0.81768 0.0
H750 H 0.1457 0.46461 0.90655 0.0
H751 H 0.05296 0.43677 0.8566 0.0
H752 H 0.03137 0.49729 0.91989 0.0
H753 H 0.05185 0.47897 0.88147 0.0
H754 H 0.11412 0.45266 0.94474 0.0
H755 H 0.09347 0.47101 0.98329 0.0
C756 C 0.14096 0.44405 0.86473 0.0
C757 C 0.12111 0.43065 0.83899 0.0
C758 C 0.12937 0.45449 0.88739 0.0
C759 C 0.09746 0.45243 0.88524 0.0
C760 C 0.07768 0.43921 0.85942 0.0
C761 C 0.08917 0.42844 0.83695 0.0
C762 C 0.04944 0.48761 0.92579 0.0
C763 C 0.06053 0.48583 0.95512 0.0
C764 C 0.06117 0.47684 0.90353 0.0
C765 C 0.08487 0.46404 0.90947 0.0
C766 C 0.09618 0.46247 0.93886 0.0
C767 C 0.08412 0.47294 0.96118 0.0
H768 H 0.57722 0.79117 0.80556 0.0
H769 H 0.65473 0.78959 0.87006 0.0
H770 H 0.57089 0.83012 0.8336 0.0
H771 H 0.64806 0.82804 0.89818 0.0
H772 H 0.65329 0.9199 0.91731 0.0
H773 H 0.65659 0.87905 0.89071 0.0
H774 H 0.55651 0.84132 0.88128 0.0
H775 H 0.55313 0.88193 0.90855 0.0
C776 C 0.59268 0.79897 0.82583 0.0
C777 C 0.61646 0.78735 0.83562 0.0
C778 C 0.58894 0.82111 0.84193 0.0
C779 C 0.60914 0.8322 0.86795 0.0
C780 C 0.63239 0.8201 0.87804 0.0
C781 C 0.63596 0.79788 0.8621 0.0
C782 C 0.63199 0.90278 0.90991 0.0
C783 C 0.60296 0.90419 0.91522 0.0
C784 C 0.6339 0.8794 0.89462 0.0
C785 C 0.60682 0.85696 0.88407 0.0
C786 C 0.57772 0.85843 0.88898 0.0
C787 C 0.57582 0.88175 0.90451 0.0
H788 H 0.88987 0.15079 0.39631 0.0
H789 H 0.82796 0.1147 0.45606 0.0
H790 H 0.92295 0.12263 0.41331 0.0
H791 H 0.86213 0.08757 0.4743 0.0
H792 H 0.91158 0.02082 0.47908 0.0
H793 H 0.87768 0.04807 0.46035 0.0
H794 H 0.95908 0.11842 0.4533 0.0
H795 H 0.9927 0.09097 0.47099 0.0
C796 C 0.8834 0.13695 0.41323 0.0
C797 C 0.8561 0.13487 0.42466 0.0
C798 C 0.90259 0.12099 0.42321 0.0
C799 C 0.89519 0.1027 0.44512 0.0
C800 C 0.86827 0.10109 0.45707 0.0
C801 C 0.84894 0.11699 0.44694 0.0
C802 C 0.92216 0.04198 0.47316 0.0
C803 C 0.95481 0.05369 0.47644 0.0
C804 C 0.90276 0.05772 0.46273 0.0
C805 C 0.91562 0.08554 0.45548 0.0
C806 C 0.94829 0.09697 0.45829 0.0
C807 C 0.96762 0.08121 0.46852 0.0
H808 H 0.25623 0.66372 0.12308 0.0
H809 H 0.25675 0.58394 0.15594 0.0
H810 H 0.20548 0.64104 0.0938 0.0
H811 H 0.20527 0.56128 0.12683 0.0
H812 H 0.09753 0.54224 0.09281 0.0
H813 H 0.14931 0.56152 0.12253 0.0
H814 H 0.18415 0.60657 0.05123 0.0
H815 H 0.13258 0.58744 0.02169 0.0
C816 C 0.24568 0.64127 0.1239 0.0
C817 C 0.26088 0.62563 0.14163 0.0
C818 C 0.2165 0.62828 0.10712 0.0
C819 C 0.20152 0.59932 0.10775 0.0
C820 C 0.21622 0.58368 0.12598 0.0
C821 C 0.24565 0.59668 0.14269 0.0
C822 C 0.11635 0.55617 0.08352 0.0
C823 C 0.11099 0.56366 0.05508 0.0
C824 C 0.14599 0.56706 0.10045 0.0
C825 C 0.1707 0.5858 0.08931 0.0
C826 C 0.16545 0.59255 0.06058 0.0
C827 C 0.13596 0.58151 0.04362 0.0
H828 H 0.33315 0.41058 0.66126 0.0
H829 H 0.29958 0.48097 0.64238 0.0
H830 H 0.37401 0.42844 0.63259 0.0
H831 H 0.34105 0.49913 0.61356 0.0
H832 H 0.43887 0.53501 0.58364 0.0
H833 H 0.39693 0.51972 0.6124 0.0
H834 H 0.38165 0.4334 0.58396 0.0
H835 H 0.4235 0.44853 0.55572 0.0
C836 C 0.33422 0.42984 0.65085 0.0
C837 C 0.31229 0.44391 0.65405 0.0
C838 C 0.35789 0.44016 0.63421 0.0
C839 C 0.36092 0.46513 0.62003 0.0
C840 C 0.33978 0.47988 0.62404 0.0
C841 C 0.31588 0.46944 0.64073 0.0
C842 C 0.4264 0.51276 0.58329 0.0
C843 C 0.43499 0.49313 0.56716 0.0
C844 C 0.40216 0.50394 0.59984 0.0
C845 C 0.38577 0.47515 0.60107 0.0
C846 C 0.3939 0.45568 0.58431 0.0
C847 C 0.41794 0.46447 0.56773 0.0
H848 H 0.75778 0.64241 0.87357 0.0
H849 H 0.75185 0.58379 0.80276 0.0
H850 H 0.79752 0.62635 0.90184 0.0
H851 H 0.79201 0.56794 0.83108 0.0
H852 H 0.89621 0.5856 0.8731 0.0
H853 H 0.84858 0.59162 0.84691 0.0
H854 H 0.81009 0.58655 0.92562 0.0
H855 H 0.85821 0.58106 0.952 0.0
C856 C 0.76434 0.62557 0.86427 0.0
C857 C 0.7518 0.61456 0.83578 0.0
C858 C 0.78719 0.61639 0.88051 0.0
C859 C 0.7981 0.59607 0.86858 0.0
C860 C 0.78441 0.58397 0.84066 0.0
C861 C 0.76145 0.59307 0.82445 0.0
C862 C 0.87752 0.58566 0.88478 0.0
C863 C 0.88101 0.58314 0.91462 0.0
C864 C 0.85009 0.58877 0.86973 0.0
C865 C 0.82558 0.58956 0.88422 0.0
C866 C 0.82868 0.5862 0.91394 0.0
C867 C 0.8561 0.58287 0.92898 0.0
H868 H 0.43723 0.84938 0.16746 0.0
H869 H 0.51946 0.82725 0.1569 0.0
H870 H 0.45354 0.8896 0.1389 0.0
H871 H 0.53598 0.86782 0.12838 0.0
H872 H 0.569 0.95733 0.09808 0.0
H873 H 0.5543 0.91906 0.12957 0.0
H874 H 0.45786 0.89913 0.08909 0.0
H875 H 0.47264 0.93769 0.05774 0.0
C876 C 0.45885 0.85306 0.15906 0.0
C877 C 0.4768 0.8347 0.16432 0.0
C878 C 0.46817 0.87618 0.14256 0.0
C879 C 0.4959 0.8819 0.1309 0.0
C880 C 0.51456 0.86424 0.1371 0.0
C881 C 0.50513 0.84096 0.15357 0.0
C882 C 0.54462 0.94484 0.09595 0.0
C883 C 0.52199 0.95058 0.07532 0.0
C884 C 0.53621 0.92274 0.11393 0.0
C885 C 0.50488 0.90582 0.11196 0.0
C886 C 0.48218 0.91184 0.09152 0.0
C887 C 0.49063 0.93388 0.07342 0.0
H888 H 0.15161 0.23158 0.64008 0.0
H889 H 0.06275 0.22094 0.6673 0.0
H890 H 0.13071 0.18552 0.61413 0.0
H891 H 0.04232 0.17412 0.64262 0.0
H892 H 1.00215 0.10474 0.57048 0.0
H893 H 0.02441 0.1503 0.59718 0.0
H894 H 0.11398 0.13609 0.61481 0.0
H895 H 0.09148 0.09038 0.58705 0.0
C896 C 0.12755 0.21951 0.64064 0.0
C897 C 0.10892 0.23066 0.65573 0.0
C898 C 0.11561 0.19264 0.62595 0.0
C899 C 0.08454 0.17565 0.62577 0.0
C900 C 0.06615 0.18647 0.64152 0.0
C901 C 0.07808 0.21341 0.65618 0.0
C902 C 0.02665 0.11125 0.58 0.0
C903 C 0.0449 0.09362 0.57657 0.0
C904 C 0.03947 0.13751 0.59568 0.0
C905 C 0.07113 0.14728 0.60877 0.0
C906 C 0.08959 0.12972 0.60502 0.0
C907 C 0.07668 0.10333 0.58914 0.0
H908 H 0.61629 0.24455 0.41307 0.0
H909 H 0.70407 0.30482 0.45257 0.0
H910 H 0.58833 0.27516 0.42833 0.0
H911 H 0.67576 0.33518 0.46855 0.0
H912 H 0.60521 0.36554 0.51357 0.0
H913 H 0.63517 0.33527 0.50114 0.0
H914 H 0.58617 0.32356 0.41366 0.0
H915 H 0.55622 0.35387 0.4261 0.0
C916 C 0.62962 0.26428 0.42516 0.0
C917 C 0.66246 0.27245 0.43122 0.0
C918 C 0.61358 0.28178 0.43385 0.0
C919 C 0.62994 0.3077 0.44916 0.0
C920 C 0.66262 0.31527 0.45671 0.0
C921 C 0.67878 0.29783 0.44772 0.0
C922 C 0.60091 0.35648 0.49168 0.0
C923 C 0.5783 0.36185 0.47079 0.0
C924 C 0.61816 0.33935 0.48457 0.0
C925 C 0.6128 0.32695 0.45653 0.0
C926 C 0.59049 0.33263 0.43553 0.0
C927 C 0.57355 0.3501 0.44255 0.0
loop_
_geom_bond_atom_site_label_1
_geom_bond_atom_site_label_2
_geom_bond_distance
_geom_bond_site_symmetry_2
_ccdc_geom_bond_type
C0 C1 1.384 . S
C0 H13 0.947 . S
C0 C35 1.382 . S
C1 C0 1.384 . S
C1 C2 1.378 . S
C2 C1 1.378 . S
C2 C3 1.378 . S
C2 H14 0.952 . S
C3 C2 1.378 . S
C3 H15 0.950 . S
C3 C34 1.383 . S
H4 C23 0.947 . S
H5 C24 0.946 . S
H6 C26 0.953 . S
H7 C27 0.945 . S
H8 C29 0.952 . S
H9 C30 0.949 . S
H10 C32 0.950 . S
H11 C33 0.948 . S
H12 C35 0.951 . S
H13 C0 0.947 . S
H14 C2 0.952 . S
H15 C3 0.950 . S
N16 C19 1.382 . S
N16 C21 1.363 . S
N17 C19 1.371 . S
N17 C20 1.372 . S
N18 C20 1.361 . S
N18 C21 1.377 . S
C19 N16 1.382 . S
C19 N17 1.371 . S
C19 C22 1.480 . S
C20 N17 1.372 . S
C20 N18 1.361 . S
C20 C28 1.457 . S
C21 N16 1.363 . S
C21 N18 1.377 . S
C21 C34 1.479 . S
C22 C19 1.480 . S
C22 C23 1.383 . S
C22 C27 1.385 . S
C23 H4 0.947 . S
C23 C22 1.383 . S
C23 C24 1.388 . S
C24 H5 0.946 . S
C24 C23 1.388 . S
C24 C25 1.384 . S
C25 C24 1.384 . S
C25 C26 1.377 . S
C26 H6 0.953 . S
C26 C25 1.377 . S
C26 C27 1.369 . S
C27 H7 0.945 . S
C27 C22 1.385 . S
C27 C26 1.369 . S
C28 C20 1.457 . S
C28 C29 1.372 . S
C28 C33 1.364 . S
C29 H8 0.952 . S
C29 C28 1.372 . S
C29 C30 1.389 . S
C30 H9 0.949 . S
C30 C29 1.389 . S
C30 C31 1.387 . S
C31 C30 1.387 . S
C31 C32 1.372 . S
C32 H10 0.950 . S
C32 C31 1.372 . S
C32 C33 1.379 . S
C33 H11 0.948 . S
C33 C28 1.364 . S
C33 C32 1.379 . S
C34 C3 1.383 . S
C34 C21 1.479 . S
C34 C35 1.398 . S
C35 C0 1.382 . S
C35 H12 0.951 . S
C35 C34 1.398 . S
C36 C37 1.384 . S
C36 H49 0.947 . S
C36 C71 1.382 . S
C37 C36 1.384 . S
C37 C38 1.378 . S
C38 C37 1.378 . S
C38 C39 1.378 . S
C38 H50 0.952 . S
C39 C38 1.378 . S
C39 H51 0.950 . S
C39 C70 1.383 . S
H40 C59 0.947 . S
H41 C60 0.946 . S
H42 C62 0.953 . S
H43 C63 0.945 . S
H44 C65 0.952 . S
H45 C66 0.949 . S
H46 C68 0.950 . S
H47 C69 0.948 . S
H48 C71 0.951 . S
H49 C36 0.947 . S
H50 C38 0.952 . S
H51 C39 0.950 . S
N52 C55 1.382 . S
N52 C57 1.363 . S
N53 C55 1.371 . S
N53 C56 1.372 . S
N54 C56 1.361 . S
N54 C57 1.377 . S
C55 N52 1.382 . S
C55 N53 1.371 . S
C55 C58 1.480 . S
C56 N53 1.372 . S
C56 N54 1.361 . S
C56 C64 1.457 . S
C57 N52 1.363 . S
C57 N54 1.377 . S
C57 C70 1.479 . S
C58 C55 1.480 . S
C58 C59 1.383 . S
C58 C63 1.385 . S
C59 H40 0.947 . S
C59 C58 1.383 . S
C59 C60 1.388 . S
C60 H41 0.946 . S
C60 C59 1.388 . S
C60 C61 1.384 . S
C61 C60 1.384 . S
C61 C62 1.377 . S
C62 H42 0.953 . S
C62 C61 1.377 . S
C62 C63 1.369 . S
C63 H43 0.945 . S
C63 C58 1.385 . S
C63 C62 1.369 . S
C64 C56 1.457 . S
C64 C65 1.372 . S
C64 C69 1.364 . S
C65 H44 0.952 . S
C65 C64 1.372 . S
C65 C66 1.389 . S
C66 H45 0.949 . S
C66 C65 1.389 . S
C66 C67 1.387 . S
C67 C66 1.387 . S
C67 C68 1.372 . S
C68 H46 0.950 . S
C68 C67 1.372 . S
C68 C69 1.379 . S
C69 H47 0.948 . S
C69 C64 1.364 . S
C69 C68 1.379 . S
C70 C39 1.383 . S
C70 C57 1.479 . S
C70 C71 1.398 . S
C71 C36 1.382 . S
C71 H48 0.951 . S
C71 C70 1.398 . S
C72 C73 1.384 . S
C72 H85 0.947 . S
C72 C107 1.382 . S
C73 C72 1.384 . S
C73 C74 1.378 . S
C74 C73 1.378 . S
C74 C75 1.378 . S
C74 H86 0.952 . S
C75 C74 1.378 . S
C75 H87 0.950 . S
C75 C106 1.383 . S
H76 C95 0.947 . S
H77 C96 0.946 . S
H78 C98 0.953 . S
H79 C99 0.945 . S
H80 C101 0.952 . S
H81 C102 0.949 . S
H82 C104 0.950 . S
H83 C105 0.948 . S
H84 C107 0.951 . S
H85 C72 0.947 . S
H86 C74 0.952 . S
H87 C75 0.950 . S
N88 C91 1.382 . S
N88 C93 1.363 . S
N89 C91 1.371 . S
N89 C92 1.372 . S
N90 C92 1.361 . S
N90 C93 1.377 . S
C91 N88 1.382 . S
C91 N89 1.371 . S
C91 C94 1.480 . S
C92 N89 1.372 . S
C92 N90 1.361 . S
C92 C100 1.457 . S
C93 N88 1.363 . S
C93 N90 1.377 . S
C93 C106 1.479 . S
C94 C91 1.480 . S
C94 C95 1.383 . S
C94 C99 1.385 . S
C95 H76 0.947 . S
C95 C94 1.383 . S
C95 C96 1.388 . S
C96 H77 0.946 . S
C96 C95 1.388 . S
C96 C97 1.384 . S
C97 C96 1.384 . S
C97 C98 1.377 . S
C98 H78 0.953 . S
C98 C97 1.377 . S
C98 C99 1.369 . S
C99 H79 0.945 . S
C99 C94 1.385 . S
C99 C98 1.369 . S
C100 C92 1.457 . S
C100 C101 1.372 . S
C100 C105 1.364 . S
C101 H80 0.952 . S
C101 C100 1.372 . S
C101 C102 1.389 . S
C102 H81 0.949 . S
C102 C101 1.389 . S
C102 C103 1.387 . S
C103 C102 1.387 . S
C103 C104 1.372 . S
C104 H82 0.950 . S
C104 C103 1.372 . S
C104 C105 1.379 . S
C105 H83 0.948 . S
C105 C100 1.364 . S
C105 C104 1.379 . S
C106 C75 1.383 . S
C106 C93 1.479 . S
C106 C107 1.398 . S
C107 C72 1.382 . S
C107 H84 0.951 . S
C107 C106 1.398 . S
C108 C109 1.384 . S
C108 H121 0.947 . S
C108 C143 1.382 . S
C109 C108 1.384 . S
C109 C110 1.378 . S
C110 C109 1.378 . S
C110 C111 1.378 . S
C110 H122 0.952 . S
C111 C110 1.378 . S
C111 H123 0.950 . S
C111 C142 1.383 . S
H112 C131 0.947 . S
H113 C132 0.946 . S
H114 C134 0.953 . S
H115 C135 0.945 . S
H116 C137 0.952 . S
H117 C138 0.949 . S
H118 C140 0.950 . S
H119 C141 0.948 . S
H120 C143 0.951 . S
H121 C108 0.947 . S
H122 C110 0.952 . S
H123 C111 0.950 . S
N124 C127 1.382 . S
N124 C129 1.363 . S
N125 C127 1.371 . S
N125 C128 1.372 . S
N126 C128 1.361 . S
N126 C129 1.377 . S
C127 N124 1.382 . S
C127 N125 1.371 . S
C127 C130 1.480 . S
C128 N125 1.372 . S
C128 N126 1.361 . S
C128 C136 1.457 . S
C129 N124 1.363 . S
C129 N126 1.377 . S
C129 C142 1.479 . S
C130 C127 1.480 . S
C130 C131 1.383 . S
C130 C135 1.385 . S
C131 H112 0.947 . S
C131 C130 1.383 . S
C131 C132 1.388 . S
C132 H113 0.946 . S
C132 C131 1.388 . S
C132 C133 1.384 . S
C133 C132 1.384 . S
C133 C134 1.377 . S
C134 H114 0.953 . S
C134 C133 1.377 . S
C134 C135 1.369 . S
C135 H115 0.945 . S
C135 C130 1.385 . S
C135 C134 1.369 . S
C136 C128 1.457 . S
C136 C137 1.372 . S
C136 C141 1.364 . S
C137 H116 0.952 . S
C137 C136 1.372 . S
C137 C138 1.389 . S
C138 H117 0.949 . S
C138 C137 1.389 . S
C138 C139 1.387 . S
C139 C138 1.387 . S
C139 C140 1.372 . S
C140 H118 0.950 . S
C140 C139 1.372 . S
C140 C141 1.379 . S
C141 H119 0.948 . S
C141 C136 1.364 . S
C141 C140 1.379 . S
C142 C111 1.383 . S
C142 C129 1.479 . S
C142 C143 1.398 . S
C143 C108 1.382 . S
C143 H120 0.951 . S
C143 C142 1.398 . S
C144 C145 1.384 . S
C144 H157 0.947 . S
C144 C179 1.382 . S
C145 C144 1.384 . S
C145 C146 1.378 . S
C146 C145 1.378 . S
C146 C147 1.378 . S
C146 H158 0.952 . S
C147 C146 1.378 . S
C147 H159 0.950 . S
C147 C178 1.383 . S
H148 C167 0.947 . S
H149 C168 0.946 . S
H150 C170 0.953 . S
H151 C171 0.945 . S
H152 C173 0.952 . S
H153 C174 0.949 . S
H154 C176 0.950 . S
H155 C177 0.948 . S
H156 C179 0.951 . S
H157 C144 0.947 . S
H158 C146 0.952 . S
H159 C147 0.950 . S
N160 C163 1.382 . S
N160 C165 1.363 . S
N161 C163 1.371 . S
N161 C164 1.372 . S
N162 C164 1.361 . S
N162 C165 1.377 . S
C163 N160 1.382 . S
C163 N161 1.371 . S
C163 C166 1.480 . S
C164 N161 1.372 . S
C164 N162 1.361 . S
C164 C172 1.457 . S
C165 N160 1.363 . S
C165 N162 1.377 . S
C165 C178 1.479 . S
C166 C163 1.480 . S
C166 C167 1.383 . S
C166 C171 1.385 . S
C167 H148 0.947 . S
C167 C166 1.383 . S
C167 C168 1.388 . S
C168 H149 0.946 . S
C168 C167 1.388 . S
C168 C169 1.384 . S
C169 C168 1.384 . S
C169 C170 1.377 . S
C170 H150 0.953 . S
C170 C169 1.377 . S
C170 C171 1.369 . S
C171 H151 0.945 . S
C171 C166 1.385 . S
C171 C170 1.369 . S
C172 C164 1.457 . S
C172 C173 1.372 . S
C172 C177 1.364 . S
C173 H152 0.952 . S
C173 C172 1.372 . S
C173 C174 1.389 . S
C174 H153 0.949 . S
C174 C173 1.389 . S
C174 C175 1.387 . S
C175 C174 1.387 . S
C175 C176 1.372 . S
C176 H154 0.950 . S
C176 C175 1.372 . S
C176 C177 1.379 . S
C177 H155 0.948 . S
C177 C172 1.364 . S
C177 C176 1.379 . S
C178 C147 1.383 . S
C178 C165 1.479 . S
C178 C179 1.398 . S
C179 C144 1.382 . S
C179 H156 0.951 . S
C179 C178 1.398 . S
C180 C181 1.384 . S
C180 H193 0.947 . S
C180 C215 1.382 . S
C181 C180 1.384 . S
C181 C182 1.378 . S
C182 C181 1.378 . S
C182 C183 1.378 . S
C182 H194 0.952 . S
C183 C182 1.378 . S
C183 H195 0.950 . S
C183 C214 1.383 . S
H184 C203 0.947 . S
H185 C204 0.946 . S
H186 C206 0.953 . S
H187 C207 0.945 . S
H188 C209 0.952 . S
H189 C210 0.949 . S
H190 C212 0.950 . S
H191 C213 0.948 . S
H192 C215 0.951 . S
H193 C180 0.947 . S
H194 C182 0.952 . S
H195 C183 0.950 . S
N196 C199 1.382 . S
N196 C201 1.363 . S
N197 C199 1.371 . S
N197 C200 1.372 . S
N198 C200 1.361 . S
N198 C201 1.377 . S
C199 N196 1.382 . S
C199 N197 1.371 . S
C199 C202 1.480 . S
C200 N197 1.372 . S
C200 N198 1.361 . S
C200 C208 1.457 . S
C201 N196 1.363 . S
C201 N198 1.377 . S
C201 C214 1.479 . S
C202 C199 1.480 . S
C202 C203 1.383 . S
C202 C207 1.385 . S
C203 H184 0.947 . S
C203 C202 1.383 . S
C203 C204 1.388 . S
C204 H185 0.946 . S
C204 C203 1.388 . S
C204 C205 1.384 . S
C205 C204 1.384 . S
C205 C206 1.377 . S
C206 H186 0.953 . S
C206 C205 1.377 . S
C206 C207 1.369 . S
C207 H187 0.945 . S
C207 C202 1.385 . S
C207 C206 1.369 . S
C208 C200 1.457 . S
C208 C209 1.372 . S
C208 C213 1.364 . S
C209 H188 0.952 . S
C209 C208 1.372 . S
C209 C210 1.389 . S
C210 H189 0.949 . S
C210 C209 1.389 . S
C210 C211 1.387 . S
C211 C210 1.387 . S
C211 C212 1.372 . S
C212 H190 0.950 . S
C212 C211 1.372 . S
C212 C213 1.379 . S
C213 H191 0.948 . S
C213 C208 1.364 . S
C213 C212 1.379 . S
C214 C183 1.383 . S
C214 C201 1.479 . S
C214 C215 1.398 . S
C215 C180 1.382 . S
C215 H192 0.951 . S
C215 C214 1.398 . S
C216 C217 1.384 . S
C216 H229 0.947 . S
C216 C251 1.382 . S
C217 C216 1.384 . S
C217 C218 1.378 . S
C218 C217 1.378 . S
C218 C219 1.378 . S
C218 H230 0.952 . S
C219 C218 1.378 . S
C219 H231 0.950 . S
C219 C250 1.383 . S
H220 C239 0.947 . S
H221 C240 0.946 . S
H222 C242 0.953 . S
H223 C243 0.945 . S
H224 C245 0.952 . S
H225 C246 0.949 . S
H226 C248 0.950 . S
H227 C249 0.948 . S
H228 C251 0.951 . S
H229 C216 0.947 . S
H230 C218 0.952 . S
H231 C219 0.950 . S
N232 C235 1.382 . S
N232 C237 1.363 . S
N233 C235 1.371 . S
N233 C236 1.372 . S
N234 C236 1.361 . S
N234 C237 1.377 . S
C235 N232 1.382 . S
C235 N233 1.371 . S
C235 C238 1.480 . S
C236 N233 1.372 . S
C236 N234 1.361 . S
C236 C244 1.457 . S
C237 N232 1.363 . S
C237 N234 1.377 . S
C237 C250 1.479 . S
C238 C235 1.480 . S
C238 C239 1.383 . S
C238 C243 1.385 . S
C239 H220 0.947 . S
C239 C238 1.383 . S
C239 C240 1.388 . S
C240 H221 0.946 . S
C240 C239 1.388 . S
C240 C241 1.384 . S
C241 C240 1.384 . S
C241 C242 1.377 . S
C242 H222 0.953 . S
C242 C241 1.377 . S
C242 C243 1.369 . S
C243 H223 0.945 . S
C243 C238 1.385 . S
C243 C242 1.369 . S
C244 C236 1.457 . S
C244 C245 1.372 . S
C244 C249 1.364 . S
C245 H224 0.952 . S
C245 C244 1.372 . S
C245 C246 1.389 . S
C246 H225 0.949 . S
C246 C245 1.389 . S
C246 C247 1.387 . S
C247 C246 1.387 . S
C247 C248 1.372 . S
C248 H226 0.950 . S
C248 C247 1.372 . S
C248 C249 1.379 . S
C249 H227 0.948 . S
C249 C244 1.364 . S
C249 C248 1.379 . S
C250 C219 1.383 . S
C250 C237 1.479 . S
C250 C251 1.398 . S
C251 C216 1.382 . S
C251 H228 0.951 . S
C251 C250 1.398 . S
C252 C253 1.384 . S
C252 H265 0.947 . S
C252 C287 1.382 . S
C253 C252 1.384 . S
C253 C254 1.378 . S
C254 C253 1.378 . S
C254 C255 1.378 . S
C254 H266 0.952 . S
C255 C254 1.378 . S
C255 H267 0.950 . S
C255 C286 1.383 . S
H256 C275 0.947 . S
H257 C276 0.946 . S
H258 C278 0.953 . S
H259 C279 0.945 . S
H260 C281 0.952 . S
H261 C282 0.949 . S
H262 C284 0.950 . S
H263 C285 0.948 . S
H264 C287 0.951 . S
H265 C252 0.947 . S
H266 C254 0.952 . S
H267 C255 0.950 . S
N268 C271 1.382 . S
N268 C273 1.363 . S
N269 C271 1.371 . S
N269 C272 1.372 . S
N270 C272 1.361 . S
N270 C273 1.377 . S
C271 N268 1.382 . S
C271 N269 1.371 . S
C271 C274 1.480 . S
C272 N269 1.372 . S
C272 N270 1.361 . S
C272 C280 1.457 . S
C273 N268 1.363 . S
C273 N270 1.377 . S
C273 C286 1.479 . S
C274 C271 1.480 . S
C274 C275 1.383 . S
C274 C279 1.385 . S
C275 H256 0.947 . S
C275 C274 1.383 . S
C275 C276 1.388 . S
C276 H257 0.946 . S
C276 C275 1.388 . S
C276 C277 1.384 . S
C277 C276 1.384 . S
C277 C278 1.377 . S
C278 H258 0.953 . S
C278 C277 1.377 . S
C278 C279 1.369 . S
C279 H259 0.945 . S
C279 C274 1.385 . S
C279 C278 1.369 . S
C280 C272 1.457 . S
C280 C281 1.372 . S
C280 C285 1.364 . S
C281 H260 0.952 . S
C281 C280 1.372 . S
C281 C282 1.389 . S
C282 H261 0.949 . S
C282 C281 1.389 . S
C282 C283 1.387 . S
C283 C282 1.387 . S
C283 C284 1.372 . S
C284 H262 0.950 . S
C284 C283 1.372 . S
C284 C285 1.379 . S
C285 H263 0.948 . S
C285 C280 1.364 . S
C285 C284 1.379 . S
C286 C255 1.383 . S
C286 C273 1.479 . S
C286 C287 1.398 . S
C287 C252 1.382 . S
C287 H264 0.951 . S
C287 C286 1.398 . S
Pr288 C290 2.880 . S
Pr288 O308 2.562 . S
Pr288 O309 2.490 . S
Pr288 O310 2.695 1_665 S
Pr288 O311 2.512 1_665 S
Pr288 O313 2.437 1_655 S
Pr288 O316 2.436 . S
Pr288 O318 2.438 1_565 S
Pr289 C299 2.880 . S
Pr289 O310 2.436 . S
Pr289 O312 2.438 1_545 S
Pr289 O314 2.562 . S
Pr289 O315 2.490 . S
Pr289 O316 2.695 1_445 S
Pr289 O317 2.518 1_545 S
Pr289 O319 2.437 1_455 S
C290 Pr288 2.880 . S
C290 C291 1.491 . S
C290 O308 1.254 . S
C290 O309 1.225 . S
C291 C290 1.491 . S
C291 C292 1.392 . S
C291 C296 1.356 . S
C292 C291 1.392 . S
C292 C293 1.368 . S
C292 H320 0.929 . S
C293 C292 1.368 . S
C293 C294 1.386 . S
C293 H321 0.929 . S
C294 C293 1.386 . S
C294 C295 1.373 . S
C295 C294 1.373 . S
C295 C296 1.409 . S
C295 H322 0.931 . S
C296 C291 1.356 . S
C296 C295 1.409 . S
C296 H323 0.930 . S
C297 O310 1.270 . S
C297 O311 1.248 . S
C298 O312 1.267 . S
C298 O313 1.278 . S
C299 Pr289 2.880 . S
C299 C300 1.491 . S
C299 O314 1.254 . S
C299 O315 1.225 . S
C300 C299 1.491 . S
C300 C301 1.392 . S
C300 C305 1.356 . S
C301 C300 1.392 . S
C301 C302 1.368 . S
C301 H324 0.929 . S
C302 C301 1.368 . S
C302 C303 1.386 . S
C302 H325 0.929 . S
C303 C302 1.386 . S
C303 C304 1.373 . S
C304 C303 1.373 . S
C304 C305 1.409 . S
C304 H326 0.931 . S
C305 C300 1.356 . S
C305 C304 1.409 . S
C305 H327 0.930 . S
C306 O316 1.270 . S
C306 O317 1.233 1_655 S
C307 O318 1.267 . S
C307 O319 1.278 . S
O308 Pr288 2.562 . S
O308 C290 1.254 . S
O309 Pr288 2.490 . S
O309 C290 1.225 . S
O310 Pr288 2.695 1_445 S
O310 Pr289 2.436 . S
O310 C297 1.270 . S
O311 Pr288 2.512 1_445 S
O311 C297 1.248 . S
O312 Pr289 2.438 1_565 S
O312 C298 1.267 . S
O313 Pr288 2.437 1_455 S
O313 C298 1.278 . S
O314 Pr289 2.562 . S
O314 C299 1.254 . S
O315 Pr289 2.490 . S
O315 C299 1.225 . S
O316 Pr288 2.436 . S
O316 Pr289 2.695 1_665 S
O316 C306 1.270 . S
O317 Pr289 2.518 1_565 S
O317 C306 1.233 1_455 S
O318 Pr288 2.438 1_545 S
O318 C307 1.267 . S
O319 Pr289 2.437 1_655 S
O319 C307 1.278 . S
H320 C292 0.929 . S
H321 C293 0.929 . S
H322 C295 0.931 . S
H323 C296 0.930 . S
H324 C301 0.929 . S
H325 C302 0.929 . S
H326 C304 0.931 . S
H327 C305 0.930 . S
Pr328 C330 2.891 . S
Pr328 O348 2.577 . S
Pr328 O349 2.496 . S
Pr328 O350 2.686 1_554 S
Pr328 O351 2.502 1_554 S
Pr328 O353 2.444 . S
Pr328 O356 2.442 1_545 S
Pr328 O358 2.427 1_544 S
Pr329 C339 2.880 1_554 S
Pr329 O350 2.436 1_564 S
Pr329 O352 2.438 1_565 S
Pr329 O354 2.562 1_554 S
Pr329 O355 2.490 1_554 S
Pr329 O356 2.695 . S
Pr329 O357 2.512 . S
Pr329 O359 2.437 1_554 S
C330 Pr328 2.891 . S
C330 C331 1.491 . S
C330 O348 1.254 . S
C330 O349 1.225 . S
C331 C330 1.491 . S
C331 C332 1.392 . S
C331 C336 1.356 . S
C332 C331 1.392 . S
C332 C333 1.368 . S
C332 H360 0.929 . S
C333 C332 1.368 . S
C333 C334 1.386 . S
C333 H361 0.929 . S
C334 C333 1.386 . S
C334 C335 1.373 . S
C335 C334 1.373 . S
C335 C336 1.409 . S
C335 H362 0.931 . S
C336 C331 1.356 . S
C336 C335 1.409 . S
C336 H363 0.930 . S
C337 O350 1.270 . S
C337 O351 1.248 . S
C338 O352 1.267 . S
C338 O353 1.278 . S
C339 Pr329 2.880 1_556 S
C339 C340 1.491 . S
C339 O354 1.254 . S
C339 O355 1.225 . S
C340 C339 1.491 . S
C340 C341 1.392 . S
C340 C345 1.356 . S
C341 C340 1.392 . S
C341 C342 1.368 . S
C341 H364 0.929 . S
C342 C341 1.368 . S
C342 C343 1.386 . S
C342 H365 0.929 . S
C343 C342 1.386 . S
C343 C344 1.373 . S
C344 C343 1.373 . S
C344 C345 1.409 . S
C344 H366 0.931 . S
C345 C340 1.356 . S
C345 C344 1.409 . S
C345 H367 0.930 . S
C346 O356 1.270 . S
C346 O357 1.248 . S
C347 O358 1.267 . S
C347 O359 1.278 . S
O348 Pr328 2.577 . S
O348 C330 1.254 . S
O349 Pr328 2.496 . S
O349 C330 1.225 . S
O350 Pr328 2.686 1_556 S
O350 Pr329 2.436 1_546 S
O350 C337 1.270 . S
O351 Pr328 2.502 1_556 S
O351 C337 1.248 . S
O352 Pr329 2.438 1_545 S
O352 C338 1.267 . S
O353 Pr328 2.444 . S
O353 C338 1.278 . S
O354 Pr329 2.562 1_556 S
O354 C339 1.254 . S
O355 Pr329 2.490 1_556 S
O355 C339 1.225 . S
O356 Pr328 2.442 1_565 S
O356 Pr329 2.695 . S
O356 C346 1.270 . S
O357 Pr329 2.512 . S
O357 C346 1.248 . S
O358 Pr328 2.427 1_566 S
O358 C347 1.267 . S
O359 Pr329 2.437 1_556 S
O359 C347 1.278 . S
H360 C332 0.929 . S
H361 C333 0.929 . S
H362 C335 0.931 . S
H363 C336 0.930 . S
H364 C341 0.929 . S
H365 C342 0.929 . S
H366 C344 0.931 . S
H367 C345 0.930 . S
Pr368 C370 2.880 . S
Pr368 O388 2.562 . S
Pr368 O389 2.490 . S
Pr368 O390 2.695 . S
Pr368 O391 2.512 . S
Pr368 O393 2.437 . S
Pr368 O396 2.436 . S
Pr368 O398 2.438 . S
Pr369 C379 2.880 . S
Pr369 O390 2.436 . S
Pr369 O392 2.438 . S
Pr369 O394 2.562 . S
Pr369 O395 2.490 . S
Pr369 O396 2.695 . S
Pr369 O397 2.512 . S
Pr369 O399 2.437 . S
C370 Pr368 2.880 . S
C370 C371 1.491 . S
C370 O388 1.254 . S
C370 O389 1.225 . S
C371 C370 1.491 . S
C371 C372 1.392 . S
C371 C376 1.356 . S
C372 C371 1.392 . S
C372 C373 1.368 . S
C372 H400 0.929 . S
C373 C372 1.368 . S
C373 C374 1.386 . S
C373 H401 0.929 . S
C374 C373 1.386 . S
C374 C375 1.373 . S
C375 C374 1.373 . S
C375 C376 1.409 . S
C375 H402 0.931 . S
C376 C371 1.356 . S
C376 C375 1.409 . S
C376 H403 0.930 . S
C377 O390 1.270 . S
C377 O391 1.248 . S
C378 O392 1.267 . S
C378 O393 1.278 . S
C379 Pr369 2.880 . S
C379 C380 1.491 . S
C379 O394 1.254 . S
C379 O395 1.225 . S
C380 C379 1.491 . S
C380 C381 1.392 . S
C380 C385 1.356 . S
C381 C380 1.392 . S
C381 C382 1.368 . S
C381 H404 0.929 . S
C382 C381 1.368 . S
C382 C383 1.386 . S
C382 H405 0.929 . S
C383 C382 1.386 . S
C383 C384 1.373 . S
C384 C383 1.373 . S
C384 C385 1.409 . S
C384 H406 0.931 . S
C385 C380 1.356 . S
C385 C384 1.409 . S
C385 H407 0.930 . S
C386 O396 1.270 . S
C386 O397 1.248 . S
C387 O398 1.267 . S
C387 O399 1.278 . S
O388 Pr368 2.562 . S
O388 C370 1.254 . S
O389 Pr368 2.490 . S
O389 C370 1.225 . S
O390 Pr368 2.695 . S
O390 Pr369 2.436 . S
O390 C377 1.270 . S
O391 Pr368 2.512 . S
O391 C377 1.248 . S
O392 Pr369 2.438 . S
O392 C378 1.267 . S
O393 Pr368 2.437 . S
O393 C378 1.278 . S
O394 Pr369 2.562 . S
O394 C379 1.254 . S
O395 Pr369 2.490 . S
O395 C379 1.225 . S
O396 Pr368 2.436 . S
O396 Pr369 2.695 . S
O396 C386 1.270 . S
O397 Pr369 2.512 . S
O397 C386 1.248 . S
O398 Pr368 2.438 . S
O398 C387 1.267 . S
O399 Pr369 2.437 . S
O399 C387 1.278 . S
H400 C372 0.929 . S
H401 C373 0.929 . S
H402 C375 0.931 . S
H403 C376 0.930 . S
H404 C381 0.929 . S
H405 C382 0.929 . S
H406 C384 0.931 . S
H407 C385 0.930 . S
Pr408 C410 2.871 1_455 S
Pr408 O428 2.551 1_455 S
Pr408 O429 2.485 1_455 S
Pr408 O430 2.702 1_556 S
Pr408 O431 2.519 1_556 S
Pr408 O433 2.430 1_456 S
Pr408 O436 2.431 1_455 S
Pr408 O438 2.448 . S
Pr409 C419 2.880 . S
Pr409 O430 2.436 . S
Pr409 O432 2.438 1_455 S
Pr409 O434 2.562 . S
Pr409 O435 2.490 . S
Pr409 O436 2.695 1_454 S
Pr409 O437 2.512 1_454 S
Pr409 O439 2.437 1_554 S
C410 Pr408 2.871 1_655 S
C410 C411 1.491 . S
C410 O428 1.254 . S
C410 O429 1.225 . S
C411 C410 1.491 . S
C411 C412 1.392 . S
C411 C416 1.356 . S
C412 C411 1.392 . S
C412 C413 1.368 . S
C412 H440 0.929 . S
C413 C412 1.368 . S
C413 C414 1.386 . S
C413 H441 0.929 . S
C414 C413 1.386 . S
C414 C415 1.373 . S
C415 C414 1.373 . S
C415 C416 1.409 . S
C415 H442 0.931 . S
C416 C411 1.356 . S
C416 C415 1.409 . S
C416 H443 0.930 . S
C417 O430 1.270 . S
C417 O431 1.248 . S
C418 O432 1.267 . S
C418 O433 1.278 . S
C419 Pr409 2.880 . S
C419 C420 1.491 . S
C419 O434 1.254 . S
C419 O435 1.225 . S
C420 C419 1.491 . S
C420 C421 1.392 . S
C420 C425 1.356 . S
C421 C420 1.392 . S
C421 C422 1.368 . S
C421 H444 0.929 . S
C422 C421 1.368 . S
C422 C423 1.386 . S
C422 H445 0.929 . S
C423 C422 1.386 . S
C423 C424 1.373 . S
C424 C423 1.373 . S
C424 C425 1.409 . S
C424 H446 0.931 . S
C425 C420 1.356 . S
C425 C424 1.409 . S
C425 H447 0.930 . S
C426 O436 1.270 . S
C426 O437 1.248 . S
C427 O438 1.267 . S
C427 O439 1.278 . S
O428 Pr408 2.551 1_655 S
O428 C410 1.254 . S
O429 Pr408 2.485 1_655 S
O429 C410 1.225 . S
O430 Pr408 2.702 1_554 S
O430 Pr409 2.436 . S
O430 C417 1.270 . S
O431 Pr408 2.519 1_554 S
O431 C417 1.248 . S
O432 Pr409 2.438 1_655 S
O432 C418 1.267 . S
O433 Pr408 2.430 1_654 S
O433 C418 1.278 . S
O434 Pr409 2.562 . S
O434 C419 1.254 . S
O435 Pr409 2.490 . S
O435 C419 1.225 . S
O436 Pr408 2.431 1_655 S
O436 Pr409 2.695 1_656 S
O436 C426 1.270 . S
O437 Pr409 2.512 1_656 S
O437 C426 1.248 . S
O438 Pr408 2.448 . S
O438 C427 1.267 . S
O439 Pr409 2.437 1_556 S
O439 C427 1.278 . S
H440 C412 0.929 . S
H441 C413 0.929 . S
H442 C415 0.931 . S
H443 C416 0.930 . S
H444 C421 0.929 . S
H445 C422 0.929 . S
H446 C424 0.931 . S
H447 C425 0.930 . S
H448 C456 0.950 . S
H449 C461 0.950 . S
H450 C458 0.950 . S
H451 C460 0.950 . S
H452 C462 0.950 . S
H453 C464 0.950 . S
H454 C466 0.950 . S
H455 C467 0.950 . S
C456 H448 0.950 . S
C456 C457 1.386 . S
C456 C458 1.391 . S
C457 C456 1.386 . S
C457 C461 1.393 . S
C458 H450 0.950 . S
C458 C456 1.391 . S
C458 C459 1.400 . S
C459 C458 1.400 . S
C459 C460 1.398 . S
C459 C465 1.491 . S
C460 H451 0.950 . S
C460 C459 1.398 . S
C460 C461 1.391 . S
C461 H449 0.950 . S
C461 C457 1.393 . S
C461 C460 1.391 . S
C462 H452 0.950 . S
C462 C463 1.386 . S
C462 C464 1.391 . S
C463 C462 1.386 . S
C463 C467 1.393 . S
C464 H453 0.950 . S
C464 C462 1.391 . S
C464 C465 1.400 . S
C465 C459 1.491 . S
C465 C464 1.400 . S
C465 C466 1.398 . S
C466 H454 0.950 . S
C466 C465 1.398 . S
C466 C467 1.391 . S
C467 H455 0.950 . S
C467 C463 1.393 . S
C467 C466 1.391 . S
H468 C476 0.950 . S
H469 C481 0.950 . S
H470 C478 0.950 . S
H471 C480 0.950 . S
H472 C482 0.950 . S
H473 C484 0.950 . S
H474 C486 0.950 . S
H475 C487 0.950 . S
C476 H468 0.950 . S
C476 C477 1.386 . S
C476 C478 1.391 . S
C477 C476 1.386 . S
C477 C481 1.393 . S
C478 H470 0.950 . S
C478 C476 1.391 . S
C478 C479 1.400 . S
C479 C478 1.400 . S
C479 C480 1.398 . S
C479 C485 1.491 . S
C480 H471 0.950 . S
C480 C479 1.398 . S
C480 C481 1.391 . S
C481 H469 0.950 . S
C481 C477 1.393 . S
C481 C480 1.391 . S
C482 H472 0.950 . S
C482 C483 1.386 . S
C482 C484 1.391 . S
C483 C482 1.386 . S
C483 C487 1.393 . S
C484 H473 0.950 . S
C484 C482 1.391 . S
C484 C485 1.400 . S
C485 C479 1.491 . S
C485 C484 1.400 . S
C485 C486 1.398 . S
C486 H474 0.950 . S
C486 C485 1.398 . S
C486 C487 1.391 . S
C487 H475 0.950 . S
C487 C483 1.393 . S
C487 C486 1.391 . S
H488 C496 0.950 . S
H489 C501 0.950 . S
H490 C498 0.950 . S
H491 C500 0.950 . S
H492 C502 0.950 . S
H493 C504 0.950 . S
H494 C506 0.950 . S
H495 C507 0.950 . S
C496 H488 0.950 . S
C496 C497 1.386 . S
C496 C498 1.391 . S
C497 C496 1.386 . S
C497 C501 1.393 . S
C498 H490 0.950 . S
C498 C496 1.391 . S
C498 C499 1.400 . S
C499 C498 1.400 . S
C499 C500 1.398 . S
C499 C505 1.491 . S
C500 H491 0.950 . S
C500 C499 1.398 . S
C500 C501 1.391 . S
C501 H489 0.950 . S
C501 C497 1.393 . S
C501 C500 1.391 . S
C502 H492 0.950 . S
C502 C503 1.386 . S
C502 C504 1.391 . S
C503 C502 1.386 . S
C503 C507 1.393 . S
C504 H493 0.950 . S
C504 C502 1.391 . S
C504 C505 1.400 . S
C505 C499 1.491 . S
C505 C504 1.400 . S
C505 C506 1.398 . S
C506 H494 0.950 . S
C506 C505 1.398 . S
C506 C507 1.391 . S
C507 H495 0.950 . S
C507 C503 1.393 . S
C507 C506 1.391 . S
H508 C516 0.950 . S
H509 C521 0.950 . S
H510 C518 0.950 . S
H511 C520 0.950 . S
H512 C522 0.950 . S
H513 C524 0.950 . S
H514 C526 0.950 . S
H515 C527 0.950 . S
C516 H508 0.950 . S
C516 C517 1.386 . S
C516 C518 1.391 . S
C517 C516 1.386 . S
C517 C521 1.393 . S
C518 H510 0.950 . S
C518 C516 1.391 . S
C518 C519 1.400 . S
C519 C518 1.400 . S
C519 C520 1.398 . S
C519 C525 1.491 . S
C520 H511 0.950 . S
C520 C519 1.398 . S
C520 C521 1.391 . S
C521 H509 0.950 . S
C521 C517 1.393 . S
C521 C520 1.391 . S
C522 H512 0.950 . S
C522 C523 1.386 . S
C522 C524 1.391 . S
C523 C522 1.386 . S
C523 C527 1.393 . S
C524 H513 0.950 . S
C524 C522 1.391 . S
C524 C525 1.400 . S
C525 C519 1.491 . S
C525 C524 1.400 . S
C525 C526 1.398 . S
C526 H514 0.950 . S
C526 C525 1.398 . S
C526 C527 1.391 . S
C527 H515 0.950 . S
C527 C523 1.393 . S
C527 C526 1.391 . S
H528 C536 0.950 . S
H529 C541 0.950 . S
H530 C538 0.950 . S
H531 C540 0.950 . S
H532 C542 0.950 . S
H533 C544 0.950 . S
H534 C546 0.950 . S
H535 C547 0.950 . S
C536 H528 0.950 . S
C536 C537 1.386 . S
C536 C538 1.391 . S
C537 C536 1.386 . S
C537 C541 1.393 . S
C538 H530 0.950 . S
C538 C536 1.391 . S
C538 C539 1.400 . S
C539 C538 1.400 . S
C539 C540 1.398 . S
C539 C545 1.491 . S
C540 H531 0.950 . S
C540 C539 1.398 . S
C540 C541 1.391 . S
C541 H529 0.950 . S
C541 C537 1.393 . S
C541 C540 1.391 . S
C542 H532 0.950 . S
C542 C543 1.386 . S
C542 C544 1.391 . S
C543 C542 1.386 . S
C543 C547 1.393 . S
C544 H533 0.950 . S
C544 C542 1.391 . S
C544 C545 1.400 . S
C545 C539 1.491 . S
C545 C544 1.400 . S
C545 C546 1.398 . S
C546 H534 0.950 . S
C546 C545 1.398 . S
C546 C547 1.391 . S
C547 H535 0.950 . S
C547 C543 1.393 . S
C547 C546 1.391 . S
H548 C556 0.950 . S
H549 C561 0.950 . S
H550 C558 0.950 . S
H551 C560 0.950 . S
H552 C562 0.950 . S
H553 C564 0.950 . S
H554 C566 0.950 . S
H555 C567 0.950 . S
C556 H548 0.950 . S
C556 C557 1.386 . S
C556 C558 1.391 . S
C557 C556 1.386 . S
C557 C561 1.393 . S
C558 H550 0.950 . S
C558 C556 1.391 . S
C558 C559 1.400 . S
C559 C558 1.400 . S
C559 C560 1.398 . S
C559 C565 1.491 . S
C560 H551 0.950 . S
C560 C559 1.398 . S
C560 C561 1.391 . S
C561 H549 0.950 . S
C561 C557 1.393 . S
C561 C560 1.391 . S
C562 H552 0.950 . S
C562 C563 1.386 . S
C562 C564 1.391 . S
C563 C562 1.386 . S
C563 C567 1.393 . S
C564 H553 0.950 . S
C564 C562 1.391 . S
C564 C565 1.400 . S
C565 C559 1.491 . S
C565 C564 1.400 . S
C565 C566 1.398 . S
C566 H554 0.950 . S
C566 C565 1.398 . S
C566 C567 1.391 . S
C567 H555 0.950 . S
C567 C563 1.393 . S
C567 C566 1.391 . S
H568 C576 0.950 . S
H569 C581 0.950 . S
H570 C578 0.950 . S
H571 C580 0.950 . S
H572 C582 0.950 . S
H573 C584 0.950 . S
H574 C586 0.950 . S
H575 C587 0.950 . S
C576 H568 0.950 . S
C576 C577 1.386 . S
C576 C578 1.391 . S
C577 C576 1.386 . S
C577 C581 1.393 . S
C578 H570 0.950 . S
C578 C576 1.391 . S
C578 C579 1.400 . S
C579 C578 1.400 . S
C579 C580 1.398 . S
C579 C585 1.491 . S
C580 H571 0.950 . S
C580 C579 1.398 . S
C580 C581 1.391 . S
C581 H569 0.950 . S
C581 C577 1.393 . S
C581 C580 1.391 . S
C582 H572 0.950 . S
C582 C583 1.386 . S
C582 C584 1.391 . S
C583 C582 1.386 . S
C583 C587 1.393 . S
C584 H573 0.950 . S
C584 C582 1.391 . S
C584 C585 1.400 . S
C585 C579 1.491 . S
C585 C584 1.400 . S
C585 C586 1.398 . S
C586 H574 0.950 . S
C586 C585 1.398 . S
C586 C587 1.391 . S
C587 H575 0.950 . S
C587 C583 1.393 . S
C587 C586 1.391 . S
H588 C596 0.950 . S
H589 C601 0.950 . S
H590 C598 0.950 . S
H591 C600 0.950 . S
H592 C602 0.950 . S
H593 C604 0.950 . S
H594 C606 0.950 . S
H595 C607 0.950 . S
C596 H588 0.950 . S
C596 C597 1.386 . S
C596 C598 1.391 . S
C597 C596 1.386 . S
C597 C601 1.393 . S
C598 H590 0.950 . S
C598 C596 1.391 . S
C598 C599 1.400 . S
C599 C598 1.400 . S
C599 C600 1.398 . S
C599 C605 1.491 . S
C600 H591 0.950 . S
C600 C599 1.398 . S
C600 C601 1.391 . S
C601 H589 0.950 . S
C601 C597 1.393 . S
C601 C600 1.391 . S
C602 H592 0.950 . S
C602 C603 1.386 . S
C602 C604 1.391 . S
C603 C602 1.386 . S
C603 C607 1.393 . S
C604 H593 0.950 . S
C604 C602 1.391 . S
C604 C605 1.400 . S
C605 C599 1.491 . S
C605 C604 1.400 . S
C605 C606 1.398 . S
C606 H594 0.950 . S
C606 C605 1.398 . S
C606 C607 1.391 . S
C607 H595 0.950 . S
C607 C603 1.393 . S
C607 C606 1.391 . S
H608 C616 0.950 . S
H609 C621 0.950 . S
H610 C618 0.950 . S
H611 C620 0.950 . S
H612 C622 0.950 . S
H613 C624 0.950 . S
H614 C626 0.950 . S
H615 C627 0.950 . S
C616 H608 0.950 . S
C616 C617 1.386 . S
C616 C618 1.391 . S
C617 C616 1.386 . S
C617 C621 1.393 . S
C618 H610 0.950 . S
C618 C616 1.391 . S
C618 C619 1.400 . S
C619 C618 1.400 . S
C619 C620 1.398 . S
C619 C625 1.491 . S
C620 H611 0.950 . S
C620 C619 1.398 . S
C620 C621 1.391 . S
C621 H609 0.950 . S
C621 C617 1.393 . S
C621 C620 1.391 . S
C622 H612 0.950 . S
C622 C623 1.386 . S
C622 C624 1.391 . S
C623 C622 1.386 . S
C623 C627 1.393 . S
C624 H613 0.950 . S
C624 C622 1.391 . S
C624 C625 1.400 . S
C625 C619 1.491 . S
C625 C624 1.400 . S
C625 C626 1.398 . S
C626 H614 0.950 . S
C626 C625 1.398 . S
C626 C627 1.391 . S
C627 H615 0.950 . S
C627 C623 1.393 . S
C627 C626 1.391 . S
H628 C636 0.950 . S
H629 C641 0.950 . S
H630 C638 0.950 . S
H631 C640 0.950 . S
H632 C642 0.950 . S
H633 C644 0.950 . S
H634 C646 0.950 . S
H635 C647 0.950 . S
C636 H628 0.950 . S
C636 C637 1.386 . S
C636 C638 1.391 . S
C637 C636 1.386 . S
C637 C641 1.393 . S
C638 H630 0.950 . S
C638 C636 1.391 . S
C638 C639 1.400 . S
C639 C638 1.400 . S
C639 C640 1.398 . S
C639 C645 1.491 . S
C640 H631 0.950 . S
C640 C639 1.398 . S
C640 C641 1.391 . S
C641 H629 0.950 . S
C641 C637 1.393 . S
C641 C640 1.391 . S
C642 H632 0.950 . S
C642 C643 1.386 . S
C642 C644 1.391 . S
C643 C642 1.386 . S
C643 C647 1.393 . S
C644 H633 0.950 . S
C644 C642 1.391 . S
C644 C645 1.400 . S
C645 C639 1.491 . S
C645 C644 1.400 . S
C645 C646 1.398 . S
C646 H634 0.950 . S
C646 C645 1.398 . S
C646 C647 1.391 . S
C647 H635 0.950 . S
C647 C643 1.393 . S
C647 C646 1.391 . S
H648 C656 0.950 . S
H649 C661 0.950 . S
H650 C658 0.950 . S
H651 C660 0.950 . S
H652 C662 0.950 . S
H653 C664 0.950 . S
H654 C666 0.950 . S
H655 C667 0.950 . S
C656 H648 0.950 . S
C656 C657 1.386 . S
C656 C658 1.391 . S
C657 C656 1.386 . S
C657 C661 1.393 . S
C658 H650 0.950 . S
C658 C656 1.391 . S
C658 C659 1.400 . S
C659 C658 1.400 . S
C659 C660 1.398 . S
C659 C665 1.491 . S
C660 H651 0.950 . S
C660 C659 1.398 . S
C660 C661 1.391 . S
C661 H649 0.950 . S
C661 C657 1.393 . S
C661 C660 1.391 . S
C662 H652 0.950 . S
C662 C663 1.386 . S
C662 C664 1.391 . S
C663 C662 1.386 . S
C663 C667 1.393 . S
C664 H653 0.950 . S
C664 C662 1.391 . S
C664 C665 1.400 . S
C665 C659 1.491 . S
C665 C664 1.400 . S
C665 C666 1.398 . S
C666 H654 0.950 . S
C666 C665 1.398 . S
C666 C667 1.391 . S
C667 H655 0.950 . S
C667 C663 1.393 . S
C667 C666 1.391 . S
H668 C676 0.950 . S
H669 C681 0.950 . S
H670 C678 0.950 . S
H671 C680 0.950 . S
H672 C682 0.950 . S
H673 C684 0.950 . S
H674 C686 0.950 . S
H675 C687 0.950 . S
C676 H668 0.950 . S
C676 C677 1.386 . S
C676 C678 1.391 . S
C677 C676 1.386 . S
C677 C681 1.393 . S
C678 H670 0.950 . S
C678 C676 1.391 . S
C678 C679 1.400 . S
C679 C678 1.400 . S
C679 C680 1.398 . S
C679 C685 1.491 . S
C680 H671 0.950 . S
C680 C679 1.398 . S
C680 C681 1.391 . S
C681 H669 0.950 . S
C681 C677 1.393 . S
C681 C680 1.391 . S
C682 H672 0.950 . S
C682 C683 1.386 . S
C682 C684 1.391 . S
C683 C682 1.386 . S
C683 C687 1.393 . S
C684 H673 0.950 . S
C684 C682 1.391 . S
C684 C685 1.400 . S
C685 C679 1.491 . S
C685 C684 1.400 . S
C685 C686 1.398 . S
C686 H674 0.950 . S
C686 C685 1.398 . S
C686 C687 1.391 . S
C687 H675 0.950 . S
C687 C683 1.393 . S
C687 C686 1.391 . S
H688 C696 0.950 . S
H689 C701 0.950 . S
H690 C698 0.950 . S
H691 C700 0.950 . S
H692 C702 0.950 . S
H693 C704 0.950 . S
H694 C706 0.950 . S
H695 C707 0.950 . S
C696 H688 0.950 . S
C696 C697 1.386 . S
C696 C698 1.391 . S
C697 C696 1.386 . S
C697 C701 1.393 . S
C698 H690 0.950 . S
C698 C696 1.391 . S
C698 C699 1.400 . S
C699 C698 1.400 . S
C699 C700 1.398 . S
C699 C705 1.491 . S
C700 H691 0.950 . S
C700 C699 1.398 . S
C700 C701 1.391 . S
C701 H689 0.950 . S
C701 C697 1.393 . S
C701 C700 1.391 . S
C702 H692 0.950 . S
C702 C703 1.386 . S
C702 C704 1.391 . S
C703 C702 1.386 . S
C703 C707 1.393 . S
C704 H693 0.950 . S
C704 C702 1.391 . S
C704 C705 1.400 . S
C705 C699 1.491 . S
C705 C704 1.400 . S
C705 C706 1.398 . S
C706 H694 0.950 . S
C706 C705 1.398 . S
C706 C707 1.391 . S
C707 H695 0.950 . S
C707 C703 1.393 . S
C707 C706 1.391 . S
H708 C716 0.950 . S
H709 C721 0.950 . S
H710 C718 0.950 . S
H711 C720 0.950 . S
H712 C722 0.950 . S
H713 C724 0.950 . S
H714 C726 0.950 . S
H715 C727 0.950 . S
C716 H708 0.950 . S
C716 C717 1.386 . S
C716 C718 1.391 . S
C717 C716 1.386 . S
C717 C721 1.393 . S
C718 H710 0.950 . S
C718 C716 1.391 . S
C718 C719 1.400 . S
C719 C718 1.400 . S
C719 C720 1.398 . S
C719 C725 1.491 . S
C720 H711 0.950 . S
C720 C719 1.398 . S
C720 C721 1.391 . S
C721 H709 0.950 . S
C721 C717 1.393 . S
C721 C720 1.391 . S
C722 H712 0.950 . S
C722 C723 1.386 . S
C722 C724 1.391 . S
C723 C722 1.386 . S
C723 C727 1.393 . S
C724 H713 0.950 . S
C724 C722 1.391 . S
C724 C725 1.400 . S
C725 C719 1.491 . S
C725 C724 1.400 . S
C725 C726 1.398 . S
C726 H714 0.950 . S
C726 C725 1.398 . S
C726 C727 1.391 . S
C727 H715 0.950 . S
C727 C723 1.393 . S
C727 C726 1.391 . S
H728 C736 0.950 . S
H729 C741 0.950 . S
H730 C738 0.950 . S
H731 C740 0.950 . S
H732 C742 0.950 . S
H733 C744 0.950 . S
H734 C746 0.950 . S
H735 C747 0.950 . S
C736 H728 0.950 . S
C736 C737 1.386 . S
C736 C738 1.391 . S
C737 C736 1.386 . S
C737 C741 1.393 . S
C738 H730 0.950 . S
C738 C736 1.391 . S
C738 C739 1.400 . S
C739 C738 1.400 . S
C739 C740 1.398 . S
C739 C745 1.491 . S
C740 H731 0.950 . S
C740 C739 1.398 . S
C740 C741 1.391 . S
C741 H729 0.950 . S
C741 C737 1.393 . S
C741 C740 1.391 . S
C742 H732 0.950 . S
C742 C743 1.386 . S
C742 C744 1.391 . S
C743 C742 1.386 . S
C743 C747 1.393 . S
C744 H733 0.950 . S
C744 C742 1.391 . S
C744 C745 1.400 . S
C745 C739 1.491 . S
C745 C744 1.400 . S
C745 C746 1.398 . S
C746 H734 0.950 . S
C746 C745 1.398 . S
C746 C747 1.391 . S
C747 H735 0.950 . S
C747 C743 1.393 . S
C747 C746 1.391 . S
H748 C756 0.950 . S
H749 C761 0.950 . S
H750 C758 0.950 . S
H751 C760 0.950 . S
H752 C762 0.950 . S
H753 C764 0.950 . S
H754 C766 0.950 . S
H755 C767 0.950 . S
C756 H748 0.950 . S
C756 C757 1.386 . S
C756 C758 1.391 . S
C757 C756 1.386 . S
C757 C761 1.393 . S
C758 H750 0.950 . S
C758 C756 1.391 . S
C758 C759 1.400 . S
C759 C758 1.400 . S
C759 C760 1.398 . S
C759 C765 1.491 . S
C760 H751 0.950 . S
C760 C759 1.398 . S
C760 C761 1.391 . S
C761 H749 0.950 . S
C761 C757 1.393 . S
C761 C760 1.391 . S
C762 H752 0.950 . S
C762 C763 1.386 . S
C762 C764 1.391 . S
C763 C762 1.386 . S
C763 C767 1.393 . S
C764 H753 0.950 . S
C764 C762 1.391 . S
C764 C765 1.400 . S
C765 C759 1.491 . S
C765 C764 1.400 . S
C765 C766 1.398 . S
C766 H754 0.950 . S
C766 C765 1.398 . S
C766 C767 1.391 . S
C767 H755 0.950 . S
C767 C763 1.393 . S
C767 C766 1.391 . S
H768 C776 0.950 . S
H769 C781 0.950 . S
H770 C778 0.950 . S
H771 C780 0.950 . S
H772 C782 0.950 . S
H773 C784 0.950 . S
H774 C786 0.950 . S
H775 C787 0.950 . S
C776 H768 0.950 . S
C776 C777 1.386 . S
C776 C778 1.391 . S
C777 C776 1.386 . S
C777 C781 1.393 . S
C778 H770 0.950 . S
C778 C776 1.391 . S
C778 C779 1.400 . S
C779 C778 1.400 . S
C779 C780 1.398 . S
C779 C785 1.491 . S
C780 H771 0.950 . S
C780 C779 1.398 . S
C780 C781 1.391 . S
C781 H769 0.950 . S
C781 C777 1.393 . S
C781 C780 1.391 . S
C782 H772 0.950 . S
C782 C783 1.386 . S
C782 C784 1.391 . S
C783 C782 1.386 . S
C783 C787 1.393 . S
C784 H773 0.950 . S
C784 C782 1.391 . S
C784 C785 1.400 . S
C785 C779 1.491 . S
C785 C784 1.400 . S
C785 C786 1.398 . S
C786 H774 0.950 . S
C786 C785 1.398 . S
C786 C787 1.391 . S
C787 H775 0.950 . S
C787 C783 1.393 . S
C787 C786 1.391 . S
H788 C796 0.950 . S
H789 C801 0.950 . S
H790 C798 0.950 . S
H791 C800 0.950 . S
H792 C802 0.950 . S
H793 C804 0.950 . S
H794 C806 0.950 . S
H795 C807 0.950 . S
C796 H788 0.950 . S
C796 C797 1.386 . S
C796 C798 1.391 . S
C797 C796 1.386 . S
C797 C801 1.393 . S
C798 H790 0.950 . S
C798 C796 1.391 . S
C798 C799 1.400 . S
C799 C798 1.400 . S
C799 C800 1.398 . S
C799 C805 1.491 . S
C800 H791 0.950 . S
C800 C799 1.398 . S
C800 C801 1.391 . S
C801 H789 0.950 . S
C801 C797 1.393 . S
C801 C800 1.391 . S
C802 H792 0.950 . S
C802 C803 1.386 . S
C802 C804 1.391 . S
C803 C802 1.386 . S
C803 C807 1.393 . S
C804 H793 0.950 . S
C804 C802 1.391 . S
C804 C805 1.400 . S
C805 C799 1.491 . S
C805 C804 1.400 . S
C805 C806 1.398 . S
C806 H794 0.950 . S
C806 C805 1.398 . S
C806 C807 1.391 . S
C807 H795 0.950 . S
C807 C803 1.393 . S
C807 C806 1.391 . S
H808 C816 0.950 . S
H809 C821 0.950 . S
H810 C818 0.950 . S
H811 C820 0.950 . S
H812 C822 0.950 . S
H813 C824 0.950 . S
H814 C826 0.950 . S
H815 C827 0.950 . S
C816 H808 0.950 . S
C816 C817 1.386 . S
C816 C818 1.391 . S
C817 C816 1.386 . S
C817 C821 1.393 . S
C818 H810 0.950 . S
C818 C816 1.391 . S
C818 C819 1.400 . S
C819 C818 1.400 . S
C819 C820 1.398 . S
C819 C825 1.491 . S
C820 H811 0.950 . S
C820 C819 1.398 . S
C820 C821 1.391 . S
C821 H809 0.950 . S
C821 C817 1.393 . S
C821 C820 1.391 . S
C822 H812 0.950 . S
C822 C823 1.386 . S
C822 C824 1.391 . S
C823 C822 1.386 . S
C823 C827 1.393 . S
C824 H813 0.950 . S
C824 C822 1.391 . S
C824 C825 1.400 . S
C825 C819 1.491 . S
C825 C824 1.400 . S
C825 C826 1.398 . S
C826 H814 0.950 . S
C826 C825 1.398 . S
C826 C827 1.391 . S
C827 H815 0.950 . S
C827 C823 1.393 . S
C827 C826 1.391 . S
H828 C836 0.950 . S
H829 C841 0.950 . S
H830 C838 0.950 . S
H831 C840 0.950 . S
H832 C842 0.950 . S
H833 C844 0.950 . S
H834 C846 0.950 . S
H835 C847 0.950 . S
C836 H828 0.950 . S
C836 C837 1.386 . S
C836 C838 1.391 . S
C837 C836 1.386 . S
C837 C841 1.393 . S
C838 H830 0.950 . S
C838 C836 1.391 . S
C838 C839 1.400 . S
C839 C838 1.400 . S
C839 C840 1.398 . S
C839 C845 1.491 . S
C840 H831 0.950 . S
C840 C839 1.398 . S
C840 C841 1.391 . S
C841 H829 0.950 . S
C841 C837 1.393 . S
C841 C840 1.391 . S
C842 H832 0.950 . S
C842 C843 1.386 . S
C842 C844 1.391 . S
C843 C842 1.386 . S
C843 C847 1.393 . S
C844 H833 0.950 . S
C844 C842 1.391 . S
C844 C845 1.400 . S
C845 C839 1.491 . S
C845 C844 1.400 . S
C845 C846 1.398 . S
C846 H834 0.950 . S
C846 C845 1.398 . S
C846 C847 1.391 . S
C847 H835 0.950 . S
C847 C843 1.393 . S
C847 C846 1.391 . S
H848 C856 0.950 . S
H849 C861 0.950 . S
H850 C858 0.950 . S
H851 C860 0.950 . S
H852 C862 0.950 . S
H853 C864 0.950 . S
H854 C866 0.950 . S
H855 C867 0.950 . S
C856 H848 0.950 . S
C856 C857 1.386 . S
C856 C858 1.391 . S
C857 C856 1.386 . S
C857 C861 1.393 . S
C858 H850 0.950 . S
C858 C856 1.391 . S
C858 C859 1.400 . S
C859 C858 1.400 . S
C859 C860 1.398 . S
C859 C865 1.491 . S
C860 H851 0.950 . S
C860 C859 1.398 . S
C860 C861 1.391 . S
C861 H849 0.950 . S
C861 C857 1.393 . S
C861 C860 1.391 . S
C862 H852 0.950 . S
C862 C863 1.386 . S
C862 C864 1.391 . S
C863 C862 1.386 . S
C863 C867 1.393 . S
C864 H853 0.950 . S
C864 C862 1.391 . S
C864 C865 1.400 . S
C865 C859 1.491 . S
C865 C864 1.400 . S
C865 C866 1.398 . S
C866 H854 0.950 . S
C866 C865 1.398 . S
C866 C867 1.391 . S
C867 H855 0.950 . S
C867 C863 1.393 . S
C867 C866 1.391 . S
H868 C876 0.950 . S
H869 C881 0.950 . S
H870 C878 0.950 . S
H871 C880 0.950 . S
H872 C882 0.950 . S
H873 C884 0.950 . S
H874 C886 0.950 . S
H875 C887 0.950 . S
C876 H868 0.950 . S
C876 C877 1.386 . S
C876 C878 1.391 . S
C877 C876 1.386 . S
C877 C881 1.393 . S
C878 H870 0.950 . S
C878 C876 1.391 . S
C878 C879 1.400 . S
C879 C878 1.400 . S
C879 C880 1.398 . S
C879 C885 1.491 . S
C880 H871 0.950 . S
C880 C879 1.398 . S
C880 C881 1.391 . S
C881 H869 0.950 . S
C881 C877 1.393 . S
C881 C880 1.391 . S
C882 H872 0.950 . S
C882 C883 1.386 . S
C882 C884 1.391 . S
C883 C882 1.386 . S
C883 C887 1.393 . S
C884 H873 0.950 . S
C884 C882 1.391 . S
C884 C885 1.400 . S
C885 C879 1.491 . S
C885 C884 1.400 . S
C885 C886 1.398 . S
C886 H874 0.950 . S
C886 C885 1.398 . S
C886 C887 1.391 . S
C887 H875 0.950 . S
C887 C883 1.393 . S
C887 C886 1.391 . S
H888 C896 0.950 . S
H889 C901 0.950 . S
H890 C898 0.950 . S
H891 C900 0.950 . S
H892 C902 0.950 . S
H893 C904 0.950 . S
H894 C906 0.950 . S
H895 C907 0.950 . S
C896 H888 0.950 . S
C896 C897 1.386 . S
C896 C898 1.391 . S
C897 C896 1.386 . S
C897 C901 1.393 . S
C898 H890 0.950 . S
C898 C896 1.391 . S
C898 C899 1.400 . S
C899 C898 1.400 . S
C899 C900 1.398 . S
C899 C905 1.491 . S
C900 H891 0.950 . S
C900 C899 1.398 . S
C900 C901 1.391 . S
C901 H889 0.950 . S
C901 C897 1.393 . S
C901 C900 1.391 . S
C902 H892 0.950 . S
C902 C903 1.386 . S
C902 C904 1.391 . S
C903 C902 1.386 . S
C903 C907 1.393 . S
C904 H893 0.950 . S
C904 C902 1.391 . S
C904 C905 1.400 . S
C905 C899 1.491 . S
C905 C904 1.400 . S
C905 C906 1.398 . S
C906 H894 0.950 . S
C906 C905 1.398 . S
C906 C907 1.391 . S
C907 H895 0.950 . S
C907 C903 1.393 . S
C907 C906 1.391 . S
H908 C916 0.950 . S
H909 C921 0.950 . S
H910 C918 0.950 . S
H911 C920 0.950 . S
H912 C922 0.950 . S
H913 C924 0.950 . S
H914 C926 0.950 . S
H915 C927 0.950 . S
C916 H908 0.950 . S
C916 C917 1.386 . S
C916 C918 1.391 . S
C917 C916 1.386 . S
C917 C921 1.393 . S
C918 H910 0.950 . S
C918 C916 1.391 . S
C918 C919 1.400 . S
C919 C918 1.400 . S
C919 C920 1.398 . S
C919 C925 1.491 . S
C920 H911 0.950 . S
C920 C919 1.398 . S
C920 C921 1.391 . S
C921 H909 0.950 . S
C921 C917 1.393 . S
C921 C920 1.391 . S
C922 H912 0.950 . S
C922 C923 1.386 . S
C922 C924 1.391 . S
C923 C922 1.386 . S
C923 C927 1.393 . S
C924 H913 0.950 . S
C924 C922 1.391 . S
C924 C925 1.400 . S
C925 C919 1.491 . S
C925 C924 1.400 . S
C925 C926 1.398 . S
C926 H914 0.950 . S
C926 C925 1.398 . S
C926 C927 1.391 . S
C927 H915 0.950 . S
C927 C923 1.393 . S
C927 C926 1.391 . S
C457 C1 1.049 . S
C463 C303 1.042 . S
C477 C67 1.636 . S
C483 C347 1.598 . S
C503 C377 2.155 . S
C497 C97 2.135 . S
C517 C133 2.786 . S
C523 C418 2.765 . S
C543 C334 0.764 . S
C537 C25 0.770 . S
C563 C298 2.544 . S
C557 C37 2.528 . S
C583 C426 1.173 . S
C577 C103 1.170 . S
C603 C387 2.241 . S
C597 C109 2.285 . S
C617 C31 1.011 . S
C623 C423 1.016 . S
C643 C337 2.037 . S
C637 C73 2.080 . S
C657 C139 2.099 . S
C663 C306 2.063 . S
C677 C61 1.929 . S
C683 C374 1.933 . S
C703 C294 1.044 . S
C697 C175 1.006 . S
C717 C181 1.628 . S
C723 C338 1.600 . S
C737 C247 2.124 . S
C743 C386 2.172 . S
C757 C277 2.780 . S
C763 C427 2.758 . S
C777 C145 0.772 . S
C783 C343 0.756 . S
C803 C307 2.549 . S
C797 C211 2.529 . S
C823 C417 1.152 . S
C817 C217 1.128 . S
C843 C378 2.261 . S
C837 C283 2.281 . S
C857 C169 0.993 . S
C863 C414 1.026 . S
C883 C346 2.049 . S
C877 C241 2.079 . S
C903 C297 2.058 . S
C897 C253 2.108 . S
C917 C205 1.954 . S
C923 C383 1.945 . S
