# Generated by pormake.
# Topology anh, (6,3)-cn, num edge types: 1
# Building blocks:
#     Node 0, Type 0, BuildingBlock: BETDIP_clean_sbu_0, # of connection points: 6
#     Node 1, Type 0, BuildingBlock: BETDIP_clean_sbu_0, # of connection points: 6
#     Node 2, Type 0, BuildingBlock: BETDIP_clean_sbu_0, # of connection points: 6
#     Node 3, Type 1, BuildingBlock: PAMTOO_clean_linker_0, # of connection points: 3
#     Node 4, Type 1, BuildingBlock: PAMTOO_clean_linker_0, # of connection points: 3
#     Node 5, Type 1, BuildingBlock: PAMTOO_clean_linker_0, # of connection points: 3
#     Node 6, Type 1, BuildingBlock: PAMTOO_clean_linker_0, # of connection points: 3
#     Node 7, Type 1, BuildingBlock: PAMTOO_clean_linker_0, # of connection points: 3
#     Node 8, Type 1, BuildingBlock: PAMTOO_clean_linker_0, # of connection points: 3
#     Edge 9, Type (0, 1), BuildingBlock: OJICUG_clean_linker_0, # of connection points: 2
#     Edge 10, Type (0, 1), BuildingBlock: OJICUG_clean_linker_0, # of connection points: 2
#     Edge 11, Type (0, 1), BuildingBlock: OJICUG_clean_linker_0, # of connection points: 2
#     Edge 12, Type (0, 1), BuildingBlock: OJICUG_clean_linker_0, # of connection points: 2
#     Edge 13, Type (0, 1), BuildingBlock: OJICUG_clean_linker_0, # of connection points: 2
#     Edge 14, Type (0, 1), BuildingBlock: OJICUG_clean_linker_0, # of connection points: 2
#     Edge 15, Type (0, 1), BuildingBlock: OJICUG_clean_linker_0, # of connection points: 2
#     Edge 16, Type (0, 1), BuildingBlock: OJICUG_clean_linker_0, # of connection points: 2
#     Edge 17, Type (0, 1), BuildingBlock: OJICUG_clean_linker_0, # of connection points: 2
#     Edge 18, Type (0, 1), BuildingBlock: OJICUG_clean_linker_0, # of connection points: 2
#     Edge 19, Type (0, 1), BuildingBlock: OJICUG_clean_linker_0, # of connection points: 2
#     Edge 20, Type (0, 1), BuildingBlock: OJICUG_clean_linker_0, # of connection points: 2
#     Edge 21, Type (0, 1), BuildingBlock: OJICUG_clean_linker_0, # of connection points: 2
#     Edge 22, Type (0, 1), BuildingBlock: OJICUG_clean_linker_0, # of connection points: 2
#     Edge 23, Type (0, 1), BuildingBlock: OJICUG_clean_linker_0, # of connection points: 2
#     Edge 24, Type (0, 1), BuildingBlock: OJICUG_clean_linker_0, # of connection points: 2
#     Edge 25, Type (0, 1), BuildingBlock: OJICUG_clean_linker_0, # of connection points: 2
#     Edge 26, Type (0, 1), BuildingBlock: OJICUG_clean_linker_0, # of connection points: 2
# Relax obj value: 0.383
# Max RMSD: 0.159
# Mean RMSD: 0.122
data_MOF--net-anh--node1-BETDIP_clean_sbu_0--node2-PAMTOO_clean_linker_0--edge1-OJICUG_clean_linker_0
_symmetry_space_group_name_H-M    P1
_symmetry_Int_Tables_number       1
_symmetry_cell_setting            triclinic
loop_
_symmetry_equiv_pos_as_xyz
'x, y, z'
_cell_length_a     21.809008
_cell_length_b     22.045603
_cell_length_c     36.364846
_cell_angle_alpha  84.162531
_cell_angle_beta   94.05786
_cell_angle_gamma 120.0265
loop_
_atom_site_label
_atom_site_type_symbol
_atom_site_fract_x
_atom_site_fract_y
_atom_site_fract_z
_atom_type_partial_charge
Tb0 Tb 0.39236 0.73397 0.1333 0.0
Tb1 Tb 0.31374 0.57981 0.13708 0.0
C2 C 0.47551 0.85941 0.14708 0.0
C3 C 0.47791 0.92352 0.15727 0.0
C4 C 0.4409 0.92328 0.18742 0.0
C5 C 0.4502 0.98656 0.19827 0.0
C6 C 0.4964 1.05092 0.17908 0.0
C7 C 0.53176 1.05047 0.14836 0.0
C8 C 0.52264 0.98743 0.13765 0.0
C9 C 0.35476 0.67941 0.06907 0.0
C10 C 0.48016 0.64863 0.13313 0.0
C11 C 0.22682 0.45429 0.12481 0.0
C12 C 1.14949 0.41677 0.11827 0.0
C13 C 1.11715 0.44356 0.09175 0.0
C14 C 1.04383 0.41619 0.09139 0.0
C15 C 1.00176 0.36173 0.11752 0.0
C16 C 1.03375 0.33089 0.14163 0.0
C17 C 1.10689 0.35816 0.14194 0.0
C18 C 0.3483 0.63173 0.20303 0.0
C19 C 0.2274 0.66642 0.12558 0.0
O20 O 0.4548 0.80611 0.17207 0.0
O21 O 0.45118 0.83998 0.11388 0.0
O22 O 0.37751 0.6584 0.09719 0.0
O23 O 0.35504 0.73635 0.07556 0.0
O24 O 0.48138 0.70891 0.13709 0.0
O25 O 0.41822 0.59004 0.13022 0.0
O26 O 0.26479 0.50239 0.09925 0.0
O27 O 0.2479 0.47564 0.158 0.0
O28 O 0.32684 0.65543 0.17487 0.0
O29 O 0.34984 0.57692 0.19431 0.0
O30 O 0.22889 0.60755 0.12195 0.0
O31 O 0.28639 0.7236 0.13517 0.0
H32 H 0.40594 0.87457 0.20299 0.0
H33 H 0.42169 0.9852 0.22183 0.0
H34 H 0.56848 1.09911 0.13333 0.0
H35 H 0.5521 0.98878 0.1145 0.0
H36 H 1.14869 0.48828 0.07273 0.0
H37 H 1.02064 0.44039 0.07216 0.0
H38 H 1.00332 0.28939 0.16244 0.0
H39 H 1.13066 0.33643 0.16242 0.0
Tb40 Tb 0.88316 0.18208 0.47026 0.0
Tb41 Tb 0.79873 0.25063 0.46864 0.0
C42 C 0.92882 1.09781 0.48434 0.0
C43 C 0.88905 1.02042 0.48769 0.0
C44 C 0.82767 0.98469 0.50881 0.0
C45 C 0.78328 0.91274 0.50722 0.0
C46 C 0.79906 0.87474 0.48457 0.0
C47 C 0.86208 0.9094 0.46475 0.0
C48 C 0.9066 0.98212 0.46607 0.0
C49 C 0.85585 0.22407 0.40378 0.0
C50 C 0.7097 1.08609 0.46529 0.0
C51 C 0.74565 0.32947 0.45724 0.0
C52 C 0.68268 0.33019 0.46799 0.0
C53 C 0.67112 0.38499 0.45351 0.0
C54 C 0.61568 0.39099 0.46626 0.0
C55 C 0.57107 0.34222 0.4938 0.0
C56 C 0.58143 0.28581 0.5073 0.0
C57 C 0.6369 0.2798 0.49445 0.0
C58 C 0.81237 0.19884 0.53565 0.0
C59 C 0.9713 0.34467 0.46062 0.0
O60 O 0.9183 1.12938 0.50985 0.0
O61 O 0.92752 1.12611 0.45119 0.0
O62 O 0.81526 0.19615 0.43036 0.0
O63 O 0.91603 0.22779 0.41308 0.0
O64 O 0.77203 1.0897 0.47394 0.0
O65 O 0.70735 0.14536 0.45848 0.0
O66 O 0.79084 0.33515 0.48412 0.0
O67 O 0.73523 0.28175 0.43519 0.0
O68 O 0.86135 0.23118 0.51221 0.0
O69 O 0.75555 0.19789 0.52205 0.0
O70 O 0.90776 0.33827 0.45214 0.0
O71 O 0.97462 0.28833 0.4743 0.0
H72 H 0.81252 1.0125 0.52576 0.0
H73 H 0.73612 0.88661 0.52374 0.0
H74 H 0.8758 0.88067 0.44765 0.0
H75 H 0.95352 1.00879 0.4494 0.0
H76 H 0.70635 0.42442 0.43316 0.0
H77 H 0.60966 0.43551 0.45568 0.0
H78 H 0.54743 0.24707 0.52825 0.0
H79 H 0.64524 0.23706 0.50583 0.0
Tb80 Tb 0.72949 0.64017 0.82579 0.0
Tb81 Tb 0.86359 0.70683 0.78823 0.0
C82 C 0.6335 0.60839 0.87088 0.0
C83 C 0.56648 0.54793 0.88355 0.0
C84 C 0.53537 0.55269 0.91471 0.0
C85 C 0.4669 0.50055 0.92434 0.0
C86 C 0.42838 0.44281 0.90283 0.0
C87 C 0.46109 0.43675 0.87248 0.0
C88 C 0.52974 0.48896 0.86291 0.0
C89 C 0.71207 0.62267 0.7555 0.0
C90 C 0.80352 0.80678 0.79585 0.0
C91 C 0.96617 0.7362 0.74868 0.0
C92 C 1.01282 0.70501 0.75081 0.0
C93 C 0.98891 0.63874 0.73764 0.0
C94 C 1.02229 0.59992 0.74948 0.0
C95 C 1.08046 0.62704 0.77434 0.0
C96 C 1.10981 0.69691 0.78343 0.0
C97 C 1.07641 0.73562 0.77165 0.0
C98 C 0.8739 0.70938 0.86196 0.0
C99 C 0.78399 0.53718 0.80551 0.0
O100 O 0.63305 0.63253 0.83661 0.0
O101 O 0.69155 0.60633 0.87993 0.0
O102 O 0.75786 0.67895 0.76952 0.0
O103 O 0.67106 0.57757 0.78085 0.0
O104 O 0.76263 0.75635 0.82117 0.0
O105 O 0.84274 0.79418 0.7751 0.0
O106 O 0.89997 0.69505 0.73901 0.0
O107 O 0.97139 0.77143 0.77672 0.0
O108 O 0.83149 0.65986 0.84316 0.0
O109 O 0.916 0.7603 0.83927 0.0
O110 O 0.83661 0.59499 0.78933 0.0
O111 O 0.73595 0.54202 0.82414 0.0
H112 H 0.56296 0.59822 0.93075 0.0
H113 H 0.44294 0.50723 0.94758 0.0
H114 H 0.43301 0.39244 0.85566 0.0
H115 H 0.55314 0.48461 0.8387 0.0
H116 H 0.94115 0.61442 0.72062 0.0
H117 H 0.99952 0.5468 0.74132 0.0
H118 H 1.1547 0.7196 0.80248 0.0
H119 H 1.09705 0.7872 0.78157 0.0
H120 H 0.83283 0.28449 0.23272 0.0
H121 H 0.69494 0.33413 0.28591 0.0
H122 H 0.70711 0.35796 0.16753 0.0
H123 H 0.5444 0.34704 0.2125 0.0
C124 C 0.57304 0.32295 0.22866 0.0
O125 O 0.64524 0.36749 0.22432 0.0
H126 H 0.56034 0.31915 0.25817 0.0
C127 C 0.79381 0.30151 0.23108 0.0
C128 C 0.77312 0.32024 0.19638 0.0
C129 C 0.76666 0.30669 0.26364 0.0
C130 C 0.7166 0.32946 0.26114 0.0
C131 C 0.69406 0.34636 0.22651 0.0
C132 C 0.72296 0.3426 0.19415 0.0
H133 H 0.69198 0.65233 0.58224 0.0
H134 H 0.48619 0.50317 0.62432 0.0
H135 H 0.51167 0.56117 0.50792 0.0
H136 H 0.33352 0.39808 0.54375 0.0
C137 C 0.38408 0.41416 0.55959 0.0
O138 O 0.42064 0.4867 0.55996 0.0
H139 H 0.36992 0.39037 0.58835 0.0
C140 C 0.63676 0.61433 0.57732 0.0
C141 C 0.6081 0.6094 0.54121 0.0
C142 C 0.59386 0.57686 0.60765 0.0
C143 C 0.5208 0.5326 0.60142 0.0
C144 C 0.49158 0.52635 0.56549 0.0
C145 C 0.53519 0.56439 0.53543 0.0
H146 H 0.21918 0.58022 0.90998 0.0
H147 H 1.18446 0.40452 -0.0134 0.0
H148 H 1.08922 0.36843 0.87797 0.0
H149 H 1.09831 0.23717 0.90826 0.0
C150 C 1.12907 0.26581 0.93257 0.0
O151 O 1.10357 0.30873 0.94156 0.0
H152 H 1.11886 0.22553 0.95591 0.0
C153 C 1.19637 0.52402 0.91614 0.0
C154 C 1.15401 0.47782 0.8893 0.0
C155 C 0.20763 0.49842 0.95136 0.0
C156 C 1.17712 0.42551 0.95944 0.0
C157 C 1.13464 0.37896 0.93296 0.0
C158 C 1.12269 0.40502 0.89809 0.0
H159 H 0.21215 0.55981 0.36054 0.0
H160 H 0.40159 0.76211 0.3615 0.0
H161 H 0.283 0.66625 0.46142 0.0
H162 H 0.49116 0.78418 0.41993 0.0
C163 C 0.4678 0.79719 0.442 0.0
O164 O 0.39874 0.78211 0.43087 0.0
H165 H 0.46336 0.76127 0.46673 0.0
C166 C 0.24981 0.60436 0.37557 0.0
C167 C 0.23823 0.60497 0.41321 0.0
C168 C 0.30862 0.66004 0.35676 0.0
C169 C 0.35689 0.71889 0.37592 0.0
C170 C 0.35003 0.72199 0.41385 0.0
C171 C 0.29017 0.66413 0.43252 0.0
H172 H 0.81006 1.05466 0.69768 0.0
H173 H 0.81759 0.25168 0.7042 0.0
H174 H 0.79744 1.11917 0.80405 0.0
H175 H 0.71221 0.21559 0.79804 0.0
C176 C 0.75039 0.25687 0.7782 0.0
O177 O 0.80738 0.24427 0.77592 0.0
H178 H 0.7222 0.24971 0.75091 0.0
C179 C 0.80922 1.09213 0.71448 0.0
C180 C 0.8047 1.07783 0.75332 0.0
C181 C 0.81394 0.15403 0.69654 0.0
C182 C 0.81328 0.20371 0.71786 0.0
C183 C 0.80515 0.19178 0.75653 0.0
C184 C 0.80085 1.12804 0.77426 0.0
H185 H 0.99789 0.68416 0.02384 0.0
H186 H 0.80484 0.68979 0.03094 0.0
H187 H 0.91838 0.67681 0.13079 0.0
H188 H 0.74992 0.6114 0.14392 0.0
C189 C 0.74034 0.62868 0.1154 0.0
O190 O 0.80402 0.68669 0.10277 0.0
H191 H 0.72566 0.58432 0.09805 0.0
C192 C 0.95853 0.68367 0.04068 0.0
C193 C 0.96615 0.67882 0.07962 0.0
C194 C 0.90099 0.68782 0.023 0.0
C195 C 0.849 0.68637 0.04451 0.0
C196 C 0.85401 0.68257 0.08335 0.0
C197 C 0.91352 0.67939 0.10092 0.0
C198 C 0.61716 0.70542 0.13272 0.0
C199 C 0.54841 0.64704 0.1279 0.0
H200 H 0.73083 0.74689 0.13274 0.0
C201 C 0.54507 0.5858 0.11698 0.0
H202 H 0.62293 0.75377 0.14113 0.0
C203 C 0.60679 0.58253 0.11144 0.0
C204 C 0.67552 0.64027 0.11631 0.0
H205 H 0.49419 0.53943 0.11276 0.0
H206 H 0.60048 0.53336 0.10397 0.0
C207 C 0.67952 0.70181 0.12749 0.0
C208 C 1.10735 0.42688 0.46527 0.0
C209 C 1.0398 0.41444 0.45153 0.0
H210 H 0.22128 0.49569 0.4654 0.0
C211 C 1.03925 0.46881 0.4275 0.0
H212 H 1.11131 0.38712 0.48368 0.0
C213 C 1.10284 0.53112 0.41677 0.0
C214 C 1.17032 0.54335 0.43018 0.0
H215 H 0.98944 0.46232 0.41581 0.0
H216 H 1.09926 0.56953 0.39702 0.0
C217 C 1.17103 0.48998 0.455 0.0
C218 C 0.85561 0.93152 0.76475 0.0
C219 C 0.80548 0.87806 0.78901 0.0
H220 H 0.89618 1.03382 0.73613 0.0
C221 C 0.7578 0.89417 0.80457 0.0
H222 H 0.8941 0.92327 0.75214 0.0
C223 C 0.75898 0.95958 0.79505 0.0
C224 C 0.80788 1.0117 0.76955 0.0
H225 H 0.71813 0.85543 0.82339 0.0
H226 H 0.71969 0.96805 0.80657 0.0
C227 C 0.85687 0.99606 0.75545 0.0
C228 C 1.14775 0.72242 0.12693 0.0
C229 C 1.15843 0.668 0.11688 0.0
H230 H 1.07928 0.76786 0.12445 0.0
C231 C 1.10234 0.61518 0.09699 0.0
H232 H 1.18899 0.76437 0.14216 0.0
C233 C 1.03974 0.61754 0.08662 0.0
C234 C 1.02919 0.67213 0.09618 0.0
H235 H 1.10765 0.57267 0.08822 0.0
H236 H 0.99967 0.57687 0.07023 0.0
C237 C 1.08417 0.72415 0.11703 0.0
C238 C 0.587 1.00358 0.43568 0.0
C239 C 0.64305 1.01418 0.46133 0.0
H240 H 0.48909 0.92932 0.40888 0.0
C241 C 0.63635 0.95369 0.48212 0.0
H242 H 0.58972 1.0481 0.41868 0.0
C243 C 0.57768 0.88598 0.47721 0.0
C244 C 0.52242 0.87449 0.45099 0.0
H245 H 0.67708 0.9586 0.50234 0.0
H246 H 0.5767 0.84156 0.49349 0.0
C247 C 0.52855 0.93504 0.43015 0.0
C248 C 0.82699 0.46068 0.77873 0.0
C249 C 0.77951 0.46601 0.80134 0.0
H250 H 0.85701 0.39413 0.75397 0.0
C251 C 0.72704 0.40206 0.81849 0.0
H252 H 0.868 0.50757 0.76455 0.0
C253 C 0.72148 0.33651 0.81272 0.0
C254 C 0.76822 0.33097 0.78972 0.0
H255 H 0.68889 0.40225 0.83591 0.0
H256 H 0.67836 0.28917 0.82556 0.0
C257 C 0.82117 0.39495 0.77279 0.0
C258 C 0.67723 0.77342 0.47925 0.0
C259 C 0.75024 0.79842 0.48409 0.0
H260 H 0.57322 0.69135 0.4934 0.0
C261 C 0.77379 0.75138 0.49714 0.0
H262 H 0.65817 0.80872 0.46837 0.0
C263 C 0.72503 0.68341 0.51084 0.0
C264 C 0.65268 0.66265 0.51208 0.0
H265 H 0.8299 0.76939 0.50076 0.0
H266 H 0.74476 0.65035 0.52453 0.0
C267 C 0.62857 0.70585 0.49322 0.0
C268 C 1.17322 0.60427 0.80679 0.0
C269 C 1.10198 0.57989 0.7962 0.0
H270 H 0.24592 0.58985 0.84427 0.0
C271 C 1.04964 0.51486 0.81214 0.0
H272 H 0.21477 0.6536 0.79458 0.0
C273 C 1.06742 0.47855 0.84061 0.0
C274 C 1.1378 0.50658 0.85367 0.0
H275 H 0.99413 0.49486 0.80491 0.0
H276 H 1.02523 0.43159 0.85432 0.0
C277 C 1.19097 0.5679 0.83526 0.0
C278 C 0.52189 0.13013 0.22975 0.0
C279 C 0.5107 1.11874 0.19192 0.0
H280 H 0.55066 0.2037 0.27084 0.0
C281 C 0.51731 0.17394 0.16633 0.0
H282 H 0.51859 1.08918 0.25007 0.0
C283 C 0.53579 0.23937 0.17828 0.0
C284 C 0.54757 0.25068 0.216 0.0
H285 H 0.50869 0.16669 0.13702 0.0
H286 H 0.54197 0.28155 0.15805 0.0
C287 C 0.54044 0.19559 0.24165 0.0
C288 C 0.51084 0.34627 0.54877 0.0
C289 C 0.51757 0.35343 0.51019 0.0
H290 H 0.4633 0.35999 0.59448 0.0
C291 C 0.47661 0.37621 0.48775 0.0
H292 H 0.5427 0.33019 0.56681 0.0
C293 C 0.43126 0.39324 0.50368 0.0
C294 C 0.42593 0.38746 0.54222 0.0
H295 H 0.48051 0.38196 0.45794 0.0
H296 H 0.40176 0.41273 0.48601 0.0
C297 C 0.46564 0.36341 0.56463 0.0
C298 C 0.3024 0.3709 0.88119 0.0
C299 C 0.35274 0.39232 0.91044 0.0
H300 H 1.19243 0.31437 0.86542 0.0
C301 C 0.32955 0.36894 0.94694 0.0
H302 H 0.31838 0.38922 0.85283 0.0
C303 C 0.25745 0.32608 0.95404 0.0
C304 C 0.20737 0.30579 0.92478 0.0
H305 H 0.36708 0.38447 0.97004 0.0
H306 H 0.24052 0.31007 0.98239 0.0
C307 C 0.23039 0.3283 0.88832 0.0
C308 C 0.91556 0.40167 0.12714 0.0
C309 C 0.92887 0.34591 0.12483 0.0
H310 H 0.85288 0.43619 0.15153 0.0
C311 C 0.87744 0.27765 0.13746 0.0
H312 H 0.954 0.45497 0.11779 0.0
C313 C 0.81976 0.26719 0.15707 0.0
C314 C 0.81233 0.32472 0.16387 0.0
H315 H 0.88535 0.2334 0.13528 0.0
H316 H 0.78508 0.21546 0.17009 0.0
C317 C 0.85745 0.39102 0.14648 0.0
C318 C 0.27209 0.64739 0.01409 0.0
C319 C 0.32174 0.63795 0.03683 0.0
H320 H 1.19607 0.60967 0.96945 0.0
C321 C 0.33635 0.5848 0.03019 0.0
H322 H 0.25965 0.68774 0.01883 0.0
C323 C 0.29982 0.53987 0.00223 0.0
C324 C 0.24857 0.54783 0.98008 0.0
H325 H 0.37501 0.57695 0.04721 0.0
H326 H 0.31149 0.49877 -0.00201 0.0
C327 C 0.23574 0.60266 -0.01406 0.0
C328 C 0.76317 0.22644 0.36098 0.0
C329 C 0.83475 0.24612 0.36785 0.0
H330 H 0.6856 0.22982 0.32274 0.0
C331 C 0.88441 0.28703 0.3406 0.0
H332 H 0.72355 0.19424 0.38143 0.0
C333 C 0.86258 0.30787 0.30692 0.0
C334 C 0.7907 0.2878 0.29997 0.0
H335 H 0.93992 0.30322 0.3454 0.0
H336 H 0.90202 0.33997 0.28638 0.0
C337 C 0.74137 0.24709 0.32745 0.0
C338 C 0.61771 0.60799 0.70955 0.0
C339 C 0.68631 0.61891 0.71711 0.0
H340 H 0.53519 0.58745 0.66906 0.0
C341 C 0.72476 0.61582 0.68888 0.0
H342 H 0.58699 0.60944 0.73127 0.0
C343 C 0.69429 0.60082 0.65345 0.0
C344 C 0.62519 0.58956 0.64568 0.0
H345 H 0.77702 0.62222 0.69455 0.0
H346 H 0.72443 0.59688 0.63232 0.0
C347 C 0.58765 0.5941 0.67413 0.0
C348 C 0.87409 0.23566 0.59794 0.0
C349 C 0.82041 0.18496 0.57624 0.0
H350 H 0.91331 0.2667 0.65301 0.0
C351 C 0.76637 1.12391 0.59439 0.0
H352 H 0.91558 0.28394 0.58483 0.0
C353 C 0.76552 1.11361 0.63313 0.0
C354 C 0.81754 0.16509 0.65506 0.0
H355 H 0.72367 1.08442 0.57848 0.0
H356 H 0.72266 1.06609 0.64604 0.0
C357 C 0.8722 0.22618 0.63696 0.0
C358 C 0.93491 0.7609 0.92204 0.0
C359 C 0.88183 0.70435 0.90318 0.0
H360 H 0.98313 0.79962 0.97468 0.0
C361 C 0.83627 0.64205 0.92418 0.0
H362 H 0.97122 0.80942 0.90678 0.0
C363 C 0.84208 0.63708 0.96296 0.0
C364 C 0.89496 0.69354 0.98175 0.0
H365 H 0.79614 0.59672 0.91066 0.0
H366 H 0.80575 0.58865 0.97829 0.0
C367 C 0.94178 0.75532 0.96087 0.0
C368 C 0.33998 0.70156 0.25222 0.0
C369 C 0.34106 0.64199 0.24229 0.0
H370 H 0.33021 0.75482 0.29615 0.0
C371 C 0.33256 0.58965 0.27044 0.0
H372 H 0.34617 0.74275 0.23131 0.0
C373 C 0.32173 0.59569 0.30717 0.0
C374 C 0.32064 0.65502 0.31724 0.0
H375 H 0.33292 0.54293 0.26402 0.0
H376 H 0.31469 0.55389 0.32788 0.0
C377 C 0.33083 0.70843 0.28936 0.0
loop_
_geom_bond_atom_site_label_1
_geom_bond_atom_site_label_2
_geom_bond_distance
_geom_bond_site_symmetry_2
_ccdc_geom_bond_type
Tb0 C2 2.809 . S
Tb0 O20 2.484 . S
Tb0 O21 2.440 . S
Tb0 O22 2.658 . S
Tb0 O23 2.409 . S
Tb0 O24 2.378 . S
Tb0 O28 2.325 . S
Tb0 O31 2.341 1_455 S
Tb1 C11 2.809 . S
Tb1 O22 2.325 1_655 S
Tb1 O25 2.341 1_655 S
Tb1 O26 2.484 . S
Tb1 O27 2.440 . S
Tb1 O28 2.658 1_655 S
Tb1 O29 2.409 . S
Tb1 O30 2.378 . S
C2 Tb0 2.809 . S
C2 C3 1.514 . S
C2 O20 1.248 . S
C2 O21 1.266 . S
C3 C2 1.514 . S
C3 C4 1.359 . S
C3 C8 1.348 . S
C4 C3 1.359 . S
C4 C5 1.380 . S
C4 H32 0.929 . S
C5 C4 1.380 . S
C5 C6 1.347 . S
C5 H33 0.931 . S
C6 C5 1.347 . S
C6 C7 1.369 . S
C7 C6 1.369 . S
C7 C8 1.408 . S
C7 H34 0.930 . S
C8 C3 1.348 . S
C8 C7 1.408 . S
C8 H35 0.930 . S
C9 O22 1.281 . S
C9 O23 1.254 . S
C10 O24 1.236 . S
C10 O25 1.266 . S
C11 Tb1 2.809 . S
C11 C12 1.514 . S
C11 O26 1.248 . S
C11 O27 1.266 . S
C12 C11 1.514 . S
C12 C13 1.359 . S
C12 C17 1.348 . S
C13 C12 1.359 . S
C13 C14 1.380 . S
C13 H36 0.929 . S
C14 C13 1.380 . S
C14 C15 1.347 . S
C14 H37 0.931 . S
C15 C14 1.347 . S
C15 C16 1.369 . S
C16 C15 1.369 . S
C16 C17 1.408 . S
C16 H38 0.930 . S
C17 C12 1.348 . S
C17 C16 1.408 . S
C17 H39 0.930 . S
C18 O28 1.281 . S
C18 O29 1.254 1_455 S
C19 O30 1.236 . S
C19 O31 1.266 . S
O20 Tb0 2.484 . S
O20 C2 1.248 . S
O21 Tb0 2.440 . S
O21 C2 1.266 . S
O22 Tb0 2.658 . S
O22 Tb1 2.325 1_455 S
O22 C9 1.281 . S
O23 Tb0 2.409 . S
O23 C9 1.254 . S
O24 Tb0 2.378 . S
O24 C10 1.236 . S
O25 Tb1 2.341 1_455 S
O25 C10 1.266 . S
O26 Tb1 2.484 . S
O26 C11 1.248 . S
O27 Tb1 2.440 . S
O27 C11 1.266 . S
O28 Tb0 2.325 . S
O28 Tb1 2.658 1_455 S
O28 C18 1.281 . S
O29 Tb1 2.409 . S
O29 C18 1.254 1_655 S
O30 Tb1 2.378 . S
O30 C19 1.236 . S
O31 Tb0 2.341 1_655 S
O31 C19 1.266 . S
H32 C4 0.929 . S
H33 C5 0.931 . S
H34 C7 0.930 . S
H35 C8 0.930 . S
H36 C13 0.929 . S
H37 C14 0.931 . S
H38 C16 0.930 . S
H39 C17 0.930 . S
Tb40 C42 2.809 . S
Tb40 O60 2.484 . S
Tb40 O61 2.440 . S
Tb40 O62 2.658 1_565 S
Tb40 O63 2.409 1_565 S
Tb40 O64 2.378 . S
Tb40 O68 2.325 1_565 S
Tb40 O71 2.341 1_565 S
Tb41 C51 2.809 . S
Tb41 O62 2.325 . S
Tb41 O65 2.341 1_545 S
Tb41 O66 2.484 . S
Tb41 O67 2.440 . S
Tb41 O68 2.658 . S
Tb41 O69 2.409 . S
Tb41 O70 2.378 . S
C42 Tb40 2.809 . S
C42 C43 1.514 . S
C42 O60 1.248 . S
C42 O61 1.266 . S
C43 C42 1.514 . S
C43 C44 1.359 . S
C43 C48 1.348 . S
C44 C43 1.359 . S
C44 C45 1.380 . S
C44 H72 0.929 . S
C45 C44 1.380 . S
C45 C46 1.347 . S
C45 H73 0.931 . S
C46 C45 1.347 . S
C46 C47 1.369 . S
C47 C46 1.369 . S
C47 C48 1.408 . S
C47 H74 0.930 . S
C48 C43 1.348 . S
C48 C47 1.408 . S
C48 H75 0.930 . S
C49 O62 1.281 . S
C49 O63 1.254 . S
C50 O64 1.236 . S
C50 O65 1.266 . S
C51 Tb41 2.809 . S
C51 C52 1.514 . S
C51 O66 1.248 . S
C51 O67 1.266 . S
C52 C51 1.514 . S
C52 C53 1.359 . S
C52 C57 1.348 . S
C53 C52 1.359 . S
C53 C54 1.380 . S
C53 H76 0.929 . S
C54 C53 1.380 . S
C54 C55 1.347 . S
C54 H77 0.931 . S
C55 C54 1.347 . S
C55 C56 1.369 . S
C56 C55 1.369 . S
C56 C57 1.408 . S
C56 H78 0.930 . S
C57 C52 1.348 . S
C57 C56 1.408 . S
C57 H79 0.930 . S
C58 O68 1.281 . S
C58 O69 1.254 . S
C59 O70 1.236 . S
C59 O71 1.266 . S
O60 Tb40 2.484 . S
O60 C42 1.248 . S
O61 Tb40 2.440 . S
O61 C42 1.266 . S
O62 Tb40 2.658 1_545 S
O62 Tb41 2.325 . S
O62 C49 1.281 . S
O63 Tb40 2.409 1_545 S
O63 C49 1.254 . S
O64 Tb40 2.378 . S
O64 C50 1.236 . S
O65 Tb41 2.341 1_565 S
O65 C50 1.266 . S
O66 Tb41 2.484 . S
O66 C51 1.248 . S
O67 Tb41 2.440 . S
O67 C51 1.266 . S
O68 Tb40 2.325 1_545 S
O68 Tb41 2.658 . S
O68 C58 1.281 . S
O69 Tb41 2.409 . S
O69 C58 1.254 . S
O70 Tb41 2.378 . S
O70 C59 1.236 . S
O71 Tb40 2.341 1_545 S
O71 C59 1.266 . S
H72 C44 0.929 . S
H73 C45 0.931 . S
H74 C47 0.930 . S
H75 C48 0.930 . S
H76 C53 0.929 . S
H77 C54 0.931 . S
H78 C56 0.930 . S
H79 C57 0.930 . S
Tb80 C82 2.809 . S
Tb80 O100 2.484 . S
Tb80 O101 2.440 . S
Tb80 O102 2.658 . S
Tb80 O103 2.409 . S
Tb80 O104 2.378 . S
Tb80 O108 2.325 . S
Tb80 O111 2.341 . S
Tb81 C91 2.809 . S
Tb81 O102 2.325 . S
Tb81 O105 2.341 . S
Tb81 O106 2.484 . S
Tb81 O107 2.440 . S
Tb81 O108 2.658 . S
Tb81 O109 2.409 . S
Tb81 O110 2.378 . S
C82 Tb80 2.809 . S
C82 C83 1.514 . S
C82 O100 1.248 . S
C82 O101 1.266 . S
C83 C82 1.514 . S
C83 C84 1.359 . S
C83 C88 1.348 . S
C84 C83 1.359 . S
C84 C85 1.380 . S
C84 H112 0.929 . S
C85 C84 1.380 . S
C85 C86 1.347 . S
C85 H113 0.931 . S
C86 C85 1.347 . S
C86 C87 1.369 . S
C87 C86 1.369 . S
C87 C88 1.408 . S
C87 H114 0.930 . S
C88 C83 1.348 . S
C88 C87 1.408 . S
C88 H115 0.930 . S
C89 O102 1.281 . S
C89 O103 1.254 . S
C90 O104 1.236 . S
C90 O105 1.266 . S
C91 Tb81 2.809 . S
C91 C92 1.514 . S
C91 O106 1.248 . S
C91 O107 1.266 . S
C92 C91 1.514 . S
C92 C93 1.359 . S
C92 C97 1.348 . S
C93 C92 1.359 . S
C93 C94 1.380 . S
C93 H116 0.929 . S
C94 C93 1.380 . S
C94 C95 1.347 . S
C94 H117 0.931 . S
C95 C94 1.347 . S
C95 C96 1.369 . S
C96 C95 1.369 . S
C96 C97 1.408 . S
C96 H118 0.930 . S
C97 C92 1.348 . S
C97 C96 1.408 . S
C97 H119 0.930 . S
C98 O108 1.281 . S
C98 O109 1.254 . S
C99 O110 1.236 . S
C99 O111 1.266 . S
O100 Tb80 2.484 . S
O100 C82 1.248 . S
O101 Tb80 2.440 . S
O101 C82 1.266 . S
O102 Tb80 2.658 . S
O102 Tb81 2.325 . S
O102 C89 1.281 . S
O103 Tb80 2.409 . S
O103 C89 1.254 . S
O104 Tb80 2.378 . S
O104 C90 1.236 . S
O105 Tb81 2.341 . S
O105 C90 1.266 . S
O106 Tb81 2.484 . S
O106 C91 1.248 . S
O107 Tb81 2.440 . S
O107 C91 1.266 . S
O108 Tb80 2.325 . S
O108 Tb81 2.658 . S
O108 C98 1.281 . S
O109 Tb81 2.409 . S
O109 C98 1.254 . S
O110 Tb81 2.378 . S
O110 C99 1.236 . S
O111 Tb80 2.341 . S
O111 C99 1.266 . S
H112 C84 0.929 . S
H113 C85 0.931 . S
H114 C87 0.930 . S
H115 C88 0.930 . S
H116 C93 0.929 . S
H117 C94 0.931 . S
H118 C96 0.930 . S
H119 C97 0.930 . S
H120 C127 0.929 . S
H121 C130 0.930 1_565 S
H122 C132 0.929 . S
H123 C124 0.969 . S
C124 H123 0.969 . S
C124 O125 1.550 . S
C124 H126 0.973 . S
O125 C124 1.550 . S
O125 C131 1.412 1_565 S
H126 C124 0.973 . S
C127 H120 0.929 . S
C127 C128 1.400 . S
C127 C129 1.364 . S
C128 C127 1.400 . S
C128 C132 1.377 . S
C129 C127 1.364 . S
C129 C130 1.374 . S
C130 H121 0.930 1_545 S
C130 C129 1.374 . S
C130 C131 1.383 . S
C131 O125 1.412 1_545 S
C131 C130 1.383 . S
C131 C132 1.394 . S
C132 H122 0.929 . S
C132 C128 1.377 . S
C132 C131 1.394 . S
H133 C140 0.929 . S
H134 C143 0.930 . S
H135 C145 0.929 . S
H136 C137 0.969 . S
C137 H136 0.969 . S
C137 O138 1.550 . S
C137 H139 0.973 . S
O138 C137 1.550 . S
O138 C144 1.412 . S
H139 C137 0.973 . S
C140 H133 0.929 . S
C140 C141 1.400 . S
C140 C142 1.364 . S
C141 C140 1.400 . S
C141 C145 1.377 . S
C142 C140 1.364 . S
C142 C143 1.374 . S
C143 H134 0.930 . S
C143 C142 1.374 . S
C143 C144 1.383 . S
C144 O138 1.412 . S
C144 C143 1.383 . S
C144 C145 1.394 . S
C145 H135 0.929 . S
C145 C141 1.377 . S
C145 C144 1.394 . S
H146 C153 0.929 . S
H147 C156 0.930 . S
H148 C158 0.929 . S
H149 C150 0.969 . S
C150 H149 0.969 . S
C150 O151 1.550 . S
C150 H152 0.973 . S
O151 C150 1.550 . S
O151 C157 1.412 . S
H152 C150 0.973 . S
C153 H146 0.929 . S
C153 C154 1.400 . S
C153 C155 1.364 1_655 S
C154 C153 1.400 . S
C154 C158 1.377 1_655 S
C155 C153 1.364 1_455 S
C155 C156 1.374 . S
C156 H147 0.930 . S
C156 C155 1.374 . S
C156 C157 1.383 . S
C157 O151 1.412 . S
C157 C156 1.383 . S
C157 C158 1.394 . S
C158 H148 0.929 . S
C158 C154 1.377 1_455 S
C158 C157 1.394 . S
H159 C166 0.929 1_655 S
H160 C169 0.930 . S
H161 C171 0.929 . S
H162 C163 0.969 . S
C163 H162 0.969 . S
C163 O164 1.550 . S
C163 H165 0.973 . S
O164 C163 1.550 . S
O164 C170 1.412 . S
H165 C163 0.973 . S
C166 H159 0.929 1_455 S
C166 C167 1.400 . S
C166 C168 1.364 . S
C167 C166 1.400 . S
C167 C171 1.377 . S
C168 C166 1.364 . S
C168 C169 1.374 . S
C169 H160 0.930 . S
C169 C168 1.374 . S
C169 C170 1.383 . S
C170 O164 1.412 . S
C170 C169 1.383 . S
C170 C171 1.394 . S
C171 H161 0.929 . S
C171 C167 1.377 . S
C171 C170 1.394 . S
H172 C179 0.929 . S
H173 C182 0.930 . S
H174 C184 0.929 . S
H175 C176 0.969 . S
C176 H175 0.969 . S
C176 O177 1.550 . S
C176 H178 0.973 . S
O177 C176 1.550 . S
O177 C183 1.412 . S
H178 C176 0.973 . S
C179 H172 0.929 . S
C179 C180 1.400 . S
C179 C181 1.364 1_565 S
C180 C179 1.400 . S
C180 C184 1.377 . S
C181 C179 1.364 1_545 S
C181 C182 1.374 . S
C182 H173 0.930 . S
C182 C181 1.374 . S
C182 C183 1.383 . S
C183 O177 1.412 . S
C183 C182 1.383 . S
C183 C184 1.394 1_545 S
C184 H174 0.929 . S
C184 C180 1.377 . S
C184 C183 1.394 1_565 S
H185 C192 0.929 . S
H186 C195 0.930 . S
H187 C197 0.929 . S
H188 C189 0.969 . S
C189 H188 0.969 . S
C189 O190 1.550 . S
C189 H191 0.973 . S
O190 C189 1.550 . S
O190 C196 1.412 . S
H191 C189 0.973 . S
C192 H185 0.929 . S
C192 C193 1.400 . S
C192 C194 1.364 . S
C193 C192 1.400 . S
C193 C197 1.377 . S
C194 C192 1.364 . S
C194 C195 1.374 . S
C195 H186 0.930 . S
C195 C194 1.374 . S
C195 C196 1.383 . S
C196 O190 1.412 . S
C196 C195 1.383 . S
C196 C197 1.394 . S
C197 H187 0.929 . S
C197 C193 1.377 . S
C197 C196 1.394 . S
C198 C199 1.387 . S
C198 H202 0.950 . S
C198 C207 1.390 . S
C199 C198 1.387 . S
C199 C201 1.387 . S
H200 C207 0.950 . S
C201 C199 1.387 . S
C201 C203 1.390 . S
C201 H205 0.950 . S
H202 C198 0.950 . S
C203 C201 1.390 . S
C203 C204 1.387 . S
C203 H206 0.950 . S
C204 C203 1.387 . S
C204 C207 1.387 . S
H205 C201 0.950 . S
H206 C203 0.950 . S
C207 C198 1.390 . S
C207 H200 0.950 . S
C207 C204 1.387 . S
C208 C209 1.387 . S
C208 H212 0.950 . S
C208 C217 1.390 . S
C209 C208 1.387 . S
C209 C211 1.387 . S
H210 C217 0.950 . S
C211 C209 1.387 . S
C211 C213 1.390 . S
C211 H215 0.950 . S
H212 C208 0.950 . S
C213 C211 1.390 . S
C213 C214 1.387 . S
C213 H216 0.950 . S
C214 C213 1.387 . S
C214 C217 1.387 . S
H215 C211 0.950 . S
H216 C213 0.950 . S
C217 C208 1.390 . S
C217 H210 0.950 . S
C217 C214 1.387 . S
C218 C219 1.387 . S
C218 H222 0.950 . S
C218 C227 1.390 . S
C219 C218 1.387 . S
C219 C221 1.387 . S
H220 C227 0.950 . S
C221 C219 1.387 . S
C221 C223 1.390 . S
C221 H225 0.950 . S
H222 C218 0.950 . S
C223 C221 1.390 . S
C223 C224 1.387 . S
C223 H226 0.950 . S
C224 C223 1.387 . S
C224 C227 1.387 . S
H225 C221 0.950 . S
H226 C223 0.950 . S
C227 C218 1.390 . S
C227 H220 0.950 . S
C227 C224 1.387 . S
C228 C229 1.387 . S
C228 H232 0.950 . S
C228 C237 1.390 . S
C229 C228 1.387 . S
C229 C231 1.387 . S
H230 C237 0.950 . S
C231 C229 1.387 . S
C231 C233 1.390 . S
C231 H235 0.950 . S
H232 C228 0.950 . S
C233 C231 1.390 . S
C233 C234 1.387 . S
C233 H236 0.950 . S
C234 C233 1.387 . S
C234 C237 1.387 . S
H235 C231 0.950 . S
H236 C233 0.950 . S
C237 C228 1.390 . S
C237 H230 0.950 . S
C237 C234 1.387 . S
C238 C239 1.387 . S
C238 H242 0.950 . S
C238 C247 1.390 . S
C239 C238 1.387 . S
C239 C241 1.387 . S
H240 C247 0.950 . S
C241 C239 1.387 . S
C241 C243 1.390 . S
C241 H245 0.950 . S
H242 C238 0.950 . S
C243 C241 1.390 . S
C243 C244 1.387 . S
C243 H246 0.950 . S
C244 C243 1.387 . S
C244 C247 1.387 . S
H245 C241 0.950 . S
H246 C243 0.950 . S
C247 C238 1.390 . S
C247 H240 0.950 . S
C247 C244 1.387 . S
C248 C249 1.387 . S
C248 H252 0.950 . S
C248 C257 1.390 . S
C249 C248 1.387 . S
C249 C251 1.387 . S
H250 C257 0.950 . S
C251 C249 1.387 . S
C251 C253 1.390 . S
C251 H255 0.950 . S
H252 C248 0.950 . S
C253 C251 1.390 . S
C253 C254 1.387 . S
C253 H256 0.950 . S
C254 C253 1.387 . S
C254 C257 1.387 . S
H255 C251 0.950 . S
H256 C253 0.950 . S
C257 C248 1.390 . S
C257 H250 0.950 . S
C257 C254 1.387 . S
C258 C259 1.387 . S
C258 H262 0.950 . S
C258 C267 1.390 . S
C259 C258 1.387 . S
C259 C261 1.387 . S
H260 C267 0.950 . S
C261 C259 1.387 . S
C261 C263 1.390 . S
C261 H265 0.950 . S
H262 C258 0.950 . S
C263 C261 1.390 . S
C263 C264 1.387 . S
C263 H266 0.950 . S
C264 C263 1.387 . S
C264 C267 1.387 . S
H265 C261 0.950 . S
H266 C263 0.950 . S
C267 C258 1.390 . S
C267 H260 0.950 . S
C267 C264 1.387 . S
C268 C269 1.387 . S
C268 H272 0.950 . S
C268 C277 1.390 . S
C269 C268 1.387 . S
C269 C271 1.387 . S
H270 C277 0.950 1_455 S
C271 C269 1.387 . S
C271 C273 1.390 . S
C271 H275 0.950 . S
H272 C268 0.950 . S
C273 C271 1.390 . S
C273 C274 1.387 . S
C273 H276 0.950 . S
C274 C273 1.387 . S
C274 C277 1.387 . S
H275 C271 0.950 . S
H276 C273 0.950 . S
C277 C268 1.390 . S
C277 H270 0.950 1_655 S
C277 C274 1.387 . S
C278 C279 1.387 . S
C278 H282 0.950 . S
C278 C287 1.390 . S
C279 C278 1.387 . S
C279 C281 1.387 . S
H280 C287 0.950 . S
C281 C279 1.387 . S
C281 C283 1.390 . S
C281 H285 0.950 . S
H282 C278 0.950 . S
C283 C281 1.390 . S
C283 C284 1.387 . S
C283 H286 0.950 . S
C284 C283 1.387 . S
C284 C287 1.387 . S
H285 C281 0.950 . S
H286 C283 0.950 . S
C287 C278 1.390 . S
C287 H280 0.950 . S
C287 C284 1.387 . S
C288 C289 1.387 . S
C288 H292 0.950 . S
C288 C297 1.390 . S
C289 C288 1.387 . S
C289 C291 1.387 . S
H290 C297 0.950 . S
C291 C289 1.387 . S
C291 C293 1.390 . S
C291 H295 0.950 . S
H292 C288 0.950 . S
C293 C291 1.390 . S
C293 C294 1.387 . S
C293 H296 0.950 . S
C294 C293 1.387 . S
C294 C297 1.387 . S
H295 C291 0.950 . S
H296 C293 0.950 . S
C297 C288 1.390 . S
C297 H290 0.950 . S
C297 C294 1.387 . S
C298 C299 1.387 . S
C298 H302 0.950 . S
C298 C307 1.390 . S
C299 C298 1.387 . S
C299 C301 1.387 . S
H300 C307 0.950 . S
C301 C299 1.387 . S
C301 C303 1.390 . S
C301 H305 0.950 . S
H302 C298 0.950 . S
C303 C301 1.390 . S
C303 C304 1.387 . S
C303 H306 0.950 . S
C304 C303 1.387 . S
C304 C307 1.387 . S
H305 C301 0.950 . S
H306 C303 0.950 . S
C307 C298 1.390 . S
C307 H300 0.950 . S
C307 C304 1.387 . S
C308 C309 1.387 . S
C308 H312 0.950 . S
C308 C317 1.390 . S
C309 C308 1.387 . S
C309 C311 1.387 . S
H310 C317 0.950 . S
C311 C309 1.387 . S
C311 C313 1.390 . S
C311 H315 0.950 . S
H312 C308 0.950 . S
C313 C311 1.390 . S
C313 C314 1.387 . S
C313 H316 0.950 . S
C314 C313 1.387 . S
C314 C317 1.387 . S
H315 C311 0.950 . S
H316 C313 0.950 . S
C317 C308 1.390 . S
C317 H310 0.950 . S
C317 C314 1.387 . S
C318 C319 1.387 . S
C318 H322 0.950 . S
C318 C327 1.390 1_554 S
C319 C318 1.387 . S
C319 C321 1.387 . S
H320 C327 0.950 . S
C321 C319 1.387 . S
C321 C323 1.390 . S
C321 H325 0.950 1_455 S
H322 C318 0.950 . S
C323 C321 1.390 . S
C323 C324 1.387 1_554 S
C323 H326 0.950 1_455 S
C324 C323 1.387 1_556 S
C324 C327 1.387 . S
H325 C321 0.950 1_655 S
H326 C323 0.950 1_655 S
C327 C318 1.390 1_556 S
C327 H320 0.950 . S
C327 C324 1.387 . S
C328 C329 1.387 1_565 S
C328 H332 0.950 . S
C328 C337 1.390 . S
C329 C328 1.387 1_545 S
C329 C331 1.387 . S
H330 C337 0.950 . S
C331 C329 1.387 . S
C331 C333 1.390 . S
C331 H335 0.950 . S
H332 C328 0.950 . S
C333 C331 1.390 . S
C333 C334 1.387 . S
C333 H336 0.950 . S
C334 C333 1.387 . S
C334 C337 1.387 1_545 S
H335 C331 0.950 . S
H336 C333 0.950 . S
C337 C328 1.390 . S
C337 H330 0.950 . S
C337 C334 1.387 1_565 S
C338 C339 1.387 . S
C338 H342 0.950 . S
C338 C347 1.390 . S
C339 C338 1.387 . S
C339 C341 1.387 . S
H340 C347 0.950 . S
C341 C339 1.387 . S
C341 C343 1.390 . S
C341 H345 0.950 . S
H342 C338 0.950 . S
C343 C341 1.390 . S
C343 C344 1.387 . S
C343 H346 0.950 . S
C344 C343 1.387 . S
C344 C347 1.387 . S
H345 C341 0.950 . S
H346 C343 0.950 . S
C347 C338 1.390 . S
C347 H340 0.950 . S
C347 C344 1.387 . S
C348 C349 1.387 . S
C348 H352 0.950 . S
C348 C357 1.390 . S
C349 C348 1.387 . S
C349 C351 1.387 1_545 S
H350 C357 0.950 . S
C351 C349 1.387 1_565 S
C351 C353 1.390 . S
C351 H355 0.950 . S
H352 C348 0.950 . S
C353 C351 1.390 . S
C353 C354 1.387 1_565 S
C353 H356 0.950 . S
C354 C353 1.387 1_545 S
C354 C357 1.387 . S
H355 C351 0.950 . S
H356 C353 0.950 . S
C357 C348 1.390 . S
C357 H350 0.950 . S
C357 C354 1.387 . S
C358 C359 1.387 . S
C358 H362 0.950 . S
C358 C367 1.390 . S
C359 C358 1.387 . S
C359 C361 1.387 . S
H360 C367 0.950 1_554 S
C361 C359 1.387 . S
C361 C363 1.384 1_556 S
C361 H365 0.950 . S
H362 C358 0.950 . S
C363 C361 1.384 1_554 S
C363 C364 1.391 . S
C363 H366 0.953 . S
C364 C363 1.391 . S
C364 C367 1.387 1_554 S
H365 C361 0.950 . S
H366 C363 0.953 . S
C367 C358 1.390 . S
C367 H360 0.950 1_556 S
C367 C364 1.387 1_556 S
C368 C369 1.387 . S
C368 H372 0.950 . S
C368 C377 1.390 . S
C369 C368 1.387 . S
C369 C371 1.387 . S
H370 C377 0.950 . S
C371 C369 1.387 . S
C371 C373 1.390 . S
C371 H375 0.950 1_455 S
H372 C368 0.950 . S
C373 C371 1.390 . S
C373 C374 1.387 . S
C373 H376 0.950 . S
C374 C373 1.387 . S
C374 C377 1.387 . S
H375 C371 0.950 1_655 S
H376 C373 0.950 . S
C377 C368 1.390 . S
C377 H370 0.950 . S
C377 C374 1.387 . S
C199 C10 3.090 . S
C204 C189 2.898 . S
C209 C59 3.055 . S
C214 C167 3.017 1_655 S
C219 C90 3.010 . S
C224 C180 2.981 . S
C229 C19 3.064 . S
C234 C193 3.028 . S
C244 C163 2.916 . S
C239 C50 3.100 . S
C254 C176 2.955 . S
C249 C99 3.162 . S
C259 C46 0.542 . S
C264 C141 0.450 . S
C269 C95 0.680 . S
C274 C154 0.626 . S
C279 C6 0.752 . S
C284 C124 0.761 . S
C294 C137 0.751 . S
C289 C55 0.749 . S
C304 C150 0.886 . S
C299 C86 0.841 . S
C309 C15 0.662 . S
C314 C128 0.596 . S
C324 C155 1.149 . S
C319 C9 1.144 . S
C329 C49 1.187 . S
C334 C129 1.182 . S
C339 C89 1.064 . S
C344 C142 1.106 . S
C354 C181 1.832 . S
C349 C58 1.708 . S
C364 C194 1.771 . S
C359 C98 1.723 . S
C369 C18 1.719 . S
C374 C168 1.794 . S
