# Generated by pormake.
# Topology pth, (4,4)-cn, num edge types: 1
# Building blocks:
#     Node 0, Type 0, BuildingBlock: QUQFOY_clean_sbu_1, # of connection points: 4
#     Node 1, Type 0, BuildingBlock: QUQFOY_clean_sbu_1, # of connection points: 4
#     Node 2, Type 0, BuildingBlock: QUQFOY_clean_sbu_1, # of connection points: 4
#     Node 3, Type 1, BuildingBlock: AZAVOO_clean_linker_0, # of connection points: 4
#     Node 4, Type 1, BuildingBlock: AZAVOO_clean_linker_0, # of connection points: 4
#     Node 5, Type 1, BuildingBlock: AZAVOO_clean_linker_0, # of connection points: 4
#     Edge 6, Type (0, 1), BuildingBlock: MIFKUJ_clean_linker_0, # of connection points: 2
#     Edge 7, Type (0, 1), BuildingBlock: MIFKUJ_clean_linker_0, # of connection points: 2
#     Edge 8, Type (0, 1), BuildingBlock: MIFKUJ_clean_linker_0, # of connection points: 2
#     Edge 9, Type (0, 1), BuildingBlock: MIFKUJ_clean_linker_0, # of connection points: 2
#     Edge 10, Type (0, 1), BuildingBlock: MIFKUJ_clean_linker_0, # of connection points: 2
#     Edge 11, Type (0, 1), BuildingBlock: MIFKUJ_clean_linker_0, # of connection points: 2
#     Edge 12, Type (0, 1), BuildingBlock: MIFKUJ_clean_linker_0, # of connection points: 2
#     Edge 13, Type (0, 1), BuildingBlock: MIFKUJ_clean_linker_0, # of connection points: 2
#     Edge 14, Type (0, 1), BuildingBlock: MIFKUJ_clean_linker_0, # of connection points: 2
#     Edge 15, Type (0, 1), BuildingBlock: MIFKUJ_clean_linker_0, # of connection points: 2
#     Edge 16, Type (0, 1), BuildingBlock: MIFKUJ_clean_linker_0, # of connection points: 2
#     Edge 17, Type (0, 1), BuildingBlock: MIFKUJ_clean_linker_0, # of connection points: 2
# Relax obj value: 0.108
# Max RMSD: 0.231
# Mean RMSD: 0.169
data_MOF--net-pth--node1-QUQFOY_clean_sbu_1--node2-AZAVOO_clean_linker_0--edge1-MIFKUJ_clean_linker_0
_symmetry_space_group_name_H-M    P1
_symmetry_Int_Tables_number       1
_symmetry_cell_setting            triclinic
loop_
_symmetry_equiv_pos_as_xyz
'x, y, z'
_cell_length_a     31.531147
_cell_length_b     34.710207
_cell_length_c     91.351165
_cell_angle_alpha  92.356189
_cell_angle_beta   88.977556
_cell_angle_gamma 120.37906
loop_
_atom_site_label
_atom_site_type_symbol
_atom_site_fract_x
_atom_site_fract_y
_atom_site_fract_z
_atom_type_partial_charge
O0 O 0.10557 0.11627 0.02159 0.0
Cd1 Cd 0.04222 0.06724 0.03103 0.0
Cd2 Cd 0.08784 0.02078 0.02731 0.0
O3 O 0.14537 0.07921 0.01982 0.0
O4 O 0.01033 0.09909 0.04021 0.0
O5 O 0.03958 0.06478 0.05299 0.0
C6 C 0.01899 0.08881 0.05277 0.0
C7 C 0.09838 0.98413 0.04634 0.0
C8 C 0.14371 0.11451 0.01801 0.0
C9 C 0.9944 0.98735 0.01048 0.0
O10 O 0.03141 0.98313 0.01281 0.0
O11 O 0.99013 0.018 0.01721 0.0
O12 O 0.11383 0.9822 0.0333 0.0
O13 O 0.07787 0.00797 0.04862 0.0
O14 O -0.00046 0.07159 0.3696 0.0
Cd15 Cd 0.05215 0.0867 0.35372 0.0
Cd16 Cd 0.01837 0.99686 0.3549 0.0
O17 O 0.96759 0.99848 0.36904 0.0
O18 O 0.06722 0.14592 0.34697 0.0
O19 O 0.03524 0.08508 0.33247 0.0
C20 C 0.05028 0.1272 0.33428 0.0
C21 C 0.99364 0.93375 0.33942 0.0
C22 C 0.96819 0.03337 0.37414 0.0
C23 C 0.12367 0.06294 0.36435 0.0
O24 O 0.08854 0.02284 0.36292 0.0
O25 O 0.11801 0.09497 0.3607 0.0
O26 O 0.99731 0.93236 0.35337 0.0
O27 O 0.00218 0.97097 0.33416 0.0
O28 O 0.98521 0.0088 0.67745 0.0
Cd29 Cd 0.02689 0.00026 0.69259 0.0
Cd30 Cd 0.07603 0.08994 0.69451 0.0
O31 O 0.01771 0.08123 0.6819 0.0
O32 O 0.98544 0.93974 0.70036 0.0
O33 O 0.01142 0.00219 0.71388 0.0
C34 C 0.98622 0.95902 0.71282 0.0
C35 C 0.10664 0.14394 0.71351 0.0
C36 C 0.98618 0.04516 0.67533 0.0
C37 C 0.13021 0.04392 0.68284 0.0
O38 O 0.12993 0.08019 0.685 0.0
O39 O 0.09248 0.00675 0.68568 0.0
O40 O 0.11235 0.15475 0.7 0.0
O41 O 0.08107 0.10204 0.71633 0.0
H42 H 0.0018 0.47675 0.09527 0.0
H43 H 0.09839 0.81033 0.22455 0.0
H44 H 0.94135 0.42865 0.17538 0.0
H45 H 0.93131 0.36094 0.16289 0.0
H46 H 0.08353 0.40456 0.17202 0.0
H47 H 0.09237 0.47136 0.18506 0.0
H48 H 0.96365 0.51328 0.15567 0.0
H49 H 0.96634 0.49676 0.12947 0.0
H50 H 0.10949 0.51106 0.13537 0.0
H51 H 0.10648 0.52798 0.16151 0.0
H52 H 0.9735 0.59861 0.17351 0.0
H53 H 0.98803 0.65695 0.15659 0.0
H54 H 0.13456 0.68047 0.14844 0.0
H55 H 0.11974 0.62215 0.16547 0.0
H56 H 0.95908 0.59421 0.20523 0.0
H57 H 0.96602 0.66358 0.21531 0.0
H58 H 0.12351 0.73126 0.20913 0.0
H59 H 0.11605 0.66141 0.19926 0.0
H60 H 0.93841 0.51372 0.22052 0.0
H61 H 0.92214 0.54721 0.24245 0.0
H62 H 0.07823 0.63487 0.24892 0.0
H63 H 0.09419 0.60159 0.22689 0.0
H64 H 0.94424 0.42385 0.2066 0.0
H65 H 0.94089 0.36904 0.2234 0.0
H66 H 0.08953 0.46325 0.23749 0.0
H67 H 0.09248 0.51762 0.2207 0.0
O68 O 0.00161 0.4836 0.10564 0.0
O69 O 0.07506 0.49119 0.10927 0.0
O70 O 0.01359 0.74584 0.2238 0.0
O71 O 0.09453 0.78259 0.22044 0.0
C72 C 0.02494 0.49845 0.18654 0.0
C73 C 0.03262 0.531 0.17637 0.0
C74 C 0.03721 0.57196 0.18132 0.0
C75 C 0.0331 0.57998 0.19639 0.0
C76 C 0.02557 0.54746 0.20656 0.0
C77 C 0.02232 0.50698 0.20168 0.0
C78 C 0.01757 0.45477 0.18105 0.0
C79 C 0.97212 0.42294 0.17496 0.0
C80 C 0.96665 0.38454 0.16773 0.0
C81 C 0.00684 0.37763 0.16624 0.0
C82 C 0.05172 0.4086 0.17306 0.0
C83 C 0.05696 0.44685 0.18046 0.0
C84 C 0.0348 0.5217 0.16045 0.0
C85 C 0.99561 0.51298 0.15125 0.0
C86 C 0.99722 0.50347 0.13631 0.0
C87 C 0.0381 0.5025 0.13032 0.0
C88 C 0.07743 0.51146 0.13962 0.0
C89 C 0.07579 0.52105 0.15455 0.0
C90 C 0.04564 0.60635 0.17073 0.0
C91 C 0.00876 0.6165 0.1681 0.0
C92 C 0.01719 0.64987 0.15849 0.0
C93 C 0.06252 0.67337 0.15126 0.0
C94 C 0.09917 0.66267 0.15378 0.0
C95 C 0.09082 0.6295 0.16349 0.0
C96 C 0.0371 0.62281 0.20161 0.0
C97 C 0.99502 0.62408 0.20606 0.0
C98 C 0.9991 0.66374 0.2118 0.0
C99 C 0.04538 0.70295 0.21309 0.0
C100 C 0.08736 0.70167 0.20834 0.0
C101 C 0.08322 0.6619 0.20265 0.0
C102 C 0.01743 0.5554 0.22213 0.0
C103 C 0.9691 0.53867 0.22706 0.0
C104 C 0.95986 0.55811 0.23947 0.0
C105 C 0.99894 0.59394 0.2472 0.0
C106 C 0.0475 0.60715 0.24317 0.0
C107 C 0.0567 0.58806 0.23065 0.0
C108 C 0.01865 0.4746 0.21242 0.0
C109 C 0.97598 0.43256 0.21334 0.0
C110 C 0.97422 0.40131 0.22289 0.0
C111 C 0.015 0.41181 0.23174 0.0
C112 C 0.05733 0.45433 0.23094 0.0
C113 C 0.05913 0.48539 0.22135 0.0
C114 C 0.03956 0.49213 0.11446 0.0
C115 C 0.04999 0.74498 0.21942 0.0
H116 H 0.53403 0.9803 0.43052 0.0
H117 H 0.33226 0.15608 0.55035 0.0
H118 H 0.55971 0.97123 0.51011 0.0
H119 H 0.61544 0.955 0.49572 0.0
H120 H 0.73185 0.0921 0.5026 0.0
H121 H 0.67593 0.10776 0.51713 0.0
H122 H 0.48448 0.98661 0.4922 0.0
H123 H 0.49189 0.97253 0.4661 0.0
H124 H 0.63082 0.09675 0.46496 0.0
H125 H 0.6226 0.11067 0.49108 0.0
H126 H 0.41513 0.01465 0.50802 0.0
H127 H 0.36804 0.0212 0.48824 0.0
H128 H 0.49761 0.14249 0.47511 0.0
H129 H 0.54382 0.13638 0.49523 0.0
H130 H 0.41856 0.01605 0.54254 0.0
H131 H 0.3542 0.03111 0.55111 0.0
H132 H 0.43812 0.16505 0.53518 0.0
H133 H 0.50247 0.14969 0.52683 0.0
H134 H 0.49839 0.9981 0.55772 0.0
H135 H 0.4691 0.99538 0.58279 0.0
H136 H 0.51244 0.13501 0.58161 0.0
H137 H 0.5441 0.13789 0.55681 0.0
H138 H 0.57068 0.98517 0.54431 0.0
H139 H 0.62348 0.98262 0.5631 0.0
H140 H 0.70039 0.12695 0.56777 0.0
H141 H 0.64578 0.12867 0.5495 0.0
O142 O 0.532 0.98648 0.44086 0.0
O143 O 0.60036 0.05291 0.44046 0.0
O144 O 0.31552 0.08008 0.5551 0.0
O145 O 0.35712 0.14921 0.54705 0.0
C146 C 0.57732 0.05281 0.51974 0.0
C147 C 0.54793 0.05778 0.50937 0.0
C148 C 0.51244 0.06887 0.51408 0.0
C149 C 0.50462 0.07283 0.52919 0.0
C150 C 0.53387 0.06748 0.53958 0.0
C151 C 0.57114 0.05874 0.53481 0.0
C152 C 0.61388 0.04067 0.51455 0.0
C153 C 0.59774 0.99727 0.50892 0.0
C154 C 0.62945 0.98819 0.50063 0.0
C155 C 0.67775 0.02244 0.49788 0.0
C156 C 0.69496 0.06496 0.50463 0.0
C157 C 0.66314 0.07401 0.51292 0.0
C158 C 0.55297 0.04963 0.4935 0.0
C159 C 0.51641 0.01078 0.48628 0.0
C160 C 0.52081 0.00278 0.47138 0.0
C161 C 0.56191 0.03354 0.46344 0.0
C162 C 0.59863 0.07244 0.47075 0.0
C163 C 0.59412 0.08042 0.48566 0.0
C164 C 0.48276 0.07507 0.50303 0.0
C165 C 0.43298 0.04303 0.50103 0.0
C166 C 0.40637 0.0466 0.48964 0.0
C167 C 0.42924 0.08218 0.48004 0.0
C168 C 0.47881 0.11495 0.48239 0.0
C169 C 0.50532 0.11142 0.49381 0.0
C170 C 0.46519 0.08183 0.53411 0.0
C171 C 0.42299 0.04864 0.54095 0.0
C172 C 0.38628 0.05732 0.54581 0.0
C173 C 0.39104 0.09933 0.54384 0.0
C174 C 0.43329 0.13238 0.53688 0.0
C175 C 0.47005 0.12368 0.53207 0.0
C176 C 0.52315 0.06814 0.55544 0.0
C177 C 0.50292 0.02842 0.56305 0.0
C178 C 0.48568 0.02681 0.57731 0.0
C179 C 0.48777 0.0648 0.58414 0.0
C180 C 0.51063 0.10523 0.57675 0.0
C181 C 0.52841 0.10691 0.56253 0.0
C182 C 0.60449 0.05708 0.54563 0.0
C183 C 0.59905 0.01613 0.54941 0.0
C184 C 0.62945 0.01484 0.56009 0.0
C185 C 0.66623 0.05461 0.56701 0.0
C186 C 0.6719 0.09562 0.56292 0.0
C187 C 0.64108 0.09677 0.5524 0.0
C188 C 0.56613 0.02505 0.44757 0.0
C189 C 0.35219 0.10877 0.54902 0.0
H190 H 0.5634 0.63782 0.96012 0.0
H191 H 0.35207 0.26021 0.84024 0.0
H192 H 0.56325 0.65525 0.88045 0.0
H193 H 0.61832 0.72366 0.89463 0.0
H194 H 0.73862 0.69999 0.88605 0.0
H195 H 0.68319 0.63162 0.87184 0.0
H196 H 0.49839 0.57668 0.89973 0.0
H197 H 0.51222 0.60136 0.92556 0.0
H198 H 0.65027 0.6029 0.92436 0.0
H199 H 0.63569 0.5778 0.89853 0.0
H200 H 0.42866 0.48635 0.88651 0.0
H201 H 0.38559 0.43703 0.90674 0.0
H202 H 0.51368 0.42623 0.91497 0.0
H203 H 0.55636 0.47547 0.89466 0.0
H204 H 0.42172 0.47539 0.85164 0.0
H205 H 0.36035 0.40016 0.8428 0.0
H206 H 0.45529 0.35117 0.8558 0.0
H207 H 0.5167 0.42677 0.86439 0.0
H208 H 0.48953 0.55713 0.83372 0.0
H209 H 0.44322 0.51455 0.81189 0.0
H210 H 0.51057 0.43299 0.81351 0.0
H211 H 0.55671 0.47581 0.83539 0.0
H212 H 0.57698 0.65399 0.848 0.0
H213 H 0.62954 0.70703 0.82966 0.0
H214 H 0.69428 0.62514 0.81954 0.0
H215 H 0.64157 0.57239 0.83782 0.0
O216 O 0.55874 0.62814 0.94989 0.0
O217 O 0.62595 0.62257 0.94925 0.0
O218 O 0.32837 0.31722 0.83715 0.0
O219 O 0.3753 0.2901 0.84391 0.0
C220 C 0.58361 0.59181 0.87063 0.0
C221 C 0.55746 0.56087 0.88158 0.0
C222 C 0.52243 0.51634 0.87762 0.0
C223 C 0.51252 0.50284 0.86274 0.0
C224 C 0.53922 0.53362 0.85175 0.0
C225 C 0.57533 0.57802 0.85569 0.0
C226 C 0.61932 0.63855 0.87522 0.0
C227 C 0.60191 0.66579 0.88119 0.0
C228 C 0.63325 0.70457 0.88936 0.0
C229 C 0.6825 0.71671 0.89159 0.0
C230 C 0.70089 0.69155 0.88442 0.0
C231 C 0.66939 0.65258 0.87629 0.0
C232 C 0.56598 0.5754 0.89731 0.0
C233 C 0.53147 0.58218 0.90509 0.0
C234 C 0.53956 0.59643 0.91983 0.0
C235 C 0.58231 0.60404 0.92703 0.0
C236 C 0.61688 0.5972 0.91915 0.0
C237 C 0.60872 0.58295 0.90441 0.0
C238 C 0.49541 0.48422 0.88917 0.0
C239 C 0.44712 0.47294 0.89261 0.0
C240 C 0.42284 0.44516 0.90421 0.0
C241 C 0.44646 0.42805 0.91244 0.0
C242 C 0.49454 0.43871 0.90873 0.0
C243 C 0.51893 0.4668 0.8972 0.0
C244 C 0.47363 0.45647 0.8586 0.0
C245 C 0.42904 0.44829 0.85264 0.0
C246 C 0.3941 0.40532 0.84759 0.0
C247 C 0.403 0.36966 0.84855 0.0
C248 C 0.44731 0.37787 0.85487 0.0
C249 C 0.48233 0.42093 0.85985 0.0
C250 C 0.52599 0.51919 0.83619 0.0
C251 C 0.49596 0.53142 0.82897 0.0
C252 C 0.46935 0.50688 0.81653 0.0
C253 C 0.47253 0.46984 0.81121 0.0
C254 C 0.50676 0.46086 0.81756 0.0
C255 C 0.53352 0.48555 0.82994 0.0
C256 C 0.60557 0.60942 0.84424 0.0
C257 C 0.60256 0.64761 0.84181 0.0
C258 C 0.63269 0.67789 0.83138 0.0
C259 C 0.66609 0.67028 0.82316 0.0
C260 C 0.66851 0.63166 0.82555 0.0
C261 C 0.63855 0.60156 0.83601 0.0
C262 C 0.59052 0.61885 0.94271 0.0
C263 C 0.36651 0.32416 0.84286 0.0
H264 H 0.96163 0.12641 0.05594 0.0
H265 H 0.95549 0.16748 0.07739 0.0
H266 H 0.04914 0.13576 0.10176 0.0
H267 H 0.05452 0.09348 0.08033 0.0
H268 H 0.97707 0.13646 0.11919 0.0
H269 H 0.09937 0.23317 0.08554 0.0
H270 H 0.13205 0.26442 0.06142 0.0
H271 H 0.02657 0.30746 0.05872 0.0
H272 H 0.99275 0.27585 0.08274 0.0
H273 H 0.04681 0.32419 0.17016 0.0
H274 H 0.04613 0.26826 0.15273 0.0
H275 H 0.95726 0.29146 0.12299 0.0
H276 H 0.95964 0.34843 0.13991 0.0
H277 H 0.03357 0.29478 0.10935 0.0
H278 H 0.91 0.19565 0.14314 0.0
H279 H 0.87885 0.16465 0.1674 0.0
H280 H 0.9894 0.12772 0.17025 0.0
H281 H 0.02162 0.15905 0.14608 0.0
C282 C 0.98024 0.12748 0.06593 0.0
C283 C 0.00913 0.10728 0.0664 0.0
C284 C 0.97676 0.15102 0.07817 0.0
C285 C 0.0028 0.15552 0.09104 0.0
C286 C 0.029 0.13288 0.09189 0.0
C287 C 0.03209 0.10883 0.07965 0.0
C288 C 0.00589 0.18698 0.10301 0.0
C289 C 0.98995 0.17122 0.11712 0.0
C290 C 0.02265 0.2323 0.10027 0.0
C291 C 0.04328 0.25182 0.08589 0.0
C292 C 0.08294 0.24905 0.07976 0.0
C293 C 0.10169 0.26685 0.06611 0.0
C294 C 0.08133 0.28783 0.05853 0.0
C295 C 0.04227 0.29116 0.0646 0.0
C296 C 0.02333 0.27334 0.07824 0.0
C297 C 0.02708 0.31728 0.15992 0.0
C298 C 0.00313 0.34072 0.15647 0.0
C299 C 0.02631 0.28501 0.15003 0.0
C300 C 0.00134 0.27548 0.1366 0.0
C301 C 0.97665 0.29818 0.13331 0.0
C302 C 0.97761 0.33047 0.14309 0.0
C303 C 0.00315 0.24404 0.12546 0.0
C304 C 0.02063 0.26003 0.11148 0.0
C305 C 0.98809 0.19917 0.12839 0.0
C306 C 0.96854 0.18011 0.14288 0.0
C307 C 0.92791 0.18123 0.14899 0.0
C308 C 0.91001 0.16355 0.16271 0.0
C309 C 0.93222 0.14435 0.17038 0.0
C310 C 0.97228 0.14267 0.16431 0.0
C311 C 0.99034 0.16035 0.1506 0.0
H312 H 0.91832 0.13068 0.181 0.0
H313 H 0.09589 0.30158 0.04796 0.0
H314 H 0.96471 0.10167 0.38894 0.0
H315 H 0.91637 0.09708 0.41061 0.0
H316 H 0.84817 0.95342 0.40863 0.0
H317 H 0.89724 0.95771 0.38707 0.0
H318 H 0.82233 0.06073 0.41576 0.0
H319 H 0.82789 0.91575 0.44346 0.0
H320 H 0.88217 0.88388 0.44449 0.0
H321 H 0.00673 0.01091 0.43424 0.0
H322 H 0.95335 0.04366 0.43333 0.0
H323 H 0.64681 0.98142 0.47104 0.0
H324 H 0.69708 0.97933 0.45078 0.0
H325 H 0.82655 0.04833 0.47808 0.0
H326 H 0.77608 0.04987 0.49862 0.0
H327 H 0.82656 0.98192 0.45936 0.0
H328 H 0.80487 0.10769 0.45725 0.0
H329 H 0.75897 0.14783 0.45733 0.0
H330 H 0.68232 0.07437 0.41822 0.0
H331 H 0.72693 0.03296 0.4181 0.0
C332 C 0.93919 0.06901 0.39302 0.0
C333 C 0.93505 0.03005 0.38631 0.0
C334 C 0.91156 0.06648 0.40542 0.0
C335 C 0.87925 0.02499 0.41137 0.0
C336 C 0.87362 0.98586 0.40439 0.0
C337 C 0.90144 0.98837 0.392 0.0
C338 C 0.8518 0.0229 0.42493 0.0
C339 C 0.82316 0.04336 0.42526 0.0
C340 C 0.85393 0.00123 0.43747 0.0
C341 C 0.88648 0.98199 0.43818 0.0
C342 C 0.86688 0.93691 0.44147 0.0
C343 C 0.8975 0.91869 0.44202 0.0
C344 C 0.94784 0.94531 0.43937 0.0
C345 C 0.96771 0.99027 0.43622 0.0
C346 C 0.93727 0.00866 0.43567 0.0
C347 C 0.68574 0.99499 0.4729 0.0
C348 C 0.70756 0.01578 0.48643 0.0
C349 C 0.71445 0.99407 0.46127 0.0
C350 C 0.76549 0.01408 0.46292 0.0
C351 C 0.78715 0.03274 0.47662 0.0
C352 C 0.75841 0.03384 0.48829 0.0
C353 C 0.79636 0.01881 0.44998 0.0
C354 C 0.82563 0.999 0.4498 0.0
C355 C 0.79603 0.04221 0.4377 0.0
C356 C 0.7689 0.06688 0.43775 0.0
C357 C 0.77784 0.09973 0.44875 0.0
C358 C 0.75211 0.12276 0.44879 0.0
C359 C 0.71776 0.11366 0.43779 0.0
C360 C 0.70897 0.0814 0.42673 0.0
C361 C 0.73441 0.05808 0.42669 0.0
H362 H 0.69797 0.13163 0.43782 0.0
H363 H 0.97145 0.93114 0.4398 0.0
H364 H 0.93302 0.86827 0.71388 0.0
H365 H 0.87994 0.82358 0.73357 0.0
H366 H 0.91922 0.94367 0.75954 0.0
H367 H 0.97322 0.98891 0.73986 0.0
H368 H 0.9159 0.87822 0.77603 0.0
H369 H 0.81119 0.89101 0.74187 0.0
H370 H 0.77626 0.88757 0.71759 0.0
H371 H 0.72404 0.74689 0.71339 0.0
H372 H 0.7593 0.74962 0.73756 0.0
H373 H 0.71733 0.76169 0.82585 0.0
H374 H 0.77224 0.81457 0.80787 0.0
H375 H 0.74425 0.7047 0.77796 0.0
H376 H 0.68836 0.65178 0.7957 0.0
H377 H 0.74078 0.77047 0.76422 0.0
H378 H 0.84988 0.7592 0.79793 0.0
H379 H 0.88494 0.76314 0.82224 0.0
H380 H 0.92827 0.9018 0.82741 0.0
H381 H 0.89283 0.89851 0.8032 0.0
C382 C 0.93071 0.88528 0.7238 0.0
C383 C 0.95707 0.93218 0.72526 0.0
C384 C 0.90016 0.85965 0.73503 0.0
C385 C 0.89495 0.88034 0.7479 0.0
C386 C 0.92255 0.92709 0.74965 0.0
C387 C 0.95331 0.95285 0.73839 0.0
C388 C 0.85983 0.8529 0.75933 0.0
C389 C 0.87742 0.85518 0.77353 0.0
C390 C 0.80977 0.82245 0.756 0.0
C391 C 0.78825 0.82061 0.74148 0.0
C392 C 0.79257 0.85941 0.73572 0.0
C393 C 0.77266 0.85757 0.72199 0.0
C394 C 0.74804 0.81706 0.71394 0.0
C395 C 0.74316 0.77826 0.71963 0.0
C396 C 0.76306 0.77992 0.73336 0.0
C397 C 0.7225 0.74885 0.81538 0.0
C398 C 0.69864 0.70255 0.8122 0.0
C399 C 0.75422 0.77907 0.80518 0.0
C400 C 0.76274 0.76352 0.79165 0.0
C401 C 0.73832 0.71739 0.78836 0.0
C402 C 0.7067 0.68719 0.79855 0.0
C403 C 0.79701 0.79513 0.78084 0.0
C404 C 0.77918 0.79372 0.76676 0.0
C405 C 0.84674 0.82642 0.78431 0.0
C406 C 0.86823 0.82847 0.79883 0.0
C407 C 0.86653 0.79043 0.8043 0.0
C408 C 0.88653 0.79257 0.81805 0.0
C409 C 0.90869 0.83266 0.82638 0.0
C410 C 0.91102 0.87074 0.82096 0.0
C411 C 0.89101 0.86877 0.80722 0.0
H412 H 0.92416 0.83425 0.83703 0.0
H413 H 0.73265 0.81571 0.7033 0.0
H414 H 0.1358 0.92843 0.04433 0.0
H415 H 0.13481 0.87972 0.06301 0.0
H416 H 0.06743 0.93078 0.0935 0.0
H417 H 0.06851 0.98002 0.07485 0.0
H418 H 0.13953 0.91986 0.10647 0.0
H419 H 0.99678 0.83446 0.07618 0.0
H420 H 0.9513 0.80385 0.05292 0.0
H421 H 0.0315 0.73614 0.04341 0.0
H422 H 0.07801 0.76691 0.06652 0.0
H423 H 0.0403 0.73957 0.15537 0.0
H424 H 0.05214 0.79634 0.13814 0.0
H425 H 0.11691 0.74427 0.10704 0.0
H426 H 0.10436 0.68688 0.12412 0.0
H427 H 0.0471 0.75677 0.09459 0.0
H428 H 0.18845 0.84101 0.12552 0.0
H429 H 0.23286 0.87147 0.14893 0.0
H430 H 0.15399 0.94085 0.15757 0.0
H431 H 0.10856 0.91027 0.13429 0.0
C432 C 0.1212 0.92969 0.05505 0.0
C433 C 0.10184 0.95781 0.05808 0.0
C434 C 0.12057 0.90174 0.06569 0.0
C435 C 0.10043 0.90125 0.07955 0.0
C436 C 0.083 0.93063 0.08284 0.0
C437 C 0.08353 0.95861 0.07217 0.0
C438 C 0.09552 0.86852 0.09031 0.0
C439 C 0.11886 0.88417 0.10397 0.0
C440 C 0.06923 0.82205 0.0869 0.0
C441 C 0.04123 0.80337 0.07301 0.0
C442 C 0.00502 0.81335 0.06907 0.0
C443 C 0.979 0.79592 0.05592 0.0
C444 C 0.9886 0.76817 0.04667 0.0
C445 C 0.02416 0.7577 0.05057 0.0
C446 C 0.05034 0.7751 0.0637 0.0
C447 C 0.05698 0.7402 0.14484 0.0
C448 C 0.07134 0.70878 0.14106 0.0
C449 C 0.06412 0.77286 0.13508 0.0
C450 C 0.08576 0.77469 0.12138 0.0
C451 C 0.1003 0.74348 0.11759 0.0
C452 C 0.09339 0.71094 0.12738 0.0
C453 C 0.09141 0.80802 0.11075 0.0
C454 C 0.06796 0.79245 0.0971 0.0
C455 C 0.11744 0.85448 0.11422 0.0
C456 C 0.14474 0.87297 0.12822 0.0
C457 C 0.18025 0.86244 0.13247 0.0
C458 C 0.20567 0.8798 0.14571 0.0
C459 C 0.19616 0.90798 0.15475 0.0
C460 C 0.16128 0.91896 0.15056 0.0
C461 C 0.13571 0.90166 0.13734 0.0
H462 H 0.21589 0.9214 0.165 0.0
H463 H 0.9684 0.75469 0.03651 0.0
H464 H 0.15209 0.00316 0.37044 0.0
H465 H 0.21388 0.01346 0.38827 0.0
H466 H 0.25786 0.15261 0.39432 0.0
H467 H 0.19599 0.14274 0.37636 0.0
H468 H 0.33731 0.13401 0.39641 0.0
H469 H 0.17746 0.08804 0.41635 0.0
H470 H 0.08715 0.04145 0.41738 0.0
H471 H 0.09871 0.92514 0.42358 0.0
H472 H 0.18916 0.97096 0.42232 0.0
H473 H 0.43076 0.1555 0.46929 0.0
H474 H 0.38675 0.15798 0.44785 0.0
H475 H 0.3227 0.01569 0.44049 0.0
H476 H 0.36689 0.013 0.46173 0.0
H477 H 0.25472 0.04119 0.43924 0.0
H478 H 0.41548 0.08803 0.41931 0.0
H479 H 0.50572 0.13519 0.41809 0.0
H480 H 0.49271 0.25092 0.41226 0.0
H481 H 0.40236 0.20452 0.41366 0.0
C482 C 0.17567 0.03626 0.37526 0.0
C483 C 0.16851 0.07195 0.37221 0.0
C484 C 0.21098 0.04206 0.38544 0.0
C485 C 0.23956 0.08354 0.39279 0.0
C486 C 0.23588 0.12031 0.38878 0.0
C487 C 0.20049 0.11456 0.37853 0.0
C488 C 0.26812 0.0866 0.40587 0.0
C489 C 0.31938 0.11423 0.40587 0.0
C490 C 0.24446 0.06047 0.41812 0.0
C491 C 0.19008 0.03287 0.4191 0.0
C492 C 0.16074 0.05247 0.41782 0.0
C493 C 0.10952 0.02622 0.41846 0.0
C494 C 0.08719 0.98035 0.42052 0.0
C495 C 0.11606 0.96067 0.42198 0.0
C496 C 0.16731 0.98677 0.4213 0.0
C497 C 0.4076 0.12482 0.46303 0.0
C498 C 0.40212 0.08401 0.46724 0.0
C499 C 0.38252 0.12631 0.4508 0.0
C500 C 0.35177 0.08706 0.44255 0.0
C501 C 0.34616 0.04633 0.44675 0.0
C502 C 0.3712 0.04482 0.45894 0.0
C503 C 0.32424 0.08792 0.42974 0.0
C504 C 0.27287 0.06112 0.42982 0.0
C505 C 0.34789 0.11499 0.41765 0.0
C506 C 0.40218 0.14288 0.41675 0.0
C507 C 0.43188 0.1236 0.41789 0.0
C508 C 0.48304 0.15018 0.41715 0.0
C509 C 0.50494 0.19604 0.41514 0.0
C510 C 0.4757 0.2154 0.41384 0.0
C511 C 0.42451 0.18898 0.4146 0.0
H512 H 0.54456 0.21656 0.41456 0.0
H513 H 0.04754 0.96007 0.421 0.0
H514 H 0.12628 0.13204 0.74146 0.0
H515 H 0.18366 0.18983 0.7588 0.0
H516 H 0.20483 0.29165 0.72912 0.0
H517 H 0.14866 0.23401 0.71159 0.0
H518 H 0.28969 0.30345 0.73691 0.0
H519 H 0.14471 0.27764 0.7627 0.0
H520 H 0.06436 0.23316 0.77466 0.0
H521 H 0.12959 0.18853 0.80565 0.0
H522 H 0.21024 0.23227 0.79375 0.0
H523 H 0.43999 0.48709 0.78602 0.0
H524 H 0.37343 0.43303 0.76983 0.0
H525 H 0.35481 0.32558 0.79638 0.0
H526 H 0.42038 0.37934 0.81271 0.0
H527 H 0.26742 0.3191 0.79026 0.0
H528 H 0.41102 0.34206 0.76364 0.0
H529 H 0.49134 0.38646 0.75165 0.0
H530 H 0.42774 0.43668 0.72215 0.0
H531 H 0.34713 0.39302 0.7341 0.0
C532 C 0.14227 0.16679 0.73879 0.0
C533 C 0.13324 0.17851 0.72514 0.0
C534 C 0.17504 0.19984 0.74873 0.0
C535 C 0.1986 0.24516 0.74527 0.0
C536 C 0.18735 0.25693 0.73198 0.0
C537 C 0.15508 0.22394 0.722 0.0
C538 C 0.23823 0.27989 0.75482 0.0
C539 C 0.28446 0.3074 0.74853 0.0
C540 C 0.23191 0.28427 0.77005 0.0
C541 C 0.18345 0.25794 0.77724 0.0
C542 C 0.14185 0.25806 0.77199 0.0
C543 C 0.09627 0.23303 0.77878 0.0
C544 C 0.09185 0.20795 0.79089 0.0
C545 C 0.13305 0.20793 0.79626 0.0
C546 C 0.17872 0.23288 0.78951 0.0
C547 C 0.42187 0.4519 0.78832 0.0
C548 C 0.43576 0.43739 0.80052 0.0
C549 C 0.384 0.42108 0.77906 0.0
C550 C 0.3594 0.37529 0.78187 0.0
C551 C 0.37338 0.36075 0.794 0.0
C552 C 0.41128 0.39146 0.80321 0.0
C553 C 0.31855 0.34245 0.77231 0.0
C554 C 0.27229 0.31529 0.77861 0.0
C555 C 0.32474 0.33839 0.75707 0.0
C556 C 0.37318 0.36465 0.74987 0.0
C557 C 0.41426 0.36287 0.75468 0.0
C558 C 0.45982 0.38784 0.74787 0.0
C559 C 0.46467 0.41448 0.73618 0.0
C560 C 0.42394 0.4161 0.73123 0.0
C561 C 0.3783 0.39122 0.73801 0.0
H562 H 0.49997 0.43377 0.73092 0.0
H563 H 0.05653 0.1886 0.79612 0.0
H564 H 0.96256 0.11026 0.67235 0.0
H565 H 0.90652 0.11147 0.65437 0.0
H566 H 0.87623 0.9832 0.63638 0.0
H567 H 0.93152 0.98132 0.6544 0.0
H568 H 0.90148 0.05115 0.61529 0.0
H569 H 0.79265 0.98394 0.65625 0.0
H570 H 0.76696 0.98069 0.68204 0.0
H571 H 0.76614 0.1032 0.67824 0.0
H572 H 0.79253 0.10752 0.65247 0.0
H573 H 0.70404 0.99879 0.56808 0.0
H574 H 0.7564 0.99685 0.58699 0.0
H575 H 0.75634 0.10736 0.61041 0.0
H576 H 0.70111 0.10746 0.59209 0.0
H577 H 0.74806 0.05028 0.62905 0.0
H578 H 0.85602 0.12022 0.58903 0.0
H579 H 0.88518 0.1286 0.5635 0.0
H580 H 0.89312 0.00905 0.56562 0.0
H581 H 0.86333 -0.0004 0.59112 0.0
C582 C 0.94382 0.08223 0.6646 0.0
C583 C 0.95141 0.04566 0.6648 0.0
C584 C 0.91179 0.08296 0.65438 0.0
C585 C 0.88731 0.04738 0.6441 0.0
C586 C 0.89488 0.01094 0.64424 0.0
C587 C 0.92629 0.00987 0.65458 0.0
C588 C 0.85434 0.04842 0.63303 0.0
C589 C 0.86759 0.05041 0.61823 0.0
C590 C 0.81113 0.04896 0.63701 0.0
C591 C 0.79508 0.04629 0.65248 0.0
C592 C 0.78743 0.0104 0.66095 0.0
C593 C 0.77265 0.00832 0.67555 0.0
C594 C 0.76506 0.04178 0.68178 0.0
C595 C 0.7721 0.07734 0.67341 0.0
C596 C 0.78694 0.0796 0.6588 0.0
C597 C 0.7145 0.02228 0.57735 0.0
C598 C 0.69844 0.05344 0.57849 0.0
C599 C 0.74508 0.02155 0.58807 0.0
C600 C 0.76116 0.05255 0.59999 0.0
C601 C 0.74471 0.08329 0.60127 0.0
C602 C 0.71356 0.08364 0.59067 0.0
C603 C 0.7949 0.05276 0.61117 0.0
C604 C 0.78193 0.0511 0.62603 0.0
C605 C 0.83891 0.05334 0.60726 0.0
C606 C 0.85699 0.05898 0.59194 0.0
C607 C 0.86363 0.09553 0.58402 0.0
C608 C 0.88033 0.1005 0.56956 0.0
C609 C 0.89088 0.06931 0.56293 0.0
C610 C 0.88487 0.03315 0.57077 0.0
C611 C 0.86813 0.02799 0.58523 0.0
H612 H 0.9038 0.07322 0.55173 0.0
H613 H 0.75361 0.04011 0.69309 0.0
H614 H 0.99371 0.91991 0.99384 0.0
H615 H 0.93888 0.87692 0.97353 0.0
H616 H 0.85797 0.94561 0.98098 0.0
H617 H 0.91335 0.98952 0.00124 0.0
H618 H 0.84343 0.81997 0.97146 0.0
H619 H 0.82003 0.95975 0.94754 0.0
H620 H 0.86505 0.04203 0.9467 0.0
H621 H 0.002 0.04531 0.95172 0.0
H622 H 0.95786 0.96306 0.95238 0.0
H623 H 0.65411 0.72545 0.91915 0.0
H624 H 0.70544 0.77543 0.93911 0.0
H625 H 0.83002 0.83421 0.91006 0.0
H626 H 0.7785 0.78428 0.88989 0.0
H627 H 0.82414 0.89722 0.92975 0.0
H628 H 0.81995 0.7574 0.92982 0.0
H629 H 0.78094 0.67537 0.92969 0.0
H630 H 0.71134 0.67279 0.97076 0.0
H631 H 0.74891 0.75476 0.97094 0.0
C632 C 0.96409 0.92576 0.99126 0.0
C633 C 0.95813 0.95839 -0.00088 0.0
C634 C 0.93271 0.90107 0.97964 0.0
C635 C 0.89479 0.9085 0.97562 0.0
C636 C 0.88756 0.9399 0.98376 0.0
C637 C 0.91905 0.96476 0.99538 0.0
C638 C 0.86351 0.88373 0.96275 0.0
C639 C 0.83905 0.83689 0.96239 0.0
C640 C 0.85854 0.90586 0.95078 0.0
C641 C 0.88555 0.95529 0.95017 0.0
C642 C 0.85976 0.97804 0.94841 0.0
C643 C 0.88512 0.02466 0.94797 0.0
C644 C 0.93634 0.04889 0.94921 0.0
C645 C 0.96232 0.02652 0.95082 0.0
C646 C 0.93714 0.9799 0.95124 0.0
C647 C 0.6921 0.74985 0.91689 0.0
C648 C 0.71237 0.75116 0.90296 0.0
C649 C 0.72141 0.77813 0.92833 0.0
C650 C 0.77147 0.8082 0.92605 0.0
C651 C 0.79136 0.81121 0.91199 0.0
C652 C 0.76208 0.7826 0.90053 0.0
C653 C 0.80371 0.83364 0.93863 0.0
C654 C 0.82829 0.88045 0.93891 0.0
C655 C 0.80966 0.81156 0.95041 0.0
C656 C 0.78682 0.7622 0.95031 0.0
C657 C 0.79587 0.73931 0.93874 0.0
C658 C 0.77407 0.69282 0.93867 0.0
C659 C 0.74366 0.66888 0.9502 0.0
C660 C 0.73492 0.69139 0.96183 0.0
C661 C 0.75636 0.73785 0.96191 0.0
H662 H 0.72688 0.63289 0.95014 0.0
H663 H 0.9559 0.08498 0.94889 0.0
H664 H 0.99427 0.85938 0.34724 0.0
H665 H 0.98718 0.79835 0.33126 0.0
H666 H 0.96319 0.85764 0.29409 0.0
H667 H 0.97147 0.91998 0.31002 0.0
H668 H 0.89737 0.75073 0.29981 0.0
H669 H 0.06205 0.87849 0.29214 0.0
H670 H 0.14078 0.94175 0.30122 0.0
H671 H 0.16645 0.85222 0.32558 0.0
H672 H 0.08741 0.7885 0.31681 0.0
H673 H 0.94236 0.63067 0.24291 0.0
H674 H 0.93405 0.68451 0.25889 0.0
H675 H 0.02604 0.67489 0.29128 0.0
H676 H 0.036 0.62214 0.27494 0.0
H677 H 0.05516 0.75729 0.28808 0.0
H678 H 0.89729 0.62939 0.29555 0.0
H679 H 0.81732 0.56366 0.28867 0.0
H680 H 0.77609 0.64788 0.26734 0.0
H681 H 0.85613 0.7141 0.27392 0.0
C682 C 0.98683 0.85931 0.3357 0.0
C683 C 0.98366 0.89465 0.32986 0.0
C684 C 0.98278 0.82436 0.32661 0.0
C685 C 0.97477 0.82372 0.31156 0.0
C686 C 0.96925 0.85771 0.30573 0.0
C687 C 0.97414 0.89325 0.31481 0.0
C688 C 0.97606 0.78917 0.30192 0.0
C689 C 0.93175 0.75229 0.29698 0.0
C690 C 0.0209 0.79073 0.29881 0.0
C691 C 0.06863 0.82887 0.30395 0.0
C692 C 0.08426 0.87238 0.29954 0.0
C693 C 0.12898 0.90829 0.30461 0.0
C694 C 0.15853 0.90103 0.31401 0.0
C695 C 0.14349 0.85781 0.31832 0.0
C696 C 0.09876 0.82179 0.31329 0.0
C697 C 0.95994 0.63936 0.25358 0.0
C698 C 0.98934 0.62193 0.25781 0.0
C699 C 0.95513 0.67011 0.26272 0.0
C700 C 0.97877 0.68335 0.27642 0.0
C701 C 0.00736 0.66516 0.28078 0.0
C702 C 0.01289 0.63494 0.27151 0.0
C703 C 0.97624 0.71824 0.28573 0.0
C704 C 0.02049 0.75537 0.29074 0.0
C705 C 0.93115 0.7164 0.28908 0.0
C706 C 0.88292 0.67667 0.28512 0.0
C707 C 0.87133 0.63387 0.2893 0.0
C708 C 0.82596 0.59653 0.28547 0.0
C709 C 0.7917 0.60158 0.27754 0.0
C710 C 0.8027 0.64401 0.27346 0.0
C711 C 0.84804 0.68147 0.27726 0.0
H712 H 0.75659 0.57263 0.27458 0.0
H713 H 0.19314 0.92888 0.31792 0.0
H714 H 0.2248 0.11305 0.6844 0.0
H715 H 0.29685 0.11743 0.67234 0.0
H716 H 0.20671 0.98304 0.65445 0.0
H717 H 0.13509 0.97775 0.66711 0.0
H718 H 0.29266 0.99532 0.66105 0.0
H719 H 0.23619 0.07976 0.6349 0.0
H720 H 0.21423 0.13804 0.63233 0.0
H721 H 0.36026 0.23917 0.64535 0.0
H722 H 0.38289 0.18139 0.64816 0.0
H723 H 0.39866 0.99619 0.59241 0.0
H724 H 0.35076 0.99365 0.61388 0.0
H725 H 0.4679 0.12314 0.62887 0.0
H726 H 0.5169 0.12565 0.60741 0.0
H727 H 0.38031 0.11967 0.6271 0.0
H728 H 0.43899 0.03222 0.64834 0.0
H729 H 0.45828 0.97183 0.64928 0.0
H730 H 0.30539 0.87368 0.64376 0.0
H731 H 0.28521 0.93346 0.64258 0.0
C732 C 0.22052 0.0843 0.67801 0.0
C733 C 0.17429 0.04525 0.67653 0.0
C734 C 0.26167 0.08687 0.6711 0.0
C735 C 0.25701 0.05096 0.6622 0.0
C736 C 0.21123 0.01123 0.66123 0.0
C737 C 0.17027 0.00829 0.66841 0.0
C738 C 0.29876 0.05555 0.65314 0.0
C739 C 0.31172 0.0224 0.65358 0.0
C740 C 0.32456 0.09152 0.64365 0.0
C741 C 0.31104 0.12625 0.64191 0.0
C742 C 0.2635 0.11441 0.63731 0.0
C743 C 0.25095 0.14734 0.63579 0.0
C744 C 0.28578 0.19226 0.63872 0.0
C745 C 0.33329 0.20436 0.64312 0.0
C746 C 0.346 0.17154 0.64467 0.0
C747 C 0.41508 0.02356 0.60047 0.0
C748 C 0.46172 0.06115 0.59818 0.0
C749 C 0.38751 0.02205 0.61276 0.0
C750 C 0.40593 0.05803 0.62303 0.0
C751 C 0.45312 0.09498 0.62107 0.0
C752 C 0.4809 0.09645 0.60878 0.0
C753 C 0.37343 0.05891 0.63477 0.0
C754 C 0.36207 0.09309 0.6348 0.0
C755 C 0.3487 0.02354 0.64449 0.0
C756 C 0.36063 0.98741 0.6453 0.0
C757 C 0.4095 0.99777 0.64723 0.0
C758 C 0.4206 0.96363 0.64782 0.0
C759 C 0.3831 0.91895 0.64656 0.0
C760 C 0.33441 0.90831 0.64474 0.0
C761 C 0.32311 0.94232 0.64413 0.0
H762 H 0.39177 0.89257 0.64702 0.0
H763 H 0.276 0.21771 0.63754 0.0
H764 H 0.16297 0.2005 0.01761 0.0
H765 H 0.22297 0.25998 0.00238 0.0
H766 H 0.27457 0.17287 0.98568 0.0
H767 H 0.21592 0.1138 0.00128 0.0
H768 H 0.34915 0.25581 0.98848 0.0
H769 H 0.18657 0.18425 0.96723 0.0
H770 H 0.09779 0.15798 0.96698 0.0
H771 H 0.12874 0.29265 0.97472 0.0
H772 H 0.2177 0.31964 0.97519 0.0
H773 H 0.44061 0.3495 0.91906 0.0
H774 H 0.39654 0.30167 0.93947 0.0
H775 H 0.35193 0.39526 0.95462 0.0
H776 H 0.39539 0.44284 0.93413 0.0
H777 H 0.27631 0.31293 0.9538 0.0
H778 H 0.44126 0.38462 0.97265 0.0
H779 H 0.52948 0.40884 0.97204 0.0
H780 H 0.494 0.27204 0.96783 0.0
H781 H 0.40553 0.24701 0.96822 0.0
C782 C 0.18765 0.19428 0.01087 0.0
C783 C 0.18433 0.15232 0.01048 0.0
C784 C 0.2218 0.22823 0.00214 0.0
C785 C 0.25237 0.22045 0.99263 0.0
C786 C 0.25116 0.17951 0.99289 0.0
C787 C 0.21755 0.14576 0.00179 0.0
C788 C 0.28287 0.25352 0.98163 0.0
C789 C 0.33324 0.26812 0.98082 0.0
C790 C 0.26218 0.27004 0.97178 0.0
C791 C 0.20872 0.25389 0.97139 0.0
C792 C 0.17441 0.20821 0.96897 0.0
C793 C 0.12407 0.1932 0.96878 0.0
C794 C 0.10763 0.22361 0.97088 0.0
C795 C 0.14151 0.26912 0.97312 0.0
C796 C 0.19189 0.2843 0.97334 0.0
C797 C 0.42181 0.36003 0.92685 0.0
C798 C 0.4212 0.39973 0.92501 0.0
C799 C 0.39681 0.3328 0.93852 0.0
C800 C 0.37142 0.34518 0.94866 0.0
C801 C 0.37127 0.38509 0.94692 0.0
C802 C 0.39591 0.41212 0.9352 0.0
C803 C 0.34271 0.31535 0.96062 0.0
C804 C 0.29249 0.30113 0.96155 0.0
C805 C 0.36353 0.29897 0.97047 0.0
C806 C 0.41675 0.31397 0.97035 0.0
C807 C 0.45226 0.35971 0.9715 0.0
C808 C 0.50232 0.37359 0.97121 0.0
C809 C 0.51733 0.34201 0.96987 0.0
C810 C 0.48232 0.29647 0.96886 0.0
C811 C 0.43221 0.28242 0.96913 0.0
H812 H 0.5561 0.35282 0.96964 0.0
H813 H 0.06865 0.21193 0.97073 0.0
H814 H 0.01259 0.09794 0.30652 0.0
H815 H 0.00229 0.14122 0.28777 0.0
H816 H 0.06913 0.25835 0.31672 0.0
H817 H 0.07916 0.21557 0.33543 0.0
H818 H 0.98487 0.24537 0.30497 0.0
H819 H 0.13168 0.24712 0.28786 0.0
H820 H 0.18076 0.21323 0.27955 0.0
H821 H 0.0806 0.1453 0.24374 0.0
H822 H 0.03052 0.17835 0.25196 0.0
H823 H 0.0482 0.42592 0.25996 0.0
H824 H 0.04913 0.3719 0.27606 0.0
H825 H 0.97962 0.26834 0.24227 0.0
H826 H 0.97969 0.32265 0.22592 0.0
H827 H 0.05624 0.26668 0.25508 0.0
H828 H 0.91331 0.27014 0.27102 0.0
H829 H 0.86496 0.30486 0.27919 0.0
H830 H 0.95735 0.36279 0.31718 0.0
H831 H 0.00674 0.32895 0.30913 0.0
C832 C 0.02541 0.133 0.30882 0.0
C833 C 0.04661 0.1533 0.32247 0.0
C834 C 0.01956 0.15768 0.2981 0.0
C835 C 0.03499 0.20302 0.30086 0.0
C836 C 0.05675 0.22336 0.31439 0.0
C837 C 0.06262 0.19884 0.32506 0.0
C838 C 0.02756 0.22943 0.2899 0.0
C839 C 0.0008 0.25032 0.2941 0.0
C840 C 0.04699 0.23466 0.27556 0.0
C841 C 0.07703 0.21476 0.27063 0.0
C842 C 0.11987 0.22463 0.27829 0.0
C843 C 0.14792 0.20564 0.27358 0.0
C844 C 0.13372 0.17701 0.26115 0.0
C845 C 0.0915 0.16741 0.25338 0.0
C846 C 0.06328 0.18627 0.25806 0.0
C847 C 0.03328 0.3917 0.25593 0.0
C848 C 0.01382 0.37853 0.24168 0.0
C849 C 0.03347 0.36078 0.26518 0.0
C850 C 0.01396 0.316 0.26041 0.0
C851 C 0.99466 0.3027 0.24618 0.0
C852 C 0.99435 0.33365 0.23691 0.0
C853 C 0.01457 0.28348 0.2703 0.0
C854 C 0.03985 0.26133 0.26589 0.0
C855 C 0.99375 0.27702 0.28447 0.0
C856 C 0.96396 0.29725 0.2894 0.0
C857 C 0.92355 0.29055 0.28106 0.0
C858 C 0.89591 0.31003 0.28568 0.0
C859 C 0.90813 0.33609 0.29868 0.0
C860 C 0.94795 0.34262 0.3071 0.0
C861 C 0.97574 0.32325 0.30253 0.0
H862 H 0.88669 0.35115 0.30223 0.0
H863 H 0.1555 0.16236 0.25752 0.0
loop_
_geom_bond_atom_site_label_1
_geom_bond_atom_site_label_2
_geom_bond_distance
_geom_bond_site_symmetry_2
_ccdc_geom_bond_type
O0 Cd1 2.223 . S
O0 C8 1.315 . S
Cd1 O0 2.223 . S
Cd1 O4 2.297 . S
Cd1 O5 2.439 . S
Cd1 O11 2.240 . S
Cd2 O3 2.240 . S
Cd2 O10 2.223 1_545 S
Cd2 O12 2.297 1_545 S
Cd2 O13 2.439 1_545 S
O3 Cd2 2.240 . S
O3 C8 1.279 . S
O4 Cd1 2.297 . S
O4 C6 1.247 . S
O5 Cd1 2.439 . S
O5 C6 1.208 . S
C6 O4 1.247 . S
C6 O5 1.208 . S
C7 O12 1.247 . S
C7 O13 1.208 . S
C8 O0 1.315 . S
C8 O3 1.279 . S
C9 O10 1.315 . S
C9 O11 1.279 1_565 S
O10 Cd2 2.223 1_565 S
O10 C9 1.315 . S
O11 Cd1 2.240 . S
O11 C9 1.279 1_545 S
O12 Cd2 2.297 1_565 S
O12 C7 1.247 . S
O13 Cd2 2.439 1_565 S
O13 C7 1.208 . S
O14 Cd15 2.223 . S
O14 C22 1.315 1_455 S
Cd15 O14 2.223 . S
Cd15 O18 2.297 . S
Cd15 O19 2.439 . S
Cd15 O25 2.240 . S
Cd16 O17 2.240 1_565 S
Cd16 O24 2.223 1_655 S
Cd16 O26 2.297 1_655 S
Cd16 O27 2.439 1_655 S
O17 Cd16 2.240 1_545 S
O17 C22 1.279 . S
O18 Cd15 2.297 . S
O18 C20 1.247 . S
O19 Cd15 2.439 . S
O19 C20 1.208 . S
C20 O18 1.247 . S
C20 O19 1.208 . S
C21 O26 1.247 . S
C21 O27 1.208 . S
C22 O14 1.315 1_655 S
C22 O17 1.279 . S
C23 O24 1.315 1_545 S
C23 O25 1.279 . S
O24 Cd16 2.223 1_455 S
O24 C23 1.315 1_565 S
O25 Cd15 2.240 . S
O25 C23 1.279 . S
O26 Cd16 2.297 1_455 S
O26 C21 1.247 . S
O27 Cd16 2.439 1_455 S
O27 C21 1.208 . S
O28 Cd29 2.224 1_545 S
O28 C36 1.315 . S
Cd29 O28 2.224 1_565 S
Cd29 O32 2.297 1_455 S
Cd29 O33 2.439 1_565 S
Cd29 O39 2.241 1_565 S
Cd30 O31 2.240 . S
Cd30 O38 2.223 . S
Cd30 O40 2.297 . S
Cd30 O41 2.439 . S
O31 Cd30 2.240 . S
O31 C36 1.279 . S
O32 Cd29 2.297 1_655 S
O32 C34 1.247 . S
O33 Cd29 2.439 1_545 S
O33 C34 1.208 1_445 S
C34 O32 1.247 . S
C34 O33 1.208 1_665 S
C35 O40 1.247 . S
C35 O41 1.208 . S
C36 O28 1.315 . S
C36 O31 1.279 . S
C37 O38 1.315 . S
C37 O39 1.279 . S
O38 Cd30 2.223 . S
O38 C37 1.315 . S
O39 Cd29 2.241 1_545 S
O39 C37 1.279 . S
O40 Cd30 2.297 . S
O40 C35 1.247 . S
O41 Cd30 2.439 . S
O41 C35 1.208 . S
H42 O68 0.856 . S
H43 O71 0.854 . S
H44 C79 0.930 . S
H45 C80 0.930 . S
H46 C82 0.930 . S
H47 C83 0.930 . S
H48 C85 0.931 1_655 S
H49 C86 0.930 1_655 S
H50 C88 0.930 . S
H51 C89 0.929 . S
H52 C91 0.930 1_655 S
H53 C92 0.931 1_655 S
H54 C94 0.930 . S
H55 C95 0.929 . S
H56 C97 0.931 . S
H57 C98 0.930 1_655 S
H58 C100 0.930 . S
H59 C101 0.932 . S
H60 C103 0.930 . S
H61 C104 0.929 . S
H62 C106 0.931 . S
H63 C107 0.930 . S
H64 C109 0.929 . S
H65 C110 0.931 . S
H66 C112 0.930 . S
H67 C113 0.929 . S
O68 H42 0.856 . S
O68 C114 1.300 . S
O69 C114 1.209 . S
O70 C115 1.199 . S
O71 H43 0.854 . S
O71 C115 1.297 . S
C72 C73 1.404 . S
C72 C77 1.397 . S
C72 C78 1.492 . S
C73 C72 1.404 . S
C73 C74 1.396 . S
C73 C84 1.492 . S
C74 C73 1.396 . S
C74 C75 1.397 . S
C74 C90 1.509 . S
C75 C74 1.397 . S
C75 C76 1.412 . S
C75 C96 1.485 . S
C76 C75 1.412 . S
C76 C77 1.388 . S
C76 C102 1.490 . S
C77 C72 1.397 . S
C77 C76 1.388 . S
C77 C108 1.519 . S
C78 C72 1.492 . S
C78 C79 1.363 1_455 S
C78 C83 1.390 . S
C79 H44 0.930 . S
C79 C78 1.363 1_655 S
C79 C80 1.372 . S
C80 H45 0.930 . S
C80 C79 1.372 . S
C80 C81 1.383 1_655 S
C81 C80 1.383 1_455 S
C81 C82 1.395 . S
C82 H46 0.930 . S
C82 C81 1.395 . S
C82 C83 1.362 . S
C83 H47 0.930 . S
C83 C78 1.390 . S
C83 C82 1.362 . S
C84 C73 1.492 . S
C84 C85 1.377 . S
C84 C89 1.397 . S
C85 H48 0.931 1_455 S
C85 C84 1.377 . S
C85 C86 1.376 . S
C86 H49 0.930 1_455 S
C86 C85 1.376 . S
C86 C87 1.376 . S
C87 C86 1.376 . S
C87 C88 1.378 . S
C87 C114 1.486 . S
C88 H50 0.930 . S
C88 C87 1.378 . S
C88 C89 1.376 . S
C89 H51 0.929 . S
C89 C84 1.397 . S
C89 C88 1.376 . S
C90 C74 1.509 . S
C90 C91 1.391 . S
C90 C95 1.386 . S
C91 H52 0.930 1_455 S
C91 C90 1.391 . S
C91 C92 1.375 . S
C92 H53 0.931 1_455 S
C92 C91 1.375 . S
C92 C93 1.375 . S
C93 C92 1.375 . S
C93 C94 1.361 . S
C94 H54 0.930 . S
C94 C93 1.361 . S
C94 C95 1.399 . S
C95 H55 0.929 . S
C95 C90 1.386 . S
C95 C94 1.399 . S
C96 C75 1.485 . S
C96 C97 1.395 1_455 S
C96 C101 1.360 . S
C97 H56 0.931 . S
C97 C96 1.395 1_655 S
C97 C98 1.371 1_655 S
C98 H57 0.930 1_455 S
C98 C97 1.371 1_455 S
C98 C99 1.397 . S
C99 C98 1.397 . S
C99 C100 1.390 . S
C99 C115 1.476 . S
C100 H58 0.930 . S
C100 C99 1.390 . S
C100 C101 1.366 . S
C101 H59 0.932 . S
C101 C96 1.360 . S
C101 C100 1.366 . S
C102 C76 1.490 . S
C102 C103 1.380 1_455 S
C102 C107 1.386 . S
C103 H60 0.930 . S
C103 C102 1.380 1_655 S
C103 C104 1.381 . S
C104 H61 0.929 . S
C104 C103 1.381 . S
C104 C105 1.371 1_655 S
C105 C104 1.371 1_455 S
C105 C106 1.380 . S
C106 H62 0.931 . S
C106 C105 1.380 . S
C106 C107 1.387 . S
C107 H63 0.930 . S
C107 C102 1.386 . S
C107 C106 1.387 . S
C108 C77 1.519 . S
C108 C109 1.377 1_455 S
C108 C113 1.361 . S
C109 H64 0.929 . S
C109 C108 1.377 1_655 S
C109 C110 1.386 . S
C110 H65 0.931 . S
C110 C109 1.386 . S
C110 C111 1.363 1_655 S
C111 C110 1.363 1_455 S
C111 C112 1.385 . S
C112 H66 0.930 . S
C112 C111 1.385 . S
C112 C113 1.396 . S
C113 H67 0.929 . S
C113 C108 1.361 . S
C113 C112 1.396 . S
C114 O68 1.300 . S
C114 O69 1.209 . S
C114 C87 1.486 . S
C115 O70 1.199 . S
C115 O71 1.297 . S
C115 C99 1.476 . S
H116 O142 0.856 . S
H117 O145 0.854 . S
H118 C153 0.930 1_565 S
H119 C154 0.930 1_565 S
H120 C156 0.930 . S
H121 C157 0.930 . S
H122 C159 0.932 . S
H123 C160 0.924 1_565 S
H124 C162 0.930 . S
H125 C163 0.929 . S
H126 C165 0.931 1_565 S
H127 C166 0.931 . S
H128 C168 0.930 . S
H129 C169 0.929 . S
H130 C171 0.931 . S
H131 C172 0.930 . S
H132 C174 0.930 . S
H133 C175 0.932 . S
H134 C177 0.930 1_565 S
H135 C178 0.929 1_565 S
H136 C180 0.931 . S
H137 C181 0.930 . S
H138 C183 0.929 1_565 S
H139 C184 0.931 . S
H140 C186 0.930 . S
H141 C187 0.929 . S
O142 H116 0.856 . S
O142 C188 1.300 . S
O143 C188 1.209 . S
O144 C189 1.199 . S
O145 H117 0.854 . S
O145 C189 1.297 . S
C146 C147 1.404 . S
C146 C151 1.397 . S
C146 C152 1.492 . S
C147 C146 1.404 . S
C147 C148 1.396 . S
C147 C158 1.492 . S
C148 C147 1.396 . S
C148 C149 1.397 . S
C148 C164 1.509 . S
C149 C148 1.397 . S
C149 C150 1.412 . S
C149 C170 1.485 . S
C150 C149 1.412 . S
C150 C151 1.388 . S
C150 C176 1.490 . S
C151 C146 1.397 . S
C151 C150 1.388 . S
C151 C182 1.519 . S
C152 C146 1.492 . S
C152 C153 1.363 . S
C152 C157 1.390 . S
C153 H118 0.930 1_545 S
C153 C152 1.363 . S
C153 C154 1.372 . S
C154 H119 0.930 1_545 S
C154 C153 1.372 . S
C154 C155 1.383 . S
C155 C154 1.383 . S
C155 C156 1.395 . S
C156 H120 0.930 . S
C156 C155 1.395 . S
C156 C157 1.362 . S
C157 H121 0.930 . S
C157 C152 1.390 . S
C157 C156 1.362 . S
C158 C147 1.492 . S
C158 C159 1.377 . S
C158 C163 1.397 . S
C159 H122 0.932 . S
C159 C158 1.377 . S
C159 C160 1.376 . S
C160 H123 0.924 1_545 S
C160 C159 1.376 . S
C160 C161 1.376 . S
C161 C160 1.376 . S
C161 C162 1.378 . S
C161 C188 1.486 . S
C162 H124 0.930 . S
C162 C161 1.378 . S
C162 C163 1.376 . S
C163 H125 0.929 . S
C163 C158 1.397 . S
C163 C162 1.376 . S
C164 C148 1.509 . S
C164 C165 1.391 . S
C164 C169 1.386 . S
C165 H126 0.931 1_545 S
C165 C164 1.391 . S
C165 C166 1.375 . S
C166 H127 0.931 . S
C166 C165 1.375 . S
C166 C167 1.375 . S
C167 C166 1.375 . S
C167 C168 1.361 . S
C168 H128 0.930 . S
C168 C167 1.361 . S
C168 C169 1.399 . S
C169 H129 0.929 . S
C169 C164 1.386 . S
C169 C168 1.399 . S
C170 C149 1.485 . S
C170 C171 1.394 . S
C170 C175 1.360 . S
C171 H130 0.931 . S
C171 C170 1.394 . S
C171 C172 1.372 . S
C172 H131 0.930 . S
C172 C171 1.372 . S
C172 C173 1.397 . S
C173 C172 1.397 . S
C173 C174 1.390 . S
C173 C189 1.476 . S
C174 H132 0.930 . S
C174 C173 1.390 . S
C174 C175 1.366 . S
C175 H133 0.932 . S
C175 C170 1.360 . S
C175 C174 1.366 . S
C176 C150 1.490 . S
C176 C177 1.380 . S
C176 C181 1.386 . S
C177 H134 0.930 1_545 S
C177 C176 1.380 . S
C177 C178 1.381 . S
C178 H135 0.929 1_545 S
C178 C177 1.381 . S
C178 C179 1.371 . S
C179 C178 1.371 . S
C179 C180 1.380 . S
C180 H136 0.931 . S
C180 C179 1.380 . S
C180 C181 1.387 . S
C181 H137 0.930 . S
C181 C176 1.386 . S
C181 C180 1.387 . S
C182 C151 1.519 . S
C182 C183 1.377 . S
C182 C187 1.361 . S
C183 H138 0.929 1_545 S
C183 C182 1.377 . S
C183 C184 1.386 . S
C184 H139 0.931 . S
C184 C183 1.386 . S
C184 C185 1.363 . S
C185 C184 1.363 . S
C185 C186 1.385 . S
C186 H140 0.930 . S
C186 C185 1.385 . S
C186 C187 1.396 . S
C187 H141 0.929 . S
C187 C182 1.361 . S
C187 C186 1.396 . S
C188 O142 1.300 . S
C188 O143 1.209 . S
C188 C161 1.486 . S
C189 O144 1.199 . S
C189 O145 1.297 . S
C189 C173 1.476 . S
H190 O216 0.856 . S
H191 O219 0.854 . S
H192 C227 0.930 . S
H193 C228 0.930 . S
H194 C230 0.930 . S
H195 C231 0.930 . S
H196 C233 0.931 . S
H197 C234 0.930 . S
H198 C236 0.930 . S
H199 C237 0.929 . S
H200 C239 0.930 . S
H201 C240 0.931 . S
H202 C242 0.930 . S
H203 C243 0.929 . S
H204 C245 0.931 . S
H205 C246 0.930 . S
H206 C248 0.930 . S
H207 C249 0.932 . S
H208 C251 0.930 . S
H209 C252 0.929 . S
H210 C254 0.931 . S
H211 C255 0.930 . S
H212 C257 0.929 . S
H213 C258 0.931 . S
H214 C260 0.930 . S
H215 C261 0.929 . S
O216 H190 0.856 . S
O216 C262 1.300 . S
O217 C262 1.209 . S
O218 C263 1.199 . S
O219 H191 0.854 . S
O219 C263 1.297 . S
C220 C221 1.404 . S
C220 C225 1.397 . S
C220 C226 1.492 . S
C221 C220 1.404 . S
C221 C222 1.396 . S
C221 C232 1.492 . S
C222 C221 1.396 . S
C222 C223 1.397 . S
C222 C238 1.509 . S
C223 C222 1.397 . S
C223 C224 1.412 . S
C223 C244 1.485 . S
C224 C223 1.412 . S
C224 C225 1.388 . S
C224 C250 1.490 . S
C225 C220 1.397 . S
C225 C224 1.388 . S
C225 C256 1.519 . S
C226 C220 1.492 . S
C226 C227 1.363 . S
C226 C231 1.390 . S
C227 H192 0.930 . S
C227 C226 1.363 . S
C227 C228 1.372 . S
C228 H193 0.930 . S
C228 C227 1.372 . S
C228 C229 1.383 . S
C229 C228 1.383 . S
C229 C230 1.395 . S
C230 H194 0.930 . S
C230 C229 1.395 . S
C230 C231 1.362 . S
C231 H195 0.930 . S
C231 C226 1.390 . S
C231 C230 1.362 . S
C232 C221 1.492 . S
C232 C233 1.377 . S
C232 C237 1.397 . S
C233 H196 0.931 . S
C233 C232 1.377 . S
C233 C234 1.376 . S
C234 H197 0.930 . S
C234 C233 1.376 . S
C234 C235 1.376 . S
C235 C234 1.376 . S
C235 C236 1.378 . S
C235 C262 1.486 . S
C236 H198 0.930 . S
C236 C235 1.378 . S
C236 C237 1.376 . S
C237 H199 0.929 . S
C237 C232 1.397 . S
C237 C236 1.376 . S
C238 C222 1.509 . S
C238 C239 1.391 . S
C238 C243 1.386 . S
C239 H200 0.930 . S
C239 C238 1.391 . S
C239 C240 1.375 . S
C240 H201 0.931 . S
C240 C239 1.375 . S
C240 C241 1.375 . S
C241 C240 1.375 . S
C241 C242 1.361 . S
C242 H202 0.930 . S
C242 C241 1.361 . S
C242 C243 1.399 . S
C243 H203 0.929 . S
C243 C238 1.386 . S
C243 C242 1.399 . S
C244 C223 1.485 . S
C244 C245 1.394 . S
C244 C249 1.360 . S
C245 H204 0.931 . S
C245 C244 1.394 . S
C245 C246 1.372 . S
C246 H205 0.930 . S
C246 C245 1.372 . S
C246 C247 1.397 . S
C247 C246 1.397 . S
C247 C248 1.390 . S
C247 C263 1.476 . S
C248 H206 0.930 . S
C248 C247 1.390 . S
C248 C249 1.366 . S
C249 H207 0.932 . S
C249 C244 1.360 . S
C249 C248 1.366 . S
C250 C224 1.490 . S
C250 C251 1.380 . S
C250 C255 1.386 . S
C251 H208 0.930 . S
C251 C250 1.380 . S
C251 C252 1.381 . S
C252 H209 0.929 . S
C252 C251 1.381 . S
C252 C253 1.371 . S
C253 C252 1.371 . S
C253 C254 1.380 . S
C254 H210 0.931 . S
C254 C253 1.380 . S
C254 C255 1.387 . S
C255 H211 0.930 . S
C255 C250 1.386 . S
C255 C254 1.387 . S
C256 C225 1.519 . S
C256 C257 1.377 . S
C256 C261 1.361 . S
C257 H212 0.929 . S
C257 C256 1.377 . S
C257 C258 1.386 . S
C258 H213 0.931 . S
C258 C257 1.386 . S
C258 C259 1.363 . S
C259 C258 1.363 . S
C259 C260 1.385 . S
C260 H214 0.930 . S
C260 C259 1.385 . S
C260 C261 1.396 . S
C261 H215 0.929 . S
C261 C256 1.361 . S
C261 C260 1.396 . S
C262 O216 1.300 . S
C262 O217 1.209 . S
C262 C235 1.486 . S
C263 O218 1.199 . S
C263 O219 1.297 . S
C263 C247 1.476 . S
H264 C282 0.951 1_655 S
H265 C284 0.951 1_655 S
H266 C286 0.950 . S
H267 C287 0.950 . S
H268 C289 0.950 . S
H269 C292 0.950 . S
H270 C293 0.950 . S
H271 C295 0.950 . S
H272 C296 0.950 . S
H273 C297 0.951 . S
H274 C299 0.951 . S
H275 C301 0.950 . S
H276 C302 0.950 . S
H277 C304 0.950 . S
H278 C307 0.950 1_655 S
H279 C308 0.950 1_655 S
H280 C310 0.950 . S
H281 C311 0.950 . S
C282 H264 0.951 1_455 S
C282 C283 1.366 . S
C282 C284 1.388 . S
C283 C282 1.366 . S
C283 C287 1.385 . S
C284 H265 0.951 1_455 S
C284 C282 1.388 . S
C284 C285 1.366 . S
C285 C284 1.366 . S
C285 C286 1.414 . S
C285 C288 1.499 . S
C286 H266 0.950 . S
C286 C285 1.414 . S
C286 C287 1.374 . S
C287 H267 0.950 . S
C287 C283 1.385 . S
C287 C286 1.374 . S
C288 C285 1.499 . S
C288 C289 1.373 . S
C288 C290 1.389 . S
C289 H268 0.950 . S
C289 C288 1.373 . S
C289 C305 1.377 . S
C290 C288 1.389 . S
C290 C291 1.524 . S
C290 C304 1.377 . S
C291 C290 1.524 . S
C291 C292 1.397 . S
C291 C296 1.363 1_455 S
C292 H269 0.950 . S
C292 C291 1.397 . S
C292 C293 1.334 . S
C293 H270 0.950 . S
C293 C292 1.334 . S
C293 C294 1.287 . S
C294 C293 1.287 . S
C294 C295 1.524 1_455 S
C294 H313 0.913 . S
C295 H271 0.950 . S
C295 C294 1.524 1_655 S
C295 C296 1.415 . S
C296 H272 0.950 . S
C296 C291 1.363 1_655 S
C296 C295 1.415 . S
C297 H273 0.951 . S
C297 C298 1.366 . S
C297 C299 1.388 . S
C298 C297 1.366 . S
C298 C302 1.385 1_455 S
C299 H274 0.951 . S
C299 C297 1.388 . S
C299 C300 1.366 . S
C300 C299 1.366 . S
C300 C301 1.414 1_455 S
C300 C303 1.499 . S
C301 H275 0.950 . S
C301 C300 1.414 1_655 S
C301 C302 1.374 . S
C302 H276 0.950 . S
C302 C298 1.385 1_655 S
C302 C301 1.374 . S
C303 C300 1.499 . S
C303 C304 1.373 . S
C303 C305 1.389 . S
C304 H277 0.950 . S
C304 C290 1.377 . S
C304 C303 1.373 . S
C305 C289 1.377 . S
C305 C303 1.389 . S
C305 C306 1.524 . S
C306 C305 1.524 . S
C306 C307 1.397 . S
C306 C311 1.363 . S
C307 H278 0.950 1_455 S
C307 C306 1.397 . S
C307 C308 1.334 . S
C308 H279 0.950 1_455 S
C308 C307 1.334 . S
C308 C309 1.287 . S
C309 C308 1.287 . S
C309 C310 1.524 . S
C309 H312 0.999 . S
C310 H280 0.950 . S
C310 C309 1.524 . S
C310 C311 1.415 . S
C311 H281 0.950 . S
C311 C306 1.363 . S
C311 C310 1.415 . S
H312 C309 0.999 . S
H313 C294 0.913 . S
H314 C332 0.943 1_455 S
H315 C334 0.951 . S
H316 C336 0.950 . S
H317 C337 0.950 . S
H318 C339 0.950 . S
H319 C342 0.950 . S
H320 C343 0.950 . S
H321 C345 0.950 . S
H322 C346 0.950 1_545 S
H323 C347 0.951 . S
H324 C349 0.951 . S
H325 C351 0.950 . S
H326 C352 0.950 . S
H327 C354 0.950 1_565 S
H328 C357 0.950 . S
H329 C358 0.950 . S
H330 C360 0.950 . S
H331 C361 0.950 . S
C332 H314 0.943 1_655 S
C332 C333 1.366 . S
C332 C334 1.388 . S
C333 C332 1.366 . S
C333 C337 1.385 . S
C334 H315 0.951 . S
C334 C332 1.388 . S
C334 C335 1.366 . S
C335 C334 1.366 . S
C335 C336 1.414 . S
C335 C338 1.499 . S
C336 H316 0.950 . S
C336 C335 1.414 . S
C336 C337 1.374 . S
C337 H317 0.950 . S
C337 C333 1.385 . S
C337 C336 1.374 . S
C338 C335 1.499 . S
C338 C339 1.373 . S
C338 C340 1.389 . S
C339 H318 0.950 . S
C339 C338 1.373 . S
C339 C355 1.377 . S
C340 C338 1.389 . S
C340 C341 1.524 1_545 S
C340 C354 1.377 . S
C341 C340 1.524 1_565 S
C341 C342 1.397 . S
C341 C346 1.363 . S
C342 H319 0.950 . S
C342 C341 1.397 . S
C342 C343 1.334 . S
C343 H320 0.950 . S
C343 C342 1.334 . S
C343 C344 1.287 . S
C344 C343 1.287 . S
C344 C345 1.524 . S
C344 H363 0.913 . S
C345 H321 0.950 . S
C345 C344 1.524 . S
C345 C346 1.415 . S
C346 H322 0.950 1_565 S
C346 C341 1.363 . S
C346 C345 1.415 . S
C347 H323 0.951 . S
C347 C348 1.366 . S
C347 C349 1.388 . S
C348 C347 1.366 . S
C348 C352 1.385 . S
C349 H324 0.951 . S
C349 C347 1.388 . S
C349 C350 1.366 . S
C350 C349 1.366 . S
C350 C351 1.414 . S
C350 C353 1.499 . S
C351 H325 0.950 . S
C351 C350 1.414 . S
C351 C352 1.374 . S
C352 H326 0.950 . S
C352 C348 1.385 . S
C352 C351 1.374 . S
C353 C350 1.499 . S
C353 C354 1.373 . S
C353 C355 1.389 . S
C354 H327 0.950 1_545 S
C354 C340 1.377 . S
C354 C353 1.373 . S
C355 C339 1.377 . S
C355 C353 1.389 . S
C355 C356 1.524 . S
C356 C355 1.524 . S
C356 C357 1.397 . S
C356 C361 1.363 . S
C357 H328 0.950 . S
C357 C356 1.397 . S
C357 C358 1.334 . S
C358 H329 0.950 . S
C358 C357 1.334 . S
C358 C359 1.287 . S
C359 C358 1.287 . S
C359 C360 1.524 . S
C359 H362 0.999 . S
C360 H330 0.950 . S
C360 C359 1.524 . S
C360 C361 1.415 . S
C361 H331 0.950 . S
C361 C356 1.363 . S
C361 C360 1.415 . S
H362 C359 0.999 . S
H363 C344 0.913 . S
H364 C382 0.951 . S
H365 C384 0.951 . S
H366 C386 0.950 . S
H367 C387 0.950 . S
H368 C389 0.950 . S
H369 C392 0.950 . S
H370 C393 0.950 . S
H371 C395 0.950 . S
H372 C396 0.950 . S
H373 C397 0.951 . S
H374 C399 0.951 . S
H375 C401 0.950 . S
H376 C402 0.950 . S
H377 C404 0.950 . S
H378 C407 0.950 . S
H379 C408 0.950 . S
H380 C410 0.950 . S
H381 C411 0.950 . S
C382 H364 0.951 . S
C382 C383 1.366 . S
C382 C384 1.388 . S
C383 C382 1.366 . S
C383 C387 1.385 . S
C384 H365 0.951 . S
C384 C382 1.388 . S
C384 C385 1.366 . S
C385 C384 1.366 . S
C385 C386 1.414 . S
C385 C388 1.499 . S
C386 H366 0.950 . S
C386 C385 1.414 . S
C386 C387 1.374 . S
C387 H367 0.950 . S
C387 C383 1.385 . S
C387 C386 1.374 . S
C388 C385 1.499 . S
C388 C389 1.373 . S
C388 C390 1.389 . S
C389 H368 0.950 . S
C389 C388 1.373 . S
C389 C405 1.377 . S
C390 C388 1.389 . S
C390 C391 1.524 . S
C390 C404 1.377 . S
C391 C390 1.524 . S
C391 C392 1.397 . S
C391 C396 1.363 . S
C392 H369 0.950 . S
C392 C391 1.397 . S
C392 C393 1.334 . S
C393 H370 0.950 . S
C393 C392 1.334 . S
C393 C394 1.287 . S
C394 C393 1.287 . S
C394 C395 1.524 . S
C394 H413 0.913 . S
C395 H371 0.950 . S
C395 C394 1.524 . S
C395 C396 1.415 . S
C396 H372 0.950 . S
C396 C391 1.363 . S
C396 C395 1.415 . S
C397 H373 0.951 . S
C397 C398 1.366 . S
C397 C399 1.388 . S
C398 C397 1.366 . S
C398 C402 1.385 . S
C399 H374 0.951 . S
C399 C397 1.388 . S
C399 C400 1.366 . S
C400 C399 1.366 . S
C400 C401 1.414 . S
C400 C403 1.499 . S
C401 H375 0.950 . S
C401 C400 1.414 . S
C401 C402 1.374 . S
C402 H376 0.950 . S
C402 C398 1.385 . S
C402 C401 1.374 . S
C403 C400 1.499 . S
C403 C404 1.373 . S
C403 C405 1.389 . S
C404 H377 0.950 . S
C404 C390 1.377 . S
C404 C403 1.373 . S
C405 C389 1.377 . S
C405 C403 1.389 . S
C405 C406 1.524 . S
C406 C405 1.524 . S
C406 C407 1.397 . S
C406 C411 1.363 . S
C407 H378 0.950 . S
C407 C406 1.397 . S
C407 C408 1.334 . S
C408 H379 0.950 . S
C408 C407 1.334 . S
C408 C409 1.287 . S
C409 C408 1.287 . S
C409 C410 1.524 . S
C409 H412 0.999 . S
C410 H380 0.950 . S
C410 C409 1.524 . S
C410 C411 1.415 . S
C411 H381 0.950 . S
C411 C406 1.363 . S
C411 C410 1.415 . S
H412 C409 0.999 . S
H413 C394 0.913 . S
H414 C432 0.951 . S
H415 C434 0.951 . S
H416 C436 0.950 . S
H417 C437 0.950 . S
H418 C439 0.950 . S
H419 C442 0.950 . S
H420 C443 0.950 . S
H421 C445 0.950 . S
H422 C446 0.950 1_455 S
H423 C447 0.951 . S
H424 C449 0.951 . S
H425 C451 0.950 . S
H426 C452 0.950 . S
H427 C454 0.950 . S
H428 C457 0.950 . S
H429 C458 0.950 . S
H430 C460 0.950 . S
H431 C461 0.950 . S
C432 H414 0.951 . S
C432 C433 1.366 . S
C432 C434 1.388 . S
C433 C432 1.366 . S
C433 C437 1.385 . S
C434 H415 0.951 . S
C434 C432 1.388 . S
C434 C435 1.366 . S
C435 C434 1.366 . S
C435 C436 1.414 . S
C435 C438 1.499 . S
C436 H416 0.950 . S
C436 C435 1.414 . S
C436 C437 1.374 . S
C437 H417 0.950 . S
C437 C433 1.385 . S
C437 C436 1.374 . S
C438 C435 1.499 . S
C438 C439 1.373 . S
C438 C440 1.389 . S
C439 H418 0.950 . S
C439 C438 1.373 . S
C439 C455 1.377 . S
C440 C438 1.389 . S
C440 C441 1.524 1_455 S
C440 C454 1.377 . S
C441 C440 1.524 1_655 S
C441 C442 1.397 . S
C441 C446 1.363 . S
C442 H419 0.950 . S
C442 C441 1.397 . S
C442 C443 1.334 . S
C443 H420 0.950 . S
C443 C442 1.334 . S
C443 C444 1.287 . S
C444 C443 1.287 . S
C444 C445 1.524 . S
C444 H463 0.913 . S
C445 H421 0.950 . S
C445 C444 1.524 . S
C445 C446 1.415 . S
C446 H422 0.950 1_655 S
C446 C441 1.363 . S
C446 C445 1.415 . S
C447 H423 0.951 . S
C447 C448 1.366 . S
C447 C449 1.388 . S
C448 C447 1.366 . S
C448 C452 1.385 . S
C449 H424 0.951 . S
C449 C447 1.388 . S
C449 C450 1.366 . S
C450 C449 1.366 . S
C450 C451 1.414 . S
C450 C453 1.499 . S
C451 H425 0.950 . S
C451 C450 1.414 . S
C451 C452 1.374 . S
C452 H426 0.950 . S
C452 C448 1.385 . S
C452 C451 1.374 . S
C453 C450 1.499 . S
C453 C454 1.373 . S
C453 C455 1.389 . S
C454 H427 0.950 . S
C454 C440 1.377 . S
C454 C453 1.373 . S
C455 C439 1.377 . S
C455 C453 1.389 . S
C455 C456 1.524 . S
C456 C455 1.524 . S
C456 C457 1.397 . S
C456 C461 1.363 . S
C457 H428 0.950 . S
C457 C456 1.397 . S
C457 C458 1.334 . S
C458 H429 0.950 . S
C458 C457 1.334 . S
C458 C459 1.287 . S
C459 C458 1.287 . S
C459 C460 1.524 . S
C459 H462 0.999 . S
C460 H430 0.950 . S
C460 C459 1.524 . S
C460 C461 1.415 . S
C461 H431 0.950 . S
C461 C456 1.363 . S
C461 C460 1.415 . S
H462 C459 0.999 . S
H463 C444 0.913 . S
H464 C482 0.951 . S
H465 C484 0.951 . S
H466 C486 0.950 . S
H467 C487 0.950 . S
H468 C489 0.950 . S
H469 C492 0.950 1_545 S
H470 C493 0.950 . S
H471 C495 0.950 . S
H472 C496 0.950 . S
H473 C497 0.951 . S
H474 C499 0.951 . S
H475 C501 0.950 1_565 S
H476 C502 0.950 . S
H477 C504 0.950 1_565 S
H478 C507 0.950 . S
H479 C508 0.950 . S
H480 C510 0.950 . S
H481 C511 0.950 . S
C482 H464 0.951 . S
C482 C483 1.366 1_565 S
C482 C484 1.388 . S
C483 C482 1.366 1_545 S
C483 C487 1.385 . S
C484 H465 0.951 . S
C484 C482 1.388 . S
C484 C485 1.366 1_565 S
C485 C484 1.366 1_545 S
C485 C486 1.414 . S
C485 C488 1.499 . S
C486 H466 0.950 . S
C486 C485 1.414 . S
C486 C487 1.374 . S
C487 H467 0.950 . S
C487 C483 1.385 . S
C487 C486 1.374 . S
C488 C485 1.499 . S
C488 C489 1.373 . S
C488 C490 1.389 . S
C489 H468 0.950 . S
C489 C488 1.373 . S
C489 C505 1.377 . S
C490 C488 1.389 . S
C490 C491 1.524 1_545 S
C490 C504 1.377 . S
C491 C490 1.524 1_565 S
C491 C492 1.397 . S
C491 C496 1.363 . S
C492 H469 0.950 1_565 S
C492 C491 1.397 . S
C492 C493 1.334 . S
C493 H470 0.950 . S
C493 C492 1.334 . S
C493 C494 1.287 . S
C494 C493 1.287 . S
C494 C495 1.524 . S
C494 H513 0.913 . S
C495 H471 0.950 . S
C495 C494 1.524 . S
C495 C496 1.415 . S
C496 H472 0.950 . S
C496 C491 1.363 . S
C496 C495 1.415 . S
C497 H473 0.951 . S
C497 C498 1.366 . S
C497 C499 1.388 . S
C498 C497 1.366 . S
C498 C502 1.385 . S
C499 H474 0.951 . S
C499 C497 1.388 . S
C499 C500 1.366 . S
C500 C499 1.366 . S
C500 C501 1.414 . S
C500 C503 1.499 . S
C501 H475 0.950 1_545 S
C501 C500 1.414 . S
C501 C502 1.374 . S
C502 H476 0.950 . S
C502 C498 1.385 . S
C502 C501 1.374 . S
C503 C500 1.499 . S
C503 C504 1.373 . S
C503 C505 1.389 . S
C504 H477 0.950 1_545 S
C504 C490 1.377 . S
C504 C503 1.373 . S
C505 C489 1.377 . S
C505 C503 1.389 . S
C505 C506 1.524 . S
C506 C505 1.524 . S
C506 C507 1.397 . S
C506 C511 1.363 . S
C507 H478 0.950 . S
C507 C506 1.397 . S
C507 C508 1.334 . S
C508 H479 0.950 . S
C508 C507 1.334 . S
C508 C509 1.287 . S
C509 C508 1.287 . S
C509 C510 1.524 . S
C509 H512 0.999 . S
C510 H480 0.950 . S
C510 C509 1.524 . S
C510 C511 1.415 . S
C511 H481 0.950 . S
C511 C506 1.363 . S
C511 C510 1.415 . S
H512 C509 0.999 . S
H513 C494 0.913 . S
H514 C532 0.951 . S
H515 C534 0.951 . S
H516 C536 0.950 . S
H517 C537 0.950 . S
H518 C539 0.950 . S
H519 C542 0.950 . S
H520 C543 0.950 . S
H521 C545 0.950 . S
H522 C546 0.950 . S
H523 C547 0.951 . S
H524 C549 0.951 . S
H525 C551 0.950 . S
H526 C552 0.950 . S
H527 C554 0.950 . S
H528 C557 0.950 . S
H529 C558 0.950 . S
H530 C560 0.950 . S
H531 C561 0.950 . S
C532 H514 0.951 . S
C532 C533 1.366 . S
C532 C534 1.388 . S
C533 C532 1.366 . S
C533 C537 1.385 . S
C534 H515 0.951 . S
C534 C532 1.388 . S
C534 C535 1.366 . S
C535 C534 1.366 . S
C535 C536 1.414 . S
C535 C538 1.499 . S
C536 H516 0.950 . S
C536 C535 1.414 . S
C536 C537 1.374 . S
C537 H517 0.950 . S
C537 C533 1.385 . S
C537 C536 1.374 . S
C538 C535 1.499 . S
C538 C539 1.373 . S
C538 C540 1.389 . S
C539 H518 0.950 . S
C539 C538 1.373 . S
C539 C555 1.377 . S
C540 C538 1.389 . S
C540 C541 1.524 . S
C540 C554 1.377 . S
C541 C540 1.524 . S
C541 C542 1.397 . S
C541 C546 1.363 . S
C542 H519 0.950 . S
C542 C541 1.397 . S
C542 C543 1.334 . S
C543 H520 0.950 . S
C543 C542 1.334 . S
C543 C544 1.287 . S
C544 C543 1.287 . S
C544 C545 1.524 . S
C544 H563 0.913 . S
C545 H521 0.950 . S
C545 C544 1.524 . S
C545 C546 1.415 . S
C546 H522 0.950 . S
C546 C541 1.363 . S
C546 C545 1.415 . S
C547 H523 0.951 . S
C547 C548 1.366 . S
C547 C549 1.388 . S
C548 C547 1.366 . S
C548 C552 1.385 . S
C549 H524 0.951 . S
C549 C547 1.388 . S
C549 C550 1.366 . S
C550 C549 1.366 . S
C550 C551 1.414 . S
C550 C553 1.499 . S
C551 H525 0.950 . S
C551 C550 1.414 . S
C551 C552 1.374 . S
C552 H526 0.950 . S
C552 C548 1.385 . S
C552 C551 1.374 . S
C553 C550 1.499 . S
C553 C554 1.373 . S
C553 C555 1.389 . S
C554 H527 0.950 . S
C554 C540 1.377 . S
C554 C553 1.373 . S
C555 C539 1.377 . S
C555 C553 1.389 . S
C555 C556 1.524 . S
C556 C555 1.524 . S
C556 C557 1.397 . S
C556 C561 1.363 . S
C557 H528 0.950 . S
C557 C556 1.397 . S
C557 C558 1.334 . S
C558 H529 0.950 . S
C558 C557 1.334 . S
C558 C559 1.287 . S
C559 C558 1.287 . S
C559 C560 1.524 . S
C559 H562 0.999 . S
C560 H530 0.950 . S
C560 C559 1.524 . S
C560 C561 1.415 . S
C561 H531 0.950 . S
C561 C556 1.363 . S
C561 C560 1.415 . S
H562 C559 0.999 . S
H563 C544 0.913 . S
H564 C582 0.951 . S
H565 C584 0.951 . S
H566 C586 0.950 . S
H567 C587 0.950 . S
H568 C589 0.950 . S
H569 C592 0.928 1_565 S
H570 C593 0.950 1_565 S
H571 C595 0.950 . S
H572 C596 0.950 . S
H573 C597 0.951 . S
H574 C599 0.951 . S
H575 C601 0.950 . S
H576 C602 0.950 . S
H577 C604 0.950 . S
H578 C607 0.950 . S
H579 C608 0.950 . S
H580 C610 0.950 . S
H581 C611 0.950 . S
C582 H564 0.951 . S
C582 C583 1.366 . S
C582 C584 1.388 . S
C583 C582 1.366 . S
C583 C587 1.385 . S
C584 H565 0.951 . S
C584 C582 1.388 . S
C584 C585 1.366 . S
C585 C584 1.366 . S
C585 C586 1.414 . S
C585 C588 1.499 . S
C586 H566 0.950 . S
C586 C585 1.414 . S
C586 C587 1.374 . S
C587 H567 0.950 . S
C587 C583 1.385 . S
C587 C586 1.374 . S
C588 C585 1.499 . S
C588 C589 1.373 . S
C588 C590 1.389 . S
C589 H568 0.950 . S
C589 C588 1.373 . S
C589 C605 1.377 . S
C590 C588 1.389 . S
C590 C591 1.524 . S
C590 C604 1.377 . S
C591 C590 1.524 . S
C591 C592 1.397 . S
C591 C596 1.363 . S
C592 H569 0.928 1_545 S
C592 C591 1.397 . S
C592 C593 1.334 . S
C593 H570 0.950 1_545 S
C593 C592 1.334 . S
C593 C594 1.287 . S
C594 C593 1.287 . S
C594 C595 1.524 . S
C594 H613 0.913 . S
C595 H571 0.950 . S
C595 C594 1.524 . S
C595 C596 1.415 . S
C596 H572 0.950 . S
C596 C591 1.363 . S
C596 C595 1.415 . S
C597 H573 0.951 . S
C597 C598 1.366 . S
C597 C599 1.388 . S
C598 C597 1.366 . S
C598 C602 1.385 . S
C599 H574 0.951 . S
C599 C597 1.388 . S
C599 C600 1.366 . S
C600 C599 1.366 . S
C600 C601 1.414 . S
C600 C603 1.499 . S
C601 H575 0.950 . S
C601 C600 1.414 . S
C601 C602 1.374 . S
C602 H576 0.950 . S
C602 C598 1.385 . S
C602 C601 1.374 . S
C603 C600 1.499 . S
C603 C604 1.373 . S
C603 C605 1.389 . S
C604 H577 0.950 . S
C604 C590 1.377 . S
C604 C603 1.373 . S
C605 C589 1.377 . S
C605 C603 1.389 . S
C605 C606 1.524 . S
C606 C605 1.524 . S
C606 C607 1.397 . S
C606 C611 1.363 . S
C607 H578 0.950 . S
C607 C606 1.397 . S
C607 C608 1.334 . S
C608 H579 0.950 . S
C608 C607 1.334 . S
C608 C609 1.287 . S
C609 C608 1.287 . S
C609 C610 1.524 . S
C609 H612 0.999 . S
C610 H580 0.950 . S
C610 C609 1.524 . S
C610 C611 1.415 . S
C611 H581 0.950 . S
C611 C606 1.363 . S
C611 C610 1.415 . S
H612 C609 0.999 . S
H613 C594 0.913 . S
H614 C632 0.960 1_455 S
H615 C634 0.951 . S
H616 C636 0.950 . S
H617 C637 0.950 . S
H618 C639 0.950 . S
H619 C642 0.950 . S
H620 C643 0.950 1_545 S
H621 C645 0.950 . S
H622 C646 0.950 . S
H623 C647 0.951 . S
H624 C649 0.951 . S
H625 C651 0.950 . S
H626 C652 0.950 . S
H627 C654 0.950 . S
H628 C657 0.950 . S
H629 C658 0.950 . S
H630 C660 0.950 . S
H631 C661 0.950 . S
C632 H614 0.960 1_655 S
C632 C633 1.366 . S
C632 C634 1.388 . S
C633 C632 1.366 . S
C633 C637 1.385 1_556 S
C634 H615 0.951 . S
C634 C632 1.388 . S
C634 C635 1.366 . S
C635 C634 1.366 . S
C635 C636 1.414 . S
C635 C638 1.499 . S
C636 H616 0.950 . S
C636 C635 1.414 . S
C636 C637 1.374 1_556 S
C637 H617 0.950 . S
C637 C633 1.385 1_554 S
C637 C636 1.374 1_554 S
C638 C635 1.499 . S
C638 C639 1.373 . S
C638 C640 1.389 . S
C639 H618 0.950 . S
C639 C638 1.373 . S
C639 C655 1.377 . S
C640 C638 1.389 . S
C640 C641 1.524 . S
C640 C654 1.377 . S
C641 C640 1.524 . S
C641 C642 1.397 . S
C641 C646 1.363 . S
C642 H619 0.950 . S
C642 C641 1.397 . S
C642 C643 1.334 . S
C643 H620 0.950 1_565 S
C643 C642 1.334 . S
C643 C644 1.287 1_565 S
C644 C643 1.287 1_545 S
C644 C645 1.524 . S
C644 H663 0.913 . S
C645 H621 0.950 . S
C645 C644 1.524 . S
C645 C646 1.415 1_545 S
C646 H622 0.950 . S
C646 C641 1.363 . S
C646 C645 1.415 1_565 S
C647 H623 0.951 . S
C647 C648 1.366 . S
C647 C649 1.388 . S
C648 C647 1.366 . S
C648 C652 1.385 . S
C649 H624 0.951 . S
C649 C647 1.388 . S
C649 C650 1.366 . S
C650 C649 1.366 . S
C650 C651 1.414 . S
C650 C653 1.499 . S
C651 H625 0.950 . S
C651 C650 1.414 . S
C651 C652 1.374 . S
C652 H626 0.950 . S
C652 C648 1.385 . S
C652 C651 1.374 . S
C653 C650 1.499 . S
C653 C654 1.373 . S
C653 C655 1.389 . S
C654 H627 0.950 . S
C654 C640 1.377 . S
C654 C653 1.373 . S
C655 C639 1.377 . S
C655 C653 1.389 . S
C655 C656 1.524 . S
C656 C655 1.524 . S
C656 C657 1.397 . S
C656 C661 1.363 . S
C657 H628 0.950 . S
C657 C656 1.397 . S
C657 C658 1.334 . S
C658 H629 0.950 . S
C658 C657 1.334 . S
C658 C659 1.287 . S
C659 C658 1.287 . S
C659 C660 1.524 . S
C659 H662 0.999 . S
C660 H630 0.950 . S
C660 C659 1.524 . S
C660 C661 1.415 . S
C661 H631 0.950 . S
C661 C656 1.363 . S
C661 C660 1.415 . S
H662 C659 0.999 . S
H663 C644 0.913 . S
H664 C682 0.951 . S
H665 C684 0.951 . S
H666 C686 0.939 1_655 S
H667 C687 0.950 1_655 S
H668 C689 0.950 . S
H669 C692 0.950 . S
H670 C693 0.950 . S
H671 C695 0.950 . S
H672 C696 0.950 . S
H673 C697 0.951 . S
H674 C699 0.951 . S
H675 C701 0.950 . S
H676 C702 0.950 . S
H677 C704 0.950 . S
H678 C707 0.950 . S
H679 C708 0.950 . S
H680 C710 0.950 . S
H681 C711 0.950 . S
C682 H664 0.951 . S
C682 C683 1.366 . S
C682 C684 1.388 . S
C683 C682 1.366 . S
C683 C687 1.385 . S
C684 H665 0.951 . S
C684 C682 1.388 . S
C684 C685 1.366 . S
C685 C684 1.366 . S
C685 C686 1.435 . S
C685 C688 1.499 . S
C686 H666 0.939 1_455 S
C686 C685 1.435 . S
C686 C687 1.365 . S
C687 H667 0.950 1_455 S
C687 C683 1.385 . S
C687 C686 1.365 . S
C688 C685 1.499 . S
C688 C689 1.373 1_455 S
C688 C690 1.389 . S
C689 H668 0.950 . S
C689 C688 1.373 1_655 S
C689 C705 1.377 . S
C690 C688 1.389 . S
C690 C691 1.524 . S
C690 C704 1.377 . S
C691 C690 1.524 . S
C691 C692 1.397 . S
C691 C696 1.363 . S
C692 H669 0.950 . S
C692 C691 1.397 . S
C692 C693 1.334 . S
C693 H670 0.950 . S
C693 C692 1.334 . S
C693 C694 1.287 . S
C694 C693 1.287 . S
C694 C695 1.524 . S
C694 H713 0.913 . S
C695 H671 0.950 . S
C695 C694 1.524 . S
C695 C696 1.415 . S
C696 H672 0.950 . S
C696 C691 1.363 . S
C696 C695 1.415 . S
C697 H673 0.951 . S
C697 C698 1.366 1_655 S
C697 C699 1.388 . S
C698 C697 1.366 1_455 S
C698 C702 1.385 . S
C699 H674 0.951 . S
C699 C697 1.388 . S
C699 C700 1.366 1_655 S
C700 C699 1.366 1_455 S
C700 C701 1.414 . S
C700 C703 1.499 . S
C701 H675 0.950 . S
C701 C700 1.414 . S
C701 C702 1.374 . S
C702 H676 0.950 . S
C702 C698 1.385 . S
C702 C701 1.374 . S
C703 C700 1.499 . S
C703 C704 1.373 . S
C703 C705 1.389 1_455 S
C704 H677 0.950 . S
C704 C690 1.377 . S
C704 C703 1.373 . S
C705 C689 1.377 . S
C705 C703 1.389 1_655 S
C705 C706 1.524 . S
C706 C705 1.524 . S
C706 C707 1.397 . S
C706 C711 1.363 . S
C707 H678 0.950 . S
C707 C706 1.397 . S
C707 C708 1.334 . S
C708 H679 0.950 . S
C708 C707 1.334 . S
C708 C709 1.287 . S
C709 C708 1.287 . S
C709 C710 1.524 . S
C709 H712 0.999 . S
C710 H680 0.950 . S
C710 C709 1.524 . S
C710 C711 1.415 . S
C711 H681 0.950 . S
C711 C706 1.363 . S
C711 C710 1.415 . S
H712 C709 0.999 . S
H713 C694 0.913 . S
H714 C732 0.951 . S
H715 C734 0.951 . S
H716 C736 0.950 . S
H717 C737 0.950 . S
H718 C739 0.950 1_565 S
H719 C742 0.950 . S
H720 C743 0.950 . S
H721 C745 0.950 . S
H722 C746 0.950 . S
H723 C747 0.951 . S
H724 C749 0.951 . S
H725 C751 0.950 . S
H726 C752 0.950 . S
H727 C754 0.950 . S
H728 C757 0.950 . S
H729 C758 0.950 . S
H730 C760 0.950 . S
H731 C761 0.950 . S
C732 H714 0.951 . S
C732 C733 1.366 . S
C732 C734 1.388 . S
C733 C732 1.366 . S
C733 C737 1.385 . S
C734 H715 0.951 . S
C734 C732 1.388 . S
C734 C735 1.366 . S
C735 C734 1.366 . S
C735 C736 1.414 . S
C735 C738 1.499 . S
C736 H716 0.950 . S
C736 C735 1.414 . S
C736 C737 1.374 . S
C737 H717 0.950 . S
C737 C733 1.385 . S
C737 C736 1.374 . S
C738 C735 1.499 . S
C738 C739 1.373 . S
C738 C740 1.389 . S
C739 H718 0.950 1_545 S
C739 C738 1.373 . S
C739 C755 1.377 . S
C740 C738 1.389 . S
C740 C741 1.524 . S
C740 C754 1.377 . S
C741 C740 1.524 . S
C741 C742 1.397 . S
C741 C746 1.363 . S
C742 H719 0.950 . S
C742 C741 1.397 . S
C742 C743 1.334 . S
C743 H720 0.950 . S
C743 C742 1.334 . S
C743 C744 1.287 . S
C744 C743 1.287 . S
C744 C745 1.524 . S
C744 H763 0.913 . S
C745 H721 0.950 . S
C745 C744 1.524 . S
C745 C746 1.415 . S
C746 H722 0.950 . S
C746 C741 1.363 . S
C746 C745 1.415 . S
C747 H723 0.951 . S
C747 C748 1.366 . S
C747 C749 1.388 . S
C748 C747 1.366 . S
C748 C752 1.385 . S
C749 H724 0.951 . S
C749 C747 1.388 . S
C749 C750 1.366 . S
C750 C749 1.366 . S
C750 C751 1.414 . S
C750 C753 1.499 . S
C751 H725 0.950 . S
C751 C750 1.414 . S
C751 C752 1.374 . S
C752 H726 0.950 . S
C752 C748 1.385 . S
C752 C751 1.374 . S
C753 C750 1.499 . S
C753 C754 1.373 . S
C753 C755 1.389 . S
C754 H727 0.950 . S
C754 C740 1.377 . S
C754 C753 1.373 . S
C755 C739 1.377 . S
C755 C753 1.389 . S
C755 C756 1.524 1_545 S
C756 C755 1.524 1_565 S
C756 C757 1.397 . S
C756 C761 1.363 . S
C757 H728 0.950 . S
C757 C756 1.397 . S
C757 C758 1.334 . S
C758 H729 0.950 . S
C758 C757 1.334 . S
C758 C759 1.287 . S
C759 C758 1.287 . S
C759 C760 1.524 . S
C759 H762 0.999 . S
C760 H730 0.950 . S
C760 C759 1.524 . S
C760 C761 1.415 . S
C761 H731 0.950 . S
C761 C756 1.363 . S
C761 C760 1.415 . S
H762 C759 0.999 . S
H763 C744 0.913 . S
H764 C782 0.951 . S
H765 C784 0.951 . S
H766 C786 0.950 . S
H767 C787 0.950 . S
H768 C789 0.950 . S
H769 C792 0.950 . S
H770 C793 0.950 . S
H771 C795 0.950 . S
H772 C796 0.950 . S
H773 C797 0.951 . S
H774 C799 0.951 . S
H775 C801 0.950 . S
H776 C802 0.950 . S
H777 C804 0.950 . S
H778 C807 0.950 . S
H779 C808 0.950 . S
H780 C810 0.950 . S
H781 C811 0.950 . S
C782 H764 0.951 . S
C782 C783 1.366 . S
C782 C784 1.388 . S
C783 C782 1.366 . S
C783 C787 1.385 1_554 S
C784 H765 0.951 . S
C784 C782 1.388 . S
C784 C785 1.366 1_554 S
C785 C784 1.366 1_556 S
C785 C786 1.414 . S
C785 C788 1.499 . S
C786 H766 0.950 . S
C786 C785 1.414 . S
C786 C787 1.374 . S
C787 H767 0.950 . S
C787 C783 1.385 1_556 S
C787 C786 1.374 . S
C788 C785 1.499 . S
C788 C789 1.373 . S
C788 C790 1.389 . S
C789 H768 0.950 . S
C789 C788 1.373 . S
C789 C805 1.377 . S
C790 C788 1.389 . S
C790 C791 1.524 . S
C790 C804 1.377 . S
C791 C790 1.524 . S
C791 C792 1.397 . S
C791 C796 1.363 . S
C792 H769 0.950 . S
C792 C791 1.397 . S
C792 C793 1.334 . S
C793 H770 0.950 . S
C793 C792 1.334 . S
C793 C794 1.287 . S
C794 C793 1.287 . S
C794 C795 1.524 . S
C794 H813 0.913 . S
C795 H771 0.950 . S
C795 C794 1.524 . S
C795 C796 1.415 . S
C796 H772 0.950 . S
C796 C791 1.363 . S
C796 C795 1.415 . S
C797 H773 0.951 . S
C797 C798 1.366 . S
C797 C799 1.388 . S
C798 C797 1.366 . S
C798 C802 1.385 . S
C799 H774 0.951 . S
C799 C797 1.388 . S
C799 C800 1.366 . S
C800 C799 1.366 . S
C800 C801 1.414 . S
C800 C803 1.499 . S
C801 H775 0.950 . S
C801 C800 1.414 . S
C801 C802 1.374 . S
C802 H776 0.950 . S
C802 C798 1.385 . S
C802 C801 1.374 . S
C803 C800 1.499 . S
C803 C804 1.373 . S
C803 C805 1.389 . S
C804 H777 0.950 . S
C804 C790 1.377 . S
C804 C803 1.373 . S
C805 C789 1.377 . S
C805 C803 1.389 . S
C805 C806 1.524 . S
C806 C805 1.524 . S
C806 C807 1.397 . S
C806 C811 1.363 . S
C807 H778 0.950 . S
C807 C806 1.397 . S
C807 C808 1.334 . S
C808 H779 0.950 . S
C808 C807 1.334 . S
C808 C809 1.287 . S
C809 C808 1.287 . S
C809 C810 1.524 . S
C809 H812 0.999 . S
C810 H780 0.950 . S
C810 C809 1.524 . S
C810 C811 1.415 . S
C811 H781 0.950 . S
C811 C806 1.363 . S
C811 C810 1.415 . S
H812 C809 0.999 . S
H813 C794 0.913 . S
H814 C832 0.951 . S
H815 C834 0.951 . S
H816 C836 0.950 . S
H817 C837 0.950 . S
H818 C839 0.950 1_655 S
H819 C842 0.950 . S
H820 C843 0.950 . S
H821 C845 0.950 . S
H822 C846 0.950 . S
H823 C847 0.951 . S
H824 C849 0.951 . S
H825 C851 0.950 . S
H826 C852 0.950 . S
H827 C854 0.950 . S
H828 C857 0.950 . S
H829 C858 0.950 . S
H830 C860 0.950 . S
H831 C861 0.950 . S
C832 H814 0.951 . S
C832 C833 1.366 . S
C832 C834 1.388 . S
C833 C832 1.366 . S
C833 C837 1.385 . S
C834 H815 0.951 . S
C834 C832 1.388 . S
C834 C835 1.366 . S
C835 C834 1.366 . S
C835 C836 1.414 . S
C835 C838 1.499 . S
C836 H816 0.950 . S
C836 C835 1.414 . S
C836 C837 1.374 . S
C837 H817 0.950 . S
C837 C833 1.385 . S
C837 C836 1.374 . S
C838 C835 1.499 . S
C838 C839 1.373 . S
C838 C840 1.389 . S
C839 H818 0.950 1_455 S
C839 C838 1.373 . S
C839 C855 1.377 . S
C840 C838 1.389 . S
C840 C841 1.524 . S
C840 C854 1.377 . S
C841 C840 1.524 . S
C841 C842 1.397 . S
C841 C846 1.363 . S
C842 H819 0.950 . S
C842 C841 1.397 . S
C842 C843 1.334 . S
C843 H820 0.950 . S
C843 C842 1.334 . S
C843 C844 1.287 . S
C844 C843 1.287 . S
C844 C845 1.524 . S
C844 H863 0.913 . S
C845 H821 0.950 . S
C845 C844 1.524 . S
C845 C846 1.415 . S
C846 H822 0.950 . S
C846 C841 1.363 . S
C846 C845 1.415 . S
C847 H823 0.951 . S
C847 C848 1.366 . S
C847 C849 1.388 . S
C848 C847 1.366 . S
C848 C852 1.385 . S
C849 H824 0.951 . S
C849 C847 1.388 . S
C849 C850 1.366 . S
C850 C849 1.366 . S
C850 C851 1.414 . S
C850 C853 1.499 . S
C851 H825 0.950 . S
C851 C850 1.414 . S
C851 C852 1.374 . S
C852 H826 0.950 . S
C852 C848 1.385 . S
C852 C851 1.374 . S
C853 C850 1.499 . S
C853 C854 1.373 . S
C853 C855 1.389 . S
C854 H827 0.950 . S
C854 C840 1.377 . S
C854 C853 1.373 . S
C855 C839 1.377 . S
C855 C853 1.389 . S
C855 C856 1.524 1_455 S
C856 C855 1.524 1_655 S
C856 C857 1.397 . S
C856 C861 1.363 . S
C857 H828 0.950 . S
C857 C856 1.397 . S
C857 C858 1.334 . S
C858 H829 0.950 . S
C858 C857 1.334 . S
C858 C859 1.287 . S
C859 C858 1.287 . S
C859 C860 1.524 . S
C859 H862 0.999 . S
C860 H830 0.950 . S
C860 C859 1.524 . S
C860 C861 1.415 . S
C861 H831 0.950 . S
C861 C856 1.363 . S
C861 C860 1.415 . S
H862 C859 0.999 . S
H863 C844 0.913 . S
C298 C81 1.384 . S
C283 C6 1.435 . S
C333 C22 1.503 . S
C348 C155 1.443 . S
C383 C34 1.954 . S
C398 C259 1.976 . S
C433 C7 0.716 . S
C448 C93 0.715 . S
C498 C167 0.809 . S
C483 C23 0.809 . S
C533 C35 1.157 . S
C548 C253 1.121 . S
C598 C185 2.275 . S
C583 C36 2.267 1_655 S
C633 C9 1.802 1_656 S
C648 C229 1.734 . S
C698 C105 1.407 . S
C683 C21 1.467 . S
C748 C179 1.397 . S
C733 C37 1.464 . S
C798 C241 1.047 . S
C783 C8 1.036 . S
C833 C20 2.271 . S
C848 C111 2.297 . S
