# Generated by pormake.
# Topology apo, (3,6)-cn, num edge types: 1
# Building blocks:
#     Node 0, Type 0, BuildingBlock: QEWDON_clean_linker_0, # of connection points: 3
#     Node 1, Type 0, BuildingBlock: QEWDON_clean_linker_0, # of connection points: 3
#     Node 2, Type 0, BuildingBlock: QEWDON_clean_linker_0, # of connection points: 3
#     Node 3, Type 0, BuildingBlock: QEWDON_clean_linker_0, # of connection points: 3
#     Node 4, Type 0, BuildingBlock: QEWDON_clean_linker_0, # of connection points: 3
#     Node 5, Type 0, BuildingBlock: QEWDON_clean_linker_0, # of connection points: 3
#     Node 6, Type 0, BuildingBlock: QEWDON_clean_linker_0, # of connection points: 3
#     Node 7, Type 0, BuildingBlock: QEWDON_clean_linker_0, # of connection points: 3
#     Node 8, Type 1, BuildingBlock: KUMBUR_clean_sbu_1, # of connection points: 6
#     Node 9, Type 1, BuildingBlock: KUMBUR_clean_sbu_1, # of connection points: 6
#     Node 10, Type 1, BuildingBlock: KUMBUR_clean_sbu_1, # of connection points: 6
#     Node 11, Type 1, BuildingBlock: KUMBUR_clean_sbu_1, # of connection points: 6
#     Edge 12, Type (0, 1), BuildingBlock: MIFKUJ_clean_linker_0, # of connection points: 2
#     Edge 13, Type (0, 1), BuildingBlock: MIFKUJ_clean_linker_0, # of connection points: 2
#     Edge 14, Type (0, 1), BuildingBlock: MIFKUJ_clean_linker_0, # of connection points: 2
#     Edge 15, Type (0, 1), BuildingBlock: MIFKUJ_clean_linker_0, # of connection points: 2
#     Edge 16, Type (0, 1), BuildingBlock: MIFKUJ_clean_linker_0, # of connection points: 2
#     Edge 17, Type (0, 1), BuildingBlock: MIFKUJ_clean_linker_0, # of connection points: 2
#     Edge 18, Type (0, 1), BuildingBlock: MIFKUJ_clean_linker_0, # of connection points: 2
#     Edge 19, Type (0, 1), BuildingBlock: MIFKUJ_clean_linker_0, # of connection points: 2
#     Edge 20, Type (0, 1), BuildingBlock: MIFKUJ_clean_linker_0, # of connection points: 2
#     Edge 21, Type (0, 1), BuildingBlock: MIFKUJ_clean_linker_0, # of connection points: 2
#     Edge 22, Type (0, 1), BuildingBlock: MIFKUJ_clean_linker_0, # of connection points: 2
#     Edge 23, Type (0, 1), BuildingBlock: MIFKUJ_clean_linker_0, # of connection points: 2
#     Edge 24, Type (0, 1), BuildingBlock: MIFKUJ_clean_linker_0, # of connection points: 2
#     Edge 25, Type (0, 1), BuildingBlock: MIFKUJ_clean_linker_0, # of connection points: 2
#     Edge 26, Type (0, 1), BuildingBlock: MIFKUJ_clean_linker_0, # of connection points: 2
#     Edge 27, Type (0, 1), BuildingBlock: MIFKUJ_clean_linker_0, # of connection points: 2
#     Edge 28, Type (0, 1), BuildingBlock: MIFKUJ_clean_linker_0, # of connection points: 2
#     Edge 29, Type (0, 1), BuildingBlock: MIFKUJ_clean_linker_0, # of connection points: 2
#     Edge 30, Type (0, 1), BuildingBlock: MIFKUJ_clean_linker_0, # of connection points: 2
#     Edge 31, Type (0, 1), BuildingBlock: MIFKUJ_clean_linker_0, # of connection points: 2
#     Edge 32, Type (0, 1), BuildingBlock: MIFKUJ_clean_linker_0, # of connection points: 2
#     Edge 33, Type (0, 1), BuildingBlock: MIFKUJ_clean_linker_0, # of connection points: 2
#     Edge 34, Type (0, 1), BuildingBlock: MIFKUJ_clean_linker_0, # of connection points: 2
#     Edge 35, Type (0, 1), BuildingBlock: MIFKUJ_clean_linker_0, # of connection points: 2
# Relax obj value: 0.074
# Max RMSD: 0.250
# Mean RMSD: 0.201
data_MOF--net-apo--node1-KUMBUR_clean_sbu_1--node2-QEWDON_clean_linker_0--edge1-MIFKUJ_clean_linker_0
_symmetry_space_group_name_H-M    P1
_symmetry_Int_Tables_number       1
_symmetry_cell_setting            triclinic
loop_
_symmetry_equiv_pos_as_xyz
'x, y, z'
_cell_length_a     38.208615
_cell_length_b     55.970329
_cell_length_c     64.614409
_cell_angle_alpha  90.013063
_cell_angle_beta   90.062961
_cell_angle_gamma 90.258079
loop_
_atom_site_label
_atom_site_type_symbol
_atom_site_fract_x
_atom_site_fract_y
_atom_site_fract_z
_atom_type_partial_charge
H0 H 0.2782 0.39112 0.39267 0.0
C1 C 0.29119 0.39019 0.40756 0.0
C2 C 0.32256 0.40297 0.41087 0.0
C3 C 0.27556 0.37722 0.42376 0.0
H4 H 0.36238 0.41226 0.43319 0.0
C5 C 0.33853 0.40218 0.4305 0.0
C6 C 0.32317 0.38945 0.44695 0.0
C7 C 0.29186 0.37684 0.4433 0.0
C8 C 0.23994 0.36681 0.42135 0.0
H9 H 0.27912 0.36756 0.45596 0.0
C10 C 0.2316 0.35037 0.40546 0.0
C11 C 0.19735 0.34085 0.40382 0.0
C12 C 0.21376 0.37365 0.43539 0.0
H13 H 0.21938 0.38639 0.44759 0.0
C14 C 0.18003 0.36436 0.43378 0.0
H15 H 0.25161 0.34499 0.39455 0.0
C16 C 0.17186 0.34808 0.4182 0.0
H17 H 0.14554 0.34081 0.41763 0.0
H18 H 0.16014 0.36973 0.44473 0.0
H19 H 0.23769 0.13267 0.88776 0.0
C20 C 0.22583 0.1335 0.90297 0.0
C21 C 0.19532 0.12012 0.90727 0.0
C22 C 0.24215 0.14705 0.91859 0.0
H23 H 0.15881 0.10964 0.93112 0.0
C24 C 0.18114 0.12083 0.9274 0.0
C25 C 0.1969 0.1345 0.94316 0.0
C26 C 0.22715 0.14778 0.93843 0.0
C27 C 0.27744 0.15764 0.91541 0.0
H28 H 0.23977 0.15835 0.95038 0.0
C29 C 0.28453 0.1744 0.89958 0.0
C30 C 0.31849 0.18431 0.89749 0.0
C31 C 0.30452 0.15077 0.92885 0.0
H32 H 0.29979 0.13781 0.941 0.0
C33 C 0.33794 0.1604 0.92678 0.0
H34 H 0.26379 0.17978 0.88915 0.0
C35 C 0.34489 0.17708 0.91134 0.0
H36 H 0.37098 0.18467 0.91051 0.0
H37 H 0.35852 0.15505 0.93731 0.0
H38 H 0.78354 0.13996 0.64187 0.0
C39 C 0.79745 0.1416 0.62732 0.0
C40 C 0.82981 0.13009 0.6247 0.0
C41 C 0.78209 0.15416 0.61087 0.0
H42 H 0.87181 0.1227 0.60339 0.0
C43 C 0.84711 0.13181 0.60554 0.0
C44 C 0.83199 0.14422 0.58887 0.0
C45 C 0.79953 0.15544 0.59177 0.0
C46 C 0.74593 0.16339 0.61269 0.0
H47 H 0.78697 0.16438 0.57888 0.0
C48 C 0.73662 0.17997 0.62816 0.0
C49 C 0.70183 0.18813 0.62965 0.0
C50 C 0.72029 0.15516 0.59879 0.0
H51 H 0.72684 0.14234 0.58685 0.0
C52 C 0.68588 0.16308 0.60033 0.0
H53 H 0.75628 0.18648 0.63889 0.0
C54 C 0.67664 0.17941 0.61564 0.0
H55 H 0.64982 0.18556 0.61631 0.0
H56 H 0.66629 0.15658 0.58957 0.0
H57 H 0.73079 0.38351 0.13851 0.0
C58 C 0.71798 0.38235 0.12357 0.0
C59 C 0.68865 0.39671 0.11916 0.0
C60 C 0.73182 0.36716 0.10841 0.0
H61 H 0.65198 0.40725 0.09543 0.0
C62 C 0.67325 0.39534 0.09932 0.0
C63 C 0.68645 0.37982 0.08407 0.0
C64 C 0.71542 0.36553 0.08905 0.0
C65 C 0.76604 0.3553 0.11138 0.0
H66 H 0.72604 0.35332 0.07768 0.0
C67 C 0.77122 0.33756 0.12656 0.0
C68 C 0.80332 0.32524 0.12749 0.0
C69 C 0.79352 0.36119 0.09785 0.0
H70 H 0.7901 0.37485 0.08614 0.0
C71 C 0.82551 0.34948 0.09916 0.0
H72 H 0.75006 0.33271 0.13692 0.0
C73 C 0.83036 0.33151 0.11376 0.0
H74 H 0.85536 0.32247 0.11438 0.0
H75 H 0.84651 0.35417 0.08866 0.0
H76 H 0.68938 0.65532 0.64172 0.0
C77 C 0.6862 0.65035 0.62561 0.0
C78 C 0.67657 0.62675 0.62039 0.0
C79 C 0.69002 0.66785 0.6101 0.0
H80 H 0.66251 0.603 0.59535 0.0
C81 C 0.67104 0.62088 0.59948 0.0
C82 C 0.67486 0.63804 0.58384 0.0
C83 C 0.68499 0.66134 0.58924 0.0
C84 C 0.69462 0.69352 0.61553 0.0
H85 H 0.68723 0.67479 0.57723 0.0
C86 C 0.72067 0.70151 0.62951 0.0
C87 C 0.72412 0.72612 0.63412 0.0
C88 C 0.67204 0.71033 0.60648 0.0
H89 H 0.65145 0.70471 0.59599 0.0
C90 C 0.67543 0.73453 0.61095 0.0
H91 H 0.73813 0.68871 0.63664 0.0
C92 C 0.70127 0.74241 0.62454 0.0
H93 H 0.70364 0.76143 0.62732 0.0
H94 H 0.65799 0.74728 0.60376 0.0
H95 H 0.82337 0.86979 0.14435 0.0
C96 C 0.82549 0.87396 0.12801 0.0
C97 C 0.83785 0.89654 0.1218 0.0
C98 C 0.81904 0.85607 0.11318 0.0
H99 H 0.8524 0.91876 0.09602 0.0
C100 C 0.84265 0.90135 0.10067 0.0
C101 C 0.83587 0.88379 0.08563 0.0
C102 C 0.82391 0.8612 0.09207 0.0
C103 C 0.81421 0.83091 0.11965 0.0
H104 H 0.82032 0.84708 0.08076 0.0
C105 C 0.78265 0.82246 0.12836 0.0
C106 C 0.77885 0.79801 0.13355 0.0
C107 C 0.84199 0.81501 0.11653 0.0
H108 H 0.86643 0.82121 0.10988 0.0
C109 C 0.83867 0.79108 0.12205 0.0
H110 H 0.76103 0.83466 0.13052 0.0
C111 C 0.80747 0.78262 0.13049 0.0
H112 H 0.80592 0.76396 0.13483 0.0
H113 H 0.86038 0.77901 0.11976 0.0
H114 H 0.19041 0.86299 0.37972 0.0
C115 C 0.18581 0.86686 0.39592 0.0
C116 C 0.1751 0.88991 0.40204 0.0
C117 C 0.18896 0.84838 0.41055 0.0
H118 H 0.15862 0.91147 0.42809 0.0
C119 C 0.16813 0.89419 0.42314 0.0
C120 C 0.17222 0.8761 0.43797 0.0
C121 C 0.18295 0.85336 0.43157 0.0
C122 C 0.19388 0.82321 0.40386 0.0
H123 H 0.185 0.83913 0.4429 0.0
C124 C 0.22109 0.81643 0.39033 0.0
C125 C 0.2244 0.79236 0.38408 0.0
C126 C 0.17023 0.80573 0.41097 0.0
H127 H 0.14886 0.81049 0.42116 0.0
C128 C 0.17348 0.78201 0.40481 0.0
H129 H 0.23949 0.82973 0.38475 0.0
C130 C 0.2003 0.77534 0.39148 0.0
H131 H 0.20251 0.7567 0.38717 0.0
H132 H 0.15511 0.76873 0.41041 0.0
H133 H 0.32949 0.66083 0.88033 0.0
C134 C 0.32974 0.65717 0.8968 0.0
C135 C 0.33863 0.63422 0.90409 0.0
C136 C 0.32419 0.67604 0.91075 0.0
H137 H 0.3469 0.61285 0.93159 0.0
C138 C 0.3406 0.63041 0.92563 0.0
C139 C 0.33563 0.6492 0.9397 0.0
C140 C 0.327 0.67189 0.93211 0.0
C141 C 0.32114 0.70093 0.90328 0.0
H142 H 0.32437 0.68673 0.94278 0.0
C143 C 0.29138 0.70893 0.89243 0.0
C144 C 0.28825 0.73327 0.88704 0.0
C145 C 0.34808 0.71718 0.90803 0.0
H146 H 0.37118 0.71133 0.91633 0.0
C147 C 0.34548 0.74106 0.90222 0.0
H148 H 0.27029 0.69653 0.88898 0.0
C149 C 0.31575 0.74911 0.8919 0.0
H150 H 0.31429 0.76781 0.88765 0.0
H151 H 0.36644 0.75343 0.9059 0.0
Tb152 Tb 0.04997 0.12196 0.24373 0.0
C153 C 0.89791 0.10152 0.27917 0.0
N154 N 0.91723 0.12183 0.2812 0.0
C155 C 0.8661 0.14552 0.27504 0.0
C156 C 0.86182 0.10241 0.27477 0.0
C157 C 0.90182 0.1437 0.27954 0.0
C158 C 0.84602 0.12479 0.2726 0.0
C159 C 0.89554 0.05821 0.27962 0.0
C160 C 0.91455 0.07973 0.28142 0.0
C161 C 0.85957 0.05896 0.27514 0.0
C162 C 0.84277 0.08101 0.27268 0.0
Tb163 Tb 0.97544 0.1166 0.28768 0.0
N164 N 0.94967 0.07973 0.28504 0.0
C165 C 0.91328 0.03663 0.28241 0.0
C166 C 0.96666 0.05879 0.28883 0.0
C167 C 0.9489 0.03697 0.2873 0.0
H168 H 0.91689 0.15975 0.28218 0.0
H169 H 0.96268 0.02048 0.2902 0.0
H170 H 0.1131 0.08382 0.25603 0.0
H171 H 0.0471 0.21862 0.23912 0.0
H172 H 0.99359 0.05871 0.29349 0.0
H173 H 0.89963 0.01967 0.28122 0.0
H174 H 0.02347 0.17817 0.2346 0.0
H175 H 0.85404 0.16291 0.27363 0.0
H176 H 0.84452 0.0426 0.27357 0.0
H177 H 0.81501 0.08131 0.26924 0.0
H178 H 0.17449 0.08611 0.26767 0.0
H179 H 0.81833 0.12625 0.26922 0.0
H180 H 0.10782 0.22439 0.2515 0.0
N181 N 0.10703 0.12155 0.25403 0.0
C182 C 0.12277 0.14331 0.25571 0.0
C183 C 0.16017 0.10234 0.26446 0.0
C184 C 0.15781 0.14543 0.2623 0.0
C185 C 0.12524 0.10112 0.25805 0.0
C186 C 0.17651 0.12458 0.26666 0.0
N187 N 0.06874 0.16078 0.2463 0.0
C188 C 0.04922 0.1802 0.24099 0.0
C189 C 0.118 0.18649 0.25404 0.0
C190 C 0.10301 0.16358 0.25172 0.0
C191 C 0.09732 0.20648 0.24987 0.0
C192 C 0.06294 0.20329 0.24305 0.0
H193 H 0.20351 0.12545 0.27176 0.0
H194 H 0.19968 0.17024 0.26978 0.0
H195 H 0.16485 0.20617 0.26254 0.0
O196 O 0.04727 0.13412 0.21297 0.0
O197 O 0.06031 0.13455 0.27561 0.0
O198 O 0.00758 0.14901 0.28669 0.0
O199 O 0.0828 0.10627 0.22136 0.0
O200 O 0.99756 0.13673 0.23751 0.0
O201 O 0.97708 0.14929 0.26927 0.0
O202 O 0.98988 0.10767 0.31815 0.0
O203 O 0.96424 0.09968 0.25745 0.0
O204 O 0.01696 0.08994 0.24184 0.0
O205 O 0.94599 0.13049 0.3125 0.0
O206 O 0.02587 0.09836 0.29223 0.0
O207 O 0.04923 0.08785 0.26027 0.0
C208 C 0.04193 0.14942 0.28691 0.0
C209 C 0.0597 0.10553 0.18743 0.0
C210 C 0.06325 0.09988 0.14991 0.0
C211 C 0.03823 0.08142 0.15148 0.0
C212 C 0.03463 0.08723 0.18851 0.0
C213 C 0.02411 0.07518 0.17066 0.0
C214 C 0.07405 0.11179 0.16811 0.0
C215 C 0.97633 0.14977 0.24892 0.0
C216 C 0.06997 0.11876 0.20622 0.0
C217 C 0.17281 0.16824 0.26465 0.0
C218 C 0.15296 0.1887 0.26055 0.0
C219 C 0.98303 0.08695 0.24445 0.0
C220 C 0.94363 0.10621 0.34239 0.0
C221 C 0.92375 0.1023 0.37823 0.0
C222 C 0.90633 0.081 0.37282 0.0
C223 C 0.92624 0.08482 0.33753 0.0
C224 C 0.94218 0.115 0.3628 0.0
C225 C 0.9076 0.07238 0.35261 0.0
C226 C 0.04572 0.08478 0.28041 0.0
C227 C 0.96388 0.11917 0.32647 0.0
H228 H 0.02978 0.07164 0.13789 0.0
H229 H 0.02309 0.08239 0.20312 0.0
H230 H 0.00482 0.06099 0.17168 0.0
H231 H 0.09299 0.12623 0.16721 0.0
H232 H 0.89143 0.07105 0.3842 0.0
H233 H 0.92712 0.07756 0.32217 0.0
H234 H 0.95591 0.13139 0.36673 0.0
H235 H 0.89417 0.05594 0.34862 0.0
Tb236 Tb 0.46981 0.40595 0.74241 0.0
C237 C 0.61925 0.4201 0.77482 0.0
N238 N 0.59838 0.40037 0.77566 0.0
C239 C 0.64654 0.37604 0.76459 0.0
C240 C 0.65428 0.41866 0.76809 0.0
C241 C 0.6124 0.37829 0.77211 0.0
C242 C 0.66739 0.39639 0.76219 0.0
C243 C 0.62838 0.46158 0.78445 0.0
C244 C 0.60656 0.44132 0.7828 0.0
C245 C 0.66279 0.46052 0.77697 0.0
C246 C 0.67567 0.43914 0.76869 0.0
Tb247 Tb 0.54267 0.40683 0.7876 0.0
N248 N 0.57339 0.44158 0.79026 0.0
C249 C 0.61543 0.48194 0.7944 0.0
C250 C 0.56136 0.46077 0.80117 0.0
C251 C 0.58194 0.4814 0.80308 0.0
H252 H 0.59767 0.36224 0.77538 0.0
H253 H 0.57205 0.49678 0.81133 0.0
H254 H 0.40147 0.43123 0.76395 0.0
H255 H 0.48691 0.31804 0.70874 0.0
H256 H 0.5358 0.46019 0.8082 0.0
H257 H 0.63142 0.49787 0.79601 0.0
H258 H 0.4994 0.36077 0.7126 0.0
H259 H 0.65705 0.35855 0.7612 0.0
H260 H 0.67999 0.47587 0.77824 0.0
H261 H 0.70266 0.43833 0.76363 0.0
H262 H 0.34305 0.41889 0.77671 0.0
H263 H 0.69412 0.39453 0.75686 0.0
H264 H 0.43384 0.30044 0.72461 0.0
N265 N 0.41558 0.39623 0.75445 0.0
C266 C 0.40501 0.37328 0.75169 0.0
C267 C 0.36034 0.40584 0.76984 0.0
C268 C 0.37215 0.36534 0.75883 0.0
C269 C 0.39344 0.41277 0.7627 0.0
C270 C 0.34978 0.38195 0.76811 0.0
N271 N 0.45804 0.36678 0.73412 0.0
C272 C 0.47783 0.35314 0.7211 0.0
C273 C 0.41773 0.3338 0.73858 0.0
C274 C 0.42747 0.35786 0.74169 0.0
C275 C 0.4401 0.3191 0.7272 0.0
C276 C 0.47003 0.32895 0.71817 0.0
H277 H 0.32427 0.37659 0.7738 0.0
H278 H 0.33789 0.3346 0.76212 0.0
H279 H 0.37788 0.30692 0.7444 0.0
O280 O 0.44941 0.40347 0.71178 0.0
O281 O 0.4586 0.39324 0.77409 0.0
O282 O 0.50955 0.37528 0.78358 0.0
O283 O 0.44888 0.4369 0.729 0.0
O284 O 0.52162 0.39072 0.73525 0.0
O285 O 0.54068 0.37579 0.76661 0.0
O286 O 0.52442 0.40463 0.81839 0.0
O287 O 0.53916 0.4373 0.766 0.0
O288 O 0.52207 0.41994 0.73546 0.0
O289 O 0.57813 0.39795 0.81114 0.0
O290 O 0.49439 0.4267 0.79403 0.0
O291 O 0.46873 0.43759 0.76257 0.0
C292 C 0.47527 0.3761 0.78379 0.0
C293 C 0.4236 0.43836 0.69451 0.0
C294 C 0.4068 0.4411 0.65796 0.0
C295 C 0.391 0.46325 0.66214 0.0
C296 C 0.40783 0.46059 0.6981 0.0
C297 C 0.39156 0.47286 0.68203 0.0
C298 C 0.42281 0.42854 0.67439 0.0
C299 C 0.54072 0.37575 0.74623 0.0
C300 C 0.44092 0.42591 0.7119 0.0
C301 C 0.36282 0.34119 0.75647 0.0
C302 C 0.38564 0.32541 0.74643 0.0
C303 C 0.53845 0.43694 0.74565 0.0
C304 C 0.55507 0.377 0.83923 0.0
C305 C 0.56783 0.36022 0.8732 0.0
C306 C 0.56497 0.33714 0.86478 0.0
C307 C 0.55167 0.35385 0.83112 0.0
C308 C 0.5625 0.38012 0.86033 0.0
C309 C 0.5563 0.33402 0.84393 0.0
C310 C 0.47382 0.44044 0.78268 0.0
C311 C 0.5546 0.39791 0.82555 0.0
H312 H 0.37781 0.47312 0.65003 0.0
H313 H 0.4079 0.46851 0.71341 0.0
H314 H 0.37928 0.48991 0.68501 0.0
H315 H 0.43525 0.41152 0.67144 0.0
H316 H 0.56907 0.32156 0.8744 0.0
H317 H 0.54647 0.35118 0.81481 0.0
H318 H 0.56563 0.39801 0.86654 0.0
H319 H 0.55386 0.31618 0.83759 0.0
Tb320 Tb 0.03797 0.90678 0.73939 0.0
C321 C 0.89777 0.87351 0.77216 0.0
N322 N 0.90961 0.89646 0.77176 0.0
C323 C 0.85484 0.90959 0.75778 0.0
C324 C 0.86401 0.86764 0.76491 0.0
C325 C 0.88868 0.91454 0.76492 0.0
C326 C 0.84246 0.88605 0.75774 0.0
C327 C 0.9094 0.83168 0.77889 0.0
C328 C 0.92044 0.85576 0.77885 0.0
C329 C 0.87589 0.82569 0.77149 0.0
C330 C 0.85324 0.84363 0.76456 0.0
Tb331 Tb 0.96463 0.90241 0.78432 0.0
N332 N 0.95304 0.86214 0.78554 0.0
C333 C 0.93208 0.81438 0.78679 0.0
C334 C 0.97352 0.84561 0.79525 0.0
C335 C 0.96397 0.82146 0.7954 0.0
H336 H 0.89802 0.93278 0.76508 0.0
H337 H 0.98083 0.80841 0.80265 0.0
H338 H 0.09233 0.8609 0.74404 0.0
H339 H 0.06017 1.00211 0.73646 0.0
H340 H 0.99646 0.85085 0.80378 0.0
H341 H 0.9246 0.79569 0.7871 0.0
H342 H 0.02516 0.96519 0.73381 0.0
H343 H 0.83834 0.92393 0.75229 0.0
H344 H 0.86711 0.80726 0.77125 0.0
H345 H 0.8275 0.83872 0.75888 0.0
H346 H 0.15495 0.85485 0.75187 0.0
H347 H 0.81636 0.88227 0.75201 0.0
H348 H 0.12353 0.9999 0.74419 0.0
N349 N 0.09565 0.89877 0.74536 0.0
C350 C 0.11708 0.91814 0.74686 0.0
C351 C 0.14457 0.87276 0.75068 0.0
C352 C 0.15314 0.91559 0.75078 0.0
C353 C 0.10898 0.87622 0.74664 0.0
C354 C 0.16673 0.89253 0.75291 0.0
N355 N 0.06755 0.94229 0.74131 0.0
C356 C 0.05245 0.96396 0.73769 0.0
C357 C 0.12388 0.96125 0.74578 0.0
C358 C 0.1027 0.94065 0.74437 0.0
C359 C 0.1082 0.98361 0.74318 0.0
C360 C 0.07239 0.98494 0.73892 0.0
H361 H 0.19431 0.88979 0.75597 0.0
H362 H 0.20218 0.93449 0.75545 0.0
H363 H 0.17653 0.97447 0.7511 0.0
O364 O 0.02416 0.91777 0.70936 0.0
O365 O 0.05007 0.92559 0.76859 0.0
O366 O 0.99911 0.93361 0.78721 0.0
O367 O 0.06674 0.89353 0.71409 0.0
O368 O 0.98864 0.92653 0.73575 0.0
O369 O 0.96472 0.93659 0.76783 0.0
O370 O 0.96411 0.89466 0.81629 0.0
O371 O 0.95385 0.89177 0.75208 0.0
O372 O 0.00428 0.8749 0.74003 0.0
O373 O 0.92691 0.91878 0.8032 0.0
O374 O 0.01765 0.88859 0.79012 0.0
O375 O 0.03492 0.87453 0.75826 0.0
C376 C 0.03235 0.93747 0.78272 0.0
C377 C 0.03624 0.89047 0.68255 0.0
C378 C 0.04092 0.88061 0.64583 0.0
C379 C 0.01342 0.86407 0.64817 0.0
C380 C 0.009 0.87383 0.68454 0.0
C381 C 0.99785 0.86058 0.66748 0.0
C382 C 0.05241 0.89369 0.66321 0.0
C383 C 0.97009 0.94059 0.74793 0.0
C384 C 0.04784 0.90463 0.70048 0.0
C385 C 0.17441 0.93607 0.75237 0.0
C386 C 0.15981 0.95885 0.74986 0.0
C387 C 0.96994 0.8754 0.74116 0.0
C388 C 0.94339 0.92547 0.83788 0.0
C389 C 0.93681 0.93361 0.87487 0.0
C390 C 0.95082 0.9566 0.87161 0.0
C391 C 0.95741 0.94841 0.83507 0.0
C392 C 0.93316 0.91809 0.8578 0.0
C393 C 0.9612 0.96385 0.85187 0.0
C394 C 0.03765 0.87489 0.77852 0.0
C395 C 0.93861 0.90926 0.82014 0.0
H396 H 0.00434 0.85356 0.63513 0.0
H397 H 0.99643 0.87113 0.69926 0.0
H398 H 0.97715 0.84754 0.66926 0.0
H399 H 0.0735 0.90659 0.66162 0.0
H400 H 0.95326 0.96914 0.8843 0.0
H401 H 0.96489 0.95444 0.81983 0.0
H402 H 0.92254 0.90028 0.85997 0.0
H403 H 0.97191 0.98159 0.84956 0.0
Tb404 Tb 0.47335 0.61555 0.23908 0.0
C405 C 0.61975 0.63693 0.27887 0.0
N406 N 0.60252 0.61577 0.27673 0.0
C407 C 0.65601 0.59661 0.26683 0.0
C408 C 0.65594 0.63876 0.27494 0.0
C409 C 0.62018 0.5956 0.27116 0.0
C410 C 0.67398 0.61828 0.26869 0.0
C411 C 0.61779 0.67911 0.28738 0.0
C412 C 0.60073 0.65697 0.28459 0.0
C413 C 0.65395 0.68094 0.28377 0.0
C414 C 0.67291 0.66089 0.27737 0.0
Tb415 Tb 0.54441 0.61655 0.2848 0.0
N416 N 0.56555 0.65467 0.28749 0.0
C417 C 0.59811 0.69861 0.29413 0.0
C418 C 0.54667 0.67342 0.29495 0.0
C419 C 0.56244 0.69573 0.29799 0.0
H420 H 0.60705 0.57854 0.27057 0.0
H421 H 0.54726 0.71052 0.30389 0.0
H422 H 0.41422 0.65737 0.25039 0.0
H423 H 0.46164 0.52058 0.22585 0.0
H424 H 0.51998 0.67116 0.29965 0.0
H425 H 0.61035 0.71573 0.29709 0.0
H426 H 0.49255 0.55907 0.22783 0.0
H427 H 0.66984 0.5806 0.26232 0.0
H428 H 0.66758 0.69772 0.28602 0.0
H429 H 0.70074 0.66264 0.27453 0.0
H430 H 0.3516 0.65843 0.25947 0.0
H431 H 0.70179 0.61897 0.26546 0.0
H432 H 0.39821 0.51862 0.23306 0.0
N433 N 0.41534 0.61954 0.2468 0.0
C434 C 0.39619 0.59901 0.24619 0.0
C435 C 0.36391 0.64164 0.2558 0.0
C436 C 0.36006 0.59899 0.25056 0.0
C437 C 0.39959 0.64085 0.25103 0.0
C438 C 0.34407 0.62064 0.25561 0.0
N439 N 0.44826 0.57845 0.23813 0.0
C440 C 0.46551 0.55832 0.23214 0.0
C441 C 0.39413 0.55623 0.24024 0.0
C442 C 0.41307 0.57783 0.24137 0.0
C443 C 0.41197 0.53542 0.23471 0.0
C444 C 0.44779 0.53649 0.2306 0.0
H445 H 0.31639 0.62138 0.25919 0.0
H446 H 0.31333 0.57707 0.25304 0.0
H447 H 0.34304 0.53971 0.24367 0.0
O448 O 0.48119 0.60526 0.20824 0.0
O449 O 0.4602 0.59701 0.26838 0.0
O450 O 0.51227 0.58422 0.28272 0.0
O451 O 0.44488 0.63316 0.21562 0.0
O452 O 0.52517 0.59953 0.23398 0.0
O453 O 0.54469 0.58459 0.26529 0.0
O454 O 0.53555 0.62377 0.31632 0.0
O455 O 0.55844 0.63437 0.25542 0.0
O456 O 0.50689 0.64747 0.24061 0.0
O457 O 0.5761 0.59966 0.30705 0.0
O458 O 0.49207 0.63217 0.28989 0.0
O459 O 0.47519 0.64752 0.25828 0.0
C460 C 0.47828 0.58214 0.27997 0.0
C461 C 0.47367 0.63527 0.18333 0.0
C462 C 0.46938 0.64706 0.14704 0.0
C463 C 0.50164 0.65909 0.14889 0.0
C464 C 0.50598 0.64712 0.18479 0.0
C465 C 0.51968 0.65921 0.16771 0.0
C466 C 0.4553 0.63542 0.16448 0.0
C467 C 0.54307 0.58391 0.24491 0.0
C468 C 0.46006 0.62132 0.20086 0.0
C469 C 0.34113 0.57743 0.24975 0.0
C470 C 0.35807 0.55613 0.24446 0.0
C471 C 0.54103 0.64899 0.24325 0.0
C472 C 0.55121 0.59369 0.34003 0.0
C473 C 0.5565 0.58425 0.37686 0.0
C474 C 0.53516 0.56398 0.37367 0.0
C475 C 0.52991 0.57355 0.33725 0.0
C476 C 0.56433 0.59905 0.35981 0.0
C477 C 0.52193 0.55875 0.354 0.0
C478 C 0.47398 0.64736 0.27858 0.0
C479 C 0.56005 0.60941 0.32258 0.0
H480 H 0.51293 0.66835 0.13576 0.0
H481 H 0.52087 0.64659 0.19899 0.0
H482 H 0.54461 0.66838 0.16897 0.0
H483 H 0.43073 0.62576 0.1632 0.0
H484 H 0.52901 0.55198 0.38631 0.0
H485 H 0.51961 0.56933 0.32214 0.0
H486 H 0.58028 0.61493 0.3619 0.0
H487 H 0.50556 0.54313 0.35171 0.0
H488 H 0.188 0.938 0.40589 0.0
H489 H 0.16975 0.96995 0.38258 0.0
H490 H 0.13045 0.91782 0.33923 0.0
H491 H 0.14702 0.88563 0.36288 0.0
H492 H 0.17094 0.96078 0.32192 0.0
H493 H 0.07302 0.93838 0.36566 0.0
H494 H 0.04553 0.92965 0.39934 0.0
H495 H 0.07073 1.00038 0.42054 0.0
H496 H 0.09894 1.00939 0.38708 0.0
H497 H 0.06309 0.04133 0.26398 0.0
H498 H 0.0888 1.00724 0.28222 0.0
H499 H 0.09694 0.04974 0.33782 0.0
H500 H 0.06985 0.08329 0.31993 0.0
H501 H 0.072 1.00949 0.34779 0.0
H502 H 0.16977 0.03328 0.30605 0.0
H503 H 0.20078 0.0434 0.27375 0.0
H504 H 0.1804 0.973 0.2501 0.0
H505 H 0.1489 0.96253 0.28219 0.0
C506 C 0.17546 0.93322 0.39143 0.0
C507 C 0.16858 0.90914 0.38648 0.0
C508 C 0.16537 0.95154 0.37803 0.0
C509 C 0.14864 0.94621 0.35926 0.0
C510 C 0.14351 0.92225 0.35363 0.0
C511 C 0.15315 0.90387 0.36717 0.0
C512 C 0.13381 0.96575 0.34652 0.0
C513 C 0.14902 0.9713 0.32736 0.0
C514 C 0.1058 0.97974 0.35393 0.0
C515 C 0.08841 0.97446 0.37395 0.0
C516 C 0.07298 0.952 0.37757 0.0
C517 C 0.05722 0.94701 0.39661 0.0
C518 C 0.05647 0.96443 0.41209 0.0
C519 C 0.07138 0.9869 0.40854 0.0
C520 C 0.08724 0.99195 0.38954 0.0
C521 C 0.07083 0.04341 0.28002 0.0
C522 C 0.06452 0.06493 0.29055 0.0
C523 C 0.08561 0.02395 0.29044 0.0
C524 C 0.09518 0.02587 0.31143 0.0
C525 C 0.08966 0.04766 0.3217 0.0
C526 C 0.07428 0.06688 0.31144 0.0
C527 C 0.10939 1.00505 0.32309 0.0
C528 C 0.09393 0.99911 0.34214 0.0
C529 C 0.13756 0.99102 0.31568 0.0
C530 C 0.15668 0.9972 0.29644 0.0
C531 C 0.17169 0.02001 0.2939 0.0
C532 C 0.18937 0.0258 0.27564 0.0
C533 C 0.19245 1.00888 0.25985 0.0
C534 C 0.17795 0.9861 0.26233 0.0
C535 C 0.16021 0.98021 0.28056 0.0
H536 H 0.20615 0.0134 0.24572 0.0
H537 H 0.04426 0.96053 0.42683 0.0
H538 H 0.39061 0.60121 0.90937 0.0
H539 H 0.40882 0.56988 0.88593 0.0
H540 H 0.33197 0.59267 0.84125 0.0
H541 H 0.31163 0.62338 0.86546 0.0
H542 H 0.33459 0.54552 0.84159 0.0
H543 H 0.41985 0.60678 0.83549 0.0
H544 H 0.46231 0.63727 0.8471 0.0
H545 H 0.52461 0.58289 0.87584 0.0
H546 H 0.48226 0.55209 0.86467 0.0
H547 H 0.43007 0.47423 0.76577 0.0
H548 H 0.4034 0.50846 0.7833 0.0
H549 H 0.45179 0.48725 0.84067 0.0
H550 H 0.47758 0.45274 0.82365 0.0
H551 H 0.46192 0.53701 0.82858 0.0
H552 H 0.3709 0.47646 0.83568 0.0
H553 H 0.32915 0.44709 0.82133 0.0
H554 H 0.27826 0.50264 0.78693 0.0
H555 H 0.32018 0.53229 0.80077 0.0
C556 C 0.37685 0.59939 0.89479 0.0
C557 C 0.34933 0.61488 0.88948 0.0
C558 C 0.38781 0.5816 0.88119 0.0
C559 C 0.37235 0.57916 0.86159 0.0
C560 C 0.34451 0.59429 0.85623 0.0
C561 C 0.33312 0.612 0.87003 0.0
C562 C 0.38574 0.56081 0.84691 0.0
C563 C 0.36236 0.54396 0.83844 0.0
C564 C 0.422 0.55868 0.84268 0.0
C565 C 0.44772 0.57713 0.84934 0.0
C566 C 0.44249 0.60133 0.8444 0.0
C567 C 0.46655 0.61867 0.85089 0.0
C568 C 0.4961 0.61203 0.86222 0.0
C569 C 0.50169 0.58801 0.86706 0.0
C570 C 0.47769 0.5706 0.86063 0.0
C571 C 0.43487 0.47671 0.78216 0.0
C572 C 0.45632 0.46075 0.79321 0.0
C573 C 0.4196 0.49631 0.79212 0.0
C574 C 0.42581 0.5004 0.81324 0.0
C575 C 0.44689 0.48446 0.82432 0.0
C576 C 0.46164 0.46472 0.8145 0.0
C577 C 0.41095 0.52147 0.82395 0.0
C578 C 0.43412 0.53884 0.83156 0.0
C579 C 0.37456 0.52428 0.82702 0.0
C580 C 0.34893 0.50654 0.81907 0.0
C581 C 0.35099 0.48238 0.82492 0.0
C582 C 0.32728 0.46568 0.81689 0.0
C583 C 0.30113 0.47298 0.80318 0.0
C584 C 0.29857 0.49701 0.79752 0.0
C585 C 0.3223 0.51377 0.80545 0.0
H586 H 0.28281 0.46002 0.79697 0.0
H587 H 0.5147 0.62548 0.86724 0.0
H588 H 0.69512 0.5796 0.62041 0.0
H589 H 0.67447 0.54822 0.64384 0.0
H590 H 0.6204 0.60082 0.68035 0.0
H591 H 0.64004 0.63234 0.65662 0.0
H592 H 0.67771 0.54801 0.69376 0.0
H593 H 0.55853 0.5849 0.67339 0.0
H594 H 0.52314 0.60212 0.6451 0.0
H595 H 0.54948 0.54285 0.60594 0.0
H596 H 0.58527 0.52549 0.634 0.0
H597 H 0.56492 0.47943 0.76011 0.0
H598 H 0.59416 0.511 0.74052 0.0
H599 H 0.57848 0.47097 0.68423 0.0
H600 H 0.5507 0.43875 0.70393 0.0
H601 H 0.55746 0.51771 0.68052 0.0
H602 H 0.65807 0.47496 0.70144 0.0
H603 H 0.70272 0.45536 0.72302 0.0
H604 H 0.72051 0.52098 0.7559 0.0
H605 H 0.6757 0.54096 0.7346 0.0
C606 C 0.67904 0.58455 0.63351 0.0
C607 C 0.66898 0.60847 0.63654 0.0
C608 C 0.6674 0.56661 0.64691 0.0
C609 C 0.64563 0.57223 0.66362 0.0
C610 C 0.637 0.59617 0.66739 0.0
C611 C 0.64853 0.61417 0.65394 0.0
C612 C 0.63039 0.55278 0.6763 0.0
C613 C 0.65115 0.54166 0.6913 0.0
C614 C 0.59647 0.54387 0.67227 0.0
C615 C 0.57458 0.55404 0.65565 0.0
C616 C 0.5568 0.57564 0.65871 0.0
C617 C 0.53671 0.5854 0.64274 0.0
C618 C 0.5341 0.5736 0.62372 0.0
C619 C 0.55153 0.55198 0.62066 0.0
C620 C 0.57171 0.54218 0.63658 0.0
C621 C 0.56857 0.47697 0.7437 0.0
C622 C 0.55609 0.45627 0.73376 0.0
C623 C 0.58508 0.49516 0.73246 0.0
C624 C 0.58878 0.49327 0.71092 0.0
C625 C 0.57601 0.47277 0.70086 0.0
C626 C 0.56007 0.45439 0.71216 0.0
C627 C 0.60429 0.51323 0.6988 0.0
C628 C 0.58371 0.5243 0.68357 0.0
C629 C 0.63868 0.52182 0.70249 0.0
C630 C 0.66326 0.5094 0.71657 0.0
C631 C 0.67105 0.48512 0.71351 0.0
C632 C 0.69663 0.474 0.72555 0.0
C633 C 0.71464 0.48697 0.74069 0.0
C634 C 0.70669 0.511 0.74406 0.0
C635 C 0.6812 0.52223 0.73202 0.0
H636 H 0.73457 0.47836 0.74994 0.0
H637 H 0.51855 0.58119 0.61137 0.0
H638 H 0.79844 0.92238 0.14915 0.0
H639 H 0.81916 0.95425 0.17258 0.0
H640 H 0.92515 0.94222 0.15231 0.0
H641 H 0.90443 0.91092 0.12868 0.0
H642 H 0.91652 0.94699 0.19663 0.0
H643 H 0.88512 0.98622 0.13222 0.0
H644 H 0.84442 0.99687 0.10409 0.0
H645 H 0.77485 0.02896 0.14811 0.0
H646 H 0.81492 0.01815 0.17656 0.0
H647 H 0.01347 0.04762 0.22712 0.0
H648 H 0.98505 0.01491 0.20869 0.0
H649 H 0.88427 0.04714 0.21943 0.0
H650 H 0.91298 0.08098 0.23643 0.0
H651 H 0.88451 0.03125 0.18258 0.0
H652 H 0.91267 0.99369 0.24691 0.0
H653 H 0.94914 0.9814 0.27656 0.0
H654 H 0.0203 0.9462 0.23535 0.0
H655 H 0.98384 0.95783 0.20548 0.0
C656 C 0.82613 0.92649 0.14991 0.0
C657 C 0.84993 0.91433 0.13721 0.0
C658 C 0.83793 0.94467 0.16319 0.0
C659 C 0.8737 0.95062 0.16412 0.0
C660 C 0.8975 0.93789 0.15187 0.0
C661 C 0.88568 0.92009 0.13838 0.0
C662 C 0.88655 0.97057 0.17729 0.0
C663 C 0.90969 0.96544 0.19353 0.0
C664 C 0.87677 0.99454 0.17364 0.0
C665 C 0.85279 1.00111 0.15653 0.0
C666 C 0.86098 0.99534 0.13592 0.0
C667 C 0.83806 1.00144 0.11991 0.0
C668 C 0.80701 0.01351 0.12431 0.0
C669 C 0.79887 0.01956 0.14473 0.0
C670 C 0.82168 0.01346 0.1608 0.0
C671 C 0.98528 0.04791 0.2254 0.0
C672 C 0.96553 0.06695 0.23334 0.0
C673 C 0.96893 0.02892 0.21512 0.0
C674 C 0.9323 0.0281 0.21304 0.0
C675 C 0.91251 0.04716 0.2209 0.0
C676 C 0.92896 0.06644 0.23082 0.0
C677 C 0.915 1.00781 0.20194 0.0
C678 C 0.89105 0.01283 0.186 0.0
C679 C 0.92353 0.98366 0.20612 0.0
C680 C 0.94571 0.9768 0.22397 0.0
C681 C 0.93621 0.98345 0.24418 0.0
C682 C 0.95683 0.97657 0.26102 0.0
C683 C 0.9872 0.96326 0.25783 0.0
C684 C 0.99682 0.95657 0.2378 0.0
C685 C 0.97607 0.96316 0.22092 0.0
H686 H 1.00319 0.95804 0.27089 0.0
H687 H 0.78931 0.01824 0.1119 0.0
H688 H 0.79523 0.09537 0.64617 0.0
H689 H 0.81973 0.06651 0.67047 0.0
H690 H 0.92112 0.10018 0.66469 0.0
H691 H 0.89677 0.12863 0.63978 0.0
H692 H 0.92973 0.05545 0.66221 0.0
H693 H 0.86892 0.10421 0.71008 0.0
H694 H 0.8193 0.12663 0.72464 0.0
H695 H 0.76021 0.06157 0.73059 0.0
H696 H 0.80929 0.03878 0.71579 0.0
H697 H 0.95353 0.98366 0.76543 0.0
H698 H 0.93048 0.01909 0.74769 0.0
H699 H 0.92319 0.97889 0.69083 0.0
H700 H 0.9474 0.944 0.70819 0.0
H701 H 0.87331 0.03127 0.72814 0.0
H702 H 0.94296 0.01181 0.64992 0.0
H703 H 0.99637 0.99168 0.63765 0.0
H704 H 0.04578 1.00404 0.6964 0.0
H705 H 0.9929 0.02455 0.70895 0.0
C706 C 0.8226 0.09688 0.65039 0.0
C707 C 0.84406 0.11433 0.64116 0.0
C708 C 0.83662 0.08039 0.66434 0.0
C709 C 0.87227 0.08125 0.66971 0.0
C710 C 0.89357 0.09906 0.66083 0.0
C711 C 0.87965 0.11535 0.64663 0.0
C712 C 0.88768 0.06268 0.68351 0.0
C713 C 0.91745 0.05032 0.67668 0.0
C714 C 0.8723 0.0562 0.70268 0.0
C715 C 0.84273 0.0698 0.71168 0.0
C716 C 0.84526 0.09469 0.71436 0.0
C717 C 0.81724 0.10747 0.72268 0.0
C718 C 0.7866 0.09554 0.7285 0.0
C719 C 0.78396 0.07079 0.72607 0.0
C720 C 0.81189 0.05793 0.71774 0.0
C721 C 0.94669 0.98242 0.74918 0.0
C722 C 0.95263 0.96121 0.73811 0.0
C723 C 0.93355 1.00264 0.73906 0.0
C724 C 0.92585 1.00187 0.71778 0.0
C725 C 0.9299 0.98021 0.70708 0.0
C726 C 0.9436 0.96022 0.71705 0.0
C727 C 0.91458 0.02371 0.70648 0.0
C728 C 0.88569 0.03663 0.71376 0.0
C729 C 0.93142 0.03122 0.68804 0.0
C730 C 0.96382 0.01959 0.68041 0.0
C731 C 0.96531 1.0104 0.66017 0.0
C732 C 0.99547 0.99888 0.65319 0.0
C733 C 0.0244 0.99652 0.66627 0.0
C734 C 0.02331 1.00581 0.68632 0.0
C735 C 0.99324 0.01738 0.69338 0.0
H736 H 0.04768 0.98754 0.66084 0.0
H737 H 0.76493 0.10546 0.73493 0.0
H738 H 0.72671 0.42486 0.14593 0.0
H739 H 0.70495 0.45467 0.17027 0.0
H740 H 0.5991 0.43961 0.1508 0.0
H741 H 0.62048 0.40887 0.12728 0.0
H742 H 0.67311 0.49465 0.16443 0.0
H743 H 0.54152 0.45028 0.189 0.0
H744 H 0.51742 0.40991 0.195 0.0
H745 H 0.62069 0.38342 0.20722 0.0
H746 H 0.64535 0.42368 0.20159 0.0
H747 H 0.55658 0.58083 0.20344 0.0
H748 H 0.58391 0.54795 0.18477 0.0
H749 H 0.5982 0.50986 0.24217 0.0
H750 H 0.56986 0.54244 0.26094 0.0
H751 H 0.57517 0.4803 0.21329 0.0
H752 H 0.66689 0.5375 0.21836 0.0
H753 H 0.69429 0.57732 0.21554 0.0
H754 H 0.67882 0.57639 0.1497 0.0
H755 H 0.65072 0.53673 0.15217 0.0
C756 C 0.69873 0.42746 0.14714 0.0
C757 C 0.67538 0.41429 0.13465 0.0
C758 C 0.68634 0.44476 0.16093 0.0
C759 C 0.65033 0.44934 0.16256 0.0
C760 C 0.62695 0.4362 0.15014 0.0
C761 C 0.63928 0.41877 0.13648 0.0
C762 C 0.63729 0.46839 0.17669 0.0
C763 C 0.65177 0.49145 0.17515 0.0
C764 C 0.60994 0.46422 0.19107 0.0
C765 C 0.5953 0.43997 0.19468 0.0
C766 C 0.55907 0.43586 0.19306 0.0
C767 C 0.54531 0.41299 0.19637 0.0
C768 C 0.56752 0.3941 0.20142 0.0
C769 C 0.60353 0.39805 0.20323 0.0
C770 C 0.61742 0.42089 0.19995 0.0
C771 C 0.56566 0.56553 0.21215 0.0
C772 C 0.5614 0.56443 0.23375 0.0
C773 C 0.58142 0.54675 0.20144 0.0
C774 C 0.59357 0.52653 0.21208 0.0
C775 C 0.58917 0.52531 0.23363 0.0
C776 C 0.57326 0.54406 0.24436 0.0
C777 C 0.61041 0.50659 0.2006 0.0
C778 C 0.59663 0.48342 0.20264 0.0
C779 C 0.63903 0.5105 0.1871 0.0
C780 C 0.65647 0.53419 0.18547 0.0
C781 C 0.66914 0.54584 0.20329 0.0
C782 C 0.6848 0.56839 0.20175 0.0
C783 C 0.68825 0.57939 0.18245 0.0
C784 C 0.67611 0.56785 0.16464 0.0
C785 C 0.66034 0.54532 0.1661 0.0
H786 H 0.70037 0.59686 0.18129 0.0
H787 H 0.55682 0.37641 0.20397 0.0
H788 H 0.39091 0.40761 0.39871 0.0
H789 H 0.41562 0.43688 0.37463 0.0
H790 H 0.31228 0.46452 0.36284 0.0
H791 H 0.28741 0.435 0.38665 0.0
H792 H 0.34748 0.46313 0.32809 0.0
H793 H 0.37153 0.49223 0.39631 0.0
H794 H 0.3942 0.49089 0.43202 0.0
H795 H 0.49855 0.48115 0.40901 0.0
H796 H 0.47642 0.48198 0.37314 0.0
H797 H 0.40816 0.57733 0.28878 0.0
H798 H 0.37964 0.54491 0.30808 0.0
H799 H 0.47869 0.5089 0.31381 0.0
H800 H 0.50701 0.54059 0.29388 0.0
H801 H 0.44446 0.51567 0.35177 0.0
H802 H 0.41931 0.47982 0.28495 0.0
H803 H 0.39675 0.47777 0.24921 0.0
H804 H 0.29601 0.50149 0.27003 0.0
H805 H 0.31783 0.50305 0.30602 0.0
C806 C 0.37345 0.41984 0.39088 0.0
C807 C 0.33721 0.41902 0.39463 0.0
C808 C 0.38761 0.43666 0.37719 0.0
C809 C 0.36594 0.45331 0.36721 0.0
C810 C 0.3296 0.45195 0.37038 0.0
C811 C 0.31538 0.43499 0.38393 0.0
C812 C 0.38115 0.4723 0.3537 0.0
C813 C 0.36831 0.47484 0.33344 0.0
C814 C 0.40885 0.48739 0.36043 0.0
C815 C 0.42223 0.48689 0.38202 0.0
C816 C 0.39926 0.48958 0.39885 0.0
C817 C 0.41203 0.48894 0.41913 0.0
C818 C 0.44777 0.48586 0.42278 0.0
C819 C 0.47085 0.48348 0.40616 0.0
C820 C 0.45821 0.48403 0.38585 0.0
C821 C 0.42373 0.56229 0.29381 0.0
C822 C 0.46001 0.56179 0.29012 0.0
C823 C 0.4074 0.54378 0.30486 0.0
C824 C 0.4271 0.52456 0.31252 0.0
C825 C 0.46302 0.52363 0.3082 0.0
C826 C 0.47919 0.54186 0.29689 0.0
C827 C 0.41094 0.50624 0.32623 0.0
C828 C 0.42352 0.50397 0.34655 0.0
C829 C 0.38301 0.49148 0.31964 0.0
C830 C 0.37025 0.49177 0.29805 0.0
C831 C 0.39243 0.48476 0.28185 0.0
C832 C 0.37969 0.48348 0.26161 0.0
C833 C 0.34499 0.48956 0.25734 0.0
C834 C 0.32287 0.49678 0.27336 0.0
C835 C 0.33534 0.49772 0.2937 0.0
H836 H 0.33525 0.4887 0.24162 0.0
H837 H 0.45761 0.48539 0.4385 0.0
H838 H 0.22924 0.09084 0.8797 0.0
H839 H 0.20329 0.06123 0.85637 0.0
H840 H 0.10011 0.08203 0.87622 0.0
H841 H 0.1258 0.11191 0.89934 0.0
H842 H 0.10845 0.03412 0.87794 0.0
H843 H 0.13012 0.09637 0.82828 0.0
H844 H 0.16583 0.12603 0.80947 0.0
H845 H 0.23235 0.07018 0.7869 0.0
H846 H 0.19732 0.0402 0.80582 0.0
H847 H 0.0039 0.97678 0.80121 0.0
H848 H 0.03397 1.00779 0.82118 0.0
H849 H 0.13318 0.97487 0.80783 0.0
H850 H 0.10298 0.94267 0.78918 0.0
H851 H 0.12938 0.0277 0.80237 0.0
H852 H 0.10813 0.96554 0.8509 0.0
H853 H 0.07419 0.93532 0.87008 0.0
H854 H 0.00946 0.99037 0.89573 0.0
H855 H 0.04219 0.0209 0.87606 0.0
C856 C 0.201 0.08952 0.87877 0.0
C857 C 0.17964 0.10378 0.89147 0.0
C858 C 0.18619 0.07248 0.86546 0.0
C859 C 0.14971 0.06938 0.8645 0.0
C860 C 0.12832 0.08399 0.87676 0.0
C861 C 0.14307 0.10105 0.89001 0.0
C862 C 0.13382 0.05013 0.85159 0.0
C863 C 0.11262 0.03296 0.86136 0.0
C864 C 0.14024 0.04808 0.83006 0.0
C865 C 0.16132 0.06607 0.81866 0.0
C866 C 0.15255 0.09043 0.81946 0.0
C867 C 0.17263 0.1073 0.80875 0.0
C868 C 0.20141 0.10001 0.79705 0.0
C869 C 0.21009 0.07581 0.79599 0.0
C870 C 0.19012 0.05887 0.8067 0.0
C871 C 0.03199 0.97573 0.80297 0.0
C872 C 0.05088 0.9569 0.79399 0.0
C873 C 0.0492 0.99371 0.8141 0.0
C874 C 0.08577 0.99356 0.81605 0.0
C875 C 0.10493 0.97532 0.80647 0.0
C876 C 0.08761 0.95698 0.79576 0.0
C877 C 0.10365 0.01207 0.82873 0.0
C878 C 0.12522 0.02897 0.81894 0.0
C879 C 0.09776 0.01385 0.85028 0.0
C880 C 0.07733 0.99551 0.86174 0.0
C881 C 0.08625 0.9712 0.86031 0.0
C882 C 0.06726 0.954 0.87131 0.0
C883 C 0.03962 0.96091 0.88405 0.0
C884 C 0.03081 0.98503 0.88578 0.0
C885 C 0.04949 1.00229 0.87465 0.0
H886 H 0.02514 0.94756 0.89263 0.0
H887 H 0.21692 0.11309 0.78876 0.0
H888 H 0.23468 0.13339 0.97935 0.0
H889 H 0.21278 0.13065 0.01466 0.0
H890 H 0.10673 0.12902 0.99174 0.0
H891 H 0.1284 0.13312 0.9563 0.0
H892 H 0.11011 0.15589 0.02531 0.0
H893 H 0.15047 0.0775 1.00729 0.0
H894 H 0.19292 0.04772 0.99485 0.0
H895 H 0.26279 0.06597 0.04455 0.0
H896 H 0.22093 0.0961 0.05713 0.0
H897 H 0.02762 0.10485 0.11343 0.0
H898 H 0.05146 0.11327 0.07913 0.0
H899 H 0.15515 0.11879 0.10518 0.0
H900 H 0.1315 0.1098 0.13959 0.0
H901 H 0.15438 0.09118 0.07067 0.0
H902 H 0.11162 0.16849 0.08953 0.0
H903 H 0.06801 0.19752 0.10187 0.0
H904 H 1.00117 0.18037 0.05046 0.0
H905 H 0.04418 0.15097 0.03796 0.0
C906 C 0.20664 0.13292 0.98175 0.0
C907 C 0.18334 0.1335 0.96484 0.0
C908 C 0.19416 0.13101 1.00202 0.0
C909 C 0.15809 0.12919 1.00592 0.0
C910 C 0.13469 0.13027 0.98916 0.0
C911 C 0.14716 0.13239 0.96886 0.0
C912 C 0.14485 0.12578 0.02743 0.0
C913 C 0.11951 0.14156 0.03513 0.0
C914 C 0.15761 0.10742 0.04049 0.0
C915 C 0.18272 0.08921 0.03303 0.0
C916 C 0.17499 0.07528 0.01548 0.0
C917 C 0.19893 0.05832 1.00841 0.0
C918 C 0.23057 0.055 0.01887 0.0
C919 C 0.23829 0.06858 0.03645 0.0
C920 C 0.21446 0.08559 0.04356 0.0
C921 C 0.05552 0.10782 0.11188 0.0
C922 C 0.07767 0.10655 0.12927 0.0
C923 C 0.06908 0.11286 0.09227 0.0
C924 C 0.10508 0.11687 0.08956 0.0
C925 C 0.12727 0.11583 0.1069 0.0
C926 C 0.11369 0.11086 0.12658 0.0
C927 C 0.1196 0.12123 0.06851 0.0
C928 C 0.14514 0.10559 0.06088 0.0
C929 C 0.10685 0.13961 0.05549 0.0
C930 C 0.08101 0.15737 0.06291 0.0
C931 C 0.08751 0.17077 0.08094 0.0
C932 C 0.06292 0.18732 0.08795 0.0
C933 C 0.03181 0.19075 0.07698 0.0
C934 C 0.02527 0.17768 0.05895 0.0
C935 C 0.04976 0.16109 0.05189 0.0
H936 H 0.0128 0.20357 0.08243 0.0
H937 H 0.24907 0.04186 1.01337 0.0
H938 H 0.35091 0.42876 0.46637 0.0
H939 H 0.37194 0.43207 0.50188 0.0
H940 H 0.34892 0.3575 0.51201 0.0
H941 H 0.3282 0.3539 0.47623 0.0
H942 H 0.32385 0.38499 0.54306 0.0
H943 H 0.43338 0.37651 0.50842 0.0
H944 H 0.47808 0.38526 0.48196 0.0
H945 H 0.48654 0.45741 0.50406 0.0
H946 H 0.44153 0.44919 0.53049 0.0
H947 H 0.39382 0.39501 0.64501 0.0
H948 H 0.38682 0.38081 0.60931 0.0
H949 H 0.41004 0.45163 0.58666 0.0
H950 H 0.41836 0.46559 0.62205 0.0
H951 H 0.43901 0.41989 0.56217 0.0
H952 H 0.32459 0.43048 0.59277 0.0
H953 H 0.27821 0.42326 0.61858 0.0
H954 H 0.27783 0.34854 0.60345 0.0
H955 H 0.32455 0.3553 0.57772 0.0
C956 C 0.351 0.41288 0.47594 0.0
C957 C 0.33802 0.391 0.4683 0.0
C958 C 0.36296 0.41484 0.49632 0.0
C959 C 0.36239 0.39498 0.5096 0.0
C960 C 0.34966 0.37306 0.50205 0.0
C961 C 0.33774 0.37106 0.4816 0.0
C962 C 0.37353 0.39755 0.53159 0.0
C963 C 0.34933 0.39213 0.54726 0.0
C964 C 0.40652 0.4073 0.5371 0.0
C965 C 0.43389 0.41226 0.52136 0.0
C966 C 0.44461 0.39428 0.50756 0.0
C967 C 0.47003 0.39915 0.49258 0.0
C968 C 0.48509 0.42189 0.49131 0.0
C969 C 0.47484 0.4398 0.50506 0.0
C970 C 0.44941 0.43504 0.52007 0.0
C971 C 0.39809 0.40741 0.63239 0.0
C972 C 0.40614 0.43153 0.63642 0.0
C973 C 0.39376 0.39934 0.61199 0.0
C974 C 0.39723 0.41525 0.59524 0.0
C975 C 0.407 0.439 0.59925 0.0
C976 C 0.41143 0.44703 0.61955 0.0
C977 C 0.38905 0.40779 0.57361 0.0
C978 C 0.41377 0.41234 0.55799 0.0
C979 C 0.35644 0.39741 0.56811 0.0
C980 C 0.32833 0.39334 0.58353 0.0
C981 C 0.31479 0.41248 0.59507 0.0
C982 C 0.28842 0.40848 0.60966 0.0
C983 C 0.27516 0.38544 0.6127 0.0
C984 C 0.28818 0.36637 0.60111 0.0
C985 C 0.3146 0.37027 0.58652 0.0
H986 H 0.25474 0.38238 0.624 0.0
H987 H 0.50475 0.42563 0.47969 0.0
H988 H 0.72149 0.37342 0.04735 0.0
H989 H 0.69764 0.37142 1.01268 0.0
H990 H 0.59443 0.38589 0.03648 0.0
H991 H 0.61767 0.38558 0.07175 0.0
H992 H 0.58757 0.35519 1.00785 0.0
H993 H 0.64709 0.4295 1.01034 0.0
H994 H 0.69531 0.45788 0.01708 0.0
H995 H 0.7598 0.42139 0.97294 0.0
H996 H 0.71213 0.39258 0.96613 0.0
H997 H 0.53334 0.38587 0.9027 0.0
H998 H 0.55006 0.39124 0.93921 0.0
H999 H 0.64176 0.34813 0.92931 0.0
H1000 H 0.62465 0.34216 0.89304 0.0
H1001 H 0.64929 0.39727 0.95089 0.0
H1002 H 0.58535 0.32137 0.95133 0.0
H1003 H 0.53281 0.29714 0.94377 0.0
H1004 H 0.4711 0.34292 0.98247 0.0
H1005 H 0.5232 0.36773 0.98991 0.0
C1006 C 0.69356 0.37567 0.04545 0.0
C1007 C 0.67158 0.37947 0.06262 0.0
C1008 C 0.68 0.37503 0.0254 0.0
C1009 C 0.64429 0.37909 0.02175 0.0
C1010 C 0.62214 0.38287 0.03879 0.0
C1011 C 0.63559 0.38296 0.059 0.0
C1012 C 0.63033 0.37892 1.00017 0.0
C1013 C 0.60082 0.36476 0.99553 0.0
C1014 C 0.64734 0.3914 0.98388 0.0
C1015 C 0.67609 0.40877 0.98784 0.0
C1016 C 0.67163 0.42743 1.00216 0.0
C1017 C 0.69886 0.44361 1.00599 0.0
C1018 C 0.73062 0.44141 0.99548 0.0
C1019 C 0.73519 0.42306 0.98108 0.0
C1020 C 0.70805 0.40682 0.97721 0.0
C1021 C 0.55703 0.37757 0.90839 0.0
C1022 C 0.57771 0.36356 0.89517 0.0
C1023 C 0.5665 0.38061 0.92917 0.0
C1024 C 0.59713 0.37009 0.93686 0.0
C1025 C 0.61805 0.35639 0.9236 0.0
C1026 C 0.6082 0.3529 0.90299 0.0
C1027 C 0.60745 0.37319 0.95879 0.0
C1028 C 0.6361 0.38796 0.96339 0.0
C1029 C 0.58913 0.36183 0.97505 0.0
C1030 C 0.55807 0.34656 0.97098 0.0
C1031 C 0.56052 0.3264 0.95808 0.0
C1032 C 0.53083 0.31254 0.95383 0.0
C1033 C 0.49862 0.31852 0.96259 0.0
C1034 C 0.49606 0.33833 0.97567 0.0
C1035 C 0.52566 0.35229 0.9799 0.0
H1036 H 0.47566 0.30778 0.95928 0.0
H1037 H 0.75167 0.45395 0.99846 0.0
H1038 H 0.83786 0.18089 0.56082 0.0
H1039 H 0.86011 0.17887 0.52533 0.0
H1040 H 0.88492 0.10444 0.534 0.0
H1041 H 0.86263 0.10628 0.56935 0.0
H1042 H 0.93607 0.12696 0.51279 0.0
H1043 H 0.80989 0.12164 0.50963 0.0
H1044 H 0.74969 0.13549 0.51608 0.0
H1045 H 0.7705 0.19958 0.48161 0.0
H1046 H 0.83102 0.18624 0.47521 0.0
H1047 H 0.93232 0.07597 0.41333 0.0
H1048 H 0.92366 0.08857 0.44907 0.0
H1049 H 0.90366 0.16054 0.42847 0.0
H1050 H 0.91156 0.14781 0.39239 0.0
H1051 H 0.85424 0.14537 0.45534 0.0
H1052 H 0.97874 0.14753 0.45458 0.0
H1053 H 0.03824 0.13262 0.44778 0.0
H1054 H 0.02058 0.07385 0.48922 0.0
H1055 H 0.96076 0.08819 0.49605 0.0
C1056 C 0.84816 0.16411 0.55518 0.0
C1057 C 0.84835 0.14373 0.56794 0.0
C1058 C 0.86091 0.16299 0.5349 0.0
C1059 C 0.87384 0.14143 0.52691 0.0
C1060 C 0.87518 0.1213 0.53983 0.0
C1061 C 0.86252 0.12241 0.5601 0.0
C1062 C 0.88453 0.13938 0.50484 0.0
C1063 C 0.91814 0.13088 0.50022 0.0
C1064 C 0.86149 0.14511 0.4884 0.0
C1065 C 0.82508 0.15308 0.49216 0.0
C1066 C 0.8017 0.13877 0.50357 0.0
C1067 C 0.76752 0.14652 0.5072 0.0
C1068 C 0.75631 0.16844 0.49932 0.0
C1069 C 0.77924 0.18263 0.48774 0.0
C1070 C 0.81348 0.17498 0.48411 0.0
C1071 C 0.92625 0.09452 0.41639 0.0
C1072 C 0.92237 0.11086 0.40002 0.0
C1073 C 0.92163 0.10176 0.43687 0.0
C1074 C 0.91327 0.12556 0.44152 0.0
C1075 C 0.9102 0.1421 0.42526 0.0
C1076 C 0.91495 0.13485 0.40468 0.0
C1077 C 0.90559 0.13252 0.46326 0.0
C1078 C 0.87247 0.14188 0.46786 0.0
C1079 C 0.92906 0.12749 0.47966 0.0
C1080 C 0.96515 0.11888 0.47573 0.0
C1081 C 0.98744 0.13133 0.46214 0.0
C1082 C 0.02125 0.12299 0.45829 0.0
C1083 C 0.03317 0.10228 0.46803 0.0
C1084 C 0.01132 0.08989 0.48168 0.0
C1085 C 0.97747 0.09814 0.48557 0.0
H1086 H 0.05935 0.09585 0.46503 0.0
H1087 H 0.72983 0.1744 0.50214 0.0
H1088 H 0.79732 0.87132 0.05135 0.0
H1089 H 0.81179 0.87855 0.01493 0.0
H1090 H 0.90768 0.91353 0.03343 0.0
H1091 H 0.89339 0.90643 0.06971 0.0
H1092 H 0.87599 0.93863 1.00426 0.0
H1093 H 0.90592 0.85577 0.01402 0.0
H1094 H 0.89453 0.8138 0.0236 0.0
H1095 H 0.81399 0.80925 0.97734 0.0
H1096 H 0.82458 0.85131 0.96768 0.0
H1097 H 0.97089 0.94156 0.9115 0.0
H1098 H 0.95124 0.93173 0.94637 0.0
H1099 H 0.85777 0.89926 0.92132 0.0
H1100 H 0.87755 0.90889 0.8862 0.0
H1101 H 0.88354 0.873 0.95285 0.0
H1102 H 0.85554 0.95535 0.94203 0.0
H1103 H 0.86739 0.9972 0.93228 0.0
H1104 H 0.94423 1.00273 0.98061 0.0
H1105 H 0.9332 0.96079 0.99046 0.0
C1106 C 0.82155 0.88047 0.04762 0.0
C1107 C 0.8441 0.8884 0.06345 0.0
C1108 C 0.82981 0.88457 0.0268 0.0
C1109 C 0.86099 0.89643 0.02139 0.0
C1110 C 0.88341 0.90444 0.03719 0.0
C1111 C 0.87511 0.90045 0.05795 0.0
C1112 C 0.8704 0.90075 0.99935 0.0
C1113 C 0.87798 0.92422 0.99309 0.0
C1114 C 0.87205 0.88208 0.98456 0.0
C1115 C 0.86578 0.85676 0.99029 0.0
C1116 C 0.88559 0.84587 1.006 0.0
C1117 C 0.87931 0.82206 1.01143 0.0
C1118 C 0.85348 0.80889 1.00113 0.0
C1119 C 0.83395 0.81948 0.98533 0.0
C1120 C 0.84009 0.8433 0.97987 0.0
C1121 C 0.94616 0.93232 0.91335 0.0
C1122 C 0.92569 0.92619 0.89602 0.0
C1123 C 0.93492 0.92672 0.93333 0.0
C1124 C 0.90269 0.91515 0.93652 0.0
C1125 C 0.88268 0.90826 0.91925 0.0
C1126 C 0.89406 0.91373 0.89919 0.0
C1127 C 0.88972 0.91081 0.95792 0.0
C1128 C 0.88136 0.8874 0.96401 0.0
C1129 C 0.88733 0.92953 0.9726 0.0
C1130 C 0.89372 0.95486 0.96687 0.0
C1131 C 0.87512 0.96545 0.9505 0.0
C1132 C 0.88167 0.98919 0.94496 0.0
C1133 C 0.9066 1.0026 0.95579 0.0
C1134 C 0.92495 0.99232 0.97222 0.0
C1135 C 0.91853 0.96856 0.9778 0.0
H1136 H 0.91165 0.02098 0.95148 0.0
H1137 H 0.84866 0.79045 1.00535 0.0
H1138 H 0.71137 0.64808 0.54833 0.0
H1139 H 0.69444 0.63864 0.51262 0.0
H1140 H 0.59908 0.60594 0.53479 0.0
H1141 H 0.61628 0.61483 0.57038 0.0
H1142 H 0.62519 0.57932 0.50595 0.0
H1143 H 0.60236 0.6634 0.51266 0.0
H1144 H 0.61685 0.70548 0.52026 0.0
H1145 H 0.69498 0.70506 0.47254 0.0
H1146 H 0.68127 0.66285 0.46485 0.0
H1147 H 0.52321 0.57963 0.41426 0.0
H1148 H 0.54647 0.58831 0.44868 0.0
H1149 H 0.64422 0.61105 0.42167 0.0
H1150 H 0.62149 0.6019 0.38715 0.0
H1151 H 0.62053 0.6422 0.45192 0.0
H1152 H 0.63971 0.5579 0.44434 0.0
H1153 H 0.62254 0.51631 0.43669 0.0
H1154 H 0.54801 0.51783 0.48635 0.0
H1155 H 0.56439 0.55957 0.49412 0.0
C1156 C 0.68682 0.63888 0.54552 0.0
C1157 C 0.66523 0.63211 0.56214 0.0
C1158 C 0.67709 0.63355 0.52513 0.0
C1159 C 0.64524 0.6218 0.52094 0.0
C1160 C 0.62382 0.61492 0.53757 0.0
C1161 C 0.63371 0.61998 0.55792 0.0
C1162 C 0.63395 0.61661 0.49931 0.0
C1163 C 0.62385 0.59316 0.49423 0.0
C1164 C 0.63287 0.6345 0.4838 0.0
C1165 C 0.64105 0.65989 0.48834 0.0
C1166 C 0.62281 0.67223 0.5039 0.0
C1167 C 0.63086 0.69611 0.5082 0.0
C1168 C 0.65689 0.70791 0.49693 0.0
C1169 C 0.67486 0.69588 0.48129 0.0
C1170 C 0.66696 0.67198 0.47694 0.0
C1171 C 0.54981 0.5862 0.4156 0.0
C1172 C 0.57049 0.58993 0.39786 0.0
C1173 C 0.56301 0.59126 0.43531 0.0
C1174 C 0.59719 0.60014 0.43775 0.0
C1175 C 0.61776 0.60425 0.42013 0.0
C1176 C 0.60463 0.59909 0.40039 0.0
C1177 C 0.6114 0.60505 0.45875 0.0
C1178 C 0.62208 0.62839 0.46367 0.0
C1179 C 0.61268 0.58714 0.47418 0.0
C1180 C 0.60308 0.56194 0.46969 0.0
C1181 C 0.61949 0.54943 0.45354 0.0
C1182 C 0.60992 0.52581 0.44919 0.0
C1183 C 0.58414 0.51445 0.46099 0.0
C1184 C 0.56795 0.52666 0.47721 0.0
C1185 C 0.57739 0.55029 0.48161 0.0
H1186 H 0.57675 0.49617 0.4576 0.0
H1187 H 0.66308 0.7264 0.50029 0.0
H1188 H 0.29697 0.66377 0.97313 0.0
H1189 H 0.31298 0.66102 1.00982 0.0
H1190 H 0.40896 0.62553 0.99312 0.0
H1191 H 0.39255 0.6276 0.95666 0.0
H1192 H 0.38467 0.60581 0.02625 0.0
H1193 H 0.40378 0.68722 1.00463 0.0
H1194 H 0.38703 0.72622 0.98998 0.0
H1195 H 0.30986 0.73485 0.03763 0.0
H1196 H 0.32585 0.69572 0.05241 0.0
H1197 H 0.49762 0.63542 0.1097 0.0
H1198 H 0.46822 0.63356 0.07605 0.0
H1199 H 0.37107 0.65425 0.10467 0.0
H1200 H 0.40039 0.65595 0.13854 0.0
H1201 H 0.3892 0.68041 0.06769 0.0
H1202 H 0.37704 0.59961 0.0912 0.0
H1203 H 0.3976 0.56132 0.10549 0.0
H1204 H 0.46646 0.55249 0.05361 0.0
H1205 H 0.4467 0.59093 0.03915 0.0
C1206 C 0.32131 0.6552 0.97737 0.0
C1207 C 0.3435 0.64589 0.96204 0.0
C1208 C 0.33053 0.65372 0.99831 0.0
C1209 C 0.36251 0.64343 1.00429 0.0
C1210 C 0.38414 0.63352 0.98899 0.0
C1211 C 0.37471 0.63468 0.96812 0.0
C1212 C 0.37428 0.64363 0.02628 0.0
C1213 C 0.38584 0.62218 0.03522 0.0
C1214 C 0.37522 0.66487 0.03826 0.0
C1215 C 0.36572 0.68844 0.02947 0.0
C1216 C 0.38307 0.69736 1.01189 0.0
C1217 C 0.37374 0.7195 1.00358 0.0
C1218 C 0.34732 0.73297 1.01283 0.0
C1219 C 0.33026 0.72437 0.03046 0.0
C1220 C 0.33945 0.70222 0.03881 0.0
C1221 C 0.47001 0.63963 0.10881 0.0
C1222 C 0.45128 0.64589 0.12671 0.0
C1223 C 0.45322 0.63842 0.08962 0.0
C1224 C 0.41745 0.64365 0.08791 0.0
C1225 C 0.39868 0.6501 0.1057 0.0
C1226 C 0.41538 0.65096 0.125 0.0
C1227 C 0.40007 0.64273 0.06737 0.0
C1228 C 0.38754 0.66403 0.05875 0.0
C1229 C 0.39875 0.62146 0.05558 0.0
C1230 C 0.41058 0.59826 0.06418 0.0
C1231 C 0.39678 0.58961 0.08292 0.0
C1232 C 0.40825 0.56785 0.09104 0.0
C1233 C 0.43337 0.5545 0.08049 0.0
C1234 C 0.44702 0.56286 0.06177 0.0
C1235 C 0.43566 0.58462 0.0536 0.0
H1236 H 0.44222 0.53766 0.08679 0.0
H1237 H 0.34014 0.7501 1.00637 0.0
H1238 H 0.21117 0.86675 0.47248 0.0
H1239 H 0.19363 0.87129 0.50873 0.0
H1240 H 0.09323 0.89817 0.48905 0.0
H1241 H 0.11138 0.89462 0.45288 0.0
H1242 H 0.11219 0.92174 0.52124 0.0
H1243 H 0.10786 0.83805 0.50487 0.0
H1244 H 0.13097 0.79949 0.49262 0.0
H1245 H 0.20903 0.80082 0.54047 0.0
H1246 H 0.18668 0.83958 0.55283 0.0
H1247 H 0.00865 0.8886 0.60885 0.0
H1248 H 0.03573 0.89157 0.57457 0.0
H1249 H 0.13767 0.88233 0.60205 0.0
H1250 H 0.11067 0.87966 0.63649 0.0
H1251 H 0.12216 0.85134 0.56749 0.0
H1252 H 0.12003 0.93451 0.58541 0.0
H1253 H 0.09261 0.97179 0.59745 0.0
H1254 H 0.02121 0.96969 0.54612 0.0
H1255 H 0.04783 0.93216 0.53394 0.0
C1256 C 0.18549 0.87381 0.47597 0.0
C1257 C 0.16259 0.88027 0.45992 0.0
C1258 C 0.17538 0.87628 0.49667 0.0
C1259 C 0.14176 0.8846 0.50172 0.0
C1260 C 0.11927 0.8917 0.48564 0.0
C1261 C 0.12963 0.88966 0.46496 0.0
C1262 C 0.12951 0.88523 0.52363 0.0
C1263 C 0.11414 0.90625 0.53125 0.0
C1264 C 0.13249 0.8652 0.53696 0.0
C1265 C 0.14584 0.84183 0.52963 0.0
C1266 C 0.13011 0.8302 0.51269 0.0
C1267 C 0.14305 0.8083 0.50574 0.0
C1268 C 0.17152 0.79775 0.51572 0.0
C1269 C 0.18703 0.80904 0.53273 0.0
C1270 C 0.17423 0.83097 0.53972 0.0
C1271 C 0.03686 0.88737 0.60757 0.0
C1272 C 0.0576 0.88389 0.62529 0.0
C1273 C 0.05229 0.88916 0.58802 0.0
C1274 C 0.0887 0.88723 0.5858 0.0
C1275 C 0.10953 0.88391 0.60347 0.0
C1276 C 0.09413 0.88251 0.6231 0.0
C1277 C 0.10468 0.88769 0.56487 0.0
C1278 C 0.12061 0.86686 0.55747 0.0
C1279 C 0.10164 0.90772 0.55166 0.0
C1280 C 0.08575 0.9304 0.55886 0.0
C1281 C 0.09829 0.94188 0.57678 0.0
C1282 C 0.08292 0.96308 0.58362 0.0
C1283 C 0.05513 0.97308 0.57259 0.0
C1284 C 0.04272 0.96192 0.55466 0.0
C1285 C 0.05796 0.94069 0.54777 0.0
H1286 H 0.04327 0.98949 0.57791 0.0
H1287 H 0.1815 0.78079 0.51032 0.0
H1288 H 0.23332 0.30064 0.39183 0.0
H1289 H 0.21155 0.26796 0.36982 0.0
H1290 H 0.11694 0.3075 0.3582 0.0
H1291 H 0.13859 0.34011 0.37985 0.0
H1292 H 0.10343 0.26258 0.3725 0.0
H1293 H 0.17692 0.29925 0.32053 0.0
H1294 H 0.23248 0.31442 0.30614 0.0
H1295 H 0.27797 0.24473 0.31205 0.0
H1296 H 0.22281 0.22923 0.32676 0.0
H1297 H 0.0165 0.19312 0.29778 0.0
H1298 H 0.04732 0.22541 0.31571 0.0
H1299 H 0.1401 0.18193 0.31932 0.0
H1300 H 0.1094 0.14963 0.30112 0.0
H1301 H 0.15772 0.22674 0.31016 0.0
H1302 H 0.08669 0.18934 0.36144 0.0
H1303 H 0.03245 0.17279 0.37645 0.0
H1304 H 0.98458 0.24197 0.37361 0.0
H1305 H 0.03837 0.25888 0.35827 0.0
C1306 C 0.20829 0.30259 0.38414 0.0
C1307 C 0.18752 0.32286 0.38778 0.0
C1308 C 0.19581 0.28387 0.37163 0.0
C1309 C 0.16244 0.28518 0.36248 0.0
C1310 C 0.14258 0.30595 0.36525 0.0
C1311 C 0.155 0.32459 0.37765 0.0
C1312 C 0.14681 0.26443 0.35129 0.0
C1313 C 0.11513 0.25495 0.35872 0.0
C1314 C 0.1627 0.25382 0.33379 0.0
C1315 C 0.19587 0.26315 0.32498 0.0
C1316 C 0.19888 0.28722 0.31896 0.0
C1317 C 0.23028 0.29586 0.3107 0.0
C1318 C 0.25878 0.28057 0.30825 0.0
C1319 C 0.2559 0.25657 0.31399 0.0
C1320 C 0.22457 0.24785 0.32228 0.0
C1321 C 0.04338 0.19037 0.30253 0.0
C1322 C 0.06044 0.16877 0.29818 0.0
C1323 C 0.06103 0.20886 0.31275 0.0
C1324 C 0.09593 0.20602 0.31919 0.0
C1325 C 0.1132 0.18457 0.31457 0.0
C1326 C 0.09559 0.1661 0.30422 0.0
C1327 C 0.11396 0.22528 0.33113 0.0
C1328 C 0.1461 0.23435 0.32397 0.0
C1329 C 0.09878 0.23536 0.3491 0.0
C1330 C 0.06648 0.22533 0.35854 0.0
C1331 C 0.06452 0.201 0.36389 0.0
C1332 C 0.03386 0.19155 0.37247 0.0
C1333 C 0.00506 0.20631 0.37594 0.0
C1334 C 0.0069 0.23056 0.37089 0.0
C1335 C 0.03748 0.24009 0.36227 0.0
H1336 H 0.98135 0.19896 0.38257 0.0
H1337 H 0.28306 0.28729 0.30184 0.0
H1338 H 0.28 0.2237 0.88596 0.0
H1339 H 0.30007 0.25752 0.86466 0.0
H1340 H 0.39705 0.22097 0.85284 0.0
H1341 H 0.37693 0.18703 0.87337 0.0
H1342 H 0.40271 0.26802 0.87185 0.0
H1343 H 0.34524 0.22676 0.81501 0.0
H1344 H 0.29445 0.20884 0.79717 0.0
H1345 H 0.24115 0.27618 0.79902 0.0
H1346 H 0.29145 0.29443 0.81716 0.0
H1347 H 0.49787 0.33211 0.79602 0.0
H1348 H 0.46546 0.30174 0.81542 0.0
H1349 H 0.37504 0.34751 0.81683 0.0
H1350 H 0.40818 0.37864 0.79858 0.0
H1351 H 0.35977 0.29948 0.80476 0.0
H1352 H 0.41403 0.34221 0.85853 0.0
H1353 H 0.45812 0.36184 0.88066 0.0
H1354 H 0.5114 0.29511 0.8885 0.0
H1355 H 0.46821 0.27513 0.86591 0.0
C1356 C 0.30514 0.22259 0.87831 0.0
C1357 C 0.32708 0.20281 0.88164 0.0
C1358 C 0.31664 0.24197 0.86624 0.0
C1359 C 0.35022 0.24183 0.85738 0.0
C1360 C 0.37119 0.22153 0.8597 0.0
C1361 C 0.35966 0.20218 0.8715 0.0
C1362 C 0.3652 0.26344 0.84733 0.0
C1363 C 0.39366 0.27474 0.85704 0.0
C1364 C 0.35213 0.27288 0.82856 0.0
C1365 C 0.32192 0.26187 0.8177 0.0
C1366 C 0.32253 0.23768 0.81183 0.0
C1367 C 0.29387 0.22748 0.80161 0.0
C1368 C 0.26453 0.24134 0.79704 0.0
C1369 C 0.26385 0.26545 0.80262 0.0
C1370 C 0.29244 0.27573 0.81286 0.0
C1371 C 0.47127 0.33589 0.80071 0.0
C1372 C 0.45548 0.35774 0.79557 0.0
C1373 C 0.45271 0.31845 0.8117 0.0
C1374 C 0.41781 0.32234 0.81754 0.0
C1375 C 0.40187 0.34407 0.81236 0.0
C1376 C 0.42074 0.36177 0.80179 0.0
C1377 C 0.39822 0.30351 0.82895 0.0
C1378 C 0.36885 0.29281 0.81958 0.0
C1379 C 0.41001 0.29486 0.8483 0.0
C1380 C 0.43795 0.30718 0.86033 0.0
C1381 C 0.43554 0.33178 0.86458 0.0
C1382 C 0.46028 0.34296 0.87732 0.0
C1383 C 0.48734 0.32968 0.8861 0.0
C1384 C 0.49026 0.30533 0.88177 0.0
C1385 C 0.46573 0.29408 0.86894 0.0
H1386 H 0.50603 0.33826 0.89629 0.0
H1387 H 0.24237 0.23341 0.78911 0.0
H1388 H 0.73277 0.23132 0.63792 0.0
H1389 H 0.70948 0.26356 0.65957 0.0
H1390 H 0.62366 0.2179 0.67795 0.0
H1391 H 0.64641 0.186 0.65601 0.0
H1392 H 0.59915 0.25847 0.66567 0.0
H1393 H 0.69168 0.23518 0.71167 0.0
H1394 H 0.75246 0.22632 0.72185 0.0
H1395 H 0.78317 0.29815 0.70689 0.0
H1396 H 0.72263 0.30735 0.69634 0.0
H1397 H 0.55132 0.32962 0.75813 0.0
H1398 H 0.58218 0.29824 0.73894 0.0
H1399 H 0.60666 0.34866 0.69061 0.0
H1400 H 0.57486 0.37994 0.70941 0.0
H1401 H 0.6626 0.30703 0.71796 0.0
H1402 H 0.56991 0.32622 0.66578 0.0
H1403 H 0.50867 0.33281 0.65518 0.0
H1404 H 0.47855 0.26623 0.68312 0.0
H1405 H 0.53957 0.25956 0.6943 0.0
C1406 C 0.70937 0.22806 0.64696 0.0
C1407 C 0.69129 0.20623 0.64523 0.0
C1408 C 0.69605 0.24648 0.65933 0.0
C1409 C 0.66473 0.24322 0.67044 0.0
C1410 C 0.64767 0.22097 0.66944 0.0
C1411 C 0.66073 0.20271 0.65694 0.0
C1412 C 0.64812 0.26337 0.68182 0.0
C1413 C 0.61314 0.2689 0.67719 0.0
C1414 C 0.66629 0.27737 0.69666 0.0
C1415 C 0.70269 0.27188 0.70301 0.0
C1416 C 0.71145 0.24903 0.71038 0.0
C1417 C 0.74585 0.24395 0.71626 0.0
C1418 C 0.77168 0.26164 0.71497 0.0
C1419 C 0.76314 0.28446 0.70785 0.0
C1420 C 0.72879 0.28962 0.70194 0.0
C1421 C 0.56341 0.33399 0.74344 0.0
C1422 C 0.56071 0.35714 0.73519 0.0
C1423 C 0.58089 0.31609 0.7325 0.0
C1424 C 0.59629 0.32112 0.71328 0.0
C1425 C 0.59447 0.34438 0.70528 0.0
C1426 C 0.57642 0.36219 0.71602 0.0
C1427 C 0.61407 0.30194 0.7016 0.0
C1428 C 0.64901 0.29655 0.7063 0.0
C1429 C 0.59599 0.28798 0.68684 0.0
C1430 C 0.55908 0.29265 0.68123 0.0
C1431 C 0.55009 0.31325 0.67004 0.0
C1432 C 0.51548 0.31691 0.66379 0.0
C1433 C 0.48974 0.29993 0.66843 0.0
C1434 C 0.49852 0.27934 0.6795 0.0
C1435 C 0.53307 0.27567 0.68587 0.0
H1436 H 0.46298 0.30276 0.66354 0.0
H1437 H 0.7983 0.25768 0.71952 0.0
H1438 H 0.7981 0.32605 0.16975 0.0
H1439 H 0.81871 0.29516 0.19393 0.0
H1440 H 0.84355 0.24933 0.14236 0.0
H1441 H 0.82317 0.28003 0.11833 0.0
H1442 H 0.81632 0.22397 0.17586 0.0
H1443 H 0.90523 0.28408 0.16179 0.0
H1444 H 0.92829 0.32529 0.16083 0.0
H1445 H 0.91317 0.33167 0.22645 0.0
H1446 H 0.88951 0.29058 0.22772 0.0
H1447 H 0.95294 0.14863 0.209 0.0
H1448 H 0.91594 0.17786 0.19147 0.0
H1449 H 0.9109 0.21967 0.24749 0.0
H1450 H 0.94912 0.19101 0.26483 0.0
H1451 H 0.92201 0.24777 0.21568 0.0
H1452 H 0.84053 0.18559 0.23076 0.0
H1453 H 0.81821 0.14422 0.2318 0.0
H1454 H 0.81871 0.14133 0.16542 0.0
H1455 H 0.84146 0.18261 0.16394 0.0
C1456 C 0.80714 0.30912 0.16369 0.0
C1457 C 0.80931 0.30541 0.14224 0.0
C1458 C 0.81905 0.29157 0.17745 0.0
C1459 C 0.83302 0.27005 0.16991 0.0
C1460 C 0.8329 0.26576 0.14852 0.0
C1461 C 0.82138 0.28333 0.13482 0.0
C1462 C 0.85101 0.25295 0.18387 0.0
C1463 C 0.83945 0.22912 0.18457 0.0
C1464 C 0.88078 0.25978 0.19555 0.0
C1465 C 0.89521 0.28439 0.19481 0.0
C1466 C 0.90656 0.29435 0.17598 0.0
C1467 C 0.91978 0.31766 0.17538 0.0
C1468 C 0.92209 0.33112 0.19356 0.0
C1469 C 0.91129 0.32125 0.21238 0.0
C1470 C 0.89798 0.29795 0.21305 0.0
C1471 C 0.94391 0.16404 0.21759 0.0
C1472 C 0.95343 0.16728 0.23841 0.0
C1473 C 0.9225 0.18064 0.2076 0.0
C1474 C 0.90998 0.20076 0.21827 0.0
C1475 C 0.9199 0.20419 0.23899 0.0
C1476 C 0.94148 0.18766 0.24894 0.0
C1477 C 0.88763 0.21861 0.20755 0.0
C1478 C 0.89848 0.24261 0.20736 0.0
C1479 C 0.85712 0.2119 0.19644 0.0
C1480 C 0.84293 0.18717 0.19724 0.0
C1481 C 0.83608 0.1761 0.21638 0.0
C1482 C 0.82335 0.15266 0.21705 0.0
C1483 C 0.81715 0.14013 0.1987 0.0
C1484 C 0.82355 0.15105 0.17962 0.0
C1485 C 0.8363 0.17449 0.17885 0.0
H1486 H 0.80732 0.12198 0.19926 0.0
H1487 H 0.93234 0.34917 0.19307 0.0
H1488 H 0.79381 0.71368 0.63637 0.0
H1489 H 0.84034 0.73479 0.65549 0.0
H1490 H 0.76344 0.78166 0.68219 0.0
H1491 H 0.71702 0.76036 0.66384 0.0
H1492 H 0.82029 0.80426 0.65848 0.0
H1493 H 0.79898 0.74574 0.71274 0.0
H1494 H 0.7959 0.70479 0.72671 0.0
H1495 H 0.90409 0.69399 0.71161 0.0
H1496 H 0.90767 0.73479 0.69726 0.0
H1497 H 0.90358 0.8813 0.72701 0.0
H1498 H 0.86614 0.85221 0.70992 0.0
H1499 H 0.95149 0.80194 0.70857 0.0
H1500 H 0.98819 0.83053 0.72775 0.0
H1501 H 0.89626 0.77823 0.71647 0.0
H1502 H 0.92052 0.83319 0.66189 0.0
H1503 H 0.9277 0.87294 0.64573 0.0
H1504 H 0.8194 0.88823 0.65718 0.0
H1505 H 0.81186 0.84874 0.67364 0.0
C1506 C 0.78676 0.72803 0.64678 0.0
C1507 C 0.75174 0.73558 0.64831 0.0
C1508 C 0.81337 0.74014 0.65761 0.0
C1509 C 0.80532 0.75995 0.67006 0.0
C1510 C 0.77024 0.76657 0.67252 0.0
C1511 C 0.74376 0.7544 0.66194 0.0
C1512 C 0.83319 0.77538 0.67904 0.0
C1513 C 0.83678 0.79863 0.67125 0.0
C1514 C 0.85568 0.76769 0.69507 0.0
C1515 C 0.85346 0.7432 0.70369 0.0
C1516 C 0.822 0.73454 0.71219 0.0
C1517 C 0.8202 0.71138 0.72023 0.0
C1518 C 0.84975 0.69677 0.71998 0.0
C1519 C 0.8812 0.70531 0.71175 0.0
C1520 C 0.88314 0.72845 0.70368 0.0
C1521 C 0.91427 0.86392 0.72339 0.0
C1522 C 0.94862 0.85807 0.72911 0.0
C1523 C 0.893 0.84738 0.71317 0.0
C1524 C 0.90601 0.8249 0.7074 0.0
C1525 C 0.94068 0.81912 0.71277 0.0
C1526 C 0.96176 0.83553 0.72358 0.0
C1527 C 0.88295 0.80749 0.69623 0.0
C1528 C 0.8802 0.78386 0.70352 0.0
C1529 C 0.86172 0.81458 0.6793 0.0
C1530 C 0.86584 0.83821 0.66921 0.0
C1531 C 0.89843 0.8452 0.66113 0.0
C1532 C 0.90251 0.86762 0.65189 0.0
C1533 C 0.87406 0.88314 0.65052 0.0
C1534 C 0.84143 0.87621 0.65829 0.0
C1535 C 0.83723 0.85379 0.66753 0.0
H1536 H 0.87727 0.9005 0.64338 0.0
H1537 H 0.8483 0.67885 0.72622 0.0
H1538 H 0.7474 0.75533 0.1243 0.0
H1539 H 0.69902 0.73602 0.14218 0.0
H1540 H 0.68518 0.79892 0.17988 0.0
H1541 H 0.73522 0.81793 0.1627 0.0
H1542 H 0.68535 0.76295 0.20361 0.0
H1543 H 0.62323 0.77964 0.14222 0.0
H1544 H 0.61094 0.78176 0.1048 0.0
H1545 H 0.61355 0.70521 0.1008 0.0
H1546 H 0.62639 0.70262 0.13813 0.0
H1547 H 0.51436 0.6878 0.22262 0.0
H1548 H 0.54672 0.71895 0.204 0.0
H1549 H 0.64412 0.68583 0.22121 0.0
H1550 H 0.61209 0.65401 0.23878 0.0
H1551 H 0.59227 0.7138 0.17081 0.0
H1552 H 0.70279 0.73178 0.23165 0.0
H1553 H 0.70993 0.73817 0.2692 0.0
H1554 H 0.60073 0.75482 0.27455 0.0
H1555 H 0.59295 0.7486 0.23707 0.0
C1556 C 0.73405 0.76516 0.13636 0.0
C1557 C 0.74567 0.78808 0.14228 0.0
C1558 C 0.70591 0.75417 0.1464 0.0
C1559 C 0.68807 0.76598 0.16236 0.0
C1560 C 0.69848 0.78937 0.16764 0.0
C1561 C 0.72694 0.80033 0.15768 0.0
C1562 C 0.66108 0.75294 0.17476 0.0
C1563 C 0.66493 0.75232 0.19636 0.0
C1564 C 0.63363 0.73953 0.1655 0.0
C1565 C 0.62604 0.74096 0.14299 0.0
C1566 C 0.62147 0.76326 0.13334 0.0
C1567 C 0.61436 0.76454 0.11214 0.0
C1568 C 0.61153 0.74364 0.10043 0.0
C1569 C 0.61576 0.7214 0.10989 0.0
C1570 C 0.62292 0.72001 0.13108 0.0
C1571 C 0.54268 0.68712 0.22247 0.0
C1572 C 0.56058 0.66844 0.23249 0.0
C1573 C 0.56112 0.705 0.21185 0.0
C1574 C 0.59786 0.70491 0.21142 0.0
C1575 C 0.6158 0.68651 0.22161 0.0
C1576 C 0.59738 0.66836 0.23181 0.0
C1577 C 0.61769 0.72318 0.19943 0.0
C1578 C 0.61257 0.72464 0.17794 0.0
C1579 C 0.64336 0.7379 0.2088 0.0
C1580 C 0.64726 0.73952 0.23158 0.0
C1581 C 0.68027 0.73665 0.24087 0.0
C1582 C 0.68446 0.74036 0.26212 0.0
C1583 C 0.65584 0.74702 0.27423 0.0
C1584 C 0.62288 0.74968 0.26515 0.0
C1585 C 0.61852 0.7459 0.24393 0.0
H1586 H 0.65917 0.74997 0.29067 0.0
H1587 H 0.60601 0.74467 0.08402 0.0
H1588 H 0.21871 0.76461 0.34967 0.0
H1589 H 0.26583 0.74526 0.33056 0.0
H1590 H 0.34222 0.78211 0.3682 0.0
H1591 H 0.2948 0.80134 0.38766 0.0
H1592 H 0.32101 0.75873 0.30757 0.0
H1593 H 0.40883 0.74171 0.37806 0.0
H1594 H 0.40461 0.73915 0.41612 0.0
H1595 H 0.29733 0.71666 0.4111 0.0
H1596 H 0.30108 0.71878 0.37304 0.0
H1597 H 0.46819 0.69457 0.26948 0.0
H1598 H 0.43145 0.72427 0.28665 0.0
H1599 H 0.39111 0.6694 0.32729 0.0
H1600 H 0.43008 0.64023 0.31113 0.0
H1601 H 0.3983 0.70594 0.34875 0.0
H1602 H 0.34501 0.69529 0.28024 0.0
H1603 H 0.34462 0.69608 0.24193 0.0
H1604 H 0.37597 0.76977 0.24266 0.0
H1605 H 0.37656 0.76943 0.28086 0.0
C1606 C 0.24556 0.76885 0.35368 0.0
C1607 C 0.2531 0.78429 0.37028 0.0
C1608 C 0.27249 0.75787 0.34268 0.0
C1609 C 0.30758 0.76194 0.34811 0.0
C1610 C 0.31531 0.77848 0.36389 0.0
C1611 C 0.28825 0.7896 0.37489 0.0
C1612 C 0.33545 0.74739 0.33822 0.0
C1613 C 0.33813 0.74731 0.31656 0.0
C1614 C 0.35761 0.73232 0.3499 0.0
C1615 C 0.35514 0.73071 0.37274 0.0
C1616 C 0.38438 0.73617 0.3851 0.0
C1617 C 0.38207 0.73479 0.40666 0.0
C1618 C 0.35068 0.72784 0.41602 0.0
C1619 C 0.32158 0.72214 0.40384 0.0
C1620 C 0.32378 0.72344 0.38227 0.0
C1621 C 0.45148 0.68898 0.28214 0.0
C1622 C 0.45176 0.66518 0.28901 0.0
C1623 C 0.43022 0.7059 0.29185 0.0
C1624 C 0.40763 0.69913 0.30802 0.0
C1625 C 0.4082 0.67525 0.3149 0.0
C1626 C 0.43037 0.65852 0.30566 0.0
C1627 C 0.38343 0.71669 0.31791 0.0
C1628 C 0.38155 0.71748 0.33964 0.0
C1629 C 0.36154 0.7321 0.30626 0.0
C1630 C 0.36121 0.73223 0.28334 0.0
C1631 C 0.35203 0.71158 0.27218 0.0
C1632 C 0.35174 0.71195 0.25053 0.0
C1633 C 0.36046 0.73289 0.23991 0.0
C1634 C 0.36931 0.75355 0.25091 0.0
C1635 C 0.36955 0.75329 0.27254 0.0
H1636 H 0.36024 0.73312 0.22316 0.0
H1637 H 0.34893 0.72681 0.43272 0.0
H1638 H 0.25431 0.71596 0.85265 0.0
H1639 H 0.20635 0.73516 0.83354 0.0
H1640 H 0.20322 0.79141 0.87915 0.0
H1641 H 0.2506 0.77226 0.89826 0.0
H1642 H 0.13758 0.77866 0.86674 0.0
H1643 H 0.24878 0.79866 0.83499 0.0
H1644 H 0.30498 0.78938 0.81813 0.0
H1645 H 0.25043 0.75351 0.76889 0.0
H1646 H 0.19389 0.7623 0.78564 0.0
H1647 H 0.06841 0.87961 0.81634 0.0
H1648 H 0.10648 0.85109 0.83401 0.0
H1649 H 0.09806 0.80295 0.78206 0.0
H1650 H 0.05971 0.8314 0.76438 0.0
H1651 H 0.1653 0.80671 0.79574 0.0
H1652 H 0.05328 0.79159 0.82534 0.0
H1653 H 0.99738 0.8022 0.8419 0.0
H1654 H 0.05273 0.82916 0.89491 0.0
H1655 H 0.10905 0.81907 0.87854 0.0
C1656 C 0.24286 0.73216 0.85874 0.0
C1657 C 0.2564 0.74277 0.87679 0.0
C1658 C 0.21566 0.74319 0.84778 0.0
C1659 C 0.2015 0.7649 0.85478 0.0
C1660 C 0.21375 0.77473 0.87341 0.0
C1661 C 0.24097 0.76385 0.88425 0.0
C1662 C 0.17567 0.77842 0.8422 0.0
C1663 C 0.14365 0.78484 0.85123 0.0
C1664 C 0.18324 0.78608 0.82179 0.0
C1665 C 0.21717 0.78087 0.81169 0.0
C1666 C 0.2488 0.78862 0.82066 0.0
C1667 C 0.2807 0.78348 0.81111 0.0
C1668 C 0.28128 0.77079 0.79248 0.0
C1669 C 0.24995 0.76328 0.78334 0.0
C1670 C 0.21797 0.76834 0.79285 0.0
C1671 C 0.07468 0.86295 0.8087 0.0
C1672 C 0.06142 0.85784 0.78889 0.0
C1673 C 0.09635 0.84663 0.81881 0.0
C1674 C 0.10489 0.82477 0.80943 0.0
C1675 C 0.0919 0.81972 0.78957 0.0
C1676 C 0.07015 0.83603 0.77945 0.0
C1677 C 0.12747 0.80731 0.82041 0.0
C1678 C 0.15889 0.80019 0.81109 0.0
C1679 C 0.11931 0.79901 0.84055 0.0
C1680 C 0.08544 0.8047 0.85064 0.0
C1681 C 0.05357 0.79991 0.84048 0.0
C1682 C 0.0218 0.80583 0.84983 0.0
C1683 C 0.02151 0.81639 0.86942 0.0
C1684 C 0.053 0.82098 0.87973 0.0
C1685 C 0.08486 0.81514 0.87043 0.0
H1686 H 0.99688 0.82098 0.87664 0.0
H1687 H 0.30601 0.76683 0.78511 0.0
loop_
_geom_bond_atom_site_label_1
_geom_bond_atom_site_label_2
_geom_bond_distance
_geom_bond_site_symmetry_2
_ccdc_geom_bond_type
H0 C1 0.949 . S
C1 H0 0.949 . S
C1 C2 1.395 . S
C1 C3 1.391 . S
C2 C1 1.395 . S
C2 C5 1.390 . S
C3 C1 1.391 . S
C3 C7 1.387 . S
C3 C8 1.491 . S
H4 C5 0.950 . S
C5 C2 1.390 . S
C5 H4 0.950 . S
C5 C6 1.378 . S
C6 C5 1.378 . S
C6 C7 1.409 . S
C7 C3 1.387 . S
C7 C6 1.409 . S
C7 H9 0.951 . S
C8 C3 1.491 . S
C8 C10 1.382 . S
C8 C12 1.404 . S
H9 C7 0.951 . S
C10 C8 1.382 . S
C10 C11 1.390 . S
C10 H15 0.949 . S
C11 C10 1.390 . S
C11 C16 1.399 . S
C12 C8 1.404 . S
C12 H13 0.950 . S
C12 C14 1.375 . S
H13 C12 0.950 . S
C14 C12 1.375 . S
C14 C16 1.382 . S
C14 H18 0.950 . S
H15 C10 0.949 . S
C16 C11 1.399 . S
C16 C14 1.382 . S
C16 H17 0.952 . S
H17 C16 0.952 . S
H18 C14 0.950 . S
H19 C20 0.949 . S
C20 H19 0.949 . S
C20 C21 1.395 . S
C20 C22 1.391 . S
C21 C20 1.395 . S
C21 C24 1.390 . S
C22 C20 1.391 . S
C22 C26 1.387 . S
C22 C27 1.491 . S
H23 C24 0.950 . S
C24 C21 1.390 . S
C24 H23 0.950 . S
C24 C25 1.378 . S
C25 C24 1.378 . S
C25 C26 1.409 . S
C26 C22 1.387 . S
C26 C25 1.409 . S
C26 H28 0.951 . S
C27 C22 1.491 . S
C27 C29 1.382 . S
C27 C31 1.404 . S
H28 C26 0.951 . S
C29 C27 1.382 . S
C29 C30 1.390 . S
C29 H34 0.949 . S
C30 C29 1.390 . S
C30 C35 1.399 . S
C31 C27 1.404 . S
C31 H32 0.950 . S
C31 C33 1.375 . S
H32 C31 0.950 . S
C33 C31 1.375 . S
C33 C35 1.382 . S
C33 H37 0.950 . S
H34 C29 0.949 . S
C35 C30 1.399 . S
C35 C33 1.382 . S
C35 H36 0.952 . S
H36 C35 0.952 . S
H37 C33 0.950 . S
H38 C39 0.949 . S
C39 H38 0.949 . S
C39 C40 1.395 . S
C39 C41 1.391 . S
C40 C39 1.395 . S
C40 C43 1.390 . S
C41 C39 1.391 . S
C41 C45 1.387 . S
C41 C46 1.491 . S
H42 C43 0.950 . S
C43 C40 1.390 . S
C43 H42 0.950 . S
C43 C44 1.378 . S
C44 C43 1.378 . S
C44 C45 1.409 . S
C45 C41 1.387 . S
C45 C44 1.409 . S
C45 H47 0.951 . S
C46 C41 1.491 . S
C46 C48 1.382 . S
C46 C50 1.404 . S
H47 C45 0.951 . S
C48 C46 1.382 . S
C48 C49 1.390 . S
C48 H53 0.949 . S
C49 C48 1.390 . S
C49 C54 1.399 . S
C50 C46 1.404 . S
C50 H51 0.950 . S
C50 C52 1.375 . S
H51 C50 0.950 . S
C52 C50 1.375 . S
C52 C54 1.382 . S
C52 H56 0.950 . S
H53 C48 0.949 . S
C54 C49 1.399 . S
C54 C52 1.382 . S
C54 H55 0.952 . S
H55 C54 0.952 . S
H56 C52 0.950 . S
H57 C58 0.949 . S
C58 H57 0.949 . S
C58 C59 1.395 . S
C58 C60 1.391 . S
C59 C58 1.395 . S
C59 C62 1.390 . S
C60 C58 1.391 . S
C60 C64 1.387 . S
C60 C65 1.491 . S
H61 C62 0.950 . S
C62 C59 1.390 . S
C62 H61 0.950 . S
C62 C63 1.378 . S
C63 C62 1.378 . S
C63 C64 1.409 . S
C64 C60 1.387 . S
C64 C63 1.409 . S
C64 H66 0.951 . S
C65 C60 1.491 . S
C65 C67 1.382 . S
C65 C69 1.404 . S
H66 C64 0.951 . S
C67 C65 1.382 . S
C67 C68 1.390 . S
C67 H72 0.949 . S
C68 C67 1.390 . S
C68 C73 1.399 . S
C69 C65 1.404 . S
C69 H70 0.950 . S
C69 C71 1.375 . S
H70 C69 0.950 . S
C71 C69 1.375 . S
C71 C73 1.382 . S
C71 H75 0.950 . S
H72 C67 0.949 . S
C73 C68 1.399 . S
C73 C71 1.382 . S
C73 H74 0.952 . S
H74 C73 0.952 . S
H75 C71 0.950 . S
H76 C77 0.949 . S
C77 H76 0.949 . S
C77 C78 1.395 . S
C77 C79 1.391 . S
C78 C77 1.395 . S
C78 C81 1.390 . S
C79 C77 1.391 . S
C79 C83 1.387 . S
C79 C84 1.491 . S
H80 C81 0.950 . S
C81 C78 1.390 . S
C81 H80 0.950 . S
C81 C82 1.378 . S
C82 C81 1.378 . S
C82 C83 1.409 . S
C83 C79 1.387 . S
C83 C82 1.409 . S
C83 H85 0.951 . S
C84 C79 1.491 . S
C84 C86 1.382 . S
C84 C88 1.404 . S
H85 C83 0.951 . S
C86 C84 1.382 . S
C86 C87 1.390 . S
C86 H91 0.949 . S
C87 C86 1.390 . S
C87 C92 1.399 . S
C88 C84 1.404 . S
C88 H89 0.950 . S
C88 C90 1.375 . S
H89 C88 0.950 . S
C90 C88 1.375 . S
C90 C92 1.382 . S
C90 H94 0.950 . S
H91 C86 0.949 . S
C92 C87 1.399 . S
C92 C90 1.382 . S
C92 H93 0.952 . S
H93 C92 0.952 . S
H94 C90 0.950 . S
H95 C96 0.949 . S
C96 H95 0.949 . S
C96 C97 1.395 . S
C96 C98 1.391 . S
C97 C96 1.395 . S
C97 C100 1.390 . S
C98 C96 1.391 . S
C98 C102 1.387 . S
C98 C103 1.491 . S
H99 C100 0.950 . S
C100 C97 1.390 . S
C100 H99 0.950 . S
C100 C101 1.378 . S
C101 C100 1.378 . S
C101 C102 1.409 . S
C102 C98 1.387 . S
C102 C101 1.409 . S
C102 H104 0.951 . S
C103 C98 1.491 . S
C103 C105 1.382 . S
C103 C107 1.404 . S
H104 C102 0.951 . S
C105 C103 1.382 . S
C105 C106 1.390 . S
C105 H110 0.949 . S
C106 C105 1.390 . S
C106 C111 1.399 . S
C107 C103 1.404 . S
C107 H108 0.950 . S
C107 C109 1.375 . S
H108 C107 0.950 . S
C109 C107 1.375 . S
C109 C111 1.382 . S
C109 H113 0.950 . S
H110 C105 0.949 . S
C111 C106 1.399 . S
C111 C109 1.382 . S
C111 H112 0.952 . S
H112 C111 0.952 . S
H113 C109 0.950 . S
H114 C115 0.949 . S
C115 H114 0.949 . S
C115 C116 1.395 . S
C115 C117 1.391 . S
C116 C115 1.395 . S
C116 C119 1.390 . S
C117 C115 1.391 . S
C117 C121 1.387 . S
C117 C122 1.491 . S
H118 C119 0.950 . S
C119 C116 1.390 . S
C119 H118 0.950 . S
C119 C120 1.378 . S
C120 C119 1.378 . S
C120 C121 1.409 . S
C121 C117 1.387 . S
C121 C120 1.409 . S
C121 H123 0.951 . S
C122 C117 1.491 . S
C122 C124 1.382 . S
C122 C126 1.404 . S
H123 C121 0.951 . S
C124 C122 1.382 . S
C124 C125 1.390 . S
C124 H129 0.949 . S
C125 C124 1.390 . S
C125 C130 1.399 . S
C126 C122 1.404 . S
C126 H127 0.950 . S
C126 C128 1.375 . S
H127 C126 0.950 . S
C128 C126 1.375 . S
C128 C130 1.382 . S
C128 H132 0.950 . S
H129 C124 0.949 . S
C130 C125 1.399 . S
C130 C128 1.382 . S
C130 H131 0.952 . S
H131 C130 0.952 . S
H132 C128 0.950 . S
H133 C134 0.949 . S
C134 H133 0.949 . S
C134 C135 1.395 . S
C134 C136 1.391 . S
C135 C134 1.395 . S
C135 C138 1.390 . S
C136 C134 1.391 . S
C136 C140 1.387 . S
C136 C141 1.491 . S
H137 C138 0.950 . S
C138 C135 1.390 . S
C138 H137 0.950 . S
C138 C139 1.378 . S
C139 C138 1.378 . S
C139 C140 1.409 . S
C140 C136 1.387 . S
C140 C139 1.409 . S
C140 H142 0.951 . S
C141 C136 1.491 . S
C141 C143 1.382 . S
C141 C145 1.404 . S
H142 C140 0.951 . S
C143 C141 1.382 . S
C143 C144 1.390 . S
C143 H148 0.949 . S
C144 C143 1.390 . S
C144 C149 1.399 . S
C145 C141 1.404 . S
C145 H146 0.950 . S
C145 C147 1.375 . S
H146 C145 0.950 . S
C147 C145 1.375 . S
C147 C149 1.382 . S
C147 H151 0.950 . S
H148 C143 0.949 . S
C149 C144 1.399 . S
C149 C147 1.382 . S
C149 H150 0.952 . S
H150 C149 0.952 . S
H151 C147 0.950 . S
Tb152 N181 2.617 . S
Tb152 N187 2.572 . S
Tb152 O196 2.465 . S
Tb152 O197 2.387 . S
Tb152 O199 2.428 . S
Tb152 O200 2.307 . S
Tb152 O204 2.371 . S
Tb152 O207 2.393 . S
Tb152 C216 2.802 . S
C153 N154 1.379 . S
C153 C156 1.416 . S
C153 C160 1.424 . S
N154 C153 1.379 . S
N154 C157 1.334 . S
N154 Tb163 2.617 . S
C155 C157 1.390 . S
C155 C158 1.339 . S
C155 H175 0.930 . S
C156 C153 1.416 . S
C156 C158 1.416 . S
C156 C162 1.448 . S
C157 N154 1.334 . S
C157 C155 1.390 . S
C157 H168 0.930 . S
C158 C155 1.339 . S
C158 C156 1.416 . S
C158 H179 0.930 . S
C159 C160 1.413 . S
C159 C161 1.427 . S
C159 C165 1.416 . S
C160 C153 1.424 . S
C160 C159 1.413 . S
C160 N164 1.361 . S
C161 C159 1.427 . S
C161 C162 1.328 . S
C161 H176 0.929 . S
C162 C156 1.448 . S
C162 C161 1.328 . S
C162 H177 0.930 . S
Tb163 N154 2.617 . S
Tb163 N164 2.572 . S
Tb163 O198 2.349 1_655 S
Tb163 O201 2.393 . S
Tb163 O202 2.465 . S
Tb163 O203 2.387 . S
Tb163 O205 2.428 . S
Tb163 O206 2.308 1_655 S
Tb163 C227 2.802 . S
N164 C160 1.361 . S
N164 Tb163 2.572 . S
N164 C166 1.340 . S
C165 C159 1.416 . S
C165 C167 1.332 . S
C165 H173 0.931 1_545 S
C166 N164 1.340 . S
C166 C167 1.407 . S
C166 H172 0.930 . S
C167 C165 1.332 . S
C167 C166 1.407 . S
C167 H169 0.929 1_545 S
H168 C157 0.930 . S
H169 C167 0.929 1_565 S
H170 C185 0.930 . S
H171 C192 0.929 . S
H172 C166 0.930 . S
H173 C165 0.931 1_565 S
H174 C188 0.930 . S
H175 C155 0.930 . S
H176 C161 0.929 . S
H177 C162 0.930 . S
H178 C183 0.930 . S
H179 C158 0.930 . S
H180 C191 0.931 . S
N181 Tb152 2.617 . S
N181 C182 1.379 . S
N181 C185 1.334 . S
C182 N181 1.379 . S
C182 C184 1.416 . S
C182 C190 1.424 . S
C183 H178 0.930 . S
C183 C185 1.390 . S
C183 C186 1.339 . S
C184 C182 1.416 . S
C184 C186 1.416 . S
C184 C217 1.448 . S
C185 H170 0.930 . S
C185 N181 1.334 . S
C185 C183 1.390 . S
C186 C183 1.339 . S
C186 C184 1.416 . S
C186 H193 0.930 . S
N187 Tb152 2.572 . S
N187 C188 1.340 . S
N187 C190 1.361 . S
C188 H174 0.930 . S
C188 N187 1.340 . S
C188 C192 1.407 . S
C189 C190 1.413 . S
C189 C191 1.416 . S
C189 C218 1.427 . S
C190 C182 1.424 . S
C190 N187 1.361 . S
C190 C189 1.413 . S
C191 H180 0.931 . S
C191 C189 1.416 . S
C191 C192 1.332 . S
C192 H171 0.929 . S
C192 C188 1.407 . S
C192 C191 1.332 . S
H193 C186 0.930 . S
H194 C217 0.930 . S
H195 C218 0.929 . S
O196 Tb152 2.465 . S
O196 C216 1.264 . S
O197 Tb152 2.387 . S
O197 C208 1.264 . S
O198 Tb163 2.349 1_455 S
O198 C208 1.243 . S
O199 Tb152 2.428 . S
O199 C216 1.256 . S
O200 Tb152 2.307 . S
O200 C215 1.267 1_455 S
O201 Tb163 2.393 . S
O201 C215 1.248 . S
O202 Tb163 2.465 . S
O202 C227 1.264 . S
O203 Tb163 2.387 . S
O203 C219 1.264 . S
O204 Tb152 2.371 . S
O204 C219 1.215 1_455 S
O205 Tb163 2.428 . S
O205 C227 1.256 . S
O206 Tb163 2.308 1_455 S
O206 C226 1.266 . S
O207 Tb152 2.393 . S
O207 C226 1.248 . S
C208 O197 1.264 . S
C208 O198 1.243 . S
C209 C212 1.399 . S
C209 C214 1.383 . S
C209 C216 1.496 . S
C210 C211 1.399 . S
C210 C214 1.389 . S
C211 C210 1.399 . S
C211 C213 1.380 . S
C211 H228 0.929 . S
C212 C209 1.399 . S
C212 C213 1.392 . S
C212 H229 0.929 . S
C213 C211 1.380 . S
C213 C212 1.392 . S
C213 H230 0.929 . S
C214 C209 1.383 . S
C214 C210 1.389 . S
C214 H231 0.931 . S
C215 O200 1.267 1_655 S
C215 O201 1.248 . S
C216 Tb152 2.802 . S
C216 O196 1.264 . S
C216 O199 1.256 . S
C216 C209 1.496 . S
C217 C184 1.448 . S
C217 H194 0.930 . S
C217 C218 1.328 . S
C218 C189 1.427 . S
C218 H195 0.929 . S
C218 C217 1.328 . S
C219 O203 1.264 . S
C219 O204 1.215 1_655 S
C220 C223 1.399 . S
C220 C224 1.383 . S
C220 C227 1.496 . S
C221 C222 1.399 . S
C221 C224 1.389 . S
C222 C221 1.399 . S
C222 C225 1.380 . S
C222 H232 0.929 . S
C223 C220 1.399 . S
C223 C225 1.392 . S
C223 H233 0.929 . S
C224 C220 1.383 . S
C224 C221 1.389 . S
C224 H234 0.931 . S
C225 C222 1.380 . S
C225 C223 1.392 . S
C225 H235 0.929 . S
C226 O206 1.266 . S
C226 O207 1.248 . S
C227 Tb163 2.802 . S
C227 O202 1.264 . S
C227 O205 1.256 . S
C227 C220 1.496 . S
H228 C211 0.929 . S
H229 C212 0.929 . S
H230 C213 0.929 . S
H231 C214 0.931 . S
H232 C222 0.929 . S
H233 C223 0.929 . S
H234 C224 0.931 . S
H235 C225 0.929 . S
Tb236 N265 2.617 . S
Tb236 N271 2.572 . S
Tb236 O280 2.465 . S
Tb236 O281 2.387 . S
Tb236 O283 2.428 . S
Tb236 O284 2.308 . S
Tb236 O288 2.349 . S
Tb236 O291 2.393 . S
Tb236 C300 2.802 . S
C237 N238 1.379 . S
C237 C240 1.416 . S
C237 C244 1.424 . S
N238 C237 1.379 . S
N238 C241 1.334 . S
N238 Tb247 2.617 . S
C239 C241 1.390 . S
C239 C242 1.339 . S
C239 H259 0.930 . S
C240 C237 1.416 . S
C240 C242 1.416 . S
C240 C246 1.448 . S
C241 N238 1.334 . S
C241 C239 1.390 . S
C241 H252 0.930 . S
C242 C239 1.339 . S
C242 C240 1.416 . S
C242 H263 0.930 . S
C243 C244 1.413 . S
C243 C245 1.427 . S
C243 C249 1.416 . S
C244 C237 1.424 . S
C244 C243 1.413 . S
C244 N248 1.361 . S
C245 C243 1.427 . S
C245 C246 1.328 . S
C245 H260 0.929 . S
C246 C240 1.448 . S
C246 C245 1.328 . S
C246 H261 0.930 . S
Tb247 N238 2.617 . S
Tb247 N248 2.572 . S
Tb247 O282 2.349 . S
Tb247 O285 2.393 . S
Tb247 O286 2.465 . S
Tb247 O287 2.387 . S
Tb247 O289 2.428 . S
Tb247 O290 2.308 . S
Tb247 C311 2.802 . S
N248 C244 1.361 . S
N248 Tb247 2.572 . S
N248 C250 1.340 . S
C249 C243 1.416 . S
C249 C251 1.332 . S
C249 H257 0.931 . S
C250 N248 1.340 . S
C250 C251 1.407 . S
C250 H256 0.930 . S
C251 C249 1.332 . S
C251 C250 1.407 . S
C251 H253 0.929 . S
H252 C241 0.930 . S
H253 C251 0.929 . S
H254 C269 0.930 . S
H255 C276 0.929 . S
H256 C250 0.930 . S
H257 C249 0.931 . S
H258 C272 0.930 . S
H259 C239 0.930 . S
H260 C245 0.929 . S
H261 C246 0.930 . S
H262 C267 0.930 . S
H263 C242 0.930 . S
H264 C275 0.931 . S
N265 Tb236 2.617 . S
N265 C266 1.379 . S
N265 C269 1.334 . S
C266 N265 1.379 . S
C266 C268 1.416 . S
C266 C274 1.424 . S
C267 H262 0.930 . S
C267 C269 1.390 . S
C267 C270 1.339 . S
C268 C266 1.416 . S
C268 C270 1.416 . S
C268 C301 1.448 . S
C269 H254 0.930 . S
C269 N265 1.334 . S
C269 C267 1.390 . S
C270 C267 1.339 . S
C270 C268 1.416 . S
C270 H277 0.930 . S
N271 Tb236 2.572 . S
N271 C272 1.340 . S
N271 C274 1.361 . S
C272 H258 0.930 . S
C272 N271 1.340 . S
C272 C276 1.407 . S
C273 C274 1.413 . S
C273 C275 1.416 . S
C273 C302 1.427 . S
C274 C266 1.424 . S
C274 N271 1.361 . S
C274 C273 1.413 . S
C275 H264 0.931 . S
C275 C273 1.416 . S
C275 C276 1.332 . S
C276 H255 0.929 . S
C276 C272 1.407 . S
C276 C275 1.332 . S
H277 C270 0.930 . S
H278 C301 0.930 . S
H279 C302 0.929 . S
O280 Tb236 2.465 . S
O280 C300 1.264 . S
O281 Tb236 2.387 . S
O281 C292 1.264 . S
O282 Tb247 2.349 . S
O282 C292 1.243 . S
O283 Tb236 2.428 . S
O283 C300 1.256 . S
O284 Tb236 2.308 . S
O284 C299 1.266 . S
O285 Tb247 2.393 . S
O285 C299 1.248 . S
O286 Tb247 2.465 . S
O286 C311 1.264 . S
O287 Tb247 2.387 . S
O287 C303 1.264 . S
O288 Tb236 2.349 . S
O288 C303 1.243 . S
O289 Tb247 2.428 . S
O289 C311 1.256 . S
O290 Tb247 2.308 . S
O290 C310 1.266 . S
O291 Tb236 2.393 . S
O291 C310 1.248 . S
C292 O281 1.264 . S
C292 O282 1.243 . S
C293 C296 1.399 . S
C293 C298 1.383 . S
C293 C300 1.496 . S
C294 C295 1.399 . S
C294 C298 1.389 . S
C295 C294 1.399 . S
C295 C297 1.380 . S
C295 H312 0.929 . S
C296 C293 1.399 . S
C296 C297 1.392 . S
C296 H313 0.929 . S
C297 C295 1.380 . S
C297 C296 1.392 . S
C297 H314 0.929 . S
C298 C293 1.383 . S
C298 C294 1.389 . S
C298 H315 0.931 . S
C299 O284 1.266 . S
C299 O285 1.248 . S
C300 Tb236 2.802 . S
C300 O280 1.264 . S
C300 O283 1.256 . S
C300 C293 1.496 . S
C301 C268 1.448 . S
C301 H278 0.930 . S
C301 C302 1.328 . S
C302 C273 1.427 . S
C302 H279 0.929 . S
C302 C301 1.328 . S
C303 O287 1.264 . S
C303 O288 1.243 . S
C304 C307 1.399 . S
C304 C308 1.383 . S
C304 C311 1.496 . S
C305 C306 1.399 . S
C305 C308 1.389 . S
C306 C305 1.399 . S
C306 C309 1.380 . S
C306 H316 0.929 . S
C307 C304 1.399 . S
C307 C309 1.392 . S
C307 H317 0.929 . S
C308 C304 1.383 . S
C308 C305 1.389 . S
C308 H318 0.931 . S
C309 C306 1.380 . S
C309 C307 1.392 . S
C309 H319 0.929 . S
C310 O290 1.266 . S
C310 O291 1.248 . S
C311 Tb247 2.802 . S
C311 O286 1.264 . S
C311 O289 1.256 . S
C311 C304 1.496 . S
H312 C295 0.929 . S
H313 C296 0.929 . S
H314 C297 0.929 . S
H315 C298 0.931 . S
H316 C306 0.929 . S
H317 C307 0.929 . S
H318 C308 0.931 . S
H319 C309 0.929 . S
Tb320 N349 2.617 . S
Tb320 N355 2.572 . S
Tb320 O364 2.465 . S
Tb320 O365 2.387 . S
Tb320 O367 2.428 . S
Tb320 O368 2.308 . S
Tb320 O372 2.349 . S
Tb320 O375 2.393 . S
Tb320 C384 2.802 . S
C321 N322 1.379 . S
C321 C324 1.416 . S
C321 C328 1.424 . S
N322 C321 1.379 . S
N322 C325 1.334 . S
N322 Tb331 2.617 . S
C323 C325 1.390 . S
C323 C326 1.339 . S
C323 H343 0.930 . S
C324 C321 1.416 . S
C324 C326 1.416 . S
C324 C330 1.448 . S
C325 N322 1.334 . S
C325 C323 1.390 . S
C325 H336 0.930 . S
C326 C323 1.339 . S
C326 C324 1.416 . S
C326 H347 0.930 . S
C327 C328 1.413 . S
C327 C329 1.427 . S
C327 C333 1.416 . S
C328 C321 1.424 . S
C328 C327 1.413 . S
C328 N332 1.361 . S
C329 C327 1.427 . S
C329 C330 1.328 . S
C329 H344 0.929 . S
C330 C324 1.448 . S
C330 C329 1.328 . S
C330 H345 0.930 . S
Tb331 N322 2.617 . S
Tb331 N332 2.572 . S
Tb331 O366 2.349 1_655 S
Tb331 O369 2.393 . S
Tb331 O370 2.465 . S
Tb331 O371 2.387 . S
Tb331 O373 2.428 . S
Tb331 O374 2.308 1_655 S
Tb331 C395 2.802 . S
N332 C328 1.361 . S
N332 Tb331 2.572 . S
N332 C334 1.340 . S
C333 C327 1.416 . S
C333 C335 1.332 . S
C333 H341 0.931 . S
C334 N332 1.340 . S
C334 C335 1.407 . S
C334 H340 0.930 . S
C335 C333 1.332 . S
C335 C334 1.407 . S
C335 H337 0.929 . S
H336 C325 0.930 . S
H337 C335 0.929 . S
H338 C353 0.930 . S
H339 C360 0.929 1_545 S
H340 C334 0.930 . S
H341 C333 0.931 . S
H342 C356 0.930 . S
H343 C323 0.930 . S
H344 C329 0.929 . S
H345 C330 0.930 . S
H346 C351 0.930 . S
H347 C326 0.930 . S
H348 C359 0.931 1_545 S
N349 Tb320 2.617 . S
N349 C350 1.379 . S
N349 C353 1.334 . S
C350 N349 1.379 . S
C350 C352 1.416 . S
C350 C358 1.424 . S
C351 H346 0.930 . S
C351 C353 1.390 . S
C351 C354 1.339 . S
C352 C350 1.416 . S
C352 C354 1.416 . S
C352 C385 1.448 . S
C353 H338 0.930 . S
C353 N349 1.334 . S
C353 C351 1.390 . S
C354 C351 1.339 . S
C354 C352 1.416 . S
C354 H361 0.930 . S
N355 Tb320 2.572 . S
N355 C356 1.340 . S
N355 C358 1.361 . S
C356 H342 0.930 . S
C356 N355 1.340 . S
C356 C360 1.407 . S
C357 C358 1.413 . S
C357 C359 1.416 . S
C357 C386 1.427 . S
C358 C350 1.424 . S
C358 N355 1.361 . S
C358 C357 1.413 . S
C359 H348 0.931 1_565 S
C359 C357 1.416 . S
C359 C360 1.332 . S
C360 H339 0.929 1_565 S
C360 C356 1.407 . S
C360 C359 1.332 . S
H361 C354 0.930 . S
H362 C385 0.930 . S
H363 C386 0.929 . S
O364 Tb320 2.465 . S
O364 C384 1.264 . S
O365 Tb320 2.387 . S
O365 C376 1.264 . S
O366 Tb331 2.349 1_455 S
O366 C376 1.243 . S
O367 Tb320 2.428 . S
O367 C384 1.256 . S
O368 Tb320 2.308 . S
O368 C383 1.266 1_455 S
O369 Tb331 2.393 . S
O369 C383 1.248 . S
O370 Tb331 2.465 . S
O370 C395 1.264 . S
O371 Tb331 2.387 . S
O371 C387 1.264 . S
O372 Tb320 2.349 . S
O372 C387 1.243 1_455 S
O373 Tb331 2.428 . S
O373 C395 1.256 . S
O374 Tb331 2.308 1_455 S
O374 C394 1.266 . S
O375 Tb320 2.393 . S
O375 C394 1.248 . S
C376 O365 1.264 . S
C376 O366 1.243 . S
C377 C380 1.399 . S
C377 C382 1.383 . S
C377 C384 1.496 . S
C378 C379 1.399 . S
C378 C382 1.389 . S
C379 C378 1.399 . S
C379 C381 1.380 . S
C379 H396 0.929 . S
C380 C377 1.399 . S
C380 C381 1.392 . S
C380 H397 0.929 . S
C381 C379 1.380 . S
C381 C380 1.392 . S
C381 H398 0.929 . S
C382 C377 1.383 . S
C382 C378 1.389 . S
C382 H399 0.931 . S
C383 O368 1.266 1_655 S
C383 O369 1.248 . S
C384 Tb320 2.802 . S
C384 O364 1.264 . S
C384 O367 1.256 . S
C384 C377 1.496 . S
C385 C352 1.448 . S
C385 H362 0.930 . S
C385 C386 1.328 . S
C386 C357 1.427 . S
C386 H363 0.929 . S
C386 C385 1.328 . S
C387 O371 1.264 . S
C387 O372 1.243 1_655 S
C388 C391 1.399 . S
C388 C392 1.383 . S
C388 C395 1.496 . S
C389 C390 1.399 . S
C389 C392 1.389 . S
C390 C389 1.399 . S
C390 C393 1.380 . S
C390 H400 0.929 . S
C391 C388 1.399 . S
C391 C393 1.392 . S
C391 H401 0.929 . S
C392 C388 1.383 . S
C392 C389 1.389 . S
C392 H402 0.931 . S
C393 C390 1.380 . S
C393 C391 1.392 . S
C393 H403 0.929 . S
C394 O374 1.266 . S
C394 O375 1.248 . S
C395 Tb331 2.802 . S
C395 O370 1.264 . S
C395 O373 1.256 . S
C395 C388 1.496 . S
H396 C379 0.929 . S
H397 C380 0.929 . S
H398 C381 0.929 . S
H399 C382 0.931 . S
H400 C390 0.929 . S
H401 C391 0.929 . S
H402 C392 0.931 . S
H403 C393 0.929 . S
Tb404 N433 2.617 . S
Tb404 N439 2.572 . S
Tb404 O448 2.465 . S
Tb404 O449 2.387 . S
Tb404 O451 2.428 . S
Tb404 O452 2.308 . S
Tb404 O456 2.349 . S
Tb404 O459 2.393 . S
Tb404 C468 2.802 . S
C405 N406 1.379 . S
C405 C408 1.416 . S
C405 C412 1.424 . S
N406 C405 1.379 . S
N406 C409 1.334 . S
N406 Tb415 2.617 . S
C407 C409 1.390 . S
C407 C410 1.339 . S
C407 H427 0.930 . S
C408 C405 1.416 . S
C408 C410 1.416 . S
C408 C414 1.448 . S
C409 N406 1.334 . S
C409 C407 1.390 . S
C409 H420 0.930 . S
C410 C407 1.339 . S
C410 C408 1.416 . S
C410 H431 0.930 . S
C411 C412 1.413 . S
C411 C413 1.427 . S
C411 C417 1.416 . S
C412 C405 1.424 . S
C412 C411 1.413 . S
C412 N416 1.361 . S
C413 C411 1.427 . S
C413 C414 1.328 . S
C413 H428 0.929 . S
C414 C408 1.448 . S
C414 C413 1.328 . S
C414 H429 0.930 . S
Tb415 N406 2.617 . S
Tb415 N416 2.572 . S
Tb415 O450 2.349 . S
Tb415 O453 2.393 . S
Tb415 O454 2.465 . S
Tb415 O455 2.387 . S
Tb415 O457 2.428 . S
Tb415 O458 2.308 . S
Tb415 C479 2.802 . S
N416 C412 1.361 . S
N416 Tb415 2.572 . S
N416 C418 1.340 . S
C417 C411 1.416 . S
C417 C419 1.332 . S
C417 H425 0.931 . S
C418 N416 1.340 . S
C418 C419 1.407 . S
C418 H424 0.930 . S
C419 C417 1.332 . S
C419 C418 1.407 . S
C419 H421 0.929 . S
H420 C409 0.930 . S
H421 C419 0.929 . S
H422 C437 0.930 . S
H423 C444 0.929 . S
H424 C418 0.930 . S
H425 C417 0.931 . S
H426 C440 0.930 . S
H427 C407 0.930 . S
H428 C413 0.929 . S
H429 C414 0.930 . S
H430 C435 0.930 . S
H431 C410 0.930 . S
H432 C443 0.931 . S
N433 Tb404 2.617 . S
N433 C434 1.379 . S
N433 C437 1.334 . S
C434 N433 1.379 . S
C434 C436 1.416 . S
C434 C442 1.424 . S
C435 H430 0.930 . S
C435 C437 1.390 . S
C435 C438 1.339 . S
C436 C434 1.416 . S
C436 C438 1.416 . S
C436 C469 1.448 . S
C437 H422 0.930 . S
C437 N433 1.334 . S
C437 C435 1.390 . S
C438 C435 1.339 . S
C438 C436 1.416 . S
C438 H445 0.930 . S
N439 Tb404 2.572 . S
N439 C440 1.340 . S
N439 C442 1.361 . S
C440 H426 0.930 . S
C440 N439 1.340 . S
C440 C444 1.407 . S
C441 C442 1.413 . S
C441 C443 1.416 . S
C441 C470 1.427 . S
C442 C434 1.424 . S
C442 N439 1.361 . S
C442 C441 1.413 . S
C443 H432 0.931 . S
C443 C441 1.416 . S
C443 C444 1.332 . S
C444 H423 0.929 . S
C444 C440 1.407 . S
C444 C443 1.332 . S
H445 C438 0.930 . S
H446 C469 0.930 . S
H447 C470 0.929 . S
O448 Tb404 2.465 . S
O448 C468 1.264 . S
O449 Tb404 2.387 . S
O449 C460 1.264 . S
O450 Tb415 2.349 . S
O450 C460 1.243 . S
O451 Tb404 2.428 . S
O451 C468 1.256 . S
O452 Tb404 2.308 . S
O452 C467 1.266 . S
O453 Tb415 2.393 . S
O453 C467 1.248 . S
O454 Tb415 2.465 . S
O454 C479 1.264 . S
O455 Tb415 2.387 . S
O455 C471 1.264 . S
O456 Tb404 2.349 . S
O456 C471 1.243 . S
O457 Tb415 2.428 . S
O457 C479 1.256 . S
O458 Tb415 2.308 . S
O458 C478 1.266 . S
O459 Tb404 2.393 . S
O459 C478 1.248 . S
C460 O449 1.264 . S
C460 O450 1.243 . S
C461 C464 1.399 . S
C461 C466 1.383 . S
C461 C468 1.496 . S
C462 C463 1.399 . S
C462 C466 1.389 . S
C463 C462 1.399 . S
C463 C465 1.380 . S
C463 H480 0.929 . S
C464 C461 1.399 . S
C464 C465 1.392 . S
C464 H481 0.929 . S
C465 C463 1.380 . S
C465 C464 1.392 . S
C465 H482 0.929 . S
C466 C461 1.383 . S
C466 C462 1.389 . S
C466 H483 0.931 . S
C467 O452 1.266 . S
C467 O453 1.248 . S
C468 Tb404 2.802 . S
C468 O448 1.264 . S
C468 O451 1.256 . S
C468 C461 1.496 . S
C469 C436 1.448 . S
C469 H446 0.930 . S
C469 C470 1.328 . S
C470 C441 1.427 . S
C470 H447 0.929 . S
C470 C469 1.328 . S
C471 O455 1.264 . S
C471 O456 1.243 . S
C472 C475 1.399 . S
C472 C476 1.383 . S
C472 C479 1.496 . S
C473 C474 1.399 . S
C473 C476 1.389 . S
C474 C473 1.399 . S
C474 C477 1.380 . S
C474 H484 0.929 . S
C475 C472 1.399 . S
C475 C477 1.392 . S
C475 H485 0.929 . S
C476 C472 1.383 . S
C476 C473 1.389 . S
C476 H486 0.931 . S
C477 C474 1.380 . S
C477 C475 1.392 . S
C477 H487 0.929 . S
C478 O458 1.266 . S
C478 O459 1.248 . S
C479 Tb415 2.802 . S
C479 O454 1.264 . S
C479 O457 1.256 . S
C479 C472 1.496 . S
H480 C463 0.929 . S
H481 C464 0.929 . S
H482 C465 0.929 . S
H483 C466 0.931 . S
H484 C474 0.929 . S
H485 C475 0.929 . S
H486 C476 0.931 . S
H487 C477 0.929 . S
H488 C506 0.951 . S
H489 C508 0.951 . S
H490 C510 0.950 . S
H491 C511 0.950 . S
H492 C513 0.950 . S
H493 C516 0.950 . S
H494 C517 0.950 . S
H495 C519 0.950 . S
H496 C520 0.950 . S
H497 C521 0.951 . S
H498 C523 0.951 . S
H499 C525 0.950 . S
H500 C526 0.950 . S
H501 C528 0.950 . S
H502 C531 0.950 . S
H503 C532 0.950 . S
H504 C534 0.950 . S
H505 C535 0.950 . S
C506 H488 0.951 . S
C506 C507 1.366 . S
C506 C508 1.388 . S
C507 C506 1.366 . S
C507 C511 1.385 . S
C508 H489 0.951 . S
C508 C506 1.388 . S
C508 C509 1.366 . S
C509 C508 1.366 . S
C509 C510 1.414 . S
C509 C512 1.499 . S
C510 H490 0.950 . S
C510 C509 1.414 . S
C510 C511 1.374 . S
C511 H491 0.950 . S
C511 C507 1.385 . S
C511 C510 1.374 . S
C512 C509 1.499 . S
C512 C513 1.373 . S
C512 C514 1.389 . S
C513 H492 0.950 . S
C513 C512 1.373 . S
C513 C529 1.377 . S
C514 C512 1.389 . S
C514 C515 1.524 . S
C514 C528 1.377 . S
C515 C514 1.524 . S
C515 C516 1.397 . S
C515 C520 1.363 . S
C516 H493 0.950 . S
C516 C515 1.397 . S
C516 C517 1.334 . S
C517 H494 0.950 . S
C517 C516 1.334 . S
C517 C518 1.287 . S
C518 C517 1.287 . S
C518 C519 1.524 . S
C518 H537 0.913 . S
C519 H495 0.950 . S
C519 C518 1.524 . S
C519 C520 1.415 . S
C520 H496 0.950 . S
C520 C515 1.363 . S
C520 C519 1.415 . S
C521 H497 0.951 . S
C521 C522 1.366 . S
C521 C523 1.388 1_545 S
C522 C521 1.366 . S
C522 C526 1.385 . S
C523 H498 0.951 . S
C523 C521 1.388 1_565 S
C523 C524 1.359 1_565 S
C524 C523 1.359 1_545 S
C524 C525 1.447 . S
C524 C527 1.474 1_545 S
C525 H499 0.950 . S
C525 C524 1.447 . S
C525 C526 1.374 . S
C526 H500 0.950 . S
C526 C522 1.385 . S
C526 C525 1.374 . S
C527 C524 1.474 1_565 S
C527 C528 1.373 . S
C527 C529 1.389 . S
C528 H501 0.950 . S
C528 C514 1.377 . S
C528 C527 1.373 . S
C529 C513 1.377 . S
C529 C527 1.389 . S
C529 C530 1.524 . S
C530 C529 1.524 . S
C530 C531 1.397 1_565 S
C530 C535 1.363 . S
C531 H502 0.950 . S
C531 C530 1.397 1_545 S
C531 C532 1.334 . S
C532 H503 0.950 . S
C532 C531 1.334 . S
C532 C533 1.287 1_545 S
C533 C532 1.287 1_565 S
C533 C534 1.524 . S
C533 H536 0.999 1_565 S
C534 H504 0.950 . S
C534 C533 1.524 . S
C534 C535 1.415 . S
C535 H505 0.950 . S
C535 C530 1.363 . S
C535 C534 1.415 . S
H536 C533 0.999 1_545 S
H537 C518 0.913 . S
H538 C556 0.951 . S
H539 C558 0.951 . S
H540 C560 0.950 . S
H541 C561 0.950 . S
H542 C563 0.950 . S
H543 C566 0.950 . S
H544 C567 0.950 . S
H545 C569 0.950 . S
H546 C570 0.950 . S
H547 C571 0.951 . S
H548 C573 0.951 . S
H549 C575 0.950 . S
H550 C576 0.950 . S
H551 C578 0.950 . S
H552 C581 0.950 . S
H553 C582 0.950 . S
H554 C584 0.950 . S
H555 C585 0.950 . S
C556 H538 0.951 . S
C556 C557 1.366 . S
C556 C558 1.388 . S
C557 C556 1.366 . S
C557 C561 1.385 . S
C558 H539 0.951 . S
C558 C556 1.388 . S
C558 C559 1.366 . S
C559 C558 1.366 . S
C559 C560 1.414 . S
C559 C562 1.499 . S
C560 H540 0.950 . S
C560 C559 1.414 . S
C560 C561 1.374 . S
C561 H541 0.950 . S
C561 C557 1.385 . S
C561 C560 1.374 . S
C562 C559 1.499 . S
C562 C563 1.373 . S
C562 C564 1.389 . S
C563 H542 0.950 . S
C563 C562 1.373 . S
C563 C579 1.377 . S
C564 C562 1.389 . S
C564 C565 1.524 . S
C564 C578 1.377 . S
C565 C564 1.524 . S
C565 C566 1.397 . S
C565 C570 1.363 . S
C566 H543 0.950 . S
C566 C565 1.397 . S
C566 C567 1.334 . S
C567 H544 0.950 . S
C567 C566 1.334 . S
C567 C568 1.287 . S
C568 C567 1.287 . S
C568 C569 1.524 . S
C568 H587 0.913 . S
C569 H545 0.950 . S
C569 C568 1.524 . S
C569 C570 1.415 . S
C570 H546 0.950 . S
C570 C565 1.363 . S
C570 C569 1.415 . S
C571 H547 0.951 . S
C571 C572 1.366 . S
C571 C573 1.388 . S
C572 C571 1.366 . S
C572 C576 1.385 . S
C573 H548 0.951 . S
C573 C571 1.388 . S
C573 C574 1.366 . S
C574 C573 1.366 . S
C574 C575 1.414 . S
C574 C577 1.499 . S
C575 H549 0.950 . S
C575 C574 1.414 . S
C575 C576 1.374 . S
C576 H550 0.950 . S
C576 C572 1.385 . S
C576 C575 1.374 . S
C577 C574 1.499 . S
C577 C578 1.373 . S
C577 C579 1.389 . S
C578 H551 0.950 . S
C578 C564 1.377 . S
C578 C577 1.373 . S
C579 C563 1.377 . S
C579 C577 1.389 . S
C579 C580 1.524 . S
C580 C579 1.524 . S
C580 C581 1.397 . S
C580 C585 1.363 . S
C581 H552 0.950 . S
C581 C580 1.397 . S
C581 C582 1.334 . S
C582 H553 0.950 . S
C582 C581 1.334 . S
C582 C583 1.287 . S
C583 C582 1.287 . S
C583 C584 1.524 . S
C583 H586 0.999 . S
C584 H554 0.950 . S
C584 C583 1.524 . S
C584 C585 1.415 . S
C585 H555 0.950 . S
C585 C580 1.363 . S
C585 C584 1.415 . S
H586 C583 0.999 . S
H587 C568 0.913 . S
H588 C606 0.951 . S
H589 C608 0.951 . S
H590 C610 0.950 . S
H591 C611 0.950 . S
H592 C613 0.950 . S
H593 C616 0.950 . S
H594 C617 0.950 . S
H595 C619 0.950 . S
H596 C620 0.950 . S
H597 C621 0.951 . S
H598 C623 0.951 . S
H599 C625 0.950 . S
H600 C626 0.950 . S
H601 C628 0.950 . S
H602 C631 0.950 . S
H603 C632 0.950 . S
H604 C634 0.950 . S
H605 C635 0.950 . S
C606 H588 0.951 . S
C606 C607 1.366 . S
C606 C608 1.388 . S
C607 C606 1.366 . S
C607 C611 1.385 . S
C608 H589 0.951 . S
C608 C606 1.388 . S
C608 C609 1.366 . S
C609 C608 1.366 . S
C609 C610 1.414 . S
C609 C612 1.499 . S
C610 H590 0.950 . S
C610 C609 1.414 . S
C610 C611 1.374 . S
C611 H591 0.950 . S
C611 C607 1.385 . S
C611 C610 1.374 . S
C612 C609 1.499 . S
C612 C613 1.373 . S
C612 C614 1.389 . S
C613 H592 0.950 . S
C613 C612 1.373 . S
C613 C629 1.377 . S
C614 C612 1.389 . S
C614 C615 1.524 . S
C614 C628 1.377 . S
C615 C614 1.524 . S
C615 C616 1.397 . S
C615 C620 1.363 . S
C616 H593 0.950 . S
C616 C615 1.397 . S
C616 C617 1.334 . S
C617 H594 0.950 . S
C617 C616 1.334 . S
C617 C618 1.287 . S
C618 C617 1.287 . S
C618 C619 1.524 . S
C618 H637 0.913 . S
C619 H595 0.950 . S
C619 C618 1.524 . S
C619 C620 1.415 . S
C620 H596 0.950 . S
C620 C615 1.363 . S
C620 C619 1.415 . S
C621 H597 0.951 . S
C621 C622 1.366 . S
C621 C623 1.388 . S
C622 C621 1.366 . S
C622 C626 1.385 . S
C623 H598 0.951 . S
C623 C621 1.388 . S
C623 C624 1.366 . S
C624 C623 1.366 . S
C624 C625 1.414 . S
C624 C627 1.499 . S
C625 H599 0.950 . S
C625 C624 1.414 . S
C625 C626 1.374 . S
C626 H600 0.950 . S
C626 C622 1.385 . S
C626 C625 1.374 . S
C627 C624 1.499 . S
C627 C628 1.373 . S
C627 C629 1.389 . S
C628 H601 0.950 . S
C628 C614 1.377 . S
C628 C627 1.373 . S
C629 C613 1.377 . S
C629 C627 1.389 . S
C629 C630 1.524 . S
C630 C629 1.524 . S
C630 C631 1.397 . S
C630 C635 1.363 . S
C631 H602 0.950 . S
C631 C630 1.397 . S
C631 C632 1.334 . S
C632 H603 0.950 . S
C632 C631 1.334 . S
C632 C633 1.287 . S
C633 C632 1.287 . S
C633 C634 1.524 . S
C633 H636 0.999 . S
C634 H604 0.950 . S
C634 C633 1.524 . S
C634 C635 1.415 . S
C635 H605 0.950 . S
C635 C630 1.363 . S
C635 C634 1.415 . S
H636 C633 0.999 . S
H637 C618 0.913 . S
H638 C656 0.951 . S
H639 C658 0.951 . S
H640 C660 0.950 . S
H641 C661 0.950 . S
H642 C663 0.950 . S
H643 C666 0.950 . S
H644 C667 0.950 . S
H645 C669 0.950 . S
H646 C670 0.950 . S
H647 C671 0.951 . S
H648 C673 0.951 1_565 S
H649 C675 0.950 . S
H650 C676 0.950 . S
H651 C678 0.950 1_545 S
H652 C681 0.950 . S
H653 C682 0.950 . S
H654 C684 0.950 1_455 S
H655 C685 0.950 . S
C656 H638 0.951 . S
C656 C657 1.366 . S
C656 C658 1.388 . S
C657 C656 1.366 . S
C657 C661 1.385 . S
C658 H639 0.951 . S
C658 C656 1.388 . S
C658 C659 1.366 . S
C659 C658 1.366 . S
C659 C660 1.414 . S
C659 C662 1.499 . S
C660 H640 0.950 . S
C660 C659 1.414 . S
C660 C661 1.374 . S
C661 H641 0.950 . S
C661 C657 1.385 . S
C661 C660 1.374 . S
C662 C659 1.499 . S
C662 C663 1.373 . S
C662 C664 1.389 . S
C663 H642 0.950 . S
C663 C662 1.373 . S
C663 C679 1.377 . S
C664 C662 1.389 . S
C664 C665 1.524 . S
C664 C678 1.377 . S
C665 C664 1.524 . S
C665 C666 1.397 . S
C665 C670 1.363 . S
C666 H643 0.950 . S
C666 C665 1.397 . S
C666 C667 1.334 . S
C667 H644 0.950 . S
C667 C666 1.334 . S
C667 C668 1.287 1_565 S
C668 C667 1.287 1_545 S
C668 C669 1.524 . S
C668 H687 0.913 . S
C669 H645 0.950 . S
C669 C668 1.524 . S
C669 C670 1.415 1_545 S
C670 H646 0.950 . S
C670 C665 1.363 . S
C670 C669 1.415 1_565 S
C671 H647 0.951 . S
C671 C672 1.366 . S
C671 C673 1.388 . S
C672 C671 1.366 . S
C672 C676 1.385 . S
C673 H648 0.951 1_545 S
C673 C671 1.388 . S
C673 C674 1.363 1_545 S
C674 C673 1.363 1_565 S
C674 C675 1.400 1_565 S
C674 C677 1.514 . S
C675 H649 0.950 . S
C675 C674 1.400 1_545 S
C675 C676 1.374 . S
C676 H650 0.950 . S
C676 C672 1.385 . S
C676 C675 1.374 . S
C677 C674 1.514 . S
C677 C678 1.373 . S
C677 C679 1.389 . S
C678 H651 0.950 1_565 S
C678 C664 1.377 . S
C678 C677 1.373 . S
C679 C663 1.377 . S
C679 C677 1.389 . S
C679 C680 1.524 . S
C680 C679 1.524 . S
C680 C681 1.397 . S
C680 C685 1.363 . S
C681 H652 0.950 . S
C681 C680 1.397 . S
C681 C682 1.334 . S
C682 H653 0.950 . S
C682 C681 1.334 . S
C682 C683 1.287 . S
C683 C682 1.287 . S
C683 C684 1.524 . S
C683 H686 0.993 1_655 S
C684 H654 0.950 1_655 S
C684 C683 1.524 . S
C684 C685 1.415 . S
C685 H655 0.950 . S
C685 C680 1.363 . S
C685 C684 1.415 . S
H686 C683 0.993 1_455 S
H687 C668 0.913 . S
H688 C706 0.951 . S
H689 C708 0.951 . S
H690 C710 0.950 . S
H691 C711 0.950 . S
H692 C713 0.950 . S
H693 C716 0.950 . S
H694 C717 0.950 . S
H695 C719 0.950 . S
H696 C720 0.950 . S
H697 C721 0.951 . S
H698 C723 0.951 . S
H699 C725 0.950 . S
H700 C726 0.950 . S
H701 C728 0.950 . S
H702 C731 0.950 1_565 S
H703 C732 0.950 . S
H704 C734 0.950 . S
H705 C735 0.950 . S
C706 H688 0.951 . S
C706 C707 1.366 . S
C706 C708 1.388 . S
C707 C706 1.366 . S
C707 C711 1.385 . S
C708 H689 0.951 . S
C708 C706 1.388 . S
C708 C709 1.366 . S
C709 C708 1.366 . S
C709 C710 1.414 . S
C709 C712 1.499 . S
C710 H690 0.950 . S
C710 C709 1.414 . S
C710 C711 1.374 . S
C711 H691 0.950 . S
C711 C707 1.385 . S
C711 C710 1.374 . S
C712 C709 1.499 . S
C712 C713 1.373 . S
C712 C714 1.389 . S
C713 H692 0.950 . S
C713 C712 1.373 . S
C713 C729 1.377 . S
C714 C712 1.389 . S
C714 C715 1.524 . S
C714 C728 1.377 . S
C715 C714 1.524 . S
C715 C716 1.397 . S
C715 C720 1.363 . S
C716 H693 0.950 . S
C716 C715 1.397 . S
C716 C717 1.334 . S
C717 H694 0.950 . S
C717 C716 1.334 . S
C717 C718 1.287 . S
C718 C717 1.287 . S
C718 C719 1.524 . S
C718 H737 0.913 . S
C719 H695 0.950 . S
C719 C718 1.524 . S
C719 C720 1.415 . S
C720 H696 0.950 . S
C720 C715 1.363 . S
C720 C719 1.415 . S
C721 H697 0.951 . S
C721 C722 1.366 . S
C721 C723 1.388 1_565 S
C722 C721 1.366 . S
C722 C726 1.385 . S
C723 H698 0.951 . S
C723 C721 1.388 1_545 S
C723 C724 1.359 1_545 S
C724 C723 1.359 1_565 S
C724 C725 1.442 . S
C724 C727 1.478 1_565 S
C725 H699 0.950 . S
C725 C724 1.442 . S
C725 C726 1.374 . S
C726 H700 0.950 . S
C726 C722 1.385 . S
C726 C725 1.374 . S
C727 C724 1.478 1_545 S
C727 C728 1.373 . S
C727 C729 1.389 . S
C728 H701 0.950 . S
C728 C714 1.377 . S
C728 C727 1.373 . S
C729 C713 1.377 . S
C729 C727 1.389 . S
C729 C730 1.524 . S
C730 C729 1.524 . S
C730 C731 1.397 . S
C730 C735 1.363 . S
C731 H702 0.950 1_545 S
C731 C730 1.397 . S
C731 C732 1.334 1_545 S
C732 H703 0.950 . S
C732 C731 1.334 1_565 S
C732 C733 1.287 1_665 S
C733 C732 1.287 1_445 S
C733 C734 1.524 . S
C733 H736 0.999 . S
C734 H704 0.950 . S
C734 C733 1.524 . S
C734 C735 1.415 1_455 S
C735 H705 0.950 . S
C735 C730 1.363 . S
C735 C734 1.415 1_655 S
H736 C733 0.999 . S
H737 C718 0.913 . S
H738 C756 0.951 . S
H739 C758 0.951 . S
H740 C760 0.950 . S
H741 C761 0.950 . S
H742 C763 0.950 . S
H743 C766 0.950 . S
H744 C767 0.950 . S
H745 C769 0.950 . S
H746 C770 0.950 . S
H747 C771 0.951 . S
H748 C773 0.951 . S
H749 C775 0.950 . S
H750 C776 0.950 . S
H751 C778 0.950 . S
H752 C781 0.950 . S
H753 C782 0.950 . S
H754 C784 0.950 . S
H755 C785 0.950 . S
C756 H738 0.951 . S
C756 C757 1.366 . S
C756 C758 1.388 . S
C757 C756 1.366 . S
C757 C761 1.385 . S
C758 H739 0.951 . S
C758 C756 1.388 . S
C758 C759 1.366 . S
C759 C758 1.366 . S
C759 C760 1.414 . S
C759 C762 1.499 . S
C760 H740 0.950 . S
C760 C759 1.414 . S
C760 C761 1.374 . S
C761 H741 0.950 . S
C761 C757 1.385 . S
C761 C760 1.374 . S
C762 C759 1.499 . S
C762 C763 1.373 . S
C762 C764 1.389 . S
C763 H742 0.950 . S
C763 C762 1.373 . S
C763 C779 1.377 . S
C764 C762 1.389 . S
C764 C765 1.524 . S
C764 C778 1.377 . S
C765 C764 1.524 . S
C765 C766 1.397 . S
C765 C770 1.363 . S
C766 H743 0.950 . S
C766 C765 1.397 . S
C766 C767 1.334 . S
C767 H744 0.950 . S
C767 C766 1.334 . S
C767 C768 1.287 . S
C768 C767 1.287 . S
C768 C769 1.524 . S
C768 H787 0.913 . S
C769 H745 0.950 . S
C769 C768 1.524 . S
C769 C770 1.415 . S
C770 H746 0.950 . S
C770 C765 1.363 . S
C770 C769 1.415 . S
C771 H747 0.951 . S
C771 C772 1.366 . S
C771 C773 1.388 . S
C772 C771 1.366 . S
C772 C776 1.385 . S
C773 H748 0.951 . S
C773 C771 1.388 . S
C773 C774 1.366 . S
C774 C773 1.366 . S
C774 C775 1.414 . S
C774 C777 1.499 . S
C775 H749 0.950 . S
C775 C774 1.414 . S
C775 C776 1.374 . S
C776 H750 0.950 . S
C776 C772 1.385 . S
C776 C775 1.374 . S
C777 C774 1.499 . S
C777 C778 1.373 . S
C777 C779 1.389 . S
C778 H751 0.950 . S
C778 C764 1.377 . S
C778 C777 1.373 . S
C779 C763 1.377 . S
C779 C777 1.389 . S
C779 C780 1.524 . S
C780 C779 1.524 . S
C780 C781 1.397 . S
C780 C785 1.363 . S
C781 H752 0.950 . S
C781 C780 1.397 . S
C781 C782 1.334 . S
C782 H753 0.950 . S
C782 C781 1.334 . S
C782 C783 1.287 . S
C783 C782 1.287 . S
C783 C784 1.524 . S
C783 H786 0.999 . S
C784 H754 0.950 . S
C784 C783 1.524 . S
C784 C785 1.415 . S
C785 H755 0.950 . S
C785 C780 1.363 . S
C785 C784 1.415 . S
H786 C783 0.999 . S
H787 C768 0.913 . S
H788 C806 0.951 . S
H789 C808 0.951 . S
H790 C810 0.950 . S
H791 C811 0.950 . S
H792 C813 0.950 . S
H793 C816 0.950 . S
H794 C817 0.950 . S
H795 C819 0.950 . S
H796 C820 0.950 . S
H797 C821 0.951 . S
H798 C823 0.951 . S
H799 C825 0.950 . S
H800 C826 0.950 . S
H801 C828 0.950 . S
H802 C831 0.950 . S
H803 C832 0.950 . S
H804 C834 0.950 . S
H805 C835 0.950 . S
C806 H788 0.951 . S
C806 C807 1.366 . S
C806 C808 1.388 . S
C807 C806 1.366 . S
C807 C811 1.385 . S
C808 H789 0.951 . S
C808 C806 1.388 . S
C808 C809 1.366 . S
C809 C808 1.366 . S
C809 C810 1.414 . S
C809 C812 1.499 . S
C810 H790 0.950 . S
C810 C809 1.414 . S
C810 C811 1.374 . S
C811 H791 0.950 . S
C811 C807 1.385 . S
C811 C810 1.374 . S
C812 C809 1.499 . S
C812 C813 1.373 . S
C812 C814 1.389 . S
C813 H792 0.950 . S
C813 C812 1.373 . S
C813 C829 1.377 . S
C814 C812 1.389 . S
C814 C815 1.524 . S
C814 C828 1.377 . S
C815 C814 1.524 . S
C815 C816 1.397 . S
C815 C820 1.363 . S
C816 H793 0.950 . S
C816 C815 1.397 . S
C816 C817 1.334 . S
C817 H794 0.950 . S
C817 C816 1.334 . S
C817 C818 1.287 . S
C818 C817 1.287 . S
C818 C819 1.524 . S
C818 H837 0.913 . S
C819 H795 0.950 . S
C819 C818 1.524 . S
C819 C820 1.415 . S
C820 H796 0.950 . S
C820 C815 1.363 . S
C820 C819 1.415 . S
C821 H797 0.951 . S
C821 C822 1.366 . S
C821 C823 1.388 . S
C822 C821 1.366 . S
C822 C826 1.385 . S
C823 H798 0.951 . S
C823 C821 1.388 . S
C823 C824 1.366 . S
C824 C823 1.366 . S
C824 C825 1.414 . S
C824 C827 1.499 . S
C825 H799 0.950 . S
C825 C824 1.414 . S
C825 C826 1.374 . S
C826 H800 0.950 . S
C826 C822 1.385 . S
C826 C825 1.374 . S
C827 C824 1.499 . S
C827 C828 1.373 . S
C827 C829 1.389 . S
C828 H801 0.950 . S
C828 C814 1.377 . S
C828 C827 1.373 . S
C829 C813 1.377 . S
C829 C827 1.389 . S
C829 C830 1.524 . S
C830 C829 1.524 . S
C830 C831 1.397 . S
C830 C835 1.363 . S
C831 H802 0.950 . S
C831 C830 1.397 . S
C831 C832 1.334 . S
C832 H803 0.950 . S
C832 C831 1.334 . S
C832 C833 1.287 . S
C833 C832 1.287 . S
C833 C834 1.524 . S
C833 H836 0.999 . S
C834 H804 0.950 . S
C834 C833 1.524 . S
C834 C835 1.415 . S
C835 H805 0.950 . S
C835 C830 1.363 . S
C835 C834 1.415 . S
H836 C833 0.999 . S
H837 C818 0.913 . S
H838 C856 0.951 . S
H839 C858 0.951 . S
H840 C860 0.950 . S
H841 C861 0.950 . S
H842 C863 0.950 . S
H843 C866 0.950 . S
H844 C867 0.950 . S
H845 C869 0.950 . S
H846 C870 0.950 . S
H847 C871 0.951 . S
H848 C873 0.951 . S
H849 C875 0.950 . S
H850 C876 0.950 . S
H851 C878 0.950 . S
H852 C881 0.950 . S
H853 C882 0.950 . S
H854 C884 0.950 . S
H855 C885 0.950 1_545 S
C856 H838 0.951 . S
C856 C857 1.366 . S
C856 C858 1.388 . S
C857 C856 1.366 . S
C857 C861 1.385 . S
C858 H839 0.951 . S
C858 C856 1.388 . S
C858 C859 1.366 . S
C859 C858 1.366 . S
C859 C860 1.414 . S
C859 C862 1.499 . S
C860 H840 0.950 . S
C860 C859 1.414 . S
C860 C861 1.374 . S
C861 H841 0.950 . S
C861 C857 1.385 . S
C861 C860 1.374 . S
C862 C859 1.499 . S
C862 C863 1.373 . S
C862 C864 1.389 . S
C863 H842 0.950 . S
C863 C862 1.373 . S
C863 C879 1.377 . S
C864 C862 1.389 . S
C864 C865 1.524 . S
C864 C878 1.377 . S
C865 C864 1.524 . S
C865 C866 1.397 . S
C865 C870 1.363 . S
C866 H843 0.950 . S
C866 C865 1.397 . S
C866 C867 1.334 . S
C867 H844 0.950 . S
C867 C866 1.334 . S
C867 C868 1.287 . S
C868 C867 1.287 . S
C868 C869 1.524 . S
C868 H887 0.913 . S
C869 H845 0.950 . S
C869 C868 1.524 . S
C869 C870 1.415 . S
C870 H846 0.950 . S
C870 C865 1.363 . S
C870 C869 1.415 . S
C871 H847 0.951 . S
C871 C872 1.366 . S
C871 C873 1.388 . S
C872 C871 1.366 . S
C872 C876 1.385 . S
C873 H848 0.951 . S
C873 C871 1.388 . S
C873 C874 1.366 . S
C874 C873 1.366 . S
C874 C875 1.414 . S
C874 C877 1.499 1_565 S
C875 H849 0.950 . S
C875 C874 1.414 . S
C875 C876 1.374 . S
C876 H850 0.950 . S
C876 C872 1.385 . S
C876 C875 1.374 . S
C877 C874 1.499 1_545 S
C877 C878 1.373 . S
C877 C879 1.389 . S
C878 H851 0.950 . S
C878 C864 1.377 . S
C878 C877 1.373 . S
C879 C863 1.377 . S
C879 C877 1.389 . S
C879 C880 1.524 1_545 S
C880 C879 1.524 1_565 S
C880 C881 1.397 . S
C880 C885 1.363 . S
C881 H852 0.950 . S
C881 C880 1.397 . S
C881 C882 1.334 . S
C882 H853 0.950 . S
C882 C881 1.334 . S
C882 C883 1.287 . S
C883 C882 1.287 . S
C883 C884 1.524 . S
C883 H886 0.999 . S
C884 H854 0.950 . S
C884 C883 1.524 . S
C884 C885 1.415 . S
C885 H855 0.950 1_565 S
C885 C880 1.363 . S
C885 C884 1.415 . S
H886 C883 0.999 . S
H887 C868 0.913 . S
H888 C906 0.951 . S
H889 C908 0.951 1_554 S
H890 C910 0.950 . S
H891 C911 0.950 . S
H892 C913 0.950 . S
H893 C916 0.950 . S
H894 C917 0.913 1_556 S
H895 C919 0.950 . S
H896 C920 0.950 . S
H897 C921 0.951 . S
H898 C923 0.951 . S
H899 C925 0.950 . S
H900 C926 0.950 . S
H901 C928 0.950 . S
H902 C931 0.950 . S
H903 C932 0.950 . S
H904 C934 0.950 1_655 S
H905 C935 0.950 . S
C906 H888 0.951 . S
C906 C907 1.366 . S
C906 C908 1.388 . S
C907 C906 1.366 . S
C907 C911 1.385 . S
C908 H889 0.951 1_556 S
C908 C906 1.388 . S
C908 C909 1.366 . S
C909 C908 1.366 . S
C909 C910 1.414 . S
C909 C912 1.499 1_556 S
C910 H890 0.950 . S
C910 C909 1.414 . S
C910 C911 1.374 . S
C911 H891 0.950 . S
C911 C907 1.385 . S
C911 C910 1.374 . S
C912 C909 1.499 1_554 S
C912 C913 1.373 . S
C912 C914 1.389 . S
C913 H892 0.950 . S
C913 C912 1.373 . S
C913 C929 1.377 . S
C914 C912 1.389 . S
C914 C915 1.524 . S
C914 C928 1.377 . S
C915 C914 1.524 . S
C915 C916 1.397 . S
C915 C920 1.363 . S
C916 H893 0.950 . S
C916 C915 1.397 . S
C916 C917 1.334 . S
C917 H894 0.913 1_554 S
C917 C916 1.334 . S
C917 C918 1.287 . S
C918 C917 1.287 . S
C918 C919 1.524 . S
C918 H937 0.913 . S
C919 H895 0.950 . S
C919 C918 1.524 . S
C919 C920 1.415 . S
C920 H896 0.950 . S
C920 C915 1.363 . S
C920 C919 1.415 . S
C921 H897 0.951 . S
C921 C922 1.366 . S
C921 C923 1.388 . S
C922 C921 1.366 . S
C922 C926 1.385 . S
C923 H898 0.951 . S
C923 C921 1.388 . S
C923 C924 1.366 . S
C924 C923 1.366 . S
C924 C925 1.414 . S
C924 C927 1.499 . S
C925 H899 0.950 . S
C925 C924 1.414 . S
C925 C926 1.374 . S
C926 H900 0.950 . S
C926 C922 1.385 . S
C926 C925 1.374 . S
C927 C924 1.499 . S
C927 C928 1.373 . S
C927 C929 1.389 . S
C928 H901 0.950 . S
C928 C914 1.377 . S
C928 C927 1.373 . S
C929 C913 1.377 . S
C929 C927 1.389 . S
C929 C930 1.524 . S
C930 C929 1.524 . S
C930 C931 1.397 . S
C930 C935 1.363 . S
C931 H902 0.950 . S
C931 C930 1.397 . S
C931 C932 1.334 . S
C932 H903 0.950 . S
C932 C931 1.334 . S
C932 C933 1.287 . S
C933 C932 1.287 . S
C933 C934 1.524 . S
C933 H936 0.999 1_455 S
C934 H904 0.950 1_455 S
C934 C933 1.524 . S
C934 C935 1.415 . S
C935 H905 0.950 . S
C935 C930 1.363 . S
C935 C934 1.415 . S
H936 C933 0.999 1_655 S
H937 C918 0.913 . S
H938 C956 0.951 . S
H939 C958 0.951 . S
H940 C960 0.950 . S
H941 C961 0.950 . S
H942 C963 0.950 . S
H943 C966 0.950 . S
H944 C967 0.950 . S
H945 C969 0.950 . S
H946 C970 0.950 . S
H947 C971 0.951 . S
H948 C973 0.951 . S
H949 C975 0.950 . S
H950 C976 0.950 . S
H951 C978 0.950 . S
H952 C981 0.950 . S
H953 C982 0.950 . S
H954 C984 0.950 . S
H955 C985 0.950 . S
C956 H938 0.951 . S
C956 C957 1.366 . S
C956 C958 1.388 . S
C957 C956 1.366 . S
C957 C961 1.385 . S
C958 H939 0.951 . S
C958 C956 1.388 . S
C958 C959 1.366 . S
C959 C958 1.366 . S
C959 C960 1.414 . S
C959 C962 1.499 . S
C960 H940 0.950 . S
C960 C959 1.414 . S
C960 C961 1.374 . S
C961 H941 0.950 . S
C961 C957 1.385 . S
C961 C960 1.374 . S
C962 C959 1.499 . S
C962 C963 1.373 . S
C962 C964 1.389 . S
C963 H942 0.950 . S
C963 C962 1.373 . S
C963 C979 1.377 . S
C964 C962 1.389 . S
C964 C965 1.524 . S
C964 C978 1.377 . S
C965 C964 1.524 . S
C965 C966 1.397 . S
C965 C970 1.363 . S
C966 H943 0.950 . S
C966 C965 1.397 . S
C966 C967 1.334 . S
C967 H944 0.950 . S
C967 C966 1.334 . S
C967 C968 1.287 . S
C968 C967 1.287 . S
C968 C969 1.524 . S
C968 H987 0.913 . S
C969 H945 0.950 . S
C969 C968 1.524 . S
C969 C970 1.415 . S
C970 H946 0.950 . S
C970 C965 1.363 . S
C970 C969 1.415 . S
C971 H947 0.951 . S
C971 C972 1.366 . S
C971 C973 1.388 . S
C972 C971 1.366 . S
C972 C976 1.385 . S
C973 H948 0.951 . S
C973 C971 1.388 . S
C973 C974 1.366 . S
C974 C973 1.366 . S
C974 C975 1.414 . S
C974 C977 1.499 . S
C975 H949 0.950 . S
C975 C974 1.414 . S
C975 C976 1.374 . S
C976 H950 0.950 . S
C976 C972 1.385 . S
C976 C975 1.374 . S
C977 C974 1.499 . S
C977 C978 1.373 . S
C977 C979 1.389 . S
C978 H951 0.950 . S
C978 C964 1.377 . S
C978 C977 1.373 . S
C979 C963 1.377 . S
C979 C977 1.389 . S
C979 C980 1.524 . S
C980 C979 1.524 . S
C980 C981 1.397 . S
C980 C985 1.363 . S
C981 H952 0.950 . S
C981 C980 1.397 . S
C981 C982 1.334 . S
C982 H953 0.950 . S
C982 C981 1.334 . S
C982 C983 1.287 . S
C983 C982 1.287 . S
C983 C984 1.524 . S
C983 H986 0.999 . S
C984 H954 0.950 . S
C984 C983 1.524 . S
C984 C985 1.415 . S
C985 H955 0.950 . S
C985 C980 1.363 . S
C985 C984 1.415 . S
H986 C983 0.999 . S
H987 C968 0.913 . S
H988 C1006 0.951 . S
H989 C1008 0.951 1_556 S
H990 C1010 0.950 . S
H991 C1011 0.950 . S
H992 C1013 0.950 . S
H993 C1016 0.950 . S
H994 C1017 0.950 1_554 S
H995 C1019 0.950 . S
H996 C1020 0.950 . S
H997 C1021 0.951 . S
H998 C1023 0.951 . S
H999 C1025 0.950 . S
H1000 C1026 0.950 . S
H1001 C1028 0.950 . S
H1002 C1031 0.950 . S
H1003 C1032 0.950 . S
H1004 C1034 0.950 . S
H1005 C1035 0.950 . S
C1006 H988 0.951 . S
C1006 C1007 1.366 . S
C1006 C1008 1.388 . S
C1007 C1006 1.366 . S
C1007 C1011 1.385 . S
C1008 H989 0.951 1_554 S
C1008 C1006 1.388 . S
C1008 C1009 1.366 . S
C1009 C1008 1.366 . S
C1009 C1010 1.414 . S
C1009 C1012 1.499 1_554 S
C1010 H990 0.950 . S
C1010 C1009 1.414 . S
C1010 C1011 1.374 . S
C1011 H991 0.950 . S
C1011 C1007 1.385 . S
C1011 C1010 1.374 . S
C1012 C1009 1.499 1_556 S
C1012 C1013 1.373 . S
C1012 C1014 1.389 . S
C1013 H992 0.950 . S
C1013 C1012 1.373 . S
C1013 C1029 1.377 . S
C1014 C1012 1.389 . S
C1014 C1015 1.524 . S
C1014 C1028 1.377 . S
C1015 C1014 1.524 . S
C1015 C1016 1.397 . S
C1015 C1020 1.363 . S
C1016 H993 0.950 . S
C1016 C1015 1.397 . S
C1016 C1017 1.334 . S
C1017 H994 0.950 1_556 S
C1017 C1016 1.334 . S
C1017 C1018 1.287 . S
C1018 C1017 1.287 . S
C1018 C1019 1.524 . S
C1018 H1037 0.913 . S
C1019 H995 0.950 . S
C1019 C1018 1.524 . S
C1019 C1020 1.415 . S
C1020 H996 0.950 . S
C1020 C1015 1.363 . S
C1020 C1019 1.415 . S
C1021 H997 0.951 . S
C1021 C1022 1.366 . S
C1021 C1023 1.388 . S
C1022 C1021 1.366 . S
C1022 C1026 1.385 . S
C1023 H998 0.951 . S
C1023 C1021 1.388 . S
C1023 C1024 1.366 . S
C1024 C1023 1.366 . S
C1024 C1025 1.414 . S
C1024 C1027 1.499 . S
C1025 H999 0.950 . S
C1025 C1024 1.414 . S
C1025 C1026 1.374 . S
C1026 H1000 0.950 . S
C1026 C1022 1.385 . S
C1026 C1025 1.374 . S
C1027 C1024 1.499 . S
C1027 C1028 1.373 . S
C1027 C1029 1.389 . S
C1028 H1001 0.950 . S
C1028 C1014 1.377 . S
C1028 C1027 1.373 . S
C1029 C1013 1.377 . S
C1029 C1027 1.389 . S
C1029 C1030 1.524 . S
C1030 C1029 1.524 . S
C1030 C1031 1.397 . S
C1030 C1035 1.363 . S
C1031 H1002 0.950 . S
C1031 C1030 1.397 . S
C1031 C1032 1.334 . S
C1032 H1003 0.950 . S
C1032 C1031 1.334 . S
C1032 C1033 1.287 . S
C1033 C1032 1.287 . S
C1033 C1034 1.524 . S
C1033 H1036 0.999 . S
C1034 H1004 0.950 . S
C1034 C1033 1.524 . S
C1034 C1035 1.415 . S
C1035 H1005 0.950 . S
C1035 C1030 1.363 . S
C1035 C1034 1.415 . S
H1036 C1033 0.999 . S
H1037 C1018 0.913 . S
H1038 C1056 0.951 . S
H1039 C1058 0.951 . S
H1040 C1060 0.950 . S
H1041 C1061 0.950 . S
H1042 C1063 0.950 . S
H1043 C1066 0.950 . S
H1044 C1067 0.950 . S
H1045 C1069 0.950 . S
H1046 C1070 0.950 . S
H1047 C1071 0.951 . S
H1048 C1073 0.951 . S
H1049 C1075 0.950 . S
H1050 C1076 0.950 . S
H1051 C1078 0.950 . S
H1052 C1081 0.950 . S
H1053 C1082 0.950 1_455 S
H1054 C1084 0.950 . S
H1055 C1085 0.950 . S
C1056 H1038 0.951 . S
C1056 C1057 1.366 . S
C1056 C1058 1.388 . S
C1057 C1056 1.366 . S
C1057 C1061 1.385 . S
C1058 H1039 0.951 . S
C1058 C1056 1.388 . S
C1058 C1059 1.366 . S
C1059 C1058 1.366 . S
C1059 C1060 1.414 . S
C1059 C1062 1.499 . S
C1060 H1040 0.950 . S
C1060 C1059 1.414 . S
C1060 C1061 1.374 . S
C1061 H1041 0.950 . S
C1061 C1057 1.385 . S
C1061 C1060 1.374 . S
C1062 C1059 1.499 . S
C1062 C1063 1.373 . S
C1062 C1064 1.389 . S
C1063 H1042 0.950 . S
C1063 C1062 1.373 . S
C1063 C1079 1.377 . S
C1064 C1062 1.389 . S
C1064 C1065 1.524 . S
C1064 C1078 1.377 . S
C1065 C1064 1.524 . S
C1065 C1066 1.397 . S
C1065 C1070 1.363 . S
C1066 H1043 0.950 . S
C1066 C1065 1.397 . S
C1066 C1067 1.334 . S
C1067 H1044 0.950 . S
C1067 C1066 1.334 . S
C1067 C1068 1.287 . S
C1068 C1067 1.287 . S
C1068 C1069 1.524 . S
C1068 H1087 0.913 . S
C1069 H1045 0.950 . S
C1069 C1068 1.524 . S
C1069 C1070 1.415 . S
C1070 H1046 0.950 . S
C1070 C1065 1.363 . S
C1070 C1069 1.415 . S
C1071 H1047 0.951 . S
C1071 C1072 1.366 . S
C1071 C1073 1.388 . S
C1072 C1071 1.366 . S
C1072 C1076 1.385 . S
C1073 H1048 0.951 . S
C1073 C1071 1.388 . S
C1073 C1074 1.366 . S
C1074 C1073 1.366 . S
C1074 C1075 1.414 . S
C1074 C1077 1.499 . S
C1075 H1049 0.950 . S
C1075 C1074 1.414 . S
C1075 C1076 1.374 . S
C1076 H1050 0.950 . S
C1076 C1072 1.385 . S
C1076 C1075 1.374 . S
C1077 C1074 1.499 . S
C1077 C1078 1.373 . S
C1077 C1079 1.389 . S
C1078 H1051 0.950 . S
C1078 C1064 1.377 . S
C1078 C1077 1.373 . S
C1079 C1063 1.377 . S
C1079 C1077 1.389 . S
C1079 C1080 1.524 . S
C1080 C1079 1.524 . S
C1080 C1081 1.397 . S
C1080 C1085 1.363 . S
C1081 H1052 0.950 . S
C1081 C1080 1.397 . S
C1081 C1082 1.334 . S
C1082 H1053 0.950 1_655 S
C1082 C1081 1.334 . S
C1082 C1083 1.287 1_655 S
C1083 C1082 1.287 1_455 S
C1083 C1084 1.524 1_455 S
C1083 H1086 0.999 . S
C1084 H1054 0.950 . S
C1084 C1083 1.524 1_655 S
C1084 C1085 1.415 . S
C1085 H1055 0.950 . S
C1085 C1080 1.363 . S
C1085 C1084 1.415 . S
H1086 C1083 0.999 . S
H1087 C1068 0.913 . S
H1088 C1106 0.951 . S
H1089 C1108 0.951 1_556 S
H1090 C1110 0.950 . S
H1091 C1111 0.950 . S
H1092 C1113 0.950 . S
H1093 C1116 0.950 . S
H1094 C1117 0.950 . S
H1095 C1119 0.950 . S
H1096 C1120 0.950 . S
H1097 C1121 0.951 . S
H1098 C1123 0.951 . S
H1099 C1125 0.950 . S
H1100 C1126 0.950 . S
H1101 C1128 0.950 . S
H1102 C1131 0.950 . S
H1103 C1132 0.950 . S
H1104 C1134 0.950 . S
H1105 C1135 0.950 . S
C1106 H1088 0.951 . S
C1106 C1107 1.366 . S
C1106 C1108 1.388 . S
C1107 C1106 1.366 . S
C1107 C1111 1.385 . S
C1108 H1089 0.951 1_554 S
C1108 C1106 1.388 . S
C1108 C1109 1.366 . S
C1109 C1108 1.366 . S
C1109 C1110 1.414 . S
C1109 C1112 1.499 1_554 S
C1110 H1090 0.950 . S
C1110 C1109 1.414 . S
C1110 C1111 1.374 . S
C1111 H1091 0.950 . S
C1111 C1107 1.385 . S
C1111 C1110 1.374 . S
C1112 C1109 1.499 1_556 S
C1112 C1113 1.373 . S
C1112 C1114 1.389 . S
C1113 H1092 0.950 . S
C1113 C1112 1.373 . S
C1113 C1129 1.377 . S
C1114 C1112 1.389 . S
C1114 C1115 1.524 . S
C1114 C1128 1.377 . S
C1115 C1114 1.524 . S
C1115 C1116 1.397 . S
C1115 C1120 1.363 . S
C1116 H1093 0.950 . S
C1116 C1115 1.397 . S
C1116 C1117 1.334 . S
C1117 H1094 0.950 . S
C1117 C1116 1.334 . S
C1117 C1118 1.287 . S
C1118 C1117 1.287 . S
C1118 C1119 1.524 . S
C1118 H1137 0.913 . S
C1119 H1095 0.950 . S
C1119 C1118 1.524 . S
C1119 C1120 1.415 . S
C1120 H1096 0.950 . S
C1120 C1115 1.363 . S
C1120 C1119 1.415 . S
C1121 H1097 0.951 . S
C1121 C1122 1.366 . S
C1121 C1123 1.388 . S
C1122 C1121 1.366 . S
C1122 C1126 1.385 . S
C1123 H1098 0.951 . S
C1123 C1121 1.388 . S
C1123 C1124 1.366 . S
C1124 C1123 1.366 . S
C1124 C1125 1.414 . S
C1124 C1127 1.499 . S
C1125 H1099 0.950 . S
C1125 C1124 1.414 . S
C1125 C1126 1.374 . S
C1126 H1100 0.950 . S
C1126 C1122 1.385 . S
C1126 C1125 1.374 . S
C1127 C1124 1.499 . S
C1127 C1128 1.373 . S
C1127 C1129 1.389 . S
C1128 H1101 0.950 . S
C1128 C1114 1.377 . S
C1128 C1127 1.373 . S
C1129 C1113 1.377 . S
C1129 C1127 1.389 . S
C1129 C1130 1.524 . S
C1130 C1129 1.524 . S
C1130 C1131 1.397 . S
C1130 C1135 1.363 . S
C1131 H1102 0.950 . S
C1131 C1130 1.397 . S
C1131 C1132 1.334 . S
C1132 H1103 0.950 . S
C1132 C1131 1.334 . S
C1132 C1133 1.287 . S
C1133 C1132 1.287 . S
C1133 C1134 1.524 . S
C1133 H1136 0.999 . S
C1134 H1104 0.950 . S
C1134 C1133 1.524 . S
C1134 C1135 1.415 . S
C1135 H1105 0.950 . S
C1135 C1130 1.363 . S
C1135 C1134 1.415 . S
H1136 C1133 0.999 . S
H1137 C1118 0.913 . S
H1138 C1156 0.951 . S
H1139 C1158 0.951 . S
H1140 C1160 0.950 . S
H1141 C1161 0.950 . S
H1142 C1163 0.950 . S
H1143 C1166 0.950 . S
H1144 C1167 0.950 . S
H1145 C1169 0.950 . S
H1146 C1170 0.950 . S
H1147 C1171 0.951 . S
H1148 C1173 0.951 . S
H1149 C1175 0.950 . S
H1150 C1176 0.950 . S
H1151 C1178 0.950 . S
H1152 C1181 0.950 . S
H1153 C1182 0.950 . S
H1154 C1184 0.950 . S
H1155 C1185 0.950 . S
C1156 H1138 0.951 . S
C1156 C1157 1.366 . S
C1156 C1158 1.388 . S
C1157 C1156 1.366 . S
C1157 C1161 1.385 . S
C1158 H1139 0.951 . S
C1158 C1156 1.388 . S
C1158 C1159 1.366 . S
C1159 C1158 1.366 . S
C1159 C1160 1.414 . S
C1159 C1162 1.499 . S
C1160 H1140 0.950 . S
C1160 C1159 1.414 . S
C1160 C1161 1.374 . S
C1161 H1141 0.950 . S
C1161 C1157 1.385 . S
C1161 C1160 1.374 . S
C1162 C1159 1.499 . S
C1162 C1163 1.373 . S
C1162 C1164 1.389 . S
C1163 H1142 0.950 . S
C1163 C1162 1.373 . S
C1163 C1179 1.377 . S
C1164 C1162 1.389 . S
C1164 C1165 1.524 . S
C1164 C1178 1.377 . S
C1165 C1164 1.524 . S
C1165 C1166 1.397 . S
C1165 C1170 1.363 . S
C1166 H1143 0.950 . S
C1166 C1165 1.397 . S
C1166 C1167 1.334 . S
C1167 H1144 0.950 . S
C1167 C1166 1.334 . S
C1167 C1168 1.287 . S
C1168 C1167 1.287 . S
C1168 C1169 1.524 . S
C1168 H1187 0.913 . S
C1169 H1145 0.950 . S
C1169 C1168 1.524 . S
C1169 C1170 1.415 . S
C1170 H1146 0.950 . S
C1170 C1165 1.363 . S
C1170 C1169 1.415 . S
C1171 H1147 0.951 . S
C1171 C1172 1.366 . S
C1171 C1173 1.388 . S
C1172 C1171 1.366 . S
C1172 C1176 1.385 . S
C1173 H1148 0.951 . S
C1173 C1171 1.388 . S
C1173 C1174 1.366 . S
C1174 C1173 1.366 . S
C1174 C1175 1.414 . S
C1174 C1177 1.499 . S
C1175 H1149 0.950 . S
C1175 C1174 1.414 . S
C1175 C1176 1.374 . S
C1176 H1150 0.950 . S
C1176 C1172 1.385 . S
C1176 C1175 1.374 . S
C1177 C1174 1.499 . S
C1177 C1178 1.373 . S
C1177 C1179 1.389 . S
C1178 H1151 0.950 . S
C1178 C1164 1.377 . S
C1178 C1177 1.373 . S
C1179 C1163 1.377 . S
C1179 C1177 1.389 . S
C1179 C1180 1.524 . S
C1180 C1179 1.524 . S
C1180 C1181 1.397 . S
C1180 C1185 1.363 . S
C1181 H1152 0.950 . S
C1181 C1180 1.397 . S
C1181 C1182 1.334 . S
C1182 H1153 0.950 . S
C1182 C1181 1.334 . S
C1182 C1183 1.287 . S
C1183 C1182 1.287 . S
C1183 C1184 1.524 . S
C1183 H1186 0.999 . S
C1184 H1154 0.950 . S
C1184 C1183 1.524 . S
C1184 C1185 1.415 . S
C1185 H1155 0.950 . S
C1185 C1180 1.363 . S
C1185 C1184 1.415 . S
H1186 C1183 0.999 . S
H1187 C1168 0.913 . S
H1188 C1206 0.951 . S
H1189 C1208 0.951 1_554 S
H1190 C1210 0.950 . S
H1191 C1211 0.950 . S
H1192 C1213 0.950 . S
H1193 C1216 0.950 1_556 S
H1194 C1217 0.959 . S
H1195 C1219 0.950 . S
H1196 C1220 0.950 . S
H1197 C1221 0.951 . S
H1198 C1223 0.951 . S
H1199 C1225 0.950 . S
H1200 C1226 0.950 . S
H1201 C1228 0.950 . S
H1202 C1231 0.950 . S
H1203 C1232 0.950 . S
H1204 C1234 0.950 . S
H1205 C1235 0.950 . S
C1206 H1188 0.951 . S
C1206 C1207 1.366 . S
C1206 C1208 1.388 . S
C1207 C1206 1.366 . S
C1207 C1211 1.385 . S
C1208 H1189 0.951 1_556 S
C1208 C1206 1.388 . S
C1208 C1209 1.366 . S
C1209 C1208 1.366 . S
C1209 C1210 1.414 . S
C1209 C1212 1.499 1_556 S
C1210 H1190 0.950 . S
C1210 C1209 1.414 . S
C1210 C1211 1.374 . S
C1211 H1191 0.950 . S
C1211 C1207 1.385 . S
C1211 C1210 1.374 . S
C1212 C1209 1.499 1_554 S
C1212 C1213 1.373 . S
C1212 C1214 1.389 . S
C1213 H1192 0.950 . S
C1213 C1212 1.373 . S
C1213 C1229 1.377 . S
C1214 C1212 1.389 . S
C1214 C1215 1.524 . S
C1214 C1228 1.377 . S
C1215 C1214 1.524 . S
C1215 C1216 1.397 . S
C1215 C1220 1.363 . S
C1216 H1193 0.950 1_554 S
C1216 C1215 1.397 . S
C1216 C1217 1.331 1_554 S
C1217 H1194 0.959 . S
C1217 C1216 1.331 1_556 S
C1217 C1218 1.281 1_556 S
C1218 C1217 1.281 1_554 S
C1218 C1219 1.524 . S
C1218 H1237 0.913 . S
C1219 H1195 0.950 . S
C1219 C1218 1.524 . S
C1219 C1220 1.415 . S
C1220 H1196 0.950 . S
C1220 C1215 1.363 . S
C1220 C1219 1.415 . S
C1221 H1197 0.951 . S
C1221 C1222 1.366 . S
C1221 C1223 1.388 . S
C1222 C1221 1.366 . S
C1222 C1226 1.385 . S
C1223 H1198 0.951 . S
C1223 C1221 1.388 . S
C1223 C1224 1.366 . S
C1224 C1223 1.366 . S
C1224 C1225 1.414 . S
C1224 C1227 1.499 . S
C1225 H1199 0.950 . S
C1225 C1224 1.414 . S
C1225 C1226 1.374 . S
C1226 H1200 0.950 . S
C1226 C1222 1.385 . S
C1226 C1225 1.374 . S
C1227 C1224 1.499 . S
C1227 C1228 1.373 . S
C1227 C1229 1.389 . S
C1228 H1201 0.950 . S
C1228 C1214 1.377 . S
C1228 C1227 1.373 . S
C1229 C1213 1.377 . S
C1229 C1227 1.389 . S
C1229 C1230 1.524 . S
C1230 C1229 1.524 . S
C1230 C1231 1.397 . S
C1230 C1235 1.363 . S
C1231 H1202 0.950 . S
C1231 C1230 1.397 . S
C1231 C1232 1.334 . S
C1232 H1203 0.950 . S
C1232 C1231 1.334 . S
C1232 C1233 1.287 . S
C1233 C1232 1.287 . S
C1233 C1234 1.524 . S
C1233 H1236 0.999 . S
C1234 H1204 0.950 . S
C1234 C1233 1.524 . S
C1234 C1235 1.415 . S
C1235 H1205 0.950 . S
C1235 C1230 1.363 . S
C1235 C1234 1.415 . S
H1236 C1233 0.999 . S
H1237 C1218 0.913 . S
H1238 C1256 0.951 . S
H1239 C1258 0.951 . S
H1240 C1260 0.950 . S
H1241 C1261 0.950 . S
H1242 C1263 0.950 . S
H1243 C1266 0.950 . S
H1244 C1267 0.950 . S
H1245 C1269 0.950 . S
H1246 C1270 0.950 . S
H1247 C1271 0.951 . S
H1248 C1273 0.951 . S
H1249 C1275 0.950 . S
H1250 C1276 0.950 . S
H1251 C1278 0.950 . S
H1252 C1281 0.950 . S
H1253 C1282 0.950 . S
H1254 C1284 0.950 . S
H1255 C1285 0.950 . S
C1256 H1238 0.951 . S
C1256 C1257 1.366 . S
C1256 C1258 1.388 . S
C1257 C1256 1.366 . S
C1257 C1261 1.385 . S
C1258 H1239 0.951 . S
C1258 C1256 1.388 . S
C1258 C1259 1.366 . S
C1259 C1258 1.366 . S
C1259 C1260 1.414 . S
C1259 C1262 1.499 . S
C1260 H1240 0.950 . S
C1260 C1259 1.414 . S
C1260 C1261 1.374 . S
C1261 H1241 0.950 . S
C1261 C1257 1.385 . S
C1261 C1260 1.374 . S
C1262 C1259 1.499 . S
C1262 C1263 1.373 . S
C1262 C1264 1.389 . S
C1263 H1242 0.950 . S
C1263 C1262 1.373 . S
C1263 C1279 1.377 . S
C1264 C1262 1.389 . S
C1264 C1265 1.524 . S
C1264 C1278 1.377 . S
C1265 C1264 1.524 . S
C1265 C1266 1.397 . S
C1265 C1270 1.363 . S
C1266 H1243 0.950 . S
C1266 C1265 1.397 . S
C1266 C1267 1.334 . S
C1267 H1244 0.950 . S
C1267 C1266 1.334 . S
C1267 C1268 1.287 . S
C1268 C1267 1.287 . S
C1268 C1269 1.524 . S
C1268 H1287 0.913 . S
C1269 H1245 0.950 . S
C1269 C1268 1.524 . S
C1269 C1270 1.415 . S
C1270 H1246 0.950 . S
C1270 C1265 1.363 . S
C1270 C1269 1.415 . S
C1271 H1247 0.951 . S
C1271 C1272 1.366 . S
C1271 C1273 1.388 . S
C1272 C1271 1.366 . S
C1272 C1276 1.385 . S
C1273 H1248 0.951 . S
C1273 C1271 1.388 . S
C1273 C1274 1.366 . S
C1274 C1273 1.366 . S
C1274 C1275 1.414 . S
C1274 C1277 1.499 . S
C1275 H1249 0.950 . S
C1275 C1274 1.414 . S
C1275 C1276 1.374 . S
C1276 H1250 0.950 . S
C1276 C1272 1.385 . S
C1276 C1275 1.374 . S
C1277 C1274 1.499 . S
C1277 C1278 1.373 . S
C1277 C1279 1.389 . S
C1278 H1251 0.950 . S
C1278 C1264 1.377 . S
C1278 C1277 1.373 . S
C1279 C1263 1.377 . S
C1279 C1277 1.389 . S
C1279 C1280 1.524 . S
C1280 C1279 1.524 . S
C1280 C1281 1.397 . S
C1280 C1285 1.363 . S
C1281 H1252 0.950 . S
C1281 C1280 1.397 . S
C1281 C1282 1.334 . S
C1282 H1253 0.950 . S
C1282 C1281 1.334 . S
C1282 C1283 1.287 . S
C1283 C1282 1.287 . S
C1283 C1284 1.524 . S
C1283 H1286 0.999 . S
C1284 H1254 0.950 . S
C1284 C1283 1.524 . S
C1284 C1285 1.415 . S
C1285 H1255 0.950 . S
C1285 C1280 1.363 . S
C1285 C1284 1.415 . S
H1286 C1283 0.999 . S
H1287 C1268 0.913 . S
H1288 C1306 0.951 . S
H1289 C1308 0.951 . S
H1290 C1310 0.950 . S
H1291 C1311 0.950 . S
H1292 C1313 0.950 . S
H1293 C1316 0.950 . S
H1294 C1317 0.950 . S
H1295 C1319 0.950 . S
H1296 C1320 0.950 . S
H1297 C1321 0.951 . S
H1298 C1323 0.951 . S
H1299 C1325 0.950 . S
H1300 C1326 0.950 . S
H1301 C1328 0.950 . S
H1302 C1331 0.950 . S
H1303 C1332 0.950 . S
H1304 C1334 0.950 . S
H1305 C1335 0.950 . S
C1306 H1288 0.951 . S
C1306 C1307 1.366 . S
C1306 C1308 1.388 . S
C1307 C1306 1.366 . S
C1307 C1311 1.385 . S
C1308 H1289 0.951 . S
C1308 C1306 1.388 . S
C1308 C1309 1.366 . S
C1309 C1308 1.366 . S
C1309 C1310 1.414 . S
C1309 C1312 1.499 . S
C1310 H1290 0.950 . S
C1310 C1309 1.414 . S
C1310 C1311 1.374 . S
C1311 H1291 0.950 . S
C1311 C1307 1.385 . S
C1311 C1310 1.374 . S
C1312 C1309 1.499 . S
C1312 C1313 1.373 . S
C1312 C1314 1.389 . S
C1313 H1292 0.950 . S
C1313 C1312 1.373 . S
C1313 C1329 1.377 . S
C1314 C1312 1.389 . S
C1314 C1315 1.524 . S
C1314 C1328 1.377 . S
C1315 C1314 1.524 . S
C1315 C1316 1.397 . S
C1315 C1320 1.363 . S
C1316 H1293 0.950 . S
C1316 C1315 1.397 . S
C1316 C1317 1.334 . S
C1317 H1294 0.950 . S
C1317 C1316 1.334 . S
C1317 C1318 1.287 . S
C1318 C1317 1.287 . S
C1318 C1319 1.524 . S
C1318 H1337 0.913 . S
C1319 H1295 0.950 . S
C1319 C1318 1.524 . S
C1319 C1320 1.415 . S
C1320 H1296 0.950 . S
C1320 C1315 1.363 . S
C1320 C1319 1.415 . S
C1321 H1297 0.951 . S
C1321 C1322 1.366 . S
C1321 C1323 1.388 . S
C1322 C1321 1.366 . S
C1322 C1326 1.385 . S
C1323 H1298 0.951 . S
C1323 C1321 1.388 . S
C1323 C1324 1.366 . S
C1324 C1323 1.366 . S
C1324 C1325 1.414 . S
C1324 C1327 1.499 . S
C1325 H1299 0.950 . S
C1325 C1324 1.414 . S
C1325 C1326 1.374 . S
C1326 H1300 0.950 . S
C1326 C1322 1.385 . S
C1326 C1325 1.374 . S
C1327 C1324 1.499 . S
C1327 C1328 1.373 . S
C1327 C1329 1.389 . S
C1328 H1301 0.950 . S
C1328 C1314 1.377 . S
C1328 C1327 1.373 . S
C1329 C1313 1.377 . S
C1329 C1327 1.389 . S
C1329 C1330 1.524 . S
C1330 C1329 1.524 . S
C1330 C1331 1.397 . S
C1330 C1335 1.363 . S
C1331 H1302 0.950 . S
C1331 C1330 1.397 . S
C1331 C1332 1.334 1_455 S
C1332 H1303 0.950 . S
C1332 C1331 1.334 1_655 S
C1332 C1333 1.287 . S
C1333 C1332 1.287 . S
C1333 C1334 1.524 . S
C1333 H1336 0.999 . S
C1334 H1304 0.950 . S
C1334 C1333 1.524 . S
C1334 C1335 1.415 1_655 S
C1335 H1305 0.950 . S
C1335 C1330 1.363 . S
C1335 C1334 1.415 1_455 S
H1336 C1333 0.999 . S
H1337 C1318 0.913 . S
H1338 C1356 0.951 . S
H1339 C1358 0.951 . S
H1340 C1360 0.950 . S
H1341 C1361 0.950 . S
H1342 C1363 0.950 . S
H1343 C1366 0.950 . S
H1344 C1367 0.950 . S
H1345 C1369 0.950 . S
H1346 C1370 0.950 . S
H1347 C1371 0.951 . S
H1348 C1373 0.951 . S
H1349 C1375 0.950 . S
H1350 C1376 0.950 . S
H1351 C1378 0.950 . S
H1352 C1381 0.950 . S
H1353 C1382 0.950 . S
H1354 C1384 0.950 . S
H1355 C1385 0.950 . S
C1356 H1338 0.951 . S
C1356 C1357 1.366 . S
C1356 C1358 1.388 . S
C1357 C1356 1.366 . S
C1357 C1361 1.385 . S
C1358 H1339 0.951 . S
C1358 C1356 1.388 . S
C1358 C1359 1.366 . S
C1359 C1358 1.366 . S
C1359 C1360 1.414 . S
C1359 C1362 1.499 . S
C1360 H1340 0.950 . S
C1360 C1359 1.414 . S
C1360 C1361 1.374 . S
C1361 H1341 0.950 . S
C1361 C1357 1.385 . S
C1361 C1360 1.374 . S
C1362 C1359 1.499 . S
C1362 C1363 1.373 . S
C1362 C1364 1.389 . S
C1363 H1342 0.950 . S
C1363 C1362 1.373 . S
C1363 C1379 1.377 . S
C1364 C1362 1.389 . S
C1364 C1365 1.524 . S
C1364 C1378 1.377 . S
C1365 C1364 1.524 . S
C1365 C1366 1.397 . S
C1365 C1370 1.363 . S
C1366 H1343 0.950 . S
C1366 C1365 1.397 . S
C1366 C1367 1.334 . S
C1367 H1344 0.950 . S
C1367 C1366 1.334 . S
C1367 C1368 1.287 . S
C1368 C1367 1.287 . S
C1368 C1369 1.524 . S
C1368 H1387 0.913 . S
C1369 H1345 0.950 . S
C1369 C1368 1.524 . S
C1369 C1370 1.415 . S
C1370 H1346 0.950 . S
C1370 C1365 1.363 . S
C1370 C1369 1.415 . S
C1371 H1347 0.951 . S
C1371 C1372 1.366 . S
C1371 C1373 1.388 . S
C1372 C1371 1.366 . S
C1372 C1376 1.385 . S
C1373 H1348 0.951 . S
C1373 C1371 1.388 . S
C1373 C1374 1.366 . S
C1374 C1373 1.366 . S
C1374 C1375 1.414 . S
C1374 C1377 1.499 . S
C1375 H1349 0.950 . S
C1375 C1374 1.414 . S
C1375 C1376 1.374 . S
C1376 H1350 0.950 . S
C1376 C1372 1.385 . S
C1376 C1375 1.374 . S
C1377 C1374 1.499 . S
C1377 C1378 1.373 . S
C1377 C1379 1.389 . S
C1378 H1351 0.950 . S
C1378 C1364 1.377 . S
C1378 C1377 1.373 . S
C1379 C1363 1.377 . S
C1379 C1377 1.389 . S
C1379 C1380 1.524 . S
C1380 C1379 1.524 . S
C1380 C1381 1.397 . S
C1380 C1385 1.363 . S
C1381 H1352 0.950 . S
C1381 C1380 1.397 . S
C1381 C1382 1.334 . S
C1382 H1353 0.950 . S
C1382 C1381 1.334 . S
C1382 C1383 1.287 . S
C1383 C1382 1.287 . S
C1383 C1384 1.524 . S
C1383 H1386 0.999 . S
C1384 H1354 0.950 . S
C1384 C1383 1.524 . S
C1384 C1385 1.415 . S
C1385 H1355 0.950 . S
C1385 C1380 1.363 . S
C1385 C1384 1.415 . S
H1386 C1383 0.999 . S
H1387 C1368 0.913 . S
H1388 C1406 0.951 . S
H1389 C1408 0.951 . S
H1390 C1410 0.950 . S
H1391 C1411 0.950 . S
H1392 C1413 0.950 . S
H1393 C1416 0.950 . S
H1394 C1417 0.950 . S
H1395 C1419 0.950 . S
H1396 C1420 0.950 . S
H1397 C1421 0.951 . S
H1398 C1423 0.951 . S
H1399 C1425 0.950 . S
H1400 C1426 0.950 . S
H1401 C1428 0.950 . S
H1402 C1431 0.950 . S
H1403 C1432 0.950 . S
H1404 C1434 0.950 . S
H1405 C1435 0.950 . S
C1406 H1388 0.951 . S
C1406 C1407 1.366 . S
C1406 C1408 1.388 . S
C1407 C1406 1.366 . S
C1407 C1411 1.385 . S
C1408 H1389 0.951 . S
C1408 C1406 1.388 . S
C1408 C1409 1.366 . S
C1409 C1408 1.366 . S
C1409 C1410 1.414 . S
C1409 C1412 1.499 . S
C1410 H1390 0.950 . S
C1410 C1409 1.414 . S
C1410 C1411 1.374 . S
C1411 H1391 0.950 . S
C1411 C1407 1.385 . S
C1411 C1410 1.374 . S
C1412 C1409 1.499 . S
C1412 C1413 1.373 . S
C1412 C1414 1.389 . S
C1413 H1392 0.950 . S
C1413 C1412 1.373 . S
C1413 C1429 1.377 . S
C1414 C1412 1.389 . S
C1414 C1415 1.524 . S
C1414 C1428 1.377 . S
C1415 C1414 1.524 . S
C1415 C1416 1.397 . S
C1415 C1420 1.363 . S
C1416 H1393 0.950 . S
C1416 C1415 1.397 . S
C1416 C1417 1.334 . S
C1417 H1394 0.950 . S
C1417 C1416 1.334 . S
C1417 C1418 1.287 . S
C1418 C1417 1.287 . S
C1418 C1419 1.524 . S
C1418 H1437 0.913 . S
C1419 H1395 0.950 . S
C1419 C1418 1.524 . S
C1419 C1420 1.415 . S
C1420 H1396 0.950 . S
C1420 C1415 1.363 . S
C1420 C1419 1.415 . S
C1421 H1397 0.951 . S
C1421 C1422 1.366 . S
C1421 C1423 1.388 . S
C1422 C1421 1.366 . S
C1422 C1426 1.385 . S
C1423 H1398 0.951 . S
C1423 C1421 1.388 . S
C1423 C1424 1.366 . S
C1424 C1423 1.366 . S
C1424 C1425 1.414 . S
C1424 C1427 1.499 . S
C1425 H1399 0.950 . S
C1425 C1424 1.414 . S
C1425 C1426 1.374 . S
C1426 H1400 0.950 . S
C1426 C1422 1.385 . S
C1426 C1425 1.374 . S
C1427 C1424 1.499 . S
C1427 C1428 1.373 . S
C1427 C1429 1.389 . S
C1428 H1401 0.950 . S
C1428 C1414 1.377 . S
C1428 C1427 1.373 . S
C1429 C1413 1.377 . S
C1429 C1427 1.389 . S
C1429 C1430 1.524 . S
C1430 C1429 1.524 . S
C1430 C1431 1.397 . S
C1430 C1435 1.363 . S
C1431 H1402 0.950 . S
C1431 C1430 1.397 . S
C1431 C1432 1.334 . S
C1432 H1403 0.950 . S
C1432 C1431 1.334 . S
C1432 C1433 1.287 . S
C1433 C1432 1.287 . S
C1433 C1434 1.524 . S
C1433 H1436 0.999 . S
C1434 H1404 0.950 . S
C1434 C1433 1.524 . S
C1434 C1435 1.415 . S
C1435 H1405 0.950 . S
C1435 C1430 1.363 . S
C1435 C1434 1.415 . S
H1436 C1433 0.999 . S
H1437 C1418 0.913 . S
H1438 C1456 0.951 . S
H1439 C1458 0.951 . S
H1440 C1460 0.950 . S
H1441 C1461 0.950 . S
H1442 C1463 0.950 . S
H1443 C1466 0.950 . S
H1444 C1467 0.950 . S
H1445 C1469 0.950 . S
H1446 C1470 0.950 . S
H1447 C1471 0.951 . S
H1448 C1473 0.951 . S
H1449 C1475 0.950 . S
H1450 C1476 0.950 . S
H1451 C1478 0.950 . S
H1452 C1481 0.950 . S
H1453 C1482 0.950 . S
H1454 C1484 0.950 . S
H1455 C1485 0.950 . S
C1456 H1438 0.951 . S
C1456 C1457 1.366 . S
C1456 C1458 1.388 . S
C1457 C1456 1.366 . S
C1457 C1461 1.385 . S
C1458 H1439 0.951 . S
C1458 C1456 1.388 . S
C1458 C1459 1.366 . S
C1459 C1458 1.366 . S
C1459 C1460 1.414 . S
C1459 C1462 1.499 . S
C1460 H1440 0.950 . S
C1460 C1459 1.414 . S
C1460 C1461 1.374 . S
C1461 H1441 0.950 . S
C1461 C1457 1.385 . S
C1461 C1460 1.374 . S
C1462 C1459 1.499 . S
C1462 C1463 1.373 . S
C1462 C1464 1.389 . S
C1463 H1442 0.950 . S
C1463 C1462 1.373 . S
C1463 C1479 1.377 . S
C1464 C1462 1.389 . S
C1464 C1465 1.524 . S
C1464 C1478 1.377 . S
C1465 C1464 1.524 . S
C1465 C1466 1.397 . S
C1465 C1470 1.363 . S
C1466 H1443 0.950 . S
C1466 C1465 1.397 . S
C1466 C1467 1.334 . S
C1467 H1444 0.950 . S
C1467 C1466 1.334 . S
C1467 C1468 1.287 . S
C1468 C1467 1.287 . S
C1468 C1469 1.524 . S
C1468 H1487 0.913 . S
C1469 H1445 0.950 . S
C1469 C1468 1.524 . S
C1469 C1470 1.415 . S
C1470 H1446 0.950 . S
C1470 C1465 1.363 . S
C1470 C1469 1.415 . S
C1471 H1447 0.951 . S
C1471 C1472 1.366 . S
C1471 C1473 1.388 . S
C1472 C1471 1.366 . S
C1472 C1476 1.385 . S
C1473 H1448 0.951 . S
C1473 C1471 1.388 . S
C1473 C1474 1.366 . S
C1474 C1473 1.366 . S
C1474 C1475 1.414 . S
C1474 C1477 1.499 . S
C1475 H1449 0.950 . S
C1475 C1474 1.414 . S
C1475 C1476 1.374 . S
C1476 H1450 0.950 . S
C1476 C1472 1.385 . S
C1476 C1475 1.374 . S
C1477 C1474 1.499 . S
C1477 C1478 1.373 . S
C1477 C1479 1.389 . S
C1478 H1451 0.950 . S
C1478 C1464 1.377 . S
C1478 C1477 1.373 . S
C1479 C1463 1.377 . S
C1479 C1477 1.389 . S
C1479 C1480 1.524 . S
C1480 C1479 1.524 . S
C1480 C1481 1.397 . S
C1480 C1485 1.363 . S
C1481 H1452 0.950 . S
C1481 C1480 1.397 . S
C1481 C1482 1.334 . S
C1482 H1453 0.950 . S
C1482 C1481 1.334 . S
C1482 C1483 1.287 . S
C1483 C1482 1.287 . S
C1483 C1484 1.524 . S
C1483 H1486 0.999 . S
C1484 H1454 0.950 . S
C1484 C1483 1.524 . S
C1484 C1485 1.415 . S
C1485 H1455 0.950 . S
C1485 C1480 1.363 . S
C1485 C1484 1.415 . S
H1486 C1483 0.999 . S
H1487 C1468 0.913 . S
H1488 C1506 0.951 . S
H1489 C1508 0.951 . S
H1490 C1510 0.950 . S
H1491 C1511 0.950 . S
H1492 C1513 0.950 . S
H1493 C1516 0.950 . S
H1494 C1517 0.950 . S
H1495 C1519 0.950 . S
H1496 C1520 0.950 . S
H1497 C1521 0.951 . S
H1498 C1523 0.951 . S
H1499 C1525 0.950 . S
H1500 C1526 0.927 1_455 S
H1501 C1528 0.950 . S
H1502 C1531 0.950 . S
H1503 C1532 0.950 . S
H1504 C1534 0.950 . S
H1505 C1535 0.950 . S
C1506 H1488 0.951 . S
C1506 C1507 1.366 . S
C1506 C1508 1.388 . S
C1507 C1506 1.366 . S
C1507 C1511 1.385 . S
C1508 H1489 0.951 . S
C1508 C1506 1.388 . S
C1508 C1509 1.366 . S
C1509 C1508 1.366 . S
C1509 C1510 1.414 . S
C1509 C1512 1.499 . S
C1510 H1490 0.950 . S
C1510 C1509 1.414 . S
C1510 C1511 1.374 . S
C1511 H1491 0.950 . S
C1511 C1507 1.385 . S
C1511 C1510 1.374 . S
C1512 C1509 1.499 . S
C1512 C1513 1.373 . S
C1512 C1514 1.389 . S
C1513 H1492 0.950 . S
C1513 C1512 1.373 . S
C1513 C1529 1.377 . S
C1514 C1512 1.389 . S
C1514 C1515 1.524 . S
C1514 C1528 1.377 . S
C1515 C1514 1.524 . S
C1515 C1516 1.397 . S
C1515 C1520 1.363 . S
C1516 H1493 0.950 . S
C1516 C1515 1.397 . S
C1516 C1517 1.334 . S
C1517 H1494 0.950 . S
C1517 C1516 1.334 . S
C1517 C1518 1.287 . S
C1518 C1517 1.287 . S
C1518 C1519 1.524 . S
C1518 H1537 0.913 . S
C1519 H1495 0.950 . S
C1519 C1518 1.524 . S
C1519 C1520 1.415 . S
C1520 H1496 0.950 . S
C1520 C1515 1.363 . S
C1520 C1519 1.415 . S
C1521 H1497 0.951 . S
C1521 C1522 1.366 . S
C1521 C1523 1.388 . S
C1522 C1521 1.366 . S
C1522 C1526 1.385 . S
C1523 H1498 0.951 . S
C1523 C1521 1.388 . S
C1523 C1524 1.366 . S
C1524 C1523 1.366 . S
C1524 C1525 1.414 . S
C1524 C1527 1.499 . S
C1525 H1499 0.950 . S
C1525 C1524 1.414 . S
C1525 C1526 1.374 . S
C1526 H1500 0.927 1_655 S
C1526 C1522 1.385 . S
C1526 C1525 1.374 . S
C1527 C1524 1.499 . S
C1527 C1528 1.373 . S
C1527 C1529 1.389 . S
C1528 H1501 0.950 . S
C1528 C1514 1.377 . S
C1528 C1527 1.373 . S
C1529 C1513 1.377 . S
C1529 C1527 1.389 . S
C1529 C1530 1.524 . S
C1530 C1529 1.524 . S
C1530 C1531 1.397 . S
C1530 C1535 1.363 . S
C1531 H1502 0.950 . S
C1531 C1530 1.397 . S
C1531 C1532 1.334 . S
C1532 H1503 0.950 . S
C1532 C1531 1.334 . S
C1532 C1533 1.287 . S
C1533 C1532 1.287 . S
C1533 C1534 1.524 . S
C1533 H1536 0.999 . S
C1534 H1504 0.950 . S
C1534 C1533 1.524 . S
C1534 C1535 1.415 . S
C1535 H1505 0.950 . S
C1535 C1530 1.363 . S
C1535 C1534 1.415 . S
H1536 C1533 0.999 . S
H1537 C1518 0.913 . S
H1538 C1556 0.951 . S
H1539 C1558 0.951 . S
H1540 C1560 0.950 . S
H1541 C1561 0.950 . S
H1542 C1563 0.950 . S
H1543 C1566 0.950 . S
H1544 C1567 0.950 . S
H1545 C1569 0.950 . S
H1546 C1570 0.950 . S
H1547 C1571 0.951 . S
H1548 C1573 0.951 . S
H1549 C1575 0.950 . S
H1550 C1576 0.950 . S
H1551 C1578 0.950 . S
H1552 C1581 0.950 . S
H1553 C1582 0.950 . S
H1554 C1584 0.950 . S
H1555 C1585 0.950 . S
C1556 H1538 0.951 . S
C1556 C1557 1.366 . S
C1556 C1558 1.388 . S
C1557 C1556 1.366 . S
C1557 C1561 1.385 . S
C1558 H1539 0.951 . S
C1558 C1556 1.388 . S
C1558 C1559 1.366 . S
C1559 C1558 1.366 . S
C1559 C1560 1.414 . S
C1559 C1562 1.499 . S
C1560 H1540 0.950 . S
C1560 C1559 1.414 . S
C1560 C1561 1.374 . S
C1561 H1541 0.950 . S
C1561 C1557 1.385 . S
C1561 C1560 1.374 . S
C1562 C1559 1.499 . S
C1562 C1563 1.373 . S
C1562 C1564 1.389 . S
C1563 H1542 0.950 . S
C1563 C1562 1.373 . S
C1563 C1579 1.377 . S
C1564 C1562 1.389 . S
C1564 C1565 1.524 . S
C1564 C1578 1.377 . S
C1565 C1564 1.524 . S
C1565 C1566 1.397 . S
C1565 C1570 1.363 . S
C1566 H1543 0.950 . S
C1566 C1565 1.397 . S
C1566 C1567 1.334 . S
C1567 H1544 0.950 . S
C1567 C1566 1.334 . S
C1567 C1568 1.287 . S
C1568 C1567 1.287 . S
C1568 C1569 1.524 . S
C1568 H1587 0.913 . S
C1569 H1545 0.950 . S
C1569 C1568 1.524 . S
C1569 C1570 1.415 . S
C1570 H1546 0.950 . S
C1570 C1565 1.363 . S
C1570 C1569 1.415 . S
C1571 H1547 0.951 . S
C1571 C1572 1.366 . S
C1571 C1573 1.388 . S
C1572 C1571 1.366 . S
C1572 C1576 1.385 . S
C1573 H1548 0.951 . S
C1573 C1571 1.388 . S
C1573 C1574 1.366 . S
C1574 C1573 1.366 . S
C1574 C1575 1.414 . S
C1574 C1577 1.499 . S
C1575 H1549 0.950 . S
C1575 C1574 1.414 . S
C1575 C1576 1.374 . S
C1576 H1550 0.950 . S
C1576 C1572 1.385 . S
C1576 C1575 1.374 . S
C1577 C1574 1.499 . S
C1577 C1578 1.373 . S
C1577 C1579 1.389 . S
C1578 H1551 0.950 . S
C1578 C1564 1.377 . S
C1578 C1577 1.373 . S
C1579 C1563 1.377 . S
C1579 C1577 1.389 . S
C1579 C1580 1.524 . S
C1580 C1579 1.524 . S
C1580 C1581 1.397 . S
C1580 C1585 1.363 . S
C1581 H1552 0.950 . S
C1581 C1580 1.397 . S
C1581 C1582 1.334 . S
C1582 H1553 0.950 . S
C1582 C1581 1.334 . S
C1582 C1583 1.287 . S
C1583 C1582 1.287 . S
C1583 C1584 1.524 . S
C1583 H1586 0.999 . S
C1584 H1554 0.950 . S
C1584 C1583 1.524 . S
C1584 C1585 1.415 . S
C1585 H1555 0.950 . S
C1585 C1580 1.363 . S
C1585 C1584 1.415 . S
H1586 C1583 0.999 . S
H1587 C1568 0.913 . S
H1588 C1606 0.951 . S
H1589 C1608 0.951 . S
H1590 C1610 0.950 . S
H1591 C1611 0.950 . S
H1592 C1613 0.950 . S
H1593 C1616 0.950 . S
H1594 C1617 0.950 . S
H1595 C1619 0.950 . S
H1596 C1620 0.950 . S
H1597 C1621 0.951 . S
H1598 C1623 0.951 . S
H1599 C1625 0.950 . S
H1600 C1626 0.950 . S
H1601 C1628 0.950 . S
H1602 C1631 0.950 . S
H1603 C1632 0.950 . S
H1604 C1634 0.950 . S
H1605 C1635 0.950 . S
C1606 H1588 0.951 . S
C1606 C1607 1.366 . S
C1606 C1608 1.388 . S
C1607 C1606 1.366 . S
C1607 C1611 1.385 . S
C1608 H1589 0.951 . S
C1608 C1606 1.388 . S
C1608 C1609 1.366 . S
C1609 C1608 1.366 . S
C1609 C1610 1.414 . S
C1609 C1612 1.499 . S
C1610 H1590 0.950 . S
C1610 C1609 1.414 . S
C1610 C1611 1.374 . S
C1611 H1591 0.950 . S
C1611 C1607 1.385 . S
C1611 C1610 1.374 . S
C1612 C1609 1.499 . S
C1612 C1613 1.373 . S
C1612 C1614 1.389 . S
C1613 H1592 0.950 . S
C1613 C1612 1.373 . S
C1613 C1629 1.377 . S
C1614 C1612 1.389 . S
C1614 C1615 1.524 . S
C1614 C1628 1.377 . S
C1615 C1614 1.524 . S
C1615 C1616 1.397 . S
C1615 C1620 1.363 . S
C1616 H1593 0.950 . S
C1616 C1615 1.397 . S
C1616 C1617 1.334 . S
C1617 H1594 0.950 . S
C1617 C1616 1.334 . S
C1617 C1618 1.287 . S
C1618 C1617 1.287 . S
C1618 C1619 1.524 . S
C1618 H1637 0.913 . S
C1619 H1595 0.950 . S
C1619 C1618 1.524 . S
C1619 C1620 1.415 . S
C1620 H1596 0.950 . S
C1620 C1615 1.363 . S
C1620 C1619 1.415 . S
C1621 H1597 0.951 . S
C1621 C1622 1.366 . S
C1621 C1623 1.388 . S
C1622 C1621 1.366 . S
C1622 C1626 1.385 . S
C1623 H1598 0.951 . S
C1623 C1621 1.388 . S
C1623 C1624 1.366 . S
C1624 C1623 1.366 . S
C1624 C1625 1.414 . S
C1624 C1627 1.499 . S
C1625 H1599 0.950 . S
C1625 C1624 1.414 . S
C1625 C1626 1.374 . S
C1626 H1600 0.950 . S
C1626 C1622 1.385 . S
C1626 C1625 1.374 . S
C1627 C1624 1.499 . S
C1627 C1628 1.373 . S
C1627 C1629 1.389 . S
C1628 H1601 0.950 . S
C1628 C1614 1.377 . S
C1628 C1627 1.373 . S
C1629 C1613 1.377 . S
C1629 C1627 1.389 . S
C1629 C1630 1.524 . S
C1630 C1629 1.524 . S
C1630 C1631 1.397 . S
C1630 C1635 1.363 . S
C1631 H1602 0.950 . S
C1631 C1630 1.397 . S
C1631 C1632 1.334 . S
C1632 H1603 0.950 . S
C1632 C1631 1.334 . S
C1632 C1633 1.287 . S
C1633 C1632 1.287 . S
C1633 C1634 1.524 . S
C1633 H1636 0.999 . S
C1634 H1604 0.950 . S
C1634 C1633 1.524 . S
C1634 C1635 1.415 . S
C1635 H1605 0.950 . S
C1635 C1630 1.363 . S
C1635 C1634 1.415 . S
H1636 C1633 0.999 . S
H1637 C1618 0.913 . S
H1638 C1656 0.951 . S
H1639 C1658 0.951 . S
H1640 C1660 0.950 . S
H1641 C1661 0.950 . S
H1642 C1663 0.950 . S
H1643 C1666 0.950 . S
H1644 C1667 0.950 . S
H1645 C1669 0.950 . S
H1646 C1670 0.950 . S
H1647 C1671 0.951 . S
H1648 C1673 0.951 . S
H1649 C1675 0.950 . S
H1650 C1676 0.950 . S
H1651 C1678 0.950 . S
H1652 C1681 0.950 . S
H1653 C1682 0.950 1_655 S
H1654 C1684 0.950 . S
H1655 C1685 0.950 . S
C1656 H1638 0.951 . S
C1656 C1657 1.366 . S
C1656 C1658 1.388 . S
C1657 C1656 1.366 . S
C1657 C1661 1.385 . S
C1658 H1639 0.951 . S
C1658 C1656 1.388 . S
C1658 C1659 1.366 . S
C1659 C1658 1.366 . S
C1659 C1660 1.414 . S
C1659 C1662 1.499 . S
C1660 H1640 0.950 . S
C1660 C1659 1.414 . S
C1660 C1661 1.374 . S
C1661 H1641 0.950 . S
C1661 C1657 1.385 . S
C1661 C1660 1.374 . S
C1662 C1659 1.499 . S
C1662 C1663 1.373 . S
C1662 C1664 1.389 . S
C1663 H1642 0.950 . S
C1663 C1662 1.373 . S
C1663 C1679 1.377 . S
C1664 C1662 1.389 . S
C1664 C1665 1.524 . S
C1664 C1678 1.377 . S
C1665 C1664 1.524 . S
C1665 C1666 1.397 . S
C1665 C1670 1.363 . S
C1666 H1643 0.950 . S
C1666 C1665 1.397 . S
C1666 C1667 1.334 . S
C1667 H1644 0.950 . S
C1667 C1666 1.334 . S
C1667 C1668 1.287 . S
C1668 C1667 1.287 . S
C1668 C1669 1.524 . S
C1668 H1687 0.913 . S
C1669 H1645 0.950 . S
C1669 C1668 1.524 . S
C1669 C1670 1.415 . S
C1670 H1646 0.950 . S
C1670 C1665 1.363 . S
C1670 C1669 1.415 . S
C1671 H1647 0.951 . S
C1671 C1672 1.366 . S
C1671 C1673 1.388 . S
C1672 C1671 1.366 . S
C1672 C1676 1.385 . S
C1673 H1648 0.951 . S
C1673 C1671 1.388 . S
C1673 C1674 1.366 . S
C1674 C1673 1.366 . S
C1674 C1675 1.414 . S
C1674 C1677 1.499 . S
C1675 H1649 0.950 . S
C1675 C1674 1.414 . S
C1675 C1676 1.374 . S
C1676 H1650 0.950 . S
C1676 C1672 1.385 . S
C1676 C1675 1.374 . S
C1677 C1674 1.499 . S
C1677 C1678 1.373 . S
C1677 C1679 1.389 . S
C1678 H1651 0.950 . S
C1678 C1664 1.377 . S
C1678 C1677 1.373 . S
C1679 C1663 1.377 . S
C1679 C1677 1.389 . S
C1679 C1680 1.524 . S
C1680 C1679 1.524 . S
C1680 C1681 1.397 . S
C1680 C1685 1.363 . S
C1681 H1652 0.950 . S
C1681 C1680 1.397 . S
C1681 C1682 1.334 . S
C1682 H1653 0.950 1_455 S
C1682 C1681 1.334 . S
C1682 C1683 1.287 . S
C1683 C1682 1.287 . S
C1683 C1684 1.524 . S
C1683 H1686 0.999 1_455 S
C1684 H1654 0.950 . S
C1684 C1683 1.524 . S
C1684 C1685 1.415 . S
C1685 H1655 0.950 . S
C1685 C1680 1.363 . S
C1685 C1684 1.415 . S
H1686 C1683 0.999 1_655 S
H1687 C1668 0.913 . S
C507 C116 1.839 . S
C522 C226 1.828 . S
C572 C310 1.828 . S
C557 C135 1.839 . S
C622 C303 1.839 . S
C607 C78 1.832 . S
C657 C97 1.832 . S
C672 C219 1.839 . S
C722 C383 1.828 . S
C707 C40 1.839 . S
C772 C467 1.828 . S
C757 C59 1.839 . S
C807 C2 1.833 . S
C822 C460 1.839 . S
C857 C21 1.833 . S
C872 C376 1.839 . S
C922 C210 1.595 . S
C907 C25 1.767 . S
C972 C294 1.597 . S
C957 C6 1.767 . S
C1022 C305 1.515 . S
C1007 C63 1.773 . S
C1072 C221 1.515 . S
C1057 C44 1.774 . S
C1122 C389 1.596 . S
C1107 C101 1.764 . S
C1157 C82 1.764 . S
C1172 C473 1.597 . S
C1222 C462 1.515 . S
C1207 C139 1.771 . S
C1257 C120 1.772 . S
C1272 C378 1.515 . S
C1322 C208 1.543 . S
C1307 C11 1.468 . S
C1372 C292 1.543 . S
C1357 C30 1.469 . S
C1407 C49 1.460 . S
C1422 C299 1.508 . S
C1472 C215 1.508 . S
C1457 C68 1.461 . S
C1522 C387 1.543 . S
C1507 C87 1.423 . S
C1557 C106 1.424 . S
C1572 C471 1.543 . S
C1607 C125 1.422 . S
C1622 C478 1.509 . S
C1657 C144 1.421 . S
C1672 C394 1.508 . S
