# Generated by pormake.
# Topology rtl, (3,6)-cn, num edge types: 1
# Building blocks:
#     Node 0, Type 0, BuildingBlock: MIDCAF_clean_linker_0, # of connection points: 3
#     Node 1, Type 0, BuildingBlock: MIDCAF_clean_linker_0, # of connection points: 3
#     Node 2, Type 0, BuildingBlock: MIDCAF_clean_linker_0, # of connection points: 3
#     Node 3, Type 0, BuildingBlock: MIDCAF_clean_linker_0, # of connection points: 3
#     Node 4, Type 1, BuildingBlock: VOLQOD_clean_sbu_1, # of connection points: 6
#     Node 5, Type 1, BuildingBlock: VOLQOD_clean_sbu_1, # of connection points: 6
#     Edge 6, Type (0, 1), BuildingBlock: FUNLAD_clean_linker_1, # of connection points: 2
#     Edge 7, Type (0, 1), BuildingBlock: FUNLAD_clean_linker_1, # of connection points: 2
#     Edge 8, Type (0, 1), BuildingBlock: FUNLAD_clean_linker_1, # of connection points: 2
#     Edge 9, Type (0, 1), BuildingBlock: FUNLAD_clean_linker_1, # of connection points: 2
#     Edge 10, Type (0, 1), BuildingBlock: FUNLAD_clean_linker_1, # of connection points: 2
#     Edge 11, Type (0, 1), BuildingBlock: FUNLAD_clean_linker_1, # of connection points: 2
#     Edge 12, Type (0, 1), BuildingBlock: FUNLAD_clean_linker_1, # of connection points: 2
#     Edge 13, Type (0, 1), BuildingBlock: FUNLAD_clean_linker_1, # of connection points: 2
#     Edge 14, Type (0, 1), BuildingBlock: FUNLAD_clean_linker_1, # of connection points: 2
#     Edge 15, Type (0, 1), BuildingBlock: FUNLAD_clean_linker_1, # of connection points: 2
#     Edge 16, Type (0, 1), BuildingBlock: FUNLAD_clean_linker_1, # of connection points: 2
#     Edge 17, Type (0, 1), BuildingBlock: FUNLAD_clean_linker_1, # of connection points: 2
# Relax obj value: 0.080
# Max RMSD: 0.156
# Mean RMSD: 0.090
data_MOF--net-rtl--node1-VOLQOD_clean_sbu_1--node2-MIDCAF_clean_linker_0--edge1-FUNLAD_clean_linker_1
_symmetry_space_group_name_H-M    P1
_symmetry_Int_Tables_number       1
_symmetry_cell_setting            triclinic
loop_
_symmetry_equiv_pos_as_xyz
'x, y, z'
_cell_length_a     46.050411
_cell_length_b     39.868044
_cell_length_c     29.947616
_cell_angle_alpha  89.762747
_cell_angle_beta   90.269374
_cell_angle_gamma 90.090506
loop_
_atom_site_label
_atom_site_type_symbol
_atom_site_fract_x
_atom_site_fract_y
_atom_site_fract_z
_atom_type_partial_charge
C0 C 0.05204 0.75959 0.1263 0.0
C1 C 0.06567 0.759 0.16826 0.0
C2 C 0.09373 0.74539 0.17211 0.0
C3 C 0.10856 0.73467 0.13416 0.0
H4 H 0.17502 0.66524 0.07576 0.0
H5 H 0.22382 0.64131 0.08209 0.0
H6 H 0.25277 0.70485 0.97404 0.0
H7 H 0.20392 0.72823 0.96688 0.0
H8 H 0.15156 0.74727 0.89635 0.0
H9 H 0.13702 0.77608 0.82791 0.0
H10 H 0.0538 0.79883 0.88648 0.0
H11 H 0.06803 0.76985 0.95437 0.0
H12 H 0.05624 0.75137 0.05612 0.0
H13 H 0.03031 0.76965 0.12258 0.0
H14 H 0.10449 0.74365 0.20425 0.0
H15 H 0.13055 0.72548 0.13808 0.0
N16 N 0.13933 0.71611 0.05367 0.0
N17 N 0.14698 0.72605 0.97733 0.0
N18 N 0.10372 0.74348 0.01083 0.0
C19 C 0.15639 0.71335 0.01698 0.0
C20 C 0.12054 0.74091 0.97387 0.0
C21 C 0.11293 0.73121 0.05084 0.0
C22 C 0.18564 0.69841 0.02063 0.0
C23 C 0.19177 0.67391 0.05319 0.0
C24 C 0.2196 0.66007 0.05663 0.0
C25 C 0.24186 0.67106 0.02812 0.0
C26 C 0.23586 0.69592 0.99618 0.0
C27 C 0.20792 0.70914 0.99199 0.0
C28 C 0.11098 0.7562 0.93103 0.0
C29 C 0.12998 0.75797 0.89445 0.0
C30 C 0.12169 0.7745 0.85519 0.0
C31 C 0.09416 0.78928 0.85131 0.0
C32 C 0.07491 0.787 0.88756 0.0
C33 C 0.08323 0.7706 0.9269 0.0
C34 C 0.0957 0.73753 0.09161 0.0
C35 C 0.06696 0.74923 0.08827 0.0
C36 C 0.55766 0.73973 0.37815 0.0
C37 C 0.57602 0.7373 0.34111 0.0
C38 C 0.60394 0.75163 0.34342 0.0
C39 C 0.61379 0.76637 0.38303 0.0
H40 H 0.67293 0.83578 0.43977 0.0
H41 H 0.7198 0.86348 0.44311 0.0
H42 H 0.72382 0.84589 0.58544 0.0
H43 H 0.67682 0.81772 0.58218 0.0
H44 H 0.61119 0.79668 0.63009 0.0
H45 H 0.59058 0.77042 0.69718 0.0
H46 H 0.55038 0.69437 0.6154 0.0
H47 H 0.57033 0.72045 0.54877 0.0
H48 H 0.55317 0.7544 0.44628 0.0
H49 H 0.53595 0.72923 0.37707 0.0
H50 H 0.61835 0.75108 0.31499 0.0
H51 H 0.63572 0.7762 0.38432 0.0
N52 N 0.63199 0.79689 0.46754 0.0
N53 N 0.63016 0.79415 0.54587 0.0
N54 N 0.59465 0.76711 0.50279 0.0
C55 C 0.64338 0.80528 0.50802 0.0
C56 C 0.60575 0.77504 0.54342 0.0
C57 C 0.60748 0.778 0.46475 0.0
C58 C 0.67098 0.82446 0.51069 0.0
C59 C 0.68357 0.83812 0.47194 0.0
C60 C 0.71044 0.8544 0.47394 0.0
C61 C 0.72536 0.85744 0.51484 0.0
C62 C 0.7127 0.8441 0.55357 0.0
C63 C 0.68573 0.82801 0.55165 0.0
C64 C 0.59254 0.76056 0.58413 0.0
C65 C 0.59789 0.77441 0.62651 0.0
C66 C 0.58608 0.75951 0.6648 0.0
C67 C 0.56947 0.73009 0.66139 0.0
C68 C 0.56368 0.71663 0.61904 0.0
C69 C 0.57494 0.7318 0.58084 0.0
C70 C 0.596 0.7668 0.42105 0.0
C71 C 0.56759 0.75406 0.41781 0.0
C72 C 0.93138 0.20927 0.87697 0.0
C73 C 0.91861 0.21846 0.83592 0.0
C74 C 0.89803 0.24439 0.83526 0.0
C75 C 0.89034 0.26084 0.8746 0.0
H76 H 0.82916 0.32523 0.92596 0.0
H77 H 0.78846 0.36408 0.92734 0.0
H78 H 0.80613 0.38538 0.06611 0.0
H79 H 0.84706 0.34666 0.06487 0.0
H80 H 0.87833 0.28913 0.1208 0.0
H81 H 0.89096 0.26264 0.1917 0.0
H82 H 0.94437 0.19107 0.12185 0.0
H83 H 0.93225 0.21766 0.0515 0.0
H84 H 0.93369 0.21758 0.94731 0.0
H85 H 0.94667 0.18878 0.87934 0.0
H86 H 0.88768 0.25181 0.80419 0.0
H87 H 0.87419 0.28053 0.87276 0.0
N88 N 0.87359 0.29261 0.95731 0.0
N89 N 0.87475 0.29487 0.0355 0.0
N90 N 0.90384 0.25618 0.99782 0.0
C91 C 0.8642 0.30653 0.99598 0.0
C92 C 0.89456 0.26972 0.03678 0.0
C93 C 0.89357 0.26754 0.95791 0.0
C94 C 0.84115 0.33241 0.99548 0.0
C95 C 0.82453 0.33831 0.95673 0.0
C96 C 0.80097 0.36035 0.95764 0.0
C97 C 0.79364 0.37703 0.99732 0.0
C98 C 0.81115 0.37253 0.03528 0.0
C99 C 0.83452 0.35027 0.03454 0.0
C100 C 0.90424 0.25555 0.08025 0.0
C101 C 0.89315 0.26806 0.12058 0.0
C102 C 0.90035 0.2529 0.16129 0.0
C103 C 0.91899 0.22511 0.16279 0.0
C104 C 0.9306 0.21299 0.12254 0.0
C105 C 0.92338 0.22813 0.08183 0.0
C106 C 0.90288 0.25147 0.91572 0.0
C107 C 0.92366 0.22565 0.91631 0.0
C108 C 0.42729 0.29748 0.62287 0.0
C109 C 0.40893 0.29676 0.66027 0.0
C110 C 0.38375 0.27696 0.65887 0.0
C111 C 0.37705 0.25802 0.62102 0.0
H112 H 0.31346 0.19762 0.5642 0.0
H113 H 0.27356 0.15742 0.56593 0.0
H114 H 0.30848 0.10766 0.45035 0.0
H115 H 0.34843 0.14843 0.44792 0.0
H116 H 0.37404 0.21886 0.37932 0.0
H117 H 0.39272 0.2426 0.30976 0.0
H118 H 0.46049 0.29314 0.38382 0.0
H119 H 0.44161 0.27032 0.45286 0.0
H120 H 0.4349 0.28029 0.55646 0.0
H121 H 0.44646 0.3132 0.62221 0.0
H122 H 0.36914 0.27622 0.68713 0.0
H123 H 0.35731 0.24321 0.62096 0.0
N124 N 0.36579 0.21729 0.54267 0.0
N125 N 0.37136 0.20887 0.46561 0.0
N126 N 0.40061 0.24801 0.50308 0.0
C127 C 0.35789 0.20112 0.50465 0.0
C128 C 0.39278 0.23241 0.46462 0.0
C129 C 0.38729 0.2406 0.54221 0.0
C130 C 0.334 0.17631 0.50574 0.0
C131 C 0.31267 0.17817 0.53906 0.0
C132 C 0.28969 0.15534 0.53987 0.0
C133 C 0.28779 0.12984 0.50777 0.0
C134 C 0.30946 0.12731 0.4752 0.0
C135 C 0.33217 0.15066 0.47375 0.0
C136 C 0.40596 0.2432 0.42182 0.0
C137 C 0.39302 0.2349 0.38069 0.0
C138 C 0.40367 0.24853 0.34085 0.0
C139 C 0.42737 0.27075 0.34128 0.0
C140 C 0.44138 0.27739 0.38215 0.0
C141 C 0.43069 0.26394 0.42191 0.0
C142 C 0.3952 0.25901 0.58338 0.0
C143 C 0.42047 0.27883 0.58486 0.0
O144 O 0.93458 0.00475 0.49921 0.0
Zn145 Zn 0.97305 0.02912 0.49911 0.0
O146 O 0.00546 0.99713 0.49708 0.0
Zn147 Zn 0.03079 0.00278 0.5492 0.0
Zn148 Zn 0.99033 0.95113 0.49606 0.0
Zn149 Zn 0.02818 0.00543 0.44339 0.0
O150 O 0.07143 0.01676 0.53187 0.0
O151 O 0.06812 0.0225 0.45819 0.0
O152 O 0.97515 0.05723 0.55506 0.0
O153 O 0.01491 0.03855 0.58953 0.0
O154 O 0.03322 0.96024 0.58538 0.0
O155 O 0.00357 0.92501 0.55021 0.0
O156 O 0.00433 0.92613 0.44178 0.0
O157 O 0.97273 0.05969 0.44489 0.0
O158 O 0.03228 0.96344 0.40705 0.0
O159 O 0.00945 0.0403 0.40464 0.0
C160 C 0.92753 0.97389 0.49749 0.0
C161 C 0.08254 0.02456 0.49436 0.0
C162 C 0.02087 0.93174 0.58218 0.0
C163 C 0.99297 0.05789 0.58776 0.0
C164 C 0.02125 0.93424 0.40997 0.0
C165 C 0.98824 0.06025 0.40976 0.0
O166 O 0.94661 0.95083 0.49575 0.0
O167 O 0.57963 0.49559 0.00299 0.0
Zn168 Zn 0.54555 0.527 0.00258 0.0
O169 O 0.50873 0.50295 0.00868 0.0
Zn170 Zn 0.48412 0.5124 0.95673 0.0
Zn171 Zn 0.51656 0.45474 0.01203 0.0
Zn172 Zn 0.48884 0.51774 0.06285 0.0
O173 O 0.44501 0.52939 0.97522 0.0
O174 O 0.44941 0.53737 0.04838 0.0
O175 O 0.54672 0.55346 0.94548 0.0
O176 O 0.50239 0.54747 0.9168 0.0
O177 O 0.47763 0.47081 0.92012 0.0
O178 O 0.49964 0.43057 0.95907 0.0
O179 O 0.49979 0.43466 0.06809 0.0
O180 O 0.55126 0.55974 0.05274 0.0
O181 O 0.48241 0.47863 0.10481 0.0
O182 O 0.51212 0.55315 0.09509 0.0
C183 C 0.5818 0.46391 0.00723 0.0
C184 C 0.43475 0.5392 0.01226 0.0
C185 C 0.48492 0.44024 0.92538 0.0
C186 C 0.52771 0.56036 0.91594 0.0
C187 C 0.48735 0.44729 0.102 0.0
C188 C 0.53633 0.56734 0.08684 0.0
O189 O 0.55953 0.44531 0.01165 0.0
H190 H 0.26797 0.07941 0.50111 0.0
C191 C 0.26343 0.1056 0.5082 0.0
H192 H 0.23145 0.14189 0.52137 0.0
H193 H 0.15642 0.00718 0.45294 0.0
H194 H 0.18493 0.0089 0.385 0.0
H195 H 0.22424 0.05044 0.37574 0.0
H196 H 0.23602 0.0894 0.43487 0.0
C197 C 0.23594 0.11557 0.51509 0.0
C198 C 0.21114 0.09164 0.51828 0.0
C199 C 0.20328 0.07078 0.48181 0.0
C200 C 0.179 0.04886 0.48552 0.0
C201 C 0.17336 0.02592 0.45054 0.0
C202 C 0.18974 0.02641 0.41157 0.0
C203 C 0.21197 0.04965 0.40648 0.0
C204 C 0.21872 0.07168 0.441 0.0
H205 H 0.11749 0.05434 0.464 0.0
C206 C 0.11213 0.03848 0.49243 0.0
H207 H 0.12688 0.01666 0.5525 0.0
H208 H 0.22204 0.12533 0.59622 0.0
H209 H 0.19217 0.12524 0.66255 0.0
H210 H 0.14721 0.09166 0.66589 0.0
H211 H 0.13214 0.05757 0.60333 0.0
C212 C 0.1322 0.03264 0.52422 0.0
C213 C 0.16083 0.05031 0.52366 0.0
C214 C 0.16901 0.07062 0.56044 0.0
C215 C 0.19445 0.09083 0.55799 0.0
C216 C 0.20254 0.11016 0.5957 0.0
C217 C 0.18566 0.11026 0.63414 0.0
C218 C 0.16039 0.09131 0.63605 0.0
C219 C 0.15202 0.07174 0.59977 0.0
H220 H 0.28965 0.67471 0.0254 0.0
C221 C 0.27168 0.65758 0.03149 0.0
H222 H 0.25937 0.60727 0.04289 0.0
H223 H 0.3981 0.61102 0.97214 0.0
H224 H 0.37965 0.6376 0.90491 0.0
H225 H 0.3274 0.64977 0.89632 0.0
H226 H 0.29366 0.63683 0.95575 0.0
C227 C 0.27715 0.62478 0.03768 0.0
C228 C 0.30744 0.61157 0.03881 0.0
C229 C 0.32632 0.61654 0.00197 0.0
C230 C 0.35588 0.60655 0.00513 0.0
C231 C 0.375 0.6156 0.97013 0.0
C232 C 0.36476 0.63124 0.93151 0.0
C233 C 0.3354 0.6383 0.92681 0.0
C234 C 0.3163 0.63107 0.96147 0.0
H235 H 0.39094 0.54682 0.98453 0.0
C236 C 0.40509 0.55288 0.01254 0.0
H237 H 0.40972 0.58016 0.07235 0.0
H238 H 0.27726 0.5983 0.11558 0.0
H239 H 0.29482 0.56765 0.18027 0.0
H240 H 0.34468 0.54519 0.18254 0.0
H241 H 0.37743 0.55371 0.12047 0.0
C242 C 0.3957 0.57391 0.0443 0.0
C243 C 0.36573 0.58809 0.04294 0.0
C244 C 0.34663 0.58222 0.07919 0.0
C245 C 0.31761 0.59439 0.07738 0.0
C246 C 0.29933 0.58907 0.1147 0.0
C247 C 0.30914 0.57156 0.15215 0.0
C248 C 0.33722 0.55896 0.15345 0.0
C249 C 0.35583 0.56412 0.11754 0.0
H250 H 0.76877 0.86426 0.54538 0.0
C251 C 0.7549 0.8723 0.51786 0.0
H252 H 0.75193 0.90407 0.46118 0.0
H253 H 0.86952 0.95499 0.57535 0.0
H254 H 0.83591 0.97149 0.63323 0.0
H255 H 0.78348 0.95991 0.62571 0.0
H256 H 0.76448 0.93108 0.56066 0.0
C257 C 0.76524 0.89507 0.48869 0.0
C258 C 0.79605 0.9064 0.49078 0.0
C259 C 0.80657 0.92479 0.52799 0.0
C260 C 0.83658 0.93304 0.5312 0.0
C261 C 0.84678 0.94939 0.57016 0.0
C262 C 0.82774 0.95881 0.60384 0.0
C263 C 0.79824 0.95217 0.59969 0.0
C264 C 0.78765 0.93538 0.5623 0.0
H265 H 0.88061 0.98527 0.49588 0.0
C266 C 0.89641 0.96504 0.49721 0.0
H267 H 0.90267 0.91257 0.49882 0.0
H268 H 0.78287 0.87188 0.41432 0.0
H269 H 0.816 0.85799 0.35458 0.0
H270 H 0.86754 0.87473 0.35841 0.0
H271 H 0.8863 0.90524 0.4222 0.0
C272 C 0.88714 0.93307 0.49866 0.0
C273 C 0.85572 0.92445 0.49604 0.0
C274 C 0.845 0.90702 0.4582 0.0
C275 C 0.81517 0.89788 0.45564 0.0
C276 C 0.80522 0.87987 0.41782 0.0
C277 C 0.82402 0.87167 0.38326 0.0
C278 C 0.85304 0.88106 0.38544 0.0
C279 C 0.86353 0.89851 0.42235 0.0
H280 H 0.76735 0.41808 0.02583 0.0
C281 C 0.76748 0.39844 0.00072 0.0
H282 H 0.74202 0.37214 0.95327 0.0
H283 H 0.64248 0.44254 0.08193 0.0
H284 H 0.66091 0.40615 0.14059 0.0
H285 H 0.70397 0.37073 0.12809 0.0
H286 H 0.72919 0.37208 0.05735 0.0
C287 C 0.74294 0.39213 0.97774 0.0
C288 C 0.71608 0.41198 0.98497 0.0
C289 C 0.70088 0.40966 0.02601 0.0
C290 C 0.67514 0.42865 0.03241 0.0
C291 C 0.66136 0.42747 0.07457 0.0
C292 C 0.67183 0.40687 0.10867 0.0
C293 C 0.69613 0.38705 0.1017 0.0
C294 C 0.71055 0.38827 0.06094 0.0
H295 H 0.61157 0.42067 0.00777 0.0
C296 C 0.6106 0.4479 0.00592 0.0
H297 H 0.63468 0.49274 0.99836 0.0
H298 H 0.74039 0.42268 0.9029 0.0
H299 H 0.721 0.45767 0.8434 0.0
H300 H 0.67512 0.48856 0.85323 0.0
H301 H 0.64844 0.48486 0.92267 0.0
C302 C 0.6353 0.46559 0.00163 0.0
C303 C 0.66377 0.4484 0.99692 0.0
C304 C 0.67904 0.45084 0.95603 0.0
C305 C 0.70527 0.43267 0.95011 0.0
C306 C 0.72019 0.43567 0.90901 0.0
C307 C 0.70933 0.45571 0.87459 0.0
C308 C 0.68351 0.47312 0.88015 0.0
C309 C 0.66843 0.47079 0.92026 0.0
H310 H 0.02722 0.77542 0.2066 0.0
C311 C 0.05083 0.77474 0.20664 0.0
H312 H 0.08904 0.79309 0.23764 0.0
H313 H 0.99236 0.90452 0.3038 0.0
H314 H 0.98694 0.91886 0.2254 0.0
H315 H 0.01179 0.88593 0.16746 0.0
H316 H 0.04145 0.8381 0.18739 0.0
C317 C 0.06546 0.79243 0.23758 0.0
C318 C 0.0504 0.8127 0.272 0.0
C319 C 0.03418 0.84158 0.25957 0.0
C320 C 0.02132 0.86182 0.29305 0.0
C321 C 0.00377 0.88929 0.27979 0.0
C322 C 0.0003 0.89765 0.2349 0.0
C323 C 0.01417 0.87902 0.20228 0.0
C324 C 0.03099 0.85137 0.21425 0.0
H325 H 0.04433 0.91711 0.35012 0.0
C326 C 0.02872 0.90957 0.37541 0.0
H327 H 0.00203 0.87026 0.39938 0.0
H328 H 0.07846 0.75807 0.30688 0.0
H329 H 0.08485 0.74477 0.38549 0.0
H330 H 0.06469 0.78159 0.44361 0.0
H331 H 0.03785 0.83177 0.42354 0.0
C332 C 0.01711 0.87864 0.37384 0.0
C333 C 0.02629 0.85449 0.33885 0.0
C334 C 0.0418 0.82519 0.35122 0.0
C335 C 0.05378 0.80422 0.31774 0.0
C336 C 0.06921 0.77509 0.33099 0.0
C337 C 0.07298 0.76713 0.37597 0.0
C338 C 0.06161 0.78784 0.40869 0.0
C339 C 0.04623 0.81658 0.39669 0.0
H340 H 0.54993 0.72892 0.72888 0.0
C341 C 0.55835 0.71345 0.7021 0.0
H342 H 0.5687 0.66469 0.68061 0.0
H343 H 0.54381 0.64817 0.90002 0.0
H344 H 0.58146 0.68984 0.91202 0.0
H345 H 0.60556 0.71734 0.84818 0.0
H346 H 0.59138 0.70435 0.7723 0.0
C347 C 0.55969 0.67995 0.70714 0.0
C348 C 0.54714 0.66204 0.74631 0.0
C349 C 0.55733 0.66832 0.79033 0.0
C350 C 0.54523 0.6504 0.82698 0.0
C351 C 0.55369 0.65941 0.87086 0.0
C352 C 0.57507 0.68351 0.87824 0.0
C353 C 0.58851 0.69914 0.84233 0.0
C354 C 0.5799 0.69168 0.79884 0.0
H355 H 0.55882 0.58716 0.8732 0.0
C356 C 0.53582 0.58361 0.87981 0.0
H357 H 0.49309 0.59797 0.86294 0.0
H358 H 0.52079 0.64581 0.66691 0.0
H359 H 0.4851 0.60205 0.65494 0.0
H360 H 0.46773 0.56725 0.71766 0.0
H361 H 0.48557 0.57638 0.79279 0.0
C362 C 0.51611 0.60127 0.85638 0.0
C363 C 0.52514 0.62397 0.81923 0.0
C364 C 0.51474 0.61792 0.77537 0.0
C365 C 0.52542 0.63732 0.739 0.0
C366 C 0.51406 0.63131 0.69567 0.0
C367 C 0.49344 0.60633 0.6883 0.0
C368 C 0.48362 0.58679 0.72361 0.0
C369 C 0.49406 0.59237 0.76666 0.0
H370 H 0.90833 0.21212 0.23279 0.0
C371 C 0.92403 0.20801 0.20634 0.0
H372 H 0.96288 0.18272 0.18933 0.0
H373 H 0.96794 0.16298 0.40801 0.0
H374 H 0.97735 0.22288 0.41082 0.0
H375 H 0.97374 0.25779 0.3428 0.0
H376 H 0.96065 0.23306 0.27157 0.0
C377 C 0.94648 0.18733 0.21442 0.0
C378 C 0.94793 0.16698 0.25603 0.0
C379 C 0.95555 0.18193 0.29735 0.0
C380 C 0.9579 0.16175 0.3365 0.0
C381 C 0.96586 0.17716 0.37728 0.0
C382 C 0.97133 0.2115 0.37935 0.0
C383 C 0.96927 0.23116 0.34105 0.0
C384 C 0.9616 0.21667 0.30041 0.0
H385 H 0.9952 0.08259 0.34347 0.0
C386 C 0.98153 0.08363 0.37297 0.0
H387 H 0.94544 0.10731 0.4029 0.0
H388 H 0.93146 0.13087 0.18247 0.0
H389 H 0.92048 0.07139 0.18025 0.0
H390 H 0.92326 0.03673 0.24857 0.0
H391 H 0.93726 0.06132 0.31942 0.0
C392 C 0.95905 0.10503 0.37354 0.0
C393 C 0.953 0.1267 0.33403 0.0
C394 C 0.94407 0.11206 0.2931 0.0
C395 C 0.94192 0.13215 0.25394 0.0
C396 C 0.93344 0.11679 0.21331 0.0
C397 C 0.92699 0.08268 0.21156 0.0
C398 C 0.9286 0.06316 0.25 0.0
C399 C 0.93691 0.07755 0.2904 0.0
H400 H 0.39601 0.32624 0.71929 0.0
C401 C 0.41458 0.31788 0.7 0.0
H402 H 0.46039 0.3183 0.69518 0.0
H403 H 0.48021 0.45582 0.79209 0.0
H404 H 0.49469 0.46919 0.71644 0.0
H405 H 0.48669 0.42888 0.65533 0.0
H406 H 0.46441 0.37483 0.66963 0.0
C407 C 0.44142 0.32673 0.71333 0.0
C408 C 0.446 0.35074 0.75062 0.0
C409 C 0.45871 0.38245 0.74154 0.0
C410 C 0.46277 0.40596 0.77659 0.0
C411 C 0.47612 0.43717 0.76669 0.0
C412 C 0.48462 0.44518 0.72337 0.0
C413 C 0.48015 0.42247 0.68899 0.0
C414 C 0.46737 0.39147 0.69773 0.0
H415 H 0.48686 0.39053 0.89357 0.0
C416 C 0.47714 0.41531 0.89114 0.0
H417 H 0.44961 0.44726 0.85386 0.0
H418 H 0.42454 0.29059 0.7808 0.0
H419 H 0.40756 0.27829 0.8556 0.0
H420 H 0.40996 0.32117 0.91467 0.0
H421 H 0.43006 0.37625 0.89953 0.0
C422 C 0.45902 0.42238 0.85712 0.0
C423 C 0.45378 0.39789 0.82058 0.0
C424 C 0.44044 0.36645 0.82948 0.0
C425 C 0.43742 0.34244 0.79476 0.0
C426 C 0.42603 0.31036 0.80532 0.0
C427 C 0.41639 0.30286 0.84823 0.0
C428 C 0.41787 0.32694 0.88153 0.0
C429 C 0.4297 0.3584 0.87246 0.0
H430 H 0.5424 0.71519 0.29717 0.0
C431 C 0.56572 0.71819 0.30173 0.0
H432 H 0.60692 0.70067 0.28142 0.0
H433 H 0.55499 0.56323 0.21342 0.0
H434 H 0.58026 0.54557 0.2808 0.0
H435 H 0.60182 0.58724 0.33188 0.0
H436 H 0.59834 0.64677 0.31587 0.0
C437 C 0.58365 0.70065 0.27539 0.0
C438 C 0.57178 0.6758 0.24326 0.0
C439 C 0.57415 0.64108 0.25313 0.0
C440 C 0.56156 0.61707 0.22391 0.0
C441 C 0.5641 0.58255 0.23459 0.0
C442 C 0.57854 0.57206 0.27315 0.0
C443 C 0.59069 0.59552 0.30189 0.0
C444 C 0.58856 0.62964 0.29223 0.0
H445 H 0.56827 0.60524 0.10864 0.0
C446 C 0.54773 0.59335 0.11706 0.0
H447 H 0.51373 0.59045 0.16422 0.0
H448 H 0.56531 0.74022 0.21292 0.0
H449 H 0.53958 0.75785 0.14589 0.0
H450 H 0.51653 0.71622 0.09627 0.0
H451 H 0.51924 0.65669 0.11321 0.0
C452 C 0.53388 0.60254 0.15436 0.0
C453 C 0.54681 0.62782 0.18481 0.0
C454 C 0.54461 0.66249 0.17473 0.0
C455 C 0.55733 0.68653 0.20383 0.0
C456 C 0.55545 0.72097 0.19248 0.0
C457 C 0.54087 0.73141 0.15401 0.0
C458 C 0.52794 0.70796 0.12603 0.0
C459 C 0.52972 0.67387 0.13608 0.0
H460 H 0.90871 0.20156 0.76717 0.0
C461 C 0.92483 0.20029 0.79378 0.0
H462 H 0.966 0.18079 0.81225 0.0
H463 H 0.95256 0.05393 0.68771 0.0
H464 H 0.94499 0.02881 0.76051 0.0
H465 H 0.94095 0.06402 0.82772 0.0
H466 H 0.94423 0.12459 0.8224 0.0
C467 C 0.94914 0.18242 0.78693 0.0
C468 C 0.95263 0.16158 0.74623 0.0
C469 C 0.95134 0.12616 0.75008 0.0
C470 C 0.95427 0.10583 0.71147 0.0
C471 C 0.95153 0.07057 0.71606 0.0
C472 C 0.94692 0.0558 0.75766 0.0
C473 C 0.9446 0.07562 0.79548 0.0
C474 C 0.94661 0.11038 0.79193 0.0
H475 H 0.00387 0.08064 0.65264 0.0
C476 C 0.98797 0.0806 0.62567 0.0
H477 H 0.94823 0.10075 0.60223 0.0
H478 H 0.95769 0.22866 0.72756 0.0
H479 H 0.96514 0.25384 0.65464 0.0
H480 H 0.96993 0.21859 0.58757 0.0
H481 H 0.9674 0.15792 0.59305 0.0
C482 C 0.96414 0.0998 0.62911 0.0
C483 C 0.95932 0.12097 0.66922 0.0
C484 C 0.96025 0.1564 0.6653 0.0
C485 C 0.95713 0.17675 0.7039 0.0
C486 C 0.95923 0.21203 0.69923 0.0
C487 C 0.96368 0.22682 0.65759 0.0
C488 C 0.9664 0.20697 0.61983 0.0
C489 C 0.96486 0.17217 0.62345 0.0
H490 H 0.42982 0.27561 0.26755 0.0
C491 C 0.43643 0.28712 0.29886 0.0
H492 H 0.45646 0.32983 0.32789 0.0
H493 H 0.53061 0.3674 0.15815 0.0
H494 H 0.56721 0.33697 0.20031 0.0
H495 H 0.55403 0.30451 0.26756 0.0
H496 H 0.50411 0.30238 0.29315 0.0
C497 C 0.45027 0.31686 0.29754 0.0
C498 C 0.45746 0.33369 0.25465 0.0
C499 C 0.48663 0.33437 0.23985 0.0
C500 C 0.49415 0.35281 0.20084 0.0
C501 C 0.52358 0.35354 0.1873 0.0
C502 C 0.54485 0.33621 0.21123 0.0
C503 C 0.53743 0.31796 0.24912 0.0
C504 C 0.50871 0.31699 0.26347 0.0
H505 H 0.46903 0.43712 0.16863 0.0
C506 C 0.47829 0.42539 0.13924 0.0
H507 H 0.4907 0.3797 0.10929 0.0
H508 H 0.39951 0.33796 0.27434 0.0
H509 H 0.36247 0.366 0.23023 0.0
H510 H 0.37504 0.39519 0.16012 0.0
H511 H 0.42482 0.39696 0.13414 0.0
C512 C 0.48088 0.39182 0.13791 0.0
C513 C 0.47245 0.37056 0.17675 0.0
C514 C 0.44303 0.36858 0.19042 0.0
C515 C 0.4356 0.35064 0.22991 0.0
C516 C 0.40628 0.35046 0.24401 0.0
C517 C 0.38479 0.36654 0.21905 0.0
C518 C 0.39188 0.38305 0.17966 0.0
C519 C 0.42059 0.38409 0.1653 0.0
H520 H 0.10524 0.81843 0.79079 0.0
C521 C 0.08717 0.80885 0.81038 0.0
H522 H 0.0413 0.80617 0.81469 0.0
H523 H 0.02121 0.9436 0.71381 0.0
H524 H 0.00549 0.95719 0.78871 0.0
H525 H 0.01229 0.917 0.85071 0.0
H526 H 0.03463 0.86288 0.83812 0.0
C527 C 0.05997 0.81555 0.79651 0.0
C528 C 0.05461 0.83878 0.75835 0.0
C529 C 0.04159 0.87037 0.76638 0.0
C530 C 0.03809 0.89375 0.73081 0.0
C531 C 0.02478 0.92503 0.7397 0.0
C532 C 0.01558 0.93316 0.78255 0.0
C533 C 0.01938 0.91052 0.81743 0.0
C534 C 0.03223 0.87949 0.80969 0.0
H535 H 0.01402 0.88246 0.61442 0.0
C536 C 0.02605 0.90589 0.61666 0.0
H537 H 0.05611 0.93437 0.65422 0.0
H538 H 0.07641 0.7786 0.73029 0.0
H539 H 0.09328 0.76541 0.65577 0.0
H540 H 0.09064 0.80749 0.59525 0.0
H541 H 0.07062 0.86271 0.60865 0.0
C542 C 0.04461 0.91069 0.65078 0.0
C543 C 0.04775 0.88556 0.68731 0.0
C544 C 0.06056 0.85383 0.67916 0.0
C545 C 0.06336 0.83012 0.71453 0.0
C546 C 0.07484 0.79801 0.70505 0.0
C547 C 0.08443 0.79003 0.66236 0.0
C548 C 0.08285 0.81368 0.62826 0.0
C549 C 0.07112 0.84525 0.63636 0.0
loop_
_geom_bond_atom_site_label_1
_geom_bond_atom_site_label_2
_geom_bond_distance
_geom_bond_site_symmetry_2
_ccdc_geom_bond_type
C0 C1 1.384 . S
C0 H13 0.947 . S
C0 C35 1.382 . S
C1 C0 1.384 . S
C1 C2 1.378 . S
C2 C1 1.378 . S
C2 C3 1.378 . S
C2 H14 0.952 . S
C3 C2 1.378 . S
C3 H15 0.950 . S
C3 C34 1.383 . S
H4 C23 0.947 . S
H5 C24 0.946 . S
H6 C26 0.953 . S
H7 C27 0.945 . S
H8 C29 0.952 . S
H9 C30 0.949 . S
H10 C32 0.950 . S
H11 C33 0.948 . S
H12 C35 0.951 . S
H13 C0 0.947 . S
H14 C2 0.952 . S
H15 C3 0.950 . S
N16 C19 1.382 . S
N16 C21 1.363 . S
N17 C19 1.371 1_556 S
N17 C20 1.372 . S
N18 C20 1.361 1_554 S
N18 C21 1.377 . S
C19 N16 1.382 . S
C19 N17 1.371 1_554 S
C19 C22 1.480 . S
C20 N17 1.372 . S
C20 N18 1.361 1_556 S
C20 C28 1.457 . S
C21 N16 1.363 . S
C21 N18 1.377 . S
C21 C34 1.479 . S
C22 C19 1.480 . S
C22 C23 1.383 . S
C22 C27 1.385 1_554 S
C23 H4 0.947 . S
C23 C22 1.383 . S
C23 C24 1.388 . S
C24 H5 0.946 . S
C24 C23 1.388 . S
C24 C25 1.384 . S
C25 C24 1.384 . S
C25 C26 1.377 1_554 S
C26 H6 0.953 . S
C26 C25 1.377 1_556 S
C26 C27 1.369 . S
C27 H7 0.945 . S
C27 C22 1.385 1_556 S
C27 C26 1.369 . S
C28 C20 1.457 . S
C28 C29 1.372 . S
C28 C33 1.364 . S
C29 H8 0.952 . S
C29 C28 1.372 . S
C29 C30 1.389 . S
C30 H9 0.949 . S
C30 C29 1.389 . S
C30 C31 1.387 . S
C31 C30 1.387 . S
C31 C32 1.372 . S
C32 H10 0.950 . S
C32 C31 1.372 . S
C32 C33 1.379 . S
C33 H11 0.948 . S
C33 C28 1.364 . S
C33 C32 1.379 . S
C34 C3 1.383 . S
C34 C21 1.479 . S
C34 C35 1.398 . S
C35 C0 1.382 . S
C35 H12 0.951 . S
C35 C34 1.398 . S
C36 C37 1.384 . S
C36 H49 0.947 . S
C36 C71 1.382 . S
C37 C36 1.384 . S
C37 C38 1.378 . S
C38 C37 1.378 . S
C38 C39 1.378 . S
C38 H50 0.952 . S
C39 C38 1.378 . S
C39 H51 0.950 . S
C39 C70 1.383 . S
H40 C59 0.947 . S
H41 C60 0.946 . S
H42 C62 0.953 . S
H43 C63 0.945 . S
H44 C65 0.952 . S
H45 C66 0.949 . S
H46 C68 0.950 . S
H47 C69 0.948 . S
H48 C71 0.951 . S
H49 C36 0.947 . S
H50 C38 0.952 . S
H51 C39 0.950 . S
N52 C55 1.382 . S
N52 C57 1.363 . S
N53 C55 1.371 . S
N53 C56 1.372 . S
N54 C56 1.361 . S
N54 C57 1.377 . S
C55 N52 1.382 . S
C55 N53 1.371 . S
C55 C58 1.480 . S
C56 N53 1.372 . S
C56 N54 1.361 . S
C56 C64 1.457 . S
C57 N52 1.363 . S
C57 N54 1.377 . S
C57 C70 1.479 . S
C58 C55 1.480 . S
C58 C59 1.383 . S
C58 C63 1.385 . S
C59 H40 0.947 . S
C59 C58 1.383 . S
C59 C60 1.388 . S
C60 H41 0.946 . S
C60 C59 1.388 . S
C60 C61 1.384 . S
C61 C60 1.384 . S
C61 C62 1.377 . S
C62 H42 0.953 . S
C62 C61 1.377 . S
C62 C63 1.369 . S
C63 H43 0.945 . S
C63 C58 1.385 . S
C63 C62 1.369 . S
C64 C56 1.457 . S
C64 C65 1.372 . S
C64 C69 1.364 . S
C65 H44 0.952 . S
C65 C64 1.372 . S
C65 C66 1.389 . S
C66 H45 0.949 . S
C66 C65 1.389 . S
C66 C67 1.387 . S
C67 C66 1.387 . S
C67 C68 1.372 . S
C68 H46 0.950 . S
C68 C67 1.372 . S
C68 C69 1.379 . S
C69 H47 0.948 . S
C69 C64 1.364 . S
C69 C68 1.379 . S
C70 C39 1.383 . S
C70 C57 1.479 . S
C70 C71 1.398 . S
C71 C36 1.382 . S
C71 H48 0.951 . S
C71 C70 1.398 . S
C72 C73 1.384 . S
C72 H85 0.947 . S
C72 C107 1.382 . S
C73 C72 1.384 . S
C73 C74 1.378 . S
C74 C73 1.378 . S
C74 C75 1.378 . S
C74 H86 0.952 . S
C75 C74 1.378 . S
C75 H87 0.950 . S
C75 C106 1.383 . S
H76 C95 0.947 . S
H77 C96 0.946 . S
H78 C98 0.953 . S
H79 C99 0.945 . S
H80 C101 0.952 . S
H81 C102 0.949 . S
H82 C104 0.950 . S
H83 C105 0.948 . S
H84 C107 0.951 . S
H85 C72 0.947 . S
H86 C74 0.952 . S
H87 C75 0.950 . S
N88 C91 1.382 1_556 S
N88 C93 1.363 . S
N89 C91 1.371 . S
N89 C92 1.372 . S
N90 C92 1.361 . S
N90 C93 1.377 1_554 S
C91 N88 1.382 1_554 S
C91 N89 1.371 . S
C91 C94 1.480 . S
C92 N89 1.372 . S
C92 N90 1.361 . S
C92 C100 1.457 . S
C93 N88 1.363 . S
C93 N90 1.377 1_556 S
C93 C106 1.479 . S
C94 C91 1.480 . S
C94 C95 1.383 1_554 S
C94 C99 1.385 . S
C95 H76 0.947 . S
C95 C94 1.383 1_556 S
C95 C96 1.388 . S
C96 H77 0.946 . S
C96 C95 1.388 . S
C96 C97 1.384 1_556 S
C97 C96 1.384 1_554 S
C97 C98 1.377 . S
C98 H78 0.953 . S
C98 C97 1.377 . S
C98 C99 1.369 . S
C99 H79 0.945 . S
C99 C94 1.385 . S
C99 C98 1.369 . S
C100 C92 1.457 . S
C100 C101 1.372 . S
C100 C105 1.364 . S
C101 H80 0.952 . S
C101 C100 1.372 . S
C101 C102 1.389 . S
C102 H81 0.949 . S
C102 C101 1.389 . S
C102 C103 1.387 . S
C103 C102 1.387 . S
C103 C104 1.372 . S
C104 H82 0.950 . S
C104 C103 1.372 . S
C104 C105 1.379 . S
C105 H83 0.948 . S
C105 C100 1.364 . S
C105 C104 1.379 . S
C106 C75 1.383 . S
C106 C93 1.479 . S
C106 C107 1.398 . S
C107 C72 1.382 . S
C107 H84 0.951 . S
C107 C106 1.398 . S
C108 C109 1.384 . S
C108 H121 0.947 . S
C108 C143 1.382 . S
C109 C108 1.384 . S
C109 C110 1.378 . S
C110 C109 1.378 . S
C110 C111 1.378 . S
C110 H122 0.952 . S
C111 C110 1.378 . S
C111 H123 0.950 . S
C111 C142 1.383 . S
H112 C131 0.947 . S
H113 C132 0.946 . S
H114 C134 0.953 . S
H115 C135 0.945 . S
H116 C137 0.952 . S
H117 C138 0.949 . S
H118 C140 0.950 . S
H119 C141 0.948 . S
H120 C143 0.951 . S
H121 C108 0.947 . S
H122 C110 0.952 . S
H123 C111 0.950 . S
N124 C127 1.382 . S
N124 C129 1.363 . S
N125 C127 1.371 . S
N125 C128 1.372 . S
N126 C128 1.361 . S
N126 C129 1.377 . S
C127 N124 1.382 . S
C127 N125 1.371 . S
C127 C130 1.480 . S
C128 N125 1.372 . S
C128 N126 1.361 . S
C128 C136 1.457 . S
C129 N124 1.363 . S
C129 N126 1.377 . S
C129 C142 1.479 . S
C130 C127 1.480 . S
C130 C131 1.383 . S
C130 C135 1.385 . S
C131 H112 0.947 . S
C131 C130 1.383 . S
C131 C132 1.388 . S
C132 H113 0.946 . S
C132 C131 1.388 . S
C132 C133 1.384 . S
C133 C132 1.384 . S
C133 C134 1.377 . S
C134 H114 0.953 . S
C134 C133 1.377 . S
C134 C135 1.369 . S
C135 H115 0.945 . S
C135 C130 1.385 . S
C135 C134 1.369 . S
C136 C128 1.457 . S
C136 C137 1.372 . S
C136 C141 1.364 . S
C137 H116 0.952 . S
C137 C136 1.372 . S
C137 C138 1.389 . S
C138 H117 0.949 . S
C138 C137 1.389 . S
C138 C139 1.387 . S
C139 C138 1.387 . S
C139 C140 1.372 . S
C140 H118 0.950 . S
C140 C139 1.372 . S
C140 C141 1.379 . S
C141 H119 0.948 . S
C141 C136 1.364 . S
C141 C140 1.379 . S
C142 C111 1.383 . S
C142 C129 1.479 . S
C142 C143 1.398 . S
C143 C108 1.382 . S
C143 H120 0.951 . S
C143 C142 1.398 . S
O144 Zn145 1.953 1_565 S
O144 C160 1.225 . S
Zn145 O144 1.953 1_545 S
Zn145 O146 1.949 1_655 S
Zn145 O152 1.919 . S
Zn145 O157 1.924 . S
O146 Zn145 1.949 1_455 S
O146 Zn147 1.923 . S
O146 Zn148 1.950 1_445 S
O146 Zn149 1.945 . S
Zn147 O146 1.923 . S
Zn147 O150 1.933 . S
Zn147 O153 1.941 . S
Zn147 O154 1.965 1_545 S
Zn148 O146 1.950 1_665 S
Zn148 O155 1.938 1_655 S
Zn148 O156 1.906 1_655 S
Zn148 O166 1.953 . S
Zn149 O146 1.945 . S
Zn149 O151 1.932 . S
Zn149 O158 1.977 1_545 S
Zn149 O159 1.910 1_455 S
O150 Zn147 1.933 . S
O150 C161 1.226 . S
O151 Zn149 1.932 . S
O151 C161 1.307 . S
O152 Zn145 1.919 . S
O152 C163 1.253 . S
O153 Zn147 1.941 . S
O153 C163 1.283 1_455 S
O154 Zn147 1.965 1_565 S
O154 C162 1.303 . S
O155 Zn148 1.938 1_455 S
O155 C162 1.247 . S
O156 Zn148 1.906 1_455 S
O156 C164 1.304 . S
O157 Zn145 1.924 . S
O157 C165 1.311 . S
O158 Zn149 1.977 1_565 S
O158 C164 1.272 . S
O159 Zn149 1.910 1_655 S
O159 C165 1.231 . S
C160 O144 1.225 . S
C160 O166 1.298 . S
C161 O150 1.226 . S
C161 O151 1.307 . S
C162 O154 1.303 . S
C162 O155 1.247 . S
C163 O152 1.253 . S
C163 O153 1.283 1_655 S
C164 O156 1.304 . S
C164 O158 1.272 . S
C165 O157 1.311 . S
C165 O159 1.231 . S
O166 Zn148 1.953 . S
O166 C160 1.298 . S
O167 Zn168 1.953 . S
O167 C183 1.225 1_556 S
Zn168 O167 1.953 . S
Zn168 O169 1.949 1_556 S
Zn168 O175 1.919 . S
Zn168 O180 1.924 1_556 S
O169 Zn168 1.949 1_554 S
O169 Zn170 1.923 1_554 S
O169 Zn171 1.950 . S
O169 Zn172 1.945 . S
Zn170 O169 1.923 1_556 S
Zn170 O173 1.933 . S
Zn170 O176 1.941 . S
Zn170 O177 1.965 . S
Zn171 O169 1.950 . S
Zn171 O178 1.938 1_554 S
Zn171 O179 1.906 . S
Zn171 O189 1.953 . S
Zn172 O169 1.945 . S
Zn172 O174 1.932 . S
Zn172 O181 1.977 . S
Zn172 O182 1.910 . S
O173 Zn170 1.933 . S
O173 C184 1.226 1_556 S
O174 Zn172 1.932 . S
O174 C184 1.307 . S
O175 Zn168 1.919 . S
O175 C186 1.253 . S
O176 Zn170 1.941 . S
O176 C186 1.283 . S
O177 Zn170 1.965 . S
O177 C185 1.303 . S
O178 Zn171 1.938 1_556 S
O178 C185 1.247 . S
O179 Zn171 1.906 . S
O179 C187 1.304 . S
O180 Zn168 1.924 1_554 S
O180 C188 1.311 . S
O181 Zn172 1.977 . S
O181 C187 1.272 . S
O182 Zn172 1.910 . S
O182 C188 1.231 . S
C183 O167 1.225 1_554 S
C183 O189 1.298 . S
C184 O173 1.226 1_554 S
C184 O174 1.307 . S
C185 O177 1.303 . S
C185 O178 1.247 . S
C186 O175 1.253 . S
C186 O176 1.283 . S
C187 O179 1.304 . S
C187 O181 1.272 . S
C188 O180 1.311 . S
C188 O182 1.231 . S
O189 Zn171 1.953 . S
O189 C183 1.298 . S
H190 C191 0.951 . S
C191 H190 0.951 . S
C191 C197 1.265 . S
H192 C197 0.950 . S
H193 C201 0.949 . S
H194 C202 0.950 . S
H195 C203 0.951 . S
H196 C204 0.951 . S
C197 C191 1.265 . S
C197 H192 0.950 . S
C197 C198 1.478 . S
C198 C197 1.478 . S
C198 C199 1.397 . S
C198 C215 1.394 . S
C199 C198 1.397 . S
C199 C200 1.438 . S
C199 C204 1.429 . S
C200 C199 1.438 . S
C200 C201 1.428 . S
C200 C213 1.394 . S
C201 H193 0.949 . S
C201 C200 1.428 . S
C201 C202 1.345 . S
C202 H194 0.950 . S
C202 C201 1.345 . S
C202 C203 1.424 . S
C203 H195 0.951 . S
C203 C202 1.424 . S
C203 C204 1.347 . S
C204 H196 0.951 . S
C204 C199 1.429 . S
C204 C203 1.347 . S
H205 C206 0.951 . S
C206 H205 0.951 . S
C206 C212 1.265 . S
H207 C212 0.950 . S
H208 C216 0.949 . S
H209 C217 0.950 . S
H210 C218 0.951 . S
H211 C219 0.951 . S
C212 C206 1.265 . S
C212 H207 0.950 . S
C212 C213 1.478 . S
C213 C200 1.394 . S
C213 C212 1.478 . S
C213 C214 1.397 . S
C214 C213 1.397 . S
C214 C215 1.438 . S
C214 C219 1.429 . S
C215 C198 1.394 . S
C215 C214 1.438 . S
C215 C216 1.428 . S
C216 H208 0.949 . S
C216 C215 1.428 . S
C216 C217 1.345 . S
C217 H209 0.950 . S
C217 C216 1.345 . S
C217 C218 1.424 . S
C218 H210 0.951 . S
C218 C217 1.424 . S
C218 C219 1.347 . S
C219 H211 0.951 . S
C219 C214 1.429 . S
C219 C218 1.347 . S
H220 C221 0.951 . S
C221 H220 0.951 . S
C221 C227 1.265 . S
H222 C227 0.949 1_556 S
H223 C231 0.949 . S
H224 C232 0.950 . S
H225 C233 0.951 . S
H226 C234 0.951 . S
C227 C221 1.265 . S
C227 H222 0.949 1_554 S
C227 C228 1.478 . S
C228 C227 1.478 . S
C228 C229 1.397 1_554 S
C228 C245 1.394 . S
C229 C228 1.397 1_556 S
C229 C230 1.438 . S
C229 C234 1.429 . S
C230 C229 1.438 . S
C230 C231 1.428 . S
C230 C243 1.394 1_556 S
C231 H223 0.949 . S
C231 C230 1.428 . S
C231 C232 1.345 . S
C232 H224 0.950 . S
C232 C231 1.345 . S
C232 C233 1.424 . S
C233 H225 0.951 . S
C233 C232 1.424 . S
C233 C234 1.347 . S
C234 H226 0.951 . S
C234 C229 1.429 . S
C234 C233 1.347 . S
H235 C236 0.951 . S
C236 H235 0.951 . S
C236 C242 1.265 . S
H237 C242 0.950 . S
H238 C246 0.949 . S
H239 C247 0.950 . S
H240 C248 0.951 . S
H241 C249 0.951 . S
C242 C236 1.265 . S
C242 H237 0.950 . S
C242 C243 1.478 . S
C243 C230 1.394 1_554 S
C243 C242 1.478 . S
C243 C244 1.397 . S
C244 C243 1.397 . S
C244 C245 1.438 . S
C244 C249 1.429 . S
C245 C228 1.394 . S
C245 C244 1.438 . S
C245 C246 1.428 . S
C246 H238 0.949 . S
C246 C245 1.428 . S
C246 C247 1.345 . S
C247 H239 0.950 . S
C247 C246 1.345 . S
C247 C248 1.424 . S
C248 H240 0.951 . S
C248 C247 1.424 . S
C248 C249 1.347 . S
C249 H241 0.951 . S
C249 C244 1.429 . S
C249 C248 1.347 . S
H250 C251 0.951 . S
C251 H250 0.951 . S
C251 C257 1.265 . S
H252 C257 0.950 . S
H253 C261 0.949 . S
H254 C262 0.950 . S
H255 C263 0.951 . S
H256 C264 0.951 . S
C257 C251 1.265 . S
C257 H252 0.950 . S
C257 C258 1.478 . S
C258 C257 1.478 . S
C258 C259 1.397 . S
C258 C275 1.394 . S
C259 C258 1.397 . S
C259 C260 1.438 . S
C259 C264 1.429 . S
C260 C259 1.438 . S
C260 C261 1.428 . S
C260 C273 1.394 . S
C261 H253 0.949 . S
C261 C260 1.428 . S
C261 C262 1.345 . S
C262 H254 0.950 . S
C262 C261 1.345 . S
C262 C263 1.424 . S
C263 H255 0.951 . S
C263 C262 1.424 . S
C263 C264 1.347 . S
C264 H256 0.951 . S
C264 C259 1.429 . S
C264 C263 1.347 . S
H265 C266 0.951 . S
C266 H265 0.951 . S
C266 C272 1.265 . S
H267 C272 0.950 . S
H268 C276 0.949 . S
H269 C277 0.950 . S
H270 C278 0.951 . S
H271 C279 0.951 . S
C272 C266 1.265 . S
C272 H267 0.950 . S
C272 C273 1.478 . S
C273 C260 1.394 . S
C273 C272 1.478 . S
C273 C274 1.397 . S
C274 C273 1.397 . S
C274 C275 1.438 . S
C274 C279 1.429 . S
C275 C258 1.394 . S
C275 C274 1.438 . S
C275 C276 1.428 . S
C276 H268 0.949 . S
C276 C275 1.428 . S
C276 C277 1.345 . S
C277 H269 0.950 . S
C277 C276 1.345 . S
C277 C278 1.424 . S
C278 H270 0.951 . S
C278 C277 1.424 . S
C278 C279 1.347 . S
C279 H271 0.951 . S
C279 C274 1.429 . S
C279 C278 1.347 . S
H280 C281 0.951 . S
C281 H280 0.951 . S
C281 C287 1.265 . S
H282 C287 0.949 1_556 S
H283 C291 0.949 . S
H284 C292 0.950 . S
H285 C293 0.951 . S
H286 C294 0.951 . S
C287 C281 1.265 . S
C287 H282 0.949 1_554 S
C287 C288 1.478 . S
C288 C287 1.478 . S
C288 C289 1.397 . S
C288 C305 1.394 1_554 S
C289 C288 1.397 . S
C289 C290 1.438 . S
C289 C294 1.429 . S
C290 C289 1.438 . S
C290 C291 1.428 . S
C290 C303 1.394 . S
C291 H283 0.949 . S
C291 C290 1.428 . S
C291 C292 1.345 . S
C292 H284 0.950 . S
C292 C291 1.345 . S
C292 C293 1.424 . S
C293 H285 0.951 . S
C293 C292 1.424 . S
C293 C294 1.347 . S
C294 H286 0.951 . S
C294 C289 1.429 . S
C294 C293 1.347 . S
H295 C296 0.951 . S
C296 H295 0.951 . S
C296 C302 1.265 . S
H297 C302 0.950 . S
H298 C306 0.949 . S
H299 C307 0.950 . S
H300 C308 0.951 . S
H301 C309 0.951 . S
C302 C296 1.265 . S
C302 H297 0.950 . S
C302 C303 1.478 . S
C303 C290 1.394 . S
C303 C302 1.478 . S
C303 C304 1.397 1_554 S
C304 C303 1.397 1_556 S
C304 C305 1.438 . S
C304 C309 1.429 . S
C305 C288 1.394 1_556 S
C305 C304 1.438 . S
C305 C306 1.428 . S
C306 H298 0.949 . S
C306 C305 1.428 . S
C306 C307 1.345 . S
C307 H299 0.950 . S
C307 C306 1.345 . S
C307 C308 1.424 . S
C308 H300 0.951 . S
C308 C307 1.424 . S
C308 C309 1.347 . S
C309 H301 0.951 . S
C309 C304 1.429 . S
C309 C308 1.347 . S
H310 C311 0.951 . S
C311 H310 0.951 . S
C311 C317 1.265 . S
H312 C317 0.950 . S
H313 C321 0.949 . S
H314 C322 0.950 . S
H315 C323 0.951 . S
H316 C324 0.951 . S
C317 C311 1.265 . S
C317 H312 0.950 . S
C317 C318 1.478 . S
C318 C317 1.478 . S
C318 C319 1.397 . S
C318 C335 1.394 . S
C319 C318 1.397 . S
C319 C320 1.438 . S
C319 C324 1.429 . S
C320 C319 1.438 . S
C320 C321 1.428 . S
C320 C333 1.394 . S
C321 H313 0.949 . S
C321 C320 1.428 . S
C321 C322 1.345 . S
C322 H314 0.950 . S
C322 C321 1.345 . S
C322 C323 1.424 . S
C323 H315 0.951 . S
C323 C322 1.424 . S
C323 C324 1.347 . S
C324 H316 0.951 . S
C324 C319 1.429 . S
C324 C323 1.347 . S
H325 C326 0.951 . S
C326 H325 0.951 . S
C326 C332 1.265 . S
H327 C332 0.950 . S
H328 C336 0.949 . S
H329 C337 0.950 . S
H330 C338 0.951 . S
H331 C339 0.951 . S
C332 C326 1.265 . S
C332 H327 0.950 . S
C332 C333 1.478 . S
C333 C320 1.394 . S
C333 C332 1.478 . S
C333 C334 1.397 . S
C334 C333 1.397 . S
C334 C335 1.438 . S
C334 C339 1.429 . S
C335 C318 1.394 . S
C335 C334 1.438 . S
C335 C336 1.428 . S
C336 H328 0.949 . S
C336 C335 1.428 . S
C336 C337 1.345 . S
C337 H329 0.950 . S
C337 C336 1.345 . S
C337 C338 1.424 . S
C338 H330 0.951 . S
C338 C337 1.424 . S
C338 C339 1.347 . S
C339 H331 0.951 . S
C339 C334 1.429 . S
C339 C338 1.347 . S
H340 C341 0.951 . S
C341 H340 0.951 . S
C341 C347 1.265 . S
H342 C347 0.950 . S
H343 C351 0.949 . S
H344 C352 0.950 . S
H345 C353 0.951 . S
H346 C354 0.951 . S
C347 C341 1.265 . S
C347 H342 0.950 . S
C347 C348 1.478 . S
C348 C347 1.478 . S
C348 C349 1.397 . S
C348 C365 1.394 . S
C349 C348 1.397 . S
C349 C350 1.438 . S
C349 C354 1.429 . S
C350 C349 1.438 . S
C350 C351 1.428 . S
C350 C363 1.394 . S
C351 H343 0.949 . S
C351 C350 1.428 . S
C351 C352 1.345 . S
C352 H344 0.950 . S
C352 C351 1.345 . S
C352 C353 1.424 . S
C353 H345 0.951 . S
C353 C352 1.424 . S
C353 C354 1.347 . S
C354 H346 0.951 . S
C354 C349 1.429 . S
C354 C353 1.347 . S
H355 C356 0.951 . S
C356 H355 0.951 . S
C356 C362 1.265 . S
H357 C362 0.950 . S
H358 C366 0.949 . S
H359 C367 0.950 . S
H360 C368 0.951 . S
H361 C369 0.951 . S
C362 C356 1.265 . S
C362 H357 0.950 . S
C362 C363 1.478 . S
C363 C350 1.394 . S
C363 C362 1.478 . S
C363 C364 1.397 . S
C364 C363 1.397 . S
C364 C365 1.438 . S
C364 C369 1.429 . S
C365 C348 1.394 . S
C365 C364 1.438 . S
C365 C366 1.428 . S
C366 H358 0.949 . S
C366 C365 1.428 . S
C366 C367 1.345 . S
C367 H359 0.950 . S
C367 C366 1.345 . S
C367 C368 1.424 . S
C368 H360 0.951 . S
C368 C367 1.424 . S
C368 C369 1.347 . S
C369 H361 0.951 . S
C369 C364 1.429 . S
C369 C368 1.347 . S
H370 C371 0.951 . S
C371 H370 0.951 . S
C371 C377 1.265 . S
H372 C377 0.950 . S
H373 C381 0.949 . S
H374 C382 0.950 . S
H375 C383 0.951 . S
H376 C384 0.951 . S
C377 C371 1.265 . S
C377 H372 0.950 . S
C377 C378 1.478 . S
C378 C377 1.478 . S
C378 C379 1.397 . S
C378 C395 1.394 . S
C379 C378 1.397 . S
C379 C380 1.438 . S
C379 C384 1.429 . S
C380 C379 1.438 . S
C380 C381 1.428 . S
C380 C393 1.394 . S
C381 H373 0.949 . S
C381 C380 1.428 . S
C381 C382 1.345 . S
C382 H374 0.950 . S
C382 C381 1.345 . S
C382 C383 1.424 . S
C383 H375 0.951 . S
C383 C382 1.424 . S
C383 C384 1.347 . S
C384 H376 0.951 . S
C384 C379 1.429 . S
C384 C383 1.347 . S
H385 C386 0.951 . S
C386 H385 0.951 . S
C386 C392 1.265 . S
H387 C392 0.950 . S
H388 C396 0.949 . S
H389 C397 0.950 . S
H390 C398 0.951 . S
H391 C399 0.951 . S
C392 C386 1.265 . S
C392 H387 0.950 . S
C392 C393 1.478 . S
C393 C380 1.394 . S
C393 C392 1.478 . S
C393 C394 1.397 . S
C394 C393 1.397 . S
C394 C395 1.438 . S
C394 C399 1.429 . S
C395 C378 1.394 . S
C395 C394 1.438 . S
C395 C396 1.428 . S
C396 H388 0.949 . S
C396 C395 1.428 . S
C396 C397 1.345 . S
C397 H389 0.950 . S
C397 C396 1.345 . S
C397 C398 1.424 . S
C398 H390 0.951 . S
C398 C397 1.424 . S
C398 C399 1.347 . S
C399 H391 0.951 . S
C399 C394 1.429 . S
C399 C398 1.347 . S
H400 C401 0.951 . S
C401 H400 0.951 . S
C401 C407 1.265 . S
H402 C407 0.950 . S
H403 C411 0.949 . S
H404 C412 0.950 . S
H405 C413 0.951 . S
H406 C414 0.951 . S
C407 C401 1.265 . S
C407 H402 0.950 . S
C407 C408 1.478 . S
C408 C407 1.478 . S
C408 C409 1.397 . S
C408 C425 1.394 . S
C409 C408 1.397 . S
C409 C410 1.438 . S
C409 C414 1.429 . S
C410 C409 1.438 . S
C410 C411 1.428 . S
C410 C423 1.394 . S
C411 H403 0.949 . S
C411 C410 1.428 . S
C411 C412 1.345 . S
C412 H404 0.950 . S
C412 C411 1.345 . S
C412 C413 1.424 . S
C413 H405 0.951 . S
C413 C412 1.424 . S
C413 C414 1.347 . S
C414 H406 0.951 . S
C414 C409 1.429 . S
C414 C413 1.347 . S
H415 C416 0.951 . S
C416 H415 0.951 . S
C416 C422 1.265 . S
H417 C422 0.950 . S
H418 C426 0.949 . S
H419 C427 0.950 . S
H420 C428 0.951 . S
H421 C429 0.951 . S
C422 C416 1.265 . S
C422 H417 0.950 . S
C422 C423 1.478 . S
C423 C410 1.394 . S
C423 C422 1.478 . S
C423 C424 1.397 . S
C424 C423 1.397 . S
C424 C425 1.438 . S
C424 C429 1.429 . S
C425 C408 1.394 . S
C425 C424 1.438 . S
C425 C426 1.428 . S
C426 H418 0.949 . S
C426 C425 1.428 . S
C426 C427 1.345 . S
C427 H419 0.950 . S
C427 C426 1.345 . S
C427 C428 1.424 . S
C428 H420 0.951 . S
C428 C427 1.424 . S
C428 C429 1.347 . S
C429 H421 0.951 . S
C429 C424 1.429 . S
C429 C428 1.347 . S
H430 C431 0.951 . S
C431 H430 0.951 . S
C431 C437 1.265 . S
H432 C437 0.950 . S
H433 C441 0.949 . S
H434 C442 0.950 . S
H435 C443 0.951 . S
H436 C444 0.951 . S
C437 C431 1.265 . S
C437 H432 0.950 . S
C437 C438 1.478 . S
C438 C437 1.478 . S
C438 C439 1.397 . S
C438 C455 1.394 . S
C439 C438 1.397 . S
C439 C440 1.438 . S
C439 C444 1.429 . S
C440 C439 1.438 . S
C440 C441 1.428 . S
C440 C453 1.394 . S
C441 H433 0.949 . S
C441 C440 1.428 . S
C441 C442 1.345 . S
C442 H434 0.950 . S
C442 C441 1.345 . S
C442 C443 1.424 . S
C443 H435 0.951 . S
C443 C442 1.424 . S
C443 C444 1.347 . S
C444 H436 0.951 . S
C444 C439 1.429 . S
C444 C443 1.347 . S
H445 C446 0.951 . S
C446 H445 0.951 . S
C446 C452 1.265 . S
H447 C452 0.950 . S
H448 C456 0.949 . S
H449 C457 0.950 . S
H450 C458 0.951 . S
H451 C459 0.951 . S
C452 C446 1.265 . S
C452 H447 0.950 . S
C452 C453 1.478 . S
C453 C440 1.394 . S
C453 C452 1.478 . S
C453 C454 1.397 . S
C454 C453 1.397 . S
C454 C455 1.438 . S
C454 C459 1.429 . S
C455 C438 1.394 . S
C455 C454 1.438 . S
C455 C456 1.428 . S
C456 H448 0.949 . S
C456 C455 1.428 . S
C456 C457 1.345 . S
C457 H449 0.950 . S
C457 C456 1.345 . S
C457 C458 1.424 . S
C458 H450 0.951 . S
C458 C457 1.424 . S
C458 C459 1.347 . S
C459 H451 0.951 . S
C459 C454 1.429 . S
C459 C458 1.347 . S
H460 C461 0.951 . S
C461 H460 0.951 . S
C461 C467 1.265 . S
H462 C467 0.950 . S
H463 C471 0.949 . S
H464 C472 0.950 . S
H465 C473 0.951 . S
H466 C474 0.951 . S
C467 C461 1.265 . S
C467 H462 0.950 . S
C467 C468 1.478 . S
C468 C467 1.478 . S
C468 C469 1.397 . S
C468 C485 1.394 . S
C469 C468 1.397 . S
C469 C470 1.438 . S
C469 C474 1.429 1_655 S
C470 C469 1.438 . S
C470 C471 1.428 1_655 S
C470 C483 1.394 . S
C471 H463 0.949 . S
C471 C470 1.428 1_455 S
C471 C472 1.345 . S
C472 H464 0.950 . S
C472 C471 1.345 . S
C472 C473 1.424 . S
C473 H465 0.951 . S
C473 C472 1.424 . S
C473 C474 1.347 . S
C474 H466 0.951 . S
C474 C469 1.429 1_455 S
C474 C473 1.347 . S
H475 C476 0.951 1_455 S
C476 H475 0.951 1_655 S
C476 C482 1.265 . S
H477 C482 0.950 . S
H478 C486 0.949 . S
H479 C487 0.950 . S
H480 C488 0.951 . S
H481 C489 0.951 . S
C482 C476 1.265 . S
C482 H477 0.950 . S
C482 C483 1.478 . S
C483 C470 1.394 . S
C483 C482 1.478 . S
C483 C484 1.397 . S
C484 C483 1.397 . S
C484 C485 1.438 . S
C484 C489 1.429 . S
C485 C468 1.394 . S
C485 C484 1.438 . S
C485 C486 1.428 . S
C486 H478 0.949 . S
C486 C485 1.428 . S
C486 C487 1.345 . S
C487 H479 0.950 . S
C487 C486 1.345 . S
C487 C488 1.424 . S
C488 H480 0.951 . S
C488 C487 1.424 . S
C488 C489 1.347 . S
C489 H481 0.951 . S
C489 C484 1.429 . S
C489 C488 1.347 . S
H490 C491 0.951 . S
C491 H490 0.951 . S
C491 C497 1.265 . S
H492 C497 0.950 . S
H493 C501 0.949 . S
H494 C502 0.950 . S
H495 C503 0.951 . S
H496 C504 0.951 . S
C497 C491 1.265 . S
C497 H492 0.950 . S
C497 C498 1.478 . S
C498 C497 1.478 . S
C498 C499 1.397 . S
C498 C515 1.394 . S
C499 C498 1.397 . S
C499 C500 1.438 . S
C499 C504 1.429 . S
C500 C499 1.438 . S
C500 C501 1.428 . S
C500 C513 1.394 . S
C501 H493 0.949 . S
C501 C500 1.428 . S
C501 C502 1.345 . S
C502 H494 0.950 . S
C502 C501 1.345 . S
C502 C503 1.424 . S
C503 H495 0.951 . S
C503 C502 1.424 . S
C503 C504 1.347 . S
C504 H496 0.951 . S
C504 C499 1.429 . S
C504 C503 1.347 . S
H505 C506 0.951 . S
C506 H505 0.951 . S
C506 C512 1.265 . S
H507 C512 0.950 . S
H508 C516 0.949 . S
H509 C517 0.950 . S
H510 C518 0.951 . S
H511 C519 0.951 . S
C512 C506 1.265 . S
C512 H507 0.950 . S
C512 C513 1.478 . S
C513 C500 1.394 . S
C513 C512 1.478 . S
C513 C514 1.397 . S
C514 C513 1.397 . S
C514 C515 1.438 . S
C514 C519 1.429 . S
C515 C498 1.394 . S
C515 C514 1.438 . S
C515 C516 1.428 . S
C516 H508 0.949 . S
C516 C515 1.428 . S
C516 C517 1.345 . S
C517 H509 0.950 . S
C517 C516 1.345 . S
C517 C518 1.424 . S
C518 H510 0.951 . S
C518 C517 1.424 . S
C518 C519 1.347 . S
C519 H511 0.951 . S
C519 C514 1.429 . S
C519 C518 1.347 . S
H520 C521 0.951 . S
C521 H520 0.951 . S
C521 C527 1.265 . S
H522 C527 0.950 . S
H523 C531 0.949 . S
H524 C532 0.950 . S
H525 C533 0.951 . S
H526 C534 0.951 . S
C527 C521 1.265 . S
C527 H522 0.950 . S
C527 C528 1.478 . S
C528 C527 1.478 . S
C528 C529 1.397 . S
C528 C545 1.394 . S
C529 C528 1.397 . S
C529 C530 1.438 . S
C529 C534 1.429 . S
C530 C529 1.438 . S
C530 C531 1.428 . S
C530 C543 1.394 . S
C531 H523 0.949 . S
C531 C530 1.428 . S
C531 C532 1.345 . S
C532 H524 0.950 . S
C532 C531 1.345 . S
C532 C533 1.424 . S
C533 H525 0.951 . S
C533 C532 1.424 . S
C533 C534 1.347 . S
C534 H526 0.951 . S
C534 C529 1.429 . S
C534 C533 1.347 . S
H535 C536 0.941 1_655 S
C536 H535 0.941 1_455 S
C536 C542 1.265 . S
H537 C542 0.950 . S
H538 C546 0.949 . S
H539 C547 0.950 . S
H540 C548 0.951 . S
H541 C549 0.951 . S
C542 C536 1.265 . S
C542 H537 0.950 . S
C542 C543 1.478 . S
C543 C530 1.394 . S
C543 C542 1.478 . S
C543 C544 1.397 . S
C544 C543 1.397 . S
C544 C545 1.438 . S
C544 C549 1.429 . S
C545 C528 1.394 . S
C545 C544 1.438 . S
C545 C546 1.428 . S
C546 H538 0.949 . S
C546 C545 1.428 . S
C546 C547 1.345 . S
C547 H539 0.950 . S
C547 C546 1.345 . S
C547 C548 1.424 . S
C548 H540 0.951 . S
C548 C547 1.424 . S
C548 C549 1.347 . S
C549 H541 0.951 . S
C549 C544 1.429 . S
C549 C548 1.347 . S
C206 C161 1.653 . S
C191 C133 1.652 . S
C221 C25 1.534 . S
C236 C184 1.613 . S
C251 C61 1.552 . S
C266 C160 1.635 . S
C281 C97 1.663 . S
C296 C183 1.666 . S
C326 C164 1.656 . S
C311 C1 1.652 . S
C356 C186 1.588 . S
C341 C67 1.629 . S
C371 C103 1.639 . S
C386 C165 1.561 . S
C401 C109 1.609 . S
C416 C185 1.623 . S
C446 C188 1.653 . S
C431 C37 1.660 . S
C476 C163 1.653 . S
C461 C73 1.623 . S
C506 C187 1.564 . S
C491 C139 1.650 . S
C521 C31 1.567 . S
C536 C162 1.627 . S
