# Generated by pormake.
# Topology anh, (6,3)-cn, num edge types: 1
# Building blocks:
#     Node 0, Type 0, BuildingBlock: NUHQIS_clean_sbu_0, # of connection points: 6
#     Node 1, Type 0, BuildingBlock: NUHQIS_clean_sbu_0, # of connection points: 6
#     Node 2, Type 0, BuildingBlock: NUHQIS_clean_sbu_0, # of connection points: 6
#     Node 3, Type 1, BuildingBlock: QEWDON_clean_linker_0, # of connection points: 3
#     Node 4, Type 1, BuildingBlock: QEWDON_clean_linker_0, # of connection points: 3
#     Node 5, Type 1, BuildingBlock: QEWDON_clean_linker_0, # of connection points: 3
#     Node 6, Type 1, BuildingBlock: QEWDON_clean_linker_0, # of connection points: 3
#     Node 7, Type 1, BuildingBlock: QEWDON_clean_linker_0, # of connection points: 3
#     Node 8, Type 1, BuildingBlock: QEWDON_clean_linker_0, # of connection points: 3
#     Edge 9, Type (0, 1), BuildingBlock: AJUNOK_clean_linker_0, # of connection points: 2
#     Edge 10, Type (0, 1), BuildingBlock: AJUNOK_clean_linker_0, # of connection points: 2
#     Edge 11, Type (0, 1), BuildingBlock: AJUNOK_clean_linker_0, # of connection points: 2
#     Edge 12, Type (0, 1), BuildingBlock: AJUNOK_clean_linker_0, # of connection points: 2
#     Edge 13, Type (0, 1), BuildingBlock: AJUNOK_clean_linker_0, # of connection points: 2
#     Edge 14, Type (0, 1), BuildingBlock: AJUNOK_clean_linker_0, # of connection points: 2
#     Edge 15, Type (0, 1), BuildingBlock: AJUNOK_clean_linker_0, # of connection points: 2
#     Edge 16, Type (0, 1), BuildingBlock: AJUNOK_clean_linker_0, # of connection points: 2
#     Edge 17, Type (0, 1), BuildingBlock: AJUNOK_clean_linker_0, # of connection points: 2
#     Edge 18, Type (0, 1), BuildingBlock: AJUNOK_clean_linker_0, # of connection points: 2
#     Edge 19, Type (0, 1), BuildingBlock: AJUNOK_clean_linker_0, # of connection points: 2
#     Edge 20, Type (0, 1), BuildingBlock: AJUNOK_clean_linker_0, # of connection points: 2
#     Edge 21, Type (0, 1), BuildingBlock: AJUNOK_clean_linker_0, # of connection points: 2
#     Edge 22, Type (0, 1), BuildingBlock: AJUNOK_clean_linker_0, # of connection points: 2
#     Edge 23, Type (0, 1), BuildingBlock: AJUNOK_clean_linker_0, # of connection points: 2
#     Edge 24, Type (0, 1), BuildingBlock: AJUNOK_clean_linker_0, # of connection points: 2
#     Edge 25, Type (0, 1), BuildingBlock: AJUNOK_clean_linker_0, # of connection points: 2
#     Edge 26, Type (0, 1), BuildingBlock: AJUNOK_clean_linker_0, # of connection points: 2
# Relax obj value: 0.322
# Max RMSD: 0.146
# Mean RMSD: 0.121
data_MOF--net-anh--node1-NUHQIS_clean_sbu_0--node2-QEWDON_clean_linker_0--edge1-AJUNOK_clean_linker_0
_symmetry_space_group_name_H-M    P1
_symmetry_Int_Tables_number       1
_symmetry_cell_setting            triclinic
loop_
_symmetry_equiv_pos_as_xyz
'x, y, z'
_cell_length_a     24.790215
_cell_length_b     24.813079
_cell_length_c     36.268253
_cell_angle_alpha  92.372402
_cell_angle_beta   96.661694
_cell_angle_gamma 119.92883
loop_
_atom_site_label
_atom_site_type_symbol
_atom_site_fract_x
_atom_site_fract_y
_atom_site_fract_z
_atom_type_partial_charge
Tb0 Tb 0.22206 0.60592 0.15552 0.0
Eu1 Eu 0.14453 0.67262 0.15916 0.0
C2 C 0.19551 0.63905 0.22927 0.0
C3 C 1.06577 0.51698 0.15588 0.0
C4 C 0.35596 0.5934 0.18737 0.0
C5 C 0.43125 0.68343 0.23205 0.0
C6 C 0.3694 0.63625 0.21865 0.0
C7 C 0.4059 0.59366 0.17273 0.0
C8 C 0.46799 0.63991 0.1868 0.0
C9 C 0.48057 0.68689 0.21518 0.0
C10 C 0.29221 0.56034 0.16526 0.0
O11 O 0.18535 0.59696 0.0961 0.0
O12 O 0.15507 0.67041 0.09813 0.0
O13 O 0.24895 0.75672 0.16876 0.0
O14 O 0.30046 0.7064 0.15376 0.0
C15 C 0.16713 0.63245 0.079 0.0
O16 O 1.07388 0.69848 0.143 0.0
O17 O 1.13658 0.73874 0.1962 0.0
O18 O 0.14191 0.62484 0.21019 0.0
O19 O 0.24223 0.65477 0.21098 0.0
O20 O 1.12316 0.52288 0.15883 0.0
O21 O 1.06249 0.56839 0.15181 0.0
C22 C 0.30254 0.76023 0.16278 0.0
O23 O 0.24607 0.5469 0.18402 0.0
O24 O 0.28651 0.58525 0.13512 0.0
C25 C 1.03008 0.70459 0.19545 0.0
C26 C 0.90641 0.6413 0.20964 0.0
C27 C 0.93646 0.70579 0.20599 0.0
C28 C 0.99792 0.7371 0.19808 0.0
C29 C 1.00423 0.64383 0.20612 0.0
C30 C 0.94235 0.61213 0.21318 0.0
C31 C 1.08465 0.72865 0.17599 0.0
H32 H 0.44007 0.7196 0.25366 0.0
H33 H 0.33189 0.63663 0.23085 0.0
H34 H 0.39676 0.56161 0.14847 0.0
H35 H 0.50573 0.64258 0.17311 0.0
H36 H 0.90936 0.72915 0.20307 0.0
H37 H 1.01771 0.78431 0.19047 0.0
H38 H 1.02924 0.61857 0.20505 0.0
H39 H 0.92011 0.5626 0.21606 0.0
Tb40 Tb 0.73397 0.21089 0.48888 0.0
Eu41 Eu 0.58953 0.14179 0.48751 0.0
C42 C 0.68157 0.17954 0.56054 0.0
C43 C 0.66799 1.05989 0.49179 0.0
C44 C 0.86782 0.35121 0.47947 0.0
C45 C 0.93511 0.46392 0.49086 0.0
C46 C 0.92355 0.40405 0.49713 0.0
C47 C 0.82408 0.35898 0.45537 0.0
C48 C 0.83488 0.41847 0.44977 0.0
C49 C 0.89049 0.47164 0.46741 0.0
C50 C 0.84801 0.28893 0.49113 0.0
O51 O 0.69935 0.18896 0.42866 0.0
O52 O 0.59211 0.14093 0.42544 0.0
O53 O 0.60496 0.24078 0.47866 0.0
O54 O 0.71052 0.28866 0.49835 0.0
C55 C 0.64235 0.16108 0.40906 0.0
O56 O 0.49071 1.06922 0.47074 0.0
O57 O 0.51933 0.12941 0.52254 0.0
O58 O 0.644 0.19521 0.54286 0.0
O59 O 0.71807 0.17058 0.54137 0.0
O60 O 0.71957 0.11315 0.48728 0.0
O61 O 0.61569 1.06214 0.49455 0.0
C62 C 0.65918 0.29363 0.48994 0.0
O63 O 0.82036 0.27869 0.52063 0.0
O64 O 0.81626 0.24233 0.46464 0.0
C65 C 0.45154 1.02247 0.52362 0.0
C66 C 0.40918 0.90212 0.54451 0.0
C67 C 0.36587 0.91927 0.52886 0.0
C68 C 0.38707 0.97897 0.51807 0.0
C69 C 0.49395 1.00839 0.54402 0.0
C70 C 0.47286 0.94833 0.55439 0.0
C71 C 0.47585 1.07736 0.50304 0.0
H72 H 0.97881 0.50423 0.50454 0.0
H73 H 0.95709 0.39908 0.51649 0.0
H74 H 0.77987 0.31887 0.4421 0.0
H75 H 0.79894 0.42271 0.43236 0.0
H76 H 0.31647 0.88437 0.52054 0.0
H77 H 0.35382 0.9892 0.50254 0.0
H78 H 0.54406 1.04199 0.54899 0.0
H79 H 0.50702 0.93622 0.56631 0.0
Tb80 Tb 0.72505 0.69343 0.82719 0.0
Eu81 Eu 0.64955 0.54639 0.81615 0.0
C82 C 0.68834 0.61947 0.89453 0.0
C83 C 0.80673 0.61943 0.82838 0.0
C84 C 0.76057 0.84687 0.86152 0.0
C85 C 0.70317 0.89986 0.84527 0.0
C86 C 0.7542 0.89157 0.8421 0.0
C87 C 0.72464 0.82194 0.89027 0.0
C88 C 0.67379 0.83043 0.89342 0.0
C89 C 0.65875 0.86328 0.86773 0.0
C90 C 0.78349 0.81026 0.84283 0.0
O91 O 0.72073 0.67266 0.76698 0.0
O92 O 0.64042 0.57099 0.75751 0.0
O93 O 0.56857 0.56864 0.81981 0.0
O94 O 0.62456 0.6757 0.82515 0.0
C95 C 0.67917 0.62242 0.74422 0.0
O96 O 0.61967 0.45512 0.78734 0.0
O97 O 0.58286 0.46182 0.83784 0.0
O98 O 0.69499 0.57749 0.87628 0.0
O99 O 0.68278 0.66127 0.87673 0.0
O100 O 0.8043 0.67116 0.83688 0.0
O101 O 0.75249 0.56668 0.81639 0.0
C102 C 0.56905 0.62247 0.82357 0.0
O103 O 0.79439 0.77322 0.86291 0.0
O104 O 0.7504 0.78154 0.81013 0.0
C105 C 0.59621 0.37597 0.82631 0.0
C106 C 0.61826 0.27846 0.84256 0.0
C107 C 0.55847 0.26568 0.82526 0.0
C108 C 0.54758 0.31403 0.81743 0.0
C109 C 0.65495 0.38973 0.84549 0.0
C110 C 0.66592 0.34108 0.85366 0.0
C111 C 0.58603 0.42501 0.81258 0.0
H112 H 0.69259 0.92611 0.82544 0.0
H113 H 0.78185 0.91196 0.82013 0.0
H114 H 0.72946 0.78843 0.90645 0.0
H115 H 0.64137 0.80374 0.91196 0.0
H116 H 0.52117 0.21842 0.81492 0.0
H117 H 0.50213 0.30295 0.80251 0.0
H118 H 0.69295 0.43784 0.85254 0.0
H119 H 0.71246 0.35239 0.86671 0.0
H120 H 0.70482 0.17897 0.23849 0.0
C121 C 0.66446 0.13544 0.22507 0.0
C122 C 0.61756 0.09858 0.24674 0.0
C123 C 0.66088 0.11686 0.18705 0.0
H124 H 0.53163 1.012 0.24828 0.0
C125 C 0.56487 1.04052 0.23052 0.0
C126 C 0.55377 1.01718 0.19264 0.0
C127 C 0.60347 1.05629 0.17111 0.0
C128 C 0.71862 0.15932 0.16581 0.0
H129 H 0.59624 1.03974 0.14196 0.0
C130 C 0.77152 0.22512 0.1773 0.0
C131 C 0.82471 0.25777 0.15606 0.0
C132 C 0.72265 0.13062 0.13285 0.0
H133 H 0.68789 1.08266 0.12246 0.0
C134 C 0.77219 0.16128 0.11258 0.0
H135 H 0.77189 0.25043 0.20239 0.0
C136 C 0.82154 0.22248 0.12382 0.0
H137 H 0.8582 0.24279 0.10652 0.0
H138 H 0.77268 0.1365 0.08745 0.0
H139 H 0.66568 0.69218 0.57244 0.0
C140 C 0.66729 0.65382 0.5584 0.0
C141 C 0.67077 0.6091 0.58022 0.0
C142 C 0.6629 0.6485 0.51907 0.0
H143 H 0.67363 0.52363 0.58018 0.0
C144 C 0.67046 0.55674 0.56277 0.0
C145 C 0.66616 0.54539 0.52385 0.0
C146 C 0.66224 0.5924 0.50214 0.0
C147 C 0.6556 0.69954 0.49674 0.0
H148 H 0.65992 0.5853 0.47231 0.0
C149 C 0.66683 0.76201 0.51167 0.0
C150 C 0.65652 0.80433 0.48783 0.0
C151 C 0.63352 0.6834 0.45815 0.0
H152 H 0.62204 0.63864 0.44455 0.0
C153 C 0.62368 0.72302 0.43563 0.0
H154 H 0.68397 0.77794 0.54109 0.0
C155 C 0.63486 0.78141 0.44991 0.0
H156 H 0.6261 0.80939 0.43059 0.0
H157 H 0.60649 0.70779 0.40609 0.0
H158 H 0.21674 0.62785 0.90542 0.0
C159 C 0.17408 0.62497 0.89177 0.0
C160 C 1.13117 0.62562 0.91438 0.0
C161 C 0.16413 0.62297 0.85242 0.0
H162 H 1.04446 0.62592 0.91561 0.0
C163 C 1.0764 0.62537 0.89776 0.0
C164 C 1.06041 0.62282 0.85897 0.0
C165 C 1.10489 0.62071 0.83642 0.0
C166 C 0.21678 0.62615 0.82927 0.0
H167 H 1.0927 0.6177 0.80658 0.0
C168 C 0.27279 0.61996 0.84224 0.0
C169 C 0.31837 0.62438 0.81754 0.0
C170 C 0.21146 0.63832 0.79191 0.0
H171 H 0.17429 0.64586 0.77982 0.0
C172 C 0.25431 0.64298 0.7687 0.0
H173 H 0.28038 0.61076 0.87066 0.0
C174 C 0.30575 0.63622 0.78099 0.0
H175 H 0.33713 0.64153 0.76117 0.0
H176 H 0.24777 0.65281 0.74024 0.0
H177 H 1.13737 0.71582 0.36667 0.0
C178 C 0.16941 0.71779 0.39047 0.0
C179 C 0.20845 0.69286 0.3862 0.0
C180 C 0.17155 0.74568 0.42523 0.0
H181 H 0.27748 0.67347 0.414 0.0
C182 C 0.24827 0.69378 0.41737 0.0
C183 C 0.25149 0.7225 0.45245 0.0
C184 C 0.21294 0.74864 0.45584 0.0
C185 C 1.12314 0.76147 0.43122 0.0
H186 H 0.21476 0.77158 0.48244 0.0
C187 C 1.06124 0.7121 0.42766 0.0
C188 C 1.01497 0.72013 0.44144 0.0
C189 C 1.13835 0.82128 0.44626 0.0
H190 H 0.1865 0.85997 0.44982 0.0
C191 C 1.09138 0.83061 0.45801 0.0
H192 H 1.05073 0.66536 0.41796 0.0
C193 C 1.03004 0.77983 0.45653 0.0
H194 H 0.99532 0.78653 0.46829 0.0
H195 H 1.10328 0.87659 0.47001 0.0
H196 H 0.54349 0.9749 0.66878 0.0
C197 C 0.56411 1.00453 0.69524 0.0
C198 C 0.60737 1.06868 0.69623 0.0
C199 C 0.54726 0.97909 0.72866 0.0
H200 H 0.66113 0.15722 0.73006 0.0
C201 C 0.63099 0.10728 0.73035 0.0
C202 C 0.61356 1.08266 0.76405 0.0
C203 C 0.57474 1.01788 0.76288 0.0
C204 C 0.49877 0.91305 0.72945 0.0
H205 H 0.56347 0.99739 0.78866 0.0
C206 C 0.51158 0.88083 0.7563 0.0
C207 C 0.46283 0.82984 0.76942 0.0
C208 C 0.43661 0.88769 0.71107 0.0
H209 H 0.42527 0.91214 0.69031 0.0
C210 C 0.38787 0.83281 0.72177 0.0
H211 H 0.55974 0.90014 0.77033 0.0
C212 C 0.40059 0.80487 0.75185 0.0
H213 H 0.36239 0.76546 0.76181 0.0
H214 H 0.33978 0.81408 0.7082 0.0
H215 H 0.702 0.74276 0.04802 0.0
C216 C 0.70642 0.71233 0.06722 0.0
C217 C 0.69791 0.65434 0.05345 0.0
C218 C 0.72145 0.7312 0.10573 0.0
H219 H 0.69544 0.56982 0.0673 0.0
C220 C 0.7023 0.61446 0.07832 0.0
C221 C 0.71972 0.63373 0.11688 0.0
C222 C 0.72971 0.69254 0.13003 0.0
C223 C 0.72648 0.78971 0.12181 0.0
H224 H 0.74722 0.71048 0.15927 0.0
C225 C 0.69673 0.78704 0.1527 0.0
C226 C 0.69956 0.84025 0.16972 0.0
C227 C 0.75964 0.84716 0.10744 0.0
H228 H 0.78333 0.85061 0.08362 0.0
C229 C 0.76273 0.90084 0.12422 0.0
H230 H 0.66826 0.742 0.16252 0.0
C231 C 0.73228 0.89742 0.15507 0.0
H232 H 0.73322 0.9387 0.16696 0.0
H233 H 0.78806 0.945 0.11297 0.0
C234 C 0.54642 0.79238 0.1976 0.0
C235 C 0.54161 0.74557 0.21978 0.0
C236 C 0.60394 0.83447 0.18672 0.0
C237 C 0.6577 0.83018 0.19776 0.0
H238 H 0.5042 0.79094 0.18459 0.0
H239 H 0.60382 0.86332 0.16513 0.0
S240 S 0.67316 0.73062 0.26655 0.0
N241 N 0.59733 0.70761 0.25998 0.0
N242 N 0.70651 0.78829 0.24057 0.0
C243 C 0.65567 0.792 0.22586 0.0
C244 C 0.59688 0.74839 0.23629 0.0
C245 C 0.92983 0.58324 0.49064 0.0
C246 C 0.90336 0.53521 0.46065 0.0
C247 C 0.95641 0.64605 0.48426 0.0
C248 C 0.95818 0.66262 0.44769 0.0
H249 H 0.93457 0.57267 0.51909 0.0
H250 H 0.98299 0.68175 0.50785 0.0
S251 S 0.88386 0.55493 0.35996 0.0
N252 N 0.87145 0.50847 0.39323 0.0
N253 N 0.92127 0.62686 0.38162 0.0
C254 C 0.92395 0.61501 0.41784 0.0
C255 C 0.89709 0.55104 0.4242 0.0
C256 C 0.5653 0.78929 0.82278 0.0
C257 C 0.59219 0.83823 0.85223 0.0
C258 C 0.50961 0.77437 0.79953 0.0
C259 C 0.48118 0.81032 0.80397 0.0
H260 H 0.59045 0.76596 0.81574 0.0
H261 H 0.49487 0.74175 0.77458 0.0
S262 S 0.52637 0.93508 0.88091 0.0
N263 N 0.58089 0.91525 0.88842 0.0
N264 N 0.47649 0.88853 0.84383 0.0
C265 C 0.5024 0.853 0.8365 0.0
C266 C 0.55908 0.86797 0.86039 0.0
C267 C 0.8302 0.58308 0.15394 0.0
C268 C 0.84018 0.60398 0.19204 0.0
C269 C 0.78198 0.58164 0.12929 0.0
C270 C 0.74228 0.60099 0.14221 0.0
H271 H 0.86604 0.57852 0.14203 0.0
H272 H 0.78302 0.57508 0.09975 0.0
S273 S 0.73207 0.63058 0.24149 0.0
N274 N 0.79597 0.62502 0.24308 0.0
N275 N 0.70139 0.61784 0.19684 0.0
C276 C 0.74301 0.60744 0.18113 0.0
C277 C 0.79347 0.61061 0.20617 0.0
C278 C 0.33286 0.79057 0.54724 0.0
C279 C 0.39053 0.83557 0.53749 0.0
C280 C 0.28882 0.74022 0.5209 0.0
C281 C 0.30155 0.73597 0.4843 0.0
H282 H 0.3172 0.80058 0.57195 0.0
H283 H 0.24113 0.7126 0.52675 0.0
S284 S 0.45823 0.82161 0.45433 0.0
N285 N 0.46768 0.85609 0.49637 0.0
N286 N 0.38435 0.76365 0.44619 0.0
C287 C 0.36473 0.76954 0.47881 0.0
C288 C 0.4099 0.81944 0.50602 0.0
C289 C 0.68435 0.23633 0.8236 0.0
C290 C 0.63292 0.22742 0.84075 0.0
C291 C 0.68243 0.18599 0.80338 0.0
C292 C 0.62797 0.12595 0.79842 0.0
H293 H 0.72256 0.28303 0.82159 0.0
H294 H 0.72072 0.19589 0.78803 0.0
S295 S 0.49411 1.076 0.85193 0.0
N296 N 0.53858 0.15223 0.86377 0.0
N297 N 0.53021 1.05816 0.82242 0.0
C298 C 0.58222 0.11492 0.82166 0.0
C299 C 0.58614 0.16588 0.84379 0.0
C300 C 0.6218 0.94279 0.50884 0.0
C301 C 0.66912 0.99633 0.49467 0.0
C302 C 0.62052 0.88359 0.5099 0.0
C303 C 0.66736 0.87259 0.49767 0.0
H304 H 0.5843 0.94639 0.51899 0.0
H305 H 0.58058 0.845 0.51926 0.0
S306 S 0.80328 0.9953 0.45806 0.0
N307 N 0.76545 1.03157 0.46845 0.0
N308 N 0.763 0.92399 0.47027 0.0
C309 C 0.71547 0.92621 0.48411 0.0
C310 C 0.71669 0.98625 0.48294 0.0
C311 C 0.93012 0.67342 0.85097 0.0
C312 C 0.87208 0.62046 0.83328 0.0
C313 C 0.98948 0.67452 0.85711 0.0
C314 C 0.99738 0.62352 0.84525 0.0
H315 H 0.92975 0.7148 0.86125 0.0
H316 H 1.0301 0.71627 0.87223 0.0
S317 S 0.86229 0.47157 0.79804 0.0
N318 N 0.829 0.51396 0.80446 0.0
N319 N 0.93789 0.51679 0.81519 0.0
C320 C 0.94 0.57043 0.82719 0.0
C321 C 0.87913 0.56883 0.82142 0.0
C322 C 0.42427 0.83634 0.15685 0.0
C323 C 0.36631 0.82658 0.16736 0.0
C324 C 0.48281 0.89673 0.16252 0.0
C325 C 0.48872 0.95313 0.17906 0.0
H326 H 0.42477 0.79635 0.14421 0.0
H327 H 0.5245 0.89857 0.15478 0.0
S328 S 0.35204 0.95788 0.20956 0.0
N329 N 0.32116 0.88338 0.19397 0.0
N330 N 0.42666 0.9927 0.20377 0.0
C331 C 0.43049 0.94406 0.18845 0.0
C332 C 0.37144 0.88302 0.18284 0.0
C333 C 0.61161 0.3695 0.48292 0.0
C334 C 0.6627 0.35967 0.49554 0.0
C335 C 0.61383 0.42895 0.48946 0.0
C336 C 0.66736 0.48436 0.50931 0.0
H337 H 0.56829 0.33018 0.46809 0.0
H338 H 0.57173 0.43063 0.47989 0.0
S339 S 0.81442 0.48727 0.54983 0.0
N340 N 0.76933 0.41463 0.52964 0.0
N341 N 0.77295 0.52215 0.54198 0.0
C342 C 0.7186 0.47505 0.52187 0.0
C343 C 0.71658 0.41496 0.51498 0.0
C344 C 0.4494 0.58261 0.79863 0.0
C345 C 0.5045 0.62165 0.82511 0.0
C346 C 0.39034 0.5812 0.79834 0.0
C347 C 0.37926 0.61741 0.82505 0.0
H348 H 0.45218 0.55346 0.77675 0.0
H349 H 0.35252 0.55162 0.77579 0.0
S350 S 0.50335 0.72262 0.90421 0.0
N351 N 0.53976 0.69428 0.88156 0.0
N352 N 0.43125 0.69131 0.88084 0.0
C353 C 0.43291 0.65445 0.85286 0.0
C354 C 0.49376 0.65648 0.85297 0.0
C355 C 1.00394 0.39534 0.16409 0.0
C356 C 1.00351 0.45178 0.15867 0.0
C357 C 0.94786 0.33575 0.16605 0.0
C358 C 0.88553 0.32634 0.16369 0.0
H359 H 1.04846 0.39657 0.16614 0.0
H360 H 0.95344 0.29539 0.16844 0.0
S361 S 0.8537 0.45587 0.14839 0.0
N362 N 0.93102 0.49112 0.15051 0.0
N363 N 0.82914 0.38203 0.1543 0.0
C364 C 0.88436 0.38233 0.15867 0.0
C365 C 0.94145 0.4432 0.15632 0.0
C366 C 0.14378 0.67067 0.01893 0.0
C367 C 0.15968 0.63 0.03696 0.0
C368 C 1.13587 0.66957 0.97974 0.0
C369 C 0.14344 0.62777 0.95634 0.0
H370 H 1.13717 0.70395 0.03517 0.0
H371 H 1.12373 0.70206 0.96765 0.0
S372 S 0.18424 0.51057 -0.01136 0.0
N373 N 0.18278 0.5463 0.02763 0.0
N374 N 0.16714 0.54389 0.95431 0.0
C375 C 0.15978 0.58707 0.97385 0.0
C376 C 0.16794 0.58817 0.01389 0.0
C377 C 0.68703 0.15598 0.35053 0.0
C378 C 0.63554 0.14936 0.3672 0.0
C379 C 0.68141 0.14126 0.31177 0.0
C380 C 0.62408 0.11936 0.28757 0.0
H381 H 0.73201 0.17116 0.36768 0.0
H382 H 0.72198 0.14528 0.30086 0.0
S383 S 0.47657 0.10029 0.3158 0.0
N384 N 0.52613 0.12321 0.35546 0.0
N385 N 0.51608 0.09713 0.28294 0.0
C386 C 0.57288 0.11486 0.30359 0.0
C387 C 0.57845 0.1294 0.34314 0.0
C388 C 0.63439 0.56665 0.67852 0.0
C389 C 0.67692 0.62204 0.70241 0.0
C390 C 0.63244 0.56335 0.63947 0.0
C391 C 0.6727 0.61531 0.62202 0.0
H392 H 0.60235 0.52478 0.69001 0.0
H393 H 0.59879 0.51942 0.62271 0.0
S394 S 0.79308 0.7719 0.67107 0.0
N395 N 0.76037 0.73071 0.70503 0.0
N396 N 0.75679 0.72419 0.63194 0.0
C397 C 0.71499 0.67129 0.64536 0.0
C398 C 0.71716 0.67471 0.6853 0.0
C399 C 0.67756 0.10651 0.60687 0.0
C400 C 0.66874 0.15614 0.59699 0.0
C401 C 0.65622 1.07721 0.63868 0.0
C402 C 0.62606 0.09712 0.66161 0.0
H403 H 0.6991 1.08881 0.5893 0.0
H404 H 0.66368 1.03909 0.64553 0.0
S405 S 0.5919 0.22495 0.64803 0.0
N406 N 0.62836 0.22416 0.61288 0.0
N407 N 0.58803 0.16874 0.6724 0.0
C408 C 0.61748 0.1469 0.65221 0.0
C409 C 0.639 0.17658 0.61997 0.0
C410 C 0.73195 0.61784 0.95952 0.0
C411 C 0.68529 0.61969 0.93465 0.0
C412 C 0.73452 0.62706 -0.00178 0.0
C413 C 0.69025 0.63794 0.01294 0.0
H414 H 0.76822 0.61216 0.94904 0.0
H415 H 0.77271 0.62807 0.01671 0.0
S416 S 0.55211 0.63451 0.95951 0.0
N417 N 0.58936 0.62482 0.92722 0.0
N418 N 0.59418 0.64178 0.0001 0.0
C419 C 0.6413 0.63597 -0.01164 0.0
C420 C 0.63881 0.62688 0.94909 0.0
C421 C 0.14898 0.61451 0.28748 0.0
C422 C 0.20311 0.64497 0.27035 0.0
C423 C 0.15201 0.62665 0.3258 0.0
C424 C 0.20927 0.66964 0.34833 0.0
H425 H 1.1033 0.58292 0.27092 0.0
H426 H 1.10871 0.60462 0.3376 0.0
S427 S 0.36547 0.75783 0.31785 0.0
N428 N 0.31652 0.71656 0.27926 0.0
N429 N 0.32207 0.7396 0.35163 0.0
C430 C 0.26452 0.69733 0.33213 0.0
C431 C 0.26148 0.68492 0.29297 0.0
loop_
_geom_bond_atom_site_label_1
_geom_bond_atom_site_label_2
_geom_bond_distance
_geom_bond_site_symmetry_2
_ccdc_geom_bond_type
Tb0 C10 2.825 . S
Tb0 O11 2.347 . S
Tb0 O14 2.366 . S
Tb0 O19 2.418 . S
Tb0 O20 2.384 1_455 S
Tb0 O23 2.479 . S
Tb0 O24 2.471 . S
Eu1 O12 2.424 1_455 S
Eu1 O13 2.402 . S
Eu1 O16 2.458 1_455 S
Eu1 O17 2.452 1_455 S
Eu1 O18 2.357 . S
Eu1 O21 2.363 1_455 S
Eu1 C31 2.803 1_455 S
C2 O18 1.259 . S
C2 O19 1.265 . S
C3 O20 1.255 . S
C3 O21 1.265 . S
C4 C6 1.380 . S
C4 C7 1.374 . S
C4 C10 1.507 . S
C5 C6 1.384 . S
C5 C9 1.387 . S
C5 H32 0.930 . S
C6 C4 1.380 . S
C6 C5 1.384 . S
C6 H33 0.931 . S
C7 C4 1.374 . S
C7 C8 1.390 . S
C7 H34 0.930 . S
C8 C7 1.390 . S
C8 C9 1.391 . S
C8 H35 0.930 . S
C9 C5 1.387 . S
C9 C8 1.391 . S
C10 Tb0 2.825 . S
C10 C4 1.507 . S
C10 O23 1.238 . S
C10 O24 1.247 . S
O11 Tb0 2.347 . S
O11 C15 1.259 . S
O12 Eu1 2.424 1_655 S
O12 C15 1.265 1_655 S
O13 Eu1 2.402 . S
O13 C22 1.255 . S
O14 Tb0 2.366 . S
O14 C22 1.265 . S
C15 O11 1.259 . S
C15 O12 1.265 1_455 S
O16 Eu1 2.458 1_655 S
O16 C31 1.238 . S
O17 Eu1 2.452 1_655 S
O17 C31 1.247 . S
O18 Eu1 2.357 . S
O18 C2 1.259 . S
O19 Tb0 2.418 . S
O19 C2 1.265 . S
O20 Tb0 2.384 1_655 S
O20 C3 1.255 . S
O21 Eu1 2.363 1_655 S
O21 C3 1.265 . S
C22 O13 1.255 . S
C22 O14 1.265 . S
O23 Tb0 2.479 . S
O23 C10 1.238 . S
O24 Tb0 2.471 . S
O24 C10 1.247 . S
C25 C28 1.380 . S
C25 C29 1.374 . S
C25 C31 1.507 . S
C26 C27 1.387 . S
C26 C30 1.391 . S
C27 C26 1.387 . S
C27 C28 1.384 . S
C27 H36 0.930 . S
C28 C25 1.380 . S
C28 C27 1.384 . S
C28 H37 0.931 . S
C29 C25 1.374 . S
C29 C30 1.390 . S
C29 H38 0.930 . S
C30 C26 1.391 . S
C30 C29 1.390 . S
C30 H39 0.930 . S
C31 Eu1 2.803 1_655 S
C31 O16 1.238 . S
C31 O17 1.247 . S
C31 C25 1.507 . S
H32 C5 0.930 . S
H33 C6 0.931 . S
H34 C7 0.930 . S
H35 C8 0.930 . S
H36 C27 0.930 . S
H37 C28 0.931 . S
H38 C29 0.930 . S
H39 C30 0.930 . S
Tb40 C50 2.825 . S
Tb40 O51 2.347 . S
Tb40 O54 2.366 . S
Tb40 O59 2.418 . S
Tb40 O60 2.384 . S
Tb40 O63 2.479 . S
Tb40 O64 2.471 . S
Eu41 O52 2.418 . S
Eu41 O53 2.384 . S
Eu41 O56 2.479 1_545 S
Eu41 O57 2.471 1_545 S
Eu41 O58 2.347 . S
Eu41 O61 2.366 1_545 S
Eu41 C71 2.825 1_545 S
C42 O58 1.259 . S
C42 O59 1.265 . S
C43 O60 1.255 1_565 S
C43 O61 1.265 . S
C44 C46 1.380 . S
C44 C47 1.374 . S
C44 C50 1.507 . S
C45 C46 1.384 . S
C45 C49 1.387 . S
C45 H72 0.930 . S
C46 C44 1.380 . S
C46 C45 1.384 . S
C46 H73 0.931 . S
C47 C44 1.374 . S
C47 C48 1.390 . S
C47 H74 0.930 . S
C48 C47 1.390 . S
C48 C49 1.391 . S
C48 H75 0.930 . S
C49 C45 1.387 . S
C49 C48 1.391 . S
C50 Tb40 2.825 . S
C50 C44 1.507 . S
C50 O63 1.238 . S
C50 O64 1.247 . S
O51 Tb40 2.347 . S
O51 C55 1.259 . S
O52 Eu41 2.418 . S
O52 C55 1.265 . S
O53 Eu41 2.384 . S
O53 C62 1.255 . S
O54 Tb40 2.366 . S
O54 C62 1.265 . S
C55 O51 1.259 . S
C55 O52 1.265 . S
O56 Eu41 2.479 1_565 S
O56 C71 1.238 . S
O57 Eu41 2.471 1_565 S
O57 C71 1.247 . S
O58 Eu41 2.347 . S
O58 C42 1.259 . S
O59 Tb40 2.418 . S
O59 C42 1.265 . S
O60 Tb40 2.384 . S
O60 C43 1.255 1_545 S
O61 Eu41 2.366 1_565 S
O61 C43 1.265 . S
C62 O53 1.255 . S
C62 O54 1.265 . S
O63 Tb40 2.479 . S
O63 C50 1.238 . S
O64 Tb40 2.471 . S
O64 C50 1.247 . S
C65 C68 1.380 . S
C65 C69 1.374 . S
C65 C71 1.507 . S
C66 C67 1.387 . S
C66 C70 1.391 . S
C67 C66 1.387 . S
C67 C68 1.384 . S
C67 H76 0.930 . S
C68 C65 1.380 . S
C68 C67 1.384 . S
C68 H77 0.931 . S
C69 C65 1.374 . S
C69 C70 1.390 . S
C69 H78 0.930 . S
C70 C66 1.391 . S
C70 C69 1.390 . S
C70 H79 0.930 . S
C71 Eu41 2.825 1_565 S
C71 O56 1.238 . S
C71 O57 1.247 . S
C71 C65 1.507 . S
H72 C45 0.930 . S
H73 C46 0.931 . S
H74 C47 0.930 . S
H75 C48 0.930 . S
H76 C67 0.930 . S
H77 C68 0.931 . S
H78 C69 0.930 . S
H79 C70 0.930 . S
Tb80 C90 2.825 . S
Tb80 O91 2.347 . S
Tb80 O94 2.366 . S
Tb80 O99 2.418 . S
Tb80 O100 2.384 . S
Tb80 O103 2.479 . S
Tb80 O104 2.471 . S
Eu81 O92 2.418 . S
Eu81 O93 2.384 . S
Eu81 O96 2.479 . S
Eu81 O97 2.471 . S
Eu81 O98 2.347 . S
Eu81 O101 2.366 . S
Eu81 C111 2.825 . S
C82 O98 1.259 . S
C82 O99 1.265 . S
C83 O100 1.255 . S
C83 O101 1.265 . S
C84 C86 1.380 . S
C84 C87 1.374 . S
C84 C90 1.507 . S
C85 C86 1.384 . S
C85 C89 1.387 . S
C85 H112 0.930 . S
C86 C84 1.380 . S
C86 C85 1.384 . S
C86 H113 0.931 . S
C87 C84 1.374 . S
C87 C88 1.390 . S
C87 H114 0.930 . S
C88 C87 1.390 . S
C88 C89 1.391 . S
C88 H115 0.930 . S
C89 C85 1.387 . S
C89 C88 1.391 . S
C90 Tb80 2.825 . S
C90 C84 1.507 . S
C90 O103 1.238 . S
C90 O104 1.247 . S
O91 Tb80 2.347 . S
O91 C95 1.259 . S
O92 Eu81 2.418 . S
O92 C95 1.265 . S
O93 Eu81 2.384 . S
O93 C102 1.255 . S
O94 Tb80 2.366 . S
O94 C102 1.265 . S
C95 O91 1.259 . S
C95 O92 1.265 . S
O96 Eu81 2.479 . S
O96 C111 1.238 . S
O97 Eu81 2.471 . S
O97 C111 1.247 . S
O98 Eu81 2.347 . S
O98 C82 1.259 . S
O99 Tb80 2.418 . S
O99 C82 1.265 . S
O100 Tb80 2.384 . S
O100 C83 1.255 . S
O101 Eu81 2.366 . S
O101 C83 1.265 . S
C102 O93 1.255 . S
C102 O94 1.265 . S
O103 Tb80 2.479 . S
O103 C90 1.238 . S
O104 Tb80 2.471 . S
O104 C90 1.247 . S
C105 C108 1.380 . S
C105 C109 1.374 . S
C105 C111 1.507 . S
C106 C107 1.387 . S
C106 C110 1.391 . S
C107 C106 1.387 . S
C107 C108 1.384 . S
C107 H116 0.930 . S
C108 C105 1.380 . S
C108 C107 1.384 . S
C108 H117 0.931 . S
C109 C105 1.374 . S
C109 C110 1.390 . S
C109 H118 0.930 . S
C110 C106 1.391 . S
C110 C109 1.390 . S
C110 H119 0.930 . S
C111 Eu81 2.825 . S
C111 O96 1.238 . S
C111 O97 1.247 . S
C111 C105 1.507 . S
H112 C85 0.930 . S
H113 C86 0.931 . S
H114 C87 0.930 . S
H115 C88 0.930 . S
H116 C107 0.930 . S
H117 C108 0.931 . S
H118 C109 0.930 . S
H119 C110 0.930 . S
H120 C121 0.949 . S
C121 H120 0.949 . S
C121 C122 1.395 . S
C121 C123 1.391 . S
C122 C121 1.395 . S
C122 C125 1.389 1_545 S
C123 C121 1.391 . S
C123 C127 1.387 . S
C123 C128 1.491 . S
H124 C125 0.951 . S
C125 C122 1.389 1_565 S
C125 H124 0.951 . S
C125 C126 1.378 . S
C126 C125 1.378 . S
C126 C127 1.409 1_565 S
C127 C123 1.387 . S
C127 C126 1.409 1_545 S
C127 H129 0.951 . S
C128 C123 1.491 . S
C128 C130 1.382 . S
C128 C132 1.404 . S
H129 C127 0.951 . S
C130 C128 1.382 . S
C130 C131 1.390 . S
C130 H135 0.949 . S
C131 C130 1.390 . S
C131 C136 1.399 . S
C132 C128 1.404 . S
C132 H133 0.950 . S
C132 C134 1.375 . S
H133 C132 0.950 . S
C134 C132 1.375 . S
C134 C136 1.382 . S
C134 H138 0.950 . S
H135 C130 0.949 . S
C136 C131 1.399 . S
C136 C134 1.382 . S
C136 H137 0.952 . S
H137 C136 0.952 . S
H138 C134 0.950 . S
H139 C140 0.949 . S
C140 H139 0.949 . S
C140 C141 1.395 . S
C140 C142 1.391 . S
C141 C140 1.395 . S
C141 C144 1.390 . S
C142 C140 1.391 . S
C142 C146 1.387 . S
C142 C147 1.491 . S
H143 C144 0.950 . S
C144 C141 1.390 . S
C144 H143 0.950 . S
C144 C145 1.378 . S
C145 C144 1.378 . S
C145 C146 1.409 . S
C146 C142 1.387 . S
C146 C145 1.409 . S
C146 H148 0.951 . S
C147 C142 1.491 . S
C147 C149 1.382 . S
C147 C151 1.404 . S
H148 C146 0.951 . S
C149 C147 1.382 . S
C149 C150 1.390 . S
C149 H154 0.949 . S
C150 C149 1.390 . S
C150 C155 1.399 . S
C151 C147 1.404 . S
C151 H152 0.950 . S
C151 C153 1.375 . S
H152 C151 0.950 . S
C153 C151 1.375 . S
C153 C155 1.382 . S
C153 H157 0.950 . S
H154 C149 0.949 . S
C155 C150 1.399 . S
C155 C153 1.382 . S
C155 H156 0.952 . S
H156 C155 0.952 . S
H157 C153 0.950 . S
H158 C159 0.949 . S
C159 H158 0.949 . S
C159 C160 1.395 . S
C159 C161 1.391 . S
C160 C159 1.395 . S
C160 C163 1.390 1_455 S
C161 C159 1.391 . S
C161 C165 1.387 1_455 S
C161 C166 1.491 . S
H162 C163 0.950 . S
C163 C160 1.390 1_655 S
C163 H162 0.950 . S
C163 C164 1.378 . S
C164 C163 1.378 . S
C164 C165 1.409 . S
C165 C161 1.387 1_655 S
C165 C164 1.409 . S
C165 H167 0.951 . S
C166 C161 1.491 . S
C166 C168 1.382 . S
C166 C170 1.404 . S
H167 C165 0.951 . S
C168 C166 1.382 . S
C168 C169 1.390 . S
C168 H173 0.949 . S
C169 C168 1.390 . S
C169 C174 1.399 . S
C170 C166 1.404 . S
C170 H171 0.950 . S
C170 C172 1.375 . S
H171 C170 0.950 . S
C172 C170 1.375 . S
C172 C174 1.382 . S
C172 H176 0.950 . S
H173 C168 0.949 . S
C174 C169 1.399 . S
C174 C172 1.382 . S
C174 H175 0.952 . S
H175 C174 0.952 . S
H176 C172 0.950 . S
H177 C178 0.949 1_655 S
C178 H177 0.949 1_455 S
C178 C179 1.395 . S
C178 C180 1.391 . S
C179 C178 1.395 . S
C179 C182 1.390 . S
C180 C178 1.391 . S
C180 C184 1.387 . S
C180 C185 1.491 1_455 S
H181 C182 0.950 . S
C182 C179 1.390 . S
C182 H181 0.950 . S
C182 C183 1.378 . S
C183 C182 1.378 . S
C183 C184 1.409 . S
C184 C180 1.387 . S
C184 C183 1.409 . S
C184 H186 0.951 . S
C185 C180 1.491 1_655 S
C185 C187 1.382 . S
C185 C189 1.404 . S
H186 C184 0.951 . S
C187 C185 1.382 . S
C187 C188 1.390 . S
C187 H192 0.949 . S
C188 C187 1.390 . S
C188 C193 1.399 . S
C189 C185 1.404 . S
C189 H190 0.950 . S
C189 C191 1.375 . S
H190 C189 0.950 . S
C191 C189 1.375 . S
C191 C193 1.382 . S
C191 H195 0.950 . S
H192 C187 0.949 . S
C193 C188 1.399 . S
C193 C191 1.382 . S
C193 H194 0.952 . S
H194 C193 0.952 . S
H195 C191 0.950 . S
H196 C197 0.949 1_565 S
C197 H196 0.949 1_545 S
C197 C198 1.395 . S
C197 C199 1.391 . S
C198 C197 1.395 . S
C198 C201 1.390 . S
C199 C197 1.391 . S
C199 C203 1.387 . S
C199 C204 1.491 1_545 S
H200 C201 0.950 . S
C201 C198 1.390 . S
C201 H200 0.950 . S
C201 C202 1.378 . S
C202 C201 1.378 . S
C202 C203 1.409 . S
C203 C199 1.387 . S
C203 C202 1.409 . S
C203 H205 0.951 . S
C204 C199 1.491 1_565 S
C204 C206 1.382 . S
C204 C208 1.404 . S
H205 C203 0.951 . S
C206 C204 1.382 . S
C206 C207 1.390 . S
C206 H211 0.949 . S
C207 C206 1.390 . S
C207 C212 1.399 . S
C208 C204 1.404 . S
C208 H209 0.950 . S
C208 C210 1.375 . S
H209 C208 0.950 . S
C210 C208 1.375 . S
C210 C212 1.382 . S
C210 H214 0.950 . S
H211 C206 0.949 . S
C212 C207 1.399 . S
C212 C210 1.382 . S
C212 H213 0.952 . S
H213 C212 0.952 . S
H214 C210 0.950 . S
H215 C216 0.949 . S
C216 H215 0.949 . S
C216 C217 1.395 . S
C216 C218 1.391 . S
C217 C216 1.395 . S
C217 C220 1.390 . S
C218 C216 1.391 . S
C218 C222 1.387 . S
C218 C223 1.491 . S
H219 C220 0.950 . S
C220 C217 1.390 . S
C220 H219 0.950 . S
C220 C221 1.378 . S
C221 C220 1.378 . S
C221 C222 1.409 . S
C222 C218 1.387 . S
C222 C221 1.409 . S
C222 H224 0.951 . S
C223 C218 1.491 . S
C223 C225 1.382 . S
C223 C227 1.404 . S
H224 C222 0.951 . S
C225 C223 1.382 . S
C225 C226 1.390 . S
C225 H230 0.949 . S
C226 C225 1.390 . S
C226 C231 1.399 . S
C227 C223 1.404 . S
C227 H228 0.950 . S
C227 C229 1.375 . S
H228 C227 0.950 . S
C229 C227 1.375 . S
C229 C231 1.382 . S
C229 H233 0.950 . S
H230 C225 0.949 . S
C231 C226 1.399 . S
C231 C229 1.382 . S
C231 H232 0.952 . S
H232 C231 0.952 . S
H233 C229 0.950 . S
C234 C235 1.369 . S
C234 C236 1.419 . S
C234 H238 0.930 . S
C235 C234 1.369 . S
C235 C244 1.429 . S
C236 C234 1.419 . S
C236 C237 1.363 . S
C236 H239 0.929 . S
C237 C236 1.363 . S
C237 C243 1.428 . S
H238 C234 0.930 . S
H239 C236 0.929 . S
S240 N241 1.613 . S
S240 N242 1.610 . S
N241 S240 1.613 . S
N241 C244 1.350 . S
N242 S240 1.610 . S
N242 C243 1.351 . S
C243 C237 1.428 . S
C243 N242 1.351 . S
C243 C244 1.434 . S
C244 C235 1.429 . S
C244 N241 1.350 . S
C244 C243 1.434 . S
C245 C246 1.369 . S
C245 C247 1.419 . S
C245 H249 0.930 . S
C246 C245 1.369 . S
C246 C255 1.429 . S
C247 C245 1.419 . S
C247 C248 1.363 . S
C247 H250 0.929 . S
C248 C247 1.363 . S
C248 C254 1.428 . S
H249 C245 0.930 . S
H250 C247 0.929 . S
S251 N252 1.613 . S
S251 N253 1.610 . S
N252 S251 1.613 . S
N252 C255 1.350 . S
N253 S251 1.610 . S
N253 C254 1.351 . S
C254 C248 1.428 . S
C254 N253 1.351 . S
C254 C255 1.434 . S
C255 C246 1.429 . S
C255 N252 1.350 . S
C255 C254 1.434 . S
C256 C257 1.369 . S
C256 C258 1.419 . S
C256 H260 0.930 . S
C257 C256 1.369 . S
C257 C266 1.429 . S
C258 C256 1.419 . S
C258 C259 1.363 . S
C258 H261 0.929 . S
C259 C258 1.363 . S
C259 C265 1.428 . S
H260 C256 0.930 . S
H261 C258 0.929 . S
S262 N263 1.613 . S
S262 N264 1.610 . S
N263 S262 1.613 . S
N263 C266 1.350 . S
N264 S262 1.610 . S
N264 C265 1.351 . S
C265 C259 1.428 . S
C265 N264 1.351 . S
C265 C266 1.434 . S
C266 C257 1.429 . S
C266 N263 1.350 . S
C266 C265 1.434 . S
C267 C268 1.369 . S
C267 C269 1.419 . S
C267 H271 0.930 . S
C268 C267 1.369 . S
C268 C277 1.429 . S
C269 C267 1.419 . S
C269 C270 1.363 . S
C269 H272 0.929 . S
C270 C269 1.363 . S
C270 C276 1.428 . S
H271 C267 0.930 . S
H272 C269 0.929 . S
S273 N274 1.613 . S
S273 N275 1.610 . S
N274 S273 1.613 . S
N274 C277 1.350 . S
N275 S273 1.610 . S
N275 C276 1.351 . S
C276 C270 1.428 . S
C276 N275 1.351 . S
C276 C277 1.434 . S
C277 C268 1.429 . S
C277 N274 1.350 . S
C277 C276 1.434 . S
C278 C279 1.369 . S
C278 C280 1.419 . S
C278 H282 0.930 . S
C279 C278 1.369 . S
C279 C288 1.429 . S
C280 C278 1.419 . S
C280 C281 1.363 . S
C280 H283 0.929 . S
C281 C280 1.363 . S
C281 C287 1.428 . S
H282 C278 0.930 . S
H283 C280 0.929 . S
S284 N285 1.613 . S
S284 N286 1.610 . S
N285 S284 1.613 . S
N285 C288 1.350 . S
N286 S284 1.610 . S
N286 C287 1.351 . S
C287 C281 1.428 . S
C287 N286 1.351 . S
C287 C288 1.434 . S
C288 C279 1.429 . S
C288 N285 1.350 . S
C288 C287 1.434 . S
C289 C290 1.369 . S
C289 C291 1.419 . S
C289 H293 0.930 . S
C290 C289 1.369 . S
C290 C299 1.429 . S
C291 C289 1.419 . S
C291 C292 1.363 . S
C291 H294 0.929 . S
C292 C291 1.363 . S
C292 C298 1.428 . S
H293 C289 0.930 . S
H294 C291 0.929 . S
S295 N296 1.613 . S
S295 N297 1.610 . S
N296 S295 1.613 . S
N296 C299 1.350 . S
N297 S295 1.610 . S
N297 C298 1.351 . S
C298 C292 1.428 . S
C298 N297 1.351 . S
C298 C299 1.434 . S
C299 C290 1.429 . S
C299 N296 1.350 . S
C299 C298 1.434 . S
C300 C301 1.369 . S
C300 C302 1.419 . S
C300 H304 0.930 . S
C301 C300 1.369 . S
C301 C310 1.429 . S
C302 C300 1.419 . S
C302 C303 1.363 . S
C302 H305 0.929 . S
C303 C302 1.363 . S
C303 C309 1.428 . S
H304 C300 0.930 . S
H305 C302 0.929 . S
S306 N307 1.613 . S
S306 N308 1.610 . S
N307 S306 1.613 . S
N307 C310 1.350 . S
N308 S306 1.610 . S
N308 C309 1.351 . S
C309 C303 1.428 . S
C309 N308 1.351 . S
C309 C310 1.434 . S
C310 C301 1.429 . S
C310 N307 1.350 . S
C310 C309 1.434 . S
C311 C312 1.369 . S
C311 C313 1.419 . S
C311 H315 0.930 . S
C312 C311 1.369 . S
C312 C321 1.429 . S
C313 C311 1.419 . S
C313 C314 1.363 . S
C313 H316 0.929 . S
C314 C313 1.363 . S
C314 C320 1.428 . S
H315 C311 0.930 . S
H316 C313 0.929 . S
S317 N318 1.613 . S
S317 N319 1.610 . S
N318 S317 1.613 . S
N318 C321 1.350 . S
N319 S317 1.610 . S
N319 C320 1.351 . S
C320 C314 1.428 . S
C320 N319 1.351 . S
C320 C321 1.434 . S
C321 C312 1.429 . S
C321 N318 1.350 . S
C321 C320 1.434 . S
C322 C323 1.369 . S
C322 C324 1.419 . S
C322 H326 0.930 . S
C323 C322 1.369 . S
C323 C332 1.429 . S
C324 C322 1.419 . S
C324 C325 1.363 . S
C324 H327 0.929 . S
C325 C324 1.363 . S
C325 C331 1.428 . S
H326 C322 0.930 . S
H327 C324 0.929 . S
S328 N329 1.613 . S
S328 N330 1.610 . S
N329 S328 1.613 . S
N329 C332 1.350 . S
N330 S328 1.610 . S
N330 C331 1.351 . S
C331 C325 1.428 . S
C331 N330 1.351 . S
C331 C332 1.434 . S
C332 C323 1.429 . S
C332 N329 1.350 . S
C332 C331 1.434 . S
C333 C334 1.369 . S
C333 C335 1.419 . S
C333 H337 0.930 . S
C334 C333 1.369 . S
C334 C343 1.429 . S
C335 C333 1.419 . S
C335 C336 1.363 . S
C335 H338 0.929 . S
C336 C335 1.363 . S
C336 C342 1.428 . S
H337 C333 0.930 . S
H338 C335 0.929 . S
S339 N340 1.613 . S
S339 N341 1.610 . S
N340 S339 1.613 . S
N340 C343 1.350 . S
N341 S339 1.610 . S
N341 C342 1.351 . S
C342 C336 1.428 . S
C342 N341 1.351 . S
C342 C343 1.434 . S
C343 C334 1.429 . S
C343 N340 1.350 . S
C343 C342 1.434 . S
C344 C345 1.369 . S
C344 C346 1.419 . S
C344 H348 0.930 . S
C345 C344 1.369 . S
C345 C354 1.429 . S
C346 C344 1.419 . S
C346 C347 1.363 . S
C346 H349 0.929 . S
C347 C346 1.363 . S
C347 C353 1.428 . S
H348 C344 0.930 . S
H349 C346 0.929 . S
S350 N351 1.613 . S
S350 N352 1.610 . S
N351 S350 1.613 . S
N351 C354 1.350 . S
N352 S350 1.610 . S
N352 C353 1.351 . S
C353 C347 1.428 . S
C353 N352 1.351 . S
C353 C354 1.434 . S
C354 C345 1.429 . S
C354 N351 1.350 . S
C354 C353 1.434 . S
C355 C356 1.369 . S
C355 C357 1.419 . S
C355 H359 0.930 . S
C356 C355 1.369 . S
C356 C365 1.429 . S
C357 C355 1.419 . S
C357 C358 1.363 . S
C357 H360 0.929 . S
C358 C357 1.363 . S
C358 C364 1.428 . S
H359 C355 0.930 . S
H360 C357 0.929 . S
S361 N362 1.613 . S
S361 N363 1.610 . S
N362 S361 1.613 . S
N362 C365 1.350 . S
N363 S361 1.610 . S
N363 C364 1.351 . S
C364 C358 1.428 . S
C364 N363 1.351 . S
C364 C365 1.434 . S
C365 C356 1.429 . S
C365 N362 1.350 . S
C365 C364 1.434 . S
C366 C367 1.369 . S
C366 C368 1.419 1_554 S
C366 H370 0.930 . S
C367 C366 1.369 . S
C367 C376 1.429 1_455 S
C368 C366 1.419 1_556 S
C368 C369 1.363 . S
C368 H371 0.929 . S
C369 C368 1.363 . S
C369 C375 1.428 1_455 S
H370 C366 0.930 . S
H371 C368 0.929 . S
S372 N373 1.613 . S
S372 N374 1.610 1_554 S
N373 S372 1.613 . S
N373 C376 1.350 . S
N374 S372 1.610 1_556 S
N374 C375 1.351 . S
C375 C369 1.428 1_655 S
C375 N374 1.351 . S
C375 C376 1.434 1_556 S
C376 C367 1.429 1_655 S
C376 N373 1.350 . S
C376 C375 1.434 1_554 S
C377 C378 1.369 . S
C377 C379 1.419 . S
C377 H381 0.930 . S
C378 C377 1.369 . S
C378 C387 1.429 . S
C379 C377 1.419 . S
C379 C380 1.363 . S
C379 H382 0.929 . S
C380 C379 1.363 . S
C380 C386 1.428 . S
H381 C377 0.930 . S
H382 C379 0.929 . S
S383 N384 1.613 . S
S383 N385 1.610 . S
N384 S383 1.613 . S
N384 C387 1.350 . S
N385 S383 1.610 . S
N385 C386 1.351 . S
C386 C380 1.428 . S
C386 N385 1.351 . S
C386 C387 1.434 . S
C387 C378 1.429 . S
C387 N384 1.350 . S
C387 C386 1.434 . S
C388 C389 1.369 . S
C388 C390 1.419 . S
C388 H392 0.930 . S
C389 C388 1.369 . S
C389 C398 1.429 . S
C390 C388 1.419 . S
C390 C391 1.363 . S
C390 H393 0.929 . S
C391 C390 1.363 . S
C391 C397 1.428 . S
H392 C388 0.930 . S
H393 C390 0.929 . S
S394 N395 1.613 . S
S394 N396 1.610 . S
N395 S394 1.613 . S
N395 C398 1.350 . S
N396 S394 1.610 . S
N396 C397 1.351 . S
C397 C391 1.428 . S
C397 N396 1.351 . S
C397 C398 1.434 . S
C398 C389 1.429 . S
C398 N395 1.350 . S
C398 C397 1.434 . S
C399 C400 1.369 . S
C399 C401 1.419 . S
C399 H403 0.930 . S
C400 C399 1.369 . S
C400 C409 1.429 . S
C401 C399 1.419 . S
C401 C402 1.363 . S
C401 H404 0.929 1_545 S
C402 C401 1.363 . S
C402 C408 1.428 . S
H403 C399 0.930 . S
H404 C401 0.929 1_565 S
S405 N406 1.613 . S
S405 N407 1.610 . S
N406 S405 1.613 . S
N406 C409 1.350 . S
N407 S405 1.610 . S
N407 C408 1.351 . S
C408 C402 1.428 . S
C408 N407 1.351 . S
C408 C409 1.434 . S
C409 C400 1.429 . S
C409 N406 1.350 . S
C409 C408 1.434 . S
C410 C411 1.369 . S
C410 C412 1.419 1_556 S
C410 H414 0.930 . S
C411 C410 1.369 . S
C411 C420 1.429 . S
C412 C410 1.419 1_554 S
C412 C413 1.363 . S
C412 H415 0.929 . S
C413 C412 1.363 . S
C413 C419 1.428 1_554 S
H414 C410 0.930 . S
H415 C412 0.929 . S
S416 N417 1.613 . S
S416 N418 1.610 1_556 S
N417 S416 1.613 . S
N417 C420 1.350 . S
N418 S416 1.610 1_554 S
N418 C419 1.351 1_554 S
C419 C413 1.428 1_556 S
C419 N418 1.351 1_556 S
C419 C420 1.434 . S
C420 C411 1.429 . S
C420 N417 1.350 . S
C420 C419 1.434 . S
C421 C422 1.369 . S
C421 C423 1.419 . S
C421 H425 0.930 . S
C422 C421 1.369 . S
C422 C431 1.429 . S
C423 C421 1.419 . S
C423 C424 1.363 . S
C423 H426 0.929 . S
C424 C423 1.363 . S
C424 C430 1.428 . S
H425 C421 0.930 . S
H426 C423 0.929 . S
S427 N428 1.613 . S
S427 N429 1.610 . S
N428 S427 1.613 . S
N428 C431 1.350 . S
N429 S427 1.610 . S
N429 C430 1.351 . S
C430 C424 1.428 . S
C430 N429 1.351 . S
C430 C431 1.434 . S
C431 C422 1.429 . S
C431 N428 1.350 . S
C431 C430 1.434 . S
C235 C9 0.862 . S
C237 C226 0.801 . S
C246 C49 0.607 . S
C248 C188 0.701 . S
C257 C89 0.508 . S
C259 C207 0.602 . S
C268 C26 0.621 . S
C270 C221 0.574 . S
C281 C183 0.271 . S
C279 C66 0.489 . S
C292 C202 0.378 . S
C290 C106 0.605 . S
C301 C43 3.128 . S
C303 C150 3.037 . S
C312 C83 3.074 . S
C314 C164 3.025 . S
C323 C22 3.107 . S
C325 C126 3.050 . S
C336 C145 3.049 . S
C334 C62 3.103 . S
C347 C169 3.056 . S
C345 C102 3.145 . S
C356 C3 3.129 . S
C358 C131 3.042 . S
C369 C160 1.747 . S
C367 C15 1.739 . S
C378 C55 1.771 . S
C380 C122 1.772 . S
C389 C95 1.755 . S
C391 C141 1.773 . S
C402 C198 1.247 . S
C400 C42 1.219 . S
C413 C217 1.266 . S
C411 C82 1.265 . S
C422 C2 1.207 . S
C424 C179 1.229 . S
