# Generated by pormake.
# Topology ctn, (3,4)-cn, num edge types: 1
# Building blocks:
#     Node 0, Type 0, BuildingBlock: MIDCAF_clean_linker_0, # of connection points: 3
#     Node 1, Type 0, BuildingBlock: MIDCAF_clean_linker_0, # of connection points: 3
#     Node 2, Type 0, BuildingBlock: MIDCAF_clean_linker_0, # of connection points: 3
#     Node 3, Type 0, BuildingBlock: MIDCAF_clean_linker_0, # of connection points: 3
#     Node 4, Type 0, BuildingBlock: MIDCAF_clean_linker_0, # of connection points: 3
#     Node 5, Type 0, BuildingBlock: MIDCAF_clean_linker_0, # of connection points: 3
#     Node 6, Type 0, BuildingBlock: MIDCAF_clean_linker_0, # of connection points: 3
#     Node 7, Type 0, BuildingBlock: MIDCAF_clean_linker_0, # of connection points: 3
#     Node 8, Type 0, BuildingBlock: MIDCAF_clean_linker_0, # of connection points: 3
#     Node 9, Type 0, BuildingBlock: MIDCAF_clean_linker_0, # of connection points: 3
#     Node 10, Type 0, BuildingBlock: MIDCAF_clean_linker_0, # of connection points: 3
#     Node 11, Type 0, BuildingBlock: MIDCAF_clean_linker_0, # of connection points: 3
#     Node 12, Type 0, BuildingBlock: MIDCAF_clean_linker_0, # of connection points: 3
#     Node 13, Type 0, BuildingBlock: MIDCAF_clean_linker_0, # of connection points: 3
#     Node 14, Type 0, BuildingBlock: MIDCAF_clean_linker_0, # of connection points: 3
#     Node 15, Type 0, BuildingBlock: MIDCAF_clean_linker_0, # of connection points: 3
#     Node 16, Type 1, BuildingBlock: UXUYUI_clean_sbu_0, # of connection points: 4
#     Node 17, Type 1, BuildingBlock: UXUYUI_clean_sbu_0, # of connection points: 4
#     Node 18, Type 1, BuildingBlock: UXUYUI_clean_sbu_0, # of connection points: 4
#     Node 19, Type 1, BuildingBlock: UXUYUI_clean_sbu_0, # of connection points: 4
#     Node 20, Type 1, BuildingBlock: UXUYUI_clean_sbu_0, # of connection points: 4
#     Node 21, Type 1, BuildingBlock: UXUYUI_clean_sbu_0, # of connection points: 4
#     Node 22, Type 1, BuildingBlock: UXUYUI_clean_sbu_0, # of connection points: 4
#     Node 23, Type 1, BuildingBlock: UXUYUI_clean_sbu_0, # of connection points: 4
#     Node 24, Type 1, BuildingBlock: UXUYUI_clean_sbu_0, # of connection points: 4
#     Node 25, Type 1, BuildingBlock: UXUYUI_clean_sbu_0, # of connection points: 4
#     Node 26, Type 1, BuildingBlock: UXUYUI_clean_sbu_0, # of connection points: 4
#     Node 27, Type 1, BuildingBlock: UXUYUI_clean_sbu_0, # of connection points: 4
#     Edge 28, Type (0, 1), None
#     Edge 29, Type (0, 1), None
#     Edge 30, Type (0, 1), None
#     Edge 31, Type (0, 1), None
#     Edge 32, Type (0, 1), None
#     Edge 33, Type (0, 1), None
#     Edge 34, Type (0, 1), None
#     Edge 35, Type (0, 1), None
#     Edge 36, Type (0, 1), None
#     Edge 37, Type (0, 1), None
#     Edge 38, Type (0, 1), None
#     Edge 39, Type (0, 1), None
#     Edge 40, Type (0, 1), None
#     Edge 41, Type (0, 1), None
#     Edge 42, Type (0, 1), None
#     Edge 43, Type (0, 1), None
#     Edge 44, Type (0, 1), None
#     Edge 45, Type (0, 1), None
#     Edge 46, Type (0, 1), None
#     Edge 47, Type (0, 1), None
#     Edge 48, Type (0, 1), None
#     Edge 49, Type (0, 1), None
#     Edge 50, Type (0, 1), None
#     Edge 51, Type (0, 1), None
#     Edge 52, Type (0, 1), None
#     Edge 53, Type (0, 1), None
#     Edge 54, Type (0, 1), None
#     Edge 55, Type (0, 1), None
#     Edge 56, Type (0, 1), None
#     Edge 57, Type (0, 1), None
#     Edge 58, Type (0, 1), None
#     Edge 59, Type (0, 1), None
#     Edge 60, Type (0, 1), None
#     Edge 61, Type (0, 1), None
#     Edge 62, Type (0, 1), None
#     Edge 63, Type (0, 1), None
#     Edge 64, Type (0, 1), None
#     Edge 65, Type (0, 1), None
#     Edge 66, Type (0, 1), None
#     Edge 67, Type (0, 1), None
#     Edge 68, Type (0, 1), None
#     Edge 69, Type (0, 1), None
#     Edge 70, Type (0, 1), None
#     Edge 71, Type (0, 1), None
#     Edge 72, Type (0, 1), None
#     Edge 73, Type (0, 1), None
#     Edge 74, Type (0, 1), None
#     Edge 75, Type (0, 1), None
# Relax obj value: 0.000
# Max RMSD: 0.004
# Mean RMSD: 0.003
data_MOF--net-ctn--node1-UXUYUI_clean_sbu_0--node2-MIDCAF_clean_linker_0--edge1-none
_symmetry_space_group_name_H-M    P1
_symmetry_Int_Tables_number       1
_symmetry_cell_setting            triclinic
loop_
_symmetry_equiv_pos_as_xyz
'x, y, z'
_cell_length_a     49.397964
_cell_length_b     49.399836
_cell_length_c     49.389857
_cell_angle_alpha  90.04191
_cell_angle_beta   90.031168
_cell_angle_gamma 90.09115
loop_
_atom_site_label
_atom_site_type_symbol
_atom_site_fract_x
_atom_site_fract_y
_atom_site_fract_z
_atom_type_partial_charge
C0 C 0.97377 0.05307 0.11935 0.0
C1 C 0.97507 0.02911 0.13467 0.0
C2 C 0.99455 0.00956 0.12774 0.0
C3 C 0.01228 0.01386 0.1061 0.0
H4 H 0.08665 0.98942 0.076 0.0
H5 H 0.12461 0.95901 0.06874 0.0
H6 H 0.13911 0.99562 0.99062 0.0
H7 H 0.10168 0.02663 0.99822 0.0
H8 H 0.07634 0.08639 0.98933 0.0
H9 H 0.06905 0.12436 0.9589 0.0
H10 H 0.99091 0.13864 0.99549 0.0
H11 H 0.99854 0.10122 0.02652 0.0
H12 H 0.98977 0.07604 0.08634 0.0
H13 H 0.95936 0.06879 0.12435 0.0
H14 H 0.99589 0.99068 0.1388 0.0
H15 H 0.02691 0.99827 0.10132 0.0
N16 N 0.05077 0.0253 0.06335 0.0
N17 N 0.06369 0.05044 0.02522 0.0
N18 N 0.02561 0.06335 0.05039 0.0
C19 C 0.06795 0.02924 0.04221 0.0
C20 C 0.04257 0.0676 0.02916 0.0
C21 C 0.02955 0.04226 0.06759 0.0
C22 C 0.09104 0.01055 0.03771 0.0
C23 C 0.09791 0.99104 0.05726 0.0
C24 C 0.11963 0.97344 0.05302 0.0
C25 C 0.13496 0.97476 0.02905 0.0
C26 C 0.12806 0.99427 0.0095 0.0
C27 C 0.10644 0.01199 0.01381 0.0
C28 C 0.03805 0.09068 0.01045 0.0
C29 C 0.05759 0.0976 0.99093 0.0
C30 C 0.05333 0.11933 0.97332 0.0
C31 C 0.02935 0.1346 0.97464 0.0
C32 C 0.0098 0.12764 0.99414 0.0
C33 C 0.01413 0.10602 0.01187 0.0
C34 C 0.01086 0.03776 0.0907 0.0
C35 C 0.99137 0.0573 0.0976 0.0
C36 C 0.24433 0.63261 0.25123 0.0
C37 C 0.2248 0.6256 0.23169 0.0
C38 C 0.22342 0.64088 0.20771 0.0
C39 C 0.241 0.66267 0.20343 0.0
H40 H 0.24811 0.7338 0.15941 0.0
H41 H 0.24041 0.76484 0.12201 0.0
H42 H 0.31859 0.80155 0.13635 0.0
H43 H 0.32595 0.7711 0.17429 0.0
H44 H 0.35144 0.76223 0.23401 0.0
H45 H 0.389 0.76983 0.26497 0.0
H46 H 0.37466 0.69161 0.30144 0.0
H47 H 0.33657 0.68435 0.27108 0.0
H48 H 0.2767 0.65912 0.26246 0.0
H49 H 0.24573 0.6216 0.27012 0.0
H50 H 0.20897 0.63582 0.192 0.0
H51 H 0.23935 0.67389 0.18467 0.0
N52 N 0.27523 0.70996 0.19731 0.0
N53 N 0.31339 0.73516 0.21018 0.0
N54 N 0.30052 0.69703 0.23534 0.0
C55 C 0.29221 0.73121 0.19304 0.0
C56 C 0.31771 0.71817 0.23138 0.0
C57 C 0.27924 0.69276 0.21841 0.0
C58 C 0.28764 0.74992 0.16998 0.0
C59 C 0.26369 0.74847 0.15463 0.0
C60 C 0.25933 0.76622 0.13302 0.0
C61 C 0.27887 0.78576 0.12608 0.0
C62 C 0.30288 0.7871 0.14136 0.0
C63 C 0.30717 0.76948 0.16307 0.0
C64 C 0.34087 0.72268 0.25002 0.0
C65 C 0.35627 0.74662 0.24861 0.0
C66 C 0.37796 0.75093 0.26631 0.0
C67 C 0.38494 0.73135 0.28576 0.0
C68 C 0.36962 0.70735 0.28705 0.0
C69 C 0.34782 0.70311 0.26949 0.0
C70 C 0.26055 0.66964 0.22295 0.0
C71 C 0.26203 0.65428 0.24688 0.0
C72 C 1.00148 0.38269 0.99411 0.0
C73 C 0.98194 0.37571 0.97457 0.0
C74 C 0.95797 0.39099 0.9732 0.0
C75 C 0.9537 0.41274 0.99081 0.0
H76 H 0.90972 0.48384 0.99801 0.0
H77 H 0.87234 0.51489 0.99037 0.0
H78 H 0.8867 0.55142 0.06861 0.0
H79 H 0.92462 0.52097 0.07593 0.0
H80 H 0.98434 0.51209 0.10138 0.0
H81 H 0.0153 0.51963 0.13895 0.0
H82 H 0.05166 0.44141 0.12458 0.0
H83 H 0.02131 0.43421 0.08648 0.0
H84 H 0.01272 0.40914 0.02651 0.0
H85 H 0.02036 0.37168 0.99549 0.0
H86 H 0.94226 0.38595 0.95874 0.0
H87 H 0.93496 0.42396 0.98917 0.0
N88 N 0.94761 0.45995 0.02511 0.0
N89 N 0.96048 0.48507 0.06332 0.0
N90 N 0.98561 0.44698 0.05039 0.0
C91 C 0.94335 0.48116 0.04212 0.0
C92 C 0.98166 0.46808 0.06761 0.0
C93 C 0.96869 0.44276 0.02909 0.0
C94 C 0.92029 0.49988 0.03758 0.0
C95 C 0.90494 0.49848 0.01362 0.0
C96 C 0.88335 0.51622 0.00928 0.0
C97 C 0.87642 0.53572 0.02886 0.0
C98 C 0.8917 0.53701 0.05288 0.0
C99 C 0.9134 0.51938 0.05714 0.0
C100 C 1.0003 0.47255 0.09079 0.0
C101 C 0.99892 0.49646 0.1062 0.0
C102 C 0.01661 0.50074 0.1279 0.0
C103 C 0.03603 0.48114 0.13488 0.0
C104 C 0.0373 0.45716 0.11955 0.0
C105 C 0.01973 0.45296 0.09773 0.0
C106 C 0.97322 0.41967 0.01037 0.0
C107 C 0.99714 0.40433 0.01184 0.0
C108 C 0.75181 0.74416 0.13304 0.0
C109 C 0.7323 0.72459 0.12605 0.0
C110 C 0.7083 0.7232 0.1413 0.0
C111 C 0.70397 0.74081 0.16303 0.0
H112 H 0.65975 0.74801 0.23401 0.0
H113 H 0.62225 0.74033 0.26497 0.0
H114 H 0.63645 0.81861 0.3015 0.0
H115 H 0.67448 0.82595 0.27113 0.0
H116 H 0.73428 0.85141 0.26243 0.0
H117 H 0.76524 0.88899 0.27007 0.0
H118 H 0.80192 0.8746 0.19196 0.0
H119 H 0.77157 0.83649 0.18467 0.0
H120 H 0.76297 0.7766 0.15949 0.0
H121 H 0.77072 0.74557 0.12205 0.0
H122 H 0.69261 0.70871 0.13625 0.0
H123 H 0.68519 0.73915 0.17423 0.0
N124 N 0.69771 0.77514 0.2102 0.0
N125 N 0.71051 0.81334 0.23536 0.0
N126 N 0.73578 0.80043 0.19733 0.0
C127 C 0.69337 0.79215 0.2314 0.0
C128 C 0.73176 0.81764 0.21842 0.0
C129 C 0.71886 0.77912 0.19306 0.0
C130 C 0.67025 0.78759 0.25005 0.0
C131 C 0.65491 0.76362 0.24863 0.0
C132 C 0.63325 0.75926 0.26632 0.0
C133 C 0.62625 0.77884 0.28579 0.0
C134 C 0.64151 0.80287 0.2871 0.0
C135 C 0.66328 0.80716 0.26953 0.0
C136 C 0.75041 0.84082 0.22294 0.0
C137 C 0.74893 0.85623 0.24685 0.0
C138 C 0.76662 0.87793 0.25118 0.0
C139 C 0.78613 0.8849 0.23164 0.0
C140 C 0.78749 0.86957 0.20767 0.0
C141 C 0.76993 0.84776 0.20341 0.0
C142 C 0.72346 0.7604 0.16998 0.0
C143 C 0.74741 0.76189 0.15466 0.0
C144 C 0.05309 0.89146 0.53711 0.0
C145 C 0.02907 0.87618 0.5358 0.0
C146 C 0.0095 0.88314 0.51632 0.0
C147 C 0.01385 0.90479 0.49861 0.0
H148 H 0.98938 0.93504 0.4242 0.0
H149 H 0.95896 0.94242 0.3862 0.0
H150 H 0.99588 0.02048 0.37191 0.0
H151 H 0.02689 0.01277 0.40937 0.0
H152 H 0.08677 0.02141 0.43461 0.0
H153 H 0.1249 0.05173 0.44191 0.0
H154 H 0.13919 0.0151 0.52005 0.0
H155 H 0.1016 0.98417 0.51241 0.0
H156 H 0.07615 0.92443 0.52113 0.0
H157 H 0.06882 0.88643 0.55152 0.0
H158 H 0.99058 0.87212 0.51497 0.0
H159 H 0.99825 0.9096 0.48397 0.0
N160 N 0.02537 0.94757 0.46015 0.0
N161 N 0.05067 0.98563 0.44727 0.0
N162 N 0.06356 0.96039 0.48532 0.0
C163 C 0.02937 0.96871 0.443 0.0
C164 C 0.06787 0.98163 0.46837 0.0
C165 C 0.04237 0.94326 0.48136 0.0
C166 C 0.01066 0.97329 0.41991 0.0
C167 C 0.99105 0.9538 0.41298 0.0
C168 C 0.97346 0.9581 0.39124 0.0
C169 C 0.97487 0.98209 0.37596 0.0
C170 C 0.99445 1.00159 0.38293 0.0
C171 C 0.01217 0.99721 0.40456 0.0
C172 C 0.09104 1.00027 0.4729 0.0
C173 C 0.09802 0.01977 0.45337 0.0
C174 C 0.11984 0.03732 0.45763 0.0
C175 C 0.13515 0.03596 0.48161 0.0
C176 C 0.12815 0.01648 0.50115 0.0
C177 C 0.10643 0.99881 0.49682 0.0
C178 C 0.03781 0.92014 0.50003 0.0
C179 C 0.05737 0.91321 0.51953 0.0
C180 C 0.25141 0.76647 0.87777 0.0
C181 C 0.23185 0.78592 0.88474 0.0
C182 C 0.20789 0.78724 0.8694 0.0
C183 C 0.20366 0.76969 0.84758 0.0
H184 H 0.15975 0.76268 0.77645 0.0
H185 H 0.12227 0.77036 0.74546 0.0
H186 H 0.13651 0.69229 0.70862 0.0
H187 H 0.17453 0.68495 0.73901 0.0
H188 H 0.23434 0.6596 0.74786 0.0
H189 H 0.26533 0.62217 0.7402 0.0
H190 H 0.30195 0.63653 0.81841 0.0
H191 H 0.27156 0.67449 0.82573 0.0
H192 H 0.26271 0.73418 0.85125 0.0
H193 H 0.27029 0.76511 0.88883 0.0
H194 H 0.19216 0.80164 0.87443 0.0
H195 H 0.18492 0.77131 0.83631 0.0
N196 N 0.19761 0.73556 0.80026 0.0
N197 N 0.21053 0.69754 0.77496 0.0
N198 N 0.23568 0.71038 0.81316 0.0
C199 C 0.19336 0.71864 0.77896 0.0
C200 C 0.23174 0.69325 0.79196 0.0
C201 C 0.21872 0.73159 0.81746 0.0
C202 C 0.17027 0.7232 0.76026 0.0
C203 C 0.15493 0.74712 0.76175 0.0
C204 C 0.13328 0.75147 0.74405 0.0
C205 C 0.12628 0.73196 0.72449 0.0
C206 C 0.14156 0.70798 0.72309 0.0
C207 C 0.16332 0.7037 0.74068 0.0
C208 C 0.25042 0.67017 0.78741 0.0
C209 C 0.24898 0.65481 0.76346 0.0
C210 C 0.2667 0.63319 0.75911 0.0
C211 C 0.2862 0.62625 0.77867 0.0
C212 C 0.28753 0.64154 0.80268 0.0
C213 C 0.26994 0.66327 0.80696 0.0
C214 C 0.22321 0.75022 0.84064 0.0
C215 C 0.24712 0.74879 0.85606 0.0
C216 C 1.00148 0.62782 0.51639 0.0
C217 C 0.98191 0.6348 0.53586 0.0
C218 C 0.95792 0.61947 0.53719 0.0
C219 C 0.95368 0.59766 0.51964 0.0
H220 H 0.90966 0.52653 0.51268 0.0
H221 H 0.87216 0.49554 0.52037 0.0
H222 H 0.88642 0.45871 0.44228 0.0
H223 H 0.92447 0.4891 0.43493 0.0
H224 H 0.98432 0.49784 0.40964 0.0
H225 H 0.01531 0.49012 0.3722 0.0
H226 H 0.05198 0.56835 0.38636 0.0
H227 H 0.02159 0.57574 0.42435 0.0
H228 H 0.01276 0.60129 0.4841 0.0
H229 H 0.02037 0.63888 0.51503 0.0
H230 H 0.94219 0.62451 0.5516 0.0
H231 H 0.93492 0.5864 0.52127 0.0
N232 N 0.94759 0.55034 0.48553 0.0
N233 N 0.9605 0.52502 0.44751 0.0
N234 N 0.9857 0.5632 0.46033 0.0
C235 C 0.94332 0.52903 0.46862 0.0
C236 C 0.98174 0.542 0.44321 0.0
C237 C 0.96872 0.56753 0.48154 0.0
C238 C 0.9202 0.51034 0.47318 0.0
C239 C 0.90484 0.51184 0.49711 0.0
C240 C 0.88318 0.49413 0.50148 0.0
C241 C 0.87618 0.47457 0.48196 0.0
C242 C 0.89147 0.47318 0.45798 0.0
C243 C 0.91325 0.49076 0.45368 0.0
C244 C 1.00043 0.53741 0.42012 0.0
C245 C 0.99898 0.51343 0.40481 0.0
C246 C 0.01669 0.50905 0.38318 0.0
C247 C 0.0362 0.5286 0.37618 0.0
C248 C 0.03755 0.55263 0.39142 0.0
C249 C 0.01996 0.55695 0.41316 0.0
C250 C 0.97323 0.59071 0.50016 0.0
C251 C 0.99716 0.60612 0.49872 0.0
C252 C 0.87812 0.75953 0.74427 0.0
C253 C 0.88505 0.77908 0.72476 0.0
C254 C 0.86975 0.80303 0.72344 0.0
C255 C 0.84801 0.80726 0.74105 0.0
H256 H 0.77691 0.85117 0.74826 0.0
H257 H 0.74586 0.88856 0.74066 0.0
H258 H 0.70939 0.87421 0.81887 0.0
H259 H 0.73984 0.83628 0.82614 0.0
H260 H 0.7487 0.77652 0.85146 0.0
H261 H 0.74114 0.74553 0.88894 0.0
H262 H 0.81929 0.70906 0.87451 0.0
H263 H 0.82652 0.73946 0.83649 0.0
H264 H 0.85172 0.74824 0.77666 0.0
H265 H 0.88916 0.74065 0.74563 0.0
H266 H 0.87475 0.81875 0.70901 0.0
H267 H 0.83676 0.826 0.73944 0.0
N268 N 0.80083 0.81331 0.77533 0.0
N269 N 0.7757 0.80038 0.81347 0.0
N270 N 0.8138 0.77526 0.80053 0.0
C271 C 0.77962 0.81755 0.79232 0.0
C272 C 0.79269 0.77919 0.81773 0.0
C273 C 0.81803 0.79222 0.77928 0.0
C274 C 0.76091 0.8406 0.78781 0.0
C275 C 0.76229 0.85595 0.76388 0.0
C276 C 0.74454 0.87755 0.75956 0.0
C277 C 0.72507 0.88448 0.77914 0.0
C278 C 0.7238 0.86921 0.80313 0.0
C279 C 0.74142 0.8475 0.80738 0.0
C280 C 0.78821 0.76051 0.84084 0.0
C281 C 0.76431 0.76191 0.85624 0.0
C282 C 0.76002 0.7442 0.87789 0.0
C283 C 0.77959 0.72474 0.88483 0.0
C284 C 0.80356 0.72346 0.86951 0.0
C285 C 0.80777 0.74104 0.84775 0.0
C286 C 0.84111 0.78772 0.76057 0.0
C287 C 0.85649 0.76383 0.762 0.0
C288 C 0.37812 0.25953 0.24427 0.0
C289 C 0.38505 0.27907 0.22476 0.0
C290 C 0.36975 0.30303 0.22344 0.0
C291 C 0.34801 0.30726 0.24105 0.0
H292 H 0.27691 0.35117 0.24826 0.0
H293 H 0.24586 0.38856 0.24066 0.0
H294 H 0.20939 0.3742 0.31887 0.0
H295 H 0.23984 0.33628 0.32614 0.0
H296 H 0.2487 0.27651 0.35145 0.0
H297 H 0.24114 0.24552 0.38894 0.0
H298 H 0.31929 0.20906 0.37451 0.0
H299 H 0.32652 0.23945 0.33649 0.0
H300 H 0.35172 0.24824 0.27665 0.0
H301 H 0.38916 0.24065 0.24562 0.0
H302 H 0.37475 0.31875 0.209 0.0
H303 H 0.33676 0.32599 0.23944 0.0
N304 N 0.30083 0.3133 0.27533 0.0
N305 N 0.2757 0.30038 0.31346 0.0
N306 N 0.3138 0.27526 0.30053 0.0
C307 C 0.27962 0.31754 0.29232 0.0
C308 C 0.29269 0.27918 0.31772 0.0
C309 C 0.31803 0.29222 0.27928 0.0
C310 C 0.2609 0.3406 0.28781 0.0
C311 C 0.26228 0.35595 0.26387 0.0
C312 C 0.24454 0.37755 0.25956 0.0
C313 C 0.22507 0.38448 0.27914 0.0
C314 C 0.22379 0.3692 0.30313 0.0
C315 C 0.24141 0.34749 0.30737 0.0
C316 C 0.28821 0.26051 0.34084 0.0
C317 C 0.26431 0.2619 0.35624 0.0
C318 C 0.26002 0.24419 0.37789 0.0
C319 C 0.27959 0.22474 0.38483 0.0
C320 C 0.30356 0.22345 0.36951 0.0
C321 C 0.30777 0.24104 0.34774 0.0
C322 C 0.34111 0.28772 0.26057 0.0
C323 C 0.35649 0.26383 0.262 0.0
C324 C 0.50147 0.88269 0.49411 0.0
C325 C 0.48194 0.87571 0.47457 0.0
C326 C 0.45796 0.89098 0.47321 0.0
C327 C 0.4537 0.91274 0.49082 0.0
H328 H 0.40972 0.98384 0.49802 0.0
H329 H 0.37234 0.01489 0.49037 0.0
H330 H 0.3867 0.05143 0.56862 0.0
H331 H 0.42462 0.02097 0.57593 0.0
H332 H 0.48434 0.01209 0.60138 0.0
H333 H 0.5153 0.01963 0.63895 0.0
H334 H 0.55166 0.94142 0.62458 0.0
H335 H 0.52131 0.93421 0.58648 0.0
H336 H 0.51272 0.90914 0.52652 0.0
H337 H 0.52036 0.87168 0.49549 0.0
H338 H 0.44226 0.88595 0.45875 0.0
H339 H 0.43495 0.92395 0.48918 0.0
N340 N 0.44761 0.95995 0.52511 0.0
N341 N 0.46048 0.98507 0.56332 0.0
N342 N 0.48562 0.94698 0.5504 0.0
C343 C 0.44335 0.98116 0.54213 0.0
C344 C 0.48167 0.96808 0.56761 0.0
C345 C 0.46869 0.94276 0.5291 0.0
C346 C 0.42029 0.99988 0.53758 0.0
C347 C 0.40494 0.99848 0.51363 0.0
C348 C 0.38335 0.01622 0.50929 0.0
C349 C 0.37642 0.03572 0.52886 0.0
C350 C 0.3917 0.03701 0.55288 0.0
C351 C 0.4134 0.01939 0.55715 0.0
C352 C 0.50031 0.97255 0.59079 0.0
C353 C 0.49892 0.99647 0.6062 0.0
C354 C 0.51661 1.00074 0.6279 0.0
C355 C 0.53603 0.98115 0.63488 0.0
C356 C 0.5373 0.95717 0.61955 0.0
C357 C 0.51974 0.95296 0.59774 0.0
C358 C 0.47322 0.91967 0.51038 0.0
C359 C 0.49714 0.90432 0.51184 0.0
C360 C 0.25182 0.24416 0.63304 0.0
C361 C 0.23231 0.22459 0.62604 0.0
C362 C 0.2083 0.2232 0.64129 0.0
C363 C 0.20397 0.24081 0.66303 0.0
H364 H 0.15976 0.248 0.73401 0.0
H365 H 0.12226 0.24033 0.76497 0.0
H366 H 0.13647 0.3186 0.8015 0.0
H367 H 0.17449 0.32595 0.77114 0.0
H368 H 0.23429 0.35141 0.76244 0.0
H369 H 0.26525 0.38899 0.77007 0.0
H370 H 0.30193 0.3746 0.69196 0.0
H371 H 0.27157 0.33649 0.68466 0.0
H372 H 0.26298 0.2766 0.65949 0.0
H373 H 0.27073 0.24557 0.62205 0.0
H374 H 0.19261 0.20871 0.63625 0.0
H375 H 0.1852 0.23915 0.67423 0.0
N376 N 0.19772 0.27513 0.7102 0.0
N377 N 0.21052 0.31334 0.73536 0.0
N378 N 0.23579 0.30042 0.69733 0.0
C379 C 0.19338 0.29214 0.7314 0.0
C380 C 0.23177 0.31764 0.71842 0.0
C381 C 0.21887 0.27912 0.69306 0.0
C382 C 0.17026 0.28759 0.75005 0.0
C383 C 0.15492 0.26361 0.74863 0.0
C384 C 0.13326 0.25926 0.76632 0.0
C385 C 0.12626 0.27883 0.78579 0.0
C386 C 0.14152 0.30287 0.7871 0.0
C387 C 0.16329 0.30715 0.76953 0.0
C388 C 0.25041 0.34081 0.72294 0.0
C389 C 0.24894 0.35623 0.74685 0.0
C390 C 0.26663 0.37793 0.75118 0.0
C391 C 0.28614 0.3849 0.73164 0.0
C392 C 0.2875 0.36957 0.70767 0.0
C393 C 0.26993 0.34776 0.70341 0.0
C394 C 0.22347 0.2604 0.66998 0.0
C395 C 0.24742 0.26189 0.65466 0.0
C396 C 0.74434 0.13261 0.75123 0.0
C397 C 0.72481 0.1256 0.73169 0.0
C398 C 0.72343 0.14089 0.70771 0.0
C399 C 0.741 0.16268 0.70343 0.0
H400 H 0.74811 0.2338 0.65942 0.0
H401 H 0.74042 0.26485 0.62201 0.0
H402 H 0.8186 0.30156 0.63635 0.0
H403 H 0.82596 0.27111 0.67429 0.0
H404 H 0.85145 0.26223 0.73401 0.0
H405 H 0.88901 0.26984 0.76497 0.0
H406 H 0.87467 0.19162 0.80143 0.0
H407 H 0.83658 0.18435 0.77108 0.0
H408 H 0.77671 0.15913 0.76246 0.0
H409 H 0.74574 0.1216 0.77012 0.0
H410 H 0.70897 0.13583 0.692 0.0
H411 H 0.73935 0.1739 0.68468 0.0
N412 N 0.77524 0.20996 0.69731 0.0
N413 N 0.8134 0.23517 0.71018 0.0
N414 N 0.80053 0.19704 0.73534 0.0
C415 C 0.79222 0.23121 0.69304 0.0
C416 C 0.81772 0.21818 0.73138 0.0
C417 C 0.77924 0.19277 0.71841 0.0
C418 C 0.78765 0.24993 0.66998 0.0
C419 C 0.76369 0.24848 0.65463 0.0
C420 C 0.75933 0.26622 0.63302 0.0
C421 C 0.77887 0.28576 0.62608 0.0
C422 C 0.80288 0.2871 0.64136 0.0
C423 C 0.80718 0.26948 0.66307 0.0
C424 C 0.84088 0.22269 0.75002 0.0
C425 C 0.85627 0.24662 0.74861 0.0
C426 C 0.87796 0.25093 0.76631 0.0
C427 C 0.88494 0.23136 0.78575 0.0
C428 C 0.86963 0.20736 0.78705 0.0
C429 C 0.84783 0.20312 0.76948 0.0
C430 C 0.76056 0.16964 0.72295 0.0
C431 C 0.76204 0.15429 0.74688 0.0
C432 C 0.47377 0.55307 0.61935 0.0
C433 C 0.47507 0.52911 0.63467 0.0
C434 C 0.49455 0.50956 0.62775 0.0
C435 C 0.51227 0.51386 0.6061 0.0
H436 H 0.58665 0.48943 0.576 0.0
H437 H 0.62461 0.45902 0.56874 0.0
H438 H 0.63907 0.49558 0.49059 0.0
H439 H 0.60164 0.5266 0.49819 0.0
H440 H 0.57634 0.58638 0.48932 0.0
H441 H 0.56905 0.62436 0.45889 0.0
H442 H 0.49091 0.63865 0.49549 0.0
H443 H 0.49854 0.60122 0.52651 0.0
H444 H 0.48977 0.57604 0.58634 0.0
H445 H 0.45936 0.56879 0.62435 0.0
H446 H 0.49589 0.49069 0.6388 0.0
H447 H 0.5269 0.49827 0.60132 0.0
N448 N 0.55076 0.52529 0.56334 0.0
N449 N 0.56368 0.55043 0.52521 0.0
N450 N 0.5256 0.56335 0.55039 0.0
C451 C 0.56794 0.52922 0.5422 0.0
C452 C 0.54257 0.5676 0.52915 0.0
C453 C 0.52955 0.54225 0.56759 0.0
C454 C 0.59102 0.51054 0.5377 0.0
C455 C 0.5979 0.49103 0.55725 0.0
C456 C 0.61963 0.47344 0.55301 0.0
C457 C 0.63494 0.47474 0.52904 0.0
C458 C 0.62803 0.49424 0.50948 0.0
C459 C 0.60641 0.51196 0.51378 0.0
C460 C 0.53805 0.59067 0.51044 0.0
C461 C 0.55758 0.5976 0.49092 0.0
C462 C 0.55333 0.61933 0.47332 0.0
C463 C 0.52935 0.6346 0.47464 0.0
C464 C 0.5098 0.62764 0.49414 0.0
C465 C 0.51413 0.60602 0.51187 0.0
C466 C 0.51086 0.53776 0.5907 0.0
C467 C 0.49137 0.5573 0.5976 0.0
C468 C 0.55309 0.39146 0.03711 0.0
C469 C 0.52907 0.37618 0.0358 0.0
C470 C 0.5095 0.38314 0.01632 0.0
C471 C 0.51385 0.40479 0.99861 0.0
H472 H 0.48938 0.43504 0.9242 0.0
H473 H 0.45896 0.44242 0.8862 0.0
H474 H 0.49588 0.52049 0.87191 0.0
H475 H 0.52689 0.51277 0.90937 0.0
H476 H 0.58677 0.52141 0.93461 0.0
H477 H 0.6249 0.55174 0.94191 0.0
H478 H 0.63919 0.5151 0.02005 0.0
H479 H 0.6016 0.48417 0.01241 0.0
H480 H 0.57616 0.42443 0.02113 0.0
H481 H 0.56883 0.38643 0.05152 0.0
H482 H 0.49059 0.37212 0.01497 0.0
H483 H 0.49825 0.4096 0.98397 0.0
N484 N 0.52537 0.44757 0.96015 0.0
N485 N 0.55067 0.48564 0.94727 0.0
N486 N 0.56356 0.4604 0.98532 0.0
C487 C 0.52937 0.46871 0.943 0.0
C488 C 0.56787 0.48163 0.96837 0.0
C489 C 0.54237 0.44326 0.98136 0.0
C490 C 0.51066 0.47329 0.91991 0.0
C491 C 0.49106 0.4538 0.91298 0.0
C492 C 0.47346 0.45811 0.89124 0.0
C493 C 0.47487 0.48209 0.87596 0.0
C494 C 0.49445 0.50159 0.88293 0.0
C495 C 0.51217 0.49722 0.90457 0.0
C496 C 0.59105 0.50027 0.9729 0.0
C497 C 0.59802 0.51977 0.95337 0.0
C498 C 0.61984 0.53732 0.95763 0.0
C499 C 0.63516 0.53597 0.98161 0.0
C500 C 0.62815 0.51648 1.00115 0.0
C501 C 0.60644 0.49881 0.99682 0.0
C502 C 0.53781 0.42014 1.00003 0.0
C503 C 0.55737 0.41321 0.01953 0.0
C504 C 0.75141 0.26646 0.37777 0.0
C505 C 0.73185 0.28592 0.38474 0.0
C506 C 0.70789 0.28724 0.3694 0.0
C507 C 0.70366 0.26969 0.34758 0.0
H508 H 0.65975 0.26268 0.27644 0.0
H509 H 0.62227 0.27036 0.24546 0.0
H510 H 0.63651 0.19229 0.20862 0.0
H511 H 0.67453 0.18495 0.23901 0.0
H512 H 0.73434 0.1596 0.24786 0.0
H513 H 0.76533 0.12216 0.2402 0.0
H514 H 0.80195 0.13653 0.31841 0.0
H515 H 0.77156 0.17449 0.32573 0.0
H516 H 0.76271 0.23418 0.35124 0.0
H517 H 0.77029 0.26511 0.38883 0.0
H518 H 0.69216 0.30163 0.37443 0.0
H519 H 0.68492 0.2713 0.33631 0.0
N520 N 0.69761 0.23556 0.30026 0.0
N521 N 0.71053 0.19754 0.27496 0.0
N522 N 0.73568 0.21038 0.31315 0.0
C523 C 0.69336 0.21864 0.27896 0.0
C524 C 0.73174 0.19325 0.29196 0.0
C525 C 0.71872 0.23159 0.31746 0.0
C526 C 0.67027 0.2232 0.26025 0.0
C527 C 0.65493 0.24712 0.26175 0.0
C528 C 0.63328 0.25147 0.24404 0.0
C529 C 0.62628 0.23196 0.22449 0.0
C530 C 0.64156 0.20798 0.22309 0.0
C531 C 0.66332 0.2037 0.24067 0.0
C532 C 0.75042 0.17017 0.28741 0.0
C533 C 0.74899 0.15481 0.26346 0.0
C534 C 0.7667 0.13319 0.25911 0.0
C535 C 0.7862 0.12625 0.27867 0.0
C536 C 0.78753 0.14154 0.30268 0.0
C537 C 0.76994 0.16326 0.30695 0.0
C538 C 0.72321 0.25022 0.34064 0.0
C539 C 0.74712 0.24879 0.35606 0.0
C540 C 0.50148 0.12782 0.01639 0.0
C541 C 0.48191 0.1348 0.03586 0.0
C542 C 0.45793 0.11947 0.03719 0.0
C543 C 0.45368 0.09766 0.01964 0.0
H544 H 0.40967 0.02653 0.01268 0.0
H545 H 0.37216 0.99554 0.02038 0.0
H546 H 0.38643 0.9587 0.94229 0.0
H547 H 0.42447 0.9891 0.93493 0.0
H548 H 0.48433 0.99785 0.90965 0.0
H549 H 0.51532 0.99012 0.8722 0.0
H550 H 0.55199 0.06835 0.88636 0.0
H551 H 0.52159 0.07575 0.92435 0.0
H552 H 0.51276 0.1013 0.9841 0.0
H553 H 0.52037 0.13888 0.01503 0.0
H554 H 0.4422 0.12451 0.05159 0.0
H555 H 0.43492 0.0864 0.02127 0.0
N556 N 0.44759 0.05034 0.98553 0.0
N557 N 0.4605 0.02502 0.94751 0.0
N558 N 0.4857 0.0632 0.96033 0.0
C559 C 0.44332 0.02903 0.96862 0.0
C560 C 0.48174 0.042 0.94321 0.0
C561 C 0.46872 0.06753 0.98154 0.0
C562 C 0.4202 0.01034 0.97319 0.0
C563 C 0.40485 0.01184 0.99711 0.0
C564 C 0.38318 0.99413 1.00148 0.0
C565 C 0.37619 0.97457 0.98197 0.0
C566 C 0.39148 0.97318 0.95798 0.0
C567 C 0.41325 0.99076 0.95369 0.0
C568 C 0.50043 0.03741 0.92012 0.0
C569 C 0.49898 0.01344 0.90481 0.0
C570 C 0.51669 0.00905 0.88318 0.0
C571 C 0.5362 0.0286 0.87618 0.0
C572 C 0.53755 0.05264 0.89142 0.0
C573 C 0.51996 0.05695 0.91316 0.0
C574 C 0.47324 0.09071 1.00016 0.0
C575 C 0.49716 0.10612 0.99872 0.0
Li576 Li 0.27958 0.89735 1.00121 0.0
Li577 Li 0.25972 0.86312 0.02973 0.0
Li578 Li 0.25097 0.86313 0.98139 0.0
Li579 Li 0.23126 0.89739 0.00995 0.0
C580 C 0.31075 0.85108 0.01072 0.0
N581 N 0.36035 0.83755 0.03271 0.0
C582 C 0.32151 0.86628 0.03206 0.0
C583 C 0.3252 0.82901 1.00056 0.0
C584 C 0.34662 0.85911 0.0429 0.0
C585 C 0.35026 0.8225 0.01195 0.0
C586 C 0.25032 0.90938 0.06104 0.0
C587 C 0.21814 0.90135 0.09686 0.0
N588 N 0.22839 0.92288 0.11068 0.0
C589 C 0.26052 0.93142 0.07557 0.0
C590 C 0.22895 0.89419 0.07174 0.0
C591 C 0.24917 0.93792 0.10065 0.0
C592 C 0.30801 0.94649 1.00376 0.0
N593 N 0.31 0.92042 0.99525 0.0
C594 C 0.3545 0.92857 0.97805 0.0
C595 C 0.33258 0.91125 0.98247 0.0
C596 C 0.3531 0.95569 0.98662 0.0
C597 C 0.32938 0.96457 0.99961 0.0
H598 H 0.28967 0.95328 0.0136 0.0
H599 H 0.3336 0.89048 0.97565 0.0
C600 C 0.25707 0.81395 0.05799 0.0
N601 N 0.26564 0.84001 0.06008 0.0
C602 C 0.26119 0.79585 0.07931 0.0
C603 C 0.28285 0.83178 0.10456 0.0
C604 C 0.27846 0.84914 0.08269 0.0
C605 C 0.27422 0.80468 0.10307 0.0
H606 H 0.2472 0.8072 0.03963 0.0
H607 H 0.28533 0.86989 0.08379 0.0
C608 C 0.26057 0.90938 0.95015 0.0
N609 N 0.28255 0.92287 0.90052 0.0
C610 C 0.25046 0.93144 0.93566 0.0
C611 C 0.28187 0.89417 0.93941 0.0
C612 C 0.26184 0.93794 0.91059 0.0
C613 C 0.2927 0.90132 0.91429 0.0
C614 C 0.19987 0.85116 1.00038 0.0
C615 C 0.18919 0.86638 0.97905 0.0
C616 C 0.18531 0.82912 0.0105 0.0
C617 C 0.16405 0.85925 0.9682 0.0
C618 C 0.16022 0.82265 0.99911 0.0
N619 N 0.15021 0.83772 0.97837 0.0
C620 C 0.25351 0.81399 0.953 0.0
C621 C 0.2322 0.84918 0.92839 0.0
C622 C 0.24941 0.79593 0.9316 0.0
N623 N 0.24498 0.84004 0.95099 0.0
C624 C 0.22783 0.83188 0.90646 0.0
C625 C 0.23643 0.80479 0.90785 0.0
H626 H 0.26336 0.80723 0.97135 0.0
H627 H 0.22537 0.86993 0.92736 0.0
C628 C 0.20306 0.94657 0.00738 0.0
N629 N 0.20094 0.92052 0.01591 0.0
C630 C 0.18175 0.96468 0.01149 0.0
C631 C 0.15647 0.92875 0.03305 0.0
C632 C 0.17832 0.9114 0.02867 0.0
C633 C 0.15798 0.95585 0.02446 0.0
H634 H 0.22143 0.95332 0.99755 0.0
H635 H 0.1772 0.89065 0.0355 0.0
O636 O 0.28613 0.8575 0.9998 0.0
O637 O 0.26121 0.90297 0.03639 0.0
O638 O 0.24966 0.90297 0.97478 0.0
O639 O 0.22453 0.85755 0.01131 0.0
H640 H 0.31068 0.88346 0.04017 0.0
H641 H 0.31712 0.81704 0.98405 0.0
H642 H 0.35518 0.87069 0.05942 0.0
H643 H 0.36167 0.80546 1.00429 0.0
H644 H 0.20161 0.88977 0.10538 0.0
H645 H 0.27705 0.94338 0.06754 0.0
H646 H 0.22081 0.87703 0.06084 0.0
H647 H 0.25687 0.95493 0.11212 0.0
H648 H 0.37243 0.92067 0.96826 0.0
H649 H 0.32715 0.98537 0.00615 0.0
H650 H 0.2546 0.77506 0.077 0.0
H651 H 0.29267 0.83964 0.12253 0.0
H652 H 0.23399 0.94341 0.94372 0.0
H653 H 0.28994 0.87699 0.95027 0.0
H654 H 0.25421 0.95496 0.89915 0.0
H655 H 0.30918 0.88973 0.90575 0.0
H656 H 0.20011 0.88354 0.97097 0.0
H657 H 0.19333 0.81714 0.027 0.0
H658 H 0.15554 0.87085 0.9517 0.0
H659 H 0.14873 0.80564 0.00675 0.0
H660 H 0.25598 0.77515 0.93384 0.0
H661 H 0.21805 0.83976 0.8885 0.0
H662 H 0.18408 0.98546 1.00493 0.0
H663 H 0.13848 0.9209 0.04282 0.0
Li664 Li 0.11341 0.50925 0.27972 0.0
Li665 Li 0.14764 0.48071 0.25997 0.0
Li666 Li 0.1476 0.52901 0.25109 0.0
Li667 Li 0.11334 0.50034 0.23141 0.0
C668 C 0.1597 0.49993 0.31098 0.0
N669 N 0.17325 0.47817 0.36068 0.0
C670 C 0.14454 0.47859 0.32176 0.0
C671 C 0.18175 0.5102 0.32547 0.0
C672 C 0.15172 0.46787 0.34691 0.0
C673 C 0.18827 0.49893 0.35057 0.0
C674 C 0.1014 0.44931 0.25058 0.0
C675 C 0.10943 0.41338 0.21849 0.0
N676 N 0.08793 0.39956 0.22876 0.0
C677 C 0.07939 0.43477 0.26081 0.0
C678 C 0.11657 0.43856 0.22925 0.0
C679 C 0.07291 0.40964 0.24951 0.0
C680 C 0.06429 0.50668 0.30807 0.0
N681 N 0.09035 0.51526 0.31009 0.0
C682 C 0.08219 0.53258 0.35455 0.0
C683 C 0.0995 0.52814 0.33266 0.0
C684 C 0.05508 0.52393 0.35313 0.0
C685 C 0.04621 0.51085 0.32941 0.0
H686 H 0.05751 0.49676 0.28974 0.0
H687 H 0.12026 0.53501 0.33371 0.0
C688 C 0.19682 0.45252 0.25738 0.0
N689 N 0.17078 0.45042 0.26597 0.0
C690 C 0.21494 0.43122 0.2615 0.0
C691 C 0.17906 0.40598 0.28319 0.0
C692 C 0.16169 0.42782 0.2788 0.0
C693 C 0.20614 0.40748 0.27454 0.0
H694 H 0.20354 0.47087 0.24749 0.0
H695 H 0.14095 0.42672 0.28568 0.0
C696 C 0.10135 0.56022 0.26057 0.0
N697 N 0.08788 0.6099 0.28242 0.0
C698 C 0.07929 0.57465 0.25039 0.0
C699 C 0.11658 0.57104 0.28187 0.0
C700 C 0.0728 0.59975 0.2617 0.0
C701 C 0.10943 0.59619 0.29264 0.0
C702 C 0.15955 0.50982 0.20006 0.0
C703 C 0.14435 0.53111 0.18929 0.0
C704 C 0.18156 0.49963 0.18555 0.0
C705 C 0.15146 0.54184 0.16412 0.0
C706 C 0.18802 0.51091 0.16043 0.0
N707 N 0.17296 0.53161 0.15033 0.0
C708 C 0.19675 0.55743 0.25353 0.0
C709 C 0.1615 0.58195 0.2322 0.0
C710 C 0.21482 0.5788 0.24935 0.0
N711 N 0.17067 0.5594 0.24502 0.0
C712 C 0.17882 0.60387 0.22775 0.0
C713 C 0.20594 0.6025 0.23633 0.0
H714 H 0.20353 0.53911 0.2634 0.0
H715 H 0.14074 0.58296 0.22538 0.0
C716 C 0.06418 0.50285 0.20308 0.0
N717 N 0.09021 0.49428 0.20106 0.0
C718 C 0.04609 0.49874 0.18171 0.0
C719 C 0.08198 0.47705 0.15657 0.0
C720 C 0.09932 0.48144 0.17848 0.0
C721 C 0.05491 0.48571 0.15797 0.0
H722 H 0.05744 0.51275 0.22142 0.0
H723 H 0.12005 0.47457 0.17743 0.0
O724 O 0.15327 0.51075 0.28632 0.0
O725 O 0.1078 0.474 0.26142 0.0
O726 O 0.10776 0.53556 0.24972 0.0
O727 O 0.15318 0.499 0.22474 0.0
H728 H 0.12737 0.47041 0.3109 0.0
H729 H 0.19369 0.52671 0.31738 0.0
H730 H 0.14016 0.45135 0.35549 0.0
H731 H 0.20529 0.50667 0.36201 0.0
H732 H 0.12099 0.40482 0.20199 0.0
H733 H 0.06745 0.44284 0.27731 0.0
H734 H 0.13371 0.44945 0.22109 0.0
H735 H 0.05592 0.39816 0.25723 0.0
H736 H 0.09007 0.54244 0.37248 0.0
H737 H 0.02543 0.50424 0.32716 0.0
H738 H 0.23571 0.43354 0.25489 0.0
H739 H 0.17122 0.38802 0.29302 0.0
H740 H 0.0673 0.56653 0.23391 0.0
H741 H 0.13376 0.56023 0.28999 0.0
H742 H 0.05577 0.61115 0.25402 0.0
H743 H 0.12103 0.6048 0.30912 0.0
H744 H 0.12721 0.53924 0.20017 0.0
H745 H 0.19353 0.48317 0.19363 0.0
H746 H 0.13987 0.55831 0.15555 0.0
H747 H 0.20501 0.50322 0.14897 0.0
H748 H 0.23562 0.57658 0.2559 0.0
H749 H 0.17092 0.62179 0.21794 0.0
H750 H 0.02532 0.50536 0.18396 0.0
H751 H 0.08983 0.46723 0.13861 0.0
Li752 Li 0.73183 0.61313 1.00091 0.0
Li753 Li 0.75165 0.64733 0.02955 0.0
Li754 Li 0.76045 0.64739 0.98123 0.0
Li755 Li 0.78015 0.61311 0.00974 0.0
C756 C 0.70063 0.65938 0.01046 0.0
N757 N 0.651 0.67287 0.03238 0.0
C758 C 0.68986 0.64416 0.03176 0.0
C759 C 0.68618 0.68144 1.00032 0.0
C760 C 0.66474 0.65131 0.04256 0.0
C761 C 0.66111 0.68794 0.01167 0.0
C762 C 0.76106 0.60106 0.06076 0.0
C763 C 0.79321 0.60908 0.09666 0.0
N764 N 0.78298 0.58753 0.11041 0.0
C765 C 0.75087 0.57899 0.07522 0.0
C766 C 0.78241 0.61625 0.07153 0.0
C767 C 0.76222 0.57248 0.1003 0.0
C768 C 0.70339 0.564 1.00339 0.0
N769 N 0.70142 0.59006 0.99487 0.0
C770 C 0.65692 0.58192 0.97764 0.0
C771 C 0.67886 0.59922 0.98206 0.0
C772 C 0.65828 0.55482 0.98623 0.0
C773 C 0.682 0.54594 0.99924 0.0
H774 H 0.72172 0.55722 0.01326 0.0
H775 H 0.67785 0.61998 0.97524 0.0
C776 C 0.75419 0.69648 0.05793 0.0
N777 N 0.74567 0.6704 0.05995 0.0
C778 C 0.75001 0.71457 0.07928 0.0
C779 C 0.72841 0.67857 0.10441 0.0
C780 C 0.73285 0.66124 0.08252 0.0
C781 C 0.73699 0.70569 0.103 0.0
H782 H 0.76406 0.70326 0.03959 0.0
H783 H 0.72603 0.64047 0.08356 0.0
C784 C 0.75089 0.60118 0.94984 0.0
N785 N 0.72895 0.58775 0.90014 0.0
C786 C 0.76101 0.57915 0.93531 0.0
C787 C 0.72959 0.61639 0.93911 0.0
C788 C 0.74966 0.57268 0.9102 0.0
C789 C 0.71878 0.60928 0.91396 0.0
C790 C 0.81152 0.65936 1.00036 0.0
C791 C 0.82223 0.64419 0.97901 0.0
C792 C 0.82606 0.68139 0.01058 0.0
C793 C 0.84738 0.65134 0.96823 0.0
C794 C 0.85116 0.68789 0.99926 0.0
N795 N 0.8612 0.67286 0.97849 0.0
C796 C 0.75792 0.69657 0.95297 0.0
C797 C 0.77925 0.66142 0.9283 0.0
C798 C 0.76203 0.71467 0.93164 0.0
N799 N 0.76646 0.67052 0.9509 0.0
C800 C 0.78363 0.67876 0.90642 0.0
C801 C 0.77502 0.70584 0.90788 0.0
H802 H 0.74806 0.7033 0.97133 0.0
H803 H 0.78609 0.64067 0.92721 0.0
C804 C 0.80836 0.56394 0.00708 0.0
N805 N 0.81047 0.58999 0.01568 0.0
C806 C 0.82966 0.54583 0.01119 0.0
C807 C 0.85492 0.58173 0.03291 0.0
C808 C 0.83308 0.59909 0.02852 0.0
C809 C 0.85342 0.55464 0.02424 0.0
H810 H 0.79 0.55721 0.99719 0.0
H811 H 0.83419 0.61983 0.03541 0.0
O812 O 0.72527 0.65297 0.99958 0.0
O813 O 0.75018 0.60748 0.03611 0.0
O814 O 0.76178 0.60756 0.97452 0.0
O815 O 0.78686 0.65295 0.01122 0.0
H816 H 0.70069 0.62698 0.03985 0.0
H817 H 0.69427 0.69343 0.98385 0.0
H818 H 0.65616 0.63972 0.05904 0.0
H819 H 0.6497 0.70497 1.00401 0.0
H820 H 0.80973 0.62066 0.10523 0.0
H821 H 0.73436 0.56703 0.06713 0.0
H822 H 0.79055 0.63343 0.06069 0.0
H823 H 0.75452 0.55545 0.11172 0.0
H824 H 0.63898 0.58982 0.96784 0.0
H825 H 0.68421 0.52515 0.0058 0.0
H826 H 0.75656 0.73537 0.07702 0.0
H827 H 0.7186 0.67068 0.12235 0.0
H828 H 0.77749 0.56716 0.94336 0.0
H829 H 0.7215 0.63355 0.95001 0.0
H830 H 0.7573 0.55568 0.89872 0.0
H831 H 0.7023 0.62087 0.90542 0.0
H832 H 0.81133 0.62704 0.97085 0.0
H833 H 0.81802 0.69335 0.0271 0.0
H834 H 0.85591 0.63978 0.95171 0.0
H835 H 0.86264 0.7049 0.00698 0.0
H836 H 0.75545 0.73544 0.93393 0.0
H837 H 0.79342 0.67091 0.88845 0.0
H838 H 0.82735 0.52506 1.00457 0.0
H839 H 0.87289 0.58957 0.04274 0.0
Li840 Li 0.86345 0.02985 0.25958 0.0
Li841 Li 0.89764 1.00134 0.27943 0.0
Li842 Li 0.8977 0.01005 0.23109 0.0
Li843 Li 0.86341 0.98151 0.25084 0.0
C844 C 0.90974 0.06114 0.25013 0.0
N845 N 0.9233 0.11075 0.22815 0.0
C846 C 0.93181 0.07566 0.2603 0.0
C847 C 0.89457 0.07183 0.22877 0.0
C848 C 0.93834 0.10072 0.24892 0.0
C849 C 0.90175 0.09694 0.21794 0.0
C850 C 0.85138 0.01087 0.31064 0.0
C851 C 0.82279 0.01214 0.35017 0.0
N852 N 0.83787 0.0329 0.36024 0.0
C853 C 0.8666 0.03221 0.32138 0.0
C854 C 0.82929 1.00074 0.32511 0.0
C855 C 0.85945 0.04307 0.34649 0.0
C856 C 0.81431 0.05813 0.25692 0.0
N857 N 0.84037 0.0602 0.2655 0.0
C858 C 0.83219 0.10469 0.28269 0.0
C859 C 0.84951 0.08282 0.27831 0.0
C860 C 0.80509 0.10322 0.27405 0.0
C861 C 0.79623 0.07946 0.26102 0.0
H862 H 0.80755 0.03977 0.24705 0.0
H863 H 0.87026 0.0839 0.28518 0.0
C864 C 0.9468 1.00389 0.3078 0.0
N865 N 0.92071 0.99539 0.30983 0.0
C866 C 0.96488 0.99973 0.32916 0.0
C867 C 0.92885 0.9782 0.35432 0.0
C868 C 0.91153 0.98262 0.33242 0.0
C869 C 0.95599 0.98675 0.3529 0.0
H870 H 0.95359 0.01372 0.28945 0.0
H871 H 0.89076 0.97581 0.33347 0.0
C872 C 0.85147 1.00048 0.19975 0.0
N873 N 0.838 0.97845 0.15009 0.0
C874 C 0.86666 0.97915 0.18904 0.0
C875 C 0.82943 0.01059 0.18521 0.0
C876 C 0.85952 0.96829 0.16391 0.0
C877 C 0.82294 0.99919 0.16013 0.0
C878 C 0.90963 0.95028 0.26042 0.0
C879 C 0.93169 0.93579 0.25031 0.0
C880 C 0.89441 0.93956 0.28173 0.0
C881 C 0.93817 0.91074 0.26169 0.0
C882 C 0.90154 0.91445 0.29258 0.0
N883 N 0.92309 0.90068 0.28242 0.0
C884 C 0.94688 0.00746 0.20282 0.0
C885 C 0.91172 0.02876 0.17813 0.0
C886 C 0.96498 0.01156 0.18148 0.0
N887 N 0.92083 0.01599 0.20074 0.0
C888 C 0.92907 0.03312 0.15625 0.0
C889 C 0.95616 0.02452 0.15772 0.0
H890 H 0.95362 0.99763 0.22119 0.0
H891 H 0.89098 0.03559 0.17704 0.0
C892 C 0.81424 0.95313 0.25337 0.0
N893 N 0.8403 0.95112 0.24485 0.0
C894 C 0.79616 0.93174 0.24924 0.0
C895 C 0.83212 0.9066 0.22768 0.0
C896 C 0.84944 0.92852 0.23207 0.0
C897 C 0.80501 0.908 0.23626 0.0
H898 H 0.80747 0.97148 0.26322 0.0
H899 H 0.8702 0.92749 0.22525 0.0
O900 O 0.9033 0.03651 0.26104 0.0
O901 O 0.85779 0.99993 0.28601 0.0
O902 O 0.85786 0.01142 0.22439 0.0
O903 O 0.90325 0.9749 0.2495 0.0
H904 H 0.94376 0.06763 0.27682 0.0
H905 H 0.87739 0.06094 0.22065 0.0
H906 H 0.95537 0.11219 0.2566 0.0
H907 H 0.89019 0.10546 0.20141 0.0
H908 H 0.80574 1.0045 0.3616 0.0
H909 H 0.8838 0.0403 0.31053 0.0
H910 H 0.8173 0.98423 0.31705 0.0
H911 H 0.87105 0.05959 0.35503 0.0
H912 H 0.84006 0.12266 0.2925 0.0
H913 H 0.77545 0.07717 0.25442 0.0
H914 H 0.98568 0.00626 0.3269 0.0
H915 H 0.92095 0.96842 0.37227 0.0
H916 H 0.88382 0.97108 0.19994 0.0
H917 H 0.81746 0.02708 0.19324 0.0
H918 H 0.87111 0.95179 0.15539 0.0
H919 H 0.80594 0.00682 0.14865 0.0
H920 H 0.94368 0.94385 0.23382 0.0
H921 H 0.87723 0.95042 0.28981 0.0
H922 H 0.95519 0.8993 0.25406 0.0
H923 H 0.88993 0.90592 0.30907 0.0
H924 H 0.98576 0.00499 0.18378 0.0
H925 H 0.92122 0.04289 0.13827 0.0
H926 H 0.77537 0.93398 0.2558 0.0
H927 H 0.84 0.88864 0.2179 0.0
Li928 Li 0.25165 0.14733 0.52955 0.0
Li929 Li 0.23183 0.11313 0.50091 0.0
Li930 Li 0.28015 0.11311 0.50974 0.0
Li931 Li 0.26045 0.14739 0.48123 0.0
C932 C 0.26106 0.10106 0.56076 0.0
N933 N 0.28298 0.08753 0.61041 0.0
C934 C 0.25087 0.07899 0.57522 0.0
C935 C 0.28241 0.11625 0.57153 0.0
C936 C 0.26221 0.07248 0.6003 0.0
C937 C 0.29321 0.10908 0.59666 0.0
C938 C 0.20063 0.15938 0.51046 0.0
C939 C 0.16111 0.18794 0.51166 0.0
N940 N 0.151 0.17287 0.53237 0.0
C941 C 0.18986 0.14416 0.53175 0.0
C942 C 0.18618 0.18144 0.50032 0.0
C943 C 0.16474 0.15131 0.54256 0.0
C944 C 0.25419 0.19648 0.55793 0.0
N945 N 0.24567 0.1704 0.55995 0.0
C946 C 0.22841 0.17857 0.60441 0.0
C947 C 0.23285 0.16124 0.58252 0.0
C948 C 0.23699 0.20569 0.60299 0.0
C949 C 0.25001 0.21457 0.57927 0.0
H950 H 0.26406 0.20326 0.53959 0.0
H951 H 0.22602 0.14047 0.58356 0.0
C952 C 0.20339 0.064 0.50339 0.0
N953 N 0.20142 0.09006 0.49487 0.0
C954 C 0.18199 0.04594 0.49924 0.0
C955 C 0.15691 0.08192 0.47764 0.0
C956 C 0.17886 0.09922 0.48206 0.0
C957 C 0.15828 0.05482 0.48623 0.0
H958 H 0.22172 0.05721 0.51326 0.0
H959 H 0.17785 0.11998 0.47524 0.0
C960 C 0.31152 0.15936 0.50036 0.0
N961 N 0.3612 0.17286 0.47849 0.0
C962 C 0.32223 0.14419 0.47901 0.0
C963 C 0.32606 0.18139 0.51058 0.0
C964 C 0.34738 0.15134 0.46823 0.0
C965 C 0.35116 0.18789 0.49926 0.0
C966 C 0.25089 0.10118 0.44984 0.0
C967 C 0.26101 0.07914 0.43531 0.0
C968 C 0.22959 0.11639 0.43911 0.0
C969 C 0.24966 0.07268 0.4102 0.0
C970 C 0.21878 0.10927 0.41396 0.0
N971 N 0.22895 0.08775 0.40014 0.0
C972 C 0.30836 0.06394 0.50709 0.0
C973 C 0.33308 0.09908 0.52853 0.0
C974 C 0.32966 0.04583 0.5112 0.0
N975 N 0.31047 0.08998 0.51569 0.0
C976 C 0.35492 0.08173 0.53291 0.0
C977 C 0.35342 0.05464 0.52425 0.0
H978 H 0.29 0.05721 0.49719 0.0
H979 H 0.33419 0.11983 0.53541 0.0
C980 C 0.25792 0.19656 0.45297 0.0
N981 N 0.26646 0.17052 0.4509 0.0
C982 C 0.26203 0.21466 0.43164 0.0
C983 C 0.28363 0.17876 0.40642 0.0
C984 C 0.27925 0.16141 0.4283 0.0
C985 C 0.27502 0.20584 0.40788 0.0
H986 H 0.24806 0.2033 0.47133 0.0
H987 H 0.28609 0.14067 0.42721 0.0
O988 O 0.25018 0.10748 0.53611 0.0
O989 O 0.22527 0.15297 0.49958 0.0
O990 O 0.28686 0.15295 0.51122 0.0
O991 O 0.26178 0.10755 0.47452 0.0
H992 H 0.23436 0.06703 0.56713 0.0
H993 H 0.29055 0.13343 0.56069 0.0
H994 H 0.25452 0.05545 0.61172 0.0
H995 H 0.30973 0.12066 0.60523 0.0
H996 H 0.1497 0.20497 0.50401 0.0
H997 H 0.20069 0.12698 0.53985 0.0
H998 H 0.19427 0.19342 0.48385 0.0
H999 H 0.15616 0.13972 0.55903 0.0
H1000 H 0.2186 0.17068 0.62235 0.0
H1001 H 0.25657 0.23537 0.57702 0.0
H1002 H 0.1842 0.02515 0.5058 0.0
H1003 H 0.13898 0.08982 0.46784 0.0
H1004 H 0.31133 0.12703 0.47085 0.0
H1005 H 0.31802 0.19334 0.52709 0.0
H1006 H 0.35591 0.13977 0.45171 0.0
H1007 H 0.36264 0.20489 0.50697 0.0
H1008 H 0.27749 0.06716 0.44337 0.0
H1009 H 0.2215 0.13355 0.45001 0.0
H1010 H 0.2573 0.05567 0.39873 0.0
H1011 H 0.2023 0.12087 0.40542 0.0
H1012 H 0.32735 0.02505 0.50458 0.0
H1013 H 0.37289 0.08957 0.54274 0.0
H1014 H 0.25545 0.23543 0.43393 0.0
H1015 H 0.29342 0.1709 0.38845 0.0
Li1016 Li 0.39765 0.50135 0.77943 0.0
Li1017 Li 0.36345 0.52985 0.75958 0.0
Li1018 Li 0.36341 0.48152 0.75084 0.0
Li1019 Li 0.3977 0.51006 0.73109 0.0
C1020 C 0.35138 0.51087 0.81064 0.0
N1021 N 0.33787 0.5329 0.86025 0.0
C1022 C 0.3666 0.53221 0.82138 0.0
C1023 C 0.32929 0.50074 0.82511 0.0
C1024 C 0.35944 0.54307 0.84649 0.0
C1025 C 0.32279 0.51214 0.85017 0.0
C1026 C 0.40974 0.56114 0.75013 0.0
C1027 C 0.40175 0.59695 0.71794 0.0
N1028 N 0.4233 0.61076 0.72816 0.0
C1029 C 0.43181 0.57567 0.7603 0.0
C1030 C 0.39457 0.57184 0.72877 0.0
C1031 C 0.43834 0.60073 0.74893 0.0
C1032 C 0.4468 0.50389 0.80781 0.0
N1033 N 0.42071 0.4954 0.80983 0.0
C1034 C 0.42885 0.4782 0.85432 0.0
C1035 C 0.41153 0.48262 0.83242 0.0
C1036 C 0.45599 0.48675 0.8529 0.0
C1037 C 0.46488 0.49973 0.82916 0.0
H1038 H 0.45359 0.51373 0.78946 0.0
H1039 H 0.39076 0.47581 0.83347 0.0
C1040 C 0.31431 0.55814 0.75692 0.0
N1041 N 0.34037 0.56021 0.7655 0.0
C1042 C 0.29623 0.57947 0.76103 0.0
C1043 C 0.33218 0.6047 0.78269 0.0
C1044 C 0.34951 0.58282 0.77831 0.0
C1045 C 0.30509 0.60322 0.77405 0.0
H1046 H 0.30755 0.53977 0.74705 0.0
H1047 H 0.37026 0.58391 0.78518 0.0
C1048 C 0.40964 0.45029 0.76042 0.0
N1049 N 0.42309 0.40069 0.78242 0.0
C1050 C 0.43169 0.4358 0.75031 0.0
C1051 C 0.39441 0.43956 0.78173 0.0
C1052 C 0.43817 0.41075 0.76169 0.0
C1053 C 0.40154 0.41446 0.79258 0.0
C1054 C 0.35147 0.50048 0.69975 0.0
C1055 C 0.36667 0.47916 0.68904 0.0
C1056 C 0.32943 0.51059 0.68521 0.0
C1057 C 0.35953 0.4683 0.66391 0.0
C1058 C 0.32295 0.49919 0.66013 0.0
N1059 N 0.338 0.47845 0.65009 0.0
C1060 C 0.31424 0.45313 0.75337 0.0
C1061 C 0.34945 0.42853 0.73207 0.0
C1062 C 0.29616 0.43174 0.74924 0.0
N1063 N 0.34031 0.45112 0.74485 0.0
C1064 C 0.33212 0.4066 0.72767 0.0
C1065 C 0.30502 0.408 0.73626 0.0
H1066 H 0.30748 0.47148 0.76322 0.0
H1067 H 0.37021 0.42749 0.72525 0.0
C1068 C 0.44688 0.50747 0.70282 0.0
N1069 N 0.42083 0.516 0.70075 0.0
C1070 C 0.46498 0.51156 0.68149 0.0
C1071 C 0.42907 0.53313 0.65625 0.0
C1072 C 0.41173 0.52876 0.67813 0.0
C1073 C 0.45616 0.52453 0.65772 0.0
H1074 H 0.45362 0.49763 0.72119 0.0
H1075 H 0.39098 0.5356 0.67704 0.0
O1076 O 0.35779 0.49994 0.78601 0.0
O1077 O 0.4033 0.53651 0.76104 0.0
O1078 O 0.40325 0.47491 0.7495 0.0
O1079 O 0.35786 0.51142 0.72439 0.0
H1080 H 0.3838 0.5403 0.81053 0.0
H1081 H 0.3173 0.48424 0.81705 0.0
H1082 H 0.37105 0.55959 0.85504 0.0
H1083 H 0.30574 0.5045 0.8616 0.0
H1084 H 0.39019 0.60546 0.70142 0.0
H1085 H 0.44376 0.56764 0.77682 0.0
H1086 H 0.37739 0.56095 0.72065 0.0
H1087 H 0.45537 0.6122 0.7566 0.0
H1088 H 0.42095 0.46842 0.87227 0.0
H1089 H 0.48568 0.50627 0.8269 0.0
H1090 H 0.27545 0.57717 0.75442 0.0
H1091 H 0.34006 0.62266 0.7925 0.0
H1092 H 0.44369 0.44385 0.73382 0.0
H1093 H 0.37724 0.45042 0.78981 0.0
H1094 H 0.45519 0.39931 0.75406 0.0
H1095 H 0.38994 0.40592 0.80907 0.0
H1096 H 0.38382 0.47108 0.69994 0.0
H1097 H 0.31746 0.52709 0.69324 0.0
H1098 H 0.37111 0.45179 0.65539 0.0
H1099 H 0.30594 0.50682 0.64865 0.0
H1100 H 0.27537 0.43398 0.7558 0.0
H1101 H 0.34001 0.38865 0.7179 0.0
H1102 H 0.48576 0.50499 0.68378 0.0
H1103 H 0.42122 0.5429 0.63828 0.0
Li1104 Li 0.77958 0.39735 0.50121 0.0
Li1105 Li 0.75972 0.36312 0.52972 0.0
Li1106 Li 0.75096 0.36312 0.48139 0.0
Li1107 Li 0.73125 0.39739 0.50995 0.0
C1108 C 0.81075 0.35108 0.51071 0.0
N1109 N 0.86035 0.33756 0.53271 0.0
C1110 C 0.82151 0.36628 0.53206 0.0
C1111 C 0.8252 0.32901 0.50056 0.0
C1112 C 0.84662 0.35912 0.5429 0.0
C1113 C 0.85026 0.3225 0.51195 0.0
C1114 C 0.75032 0.40938 0.56103 0.0
C1115 C 0.71814 0.40135 0.59686 0.0
N1116 N 0.72838 0.42288 0.61067 0.0
C1117 C 0.76051 0.43143 0.57556 0.0
C1118 C 0.72895 0.39419 0.57174 0.0
C1119 C 0.74916 0.43793 0.60064 0.0
C1120 C 0.808 0.4465 0.50375 0.0
N1121 N 0.81 0.42042 0.49525 0.0
C1122 C 0.85449 0.42857 0.47805 0.0
C1123 C 0.83257 0.41125 0.48246 0.0
C1124 C 0.8531 0.45569 0.48661 0.0
C1125 C 0.82938 0.46457 0.4996 0.0
H1126 H 0.78966 0.45328 0.5136 0.0
H1127 H 0.83359 0.39049 0.47565 0.0
C1128 C 0.75707 0.31395 0.55799 0.0
N1129 N 0.76564 0.34002 0.56008 0.0
C1130 C 0.7612 0.29585 0.57931 0.0
C1131 C 0.78285 0.33179 0.60456 0.0
C1132 C 0.77846 0.34914 0.58269 0.0
C1133 C 0.77423 0.30468 0.60307 0.0
H1134 H 0.7472 0.3072 0.53962 0.0
H1135 H 0.78532 0.36989 0.58379 0.0
C1136 C 0.76056 0.40937 0.45014 0.0
N1137 N 0.78254 0.42287 0.40052 0.0
C1138 C 0.75046 0.43143 0.43565 0.0
C1139 C 0.78186 0.39417 0.43941 0.0
C1140 C 0.76183 0.43793 0.41059 0.0
C1141 C 0.7927 0.40132 0.41429 0.0
C1142 C 0.69987 0.35116 0.50038 0.0
C1143 C 0.68918 0.36637 0.47905 0.0
C1144 C 0.68531 0.32912 0.51051 0.0
C1145 C 0.66404 0.35924 0.4682 0.0
C1146 C 0.66022 0.32265 0.49912 0.0
N1147 N 0.6502 0.33771 0.47837 0.0
C1148 C 0.75351 0.31399 0.45299 0.0
C1149 C 0.7322 0.34918 0.42839 0.0
C1150 C 0.74941 0.29592 0.4316 0.0
N1151 N 0.74498 0.34004 0.45099 0.0
C1152 C 0.72782 0.33187 0.40645 0.0
C1153 C 0.73643 0.30478 0.40785 0.0
H1154 H 0.76336 0.30722 0.47135 0.0
H1155 H 0.72536 0.36993 0.42736 0.0
C1156 C 0.70304 0.44656 0.50736 0.0
N1157 N 0.70093 0.42051 0.5159 0.0
C1158 C 0.68173 0.46466 0.51146 0.0
C1159 C 0.65646 0.42874 0.53305 0.0
C1160 C 0.67832 0.4114 0.52868 0.0
C1161 C 0.65796 0.45584 0.52444 0.0
H1162 H 0.72141 0.4533 0.49751 0.0
H1163 H 0.6772 0.39065 0.53552 0.0
O1164 O 0.78612 0.3575 0.49979 0.0
O1165 O 0.76121 0.40297 0.53639 0.0
O1166 O 0.74965 0.40297 0.47478 0.0
O1167 O 0.72452 0.35754 0.51131 0.0
H1168 H 0.81068 0.38346 0.54016 0.0
H1169 H 0.81712 0.31704 0.48405 0.0
H1170 H 0.85518 0.3707 0.55942 0.0
H1171 H 0.86167 0.30547 0.50429 0.0
H1172 H 0.70161 0.38977 0.60538 0.0
H1173 H 0.77704 0.44339 0.56753 0.0
H1174 H 0.72081 0.37703 0.56084 0.0
H1175 H 0.75686 0.45494 0.61211 0.0
H1176 H 0.87243 0.42068 0.46826 0.0
H1177 H 0.82714 0.48537 0.50615 0.0
H1178 H 0.7546 0.27506 0.577 0.0
H1179 H 0.79267 0.33965 0.62253 0.0
H1180 H 0.73398 0.44341 0.44371 0.0
H1181 H 0.78994 0.37699 0.45027 0.0
H1182 H 0.7542 0.45495 0.39914 0.0
H1183 H 0.80918 0.38973 0.40575 0.0
H1184 H 0.7001 0.38353 0.47097 0.0
H1185 H 0.69333 0.31714 0.527 0.0
H1186 H 0.65554 0.37084 0.4517 0.0
H1187 H 0.64872 0.30564 0.50676 0.0
H1188 H 0.75599 0.27515 0.43384 0.0
H1189 H 0.71805 0.33975 0.38849 0.0
H1190 H 0.68404 0.48544 0.50489 0.0
H1191 H 0.63848 0.42089 0.54283 0.0
Li1192 Li 0.64765 0.98072 0.75997 0.0
Li1193 Li 0.61342 0.00925 0.77972 0.0
Li1194 Li 0.61335 1.00034 0.73141 0.0
Li1195 Li 0.64761 0.02902 0.75109 0.0
C1196 C 0.6014 0.94931 0.75058 0.0
N1197 N 0.58794 0.89957 0.72876 0.0
C1198 C 0.5794 0.93477 0.7608 0.0
C1199 C 0.61657 0.93856 0.72924 0.0
C1200 C 0.57291 0.90965 0.74951 0.0
C1201 C 0.60944 0.91339 0.71849 0.0
C1202 C 0.65971 0.99994 0.81098 0.0
C1203 C 0.68828 0.99893 0.85057 0.0
N1204 N 0.67325 0.97817 0.86068 0.0
C1205 C 0.64454 0.9786 0.82176 0.0
C1206 C 0.68175 0.0102 0.82547 0.0
C1207 C 0.65172 0.96787 0.84691 0.0
C1208 C 0.69682 0.95252 0.75738 0.0
N1209 N 0.67078 0.95042 0.76596 0.0
C1210 C 0.67906 0.90599 0.78319 0.0
C1211 C 0.6617 0.92783 0.7788 0.0
C1212 C 0.70614 0.90748 0.77454 0.0
C1213 C 0.71494 0.93123 0.7615 0.0
H1214 H 0.70355 0.97087 0.74749 0.0
H1215 H 0.64096 0.92672 0.78567 0.0
C1216 C 0.56429 0.00668 0.80807 0.0
N1217 N 0.59035 0.01527 0.81009 0.0
C1218 C 0.54622 0.01085 0.82941 0.0
C1219 C 0.58219 0.03258 0.85455 0.0
C1220 C 0.59951 0.02814 0.83266 0.0
C1221 C 0.55508 0.02393 0.85313 0.0
H1222 H 0.55752 0.99676 0.78974 0.0
H1223 H 0.62026 0.03502 0.83371 0.0
C1224 C 0.65955 0.00983 0.70006 0.0
N1225 N 0.67297 0.03162 0.65033 0.0
C1226 C 0.64435 0.03112 0.68929 0.0
C1227 C 0.68157 0.99965 0.68555 0.0
C1228 C 0.65146 0.04185 0.66412 0.0
C1229 C 0.68802 0.01093 0.66043 0.0
C1230 C 0.60136 0.06023 0.76057 0.0
C1231 C 0.57929 0.07466 0.75039 0.0
C1232 C 0.61658 0.07105 0.78187 0.0
C1233 C 0.5728 0.09975 0.7617 0.0
C1234 C 0.60944 0.09619 0.79264 0.0
N1235 N 0.58788 0.10991 0.78242 0.0
C1236 C 0.56418 1.00286 0.70308 0.0
C1237 C 0.59932 0.98145 0.67848 0.0
C1238 C 0.54609 0.99874 0.68171 0.0
N1239 N 0.59022 0.99428 0.70106 0.0
C1240 C 0.58199 0.97706 0.65656 0.0
C1241 C 0.55491 0.98572 0.65797 0.0
H1242 H 0.55745 0.01276 0.72142 0.0
H1243 H 0.62006 0.97458 0.67743 0.0
C1244 C 0.69675 0.05743 0.75353 0.0
N1245 N 0.67068 0.05941 0.74503 0.0
C1246 C 0.71483 0.0788 0.74935 0.0
C1247 C 0.67882 0.10388 0.72776 0.0
C1248 C 0.66151 0.08196 0.7322 0.0
C1249 C 0.70594 0.10251 0.73634 0.0
H1250 H 0.70354 0.03912 0.76341 0.0
H1251 H 0.64074 0.08297 0.72539 0.0
O1252 O 0.6078 0.974 0.76142 0.0
O1253 O 0.65327 0.01075 0.78632 0.0
O1254 O 0.65318 0.99901 0.72474 0.0
O1255 O 0.60776 0.03556 0.74972 0.0
H1256 H 0.56745 0.94284 0.77731 0.0
H1257 H 0.63371 0.94946 0.72108 0.0
H1258 H 0.55593 0.89816 0.75723 0.0
H1259 H 0.621 0.90483 0.70198 0.0
H1260 H 0.70529 0.00668 0.86201 0.0
H1261 H 0.62738 0.97041 0.8109 0.0
H1262 H 0.6937 0.02671 0.81738 0.0
H1263 H 0.64016 0.95136 0.85549 0.0
H1264 H 0.67123 0.88803 0.79301 0.0
H1265 H 0.73571 0.93354 0.75489 0.0
H1266 H 0.52543 1.00424 0.82716 0.0
H1267 H 0.59007 0.04244 0.87248 0.0
H1268 H 0.62721 0.03924 0.70017 0.0
H1269 H 0.69354 0.98318 0.69363 0.0
H1270 H 0.63988 0.05832 0.65555 0.0
H1271 H 0.70501 1.00323 0.64897 0.0
H1272 H 0.56731 0.06653 0.73392 0.0
H1273 H 0.63376 0.06023 0.78999 0.0
H1274 H 0.55578 0.11115 0.75402 0.0
H1275 H 0.62104 0.1048 0.80912 0.0
H1276 H 0.52533 0.00536 0.68396 0.0
H1277 H 0.58984 0.96724 0.63861 0.0
H1278 H 0.73562 0.07659 0.7559 0.0
H1279 H 0.67092 0.1218 0.71795 0.0
Li1280 Li 0.02981 0.25951 0.86304 0.0
Li1281 Li 1.00123 0.27924 0.89728 0.0
Li1282 Li 0.01009 0.23094 0.89729 0.0
Li1283 Li 0.9815 0.2506 0.86303 0.0
C1284 C 0.06111 0.25017 0.90931 0.0
N1285 N 0.1108 0.22841 0.92282 0.0
C1286 C 0.07562 0.26041 0.93135 0.0
C1287 C 0.07187 0.22885 0.89413 0.0
C1288 C 0.10071 0.24914 0.93786 0.0
C1289 C 0.09702 0.21813 0.90129 0.0
C1290 C 0.01068 0.3105 0.85101 0.0
C1291 C 0.01181 0.35004 0.82244 0.0
N1292 N 0.03254 0.36019 0.8375 0.0
C1293 C 0.03199 0.32132 0.86621 0.0
C1294 C 1.0005 0.32494 0.82894 0.0
C1295 C 0.04277 0.34647 0.85905 0.0
C1296 C 0.05814 0.25694 0.8139 0.0
N1297 N 0.06016 0.26554 0.83995 0.0
C1298 C 0.10462 0.28286 0.83176 0.0
C1299 C 0.08273 0.27843 0.84908 0.0
C1300 C 0.1032 0.27419 0.80467 0.0
C1301 C 0.07949 0.26109 0.79582 0.0
H1302 H 0.03981 0.247 0.80713 0.0
H1303 H 0.08378 0.28532 0.86983 0.0
C1304 C 1.00372 0.30759 0.94644 0.0
N1305 N 0.99521 0.30961 0.92037 0.0
C1306 C 0.99957 0.32893 0.96454 0.0
C1307 C 0.97798 0.35405 0.92856 0.0
C1308 C 0.9824 0.33217 0.91122 0.0
C1309 C 0.98657 0.35265 0.95567 0.0
H1310 H 0.01359 0.28926 0.95322 0.0
H1311 H 0.97558 0.3332 0.89045 0.0
C1312 C 1.0006 0.19958 0.85106 0.0
N1313 N 0.97872 0.14985 0.83763 0.0
C1314 C 0.97929 0.18882 0.86626 0.0
C1315 C 0.01078 0.18506 0.82903 0.0
C1316 C 0.9685 0.16365 0.85914 0.0
C1317 C 0.99945 0.15994 0.82257 0.0
C1318 C 0.95022 0.26003 0.90928 0.0
C1319 C 0.93573 0.24982 0.93132 0.0
C1320 C 0.93945 0.28133 0.89409 0.0
C1321 C 0.91063 0.2611 0.93781 0.0
C1322 C 0.9143 0.29206 0.90124 0.0
N1323 N 0.90053 0.28181 0.92277 0.0
C1324 C 0.00758 0.20267 0.94647 0.0
C1325 C 0.02892 0.17804 0.91129 0.0
C1326 C 0.01172 0.18136 0.96457 0.0
N1327 N 0.01611 0.20062 0.92041 0.0
C1328 C 0.03334 0.15618 0.92863 0.0
C1329 C 0.02473 0.15763 0.95574 0.0
H1330 H 0.9977 0.22101 0.95322 0.0
H1331 H 0.03576 0.17697 0.89053 0.0
C1332 C 0.95314 0.25313 0.81388 0.0
N1333 N 0.95113 0.24455 0.83992 0.0
C1334 C 0.93177 0.249 0.79579 0.0
C1335 C 0.90663 0.2273 0.83172 0.0
C1336 C 0.92855 0.2317 0.84905 0.0
C1337 C 0.90804 0.23596 0.80463 0.0
H1338 H 0.97148 0.26303 0.80712 0.0
H1339 H 0.92751 0.22484 0.8698 0.0
O1340 O 0.03645 0.26098 0.90289 0.0
O1341 O 0.99982 0.28583 0.85743 0.0
O1342 O 0.01148 0.22426 0.85744 0.0
O1343 O 0.97488 0.24921 0.90288 0.0
H1344 H 0.06754 0.2769 0.94331 0.0
H1345 H 0.061 0.22068 0.87697 0.0
H1346 H 0.11217 0.25688 0.95487 0.0
H1347 H 0.10558 0.20163 0.88972 0.0
H1348 H 1.00413 0.36145 0.80541 0.0
H1349 H 0.04012 0.31049 0.88339 0.0
H1350 H 0.98401 0.31681 0.81697 0.0
H1351 H 0.05926 0.35508 0.87064 0.0
H1352 H 0.12256 0.29273 0.83964 0.0
H1353 H 0.07723 0.25446 0.77504 0.0
H1354 H 0.00612 0.32668 0.98533 0.0
H1355 H 0.96818 0.37199 0.92067 0.0
H1356 H 0.97116 0.19971 0.88341 0.0
H1357 H 0.02727 0.19313 0.81706 0.0
H1358 H 0.952 0.15509 0.87073 0.0
H1359 H 0.00714 0.14847 0.80557 0.0
H1360 H 0.94381 0.23335 0.94328 0.0
H1361 H 0.95031 0.28947 0.87694 0.0
H1362 H 0.89919 0.25339 0.95482 0.0
H1363 H 0.90573 0.30854 0.88966 0.0
H1364 H 0.00515 0.18364 0.98536 0.0
H1365 H 0.04315 0.13824 0.92077 0.0
H1366 H 0.93402 0.25561 0.77502 0.0
H1367 H 0.88868 0.21748 0.83959 0.0
Li1368 Li 0.5298 0.75951 0.36304 0.0
Li1369 Li 0.50123 0.77924 0.39728 0.0
Li1370 Li 0.51008 0.73094 0.39729 0.0
Li1371 Li 0.48149 0.7506 0.36303 0.0
C1372 C 0.56111 0.75017 0.40931 0.0
N1373 N 0.6108 0.72842 0.42281 0.0
C1374 C 0.57561 0.76042 0.43135 0.0
C1375 C 0.57187 0.72885 0.39413 0.0
C1376 C 0.60071 0.74916 0.43785 0.0
C1377 C 0.59702 0.71813 0.40128 0.0
C1378 C 0.51067 0.8105 0.35101 0.0
C1379 C 0.51179 0.85004 0.32244 0.0
N1380 N 0.53252 0.8602 0.3375 0.0
C1381 C 0.53198 0.82132 0.36621 0.0
C1382 C 0.50048 0.82494 0.32894 0.0
C1383 C 0.54275 0.84647 0.35905 0.0
C1384 C 0.55813 0.75694 0.3139 0.0
N1385 N 0.56015 0.76555 0.33995 0.0
C1386 C 0.60461 0.78287 0.33176 0.0
C1387 C 0.58272 0.77844 0.34908 0.0
C1388 C 0.60319 0.77419 0.30467 0.0
C1389 C 0.57947 0.76109 0.29581 0.0
H1390 H 0.5398 0.747 0.30713 0.0
H1391 H 0.58377 0.78533 0.36983 0.0
C1392 C 0.50372 0.80759 0.44645 0.0
N1393 N 0.4952 0.80961 0.42037 0.0
C1394 C 0.49956 0.82893 0.46454 0.0
C1395 C 0.47797 0.85405 0.42856 0.0
C1396 C 0.48239 0.83216 0.41123 0.0
C1397 C 0.48656 0.85264 0.45568 0.0
H1398 H 0.51358 0.78926 0.45322 0.0
H1399 H 0.47557 0.8332 0.39046 0.0
C1400 C 0.5006 0.69958 0.35106 0.0
N1401 N 0.47872 0.64985 0.33763 0.0
C1402 C 0.47928 0.68882 0.36626 0.0
C1403 C 0.51078 0.68506 0.32904 0.0
C1404 C 0.4685 0.66365 0.35915 0.0
C1405 C 0.49945 0.65993 0.32257 0.0
C1406 C 0.45021 0.76003 0.40929 0.0
C1407 C 0.43572 0.74982 0.43132 0.0
C1408 C 0.43944 0.78132 0.3941 0.0
C1409 C 0.41063 0.76109 0.43781 0.0
C1410 C 0.41429 0.79205 0.40125 0.0
N1411 N 0.40052 0.7818 0.42277 0.0
C1412 C 0.50758 0.70267 0.44647 0.0
C1413 C 0.52892 0.67805 0.41129 0.0
C1414 C 0.51172 0.68136 0.46457 0.0
N1415 N 0.51611 0.70062 0.42041 0.0
C1416 C 0.53334 0.65618 0.42863 0.0
C1417 C 0.52473 0.65763 0.45574 0.0
H1418 H 0.4977 0.72101 0.45322 0.0
H1419 H 0.53576 0.67697 0.39053 0.0
C1420 C 0.45313 0.75312 0.31388 0.0
N1421 N 0.45112 0.74455 0.33993 0.0
C1422 C 0.43176 0.749 0.29579 0.0
C1423 C 0.40662 0.7273 0.33172 0.0
C1424 C 0.42854 0.7317 0.34905 0.0
C1425 C 0.40803 0.73595 0.30464 0.0
H1426 H 0.47147 0.76303 0.30713 0.0
H1427 H 0.4275 0.72484 0.3698 0.0
O1428 O 0.53644 0.76098 0.40289 0.0
O1429 O 0.49981 0.78583 0.35743 0.0
O1430 O 0.51147 0.72427 0.35744 0.0
O1431 O 0.47487 0.74921 0.40288 0.0
H1432 H 0.56753 0.77691 0.4433 0.0
H1433 H 0.56099 0.72068 0.37697 0.0
H1434 H 0.61217 0.75689 0.45486 0.0
H1435 H 0.60558 0.70164 0.38971 0.0
H1436 H 0.5041 0.86145 0.30541 0.0
H1437 H 0.54011 0.8105 0.38339 0.0
H1438 H 0.48399 0.81681 0.31697 0.0
H1439 H 0.55924 0.85508 0.37064 0.0
H1440 H 0.62255 0.79274 0.33963 0.0
H1441 H 0.57722 0.75446 0.27504 0.0
H1442 H 0.50612 0.82668 0.48534 0.0
H1443 H 0.46817 0.87198 0.42068 0.0
H1444 H 0.47116 0.69971 0.38342 0.0
H1445 H 0.52727 0.69313 0.31706 0.0
H1446 H 0.452 0.65509 0.37073 0.0
H1447 H 0.50713 0.64846 0.30557 0.0
H1448 H 0.44381 0.73334 0.44328 0.0
H1449 H 0.4503 0.78947 0.37694 0.0
H1450 H 0.39919 0.75338 0.45482 0.0
H1451 H 0.40572 0.80853 0.38967 0.0
H1452 H 0.50515 0.68364 0.48536 0.0
H1453 H 0.54314 0.63824 0.42077 0.0
H1454 H 0.43401 0.75561 0.27502 0.0
H1455 H 0.38867 0.71747 0.33959 0.0
Li1456 Li 0.00992 0.77974 0.6131 0.0
Li1457 Li 0.98141 0.75996 0.64737 0.0
Li1458 Li 0.02973 0.75121 0.64731 0.0
Li1459 Li 1.00111 0.73141 0.61309 0.0
C1460 C 1.00053 0.81103 0.65938 0.0
N1461 N 0.97866 0.86066 0.67291 0.0
C1462 C 0.97919 0.82174 0.64421 0.0
C1463 C 0.01075 0.82555 0.68142 0.0
C1464 C 0.96841 0.84686 0.65138 0.0
C1465 C 0.99942 0.85062 0.68794 0.0
C1466 C 0.95005 0.75041 0.60115 0.0
C1467 C 0.91418 0.71824 0.60924 0.0
N1468 N 0.90036 0.72841 0.58772 0.0
C1469 C 0.93551 0.76054 0.57911 0.0
C1470 C 0.93932 0.72908 0.61636 0.0
C1471 C 0.91041 0.74915 0.57265 0.0
C1472 C 0.00727 0.80805 0.56394 0.0
N1473 N 0.01587 0.8101 0.58999 0.0
C1474 C 0.0331 0.85458 0.58179 0.0
C1475 C 0.02871 0.8327 0.59912 0.0
C1476 C 0.02444 0.85313 0.5547 0.0
C1477 C 0.01138 0.82939 0.54586 0.0
H1478 H 0.99737 0.78969 0.55719 0.0
H1479 H 0.0356 0.83377 0.61987 0.0
C1480 C 0.95316 0.75741 0.69657 0.0
N1481 N 0.95108 0.76593 0.67051 0.0
C1482 C 0.93184 0.76152 0.71468 0.0
C1483 C 0.90662 0.78308 0.67875 0.0
C1484 C 0.92848 0.7787 0.66139 0.0
C1485 C 0.90809 0.77449 0.70585 0.0
H1486 H 0.97151 0.74757 0.70331 0.0
H1487 H 0.92739 0.78552 0.64064 0.0
C1488 C 0.06094 0.76073 0.60102 0.0
N1489 N 0.11057 0.78273 0.58749 0.0
C1490 C 0.07539 0.7506 0.57894 0.0
C1491 C 0.07171 0.78207 0.61624 0.0
C1492 C 0.10046 0.76198 0.57242 0.0
C1493 C 0.09683 0.79291 0.60906 0.0
C1494 C 0.01064 0.70016 0.65934 0.0
C1495 C 0.03193 0.68942 0.64412 0.0
C1496 C 1.0005 0.68568 0.68141 0.0
C1497 C 0.04273 0.66431 0.65127 0.0
C1498 C 0.01184 0.66062 0.68791 0.0
N1499 N 0.03255 0.65055 0.67283 0.0
C1500 C 0.05813 0.75374 0.69645 0.0
C1501 C 0.08269 0.73246 0.66119 0.0
C1502 C 0.07949 0.74958 0.71452 0.0
N1503 N 0.06013 0.74524 0.67037 0.0
C1504 C 0.1046 0.72804 0.6785 0.0
C1505 C 0.10321 0.7366 0.70562 0.0
H1506 H 0.0398 0.76358 0.70325 0.0
H1507 H 0.08372 0.72565 0.64041 0.0
C1508 C 1.00365 0.70303 0.56394 0.0
N1509 N 0.9951 0.70102 0.58999 0.0
C1510 C 0.99953 0.68165 0.54587 0.0
C1511 C 0.97789 0.6565 0.58183 0.0
C1512 C 0.98228 0.67843 0.59914 0.0
C1513 C 0.98652 0.6579 0.55473 0.0
H1514 H 0.01353 0.72138 0.55717 0.0
H1515 H 0.97544 0.6774 0.6199 0.0
O1516 O 0.0114 0.78639 0.65295 0.0
O1517 O 0.97471 0.76133 0.60752 0.0
O1518 O 0.0363 0.74981 0.60745 0.0
O1519 O 0.99976 0.7248 0.65294 0.0
H1520 H 0.97103 0.81085 0.62704 0.0
H1521 H 0.02726 0.8175 0.69337 0.0
H1522 H 0.95189 0.85539 0.63982 0.0
H1523 H 0.00713 0.86208 0.70496 0.0
H1524 H 0.90564 0.70174 0.62084 0.0
H1525 H 0.94356 0.77703 0.56713 0.0
H1526 H 0.95022 0.721 0.63352 0.0
H1527 H 0.89894 0.7568 0.55564 0.0
H1528 H 0.04294 0.87254 0.58966 0.0
H1529 H 1.00476 0.82711 0.52508 0.0
H1530 H 0.93414 0.75496 0.73546 0.0
H1531 H 0.88865 0.79285 0.67089 0.0
H1532 H 0.0673 0.7341 0.56696 0.0
H1533 H 0.06088 0.79016 0.63343 0.0
H1534 H 0.11188 0.75433 0.55538 0.0
H1535 H 0.10541 0.80942 0.62066 0.0
H1536 H 0.04003 0.70028 0.62694 0.0
H1537 H 0.98403 0.69375 0.6934 0.0
H1538 H 0.05921 0.65577 0.63967 0.0
H1539 H 1.00418 0.64918 0.70494 0.0
H1540 H 0.07726 0.75612 0.73533 0.0
H1541 H 0.12253 0.71825 0.67059 0.0
H1542 H 0.00612 0.68388 0.52508 0.0
H1543 H 0.96809 0.63855 0.58971 0.0
Li1544 Li 0.50992 0.27974 0.11309 0.0
Li1545 Li 0.48141 0.25996 0.14737 0.0
Li1546 Li 0.52973 0.25122 0.14731 0.0
Li1547 Li 0.50111 0.23141 0.11309 0.0
C1548 C 0.50054 0.31103 0.15938 0.0
N1549 N 0.47866 0.36066 0.17291 0.0
C1550 C 0.47919 0.32174 0.14421 0.0
C1551 C 0.51075 0.32555 0.18142 0.0
C1552 C 0.46841 0.34686 0.15138 0.0
C1553 C 0.49943 0.35062 0.18794 0.0
C1554 C 0.45005 0.25041 0.10115 0.0
C1555 C 0.41418 0.21824 0.10924 0.0
N1556 N 0.40036 0.22842 0.08771 0.0
C1557 C 0.43551 0.26054 0.07911 0.0
C1558 C 0.43933 0.22908 0.11636 0.0
C1559 C 0.41042 0.24916 0.07264 0.0
C1560 C 0.50727 0.30805 0.06394 0.0
N1561 N 0.51587 0.3101 0.08999 0.0
C1562 C 0.53311 0.35459 0.08179 0.0
C1563 C 0.52872 0.3327 0.09912 0.0
C1564 C 0.52444 0.35313 0.05469 0.0
C1565 C 0.51138 0.32939 0.04585 0.0
H1566 H 0.49737 0.28969 0.05719 0.0
H1567 H 0.5356 0.33377 0.11987 0.0
C1568 C 0.45316 0.25741 0.19657 0.0
N1569 N 0.45108 0.26593 0.17051 0.0
C1570 C 0.43184 0.26152 0.21468 0.0
C1571 C 0.40662 0.28308 0.17874 0.0
C1572 C 0.42848 0.2787 0.16139 0.0
C1573 C 0.40809 0.27449 0.20585 0.0
H1574 H 0.47151 0.24757 0.20331 0.0
H1575 H 0.4274 0.28553 0.14063 0.0
C1576 C 0.56094 0.26073 0.10102 0.0
N1577 N 0.61057 0.28273 0.08749 0.0
C1578 C 0.57539 0.2506 0.07894 0.0
C1579 C 0.57171 0.28207 0.11623 0.0
C1580 C 0.60046 0.26198 0.07242 0.0
C1581 C 0.59683 0.29291 0.10906 0.0
C1582 C 0.51064 0.20016 0.15934 0.0
C1583 C 0.53193 0.18942 0.14412 0.0
C1584 C 0.5005 0.18568 0.18141 0.0
C1585 C 0.54273 0.16431 0.15127 0.0
C1586 C 0.51184 0.16062 0.1879 0.0
N1587 N 0.53255 0.15055 0.17283 0.0
C1588 C 0.55813 0.25374 0.19645 0.0
C1589 C 0.58269 0.23246 0.16119 0.0
C1590 C 0.5795 0.24958 0.21452 0.0
N1591 N 0.56013 0.24524 0.17037 0.0
C1592 C 0.6046 0.22803 0.17849 0.0
C1593 C 0.60321 0.2366 0.20562 0.0
H1594 H 0.5398 0.26358 0.20325 0.0
H1595 H 0.58372 0.22565 0.14041 0.0
C1596 C 0.50365 0.20303 0.06394 0.0
N1597 N 0.4951 0.20102 0.08999 0.0
C1598 C 0.49953 0.18165 0.04586 0.0
C1599 C 0.47789 0.15651 0.08183 0.0
C1600 C 0.48229 0.17843 0.09914 0.0
C1601 C 0.48652 0.1579 0.05473 0.0
H1602 H 0.51353 0.22138 0.05717 0.0
H1603 H 0.47544 0.1774 0.1199 0.0
O1604 O 0.5114 0.28639 0.15295 0.0
O1605 O 0.47471 0.26133 0.10752 0.0
O1606 O 0.5363 0.24981 0.10745 0.0
O1607 O 0.49977 0.2248 0.15294 0.0
H1608 H 0.47104 0.31085 0.12704 0.0
H1609 H 0.52726 0.31751 0.19337 0.0
H1610 H 0.45189 0.35539 0.13982 0.0
H1611 H 0.50714 0.36209 0.20495 0.0
H1612 H 0.40564 0.20174 0.12084 0.0
H1613 H 0.44356 0.27703 0.06713 0.0
H1614 H 0.45022 0.221 0.13352 0.0
H1615 H 0.39894 0.2568 0.05564 0.0
H1616 H 0.54294 0.37254 0.08966 0.0
H1617 H 0.50476 0.32711 0.02508 0.0
H1618 H 0.43414 0.25496 0.23546 0.0
H1619 H 0.38866 0.29285 0.17089 0.0
H1620 H 0.5673 0.2341 0.06696 0.0
H1621 H 0.56088 0.29016 0.13343 0.0
H1622 H 0.61188 0.25433 0.05538 0.0
H1623 H 0.60541 0.30942 0.12065 0.0
H1624 H 0.54003 0.20028 0.12694 0.0
H1625 H 0.48403 0.19375 0.1934 0.0
H1626 H 0.55921 0.15577 0.13967 0.0
H1627 H 0.50418 0.14918 0.20494 0.0
H1628 H 0.57726 0.25612 0.23532 0.0
H1629 H 0.62253 0.21825 0.17058 0.0
H1630 H 0.50612 0.18388 0.02508 0.0
H1631 H 0.46809 0.13855 0.08971 0.0
loop_
_geom_bond_atom_site_label_1
_geom_bond_atom_site_label_2
_geom_bond_distance
_geom_bond_site_symmetry_2
_ccdc_geom_bond_type
C0 C1 1.384 . S
C0 H13 0.947 . S
C0 C35 1.382 . S
C1 C0 1.384 . S
C1 C2 1.377 . S
C2 C1 1.377 . S
C2 C3 1.377 1_655 S
C2 H14 0.954 1_545 S
C3 C2 1.377 1_455 S
C3 H15 0.950 1_545 S
C3 C34 1.384 . S
H4 C23 0.947 . S
H5 C24 0.946 . S
H6 C26 0.974 . S
H7 C27 0.945 1_556 S
H8 C29 0.952 . S
H9 C30 0.949 . S
H10 C32 0.950 1_655 S
H11 C33 0.948 1_655 S
H12 C35 0.951 . S
H13 C0 0.947 . S
H14 C2 0.954 1_565 S
H15 C3 0.950 1_565 S
N16 C19 1.382 . S
N16 C21 1.363 . S
N17 C19 1.371 . S
N17 C20 1.372 . S
N18 C20 1.361 . S
N18 C21 1.377 . S
C19 N16 1.382 . S
C19 N17 1.371 . S
C19 C22 1.485 . S
C20 N17 1.372 . S
C20 N18 1.361 . S
C20 C28 1.458 . S
C21 N16 1.363 . S
C21 N18 1.377 . S
C21 C34 1.481 . S
C22 C19 1.485 . S
C22 C23 1.376 1_545 S
C22 C27 1.387 . S
C23 H4 0.947 . S
C23 C22 1.376 1_565 S
C23 C24 1.388 . S
C24 H5 0.946 . S
C24 C23 1.388 . S
C24 C25 1.384 . S
C25 C24 1.384 . S
C25 C26 1.361 1_554 S
C26 H6 0.974 . S
C26 C25 1.361 1_556 S
C26 C27 1.364 1_566 S
C27 H7 0.945 1_554 S
C27 C22 1.387 . S
C27 C26 1.364 1_544 S
C28 C20 1.458 . S
C28 C29 1.371 1_554 S
C28 C33 1.364 . S
C29 H8 0.952 . S
C29 C28 1.371 1_556 S
C29 C30 1.389 . S
C30 H9 0.949 . S
C30 C29 1.389 . S
C30 C31 1.387 . S
C31 C30 1.387 . S
C31 C32 1.372 . S
C32 H10 0.950 1_455 S
C32 C31 1.372 . S
C32 C33 1.379 1_556 S
C33 H11 0.948 1_455 S
C33 C28 1.364 . S
C33 C32 1.379 1_554 S
C34 C3 1.384 . S
C34 C21 1.481 . S
C34 C35 1.395 1_455 S
C35 C0 1.382 . S
C35 H12 0.951 . S
C35 C34 1.395 1_655 S
C36 C37 1.384 . S
C36 H49 0.947 . S
C36 C71 1.382 . S
C37 C36 1.384 . S
C37 C38 1.378 . S
C38 C37 1.378 . S
C38 C39 1.378 . S
C38 H50 0.952 . S
C39 C38 1.378 . S
C39 H51 0.950 . S
C39 C70 1.383 . S
H40 C59 0.947 . S
H41 C60 0.946 . S
H42 C62 0.953 . S
H43 C63 0.945 . S
H44 C65 0.952 . S
H45 C66 0.949 . S
H46 C68 0.950 . S
H47 C69 0.948 . S
H48 C71 0.951 . S
H49 C36 0.947 . S
H50 C38 0.952 . S
H51 C39 0.950 . S
N52 C55 1.382 . S
N52 C57 1.363 . S
N53 C55 1.371 . S
N53 C56 1.372 . S
N54 C56 1.361 . S
N54 C57 1.377 . S
C55 N52 1.382 . S
C55 N53 1.371 . S
C55 C58 1.480 . S
C56 N53 1.372 . S
C56 N54 1.361 . S
C56 C64 1.457 . S
C57 N52 1.363 . S
C57 N54 1.377 . S
C57 C70 1.479 . S
C58 C55 1.480 . S
C58 C59 1.383 . S
C58 C63 1.385 . S
C59 H40 0.947 . S
C59 C58 1.383 . S
C59 C60 1.388 . S
C60 H41 0.946 . S
C60 C59 1.388 . S
C60 C61 1.384 . S
C61 C60 1.384 . S
C61 C62 1.377 . S
C62 H42 0.953 . S
C62 C61 1.377 . S
C62 C63 1.369 . S
C63 H43 0.945 . S
C63 C58 1.385 . S
C63 C62 1.369 . S
C64 C56 1.457 . S
C64 C65 1.372 . S
C64 C69 1.364 . S
C65 H44 0.952 . S
C65 C64 1.372 . S
C65 C66 1.389 . S
C66 H45 0.949 . S
C66 C65 1.389 . S
C66 C67 1.387 . S
C67 C66 1.387 . S
C67 C68 1.372 . S
C68 H46 0.950 . S
C68 C67 1.372 . S
C68 C69 1.379 . S
C69 H47 0.948 . S
C69 C64 1.364 . S
C69 C68 1.379 . S
C70 C39 1.383 . S
C70 C57 1.479 . S
C70 C71 1.398 . S
C71 C36 1.382 . S
C71 H48 0.951 . S
C71 C70 1.398 . S
C72 C73 1.384 1_455 S
C72 H85 0.947 . S
C72 C107 1.382 1_456 S
C73 C72 1.384 1_655 S
C73 C74 1.378 . S
C74 C73 1.378 . S
C74 C75 1.378 . S
C74 H86 0.952 . S
C75 C74 1.378 . S
C75 H87 0.950 . S
C75 C106 1.383 . S
H76 C95 0.947 1_556 S
H77 C96 0.946 . S
H78 C98 0.953 . S
H79 C99 0.945 . S
H80 C101 0.980 . S
H81 C102 0.949 . S
H82 C104 0.950 . S
H83 C105 0.948 . S
H84 C107 0.951 1_455 S
H85 C72 0.947 . S
H86 C74 0.952 . S
H87 C75 0.950 . S
N88 C91 1.382 . S
N88 C93 1.363 . S
N89 C91 1.371 . S
N89 C92 1.372 . S
N90 C92 1.361 . S
N90 C93 1.377 . S
C91 N88 1.382 . S
C91 N89 1.371 . S
C91 C94 1.480 . S
C92 N89 1.372 . S
C92 N90 1.361 . S
C92 C100 1.457 1_655 S
C93 N88 1.363 . S
C93 N90 1.377 . S
C93 C106 1.479 1_554 S
C94 C91 1.480 . S
C94 C95 1.383 . S
C94 C99 1.385 . S
C95 H76 0.947 1_554 S
C95 C94 1.383 . S
C95 C96 1.388 1_554 S
C96 H77 0.946 . S
C96 C95 1.388 1_556 S
C96 C97 1.383 1_556 S
C97 C96 1.383 1_554 S
C97 C98 1.377 . S
C98 H78 0.953 . S
C98 C97 1.377 . S
C98 C99 1.369 . S
C99 H79 0.945 . S
C99 C94 1.385 . S
C99 C98 1.369 . S
C100 C92 1.457 1_455 S
C100 C101 1.362 1_455 S
C100 C105 1.364 . S
C101 H80 0.980 . S
C101 C100 1.362 1_655 S
C101 C102 1.370 1_655 S
C102 H81 0.949 . S
C102 C101 1.370 1_455 S
C102 C103 1.387 . S
C103 C102 1.387 . S
C103 C104 1.372 . S
C104 H82 0.950 . S
C104 C103 1.372 . S
C104 C105 1.379 . S
C105 H83 0.948 . S
C105 C100 1.364 . S
C105 C104 1.379 . S
C106 C75 1.383 . S
C106 C93 1.479 1_556 S
C106 C107 1.398 1_556 S
C107 C72 1.382 1_654 S
C107 H84 0.951 1_655 S
C107 C106 1.398 1_554 S
C108 C109 1.384 . S
C108 H121 0.947 . S
C108 C143 1.382 . S
C109 C108 1.384 . S
C109 C110 1.378 . S
C110 C109 1.378 . S
C110 C111 1.378 . S
C110 H122 0.952 . S
C111 C110 1.378 . S
C111 H123 0.950 . S
C111 C142 1.383 . S
H112 C131 0.947 . S
H113 C132 0.946 . S
H114 C134 0.953 . S
H115 C135 0.945 . S
H116 C137 0.952 . S
H117 C138 0.949 . S
H118 C140 0.950 . S
H119 C141 0.948 . S
H120 C143 0.951 . S
H121 C108 0.947 . S
H122 C110 0.952 . S
H123 C111 0.950 . S
N124 C127 1.382 . S
N124 C129 1.363 . S
N125 C127 1.371 . S
N125 C128 1.372 . S
N126 C128 1.361 . S
N126 C129 1.377 . S
C127 N124 1.382 . S
C127 N125 1.371 . S
C127 C130 1.480 . S
C128 N125 1.372 . S
C128 N126 1.361 . S
C128 C136 1.457 . S
C129 N124 1.363 . S
C129 N126 1.377 . S
C129 C142 1.479 . S
C130 C127 1.480 . S
C130 C131 1.383 . S
C130 C135 1.385 . S
C131 H112 0.947 . S
C131 C130 1.383 . S
C131 C132 1.388 . S
C132 H113 0.946 . S
C132 C131 1.388 . S
C132 C133 1.384 . S
C133 C132 1.384 . S
C133 C134 1.377 . S
C134 H114 0.953 . S
C134 C133 1.377 . S
C134 C135 1.369 . S
C135 H115 0.945 . S
C135 C130 1.385 . S
C135 C134 1.369 . S
C136 C128 1.457 . S
C136 C137 1.372 . S
C136 C141 1.364 . S
C137 H116 0.952 . S
C137 C136 1.372 . S
C137 C138 1.389 . S
C138 H117 0.949 . S
C138 C137 1.389 . S
C138 C139 1.387 . S
C139 C138 1.387 . S
C139 C140 1.372 . S
C140 H118 0.950 . S
C140 C139 1.372 . S
C140 C141 1.379 . S
C141 H119 0.948 . S
C141 C136 1.364 . S
C141 C140 1.379 . S
C142 C111 1.383 . S
C142 C129 1.479 . S
C142 C143 1.398 . S
C143 C108 1.382 . S
C143 H120 0.951 . S
C143 C142 1.398 . S
C144 C145 1.384 . S
C144 H157 0.947 . S
C144 C179 1.382 . S
C145 C144 1.384 . S
C145 C146 1.386 . S
C146 C145 1.386 . S
C146 C147 1.380 . S
C146 H158 0.942 1_455 S
C147 C146 1.380 . S
C147 H159 0.950 1_455 S
C147 C178 1.383 . S
H148 C167 0.947 . S
H149 C168 0.946 . S
H150 C170 0.953 . S
H151 C171 0.945 1_545 S
H152 C173 0.952 . S
H153 C174 0.949 . S
H154 C176 0.950 . S
H155 C177 0.948 . S
H156 C179 0.951 . S
H157 C144 0.947 . S
H158 C146 0.942 1_655 S
H159 C147 0.950 1_655 S
N160 C163 1.382 . S
N160 C165 1.363 . S
N161 C163 1.371 . S
N161 C164 1.372 . S
N162 C164 1.361 . S
N162 C165 1.377 . S
C163 N160 1.382 . S
C163 N161 1.371 . S
C163 C166 1.489 . S
C164 N161 1.372 . S
C164 N162 1.361 . S
C164 C172 1.437 1_565 S
C165 N160 1.363 . S
C165 N162 1.377 . S
C165 C178 1.479 . S
C166 C163 1.489 . S
C166 C167 1.371 1_455 S
C166 C171 1.388 . S
C167 H148 0.947 . S
C167 C166 1.371 1_655 S
C167 C168 1.388 . S
C168 H149 0.946 . S
C168 C167 1.388 . S
C168 C169 1.384 . S
C169 C168 1.384 . S
C169 C170 1.377 1_565 S
C170 H150 0.953 . S
C170 C169 1.377 1_545 S
C170 C171 1.369 1_645 S
C171 H151 0.945 1_565 S
C171 C166 1.388 . S
C171 C170 1.369 1_465 S
C172 C164 1.437 1_545 S
C172 C173 1.401 . S
C172 C177 1.356 1_545 S
C173 H152 0.952 . S
C173 C172 1.401 . S
C173 C174 1.389 . S
C174 H153 0.949 . S
C174 C173 1.389 . S
C174 C175 1.387 . S
C175 C174 1.387 . S
C175 C176 1.372 . S
C176 H154 0.950 . S
C176 C175 1.372 . S
C176 C177 1.379 1_545 S
C177 H155 0.948 . S
C177 C172 1.356 1_565 S
C177 C176 1.379 1_565 S
C178 C147 1.383 . S
C178 C165 1.479 . S
C178 C179 1.398 . S
C179 C144 1.382 . S
C179 H156 0.951 . S
C179 C178 1.398 . S
C180 C181 1.384 . S
C180 H193 0.947 . S
C180 C215 1.382 . S
C181 C180 1.384 . S
C181 C182 1.378 . S
C182 C181 1.378 . S
C182 C183 1.378 . S
C182 H194 0.952 . S
C183 C182 1.378 . S
C183 H195 0.950 . S
C183 C214 1.383 . S
H184 C203 0.947 . S
H185 C204 0.946 . S
H186 C206 0.953 . S
H187 C207 0.945 . S
H188 C209 0.952 . S
H189 C210 0.949 . S
H190 C212 0.950 . S
H191 C213 0.948 . S
H192 C215 0.951 . S
H193 C180 0.947 . S
H194 C182 0.952 . S
H195 C183 0.950 . S
N196 C199 1.382 . S
N196 C201 1.363 . S
N197 C199 1.371 . S
N197 C200 1.372 . S
N198 C200 1.361 . S
N198 C201 1.377 . S
C199 N196 1.382 . S
C199 N197 1.371 . S
C199 C202 1.480 . S
C200 N197 1.372 . S
C200 N198 1.361 . S
C200 C208 1.457 . S
C201 N196 1.363 . S
C201 N198 1.377 . S
C201 C214 1.479 . S
C202 C199 1.480 . S
C202 C203 1.383 . S
C202 C207 1.385 . S
C203 H184 0.947 . S
C203 C202 1.383 . S
C203 C204 1.388 . S
C204 H185 0.946 . S
C204 C203 1.388 . S
C204 C205 1.384 . S
C205 C204 1.384 . S
C205 C206 1.377 . S
C206 H186 0.953 . S
C206 C205 1.377 . S
C206 C207 1.369 . S
C207 H187 0.945 . S
C207 C202 1.385 . S
C207 C206 1.369 . S
C208 C200 1.457 . S
C208 C209 1.372 . S
C208 C213 1.364 . S
C209 H188 0.952 . S
C209 C208 1.372 . S
C209 C210 1.389 . S
C210 H189 0.949 . S
C210 C209 1.389 . S
C210 C211 1.387 . S
C211 C210 1.387 . S
C211 C212 1.372 . S
C212 H190 0.950 . S
C212 C211 1.372 . S
C212 C213 1.379 . S
C213 H191 0.948 . S
C213 C208 1.364 . S
C213 C212 1.379 . S
C214 C183 1.383 . S
C214 C201 1.479 . S
C214 C215 1.398 . S
C215 C180 1.382 . S
C215 H192 0.951 . S
C215 C214 1.398 . S
C216 C217 1.384 1_455 S
C216 H229 0.947 . S
C216 C251 1.382 1_455 S
C217 C216 1.384 1_655 S
C217 C218 1.378 . S
C218 C217 1.378 . S
C218 C219 1.378 . S
C218 H230 0.952 . S
C219 C218 1.378 . S
C219 H231 0.950 . S
C219 C250 1.383 . S
H220 C239 0.947 . S
H221 C240 0.946 . S
H222 C242 0.953 . S
H223 C243 0.945 . S
H224 C245 0.950 . S
H225 C246 0.949 . S
H226 C248 0.950 . S
H227 C249 0.948 . S
H228 C251 0.951 1_455 S
H229 C216 0.947 . S
H230 C218 0.952 . S
H231 C219 0.950 . S
N232 C235 1.382 . S
N232 C237 1.363 . S
N233 C235 1.371 . S
N233 C236 1.372 . S
N234 C236 1.361 . S
N234 C237 1.377 . S
C235 N232 1.382 . S
C235 N233 1.371 . S
C235 C238 1.480 . S
C236 N233 1.372 . S
C236 N234 1.361 . S
C236 C244 1.457 1_655 S
C237 N232 1.363 . S
C237 N234 1.377 . S
C237 C250 1.479 . S
C238 C235 1.480 . S
C238 C239 1.383 . S
C238 C243 1.385 . S
C239 H220 0.947 . S
C239 C238 1.383 . S
C239 C240 1.388 . S
C240 H221 0.946 . S
C240 C239 1.388 . S
C240 C241 1.384 . S
C241 C240 1.384 . S
C241 C242 1.377 . S
C242 H222 0.953 . S
C242 C241 1.377 . S
C242 C243 1.369 . S
C243 H223 0.945 . S
C243 C238 1.385 . S
C243 C242 1.369 . S
C244 C236 1.457 1_455 S
C244 C245 1.372 1_455 S
C244 C249 1.364 . S
C245 H224 0.950 . S
C245 C244 1.372 1_655 S
C245 C246 1.390 1_655 S
C246 H225 0.949 . S
C246 C245 1.390 1_455 S
C246 C247 1.387 . S
C247 C246 1.387 . S
C247 C248 1.372 . S
C248 H226 0.950 . S
C248 C247 1.372 . S
C248 C249 1.379 . S
C249 H227 0.948 . S
C249 C244 1.364 . S
C249 C248 1.379 . S
C250 C219 1.383 . S
C250 C237 1.479 . S
C250 C251 1.398 . S
C251 C216 1.382 1_655 S
C251 H228 0.951 1_655 S
C251 C250 1.398 . S
C252 C253 1.384 . S
C252 H265 0.947 . S
C252 C287 1.382 . S
C253 C252 1.384 . S
C253 C254 1.378 . S
C254 C253 1.378 . S
C254 C255 1.378 . S
C254 H266 0.952 . S
C255 C254 1.378 . S
C255 H267 0.950 . S
C255 C286 1.383 . S
H256 C275 0.947 . S
H257 C276 0.946 . S
H258 C278 0.953 . S
H259 C279 0.945 . S
H260 C281 0.952 . S
H261 C282 0.949 . S
H262 C284 0.950 . S
H263 C285 0.948 . S
H264 C287 0.951 . S
H265 C252 0.947 . S
H266 C254 0.952 . S
H267 C255 0.950 . S
N268 C271 1.382 . S
N268 C273 1.363 . S
N269 C271 1.371 . S
N269 C272 1.372 . S
N270 C272 1.361 . S
N270 C273 1.377 . S
C271 N268 1.382 . S
C271 N269 1.371 . S
C271 C274 1.480 . S
C272 N269 1.372 . S
C272 N270 1.361 . S
C272 C280 1.457 . S
C273 N268 1.363 . S
C273 N270 1.377 . S
C273 C286 1.479 . S
C274 C271 1.480 . S
C274 C275 1.383 . S
C274 C279 1.385 . S
C275 H256 0.947 . S
C275 C274 1.383 . S
C275 C276 1.388 . S
C276 H257 0.946 . S
C276 C275 1.388 . S
C276 C277 1.384 . S
C277 C276 1.384 . S
C277 C278 1.377 . S
C278 H258 0.953 . S
C278 C277 1.377 . S
C278 C279 1.369 . S
C279 H259 0.945 . S
C279 C274 1.385 . S
C279 C278 1.369 . S
C280 C272 1.457 . S
C280 C281 1.372 . S
C280 C285 1.364 . S
C281 H260 0.952 . S
C281 C280 1.372 . S
C281 C282 1.389 . S
C282 H261 0.949 . S
C282 C281 1.389 . S
C282 C283 1.387 . S
C283 C282 1.387 . S
C283 C284 1.372 . S
C284 H262 0.950 . S
C284 C283 1.372 . S
C284 C285 1.379 . S
C285 H263 0.948 . S
C285 C280 1.364 . S
C285 C284 1.379 . S
C286 C255 1.383 . S
C286 C273 1.479 . S
C286 C287 1.398 . S
C287 C252 1.382 . S
C287 H264 0.951 . S
C287 C286 1.398 . S
C288 C289 1.384 . S
C288 H301 0.947 . S
C288 C323 1.382 . S
C289 C288 1.384 . S
C289 C290 1.378 . S
C290 C289 1.378 . S
C290 C291 1.378 . S
C290 H302 0.952 . S
C291 C290 1.378 . S
C291 H303 0.950 . S
C291 C322 1.383 . S
H292 C311 0.947 . S
H293 C312 0.946 . S
H294 C314 0.953 . S
H295 C315 0.945 . S
H296 C317 0.952 . S
H297 C318 0.949 . S
H298 C320 0.950 . S
H299 C321 0.948 . S
H300 C323 0.951 . S
H301 C288 0.947 . S
H302 C290 0.952 . S
H303 C291 0.950 . S
N304 C307 1.382 . S
N304 C309 1.363 . S
N305 C307 1.371 . S
N305 C308 1.372 . S
N306 C308 1.361 . S
N306 C309 1.377 . S
C307 N304 1.382 . S
C307 N305 1.371 . S
C307 C310 1.480 . S
C308 N305 1.372 . S
C308 N306 1.361 . S
C308 C316 1.457 . S
C309 N304 1.363 . S
C309 N306 1.377 . S
C309 C322 1.479 . S
C310 C307 1.480 . S
C310 C311 1.383 . S
C310 C315 1.385 . S
C311 H292 0.947 . S
C311 C310 1.383 . S
C311 C312 1.388 . S
C312 H293 0.946 . S
C312 C311 1.388 . S
C312 C313 1.384 . S
C313 C312 1.384 . S
C313 C314 1.377 . S
C314 H294 0.953 . S
C314 C313 1.377 . S
C314 C315 1.369 . S
C315 H295 0.945 . S
C315 C310 1.385 . S
C315 C314 1.369 . S
C316 C308 1.457 . S
C316 C317 1.372 . S
C316 C321 1.364 . S
C317 H296 0.952 . S
C317 C316 1.372 . S
C317 C318 1.389 . S
C318 H297 0.949 . S
C318 C317 1.389 . S
C318 C319 1.387 . S
C319 C318 1.387 . S
C319 C320 1.372 . S
C320 H298 0.950 . S
C320 C319 1.372 . S
C320 C321 1.379 . S
C321 H299 0.948 . S
C321 C316 1.364 . S
C321 C320 1.379 . S
C322 C291 1.383 . S
C322 C309 1.479 . S
C322 C323 1.398 . S
C323 C288 1.382 . S
C323 H300 0.951 . S
C323 C322 1.398 . S
C324 C325 1.384 . S
C324 H337 0.947 . S
C324 C359 1.382 . S
C325 C324 1.384 . S
C325 C326 1.378 . S
C326 C325 1.378 . S
C326 C327 1.378 . S
C326 H338 0.952 . S
C327 C326 1.378 . S
C327 H339 0.950 . S
C327 C358 1.383 . S
H328 C347 0.947 1_565 S
H329 C348 0.946 . S
H330 C350 0.953 . S
H331 C351 0.945 . S
H332 C353 0.952 1_545 S
H333 C354 0.949 . S
H334 C356 0.950 . S
H335 C357 0.948 . S
H336 C359 0.951 . S
H337 C324 0.947 . S
H338 C326 0.952 . S
H339 C327 0.950 . S
N340 C343 1.382 . S
N340 C345 1.363 . S
N341 C343 1.371 . S
N341 C344 1.372 . S
N342 C344 1.361 . S
N342 C345 1.377 . S
C343 N340 1.382 . S
C343 N341 1.371 . S
C343 C346 1.480 1_565 S
C344 N341 1.372 . S
C344 N342 1.361 . S
C344 C352 1.457 . S
C345 N340 1.363 . S
C345 N342 1.377 . S
C345 C358 1.479 . S
C346 C343 1.480 1_545 S
C346 C347 1.383 . S
C346 C351 1.385 . S
C347 H328 0.947 1_545 S
C347 C346 1.383 . S
C347 C348 1.388 . S
C348 H329 0.946 . S
C348 C347 1.388 . S
C348 C349 1.384 . S
C349 C348 1.384 . S
C349 C350 1.377 . S
C350 H330 0.953 . S
C350 C349 1.377 . S
C350 C351 1.369 . S
C351 H331 0.945 . S
C351 C346 1.385 . S
C351 C350 1.369 . S
C352 C344 1.457 . S
C352 C353 1.372 . S
C352 C357 1.364 . S
C353 H332 0.952 1_565 S
C353 C352 1.372 . S
C353 C354 1.389 1_565 S
C354 H333 0.949 . S
C354 C353 1.389 1_545 S
C354 C355 1.387 1_545 S
C355 C354 1.387 1_565 S
C355 C356 1.372 . S
C356 H334 0.950 . S
C356 C355 1.372 . S
C356 C357 1.379 . S
C357 H335 0.948 . S
C357 C352 1.364 . S
C357 C356 1.379 . S
C358 C327 1.383 . S
C358 C345 1.479 . S
C358 C359 1.398 . S
C359 C324 1.382 . S
C359 H336 0.951 . S
C359 C358 1.398 . S
C360 C361 1.384 . S
C360 H373 0.947 . S
C360 C395 1.382 . S
C361 C360 1.384 . S
C361 C362 1.378 . S
C362 C361 1.378 . S
C362 C363 1.378 . S
C362 H374 0.952 . S
C363 C362 1.378 . S
C363 H375 0.950 . S
C363 C394 1.383 . S
H364 C383 0.947 . S
H365 C384 0.946 . S
H366 C386 0.953 . S
H367 C387 0.945 . S
H368 C389 0.952 . S
H369 C390 0.949 . S
H370 C392 0.950 . S
H371 C393 0.948 . S
H372 C395 0.951 . S
H373 C360 0.947 . S
H374 C362 0.952 . S
H375 C363 0.950 . S
N376 C379 1.382 . S
N376 C381 1.363 . S
N377 C379 1.371 . S
N377 C380 1.372 . S
N378 C380 1.361 . S
N378 C381 1.377 . S
C379 N376 1.382 . S
C379 N377 1.371 . S
C379 C382 1.480 . S
C380 N377 1.372 . S
C380 N378 1.361 . S
C380 C388 1.457 . S
C381 N376 1.363 . S
C381 N378 1.377 . S
C381 C394 1.479 . S
C382 C379 1.480 . S
C382 C383 1.383 . S
C382 C387 1.385 . S
C383 H364 0.947 . S
C383 C382 1.383 . S
C383 C384 1.388 . S
C384 H365 0.946 . S
C384 C383 1.388 . S
C384 C385 1.384 . S
C385 C384 1.384 . S
C385 C386 1.377 . S
C386 H366 0.953 . S
C386 C385 1.377 . S
C386 C387 1.369 . S
C387 H367 0.945 . S
C387 C382 1.385 . S
C387 C386 1.369 . S
C388 C380 1.457 . S
C388 C389 1.372 . S
C388 C393 1.364 . S
C389 H368 0.952 . S
C389 C388 1.372 . S
C389 C390 1.389 . S
C390 H369 0.949 . S
C390 C389 1.389 . S
C390 C391 1.387 . S
C391 C390 1.387 . S
C391 C392 1.372 . S
C392 H370 0.950 . S
C392 C391 1.372 . S
C392 C393 1.379 . S
C393 H371 0.948 . S
C393 C388 1.364 . S
C393 C392 1.379 . S
C394 C363 1.383 . S
C394 C381 1.479 . S
C394 C395 1.398 . S
C395 C360 1.382 . S
C395 H372 0.951 . S
C395 C394 1.398 . S
C396 C397 1.384 . S
C396 H409 0.947 . S
C396 C431 1.382 . S
C397 C396 1.384 . S
C397 C398 1.378 . S
C398 C397 1.378 . S
C398 C399 1.378 . S
C398 H410 0.952 . S
C399 C398 1.378 . S
C399 H411 0.950 . S
C399 C430 1.383 . S
H400 C419 0.947 . S
H401 C420 0.946 . S
H402 C422 0.953 . S
H403 C423 0.945 . S
H404 C425 0.952 . S
H405 C426 0.949 . S
H406 C428 0.950 . S
H407 C429 0.948 . S
H408 C431 0.951 . S
H409 C396 0.947 . S
H410 C398 0.952 . S
H411 C399 0.950 . S
N412 C415 1.382 . S
N412 C417 1.363 . S
N413 C415 1.371 . S
N413 C416 1.372 . S
N414 C416 1.361 . S
N414 C417 1.377 . S
C415 N412 1.382 . S
C415 N413 1.371 . S
C415 C418 1.480 . S
C416 N413 1.372 . S
C416 N414 1.361 . S
C416 C424 1.457 . S
C417 N412 1.363 . S
C417 N414 1.377 . S
C417 C430 1.479 . S
C418 C415 1.480 . S
C418 C419 1.383 . S
C418 C423 1.385 . S
C419 H400 0.947 . S
C419 C418 1.383 . S
C419 C420 1.388 . S
C420 H401 0.946 . S
C420 C419 1.388 . S
C420 C421 1.384 . S
C421 C420 1.384 . S
C421 C422 1.377 . S
C422 H402 0.953 . S
C422 C421 1.377 . S
C422 C423 1.369 . S
C423 H403 0.945 . S
C423 C418 1.385 . S
C423 C422 1.369 . S
C424 C416 1.457 . S
C424 C425 1.372 . S
C424 C429 1.364 . S
C425 H404 0.952 . S
C425 C424 1.372 . S
C425 C426 1.389 . S
C426 H405 0.949 . S
C426 C425 1.389 . S
C426 C427 1.387 . S
C427 C426 1.387 . S
C427 C428 1.372 . S
C428 H406 0.950 . S
C428 C427 1.372 . S
C428 C429 1.379 . S
C429 H407 0.948 . S
C429 C424 1.364 . S
C429 C428 1.379 . S
C430 C399 1.383 . S
C430 C417 1.479 . S
C430 C431 1.398 . S
C431 C396 1.382 . S
C431 H408 0.951 . S
C431 C430 1.398 . S
C432 C433 1.384 . S
C432 H445 0.947 . S
C432 C467 1.382 . S
C433 C432 1.384 . S
C433 C434 1.378 . S
C434 C433 1.378 . S
C434 C435 1.378 . S
C434 H446 0.952 . S
C435 C434 1.378 . S
C435 H447 0.950 . S
C435 C466 1.383 . S
H436 C455 0.947 . S
H437 C456 0.946 . S
H438 C458 0.953 . S
H439 C459 0.945 . S
H440 C461 0.952 . S
H441 C462 0.949 . S
H442 C464 0.950 . S
H443 C465 0.948 . S
H444 C467 0.951 . S
H445 C432 0.947 . S
H446 C434 0.952 . S
H447 C435 0.950 . S
N448 C451 1.382 . S
N448 C453 1.363 . S
N449 C451 1.371 . S
N449 C452 1.372 . S
N450 C452 1.361 . S
N450 C453 1.377 . S
C451 N448 1.382 . S
C451 N449 1.371 . S
C451 C454 1.480 . S
C452 N449 1.372 . S
C452 N450 1.361 . S
C452 C460 1.457 . S
C453 N448 1.363 . S
C453 N450 1.377 . S
C453 C466 1.479 . S
C454 C451 1.480 . S
C454 C455 1.383 . S
C454 C459 1.385 . S
C455 H436 0.947 . S
C455 C454 1.383 . S
C455 C456 1.388 . S
C456 H437 0.946 . S
C456 C455 1.388 . S
C456 C457 1.384 . S
C457 C456 1.384 . S
C457 C458 1.377 . S
C458 H438 0.953 . S
C458 C457 1.377 . S
C458 C459 1.369 . S
C459 H439 0.945 . S
C459 C454 1.385 . S
C459 C458 1.369 . S
C460 C452 1.457 . S
C460 C461 1.372 . S
C460 C465 1.364 . S
C461 H440 0.952 . S
C461 C460 1.372 . S
C461 C462 1.389 . S
C462 H441 0.949 . S
C462 C461 1.389 . S
C462 C463 1.387 . S
C463 C462 1.387 . S
C463 C464 1.372 . S
C464 H442 0.950 . S
C464 C463 1.372 . S
C464 C465 1.379 . S
C465 H443 0.948 . S
C465 C460 1.364 . S
C465 C464 1.379 . S
C466 C435 1.383 . S
C466 C453 1.479 . S
C466 C467 1.398 . S
C467 C432 1.382 . S
C467 H444 0.951 . S
C467 C466 1.398 . S
C468 C469 1.384 . S
C468 H481 0.947 . S
C468 C503 1.382 . S
C469 C468 1.384 . S
C469 C470 1.378 . S
C470 C469 1.378 . S
C470 C471 1.378 1_554 S
C470 H482 0.952 . S
C471 C470 1.378 1_556 S
C471 H483 0.950 . S
C471 C502 1.384 1_556 S
H472 C491 0.947 . S
H473 C492 0.946 . S
H474 C494 0.953 . S
H475 C495 0.945 . S
H476 C497 0.952 . S
H477 C498 0.949 . S
H478 C500 0.923 1_554 S
H479 C501 0.948 1_554 S
H480 C503 0.951 . S
H481 C468 0.947 . S
H482 C470 0.952 . S
H483 C471 0.950 . S
N484 C487 1.382 . S
N484 C489 1.363 . S
N485 C487 1.371 . S
N485 C488 1.372 . S
N486 C488 1.361 . S
N486 C489 1.377 . S
C487 N484 1.382 . S
C487 N485 1.371 . S
C487 C490 1.480 . S
C488 N485 1.372 . S
C488 N486 1.361 . S
C488 C496 1.457 . S
C489 N484 1.363 . S
C489 N486 1.377 . S
C489 C502 1.481 1_556 S
C490 C487 1.480 . S
C490 C491 1.383 . S
C490 C495 1.385 . S
C491 H472 0.947 . S
C491 C490 1.383 . S
C491 C492 1.388 . S
C492 H473 0.946 . S
C492 C491 1.388 . S
C492 C493 1.384 . S
C493 C492 1.384 . S
C493 C494 1.377 . S
C494 H474 0.953 . S
C494 C493 1.377 . S
C494 C495 1.369 . S
C495 H475 0.945 . S
C495 C490 1.385 . S
C495 C494 1.369 . S
C496 C488 1.457 . S
C496 C497 1.372 . S
C496 C501 1.364 . S
C497 H476 0.952 . S
C497 C496 1.372 . S
C497 C498 1.389 . S
C498 H477 0.949 . S
C498 C497 1.389 . S
C498 C499 1.387 . S
C499 C498 1.387 . S
C499 C500 1.392 . S
C500 H478 0.923 1_556 S
C500 C499 1.392 . S
C500 C501 1.386 . S
C501 H479 0.948 1_556 S
C501 C496 1.364 . S
C501 C500 1.386 . S
C502 C471 1.384 1_554 S
C502 C489 1.481 1_554 S
C502 C503 1.395 . S
C503 C468 1.382 . S
C503 H480 0.951 . S
C503 C502 1.395 . S
C504 C505 1.384 . S
C504 H517 0.947 . S
C504 C539 1.382 . S
C505 C504 1.384 . S
C505 C506 1.378 . S
C506 C505 1.378 . S
C506 C507 1.378 . S
C506 H518 0.952 . S
C507 C506 1.378 . S
C507 H519 0.950 . S
C507 C538 1.383 . S
H508 C527 0.947 . S
H509 C528 0.946 . S
H510 C530 0.953 . S
H511 C531 0.945 . S
H512 C533 0.952 . S
H513 C534 0.949 . S
H514 C536 0.950 . S
H515 C537 0.948 . S
H516 C539 0.951 . S
H517 C504 0.947 . S
H518 C506 0.952 . S
H519 C507 0.950 . S
N520 C523 1.382 . S
N520 C525 1.363 . S
N521 C523 1.371 . S
N521 C524 1.372 . S
N522 C524 1.361 . S
N522 C525 1.377 . S
C523 N520 1.382 . S
C523 N521 1.371 . S
C523 C526 1.480 . S
C524 N521 1.372 . S
C524 N522 1.361 . S
C524 C532 1.457 . S
C525 N520 1.363 . S
C525 N522 1.377 . S
C525 C538 1.479 . S
C526 C523 1.480 . S
C526 C527 1.383 . S
C526 C531 1.385 . S
C527 H508 0.947 . S
C527 C526 1.383 . S
C527 C528 1.388 . S
C528 H509 0.946 . S
C528 C527 1.388 . S
C528 C529 1.384 . S
C529 C528 1.384 . S
C529 C530 1.377 . S
C530 H510 0.953 . S
C530 C529 1.377 . S
C530 C531 1.369 . S
C531 H511 0.945 . S
C531 C526 1.385 . S
C531 C530 1.369 . S
C532 C524 1.457 . S
C532 C533 1.372 . S
C532 C537 1.364 . S
C533 H512 0.952 . S
C533 C532 1.372 . S
C533 C534 1.389 . S
C534 H513 0.949 . S
C534 C533 1.389 . S
C534 C535 1.387 . S
C535 C534 1.387 . S
C535 C536 1.372 . S
C536 H514 0.950 . S
C536 C535 1.372 . S
C536 C537 1.379 . S
C537 H515 0.948 . S
C537 C532 1.364 . S
C537 C536 1.379 . S
C538 C507 1.383 . S
C538 C525 1.479 . S
C538 C539 1.398 . S
C539 C504 1.382 . S
C539 H516 0.951 . S
C539 C538 1.398 . S
C540 C541 1.384 . S
C540 H553 0.947 . S
C540 C575 1.375 1_554 S
C541 C540 1.384 . S
C541 C542 1.378 . S
C542 C541 1.378 . S
C542 C543 1.378 . S
C542 H554 0.952 . S
C543 C542 1.378 . S
C543 H555 0.950 . S
C543 C574 1.383 . S
H544 C563 0.899 1_544 S
H545 C564 0.946 . S
H546 C566 0.953 . S
H547 C567 0.945 . S
H548 C569 0.952 1_565 S
H549 C570 0.949 . S
H550 C572 0.950 . S
H551 C573 0.948 . S
H552 C575 0.960 . S
H553 C540 0.947 . S
H554 C542 0.952 . S
H555 C543 0.950 . S
N556 C559 1.382 . S
N556 C561 1.363 . S
N557 C559 1.371 . S
N557 C560 1.372 . S
N558 C560 1.361 . S
N558 C561 1.377 . S
C559 N556 1.382 . S
C559 N557 1.371 . S
C559 C562 1.480 1_545 S
C560 N557 1.372 . S
C560 N558 1.361 . S
C560 C568 1.457 . S
C561 N556 1.363 . S
C561 N558 1.377 . S
C561 C574 1.479 1_556 S
C562 C559 1.480 1_565 S
C562 C563 1.415 . S
C562 C567 1.385 . S
C563 H544 0.899 1_566 S
C563 C562 1.415 . S
C563 C564 1.406 1_556 S
C564 H545 0.946 . S
C564 C563 1.406 1_554 S
C564 C565 1.384 1_554 S
C565 C564 1.384 1_556 S
C565 C566 1.377 . S
C566 H546 0.953 . S
C566 C565 1.377 . S
C566 C567 1.369 . S
C567 H547 0.945 . S
C567 C562 1.385 . S
C567 C566 1.369 . S
C568 C560 1.457 . S
C568 C569 1.372 . S
C568 C573 1.364 . S
C569 H548 0.952 1_545 S
C569 C568 1.372 . S
C569 C570 1.389 1_545 S
C570 H549 0.949 . S
C570 C569 1.389 1_565 S
C570 C571 1.387 1_565 S
C571 C570 1.387 1_545 S
C571 C572 1.372 . S
C572 H550 0.950 . S
C572 C571 1.372 . S
C572 C573 1.379 . S
C573 H551 0.948 . S
C573 C568 1.364 . S
C573 C572 1.379 . S
C574 C543 1.383 . S
C574 C561 1.479 1_554 S
C574 C575 1.396 1_554 S
C575 C540 1.375 1_556 S
C575 H552 0.960 . S
C575 C574 1.396 1_556 S
Li576 N593 1.990 . S
Li576 O636 1.956 . S
Li576 O637 1.970 1_556 S
Li576 O638 1.961 . S
Li577 N601 1.990 . S
Li577 O636 1.970 1_554 S
Li577 O637 1.956 . S
Li577 O639 1.961 . S
Li578 N623 1.990 . S
Li578 O636 1.961 . S
Li578 O638 1.956 . S
Li578 O639 1.970 1_556 S
Li579 N629 1.990 . S
Li579 O637 1.961 . S
Li579 O638 1.970 1_554 S
Li579 O639 1.956 . S
C580 C582 1.348 1_556 S
C580 C583 1.356 . S
C580 O636 1.325 . S
N581 C584 1.314 1_556 S
N581 C585 1.279 . S
C582 C580 1.348 1_554 S
C582 C584 1.353 . S
C582 H640 0.929 . S
C583 C580 1.356 . S
C583 C585 1.358 . S
C583 H641 0.930 . S
C584 N581 1.314 1_554 S
C584 C582 1.353 . S
C584 H642 0.930 . S
C585 N581 1.279 . S
C585 C583 1.358 . S
C585 H643 0.930 . S
C586 C589 1.348 . S
C586 C590 1.356 . S
C586 O637 1.325 . S
C587 N588 1.279 . S
C587 C590 1.358 . S
C587 H644 0.930 . S
N588 C587 1.279 . S
N588 C591 1.314 . S
C589 C586 1.348 . S
C589 C591 1.353 . S
C589 H645 0.929 . S
C590 C586 1.356 . S
C590 C587 1.358 . S
C590 H646 0.930 . S
C591 N588 1.314 . S
C591 C589 1.353 . S
C591 H647 0.930 . S
C592 N593 1.314 . S
C592 C597 1.353 . S
C592 H598 0.930 . S
N593 Li576 1.990 . S
N593 C592 1.314 . S
N593 C595 1.279 . S
C594 C595 1.358 . S
C594 C596 1.356 . S
C594 H648 0.930 . S
C595 N593 1.279 . S
C595 C594 1.358 . S
C595 H599 0.930 . S
C596 C594 1.356 . S
C596 C597 1.348 . S
C597 C592 1.353 . S
C597 C596 1.348 . S
C597 H649 0.929 . S
H598 C592 0.930 . S
H599 C595 0.930 . S
C600 N601 1.314 . S
C600 C602 1.353 . S
C600 H606 0.930 . S
N601 Li577 1.990 . S
N601 C600 1.314 . S
N601 C604 1.279 . S
C602 C600 1.353 . S
C602 C605 1.348 . S
C602 H650 0.929 . S
C603 C604 1.358 . S
C603 C605 1.356 . S
C603 H651 0.930 . S
C604 N601 1.279 . S
C604 C603 1.358 . S
C604 H607 0.930 . S
C605 C602 1.348 . S
C605 C603 1.356 . S
H606 C600 0.930 . S
H607 C604 0.930 . S
C608 C610 1.348 . S
C608 C611 1.356 . S
C608 O638 1.325 . S
N609 C612 1.314 . S
N609 C613 1.279 . S
C610 C608 1.348 . S
C610 C612 1.353 . S
C610 H652 0.929 . S
C611 C608 1.356 . S
C611 C613 1.358 . S
C611 H653 0.930 . S
C612 N609 1.314 . S
C612 C610 1.353 . S
C612 H654 0.930 . S
C613 N609 1.279 . S
C613 C611 1.358 . S
C613 H655 0.930 . S
C614 C615 1.348 1_554 S
C614 C616 1.356 . S
C614 O639 1.325 . S
C615 C614 1.348 1_556 S
C615 C617 1.353 . S
C615 H656 0.929 . S
C616 C614 1.356 . S
C616 C618 1.358 . S
C616 H657 0.930 . S
C617 C615 1.353 . S
C617 N619 1.314 1_556 S
C617 H658 0.930 . S
C618 C616 1.358 . S
C618 N619 1.279 . S
C618 H659 0.930 . S
N619 C617 1.314 1_554 S
N619 C618 1.279 . S
C620 C622 1.353 . S
C620 N623 1.314 . S
C620 H626 0.930 . S
C621 N623 1.279 . S
C621 C624 1.358 . S
C621 H627 0.930 . S
C622 C620 1.353 . S
C622 C625 1.348 . S
C622 H660 0.929 . S
N623 Li578 1.990 . S
N623 C620 1.314 . S
N623 C621 1.279 . S
C624 C621 1.358 . S
C624 C625 1.356 . S
C624 H661 0.930 . S
C625 C622 1.348 . S
C625 C624 1.356 . S
H626 C620 0.930 . S
H627 C621 0.930 . S
C628 N629 1.314 . S
C628 C630 1.353 . S
C628 H634 0.930 . S
N629 Li579 1.990 . S
N629 C628 1.314 . S
N629 C632 1.279 . S
C630 C628 1.353 . S
C630 C633 1.348 . S
C630 H662 0.929 . S
C631 C632 1.358 . S
C631 C633 1.356 . S
C631 H663 0.930 . S
C632 N629 1.279 . S
C632 C631 1.358 . S
C632 H635 0.930 . S
C633 C630 1.348 . S
C633 C631 1.356 . S
H634 C628 0.930 . S
H635 C632 0.930 . S
O636 Li576 1.956 . S
O636 Li577 1.970 1_556 S
O636 Li578 1.961 . S
O636 C580 1.325 . S
O637 Li576 1.970 1_554 S
O637 Li577 1.956 . S
O637 Li579 1.961 . S
O637 C586 1.325 . S
O638 Li576 1.961 . S
O638 Li578 1.956 . S
O638 Li579 1.970 1_556 S
O638 C608 1.325 . S
O639 Li577 1.961 . S
O639 Li578 1.970 1_554 S
O639 Li579 1.956 . S
O639 C614 1.325 . S
H640 C582 0.929 . S
H641 C583 0.930 . S
H642 C584 0.930 . S
H643 C585 0.930 . S
H644 C587 0.930 . S
H645 C589 0.929 . S
H646 C590 0.930 . S
H647 C591 0.930 . S
H648 C594 0.930 . S
H649 C597 0.929 . S
H650 C602 0.929 . S
H651 C603 0.930 . S
H652 C610 0.929 . S
H653 C611 0.930 . S
H654 C612 0.930 . S
H655 C613 0.930 . S
H656 C615 0.929 . S
H657 C616 0.930 . S
H658 C617 0.930 . S
H659 C618 0.930 . S
H660 C622 0.929 . S
H661 C624 0.930 . S
H662 C630 0.929 . S
H663 C631 0.930 . S
Li664 N681 1.990 . S
Li664 O724 1.956 . S
Li664 O725 1.970 . S
Li664 O726 1.961 . S
Li665 N689 1.990 . S
Li665 O724 1.970 . S
Li665 O725 1.956 . S
Li665 O727 1.961 . S
Li666 N711 1.990 . S
Li666 O724 1.961 . S
Li666 O726 1.956 . S
Li666 O727 1.970 . S
Li667 N717 1.990 . S
Li667 O725 1.961 . S
Li667 O726 1.970 . S
Li667 O727 1.956 . S
C668 C670 1.348 . S
C668 C671 1.356 . S
C668 O724 1.325 . S
N669 C672 1.314 . S
N669 C673 1.279 . S
C670 C668 1.348 . S
C670 C672 1.353 . S
C670 H728 0.929 . S
C671 C668 1.356 . S
C671 C673 1.358 . S
C671 H729 0.930 . S
C672 N669 1.314 . S
C672 C670 1.353 . S
C672 H730 0.930 . S
C673 N669 1.279 . S
C673 C671 1.358 . S
C673 H731 0.930 . S
C674 C677 1.348 . S
C674 C678 1.356 . S
C674 O725 1.325 . S
C675 N676 1.279 . S
C675 C678 1.358 . S
C675 H732 0.930 . S
N676 C675 1.279 . S
N676 C679 1.314 . S
C677 C674 1.348 . S
C677 C679 1.353 . S
C677 H733 0.929 . S
C678 C674 1.356 . S
C678 C675 1.358 . S
C678 H734 0.930 . S
C679 N676 1.314 . S
C679 C677 1.353 . S
C679 H735 0.930 . S
C680 N681 1.314 . S
C680 C685 1.353 . S
C680 H686 0.930 . S
N681 Li664 1.990 . S
N681 C680 1.314 . S
N681 C683 1.279 . S
C682 C683 1.358 . S
C682 C684 1.356 . S
C682 H736 0.930 . S
C683 N681 1.279 . S
C683 C682 1.358 . S
C683 H687 0.930 . S
C684 C682 1.356 . S
C684 C685 1.348 . S
C685 C680 1.353 . S
C685 C684 1.348 . S
C685 H737 0.929 . S
H686 C680 0.930 . S
H687 C683 0.930 . S
C688 N689 1.314 . S
C688 C690 1.353 . S
C688 H694 0.930 . S
N689 Li665 1.990 . S
N689 C688 1.314 . S
N689 C692 1.279 . S
C690 C688 1.353 . S
C690 C693 1.348 . S
C690 H738 0.929 . S
C691 C692 1.358 . S
C691 C693 1.356 . S
C691 H739 0.930 . S
C692 N689 1.279 . S
C692 C691 1.358 . S
C692 H695 0.930 . S
C693 C690 1.348 . S
C693 C691 1.356 . S
H694 C688 0.930 . S
H695 C692 0.930 . S
C696 C698 1.348 . S
C696 C699 1.356 . S
C696 O726 1.325 . S
N697 C700 1.314 . S
N697 C701 1.279 . S
C698 C696 1.348 . S
C698 C700 1.353 . S
C698 H740 0.929 . S
C699 C696 1.356 . S
C699 C701 1.358 . S
C699 H741 0.930 . S
C700 N697 1.314 . S
C700 C698 1.353 . S
C700 H742 0.930 . S
C701 N697 1.279 . S
C701 C699 1.358 . S
C701 H743 0.930 . S
C702 C703 1.348 . S
C702 C704 1.356 . S
C702 O727 1.325 . S
C703 C702 1.348 . S
C703 C705 1.353 . S
C703 H744 0.929 . S
C704 C702 1.356 . S
C704 C706 1.358 . S
C704 H745 0.930 . S
C705 C703 1.353 . S
C705 N707 1.314 . S
C705 H746 0.930 . S
C706 C704 1.358 . S
C706 N707 1.279 . S
C706 H747 0.930 . S
N707 C705 1.314 . S
N707 C706 1.279 . S
C708 C710 1.353 . S
C708 N711 1.314 . S
C708 H714 0.930 . S
C709 N711 1.279 . S
C709 C712 1.358 . S
C709 H715 0.930 . S
C710 C708 1.353 . S
C710 C713 1.348 . S
C710 H748 0.929 . S
N711 Li666 1.990 . S
N711 C708 1.314 . S
N711 C709 1.279 . S
C712 C709 1.358 . S
C712 C713 1.356 . S
C712 H749 0.930 . S
C713 C710 1.348 . S
C713 C712 1.356 . S
H714 C708 0.930 . S
H715 C709 0.930 . S
C716 N717 1.314 . S
C716 C718 1.353 . S
C716 H722 0.930 . S
N717 Li667 1.990 . S
N717 C716 1.314 . S
N717 C720 1.279 . S
C718 C716 1.353 . S
C718 C721 1.348 . S
C718 H750 0.929 . S
C719 C720 1.358 . S
C719 C721 1.356 . S
C719 H751 0.930 . S
C720 N717 1.279 . S
C720 C719 1.358 . S
C720 H723 0.930 . S
C721 C718 1.348 . S
C721 C719 1.356 . S
H722 C716 0.930 . S
H723 C720 0.930 . S
O724 Li664 1.956 . S
O724 Li665 1.970 . S
O724 Li666 1.961 . S
O724 C668 1.325 . S
O725 Li664 1.970 . S
O725 Li665 1.956 . S
O725 Li667 1.961 . S
O725 C674 1.325 . S
O726 Li664 1.961 . S
O726 Li666 1.956 . S
O726 Li667 1.970 . S
O726 C696 1.325 . S
O727 Li665 1.961 . S
O727 Li666 1.970 . S
O727 Li667 1.956 . S
O727 C702 1.325 . S
H728 C670 0.929 . S
H729 C671 0.930 . S
H730 C672 0.930 . S
H731 C673 0.930 . S
H732 C675 0.930 . S
H733 C677 0.929 . S
H734 C678 0.930 . S
H735 C679 0.930 . S
H736 C682 0.930 . S
H737 C685 0.929 . S
H738 C690 0.929 . S
H739 C691 0.930 . S
H740 C698 0.929 . S
H741 C699 0.930 . S
H742 C700 0.930 . S
H743 C701 0.930 . S
H744 C703 0.929 . S
H745 C704 0.930 . S
H746 C705 0.930 . S
H747 C706 0.930 . S
H748 C710 0.929 . S
H749 C712 0.930 . S
H750 C718 0.929 . S
H751 C719 0.930 . S
Li752 N769 1.990 . S
Li752 O812 1.956 . S
Li752 O813 1.970 1_556 S
Li752 O814 1.961 . S
Li753 N777 1.990 . S
Li753 O812 1.970 1_554 S
Li753 O813 1.956 . S
Li753 O815 1.961 . S
Li754 N799 1.990 . S
Li754 O812 1.961 . S
Li754 O814 1.956 . S
Li754 O815 1.970 1_556 S
Li755 N805 1.990 . S
Li755 O813 1.961 . S
Li755 O814 1.970 1_554 S
Li755 O815 1.956 . S
C756 C758 1.348 1_556 S
C756 C759 1.356 . S
C756 O812 1.325 . S
N757 C760 1.314 1_556 S
N757 C761 1.279 . S
C758 C756 1.348 1_554 S
C758 C760 1.353 . S
C758 H816 0.929 . S
C759 C756 1.356 . S
C759 C761 1.358 . S
C759 H817 0.930 . S
C760 N757 1.314 1_554 S
C760 C758 1.353 . S
C760 H818 0.930 . S
C761 N757 1.279 . S
C761 C759 1.358 . S
C761 H819 0.930 . S
C762 C765 1.348 . S
C762 C766 1.356 . S
C762 O813 1.325 . S
C763 N764 1.279 . S
C763 C766 1.358 . S
C763 H820 0.930 . S
N764 C763 1.279 . S
N764 C767 1.314 . S
C765 C762 1.348 . S
C765 C767 1.353 . S
C765 H821 0.929 . S
C766 C762 1.356 . S
C766 C763 1.358 . S
C766 H822 0.930 . S
C767 N764 1.314 . S
C767 C765 1.353 . S
C767 H823 0.930 . S
C768 N769 1.314 . S
C768 C773 1.353 . S
C768 H774 0.930 . S
N769 Li752 1.990 . S
N769 C768 1.314 . S
N769 C771 1.279 . S
C770 C771 1.358 . S
C770 C772 1.356 . S
C770 H824 0.930 . S
C771 N769 1.279 . S
C771 C770 1.358 . S
C771 H775 0.930 . S
C772 C770 1.356 . S
C772 C773 1.348 . S
C773 C768 1.353 . S
C773 C772 1.348 . S
C773 H825 0.929 . S
H774 C768 0.930 . S
H775 C771 0.930 . S
C776 N777 1.314 . S
C776 C778 1.353 . S
C776 H782 0.930 . S
N777 Li753 1.990 . S
N777 C776 1.314 . S
N777 C780 1.279 . S
C778 C776 1.353 . S
C778 C781 1.348 . S
C778 H826 0.929 . S
C779 C780 1.358 . S
C779 C781 1.356 . S
C779 H827 0.930 . S
C780 N777 1.279 . S
C780 C779 1.358 . S
C780 H783 0.930 . S
C781 C778 1.348 . S
C781 C779 1.356 . S
H782 C776 0.930 . S
H783 C780 0.930 . S
C784 C786 1.348 . S
C784 C787 1.356 . S
C784 O814 1.325 . S
N785 C788 1.314 . S
N785 C789 1.279 . S
C786 C784 1.348 . S
C786 C788 1.353 . S
C786 H828 0.929 . S
C787 C784 1.356 . S
C787 C789 1.358 . S
C787 H829 0.930 . S
C788 N785 1.314 . S
C788 C786 1.353 . S
C788 H830 0.930 . S
C789 N785 1.279 . S
C789 C787 1.358 . S
C789 H831 0.930 . S
C790 C791 1.348 1_554 S
C790 C792 1.356 . S
C790 O815 1.325 . S
C791 C790 1.348 1_556 S
C791 C793 1.353 . S
C791 H832 0.929 . S
C792 C790 1.356 . S
C792 C794 1.358 . S
C792 H833 0.930 . S
C793 C791 1.353 . S
C793 N795 1.314 1_556 S
C793 H834 0.930 . S
C794 C792 1.358 . S
C794 N795 1.279 . S
C794 H835 0.930 . S
N795 C793 1.314 1_554 S
N795 C794 1.279 . S
C796 C798 1.353 . S
C796 N799 1.314 . S
C796 H802 0.930 . S
C797 N799 1.279 . S
C797 C800 1.358 . S
C797 H803 0.930 . S
C798 C796 1.353 . S
C798 C801 1.348 . S
C798 H836 0.929 . S
N799 Li754 1.990 . S
N799 C796 1.314 . S
N799 C797 1.279 . S
C800 C797 1.358 . S
C800 C801 1.356 . S
C800 H837 0.930 . S
C801 C798 1.348 . S
C801 C800 1.356 . S
H802 C796 0.930 . S
H803 C797 0.930 . S
C804 N805 1.314 . S
C804 C806 1.353 . S
C804 H810 0.930 . S
N805 Li755 1.990 . S
N805 C804 1.314 . S
N805 C808 1.279 . S
C806 C804 1.353 . S
C806 C809 1.348 . S
C806 H838 0.929 . S
C807 C808 1.358 . S
C807 C809 1.356 . S
C807 H839 0.930 . S
C808 N805 1.279 . S
C808 C807 1.358 . S
C808 H811 0.930 . S
C809 C806 1.348 . S
C809 C807 1.356 . S
H810 C804 0.930 . S
H811 C808 0.930 . S
O812 Li752 1.956 . S
O812 Li753 1.970 1_556 S
O812 Li754 1.961 . S
O812 C756 1.325 . S
O813 Li752 1.970 1_554 S
O813 Li753 1.956 . S
O813 Li755 1.961 . S
O813 C762 1.325 . S
O814 Li752 1.961 . S
O814 Li754 1.956 . S
O814 Li755 1.970 1_556 S
O814 C784 1.325 . S
O815 Li753 1.961 . S
O815 Li754 1.970 1_554 S
O815 Li755 1.956 . S
O815 C790 1.325 . S
H816 C758 0.929 . S
H817 C759 0.930 . S
H818 C760 0.930 . S
H819 C761 0.930 . S
H820 C763 0.930 . S
H821 C765 0.929 . S
H822 C766 0.930 . S
H823 C767 0.930 . S
H824 C770 0.930 . S
H825 C773 0.929 . S
H826 C778 0.929 . S
H827 C779 0.930 . S
H828 C786 0.929 . S
H829 C787 0.930 . S
H830 C788 0.930 . S
H831 C789 0.930 . S
H832 C791 0.929 . S
H833 C792 0.930 . S
H834 C793 0.930 . S
H835 C794 0.930 . S
H836 C798 0.929 . S
H837 C800 0.930 . S
H838 C806 0.929 . S
H839 C807 0.930 . S
Li840 N857 1.990 . S
Li840 O900 1.956 . S
Li840 O901 1.970 1_545 S
Li840 O902 1.961 . S
Li841 N865 1.990 . S
Li841 O900 1.970 1_565 S
Li841 O901 1.956 . S
Li841 O903 1.961 . S
Li842 N887 1.990 . S
Li842 O900 1.961 . S
Li842 O902 1.956 . S
Li842 O903 1.970 1_545 S
Li843 N893 1.990 . S
Li843 O901 1.961 . S
Li843 O902 1.970 1_565 S
Li843 O903 1.956 . S
C844 C846 1.348 . S
C844 C847 1.356 . S
C844 O900 1.325 . S
N845 C848 1.314 . S
N845 C849 1.279 . S
C846 C844 1.348 . S
C846 C848 1.353 . S
C846 H904 0.929 . S
C847 C844 1.356 . S
C847 C849 1.358 . S
C847 H905 0.930 . S
C848 N845 1.314 . S
C848 C846 1.353 . S
C848 H906 0.930 . S
C849 N845 1.279 . S
C849 C847 1.358 . S
C849 H907 0.930 . S
C850 C853 1.348 1_565 S
C850 C854 1.356 . S
C850 O901 1.325 . S
C851 N852 1.279 . S
C851 C854 1.358 . S
C851 H908 0.930 . S
N852 C851 1.279 . S
N852 C855 1.314 1_565 S
C853 C850 1.348 1_545 S
C853 C855 1.353 . S
C853 H909 0.929 . S
C854 C850 1.356 . S
C854 C851 1.358 . S
C854 H910 0.930 . S
C855 N852 1.314 1_545 S
C855 C853 1.353 . S
C855 H911 0.930 . S
C856 N857 1.314 . S
C856 C861 1.353 . S
C856 H862 0.930 . S
N857 Li840 1.990 . S
N857 C856 1.314 . S
N857 C859 1.279 . S
C858 C859 1.358 . S
C858 C860 1.356 . S
C858 H912 0.930 . S
C859 N857 1.279 . S
C859 C858 1.358 . S
C859 H863 0.930 . S
C860 C858 1.356 . S
C860 C861 1.348 . S
C861 C856 1.353 . S
C861 C860 1.348 . S
C861 H913 0.929 . S
H862 C856 0.930 . S
H863 C859 0.930 . S
C864 N865 1.314 . S
C864 C866 1.353 . S
C864 H870 0.930 . S
N865 Li841 1.990 . S
N865 C864 1.314 . S
N865 C868 1.279 . S
C866 C864 1.353 . S
C866 C869 1.348 . S
C866 H914 0.929 . S
C867 C868 1.358 . S
C867 C869 1.356 . S
C867 H915 0.930 . S
C868 N865 1.279 . S
C868 C867 1.358 . S
C868 H871 0.930 . S
C869 C866 1.348 . S
C869 C867 1.356 . S
H870 C864 0.930 . S
H871 C868 0.930 . S
C872 C874 1.348 1_545 S
C872 C875 1.356 . S
C872 O902 1.325 . S
N873 C876 1.314 1_545 S
N873 C877 1.279 . S
C874 C872 1.348 1_565 S
C874 C876 1.353 . S
C874 H916 0.929 . S
C875 C872 1.356 . S
C875 C877 1.358 . S
C875 H917 0.930 . S
C876 N873 1.314 1_565 S
C876 C874 1.353 . S
C876 H918 0.930 . S
C877 N873 1.279 . S
C877 C875 1.358 . S
C877 H919 0.930 . S
C878 C879 1.348 . S
C878 C880 1.356 . S
C878 O903 1.325 . S
C879 C878 1.348 . S
C879 C881 1.353 . S
C879 H920 0.929 . S
C880 C878 1.356 . S
C880 C882 1.358 . S
C880 H921 0.930 . S
C881 C879 1.353 . S
C881 N883 1.314 . S
C881 H922 0.930 . S
C882 C880 1.358 . S
C882 N883 1.279 . S
C882 H923 0.930 . S
N883 C881 1.314 . S
N883 C882 1.279 . S
C884 C886 1.353 . S
C884 N887 1.314 . S
C884 H890 0.930 . S
C885 N887 1.279 . S
C885 C888 1.358 . S
C885 H891 0.930 . S
C886 C884 1.353 . S
C886 C889 1.348 . S
C886 H924 0.929 . S
N887 Li842 1.990 . S
N887 C884 1.314 . S
N887 C885 1.279 . S
C888 C885 1.358 . S
C888 C889 1.356 . S
C888 H925 0.930 . S
C889 C886 1.348 . S
C889 C888 1.356 . S
H890 C884 0.930 . S
H891 C885 0.930 . S
C892 N893 1.314 . S
C892 C894 1.353 . S
C892 H898 0.930 . S
N893 Li843 1.990 . S
N893 C892 1.314 . S
N893 C896 1.279 . S
C894 C892 1.353 . S
C894 C897 1.348 . S
C894 H926 0.929 . S
C895 C896 1.358 . S
C895 C897 1.356 . S
C895 H927 0.930 . S
C896 N893 1.279 . S
C896 C895 1.358 . S
C896 H899 0.930 . S
C897 C894 1.348 . S
C897 C895 1.356 . S
H898 C892 0.930 . S
H899 C896 0.930 . S
O900 Li840 1.956 . S
O900 Li841 1.970 1_545 S
O900 Li842 1.961 . S
O900 C844 1.325 . S
O901 Li840 1.970 1_565 S
O901 Li841 1.956 . S
O901 Li843 1.961 . S
O901 C850 1.325 . S
O902 Li840 1.961 . S
O902 Li842 1.956 . S
O902 Li843 1.970 1_545 S
O902 C872 1.325 . S
O903 Li841 1.961 . S
O903 Li842 1.970 1_565 S
O903 Li843 1.956 . S
O903 C878 1.325 . S
H904 C846 0.929 . S
H905 C847 0.930 . S
H906 C848 0.930 . S
H907 C849 0.930 . S
H908 C851 0.930 . S
H909 C853 0.929 . S
H910 C854 0.930 . S
H911 C855 0.930 . S
H912 C858 0.930 . S
H913 C861 0.929 . S
H914 C866 0.929 . S
H915 C867 0.930 . S
H916 C874 0.929 . S
H917 C875 0.930 . S
H918 C876 0.930 . S
H919 C877 0.930 . S
H920 C879 0.929 . S
H921 C880 0.930 . S
H922 C881 0.930 . S
H923 C882 0.930 . S
H924 C886 0.929 . S
H925 C888 0.930 . S
H926 C894 0.929 . S
H927 C895 0.930 . S
Li928 N945 1.990 . S
Li928 O988 1.956 . S
Li928 O989 1.970 . S
Li928 O990 1.961 . S
Li929 N953 1.990 . S
Li929 O988 1.970 . S
Li929 O989 1.956 . S
Li929 O991 1.961 . S
Li930 N975 1.990 . S
Li930 O988 1.961 . S
Li930 O990 1.956 . S
Li930 O991 1.970 . S
Li931 N981 1.990 . S
Li931 O989 1.961 . S
Li931 O990 1.970 . S
Li931 O991 1.956 . S
C932 C934 1.348 . S
C932 C935 1.356 . S
C932 O988 1.325 . S
N933 C936 1.314 . S
N933 C937 1.279 . S
C934 C932 1.348 . S
C934 C936 1.353 . S
C934 H992 0.929 . S
C935 C932 1.356 . S
C935 C937 1.358 . S
C935 H993 0.930 . S
C936 N933 1.314 . S
C936 C934 1.353 . S
C936 H994 0.930 . S
C937 N933 1.279 . S
C937 C935 1.358 . S
C937 H995 0.930 . S
C938 C941 1.348 . S
C938 C942 1.356 . S
C938 O989 1.325 . S
C939 N940 1.279 . S
C939 C942 1.358 . S
C939 H996 0.930 . S
N940 C939 1.279 . S
N940 C943 1.314 . S
C941 C938 1.348 . S
C941 C943 1.353 . S
C941 H997 0.929 . S
C942 C938 1.356 . S
C942 C939 1.358 . S
C942 H998 0.930 . S
C943 N940 1.314 . S
C943 C941 1.353 . S
C943 H999 0.930 . S
C944 N945 1.314 . S
C944 C949 1.353 . S
C944 H950 0.930 . S
N945 Li928 1.990 . S
N945 C944 1.314 . S
N945 C947 1.279 . S
C946 C947 1.358 . S
C946 C948 1.356 . S
C946 H1000 0.930 . S
C947 N945 1.279 . S
C947 C946 1.358 . S
C947 H951 0.930 . S
C948 C946 1.356 . S
C948 C949 1.348 . S
C949 C944 1.353 . S
C949 C948 1.348 . S
C949 H1001 0.929 . S
H950 C944 0.930 . S
H951 C947 0.930 . S
C952 N953 1.314 . S
C952 C954 1.353 . S
C952 H958 0.930 . S
N953 Li929 1.990 . S
N953 C952 1.314 . S
N953 C956 1.279 . S
C954 C952 1.353 . S
C954 C957 1.348 . S
C954 H1002 0.929 . S
C955 C956 1.358 . S
C955 C957 1.356 . S
C955 H1003 0.930 . S
C956 N953 1.279 . S
C956 C955 1.358 . S
C956 H959 0.930 . S
C957 C954 1.348 . S
C957 C955 1.356 . S
H958 C952 0.930 . S
H959 C956 0.930 . S
C960 C962 1.348 . S
C960 C963 1.356 . S
C960 O990 1.325 . S
N961 C964 1.314 . S
N961 C965 1.279 . S
C962 C960 1.348 . S
C962 C964 1.353 . S
C962 H1004 0.929 . S
C963 C960 1.356 . S
C963 C965 1.358 . S
C963 H1005 0.930 . S
C964 N961 1.314 . S
C964 C962 1.353 . S
C964 H1006 0.930 . S
C965 N961 1.279 . S
C965 C963 1.358 . S
C965 H1007 0.930 . S
C966 C967 1.348 . S
C966 C968 1.356 . S
C966 O991 1.325 . S
C967 C966 1.348 . S
C967 C969 1.353 . S
C967 H1008 0.929 . S
C968 C966 1.356 . S
C968 C970 1.358 . S
C968 H1009 0.930 . S
C969 C967 1.353 . S
C969 N971 1.314 . S
C969 H1010 0.930 . S
C970 C968 1.358 . S
C970 N971 1.279 . S
C970 H1011 0.930 . S
N971 C969 1.314 . S
N971 C970 1.279 . S
C972 C974 1.353 . S
C972 N975 1.314 . S
C972 H978 0.930 . S
C973 N975 1.279 . S
C973 C976 1.358 . S
C973 H979 0.930 . S
C974 C972 1.353 . S
C974 C977 1.348 . S
C974 H1012 0.929 . S
N975 Li930 1.990 . S
N975 C972 1.314 . S
N975 C973 1.279 . S
C976 C973 1.358 . S
C976 C977 1.356 . S
C976 H1013 0.930 . S
C977 C974 1.348 . S
C977 C976 1.356 . S
H978 C972 0.930 . S
H979 C973 0.930 . S
C980 N981 1.314 . S
C980 C982 1.353 . S
C980 H986 0.930 . S
N981 Li931 1.990 . S
N981 C980 1.314 . S
N981 C984 1.279 . S
C982 C980 1.353 . S
C982 C985 1.348 . S
C982 H1014 0.929 . S
C983 C984 1.358 . S
C983 C985 1.356 . S
C983 H1015 0.930 . S
C984 N981 1.279 . S
C984 C983 1.358 . S
C984 H987 0.930 . S
C985 C982 1.348 . S
C985 C983 1.356 . S
H986 C980 0.930 . S
H987 C984 0.930 . S
O988 Li928 1.956 . S
O988 Li929 1.970 . S
O988 Li930 1.961 . S
O988 C932 1.325 . S
O989 Li928 1.970 . S
O989 Li929 1.956 . S
O989 Li931 1.961 . S
O989 C938 1.325 . S
O990 Li928 1.961 . S
O990 Li930 1.956 . S
O990 Li931 1.970 . S
O990 C960 1.325 . S
O991 Li929 1.961 . S
O991 Li930 1.970 . S
O991 Li931 1.956 . S
O991 C966 1.325 . S
H992 C934 0.929 . S
H993 C935 0.930 . S
H994 C936 0.930 . S
H995 C937 0.930 . S
H996 C939 0.930 . S
H997 C941 0.929 . S
H998 C942 0.930 . S
H999 C943 0.930 . S
H1000 C946 0.930 . S
H1001 C949 0.929 . S
H1002 C954 0.929 . S
H1003 C955 0.930 . S
H1004 C962 0.929 . S
H1005 C963 0.930 . S
H1006 C964 0.930 . S
H1007 C965 0.930 . S
H1008 C967 0.929 . S
H1009 C968 0.930 . S
H1010 C969 0.930 . S
H1011 C970 0.930 . S
H1012 C974 0.929 . S
H1013 C976 0.930 . S
H1014 C982 0.929 . S
H1015 C983 0.930 . S
Li1016 N1033 1.990 . S
Li1016 O1076 1.956 . S
Li1016 O1077 1.970 . S
Li1016 O1078 1.961 . S
Li1017 N1041 1.990 . S
Li1017 O1076 1.970 . S
Li1017 O1077 1.956 . S
Li1017 O1079 1.961 . S
Li1018 N1063 1.990 . S
Li1018 O1076 1.961 . S
Li1018 O1078 1.956 . S
Li1018 O1079 1.970 . S
Li1019 N1069 1.990 . S
Li1019 O1077 1.961 . S
Li1019 O1078 1.970 . S
Li1019 O1079 1.956 . S
C1020 C1022 1.348 . S
C1020 C1023 1.356 . S
C1020 O1076 1.325 . S
N1021 C1024 1.314 . S
N1021 C1025 1.279 . S
C1022 C1020 1.348 . S
C1022 C1024 1.353 . S
C1022 H1080 0.929 . S
C1023 C1020 1.356 . S
C1023 C1025 1.358 . S
C1023 H1081 0.930 . S
C1024 N1021 1.314 . S
C1024 C1022 1.353 . S
C1024 H1082 0.930 . S
C1025 N1021 1.279 . S
C1025 C1023 1.358 . S
C1025 H1083 0.930 . S
C1026 C1029 1.348 . S
C1026 C1030 1.356 . S
C1026 O1077 1.325 . S
C1027 N1028 1.279 . S
C1027 C1030 1.358 . S
C1027 H1084 0.930 . S
N1028 C1027 1.279 . S
N1028 C1031 1.314 . S
C1029 C1026 1.348 . S
C1029 C1031 1.353 . S
C1029 H1085 0.929 . S
C1030 C1026 1.356 . S
C1030 C1027 1.358 . S
C1030 H1086 0.930 . S
C1031 N1028 1.314 . S
C1031 C1029 1.353 . S
C1031 H1087 0.930 . S
C1032 N1033 1.314 . S
C1032 C1037 1.353 . S
C1032 H1038 0.930 . S
N1033 Li1016 1.990 . S
N1033 C1032 1.314 . S
N1033 C1035 1.279 . S
C1034 C1035 1.358 . S
C1034 C1036 1.356 . S
C1034 H1088 0.930 . S
C1035 N1033 1.279 . S
C1035 C1034 1.358 . S
C1035 H1039 0.930 . S
C1036 C1034 1.356 . S
C1036 C1037 1.348 . S
C1037 C1032 1.353 . S
C1037 C1036 1.348 . S
C1037 H1089 0.929 . S
H1038 C1032 0.930 . S
H1039 C1035 0.930 . S
C1040 N1041 1.314 . S
C1040 C1042 1.353 . S
C1040 H1046 0.930 . S
N1041 Li1017 1.990 . S
N1041 C1040 1.314 . S
N1041 C1044 1.279 . S
C1042 C1040 1.353 . S
C1042 C1045 1.348 . S
C1042 H1090 0.929 . S
C1043 C1044 1.358 . S
C1043 C1045 1.356 . S
C1043 H1091 0.930 . S
C1044 N1041 1.279 . S
C1044 C1043 1.358 . S
C1044 H1047 0.930 . S
C1045 C1042 1.348 . S
C1045 C1043 1.356 . S
H1046 C1040 0.930 . S
H1047 C1044 0.930 . S
C1048 C1050 1.348 . S
C1048 C1051 1.356 . S
C1048 O1078 1.325 . S
N1049 C1052 1.314 . S
N1049 C1053 1.279 . S
C1050 C1048 1.348 . S
C1050 C1052 1.353 . S
C1050 H1092 0.929 . S
C1051 C1048 1.356 . S
C1051 C1053 1.358 . S
C1051 H1093 0.930 . S
C1052 N1049 1.314 . S
C1052 C1050 1.353 . S
C1052 H1094 0.930 . S
C1053 N1049 1.279 . S
C1053 C1051 1.358 . S
C1053 H1095 0.930 . S
C1054 C1055 1.348 . S
C1054 C1056 1.356 . S
C1054 O1079 1.325 . S
C1055 C1054 1.348 . S
C1055 C1057 1.353 . S
C1055 H1096 0.929 . S
C1056 C1054 1.356 . S
C1056 C1058 1.358 . S
C1056 H1097 0.930 . S
C1057 C1055 1.353 . S
C1057 N1059 1.314 . S
C1057 H1098 0.930 . S
C1058 C1056 1.358 . S
C1058 N1059 1.279 . S
C1058 H1099 0.930 . S
N1059 C1057 1.314 . S
N1059 C1058 1.279 . S
C1060 C1062 1.353 . S
C1060 N1063 1.314 . S
C1060 H1066 0.930 . S
C1061 N1063 1.279 . S
C1061 C1064 1.358 . S
C1061 H1067 0.930 . S
C1062 C1060 1.353 . S
C1062 C1065 1.348 . S
C1062 H1100 0.929 . S
N1063 Li1018 1.990 . S
N1063 C1060 1.314 . S
N1063 C1061 1.279 . S
C1064 C1061 1.358 . S
C1064 C1065 1.356 . S
C1064 H1101 0.930 . S
C1065 C1062 1.348 . S
C1065 C1064 1.356 . S
H1066 C1060 0.930 . S
H1067 C1061 0.930 . S
C1068 N1069 1.314 . S
C1068 C1070 1.353 . S
C1068 H1074 0.930 . S
N1069 Li1019 1.990 . S
N1069 C1068 1.314 . S
N1069 C1072 1.279 . S
C1070 C1068 1.353 . S
C1070 C1073 1.348 . S
C1070 H1102 0.929 . S
C1071 C1072 1.358 . S
C1071 C1073 1.356 . S
C1071 H1103 0.930 . S
C1072 N1069 1.279 . S
C1072 C1071 1.358 . S
C1072 H1075 0.930 . S
C1073 C1070 1.348 . S
C1073 C1071 1.356 . S
H1074 C1068 0.930 . S
H1075 C1072 0.930 . S
O1076 Li1016 1.956 . S
O1076 Li1017 1.970 . S
O1076 Li1018 1.961 . S
O1076 C1020 1.325 . S
O1077 Li1016 1.970 . S
O1077 Li1017 1.956 . S
O1077 Li1019 1.961 . S
O1077 C1026 1.325 . S
O1078 Li1016 1.961 . S
O1078 Li1018 1.956 . S
O1078 Li1019 1.970 . S
O1078 C1048 1.325 . S
O1079 Li1017 1.961 . S
O1079 Li1018 1.970 . S
O1079 Li1019 1.956 . S
O1079 C1054 1.325 . S
H1080 C1022 0.929 . S
H1081 C1023 0.930 . S
H1082 C1024 0.930 . S
H1083 C1025 0.930 . S
H1084 C1027 0.930 . S
H1085 C1029 0.929 . S
H1086 C1030 0.930 . S
H1087 C1031 0.930 . S
H1088 C1034 0.930 . S
H1089 C1037 0.929 . S
H1090 C1042 0.929 . S
H1091 C1043 0.930 . S
H1092 C1050 0.929 . S
H1093 C1051 0.930 . S
H1094 C1052 0.930 . S
H1095 C1053 0.930 . S
H1096 C1055 0.929 . S
H1097 C1056 0.930 . S
H1098 C1057 0.930 . S
H1099 C1058 0.930 . S
H1100 C1062 0.929 . S
H1101 C1064 0.930 . S
H1102 C1070 0.929 . S
H1103 C1071 0.930 . S
Li1104 N1121 1.990 . S
Li1104 O1164 1.956 . S
Li1104 O1165 1.970 . S
Li1104 O1166 1.961 . S
Li1105 N1129 1.990 . S
Li1105 O1164 1.970 . S
Li1105 O1165 1.956 . S
Li1105 O1167 1.961 . S
Li1106 N1151 1.990 . S
Li1106 O1164 1.961 . S
Li1106 O1166 1.956 . S
Li1106 O1167 1.970 . S
Li1107 N1157 1.990 . S
Li1107 O1165 1.961 . S
Li1107 O1166 1.970 . S
Li1107 O1167 1.956 . S
C1108 C1110 1.348 . S
C1108 C1111 1.356 . S
C1108 O1164 1.325 . S
N1109 C1112 1.314 . S
N1109 C1113 1.279 . S
C1110 C1108 1.348 . S
C1110 C1112 1.353 . S
C1110 H1168 0.929 . S
C1111 C1108 1.356 . S
C1111 C1113 1.358 . S
C1111 H1169 0.930 . S
C1112 N1109 1.314 . S
C1112 C1110 1.353 . S
C1112 H1170 0.930 . S
C1113 N1109 1.279 . S
C1113 C1111 1.358 . S
C1113 H1171 0.930 . S
C1114 C1117 1.348 . S
C1114 C1118 1.356 . S
C1114 O1165 1.325 . S
C1115 N1116 1.279 . S
C1115 C1118 1.358 . S
C1115 H1172 0.930 . S
N1116 C1115 1.279 . S
N1116 C1119 1.314 . S
C1117 C1114 1.348 . S
C1117 C1119 1.353 . S
C1117 H1173 0.929 . S
C1118 C1114 1.356 . S
C1118 C1115 1.358 . S
C1118 H1174 0.930 . S
C1119 N1116 1.314 . S
C1119 C1117 1.353 . S
C1119 H1175 0.930 . S
C1120 N1121 1.314 . S
C1120 C1125 1.353 . S
C1120 H1126 0.930 . S
N1121 Li1104 1.990 . S
N1121 C1120 1.314 . S
N1121 C1123 1.279 . S
C1122 C1123 1.358 . S
C1122 C1124 1.356 . S
C1122 H1176 0.930 . S
C1123 N1121 1.279 . S
C1123 C1122 1.358 . S
C1123 H1127 0.930 . S
C1124 C1122 1.356 . S
C1124 C1125 1.348 . S
C1125 C1120 1.353 . S
C1125 C1124 1.348 . S
C1125 H1177 0.929 . S
H1126 C1120 0.930 . S
H1127 C1123 0.930 . S
C1128 N1129 1.314 . S
C1128 C1130 1.353 . S
C1128 H1134 0.930 . S
N1129 Li1105 1.990 . S
N1129 C1128 1.314 . S
N1129 C1132 1.279 . S
C1130 C1128 1.353 . S
C1130 C1133 1.348 . S
C1130 H1178 0.929 . S
C1131 C1132 1.358 . S
C1131 C1133 1.356 . S
C1131 H1179 0.930 . S
C1132 N1129 1.279 . S
C1132 C1131 1.358 . S
C1132 H1135 0.930 . S
C1133 C1130 1.348 . S
C1133 C1131 1.356 . S
H1134 C1128 0.930 . S
H1135 C1132 0.930 . S
C1136 C1138 1.348 . S
C1136 C1139 1.356 . S
C1136 O1166 1.325 . S
N1137 C1140 1.314 . S
N1137 C1141 1.279 . S
C1138 C1136 1.348 . S
C1138 C1140 1.353 . S
C1138 H1180 0.929 . S
C1139 C1136 1.356 . S
C1139 C1141 1.358 . S
C1139 H1181 0.930 . S
C1140 N1137 1.314 . S
C1140 C1138 1.353 . S
C1140 H1182 0.930 . S
C1141 N1137 1.279 . S
C1141 C1139 1.358 . S
C1141 H1183 0.930 . S
C1142 C1143 1.348 . S
C1142 C1144 1.356 . S
C1142 O1167 1.325 . S
C1143 C1142 1.348 . S
C1143 C1145 1.353 . S
C1143 H1184 0.929 . S
C1144 C1142 1.356 . S
C1144 C1146 1.358 . S
C1144 H1185 0.930 . S
C1145 C1143 1.353 . S
C1145 N1147 1.314 . S
C1145 H1186 0.930 . S
C1146 C1144 1.358 . S
C1146 N1147 1.279 . S
C1146 H1187 0.930 . S
N1147 C1145 1.314 . S
N1147 C1146 1.279 . S
C1148 C1150 1.353 . S
C1148 N1151 1.314 . S
C1148 H1154 0.930 . S
C1149 N1151 1.279 . S
C1149 C1152 1.358 . S
C1149 H1155 0.930 . S
C1150 C1148 1.353 . S
C1150 C1153 1.348 . S
C1150 H1188 0.929 . S
N1151 Li1106 1.990 . S
N1151 C1148 1.314 . S
N1151 C1149 1.279 . S
C1152 C1149 1.358 . S
C1152 C1153 1.356 . S
C1152 H1189 0.930 . S
C1153 C1150 1.348 . S
C1153 C1152 1.356 . S
H1154 C1148 0.930 . S
H1155 C1149 0.930 . S
C1156 N1157 1.314 . S
C1156 C1158 1.353 . S
C1156 H1162 0.930 . S
N1157 Li1107 1.990 . S
N1157 C1156 1.314 . S
N1157 C1160 1.279 . S
C1158 C1156 1.353 . S
C1158 C1161 1.348 . S
C1158 H1190 0.929 . S
C1159 C1160 1.358 . S
C1159 C1161 1.356 . S
C1159 H1191 0.930 . S
C1160 N1157 1.279 . S
C1160 C1159 1.358 . S
C1160 H1163 0.930 . S
C1161 C1158 1.348 . S
C1161 C1159 1.356 . S
H1162 C1156 0.930 . S
H1163 C1160 0.930 . S
O1164 Li1104 1.956 . S
O1164 Li1105 1.970 . S
O1164 Li1106 1.961 . S
O1164 C1108 1.325 . S
O1165 Li1104 1.970 . S
O1165 Li1105 1.956 . S
O1165 Li1107 1.961 . S
O1165 C1114 1.325 . S
O1166 Li1104 1.961 . S
O1166 Li1106 1.956 . S
O1166 Li1107 1.970 . S
O1166 C1136 1.325 . S
O1167 Li1105 1.961 . S
O1167 Li1106 1.970 . S
O1167 Li1107 1.956 . S
O1167 C1142 1.325 . S
H1168 C1110 0.929 . S
H1169 C1111 0.930 . S
H1170 C1112 0.930 . S
H1171 C1113 0.930 . S
H1172 C1115 0.930 . S
H1173 C1117 0.929 . S
H1174 C1118 0.930 . S
H1175 C1119 0.930 . S
H1176 C1122 0.930 . S
H1177 C1125 0.929 . S
H1178 C1130 0.929 . S
H1179 C1131 0.930 . S
H1180 C1138 0.929 . S
H1181 C1139 0.930 . S
H1182 C1140 0.930 . S
H1183 C1141 0.930 . S
H1184 C1143 0.929 . S
H1185 C1144 0.930 . S
H1186 C1145 0.930 . S
H1187 C1146 0.930 . S
H1188 C1150 0.929 . S
H1189 C1152 0.930 . S
H1190 C1158 0.929 . S
H1191 C1159 0.930 . S
Li1192 N1209 1.990 . S
Li1192 O1252 1.956 . S
Li1192 O1253 1.970 1_565 S
Li1192 O1254 1.961 . S
Li1193 N1217 1.990 . S
Li1193 O1252 1.970 1_545 S
Li1193 O1253 1.956 . S
Li1193 O1255 1.961 . S
Li1194 N1239 1.990 . S
Li1194 O1252 1.961 . S
Li1194 O1254 1.956 . S
Li1194 O1255 1.970 1_565 S
Li1195 N1245 1.990 . S
Li1195 O1253 1.961 . S
Li1195 O1254 1.970 1_545 S
Li1195 O1255 1.956 . S
C1196 C1198 1.348 . S
C1196 C1199 1.356 . S
C1196 O1252 1.325 . S
N1197 C1200 1.314 . S
N1197 C1201 1.279 . S
C1198 C1196 1.348 . S
C1198 C1200 1.353 . S
C1198 H1256 0.929 . S
C1199 C1196 1.356 . S
C1199 C1201 1.358 . S
C1199 H1257 0.930 . S
C1200 N1197 1.314 . S
C1200 C1198 1.353 . S
C1200 H1258 0.930 . S
C1201 N1197 1.279 . S
C1201 C1199 1.358 . S
C1201 H1259 0.930 . S
C1202 C1205 1.348 1_545 S
C1202 C1206 1.356 . S
C1202 O1253 1.325 . S
C1203 N1204 1.279 . S
C1203 C1206 1.358 . S
C1203 H1260 0.930 . S
N1204 C1203 1.279 . S
N1204 C1207 1.314 1_545 S
C1205 C1202 1.348 1_565 S
C1205 C1207 1.353 . S
C1205 H1261 0.929 . S
C1206 C1202 1.356 . S
C1206 C1203 1.358 . S
C1206 H1262 0.930 . S
C1207 N1204 1.314 1_565 S
C1207 C1205 1.353 . S
C1207 H1263 0.930 . S
C1208 N1209 1.314 . S
C1208 C1213 1.353 . S
C1208 H1214 0.930 . S
N1209 Li1192 1.990 . S
N1209 C1208 1.314 . S
N1209 C1211 1.279 . S
C1210 C1211 1.358 . S
C1210 C1212 1.356 . S
C1210 H1264 0.930 . S
C1211 N1209 1.279 . S
C1211 C1210 1.358 . S
C1211 H1215 0.930 . S
C1212 C1210 1.356 . S
C1212 C1213 1.348 . S
C1213 C1208 1.353 . S
C1213 C1212 1.348 . S
C1213 H1265 0.929 . S
H1214 C1208 0.930 . S
H1215 C1211 0.930 . S
C1216 N1217 1.314 . S
C1216 C1218 1.353 . S
C1216 H1222 0.930 . S
N1217 Li1193 1.990 . S
N1217 C1216 1.314 . S
N1217 C1220 1.279 . S
C1218 C1216 1.353 . S
C1218 C1221 1.348 . S
C1218 H1266 0.929 . S
C1219 C1220 1.358 . S
C1219 C1221 1.356 . S
C1219 H1267 0.930 . S
C1220 N1217 1.279 . S
C1220 C1219 1.358 . S
C1220 H1223 0.930 . S
C1221 C1218 1.348 . S
C1221 C1219 1.356 . S
H1222 C1216 0.930 . S
H1223 C1220 0.930 . S
C1224 C1226 1.348 1_565 S
C1224 C1227 1.356 . S
C1224 O1254 1.325 . S
N1225 C1228 1.314 1_565 S
N1225 C1229 1.279 . S
C1226 C1224 1.348 1_545 S
C1226 C1228 1.353 . S
C1226 H1268 0.929 . S
C1227 C1224 1.356 . S
C1227 C1229 1.358 . S
C1227 H1269 0.930 . S
C1228 N1225 1.314 1_545 S
C1228 C1226 1.353 . S
C1228 H1270 0.930 . S
C1229 N1225 1.279 . S
C1229 C1227 1.358 . S
C1229 H1271 0.930 . S
C1230 C1231 1.348 . S
C1230 C1232 1.356 . S
C1230 O1255 1.325 . S
C1231 C1230 1.348 . S
C1231 C1233 1.353 . S
C1231 H1272 0.929 . S
C1232 C1230 1.356 . S
C1232 C1234 1.358 . S
C1232 H1273 0.930 . S
C1233 C1231 1.353 . S
C1233 N1235 1.314 . S
C1233 H1274 0.930 . S
C1234 C1232 1.358 . S
C1234 N1235 1.279 . S
C1234 H1275 0.930 . S
N1235 C1233 1.314 . S
N1235 C1234 1.279 . S
C1236 C1238 1.353 . S
C1236 N1239 1.314 . S
C1236 H1242 0.930 . S
C1237 N1239 1.279 . S
C1237 C1240 1.358 . S
C1237 H1243 0.930 . S
C1238 C1236 1.353 . S
C1238 C1241 1.348 . S
C1238 H1276 0.929 . S
N1239 Li1194 1.990 . S
N1239 C1236 1.314 . S
N1239 C1237 1.279 . S
C1240 C1237 1.358 . S
C1240 C1241 1.356 . S
C1240 H1277 0.930 . S
C1241 C1238 1.348 . S
C1241 C1240 1.356 . S
H1242 C1236 0.930 . S
H1243 C1237 0.930 . S
C1244 N1245 1.314 . S
C1244 C1246 1.353 . S
C1244 H1250 0.930 . S
N1245 Li1195 1.990 . S
N1245 C1244 1.314 . S
N1245 C1248 1.279 . S
C1246 C1244 1.353 . S
C1246 C1249 1.348 . S
C1246 H1278 0.929 . S
C1247 C1248 1.358 . S
C1247 C1249 1.356 . S
C1247 H1279 0.930 . S
C1248 N1245 1.279 . S
C1248 C1247 1.358 . S
C1248 H1251 0.930 . S
C1249 C1246 1.348 . S
C1249 C1247 1.356 . S
H1250 C1244 0.930 . S
H1251 C1248 0.930 . S
O1252 Li1192 1.956 . S
O1252 Li1193 1.970 1_565 S
O1252 Li1194 1.961 . S
O1252 C1196 1.325 . S
O1253 Li1192 1.970 1_545 S
O1253 Li1193 1.956 . S
O1253 Li1195 1.961 . S
O1253 C1202 1.325 . S
O1254 Li1192 1.961 . S
O1254 Li1194 1.956 . S
O1254 Li1195 1.970 1_565 S
O1254 C1224 1.325 . S
O1255 Li1193 1.961 . S
O1255 Li1194 1.970 1_545 S
O1255 Li1195 1.956 . S
O1255 C1230 1.325 . S
H1256 C1198 0.929 . S
H1257 C1199 0.930 . S
H1258 C1200 0.930 . S
H1259 C1201 0.930 . S
H1260 C1203 0.930 . S
H1261 C1205 0.929 . S
H1262 C1206 0.930 . S
H1263 C1207 0.930 . S
H1264 C1210 0.930 . S
H1265 C1213 0.929 . S
H1266 C1218 0.929 . S
H1267 C1219 0.930 . S
H1268 C1226 0.929 . S
H1269 C1227 0.930 . S
H1270 C1228 0.930 . S
H1271 C1229 0.930 . S
H1272 C1231 0.929 . S
H1273 C1232 0.930 . S
H1274 C1233 0.930 . S
H1275 C1234 0.930 . S
H1276 C1238 0.929 . S
H1277 C1240 0.930 . S
H1278 C1246 0.929 . S
H1279 C1247 0.930 . S
Li1280 N1297 1.990 . S
Li1280 O1340 1.956 . S
Li1280 O1341 1.970 1_455 S
Li1280 O1342 1.961 . S
Li1281 N1305 1.990 . S
Li1281 O1340 1.970 1_655 S
Li1281 O1341 1.956 . S
Li1281 O1343 1.961 . S
Li1282 N1327 1.990 . S
Li1282 O1340 1.961 . S
Li1282 O1342 1.956 . S
Li1282 O1343 1.970 1_455 S
Li1283 N1333 1.990 . S
Li1283 O1341 1.961 . S
Li1283 O1342 1.970 1_655 S
Li1283 O1343 1.956 . S
C1284 C1286 1.348 . S
C1284 C1287 1.356 . S
C1284 O1340 1.325 . S
N1285 C1288 1.314 . S
N1285 C1289 1.279 . S
C1286 C1284 1.348 . S
C1286 C1288 1.353 . S
C1286 H1344 0.929 . S
C1287 C1284 1.356 . S
C1287 C1289 1.358 . S
C1287 H1345 0.930 . S
C1288 N1285 1.314 . S
C1288 C1286 1.353 . S
C1288 H1346 0.930 . S
C1289 N1285 1.279 . S
C1289 C1287 1.358 . S
C1289 H1347 0.930 . S
C1290 C1293 1.348 1_655 S
C1290 C1294 1.356 . S
C1290 O1341 1.325 . S
C1291 N1292 1.279 . S
C1291 C1294 1.358 . S
C1291 H1348 0.930 . S
N1292 C1291 1.279 . S
N1292 C1295 1.314 1_655 S
C1293 C1290 1.348 1_455 S
C1293 C1295 1.353 . S
C1293 H1349 0.929 . S
C1294 C1290 1.356 . S
C1294 C1291 1.358 . S
C1294 H1350 0.930 . S
C1295 N1292 1.314 1_455 S
C1295 C1293 1.353 . S
C1295 H1351 0.930 . S
C1296 N1297 1.314 . S
C1296 C1301 1.353 . S
C1296 H1302 0.930 . S
N1297 Li1280 1.990 . S
N1297 C1296 1.314 . S
N1297 C1299 1.279 . S
C1298 C1299 1.358 . S
C1298 C1300 1.356 . S
C1298 H1352 0.930 . S
C1299 N1297 1.279 . S
C1299 C1298 1.358 . S
C1299 H1303 0.930 . S
C1300 C1298 1.356 . S
C1300 C1301 1.348 . S
C1301 C1296 1.353 . S
C1301 C1300 1.348 . S
C1301 H1353 0.929 . S
H1302 C1296 0.930 . S
H1303 C1299 0.930 . S
C1304 N1305 1.314 . S
C1304 C1306 1.353 . S
C1304 H1310 0.930 . S
N1305 Li1281 1.990 . S
N1305 C1304 1.314 . S
N1305 C1308 1.279 . S
C1306 C1304 1.353 . S
C1306 C1309 1.348 . S
C1306 H1354 0.929 . S
C1307 C1308 1.358 . S
C1307 C1309 1.356 . S
C1307 H1355 0.930 . S
C1308 N1305 1.279 . S
C1308 C1307 1.358 . S
C1308 H1311 0.930 . S
C1309 C1306 1.348 . S
C1309 C1307 1.356 . S
H1310 C1304 0.930 . S
H1311 C1308 0.930 . S
C1312 C1314 1.348 1_455 S
C1312 C1315 1.356 . S
C1312 O1342 1.325 . S
N1313 C1316 1.314 1_455 S
N1313 C1317 1.279 . S
C1314 C1312 1.348 1_655 S
C1314 C1316 1.353 . S
C1314 H1356 0.929 . S
C1315 C1312 1.356 . S
C1315 C1317 1.358 . S
C1315 H1357 0.930 . S
C1316 N1313 1.314 1_655 S
C1316 C1314 1.353 . S
C1316 H1358 0.930 . S
C1317 N1313 1.279 . S
C1317 C1315 1.358 . S
C1317 H1359 0.930 . S
C1318 C1319 1.348 . S
C1318 C1320 1.356 . S
C1318 O1343 1.325 . S
C1319 C1318 1.348 . S
C1319 C1321 1.353 . S
C1319 H1360 0.929 . S
C1320 C1318 1.356 . S
C1320 C1322 1.358 . S
C1320 H1361 0.930 . S
C1321 C1319 1.353 . S
C1321 N1323 1.314 . S
C1321 H1362 0.930 . S
C1322 C1320 1.358 . S
C1322 N1323 1.279 . S
C1322 H1363 0.930 . S
N1323 C1321 1.314 . S
N1323 C1322 1.279 . S
C1324 C1326 1.353 . S
C1324 N1327 1.314 . S
C1324 H1330 0.930 . S
C1325 N1327 1.279 . S
C1325 C1328 1.358 . S
C1325 H1331 0.930 . S
C1326 C1324 1.353 . S
C1326 C1329 1.348 . S
C1326 H1364 0.929 . S
N1327 Li1282 1.990 . S
N1327 C1324 1.314 . S
N1327 C1325 1.279 . S
C1328 C1325 1.358 . S
C1328 C1329 1.356 . S
C1328 H1365 0.930 . S
C1329 C1326 1.348 . S
C1329 C1328 1.356 . S
H1330 C1324 0.930 . S
H1331 C1325 0.930 . S
C1332 N1333 1.314 . S
C1332 C1334 1.353 . S
C1332 H1338 0.930 . S
N1333 Li1283 1.990 . S
N1333 C1332 1.314 . S
N1333 C1336 1.279 . S
C1334 C1332 1.353 . S
C1334 C1337 1.348 . S
C1334 H1366 0.929 . S
C1335 C1336 1.358 . S
C1335 C1337 1.356 . S
C1335 H1367 0.930 . S
C1336 N1333 1.279 . S
C1336 C1335 1.358 . S
C1336 H1339 0.930 . S
C1337 C1334 1.348 . S
C1337 C1335 1.356 . S
H1338 C1332 0.930 . S
H1339 C1336 0.930 . S
O1340 Li1280 1.956 . S
O1340 Li1281 1.970 1_455 S
O1340 Li1282 1.961 . S
O1340 C1284 1.325 . S
O1341 Li1280 1.970 1_655 S
O1341 Li1281 1.956 . S
O1341 Li1283 1.961 . S
O1341 C1290 1.325 . S
O1342 Li1280 1.961 . S
O1342 Li1282 1.956 . S
O1342 Li1283 1.970 1_455 S
O1342 C1312 1.325 . S
O1343 Li1281 1.961 . S
O1343 Li1282 1.970 1_655 S
O1343 Li1283 1.956 . S
O1343 C1318 1.325 . S
H1344 C1286 0.929 . S
H1345 C1287 0.930 . S
H1346 C1288 0.930 . S
H1347 C1289 0.930 . S
H1348 C1291 0.930 . S
H1349 C1293 0.929 . S
H1350 C1294 0.930 . S
H1351 C1295 0.930 . S
H1352 C1298 0.930 . S
H1353 C1301 0.929 . S
H1354 C1306 0.929 . S
H1355 C1307 0.930 . S
H1356 C1314 0.929 . S
H1357 C1315 0.930 . S
H1358 C1316 0.930 . S
H1359 C1317 0.930 . S
H1360 C1319 0.929 . S
H1361 C1320 0.930 . S
H1362 C1321 0.930 . S
H1363 C1322 0.930 . S
H1364 C1326 0.929 . S
H1365 C1328 0.930 . S
H1366 C1334 0.929 . S
H1367 C1335 0.930 . S
Li1368 N1385 1.990 . S
Li1368 O1428 1.956 . S
Li1368 O1429 1.970 . S
Li1368 O1430 1.961 . S
Li1369 N1393 1.990 . S
Li1369 O1428 1.970 . S
Li1369 O1429 1.956 . S
Li1369 O1431 1.961 . S
Li1370 N1415 1.990 . S
Li1370 O1428 1.961 . S
Li1370 O1430 1.956 . S
Li1370 O1431 1.970 . S
Li1371 N1421 1.990 . S
Li1371 O1429 1.961 . S
Li1371 O1430 1.970 . S
Li1371 O1431 1.956 . S
C1372 C1374 1.348 . S
C1372 C1375 1.356 . S
C1372 O1428 1.325 . S
N1373 C1376 1.314 . S
N1373 C1377 1.279 . S
C1374 C1372 1.348 . S
C1374 C1376 1.353 . S
C1374 H1432 0.929 . S
C1375 C1372 1.356 . S
C1375 C1377 1.358 . S
C1375 H1433 0.930 . S
C1376 N1373 1.314 . S
C1376 C1374 1.353 . S
C1376 H1434 0.930 . S
C1377 N1373 1.279 . S
C1377 C1375 1.358 . S
C1377 H1435 0.930 . S
C1378 C1381 1.348 . S
C1378 C1382 1.356 . S
C1378 O1429 1.325 . S
C1379 N1380 1.279 . S
C1379 C1382 1.358 . S
C1379 H1436 0.930 . S
N1380 C1379 1.279 . S
N1380 C1383 1.314 . S
C1381 C1378 1.348 . S
C1381 C1383 1.353 . S
C1381 H1437 0.929 . S
C1382 C1378 1.356 . S
C1382 C1379 1.358 . S
C1382 H1438 0.930 . S
C1383 N1380 1.314 . S
C1383 C1381 1.353 . S
C1383 H1439 0.930 . S
C1384 N1385 1.314 . S
C1384 C1389 1.353 . S
C1384 H1390 0.930 . S
N1385 Li1368 1.990 . S
N1385 C1384 1.314 . S
N1385 C1387 1.279 . S
C1386 C1387 1.358 . S
C1386 C1388 1.356 . S
C1386 H1440 0.930 . S
C1387 N1385 1.279 . S
C1387 C1386 1.358 . S
C1387 H1391 0.930 . S
C1388 C1386 1.356 . S
C1388 C1389 1.348 . S
C1389 C1384 1.353 . S
C1389 C1388 1.348 . S
C1389 H1441 0.929 . S
H1390 C1384 0.930 . S
H1391 C1387 0.930 . S
C1392 N1393 1.314 . S
C1392 C1394 1.353 . S
C1392 H1398 0.930 . S
N1393 Li1369 1.990 . S
N1393 C1392 1.314 . S
N1393 C1396 1.279 . S
C1394 C1392 1.353 . S
C1394 C1397 1.348 . S
C1394 H1442 0.929 . S
C1395 C1396 1.358 . S
C1395 C1397 1.356 . S
C1395 H1443 0.930 . S
C1396 N1393 1.279 . S
C1396 C1395 1.358 . S
C1396 H1399 0.930 . S
C1397 C1394 1.348 . S
C1397 C1395 1.356 . S
H1398 C1392 0.930 . S
H1399 C1396 0.930 . S
C1400 C1402 1.348 . S
C1400 C1403 1.356 . S
C1400 O1430 1.325 . S
N1401 C1404 1.314 . S
N1401 C1405 1.279 . S
C1402 C1400 1.348 . S
C1402 C1404 1.353 . S
C1402 H1444 0.929 . S
C1403 C1400 1.356 . S
C1403 C1405 1.358 . S
C1403 H1445 0.930 . S
C1404 N1401 1.314 . S
C1404 C1402 1.353 . S
C1404 H1446 0.930 . S
C1405 N1401 1.279 . S
C1405 C1403 1.358 . S
C1405 H1447 0.930 . S
C1406 C1407 1.348 . S
C1406 C1408 1.356 . S
C1406 O1431 1.325 . S
C1407 C1406 1.348 . S
C1407 C1409 1.353 . S
C1407 H1448 0.929 . S
C1408 C1406 1.356 . S
C1408 C1410 1.358 . S
C1408 H1449 0.930 . S
C1409 C1407 1.353 . S
C1409 N1411 1.314 . S
C1409 H1450 0.930 . S
C1410 C1408 1.358 . S
C1410 N1411 1.279 . S
C1410 H1451 0.930 . S
N1411 C1409 1.314 . S
N1411 C1410 1.279 . S
C1412 C1414 1.353 . S
C1412 N1415 1.314 . S
C1412 H1418 0.930 . S
C1413 N1415 1.279 . S
C1413 C1416 1.358 . S
C1413 H1419 0.930 . S
C1414 C1412 1.353 . S
C1414 C1417 1.348 . S
C1414 H1452 0.929 . S
N1415 Li1370 1.990 . S
N1415 C1412 1.314 . S
N1415 C1413 1.279 . S
C1416 C1413 1.358 . S
C1416 C1417 1.356 . S
C1416 H1453 0.930 . S
C1417 C1414 1.348 . S
C1417 C1416 1.356 . S
H1418 C1412 0.930 . S
H1419 C1413 0.930 . S
C1420 N1421 1.314 . S
C1420 C1422 1.353 . S
C1420 H1426 0.930 . S
N1421 Li1371 1.990 . S
N1421 C1420 1.314 . S
N1421 C1424 1.279 . S
C1422 C1420 1.353 . S
C1422 C1425 1.348 . S
C1422 H1454 0.929 . S
C1423 C1424 1.358 . S
C1423 C1425 1.356 . S
C1423 H1455 0.930 . S
C1424 N1421 1.279 . S
C1424 C1423 1.358 . S
C1424 H1427 0.930 . S
C1425 C1422 1.348 . S
C1425 C1423 1.356 . S
H1426 C1420 0.930 . S
H1427 C1424 0.930 . S
O1428 Li1368 1.956 . S
O1428 Li1369 1.970 . S
O1428 Li1370 1.961 . S
O1428 C1372 1.325 . S
O1429 Li1368 1.970 . S
O1429 Li1369 1.956 . S
O1429 Li1371 1.961 . S
O1429 C1378 1.325 . S
O1430 Li1368 1.961 . S
O1430 Li1370 1.956 . S
O1430 Li1371 1.970 . S
O1430 C1400 1.325 . S
O1431 Li1369 1.961 . S
O1431 Li1370 1.970 . S
O1431 Li1371 1.956 . S
O1431 C1406 1.325 . S
H1432 C1374 0.929 . S
H1433 C1375 0.930 . S
H1434 C1376 0.930 . S
H1435 C1377 0.930 . S
H1436 C1379 0.930 . S
H1437 C1381 0.929 . S
H1438 C1382 0.930 . S
H1439 C1383 0.930 . S
H1440 C1386 0.930 . S
H1441 C1389 0.929 . S
H1442 C1394 0.929 . S
H1443 C1395 0.930 . S
H1444 C1402 0.929 . S
H1445 C1403 0.930 . S
H1446 C1404 0.930 . S
H1447 C1405 0.930 . S
H1448 C1407 0.929 . S
H1449 C1408 0.930 . S
H1450 C1409 0.930 . S
H1451 C1410 0.930 . S
H1452 C1414 0.929 . S
H1453 C1416 0.930 . S
H1454 C1422 0.929 . S
H1455 C1423 0.930 . S
Li1456 N1473 1.990 . S
Li1456 O1516 1.956 . S
Li1456 O1517 1.970 1_455 S
Li1456 O1518 1.961 . S
Li1457 N1481 1.990 . S
Li1457 O1516 1.970 1_655 S
Li1457 O1517 1.956 . S
Li1457 O1519 1.961 . S
Li1458 N1503 1.990 . S
Li1458 O1516 1.961 . S
Li1458 O1518 1.956 . S
Li1458 O1519 1.970 1_455 S
Li1459 N1509 1.990 . S
Li1459 O1517 1.961 . S
Li1459 O1518 1.970 1_655 S
Li1459 O1519 1.956 . S
C1460 C1462 1.348 1_455 S
C1460 C1463 1.356 . S
C1460 O1516 1.325 . S
N1461 C1464 1.314 1_455 S
N1461 C1465 1.279 . S
C1462 C1460 1.348 1_655 S
C1462 C1464 1.353 . S
C1462 H1520 0.929 . S
C1463 C1460 1.356 . S
C1463 C1465 1.358 . S
C1463 H1521 0.930 . S
C1464 N1461 1.314 1_655 S
C1464 C1462 1.353 . S
C1464 H1522 0.930 . S
C1465 N1461 1.279 . S
C1465 C1463 1.358 . S
C1465 H1523 0.930 . S
C1466 C1469 1.348 . S
C1466 C1470 1.356 . S
C1466 O1517 1.325 . S
C1467 N1468 1.279 . S
C1467 C1470 1.358 . S
C1467 H1524 0.930 . S
N1468 C1467 1.279 . S
N1468 C1471 1.314 . S
C1469 C1466 1.348 . S
C1469 C1471 1.353 . S
C1469 H1525 0.929 . S
C1470 C1466 1.356 . S
C1470 C1467 1.358 . S
C1470 H1526 0.930 . S
C1471 N1468 1.314 . S
C1471 C1469 1.353 . S
C1471 H1527 0.930 . S
C1472 N1473 1.314 . S
C1472 C1477 1.353 . S
C1472 H1478 0.930 . S
N1473 Li1456 1.990 . S
N1473 C1472 1.314 . S
N1473 C1475 1.279 . S
C1474 C1475 1.358 . S
C1474 C1476 1.356 . S
C1474 H1528 0.930 . S
C1475 N1473 1.279 . S
C1475 C1474 1.358 . S
C1475 H1479 0.930 . S
C1476 C1474 1.356 . S
C1476 C1477 1.348 . S
C1477 C1472 1.353 . S
C1477 C1476 1.348 . S
C1477 H1529 0.929 . S
H1478 C1472 0.930 . S
H1479 C1475 0.930 . S
C1480 N1481 1.314 . S
C1480 C1482 1.353 . S
C1480 H1486 0.930 . S
N1481 Li1457 1.990 . S
N1481 C1480 1.314 . S
N1481 C1484 1.279 . S
C1482 C1480 1.353 . S
C1482 C1485 1.348 . S
C1482 H1530 0.929 . S
C1483 C1484 1.358 . S
C1483 C1485 1.356 . S
C1483 H1531 0.930 . S
C1484 N1481 1.279 . S
C1484 C1483 1.358 . S
C1484 H1487 0.930 . S
C1485 C1482 1.348 . S
C1485 C1483 1.356 . S
H1486 C1480 0.930 . S
H1487 C1484 0.930 . S
C1488 C1490 1.348 . S
C1488 C1491 1.356 . S
C1488 O1518 1.325 . S
N1489 C1492 1.314 . S
N1489 C1493 1.279 . S
C1490 C1488 1.348 . S
C1490 C1492 1.353 . S
C1490 H1532 0.929 . S
C1491 C1488 1.356 . S
C1491 C1493 1.358 . S
C1491 H1533 0.930 . S
C1492 N1489 1.314 . S
C1492 C1490 1.353 . S
C1492 H1534 0.930 . S
C1493 N1489 1.279 . S
C1493 C1491 1.358 . S
C1493 H1535 0.930 . S
C1494 C1495 1.348 1_655 S
C1494 C1496 1.356 . S
C1494 O1519 1.325 . S
C1495 C1494 1.348 1_455 S
C1495 C1497 1.353 . S
C1495 H1536 0.929 . S
C1496 C1494 1.356 . S
C1496 C1498 1.358 . S
C1496 H1537 0.930 . S
C1497 C1495 1.353 . S
C1497 N1499 1.314 1_455 S
C1497 H1538 0.930 . S
C1498 C1496 1.358 . S
C1498 N1499 1.279 . S
C1498 H1539 0.930 . S
N1499 C1497 1.314 1_655 S
N1499 C1498 1.279 . S
C1500 C1502 1.353 . S
C1500 N1503 1.314 . S
C1500 H1506 0.930 . S
C1501 N1503 1.279 . S
C1501 C1504 1.358 . S
C1501 H1507 0.930 . S
C1502 C1500 1.353 . S
C1502 C1505 1.348 . S
C1502 H1540 0.929 . S
N1503 Li1458 1.990 . S
N1503 C1500 1.314 . S
N1503 C1501 1.279 . S
C1504 C1501 1.358 . S
C1504 C1505 1.356 . S
C1504 H1541 0.930 . S
C1505 C1502 1.348 . S
C1505 C1504 1.356 . S
H1506 C1500 0.930 . S
H1507 C1501 0.930 . S
C1508 N1509 1.314 . S
C1508 C1510 1.353 . S
C1508 H1514 0.930 . S
N1509 Li1459 1.990 . S
N1509 C1508 1.314 . S
N1509 C1512 1.279 . S
C1510 C1508 1.353 . S
C1510 C1513 1.348 . S
C1510 H1542 0.929 . S
C1511 C1512 1.358 . S
C1511 C1513 1.356 . S
C1511 H1543 0.930 . S
C1512 N1509 1.279 . S
C1512 C1511 1.358 . S
C1512 H1515 0.930 . S
C1513 C1510 1.348 . S
C1513 C1511 1.356 . S
H1514 C1508 0.930 . S
H1515 C1512 0.930 . S
O1516 Li1456 1.956 . S
O1516 Li1457 1.970 1_455 S
O1516 Li1458 1.961 . S
O1516 C1460 1.325 . S
O1517 Li1456 1.970 1_655 S
O1517 Li1457 1.956 . S
O1517 Li1459 1.961 . S
O1517 C1466 1.325 . S
O1518 Li1456 1.961 . S
O1518 Li1458 1.956 . S
O1518 Li1459 1.970 1_455 S
O1518 C1488 1.325 . S
O1519 Li1457 1.961 . S
O1519 Li1458 1.970 1_655 S
O1519 Li1459 1.956 . S
O1519 C1494 1.325 . S
H1520 C1462 0.929 . S
H1521 C1463 0.930 . S
H1522 C1464 0.930 . S
H1523 C1465 0.930 . S
H1524 C1467 0.930 . S
H1525 C1469 0.929 . S
H1526 C1470 0.930 . S
H1527 C1471 0.930 . S
H1528 C1474 0.930 . S
H1529 C1477 0.929 . S
H1530 C1482 0.929 . S
H1531 C1483 0.930 . S
H1532 C1490 0.929 . S
H1533 C1491 0.930 . S
H1534 C1492 0.930 . S
H1535 C1493 0.930 . S
H1536 C1495 0.929 . S
H1537 C1496 0.930 . S
H1538 C1497 0.930 . S
H1539 C1498 0.930 . S
H1540 C1502 0.929 . S
H1541 C1504 0.930 . S
H1542 C1510 0.929 . S
H1543 C1511 0.930 . S
Li1544 N1561 1.990 . S
Li1544 O1604 1.956 . S
Li1544 O1605 1.970 . S
Li1544 O1606 1.961 . S
Li1545 N1569 1.990 . S
Li1545 O1604 1.970 . S
Li1545 O1605 1.956 . S
Li1545 O1607 1.961 . S
Li1546 N1591 1.990 . S
Li1546 O1604 1.961 . S
Li1546 O1606 1.956 . S
Li1546 O1607 1.970 . S
Li1547 N1597 1.990 . S
Li1547 O1605 1.961 . S
Li1547 O1606 1.970 . S
Li1547 O1607 1.956 . S
C1548 C1550 1.348 . S
C1548 C1551 1.356 . S
C1548 O1604 1.325 . S
N1549 C1552 1.314 . S
N1549 C1553 1.279 . S
C1550 C1548 1.348 . S
C1550 C1552 1.353 . S
C1550 H1608 0.929 . S
C1551 C1548 1.356 . S
C1551 C1553 1.358 . S
C1551 H1609 0.930 . S
C1552 N1549 1.314 . S
C1552 C1550 1.353 . S
C1552 H1610 0.930 . S
C1553 N1549 1.279 . S
C1553 C1551 1.358 . S
C1553 H1611 0.930 . S
C1554 C1557 1.348 . S
C1554 C1558 1.356 . S
C1554 O1605 1.325 . S
C1555 N1556 1.279 . S
C1555 C1558 1.358 . S
C1555 H1612 0.930 . S
N1556 C1555 1.279 . S
N1556 C1559 1.314 . S
C1557 C1554 1.348 . S
C1557 C1559 1.353 . S
C1557 H1613 0.929 . S
C1558 C1554 1.356 . S
C1558 C1555 1.358 . S
C1558 H1614 0.930 . S
C1559 N1556 1.314 . S
C1559 C1557 1.353 . S
C1559 H1615 0.930 . S
C1560 N1561 1.314 . S
C1560 C1565 1.353 . S
C1560 H1566 0.930 . S
N1561 Li1544 1.990 . S
N1561 C1560 1.314 . S
N1561 C1563 1.279 . S
C1562 C1563 1.358 . S
C1562 C1564 1.356 . S
C1562 H1616 0.930 . S
C1563 N1561 1.279 . S
C1563 C1562 1.358 . S
C1563 H1567 0.930 . S
C1564 C1562 1.356 . S
C1564 C1565 1.348 . S
C1565 C1560 1.353 . S
C1565 C1564 1.348 . S
C1565 H1617 0.929 . S
H1566 C1560 0.930 . S
H1567 C1563 0.930 . S
C1568 N1569 1.314 . S
C1568 C1570 1.353 . S
C1568 H1574 0.930 . S
N1569 Li1545 1.990 . S
N1569 C1568 1.314 . S
N1569 C1572 1.279 . S
C1570 C1568 1.353 . S
C1570 C1573 1.348 . S
C1570 H1618 0.929 . S
C1571 C1572 1.358 . S
C1571 C1573 1.356 . S
C1571 H1619 0.930 . S
C1572 N1569 1.279 . S
C1572 C1571 1.358 . S
C1572 H1575 0.930 . S
C1573 C1570 1.348 . S
C1573 C1571 1.356 . S
H1574 C1568 0.930 . S
H1575 C1572 0.930 . S
C1576 C1578 1.348 . S
C1576 C1579 1.356 . S
C1576 O1606 1.325 . S
N1577 C1580 1.314 . S
N1577 C1581 1.279 . S
C1578 C1576 1.348 . S
C1578 C1580 1.353 . S
C1578 H1620 0.929 . S
C1579 C1576 1.356 . S
C1579 C1581 1.358 . S
C1579 H1621 0.930 . S
C1580 N1577 1.314 . S
C1580 C1578 1.353 . S
C1580 H1622 0.930 . S
C1581 N1577 1.279 . S
C1581 C1579 1.358 . S
C1581 H1623 0.930 . S
C1582 C1583 1.348 . S
C1582 C1584 1.356 . S
C1582 O1607 1.325 . S
C1583 C1582 1.348 . S
C1583 C1585 1.353 . S
C1583 H1624 0.929 . S
C1584 C1582 1.356 . S
C1584 C1586 1.358 . S
C1584 H1625 0.930 . S
C1585 C1583 1.353 . S
C1585 N1587 1.314 . S
C1585 H1626 0.930 . S
C1586 C1584 1.358 . S
C1586 N1587 1.279 . S
C1586 H1627 0.930 . S
N1587 C1585 1.314 . S
N1587 C1586 1.279 . S
C1588 C1590 1.353 . S
C1588 N1591 1.314 . S
C1588 H1594 0.930 . S
C1589 N1591 1.279 . S
C1589 C1592 1.358 . S
C1589 H1595 0.930 . S
C1590 C1588 1.353 . S
C1590 C1593 1.348 . S
C1590 H1628 0.929 . S
N1591 Li1546 1.990 . S
N1591 C1588 1.314 . S
N1591 C1589 1.279 . S
C1592 C1589 1.358 . S
C1592 C1593 1.356 . S
C1592 H1629 0.930 . S
C1593 C1590 1.348 . S
C1593 C1592 1.356 . S
H1594 C1588 0.930 . S
H1595 C1589 0.930 . S
C1596 N1597 1.314 . S
C1596 C1598 1.353 . S
C1596 H1602 0.930 . S
N1597 Li1547 1.990 . S
N1597 C1596 1.314 . S
N1597 C1600 1.279 . S
C1598 C1596 1.353 . S
C1598 C1601 1.348 . S
C1598 H1630 0.929 . S
C1599 C1600 1.358 . S
C1599 C1601 1.356 . S
C1599 H1631 0.930 . S
C1600 N1597 1.279 . S
C1600 C1599 1.358 . S
C1600 H1603 0.930 . S
C1601 C1598 1.348 . S
C1601 C1599 1.356 . S
H1602 C1596 0.930 . S
H1603 C1600 0.930 . S
O1604 Li1544 1.956 . S
O1604 Li1545 1.970 . S
O1604 Li1546 1.961 . S
O1604 C1548 1.325 . S
O1605 Li1544 1.970 . S
O1605 Li1545 1.956 . S
O1605 Li1547 1.961 . S
O1605 C1554 1.325 . S
O1606 Li1544 1.961 . S
O1606 Li1546 1.956 . S
O1606 Li1547 1.970 . S
O1606 C1576 1.325 . S
O1607 Li1545 1.961 . S
O1607 Li1546 1.970 . S
O1607 Li1547 1.956 . S
O1607 C1582 1.325 . S
H1608 C1550 0.929 . S
H1609 C1551 0.930 . S
H1610 C1552 0.930 . S
H1611 C1553 0.930 . S
H1612 C1555 0.930 . S
H1613 C1557 0.929 . S
H1614 C1558 0.930 . S
H1615 C1559 0.930 . S
H1616 C1562 0.930 . S
H1617 C1565 0.929 . S
H1618 C1570 0.929 . S
H1619 C1571 0.930 . S
H1620 C1578 0.929 . S
H1621 C1579 0.930 . S
H1622 C1580 0.930 . S
H1623 C1581 0.930 . S
H1624 C1583 0.929 . S
H1625 C1584 0.930 . S
H1626 C1585 0.930 . S
H1627 C1586 0.930 . S
H1628 C1590 0.929 . S
H1629 C1592 0.930 . S
H1630 C1598 0.929 . S
H1631 C1599 0.930 . S
C625 C181 1.502 . S
C684 C247 1.585 . S
C283 C801 1.525 . S
C869 C169 1.527 . S
C948 C361 1.518 . S
C1073 C433 1.538 . S
C421 C1133 1.506 . S
C1241 C355 1.605 . S
C427 C1337 1.534 . S
C1397 C325 1.585 . S
C385 C1300 1.501 . S
C1417 C463 1.538 . S
C253 C1485 1.533 . S
C145 C1476 1.543 . S
C205 C1505 1.481 . S
C217 C1513 1.571 . S
C139 C897 1.526 . S
C535 C860 1.511 . S
C596 C565 1.560 . S
C693 C313 1.508 . S
C175 C957 1.553 . S
C1249 C397 1.509 . S
C977 C349 1.581 . S
C1161 C457 1.543 . S
C1153 C505 1.502 . S
C571 C1221 1.585 . S
C319 C985 1.523 . S
C1036 C493 1.527 . S
C109 C781 1.516 . S
C889 C1 1.538 . S
C605 C61 1.506 . S
C721 C103 1.605 . S
C67 C1425 1.530 . S
C73 C1309 1.585 . S
C133 C1388 1.505 . S
C31 C1329 1.538 . S
C1573 C289 1.533 . S
C1564 C469 1.542 . S
C1593 C529 1.481 . S
C541 C1601 1.571 . S
C391 C1065 1.526 . S
C1045 C211 1.511 . S
C1124 C241 1.560 . S
C1212 C277 1.510 . S
C499 C772 1.553 . S
C713 C37 1.511 . S
C97 C809 1.582 . S
C633 C25 1.543 . S
