# Generated by pormake.
# Topology apo, (3,6)-cn, num edge types: 1
# Building blocks:
#     Node 0, Type 0, BuildingBlock: MIDCAF_clean_linker_0, # of connection points: 3
#     Node 1, Type 0, BuildingBlock: MIDCAF_clean_linker_0, # of connection points: 3
#     Node 2, Type 0, BuildingBlock: MIDCAF_clean_linker_0, # of connection points: 3
#     Node 3, Type 0, BuildingBlock: MIDCAF_clean_linker_0, # of connection points: 3
#     Node 4, Type 0, BuildingBlock: MIDCAF_clean_linker_0, # of connection points: 3
#     Node 5, Type 0, BuildingBlock: MIDCAF_clean_linker_0, # of connection points: 3
#     Node 6, Type 0, BuildingBlock: MIDCAF_clean_linker_0, # of connection points: 3
#     Node 7, Type 0, BuildingBlock: MIDCAF_clean_linker_0, # of connection points: 3
#     Node 8, Type 1, BuildingBlock: KUMBOL_clean_sbu_1, # of connection points: 6
#     Node 9, Type 1, BuildingBlock: KUMBOL_clean_sbu_1, # of connection points: 6
#     Node 10, Type 1, BuildingBlock: KUMBOL_clean_sbu_1, # of connection points: 6
#     Node 11, Type 1, BuildingBlock: KUMBOL_clean_sbu_1, # of connection points: 6
#     Edge 12, Type (0, 1), BuildingBlock: TEMPAE_clean_linker_10, # of connection points: 2
#     Edge 13, Type (0, 1), BuildingBlock: TEMPAE_clean_linker_10, # of connection points: 2
#     Edge 14, Type (0, 1), BuildingBlock: TEMPAE_clean_linker_10, # of connection points: 2
#     Edge 15, Type (0, 1), BuildingBlock: TEMPAE_clean_linker_10, # of connection points: 2
#     Edge 16, Type (0, 1), BuildingBlock: TEMPAE_clean_linker_10, # of connection points: 2
#     Edge 17, Type (0, 1), BuildingBlock: TEMPAE_clean_linker_10, # of connection points: 2
#     Edge 18, Type (0, 1), BuildingBlock: TEMPAE_clean_linker_10, # of connection points: 2
#     Edge 19, Type (0, 1), BuildingBlock: TEMPAE_clean_linker_10, # of connection points: 2
#     Edge 20, Type (0, 1), BuildingBlock: TEMPAE_clean_linker_10, # of connection points: 2
#     Edge 21, Type (0, 1), BuildingBlock: TEMPAE_clean_linker_10, # of connection points: 2
#     Edge 22, Type (0, 1), BuildingBlock: TEMPAE_clean_linker_10, # of connection points: 2
#     Edge 23, Type (0, 1), BuildingBlock: TEMPAE_clean_linker_10, # of connection points: 2
#     Edge 24, Type (0, 1), BuildingBlock: TEMPAE_clean_linker_10, # of connection points: 2
#     Edge 25, Type (0, 1), BuildingBlock: TEMPAE_clean_linker_10, # of connection points: 2
#     Edge 26, Type (0, 1), BuildingBlock: TEMPAE_clean_linker_10, # of connection points: 2
#     Edge 27, Type (0, 1), BuildingBlock: TEMPAE_clean_linker_10, # of connection points: 2
#     Edge 28, Type (0, 1), BuildingBlock: TEMPAE_clean_linker_10, # of connection points: 2
#     Edge 29, Type (0, 1), BuildingBlock: TEMPAE_clean_linker_10, # of connection points: 2
#     Edge 30, Type (0, 1), BuildingBlock: TEMPAE_clean_linker_10, # of connection points: 2
#     Edge 31, Type (0, 1), BuildingBlock: TEMPAE_clean_linker_10, # of connection points: 2
#     Edge 32, Type (0, 1), BuildingBlock: TEMPAE_clean_linker_10, # of connection points: 2
#     Edge 33, Type (0, 1), BuildingBlock: TEMPAE_clean_linker_10, # of connection points: 2
#     Edge 34, Type (0, 1), BuildingBlock: TEMPAE_clean_linker_10, # of connection points: 2
#     Edge 35, Type (0, 1), BuildingBlock: TEMPAE_clean_linker_10, # of connection points: 2
# Relax obj value: 0.009
# Max RMSD: 0.094
# Mean RMSD: 0.075
data_MOF--net-apo--node1-KUMBOL_clean_sbu_1--node2-MIDCAF_clean_linker_0--edge1-TEMPAE_clean_linker_10
_symmetry_space_group_name_H-M    P1
_symmetry_Int_Tables_number       1
_symmetry_cell_setting            triclinic
loop_
_symmetry_equiv_pos_as_xyz
'x, y, z'
_cell_length_a     29.407551
_cell_length_b     52.529868
_cell_length_c     64.475423
_cell_angle_alpha  90.051215
_cell_angle_beta   90.003241
_cell_angle_gamma 90.470953
loop_
_atom_site_label
_atom_site_type_symbol
_atom_site_fract_x
_atom_site_fract_y
_atom_site_fract_z
_atom_type_partial_charge
C0 C 0.31974 0.40101 0.49061 0.0
C1 C 0.30845 0.37889 0.50181 0.0
C2 C 0.29224 0.35749 0.49085 0.0
C3 C 0.28727 0.35824 0.46926 0.0
H4 H 0.24359 0.31507 0.41745 0.0
H5 H 0.20743 0.2809 0.39745 0.0
H6 H 0.2034 0.32994 0.34373 0.0
H7 H 0.24039 0.36356 0.36331 0.0
H8 H 0.32049 0.40614 0.36194 0.0
H9 H 0.34783 0.4424 0.34218 0.0
H10 H 0.3521 0.48771 0.39816 0.0
H11 H 0.32628 0.4509 0.41818 0.0
H12 H 0.32381 0.41922 0.46106 0.0
H13 H 0.33158 0.418 0.49853 0.0
H14 H 0.28374 0.34003 0.49894 0.0
H15 H 0.27477 0.34138 0.46136 0.0
N16 N 0.27302 0.36184 0.42466 0.0
N17 N 0.28376 0.38366 0.39333 0.0
N18 N 0.3085 0.40211 0.42444 0.0
C19 C 0.268 0.36293 0.4037 0.0
C20 C 0.30406 0.40329 0.40349 0.0
C21 C 0.29325 0.38142 0.43516 0.0
C22 C 0.24523 0.34206 0.392 0.0
C23 C 0.23501 0.31852 0.40136 0.0
C24 C 0.2141 0.29897 0.38992 0.0
C25 C 0.20279 0.30259 0.36892 0.0
C26 C 0.21252 0.32625 0.35972 0.0
C27 C 0.23358 0.34564 0.37105 0.0
C28 C 0.32105 0.4256 0.39167 0.0
C29 C 0.32719 0.42381 0.3701 0.0
C30 C 0.34262 0.44472 0.3587 0.0
C31 C 0.35179 0.46813 0.3685 0.0
C32 C 0.34585 0.46992 0.39012 0.0
C33 C 0.33086 0.44884 0.40159 0.0
C34 C 0.29855 0.38041 0.45808 0.0
C35 C 0.31497 0.40175 0.46905 0.0
C36 C 0.15772 0.11489 0.98764 0.0
C37 C 0.18041 0.13273 1.00028 0.0
C38 C 0.21226 0.14936 0.9911 0.0
C39 C 0.22171 0.14792 0.96983 0.0
H40 H 0.28333 0.18752 0.91996 0.0
H41 H 0.32752 0.21967 0.90113 0.0
H42 H 0.3192 0.17379 0.84562 0.0
H43 H 0.2762 0.14167 0.86428 0.0
H44 H 0.23331 0.08872 0.86467 0.0
H45 H 0.20729 0.05187 0.84499 0.0
H46 H 0.12214 0.02877 0.89628 0.0
H47 H 0.14779 0.06586 0.91607 0.0
H48 H 0.1497 0.09903 0.95731 0.0
H49 H 0.13338 0.10161 0.99425 0.0
H50 H 0.23006 0.16344 1.0004 0.0
H51 H 0.24682 0.16084 0.96335 0.0
N52 N 0.23737 0.14498 0.92514 0.0
N53 N 0.2338 0.1213 0.89433 0.0
N54 N 0.19697 0.1062 0.9241 0.0
C55 C 0.24852 0.14227 0.90476 0.0
C56 C 0.2081 0.10317 0.9038 0.0
C57 C 0.21151 0.12699 0.93492 0.0
C58 C 0.27608 0.1619 0.89371 0.0
C59 C 0.29111 0.18423 0.90377 0.0
C60 C 0.31628 0.20273 0.89295 0.0
C61 C 0.32711 0.19927 0.87188 0.0
C62 C 0.31223 0.17691 0.86192 0.0
C63 C 0.28716 0.15851 0.87266 0.0
C64 C 0.1926 0.08038 0.892 0.0
C65 C 0.20905 0.07584 0.87184 0.0
C66 C 0.19439 0.05459 0.86056 0.0
C67 C 0.16273 0.03738 0.86908 0.0
C68 C 0.1463 0.04182 0.88923 0.0
C69 C 0.16119 0.06302 0.9006 0.0
C70 C 0.19984 0.12962 0.95728 0.0
C71 C 0.16741 0.11329 0.96645 0.0
C72 C 0.84867 0.11199 0.52091 0.0
C73 C 0.83062 0.13271 0.50997 0.0
C74 C 0.805 0.15081 0.52088 0.0
C75 C 0.79705 0.1481 0.54215 0.0
H76 H 0.76401 0.18963 0.59844 0.0
H77 H 0.72665 0.22202 0.61975 0.0
H78 H 0.68204 0.16374 0.66245 0.0
H79 H 0.71943 0.1315 0.64146 0.0
H80 H 0.77097 0.07959 0.6418 0.0
H81 H 0.79765 0.04359 0.66201 0.0
H82 H 0.90176 0.02938 0.61635 0.0
H83 H 0.87503 0.06559 0.5959 0.0
H84 H 0.85451 0.0928 0.55006 0.0
H85 H 0.86832 0.09764 0.51294 0.0
H86 H 0.79119 0.16721 0.51297 0.0
H87 H 0.77689 0.16238 0.54993 0.0
N88 N 0.78067 0.14186 0.58612 0.0
N89 N 0.7826 0.11673 0.61609 0.0
N90 N 0.8173 0.10223 0.58562 0.0
C91 C 0.76975 0.1384 0.60642 0.0
C92 C 0.80647 0.09862 0.60592 0.0
C93 C 0.80419 0.12375 0.57554 0.0
C94 C 0.74482 0.15801 0.61829 0.0
C95 C 0.74593 0.18374 0.61229 0.0
C96 C 0.72485 0.20227 0.62453 0.0
C97 C 0.7016 0.19533 0.64275 0.0
C98 C 0.69953 0.16958 0.64843 0.0
C99 C 0.72115 0.15116 0.63643 0.0
C100 C 0.82102 0.07556 0.61726 0.0
C101 C 0.79941 0.06876 0.63594 0.0
C102 C 0.81447 0.04803 0.64749 0.0
C103 C 0.85179 0.03375 0.64077 0.0
C104 C 0.87307 0.04022 0.62194 0.0
C105 C 0.8576 0.06082 0.6102 0.0
C106 C 0.81437 0.12714 0.55309 0.0
C107 C 0.84053 0.10919 0.5422 0.0
C108 C 0.67466 0.38757 0.02147 0.0
C109 C 0.68084 0.36363 0.01213 0.0
C110 C 0.69713 0.34351 0.02436 0.0
C111 C 0.70725 0.34724 0.04531 0.0
H112 H 0.7552 0.30941 0.09792 0.0
H113 H 0.79715 0.27721 0.1174 0.0
H114 H 0.83208 0.33341 0.16371 0.0
H115 H 0.78994 0.36552 0.14453 0.0
H116 H 0.68275 0.40177 0.14853 0.0
H117 H 0.65495 0.43867 0.16768 0.0
H118 H 0.66451 0.4844 0.11233 0.0
H119 H 0.69126 0.4472 0.09278 0.0
H120 H 0.67943 0.40997 0.04917 0.0
H121 H 0.66274 0.40359 0.01247 0.0
H122 H 0.70148 0.32469 0.01784 0.0
H123 H 0.7195 0.33121 0.0542 0.0
N124 N 0.73415 0.35661 0.0877 0.0
N125 N 0.72897 0.38081 0.11811 0.0
N126 N 0.69742 0.39615 0.08717 0.0
C127 C 0.74344 0.35959 0.10819 0.0
C128 C 0.70592 0.39912 0.10777 0.0
C129 C 0.71128 0.37482 0.07704 0.0
C130 C 0.76915 0.34001 0.1197 0.0
C131 C 0.7719 0.3149 0.11223 0.0
C132 C 0.79569 0.29646 0.12339 0.0
C133 C 0.81786 0.3029 0.14199 0.0
C134 C 0.81556 0.32802 0.14932 0.0
C135 C 0.79118 0.34634 0.13839 0.0
C136 C 0.6892 0.42162 0.11915 0.0
C137 C 0.67895 0.41966 0.1404 0.0
C138 C 0.6629 0.44068 0.15135 0.0
C139 C 0.65775 0.46418 0.1414 0.0
C140 C 0.66837 0.46637 0.12025 0.0
C141 C 0.68344 0.44513 0.10912 0.0
C142 C 0.70096 0.37114 0.05469 0.0
C143 C 0.68446 0.39127 0.04251 0.0
C144 C 0.67474 0.60586 0.52306 0.0
C145 C 0.68901 0.62655 0.51083 0.0
C146 C 0.71532 0.64593 0.52014 0.0
C147 C 0.72679 0.64467 0.54124 0.0
H148 H 0.77982 0.6874 0.59317 0.0
H149 H 0.81752 0.72111 0.61323 0.0
H150 H 0.83579 0.66878 0.66412 0.0
H151 H 0.79781 0.63553 0.64451 0.0
H152 H 0.74378 0.58589 0.64709 0.0
H153 H 0.71579 0.54993 0.6673 0.0
H154 H 0.63636 0.52422 0.61489 0.0
H155 H 0.66386 0.56036 0.5946 0.0
H156 H 0.67452 0.58819 0.55279 0.0
H157 H 0.65518 0.59036 0.51635 0.0
H158 H 0.72665 0.6622 0.51116 0.0
H159 H 0.74698 0.65992 0.54793 0.0
N160 N 0.74874 0.64074 0.58558 0.0
N161 N 0.74594 0.61741 0.6166 0.0
N162 N 0.71102 0.60115 0.58681 0.0
C163 C 0.75966 0.63847 0.60605 0.0
C164 C 0.72161 0.59868 0.60718 0.0
C165 C 0.72448 0.62199 0.57583 0.0
C166 C 0.78525 0.65877 0.61725 0.0
C167 C 0.79211 0.68308 0.60859 0.0
C168 C 0.81382 0.70238 0.62007 0.0
C169 C 0.82913 0.69773 0.6404 0.0
C170 C 0.82347 0.67322 0.64872 0.0
C171 C 0.8018 0.65406 0.63736 0.0
C172 C 0.70597 0.57615 0.61919 0.0
C173 C 0.72045 0.57258 0.63978 0.0
C174 C 0.70465 0.55186 0.65137 0.0
C175 C 0.67383 0.53427 0.6427 0.0
C176 C 0.65973 0.53762 0.62206 0.0
C177 C 0.67571 0.55828 0.61041 0.0
C178 C 0.71239 0.62391 0.55346 0.0
C179 C 0.6862 0.60456 0.54403 0.0
C180 C 0.80703 0.90588 0.01713 0.0
C181 C 0.80664 0.88253 0.0065 0.0
C182 C 0.79878 0.86 0.01771 0.0
C183 C 0.79067 0.86088 0.03911 0.0
H184 H 0.74144 0.81723 0.09132 0.0
H185 H 0.70538 0.783 0.11131 0.0
H186 H 0.67374 0.83663 0.15998 0.0
H187 H 0.71071 0.87032 0.14053 0.0
H188 H 0.79735 0.91116 0.14605 0.0
H189 H 0.82289 0.94723 0.16648 0.0
H190 H 0.83595 0.99229 0.11069 0.0
H191 H 0.81197 0.95558 0.09001 0.0
H192 H 0.80015 0.9251 0.04616 0.0
H193 H 0.81341 0.92352 0.00889 0.0
H194 H 0.79817 0.84176 0.00985 0.0
H195 H 0.78439 0.84321 0.04732 0.0
N196 N 0.7617 0.86577 0.08245 0.0
N197 N 0.76647 0.88832 0.11377 0.0
N198 N 0.7953 0.90657 0.08337 0.0
C199 C 0.7532 0.86724 0.10316 0.0
C200 C 0.78763 0.908 0.10411 0.0
C201 C 0.7826 0.88548 0.07243 0.0
C202 C 0.72943 0.84645 0.1144 0.0
C203 C 0.72666 0.82165 0.10627 0.0
C204 C 0.70586 0.80208 0.1177 0.0
C205 C 0.68711 0.807 0.13739 0.0
C206 C 0.68884 0.83197 0.14515 0.0
C207 C 0.7099 0.85137 0.13389 0.0
C208 C 0.80258 0.93044 0.11635 0.0
C209 C 0.80549 0.92875 0.13807 0.0
C210 C 0.81986 0.94957 0.14986 0.0
C211 C 0.83118 0.97282 0.14031 0.0
C212 C 0.82802 0.9746 0.11856 0.0
C213 C 0.81411 0.95359 0.1067 0.0
C214 C 0.79108 0.88428 0.04976 0.0
C215 C 0.79966 0.90674 0.03851 0.0
C216 C 0.15294 0.87939 0.48602 0.0
C217 C 0.17811 0.86227 0.49818 0.0
C218 C 0.21522 0.8498 0.489 0.0
C219 C 0.22646 0.85405 0.46822 0.0
H220 H 0.26978 0.81334 0.41412 0.0
H221 H 0.31123 0.78188 0.39371 0.0
H222 H 0.33599 0.8382 0.34623 0.0
H223 H 0.29488 0.86964 0.36649 0.0
H224 H 0.24098 0.92038 0.36717 0.0
H225 H 0.21208 0.9566 0.34791 0.0
H226 H 0.11277 0.97004 0.39591 0.0
H227 H 0.14153 0.93358 0.41533 0.0
H228 H 0.1443 0.8971 0.4564 0.0
H229 H 0.1237 0.88904 0.49239 0.0
H230 H 0.23603 0.8369 0.49792 0.0
H231 H 0.25529 0.84411 0.46173 0.0
N232 N 0.23991 0.85875 0.42372 0.0
N233 N 0.23659 0.88412 0.39391 0.0
N234 N 0.19835 0.89677 0.42405 0.0
C235 C 0.25151 0.86284 0.40358 0.0
C236 C 0.21001 0.90116 0.40395 0.0
C237 C 0.21348 0.87569 0.43409 0.0
C238 C 0.27884 0.84402 0.39193 0.0
C239 C 0.28436 0.81908 0.39941 0.0
C240 C 0.30784 0.80102 0.38768 0.0
C241 C 0.32673 0.8076 0.36837 0.0
C242 C 0.32211 0.83264 0.36113 0.0
C243 C 0.29829 0.8506 0.37272 0.0
C244 C 0.19348 0.92396 0.3928 0.0
C245 C 0.21306 0.93104 0.37373 0.0
C246 C 0.19674 0.95192 0.36272 0.0
C247 C 0.1602 0.96613 0.37041 0.0
C248 C 0.14079 0.95928 0.38955 0.0
C249 C 0.15744 0.93849 0.40071 0.0
C250 C 0.20133 0.87117 0.45612 0.0
C251 C 0.16459 0.8839 0.4653 0.0
C252 C 0.34882 0.60969 0.98849 0.0
C253 C 0.32943 0.62954 1.00004 0.0
C254 C 0.30215 0.64736 0.98973 0.0
C255 C 0.29384 0.64521 0.96846 0.0
H256 H 0.2647 0.68894 0.91179 0.0
H257 H 0.22666 0.72182 0.89125 0.0
H258 H 0.17184 0.66386 0.85067 0.0
H259 H 0.21024 0.63112 0.87081 0.0
H260 H 0.26819 0.58081 0.86681 0.0
H261 H 0.29333 0.5449 0.8461 0.0
H262 H 0.3937 0.52682 0.89255 0.0
H263 H 0.36866 0.56302 0.91347 0.0
H264 H 0.35521 0.59166 0.95883 0.0
H265 H 0.36983 0.59559 0.99601 0.0
H266 H 0.28725 0.66309 0.99814 0.0
H267 H 0.27232 0.65924 0.96116 0.0
N268 N 0.27773 0.64057 0.92438 0.0
N269 N 0.27838 0.61613 0.89399 0.0
N270 N 0.31422 0.6009 0.92392 0.0
C271 C 0.266 0.63759 0.90413 0.0
C272 C 0.30263 0.59777 0.90364 0.0
C273 C 0.30157 0.6222 0.93447 0.0
C274 C 0.24058 0.65747 0.89288 0.0
C275 C 0.24423 0.68324 0.89859 0.0
C276 C 0.22275 0.70203 0.8868 0.0
C277 C 0.19645 0.6953 0.86941 0.0
C278 C 0.19175 0.66951 0.86407 0.0
C279 C 0.2139 0.65082 0.87556 0.0
C280 C 0.31654 0.5749 0.89181 0.0
C281 C 0.29553 0.56918 0.87273 0.0
C282 C 0.30971 0.54849 0.86088 0.0
C283 C 0.34548 0.53308 0.86769 0.0
C284 C 0.36624 0.53852 0.88686 0.0
C285 C 0.35171 0.55914 0.89888 0.0
C286 C 0.31238 0.62506 0.95691 0.0
C287 C 0.34023 0.6074 0.96718 0.0
C288 C 0.86186 0.1139 0.25321 0.0
C289 C 0.86302 0.07006 0.26493 0.0
C290 C 0.88233 0.09474 0.26469 0.0
C291 C 0.8244 0.0647 0.25281 0.0
C292 C 0.82274 0.10869 0.24125 0.0
C293 C 0.80436 0.08395 0.24098 0.0
N294 N 0.88136 0.13746 0.25313 0.0
C295 C 0.86238 0.15696 0.24229 0.0
C296 C 0.80363 0.12847 0.22968 0.0
C297 C 0.82338 0.15275 0.23032 0.0
Gd298 Gd 0.06495 0.13702 0.23888 0.0
Gd299 Gd 0.94826 0.14249 0.27252 0.0
N300 N 0.9203 0.10038 0.27599 0.0
C301 C 0.88244 0.05163 0.27774 0.0
C302 C 0.93625 0.08316 0.29004 0.0
C303 C 0.91857 0.05839 0.29069 0.0
H304 H 0.96162 0.08847 0.30129 0.0
H305 H 0.93226 0.04467 0.30149 0.0
H306 H 0.05219 0.19231 0.21171 0.0
H307 H 0.87744 0.17572 0.24291 0.0
H308 H 0.08482 0.23532 0.21155 0.0
H309 H 0.86862 0.03246 0.27837 0.0
H310 H 0.80941 0.04579 0.25269 0.0
H311 H 0.13265 0.10234 0.269 0.0
H312 H 0.77365 0.12521 0.22025 0.0
H313 H 0.80868 0.1682 0.22155 0.0
H314 H 0.21071 0.2305 0.25844 0.0
H315 H 0.77453 0.07953 0.23176 0.0
H316 H 0.24102 0.15033 0.29081 0.0
H317 H 0.20239 0.1083 0.28996 0.0
N318 N 0.13165 0.14064 0.25854 0.0
C319 C 0.15291 0.16374 0.25833 0.0
C320 C 0.14918 0.12076 0.26944 0.0
C321 C 0.21054 0.14779 0.28157 0.0
C322 C 0.18875 0.12405 0.28119 0.0
C323 C 0.19276 0.16798 0.27003 0.0
H324 H 0.24365 0.1959 0.27909 0.0
N325 N 0.09465 0.1788 0.23605 0.0
C326 C 0.13351 0.18343 0.24703 0.0
C327 C 0.13582 0.22673 0.23438 0.0
C328 C 0.15461 0.20766 0.24675 0.0
C329 C 0.07878 0.19672 0.22259 0.0
C330 C 0.09826 0.22107 0.22196 0.0
O331 O 0.94556 0.12669 0.23983 0.0
O332 O 0.01287 0.10544 0.23625 0.0
O333 O 0.08067 0.13711 0.20546 0.0
O334 O 0.11726 0.11243 0.2269 0.0
O335 O 0.00789 0.12136 0.28651 0.0
O336 O 0.04519 0.10326 0.25859 0.0
O337 O 0.06782 0.15318 0.27142 0.0
O338 O 0.0003 0.1742 0.27519 0.0
O339 O 0.9332 0.14254 0.30585 0.0
O340 O 0.89592 0.16723 0.28464 0.0
O341 O 0.00586 0.15861 0.22475 0.0
O342 O 0.96761 0.17618 0.25265 0.0
C343 C 0.96943 0.10792 0.23224 0.0
C344 C 0.03471 0.10392 0.27844 0.0
C345 C 0.14046 0.10974 0.19091 0.0
C346 C 0.15963 0.10539 0.1541 0.0
C347 C 0.20266 0.08249 0.18024 0.0
C348 C 0.17574 0.09287 0.19581 0.0
C349 C 0.19473 0.08864 0.15957 0.0
C350 C 0.1327 0.11614 0.16995 0.0
C351 C 0.1122 0.12009 0.20791 0.0
C352 C 0.19423 0.21197 0.25844 0.0
C353 C 0.21316 0.19223 0.2701 0.0
H354 H 0.15102 0.24557 0.23375 0.0
C355 C 0.04372 0.17168 0.27931 0.0
C356 C 0.97801 0.17562 0.23278 0.0
C357 C 0.87474 0.17001 0.321 0.0
C358 C 0.85617 0.17242 0.35795 0.0
C359 C 0.81921 0.20052 0.33335 0.0
C360 C 0.84363 0.18963 0.31713 0.0
C361 C 0.82554 0.19211 0.35362 0.0
C362 C 0.88053 0.16122 0.34151 0.0
C363 C 0.90186 0.1597 0.30363 0.0
H364 H 0.22984 0.06961 0.18422 0.0
H365 H 0.1827 0.08765 0.21174 0.0
H366 H 0.21654 0.08047 0.14781 0.0
H367 H 0.10546 0.12901 0.16595 0.0
H368 H 0.79542 0.21565 0.3302 0.0
H369 H 0.83841 0.19677 0.30156 0.0
H370 H 0.8061 0.20085 0.36596 0.0
H371 H 0.90447 0.14617 0.34475 0.0
C372 C 0.64695 0.38969 0.75317 0.0
C373 C 0.64722 0.4342 0.76357 0.0
C374 C 0.62744 0.40968 0.76402 0.0
C375 C 0.68632 0.43855 0.75155 0.0
C376 C 0.68715 0.39384 0.74167 0.0
C377 C 0.70615 0.41844 0.74058 0.0
N378 N 0.62769 0.36607 0.75452 0.0
C379 C 0.65002 0.34546 0.74677 0.0
C380 C 0.70776 0.37301 0.73208 0.0
C381 C 0.68959 0.34864 0.73499 0.0
Gd382 Gd 0.45383 0.36036 0.73233 0.0
Gd383 Gd 0.55917 0.36362 0.77351 0.0
N384 N 0.58845 0.40518 0.77479 0.0
C385 C 0.62698 0.4536 0.77519 0.0
C386 C 0.56973 0.42363 0.78694 0.0
C387 C 0.58838 0.44821 0.78712 0.0
H388 H 0.54011 0.41937 0.79625 0.0
H389 H 0.57295 0.46297 0.79642 0.0
H390 H 0.48207 0.30875 0.70371 0.0
H391 H 0.63835 0.32642 0.75006 0.0
H392 H 0.4514 0.26614 0.69624 0.0
H393 H 0.64113 0.47271 0.77522 0.0
H394 H 0.70174 0.45733 0.7508 0.0
H395 H 0.3733 0.39052 0.75931 0.0
H396 H 0.73865 0.37539 0.7231 0.0
H397 H 0.7065 0.33224 0.72849 0.0
H398 H 0.30609 0.26498 0.72996 0.0
H399 H 0.73673 0.42202 0.73163 0.0
H400 H 0.2599 0.33988 0.7665 0.0
H401 H 0.29658 0.3817 0.77294 0.0
N402 N 0.38127 0.35361 0.74629 0.0
C403 C 0.36119 0.33086 0.74192 0.0
C404 C 0.35835 0.37195 0.75691 0.0
C405 C 0.29388 0.34356 0.76067 0.0
C406 C 0.31453 0.36714 0.76442 0.0
C407 C 0.31705 0.32512 0.7492 0.0
H408 H 0.26369 0.29646 0.75034 0.0
N409 N 0.42766 0.3193 0.72354 0.0
C410 C 0.38526 0.3131 0.73043 0.0
C411 C 0.39014 0.27192 0.71386 0.0
C412 C 0.3655 0.28916 0.72589 0.0
C413 C 0.45063 0.30306 0.71085 0.0
C414 C 0.43269 0.27901 0.70613 0.0
O415 O 0.54286 0.39616 0.75184 0.0
O416 O 0.52334 0.37414 0.72302 0.0
O417 O 0.43065 0.35899 0.70044 0.0
O418 O 0.42389 0.39385 0.71813 0.0
O419 O 0.49077 0.37753 0.78421 0.0
O420 O 0.45616 0.39375 0.75475 0.0
O421 O 0.44372 0.34065 0.76336 0.0
O422 O 0.51593 0.32793 0.77264 0.0
O423 O 0.55421 0.36505 0.8072 0.0
O424 O 0.61563 0.35164 0.79262 0.0
O425 O 0.52015 0.34178 0.72305 0.0
O426 O 0.5574 0.32846 0.75286 0.0
C427 C 0.54215 0.39403 0.73166 0.0
C428 C 0.46335 0.39365 0.77499 0.0
C429 C 0.37131 0.38615 0.69054 0.0
C430 C 0.32723 0.38762 0.65841 0.0
C431 C 0.29097 0.39612 0.69162 0.0
C432 C 0.33221 0.39232 0.70188 0.0
C433 C 0.28841 0.39388 0.67003 0.0
C434 C 0.36857 0.38374 0.66887 0.0
C435 C 0.41558 0.38218 0.70064 0.0
C436 C 0.32169 0.2833 0.73325 0.0
C437 C 0.2975 0.30124 0.74483 0.0
H438 H 0.37617 0.25334 0.71006 0.0
C439 C 0.47142 0.32653 0.77446 0.0
C440 C 0.54819 0.32641 0.73286 0.0
C441 C 0.59808 0.33519 0.82572 0.0
C442 C 0.60964 0.32348 0.86201 0.0
C443 C 0.60354 0.29072 0.83535 0.0
C444 C 0.59815 0.30937 0.82016 0.0
C445 C 0.60942 0.29765 0.85612 0.0
C446 C 0.60347 0.34212 0.8466 0.0
C447 C 0.59425 0.3553 0.81 0.0
H448 H 0.26086 0.40086 0.70042 0.0
H449 H 0.3335 0.3943 0.71857 0.0
H450 H 0.25601 0.39678 0.66245 0.0
H451 H 0.39895 0.37924 0.66011 0.0
H452 H 0.60355 0.27081 0.831 0.0
H453 H 0.594 0.30366 0.80411 0.0
H454 H 0.61469 0.28279 0.86747 0.0
H455 H 0.60301 0.36211 0.85078 0.0
C456 C 0.87594 0.82436 0.75978 0.0
C457 C 0.88606 0.78336 0.7762 0.0
C458 C 0.90013 0.80879 0.77305 0.0
C459 C 0.8487 0.7736 0.76505 0.0
C460 C 0.83732 0.81504 0.74921 0.0
C461 C 0.82427 0.78944 0.75165 0.0
N462 N 0.88988 0.84888 0.75749 0.0
C463 C 0.86491 0.86572 0.7462 0.0
C464 C 0.81267 0.83185 0.73675 0.0
C465 C 0.8262 0.85739 0.73547 0.0
Gd466 Gd 0.06804 0.86208 0.73771 0.0
Gd467 Gd 0.95633 0.8611 0.77502 0.0
N468 N 0.93572 0.81896 0.78376 0.0
C469 C 0.90898 0.76878 0.79098 0.0
C470 C 0.95539 0.80552 0.79945 0.0
C471 C 0.94323 0.78008 0.80294 0.0
H472 H 0.97996 0.81443 0.80957 0.0
H473 H 0.95981 0.76934 0.81506 0.0
H474 H 0.06815 0.92109 0.71904 0.0
H475 H 0.87554 0.88542 0.74517 0.0
H476 H 0.11025 0.96174 0.72431 0.0
H477 H 0.89929 0.74916 0.79385 0.0
H478 H 0.83768 0.75403 0.7671 0.0
H479 H 0.13724 0.81636 0.75625 0.0
H480 H 0.78282 0.82542 0.72834 0.0
H481 H 0.80696 0.87062 0.72614 0.0
H482 H 0.22587 0.94064 0.77405 0.0
H483 H 0.79485 0.78185 0.74356 0.0
H484 H 0.24219 0.85253 0.79185 0.0
H485 H 0.20326 0.8133 0.7797 0.0
N486 N 0.13504 0.85677 0.75731 0.0
C487 C 0.15811 0.87838 0.76242 0.0
C488 C 0.15242 0.83356 0.76233 0.0
C489 C 0.2124 0.85396 0.78205 0.0
C490 C 0.19049 0.83178 0.77525 0.0
C491 C 0.19712 0.87764 0.77511 0.0
H492 H 0.25024 0.90024 0.78971 0.0
N493 N 0.10783 0.90082 0.74093 0.0
C494 C 0.14459 0.90109 0.75364 0.0
C495 C 0.15619 0.94588 0.74686 0.0
C496 C 0.1693 0.92374 0.75729 0.0
C497 C 0.09645 0.9219 0.72973 0.0
C498 C 0.12009 0.94485 0.73274 0.0
O499 O 0.95248 0.84655 0.74196 0.0
O500 O 0.02147 0.8277 0.73731 0.0
O501 O 0.0648 0.86785 0.70446 0.0
O502 O 0.12045 0.84679 0.71747 0.0
O503 O 0.02123 0.8432 0.78697 0.0
O504 O 0.0568 0.82708 0.75792 0.0
O505 O 0.0512 0.89488 0.75923 0.0
O506 O 0.02364 0.87447 0.78771 0.0
O507 O 0.9179 0.86101 0.80407 0.0
O508 O 0.92616 0.89616 0.78614 0.0
O509 O 0.00516 0.88092 0.72505 0.0
O510 O 0.9628 0.89499 0.75332 0.0
C511 C 0.97763 0.82871 0.73372 0.0
C512 C 0.04799 0.82649 0.77797 0.0
C513 C 0.09401 0.83496 0.68416 0.0
C514 C 0.09564 0.82404 0.64738 0.0
C515 C 0.06448 0.79413 0.67253 0.0
C516 C 0.07399 0.81125 0.68856 0.0
C517 C 0.07491 0.8005 0.65202 0.0
C518 C 0.10515 0.8412 0.66361 0.0
C519 C 0.10026 0.85409 0.70057 0.0
C520 C 0.20671 0.92338 0.77083 0.0
C521 C 0.22054 0.90037 0.77977 0.0
H522 H 0.17425 0.9637 0.74927 0.0
C523 C 0.04652 0.8933 0.77939 0.0
C524 C 0.9755 0.89638 0.73367 0.0
C525 C 0.88309 0.89934 0.81823 0.0
C526 C 0.85754 0.90529 0.8539 0.0
C527 C 0.84152 0.93734 0.82787 0.0
C528 C 0.8638 0.92283 0.81292 0.0
C529 C 0.83873 0.92876 0.8483 0.0
C530 C 0.87921 0.8904 0.83876 0.0
C531 C 0.90978 0.88526 0.80268 0.0
H532 H 0.04883 0.77591 0.67599 0.0
H533 H 0.06538 0.80615 0.70433 0.0
H534 H 0.06732 0.78693 0.63982 0.0
H535 H 0.12015 0.85965 0.66019 0.0
H536 H 0.82689 0.95546 0.82367 0.0
H537 H 0.86632 0.93011 0.79724 0.0
H538 H 0.82193 0.94046 0.85978 0.0
H539 H 0.89448 0.87248 0.84315 0.0
C540 C 0.66185 0.65937 0.2503 0.0
C541 C 0.66528 0.70551 0.25221 0.0
C542 C 0.64264 0.6823 0.25641 0.0
C543 C 0.70717 0.70535 0.24175 0.0
C544 C 0.70387 0.65915 0.23977 0.0
C545 C 0.72639 0.68225 0.23554 0.0
N546 N 0.63874 0.63734 0.25409 0.0
C547 C 0.65621 0.61443 0.24834 0.0
C548 C 0.72175 0.63572 0.23358 0.0
C549 C 0.69788 0.61325 0.23796 0.0
Gd550 Gd 0.45023 0.64101 0.2377 0.0
Gd551 Gd 0.56808 0.64126 0.27044 0.0
N552 N 0.60113 0.68192 0.26583 0.0
C553 C 0.64503 0.72822 0.25856 0.0
C554 C 0.58246 0.70395 0.27297 0.0
C555 C 0.60372 0.7274 0.26919 0.0
H556 H 0.55165 0.70371 0.28186 0.0
H557 H 0.58836 0.74483 0.27463 0.0
H558 H 0.4691 0.58711 0.20979 0.0
H559 H 0.6383 0.59704 0.25208 0.0
H560 H 0.44478 0.54234 0.21015 0.0
H561 H 0.6613 0.74644 0.2556 0.0
H562 H 0.72495 0.723 0.23834 0.0
H563 H 0.3776 0.67214 0.26805 0.0
H564 H 0.75393 0.63476 0.22544 0.0
H565 H 0.71157 0.59503 0.23337 0.0
H566 H 0.32277 0.54021 0.25934 0.0
H567 H 0.75861 0.68246 0.2274 0.0
H568 H 0.2802 0.61858 0.29179 0.0
H569 H 0.31057 0.66261 0.28997 0.0
N570 N 0.38547 0.63393 0.25813 0.0
C571 C 0.36865 0.60974 0.25843 0.0
C572 C 0.36474 0.6529 0.26895 0.0
C573 C 0.30957 0.62269 0.28218 0.0
C574 C 0.32668 0.64756 0.28124 0.0
C575 C 0.33041 0.60344 0.27063 0.0
H576 H 0.28519 0.57296 0.28038 0.0
N577 N 0.42752 0.5979 0.23527 0.0
C578 C 0.39069 0.59116 0.24692 0.0
C579 C 0.39489 0.54798 0.23413 0.0
C580 C 0.3739 0.56591 0.24691 0.0
C581 C 0.44491 0.58105 0.22128 0.0
C582 C 0.42996 0.55572 0.22094 0.0
O583 O 0.56929 0.65797 0.23817 0.0
O584 O 0.49791 0.67442 0.23315 0.0
O585 O 0.43317 0.63893 0.20458 0.0
O586 O 0.39387 0.6628 0.22567 0.0
O587 O 0.50824 0.66304 0.28357 0.0
O588 O 0.46379 0.67669 0.25611 0.0
O589 O 0.45184 0.62662 0.27089 0.0
O590 O 0.52104 0.60739 0.27304 0.0
O591 O 0.57319 0.64908 0.3035 0.0
O592 O 0.61989 0.62296 0.28907 0.0
O593 O 0.51249 0.62221 0.22366 0.0
O594 O 0.55249 0.6061 0.25155 0.0
C595 C 0.54151 0.67371 0.22891 0.0
C596 C 0.47713 0.67811 0.27558 0.0
C597 C 0.37002 0.66312 0.18961 0.0
C598 C 0.35073 0.66477 0.15272 0.0
C599 C 0.30781 0.68957 0.17768 0.0
C600 C 0.33468 0.68028 0.19374 0.0
C601 C 0.31589 0.68203 0.1573 0.0
C602 C 0.37755 0.65511 0.169 0.0
C603 C 0.39969 0.65477 0.2068 0.0
C604 C 0.33601 0.55951 0.25916 0.0
C605 C 0.31442 0.5782 0.27104 0.0
H606 H 0.38304 0.5284 0.23369 0.0
C607 C 0.478 0.60863 0.27813 0.0
C608 C 0.54186 0.60608 0.23168 0.0
C609 C 0.59777 0.61437 0.32352 0.0
C610 C 0.60459 0.60335 0.36023 0.0
C611 C 0.5687 0.57383 0.33597 0.0
C612 C 0.57638 0.59085 0.31975 0.0
C613 C 0.58258 0.57998 0.35608 0.0
C614 C 0.61173 0.6206 0.34377 0.0
C615 C 0.60527 0.6325 0.30643 0.0
H616 H 0.28078 0.70282 0.18103 0.0
H617 H 0.328 0.68675 0.20939 0.0
H618 H 0.29462 0.68954 0.14506 0.0
H619 H 0.40475 0.64198 0.16553 0.0
H620 H 0.55208 0.55576 0.33292 0.0
H621 H 0.56584 0.58562 0.30425 0.0
H622 H 0.5758 0.56649 0.36841 0.0
H623 H 0.62876 0.63865 0.34661 0.0
C624 C 0.17126 0.00541 0.34895 0.0
C625 C 0.14178 0.98757 0.35811 0.0
C626 C 0.15448 0.02502 0.33639 0.0
C627 C 0.10712 0.02665 0.33278 0.0
C628 C 0.07713 0.00888 0.34219 0.0
C629 C 0.09482 0.98961 0.35483 0.0
C630 C 0.18745 0.04381 0.32681 0.0
C631 C 0.02644 0.00991 0.33853 0.0
C632 C 0.05778 0.08893 0.31361 0.0
C633 C 0.05378 0.0843 0.29227 0.0
C634 C 0.07544 0.07041 0.32697 0.0
C635 C 0.08901 0.04664 0.31879 0.0
C636 C 0.0851 0.04189 0.29724 0.0
C637 C 0.06775 0.06085 0.28421 0.0
C638 C 0.07957 0.07627 0.34983 0.0
C639 C 0.09889 0.0167 0.28796 0.0
H640 H 0.20755 0.00403 0.35163 0.0
H641 H 0.07199 0.97567 0.3617 0.0
H642 H 0.18571 0.04252 0.30965 0.0
H643 H 0.17803 0.06352 0.33115 0.0
H644 H 0.22309 0.04043 0.33174 0.0
H645 H 0.00768 0.99495 0.34729 0.0
H646 H 0.01321 0.02879 0.34317 0.0
H647 H 0.01911 0.00748 0.32176 0.0
H648 H 0.04736 0.10713 0.31988 0.0
H649 H 0.06448 0.05716 0.26773 0.0
H650 H 0.11542 0.07418 0.35488 0.0
H651 H 0.05888 0.0625 0.35892 0.0
H652 H 0.06822 0.09584 0.35365 0.0
H653 H 0.1353 0.01309 0.29123 0.0
H654 H 0.09355 0.01603 0.27091 0.0
H655 H 0.07898 0.00103 0.2952 0.0
C656 C 0.40816 0.50882 0.85058 0.0
C657 C 0.36161 0.51185 0.85446 0.0
C658 C 0.4237 0.4896 0.83727 0.0
C659 C 0.39191 0.47284 0.8278 0.0
C660 C 0.34491 0.47563 0.83184 0.0
C661 C 0.33031 0.49517 0.84505 0.0
C662 C 0.47408 0.48733 0.8332 0.0
C663 C 0.31007 0.45791 0.82226 0.0
C664 C 0.42907 0.43675 0.7796 0.0
C665 C 0.44212 0.41338 0.78808 0.0
C666 C 0.41234 0.45628 0.79233 0.0
C667 C 0.40799 0.45212 0.81395 0.0
C668 C 0.41993 0.42828 0.82247 0.0
C669 C 0.43711 0.40926 0.80945 0.0
C670 C 0.4004 0.48156 0.78273 0.0
C671 C 0.41519 0.42296 0.84539 0.0
H672 H 0.43239 0.52188 0.85762 0.0
H673 H 0.29431 0.49733 0.84816 0.0
H674 H 0.48612 0.46831 0.83813 0.0
H675 H 0.48091 0.48904 0.81633 0.0
H676 H 0.49426 0.50212 0.84151 0.0
H677 H 0.27482 0.4626 0.82703 0.0
H678 H 0.31224 0.45885 0.8051 0.0
H679 H 0.31721 0.43798 0.82683 0.0
H680 H 0.43321 0.44007 0.76311 0.0
H681 H 0.44685 0.39114 0.81607 0.0
H682 H 0.42231 0.49679 0.78941 0.0
H683 H 0.36466 0.48644 0.78638 0.0
H684 H 0.40475 0.48154 0.76561 0.0
H685 H 0.43767 0.43603 0.85431 0.0
H686 H 0.4241 0.40305 0.84939 0.0
H687 H 0.37978 0.42655 0.85048 0.0
C688 C 0.68448 0.49863 0.6681 0.0
C689 C 0.65558 0.51288 0.65536 0.0
C690 C 0.66736 0.47879 0.68051 0.0
C691 C 0.62017 0.47326 0.68031 0.0
C692 C 0.59087 0.4875 0.66741 0.0
C693 C 0.60895 0.50709 0.65505 0.0
C694 C 0.69968 0.46399 0.69402 0.0
C695 C 0.5403 0.48227 0.66689 0.0
C696 C 0.57726 0.40863 0.69848 0.0
C697 C 0.56232 0.4142 0.71859 0.0
C698 C 0.59679 0.42761 0.68594 0.0
C699 C 0.60119 0.45274 0.6937 0.0
C700 C 0.5863 0.4584 0.71406 0.0
C701 C 0.56682 0.43906 0.72622 0.0
C702 C 0.61265 0.42079 0.66438 0.0
C703 C 0.59061 0.4849 0.72296 0.0
H704 H 0.7206 0.50289 0.66825 0.0
H705 H 0.58637 0.51827 0.64546 0.0
H706 H 0.69238 0.46804 0.71056 0.0
H707 H 0.69482 0.44322 0.69164 0.0
H708 H 0.73582 0.46896 0.69089 0.0
H709 H 0.52224 0.4949 0.65586 0.0
H710 H 0.53374 0.46219 0.66236 0.0
H711 H 0.52565 0.48499 0.68259 0.0
H712 H 0.57405 0.38936 0.69259 0.0
H713 H 0.55464 0.44348 0.74166 0.0
H714 H 0.64925 0.42563 0.66262 0.0
H715 H 0.59377 0.43209 0.65273 0.0
H716 H 0.60772 0.40025 0.66085 0.0
H717 H 0.62687 0.49085 0.72324 0.0
H718 H 0.57686 0.48617 0.73897 0.0
H719 H 0.57225 0.49862 0.71299 0.0
C720 C 0.88291 0.0105 0.14608 0.0
C721 C 0.84735 0.99474 0.15309 0.0
C722 C 0.90052 0.0301 0.15861 0.0
C723 C 0.88268 0.03379 0.17877 0.0
C724 C 0.84616 0.01838 0.18579 0.0
C725 C 0.8286 0.99926 0.17279 0.0
C726 C 0.93916 0.04638 0.15049 0.0
C727 C 0.82624 0.02172 0.2072 0.0
C728 C 0.96266 0.06396 0.21805 0.0
C729 C 0.9468 0.089 0.21878 0.0
C730 C 0.94148 0.04571 0.20537 0.0
C731 C 0.90401 0.05281 0.1929 0.0
C732 C 0.8877 0.07807 0.1937 0.0
C733 C 0.90928 0.09588 0.20669 0.0
C734 C 0.95919 0.0188 0.20532 0.0
C735 C 0.84796 0.08641 0.18061 0.0
H736 H 0.89803 0.00705 0.13102 0.0
H737 H 0.80038 0.98764 0.17818 0.0
H738 H 0.93081 0.06685 0.15212 0.0
H739 H 0.97026 0.04291 0.15978 0.0
H740 H 0.94685 0.04237 0.13394 0.0
H741 H 0.79968 0.00721 0.21076 0.0
H742 H 0.85339 0.02051 0.21911 0.0
H743 H 0.81089 0.04085 0.20854 0.0
H744 H 0.99135 0.05857 0.2276 0.0
H745 H 0.89725 0.11532 0.20714 0.0
H746 H 0.97115 0.01369 0.18956 0.0
H747 H 0.93142 0.00529 0.20944 0.0
H748 H 0.9877 0.01621 0.21641 0.0
H749 H 0.8558 0.08347 0.16395 0.0
H750 H 0.83946 0.10675 0.1831 0.0
H751 H 0.81752 0.07466 0.18427 0.0
C752 C 0.91567 0.01137 0.6585 0.0
C753 C 0.86921 0.01275 0.65383 0.0
C754 C 0.93232 0.99245 0.67178 0.0
C755 C 0.90182 0.97431 0.68036 0.0
C756 C 0.85495 0.97541 0.67547 0.0
C757 C 0.83916 0.99473 0.66236 0.0
C758 C 0.98247 0.99204 0.67681 0.0
C759 C 0.82152 0.95615 0.68405 0.0
C760 C 0.95305 0.91226 0.69876 0.0
C761 C 0.95493 0.91596 0.72029 0.0
C762 C 0.93499 0.93088 0.68565 0.0
C763 C 0.91914 0.95397 0.69423 0.0
C764 C 0.92065 0.95776 0.71599 0.0
C765 C 0.93816 0.93857 0.7288 0.0
C766 C 0.93318 0.92592 0.66258 0.0
C767 C 0.90461 0.98227 0.72567 0.0
H768 H 0.93887 0.02549 0.65214 0.0
H769 H 0.80326 0.99568 0.65865 0.0
H770 H 0.98747 0.99363 0.69383 0.0
H771 H 0.9973 0.97366 0.67187 0.0
H772 H 0.00153 0.00775 0.66912 0.0
H773 H 0.78627 0.9595 0.67856 0.0
H774 H 0.83171 0.93666 0.67944 0.0
H775 H 0.82175 0.95684 0.70125 0.0
H776 H 0.96551 0.89468 0.69213 0.0
H777 H 0.9398 0.94155 0.74542 0.0
H778 H 0.95461 0.9401 0.6543 0.0
H779 H 0.89786 0.9281 0.65684 0.0
H780 H 0.94517 0.90655 0.65849 0.0
H781 H 0.92491 0.9985 0.71954 0.0
H782 H 0.90761 0.98211 0.74285 0.0
H783 H 0.8686 0.9857 0.72148 0.0
C784 C 0.59777 0.4857 0.16204 0.0
C785 C 0.64129 0.48629 0.15327 0.0
C786 C 0.58225 0.50602 0.17419 0.0
C787 C 0.61153 0.52703 0.17808 0.0
C788 C 0.6556 0.52767 0.1692 0.0
C789 C 0.66978 0.50736 0.15665 0.0
C790 C 0.53467 0.50491 0.183 0.0
C791 C 0.6881 0.54947 0.1734 0.0
C792 C 0.55822 0.58869 0.19632 0.0
C793 C 0.56193 0.58651 0.21795 0.0
C794 C 0.57444 0.56956 0.18314 0.0
C795 C 0.59614 0.54807 0.19175 0.0
C796 C 0.60145 0.54618 0.21351 0.0
C797 C 0.58362 0.56521 0.22636 0.0
C798 C 0.56721 0.57199 0.16004 0.0
C799 C 0.62527 0.52382 0.22327 0.0
H800 H 0.57588 0.46932 0.15932 0.0
H801 H 0.70361 0.50755 0.14996 0.0
H802 H 0.53614 0.50451 0.20018 0.0
H803 H 0.51565 0.52222 0.17851 0.0
H804 H 0.5154 0.48788 0.17758 0.0
H805 H 0.72115 0.54708 0.16532 0.0
H806 H 0.67286 0.56769 0.16835 0.0
H807 H 0.69455 0.55103 0.19032 0.0
H808 H 0.54165 0.60513 0.18967 0.0
H809 H 0.58614 0.56316 0.24305 0.0
H810 H 0.5459 0.55587 0.1544 0.0
H811 H 0.60023 0.57099 0.15178 0.0
H812 H 0.55032 0.59009 0.15579 0.0
H813 H 0.6052 0.50616 0.22056 0.0
H814 H 0.63001 0.52629 0.24025 0.0
H815 H 0.65908 0.52112 0.21599 0.0
C816 C 0.3502 0.49466 0.33614 0.0
C817 C 0.36772 0.49041 0.35609 0.0
C818 C 0.3669 0.51447 0.32365 0.0
C819 C 0.40118 0.53094 0.33144 0.0
C820 C 0.41786 0.5274 0.35184 0.0
C821 C 0.40127 0.50704 0.36383 0.0
C822 C 0.34793 0.51764 0.30206 0.0
C823 C 0.45441 0.54451 0.3608 0.0
C824 C 0.4776 0.56464 0.29257 0.0
C825 C 0.45839 0.58893 0.29184 0.0
C826 C 0.45938 0.54565 0.30546 0.0
C827 C 0.42098 0.55109 0.31789 0.0
C828 C 0.40136 0.5756 0.31716 0.0
C829 C 0.42038 0.59426 0.30415 0.0
C830 C 0.48092 0.51966 0.30559 0.0
C831 C 0.36052 0.58217 0.33023 0.0
H832 H 0.32343 0.48237 0.33019 0.0
H833 H 0.41551 0.50379 0.3791 0.0
H834 H 0.32805 0.53545 0.30137 0.0
H835 H 0.37584 0.51927 0.29054 0.0
H836 H 0.32531 0.50156 0.29748 0.0
H837 H 0.45662 0.54275 0.37794 0.0
H838 H 0.48775 0.53913 0.35416 0.0
H839 H 0.44832 0.56474 0.35681 0.0
H840 H 0.50668 0.56038 0.28287 0.0
H841 H 0.40574 0.61312 0.30374 0.0
H842 H 0.45552 0.50505 0.30082 0.0
H843 H 0.49219 0.51483 0.32151 0.0
H844 H 0.51068 0.51855 0.29502 0.0
H845 H 0.33142 0.56963 0.32603 0.0
H846 H 0.35003 0.60229 0.32821 0.0
H847 H 0.3682 0.57884 0.34686 0.0
C848 C 0.09986 0.0091 0.85599 0.0
C849 C 0.14636 0.01518 0.85675 0.0
C850 C 0.08368 0.98888 0.84371 0.0
C851 C 0.11479 0.97427 0.83201 0.0
C852 C 0.16186 0.98001 0.83299 0.0
C853 C 0.17706 0.00046 0.84528 0.0
C854 C 0.03319 0.98346 0.84293 0.0
C855 C 0.19608 0.96479 0.82081 0.0
C856 C 0.07563 0.90893 0.8135 0.0
C857 C 0.06426 0.91388 0.79281 0.0
C858 C 0.09262 0.92834 0.8264 0.0
C859 C 0.09792 0.95331 0.81842 0.0
C860 C 0.08646 0.95835 0.7975 0.0
C861 C 0.06965 0.93857 0.78497 0.0
C862 C 0.10494 0.92216 0.84855 0.0
C863 C 0.09153 0.98468 0.78838 0.0
H864 H 0.07593 0.02059 0.86462 0.0
H865 H 0.21309 0.0049 0.84598 0.0
H866 H 0.02063 0.98572 0.82682 0.0
H867 H 0.02622 0.96348 0.8476 0.0
H868 H 0.01359 0.99631 0.85323 0.0
H869 H 0.23167 0.9705 0.8244 0.0
H870 H 0.19185 0.94417 0.82409 0.0
H871 H 0.19017 0.96749 0.80397 0.0
H872 H 0.07166 0.88979 0.81956 0.0
H873 H 0.05999 0.94254 0.7691 0.0
H874 H 0.08414 0.93371 0.85933 0.0
H875 H 0.14112 0.92714 0.85147 0.0
H876 H 0.09957 0.9017 0.85225 0.0
H877 H 0.07059 0.99835 0.79729 0.0
H878 H 0.08111 0.98539 0.77183 0.0
H879 H 0.12743 0.99116 0.78956 0.0
C880 C 0.20952 0.13384 0.03681 0.0
C881 C 0.17252 0.13292 0.0231 0.0
C882 C 0.20314 0.13158 0.05832 0.0
C883 C 0.15861 0.12849 0.0664 0.0
C884 C 0.12095 0.12867 0.05271 0.0
C885 C 0.12836 0.13073 0.03122 0.0
C886 C 0.24429 0.13129 0.07233 0.0
C887 C 0.07294 0.12577 0.0607 0.0
C888 C 0.1536 0.09181 0.11701 0.0
C889 C 0.15232 0.11141 0.13178 0.0
C890 C 0.15371 0.09711 0.0957 0.0
C891 C 0.15222 0.1227 0.08888 0.0
C892 C 0.14816 0.14254 0.10368 0.0
C893 C 0.14828 0.13666 0.12499 0.0
C894 C 0.15771 0.07532 0.08051 0.0
C895 C 0.14593 0.17003 0.09703 0.0
H896 H 0.24374 0.13527 0.03066 0.0
H897 H 0.09957 0.13034 0.02073 0.0
H898 H 0.24039 0.14538 0.08501 0.0
H899 H 0.24743 0.11226 0.07962 0.0
H900 H 0.27627 0.13561 0.06381 0.0
H901 H 0.04725 0.12906 0.04837 0.0
H902 H 0.06788 0.10627 0.06692 0.0
H903 H 0.0668 0.13928 0.07361 0.0
H904 H 0.15586 0.07222 0.12217 0.0
H905 H 0.14737 0.1519 0.13633 0.0
H906 H 0.19075 0.0767 0.07225 0.0
H907 H 0.13046 0.07638 0.06866 0.0
H908 H 0.15558 0.05647 0.08825 0.0
H909 H 0.17937 0.17606 0.09066 0.0
H910 H 0.1372 0.18285 0.11013 0.0
H911 H 0.12038 0.17242 0.08454 0.0
C912 C 0.35008 0.39032 0.53463 0.0
C913 C 0.3129 0.37842 0.52484 0.0
C914 C 0.35356 0.39116 0.55635 0.0
C915 C 0.3192 0.37968 0.56864 0.0
C916 C 0.28216 0.3671 0.55889 0.0
C917 C 0.27937 0.3667 0.53714 0.0
C918 C 0.39366 0.40471 0.56613 0.0
C919 C 0.24496 0.35451 0.57146 0.0
C920 C 0.34561 0.36499 0.62517 0.0
C921 C 0.32485 0.3854 0.63543 0.0
C922 C 0.34392 0.3628 0.60345 0.0
C923 C 0.32119 0.38157 0.5917 0.0
C924 C 0.30031 0.40226 0.60198 0.0
C925 C 0.30223 0.40386 0.6237 0.0
C926 C 0.36629 0.34036 0.5931 0.0
C927 C 0.27619 0.42282 0.58999 0.0
H928 H 0.37658 0.39903 0.52528 0.0
H929 H 0.25026 0.35772 0.52977 0.0
H930 H 0.38156 0.42089 0.57568 0.0
H931 H 0.41195 0.3916 0.57665 0.0
H932 H 0.41804 0.41213 0.5544 0.0
H933 H 0.21968 0.34443 0.56154 0.0
H934 H 0.2598 0.34064 0.58246 0.0
H935 H 0.22697 0.36904 0.5808 0.0
H936 H 0.36275 0.35052 0.63417 0.0
H937 H 0.28665 0.41985 0.63153 0.0
H938 H 0.39254 0.34711 0.58199 0.0
H939 H 0.3407 0.32935 0.58408 0.0
H940 H 0.38257 0.3274 0.60445 0.0
H941 H 0.30016 0.43205 0.57898 0.0
H942 H 0.26182 0.43768 0.6003 0.0
H943 H 0.24816 0.41434 0.58069 0.0
C944 C 0.6317 0.37054 0.98069 0.0
C945 C 0.67015 0.35945 0.98977 0.0
C946 C 0.6206 0.36602 0.9598 0.0
C947 C 0.64833 0.34982 0.94774 0.0
C948 C 0.68742 0.3388 0.95672 0.0
C949 C 0.69799 0.34387 0.97755 0.0
C950 C 0.5789 0.37833 0.9507 0.0
C951 C 0.71786 0.32139 0.94439 0.0
C952 C 0.59885 0.31663 0.90031 0.0
C953 C 0.61771 0.33096 0.88403 0.0
C954 C 0.60798 0.32279 0.92111 0.0
C955 C 0.63625 0.34397 0.92579 0.0
C956 C 0.65445 0.35892 0.90949 0.0
C957 C 0.64523 0.35214 0.88883 0.0
C958 C 0.58806 0.30633 0.93807 0.0
C959 C 0.68444 0.38178 0.91385 0.0
H960 H 0.60967 0.38237 0.99002 0.0
H961 H 0.72826 0.33562 0.98426 0.0
H962 H 0.58823 0.38934 0.93663 0.0
H963 H 0.55409 0.36345 0.94586 0.0
H964 H 0.56201 0.3913 0.96187 0.0
H965 H 0.74705 0.3144 0.95365 0.0
H966 H 0.698 0.30473 0.93873 0.0
H967 H 0.73125 0.33152 0.93056 0.0
H968 H 0.57692 0.30052 0.8968 0.0
H969 H 0.66055 0.36315 0.87642 0.0
H970 H 0.56787 0.31811 0.94891 0.0
H971 H 0.61585 0.29758 0.94718 0.0
H972 H 0.56586 0.29089 0.93186 0.0
H973 H 0.66711 0.39497 0.92466 0.0
H974 H 0.6935 0.39236 0.8995 0.0
H975 H 0.71627 0.37558 0.9215 0.0
C976 C 0.80174 0.14249 0.4743 0.0
C977 C 0.8379 0.13544 0.48721 0.0
C978 C 0.8082 0.1463 0.45296 0.0
C979 C 0.85199 0.14311 0.44422 0.0
C980 C 0.88843 0.13534 0.45705 0.0
C981 C 0.88093 0.13154 0.47838 0.0
C982 C 0.76829 0.15435 0.43983 0.0
C983 C 0.93563 0.13184 0.44836 0.0
C984 C 0.85491 0.1384 0.38525 0.0
C985 C 0.86194 0.16393 0.37974 0.0
C986 C 0.85349 0.13103 0.40624 0.0
C987 C 0.85979 0.14961 0.42197 0.0
C988 C 0.86962 0.17512 0.41635 0.0
C989 C 0.87027 0.18199 0.39533 0.0
C990 C 0.84277 0.10366 0.41156 0.0
C991 C 0.87728 0.19547 0.43257 0.0
H992 H 0.76822 0.14508 0.48093 0.0
H993 H 0.9091 0.12623 0.48828 0.0
H994 H 0.77462 0.1737 0.43352 0.0
H995 H 0.76415 0.14127 0.42643 0.0
H996 H 0.73596 0.15459 0.44874 0.0
H997 H 0.95943 0.12386 0.46 0.0
H998 H 0.93457 0.119 0.4347 0.0
H999 H 0.94929 0.15046 0.44301 0.0
H1000 H 0.84823 0.12446 0.37321 0.0
H1001 H 0.87616 0.2017 0.39106 0.0
H1002 H 0.8083 0.1024 0.4185 0.0
H1003 H 0.86713 0.09644 0.42325 0.0
H1004 H 0.84377 0.09109 0.39771 0.0
H1005 H 0.84516 0.19883 0.44114 0.0
H1006 H 0.88883 0.21379 0.42567 0.0
H1007 H 0.90299 0.18919 0.44402 0.0
C1008 C 0.78939 0.89835 0.97088 0.0
C1009 C 0.81403 0.88199 0.98374 0.0
C1010 C 0.79752 0.89928 0.94946 0.0
C1011 C 0.83164 0.88373 0.94069 0.0
C1012 C 0.85602 0.86675 0.95354 0.0
C1013 C 0.84666 0.86594 0.97493 0.0
C1014 C 0.77024 0.91737 0.93629 0.0
C1015 C 0.89305 0.85014 0.94482 0.0
C1016 C 0.82705 0.87715 0.88194 0.0
C1017 C 0.8557 0.89717 0.87581 0.0
C1018 C 0.82025 0.87175 0.90309 0.0
C1019 C 0.84321 0.88653 0.91829 0.0
C1020 C 0.8742 0.90582 0.912 0.0
C1021 C 0.87965 0.9111 0.89082 0.0
C1022 C 0.78661 0.85122 0.90915 0.0
C1023 C 0.90002 0.92171 0.92766 0.0
H1024 H 0.76376 0.91054 0.97764 0.0
H1025 H 0.86593 0.85338 0.98489 0.0
H1026 H 0.79303 0.93223 0.9297 0.0
H1027 H 0.75449 0.907 0.92308 0.0
H1028 H 0.74297 0.9269 0.94526 0.0
H1029 H 0.90674 0.83678 0.95658 0.0
H1030 H 0.88005 0.83897 0.93144 0.0
H1031 H 0.92137 0.86228 0.93903 0.0
H1032 H 0.8084 0.86653 0.87024 0.0
H1033 H 0.90188 0.92655 0.88594 0.0
H1034 H 0.75643 0.86007 0.91644 0.0
H1035 H 0.80174 0.83825 0.92077 0.0
H1036 H 0.77509 0.8398 0.89559 0.0
H1037 H 0.87601 0.93411 0.93617 0.0
H1038 H 0.92635 0.93396 0.92024 0.0
H1039 H 0.91672 0.90929 0.93924 0.0
C1040 C 0.7092 0.63423 0.47339 0.0
C1041 C 0.67679 0.62737 0.4884 0.0
C1042 C 0.69904 0.63274 0.45209 0.0
C1043 C 0.65545 0.62416 0.44565 0.0
C1044 C 0.6221 0.61817 0.46075 0.0
C1045 C 0.63313 0.6199 0.48189 0.0
C1046 C 0.73548 0.63939 0.43648 0.0
C1047 C 0.57516 0.60905 0.45459 0.0
C1048 C 0.61328 0.63364 0.39031 0.0
C1049 C 0.62014 0.60942 0.38169 0.0
C1050 C 0.6257 0.63899 0.41095 0.0
C1051 C 0.64547 0.61967 0.42325 0.0
C1052 C 0.65359 0.59543 0.41444 0.0
C1053 C 0.64089 0.59063 0.39381 0.0
C1054 C 0.61653 0.66507 0.41976 0.0
C1055 C 0.67476 0.57432 0.42696 0.0
H1056 H 0.7431 0.63987 0.47826 0.0
H1057 H 0.6076 0.61504 0.49338 0.0
H1058 H 0.74574 0.62198 0.42799 0.0
H1059 H 0.7222 0.65299 0.42485 0.0
H1060 H 0.76613 0.64789 0.44391 0.0
H1061 H 0.55231 0.6066 0.46818 0.0
H1062 H 0.55943 0.62274 0.4437 0.0
H1063 H 0.57764 0.59053 0.4464 0.0
H1064 H 0.59699 0.64821 0.3811 0.0
H1065 H 0.64709 0.57202 0.38716 0.0
H1066 H 0.64793 0.67315 0.42678 0.0
H1067 H 0.59075 0.66359 0.43227 0.0
H1068 H 0.60393 0.6785 0.4078 0.0
H1069 H 0.70774 0.58079 0.43354 0.0
H1070 H 0.68059 0.55691 0.41756 0.0
H1071 H 0.65226 0.56928 0.44017 0.0
C1072 C 0.38049 0.62902 0.03138 0.0
C1073 C 0.33688 0.63161 0.02282 0.0
C1074 C 0.38797 0.63238 0.05278 0.0
C1075 C 0.35091 0.63828 0.06592 0.0
C1076 C 0.30662 0.64008 0.05743 0.0
C1077 C 0.3002 0.63681 0.03602 0.0
C1078 C 0.4357 0.63047 0.0612 0.0
C1079 C 0.26605 0.64607 0.07089 0.0
C1080 C 0.3549 0.63172 0.12473 0.0
C1081 C 0.35833 0.65727 0.13083 0.0
C1082 C 0.35455 0.625 0.10358 0.0
C1083 C 0.35832 0.6443 0.0883 0.0
C1084 C 0.36473 0.66995 0.09452 0.0
C1085 C 0.36429 0.67612 0.11569 0.0
C1086 C 0.34743 0.59747 0.09762 0.0
C1087 C 0.36966 0.69108 0.0788 0.0
H1088 H 0.40901 0.62513 0.02125 0.0
H1089 H 0.26631 0.63838 0.02956 0.0
H1090 H 0.44713 0.6494 0.06692 0.0
H1091 H 0.43656 0.61721 0.07457 0.0
H1092 H 0.46019 0.62382 0.04929 0.0
H1093 H 0.23356 0.64529 0.06211 0.0
H1094 H 0.26389 0.63244 0.084 0.0
H1095 H 0.27003 0.66541 0.07762 0.0
H1096 H 0.35004 0.61716 0.13645 0.0
H1097 H 0.36728 0.69587 0.12044 0.0
H1098 H 0.3724 0.59171 0.08564 0.0
H1099 H 0.31302 0.59501 0.0908 0.0
H1100 H 0.35045 0.58452 0.11115 0.0
H1101 H 0.39581 0.68617 0.06709 0.0
H1102 H 0.37919 0.70952 0.08612 0.0
H1103 H 0.33701 0.69355 0.07044 0.0
C1104 C 0.14966 0.87697 0.53303 0.0
C1105 C 0.1656 0.85728 0.52026 0.0
C1106 C 0.13748 0.87241 0.55378 0.0
C1107 C 0.14203 0.84764 0.56212 0.0
C1108 C 0.1584 0.82773 0.54942 0.0
C1109 C 0.16955 0.83272 0.52864 0.0
C1110 C 0.11973 0.89409 0.56677 0.0
C1111 C 0.16413 0.8011 0.55779 0.0
C1112 C 0.15074 0.83975 0.62062 0.0
C1113 C 0.10713 0.83072 0.62564 0.0
C1114 C 0.16251 0.84546 0.60002 0.0
C1115 C 0.12963 0.84245 0.58413 0.0
C1116 C 0.08524 0.83383 0.58921 0.0
C1117 C 0.07465 0.82784 0.60988 0.0
C1118 C 0.21039 0.85422 0.59521 0.0
C1119 C 0.049 0.83083 0.57278 0.0
H1120 H 0.14711 0.8961 0.52688 0.0
H1121 H 0.18096 0.81723 0.51889 0.0
H1122 H 0.08559 0.88914 0.57298 0.0
H1123 H 0.14243 0.89739 0.58027 0.0
H1124 H 0.11718 0.91209 0.55783 0.0
H1125 H 0.17854 0.78791 0.54607 0.0
H1126 H 0.18691 0.80147 0.57151 0.0
H1127 H 0.1308 0.79341 0.56298 0.0
H1128 H 0.17598 0.8418 0.63278 0.0
H1129 H 0.04076 0.82113 0.61379 0.0
H1130 H 0.20981 0.87296 0.58731 0.0
H1131 H 0.22667 0.84056 0.58444 0.0
H1132 H 0.23173 0.85591 0.60937 0.0
H1133 H 0.04454 0.84906 0.56436 0.0
H1134 H 0.01568 0.8249 0.5794 0.0
H1135 H 0.0596 0.8164 0.56122 0.0
C1136 C 0.1933 0.27818 0.33571 0.0
C1137 C 0.18077 0.28199 0.35649 0.0
C1138 C 0.17121 0.25992 0.32334 0.0
C1139 C 0.13623 0.24467 0.33204 0.0
C1140 C 0.12413 0.2479 0.35313 0.0
C1141 C 0.1464 0.2666 0.36508 0.0
C1142 C 0.18561 0.25689 0.301 0.0
C1143 C 0.08725 0.23183 0.36299 0.0
C1144 C 0.04965 0.21487 0.29537 0.0
C1145 C 0.06637 0.19012 0.29327 0.0
C1146 C 0.07202 0.23279 0.30801 0.0
C1147 C 0.11173 0.22567 0.31894 0.0
C1148 C 0.12839 0.20057 0.31704 0.0
C1149 C 0.10545 0.1831 0.30425 0.0
C1150 C 0.05375 0.25952 0.3093 0.0
C1151 C 0.17063 0.19221 0.32836 0.0
H1152 H 0.22056 0.28953 0.32905 0.0
H1153 H 0.13616 0.26954 0.38105 0.0
H1154 H 0.20402 0.2387 0.29923 0.0
H1155 H 0.15556 0.25614 0.29059 0.0
H1156 H 0.20842 0.2726 0.29581 0.0
H1157 H 0.08304 0.23604 0.37977 0.0
H1158 H 0.05438 0.2352 0.35504 0.0
H1159 H 0.0952 0.21133 0.36116 0.0
H1160 H 0.01961 0.2204 0.28679 0.0
H1161 H 0.11805 0.16384 0.3029 0.0
H1162 H 0.07973 0.27323 0.30353 0.0
H1163 H 0.04653 0.26454 0.32569 0.0
H1164 H 0.02214 0.26191 0.30009 0.0
H1165 H 0.20049 0.20312 0.32259 0.0
H1166 H 0.1774 0.17159 0.32626 0.0
H1167 H 0.16739 0.19626 0.34519 0.0
C1168 C 0.34256 0.24492 0.86219 0.0
C1169 C 0.35278 0.21901 0.85997 0.0
C1170 C 0.36376 0.26343 0.84966 0.0
C1171 C 0.3958 0.25584 0.83451 0.0
C1172 C 0.4076 0.22987 0.83279 0.0
C1173 C 0.38605 0.2118 0.84554 0.0
C1174 C 0.35101 0.29102 0.85224 0.0
C1175 C 0.44205 0.22106 0.81703 0.0
C1176 C 0.41037 0.29634 0.78615 0.0
C1177 C 0.45186 0.30872 0.78992 0.0
C1178 C 0.39165 0.27929 0.80062 0.0
C1179 C 0.41473 0.27474 0.81952 0.0
C1180 C 0.45622 0.28768 0.82366 0.0
C1181 C 0.47446 0.30432 0.80869 0.0
C1182 C 0.34743 0.26586 0.79552 0.0
C1183 C 0.48195 0.28374 0.84364 0.0
H1184 H 0.3168 0.25068 0.87322 0.0
H1185 H 0.39488 0.19189 0.84403 0.0
H1186 H 0.38206 0.30287 0.85448 0.0
H1187 H 0.33398 0.29787 0.83796 0.0
H1188 H 0.32786 0.29404 0.86561 0.0
H1189 H 0.44863 0.20031 0.81811 0.0
H1190 H 0.42975 0.22537 0.80115 0.0
H1191 H 0.47463 0.23151 0.81923 0.0
H1192 H 0.39298 0.29945 0.77169 0.0
H1193 H 0.50604 0.31428 0.81185 0.0
H1194 H 0.32164 0.27011 0.80757 0.0
H1195 H 0.35253 0.24495 0.79548 0.0
H1196 H 0.3337 0.27156 0.78019 0.0
H1197 H 0.45857 0.28123 0.857 0.0
H1198 H 0.5052 0.3 0.847 0.0
H1199 H 0.50272 0.26628 0.84229 0.0
C1200 C 0.63508 0.21158 0.66282 0.0
C1201 C 0.68008 0.21483 0.65609 0.0
C1202 C 0.61446 0.2296 0.67577 0.0
C1203 C 0.63975 0.25116 0.68243 0.0
C1204 C 0.68539 0.2544 0.67587 0.0
C1205 C 0.70489 0.23629 0.66259 0.0
C1206 C 0.56542 0.22576 0.68208 0.0
C1207 C 0.71362 0.27694 0.6829 0.0
C1208 C 0.57456 0.30993 0.69857 0.0
C1209 C 0.57293 0.30737 0.72024 0.0
C1210 C 0.59605 0.29175 0.68614 0.0
C1211 C 0.61775 0.27083 0.69559 0.0
C1212 C 0.6175 0.26847 0.71748 0.0
C1213 C 0.59458 0.28661 0.72954 0.0
C1214 C 0.59482 0.29474 0.66285 0.0
C1215 C 0.64117 0.2467 0.72814 0.0
H1216 H 0.61581 0.19505 0.65769 0.0
H1217 H 0.73988 0.23864 0.6576 0.0
H1218 H 0.56269 0.225 0.69923 0.0
H1219 H 0.54483 0.24212 0.67677 0.0
H1220 H 0.55051 0.20799 0.67555 0.0
H1221 H 0.74919 0.27607 0.67716 0.0
H1222 H 0.69817 0.29485 0.67728 0.0
H1223 H 0.71417 0.27788 0.7001 0.0
H1224 H 0.55847 0.32606 0.69121 0.0
H1225 H 0.5935 0.28449 0.74626 0.0
H1226 H 0.57818 0.27784 0.65571 0.0
H1227 H 0.62991 0.29588 0.6566 0.0
H1228 H 0.57614 0.31202 0.65794 0.0
H1229 H 0.62496 0.2284 0.72358 0.0
H1230 H 0.64002 0.24839 0.74531 0.0
H1231 H 0.67725 0.24595 0.72316 0.0
C1232 C 0.8875 0.28844 0.16064 0.0
C1233 C 0.84295 0.28349 0.15395 0.0
C1234 C 0.9111 0.27069 0.17271 0.0
C1235 C 0.88925 0.24766 0.17852 0.0
C1236 C 0.84436 0.24247 0.17165 0.0
C1237 C 0.82187 0.26038 0.15927 0.0
C1238 C 0.95919 0.2767 0.17944 0.0
C1239 C 0.81971 0.2183 0.17782 0.0
C1240 C 0.95991 0.19196 0.19722 0.0
C1241 C 0.95654 0.19447 0.21884 0.0
C1242 C 0.93866 0.20931 0.18389 0.0
C1243 C 0.91281 0.2294 0.19237 0.0
C1244 C 0.90931 0.23206 0.21416 0.0
C1245 C 0.93163 0.21476 0.22711 0.0
C1246 C 0.94372 0.20609 0.16073 0.0
C1247 C 0.88155 0.25305 0.2238 0.0
H1248 H 0.90391 0.30623 0.15636 0.0
H1249 H 0.78726 0.25667 0.15424 0.0
H1250 H 0.96075 0.27815 0.19659 0.0
H1251 H 0.9822 0.26108 0.17475 0.0
H1252 H 0.9721 0.29482 0.1727 0.0
H1253 H 0.78515 0.21697 0.17093 0.0
H1254 H 0.83946 0.20145 0.17288 0.0
H1255 H 0.81655 0.2174 0.19496 0.0
H1256 H 0.97901 0.17634 0.19066 0.0
H1257 H 0.92898 0.21696 0.24378 0.0
H1258 H 0.95797 0.22377 0.15381 0.0
H1259 H 0.9099 0.20276 0.15357 0.0
H1260 H 0.96619 0.18995 0.15663 0.0
H1261 H 0.89504 0.27188 0.21889 0.0
H1262 H 0.88168 0.25224 0.24102 0.0
H1263 H 0.84584 0.25171 0.21833 0.0
C1264 C 0.83881 0.72047 0.67432 0.0
C1265 C 0.85016 0.71827 0.65324 0.0
C1266 C 0.8596 0.73885 0.68703 0.0
C1267 C 0.89232 0.75571 0.67846 0.0
C1268 C 0.90337 0.75399 0.65712 0.0
C1269 C 0.88216 0.73527 0.64475 0.0
C1270 C 0.84646 0.74025 0.70965 0.0
C1271 C 0.93815 0.77164 0.64744 0.0
C1272 C 0.91691 0.81663 0.70842 0.0
C1273 C 0.9566 0.81028 0.71921 0.0
C1274 C 0.8959 0.79919 0.69491 0.0
C1275 C 0.9153 0.77487 0.69199 0.0
C1276 C 0.95577 0.7685 0.70265 0.0
C1277 C 0.97587 0.78627 0.71618 0.0
C1278 C 0.8527 0.80673 0.68395 0.0
C1279 C 0.97731 0.7427 0.7001 0.0
H1280 H 0.81342 0.70779 0.68091 0.0
H1281 H 0.89139 0.73358 0.62854 0.0
H1282 H 0.87713 0.73899 0.71961 0.0
H1283 H 0.83039 0.75885 0.71285 0.0
H1284 H 0.82229 0.72487 0.71417 0.0
H1285 H 0.94108 0.76881 0.63042 0.0
H1286 H 0.92909 0.79176 0.6505 0.0
H1287 H 0.97193 0.76837 0.65457 0.0
H1288 H 0.90233 0.83533 0.71046 0.0
H1289 H 0.00634 0.78121 0.72464 0.0
H1290 H 0.82421 0.79433 0.68917 0.0
H1291 H 0.85639 0.80399 0.66697 0.0
H1292 H 0.84348 0.82686 0.687 0.0
H1293 H 0.95379 0.72772 0.70595 0.0
H1294 H 0.01007 0.74124 0.70858 0.0
H1295 H 0.98349 0.7387 0.68344 0.0
C1296 C 0.67294 0.78574 0.17161 0.0
C1297 C 0.66617 0.78632 0.15005 0.0
C1298 C 0.652 0.76712 0.184 0.0
C1299 C 0.62411 0.74834 0.17459 0.0
C1300 C 0.61778 0.74843 0.15282 0.0
C1301 C 0.63874 0.76749 0.14081 0.0
C1302 C 0.65963 0.76761 0.20717 0.0
C1303 C 0.58862 0.7285 0.14226 0.0
C1304 C 0.60422 0.6879 0.2055 0.0
C1305 C 0.56124 0.69227 0.21418 0.0
C1306 C 0.62478 0.70579 0.19234 0.0
C1307 C 0.60168 0.72859 0.18764 0.0
C1308 C 0.55789 0.73292 0.19602 0.0
C1309 C 0.5381 0.71464 0.20916 0.0
C1310 C 0.67152 0.70045 0.18375 0.0
C1311 C 0.53246 0.75715 0.19153 0.0
H1312 H 0.69485 0.79985 0.17886 0.0
H1313 H 0.63294 0.76792 0.12421 0.0
H1314 H 0.62656 0.76883 0.21539 0.0
H1315 H 0.67596 0.74969 0.21219 0.0
H1316 H 0.68143 0.78388 0.21212 0.0
H1317 H 0.58794 0.73088 0.12515 0.0
H1318 H 0.6015 0.70921 0.1459 0.0
H1319 H 0.55326 0.72947 0.1482 0.0
H1320 H 0.62201 0.67045 0.20906 0.0
H1321 H 0.50494 0.71816 0.21588 0.0
H1322 H 0.69618 0.71477 0.18972 0.0
H1323 H 0.67126 0.70208 0.16659 0.0
H1324 H 0.68377 0.6812 0.18803 0.0
H1325 H 0.55205 0.77373 0.19754 0.0
H1326 H 0.49809 0.75722 0.19868 0.0
H1327 H 0.5288 0.75977 0.17454 0.0
C1328 C 0.39188 0.79419 0.34596 0.0
C1329 C 0.35023 0.78832 0.35549 0.0
C1330 C 0.41365 0.77649 0.33312 0.0
C1331 C 0.39305 0.75242 0.32956 0.0
C1332 C 0.3511 0.74633 0.33922 0.0
C1333 C 0.3303 0.76432 0.35216 0.0
C1334 C 0.45861 0.78356 0.32328 0.0
C1335 C 0.3279 0.72095 0.33564 0.0
C1336 C 0.42669 0.71581 0.28115 0.0
C1337 C 0.45646 0.69759 0.28925 0.0
C1338 C 0.40576 0.73373 0.2941 0.0
C1339 C 0.41524 0.73367 0.31563 0.0
C1340 C 0.44578 0.71562 0.32386 0.0
C1341 C 0.46591 0.69777 0.3106 0.0
C1342 C 0.37318 0.75261 0.28476 0.0
C1343 C 0.45699 0.71506 0.34671 0.0
H1344 H 0.40756 0.81265 0.34867 0.0
H1345 H 0.29784 0.75983 0.3593 0.0
H1346 H 0.4849 0.76955 0.32772 0.0
H1347 H 0.45552 0.78296 0.30614 0.0
H1348 H 0.47051 0.80286 0.32793 0.0
H1349 H 0.29543 0.71915 0.34435 0.0
H1350 H 0.32072 0.71836 0.31887 0.0
H1351 H 0.35066 0.70527 0.34042 0.0
H1352 H 0.41935 0.71596 0.26468 0.0
H1353 H 0.48887 0.68382 0.31705 0.0
H1354 H 0.38522 0.77231 0.28786 0.0
H1355 H 0.33922 0.75051 0.29209 0.0
H1356 H 0.36936 0.7501 0.26774 0.0
H1357 H 0.4708 0.73381 0.35168 0.0
H1358 H 0.48219 0.70015 0.35058 0.0
H1359 H 0.42563 0.71146 0.35584 0.0
C1360 C 0.20085 0.73509 0.84823 0.0
C1361 C 0.17479 0.71505 0.85643 0.0
C1362 C 0.18122 0.7532 0.83503 0.0
C1363 C 0.13425 0.75146 0.83031 0.0
C1364 C 0.10767 0.73144 0.83883 0.0
C1365 C 0.1284 0.71331 0.85162 0.0
C1366 C 0.2108 0.774 0.82592 0.0
C1367 C 0.05731 0.72927 0.83451 0.0
C1368 C 0.0749 0.8115 0.81257 0.0
C1369 C 0.07045 0.80726 0.79118 0.0
C1370 C 0.09533 0.79344 0.82548 0.0
C1371 C 0.1127 0.7708 0.81673 0.0
C1372 C 0.10895 0.76656 0.79509 0.0
C1373 C 0.08732 0.7847 0.78261 0.0
C1374 C 0.09798 0.7985 0.84851 0.0
C1375 C 0.12777 0.74285 0.78514 0.0
H1376 H 0.23685 0.73623 0.85176 0.0
H1377 H 0.10825 0.69784 0.85805 0.0
H1378 H 0.20941 0.77316 0.80873 0.0
H1379 H 0.19791 0.79293 0.83063 0.0
H1380 H 0.24685 0.77247 0.83089 0.0
H1381 H 0.04133 0.71284 0.84263 0.0
H1382 H 0.03997 0.74695 0.83946 0.0
H1383 H 0.05138 0.72709 0.8176 0.0
H1384 H 0.06223 0.82898 0.81929 0.0
H1385 H 0.08362 0.78122 0.76612 0.0
H1386 H 0.134 0.7988 0.85361 0.0
H1387 H 0.08057 0.78295 0.85711 0.0
H1388 H 0.08218 0.81688 0.85288 0.0
H1389 H 0.16444 0.74106 0.78888 0.0
H1390 H 0.12372 0.7429 0.76801 0.0
H1391 H 0.11025 0.72576 0.79147 0.0
loop_
_geom_bond_atom_site_label_1
_geom_bond_atom_site_label_2
_geom_bond_distance
_geom_bond_site_symmetry_2
_ccdc_geom_bond_type
C0 C1 1.384 . S
C0 H13 0.947 . S
C0 C35 1.382 . S
C1 C0 1.384 . S
C1 C2 1.378 . S
C2 C1 1.378 . S
C2 C3 1.378 . S
C2 H14 0.952 . S
C3 C2 1.378 . S
C3 H15 0.950 . S
C3 C34 1.383 . S
H4 C23 0.947 . S
H5 C24 0.946 . S
H6 C26 0.953 . S
H7 C27 0.945 . S
H8 C29 0.952 . S
H9 C30 0.949 . S
H10 C32 0.950 . S
H11 C33 0.948 . S
H12 C35 0.951 . S
H13 C0 0.947 . S
H14 C2 0.952 . S
H15 C3 0.950 . S
N16 C19 1.382 . S
N16 C21 1.363 . S
N17 C19 1.371 . S
N17 C20 1.372 . S
N18 C20 1.361 . S
N18 C21 1.377 . S
C19 N16 1.382 . S
C19 N17 1.371 . S
C19 C22 1.480 . S
C20 N17 1.372 . S
C20 N18 1.361 . S
C20 C28 1.457 . S
C21 N16 1.363 . S
C21 N18 1.377 . S
C21 C34 1.479 . S
C22 C19 1.480 . S
C22 C23 1.383 . S
C22 C27 1.385 . S
C23 H4 0.947 . S
C23 C22 1.383 . S
C23 C24 1.388 . S
C24 H5 0.946 . S
C24 C23 1.388 . S
C24 C25 1.384 . S
C25 C24 1.384 . S
C25 C26 1.377 . S
C26 H6 0.953 . S
C26 C25 1.377 . S
C26 C27 1.369 . S
C27 H7 0.945 . S
C27 C22 1.385 . S
C27 C26 1.369 . S
C28 C20 1.457 . S
C28 C29 1.372 . S
C28 C33 1.364 . S
C29 H8 0.952 . S
C29 C28 1.372 . S
C29 C30 1.389 . S
C30 H9 0.949 . S
C30 C29 1.389 . S
C30 C31 1.387 . S
C31 C30 1.387 . S
C31 C32 1.372 . S
C32 H10 0.950 . S
C32 C31 1.372 . S
C32 C33 1.379 . S
C33 H11 0.948 . S
C33 C28 1.364 . S
C33 C32 1.379 . S
C34 C3 1.383 . S
C34 C21 1.479 . S
C34 C35 1.398 . S
C35 C0 1.382 . S
C35 H12 0.951 . S
C35 C34 1.398 . S
C36 C37 1.384 . S
C36 H49 0.947 . S
C36 C71 1.382 . S
C37 C36 1.384 . S
C37 C38 1.378 . S
C38 C37 1.378 . S
C38 C39 1.378 . S
C38 H50 0.952 . S
C39 C38 1.378 . S
C39 H51 0.950 . S
C39 C70 1.383 . S
H40 C59 0.947 . S
H41 C60 0.946 . S
H42 C62 0.953 . S
H43 C63 0.945 . S
H44 C65 0.952 . S
H45 C66 0.949 . S
H46 C68 0.950 . S
H47 C69 0.948 . S
H48 C71 0.951 . S
H49 C36 0.947 . S
H50 C38 0.952 . S
H51 C39 0.950 . S
N52 C55 1.382 . S
N52 C57 1.363 . S
N53 C55 1.371 . S
N53 C56 1.372 . S
N54 C56 1.361 . S
N54 C57 1.377 . S
C55 N52 1.382 . S
C55 N53 1.371 . S
C55 C58 1.480 . S
C56 N53 1.372 . S
C56 N54 1.361 . S
C56 C64 1.457 . S
C57 N52 1.363 . S
C57 N54 1.377 . S
C57 C70 1.479 . S
C58 C55 1.480 . S
C58 C59 1.383 . S
C58 C63 1.385 . S
C59 H40 0.947 . S
C59 C58 1.383 . S
C59 C60 1.388 . S
C60 H41 0.946 . S
C60 C59 1.388 . S
C60 C61 1.384 . S
C61 C60 1.384 . S
C61 C62 1.377 . S
C62 H42 0.953 . S
C62 C61 1.377 . S
C62 C63 1.369 . S
C63 H43 0.945 . S
C63 C58 1.385 . S
C63 C62 1.369 . S
C64 C56 1.457 . S
C64 C65 1.372 . S
C64 C69 1.364 . S
C65 H44 0.952 . S
C65 C64 1.372 . S
C65 C66 1.389 . S
C66 H45 0.949 . S
C66 C65 1.389 . S
C66 C67 1.387 . S
C67 C66 1.387 . S
C67 C68 1.372 . S
C68 H46 0.950 . S
C68 C67 1.372 . S
C68 C69 1.379 . S
C69 H47 0.948 . S
C69 C64 1.364 . S
C69 C68 1.379 . S
C70 C39 1.383 . S
C70 C57 1.479 . S
C70 C71 1.398 . S
C71 C36 1.382 . S
C71 H48 0.951 . S
C71 C70 1.398 . S
C72 C73 1.384 . S
C72 H85 0.947 . S
C72 C107 1.382 . S
C73 C72 1.384 . S
C73 C74 1.378 . S
C74 C73 1.378 . S
C74 C75 1.378 . S
C74 H86 0.952 . S
C75 C74 1.378 . S
C75 H87 0.950 . S
C75 C106 1.383 . S
H76 C95 0.947 . S
H77 C96 0.946 . S
H78 C98 0.953 . S
H79 C99 0.945 . S
H80 C101 0.952 . S
H81 C102 0.949 . S
H82 C104 0.950 . S
H83 C105 0.948 . S
H84 C107 0.951 . S
H85 C72 0.947 . S
H86 C74 0.952 . S
H87 C75 0.950 . S
N88 C91 1.382 . S
N88 C93 1.363 . S
N89 C91 1.371 . S
N89 C92 1.372 . S
N90 C92 1.361 . S
N90 C93 1.377 . S
C91 N88 1.382 . S
C91 N89 1.371 . S
C91 C94 1.480 . S
C92 N89 1.372 . S
C92 N90 1.361 . S
C92 C100 1.457 . S
C93 N88 1.363 . S
C93 N90 1.377 . S
C93 C106 1.479 . S
C94 C91 1.480 . S
C94 C95 1.383 . S
C94 C99 1.385 . S
C95 H76 0.947 . S
C95 C94 1.383 . S
C95 C96 1.388 . S
C96 H77 0.946 . S
C96 C95 1.388 . S
C96 C97 1.384 . S
C97 C96 1.384 . S
C97 C98 1.377 . S
C98 H78 0.953 . S
C98 C97 1.377 . S
C98 C99 1.369 . S
C99 H79 0.945 . S
C99 C94 1.385 . S
C99 C98 1.369 . S
C100 C92 1.457 . S
C100 C101 1.372 . S
C100 C105 1.364 . S
C101 H80 0.952 . S
C101 C100 1.372 . S
C101 C102 1.389 . S
C102 H81 0.949 . S
C102 C101 1.389 . S
C102 C103 1.387 . S
C103 C102 1.387 . S
C103 C104 1.372 . S
C104 H82 0.950 . S
C104 C103 1.372 . S
C104 C105 1.379 . S
C105 H83 0.948 . S
C105 C100 1.364 . S
C105 C104 1.379 . S
C106 C75 1.383 . S
C106 C93 1.479 . S
C106 C107 1.398 . S
C107 C72 1.382 . S
C107 H84 0.951 . S
C107 C106 1.398 . S
C108 C109 1.384 . S
C108 H121 0.947 . S
C108 C143 1.382 . S
C109 C108 1.384 . S
C109 C110 1.378 . S
C110 C109 1.378 . S
C110 C111 1.378 . S
C110 H122 0.952 . S
C111 C110 1.378 . S
C111 H123 0.950 . S
C111 C142 1.383 . S
H112 C131 0.947 . S
H113 C132 0.946 . S
H114 C134 0.953 . S
H115 C135 0.945 . S
H116 C137 0.952 . S
H117 C138 0.949 . S
H118 C140 0.950 . S
H119 C141 0.948 . S
H120 C143 0.951 . S
H121 C108 0.947 . S
H122 C110 0.952 . S
H123 C111 0.950 . S
N124 C127 1.382 . S
N124 C129 1.363 . S
N125 C127 1.371 . S
N125 C128 1.372 . S
N126 C128 1.361 . S
N126 C129 1.377 . S
C127 N124 1.382 . S
C127 N125 1.371 . S
C127 C130 1.480 . S
C128 N125 1.372 . S
C128 N126 1.361 . S
C128 C136 1.457 . S
C129 N124 1.363 . S
C129 N126 1.377 . S
C129 C142 1.479 . S
C130 C127 1.480 . S
C130 C131 1.383 . S
C130 C135 1.385 . S
C131 H112 0.947 . S
C131 C130 1.383 . S
C131 C132 1.388 . S
C132 H113 0.946 . S
C132 C131 1.388 . S
C132 C133 1.384 . S
C133 C132 1.384 . S
C133 C134 1.377 . S
C134 H114 0.953 . S
C134 C133 1.377 . S
C134 C135 1.369 . S
C135 H115 0.945 . S
C135 C130 1.385 . S
C135 C134 1.369 . S
C136 C128 1.457 . S
C136 C137 1.372 . S
C136 C141 1.364 . S
C137 H116 0.952 . S
C137 C136 1.372 . S
C137 C138 1.389 . S
C138 H117 0.949 . S
C138 C137 1.389 . S
C138 C139 1.387 . S
C139 C138 1.387 . S
C139 C140 1.372 . S
C140 H118 0.950 . S
C140 C139 1.372 . S
C140 C141 1.379 . S
C141 H119 0.948 . S
C141 C136 1.364 . S
C141 C140 1.379 . S
C142 C111 1.383 . S
C142 C129 1.479 . S
C142 C143 1.398 . S
C143 C108 1.382 . S
C143 H120 0.951 . S
C143 C142 1.398 . S
C144 C145 1.384 . S
C144 H157 0.947 . S
C144 C179 1.382 . S
C145 C144 1.384 . S
C145 C146 1.378 . S
C146 C145 1.378 . S
C146 C147 1.378 . S
C146 H158 0.952 . S
C147 C146 1.378 . S
C147 H159 0.950 . S
C147 C178 1.383 . S
H148 C167 0.947 . S
H149 C168 0.946 . S
H150 C170 0.953 . S
H151 C171 0.945 . S
H152 C173 0.952 . S
H153 C174 0.949 . S
H154 C176 0.950 . S
H155 C177 0.948 . S
H156 C179 0.951 . S
H157 C144 0.947 . S
H158 C146 0.952 . S
H159 C147 0.950 . S
N160 C163 1.382 . S
N160 C165 1.363 . S
N161 C163 1.371 . S
N161 C164 1.372 . S
N162 C164 1.361 . S
N162 C165 1.377 . S
C163 N160 1.382 . S
C163 N161 1.371 . S
C163 C166 1.480 . S
C164 N161 1.372 . S
C164 N162 1.361 . S
C164 C172 1.457 . S
C165 N160 1.363 . S
C165 N162 1.377 . S
C165 C178 1.479 . S
C166 C163 1.480 . S
C166 C167 1.383 . S
C166 C171 1.385 . S
C167 H148 0.947 . S
C167 C166 1.383 . S
C167 C168 1.388 . S
C168 H149 0.946 . S
C168 C167 1.388 . S
C168 C169 1.384 . S
C169 C168 1.384 . S
C169 C170 1.377 . S
C170 H150 0.953 . S
C170 C169 1.377 . S
C170 C171 1.369 . S
C171 H151 0.945 . S
C171 C166 1.385 . S
C171 C170 1.369 . S
C172 C164 1.457 . S
C172 C173 1.372 . S
C172 C177 1.364 . S
C173 H152 0.952 . S
C173 C172 1.372 . S
C173 C174 1.389 . S
C174 H153 0.949 . S
C174 C173 1.389 . S
C174 C175 1.387 . S
C175 C174 1.387 . S
C175 C176 1.372 . S
C176 H154 0.950 . S
C176 C175 1.372 . S
C176 C177 1.379 . S
C177 H155 0.948 . S
C177 C172 1.364 . S
C177 C176 1.379 . S
C178 C147 1.383 . S
C178 C165 1.479 . S
C178 C179 1.398 . S
C179 C144 1.382 . S
C179 H156 0.951 . S
C179 C178 1.398 . S
C180 C181 1.384 . S
C180 H193 0.947 . S
C180 C215 1.382 . S
C181 C180 1.384 . S
C181 C182 1.378 . S
C182 C181 1.378 . S
C182 C183 1.378 . S
C182 H194 0.952 . S
C183 C182 1.378 . S
C183 H195 0.950 . S
C183 C214 1.383 . S
H184 C203 0.947 . S
H185 C204 0.946 . S
H186 C206 0.953 . S
H187 C207 0.945 . S
H188 C209 0.952 . S
H189 C210 0.949 . S
H190 C212 0.950 . S
H191 C213 0.948 . S
H192 C215 0.951 . S
H193 C180 0.947 . S
H194 C182 0.952 . S
H195 C183 0.950 . S
N196 C199 1.382 . S
N196 C201 1.363 . S
N197 C199 1.371 . S
N197 C200 1.372 . S
N198 C200 1.361 . S
N198 C201 1.377 . S
C199 N196 1.382 . S
C199 N197 1.371 . S
C199 C202 1.480 . S
C200 N197 1.372 . S
C200 N198 1.361 . S
C200 C208 1.457 . S
C201 N196 1.363 . S
C201 N198 1.377 . S
C201 C214 1.479 . S
C202 C199 1.480 . S
C202 C203 1.383 . S
C202 C207 1.385 . S
C203 H184 0.947 . S
C203 C202 1.383 . S
C203 C204 1.388 . S
C204 H185 0.946 . S
C204 C203 1.388 . S
C204 C205 1.384 . S
C205 C204 1.384 . S
C205 C206 1.377 . S
C206 H186 0.953 . S
C206 C205 1.377 . S
C206 C207 1.369 . S
C207 H187 0.945 . S
C207 C202 1.385 . S
C207 C206 1.369 . S
C208 C200 1.457 . S
C208 C209 1.372 . S
C208 C213 1.364 . S
C209 H188 0.952 . S
C209 C208 1.372 . S
C209 C210 1.389 . S
C210 H189 0.949 . S
C210 C209 1.389 . S
C210 C211 1.387 . S
C211 C210 1.387 . S
C211 C212 1.372 . S
C212 H190 0.950 . S
C212 C211 1.372 . S
C212 C213 1.379 . S
C213 H191 0.948 . S
C213 C208 1.364 . S
C213 C212 1.379 . S
C214 C183 1.383 . S
C214 C201 1.479 . S
C214 C215 1.398 . S
C215 C180 1.382 . S
C215 H192 0.951 . S
C215 C214 1.398 . S
C216 C217 1.384 . S
C216 H229 0.947 . S
C216 C251 1.382 . S
C217 C216 1.384 . S
C217 C218 1.378 . S
C218 C217 1.378 . S
C218 C219 1.378 . S
C218 H230 0.952 . S
C219 C218 1.378 . S
C219 H231 0.950 . S
C219 C250 1.383 . S
H220 C239 0.947 . S
H221 C240 0.946 . S
H222 C242 0.953 . S
H223 C243 0.945 . S
H224 C245 0.952 . S
H225 C246 0.949 . S
H226 C248 0.950 . S
H227 C249 0.948 . S
H228 C251 0.951 . S
H229 C216 0.947 . S
H230 C218 0.952 . S
H231 C219 0.950 . S
N232 C235 1.382 . S
N232 C237 1.363 . S
N233 C235 1.371 . S
N233 C236 1.372 . S
N234 C236 1.361 . S
N234 C237 1.377 . S
C235 N232 1.382 . S
C235 N233 1.371 . S
C235 C238 1.480 . S
C236 N233 1.372 . S
C236 N234 1.361 . S
C236 C244 1.457 . S
C237 N232 1.363 . S
C237 N234 1.377 . S
C237 C250 1.479 . S
C238 C235 1.480 . S
C238 C239 1.383 . S
C238 C243 1.385 . S
C239 H220 0.947 . S
C239 C238 1.383 . S
C239 C240 1.388 . S
C240 H221 0.946 . S
C240 C239 1.388 . S
C240 C241 1.384 . S
C241 C240 1.384 . S
C241 C242 1.377 . S
C242 H222 0.953 . S
C242 C241 1.377 . S
C242 C243 1.369 . S
C243 H223 0.945 . S
C243 C238 1.385 . S
C243 C242 1.369 . S
C244 C236 1.457 . S
C244 C245 1.372 . S
C244 C249 1.364 . S
C245 H224 0.952 . S
C245 C244 1.372 . S
C245 C246 1.389 . S
C246 H225 0.949 . S
C246 C245 1.389 . S
C246 C247 1.387 . S
C247 C246 1.387 . S
C247 C248 1.372 . S
C248 H226 0.950 . S
C248 C247 1.372 . S
C248 C249 1.379 . S
C249 H227 0.948 . S
C249 C244 1.364 . S
C249 C248 1.379 . S
C250 C219 1.383 . S
C250 C237 1.479 . S
C250 C251 1.398 . S
C251 C216 1.382 . S
C251 H228 0.951 . S
C251 C250 1.398 . S
C252 C253 1.384 . S
C252 H265 0.947 . S
C252 C287 1.382 . S
C253 C252 1.384 . S
C253 C254 1.378 . S
C254 C253 1.378 . S
C254 C255 1.378 . S
C254 H266 0.952 . S
C255 C254 1.378 . S
C255 H267 0.950 . S
C255 C286 1.383 . S
H256 C275 0.947 . S
H257 C276 0.946 . S
H258 C278 0.953 . S
H259 C279 0.945 . S
H260 C281 0.952 . S
H261 C282 0.949 . S
H262 C284 0.950 . S
H263 C285 0.948 . S
H264 C287 0.951 . S
H265 C252 0.947 . S
H266 C254 0.952 . S
H267 C255 0.950 . S
N268 C271 1.382 . S
N268 C273 1.363 . S
N269 C271 1.371 . S
N269 C272 1.372 . S
N270 C272 1.361 . S
N270 C273 1.377 . S
C271 N268 1.382 . S
C271 N269 1.371 . S
C271 C274 1.480 . S
C272 N269 1.372 . S
C272 N270 1.361 . S
C272 C280 1.457 . S
C273 N268 1.363 . S
C273 N270 1.377 . S
C273 C286 1.479 . S
C274 C271 1.480 . S
C274 C275 1.383 . S
C274 C279 1.385 . S
C275 H256 0.947 . S
C275 C274 1.383 . S
C275 C276 1.388 . S
C276 H257 0.946 . S
C276 C275 1.388 . S
C276 C277 1.384 . S
C277 C276 1.384 . S
C277 C278 1.377 . S
C278 H258 0.953 . S
C278 C277 1.377 . S
C278 C279 1.369 . S
C279 H259 0.945 . S
C279 C274 1.385 . S
C279 C278 1.369 . S
C280 C272 1.457 . S
C280 C281 1.372 . S
C280 C285 1.364 . S
C281 H260 0.952 . S
C281 C280 1.372 . S
C281 C282 1.389 . S
C282 H261 0.949 . S
C282 C281 1.389 . S
C282 C283 1.387 . S
C283 C282 1.387 . S
C283 C284 1.372 . S
C284 H262 0.950 . S
C284 C283 1.372 . S
C284 C285 1.379 . S
C285 H263 0.948 . S
C285 C280 1.364 . S
C285 C284 1.379 . S
C286 C255 1.383 . S
C286 C273 1.479 . S
C286 C287 1.398 . S
C287 C252 1.382 . S
C287 H264 0.951 . S
C287 C286 1.398 . S
C288 C290 1.422 . S
C288 C292 1.415 . S
C288 N294 1.369 . S
C289 C290 1.421 . S
C289 C291 1.417 . S
C289 C301 1.422 . S
C290 C288 1.422 . S
C290 C289 1.421 . S
C290 N300 1.359 . S
C291 C289 1.417 . S
C291 C293 1.329 . S
C291 H310 0.930 . S
C292 C288 1.415 . S
C292 C293 1.437 . S
C292 C296 1.413 . S
C293 C291 1.329 . S
C293 C292 1.437 . S
C293 H315 0.929 . S
N294 C288 1.369 . S
N294 C295 1.338 . S
N294 Gd299 2.622 . S
C295 N294 1.338 . S
C295 C297 1.378 . S
C295 H307 0.929 . S
C296 C292 1.413 . S
C296 C297 1.348 . S
C296 H312 0.931 . S
C297 C295 1.378 . S
C297 C296 1.348 . S
C297 H313 0.930 . S
Gd298 N318 2.622 . S
Gd298 N325 2.570 . S
Gd298 O332 2.353 . S
Gd298 O333 2.468 . S
Gd298 O334 2.427 . S
Gd298 O336 2.388 . S
Gd298 O337 2.386 . S
Gd298 O341 2.307 . S
Gd298 C351 2.805 . S
Gd299 N294 2.622 . S
Gd299 N300 2.570 . S
Gd299 O331 2.386 . S
Gd299 O335 2.307 1_655 S
Gd299 O338 2.353 1_655 S
Gd299 O339 2.468 . S
Gd299 O340 2.427 . S
Gd299 O342 2.388 . S
Gd299 C363 2.805 . S
N300 C290 1.359 . S
N300 Gd299 2.570 . S
N300 C302 1.343 . S
C301 C289 1.422 . S
C301 C303 1.321 . S
C301 H309 0.931 . S
C302 N300 1.343 . S
C302 C303 1.390 . S
C302 H304 0.931 . S
C303 C301 1.321 . S
C303 C302 1.390 . S
C303 H305 0.930 . S
H304 C302 0.931 . S
H305 C303 0.930 . S
H306 C329 0.931 . S
H307 C295 0.929 . S
H308 C330 0.930 . S
H309 C301 0.931 . S
H310 C291 0.930 . S
H311 C320 0.929 . S
H312 C296 0.931 . S
H313 C297 0.930 . S
H314 C352 0.930 . S
H315 C293 0.929 . S
H316 C321 0.931 . S
H317 C322 0.930 . S
N318 Gd298 2.622 . S
N318 C319 1.369 . S
N318 C320 1.338 . S
C319 N318 1.369 . S
C319 C323 1.415 . S
C319 C326 1.422 . S
C320 H311 0.929 . S
C320 N318 1.338 . S
C320 C322 1.378 . S
C321 H316 0.931 . S
C321 C322 1.348 . S
C321 C323 1.413 . S
C322 H317 0.930 . S
C322 C320 1.378 . S
C322 C321 1.348 . S
C323 C319 1.415 . S
C323 C321 1.413 . S
C323 C353 1.437 . S
H324 C353 0.929 . S
N325 Gd298 2.570 . S
N325 C326 1.359 . S
N325 C329 1.343 . S
C326 C319 1.422 . S
C326 N325 1.359 . S
C326 C328 1.421 . S
C327 C328 1.422 . S
C327 C330 1.321 . S
C327 H354 0.931 . S
C328 C326 1.421 . S
C328 C327 1.422 . S
C328 C352 1.417 . S
C329 H306 0.931 . S
C329 N325 1.343 . S
C329 C330 1.390 . S
C330 H308 0.930 . S
C330 C327 1.321 . S
C330 C329 1.390 . S
O331 Gd299 2.386 . S
O331 C343 1.265 . S
O332 Gd298 2.353 . S
O332 C343 1.242 1_455 S
O333 Gd298 2.468 . S
O333 C351 1.263 . S
O334 Gd298 2.427 . S
O334 C351 1.252 . S
O335 Gd299 2.307 1_455 S
O335 C344 1.261 . S
O336 Gd298 2.388 . S
O336 C344 1.252 . S
O337 Gd298 2.386 . S
O337 C355 1.265 . S
O338 Gd299 2.353 1_455 S
O338 C355 1.242 . S
O339 Gd299 2.468 . S
O339 C363 1.263 . S
O340 Gd299 2.427 . S
O340 C363 1.252 . S
O341 Gd298 2.307 . S
O341 C356 1.261 1_455 S
O342 Gd299 2.388 . S
O342 C356 1.252 . S
C343 O331 1.265 . S
C343 O332 1.242 1_655 S
C344 O335 1.261 . S
C344 O336 1.252 . S
C345 C348 1.394 . S
C345 C350 1.370 . S
C345 C351 1.500 . S
C346 C349 1.383 . S
C346 C350 1.395 . S
C347 C348 1.396 . S
C347 C349 1.365 . S
C347 H364 0.929 . S
C348 C345 1.394 . S
C348 C347 1.396 . S
C348 H365 0.930 . S
C349 C346 1.383 . S
C349 C347 1.365 . S
C349 H366 0.931 . S
C350 C345 1.370 . S
C350 C346 1.395 . S
C350 H367 0.930 . S
C351 Gd298 2.805 . S
C351 O333 1.263 . S
C351 O334 1.252 . S
C351 C345 1.500 . S
C352 H314 0.930 . S
C352 C328 1.417 . S
C352 C353 1.329 . S
C353 C323 1.437 . S
C353 H324 0.929 . S
C353 C352 1.329 . S
H354 C327 0.931 . S
C355 O337 1.265 . S
C355 O338 1.242 . S
C356 O341 1.261 1_655 S
C356 O342 1.252 . S
C357 C360 1.394 . S
C357 C362 1.370 . S
C357 C363 1.500 . S
C358 C361 1.383 . S
C358 C362 1.395 . S
C359 C360 1.396 . S
C359 C361 1.365 . S
C359 H368 0.929 . S
C360 C357 1.394 . S
C360 C359 1.396 . S
C360 H369 0.930 . S
C361 C358 1.383 . S
C361 C359 1.365 . S
C361 H370 0.931 . S
C362 C357 1.370 . S
C362 C358 1.395 . S
C362 H371 0.930 . S
C363 Gd299 2.805 . S
C363 O339 1.263 . S
C363 O340 1.252 . S
C363 C357 1.500 . S
H364 C347 0.929 . S
H365 C348 0.930 . S
H366 C349 0.931 . S
H367 C350 0.930 . S
H368 C359 0.929 . S
H369 C360 0.930 . S
H370 C361 0.931 . S
H371 C362 0.930 . S
C372 C374 1.422 . S
C372 C376 1.415 . S
C372 N378 1.369 . S
C373 C374 1.421 . S
C373 C375 1.417 . S
C373 C385 1.422 . S
C374 C372 1.422 . S
C374 C373 1.421 . S
C374 N384 1.359 . S
C375 C373 1.417 . S
C375 C377 1.329 . S
C375 H394 0.930 . S
C376 C372 1.415 . S
C376 C377 1.437 . S
C376 C380 1.413 . S
C377 C375 1.329 . S
C377 C376 1.437 . S
C377 H399 0.929 . S
N378 C372 1.369 . S
N378 C379 1.338 . S
N378 Gd383 2.622 . S
C379 N378 1.338 . S
C379 C381 1.378 . S
C379 H391 0.929 . S
C380 C376 1.413 . S
C380 C381 1.348 . S
C380 H396 0.931 . S
C381 C379 1.378 . S
C381 C380 1.348 . S
C381 H397 0.930 . S
Gd382 N402 2.622 . S
Gd382 N409 2.570 . S
Gd382 O416 2.353 . S
Gd382 O417 2.468 . S
Gd382 O418 2.427 . S
Gd382 O420 2.388 . S
Gd382 O421 2.386 . S
Gd382 O425 2.307 . S
Gd382 C435 2.805 . S
Gd383 N378 2.622 . S
Gd383 N384 2.570 . S
Gd383 O415 2.386 . S
Gd383 O419 2.307 . S
Gd383 O422 2.353 . S
Gd383 O423 2.468 . S
Gd383 O424 2.427 . S
Gd383 O426 2.388 . S
Gd383 C447 2.805 . S
N384 C374 1.359 . S
N384 Gd383 2.570 . S
N384 C386 1.343 . S
C385 C373 1.422 . S
C385 C387 1.321 . S
C385 H393 0.931 . S
C386 N384 1.343 . S
C386 C387 1.390 . S
C386 H388 0.931 . S
C387 C385 1.321 . S
C387 C386 1.390 . S
C387 H389 0.930 . S
H388 C386 0.931 . S
H389 C387 0.930 . S
H390 C413 0.931 . S
H391 C379 0.929 . S
H392 C414 0.930 . S
H393 C385 0.931 . S
H394 C375 0.930 . S
H395 C404 0.929 . S
H396 C380 0.931 . S
H397 C381 0.930 . S
H398 C436 0.930 . S
H399 C377 0.929 . S
H400 C405 0.931 . S
H401 C406 0.930 . S
N402 Gd382 2.622 . S
N402 C403 1.369 . S
N402 C404 1.338 . S
C403 N402 1.369 . S
C403 C407 1.415 . S
C403 C410 1.422 . S
C404 H395 0.929 . S
C404 N402 1.338 . S
C404 C406 1.378 . S
C405 H400 0.931 . S
C405 C406 1.348 . S
C405 C407 1.413 . S
C406 H401 0.930 . S
C406 C404 1.378 . S
C406 C405 1.348 . S
C407 C403 1.415 . S
C407 C405 1.413 . S
C407 C437 1.437 . S
H408 C437 0.929 . S
N409 Gd382 2.570 . S
N409 C410 1.359 . S
N409 C413 1.343 . S
C410 C403 1.422 . S
C410 N409 1.359 . S
C410 C412 1.421 . S
C411 C412 1.422 . S
C411 C414 1.321 . S
C411 H438 0.931 . S
C412 C410 1.421 . S
C412 C411 1.422 . S
C412 C436 1.417 . S
C413 H390 0.931 . S
C413 N409 1.343 . S
C413 C414 1.390 . S
C414 H392 0.930 . S
C414 C411 1.321 . S
C414 C413 1.390 . S
O415 Gd383 2.386 . S
O415 C427 1.265 . S
O416 Gd382 2.353 . S
O416 C427 1.242 . S
O417 Gd382 2.468 . S
O417 C435 1.263 . S
O418 Gd382 2.427 . S
O418 C435 1.252 . S
O419 Gd383 2.307 . S
O419 C428 1.261 . S
O420 Gd382 2.388 . S
O420 C428 1.252 . S
O421 Gd382 2.386 . S
O421 C439 1.265 . S
O422 Gd383 2.353 . S
O422 C439 1.242 . S
O423 Gd383 2.468 . S
O423 C447 1.263 . S
O424 Gd383 2.427 . S
O424 C447 1.252 . S
O425 Gd382 2.307 . S
O425 C440 1.261 . S
O426 Gd383 2.388 . S
O426 C440 1.252 . S
C427 O415 1.265 . S
C427 O416 1.242 . S
C428 O419 1.261 . S
C428 O420 1.252 . S
C429 C432 1.394 . S
C429 C434 1.370 . S
C429 C435 1.500 . S
C430 C433 1.383 . S
C430 C434 1.395 . S
C431 C432 1.396 . S
C431 C433 1.365 . S
C431 H448 0.929 . S
C432 C429 1.394 . S
C432 C431 1.396 . S
C432 H449 0.930 . S
C433 C430 1.383 . S
C433 C431 1.365 . S
C433 H450 0.931 . S
C434 C429 1.370 . S
C434 C430 1.395 . S
C434 H451 0.930 . S
C435 Gd382 2.805 . S
C435 O417 1.263 . S
C435 O418 1.252 . S
C435 C429 1.500 . S
C436 H398 0.930 . S
C436 C412 1.417 . S
C436 C437 1.329 . S
C437 C407 1.437 . S
C437 H408 0.929 . S
C437 C436 1.329 . S
H438 C411 0.931 . S
C439 O421 1.265 . S
C439 O422 1.242 . S
C440 O425 1.261 . S
C440 O426 1.252 . S
C441 C444 1.394 . S
C441 C446 1.370 . S
C441 C447 1.500 . S
C442 C445 1.383 . S
C442 C446 1.395 . S
C443 C444 1.396 . S
C443 C445 1.365 . S
C443 H452 0.929 . S
C444 C441 1.394 . S
C444 C443 1.396 . S
C444 H453 0.930 . S
C445 C442 1.383 . S
C445 C443 1.365 . S
C445 H454 0.931 . S
C446 C441 1.370 . S
C446 C442 1.395 . S
C446 H455 0.930 . S
C447 Gd383 2.805 . S
C447 O423 1.263 . S
C447 O424 1.252 . S
C447 C441 1.500 . S
H448 C431 0.929 . S
H449 C432 0.930 . S
H450 C433 0.931 . S
H451 C434 0.930 . S
H452 C443 0.929 . S
H453 C444 0.930 . S
H454 C445 0.931 . S
H455 C446 0.930 . S
C456 C458 1.422 . S
C456 C460 1.415 . S
C456 N462 1.369 . S
C457 C458 1.421 . S
C457 C459 1.417 . S
C457 C469 1.422 . S
C458 C456 1.422 . S
C458 C457 1.421 . S
C458 N468 1.359 . S
C459 C457 1.417 . S
C459 C461 1.329 . S
C459 H478 0.930 . S
C460 C456 1.415 . S
C460 C461 1.437 . S
C460 C464 1.413 . S
C461 C459 1.329 . S
C461 C460 1.437 . S
C461 H483 0.929 . S
N462 C456 1.369 . S
N462 C463 1.338 . S
N462 Gd467 2.622 . S
C463 N462 1.338 . S
C463 C465 1.378 . S
C463 H475 0.929 . S
C464 C460 1.413 . S
C464 C465 1.348 . S
C464 H480 0.931 . S
C465 C463 1.378 . S
C465 C464 1.348 . S
C465 H481 0.930 . S
Gd466 N486 2.622 . S
Gd466 N493 2.570 . S
Gd466 O500 2.353 . S
Gd466 O501 2.468 . S
Gd466 O502 2.427 . S
Gd466 O504 2.388 . S
Gd466 O505 2.386 . S
Gd466 O509 2.307 . S
Gd466 C519 2.805 . S
Gd467 N462 2.622 . S
Gd467 N468 2.570 . S
Gd467 O499 2.386 . S
Gd467 O503 2.307 1_655 S
Gd467 O506 2.353 1_655 S
Gd467 O507 2.468 . S
Gd467 O508 2.427 . S
Gd467 O510 2.388 . S
Gd467 C531 2.805 . S
N468 C458 1.359 . S
N468 Gd467 2.570 . S
N468 C470 1.343 . S
C469 C457 1.422 . S
C469 C471 1.321 . S
C469 H477 0.931 . S
C470 N468 1.343 . S
C470 C471 1.390 . S
C470 H472 0.931 . S
C471 C469 1.321 . S
C471 C470 1.390 . S
C471 H473 0.930 . S
H472 C470 0.931 . S
H473 C471 0.930 . S
H474 C497 0.931 . S
H475 C463 0.929 . S
H476 C498 0.930 . S
H477 C469 0.931 . S
H478 C459 0.930 . S
H479 C488 0.929 . S
H480 C464 0.931 . S
H481 C465 0.930 . S
H482 C520 0.930 . S
H483 C461 0.929 . S
H484 C489 0.931 . S
H485 C490 0.930 . S
N486 Gd466 2.622 . S
N486 C487 1.369 . S
N486 C488 1.338 . S
C487 N486 1.369 . S
C487 C491 1.415 . S
C487 C494 1.422 . S
C488 H479 0.929 . S
C488 N486 1.338 . S
C488 C490 1.378 . S
C489 H484 0.931 . S
C489 C490 1.348 . S
C489 C491 1.413 . S
C490 H485 0.930 . S
C490 C488 1.378 . S
C490 C489 1.348 . S
C491 C487 1.415 . S
C491 C489 1.413 . S
C491 C521 1.437 . S
H492 C521 0.929 . S
N493 Gd466 2.570 . S
N493 C494 1.359 . S
N493 C497 1.343 . S
C494 C487 1.422 . S
C494 N493 1.359 . S
C494 C496 1.421 . S
C495 C496 1.422 . S
C495 C498 1.321 . S
C495 H522 0.931 . S
C496 C494 1.421 . S
C496 C495 1.422 . S
C496 C520 1.417 . S
C497 H474 0.931 . S
C497 N493 1.343 . S
C497 C498 1.390 . S
C498 H476 0.930 . S
C498 C495 1.321 . S
C498 C497 1.390 . S
O499 Gd467 2.386 . S
O499 C511 1.265 . S
O500 Gd466 2.353 . S
O500 C511 1.242 1_455 S
O501 Gd466 2.468 . S
O501 C519 1.263 . S
O502 Gd466 2.427 . S
O502 C519 1.252 . S
O503 Gd467 2.307 1_455 S
O503 C512 1.261 . S
O504 Gd466 2.388 . S
O504 C512 1.252 . S
O505 Gd466 2.386 . S
O505 C523 1.265 . S
O506 Gd467 2.353 1_455 S
O506 C523 1.242 . S
O507 Gd467 2.468 . S
O507 C531 1.263 . S
O508 Gd467 2.427 . S
O508 C531 1.252 . S
O509 Gd466 2.307 . S
O509 C524 1.261 1_455 S
O510 Gd467 2.388 . S
O510 C524 1.252 . S
C511 O499 1.265 . S
C511 O500 1.242 1_655 S
C512 O503 1.261 . S
C512 O504 1.252 . S
C513 C516 1.394 . S
C513 C518 1.370 . S
C513 C519 1.500 . S
C514 C517 1.383 . S
C514 C518 1.395 . S
C515 C516 1.396 . S
C515 C517 1.365 . S
C515 H532 0.929 . S
C516 C513 1.394 . S
C516 C515 1.396 . S
C516 H533 0.930 . S
C517 C514 1.383 . S
C517 C515 1.365 . S
C517 H534 0.931 . S
C518 C513 1.370 . S
C518 C514 1.395 . S
C518 H535 0.930 . S
C519 Gd466 2.805 . S
C519 O501 1.263 . S
C519 O502 1.252 . S
C519 C513 1.500 . S
C520 H482 0.930 . S
C520 C496 1.417 . S
C520 C521 1.329 . S
C521 C491 1.437 . S
C521 H492 0.929 . S
C521 C520 1.329 . S
H522 C495 0.931 . S
C523 O505 1.265 . S
C523 O506 1.242 . S
C524 O509 1.261 1_655 S
C524 O510 1.252 . S
C525 C528 1.394 . S
C525 C530 1.370 . S
C525 C531 1.500 . S
C526 C529 1.383 . S
C526 C530 1.395 . S
C527 C528 1.396 . S
C527 C529 1.365 . S
C527 H536 0.929 . S
C528 C525 1.394 . S
C528 C527 1.396 . S
C528 H537 0.930 . S
C529 C526 1.383 . S
C529 C527 1.365 . S
C529 H538 0.931 . S
C530 C525 1.370 . S
C530 C526 1.395 . S
C530 H539 0.930 . S
C531 Gd467 2.805 . S
C531 O507 1.263 . S
C531 O508 1.252 . S
C531 C525 1.500 . S
H532 C515 0.929 . S
H533 C516 0.930 . S
H534 C517 0.931 . S
H535 C518 0.930 . S
H536 C527 0.929 . S
H537 C528 0.930 . S
H538 C529 0.931 . S
H539 C530 0.930 . S
C540 C542 1.422 . S
C540 C544 1.415 . S
C540 N546 1.369 . S
C541 C542 1.421 . S
C541 C543 1.417 . S
C541 C553 1.422 . S
C542 C540 1.422 . S
C542 C541 1.421 . S
C542 N552 1.359 . S
C543 C541 1.417 . S
C543 C545 1.329 . S
C543 H562 0.930 . S
C544 C540 1.415 . S
C544 C545 1.437 . S
C544 C548 1.413 . S
C545 C543 1.329 . S
C545 C544 1.437 . S
C545 H567 0.929 . S
N546 C540 1.369 . S
N546 C547 1.338 . S
N546 Gd551 2.622 . S
C547 N546 1.338 . S
C547 C549 1.378 . S
C547 H559 0.929 . S
C548 C544 1.413 . S
C548 C549 1.348 . S
C548 H564 0.931 . S
C549 C547 1.378 . S
C549 C548 1.348 . S
C549 H565 0.930 . S
Gd550 N570 2.622 . S
Gd550 N577 2.570 . S
Gd550 O584 2.353 . S
Gd550 O585 2.468 . S
Gd550 O586 2.427 . S
Gd550 O588 2.388 . S
Gd550 O589 2.386 . S
Gd550 O593 2.307 . S
Gd550 C603 2.805 . S
Gd551 N546 2.622 . S
Gd551 N552 2.570 . S
Gd551 O583 2.386 . S
Gd551 O587 2.307 . S
Gd551 O590 2.353 . S
Gd551 O591 2.468 . S
Gd551 O592 2.427 . S
Gd551 O594 2.388 . S
Gd551 C615 2.805 . S
N552 C542 1.359 . S
N552 Gd551 2.570 . S
N552 C554 1.343 . S
C553 C541 1.422 . S
C553 C555 1.321 . S
C553 H561 0.931 . S
C554 N552 1.343 . S
C554 C555 1.390 . S
C554 H556 0.931 . S
C555 C553 1.321 . S
C555 C554 1.390 . S
C555 H557 0.930 . S
H556 C554 0.931 . S
H557 C555 0.930 . S
H558 C581 0.931 . S
H559 C547 0.929 . S
H560 C582 0.930 . S
H561 C553 0.931 . S
H562 C543 0.930 . S
H563 C572 0.929 . S
H564 C548 0.931 . S
H565 C549 0.930 . S
H566 C604 0.930 . S
H567 C545 0.929 . S
H568 C573 0.931 . S
H569 C574 0.930 . S
N570 Gd550 2.622 . S
N570 C571 1.369 . S
N570 C572 1.338 . S
C571 N570 1.369 . S
C571 C575 1.415 . S
C571 C578 1.422 . S
C572 H563 0.929 . S
C572 N570 1.338 . S
C572 C574 1.378 . S
C573 H568 0.931 . S
C573 C574 1.348 . S
C573 C575 1.413 . S
C574 H569 0.930 . S
C574 C572 1.378 . S
C574 C573 1.348 . S
C575 C571 1.415 . S
C575 C573 1.413 . S
C575 C605 1.437 . S
H576 C605 0.929 . S
N577 Gd550 2.570 . S
N577 C578 1.359 . S
N577 C581 1.343 . S
C578 C571 1.422 . S
C578 N577 1.359 . S
C578 C580 1.421 . S
C579 C580 1.422 . S
C579 C582 1.321 . S
C579 H606 0.931 . S
C580 C578 1.421 . S
C580 C579 1.422 . S
C580 C604 1.417 . S
C581 H558 0.931 . S
C581 N577 1.343 . S
C581 C582 1.390 . S
C582 H560 0.930 . S
C582 C579 1.321 . S
C582 C581 1.390 . S
O583 Gd551 2.386 . S
O583 C595 1.265 . S
O584 Gd550 2.353 . S
O584 C595 1.242 . S
O585 Gd550 2.468 . S
O585 C603 1.263 . S
O586 Gd550 2.427 . S
O586 C603 1.252 . S
O587 Gd551 2.307 . S
O587 C596 1.261 . S
O588 Gd550 2.388 . S
O588 C596 1.252 . S
O589 Gd550 2.386 . S
O589 C607 1.265 . S
O590 Gd551 2.353 . S
O590 C607 1.242 . S
O591 Gd551 2.468 . S
O591 C615 1.263 . S
O592 Gd551 2.427 . S
O592 C615 1.252 . S
O593 Gd550 2.307 . S
O593 C608 1.261 . S
O594 Gd551 2.388 . S
O594 C608 1.252 . S
C595 O583 1.265 . S
C595 O584 1.242 . S
C596 O587 1.261 . S
C596 O588 1.252 . S
C597 C600 1.394 . S
C597 C602 1.370 . S
C597 C603 1.500 . S
C598 C601 1.383 . S
C598 C602 1.395 . S
C599 C600 1.396 . S
C599 C601 1.365 . S
C599 H616 0.929 . S
C600 C597 1.394 . S
C600 C599 1.396 . S
C600 H617 0.930 . S
C601 C598 1.383 . S
C601 C599 1.365 . S
C601 H618 0.931 . S
C602 C597 1.370 . S
C602 C598 1.395 . S
C602 H619 0.930 . S
C603 Gd550 2.805 . S
C603 O585 1.263 . S
C603 O586 1.252 . S
C603 C597 1.500 . S
C604 H566 0.930 . S
C604 C580 1.417 . S
C604 C605 1.329 . S
C605 C575 1.437 . S
C605 H576 0.929 . S
C605 C604 1.329 . S
H606 C579 0.931 . S
C607 O589 1.265 . S
C607 O590 1.242 . S
C608 O593 1.261 . S
C608 O594 1.252 . S
C609 C612 1.394 . S
C609 C614 1.370 . S
C609 C615 1.500 . S
C610 C613 1.383 . S
C610 C614 1.395 . S
C611 C612 1.396 . S
C611 C613 1.365 . S
C611 H620 0.929 . S
C612 C609 1.394 . S
C612 C611 1.396 . S
C612 H621 0.930 . S
C613 C610 1.383 . S
C613 C611 1.365 . S
C613 H622 0.931 . S
C614 C609 1.370 . S
C614 C610 1.395 . S
C614 H623 0.930 . S
C615 Gd551 2.805 . S
C615 O591 1.263 . S
C615 O592 1.252 . S
C615 C609 1.500 . S
H616 C599 0.929 . S
H617 C600 0.930 . S
H618 C601 0.931 . S
H619 C602 0.930 . S
H620 C611 0.929 . S
H621 C612 0.930 . S
H622 C613 0.931 . S
H623 C614 0.930 . S
C624 C625 1.391 1_545 S
C624 C626 1.394 . S
C624 H640 0.931 . S
C625 C624 1.391 1_565 S
C625 C629 1.376 . S
C626 C624 1.394 . S
C626 C627 1.369 . S
C626 C630 1.531 . S
C627 C626 1.369 . S
C627 C628 1.410 . S
C627 C635 1.503 . S
C628 C627 1.410 . S
C628 C629 1.392 1_545 S
C628 C631 1.511 1_545 S
C629 C625 1.376 . S
C629 C628 1.392 1_565 S
C629 H641 0.929 . S
C630 C626 1.531 . S
C630 H642 0.960 . S
C630 H643 0.962 . S
C630 H644 0.960 . S
C631 C628 1.511 1_565 S
C631 H645 0.961 . S
C631 H646 0.961 1_565 S
C631 H647 0.961 . S
C632 C633 1.370 . S
C632 C634 1.363 . S
C632 H648 0.931 . S
C633 C632 1.370 . S
C633 C637 1.408 . S
C634 C632 1.363 . S
C634 C635 1.370 . S
C634 C638 1.524 . S
C635 C627 1.503 . S
C635 C634 1.370 . S
C635 C636 1.403 . S
C636 C635 1.403 . S
C636 C637 1.404 . S
C636 C639 1.539 . S
C637 C633 1.408 . S
C637 C636 1.404 . S
C637 H649 0.930 . S
C638 C634 1.524 . S
C638 H650 0.956 . S
C638 H651 0.961 . S
C638 H652 0.961 . S
C639 C636 1.539 . S
C639 H653 0.958 . S
C639 H654 0.961 . S
C639 H655 0.960 . S
H640 C624 0.931 . S
H641 C629 0.929 . S
H642 C630 0.960 . S
H643 C630 0.962 . S
H644 C630 0.960 . S
H645 C631 0.961 . S
H646 C631 0.961 1_545 S
H647 C631 0.961 . S
H648 C632 0.931 . S
H649 C637 0.930 . S
H650 C638 0.956 . S
H651 C638 0.961 . S
H652 C638 0.961 . S
H653 C639 0.958 . S
H654 C639 0.961 . S
H655 C639 0.960 . S
C656 C657 1.391 . S
C656 C658 1.394 . S
C656 H672 0.931 . S
C657 C656 1.391 . S
C657 C661 1.376 . S
C658 C656 1.394 . S
C658 C659 1.369 . S
C658 C662 1.531 . S
C659 C658 1.369 . S
C659 C660 1.410 . S
C659 C667 1.503 . S
C660 C659 1.410 . S
C660 C661 1.392 . S
C660 C663 1.511 . S
C661 C657 1.376 . S
C661 C660 1.392 . S
C661 H673 0.929 . S
C662 C658 1.531 . S
C662 H674 0.960 . S
C662 H675 0.962 . S
C662 H676 0.960 . S
C663 C660 1.511 . S
C663 H677 0.961 . S
C663 H678 0.961 . S
C663 H679 0.961 . S
C664 C665 1.370 . S
C664 C666 1.363 . S
C664 H680 0.931 . S
C665 C664 1.370 . S
C665 C669 1.408 . S
C666 C664 1.363 . S
C666 C667 1.370 . S
C666 C670 1.524 . S
C667 C659 1.503 . S
C667 C666 1.370 . S
C667 C668 1.403 . S
C668 C667 1.403 . S
C668 C669 1.404 . S
C668 C671 1.539 . S
C669 C665 1.408 . S
C669 C668 1.404 . S
C669 H681 0.930 . S
C670 C666 1.524 . S
C670 H682 0.956 . S
C670 H683 0.961 . S
C670 H684 0.961 . S
C671 C668 1.539 . S
C671 H685 0.958 . S
C671 H686 0.961 . S
C671 H687 0.960 . S
H672 C656 0.931 . S
H673 C661 0.929 . S
H674 C662 0.960 . S
H675 C662 0.962 . S
H676 C662 0.960 . S
H677 C663 0.961 . S
H678 C663 0.961 . S
H679 C663 0.961 . S
H680 C664 0.931 . S
H681 C669 0.930 . S
H682 C670 0.956 . S
H683 C670 0.961 . S
H684 C670 0.961 . S
H685 C671 0.958 . S
H686 C671 0.961 . S
H687 C671 0.960 . S
C688 C689 1.391 . S
C688 C690 1.394 . S
C688 H704 0.931 . S
C689 C688 1.391 . S
C689 C693 1.376 . S
C690 C688 1.394 . S
C690 C691 1.369 . S
C690 C694 1.531 . S
C691 C690 1.369 . S
C691 C692 1.410 . S
C691 C699 1.503 . S
C692 C691 1.410 . S
C692 C693 1.392 . S
C692 C695 1.511 . S
C693 C689 1.376 . S
C693 C692 1.392 . S
C693 H705 0.929 . S
C694 C690 1.531 . S
C694 H706 0.960 . S
C694 H707 0.962 . S
C694 H708 0.960 . S
C695 C692 1.511 . S
C695 H709 0.961 . S
C695 H710 0.961 . S
C695 H711 0.961 . S
C696 C697 1.370 . S
C696 C698 1.363 . S
C696 H712 0.931 . S
C697 C696 1.370 . S
C697 C701 1.408 . S
C698 C696 1.363 . S
C698 C699 1.370 . S
C698 C702 1.524 . S
C699 C691 1.503 . S
C699 C698 1.370 . S
C699 C700 1.403 . S
C700 C699 1.403 . S
C700 C701 1.404 . S
C700 C703 1.539 . S
C701 C697 1.408 . S
C701 C700 1.404 . S
C701 H713 0.930 . S
C702 C698 1.524 . S
C702 H714 0.956 . S
C702 H715 0.961 . S
C702 H716 0.961 . S
C703 C700 1.539 . S
C703 H717 0.958 . S
C703 H718 0.961 . S
C703 H719 0.960 . S
H704 C688 0.931 . S
H705 C693 0.929 . S
H706 C694 0.960 . S
H707 C694 0.962 . S
H708 C694 0.960 . S
H709 C695 0.961 . S
H710 C695 0.961 . S
H711 C695 0.961 . S
H712 C696 0.931 . S
H713 C701 0.930 . S
H714 C702 0.956 . S
H715 C702 0.961 . S
H716 C702 0.961 . S
H717 C703 0.958 . S
H718 C703 0.961 . S
H719 C703 0.960 . S
C720 C721 1.391 . S
C720 C722 1.394 1_565 S
C720 H736 0.931 . S
C721 C720 1.391 . S
C721 C725 1.376 1_565 S
C722 C720 1.394 1_545 S
C722 C723 1.369 . S
C722 C726 1.531 . S
C723 C722 1.369 . S
C723 C724 1.410 . S
C723 C731 1.503 . S
C724 C723 1.410 . S
C724 C725 1.392 . S
C724 C727 1.511 . S
C725 C721 1.376 1_545 S
C725 C724 1.392 . S
C725 H737 0.929 . S
C726 C722 1.531 . S
C726 H738 0.960 . S
C726 H739 0.962 . S
C726 H740 0.960 . S
C727 C724 1.511 . S
C727 H741 0.961 . S
C727 H742 0.961 . S
C727 H743 0.961 . S
C728 C729 1.370 . S
C728 C730 1.363 . S
C728 H744 0.931 . S
C729 C728 1.370 . S
C729 C733 1.408 . S
C730 C728 1.363 . S
C730 C731 1.370 . S
C730 C734 1.524 . S
C731 C723 1.503 . S
C731 C730 1.370 . S
C731 C732 1.403 . S
C732 C731 1.403 . S
C732 C733 1.404 . S
C732 C735 1.539 . S
C733 C729 1.408 . S
C733 C732 1.404 . S
C733 H745 0.930 . S
C734 C730 1.524 . S
C734 H746 0.956 . S
C734 H747 0.961 . S
C734 H748 0.961 . S
C735 C732 1.539 . S
C735 H749 0.958 . S
C735 H750 0.961 . S
C735 H751 0.960 . S
H736 C720 0.931 . S
H737 C725 0.929 . S
H738 C726 0.960 . S
H739 C726 0.962 . S
H740 C726 0.960 . S
H741 C727 0.961 . S
H742 C727 0.961 . S
H743 C727 0.961 . S
H744 C728 0.931 . S
H745 C733 0.930 . S
H746 C734 0.956 . S
H747 C734 0.961 . S
H748 C734 0.961 . S
H749 C735 0.958 . S
H750 C735 0.961 . S
H751 C735 0.960 . S
C752 C753 1.391 . S
C752 C754 1.394 1_545 S
C752 H768 0.931 . S
C753 C752 1.391 . S
C753 C757 1.376 . S
C754 C752 1.394 1_565 S
C754 C755 1.369 . S
C754 C758 1.531 . S
C755 C754 1.369 . S
C755 C756 1.410 . S
C755 C763 1.503 . S
C756 C755 1.410 . S
C756 C757 1.392 1_565 S
C756 C759 1.511 . S
C757 C753 1.376 . S
C757 C756 1.392 1_545 S
C757 H769 0.929 . S
C758 C754 1.531 . S
C758 H770 0.960 . S
C758 H771 0.962 . S
C758 H772 0.930 1_565 S
C759 C756 1.511 . S
C759 H773 0.961 . S
C759 H774 0.961 . S
C759 H775 0.961 . S
C760 C761 1.370 . S
C760 C762 1.363 . S
C760 H776 0.931 . S
C761 C760 1.370 . S
C761 C765 1.408 . S
C762 C760 1.363 . S
C762 C763 1.370 . S
C762 C766 1.524 . S
C763 C755 1.503 . S
C763 C762 1.370 . S
C763 C764 1.403 . S
C764 C763 1.403 . S
C764 C765 1.404 . S
C764 C767 1.539 . S
C765 C761 1.408 . S
C765 C764 1.404 . S
C765 H777 0.930 . S
C766 C762 1.524 . S
C766 H778 0.956 . S
C766 H779 0.961 . S
C766 H780 0.961 . S
C767 C764 1.539 . S
C767 H781 0.958 . S
C767 H782 0.961 . S
C767 H783 0.960 . S
H768 C752 0.931 . S
H769 C757 0.929 . S
H770 C758 0.960 . S
H771 C758 0.962 . S
H772 C758 0.930 1_545 S
H773 C759 0.961 . S
H774 C759 0.961 . S
H775 C759 0.961 . S
H776 C760 0.931 . S
H777 C765 0.930 . S
H778 C766 0.956 . S
H779 C766 0.961 . S
H780 C766 0.961 . S
H781 C767 0.958 . S
H782 C767 0.961 . S
H783 C767 0.960 . S
C784 C785 1.391 . S
C784 C786 1.394 . S
C784 H800 0.931 . S
C785 C784 1.391 . S
C785 C789 1.376 . S
C786 C784 1.394 . S
C786 C787 1.369 . S
C786 C790 1.531 . S
C787 C786 1.369 . S
C787 C788 1.410 . S
C787 C795 1.503 . S
C788 C787 1.410 . S
C788 C789 1.392 . S
C788 C791 1.511 . S
C789 C785 1.376 . S
C789 C788 1.392 . S
C789 H801 0.929 . S
C790 C786 1.531 . S
C790 H802 0.960 . S
C790 H803 0.962 . S
C790 H804 0.960 . S
C791 C788 1.511 . S
C791 H805 0.961 . S
C791 H806 0.961 . S
C791 H807 0.961 . S
C792 C793 1.370 . S
C792 C794 1.363 . S
C792 H808 0.931 . S
C793 C792 1.370 . S
C793 C797 1.408 . S
C794 C792 1.363 . S
C794 C795 1.370 . S
C794 C798 1.524 . S
C795 C787 1.503 . S
C795 C794 1.370 . S
C795 C796 1.403 . S
C796 C795 1.403 . S
C796 C797 1.404 . S
C796 C799 1.539 . S
C797 C793 1.408 . S
C797 C796 1.404 . S
C797 H809 0.930 . S
C798 C794 1.524 . S
C798 H810 0.956 . S
C798 H811 0.961 . S
C798 H812 0.961 . S
C799 C796 1.539 . S
C799 H813 0.958 . S
C799 H814 0.961 . S
C799 H815 0.960 . S
H800 C784 0.931 . S
H801 C789 0.929 . S
H802 C790 0.960 . S
H803 C790 0.962 . S
H804 C790 0.960 . S
H805 C791 0.961 . S
H806 C791 0.961 . S
H807 C791 0.961 . S
H808 C792 0.931 . S
H809 C797 0.930 . S
H810 C798 0.956 . S
H811 C798 0.961 . S
H812 C798 0.961 . S
H813 C799 0.958 . S
H814 C799 0.961 . S
H815 C799 0.960 . S
C816 C817 1.391 . S
C816 C818 1.394 . S
C816 H832 0.931 . S
C817 C816 1.391 . S
C817 C821 1.376 . S
C818 C816 1.394 . S
C818 C819 1.369 . S
C818 C822 1.531 . S
C819 C818 1.369 . S
C819 C820 1.410 . S
C819 C827 1.503 . S
C820 C819 1.410 . S
C820 C821 1.392 . S
C820 C823 1.511 . S
C821 C817 1.376 . S
C821 C820 1.392 . S
C821 H833 0.929 . S
C822 C818 1.531 . S
C822 H834 0.960 . S
C822 H835 0.962 . S
C822 H836 0.960 . S
C823 C820 1.511 . S
C823 H837 0.961 . S
C823 H838 0.961 . S
C823 H839 0.961 . S
C824 C825 1.370 . S
C824 C826 1.363 . S
C824 H840 0.931 . S
C825 C824 1.370 . S
C825 C829 1.408 . S
C826 C824 1.363 . S
C826 C827 1.370 . S
C826 C830 1.524 . S
C827 C819 1.503 . S
C827 C826 1.370 . S
C827 C828 1.403 . S
C828 C827 1.403 . S
C828 C829 1.404 . S
C828 C831 1.539 . S
C829 C825 1.408 . S
C829 C828 1.404 . S
C829 H841 0.930 . S
C830 C826 1.524 . S
C830 H842 0.956 . S
C830 H843 0.961 . S
C830 H844 0.961 . S
C831 C828 1.539 . S
C831 H845 0.958 . S
C831 H846 0.961 . S
C831 H847 0.960 . S
H832 C816 0.931 . S
H833 C821 0.929 . S
H834 C822 0.960 . S
H835 C822 0.962 . S
H836 C822 0.960 . S
H837 C823 0.961 . S
H838 C823 0.961 . S
H839 C823 0.961 . S
H840 C824 0.931 . S
H841 C829 0.930 . S
H842 C830 0.956 . S
H843 C830 0.961 . S
H844 C830 0.961 . S
H845 C831 0.958 . S
H846 C831 0.961 . S
H847 C831 0.960 . S
C848 C849 1.391 . S
C848 C850 1.394 1_545 S
C848 H864 0.931 . S
C849 C848 1.391 . S
C849 C853 1.376 1_545 S
C850 C848 1.394 1_565 S
C850 C851 1.369 . S
C850 C854 1.531 1_565 S
C851 C850 1.369 . S
C851 C852 1.410 . S
C851 C859 1.503 . S
C852 C851 1.410 . S
C852 C853 1.392 . S
C852 C855 1.511 . S
C853 C849 1.376 1_565 S
C853 C852 1.392 . S
C853 H865 0.929 . S
C854 C850 1.531 1_545 S
C854 H866 0.960 1_545 S
C854 H867 0.962 1_545 S
C854 H868 0.960 . S
C855 C852 1.511 . S
C855 H869 0.961 . S
C855 H870 0.961 . S
C855 H871 0.961 . S
C856 C857 1.370 . S
C856 C858 1.363 . S
C856 H872 0.931 . S
C857 C856 1.370 . S
C857 C861 1.408 . S
C858 C856 1.363 . S
C858 C859 1.370 . S
C858 C862 1.524 . S
C859 C851 1.503 . S
C859 C858 1.370 . S
C859 C860 1.403 . S
C860 C859 1.403 . S
C860 C861 1.404 . S
C860 C863 1.539 . S
C861 C857 1.408 . S
C861 C860 1.404 . S
C861 H873 0.930 . S
C862 C858 1.524 . S
C862 H874 0.956 . S
C862 H875 0.961 . S
C862 H876 0.961 . S
C863 C860 1.539 . S
C863 H877 0.958 . S
C863 H878 0.961 . S
C863 H879 0.960 . S
H864 C848 0.931 . S
H865 C853 0.929 . S
H866 C854 0.960 1_565 S
H867 C854 0.962 1_565 S
H868 C854 0.960 . S
H869 C855 0.961 . S
H870 C855 0.961 . S
H871 C855 0.961 . S
H872 C856 0.931 . S
H873 C861 0.930 . S
H874 C862 0.956 . S
H875 C862 0.961 . S
H876 C862 0.961 . S
H877 C863 0.958 . S
H878 C863 0.961 . S
H879 C863 0.960 . S
C880 C881 1.391 . S
C880 C882 1.394 . S
C880 H896 0.931 . S
C881 C880 1.391 . S
C881 C885 1.376 . S
C882 C880 1.394 . S
C882 C883 1.369 . S
C882 C886 1.531 . S
C883 C882 1.369 . S
C883 C884 1.410 . S
C883 C891 1.503 . S
C884 C883 1.410 . S
C884 C885 1.392 . S
C884 C887 1.511 . S
C885 C881 1.376 . S
C885 C884 1.392 . S
C885 H897 0.929 . S
C886 C882 1.531 . S
C886 H898 0.960 . S
C886 H899 0.962 . S
C886 H900 0.960 . S
C887 C884 1.511 . S
C887 H901 0.961 . S
C887 H902 0.961 . S
C887 H903 0.961 . S
C888 C889 1.370 . S
C888 C890 1.363 . S
C888 H904 0.931 . S
C889 C888 1.370 . S
C889 C893 1.408 . S
C890 C888 1.363 . S
C890 C891 1.370 . S
C890 C894 1.524 . S
C891 C883 1.503 . S
C891 C890 1.370 . S
C891 C892 1.403 . S
C892 C891 1.403 . S
C892 C893 1.404 . S
C892 C895 1.539 . S
C893 C889 1.408 . S
C893 C892 1.404 . S
C893 H905 0.930 . S
C894 C890 1.524 . S
C894 H906 0.956 . S
C894 H907 0.961 . S
C894 H908 0.961 . S
C895 C892 1.539 . S
C895 H909 0.958 . S
C895 H910 0.961 . S
C895 H911 0.960 . S
H896 C880 0.931 . S
H897 C885 0.929 . S
H898 C886 0.960 . S
H899 C886 0.962 . S
H900 C886 0.960 . S
H901 C887 0.961 . S
H902 C887 0.961 . S
H903 C887 0.961 . S
H904 C888 0.931 . S
H905 C893 0.930 . S
H906 C894 0.956 . S
H907 C894 0.961 . S
H908 C894 0.961 . S
H909 C895 0.958 . S
H910 C895 0.961 . S
H911 C895 0.960 . S
C912 C913 1.391 . S
C912 C914 1.394 . S
C912 H928 0.931 . S
C913 C912 1.391 . S
C913 C917 1.376 . S
C914 C912 1.394 . S
C914 C915 1.369 . S
C914 C918 1.531 . S
C915 C914 1.369 . S
C915 C916 1.410 . S
C915 C923 1.503 . S
C916 C915 1.410 . S
C916 C917 1.392 . S
C916 C919 1.511 . S
C917 C913 1.376 . S
C917 C916 1.392 . S
C917 H929 0.929 . S
C918 C914 1.531 . S
C918 H930 0.960 . S
C918 H931 0.962 . S
C918 H932 0.960 . S
C919 C916 1.511 . S
C919 H933 0.961 . S
C919 H934 0.961 . S
C919 H935 0.961 . S
C920 C921 1.370 . S
C920 C922 1.363 . S
C920 H936 0.931 . S
C921 C920 1.370 . S
C921 C925 1.408 . S
C922 C920 1.363 . S
C922 C923 1.370 . S
C922 C926 1.524 . S
C923 C915 1.503 . S
C923 C922 1.370 . S
C923 C924 1.403 . S
C924 C923 1.403 . S
C924 C925 1.404 . S
C924 C927 1.539 . S
C925 C921 1.408 . S
C925 C924 1.404 . S
C925 H937 0.930 . S
C926 C922 1.524 . S
C926 H938 0.956 . S
C926 H939 0.961 . S
C926 H940 0.961 . S
C927 C924 1.539 . S
C927 H941 0.958 . S
C927 H942 0.961 . S
C927 H943 0.960 . S
H928 C912 0.931 . S
H929 C917 0.929 . S
H930 C918 0.960 . S
H931 C918 0.962 . S
H932 C918 0.960 . S
H933 C919 0.961 . S
H934 C919 0.961 . S
H935 C919 0.961 . S
H936 C920 0.931 . S
H937 C925 0.930 . S
H938 C926 0.956 . S
H939 C926 0.961 . S
H940 C926 0.961 . S
H941 C927 0.958 . S
H942 C927 0.961 . S
H943 C927 0.960 . S
C944 C945 1.391 . S
C944 C946 1.394 . S
C944 H960 0.931 . S
C945 C944 1.391 . S
C945 C949 1.376 . S
C946 C944 1.394 . S
C946 C947 1.369 . S
C946 C950 1.531 . S
C947 C946 1.369 . S
C947 C948 1.410 . S
C947 C955 1.503 . S
C948 C947 1.410 . S
C948 C949 1.392 . S
C948 C951 1.511 . S
C949 C945 1.376 . S
C949 C948 1.392 . S
C949 H961 0.929 . S
C950 C946 1.531 . S
C950 H962 0.960 . S
C950 H963 0.962 . S
C950 H964 0.960 . S
C951 C948 1.511 . S
C951 H965 0.961 . S
C951 H966 0.961 . S
C951 H967 0.961 . S
C952 C953 1.370 . S
C952 C954 1.363 . S
C952 H968 0.931 . S
C953 C952 1.370 . S
C953 C957 1.408 . S
C954 C952 1.363 . S
C954 C955 1.370 . S
C954 C958 1.524 . S
C955 C947 1.503 . S
C955 C954 1.370 . S
C955 C956 1.403 . S
C956 C955 1.403 . S
C956 C957 1.404 . S
C956 C959 1.539 . S
C957 C953 1.408 . S
C957 C956 1.404 . S
C957 H969 0.930 . S
C958 C954 1.524 . S
C958 H970 0.956 . S
C958 H971 0.961 . S
C958 H972 0.961 . S
C959 C956 1.539 . S
C959 H973 0.958 . S
C959 H974 0.961 . S
C959 H975 0.960 . S
H960 C944 0.931 . S
H961 C949 0.929 . S
H962 C950 0.960 . S
H963 C950 0.962 . S
H964 C950 0.960 . S
H965 C951 0.961 . S
H966 C951 0.961 . S
H967 C951 0.961 . S
H968 C952 0.931 . S
H969 C957 0.930 . S
H970 C958 0.956 . S
H971 C958 0.961 . S
H972 C958 0.961 . S
H973 C959 0.958 . S
H974 C959 0.961 . S
H975 C959 0.960 . S
C976 C977 1.391 . S
C976 C978 1.394 . S
C976 H992 0.931 . S
C977 C976 1.391 . S
C977 C981 1.376 . S
C978 C976 1.394 . S
C978 C979 1.369 . S
C978 C982 1.531 . S
C979 C978 1.369 . S
C979 C980 1.410 . S
C979 C987 1.503 . S
C980 C979 1.410 . S
C980 C981 1.392 . S
C980 C983 1.511 . S
C981 C977 1.376 . S
C981 C980 1.392 . S
C981 H993 0.929 . S
C982 C978 1.531 . S
C982 H994 0.960 . S
C982 H995 0.962 . S
C982 H996 0.960 . S
C983 C980 1.511 . S
C983 H997 0.961 . S
C983 H998 0.961 . S
C983 H999 0.961 . S
C984 C985 1.370 . S
C984 C986 1.363 . S
C984 H1000 0.931 . S
C985 C984 1.370 . S
C985 C989 1.408 . S
C986 C984 1.363 . S
C986 C987 1.370 . S
C986 C990 1.524 . S
C987 C979 1.503 . S
C987 C986 1.370 . S
C987 C988 1.403 . S
C988 C987 1.403 . S
C988 C989 1.404 . S
C988 C991 1.539 . S
C989 C985 1.408 . S
C989 C988 1.404 . S
C989 H1001 0.930 . S
C990 C986 1.524 . S
C990 H1002 0.956 . S
C990 H1003 0.961 . S
C990 H1004 0.961 . S
C991 C988 1.539 . S
C991 H1005 0.958 . S
C991 H1006 0.961 . S
C991 H1007 0.960 . S
H992 C976 0.931 . S
H993 C981 0.929 . S
H994 C982 0.960 . S
H995 C982 0.962 . S
H996 C982 0.960 . S
H997 C983 0.961 . S
H998 C983 0.961 . S
H999 C983 0.961 . S
H1000 C984 0.931 . S
H1001 C989 0.930 . S
H1002 C990 0.956 . S
H1003 C990 0.961 . S
H1004 C990 0.961 . S
H1005 C991 0.958 . S
H1006 C991 0.961 . S
H1007 C991 0.960 . S
C1008 C1009 1.391 . S
C1008 C1010 1.394 . S
C1008 H1024 0.931 . S
C1009 C1008 1.391 . S
C1009 C1013 1.376 . S
C1010 C1008 1.394 . S
C1010 C1011 1.369 . S
C1010 C1014 1.531 . S
C1011 C1010 1.369 . S
C1011 C1012 1.410 . S
C1011 C1019 1.503 . S
C1012 C1011 1.410 . S
C1012 C1013 1.392 . S
C1012 C1015 1.511 . S
C1013 C1009 1.376 . S
C1013 C1012 1.392 . S
C1013 H1025 0.929 . S
C1014 C1010 1.531 . S
C1014 H1026 0.960 . S
C1014 H1027 0.962 . S
C1014 H1028 0.960 . S
C1015 C1012 1.511 . S
C1015 H1029 0.961 . S
C1015 H1030 0.961 . S
C1015 H1031 0.961 . S
C1016 C1017 1.370 . S
C1016 C1018 1.363 . S
C1016 H1032 0.931 . S
C1017 C1016 1.370 . S
C1017 C1021 1.408 . S
C1018 C1016 1.363 . S
C1018 C1019 1.370 . S
C1018 C1022 1.524 . S
C1019 C1011 1.503 . S
C1019 C1018 1.370 . S
C1019 C1020 1.403 . S
C1020 C1019 1.403 . S
C1020 C1021 1.404 . S
C1020 C1023 1.539 . S
C1021 C1017 1.408 . S
C1021 C1020 1.404 . S
C1021 H1033 0.930 . S
C1022 C1018 1.524 . S
C1022 H1034 0.956 . S
C1022 H1035 0.961 . S
C1022 H1036 0.961 . S
C1023 C1020 1.539 . S
C1023 H1037 0.958 . S
C1023 H1038 0.961 . S
C1023 H1039 0.960 . S
H1024 C1008 0.931 . S
H1025 C1013 0.929 . S
H1026 C1014 0.960 . S
H1027 C1014 0.962 . S
H1028 C1014 0.960 . S
H1029 C1015 0.961 . S
H1030 C1015 0.961 . S
H1031 C1015 0.961 . S
H1032 C1016 0.931 . S
H1033 C1021 0.930 . S
H1034 C1022 0.956 . S
H1035 C1022 0.961 . S
H1036 C1022 0.961 . S
H1037 C1023 0.958 . S
H1038 C1023 0.961 . S
H1039 C1023 0.960 . S
C1040 C1041 1.391 . S
C1040 C1042 1.394 . S
C1040 H1056 0.931 . S
C1041 C1040 1.391 . S
C1041 C1045 1.376 . S
C1042 C1040 1.394 . S
C1042 C1043 1.369 . S
C1042 C1046 1.531 . S
C1043 C1042 1.369 . S
C1043 C1044 1.410 . S
C1043 C1051 1.503 . S
C1044 C1043 1.410 . S
C1044 C1045 1.392 . S
C1044 C1047 1.511 . S
C1045 C1041 1.376 . S
C1045 C1044 1.392 . S
C1045 H1057 0.929 . S
C1046 C1042 1.531 . S
C1046 H1058 0.960 . S
C1046 H1059 0.962 . S
C1046 H1060 0.960 . S
C1047 C1044 1.511 . S
C1047 H1061 0.961 . S
C1047 H1062 0.961 . S
C1047 H1063 0.961 . S
C1048 C1049 1.370 . S
C1048 C1050 1.363 . S
C1048 H1064 0.931 . S
C1049 C1048 1.370 . S
C1049 C1053 1.408 . S
C1050 C1048 1.363 . S
C1050 C1051 1.370 . S
C1050 C1054 1.524 . S
C1051 C1043 1.503 . S
C1051 C1050 1.370 . S
C1051 C1052 1.403 . S
C1052 C1051 1.403 . S
C1052 C1053 1.404 . S
C1052 C1055 1.539 . S
C1053 C1049 1.408 . S
C1053 C1052 1.404 . S
C1053 H1065 0.930 . S
C1054 C1050 1.524 . S
C1054 H1066 0.956 . S
C1054 H1067 0.961 . S
C1054 H1068 0.961 . S
C1055 C1052 1.539 . S
C1055 H1069 0.958 . S
C1055 H1070 0.961 . S
C1055 H1071 0.960 . S
H1056 C1040 0.931 . S
H1057 C1045 0.929 . S
H1058 C1046 0.960 . S
H1059 C1046 0.962 . S
H1060 C1046 0.960 . S
H1061 C1047 0.961 . S
H1062 C1047 0.961 . S
H1063 C1047 0.961 . S
H1064 C1048 0.931 . S
H1065 C1053 0.930 . S
H1066 C1054 0.956 . S
H1067 C1054 0.961 . S
H1068 C1054 0.961 . S
H1069 C1055 0.958 . S
H1070 C1055 0.961 . S
H1071 C1055 0.960 . S
C1072 C1073 1.391 . S
C1072 C1074 1.394 . S
C1072 H1088 0.931 . S
C1073 C1072 1.391 . S
C1073 C1077 1.376 . S
C1074 C1072 1.394 . S
C1074 C1075 1.369 . S
C1074 C1078 1.531 . S
C1075 C1074 1.369 . S
C1075 C1076 1.410 . S
C1075 C1083 1.503 . S
C1076 C1075 1.410 . S
C1076 C1077 1.392 . S
C1076 C1079 1.511 . S
C1077 C1073 1.376 . S
C1077 C1076 1.392 . S
C1077 H1089 0.929 . S
C1078 C1074 1.531 . S
C1078 H1090 0.960 . S
C1078 H1091 0.962 . S
C1078 H1092 0.960 . S
C1079 C1076 1.511 . S
C1079 H1093 0.961 . S
C1079 H1094 0.961 . S
C1079 H1095 0.961 . S
C1080 C1081 1.370 . S
C1080 C1082 1.363 . S
C1080 H1096 0.931 . S
C1081 C1080 1.370 . S
C1081 C1085 1.408 . S
C1082 C1080 1.363 . S
C1082 C1083 1.370 . S
C1082 C1086 1.524 . S
C1083 C1075 1.503 . S
C1083 C1082 1.370 . S
C1083 C1084 1.403 . S
C1084 C1083 1.403 . S
C1084 C1085 1.404 . S
C1084 C1087 1.539 . S
C1085 C1081 1.408 . S
C1085 C1084 1.404 . S
C1085 H1097 0.930 . S
C1086 C1082 1.524 . S
C1086 H1098 0.956 . S
C1086 H1099 0.961 . S
C1086 H1100 0.961 . S
C1087 C1084 1.539 . S
C1087 H1101 0.958 . S
C1087 H1102 0.961 . S
C1087 H1103 0.960 . S
H1088 C1072 0.931 . S
H1089 C1077 0.929 . S
H1090 C1078 0.960 . S
H1091 C1078 0.962 . S
H1092 C1078 0.960 . S
H1093 C1079 0.961 . S
H1094 C1079 0.961 . S
H1095 C1079 0.961 . S
H1096 C1080 0.931 . S
H1097 C1085 0.930 . S
H1098 C1086 0.956 . S
H1099 C1086 0.961 . S
H1100 C1086 0.961 . S
H1101 C1087 0.958 . S
H1102 C1087 0.961 . S
H1103 C1087 0.960 . S
C1104 C1105 1.391 . S
C1104 C1106 1.394 . S
C1104 H1120 0.931 . S
C1105 C1104 1.391 . S
C1105 C1109 1.376 . S
C1106 C1104 1.394 . S
C1106 C1107 1.369 . S
C1106 C1110 1.531 . S
C1107 C1106 1.369 . S
C1107 C1108 1.410 . S
C1107 C1115 1.503 . S
C1108 C1107 1.410 . S
C1108 C1109 1.392 . S
C1108 C1111 1.511 . S
C1109 C1105 1.376 . S
C1109 C1108 1.392 . S
C1109 H1121 0.929 . S
C1110 C1106 1.531 . S
C1110 H1122 0.960 . S
C1110 H1123 0.962 . S
C1110 H1124 0.960 . S
C1111 C1108 1.511 . S
C1111 H1125 0.961 . S
C1111 H1126 0.961 . S
C1111 H1127 0.961 . S
C1112 C1113 1.370 . S
C1112 C1114 1.363 . S
C1112 H1128 0.931 . S
C1113 C1112 1.370 . S
C1113 C1117 1.408 . S
C1114 C1112 1.363 . S
C1114 C1115 1.370 . S
C1114 C1118 1.524 . S
C1115 C1107 1.503 . S
C1115 C1114 1.370 . S
C1115 C1116 1.403 . S
C1116 C1115 1.403 . S
C1116 C1117 1.404 . S
C1116 C1119 1.539 . S
C1117 C1113 1.408 . S
C1117 C1116 1.404 . S
C1117 H1129 0.930 . S
C1118 C1114 1.524 . S
C1118 H1130 0.956 . S
C1118 H1131 0.961 . S
C1118 H1132 0.961 . S
C1119 C1116 1.539 . S
C1119 H1133 0.958 . S
C1119 H1134 0.961 . S
C1119 H1135 0.960 . S
H1120 C1104 0.931 . S
H1121 C1109 0.929 . S
H1122 C1110 0.960 . S
H1123 C1110 0.962 . S
H1124 C1110 0.960 . S
H1125 C1111 0.961 . S
H1126 C1111 0.961 . S
H1127 C1111 0.961 . S
H1128 C1112 0.931 . S
H1129 C1117 0.930 . S
H1130 C1118 0.956 . S
H1131 C1118 0.961 . S
H1132 C1118 0.961 . S
H1133 C1119 0.958 . S
H1134 C1119 0.961 . S
H1135 C1119 0.960 . S
C1136 C1137 1.391 . S
C1136 C1138 1.394 . S
C1136 H1152 0.931 . S
C1137 C1136 1.391 . S
C1137 C1141 1.376 . S
C1138 C1136 1.394 . S
C1138 C1139 1.369 . S
C1138 C1142 1.531 . S
C1139 C1138 1.369 . S
C1139 C1140 1.410 . S
C1139 C1147 1.503 . S
C1140 C1139 1.410 . S
C1140 C1141 1.392 . S
C1140 C1143 1.511 . S
C1141 C1137 1.376 . S
C1141 C1140 1.392 . S
C1141 H1153 0.929 . S
C1142 C1138 1.531 . S
C1142 H1154 0.960 . S
C1142 H1155 0.962 . S
C1142 H1156 0.960 . S
C1143 C1140 1.511 . S
C1143 H1157 0.961 . S
C1143 H1158 0.961 . S
C1143 H1159 0.961 . S
C1144 C1145 1.370 . S
C1144 C1146 1.363 . S
C1144 H1160 0.931 . S
C1145 C1144 1.370 . S
C1145 C1149 1.408 . S
C1146 C1144 1.363 . S
C1146 C1147 1.370 . S
C1146 C1150 1.524 . S
C1147 C1139 1.503 . S
C1147 C1146 1.370 . S
C1147 C1148 1.403 . S
C1148 C1147 1.403 . S
C1148 C1149 1.404 . S
C1148 C1151 1.539 . S
C1149 C1145 1.408 . S
C1149 C1148 1.404 . S
C1149 H1161 0.930 . S
C1150 C1146 1.524 . S
C1150 H1162 0.956 . S
C1150 H1163 0.961 . S
C1150 H1164 0.961 . S
C1151 C1148 1.539 . S
C1151 H1165 0.958 . S
C1151 H1166 0.961 . S
C1151 H1167 0.960 . S
H1152 C1136 0.931 . S
H1153 C1141 0.929 . S
H1154 C1142 0.960 . S
H1155 C1142 0.962 . S
H1156 C1142 0.960 . S
H1157 C1143 0.961 . S
H1158 C1143 0.961 . S
H1159 C1143 0.961 . S
H1160 C1144 0.931 . S
H1161 C1149 0.930 . S
H1162 C1150 0.956 . S
H1163 C1150 0.961 . S
H1164 C1150 0.961 . S
H1165 C1151 0.958 . S
H1166 C1151 0.961 . S
H1167 C1151 0.960 . S
C1168 C1169 1.391 . S
C1168 C1170 1.394 . S
C1168 H1184 0.931 . S
C1169 C1168 1.391 . S
C1169 C1173 1.376 . S
C1170 C1168 1.394 . S
C1170 C1171 1.369 . S
C1170 C1174 1.531 . S
C1171 C1170 1.369 . S
C1171 C1172 1.410 . S
C1171 C1179 1.503 . S
C1172 C1171 1.410 . S
C1172 C1173 1.392 . S
C1172 C1175 1.511 . S
C1173 C1169 1.376 . S
C1173 C1172 1.392 . S
C1173 H1185 0.929 . S
C1174 C1170 1.531 . S
C1174 H1186 0.960 . S
C1174 H1187 0.962 . S
C1174 H1188 0.960 . S
C1175 C1172 1.511 . S
C1175 H1189 0.961 . S
C1175 H1190 0.961 . S
C1175 H1191 0.961 . S
C1176 C1177 1.370 . S
C1176 C1178 1.363 . S
C1176 H1192 0.931 . S
C1177 C1176 1.370 . S
C1177 C1181 1.408 . S
C1178 C1176 1.363 . S
C1178 C1179 1.370 . S
C1178 C1182 1.524 . S
C1179 C1171 1.503 . S
C1179 C1178 1.370 . S
C1179 C1180 1.403 . S
C1180 C1179 1.403 . S
C1180 C1181 1.404 . S
C1180 C1183 1.539 . S
C1181 C1177 1.408 . S
C1181 C1180 1.404 . S
C1181 H1193 0.930 . S
C1182 C1178 1.524 . S
C1182 H1194 0.956 . S
C1182 H1195 0.961 . S
C1182 H1196 0.961 . S
C1183 C1180 1.539 . S
C1183 H1197 0.958 . S
C1183 H1198 0.961 . S
C1183 H1199 0.960 . S
H1184 C1168 0.931 . S
H1185 C1173 0.929 . S
H1186 C1174 0.960 . S
H1187 C1174 0.962 . S
H1188 C1174 0.960 . S
H1189 C1175 0.961 . S
H1190 C1175 0.961 . S
H1191 C1175 0.961 . S
H1192 C1176 0.931 . S
H1193 C1181 0.930 . S
H1194 C1182 0.956 . S
H1195 C1182 0.961 . S
H1196 C1182 0.961 . S
H1197 C1183 0.958 . S
H1198 C1183 0.961 . S
H1199 C1183 0.960 . S
C1200 C1201 1.391 . S
C1200 C1202 1.394 . S
C1200 H1216 0.931 . S
C1201 C1200 1.391 . S
C1201 C1205 1.376 . S
C1202 C1200 1.394 . S
C1202 C1203 1.369 . S
C1202 C1206 1.531 . S
C1203 C1202 1.369 . S
C1203 C1204 1.410 . S
C1203 C1211 1.503 . S
C1204 C1203 1.410 . S
C1204 C1205 1.392 . S
C1204 C1207 1.511 . S
C1205 C1201 1.376 . S
C1205 C1204 1.392 . S
C1205 H1217 0.929 . S
C1206 C1202 1.531 . S
C1206 H1218 0.960 . S
C1206 H1219 0.962 . S
C1206 H1220 0.960 . S
C1207 C1204 1.511 . S
C1207 H1221 0.961 . S
C1207 H1222 0.961 . S
C1207 H1223 0.961 . S
C1208 C1209 1.370 . S
C1208 C1210 1.363 . S
C1208 H1224 0.931 . S
C1209 C1208 1.370 . S
C1209 C1213 1.408 . S
C1210 C1208 1.363 . S
C1210 C1211 1.370 . S
C1210 C1214 1.524 . S
C1211 C1203 1.503 . S
C1211 C1210 1.370 . S
C1211 C1212 1.403 . S
C1212 C1211 1.403 . S
C1212 C1213 1.404 . S
C1212 C1215 1.539 . S
C1213 C1209 1.408 . S
C1213 C1212 1.404 . S
C1213 H1225 0.930 . S
C1214 C1210 1.524 . S
C1214 H1226 0.956 . S
C1214 H1227 0.961 . S
C1214 H1228 0.961 . S
C1215 C1212 1.539 . S
C1215 H1229 0.958 . S
C1215 H1230 0.961 . S
C1215 H1231 0.960 . S
H1216 C1200 0.931 . S
H1217 C1205 0.929 . S
H1218 C1206 0.960 . S
H1219 C1206 0.962 . S
H1220 C1206 0.960 . S
H1221 C1207 0.961 . S
H1222 C1207 0.961 . S
H1223 C1207 0.961 . S
H1224 C1208 0.931 . S
H1225 C1213 0.930 . S
H1226 C1214 0.956 . S
H1227 C1214 0.961 . S
H1228 C1214 0.961 . S
H1229 C1215 0.958 . S
H1230 C1215 0.961 . S
H1231 C1215 0.960 . S
C1232 C1233 1.391 . S
C1232 C1234 1.394 . S
C1232 H1248 0.931 . S
C1233 C1232 1.391 . S
C1233 C1237 1.376 . S
C1234 C1232 1.394 . S
C1234 C1235 1.369 . S
C1234 C1238 1.531 . S
C1235 C1234 1.369 . S
C1235 C1236 1.410 . S
C1235 C1243 1.503 . S
C1236 C1235 1.410 . S
C1236 C1237 1.392 . S
C1236 C1239 1.511 . S
C1237 C1233 1.376 . S
C1237 C1236 1.392 . S
C1237 H1249 0.929 . S
C1238 C1234 1.531 . S
C1238 H1250 0.960 . S
C1238 H1251 0.962 . S
C1238 H1252 0.960 . S
C1239 C1236 1.511 . S
C1239 H1253 0.961 . S
C1239 H1254 0.961 . S
C1239 H1255 0.961 . S
C1240 C1241 1.370 . S
C1240 C1242 1.363 . S
C1240 H1256 0.931 . S
C1241 C1240 1.370 . S
C1241 C1245 1.408 . S
C1242 C1240 1.363 . S
C1242 C1243 1.370 . S
C1242 C1246 1.524 . S
C1243 C1235 1.503 . S
C1243 C1242 1.370 . S
C1243 C1244 1.403 . S
C1244 C1243 1.403 . S
C1244 C1245 1.404 . S
C1244 C1247 1.539 . S
C1245 C1241 1.408 . S
C1245 C1244 1.404 . S
C1245 H1257 0.930 . S
C1246 C1242 1.524 . S
C1246 H1258 0.956 . S
C1246 H1259 0.961 . S
C1246 H1260 0.961 . S
C1247 C1244 1.539 . S
C1247 H1261 0.958 . S
C1247 H1262 0.961 . S
C1247 H1263 0.960 . S
H1248 C1232 0.931 . S
H1249 C1237 0.929 . S
H1250 C1238 0.960 . S
H1251 C1238 0.962 . S
H1252 C1238 0.960 . S
H1253 C1239 0.961 . S
H1254 C1239 0.961 . S
H1255 C1239 0.961 . S
H1256 C1240 0.931 . S
H1257 C1245 0.930 . S
H1258 C1246 0.956 . S
H1259 C1246 0.961 . S
H1260 C1246 0.961 . S
H1261 C1247 0.958 . S
H1262 C1247 0.961 . S
H1263 C1247 0.960 . S
C1264 C1265 1.391 . S
C1264 C1266 1.394 . S
C1264 H1280 0.931 . S
C1265 C1264 1.391 . S
C1265 C1269 1.376 . S
C1266 C1264 1.394 . S
C1266 C1267 1.369 . S
C1266 C1270 1.531 . S
C1267 C1266 1.369 . S
C1267 C1268 1.410 . S
C1267 C1275 1.503 . S
C1268 C1267 1.410 . S
C1268 C1269 1.392 . S
C1268 C1271 1.511 . S
C1269 C1265 1.376 . S
C1269 C1268 1.392 . S
C1269 H1281 0.929 . S
C1270 C1266 1.531 . S
C1270 H1282 0.960 . S
C1270 H1283 0.962 . S
C1270 H1284 0.960 . S
C1271 C1268 1.511 . S
C1271 H1285 0.961 . S
C1271 H1286 0.961 . S
C1271 H1287 0.961 . S
C1272 C1273 1.370 . S
C1272 C1274 1.363 . S
C1272 H1288 0.931 . S
C1273 C1272 1.370 . S
C1273 C1277 1.408 . S
C1274 C1272 1.363 . S
C1274 C1275 1.370 . S
C1274 C1278 1.524 . S
C1275 C1267 1.503 . S
C1275 C1274 1.370 . S
C1275 C1276 1.403 . S
C1276 C1275 1.403 . S
C1276 C1277 1.404 . S
C1276 C1279 1.539 . S
C1277 C1273 1.408 . S
C1277 C1276 1.404 . S
C1277 H1289 0.930 . S
C1278 C1274 1.524 . S
C1278 H1290 0.956 . S
C1278 H1291 0.961 . S
C1278 H1292 0.961 . S
C1279 C1276 1.539 . S
C1279 H1293 0.958 . S
C1279 H1294 0.961 . S
C1279 H1295 0.960 . S
H1280 C1264 0.931 . S
H1281 C1269 0.929 . S
H1282 C1270 0.960 . S
H1283 C1270 0.962 . S
H1284 C1270 0.960 . S
H1285 C1271 0.961 . S
H1286 C1271 0.961 . S
H1287 C1271 0.961 . S
H1288 C1272 0.931 . S
H1289 C1277 0.930 . S
H1290 C1278 0.956 . S
H1291 C1278 0.961 . S
H1292 C1278 0.961 . S
H1293 C1279 0.958 . S
H1294 C1279 0.961 . S
H1295 C1279 0.960 . S
C1296 C1297 1.391 . S
C1296 C1298 1.394 . S
C1296 H1312 0.931 . S
C1297 C1296 1.391 . S
C1297 C1301 1.376 . S
C1298 C1296 1.394 . S
C1298 C1299 1.369 . S
C1298 C1302 1.531 . S
C1299 C1298 1.369 . S
C1299 C1300 1.410 . S
C1299 C1307 1.503 . S
C1300 C1299 1.410 . S
C1300 C1301 1.392 . S
C1300 C1303 1.511 . S
C1301 C1297 1.376 . S
C1301 C1300 1.392 . S
C1301 H1313 0.929 . S
C1302 C1298 1.531 . S
C1302 H1314 0.960 . S
C1302 H1315 0.962 . S
C1302 H1316 0.960 . S
C1303 C1300 1.511 . S
C1303 H1317 0.961 . S
C1303 H1318 0.961 . S
C1303 H1319 0.961 . S
C1304 C1305 1.370 . S
C1304 C1306 1.363 . S
C1304 H1320 0.931 . S
C1305 C1304 1.370 . S
C1305 C1309 1.408 . S
C1306 C1304 1.363 . S
C1306 C1307 1.370 . S
C1306 C1310 1.524 . S
C1307 C1299 1.503 . S
C1307 C1306 1.370 . S
C1307 C1308 1.403 . S
C1308 C1307 1.403 . S
C1308 C1309 1.404 . S
C1308 C1311 1.539 . S
C1309 C1305 1.408 . S
C1309 C1308 1.404 . S
C1309 H1321 0.930 . S
C1310 C1306 1.524 . S
C1310 H1322 0.956 . S
C1310 H1323 0.961 . S
C1310 H1324 0.961 . S
C1311 C1308 1.539 . S
C1311 H1325 0.958 . S
C1311 H1326 0.961 . S
C1311 H1327 0.960 . S
H1312 C1296 0.931 . S
H1313 C1301 0.929 . S
H1314 C1302 0.960 . S
H1315 C1302 0.962 . S
H1316 C1302 0.960 . S
H1317 C1303 0.961 . S
H1318 C1303 0.961 . S
H1319 C1303 0.961 . S
H1320 C1304 0.931 . S
H1321 C1309 0.930 . S
H1322 C1310 0.956 . S
H1323 C1310 0.961 . S
H1324 C1310 0.961 . S
H1325 C1311 0.958 . S
H1326 C1311 0.961 . S
H1327 C1311 0.960 . S
C1328 C1329 1.391 . S
C1328 C1330 1.394 . S
C1328 H1344 0.931 . S
C1329 C1328 1.391 . S
C1329 C1333 1.376 . S
C1330 C1328 1.394 . S
C1330 C1331 1.369 . S
C1330 C1334 1.531 . S
C1331 C1330 1.369 . S
C1331 C1332 1.410 . S
C1331 C1339 1.503 . S
C1332 C1331 1.410 . S
C1332 C1333 1.392 . S
C1332 C1335 1.511 . S
C1333 C1329 1.376 . S
C1333 C1332 1.392 . S
C1333 H1345 0.929 . S
C1334 C1330 1.531 . S
C1334 H1346 0.960 . S
C1334 H1347 0.962 . S
C1334 H1348 0.960 . S
C1335 C1332 1.511 . S
C1335 H1349 0.961 . S
C1335 H1350 0.961 . S
C1335 H1351 0.961 . S
C1336 C1337 1.370 . S
C1336 C1338 1.363 . S
C1336 H1352 0.931 . S
C1337 C1336 1.370 . S
C1337 C1341 1.408 . S
C1338 C1336 1.363 . S
C1338 C1339 1.370 . S
C1338 C1342 1.524 . S
C1339 C1331 1.503 . S
C1339 C1338 1.370 . S
C1339 C1340 1.403 . S
C1340 C1339 1.403 . S
C1340 C1341 1.404 . S
C1340 C1343 1.539 . S
C1341 C1337 1.408 . S
C1341 C1340 1.404 . S
C1341 H1353 0.930 . S
C1342 C1338 1.524 . S
C1342 H1354 0.956 . S
C1342 H1355 0.961 . S
C1342 H1356 0.961 . S
C1343 C1340 1.539 . S
C1343 H1357 0.958 . S
C1343 H1358 0.961 . S
C1343 H1359 0.960 . S
H1344 C1328 0.931 . S
H1345 C1333 0.929 . S
H1346 C1334 0.960 . S
H1347 C1334 0.962 . S
H1348 C1334 0.960 . S
H1349 C1335 0.961 . S
H1350 C1335 0.961 . S
H1351 C1335 0.961 . S
H1352 C1336 0.931 . S
H1353 C1341 0.930 . S
H1354 C1342 0.956 . S
H1355 C1342 0.961 . S
H1356 C1342 0.961 . S
H1357 C1343 0.958 . S
H1358 C1343 0.961 . S
H1359 C1343 0.960 . S
C1360 C1361 1.391 . S
C1360 C1362 1.394 . S
C1360 H1376 0.931 . S
C1361 C1360 1.391 . S
C1361 C1365 1.376 . S
C1362 C1360 1.394 . S
C1362 C1363 1.369 . S
C1362 C1366 1.531 . S
C1363 C1362 1.369 . S
C1363 C1364 1.410 . S
C1363 C1371 1.503 . S
C1364 C1363 1.410 . S
C1364 C1365 1.392 . S
C1364 C1367 1.511 . S
C1365 C1361 1.376 . S
C1365 C1364 1.392 . S
C1365 H1377 0.929 . S
C1366 C1362 1.531 . S
C1366 H1378 0.960 . S
C1366 H1379 0.962 . S
C1366 H1380 0.960 . S
C1367 C1364 1.511 . S
C1367 H1381 0.961 . S
C1367 H1382 0.961 . S
C1367 H1383 0.961 . S
C1368 C1369 1.370 . S
C1368 C1370 1.363 . S
C1368 H1384 0.931 . S
C1369 C1368 1.370 . S
C1369 C1373 1.408 . S
C1370 C1368 1.363 . S
C1370 C1371 1.370 . S
C1370 C1374 1.524 . S
C1371 C1363 1.503 . S
C1371 C1370 1.370 . S
C1371 C1372 1.403 . S
C1372 C1371 1.403 . S
C1372 C1373 1.404 . S
C1372 C1375 1.539 . S
C1373 C1369 1.408 . S
C1373 C1372 1.404 . S
C1373 H1385 0.930 . S
C1374 C1370 1.524 . S
C1374 H1386 0.956 . S
C1374 H1387 0.961 . S
C1374 H1388 0.961 . S
C1375 C1372 1.539 . S
C1375 H1389 0.958 . S
C1375 H1390 0.961 . S
C1375 H1391 0.960 . S
H1376 C1360 0.931 . S
H1377 C1365 0.929 . S
H1378 C1366 0.960 . S
H1379 C1366 0.962 . S
H1380 C1366 0.960 . S
H1381 C1367 0.961 . S
H1382 C1367 0.961 . S
H1383 C1367 0.961 . S
H1384 C1368 0.931 . S
H1385 C1373 0.930 . S
H1386 C1374 0.956 . S
H1387 C1374 0.961 . S
H1388 C1374 0.961 . S
H1389 C1375 0.958 . S
H1390 C1375 0.961 . S
H1391 C1375 0.960 . S
C625 C247 1.477 . S
C633 C344 1.452 . S
C665 C428 1.468 . S
C657 C283 1.475 . S
C697 C427 1.471 . S
C689 C175 1.468 . S
C721 C211 1.470 . S
C729 C343 1.463 . S
C761 C524 1.453 . S
C753 C103 1.453 . S
C793 C608 1.455 . S
C785 C139 1.471 . S
C817 C31 1.466 . S
C825 C607 1.464 . S
C849 C67 1.450 . S
C857 C523 1.470 . S
C889 C346 1.350 . S
C881 C37 1.497 1_554 S
C921 C430 1.313 . S
C913 C1 1.515 . S
C953 C442 1.404 . S
C945 C109 1.539 1_556 S
C985 C358 1.404 . S
C977 C73 1.514 . S
C1017 C526 1.334 . S
C1009 C181 1.517 1_556 S
C1041 C145 1.520 . S
C1049 C610 1.311 . S
C1081 C598 1.391 . S
C1073 C253 1.536 1_554 S
C1105 C217 1.538 . S
C1113 C514 1.415 . S
C1145 C355 1.578 . S
C1137 C25 1.563 . S
C1177 C439 1.579 . S
C1169 C61 1.571 . S
C1201 C97 1.521 . S
C1209 C440 1.555 . S
C1241 C356 1.550 . S
C1233 C133 1.527 . S
C1273 C511 1.585 . S
C1265 C169 1.560 . S
C1297 C205 1.573 . S
C1305 C595 1.581 . S
C1329 C241 1.568 . S
C1337 C596 1.563 . S
C1361 C277 1.545 . S
C1369 C512 1.550 . S
