# Generated by pormake.
# Topology rtl, (3,6)-cn, num edge types: 1
# Building blocks:
#     Node 0, Type 0, BuildingBlock: CUQRIR_clean_linker_1, # of connection points: 3
#     Node 1, Type 0, BuildingBlock: CUQRIR_clean_linker_1, # of connection points: 3
#     Node 2, Type 0, BuildingBlock: CUQRIR_clean_linker_1, # of connection points: 3
#     Node 3, Type 0, BuildingBlock: CUQRIR_clean_linker_1, # of connection points: 3
#     Node 4, Type 1, BuildingBlock: KUMJIN_clean_sbu_1, # of connection points: 6
#     Node 5, Type 1, BuildingBlock: KUMJIN_clean_sbu_1, # of connection points: 6
#     Edge 6, Type (0, 1), BuildingBlock: OJICUG_clean_linker_0, # of connection points: 2
#     Edge 7, Type (0, 1), BuildingBlock: OJICUG_clean_linker_0, # of connection points: 2
#     Edge 8, Type (0, 1), BuildingBlock: OJICUG_clean_linker_0, # of connection points: 2
#     Edge 9, Type (0, 1), BuildingBlock: OJICUG_clean_linker_0, # of connection points: 2
#     Edge 10, Type (0, 1), BuildingBlock: OJICUG_clean_linker_0, # of connection points: 2
#     Edge 11, Type (0, 1), BuildingBlock: OJICUG_clean_linker_0, # of connection points: 2
#     Edge 12, Type (0, 1), BuildingBlock: OJICUG_clean_linker_0, # of connection points: 2
#     Edge 13, Type (0, 1), BuildingBlock: OJICUG_clean_linker_0, # of connection points: 2
#     Edge 14, Type (0, 1), BuildingBlock: OJICUG_clean_linker_0, # of connection points: 2
#     Edge 15, Type (0, 1), BuildingBlock: OJICUG_clean_linker_0, # of connection points: 2
#     Edge 16, Type (0, 1), BuildingBlock: OJICUG_clean_linker_0, # of connection points: 2
#     Edge 17, Type (0, 1), BuildingBlock: OJICUG_clean_linker_0, # of connection points: 2
# Relax obj value: 0.067
# Max RMSD: 0.252
# Mean RMSD: 0.191
data_MOF--net-rtl--node1-KUMJIN_clean_sbu_1--node2-CUQRIR_clean_linker_1--edge1-OJICUG_clean_linker_0
_symmetry_space_group_name_H-M    P1
_symmetry_Int_Tables_number       1
_symmetry_cell_setting            triclinic
loop_
_symmetry_equiv_pos_as_xyz
'x, y, z'
_cell_length_a     23.653154
_cell_length_b     23.957797
_cell_length_c     18.504961
_cell_angle_alpha  71.869933
_cell_angle_beta   98.152978
_cell_angle_gamma 91.73101
loop_
_atom_site_label
_atom_site_type_symbol
_atom_site_fract_x
_atom_site_fract_y
_atom_site_fract_z
_atom_type_partial_charge
C0 C 0.26393 0.83579 0.96892 0.0
N1 N 0.2206 0.86607 0.98041 0.0
N2 N 0.2883 0.79759 0.03564 0.0
C3 C 0.28156 0.84275 0.89166 0.0
C4 C 0.2585 0.80597 0.08886 0.0
N5 N 0.2172 0.84796 0.05532 0.0
C6 C 0.26514 0.76791 0.17145 0.0
H7 H 0.25602 0.81276 0.86521 0.0
H8 H 0.32748 0.8315 0.8973 0.0
H9 H 0.27331 0.88844 0.85316 0.0
H10 H 0.2987 0.78648 0.20527 0.0
H11 H 0.27872 0.72267 0.17698 0.0
H12 H 0.22464 0.76586 0.19588 0.0
C13 C 0.74778 0.74022 0.76547 0.0
N14 N 0.70867 0.69948 0.75578 0.0
N15 N 0.77609 0.7602 0.70362 0.0
C16 C 0.76218 0.75628 0.83818 0.0
C17 C 0.75265 0.73012 0.65589 0.0
N18 N 0.71219 0.69305 0.68765 0.0
C19 C 0.76793 0.73814 0.57705 0.0
H20 H 0.73437 0.79352 0.83556 0.0
H21 H 0.80739 0.76966 0.84575 0.0
H22 H 0.75468 0.71862 0.88848 0.0
H23 H 0.80311 0.70704 0.58188 0.0
H24 H 0.78238 0.78354 0.5509 0.0
H25 H 0.73111 0.7287 0.53855 0.0
C26 C 0.77056 0.22168 0.19721 0.0
N27 N 0.80706 0.18546 0.18297 0.0
N28 N 0.73643 0.25105 0.13217 0.0
C29 C 0.77105 0.23137 0.27371 0.0
C30 C 0.75443 0.23191 0.07736 0.0
N31 N 0.79773 0.19203 0.10833 0.0
C32 C 0.72744 0.24943 0.99476 0.0
H33 H 0.73872 0.2026 0.30436 0.0
H34 H 0.76031 0.27771 0.26656 0.0
H35 H 0.81319 0.22016 0.30966 0.0
H36 H 0.74991 0.28804 0.96117 0.0
H37 H 0.68178 0.26161 0.98931 0.0
H38 H 0.73098 0.21312 0.97021 0.0
C39 C 0.2984 0.30046 0.43177 0.0
N40 N 0.33754 0.3417 0.43907 0.0
N41 N 0.28072 0.27185 0.50052 0.0
C42 C 0.27639 0.28939 0.35716 0.0
C43 C 0.31107 0.29738 0.54946 0.0
N44 N 0.3452 0.33975 0.51229 0.0
C45 C 0.31019 0.27917 0.63484 0.0
H46 H 0.23091 0.27648 0.35553 0.0
H47 H 0.30181 0.25313 0.35164 0.0
H48 H 0.2805 0.32867 0.3073 0.0
H49 H 0.29888 0.23224 0.65736 0.0
H50 H 0.27832 0.30658 0.64753 0.0
H51 H 0.35252 0.28629 0.66493 0.0
Eu52 Eu 0.05166 0.97687 0.52869 0.0
C53 C 0.89788 0.1943 0.51925 0.0
N54 N 0.95226 0.18026 0.55441 0.0
C55 C 0.97529 0.28239 0.52449 0.0
C56 C 0.87978 0.25358 0.48663 0.0
C57 C 0.9908 0.22314 0.55785 0.0
C58 C 0.91942 0.29774 0.48904 0.0
C59 C 0.80326 0.16297 0.47989 0.0
C60 C 0.86019 0.14936 0.51542 0.0
C61 C 0.78435 0.22178 0.45154 0.0
C62 C 0.82272 0.267 0.45366 0.0
Eu63 Eu 0.97158 0.07971 0.6193 0.0
N64 N 0.87921 0.0926 0.54546 0.0
C65 C 0.76693 0.11713 0.47353 0.0
C66 C 0.84386 0.04796 0.53846 0.0
C67 C 0.78761 0.05945 0.50202 0.0
H68 H 0.03277 0.21184 0.589 0.0
H69 H 0.76004 0.02365 0.49668 0.0
H70 H 0.97242 0.87865 0.46715 0.0
H71 H 0.26663 0.95334 0.69131 0.0
H72 H 0.85828 1.0034 0.5601 0.0
H73 H 0.72311 0.12583 0.44604 0.0
H74 H 0.18131 0.00783 0.61155 0.0
H75 H 1.00608 0.31618 0.52777 0.0
H76 H 0.74043 0.23286 0.42581 0.0
H77 H 0.80784 0.31222 0.42949 0.0
H78 H 0.97244 0.7709 0.49022 0.0
H79 H 0.9072 0.34372 0.46438 0.0
H80 H 0.27041 0.845 0.72751 0.0
N81 N 0.04794 0.87589 0.54534 0.0
C82 C 0.09234 0.84308 0.5927 0.0
C83 C 1.00616 0.79062 0.51969 0.0
C84 C 0.09428 0.78178 0.60715 0.0
C85 C 1.00611 0.85132 0.50688 0.0
C86 C 0.04998 0.75559 0.57089 0.0
N87 N 0.13625 0.93094 0.60489 0.0
C88 C 0.18219 0.96059 0.62731 0.0
C89 C 0.1859 0.83856 0.66831 0.0
C90 C 0.13786 0.87132 0.62279 0.0
C91 C 0.23241 0.86859 0.69345 0.0
C92 C 0.2306 0.92981 0.67268 0.0
H93 H 0.05 0.70861 0.58048 0.0
H94 H 0.14309 0.70165 0.6674 0.0
H95 H 0.22312 0.75129 0.72102 0.0
O96 O 0.05895 0.03153 0.41058 0.0
O97 O 0.06829 0.95479 0.65789 0.0
O98 O 0.05318 0.03755 0.69263 0.0
O99 O 0.09144 0.94241 0.45192 0.0
O100 O 0.09673 0.06208 0.52823 0.0
O101 O 0.06284 0.10938 0.60702 0.0
O102 O 0.91468 0.06113 0.70673 0.0
O103 O 0.97341 0.10413 0.49117 0.0
O104 O 0.96305 0.0127 0.48015 0.0
O105 O 0.97404 0.13233 0.69736 0.0
O106 O 0.95013 0.98162 0.65636 0.0
O107 O 0.96526 0.94258 0.56013 0.0
C108 C 0.07339 0.98414 0.70771 0.0
C109 C 0.05369 0.97645 0.32255 0.0
C110 C 0.06663 0.93739 0.21766 0.0
C111 C 1.00658 0.9317 0.20475 0.0
C112 C 0.99453 0.97052 0.308 0.0
C113 C 0.97116 0.94918 0.24847 0.0
C114 C 0.08903 0.96202 0.27598 0.0
C115 C 0.09965 0.10314 0.56236 0.0
C116 C 0.08021 0.98875 0.39271 0.0
C117 C 0.1411 0.74888 0.65509 0.0
C118 C 0.18675 0.77717 0.68555 0.0
C119 C 0.95657 0.06949 0.45009 0.0
C120 C 0.94961 0.08317 0.82003 0.0
C121 C 0.9308 0.0904 0.94312 0.0
C122 C 0.97329 0.04729 0.98078 0.0
C123 C 0.99185 0.04032 0.85839 0.0
C124 C 0.91942 0.10829 0.8624 0.0
C125 C 1.00386 0.02284 0.93836 0.0
C126 C 0.94436 0.93939 0.62384 0.0
C127 C 0.93586 0.10142 0.73605 0.0
H128 H 0.98597 0.91241 0.1626 0.0
H129 H 0.96669 0.98056 0.34408 0.0
H130 H 0.92538 0.94408 0.23789 0.0
H131 H 0.13422 0.96896 0.28798 0.0
H132 H 0.9833 0.03309 0.0428 0.0
H133 H 0.01525 0.02026 0.8266 0.0
H134 H 0.88633 0.14097 0.83255 0.0
H135 H 0.03698 0.99026 0.9673 0.0
Eu136 Eu 0.45972 0.49114 1.01286 0.0
C137 C 0.70165 0.55114 0.12905 0.0
N138 N 0.66658 0.51323 0.17217 0.0
C139 C 0.74177 0.44048 0.21834 0.0
C140 C 0.75758 0.53407 0.12596 0.0
C141 C 0.68714 0.46004 0.22072 0.0
C142 C 0.7767 0.47717 0.16933 0.0
C143 C 0.72114 0.65145 0.05704 0.0
C144 C 0.68367 0.60894 0.09468 0.0
C145 C 0.77551 0.6339 0.04932 0.0
C146 C 0.79359 0.57522 0.08337 0.0
Eu147 Eu 0.57226 0.54796 0.16453 0.0
N148 N 0.63127 0.62454 0.1041 0.0
C149 C 0.70383 0.71061 0.03179 0.0
C150 C 0.61563 0.68235 0.08446 0.0
C151 C 0.65125 0.7262 0.0468 0.0
H152 H 0.66091 0.43199 0.26027 0.0
H153 H 0.63814 0.7719 0.02929 0.0
H154 H 0.32821 0.53107 0.0239 0.0
H155 H 0.5347 0.26882 0.04679 0.0
H156 H 0.57475 0.69414 0.09583 0.0
H157 H 0.73153 0.74471 1.00321 0.0
H158 H 0.53061 0.37686 0.9927 0.0
H159 H 0.75704 0.39735 0.25473 0.0
H160 H 0.80477 0.66575 0.01992 0.0
H161 H 0.83646 0.56275 0.07955 0.0
H162 H 0.24346 0.48657 0.08393 0.0
H163 H 0.8193 0.46226 0.16836 0.0
H164 H 0.46454 0.21714 0.13105 0.0
N165 N 0.3757 0.45097 0.06255 0.0
C166 C 0.37565 0.39217 0.09749 0.0
C167 C 0.28049 0.45958 0.08856 0.0
C168 C 0.32862 0.36485 0.13269 0.0
C169 C 0.32825 0.48461 0.05454 0.0
C170 C 0.28107 0.3996 0.12907 0.0
N171 N 0.46292 0.38677 0.05255 0.0
C172 C 0.50108 0.355 0.03168 0.0
C173 C 0.42051 0.29723 0.12318 0.0
C174 C 0.42107 0.35901 0.09301 0.0
C175 C 0.46339 0.26468 0.10888 0.0
C176 C 0.50299 0.29367 0.06127 0.0
H177 H 0.24405 0.38029 0.15536 0.0
H178 H 0.29424 0.28188 0.1956 0.0
H179 H 0.37485 0.22257 0.18741 0.0
O180 O 0.42101 0.46012 0.91786 0.0
O181 O 0.43587 0.49388 0.12761 0.0
O182 O 0.51974 0.46701 0.20816 0.0
O183 O 0.42716 0.55298 0.90093 0.0
O184 O 0.55228 0.46091 0.03941 0.0
O185 O 0.57329 0.45201 0.16714 0.0
O186 O 0.53537 0.57513 0.25066 0.0
O187 O 0.55715 0.59927 0.03591 0.0
O188 O 0.54554 0.52641 0.98008 0.0
O189 O 0.62609 0.56191 0.26362 0.0
O190 O 0.49238 0.60508 0.11874 0.0
O191 O 0.43381 0.5791 0.02095 0.0
C192 C 0.46374 0.46796 0.19624 0.0
C193 C 0.44112 0.51926 0.79658 0.0
C194 C 0.44291 0.49133 0.68032 0.0
C195 C 0.49157 0.52578 0.66539 0.0
C196 C 0.48971 0.55364 0.78021 0.0
C197 C 0.51464 0.55683 0.71499 0.0
C198 C 0.41778 0.48851 0.74609 0.0
C199 C 0.58005 0.43521 0.10774 0.0
C200 C 0.41641 0.51229 0.86802 0.0
C201 C 0.32969 0.3037 0.16755 0.0
C202 C 0.37563 0.26993 0.16292 0.0
C203 C 0.56509 0.5781 0.98053 0.0
C204 C 0.58524 0.54648 0.37711 0.0
C205 C 0.60792 0.55223 0.50775 0.0
C206 C 0.59514 0.49238 0.5365 0.0
C207 C 0.57201 0.487 0.40688 0.0
C208 C 0.60243 0.57913 0.42765 0.0
C209 C 0.57662 0.46026 0.48627 0.0
C210 C 0.44735 0.6129 0.06521 0.0
C211 C 0.58387 0.57454 0.29388 0.0
H212 H 0.51133 0.52916 0.61494 0.0
H213 H 0.50872 0.57768 0.81803 0.0
H214 H 0.55216 0.58326 0.70309 0.0
H215 H 0.38089 0.46116 0.75915 0.0
H216 H 0.59931 0.47057 0.59784 0.0
H217 H 0.5589 0.46122 0.36877 0.0
H218 H 0.61338 0.62494 0.40467 0.0
H219 H 0.56654 0.41427 0.50898 0.0
C220 C 0.19559 0.23346 0.56326 0.0
C221 C 0.23637 0.22848 0.51718 0.0
H222 H 0.12479 0.19561 0.61976 0.0
C223 C 0.2333 0.18037 0.48869 0.0
H224 H 0.19605 0.27032 0.58532 0.0
C225 C 0.1893 0.13954 0.50367 0.0
C226 C 0.14825 0.14475 0.54967 0.0
H227 H 0.26489 0.17428 0.45478 0.0
H228 H 0.18764 0.10385 0.47915 0.0
C229 C 0.15339 0.19126 0.58125 0.0
C230 C 0.31632 0.71234 1.00103 0.0
C231 C 0.32816 0.75106 0.04437 0.0
H232 H 0.3448 0.63948 0.97209 0.0
C233 C 0.37944 0.7446 0.09462 0.0
H234 H 0.27644 0.71604 0.96295 0.0
C235 C 0.41871 0.70022 0.10084 0.0
C236 C 0.4072 0.6616 0.05673 0.0
H237 H 0.38916 0.77424 0.12836 0.0
H238 H 0.45796 0.69623 0.14026 0.0
C239 C 0.3555 0.6684 1.00664 0.0
C240 C 0.87108 0.7917 0.6656 0.0
C241 C 0.8208 0.80331 0.69096 0.0
H242 H 0.95011 0.82489 0.62713 0.0
C243 C 0.814 0.85831 0.7012 0.0
H244 H 0.87838 0.74902 0.65979 0.0
C245 C 0.85555 0.90158 0.68328 0.0
C246 C 0.904 0.89131 0.65262 0.0
H247 H 0.77572 0.86839 0.72084 0.0
H248 H 0.84843 0.9439 0.69036 0.0
C249 C 0.91201 0.83527 0.64637 0.0
C250 C 0.69707 0.35105 0.06725 0.0
C251 C 0.69511 0.29637 0.12365 0.0
H252 H 0.66156 0.43812 0.01829 0.0
C253 C 0.65518 0.28793 0.17552 0.0
H254 H 0.7283 0.3591 0.02787 0.0
C255 C 0.61909 0.33391 0.17256 0.0
C256 C 0.62091 0.38818 0.11568 0.0
H257 H 0.65228 0.24583 0.2187 0.0
H258 H 0.58864 0.3266 0.21304 0.0
C259 C 0.6596 0.39632 0.06253 0.0
C260 C 0.20091 0.88659 0.15947 0.0
C261 C 0.17917 0.87137 0.09383 0.0
H262 H 0.1846 0.91457 0.25187 0.0
C263 C 0.12039 0.87841 0.06799 0.0
H264 H 0.24618 0.88208 0.18043 0.0
C265 C 0.08437 0.90096 0.10646 0.0
C266 C 0.10563 0.91545 0.17374 0.0
H267 H 0.10175 0.86561 0.01882 0.0
H268 H 0.03987 0.90648 0.08245 0.0
C269 C 0.16487 0.90692 0.19968 0.0
C270 C 0.63607 0.7007 0.83945 0.0
C271 C 0.67032 0.66904 0.80908 0.0
H272 H 0.57589 0.69689 0.91755 0.0
C273 C 0.66908 0.60747 0.83497 0.0
H274 H 0.63605 0.74824 0.82011 0.0
C275 C 0.63434 0.57816 0.88992 0.0
C276 C 0.60097 0.60978 0.92146 0.0
H277 H 0.69623 0.58191 0.81456 0.0
H278 H 0.63457 0.53061 0.90899 0.0
C279 C 0.60193 0.67138 0.89533 0.0
C280 C 0.90128 0.17833 0.25927 0.0
C281 C 0.85135 0.1509 0.23819 0.0
H282 H 0.97356 0.17401 0.34506 0.0
C283 C 0.83939 0.09401 0.28284 0.0
H284 H 0.91007 0.22285 0.22612 0.0
C285 C 0.876 0.06552 0.34956 0.0
C286 C 0.92367 0.09478 0.37377 0.0
H287 H 0.80003 0.0732 0.26828 0.0
H288 H 0.86488 0.02244 0.38486 0.0
C289 C 0.93688 0.15078 0.32733 0.0
C290 C 0.33624 0.42194 0.56232 0.0
C291 C 0.37126 0.38447 0.54232 0.0
H292 H 0.33141 0.48518 0.6215 0.0
C293 C 0.43057 0.3854 0.56268 0.0
H294 H 0.2903 0.42128 0.5475 0.0
C295 C 0.45429 0.42189 0.60511 0.0
C296 C 0.41885 0.45733 0.6285 0.0
H297 H 0.45811 0.35587 0.54921 0.0
H298 H 0.49999 0.42018 0.62295 0.0
C299 C 0.35969 0.45788 0.60516 0.0
C300 C 0.7031 0.59855 0.66134 0.0
C301 C 0.67989 0.6537 0.65313 0.0
H302 H 0.69763 0.52258 0.62291 0.0
C303 C 0.63078 0.6741 0.59993 0.0
H304 H 0.74206 0.58306 0.70031 0.0
C305 C 0.60633 0.64058 0.55378 0.0
C306 C 0.63022 0.58571 0.561 0.0
H307 H 0.61325 0.71724 0.59155 0.0
H308 H 0.56946 0.65797 0.51141 0.0
C309 C 0.67796 0.56438 0.61669 0.0
C310 C 0.85668 0.20227 1.00539 0.0
C311 C 0.83195 0.16634 0.06804 0.0
H312 H 0.90752 0.20641 0.91688 0.0
C313 C 0.84105 0.10535 0.09078 0.0
H314 H 0.85108 0.24951 0.98782 0.0
C315 C 0.87417 0.08064 0.05128 0.0
C316 C 0.89798 0.11655 0.98752 0.0
H317 H 0.82153 0.07672 0.13796 0.0
H318 H 0.87991 0.03337 0.06933 0.0
C319 C 0.88906 0.17764 0.96516 0.0
C320 C 0.42712 0.36155 0.38291 0.0
C321 C 0.37 0.37656 0.38102 0.0
H322 H 0.50151 0.37841 0.32583 0.0
C323 C 0.34419 0.42317 0.31954 0.0
H324 H 0.44742 0.32524 0.42951 0.0
C325 C 0.37481 0.45353 0.2599 0.0
C326 C 0.43174 0.43766 0.26069 0.0
H327 H 0.30009 0.4353 0.31727 0.0
H328 H 0.35394 0.4894 0.21321 0.0
C329 C 0.4578 0.39187 0.3235 0.0
C330 C 0.17176 0.95789 0.89636 0.0
C331 C 0.17688 0.8965 0.92017 0.0
H332 H 0.13404 0.03466 0.80923 0.0
C333 C 0.1442 0.86453 0.87795 0.0
H334 H 0.19719 0.98298 0.92832 0.0
C335 C 0.10928 0.89334 0.81035 0.0
C336 C 0.10593 0.95494 0.78375 0.0
H337 H 0.14793 0.81707 0.89588 0.0
H338 H 0.08599 0.86727 0.77784 0.0
C339 C 0.13605 0.98711 0.82846 0.0
loop_
_geom_bond_atom_site_label_1
_geom_bond_atom_site_label_2
_geom_bond_distance
_geom_bond_site_symmetry_2
_ccdc_geom_bond_type
C0 N1 1.317 . S
C0 N2 1.348 1_556 S
C0 C3 1.485 . S
N1 C0 1.317 . S
N1 N5 1.370 1_556 S
N2 C0 1.348 1_554 S
N2 C4 1.346 . S
C3 C0 1.485 . S
C3 H7 0.960 . S
C3 H8 0.961 . S
C3 H9 0.960 . S
C4 N2 1.346 . S
C4 N5 1.307 . S
C4 C6 1.486 . S
N5 N1 1.370 1_554 S
N5 C4 1.307 . S
C6 C4 1.486 . S
C6 H10 0.960 . S
C6 H11 0.960 . S
C6 H12 0.959 . S
H7 C3 0.960 . S
H8 C3 0.961 . S
H9 C3 0.960 . S
H10 C6 0.960 . S
H11 C6 0.960 . S
H12 C6 0.959 . S
C13 N14 1.317 . S
C13 N15 1.348 . S
C13 C16 1.485 . S
N14 C13 1.317 . S
N14 N18 1.370 . S
N15 C13 1.348 . S
N15 C17 1.346 . S
C16 C13 1.485 . S
C16 H20 0.960 . S
C16 H21 0.961 . S
C16 H22 0.960 . S
C17 N15 1.346 . S
C17 N18 1.307 . S
C17 C19 1.486 . S
N18 N14 1.370 . S
N18 C17 1.307 . S
C19 C17 1.486 . S
C19 H23 0.960 . S
C19 H24 0.960 . S
C19 H25 0.959 . S
H20 C16 0.960 . S
H21 C16 0.961 . S
H22 C16 0.960 . S
H23 C19 0.960 . S
H24 C19 0.960 . S
H25 C19 0.959 . S
C26 N27 1.317 . S
C26 N28 1.348 . S
C26 C29 1.485 . S
N27 C26 1.317 . S
N27 N31 1.370 . S
N28 C26 1.348 . S
N28 C30 1.346 . S
C29 C26 1.485 . S
C29 H33 0.960 . S
C29 H34 0.961 . S
C29 H35 0.960 . S
C30 N28 1.346 . S
C30 N31 1.307 . S
C30 C32 1.486 1_554 S
N31 N27 1.370 . S
N31 C30 1.307 . S
C32 C30 1.486 1_556 S
C32 H36 0.960 . S
C32 H37 0.960 . S
C32 H38 0.959 . S
H33 C29 0.960 . S
H34 C29 0.961 . S
H35 C29 0.960 . S
H36 C32 0.960 . S
H37 C32 0.960 . S
H38 C32 0.959 . S
C39 N40 1.317 . S
C39 N41 1.348 . S
C39 C42 1.485 . S
N40 C39 1.317 . S
N40 N44 1.370 . S
N41 C39 1.348 . S
N41 C43 1.346 . S
C42 C39 1.485 . S
C42 H46 0.960 . S
C42 H47 0.961 . S
C42 H48 0.960 . S
C43 N41 1.346 . S
C43 N44 1.307 . S
C43 C45 1.486 . S
N44 N40 1.370 . S
N44 C43 1.307 . S
C45 C43 1.486 . S
C45 H49 0.960 . S
C45 H50 0.960 . S
C45 H51 0.959 . S
H46 C42 0.960 . S
H47 C42 0.961 . S
H48 C42 0.960 . S
H49 C45 0.960 . S
H50 C45 0.960 . S
H51 C45 0.959 . S
Eu52 N81 2.600 . S
Eu52 N87 2.562 . S
Eu52 O96 2.462 . S
Eu52 O97 2.373 . S
Eu52 O99 2.432 . S
Eu52 O100 2.291 1_565 S
Eu52 O104 2.335 1_465 S
Eu52 O107 2.372 1_455 S
Eu52 C116 2.787 . S
C53 N54 1.365 . S
C53 C56 1.405 . S
C53 C60 1.448 . S
N54 C53 1.365 . S
N54 C57 1.319 1_655 S
N54 Eu63 2.600 . S
C55 C57 1.397 . S
C55 C58 1.367 1_455 S
C55 H75 0.931 . S
C56 C53 1.405 . S
C56 C58 1.403 . S
C56 C62 1.439 . S
C57 N54 1.319 1_455 S
C57 C55 1.397 . S
C57 H68 0.930 . S
C58 C55 1.367 1_655 S
C58 C56 1.403 . S
C58 H79 0.929 . S
C59 C60 1.430 . S
C59 C61 1.387 . S
C59 C65 1.404 . S
C60 C53 1.448 . S
C60 C59 1.430 . S
C60 N64 1.351 . S
C61 C59 1.387 . S
C61 C62 1.374 . S
C61 H76 0.931 . S
C62 C56 1.439 . S
C62 C61 1.374 . S
C62 H77 0.931 . S
Eu63 N54 2.600 . S
Eu63 N64 2.562 . S
Eu63 O98 2.335 1_655 S
Eu63 O101 2.372 1_655 S
Eu63 O102 2.462 . S
Eu63 O103 2.373 . S
Eu63 O105 2.432 . S
Eu63 O106 2.291 1_545 S
Eu63 C127 2.787 . S
N64 C60 1.351 . S
N64 Eu63 2.562 . S
N64 C66 1.325 . S
C65 C59 1.404 . S
C65 C67 1.366 . S
C65 H73 0.930 . S
C66 N64 1.325 . S
C66 C67 1.416 . S
C66 H72 0.929 . S
C67 C65 1.366 . S
C67 C66 1.416 . S
C67 H69 0.930 . S
H68 C57 0.930 . S
H69 C67 0.930 . S
H70 C85 0.930 1_655 S
H71 C92 0.930 . S
H72 C66 0.929 . S
H73 C65 0.930 . S
H74 C88 0.929 . S
H75 C55 0.931 . S
H76 C61 0.931 . S
H77 C62 0.931 . S
H78 C83 0.931 1_655 S
H79 C58 0.929 . S
H80 C91 0.930 . S
N81 Eu52 2.600 . S
N81 C82 1.365 . S
N81 C85 1.319 . S
C82 N81 1.365 . S
C82 C84 1.405 . S
C82 C90 1.448 . S
C83 H78 0.931 1_455 S
C83 C85 1.397 . S
C83 C86 1.367 . S
C84 C82 1.405 . S
C84 C86 1.403 . S
C84 C117 1.439 . S
C85 H70 0.930 1_455 S
C85 N81 1.319 . S
C85 C83 1.397 . S
C86 C83 1.367 . S
C86 C84 1.403 . S
C86 H93 0.929 . S
N87 Eu52 2.562 . S
N87 C88 1.325 . S
N87 C90 1.351 . S
C88 H74 0.929 . S
C88 N87 1.325 . S
C88 C92 1.416 . S
C89 C90 1.430 . S
C89 C91 1.404 . S
C89 C118 1.387 . S
C90 C82 1.448 . S
C90 N87 1.351 . S
C90 C89 1.430 . S
C91 H80 0.930 . S
C91 C89 1.404 . S
C91 C92 1.366 . S
C92 H71 0.930 . S
C92 C88 1.416 . S
C92 C91 1.366 . S
H93 C86 0.929 . S
H94 C117 0.931 . S
H95 C118 0.931 . S
O96 Eu52 2.462 . S
O96 C116 1.252 . S
O97 Eu52 2.373 . S
O97 C108 1.249 . S
O98 Eu63 2.335 1_455 S
O98 C108 1.264 1_545 S
O99 Eu52 2.432 . S
O99 C116 1.268 . S
O100 Eu52 2.291 1_545 S
O100 C115 1.255 . S
O101 Eu63 2.372 1_455 S
O101 C115 1.257 . S
O102 Eu63 2.462 . S
O102 C127 1.252 . S
O103 Eu63 2.373 . S
O103 C119 1.249 . S
O104 Eu52 2.335 1_645 S
O104 C119 1.264 . S
O105 Eu63 2.432 . S
O105 C127 1.268 . S
O106 Eu63 2.291 1_565 S
O106 C126 1.255 . S
O107 Eu52 2.372 1_655 S
O107 C126 1.257 . S
C108 O97 1.249 . S
C108 O98 1.264 1_565 S
C109 C112 1.382 . S
C109 C114 1.390 . S
C109 C116 1.506 . S
C110 C111 1.398 . S
C110 C114 1.392 . S
C111 C110 1.398 . S
C111 C113 1.372 . S
C111 H128 0.931 . S
C112 C109 1.382 . S
C112 C113 1.390 . S
C112 H129 0.931 . S
C113 C111 1.372 . S
C113 C112 1.390 . S
C113 H130 0.929 . S
C114 C109 1.390 . S
C114 C110 1.392 . S
C114 H131 0.930 . S
C115 O100 1.255 . S
C115 O101 1.257 . S
C116 Eu52 2.787 . S
C116 O96 1.252 . S
C116 O99 1.268 . S
C116 C109 1.506 . S
C117 C84 1.439 . S
C117 H94 0.931 . S
C117 C118 1.374 . S
C118 C89 1.387 . S
C118 H95 0.931 . S
C118 C117 1.374 . S
C119 O103 1.249 . S
C119 O104 1.264 . S
C120 C123 1.382 . S
C120 C124 1.390 . S
C120 C127 1.506 . S
C121 C122 1.398 . S
C121 C124 1.392 . S
C122 C121 1.398 . S
C122 C125 1.372 . S
C122 H132 0.931 . S
C123 C120 1.382 . S
C123 C125 1.390 . S
C123 H133 0.931 . S
C124 C120 1.390 . S
C124 C121 1.392 . S
C124 H134 0.930 . S
C125 C122 1.372 . S
C125 C123 1.390 . S
C125 H135 0.929 . S
C126 O106 1.255 . S
C126 O107 1.257 . S
C127 Eu63 2.787 . S
C127 O102 1.252 . S
C127 O105 1.268 . S
C127 C120 1.506 . S
H128 C111 0.931 . S
H129 C112 0.931 . S
H130 C113 0.929 . S
H131 C114 0.930 . S
H132 C122 0.931 . S
H133 C123 0.931 . S
H134 C124 0.930 . S
H135 C125 0.929 . S
Eu136 N165 2.600 . S
Eu136 N171 2.562 . S
Eu136 O180 2.462 1_554 S
Eu136 O181 2.373 . S
Eu136 O183 2.432 1_554 S
Eu136 O184 2.291 . S
Eu136 O188 2.335 1_554 S
Eu136 O191 2.372 . S
Eu136 C200 2.787 1_554 S
C137 N138 1.365 . S
C137 C140 1.405 . S
C137 C144 1.448 . S
N138 C137 1.365 . S
N138 C141 1.319 . S
N138 Eu147 2.600 . S
C139 C141 1.397 . S
C139 C142 1.367 . S
C139 H159 0.931 . S
C140 C137 1.405 . S
C140 C142 1.403 . S
C140 C146 1.439 . S
C141 N138 1.319 . S
C141 C139 1.397 . S
C141 H152 0.930 . S
C142 C139 1.367 . S
C142 C140 1.403 . S
C142 H163 0.929 . S
C143 C144 1.430 . S
C143 C145 1.387 . S
C143 C149 1.404 . S
C144 C137 1.448 . S
C144 C143 1.430 . S
C144 N148 1.351 . S
C145 C143 1.387 . S
C145 C146 1.374 . S
C145 H160 0.931 . S
C146 C140 1.439 . S
C146 C145 1.374 . S
C146 H161 0.931 . S
Eu147 N138 2.600 . S
Eu147 N148 2.562 . S
Eu147 O182 2.335 . S
Eu147 O185 2.372 . S
Eu147 O186 2.462 . S
Eu147 O187 2.373 . S
Eu147 O189 2.432 . S
Eu147 O190 2.291 . S
Eu147 C211 2.787 . S
N148 C144 1.351 . S
N148 Eu147 2.562 . S
N148 C150 1.325 . S
C149 C143 1.404 . S
C149 C151 1.366 . S
C149 H157 0.930 . S
C150 N148 1.325 . S
C150 C151 1.416 . S
C150 H156 0.929 . S
C151 C149 1.366 . S
C151 C150 1.416 . S
C151 H153 0.930 . S
H152 C141 0.930 . S
H153 C151 0.930 . S
H154 C169 0.930 . S
H155 C176 0.930 . S
H156 C150 0.929 . S
H157 C149 0.930 . S
H158 C172 0.929 . S
H159 C139 0.931 . S
H160 C145 0.931 . S
H161 C146 0.931 . S
H162 C167 0.931 . S
H163 C142 0.929 . S
H164 C175 0.930 . S
N165 Eu136 2.600 . S
N165 C166 1.365 . S
N165 C169 1.319 1_554 S
C166 N165 1.365 . S
C166 C168 1.405 . S
C166 C174 1.448 . S
C167 H162 0.931 . S
C167 C169 1.397 . S
C167 C170 1.367 1_556 S
C168 C166 1.405 . S
C168 C170 1.403 . S
C168 C201 1.439 . S
C169 H154 0.930 . S
C169 N165 1.319 1_556 S
C169 C167 1.397 . S
C170 C167 1.367 1_554 S
C170 C168 1.403 . S
C170 H177 0.929 . S
N171 Eu136 2.562 . S
N171 C172 1.325 . S
N171 C174 1.351 . S
C172 H158 0.929 . S
C172 N171 1.325 . S
C172 C176 1.416 . S
C173 C174 1.430 . S
C173 C175 1.404 . S
C173 C202 1.387 . S
C174 C166 1.448 . S
C174 N171 1.351 . S
C174 C173 1.430 . S
C175 H164 0.930 . S
C175 C173 1.404 . S
C175 C176 1.366 . S
C176 H155 0.930 . S
C176 C172 1.416 . S
C176 C175 1.366 . S
H177 C170 0.929 . S
H178 C201 0.931 . S
H179 C202 0.931 . S
O180 Eu136 2.462 1_556 S
O180 C200 1.252 . S
O181 Eu136 2.373 . S
O181 C192 1.249 . S
O182 Eu147 2.335 . S
O182 C192 1.264 . S
O183 Eu136 2.432 1_556 S
O183 C200 1.268 . S
O184 Eu136 2.291 . S
O184 C199 1.255 . S
O185 Eu147 2.372 . S
O185 C199 1.257 . S
O186 Eu147 2.462 . S
O186 C211 1.252 . S
O187 Eu147 2.373 . S
O187 C203 1.249 1_554 S
O188 Eu136 2.335 1_556 S
O188 C203 1.264 . S
O189 Eu147 2.432 . S
O189 C211 1.268 . S
O190 Eu147 2.291 . S
O190 C210 1.255 . S
O191 Eu136 2.372 . S
O191 C210 1.257 . S
C192 O181 1.249 . S
C192 O182 1.264 . S
C193 C196 1.382 . S
C193 C198 1.390 . S
C193 C200 1.506 . S
C194 C195 1.398 . S
C194 C198 1.392 . S
C195 C194 1.398 . S
C195 C197 1.372 . S
C195 H212 0.931 . S
C196 C193 1.382 . S
C196 C197 1.390 . S
C196 H213 0.931 . S
C197 C195 1.372 . S
C197 C196 1.390 . S
C197 H214 0.929 . S
C198 C193 1.390 . S
C198 C194 1.392 . S
C198 H215 0.930 . S
C199 O184 1.255 . S
C199 O185 1.257 . S
C200 Eu136 2.787 1_556 S
C200 O180 1.252 . S
C200 O183 1.268 . S
C200 C193 1.506 . S
C201 C168 1.439 . S
C201 H178 0.931 . S
C201 C202 1.374 . S
C202 C173 1.387 . S
C202 H179 0.931 . S
C202 C201 1.374 . S
C203 O187 1.249 1_556 S
C203 O188 1.264 . S
C204 C207 1.382 . S
C204 C208 1.390 . S
C204 C211 1.506 . S
C205 C206 1.398 . S
C205 C208 1.392 . S
C206 C205 1.398 . S
C206 C209 1.372 . S
C206 H216 0.931 . S
C207 C204 1.382 . S
C207 C209 1.390 . S
C207 H217 0.931 . S
C208 C204 1.390 . S
C208 C205 1.392 . S
C208 H218 0.930 . S
C209 C206 1.372 . S
C209 C207 1.390 . S
C209 H219 0.929 . S
C210 O190 1.255 . S
C210 O191 1.257 . S
C211 Eu147 2.787 . S
C211 O186 1.252 . S
C211 O189 1.268 . S
C211 C204 1.506 . S
H212 C195 0.931 . S
H213 C196 0.931 . S
H214 C197 0.929 . S
H215 C198 0.930 . S
H216 C206 0.931 . S
H217 C207 0.931 . S
H218 C208 0.930 . S
H219 C209 0.929 . S
C220 C221 1.387 . S
C220 H224 0.950 . S
C220 C229 1.390 . S
C221 C220 1.387 . S
C221 C223 1.387 . S
H222 C229 0.950 . S
C223 C221 1.387 . S
C223 C225 1.390 . S
C223 H227 0.950 . S
H224 C220 0.950 . S
C225 C223 1.390 . S
C225 C226 1.387 . S
C225 H228 0.950 . S
C226 C225 1.387 . S
C226 C229 1.387 . S
H227 C223 0.950 . S
H228 C225 0.950 . S
C229 C220 1.390 . S
C229 H222 0.950 . S
C229 C226 1.387 . S
C230 C231 1.387 1_556 S
C230 H234 0.950 . S
C230 C239 1.390 . S
C231 C230 1.387 1_554 S
C231 C233 1.387 . S
H232 C239 0.950 . S
C233 C231 1.387 . S
C233 C235 1.390 . S
C233 H237 0.950 . S
H234 C230 0.950 . S
C235 C233 1.390 . S
C235 C236 1.387 . S
C235 H238 0.950 . S
C236 C235 1.387 . S
C236 C239 1.387 1_554 S
H237 C233 0.950 . S
H238 C235 0.950 . S
C239 C230 1.390 . S
C239 H232 0.950 . S
C239 C236 1.387 1_556 S
C240 C241 1.387 . S
C240 H244 0.950 . S
C240 C249 1.390 . S
C241 C240 1.387 . S
C241 C243 1.387 . S
H242 C249 0.950 . S
C243 C241 1.387 . S
C243 C245 1.390 . S
C243 H247 0.950 . S
H244 C240 0.950 . S
C245 C243 1.390 . S
C245 C246 1.387 . S
C245 H248 0.950 . S
C246 C245 1.387 . S
C246 C249 1.387 . S
H247 C243 0.950 . S
H248 C245 0.950 . S
C249 C240 1.390 . S
C249 H242 0.950 . S
C249 C246 1.387 . S
C250 C251 1.387 . S
C250 H254 0.950 1_554 S
C250 C259 1.390 . S
C251 C250 1.387 . S
C251 C253 1.387 . S
H252 C259 0.950 1_556 S
C253 C251 1.387 . S
C253 C255 1.390 . S
C253 H257 0.950 . S
H254 C250 0.950 1_556 S
C255 C253 1.390 . S
C255 C256 1.387 . S
C255 H258 0.950 . S
C256 C255 1.387 . S
C256 C259 1.387 . S
H257 C253 0.950 . S
H258 C255 0.950 . S
C259 C250 1.390 . S
C259 H252 0.950 1_554 S
C259 C256 1.387 . S
C260 C261 1.387 . S
C260 H264 0.950 . S
C260 C269 1.390 . S
C261 C260 1.387 . S
C261 C263 1.387 . S
H262 C269 0.950 . S
C263 C261 1.387 . S
C263 C265 1.390 . S
C263 H267 0.950 . S
H264 C260 0.950 . S
C265 C263 1.390 . S
C265 C266 1.387 . S
C265 H268 0.950 . S
C266 C265 1.387 . S
C266 C269 1.387 . S
H267 C263 0.950 . S
H268 C265 0.950 . S
C269 C260 1.390 . S
C269 H262 0.950 . S
C269 C266 1.387 . S
C270 C271 1.387 . S
C270 H274 0.950 . S
C270 C279 1.390 . S
C271 C270 1.387 . S
C271 C273 1.387 . S
H272 C279 0.950 . S
C273 C271 1.387 . S
C273 C275 1.390 . S
C273 H277 0.950 . S
H274 C270 0.950 . S
C275 C273 1.390 . S
C275 C276 1.387 . S
C275 H278 0.950 . S
C276 C275 1.387 . S
C276 C279 1.387 . S
H277 C273 0.950 . S
H278 C275 0.950 . S
C279 C270 1.390 . S
C279 H272 0.950 . S
C279 C276 1.387 . S
C280 C281 1.387 . S
C280 H284 0.950 . S
C280 C289 1.390 . S
C281 C280 1.387 . S
C281 C283 1.387 . S
H282 C289 0.950 . S
C283 C281 1.387 . S
C283 C285 1.390 . S
C283 H287 0.950 . S
H284 C280 0.950 . S
C285 C283 1.390 . S
C285 C286 1.387 . S
C285 H288 0.950 1_545 S
C286 C285 1.387 . S
C286 C289 1.387 . S
H287 C283 0.950 . S
H288 C285 0.950 1_565 S
C289 C280 1.390 . S
C289 H282 0.950 . S
C289 C286 1.387 . S
C290 C291 1.387 . S
C290 H294 0.950 . S
C290 C299 1.390 . S
C291 C290 1.387 . S
C291 C293 1.387 . S
H292 C299 0.950 . S
C293 C291 1.387 . S
C293 C295 1.390 . S
C293 H297 0.950 . S
H294 C290 0.950 . S
C295 C293 1.390 . S
C295 C296 1.387 . S
C295 H298 0.950 . S
C296 C295 1.387 . S
C296 C299 1.387 . S
H297 C293 0.950 . S
H298 C295 0.950 . S
C299 C290 1.390 . S
C299 H292 0.950 . S
C299 C296 1.387 . S
C300 C301 1.387 . S
C300 H304 0.950 . S
C300 C309 1.390 . S
C301 C300 1.387 . S
C301 C303 1.387 . S
H302 C309 0.950 . S
C303 C301 1.387 . S
C303 C305 1.390 . S
C303 H307 0.950 . S
H304 C300 0.950 . S
C305 C303 1.390 . S
C305 C306 1.387 . S
C305 H308 0.950 . S
C306 C305 1.387 . S
C306 C309 1.387 . S
H307 C303 0.950 . S
H308 C305 0.950 . S
C309 C300 1.390 . S
C309 H302 0.950 . S
C309 C306 1.387 . S
C310 C311 1.387 1_556 S
C310 H314 0.950 . S
C310 C319 1.390 . S
C311 C310 1.387 1_554 S
C311 C313 1.387 . S
H312 C319 0.950 . S
C313 C311 1.387 . S
C313 C315 1.390 . S
C313 H317 0.950 . S
H314 C310 0.950 . S
C315 C313 1.390 . S
C315 C316 1.387 1_554 S
C315 H318 0.950 . S
C316 C315 1.387 1_556 S
C316 C319 1.387 . S
H317 C313 0.950 . S
H318 C315 0.950 . S
C319 C310 1.390 . S
C319 H312 0.950 . S
C319 C316 1.387 . S
C320 C321 1.387 . S
C320 H324 0.950 . S
C320 C329 1.390 . S
C321 C320 1.387 . S
C321 C323 1.387 . S
H322 C329 0.950 . S
C323 C321 1.387 . S
C323 C325 1.390 . S
C323 H327 0.950 . S
H324 C320 0.950 . S
C325 C323 1.390 . S
C325 C326 1.387 . S
C325 H328 0.950 . S
C326 C325 1.387 . S
C326 C329 1.387 . S
H327 C323 0.950 . S
H328 C325 0.950 . S
C329 C320 1.390 . S
C329 H322 0.950 . S
C329 C326 1.387 . S
C330 C331 1.387 . S
C330 H334 0.950 . S
C330 C339 1.390 . S
C331 C330 1.387 . S
C331 C333 1.387 . S
H332 C339 0.950 1_545 S
C333 C331 1.387 . S
C333 C335 1.390 . S
C333 H337 0.950 . S
H334 C330 0.950 . S
C335 C333 1.390 . S
C335 C336 1.387 . S
C335 H338 0.950 . S
C336 C335 1.387 . S
C336 C339 1.387 . S
H337 C333 0.950 . S
H338 C335 0.950 . S
C339 C330 1.390 . S
C339 H332 0.950 1_565 S
C339 C336 1.387 . S
C226 C115 1.640 . S
C221 N41 1.670 . S
C231 N2 1.610 . S
C236 C210 1.604 . S
C241 N15 1.664 . S
C246 C126 1.640 . S
C251 N28 1.601 . S
C256 C199 1.604 . S
C266 C110 1.375 . S
C261 N5 1.590 . S
C276 C203 1.653 . S
C271 N14 1.645 . S
C281 N27 1.568 . S
C286 C119 1.610 . S
C291 N44 1.578 . S
C296 C194 1.408 . S
C306 C205 1.405 . S
C301 N18 1.576 . S
C316 C121 1.370 . S
C311 N31 1.590 . S
C326 C192 1.652 . S
C321 N40 1.656 . S
C331 N1 1.590 . S
C336 C108 1.610 . S
