# Generated by pormake.
# Topology pth, (4,4)-cn, num edge types: 1
# Building blocks:
#     Node 0, Type 0, BuildingBlock: NAHDIM_clean_sbu_0, # of connection points: 4
#     Node 1, Type 0, BuildingBlock: NAHDIM_clean_sbu_0, # of connection points: 4
#     Node 2, Type 0, BuildingBlock: NAHDIM_clean_sbu_0, # of connection points: 4
#     Node 3, Type 1, BuildingBlock: AZAVOO_clean_linker_0, # of connection points: 4
#     Node 4, Type 1, BuildingBlock: AZAVOO_clean_linker_0, # of connection points: 4
#     Node 5, Type 1, BuildingBlock: AZAVOO_clean_linker_0, # of connection points: 4
#     Edge 6, Type (0, 1), BuildingBlock: OJICUG_clean_linker_0, # of connection points: 2
#     Edge 7, Type (0, 1), BuildingBlock: OJICUG_clean_linker_0, # of connection points: 2
#     Edge 8, Type (0, 1), BuildingBlock: OJICUG_clean_linker_0, # of connection points: 2
#     Edge 9, Type (0, 1), BuildingBlock: OJICUG_clean_linker_0, # of connection points: 2
#     Edge 10, Type (0, 1), BuildingBlock: OJICUG_clean_linker_0, # of connection points: 2
#     Edge 11, Type (0, 1), BuildingBlock: OJICUG_clean_linker_0, # of connection points: 2
#     Edge 12, Type (0, 1), BuildingBlock: OJICUG_clean_linker_0, # of connection points: 2
#     Edge 13, Type (0, 1), BuildingBlock: OJICUG_clean_linker_0, # of connection points: 2
#     Edge 14, Type (0, 1), BuildingBlock: OJICUG_clean_linker_0, # of connection points: 2
#     Edge 15, Type (0, 1), BuildingBlock: OJICUG_clean_linker_0, # of connection points: 2
#     Edge 16, Type (0, 1), BuildingBlock: OJICUG_clean_linker_0, # of connection points: 2
#     Edge 17, Type (0, 1), BuildingBlock: OJICUG_clean_linker_0, # of connection points: 2
# Relax obj value: 0.172
# Max RMSD: 0.229
# Mean RMSD: 0.208
data_MOF--net-pth--node1-NAHDIM_clean_sbu_0--node2-AZAVOO_clean_linker_0--edge1-OJICUG_clean_linker_0
_symmetry_space_group_name_H-M    P1
_symmetry_Int_Tables_number       1
_symmetry_cell_setting            triclinic
loop_
_symmetry_equiv_pos_as_xyz
'x, y, z'
_cell_length_a     20.314102
_cell_length_b     20.64003
_cell_length_c     54.23023
_cell_angle_alpha  94.547554
_cell_angle_beta   88.354537
_cell_angle_gamma 120.51986
loop_
_atom_site_label
_atom_site_type_symbol
_atom_site_fract_x
_atom_site_fract_y
_atom_site_fract_z
_atom_type_partial_charge
C0 C 0.10231 0.92627 0.08503 0.0
O1 O 0.04903 0.90461 0.06801 0.0
O2 O 0.11536 0.13332 0.10396 0.0
Zn3 Zn 0.13013 0.07339 0.07599 0.0
O4 O 0.0383 0.02249 0.05377 0.0
C5 C 0.26734 0.20806 0.06179 0.0
O6 O 0.27243 0.23221 0.0852 0.0
O7 O 0.14716 -0.00367 0.09038 0.0
C8 C 0.02416 0.05831 0.03879 0.0
O9 O 0.0668 0.13214 0.03947 0.0
C10 C 0.06729 0.10073 0.12074 0.0
O11 O 0.02486 0.0268 0.11905 0.0
O12 O 0.21541 0.1416 0.05478 0.0
C13 C 0.09669 0.17625 0.36916 0.0
O14 O 0.04358 0.10458 0.36859 0.0
O15 O 0.13128 0.0305 0.38342 0.0
Zn16 Zn 0.15535 0.1252 0.40424 0.0
O17 O 0.07858 0.10639 0.43074 0.0
C18 C 0.30263 0.14451 0.41571 0.0
O19 O 0.29038 0.10077 0.39535 0.0
O20 O 0.15483 0.2004 0.38317 0.0
C21 C 0.08525 0.08761 0.45189 0.0
O22 O 0.13988 0.07318 0.45586 0.0
C23 C 0.09273 0.96403 0.39045 0.0
O24 O 0.06286 0.9536 0.4126 0.0
O25 O 0.25553 0.16606 0.42172 0.0
C26 C 0.26318 0.04951 0.7299 0.0
O27 O 0.28312 0.07814 0.75281 0.0
O28 O 0.0655 0.08244 0.72172 0.0
Zn29 Zn 0.13488 0.06627 0.74269 0.0
O30 O 0.20629 0.1609 0.7632 0.0
C31 C 0.03468 0.01084 0.78177 0.0
O32 O 0.05306 0.08194 0.78298 0.0
O33 O 0.19898 0.03548 0.72156 0.0
C34 C 0.24591 0.22566 0.75499 0.0
O35 O 0.23846 0.23443 0.73171 0.0
C36 C 0.07944 0.10316 0.69983 0.0
O37 O 0.14487 0.11819 0.68978 0.0
O38 O 0.0658 0.98773 0.76546 0.0
H39 H 0.9568 0.31728 0.08434 0.0
H40 H 0.15227 0.02236 0.26642 0.0
H41 H 0.91021 0.33963 0.2161 0.0
H42 H 0.9177 0.23598 0.19371 0.0
H43 H 0.15708 0.34488 0.21346 0.0
H44 H 0.1494 0.44892 0.23538 0.0
H45 H 0.9166 0.45033 0.1788 0.0
H46 H 0.91182 0.39019 0.13756 0.0
H47 H 0.1468 0.44806 0.14671 0.0
H48 H 0.15099 0.50881 0.18772 0.0
H49 H 0.93518 0.60639 0.19435 0.0
H50 H 0.95405 0.68401 0.15988 0.0
H51 H 0.19106 0.74391 0.15626 0.0
H52 H 0.17159 0.66643 0.1908 0.0
H53 H 0.93153 0.64747 0.25256 0.0
H54 H 0.94465 0.77134 0.26256 0.0
H55 H 0.18696 0.87789 0.24841 0.0
H56 H 0.17293 0.75359 0.23859 0.0
H57 H 0.92986 0.55987 0.29243 0.0
H58 H 0.94288 0.64853 0.32747 0.0
H59 H 0.18812 0.76711 0.31936 0.0
H60 H 0.17445 0.67876 0.28431 0.0
H61 H 0.92208 0.38619 0.27796 0.0
H62 H 0.93417 0.30978 0.30782 0.0
H63 H 0.17939 0.45993 0.30969 0.0
H64 H 0.16586 0.53728 0.28073 0.0
O65 O 0.96043 0.34286 0.10042 0.0
O66 O 0.08072 0.37242 0.10634 0.0
O67 O 0.02025 0.91527 0.26899 0.0
O68 O 0.14523 0.97277 0.26219 0.0
C69 C 0.0319 0.47453 0.23218 0.0
C70 C 0.03489 0.51491 0.2119 0.0
C71 C 0.04163 0.58614 0.21607 0.0
C72 C 0.04385 0.61656 0.24041 0.0
C73 C 0.04259 0.57693 0.26069 0.0
C74 C 0.03742 0.50625 0.25658 0.0
C75 C 0.02938 0.40179 0.22716 0.0
C76 C 0.9633 0.33925 0.21654 0.0
C77 C 0.96773 0.28022 0.20374 0.0
C78 C 0.03834 0.28336 0.20151 0.0
C79 C 0.10224 0.3418 0.21467 0.0
C80 C 0.09776 0.40074 0.22744 0.0
C81 C 0.03398 0.48353 0.18621 0.0
C82 C 0.96715 0.45059 0.17172 0.0
C83 C 0.96453 0.41603 0.14824 0.0
C84 C 0.02881 0.41392 0.1389 0.0
C85 C 0.09621 0.44844 0.15336 0.0
C86 C 0.0988 0.48322 0.17677 0.0
C87 C 0.05209 0.63126 0.19495 0.0
C88 C 0.99093 0.63606 0.18597 0.0
C89 C 0.00173 0.67983 0.16624 0.0
C90 C 0.07401 0.7197 0.15539 0.0
C91 C 0.13496 0.71411 0.16438 0.0
C92 C 0.12395 0.66993 0.18399 0.0
C93 C 0.05123 0.69184 0.24481 0.0
C94 C 0.98723 0.69774 0.25148 0.0
C95 C -0.00504 0.76849 0.25723 0.0
C96 C 0.06695 0.83455 0.25634 0.0
C97 C 0.13076 0.82822 0.2493 0.0
C98 C 0.12291 0.7574 0.24358 0.0
C99 C 0.05124 0.6131 0.28595 0.0
C100 C 0.98645 0.60309 0.29894 0.0
C101 C -0.00601 0.65391 0.31883 0.0
C102 C 0.06643 0.71533 0.3258 0.0
C103 C 0.13157 0.72089 0.3141 0.0
C104 C 0.12399 0.67005 0.29432 0.0
C105 C 0.04303 0.46726 0.2774 0.0
C106 C 0.97803 0.40335 0.28537 0.0
C107 C 0.9853 0.35938 0.30217 0.0
C108 C 0.05791 0.37811 0.31096 0.0
C109 C 0.12254 0.44421 0.30361 0.0
C110 C 0.11505 0.48852 0.28703 0.0
C111 C 0.02523 0.37533 0.11426 0.0
C112 C 0.07573 0.90978 0.26288 0.0
H113 H 0.83086 0.10363 0.42074 0.0
H114 H 0.23107 0.12011 0.62209 0.0
H115 H 0.74471 -0.0015 0.56302 0.0
H116 H 0.84655 0.99403 0.53897 0.0
H117 H 0.95384 0.23286 0.53053 0.0
H118 H 0.85228 0.23699 0.55468 0.0
H119 H 0.67901 0.01215 0.51546 0.0
H120 H 0.73503 0.02786 0.47427 0.0
H121 H 0.79168 0.26083 0.48018 0.0
H122 H 0.73661 0.24461 0.52157 0.0
H123 H 0.52398 0.01237 0.51468 0.0
H124 H 0.45992 0.02883 0.48027 0.0
H125 H 0.53104 0.25526 0.51075 0.0
H126 H 0.59317 0.23716 0.54544 0.0
H127 H 0.43493 0.9876 0.56196 0.0
H128 H 0.31066 0.97342 0.57279 0.0
H129 H 0.42487 0.18991 0.61483 0.0
H130 H 0.54865 0.20382 0.60354 0.0
H131 H 0.50325 0.96154 0.60854 0.0
H132 H 0.42016 0.93907 0.64428 0.0
H133 H 0.56821 0.16923 0.67331 0.0
H134 H 0.6512 0.19112 0.63743 0.0
H135 H 0.67031 0.99064 0.61778 0.0
H136 H 0.76341 0.99244 0.64616 0.0
H137 H 0.91618 0.22869 0.63609 0.0
H138 H 0.82276 0.22668 0.60809 0.0
O139 O 0.80732 0.09818 0.4368 0.0
O140 O 0.83062 0.2161 0.44 0.0
O141 O 0.22343 0.01536 0.59444 0.0
O142 O 0.27939 0.12497 0.61708 0.0
C143 C 0.71812 0.11508 0.56645 0.0
C144 C 0.67501 0.11884 0.54722 0.0
C145 C 0.60491 0.11486 0.55248 0.0
C146 C 0.57575 0.10301 0.57663 0.0
C147 C 0.61777 0.09654 0.59574 0.0
C148 C 0.69051 0.10572 0.59084 0.0
C149 C 0.79088 0.11786 0.56022 0.0
C150 C 0.79219 0.05043 0.55698 0.0
C151 C 0.85012 0.04792 0.5432 0.0
C152 C 0.90679 0.11282 0.53256 0.0
C153 C 0.91001 0.18194 0.53832 0.0
C154 C 0.85253 0.18451 0.55221 0.0
C155 C 0.70389 0.12726 0.52147 0.0
C156 C 0.70328 0.06642 0.50777 0.0
C157 C 0.73532 0.07557 0.48425 0.0
C158 C 0.76797 0.14565 0.47394 0.0
C159 C 0.76702 0.20612 0.48757 0.0
C160 C 0.73533 0.19697 0.51116 0.0
C161 C 0.56251 0.12341 0.53252 0.0
C162 C 0.52513 0.06524 0.51393 0.0
C163 C 0.48949 0.07517 0.49418 0.0
C164 C 0.49099 0.14365 0.49266 0.0
C165 C 0.52831 0.20168 0.51149 0.0
C166 C 0.56368 0.1915 0.5313 0.0
C167 C 0.50065 0.09669 0.58198 0.0
C168 C 0.43291 0.03223 0.57327 0.0
C169 C 0.36207 0.02414 0.57959 0.0
C170 C 0.35783 0.08044 0.59477 0.0
C171 C 0.42603 0.14543 0.60317 0.0
C172 C 0.4968 0.15356 0.59674 0.0
C173 C 0.58293 0.078 0.62042 0.0
C174 C 0.51922 0.00623 0.62309 0.0
C175 C 0.47147 0.99373 0.64335 0.0
C176 C 0.48708 0.05275 0.66133 0.0
C177 C 0.55496 0.12263 0.65978 0.0
C178 C 0.6026 0.13521 0.63938 0.0
C179 C 0.73989 0.10852 0.61093 0.0
C180 C 0.72304 0.0431 0.62223 0.0
C181 C 0.77627 0.04421 0.63832 0.0
C182 C 0.84725 0.11056 0.64305 0.0
C183 C 0.86239 0.17661 0.63248 0.0
C184 C 0.80897 0.17566 0.61666 0.0
C185 C 0.80375 0.15569 0.44922 0.0
C186 C 0.28273 0.07139 0.60201 0.0
H187 H 0.61968 0.80737 0.07048 0.0
H188 H 0.25338 0.13707 0.87084 0.0
H189 H 0.63547 0.82322 0.93923 0.0
H190 H 0.73783 0.92601 0.96515 0.0
H191 H 0.88744 0.84052 0.94357 0.0
H192 H 0.78498 0.73755 0.91814 0.0
H193 H 0.50596 0.68706 0.96949 0.0
H194 H 0.5338 0.73805 0.01269 0.0
H195 H 0.74214 0.7293 0.0099 0.0
H196 H 0.71326 0.67778 0.96683 0.0
H197 H 0.38331 0.50727 0.94541 0.0
H198 H 0.32106 0.41717 0.97725 0.0
H199 H 0.5375 0.43947 -0.00454 0.0
H200 H 0.59878 0.52687 0.963 0.0
H201 H 0.37702 0.50533 0.8874 0.0
H202 H 0.27776 0.37773 0.87292 0.0
H203 H 0.41706 0.29068 0.89709 0.0
H204 H 0.51632 0.4188 0.91117 0.0
H205 H 0.48281 0.62224 0.85461 0.0
H206 H 0.41688 0.53928 0.81771 0.0
H207 H 0.53143 0.41501 0.82783 0.0
H208 H 0.59677 0.4979 0.86464 0.0
H209 H 0.64056 0.79694 0.87661 0.0
H210 H 0.7385 0.87731 0.84801 0.0
H211 H 0.82522 0.72381 0.84273 0.0
H212 H 0.72556 0.64295 0.87061 0.0
O213 O 0.60932 0.78639 0.0535 0.0
O214 O 0.71671 0.78245 0.05087 0.0
O215 O 0.222 0.23567 0.86457 0.0
O216 O 0.29105 0.18788 0.87684 0.0
C217 C 0.63615 0.69767 0.91972 0.0
C218 C 0.5918 0.65086 0.93852 0.0
C219 C 0.53351 0.57601 0.93225 0.0
C220 C 0.51627 0.5494 0.90718 0.0
C221 C 0.56099 0.59608 0.88841 0.0
C222 C 0.62219 0.6694 0.89469 0.0
C223 C 0.70276 0.77268 0.92705 0.0
C224 C 0.6915 0.82891 0.93919 0.0
C225 C 0.74982 0.88739 0.95398 0.0
C226 C 0.81961 0.8899 0.95659 0.0
C227 C 0.83362 0.83902 0.94196 0.0
C228 C 0.77548 0.7807 0.92724 0.0
C229 C 0.60794 0.6795 0.96499 0.0
C230 C 0.55742 0.69601 0.97829 0.0
C231 C 0.57358 0.72525 0.00293 0.0
C232 C 0.64048 0.73823 0.0147 0.0
C233 C 0.6904 0.72047 0.00136 0.0
C234 C 0.67413 0.69118 0.97675 0.0
C235 C 0.49552 0.52374 0.952 0.0
C236 C 0.41711 0.49249 0.95623 0.0
C237 C 0.38184 0.44135 0.97436 0.0
C238 C 0.42487 0.42199 0.98874 0.0
C239 C 0.5035 0.45427 0.98474 0.0
C240 C 0.53838 0.5041 0.9663 0.0
C241 C 0.45367 0.47116 0.90035 0.0
C242 C 0.38571 0.45852 0.88967 0.0
C243 C 0.3292 0.38563 0.8814 0.0
C244 C 0.33956 0.32398 0.8838 0.0
C245 C 0.40727 0.33684 0.89494 0.0
C246 C 0.46388 0.40986 0.90313 0.0
C247 C 0.54388 0.56545 0.86231 0.0
C248 C 0.49627 0.57932 0.84815 0.0
C249 C 0.45851 0.53177 0.82717 0.0
C250 C 0.4681 0.47002 0.82029 0.0
C251 C 0.52234 0.46164 0.833 0.0
C252 C 0.56019 0.50926 0.85384 0.0
C253 C 0.67585 0.71409 0.87549 0.0
C254 C 0.68004 0.7803 0.8689 0.0
C255 C 0.73652 0.8264 0.85278 0.0
C256 C 0.79025 0.80737 0.84321 0.0
C257 C 0.78432 0.73975 0.84945 0.0
C258 C 0.72748 0.69348 0.86539 0.0
C259 C 0.65805 0.77028 0.04076 0.0
C260 C 0.28046 0.24666 0.8745 0.0
C261 C 0.00194 0.11259 0.15936 0.0
C262 C 0.06078 0.14595 0.14213 0.0
H263 H 0.9488 0.1301 0.19199 0.0
C264 C 0.11383 0.22356 0.1454 0.0
H265 H 0.96025 0.05285 0.15731 0.0
C266 C 0.10772 0.26715 0.16526 0.0
C267 C 0.04825 0.23428 0.18226 0.0
H268 H 0.15988 0.25102 0.13249 0.0
H269 H 0.14824 0.32726 0.16684 0.0
C270 C -0.0046 0.15657 0.17919 0.0
C271 C -0.0052 0.12596 0.46978 0.0
C272 C 0.03757 0.0907 0.47245 0.0
H273 H 0.92124 0.16143 0.48693 0.0
C274 C 0.03722 0.06234 0.49524 0.0
H275 H -0.0061 0.14854 0.45251 0.0
C276 C -0.00511 0.06941 0.515 0.0
C277 C 0.95376 0.1063 0.51236 0.0
H278 H 0.06966 0.03485 0.4978 0.0
H279 H -0.00503 0.04696 0.53239 0.0
C280 C 0.9538 0.13409 0.48956 0.0
C281 C 0.94956 0.9866 0.81819 0.0
C282 C 0.97476 0.9583 0.798 0.0
H283 H 0.87305 0.96145 0.84852 0.0
C284 C 0.93974 0.87989 0.7929 0.0
H285 H 0.97576 0.04677 0.8227 0.0
C286 C 0.87965 0.8308 0.80747 0.0
C287 C 0.85384 0.85914 0.82755 0.0
H288 H 0.95757 0.85643 0.77735 0.0
H289 H 0.85256 0.7707 0.8027 0.0
C290 C 0.89011 0.93763 0.83287 0.0
C291 C 0.15657 0.89374 0.11962 0.0
C292 C 0.10135 0.87065 0.10078 0.0
H293 H 0.19091 0.86386 0.15174 0.0
C294 C 0.04075 0.79546 0.09875 0.0
H295 H 0.204 0.95125 0.12164 0.0
C296 C 0.03315 0.74559 0.11605 0.0
C297 C 0.08636 0.76976 0.13556 0.0
H298 H -0.00263 0.77581 0.08439 0.0
H299 H 0.98476 0.68853 0.11449 0.0
C300 C 0.14923 0.84367 0.13681 0.0
C301 C 0.4073 0.12423 0.42908 0.0
C302 C 0.36043 0.15539 0.43404 0.0
H303 H 0.48661 0.09734 0.44365 0.0
C304 C 0.36287 0.18941 0.45778 0.0
H305 H 0.40711 0.09807 0.41094 0.0
C306 C 0.40746 0.188 0.47657 0.0
C307 C 0.451 0.15302 0.472 0.0
H308 H 0.32747 0.21396 0.46224 0.0
H309 H 0.40479 0.21109 0.49497 0.0
C310 C 0.45227 0.12318 0.44788 0.0
C311 C 0.32139 0.27512 0.79439 0.0
C312 C 0.30312 0.2891 0.77135 0.0
H313 H 0.38816 0.32143 0.82765 0.0
C314 C 0.34079 0.36347 0.76416 0.0
H315 H 0.29353 0.21855 0.80051 0.0
C316 C 0.39525 0.42279 0.77987 0.0
C317 C 0.41371 0.4083 0.80278 0.0
H318 H 0.3278 0.37593 0.74652 0.0
H319 H 0.42312 0.47978 0.77412 0.0
C320 C 0.37621 0.33397 0.80985 0.0
C321 C 0.94563 0.07616 0.69443 0.0
C322 C 0.02068 0.10692 0.68557 0.0
H323 H 0.83185 0.053 0.68785 0.0
C324 C 0.03836 0.13976 0.66282 0.0
H325 H 0.93009 0.05024 0.71189 0.0
C326 C 0.98214 0.14173 0.6492 0.0
C327 C 0.90699 0.11018 0.65794 0.0
H328 H 0.09556 0.16385 0.65549 0.0
H329 H -0.00289 0.1667 0.63157 0.0
C330 C 0.88924 0.07733 0.68066 0.0
C331 C 0.93701 0.93769 0.01466 0.0
C332 C 0.96788 0.01595 0.01858 0.0
H333 H 0.86706 0.83744 0.99174 0.0
C334 C 0.94827 0.05304 0.00211 0.0
H335 H 0.95074 0.90724 0.02697 0.0
C336 C 0.8995 0.01245 0.98186 0.0
C337 C 0.8712 0.93474 0.97762 0.0
H338 H 0.97113 0.11332 0.00472 0.0
H339 H 0.88507 0.04179 0.96931 0.0
C340 C 0.88965 0.89771 0.99434 0.0
C341 C 0.12427 0.91267 0.35159 0.0
C342 C 0.08491 0.89966 0.37406 0.0
H343 H 0.14887 0.86456 0.31884 0.0
C344 C 0.03943 0.82508 0.38075 0.0
H345 H 0.15964 0.96933 0.34582 0.0
C346 C 0.03348 0.76478 0.36521 0.0
C347 C 0.07361 0.7782 0.3429 0.0
H348 H 0.00835 0.81324 0.39793 0.0
H349 H -0.00194 0.70781 0.37071 0.0
C350 C 0.11874 0.85268 0.33622 0.0
C351 C 0.39437 0.07116 0.72109 0.0
C352 C 0.31854 0.04264 0.71318 0.0
H353 H 0.50735 0.09639 0.71089 0.0
C354 C 0.29773 0.01263 0.68861 0.0
H355 H 0.4123 0.09474 0.7399 0.0
C356 C 0.35208 0.01344 0.6721 0.0
C357 C 0.4285 0.04445 0.67976 0.0
H358 H 0.2399 0.99044 0.68191 0.0
H359 H 0.3349 0.99263 0.65303 0.0
C360 C 0.44893 0.07242 0.70449 0.0
C361 C 0.28683 0.24318 0.01816 0.0
C362 C 0.31212 0.26095 0.04297 0.0
H363 H 0.30242 0.28105 0.98167 0.0
C364 C 0.37658 0.33146 0.04969 0.0
H365 H 0.23702 0.1895 0.01239 0.0
C366 C 0.41439 0.38358 0.03195 0.0
C367 C 0.38729 0.3664 0.00738 0.0
H368 H 0.3972 0.34664 0.06867 0.0
H369 H 0.46354 0.43798 0.03751 0.0
C370 C 0.32368 0.29567 0.00059 0.0
C371 C 0.03101 0.19935 0.33564 0.0
C372 C 0.08722 0.22813 0.35438 0.0
H373 H 0.97883 0.22377 0.30697 0.0
C374 C 0.133 0.30663 0.35912 0.0
H375 H -0.00494 0.1391 0.33147 0.0
C376 C 0.12261 0.35538 0.3454 0.0
C377 C 0.06677 0.32666 0.32647 0.0
H378 H 0.17634 0.33047 0.37361 0.0
H379 H 0.15807 0.41557 0.34976 0.0
C380 C 0.02121 0.248 0.32175 0.0
loop_
_geom_bond_atom_site_label_1
_geom_bond_atom_site_label_2
_geom_bond_distance
_geom_bond_site_symmetry_2
_ccdc_geom_bond_type
C0 O1 1.160 . S
C0 O7 1.185 1_565 S
O1 C0 1.160 . S
O2 Zn3 1.899 . S
O2 C10 1.284 . S
Zn3 O2 1.899 . S
Zn3 O4 2.032 . S
Zn3 O7 2.086 . S
Zn3 O12 1.977 . S
O4 Zn3 2.032 . S
O4 C8 1.278 . S
C5 O6 1.203 . S
C5 O12 1.267 . S
O6 C5 1.203 . S
O7 C0 1.185 1_545 S
O7 Zn3 2.086 . S
C8 O4 1.278 . S
C8 O9 1.211 . S
O9 C8 1.211 . S
C10 O2 1.284 . S
C10 O11 1.273 . S
O11 C10 1.273 . S
O12 Zn3 1.977 . S
O12 C5 1.267 . S
C13 O14 1.160 . S
C13 O20 1.185 . S
O14 C13 1.160 . S
O15 Zn16 1.899 . S
O15 C23 1.284 1_545 S
Zn16 O15 1.899 . S
Zn16 O17 2.032 . S
Zn16 O20 2.086 . S
Zn16 O25 1.977 . S
O17 Zn16 2.032 . S
O17 C21 1.278 . S
C18 O19 1.203 . S
C18 O25 1.267 . S
O19 C18 1.203 . S
O20 C13 1.185 . S
O20 Zn16 2.086 . S
C21 O17 1.278 . S
C21 O22 1.211 . S
O22 C21 1.211 . S
C23 O15 1.284 1_565 S
C23 O24 1.273 . S
O24 C23 1.273 . S
O25 Zn16 1.977 . S
O25 C18 1.267 . S
C26 O27 1.160 . S
C26 O33 1.185 . S
O27 C26 1.160 . S
O28 Zn29 1.899 . S
O28 C36 1.284 . S
Zn29 O28 1.899 . S
Zn29 O30 2.032 . S
Zn29 O33 2.086 . S
Zn29 O38 1.977 . S
O30 Zn29 2.032 . S
O30 C34 1.278 . S
C31 O32 1.203 1_565 S
C31 O38 1.267 1_565 S
O32 C31 1.203 1_545 S
O33 C26 1.185 . S
O33 Zn29 2.086 . S
C34 O30 1.278 . S
C34 O35 1.211 . S
O35 C34 1.211 . S
C36 O28 1.284 . S
C36 O37 1.273 . S
O37 C36 1.273 . S
O38 Zn29 1.977 . S
O38 C31 1.267 1_545 S
H39 O65 0.856 . S
H40 O68 0.854 . S
H41 C76 0.930 1_655 S
H42 C77 0.936 . S
H43 C79 0.930 . S
H44 C80 0.930 . S
H45 C82 0.917 1_655 S
H46 C83 0.930 . S
H47 C85 0.930 . S
H48 C86 0.929 . S
H49 C88 0.930 1_655 S
H50 C89 0.931 . S
H51 C91 0.930 . S
H52 C92 0.929 . S
H53 C94 0.931 1_655 S
H54 C95 0.944 . S
H55 C97 0.930 . S
H56 C98 0.932 . S
H57 C100 0.930 1_655 S
H58 C101 0.929 1_655 S
H59 C103 0.931 . S
H60 C104 0.930 . S
H61 C106 0.929 1_655 S
H62 C107 0.931 1_655 S
H63 C109 0.930 . S
H64 C110 0.929 . S
O65 H39 0.856 . S
O65 C111 1.300 . S
O66 C111 1.209 . S
O67 C112 1.199 . S
O68 H40 0.854 . S
O68 C112 1.297 1_545 S
C69 C70 1.404 . S
C69 C74 1.397 . S
C69 C75 1.492 . S
C70 C69 1.404 . S
C70 C71 1.396 . S
C70 C81 1.492 . S
C71 C70 1.396 . S
C71 C72 1.397 . S
C71 C87 1.509 . S
C72 C71 1.397 . S
C72 C73 1.412 . S
C72 C93 1.485 . S
C73 C72 1.412 . S
C73 C74 1.388 . S
C73 C99 1.490 . S
C74 C69 1.397 . S
C74 C73 1.388 . S
C74 C105 1.519 . S
C75 C69 1.492 . S
C75 C76 1.363 . S
C75 C80 1.390 . S
C76 H41 0.930 1_455 S
C76 C75 1.363 . S
C76 C77 1.376 1_455 S
C77 H42 0.936 . S
C77 C76 1.376 1_655 S
C77 C78 1.373 1_655 S
C78 C77 1.373 1_455 S
C78 C79 1.395 . S
C79 H43 0.930 . S
C79 C78 1.395 . S
C79 C80 1.362 . S
C80 H44 0.930 . S
C80 C75 1.390 . S
C80 C79 1.362 . S
C81 C70 1.492 . S
C81 C82 1.377 . S
C81 C86 1.397 . S
C82 H45 0.917 1_455 S
C82 C81 1.377 . S
C82 C83 1.376 . S
C83 H46 0.930 . S
C83 C82 1.376 . S
C83 C84 1.376 . S
C84 C83 1.376 . S
C84 C85 1.378 . S
C84 C111 1.486 . S
C85 H47 0.930 . S
C85 C84 1.378 . S
C85 C86 1.376 . S
C86 H48 0.929 . S
C86 C81 1.397 . S
C86 C85 1.376 . S
C87 C71 1.509 . S
C87 C88 1.391 . S
C87 C92 1.386 . S
C88 H49 0.930 1_455 S
C88 C87 1.391 . S
C88 C89 1.375 . S
C89 H50 0.931 . S
C89 C88 1.375 . S
C89 C90 1.375 . S
C90 C89 1.375 . S
C90 C91 1.361 . S
C91 H51 0.930 . S
C91 C90 1.361 . S
C91 C92 1.399 . S
C92 H52 0.929 . S
C92 C87 1.386 . S
C92 C91 1.399 . S
C93 C72 1.485 . S
C93 C94 1.394 . S
C93 C98 1.360 . S
C94 H53 0.931 1_455 S
C94 C93 1.394 . S
C94 C95 1.372 . S
C95 H54 0.944 . S
C95 C94 1.372 . S
C95 C96 1.397 . S
C96 C95 1.397 . S
C96 C97 1.390 . S
C96 C112 1.476 . S
C97 H55 0.930 . S
C97 C96 1.390 . S
C97 C98 1.366 . S
C98 H56 0.932 . S
C98 C93 1.360 . S
C98 C97 1.366 . S
C99 C73 1.490 . S
C99 C100 1.380 . S
C99 C104 1.386 . S
C100 H57 0.930 1_455 S
C100 C99 1.380 . S
C100 C101 1.381 . S
C101 H58 0.929 1_455 S
C101 C100 1.381 . S
C101 C102 1.371 . S
C102 C101 1.371 . S
C102 C103 1.380 . S
C103 H59 0.931 . S
C103 C102 1.380 . S
C103 C104 1.387 . S
C104 H60 0.930 . S
C104 C99 1.386 . S
C104 C103 1.387 . S
C105 C74 1.519 . S
C105 C106 1.377 . S
C105 C110 1.361 . S
C106 H61 0.929 1_455 S
C106 C105 1.377 . S
C106 C107 1.386 . S
C107 H62 0.931 1_455 S
C107 C106 1.386 . S
C107 C108 1.363 . S
C108 C107 1.363 . S
C108 C109 1.385 . S
C109 H63 0.930 . S
C109 C108 1.385 . S
C109 C110 1.396 . S
C110 H64 0.929 . S
C110 C105 1.361 . S
C110 C109 1.396 . S
C111 O65 1.300 . S
C111 O66 1.209 . S
C111 C84 1.486 . S
C112 O67 1.199 . S
C112 O68 1.297 1_565 S
C112 C96 1.476 . S
H113 O139 0.856 . S
H114 O142 0.854 . S
H115 C150 0.930 1_565 S
H116 C151 0.930 1_565 S
H117 C153 0.930 . S
H118 C154 0.930 . S
H119 C156 0.931 . S
H120 C157 0.930 . S
H121 C159 0.930 . S
H122 C160 0.929 . S
H123 C162 0.930 . S
H124 C163 0.931 . S
H125 C165 0.930 . S
H126 C166 0.929 . S
H127 C168 0.931 . S
H128 C169 0.930 . S
H129 C171 0.930 . S
H130 C172 0.932 . S
H131 C174 0.930 1_565 S
H132 C175 0.929 1_565 S
H133 C177 0.931 . S
H134 C178 0.930 . S
H135 C180 0.929 1_565 S
H136 C181 0.931 . S
H137 C183 0.930 . S
H138 C184 0.929 . S
O139 H113 0.856 . S
O139 C185 1.300 . S
O140 C185 1.209 . S
O141 C186 1.199 . S
O142 H114 0.854 . S
O142 C186 1.297 . S
C143 C144 1.404 . S
C143 C148 1.397 . S
C143 C149 1.492 . S
C144 C143 1.404 . S
C144 C145 1.396 . S
C144 C155 1.492 . S
C145 C144 1.396 . S
C145 C146 1.397 . S
C145 C161 1.509 . S
C146 C145 1.397 . S
C146 C147 1.412 . S
C146 C167 1.485 . S
C147 C146 1.412 . S
C147 C148 1.388 . S
C147 C173 1.490 . S
C148 C143 1.397 . S
C148 C147 1.388 . S
C148 C179 1.519 . S
C149 C143 1.492 . S
C149 C150 1.363 . S
C149 C154 1.390 . S
C150 H115 0.930 1_545 S
C150 C149 1.363 . S
C150 C151 1.372 . S
C151 H116 0.930 1_545 S
C151 C150 1.372 . S
C151 C152 1.383 . S
C152 C151 1.383 . S
C152 C153 1.395 . S
C153 H117 0.930 . S
C153 C152 1.395 . S
C153 C154 1.362 . S
C154 H118 0.930 . S
C154 C149 1.390 . S
C154 C153 1.362 . S
C155 C144 1.492 . S
C155 C156 1.377 . S
C155 C160 1.397 . S
C156 H119 0.931 . S
C156 C155 1.377 . S
C156 C157 1.376 . S
C157 H120 0.930 . S
C157 C156 1.376 . S
C157 C158 1.376 . S
C158 C157 1.376 . S
C158 C159 1.378 . S
C158 C185 1.486 . S
C159 H121 0.930 . S
C159 C158 1.378 . S
C159 C160 1.376 . S
C160 H122 0.929 . S
C160 C155 1.397 . S
C160 C159 1.376 . S
C161 C145 1.509 . S
C161 C162 1.391 . S
C161 C166 1.386 . S
C162 H123 0.930 . S
C162 C161 1.391 . S
C162 C163 1.375 . S
C163 H124 0.931 . S
C163 C162 1.375 . S
C163 C164 1.375 . S
C164 C163 1.375 . S
C164 C165 1.361 . S
C165 H125 0.930 . S
C165 C164 1.361 . S
C165 C166 1.399 . S
C166 H126 0.929 . S
C166 C161 1.386 . S
C166 C165 1.399 . S
C167 C146 1.485 . S
C167 C168 1.394 . S
C167 C172 1.360 . S
C168 H127 0.931 . S
C168 C167 1.394 . S
C168 C169 1.372 . S
C169 H128 0.930 . S
C169 C168 1.372 . S
C169 C170 1.397 . S
C170 C169 1.397 . S
C170 C171 1.390 . S
C170 C186 1.476 . S
C171 H129 0.930 . S
C171 C170 1.390 . S
C171 C172 1.366 . S
C172 H130 0.932 . S
C172 C167 1.360 . S
C172 C171 1.366 . S
C173 C147 1.490 . S
C173 C174 1.380 . S
C173 C178 1.386 . S
C174 H131 0.930 1_545 S
C174 C173 1.380 . S
C174 C175 1.381 . S
C175 H132 0.929 1_545 S
C175 C174 1.381 . S
C175 C176 1.371 . S
C176 C175 1.371 . S
C176 C177 1.380 . S
C177 H133 0.931 . S
C177 C176 1.380 . S
C177 C178 1.387 . S
C178 H134 0.930 . S
C178 C173 1.386 . S
C178 C177 1.387 . S
C179 C148 1.519 . S
C179 C180 1.377 . S
C179 C184 1.361 . S
C180 H135 0.929 1_545 S
C180 C179 1.377 . S
C180 C181 1.386 . S
C181 H136 0.931 . S
C181 C180 1.386 . S
C181 C182 1.363 . S
C182 C181 1.363 . S
C182 C183 1.385 . S
C183 H137 0.930 . S
C183 C182 1.385 . S
C183 C184 1.396 . S
C184 H138 0.929 . S
C184 C179 1.361 . S
C184 C183 1.396 . S
C185 O139 1.300 . S
C185 O140 1.209 . S
C185 C158 1.486 . S
C186 O141 1.199 . S
C186 O142 1.297 . S
C186 C170 1.476 . S
H187 O213 0.856 . S
H188 O216 0.854 . S
H189 C224 0.930 . S
H190 C225 0.930 . S
H191 C227 0.930 . S
H192 C228 0.930 . S
H193 C230 0.931 . S
H194 C231 0.930 . S
H195 C233 0.930 . S
H196 C234 0.929 . S
H197 C236 0.930 . S
H198 C237 0.931 . S
H199 C239 0.930 1_554 S
H200 C240 0.929 . S
H201 C242 0.931 . S
H202 C243 0.930 . S
H203 C245 0.930 . S
H204 C246 0.932 . S
H205 C248 0.930 . S
H206 C249 0.929 . S
H207 C251 0.931 . S
H208 C252 0.930 . S
H209 C254 0.929 . S
H210 C255 0.931 . S
H211 C257 0.930 . S
H212 C258 0.929 . S
O213 H187 0.856 . S
O213 C259 1.300 . S
O214 C259 1.209 . S
O215 C260 1.199 . S
O216 H188 0.854 . S
O216 C260 1.297 . S
C217 C218 1.404 . S
C217 C222 1.397 . S
C217 C223 1.492 . S
C218 C217 1.404 . S
C218 C219 1.396 . S
C218 C229 1.492 . S
C219 C218 1.396 . S
C219 C220 1.397 . S
C219 C235 1.509 . S
C220 C219 1.397 . S
C220 C221 1.412 . S
C220 C241 1.485 . S
C221 C220 1.412 . S
C221 C222 1.388 . S
C221 C247 1.490 . S
C222 C217 1.397 . S
C222 C221 1.388 . S
C222 C253 1.519 . S
C223 C217 1.492 . S
C223 C224 1.363 . S
C223 C228 1.390 . S
C224 H189 0.930 . S
C224 C223 1.363 . S
C224 C225 1.372 . S
C225 H190 0.930 . S
C225 C224 1.372 . S
C225 C226 1.383 . S
C226 C225 1.383 . S
C226 C227 1.395 . S
C227 H191 0.930 . S
C227 C226 1.395 . S
C227 C228 1.362 . S
C228 H192 0.930 . S
C228 C223 1.390 . S
C228 C227 1.362 . S
C229 C218 1.492 . S
C229 C230 1.377 . S
C229 C234 1.397 . S
C230 H193 0.931 . S
C230 C229 1.377 . S
C230 C231 1.376 1_556 S
C231 H194 0.930 . S
C231 C230 1.376 1_554 S
C231 C232 1.376 . S
C232 C231 1.376 . S
C232 C233 1.378 . S
C232 C259 1.486 . S
C233 H195 0.930 . S
C233 C232 1.378 . S
C233 C234 1.376 1_554 S
C234 H196 0.929 . S
C234 C229 1.397 . S
C234 C233 1.376 1_556 S
C235 C219 1.509 . S
C235 C236 1.391 . S
C235 C240 1.386 . S
C236 H197 0.930 . S
C236 C235 1.391 . S
C236 C237 1.375 . S
C237 H198 0.931 . S
C237 C236 1.375 . S
C237 C238 1.375 1_556 S
C238 C237 1.375 1_554 S
C238 C239 1.361 1_554 S
C239 H199 0.930 1_556 S
C239 C238 1.361 1_556 S
C239 C240 1.399 . S
C240 H200 0.929 . S
C240 C235 1.386 . S
C240 C239 1.399 . S
C241 C220 1.485 . S
C241 C242 1.394 . S
C241 C246 1.360 . S
C242 H201 0.931 . S
C242 C241 1.394 . S
C242 C243 1.372 . S
C243 H202 0.930 . S
C243 C242 1.372 . S
C243 C244 1.397 . S
C244 C243 1.397 . S
C244 C245 1.390 . S
C244 C260 1.476 . S
C245 H203 0.930 . S
C245 C244 1.390 . S
C245 C246 1.366 . S
C246 H204 0.932 . S
C246 C241 1.360 . S
C246 C245 1.366 . S
C247 C221 1.490 . S
C247 C248 1.380 . S
C247 C252 1.386 . S
C248 H205 0.930 . S
C248 C247 1.380 . S
C248 C249 1.381 . S
C249 H206 0.929 . S
C249 C248 1.381 . S
C249 C250 1.371 . S
C250 C249 1.371 . S
C250 C251 1.380 . S
C251 H207 0.931 . S
C251 C250 1.380 . S
C251 C252 1.387 . S
C252 H208 0.930 . S
C252 C247 1.386 . S
C252 C251 1.387 . S
C253 C222 1.519 . S
C253 C254 1.377 . S
C253 C258 1.361 . S
C254 H209 0.929 . S
C254 C253 1.377 . S
C254 C255 1.386 . S
C255 H210 0.931 . S
C255 C254 1.386 . S
C255 C256 1.363 . S
C256 C255 1.363 . S
C256 C257 1.385 . S
C257 H211 0.930 . S
C257 C256 1.385 . S
C257 C258 1.396 . S
C258 H212 0.929 . S
C258 C253 1.361 . S
C258 C257 1.396 . S
C259 O213 1.300 . S
C259 O214 1.209 . S
C259 C232 1.486 . S
C260 O215 1.199 . S
C260 O216 1.297 . S
C260 C244 1.476 . S
C261 C262 1.387 . S
C261 H265 0.950 1_455 S
C261 C270 1.390 . S
C262 C261 1.387 . S
C262 C264 1.387 . S
H263 C270 0.950 1_655 S
C264 C262 1.387 . S
C264 C266 1.390 . S
C264 H268 0.950 . S
H265 C261 0.950 1_655 S
C266 C264 1.390 . S
C266 C267 1.387 . S
C266 H269 0.950 . S
C267 C266 1.387 . S
C267 C270 1.387 . S
H268 C264 0.950 . S
H269 C266 0.950 . S
C270 C261 1.390 . S
C270 H263 0.950 1_455 S
C270 C267 1.387 . S
C271 C272 1.387 . S
C271 H275 0.950 1_655 S
C271 C280 1.390 . S
C272 C271 1.387 . S
C272 C274 1.387 1_545 S
H273 C280 0.950 . S
C274 C272 1.387 1_565 S
C274 C276 1.390 . S
C274 H278 0.950 . S
H275 C271 0.950 1_455 S
C276 C274 1.390 . S
C276 C277 1.387 1_565 S
C276 H279 0.950 . S
C277 C276 1.387 1_545 S
C277 C280 1.387 . S
H278 C274 0.950 . S
H279 C276 0.950 . S
C280 C271 1.390 . S
C280 H273 0.950 . S
C280 C277 1.387 . S
C281 C282 1.387 . S
C281 H285 0.950 1_665 S
C281 C290 1.390 . S
C282 C281 1.387 . S
C282 C284 1.387 . S
H283 C290 0.950 . S
C284 C282 1.387 . S
C284 C286 1.390 . S
C284 H288 0.950 . S
H285 C281 0.950 1_445 S
C286 C284 1.390 . S
C286 C287 1.387 . S
C286 H289 0.950 . S
C287 C286 1.387 . S
C287 C290 1.387 . S
H288 C284 0.950 . S
H289 C286 0.950 . S
C290 C281 1.390 . S
C290 H283 0.950 . S
C290 C287 1.387 . S
C291 C292 1.387 . S
C291 H295 0.950 1_565 S
C291 C300 1.390 . S
C292 C291 1.387 . S
C292 C294 1.387 . S
H293 C300 0.950 . S
C294 C292 1.387 . S
C294 C296 1.390 . S
C294 H298 0.950 . S
H295 C291 0.950 1_545 S
C296 C294 1.390 . S
C296 C297 1.387 . S
C296 H299 0.950 . S
C297 C296 1.387 . S
C297 C300 1.387 . S
H298 C294 0.950 . S
H299 C296 0.950 . S
C300 C291 1.390 . S
C300 H293 0.950 . S
C300 C297 1.387 . S
C301 C302 1.387 . S
C301 H305 0.950 1_545 S
C301 C310 1.390 . S
C302 C301 1.387 . S
C302 C304 1.387 . S
H303 C310 0.950 . S
C304 C302 1.387 . S
C304 C306 1.390 . S
C304 H308 0.950 . S
H305 C301 0.950 1_565 S
C306 C304 1.390 . S
C306 C307 1.387 . S
C306 H309 0.950 . S
C307 C306 1.387 . S
C307 C310 1.387 . S
H308 C304 0.950 . S
H309 C306 0.950 . S
C310 C301 1.390 . S
C310 H303 0.950 . S
C310 C307 1.387 . S
C311 C312 1.387 . S
C311 H315 0.950 . S
C311 C320 1.390 . S
C312 C311 1.387 . S
C312 C314 1.387 . S
H313 C320 0.950 . S
C314 C312 1.387 . S
C314 C316 1.390 . S
C314 H318 0.950 . S
H315 C311 0.950 . S
C316 C314 1.390 . S
C316 C317 1.387 . S
C316 H319 0.950 . S
C317 C316 1.387 . S
C317 C320 1.387 . S
H318 C314 0.950 . S
H319 C316 0.950 . S
C320 C311 1.390 . S
C320 H313 0.950 . S
C320 C317 1.387 . S
C321 C322 1.387 1_655 S
C321 H325 0.950 . S
C321 C330 1.390 . S
C322 C321 1.387 1_455 S
C322 C324 1.387 . S
H323 C330 0.950 . S
C324 C322 1.387 . S
C324 C326 1.390 1_455 S
C324 H328 0.950 . S
H325 C321 0.950 . S
C326 C324 1.390 1_655 S
C326 C327 1.387 . S
C326 H329 0.950 . S
C327 C326 1.387 . S
C327 C330 1.387 . S
H328 C324 0.950 . S
H329 C326 0.950 . S
C330 C321 1.390 . S
C330 H323 0.950 . S
C330 C327 1.387 . S
C331 C332 1.387 . S
C331 H335 0.964 . S
C331 C340 1.390 1_554 S
C332 C331 1.387 . S
C332 C334 1.387 . S
H333 C340 0.950 . S
C334 C332 1.387 . S
C334 C336 1.390 1_554 S
C334 H338 0.950 1_565 S
H335 C331 0.964 . S
C336 C334 1.390 1_556 S
C336 C337 1.387 . S
C336 H339 0.950 . S
C337 C336 1.387 . S
C337 C340 1.387 . S
H338 C334 0.950 1_545 S
H339 C336 0.950 . S
C340 C331 1.390 1_556 S
C340 H333 0.950 . S
C340 C337 1.387 . S
C341 C342 1.387 . S
C341 H345 0.950 . S
C341 C350 1.390 . S
C342 C341 1.387 . S
C342 C344 1.387 . S
H343 C350 0.950 . S
C344 C342 1.387 . S
C344 C346 1.390 . S
C344 H348 0.950 . S
H345 C341 0.950 . S
C346 C344 1.390 . S
C346 C347 1.387 . S
C346 H349 0.950 . S
C347 C346 1.387 . S
C347 C350 1.387 . S
H348 C344 0.950 . S
H349 C346 0.950 . S
C350 C341 1.390 . S
C350 H343 0.950 . S
C350 C347 1.387 . S
C351 C352 1.387 . S
C351 H355 0.950 . S
C351 C360 1.390 . S
C352 C351 1.387 . S
C352 C354 1.387 . S
H353 C360 0.950 . S
C354 C352 1.387 . S
C354 C356 1.390 . S
C354 H358 0.950 1_545 S
H355 C351 0.950 . S
C356 C354 1.390 . S
C356 C357 1.387 . S
C356 H359 0.950 1_545 S
C357 C356 1.387 . S
C357 C360 1.387 . S
H358 C354 0.950 1_565 S
H359 C356 0.950 1_565 S
C360 C351 1.390 . S
C360 H353 0.950 . S
C360 C357 1.387 . S
C361 C362 1.387 . S
C361 H365 0.950 . S
C361 C370 1.390 . S
C362 C361 1.387 . S
C362 C364 1.387 . S
H363 C370 0.950 1_556 S
C364 C362 1.387 . S
C364 C366 1.390 . S
C364 H368 0.950 . S
H365 C361 0.950 . S
C366 C364 1.390 . S
C366 C367 1.387 . S
C366 H369 0.950 . S
C367 C366 1.387 . S
C367 C370 1.387 . S
H368 C364 0.950 . S
H369 C366 0.950 . S
C370 C361 1.390 . S
C370 H363 0.950 1_554 S
C370 C367 1.387 . S
C371 C372 1.387 . S
C371 H375 0.950 . S
C371 C380 1.390 . S
C372 C371 1.387 . S
C372 C374 1.387 . S
H373 C380 0.950 . S
C374 C372 1.387 . S
C374 C376 1.390 . S
C374 H378 0.950 . S
H375 C371 0.950 . S
C376 C374 1.390 . S
C376 C377 1.387 . S
C376 H379 0.950 . S
C377 C376 1.387 . S
C377 C380 1.387 . S
H378 C374 0.950 . S
H379 C376 0.950 . S
C380 C371 1.390 . S
C380 H373 0.950 . S
C380 C377 1.387 . S
C267 C78 1.432 . S
C262 C10 1.569 . S
C272 C21 1.457 1_655 S
C277 C152 1.457 . S
C282 C31 1.931 1_655 S
C287 C256 2.021 . S
C292 C0 0.875 . S
C297 C90 0.887 . S
C307 C164 0.884 . S
C302 C18 0.879 . S
C312 C34 1.757 . S
C317 C250 1.533 . S
C327 C182 2.016 . S
C322 C36 2.018 . S
C332 C8 1.466 1_665 S
C337 C226 1.443 . S
C347 C102 1.524 . S
C342 C23 1.697 . S
C357 C176 1.443 . S
C352 C26 1.619 . S
C367 C238 0.901 . S
C362 C5 0.879 . S
C372 C13 1.954 . S
C377 C108 2.021 . S
