# Generated by pormake.
# Topology ptr, (4,4)-cn, num edge types: 1
# Building blocks:
#     Node 0, Type 0, BuildingBlock: TATPOV_clean_sbu_0, # of connection points: 4
#     Node 1, Type 0, BuildingBlock: TATPOV_clean_sbu_0, # of connection points: 4
#     Node 2, Type 0, BuildingBlock: TATPOV_clean_sbu_0, # of connection points: 4
#     Node 3, Type 0, BuildingBlock: TATPOV_clean_sbu_0, # of connection points: 4
#     Node 4, Type 0, BuildingBlock: TATPOV_clean_sbu_0, # of connection points: 4
#     Node 5, Type 0, BuildingBlock: TATPOV_clean_sbu_0, # of connection points: 4
#     Node 6, Type 0, BuildingBlock: TATPOV_clean_sbu_0, # of connection points: 4
#     Node 7, Type 0, BuildingBlock: TATPOV_clean_sbu_0, # of connection points: 4
#     Node 8, Type 0, BuildingBlock: TATPOV_clean_sbu_0, # of connection points: 4
#     Node 9, Type 0, BuildingBlock: TATPOV_clean_sbu_0, # of connection points: 4
#     Node 10, Type 0, BuildingBlock: TATPOV_clean_sbu_0, # of connection points: 4
#     Node 11, Type 0, BuildingBlock: TATPOV_clean_sbu_0, # of connection points: 4
#     Node 12, Type 0, BuildingBlock: TATPOV_clean_sbu_0, # of connection points: 4
#     Node 13, Type 0, BuildingBlock: TATPOV_clean_sbu_0, # of connection points: 4
#     Node 14, Type 0, BuildingBlock: TATPOV_clean_sbu_0, # of connection points: 4
#     Node 15, Type 0, BuildingBlock: TATPOV_clean_sbu_0, # of connection points: 4
#     Node 16, Type 0, BuildingBlock: TATPOV_clean_sbu_0, # of connection points: 4
#     Node 17, Type 0, BuildingBlock: TATPOV_clean_sbu_0, # of connection points: 4
#     Node 18, Type 1, BuildingBlock: MUDLON_clean_linker_0, # of connection points: 4
#     Node 19, Type 1, BuildingBlock: MUDLON_clean_linker_0, # of connection points: 4
#     Node 20, Type 1, BuildingBlock: MUDLON_clean_linker_0, # of connection points: 4
#     Node 21, Type 1, BuildingBlock: MUDLON_clean_linker_0, # of connection points: 4
#     Node 22, Type 1, BuildingBlock: MUDLON_clean_linker_0, # of connection points: 4
#     Node 23, Type 1, BuildingBlock: MUDLON_clean_linker_0, # of connection points: 4
#     Node 24, Type 1, BuildingBlock: MUDLON_clean_linker_0, # of connection points: 4
#     Node 25, Type 1, BuildingBlock: MUDLON_clean_linker_0, # of connection points: 4
#     Node 26, Type 1, BuildingBlock: MUDLON_clean_linker_0, # of connection points: 4
#     Node 27, Type 1, BuildingBlock: MUDLON_clean_linker_0, # of connection points: 4
#     Node 28, Type 1, BuildingBlock: MUDLON_clean_linker_0, # of connection points: 4
#     Node 29, Type 1, BuildingBlock: MUDLON_clean_linker_0, # of connection points: 4
#     Node 30, Type 1, BuildingBlock: MUDLON_clean_linker_0, # of connection points: 4
#     Node 31, Type 1, BuildingBlock: MUDLON_clean_linker_0, # of connection points: 4
#     Node 32, Type 1, BuildingBlock: MUDLON_clean_linker_0, # of connection points: 4
#     Node 33, Type 1, BuildingBlock: MUDLON_clean_linker_0, # of connection points: 4
#     Node 34, Type 1, BuildingBlock: MUDLON_clean_linker_0, # of connection points: 4
#     Node 35, Type 1, BuildingBlock: MUDLON_clean_linker_0, # of connection points: 4
#     Edge 36, Type (0, 1), BuildingBlock: OJICUG_clean_linker_0, # of connection points: 2
#     Edge 37, Type (0, 1), BuildingBlock: OJICUG_clean_linker_0, # of connection points: 2
#     Edge 38, Type (0, 1), BuildingBlock: OJICUG_clean_linker_0, # of connection points: 2
#     Edge 39, Type (0, 1), BuildingBlock: OJICUG_clean_linker_0, # of connection points: 2
#     Edge 40, Type (0, 1), BuildingBlock: OJICUG_clean_linker_0, # of connection points: 2
#     Edge 41, Type (0, 1), BuildingBlock: OJICUG_clean_linker_0, # of connection points: 2
#     Edge 42, Type (0, 1), BuildingBlock: OJICUG_clean_linker_0, # of connection points: 2
#     Edge 43, Type (0, 1), BuildingBlock: OJICUG_clean_linker_0, # of connection points: 2
#     Edge 44, Type (0, 1), BuildingBlock: OJICUG_clean_linker_0, # of connection points: 2
#     Edge 45, Type (0, 1), BuildingBlock: OJICUG_clean_linker_0, # of connection points: 2
#     Edge 46, Type (0, 1), BuildingBlock: OJICUG_clean_linker_0, # of connection points: 2
#     Edge 47, Type (0, 1), BuildingBlock: OJICUG_clean_linker_0, # of connection points: 2
#     Edge 48, Type (0, 1), BuildingBlock: OJICUG_clean_linker_0, # of connection points: 2
#     Edge 49, Type (0, 1), BuildingBlock: OJICUG_clean_linker_0, # of connection points: 2
#     Edge 50, Type (0, 1), BuildingBlock: OJICUG_clean_linker_0, # of connection points: 2
#     Edge 51, Type (0, 1), BuildingBlock: OJICUG_clean_linker_0, # of connection points: 2
#     Edge 52, Type (0, 1), BuildingBlock: OJICUG_clean_linker_0, # of connection points: 2
#     Edge 53, Type (0, 1), BuildingBlock: OJICUG_clean_linker_0, # of connection points: 2
#     Edge 54, Type (0, 1), BuildingBlock: OJICUG_clean_linker_0, # of connection points: 2
#     Edge 55, Type (0, 1), BuildingBlock: OJICUG_clean_linker_0, # of connection points: 2
#     Edge 56, Type (0, 1), BuildingBlock: OJICUG_clean_linker_0, # of connection points: 2
#     Edge 57, Type (0, 1), BuildingBlock: OJICUG_clean_linker_0, # of connection points: 2
#     Edge 58, Type (0, 1), BuildingBlock: OJICUG_clean_linker_0, # of connection points: 2
#     Edge 59, Type (0, 1), BuildingBlock: OJICUG_clean_linker_0, # of connection points: 2
#     Edge 60, Type (0, 1), BuildingBlock: OJICUG_clean_linker_0, # of connection points: 2
#     Edge 61, Type (0, 1), BuildingBlock: OJICUG_clean_linker_0, # of connection points: 2
#     Edge 62, Type (0, 1), BuildingBlock: OJICUG_clean_linker_0, # of connection points: 2
#     Edge 63, Type (0, 1), BuildingBlock: OJICUG_clean_linker_0, # of connection points: 2
#     Edge 64, Type (0, 1), BuildingBlock: OJICUG_clean_linker_0, # of connection points: 2
#     Edge 65, Type (0, 1), BuildingBlock: OJICUG_clean_linker_0, # of connection points: 2
#     Edge 66, Type (0, 1), BuildingBlock: OJICUG_clean_linker_0, # of connection points: 2
#     Edge 67, Type (0, 1), BuildingBlock: OJICUG_clean_linker_0, # of connection points: 2
#     Edge 68, Type (0, 1), BuildingBlock: OJICUG_clean_linker_0, # of connection points: 2
#     Edge 69, Type (0, 1), BuildingBlock: OJICUG_clean_linker_0, # of connection points: 2
#     Edge 70, Type (0, 1), BuildingBlock: OJICUG_clean_linker_0, # of connection points: 2
#     Edge 71, Type (0, 1), BuildingBlock: OJICUG_clean_linker_0, # of connection points: 2
#     Edge 72, Type (0, 1), BuildingBlock: OJICUG_clean_linker_0, # of connection points: 2
#     Edge 73, Type (0, 1), BuildingBlock: OJICUG_clean_linker_0, # of connection points: 2
#     Edge 74, Type (0, 1), BuildingBlock: OJICUG_clean_linker_0, # of connection points: 2
#     Edge 75, Type (0, 1), BuildingBlock: OJICUG_clean_linker_0, # of connection points: 2
#     Edge 76, Type (0, 1), BuildingBlock: OJICUG_clean_linker_0, # of connection points: 2
#     Edge 77, Type (0, 1), BuildingBlock: OJICUG_clean_linker_0, # of connection points: 2
#     Edge 78, Type (0, 1), BuildingBlock: OJICUG_clean_linker_0, # of connection points: 2
#     Edge 79, Type (0, 1), BuildingBlock: OJICUG_clean_linker_0, # of connection points: 2
#     Edge 80, Type (0, 1), BuildingBlock: OJICUG_clean_linker_0, # of connection points: 2
#     Edge 81, Type (0, 1), BuildingBlock: OJICUG_clean_linker_0, # of connection points: 2
#     Edge 82, Type (0, 1), BuildingBlock: OJICUG_clean_linker_0, # of connection points: 2
#     Edge 83, Type (0, 1), BuildingBlock: OJICUG_clean_linker_0, # of connection points: 2
#     Edge 84, Type (0, 1), BuildingBlock: OJICUG_clean_linker_0, # of connection points: 2
#     Edge 85, Type (0, 1), BuildingBlock: OJICUG_clean_linker_0, # of connection points: 2
#     Edge 86, Type (0, 1), BuildingBlock: OJICUG_clean_linker_0, # of connection points: 2
#     Edge 87, Type (0, 1), BuildingBlock: OJICUG_clean_linker_0, # of connection points: 2
#     Edge 88, Type (0, 1), BuildingBlock: OJICUG_clean_linker_0, # of connection points: 2
#     Edge 89, Type (0, 1), BuildingBlock: OJICUG_clean_linker_0, # of connection points: 2
#     Edge 90, Type (0, 1), BuildingBlock: OJICUG_clean_linker_0, # of connection points: 2
#     Edge 91, Type (0, 1), BuildingBlock: OJICUG_clean_linker_0, # of connection points: 2
#     Edge 92, Type (0, 1), BuildingBlock: OJICUG_clean_linker_0, # of connection points: 2
#     Edge 93, Type (0, 1), BuildingBlock: OJICUG_clean_linker_0, # of connection points: 2
#     Edge 94, Type (0, 1), BuildingBlock: OJICUG_clean_linker_0, # of connection points: 2
#     Edge 95, Type (0, 1), BuildingBlock: OJICUG_clean_linker_0, # of connection points: 2
#     Edge 96, Type (0, 1), BuildingBlock: OJICUG_clean_linker_0, # of connection points: 2
#     Edge 97, Type (0, 1), BuildingBlock: OJICUG_clean_linker_0, # of connection points: 2
#     Edge 98, Type (0, 1), BuildingBlock: OJICUG_clean_linker_0, # of connection points: 2
#     Edge 99, Type (0, 1), BuildingBlock: OJICUG_clean_linker_0, # of connection points: 2
#     Edge 100, Type (0, 1), BuildingBlock: OJICUG_clean_linker_0, # of connection points: 2
#     Edge 101, Type (0, 1), BuildingBlock: OJICUG_clean_linker_0, # of connection points: 2
#     Edge 102, Type (0, 1), BuildingBlock: OJICUG_clean_linker_0, # of connection points: 2
#     Edge 103, Type (0, 1), BuildingBlock: OJICUG_clean_linker_0, # of connection points: 2
#     Edge 104, Type (0, 1), BuildingBlock: OJICUG_clean_linker_0, # of connection points: 2
#     Edge 105, Type (0, 1), BuildingBlock: OJICUG_clean_linker_0, # of connection points: 2
#     Edge 106, Type (0, 1), BuildingBlock: OJICUG_clean_linker_0, # of connection points: 2
#     Edge 107, Type (0, 1), BuildingBlock: OJICUG_clean_linker_0, # of connection points: 2
# Relax obj value: 0.058
# Max RMSD: 0.192
# Mean RMSD: 0.103
data_MOF--net-ptr--node1-TATPOV_clean_sbu_0--node2-MUDLON_clean_linker_0--edge1-OJICUG_clean_linker_0
_symmetry_space_group_name_H-M    P1
_symmetry_Int_Tables_number       1
_symmetry_cell_setting            triclinic
loop_
_symmetry_equiv_pos_as_xyz
'x, y, z'
_cell_length_a     84.02785
_cell_length_b     85.246231
_cell_length_c     48.874148
_cell_angle_alpha  89.480978
_cell_angle_beta   91.059229
_cell_angle_gamma 121.39627
loop_
_atom_site_label
_atom_site_type_symbol
_atom_site_fract_x
_atom_site_fract_y
_atom_site_fract_z
_atom_type_partial_charge
Zn0 Zn 0.95781 0.37645 0.02506 0.0
Zn1 Zn 0.98911 0.37502 0.02055 0.0
O2 O 0.968 0.34778 0.01777 0.0
O3 O 0.94245 0.34885 0.02051 0.0
O4 O 0.01291 0.37451 0.02224 0.0
O5 O 0.96563 0.38808 0.06271 0.0
O6 O 0.9918 0.38868 0.05646 0.0
C7 C 0.95026 0.33967 0.01754 0.0
C8 C 0.98031 0.3954 0.97715 0.0
O9 O 0.99068 0.38955 0.98592 0.0
O10 O 0.96611 0.39215 0.99054 0.0
C11 C 0.01495 0.36134 0.0152 0.0
O12 O 1.00085 0.34659 0.00392 0.0
C13 C 0.98185 0.39259 0.07087 0.0
Zn14 Zn 0.63097 0.59776 0.00579 0.0
Zn15 Zn 0.6354 0.63041 0.01695 0.0
O16 O 0.66142 0.63664 0.00424 0.0
O17 O 0.65738 0.60992 0.99238 0.0
O18 O 0.63977 0.65542 0.02696 0.0
O19 O 0.62465 0.58971 0.04482 0.0
O20 O 0.62635 0.61585 0.05333 0.0
C21 C 0.6678 0.62719 0.99457 0.0
C22 C 0.6068 0.60544 0.9734 0.0
O23 O 0.61561 0.62099 0.98547 0.0
O24 O 0.61041 0.59311 0.97933 0.0
C25 C 0.65426 0.66598 0.04124 0.0
O26 O 0.66535 0.66011 0.04885 0.0
C27 C 0.62298 0.60012 0.06129 0.0
Zn28 Zn 0.36175 0.9626 0.02129 0.0
Zn29 Zn 0.3673 0.99654 0.01518 0.0
O30 O 0.3396 0.97999 0.02481 0.0
O31 O 0.33448 0.95203 0.02894 0.0
O32 O 0.36849 0.02045 0.0073 0.0
O33 O 0.37003 0.96303 0.98279 0.0
O34 O 0.37543 0.99112 0.97852 0.0
C35 C 0.32853 0.96294 0.02953 0.0
C36 C 0.38875 0.98989 0.06008 0.0
O37 O 0.38511 0.001 0.0479 0.0
O38 O 0.38078 0.97328 0.05232 0.0
C39 C 0.38216 0.0368 0.01058 0.0
O40 O 0.39799 0.03955 0.02081 0.0
C41 C 0.37557 0.9774 0.96858 0.0
Zn42 Zn 0.03787 0.63035 0.01008 0.0
Zn43 Zn 0.00643 0.63191 0.01332 0.0
O44 O 0.02834 0.65858 0.01757 0.0
O45 O 0.05403 0.65816 0.01197 0.0
O46 O 0.98379 0.63458 0.01107 0.0
O47 O 0.02922 0.61696 0.97391 0.0
O48 O 0.00421 0.61891 0.97684 0.0
C49 C 0.04606 0.66703 0.01646 0.0
C50 C 0.01458 0.61186 0.05782 0.0
O51 O 0.00365 0.61667 0.04771 0.0
O52 O 0.02951 0.61602 0.04569 0.0
C53 C 0.98369 0.64797 0.02215 0.0
O54 O 0.99792 0.65947 0.03765 0.0
C55 C 0.01379 0.61378 0.96399 0.0
Zn56 Zn 0.36825 0.4009 0.01804 0.0
Zn57 Zn 0.36708 0.36868 0.01589 0.0
O58 O 0.33979 0.36136 0.02171 0.0
O59 O 0.3401 0.38731 0.01914 0.0
O60 O 0.36513 0.34431 0.00983 0.0
O61 O 0.38142 0.40895 0.98198 0.0
O62 O 0.37937 0.38219 0.98009 0.0
C63 C 0.33118 0.37001 0.02182 0.0
C64 C 0.38852 0.39512 0.0625 0.0
O65 O 0.38376 0.38017 0.05006 0.0
O66 O 0.38332 0.40573 0.05329 0.0
C67 C 0.3529 0.32926 0.02069 0.0
O68 O 0.34144 0.32938 0.03849 0.0
C69 C 0.38442 0.3978 0.96954 0.0
Zn70 Zn 0.63433 0.03209 0.01368 0.0
Zn71 Zn 0.62983 0.99799 0.0133 0.0
O72 O 0.65794 0.01592 0.00817 0.0
O73 O 0.66218 0.04364 0.0093 0.0
O74 O 0.62828 0.97369 0.01756 0.0
O75 O 0.62325 0.02736 0.05168 0.0
O76 O 0.6186 0.99949 0.04923 0.0
C77 C 0.66876 0.03331 0.00702 0.0
C78 C 0.61055 0.00755 0.96903 0.0
O79 O 0.61394 0.99587 0.97976 0.0
O80 O 0.61747 0.02341 0.97952 0.0
C81 C 0.6368 0.96851 0.00234 0.0
O82 O 0.64593 0.97865 0.98119 0.0
C83 C 0.61706 0.01157 0.06199 0.0
Zn84 Zn 0.62639 0.70655 0.35009 0.0
Zn85 Zn 0.65911 0.70741 0.3565 0.0
O86 O 0.63939 0.68032 0.34957 0.0
O87 O 0.61258 0.67889 0.34453 0.0
O88 O 0.68212 0.70616 0.3639 0.0
O89 O 0.63021 0.71794 0.38788 0.0
O90 O 0.65656 0.7184 0.39213 0.0
C91 C 0.62186 0.67101 0.34506 0.0
C92 C 0.65439 0.72814 0.30898 0.0
O93 O 0.66462 0.72367 0.32236 0.0
O94 O 0.63801 0.7227 0.31683 0.0
C95 C 0.68681 0.69749 0.34818 0.0
O96 O 0.6772 0.69032 0.32543 0.0
C97 C 0.64467 0.72176 0.40179 0.0
Zn98 Zn 0.3054 0.93417 0.35132 0.0
Zn99 Zn 0.30577 0.96572 0.35835 0.0
O100 O 0.33296 0.97387 0.34876 0.0
O101 O 0.33274 0.94822 0.34273 0.0
O102 O 0.30704 0.98985 0.36537 0.0
O103 O 0.29719 0.9267 0.39001 0.0
O104 O 0.29624 0.95184 0.39513 0.0
C105 C 0.34149 0.96561 0.343 0.0
C106 C 0.28099 0.9386 0.31354 0.0
O107 O 0.28731 0.95392 0.32582 0.0
O108 O 0.28636 0.92778 0.32093 0.0
C109 C 0.31944 0.00481 0.35443 0.0
O110 O 0.33109 0.00451 0.33723 0.0
C111 C 0.29386 0.93679 0.40468 0.0
Zn112 Zn 0.03551 0.30203 0.34758 0.0
Zn113 Zn 0.03792 0.33517 0.34947 0.0
O114 O 0.01051 0.31581 0.35628 0.0
O115 O 0.00748 0.28868 0.3525 0.0
O116 O 0.0365 0.35791 0.34447 0.0
O117 O 0.04609 0.30732 0.30936 0.0
O118 O 0.04917 0.33449 0.31296 0.0
C119 C 1.00034 0.29835 0.35663 0.0
C120 C 0.05904 0.32745 0.39247 0.0
O121 O 0.05464 0.33861 0.38258 0.0
O122 O 0.05288 0.31187 0.38132 0.0
C123 C 0.04719 0.37431 0.35278 0.0
O124 O 0.06177 0.37835 0.3683 0.0
C125 C 0.05135 0.32304 0.29951 0.0
Zn126 Zn 0.70571 0.95764 0.34011 0.0
Zn127 Zn 0.67411 0.95813 0.34078 0.0
O128 O 0.69444 0.98534 0.34594 0.0
O129 O 0.72059 0.98544 0.34292 0.0
O130 O 0.6501 0.9583 0.33692 0.0
O131 O 0.69944 0.94476 0.30401 0.0
O132 O 0.67413 0.94639 0.30358 0.0
C133 C 0.7122 0.99405 0.34614 0.0
C134 C 0.68231 0.93811 0.38608 0.0
O135 O 0.67151 0.94308 0.37587 0.0
O136 O 0.69739 0.94245 0.3744 0.0
C137 C 0.64765 0.97092 0.34556 0.0
O138 O 0.661 0.9846 0.35979 0.0
C139 C 0.68458 0.9417 0.2922 0.0
Zn140 Zn 0.02898 0.73921 0.35423 0.0
Zn141 Zn 0.02789 0.70688 0.35019 0.0
O142 O 1.00089 0.69917 0.35903 0.0
O143 O 1.00114 0.7251 0.36053 0.0
O144 O 0.02668 0.68294 0.34299 0.0
O145 O 0.03936 0.74665 0.31612 0.0
O146 O 0.03825 0.72034 0.31378 0.0
C147 C 0.99236 0.70774 0.36237 0.0
C148 C 0.05195 0.73406 0.39484 0.0
O149 O 0.04605 0.71875 0.38278 0.0
O150 O 0.04665 0.7448 0.38662 0.0
C151 C 0.01463 0.66735 0.35266 0.0
O152 O 0.00228 0.66626 0.36989 0.0
C153 C 0.04216 0.73559 0.303 0.0
Zn154 Zn 0.30144 0.371 0.34702 0.0
Zn155 Zn 0.29889 0.33801 0.34465 0.0
O156 O 0.32678 0.35706 0.33912 0.0
O157 O 0.32927 0.38402 0.34143 0.0
O158 O 0.29846 0.31421 0.34888 0.0
O159 O 0.291 0.36594 0.38523 0.0
O160 O 0.28721 0.33851 0.38095 0.0
C161 C 0.33674 0.37455 0.3382 0.0
C162 C 0.27819 0.34665 0.30173 0.0
O163 O 0.2828 0.3355 0.311 0.0
O164 O 0.284 0.36192 0.31363 0.0
C165 C 0.30813 0.30968 0.33508 0.0
O166 O 0.31816 0.32027 0.31483 0.0
C167 C 0.28525 0.35001 0.39465 0.0
Zn168 Zn 0.30434 0.04712 0.68212 0.0
Zn169 Zn 0.33707 0.04733 0.68181 0.0
O170 O 0.31586 0.02033 0.67922 0.0
O171 O 0.28915 0.0192 0.68045 0.0
O172 O 0.35977 0.04499 0.68488 0.0
O173 O 0.31231 0.06044 0.7188 0.0
O174 O 0.3387 0.06087 0.71708 0.0
C175 C 0.29811 0.01105 0.67887 0.0
C176 C 0.32899 0.0662 0.63555 0.0
O177 O 0.34004 0.06201 0.64699 0.0
O178 O 0.31348 0.06145 0.64632 0.0
C179 C 0.36015 0.03222 0.67225 0.0
O180 O 0.34654 0.02184 0.655 0.0
C181 C 0.32807 0.06497 0.72923 0.0
Zn182 Zn 0.97064 0.26867 0.68489 0.0
Zn183 Zn 0.9711 0.30037 0.6888 0.0
O184 O 0.99859 0.30878 0.6818 0.0
O185 O 0.99855 0.28298 0.67995 0.0
O186 O 0.97167 0.32398 0.69616 0.0
O187 O 0.95931 0.2602 0.72203 0.0
O188 O 0.95953 0.28606 0.72452 0.0
C189 C 0.0073 0.30037 0.67877 0.0
C190 C 0.94863 0.27369 0.64271 0.0
O191 O 0.95423 0.28901 0.6546 0.0
O192 O 0.95365 0.26293 0.65184 0.0
C193 C 0.98332 0.33966 0.68632 0.0
O194 O 0.99571 0.34108 0.66886 0.0
C195 C 0.95563 0.27071 0.73493 0.0
Zn196 Zn 0.69821 0.62719 0.68614 0.0
Zn197 Zn 0.70136 0.66022 0.67977 0.0
O198 O 0.67407 0.64191 0.68985 0.0
O199 O 0.67042 0.61443 0.69163 0.0
O200 O 0.69957 0.68249 0.67128 0.0
O201 O 0.70799 0.62893 0.64825 0.0
O202 O 0.71035 0.65575 0.64323 0.0
C203 C 0.66367 0.62463 0.69327 0.0
C204 C 0.72339 0.65568 0.72562 0.0
O205 O 0.71961 0.66632 0.71229 0.0
O206 O 0.71598 0.63898 0.71857 0.0
C207 C 0.70964 0.6994 0.67766 0.0
O208 O 0.7248 0.70511 0.69269 0.0
C209 C 0.7122 0.64291 0.63374 0.0
Zn210 Zn 0.36443 0.28005 0.68427 0.0
Zn211 Zn 0.33657 0.28689 0.67861 0.0
O212 O 0.35883 0.31288 0.68548 0.0
O213 O 0.38166 0.30755 0.69119 0.0
O214 O 0.31452 0.28993 0.67154 0.0
O215 O 0.35984 0.2694 0.64631 0.0
O216 O 0.33754 0.27557 0.64185 0.0
C217 C 0.37594 0.3187 0.69058 0.0
C218 C 0.33663 0.26218 0.72528 0.0
O219 O 0.32966 0.27072 0.71348 0.0
O220 O 0.35115 0.26328 0.71603 0.0
C221 C 0.31303 0.30342 0.6787 0.0
O222 O 0.32656 0.31688 0.69303 0.0
C223 C 0.34708 0.26929 0.63201 0.0
Zn224 Zn 0.70262 0.07488 0.68796 0.0
Zn225 Zn 0.69802 0.04107 0.68384 0.0
O226 O 0.67167 0.03578 0.69159 0.0
O227 O 0.67538 0.06313 0.69726 0.0
O228 O 0.69346 0.01566 0.67693 0.0
O229 O 0.71157 0.08077 0.64891 0.0
O230 O 0.70961 0.05404 0.6476 0.0
C231 C 0.66498 0.04579 0.69708 0.0
C232 C 0.72402 0.06757 0.72816 0.0
O233 O 0.71595 0.05165 0.71721 0.0
O234 O 0.72099 0.07972 0.71882 0.0
C235 C 0.70514 0.01079 0.68225 0.0
O236 O 0.7211 0.02253 0.69425 0.0
C237 C 0.71393 0.06925 0.63629 0.0
Zn238 Zn 0.96749 0.71197 0.67526 0.0
Zn239 Zn 0.96645 0.67999 0.68296 0.0
O240 O 0.9936 0.69857 0.67217 0.0
O241 O 0.99494 0.72491 0.66716 0.0
O242 O 0.96737 0.65725 0.6921 0.0
O243 O 0.95914 0.71127 0.71389 0.0
O244 O 0.9579 0.68501 0.71948 0.0
C245 C 0.00286 0.71571 0.66675 0.0
C246 C 0.94232 0.68256 0.6378 0.0
O247 O 0.94772 0.67307 0.65081 0.0
O248 O 0.94861 0.69914 0.6445 0.0
C249 C 0.9566 0.64097 0.68327 0.0
O250 O 0.94316 0.63767 0.66575 0.0
C251 C 0.9558 0.69772 0.72886 0.0
H252 H 0.24399 0.35811 0.14041 0.0
N253 N 0.21388 0.3268 0.11878 0.0
H254 H 0.25786 0.36161 0.18558 0.0
H255 H 0.20301 0.3015 0.15803 0.0
H256 H 0.21706 0.30497 0.20387 0.0
H257 H 0.22161 0.30352 0.09556 0.0
H258 H 0.24716 0.31088 0.0646 0.0
H259 H 0.23604 0.36002 0.09257 0.0
H260 H 0.2618 0.36762 0.0635 0.0
H261 H 0.21942 0.36134 0.1267 0.0
H262 H 0.17801 0.30545 0.10533 0.0
H263 H 0.19653 0.3701 0.12188 0.0
H264 H 0.15418 0.31369 0.10333 0.0
H265 H 0.10609 0.3799 0.14933 0.0
H266 H 0.0891 0.37028 0.19212 0.0
H267 H 0.08872 0.31935 0.18888 0.0
H268 H 0.10429 0.32854 0.14503 0.0
H269 H 0.08411 0.33098 0.10114 0.0
H270 H 0.06125 0.33115 0.06978 0.0
H271 H 0.10015 0.38851 0.05225 0.0
H272 H 0.12254 0.38832 0.08477 0.0
H273 H 0.14906 0.37715 0.14487 0.0
H274 H 0.17263 0.36888 0.144 0.0
H275 H 0.14039 0.3279 0.08199 0.0
N276 N 0.11656 0.36134 0.11872 0.0
H277 H 0.1161 0.3353 0.08496 0.0
C278 C 0.22223 0.32949 0.14577 0.0
C279 C 0.23778 0.34643 0.15402 0.0
C280 C 0.24575 0.34845 0.18001 0.0
C281 C 0.23849 0.3336 0.19837 0.0
C282 C 0.22302 0.31664 0.19011 0.0
C283 C 0.21493 0.31466 0.16407 0.0
C284 C 0.22679 0.33109 0.09676 0.0
C285 C 0.23005 0.31741 0.0879 0.0
C286 C 0.24481 0.32172 0.07046 0.0
C287 C 0.25682 0.33993 0.06173 0.0
C288 C 0.25282 0.35338 0.06935 0.0
C289 C 0.23796 0.34901 0.08645 0.0
C290 C 0.20061 0.33268 0.11571 0.0
C291 C 0.20542 0.35087 0.12074 0.0
C292 C 0.19204 0.35584 0.11855 0.0
C293 C 0.17325 0.34264 0.11249 0.0
C294 C 0.16847 0.32441 0.10752 0.0
C295 C 0.18206 0.31959 0.10889 0.0
C296 C 0.10676 0.35516 0.14424 0.0
C297 C 0.10225 0.36665 0.15793 0.0
C298 C 0.09267 0.36115 0.18255 0.0
C299 C 0.08767 0.34409 0.1944 0.0
C300 C 0.09207 0.33247 0.1804 0.0
C301 C 0.10125 0.33782 0.1554 0.0
C302 C 0.10491 0.35978 0.09559 0.0
C303 C 0.08784 0.34347 0.09008 0.0
C304 C 0.07481 0.34359 0.07198 0.0
C305 C 0.07868 0.35997 0.05885 0.0
C306 C 0.09649 0.37578 0.06254 0.0
C307 C 0.10941 0.37568 0.08084 0.0
C308 C 0.13092 0.35709 0.11487 0.0
C309 C 0.1472 0.36649 0.13094 0.0
C310 C 0.16077 0.36178 0.13018 0.0
C311 C 0.15871 0.34778 0.11266 0.0
C312 C 0.14248 0.33857 0.09605 0.0
C313 C 0.1286 0.34299 0.0974 0.0
H314 H 0.70804 0.77469 0.15362 0.0
N315 N 0.68981 0.78655 0.12326 0.0
H316 H 0.70079 0.76191 0.1998 0.0
H317 H 0.66392 0.78631 0.1578 0.0
H318 H 0.6576 0.77498 0.20409 0.0
H319 H 0.65423 0.75693 0.11861 0.0
H320 H 0.6449 0.72829 0.09443 0.0
H321 H 0.70979 0.78118 0.08738 0.0
H322 H 0.70055 0.75273 0.06273 0.0
H323 H 0.71796 0.82065 0.11606 0.0
H324 H 0.65817 0.78691 0.10954 0.0
H325 H 0.71652 0.84786 0.10547 0.0
H326 H 0.65623 0.81411 0.10179 0.0
H327 H 0.69819 0.93251 0.12362 0.0
H328 H 0.69492 0.94155 0.16975 0.0
H329 H 0.65548 0.88479 0.18903 0.0
H330 H 0.65808 0.87586 0.14239 0.0
H331 H 0.64419 0.88489 0.0963 0.0
H332 H 0.62987 0.89728 0.0659 0.0
H333 H 0.68398 0.93512 0.03209 0.0
H334 H 0.69789 0.92222 0.06195 0.0
H335 H 0.70835 0.89486 0.12437 0.0
H336 H 0.71026 0.86747 0.12624 0.0
H337 H 0.65959 0.83845 0.07718 0.0
N338 N 0.68154 0.8988 0.10275 0.0
H339 H 0.657 0.86555 0.07762 0.0
C340 C 0.68667 0.78153 0.1519 0.0
C341 C 0.69713 0.77493 0.16471 0.0
C342 C 0.69301 0.76772 0.19122 0.0
C343 C 0.67843 0.76718 0.20575 0.0
C344 C 0.66858 0.77466 0.19336 0.0
C345 C 0.67242 0.78146 0.16668 0.0
C346 C 0.68279 0.77116 0.10483 0.0
C347 C 0.66425 0.75629 0.10581 0.0
C348 C 0.65894 0.73991 0.09198 0.0
C349 C 0.67208 0.73814 0.07701 0.0
C350 C 0.69021 0.75353 0.07451 0.0
C351 C 0.69547 0.76985 0.08832 0.0
C352 C 0.68824 0.80187 0.11428 0.0
C353 C 0.70449 0.81918 0.11246 0.0
C354 C 0.70355 0.83477 0.10678 0.0
C355 C 0.6862 0.8335 0.10359 0.0
C356 C 0.6699 0.81587 0.10398 0.0
C357 C 0.67094 0.80019 0.10875 0.0
C358 C 0.6787 0.90355 0.12975 0.0
C359 C 0.68868 0.92207 0.1377 0.0
C360 C 0.68672 0.9272 0.16387 0.0
C361 C 0.67495 0.91383 0.18272 0.0
C362 C 0.66461 0.8953 0.17471 0.0
C363 C 0.6662 0.8902 0.14821 0.0
C364 C 0.67213 0.9027 0.08127 0.0
C365 C 0.65279 0.89542 0.08165 0.0
C366 C 0.64469 0.90266 0.06445 0.0
C367 C 0.65579 0.91739 0.04676 0.0
C368 C 0.67491 0.92366 0.04515 0.0
C369 C 0.68294 0.91635 0.06223 0.0
C370 C 0.68265 0.88246 0.10092 0.0
C371 C 0.6977 0.88258 0.11394 0.0
C372 C 0.69884 0.86684 0.11468 0.0
C373 C 0.68517 0.85051 0.10163 0.0
C374 C 0.67026 0.85054 0.0879 0.0
C375 C 0.66886 0.86623 0.08785 0.0
H376 H 0.11771 0.75546 0.17241 0.0
N377 N 0.11751 0.77623 0.13196 0.0
H378 H 0.09807 0.74498 0.21285 0.0
H379 H 0.09088 0.78415 0.14414 0.0
H380 H 0.07077 0.7734 0.1842 0.0
H381 H 0.08932 0.77241 0.0983 0.0
H382 H 0.07367 0.74947 0.06228 0.0
H383 H 0.1278 0.75409 0.1124 0.0
H384 H 0.11174 0.73042 0.07753 0.0
H385 H 0.15182 0.79345 0.15232 0.0
H386 H 0.11309 0.80254 0.10644 0.0
H387 H 0.17481 0.82634 0.1516 0.0
H388 H 0.13625 0.83543 0.10447 0.0
H389 H 0.24094 0.90652 0.15044 0.0
H390 H 0.25514 0.91229 0.19579 0.0
H391 H 0.21808 0.92951 0.22352 0.0
H392 H 0.20347 0.9233 0.1776 0.0
H393 H 0.24201 0.94588 0.13414 0.0
H394 H 0.26816 0.95942 0.10324 0.0
H395 H 0.23912 0.91193 0.0506 0.0
H396 H 0.21291 0.89834 0.08124 0.0
H397 H 0.21856 0.88284 0.1254 0.0
H398 H 0.19529 0.85035 0.12259 0.0
H399 H 0.15174 0.86244 0.13248 0.0
N400 N 0.21232 0.91109 0.13359 0.0
H401 H 0.17537 0.89533 0.13435 0.0
C402 C 0.10575 0.77053 0.15545 0.0
C403 C 0.10748 0.75939 0.17497 0.0
C404 C 0.09614 0.75332 0.19789 0.0
C405 C 0.08275 0.75824 0.20167 0.0
C406 C 0.08104 0.76947 0.18199 0.0
C407 C 0.09245 0.77556 0.15903 0.0
C408 C 0.10985 0.76501 0.10788 0.0
C409 C 0.09469 0.76374 0.09322 0.0
C410 C 0.08559 0.7504 0.07281 0.0
C411 C 0.09127 0.73789 0.06704 0.0
C412 C 0.10707 0.73992 0.08092 0.0
C413 C 0.11626 0.75338 0.10103 0.0
C414 C 0.13091 0.79553 0.12921 0.0
C415 C 0.14845 0.80258 0.14167 0.0
C416 C 0.16158 0.82138 0.14108 0.0
C417 C 0.15749 0.8336 0.12775 0.0
C418 C 0.13984 0.82646 0.11511 0.0
C419 C 0.12661 0.80759 0.11596 0.0
C420 C 0.22084 0.9142 0.16063 0.0
C421 C 0.23548 0.9111 0.16629 0.0
C422 C 0.2437 0.91452 0.19227 0.0
C423 C 0.23761 0.9212 0.21326 0.0
C424 C 0.22306 0.9244 0.20768 0.0
C425 C 0.21468 0.9208 0.18159 0.0
C426 C 0.22607 0.92009 0.11204 0.0
C427 C 0.24117 0.93823 0.11604 0.0
C428 C 0.2561 0.94614 0.09809 0.0
C429 C 0.25603 0.93641 0.07503 0.0
C430 C 0.23991 0.9194 0.0689 0.0
C431 C 0.22494 0.91148 0.08686 0.0
C432 C 0.19873 0.89168 0.13 0.0
C433 C 0.20406 0.87862 0.12698 0.0
C434 C 0.19065 0.85992 0.12542 0.0
C435 C 0.17159 0.85368 0.12753 0.0
C436 C 0.16626 0.86673 0.13038 0.0
C437 C 0.17972 0.88553 0.13158 0.0
H438 H 0.34622 0.25051 0.89306 0.0
N439 N 0.32243 0.21678 0.91668 0.0
H440 H 0.34507 0.25942 0.84598 0.0
H441 H 0.29854 0.19638 0.87684 0.0
H442 H 0.29806 0.20523 0.82884 0.0
H443 H 0.29938 0.22491 0.9402 0.0
H444 H 0.30752 0.2511 0.96982 0.0
H445 H 0.35715 0.24062 0.93915 0.0
H446 H 0.36531 0.2665 0.96917 0.0
H447 H 0.35533 0.2231 0.89575 0.0
H448 H 0.30841 0.18552 0.94464 0.0
H449 H 0.36724 0.20247 0.89819 0.0
H450 H 0.32062 0.16499 0.94819 0.0
H451 H 0.38799 0.14325 0.86118 0.0
H452 H 0.37769 0.12741 0.81687 0.0
H453 H 0.32792 0.08372 0.85439 0.0
H454 H 0.3383 0.09945 0.89836 0.0
H455 H 0.3455 0.10945 0.94715 0.0
H456 H 0.34867 0.08803 0.97691 0.0
H457 H 0.40427 0.10899 0.94691 0.0
H458 H 0.40106 0.13058 0.91764 0.0
H459 H 0.3915 0.16786 0.91955 0.0
H460 H 0.3809 0.18942 0.92605 0.0
H461 H 0.3237 0.14436 0.91954 0.0
N462 N 0.37077 0.13217 0.90881 0.0
H463 H 0.33438 0.12303 0.91421 0.0
C464 C 0.32215 0.22273 0.88889 0.0
C465 C 0.33534 0.24054 0.87964 0.0
C466 C 0.33473 0.24569 0.85263 0.0
C467 C 0.32133 0.23307 0.83408 0.0
C468 C 0.30837 0.21523 0.84298 0.0
C469 C 0.30867 0.21019 0.87025 0.0
C470 C 0.32752 0.23068 0.93741 0.0
C471 C 0.31373 0.23373 0.94694 0.0
C472 C 0.31842 0.24868 0.96394 0.0
C473 C 0.3371 0.26097 0.97177 0.0
C474 C 0.35083 0.25743 0.96324 0.0
C475 C 0.34612 0.24246 0.94624 0.0
C476 C 0.33078 0.2057 0.91977 0.0
C477 C 0.3477 0.21049 0.90732 0.0
C478 C 0.3546 0.19871 0.90897 0.0
C479 C 0.34487 0.18196 0.9233 0.0
C480 C 0.32833 0.17759 0.93658 0.0
C481 C 0.32138 0.18934 0.93476 0.0
C482 C 0.36395 0.12268 0.88301 0.0
C483 C 0.37484 0.1303 0.85972 0.0
C484 C 0.36898 0.1212 0.83454 0.0
C485 C 0.35199 0.10434 0.8322 0.0
C486 C 0.34097 0.0968 0.85551 0.0
C487 C 0.34692 0.10581 0.88071 0.0
C488 C 0.37311 0.12167 0.93008 0.0
C489 C 0.35852 0.10975 0.94741 0.0
C490 C 0.36031 0.09738 0.9643 0.0
C491 C 0.37667 0.09664 0.96415 0.0
C492 C 0.39156 0.10928 0.94787 0.0
C493 C 0.38976 0.12162 0.93105 0.0
C494 C 0.36386 0.14387 0.91623 0.0
C495 C 0.37668 0.16266 0.92011 0.0
C496 C 0.37058 0.17496 0.92352 0.0
C497 C 0.35142 0.16871 0.92297 0.0
C498 C 0.33855 0.14971 0.92034 0.0
C499 C 0.34468 0.13742 0.9171 0.0
H500 H 0.76036 0.09703 0.89319 0.0
N501 N 0.78872 0.09238 0.91115 0.0
H502 H 0.74701 0.09168 0.84724 0.0
H503 H 0.79832 0.08045 0.8676 0.0
H504 H 0.78443 0.07449 0.82117 0.0
H505 H 0.76062 0.05701 0.90949 0.0
H506 H 0.73355 0.04193 0.93853 0.0
H507 H 0.78545 0.10449 0.96278 0.0
H508 H 0.75838 0.08933 0.99171 0.0
H509 H 0.78208 0.12039 0.91933 0.0
H510 H 0.82572 0.10841 0.91173 0.0
H511 H 0.80509 0.15297 0.92144 0.0
H512 H 0.8491 0.14141 0.91292 0.0
H513 H 0.8818 0.25035 0.87006 0.0
H514 H 0.90018 0.26098 0.82836 0.0
H515 H 0.92423 0.2281 0.84882 0.0
H516 H 0.90523 0.2171 0.88988 0.0
H517 H 0.91811 0.24358 0.92492 0.0
H518 H 0.93355 0.26813 0.95807 0.0
H519 H 0.8801 0.25978 0.98077 0.0
H520 H 0.86501 0.23642 0.94519 0.0
H521 H 0.84722 0.20885 0.88735 0.0
H522 H 0.8249 0.1759 0.89034 0.0
H523 H 0.86463 0.16956 0.93925 0.0
N524 N 0.88153 0.22753 0.90766 0.0
H525 H 0.8872 0.20273 0.93513 0.0
C526 C 0.7807 0.0895 0.88379 0.0
C527 C 0.76611 0.09258 0.87757 0.0
C528 C 0.75835 0.08937 0.85129 0.0
C529 C 0.76479 0.08281 0.83062 0.0
C530 C 0.77921 0.07953 0.83678 0.0
C531 C 0.78719 0.08299 0.86314 0.0
C532 C 0.77452 0.08274 0.93194 0.0
C533 C 0.76033 0.06429 0.92734 0.0
C534 C 0.74488 0.05552 0.94425 0.0
C535 C 0.74346 0.0647 0.96691 0.0
C536 C 0.75868 0.0822 0.97367 0.0
C537 C 0.77418 0.09102 0.95669 0.0
C538 C 0.80213 0.11177 0.91547 0.0
C539 C 0.79663 0.12472 0.91806 0.0
C540 C 0.80989 0.14348 0.91919 0.0
C541 C 0.829 0.14991 0.91701 0.0
C542 C 0.83454 0.13697 0.91497 0.0
C543 C 0.82121 0.11811 0.91421 0.0
C544 C 0.89213 0.23296 0.88289 0.0
C545 C 0.89096 0.24539 0.86532 0.0
C546 C 0.90163 0.25157 0.8417 0.0
C547 C 0.91382 0.24551 0.83527 0.0
C548 C 0.91484 0.23289 0.85291 0.0
C549 C 0.90403 0.22661 0.87644 0.0
C550 C 0.89038 0.23861 0.93174 0.0
C551 C 0.90963 0.24692 0.93702 0.0
C552 C 0.9185 0.26094 0.95647 0.0
C553 C 0.90825 0.26654 0.97175 0.0
C554 C 0.88867 0.25654 0.96865 0.0
C555 C 0.87991 0.24294 0.94857 0.0
C556 C 0.86867 0.20816 0.91118 0.0
C557 C 0.85101 0.20032 0.89883 0.0
C558 C 0.83826 0.18149 0.90076 0.0
C559 C 0.84283 0.17003 0.91535 0.0
C560 C 0.86067 0.17795 0.92774 0.0
C561 C 0.87353 0.19689 0.92561 0.0
H562 H 0.77985 0.70978 0.87738 0.0
N563 N 0.79258 0.69152 0.90536 0.0
H564 H 0.76485 0.70238 0.83217 0.0
H565 H 0.79072 0.66589 0.86994 0.0
H566 H 0.77678 0.65903 0.82412 0.0
H567 H 0.76979 0.65434 0.91166 0.0
H568 H 0.74119 0.63859 0.93745 0.0
H569 H 0.77933 0.70664 0.93807 0.0
H570 H 0.74968 0.69118 0.96177 0.0
H571 H 0.82608 0.71525 0.886 0.0
H572 H 0.79798 0.6675 0.93824 0.0
H573 H 0.85493 0.71524 0.89193 0.0
H574 H 0.82669 0.66775 0.94453 0.0
H575 H 0.94372 0.71879 0.89897 0.0
H576 H 0.95483 0.72018 0.85239 0.0
H577 H 0.90461 0.66844 0.83349 0.0
H578 H 0.89362 0.66719 0.8798 0.0
H579 H 0.90773 0.65835 0.91586 0.0
H580 H 0.92244 0.64623 0.94491 0.0
H581 H 0.93999 0.6915 0.00119 0.0
H582 H 0.9267 0.70447 0.97021 0.0
H583 H 0.90786 0.72107 0.92493 0.0
H584 H 0.87875 0.72102 0.92443 0.0
H585 H 0.84764 0.66165 0.92034 0.0
N586 N 0.91205 0.69251 0.9206 0.0
H587 H 0.87697 0.66194 0.92206 0.0
C588 C 0.78643 0.68847 0.87705 0.0
C589 C 0.77943 0.69886 0.86561 0.0
C590 C 0.77094 0.69465 0.83967 0.0
C591 C 0.76941 0.67999 0.82442 0.0
C592 C 0.77729 0.67015 0.83543 0.0
C593 C 0.7855 0.67419 0.86157 0.0
C594 C 0.77702 0.68174 0.92355 0.0
C595 C 0.76584 0.66244 0.92341 0.0
C596 C 0.74918 0.65345 0.93778 0.0
C597 C 0.74272 0.6635 0.95152 0.0
C598 C 0.75416 0.68282 0.95199 0.0
C599 C 0.77116 0.69177 0.93836 0.0
C600 C 0.8095 0.69128 0.911 0.0
C601 C 0.82608 0.70482 0.89883 0.0
C602 C 0.84263 0.70487 0.90242 0.0
C603 C 0.84317 0.69145 0.91869 0.0
C604 C 0.82672 0.67808 0.93144 0.0
C605 C 0.8101 0.67798 0.92773 0.0
C606 C 0.91792 0.69296 0.89291 0.0
C607 C 0.93513 0.70781 0.88469 0.0
C608 C 0.94141 0.70859 0.85814 0.0
C609 C 0.93059 0.69438 0.83937 0.0
C610 C 0.91333 0.67947 0.84762 0.0
C611 C 0.90698 0.67882 0.87408 0.0
C612 C 0.9167 0.68277 0.94035 0.0
C613 C 0.9147 0.66571 0.93441 0.0
C614 C 0.92299 0.6586 0.95145 0.0
C615 C 0.93297 0.66806 0.97531 0.0
C616 C 0.93316 0.68413 0.98253 0.0
C617 C 0.92532 0.69148 0.96505 0.0
C618 C 0.89456 0.69159 0.92338 0.0
C619 C 0.89472 0.70807 0.92439 0.0
C620 C 0.87806 0.70799 0.92379 0.0
C621 C 0.8608 0.69134 0.92189 0.0
C622 C 0.86065 0.67472 0.92194 0.0
C623 C 0.8774 0.67484 0.92275 0.0
H624 H 0.72103 0.62038 0.46424 0.0
N625 N 0.75321 0.64448 0.4416 0.0
H626 H 0.7111 0.62054 0.51104 0.0
H627 H 0.7734 0.67033 0.48083 0.0
H628 H 0.76349 0.67076 0.5276 0.0
H629 H 0.76784 0.6817 0.43938 0.0
H630 H 0.75546 0.69721 0.41209 0.0
H631 H 0.72851 0.6302 0.40081 0.0
H632 H 0.71569 0.64545 0.37383 0.0
H633 H 0.75843 0.61817 0.45987 0.0
H634 H 0.78697 0.67073 0.41911 0.0
H635 H 0.78715 0.61792 0.46205 0.0
H636 H 0.81541 0.66993 0.41914 0.0
H637 H 0.88927 0.62871 0.48437 0.0
H638 H 0.90455 0.63623 0.52943 0.0
H639 H 0.88172 0.67036 0.54554 0.0
H640 H 0.86747 0.66368 0.50059 0.0
H641 H 0.89895 0.67971 0.46177 0.0
H642 H 0.92656 0.69488 0.43349 0.0
H643 H 0.90638 0.64452 0.38802 0.0
H644 H 0.87876 0.62931 0.41696 0.0
H645 H 0.83755 0.61455 0.45065 0.0
H646 H 0.80886 0.61435 0.44096 0.0
H647 H 0.83972 0.67376 0.44602 0.0
N648 N 0.87147 0.64337 0.45995 0.0
H649 H 0.86832 0.67372 0.45322 0.0
C650 C 0.74783 0.6453 0.46912 0.0
C651 C 0.73031 0.6314 0.47801 0.0
C652 C 0.72472 0.63151 0.50468 0.0
C653 C 0.73655 0.64566 0.52291 0.0
C654 C 0.75404 0.6598 0.51387 0.0
C655 C 0.75971 0.65957 0.48721 0.0
C656 C 0.74906 0.65471 0.42208 0.0
C657 C 0.75679 0.67378 0.42462 0.0
C658 C 0.74959 0.68262 0.40912 0.0
C659 C 0.73441 0.67256 0.39097 0.0
C660 C 0.7275 0.65371 0.38733 0.0
C661 C 0.73478 0.64492 0.40275 0.0
C662 C 0.77035 0.64444 0.43962 0.0
C663 C 0.77084 0.62951 0.45088 0.0
C664 C 0.78734 0.62933 0.45181 0.0
C665 C 0.80384 0.64391 0.44074 0.0
C666 C 0.80319 0.65862 0.42848 0.0
C667 C 0.78671 0.65901 0.42821 0.0
C668 C 0.87731 0.64565 0.48851 0.0
C669 C 0.88734 0.6376 0.49783 0.0
C670 C 0.89602 0.64186 0.52368 0.0
C671 C 0.89465 0.65417 0.54103 0.0
C672 C 0.88354 0.66124 0.53245 0.0
C673 C 0.87515 0.65723 0.50647 0.0
C674 C 0.88676 0.65332 0.44142 0.0
C675 C 0.90024 0.67202 0.44537 0.0
C676 C 0.91605 0.6807 0.42909 0.0
C677 C 0.91873 0.6709 0.4085 0.0
C678 C 0.90485 0.65239 0.40392 0.0
C679 C 0.88902 0.64372 0.42024 0.0
C680 C 0.85502 0.64403 0.4532 0.0
C681 C 0.83805 0.62749 0.44934 0.0
C682 C 0.82163 0.62746 0.44407 0.0
C683 C 0.82169 0.64404 0.44321 0.0
C684 C 0.83893 0.66068 0.44617 0.0
C685 C 0.85542 0.66069 0.45063 0.0
H686 H 0.37251 0.10909 0.47377 0.0
N687 N 0.35326 0.12149 0.44733 0.0
H688 H 0.36781 0.09677 0.52023 0.0
H689 H 0.33021 0.12251 0.48607 0.0
H690 H 0.32641 0.11154 0.53254 0.0
H691 H 0.32033 0.08856 0.45346 0.0
H692 H 0.31062 0.06081 0.42748 0.0
H693 H 0.36622 0.11951 0.39903 0.0
H694 H 0.3555 0.09221 0.37094 0.0
H695 H 0.3818 0.15523 0.43892 0.0
H696 H 0.32185 0.12299 0.43841 0.0
H697 H 0.381 0.18304 0.43073 0.0
H698 H 0.32067 0.15088 0.43298 0.0
H699 H 0.36618 0.26872 0.46188 0.0
H700 H 0.36265 0.27582 0.50915 0.0
H701 H 0.32115 0.21873 0.52246 0.0
H702 H 0.32407 0.21181 0.47475 0.0
H703 H 0.31187 0.22414 0.43001 0.0
H704 H 0.29908 0.23805 0.39968 0.0
H705 H 0.35435 0.27524 0.36892 0.0
H706 H 0.36671 0.26076 0.39858 0.0
H707 H 0.37566 0.23102 0.45509 0.0
H708 H 0.37649 0.20301 0.45439 0.0
H709 H 0.32402 0.17573 0.40934 0.0
N710 N 0.34876 0.23609 0.43739 0.0
H711 H 0.32266 0.2035 0.41228 0.0
C712 C 0.35188 0.11684 0.47612 0.0
C713 C 0.36259 0.10984 0.48668 0.0
C714 C 0.35992 0.10287 0.51333 0.0
C715 C 0.34657 0.10296 0.53022 0.0
C716 C 0.33648 0.11078 0.52001 0.0
C717 C 0.33888 0.11738 0.49324 0.0
C718 C 0.34447 0.10605 0.42871 0.0
C719 C 0.32805 0.08951 0.43541 0.0
C720 C 0.32236 0.07356 0.42019 0.0
C721 C 0.33255 0.07392 0.39733 0.0
C722 C 0.34773 0.09104 0.38904 0.0
C723 C 0.35375 0.10681 0.4048 0.0
C724 C 0.35197 0.13721 0.43994 0.0
C725 C 0.36844 0.15425 0.43716 0.0
C726 C 0.36789 0.17017 0.43285 0.0
C727 C 0.35077 0.16951 0.43203 0.0
C728 C 0.33416 0.15214 0.43339 0.0
C729 C 0.33477 0.13611 0.43681 0.0
C730 C 0.34567 0.23976 0.46494 0.0
C731 C 0.35617 0.2578 0.47491 0.0
C732 C 0.3541 0.26183 0.50176 0.0
C733 C 0.34168 0.24778 0.51926 0.0
C734 C 0.33085 0.22974 0.50924 0.0
C735 C 0.33257 0.22579 0.4821 0.0
C736 C 0.34026 0.24144 0.4164 0.0
C737 C 0.32106 0.2349 0.41608 0.0
C738 C 0.31383 0.24303 0.39893 0.0
C739 C 0.32569 0.25795 0.38201 0.0
C740 C 0.3447 0.26366 0.38132 0.0
C741 C 0.35186 0.25545 0.39832 0.0
C742 C 0.34927 0.21955 0.43366 0.0
C743 C 0.36442 0.21901 0.44489 0.0
C744 C 0.36491 0.20291 0.44418 0.0
C745 C 0.3504 0.1869 0.43153 0.0
C746 C 0.33535 0.18759 0.41963 0.0
C747 C 0.33466 0.20365 0.42099 0.0
H748 H 0.79017 0.09306 0.50411 0.0
N749 N 0.78223 0.10522 0.45876 0.0
H750 H 0.7727 0.08372 0.54685 0.0
H751 H 0.75089 0.10589 0.46905 0.0
H752 H 0.73334 0.09665 0.51163 0.0
H753 H 0.75668 0.10268 0.42124 0.0
H754 H 0.74049 0.07833 0.38663 0.0
H755 H 0.78977 0.07973 0.44594 0.0
H756 H 0.77383 0.05543 0.41184 0.0
H757 H 0.81837 0.11869 0.4525 0.0
H758 H 0.77719 0.13423 0.45416 0.0
H759 H 0.84311 0.15097 0.44921 0.0
H760 H 0.80182 0.16668 0.45267 0.0
H761 H 0.91327 0.23639 0.48003 0.0
H762 H 0.9275 0.24573 0.52493 0.0
H763 H 0.88849 0.26207 0.54573 0.0
H764 H 0.87404 0.25268 0.49978 0.0
H765 H 0.89542 0.26924 0.43289 0.0
H766 H 0.92097 0.28364 0.40045 0.0
H767 H 0.92639 0.2359 0.40537 0.0
H768 H 0.90024 0.22132 0.43589 0.0
H769 H 0.88276 0.20768 0.4822 0.0
H770 H 0.85785 0.17602 0.479 0.0
H771 H 0.82585 0.1918 0.42807 0.0
N772 N 0.8832 0.23779 0.45971 0.0
H773 H 0.85082 0.2241 0.43271 0.0
C774 C 0.7719 0.10027 0.48366 0.0
C775 C 0.77779 0.09389 0.50576 0.0
C776 C 0.76774 0.08847 0.52999 0.0
C777 C 0.75163 0.08942 0.53254 0.0
C778 C 0.74579 0.09593 0.51033 0.0
C779 C 0.7558 0.10121 0.48601 0.0
C780 C 0.77429 0.0928 0.43608 0.0
C781 C 0.76059 0.09252 0.41889 0.0
C782 C 0.75137 0.07861 0.39924 0.0
C783 C 0.75586 0.06493 0.39645 0.0
C784 C 0.77021 0.06588 0.41302 0.0
C785 C 0.77929 0.07967 0.43263 0.0
C786 C 0.79608 0.12415 0.45399 0.0
C787 C 0.81473 0.12915 0.45207 0.0
C788 C 0.82882 0.14762 0.45051 0.0
C789 C 0.82455 0.16154 0.45131 0.0
C790 C 0.80568 0.15639 0.45193 0.0
C791 C 0.79154 0.13783 0.45303 0.0
C792 C 0.89238 0.24376 0.48625 0.0
C793 C 0.9077 0.24209 0.49382 0.0
C794 C 0.91583 0.24733 0.51977 0.0
C795 C 0.90898 0.25445 0.53892 0.0
C796 C 0.89404 0.25664 0.5313 0.0
C797 C 0.88575 0.25122 0.5052 0.0
C798 C 0.89602 0.24436 0.43718 0.0
C799 C 0.90184 0.26175 0.42627 0.0
C800 C 0.91662 0.27002 0.40798 0.0
C801 C 0.92616 0.26118 0.40063 0.0
C802 C 0.91942 0.24319 0.41019 0.0
C803 C 0.90441 0.2348 0.42798 0.0
C804 C 0.86865 0.21857 0.45802 0.0
C805 C 0.87043 0.2046 0.47057 0.0
C806 C 0.85613 0.18625 0.46835 0.0
C807 C 0.83979 0.18122 0.4531 0.0
C808 C 0.8381 0.19514 0.44027 0.0
C809 C 0.85238 0.2136 0.44278 0.0
H810 H 0.02882 0.58971 0.22526 0.0
N811 N 0.99808 0.5601 0.24774 0.0
H812 H 0.03161 0.60091 0.17856 0.0
H813 H 0.97197 0.54676 0.20841 0.0
H814 H 0.97463 0.55812 0.16128 0.0
H815 H 0.97206 0.56514 0.26797 0.0
H816 H 0.97647 0.59004 0.29778 0.0
H817 H 0.03078 0.58487 0.27495 0.0
H818 H 0.03522 0.60948 0.30487 0.0
H819 H 0.03406 0.56755 0.24368 0.0
H820 H 0.97754 0.52476 0.26046 0.0
H821 H 0.04409 0.54566 0.24763 0.0
H822 H 0.98721 0.50226 0.26245 0.0
H823 H 0.05205 0.4549 0.21046 0.0
H824 H 0.03875 0.43587 0.16973 0.0
H825 H 0.98797 0.43639 0.18018 0.0
H826 H 1.00087 0.45397 0.22218 0.0
H827 H 0.00631 0.43712 0.26775 0.0
H828 H 0.00792 0.41614 0.30039 0.0
H829 H 0.06811 0.45023 0.30137 0.0
H830 H 0.06618 0.47162 0.26986 0.0
H831 H 0.05112 0.49895 0.21868 0.0
H832 H 0.04276 0.52223 0.22223 0.0
H833 H 0.00313 0.49005 0.28494 0.0
N834 N 0.03595 0.4668 0.24378 0.0
H835 H 0.0108 0.46642 0.28002 0.0
C836 C 1.00017 0.56719 0.22029 0.0
C837 C 0.01695 0.58257 0.21151 0.0
C838 C 0.01854 0.58899 0.18473 0.0
C839 C 0.00337 0.58032 0.16623 0.0
C840 C 0.98652 0.56512 0.17514 0.0
C841 C 0.985 0.55858 0.20192 0.0
C842 C 1.00096 0.57301 0.26903 0.0
C843 C 0.9858 0.57454 0.27649 0.0
C844 C 0.98836 0.58876 0.29357 0.0
C845 C 0.00624 0.60186 0.30355 0.0
C846 C 0.02131 0.59978 0.2972 0.0
C847 C 0.01872 0.58554 0.28011 0.0
C848 C 0.00496 0.5479 0.2523 0.0
C849 C 0.02377 0.5535 0.24867 0.0
C850 C 0.02948 0.54078 0.25044 0.0
C851 C 0.01649 0.52204 0.25512 0.0
C852 C 0.99775 0.51656 0.25928 0.0
C853 C 0.99212 0.52939 0.25801 0.0
C854 C 0.02768 0.45616 0.21913 0.0
C855 C 0.03804 0.45085 0.20387 0.0
C856 C 0.03041 0.44008 0.18039 0.0
C857 C 0.01226 0.43465 0.17116 0.0
C858 C 0.00185 0.43999 0.18663 0.0
C859 C 0.00934 0.45035 0.21058 0.0
C860 C 0.03619 0.45605 0.26658 0.0
C861 C 0.0198 0.44041 0.27579 0.0
C862 C 0.02078 0.42827 0.29417 0.0
C863 C 0.03817 0.43128 0.30327 0.0
C864 C 0.05447 0.4475 0.29514 0.0
C865 C 0.05343 0.45975 0.27705 0.0
C866 C 0.03181 0.48096 0.24906 0.0
C867 C 0.04077 0.49705 0.23339 0.0
C868 C 0.03602 0.51042 0.23563 0.0
C869 C 0.02226 0.50817 0.25399 0.0
C870 C 0.01358 0.4922 0.27027 0.0
C871 C 0.01815 0.47866 0.26767 0.0
H872 H 0.59905 0.5457 0.21985 0.0
N873 N 0.57731 0.5521 0.25061 0.0
H874 H 0.61087 0.55794 0.17432 0.0
H875 H 0.5694 0.57444 0.22016 0.0
H876 H 0.58059 0.58625 0.17433 0.0
H877 H 0.55357 0.56203 0.27206 0.0
H878 H 0.56252 0.58847 0.30092 0.0
H879 H 0.61039 0.57467 0.27316 0.0
H880 H 0.6198 0.60195 0.30044 0.0
H881 H 0.57095 0.52156 0.27551 0.0
H882 H 0.54353 0.54413 0.22876 0.0
H883 H 0.54167 0.49167 0.27662 0.0
H884 H 0.51449 0.51446 0.22937 0.0
H885 H 0.44202 0.39758 0.2183 0.0
H886 H 0.42627 0.38879 0.17358 0.0
H887 H 0.44361 0.4455 0.15816 0.0
H888 H 0.45825 0.4539 0.20312 0.0
H889 H 0.43131 0.43989 0.2411 0.0
H890 H 0.40396 0.42748 0.2696 0.0
H891 H 0.42207 0.39547 0.31446 0.0
H892 H 0.4497 0.40809 0.28553 0.0
H893 H 0.4924 0.43723 0.24001 0.0
H894 H 0.52157 0.46702 0.24414 0.0
H895 H 0.49014 0.49296 0.26004 0.0
N896 N 0.45776 0.43026 0.2425 0.0
H897 H 0.46128 0.46348 0.25544 0.0
C898 C 0.58329 0.559 0.2233 0.0
C899 C 0.59494 0.55449 0.2099 0.0
C900 C 0.60161 0.56146 0.18388 0.0
C901 C 0.59664 0.57306 0.1706 0.0
C902 C 0.58488 0.57754 0.18407 0.0
C903 C 0.57828 0.57062 0.21017 0.0
C904 C 0.58135 0.56621 0.27047 0.0
C905 C 0.56796 0.57032 0.27869 0.0
C906 C 0.57319 0.5857 0.29504 0.0
C907 C 0.59197 0.59761 0.30295 0.0
C908 C 0.60516 0.59306 0.29536 0.0
C909 C 0.59985 0.57749 0.27955 0.0
C910 C 0.55952 0.5351 0.25213 0.0
C911 C 0.5586 0.52009 0.26564 0.0
C912 C 0.54191 0.50302 0.26608 0.0
C913 C 0.52575 0.50067 0.25304 0.0
C914 C 0.52661 0.51585 0.2399 0.0
C915 C 0.54331 0.53286 0.23939 0.0
C916 C 0.4514 0.42634 0.21427 0.0
C917 C 0.44264 0.40812 0.20502 0.0
C918 C 0.4337 0.40315 0.17939 0.0
C919 C 0.43346 0.41639 0.16229 0.0
C920 C 0.4431 0.43483 0.171 0.0
C921 C 0.45178 0.43974 0.19676 0.0
C922 C 0.44273 0.42502 0.26133 0.0
C923 C 0.42973 0.43057 0.25745 0.0
C924 C 0.41404 0.42345 0.27384 0.0
C925 C 0.41084 0.41049 0.29434 0.0
C926 C 0.4241 0.40535 0.29873 0.0
C927 C 0.43992 0.41262 0.2824 0.0
C928 C 0.47457 0.4479 0.24745 0.0
C929 C 0.49186 0.44933 0.2447 0.0
C930 C 0.50849 0.46635 0.24716 0.0
C931 C 0.50817 0.48239 0.25234 0.0
C932 C 0.49086 0.48091 0.25572 0.0
C933 C 0.47426 0.46389 0.25331 0.0
H934 H 0.55773 0.95698 0.21056 0.0
N935 N 0.5495 0.97736 0.24102 0.0
H936 H 0.57508 0.96551 0.16813 0.0
H937 H 0.56398 0.01041 0.21432 0.0
H938 H 0.5799 0.01858 0.17078 0.0
H939 H 0.58267 0.0065 0.2593 0.0
H940 H 0.60472 0.00464 0.2904 0.0
H941 H 0.54223 0.94936 0.27356 0.0
H942 H 0.56398 0.94741 0.30538 0.0
H943 H 0.51543 0.96094 0.21975 0.0
H944 H 0.55386 0.0069 0.2702 0.0
H945 H 0.4933 0.97121 0.22055 0.0
H946 H 0.53139 0.01682 0.27252 0.0
H947 H 0.42784 0.98836 0.22207 0.0
H948 H 0.41297 0.9822 0.17708 0.0
H949 H 0.45476 0.03673 0.15068 0.0
H950 H 0.46985 0.04281 0.19619 0.0
H951 H 0.43456 0.03176 0.24177 0.0
H952 H 0.40823 0.02096 0.27208 0.0
H953 H 0.42737 0.99055 0.31889 0.0
H954 H 0.45348 0.00109 0.28874 0.0
H955 H 0.45032 0.98452 0.2424 0.0
H956 H 0.47213 0.97407 0.2463 0.0
H957 H 0.5181 0.03051 0.24619 0.0
N958 N 0.45884 0.02032 0.23947 0.0
H959 H 0.49587 0.04087 0.24364 0.0
C960 C 0.55923 0.98283 0.21539 0.0
C961 C 0.56257 0.97044 0.20189 0.0
C962 C 0.57239 0.97534 0.17747 0.0
C963 C 0.57879 0.99271 0.16559 0.0
C964 C 0.57547 0.00518 0.1793 0.0
C965 C 0.56605 1.00041 0.20413 0.0
C966 C 0.56082 0.97798 0.26402 0.0
C967 C 0.5783 0.99371 0.2699 0.0
C968 C 0.5909 0.99261 0.28775 0.0
C969 C 0.58624 0.97577 0.30008 0.0
C970 C 0.56816 0.96048 0.29581 0.0
C971 C 0.55563 0.9616 0.27791 0.0
C972 C 0.53616 0.98292 0.2451 0.0
C973 C 0.51886 0.97301 0.2316 0.0
C974 C 0.50619 0.97891 0.23222 0.0
C975 C 0.51041 0.99485 0.24674 0.0
C976 C 0.52769 0.00462 0.26082 0.0
C977 C 0.54051 0.99881 0.25985 0.0
C978 C 0.45022 0.01603 0.21245 0.0
C979 C 0.43413 0.99888 0.20652 0.0
C980 C 0.42556 0.9954 0.18075 0.0
C981 C 0.43275 0.00894 0.16025 0.0
C982 C 0.44885 0.02607 0.16611 0.0
C983 C 0.45754 0.02951 0.19196 0.0
C984 C 0.44544 0.0162 0.26111 0.0
C985 C 0.43318 0.02278 0.25857 0.0
C986 C 0.41817 0.01674 0.27617 0.0
C987 C 0.41532 0.00436 0.29738 0.0
C988 C 0.42875 0.99948 0.302 0.0
C989 C 0.44372 0.00544 0.28432 0.0
C990 C 0.47144 0.0136 0.24288 0.0
C991 C 0.46505 0.9947 0.24324 0.0
C992 C 0.47764 0.98871 0.2454 0.0
C993 C 0.497 0.00139 0.2464 0.0
C994 C 0.50334 0.02029 0.24598 0.0
C995 C 0.49067 0.02628 0.24433 0.0
H996 H 0.38942 0.95588 0.79957 0.0
N997 N 0.42253 0.98043 0.77974 0.0
H998 H 0.37751 0.9552 0.84527 0.0
H999 H 0.44149 0.00482 0.82145 0.0
H1000 H 0.42975 0.00423 0.86704 0.0
H1001 H 0.42776 0.01494 0.78503 0.0
H1002 H 0.41568 0.0288 0.75433 0.0
H1003 H 0.4098 0.96984 0.72894 0.0
H1004 H 0.39922 0.98456 0.69645 0.0
H1005 H 0.42642 0.95156 0.77952 0.0
H1006 H 0.45775 0.01072 0.77663 0.0
H1007 H 0.45543 0.95135 0.77983 0.0
H1008 H 0.48695 0.01073 0.77743 0.0
H1009 H 0.55416 0.96086 0.81392 0.0
H1010 H 0.56984 0.96683 0.85849 0.0
H1011 H 0.56082 0.01179 0.87103 0.0
H1012 H 0.54616 0.00629 0.82574 0.0
H1013 H 0.56291 0.01754 0.7812 0.0
H1014 H 0.59072 0.03396 0.75373 0.0
H1015 H 0.58431 0.98203 0.73038 0.0
H1016 H 0.55536 0.96588 0.75556 0.0
H1017 H 0.50994 0.95926 0.815 0.0
H1018 H 0.48113 0.95956 0.81169 0.0
H1019 H 0.50554 0.00189 0.75003 0.0
N1020 N 0.54175 0.98031 0.78878 0.0
H1021 H 0.53415 0.00168 0.75316 0.0
C1022 C 0.41629 0.98028 0.8071 0.0
C1023 C 0.39828 0.9664 0.81429 0.0
C1024 C 0.39155 0.96604 0.84036 0.0
C1025 C 0.4027 0.97969 0.85969 0.0
C1026 C 0.42077 0.99365 0.85246 0.0
C1027 C 0.42755 0.9939 0.82646 0.0
C1028 C 0.41903 0.99089 0.75974 0.0
C1029 C 0.42154 0.00815 0.76581 0.0
C1030 C 0.41482 0.01628 0.74782 0.0
C1031 C 0.40597 0.00767 0.72291 0.0
C1032 C 0.40524 0.99131 0.71581 0.0
C1033 C 0.41149 0.98294 0.73419 0.0
C1034 C 0.43994 0.98107 0.77802 0.0
C1035 C 0.43962 0.96449 0.77879 0.0
C1036 C 0.45619 0.96443 0.77919 0.0
C1037 C 0.47351 0.98103 0.77887 0.0
C1038 C 0.47383 0.99771 0.77747 0.0
C1039 C 0.45718 0.99774 0.77711 0.0
C1040 C 0.54892 0.983 0.81655 0.0
C1041 C 0.55543 0.97186 0.82649 0.0
C1042 C 0.5643 0.97527 0.85208 0.0
C1043 C 0.56669 0.98984 0.86851 0.0
C1044 C 0.55959 1.00067 0.85881 0.0
C1045 C 0.55099 0.99743 0.833 0.0
C1046 C 0.55676 0.9904 0.76983 0.0
C1047 C 0.56717 0.00972 0.76933 0.0
C1048 C 0.58337 0.01911 0.75395 0.0
C1049 C 0.5902 0.00948 0.73992 0.0
C1050 C 0.57952 0.99011 0.74022 0.0
C1051 C 0.56293 0.98075 0.75476 0.0
C1052 C 0.52481 0.98088 0.78536 0.0
C1053 C 0.5092 0.96873 0.80089 0.0
C1054 C 0.49265 0.96881 0.79882 0.0
C1055 C 0.49111 0.98089 0.78078 0.0
C1056 C 0.50645 0.99273 0.76461 0.0
C1057 C 0.52303 0.99263 0.76661 0.0
H1058 H 0.94418 0.54636 0.8278 0.0
N1059 N 0.96339 0.54381 0.7874 0.0
H1060 H 0.95628 0.56306 0.87099 0.0
H1061 H 0.99989 0.56269 0.80433 0.0
H1062 H 0.01231 0.58023 0.84667 0.0
H1063 H 0.99347 0.57319 0.76298 0.0
H1064 H 0.99244 0.59549 0.73279 0.0
H1065 H 0.93342 0.54091 0.76334 0.0
H1066 H 0.93221 0.56357 0.73373 0.0
H1067 H 0.94479 0.51022 0.80766 0.0
H1068 H 0.99074 0.54502 0.75525 0.0
H1069 H 0.95209 0.48619 0.80434 0.0
H1070 H 0.99757 0.52073 0.75045 0.0
H1071 H 0.96416 0.42105 0.81224 0.0
H1072 H 0.96141 0.41005 0.85904 0.0
H1073 H 0.02061 0.447 0.872 0.0
H1074 H 0.02325 0.45801 0.82471 0.0
H1075 H 0.02294 0.44384 0.76504 0.0
H1076 H 0.01938 0.4187 0.73659 0.0
H1077 H 0.95967 0.39481 0.73491 0.0
H1078 H 0.96329 0.41949 0.76371 0.0
H1079 H 0.96055 0.44082 0.78404 0.0
H1080 H 0.95209 0.46376 0.77829 0.0
H1081 H 0.01048 0.50619 0.77501 0.0
N1082 N 0.99619 0.44698 0.78717 0.0
H1083 H 0.01875 0.48269 0.77867 0.0
C1084 C 0.97108 0.55336 0.81289 0.0
C1085 C 0.95904 0.55365 0.83201 0.0
C1086 C 0.96604 0.56336 0.85651 0.0
C1087 C 0.98533 0.57316 0.8623 0.0
C1088 C 0.99738 0.5727 0.8431 0.0
C1089 C 0.99032 0.56282 0.81871 0.0
C1090 C 0.96343 0.5552 0.76536 0.0
C1091 C 0.98002 0.5706 0.75604 0.0
C1092 C 0.97942 0.58353 0.73898 0.0
C1093 C 0.96224 0.5815 0.73111 0.0
C1094 C 0.94569 0.56553 0.73914 0.0
C1095 C 0.94632 0.55255 0.75608 0.0
C1096 C 0.96701 0.52938 0.78165 0.0
C1097 C 0.95617 0.51247 0.79483 0.0
C1098 C 0.96034 0.49869 0.79273 0.0
C1099 C 0.97543 0.50136 0.77699 0.0
C1100 C 0.98602 0.5182 0.76308 0.0
C1101 C 0.98197 0.53213 0.76557 0.0
C1102 C 0.99396 0.44053 0.815 0.0
C1103 C 0.97654 0.42699 0.82508 0.0
C1104 C 0.97498 0.4207 0.85197 0.0
C1105 C 0.99079 0.42771 0.86928 0.0
C1106 C 0.0082 0.44124 0.85912 0.0
C1107 C 0.00973 0.44761 0.83224 0.0
C1108 C 0.99351 0.43376 0.76658 0.0
C1109 C 0.00913 0.43338 0.75798 0.0
C1110 C 0.00705 0.41901 0.74167 0.0
C1111 C 0.9892 0.40462 0.73362 0.0
C1112 C 0.9736 0.4055 0.74111 0.0
C1113 C 0.9757 0.41985 0.75749 0.0
C1114 C 0.99041 0.45992 0.78126 0.0
C1115 C 0.97159 0.45488 0.78113 0.0
C1116 C 0.96674 0.46821 0.77835 0.0
C1117 C 0.98055 0.48699 0.77646 0.0
C1118 C 0.99936 0.49192 0.77596 0.0
C1119 C 0.00417 0.47851 0.77821 0.0
H1120 H 0.45578 0.41547 0.83096 0.0
N1121 N 0.45221 0.43492 0.79108 0.0
H1122 H 0.43948 0.40634 0.87468 0.0
H1123 H 0.42695 0.44339 0.80887 0.0
H1124 H 0.41036 0.43406 0.85192 0.0
H1125 H 0.41682 0.42177 0.77116 0.0
H1126 H 0.39961 0.39537 0.74112 0.0
H1127 H 0.46685 0.42054 0.75964 0.0
H1128 H 0.4502 0.39508 0.72745 0.0
H1129 H 0.48877 0.45188 0.7979 0.0
H1130 H 0.44484 0.46084 0.7724 0.0
H1131 H 0.51136 0.4848 0.79536 0.0
H1132 H 0.46703 0.4941 0.77185 0.0
H1133 H 0.57461 0.57126 0.81685 0.0
H1134 H 0.58665 0.58178 0.86261 0.0
H1135 H 0.54524 0.59628 0.87502 0.0
H1136 H 0.53285 0.58559 0.8282 0.0
H1137 H 0.55819 0.60102 0.76254 0.0
H1138 H 0.5848 0.61395 0.73186 0.0
H1139 H 0.58905 0.56599 0.74508 0.0
H1140 H 0.56206 0.5529 0.77401 0.0
H1141 H 0.54178 0.54251 0.8254 0.0
H1142 H 0.5191 0.51026 0.82203 0.0
H1143 H 0.49316 0.52025 0.75234 0.0
N1144 N 0.54437 0.57029 0.79199 0.0
H1145 H 0.51565 0.55331 0.75686 0.0
C1146 C 0.44268 0.43015 0.81678 0.0
C1147 C 0.44594 0.41961 0.8356 0.0
C1148 C 0.43651 0.41431 0.8604 0.0
C1149 C 0.4236 0.41946 0.86679 0.0
C1150 C 0.42041 0.43009 0.84784 0.0
C1151 C 0.42987 0.43541 0.82311 0.0
C1152 C 0.44302 0.42273 0.76831 0.0
C1153 C 0.42425 0.41614 0.76155 0.0
C1154 C 0.41442 0.40106 0.744 0.0
C1155 C 0.42332 0.39262 0.7323 0.0
C1156 C 0.44265 0.40068 0.73684 0.0
C1157 C 0.4523 0.41542 0.75493 0.0
C1158 C 0.46519 0.45405 0.78595 0.0
C1159 C 0.48407 0.46106 0.79172 0.0
C1160 C 0.49687 0.47991 0.79061 0.0
C1161 C 0.49098 0.49227 0.78423 0.0
C1162 C 0.47211 0.48507 0.77695 0.0
C1163 C 0.45933 0.46606 0.77755 0.0
C1164 C 0.55268 0.57763 0.8187 0.0
C1165 C 0.56818 0.57699 0.82879 0.0
C1166 C 0.57507 0.58294 0.85516 0.0
C1167 C 0.56684 0.5898 0.87213 0.0
C1168 C 0.55182 0.5911 0.86209 0.0
C1169 C 0.54474 0.58496 0.83552 0.0
C1170 C 0.55814 0.57611 0.77078 0.0
C1171 C 0.56463 0.59316 0.75814 0.0
C1172 C 0.57998 0.60059 0.74087 0.0
C1173 C 0.58938 0.5912 0.73621 0.0
C1174 C 0.58216 0.57361 0.74772 0.0
C1175 C 0.56665 0.56608 0.76455 0.0
C1176 C 0.5305 0.55075 0.79144 0.0
C1177 C 0.53123 0.53813 0.8095 0.0
C1178 C 0.51824 0.51937 0.8073 0.0
C1179 C 0.50438 0.51247 0.78662 0.0
C1180 C 0.50352 0.52502 0.76867 0.0
C1181 C 0.5164 0.54393 0.77116 0.0
H1182 H 0.71593 0.9158 0.53754 0.0
N1183 N 0.69223 0.90465 0.57846 0.0
H1184 H 0.71047 0.92117 0.49006 0.0
H1185 H 0.65954 0.89929 0.55699 0.0
H1186 H 0.6537 0.90429 0.50923 0.0
H1187 H 0.6637 0.90252 0.60719 0.0
H1188 H 0.66569 0.92647 0.63721 0.0
H1189 H 0.72283 0.93532 0.59426 0.0
H1190 H 0.72507 0.9594 0.62374 0.0
H1191 H 0.71714 0.89594 0.59379 0.0
H1192 H 0.65827 0.87309 0.58105 0.0
H1193 H 0.71168 0.86515 0.60193 0.0
H1194 H 0.6526 0.84213 0.58788 0.0
H1195 H 0.69279 0.78155 0.55382 0.0
H1196 H 0.68749 0.76905 0.50785 0.0
H1197 H 0.62803 0.74367 0.51793 0.0
H1198 H 0.63363 0.7571 0.56376 0.0
H1199 H 0.64625 0.74797 0.62149 0.0
H1200 H 0.65715 0.73044 0.64698 0.0
H1201 H 0.71383 0.77036 0.62485 0.0
H1202 H 0.70283 0.78814 0.60032 0.0
H1203 H 0.69779 0.80823 0.57274 0.0
H1204 H 0.70387 0.83932 0.57444 0.0
H1205 H 0.6525 0.81982 0.61783 0.0
N1206 N 0.66611 0.77697 0.59003 0.0
H1207 H 0.64618 0.78838 0.61505 0.0
C1208 C 0.6882 0.90714 0.55062 0.0
C1209 C 0.70231 0.91318 0.53138 0.0
C1210 C 0.69907 0.9161 0.50426 0.0
C1211 C 0.68155 0.91297 0.49574 0.0
C1212 C 0.66735 0.90689 0.51514 0.0
C1213 C 0.67063 0.90395 0.54239 0.0
C1214 C 0.69317 0.91728 0.59859 0.0
C1215 C 0.67713 0.9148 0.61111 0.0
C1216 C 0.6783 0.92854 0.62812 0.0
C1217 C 0.69555 0.94491 0.63288 0.0
C1218 C 0.71162 0.9469 0.62096 0.0
C1219 C 0.7104 0.93323 0.60401 0.0
C1220 C 0.68817 0.88672 0.58667 0.0
C1221 C 0.703 0.88422 0.59307 0.0
C1222 C 0.69984 0.8666 0.59741 0.0
C1223 C 0.68172 0.85106 0.59515 0.0
C1224 C 0.66673 0.85374 0.59001 0.0
C1225 C 0.66992 0.87143 0.58592 0.0
C1226 C 0.66355 0.77043 0.56223 0.0
C1227 C 0.67863 0.77361 0.5461 0.0
C1228 C 0.67554 0.76619 0.5198 0.0
C1229 C 0.65731 0.75523 0.50912 0.0
C1230 C 0.64227 0.75224 0.52526 0.0
C1231 C 0.6454 0.75982 0.5515 0.0
C1232 C 0.67361 0.76921 0.60879 0.0
C1233 C 0.66106 0.75316 0.62278 0.0
C1234 C 0.66732 0.74308 0.63706 0.0
C1235 C 0.68633 0.74879 0.63747 0.0
C1236 C 0.6991 0.76558 0.62496 0.0
C1237 C 0.6928 0.77573 0.61076 0.0
C1238 C 0.6714 0.79585 0.59368 0.0
C1239 C 0.68789 0.81054 0.58289 0.0
C1240 C 0.69143 0.82847 0.58405 0.0
C1241 C 0.67865 0.83217 0.5962 0.0
C1242 C 0.66251 0.8175 0.60793 0.0
C1243 C 0.65895 0.79955 0.6066 0.0
H1244 H 0.2784 0.89992 0.57391 0.0
N1245 N 0.24471 0.88934 0.59233 0.0
H1246 H 0.29101 0.91251 0.52869 0.0
H1247 H 0.22624 0.8948 0.55014 0.0
H1248 H 0.23884 0.90765 0.50506 0.0
H1249 H 0.23094 0.91227 0.59026 0.0
H1250 H 0.2421 0.93995 0.61735 0.0
H1251 H 0.26602 0.89869 0.63727 0.0
H1252 H 0.27678 0.92613 0.66552 0.0
H1253 H 0.23859 0.85791 0.57194 0.0
H1254 H 0.21067 0.88118 0.61337 0.0
H1255 H 0.20934 0.82866 0.56828 0.0
H1256 H 0.18176 0.8517 0.61162 0.0
H1257 H 0.106 0.73546 0.54869 0.0
H1258 H 0.09015 0.72686 0.50408 0.0
H1259 H 0.11359 0.78429 0.4848 0.0
H1260 H 0.12846 0.7927 0.52937 0.0
H1261 H 0.09793 0.77847 0.56724 0.0
H1262 H 0.07018 0.76677 0.59473 0.0
H1263 H 0.08758 0.73569 0.64374 0.0
H1264 H 0.11545 0.74741 0.61562 0.0
H1265 H 0.15773 0.7737 0.58062 0.0
H1266 H 0.18697 0.80255 0.58961 0.0
H1267 H 0.15766 0.83179 0.58309 0.0
N1268 N 0.12415 0.76866 0.57141 0.0
H1269 H 0.12857 0.80289 0.57626 0.0
C1270 C 0.25149 0.89647 0.56537 0.0
C1271 C 0.26972 0.90155 0.55891 0.0
C1272 C 0.27686 0.90871 0.53315 0.0
C1273 C 0.26591 0.9111 0.51345 0.0
C1274 C 0.24766 0.90617 0.52 0.0
C1275 C 0.24044 0.89879 0.54569 0.0
C1276 C 0.24785 0.90348 0.61155 0.0
C1277 C 0.24072 0.91501 0.60687 0.0
C1278 C 0.24702 0.93081 0.62263 0.0
C1279 C 0.26053 0.93543 0.64347 0.0
C1280 C 0.26663 0.92318 0.64931 0.0
C1281 C 0.26038 0.90741 0.63341 0.0
C1282 C 0.22707 0.87199 0.59254 0.0
C1283 C 0.2262 0.85665 0.58059 0.0
C1284 C 0.20942 0.83981 0.57881 0.0
C1285 C 0.19298 0.83762 0.58965 0.0
C1286 C 0.19395 0.85286 0.60244 0.0
C1287 C 0.2107 0.86988 0.60365 0.0
C1288 C 0.11835 0.76466 0.54292 0.0
C1289 C 0.10798 0.7462 0.5346 0.0
C1290 C 0.09896 0.74131 0.50902 0.0
C1291 C 0.1003 0.75487 0.49097 0.0
C1292 C 0.1118 0.77344 0.49848 0.0
C1293 C 0.12055 0.7783 0.52419 0.0
C1294 C 0.10886 0.76384 0.58947 0.0
C1295 C 0.09606 0.76949 0.58426 0.0
C1296 C 0.08014 0.76277 0.60007 0.0
C1297 C 0.07663 0.75026 0.62144 0.0
C1298 C 0.08978 0.74515 0.62724 0.0
C1299 C 0.10575 0.75192 0.61139 0.0
C1300 C 0.14098 0.78603 0.57741 0.0
C1301 C 0.15769 0.78637 0.58142 0.0
C1302 C 0.17442 0.80295 0.5863 0.0
C1303 C 0.1749 0.81973 0.58675 0.0
C1304 C 0.15798 0.81926 0.58333 0.0
C1305 C 0.14121 0.80262 0.57913 0.0
H1306 H 0.22511 0.29198 0.54131 0.0
N1307 N 0.21619 0.31154 0.57244 0.0
H1308 H 0.24286 0.3014 0.49921 0.0
H1309 H 0.23 0.34477 0.54644 0.0
H1310 H 0.2463 0.3538 0.50325 0.0
H1311 H 0.24963 0.34057 0.59028 0.0
H1312 H 0.27163 0.3386 0.62134 0.0
H1313 H 0.20878 0.28363 0.60526 0.0
H1314 H 0.23043 0.28162 0.6372 0.0
H1315 H 0.18191 0.29502 0.55182 0.0
H1316 H 0.22054 0.34074 0.60251 0.0
H1317 H 0.15947 0.30486 0.55425 0.0
H1318 H 0.1978 0.3502 0.6064 0.0
H1319 H 0.09423 0.3213 0.55629 0.0
H1320 H 0.08014 0.31584 0.51072 0.0
H1321 H 0.122 0.37104 0.48704 0.0
H1322 H 0.13624 0.37638 0.53303 0.0
H1323 H 0.10005 0.36422 0.57678 0.0
H1324 H 0.07387 0.35383 0.60716 0.0
H1325 H 0.09306 0.32382 0.65495 0.0
H1326 H 0.11899 0.33388 0.62455 0.0
H1327 H 0.11635 0.31746 0.57845 0.0
H1328 H 0.13842 0.30723 0.5814 0.0
H1329 H 0.18406 0.36383 0.58095 0.0
N1330 N 0.12464 0.35316 0.57533 0.0
H1331 H 0.16162 0.37393 0.57932 0.0
C1332 C 0.22592 0.31744 0.54682 0.0
C1333 C 0.22972 0.30548 0.53299 0.0
C1334 C 0.23977 0.31089 0.50877 0.0
C1335 C 0.24596 0.32836 0.49742 0.0
C1336 C 0.24208 0.34036 0.51139 0.0
C1337 C 0.23243 0.33508 0.53602 0.0
C1338 C 0.22761 0.31212 0.59527 0.0
C1339 C 0.24518 0.3278 0.60098 0.0
C1340 C 0.25775 0.32664 0.61884 0.0
C1341 C 0.25293 0.30984 0.63142 0.0
C1342 C 0.23475 0.29465 0.62738 0.0
C1343 C 0.22228 0.2958 0.6094 0.0
C1344 C 0.20278 0.31692 0.57714 0.0
C1345 C 0.18534 0.30695 0.56403 0.0
C1346 C 0.17249 0.31259 0.5656 0.0
C1347 C 0.17669 0.32832 0.58067 0.0
C1348 C 0.19412 0.33815 0.59433 0.0
C1349 C 0.2071 0.33261 0.59242 0.0
C1350 C 0.1165 0.34926 0.54802 0.0
C1351 C 0.10067 0.33212 0.5412 0.0
C1352 C 0.09256 0.32903 0.51511 0.0
C1353 C 0.09999 0.343 0.49524 0.0
C1354 C 0.11589 0.36007 0.50198 0.0
C1355 C 0.12409 0.36311 0.52811 0.0
C1356 C 0.11095 0.34882 0.59658 0.0
C1357 C 0.09868 0.35536 0.59375 0.0
C1358 C 0.08377 0.34957 0.61143 0.0
C1359 C 0.08101 0.33751 0.63308 0.0
C1360 C 0.09436 0.33252 0.6378 0.0
C1361 C 0.10924 0.33822 0.61999 0.0
C1362 C 0.13732 0.34657 0.57887 0.0
C1363 C 0.13107 0.3277 0.57913 0.0
C1364 C 0.1438 0.32185 0.5807 0.0
C1365 C 0.16313 0.33466 0.58124 0.0
C1366 C 0.16933 0.35352 0.58108 0.0
C1367 C 0.15654 0.35936 0.57999 0.0
C1368 C 0.00878 0.41526 0.09983 0.0
C1369 C 0.98952 0.40295 0.09668 0.0
H1370 H 0.03092 0.43549 0.12485 0.0
C1371 C 0.97771 0.40096 0.1181 0.0
H1372 H 0.01819 0.41724 0.08349 0.0
C1373 C 0.98505 0.41098 0.14236 0.0
C1374 C 0.00436 0.4236 0.1455 0.0
H1375 H 0.9628 0.39145 0.11626 0.0
H1376 H 0.97554 0.40862 0.15871 0.0
C1377 C 0.01608 0.42564 0.12375 0.0
C1378 C 0.61545 0.60494 0.10897 0.0
C1379 C 0.61658 0.59355 0.08946 0.0
H1380 H 0.60855 0.60753 0.15 0.0
C1381 C 0.61116 0.57548 0.09692 0.0
H1382 H 0.61955 0.61893 0.10391 0.0
C1383 C 0.60469 0.5689 0.12312 0.0
C1384 C 0.60356 0.58024 0.14269 0.0
H1385 H 0.6117 0.56625 0.08239 0.0
H1386 H 0.6003 0.55479 0.12789 0.0
C1387 C 0.60903 0.59835 0.13532 0.0
C1388 C 0.40584 0.98338 0.09644 0.0
C1389 C 0.40156 0.99578 0.08421 0.0
H1390 H 0.41924 0.97795 0.12958 0.0
C1391 C 0.40888 0.01322 0.09614 0.0
H1392 H 0.40065 0.96989 0.08772 0.0
C1393 C 0.4196 0.01783 0.12037 0.0
C1394 C 0.42314 0.00506 0.13312 0.0
H1395 H 0.40589 0.02311 0.08722 0.0
H1396 H 0.4245 0.03111 0.12966 0.0
C1397 C 0.41646 0.98796 0.12054 0.0
C1398 C 0.3798 0.96209 0.92831 0.0
C1399 C 0.38229 0.97811 0.94052 0.0
H1400 H 0.38433 0.95007 0.89333 0.0
C1401 C 0.39143 0.9947 0.92582 0.0
H1402 H 0.3728 0.94907 0.93903 0.0
C1403 C 0.39811 0.99526 0.89958 0.0
C1404 C 0.39559 0.97921 0.88744 0.0
H1405 H 0.39358 0.00729 0.93464 0.0
H1406 H 0.40508 0.00821 0.88867 0.0
C1407 C 0.3863 0.96262 0.90205 0.0
C1408 C 0.99929 0.40842 0.9346 0.0
C1409 C 0.98401 0.40503 0.95046 0.0
H1410 H 0.0134 0.41822 0.89646 0.0
C1411 C 0.97161 0.41007 0.93993 0.0
H1412 H 0.00911 0.40471 0.94208 0.0
C1413 C 0.97406 0.41776 0.91386 0.0
C1414 C 0.98901 0.42068 0.89769 0.0
H1415 H 0.95973 0.40775 0.95158 0.0
H1416 H 0.96414 0.42132 0.90627 0.0
C1417 C 0.00179 0.41622 0.90851 0.0
C1418 C 0.58097 0.58357 0.9425 0.0
C1419 C 0.59346 0.60183 0.95065 0.0
H1420 H 0.56249 0.56559 0.91119 0.0
C1421 C 0.59462 0.6162 0.93469 0.0
H1422 H 0.57957 0.57218 0.95449 0.0
C1423 C 0.58468 0.61234 0.90978 0.0
C1424 C 0.57343 0.59409 0.9008 0.0
H1425 H 0.60415 0.6304 0.94045 0.0
H1426 H 0.58676 0.62358 0.89674 0.0
C1427 C 0.5711 0.57975 0.91781 0.0
C1428 C 0.01495 0.59454 0.92653 0.0
C1429 C 0.00673 0.60373 0.93775 0.0
H1430 H 0.0144 0.57735 0.89451 0.0
C1431 C 0.99155 0.60296 0.92387 0.0
H1432 H 0.02659 0.59474 0.93681 0.0
C1433 C 0.98474 0.59321 0.89932 0.0
C1434 C 0.9928 0.58382 0.88822 0.0
H1435 H 0.98498 0.60998 0.93187 0.0
H1436 H 0.97324 0.59321 0.88893 0.0
C1437 C 0.00801 0.58463 0.90215 0.0
C1438 C 0.39716 0.39081 0.92843 0.0
C1439 C 0.39418 0.40316 0.94307 0.0
H1440 H 0.40854 0.38617 0.89274 0.0
C1441 C 0.40092 0.42086 0.93239 0.0
H1442 H 0.39211 0.37705 0.93605 0.0
C1443 C 0.41048 0.42613 0.90773 0.0
C1444 C 0.41348 0.41381 0.89308 0.0
H1445 H 0.39898 0.43077 0.94318 0.0
H1446 H 0.41575 0.43997 0.90034 0.0
C1447 C 0.40669 0.39607 0.9037 0.0
C1448 C 0.58719 0.98448 0.93563 0.0
C1449 C 0.59885 0.00285 0.94388 0.0
H1450 H 0.56737 0.96589 0.90608 0.0
C1451 C 0.59946 0.01684 0.92766 0.0
H1452 H 0.58629 0.97339 0.94783 0.0
C1453 C 0.58893 0.0126 0.90344 0.0
C1454 C 0.57728 0.99423 0.89499 0.0
H1455 H 0.60841 0.03115 0.93333 0.0
H1456 H 0.59033 0.02382 0.89102 0.0
C1457 C 0.57641 0.98021 0.91159 0.0
C1458 C 0.59375 0.98864 0.09429 0.0
C1459 C 0.60751 0.00689 0.08851 0.0
H1460 H 0.57334 0.96998 0.12224 0.0
C1461 C 0.61185 0.02054 0.1081 0.0
H1462 H 0.58995 0.97786 0.07939 0.0
C1463 C 0.60275 0.01596 0.1332 0.0
C1464 C 0.58876 0.99768 0.13899 0.0
H1465 H 0.62252 0.03472 0.10422 0.0
H1466 H 0.60689 0.02677 0.14813 0.0
C1467 C 0.58432 0.98412 0.11904 0.0
C1468 C 0.02394 0.59898 0.09674 0.0
C1469 C 0.01072 0.6024 0.08466 0.0
H1470 H 0.03189 0.58925 0.13177 0.0
C1471 C 0.99446 0.59757 0.09913 0.0
H1472 H 0.0366 0.60243 0.08622 0.0
C1473 C 0.99177 0.58992 0.12538 0.0
C1474 C 0.00536 0.58714 0.13771 0.0
H1475 H 0.98399 0.6 0.09041 0.0
H1476 H 0.97935 0.58672 0.13636 0.0
C1477 C 0.02132 0.5915 0.12295 0.0
C1478 C 0.40957 0.39142 0.0958 0.0
C1479 C 0.40005 0.4003 0.0879 0.0
H1480 H 0.42802 0.38983 0.12501 0.0
C1481 C 0.40169 0.41446 0.1045 0.0
H1482 H 0.40866 0.38052 0.08337 0.0
C1483 C 0.4125 0.4196 0.12845 0.0
C1484 C 0.42222 0.41091 0.13635 0.0
H1485 H 0.3944 0.42148 0.0992 0.0
H1486 H 0.41294 0.43021 0.14102 0.0
C1487 C 0.42062 0.39673 0.11972 0.0
C1488 C 0.63662 0.73689 0.43833 0.0
C1489 C 0.64781 0.73025 0.42924 0.0
H1490 H 0.63108 0.75034 0.47023 0.0
C1491 C 0.66212 0.73187 0.44659 0.0
H1492 H 0.62554 0.73595 0.4254 0.0
C1493 C 0.66513 0.73989 0.47245 0.0
C1494 C 0.65403 0.74666 0.48154 0.0
H1495 H 0.67092 0.72679 0.44032 0.0
H1496 H 0.67603 0.74054 0.48547 0.0
C1497 C 0.63974 0.74506 0.46412 0.0
C1498 C 0.2785 0.93848 0.44731 0.0
C1499 C 0.28711 0.93079 0.43284 0.0
H1500 H 0.26485 0.93814 0.48422 0.0
C1501 C 0.28889 0.91682 0.44527 0.0
H1502 H 0.27688 0.94922 0.43825 0.0
C1503 C 0.28218 0.91063 0.4715 0.0
C1504 C 0.27333 0.9181 0.48583 0.0
H1505 H 0.29549 0.91062 0.43473 0.0
H1506 H 0.28361 0.89974 0.48041 0.0
C1507 C 0.27152 0.93208 0.47351 0.0
C1508 C 0.07759 0.34912 0.43099 0.0
C1509 C 0.07071 0.33215 0.41774 0.0
H1510 H 0.09225 0.36587 0.46589 0.0
C1511 C 0.07447 0.31926 0.42948 0.0
H1512 H 0.07498 0.35937 0.4225 0.0
C1513 C 0.08434 0.323 0.45424 0.0
C1514 C 0.09078 0.33973 0.46788 0.0
H1515 H 0.0695 0.30608 0.41981 0.0
H1516 H 0.08682 0.31269 0.46284 0.0
C1517 C 0.08757 0.35289 0.45577 0.0
C1518 C 0.07302 0.34685 0.26655 0.0
C1519 C 0.06038 0.32831 0.27259 0.0
H1520 H 0.09211 0.3663 0.23796 0.0
C1521 C 0.05664 0.31491 0.25283 0.0
H1522 H 0.07632 0.35746 0.28154 0.0
C1523 C 0.06524 0.32 0.22737 0.0
C1524 C 0.07814 0.33858 0.22133 0.0
H1525 H 0.04683 0.30051 0.25689 0.0
H1526 H 0.06158 0.30933 0.21238 0.0
C1527 C 0.08196 0.35191 0.2414 0.0
C1528 C 0.67996 0.74862 0.27652 0.0
C1529 C 0.66099 0.7388 0.28327 0.0
H1530 H 0.7005 0.76581 0.24727 0.0
C1531 C 0.64799 0.73871 0.26469 0.0
H1532 H 0.69032 0.74898 0.29047 0.0
C1533 C 0.65371 0.74793 0.23979 0.0
C1534 C 0.67267 0.75785 0.23287 0.0
H1535 H 0.63322 0.73109 0.26905 0.0
H1536 H 0.64309 0.74686 0.22569 0.0
C1537 C 0.68576 0.75816 0.25167 0.0
C1538 C 0.26128 0.91655 0.27662 0.0
C1539 C 0.26817 0.93361 0.28957 0.0
H1540 H 0.24602 0.8992 0.2427 0.0
C1541 C 0.2635 0.94601 0.27844 0.0
H1542 H 0.2644 0.90656 0.28473 0.0
C1543 C 0.25287 0.94171 0.25418 0.0
C1544 C 0.24682 0.925 0.24062 0.0
H1545 H 0.26854 0.95924 0.28796 0.0
H1546 H 0.25007 0.95177 0.24544 0.0
C1547 C 0.25077 0.91232 0.25246 0.0
C1548 C 0.68472 0.92001 0.25858 0.0
C1549 C 0.67981 0.93298 0.26495 0.0
H1550 H 0.68646 0.90341 0.22749 0.0
C1551 C 0.67172 0.93844 0.24452 0.0
H1552 H 0.69092 0.91553 0.27401 0.0
C1553 C 0.66957 0.9318 0.21775 0.0
C1554 C 0.67493 0.91919 0.21134 0.0
H1555 H 0.66792 0.9485 0.24892 0.0
H1556 H 0.6641 0.93678 0.20193 0.0
C1557 C 0.68209 0.91301 0.23208 0.0
C1558 C 0.05755 0.75852 0.26519 0.0
C1559 C 0.05107 0.74085 0.27587 0.0
H1560 H 0.0728 0.77793 0.23359 0.0
C1561 C 0.05408 0.7286 0.26106 0.0
H1562 H 0.05548 0.76831 0.27607 0.0
C1563 C 0.06389 0.73408 0.23661 0.0
C1564 C 0.07097 0.75196 0.22642 0.0
H1565 H 0.04915 0.71484 0.26858 0.0
H1566 H 0.06608 0.72434 0.2258 0.0
C1567 C 0.06741 0.76401 0.24074 0.0
C1568 C 0.26224 0.35509 0.26601 0.0
C1569 C 0.26672 0.34238 0.27633 0.0
H1570 H 0.24963 0.36213 0.23364 0.0
C1571 C 0.2608 0.32611 0.26153 0.0
H1572 H 0.26643 0.36771 0.27691 0.0
C1573 C 0.25112 0.32293 0.23657 0.0
C1574 C 0.24727 0.33601 0.22588 0.0
H1575 H 0.26399 0.31602 0.26891 0.0
H1576 H 0.2472 0.31055 0.2252 0.0
C1577 C 0.25267 0.35195 0.24112 0.0
C1578 C 0.26222 0.32603 0.42619 0.0
C1579 C 0.27564 0.34452 0.42113 0.0
H1580 H 0.24178 0.30655 0.45337 0.0
C1581 C 0.27944 0.3577 0.44128 0.0
H1582 H 0.25886 0.31561 0.41086 0.0
C1583 C 0.27007 0.35246 0.46615 0.0
C1584 C 0.25633 0.33396 0.47116 0.0
H1585 H 0.28983 0.37205 0.43797 0.0
H1586 H 0.27378 0.36295 0.48147 0.0
C1587 C 0.25251 0.32085 0.45073 0.0
C1588 C 0.68661 0.91814 0.41895 0.0
C1589 C 0.67853 0.92863 0.41279 0.0
H1590 H 0.69335 0.90448 0.4497 0.0
C1591 C 0.6692 0.93189 0.43347 0.0
H1592 H 0.69368 0.91519 0.40334 0.0
C1593 C 0.66929 0.92598 0.46033 0.0
C1594 C 0.67859 0.91663 0.46683 0.0
H1595 H 0.66292 0.94001 0.4293 0.0
H1596 H 0.66303 0.92969 0.47624 0.0
C1597 C 0.68654 0.91211 0.44557 0.0
C1598 C 0.07293 0.72922 0.42673 0.0
C1599 C 0.06475 0.73941 0.41887 0.0
H1600 H 0.09095 0.72633 0.45522 0.0
C1601 C 0.06874 0.75484 0.43447 0.0
H1602 H 0.0702 0.7173 0.41508 0.0
C1603 C 0.08038 0.75987 0.45753 0.0
C1604 C 0.08858 0.74973 0.46554 0.0
H1605 H 0.0626 0.76294 0.42918 0.0
H1606 H 0.08257 0.77149 0.46945 0.0
C1607 C 0.08476 0.73437 0.44979 0.0
C1608 C 0.35268 0.08282 0.76501 0.0
C1609 C 0.33418 0.07513 0.75551 0.0
H1610 H 0.37278 0.0981 0.79665 0.0
C1611 C 0.32163 0.07726 0.77134 0.0
H1612 H 0.36272 0.08146 0.75332 0.0
C1613 C 0.3274 0.08675 0.79621 0.0
C1614 C 0.3459 0.09446 0.80565 0.0
H1615 H 0.30729 0.07151 0.76462 0.0
H1616 H 0.31744 0.0882 0.80796 0.0
C1617 C 0.35849 0.09246 0.78975 0.0
C1618 C 0.93849 0.24646 0.77038 0.0
C1619 C 0.94589 0.26465 0.76137 0.0
H1620 H 0.92228 0.22607 0.80024 0.0
C1621 C 0.94318 0.27668 0.77731 0.0
H1622 H 0.94022 0.23679 0.75852 0.0
C1623 C 0.93307 0.27057 0.80149 0.0
C1624 C 0.92529 0.25225 0.81018 0.0
H1625 H 0.94879 0.2908 0.77105 0.0
H1626 H 0.93137 0.28024 0.81339 0.0
C1627 C 0.92826 0.24032 0.79441 0.0
C1628 C 0.74694 0.68111 0.75639 0.0
C1629 C 0.73584 0.6623 0.75012 0.0
H1630 H 0.76673 0.70156 0.78421 0.0
C1631 C 0.73638 0.64953 0.76792 0.0
H1632 H 0.74692 0.6913 0.74302 0.0
C1633 C 0.74741 0.65533 0.79166 0.0
C1634 C 0.75848 0.67411 0.79818 0.0
H1635 H 0.7279 0.63491 0.76389 0.0
H1636 H 0.74681 0.64495 0.80528 0.0
C1637 C 0.75823 0.68696 0.78009 0.0
C1638 C 0.72654 0.66034 0.59036 0.0
C1639 C 0.71885 0.64396 0.60555 0.0
H1640 H 0.73831 0.67377 0.55224 0.0
C1641 C 0.71735 0.62833 0.59345 0.0
H1642 H 0.72792 0.67263 0.59913 0.0
C1643 C 0.72316 0.62897 0.5667 0.0
C1644 C 0.73076 0.64529 0.55148 0.0
H1645 H 0.7115 0.61548 0.60454 0.0
H1646 H 0.7218 0.61669 0.55795 0.0
C1647 C 0.73256 0.66103 0.56361 0.0
C1648 C 0.35222 0.08544 0.59961 0.0
C1649 C 0.33382 0.07608 0.60908 0.0
H1650 H 0.37085 0.10178 0.56782 0.0
C1651 C 0.31981 0.07588 0.5927 0.0
H1652 H 0.36334 0.08591 0.61184 0.0
C1653 C 0.324 0.08459 0.56729 0.0
C1654 C 0.3424 0.09406 0.55771 0.0
H1655 H 0.30544 0.06861 0.59923 0.0
H1656 H 0.31264 0.08351 0.55493 0.0
C1657 C 0.35649 0.09445 0.57429 0.0
C1658 C 0.93035 0.25113 0.60565 0.0
C1659 C 0.93688 0.26845 0.6175 0.0
H1660 H 0.9162 0.23312 0.5719 0.0
C1661 C 0.93276 0.28071 0.60431 0.0
H1662 H 0.93302 0.24123 0.61533 0.0
C1663 C 0.923 0.27596 0.57919 0.0
C1664 C 0.91732 0.25896 0.56686 0.0
H1665 H 0.93753 0.29413 0.61296 0.0
H1666 H 0.92056 0.28585 0.5689 0.0
C1667 C 0.92072 0.24646 0.58069 0.0
C1668 C 0.33757 0.26996 0.58333 0.0
C1669 C 0.34388 0.26253 0.60353 0.0
H1670 H 0.33221 0.27125 0.54047 0.0
C1671 C 0.34819 0.2493 0.59597 0.0
H1672 H 0.33425 0.28024 0.58859 0.0
C1673 C 0.34658 0.24387 0.56867 0.0
C1674 C 0.34107 0.25189 0.54837 0.0
H1675 H 0.35302 0.2433 0.61114 0.0
H1676 H 0.35035 0.23394 0.56324 0.0
C1677 C 0.33643 0.26487 0.55589 0.0
C1678 C 0.72596 0.08986 0.59525 0.0
C1679 C 0.72253 0.07383 0.60894 0.0
H1680 H 0.73786 0.10735 0.56038 0.0
C1681 C 0.72812 0.06262 0.59676 0.0
H1682 H 0.72183 0.0988 0.60405 0.0
C1683 C 0.73735 0.06757 0.57181 0.0
C1684 C 0.74108 0.08376 0.55839 0.0
H1685 H 0.72568 0.05017 0.60672 0.0
H1686 H 0.74162 0.05873 0.56302 0.0
C1687 C 0.73507 0.09473 0.57018 0.0
C1688 C 0.92095 0.65612 0.60667 0.0
C1689 C 0.92932 0.67473 0.614 0.0
H1690 H 0.90307 0.63485 0.57828 0.0
C1691 C 0.92565 0.68621 0.59773 0.0
H1692 H 0.92344 0.6469 0.61881 0.0
C1693 C 0.91425 0.67941 0.57445 0.0
C1694 C 0.90596 0.66087 0.56684 0.0
H1695 H 0.93194 0.70065 0.60258 0.0
H1696 H 0.9124 0.68893 0.56198 0.0
C1697 C 0.90935 0.64925 0.58336 0.0
C1698 C 0.94235 0.68055 0.77264 0.0
C1699 C 0.9495 0.6968 0.75725 0.0
H1700 H 0.93072 0.66704 0.8107 0.0
C1701 C 0.9505 0.71225 0.76919 0.0
H1702 H 0.94138 0.66841 0.76403 0.0
C1703 C 0.94452 0.71148 0.7959 0.0
C1704 C 0.93721 0.6952 0.81118 0.0
H1705 H 0.95597 0.725 0.75793 0.0
H1706 H 0.94534 0.72356 0.80446 0.0
C1707 C 0.93616 0.67973 0.79928 0.0
C1708 C 0.3312 0.2376 0.75864 0.0
C1709 C 0.32923 0.25253 0.75148 0.0
H1710 H 0.3297 0.21942 0.79052 0.0
C1711 C 0.32255 0.25962 0.77098 0.0
H1712 H 0.33636 0.2319 0.74399 0.0
C1713 C 0.31919 0.25276 0.79774 0.0
C1714 C 0.32194 0.23837 0.80511 0.0
H1715 H 0.3211 0.27124 0.76607 0.0
H1716 H 0.31507 0.25909 0.81294 0.0
C1717 C 0.32738 0.23045 0.78517 0.0
C1718 C 0.73953 0.05875 0.7647 0.0
C1719 C 0.7361 0.07184 0.75288 0.0
H1720 H 0.75152 0.05203 0.79867 0.0
C1721 C 0.74354 0.08901 0.76578 0.0
H1722 H 0.73406 0.04543 0.75524 0.0
C1723 C 0.75339 0.09271 0.7905 0.0
C1724 C 0.75619 0.07941 0.80288 0.0
H1725 H 0.74133 0.09951 0.75722 0.0
H1726 H 0.75855 0.10591 0.80023 0.0
C1727 C 0.74958 0.06255 0.78947 0.0
C1728 C 0.04668 0.37699 0.03724 0.0
C1729 C 0.03233 0.36178 0.02303 0.0
H1730 H 0.07227 0.38825 0.05984 0.0
C1731 C 0.03419 0.34655 0.01838 0.0
H1732 H 0.04575 0.38897 0.0412 0.0
C1733 C 0.04965 0.34622 0.02888 0.0
C1734 C 0.06357 0.3611 0.04426 0.0
H1735 H 0.02344 0.33464 0.00737 0.0
H1736 H 0.05048 0.33414 0.02546 0.0
C1737 C 0.06205 0.37664 0.04777 0.0
C1738 C 0.67601 0.69675 0.06207 0.0
C1739 C 0.65876 0.68459 0.04937 0.0
H1740 H 0.69362 0.72298 0.08072 0.0
C1741 C 0.64599 0.69037 0.04498 0.0
H1742 H 0.68619 0.69279 0.06577 0.0
C1743 C 0.6503 0.70783 0.05359 0.0
C1744 C 0.66755 0.71992 0.06645 0.0
H1745 H 0.63257 0.68133 0.03523 0.0
H1746 H 0.64017 0.71189 0.05016 0.0
C1747 C 0.68035 0.71417 0.07044 0.0
C1748 C 0.29668 0.93714 0.04181 0.0
C1749 C 0.30906 0.95603 0.03758 0.0
H1750 H 0.27027 0.91618 0.05684 0.0
C1751 C 0.30302 0.96828 0.04297 0.0
H1752 H 0.30083 0.92731 0.03773 0.0
C1753 C 0.28538 0.96185 0.05384 0.0
C1754 C 0.27339 0.94305 0.05939 0.0
H1755 H 0.31216 0.98291 0.03977 0.0
H1756 H 0.28132 0.97166 0.05861 0.0
C1757 C 0.27906 0.93073 0.05255 0.0
C1758 C 0.36356 0.04921 0.98938 0.0
C1759 C 0.38043 0.05244 0.00107 0.0
H1760 H 0.34919 0.06048 0.96852 0.0
C1761 C 0.39572 0.07059 0.0024 0.0
H1762 H 0.35147 0.03541 0.98804 0.0
C1763 C 0.39434 0.08508 0.99137 0.0
C1764 C 0.37764 0.08173 0.97879 0.0
H1765 H 0.40888 0.07359 0.01143 0.0
H1766 H 0.40645 0.09887 0.99235 0.0
C1767 C 0.36219 0.06365 0.97837 0.0
C1768 C 0.94623 0.30859 0.01028 0.0
C1769 C 0.93869 0.31993 0.01028 0.0
H1770 H 0.94227 0.28249 0.99958 0.0
C1771 C 0.92035 0.31276 0.00058 0.0
H1772 H 0.96027 0.31366 0.0179 0.0
C1773 C 0.91024 0.29517 0.9893 0.0
C1774 C 0.918 0.28401 0.98793 0.0
H1775 H 0.9141 0.32112 0.00014 0.0
H1776 H 0.89673 0.29088 0.98025 0.0
C1777 C 0.93592 0.29075 0.99952 0.0
C1778 C 0.70135 0.65281 0.99616 0.0
C1779 C 0.68707 0.63635 0.98448 0.0
H1780 H 0.73025 0.67379 0.99609 0.0
C1781 C 0.69121 0.6287 0.96247 0.0
H1782 H 0.69853 0.65893 0.0133 0.0
C1783 C 0.70915 0.63748 0.95191 0.0
C1784 C 0.72366 0.65393 0.96359 0.0
H1785 H 0.6804 0.61614 0.95281 0.0
H1786 H 0.7114 0.6315 0.93408 0.0
C1787 C 0.71951 0.66137 0.9861 0.0
C1788 C 0.97373 0.67065 0.01486 0.0
C1789 C 0.96945 0.6524 0.01377 0.0
H1790 H 0.96616 0.68999 0.00296 0.0
C1791 C 0.95223 0.63894 0.00239 0.0
H1792 H 0.98696 0.68139 0.0233 0.0
C1793 C 0.93985 0.64377 0.99138 0.0
C1794 C 0.94461 0.66227 0.99084 0.0
H1795 H 0.94848 0.62472 0.00151 0.0
H1796 H 0.92673 0.633 0.98275 0.0
C1797 C 0.96161 0.67556 0.00329 0.0
C1798 C 0.36183 0.31149 0.99061 0.0
C1799 C 0.35012 0.31161 0.01068 0.0
H1800 H 0.36684 0.2955 0.96254 0.0
C1801 C 0.33495 0.29475 0.01953 0.0
H1802 H 0.37365 0.32421 0.98333 0.0
C1803 C 0.33109 0.27822 0.00765 0.0
C1804 C 0.34234 0.27818 0.98675 0.0
H1805 H 0.3257 0.29433 0.03504 0.0
H1806 H 0.31907 0.26549 0.0145 0.0
C1807 C 0.35799 0.29498 0.97879 0.0
C1808 C 0.69598 0.03017 0.99546 0.0
C1809 C 0.68874 0.04145 0.00073 0.0
H1810 H 0.71913 0.02868 0.98132 0.0
C1811 C 0.70045 0.06057 0.99781 0.0
H1812 H 0.68739 0.01539 0.99773 0.0
C1813 C 0.71858 0.06816 0.98828 0.0
C1814 C 0.72548 0.05682 0.98148 0.0
H1815 H 0.69539 0.06969 0.00179 0.0
H1816 H 0.72681 0.08285 0.98483 0.0
C1817 C 0.71415 0.03778 0.98594 0.0
C1818 C 0.65012 0.94837 0.99629 0.0
C1819 C 0.63898 0.95302 0.01114 0.0
H1820 H 0.66375 0.93303 0.99546 0.0
C1821 C 0.63146 0.94397 0.03601 0.0
H1822 H 0.65599 0.95495 0.97692 0.0
C1823 C 0.63605 0.93156 0.04675 0.0
C1824 C 0.6482 0.9278 0.03281 0.0
H1825 H 0.62277 0.94715 0.04796 0.0
H1826 H 0.63095 0.92581 0.0668 0.0
C1827 C 0.65465 0.93587 0.00699 0.0
C1828 C 0.04908 0.69509 0.03766 0.0
C1829 C 0.05739 0.68669 0.02429 0.0
H1830 H 0.05315 0.71756 0.062 0.0
C1831 C 0.07688 0.69652 0.02165 0.0
H1832 H 0.03412 0.68794 0.04006 0.0
C1833 C 0.08787 0.71381 0.03383 0.0
C1834 C 0.07965 0.72153 0.04927 0.0
H1835 H 0.08371 0.69054 0.01115 0.0
H1836 H 0.10287 0.72077 0.03207 0.0
C1837 C 0.06007 0.71223 0.05016 0.0
C1838 C 0.30035 0.36779 0.01956 0.0
C1839 C 0.31107 0.36026 0.02779 0.0
H1840 H 0.27445 0.36668 0.02246 0.0
C1841 C 0.30291 0.34445 0.04424 0.0
H1842 H 0.30621 0.37983 0.00653 0.0
C1843 C 0.28488 0.33721 0.0541 0.0
C1844 C 0.27449 0.34543 0.04728 0.0
H1845 H 0.31088 0.33838 0.05096 0.0
H1846 H 0.27961 0.32587 0.06838 0.0
C1847 C 0.28218 0.36032 0.02889 0.0
C1848 C 0.70975 0.69908 0.38323 0.0
C1849 C 0.7011 0.69328 0.35735 0.0
H1850 H 0.72684 0.69699 0.41416 0.0
C1851 C 0.70509 0.68214 0.34138 0.0
H1852 H 0.70702 0.70768 0.39607 0.0
C1853 C 0.71666 0.67613 0.3517 0.0
C1854 C 0.72449 0.6811 0.37821 0.0
H1855 H 0.69878 0.67754 0.32127 0.0
H1856 H 0.71909 0.66718 0.33916 0.0
C1857 C 0.72126 0.69304 0.39355 0.0
C1858 C 0.30742 0.02378 0.37402 0.0
C1859 C 0.32214 0.0226 0.36327 0.0
H1860 H 0.29876 0.04093 0.3917 0.0
C1861 C 0.33992 0.03854 0.36215 0.0
H1862 H 0.29351 0.01171 0.37488 0.0
C1863 C 0.34313 0.05514 0.37263 0.0
C1864 C 0.32853 0.05645 0.38388 0.0
H1865 H 0.3516 0.03804 0.35422 0.0
H1866 H 0.35732 0.06674 0.37278 0.0
C1867 C 0.31051 0.04056 0.38386 0.0
C1868 C 0.97451 0.29913 0.3797 0.0
C1869 C 0.98056 0.28941 0.36439 0.0
H1870 H 0.95297 0.29788 0.40369 0.0
C1871 C 0.96794 0.27078 0.35851 0.0
H1872 H 0.98394 0.31349 0.38467 0.0
C1873 C 0.94985 0.26185 0.36877 0.0
C1874 C 0.94413 0.27125 0.3857 0.0
H1875 H 0.97215 0.26299 0.34644 0.0
H1876 H 0.94055 0.24745 0.36401 0.0
C1877 C 0.9566 0.29014 0.39045 0.0
C1878 C 0.02945 0.38442 0.32354 0.0
C1879 C 0.04397 0.38888 0.34252 0.0
H1880 H 0.01646 0.39412 0.2961 0.0
C1881 C 0.0558 0.40736 0.35019 0.0
H1882 H 0.02005 0.37034 0.3171 0.0
C1883 C 0.05352 0.42113 0.33835 0.0
C1884 C 0.03941 0.4167 0.31851 0.0
H1885 H 0.06706 0.41126 0.36488 0.0
H1886 H 0.06299 0.43526 0.34444 0.0
C1887 C 0.02725 0.39812 0.31163 0.0
C1888 C 0.59651 0.64305 0.32123 0.0
C1889 C 0.61274 0.65137 0.33767 0.0
H1890 H 0.57758 0.61997 0.29675 0.0
C1891 C 0.62105 0.64124 0.34486 0.0
H1892 H 0.58986 0.65057 0.31519 0.0
C1893 C 0.6137 0.62339 0.33491 0.0
C1894 C 0.59812 0.61543 0.31697 0.0
H1895 H 0.63349 0.64724 0.35774 0.0
H1896 H 0.62053 0.61604 0.34081 0.0
C1897 C 0.58939 0.62538 0.31078 0.0
C1898 C 0.37051 0.96679 0.32864 0.0
C1899 C 0.36129 0.97612 0.33468 0.0
H1900 H 0.3946 0.96831 0.3121 0.0
C1901 C 0.37075 0.99526 0.33084 0.0
H1902 H 0.3637 0.95206 0.33143 0.0
C1903 C 0.38867 0.00468 0.31987 0.0
C1904 C 0.39752 0.99515 0.31263 0.0
H1905 H 0.36411 0.0029 0.33546 0.0
H1906 H 0.39543 0.01934 0.31651 0.0
C1907 C 0.38837 0.97617 0.31775 0.0
C1908 C 0.62921 0.98652 0.34254 0.0
C1909 C 0.63083 0.97127 0.33679 0.0
H1910 H 0.61374 0.99984 0.33585 0.0
C1911 C 0.61682 0.9569 0.32083 0.0
H1912 H 0.63971 0.99781 0.35485 0.0
C1913 C 0.602 0.95809 0.30991 0.0
C1914 C 0.60077 0.97368 0.31466 0.0
H1915 H 0.61759 0.94494 0.316 0.0
H1916 H 0.59196 0.94711 0.2967 0.0
C1917 C 0.61437 0.98773 0.33154 0.0
C1918 C 0.99858 0.63296 0.34966 0.0
C1919 C 0.01346 0.65045 0.34238 0.0
H1920 H 0.98473 0.60385 0.34342 0.0
C1921 C 0.02665 0.65169 0.32381 0.0
H1922 H 0.98821 0.63151 0.36398 0.0
C1923 C 0.02463 0.63587 0.31201 0.0
C1924 C 0.00936 0.6184 0.31847 0.0
H1925 H 0.0383 0.66493 0.31775 0.0
H1926 H 0.03465 0.6374 0.29697 0.0
C1927 C 0.99653 0.61711 0.33778 0.0
C1928 C 0.36745 0.40311 0.32882 0.0
C1929 C 0.35668 0.38384 0.33084 0.0
H1930 H 0.39314 0.42665 0.3162 0.0
C1931 C 0.36471 0.37358 0.32353 0.0
H1932 H 0.36179 0.41147 0.3345 0.0
C1933 C 0.38271 0.38233 0.31296 0.0
C1934 C 0.39304 0.40151 0.30945 0.0
H1935 H 0.35682 0.35872 0.32489 0.0
H1936 H 0.38814 0.37397 0.30622 0.0
C1937 C 0.38541 0.41183 0.31823 0.0
C1938 C 0.32199 0.28986 0.33086 0.0
C1939 C 0.31032 0.29432 0.34463 0.0
H1940 H 0.33558 0.27447 0.33136 0.0
C1941 C 0.30208 0.28509 0.36912 0.0
H1942 H 0.32843 0.29659 0.31182 0.0
C1943 C 0.30635 0.2726 0.38049 0.0
C1944 C 0.31886 0.26888 0.36756 0.0
H1945 H 0.29299 0.28815 0.38028 0.0
H1946 H 0.3006 0.26665 0.4002 0.0
C1947 C 0.32617 0.27725 0.34216 0.0
C1948 C 0.74268 0.02362 0.35214 0.0
C1949 C 0.72313 0.01376 0.35369 0.0
H1950 H 0.76838 0.04783 0.36371 0.0
C1951 C 0.71441 0.02223 0.36569 0.0
H1952 H 0.74984 0.01761 0.34269 0.0
C1953 C 0.72508 0.03952 0.37802 0.0
C1954 C 0.74466 0.0487 0.37843 0.0
H1955 H 0.69938 0.01505 0.36716 0.0
H1956 H 0.71796 0.04508 0.38881 0.0
C1957 C 0.75332 0.04092 0.36429 0.0
C1958 C 0.96313 0.7071 0.37423 0.0
C1959 C 0.97258 0.69767 0.37074 0.0
H1960 H 0.93858 0.70596 0.38829 0.0
C1961 C 0.96342 0.67889 0.37739 0.0
H1962 H 0.96969 0.72153 0.36909 0.0
C1963 C 0.94561 0.67001 0.38862 0.0
C1964 C 0.93654 0.67968 0.39336 0.0
H1965 H 0.97028 0.6712 0.37496 0.0
H1966 H 0.93934 0.65577 0.39475 0.0
C1967 C 0.94532 0.6982 0.38538 0.0
C1968 C 0.36838 0.00828 0.67927 0.0
C1969 C 0.37349 0.02675 0.68111 0.0
H1970 H 0.37407 0.98768 0.6916 0.0
C1971 C 0.39045 0.03936 0.69405 0.0
H1972 H 0.35529 0.9982 0.66961 0.0
C1973 C 0.40168 0.03344 0.70602 0.0
C1974 C 0.39593 0.01467 0.70602 0.0
H1975 H 0.39481 0.05374 0.69551 0.0
H1976 H 0.4146 0.04355 0.71596 0.0
C1977 C 0.37931 0.00227 0.69182 0.0
C1978 C 0.99789 0.37395 0.68798 0.0
C1979 C 0.98391 0.35632 0.69646 0.0
H1980 H 0.01037 0.40305 0.69269 0.0
C1981 C 0.97106 0.35475 0.71593 0.0
H1982 H 0.00798 0.37566 0.67295 0.0
C1983 C 0.97249 0.37042 0.72731 0.0
C1984 C 0.98679 0.38808 0.7195 0.0
H1985 H 0.96012 0.34139 0.72296 0.0
H1986 H 0.96275 0.36864 0.743 0.0
C1987 C 0.99932 0.38966 0.6994 0.0
C1988 C 0.63832 0.62731 0.71438 0.0
C1989 C 0.644 0.61657 0.70102 0.0
H1990 H 0.61693 0.62775 0.73656 0.0
C1991 C 0.63102 0.59781 0.6968 0.0
H1992 H 0.64805 0.64182 0.71801 0.0
C1993 C 0.61293 0.58978 0.70674 0.0
C1994 C 0.60752 0.60024 0.72172 0.0
H1995 H 0.63494 0.58924 0.6862 0.0
H1996 H 0.60333 0.57525 0.70321 0.0
C1997 C 0.62036 0.61922 0.72485 0.0
C1998 C 0.7148 0.73128 0.67351 0.0
C1999 C 0.70391 0.71232 0.66796 0.0
H2000 H 0.71776 0.75774 0.66847 0.0
C2001 C 0.68725 0.7056 0.65272 0.0
H2002 H 0.7277 0.73691 0.6852 0.0
C2003 C 0.68161 0.71745 0.64321 0.0
C2004 C 0.69242 0.7364 0.64865 0.0
H2005 H 0.67851 0.69111 0.64793 0.0
H2006 H 0.66888 0.71174 0.63105 0.0
C2007 C 0.70913 0.74321 0.66386 0.0
C2008 C 0.29817 0.98222 0.66979 0.0
C2009 C 0.2881 0.99095 0.67394 0.0
H2010 H 0.29745 0.95804 0.6567 0.0
C2011 C 0.26857 0.9806 0.67101 0.0
H2012 H 0.31321 0.98971 0.672 0.0
C2013 C 0.25944 0.96224 0.66254 0.0
C2014 C 0.26965 0.95384 0.65676 0.0
H2015 H 0.26036 0.98684 0.67429 0.0
H2016 H 0.24443 0.95478 0.65979 0.0
C2017 C 0.28907 0.96392 0.66122 0.0
C2018 C 0.03639 0.30102 0.66629 0.0
C2019 C 0.02724 0.31059 0.67115 0.0
H2020 H 0.06032 0.30192 0.65035 0.0
C2021 C 0.03681 0.32962 0.66624 0.0
H2022 H 0.02949 0.28637 0.66991 0.0
C2023 C 0.05471 0.33865 0.65521 0.0
C2024 C 0.06341 0.32883 0.64883 0.0
H2025 H 0.03023 0.33744 0.66994 0.0
H2026 H 0.06152 0.35322 0.65099 0.0
C2027 C 0.05421 0.31001 0.65523 0.0
C2028 C 0.28264 0.2902 0.65309 0.0
C2029 C 0.29682 0.30451 0.66891 0.0
H2030 H 0.25793 0.28072 0.62879 0.0
C2031 C 0.29577 0.32017 0.67396 0.0
H2032 H 0.28298 0.27793 0.64876 0.0
C2033 C 0.28121 0.32172 0.66262 0.0
C2034 C 0.26735 0.30762 0.64606 0.0
H2035 H 0.30642 0.33143 0.68615 0.0
H2036 H 0.28093 0.33406 0.66653 0.0
C2037 C 0.26814 0.29174 0.6418 0.0
C2038 C 0.71463 0.9875 0.67744 0.0
C2039 C 0.70158 0.99281 0.67238 0.0
H2040 H 0.72274 0.96798 0.66957 0.0
C2041 C 0.68564 0.9813 0.6563 0.0
H2042 H 0.72697 0.99594 0.68994 0.0
C2043 C 0.68329 0.96533 0.64445 0.0
C2044 C 0.69678 0.96046 0.64845 0.0
H2045 H 0.67528 0.98495 0.65203 0.0
H2046 H 0.6713 0.95728 0.63113 0.0
C2047 C 0.71224 0.9715 0.66566 0.0
C2048 C 0.03298 0.74385 0.65381 0.0
C2049 C 0.02255 0.72476 0.65823 0.0
H2050 H 0.05838 0.76692 0.6394 0.0
C2051 C 0.03074 0.71438 0.65275 0.0
H2052 H 0.02719 0.75231 0.65809 0.0
C2053 C 0.04862 0.72278 0.64182 0.0
C2054 C 0.0587 0.74174 0.63623 0.0
H2055 H 0.02309 0.69965 0.65594 0.0
H2056 H 0.05419 0.71425 0.63663 0.0
C2057 C 0.05085 0.75224 0.64299 0.0
C2058 C 0.97269 0.62938 0.71345 0.0
C2059 C 0.9587 0.62578 0.69392 0.0
H2060 H 0.98464 0.61836 0.74058 0.0
C2061 C 0.94646 0.60752 0.68549 0.0
H2062 H 0.98237 0.64327 0.72046 0.0
C2063 C 0.94789 0.59316 0.69691 0.0
C2064 C 0.96161 0.59674 0.71697 0.0
H2065 H 0.93558 0.60427 0.67038 0.0
H2066 H 0.93815 0.57923 0.69018 0.0
C2067 C 0.97411 0.61507 0.72485 0.0
C2068 C 0.38404 0.3515 0.69388 0.0
C2069 C 0.38893 0.33819 0.69811 0.0
H2070 H 0.39136 0.37931 0.70018 0.0
C2071 C 0.40591 0.34338 0.71145 0.0
H2072 H 0.3711 0.34796 0.68345 0.0
C2073 C 0.41729 0.36117 0.72161 0.0
C2074 C 0.4122 0.37443 0.71829 0.0
H2075 H 0.41008 0.33347 0.71522 0.0
H2076 H 0.42966 0.36417 0.73322 0.0
C2077 C 0.39562 0.36946 0.70365 0.0
C2078 C 0.64113 0.04538 0.7269 0.0
C2079 C 0.64551 0.03719 0.70596 0.0
H2080 H 0.62088 0.04287 0.75486 0.0
C2081 C 0.63145 0.02036 0.69499 0.0
H2082 H 0.65181 0.05825 0.73597 0.0
C2083 C 0.6133 0.01178 0.70503 0.0
C2084 C 0.60898 0.01951 0.72696 0.0
H2085 H 0.6345 0.01385 0.67866 0.0
H2086 H 0.60277 0.99898 0.69568 0.0
C2087 C 0.62322 0.03654 0.73757 0.0
loop_
_geom_bond_atom_site_label_1
_geom_bond_atom_site_label_2
_geom_bond_distance
_geom_bond_site_symmetry_2
_ccdc_geom_bond_type
Zn0 O3 2.031 1_554 S
Zn0 O5 2.049 . S
Zn0 O10 2.067 1_554 S
Zn1 O2 1.962 1_455 S
Zn1 O4 1.986 . S
Zn1 O6 1.996 1_455 S
Zn1 O9 1.943 1_554 S
O2 Zn1 1.962 1_655 S
O2 C7 1.270 . S
O3 Zn0 2.031 1_556 S
O3 C7 1.261 1_556 S
O4 Zn1 1.986 . S
O4 C11 1.262 . S
O5 Zn0 2.049 . S
O5 C13 1.260 . S
O6 Zn1 1.996 1_655 S
O6 C13 1.257 . S
C7 O2 1.270 . S
C7 O3 1.261 1_554 S
C8 O9 1.249 . S
C8 O10 1.270 1_455 S
O9 Zn1 1.943 1_556 S
O9 C8 1.249 . S
O10 Zn0 2.067 1_556 S
O10 C8 1.270 1_655 S
C11 O4 1.262 . S
C11 O12 1.232 . S
O12 C11 1.232 . S
C13 O5 1.260 . S
C13 O6 1.257 . S
Zn14 O17 2.031 1_554 S
Zn14 O19 2.049 . S
Zn14 O24 2.067 1_554 S
Zn15 O16 1.962 . S
Zn15 O18 1.986 . S
Zn15 O20 1.996 . S
Zn15 O23 1.943 1_554 S
O16 Zn15 1.962 . S
O16 C21 1.254 . S
O17 Zn14 2.031 1_556 S
O17 C21 1.269 1_556 S
O18 Zn15 1.986 . S
O18 C25 1.262 . S
O19 Zn14 2.049 . S
O19 C27 1.260 . S
O20 Zn15 1.996 . S
O20 C27 1.257 . S
C21 O16 1.254 . S
C21 O17 1.269 1_554 S
C22 O23 1.249 . S
C22 O24 1.270 . S
O23 Zn15 1.943 1_556 S
O23 C22 1.249 . S
O24 Zn14 2.067 1_556 S
O24 C22 1.270 . S
C25 O18 1.262 . S
C25 O26 1.232 . S
O26 C25 1.232 . S
C27 O19 1.260 . S
C27 O20 1.257 . S
Zn28 O31 2.031 . S
Zn28 O33 2.049 1_554 S
Zn28 O38 2.067 . S
Zn29 O30 1.962 1_545 S
Zn29 O32 1.986 1_554 S
Zn29 O34 1.996 1_544 S
Zn29 O37 1.943 . S
O30 Zn29 1.962 1_565 S
O30 C35 1.254 . S
O31 Zn28 2.031 . S
O31 C35 1.269 . S
O32 Zn29 1.986 1_556 S
O32 C39 1.262 . S
O33 Zn28 2.049 1_556 S
O33 C41 1.260 . S
O34 Zn29 1.996 1_566 S
O34 C41 1.257 . S
C35 O30 1.254 . S
C35 O31 1.269 . S
C36 O37 1.249 . S
C36 O38 1.270 1_545 S
O37 Zn29 1.943 . S
O37 C36 1.249 . S
O38 Zn28 2.067 . S
O38 C36 1.270 1_565 S
C39 O32 1.262 . S
C39 O40 1.232 1_556 S
O40 C39 1.232 1_554 S
C41 O33 1.260 . S
C41 O34 1.257 . S
Zn42 O45 2.031 . S
Zn42 O47 2.049 1_554 S
Zn42 O52 2.067 . S
Zn43 O44 1.962 1_655 S
Zn43 O46 1.986 1_554 S
Zn43 O48 1.996 1_654 S
Zn43 O51 1.943 . S
O44 Zn43 1.962 1_455 S
O44 C49 1.254 . S
O45 Zn42 2.031 . S
O45 C49 1.269 . S
O46 Zn43 1.986 1_556 S
O46 C53 1.241 1_556 S
O47 Zn42 2.049 1_556 S
O47 C55 1.260 . S
O48 Zn43 1.996 1_456 S
O48 C55 1.257 . S
C49 O44 1.254 . S
C49 O45 1.269 . S
C50 O51 1.249 . S
C50 O52 1.270 1_655 S
O51 Zn43 1.943 . S
O51 C50 1.249 . S
O52 Zn42 2.067 . S
O52 C50 1.270 1_455 S
C53 O46 1.241 1_554 S
C53 O54 1.263 . S
O54 C53 1.263 . S
C55 O47 1.260 . S
C55 O48 1.257 . S
Zn56 O59 2.031 . S
Zn56 O61 2.049 1_554 S
Zn56 O66 2.067 . S
Zn57 O58 1.962 . S
Zn57 O60 1.986 1_554 S
Zn57 O62 1.996 1_554 S
Zn57 O65 1.943 . S
O58 Zn57 1.962 . S
O58 C63 1.254 . S
O59 Zn56 2.031 . S
O59 C63 1.269 . S
O60 Zn57 1.986 1_556 S
O60 C67 1.262 1_556 S
O61 Zn56 2.049 1_556 S
O61 C69 1.260 . S
O62 Zn57 1.996 1_556 S
O62 C69 1.257 . S
C63 O58 1.254 . S
C63 O59 1.269 . S
C64 O65 1.249 . S
C64 O66 1.270 . S
O65 Zn57 1.943 . S
O65 C64 1.249 . S
O66 Zn56 2.067 . S
O66 C64 1.270 . S
C67 O60 1.262 1_554 S
C67 O68 1.232 . S
O68 C67 1.232 . S
C69 O61 1.260 . S
C69 O62 1.257 . S
Zn70 O73 2.031 1_554 S
Zn70 O75 2.049 . S
Zn70 O80 2.067 1_554 S
Zn71 O72 1.962 1_565 S
Zn71 O74 1.986 . S
Zn71 O76 1.996 1_565 S
Zn71 O79 1.943 1_554 S
O72 Zn71 1.962 1_545 S
O72 C77 1.254 . S
O73 Zn70 2.031 1_556 S
O73 C77 1.269 1_556 S
O74 Zn71 1.986 . S
O74 C81 1.262 . S
O75 Zn70 2.049 . S
O75 C83 1.260 . S
O76 Zn71 1.996 1_545 S
O76 C83 1.257 . S
C77 O72 1.254 . S
C77 O73 1.269 1_554 S
C78 O79 1.249 . S
C78 O80 1.270 1_565 S
O79 Zn71 1.943 1_556 S
O79 C78 1.249 . S
O80 Zn70 2.067 1_556 S
O80 C78 1.270 1_545 S
C81 O74 1.262 . S
C81 O82 1.232 . S
O82 C81 1.232 . S
C83 O75 1.260 . S
C83 O76 1.257 . S
Zn84 O87 2.031 . S
Zn84 O89 2.049 . S
Zn84 O94 2.067 . S
Zn85 O86 1.962 . S
Zn85 O88 1.986 . S
Zn85 O90 1.996 . S
Zn85 O93 1.943 . S
O86 Zn85 1.962 . S
O86 C91 1.254 . S
O87 Zn84 2.031 . S
O87 C91 1.269 . S
O88 Zn85 1.986 . S
O88 C95 1.262 . S
O89 Zn84 2.049 . S
O89 C97 1.260 . S
O90 Zn85 1.996 . S
O90 C97 1.257 . S
C91 O86 1.254 . S
C91 O87 1.269 . S
C92 O93 1.249 . S
C92 O94 1.270 . S
O93 Zn85 1.943 . S
O93 C92 1.249 . S
O94 Zn84 2.067 . S
O94 C92 1.270 . S
C95 O88 1.262 . S
C95 O96 1.232 . S
O96 C95 1.232 . S
C97 O89 1.260 . S
C97 O90 1.257 . S
Zn98 O101 2.031 . S
Zn98 O103 2.049 . S
Zn98 O108 2.067 . S
Zn99 O100 1.962 . S
Zn99 O102 1.986 . S
Zn99 O104 1.996 . S
Zn99 O107 1.943 . S
O100 Zn99 1.962 . S
O100 C105 1.254 . S
O101 Zn98 2.031 . S
O101 C105 1.269 . S
O102 Zn99 1.986 . S
O102 C109 1.262 1_565 S
O103 Zn98 2.049 . S
O103 C111 1.260 . S
O104 Zn99 1.996 . S
O104 C111 1.257 . S
C105 O100 1.254 . S
C105 O101 1.269 . S
C106 O107 1.249 . S
C106 O108 1.270 . S
O107 Zn99 1.943 . S
O107 C106 1.249 . S
O108 Zn98 2.067 . S
O108 C106 1.270 . S
C109 O102 1.262 1_545 S
C109 O110 1.232 . S
O110 C109 1.232 . S
C111 O103 1.260 . S
C111 O104 1.257 . S
Zn112 O115 2.031 . S
Zn112 O117 2.049 . S
Zn112 O122 2.067 . S
Zn113 O114 1.962 . S
Zn113 O116 1.986 . S
Zn113 O118 1.996 . S
Zn113 O121 1.943 . S
O114 Zn113 1.962 . S
O114 C119 1.258 1_455 S
O115 Zn112 2.031 . S
O115 C119 1.258 1_455 S
O116 Zn113 1.986 . S
O116 C123 1.262 . S
O117 Zn112 2.049 . S
O117 C125 1.260 . S
O118 Zn113 1.996 . S
O118 C125 1.257 . S
C119 O114 1.258 1_655 S
C119 O115 1.258 1_655 S
C120 O121 1.249 . S
C120 O122 1.270 . S
O121 Zn113 1.943 . S
O121 C120 1.249 . S
O122 Zn112 2.067 . S
O122 C120 1.270 . S
C123 O116 1.262 . S
C123 O124 1.232 . S
O124 C123 1.232 . S
C125 O117 1.260 . S
C125 O118 1.257 . S
Zn126 O129 2.031 . S
Zn126 O131 2.049 . S
Zn126 O136 2.067 . S
Zn127 O128 1.928 1_565 S
Zn127 O130 1.986 . S
Zn127 O132 1.996 . S
Zn127 O135 1.943 . S
O128 Zn127 1.928 1_545 S
O128 C133 1.238 . S
O129 Zn126 2.031 . S
O129 C133 1.269 1_565 S
O130 Zn127 1.986 . S
O130 C137 1.262 . S
O131 Zn126 2.049 . S
O131 C139 1.260 . S
O132 Zn127 1.996 . S
O132 C139 1.257 . S
C133 O128 1.238 . S
C133 O129 1.269 1_545 S
C134 O135 1.249 . S
C134 O136 1.270 . S
O135 Zn127 1.943 . S
O135 C134 1.249 . S
O136 Zn126 2.067 . S
O136 C134 1.270 . S
C137 O130 1.262 . S
C137 O138 1.232 . S
O138 C137 1.232 . S
C139 O131 1.260 . S
C139 O132 1.257 . S
Zn140 O143 2.031 . S
Zn140 O145 2.049 . S
Zn140 O150 2.067 . S
Zn141 O142 1.962 1_455 S
Zn141 O144 1.986 . S
Zn141 O146 1.996 . S
Zn141 O149 1.943 . S
O142 Zn141 1.962 1_655 S
O142 C147 1.254 . S
O143 Zn140 2.031 . S
O143 C147 1.269 1_455 S
O144 Zn141 1.986 . S
O144 C151 1.262 . S
O145 Zn140 2.049 . S
O145 C153 1.260 . S
O146 Zn141 1.996 . S
O146 C153 1.257 . S
C147 O142 1.254 . S
C147 O143 1.269 1_655 S
C148 O149 1.249 . S
C148 O150 1.270 . S
O149 Zn141 1.943 . S
O149 C148 1.249 . S
O150 Zn140 2.067 . S
O150 C148 1.270 . S
C151 O144 1.262 . S
C151 O152 1.232 . S
O152 C151 1.232 . S
C153 O145 1.260 . S
C153 O146 1.257 . S
Zn154 O157 2.031 . S
Zn154 O159 2.049 . S
Zn154 O164 2.067 . S
Zn155 O156 1.962 . S
Zn155 O158 1.986 . S
Zn155 O160 1.996 . S
Zn155 O163 1.943 . S
O156 Zn155 1.962 . S
O156 C161 1.254 . S
O157 Zn154 2.031 . S
O157 C161 1.269 . S
O158 Zn155 1.986 . S
O158 C165 1.262 . S
O159 Zn154 2.049 . S
O159 C167 1.260 . S
O160 Zn155 1.996 . S
O160 C167 1.257 . S
C161 O156 1.254 . S
C161 O157 1.269 . S
C162 O163 1.249 . S
C162 O164 1.270 . S
O163 Zn155 1.943 . S
O163 C162 1.249 . S
O164 Zn154 2.067 . S
O164 C162 1.270 . S
C165 O158 1.262 . S
C165 O166 1.232 . S
O166 C165 1.232 . S
C167 O159 1.260 . S
C167 O160 1.257 . S
Zn168 O171 2.031 . S
Zn168 O173 2.049 . S
Zn168 O178 2.067 . S
Zn169 O170 1.962 . S
Zn169 O172 1.986 . S
Zn169 O174 1.996 . S
Zn169 O177 1.943 . S
O170 Zn169 1.962 . S
O170 C175 1.235 . S
O171 Zn168 2.031 . S
O171 C175 1.331 . S
O172 Zn169 1.986 . S
O172 C179 1.262 . S
O173 Zn168 2.049 . S
O173 C181 1.260 . S
O174 Zn169 1.996 . S
O174 C181 1.257 . S
C175 O170 1.235 . S
C175 O171 1.331 . S
C176 O177 1.249 . S
C176 O178 1.270 . S
O177 Zn169 1.943 . S
O177 C176 1.249 . S
O178 Zn168 2.067 . S
O178 C176 1.270 . S
C179 O172 1.262 . S
C179 O180 1.232 . S
O180 C179 1.232 . S
C181 O173 1.260 . S
C181 O174 1.257 . S
Zn182 O185 2.031 . S
Zn182 O187 2.049 . S
Zn182 O192 2.067 . S
Zn183 O184 1.962 1_655 S
Zn183 O186 1.986 . S
Zn183 O188 1.996 . S
Zn183 O191 1.943 . S
O184 Zn183 1.962 1_455 S
O184 C189 1.254 . S
O185 Zn182 2.031 . S
O185 C189 1.269 1_655 S
O186 Zn183 1.986 . S
O186 C193 1.262 . S
O187 Zn182 2.049 . S
O187 C195 1.260 . S
O188 Zn183 1.996 . S
O188 C195 1.257 . S
C189 O184 1.254 . S
C189 O185 1.269 1_455 S
C190 O191 1.249 . S
C190 O192 1.270 . S
O191 Zn183 1.943 . S
O191 C190 1.249 . S
O192 Zn182 2.067 . S
O192 C190 1.270 . S
C193 O186 1.262 . S
C193 O194 1.232 . S
O194 C193 1.232 . S
C195 O187 1.260 . S
C195 O188 1.257 . S
Zn196 O199 2.031 . S
Zn196 O201 2.049 . S
Zn196 O206 2.067 . S
Zn197 O198 1.962 . S
Zn197 O200 1.986 . S
Zn197 O202 1.996 . S
Zn197 O205 1.943 . S
O198 Zn197 1.962 . S
O198 C203 1.254 . S
O199 Zn196 2.031 . S
O199 C203 1.269 . S
O200 Zn197 1.986 . S
O200 C207 1.262 . S
O201 Zn196 2.049 . S
O201 C209 1.260 . S
O202 Zn197 1.996 . S
O202 C209 1.257 . S
C203 O198 1.254 . S
C203 O199 1.269 . S
C204 O205 1.249 . S
C204 O206 1.270 . S
O205 Zn197 1.943 . S
O205 C204 1.249 . S
O206 Zn196 2.067 . S
O206 C204 1.270 . S
C207 O200 1.262 . S
C207 O208 1.232 . S
O208 C207 1.232 . S
C209 O201 1.260 . S
C209 O202 1.257 . S
Zn210 O213 2.031 . S
Zn210 O215 2.049 . S
Zn210 O220 2.067 . S
Zn211 O212 1.962 . S
Zn211 O214 1.986 . S
Zn211 O216 1.996 . S
Zn211 O219 1.943 . S
O212 Zn211 1.962 . S
O212 C217 1.254 . S
O213 Zn210 2.031 . S
O213 C217 1.269 . S
O214 Zn211 1.986 . S
O214 C221 1.262 . S
O215 Zn210 2.049 . S
O215 C223 1.260 . S
O216 Zn211 1.996 . S
O216 C223 1.257 . S
C217 O212 1.254 . S
C217 O213 1.269 . S
C218 O219 1.249 . S
C218 O220 1.270 . S
O219 Zn211 1.943 . S
O219 C218 1.249 . S
O220 Zn210 2.067 . S
O220 C218 1.270 . S
C221 O214 1.262 . S
C221 O222 1.232 . S
O222 C221 1.232 . S
C223 O215 1.260 . S
C223 O216 1.257 . S
Zn224 O227 2.031 . S
Zn224 O229 2.049 . S
Zn224 O234 2.067 . S
Zn225 O226 1.962 . S
Zn225 O228 1.986 . S
Zn225 O230 1.996 . S
Zn225 O233 1.943 . S
O226 Zn225 1.962 . S
O226 C231 1.254 . S
O227 Zn224 2.031 . S
O227 C231 1.269 . S
O228 Zn225 1.986 . S
O228 C235 1.262 1_545 S
O229 Zn224 2.049 . S
O229 C237 1.260 . S
O230 Zn225 1.996 . S
O230 C237 1.257 . S
C231 O226 1.254 . S
C231 O227 1.269 . S
C232 O233 1.249 . S
C232 O234 1.270 . S
O233 Zn225 1.943 . S
O233 C232 1.249 . S
O234 Zn224 2.067 . S
O234 C232 1.270 . S
C235 O228 1.262 1_565 S
C235 O236 1.232 . S
O236 C235 1.232 . S
C237 O229 1.260 . S
C237 O230 1.257 . S
Zn238 O241 2.031 . S
Zn238 O243 2.049 . S
Zn238 O248 2.067 . S
Zn239 O240 1.984 . S
Zn239 O242 1.986 . S
Zn239 O244 1.996 . S
Zn239 O247 1.943 . S
O240 Zn239 1.984 . S
O240 C245 1.289 1_655 S
O241 Zn238 2.031 . S
O241 C245 1.210 1_655 S
O242 Zn239 1.986 . S
O242 C249 1.262 . S
O243 Zn238 2.049 . S
O243 C251 1.260 . S
O244 Zn239 1.996 . S
O244 C251 1.257 . S
C245 O240 1.289 1_455 S
C245 O241 1.210 1_455 S
C246 O247 1.249 . S
C246 O248 1.270 . S
O247 Zn239 1.943 . S
O247 C246 1.249 . S
O248 Zn238 2.067 . S
O248 C246 1.270 . S
C249 O242 1.262 . S
C249 O250 1.232 . S
O250 C249 1.232 . S
C251 O243 1.260 . S
C251 O244 1.257 . S
H252 C279 0.929 . S
N253 C278 1.433 . S
N253 C284 1.435 . S
N253 C290 1.423 . S
H254 C280 0.930 . S
H255 C283 0.931 . S
H256 C282 0.929 . S
H257 C285 0.930 . S
H258 C286 0.932 . S
H259 C289 0.929 . S
H260 C288 0.931 . S
H261 C291 0.929 . S
H262 C295 0.932 . S
H263 C292 0.931 . S
H264 C294 0.929 . S
H265 C297 0.929 . S
H266 C298 0.930 . S
H267 C300 0.929 . S
H268 C301 0.931 . S
H269 C303 0.930 . S
H270 C304 0.932 . S
H271 C306 0.931 . S
H272 C307 0.929 . S
H273 C309 0.929 . S
H274 C310 0.931 . S
H275 C312 0.929 . S
N276 C296 1.433 . S
N276 C302 1.435 . S
N276 C308 1.423 . S
H277 C313 0.932 . S
C278 N253 1.433 . S
C278 C279 1.363 . S
C278 C283 1.370 . S
C279 H252 0.929 . S
C279 C278 1.363 . S
C279 C280 1.385 . S
C280 H254 0.930 . S
C280 C279 1.385 . S
C280 C281 1.357 . S
C281 C280 1.357 . S
C281 C282 1.406 . S
C282 H256 0.929 . S
C282 C281 1.406 . S
C282 C283 1.391 . S
C283 H255 0.931 . S
C283 C278 1.370 . S
C283 C282 1.391 . S
C284 N253 1.435 . S
C284 C285 1.358 . S
C284 C289 1.371 . S
C285 H257 0.930 . S
C285 C284 1.358 . S
C285 C286 1.405 . S
C286 H258 0.932 . S
C286 C285 1.405 . S
C286 C287 1.383 . S
C287 C286 1.383 . S
C287 C288 1.393 . S
C288 H260 0.931 . S
C288 C287 1.393 . S
C288 C289 1.382 . S
C289 H259 0.929 . S
C289 C284 1.371 . S
C289 C288 1.382 . S
C290 N253 1.423 . S
C290 C291 1.362 . S
C290 C295 1.388 . S
C291 H261 0.929 . S
C291 C290 1.362 . S
C291 C292 1.376 . S
C292 H263 0.931 . S
C292 C291 1.376 . S
C292 C293 1.396 . S
C293 C292 1.396 . S
C293 C294 1.348 . S
C293 C311 1.472 . S
C294 H264 0.929 . S
C294 C293 1.348 . S
C294 C295 1.443 . S
C295 H262 0.932 . S
C295 C290 1.388 . S
C295 C294 1.443 . S
C296 N276 1.433 . S
C296 C297 1.363 . S
C296 C301 1.370 . S
C297 H265 0.929 . S
C297 C296 1.363 . S
C297 C298 1.385 . S
C298 H266 0.930 . S
C298 C297 1.385 . S
C298 C299 1.357 . S
C299 C298 1.357 . S
C299 C300 1.406 . S
C300 H267 0.929 . S
C300 C299 1.406 . S
C300 C301 1.391 . S
C301 H268 0.931 . S
C301 C296 1.370 . S
C301 C300 1.391 . S
C302 N276 1.435 . S
C302 C303 1.358 . S
C302 C307 1.371 . S
C303 H269 0.930 . S
C303 C302 1.358 . S
C303 C304 1.405 . S
C304 H270 0.932 . S
C304 C303 1.405 . S
C304 C305 1.383 . S
C305 C304 1.383 . S
C305 C306 1.393 . S
C306 H271 0.931 . S
C306 C305 1.393 . S
C306 C307 1.382 . S
C307 H272 0.929 . S
C307 C302 1.371 . S
C307 C306 1.382 . S
C308 N276 1.423 . S
C308 C309 1.362 . S
C308 C313 1.388 . S
C309 H273 0.929 . S
C309 C308 1.362 . S
C309 C310 1.376 . S
C310 H274 0.931 . S
C310 C309 1.376 . S
C310 C311 1.396 . S
C311 C293 1.472 . S
C311 C310 1.396 . S
C311 C312 1.348 . S
C312 H275 0.929 . S
C312 C311 1.348 . S
C312 C313 1.443 . S
C313 H277 0.932 . S
C313 C308 1.388 . S
C313 C312 1.443 . S
H314 C341 0.929 . S
N315 C340 1.433 . S
N315 C346 1.435 . S
N315 C352 1.423 . S
H316 C342 0.930 . S
H317 C345 0.931 . S
H318 C344 0.929 . S
H319 C347 0.930 . S
H320 C348 0.932 . S
H321 C351 0.929 . S
H322 C350 0.931 . S
H323 C353 0.929 . S
H324 C357 0.932 . S
H325 C354 0.931 . S
H326 C356 0.929 . S
H327 C359 0.929 . S
H328 C360 0.930 . S
H329 C362 0.929 . S
H330 C363 0.931 . S
H331 C365 0.930 . S
H332 C366 0.932 . S
H333 C368 0.931 . S
H334 C369 0.929 . S
H335 C371 0.929 . S
H336 C372 0.931 . S
H337 C374 0.929 . S
N338 C358 1.433 . S
N338 C364 1.435 . S
N338 C370 1.423 . S
H339 C375 0.932 . S
C340 N315 1.433 . S
C340 C341 1.363 . S
C340 C345 1.370 . S
C341 H314 0.929 . S
C341 C340 1.363 . S
C341 C342 1.385 . S
C342 H316 0.930 . S
C342 C341 1.385 . S
C342 C343 1.357 . S
C343 C342 1.357 . S
C343 C344 1.406 . S
C344 H318 0.929 . S
C344 C343 1.406 . S
C344 C345 1.391 . S
C345 H317 0.931 . S
C345 C340 1.370 . S
C345 C344 1.391 . S
C346 N315 1.435 . S
C346 C347 1.358 . S
C346 C351 1.371 . S
C347 H319 0.930 . S
C347 C346 1.358 . S
C347 C348 1.405 . S
C348 H320 0.932 . S
C348 C347 1.405 . S
C348 C349 1.383 . S
C349 C348 1.383 . S
C349 C350 1.393 . S
C350 H322 0.931 . S
C350 C349 1.393 . S
C350 C351 1.382 . S
C351 H321 0.929 . S
C351 C346 1.371 . S
C351 C350 1.382 . S
C352 N315 1.423 . S
C352 C353 1.362 . S
C352 C357 1.388 . S
C353 H323 0.929 . S
C353 C352 1.362 . S
C353 C354 1.376 . S
C354 H325 0.931 . S
C354 C353 1.376 . S
C354 C355 1.396 . S
C355 C354 1.396 . S
C355 C356 1.348 . S
C355 C373 1.472 . S
C356 H326 0.929 . S
C356 C355 1.348 . S
C356 C357 1.443 . S
C357 H324 0.932 . S
C357 C352 1.388 . S
C357 C356 1.443 . S
C358 N338 1.433 . S
C358 C359 1.363 . S
C358 C363 1.370 . S
C359 H327 0.929 . S
C359 C358 1.363 . S
C359 C360 1.385 . S
C360 H328 0.930 . S
C360 C359 1.385 . S
C360 C361 1.357 . S
C361 C360 1.357 . S
C361 C362 1.406 . S
C362 H329 0.929 . S
C362 C361 1.406 . S
C362 C363 1.391 . S
C363 H330 0.931 . S
C363 C358 1.370 . S
C363 C362 1.391 . S
C364 N338 1.435 . S
C364 C365 1.358 . S
C364 C369 1.371 . S
C365 H331 0.930 . S
C365 C364 1.358 . S
C365 C366 1.405 . S
C366 H332 0.932 . S
C366 C365 1.405 . S
C366 C367 1.383 . S
C367 C366 1.383 . S
C367 C368 1.393 . S
C368 H333 0.931 . S
C368 C367 1.393 . S
C368 C369 1.382 . S
C369 H334 0.929 . S
C369 C364 1.371 . S
C369 C368 1.382 . S
C370 N338 1.423 . S
C370 C371 1.362 . S
C370 C375 1.388 . S
C371 H335 0.929 . S
C371 C370 1.362 . S
C371 C372 1.376 . S
C372 H336 0.931 . S
C372 C371 1.376 . S
C372 C373 1.396 . S
C373 C355 1.472 . S
C373 C372 1.396 . S
C373 C374 1.348 . S
C374 H337 0.929 . S
C374 C373 1.348 . S
C374 C375 1.443 . S
C375 H339 0.932 . S
C375 C370 1.388 . S
C375 C374 1.443 . S
H376 C403 0.929 . S
N377 C402 1.433 . S
N377 C408 1.435 . S
N377 C414 1.423 . S
H378 C404 0.930 . S
H379 C407 0.931 . S
H380 C406 0.929 . S
H381 C409 0.930 . S
H382 C410 0.932 . S
H383 C413 0.929 . S
H384 C412 0.931 . S
H385 C415 0.929 . S
H386 C419 0.932 . S
H387 C416 0.931 . S
H388 C418 0.929 . S
H389 C421 0.929 . S
H390 C422 0.930 . S
H391 C424 0.929 . S
H392 C425 0.931 . S
H393 C427 0.930 . S
H394 C428 0.932 . S
H395 C430 0.931 . S
H396 C431 0.929 . S
H397 C433 0.929 . S
H398 C434 0.931 . S
H399 C436 0.929 . S
N400 C420 1.433 . S
N400 C426 1.435 . S
N400 C432 1.423 . S
H401 C437 0.932 . S
C402 N377 1.433 . S
C402 C403 1.363 . S
C402 C407 1.370 . S
C403 H376 0.929 . S
C403 C402 1.363 . S
C403 C404 1.385 . S
C404 H378 0.930 . S
C404 C403 1.385 . S
C404 C405 1.357 . S
C405 C404 1.357 . S
C405 C406 1.406 . S
C406 H380 0.929 . S
C406 C405 1.406 . S
C406 C407 1.391 . S
C407 H379 0.931 . S
C407 C402 1.370 . S
C407 C406 1.391 . S
C408 N377 1.435 . S
C408 C409 1.358 . S
C408 C413 1.371 . S
C409 H381 0.930 . S
C409 C408 1.358 . S
C409 C410 1.405 . S
C410 H382 0.932 . S
C410 C409 1.405 . S
C410 C411 1.383 . S
C411 C410 1.383 . S
C411 C412 1.393 . S
C412 H384 0.931 . S
C412 C411 1.393 . S
C412 C413 1.382 . S
C413 H383 0.929 . S
C413 C408 1.371 . S
C413 C412 1.382 . S
C414 N377 1.423 . S
C414 C415 1.362 . S
C414 C419 1.388 . S
C415 H385 0.929 . S
C415 C414 1.362 . S
C415 C416 1.376 . S
C416 H387 0.931 . S
C416 C415 1.376 . S
C416 C417 1.396 . S
C417 C416 1.396 . S
C417 C418 1.348 . S
C417 C435 1.472 . S
C418 H388 0.929 . S
C418 C417 1.348 . S
C418 C419 1.443 . S
C419 H386 0.932 . S
C419 C414 1.388 . S
C419 C418 1.443 . S
C420 N400 1.433 . S
C420 C421 1.363 . S
C420 C425 1.370 . S
C421 H389 0.929 . S
C421 C420 1.363 . S
C421 C422 1.385 . S
C422 H390 0.930 . S
C422 C421 1.385 . S
C422 C423 1.357 . S
C423 C422 1.357 . S
C423 C424 1.406 . S
C424 H391 0.929 . S
C424 C423 1.406 . S
C424 C425 1.391 . S
C425 H392 0.931 . S
C425 C420 1.370 . S
C425 C424 1.391 . S
C426 N400 1.435 . S
C426 C427 1.358 . S
C426 C431 1.371 . S
C427 H393 0.930 . S
C427 C426 1.358 . S
C427 C428 1.405 . S
C428 H394 0.932 . S
C428 C427 1.405 . S
C428 C429 1.383 . S
C429 C428 1.383 . S
C429 C430 1.393 . S
C430 H395 0.931 . S
C430 C429 1.393 . S
C430 C431 1.382 . S
C431 H396 0.929 . S
C431 C426 1.371 . S
C431 C430 1.382 . S
C432 N400 1.423 . S
C432 C433 1.362 . S
C432 C437 1.388 . S
C433 H397 0.929 . S
C433 C432 1.362 . S
C433 C434 1.376 . S
C434 H398 0.931 . S
C434 C433 1.376 . S
C434 C435 1.396 . S
C435 C417 1.472 . S
C435 C434 1.396 . S
C435 C436 1.348 . S
C436 H399 0.929 . S
C436 C435 1.348 . S
C436 C437 1.443 . S
C437 H401 0.932 . S
C437 C432 1.388 . S
C437 C436 1.443 . S
H438 C465 0.929 . S
N439 C464 1.433 . S
N439 C470 1.435 . S
N439 C476 1.423 . S
H440 C466 0.930 . S
H441 C469 0.931 . S
H442 C468 0.929 . S
H443 C471 0.930 . S
H444 C472 0.932 . S
H445 C475 0.929 . S
H446 C474 0.931 . S
H447 C477 0.929 . S
H448 C481 0.932 . S
H449 C478 0.931 . S
H450 C480 0.929 . S
H451 C483 0.929 . S
H452 C484 0.930 . S
H453 C486 0.929 . S
H454 C487 0.931 . S
H455 C489 0.930 . S
H456 C490 0.932 . S
H457 C492 0.931 . S
H458 C493 0.929 . S
H459 C495 0.929 . S
H460 C496 0.931 . S
H461 C498 0.929 . S
N462 C482 1.433 . S
N462 C488 1.435 . S
N462 C494 1.423 . S
H463 C499 0.932 . S
C464 N439 1.433 . S
C464 C465 1.363 . S
C464 C469 1.370 . S
C465 H438 0.929 . S
C465 C464 1.363 . S
C465 C466 1.385 . S
C466 H440 0.930 . S
C466 C465 1.385 . S
C466 C467 1.357 . S
C467 C466 1.357 . S
C467 C468 1.406 . S
C468 H442 0.929 . S
C468 C467 1.406 . S
C468 C469 1.391 . S
C469 H441 0.931 . S
C469 C464 1.370 . S
C469 C468 1.391 . S
C470 N439 1.435 . S
C470 C471 1.358 . S
C470 C475 1.371 . S
C471 H443 0.930 . S
C471 C470 1.358 . S
C471 C472 1.405 . S
C472 H444 0.932 . S
C472 C471 1.405 . S
C472 C473 1.383 . S
C473 C472 1.383 . S
C473 C474 1.393 . S
C474 H446 0.931 . S
C474 C473 1.393 . S
C474 C475 1.382 . S
C475 H445 0.929 . S
C475 C470 1.371 . S
C475 C474 1.382 . S
C476 N439 1.423 . S
C476 C477 1.362 . S
C476 C481 1.388 . S
C477 H447 0.929 . S
C477 C476 1.362 . S
C477 C478 1.376 . S
C478 H449 0.931 . S
C478 C477 1.376 . S
C478 C479 1.396 . S
C479 C478 1.396 . S
C479 C480 1.348 . S
C479 C497 1.472 . S
C480 H450 0.929 . S
C480 C479 1.348 . S
C480 C481 1.443 . S
C481 H448 0.932 . S
C481 C476 1.388 . S
C481 C480 1.443 . S
C482 N462 1.433 . S
C482 C483 1.363 . S
C482 C487 1.370 . S
C483 H451 0.929 . S
C483 C482 1.363 . S
C483 C484 1.385 . S
C484 H452 0.930 . S
C484 C483 1.385 . S
C484 C485 1.357 . S
C485 C484 1.357 . S
C485 C486 1.406 . S
C486 H453 0.929 . S
C486 C485 1.406 . S
C486 C487 1.391 . S
C487 H454 0.931 . S
C487 C482 1.370 . S
C487 C486 1.391 . S
C488 N462 1.435 . S
C488 C489 1.358 . S
C488 C493 1.371 . S
C489 H455 0.930 . S
C489 C488 1.358 . S
C489 C490 1.405 . S
C490 H456 0.932 . S
C490 C489 1.405 . S
C490 C491 1.383 . S
C491 C490 1.383 . S
C491 C492 1.393 . S
C492 H457 0.931 . S
C492 C491 1.393 . S
C492 C493 1.382 . S
C493 H458 0.929 . S
C493 C488 1.371 . S
C493 C492 1.382 . S
C494 N462 1.423 . S
C494 C495 1.362 . S
C494 C499 1.388 . S
C495 H459 0.929 . S
C495 C494 1.362 . S
C495 C496 1.376 . S
C496 H460 0.931 . S
C496 C495 1.376 . S
C496 C497 1.396 . S
C497 C479 1.472 . S
C497 C496 1.396 . S
C497 C498 1.348 . S
C498 H461 0.929 . S
C498 C497 1.348 . S
C498 C499 1.443 . S
C499 H463 0.932 . S
C499 C494 1.388 . S
C499 C498 1.443 . S
H500 C527 0.929 . S
N501 C526 1.433 . S
N501 C532 1.435 . S
N501 C538 1.423 . S
H502 C528 0.930 . S
H503 C531 0.931 . S
H504 C530 0.929 . S
H505 C533 0.930 . S
H506 C534 0.932 . S
H507 C537 0.929 . S
H508 C536 0.931 . S
H509 C539 0.929 . S
H510 C543 0.932 . S
H511 C540 0.931 . S
H512 C542 0.929 . S
H513 C545 0.929 . S
H514 C546 0.930 . S
H515 C548 0.929 . S
H516 C549 0.931 . S
H517 C551 0.930 . S
H518 C552 0.932 . S
H519 C554 0.931 . S
H520 C555 0.929 . S
H521 C557 0.929 . S
H522 C558 0.931 . S
H523 C560 0.929 . S
N524 C544 1.433 . S
N524 C550 1.435 . S
N524 C556 1.423 . S
H525 C561 0.932 . S
C526 N501 1.433 . S
C526 C527 1.363 . S
C526 C531 1.370 . S
C527 H500 0.929 . S
C527 C526 1.363 . S
C527 C528 1.385 . S
C528 H502 0.930 . S
C528 C527 1.385 . S
C528 C529 1.357 . S
C529 C528 1.357 . S
C529 C530 1.406 . S
C530 H504 0.929 . S
C530 C529 1.406 . S
C530 C531 1.391 . S
C531 H503 0.931 . S
C531 C526 1.370 . S
C531 C530 1.391 . S
C532 N501 1.435 . S
C532 C533 1.358 . S
C532 C537 1.371 . S
C533 H505 0.930 . S
C533 C532 1.358 . S
C533 C534 1.405 . S
C534 H506 0.932 . S
C534 C533 1.405 . S
C534 C535 1.383 . S
C535 C534 1.383 . S
C535 C536 1.393 . S
C536 H508 0.931 . S
C536 C535 1.393 . S
C536 C537 1.382 . S
C537 H507 0.929 . S
C537 C532 1.371 . S
C537 C536 1.382 . S
C538 N501 1.423 . S
C538 C539 1.362 . S
C538 C543 1.388 . S
C539 H509 0.929 . S
C539 C538 1.362 . S
C539 C540 1.376 . S
C540 H511 0.931 . S
C540 C539 1.376 . S
C540 C541 1.396 . S
C541 C540 1.396 . S
C541 C542 1.348 . S
C541 C559 1.472 . S
C542 H512 0.929 . S
C542 C541 1.348 . S
C542 C543 1.443 . S
C543 H510 0.932 . S
C543 C538 1.388 . S
C543 C542 1.443 . S
C544 N524 1.433 . S
C544 C545 1.363 . S
C544 C549 1.370 . S
C545 H513 0.929 . S
C545 C544 1.363 . S
C545 C546 1.385 . S
C546 H514 0.930 . S
C546 C545 1.385 . S
C546 C547 1.357 . S
C547 C546 1.357 . S
C547 C548 1.406 . S
C548 H515 0.929 . S
C548 C547 1.406 . S
C548 C549 1.391 . S
C549 H516 0.931 . S
C549 C544 1.370 . S
C549 C548 1.391 . S
C550 N524 1.435 . S
C550 C551 1.358 . S
C550 C555 1.371 . S
C551 H517 0.930 . S
C551 C550 1.358 . S
C551 C552 1.405 . S
C552 H518 0.932 . S
C552 C551 1.405 . S
C552 C553 1.383 . S
C553 C552 1.383 . S
C553 C554 1.393 . S
C554 H519 0.931 . S
C554 C553 1.393 . S
C554 C555 1.382 . S
C555 H520 0.929 . S
C555 C550 1.371 . S
C555 C554 1.382 . S
C556 N524 1.423 . S
C556 C557 1.362 . S
C556 C561 1.388 . S
C557 H521 0.929 . S
C557 C556 1.362 . S
C557 C558 1.376 . S
C558 H522 0.931 . S
C558 C557 1.376 . S
C558 C559 1.396 . S
C559 C541 1.472 . S
C559 C558 1.396 . S
C559 C560 1.348 . S
C560 H523 0.929 . S
C560 C559 1.348 . S
C560 C561 1.443 . S
C561 H525 0.932 . S
C561 C556 1.388 . S
C561 C560 1.443 . S
H562 C589 0.929 . S
N563 C588 1.433 . S
N563 C594 1.435 . S
N563 C600 1.423 . S
H564 C590 0.930 . S
H565 C593 0.931 . S
H566 C592 0.929 . S
H567 C595 0.930 . S
H568 C596 0.932 . S
H569 C599 0.929 . S
H570 C598 0.931 . S
H571 C601 0.929 . S
H572 C605 0.932 . S
H573 C602 0.931 . S
H574 C604 0.929 . S
H575 C607 0.929 . S
H576 C608 0.930 . S
H577 C610 0.929 . S
H578 C611 0.931 . S
H579 C613 0.930 . S
H580 C614 0.932 . S
H581 C616 0.931 . S
H582 C617 0.929 . S
H583 C619 0.929 . S
H584 C620 0.931 . S
H585 C622 0.929 . S
N586 C606 1.433 . S
N586 C612 1.435 . S
N586 C618 1.423 . S
H587 C623 0.932 . S
C588 N563 1.433 . S
C588 C589 1.363 . S
C588 C593 1.370 . S
C589 H562 0.929 . S
C589 C588 1.363 . S
C589 C590 1.385 . S
C590 H564 0.930 . S
C590 C589 1.385 . S
C590 C591 1.357 . S
C591 C590 1.357 . S
C591 C592 1.406 . S
C592 H566 0.929 . S
C592 C591 1.406 . S
C592 C593 1.391 . S
C593 H565 0.931 . S
C593 C588 1.370 . S
C593 C592 1.391 . S
C594 N563 1.435 . S
C594 C595 1.358 . S
C594 C599 1.371 . S
C595 H567 0.930 . S
C595 C594 1.358 . S
C595 C596 1.405 . S
C596 H568 0.932 . S
C596 C595 1.405 . S
C596 C597 1.383 . S
C597 C596 1.383 . S
C597 C598 1.393 . S
C598 H570 0.931 . S
C598 C597 1.393 . S
C598 C599 1.382 . S
C599 H569 0.929 . S
C599 C594 1.371 . S
C599 C598 1.382 . S
C600 N563 1.423 . S
C600 C601 1.362 . S
C600 C605 1.388 . S
C601 H571 0.929 . S
C601 C600 1.362 . S
C601 C602 1.376 . S
C602 H573 0.931 . S
C602 C601 1.376 . S
C602 C603 1.396 . S
C603 C602 1.396 . S
C603 C604 1.348 . S
C603 C621 1.472 . S
C604 H574 0.929 . S
C604 C603 1.348 . S
C604 C605 1.443 . S
C605 H572 0.932 . S
C605 C600 1.388 . S
C605 C604 1.443 . S
C606 N586 1.433 . S
C606 C607 1.363 . S
C606 C611 1.370 . S
C607 H575 0.929 . S
C607 C606 1.363 . S
C607 C608 1.385 . S
C608 H576 0.930 . S
C608 C607 1.385 . S
C608 C609 1.357 . S
C609 C608 1.357 . S
C609 C610 1.406 . S
C610 H577 0.929 . S
C610 C609 1.406 . S
C610 C611 1.391 . S
C611 H578 0.931 . S
C611 C606 1.370 . S
C611 C610 1.391 . S
C612 N586 1.435 . S
C612 C613 1.358 . S
C612 C617 1.371 . S
C613 H579 0.930 . S
C613 C612 1.358 . S
C613 C614 1.405 . S
C614 H580 0.932 . S
C614 C613 1.405 . S
C614 C615 1.383 . S
C615 C614 1.383 . S
C615 C616 1.393 . S
C616 H581 0.931 . S
C616 C615 1.393 . S
C616 C617 1.382 . S
C617 H582 0.929 . S
C617 C612 1.371 . S
C617 C616 1.382 . S
C618 N586 1.423 . S
C618 C619 1.362 . S
C618 C623 1.388 . S
C619 H583 0.929 . S
C619 C618 1.362 . S
C619 C620 1.376 . S
C620 H584 0.931 . S
C620 C619 1.376 . S
C620 C621 1.396 . S
C621 C603 1.472 . S
C621 C620 1.396 . S
C621 C622 1.348 . S
C622 H585 0.929 . S
C622 C621 1.348 . S
C622 C623 1.443 . S
C623 H587 0.932 . S
C623 C618 1.388 . S
C623 C622 1.443 . S
H624 C651 0.929 . S
N625 C650 1.433 . S
N625 C656 1.435 . S
N625 C662 1.423 . S
H626 C652 0.930 . S
H627 C655 0.931 . S
H628 C654 0.929 . S
H629 C657 0.930 . S
H630 C658 0.932 . S
H631 C661 0.929 . S
H632 C660 0.931 . S
H633 C663 0.929 . S
H634 C667 0.932 . S
H635 C664 0.931 . S
H636 C666 0.929 . S
H637 C669 0.929 . S
H638 C670 0.930 . S
H639 C672 0.929 . S
H640 C673 0.931 . S
H641 C675 0.930 . S
H642 C676 0.932 . S
H643 C678 0.931 . S
H644 C679 0.929 . S
H645 C681 0.929 . S
H646 C682 0.931 . S
H647 C684 0.929 . S
N648 C668 1.433 . S
N648 C674 1.435 . S
N648 C680 1.423 . S
H649 C685 0.932 . S
C650 N625 1.433 . S
C650 C651 1.363 . S
C650 C655 1.370 . S
C651 H624 0.929 . S
C651 C650 1.363 . S
C651 C652 1.385 . S
C652 H626 0.930 . S
C652 C651 1.385 . S
C652 C653 1.357 . S
C653 C652 1.357 . S
C653 C654 1.406 . S
C654 H628 0.929 . S
C654 C653 1.406 . S
C654 C655 1.391 . S
C655 H627 0.931 . S
C655 C650 1.370 . S
C655 C654 1.391 . S
C656 N625 1.435 . S
C656 C657 1.358 . S
C656 C661 1.371 . S
C657 H629 0.930 . S
C657 C656 1.358 . S
C657 C658 1.405 . S
C658 H630 0.932 . S
C658 C657 1.405 . S
C658 C659 1.383 . S
C659 C658 1.383 . S
C659 C660 1.393 . S
C660 H632 0.931 . S
C660 C659 1.393 . S
C660 C661 1.382 . S
C661 H631 0.929 . S
C661 C656 1.371 . S
C661 C660 1.382 . S
C662 N625 1.423 . S
C662 C663 1.362 . S
C662 C667 1.388 . S
C663 H633 0.929 . S
C663 C662 1.362 . S
C663 C664 1.376 . S
C664 H635 0.931 . S
C664 C663 1.376 . S
C664 C665 1.396 . S
C665 C664 1.396 . S
C665 C666 1.348 . S
C665 C683 1.472 . S
C666 H636 0.929 . S
C666 C665 1.348 . S
C666 C667 1.443 . S
C667 H634 0.932 . S
C667 C662 1.388 . S
C667 C666 1.443 . S
C668 N648 1.433 . S
C668 C669 1.363 . S
C668 C673 1.370 . S
C669 H637 0.929 . S
C669 C668 1.363 . S
C669 C670 1.385 . S
C670 H638 0.930 . S
C670 C669 1.385 . S
C670 C671 1.357 . S
C671 C670 1.357 . S
C671 C672 1.406 . S
C672 H639 0.929 . S
C672 C671 1.406 . S
C672 C673 1.391 . S
C673 H640 0.931 . S
C673 C668 1.370 . S
C673 C672 1.391 . S
C674 N648 1.435 . S
C674 C675 1.358 . S
C674 C679 1.371 . S
C675 H641 0.930 . S
C675 C674 1.358 . S
C675 C676 1.405 . S
C676 H642 0.932 . S
C676 C675 1.405 . S
C676 C677 1.383 . S
C677 C676 1.383 . S
C677 C678 1.393 . S
C678 H643 0.931 . S
C678 C677 1.393 . S
C678 C679 1.382 . S
C679 H644 0.929 . S
C679 C674 1.371 . S
C679 C678 1.382 . S
C680 N648 1.423 . S
C680 C681 1.362 . S
C680 C685 1.388 . S
C681 H645 0.929 . S
C681 C680 1.362 . S
C681 C682 1.376 . S
C682 H646 0.931 . S
C682 C681 1.376 . S
C682 C683 1.396 . S
C683 C665 1.472 . S
C683 C682 1.396 . S
C683 C684 1.348 . S
C684 H647 0.929 . S
C684 C683 1.348 . S
C684 C685 1.443 . S
C685 H649 0.932 . S
C685 C680 1.388 . S
C685 C684 1.443 . S
H686 C713 0.929 . S
N687 C712 1.433 . S
N687 C718 1.435 . S
N687 C724 1.423 . S
H688 C714 0.930 . S
H689 C717 0.931 . S
H690 C716 0.929 . S
H691 C719 0.930 . S
H692 C720 0.932 . S
H693 C723 0.929 . S
H694 C722 0.931 . S
H695 C725 0.929 . S
H696 C729 0.932 . S
H697 C726 0.931 . S
H698 C728 0.929 . S
H699 C731 0.929 . S
H700 C732 0.930 . S
H701 C734 0.929 . S
H702 C735 0.931 . S
H703 C737 0.930 . S
H704 C738 0.932 . S
H705 C740 0.931 . S
H706 C741 0.929 . S
H707 C743 0.929 . S
H708 C744 0.931 . S
H709 C746 0.929 . S
N710 C730 1.433 . S
N710 C736 1.435 . S
N710 C742 1.423 . S
H711 C747 0.932 . S
C712 N687 1.433 . S
C712 C713 1.363 . S
C712 C717 1.370 . S
C713 H686 0.929 . S
C713 C712 1.363 . S
C713 C714 1.385 . S
C714 H688 0.930 . S
C714 C713 1.385 . S
C714 C715 1.357 . S
C715 C714 1.357 . S
C715 C716 1.406 . S
C716 H690 0.929 . S
C716 C715 1.406 . S
C716 C717 1.391 . S
C717 H689 0.931 . S
C717 C712 1.370 . S
C717 C716 1.391 . S
C718 N687 1.435 . S
C718 C719 1.358 . S
C718 C723 1.371 . S
C719 H691 0.930 . S
C719 C718 1.358 . S
C719 C720 1.405 . S
C720 H692 0.932 . S
C720 C719 1.405 . S
C720 C721 1.383 . S
C721 C720 1.383 . S
C721 C722 1.393 . S
C722 H694 0.931 . S
C722 C721 1.393 . S
C722 C723 1.382 . S
C723 H693 0.929 . S
C723 C718 1.371 . S
C723 C722 1.382 . S
C724 N687 1.423 . S
C724 C725 1.362 . S
C724 C729 1.388 . S
C725 H695 0.929 . S
C725 C724 1.362 . S
C725 C726 1.376 . S
C726 H697 0.931 . S
C726 C725 1.376 . S
C726 C727 1.396 . S
C727 C726 1.396 . S
C727 C728 1.348 . S
C727 C745 1.472 . S
C728 H698 0.929 . S
C728 C727 1.348 . S
C728 C729 1.443 . S
C729 H696 0.932 . S
C729 C724 1.388 . S
C729 C728 1.443 . S
C730 N710 1.433 . S
C730 C731 1.363 . S
C730 C735 1.370 . S
C731 H699 0.929 . S
C731 C730 1.363 . S
C731 C732 1.385 . S
C732 H700 0.930 . S
C732 C731 1.385 . S
C732 C733 1.357 . S
C733 C732 1.357 . S
C733 C734 1.406 . S
C734 H701 0.929 . S
C734 C733 1.406 . S
C734 C735 1.391 . S
C735 H702 0.931 . S
C735 C730 1.370 . S
C735 C734 1.391 . S
C736 N710 1.435 . S
C736 C737 1.358 . S
C736 C741 1.371 . S
C737 H703 0.930 . S
C737 C736 1.358 . S
C737 C738 1.405 . S
C738 H704 0.932 . S
C738 C737 1.405 . S
C738 C739 1.383 . S
C739 C738 1.383 . S
C739 C740 1.393 . S
C740 H705 0.931 . S
C740 C739 1.393 . S
C740 C741 1.382 . S
C741 H706 0.929 . S
C741 C736 1.371 . S
C741 C740 1.382 . S
C742 N710 1.423 . S
C742 C743 1.362 . S
C742 C747 1.388 . S
C743 H707 0.929 . S
C743 C742 1.362 . S
C743 C744 1.376 . S
C744 H708 0.931 . S
C744 C743 1.376 . S
C744 C745 1.396 . S
C745 C727 1.472 . S
C745 C744 1.396 . S
C745 C746 1.348 . S
C746 H709 0.929 . S
C746 C745 1.348 . S
C746 C747 1.443 . S
C747 H711 0.932 . S
C747 C742 1.388 . S
C747 C746 1.443 . S
H748 C775 0.929 . S
N749 C774 1.433 . S
N749 C780 1.435 . S
N749 C786 1.423 . S
H750 C776 0.930 . S
H751 C779 0.931 . S
H752 C778 0.929 . S
H753 C781 0.930 . S
H754 C782 0.932 . S
H755 C785 0.929 . S
H756 C784 0.931 . S
H757 C787 0.929 . S
H758 C791 0.932 . S
H759 C788 0.931 . S
H760 C790 0.929 . S
H761 C793 0.929 . S
H762 C794 0.930 . S
H763 C796 0.929 . S
H764 C797 0.931 . S
H765 C799 0.930 . S
H766 C800 0.932 . S
H767 C802 0.931 . S
H768 C803 0.929 . S
H769 C805 0.929 . S
H770 C806 0.931 . S
H771 C808 0.929 . S
N772 C792 1.433 . S
N772 C798 1.435 . S
N772 C804 1.423 . S
H773 C809 0.932 . S
C774 N749 1.433 . S
C774 C775 1.363 . S
C774 C779 1.370 . S
C775 H748 0.929 . S
C775 C774 1.363 . S
C775 C776 1.385 . S
C776 H750 0.930 . S
C776 C775 1.385 . S
C776 C777 1.357 . S
C777 C776 1.357 . S
C777 C778 1.406 . S
C778 H752 0.929 . S
C778 C777 1.406 . S
C778 C779 1.391 . S
C779 H751 0.931 . S
C779 C774 1.370 . S
C779 C778 1.391 . S
C780 N749 1.435 . S
C780 C781 1.358 . S
C780 C785 1.371 . S
C781 H753 0.930 . S
C781 C780 1.358 . S
C781 C782 1.405 . S
C782 H754 0.932 . S
C782 C781 1.405 . S
C782 C783 1.383 . S
C783 C782 1.383 . S
C783 C784 1.393 . S
C784 H756 0.931 . S
C784 C783 1.393 . S
C784 C785 1.382 . S
C785 H755 0.929 . S
C785 C780 1.371 . S
C785 C784 1.382 . S
C786 N749 1.423 . S
C786 C787 1.362 . S
C786 C791 1.388 . S
C787 H757 0.929 . S
C787 C786 1.362 . S
C787 C788 1.376 . S
C788 H759 0.931 . S
C788 C787 1.376 . S
C788 C789 1.396 . S
C789 C788 1.396 . S
C789 C790 1.348 . S
C789 C807 1.472 . S
C790 H760 0.929 . S
C790 C789 1.348 . S
C790 C791 1.443 . S
C791 H758 0.932 . S
C791 C786 1.388 . S
C791 C790 1.443 . S
C792 N772 1.433 . S
C792 C793 1.363 . S
C792 C797 1.370 . S
C793 H761 0.929 . S
C793 C792 1.363 . S
C793 C794 1.385 . S
C794 H762 0.930 . S
C794 C793 1.385 . S
C794 C795 1.357 . S
C795 C794 1.357 . S
C795 C796 1.406 . S
C796 H763 0.929 . S
C796 C795 1.406 . S
C796 C797 1.391 . S
C797 H764 0.931 . S
C797 C792 1.370 . S
C797 C796 1.391 . S
C798 N772 1.435 . S
C798 C799 1.358 . S
C798 C803 1.371 . S
C799 H765 0.930 . S
C799 C798 1.358 . S
C799 C800 1.405 . S
C800 H766 0.932 . S
C800 C799 1.405 . S
C800 C801 1.383 . S
C801 C800 1.383 . S
C801 C802 1.393 . S
C802 H767 0.931 . S
C802 C801 1.393 . S
C802 C803 1.382 . S
C803 H768 0.929 . S
C803 C798 1.371 . S
C803 C802 1.382 . S
C804 N772 1.423 . S
C804 C805 1.362 . S
C804 C809 1.388 . S
C805 H769 0.929 . S
C805 C804 1.362 . S
C805 C806 1.376 . S
C806 H770 0.931 . S
C806 C805 1.376 . S
C806 C807 1.396 . S
C807 C789 1.472 . S
C807 C806 1.396 . S
C807 C808 1.348 . S
C808 H771 0.929 . S
C808 C807 1.348 . S
C808 C809 1.443 . S
C809 H773 0.932 . S
C809 C804 1.388 . S
C809 C808 1.443 . S
H810 C837 0.929 . S
N811 C836 1.433 . S
N811 C842 1.435 . S
N811 C848 1.423 . S
H812 C838 0.930 . S
H813 C841 0.931 . S
H814 C840 0.929 . S
H815 C843 0.930 . S
H816 C844 0.932 . S
H817 C847 0.929 . S
H818 C846 0.931 . S
H819 C849 0.929 . S
H820 C853 0.932 1_655 S
H821 C850 0.931 . S
H822 C852 0.929 . S
H823 C855 0.929 . S
H824 C856 0.930 . S
H825 C858 0.929 . S
H826 C859 0.931 . S
H827 C861 0.930 . S
H828 C862 0.932 . S
H829 C864 0.931 . S
H830 C865 0.929 . S
H831 C867 0.929 . S
H832 C868 0.931 . S
H833 C870 0.929 . S
N834 C854 1.433 . S
N834 C860 1.435 . S
N834 C866 1.423 . S
H835 C871 0.932 1_655 S
C836 N811 1.433 . S
C836 C837 1.363 . S
C836 C841 1.370 1_455 S
C837 H810 0.929 . S
C837 C836 1.363 . S
C837 C838 1.385 . S
C838 H812 0.930 . S
C838 C837 1.385 . S
C838 C839 1.357 1_455 S
C839 C838 1.357 1_655 S
C839 C840 1.406 . S
C840 H814 0.929 . S
C840 C839 1.406 . S
C840 C841 1.391 . S
C841 H813 0.931 . S
C841 C836 1.370 1_655 S
C841 C840 1.391 . S
C842 N811 1.435 . S
C842 C843 1.358 1_455 S
C842 C847 1.371 . S
C843 H815 0.930 . S
C843 C842 1.358 1_655 S
C843 C844 1.405 . S
C844 H816 0.932 . S
C844 C843 1.405 . S
C844 C845 1.383 1_655 S
C845 C844 1.383 1_455 S
C845 C846 1.393 . S
C846 H818 0.931 . S
C846 C845 1.393 . S
C846 C847 1.382 . S
C847 H817 0.929 . S
C847 C842 1.371 . S
C847 C846 1.382 . S
C848 N811 1.423 . S
C848 C849 1.362 . S
C848 C853 1.388 . S
C849 H819 0.929 . S
C849 C848 1.362 . S
C849 C850 1.376 . S
C850 H821 0.931 . S
C850 C849 1.376 . S
C850 C851 1.396 . S
C851 C850 1.396 . S
C851 C852 1.348 . S
C851 C869 1.472 . S
C852 H822 0.929 . S
C852 C851 1.348 . S
C852 C853 1.443 . S
C853 H820 0.932 1_455 S
C853 C848 1.388 . S
C853 C852 1.443 . S
C854 N834 1.433 . S
C854 C855 1.363 . S
C854 C859 1.370 1_455 S
C855 H823 0.929 . S
C855 C854 1.363 . S
C855 C856 1.385 . S
C856 H824 0.930 . S
C856 C855 1.385 . S
C856 C857 1.357 1_455 S
C857 C856 1.357 1_655 S
C857 C858 1.406 . S
C858 H825 0.929 . S
C858 C857 1.406 . S
C858 C859 1.391 . S
C859 H826 0.931 . S
C859 C854 1.370 1_655 S
C859 C858 1.391 . S
C860 N834 1.435 . S
C860 C861 1.358 1_455 S
C860 C865 1.371 . S
C861 H827 0.930 . S
C861 C860 1.358 1_655 S
C861 C862 1.405 . S
C862 H828 0.932 . S
C862 C861 1.405 . S
C862 C863 1.383 1_655 S
C863 C862 1.383 1_455 S
C863 C864 1.393 . S
C864 H829 0.931 . S
C864 C863 1.393 . S
C864 C865 1.382 . S
C865 H830 0.929 . S
C865 C860 1.371 . S
C865 C864 1.382 . S
C866 N834 1.423 . S
C866 C867 1.362 . S
C866 C871 1.388 . S
C867 H831 0.929 . S
C867 C866 1.362 . S
C867 C868 1.376 . S
C868 H832 0.931 . S
C868 C867 1.376 . S
C868 C869 1.396 . S
C869 C851 1.472 . S
C869 C868 1.396 . S
C869 C870 1.348 . S
C870 H833 0.929 . S
C870 C869 1.348 . S
C870 C871 1.443 . S
C871 H835 0.932 1_455 S
C871 C866 1.388 . S
C871 C870 1.443 . S
H872 C899 0.929 . S
N873 C898 1.433 . S
N873 C904 1.435 . S
N873 C910 1.423 . S
H874 C900 0.930 . S
H875 C903 0.931 . S
H876 C902 0.929 . S
H877 C905 0.930 . S
H878 C906 0.932 . S
H879 C909 0.929 . S
H880 C908 0.931 . S
H881 C911 0.929 . S
H882 C915 0.932 . S
H883 C912 0.931 . S
H884 C914 0.929 . S
H885 C917 0.929 . S
H886 C918 0.930 . S
H887 C920 0.929 . S
H888 C921 0.931 . S
H889 C923 0.930 . S
H890 C924 0.932 . S
H891 C926 0.931 . S
H892 C927 0.929 . S
H893 C929 0.929 . S
H894 C930 0.931 . S
H895 C932 0.929 . S
N896 C916 1.433 . S
N896 C922 1.435 . S
N896 C928 1.423 . S
H897 C933 0.932 . S
C898 N873 1.433 . S
C898 C899 1.363 . S
C898 C903 1.370 . S
C899 H872 0.929 . S
C899 C898 1.363 . S
C899 C900 1.385 . S
C900 H874 0.930 . S
C900 C899 1.385 . S
C900 C901 1.357 . S
C901 C900 1.357 . S
C901 C902 1.406 . S
C902 H876 0.929 . S
C902 C901 1.406 . S
C902 C903 1.391 . S
C903 H875 0.931 . S
C903 C898 1.370 . S
C903 C902 1.391 . S
C904 N873 1.435 . S
C904 C905 1.358 . S
C904 C909 1.371 . S
C905 H877 0.930 . S
C905 C904 1.358 . S
C905 C906 1.405 . S
C906 H878 0.932 . S
C906 C905 1.405 . S
C906 C907 1.383 . S
C907 C906 1.383 . S
C907 C908 1.393 . S
C908 H880 0.931 . S
C908 C907 1.393 . S
C908 C909 1.382 . S
C909 H879 0.929 . S
C909 C904 1.371 . S
C909 C908 1.382 . S
C910 N873 1.423 . S
C910 C911 1.362 . S
C910 C915 1.388 . S
C911 H881 0.929 . S
C911 C910 1.362 . S
C911 C912 1.376 . S
C912 H883 0.931 . S
C912 C911 1.376 . S
C912 C913 1.396 . S
C913 C912 1.396 . S
C913 C914 1.348 . S
C913 C931 1.472 . S
C914 H884 0.929 . S
C914 C913 1.348 . S
C914 C915 1.443 . S
C915 H882 0.932 . S
C915 C910 1.388 . S
C915 C914 1.443 . S
C916 N896 1.433 . S
C916 C917 1.363 . S
C916 C921 1.370 . S
C917 H885 0.929 . S
C917 C916 1.363 . S
C917 C918 1.385 . S
C918 H886 0.930 . S
C918 C917 1.385 . S
C918 C919 1.357 . S
C919 C918 1.357 . S
C919 C920 1.406 . S
C920 H887 0.929 . S
C920 C919 1.406 . S
C920 C921 1.391 . S
C921 H888 0.931 . S
C921 C916 1.370 . S
C921 C920 1.391 . S
C922 N896 1.435 . S
C922 C923 1.358 . S
C922 C927 1.371 . S
C923 H889 0.930 . S
C923 C922 1.358 . S
C923 C924 1.405 . S
C924 H890 0.932 . S
C924 C923 1.405 . S
C924 C925 1.383 . S
C925 C924 1.383 . S
C925 C926 1.393 . S
C926 H891 0.931 . S
C926 C925 1.393 . S
C926 C927 1.382 . S
C927 H892 0.929 . S
C927 C922 1.371 . S
C927 C926 1.382 . S
C928 N896 1.423 . S
C928 C929 1.362 . S
C928 C933 1.388 . S
C929 H893 0.929 . S
C929 C928 1.362 . S
C929 C930 1.376 . S
C930 H894 0.931 . S
C930 C929 1.376 . S
C930 C931 1.396 . S
C931 C913 1.472 . S
C931 C930 1.396 . S
C931 C932 1.348 . S
C932 H895 0.929 . S
C932 C931 1.348 . S
C932 C933 1.443 . S
C933 H897 0.932 . S
C933 C928 1.388 . S
C933 C932 1.443 . S
H934 C961 0.929 . S
N935 C960 1.433 . S
N935 C966 1.435 . S
N935 C972 1.423 . S
H936 C962 0.930 . S
H937 C965 0.931 . S
H938 C964 0.929 . S
H939 C967 0.930 . S
H940 C968 0.932 . S
H941 C971 0.929 . S
H942 C970 0.931 . S
H943 C973 0.929 . S
H944 C977 0.932 1_545 S
H945 C974 0.931 . S
H946 C976 0.929 . S
H947 C979 0.929 . S
H948 C980 0.930 . S
H949 C982 0.929 . S
H950 C983 0.931 . S
H951 C985 0.930 . S
H952 C986 0.932 . S
H953 C988 0.931 . S
H954 C989 0.929 . S
H955 C991 0.929 . S
H956 C992 0.931 . S
H957 C994 0.929 . S
N958 C978 1.433 . S
N958 C984 1.435 . S
N958 C990 1.423 . S
H959 C995 0.932 1_545 S
C960 N935 1.433 . S
C960 C961 1.363 . S
C960 C965 1.370 1_565 S
C961 H934 0.929 . S
C961 C960 1.363 . S
C961 C962 1.385 . S
C962 H936 0.930 . S
C962 C961 1.385 . S
C962 C963 1.357 1_565 S
C963 C962 1.357 1_545 S
C963 C964 1.406 . S
C964 H938 0.929 . S
C964 C963 1.406 . S
C964 C965 1.391 . S
C965 H937 0.931 . S
C965 C960 1.370 1_545 S
C965 C964 1.391 . S
C966 N935 1.435 . S
C966 C967 1.358 1_565 S
C966 C971 1.371 . S
C967 H939 0.930 . S
C967 C966 1.358 1_545 S
C967 C968 1.405 . S
C968 H940 0.932 . S
C968 C967 1.405 . S
C968 C969 1.383 1_545 S
C969 C968 1.383 1_565 S
C969 C970 1.393 . S
C970 H942 0.931 . S
C970 C969 1.393 . S
C970 C971 1.382 . S
C971 H941 0.929 . S
C971 C966 1.371 . S
C971 C970 1.382 . S
C972 N935 1.423 . S
C972 C973 1.362 . S
C972 C977 1.388 . S
C973 H943 0.929 . S
C973 C972 1.362 . S
C973 C974 1.376 . S
C974 H945 0.931 . S
C974 C973 1.376 . S
C974 C975 1.396 . S
C975 C974 1.396 . S
C975 C976 1.348 . S
C975 C993 1.472 . S
C976 H946 0.929 . S
C976 C975 1.348 . S
C976 C977 1.443 . S
C977 H944 0.932 1_565 S
C977 C972 1.388 . S
C977 C976 1.443 . S
C978 N958 1.433 . S
C978 C979 1.363 . S
C978 C983 1.370 1_565 S
C979 H947 0.929 . S
C979 C978 1.363 . S
C979 C980 1.385 . S
C980 H948 0.930 . S
C980 C979 1.385 . S
C980 C981 1.357 1_565 S
C981 C980 1.357 1_545 S
C981 C982 1.406 . S
C982 H949 0.929 . S
C982 C981 1.406 . S
C982 C983 1.391 . S
C983 H950 0.931 . S
C983 C978 1.370 1_545 S
C983 C982 1.391 . S
C984 N958 1.435 . S
C984 C985 1.358 1_565 S
C984 C989 1.371 . S
C985 H951 0.930 . S
C985 C984 1.358 1_545 S
C985 C986 1.405 . S
C986 H952 0.932 . S
C986 C985 1.405 . S
C986 C987 1.383 1_545 S
C987 C986 1.383 1_565 S
C987 C988 1.393 . S
C988 H953 0.931 . S
C988 C987 1.393 . S
C988 C989 1.382 . S
C989 H954 0.929 . S
C989 C984 1.371 . S
C989 C988 1.382 . S
C990 N958 1.423 . S
C990 C991 1.362 . S
C990 C995 1.388 . S
C991 H955 0.929 . S
C991 C990 1.362 . S
C991 C992 1.376 . S
C992 H956 0.931 . S
C992 C991 1.376 . S
C992 C993 1.396 . S
C993 C975 1.472 . S
C993 C992 1.396 . S
C993 C994 1.348 . S
C994 H957 0.929 . S
C994 C993 1.348 . S
C994 C995 1.443 . S
C995 H959 0.932 1_565 S
C995 C990 1.388 . S
C995 C994 1.443 . S
H996 C1023 0.929 . S
N997 C1022 1.433 . S
N997 C1028 1.435 . S
N997 C1034 1.423 . S
H998 C1024 0.930 . S
H999 C1027 0.931 . S
H1000 C1026 0.929 . S
H1001 C1029 0.930 . S
H1002 C1030 0.932 . S
H1003 C1033 0.929 . S
H1004 C1032 0.931 . S
H1005 C1035 0.929 . S
H1006 C1039 0.932 . S
H1007 C1036 0.931 . S
H1008 C1038 0.924 1_545 S
H1009 C1041 0.929 . S
H1010 C1042 0.930 . S
H1011 C1044 0.943 . S
H1012 C1045 0.933 . S
H1013 C1047 0.930 . S
H1014 C1048 0.932 . S
H1015 C1050 0.931 . S
H1016 C1051 0.929 . S
H1017 C1053 0.929 . S
H1018 C1054 0.931 . S
H1019 C1056 0.884 1_545 S
N1020 C1040 1.433 . S
N1020 C1046 1.435 . S
N1020 C1052 1.423 . S
H1021 C1057 0.957 . S
C1022 N997 1.433 . S
C1022 C1023 1.363 . S
C1022 C1027 1.370 1_565 S
C1023 H996 0.929 . S
C1023 C1022 1.363 . S
C1023 C1024 1.385 . S
C1024 H998 0.930 . S
C1024 C1023 1.385 . S
C1024 C1025 1.357 . S
C1025 C1024 1.357 . S
C1025 C1026 1.406 1_565 S
C1026 H1000 0.929 . S
C1026 C1025 1.406 1_545 S
C1026 C1027 1.391 . S
C1027 H999 0.931 . S
C1027 C1022 1.370 1_545 S
C1027 C1026 1.391 . S
C1028 N997 1.435 . S
C1028 C1029 1.358 1_565 S
C1028 C1033 1.371 . S
C1029 H1001 0.930 . S
C1029 C1028 1.358 1_545 S
C1029 C1030 1.405 . S
C1030 H1002 0.932 . S
C1030 C1029 1.405 . S
C1030 C1031 1.383 . S
C1031 C1030 1.383 . S
C1031 C1032 1.393 1_545 S
C1032 H1004 0.931 . S
C1032 C1031 1.393 1_565 S
C1032 C1033 1.382 . S
C1033 H1003 0.929 . S
C1033 C1028 1.371 . S
C1033 C1032 1.382 . S
C1034 N997 1.423 . S
C1034 C1035 1.362 . S
C1034 C1039 1.388 1_565 S
C1035 H1005 0.929 . S
C1035 C1034 1.362 . S
C1035 C1036 1.376 . S
C1036 H1007 0.931 . S
C1036 C1035 1.376 . S
C1036 C1037 1.396 . S
C1037 C1036 1.396 . S
C1037 C1038 1.370 . S
C1037 C1055 1.472 . S
C1038 H1008 0.924 1_565 S
C1038 C1037 1.370 . S
C1038 C1039 1.426 1_565 S
C1039 H1006 0.932 . S
C1039 C1034 1.388 1_545 S
C1039 C1038 1.426 1_545 S
C1040 N1020 1.433 . S
C1040 C1041 1.363 . S
C1040 C1045 1.368 1_565 S
C1041 H1009 0.929 . S
C1041 C1040 1.363 . S
C1041 C1042 1.385 . S
C1042 H1010 0.930 . S
C1042 C1041 1.385 . S
C1042 C1043 1.357 . S
C1043 C1042 1.357 . S
C1043 C1044 1.390 1_565 S
C1044 H1011 0.943 . S
C1044 C1043 1.390 1_545 S
C1044 C1045 1.395 . S
C1045 H1012 0.933 . S
C1045 C1040 1.368 1_545 S
C1045 C1044 1.395 . S
C1046 N1020 1.435 . S
C1046 C1047 1.358 1_565 S
C1046 C1051 1.371 . S
C1047 H1013 0.930 . S
C1047 C1046 1.358 1_545 S
C1047 C1048 1.405 . S
C1048 H1014 0.932 . S
C1048 C1047 1.405 . S
C1048 C1049 1.383 . S
C1049 C1048 1.383 . S
C1049 C1050 1.393 1_545 S
C1050 H1015 0.931 . S
C1050 C1049 1.393 1_565 S
C1050 C1051 1.382 . S
C1051 H1016 0.929 . S
C1051 C1046 1.371 . S
C1051 C1050 1.382 . S
C1052 N1020 1.423 . S
C1052 C1053 1.362 . S
C1052 C1057 1.334 1_565 S
C1053 H1017 0.929 . S
C1053 C1052 1.362 . S
C1053 C1054 1.376 . S
C1054 H1018 0.931 . S
C1054 C1053 1.376 . S
C1054 C1055 1.396 . S
C1055 C1037 1.472 . S
C1055 C1054 1.396 . S
C1055 C1056 1.365 . S
C1056 H1019 0.884 1_565 S
C1056 C1055 1.365 . S
C1056 C1057 1.508 1_565 S
C1057 H1021 0.957 . S
C1057 C1052 1.334 1_545 S
C1057 C1056 1.508 1_545 S
H1058 C1085 0.929 . S
N1059 C1084 1.433 . S
N1059 C1090 1.435 . S
N1059 C1096 1.423 . S
H1060 C1086 0.930 . S
H1061 C1089 0.931 . S
H1062 C1088 0.929 . S
H1063 C1091 0.930 . S
H1064 C1092 0.932 . S
H1065 C1095 0.929 . S
H1066 C1094 0.931 . S
H1067 C1097 0.929 . S
H1068 C1101 0.932 1_455 S
H1069 C1098 0.931 . S
H1070 C1100 0.929 . S
H1071 C1103 0.929 . S
H1072 C1104 0.930 . S
H1073 C1106 0.929 . S
H1074 C1107 0.931 . S
H1075 C1109 0.930 . S
H1076 C1110 0.932 . S
H1077 C1112 0.931 . S
H1078 C1113 0.929 . S
H1079 C1115 0.929 . S
H1080 C1116 0.931 . S
H1081 C1118 0.929 . S
N1082 C1102 1.433 . S
N1082 C1108 1.435 . S
N1082 C1114 1.423 . S
H1083 C1119 0.932 1_455 S
C1084 N1059 1.433 . S
C1084 C1085 1.363 . S
C1084 C1089 1.370 1_655 S
C1085 H1058 0.929 . S
C1085 C1084 1.363 . S
C1085 C1086 1.385 . S
C1086 H1060 0.930 . S
C1086 C1085 1.385 . S
C1086 C1087 1.357 1_655 S
C1087 C1086 1.357 1_455 S
C1087 C1088 1.406 . S
C1088 H1062 0.929 . S
C1088 C1087 1.406 . S
C1088 C1089 1.391 . S
C1089 H1061 0.931 . S
C1089 C1084 1.370 1_455 S
C1089 C1088 1.391 . S
C1090 N1059 1.435 . S
C1090 C1091 1.358 1_655 S
C1090 C1095 1.371 . S
C1091 H1063 0.930 . S
C1091 C1090 1.358 1_455 S
C1091 C1092 1.405 . S
C1092 H1064 0.932 . S
C1092 C1091 1.405 . S
C1092 C1093 1.383 1_455 S
C1093 C1092 1.383 1_655 S
C1093 C1094 1.393 . S
C1094 H1066 0.931 . S
C1094 C1093 1.393 . S
C1094 C1095 1.382 . S
C1095 H1065 0.929 . S
C1095 C1090 1.371 . S
C1095 C1094 1.382 . S
C1096 N1059 1.423 . S
C1096 C1097 1.362 . S
C1096 C1101 1.388 . S
C1097 H1067 0.929 . S
C1097 C1096 1.362 . S
C1097 C1098 1.376 . S
C1098 H1069 0.931 . S
C1098 C1097 1.376 . S
C1098 C1099 1.396 . S
C1099 C1098 1.396 . S
C1099 C1100 1.348 . S
C1099 C1117 1.472 . S
C1100 H1070 0.929 . S
C1100 C1099 1.348 . S
C1100 C1101 1.443 . S
C1101 H1068 0.932 1_655 S
C1101 C1096 1.388 . S
C1101 C1100 1.443 . S
C1102 N1082 1.433 . S
C1102 C1103 1.363 . S
C1102 C1107 1.370 1_655 S
C1103 H1071 0.929 . S
C1103 C1102 1.363 . S
C1103 C1104 1.385 . S
C1104 H1072 0.930 . S
C1104 C1103 1.385 . S
C1104 C1105 1.357 1_655 S
C1105 C1104 1.357 1_455 S
C1105 C1106 1.406 . S
C1106 H1073 0.929 . S
C1106 C1105 1.406 . S
C1106 C1107 1.391 . S
C1107 H1074 0.931 . S
C1107 C1102 1.370 1_455 S
C1107 C1106 1.391 . S
C1108 N1082 1.435 . S
C1108 C1109 1.358 1_655 S
C1108 C1113 1.371 . S
C1109 H1075 0.930 . S
C1109 C1108 1.358 1_455 S
C1109 C1110 1.405 . S
C1110 H1076 0.932 . S
C1110 C1109 1.405 . S
C1110 C1111 1.383 1_455 S
C1111 C1110 1.383 1_655 S
C1111 C1112 1.393 . S
C1112 H1077 0.931 . S
C1112 C1111 1.393 . S
C1112 C1113 1.382 . S
C1113 H1078 0.929 . S
C1113 C1108 1.371 . S
C1113 C1112 1.382 . S
C1114 N1082 1.423 . S
C1114 C1115 1.362 . S
C1114 C1119 1.388 . S
C1115 H1079 0.929 . S
C1115 C1114 1.362 . S
C1115 C1116 1.376 . S
C1116 H1080 0.931 . S
C1116 C1115 1.376 . S
C1116 C1117 1.396 . S
C1117 C1099 1.472 . S
C1117 C1116 1.396 . S
C1117 C1118 1.348 . S
C1118 H1081 0.929 . S
C1118 C1117 1.348 . S
C1118 C1119 1.443 . S
C1119 H1083 0.932 1_655 S
C1119 C1114 1.388 . S
C1119 C1118 1.443 . S
H1120 C1147 0.929 . S
N1121 C1146 1.433 . S
N1121 C1152 1.435 . S
N1121 C1158 1.423 . S
H1122 C1148 0.930 . S
H1123 C1151 0.931 . S
H1124 C1150 0.929 . S
H1125 C1153 0.930 . S
H1126 C1154 0.932 . S
H1127 C1157 0.929 . S
H1128 C1156 0.931 . S
H1129 C1159 0.929 . S
H1130 C1163 0.932 . S
H1131 C1160 0.931 . S
H1132 C1162 0.929 . S
H1133 C1165 0.929 . S
H1134 C1166 0.930 . S
H1135 C1168 0.929 . S
H1136 C1169 0.931 . S
H1137 C1171 0.930 . S
H1138 C1172 0.932 . S
H1139 C1174 0.931 . S
H1140 C1175 0.929 . S
H1141 C1177 0.929 . S
H1142 C1178 0.931 . S
H1143 C1180 0.929 . S
N1144 C1164 1.433 . S
N1144 C1170 1.435 . S
N1144 C1176 1.423 . S
H1145 C1181 0.932 . S
C1146 N1121 1.433 . S
C1146 C1147 1.363 . S
C1146 C1151 1.370 . S
C1147 H1120 0.929 . S
C1147 C1146 1.363 . S
C1147 C1148 1.385 . S
C1148 H1122 0.930 . S
C1148 C1147 1.385 . S
C1148 C1149 1.357 . S
C1149 C1148 1.357 . S
C1149 C1150 1.406 . S
C1150 H1124 0.929 . S
C1150 C1149 1.406 . S
C1150 C1151 1.391 . S
C1151 H1123 0.931 . S
C1151 C1146 1.370 . S
C1151 C1150 1.391 . S
C1152 N1121 1.435 . S
C1152 C1153 1.358 . S
C1152 C1157 1.371 . S
C1153 H1125 0.930 . S
C1153 C1152 1.358 . S
C1153 C1154 1.405 . S
C1154 H1126 0.932 . S
C1154 C1153 1.405 . S
C1154 C1155 1.383 . S
C1155 C1154 1.383 . S
C1155 C1156 1.393 . S
C1156 H1128 0.931 . S
C1156 C1155 1.393 . S
C1156 C1157 1.382 . S
C1157 H1127 0.929 . S
C1157 C1152 1.371 . S
C1157 C1156 1.382 . S
C1158 N1121 1.423 . S
C1158 C1159 1.362 . S
C1158 C1163 1.388 . S
C1159 H1129 0.929 . S
C1159 C1158 1.362 . S
C1159 C1160 1.376 . S
C1160 H1131 0.931 . S
C1160 C1159 1.376 . S
C1160 C1161 1.396 . S
C1161 C1160 1.396 . S
C1161 C1162 1.348 . S
C1161 C1179 1.472 . S
C1162 H1132 0.929 . S
C1162 C1161 1.348 . S
C1162 C1163 1.443 . S
C1163 H1130 0.932 . S
C1163 C1158 1.388 . S
C1163 C1162 1.443 . S
C1164 N1144 1.433 . S
C1164 C1165 1.363 . S
C1164 C1169 1.370 . S
C1165 H1133 0.929 . S
C1165 C1164 1.363 . S
C1165 C1166 1.385 . S
C1166 H1134 0.930 . S
C1166 C1165 1.385 . S
C1166 C1167 1.357 . S
C1167 C1166 1.357 . S
C1167 C1168 1.406 . S
C1168 H1135 0.929 . S
C1168 C1167 1.406 . S
C1168 C1169 1.391 . S
C1169 H1136 0.931 . S
C1169 C1164 1.370 . S
C1169 C1168 1.391 . S
C1170 N1144 1.435 . S
C1170 C1171 1.358 . S
C1170 C1175 1.371 . S
C1171 H1137 0.930 . S
C1171 C1170 1.358 . S
C1171 C1172 1.405 . S
C1172 H1138 0.932 . S
C1172 C1171 1.405 . S
C1172 C1173 1.383 . S
C1173 C1172 1.383 . S
C1173 C1174 1.393 . S
C1174 H1139 0.931 . S
C1174 C1173 1.393 . S
C1174 C1175 1.382 . S
C1175 H1140 0.929 . S
C1175 C1170 1.371 . S
C1175 C1174 1.382 . S
C1176 N1144 1.423 . S
C1176 C1177 1.362 . S
C1176 C1181 1.388 . S
C1177 H1141 0.929 . S
C1177 C1176 1.362 . S
C1177 C1178 1.376 . S
C1178 H1142 0.931 . S
C1178 C1177 1.376 . S
C1178 C1179 1.396 . S
C1179 C1161 1.472 . S
C1179 C1178 1.396 . S
C1179 C1180 1.348 . S
C1180 H1143 0.929 . S
C1180 C1179 1.348 . S
C1180 C1181 1.443 . S
C1181 H1145 0.932 . S
C1181 C1176 1.388 . S
C1181 C1180 1.443 . S
H1182 C1209 0.929 . S
N1183 C1208 1.433 . S
N1183 C1214 1.435 . S
N1183 C1220 1.423 . S
H1184 C1210 0.930 . S
H1185 C1213 0.931 . S
H1186 C1212 0.929 . S
H1187 C1215 0.930 . S
H1188 C1216 0.932 . S
H1189 C1219 0.929 . S
H1190 C1218 0.931 . S
H1191 C1221 0.929 . S
H1192 C1225 0.932 . S
H1193 C1222 0.931 . S
H1194 C1224 0.929 . S
H1195 C1227 0.929 . S
H1196 C1228 0.930 . S
H1197 C1230 0.929 . S
H1198 C1231 0.931 . S
H1199 C1233 0.930 . S
H1200 C1234 0.932 . S
H1201 C1236 0.931 . S
H1202 C1237 0.929 . S
H1203 C1239 0.929 . S
H1204 C1240 0.931 . S
H1205 C1242 0.929 . S
N1206 C1226 1.433 . S
N1206 C1232 1.435 . S
N1206 C1238 1.423 . S
H1207 C1243 0.932 . S
C1208 N1183 1.433 . S
C1208 C1209 1.363 . S
C1208 C1213 1.370 . S
C1209 H1182 0.929 . S
C1209 C1208 1.363 . S
C1209 C1210 1.385 . S
C1210 H1184 0.930 . S
C1210 C1209 1.385 . S
C1210 C1211 1.357 . S
C1211 C1210 1.357 . S
C1211 C1212 1.406 . S
C1212 H1186 0.929 . S
C1212 C1211 1.406 . S
C1212 C1213 1.391 . S
C1213 H1185 0.931 . S
C1213 C1208 1.370 . S
C1213 C1212 1.391 . S
C1214 N1183 1.435 . S
C1214 C1215 1.358 . S
C1214 C1219 1.371 . S
C1215 H1187 0.930 . S
C1215 C1214 1.358 . S
C1215 C1216 1.405 . S
C1216 H1188 0.932 . S
C1216 C1215 1.405 . S
C1216 C1217 1.383 . S
C1217 C1216 1.383 . S
C1217 C1218 1.393 . S
C1218 H1190 0.931 . S
C1218 C1217 1.393 . S
C1218 C1219 1.382 . S
C1219 H1189 0.929 . S
C1219 C1214 1.371 . S
C1219 C1218 1.382 . S
C1220 N1183 1.423 . S
C1220 C1221 1.362 . S
C1220 C1225 1.388 . S
C1221 H1191 0.929 . S
C1221 C1220 1.362 . S
C1221 C1222 1.376 . S
C1222 H1193 0.931 . S
C1222 C1221 1.376 . S
C1222 C1223 1.396 . S
C1223 C1222 1.396 . S
C1223 C1224 1.348 . S
C1223 C1241 1.472 . S
C1224 H1194 0.929 . S
C1224 C1223 1.348 . S
C1224 C1225 1.443 . S
C1225 H1192 0.932 . S
C1225 C1220 1.388 . S
C1225 C1224 1.443 . S
C1226 N1206 1.433 . S
C1226 C1227 1.363 . S
C1226 C1231 1.370 . S
C1227 H1195 0.929 . S
C1227 C1226 1.363 . S
C1227 C1228 1.385 . S
C1228 H1196 0.930 . S
C1228 C1227 1.385 . S
C1228 C1229 1.357 . S
C1229 C1228 1.357 . S
C1229 C1230 1.406 . S
C1230 H1197 0.929 . S
C1230 C1229 1.406 . S
C1230 C1231 1.391 . S
C1231 H1198 0.931 . S
C1231 C1226 1.370 . S
C1231 C1230 1.391 . S
C1232 N1206 1.435 . S
C1232 C1233 1.358 . S
C1232 C1237 1.371 . S
C1233 H1199 0.930 . S
C1233 C1232 1.358 . S
C1233 C1234 1.405 . S
C1234 H1200 0.932 . S
C1234 C1233 1.405 . S
C1234 C1235 1.383 . S
C1235 C1234 1.383 . S
C1235 C1236 1.393 . S
C1236 H1201 0.931 . S
C1236 C1235 1.393 . S
C1236 C1237 1.382 . S
C1237 H1202 0.929 . S
C1237 C1232 1.371 . S
C1237 C1236 1.382 . S
C1238 N1206 1.423 . S
C1238 C1239 1.362 . S
C1238 C1243 1.388 . S
C1239 H1203 0.929 . S
C1239 C1238 1.362 . S
C1239 C1240 1.376 . S
C1240 H1204 0.931 . S
C1240 C1239 1.376 . S
C1240 C1241 1.396 . S
C1241 C1223 1.472 . S
C1241 C1240 1.396 . S
C1241 C1242 1.348 . S
C1242 H1205 0.929 . S
C1242 C1241 1.348 . S
C1242 C1243 1.443 . S
C1243 H1207 0.932 . S
C1243 C1238 1.388 . S
C1243 C1242 1.443 . S
H1244 C1271 0.929 . S
N1245 C1270 1.433 . S
N1245 C1276 1.435 . S
N1245 C1282 1.423 . S
H1246 C1272 0.930 . S
H1247 C1275 0.931 . S
H1248 C1274 0.929 . S
H1249 C1277 0.930 . S
H1250 C1278 0.932 . S
H1251 C1281 0.929 . S
H1252 C1280 0.931 . S
H1253 C1283 0.929 . S
H1254 C1287 0.932 . S
H1255 C1284 0.931 . S
H1256 C1286 0.929 . S
H1257 C1289 0.929 . S
H1258 C1290 0.930 . S
H1259 C1292 0.929 . S
H1260 C1293 0.931 . S
H1261 C1295 0.930 . S
H1262 C1296 0.932 . S
H1263 C1298 0.931 . S
H1264 C1299 0.929 . S
H1265 C1301 0.929 . S
H1266 C1302 0.931 . S
H1267 C1304 0.929 . S
N1268 C1288 1.433 . S
N1268 C1294 1.435 . S
N1268 C1300 1.423 . S
H1269 C1305 0.932 . S
C1270 N1245 1.433 . S
C1270 C1271 1.363 . S
C1270 C1275 1.370 . S
C1271 H1244 0.929 . S
C1271 C1270 1.363 . S
C1271 C1272 1.385 . S
C1272 H1246 0.930 . S
C1272 C1271 1.385 . S
C1272 C1273 1.357 . S
C1273 C1272 1.357 . S
C1273 C1274 1.406 . S
C1274 H1248 0.929 . S
C1274 C1273 1.406 . S
C1274 C1275 1.391 . S
C1275 H1247 0.931 . S
C1275 C1270 1.370 . S
C1275 C1274 1.391 . S
C1276 N1245 1.435 . S
C1276 C1277 1.358 . S
C1276 C1281 1.371 . S
C1277 H1249 0.930 . S
C1277 C1276 1.358 . S
C1277 C1278 1.405 . S
C1278 H1250 0.932 . S
C1278 C1277 1.405 . S
C1278 C1279 1.383 . S
C1279 C1278 1.383 . S
C1279 C1280 1.393 . S
C1280 H1252 0.931 . S
C1280 C1279 1.393 . S
C1280 C1281 1.382 . S
C1281 H1251 0.929 . S
C1281 C1276 1.371 . S
C1281 C1280 1.382 . S
C1282 N1245 1.423 . S
C1282 C1283 1.362 . S
C1282 C1287 1.388 . S
C1283 H1253 0.929 . S
C1283 C1282 1.362 . S
C1283 C1284 1.376 . S
C1284 H1255 0.931 . S
C1284 C1283 1.376 . S
C1284 C1285 1.396 . S
C1285 C1284 1.396 . S
C1285 C1286 1.348 . S
C1285 C1303 1.472 . S
C1286 H1256 0.929 . S
C1286 C1285 1.348 . S
C1286 C1287 1.443 . S
C1287 H1254 0.932 . S
C1287 C1282 1.388 . S
C1287 C1286 1.443 . S
C1288 N1268 1.433 . S
C1288 C1289 1.363 . S
C1288 C1293 1.370 . S
C1289 H1257 0.929 . S
C1289 C1288 1.363 . S
C1289 C1290 1.385 . S
C1290 H1258 0.930 . S
C1290 C1289 1.385 . S
C1290 C1291 1.357 . S
C1291 C1290 1.357 . S
C1291 C1292 1.406 . S
C1292 H1259 0.929 . S
C1292 C1291 1.406 . S
C1292 C1293 1.391 . S
C1293 H1260 0.931 . S
C1293 C1288 1.370 . S
C1293 C1292 1.391 . S
C1294 N1268 1.435 . S
C1294 C1295 1.358 . S
C1294 C1299 1.371 . S
C1295 H1261 0.930 . S
C1295 C1294 1.358 . S
C1295 C1296 1.405 . S
C1296 H1262 0.932 . S
C1296 C1295 1.405 . S
C1296 C1297 1.383 . S
C1297 C1296 1.383 . S
C1297 C1298 1.393 . S
C1298 H1263 0.931 . S
C1298 C1297 1.393 . S
C1298 C1299 1.382 . S
C1299 H1264 0.929 . S
C1299 C1294 1.371 . S
C1299 C1298 1.382 . S
C1300 N1268 1.423 . S
C1300 C1301 1.362 . S
C1300 C1305 1.388 . S
C1301 H1265 0.929 . S
C1301 C1300 1.362 . S
C1301 C1302 1.376 . S
C1302 H1266 0.931 . S
C1302 C1301 1.376 . S
C1302 C1303 1.396 . S
C1303 C1285 1.472 . S
C1303 C1302 1.396 . S
C1303 C1304 1.348 . S
C1304 H1267 0.929 . S
C1304 C1303 1.348 . S
C1304 C1305 1.443 . S
C1305 H1269 0.932 . S
C1305 C1300 1.388 . S
C1305 C1304 1.443 . S
H1306 C1333 0.929 . S
N1307 C1332 1.433 . S
N1307 C1338 1.435 . S
N1307 C1344 1.423 . S
H1308 C1334 0.930 . S
H1309 C1337 0.931 . S
H1310 C1336 0.929 . S
H1311 C1339 0.930 . S
H1312 C1340 0.932 . S
H1313 C1343 0.929 . S
H1314 C1342 0.931 . S
H1315 C1345 0.929 . S
H1316 C1349 0.932 . S
H1317 C1346 0.931 . S
H1318 C1348 0.929 . S
H1319 C1351 0.929 . S
H1320 C1352 0.930 . S
H1321 C1354 0.929 . S
H1322 C1355 0.931 . S
H1323 C1357 0.930 . S
H1324 C1358 0.932 . S
H1325 C1360 0.931 . S
H1326 C1361 0.929 . S
H1327 C1363 0.929 . S
H1328 C1364 0.931 . S
H1329 C1366 0.929 . S
N1330 C1350 1.433 . S
N1330 C1356 1.435 . S
N1330 C1362 1.423 . S
H1331 C1367 0.932 . S
C1332 N1307 1.433 . S
C1332 C1333 1.363 . S
C1332 C1337 1.370 . S
C1333 H1306 0.929 . S
C1333 C1332 1.363 . S
C1333 C1334 1.385 . S
C1334 H1308 0.930 . S
C1334 C1333 1.385 . S
C1334 C1335 1.357 . S
C1335 C1334 1.357 . S
C1335 C1336 1.406 . S
C1336 H1310 0.929 . S
C1336 C1335 1.406 . S
C1336 C1337 1.391 . S
C1337 H1309 0.931 . S
C1337 C1332 1.370 . S
C1337 C1336 1.391 . S
C1338 N1307 1.435 . S
C1338 C1339 1.358 . S
C1338 C1343 1.371 . S
C1339 H1311 0.930 . S
C1339 C1338 1.358 . S
C1339 C1340 1.405 . S
C1340 H1312 0.932 . S
C1340 C1339 1.405 . S
C1340 C1341 1.383 . S
C1341 C1340 1.383 . S
C1341 C1342 1.393 . S
C1342 H1314 0.931 . S
C1342 C1341 1.393 . S
C1342 C1343 1.382 . S
C1343 H1313 0.929 . S
C1343 C1338 1.371 . S
C1343 C1342 1.382 . S
C1344 N1307 1.423 . S
C1344 C1345 1.362 . S
C1344 C1349 1.388 . S
C1345 H1315 0.929 . S
C1345 C1344 1.362 . S
C1345 C1346 1.376 . S
C1346 H1317 0.931 . S
C1346 C1345 1.376 . S
C1346 C1347 1.396 . S
C1347 C1346 1.396 . S
C1347 C1348 1.348 . S
C1347 C1365 1.472 . S
C1348 H1318 0.929 . S
C1348 C1347 1.348 . S
C1348 C1349 1.443 . S
C1349 H1316 0.932 . S
C1349 C1344 1.388 . S
C1349 C1348 1.443 . S
C1350 N1330 1.433 . S
C1350 C1351 1.363 . S
C1350 C1355 1.370 . S
C1351 H1319 0.929 . S
C1351 C1350 1.363 . S
C1351 C1352 1.385 . S
C1352 H1320 0.930 . S
C1352 C1351 1.385 . S
C1352 C1353 1.357 . S
C1353 C1352 1.357 . S
C1353 C1354 1.406 . S
C1354 H1321 0.929 . S
C1354 C1353 1.406 . S
C1354 C1355 1.391 . S
C1355 H1322 0.931 . S
C1355 C1350 1.370 . S
C1355 C1354 1.391 . S
C1356 N1330 1.435 . S
C1356 C1357 1.358 . S
C1356 C1361 1.371 . S
C1357 H1323 0.930 . S
C1357 C1356 1.358 . S
C1357 C1358 1.405 . S
C1358 H1324 0.932 . S
C1358 C1357 1.405 . S
C1358 C1359 1.383 . S
C1359 C1358 1.383 . S
C1359 C1360 1.393 . S
C1360 H1325 0.931 . S
C1360 C1359 1.393 . S
C1360 C1361 1.382 . S
C1361 H1326 0.929 . S
C1361 C1356 1.371 . S
C1361 C1360 1.382 . S
C1362 N1330 1.423 . S
C1362 C1363 1.362 . S
C1362 C1367 1.388 . S
C1363 H1327 0.929 . S
C1363 C1362 1.362 . S
C1363 C1364 1.376 . S
C1364 H1328 0.931 . S
C1364 C1363 1.376 . S
C1364 C1365 1.396 . S
C1365 C1347 1.472 . S
C1365 C1364 1.396 . S
C1365 C1366 1.348 . S
C1366 H1329 0.929 . S
C1366 C1365 1.348 . S
C1366 C1367 1.443 . S
C1367 H1331 0.932 . S
C1367 C1362 1.388 . S
C1367 C1366 1.443 . S
C1368 C1369 1.387 1_455 S
C1368 H1372 0.950 . S
C1368 C1377 1.390 . S
C1369 C1368 1.387 1_655 S
C1369 C1371 1.387 . S
H1370 C1377 0.950 . S
C1371 C1369 1.387 . S
C1371 C1373 1.390 . S
C1371 H1375 0.950 . S
H1372 C1368 0.950 . S
C1373 C1371 1.390 . S
C1373 C1374 1.387 . S
C1373 H1376 0.950 . S
C1374 C1373 1.387 . S
C1374 C1377 1.387 1_655 S
H1375 C1371 0.950 . S
H1376 C1373 0.950 . S
C1377 C1368 1.390 . S
C1377 H1370 0.950 . S
C1377 C1374 1.387 1_455 S
C1378 C1379 1.387 . S
C1378 H1382 0.950 . S
C1378 C1387 1.390 . S
C1379 C1378 1.387 . S
C1379 C1381 1.387 . S
H1380 C1387 0.950 . S
C1381 C1379 1.387 . S
C1381 C1383 1.390 . S
C1381 H1385 0.950 . S
H1382 C1378 0.950 . S
C1383 C1381 1.390 . S
C1383 C1384 1.387 . S
C1383 H1386 0.950 . S
C1384 C1383 1.387 . S
C1384 C1387 1.387 . S
H1385 C1381 0.950 . S
H1386 C1383 0.950 . S
C1387 C1378 1.390 . S
C1387 H1380 0.950 . S
C1387 C1384 1.387 . S
C1388 C1389 1.387 1_565 S
C1388 H1392 0.950 . S
C1388 C1397 1.390 . S
C1389 C1388 1.387 1_545 S
C1389 C1391 1.387 . S
H1390 C1397 0.950 . S
C1391 C1389 1.387 . S
C1391 C1393 1.390 . S
C1391 H1395 0.950 . S
H1392 C1388 0.950 . S
C1393 C1391 1.390 . S
C1393 C1394 1.387 . S
C1393 H1396 0.950 . S
C1394 C1393 1.387 . S
C1394 C1397 1.387 1_545 S
H1395 C1391 0.950 . S
H1396 C1393 0.950 . S
C1397 C1388 1.390 . S
C1397 H1390 0.950 . S
C1397 C1394 1.387 1_565 S
C1398 C1399 1.387 . S
C1398 H1402 0.950 . S
C1398 C1407 1.390 . S
C1399 C1398 1.387 . S
C1399 C1401 1.387 1_565 S
H1400 C1407 0.950 . S
C1401 C1399 1.387 1_545 S
C1401 C1403 1.390 . S
C1401 H1405 0.950 . S
H1402 C1398 0.950 . S
C1403 C1401 1.390 . S
C1403 C1404 1.387 1_545 S
C1403 H1406 0.950 . S
C1404 C1403 1.387 1_565 S
C1404 C1407 1.387 . S
H1405 C1401 0.950 . S
H1406 C1403 0.950 . S
C1407 C1398 1.390 . S
C1407 H1400 0.950 . S
C1407 C1404 1.387 . S
C1408 C1409 1.387 . S
C1408 H1412 0.950 . S
C1408 C1417 1.390 . S
C1409 C1408 1.387 . S
C1409 C1411 1.387 . S
H1410 C1417 0.950 . S
C1411 C1409 1.387 . S
C1411 C1413 1.390 . S
C1411 H1415 0.950 . S
H1412 C1408 0.950 . S
C1413 C1411 1.390 . S
C1413 C1414 1.387 . S
C1413 H1416 0.950 . S
C1414 C1413 1.387 . S
C1414 C1417 1.387 . S
H1415 C1411 0.950 . S
H1416 C1413 0.950 . S
C1417 C1408 1.390 . S
C1417 H1410 0.950 . S
C1417 C1414 1.387 . S
C1418 C1419 1.387 . S
C1418 H1422 0.950 . S
C1418 C1427 1.390 . S
C1419 C1418 1.387 . S
C1419 C1421 1.387 . S
H1420 C1427 0.950 . S
C1421 C1419 1.387 . S
C1421 C1423 1.390 . S
C1421 H1425 0.950 . S
H1422 C1418 0.950 . S
C1423 C1421 1.390 . S
C1423 C1424 1.387 . S
C1423 H1426 0.950 . S
C1424 C1423 1.387 . S
C1424 C1427 1.387 . S
H1425 C1421 0.950 . S
H1426 C1423 0.950 . S
C1427 C1418 1.390 . S
C1427 H1420 0.950 . S
C1427 C1424 1.387 . S
C1428 C1429 1.387 . S
C1428 H1432 0.950 . S
C1428 C1437 1.390 . S
C1429 C1428 1.387 . S
C1429 C1431 1.387 . S
H1430 C1437 0.950 . S
C1431 C1429 1.387 . S
C1431 C1433 1.390 . S
C1431 H1435 0.950 . S
H1432 C1428 0.950 . S
C1433 C1431 1.390 . S
C1433 C1434 1.387 . S
C1433 H1436 0.950 . S
C1434 C1433 1.387 . S
C1434 C1437 1.387 . S
H1435 C1431 0.950 . S
H1436 C1433 0.950 . S
C1437 C1428 1.390 . S
C1437 H1430 0.950 . S
C1437 C1434 1.387 . S
C1438 C1439 1.387 . S
C1438 H1442 0.950 . S
C1438 C1447 1.390 . S
C1439 C1438 1.387 . S
C1439 C1441 1.387 . S
H1440 C1447 0.950 . S
C1441 C1439 1.387 . S
C1441 C1443 1.390 . S
C1441 H1445 0.950 . S
H1442 C1438 0.950 . S
C1443 C1441 1.390 . S
C1443 C1444 1.387 . S
C1443 H1446 0.950 . S
C1444 C1443 1.387 . S
C1444 C1447 1.387 . S
H1445 C1441 0.950 . S
H1446 C1443 0.950 . S
C1447 C1438 1.390 . S
C1447 H1440 0.950 . S
C1447 C1444 1.387 . S
C1448 C1449 1.387 . S
C1448 H1452 0.950 . S
C1448 C1457 1.390 . S
C1449 C1448 1.387 . S
C1449 C1451 1.387 1_565 S
H1450 C1457 0.950 . S
C1451 C1449 1.387 1_545 S
C1451 C1453 1.390 . S
C1451 H1455 0.950 . S
H1452 C1448 0.950 . S
C1453 C1451 1.390 . S
C1453 C1454 1.387 1_545 S
C1453 H1456 0.950 . S
C1454 C1453 1.387 1_565 S
C1454 C1457 1.387 . S
H1455 C1451 0.950 . S
H1456 C1453 0.950 . S
C1457 C1448 1.390 . S
C1457 H1450 0.950 . S
C1457 C1454 1.387 . S
C1458 C1459 1.387 1_565 S
C1458 H1462 0.950 . S
C1458 C1467 1.390 . S
C1459 C1458 1.387 1_545 S
C1459 C1461 1.387 . S
H1460 C1467 0.950 . S
C1461 C1459 1.387 . S
C1461 C1463 1.390 . S
C1461 H1465 0.950 . S
H1462 C1458 0.950 . S
C1463 C1461 1.390 . S
C1463 C1464 1.387 . S
C1463 H1466 0.950 . S
C1464 C1463 1.387 . S
C1464 C1467 1.387 1_545 S
H1465 C1461 0.950 . S
H1466 C1463 0.950 . S
C1467 C1458 1.390 . S
C1467 H1460 0.950 . S
C1467 C1464 1.387 1_565 S
C1468 C1469 1.387 . S
C1468 H1472 0.950 . S
C1468 C1477 1.390 . S
C1469 C1468 1.387 . S
C1469 C1471 1.387 . S
H1470 C1477 0.950 . S
C1471 C1469 1.387 . S
C1471 C1473 1.390 . S
C1471 H1475 0.950 1_655 S
H1472 C1468 0.950 . S
C1473 C1471 1.390 . S
C1473 C1474 1.387 . S
C1473 H1476 0.950 1_655 S
C1474 C1473 1.387 . S
C1474 C1477 1.387 . S
H1475 C1471 0.950 1_455 S
H1476 C1473 0.950 1_455 S
C1477 C1468 1.390 . S
C1477 H1470 0.950 . S
C1477 C1474 1.387 . S
C1478 C1479 1.387 . S
C1478 H1482 0.950 . S
C1478 C1487 1.390 . S
C1479 C1478 1.387 . S
C1479 C1481 1.387 . S
H1480 C1487 0.950 . S
C1481 C1479 1.387 . S
C1481 C1483 1.390 . S
C1481 H1485 0.950 . S
H1482 C1478 0.950 . S
C1483 C1481 1.390 . S
C1483 C1484 1.387 . S
C1483 H1486 0.950 . S
C1484 C1483 1.387 . S
C1484 C1487 1.387 . S
H1485 C1481 0.950 . S
H1486 C1483 0.950 . S
C1487 C1478 1.390 . S
C1487 H1480 0.950 . S
C1487 C1484 1.387 . S
C1488 C1489 1.387 . S
C1488 H1492 0.950 . S
C1488 C1497 1.390 . S
C1489 C1488 1.387 . S
C1489 C1491 1.387 . S
H1490 C1497 0.950 . S
C1491 C1489 1.387 . S
C1491 C1493 1.390 . S
C1491 H1495 0.950 . S
H1492 C1488 0.950 . S
C1493 C1491 1.390 . S
C1493 C1494 1.387 . S
C1493 H1496 0.950 . S
C1494 C1493 1.387 . S
C1494 C1497 1.387 . S
H1495 C1491 0.950 . S
H1496 C1493 0.950 . S
C1497 C1488 1.390 . S
C1497 H1490 0.950 . S
C1497 C1494 1.387 . S
C1498 C1499 1.387 . S
C1498 H1502 0.950 . S
C1498 C1507 1.390 . S
C1499 C1498 1.387 . S
C1499 C1501 1.387 . S
H1500 C1507 0.950 . S
C1501 C1499 1.387 . S
C1501 C1503 1.390 . S
C1501 H1505 0.950 . S
H1502 C1498 0.950 . S
C1503 C1501 1.390 . S
C1503 C1504 1.387 . S
C1503 H1506 0.950 . S
C1504 C1503 1.387 . S
C1504 C1507 1.387 . S
H1505 C1501 0.950 . S
H1506 C1503 0.950 . S
C1507 C1498 1.390 . S
C1507 H1500 0.950 . S
C1507 C1504 1.387 . S
C1508 C1509 1.387 . S
C1508 H1512 0.950 . S
C1508 C1517 1.390 . S
C1509 C1508 1.387 . S
C1509 C1511 1.387 . S
H1510 C1517 0.950 . S
C1511 C1509 1.387 . S
C1511 C1513 1.390 . S
C1511 H1515 0.950 . S
H1512 C1508 0.950 . S
C1513 C1511 1.390 . S
C1513 C1514 1.387 . S
C1513 H1516 0.950 . S
C1514 C1513 1.387 . S
C1514 C1517 1.387 . S
H1515 C1511 0.950 . S
H1516 C1513 0.950 . S
C1517 C1508 1.390 . S
C1517 H1510 0.950 . S
C1517 C1514 1.387 . S
C1518 C1519 1.387 . S
C1518 H1522 0.950 . S
C1518 C1527 1.390 . S
C1519 C1518 1.387 . S
C1519 C1521 1.387 . S
H1520 C1527 0.950 . S
C1521 C1519 1.387 . S
C1521 C1523 1.390 . S
C1521 H1525 0.950 . S
H1522 C1518 0.950 . S
C1523 C1521 1.390 . S
C1523 C1524 1.387 . S
C1523 H1526 0.950 . S
C1524 C1523 1.387 . S
C1524 C1527 1.387 . S
H1525 C1521 0.950 . S
H1526 C1523 0.950 . S
C1527 C1518 1.390 . S
C1527 H1520 0.950 . S
C1527 C1524 1.387 . S
C1528 C1529 1.387 . S
C1528 H1532 0.950 . S
C1528 C1537 1.390 . S
C1529 C1528 1.387 . S
C1529 C1531 1.387 . S
H1530 C1537 0.950 . S
C1531 C1529 1.387 . S
C1531 C1533 1.390 . S
C1531 H1535 0.950 . S
H1532 C1528 0.950 . S
C1533 C1531 1.390 . S
C1533 C1534 1.387 . S
C1533 H1536 0.950 . S
C1534 C1533 1.387 . S
C1534 C1537 1.387 . S
H1535 C1531 0.950 . S
H1536 C1533 0.950 . S
C1537 C1528 1.390 . S
C1537 H1530 0.950 . S
C1537 C1534 1.387 . S
C1538 C1539 1.387 . S
C1538 H1542 0.950 . S
C1538 C1547 1.390 . S
C1539 C1538 1.387 . S
C1539 C1541 1.387 . S
H1540 C1547 0.950 . S
C1541 C1539 1.387 . S
C1541 C1543 1.390 . S
C1541 H1545 0.950 . S
H1542 C1538 0.950 . S
C1543 C1541 1.390 . S
C1543 C1544 1.387 . S
C1543 H1546 0.950 . S
C1544 C1543 1.387 . S
C1544 C1547 1.387 . S
H1545 C1541 0.950 . S
H1546 C1543 0.950 . S
C1547 C1538 1.390 . S
C1547 H1540 0.950 . S
C1547 C1544 1.387 . S
C1548 C1549 1.387 . S
C1548 H1552 0.950 . S
C1548 C1557 1.390 . S
C1549 C1548 1.387 . S
C1549 C1551 1.387 . S
H1550 C1557 0.950 . S
C1551 C1549 1.387 . S
C1551 C1553 1.390 . S
C1551 H1555 0.950 . S
H1552 C1548 0.950 . S
C1553 C1551 1.390 . S
C1553 C1554 1.387 . S
C1553 H1556 0.950 . S
C1554 C1553 1.387 . S
C1554 C1557 1.387 . S
H1555 C1551 0.950 . S
H1556 C1553 0.950 . S
C1557 C1548 1.390 . S
C1557 H1550 0.950 . S
C1557 C1554 1.387 . S
C1558 C1559 1.387 . S
C1558 H1562 0.950 . S
C1558 C1567 1.390 . S
C1559 C1558 1.387 . S
C1559 C1561 1.387 . S
H1560 C1567 0.950 . S
C1561 C1559 1.387 . S
C1561 C1563 1.390 . S
C1561 H1565 0.950 . S
H1562 C1558 0.950 . S
C1563 C1561 1.390 . S
C1563 C1564 1.387 . S
C1563 H1566 0.950 . S
C1564 C1563 1.387 . S
C1564 C1567 1.387 . S
H1565 C1561 0.950 . S
H1566 C1563 0.950 . S
C1567 C1558 1.390 . S
C1567 H1560 0.950 . S
C1567 C1564 1.387 . S
C1568 C1569 1.387 . S
C1568 H1572 0.950 . S
C1568 C1577 1.390 . S
C1569 C1568 1.387 . S
C1569 C1571 1.387 . S
H1570 C1577 0.950 . S
C1571 C1569 1.387 . S
C1571 C1573 1.390 . S
C1571 H1575 0.950 . S
H1572 C1568 0.950 . S
C1573 C1571 1.390 . S
C1573 C1574 1.387 . S
C1573 H1576 0.950 . S
C1574 C1573 1.387 . S
C1574 C1577 1.387 . S
H1575 C1571 0.950 . S
H1576 C1573 0.950 . S
C1577 C1568 1.390 . S
C1577 H1570 0.950 . S
C1577 C1574 1.387 . S
C1578 C1579 1.387 . S
C1578 H1582 0.950 . S
C1578 C1587 1.390 . S
C1579 C1578 1.387 . S
C1579 C1581 1.387 . S
H1580 C1587 0.950 . S
C1581 C1579 1.387 . S
C1581 C1583 1.390 . S
C1581 H1585 0.950 . S
H1582 C1578 0.950 . S
C1583 C1581 1.390 . S
C1583 C1584 1.387 . S
C1583 H1586 0.950 . S
C1584 C1583 1.387 . S
C1584 C1587 1.387 . S
H1585 C1581 0.950 . S
H1586 C1583 0.950 . S
C1587 C1578 1.390 . S
C1587 H1580 0.950 . S
C1587 C1584 1.387 . S
C1588 C1589 1.387 . S
C1588 H1592 0.950 . S
C1588 C1597 1.390 . S
C1589 C1588 1.387 . S
C1589 C1591 1.387 . S
H1590 C1597 0.950 . S
C1591 C1589 1.387 . S
C1591 C1593 1.390 . S
C1591 H1595 0.950 . S
H1592 C1588 0.950 . S
C1593 C1591 1.390 . S
C1593 C1594 1.387 . S
C1593 H1596 0.950 . S
C1594 C1593 1.387 . S
C1594 C1597 1.387 . S
H1595 C1591 0.950 . S
H1596 C1593 0.950 . S
C1597 C1588 1.390 . S
C1597 H1590 0.950 . S
C1597 C1594 1.387 . S
C1598 C1599 1.387 . S
C1598 H1602 0.950 . S
C1598 C1607 1.390 . S
C1599 C1598 1.387 . S
C1599 C1601 1.387 . S
H1600 C1607 0.950 . S
C1601 C1599 1.387 . S
C1601 C1603 1.390 . S
C1601 H1605 0.950 . S
H1602 C1598 0.950 . S
C1603 C1601 1.390 . S
C1603 C1604 1.387 . S
C1603 H1606 0.950 . S
C1604 C1603 1.387 . S
C1604 C1607 1.387 . S
H1605 C1601 0.950 . S
H1606 C1603 0.950 . S
C1607 C1598 1.390 . S
C1607 H1600 0.950 . S
C1607 C1604 1.387 . S
C1608 C1609 1.387 . S
C1608 H1612 0.950 . S
C1608 C1617 1.390 . S
C1609 C1608 1.387 . S
C1609 C1611 1.387 . S
H1610 C1617 0.950 . S
C1611 C1609 1.387 . S
C1611 C1613 1.390 . S
C1611 H1615 0.950 . S
H1612 C1608 0.950 . S
C1613 C1611 1.390 . S
C1613 C1614 1.387 . S
C1613 H1616 0.950 . S
C1614 C1613 1.387 . S
C1614 C1617 1.387 . S
H1615 C1611 0.950 . S
H1616 C1613 0.950 . S
C1617 C1608 1.390 . S
C1617 H1610 0.950 . S
C1617 C1614 1.387 . S
C1618 C1619 1.387 . S
C1618 H1622 0.950 . S
C1618 C1627 1.390 . S
C1619 C1618 1.387 . S
C1619 C1621 1.387 . S
H1620 C1627 0.950 . S
C1621 C1619 1.387 . S
C1621 C1623 1.390 . S
C1621 H1625 0.950 . S
H1622 C1618 0.950 . S
C1623 C1621 1.390 . S
C1623 C1624 1.387 . S
C1623 H1626 0.950 . S
C1624 C1623 1.387 . S
C1624 C1627 1.387 . S
H1625 C1621 0.950 . S
H1626 C1623 0.950 . S
C1627 C1618 1.390 . S
C1627 H1620 0.950 . S
C1627 C1624 1.387 . S
C1628 C1629 1.387 . S
C1628 H1632 0.950 . S
C1628 C1637 1.390 . S
C1629 C1628 1.387 . S
C1629 C1631 1.387 . S
H1630 C1637 0.950 . S
C1631 C1629 1.387 . S
C1631 C1633 1.390 . S
C1631 H1635 0.950 . S
H1632 C1628 0.950 . S
C1633 C1631 1.390 . S
C1633 C1634 1.387 . S
C1633 H1636 0.950 . S
C1634 C1633 1.387 . S
C1634 C1637 1.387 . S
H1635 C1631 0.950 . S
H1636 C1633 0.950 . S
C1637 C1628 1.390 . S
C1637 H1630 0.950 . S
C1637 C1634 1.387 . S
C1638 C1639 1.387 . S
C1638 H1642 0.950 . S
C1638 C1647 1.390 . S
C1639 C1638 1.387 . S
C1639 C1641 1.387 . S
H1640 C1647 0.950 . S
C1641 C1639 1.387 . S
C1641 C1643 1.390 . S
C1641 H1645 0.950 . S
H1642 C1638 0.950 . S
C1643 C1641 1.390 . S
C1643 C1644 1.387 . S
C1643 H1646 0.950 . S
C1644 C1643 1.387 . S
C1644 C1647 1.387 . S
H1645 C1641 0.950 . S
H1646 C1643 0.950 . S
C1647 C1638 1.390 . S
C1647 H1640 0.950 . S
C1647 C1644 1.387 . S
C1648 C1649 1.387 . S
C1648 H1652 0.950 . S
C1648 C1657 1.390 . S
C1649 C1648 1.387 . S
C1649 C1651 1.387 . S
H1650 C1657 0.950 . S
C1651 C1649 1.387 . S
C1651 C1653 1.390 . S
C1651 H1655 0.950 . S
H1652 C1648 0.950 . S
C1653 C1651 1.390 . S
C1653 C1654 1.387 . S
C1653 H1656 0.950 . S
C1654 C1653 1.387 . S
C1654 C1657 1.387 . S
H1655 C1651 0.950 . S
H1656 C1653 0.950 . S
C1657 C1648 1.390 . S
C1657 H1650 0.950 . S
C1657 C1654 1.387 . S
C1658 C1659 1.387 . S
C1658 H1662 0.950 . S
C1658 C1667 1.390 . S
C1659 C1658 1.387 . S
C1659 C1661 1.387 . S
H1660 C1667 0.950 . S
C1661 C1659 1.387 . S
C1661 C1663 1.390 . S
C1661 H1665 0.950 . S
H1662 C1658 0.950 . S
C1663 C1661 1.390 . S
C1663 C1664 1.387 . S
C1663 H1666 0.950 . S
C1664 C1663 1.387 . S
C1664 C1667 1.387 . S
H1665 C1661 0.950 . S
H1666 C1663 0.950 . S
C1667 C1658 1.390 . S
C1667 H1660 0.950 . S
C1667 C1664 1.387 . S
C1668 C1669 1.387 . S
C1668 H1672 0.950 . S
C1668 C1677 1.390 . S
C1669 C1668 1.387 . S
C1669 C1671 1.387 . S
H1670 C1677 0.950 . S
C1671 C1669 1.387 . S
C1671 C1673 1.390 . S
C1671 H1675 0.950 . S
H1672 C1668 0.950 . S
C1673 C1671 1.390 . S
C1673 C1674 1.387 . S
C1673 H1676 0.950 . S
C1674 C1673 1.387 . S
C1674 C1677 1.387 . S
H1675 C1671 0.950 . S
H1676 C1673 0.950 . S
C1677 C1668 1.390 . S
C1677 H1670 0.950 . S
C1677 C1674 1.387 . S
C1678 C1679 1.387 . S
C1678 H1682 0.950 . S
C1678 C1687 1.390 . S
C1679 C1678 1.387 . S
C1679 C1681 1.387 . S
H1680 C1687 0.950 . S
C1681 C1679 1.387 . S
C1681 C1683 1.390 . S
C1681 H1685 0.950 . S
H1682 C1678 0.950 . S
C1683 C1681 1.390 . S
C1683 C1684 1.387 . S
C1683 H1686 0.950 . S
C1684 C1683 1.387 . S
C1684 C1687 1.387 . S
H1685 C1681 0.950 . S
H1686 C1683 0.950 . S
C1687 C1678 1.390 . S
C1687 H1680 0.950 . S
C1687 C1684 1.387 . S
C1688 C1689 1.387 . S
C1688 H1692 0.950 . S
C1688 C1697 1.390 . S
C1689 C1688 1.387 . S
C1689 C1691 1.387 . S
H1690 C1697 0.950 . S
C1691 C1689 1.387 . S
C1691 C1693 1.390 . S
C1691 H1695 0.950 . S
H1692 C1688 0.950 . S
C1693 C1691 1.390 . S
C1693 C1694 1.387 . S
C1693 H1696 0.950 . S
C1694 C1693 1.387 . S
C1694 C1697 1.387 . S
H1695 C1691 0.950 . S
H1696 C1693 0.950 . S
C1697 C1688 1.390 . S
C1697 H1690 0.950 . S
C1697 C1694 1.387 . S
C1698 C1699 1.387 . S
C1698 H1702 0.950 . S
C1698 C1707 1.390 . S
C1699 C1698 1.387 . S
C1699 C1701 1.387 . S
H1700 C1707 0.950 . S
C1701 C1699 1.387 . S
C1701 C1703 1.390 . S
C1701 H1705 0.950 . S
H1702 C1698 0.950 . S
C1703 C1701 1.390 . S
C1703 C1704 1.387 . S
C1703 H1706 0.950 . S
C1704 C1703 1.387 . S
C1704 C1707 1.387 . S
H1705 C1701 0.950 . S
H1706 C1703 0.950 . S
C1707 C1698 1.390 . S
C1707 H1700 0.950 . S
C1707 C1704 1.387 . S
C1708 C1709 1.387 . S
C1708 H1712 0.950 . S
C1708 C1717 1.390 . S
C1709 C1708 1.387 . S
C1709 C1711 1.387 . S
H1710 C1717 0.950 . S
C1711 C1709 1.387 . S
C1711 C1713 1.390 . S
C1711 H1715 0.950 . S
H1712 C1708 0.950 . S
C1713 C1711 1.390 . S
C1713 C1714 1.387 . S
C1713 H1716 0.950 . S
C1714 C1713 1.387 . S
C1714 C1717 1.387 . S
H1715 C1711 0.950 . S
H1716 C1713 0.950 . S
C1717 C1708 1.390 . S
C1717 H1710 0.950 . S
C1717 C1714 1.387 . S
C1718 C1719 1.387 . S
C1718 H1722 0.950 . S
C1718 C1727 1.390 . S
C1719 C1718 1.387 . S
C1719 C1721 1.387 . S
H1720 C1727 0.950 . S
C1721 C1719 1.387 . S
C1721 C1723 1.390 . S
C1721 H1725 0.950 . S
H1722 C1718 0.950 . S
C1723 C1721 1.390 . S
C1723 C1724 1.387 . S
C1723 H1726 0.950 . S
C1724 C1723 1.387 . S
C1724 C1727 1.387 . S
H1725 C1721 0.950 . S
H1726 C1723 0.950 . S
C1727 C1718 1.390 . S
C1727 H1720 0.950 . S
C1727 C1724 1.387 . S
C1728 C1729 1.387 . S
C1728 H1732 0.950 . S
C1728 C1737 1.390 . S
C1729 C1728 1.387 . S
C1729 C1731 1.387 . S
H1730 C1737 0.950 . S
C1731 C1729 1.387 . S
C1731 C1733 1.390 . S
C1731 H1735 0.950 . S
H1732 C1728 0.950 . S
C1733 C1731 1.390 . S
C1733 C1734 1.387 . S
C1733 H1736 0.950 . S
C1734 C1733 1.387 . S
C1734 C1737 1.387 . S
H1735 C1731 0.950 . S
H1736 C1733 0.950 . S
C1737 C1728 1.390 . S
C1737 H1730 0.950 . S
C1737 C1734 1.387 . S
C1738 C1739 1.387 . S
C1738 H1742 0.950 . S
C1738 C1747 1.390 . S
C1739 C1738 1.387 . S
C1739 C1741 1.387 . S
H1740 C1747 0.950 . S
C1741 C1739 1.387 . S
C1741 C1743 1.390 . S
C1741 H1745 0.950 . S
H1742 C1738 0.950 . S
C1743 C1741 1.390 . S
C1743 C1744 1.387 . S
C1743 H1746 0.950 . S
C1744 C1743 1.387 . S
C1744 C1747 1.387 . S
H1745 C1741 0.950 . S
H1746 C1743 0.950 . S
C1747 C1738 1.390 . S
C1747 H1740 0.950 . S
C1747 C1744 1.387 . S
C1748 C1749 1.387 . S
C1748 H1752 0.950 . S
C1748 C1757 1.390 . S
C1749 C1748 1.387 . S
C1749 C1751 1.387 . S
H1750 C1757 0.950 . S
C1751 C1749 1.387 . S
C1751 C1753 1.390 . S
C1751 H1755 0.950 . S
H1752 C1748 0.950 . S
C1753 C1751 1.390 . S
C1753 C1754 1.387 . S
C1753 H1756 0.950 . S
C1754 C1753 1.387 . S
C1754 C1757 1.387 . S
H1755 C1751 0.950 . S
H1756 C1753 0.950 . S
C1757 C1748 1.390 . S
C1757 H1750 0.950 . S
C1757 C1754 1.387 . S
C1758 C1759 1.387 . S
C1758 H1762 0.950 . S
C1758 C1767 1.390 . S
C1759 C1758 1.387 . S
C1759 C1761 1.387 1_556 S
H1760 C1767 0.950 . S
C1761 C1759 1.387 1_554 S
C1761 C1763 1.390 . S
C1761 H1765 0.950 . S
H1762 C1758 0.950 . S
C1763 C1761 1.390 . S
C1763 C1764 1.387 1_554 S
C1763 H1766 0.950 . S
C1764 C1763 1.387 1_556 S
C1764 C1767 1.387 . S
H1765 C1761 0.950 . S
H1766 C1763 0.950 . S
C1767 C1758 1.390 . S
C1767 H1760 0.950 . S
C1767 C1764 1.387 . S
C1768 C1769 1.387 . S
C1768 H1772 0.950 1_556 S
C1768 C1777 1.390 . S
C1769 C1768 1.387 . S
C1769 C1771 1.387 . S
H1770 C1777 0.950 . S
C1771 C1769 1.387 . S
C1771 C1773 1.390 . S
C1771 H1775 0.950 . S
H1772 C1768 0.950 1_554 S
C1773 C1771 1.390 . S
C1773 C1774 1.387 . S
C1773 H1776 0.950 . S
C1774 C1773 1.387 . S
C1774 C1777 1.387 . S
H1775 C1771 0.950 . S
H1776 C1773 0.950 . S
C1777 C1768 1.390 . S
C1777 H1770 0.950 . S
C1777 C1774 1.387 . S
C1778 C1779 1.387 1_554 S
C1778 H1782 0.950 . S
C1778 C1787 1.390 . S
C1779 C1778 1.387 1_556 S
C1779 C1781 1.387 . S
H1780 C1787 0.950 . S
C1781 C1779 1.387 . S
C1781 C1783 1.390 . S
C1781 H1785 0.950 . S
H1782 C1778 0.950 . S
C1783 C1781 1.390 . S
C1783 C1784 1.387 . S
C1783 H1786 0.950 . S
C1784 C1783 1.387 . S
C1784 C1787 1.387 1_556 S
H1785 C1781 0.950 . S
H1786 C1783 0.950 . S
C1787 C1778 1.390 . S
C1787 H1780 0.950 . S
C1787 C1784 1.387 1_554 S
C1788 C1789 1.387 . S
C1788 H1792 0.950 . S
C1788 C1797 1.390 . S
C1789 C1788 1.387 . S
C1789 C1791 1.387 . S
H1790 C1797 0.950 . S
C1791 C1789 1.387 . S
C1791 C1793 1.390 . S
C1791 H1795 0.950 . S
H1792 C1788 0.950 . S
C1793 C1791 1.390 . S
C1793 C1794 1.387 . S
C1793 H1796 0.950 . S
C1794 C1793 1.387 . S
C1794 C1797 1.387 . S
H1795 C1791 0.950 . S
H1796 C1793 0.950 . S
C1797 C1788 1.390 . S
C1797 H1790 0.950 . S
C1797 C1794 1.387 . S
C1798 C1799 1.387 . S
C1798 H1802 0.950 . S
C1798 C1807 1.390 . S
C1799 C1798 1.387 . S
C1799 C1801 1.387 1_556 S
H1800 C1807 0.950 . S
C1801 C1799 1.387 1_554 S
C1801 C1803 1.390 . S
C1801 H1805 0.950 . S
H1802 C1798 0.950 . S
C1803 C1801 1.390 . S
C1803 C1804 1.387 1_554 S
C1803 H1806 0.950 . S
C1804 C1803 1.387 1_556 S
C1804 C1807 1.387 . S
H1805 C1801 0.950 . S
H1806 C1803 0.950 . S
C1807 C1798 1.390 . S
C1807 H1800 0.950 . S
C1807 C1804 1.387 . S
C1808 C1809 1.387 . S
C1808 H1812 0.950 . S
C1808 C1817 1.390 . S
C1809 C1808 1.387 . S
C1809 C1811 1.387 . S
H1810 C1817 0.950 . S
C1811 C1809 1.387 . S
C1811 C1813 1.390 . S
C1811 H1815 0.950 1_556 S
H1812 C1808 0.950 . S
C1813 C1811 1.390 . S
C1813 C1814 1.387 . S
C1813 H1816 0.950 . S
C1814 C1813 1.387 . S
C1814 C1817 1.387 . S
H1815 C1811 0.950 1_554 S
H1816 C1813 0.950 . S
C1817 C1808 1.390 . S
C1817 H1810 0.950 . S
C1817 C1814 1.387 . S
C1818 C1819 1.387 . S
C1818 H1822 0.950 . S
C1818 C1827 1.390 . S
C1819 C1818 1.387 . S
C1819 C1821 1.387 . S
H1820 C1827 0.950 . S
C1821 C1819 1.387 . S
C1821 C1823 1.390 . S
C1821 H1825 0.950 . S
H1822 C1818 0.950 . S
C1823 C1821 1.390 . S
C1823 C1824 1.387 . S
C1823 H1826 0.950 . S
C1824 C1823 1.387 . S
C1824 C1827 1.387 . S
H1825 C1821 0.950 . S
H1826 C1823 0.950 . S
C1827 C1818 1.390 . S
C1827 H1820 0.950 . S
C1827 C1824 1.387 . S
C1828 C1829 1.387 . S
C1828 H1832 0.950 . S
C1828 C1837 1.390 . S
C1829 C1828 1.387 . S
C1829 C1831 1.387 . S
H1830 C1837 0.950 . S
C1831 C1829 1.387 . S
C1831 C1833 1.390 . S
C1831 H1835 0.950 . S
H1832 C1828 0.950 . S
C1833 C1831 1.390 . S
C1833 C1834 1.387 . S
C1833 H1836 0.950 . S
C1834 C1833 1.387 . S
C1834 C1837 1.387 . S
H1835 C1831 0.950 . S
H1836 C1833 0.950 . S
C1837 C1828 1.390 . S
C1837 H1830 0.950 . S
C1837 C1834 1.387 . S
C1838 C1839 1.387 . S
C1838 H1842 0.950 . S
C1838 C1847 1.390 . S
C1839 C1838 1.387 . S
C1839 C1841 1.387 . S
H1840 C1847 0.950 . S
C1841 C1839 1.387 . S
C1841 C1843 1.390 . S
C1841 H1845 0.950 . S
H1842 C1838 0.950 . S
C1843 C1841 1.390 . S
C1843 C1844 1.387 . S
C1843 H1846 0.950 . S
C1844 C1843 1.387 . S
C1844 C1847 1.387 . S
H1845 C1841 0.950 . S
H1846 C1843 0.950 . S
C1847 C1838 1.390 . S
C1847 H1840 0.950 . S
C1847 C1844 1.387 . S
C1848 C1849 1.387 . S
C1848 H1852 0.950 . S
C1848 C1857 1.390 . S
C1849 C1848 1.387 . S
C1849 C1851 1.387 . S
H1850 C1857 0.950 . S
C1851 C1849 1.387 . S
C1851 C1853 1.390 . S
C1851 H1855 0.950 . S
H1852 C1848 0.950 . S
C1853 C1851 1.390 . S
C1853 C1854 1.387 . S
C1853 H1856 0.950 . S
C1854 C1853 1.387 . S
C1854 C1857 1.387 . S
H1855 C1851 0.950 . S
H1856 C1853 0.950 . S
C1857 C1848 1.390 . S
C1857 H1850 0.950 . S
C1857 C1854 1.387 . S
C1858 C1859 1.387 . S
C1858 H1862 0.950 . S
C1858 C1867 1.390 . S
C1859 C1858 1.387 . S
C1859 C1861 1.387 . S
H1860 C1867 0.950 . S
C1861 C1859 1.387 . S
C1861 C1863 1.390 . S
C1861 H1865 0.950 . S
H1862 C1858 0.950 . S
C1863 C1861 1.390 . S
C1863 C1864 1.387 . S
C1863 H1866 0.950 . S
C1864 C1863 1.387 . S
C1864 C1867 1.387 . S
H1865 C1861 0.950 . S
H1866 C1863 0.950 . S
C1867 C1858 1.390 . S
C1867 H1860 0.950 . S
C1867 C1864 1.387 . S
C1868 C1869 1.387 . S
C1868 H1872 0.950 . S
C1868 C1877 1.390 . S
C1869 C1868 1.387 . S
C1869 C1871 1.387 . S
H1870 C1877 0.950 . S
C1871 C1869 1.387 . S
C1871 C1873 1.390 . S
C1871 H1875 0.950 . S
H1872 C1868 0.950 . S
C1873 C1871 1.390 . S
C1873 C1874 1.387 . S
C1873 H1876 0.950 . S
C1874 C1873 1.387 . S
C1874 C1877 1.387 . S
H1875 C1871 0.950 . S
H1876 C1873 0.950 . S
C1877 C1868 1.390 . S
C1877 H1870 0.950 . S
C1877 C1874 1.387 . S
C1878 C1879 1.387 . S
C1878 H1882 0.950 . S
C1878 C1887 1.390 . S
C1879 C1878 1.387 . S
C1879 C1881 1.387 . S
H1880 C1887 0.950 . S
C1881 C1879 1.387 . S
C1881 C1883 1.390 . S
C1881 H1885 0.950 . S
H1882 C1878 0.950 . S
C1883 C1881 1.390 . S
C1883 C1884 1.387 . S
C1883 H1886 0.950 . S
C1884 C1883 1.387 . S
C1884 C1887 1.387 . S
H1885 C1881 0.950 . S
H1886 C1883 0.950 . S
C1887 C1878 1.390 . S
C1887 H1880 0.950 . S
C1887 C1884 1.387 . S
C1888 C1889 1.387 . S
C1888 H1892 0.950 . S
C1888 C1897 1.390 . S
C1889 C1888 1.387 . S
C1889 C1891 1.387 . S
H1890 C1897 0.950 . S
C1891 C1889 1.387 . S
C1891 C1893 1.390 . S
C1891 H1895 0.950 . S
H1892 C1888 0.950 . S
C1893 C1891 1.390 . S
C1893 C1894 1.387 . S
C1893 H1896 0.950 . S
C1894 C1893 1.387 . S
C1894 C1897 1.387 . S
H1895 C1891 0.950 . S
H1896 C1893 0.950 . S
C1897 C1888 1.390 . S
C1897 H1890 0.950 . S
C1897 C1894 1.387 . S
C1898 C1899 1.387 . S
C1898 H1902 0.950 . S
C1898 C1907 1.390 . S
C1899 C1898 1.387 . S
C1899 C1901 1.387 . S
H1900 C1907 0.950 . S
C1901 C1899 1.387 . S
C1901 C1903 1.401 1_565 S
C1901 H1905 0.950 1_565 S
H1902 C1898 0.950 . S
C1903 C1901 1.401 1_545 S
C1903 C1904 1.358 1_545 S
C1903 H1906 0.970 . S
C1904 C1903 1.358 1_565 S
C1904 C1907 1.387 . S
H1905 C1901 0.950 1_545 S
H1906 C1903 0.970 . S
C1907 C1898 1.390 . S
C1907 H1900 0.950 . S
C1907 C1904 1.387 . S
C1908 C1909 1.387 . S
C1908 H1912 0.950 . S
C1908 C1917 1.390 . S
C1909 C1908 1.387 . S
C1909 C1911 1.387 . S
H1910 C1917 0.950 1_545 S
C1911 C1909 1.387 . S
C1911 C1913 1.390 . S
C1911 H1915 0.950 . S
H1912 C1908 0.950 . S
C1913 C1911 1.390 . S
C1913 C1914 1.387 . S
C1913 H1916 0.950 . S
C1914 C1913 1.387 . S
C1914 C1917 1.387 . S
H1915 C1911 0.950 . S
H1916 C1913 0.950 . S
C1917 C1908 1.390 . S
C1917 H1910 0.950 1_565 S
C1917 C1914 1.387 . S
C1918 C1919 1.387 . S
C1918 H1922 0.950 . S
C1918 C1927 1.390 . S
C1919 C1918 1.387 . S
C1919 C1921 1.387 . S
H1920 C1927 0.950 . S
C1921 C1919 1.387 . S
C1921 C1923 1.390 . S
C1921 H1925 0.950 . S
H1922 C1918 0.950 . S
C1923 C1921 1.390 . S
C1923 C1924 1.387 . S
C1923 H1926 0.950 . S
C1924 C1923 1.387 . S
C1924 C1927 1.387 . S
H1925 C1921 0.950 . S
H1926 C1923 0.950 . S
C1927 C1918 1.390 . S
C1927 H1920 0.950 . S
C1927 C1924 1.387 . S
C1928 C1929 1.387 . S
C1928 H1932 0.950 . S
C1928 C1937 1.390 . S
C1929 C1928 1.387 . S
C1929 C1931 1.387 . S
H1930 C1937 0.950 . S
C1931 C1929 1.387 . S
C1931 C1933 1.390 . S
C1931 H1935 0.950 . S
H1932 C1928 0.950 . S
C1933 C1931 1.390 . S
C1933 C1934 1.387 . S
C1933 H1936 0.950 . S
C1934 C1933 1.387 . S
C1934 C1937 1.387 . S
H1935 C1931 0.950 . S
H1936 C1933 0.950 . S
C1937 C1928 1.390 . S
C1937 H1930 0.950 . S
C1937 C1934 1.387 . S
C1938 C1939 1.387 . S
C1938 H1942 0.950 . S
C1938 C1947 1.390 . S
C1939 C1938 1.387 . S
C1939 C1941 1.387 . S
H1940 C1947 0.950 . S
C1941 C1939 1.387 . S
C1941 C1943 1.390 . S
C1941 H1945 0.950 . S
H1942 C1938 0.950 . S
C1943 C1941 1.390 . S
C1943 C1944 1.387 . S
C1943 H1946 0.950 . S
C1944 C1943 1.387 . S
C1944 C1947 1.387 . S
H1945 C1941 0.950 . S
H1946 C1943 0.950 . S
C1947 C1938 1.390 . S
C1947 H1940 0.950 . S
C1947 C1944 1.387 . S
C1948 C1949 1.387 . S
C1948 H1952 0.950 . S
C1948 C1957 1.390 . S
C1949 C1948 1.387 . S
C1949 C1951 1.387 . S
H1950 C1957 0.950 . S
C1951 C1949 1.387 . S
C1951 C1953 1.390 . S
C1951 H1955 0.950 . S
H1952 C1948 0.950 . S
C1953 C1951 1.390 . S
C1953 C1954 1.387 . S
C1953 H1956 0.950 . S
C1954 C1953 1.387 . S
C1954 C1957 1.387 . S
H1955 C1951 0.950 . S
H1956 C1953 0.950 . S
C1957 C1948 1.390 . S
C1957 H1950 0.950 . S
C1957 C1954 1.387 . S
C1958 C1959 1.387 . S
C1958 H1962 0.950 . S
C1958 C1967 1.390 . S
C1959 C1958 1.387 . S
C1959 C1961 1.387 . S
H1960 C1967 0.950 . S
C1961 C1959 1.387 . S
C1961 C1963 1.390 . S
C1961 H1965 0.950 . S
H1962 C1958 0.950 . S
C1963 C1961 1.390 . S
C1963 C1964 1.387 . S
C1963 H1966 0.950 . S
C1964 C1963 1.387 . S
C1964 C1967 1.387 . S
H1965 C1961 0.950 . S
H1966 C1963 0.950 . S
C1967 C1958 1.390 . S
C1967 H1960 0.950 . S
C1967 C1964 1.387 . S
C1968 C1969 1.387 . S
C1968 H1972 0.950 1_545 S
C1968 C1977 1.390 1_545 S
C1969 C1968 1.387 . S
C1969 C1971 1.387 . S
H1970 C1977 0.950 . S
C1971 C1969 1.387 . S
C1971 C1973 1.390 . S
C1971 H1975 0.950 . S
H1972 C1968 0.950 1_565 S
C1973 C1971 1.390 . S
C1973 C1974 1.387 . S
C1973 H1976 0.950 . S
C1974 C1973 1.387 . S
C1974 C1977 1.387 1_545 S
H1975 C1971 0.950 . S
H1976 C1973 0.950 . S
C1977 C1968 1.390 1_565 S
C1977 H1970 0.950 . S
C1977 C1974 1.387 1_565 S
C1978 C1979 1.387 . S
C1978 H1982 0.984 . S
C1978 C1987 1.390 . S
C1979 C1978 1.387 . S
C1979 C1981 1.387 . S
H1980 C1987 0.950 1_455 S
C1981 C1979 1.387 . S
C1981 C1983 1.390 . S
C1981 H1985 0.950 . S
H1982 C1978 0.984 . S
C1983 C1981 1.390 . S
C1983 C1984 1.387 . S
C1983 H1986 0.950 . S
C1984 C1983 1.387 . S
C1984 C1987 1.387 . S
H1985 C1981 0.950 . S
H1986 C1983 0.950 . S
C1987 C1978 1.390 . S
C1987 H1980 0.950 1_655 S
C1987 C1984 1.387 . S
C1988 C1989 1.387 . S
C1988 H1992 0.950 . S
C1988 C1997 1.390 . S
C1989 C1988 1.387 . S
C1989 C1991 1.387 . S
H1990 C1997 0.950 . S
C1991 C1989 1.387 . S
C1991 C1993 1.390 . S
C1991 H1995 0.950 . S
H1992 C1988 0.950 . S
C1993 C1991 1.390 . S
C1993 C1994 1.387 . S
C1993 H1996 0.950 . S
C1994 C1993 1.387 . S
C1994 C1997 1.387 . S
H1995 C1991 0.950 . S
H1996 C1993 0.950 . S
C1997 C1988 1.390 . S
C1997 H1990 0.950 . S
C1997 C1994 1.387 . S
C1998 C1999 1.387 . S
C1998 H2002 0.950 . S
C1998 C2007 1.390 . S
C1999 C1998 1.387 . S
C1999 C2001 1.387 . S
H2000 C2007 0.950 . S
C2001 C1999 1.387 . S
C2001 C2003 1.390 . S
C2001 H2005 0.950 . S
H2002 C1998 0.950 . S
C2003 C2001 1.390 . S
C2003 C2004 1.387 . S
C2003 H2006 0.950 . S
C2004 C2003 1.387 . S
C2004 C2007 1.387 . S
H2005 C2001 0.950 . S
H2006 C2003 0.950 . S
C2007 C1998 1.390 . S
C2007 H2000 0.950 . S
C2007 C2004 1.387 . S
C2008 C2009 1.387 . S
C2008 H2012 0.950 . S
C2008 C2017 1.390 . S
C2009 C2008 1.387 . S
C2009 C2011 1.387 . S
H2010 C2017 0.950 . S
C2011 C2009 1.387 . S
C2011 C2013 1.390 . S
C2011 H2015 0.950 . S
H2012 C2008 0.950 . S
C2013 C2011 1.390 . S
C2013 C2014 1.387 . S
C2013 H2016 0.950 . S
C2014 C2013 1.387 . S
C2014 C2017 1.387 . S
H2015 C2011 0.950 . S
H2016 C2013 0.950 . S
C2017 C2008 1.390 . S
C2017 H2010 0.950 . S
C2017 C2014 1.387 . S
C2018 C2019 1.387 . S
C2018 H2022 0.950 . S
C2018 C2027 1.390 . S
C2019 C2018 1.387 . S
C2019 C2021 1.387 . S
H2020 C2027 0.950 . S
C2021 C2019 1.387 . S
C2021 C2023 1.390 . S
C2021 H2025 0.950 . S
H2022 C2018 0.950 . S
C2023 C2021 1.390 . S
C2023 C2024 1.387 . S
C2023 H2026 0.950 . S
C2024 C2023 1.387 . S
C2024 C2027 1.387 . S
H2025 C2021 0.950 . S
H2026 C2023 0.950 . S
C2027 C2018 1.390 . S
C2027 H2020 0.950 . S
C2027 C2024 1.387 . S
C2028 C2029 1.387 . S
C2028 H2032 0.950 . S
C2028 C2037 1.390 . S
C2029 C2028 1.387 . S
C2029 C2031 1.387 . S
H2030 C2037 0.950 . S
C2031 C2029 1.387 . S
C2031 C2033 1.390 . S
C2031 H2035 0.950 . S
H2032 C2028 0.950 . S
C2033 C2031 1.390 . S
C2033 C2034 1.387 . S
C2033 H2036 0.950 . S
C2034 C2033 1.387 . S
C2034 C2037 1.387 . S
H2035 C2031 0.950 . S
H2036 C2033 0.950 . S
C2037 C2028 1.390 . S
C2037 H2030 0.950 . S
C2037 C2034 1.387 . S
C2038 C2039 1.387 . S
C2038 H2042 0.950 . S
C2038 C2047 1.390 . S
C2039 C2038 1.387 . S
C2039 C2041 1.387 . S
H2040 C2047 0.950 . S
C2041 C2039 1.387 . S
C2041 C2043 1.390 . S
C2041 H2045 0.950 . S
H2042 C2038 0.950 . S
C2043 C2041 1.390 . S
C2043 C2044 1.387 . S
C2043 H2046 0.950 . S
C2044 C2043 1.387 . S
C2044 C2047 1.387 . S
H2045 C2041 0.950 . S
H2046 C2043 0.950 . S
C2047 C2038 1.390 . S
C2047 H2040 0.950 . S
C2047 C2044 1.387 . S
C2048 C2049 1.387 . S
C2048 H2052 0.950 . S
C2048 C2057 1.390 . S
C2049 C2048 1.387 . S
C2049 C2051 1.387 . S
H2050 C2057 0.950 . S
C2051 C2049 1.387 . S
C2051 C2053 1.390 . S
C2051 H2055 0.950 . S
H2052 C2048 0.950 . S
C2053 C2051 1.390 . S
C2053 C2054 1.387 . S
C2053 H2056 0.950 . S
C2054 C2053 1.387 . S
C2054 C2057 1.387 . S
H2055 C2051 0.950 . S
H2056 C2053 0.950 . S
C2057 C2048 1.390 . S
C2057 H2050 0.950 . S
C2057 C2054 1.387 . S
C2058 C2059 1.387 . S
C2058 H2062 0.950 . S
C2058 C2067 1.390 . S
C2059 C2058 1.387 . S
C2059 C2061 1.387 . S
H2060 C2067 0.950 . S
C2061 C2059 1.387 . S
C2061 C2063 1.390 . S
C2061 H2065 0.950 . S
H2062 C2058 0.950 . S
C2063 C2061 1.390 . S
C2063 C2064 1.387 . S
C2063 H2066 0.950 . S
C2064 C2063 1.387 . S
C2064 C2067 1.387 . S
H2065 C2061 0.950 . S
H2066 C2063 0.950 . S
C2067 C2058 1.390 . S
C2067 H2060 0.950 . S
C2067 C2064 1.387 . S
C2068 C2069 1.387 . S
C2068 H2072 0.950 . S
C2068 C2077 1.390 . S
C2069 C2068 1.387 . S
C2069 C2071 1.387 . S
H2070 C2077 0.950 . S
C2071 C2069 1.387 . S
C2071 C2073 1.390 . S
C2071 H2075 0.950 . S
H2072 C2068 0.950 . S
C2073 C2071 1.390 . S
C2073 C2074 1.387 . S
C2073 H2076 0.950 . S
C2074 C2073 1.387 . S
C2074 C2077 1.387 . S
H2075 C2071 0.950 . S
H2076 C2073 0.950 . S
C2077 C2068 1.390 . S
C2077 H2070 0.950 . S
C2077 C2074 1.387 . S
C2078 C2079 1.387 . S
C2078 H2082 0.950 . S
C2078 C2087 1.390 . S
C2079 C2078 1.387 . S
C2079 C2081 1.387 . S
H2080 C2087 0.950 . S
C2081 C2079 1.387 . S
C2081 C2083 1.390 . S
C2081 H2085 0.950 . S
H2082 C2078 0.950 . S
C2083 C2081 1.390 . S
C2083 C2084 1.387 . S
C2083 H2086 0.950 . S
C2084 C2083 1.387 . S
C2084 C2087 1.387 . S
H2085 C2081 0.950 . S
H2086 C2083 0.950 . S
C2087 C2078 1.390 . S
C2087 H2080 0.950 . S
C2087 C2084 1.387 . S
C1369 C13 1.533 . S
C1374 C857 1.559 . S
C1379 C27 1.426 . S
C1384 C901 1.456 . S
C1394 C981 1.570 . S
C1389 C36 1.548 . S
C1399 C41 1.493 . S
C1404 C1025 1.540 . S
C1409 C8 1.635 . S
C1414 C1105 1.649 . S
C1419 C22 1.515 . S
C1424 C1167 1.537 . S
C1429 C55 1.529 . S
C1434 C1087 1.552 . S
C1444 C1149 1.447 . S
C1439 C69 1.427 . S
C1454 C1043 1.605 . S
C1449 C78 1.575 . S
C1459 C83 1.489 . S
C1464 C963 1.512 . S
C1474 C839 1.654 . S
C1469 C50 1.648 . S
C1479 C64 1.513 . S
C1484 C919 1.548 . S
C1489 C97 1.566 . S
C1494 C1229 1.599 . S
C1499 C111 1.445 . S
C1504 C1273 1.483 . S
C1514 C1353 1.596 . S
C1509 C120 1.601 . S
C1519 C125 1.516 . S
C1524 C299 1.547 . S
C1529 C92 1.727 . S
C1534 C343 1.741 . S
C1539 C106 1.544 . S
C1544 C423 1.556 . S
C1549 C139 1.549 . S
C1554 C361 1.621 . S
C1559 C153 1.441 . S
C1564 C405 1.462 . S
C1574 C281 1.601 . S
C1569 C162 1.604 . S
C1584 C1335 1.561 . S
C1579 C167 1.526 . S
C1594 C1211 1.690 . S
C1589 C134 1.724 . S
C1604 C1291 1.574 . S
C1599 C148 1.545 . S
C1609 C181 1.553 . S
C1614 C485 1.585 . S
C1619 C195 1.438 . S
C1624 C547 1.457 . S
C1629 C204 1.602 . S
C1634 C591 1.628 . S
C1639 C209 1.527 . S
C1644 C653 1.591 . S
C1654 C715 1.747 . S
C1649 C176 1.734 . S
C1664 C795 1.555 . S
C1659 C190 1.547 . S
C1674 C733 1.644 . S
C1669 C223 1.571 . S
C1684 C777 1.473 . S
C1679 C237 1.447 . S
C1689 C246 1.600 . S
C1694 C671 1.623 . S
C1704 C609 1.569 . S
C1699 C251 1.510 . S
C1709 C218 1.723 . S
C1714 C467 1.691 . S
C1724 C529 1.563 . S
C1719 C232 1.548 . S
C1734 C305 1.392 . S
C1729 C11 1.471 . S
C1739 C25 1.397 . S
C1744 C349 1.359 . S
C1754 C429 1.350 . S
C1749 C35 1.440 . S
C1764 C491 1.408 . S
C1759 C39 1.491 . S
C1774 C553 1.441 . S
C1769 C7 1.537 1_556 S
C1784 C597 1.396 . S
C1779 C21 1.476 1_556 S
C1789 C53 1.468 1_556 S
C1794 C615 1.425 . S
C1799 C67 1.388 1_556 S
C1804 C473 1.321 . S
C1809 C77 1.422 1_556 S
C1814 C535 1.332 . S
C1819 C81 1.511 . S
C1824 C367 1.459 . S
C1834 C411 1.435 . S
C1829 C49 1.540 . S
C1839 C63 1.476 . S
C1844 C287 1.370 . S
C1854 C659 1.403 . S
C1849 C95 1.465 . S
C1859 C109 1.413 . S
C1864 C721 1.369 . S
C1869 C119 1.488 . S
C1874 C801 1.388 . S
C1884 C863 1.320 . S
C1879 C123 1.399 . S
C1889 C91 1.527 . S
C1894 C907 1.442 . S
C1899 C105 1.397 . S
C1904 C987 1.313 . S
C1909 C137 1.415 . S
C1914 C969 1.328 . S
C1919 C151 1.299 . S
C1924 C845 1.238 . S
C1934 C925 1.366 . S
C1929 C161 1.432 . S
C1939 C165 1.504 . S
C1944 C739 1.449 . S
C1949 C133 1.557 . S
C1954 C783 1.447 . S
C1964 C677 1.423 . S
C1959 C147 1.502 . S
C1974 C1031 1.377 . S
C1969 C179 1.432 . S
C1979 C193 1.289 . S
C1984 C1111 1.231 . S
C1989 C203 1.429 . S
C1994 C1173 1.346 . S
C2004 C1235 1.400 . S
C1999 C207 1.488 . S
C2014 C1279 1.469 . S
C2009 C175 1.513 1_565 S
C2019 C189 1.504 . S
C2024 C1359 1.397 . S
C2029 C221 1.470 . S
C2034 C1341 1.387 . S
C2039 C235 1.409 . S
C2044 C1217 1.340 . S
C2054 C1297 1.396 . S
C2049 C245 1.512 . S
C2064 C1093 1.306 . S
C2059 C249 1.384 . S
C2074 C1155 1.428 . S
C2069 C217 1.531 . S
C2079 C231 1.427 . S
C2084 C1049 1.357 . S
