# Generated by pormake.
# Topology rtl, (3,6)-cn, num edge types: 1
# Building blocks:
#     Node 0, Type 0, BuildingBlock: PAMTOO_clean_linker_0, # of connection points: 3
#     Node 1, Type 0, BuildingBlock: PAMTOO_clean_linker_0, # of connection points: 3
#     Node 2, Type 0, BuildingBlock: PAMTOO_clean_linker_0, # of connection points: 3
#     Node 3, Type 0, BuildingBlock: PAMTOO_clean_linker_0, # of connection points: 3
#     Node 4, Type 1, BuildingBlock: FUNLAD_clean_sbu_0, # of connection points: 6
#     Node 5, Type 1, BuildingBlock: FUNLAD_clean_sbu_0, # of connection points: 6
#     Edge 6, Type (0, 1), BuildingBlock: XIVTED_clean_linker_0, # of connection points: 2
#     Edge 7, Type (0, 1), BuildingBlock: XIVTED_clean_linker_0, # of connection points: 2
#     Edge 8, Type (0, 1), BuildingBlock: XIVTED_clean_linker_0, # of connection points: 2
#     Edge 9, Type (0, 1), BuildingBlock: XIVTED_clean_linker_0, # of connection points: 2
#     Edge 10, Type (0, 1), BuildingBlock: XIVTED_clean_linker_0, # of connection points: 2
#     Edge 11, Type (0, 1), BuildingBlock: XIVTED_clean_linker_0, # of connection points: 2
#     Edge 12, Type (0, 1), BuildingBlock: XIVTED_clean_linker_0, # of connection points: 2
#     Edge 13, Type (0, 1), BuildingBlock: XIVTED_clean_linker_0, # of connection points: 2
#     Edge 14, Type (0, 1), BuildingBlock: XIVTED_clean_linker_0, # of connection points: 2
#     Edge 15, Type (0, 1), BuildingBlock: XIVTED_clean_linker_0, # of connection points: 2
#     Edge 16, Type (0, 1), BuildingBlock: XIVTED_clean_linker_0, # of connection points: 2
#     Edge 17, Type (0, 1), BuildingBlock: XIVTED_clean_linker_0, # of connection points: 2
# Relax obj value: 0.003
# Max RMSD: 0.041
# Mean RMSD: 0.031
data_MOF--net-rtl--node1-FUNLAD_clean_sbu_0--node2-PAMTOO_clean_linker_0--edge1-XIVTED_clean_linker_0
_symmetry_space_group_name_H-M    P1
_symmetry_Int_Tables_number       1
_symmetry_cell_setting            triclinic
loop_
_symmetry_equiv_pos_as_xyz
'x, y, z'
_cell_length_a     40.3073
_cell_length_b     40.577675
_cell_length_c     21.193096
_cell_angle_alpha  92.485131
_cell_angle_beta   91.01774
_cell_angle_gamma 90.030175
loop_
_atom_site_label
_atom_site_type_symbol
_atom_site_fract_x
_atom_site_fract_y
_atom_site_fract_z
_atom_type_partial_charge
H0 H 0.13728 0.89254 0.00224 0.0
H1 H 0.19506 0.82039 0.0985 0.0
H2 H 0.19572 0.82177 0.89579 0.0
H3 H 0.1995 0.7558 0.94138 0.0
C4 C 0.2111 0.76085 0.98883 0.0
O5 O 0.22029 0.79356 -0.00468 0.0
H6 H 0.19255 0.7552 0.02518 0.0
C7 C 0.15455 0.87203 0.00078 0.0
C8 C 0.16515 0.85889 0.94231 0.0
C9 C 0.16491 0.85821 0.05728 0.0
C10 C 0.18654 0.83112 0.05517 0.0
C11 C 0.1979 0.81829 -0.00304 0.0
C12 C 0.18694 0.83193 0.94058 0.0
H13 H 0.64403 0.60424 0.51597 0.0
H14 H 0.70003 0.677 0.42122 0.0
H15 H 0.70019 0.67788 0.62412 0.0
H16 H 0.70238 0.74373 0.57599 0.0
C17 C 0.71349 0.73823 0.52904 0.0
O18 O 0.72402 0.70589 0.52521 0.0
H19 H 0.69418 0.74228 0.49194 0.0
C20 C 0.66087 0.62513 0.51794 0.0
C21 C 0.67093 0.63922 0.57676 0.0
C22 C 0.67095 0.63866 0.46162 0.0
C23 C 0.69183 0.66638 0.46434 0.0
C24 C 0.70264 0.68022 0.52292 0.0
C25 C 0.69194 0.66687 0.57904 0.0
H26 H 0.8828 0.11472 0.00979 0.0
H27 H 0.81274 0.17518 0.91215 0.0
H28 H 0.81783 0.17967 0.11531 0.0
H29 H 0.75062 0.18246 0.06528 0.0
C30 C 0.75498 0.19371 0.0192 0.0
O31 O 0.78789 0.20258 0.0153 0.0
H32 H 0.74855 0.17511 0.98073 0.0
C33 C 0.86313 0.13298 0.01092 0.0
C34 C 0.85225 0.14612 0.0691 0.0
C35 C 0.84895 0.14313 0.95421 0.0
C36 C 0.82382 0.16703 0.95574 0.0
C37 C 0.8124 0.17991 0.01389 0.0
C38 C 0.82657 0.16943 0.07055 0.0
H39 H 0.37573 0.39526 0.48991 0.0
H40 H 0.31612 0.32449 0.58246 0.0
H41 H 0.31766 0.32398 0.37965 0.0
H42 H 0.25199 0.31277 0.42452 0.0
C43 C 0.25787 0.30434 0.47269 0.0
O44 O 0.29128 0.29729 0.47756 0.0
H45 H 0.25133 0.32463 0.50735 0.0
C46 C 0.35829 0.37485 0.48732 0.0
C47 C 0.34803 0.36137 0.42816 0.0
C48 C 0.3473 0.36153 0.54319 0.0
C49 C 0.32527 0.33472 0.53968 0.0
C50 C 0.31424 0.32158 0.4807 0.0
C51 C 0.32618 0.3344 0.42503 0.0
C52 C 0.0435 0.96837 0.41372 0.0
N53 N 0.06013 0.05915 0.51167 0.0
C54 C 0.093 0.05156 0.50983 0.0
C55 C 0.11681 0.07658 0.50958 0.0
C56 C 0.10672 0.10972 0.51168 0.0
C57 C 0.07266 0.11682 0.5144 0.0
C58 C 0.04969 0.09106 0.51415 0.0
Zn59 Zn 0.02562 0.02213 0.50836 0.0
C60 C 0.972 0.03403 0.41503 0.0
N61 N 0.95393 0.94418 0.50006 0.0
C62 C 0.96273 0.91185 0.50189 0.0
C63 C 0.92147 0.95332 0.49762 0.0
C64 C 0.89638 0.92963 0.49705 0.0
C65 C 0.90464 0.89611 0.49948 0.0
C66 C 0.93834 0.88728 0.50191 0.0
Zn67 Zn 0.98911 0.98074 0.50324 0.0
O68 O 0.05281 0.99615 0.43784 0.0
C69 C 0.04329 0.96941 0.59656 0.0
O70 O 0.01665 0.95558 0.43175 0.0
H71 H 0.91494 0.97914 0.49682 0.0
H72 H 0.10077 0.02604 0.50808 0.0
H73 H 0.98867 0.9051 0.50375 0.0
O74 O 0.05221 0.99752 0.57871 0.0
O75 O 0.01711 0.95603 0.57281 0.0
H76 H 0.02346 0.09657 0.5152 0.0
O77 O 0.9623 0.00632 0.57506 0.0
O78 O 0.99762 0.04754 0.57856 0.0
O79 O 0.96188 0.00642 0.43345 0.0
O80 O 0.99879 0.04624 0.43816 0.0
C81 C 0.97122 0.03449 0.59787 0.0
H82 H 0.14284 0.07005 0.50809 0.0
H83 H 0.06378 0.14202 0.51524 0.0
H84 H 0.87073 0.93758 0.49612 0.0
H85 H 0.94577 0.86168 0.50337 0.0
C86 C 0.4706 0.47004 0.9071 0.0
N87 N 0.55802 0.44179 -0.00057 0.0
C88 C 0.54614 0.41037 -0.00532 0.0
C89 C 0.5679 0.38363 -0.00606 0.0
C90 C 0.60226 0.3892 -0.00149 0.0
C91 C 0.61386 0.42187 0.00347 0.0
C92 C 0.59121 0.44794 0.00362 0.0
Zn93 Zn 0.52501 0.4801 0.00103 0.0
C94 C 0.54503 0.5327 0.91412 0.0
N95 N 0.45634 0.56047 0.00464 0.0
C96 C 0.42385 0.55142 0.00597 0.0
C97 C 0.46529 0.59282 0.00424 0.0
C98 C 0.44099 0.61751 0.00534 0.0
C99 C 0.4073 0.60871 0.00755 0.0
C100 C 0.39892 0.57517 0.00771 0.0
Zn101 Zn 0.4906 0.52314 0.00298 0.0
O102 O 0.49657 0.45611 0.92777 0.0
C103 C 0.47087 0.47036 0.09005 0.0
O104 O 0.46263 0.49834 0.92988 0.0
H105 H 0.49125 0.59949 0.00315 0.0
H106 H 0.51968 0.406 0.99179 0.0
H107 H 0.41714 0.52562 0.00553 0.0
O108 O 0.49657 0.45623 0.06819 0.0
O109 O 0.46304 0.49874 0.07165 0.0
H110 H 0.60013 0.4731 0.00716 0.0
O111 O 0.51914 0.54744 0.07546 0.0
O112 O 0.5528 0.50485 0.07479 0.0
O113 O 0.51901 0.54682 0.935 0.0
O114 O 0.55302 0.50449 0.93342 0.0
C115 C 0.54492 0.53338 0.09686 0.0
H116 H 0.55787 0.35883 0.9909 0.0
H117 H 0.64018 0.42725 0.00649 0.0
H118 H 0.44846 0.64315 0.00535 0.0
H119 H 0.37325 0.56728 0.00823 0.0
H120 H 0.21319 0.29448 0.56664 0.0
H121 H 0.16135 0.11295 0.43699 0.0
H122 H 0.25672 0.24581 0.40339 0.0
H123 H 0.10824 0.16818 0.58146 0.0
H124 H 0.20038 0.15886 0.43123 0.0
H125 H 0.17829 0.24597 0.57983 0.0
C126 C 0.21548 0.27342 0.53382 0.0
C127 C 0.23771 0.27402 0.48375 0.0
C128 C 0.18024 0.16089 0.46432 0.0
C129 C 0.19791 0.21854 0.49833 0.0
C130 C 0.15808 0.13461 0.46792 0.0
C131 C 0.13141 0.13679 0.50961 0.0
C132 C 0.17583 0.18951 0.50291 0.0
C133 C 0.12817 0.16563 0.54803 0.0
C134 C 0.19555 0.24579 0.54124 0.0
C135 C 0.23981 0.24616 0.44254 0.0
N136 N 0.15007 0.19085 0.54371 0.0
N137 N 0.22008 0.21954 0.45062 0.0
H138 H 0.22551 0.71633 0.07974 0.0
H139 H 0.40132 0.66332 0.93614 0.0
H140 H 0.26523 0.75735 0.91272 0.0
H141 H 0.35264 0.61148 0.08204 0.0
H142 H 0.35479 0.70219 0.93421 0.0
H143 H 0.27479 0.68141 0.088 0.0
C144 C 0.2447 0.71794 0.04486 0.0
C145 C 0.24137 0.73951 -0.00474 0.0
C146 C 0.35438 0.68237 0.9668 0.0
C147 C 0.29783 0.69989 0.00446 0.0
C148 C 0.38102 0.66035 0.96822 0.0
C149 C 0.38072 0.63401 0.00899 0.0
C150 C 0.32739 0.67815 0.00679 0.0
C151 C 0.35365 0.63114 0.0492 0.0
C152 C 0.2728 0.69806 0.04954 0.0
C153 C 0.26696 0.74086 0.95146 0.0
N154 N 0.32808 0.65287 0.04699 0.0
N155 N 0.29414 0.72129 0.95701 0.0
H156 H 0.7232 0.78347 0.43793 0.0
H157 H 0.90144 0.84251 0.57374 0.0
H158 H 0.7697 0.74408 0.60309 0.0
H159 H 0.84721 0.89214 0.42843 0.0
H160 H 0.85591 0.80281 0.57882 0.0
H161 H 0.77067 0.82047 0.42795 0.0
C162 C 0.74351 0.78262 0.472 0.0
C163 C 0.74266 0.7608 0.52144 0.0
C164 C 0.85401 0.82234 0.54572 0.0
C165 C 0.79703 0.80289 0.51037 0.0
C166 C 0.8801 0.84486 0.54248 0.0
C167 C 0.87807 0.87076 0.50077 0.0
C168 C 0.82577 0.82559 0.50667 0.0
C169 C 0.84964 0.87283 0.46189 0.0
C170 C 0.77057 0.80372 0.46636 0.0
C171 C 0.76955 0.76061 0.56433 0.0
N172 N 0.82463 0.85058 0.46581 0.0
N173 N 0.79567 0.78133 0.55782 0.0
H174 H 0.7551 0.24921 0.09722 0.0
H175 H 0.60036 0.33246 0.92364 0.0
H176 H 0.70595 0.20606 0.93129 0.0
H177 H 0.65751 0.38167 0.07393 0.0
H178 H 0.6381 0.28545 0.92717 0.0
H179 H 0.71904 0.29769 0.09094 0.0
C180 C 0.73674 0.25012 0.05937 0.0
C181 C 0.73345 0.2238 0.01464 0.0
C182 C 0.64248 0.30657 0.95925 0.0
C183 C 0.69204 0.2788 0.00724 0.0
C184 C 0.62083 0.33334 0.95749 0.0
C185 C 0.62572 0.361 -0.0013 0.0
C186 C 0.66916 0.30729 0.00285 0.0
C187 C 0.65297 0.36099 0.04093 0.0
C188 C 0.71621 0.2777 0.05573 0.0
C189 C 0.70926 0.22591 0.96663 0.0
N190 N 0.67355 0.33448 0.04214 0.0
N191 N 0.68941 0.25291 0.96429 0.0
H192 H 0.13289 0.82628 0.14967 0.0
H193 H 0.09682 0.99275 0.35313 0.0
H194 H 0.16763 0.92219 0.10064 0.0
H195 H 0.03733 0.90478 0.36514 0.0
H196 H 0.13025 0.96446 0.27271 0.0
H197 H 0.10541 0.85197 0.24208 0.0
C198 C 0.1352 0.85264 0.15915 0.0
C199 C 0.15234 0.87226 0.1177 0.0
C200 C 0.10992 0.95133 0.29303 0.0
C201 C 0.12108 0.90166 0.22227 0.0
C202 C 0.09081 0.96744 0.33896 0.0
C203 C 0.06404 0.95119 0.3655 0.0
C204 C 0.10247 0.91859 0.27378 0.0
C205 C 0.05755 0.91833 0.34547 0.0
C206 C 0.11934 0.86729 0.21136 0.0
C207 C 0.15442 0.90631 0.13142 0.0
N208 N 0.07665 0.90308 0.30072 0.0
N209 N 0.13889 0.91996 0.18246 0.0
H210 H 0.63963 0.67179 0.67444 0.0
H211 H 0.59695 0.5061 0.84827 0.0
H212 H 0.67208 0.5751 0.60973 0.0
H213 H 0.54176 0.59655 0.87678 0.0
H214 H 0.63163 0.53322 0.77271 0.0
H215 H 0.61118 0.64677 0.76213 0.0
C216 C 0.64126 0.64538 0.67951 0.0
C217 C 0.65802 0.62538 0.6349 0.0
C218 C 0.61197 0.54714 0.79558 0.0
C219 C 0.62552 0.5967 0.73413 0.0
C220 C 0.59214 0.53169 0.83873 0.0
C221 C 0.56622 0.54901 0.86851 0.0
C222 C 0.60609 0.58026 0.78244 0.0
C223 C 0.56127 0.58218 0.85447 0.0
C224 C 0.62482 0.63111 0.72905 0.0
C225 C 0.65917 0.59128 0.643 0.0
N226 N 0.58104 0.59675 0.81239 0.0
N227 N 0.64303 0.578 0.69151 0.0
H228 H 0.91697 0.1527 0.1038 0.0
H229 H 0.90841 0.02212 0.37142 0.0
H230 H 0.82411 0.11338 0.16465 0.0
H231 H 0.99172 0.08759 0.35173 0.0
H232 H 0.8774 0.05302 0.2929 0.0
H233 H 0.94528 0.12752 0.19265 0.0
C234 C 0.90256 0.13911 0.13669 0.0
C235 C 0.86829 0.13509 0.12749 0.0
C236 C 0.9024 0.06067 0.30614 0.0
C237 C 0.9004 0.10559 0.22803 0.0
C238 C 0.92018 0.04294 0.35056 0.0
C239 C 0.95277 0.05218 0.36782 0.0
C240 C 0.91751 0.0875 0.2783 0.0
C241 C 0.9667 0.07952 0.33972 0.0
C242 C 0.91865 0.12472 0.18721 0.0
C243 C 0.85058 0.11714 0.1708 0.0
N244 N 0.9491 0.09604 0.29603 0.0
N245 N 0.86694 0.10263 0.21896 0.0
H246 H 0.37715 0.32945 0.63973 0.0
H247 H 0.41888 0.49623 0.84102 0.0
H248 H 0.34636 0.42593 0.58454 0.0
H249 H 0.47394 0.40592 0.86126 0.0
H250 H 0.38457 0.46861 0.75858 0.0
H251 H 0.4047 0.35497 0.73403 0.0
C252 C 0.37571 0.35592 0.64822 0.0
C253 C 0.35972 0.37573 0.60448 0.0
C254 C 0.40412 0.45483 0.78118 0.0
C255 C 0.39111 0.40495 0.71122 0.0
C256 C 0.42372 0.47056 0.82822 0.0
C257 C 0.44952 0.45343 0.85764 0.0
C258 C 0.41012 0.42163 0.76377 0.0
C259 C 0.45453 0.42015 0.83935 0.0
C260 C 0.39162 0.37047 0.70154 0.0
C261 C 0.35872 0.40991 0.61706 0.0
N262 N 0.435 0.40531 0.7935 0.0
N263 N 0.37432 0.42347 0.66919 0.0
H264 H 0.67286 0.57422 0.4204 0.0
H265 H 0.5414 0.59762 0.14179 0.0
H266 H 0.63932 0.66994 0.36599 0.0
H267 H 0.59631 0.50743 0.16449 0.0
H268 H 0.57608 0.62455 0.22479 0.0
H269 H 0.64478 0.54918 0.32696 0.0
C270 C 0.65988 0.58995 0.38816 0.0
C271 C 0.65825 0.62411 0.40074 0.0
C272 C 0.58064 0.59893 0.2113 0.0
C273 C 0.62563 0.59571 0.29449 0.0
C274 C 0.56074 0.58348 0.16421 0.0
C275 C 0.56582 0.55015 0.14648 0.0
C276 C 0.60555 0.58083 0.24135 0.0
C277 C 0.59142 0.53313 0.17679 0.0
C278 C 0.64387 0.57571 0.33491 0.0
C279 C 0.64125 0.64351 0.3576 0.0
N280 N 0.61015 0.54858 0.22305 0.0
N281 N 0.62518 0.62898 0.3067 0.0
H282 H 0.84762 0.07846 0.91663 0.0
H283 H 0.97628 0.09885 0.64197 0.0
H284 H 0.87839 0.17387 0.85754 0.0
H285 H 0.9194 0.00987 0.66264 0.0
H286 H 0.9423 0.12677 0.72263 0.0
H287 H 0.87465 0.05264 0.82466 0.0
C288 C 0.85971 0.09393 0.8835 0.0
C289 C 0.86086 0.12822 0.89415 0.0
C290 C 0.93716 0.1012 0.70913 0.0
C291 C 0.89241 0.099 0.78995 0.0
C292 C 0.95666 0.08519 0.66345 0.0
C293 C 0.95081 0.05191 0.64591 0.0
C294 C 0.91195 0.08367 0.73798 0.0
C295 C 0.92488 0.03551 0.67487 0.0
C296 C 0.87514 0.07926 0.83117 0.0
C297 C 0.87688 0.14733 0.85037 0.0
N298 N 0.9066 0.05147 0.71984 0.0
N299 N 0.89249 0.1324 0.80043 0.0
H300 H 0.37829 0.32953 0.32837 0.0
H301 H 0.41961 0.49668 0.15826 0.0
H302 H 0.34734 0.42587 0.39808 0.0
H303 H 0.47418 0.40622 0.12506 0.0
H304 H 0.38564 0.46903 0.23436 0.0
H305 H 0.4058 0.35527 0.24037 0.0
C306 C 0.37685 0.35602 0.32442 0.0
C307 C 0.3608 0.37572 0.37046 0.0
C308 C 0.40501 0.45523 0.21031 0.0
C309 C 0.39213 0.40518 0.27086 0.0
C310 C 0.42442 0.47099 0.16688 0.0
C311 C 0.44997 0.45381 0.13571 0.0
C312 C 0.41097 0.42197 0.22225 0.0
C313 C 0.45495 0.42049 0.14851 0.0
C314 C 0.39272 0.37069 0.27467 0.0
C315 C 0.35978 0.40993 0.36372 0.0
N316 N 0.43562 0.40563 0.19086 0.0
N317 N 0.37533 0.42361 0.31497 0.0
H318 H 0.13434 0.8273 0.84076 0.0
H319 H 0.09496 0.99477 0.66821 0.0
H320 H 0.16638 0.92339 0.91237 0.0
H321 H 0.03836 0.90534 0.63206 0.0
H322 H 0.12841 0.96666 0.74641 0.0
H323 H 0.1066 0.85328 0.75142 0.0
C324 C 0.13601 0.85378 0.83692 0.0
C325 C 0.15247 0.87334 0.88381 0.0
C326 C 0.1087 0.95317 0.72132 0.0
C327 C 0.12086 0.90307 0.78274 0.0
C328 C 0.08957 0.96919 0.67665 0.0
C329 C 0.06363 0.95244 0.64391 0.0
C330 C 0.1021 0.92006 0.73305 0.0
C331 C 0.05792 0.91926 0.65665 0.0
C332 C 0.11998 0.86858 0.78643 0.0
C333 C 0.15371 0.90755 0.87726 0.0
N334 N 0.07703 0.90411 0.70028 0.0
N335 N 0.13803 0.92134 0.82777 0.0
loop_
_geom_bond_atom_site_label_1
_geom_bond_atom_site_label_2
_geom_bond_distance
_geom_bond_site_symmetry_2
_ccdc_geom_bond_type
H0 C7 0.929 . S
H1 C10 0.930 . S
H2 C12 0.929 . S
H3 C4 0.969 . S
C4 H3 0.969 . S
C4 O5 1.550 1_554 S
C4 H6 0.973 . S
O5 C4 1.550 1_556 S
O5 C11 1.411 1_556 S
H6 C4 0.973 . S
C7 H0 0.929 . S
C7 C8 1.400 1_554 S
C7 C9 1.364 . S
C8 C7 1.400 1_556 S
C8 C12 1.377 . S
C9 C7 1.364 . S
C9 C10 1.374 . S
C10 H1 0.930 . S
C10 C9 1.374 . S
C10 C11 1.387 . S
C11 O5 1.411 1_554 S
C11 C10 1.387 . S
C11 C12 1.391 1_554 S
C12 H2 0.929 . S
C12 C8 1.377 . S
C12 C11 1.391 1_556 S
H13 C20 0.929 . S
H14 C23 0.930 . S
H15 C25 0.929 . S
H16 C17 0.969 . S
C17 H16 0.969 . S
C17 O18 1.550 . S
C17 H19 0.973 . S
O18 C17 1.550 . S
O18 C24 1.412 . S
H19 C17 0.973 . S
C20 H13 0.929 . S
C20 C21 1.400 . S
C20 C22 1.364 . S
C21 C20 1.400 . S
C21 C25 1.377 . S
C22 C20 1.364 . S
C22 C23 1.374 . S
C23 H14 0.930 . S
C23 C22 1.374 . S
C23 C24 1.383 . S
C24 O18 1.412 . S
C24 C23 1.383 . S
C24 C25 1.394 . S
C25 H15 0.929 . S
C25 C21 1.377 . S
C25 C24 1.394 . S
H26 C33 0.929 . S
H27 C36 0.930 . S
H28 C38 0.929 . S
H29 C30 0.969 . S
C30 H29 0.969 . S
C30 O31 1.550 1_556 S
C30 H32 0.973 . S
O31 C30 1.550 1_554 S
O31 C37 1.412 . S
H32 C30 0.973 . S
C33 H26 0.929 . S
C33 C34 1.400 . S
C33 C35 1.364 1_554 S
C34 C33 1.400 . S
C34 C38 1.377 . S
C35 C33 1.364 1_556 S
C35 C36 1.374 . S
C36 H27 0.930 . S
C36 C35 1.374 . S
C36 C37 1.383 1_556 S
C37 O31 1.412 . S
C37 C36 1.383 1_554 S
C37 C38 1.394 . S
C38 H28 0.929 . S
C38 C34 1.377 . S
C38 C37 1.394 . S
H39 C46 0.929 . S
H40 C49 0.930 . S
H41 C51 0.929 . S
H42 C43 0.969 . S
C43 H42 0.969 . S
C43 O44 1.550 . S
C43 H45 0.973 . S
O44 C43 1.550 . S
O44 C50 1.412 . S
H45 C43 0.973 . S
C46 H39 0.929 . S
C46 C47 1.400 . S
C46 C48 1.364 . S
C47 C46 1.400 . S
C47 C51 1.377 . S
C48 C46 1.364 . S
C48 C49 1.374 . S
C49 H40 0.930 . S
C49 C48 1.374 . S
C49 C50 1.383 . S
C50 O44 1.412 . S
C50 C49 1.383 . S
C50 C51 1.394 . S
C51 H41 0.929 . S
C51 C47 1.377 . S
C51 C50 1.394 . S
C52 O68 1.251 . S
C52 O70 1.254 . S
N53 C54 1.333 . S
N53 C58 1.307 . S
N53 Zn59 2.020 . S
C54 N53 1.333 . S
C54 C55 1.379 . S
C54 H72 0.952 . S
C55 C54 1.379 . S
C55 C56 1.390 . S
C55 H82 0.949 . S
C56 C55 1.390 . S
C56 C57 1.357 . S
C57 C56 1.357 . S
C57 C58 1.370 . S
C57 H83 0.950 . S
C58 N53 1.307 . S
C58 C57 1.370 . S
C58 H76 0.948 . S
Zn59 N53 2.020 . S
Zn59 O68 2.039 1_545 S
Zn59 O74 2.034 1_545 S
Zn59 O78 2.025 1_455 S
Zn59 O80 2.024 1_455 S
C60 O79 1.246 . S
C60 O80 1.249 . S
N61 C62 1.307 . S
N61 C63 1.333 . S
N61 Zn67 2.020 . S
C62 N61 1.307 . S
C62 C66 1.370 . S
C62 H73 0.948 . S
C63 N61 1.333 . S
C63 C64 1.379 . S
C63 H71 0.952 . S
C64 C63 1.379 . S
C64 C65 1.390 . S
C64 H84 0.949 . S
C65 C64 1.390 . S
C65 C66 1.357 . S
C66 C62 1.370 . S
C66 C65 1.357 . S
C66 H85 0.950 . S
Zn67 N61 2.020 . S
Zn67 O70 2.025 1_655 S
Zn67 O75 2.024 1_655 S
Zn67 O77 2.039 1_565 S
Zn67 O79 2.034 1_565 S
O68 C52 1.251 . S
O68 Zn59 2.039 1_565 S
C69 O74 1.246 . S
C69 O75 1.249 . S
O70 C52 1.254 . S
O70 Zn67 2.025 1_455 S
H71 C63 0.952 . S
H72 C54 0.952 . S
H73 C62 0.948 . S
O74 Zn59 2.034 1_565 S
O74 C69 1.246 . S
O75 Zn67 2.024 1_455 S
O75 C69 1.249 . S
H76 C58 0.948 . S
O77 Zn67 2.039 1_545 S
O77 C81 1.251 . S
O78 Zn59 2.025 1_655 S
O78 C81 1.254 . S
O79 C60 1.246 . S
O79 Zn67 2.034 1_545 S
O80 Zn59 2.024 1_655 S
O80 C60 1.249 . S
C81 O77 1.251 . S
C81 O78 1.254 . S
H82 C55 0.949 . S
H83 C57 0.950 . S
H84 C64 0.949 . S
H85 C66 0.950 . S
C86 O102 1.251 . S
C86 O104 1.254 . S
N87 C88 1.333 1_554 S
N87 C92 1.307 . S
N87 Zn93 2.020 . S
C88 N87 1.333 1_556 S
C88 C89 1.379 . S
C88 H106 0.952 . S
C89 C88 1.379 . S
C89 C90 1.390 1_556 S
C89 H116 0.949 . S
C90 C89 1.390 1_554 S
C90 C91 1.357 . S
C91 C90 1.357 . S
C91 C92 1.370 . S
C91 H117 0.950 . S
C92 N87 1.307 . S
C92 C91 1.370 . S
C92 H110 0.948 . S
Zn93 N87 2.020 . S
Zn93 O102 2.039 1_554 S
Zn93 O108 2.034 . S
Zn93 O112 2.025 . S
Zn93 O114 2.024 1_554 S
C94 O113 1.246 . S
C94 O114 1.249 . S
N95 C96 1.307 1_554 S
N95 C97 1.333 . S
N95 Zn101 2.020 . S
C96 N95 1.307 1_556 S
C96 C100 1.370 . S
C96 H107 0.948 . S
C97 N95 1.333 . S
C97 C98 1.379 . S
C97 H105 0.952 . S
C98 C97 1.379 . S
C98 C99 1.390 . S
C98 H118 0.949 . S
C99 C98 1.390 . S
C99 C100 1.353 1_554 S
C100 C96 1.370 . S
C100 C99 1.353 1_556 S
C100 H119 0.954 . S
Zn101 N95 2.020 . S
Zn101 O104 2.025 1_554 S
Zn101 O109 2.024 . S
Zn101 O111 2.039 . S
Zn101 O113 2.034 1_554 S
O102 C86 1.251 . S
O102 Zn93 2.039 1_556 S
C103 O108 1.246 . S
C103 O109 1.249 . S
O104 C86 1.254 . S
O104 Zn101 2.025 1_556 S
H105 C97 0.952 . S
H106 C88 0.952 . S
H107 C96 0.948 . S
O108 Zn93 2.034 . S
O108 C103 1.246 . S
O109 Zn101 2.024 . S
O109 C103 1.249 . S
H110 C92 0.948 . S
O111 Zn101 2.039 . S
O111 C115 1.251 . S
O112 Zn93 2.025 . S
O112 C115 1.254 . S
O113 C94 1.246 . S
O113 Zn101 2.034 1_556 S
O114 Zn93 2.024 1_556 S
O114 C94 1.249 . S
C115 O111 1.251 . S
C115 O112 1.254 . S
H116 C89 0.949 . S
H117 C91 0.950 . S
H118 C98 0.949 . S
H119 C100 0.954 . S
H120 C126 0.930 . S
H121 C130 0.930 . S
H122 C135 0.929 . S
H123 C133 0.929 . S
H124 C128 0.929 . S
H125 C134 0.929 . S
C126 H120 0.930 . S
C126 C127 1.367 . S
C126 C134 1.378 . S
C127 C126 1.367 . S
C127 C135 1.433 . S
C128 H124 0.929 . S
C128 C130 1.378 . S
C128 C132 1.350 . S
C129 C132 1.463 . S
C129 C134 1.350 . S
C129 N137 1.427 . S
C130 H121 0.930 . S
C130 C128 1.378 . S
C130 C131 1.367 . S
C131 C130 1.367 . S
C131 C133 1.433 . S
C132 C128 1.350 . S
C132 C129 1.463 . S
C132 N136 1.427 . S
C133 H123 0.929 . S
C133 C131 1.433 . S
C133 N136 1.384 . S
C134 H125 0.929 . S
C134 C126 1.378 . S
C134 C129 1.350 . S
C135 H122 0.929 . S
C135 C127 1.433 . S
C135 N137 1.384 . S
N136 C132 1.427 . S
N136 C133 1.384 . S
N137 C129 1.427 . S
N137 C135 1.384 . S
H138 C144 0.930 . S
H139 C148 0.930 . S
H140 C153 0.929 . S
H141 C151 0.929 . S
H142 C146 0.929 . S
H143 C152 0.929 . S
C144 H138 0.930 . S
C144 C145 1.367 . S
C144 C152 1.378 . S
C145 C144 1.367 . S
C145 C153 1.433 1_554 S
C146 H142 0.929 . S
C146 C148 1.378 . S
C146 C150 1.350 1_556 S
C147 C150 1.463 . S
C147 C152 1.350 . S
C147 N155 1.427 1_554 S
C148 H139 0.930 . S
C148 C146 1.378 . S
C148 C149 1.367 1_556 S
C149 C148 1.367 1_554 S
C149 C151 1.433 . S
C150 C146 1.350 1_554 S
C150 C147 1.463 . S
C150 N154 1.427 . S
C151 H141 0.929 . S
C151 C149 1.433 . S
C151 N154 1.384 . S
C152 H143 0.929 . S
C152 C144 1.378 . S
C152 C147 1.350 . S
C153 H140 0.929 . S
C153 C145 1.433 1_556 S
C153 N155 1.384 . S
N154 C150 1.427 . S
N154 C151 1.384 . S
N155 C147 1.427 1_556 S
N155 C153 1.384 . S
H156 C162 0.930 . S
H157 C166 0.930 . S
H158 C171 0.929 . S
H159 C169 0.929 . S
H160 C164 0.929 . S
H161 C170 0.929 . S
C162 H156 0.930 . S
C162 C163 1.367 . S
C162 C170 1.378 . S
C163 C162 1.367 . S
C163 C171 1.433 . S
C164 H160 0.929 . S
C164 C166 1.378 . S
C164 C168 1.350 . S
C165 C168 1.463 . S
C165 C170 1.350 . S
C165 N173 1.427 . S
C166 H157 0.930 . S
C166 C164 1.378 . S
C166 C167 1.367 . S
C167 C166 1.367 . S
C167 C169 1.433 . S
C168 C164 1.350 . S
C168 C165 1.463 . S
C168 N172 1.427 . S
C169 H159 0.929 . S
C169 C167 1.433 . S
C169 N172 1.384 . S
C170 H161 0.929 . S
C170 C162 1.378 . S
C170 C165 1.350 . S
C171 H158 0.929 . S
C171 C163 1.433 . S
C171 N173 1.384 . S
N172 C168 1.427 . S
N172 C169 1.384 . S
N173 C165 1.427 . S
N173 C171 1.384 . S
H174 C180 0.930 . S
H175 C184 0.930 . S
H176 C189 0.929 . S
H177 C187 0.929 . S
H178 C182 0.929 . S
H179 C188 0.929 . S
C180 H174 0.930 . S
C180 C181 1.356 1_554 S
C180 C188 1.378 . S
C181 C180 1.356 1_556 S
C181 C189 1.444 . S
C182 H178 0.929 . S
C182 C184 1.378 . S
C182 C186 1.350 . S
C183 C186 1.463 1_554 S
C183 C188 1.350 . S
C183 N191 1.427 1_554 S
C184 H175 0.930 . S
C184 C182 1.378 . S
C184 C185 1.357 1_556 S
C185 C184 1.357 1_554 S
C185 C187 1.444 . S
C186 C182 1.350 . S
C186 C183 1.463 1_556 S
C186 N190 1.427 1_556 S
C187 H177 0.929 . S
C187 C185 1.444 . S
C187 N190 1.384 . S
C188 H179 0.929 . S
C188 C180 1.378 . S
C188 C183 1.350 . S
C189 H176 0.929 . S
C189 C181 1.444 . S
C189 N191 1.384 . S
N190 C186 1.427 1_554 S
N190 C187 1.384 . S
N191 C183 1.427 1_556 S
N191 C189 1.384 . S
H192 C198 0.930 . S
H193 C202 0.930 . S
H194 C207 0.929 . S
H195 C205 0.929 . S
H196 C200 0.929 . S
H197 C206 0.929 . S
C198 H192 0.930 . S
C198 C199 1.367 . S
C198 C206 1.378 . S
C199 C198 1.367 . S
C199 C207 1.433 . S
C200 H196 0.929 . S
C200 C202 1.378 . S
C200 C204 1.350 . S
C201 C204 1.463 . S
C201 C206 1.350 . S
C201 N209 1.427 . S
C202 H193 0.930 . S
C202 C200 1.378 . S
C202 C203 1.367 . S
C203 C202 1.367 . S
C203 C205 1.433 . S
C204 C200 1.350 . S
C204 C201 1.463 . S
C204 N208 1.427 . S
C205 H195 0.929 . S
C205 C203 1.433 . S
C205 N208 1.384 . S
C206 H197 0.929 . S
C206 C198 1.378 . S
C206 C201 1.350 . S
C207 H194 0.929 . S
C207 C199 1.433 . S
C207 N209 1.384 . S
N208 C204 1.427 . S
N208 C205 1.384 . S
N209 C201 1.427 . S
N209 C207 1.384 . S
H210 C216 0.930 . S
H211 C220 0.930 . S
H212 C225 0.929 . S
H213 C223 0.929 . S
H214 C218 0.929 . S
H215 C224 0.929 . S
C216 H210 0.930 . S
C216 C217 1.367 . S
C216 C224 1.378 . S
C217 C216 1.367 . S
C217 C225 1.433 . S
C218 H214 0.929 . S
C218 C220 1.378 . S
C218 C222 1.350 . S
C219 C222 1.463 . S
C219 C224 1.350 . S
C219 N227 1.427 . S
C220 H211 0.930 . S
C220 C218 1.378 . S
C220 C221 1.367 . S
C221 C220 1.367 . S
C221 C223 1.433 . S
C222 C218 1.350 . S
C222 C219 1.463 . S
C222 N226 1.427 . S
C223 H213 0.929 . S
C223 C221 1.433 . S
C223 N226 1.384 . S
C224 H215 0.929 . S
C224 C216 1.378 . S
C224 C219 1.350 . S
C225 H212 0.929 . S
C225 C217 1.433 . S
C225 N227 1.384 . S
N226 C222 1.427 . S
N226 C223 1.384 . S
N227 C219 1.427 . S
N227 C225 1.384 . S
H228 C234 0.930 . S
H229 C238 0.930 . S
H230 C243 0.929 . S
H231 C241 0.929 . S
H232 C236 0.929 . S
H233 C242 0.929 . S
C234 H228 0.930 . S
C234 C235 1.367 . S
C234 C242 1.378 . S
C235 C234 1.367 . S
C235 C243 1.433 . S
C236 H232 0.929 . S
C236 C238 1.378 . S
C236 C240 1.350 . S
C237 C240 1.463 . S
C237 C242 1.350 . S
C237 N245 1.427 . S
C238 H229 0.930 . S
C238 C236 1.378 . S
C238 C239 1.367 . S
C239 C238 1.367 . S
C239 C241 1.433 . S
C240 C236 1.350 . S
C240 C237 1.463 . S
C240 N244 1.427 . S
C241 H231 0.929 . S
C241 C239 1.433 . S
C241 N244 1.384 . S
C242 H233 0.929 . S
C242 C234 1.378 . S
C242 C237 1.350 . S
C243 H230 0.929 . S
C243 C235 1.433 . S
C243 N245 1.384 . S
N244 C240 1.427 . S
N244 C241 1.384 . S
N245 C237 1.427 . S
N245 C243 1.384 . S
H246 C252 0.930 . S
H247 C256 0.930 . S
H248 C261 0.929 . S
H249 C259 0.929 . S
H250 C254 0.929 . S
H251 C260 0.929 . S
C252 H246 0.930 . S
C252 C253 1.367 . S
C252 C260 1.378 . S
C253 C252 1.367 . S
C253 C261 1.433 . S
C254 H250 0.929 . S
C254 C256 1.378 . S
C254 C258 1.350 . S
C255 C258 1.463 . S
C255 C260 1.350 . S
C255 N263 1.427 . S
C256 H247 0.930 . S
C256 C254 1.378 . S
C256 C257 1.367 . S
C257 C256 1.367 . S
C257 C259 1.433 . S
C258 C254 1.350 . S
C258 C255 1.463 . S
C258 N262 1.427 . S
C259 H249 0.929 . S
C259 C257 1.433 . S
C259 N262 1.384 . S
C260 H251 0.929 . S
C260 C252 1.378 . S
C260 C255 1.350 . S
C261 H248 0.929 . S
C261 C253 1.433 . S
C261 N263 1.384 . S
N262 C258 1.427 . S
N262 C259 1.384 . S
N263 C255 1.427 . S
N263 C261 1.384 . S
H264 C270 0.930 . S
H265 C274 0.930 . S
H266 C279 0.929 . S
H267 C277 0.929 . S
H268 C272 0.929 . S
H269 C278 0.929 . S
C270 H264 0.930 . S
C270 C271 1.367 . S
C270 C278 1.378 . S
C271 C270 1.367 . S
C271 C279 1.433 . S
C272 H268 0.929 . S
C272 C274 1.378 . S
C272 C276 1.350 . S
C273 C276 1.463 . S
C273 C278 1.350 . S
C273 N281 1.427 . S
C274 H265 0.930 . S
C274 C272 1.378 . S
C274 C275 1.367 . S
C275 C274 1.367 . S
C275 C277 1.433 . S
C276 C272 1.350 . S
C276 C273 1.463 . S
C276 N280 1.427 . S
C277 H267 0.929 . S
C277 C275 1.433 . S
C277 N280 1.384 . S
C278 H269 0.929 . S
C278 C270 1.378 . S
C278 C273 1.350 . S
C279 H266 0.929 . S
C279 C271 1.433 . S
C279 N281 1.384 . S
N280 C276 1.427 . S
N280 C277 1.384 . S
N281 C273 1.427 . S
N281 C279 1.384 . S
H282 C288 0.930 . S
H283 C292 0.930 . S
H284 C297 0.929 . S
H285 C295 0.929 . S
H286 C290 0.929 . S
H287 C296 0.929 . S
C288 H282 0.930 . S
C288 C289 1.367 . S
C288 C296 1.378 . S
C289 C288 1.367 . S
C289 C297 1.433 . S
C290 H286 0.929 . S
C290 C292 1.378 . S
C290 C294 1.350 . S
C291 C294 1.463 . S
C291 C296 1.350 . S
C291 N299 1.427 . S
C292 H283 0.930 . S
C292 C290 1.378 . S
C292 C293 1.367 . S
C293 C292 1.367 . S
C293 C295 1.433 . S
C294 C290 1.350 . S
C294 C291 1.463 . S
C294 N298 1.427 . S
C295 H285 0.929 . S
C295 C293 1.433 . S
C295 N298 1.384 . S
C296 H287 0.929 . S
C296 C288 1.378 . S
C296 C291 1.350 . S
C297 H284 0.929 . S
C297 C289 1.433 . S
C297 N299 1.384 . S
N298 C294 1.427 . S
N298 C295 1.384 . S
N299 C291 1.427 . S
N299 C297 1.384 . S
H300 C306 0.930 . S
H301 C310 0.930 . S
H302 C315 0.929 . S
H303 C313 0.929 . S
H304 C308 0.929 . S
H305 C314 0.929 . S
C306 H300 0.930 . S
C306 C307 1.367 . S
C306 C314 1.378 . S
C307 C306 1.367 . S
C307 C315 1.433 . S
C308 H304 0.929 . S
C308 C310 1.378 . S
C308 C312 1.350 . S
C309 C312 1.463 . S
C309 C314 1.350 . S
C309 N317 1.427 . S
C310 H301 0.930 . S
C310 C308 1.378 . S
C310 C311 1.367 . S
C311 C310 1.367 . S
C311 C313 1.433 . S
C312 C308 1.350 . S
C312 C309 1.463 . S
C312 N316 1.427 . S
C313 H303 0.929 . S
C313 C311 1.433 . S
C313 N316 1.384 . S
C314 H305 0.929 . S
C314 C306 1.378 . S
C314 C309 1.350 . S
C315 H302 0.929 . S
C315 C307 1.433 . S
C315 N317 1.384 . S
N316 C312 1.427 . S
N316 C313 1.384 . S
N317 C309 1.427 . S
N317 C315 1.384 . S
H318 C324 0.930 . S
H319 C328 0.930 . S
H320 C333 0.929 . S
H321 C331 0.929 . S
H322 C326 0.929 . S
H323 C332 0.929 . S
C324 H318 0.930 . S
C324 C325 1.367 . S
C324 C332 1.378 . S
C325 C324 1.367 . S
C325 C333 1.433 . S
C326 H322 0.929 . S
C326 C328 1.378 . S
C326 C330 1.350 . S
C327 C330 1.463 . S
C327 C332 1.350 . S
C327 N335 1.427 . S
C328 H319 0.930 . S
C328 C326 1.378 . S
C328 C329 1.367 . S
C329 C328 1.367 . S
C329 C331 1.433 . S
C330 C326 1.350 . S
C330 C327 1.463 . S
C330 N334 1.427 . S
C331 H321 0.929 . S
C331 C329 1.433 . S
C331 N334 1.384 . S
C332 H323 0.929 . S
C332 C324 1.378 . S
C332 C327 1.350 . S
C333 H320 0.929 . S
C333 C325 1.433 . S
C333 N335 1.384 . S
N334 C330 1.427 . S
N334 C331 1.384 . S
N335 C327 1.427 . S
N335 C333 1.384 . S
C131 C56 1.508 . S
C127 C43 1.447 . S
C145 C4 1.453 . S
C149 C99 1.508 . S
C163 C17 1.453 . S
C167 C65 1.508 . S
C181 C30 1.476 . S
C185 C90 1.511 . S
C203 C52 1.510 . S
C199 C9 1.492 . S
C221 C94 1.509 . S
C217 C21 1.508 . S
C235 C34 1.507 . S
C239 C60 1.507 . S
C253 C48 1.492 . S
C257 C86 1.509 . S
C275 C115 1.509 . S
C271 C22 1.488 . S
C293 C81 1.510 . S
C289 C35 1.490 . S
C311 C103 1.510 . S
C307 C47 1.509 . S
C325 C8 1.507 . S
C329 C69 1.509 . S
