# Generated by pormake.
# Topology apo, (3,6)-cn, num edge types: 1
# Building blocks:
#     Node 0, Type 0, BuildingBlock: ESEHIV_clean_linker_0, # of connection points: 3
#     Node 1, Type 0, BuildingBlock: ESEHIV_clean_linker_0, # of connection points: 3
#     Node 2, Type 0, BuildingBlock: ESEHIV_clean_linker_0, # of connection points: 3
#     Node 3, Type 0, BuildingBlock: ESEHIV_clean_linker_0, # of connection points: 3
#     Node 4, Type 0, BuildingBlock: ESEHIV_clean_linker_0, # of connection points: 3
#     Node 5, Type 0, BuildingBlock: ESEHIV_clean_linker_0, # of connection points: 3
#     Node 6, Type 0, BuildingBlock: ESEHIV_clean_linker_0, # of connection points: 3
#     Node 7, Type 0, BuildingBlock: ESEHIV_clean_linker_0, # of connection points: 3
#     Node 8, Type 1, BuildingBlock: KUMBOL_clean_sbu_1, # of connection points: 6
#     Node 9, Type 1, BuildingBlock: KUMBOL_clean_sbu_1, # of connection points: 6
#     Node 10, Type 1, BuildingBlock: KUMBOL_clean_sbu_1, # of connection points: 6
#     Node 11, Type 1, BuildingBlock: KUMBOL_clean_sbu_1, # of connection points: 6
#     Edge 12, Type (0, 1), BuildingBlock: ZUJKAS_clean_linker_0, # of connection points: 2
#     Edge 13, Type (0, 1), BuildingBlock: ZUJKAS_clean_linker_0, # of connection points: 2
#     Edge 14, Type (0, 1), BuildingBlock: ZUJKAS_clean_linker_0, # of connection points: 2
#     Edge 15, Type (0, 1), BuildingBlock: ZUJKAS_clean_linker_0, # of connection points: 2
#     Edge 16, Type (0, 1), BuildingBlock: ZUJKAS_clean_linker_0, # of connection points: 2
#     Edge 17, Type (0, 1), BuildingBlock: ZUJKAS_clean_linker_0, # of connection points: 2
#     Edge 18, Type (0, 1), BuildingBlock: ZUJKAS_clean_linker_0, # of connection points: 2
#     Edge 19, Type (0, 1), BuildingBlock: ZUJKAS_clean_linker_0, # of connection points: 2
#     Edge 20, Type (0, 1), BuildingBlock: ZUJKAS_clean_linker_0, # of connection points: 2
#     Edge 21, Type (0, 1), BuildingBlock: ZUJKAS_clean_linker_0, # of connection points: 2
#     Edge 22, Type (0, 1), BuildingBlock: ZUJKAS_clean_linker_0, # of connection points: 2
#     Edge 23, Type (0, 1), BuildingBlock: ZUJKAS_clean_linker_0, # of connection points: 2
#     Edge 24, Type (0, 1), BuildingBlock: ZUJKAS_clean_linker_0, # of connection points: 2
#     Edge 25, Type (0, 1), BuildingBlock: ZUJKAS_clean_linker_0, # of connection points: 2
#     Edge 26, Type (0, 1), BuildingBlock: ZUJKAS_clean_linker_0, # of connection points: 2
#     Edge 27, Type (0, 1), BuildingBlock: ZUJKAS_clean_linker_0, # of connection points: 2
#     Edge 28, Type (0, 1), BuildingBlock: ZUJKAS_clean_linker_0, # of connection points: 2
#     Edge 29, Type (0, 1), BuildingBlock: ZUJKAS_clean_linker_0, # of connection points: 2
#     Edge 30, Type (0, 1), BuildingBlock: ZUJKAS_clean_linker_0, # of connection points: 2
#     Edge 31, Type (0, 1), BuildingBlock: ZUJKAS_clean_linker_0, # of connection points: 2
#     Edge 32, Type (0, 1), BuildingBlock: ZUJKAS_clean_linker_0, # of connection points: 2
#     Edge 33, Type (0, 1), BuildingBlock: ZUJKAS_clean_linker_0, # of connection points: 2
#     Edge 34, Type (0, 1), BuildingBlock: ZUJKAS_clean_linker_0, # of connection points: 2
#     Edge 35, Type (0, 1), BuildingBlock: ZUJKAS_clean_linker_0, # of connection points: 2
# Relax obj value: 0.010
# Max RMSD: 0.098
# Mean RMSD: 0.076
data_MOF--net-apo--node1-KUMBOL_clean_sbu_1--node2-ESEHIV_clean_linker_0--edge1-ZUJKAS_clean_linker_0
_symmetry_space_group_name_H-M    P1
_symmetry_Int_Tables_number       1
_symmetry_cell_setting            triclinic
loop_
_symmetry_equiv_pos_as_xyz
'x, y, z'
_cell_length_a     29.731549
_cell_length_b     52.948151
_cell_length_c     64.46355
_cell_angle_alpha  90.04824
_cell_angle_beta   89.958369
_cell_angle_gamma 90.594544
loop_
_atom_site_label
_atom_site_type_symbol
_atom_site_fract_x
_atom_site_fract_y
_atom_site_fract_z
_atom_type_partial_charge
H0 H 0.32212 0.41153 0.43152 0.0
H1 H 0.26574 0.37971 0.37592 0.0
H2 H 0.25909 0.33804 0.43309 0.0
C3 C 0.30451 0.39625 0.42371 0.0
C4 C 0.29144 0.37466 0.43497 0.0
C5 C 0.29537 0.39823 0.4024 0.0
C6 C 0.27282 0.37827 0.39235 0.0
C7 C 0.25979 0.35638 0.40322 0.0
C8 C 0.26907 0.35481 0.42457 0.0
H9 H 0.16796 0.08789 0.93351 0.0
H10 H 0.21793 0.12183 0.87748 0.0
H11 H 0.22725 0.16239 0.93519 0.0
C12 C 0.18319 0.10386 0.92556 0.0
C13 C 0.19629 0.12536 0.93697 0.0
C14 C 0.19084 0.10241 0.9041 0.0
C15 C 0.21197 0.12281 0.89404 0.0
C16 C 0.22547 0.14448 0.9051 0.0
C17 C 0.2177 0.14556 0.92661 0.0
H18 H 0.83678 0.0939 0.58479 0.0
H19 H 0.78108 0.12171 0.6418 0.0
H20 H 0.76967 0.16571 0.58615 0.0
C21 C 0.81866 0.10835 0.59315 0.0
C22 C 0.80426 0.13018 0.58269 0.0
C23 C 0.80997 0.10504 0.61441 0.0
C24 C 0.78739 0.12401 0.62534 0.0
C25 C 0.7731 0.14601 0.61531 0.0
C26 C 0.78113 0.14884 0.59394 0.0
H27 H 0.67821 0.4109 0.07893 0.0
H28 H 0.72415 0.38206 0.13732 0.0
H29 H 0.75231 0.34144 0.08109 0.0
C30 C 0.69618 0.39671 0.08765 0.0
C31 C 0.71446 0.37574 0.07731 0.0
C32 C 0.69951 0.39903 0.1093 0.0
C33 C 0.72173 0.38031 0.12061 0.0
C34 C 0.74092 0.35944 0.11064 0.0
C35 C 0.73692 0.35724 0.08897 0.0
H36 H 0.66885 0.58792 0.58394 0.0
H37 H 0.73029 0.66202 0.58305 0.0
H38 H 0.72565 0.61946 0.63965 0.0
C39 C 0.68532 0.60345 0.59194 0.0
C40 C 0.69549 0.60104 0.61315 0.0
C41 C 0.69775 0.62536 0.58083 0.0
C42 C 0.7206 0.64501 0.59132 0.0
C43 C 0.7315 0.64274 0.61244 0.0
C44 C 0.71857 0.62082 0.6232 0.0
H45 H 0.83286 0.90953 0.08125 0.0
H46 H 0.77297 0.87846 0.13644 0.0
H47 H 0.76078 0.83859 0.07862 0.0
C48 C 0.81383 0.89465 0.08887 0.0
C49 C 0.79777 0.87394 0.07722 0.0
C50 C 0.80533 0.89639 0.11028 0.0
C51 C 0.78009 0.8772 0.11998 0.0
C52 C 0.76393 0.85632 0.1087 0.0
C53 C 0.7731 0.85473 0.08735 0.0
H54 H 0.17002 0.91019 0.42854 0.0
H55 H 0.23645 0.83831 0.4313 0.0
H56 H 0.22916 0.87869 0.37364 0.0
C57 C 0.18814 0.89507 0.42102 0.0
C58 C 0.19746 0.89677 0.3997 0.0
C59 C 0.20194 0.87403 0.43265 0.0
C60 C 0.22573 0.85467 0.4226 0.0
C61 C 0.23606 0.85635 0.40137 0.0
C62 C 0.2216 0.87739 0.39006 0.0
H63 H 0.32664 0.59033 0.93453 0.0
H64 H 0.2676 0.61931 0.87863 0.0
H65 H 0.26479 0.66357 0.9344 0.0
C66 C 0.30952 0.60529 0.92635 0.0
C67 C 0.29736 0.62737 0.93707 0.0
C68 C 0.29858 0.60209 0.90528 0.0
C69 C 0.27513 0.62125 0.89501 0.0
C70 C 0.26262 0.64334 0.90542 0.0
C71 C 0.27407 0.64638 0.9264 0.0
C72 C 0.85251 0.11905 0.2552 0.0
C73 C 0.84294 0.07425 0.26217 0.0
C74 C 0.86749 0.097 0.26434 0.0
C75 C 0.80405 0.07374 0.24983 0.0
C76 C 0.81215 0.11889 0.24371 0.0
C77 C 0.78871 0.09601 0.2406 0.0
N78 N 0.87566 0.14092 0.25877 0.0
C79 C 0.85722 0.16354 0.25346 0.0
C80 C 0.7956 0.14188 0.23642 0.0
C81 C 0.81776 0.16435 0.2417 0.0
Gd82 Gd 0.04589 0.1378 0.23472 0.0
Gd83 Gd 0.94377 0.13689 0.27721 0.0
N84 N 0.90566 0.09797 0.27586 0.0
C85 C 0.85774 0.05285 0.27287 0.0
C86 C 0.91887 0.07766 0.28731 0.0
C87 C 0.89545 0.05469 0.28576 0.0
H88 H 0.94826 0.07914 0.29712 0.0
H89 H 0.9066 0.0384 0.29441 0.0
H90 H 0.0116 0.17891 0.19813 0.0
H91 H 0.87242 0.1811 0.25846 0.0
H92 H 0.03236 0.22143 0.18566 0.0
H93 H 0.83976 0.03501 0.27162 0.0
H94 H 0.78498 0.05637 0.24775 0.0
H95 H 0.13215 0.11767 0.26285 0.0
H96 H 0.76473 0.14258 0.22752 0.0
H97 H 0.80407 0.18233 0.23702 0.0
H98 H 0.1698 0.24087 0.22157 0.0
H99 H 0.75792 0.09549 0.23162 0.0
H100 H 0.23147 0.17684 0.26546 0.0
H101 H 0.20584 0.13384 0.27525 0.0
N102 N 0.1161 0.15151 0.24693 0.0
C103 C 0.13047 0.1746 0.24049 0.0
C104 C 0.14316 0.13648 0.25864 0.0
C105 C 0.19919 0.16984 0.26003 0.0
C106 C 0.18482 0.14556 0.26561 0.0
C107 C 0.1722 0.18458 0.24711 0.0
H108 H 0.21751 0.21685 0.24553 0.0
N109 N 0.0644 0.17738 0.22033 0.0
C110 C 0.10349 0.1881 0.22703 0.0
C111 C 0.09097 0.22441 0.20519 0.0
C112 C 0.11768 0.21201 0.21977 0.0
C113 C 0.04007 0.18855 0.20498 0.0
C114 C 0.05233 0.21244 0.19753 0.0
O115 O 0.95793 0.10386 0.25572 0.0
O116 O 0.97604 0.12513 0.22645 0.0
O117 O 0.07665 0.13443 0.20404 0.0
O118 O 0.0696 0.10131 0.22417 0.0
O119 O 0.00941 0.12026 0.28772 0.0
O120 O 0.04703 0.10604 0.25831 0.0
O121 O 0.05883 0.15592 0.26613 0.0
O122 O 0.98985 0.17093 0.27697 0.0
O123 O 0.95024 0.13219 0.31056 0.0
O124 O 0.89231 0.15093 0.29809 0.0
O125 O 0.97887 0.15532 0.22679 0.0
O126 O 0.95131 0.1721 0.25718 0.0
C127 C 0.95867 0.10525 0.23544 0.0
C128 C 0.03748 0.10491 0.27832 0.0
C129 C 0.1044 0.09439 0.19045 0.0
C130 C 0.13264 0.08826 0.15513 0.0
C131 C 0.13591 0.0541 0.18031 0.0
C132 C 0.11616 0.06946 0.19526 0.0
C133 C 0.14408 0.06335 0.1604 0.0
C134 C 0.1127 0.10372 0.17032 0.0
C135 C 0.08312 0.11034 0.20642 0.0
C136 C 0.15853 0.22244 0.22686 0.0
C137 C 0.18575 0.20875 0.24047 0.0
H138 H 0.10064 0.24282 0.19924 0.0
C139 C 0.03404 0.17112 0.27742 0.0
C140 C 0.95759 0.17315 0.23695 0.0
C141 C 0.91782 0.16376 0.33116 0.0
C142 C 0.91274 0.17505 0.36785 0.0
C143 C 0.9381 0.20608 0.3424 0.0
C144 C 0.93272 0.18834 0.32654 0.0
C145 C 0.92826 0.19953 0.36292 0.0
C146 C 0.90772 0.15722 0.35176 0.0
C147 C 0.91384 0.14453 0.31479 0.0
H148 H 0.14469 0.03487 0.18414 0.0
H149 H 0.11009 0.06178 0.21059 0.0
H150 H 0.15868 0.05081 0.14901 0.0
H151 H 0.10383 0.12297 0.1665 0.0
H152 H 0.94989 0.22497 0.33878 0.0
H153 H 0.94069 0.19369 0.31073 0.0
H154 H 0.93213 0.21375 0.37489 0.0
H155 H 0.89661 0.13813 0.35528 0.0
C156 C 0.63577 0.39791 0.76749 0.0
C157 C 0.62486 0.4402 0.7808 0.0
C158 C 0.61003 0.41496 0.77855 0.0
C159 C 0.66499 0.44815 0.77117 0.0
C160 C 0.67662 0.40559 0.75823 0.0
C161 C 0.69085 0.43087 0.75994 0.0
N162 N 0.62047 0.37377 0.76559 0.0
C163 C 0.64544 0.35596 0.75569 0.0
C164 C 0.70188 0.3876 0.74751 0.0
C165 C 0.68637 0.36263 0.74639 0.0
Gd166 Gd 0.44689 0.35953 0.74073 0.0
Gd167 Gd 0.55155 0.36407 0.78145 0.0
N168 N 0.57137 0.40664 0.78769 0.0
C169 C 0.59951 0.45654 0.7931 0.0
C170 C 0.54868 0.42197 0.80102 0.0
C171 C 0.56168 0.44725 0.80355 0.0
H172 H 0.52141 0.41467 0.81027 0.0
H173 H 0.54302 0.4594 0.81387 0.0
H174 H 0.46193 0.30282 0.72009 0.0
H175 H 0.63391 0.33659 0.75507 0.0
H176 H 0.42524 0.26056 0.72054 0.0
H177 H 0.60974 0.47607 0.79524 0.0
H178 H 0.67671 0.46752 0.77261 0.0
H179 H 0.37052 0.39957 0.76157 0.0
H180 H 0.73351 0.39273 0.74021 0.0
H181 H 0.70595 0.34851 0.73839 0.0
H182 H 0.29615 0.27157 0.76444 0.0
H183 H 0.72197 0.4372 0.75279 0.0
H184 H 0.26474 0.35523 0.78837 0.0
H185 H 0.30072 0.39681 0.78189 0.0
N186 N 0.3778 0.35971 0.75879 0.0
C187 C 0.35691 0.33687 0.76096 0.0
C188 C 0.3569 0.38118 0.76528 0.0
C189 C 0.29629 0.35625 0.77997 0.0
C190 C 0.31657 0.37974 0.77641 0.0
C191 C 0.31577 0.3345 0.77173 0.0
H192 H 0.26318 0.30853 0.78165 0.0
N193 N 0.41461 0.319 0.74076 0.0
C194 C 0.37538 0.31599 0.75132 0.0
C195 C 0.37195 0.27211 0.74107 0.0
C196 C 0.35334 0.29232 0.75205 0.0
C197 C 0.43188 0.29975 0.72922 0.0
C198 C 0.4111 0.27594 0.7294 0.0
O199 O 0.55868 0.37995 0.74889 0.0
O200 O 0.48858 0.39531 0.74205 0.0
O201 O 0.45437 0.35746 0.70713 0.0
O202 O 0.39473 0.37366 0.72043 0.0
O203 O 0.48474 0.38056 0.79135 0.0
O204 O 0.45026 0.39436 0.76131 0.0
O205 O 0.46223 0.32759 0.76291 0.0
O206 O 0.48453 0.34858 0.79198 0.0
O207 O 0.57594 0.36788 0.81293 0.0
O208 O 0.5878 0.33324 0.79606 0.0
O209 O 0.51358 0.34355 0.73051 0.0
O210 O 0.54931 0.32958 0.76045 0.0
C211 C 0.53248 0.39667 0.74019 0.0
C212 C 0.45737 0.39581 0.78147 0.0
C213 C 0.38626 0.35169 0.68884 0.0
C214 C 0.36287 0.34257 0.65327 0.0
C215 C 0.32974 0.3193 0.68208 0.0
C216 C 0.35574 0.33328 0.69603 0.0
C217 C 0.33328 0.32383 0.66084 0.0
C218 C 0.38953 0.35641 0.66743 0.0
C219 C 0.4144 0.36619 0.70352 0.0
C220 C 0.31332 0.28968 0.76345 0.0
C221 C 0.29462 0.31072 0.7733 0.0
H222 H 0.35599 0.25362 0.74122 0.0
C223 C 0.46297 0.32984 0.78312 0.0
C224 C 0.54167 0.32845 0.74024 0.0
C225 C 0.63907 0.34475 0.82313 0.0
C226 C 0.68323 0.34704 0.85512 0.0
C227 C 0.72028 0.34164 0.8217 0.0
C228 C 0.67872 0.34196 0.81161 0.0
C229 C 0.72264 0.34416 0.84328 0.0
C230 C 0.64152 0.34721 0.84481 0.0
C231 C 0.59458 0.34582 0.8132 0.0
H232 H 0.30637 0.30511 0.68778 0.0
H233 H 0.35154 0.32986 0.7124 0.0
H234 H 0.31197 0.3131 0.65035 0.0
H235 H 0.4128 0.37076 0.66183 0.0
H236 H 0.75084 0.33957 0.81275 0.0
H237 H 0.67763 0.3401 0.79491 0.0
H238 H 0.75538 0.34427 0.85064 0.0
H239 H 0.61069 0.3491 0.85364 0.0
C240 C 0.86416 0.82583 0.76587 0.0
C241 C 0.87423 0.7855 0.7828 0.0
C242 C 0.88897 0.81042 0.77876 0.0
C243 C 0.83549 0.77605 0.77287 0.0
C244 C 0.82418 0.81687 0.75658 0.0
C245 C 0.81044 0.79173 0.75983 0.0
N246 N 0.8787 0.8499 0.76278 0.0
C247 C 0.8533 0.86668 0.75195 0.0
C248 C 0.79891 0.83361 0.74459 0.0
C249 C 0.81323 0.85872 0.74251 0.0
Gd250 Gd 0.0536 0.85948 0.73878 0.0
Gd251 Gd 0.9468 0.86167 0.77839 0.0
N252 N 0.92589 0.8203 0.78834 0.0
C253 C 0.89793 0.77115 0.79728 0.0
C254 C 0.94652 0.80715 0.8038 0.0
C255 C 0.9337 0.78221 0.80812 0.0
H256 H 0.97245 0.81589 0.81313 0.0
H257 H 0.95096 0.77169 0.82004 0.0
H258 H 0.05459 0.91651 0.71742 0.0
H259 H 0.86458 0.88606 0.75031 0.0
H260 H 0.09984 0.95609 0.71907 0.0
H261 H 0.88774 0.75193 0.80082 0.0
H262 H 0.82392 0.75687 0.77562 0.0
H263 H 0.12091 0.81439 0.75838 0.0
H264 H 0.76797 0.82745 0.73719 0.0
H265 H 0.79354 0.87191 0.73358 0.0
H266 H 0.21869 0.93681 0.76688 0.0
H267 H 0.78003 0.7844 0.75268 0.0
H268 H 0.23151 0.85077 0.78893 0.0
H269 H 0.18913 0.81183 0.77991 0.0
N270 N 0.12084 0.85454 0.75765 0.0
C271 C 0.14556 0.8759 0.761 0.0
C272 C 0.13746 0.83161 0.76328 0.0
C273 C 0.20066 0.85206 0.78007 0.0
C274 C 0.17679 0.83005 0.77507 0.0
C275 C 0.18594 0.8753 0.77245 0.0
H276 H 0.24219 0.89756 0.78401 0.0
N277 N 0.09455 0.89756 0.73969 0.0
C278 C 0.13245 0.89802 0.75142 0.0
C279 C 0.14664 0.94134 0.74144 0.0
C280 C 0.15912 0.92009 0.75293 0.0
C281 C 0.08356 0.91766 0.72751 0.0
C282 C 0.10912 0.93997 0.72839 0.0
O283 O 0.9388 0.84697 0.74558 0.0
O284 O 0.00492 0.82649 0.73979 0.0
O285 O 0.04841 0.8616 0.70509 0.0
O286 O 0.10387 0.84216 0.7191 0.0
O287 O 0.01144 0.84354 0.78927 0.0
O288 O 0.04186 0.82565 0.75987 0.0
O289 O 0.04197 0.89329 0.7598 0.0
O290 O 0.01541 0.87421 0.78897 0.0
O291 O 0.91204 0.86289 0.80834 0.0
O292 O 0.91953 0.89707 0.7895 0.0
O293 O 0.99207 0.8797 0.727 0.0
O294 O 0.95291 0.89453 0.75587 0.0
C295 C 0.96132 0.82838 0.73724 0.0
C296 C 0.03549 0.826 0.78009 0.0
C297 C 0.11875 0.86479 0.68832 0.0
C298 C 0.14244 0.87768 0.65361 0.0
C299 C 0.18261 0.89328 0.68392 0.0
C300 C 0.15402 0.87935 0.69678 0.0
C301 C 0.17682 0.89257 0.66247 0.0
C302 C 0.11335 0.86379 0.66667 0.0
C303 C 0.08716 0.85106 0.70202 0.0
C304 C 0.198 0.91996 0.76529 0.0
C305 C 0.21133 0.89761 0.77508 0.0
H306 H 0.16635 0.95864 0.74212 0.0
C307 C 0.03715 0.89279 0.78001 0.0
C308 C 0.96486 0.89588 0.73611 0.0
C309 C 0.88014 0.90175 0.8223 0.0
C310 C 0.85697 0.90904 0.85825 0.0
C311 C 0.83724 0.93899 0.83119 0.0
C312 C 0.85933 0.92434 0.81647 0.0
C313 C 0.83608 0.93148 0.85191 0.0
C314 C 0.87854 0.89402 0.84322 0.0
C315 C 0.90451 0.88694 0.80657 0.0
H316 H 0.20954 0.90454 0.69059 0.0
H317 H 0.15965 0.87994 0.71332 0.0
H318 H 0.19988 0.90326 0.65276 0.0
H319 H 0.08639 0.85247 0.66002 0.0
H320 H 0.82105 0.9563 0.82653 0.0
H321 H 0.86004 0.93066 0.80049 0.0
H322 H 0.81846 0.9432 0.86297 0.0
H323 H 0.89519 0.87682 0.84788 0.0
C324 C 0.64132 0.67174 0.25853 0.0
C325 C 0.63183 0.71408 0.27206 0.0
C326 C 0.61705 0.68874 0.27043 0.0
C327 C 0.66963 0.72229 0.26073 0.0
C328 C 0.67992 0.67974 0.24754 0.0
C329 C 0.69359 0.70517 0.2485 0.0
N330 N 0.62653 0.6474 0.25735 0.0
C331 C 0.64969 0.62983 0.24625 0.0
C332 C 0.70347 0.66193 0.23582 0.0
C333 C 0.68844 0.63684 0.23528 0.0
Gd334 Gd 0.44787 0.63894 0.24038 0.0
Gd335 Gd 0.56062 0.63747 0.27567 0.0
N336 N 0.58026 0.6803 0.28109 0.0
C337 C 0.60904 0.73024 0.28554 0.0
C338 C 0.56122 0.69531 0.29585 0.0
C339 C 0.57424 0.72065 0.29785 0.0
H340 H 0.53687 0.68779 0.30663 0.0
H341 H 0.55807 0.7326 0.30919 0.0
H342 H 0.46329 0.57721 0.22863 0.0
H343 H 0.63796 0.61045 0.24577 0.0
H344 H 0.42371 0.53675 0.23354 0.0
H345 H 0.61937 0.74982 0.28726 0.0
H346 H 0.68112 0.74175 0.26164 0.0
H347 H 0.37888 0.68329 0.25837 0.0
H348 H 0.7333 0.66734 0.22717 0.0
H349 H 0.70655 0.62292 0.22635 0.0
H350 H 0.28474 0.5593 0.26614 0.0
H351 H 0.72292 0.71173 0.24001 0.0
H352 H 0.25923 0.64676 0.28077 0.0
H353 H 0.30422 0.68575 0.27513 0.0
N354 N 0.37677 0.6434 0.25546 0.0
C355 C 0.35225 0.62179 0.25796 0.0
C356 C 0.35991 0.66619 0.26127 0.0
C357 C 0.29209 0.64559 0.27357 0.0
C358 C 0.31744 0.66763 0.27049 0.0
C359 C 0.30932 0.6223 0.26725 0.0
H360 H 0.25219 0.59964 0.27725 0.0
N361 N 0.41288 0.59901 0.2434 0.0
C362 C 0.37065 0.59897 0.25163 0.0
C363 C 0.36616 0.55356 0.24816 0.0
C364 C 0.34647 0.57618 0.25451 0.0
C365 C 0.43134 0.57713 0.23637 0.0
C366 C 0.40859 0.55409 0.23888 0.0
O367 O 0.56334 0.65261 0.24277 0.0
O368 O 0.49576 0.67227 0.23895 0.0
O369 O 0.44471 0.63147 0.20727 0.0
O370 O 0.39908 0.65814 0.22116 0.0
O371 O 0.49675 0.65483 0.28869 0.0
O372 O 0.46325 0.67293 0.26017 0.0
O373 O 0.44364 0.6198 0.27176 0.0
O374 O 0.51412 0.60371 0.27751 0.0
O375 O 0.57417 0.63658 0.30929 0.0
O376 O 0.61565 0.61545 0.28752 0.0
O377 O 0.50758 0.61756 0.22771 0.0
O378 O 0.55117 0.60328 0.25516 0.0
C379 C 0.5388 0.67057 0.23479 0.0
C380 C 0.46992 0.6717 0.2803 0.0
C381 C 0.42251 0.66589 0.1868 0.0
C382 C 0.41724 0.67596 0.1499 0.0
C383 C 0.45327 0.70542 0.17388 0.0
C384 C 0.4446 0.689 0.19033 0.0
C385 C 0.43987 0.69898 0.15378 0.0
C386 C 0.40888 0.65942 0.16661 0.0
C387 C 0.41384 0.64829 0.20399 0.0
C388 C 0.30371 0.57664 0.26376 0.0
C389 C 0.28518 0.59962 0.27009 0.0
H390 H 0.34874 0.53565 0.25016 0.0
C391 C 0.47052 0.60345 0.28051 0.0
C392 C 0.53801 0.60238 0.23564 0.0
C393 C 0.63636 0.61168 0.3237 0.0
C394 C 0.65333 0.60617 0.36056 0.0
C395 C 0.6982 0.58498 0.33441 0.0
C396 C 0.67221 0.59561 0.31879 0.0
C397 C 0.68876 0.59008 0.35514 0.0
C398 C 0.62734 0.61722 0.34473 0.0
C399 C 0.60801 0.62148 0.3067 0.0
H400 H 0.47036 0.72322 0.17673 0.0
H401 H 0.45493 0.69436 0.20582 0.0
H402 H 0.4476 0.71196 0.14127 0.0
H403 H 0.3912 0.64169 0.16404 0.0
H404 H 0.72566 0.57261 0.33043 0.0
H405 H 0.68007 0.59102 0.30283 0.0
H406 H 0.70951 0.5816 0.367 0.0
H407 H 0.59974 0.62949 0.34879 0.0
H408 H 0.20266 0.94696 0.40985 0.0
H409 H 0.17689 0.98296 0.38926 0.0
H410 H 0.13233 0.93209 0.34105 0.0
H411 H 0.15722 0.89603 0.36163 0.0
H412 H 0.20395 0.99651 0.34726 0.0
H413 H 0.02083 0.97611 0.35468 0.0
H414 H 0.06209 0.96261 0.37185 0.0
H415 H 0.05454 0.95007 0.34618 0.0
C416 C 0.18698 0.94346 0.39495 0.0
C417 C 0.18184 0.91868 0.38738 0.0
C418 C 0.17259 0.96401 0.38317 0.0
C419 C 0.15242 0.96011 0.36375 0.0
C420 C 0.14741 0.93544 0.3561 0.0
H421 H 0.09634 0.0683 0.26566 0.0
H422 H 0.12645 0.03365 0.28639 0.0
C423 C 0.16195 0.91491 0.36781 0.0
C424 C 0.13674 0.98184 0.35139 0.0
H425 H 0.04231 0.00874 0.33151 0.0
C426 C 0.16864 0.99926 0.34382 0.0
C427 C 0.09062 0.98539 0.3471 0.0
C428 C 0.05488 0.96771 0.35549 0.0
C429 C 0.15558 0.02005 0.33181 0.0
C430 C 0.10953 0.02332 0.32719 0.0
C431 C 0.07764 0.00605 0.33497 0.0
C432 C 0.09339 0.04492 0.31479 0.0
C433 C 0.19097 0.03859 0.32441 0.0
C434 C 0.06467 0.06259 0.32388 0.0
C435 C 0.04739 0.08236 0.31213 0.0
C436 C 0.05818 0.08475 0.29095 0.0
C437 C 0.08742 0.06711 0.28193 0.0
C438 C 0.10483 0.04734 0.29376 0.0
H439 H 0.22325 0.03636 0.33286 0.0
H440 H 0.19738 0.03542 0.30766 0.0
H441 H 0.17932 0.05831 0.32637 0.0
H442 H 0.05537 0.06097 0.34008 0.0
H443 H 0.025 0.09552 0.31965 0.0
H444 H 0.24936 0.57528 0.87675 0.0
H445 H 0.2736 0.53945 0.85586 0.0
H446 H 0.40183 0.54028 0.8871 0.0
H447 H 0.37857 0.57694 0.90747 0.0
H448 H 0.41068 0.53715 0.84512 0.0
H449 H 0.28583 0.46619 0.87254 0.0
H450 H 0.26059 0.4945 0.86291 0.0
H451 H 0.29535 0.49585 0.88573 0.0
C452 C 0.28277 0.56789 0.87917 0.0
C453 C 0.31207 0.57903 0.89377 0.0
C454 C 0.29636 0.54719 0.86738 0.0
C455 C 0.33926 0.53696 0.87013 0.0
C456 C 0.36844 0.5478 0.88484 0.0
H457 H 0.43851 0.39549 0.82277 0.0
H458 H 0.40863 0.43002 0.84364 0.0
C459 C 0.35496 0.56861 0.89658 0.0
C460 C 0.35441 0.51568 0.857 0.0
H461 H 0.32865 0.45513 0.8427 0.0
C462 C 0.39286 0.51917 0.84464 0.0
C463 C 0.33131 0.49218 0.85654 0.0
C464 C 0.29124 0.48681 0.87029 0.0
C465 C 0.40866 0.49988 0.83169 0.0
C466 C 0.38473 0.47667 0.83074 0.0
C467 C 0.34654 0.47308 0.84325 0.0
C468 C 0.40018 0.45542 0.81768 0.0
C469 C 0.45144 0.50433 0.81954 0.0
C470 C 0.40417 0.458 0.79607 0.0
C471 C 0.42157 0.43834 0.78411 0.0
C472 C 0.43496 0.41575 0.79359 0.0
C473 C 0.42896 0.41281 0.81509 0.0
C474 C 0.41179 0.43248 0.82702 0.0
H475 H 0.47146 0.52038 0.82591 0.0
H476 H 0.47269 0.48721 0.81953 0.0
H477 H 0.44283 0.50886 0.80323 0.0
H478 H 0.39444 0.47536 0.78851 0.0
H479 H 0.42568 0.44107 0.76756 0.0
H480 H 0.61613 0.57424 0.61064 0.0
H481 H 0.59216 0.5382 0.63189 0.0
H482 H 0.71923 0.54014 0.66402 0.0
H483 H 0.74395 0.57576 0.64259 0.0
H484 H 0.63613 0.48912 0.63849 0.0
H485 H 0.62017 0.54707 0.7101 0.0
H486 H 0.62209 0.56086 0.68449 0.0
H487 H 0.67274 0.54982 0.69642 0.0
C488 C 0.63928 0.56677 0.62199 0.0
C489 C 0.68182 0.57808 0.62503 0.0
C490 C 0.62542 0.54626 0.63419 0.0
C491 C 0.6537 0.5368 0.6497 0.0
C492 C 0.69664 0.54747 0.65235 0.0
H493 H 0.61528 0.39809 0.72158 0.0
H494 H 0.64714 0.43199 0.70008 0.0
C495 C 0.71061 0.56788 0.64013 0.0
C496 C 0.63789 0.51612 0.66344 0.0
H497 H 0.60804 0.50311 0.7135 0.0
C498 C 0.63007 0.4921 0.6549 0.0
C499 C 0.62972 0.52022 0.68479 0.0
C500 C 0.63623 0.5459 0.69457 0.0
C501 C 0.61442 0.47196 0.66722 0.0
C502 C 0.60671 0.476 0.68862 0.0
C503 C 0.61437 0.50006 0.69712 0.0
C504 C 0.58859 0.4558 0.70224 0.0
C505 C 0.60526 0.44667 0.65719 0.0
C506 C 0.54567 0.45827 0.71101 0.0
C507 C 0.52762 0.43908 0.72343 0.0
C508 C 0.55235 0.41715 0.72747 0.0
C509 C 0.59566 0.41489 0.71895 0.0
C510 C 0.6137 0.43411 0.70649 0.0
H511 H 0.60455 0.44799 0.63999 0.0
H512 H 0.63216 0.43334 0.66162 0.0
H513 H 0.57267 0.43866 0.66263 0.0
H514 H 0.52586 0.47493 0.70799 0.0
H515 H 0.49427 0.44145 0.72988 0.0
H516 H 0.84266 0.89568 0.14908 0.0
H517 H 0.86773 0.93163 0.17003 0.0
H518 H 0.83431 0.98229 0.12015 0.0
H519 H 0.80728 0.94652 0.0994 0.0
H520 H 0.93417 0.96661 0.16276 0.0
H521 H 0.7687 0.01364 0.16888 0.0
H522 H 0.77445 0.98171 0.15953 0.0
H523 H 0.78647 0.00799 0.14269 0.0
C524 C 0.84007 0.9145 0.14264 0.0
C525 C 0.8225 0.91823 0.12262 0.0
C526 C 0.85474 0.935 0.15459 0.0
C527 C 0.85215 0.95967 0.14681 0.0
C528 C 0.8357 0.96346 0.12665 0.0
H529 H 0.93361 0.10623 0.19485 0.0
H530 H 0.90811 0.07066 0.1734 0.0
C531 C 0.82082 0.94295 0.1147 0.0
C532 C 0.86723 0.98133 0.15976 0.0
H533 H 0.83196 0.03642 0.18178 0.0
C534 C 0.91179 0.98182 0.16698 0.0
C535 C 0.83791 0.00114 0.16529 0.0
C536 C 0.7891 0.00106 0.15888 0.0
C537 C 0.92799 0.00177 0.17934 0.0
C538 C 0.89873 0.02157 0.18476 0.0
C539 C 0.85425 0.02117 0.17753 0.0
C540 C 0.91378 0.04298 0.19788 0.0
C541 C 0.97648 0.00177 0.18625 0.0
C542 C 0.92493 0.03915 0.21878 0.0
C543 C 0.93949 0.05941 0.23106 0.0
C544 C 0.94292 0.08381 0.22264 0.0
C545 C 0.93147 0.0876 0.20173 0.0
C546 C 0.91676 0.06736 0.18949 0.0
H547 H 0.9968 0.98796 0.17738 0.0
H548 H 0.99186 0.02085 0.18443 0.0
H549 H 0.97806 0.99665 0.20292 0.0
H550 H 0.92239 0.02049 0.22558 0.0
H551 H 0.94867 0.05589 0.24703 0.0
H552 H 0.89208 0.08223 0.61243 0.0
H553 H 0.91741 0.04542 0.63218 0.0
H554 H 0.78725 0.03955 0.66142 0.0
H555 H 0.76154 0.07606 0.64159 0.0
H556 H 0.91801 0.04145 0.67706 0.0
H557 H 0.81284 0.96713 0.63938 0.0
H558 H 0.82396 0.99743 0.62746 0.0
H559 H 0.78314 0.99467 0.64789 0.0
C560 C 0.8687 0.07285 0.62284 0.0
C561 C 0.82483 0.082 0.62547 0.0
C562 C 0.88327 0.05196 0.63418 0.0
C563 C 0.85406 0.03969 0.64811 0.0
C564 C 0.81012 0.04859 0.65057 0.0
H565 H 0.91689 0.93701 0.74907 0.0
H566 H 0.88981 0.97203 0.72783 0.0
C567 C 0.79562 0.06954 0.63935 0.0
C568 C 0.86998 0.01818 0.66068 0.0
H569 H 0.8529 0.95524 0.66959 0.0
C570 C 0.9039 0.02258 0.67541 0.0
C571 C 0.8516 0.99361 0.65838 0.0
C572 C 0.81611 0.98775 0.64232 0.0
C573 C 0.91954 0.00305 0.68814 0.0
C574 C 0.90051 0.97859 0.68613 0.0
C575 C 0.86706 0.97411 0.6712 0.0
C576 C 0.91591 0.95723 0.69899 0.0
C577 C 0.95669 0.00858 0.70347 0.0
C578 C 0.93876 0.93715 0.68971 0.0
C579 C 0.95431 0.91716 0.70176 0.0
C580 C 0.94694 0.91674 0.72333 0.0
C581 C 0.92322 0.93671 0.73252 0.0
C582 C 0.90789 0.9568 0.72044 0.0
H583 H 0.97353 0.02702 0.70036 0.0
H584 H 0.94236 0.00914 0.71936 0.0
H585 H 0.98233 0.99348 0.70307 0.0
H586 H 0.9451 0.93713 0.67316 0.0
H587 H 0.97229 0.90209 0.69411 0.0
H588 H 0.64826 0.39844 0.14442 0.0
H589 H 0.62103 0.43464 0.1642 0.0
H590 H 0.67955 0.48536 0.11911 0.0
H591 H 0.70754 0.44911 0.09932 0.0
H592 H 0.70061 0.49671 0.1619 0.0
H593 H 0.51746 0.48297 0.14869 0.0
H594 H 0.54626 0.45527 0.15745 0.0
H595 H 0.55961 0.4685 0.1325 0.0
C596 C 0.65521 0.41731 0.13868 0.0
C597 C 0.68007 0.42098 0.12034 0.0
C598 C 0.63937 0.43794 0.14991 0.0
C599 C 0.64799 0.46263 0.14301 0.0
C600 C 0.67242 0.46641 0.12462 0.0
H601 H 0.52485 0.5969 0.19391 0.0
H602 H 0.55398 0.56407 0.1712 0.0
C603 C 0.68809 0.44573 0.11328 0.0
C604 C 0.63277 0.48441 0.15549 0.0
H605 H 0.53877 0.51237 0.17487 0.0
C606 C 0.66524 0.50029 0.16464 0.0
C607 C 0.58663 0.48908 0.15889 0.0
C608 C 0.55038 0.47322 0.14874 0.0
C609 C 0.65273 0.52043 0.17754 0.0
C610 C 0.6066 0.52455 0.18151 0.0
C611 C 0.57415 0.50901 0.17195 0.0
C612 C 0.59103 0.54505 0.19534 0.0
C613 C 0.68892 0.53725 0.18667 0.0
C614 C 0.60218 0.54523 0.2165 0.0
C615 C 0.58553 0.56402 0.22961 0.0
C616 C 0.5572 0.58288 0.22179 0.0
C617 C 0.54645 0.58268 0.20053 0.0
C618 C 0.56308 0.56392 0.18748 0.0
H619 H 0.72122 0.53554 0.17812 0.0
H620 H 0.67853 0.55733 0.1865 0.0
H621 H 0.69484 0.5317 0.20302 0.0
H622 H 0.62306 0.53055 0.22295 0.0
H623 H 0.59433 0.56352 0.24591 0.0
H624 H 0.37578 0.42367 0.40521 0.0
H625 H 0.40108 0.46011 0.38489 0.0
H626 H 0.27494 0.46001 0.35194 0.0
H627 H 0.24892 0.42383 0.37247 0.0
H628 H 0.35306 0.4622 0.32619 0.0
H629 H 0.35785 0.53413 0.38893 0.0
H630 H 0.38693 0.50543 0.3948 0.0
H631 H 0.32699 0.5047 0.39128 0.0
C632 C 0.35307 0.43165 0.39391 0.0
C633 C 0.31026 0.42087 0.39051 0.0
C634 C 0.36764 0.45244 0.38228 0.0
C635 C 0.33967 0.46287 0.36709 0.0
C636 C 0.29695 0.45222 0.36364 0.0
H637 H 0.3877 0.60265 0.29887 0.0
H638 H 0.35356 0.56838 0.31912 0.0
C639 C 0.28227 0.43149 0.37531 0.0
C640 C 0.35577 0.48427 0.35425 0.0
H641 H 0.39248 0.5455 0.35691 0.0
C642 C 0.36143 0.48047 0.33286 0.0
C643 C 0.36617 0.50812 0.363 0.0
C644 C 0.35885 0.51352 0.38573 0.0
C645 C 0.37851 0.49973 0.32006 0.0
C646 C 0.39046 0.52324 0.32897 0.0
C647 C 0.38361 0.52731 0.35023 0.0
C648 C 0.41085 0.54374 0.31647 0.0
C649 C 0.38362 0.49491 0.29712 0.0
C650 C 0.45442 0.54119 0.30846 0.0
C651 C 0.47404 0.56071 0.29691 0.0
C652 C 0.45027 0.58304 0.29314 0.0
C653 C 0.40668 0.58556 0.30133 0.0
C654 C 0.38718 0.56608 0.31295 0.0
H655 H 0.36455 0.47783 0.29206 0.0
H656 H 0.37193 0.5114 0.28802 0.0
H657 H 0.4197 0.49205 0.29346 0.0
H658 H 0.47333 0.52415 0.31124 0.0
H659 H 0.50762 0.55818 0.29076 0.0
H660 H 0.11222 0.07539 0.90775 0.0
H661 H 0.08803 0.03859 0.88752 0.0
H662 H 0.21157 0.04202 0.85249 0.0
H663 H 0.23679 0.07819 0.87317 0.0
H664 H 0.07403 0.03576 0.84554 0.0
H665 H 0.20536 0.96808 0.86944 0.0
H666 H 0.1956 0.99728 0.88312 0.0
H667 H 0.22757 0.99727 0.85942 0.0
C668 C 0.1346 0.06805 0.89599 0.0
C669 C 0.17651 0.0797 0.89212 0.0
C670 C 0.12059 0.04713 0.88435 0.0
C671 C 0.14824 0.03738 0.86868 0.0
C672 C 0.19005 0.04894 0.86476 0.0
H673 H 0.06015 0.94043 0.76732 0.0
H674 H 0.08865 0.9753 0.7886 0.0
C675 C 0.20416 0.06981 0.87643 0.0
C676 C 0.13251 0.01573 0.85592 0.0
H677 H 0.15886 0.95575 0.84107 0.0
C678 C 0.09247 0.01823 0.84461 0.0
C679 C 0.15641 0.99279 0.85491 0.0
C680 C 0.19839 0.98852 0.86752 0.0
C681 C 0.07593 0.99852 0.83211 0.0
C682 C 0.10059 0.97588 0.83059 0.0
C683 C 0.1403 0.97324 0.8421 0.0
C684 C 0.08516 0.95451 0.81747 0.0
C685 C 0.0318 0.00194 0.82095 0.0
C686 C 0.07509 0.93104 0.82653 0.0
C687 C 0.05961 0.91095 0.81432 0.0
C688 C 0.05423 0.91395 0.79281 0.0
C689 C 0.06473 0.9374 0.78376 0.0
C690 C 0.08041 0.95745 0.79596 0.0
H691 H 0.01175 0.01739 0.82789 0.0
H692 H 0.03856 0.00686 0.80451 0.0
H693 H 0.01137 0.98427 0.82126 0.0
H694 H 0.07868 0.92836 0.84311 0.0
H695 H 0.05192 0.89307 0.82174 0.0
H696 H 0.12043 0.11026 0.95774 0.0
H697 H 0.10828 0.10885 0.99522 0.0
H698 H 0.24005 0.14138 1.00522 0.0
H699 H 0.2527 0.14265 0.96767 0.0
H700 H 0.16067 0.08178 0.02292 0.0
H701 H 0.15903 0.18362 0.04351 0.0
H702 H 0.15163 0.17242 0.01723 0.0
H703 H 0.20685 0.17399 0.02849 0.0
C704 C 0.14683 0.11718 0.96789 0.0
C705 C 0.18766 0.12643 0.95971 0.0
C706 C 0.1397 0.1165 0.9893 0.0
C707 C 0.17305 0.12523 1.003 0.0
C708 C 0.21348 0.13501 0.99492 0.0
H709 H 0.20682 0.08096 0.13085 0.0
H710 H 0.21647 0.09176 0.09425 0.0
C711 C 0.22068 0.13569 0.97345 0.0
C712 C 0.16673 0.1222 0.0257 0.0
H713 H 0.16156 0.15443 0.07161 0.0
C714 C 0.1607 0.09768 0.03354 0.0
C715 C 0.16639 0.14299 0.03951 0.0
C716 C 0.17091 0.16978 0.03181 0.0
C717 C 0.15512 0.09333 0.05485 0.0
C718 C 0.15613 0.11402 0.06873 0.0
C719 C 0.16124 0.13861 0.06091 0.0
C720 C 0.15216 0.11013 0.09142 0.0
C721 C 0.14789 0.0666 0.06236 0.0
C722 C 0.11343 0.11768 0.10211 0.0
C723 C 0.10766 0.11142 0.12307 0.0
C724 C 0.14064 0.09754 0.13364 0.0
C725 C 0.18037 0.09118 0.12306 0.0
C726 C 0.18605 0.09742 0.10217 0.0
H727 H 0.13823 0.05363 0.04952 0.0
H728 H 0.17955 0.05963 0.06932 0.0
H729 H 0.12132 0.06583 0.07447 0.0
H730 H 0.08693 0.12755 0.09405 0.0
H731 H 0.0766 0.1165 0.13072 0.0
H732 H 0.28576 0.4118 0.4645 0.0
H733 H 0.30505 0.40906 0.50127 0.0
H734 H 0.33735 0.33039 0.49357 0.0
H735 H 0.32038 0.33327 0.45659 0.0
H736 H 0.26784 0.38041 0.53126 0.0
H737 H 0.44779 0.35619 0.52339 0.0
H738 H 0.41477 0.36737 0.50185 0.0
H739 H 0.4116 0.33473 0.50958 0.0
C740 C 0.2977 0.39401 0.47054 0.0
C741 C 0.30183 0.3728 0.45751 0.0
C742 C 0.30843 0.39244 0.4916 0.0
C743 C 0.32352 0.36966 0.5001 0.0
C744 C 0.32689 0.34834 0.48725 0.0
H745 H 0.36682 0.30873 0.62136 0.0
H746 H 0.3603 0.31743 0.5842 0.0
C747 C 0.31646 0.34992 0.46616 0.0
C748 C 0.33395 0.36794 0.52256 0.0
H749 H 0.41504 0.35026 0.55701 0.0
C750 C 0.3002 0.37411 0.53689 0.0
C751 C 0.37629 0.35982 0.5299 0.0
C752 C 0.41483 0.3544 0.51538 0.0
C753 C 0.30707 0.3715 0.55832 0.0
C754 C 0.34891 0.36269 0.56559 0.0
C755 C 0.38298 0.35697 0.55133 0.0
C756 C 0.35688 0.35796 0.5879 0.0
C757 C 0.26904 0.37738 0.57301 0.0
C758 C 0.35836 0.37796 0.6022 0.0
C759 C 0.36214 0.37305 0.62345 0.0
C760 C 0.36429 0.34805 0.63071 0.0
C761 C 0.36462 0.32816 0.61624 0.0
C762 C 0.36112 0.33309 0.59503 0.0
H763 H 0.23659 0.37983 0.56476 0.0
H764 H 0.26495 0.36209 0.58467 0.0
H765 H 0.27693 0.39514 0.58147 0.0
H766 H 0.35561 0.39731 0.59694 0.0
H767 H 0.36159 0.38874 0.63424 0.0
H768 H 0.72417 0.41249 0.04766 0.0
H769 H 0.71616 0.40804 0.01003 0.0
H770 H 0.6881 0.3285 0.01741 0.0
H771 H 0.69474 0.33291 0.05506 0.0
H772 H 0.76549 0.37776 0.98321 0.0
H773 H 0.58413 0.35211 0.98074 0.0
H774 H 0.61059 0.36559 1.00346 0.0
H775 H 0.61693 0.33262 0.99763 0.0
C776 C 0.71571 0.39411 0.0413 0.0
C777 C 0.70993 0.37307 0.0544 0.0
C778 C 0.71141 0.39157 0.01979 0.0
C779 C 0.70092 0.36801 0.01093 0.0
C780 C 0.69542 0.34695 0.02392 0.0
H781 H 0.7375 0.32212 0.88258 0.0
H782 H 0.74174 0.32754 0.92023 0.0
C783 C 0.69976 0.34945 0.04543 0.0
C784 C 0.69711 0.36535 0.98806 0.0
H785 H 0.62507 0.34779 0.94924 0.0
C786 C 0.73476 0.37128 0.97577 0.0
C787 C 0.65681 0.35718 0.97836 0.0
C788 C 0.61464 0.35172 0.99068 0.0
C789 C 0.73347 0.36882 0.95408 0.0
C790 C 0.69366 0.35985 0.94444 0.0
C791 C 0.65571 0.35439 0.95668 0.0
C792 C 0.69065 0.35629 0.92162 0.0
C793 C 0.77455 0.3762 0.94164 0.0
C794 C 0.65982 0.37024 0.90995 0.0
C795 C 0.65739 0.36725 0.88841 0.0
C796 C 0.68555 0.35007 0.8781 0.0
C797 C 0.71594 0.33585 0.88993 0.0
C798 C 0.71836 0.33889 0.91147 0.0
H799 H 0.79783 0.38851 0.95068 0.0
H800 H 0.793 0.3589 0.9372 0.0
H801 H 0.76495 0.38623 0.92721 0.0
H802 H 0.63807 0.38375 0.91748 0.0
H803 H 0.63394 0.37872 0.8798 0.0
H804 H 0.80101 0.09453 0.55169 0.0
H805 H 0.81907 0.10017 0.51492 0.0
H806 H 0.84653 0.17918 0.52567 0.0
H807 H 0.82973 0.17367 0.56253 0.0
H808 H 0.78864 0.16741 0.4903 0.0
H809 H 0.94811 0.11334 0.4907 0.0
H810 H 0.89971 0.09781 0.50183 0.0
H811 H 0.92286 0.12543 0.51414 0.0
C812 C 0.81139 0.11307 0.54632 0.0
C813 C 0.81405 0.13363 0.56016 0.0
C814 C 0.82156 0.11625 0.52527 0.0
C815 C 0.83452 0.14003 0.51764 0.0
C816 C 0.83659 0.16066 0.53128 0.0
H817 H 0.96023 0.18678 0.403 0.0
H818 H 0.94007 0.17723 0.43901 0.0
C819 C 0.82668 0.15749 0.55233 0.0
C820 C 0.8457 0.14354 0.4954 0.0
H821 H 0.92323 0.12866 0.45831 0.0
C822 C 0.81795 0.15889 0.48326 0.0
C823 C 0.88416 0.13252 0.48635 0.0
C824 C 0.91575 0.11648 0.49889 0.0
C825 C 0.82763 0.1635 0.46226 0.0
C826 C 0.86592 0.15235 0.45316 0.0
C827 C 0.89373 0.13704 0.46531 0.0
C828 C 0.87858 0.1572 0.43124 0.0
C829 C 0.79741 0.18073 0.45007 0.0
C830 C 0.85103 0.14875 0.41493 0.0
C831 C 0.86242 0.15421 0.39434 0.0
C832 C 0.90156 0.16827 0.38967 0.0
C833 C 0.92952 0.17626 0.40607 0.0
C834 C 0.91821 0.17067 0.42664 0.0
H835 H 0.77473 0.19169 0.46031 0.0
H836 H 0.81764 0.19414 0.44055 0.0
H837 H 0.77628 0.16924 0.43938 0.0
H838 H 0.82057 0.13805 0.41815 0.0
H839 H 0.84005 0.1479 0.38209 0.0
H840 H 0.73872 0.85954 0.04669 0.0
H841 H 0.75092 0.85988 0.00916 0.0
H842 H 0.88651 0.88725 0.01853 0.0
H843 H 0.87515 0.88608 0.05607 0.0
H844 H 0.77004 0.90119 0.98569 0.0
H845 H 0.90563 0.83107 0.97655 0.0
H846 H 0.87258 0.83361 0.99996 0.0
H847 H 0.91875 0.8551 0.99531 0.0
C848 C 0.77148 0.86509 0.0408 0.0
C849 C 0.80596 0.87277 0.05443 0.0
C850 C 0.77831 0.86541 0.01933 0.0
C851 C 0.81982 0.87326 0.01101 0.0
C852 C 0.8545 0.88061 0.02456 0.0
H853 H 0.87146 0.93958 0.89176 0.0
H854 H 0.86288 0.92903 0.92843 0.0
C855 C 0.84773 0.88027 0.04604 0.0
C856 C 0.82567 0.87564 0.98819 0.0
H857 H 0.89253 0.8583 0.94751 0.0
C858 C 0.79657 0.89161 0.97733 0.0
C859 C 0.85998 0.86294 0.97722 0.0
C860 C 0.89075 0.84452 0.98781 0.0
C861 C 0.8017 0.89585 0.95598 0.0
C862 C 0.83735 0.88415 0.9452 0.0
C863 C 0.86555 0.86749 0.95586 0.0
C864 C 0.84632 0.88971 0.92301 0.0
C865 C 0.76888 0.9129 0.94511 0.0
C866 C 0.84165 0.87084 0.90782 0.0
C867 C 0.84651 0.87683 0.88674 0.0
C868 C 0.85616 0.9018 0.88056 0.0
C869 C 0.86293 0.92031 0.89595 0.0
C870 C 0.85813 0.91431 0.91693 0.0
H871 H 0.73721 0.91495 0.95409 0.0
H872 H 0.7843 0.93196 0.94332 0.0
H873 H 0.76052 0.90558 0.92942 0.0
H874 H 0.83281 0.85168 0.91223 0.0
H875 H 0.84105 0.86215 0.87528 0.0
H876 H 0.75212 0.64485 0.55026 0.0
H877 H 0.73755 0.64649 0.51301 0.0
H878 H 0.60828 0.61066 0.52254 0.0
H879 H 0.62171 0.60996 0.55994 0.0
H880 H 0.72564 0.60688 0.48769 0.0
H881 H 0.5752 0.6675 0.48363 0.0
H882 H 0.60951 0.66527 0.50664 0.0
H883 H 0.56812 0.64123 0.50094 0.0
C884 C 0.72011 0.63785 0.54453 0.0
C885 C 0.68805 0.62733 0.55818 0.0
C886 C 0.71195 0.63866 0.52318 0.0
C887 C 0.67154 0.62904 0.51495 0.0
C888 C 0.63928 0.61872 0.52852 0.0
H889 H 0.63966 0.57136 0.39086 0.0
H890 H 0.63987 0.57841 0.42836 0.0
C891 C 0.64733 0.61799 0.5499 0.0
C892 C 0.66484 0.62798 0.49209 0.0
H893 H 0.59316 0.64416 0.45289 0.0
C894 C 0.69682 0.61522 0.48011 0.0
C895 C 0.6275 0.63909 0.48211 0.0
C896 C 0.59335 0.65426 0.49396 0.0
C897 C 0.69201 0.6127 0.45856 0.0
C898 C 0.65362 0.62275 0.44869 0.0
C899 C 0.62221 0.63616 0.46053 0.0
C900 C 0.64583 0.61907 0.42613 0.0
C901 C 0.72836 0.59941 0.44651 0.0
C902 C 0.6463 0.63971 0.41242 0.0
C903 C 0.64563 0.63571 0.3909 0.0
C904 C 0.64463 0.61102 0.38287 0.0
C905 C 0.64098 0.59056 0.39667 0.0
C906 C 0.64128 0.59456 0.41807 0.0
H907 H 0.76055 0.59897 0.45525 0.0
H908 H 0.71763 0.5796 0.44354 0.0
H909 H 0.73448 0.60873 0.43133 0.0
H910 H 0.64952 0.65879 0.41834 0.0
H911 H 0.64859 0.65178 0.38058 0.0
H912 H 0.24455 0.64637 0.96811 0.0
H913 H 0.26462 0.65297 1.00454 0.0
H914 H 0.39552 0.6215 0.99315 0.0
H915 H 0.37626 0.61551 0.95656 0.0
H916 H 0.29237 0.61773 0.03494 0.0
H917 H 0.42356 0.69083 0.01937 0.0
H918 H 0.3829 0.68109 1.0001 0.0
H919 H 0.43063 0.66165 1.00555 0.0
C920 C 0.27778 0.64106 0.97331 0.0
C921 C 0.30895 0.63061 0.95937 0.0
C922 C 0.28903 0.64466 0.99416 0.0
C923 C 0.33172 0.63801 1.00148 0.0
C924 C 0.36261 0.6271 0.98775 0.0
H925 H 0.42016 0.62978 0.13046 0.0
H926 H 0.39751 0.61954 0.0949 0.0
C927 C 0.35139 0.62348 0.96689 0.0
C928 C 0.34404 0.64284 0.02342 0.0
H929 H 0.41596 0.67696 0.05407 0.0
C930 C 0.31941 0.63065 0.03916 0.0
C931 C 0.37902 0.65991 0.02884 0.0
C932 C 0.40538 0.67433 0.01262 0.0
C933 C 0.3291 0.63495 0.06021 0.0
C934 C 0.36455 0.65172 0.0656 0.0
C935 C 0.38898 0.66399 0.04986 0.0
C936 C 0.37621 0.65742 0.08748 0.0
C937 C 0.30078 0.62198 0.07653 0.0
C938 C 0.37203 0.68213 0.09504 0.0
C939 C 0.38477 0.68803 0.11534 0.0
C940 C 0.40236 0.66937 0.12849 0.0
C941 C 0.40618 0.64454 0.12088 0.0
C942 C 0.39328 0.63864 0.10055 0.0
H943 H 0.26909 0.61406 0.06997 0.0
H944 H 0.3201 0.60622 0.08336 0.0
H945 H 0.29226 0.6353 0.08922 0.0
H946 H 0.3589 0.69689 0.08519 0.0
H947 H 0.38064 0.70723 0.12076 0.0
H948 H 0.12488 0.88799 0.45296 0.0
H949 H 0.11057 0.88776 0.49029 0.0
H950 H 0.24069 0.85494 0.50086 0.0
H951 H 0.25637 0.85641 0.4637 0.0
H952 H 0.10614 0.85003 0.51875 0.0
H953 H 0.2458 0.91605 0.53821 0.0
H954 H 0.22757 0.9106 0.5119 0.0
H955 H 0.26418 0.88852 0.5245 0.0
C956 C 0.15075 0.88103 0.46322 0.0
C957 C 0.19204 0.87251 0.45528 0.0
C958 C 0.1423 0.88067 0.48456 0.0
C959 C 0.17487 0.87176 0.49841 0.0
C960 C 0.21545 0.86242 0.49051 0.0
H961 H 0.13671 0.83553 0.62924 0.0
H962 H 0.14054 0.83358 0.59129 0.0
C963 C 0.22411 0.86297 0.4692 0.0
C964 C 0.16661 0.8726 0.52111 0.0
H965 H 0.20917 0.89587 0.56648 0.0
C966 C 0.12854 0.86012 0.52921 0.0
C967 C 0.19547 0.88612 0.5347 0.0
C968 C 0.23528 0.9013 0.52689 0.0
C969 C 0.11889 0.86052 0.55056 0.0
C970 C 0.14867 0.8733 0.56421 0.0
C971 C 0.18646 0.88595 0.55605 0.0
C972 C 0.14147 0.87416 0.58701 0.0
C973 C 0.07643 0.84773 0.55819 0.0
C974 C 0.14085 0.89756 0.59728 0.0
C975 C 0.13938 0.89867 0.6189 0.0
C976 C 0.13824 0.8764 0.63072 0.0
C977 C 0.13701 0.85297 0.62047 0.0
C978 C 0.13905 0.85185 0.59879 0.0
H979 H 0.05122 0.8456 0.54558 0.0
H980 H 0.08464 0.82856 0.5639 0.0
H981 H 0.06102 0.85846 0.57113 0.0
H982 H 0.14264 0.91501 0.58854 0.0
H983 H 0.14006 0.91697 0.62643 0.0
H984 H 0.18944 0.32652 0.4167 0.0
H985 H 0.1519 0.29202 0.398 0.0
H986 H 0.23915 0.30478 0.34548 0.0
H987 H 0.27842 0.33815 0.36441 0.0
H988 H 0.10499 0.2933 0.3626 0.0
H989 H 0.24975 0.22988 0.35182 0.0
H990 H 0.25161 0.25647 0.36934 0.0
H991 H 0.26154 0.2609 0.342 0.0
C992 C 0.20126 0.32164 0.40133 0.0
C993 C 0.23707 0.33512 0.3921 0.0
C994 C 0.17952 0.30203 0.3906 0.0
C995 C 0.1932 0.29549 0.37046 0.0
C996 C 0.22869 0.30902 0.36118 0.0
H997 H 0.09513 0.20793 0.26805 0.0
H998 H 0.13356 0.23669 0.29211 0.0
C999 C 0.25066 0.32842 0.37194 0.0
C1000 C 0.16916 0.27535 0.35871 0.0
H1001 H 0.18587 0.22214 0.3298 0.0
C1002 C 0.12256 0.27754 0.35568 0.0
C1003 C 0.19206 0.25469 0.34976 0.0
C1004 C 0.2414 0.25018 0.35358 0.0
C1005 C 0.09865 0.26024 0.34325 0.0
C1006 C 0.12197 0.24026 0.33367 0.0
C1007 C 0.16825 0.23765 0.33708 0.0
C1008 C 0.09924 0.22241 0.31936 0.0
C1009 C 0.04891 0.26384 0.33989 0.0
C1010 C 0.06767 0.2047 0.32677 0.0
C1011 C 0.04654 0.18791 0.31305 0.0
C1012 C 0.05659 0.18868 0.29179 0.0
C1013 C 0.08801 0.20643 0.28442 0.0
C1014 C 0.10947 0.22305 0.29812 0.0
H1015 H 0.03728 0.2824 0.34576 0.0
H1016 H 0.04059 0.26234 0.32313 0.0
H1017 H 0.02997 0.24873 0.34814 0.0
H1018 H 0.0597 0.20376 0.34315 0.0
H1019 H 0.02288 0.17405 0.31905 0.0
H1020 H 0.20246 0.16476 0.86763 0.0
H1021 H 0.2429 0.19716 0.84789 0.0
H1022 H 0.33839 0.20555 0.89781 0.0
H1023 H 0.29896 0.17242 0.9174 0.0
H1024 H 0.26269 0.24702 0.85663 0.0
H1025 H 0.41871 0.19123 0.84778 0.0
H1026 H 0.36651 0.17748 0.85685 0.0
H1027 H 0.40122 0.19579 0.87418 0.0
C1028 C 0.23225 0.17337 0.87437 0.0
C1029 C 0.24786 0.16576 0.89397 0.0
C1030 C 0.25512 0.19202 0.86313 0.0
C1031 C 0.2941 0.20343 0.87122 0.0
C1032 C 0.30887 0.19661 0.89111 0.0
H1033 H 0.42664 0.33772 0.82133 0.0
H1034 H 0.38501 0.30732 0.84281 0.0
C1035 C 0.28602 0.17789 0.90238 0.0
C1036 C 0.31943 0.22219 0.85861 0.0
H1037 H 0.42102 0.23333 0.83542 0.0
C1038 C 0.29733 0.24407 0.85201 0.0
C1039 C 0.36437 0.21806 0.85231 0.0
C1040 C 0.38906 0.19427 0.85795 0.0
C1041 C 0.31912 0.26207 0.83944 0.0
C1042 C 0.36443 0.25826 0.83363 0.0
C1043 C 0.38639 0.23628 0.84006 0.0
C1044 C 0.38957 0.2767 0.82067 0.0
C1045 C 0.29316 0.2847 0.8321 0.0
C1046 C 0.40693 0.26936 0.80135 0.0
C1047 C 0.43115 0.28659 0.7892 0.0
C1048 C 0.43828 0.31146 0.79612 0.0
C1049 C 0.4215 0.31867 0.8156 0.0
C1050 C 0.39736 0.30142 0.82778 0.0
H1051 H 0.25625 0.2815 0.83324 0.0
H1052 H 0.30201 0.30125 0.84191 0.0
H1053 H 0.30175 0.2894 0.81579 0.0
H1054 H 0.40158 0.25031 0.79565 0.0
H1055 H 0.44451 0.28043 0.77443 0.0
H1056 H 0.69573 0.171 0.60555 0.0
H1057 H 0.65685 0.20284 0.62652 0.0
H1058 H 0.75986 0.19769 0.6733 0.0
H1059 H 0.79892 0.16604 0.65247 0.0
H1060 H 0.62735 0.19536 0.67081 0.0
H1061 H 0.74755 0.27531 0.65879 0.0
H1062 H 0.7436 0.24886 0.64112 0.0
H1063 H 0.77152 0.24536 0.6656 0.0
C1064 C 0.71027 0.17689 0.6202 0.0
C1065 C 0.75031 0.16604 0.6274 0.0
C1066 C 0.68796 0.19492 0.63219 0.0
C1067 C 0.70569 0.20265 0.65137 0.0
C1068 C 0.74586 0.19208 0.65847 0.0
H1069 H 0.58882 0.28725 0.75367 0.0
H1070 H 0.62837 0.25618 0.73227 0.0
C1071 C 0.76795 0.17392 0.64661 0.0
C1072 C 0.68173 0.22132 0.66428 0.0
H1073 H 0.68943 0.2814 0.68336 0.0
C1074 C 0.64081 0.21419 0.67354 0.0
C1075 C 0.69946 0.24584 0.66773 0.0
C1076 C 0.7428 0.2545 0.65771 0.0
C1077 C 0.61738 0.23093 0.68644 0.0
C1078 C 0.63541 0.25532 0.69008 0.0
C1079 C 0.67602 0.26257 0.68062 0.0
C1080 C 0.61164 0.27392 0.70311 0.0
C1081 C 0.57328 0.22266 0.69596 0.0
C1082 C 0.58954 0.29414 0.69373 0.0
C1083 C 0.56677 0.31176 0.70583 0.0
C1084 C 0.5661 0.30965 0.7276 0.0
C1085 C 0.58874 0.28944 0.73697 0.0
C1086 C 0.61122 0.27166 0.72479 0.0
H1087 H 0.56138 0.20419 0.68976 0.0
H1088 H 0.57735 0.22095 0.71301 0.0
H1089 H 0.54711 0.23705 0.69305 0.0
H1090 H 0.58966 0.29619 0.67701 0.0
H1091 H 0.54991 0.32714 0.69808 0.0
H1092 H 0.79777 0.36716 0.14352 0.0
H1093 H 0.83366 0.33535 0.16522 0.0
H1094 H 0.776 0.27622 0.1274 0.0
H1095 H 0.73854 0.30788 0.10592 0.0
H1096 H 0.77943 0.28907 0.18535 0.0
H1097 H 0.92246 0.26752 0.1325 0.0
H1098 H 0.89513 0.29785 0.13234 0.0
H1099 H 0.86696 0.27077 0.12162 0.0
C1100 C 0.79231 0.3474 0.13988 0.0
C1101 C 0.76495 0.34009 0.12303 0.0
C1102 C 0.81306 0.32929 0.15224 0.0
C1103 C 0.80736 0.30356 0.14786 0.0
C1104 C 0.78083 0.29608 0.13092 0.0
H1105 H 0.92279 0.16802 0.19824 0.0
H1106 H 0.88473 0.19991 0.17753 0.0
C1107 C 0.75974 0.31419 0.1186 0.0
C1108 C 0.82875 0.28452 0.16125 0.0
H1109 H 0.91739 0.24429 0.16353 0.0
C1110 C 0.80961 0.27923 0.18067 0.0
C1111 C 0.86792 0.27181 0.15494 0.0
C1112 C 0.8897 0.2772 0.13426 0.0
C1113 C 0.82838 0.26113 0.19392 0.0
C1114 C 0.868 0.24856 0.18774 0.0
C1115 C 0.88711 0.25398 0.16828 0.0
C1116 C 0.88966 0.22919 0.20089 0.0
C1117 C 0.80491 0.25515 0.21412 0.0
C1118 C 0.9051 0.23503 0.22095 0.0
C1119 C 0.92664 0.21671 0.23291 0.0
C1120 C 0.93374 0.19246 0.22481 0.0
C1121 C 0.91819 0.18667 0.20478 0.0
C1122 C 0.89638 0.20485 0.19294 0.0
H1123 H 0.76916 0.26105 0.21387 0.0
H1124 H 0.80616 0.23464 0.21762 0.0
H1125 H 0.82197 0.26552 0.2269 0.0
H1126 H 0.90117 0.25385 0.22724 0.0
H1127 H 0.93855 0.22163 0.24828 0.0
H1128 H 0.71527 0.6936 0.61219 0.0
H1129 H 0.75473 0.72662 0.63215 0.0
H1130 H 0.84317 0.67063 0.65766 0.0
H1131 H 0.8041 0.63764 0.63781 0.0
H1132 H 0.76731 0.72456 0.67906 0.0
H1133 H 0.92612 0.72954 0.63346 0.0
H1134 H 0.87383 0.71796 0.62257 0.0
H1135 H 0.90532 0.6985 0.63996 0.0
C1136 C 0.74348 0.68843 0.62186 0.0
C1137 C 0.7566 0.66307 0.62348 0.0
C1138 C 0.76578 0.70724 0.6333 0.0
C1139 C 0.80194 0.70101 0.64625 0.0
C1140 C 0.81554 0.6758 0.64763 0.0
H1141 H 0.98589 0.78006 0.72828 0.0
H1142 H 0.9457 0.7494 0.70642 0.0
C1143 C 0.79305 0.657 0.63638 0.0
C1144 C 0.82463 0.72062 0.65897 0.0
H1145 H 0.92456 0.752 0.66518 0.0
C1146 C 0.80155 0.73078 0.67597 0.0
C1147 C 0.8694 0.72837 0.65497 0.0
C1148 C 0.89523 0.71822 0.63668 0.0
C1149 C 0.82251 0.74815 0.68942 0.0
C1150 C 0.86733 0.75602 0.68539 0.0
C1151 C 0.89022 0.74596 0.66825 0.0
C1152 C 0.89123 0.77457 0.69881 0.0
C1153 C 0.79712 0.75717 0.70826 0.0
C1154 C 0.87428 0.79898 0.70158 0.0
C1155 C 0.89712 0.81646 0.71407 0.0
C1156 C 0.93747 0.80991 0.72392 0.0
C1157 C 0.95484 0.78562 0.72087 0.0
C1158 C 0.93188 0.76809 0.70843 0.0
H1159 H 0.76822 0.74451 0.71204 0.0
H1160 H 0.81959 0.75831 0.72198 0.0
H1161 H 0.78374 0.7763 0.70524 0.0
H1162 H 0.84366 0.80466 0.69386 0.0
H1163 H 0.88353 0.83523 0.71573 0.0
H1164 H 0.69385 0.86211 0.13561 0.0
H1165 H 0.65449 0.8292 0.15549 0.0
H1166 H 0.73565 0.77231 0.12627 0.0
H1167 H 0.77535 0.80518 0.10631 0.0
H1168 H 0.60879 0.78058 0.13782 0.0
H1169 H 0.75082 0.76689 0.19291 0.0
H1170 H 0.74367 0.79595 0.17866 0.0
H1171 H 0.76329 0.76829 0.16557 0.0
C1172 C 0.70322 0.84257 0.13338 0.0
C1173 C 0.73783 0.83619 0.1195 0.0
C1174 C 0.68062 0.82384 0.14467 0.0
C1175 C 0.69249 0.79844 0.14242 0.0
C1176 C 0.72625 0.79188 0.12825 0.0
H1177 H 0.61324 0.66391 0.21087 0.0
H1178 H 0.64993 0.69468 0.188 0.0
C1179 C 0.74866 0.81061 0.11679 0.0
C1180 C 0.67021 0.77892 0.15535 0.0
H1181 H 0.68633 0.74141 0.19768 0.0
C1182 C 0.62564 0.77194 0.1509 0.0
C1183 C 0.6925 0.76774 0.17231 0.0
C1184 C 0.74017 0.77507 0.17785 0.0
C1185 C 0.60275 0.75381 0.16294 0.0
C1186 C 0.62475 0.74293 0.18017 0.0
C1187 C 0.66951 0.74982 0.1845 0.0
C1188 C 0.60202 0.72433 0.19393 0.0
C1189 C 0.55558 0.74612 0.15685 0.0
C1190 C 0.56328 0.73089 0.20511 0.0
C1191 C 0.54249 0.71338 0.21833 0.0
C1192 C 0.5602 0.68905 0.22064 0.0
C1193 C 0.59907 0.68259 0.20952 0.0
C1194 C 0.61993 0.7001 0.19638 0.0
H1195 H 0.54826 0.7509 0.14043 0.0
H1196 H 0.55008 0.72552 0.15907 0.0
H1197 H 0.53124 0.75633 0.16677 0.0
H1198 H 0.54946 0.74966 0.20381 0.0
H1199 H 0.51295 0.719 0.22695 0.0
H1200 H 0.30666 0.86218 0.37467 0.0
H1201 H 0.3467 0.82923 0.35573 0.0
H1202 H 0.2648 0.77218 0.38553 0.0
H1203 H 0.22401 0.80512 0.40433 0.0
H1204 H 0.39494 0.78607 0.37184 0.0
H1205 H 0.24925 0.75974 0.32184 0.0
H1206 H 0.25191 0.78908 0.33613 0.0
H1207 H 0.23901 0.76007 0.34935 0.0
C1208 C 0.29707 0.84262 0.37714 0.0
C1209 C 0.26194 0.83623 0.39084 0.0
C1210 C 0.32014 0.82384 0.36641 0.0
C1211 C 0.30832 0.79835 0.36908 0.0
C1212 C 0.27403 0.79181 0.38311 0.0
H1213 H 0.45376 0.6678 0.32194 0.0
H1214 H 0.41507 0.69818 0.34426 0.0
C1215 C 0.25103 0.8106 0.39394 0.0
C1216 C 0.33149 0.77874 0.35682 0.0
H1217 H 0.31551 0.73606 0.31771 0.0
C1218 C 0.37761 0.77501 0.36008 0.0
C1219 C 0.30875 0.76464 0.34134 0.0
C1220 C 0.25957 0.76861 0.33675 0.0
C1221 C 0.40164 0.75741 0.34825 0.0
C1222 C 0.3788 0.74317 0.33291 0.0
C1223 C 0.33273 0.74693 0.32962 0.0
C1224 C 0.40253 0.72487 0.3196 0.0
C1225 C 0.45145 0.75455 0.35187 0.0
C1226 C 0.40793 0.72983 0.29838 0.0
C1227 C 0.43022 0.71265 0.28566 0.0
C1228 C 0.44691 0.69003 0.29389 0.0
C1229 C 0.44138 0.6851 0.31518 0.0
C1230 C 0.41934 0.7024 0.32793 0.0
H1231 H 0.46546 0.76994 0.36173 0.0
H1232 H 0.45762 0.73627 0.35973 0.0
H1233 H 0.46987 0.75437 0.33687 0.0
H1234 H 0.3952 0.74711 0.29171 0.0
H1235 H 0.43445 0.71713 0.26938 0.0
H1236 H 0.28068 0.69411 0.90451 0.0
H1237 H 0.2418 0.72643 0.88412 0.0
H1238 H 0.15063 0.6696 0.86032 0.0
H1239 H 0.1892 0.63726 0.8806 0.0
H1240 H 0.22715 0.72262 0.83713 0.0
H1241 H 0.07184 0.73002 0.88493 0.0
H1242 H 0.12456 0.71913 0.89541 0.0
H1243 H 0.0914 0.6987 0.87917 0.0
C1244 C 0.25202 0.68861 0.89511 0.0
C1245 C 0.23791 0.66322 0.89411 0.0
C1246 C 0.23007 0.70701 0.88342 0.0
C1247 C 0.19335 0.70032 0.87085 0.0
C1248 C 0.17879 0.67508 0.87006 0.0
H1249 H 0.06264 0.77851 0.76947 0.0
H1250 H 0.10242 0.7482 0.79142 0.0
C1251 C 0.20093 0.65667 0.88155 0.0
C1252 C 0.17087 0.71952 0.85801 0.0
H1253 H 0.07257 0.75156 0.8528 0.0
C1254 C 0.19343 0.72906 0.84054 0.0
C1255 C 0.12707 0.72788 0.86267 0.0
C1256 C 0.10218 0.71861 0.88163 0.0
C1257 C 0.17287 0.74657 0.82734 0.0
C1258 C 0.12857 0.75448 0.8317 0.0
C1259 C 0.10639 0.74526 0.84942 0.0
C1260 C 0.10487 0.77269 0.8183 0.0
C1261 C 0.19885 0.75675 0.809 0.0
C1262 C 0.09235 0.79622 0.8263 0.0
C1263 C 0.06967 0.81347 0.81386 0.0
C1264 C 0.0589 0.80743 0.7932 0.0
C1265 C 0.07097 0.78373 0.78527 0.0
C1266 C 0.09377 0.76647 0.79774 0.0
H1267 H 0.23541 0.75293 0.8103 0.0
H1268 H 0.18625 0.74762 0.7946 0.0
H1269 H 0.19407 0.77743 0.80747 0.0
H1270 H 0.10049 0.80131 0.84216 0.0
H1271 H 0.06095 0.83164 0.82037 0.0
loop_
_geom_bond_atom_site_label_1
_geom_bond_atom_site_label_2
_geom_bond_distance
_geom_bond_site_symmetry_2
_ccdc_geom_bond_type
H0 C3 0.931 . S
H1 C6 0.928 . S
H2 C8 0.930 . S
C3 H0 0.931 . S
C3 C4 1.413 . S
C3 C5 1.360 . S
C4 C3 1.413 . S
C4 C8 1.429 . S
C5 C3 1.360 . S
C5 C6 1.372 . S
C6 H1 0.928 . S
C6 C5 1.372 . S
C6 C7 1.404 . S
C7 C6 1.404 . S
C7 C8 1.391 . S
C8 H2 0.930 . S
C8 C4 1.429 . S
C8 C7 1.391 . S
H9 C12 0.931 . S
H10 C15 0.928 . S
H11 C17 0.930 . S
C12 H9 0.931 . S
C12 C13 1.413 . S
C12 C14 1.360 . S
C13 C12 1.413 . S
C13 C17 1.429 . S
C14 C12 1.360 . S
C14 C15 1.372 . S
C15 H10 0.928 . S
C15 C14 1.372 . S
C15 C16 1.404 . S
C16 C15 1.404 . S
C16 C17 1.391 . S
C17 H11 0.930 . S
C17 C13 1.429 . S
C17 C16 1.391 . S
H18 C21 0.931 . S
H19 C24 0.928 . S
H20 C26 0.930 . S
C21 H18 0.931 . S
C21 C22 1.413 . S
C21 C23 1.360 . S
C22 C21 1.413 . S
C22 C26 1.429 . S
C23 C21 1.360 . S
C23 C24 1.372 . S
C24 H19 0.928 . S
C24 C23 1.372 . S
C24 C25 1.404 . S
C25 C24 1.404 . S
C25 C26 1.391 . S
C26 H20 0.930 . S
C26 C22 1.429 . S
C26 C25 1.391 . S
H27 C30 0.931 . S
H28 C33 0.928 . S
H29 C35 0.930 . S
C30 H27 0.931 . S
C30 C31 1.413 . S
C30 C32 1.360 . S
C31 C30 1.413 . S
C31 C35 1.429 . S
C32 C30 1.360 . S
C32 C33 1.372 . S
C33 H28 0.928 . S
C33 C32 1.372 . S
C33 C34 1.404 . S
C34 C33 1.404 . S
C34 C35 1.391 . S
C35 H29 0.930 . S
C35 C31 1.429 . S
C35 C34 1.391 . S
H36 C39 0.931 . S
H37 C42 0.928 . S
H38 C44 0.930 . S
C39 H36 0.931 . S
C39 C40 1.413 . S
C39 C41 1.360 . S
C40 C39 1.413 . S
C40 C44 1.429 . S
C41 C39 1.360 . S
C41 C42 1.372 . S
C42 H37 0.928 . S
C42 C41 1.372 . S
C42 C43 1.404 . S
C43 C42 1.404 . S
C43 C44 1.391 . S
C44 H38 0.930 . S
C44 C40 1.429 . S
C44 C43 1.391 . S
H45 C48 0.931 . S
H46 C51 0.928 . S
H47 C53 0.930 . S
C48 H45 0.931 . S
C48 C49 1.413 . S
C48 C50 1.360 . S
C49 C48 1.413 . S
C49 C53 1.429 . S
C50 C48 1.360 . S
C50 C51 1.372 . S
C51 H46 0.928 . S
C51 C50 1.372 . S
C51 C52 1.404 . S
C52 C51 1.404 . S
C52 C53 1.391 . S
C53 H47 0.930 . S
C53 C49 1.429 . S
C53 C52 1.391 . S
H54 C57 0.931 . S
H55 C60 0.928 . S
H56 C62 0.930 . S
C57 H54 0.931 . S
C57 C58 1.413 . S
C57 C59 1.360 . S
C58 C57 1.413 . S
C58 C62 1.429 . S
C59 C57 1.360 . S
C59 C60 1.372 . S
C60 H55 0.928 . S
C60 C59 1.372 . S
C60 C61 1.404 . S
C61 C60 1.404 . S
C61 C62 1.391 . S
C62 H56 0.930 . S
C62 C58 1.429 . S
C62 C61 1.391 . S
H63 C66 0.931 . S
H64 C69 0.928 . S
H65 C71 0.930 . S
C66 H63 0.931 . S
C66 C67 1.413 . S
C66 C68 1.360 . S
C67 C66 1.413 . S
C67 C71 1.429 . S
C68 C66 1.360 . S
C68 C69 1.372 . S
C69 H64 0.928 . S
C69 C68 1.372 . S
C69 C70 1.404 . S
C70 C69 1.404 . S
C70 C71 1.391 . S
C71 H65 0.930 . S
C71 C67 1.429 . S
C71 C70 1.391 . S
C72 C74 1.422 . S
C72 C76 1.415 . S
C72 N78 1.369 . S
C73 C74 1.421 . S
C73 C75 1.417 . S
C73 C85 1.422 . S
C74 C72 1.422 . S
C74 C73 1.421 . S
C74 N84 1.359 . S
C75 C73 1.417 . S
C75 C77 1.329 . S
C75 H94 0.930 . S
C76 C72 1.415 . S
C76 C77 1.437 . S
C76 C80 1.413 . S
C77 C75 1.329 . S
C77 C76 1.437 . S
C77 H99 0.929 . S
N78 C72 1.369 . S
N78 C79 1.338 . S
N78 Gd83 2.622 . S
C79 N78 1.338 . S
C79 C81 1.378 . S
C79 H91 0.929 . S
C80 C76 1.413 . S
C80 C81 1.348 . S
C80 H96 0.931 . S
C81 C79 1.378 . S
C81 C80 1.348 . S
C81 H97 0.930 . S
Gd82 N102 2.622 . S
Gd82 N109 2.570 . S
Gd82 O116 2.353 . S
Gd82 O117 2.468 . S
Gd82 O118 2.427 . S
Gd82 O120 2.388 . S
Gd82 O121 2.386 . S
Gd82 O125 2.309 . S
Gd82 C135 2.805 . S
Gd83 N78 2.622 . S
Gd83 N84 2.570 . S
Gd83 O115 2.386 . S
Gd83 O119 2.307 1_655 S
Gd83 O122 2.345 1_655 S
Gd83 O123 2.468 . S
Gd83 O124 2.427 . S
Gd83 O126 2.388 . S
Gd83 C147 2.805 . S
N84 C74 1.359 . S
N84 Gd83 2.570 . S
N84 C86 1.343 . S
C85 C73 1.422 . S
C85 C87 1.321 . S
C85 H93 0.931 . S
C86 N84 1.343 . S
C86 C87 1.390 . S
C86 H88 0.931 . S
C87 C85 1.321 . S
C87 C86 1.390 . S
C87 H89 0.930 . S
H88 C86 0.931 . S
H89 C87 0.930 . S
H90 C113 0.931 . S
H91 C79 0.929 . S
H92 C114 0.930 . S
H93 C85 0.931 . S
H94 C75 0.930 . S
H95 C104 0.929 . S
H96 C80 0.931 . S
H97 C81 0.930 . S
H98 C136 0.930 . S
H99 C77 0.929 . S
H100 C105 0.931 . S
H101 C106 0.930 . S
N102 Gd82 2.622 . S
N102 C103 1.369 . S
N102 C104 1.338 . S
C103 N102 1.369 . S
C103 C107 1.415 . S
C103 C110 1.422 . S
C104 H95 0.929 . S
C104 N102 1.338 . S
C104 C106 1.378 . S
C105 H100 0.931 . S
C105 C106 1.348 . S
C105 C107 1.413 . S
C106 H101 0.930 . S
C106 C104 1.378 . S
C106 C105 1.348 . S
C107 C103 1.415 . S
C107 C105 1.413 . S
C107 C137 1.437 . S
H108 C137 0.929 . S
N109 Gd82 2.570 . S
N109 C110 1.359 . S
N109 C113 1.343 . S
C110 C103 1.422 . S
C110 N109 1.359 . S
C110 C112 1.421 . S
C111 C112 1.422 . S
C111 C114 1.321 . S
C111 H138 0.931 . S
C112 C110 1.421 . S
C112 C111 1.422 . S
C112 C136 1.417 . S
C113 H90 0.931 . S
C113 N109 1.343 . S
C113 C114 1.390 . S
C114 H92 0.930 . S
C114 C111 1.321 . S
C114 C113 1.390 . S
O115 Gd83 2.386 . S
O115 C127 1.265 . S
O116 Gd82 2.353 . S
O116 C127 1.242 1_455 S
O117 Gd82 2.468 . S
O117 C135 1.263 . S
O118 Gd82 2.427 . S
O118 C135 1.252 . S
O119 Gd83 2.307 1_455 S
O119 C128 1.261 . S
O120 Gd82 2.388 . S
O120 C128 1.252 . S
O121 Gd82 2.386 . S
O121 C139 1.265 . S
O122 Gd83 2.345 1_455 S
O122 C139 1.252 . S
O123 Gd83 2.468 . S
O123 C147 1.263 . S
O124 Gd83 2.427 . S
O124 C147 1.252 . S
O125 Gd82 2.309 . S
O125 C140 1.259 1_455 S
O126 Gd83 2.388 . S
O126 C140 1.252 . S
C127 O115 1.265 . S
C127 O116 1.242 1_655 S
C128 O119 1.261 . S
C128 O120 1.252 . S
C129 C132 1.394 . S
C129 C134 1.370 . S
C129 C135 1.500 . S
C130 C133 1.383 . S
C130 C134 1.395 . S
C131 C132 1.396 . S
C131 C133 1.365 . S
C131 H148 0.929 . S
C132 C129 1.394 . S
C132 C131 1.396 . S
C132 H149 0.930 . S
C133 C130 1.383 . S
C133 C131 1.365 . S
C133 H150 0.931 . S
C134 C129 1.370 . S
C134 C130 1.395 . S
C134 H151 0.930 . S
C135 Gd82 2.805 . S
C135 O117 1.263 . S
C135 O118 1.252 . S
C135 C129 1.500 . S
C136 H98 0.930 . S
C136 C112 1.417 . S
C136 C137 1.329 . S
C137 C107 1.437 . S
C137 H108 0.929 . S
C137 C136 1.329 . S
H138 C111 0.931 . S
C139 O121 1.265 . S
C139 O122 1.252 . S
C140 O125 1.259 1_655 S
C140 O126 1.252 . S
C141 C144 1.394 . S
C141 C146 1.370 . S
C141 C147 1.500 . S
C142 C145 1.383 . S
C142 C146 1.395 . S
C143 C144 1.396 . S
C143 C145 1.365 . S
C143 H152 0.929 . S
C144 C141 1.394 . S
C144 C143 1.396 . S
C144 H153 0.930 . S
C145 C142 1.383 . S
C145 C143 1.365 . S
C145 H154 0.931 . S
C146 C141 1.370 . S
C146 C142 1.395 . S
C146 H155 0.930 . S
C147 Gd83 2.805 . S
C147 O123 1.263 . S
C147 O124 1.252 . S
C147 C141 1.500 . S
H148 C131 0.929 . S
H149 C132 0.930 . S
H150 C133 0.931 . S
H151 C134 0.930 . S
H152 C143 0.929 . S
H153 C144 0.930 . S
H154 C145 0.931 . S
H155 C146 0.930 . S
C156 C158 1.422 . S
C156 C160 1.415 . S
C156 N162 1.369 . S
C157 C158 1.421 . S
C157 C159 1.417 . S
C157 C169 1.422 . S
C158 C156 1.422 . S
C158 C157 1.421 . S
C158 N168 1.359 . S
C159 C157 1.417 . S
C159 C161 1.329 . S
C159 H178 0.930 . S
C160 C156 1.415 . S
C160 C161 1.437 . S
C160 C164 1.413 . S
C161 C159 1.329 . S
C161 C160 1.437 . S
C161 H183 0.929 . S
N162 C156 1.369 . S
N162 C163 1.338 . S
N162 Gd167 2.622 . S
C163 N162 1.338 . S
C163 C165 1.378 . S
C163 H175 0.929 . S
C164 C160 1.413 . S
C164 C165 1.348 . S
C164 H180 0.931 . S
C165 C163 1.378 . S
C165 C164 1.348 . S
C165 H181 0.930 . S
Gd166 N186 2.622 . S
Gd166 N193 2.570 . S
Gd166 O200 2.353 . S
Gd166 O201 2.468 . S
Gd166 O202 2.427 . S
Gd166 O204 2.388 . S
Gd166 O205 2.386 . S
Gd166 O209 2.307 . S
Gd166 C219 2.805 . S
Gd167 N162 2.622 . S
Gd167 N168 2.570 . S
Gd167 O199 2.386 . S
Gd167 O203 2.307 . S
Gd167 O206 2.353 . S
Gd167 O207 2.468 . S
Gd167 O208 2.427 . S
Gd167 O210 2.388 . S
Gd167 C231 2.805 . S
N168 C158 1.359 . S
N168 Gd167 2.570 . S
N168 C170 1.343 . S
C169 C157 1.422 . S
C169 C171 1.321 . S
C169 H177 0.931 . S
C170 N168 1.343 . S
C170 C171 1.390 . S
C170 H172 0.931 . S
C171 C169 1.321 . S
C171 C170 1.390 . S
C171 H173 0.930 . S
H172 C170 0.931 . S
H173 C171 0.930 . S
H174 C197 0.931 . S
H175 C163 0.929 . S
H176 C198 0.930 . S
H177 C169 0.931 . S
H178 C159 0.930 . S
H179 C188 0.929 . S
H180 C164 0.931 . S
H181 C165 0.930 . S
H182 C220 0.930 . S
H183 C161 0.929 . S
H184 C189 0.931 . S
H185 C190 0.930 . S
N186 Gd166 2.622 . S
N186 C187 1.369 . S
N186 C188 1.338 . S
C187 N186 1.369 . S
C187 C191 1.415 . S
C187 C194 1.422 . S
C188 H179 0.929 . S
C188 N186 1.338 . S
C188 C190 1.378 . S
C189 H184 0.931 . S
C189 C190 1.348 . S
C189 C191 1.413 . S
C190 H185 0.930 . S
C190 C188 1.378 . S
C190 C189 1.348 . S
C191 C187 1.415 . S
C191 C189 1.413 . S
C191 C221 1.437 . S
H192 C221 0.929 . S
N193 Gd166 2.570 . S
N193 C194 1.359 . S
N193 C197 1.343 . S
C194 C187 1.422 . S
C194 N193 1.359 . S
C194 C196 1.421 . S
C195 C196 1.422 . S
C195 C198 1.321 . S
C195 H222 0.931 . S
C196 C194 1.421 . S
C196 C195 1.422 . S
C196 C220 1.417 . S
C197 H174 0.931 . S
C197 N193 1.343 . S
C197 C198 1.390 . S
C198 H176 0.930 . S
C198 C195 1.321 . S
C198 C197 1.390 . S
O199 Gd167 2.386 . S
O199 C211 1.265 . S
O200 Gd166 2.353 . S
O200 C211 1.242 . S
O201 Gd166 2.468 . S
O201 C219 1.263 . S
O202 Gd166 2.427 . S
O202 C219 1.252 . S
O203 Gd167 2.307 . S
O203 C212 1.261 . S
O204 Gd166 2.388 . S
O204 C212 1.252 . S
O205 Gd166 2.386 . S
O205 C223 1.265 . S
O206 Gd167 2.353 . S
O206 C223 1.242 . S
O207 Gd167 2.468 . S
O207 C231 1.263 . S
O208 Gd167 2.427 . S
O208 C231 1.252 . S
O209 Gd166 2.307 . S
O209 C224 1.261 . S
O210 Gd167 2.388 . S
O210 C224 1.252 . S
C211 O199 1.265 . S
C211 O200 1.242 . S
C212 O203 1.261 . S
C212 O204 1.252 . S
C213 C216 1.394 . S
C213 C218 1.370 . S
C213 C219 1.500 . S
C214 C217 1.383 . S
C214 C218 1.395 . S
C215 C216 1.396 . S
C215 C217 1.365 . S
C215 H232 0.929 . S
C216 C213 1.394 . S
C216 C215 1.396 . S
C216 H233 0.930 . S
C217 C214 1.383 . S
C217 C215 1.365 . S
C217 H234 0.931 . S
C218 C213 1.370 . S
C218 C214 1.395 . S
C218 H235 0.930 . S
C219 Gd166 2.805 . S
C219 O201 1.263 . S
C219 O202 1.252 . S
C219 C213 1.500 . S
C220 H182 0.930 . S
C220 C196 1.417 . S
C220 C221 1.329 . S
C221 C191 1.437 . S
C221 H192 0.929 . S
C221 C220 1.329 . S
H222 C195 0.931 . S
C223 O205 1.265 . S
C223 O206 1.242 . S
C224 O209 1.261 . S
C224 O210 1.252 . S
C225 C228 1.394 . S
C225 C230 1.370 . S
C225 C231 1.500 . S
C226 C229 1.383 . S
C226 C230 1.395 . S
C227 C228 1.396 . S
C227 C229 1.365 . S
C227 H236 0.929 . S
C228 C225 1.394 . S
C228 C227 1.396 . S
C228 H237 0.930 . S
C229 C226 1.383 . S
C229 C227 1.365 . S
C229 H238 0.931 . S
C230 C225 1.370 . S
C230 C226 1.395 . S
C230 H239 0.930 . S
C231 Gd167 2.805 . S
C231 O207 1.263 . S
C231 O208 1.252 . S
C231 C225 1.500 . S
H232 C215 0.929 . S
H233 C216 0.930 . S
H234 C217 0.931 . S
H235 C218 0.930 . S
H236 C227 0.929 . S
H237 C228 0.930 . S
H238 C229 0.931 . S
H239 C230 0.930 . S
C240 C242 1.422 . S
C240 C244 1.415 . S
C240 N246 1.369 . S
C241 C242 1.421 . S
C241 C243 1.417 . S
C241 C253 1.422 . S
C242 C240 1.422 . S
C242 C241 1.421 . S
C242 N252 1.359 . S
C243 C241 1.417 . S
C243 C245 1.329 . S
C243 H262 0.930 . S
C244 C240 1.415 . S
C244 C245 1.437 . S
C244 C248 1.413 . S
C245 C243 1.329 . S
C245 C244 1.437 . S
C245 H267 0.929 . S
N246 C240 1.369 . S
N246 C247 1.338 . S
N246 Gd251 2.622 . S
C247 N246 1.338 . S
C247 C249 1.378 . S
C247 H259 0.929 . S
C248 C244 1.413 . S
C248 C249 1.348 . S
C248 H264 0.931 . S
C249 C247 1.378 . S
C249 C248 1.348 . S
C249 H265 0.930 . S
Gd250 N270 2.622 . S
Gd250 N277 2.570 . S
Gd250 O284 2.353 . S
Gd250 O285 2.468 . S
Gd250 O286 2.427 . S
Gd250 O288 2.388 . S
Gd250 O289 2.386 . S
Gd250 O293 2.307 . S
Gd250 C303 2.805 . S
Gd251 N246 2.622 . S
Gd251 N252 2.570 . S
Gd251 O283 2.386 . S
Gd251 O287 2.307 1_655 S
Gd251 O290 2.353 1_655 S
Gd251 O291 2.468 . S
Gd251 O292 2.427 . S
Gd251 O294 2.388 . S
Gd251 C315 2.805 . S
N252 C242 1.359 . S
N252 Gd251 2.570 . S
N252 C254 1.343 . S
C253 C241 1.422 . S
C253 C255 1.321 . S
C253 H261 0.931 . S
C254 N252 1.343 . S
C254 C255 1.390 . S
C254 H256 0.931 . S
C255 C253 1.321 . S
C255 C254 1.390 . S
C255 H257 0.930 . S
H256 C254 0.931 . S
H257 C255 0.930 . S
H258 C281 0.931 . S
H259 C247 0.929 . S
H260 C282 0.930 . S
H261 C253 0.931 . S
H262 C243 0.930 . S
H263 C272 0.929 . S
H264 C248 0.931 . S
H265 C249 0.930 . S
H266 C304 0.930 . S
H267 C245 0.929 . S
H268 C273 0.931 . S
H269 C274 0.930 . S
N270 Gd250 2.622 . S
N270 C271 1.369 . S
N270 C272 1.338 . S
C271 N270 1.369 . S
C271 C275 1.415 . S
C271 C278 1.422 . S
C272 H263 0.929 . S
C272 N270 1.338 . S
C272 C274 1.378 . S
C273 H268 0.931 . S
C273 C274 1.348 . S
C273 C275 1.413 . S
C274 H269 0.930 . S
C274 C272 1.378 . S
C274 C273 1.348 . S
C275 C271 1.415 . S
C275 C273 1.413 . S
C275 C305 1.437 . S
H276 C305 0.929 . S
N277 Gd250 2.570 . S
N277 C278 1.359 . S
N277 C281 1.343 . S
C278 C271 1.422 . S
C278 N277 1.359 . S
C278 C280 1.421 . S
C279 C280 1.422 . S
C279 C282 1.321 . S
C279 H306 0.931 . S
C280 C278 1.421 . S
C280 C279 1.422 . S
C280 C304 1.417 . S
C281 H258 0.931 . S
C281 N277 1.343 . S
C281 C282 1.390 . S
C282 H260 0.930 . S
C282 C279 1.321 . S
C282 C281 1.390 . S
O283 Gd251 2.386 . S
O283 C295 1.265 . S
O284 Gd250 2.353 . S
O284 C295 1.242 1_455 S
O285 Gd250 2.468 . S
O285 C303 1.263 . S
O286 Gd250 2.427 . S
O286 C303 1.252 . S
O287 Gd251 2.307 1_455 S
O287 C296 1.261 . S
O288 Gd250 2.388 . S
O288 C296 1.252 . S
O289 Gd250 2.386 . S
O289 C307 1.265 . S
O290 Gd251 2.353 1_455 S
O290 C307 1.242 . S
O291 Gd251 2.468 . S
O291 C315 1.263 . S
O292 Gd251 2.427 . S
O292 C315 1.252 . S
O293 Gd250 2.307 . S
O293 C308 1.261 1_455 S
O294 Gd251 2.388 . S
O294 C308 1.252 . S
C295 O283 1.265 . S
C295 O284 1.242 1_655 S
C296 O287 1.261 . S
C296 O288 1.252 . S
C297 C300 1.394 . S
C297 C302 1.370 . S
C297 C303 1.500 . S
C298 C301 1.383 . S
C298 C302 1.395 . S
C299 C300 1.396 . S
C299 C301 1.365 . S
C299 H316 0.929 . S
C300 C297 1.394 . S
C300 C299 1.396 . S
C300 H317 0.930 . S
C301 C298 1.383 . S
C301 C299 1.365 . S
C301 H318 0.931 . S
C302 C297 1.370 . S
C302 C298 1.395 . S
C302 H319 0.930 . S
C303 Gd250 2.805 . S
C303 O285 1.263 . S
C303 O286 1.252 . S
C303 C297 1.500 . S
C304 H266 0.930 . S
C304 C280 1.417 . S
C304 C305 1.329 . S
C305 C275 1.437 . S
C305 H276 0.929 . S
C305 C304 1.329 . S
H306 C279 0.931 . S
C307 O289 1.265 . S
C307 O290 1.242 . S
C308 O293 1.261 1_655 S
C308 O294 1.252 . S
C309 C312 1.394 . S
C309 C314 1.370 . S
C309 C315 1.500 . S
C310 C313 1.383 . S
C310 C314 1.395 . S
C311 C312 1.396 . S
C311 C313 1.365 . S
C311 H320 0.929 . S
C312 C309 1.394 . S
C312 C311 1.396 . S
C312 H321 0.930 . S
C313 C310 1.383 . S
C313 C311 1.365 . S
C313 H322 0.931 . S
C314 C309 1.370 . S
C314 C310 1.395 . S
C314 H323 0.930 . S
C315 Gd251 2.805 . S
C315 O291 1.263 . S
C315 O292 1.252 . S
C315 C309 1.500 . S
H316 C299 0.929 . S
H317 C300 0.930 . S
H318 C301 0.931 . S
H319 C302 0.930 . S
H320 C311 0.929 . S
H321 C312 0.930 . S
H322 C313 0.931 . S
H323 C314 0.930 . S
C324 C326 1.422 . S
C324 C328 1.415 . S
C324 N330 1.369 . S
C325 C326 1.421 . S
C325 C327 1.417 . S
C325 C337 1.422 . S
C326 C324 1.422 . S
C326 C325 1.421 . S
C326 N336 1.359 . S
C327 C325 1.417 . S
C327 C329 1.329 . S
C327 H346 0.930 . S
C328 C324 1.415 . S
C328 C329 1.437 . S
C328 C332 1.413 . S
C329 C327 1.329 . S
C329 C328 1.437 . S
C329 H351 0.929 . S
N330 C324 1.369 . S
N330 C331 1.338 . S
N330 Gd335 2.622 . S
C331 N330 1.338 . S
C331 C333 1.378 . S
C331 H343 0.929 . S
C332 C328 1.413 . S
C332 C333 1.348 . S
C332 H348 0.931 . S
C333 C331 1.378 . S
C333 C332 1.348 . S
C333 H349 0.930 . S
Gd334 N354 2.622 . S
Gd334 N361 2.570 . S
Gd334 O368 2.353 . S
Gd334 O369 2.468 . S
Gd334 O370 2.427 . S
Gd334 O372 2.388 . S
Gd334 O373 2.386 . S
Gd334 O377 2.307 . S
Gd334 C387 2.805 . S
Gd335 N330 2.622 . S
Gd335 N336 2.570 . S
Gd335 O367 2.386 . S
Gd335 O371 2.307 . S
Gd335 O374 2.353 . S
Gd335 O375 2.468 . S
Gd335 O376 2.427 . S
Gd335 O378 2.388 . S
Gd335 C399 2.805 . S
N336 C326 1.359 . S
N336 Gd335 2.570 . S
N336 C338 1.343 . S
C337 C325 1.422 . S
C337 C339 1.321 . S
C337 H345 0.931 . S
C338 N336 1.343 . S
C338 C339 1.390 . S
C338 H340 0.931 . S
C339 C337 1.321 . S
C339 C338 1.390 . S
C339 H341 0.930 . S
H340 C338 0.931 . S
H341 C339 0.930 . S
H342 C365 0.931 . S
H343 C331 0.929 . S
H344 C366 0.930 . S
H345 C337 0.931 . S
H346 C327 0.930 . S
H347 C356 0.929 . S
H348 C332 0.931 . S
H349 C333 0.930 . S
H350 C388 0.930 . S
H351 C329 0.929 . S
H352 C357 0.931 . S
H353 C358 0.930 . S
N354 Gd334 2.622 . S
N354 C355 1.369 . S
N354 C356 1.338 . S
C355 N354 1.369 . S
C355 C359 1.415 . S
C355 C362 1.422 . S
C356 H347 0.929 . S
C356 N354 1.338 . S
C356 C358 1.378 . S
C357 H352 0.931 . S
C357 C358 1.348 . S
C357 C359 1.413 . S
C358 H353 0.930 . S
C358 C356 1.378 . S
C358 C357 1.348 . S
C359 C355 1.415 . S
C359 C357 1.413 . S
C359 C389 1.437 . S
H360 C389 0.929 . S
N361 Gd334 2.570 . S
N361 C362 1.359 . S
N361 C365 1.343 . S
C362 C355 1.422 . S
C362 N361 1.359 . S
C362 C364 1.421 . S
C363 C364 1.422 . S
C363 C366 1.321 . S
C363 H390 0.931 . S
C364 C362 1.421 . S
C364 C363 1.422 . S
C364 C388 1.417 . S
C365 H342 0.931 . S
C365 N361 1.343 . S
C365 C366 1.390 . S
C366 H344 0.930 . S
C366 C363 1.321 . S
C366 C365 1.390 . S
O367 Gd335 2.386 . S
O367 C379 1.265 . S
O368 Gd334 2.353 . S
O368 C379 1.242 . S
O369 Gd334 2.468 . S
O369 C387 1.263 . S
O370 Gd334 2.427 . S
O370 C387 1.252 . S
O371 Gd335 2.307 . S
O371 C380 1.261 . S
O372 Gd334 2.388 . S
O372 C380 1.252 . S
O373 Gd334 2.386 . S
O373 C391 1.265 . S
O374 Gd335 2.353 . S
O374 C391 1.242 . S
O375 Gd335 2.468 . S
O375 C399 1.263 . S
O376 Gd335 2.427 . S
O376 C399 1.252 . S
O377 Gd334 2.307 . S
O377 C392 1.261 . S
O378 Gd335 2.388 . S
O378 C392 1.252 . S
C379 O367 1.265 . S
C379 O368 1.242 . S
C380 O371 1.261 . S
C380 O372 1.252 . S
C381 C384 1.394 . S
C381 C386 1.370 . S
C381 C387 1.500 . S
C382 C385 1.383 . S
C382 C386 1.395 . S
C383 C384 1.396 . S
C383 C385 1.365 . S
C383 H400 0.929 . S
C384 C381 1.394 . S
C384 C383 1.396 . S
C384 H401 0.930 . S
C385 C382 1.383 . S
C385 C383 1.365 . S
C385 H402 0.931 . S
C386 C381 1.370 . S
C386 C382 1.395 . S
C386 H403 0.930 . S
C387 Gd334 2.805 . S
C387 O369 1.263 . S
C387 O370 1.252 . S
C387 C381 1.500 . S
C388 H350 0.930 . S
C388 C364 1.417 . S
C388 C389 1.329 . S
C389 C359 1.437 . S
C389 H360 0.929 . S
C389 C388 1.329 . S
H390 C363 0.931 . S
C391 O373 1.265 . S
C391 O374 1.242 . S
C392 O377 1.261 . S
C392 O378 1.252 . S
C393 C396 1.394 . S
C393 C398 1.370 . S
C393 C399 1.500 . S
C394 C397 1.383 . S
C394 C398 1.395 . S
C395 C396 1.396 . S
C395 C397 1.365 . S
C395 H404 0.929 . S
C396 C393 1.394 . S
C396 C395 1.396 . S
C396 H405 0.930 . S
C397 C394 1.383 . S
C397 C395 1.365 . S
C397 H406 0.931 . S
C398 C393 1.370 . S
C398 C394 1.395 . S
C398 H407 0.930 . S
C399 Gd335 2.805 . S
C399 O375 1.263 . S
C399 O376 1.252 . S
C399 C393 1.500 . S
H400 C383 0.929 . S
H401 C384 0.930 . S
H402 C385 0.931 . S
H403 C386 0.930 . S
H404 C395 0.929 . S
H405 C396 0.930 . S
H406 C397 0.931 . S
H407 C398 0.930 . S
H408 C416 0.929 . S
H409 C418 0.930 . S
H410 C420 0.930 . S
H411 C423 0.929 . S
H412 C426 0.930 . S
H413 C428 0.960 . S
H414 C428 0.960 . S
H415 C428 0.960 . S
C416 H408 0.929 . S
C416 C417 1.377 . S
C416 C418 1.384 . S
C417 C416 1.377 . S
C417 C423 1.390 . S
C418 H409 0.930 . S
C418 C416 1.384 . S
C418 C419 1.372 . S
C419 C418 1.372 . S
C419 C420 1.400 . S
C419 C424 1.490 . S
C420 H410 0.930 . S
C420 C419 1.400 . S
C420 C423 1.386 . S
H421 C437 0.930 . S
H422 C438 0.931 . S
C423 H411 0.929 . S
C423 C417 1.390 . S
C423 C420 1.386 . S
C424 C419 1.490 . S
C424 C426 1.395 1_565 S
C424 C427 1.403 . S
H425 C431 0.930 . S
C426 H412 0.930 . S
C426 C424 1.395 1_545 S
C426 C429 1.403 . S
C427 C424 1.403 . S
C427 C428 1.524 . S
C427 C431 1.400 1_565 S
C428 H413 0.960 . S
C428 H414 0.960 . S
C428 H415 0.960 . S
C428 C427 1.524 . S
C429 C426 1.403 . S
C429 C430 1.392 . S
C429 C433 1.495 . S
C430 C429 1.392 . S
C430 C431 1.385 . S
C430 C432 1.478 . S
C431 H425 0.930 . S
C431 C427 1.400 1_545 S
C431 C430 1.385 . S
C432 C430 1.478 . S
C432 C434 1.381 . S
C432 C438 1.383 . S
C433 C429 1.495 . S
C433 H439 0.959 . S
C433 H440 0.961 . S
C433 H441 0.960 . S
C434 C432 1.381 . S
C434 C435 1.394 . S
C434 H442 0.930 . S
C435 C434 1.394 . S
C435 C436 1.383 . S
C435 H443 0.929 . S
C436 C435 1.383 . S
C436 C437 1.377 . S
C437 H421 0.930 . S
C437 C436 1.377 . S
C437 C438 1.379 . S
C438 H422 0.931 . S
C438 C432 1.383 . S
C438 C437 1.379 . S
H439 C433 0.959 . S
H440 C433 0.961 . S
H441 C433 0.960 . S
H442 C434 0.930 . S
H443 C435 0.929 . S
H444 C452 0.929 . S
H445 C454 0.930 . S
H446 C456 0.930 . S
H447 C459 0.929 . S
H448 C462 0.930 . S
H449 C464 0.960 . S
H450 C464 0.960 . S
H451 C464 0.960 . S
C452 H444 0.929 . S
C452 C453 1.377 . S
C452 C454 1.384 . S
C453 C452 1.377 . S
C453 C459 1.390 . S
C454 H445 0.930 . S
C454 C452 1.384 . S
C454 C455 1.372 . S
C455 C454 1.372 . S
C455 C456 1.400 . S
C455 C460 1.490 . S
C456 H446 0.930 . S
C456 C455 1.400 . S
C456 C459 1.386 . S
H457 C473 0.930 . S
H458 C474 0.931 . S
C459 H447 0.929 . S
C459 C453 1.390 . S
C459 C456 1.386 . S
C460 C455 1.490 . S
C460 C462 1.395 . S
C460 C463 1.403 . S
H461 C467 0.930 . S
C462 H448 0.930 . S
C462 C460 1.395 . S
C462 C465 1.403 . S
C463 C460 1.403 . S
C463 C464 1.524 . S
C463 C467 1.400 . S
C464 H449 0.960 . S
C464 H450 0.960 . S
C464 H451 0.960 . S
C464 C463 1.524 . S
C465 C462 1.403 . S
C465 C466 1.392 . S
C465 C469 1.495 . S
C466 C465 1.392 . S
C466 C467 1.385 . S
C466 C468 1.478 . S
C467 H461 0.930 . S
C467 C463 1.400 . S
C467 C466 1.385 . S
C468 C466 1.478 . S
C468 C470 1.381 . S
C468 C474 1.383 . S
C469 C465 1.495 . S
C469 H475 0.959 . S
C469 H476 0.961 . S
C469 H477 0.960 . S
C470 C468 1.381 . S
C470 C471 1.394 . S
C470 H478 0.930 . S
C471 C470 1.394 . S
C471 C472 1.383 . S
C471 H479 0.929 . S
C472 C471 1.383 . S
C472 C473 1.377 . S
C473 H457 0.930 . S
C473 C472 1.377 . S
C473 C474 1.379 . S
C474 H458 0.931 . S
C474 C468 1.383 . S
C474 C473 1.379 . S
H475 C469 0.959 . S
H476 C469 0.961 . S
H477 C469 0.960 . S
H478 C470 0.930 . S
H479 C471 0.929 . S
H480 C488 0.929 . S
H481 C490 0.930 . S
H482 C492 0.930 . S
H483 C495 0.929 . S
H484 C498 0.930 . S
H485 C500 0.960 . S
H486 C500 0.960 . S
H487 C500 0.960 . S
C488 H480 0.929 . S
C488 C489 1.377 . S
C488 C490 1.384 . S
C489 C488 1.377 . S
C489 C495 1.390 . S
C490 H481 0.930 . S
C490 C488 1.384 . S
C490 C491 1.372 . S
C491 C490 1.372 . S
C491 C492 1.400 . S
C491 C496 1.490 . S
C492 H482 0.930 . S
C492 C491 1.400 . S
C492 C495 1.386 . S
H493 C509 0.930 . S
H494 C510 0.931 . S
C495 H483 0.929 . S
C495 C489 1.390 . S
C495 C492 1.386 . S
C496 C491 1.490 . S
C496 C498 1.395 . S
C496 C499 1.403 . S
H497 C503 0.930 . S
C498 H484 0.930 . S
C498 C496 1.395 . S
C498 C501 1.403 . S
C499 C496 1.403 . S
C499 C500 1.524 . S
C499 C503 1.400 . S
C500 H485 0.960 . S
C500 H486 0.960 . S
C500 H487 0.960 . S
C500 C499 1.524 . S
C501 C498 1.403 . S
C501 C502 1.392 . S
C501 C505 1.495 . S
C502 C501 1.392 . S
C502 C503 1.385 . S
C502 C504 1.478 . S
C503 H497 0.930 . S
C503 C499 1.400 . S
C503 C502 1.385 . S
C504 C502 1.478 . S
C504 C506 1.381 . S
C504 C510 1.383 . S
C505 C501 1.495 . S
C505 H511 0.959 . S
C505 H512 0.961 . S
C505 H513 0.960 . S
C506 C504 1.381 . S
C506 C507 1.394 . S
C506 H514 0.930 . S
C507 C506 1.394 . S
C507 C508 1.383 . S
C507 H515 0.929 . S
C508 C507 1.383 . S
C508 C509 1.377 . S
C509 H493 0.930 . S
C509 C508 1.377 . S
C509 C510 1.379 . S
C510 H494 0.931 . S
C510 C504 1.383 . S
C510 C509 1.379 . S
H511 C505 0.959 . S
H512 C505 0.961 . S
H513 C505 0.960 . S
H514 C506 0.930 . S
H515 C507 0.929 . S
H516 C524 0.929 . S
H517 C526 0.930 . S
H518 C528 0.930 . S
H519 C531 0.929 . S
H520 C534 0.930 . S
H521 C536 0.960 . S
H522 C536 0.960 1_565 S
H523 C536 0.960 . S
C524 H516 0.929 . S
C524 C525 1.377 . S
C524 C526 1.384 . S
C525 C524 1.377 . S
C525 C531 1.390 . S
C526 H517 0.930 . S
C526 C524 1.384 . S
C526 C527 1.372 . S
C527 C526 1.372 . S
C527 C528 1.400 . S
C527 C532 1.490 . S
C528 H518 0.930 . S
C528 C527 1.400 . S
C528 C531 1.386 . S
H529 C545 0.930 . S
H530 C546 0.931 . S
C531 H519 0.929 . S
C531 C525 1.390 . S
C531 C528 1.386 . S
C532 C527 1.490 . S
C532 C534 1.395 . S
C532 C535 1.403 1_565 S
H533 C539 0.930 . S
C534 H520 0.930 . S
C534 C532 1.395 . S
C534 C537 1.403 1_565 S
C535 C532 1.403 1_545 S
C535 C536 1.524 . S
C535 C539 1.400 . S
C536 H521 0.960 . S
C536 H522 0.960 1_545 S
C536 H523 0.960 . S
C536 C535 1.524 . S
C537 C534 1.403 1_545 S
C537 C538 1.392 . S
C537 C541 1.495 1_545 S
C538 C537 1.392 . S
C538 C539 1.385 . S
C538 C540 1.478 . S
C539 H533 0.930 . S
C539 C535 1.400 . S
C539 C538 1.385 . S
C540 C538 1.478 . S
C540 C542 1.381 . S
C540 C546 1.383 . S
C541 C537 1.495 1_565 S
C541 H547 0.959 . S
C541 H548 0.961 1_565 S
C541 H549 0.960 . S
C542 C540 1.381 . S
C542 C543 1.394 . S
C542 H550 0.930 . S
C543 C542 1.394 . S
C543 C544 1.383 . S
C543 H551 0.929 . S
C544 C543 1.383 . S
C544 C545 1.377 . S
C545 H529 0.930 . S
C545 C544 1.377 . S
C545 C546 1.379 . S
C546 H530 0.931 . S
C546 C540 1.383 . S
C546 C545 1.379 . S
H547 C541 0.959 . S
H548 C541 0.961 1_545 S
H549 C541 0.960 . S
H550 C542 0.930 . S
H551 C543 0.929 . S
H552 C560 0.929 . S
H553 C562 0.930 . S
H554 C564 0.930 . S
H555 C567 0.929 . S
H556 C570 0.930 . S
H557 C572 0.960 . S
H558 C572 0.960 . S
H559 C572 0.960 1_545 S
C560 H552 0.929 . S
C560 C561 1.377 . S
C560 C562 1.384 . S
C561 C560 1.377 . S
C561 C567 1.390 . S
C562 H553 0.930 . S
C562 C560 1.384 . S
C562 C563 1.372 . S
C563 C562 1.372 . S
C563 C564 1.400 . S
C563 C568 1.490 . S
C564 H554 0.930 . S
C564 C563 1.400 . S
C564 C567 1.386 . S
H565 C581 0.930 . S
H566 C582 0.931 . S
C567 H555 0.929 . S
C567 C561 1.390 . S
C567 C564 1.386 . S
C568 C563 1.490 . S
C568 C570 1.395 . S
C568 C571 1.403 1_545 S
H569 C575 0.930 . S
C570 H556 0.930 . S
C570 C568 1.395 . S
C570 C573 1.400 1_545 S
C571 C568 1.403 1_565 S
C571 C572 1.524 . S
C571 C575 1.400 . S
C572 H557 0.960 . S
C572 H558 0.960 . S
C572 H559 0.960 1_565 S
C572 C571 1.524 . S
C573 C570 1.400 1_565 S
C573 C574 1.397 . S
C573 C577 1.494 1_565 S
C574 C573 1.397 . S
C574 C575 1.385 . S
C574 C576 1.478 . S
C575 H569 0.930 . S
C575 C571 1.400 . S
C575 C574 1.385 . S
C576 C574 1.478 . S
C576 C578 1.381 . S
C576 C582 1.383 . S
C577 C573 1.494 1_545 S
C577 H583 0.959 . S
C577 H584 0.961 . S
C577 H585 0.960 1_545 S
C578 C576 1.381 . S
C578 C579 1.394 . S
C578 H586 0.930 . S
C579 C578 1.394 . S
C579 C580 1.383 . S
C579 H587 0.929 . S
C580 C579 1.383 . S
C580 C581 1.377 . S
C581 H565 0.930 . S
C581 C580 1.377 . S
C581 C582 1.379 . S
C582 H566 0.931 . S
C582 C576 1.383 . S
C582 C581 1.379 . S
H583 C577 0.959 . S
H584 C577 0.961 . S
H585 C577 0.960 1_565 S
H586 C578 0.930 . S
H587 C579 0.929 . S
H588 C596 0.929 . S
H589 C598 0.930 . S
H590 C600 0.930 . S
H591 C603 0.929 . S
H592 C606 0.930 . S
H593 C608 0.960 . S
H594 C608 0.960 . S
H595 C608 0.960 . S
C596 H588 0.929 . S
C596 C597 1.377 . S
C596 C598 1.384 . S
C597 C596 1.377 . S
C597 C603 1.390 . S
C598 H589 0.930 . S
C598 C596 1.384 . S
C598 C599 1.372 . S
C599 C598 1.372 . S
C599 C600 1.400 . S
C599 C604 1.490 . S
C600 H590 0.930 . S
C600 C599 1.400 . S
C600 C603 1.386 . S
H601 C617 0.930 . S
H602 C618 0.931 . S
C603 H591 0.929 . S
C603 C597 1.390 . S
C603 C600 1.386 . S
C604 C599 1.490 . S
C604 C606 1.395 . S
C604 C607 1.403 . S
H605 C611 0.930 . S
C606 H592 0.930 . S
C606 C604 1.395 . S
C606 C609 1.403 . S
C607 C604 1.403 . S
C607 C608 1.524 . S
C607 C611 1.400 . S
C608 H593 0.960 . S
C608 H594 0.960 . S
C608 H595 0.960 . S
C608 C607 1.524 . S
C609 C606 1.403 . S
C609 C610 1.392 . S
C609 C613 1.495 . S
C610 C609 1.392 . S
C610 C611 1.385 . S
C610 C612 1.478 . S
C611 H605 0.930 . S
C611 C607 1.400 . S
C611 C610 1.385 . S
C612 C610 1.478 . S
C612 C614 1.381 . S
C612 C618 1.383 . S
C613 C609 1.495 . S
C613 H619 0.959 . S
C613 H620 0.961 . S
C613 H621 0.960 . S
C614 C612 1.381 . S
C614 C615 1.394 . S
C614 H622 0.930 . S
C615 C614 1.394 . S
C615 C616 1.383 . S
C615 H623 0.929 . S
C616 C615 1.383 . S
C616 C617 1.377 . S
C617 H601 0.930 . S
C617 C616 1.377 . S
C617 C618 1.379 . S
C618 H602 0.931 . S
C618 C612 1.383 . S
C618 C617 1.379 . S
H619 C613 0.959 . S
H620 C613 0.961 . S
H621 C613 0.960 . S
H622 C614 0.930 . S
H623 C615 0.929 . S
H624 C632 0.929 . S
H625 C634 0.930 . S
H626 C636 0.930 . S
H627 C639 0.929 . S
H628 C642 0.930 . S
H629 C644 0.960 . S
H630 C644 0.960 . S
H631 C644 0.960 . S
C632 H624 0.929 . S
C632 C633 1.377 . S
C632 C634 1.384 . S
C633 C632 1.377 . S
C633 C639 1.390 . S
C634 H625 0.930 . S
C634 C632 1.384 . S
C634 C635 1.372 . S
C635 C634 1.372 . S
C635 C636 1.400 . S
C635 C640 1.490 . S
C636 H626 0.930 . S
C636 C635 1.400 . S
C636 C639 1.386 . S
H637 C653 0.930 . S
H638 C654 0.931 . S
C639 H627 0.929 . S
C639 C633 1.390 . S
C639 C636 1.386 . S
C640 C635 1.490 . S
C640 C642 1.395 . S
C640 C643 1.403 . S
H641 C647 0.930 . S
C642 H628 0.930 . S
C642 C640 1.395 . S
C642 C645 1.403 . S
C643 C640 1.403 . S
C643 C644 1.524 . S
C643 C647 1.400 . S
C644 H629 0.960 . S
C644 H630 0.960 . S
C644 H631 0.960 . S
C644 C643 1.524 . S
C645 C642 1.403 . S
C645 C646 1.392 . S
C645 C649 1.495 . S
C646 C645 1.392 . S
C646 C647 1.385 . S
C646 C648 1.478 . S
C647 H641 0.930 . S
C647 C643 1.400 . S
C647 C646 1.385 . S
C648 C646 1.478 . S
C648 C650 1.381 . S
C648 C654 1.383 . S
C649 C645 1.495 . S
C649 H655 0.959 . S
C649 H656 0.961 . S
C649 H657 0.960 . S
C650 C648 1.381 . S
C650 C651 1.394 . S
C650 H658 0.930 . S
C651 C650 1.394 . S
C651 C652 1.383 . S
C651 H659 0.929 . S
C652 C651 1.383 . S
C652 C653 1.377 . S
C653 H637 0.930 . S
C653 C652 1.377 . S
C653 C654 1.379 . S
C654 H638 0.931 . S
C654 C648 1.383 . S
C654 C653 1.379 . S
H655 C649 0.959 . S
H656 C649 0.961 . S
H657 C649 0.960 . S
H658 C650 0.930 . S
H659 C651 0.929 . S
H660 C668 0.929 . S
H661 C670 0.930 . S
H662 C672 0.930 . S
H663 C675 0.929 . S
H664 C678 0.930 . S
H665 C680 0.960 . S
H666 C680 0.960 . S
H667 C680 0.960 1_545 S
C668 H660 0.929 . S
C668 C669 1.377 . S
C668 C670 1.384 . S
C669 C668 1.377 . S
C669 C675 1.390 . S
C670 H661 0.930 . S
C670 C668 1.384 . S
C670 C671 1.372 . S
C671 C670 1.372 . S
C671 C672 1.400 . S
C671 C676 1.490 . S
C672 H662 0.930 . S
C672 C671 1.400 . S
C672 C675 1.386 . S
H673 C689 0.930 . S
H674 C690 0.931 . S
C675 H663 0.929 . S
C675 C669 1.390 . S
C675 C672 1.386 . S
C676 C671 1.490 . S
C676 C678 1.395 . S
C676 C679 1.403 1_545 S
H677 C683 0.930 . S
C678 H664 0.930 . S
C678 C676 1.395 . S
C678 C681 1.403 1_545 S
C679 C676 1.403 1_565 S
C679 C680 1.524 . S
C679 C683 1.400 . S
C680 H665 0.960 . S
C680 H666 0.960 . S
C680 H667 0.960 1_565 S
C680 C679 1.524 . S
C681 C678 1.403 1_565 S
C681 C682 1.392 . S
C681 C685 1.493 1_565 S
C682 C681 1.392 . S
C682 C683 1.385 . S
C682 C684 1.478 . S
C683 H677 0.930 . S
C683 C679 1.400 . S
C683 C682 1.385 . S
C684 C682 1.478 . S
C684 C686 1.381 . S
C684 C690 1.383 . S
C685 C681 1.493 1_545 S
C685 H691 0.977 . S
C685 H692 0.963 . S
C685 H693 0.942 1_545 S
C686 C684 1.381 . S
C686 C687 1.394 . S
C686 H694 0.930 . S
C687 C686 1.394 . S
C687 C688 1.383 . S
C687 H695 0.929 . S
C688 C687 1.383 . S
C688 C689 1.377 . S
C689 H673 0.930 . S
C689 C688 1.377 . S
C689 C690 1.379 . S
C690 H674 0.931 . S
C690 C684 1.383 . S
C690 C689 1.379 . S
H691 C685 0.977 . S
H692 C685 0.963 . S
H693 C685 0.942 1_565 S
H694 C686 0.930 . S
H695 C687 0.929 . S
H696 C704 0.929 . S
H697 C706 0.930 . S
H698 C708 0.930 . S
H699 C711 0.929 . S
H700 C714 0.930 . S
H701 C716 0.960 . S
H702 C716 0.960 . S
H703 C716 0.960 . S
C704 H696 0.929 . S
C704 C705 1.377 . S
C704 C706 1.384 . S
C705 C704 1.377 . S
C705 C711 1.390 . S
C706 H697 0.930 . S
C706 C704 1.384 . S
C706 C707 1.372 . S
C707 C706 1.372 . S
C707 C708 1.400 . S
C707 C712 1.490 1_556 S
C708 H698 0.930 . S
C708 C707 1.400 . S
C708 C711 1.386 . S
H709 C725 0.930 . S
H710 C726 0.931 . S
C711 H699 0.929 . S
C711 C705 1.390 . S
C711 C708 1.386 . S
C712 C707 1.490 1_554 S
C712 C714 1.395 . S
C712 C715 1.403 . S
H713 C719 0.930 . S
C714 H700 0.930 . S
C714 C712 1.395 . S
C714 C717 1.403 . S
C715 C712 1.403 . S
C715 C716 1.524 . S
C715 C719 1.400 . S
C716 H701 0.960 . S
C716 H702 0.960 . S
C716 H703 0.960 . S
C716 C715 1.524 . S
C717 C714 1.403 . S
C717 C718 1.392 . S
C717 C721 1.495 . S
C718 C717 1.392 . S
C718 C719 1.385 . S
C718 C720 1.478 . S
C719 H713 0.930 . S
C719 C715 1.400 . S
C719 C718 1.385 . S
C720 C718 1.478 . S
C720 C722 1.381 . S
C720 C726 1.383 . S
C721 C717 1.495 . S
C721 H727 0.959 . S
C721 H728 0.961 . S
C721 H729 0.960 . S
C722 C720 1.381 . S
C722 C723 1.394 . S
C722 H730 0.930 . S
C723 C722 1.394 . S
C723 C724 1.383 . S
C723 H731 0.929 . S
C724 C723 1.383 . S
C724 C725 1.377 . S
C725 H709 0.930 . S
C725 C724 1.377 . S
C725 C726 1.379 . S
C726 H710 0.931 . S
C726 C720 1.383 . S
C726 C725 1.379 . S
H727 C721 0.959 . S
H728 C721 0.961 . S
H729 C721 0.960 . S
H730 C722 0.930 . S
H731 C723 0.929 . S
H732 C740 0.929 . S
H733 C742 0.930 . S
H734 C744 0.930 . S
H735 C747 0.929 . S
H736 C750 0.930 . S
H737 C752 0.960 . S
H738 C752 0.960 . S
H739 C752 0.960 . S
C740 H732 0.929 . S
C740 C741 1.377 . S
C740 C742 1.384 . S
C741 C740 1.377 . S
C741 C747 1.390 . S
C742 H733 0.930 . S
C742 C740 1.384 . S
C742 C743 1.372 . S
C743 C742 1.372 . S
C743 C744 1.400 . S
C743 C748 1.490 . S
C744 H734 0.930 . S
C744 C743 1.400 . S
C744 C747 1.386 . S
H745 C761 0.930 . S
H746 C762 0.931 . S
C747 H735 0.929 . S
C747 C741 1.390 . S
C747 C744 1.386 . S
C748 C743 1.490 . S
C748 C750 1.395 . S
C748 C751 1.403 . S
H749 C755 0.930 . S
C750 H736 0.930 . S
C750 C748 1.395 . S
C750 C753 1.403 . S
C751 C748 1.403 . S
C751 C752 1.524 . S
C751 C755 1.400 . S
C752 H737 0.960 . S
C752 H738 0.960 . S
C752 H739 0.960 . S
C752 C751 1.524 . S
C753 C750 1.403 . S
C753 C754 1.392 . S
C753 C757 1.495 . S
C754 C753 1.392 . S
C754 C755 1.385 . S
C754 C756 1.478 . S
C755 H749 0.930 . S
C755 C751 1.400 . S
C755 C754 1.385 . S
C756 C754 1.478 . S
C756 C758 1.381 . S
C756 C762 1.383 . S
C757 C753 1.495 . S
C757 H763 0.959 . S
C757 H764 0.961 . S
C757 H765 0.960 . S
C758 C756 1.381 . S
C758 C759 1.394 . S
C758 H766 0.930 . S
C759 C758 1.394 . S
C759 C760 1.383 . S
C759 H767 0.929 . S
C760 C759 1.383 . S
C760 C761 1.377 . S
C761 H745 0.930 . S
C761 C760 1.377 . S
C761 C762 1.379 . S
C762 H746 0.931 . S
C762 C756 1.383 . S
C762 C761 1.379 . S
H763 C757 0.959 . S
H764 C757 0.961 . S
H765 C757 0.960 . S
H766 C758 0.930 . S
H767 C759 0.929 . S
H768 C776 0.929 . S
H769 C778 0.930 . S
H770 C780 0.930 . S
H771 C783 0.929 . S
H772 C786 0.930 . S
H773 C788 0.960 . S
H774 C788 0.960 1_554 S
H775 C788 0.960 1_554 S
C776 H768 0.929 . S
C776 C777 1.377 . S
C776 C778 1.384 . S
C777 C776 1.377 . S
C777 C783 1.390 . S
C778 H769 0.930 . S
C778 C776 1.384 . S
C778 C779 1.372 . S
C779 C778 1.372 . S
C779 C780 1.400 . S
C779 C784 1.490 1_554 S
C780 H770 0.930 . S
C780 C779 1.400 . S
C780 C783 1.386 . S
H781 C797 0.930 . S
H782 C798 0.931 . S
C783 H771 0.929 . S
C783 C777 1.390 . S
C783 C780 1.386 . S
C784 C779 1.490 1_556 S
C784 C786 1.395 . S
C784 C787 1.403 . S
H785 C791 0.930 . S
C786 H772 0.930 . S
C786 C784 1.395 . S
C786 C789 1.403 . S
C787 C784 1.403 . S
C787 C788 1.524 . S
C787 C791 1.400 . S
C788 H773 0.960 . S
C788 H774 0.960 1_556 S
C788 H775 0.960 1_556 S
C788 C787 1.524 . S
C789 C786 1.403 . S
C789 C790 1.392 . S
C789 C793 1.495 . S
C790 C789 1.392 . S
C790 C791 1.385 . S
C790 C792 1.478 . S
C791 H785 0.930 . S
C791 C787 1.400 . S
C791 C790 1.385 . S
C792 C790 1.478 . S
C792 C794 1.381 . S
C792 C798 1.383 . S
C793 C789 1.495 . S
C793 H799 0.959 . S
C793 H800 0.961 . S
C793 H801 0.960 . S
C794 C792 1.381 . S
C794 C795 1.394 . S
C794 H802 0.930 . S
C795 C794 1.394 . S
C795 C796 1.383 . S
C795 H803 0.929 . S
C796 C795 1.383 . S
C796 C797 1.377 . S
C797 H781 0.930 . S
C797 C796 1.377 . S
C797 C798 1.379 . S
C798 H782 0.931 . S
C798 C792 1.383 . S
C798 C797 1.379 . S
H799 C793 0.959 . S
H800 C793 0.961 . S
H801 C793 0.960 . S
H802 C794 0.930 . S
H803 C795 0.929 . S
H804 C812 0.929 . S
H805 C814 0.930 . S
H806 C816 0.930 . S
H807 C819 0.929 . S
H808 C822 0.930 . S
H809 C824 0.960 . S
H810 C824 0.960 . S
H811 C824 0.960 . S
C812 H804 0.929 . S
C812 C813 1.377 . S
C812 C814 1.384 . S
C813 C812 1.377 . S
C813 C819 1.390 . S
C814 H805 0.930 . S
C814 C812 1.384 . S
C814 C815 1.372 . S
C815 C814 1.372 . S
C815 C816 1.400 . S
C815 C820 1.490 . S
C816 H806 0.930 . S
C816 C815 1.400 . S
C816 C819 1.386 . S
H817 C833 0.930 . S
H818 C834 0.931 . S
C819 H807 0.929 . S
C819 C813 1.390 . S
C819 C816 1.386 . S
C820 C815 1.490 . S
C820 C822 1.395 . S
C820 C823 1.403 . S
H821 C827 0.930 . S
C822 H808 0.930 . S
C822 C820 1.395 . S
C822 C825 1.403 . S
C823 C820 1.403 . S
C823 C824 1.524 . S
C823 C827 1.400 . S
C824 H809 0.960 . S
C824 H810 0.960 . S
C824 H811 0.960 . S
C824 C823 1.524 . S
C825 C822 1.403 . S
C825 C826 1.392 . S
C825 C829 1.495 . S
C826 C825 1.392 . S
C826 C827 1.385 . S
C826 C828 1.478 . S
C827 H821 0.930 . S
C827 C823 1.400 . S
C827 C826 1.385 . S
C828 C826 1.478 . S
C828 C830 1.381 . S
C828 C834 1.383 . S
C829 C825 1.495 . S
C829 H835 0.959 . S
C829 H836 0.961 . S
C829 H837 0.960 . S
C830 C828 1.381 . S
C830 C831 1.394 . S
C830 H838 0.930 . S
C831 C830 1.394 . S
C831 C832 1.383 . S
C831 H839 0.929 . S
C832 C831 1.383 . S
C832 C833 1.377 . S
C833 H817 0.930 . S
C833 C832 1.377 . S
C833 C834 1.379 . S
C834 H818 0.931 . S
C834 C828 1.383 . S
C834 C833 1.379 . S
H835 C829 0.959 . S
H836 C829 0.961 . S
H837 C829 0.960 . S
H838 C830 0.930 . S
H839 C831 0.929 . S
H840 C848 0.929 . S
H841 C850 0.930 . S
H842 C852 0.930 . S
H843 C855 0.929 . S
H844 C858 0.930 . S
H845 C860 0.960 . S
H846 C860 0.960 1_554 S
H847 C860 0.960 1_554 S
C848 H840 0.929 . S
C848 C849 1.377 . S
C848 C850 1.384 . S
C849 C848 1.377 . S
C849 C855 1.390 . S
C850 H841 0.930 . S
C850 C848 1.384 . S
C850 C851 1.372 . S
C851 C850 1.372 . S
C851 C852 1.400 . S
C851 C856 1.490 1_554 S
C852 H842 0.930 . S
C852 C851 1.400 . S
C852 C855 1.386 . S
H853 C869 0.930 . S
H854 C870 0.931 . S
C855 H843 0.929 . S
C855 C849 1.390 . S
C855 C852 1.386 . S
C856 C851 1.490 1_556 S
C856 C858 1.395 . S
C856 C859 1.403 . S
H857 C863 0.930 . S
C858 H844 0.930 . S
C858 C856 1.395 . S
C858 C861 1.403 . S
C859 C856 1.403 . S
C859 C860 1.524 . S
C859 C863 1.400 . S
C860 H845 0.960 . S
C860 H846 0.960 1_556 S
C860 H847 0.960 1_556 S
C860 C859 1.524 . S
C861 C858 1.403 . S
C861 C862 1.392 . S
C861 C865 1.495 . S
C862 C861 1.392 . S
C862 C863 1.385 . S
C862 C864 1.478 . S
C863 H857 0.930 . S
C863 C859 1.400 . S
C863 C862 1.385 . S
C864 C862 1.478 . S
C864 C866 1.381 . S
C864 C870 1.383 . S
C865 C861 1.495 . S
C865 H871 0.959 . S
C865 H872 0.961 . S
C865 H873 0.960 . S
C866 C864 1.381 . S
C866 C867 1.394 . S
C866 H874 0.930 . S
C867 C866 1.394 . S
C867 C868 1.383 . S
C867 H875 0.929 . S
C868 C867 1.383 . S
C868 C869 1.377 . S
C869 H853 0.930 . S
C869 C868 1.377 . S
C869 C870 1.379 . S
C870 H854 0.931 . S
C870 C864 1.383 . S
C870 C869 1.379 . S
H871 C865 0.959 . S
H872 C865 0.961 . S
H873 C865 0.960 . S
H874 C866 0.930 . S
H875 C867 0.929 . S
H876 C884 0.929 . S
H877 C886 0.930 . S
H878 C888 0.930 . S
H879 C891 0.929 . S
H880 C894 0.930 . S
H881 C896 0.960 . S
H882 C896 0.960 . S
H883 C896 0.960 . S
C884 H876 0.929 . S
C884 C885 1.377 . S
C884 C886 1.384 . S
C885 C884 1.377 . S
C885 C891 1.390 . S
C886 H877 0.930 . S
C886 C884 1.384 . S
C886 C887 1.372 . S
C887 C886 1.372 . S
C887 C888 1.400 . S
C887 C892 1.490 . S
C888 H878 0.930 . S
C888 C887 1.400 . S
C888 C891 1.386 . S
H889 C905 0.930 . S
H890 C906 0.931 . S
C891 H879 0.929 . S
C891 C885 1.390 . S
C891 C888 1.386 . S
C892 C887 1.490 . S
C892 C894 1.395 . S
C892 C895 1.403 . S
H893 C899 0.930 . S
C894 H880 0.930 . S
C894 C892 1.395 . S
C894 C897 1.403 . S
C895 C892 1.403 . S
C895 C896 1.524 . S
C895 C899 1.400 . S
C896 H881 0.960 . S
C896 H882 0.960 . S
C896 H883 0.960 . S
C896 C895 1.524 . S
C897 C894 1.403 . S
C897 C898 1.392 . S
C897 C901 1.495 . S
C898 C897 1.392 . S
C898 C899 1.385 . S
C898 C900 1.478 . S
C899 H893 0.930 . S
C899 C895 1.400 . S
C899 C898 1.385 . S
C900 C898 1.478 . S
C900 C902 1.381 . S
C900 C906 1.383 . S
C901 C897 1.495 . S
C901 H907 0.959 . S
C901 H908 0.961 . S
C901 H909 0.960 . S
C902 C900 1.381 . S
C902 C903 1.394 . S
C902 H910 0.930 . S
C903 C902 1.394 . S
C903 C904 1.383 . S
C903 H911 0.929 . S
C904 C903 1.383 . S
C904 C905 1.377 . S
C905 H889 0.930 . S
C905 C904 1.377 . S
C905 C906 1.379 . S
C906 H890 0.931 . S
C906 C900 1.383 . S
C906 C905 1.379 . S
H907 C901 0.959 . S
H908 C901 0.961 . S
H909 C901 0.960 . S
H910 C902 0.930 . S
H911 C903 0.929 . S
H912 C920 0.929 . S
H913 C922 0.930 . S
H914 C924 0.930 . S
H915 C927 0.929 . S
H916 C930 0.930 . S
H917 C932 0.960 . S
H918 C932 0.960 1_556 S
H919 C932 0.960 1_556 S
C920 H912 0.929 . S
C920 C921 1.377 . S
C920 C922 1.384 . S
C921 C920 1.377 . S
C921 C927 1.390 . S
C922 H913 0.930 . S
C922 C920 1.384 . S
C922 C923 1.372 . S
C923 C922 1.372 . S
C923 C924 1.400 . S
C923 C928 1.490 1_556 S
C924 H914 0.930 . S
C924 C923 1.400 . S
C924 C927 1.386 . S
H925 C941 0.930 . S
H926 C942 0.931 . S
C927 H915 0.929 . S
C927 C921 1.390 . S
C927 C924 1.386 . S
C928 C923 1.490 1_554 S
C928 C930 1.395 . S
C928 C931 1.403 . S
H929 C935 0.930 . S
C930 H916 0.930 . S
C930 C928 1.395 . S
C930 C933 1.403 . S
C931 C928 1.403 . S
C931 C932 1.524 . S
C931 C935 1.400 . S
C932 H917 0.960 . S
C932 H918 0.960 1_554 S
C932 H919 0.960 1_554 S
C932 C931 1.524 . S
C933 C930 1.403 . S
C933 C934 1.392 . S
C933 C937 1.495 . S
C934 C933 1.392 . S
C934 C935 1.385 . S
C934 C936 1.478 . S
C935 H929 0.930 . S
C935 C931 1.400 . S
C935 C934 1.385 . S
C936 C934 1.478 . S
C936 C938 1.381 . S
C936 C942 1.383 . S
C937 C933 1.495 . S
C937 H943 0.959 . S
C937 H944 0.961 . S
C937 H945 0.960 . S
C938 C936 1.381 . S
C938 C939 1.394 . S
C938 H946 0.930 . S
C939 C938 1.394 . S
C939 C940 1.383 . S
C939 H947 0.929 . S
C940 C939 1.383 . S
C940 C941 1.377 . S
C941 H925 0.930 . S
C941 C940 1.377 . S
C941 C942 1.379 . S
C942 H926 0.931 . S
C942 C936 1.383 . S
C942 C941 1.379 . S
H943 C937 0.959 . S
H944 C937 0.961 . S
H945 C937 0.960 . S
H946 C938 0.930 . S
H947 C939 0.929 . S
H948 C956 0.929 . S
H949 C958 0.930 . S
H950 C960 0.930 . S
H951 C963 0.929 . S
H952 C966 0.930 . S
H953 C968 0.960 . S
H954 C968 0.960 . S
H955 C968 0.960 . S
C956 H948 0.929 . S
C956 C957 1.377 . S
C956 C958 1.384 . S
C957 C956 1.377 . S
C957 C963 1.390 . S
C958 H949 0.930 . S
C958 C956 1.384 . S
C958 C959 1.372 . S
C959 C958 1.372 . S
C959 C960 1.400 . S
C959 C964 1.490 . S
C960 H950 0.930 . S
C960 C959 1.400 . S
C960 C963 1.386 . S
H961 C977 0.930 . S
H962 C978 0.931 . S
C963 H951 0.929 . S
C963 C957 1.390 . S
C963 C960 1.386 . S
C964 C959 1.490 . S
C964 C966 1.395 . S
C964 C967 1.403 . S
H965 C971 0.930 . S
C966 H952 0.930 . S
C966 C964 1.395 . S
C966 C969 1.403 . S
C967 C964 1.403 . S
C967 C968 1.524 . S
C967 C971 1.400 . S
C968 H953 0.960 . S
C968 H954 0.960 . S
C968 H955 0.960 . S
C968 C967 1.524 . S
C969 C966 1.403 . S
C969 C970 1.392 . S
C969 C973 1.495 . S
C970 C969 1.392 . S
C970 C971 1.385 . S
C970 C972 1.478 . S
C971 H965 0.930 . S
C971 C967 1.400 . S
C971 C970 1.385 . S
C972 C970 1.478 . S
C972 C974 1.381 . S
C972 C978 1.383 . S
C973 C969 1.495 . S
C973 H979 0.959 . S
C973 H980 0.961 . S
C973 H981 0.960 . S
C974 C972 1.381 . S
C974 C975 1.394 . S
C974 H982 0.930 . S
C975 C974 1.394 . S
C975 C976 1.383 . S
C975 H983 0.929 . S
C976 C975 1.383 . S
C976 C977 1.377 . S
C977 H961 0.930 . S
C977 C976 1.377 . S
C977 C978 1.379 . S
C978 H962 0.931 . S
C978 C972 1.383 . S
C978 C977 1.379 . S
H979 C973 0.959 . S
H980 C973 0.961 . S
H981 C973 0.960 . S
H982 C974 0.930 . S
H983 C975 0.929 . S
H984 C992 0.929 . S
H985 C994 0.930 . S
H986 C996 0.930 . S
H987 C999 0.929 . S
H988 C1002 0.930 . S
H989 C1004 0.960 . S
H990 C1004 0.960 . S
H991 C1004 0.960 . S
C992 H984 0.929 . S
C992 C993 1.377 . S
C992 C994 1.384 . S
C993 C992 1.377 . S
C993 C999 1.390 . S
C994 H985 0.930 . S
C994 C992 1.384 . S
C994 C995 1.372 . S
C995 C994 1.372 . S
C995 C996 1.400 . S
C995 C1000 1.490 . S
C996 H986 0.930 . S
C996 C995 1.400 . S
C996 C999 1.386 . S
H997 C1013 0.930 . S
H998 C1014 0.931 . S
C999 H987 0.929 . S
C999 C993 1.390 . S
C999 C996 1.386 . S
C1000 C995 1.490 . S
C1000 C1002 1.395 . S
C1000 C1003 1.403 . S
H1001 C1007 0.930 . S
C1002 H988 0.930 . S
C1002 C1000 1.395 . S
C1002 C1005 1.403 . S
C1003 C1000 1.403 . S
C1003 C1004 1.524 . S
C1003 C1007 1.400 . S
C1004 H989 0.960 . S
C1004 H990 0.960 . S
C1004 H991 0.960 . S
C1004 C1003 1.524 . S
C1005 C1002 1.403 . S
C1005 C1006 1.392 . S
C1005 C1009 1.495 . S
C1006 C1005 1.392 . S
C1006 C1007 1.385 . S
C1006 C1008 1.478 . S
C1007 H1001 0.930 . S
C1007 C1003 1.400 . S
C1007 C1006 1.385 . S
C1008 C1006 1.478 . S
C1008 C1010 1.381 . S
C1008 C1014 1.383 . S
C1009 C1005 1.495 . S
C1009 H1015 0.959 . S
C1009 H1016 0.961 . S
C1009 H1017 0.960 . S
C1010 C1008 1.381 . S
C1010 C1011 1.394 . S
C1010 H1018 0.930 . S
C1011 C1010 1.394 . S
C1011 C1012 1.383 . S
C1011 H1019 0.929 . S
C1012 C1011 1.383 . S
C1012 C1013 1.377 . S
C1013 H997 0.930 . S
C1013 C1012 1.377 . S
C1013 C1014 1.379 . S
C1014 H998 0.931 . S
C1014 C1008 1.383 . S
C1014 C1013 1.379 . S
H1015 C1009 0.959 . S
H1016 C1009 0.961 . S
H1017 C1009 0.960 . S
H1018 C1010 0.930 . S
H1019 C1011 0.929 . S
H1020 C1028 0.929 . S
H1021 C1030 0.930 . S
H1022 C1032 0.930 . S
H1023 C1035 0.929 . S
H1024 C1038 0.930 . S
H1025 C1040 0.960 . S
H1026 C1040 0.960 . S
H1027 C1040 0.960 . S
C1028 H1020 0.929 . S
C1028 C1029 1.377 . S
C1028 C1030 1.384 . S
C1029 C1028 1.377 . S
C1029 C1035 1.390 . S
C1030 H1021 0.930 . S
C1030 C1028 1.384 . S
C1030 C1031 1.372 . S
C1031 C1030 1.372 . S
C1031 C1032 1.400 . S
C1031 C1036 1.490 . S
C1032 H1022 0.930 . S
C1032 C1031 1.400 . S
C1032 C1035 1.386 . S
H1033 C1049 0.930 . S
H1034 C1050 0.931 . S
C1035 H1023 0.929 . S
C1035 C1029 1.390 . S
C1035 C1032 1.386 . S
C1036 C1031 1.490 . S
C1036 C1038 1.395 . S
C1036 C1039 1.403 . S
H1037 C1043 0.930 . S
C1038 H1024 0.930 . S
C1038 C1036 1.395 . S
C1038 C1041 1.403 . S
C1039 C1036 1.403 . S
C1039 C1040 1.524 . S
C1039 C1043 1.400 . S
C1040 H1025 0.960 . S
C1040 H1026 0.960 . S
C1040 H1027 0.960 . S
C1040 C1039 1.524 . S
C1041 C1038 1.403 . S
C1041 C1042 1.392 . S
C1041 C1045 1.495 . S
C1042 C1041 1.392 . S
C1042 C1043 1.385 . S
C1042 C1044 1.478 . S
C1043 H1037 0.930 . S
C1043 C1039 1.400 . S
C1043 C1042 1.385 . S
C1044 C1042 1.478 . S
C1044 C1046 1.381 . S
C1044 C1050 1.383 . S
C1045 C1041 1.495 . S
C1045 H1051 0.959 . S
C1045 H1052 0.961 . S
C1045 H1053 0.960 . S
C1046 C1044 1.381 . S
C1046 C1047 1.394 . S
C1046 H1054 0.930 . S
C1047 C1046 1.394 . S
C1047 C1048 1.383 . S
C1047 H1055 0.929 . S
C1048 C1047 1.383 . S
C1048 C1049 1.377 . S
C1049 H1033 0.930 . S
C1049 C1048 1.377 . S
C1049 C1050 1.379 . S
C1050 H1034 0.931 . S
C1050 C1044 1.383 . S
C1050 C1049 1.379 . S
H1051 C1045 0.959 . S
H1052 C1045 0.961 . S
H1053 C1045 0.960 . S
H1054 C1046 0.930 . S
H1055 C1047 0.929 . S
H1056 C1064 0.929 . S
H1057 C1066 0.930 . S
H1058 C1068 0.930 . S
H1059 C1071 0.929 . S
H1060 C1074 0.930 . S
H1061 C1076 0.960 . S
H1062 C1076 0.960 . S
H1063 C1076 0.960 . S
C1064 H1056 0.929 . S
C1064 C1065 1.377 . S
C1064 C1066 1.384 . S
C1065 C1064 1.377 . S
C1065 C1071 1.390 . S
C1066 H1057 0.930 . S
C1066 C1064 1.384 . S
C1066 C1067 1.372 . S
C1067 C1066 1.372 . S
C1067 C1068 1.400 . S
C1067 C1072 1.490 . S
C1068 H1058 0.930 . S
C1068 C1067 1.400 . S
C1068 C1071 1.386 . S
H1069 C1085 0.930 . S
H1070 C1086 0.931 . S
C1071 H1059 0.929 . S
C1071 C1065 1.390 . S
C1071 C1068 1.386 . S
C1072 C1067 1.490 . S
C1072 C1074 1.395 . S
C1072 C1075 1.403 . S
H1073 C1079 0.930 . S
C1074 H1060 0.930 . S
C1074 C1072 1.395 . S
C1074 C1077 1.403 . S
C1075 C1072 1.403 . S
C1075 C1076 1.524 . S
C1075 C1079 1.400 . S
C1076 H1061 0.960 . S
C1076 H1062 0.960 . S
C1076 H1063 0.960 . S
C1076 C1075 1.524 . S
C1077 C1074 1.403 . S
C1077 C1078 1.392 . S
C1077 C1081 1.495 . S
C1078 C1077 1.392 . S
C1078 C1079 1.385 . S
C1078 C1080 1.478 . S
C1079 H1073 0.930 . S
C1079 C1075 1.400 . S
C1079 C1078 1.385 . S
C1080 C1078 1.478 . S
C1080 C1082 1.381 . S
C1080 C1086 1.383 . S
C1081 C1077 1.495 . S
C1081 H1087 0.959 . S
C1081 H1088 0.961 . S
C1081 H1089 0.960 . S
C1082 C1080 1.381 . S
C1082 C1083 1.394 . S
C1082 H1090 0.930 . S
C1083 C1082 1.394 . S
C1083 C1084 1.383 . S
C1083 H1091 0.929 . S
C1084 C1083 1.383 . S
C1084 C1085 1.377 . S
C1085 H1069 0.930 . S
C1085 C1084 1.377 . S
C1085 C1086 1.379 . S
C1086 H1070 0.931 . S
C1086 C1080 1.383 . S
C1086 C1085 1.379 . S
H1087 C1081 0.959 . S
H1088 C1081 0.961 . S
H1089 C1081 0.960 . S
H1090 C1082 0.930 . S
H1091 C1083 0.929 . S
H1092 C1100 0.929 . S
H1093 C1102 0.930 . S
H1094 C1104 0.930 . S
H1095 C1107 0.929 . S
H1096 C1110 0.930 . S
H1097 C1112 0.960 . S
H1098 C1112 0.960 . S
H1099 C1112 0.960 . S
C1100 H1092 0.929 . S
C1100 C1101 1.377 . S
C1100 C1102 1.384 . S
C1101 C1100 1.377 . S
C1101 C1107 1.390 . S
C1102 H1093 0.930 . S
C1102 C1100 1.384 . S
C1102 C1103 1.372 . S
C1103 C1102 1.372 . S
C1103 C1104 1.400 . S
C1103 C1108 1.490 . S
C1104 H1094 0.930 . S
C1104 C1103 1.400 . S
C1104 C1107 1.386 . S
H1105 C1121 0.930 . S
H1106 C1122 0.931 . S
C1107 H1095 0.929 . S
C1107 C1101 1.390 . S
C1107 C1104 1.386 . S
C1108 C1103 1.490 . S
C1108 C1110 1.395 . S
C1108 C1111 1.403 . S
H1109 C1115 0.930 . S
C1110 H1096 0.930 . S
C1110 C1108 1.395 . S
C1110 C1113 1.403 . S
C1111 C1108 1.403 . S
C1111 C1112 1.524 . S
C1111 C1115 1.400 . S
C1112 H1097 0.960 . S
C1112 H1098 0.960 . S
C1112 H1099 0.960 . S
C1112 C1111 1.524 . S
C1113 C1110 1.403 . S
C1113 C1114 1.392 . S
C1113 C1117 1.495 . S
C1114 C1113 1.392 . S
C1114 C1115 1.385 . S
C1114 C1116 1.478 . S
C1115 H1109 0.930 . S
C1115 C1111 1.400 . S
C1115 C1114 1.385 . S
C1116 C1114 1.478 . S
C1116 C1118 1.381 . S
C1116 C1122 1.383 . S
C1117 C1113 1.495 . S
C1117 H1123 0.959 . S
C1117 H1124 0.961 . S
C1117 H1125 0.960 . S
C1118 C1116 1.381 . S
C1118 C1119 1.394 . S
C1118 H1126 0.930 . S
C1119 C1118 1.394 . S
C1119 C1120 1.383 . S
C1119 H1127 0.929 1_655 S
C1120 C1119 1.383 . S
C1120 C1121 1.377 . S
C1121 H1105 0.930 . S
C1121 C1120 1.377 . S
C1121 C1122 1.379 . S
C1122 H1106 0.931 . S
C1122 C1116 1.383 . S
C1122 C1121 1.379 . S
H1123 C1117 0.959 . S
H1124 C1117 0.961 . S
H1125 C1117 0.960 . S
H1126 C1118 0.930 . S
H1127 C1119 0.929 1_455 S
H1128 C1136 0.929 . S
H1129 C1138 0.930 . S
H1130 C1140 0.930 . S
H1131 C1143 0.929 . S
H1132 C1146 0.930 . S
H1133 C1148 0.960 . S
H1134 C1148 0.960 . S
H1135 C1148 0.960 . S
C1136 H1128 0.929 . S
C1136 C1137 1.377 . S
C1136 C1138 1.384 . S
C1137 C1136 1.377 . S
C1137 C1143 1.390 . S
C1138 H1129 0.930 . S
C1138 C1136 1.384 . S
C1138 C1139 1.372 . S
C1139 C1138 1.372 . S
C1139 C1140 1.400 . S
C1139 C1144 1.490 . S
C1140 H1130 0.930 . S
C1140 C1139 1.400 . S
C1140 C1143 1.386 . S
H1141 C1157 0.930 . S
H1142 C1158 0.931 . S
C1143 H1131 0.929 . S
C1143 C1137 1.390 . S
C1143 C1140 1.386 . S
C1144 C1139 1.490 . S
C1144 C1146 1.395 . S
C1144 C1147 1.403 . S
H1145 C1151 0.930 . S
C1146 H1132 0.930 . S
C1146 C1144 1.395 . S
C1146 C1149 1.403 . S
C1147 C1144 1.403 . S
C1147 C1148 1.524 . S
C1147 C1151 1.400 . S
C1148 H1133 0.960 . S
C1148 H1134 0.960 . S
C1148 H1135 0.960 . S
C1148 C1147 1.524 . S
C1149 C1146 1.403 . S
C1149 C1150 1.392 . S
C1149 C1153 1.495 . S
C1150 C1149 1.392 . S
C1150 C1151 1.385 . S
C1150 C1152 1.478 . S
C1151 H1145 0.930 . S
C1151 C1147 1.400 . S
C1151 C1150 1.385 . S
C1152 C1150 1.478 . S
C1152 C1154 1.381 . S
C1152 C1158 1.383 . S
C1153 C1149 1.495 . S
C1153 H1159 0.959 . S
C1153 H1160 0.961 . S
C1153 H1161 0.960 . S
C1154 C1152 1.381 . S
C1154 C1155 1.394 . S
C1154 H1162 0.930 . S
C1155 C1154 1.394 . S
C1155 C1156 1.383 . S
C1155 H1163 0.929 . S
C1156 C1155 1.383 . S
C1156 C1157 1.377 . S
C1157 H1141 0.930 . S
C1157 C1156 1.377 . S
C1157 C1158 1.379 . S
C1158 H1142 0.931 . S
C1158 C1152 1.383 . S
C1158 C1157 1.379 . S
H1159 C1153 0.959 . S
H1160 C1153 0.961 . S
H1161 C1153 0.960 . S
H1162 C1154 0.930 . S
H1163 C1155 0.929 . S
H1164 C1172 0.929 . S
H1165 C1174 0.930 . S
H1166 C1176 0.930 . S
H1167 C1179 0.929 . S
H1168 C1182 0.930 . S
H1169 C1184 0.960 . S
H1170 C1184 0.960 . S
H1171 C1184 0.960 . S
C1172 H1164 0.929 . S
C1172 C1173 1.377 . S
C1172 C1174 1.384 . S
C1173 C1172 1.377 . S
C1173 C1179 1.390 . S
C1174 H1165 0.930 . S
C1174 C1172 1.384 . S
C1174 C1175 1.372 . S
C1175 C1174 1.372 . S
C1175 C1176 1.400 . S
C1175 C1180 1.490 . S
C1176 H1166 0.930 . S
C1176 C1175 1.400 . S
C1176 C1179 1.386 . S
H1177 C1193 0.930 . S
H1178 C1194 0.931 . S
C1179 H1167 0.929 . S
C1179 C1173 1.390 . S
C1179 C1176 1.386 . S
C1180 C1175 1.490 . S
C1180 C1182 1.395 . S
C1180 C1183 1.403 . S
H1181 C1187 0.930 . S
C1182 H1168 0.930 . S
C1182 C1180 1.395 . S
C1182 C1185 1.403 . S
C1183 C1180 1.403 . S
C1183 C1184 1.524 . S
C1183 C1187 1.400 . S
C1184 H1169 0.960 . S
C1184 H1170 0.960 . S
C1184 H1171 0.960 . S
C1184 C1183 1.524 . S
C1185 C1182 1.403 . S
C1185 C1186 1.392 . S
C1185 C1189 1.495 . S
C1186 C1185 1.392 . S
C1186 C1187 1.385 . S
C1186 C1188 1.478 . S
C1187 H1181 0.930 . S
C1187 C1183 1.400 . S
C1187 C1186 1.385 . S
C1188 C1186 1.478 . S
C1188 C1190 1.381 . S
C1188 C1194 1.383 . S
C1189 C1185 1.495 . S
C1189 H1195 0.959 . S
C1189 H1196 0.961 . S
C1189 H1197 0.960 . S
C1190 C1188 1.381 . S
C1190 C1191 1.394 . S
C1190 H1198 0.930 . S
C1191 C1190 1.394 . S
C1191 C1192 1.383 . S
C1191 H1199 0.929 . S
C1192 C1191 1.383 . S
C1192 C1193 1.377 . S
C1193 H1177 0.930 . S
C1193 C1192 1.377 . S
C1193 C1194 1.379 . S
C1194 H1178 0.931 . S
C1194 C1188 1.383 . S
C1194 C1193 1.379 . S
H1195 C1189 0.959 . S
H1196 C1189 0.961 . S
H1197 C1189 0.960 . S
H1198 C1190 0.930 . S
H1199 C1191 0.929 . S
H1200 C1208 0.929 . S
H1201 C1210 0.930 . S
H1202 C1212 0.930 . S
H1203 C1215 0.929 . S
H1204 C1218 0.930 . S
H1205 C1220 0.960 . S
H1206 C1220 0.960 . S
H1207 C1220 0.960 . S
C1208 H1200 0.929 . S
C1208 C1209 1.377 . S
C1208 C1210 1.384 . S
C1209 C1208 1.377 . S
C1209 C1215 1.390 . S
C1210 H1201 0.930 . S
C1210 C1208 1.384 . S
C1210 C1211 1.372 . S
C1211 C1210 1.372 . S
C1211 C1212 1.400 . S
C1211 C1216 1.490 . S
C1212 H1202 0.930 . S
C1212 C1211 1.400 . S
C1212 C1215 1.386 . S
H1213 C1229 0.930 . S
H1214 C1230 0.931 . S
C1215 H1203 0.929 . S
C1215 C1209 1.390 . S
C1215 C1212 1.386 . S
C1216 C1211 1.490 . S
C1216 C1218 1.395 . S
C1216 C1219 1.403 . S
H1217 C1223 0.930 . S
C1218 H1204 0.930 . S
C1218 C1216 1.395 . S
C1218 C1221 1.403 . S
C1219 C1216 1.403 . S
C1219 C1220 1.524 . S
C1219 C1223 1.400 . S
C1220 H1205 0.960 . S
C1220 H1206 0.960 . S
C1220 H1207 0.960 . S
C1220 C1219 1.524 . S
C1221 C1218 1.403 . S
C1221 C1222 1.392 . S
C1221 C1225 1.495 . S
C1222 C1221 1.392 . S
C1222 C1223 1.385 . S
C1222 C1224 1.478 . S
C1223 H1217 0.930 . S
C1223 C1219 1.400 . S
C1223 C1222 1.385 . S
C1224 C1222 1.478 . S
C1224 C1226 1.381 . S
C1224 C1230 1.383 . S
C1225 C1221 1.495 . S
C1225 H1231 0.959 . S
C1225 H1232 0.961 . S
C1225 H1233 0.960 . S
C1226 C1224 1.381 . S
C1226 C1227 1.394 . S
C1226 H1234 0.930 . S
C1227 C1226 1.394 . S
C1227 C1228 1.383 . S
C1227 H1235 0.929 . S
C1228 C1227 1.383 . S
C1228 C1229 1.377 . S
C1229 H1213 0.930 . S
C1229 C1228 1.377 . S
C1229 C1230 1.379 . S
C1230 H1214 0.931 . S
C1230 C1224 1.383 . S
C1230 C1229 1.379 . S
H1231 C1225 0.959 . S
H1232 C1225 0.961 . S
H1233 C1225 0.960 . S
H1234 C1226 0.930 . S
H1235 C1227 0.929 . S
H1236 C1244 0.929 . S
H1237 C1246 0.930 . S
H1238 C1248 0.930 . S
H1239 C1251 0.929 . S
H1240 C1254 0.930 . S
H1241 C1256 0.960 . S
H1242 C1256 0.960 . S
H1243 C1256 0.960 . S
C1244 H1236 0.929 . S
C1244 C1245 1.377 . S
C1244 C1246 1.384 . S
C1245 C1244 1.377 . S
C1245 C1251 1.390 . S
C1246 H1237 0.930 . S
C1246 C1244 1.384 . S
C1246 C1247 1.372 . S
C1247 C1246 1.372 . S
C1247 C1248 1.400 . S
C1247 C1252 1.490 . S
C1248 H1238 0.930 . S
C1248 C1247 1.400 . S
C1248 C1251 1.386 . S
H1249 C1265 0.930 . S
H1250 C1266 0.931 . S
C1251 H1239 0.929 . S
C1251 C1245 1.390 . S
C1251 C1248 1.386 . S
C1252 C1247 1.490 . S
C1252 C1254 1.395 . S
C1252 C1255 1.403 . S
H1253 C1259 0.930 . S
C1254 H1240 0.930 . S
C1254 C1252 1.395 . S
C1254 C1257 1.403 . S
C1255 C1252 1.403 . S
C1255 C1256 1.524 . S
C1255 C1259 1.400 . S
C1256 H1241 0.960 . S
C1256 H1242 0.960 . S
C1256 H1243 0.960 . S
C1256 C1255 1.524 . S
C1257 C1254 1.403 . S
C1257 C1258 1.392 . S
C1257 C1261 1.495 . S
C1258 C1257 1.392 . S
C1258 C1259 1.385 . S
C1258 C1260 1.478 . S
C1259 H1253 0.930 . S
C1259 C1255 1.400 . S
C1259 C1258 1.385 . S
C1260 C1258 1.478 . S
C1260 C1262 1.381 . S
C1260 C1266 1.383 . S
C1261 C1257 1.495 . S
C1261 H1267 0.959 . S
C1261 H1268 0.961 . S
C1261 H1269 0.960 . S
C1262 C1260 1.381 . S
C1262 C1263 1.394 . S
C1262 H1270 0.930 . S
C1263 C1262 1.394 . S
C1263 C1264 1.383 . S
C1263 H1271 0.929 . S
C1264 C1263 1.383 . S
C1264 C1265 1.377 . S
C1265 H1249 0.930 . S
C1265 C1264 1.377 . S
C1265 C1266 1.379 . S
C1266 H1250 0.931 . S
C1266 C1260 1.383 . S
C1266 C1265 1.379 . S
H1267 C1261 0.959 . S
H1268 C1261 0.961 . S
H1269 C1261 0.960 . S
H1270 C1262 0.930 . S
H1271 C1263 0.929 . S
C417 C58 1.466 . S
C436 C128 1.440 . S
C472 C212 1.425 . S
C453 C68 1.467 . S
C508 C211 1.441 . S
C489 C40 1.450 . S
C525 C50 1.450 . S
C544 C127 1.451 . S
C580 C308 1.438 . S
C561 C23 1.469 . S
C616 C392 1.439 . S
C597 C32 1.466 . S
C633 C5 1.455 . S
C652 C391 1.455 . S
C669 C14 1.453 . S
C688 C307 1.452 . S
C724 C130 1.316 . S
C705 C13 1.498 . S
C760 C214 1.285 . S
C741 C4 1.498 . S
C796 C226 1.380 . S
C777 C31 1.526 . S
C832 C142 1.355 . S
C813 C22 1.527 . S
C868 C310 1.285 . S
C849 C49 1.499 . S
C885 C41 1.501 . S
C904 C394 1.285 . S
C940 C382 1.403 . S
C921 C67 1.528 . S
C957 C59 1.529 . S
C976 C298 1.416 . S
C1012 C139 1.548 . S
C993 C7 1.547 . S
C1048 C223 1.540 . S
C1029 C16 1.543 . S
C1065 C25 1.540 . S
C1084 C224 1.520 . S
C1120 C140 1.502 . S
C1101 C34 1.538 . S
C1156 C295 1.541 . S
C1137 C43 1.549 . S
C1173 C52 1.543 . S
C1192 C379 1.551 . S
C1209 C61 1.540 . S
C1228 C380 1.528 . S
C1245 C70 1.539 . S
C1264 C296 1.504 . S
