# Generated by pormake.
# Topology pyr, (3,6)-cn, num edge types: 1
# Building blocks:
#     Node 0, Type 0, BuildingBlock: PAMTOO_clean_linker_0, # of connection points: 3
#     Node 1, Type 0, BuildingBlock: PAMTOO_clean_linker_0, # of connection points: 3
#     Node 2, Type 0, BuildingBlock: PAMTOO_clean_linker_0, # of connection points: 3
#     Node 3, Type 0, BuildingBlock: PAMTOO_clean_linker_0, # of connection points: 3
#     Node 4, Type 0, BuildingBlock: PAMTOO_clean_linker_0, # of connection points: 3
#     Node 5, Type 0, BuildingBlock: PAMTOO_clean_linker_0, # of connection points: 3
#     Node 6, Type 0, BuildingBlock: PAMTOO_clean_linker_0, # of connection points: 3
#     Node 7, Type 0, BuildingBlock: PAMTOO_clean_linker_0, # of connection points: 3
#     Node 8, Type 1, BuildingBlock: VOLQOD_clean_sbu_1, # of connection points: 6
#     Node 9, Type 1, BuildingBlock: VOLQOD_clean_sbu_1, # of connection points: 6
#     Node 10, Type 1, BuildingBlock: VOLQOD_clean_sbu_1, # of connection points: 6
#     Node 11, Type 1, BuildingBlock: VOLQOD_clean_sbu_1, # of connection points: 6
#     Edge 12, Type (0, 1), BuildingBlock: MIFKUJ_clean_linker_0, # of connection points: 2
#     Edge 13, Type (0, 1), BuildingBlock: MIFKUJ_clean_linker_0, # of connection points: 2
#     Edge 14, Type (0, 1), BuildingBlock: MIFKUJ_clean_linker_0, # of connection points: 2
#     Edge 15, Type (0, 1), BuildingBlock: MIFKUJ_clean_linker_0, # of connection points: 2
#     Edge 16, Type (0, 1), BuildingBlock: MIFKUJ_clean_linker_0, # of connection points: 2
#     Edge 17, Type (0, 1), BuildingBlock: MIFKUJ_clean_linker_0, # of connection points: 2
#     Edge 18, Type (0, 1), BuildingBlock: MIFKUJ_clean_linker_0, # of connection points: 2
#     Edge 19, Type (0, 1), BuildingBlock: MIFKUJ_clean_linker_0, # of connection points: 2
#     Edge 20, Type (0, 1), BuildingBlock: MIFKUJ_clean_linker_0, # of connection points: 2
#     Edge 21, Type (0, 1), BuildingBlock: MIFKUJ_clean_linker_0, # of connection points: 2
#     Edge 22, Type (0, 1), BuildingBlock: MIFKUJ_clean_linker_0, # of connection points: 2
#     Edge 23, Type (0, 1), BuildingBlock: MIFKUJ_clean_linker_0, # of connection points: 2
#     Edge 24, Type (0, 1), BuildingBlock: MIFKUJ_clean_linker_0, # of connection points: 2
#     Edge 25, Type (0, 1), BuildingBlock: MIFKUJ_clean_linker_0, # of connection points: 2
#     Edge 26, Type (0, 1), BuildingBlock: MIFKUJ_clean_linker_0, # of connection points: 2
#     Edge 27, Type (0, 1), BuildingBlock: MIFKUJ_clean_linker_0, # of connection points: 2
#     Edge 28, Type (0, 1), BuildingBlock: MIFKUJ_clean_linker_0, # of connection points: 2
#     Edge 29, Type (0, 1), BuildingBlock: MIFKUJ_clean_linker_0, # of connection points: 2
#     Edge 30, Type (0, 1), BuildingBlock: MIFKUJ_clean_linker_0, # of connection points: 2
#     Edge 31, Type (0, 1), BuildingBlock: MIFKUJ_clean_linker_0, # of connection points: 2
#     Edge 32, Type (0, 1), BuildingBlock: MIFKUJ_clean_linker_0, # of connection points: 2
#     Edge 33, Type (0, 1), BuildingBlock: MIFKUJ_clean_linker_0, # of connection points: 2
#     Edge 34, Type (0, 1), BuildingBlock: MIFKUJ_clean_linker_0, # of connection points: 2
#     Edge 35, Type (0, 1), BuildingBlock: MIFKUJ_clean_linker_0, # of connection points: 2
# Relax obj value: 0.116
# Max RMSD: 0.196
# Mean RMSD: 0.161
data_MOF--net-pry--node1-VOLQOD_clean_sbu_1--node2-PAMTOO_clean_linker_0--edge1-MIFKUJ_clean_linker_0
_symmetry_space_group_name_H-M    P1
_symmetry_Int_Tables_number       1
_symmetry_cell_setting            triclinic
loop_
_symmetry_equiv_pos_as_xyz
'x, y, z'
_cell_length_a     46.87176
_cell_length_b     48.282423
_cell_length_c     48.035762
_cell_angle_alpha  90.04736
_cell_angle_beta   91.115642
_cell_angle_gamma 95.316535
loop_
_atom_site_label
_atom_site_type_symbol
_atom_site_fract_x
_atom_site_fract_y
_atom_site_fract_z
_atom_type_partial_charge
H0 H 0.13517 0.17942 0.1944 0.0
H1 H 0.19229 0.11465 0.19015 0.0
H2 H 0.18795 0.17188 0.12267 0.0
H3 H 0.19323 0.11336 0.10606 0.0
C4 C 0.20594 0.10691 0.12435 0.0
O5 O 0.21262 0.12939 0.14176 0.0
H6 H 0.19273 0.09024 0.1355 0.0
C7 C 0.15071 0.16874 0.18315 0.0
C8 C 0.15994 0.17869 0.15695 0.0
C9 C 0.16225 0.14568 0.19543 0.0
C10 C 0.18324 0.13257 0.18123 0.0
C11 C 0.19231 0.14207 0.1551 0.0
C12 C 0.18074 0.16498 0.14302 0.0
H13 H 0.37853 0.9192 0.67332 0.0
H14 H 0.37557 0.85674 0.60915 0.0
H15 H 0.44016 0.85805 0.67346 0.0
H16 H 0.46041 0.84913 0.61578 0.0
C17 C 0.44068 0.83726 0.60724 0.0
O18 O 0.42043 0.83372 0.62769 0.0
H19 H 0.43237 0.84937 0.58963 0.0
C20 C 0.38719 0.90133 0.66415 0.0
C21 C 0.41099 0.89025 0.67676 0.0
C22 C 0.37405 0.88923 0.63997 0.0
C23 C 0.38529 0.86621 0.62792 0.0
C24 C 0.40947 0.85556 0.63972 0.0
C25 C 0.42206 0.86729 0.66417 0.0
H26 H 0.673 0.35908 0.94469 0.0
H27 H 0.60023 0.36921 0.8907 0.0
H28 H 0.6711 0.4318 0.89314 0.0
H29 H 0.61267 0.45294 0.88386 0.0
C30 C 0.60254 0.43443 0.87239 0.0
O31 O 0.62233 0.41542 0.86877 0.0
H32 H 0.58424 0.42502 0.88468 0.0
C33 C 0.66165 0.37157 0.93025 0.0
C34 C 0.67514 0.39702 0.92098 0.0
C35 C 0.63452 0.36125 0.9197 0.0
C36 C 0.62097 0.37677 0.89947 0.0
C37 C 0.63426 0.40206 0.89003 0.0
C38 C 0.66108 0.41227 0.90089 0.0
H39 H 0.87843 0.66608 0.43767 0.0
H40 H 0.88047 0.59734 0.38049 0.0
H41 H 0.94532 0.6656 0.37754 0.0
H42 H 0.91932 0.64839 0.32427 0.0
C43 C 0.91573 0.62552 0.32763 0.0
O44 O 0.92502 0.61899 0.35403 0.0
H45 H 0.8923 0.61946 0.32531 0.0
C46 C 0.88881 0.65555 0.42129 0.0
C47 C 0.91377 0.66865 0.40948 0.0
C48 C 0.8763 0.62983 0.41098 0.0
C49 C 0.88947 0.61717 0.38884 0.0
C50 C 0.91401 0.63027 0.37671 0.0
C51 C 0.92627 0.65575 0.38716 0.0
H52 H 0.89652 0.93969 0.87843 0.0
H53 H 0.89308 0.87499 0.94018 0.0
H54 H 0.95355 0.87462 0.87464 0.0
H55 H 0.91309 0.82328 0.8863 0.0
C56 C 0.91706 0.82299 0.90925 0.0
O57 O 0.9322 0.84764 0.9175 0.0
H58 H 0.89602 0.8208 0.9197 0.0
C59 C 0.90509 0.9215 0.88732 0.0
C60 C 0.92705 0.90918 0.87366 0.0
C61 C 0.89263 0.90935 0.9113 0.0
C62 C 0.90267 0.88488 0.92193 0.0
C63 C 0.92436 0.87238 0.90848 0.0
C64 C 0.93673 0.88464 0.88469 0.0
H65 H 0.68909 0.06815 0.37359 0.0
H66 H 0.62614 0.1276 0.37244 0.0
H67 H 0.68362 0.12493 0.44241 0.0
H68 H 0.62165 0.13341 0.45619 0.0
C69 C 0.61664 0.145 0.43696 0.0
O70 O 0.64089 0.14894 0.4211 0.0
H71 H 0.59922 0.13269 0.42506 0.0
C72 C 0.67906 0.08473 0.38368 0.0
C73 C 0.68945 0.0949 0.40983 0.0
C74 C 0.65643 0.09655 0.36992 0.0
C75 C 0.64353 0.11814 0.38282 0.0
C76 C 0.65292 0.12766 0.40921 0.0
C77 C 0.67585 0.11626 0.42258 0.0
H78 H 0.42534 0.64456 0.06048 0.0
H79 H 0.41482 0.57377 0.11502 0.0
H80 H 0.48974 0.63126 0.12303 0.0
H81 H 0.49754 0.56782 0.13421 0.0
C82 C 0.47585 0.56301 0.14297 0.0
O83 O 0.46189 0.58689 0.14355 0.0
H84 H 0.4636 0.54695 0.12973 0.0
C85 C 0.43364 0.63182 0.07678 0.0
C86 C 0.4598 0.6406 0.09025 0.0
C87 C 0.41727 0.60762 0.08539 0.0
C88 C 0.42765 0.59186 0.10727 0.0
C89 C 0.45386 0.60026 0.1205 0.0
C90 C 0.46997 0.62445 0.11194 0.0
H91 H 0.11096 0.36904 0.65974 0.0
H92 H 0.12137 0.45565 0.63831 0.0
H93 H 0.13036 0.394 0.57546 0.0
H94 H 0.15576 0.47822 0.60573 0.0
C95 C 0.1533 0.46757 0.58516 0.0
O96 O 0.13053 0.44725 0.58537 0.0
H97 H 0.14808 0.48387 0.57006 0.0
C98 C 0.11537 0.38516 0.6443 0.0
C99 C 0.12016 0.37787 0.61654 0.0
C100 C 0.11637 0.41312 0.65239 0.0
C101 C 0.12166 0.434 0.63245 0.0
C102 C 0.12725 0.42709 0.60488 0.0
C103 C 0.12699 0.39909 0.59705 0.0
O104 O 0.03605 0.07678 0.55631 0.0
Zn105 Zn 0.0162 0.038 0.55167 0.0
O106 O 0.03918 0.01502 0.52885 0.0
Zn107 Zn 0.01932 0.00567 0.49345 0.0
Zn108 Zn 0.07635 0.03525 0.52139 0.0
Zn109 Zn 0.04499 0.98077 0.54878 0.0
O110 O 0.01276 0.96405 0.48785 0.0
O111 O 0.02741 0.94708 0.52804 0.0
O112 O 0.97718 0.04102 0.53362 0.0
O113 O 0.98058 0.02018 0.49272 0.0
O114 O 0.04128 0.02226 0.46087 0.0
O115 O 0.08246 0.03977 0.48018 0.0
O116 O 0.10897 0.01551 0.5375 0.0
O117 O 0.00993 0.02152 0.59007 0.0
O118 O 0.08698 0.97646 0.55414 0.0
O119 O 0.02784 0.98068 0.58678 0.0
C120 C 0.06074 0.08788 0.54973 0.0
C121 C 0.01618 0.94351 0.50381 0.0
C122 C 0.0664 0.03452 0.45879 0.0
C123 C 0.96646 0.03325 0.50997 0.0
C124 C 0.10981 0.99196 0.54926 0.0
C125 C 0.01521 0.99828 0.60061 0.0
O126 O 0.07839 0.07409 0.537 0.0
O127 O 0.53823 0.06331 0.98821 0.0
Zn128 Zn 0.52138 0.02394 0.99457 0.0
O129 O 0.54793 0.00334 0.01657 0.0
Zn130 Zn 0.55931 0.97293 0.9939 0.0
Zn131 Zn 0.58209 0.02785 0.02742 0.0
Zn132 Zn 0.52894 0.98825 0.05003 0.0
O133 O 0.54653 0.93599 0.01069 0.0
O134 O 0.52544 0.94628 0.04987 0.0
O135 O 0.51232 0.00628 0.9569 0.0
O136 O 0.54206 0.97315 0.9553 0.0
O137 O 0.60191 0.97495 0.99056 0.0
O138 O 0.61841 0.0137 0.01269 0.0
O139 O 0.58635 0.03071 0.06923 0.0
O140 O 0.48429 0.02595 0.01458 0.0
O141 O 0.55115 0.00108 0.08472 0.0
O142 O 0.48936 0.00135 0.05311 0.0
C143 C 0.56093 0.07735 0.99713 0.0
C144 C 0.53349 0.92848 0.03281 0.0
C145 C 0.62267 0.99209 0.99866 0.0
C146 C 0.52307 0.98685 0.94392 0.0
C147 C 0.57294 0.0184 0.08918 0.0
C148 C 0.4746 0.01618 0.03752 0.0
O149 O 0.57919 0.06647 0.01264 0.0
O150 O 0.54731 0.50563 0.57211 0.0
Zn151 Zn 0.54462 0.51904 0.53248 0.0
O152 O 0.52122 0.49201 0.50914 0.0
Zn153 Zn 0.54463 0.47976 0.47923 0.0
Zn154 Zn 0.50747 0.45989 0.53171 0.0
Zn155 Zn 0.48843 0.50916 0.49288 0.0
O156 O 0.52854 0.48886 0.4418 0.0
O157 O 0.48948 0.50968 0.45082 0.0
O158 O 0.5849 0.5265 0.51811 0.0
O159 O 0.58455 0.49877 0.48124 0.0
O160 O 0.54706 0.43851 0.48049 0.0
O161 O 0.52155 0.42444 0.51718 0.0
O162 O 0.46423 0.455 0.53211 0.0
O163 O 0.52705 0.55548 0.53337 0.0
O164 O 0.45118 0.48824 0.50394 0.0
O165 O 0.48798 0.54878 0.5064 0.0
C166 C 0.53696 0.48372 0.58445 0.0
C167 C 0.5068 0.50075 0.43355 0.0
C168 C 0.53698 0.41926 0.49661 0.0
C169 C 0.5975 0.51683 0.49748 0.0
C170 C 0.44484 0.46755 0.51982 0.0
C171 C 0.5047 0.56429 0.52228 0.0
O172 O 0.52147 0.46471 0.57138 0.0
O173 O 0.01891 0.49228 0.07218 0.0
Zn174 Zn 0.02229 0.47257 0.03548 0.0
O175 O 0.04636 0.49595 0.01 0.0
Zn176 Zn 0.02391 0.50376 0.9768 0.0
Zn177 Zn 0.06012 0.53116 0.02822 0.0
Zn178 Zn 0.07918 0.4765 0.99904 0.0
O179 O 0.04077 0.4892 0.94223 0.0
O180 O 0.07964 0.47038 0.95746 0.0
O181 O 0.98209 0.46367 0.01966 0.0
O182 O 0.98397 0.48557 0.97906 0.0
O183 O 0.0208 0.54482 0.97222 0.0
O184 O 0.04489 0.56393 0.00868 0.0
O185 O 0.10327 0.53713 0.02873 0.0
O186 O 0.03956 0.43642 0.04353 0.0
O187 O 0.11621 0.49848 0.00958 0.0
O188 O 0.07901 0.43953 0.01841 0.0
C189 C 0.03026 0.51525 0.08219 0.0
C190 C 0.06286 0.47655 0.93771 0.0
C191 C 0.0298 0.56615 0.98659 0.0
C192 C 0.97021 0.47049 0.99691 0.0
C193 C 0.12261 0.52216 0.02084 0.0
C194 C 0.0622 0.42637 0.03539 0.0
O195 O 0.04691 0.5317 0.06784 0.0
H196 H 0.19509 0.1298 0.23921 0.0
H197 H 0.17883 0.1107 0.28388 0.0
H198 H 0.09109 0.11863 0.25875 0.0
H199 H 0.10728 0.13792 0.21401 0.0
H200 H 0.10043 0.13486 0.31165 0.0
H201 H 0.11912 0.05567 0.2569 0.0
H202 H 0.14773 0.02747 0.22733 0.0
H203 H 0.21051 0.02419 0.29325 0.0
H204 H 0.18247 0.05273 0.3231 0.0
H205 H 0.0343 0.04252 0.41188 0.0
H206 H 0.05115 0.06125 0.36717 0.0
H207 H 0.13838 0.06656 0.39831 0.0
H208 H 0.12173 0.04828 0.44331 0.0
H209 H 0.12917 0.04325 0.34272 0.0
H210 H 0.11014 0.12238 0.39733 0.0
H211 H 0.08088 0.14955 0.42717 0.0
H212 H 0.01807 0.15242 0.36119 0.0
H213 H 0.04668 0.1246 0.33115 0.0
C214 C 0.17233 0.12736 0.24316 0.0
C215 C 0.15244 0.13517 0.22301 0.0
C216 C 0.16306 0.11646 0.2687 0.0
C217 C 0.1337 0.11282 0.27449 0.0
C218 C 0.11384 0.12122 0.2547 0.0
C219 C 0.12311 0.13228 0.22919 0.0
C220 C 0.12374 0.1 0.30109 0.0
C221 C 0.1064 0.11467 0.31823 0.0
C222 C 0.13199 0.07387 0.30998 0.0
C223 C 0.14882 0.05657 0.29214 0.0
C224 C 0.13913 0.04911 0.26502 0.0
C225 C 0.15523 0.03304 0.24822 0.0
C226 C 0.18096 0.02411 0.25838 0.0
C227 C 0.1906 0.03116 0.28539 0.0
C228 C 0.1746 0.04726 0.30227 0.0
C229 C 0.0571 0.04745 0.40917 0.0
C230 C 0.07669 0.04401 0.43116 0.0
C231 C 0.06665 0.05822 0.38365 0.0
C232 C 0.09595 0.06539 0.37958 0.0
C233 C 0.11567 0.06114 0.40113 0.0
C234 C 0.1061 0.0508 0.42682 0.0
C235 C 0.10591 0.07811 0.35307 0.0
C236 C 0.12322 0.06342 0.33602 0.0
C237 C 0.09756 0.10415 0.34421 0.0
C238 C 0.0804 0.12111 0.3621 0.0
C239 C 0.08995 0.12855 0.38927 0.0
C240 C 0.0735 0.14412 0.40621 0.0
C241 C 0.0476 0.1527 0.3961 0.0
C242 C 0.03812 0.14573 0.36901 0.0
C243 C 0.05444 0.13004 0.35202 0.0
H244 H 0.03491 0.1648 0.40925 0.0
H245 H 0.19339 0.01166 0.24533 0.0
H246 H 0.46776 0.89673 0.69319 0.0
H247 H 0.488 0.91469 0.73767 0.0
H248 H 0.40362 0.92973 0.76461 0.0
H249 H 0.38294 0.91067 0.72087 0.0
H250 H 0.44781 0.97508 0.77438 0.0
H251 H 0.42881 0.87588 0.78884 0.0
H252 H 0.43252 0.82655 0.77745 0.0
H253 H 0.52415 0.83911 0.78625 0.0
H254 H 0.521 0.88866 0.79729 0.0
H255 H 0.47199 0.99649 0.9191 0.0
H256 H 0.45439 0.98197 0.87265 0.0
H257 H 0.53418 0.94708 0.85724 0.0
H258 H 0.55126 0.96035 0.90416 0.0
H259 H 0.49368 0.91257 0.83998 0.0
H260 H 0.51464 0.01033 0.82675 0.0
H261 H 0.51314 0.06032 0.8365 0.0
H262 H 0.42188 0.05226 0.82332 0.0
H263 H 0.42277 0.00212 0.81385 0.0
C264 C 0.45341 0.90356 0.70864 0.0
C265 C 0.42366 0.90216 0.70334 0.0
C266 C 0.46507 0.91402 0.73395 0.0
C267 C 0.44726 0.92349 0.75433 0.0
C268 C 0.41771 0.92268 0.749 0.0
C269 C 0.40597 0.9119 0.72388 0.0
C270 C 0.4593 0.93354 0.78159 0.0
C271 C 0.45763 0.96144 0.78891 0.0
C272 C 0.47279 0.91584 0.80004 0.0
C273 C 0.47468 0.88603 0.79359 0.0
C274 C 0.44976 0.86818 0.7881 0.0
C275 C 0.45176 0.84017 0.78176 0.0
C276 C 0.47856 0.82972 0.78105 0.0
C277 C 0.50341 0.84725 0.78676 0.0
C278 C 0.50153 0.87528 0.79308 0.0
C279 C 0.48584 0.98589 0.90572 0.0
C280 C 0.513 0.97956 0.91526 0.0
C281 C 0.47583 0.97773 0.87908 0.0
C282 C 0.4931 0.96377 0.86117 0.0
C283 C 0.5204 0.95778 0.87062 0.0
C284 C 0.53018 0.96543 0.89743 0.0
C285 C 0.48232 0.95436 0.83307 0.0
C286 C 0.48412 0.92646 0.82552 0.0
C287 C 0.46936 0.97224 0.81423 0.0
C288 C 0.46875 0.00241 0.81984 0.0
C289 C 0.49422 0.01917 0.82613 0.0
C290 C 0.49349 0.04755 0.83157 0.0
C291 C 0.46742 0.05944 0.8306 0.0
C292 C 0.44205 0.04301 0.8241 0.0
C293 C 0.44266 0.01462 0.81866 0.0
H294 H 0.4669 0.08141 0.83482 0.0
H295 H 0.48006 0.80803 0.77613 0.0
H296 H 0.61411 0.48371 0.84435 0.0
H297 H 0.60073 0.49415 0.79609 0.0
H298 H 0.55486 0.41273 0.78829 0.0
H299 H 0.56806 0.40237 0.83659 0.0
H300 H 0.59308 0.4249 0.74596 0.0
H301 H 0.51808 0.4678 0.79149 0.0
H302 H 0.49786 0.49917 0.82482 0.0
H303 H 0.54401 0.56967 0.7866 0.0
H304 H 0.56485 0.53866 0.75326 0.0
H305 H 0.52227 0.43812 0.6166 0.0
H306 H 0.53248 0.43209 0.66609 0.0
H307 H 0.57537 0.51501 0.67022 0.0
H308 H 0.56511 0.52138 0.6206 0.0
H309 H 0.53966 0.50361 0.71447 0.0
H310 H 0.61457 0.46161 0.66908 0.0
H311 H 0.63553 0.43084 0.63566 0.0
H312 H 0.59095 0.35941 0.67377 0.0
H313 H 0.56937 0.3898 0.70719 0.0
C314 C 0.60069 0.46833 0.83245 0.0
C315 C 0.59175 0.44238 0.84414 0.0
C316 C 0.5931 0.47426 0.80495 0.0
C317 C 0.5767 0.45424 0.78871 0.0
C318 C 0.56746 0.42846 0.80052 0.0
C319 C 0.57484 0.42262 0.82805 0.0
C320 C 0.57059 0.45949 0.75893 0.0
C321 C 0.58104 0.44187 0.73908 0.0
C322 C 0.55572 0.48219 0.75001 0.0
C323 C 0.54328 0.50087 0.77007 0.0
C324 C 0.52415 0.48997 0.79036 0.0
C325 C 0.51252 0.50769 0.80922 0.0
C326 C 0.51971 0.53639 0.80789 0.0
C327 C 0.5385 0.54743 0.78764 0.0
C328 C 0.55021 0.52979 0.76874 0.0
C329 C 0.53385 0.45513 0.62797 0.0
C330 C 0.54299 0.4802 0.61456 0.0
C331 C 0.53973 0.4516 0.65626 0.0
C332 C 0.55491 0.473 0.67173 0.0
C333 C 0.56365 0.49823 0.65861 0.0
C334 C 0.55787 0.50177 0.63023 0.0
C335 C 0.56185 0.4688 0.70155 0.0
C336 C 0.55169 0.48665 0.72138 0.0
C337 C 0.57715 0.44639 0.7105 0.0
C338 C 0.59012 0.42801 0.69047 0.0
C339 C 0.60903 0.43936 0.67019 0.0
C340 C 0.62106 0.42198 0.65127 0.0
C341 C 0.61451 0.39319 0.65254 0.0
C342 C 0.59597 0.38172 0.67279 0.0
C343 C 0.58385 0.39901 0.69174 0.0
H344 H 0.62386 0.37977 0.63788 0.0
H345 H 0.51067 0.55007 0.8225 0.0
H346 H 0.97042 0.63905 0.3104 0.0
H347 H 0.99552 0.61756 0.2728 0.0
H348 H 0.92226 0.55771 0.25942 0.0
H349 H 0.89742 0.57889 0.29729 0.0
H350 H 0.97246 0.53388 0.25452 0.0
H351 H 0.93131 0.61594 0.21969 0.0
H352 H 0.92389 0.66585 0.2195 0.0
H353 H 0.01407 0.68675 0.20886 0.0
H354 H 0.02206 0.63694 0.20934 0.0
H355 H 0.98605 0.49338 0.1141 0.0
H356 H 0.97203 0.50965 0.15948 0.0
H357 H 0.04448 0.57174 0.16055 0.0
H358 H 0.05806 0.55619 0.11466 0.0
H359 H 0.99935 0.59465 0.17418 0.0
H360 H 0.04046 0.51272 0.20411 0.0
H361 H 0.04841 0.46295 0.2043 0.0
H362 H 0.96028 0.4416 0.22449 0.0
H363 H 0.95168 0.49123 0.22405 0.0
C364 C 0.9599 0.62115 0.29952 0.0
C365 C 0.93187 0.61091 0.30621 0.0
C366 C 0.97416 0.60893 0.2781 0.0
C367 C 0.96053 0.58635 0.263 0.0
C368 C 0.93311 0.57519 0.27071 0.0
C369 C 0.91889 0.58736 0.29219 0.0
C370 C 0.97398 0.57543 0.23807 0.0
C371 C 0.97822 0.54707 0.23685 0.0
C372 C 0.98215 0.59283 0.21535 0.0
C373 C 0.97732 0.62275 0.21485 0.0
C374 C 0.94958 0.63119 0.2175 0.0
C375 C 0.94527 0.65946 0.21731 0.0
C376 C 0.96851 0.67946 0.21425 0.0
C377 C 0.9961 0.67124 0.21128 0.0
C378 C 0.00053 0.643 0.21149 0.0
C379 C 0.9992 0.51029 0.12412 0.0
C380 C 0.02311 0.52356 0.11071 0.0
C381 C 0.99125 0.51948 0.15019 0.0
C382 C 0.00739 0.54173 0.16366 0.0
C383 C 0.03168 0.55455 0.15059 0.0
C384 C 0.03942 0.54562 0.12435 0.0
C385 C 0.99774 0.55291 0.19038 0.0
C386 C 0.99407 0.58139 0.19193 0.0
C387 C 0.99027 0.5356 0.21341 0.0
C388 C 0.99538 0.50571 0.21384 0.0
C389 C 0.02272 0.49741 0.2084 0.0
C390 C 0.02735 0.46921 0.20859 0.0
C391 C 0.00485 0.44912 0.21435 0.0
C392 C 0.97769 0.45719 0.22002 0.0
C393 C 0.97293 0.48535 0.21984 0.0
H394 H 0.00848 0.42731 0.21447 0.0
H395 H 0.96513 0.70134 0.21411 0.0
H396 H 0.24166 0.07678 0.15496 0.0
H397 H 0.28683 0.05948 0.14078 0.0
H398 H 0.27688 0.0956 0.05942 0.0
H399 H 0.23168 0.11276 0.07357 0.0
H400 H 0.29315 0.04291 0.05617 0.0
H401 H 0.32284 0.12703 0.10635 0.0
H402 H 0.32507 0.15929 0.14631 0.0
H403 H 0.36109 0.09824 0.19784 0.0
H404 H 0.35868 0.06544 0.15826 0.0
H405 H 0.43511 0.043 0.00778 0.0
H406 H 0.38881 0.05582 0.02323 0.0
H407 H 0.40276 0.01789 0.103 0.0
H408 H 0.4493 0.00505 0.08779 0.0
H409 H 0.38408 0.06958 0.10816 0.0
H410 H 0.35594 0.98599 0.0573 0.0
H411 H 0.35394 0.95403 0.01712 0.0
H412 H 0.31524 0.01425 0.96666 0.0
H413 H 0.31738 0.04676 0.00646 0.0
C414 C 0.24915 0.08083 0.13403 0.0
C415 C 0.23319 0.09578 0.11523 0.0
C416 C 0.27493 0.0711 0.12599 0.0
C417 C 0.28527 0.07638 0.09908 0.0
C418 C 0.26923 0.09121 0.08024 0.0
C419 C 0.24349 0.10102 0.08831 0.0
C420 C 0.3129 0.06658 0.09059 0.0
C421 C 0.3131 0.04899 0.06733 0.0
C422 C 0.33879 0.07398 0.10559 0.0
C423 C 0.34028 0.09367 0.12942 0.0
C424 C 0.331 0.12039 0.12626 0.0
C425 C 0.33234 0.13879 0.14883 0.0
C426 C 0.34313 0.13079 0.17462 0.0
C427 C 0.35268 0.10439 0.17787 0.0
C428 C 0.35135 0.08589 0.15537 0.0
C429 C 0.42834 0.03723 0.02858 0.0
C430 C 0.44596 0.02294 0.04653 0.0
C431 C 0.40178 0.0445 0.03733 0.0
C432 C 0.39224 0.03762 0.06419 0.0
C433 C 0.40972 0.02336 0.08217 0.0
C434 C 0.43626 0.01594 0.07339 0.0
C435 C 0.36436 0.04601 0.07366 0.0
C436 C 0.36412 0.06337 0.09708 0.0
C437 C 0.33844 0.03843 0.05879 0.0
C438 C 0.33707 0.01892 0.03481 0.0
C439 C 0.34723 0.99252 0.03758 0.0
C440 C 0.34602 0.97429 0.01488 0.0
C441 C 0.33454 0.98213 0.98933 0.0
C442 C 0.32416 0.00822 0.98645 0.0
C443 C 0.32534 0.02655 0.00908 0.0
H444 H 0.33362 0.96798 0.97178 0.0
H445 H 0.34416 0.14507 0.19207 0.0
H446 H 0.36602 0.94328 0.62821 0.0
H447 H 0.32229 0.96167 0.61043 0.0
H448 H 0.27972 0.87849 0.60751 0.0
H449 H 0.32369 0.86 0.62456 0.0
H450 H 0.26517 0.90561 0.56339 0.0
H451 H 0.26964 0.92491 0.66127 0.0
H452 H 0.29145 0.94343 0.7054 0.0
H453 H 0.2972 0.02616 0.67195 0.0
H454 H 0.27579 0.00807 0.62745 0.0
H455 H 0.12085 0.93955 0.5649 0.0
H456 H 0.16708 0.92335 0.578 0.0
H457 H 0.2084 0.00579 0.56521 0.0
H458 H 0.16219 0.02226 0.55187 0.0
H459 H 0.2241 0.98055 0.61592 0.0
H460 H 0.21648 0.9592 0.51798 0.0
H461 H 0.19245 0.93887 0.47559 0.0
H462 H 0.18995 0.85743 0.51182 0.0
H463 H 0.2136 0.87734 0.55461 0.0
C464 C 0.34731 0.92897 0.62369 0.0
C465 C 0.34812 0.90026 0.62787 0.0
C466 C 0.32234 0.93947 0.61362 0.0
C467 C 0.29753 0.92152 0.60812 0.0
C468 C 0.29856 0.89275 0.61163 0.0
C469 C 0.32366 0.8822 0.62135 0.0
C470 C 0.27037 0.93271 0.59918 0.0
C471 C 0.25607 0.92179 0.57507 0.0
C472 C 0.25865 0.95413 0.61415 0.0
C473 C 0.2714 0.9651 0.64093 0.0
C474 C 0.27576 0.94703 0.66326 0.0
C475 C 0.28802 0.95745 0.68834 0.0
C476 C 0.29578 0.98594 0.69145 0.0
C477 C 0.29122 0.00409 0.6695 0.0
C478 C 0.27901 0.99377 0.64434 0.0
C479 C 0.13974 0.95429 0.56486 0.0
C480 C 0.13784 0.98221 0.55729 0.0
C481 C 0.16614 0.94495 0.57225 0.0
C482 C 0.19111 0.96335 0.57236 0.0
C483 C 0.18932 0.99129 0.56517 0.0
C484 C 0.16294 0.00062 0.55748 0.0
C485 C 0.21904 0.95338 0.58029 0.0
C486 C 0.23338 0.96449 0.60422 0.0
C487 C 0.23056 0.93185 0.56542 0.0
C488 C 0.21659 0.9198 0.53959 0.0
C489 C 0.21061 0.93699 0.51699 0.0
C490 C 0.19709 0.92553 0.49288 0.0
C491 C 0.18962 0.89689 0.49104 0.0
C492 C 0.19573 0.87962 0.51328 0.0
C493 C 0.20922 0.89098 0.53746 0.0
H494 H 0.17914 0.88806 0.47236 0.0
H495 H 0.30526 0.99397 0.71089 0.0
H496 H 0.69752 0.3947 0.97398 0.0
H497 H 0.74727 0.40624 0.98922 0.0
H498 H 0.76913 0.43269 0.90592 0.0
H499 H 0.71978 0.42007 0.89027 0.0
H500 H 0.80665 0.39974 0.92588 0.0
H501 H 0.7635 0.47962 0.95941 0.0
H502 H 0.7287 0.50428 0.98545 0.0
H503 H 0.75688 0.46853 0.06185 0.0
H504 H 0.79161 0.44335 0.0362 0.0
H505 H 0.94049 0.47563 0.94812 0.0
H506 H 0.89008 0.46158 0.93823 0.0
H507 H 0.88002 0.43038 0.0219 0.0
H508 H 0.93076 0.44454 0.03217 0.0
H509 H 0.83659 0.46284 0.00484 0.0
H510 H 0.88192 0.3851 0.97083 0.0
H511 H 0.91718 0.36157 0.94426 0.0
H512 H 0.88502 0.39442 0.86803 0.0
H513 H 0.84981 0.41849 0.89418 0.0
C514 C 0.71294 0.40297 0.9589 0.0
C515 C 0.70467 0.40645 0.93089 0.0
C516 C 0.7413 0.40979 0.96771 0.0
C517 C 0.76188 0.42051 0.94875 0.0
C518 C 0.75359 0.42447 0.92091 0.0
C519 C 0.72528 0.41753 0.91206 0.0
C520 C 0.79231 0.42657 0.95756 0.0
C521 C 0.8132 0.41379 0.94294 0.0
C522 C 0.80078 0.44422 0.98039 0.0
C523 C 0.77994 0.45936 0.99585 0.0
C524 C 0.76211 0.47683 0.98174 0.0
C525 C 0.74243 0.49094 0.99643 0.0
C526 C 0.74052 0.48791 0.02528 0.0
C527 C 0.75835 0.47082 0.0395 0.0
C528 C 0.77805 0.45664 0.0249 0.0
C529 C 0.92767 0.46572 0.96448 0.0
C530 C 0.93971 0.46116 0.99096 0.0
C531 C 0.89885 0.45761 0.95872 0.0
C532 C 0.88143 0.44473 0.97925 0.0
C533 C 0.8932 0.44025 0.00577 0.0
C534 C 0.92218 0.44824 0.01155 0.0
C535 C 0.85082 0.43638 0.97284 0.0
C536 C 0.82994 0.44865 0.98792 0.0
C537 C 0.84233 0.41836 0.95034 0.0
C538 C 0.86337 0.40378 0.93451 0.0
C539 C 0.88251 0.38748 0.94842 0.0
C540 C 0.90246 0.37401 0.93343 0.0
C541 C 0.90338 0.37654 0.90448 0.0
C542 C 0.88429 0.39249 0.89046 0.0
C543 C 0.86431 0.40602 0.90535 0.0
H544 H 0.91885 0.3661 0.89291 0.0
H545 H 0.72527 0.49886 0.03662 0.0
H546 H 0.8583 0.62872 0.4652 0.0
H547 H 0.81177 0.61015 0.48259 0.0
H548 H 0.78569 0.58259 0.3997 0.0
H549 H 0.83127 0.6026 0.38189 0.0
H550 H 0.74448 0.60614 0.42186 0.0
H551 H 0.80562 0.53721 0.45271 0.0
H552 H 0.84725 0.51975 0.47685 0.0
H553 H 0.81915 0.55013 0.55478 0.0
H554 H 0.77753 0.56811 0.53102 0.0
H555 H 0.62701 0.50914 0.45009 0.0
H556 H 0.6752 0.52882 0.43876 0.0
H557 H 0.68414 0.56836 0.51935 0.0
H558 H 0.63561 0.54891 0.53093 0.0
H559 H 0.73353 0.54093 0.50154 0.0
H560 H 0.67052 0.60773 0.46917 0.0
H561 H 0.62842 0.62283 0.44385 0.0
H562 H 0.66022 0.59359 0.367 0.0
H563 H 0.70233 0.57794 0.39194 0.0
C564 C 0.8426 0.61888 0.45062 0.0
C565 C 0.84868 0.61712 0.42211 0.0
C566 C 0.8161 0.60795 0.46067 0.0
C567 C 0.79529 0.59464 0.44253 0.0
C568 C 0.80139 0.59269 0.41414 0.0
C569 C 0.82769 0.60387 0.40403 0.0
C570 C 0.76679 0.58345 0.45275 0.0
C571 C 0.74219 0.59165 0.43909 0.0
C572 C 0.76365 0.56507 0.47571 0.0
C573 C 0.78864 0.55428 0.49004 0.0
C574 C 0.80845 0.54037 0.47496 0.0
C575 C 0.83202 0.53034 0.48858 0.0
C576 C 0.83589 0.5339 0.51732 0.0
C577 C 0.81615 0.54743 0.53251 0.0
C578 C 0.79256 0.55753 0.51898 0.0
C579 C 0.63921 0.52186 0.46555 0.0
C580 C 0.62738 0.52755 0.4914 0.0
C581 C 0.66674 0.53313 0.45898 0.0
C582 C 0.68307 0.55017 0.47815 0.0
C583 C 0.67178 0.55526 0.5043 0.0
C584 C 0.64405 0.54422 0.51081 0.0
C585 C 0.71155 0.5633 0.47029 0.0
C586 C 0.73602 0.55554 0.48442 0.0
C587 C 0.71464 0.58183 0.44756 0.0
C588 C 0.68946 0.59144 0.43247 0.0
C589 C 0.66843 0.60432 0.44691 0.0
C590 C 0.64458 0.61301 0.43262 0.0
C591 C 0.64161 0.60911 0.40384 0.0
C592 C 0.66253 0.59658 0.38929 0.0
C593 C 0.68641 0.58782 0.40349 0.0
H594 H 0.62313 0.61585 0.39282 0.0
H595 H 0.85415 0.52612 0.52783 0.0
H596 H 0.10452 0.19287 0.15712 0.0
H597 H 0.08593 0.23429 0.13711 0.0
H598 H 0.17013 0.26178 0.10749 0.0
H599 H 0.18913 0.22118 0.12854 0.0
H600 H 0.14694 0.30376 0.12971 0.0
H601 H 0.11585 0.23195 0.06369 0.0
H602 H 0.09179 0.18685 0.04812 0.0
H603 H 0.01125 0.21088 0.07632 0.0
H604 H 0.03492 0.256 0.0924 0.0
H605 H 0.11279 0.4031 0.02994 0.0
H606 H 0.12677 0.36032 0.05104 0.0
H607 H 0.0436 0.34575 0.08787 0.0
H608 H 0.02931 0.38875 0.0669 0.0
H609 H 0.06384 0.29755 0.06366 0.0
H610 H 0.09578 0.3705 0.12804 0.0
H611 H 0.12053 0.41579 0.14207 0.0
H612 H 0.20058 0.38937 0.11523 0.0
H613 H 0.17621 0.34404 0.10064 0.0
C614 C 0.11915 0.20785 0.14657 0.0
C615 C 0.14833 0.2036 0.14438 0.0
C616 C 0.10841 0.23139 0.13486 0.0
C617 C 0.12655 0.251 0.12046 0.0
C618 C 0.15569 0.2469 0.1184 0.0
C619 C 0.16647 0.22349 0.13022 0.0
C620 C 0.1154 0.27606 0.10787 0.0
C621 C 0.12898 0.30232 0.11503 0.0
C622 C 0.09149 0.27432 0.08921 0.0
C623 C 0.07721 0.24723 0.07952 0.0
C624 C 0.09305 0.22753 0.06677 0.0
C625 C 0.07948 0.20198 0.05782 0.0
C626 C 0.05003 0.19597 0.0613 0.0
C627 C 0.03407 0.21554 0.07368 0.0
C628 C 0.04755 0.24111 0.0827 0.0
C629 C 0.09732 0.39077 0.04235 0.0
C630 C 0.06994 0.39948 0.04683 0.0
C631 C 0.10542 0.36635 0.05447 0.0
C632 C 0.08631 0.35005 0.07122 0.0
C633 C 0.05866 0.35811 0.07505 0.0
C634 C 0.05059 0.38272 0.06312 0.0
C635 C 0.09566 0.32501 0.08527 0.0
C636 C 0.08172 0.29886 0.07843 0.0
C637 C 0.11936 0.32679 0.10408 0.0
C638 C 0.13412 0.35396 0.11301 0.0
C639 C 0.11862 0.37442 0.12492 0.0
C640 C 0.13259 0.40009 0.13301 0.0
C641 C 0.1621 0.40548 0.12948 0.0
C642 C 0.17772 0.38518 0.11792 0.0
C643 C 0.16384 0.35948 0.10976 0.0
H644 H 0.17288 0.42536 0.13575 0.0
H645 H 0.03956 0.17618 0.05435 0.0
H646 H 0.63506 0.33857 0.97196 0.0
H647 H 0.61909 0.29089 0.98526 0.0
H648 H 0.58776 0.27353 0.90151 0.0
H649 H 0.60471 0.32082 0.8876 0.0
H650 H 0.55039 0.25138 0.94729 0.0
H651 H 0.64767 0.25393 0.91425 0.0
H652 H 0.69847 0.27248 0.91351 0.0
H653 H 0.70822 0.25244 4e-05 0.0
H654 H 0.65731 0.23417 0.0014 0.0
H655 H 0.53882 0.10384 0.95251 0.0
H656 H 0.54829 0.15275 0.93968 0.0
H657 H 0.60316 0.16692 0.01252 0.0
H658 H 0.59484 0.11779 0.02466 0.0
H659 H 0.62778 0.19165 0.97174 0.0
H660 H 0.53257 0.18871 0.00662 0.0
H661 H 0.48145 0.17196 0.01024 0.0
H662 H 0.46685 0.19411 0.92493 0.0
H663 H 0.51798 0.21067 0.92069 0.0
C664 C 0.62479 0.32466 0.95632 0.0
C665 C 0.62152 0.33348 0.92861 0.0
C666 C 0.61548 0.29751 0.96403 0.0
C667 C 0.60246 0.27878 0.94429 0.0
C668 C 0.5977 0.28782 0.91702 0.0
C669 C 0.60732 0.31489 0.90917 0.0
C670 C 0.59588 0.24922 0.95164 0.0
C671 C 0.56721 0.23812 0.95236 0.0
C672 C 0.61792 0.23234 0.95889 0.0
C673 C 0.64862 0.24295 0.95799 0.0
C674 C 0.66059 0.25369 0.93317 0.0
C675 C 0.68941 0.26412 0.93263 0.0
C676 C 0.70654 0.26371 0.95673 0.0
C677 C 0.69491 0.25278 0.9814 0.0
C678 C 0.66608 0.24237 0.98206 0.0
C679 C 0.55284 0.11743 0.96581 0.0
C680 C 0.5661 0.10701 0.98958 0.0
C681 C 0.5581 0.14544 0.95856 0.0
C682 C 0.57609 0.1637 0.97537 0.0
C683 C 0.58923 0.15328 0.99919 0.0
C684 C 0.58444 0.12519 0.00613 0.0
C685 C 0.58205 0.19346 0.96773 0.0
C686 C 0.61074 0.20471 0.96681 0.0
C687 C 0.55994 0.21055 0.96076 0.0
C688 C 0.52917 0.20068 0.96326 0.0
C689 C 0.5185 0.18982 0.98857 0.0
C690 C 0.48952 0.1804 0.99074 0.0
C691 C 0.47094 0.1819 0.96781 0.0
C692 C 0.48128 0.19292 0.94267 0.0
C693 C 0.51025 0.20236 0.94037 0.0
H694 H 0.44851 0.17459 0.96953 0.0
H695 H 0.72885 0.2718 0.95627 0.0
H696 H 0.92309 0.68605 0.46332 0.0
H697 H 0.94178 0.73234 0.47975 0.0
H698 H 0.94988 0.7603 0.39471 0.0
H699 H 0.93162 0.71398 0.37823 0.0
H700 H 0.9954 0.77963 0.42422 0.0
H701 H 0.89377 0.77636 0.43544 0.0
H702 H 0.84643 0.75716 0.4517 0.0
H703 H 0.87625 0.76599 0.53662 0.0
H704 H 0.92392 0.78488 0.52084 0.0
H705 H 0.00255 0.92581 0.45061 0.0
H706 H 0.98659 0.87847 0.43514 0.0
H707 H 0.99183 0.84939 0.51977 0.0
H708 H 0.00806 0.89653 0.53544 0.0
H709 H 0.94013 0.83076 0.49111 0.0
H710 H 0.04198 0.8352 0.47865 0.0
H711 H 0.08853 0.85532 0.4613 0.0
H712 H 0.05686 0.84555 0.37705 0.0
H713 H 0.00994 0.82573 0.39393 0.0
C714 C 0.92883 0.70211 0.44817 0.0
C715 C 0.92585 0.69644 0.41951 0.0
C716 C 0.93946 0.72855 0.45755 0.0
C717 C 0.94686 0.74992 0.43846 0.0
C718 C 0.94435 0.74414 0.40983 0.0
C719 C 0.93396 0.71766 0.40044 0.0
C720 C 0.95695 0.77839 0.44827 0.0
C721 C 0.98312 0.79092 0.43858 0.0
C722 C 0.9412 0.79298 0.46739 0.0
C723 C 0.9125 0.78177 0.47695 0.0
C724 C 0.8903 0.77401 0.45758 0.0
C725 C 0.8634 0.76321 0.46671 0.0
C726 C 0.85836 0.76029 0.49517 0.0
C727 C 0.8802 0.76823 0.51457 0.0
C728 C 0.90716 0.779 0.50555 0.0
C729 C 0.00034 0.90935 0.46594 0.0
C730 C 0.00664 0.91493 0.49425 0.0
C731 C 0.99131 0.88233 0.45705 0.0
C732 C 0.98818 0.86048 0.47632 0.0
C733 C 0.99415 0.866 0.5046 0.0
C734 C 0.00353 0.89293 0.51347 0.0
C735 C 0.97845 0.83188 0.46701 0.0
C736 C 0.95236 0.81938 0.47678 0.0
C737 C 0.99413 0.81744 0.44778 0.0
C738 C 0.02235 0.82925 0.43757 0.0
C739 C 0.04485 0.83757 0.45644 0.0
C740 C 0.07132 0.84888 0.44669 0.0
C741 C 0.07562 0.85179 0.4181 0.0
C742 C 0.05348 0.84332 0.3992 0.0
C743 C 0.02695 0.83203 0.40884 0.0
H744 H 0.09614 0.86054 0.41059 0.0
H745 H 0.83751 0.75192 0.5022 0.0
H746 H 0.40721 0.80162 0.57353 0.0
H747 H 0.41726 0.75552 0.55678 0.0
H748 H 0.49849 0.76382 0.60129 0.0
H749 H 0.48849 0.80992 0.6179 0.0
H750 H 0.50344 0.74398 0.54841 0.0
H751 H 0.44285 0.72398 0.62697 0.0
H752 H 0.39954 0.72629 0.65489 0.0
H753 H 0.34753 0.68884 0.58789 0.0
H754 H 0.39052 0.68667 0.5594 0.0
H755 H 0.53713 0.60432 0.55222 0.0
H756 H 0.52532 0.65109 0.56365 0.0
H757 H 0.44516 0.63633 0.51805 0.0
H758 H 0.45667 0.58928 0.50663 0.0
H759 H 0.43823 0.6598 0.56868 0.0
H760 H 0.49898 0.67765 0.49084 0.0
H761 H 0.54225 0.67509 0.46294 0.0
H762 H 0.59384 0.71647 0.52811 0.0
H763 H 0.55091 0.71891 0.5566 0.0
C764 C 0.42722 0.79354 0.57957 0.0
C765 C 0.44722 0.80928 0.59671 0.0
C766 C 0.4329 0.76725 0.57013 0.0
C767 C 0.45857 0.75622 0.5779 0.0
C768 C 0.47861 0.77201 0.59497 0.0
C769 C 0.47289 0.79825 0.60447 0.0
C770 C 0.46454 0.72816 0.56837 0.0
C771 C 0.48936 0.72552 0.55309 0.0
C772 C 0.44573 0.70422 0.57383 0.0
C773 C 0.41986 0.70545 0.59095 0.0
C774 C 0.42215 0.71646 0.6181 0.0
C775 C 0.39766 0.7177 0.63405 0.0
C776 C 0.37079 0.7078 0.62314 0.0
C777 C 0.36835 0.69655 0.59629 0.0
C778 C 0.39277 0.6953 0.58024 0.0
C779 C 0.51702 0.61098 0.54449 0.0
C780 C 0.49786 0.593 0.52847 0.0
C781 C 0.51037 0.6378 0.55095 0.0
C782 C 0.48449 0.64727 0.54147 0.0
C783 C 0.46528 0.62943 0.52552 0.0
C784 C 0.47195 0.60258 0.51895 0.0
C785 C 0.47728 0.67557 0.54892 0.0
C786 C 0.45223 0.67827 0.56382 0.0
C787 C 0.49586 0.69957 0.54308 0.0
C788 C 0.52174 0.69823 0.52597 0.0
C789 C 0.51958 0.686 0.49933 0.0
C790 C 0.54404 0.68461 0.48338 0.0
C791 C 0.57079 0.69555 0.49377 0.0
C792 C 0.57311 0.70797 0.5201 0.0
C793 C 0.54871 0.70939 0.53615 0.0
H794 H 0.5897 0.69445 0.4814 0.0
H795 H 0.35186 0.70876 0.63552 0.0
H796 H 0.94099 0.88059 0.82733 0.0
H797 H 0.95842 0.89949 0.78313 0.0
H798 H 0.95496 0.98285 0.8143 0.0
H799 H 0.93827 0.96413 0.85912 0.0
H800 H 0.92968 0.97407 0.76111 0.0
H801 H 0.01807 0.95993 0.80832 0.0
H802 H 0.05166 0.93346 0.83523 0.0
H803 H 0.05094 0.8735 0.7691 0.0
H804 H 0.017 0.89939 0.74195 0.0
H805 H 0.99877 0.03348 0.64094 0.0
H806 H 0.98571 0.02183 0.68888 0.0
H807 H 0.99848 0.93585 0.67324 0.0
H808 H 0.01243 0.94748 0.62575 0.0
H809 H 0.02123 0.95043 0.72121 0.0
H810 H 0.93023 0.96091 0.67585 0.0
H811 H 0.89507 0.98536 0.64874 0.0
H812 H 0.89904 0.04989 0.71064 0.0
H813 H 0.93451 0.02598 0.73796 0.0
C814 C 0.94446 0.90296 0.8251 0.0
C815 C 0.93842 0.92082 0.84696 0.0
C816 C 0.95426 0.91372 0.79971 0.0
C817 C 0.95817 0.94256 0.79554 0.0
C818 C 0.95205 0.96052 0.81714 0.0
C819 C 0.94243 0.94977 0.84269 0.0
C820 C 0.96811 0.95373 0.76833 0.0
C821 C 0.94993 0.96937 0.75253 0.0
C822 C 0.99423 0.94703 0.75699 0.0
C823 C 0.01481 0.9315 0.77319 0.0
C824 C 0.02491 0.94099 0.7996 0.0
C825 C 0.04404 0.9261 0.81489 0.0
C826 C 0.05339 0.90178 0.80391 0.0
C827 C 0.04367 0.89233 0.77759 0.0
C828 C 0.02451 0.90712 0.76223 0.0
C829 C 0.99873 0.01209 0.64772 0.0
C830 C 0.00662 0.99141 0.6295 0.0
C831 C 0.99115 0.00543 0.67511 0.0
C832 C 0.9908 0.97788 0.68464 0.0
C833 C 0.99866 0.95726 0.66644 0.0
C834 C 0.00657 0.96394 0.63923 0.0
C835 C 0.98252 0.97034 0.71358 0.0
C836 C 0.00107 0.9554 0.72979 0.0
C837 C 0.95659 0.97745 0.72516 0.0
C838 C 0.93526 0.99183 0.70877 0.0
C839 C 0.92377 0.98043 0.68356 0.0
C840 C 0.90376 0.99416 0.66818 0.0
C841 C 0.8949 0.01921 0.67792 0.0
C842 C 0.90597 0.03052 0.7031 0.0
C843 C 0.92601 0.01688 0.71855 0.0
H844 H 0.8794 0.02981 0.66598 0.0
H845 H 0.0682 0.89029 0.81578 0.0
H846 H 0.64123 0.04357 0.35166 0.0
H847 H 0.62639 0.02864 0.30437 0.0
H848 H 0.6375 0.114 0.27678 0.0
H849 H 0.65112 0.12895 0.32422 0.0
H850 H 0.59167 0.09103 0.25416 0.0
H851 H 0.68732 0.06453 0.26396 0.0
H852 H 0.72696 0.04161 0.28576 0.0
H853 H 0.67955 0.96185 0.27422 0.0
H854 H 0.63943 0.98435 0.25269 0.0
H855 H 0.60435 0.06512 0.10861 0.0
H856 H 0.61804 0.07661 0.15702 0.0
H857 H 0.57722 0.99765 0.18364 0.0
H858 H 0.56281 0.9862 0.13534 0.0
H859 H 0.63698 0.01564 0.20641 0.0
H860 H 0.54139 0.04501 0.19525 0.0
H861 H 0.50432 0.07002 0.17161 0.0
H862 H 0.55599 0.14744 0.1837 0.0
H863 H 0.59358 0.12281 0.20704 0.0
C864 C 0.64045 0.05905 0.33542 0.0
C865 C 0.64728 0.08737 0.34148 0.0
C866 C 0.63213 0.05054 0.3084 0.0
C867 C 0.63125 0.07014 0.28683 0.0
C868 C 0.63794 0.09847 0.29301 0.0
C869 C 0.64573 0.10701 0.32009 0.0
C870 C 0.62318 0.0613 0.25785 0.0
C871 C 0.60188 0.07475 0.24371 0.0
C872 C 0.63611 0.03976 0.24418 0.0
C873 C 0.66025 0.02615 0.25698 0.0
C874 C 0.68526 0.04212 0.26625 0.0
C875 C 0.70783 0.0292 0.27854 0.0
C876 C 0.70574 0.0003 0.28145 0.0
C877 C 0.68111 0.98424 0.272 0.0
C878 C 0.65846 0.99706 0.25973 0.0
C879 C 0.59842 0.05013 0.12473 0.0
C880 C 0.58242 0.0248 0.1182 0.0
C881 C 0.60621 0.05675 0.15233 0.0
C882 C 0.59855 0.03797 0.17376 0.0
C883 C 0.5833 0.01235 0.16729 0.0
C884 C 0.575 0.00593 0.13976 0.0
C885 C 0.6058 0.04552 0.20303 0.0
C886 C 0.62687 0.03184 0.21709 0.0
C887 C 0.59308 0.06717 0.21648 0.0
C888 C 0.57043 0.08203 0.20262 0.0
C889 C 0.54497 0.06733 0.19263 0.0
C890 C 0.52384 0.08144 0.17934 0.0
C891 C 0.52783 0.11029 0.17608 0.0
C892 C 0.55294 0.12509 0.18619 0.0
C893 C 0.57416 0.11107 0.19947 0.0
H894 H 0.51144 0.12118 0.16579 0.0
H895 H 0.72323 0.99034 0.29097 0.0
H896 H 0.523 0.54628 0.17109 0.0
H897 H 0.52618 0.53167 0.21994 0.0
H898 H 0.43615 0.54063 0.22915 0.0
H899 H 0.43272 0.55459 0.18022 0.0
H900 H 0.47413 0.56993 0.26973 0.0
H901 H 0.45359 0.47909 0.22868 0.0
H902 H 0.46116 0.44101 0.1962 0.0
H903 H 0.5457 0.43599 0.23075 0.0
H904 H 0.53879 0.47435 0.26318 0.0
H905 H 0.45953 0.51847 0.40695 0.0
H906 H 0.45259 0.52582 0.35702 0.0
H907 H 0.53665 0.49999 0.34195 0.0
H908 H 0.54345 0.49187 0.39163 0.0
H909 H 0.50054 0.47855 0.30376 0.0
H910 H 0.52392 0.56926 0.34262 0.0
H911 H 0.51949 0.60868 0.37442 0.0
H912 H 0.434 0.616 0.34336 0.0
H913 H 0.43778 0.57634 0.31163 0.0
C914 C 0.50388 0.54484 0.18352 0.0
C915 C 0.47774 0.55202 0.17217 0.0
C916 C 0.5057 0.53647 0.2113 0.0
C917 C 0.48142 0.53527 0.22807 0.0
C918 C 0.45512 0.54161 0.21652 0.0
C919 C 0.45321 0.54956 0.18868 0.0
C920 C 0.48374 0.52882 0.25804 0.0
C921 C 0.47946 0.54982 0.27726 0.0
C922 C 0.49159 0.50288 0.26762 0.0
C923 C 0.49578 0.4798 0.24816 0.0
C924 C 0.4739 0.47005 0.22917 0.0
C925 C 0.47805 0.44837 0.21081 0.0
C926 C 0.50392 0.43614 0.21136 0.0
C927 C 0.52568 0.44551 0.23032 0.0
C928 C 0.52165 0.46721 0.24872 0.0
C929 C 0.47651 0.51429 0.39301 0.0
C930 C 0.50209 0.50472 0.40331 0.0
C931 C 0.47255 0.51858 0.36448 0.0
C932 C 0.49427 0.51382 0.34578 0.0
C933 C 0.5196 0.5038 0.35597 0.0
C934 C 0.52347 0.49925 0.38442 0.0
C935 C 0.49087 0.51968 0.31565 0.0
C936 C 0.49505 0.49863 0.29634 0.0
C937 C 0.48338 0.54578 0.30592 0.0
C938 C 0.48102 0.56963 0.32498 0.0
C939 C 0.50409 0.57912 0.34274 0.0
C940 C 0.50171 0.60154 0.36072 0.0
C941 C 0.47644 0.61478 0.36097 0.0
C942 C 0.45353 0.60568 0.34318 0.0
C943 C 0.45578 0.58325 0.32518 0.0
H944 H 0.47465 0.63214 0.3749 0.0
H945 H 0.50708 0.41934 0.19713 0.0
H946 H 0.0702 0.3964 0.68368 0.0
H947 H 0.06235 0.40817 0.73254 0.0
H948 H 0.14413 0.45708 0.73594 0.0
H949 H 0.1517 0.44602 0.68679 0.0
H950 H 0.12711 0.4117 0.78203 0.0
H951 H 0.09967 0.49448 0.73414 0.0
H952 H 0.07266 0.51824 0.69823 0.0
H953 H 0.99339 0.48151 0.731 0.0
H954 H 0.01999 0.45717 0.76684 0.0
H955 H 0.11529 0.4732 0.91491 0.0
H956 H 0.12558 0.46311 0.86643 0.0
H957 H 0.0348 0.45169 0.84737 0.0
H958 H 0.0246 0.46357 0.89536 0.0
H959 H 0.05778 0.47848 0.80807 0.0
H960 H 0.08088 0.39579 0.85488 0.0
H961 H 0.10444 0.36771 0.8898 0.0
H962 H 0.18694 0.39787 0.85903 0.0
H963 H 0.16387 0.42642 0.82413 0.0
C964 C 0.08641 0.40971 0.69491 0.0
C965 C 0.11149 0.42042 0.68165 0.0
C966 C 0.08193 0.41639 0.72268 0.0
C967 C 0.1027 0.43342 0.73766 0.0
C968 C 0.12792 0.44389 0.72459 0.0
C969 C 0.13214 0.4377 0.69662 0.0
C970 C 0.0979 0.44034 0.76701 0.0
C971 C 0.11229 0.42658 0.7879 0.0
C972 C 0.07782 0.45898 0.77435 0.0
C973 C 0.06183 0.47377 0.75295 0.0
C974 C 0.0765 0.49124 0.7335 0.0
C975 C 0.06126 0.50487 0.7132 0.0
C976 C 0.03133 0.50132 0.71228 0.0
C977 C 0.01657 0.4842 0.73171 0.0
C978 C 0.03172 0.47051 0.75203 0.0
C979 C 0.09758 0.46841 0.90034 0.0
C980 C 0.06916 0.46911 0.90883 0.0
C981 C 0.10345 0.46247 0.87266 0.0
C982 C 0.08098 0.45613 0.8532 0.0
C983 C 0.05256 0.45657 0.86186 0.0
C984 C 0.04672 0.46327 0.88932 0.0
C985 C 0.08695 0.44977 0.82366 0.0
C986 C 0.07272 0.46361 0.80255 0.0
C987 C 0.10671 0.43063 0.81615 0.0
C988 C 0.12065 0.41346 0.83708 0.0
C989 C 0.10405 0.39659 0.85569 0.0
C990 C 0.11732 0.38056 0.87546 0.0
C991 C 0.14717 0.38106 0.87668 0.0
C992 C 0.16382 0.39753 0.85808 0.0
C993 C 0.15066 0.41362 0.83829 0.0
H994 H 0.1574 0.36864 0.892 0.0
H995 H 0.01956 0.51189 0.69655 0.0
H996 H 0.84226 0.88073 0.92533 0.0
H997 H 0.79902 0.89954 0.94197 0.0
H998 H 0.84224 0.98234 0.94121 0.0
H999 H 0.8858 0.96358 0.92437 0.0
H1000 H 0.80638 0.96712 0.99065 0.0
H1001 H 0.80203 0.96964 0.8906 0.0
H1002 H 0.80533 0.94999 0.84351 0.0
H1003 H 0.73739 0.88705 0.86148 0.0
H1004 H 0.73401 0.90606 0.90887 0.0
H1005 H 0.67221 0.02727 0.003 0.0
H1006 H 0.72049 0.01756 0.98956 0.0
H1007 H 0.68806 0.93422 0.96553 0.0
H1008 H 0.63997 0.94393 0.97811 0.0
H1009 H 0.72135 0.95576 0.92709 0.0
H1010 H 0.72746 0.94952 0.02723 0.0
H1011 H 0.72447 0.96649 0.07543 0.0
H1012 H 0.78846 0.03363 0.05878 0.0
H1013 H 0.79156 0.01725 0.01034 0.0
C1014 C 0.84274 0.90288 0.92916 0.0
C1015 C 0.86737 0.92072 0.92358 0.0
C1016 C 0.81801 0.9136 0.93853 0.0
C1017 C 0.81749 0.9423 0.94267 0.0
C1018 C 0.84232 0.96012 0.93814 0.0
C1019 C 0.86705 0.94943 0.9284 0.0
C1020 C 0.79034 0.95353 0.95015 0.0
C1021 C 0.78785 0.96515 0.97665 0.0
C1022 C 0.76619 0.95045 0.93197 0.0
C1023 C 0.76794 0.93915 0.90337 0.0
C1024 C 0.78796 0.95148 0.88459 0.0
C1025 C 0.78981 0.94048 0.85783 0.0
C1026 C 0.77162 0.91725 0.84952 0.0
C1027 C 0.75148 0.90503 0.86795 0.0
C1028 C 0.74957 0.91592 0.89475 0.0
C1029 C 0.67543 0.00686 0.99493 0.0
C1030 C 0.6522 0.98641 0.99154 0.0
C1031 C 0.70305 0.00131 0.98735 0.0
C1032 C 0.70796 0.97509 0.97667 0.0
C1033 C 0.68481 0.95465 0.97357 0.0
C1034 C 0.65728 0.96024 0.98084 0.0
C1035 C 0.73692 0.96878 0.96801 0.0
C1036 C 0.73984 0.9581 0.94112 0.0
C1037 C 0.76132 0.9725 0.98599 0.0
C1038 C 0.75949 0.98236 0.01508 0.0
C1039 C 0.74072 0.96804 0.03378 0.0
C1040 C 0.73904 0.97752 0.06115 0.0
C1041 C 0.7562 0.00118 0.07013 0.0
C1042 C 0.77514 0.01535 0.05177 0.0
C1043 C 0.77688 0.00597 0.02437 0.0
H1044 H 0.75487 0.00848 0.09134 0.0
H1045 H 0.77309 0.90877 0.8288 0.0
H1046 H 0.73768 0.08116 0.38381 0.0
H1047 H 0.78169 0.06722 0.40512 0.0
H1048 H 0.74576 0.0733 0.48659 0.0
H1049 H 0.70098 0.0863 0.4654 0.0
H1050 H 0.80113 0.10163 0.48126 0.0
H1051 H 0.75301 0.01142 0.46344 0.0
H1052 H 0.72607 0.97488 0.4351 0.0
H1053 H 0.79594 0.97559 0.37854 0.0
H1054 H 0.82317 0.01245 0.40633 0.0
H1055 H 0.92456 0.04886 0.54423 0.0
H1056 H 0.8752 0.0567 0.53122 0.0
H1057 H 0.89243 0.0392 0.44536 0.0
H1058 H 0.9413 0.03049 0.45829 0.0
H1059 H 0.84315 0.01406 0.45814 0.0
H1060 H 0.88889 0.10693 0.47142 0.0
H1061 H 0.91612 0.14512 0.49737 0.0
H1062 H 0.85154 0.14113 0.5598 0.0
H1063 H 0.82409 0.10265 0.53437 0.0
C1064 C 0.73873 0.07889 0.40622 0.0
C1065 C 0.71562 0.08476 0.42284 0.0
C1066 C 0.76404 0.0711 0.41837 0.0
C1067 C 0.76689 0.06913 0.44739 0.0
C1068 C 0.74393 0.07476 0.46413 0.0
C1069 C 0.71843 0.0823 0.45196 0.0
C1070 C 0.79437 0.0622 0.46006 0.0
C1071 C 0.81014 0.08226 0.47671 0.0
C1072 C 0.80626 0.0372 0.45353 0.0
C1073 C 0.79005 0.01486 0.43688 0.0
C1074 C 0.76256 0.00394 0.44485 0.0
C1075 C 0.74724 0.98314 0.4289 0.0
C1076 C 0.75926 0.97296 0.405 0.0
C1077 C 0.78666 0.98351 0.39705 0.0
C1078 C 0.80205 0.00433 0.41291 0.0
C1079 C 0.91783 0.04679 0.52257 0.0
C1080 C 0.93687 0.03908 0.50229 0.0
C1081 C 0.88963 0.05134 0.51515 0.0
C1082 C 0.88013 0.04878 0.48725 0.0
C1083 C 0.89918 0.04119 0.46702 0.0
C1084 C 0.92718 0.0363 0.47445 0.0
C1085 C 0.85036 0.05379 0.47887 0.0
C1086 C 0.83409 0.03332 0.46304 0.0
C1087 C 0.83816 0.07858 0.48588 0.0
C1088 C 0.85462 0.1017 0.50117 0.0
C1089 C 0.88062 0.11405 0.4908 0.0
C1090 C 0.89607 0.13578 0.50539 0.0
C1091 C 0.88562 0.14549 0.53027 0.0
C1092 C 0.85964 0.13355 0.54056 0.0
C1093 C 0.84412 0.11179 0.52606 0.0
H1094 H 0.89761 0.16231 0.54154 0.0
H1095 H 0.74737 0.95686 0.39268 0.0
H1096 H 0.39315 0.55648 0.06854 0.0
H1097 H 0.34334 0.54398 0.05348 0.0
H1098 H 0.3257 0.62972 0.06142 0.0
H1099 H 0.37531 0.64229 0.07668 0.0
H1100 H 0.28707 0.59298 0.0889 0.0
H1101 H 0.32866 0.60278 0.9985 0.0
H1102 H 0.36292 0.59408 0.96191 0.0
H1103 H 0.33411 0.50704 0.96261 0.0
H1104 H 0.29995 0.51515 0.99952 0.0
H1105 H 0.14527 0.57481 0.03457 0.0
H1106 H 0.19578 0.59112 0.04187 0.0
H1107 H 0.21943 0.50866 0.02448 0.0
H1108 H 0.16911 0.4924 0.01631 0.0
H1109 H 0.25531 0.54564 0.00041 0.0
H1110 H 0.21664 0.53399 0.0919 0.0
H1111 H 0.18308 0.54081 0.12968 0.0
H1112 H 0.20726 0.62878 0.12856 0.0
H1113 H 0.24071 0.62252 0.0905 0.0
C1114 C 0.37868 0.57266 0.0668 0.0
C1115 C 0.38807 0.60035 0.07369 0.0
C1116 C 0.35034 0.56554 0.05807 0.0
C1117 C 0.33095 0.58598 0.05623 0.0
C1118 C 0.34041 0.6137 0.06263 0.0
C1119 C 0.36877 0.62086 0.07113 0.0
C1120 C 0.30037 0.57815 0.04935 0.0
C1121 C 0.28003 0.58305 0.06936 0.0
C1122 C 0.29143 0.56447 0.02421 0.0
C1123 C 0.31192 0.55954 0.00197 0.0
C1124 C 0.3298 0.58174 0.99103 0.0
C1125 C 0.34917 0.57692 0.9702 0.0
C1126 C 0.35074 0.55001 0.95999 0.0
C1127 C 0.33289 0.52787 0.97056 0.0
C1128 C 0.3135 0.53257 0.99142 0.0
C1129 C 0.16123 0.56015 0.03227 0.0
C1130 C 0.15316 0.53227 0.02502 0.0
C1131 C 0.19009 0.56949 0.03652 0.0
C1132 C 0.21137 0.55101 0.03412 0.0
C1133 C 0.20339 0.52329 0.02645 0.0
C1134 C 0.17459 0.51401 0.02188 0.0
C1135 C 0.24191 0.56039 0.04002 0.0
C1136 C 0.26229 0.55573 0.01988 0.0
C1137 C 0.25098 0.574 0.06522 0.0
C1138 C 0.23095 0.57782 0.08816 0.0
C1139 C 0.21464 0.55481 0.09957 0.0
C1140 C 0.19567 0.55857 0.12106 0.0
C1141 C 0.19298 0.58522 0.13146 0.0
C1142 C 0.20933 0.60816 0.12045 0.0
C1143 C 0.22831 0.60451 0.09893 0.0
H1144 H 0.17828 0.58809 0.14809 0.0
H1145 H 0.36575 0.54633 0.94385 0.0
H1146 H 0.17814 0.46747 0.53402 0.0
H1147 H 0.22657 0.4563 0.52336 0.0
H1148 H 0.23886 0.43044 0.60844 0.0
H1149 H 0.19056 0.44245 0.61925 0.0
H1150 H 0.28097 0.4661 0.59457 0.0
H1151 H 0.23687 0.38374 0.55328 0.0
H1152 H 0.20241 0.35437 0.52407 0.0
H1153 H 0.23492 0.39607 0.45074 0.0
H1154 H 0.26928 0.42604 0.47954 0.0
H1155 H 0.42249 0.43581 0.56274 0.0
H1156 H 0.37184 0.42544 0.57377 0.0
H1157 H 0.34755 0.46894 0.49993 0.0
H1158 H 0.3981 0.47974 0.48889 0.0
H1159 H 0.31237 0.41694 0.5114 0.0
H1160 H 0.35051 0.50373 0.55569 0.0
H1161 H 0.38495 0.53223 0.58578 0.0
H1162 H 0.36299 0.47891 0.65513 0.0
H1163 H 0.32869 0.44985 0.62529 0.0
C1164 C 0.19104 0.4589 0.55025 0.0
C1165 C 0.18095 0.45616 0.57751 0.0
C1166 C 0.21864 0.45234 0.54414 0.0
C1167 C 0.23641 0.44245 0.56508 0.0
C1168 C 0.2256 0.43812 0.59197 0.0
C1169 C 0.19805 0.44487 0.59812 0.0
C1170 C 0.26713 0.43978 0.55962 0.0
C1171 C 0.28776 0.45472 0.57676 0.0
C1172 C 0.27613 0.42534 0.53614 0.0
C1173 C 0.25556 0.4073 0.51863 0.0
C1174 C 0.23654 0.38682 0.53095 0.0
C1175 C 0.21704 0.37003 0.51445 0.0
C1176 C 0.21645 0.37338 0.48557 0.0
C1177 C 0.2354 0.3935 0.47312 0.0
C1178 C 0.25493 0.41038 0.48952 0.0
C1179 C 0.40638 0.44284 0.54862 0.0
C1180 C 0.41431 0.45882 0.52506 0.0
C1181 C 0.37747 0.43687 0.55496 0.0
C1182 C 0.35605 0.4465 0.53768 0.0
C1183 C 0.36382 0.46125 0.51344 0.0
C1184 C 0.3927 0.46757 0.50729 0.0
C1185 C 0.32572 0.44352 0.54612 0.0
C1186 C 0.30534 0.4277 0.5295 0.0
C1187 C 0.31688 0.45688 0.57023 0.0
C1188 C 0.33734 0.47443 0.5882 0.0
C1189 C 0.35323 0.49794 0.57729 0.0
C1190 C 0.37268 0.51422 0.59431 0.0
C1191 C 0.37623 0.50733 0.62233 0.0
C1192 C 0.36026 0.48419 0.63341 0.0
C1193 C 0.34081 0.46781 0.61646 0.0
H1194 H 0.39129 0.51996 0.63548 0.0
H1195 H 0.20134 0.36036 0.47283 0.0
H1196 H 0.9191 0.77499 0.87978 0.0
H1197 H 0.94095 0.73288 0.89363 0.0
H1198 H 0.9713 0.77251 0.97051 0.0
H1199 H 0.94923 0.81476 0.95677 0.0
H1200 H 0.01252 0.74191 0.9445 0.0
H1201 H 0.9148 0.72931 0.97315 0.0
H1202 H 0.86237 0.7286 0.96719 0.0
H1203 H 0.86305 0.6655 0.90421 0.0
H1204 H 0.91557 0.66614 0.90952 0.0
H1205 H 0.04119 0.61601 0.01388 0.0
H1206 H 0.02497 0.66099 0.00089 0.0
H1207 H 0.98378 0.62417 0.92689 0.0
H1208 H 0.99945 0.57907 0.9399 0.0
H1209 H 0.94863 0.65462 0.95342 0.0
H1210 H 0.04627 0.66746 0.92399 0.0
H1211 H 0.09876 0.66826 0.92942 0.0
H1212 H 0.09855 0.7306 0.99319 0.0
H1213 H 0.04597 0.7299 0.98841 0.0
C1214 C 0.93083 0.77487 0.89943 0.0
C1215 C 0.93303 0.79832 0.91692 0.0
C1216 C 0.94316 0.75079 0.90737 0.0
C1217 C 0.95768 0.7496 0.9331 0.0
C1218 C 0.96035 0.77312 0.95048 0.0
C1219 C 0.9478 0.7972 0.94261 0.0
C1220 C 0.96898 0.72334 0.9422 0.0
C1221 C 0.99857 0.72287 0.94686 0.0
C1222 C 0.95076 0.69846 0.94474 0.0
C1223 C 0.91916 0.69797 0.94154 0.0
C1224 C 0.9038 0.71546 0.95786 0.0
C1225 C 0.87406 0.71504 0.95463 0.0
C1226 C 0.8594 0.69707 0.93528 0.0
C1227 C 0.87444 0.67944 0.91917 0.0
C1228 C 0.90419 0.6798 0.92229 0.0
C1229 C 0.02886 0.61749 0.99472 0.0
C1230 C 0.02159 0.59386 0.97797 0.0
C1231 C 0.0197 0.64328 0.98727 0.0
C1232 C 0.00331 0.646 0.96281 0.0
C1233 C 0.99637 0.62255 0.94588 0.0
C1234 C 0.00542 0.59677 0.95334 0.0
C1235 C 0.99233 0.67296 0.95536 0.0
C1236 C 0.96268 0.67361 0.95111 0.0
C1237 C 0.01054 0.69793 0.95315 0.0
C1238 C 0.04215 0.69841 0.95605 0.0
C1239 C 0.05739 0.68117 0.93934 0.0
C1240 C 0.08716 0.68164 0.94227 0.0
C1241 C 0.10197 0.69941 0.96169 0.0
C1242 C 0.08704 0.71681 0.97818 0.0
C1243 C 0.05726 0.71641 0.97536 0.0
H1244 H 0.12502 0.69975 0.96392 0.0
H1245 H 0.83637 0.69677 0.93282 0.0
H1246 H 0.47746 0.68145 0.12728 0.0
H1247 H 0.49443 0.72972 0.11699 0.0
H1248 H 0.49096 0.71106 0.02912 0.0
H1249 H 0.4737 0.66259 0.03928 0.0
H1250 H 0.5415 0.7486 0.05041 0.0
H1251 H 0.43785 0.73628 0.04932 0.0
H1252 H 0.39107 0.72026 0.06911 0.0
H1253 H 0.40999 0.773 0.14039 0.0
H1254 H 0.45716 0.78894 0.12123 0.0
H1255 H 0.53778 0.88495 0.99726 0.0
H1256 H 0.52876 0.83541 0.00713 0.0
H1257 H 0.50836 0.85435 0.09187 0.0
H1258 H 0.5165 0.90405 0.08191 0.0
H1259 H 0.47098 0.81576 0.0722 0.0
H1260 H 0.57339 0.82962 0.07411 0.0
H1261 H 0.62129 0.84506 0.05647 0.0
H1262 H 0.60662 0.78986 0.98647 0.0
H1263 H 0.55844 0.77436 0.00349 0.0
C1264 C 0.48102 0.68745 0.10581 0.0
C1265 C 0.47428 0.66836 0.08404 0.0
C1266 C 0.49057 0.71501 0.09998 0.0
C1267 C 0.49374 0.72383 0.07233 0.0
C1268 C 0.48866 0.70451 0.05059 0.0
C1269 C 0.47871 0.67697 0.05639 0.0
C1270 C 0.49968 0.75373 0.06618 0.0
C1271 C 0.52605 0.76334 0.05482 0.0
C1272 C 0.47967 0.77282 0.07263 0.0
C1273 C 0.45115 0.76357 0.08399 0.0
C1274 C 0.43214 0.74427 0.06933 0.0
C1275 C 0.40554 0.73523 0.08041 0.0
C1276 C 0.39759 0.74555 0.10603 0.0
C1277 C 0.4162 0.76499 0.12057 0.0
C1278 C 0.44287 0.77404 0.10961 0.0
C1279 C 0.53142 0.8786 0.01803 0.0
C1280 C 0.52792 0.89846 0.03884 0.0
C1281 C 0.52643 0.85024 0.02368 0.0
C1282 C 0.51836 0.84113 0.05037 0.0
C1283 C 0.51465 0.8609 0.07114 0.0
C1284 C 0.51932 0.8893 0.06542 0.0
C1285 C 0.51302 0.81099 0.05644 0.0
C1286 C 0.48662 0.80121 0.06778 0.0
C1287 C 0.53318 0.79184 0.05019 0.0
C1288 C 0.56219 0.80103 0.03994 0.0
C1289 C 0.58028 0.82093 0.05484 0.0
C1290 C 0.6075 0.82966 0.04497 0.0
C1291 C 0.61696 0.8185 0.02033 0.0
C1292 C 0.59925 0.79852 0.00554 0.0
C1293 C 0.57199 0.78973 0.0153 0.0
H1294 H 0.63804 0.82529 0.01272 0.0
H1295 H 0.37698 0.73854 0.11457 0.0
H1296 H 0.07727 0.33914 0.63125 0.0
H1297 H 0.07097 0.29003 0.61875 0.0
H1298 H 0.14708 0.30011 0.56933 0.0
H1299 H 0.15362 0.34967 0.5819 0.0
H1300 H 0.10342 0.26817 0.54282 0.0
H1301 H 0.15002 0.26968 0.63198 0.0
H1302 H 0.15797 0.28267 0.68136 0.0
H1303 H 0.07572 0.24163 0.70128 0.0
H1304 H 0.06708 0.22873 0.65193 0.0
H1305 H 0.10776 0.12064 0.53216 0.0
H1306 H 0.12056 0.16991 0.54218 0.0
H1307 H 0.04515 0.17181 0.59191 0.0
H1308 H 0.03213 0.12252 0.58206 0.0
H1309 H 0.09349 0.19739 0.61773 0.0
H1310 H 0.04606 0.19841 0.5279 0.0
H1311 H 0.03784 0.1865 0.47827 0.0
H1312 H 0.12235 0.2229 0.4596 0.0
H1313 H 0.13125 0.23465 0.50921 0.0
C1314 C 0.09288 0.33091 0.61794 0.0
C1315 C 0.11622 0.34819 0.60793 0.0
C1316 C 0.08919 0.30282 0.61075 0.0
C1317 C 0.10885 0.29129 0.59355 0.0
C1318 C 0.13176 0.30859 0.58278 0.0
C1319 C 0.13544 0.33686 0.58994 0.0
C1320 C 0.10521 0.26111 0.58705 0.0
C1321 C 0.1018 0.25262 0.55915 0.0
C1322 C 0.10262 0.2409 0.60842 0.0
C1323 C 0.10782 0.24841 0.6382 0.0
C1324 C 0.13354 0.26358 0.64685 0.0
C1325 C 0.13818 0.27091 0.67485 0.0
C1326 C 0.11734 0.26303 0.69444 0.0
C1327 C 0.09184 0.24773 0.68608 0.0
C1328 C 0.08707 0.24038 0.6581 0.0
C1329 C 0.0939 0.13148 0.5453 0.0
C1330 C 0.06888 0.1176 0.5563 0.0
C1331 C 0.1012 0.15969 0.55088 0.0
C1332 C 0.08368 0.17454 0.56759 0.0
C1333 C 0.05893 0.1607 0.57892 0.0
C1334 C 0.0515 0.13254 0.57321 0.0
C1335 C 0.09121 0.20448 0.57354 0.0
C1336 C 0.0954 0.2129 0.60138 0.0
C1337 C 0.09462 0.22456 0.5521 0.0
C1338 C 0.08944 0.21713 0.52233 0.0
C1339 C 0.06301 0.2036 0.51327 0.0
C1340 C 0.05821 0.19694 0.48513 0.0
C1341 C 0.07958 0.20391 0.46581 0.0
C1342 C 0.10583 0.21749 0.4746 0.0
C1343 C 0.11076 0.22416 0.50272 0.0
H1344 H 0.07575 0.19892 0.44401 0.0
H1345 H 0.12098 0.26872 0.7161 0.0
H1346 H 0.60011 0.16365 0.48771 0.0
H1347 H 0.5846 0.20948 0.499 0.0
H1348 H 0.59453 0.23426 0.41321 0.0
H1349 H 0.60964 0.1884 0.4018 0.0
H1350 H 0.62142 0.27273 0.45191 0.0
H1351 H 0.52997 0.21991 0.43602 0.0
H1352 H 0.49316 0.18089 0.44354 0.0
H1353 H 0.4888 0.20376 0.52965 0.0
H1354 H 0.52591 0.24271 0.52272 0.0
H1355 H 0.55752 0.39834 0.449 0.0
H1356 H 0.56945 0.35106 0.44038 0.0
H1357 H 0.54419 0.3276 0.52364 0.0
H1358 H 0.53122 0.37479 0.53212 0.0
H1359 H 0.52591 0.28784 0.48878 0.0
H1360 H 0.61581 0.34046 0.50604 0.0
H1361 H 0.65345 0.37913 0.50039 0.0
H1362 H 0.66252 0.35622 0.41485 0.0
H1363 H 0.62464 0.31763 0.41987 0.0
C1364 C 0.59892 0.17892 0.47132 0.0
C1365 C 0.6066 0.1728 0.44402 0.0
C1366 C 0.58999 0.20497 0.47774 0.0
C1367 C 0.58854 0.22521 0.45693 0.0
C1368 C 0.59571 0.21895 0.42957 0.0
C1369 C 0.60434 0.19284 0.42309 0.0
C1370 C 0.5803 0.25323 0.46372 0.0
C1371 C 0.60044 0.27613 0.45966 0.0
C1372 C 0.55327 0.25741 0.47474 0.0
C1373 C 0.53095 0.23403 0.47892 0.0
C1374 C 0.52136 0.21646 0.45662 0.0
C1375 C 0.5004 0.19439 0.46076 0.0
C1376 C 0.48871 0.1898 0.48708 0.0
C1377 C 0.49791 0.20732 0.50929 0.0
C1378 C 0.51889 0.2294 0.50526 0.0
C1379 C 0.55448 0.38315 0.4655 0.0
C1380 C 0.54362 0.39038 0.49132 0.0
C1381 C 0.56143 0.35613 0.46058 0.0
C1382 C 0.55828 0.3359 0.48156 0.0
C1383 C 0.5469 0.34289 0.50719 0.0
C1384 C 0.53956 0.36988 0.51201 0.0
C1385 C 0.56695 0.30753 0.47665 0.0
C1386 C 0.54696 0.28453 0.48113 0.0
C1387 C 0.5943 0.30318 0.46635 0.0
C1388 C 0.6172 0.3263 0.46328 0.0
C1389 C 0.62569 0.34379 0.48597 0.0
C1390 C 0.64709 0.36567 0.48289 0.0
C1391 C 0.66032 0.37017 0.45726 0.0
C1392 C 0.65223 0.35273 0.43468 0.0
C1393 C 0.63082 0.33083 0.43764 0.0
H1394 H 0.67688 0.38713 0.45492 0.0
H1395 H 0.47247 0.17271 0.49024 0.0
loop_
_geom_bond_atom_site_label_1
_geom_bond_atom_site_label_2
_geom_bond_distance
_geom_bond_site_symmetry_2
_ccdc_geom_bond_type
H0 C7 0.929 . S
H1 C10 0.930 . S
H2 C12 0.929 . S
H3 C4 0.969 . S
C4 H3 0.969 . S
C4 O5 1.550 . S
C4 H6 0.973 . S
O5 C4 1.550 . S
O5 C11 1.412 . S
H6 C4 0.973 . S
C7 H0 0.929 . S
C7 C8 1.400 . S
C7 C9 1.364 . S
C8 C7 1.400 . S
C8 C12 1.377 . S
C9 C7 1.364 . S
C9 C10 1.374 . S
C10 H1 0.930 . S
C10 C9 1.374 . S
C10 C11 1.383 . S
C11 O5 1.412 . S
C11 C10 1.383 . S
C11 C12 1.394 . S
C12 H2 0.929 . S
C12 C8 1.377 . S
C12 C11 1.394 . S
H13 C20 0.929 . S
H14 C23 0.930 . S
H15 C25 0.929 . S
H16 C17 0.969 . S
C17 H16 0.969 . S
C17 O18 1.550 . S
C17 H19 0.973 . S
O18 C17 1.550 . S
O18 C24 1.412 . S
H19 C17 0.973 . S
C20 H13 0.929 . S
C20 C21 1.400 . S
C20 C22 1.364 . S
C21 C20 1.400 . S
C21 C25 1.377 . S
C22 C20 1.364 . S
C22 C23 1.374 . S
C23 H14 0.930 . S
C23 C22 1.374 . S
C23 C24 1.383 . S
C24 O18 1.412 . S
C24 C23 1.383 . S
C24 C25 1.394 . S
C25 H15 0.929 . S
C25 C21 1.377 . S
C25 C24 1.394 . S
H26 C33 0.929 . S
H27 C36 0.930 . S
H28 C38 0.929 . S
H29 C30 0.969 . S
C30 H29 0.969 . S
C30 O31 1.550 . S
C30 H32 0.973 . S
O31 C30 1.550 . S
O31 C37 1.412 . S
H32 C30 0.973 . S
C33 H26 0.929 . S
C33 C34 1.400 . S
C33 C35 1.364 . S
C34 C33 1.400 . S
C34 C38 1.377 . S
C35 C33 1.364 . S
C35 C36 1.374 . S
C36 H27 0.930 . S
C36 C35 1.374 . S
C36 C37 1.383 . S
C37 O31 1.412 . S
C37 C36 1.383 . S
C37 C38 1.394 . S
C38 H28 0.929 . S
C38 C34 1.377 . S
C38 C37 1.394 . S
H39 C46 0.929 . S
H40 C49 0.930 . S
H41 C51 0.929 . S
H42 C43 0.969 . S
C43 H42 0.969 . S
C43 O44 1.550 . S
C43 H45 0.973 . S
O44 C43 1.550 . S
O44 C50 1.412 . S
H45 C43 0.973 . S
C46 H39 0.929 . S
C46 C47 1.400 . S
C46 C48 1.364 . S
C47 C46 1.400 . S
C47 C51 1.377 . S
C48 C46 1.364 . S
C48 C49 1.374 . S
C49 H40 0.930 . S
C49 C48 1.374 . S
C49 C50 1.383 . S
C50 O44 1.412 . S
C50 C49 1.383 . S
C50 C51 1.394 . S
C51 H41 0.929 . S
C51 C47 1.377 . S
C51 C50 1.394 . S
H52 C59 0.929 . S
H53 C62 0.930 . S
H54 C64 0.929 . S
H55 C56 0.969 . S
C56 H55 0.969 . S
C56 O57 1.550 . S
C56 H58 0.973 . S
O57 C56 1.550 . S
O57 C63 1.412 . S
H58 C56 0.973 . S
C59 H52 0.929 . S
C59 C60 1.400 . S
C59 C61 1.364 . S
C60 C59 1.400 . S
C60 C64 1.377 . S
C61 C59 1.364 . S
C61 C62 1.374 . S
C62 H53 0.930 . S
C62 C61 1.374 . S
C62 C63 1.383 . S
C63 O57 1.412 . S
C63 C62 1.383 . S
C63 C64 1.394 . S
C64 H54 0.929 . S
C64 C60 1.377 . S
C64 C63 1.394 . S
H65 C72 0.929 . S
H66 C75 0.930 . S
H67 C77 0.929 . S
H68 C69 0.969 . S
C69 H68 0.969 . S
C69 O70 1.550 . S
C69 H71 0.973 . S
O70 C69 1.550 . S
O70 C76 1.412 . S
H71 C69 0.973 . S
C72 H65 0.929 . S
C72 C73 1.400 . S
C72 C74 1.364 . S
C73 C72 1.400 . S
C73 C77 1.377 . S
C74 C72 1.364 . S
C74 C75 1.374 . S
C75 H66 0.930 . S
C75 C74 1.374 . S
C75 C76 1.383 . S
C76 O70 1.412 . S
C76 C75 1.383 . S
C76 C77 1.394 . S
C77 H67 0.929 . S
C77 C73 1.377 . S
C77 C76 1.394 . S
H78 C85 0.929 . S
H79 C88 0.930 . S
H80 C90 0.929 . S
H81 C82 0.969 . S
C82 H81 0.969 . S
C82 O83 1.550 . S
C82 H84 0.973 . S
O83 C82 1.550 . S
O83 C89 1.412 . S
H84 C82 0.973 . S
C85 H78 0.929 . S
C85 C86 1.400 . S
C85 C87 1.364 . S
C86 C85 1.400 . S
C86 C90 1.377 . S
C87 C85 1.364 . S
C87 C88 1.374 . S
C88 H79 0.930 . S
C88 C87 1.374 . S
C88 C89 1.383 . S
C89 O83 1.412 . S
C89 C88 1.383 . S
C89 C90 1.394 . S
C90 H80 0.929 . S
C90 C86 1.377 . S
C90 C89 1.394 . S
H91 C98 0.929 . S
H92 C101 0.930 . S
H93 C103 0.929 . S
H94 C95 0.969 . S
C95 H94 0.969 . S
C95 O96 1.550 . S
C95 H97 0.973 . S
O96 C95 1.550 . S
O96 C102 1.412 . S
H97 C95 0.973 . S
C98 H91 0.929 . S
C98 C99 1.400 . S
C98 C100 1.364 . S
C99 C98 1.400 . S
C99 C103 1.377 . S
C100 C98 1.364 . S
C100 C101 1.374 . S
C101 H92 0.930 . S
C101 C100 1.374 . S
C101 C102 1.383 . S
C102 O96 1.412 . S
C102 C101 1.383 . S
C102 C103 1.394 . S
C103 H93 0.929 . S
C103 C99 1.377 . S
C103 C102 1.394 . S
O104 Zn105 1.953 1_455 S
O104 C120 1.225 . S
Zn105 O104 1.953 1_655 S
Zn105 O106 1.949 1_655 S
Zn105 O112 1.919 . S
Zn105 O117 1.924 . S
O106 Zn105 1.949 1_455 S
O106 Zn107 1.930 . S
O106 Zn108 1.950 . S
O106 Zn109 1.945 1_545 S
Zn107 O106 1.930 . S
Zn107 O110 1.931 1_445 S
Zn107 O113 1.923 1_455 S
Zn107 O114 1.977 . S
Zn108 O106 1.950 . S
Zn108 O115 1.938 . S
Zn108 O116 1.906 . S
Zn108 O126 1.953 . S
Zn109 O106 1.945 1_565 S
Zn109 O111 1.932 . S
Zn109 O118 1.977 . S
Zn109 O119 1.910 . S
O110 Zn107 1.931 1_665 S
O110 C121 1.226 . S
O111 Zn109 1.932 . S
O111 C121 1.307 1_455 S
O112 Zn105 1.919 . S
O112 C123 1.253 . S
O113 Zn107 1.923 1_655 S
O113 C123 1.283 . S
O114 Zn107 1.977 . S
O114 C122 1.303 . S
O115 Zn108 1.938 . S
O115 C122 1.247 . S
O116 Zn108 1.906 . S
O116 C124 1.304 1_545 S
O117 Zn105 1.924 . S
O117 C125 1.311 . S
O118 Zn109 1.977 . S
O118 C124 1.272 . S
O119 Zn109 1.910 . S
O119 C125 1.231 1_465 S
C120 O104 1.225 . S
C120 O126 1.298 . S
C121 O110 1.226 . S
C121 O111 1.307 1_655 S
C122 O114 1.303 . S
C122 O115 1.247 . S
C123 O112 1.253 . S
C123 O113 1.283 . S
C124 O116 1.304 1_565 S
C124 O118 1.272 . S
C125 O117 1.311 . S
C125 O119 1.231 1_645 S
O126 Zn108 1.953 . S
O126 C120 1.298 . S
O127 Zn128 1.953 . S
O127 C143 1.225 . S
Zn128 O127 1.953 . S
Zn128 O129 1.949 1_556 S
Zn128 O135 1.919 . S
Zn128 O140 1.938 . S
O129 Zn128 1.949 1_554 S
O129 Zn130 1.909 1_544 S
O129 Zn131 1.950 . S
O129 Zn132 1.945 1_545 S
Zn130 O129 1.909 1_566 S
Zn130 O133 1.915 1_556 S
Zn130 O136 1.979 . S
Zn130 O137 1.969 . S
Zn131 O129 1.950 . S
Zn131 O138 1.938 . S
Zn131 O139 1.906 . S
Zn131 O149 1.953 . S
Zn132 O129 1.945 1_565 S
Zn132 O134 1.932 . S
Zn132 O141 1.977 1_565 S
Zn132 O142 1.910 1_565 S
O133 Zn130 1.915 1_554 S
O133 C144 1.226 . S
O134 Zn132 1.932 . S
O134 C144 1.307 . S
O135 Zn128 1.919 . S
O135 C146 1.253 1_545 S
O136 Zn130 1.979 . S
O136 C146 1.283 . S
O137 Zn130 1.969 . S
O137 C145 1.303 . S
O138 Zn131 1.938 . S
O138 C145 1.247 1_544 S
O139 Zn131 1.906 . S
O139 C147 1.304 . S
O140 Zn128 1.938 . S
O140 C148 1.279 1_556 S
O141 Zn132 1.977 1_545 S
O141 C147 1.272 . S
O142 Zn132 1.910 1_545 S
O142 C148 1.231 . S
C143 O127 1.225 . S
C143 O149 1.298 1_556 S
C144 O133 1.226 . S
C144 O134 1.307 . S
C145 O137 1.303 . S
C145 O138 1.247 1_566 S
C146 O135 1.253 1_565 S
C146 O136 1.283 . S
C147 O139 1.304 . S
C147 O141 1.272 . S
C148 O140 1.279 1_554 S
C148 O142 1.231 . S
O149 Zn131 1.953 . S
O149 C143 1.298 1_554 S
O150 Zn151 1.953 . S
O150 C166 1.225 . S
Zn151 O150 1.953 . S
Zn151 O152 1.949 . S
Zn151 O158 1.919 . S
Zn151 O163 1.924 . S
O152 Zn151 1.949 . S
O152 Zn153 1.923 . S
O152 Zn154 1.950 . S
O152 Zn155 1.945 . S
Zn153 O152 1.923 . S
Zn153 O156 1.933 . S
Zn153 O159 1.941 . S
Zn153 O160 1.965 . S
Zn154 O152 1.950 . S
Zn154 O161 1.938 . S
Zn154 O162 1.906 . S
Zn154 O172 1.953 . S
Zn155 O152 1.945 . S
Zn155 O157 1.932 . S
Zn155 O164 1.977 . S
Zn155 O165 1.910 . S
O156 Zn153 1.933 . S
O156 C167 1.226 . S
O157 Zn155 1.932 . S
O157 C167 1.307 . S
O158 Zn151 1.919 . S
O158 C169 1.253 . S
O159 Zn153 1.941 . S
O159 C169 1.283 . S
O160 Zn153 1.965 . S
O160 C168 1.303 . S
O161 Zn154 1.938 . S
O161 C168 1.247 . S
O162 Zn154 1.906 . S
O162 C170 1.304 . S
O163 Zn151 1.924 . S
O163 C171 1.311 . S
O164 Zn155 1.977 . S
O164 C170 1.272 . S
O165 Zn155 1.910 . S
O165 C171 1.231 . S
C166 O150 1.225 . S
C166 O172 1.298 . S
C167 O156 1.226 . S
C167 O157 1.307 . S
C168 O160 1.303 . S
C168 O161 1.247 . S
C169 O158 1.253 . S
C169 O159 1.283 . S
C170 O162 1.304 . S
C170 O164 1.272 . S
C171 O163 1.311 . S
C171 O165 1.231 . S
O172 Zn154 1.953 . S
O172 C166 1.298 . S
O173 Zn174 1.953 . S
O173 C189 1.225 . S
Zn174 O173 1.953 . S
Zn174 O175 1.949 . S
Zn174 O181 1.919 1_455 S
Zn174 O186 1.924 . S
O175 Zn174 1.949 . S
O175 Zn176 1.923 1_554 S
O175 Zn177 1.950 . S
O175 Zn178 1.945 . S
Zn176 O175 1.923 1_556 S
Zn176 O179 1.933 . S
Zn176 O182 1.941 1_455 S
Zn176 O183 1.965 . S
Zn177 O175 1.950 . S
Zn177 O184 1.938 . S
Zn177 O185 1.906 . S
Zn177 O195 1.953 . S
Zn178 O175 1.945 . S
Zn178 O180 1.932 1_554 S
Zn178 O187 1.977 . S
Zn178 O188 1.910 . S
O179 Zn176 1.933 . S
O179 C190 1.226 . S
O180 Zn178 1.932 1_556 S
O180 C190 1.307 . S
O181 Zn174 1.919 1_655 S
O181 C192 1.253 1_554 S
O182 Zn176 1.941 1_655 S
O182 C192 1.283 . S
O183 Zn176 1.965 . S
O183 C191 1.303 1_556 S
O184 Zn177 1.938 . S
O184 C191 1.247 . S
O185 Zn177 1.906 . S
O185 C193 1.304 . S
O186 Zn174 1.924 . S
O186 C194 1.311 . S
O187 Zn178 1.977 . S
O187 C193 1.272 . S
O188 Zn178 1.910 . S
O188 C194 1.231 . S
C189 O173 1.225 . S
C189 O195 1.298 . S
C190 O179 1.226 . S
C190 O180 1.307 . S
C191 O183 1.303 1_554 S
C191 O184 1.247 . S
C192 O181 1.253 1_556 S
C192 O182 1.283 . S
C193 O185 1.304 . S
C193 O187 1.272 . S
C194 O186 1.311 . S
C194 O188 1.231 . S
O195 Zn177 1.953 . S
O195 C189 1.298 . S
H196 C214 0.951 . S
H197 C216 0.951 . S
H198 C218 0.950 . S
H199 C219 0.950 . S
H200 C221 0.950 . S
H201 C224 0.950 . S
H202 C225 0.950 . S
H203 C227 0.950 1_565 S
H204 C228 0.950 . S
H205 C229 0.951 . S
H206 C231 0.951 . S
H207 C233 0.950 . S
H208 C234 0.950 . S
H209 C236 0.950 . S
H210 C239 0.950 . S
H211 C240 0.950 . S
H212 C242 0.950 . S
H213 C243 0.950 . S
C214 H196 0.951 . S
C214 C215 1.366 . S
C214 C216 1.388 . S
C215 C214 1.366 . S
C215 C219 1.385 . S
C216 H197 0.951 . S
C216 C214 1.388 . S
C216 C217 1.366 . S
C217 C216 1.366 . S
C217 C218 1.414 . S
C217 C220 1.499 . S
C218 H198 0.950 . S
C218 C217 1.414 . S
C218 C219 1.374 . S
C219 H199 0.950 . S
C219 C215 1.385 . S
C219 C218 1.374 . S
C220 C217 1.499 . S
C220 C221 1.373 . S
C220 C222 1.389 . S
C221 H200 0.950 . S
C221 C220 1.373 . S
C221 C237 1.377 . S
C222 C220 1.389 . S
C222 C223 1.524 . S
C222 C236 1.377 . S
C223 C222 1.524 . S
C223 C224 1.397 . S
C223 C228 1.363 . S
C224 H201 0.950 . S
C224 C223 1.397 . S
C224 C225 1.334 . S
C225 H202 0.950 . S
C225 C224 1.334 . S
C225 C226 1.287 . S
C226 C225 1.287 . S
C226 C227 1.524 . S
C226 H245 0.913 1_545 S
C227 H203 0.950 1_545 S
C227 C226 1.524 . S
C227 C228 1.415 . S
C228 H204 0.950 . S
C228 C223 1.363 . S
C228 C227 1.415 . S
C229 H205 0.951 . S
C229 C230 1.366 . S
C229 C231 1.388 . S
C230 C229 1.366 . S
C230 C234 1.385 . S
C231 H206 0.951 . S
C231 C229 1.388 . S
C231 C232 1.366 . S
C232 C231 1.366 . S
C232 C233 1.414 . S
C232 C235 1.499 . S
C233 H207 0.950 . S
C233 C232 1.414 . S
C233 C234 1.374 . S
C234 H208 0.950 . S
C234 C230 1.385 . S
C234 C233 1.374 . S
C235 C232 1.499 . S
C235 C236 1.373 . S
C235 C237 1.389 . S
C236 H209 0.950 . S
C236 C222 1.377 . S
C236 C235 1.373 . S
C237 C221 1.377 . S
C237 C235 1.389 . S
C237 C238 1.524 . S
C238 C237 1.524 . S
C238 C239 1.397 . S
C238 C243 1.363 . S
C239 H210 0.950 . S
C239 C238 1.397 . S
C239 C240 1.334 . S
C240 H211 0.950 . S
C240 C239 1.334 . S
C240 C241 1.287 . S
C241 C240 1.287 . S
C241 C242 1.524 . S
C241 H244 0.999 . S
C242 H212 0.950 . S
C242 C241 1.524 . S
C242 C243 1.415 . S
C243 H213 0.950 . S
C243 C238 1.363 . S
C243 C242 1.415 . S
H244 C241 0.999 . S
H245 C226 0.913 1_565 S
H246 C264 0.951 . S
H247 C266 0.951 . S
H248 C268 0.950 . S
H249 C269 0.950 . S
H250 C271 0.950 . S
H251 C274 0.950 . S
H252 C275 0.950 . S
H253 C277 0.950 . S
H254 C278 0.950 . S
H255 C279 0.951 . S
H256 C281 0.951 . S
H257 C283 0.950 . S
H258 C284 0.950 . S
H259 C286 0.950 . S
H260 C289 0.950 . S
H261 C290 0.950 . S
H262 C292 0.950 . S
H263 C293 0.950 . S
C264 H246 0.951 . S
C264 C265 1.366 . S
C264 C266 1.388 . S
C265 C264 1.366 . S
C265 C269 1.385 . S
C266 H247 0.951 . S
C266 C264 1.388 . S
C266 C267 1.366 . S
C267 C266 1.366 . S
C267 C268 1.414 . S
C267 C270 1.499 . S
C268 H248 0.950 . S
C268 C267 1.414 . S
C268 C269 1.374 . S
C269 H249 0.950 . S
C269 C265 1.385 . S
C269 C268 1.374 . S
C270 C267 1.499 . S
C270 C271 1.373 . S
C270 C272 1.389 . S
C271 H250 0.950 . S
C271 C270 1.373 . S
C271 C287 1.377 . S
C272 C270 1.389 . S
C272 C273 1.524 . S
C272 C286 1.377 . S
C273 C272 1.524 . S
C273 C274 1.397 . S
C273 C278 1.363 . S
C274 H251 0.950 . S
C274 C273 1.397 . S
C274 C275 1.334 . S
C275 H252 0.950 . S
C275 C274 1.334 . S
C275 C276 1.287 . S
C276 C275 1.287 . S
C276 C277 1.524 . S
C276 H295 0.913 . S
C277 H253 0.950 . S
C277 C276 1.524 . S
C277 C278 1.415 . S
C278 H254 0.950 . S
C278 C273 1.363 . S
C278 C277 1.415 . S
C279 H255 0.951 . S
C279 C280 1.366 . S
C279 C281 1.388 . S
C280 C279 1.366 . S
C280 C284 1.385 . S
C281 H256 0.951 . S
C281 C279 1.388 . S
C281 C282 1.366 . S
C282 C281 1.366 . S
C282 C283 1.414 . S
C282 C285 1.499 . S
C283 H257 0.950 . S
C283 C282 1.414 . S
C283 C284 1.374 . S
C284 H258 0.950 . S
C284 C280 1.385 . S
C284 C283 1.374 . S
C285 C282 1.499 . S
C285 C286 1.373 . S
C285 C287 1.389 . S
C286 H259 0.950 . S
C286 C272 1.377 . S
C286 C285 1.373 . S
C287 C271 1.377 . S
C287 C285 1.389 . S
C287 C288 1.524 . S
C288 C287 1.524 . S
C288 C289 1.397 . S
C288 C293 1.363 . S
C289 H260 0.950 . S
C289 C288 1.397 . S
C289 C290 1.334 1_565 S
C290 H261 0.950 . S
C290 C289 1.334 1_545 S
C290 C291 1.295 . S
C291 C290 1.295 . S
C291 C292 1.491 1_545 S
C291 H294 1.024 . S
C292 H262 0.950 . S
C292 C291 1.491 1_565 S
C292 C293 1.415 . S
C293 H263 0.950 . S
C293 C288 1.363 . S
C293 C292 1.415 . S
H294 C291 1.024 . S
H295 C276 0.913 . S
H296 C314 0.951 . S
H297 C316 0.951 . S
H298 C318 0.950 . S
H299 C319 0.950 . S
H300 C321 0.950 . S
H301 C324 0.950 . S
H302 C325 0.950 . S
H303 C327 0.950 . S
H304 C328 0.950 . S
H305 C329 0.951 . S
H306 C331 0.951 . S
H307 C333 0.950 . S
H308 C334 0.950 . S
H309 C336 0.950 . S
H310 C339 0.950 . S
H311 C340 0.950 . S
H312 C342 0.950 . S
H313 C343 0.950 . S
C314 H296 0.951 . S
C314 C315 1.366 . S
C314 C316 1.388 . S
C315 C314 1.366 . S
C315 C319 1.385 . S
C316 H297 0.951 . S
C316 C314 1.388 . S
C316 C317 1.366 . S
C317 C316 1.366 . S
C317 C318 1.414 . S
C317 C320 1.499 . S
C318 H298 0.950 . S
C318 C317 1.414 . S
C318 C319 1.374 . S
C319 H299 0.950 . S
C319 C315 1.385 . S
C319 C318 1.374 . S
C320 C317 1.499 . S
C320 C321 1.373 . S
C320 C322 1.389 . S
C321 H300 0.950 . S
C321 C320 1.373 . S
C321 C337 1.377 . S
C322 C320 1.389 . S
C322 C323 1.524 . S
C322 C336 1.377 . S
C323 C322 1.524 . S
C323 C324 1.397 . S
C323 C328 1.363 . S
C324 H301 0.950 . S
C324 C323 1.397 . S
C324 C325 1.334 . S
C325 H302 0.950 . S
C325 C324 1.334 . S
C325 C326 1.287 . S
C326 C325 1.287 . S
C326 C327 1.524 . S
C326 H345 0.913 . S
C327 H303 0.950 . S
C327 C326 1.524 . S
C327 C328 1.415 . S
C328 H304 0.950 . S
C328 C323 1.363 . S
C328 C327 1.415 . S
C329 H305 0.951 . S
C329 C330 1.366 . S
C329 C331 1.388 . S
C330 C329 1.366 . S
C330 C334 1.385 . S
C331 H306 0.951 . S
C331 C329 1.388 . S
C331 C332 1.366 . S
C332 C331 1.366 . S
C332 C333 1.414 . S
C332 C335 1.499 . S
C333 H307 0.950 . S
C333 C332 1.414 . S
C333 C334 1.374 . S
C334 H308 0.950 . S
C334 C330 1.385 . S
C334 C333 1.374 . S
C335 C332 1.499 . S
C335 C336 1.373 . S
C335 C337 1.389 . S
C336 H309 0.950 . S
C336 C322 1.377 . S
C336 C335 1.373 . S
C337 C321 1.377 . S
C337 C335 1.389 . S
C337 C338 1.524 . S
C338 C337 1.524 . S
C338 C339 1.397 . S
C338 C343 1.363 . S
C339 H310 0.950 . S
C339 C338 1.397 . S
C339 C340 1.334 . S
C340 H311 0.950 . S
C340 C339 1.334 . S
C340 C341 1.287 . S
C341 C340 1.287 . S
C341 C342 1.524 . S
C341 H344 0.999 . S
C342 H312 0.950 . S
C342 C341 1.524 . S
C342 C343 1.415 . S
C343 H313 0.950 . S
C343 C338 1.363 . S
C343 C342 1.415 . S
H344 C341 0.999 . S
H345 C326 0.913 . S
H346 C364 0.951 . S
H347 C366 0.952 1_455 S
H348 C368 0.950 . S
H349 C369 0.950 . S
H350 C371 0.950 . S
H351 C374 0.950 1_655 S
H352 C375 0.950 . S
H353 C377 0.950 . S
H354 C378 0.950 . S
H355 C379 0.951 . S
H356 C381 0.951 . S
H357 C383 0.950 . S
H358 C384 0.950 . S
H359 C386 0.950 . S
H360 C389 0.950 . S
H361 C390 0.950 . S
H362 C392 0.950 . S
H363 C393 0.950 . S
C364 H346 0.951 . S
C364 C365 1.366 . S
C364 C366 1.388 . S
C365 C364 1.366 . S
C365 C369 1.385 . S
C366 H347 0.952 1_655 S
C366 C364 1.388 . S
C366 C367 1.366 . S
C367 C366 1.366 . S
C367 C368 1.414 . S
C367 C370 1.499 . S
C368 H348 0.950 . S
C368 C367 1.414 . S
C368 C369 1.374 . S
C369 H349 0.950 . S
C369 C365 1.385 . S
C369 C368 1.374 . S
C370 C367 1.499 . S
C370 C371 1.373 . S
C370 C372 1.389 . S
C371 H350 0.950 . S
C371 C370 1.373 . S
C371 C387 1.377 . S
C372 C370 1.389 . S
C372 C373 1.524 1_655 S
C372 C386 1.377 1_655 S
C373 C372 1.524 1_455 S
C373 C374 1.397 . S
C373 C378 1.363 . S
C374 H351 0.950 1_455 S
C374 C373 1.397 . S
C374 C375 1.334 . S
C375 H352 0.950 . S
C375 C374 1.334 . S
C375 C376 1.287 . S
C376 C375 1.287 . S
C376 C377 1.524 . S
C376 H395 0.913 . S
C377 H353 0.950 . S
C377 C376 1.524 . S
C377 C378 1.415 . S
C378 H354 0.950 . S
C378 C373 1.363 . S
C378 C377 1.415 . S
C379 H355 0.951 . S
C379 C380 1.366 1_655 S
C379 C381 1.388 . S
C380 C379 1.366 1_455 S
C380 C384 1.385 . S
C381 H356 0.951 . S
C381 C379 1.388 . S
C381 C382 1.366 . S
C382 C381 1.366 . S
C382 C383 1.414 1_655 S
C382 C385 1.499 . S
C383 H357 0.950 . S
C383 C382 1.414 1_455 S
C383 C384 1.374 . S
C384 H358 0.950 . S
C384 C380 1.385 . S
C384 C383 1.374 . S
C385 C382 1.499 . S
C385 C386 1.373 1_655 S
C385 C387 1.389 . S
C386 H359 0.950 . S
C386 C372 1.377 1_455 S
C386 C385 1.373 1_455 S
C387 C371 1.377 . S
C387 C385 1.389 . S
C387 C388 1.524 . S
C388 C387 1.524 . S
C388 C389 1.397 . S
C388 C393 1.363 . S
C389 H360 0.950 . S
C389 C388 1.397 . S
C389 C390 1.334 . S
C390 H361 0.950 . S
C390 C389 1.334 . S
C390 C391 1.287 . S
C391 C390 1.287 . S
C391 C392 1.524 . S
C391 H394 0.999 . S
C392 H362 0.950 . S
C392 C391 1.524 . S
C392 C393 1.415 . S
C393 H363 0.950 . S
C393 C388 1.363 . S
C393 C392 1.415 . S
H394 C391 0.999 . S
H395 C376 0.913 . S
H396 C414 0.951 . S
H397 C416 0.951 . S
H398 C418 0.950 . S
H399 C419 0.950 . S
H400 C421 0.950 . S
H401 C424 0.950 . S
H402 C425 0.950 . S
H403 C427 0.950 . S
H404 C428 0.950 . S
H405 C429 0.951 . S
H406 C431 0.951 . S
H407 C433 0.950 . S
H408 C434 0.950 . S
H409 C436 0.950 . S
H410 C439 0.950 . S
H411 C440 0.950 . S
H412 C442 0.950 . S
H413 C443 0.950 . S
C414 H396 0.951 . S
C414 C415 1.366 . S
C414 C416 1.388 . S
C415 C414 1.366 . S
C415 C419 1.385 . S
C416 H397 0.951 . S
C416 C414 1.388 . S
C416 C417 1.366 . S
C417 C416 1.366 . S
C417 C418 1.414 . S
C417 C420 1.499 . S
C418 H398 0.950 . S
C418 C417 1.414 . S
C418 C419 1.374 . S
C419 H399 0.950 . S
C419 C415 1.385 . S
C419 C418 1.374 . S
C420 C417 1.499 . S
C420 C421 1.373 . S
C420 C422 1.389 . S
C421 H400 0.950 . S
C421 C420 1.373 . S
C421 C437 1.377 . S
C422 C420 1.389 . S
C422 C423 1.524 . S
C422 C436 1.377 . S
C423 C422 1.524 . S
C423 C424 1.397 . S
C423 C428 1.363 . S
C424 H401 0.950 . S
C424 C423 1.397 . S
C424 C425 1.334 . S
C425 H402 0.950 . S
C425 C424 1.334 . S
C425 C426 1.287 . S
C426 C425 1.287 . S
C426 C427 1.524 . S
C426 H445 0.913 . S
C427 H403 0.950 . S
C427 C426 1.524 . S
C427 C428 1.415 . S
C428 H404 0.950 . S
C428 C423 1.363 . S
C428 C427 1.415 . S
C429 H405 0.951 . S
C429 C430 1.366 . S
C429 C431 1.388 . S
C430 C429 1.366 . S
C430 C434 1.385 . S
C431 H406 0.951 . S
C431 C429 1.388 . S
C431 C432 1.366 . S
C432 C431 1.366 . S
C432 C433 1.414 . S
C432 C435 1.499 . S
C433 H407 0.950 . S
C433 C432 1.414 . S
C433 C434 1.374 . S
C434 H408 0.950 . S
C434 C430 1.385 . S
C434 C433 1.374 . S
C435 C432 1.499 . S
C435 C436 1.373 . S
C435 C437 1.389 . S
C436 H409 0.950 . S
C436 C422 1.377 . S
C436 C435 1.373 . S
C437 C421 1.377 . S
C437 C435 1.389 . S
C437 C438 1.524 . S
C438 C437 1.524 . S
C438 C439 1.397 . S
C438 C443 1.363 . S
C439 H410 0.950 . S
C439 C438 1.397 . S
C439 C440 1.334 1_545 S
C440 H411 0.950 . S
C440 C439 1.334 1_565 S
C440 C441 1.287 . S
C441 C440 1.287 . S
C441 C442 1.524 . S
C441 H444 0.999 . S
C442 H412 0.950 . S
C442 C441 1.524 . S
C442 C443 1.415 1_565 S
C443 H413 0.950 . S
C443 C438 1.363 . S
C443 C442 1.415 1_545 S
H444 C441 0.999 . S
H445 C426 0.913 . S
H446 C464 0.951 . S
H447 C466 0.951 . S
H448 C468 0.950 . S
H449 C469 0.950 . S
H450 C471 0.950 . S
H451 C474 0.950 . S
H452 C475 0.950 . S
H453 C477 0.950 . S
H454 C478 0.950 . S
H455 C479 0.951 . S
H456 C481 0.951 . S
H457 C483 0.950 . S
H458 C484 0.950 1_545 S
H459 C486 0.950 . S
H460 C489 0.950 . S
H461 C490 0.950 . S
H462 C492 0.950 . S
H463 C493 0.950 . S
C464 H446 0.951 . S
C464 C465 1.366 . S
C464 C466 1.388 . S
C465 C464 1.366 . S
C465 C469 1.385 . S
C466 H447 0.951 . S
C466 C464 1.388 . S
C466 C467 1.366 . S
C467 C466 1.366 . S
C467 C468 1.414 . S
C467 C470 1.499 . S
C468 H448 0.950 . S
C468 C467 1.414 . S
C468 C469 1.374 . S
C469 H449 0.950 . S
C469 C465 1.385 . S
C469 C468 1.374 . S
C470 C467 1.499 . S
C470 C471 1.373 . S
C470 C472 1.389 . S
C471 H450 0.950 . S
C471 C470 1.373 . S
C471 C487 1.377 . S
C472 C470 1.389 . S
C472 C473 1.524 . S
C472 C486 1.377 . S
C473 C472 1.524 . S
C473 C474 1.397 . S
C473 C478 1.363 . S
C474 H451 0.950 . S
C474 C473 1.397 . S
C474 C475 1.334 . S
C475 H452 0.950 . S
C475 C474 1.334 . S
C475 C476 1.287 . S
C476 C475 1.287 . S
C476 C477 1.524 . S
C476 H495 0.913 . S
C477 H453 0.950 . S
C477 C476 1.524 . S
C477 C478 1.415 . S
C478 H454 0.950 . S
C478 C473 1.363 . S
C478 C477 1.415 . S
C479 H455 0.951 . S
C479 C480 1.366 . S
C479 C481 1.388 . S
C480 C479 1.366 . S
C480 C484 1.385 . S
C481 H456 0.951 . S
C481 C479 1.388 . S
C481 C482 1.366 . S
C482 C481 1.366 . S
C482 C483 1.414 . S
C482 C485 1.499 . S
C483 H457 0.950 . S
C483 C482 1.414 . S
C483 C484 1.374 . S
C484 H458 0.950 1_565 S
C484 C480 1.385 . S
C484 C483 1.374 . S
C485 C482 1.499 . S
C485 C486 1.373 . S
C485 C487 1.389 . S
C486 H459 0.950 . S
C486 C472 1.377 . S
C486 C485 1.373 . S
C487 C471 1.377 . S
C487 C485 1.389 . S
C487 C488 1.524 . S
C488 C487 1.524 . S
C488 C489 1.397 . S
C488 C493 1.363 . S
C489 H460 0.950 . S
C489 C488 1.397 . S
C489 C490 1.334 . S
C490 H461 0.950 . S
C490 C489 1.334 . S
C490 C491 1.287 . S
C491 C490 1.287 . S
C491 C492 1.524 . S
C491 H494 0.999 . S
C492 H462 0.950 . S
C492 C491 1.524 . S
C492 C493 1.415 . S
C493 H463 0.950 . S
C493 C488 1.363 . S
C493 C492 1.415 . S
H494 C491 0.999 . S
H495 C476 0.913 . S
H496 C514 0.951 . S
H497 C516 0.951 . S
H498 C518 0.950 . S
H499 C519 0.950 . S
H500 C521 0.950 . S
H501 C524 0.950 . S
H502 C525 0.950 . S
H503 C527 0.950 . S
H504 C528 0.950 . S
H505 C529 0.951 . S
H506 C531 0.951 . S
H507 C533 0.950 1_554 S
H508 C534 0.950 1_554 S
H509 C536 0.950 . S
H510 C539 0.950 . S
H511 C540 0.950 . S
H512 C542 0.950 . S
H513 C543 0.950 . S
C514 H496 0.951 . S
C514 C515 1.366 . S
C514 C516 1.388 . S
C515 C514 1.366 . S
C515 C519 1.385 . S
C516 H497 0.951 . S
C516 C514 1.388 . S
C516 C517 1.366 . S
C517 C516 1.366 . S
C517 C518 1.414 . S
C517 C520 1.499 . S
C518 H498 0.950 . S
C518 C517 1.414 . S
C518 C519 1.374 . S
C519 H499 0.950 . S
C519 C515 1.385 . S
C519 C518 1.374 . S
C520 C517 1.499 . S
C520 C521 1.373 . S
C520 C522 1.389 . S
C521 H500 0.950 . S
C521 C520 1.373 . S
C521 C537 1.377 . S
C522 C520 1.389 . S
C522 C523 1.524 . S
C522 C536 1.377 . S
C523 C522 1.524 . S
C523 C524 1.397 . S
C523 C528 1.363 1_556 S
C524 H501 0.950 . S
C524 C523 1.397 . S
C524 C525 1.334 . S
C525 H502 0.950 . S
C525 C524 1.334 . S
C525 C526 1.287 1_556 S
C526 C525 1.287 1_554 S
C526 C527 1.524 . S
C526 H545 0.913 . S
C527 H503 0.950 . S
C527 C526 1.524 . S
C527 C528 1.415 . S
C528 H504 0.950 . S
C528 C523 1.363 1_554 S
C528 C527 1.415 . S
C529 H505 0.951 . S
C529 C530 1.366 . S
C529 C531 1.388 . S
C530 C529 1.366 . S
C530 C534 1.385 . S
C531 H506 0.951 . S
C531 C529 1.388 . S
C531 C532 1.366 . S
C532 C531 1.366 . S
C532 C533 1.414 . S
C532 C535 1.499 . S
C533 H507 0.950 1_556 S
C533 C532 1.414 . S
C533 C534 1.374 . S
C534 H508 0.950 1_556 S
C534 C530 1.385 . S
C534 C533 1.374 . S
C535 C532 1.499 . S
C535 C536 1.373 . S
C535 C537 1.389 . S
C536 H509 0.950 . S
C536 C522 1.377 . S
C536 C535 1.373 . S
C537 C521 1.377 . S
C537 C535 1.389 . S
C537 C538 1.524 . S
C538 C537 1.524 . S
C538 C539 1.397 . S
C538 C543 1.363 . S
C539 H510 0.950 . S
C539 C538 1.397 . S
C539 C540 1.334 . S
C540 H511 0.950 . S
C540 C539 1.334 . S
C540 C541 1.287 . S
C541 C540 1.287 . S
C541 C542 1.524 . S
C541 H544 0.999 . S
C542 H512 0.950 . S
C542 C541 1.524 . S
C542 C543 1.415 . S
C543 H513 0.950 . S
C543 C538 1.363 . S
C543 C542 1.415 . S
H544 C541 0.999 . S
H545 C526 0.913 . S
H546 C564 0.951 . S
H547 C566 0.951 . S
H548 C568 0.950 . S
H549 C569 0.950 . S
H550 C571 0.950 . S
H551 C574 0.950 . S
H552 C575 0.950 . S
H553 C577 0.950 . S
H554 C578 0.950 . S
H555 C579 0.951 . S
H556 C581 0.951 . S
H557 C583 0.950 . S
H558 C584 0.950 . S
H559 C586 0.950 . S
H560 C589 0.950 . S
H561 C590 0.950 . S
H562 C592 0.950 . S
H563 C593 0.950 . S
C564 H546 0.951 . S
C564 C565 1.366 . S
C564 C566 1.388 . S
C565 C564 1.366 . S
C565 C569 1.385 . S
C566 H547 0.951 . S
C566 C564 1.388 . S
C566 C567 1.366 . S
C567 C566 1.366 . S
C567 C568 1.414 . S
C567 C570 1.499 . S
C568 H548 0.950 . S
C568 C567 1.414 . S
C568 C569 1.374 . S
C569 H549 0.950 . S
C569 C565 1.385 . S
C569 C568 1.374 . S
C570 C567 1.499 . S
C570 C571 1.373 . S
C570 C572 1.389 . S
C571 H550 0.950 . S
C571 C570 1.373 . S
C571 C587 1.377 . S
C572 C570 1.389 . S
C572 C573 1.524 . S
C572 C586 1.377 . S
C573 C572 1.524 . S
C573 C574 1.397 . S
C573 C578 1.363 . S
C574 H551 0.950 . S
C574 C573 1.397 . S
C574 C575 1.334 . S
C575 H552 0.950 . S
C575 C574 1.334 . S
C575 C576 1.287 . S
C576 C575 1.287 . S
C576 C577 1.524 . S
C576 H595 0.913 . S
C577 H553 0.950 . S
C577 C576 1.524 . S
C577 C578 1.415 . S
C578 H554 0.950 . S
C578 C573 1.363 . S
C578 C577 1.415 . S
C579 H555 0.951 . S
C579 C580 1.366 . S
C579 C581 1.388 . S
C580 C579 1.366 . S
C580 C584 1.385 . S
C581 H556 0.951 . S
C581 C579 1.388 . S
C581 C582 1.366 . S
C582 C581 1.366 . S
C582 C583 1.414 . S
C582 C585 1.499 . S
C583 H557 0.950 . S
C583 C582 1.414 . S
C583 C584 1.374 . S
C584 H558 0.950 . S
C584 C580 1.385 . S
C584 C583 1.374 . S
C585 C582 1.499 . S
C585 C586 1.373 . S
C585 C587 1.389 . S
C586 H559 0.950 . S
C586 C572 1.377 . S
C586 C585 1.373 . S
C587 C571 1.377 . S
C587 C585 1.389 . S
C587 C588 1.524 . S
C588 C587 1.524 . S
C588 C589 1.397 . S
C588 C593 1.363 . S
C589 H560 0.950 . S
C589 C588 1.397 . S
C589 C590 1.334 . S
C590 H561 0.950 . S
C590 C589 1.334 . S
C590 C591 1.287 . S
C591 C590 1.287 . S
C591 C592 1.524 . S
C591 H594 0.999 . S
C592 H562 0.950 . S
C592 C591 1.524 . S
C592 C593 1.415 . S
C593 H563 0.950 . S
C593 C588 1.363 . S
C593 C592 1.415 . S
H594 C591 0.999 . S
H595 C576 0.913 . S
H596 C614 0.951 . S
H597 C616 0.951 . S
H598 C618 0.950 . S
H599 C619 0.950 . S
H600 C621 0.950 . S
H601 C624 0.950 . S
H602 C625 0.950 . S
H603 C627 0.950 . S
H604 C628 0.950 . S
H605 C629 0.951 . S
H606 C631 0.951 . S
H607 C633 0.950 . S
H608 C634 0.950 . S
H609 C636 0.950 . S
H610 C639 0.950 . S
H611 C640 0.950 . S
H612 C642 0.950 . S
H613 C643 0.950 . S
C614 H596 0.951 . S
C614 C615 1.366 . S
C614 C616 1.388 . S
C615 C614 1.366 . S
C615 C619 1.385 . S
C616 H597 0.951 . S
C616 C614 1.388 . S
C616 C617 1.366 . S
C617 C616 1.366 . S
C617 C618 1.414 . S
C617 C620 1.499 . S
C618 H598 0.950 . S
C618 C617 1.414 . S
C618 C619 1.374 . S
C619 H599 0.950 . S
C619 C615 1.385 . S
C619 C618 1.374 . S
C620 C617 1.499 . S
C620 C621 1.373 . S
C620 C622 1.389 . S
C621 H600 0.950 . S
C621 C620 1.373 . S
C621 C637 1.377 . S
C622 C620 1.389 . S
C622 C623 1.524 . S
C622 C636 1.377 . S
C623 C622 1.524 . S
C623 C624 1.397 . S
C623 C628 1.363 . S
C624 H601 0.950 . S
C624 C623 1.397 . S
C624 C625 1.334 . S
C625 H602 0.950 . S
C625 C624 1.334 . S
C625 C626 1.287 . S
C626 C625 1.287 . S
C626 C627 1.524 . S
C626 H645 0.913 . S
C627 H603 0.950 . S
C627 C626 1.524 . S
C627 C628 1.415 . S
C628 H604 0.950 . S
C628 C623 1.363 . S
C628 C627 1.415 . S
C629 H605 0.951 . S
C629 C630 1.366 . S
C629 C631 1.388 . S
C630 C629 1.366 . S
C630 C634 1.385 . S
C631 H606 0.951 . S
C631 C629 1.388 . S
C631 C632 1.366 . S
C632 C631 1.366 . S
C632 C633 1.414 . S
C632 C635 1.499 . S
C633 H607 0.950 . S
C633 C632 1.414 . S
C633 C634 1.374 . S
C634 H608 0.950 . S
C634 C630 1.385 . S
C634 C633 1.374 . S
C635 C632 1.499 . S
C635 C636 1.373 . S
C635 C637 1.389 . S
C636 H609 0.950 . S
C636 C622 1.377 . S
C636 C635 1.373 . S
C637 C621 1.377 . S
C637 C635 1.389 . S
C637 C638 1.524 . S
C638 C637 1.524 . S
C638 C639 1.397 . S
C638 C643 1.363 . S
C639 H610 0.950 . S
C639 C638 1.397 . S
C639 C640 1.334 . S
C640 H611 0.950 . S
C640 C639 1.334 . S
C640 C641 1.287 . S
C641 C640 1.287 . S
C641 C642 1.524 . S
C641 H644 0.999 . S
C642 H612 0.950 . S
C642 C641 1.524 . S
C642 C643 1.415 . S
C643 H613 0.950 . S
C643 C638 1.363 . S
C643 C642 1.415 . S
H644 C641 0.999 . S
H645 C626 0.913 . S
H646 C664 0.951 . S
H647 C666 0.951 . S
H648 C668 0.950 . S
H649 C669 0.950 . S
H650 C671 0.950 . S
H651 C674 0.950 . S
H652 C675 0.950 . S
H653 C677 0.950 . S
H654 C678 0.950 1_554 S
H655 C679 0.951 . S
H656 C681 0.951 . S
H657 C683 0.950 1_554 S
H658 C684 0.950 1_554 S
H659 C686 0.950 . S
H660 C689 0.950 . S
H661 C690 0.950 . S
H662 C692 0.950 . S
H663 C693 0.950 . S
C664 H646 0.951 . S
C664 C665 1.366 . S
C664 C666 1.388 . S
C665 C664 1.366 . S
C665 C669 1.385 . S
C666 H647 0.951 . S
C666 C664 1.388 . S
C666 C667 1.366 . S
C667 C666 1.366 . S
C667 C668 1.414 . S
C667 C670 1.499 . S
C668 H648 0.950 . S
C668 C667 1.414 . S
C668 C669 1.374 . S
C669 H649 0.950 . S
C669 C665 1.385 . S
C669 C668 1.374 . S
C670 C667 1.499 . S
C670 C671 1.373 . S
C670 C672 1.389 . S
C671 H650 0.950 . S
C671 C670 1.373 . S
C671 C687 1.377 . S
C672 C670 1.389 . S
C672 C673 1.524 . S
C672 C686 1.377 . S
C673 C672 1.524 . S
C673 C674 1.397 . S
C673 C678 1.363 . S
C674 H651 0.950 . S
C674 C673 1.397 . S
C674 C675 1.334 . S
C675 H652 0.950 . S
C675 C674 1.334 . S
C675 C676 1.287 . S
C676 C675 1.287 . S
C676 C677 1.524 1_556 S
C676 H695 0.913 . S
C677 H653 0.950 . S
C677 C676 1.524 1_554 S
C677 C678 1.415 1_554 S
C678 H654 0.950 1_556 S
C678 C673 1.363 . S
C678 C677 1.415 1_556 S
C679 H655 0.951 . S
C679 C680 1.366 . S
C679 C681 1.388 . S
C680 C679 1.366 . S
C680 C684 1.385 . S
C681 H656 0.951 . S
C681 C679 1.388 . S
C681 C682 1.366 . S
C682 C681 1.366 . S
C682 C683 1.414 . S
C682 C685 1.499 . S
C683 H657 0.950 1_556 S
C683 C682 1.414 . S
C683 C684 1.374 . S
C684 H658 0.950 1_556 S
C684 C680 1.385 . S
C684 C683 1.374 . S
C685 C682 1.499 . S
C685 C686 1.373 . S
C685 C687 1.389 . S
C686 H659 0.950 . S
C686 C672 1.377 . S
C686 C685 1.373 . S
C687 C671 1.377 . S
C687 C685 1.389 . S
C687 C688 1.524 . S
C688 C687 1.524 . S
C688 C689 1.397 . S
C688 C693 1.363 . S
C689 H660 0.950 . S
C689 C688 1.397 . S
C689 C690 1.334 . S
C690 H661 0.950 . S
C690 C689 1.334 . S
C690 C691 1.287 . S
C691 C690 1.287 . S
C691 C692 1.524 . S
C691 H694 0.999 . S
C692 H662 0.950 . S
C692 C691 1.524 . S
C692 C693 1.415 . S
C693 H663 0.950 . S
C693 C688 1.363 . S
C693 C692 1.415 . S
H694 C691 0.999 . S
H695 C676 0.913 . S
H696 C714 0.951 . S
H697 C716 0.951 . S
H698 C718 0.950 . S
H699 C719 0.950 . S
H700 C721 0.950 . S
H701 C724 0.950 . S
H702 C725 0.950 . S
H703 C727 0.950 . S
H704 C728 0.950 . S
H705 C729 0.931 1_455 S
H706 C731 0.951 1_455 S
H707 C733 0.950 . S
H708 C734 0.950 . S
H709 C736 0.950 . S
H710 C739 0.950 . S
H711 C740 0.950 . S
H712 C742 0.950 . S
H713 C743 0.950 . S
C714 H696 0.951 . S
C714 C715 1.366 . S
C714 C716 1.388 . S
C715 C714 1.366 . S
C715 C719 1.385 . S
C716 H697 0.951 . S
C716 C714 1.388 . S
C716 C717 1.366 . S
C717 C716 1.366 . S
C717 C718 1.414 . S
C717 C720 1.499 . S
C718 H698 0.950 . S
C718 C717 1.414 . S
C718 C719 1.374 . S
C719 H699 0.950 . S
C719 C715 1.385 . S
C719 C718 1.374 . S
C720 C717 1.499 . S
C720 C721 1.373 . S
C720 C722 1.389 . S
C721 H700 0.950 . S
C721 C720 1.373 . S
C721 C737 1.377 . S
C722 C720 1.389 . S
C722 C723 1.524 . S
C722 C736 1.377 . S
C723 C722 1.524 . S
C723 C724 1.397 . S
C723 C728 1.363 . S
C724 H701 0.950 . S
C724 C723 1.397 . S
C724 C725 1.334 . S
C725 H702 0.950 . S
C725 C724 1.334 . S
C725 C726 1.287 . S
C726 C725 1.287 . S
C726 C727 1.524 . S
C726 H745 0.913 . S
C727 H703 0.950 . S
C727 C726 1.524 . S
C727 C728 1.415 . S
C728 H704 0.950 . S
C728 C723 1.363 . S
C728 C727 1.415 . S
C729 H705 0.931 1_655 S
C729 C730 1.383 . S
C729 C731 1.391 . S
C730 C729 1.383 . S
C730 C734 1.385 . S
C731 H706 0.951 1_655 S
C731 C729 1.391 . S
C731 C732 1.366 . S
C732 C731 1.366 . S
C732 C733 1.414 . S
C732 C735 1.499 . S
C733 H707 0.950 . S
C733 C732 1.414 . S
C733 C734 1.374 . S
C734 H708 0.950 . S
C734 C730 1.385 . S
C734 C733 1.374 . S
C735 C732 1.499 . S
C735 C736 1.373 . S
C735 C737 1.389 . S
C736 H709 0.950 . S
C736 C722 1.377 . S
C736 C735 1.373 . S
C737 C721 1.377 . S
C737 C735 1.389 . S
C737 C738 1.524 1_655 S
C738 C737 1.524 1_455 S
C738 C739 1.397 . S
C738 C743 1.363 . S
C739 H710 0.950 . S
C739 C738 1.397 . S
C739 C740 1.334 . S
C740 H711 0.950 . S
C740 C739 1.334 . S
C740 C741 1.287 . S
C741 C740 1.287 . S
C741 C742 1.524 . S
C741 H744 0.999 . S
C742 H712 0.950 . S
C742 C741 1.524 . S
C742 C743 1.415 . S
C743 H713 0.950 . S
C743 C738 1.363 . S
C743 C742 1.415 . S
H744 C741 0.999 . S
H745 C726 0.913 . S
H746 C764 0.951 . S
H747 C766 0.951 . S
H748 C768 0.950 . S
H749 C769 0.950 . S
H750 C771 0.950 . S
H751 C774 0.950 . S
H752 C775 0.950 . S
H753 C777 0.950 . S
H754 C778 0.950 . S
H755 C779 0.951 . S
H756 C781 0.951 . S
H757 C783 0.950 . S
H758 C784 0.950 . S
H759 C786 0.950 . S
H760 C789 0.950 . S
H761 C790 0.950 . S
H762 C792 0.950 . S
H763 C793 0.950 . S
C764 H746 0.951 . S
C764 C765 1.366 . S
C764 C766 1.388 . S
C765 C764 1.366 . S
C765 C769 1.385 . S
C766 H747 0.951 . S
C766 C764 1.388 . S
C766 C767 1.366 . S
C767 C766 1.366 . S
C767 C768 1.414 . S
C767 C770 1.499 . S
C768 H748 0.950 . S
C768 C767 1.414 . S
C768 C769 1.374 . S
C769 H749 0.950 . S
C769 C765 1.385 . S
C769 C768 1.374 . S
C770 C767 1.499 . S
C770 C771 1.373 . S
C770 C772 1.389 . S
C771 H750 0.950 . S
C771 C770 1.373 . S
C771 C787 1.377 . S
C772 C770 1.389 . S
C772 C773 1.524 . S
C772 C786 1.377 . S
C773 C772 1.524 . S
C773 C774 1.397 . S
C773 C778 1.363 . S
C774 H751 0.950 . S
C774 C773 1.397 . S
C774 C775 1.334 . S
C775 H752 0.950 . S
C775 C774 1.334 . S
C775 C776 1.287 . S
C776 C775 1.287 . S
C776 C777 1.524 . S
C776 H795 0.913 . S
C777 H753 0.950 . S
C777 C776 1.524 . S
C777 C778 1.415 . S
C778 H754 0.950 . S
C778 C773 1.363 . S
C778 C777 1.415 . S
C779 H755 0.951 . S
C779 C780 1.366 . S
C779 C781 1.388 . S
C780 C779 1.366 . S
C780 C784 1.385 . S
C781 H756 0.951 . S
C781 C779 1.388 . S
C781 C782 1.366 . S
C782 C781 1.366 . S
C782 C783 1.414 . S
C782 C785 1.499 . S
C783 H757 0.950 . S
C783 C782 1.414 . S
C783 C784 1.374 . S
C784 H758 0.950 . S
C784 C780 1.385 . S
C784 C783 1.374 . S
C785 C782 1.499 . S
C785 C786 1.373 . S
C785 C787 1.389 . S
C786 H759 0.950 . S
C786 C772 1.377 . S
C786 C785 1.373 . S
C787 C771 1.377 . S
C787 C785 1.389 . S
C787 C788 1.524 . S
C788 C787 1.524 . S
C788 C789 1.397 . S
C788 C793 1.363 . S
C789 H760 0.950 . S
C789 C788 1.397 . S
C789 C790 1.334 . S
C790 H761 0.950 . S
C790 C789 1.334 . S
C790 C791 1.287 . S
C791 C790 1.287 . S
C791 C792 1.524 . S
C791 H794 0.999 . S
C792 H762 0.950 . S
C792 C791 1.524 . S
C792 C793 1.415 . S
C793 H763 0.950 . S
C793 C788 1.363 . S
C793 C792 1.415 . S
H794 C791 0.999 . S
H795 C776 0.913 . S
H796 C814 0.951 . S
H797 C816 0.951 . S
H798 C818 0.950 . S
H799 C819 0.950 . S
H800 C821 0.950 1_545 S
H801 C824 0.950 1_455 S
H802 C825 0.939 1_455 S
H803 C827 0.950 . S
H804 C828 0.950 . S
H805 C829 0.951 . S
H806 C831 0.951 . S
H807 C833 0.950 . S
H808 C834 0.950 . S
H809 C836 0.950 . S
H810 C839 0.950 . S
H811 C840 0.950 . S
H812 C842 0.950 1_455 S
H813 C843 0.950 1_455 S
C814 H796 0.951 . S
C814 C815 1.366 . S
C814 C816 1.388 . S
C815 C814 1.366 . S
C815 C819 1.385 . S
C816 H797 0.951 . S
C816 C814 1.388 . S
C816 C817 1.366 . S
C817 C816 1.366 . S
C817 C818 1.414 . S
C817 C820 1.499 . S
C818 H798 0.950 . S
C818 C817 1.414 . S
C818 C819 1.374 . S
C819 H799 0.950 . S
C819 C815 1.385 . S
C819 C818 1.374 . S
C820 C817 1.499 . S
C820 C821 1.373 . S
C820 C822 1.389 . S
C821 H800 0.950 1_565 S
C821 C820 1.373 . S
C821 C837 1.377 1_565 S
C822 C820 1.389 . S
C822 C823 1.524 . S
C822 C836 1.377 . S
C823 C822 1.524 . S
C823 C824 1.397 . S
C823 C828 1.363 . S
C824 H801 0.950 1_655 S
C824 C823 1.397 . S
C824 C825 1.338 . S
C825 H802 0.939 1_655 S
C825 C824 1.338 . S
C825 C826 1.296 . S
C826 C825 1.296 . S
C826 C827 1.524 . S
C826 H845 0.913 . S
C827 H803 0.950 . S
C827 C826 1.524 . S
C827 C828 1.415 . S
C828 H804 0.950 . S
C828 C823 1.363 . S
C828 C827 1.415 . S
C829 H805 0.951 . S
C829 C830 1.366 1_455 S
C829 C831 1.388 . S
C830 C829 1.366 1_655 S
C830 C834 1.385 1_545 S
C831 H806 0.951 . S
C831 C829 1.388 . S
C831 C832 1.366 1_445 S
C832 C831 1.366 1_665 S
C832 C833 1.414 . S
C832 C835 1.499 . S
C833 H807 0.950 . S
C833 C832 1.414 . S
C833 C834 1.374 . S
C834 H808 0.950 . S
C834 C830 1.385 1_565 S
C834 C833 1.374 . S
C835 C832 1.499 . S
C835 C836 1.373 . S
C835 C837 1.389 1_565 S
C836 H809 0.950 . S
C836 C822 1.377 . S
C836 C835 1.373 . S
C837 C821 1.377 1_545 S
C837 C835 1.389 1_545 S
C837 C838 1.524 . S
C838 C837 1.524 . S
C838 C839 1.397 . S
C838 C843 1.363 . S
C839 H810 0.950 . S
C839 C838 1.397 . S
C839 C840 1.334 . S
C840 H811 0.950 . S
C840 C839 1.334 . S
C840 C841 1.287 . S
C841 C840 1.287 . S
C841 C842 1.524 . S
C841 H844 0.999 . S
C842 H812 0.950 1_655 S
C842 C841 1.524 . S
C842 C843 1.415 . S
C843 H813 0.950 1_655 S
C843 C838 1.363 . S
C843 C842 1.415 . S
H844 C841 0.999 . S
H845 C826 0.913 . S
H846 C864 0.951 . S
H847 C866 0.951 . S
H848 C868 0.950 . S
H849 C869 0.950 . S
H850 C871 0.950 . S
H851 C874 0.950 . S
H852 C875 0.950 . S
H853 C877 0.950 . S
H854 C878 0.950 1_565 S
H855 C879 0.951 . S
H856 C881 0.951 . S
H857 C883 0.950 1_565 S
H858 C884 0.950 . S
H859 C886 0.950 . S
H860 C889 0.950 . S
H861 C890 0.950 . S
H862 C892 0.950 . S
H863 C893 0.950 . S
C864 H846 0.951 . S
C864 C865 1.366 . S
C864 C866 1.388 . S
C865 C864 1.366 . S
C865 C869 1.385 . S
C866 H847 0.951 . S
C866 C864 1.388 . S
C866 C867 1.366 . S
C867 C866 1.366 . S
C867 C868 1.414 . S
C867 C870 1.499 . S
C868 H848 0.950 . S
C868 C867 1.414 . S
C868 C869 1.374 . S
C869 H849 0.950 . S
C869 C865 1.385 . S
C869 C868 1.374 . S
C870 C867 1.499 . S
C870 C871 1.373 . S
C870 C872 1.389 . S
C871 H850 0.950 . S
C871 C870 1.373 . S
C871 C887 1.377 . S
C872 C870 1.389 . S
C872 C873 1.524 . S
C872 C886 1.377 . S
C873 C872 1.524 . S
C873 C874 1.397 . S
C873 C878 1.363 . S
C874 H851 0.950 . S
C874 C873 1.397 . S
C874 C875 1.334 . S
C875 H852 0.950 . S
C875 C874 1.334 . S
C875 C876 1.287 . S
C876 C875 1.287 . S
C876 C877 1.524 1_545 S
C876 H895 0.913 . S
C877 H853 0.950 . S
C877 C876 1.524 1_565 S
C877 C878 1.415 1_565 S
C878 H854 0.950 1_545 S
C878 C873 1.363 . S
C878 C877 1.415 1_545 S
C879 H855 0.951 . S
C879 C880 1.366 . S
C879 C881 1.388 . S
C880 C879 1.366 . S
C880 C884 1.385 1_545 S
C881 H856 0.951 . S
C881 C879 1.388 . S
C881 C882 1.366 . S
C882 C881 1.366 . S
C882 C883 1.414 . S
C882 C885 1.499 . S
C883 H857 0.950 1_545 S
C883 C882 1.414 . S
C883 C884 1.374 1_545 S
C884 H858 0.950 . S
C884 C880 1.385 1_565 S
C884 C883 1.374 1_565 S
C885 C882 1.499 . S
C885 C886 1.373 . S
C885 C887 1.389 . S
C886 H859 0.950 . S
C886 C872 1.377 . S
C886 C885 1.373 . S
C887 C871 1.377 . S
C887 C885 1.389 . S
C887 C888 1.524 . S
C888 C887 1.524 . S
C888 C889 1.397 . S
C888 C893 1.363 . S
C889 H860 0.950 . S
C889 C888 1.397 . S
C889 C890 1.334 . S
C890 H861 0.950 . S
C890 C889 1.334 . S
C890 C891 1.287 . S
C891 C890 1.287 . S
C891 C892 1.524 . S
C891 H894 0.999 . S
C892 H862 0.950 . S
C892 C891 1.524 . S
C892 C893 1.415 . S
C893 H863 0.950 . S
C893 C888 1.363 . S
C893 C892 1.415 . S
H894 C891 0.999 . S
H895 C876 0.913 . S
H896 C914 0.951 . S
H897 C916 0.951 . S
H898 C918 0.950 . S
H899 C919 0.950 . S
H900 C921 0.950 . S
H901 C924 0.950 . S
H902 C925 0.950 . S
H903 C927 0.950 . S
H904 C928 0.950 . S
H905 C929 0.951 . S
H906 C931 0.951 . S
H907 C933 0.950 . S
H908 C934 0.950 . S
H909 C936 0.950 . S
H910 C939 0.950 . S
H911 C940 0.950 . S
H912 C942 0.950 . S
H913 C943 0.950 . S
C914 H896 0.951 . S
C914 C915 1.366 . S
C914 C916 1.388 . S
C915 C914 1.366 . S
C915 C919 1.385 . S
C916 H897 0.951 . S
C916 C914 1.388 . S
C916 C917 1.366 . S
C917 C916 1.366 . S
C917 C918 1.414 . S
C917 C920 1.499 . S
C918 H898 0.950 . S
C918 C917 1.414 . S
C918 C919 1.374 . S
C919 H899 0.950 . S
C919 C915 1.385 . S
C919 C918 1.374 . S
C920 C917 1.499 . S
C920 C921 1.373 . S
C920 C922 1.389 . S
C921 H900 0.950 . S
C921 C920 1.373 . S
C921 C937 1.377 . S
C922 C920 1.389 . S
C922 C923 1.524 . S
C922 C936 1.377 . S
C923 C922 1.524 . S
C923 C924 1.397 . S
C923 C928 1.363 . S
C924 H901 0.950 . S
C924 C923 1.397 . S
C924 C925 1.334 . S
C925 H902 0.950 . S
C925 C924 1.334 . S
C925 C926 1.287 . S
C926 C925 1.287 . S
C926 C927 1.524 . S
C926 H945 0.913 . S
C927 H903 0.950 . S
C927 C926 1.524 . S
C927 C928 1.415 . S
C928 H904 0.950 . S
C928 C923 1.363 . S
C928 C927 1.415 . S
C929 H905 0.951 . S
C929 C930 1.366 . S
C929 C931 1.388 . S
C930 C929 1.366 . S
C930 C934 1.385 . S
C931 H906 0.951 . S
C931 C929 1.388 . S
C931 C932 1.366 . S
C932 C931 1.366 . S
C932 C933 1.414 . S
C932 C935 1.499 . S
C933 H907 0.950 . S
C933 C932 1.414 . S
C933 C934 1.374 . S
C934 H908 0.950 . S
C934 C930 1.385 . S
C934 C933 1.374 . S
C935 C932 1.499 . S
C935 C936 1.373 . S
C935 C937 1.389 . S
C936 H909 0.950 . S
C936 C922 1.377 . S
C936 C935 1.373 . S
C937 C921 1.377 . S
C937 C935 1.389 . S
C937 C938 1.524 . S
C938 C937 1.524 . S
C938 C939 1.397 . S
C938 C943 1.363 . S
C939 H910 0.950 . S
C939 C938 1.397 . S
C939 C940 1.334 . S
C940 H911 0.950 . S
C940 C939 1.334 . S
C940 C941 1.287 . S
C941 C940 1.287 . S
C941 C942 1.524 . S
C941 H944 0.999 . S
C942 H912 0.950 . S
C942 C941 1.524 . S
C942 C943 1.415 . S
C943 H913 0.950 . S
C943 C938 1.363 . S
C943 C942 1.415 . S
H944 C941 0.999 . S
H945 C926 0.913 . S
H946 C964 0.951 . S
H947 C966 0.951 . S
H948 C968 0.950 . S
H949 C969 0.950 . S
H950 C971 0.950 . S
H951 C974 0.950 . S
H952 C975 0.950 . S
H953 C977 0.950 . S
H954 C978 0.950 . S
H955 C979 0.951 . S
H956 C981 0.951 . S
H957 C983 0.950 . S
H958 C984 0.950 . S
H959 C986 0.950 . S
H960 C989 0.950 . S
H961 C990 0.950 . S
H962 C992 0.950 . S
H963 C993 0.950 . S
C964 H946 0.951 . S
C964 C965 1.366 . S
C964 C966 1.388 . S
C965 C964 1.366 . S
C965 C969 1.385 . S
C966 H947 0.951 . S
C966 C964 1.388 . S
C966 C967 1.366 . S
C967 C966 1.366 . S
C967 C968 1.414 . S
C967 C970 1.499 . S
C968 H948 0.950 . S
C968 C967 1.414 . S
C968 C969 1.374 . S
C969 H949 0.950 . S
C969 C965 1.385 . S
C969 C968 1.374 . S
C970 C967 1.499 . S
C970 C971 1.373 . S
C970 C972 1.389 . S
C971 H950 0.950 . S
C971 C970 1.373 . S
C971 C987 1.377 . S
C972 C970 1.389 . S
C972 C973 1.524 . S
C972 C986 1.377 . S
C973 C972 1.524 . S
C973 C974 1.397 . S
C973 C978 1.363 . S
C974 H951 0.950 . S
C974 C973 1.397 . S
C974 C975 1.334 . S
C975 H952 0.950 . S
C975 C974 1.334 . S
C975 C976 1.287 . S
C976 C975 1.287 . S
C976 C977 1.524 1_455 S
C976 H995 0.913 1_455 S
C977 H953 0.950 . S
C977 C976 1.524 1_655 S
C977 C978 1.415 1_655 S
C978 H954 0.950 . S
C978 C973 1.363 . S
C978 C977 1.415 1_455 S
C979 H955 0.951 . S
C979 C980 1.366 . S
C979 C981 1.388 . S
C980 C979 1.366 . S
C980 C984 1.385 . S
C981 H956 0.951 . S
C981 C979 1.388 . S
C981 C982 1.366 . S
C982 C981 1.366 . S
C982 C983 1.414 . S
C982 C985 1.499 . S
C983 H957 0.950 . S
C983 C982 1.414 . S
C983 C984 1.374 . S
C984 H958 0.950 . S
C984 C980 1.385 . S
C984 C983 1.374 . S
C985 C982 1.499 . S
C985 C986 1.373 . S
C985 C987 1.389 . S
C986 H959 0.950 . S
C986 C972 1.377 . S
C986 C985 1.373 . S
C987 C971 1.377 . S
C987 C985 1.389 . S
C987 C988 1.524 . S
C988 C987 1.524 . S
C988 C989 1.397 . S
C988 C993 1.363 . S
C989 H960 0.950 . S
C989 C988 1.397 . S
C989 C990 1.334 . S
C990 H961 0.950 . S
C990 C989 1.334 . S
C990 C991 1.287 . S
C991 C990 1.287 . S
C991 C992 1.524 . S
C991 H994 0.999 . S
C992 H962 0.950 . S
C992 C991 1.524 . S
C992 C993 1.415 . S
C993 H963 0.950 . S
C993 C988 1.363 . S
C993 C992 1.415 . S
H994 C991 0.999 . S
H995 C976 0.913 1_655 S
H996 C1014 0.951 . S
H997 C1016 0.951 . S
H998 C1018 0.950 . S
H999 C1019 0.950 . S
H1000 C1021 0.958 . S
H1001 C1024 0.950 . S
H1002 C1025 0.950 . S
H1003 C1027 0.950 . S
H1004 C1028 0.950 . S
H1005 C1029 0.966 . S
H1006 C1031 0.951 . S
H1007 C1033 0.950 . S
H1008 C1034 0.950 . S
H1009 C1036 0.950 . S
H1010 C1039 0.950 . S
H1011 C1040 0.950 . S
H1012 C1042 0.950 . S
H1013 C1043 0.950 . S
C1014 H996 0.951 . S
C1014 C1015 1.366 . S
C1014 C1016 1.388 . S
C1015 C1014 1.366 . S
C1015 C1019 1.385 . S
C1016 H997 0.951 . S
C1016 C1014 1.388 . S
C1016 C1017 1.366 . S
C1017 C1016 1.366 . S
C1017 C1018 1.414 . S
C1017 C1020 1.499 . S
C1018 H998 0.950 . S
C1018 C1017 1.414 . S
C1018 C1019 1.374 . S
C1019 H999 0.950 . S
C1019 C1015 1.385 . S
C1019 C1018 1.374 . S
C1020 C1017 1.499 . S
C1020 C1021 1.373 . S
C1020 C1022 1.389 . S
C1021 H1000 0.958 . S
C1021 C1020 1.373 . S
C1021 C1037 1.377 . S
C1022 C1020 1.389 . S
C1022 C1023 1.524 . S
C1022 C1036 1.377 . S
C1023 C1022 1.524 . S
C1023 C1024 1.397 . S
C1023 C1028 1.363 . S
C1024 H1001 0.950 . S
C1024 C1023 1.397 . S
C1024 C1025 1.334 . S
C1025 H1002 0.950 . S
C1025 C1024 1.334 . S
C1025 C1026 1.287 . S
C1026 C1025 1.287 . S
C1026 C1027 1.524 . S
C1026 H1045 0.913 . S
C1027 H1003 0.950 . S
C1027 C1026 1.524 . S
C1027 C1028 1.415 . S
C1028 H1004 0.950 . S
C1028 C1023 1.363 . S
C1028 C1027 1.415 . S
C1029 H1005 0.966 . S
C1029 C1030 1.366 1_545 S
C1029 C1031 1.388 . S
C1030 C1029 1.366 1_565 S
C1030 C1034 1.385 . S
C1031 H1006 0.951 . S
C1031 C1029 1.388 . S
C1031 C1032 1.366 1_545 S
C1032 C1031 1.366 1_565 S
C1032 C1033 1.414 . S
C1032 C1035 1.499 . S
C1033 H1007 0.950 . S
C1033 C1032 1.414 . S
C1033 C1034 1.374 . S
C1034 H1008 0.950 . S
C1034 C1030 1.385 . S
C1034 C1033 1.374 . S
C1035 C1032 1.499 . S
C1035 C1036 1.373 . S
C1035 C1037 1.389 . S
C1036 H1009 0.950 . S
C1036 C1022 1.377 . S
C1036 C1035 1.373 . S
C1037 C1021 1.377 . S
C1037 C1035 1.389 . S
C1037 C1038 1.524 1_556 S
C1038 C1037 1.524 1_554 S
C1038 C1039 1.397 . S
C1038 C1043 1.363 1_565 S
C1039 H1010 0.950 . S
C1039 C1038 1.397 . S
C1039 C1040 1.334 . S
C1040 H1011 0.950 . S
C1040 C1039 1.334 . S
C1040 C1041 1.287 . S
C1041 C1040 1.287 . S
C1041 C1042 1.524 1_565 S
C1041 H1044 0.999 . S
C1042 H1012 0.950 . S
C1042 C1041 1.524 1_545 S
C1042 C1043 1.415 . S
C1043 H1013 0.950 . S
C1043 C1038 1.363 1_545 S
C1043 C1042 1.415 . S
H1044 C1041 0.999 . S
H1045 C1026 0.913 . S
H1046 C1064 0.951 . S
H1047 C1066 0.951 . S
H1048 C1068 0.950 . S
H1049 C1069 0.950 . S
H1050 C1071 0.950 . S
H1051 C1074 0.950 . S
H1052 C1075 0.950 . S
H1053 C1077 0.950 . S
H1054 C1078 0.950 . S
H1055 C1079 0.951 . S
H1056 C1081 0.951 . S
H1057 C1083 0.950 . S
H1058 C1084 0.950 . S
H1059 C1086 0.950 . S
H1060 C1089 0.950 . S
H1061 C1090 0.950 . S
H1062 C1092 0.950 . S
H1063 C1093 0.950 . S
C1064 H1046 0.951 . S
C1064 C1065 1.366 . S
C1064 C1066 1.388 . S
C1065 C1064 1.366 . S
C1065 C1069 1.385 . S
C1066 H1047 0.951 . S
C1066 C1064 1.388 . S
C1066 C1067 1.366 . S
C1067 C1066 1.366 . S
C1067 C1068 1.414 . S
C1067 C1070 1.499 . S
C1068 H1048 0.950 . S
C1068 C1067 1.414 . S
C1068 C1069 1.374 . S
C1069 H1049 0.950 . S
C1069 C1065 1.385 . S
C1069 C1068 1.374 . S
C1070 C1067 1.499 . S
C1070 C1071 1.373 . S
C1070 C1072 1.389 . S
C1071 H1050 0.950 . S
C1071 C1070 1.373 . S
C1071 C1087 1.377 . S
C1072 C1070 1.389 . S
C1072 C1073 1.524 . S
C1072 C1086 1.377 . S
C1073 C1072 1.524 . S
C1073 C1074 1.397 1_545 S
C1073 C1078 1.363 . S
C1074 H1051 0.950 . S
C1074 C1073 1.397 1_565 S
C1074 C1075 1.334 . S
C1075 H1052 0.950 . S
C1075 C1074 1.334 . S
C1075 C1076 1.287 . S
C1076 C1075 1.287 . S
C1076 C1077 1.524 . S
C1076 H1095 0.913 . S
C1077 H1053 0.950 . S
C1077 C1076 1.524 . S
C1077 C1078 1.415 1_565 S
C1078 H1054 0.950 . S
C1078 C1073 1.363 . S
C1078 C1077 1.415 1_545 S
C1079 H1055 0.951 . S
C1079 C1080 1.366 . S
C1079 C1081 1.388 . S
C1080 C1079 1.366 . S
C1080 C1084 1.385 . S
C1081 H1056 0.951 . S
C1081 C1079 1.388 . S
C1081 C1082 1.366 . S
C1082 C1081 1.366 . S
C1082 C1083 1.414 . S
C1082 C1085 1.499 . S
C1083 H1057 0.950 . S
C1083 C1082 1.414 . S
C1083 C1084 1.374 . S
C1084 H1058 0.950 . S
C1084 C1080 1.385 . S
C1084 C1083 1.374 . S
C1085 C1082 1.499 . S
C1085 C1086 1.373 . S
C1085 C1087 1.389 . S
C1086 H1059 0.950 . S
C1086 C1072 1.377 . S
C1086 C1085 1.373 . S
C1087 C1071 1.377 . S
C1087 C1085 1.389 . S
C1087 C1088 1.524 . S
C1088 C1087 1.524 . S
C1088 C1089 1.397 . S
C1088 C1093 1.363 . S
C1089 H1060 0.950 . S
C1089 C1088 1.397 . S
C1089 C1090 1.334 . S
C1090 H1061 0.950 . S
C1090 C1089 1.334 . S
C1090 C1091 1.287 . S
C1091 C1090 1.287 . S
C1091 C1092 1.524 . S
C1091 H1094 0.999 . S
C1092 H1062 0.950 . S
C1092 C1091 1.524 . S
C1092 C1093 1.415 . S
C1093 H1063 0.950 . S
C1093 C1088 1.363 . S
C1093 C1092 1.415 . S
H1094 C1091 0.999 . S
H1095 C1076 0.913 . S
H1096 C1114 0.951 . S
H1097 C1116 0.951 . S
H1098 C1118 0.950 . S
H1099 C1119 0.950 . S
H1100 C1121 0.950 . S
H1101 C1124 0.950 . S
H1102 C1125 0.950 . S
H1103 C1127 0.950 . S
H1104 C1128 0.950 . S
H1105 C1129 0.951 . S
H1106 C1131 0.951 . S
H1107 C1133 0.950 . S
H1108 C1134 0.950 . S
H1109 C1136 0.950 . S
H1110 C1139 0.950 . S
H1111 C1140 0.950 . S
H1112 C1142 0.950 . S
H1113 C1143 0.950 . S
C1114 H1096 0.951 . S
C1114 C1115 1.366 . S
C1114 C1116 1.388 . S
C1115 C1114 1.366 . S
C1115 C1119 1.385 . S
C1116 H1097 0.951 . S
C1116 C1114 1.388 . S
C1116 C1117 1.366 . S
C1117 C1116 1.366 . S
C1117 C1118 1.414 . S
C1117 C1120 1.499 . S
C1118 H1098 0.950 . S
C1118 C1117 1.414 . S
C1118 C1119 1.374 . S
C1119 H1099 0.950 . S
C1119 C1115 1.385 . S
C1119 C1118 1.374 . S
C1120 C1117 1.499 . S
C1120 C1121 1.373 . S
C1120 C1122 1.389 . S
C1121 H1100 0.950 . S
C1121 C1120 1.373 . S
C1121 C1137 1.377 . S
C1122 C1120 1.389 . S
C1122 C1123 1.524 . S
C1122 C1136 1.377 . S
C1123 C1122 1.524 . S
C1123 C1124 1.397 . S
C1123 C1128 1.363 . S
C1124 H1101 0.950 . S
C1124 C1123 1.397 . S
C1124 C1125 1.334 1_554 S
C1125 H1102 0.950 . S
C1125 C1124 1.334 1_556 S
C1125 C1126 1.287 . S
C1126 C1125 1.287 . S
C1126 C1127 1.524 . S
C1126 H1145 0.913 . S
C1127 H1103 0.950 . S
C1127 C1126 1.524 . S
C1127 C1128 1.415 1_556 S
C1128 H1104 0.950 . S
C1128 C1123 1.363 . S
C1128 C1127 1.415 1_554 S
C1129 H1105 0.951 . S
C1129 C1130 1.366 . S
C1129 C1131 1.388 . S
C1130 C1129 1.366 . S
C1130 C1134 1.385 . S
C1131 H1106 0.951 . S
C1131 C1129 1.388 . S
C1131 C1132 1.366 . S
C1132 C1131 1.366 . S
C1132 C1133 1.414 . S
C1132 C1135 1.499 . S
C1133 H1107 0.950 . S
C1133 C1132 1.414 . S
C1133 C1134 1.374 . S
C1134 H1108 0.950 . S
C1134 C1130 1.385 . S
C1134 C1133 1.374 . S
C1135 C1132 1.499 . S
C1135 C1136 1.373 . S
C1135 C1137 1.389 . S
C1136 H1109 0.950 . S
C1136 C1122 1.377 . S
C1136 C1135 1.373 . S
C1137 C1121 1.377 . S
C1137 C1135 1.389 . S
C1137 C1138 1.524 . S
C1138 C1137 1.524 . S
C1138 C1139 1.397 . S
C1138 C1143 1.363 . S
C1139 H1110 0.950 . S
C1139 C1138 1.397 . S
C1139 C1140 1.334 . S
C1140 H1111 0.950 . S
C1140 C1139 1.334 . S
C1140 C1141 1.287 . S
C1141 C1140 1.287 . S
C1141 C1142 1.524 . S
C1141 H1144 0.999 . S
C1142 H1112 0.950 . S
C1142 C1141 1.524 . S
C1142 C1143 1.415 . S
C1143 H1113 0.950 . S
C1143 C1138 1.363 . S
C1143 C1142 1.415 . S
H1144 C1141 0.999 . S
H1145 C1126 0.913 . S
H1146 C1164 0.951 . S
H1147 C1166 0.951 . S
H1148 C1168 0.950 . S
H1149 C1169 0.950 . S
H1150 C1171 0.950 . S
H1151 C1174 0.950 . S
H1152 C1175 0.950 . S
H1153 C1177 0.950 . S
H1154 C1178 0.950 . S
H1155 C1179 0.951 . S
H1156 C1181 0.951 . S
H1157 C1183 0.950 . S
H1158 C1184 0.950 . S
H1159 C1186 0.950 . S
H1160 C1189 0.950 . S
H1161 C1190 0.950 . S
H1162 C1192 0.950 . S
H1163 C1193 0.950 . S
C1164 H1146 0.951 . S
C1164 C1165 1.366 . S
C1164 C1166 1.388 . S
C1165 C1164 1.366 . S
C1165 C1169 1.385 . S
C1166 H1147 0.951 . S
C1166 C1164 1.388 . S
C1166 C1167 1.366 . S
C1167 C1166 1.366 . S
C1167 C1168 1.414 . S
C1167 C1170 1.499 . S
C1168 H1148 0.950 . S
C1168 C1167 1.414 . S
C1168 C1169 1.374 . S
C1169 H1149 0.950 . S
C1169 C1165 1.385 . S
C1169 C1168 1.374 . S
C1170 C1167 1.499 . S
C1170 C1171 1.373 . S
C1170 C1172 1.389 . S
C1171 H1150 0.950 . S
C1171 C1170 1.373 . S
C1171 C1187 1.377 . S
C1172 C1170 1.389 . S
C1172 C1173 1.524 . S
C1172 C1186 1.377 . S
C1173 C1172 1.524 . S
C1173 C1174 1.397 . S
C1173 C1178 1.363 . S
C1174 H1151 0.950 . S
C1174 C1173 1.397 . S
C1174 C1175 1.334 . S
C1175 H1152 0.950 . S
C1175 C1174 1.334 . S
C1175 C1176 1.287 . S
C1176 C1175 1.287 . S
C1176 C1177 1.524 . S
C1176 H1195 0.913 . S
C1177 H1153 0.950 . S
C1177 C1176 1.524 . S
C1177 C1178 1.415 . S
C1178 H1154 0.950 . S
C1178 C1173 1.363 . S
C1178 C1177 1.415 . S
C1179 H1155 0.951 . S
C1179 C1180 1.366 . S
C1179 C1181 1.388 . S
C1180 C1179 1.366 . S
C1180 C1184 1.385 . S
C1181 H1156 0.951 . S
C1181 C1179 1.388 . S
C1181 C1182 1.366 . S
C1182 C1181 1.366 . S
C1182 C1183 1.414 . S
C1182 C1185 1.499 . S
C1183 H1157 0.950 . S
C1183 C1182 1.414 . S
C1183 C1184 1.374 . S
C1184 H1158 0.950 . S
C1184 C1180 1.385 . S
C1184 C1183 1.374 . S
C1185 C1182 1.499 . S
C1185 C1186 1.373 . S
C1185 C1187 1.389 . S
C1186 H1159 0.950 . S
C1186 C1172 1.377 . S
C1186 C1185 1.373 . S
C1187 C1171 1.377 . S
C1187 C1185 1.389 . S
C1187 C1188 1.524 . S
C1188 C1187 1.524 . S
C1188 C1189 1.397 . S
C1188 C1193 1.363 . S
C1189 H1160 0.950 . S
C1189 C1188 1.397 . S
C1189 C1190 1.334 . S
C1190 H1161 0.950 . S
C1190 C1189 1.334 . S
C1190 C1191 1.287 . S
C1191 C1190 1.287 . S
C1191 C1192 1.524 . S
C1191 H1194 0.999 . S
C1192 H1162 0.950 . S
C1192 C1191 1.524 . S
C1192 C1193 1.415 . S
C1193 H1163 0.950 . S
C1193 C1188 1.363 . S
C1193 C1192 1.415 . S
H1194 C1191 0.999 . S
H1195 C1176 0.913 . S
H1196 C1214 0.951 . S
H1197 C1216 0.951 . S
H1198 C1218 0.950 . S
H1199 C1219 0.950 1_455 S
H1200 C1221 0.950 . S
H1201 C1224 0.950 . S
H1202 C1225 0.950 . S
H1203 C1227 0.950 . S
H1204 C1228 0.950 . S
H1205 C1229 0.951 . S
H1206 C1231 0.951 . S
H1207 C1233 0.950 . S
H1208 C1234 0.950 . S
H1209 C1236 0.950 . S
H1210 C1239 0.950 . S
H1211 C1240 0.950 . S
H1212 C1242 0.950 . S
H1213 C1243 0.950 . S
C1214 H1196 0.951 . S
C1214 C1215 1.366 . S
C1214 C1216 1.388 . S
C1215 C1214 1.366 . S
C1215 C1219 1.385 . S
C1216 H1197 0.951 . S
C1216 C1214 1.388 . S
C1216 C1217 1.366 . S
C1217 C1216 1.366 . S
C1217 C1218 1.414 1_655 S
C1217 C1220 1.499 . S
C1218 H1198 0.950 . S
C1218 C1217 1.414 1_455 S
C1218 C1219 1.374 1_455 S
C1219 H1199 0.950 1_655 S
C1219 C1215 1.385 . S
C1219 C1218 1.374 1_655 S
C1220 C1217 1.499 . S
C1220 C1221 1.373 1_655 S
C1220 C1222 1.389 . S
C1221 H1200 0.950 . S
C1221 C1220 1.373 1_455 S
C1221 C1237 1.377 . S
C1222 C1220 1.389 . S
C1222 C1223 1.524 . S
C1222 C1236 1.377 . S
C1223 C1222 1.524 . S
C1223 C1224 1.397 1_556 S
C1223 C1228 1.363 . S
C1224 H1201 0.950 . S
C1224 C1223 1.397 1_554 S
C1224 C1225 1.334 . S
C1225 H1202 0.950 . S
C1225 C1224 1.334 . S
C1225 C1226 1.287 . S
C1226 C1225 1.287 . S
C1226 C1227 1.524 1_554 S
C1226 H1245 0.913 . S
C1227 H1203 0.950 . S
C1227 C1226 1.524 1_556 S
C1227 C1228 1.415 . S
C1228 H1204 0.950 . S
C1228 C1223 1.363 . S
C1228 C1227 1.415 . S
C1229 H1205 0.951 . S
C1229 C1230 1.357 1_554 S
C1229 C1231 1.388 . S
C1230 C1229 1.357 1_556 S
C1230 C1234 1.397 1_455 S
C1231 H1206 0.951 . S
C1231 C1229 1.388 . S
C1231 C1232 1.366 1_554 S
C1232 C1231 1.366 1_556 S
C1232 C1233 1.414 1_455 S
C1232 C1235 1.499 1_455 S
C1233 H1207 0.950 . S
C1233 C1232 1.414 1_655 S
C1233 C1234 1.374 . S
C1234 H1208 0.950 . S
C1234 C1230 1.397 1_655 S
C1234 C1233 1.374 . S
C1235 C1232 1.499 1_655 S
C1235 C1236 1.373 . S
C1235 C1237 1.389 1_655 S
C1236 H1209 0.950 . S
C1236 C1222 1.377 . S
C1236 C1235 1.373 . S
C1237 C1221 1.377 . S
C1237 C1235 1.389 1_455 S
C1237 C1238 1.524 . S
C1238 C1237 1.524 . S
C1238 C1239 1.397 . S
C1238 C1243 1.363 . S
C1239 H1210 0.950 . S
C1239 C1238 1.397 . S
C1239 C1240 1.334 . S
C1240 H1211 0.950 . S
C1240 C1239 1.334 . S
C1240 C1241 1.287 . S
C1241 C1240 1.287 . S
C1241 C1242 1.524 . S
C1241 H1244 0.999 . S
C1242 H1212 0.950 . S
C1242 C1241 1.524 . S
C1242 C1243 1.415 . S
C1243 H1213 0.950 . S
C1243 C1238 1.363 . S
C1243 C1242 1.415 . S
H1244 C1241 0.999 . S
H1245 C1226 0.913 . S
H1246 C1264 0.951 . S
H1247 C1266 0.951 . S
H1248 C1268 0.950 . S
H1249 C1269 0.950 . S
H1250 C1271 0.950 . S
H1251 C1274 0.950 . S
H1252 C1275 0.950 . S
H1253 C1277 0.950 . S
H1254 C1278 0.950 . S
H1255 C1279 0.951 . S
H1256 C1281 0.951 . S
H1257 C1283 0.950 . S
H1258 C1284 0.950 . S
H1259 C1286 0.950 . S
H1260 C1289 0.950 . S
H1261 C1290 0.950 . S
H1262 C1292 0.950 . S
H1263 C1293 0.950 . S
C1264 H1246 0.951 . S
C1264 C1265 1.366 . S
C1264 C1266 1.388 . S
C1265 C1264 1.366 . S
C1265 C1269 1.385 . S
C1266 H1247 0.951 . S
C1266 C1264 1.388 . S
C1266 C1267 1.366 . S
C1267 C1266 1.366 . S
C1267 C1268 1.414 . S
C1267 C1270 1.499 . S
C1268 H1248 0.950 . S
C1268 C1267 1.414 . S
C1268 C1269 1.374 . S
C1269 H1249 0.950 . S
C1269 C1265 1.385 . S
C1269 C1268 1.374 . S
C1270 C1267 1.499 . S
C1270 C1271 1.373 . S
C1270 C1272 1.389 . S
C1271 H1250 0.950 . S
C1271 C1270 1.373 . S
C1271 C1287 1.377 . S
C1272 C1270 1.389 . S
C1272 C1273 1.524 . S
C1272 C1286 1.377 . S
C1273 C1272 1.524 . S
C1273 C1274 1.397 . S
C1273 C1278 1.363 . S
C1274 H1251 0.950 . S
C1274 C1273 1.397 . S
C1274 C1275 1.334 . S
C1275 H1252 0.950 . S
C1275 C1274 1.334 . S
C1275 C1276 1.287 . S
C1276 C1275 1.287 . S
C1276 C1277 1.524 . S
C1276 H1295 0.913 . S
C1277 H1253 0.950 . S
C1277 C1276 1.524 . S
C1277 C1278 1.415 . S
C1278 H1254 0.950 . S
C1278 C1273 1.363 . S
C1278 C1277 1.415 . S
C1279 H1255 0.951 . S
C1279 C1280 1.366 . S
C1279 C1281 1.388 . S
C1280 C1279 1.366 . S
C1280 C1284 1.385 . S
C1281 H1256 0.951 . S
C1281 C1279 1.388 . S
C1281 C1282 1.366 . S
C1282 C1281 1.366 . S
C1282 C1283 1.414 . S
C1282 C1285 1.499 . S
C1283 H1257 0.950 . S
C1283 C1282 1.414 . S
C1283 C1284 1.374 . S
C1284 H1258 0.950 . S
C1284 C1280 1.385 . S
C1284 C1283 1.374 . S
C1285 C1282 1.499 . S
C1285 C1286 1.373 . S
C1285 C1287 1.389 . S
C1286 H1259 0.950 . S
C1286 C1272 1.377 . S
C1286 C1285 1.373 . S
C1287 C1271 1.377 . S
C1287 C1285 1.389 . S
C1287 C1288 1.524 . S
C1288 C1287 1.524 . S
C1288 C1289 1.397 . S
C1288 C1293 1.363 . S
C1289 H1260 0.950 . S
C1289 C1288 1.397 . S
C1289 C1290 1.334 . S
C1290 H1261 0.950 . S
C1290 C1289 1.334 . S
C1290 C1291 1.287 . S
C1291 C1290 1.287 . S
C1291 C1292 1.524 . S
C1291 H1294 0.999 . S
C1292 H1262 0.950 . S
C1292 C1291 1.524 . S
C1292 C1293 1.415 . S
C1293 H1263 0.950 . S
C1293 C1288 1.363 . S
C1293 C1292 1.415 . S
H1294 C1291 0.999 . S
H1295 C1276 0.913 . S
H1296 C1314 0.951 . S
H1297 C1316 0.951 . S
H1298 C1318 0.950 . S
H1299 C1319 0.950 . S
H1300 C1321 0.950 . S
H1301 C1324 0.950 . S
H1302 C1325 0.950 . S
H1303 C1327 0.950 . S
H1304 C1328 0.950 . S
H1305 C1329 0.951 . S
H1306 C1331 0.951 . S
H1307 C1333 0.950 . S
H1308 C1334 0.950 . S
H1309 C1336 0.950 . S
H1310 C1339 0.950 . S
H1311 C1340 0.950 1_655 S
H1312 C1342 0.950 . S
H1313 C1343 0.950 . S
C1314 H1296 0.951 . S
C1314 C1315 1.366 . S
C1314 C1316 1.388 . S
C1315 C1314 1.366 . S
C1315 C1319 1.385 . S
C1316 H1297 0.951 . S
C1316 C1314 1.388 . S
C1316 C1317 1.366 . S
C1317 C1316 1.366 . S
C1317 C1318 1.414 . S
C1317 C1320 1.499 . S
C1318 H1298 0.950 . S
C1318 C1317 1.414 . S
C1318 C1319 1.374 . S
C1319 H1299 0.950 . S
C1319 C1315 1.385 . S
C1319 C1318 1.374 . S
C1320 C1317 1.499 . S
C1320 C1321 1.373 . S
C1320 C1322 1.389 . S
C1321 H1300 0.950 . S
C1321 C1320 1.373 . S
C1321 C1337 1.377 . S
C1322 C1320 1.389 . S
C1322 C1323 1.524 . S
C1322 C1336 1.377 . S
C1323 C1322 1.524 . S
C1323 C1324 1.397 . S
C1323 C1328 1.363 . S
C1324 H1301 0.950 . S
C1324 C1323 1.397 . S
C1324 C1325 1.334 . S
C1325 H1302 0.950 . S
C1325 C1324 1.334 . S
C1325 C1326 1.287 . S
C1326 C1325 1.287 . S
C1326 C1327 1.524 . S
C1326 H1345 0.913 . S
C1327 H1303 0.950 . S
C1327 C1326 1.524 . S
C1327 C1328 1.415 . S
C1328 H1304 0.950 . S
C1328 C1323 1.363 . S
C1328 C1327 1.415 . S
C1329 H1305 0.951 . S
C1329 C1330 1.366 . S
C1329 C1331 1.388 . S
C1330 C1329 1.366 . S
C1330 C1334 1.385 . S
C1331 H1306 0.951 . S
C1331 C1329 1.388 . S
C1331 C1332 1.366 . S
C1332 C1331 1.366 . S
C1332 C1333 1.414 . S
C1332 C1335 1.499 . S
C1333 H1307 0.950 . S
C1333 C1332 1.414 . S
C1333 C1334 1.374 . S
C1334 H1308 0.950 . S
C1334 C1330 1.385 . S
C1334 C1333 1.374 . S
C1335 C1332 1.499 . S
C1335 C1336 1.373 . S
C1335 C1337 1.389 . S
C1336 H1309 0.950 . S
C1336 C1322 1.377 . S
C1336 C1335 1.373 . S
C1337 C1321 1.377 . S
C1337 C1335 1.389 . S
C1337 C1338 1.524 . S
C1338 C1337 1.524 . S
C1338 C1339 1.397 . S
C1338 C1343 1.363 . S
C1339 H1310 0.950 . S
C1339 C1338 1.397 . S
C1339 C1340 1.334 . S
C1340 H1311 0.950 1_455 S
C1340 C1339 1.334 . S
C1340 C1341 1.287 . S
C1341 C1340 1.287 . S
C1341 C1342 1.524 . S
C1341 H1344 0.999 . S
C1342 H1312 0.950 . S
C1342 C1341 1.524 . S
C1342 C1343 1.415 . S
C1343 H1313 0.950 . S
C1343 C1338 1.363 . S
C1343 C1342 1.415 . S
H1344 C1341 0.999 . S
H1345 C1326 0.913 . S
H1346 C1364 0.951 . S
H1347 C1366 0.951 . S
H1348 C1368 0.950 . S
H1349 C1369 0.950 . S
H1350 C1371 0.950 . S
H1351 C1374 0.950 . S
H1352 C1375 0.950 . S
H1353 C1377 0.950 . S
H1354 C1378 0.950 . S
H1355 C1379 0.951 . S
H1356 C1381 0.951 . S
H1357 C1383 0.950 . S
H1358 C1384 0.950 . S
H1359 C1386 0.950 . S
H1360 C1389 0.950 . S
H1361 C1390 0.950 . S
H1362 C1392 0.950 . S
H1363 C1393 0.950 . S
C1364 H1346 0.951 . S
C1364 C1365 1.366 . S
C1364 C1366 1.388 . S
C1365 C1364 1.366 . S
C1365 C1369 1.385 . S
C1366 H1347 0.951 . S
C1366 C1364 1.388 . S
C1366 C1367 1.366 . S
C1367 C1366 1.366 . S
C1367 C1368 1.414 . S
C1367 C1370 1.499 . S
C1368 H1348 0.950 . S
C1368 C1367 1.414 . S
C1368 C1369 1.374 . S
C1369 H1349 0.950 . S
C1369 C1365 1.385 . S
C1369 C1368 1.374 . S
C1370 C1367 1.499 . S
C1370 C1371 1.373 . S
C1370 C1372 1.389 . S
C1371 H1350 0.950 . S
C1371 C1370 1.373 . S
C1371 C1387 1.377 . S
C1372 C1370 1.389 . S
C1372 C1373 1.524 . S
C1372 C1386 1.377 . S
C1373 C1372 1.524 . S
C1373 C1374 1.397 . S
C1373 C1378 1.363 . S
C1374 H1351 0.950 . S
C1374 C1373 1.397 . S
C1374 C1375 1.334 . S
C1375 H1352 0.950 . S
C1375 C1374 1.334 . S
C1375 C1376 1.287 . S
C1376 C1375 1.287 . S
C1376 C1377 1.524 . S
C1376 H1395 0.913 . S
C1377 H1353 0.950 . S
C1377 C1376 1.524 . S
C1377 C1378 1.415 . S
C1378 H1354 0.950 . S
C1378 C1373 1.363 . S
C1378 C1377 1.415 . S
C1379 H1355 0.951 . S
C1379 C1380 1.366 . S
C1379 C1381 1.388 . S
C1380 C1379 1.366 . S
C1380 C1384 1.385 . S
C1381 H1356 0.951 . S
C1381 C1379 1.388 . S
C1381 C1382 1.366 . S
C1382 C1381 1.366 . S
C1382 C1383 1.414 . S
C1382 C1385 1.499 . S
C1383 H1357 0.950 . S
C1383 C1382 1.414 . S
C1383 C1384 1.374 . S
C1384 H1358 0.950 . S
C1384 C1380 1.385 . S
C1384 C1383 1.374 . S
C1385 C1382 1.499 . S
C1385 C1386 1.373 . S
C1385 C1387 1.389 . S
C1386 H1359 0.950 . S
C1386 C1372 1.377 . S
C1386 C1385 1.373 . S
C1387 C1371 1.377 . S
C1387 C1385 1.389 . S
C1387 C1388 1.524 . S
C1388 C1387 1.524 . S
C1388 C1389 1.397 . S
C1388 C1393 1.363 . S
C1389 H1360 0.950 . S
C1389 C1388 1.397 . S
C1389 C1390 1.334 . S
C1390 H1361 0.950 . S
C1390 C1389 1.334 . S
C1390 C1391 1.287 . S
C1391 C1390 1.287 . S
C1391 C1392 1.524 . S
C1391 H1394 0.999 . S
C1392 H1362 0.950 . S
C1392 C1391 1.524 . S
C1392 C1393 1.415 . S
C1393 H1363 0.950 . S
C1393 C1388 1.363 . S
C1393 C1392 1.415 . S
H1394 C1391 0.999 . S
H1395 C1376 0.913 . S
C215 C9 2.095 . S
C230 C122 2.049 . S
C265 C21 1.582 . S
C280 C146 1.553 . S
C330 C166 1.052 . S
C315 C30 1.038 . S
C365 C43 1.076 . S
C380 C189 1.135 . S
C430 C148 1.589 . S
C415 C4 1.607 . S
C480 C124 2.258 . S
C465 C22 2.296 . S
C530 C192 1.202 . S
C515 C34 1.232 . S
C580 C169 1.336 . S
C565 C48 1.363 . S
C615 C8 1.503 . S
C630 C194 1.471 . S
C680 C143 1.654 . S
C665 C35 1.642 . S
C715 C47 1.708 . S
C730 C121 1.716 . S
C765 C17 1.200 . S
C780 C171 1.179 . S
C830 C125 1.654 . S
C815 C60 1.654 . S
C865 C74 1.884 . S
C880 C147 1.865 . S
C915 C82 1.165 . S
C930 C167 1.188 . S
C965 C100 2.036 . S
C980 C190 2.061 . S
C1015 C61 1.877 . S
C1030 C145 1.850 . S
C1080 C123 1.536 . S
C1065 C73 1.544 . S
C1130 C193 1.477 . S
C1115 C87 1.495 . S
C1180 C170 0.979 . S
C1165 C95 0.967 . S
C1215 C56 1.837 . S
C1230 C191 1.912 1_556 S
C1280 C144 1.603 . S
C1265 C86 1.586 . S
C1330 C120 1.445 . S
C1315 C99 1.424 . S
C1365 C69 1.693 . S
C1380 C168 1.679 . S
