# Generated by pormake.
# Topology anh, (6,3)-cn, num edge types: 1
# Building blocks:
#     Node 0, Type 0, BuildingBlock: MIFKUJ_clean_sbu_0, # of connection points: 6
#     Node 1, Type 0, BuildingBlock: MIFKUJ_clean_sbu_0, # of connection points: 6
#     Node 2, Type 0, BuildingBlock: MIFKUJ_clean_sbu_0, # of connection points: 6
#     Node 3, Type 1, BuildingBlock: ESEHIV_clean_linker_0, # of connection points: 3
#     Node 4, Type 1, BuildingBlock: ESEHIV_clean_linker_0, # of connection points: 3
#     Node 5, Type 1, BuildingBlock: ESEHIV_clean_linker_0, # of connection points: 3
#     Node 6, Type 1, BuildingBlock: ESEHIV_clean_linker_0, # of connection points: 3
#     Node 7, Type 1, BuildingBlock: ESEHIV_clean_linker_0, # of connection points: 3
#     Node 8, Type 1, BuildingBlock: ESEHIV_clean_linker_0, # of connection points: 3
#     Edge 9, Type (0, 1), BuildingBlock: TEMPAE_clean_linker_10, # of connection points: 2
#     Edge 10, Type (0, 1), BuildingBlock: TEMPAE_clean_linker_10, # of connection points: 2
#     Edge 11, Type (0, 1), BuildingBlock: TEMPAE_clean_linker_10, # of connection points: 2
#     Edge 12, Type (0, 1), BuildingBlock: TEMPAE_clean_linker_10, # of connection points: 2
#     Edge 13, Type (0, 1), BuildingBlock: TEMPAE_clean_linker_10, # of connection points: 2
#     Edge 14, Type (0, 1), BuildingBlock: TEMPAE_clean_linker_10, # of connection points: 2
#     Edge 15, Type (0, 1), BuildingBlock: TEMPAE_clean_linker_10, # of connection points: 2
#     Edge 16, Type (0, 1), BuildingBlock: TEMPAE_clean_linker_10, # of connection points: 2
#     Edge 17, Type (0, 1), BuildingBlock: TEMPAE_clean_linker_10, # of connection points: 2
#     Edge 18, Type (0, 1), BuildingBlock: TEMPAE_clean_linker_10, # of connection points: 2
#     Edge 19, Type (0, 1), BuildingBlock: TEMPAE_clean_linker_10, # of connection points: 2
#     Edge 20, Type (0, 1), BuildingBlock: TEMPAE_clean_linker_10, # of connection points: 2
#     Edge 21, Type (0, 1), BuildingBlock: TEMPAE_clean_linker_10, # of connection points: 2
#     Edge 22, Type (0, 1), BuildingBlock: TEMPAE_clean_linker_10, # of connection points: 2
#     Edge 23, Type (0, 1), BuildingBlock: TEMPAE_clean_linker_10, # of connection points: 2
#     Edge 24, Type (0, 1), BuildingBlock: TEMPAE_clean_linker_10, # of connection points: 2
#     Edge 25, Type (0, 1), BuildingBlock: TEMPAE_clean_linker_10, # of connection points: 2
#     Edge 26, Type (0, 1), BuildingBlock: TEMPAE_clean_linker_10, # of connection points: 2
# Relax obj value: 0.135
# Max RMSD: 0.186
# Mean RMSD: 0.149
data_MOF--net-anh--node1-MIFKUJ_clean_sbu_0--node2-ESEHIV_clean_linker_0--edge1-TEMPAE_clean_linker_10
_symmetry_space_group_name_H-M    P1
_symmetry_Int_Tables_number       1
_symmetry_cell_setting            triclinic
loop_
_symmetry_equiv_pos_as_xyz
'x, y, z'
_cell_length_a     29.458298
_cell_length_b     29.444707
_cell_length_c     49.327388
_cell_angle_alpha  93.683182
_cell_angle_beta   90.784303
_cell_angle_gamma 120.02687
loop_
_atom_site_label
_atom_site_type_symbol
_atom_site_fract_x
_atom_site_fract_y
_atom_site_fract_z
_atom_type_partial_charge
Zn0 Zn 0.02575 0.59226 0.16915 0.0
Zn1 Zn 0.88302 0.48552 0.16997 0.0
C2 C 0.08621 0.54199 0.17196 0.0
O3 O 0.08933 0.55857 0.19765 0.0
C4 C 0.79024 0.48259 0.15032 0.0
O5 O 0.79087 0.44675 0.13328 0.0
O6 O 0.08718 0.66478 0.16828 0.0
O7 O 0.96761 0.58532 0.14479 0.0
O8 O 0.92113 0.50028 0.13507 0.0
C9 C 0.11304 0.6745 0.14689 0.0
O10 O 0.09441 0.6395 0.1258 0.0
O11 O 0.05616 0.54733 0.15528 0.0
C12 C 0.81394 0.38677 0.18957 0.0
O13 O 0.81071 0.41772 0.20891 0.0
O14 O 0.84382 0.40723 0.17028 0.0
O15 O 0.92443 0.51384 0.20631 0.0
O16 O 0.00736 0.57898 0.20776 0.0
O17 O 0.82767 0.50715 0.1683 0.0
C18 C 0.95059 0.54597 0.12753 0.0
C19 C 0.96717 0.54645 0.21957 0.0
Zn20 Zn 0.55529 0.06976 0.49601 0.0
Zn21 Zn 0.52644 0.93194 0.50102 0.0
C22 C 0.655 0.15203 0.51823 0.0
O23 O 0.62391 0.15995 0.53424 0.0
C24 C 0.42819 0.84068 0.49154 0.0
O25 O 0.4558 0.83668 0.47178 0.0
O26 O 0.53884 0.1269 0.49144 0.0
O27 O 0.53643 0.02809 0.45967 0.0
O28 O 0.52719 0.94914 0.46255 0.0
C29 C 0.56241 0.15726 0.47293 0.0
O30 O 0.5902 0.14548 0.45632 0.0
O31 O 0.63479 0.11133 0.50142 0.0
C32 C 0.55937 0.86666 0.52278 0.0
O33 O 0.53043 0.86849 0.54239 0.0
O34 O 0.56415 0.89185 0.50211 0.0
O35 O 0.56303 0.99133 0.53017 0.0
O36 O 0.52106 0.0351 0.53 0.0
O37 O 0.45028 0.88091 0.50862 0.0
C38 C 0.52888 0.98457 0.44858 0.0
C39 C 0.53691 0.0089 0.54254 0.0
Zn40 Zn 0.57653 0.48932 0.8326 0.0
Zn41 Zn 0.46505 0.51361 0.81997 0.0
C42 C 0.56827 0.39491 0.85253 0.0
O43 O 0.60307 0.42887 0.87118 0.0
C44 C 0.48896 0.61285 0.80889 0.0
O45 O 0.45753 0.58066 0.78864 0.0
O46 O 0.6545 0.52332 0.83685 0.0
O47 O 0.55735 0.49697 0.79465 0.0
O48 O 0.48545 0.49934 0.78316 0.0
C49 C 0.68854 0.5544 0.82143 0.0
O50 O 0.6734 0.56833 0.79985 0.0
O51 O 0.5494 0.41153 0.83488 0.0
C52 C 0.38164 0.51216 0.84284 0.0
O53 O 0.42095 0.53601 0.86114 0.0
O54 O 0.38928 0.49468 0.82013 0.0
O55 O 0.47233 0.47383 0.84988 0.0
O56 O 0.55464 0.5183 0.86444 0.0
O57 O 0.50339 0.59361 0.82733 0.0
C58 C 0.5269 0.49881 0.77681 0.0
C59 C 0.50664 0.50013 0.86892 0.0
H60 H 0.45363 0.88163 0.23466 0.0
H61 H 0.59997 0.02664 0.24783 0.0
H62 H 0.52591 0.97422 0.1674 0.0
C63 C 0.48642 0.9152 0.22657 0.0
C64 C 0.48531 0.92283 0.19879 0.0
C65 C 0.52775 0.95231 0.24437 0.0
C66 C 0.56927 0.99649 0.23395 0.0
C67 C 0.56904 0.00473 0.20624 0.0
C68 C 0.52694 0.9676 0.18871 0.0
H69 H 0.65482 0.62616 0.58762 0.0
H70 H 0.64218 0.47441 0.57672 0.0
H71 H 0.66858 0.56653 0.50822 0.0
C72 C 0.65776 0.59647 0.57483 0.0
C73 C 0.66529 0.60281 0.54699 0.0
C74 C 0.64874 0.55002 0.58567 0.0
C75 C 0.64972 0.51071 0.56854 0.0
C76 C 0.6569 0.51632 0.5406 0.0
C77 C 0.66452 0.56248 0.52988 0.0
H78 H 0.99277 0.6142 0.92313 0.0
H79 H 0.09883 0.55515 0.93264 0.0
H80 H 0.06642 0.58925 0.85362 0.0
C81 C 0.01972 0.60291 0.91457 0.0
C82 C 0.02646 0.6038 0.88643 0.0
C83 C 0.04533 0.58516 0.93151 0.0
C84 C 0.07924 0.56961 0.91998 0.0
C85 C 0.08748 0.57174 0.89201 0.0
C86 C 0.06113 0.58894 0.87534 0.0
H87 H 0.93429 0.44357 0.42132 0.0
H88 H 0.07625 0.59255 0.4253 0.0
H89 H 0.02429 0.50985 0.49776 0.0
C90 C 0.96778 0.47489 0.43327 0.0
C91 C 0.97374 0.47144 0.46131 0.0
C92 C 0.00403 0.51878 0.42043 0.0
C93 C 0.04762 0.55922 0.43554 0.0
C94 C 0.05582 0.55623 0.46335 0.0
C95 C 0.01879 0.51193 0.47621 0.0
H96 H 0.54237 0.08466 0.75366 0.0
H97 H 0.53744 0.93624 0.74723 0.0
H98 H 0.54791 0.01329 0.8263 0.0
C99 C 0.54278 0.05277 0.76332 0.0
C100 C 0.54599 0.05441 0.79184 0.0
C101 C 0.53907 0.01012 0.74713 0.0
C102 C 0.53944 0.96897 0.7597 0.0
C103 C 0.54299 0.96987 0.7882 0.0
C104 C 0.54507 0.01224 0.80432 0.0
H105 H 0.35854 0.50026 0.06746 0.0
H106 H 0.51125 0.51571 0.07202 0.0
H107 H 0.43771 0.52336 0.14568 0.0
C108 C 0.39227 0.50582 0.07953 0.0
C109 C 0.39293 0.51151 0.10805 0.0
C110 C 0.4348 0.50723 0.0665 0.0
C111 C 0.47832 0.5147 0.08215 0.0
C112 C 0.48004 0.52077 0.11064 0.0
C113 C 0.43698 0.51899 0.12366 0.0
C114 C 0.14916 0.51036 0.18027 0.0
C115 C 0.12491 0.52752 0.16214 0.0
C116 C 0.1913 0.50368 0.17255 0.0
C117 C 0.21038 0.51554 0.14624 0.0
C118 C 0.18512 0.53155 0.12759 0.0
C119 C 0.14232 0.53682 0.13568 0.0
C120 C 0.21639 0.48546 0.19282 0.0
C121 C 0.20473 0.54535 0.09948 0.0
C122 C 0.3529 0.55558 0.13529 0.0
C123 C 0.34736 0.51041 0.1209 0.0
C124 C 0.30862 0.55761 0.14395 0.0
C125 C 0.25785 0.51297 0.13851 0.0
C126 C 0.25245 0.46651 0.12496 0.0
C127 C 0.29726 0.46603 0.11603 0.0
C128 C 0.31598 0.60819 0.1579 0.0
C129 C 0.19924 0.41782 0.11926 0.0
H130 H 0.1358 0.50311 0.20075 0.0
H131 H 0.1242 0.55078 0.12169 0.0
H132 H 0.21871 0.45133 0.18362 0.0
H133 H 0.25713 0.51742 0.19846 0.0
H134 H 0.1944 0.474 0.21165 0.0
H135 H 0.17954 0.55519 0.08707 0.0
H136 H 0.24526 0.57965 0.10114 0.0
H137 H 0.20637 0.5121 0.08859 0.0
H138 H 0.39166 0.59009 0.13865 0.0
H139 H 0.29316 0.4312 0.10476 0.0
H140 H 0.29799 0.60085 0.17793 0.0
H141 H 0.29571 0.62351 0.14548 0.0
H142 H 0.35805 0.63898 0.16108 0.0
H143 H 0.17797 0.40677 0.13829 0.0
H144 H 0.20212 0.38381 0.1103 0.0
H145 H 0.17529 0.4259 0.10492 0.0
C146 C 0.74028 0.19186 0.49492 0.0
C147 C 0.70982 0.19529 0.51572 0.0
C148 C 0.78806 0.236 0.48917 0.0
C149 C 0.80591 0.28476 0.50457 0.0
C150 C 0.77716 0.28748 0.52677 0.0
C151 C 0.72955 0.24277 0.53209 0.0
C152 C 0.8174 0.23133 0.46529 0.0
C153 C 0.79499 0.33854 0.54383 0.0
C154 C 0.943 0.39922 0.49351 0.0
C155 C 0.93147 0.42593 0.47445 0.0
C156 C 0.90263 0.35361 0.50397 0.0
C157 C 0.8497 0.33415 0.49497 0.0
C158 C 0.83796 0.36173 0.47623 0.0
C159 C 0.87872 0.40744 0.46657 0.0
C160 C 0.91667 0.32551 0.52407 0.0
C161 C 0.78228 0.3424 0.46586 0.0
H162 H 0.72557 0.1554 0.4822 0.0
H163 H 0.70659 0.24586 0.54833 0.0
H164 H 0.81306 0.25229 0.44843 0.0
H165 H 0.85993 0.25006 0.47092 0.0
H166 H 0.8025 0.18967 0.45772 0.0
H167 H 0.76991 0.33352 0.56129 0.0
H168 H 0.83616 0.35511 0.5517 0.0
H169 H 0.79405 0.3678 0.53108 0.0
H170 H 0.98359 0.41304 0.49966 0.0
H171 H 0.86917 0.42851 0.45244 0.0
H172 H 0.90685 0.28613 0.51479 0.0
H173 H 0.89331 0.31923 0.54234 0.0
H174 H 0.95905 0.34768 0.53057 0.0
H175 H 0.76551 0.3026 0.45515 0.0
H176 H 0.77981 0.36893 0.45164 0.0
H177 H 0.75745 0.33902 0.48315 0.0
C178 C 0.53293 0.70464 0.83261 0.0
C179 C 0.50304 0.66902 0.81047 0.0
C180 C 0.54403 0.75729 0.83402 0.0
C181 C 0.52461 0.77443 0.81286 0.0
C182 C 0.4944 0.73848 0.79057 0.0
C183 C 0.4842 0.68657 0.78963 0.0
C184 C 0.57654 0.79456 0.85804 0.0
C185 C 0.47285 0.75485 0.7675 0.0
C186 C 0.50535 0.89284 0.81667 0.0
C187 C 0.5451 0.92612 0.80032 0.0
C188 C 0.50064 0.84477 0.82304 0.0
C189 C 0.5368 0.83014 0.81295 0.0
C190 C 0.5797 0.86605 0.79853 0.0
C191 C 0.5831 0.91341 0.79225 0.0
C192 C 0.45433 0.80771 0.83847 0.0
C193 C 0.61947 0.85251 0.7876 0.0
H194 H 0.54742 0.69139 0.84886 0.0
H195 H 0.46099 0.65954 0.77242 0.0
H196 H 0.61259 0.82814 0.85096 0.0
H197 H 0.5542 0.81107 0.86846 0.0
H198 H 0.58812 0.77505 0.87299 0.0
H199 H 0.44896 0.72172 0.75199 0.0
H200 H 0.44802 0.7706 0.77552 0.0
H201 H 0.5056 0.78672 0.75732 0.0
H202 H 0.47587 0.90261 0.82284 0.0
H203 H 0.61409 0.93944 0.77975 0.0
H204 H 0.46646 0.7894 0.85383 0.0
H205 H 0.42473 0.77552 0.82408 0.0
H206 H 0.43538 0.82802 0.84886 0.0
H207 H 0.632 0.83492 0.80318 0.0
H208 H 0.65476 0.88757 0.78091 0.0
H209 H 0.60134 0.82293 0.76988 0.0
C210 C 0.70736 0.4682 0.12744 0.0
C211 C 0.74567 0.49267 0.14888 0.0
C212 C 0.66461 0.47659 0.12557 0.0
C213 C 0.65962 0.51011 0.14572 0.0
C214 C 0.69776 0.53452 0.16763 0.0
C215 C 0.74049 0.52568 0.16891 0.0
C216 C 0.62508 0.45003 0.10172 0.0
C217 C 0.69361 0.57022 0.18957 0.0
C218 C 0.57704 0.56405 0.11849 0.0
C219 C 0.52679 0.5268 0.12585 0.0
C220 C 0.6215 0.56166 0.12672 0.0
C221 C 0.61558 0.52103 0.14275 0.0
C222 C 0.56558 0.48632 0.15234 0.0
C223 C 0.52161 0.4896 0.14374 0.0
C224 C 0.67394 0.59968 0.1161 0.0
C225 C 0.55768 0.44288 0.16974 0.0
H226 H 0.7109 0.44261 0.11188 0.0
H227 H 0.76973 0.54449 0.18565 0.0
H228 H 0.58515 0.42575 0.1091 0.0
H229 H 0.62429 0.48017 0.08964 0.0
H230 H 0.63407 0.42436 0.08807 0.0
H231 H 0.7251 0.58425 0.20592 0.0
H232 H 0.69606 0.60491 0.18059 0.0
H233 H 0.65495 0.54928 0.19878 0.0
H234 H 0.58107 0.59305 0.10478 0.0
H235 H 0.48277 0.46061 0.14933 0.0
H236 H 0.68426 0.5787 0.10006 0.0
H237 H 0.70533 0.61544 0.13254 0.0
H238 H 0.67343 0.63319 0.10725 0.0
H239 H 0.55918 0.4113 0.15694 0.0
H240 H 0.51921 0.4254 0.17931 0.0
H241 H 0.58943 0.45769 0.18595 0.0
C242 C 0.34345 0.79712 0.51577 0.0
C243 C 0.37227 0.79927 0.49296 0.0
C244 C 0.29028 0.75774 0.51665 0.0
C245 C 0.26529 0.72025 0.49404 0.0
C246 C 0.29447 0.72213 0.47113 0.0
C247 C 0.34744 0.76126 0.47097 0.0
C248 C 0.26072 0.75658 0.54157 0.0
C249 C 0.26944 0.68343 0.44641 0.0
C250 C 0.13893 0.58833 0.49208 0.0
C251 C 0.1045 0.59937 0.47788 0.0
C252 C 0.19057 0.6285 0.49987 0.0
C253 C 0.208 0.68064 0.49312 0.0
C254 C 0.17171 0.69259 0.4811 0.0
C255 C 0.12042 0.65189 0.47377 0.0
C256 C 0.22764 0.61422 0.51317 0.0
C257 C 0.18828 0.74745 0.47353 0.0
H258 H 0.36243 0.82612 0.53294 0.0
H259 H 0.36921 0.76251 0.45322 0.0
H260 H 0.2292 0.76516 0.53628 0.0
H261 H 0.2415 0.71675 0.5491 0.0
H262 H 0.28672 0.78573 0.55825 0.0
H263 H 0.29779 0.68972 0.43044 0.0
H264 H 0.25262 0.64257 0.45232 0.0
H265 H 0.23671 0.68709 0.43752 0.0
H266 H 0.12685 0.54784 0.49534 0.0
H267 H 0.09358 0.66071 0.4632 0.0
H268 H 0.2526 0.64451 0.52964 0.0
H269 H 0.25406 0.61246 0.49784 0.0
H270 H 0.20622 0.57534 0.52175 0.0
H271 H 0.21172 0.7771 0.49053 0.0
H272 H 0.15407 0.75182 0.46796 0.0
H273 H 0.2135 0.75636 0.45586 0.0
C274 C 0.58243 0.32268 0.86727 0.0
C275 C 0.55724 0.3397 0.84959 0.0
C276 C 0.57839 0.27318 0.86237 0.0
C277 C 0.5486 0.23995 0.83919 0.0
C278 C 0.52049 0.25556 0.82224 0.0
C279 C 0.52508 0.30514 0.82766 0.0
C280 C 0.60855 0.25785 0.88109 0.0
C281 C 0.48808 0.22126 0.79737 0.0
C282 C 0.59016 0.15157 0.80152 0.0
C283 C 0.55134 0.10142 0.80782 0.0
C284 C 0.59106 0.19701 0.81267 0.0
C285 C 0.55201 0.19228 0.83057 0.0
C286 C 0.5144 0.14187 0.83824 0.0
C287 C 0.51458 0.09687 0.82678 0.0
C288 C 0.63226 0.2499 0.80413 0.0
C289 C 0.47233 0.13521 0.85735 0.0
H290 H 0.60705 0.34885 0.88441 0.0
H291 H 0.50512 0.31766 0.81398 0.0
H292 H 0.58356 0.21667 0.88632 0.0
H293 H 0.6426 0.26006 0.8706 0.0
H294 H 0.62338 0.28411 0.9002 0.0
H295 H 0.46447 0.23651 0.78789 0.0
H296 H 0.51441 0.21926 0.78206 0.0
H297 H 0.46117 0.18054 0.80269 0.0
H298 H 0.61885 0.15507 0.787 0.0
H299 H 0.48437 0.05805 0.83153 0.0
H300 H 0.6527 0.27766 0.82227 0.0
H301 H 0.61318 0.2669 0.79206 0.0
H302 H 0.662 0.24711 0.79164 0.0
H303 H 0.48962 0.16377 0.8755 0.0
H304 H 0.45068 0.09476 0.86413 0.0
H305 H 0.44383 0.14332 0.84692 0.0
C306 C 0.56932 0.79731 0.54376 0.0
C307 C 0.58372 0.83359 0.52404 0.0
C308 C 0.58976 0.76351 0.54435 0.0
C309 C 0.62601 0.76661 0.52494 0.0
C310 C 0.64187 0.80413 0.50543 0.0
C311 C 0.62022 0.83704 0.50508 0.0
C312 C 0.57165 0.72368 0.56541 0.0
C313 C 0.68106 0.80896 0.48475 0.0
C314 C 0.69757 0.69888 0.54812 0.0
C315 C 0.66531 0.64801 0.53574 0.0
C316 C 0.68842 0.73982 0.54272 0.0
C317 C 0.64555 0.72904 0.52489 0.0
C318 C 0.61603 0.67894 0.51045 0.0
C319 C 0.62649 0.63892 0.51598 0.0
C320 C 0.72151 0.7931 0.55802 0.0
C321 C 0.56991 0.66591 0.49132 0.0
H322 H 0.54111 0.79446 0.55842 0.0
H323 H 0.63173 0.86532 0.48989 0.0
H324 H 0.55248 0.68327 0.55519 0.0
H325 H 0.60583 0.72931 0.57801 0.0
H326 H 0.54344 0.72664 0.5791 0.0
H327 H 0.69187 0.8425 0.47212 0.0
H328 H 0.71725 0.81425 0.49512 0.0
H329 H 0.66446 0.77223 0.4711 0.0
H330 H 0.72785 0.70579 0.56327 0.0
H331 H 0.60134 0.59942 0.50656 0.0
H332 H 0.69918 0.7977 0.57486 0.0
H333 H 0.731 0.82509 0.54452 0.0
H334 H 0.75871 0.79793 0.56686 0.0
H335 H 0.53685 0.66234 0.50333 0.0
H336 H 0.55627 0.62828 0.47872 0.0
H337 H 0.58009 0.69773 0.47763 0.0
C338 C 0.75878 0.5549 0.85016 0.0
C339 C 0.74457 0.57232 0.82748 0.0
C340 C 0.81089 0.56871 0.85588 0.0
C341 C 0.85014 0.60111 0.83857 0.0
C342 C 0.83654 0.62007 0.816 0.0
C343 C 0.78367 0.60522 0.81062 0.0
C344 C 0.82365 0.54755 0.88022 0.0
C345 C 0.8775 0.655 0.79728 0.0
C346 C 0.98077 0.65343 0.876 0.0
C347 C 0.99158 0.61316 0.86863 0.0
C348 C 0.93769 0.65382 0.86385 0.0
C349 C 0.9047 0.61273 0.8441 0.0
C350 C 0.91913 0.57568 0.83437 0.0
C351 C 0.96254 0.57635 0.84678 0.0
C352 C 0.92429 0.69474 0.87434 0.0
C353 C 0.88521 0.5314 0.81323 0.0
H354 H 0.72894 0.52961 0.86338 0.0
H355 H 0.77297 0.61891 0.79308 0.0
H356 H 0.84069 0.52285 0.87346 0.0
H357 H 0.85334 0.58051 0.8942 0.0
H358 H 0.78852 0.52341 0.8918 0.0
H359 H 0.86168 0.67151 0.78269 0.0
H360 H 0.91161 0.68794 0.8092 0.0
H361 H 0.89221 0.63202 0.78555 0.0
H362 H 0.0039 0.68257 0.89254 0.0
H363 H 0.97071 0.54511 0.841 0.0
H364 H 0.89304 0.67744 0.88907 0.0
H365 H 0.90914 0.70766 0.85755 0.0
H366 H 0.95886 0.72972 0.88487 0.0
H367 H 0.85021 0.50108 0.82286 0.0
H368 H 0.90658 0.5124 0.80423 0.0
H369 H 0.8711 0.54574 0.79666 0.0
C370 C 0.18915 0.75305 0.17135 0.0
C371 C 0.16776 0.71861 0.14782 0.0
C372 C 0.24311 0.78888 0.17467 0.0
C373 C 0.27643 0.79051 0.15386 0.0
C374 C 0.25468 0.75844 0.12927 0.0
C375 C 0.20047 0.72271 0.12654 0.0
C376 C 0.26481 0.8227 0.20119 0.0
C377 C 0.28885 0.75946 0.10653 0.0
C378 C 0.41282 0.9084 0.16616 0.0
C379 C 0.43715 0.88734 0.18159 0.0
C380 C 0.36153 0.87631 0.15484 0.0
C381 C 0.33414 0.8222 0.1593 0.0
C382 C 0.36027 0.79999 0.17273 0.0
C383 C 0.41159 0.83289 0.18367 0.0
C384 C 0.3353 0.90114 0.14012 0.0
C385 C 0.33259 0.74228 0.17762 0.0
H386 H 0.16408 0.75041 0.18778 0.0
H387 H 0.18421 0.69635 0.10821 0.0
H388 H 0.28974 0.81085 0.21232 0.0
H389 H 0.28996 0.86463 0.19727 0.0
H390 H 0.23332 0.81922 0.21453 0.0
H391 H 0.26547 0.74007 0.08713 0.0
H392 H 0.31911 0.80047 0.10323 0.0
H393 H 0.30963 0.7384 0.11207 0.0
H394 H 0.43235 0.95052 0.16455 0.0
H395 H 0.43074 0.81644 0.1952 0.0
H396 H 0.30763 0.90534 0.15365 0.0
H397 H 0.31224 0.87589 0.12169 0.0
H398 H 0.36428 0.94075 0.13404 0.0
H399 H 0.30288 0.73424 0.19301 0.0
H400 H 0.36023 0.73 0.18511 0.0
H401 H 0.31154 0.71766 0.15869 0.0
C402 C 0.54227 0.22422 0.49356 0.0
C403 C 0.56859 0.21031 0.47426 0.0
C404 C 0.55591 0.27684 0.49924 0.0
C405 C 0.59679 0.31633 0.48525 0.0
C406 C 0.62037 0.30213 0.46413 0.0
C407 C 0.60587 0.24909 0.45881 0.0
C408 C 0.52933 0.29047 0.5217 0.0
C409 C 0.66305 0.34328 0.44835 0.0
C410 C 0.61405 0.45198 0.50006 0.0
C411 C 0.64991 0.47089 0.52265 0.0
C412 C 0.59865 0.40283 0.48631 0.0
C413 C 0.61955 0.37221 0.49557 0.0
C414 C 0.65868 0.39299 0.51708 0.0
C415 C 0.67349 0.44221 0.53031 0.0
C416 C 0.55703 0.38214 0.46341 0.0
C417 C 0.68203 0.36161 0.52759 0.0
H418 H 0.51292 0.19436 0.50532 0.0
H419 H 0.62596 0.23854 0.44361 0.0
H420 H 0.55752 0.31065 0.53949 0.0
H421 H 0.51681 0.3179 0.51493 0.0
H422 H 0.49446 0.25502 0.5284 0.0
H423 H 0.67829 0.32584 0.43292 0.0
H424 H 0.64775 0.36551 0.43789 0.0
H425 H 0.69612 0.37206 0.46247 0.0
H426 H 0.59544 0.47394 0.49424 0.0
H427 H 0.70166 0.45719 0.54759 0.0
H428 H 0.51858 0.35388 0.47116 0.0
H429 H 0.56562 0.36083 0.44677 0.0
H430 H 0.55336 0.41428 0.45493 0.0
H431 H 0.65228 0.32917 0.53883 0.0
H432 H 0.71712 0.3862 0.54154 0.0
H433 H 0.69324 0.3435 0.51053 0.0
C434 C 0.29115 0.49213 0.82803 0.0
C435 C 0.33191 0.51099 0.84817 0.0
C436 C 0.24611 0.49587 0.83264 0.0
C437 C 0.24237 0.51948 0.8578 0.0
C438 C 0.28264 0.5369 0.87846 0.0
C439 C 0.32666 0.53209 0.87345 0.0
C440 C 0.20332 0.476 0.81039 0.0
C441 C 0.28025 0.56247 0.90557 0.0
C442 C 0.16479 0.58969 0.86508 0.0
C443 C 0.12336 0.55536 0.88024 0.0
C444 C 0.2025 0.57713 0.85627 0.0
C445 C 0.19795 0.52875 0.86246 0.0
C446 C 0.15427 0.49254 0.87629 0.0
C447 C 0.11767 0.50655 0.88529 0.0
C448 C 0.24895 0.6171 0.84191 0.0
C449 C 0.14763 0.44021 0.8828 0.0
H450 H 0.29493 0.47556 0.80851 0.0
H451 H 0.35774 0.5463 0.88924 0.0
H452 H 0.16453 0.44987 0.81853 0.0
H453 H 0.20171 0.50968 0.80257 0.0
H454 H 0.20975 0.45407 0.79313 0.0
H455 H 0.31429 0.5726 0.91969 0.0
H456 H 0.27944 0.59904 0.90241 0.0
H457 H 0.24371 0.53585 0.91546 0.0
H458 H 0.16905 0.62746 0.86126 0.0
H459 H 0.08505 0.47974 0.8967 0.0
H460 H 0.25496 0.59836 0.82314 0.0
H461 H 0.28505 0.63296 0.85534 0.0
H462 H 0.24411 0.65049 0.8364 0.0
H463 H 0.15406 0.42029 0.86463 0.0
H464 H 0.10803 0.41365 0.89005 0.0
H465 H 0.17737 0.44662 0.89891 0.0
C466 C 0.7826 0.29595 0.16808 0.0
C467 C 0.78169 0.32894 0.18967 0.0
C468 C 0.75077 0.24107 0.16755 0.0
C469 C 0.7174 0.21884 0.1891 0.0
C470 C 0.71683 0.25189 0.21109 0.0
C471 C 0.74898 0.30655 0.2111 0.0
C472 C 0.75236 0.20694 0.14381 0.0
C473 C 0.6818 0.22953 0.23451 0.0
C474 C 0.59403 0.0852 0.18201 0.0
C475 C 0.60935 0.05567 0.19689 0.0
C476 C 0.6299 0.13772 0.17775 0.0
C477 C 0.68214 0.16107 0.18872 0.0
C478 C 0.69874 0.13029 0.20202 0.0
C479 C 0.66207 0.07785 0.20594 0.0
C480 C 0.61084 0.16924 0.16331 0.0
C481 C 0.75424 0.15369 0.21378 0.0
H482 H 0.80782 0.31299 0.15143 0.0
H483 H 0.74815 0.33175 0.22786 0.0
H484 H 0.76196 0.17777 0.15119 0.0
H485 H 0.71313 0.18451 0.13298 0.0
H486 H 0.78168 0.23031 0.12908 0.0
H487 H 0.68667 0.2606 0.25024 0.0
H488 H 0.64008 0.20717 0.22689 0.0
H489 H 0.69055 0.20163 0.24424 0.0
H490 H 0.55323 0.0684 0.17519 0.0
H491 H 0.67408 0.05481 0.21717 0.0
H492 H 0.63866 0.19204 0.14792 0.0
H493 H 0.60876 0.19789 0.17825 0.0
H494 H 0.57131 0.14384 0.15306 0.0
H495 H 0.78292 0.17646 0.1987 0.0
H496 H 0.76257 0.12307 0.22033 0.0
H497 H 0.76055 0.18137 0.23169 0.0
C498 C 0.98899 0.60185 0.08885 0.0
C499 C 0.96921 0.55291 0.09963 0.0
C500 C 0.00461 0.60852 0.06198 0.0
C501 C 0.00094 0.56537 0.04566 0.0
C502 C 0.98269 0.51634 0.05674 0.0
C503 C 0.96656 0.51056 0.08354 0.0
C504 C 0.02333 0.66124 0.05079 0.0
C505 C 0.9792 0.46972 0.0401 0.0
C506 C 0.98325 0.56245 0.96923 0.0
C507 C 0.03444 0.58036 0.96089 0.0
C508 C 0.97207 0.55793 0.99676 0.0
C509 C 0.01281 0.57051 0.01648 0.0
C510 C 0.06444 0.58787 0.00829 0.0
C511 C 0.07474 0.59298 0.9806 0.0
C512 C 0.91654 0.53965 0.00472 0.0
C513 C 0.10871 0.60095 0.02878 0.0
H514 H 0.99108 0.63469 0.10124 0.0
H515 H 0.95185 0.4728 0.09189 0.0
H516 H 0.06235 0.67551 0.0422 0.0
H517 H 0.99574 0.65706 0.03398 0.0
H518 H 0.02627 0.69147 0.06652 0.0
H519 H 0.96802 0.43562 0.05236 0.0
H520 H 0.94962 0.45725 0.02294 0.0
H521 H 0.01743 0.48077 0.03122 0.0
H522 H 0.95155 0.55131 0.95417 0.0
H523 H 0.11449 0.60732 0.97441 0.0
H524 H 0.91604 0.56937 0.01954 0.0
H525 H 0.90105 0.50249 0.01483 0.0
H526 H 0.8897 0.53288 0.98695 0.0
H527 H 0.11429 0.63345 0.04366 0.0
H528 H 0.1464 0.61282 0.01903 0.0
H529 H 0.09878 0.56639 0.04041 0.0
C530 C 0.53454 0.01704 0.40241 0.0
C531 C 0.52433 0.97574 0.41854 0.0
C532 C 0.53335 0.01004 0.37398 0.0
C533 C 0.52135 0.96045 0.36138 0.0
C534 C 0.50989 0.91827 0.37745 0.0
C535 C 0.51163 0.92643 0.40586 0.0
C536 C 0.54582 0.05598 0.35745 0.0
C537 C 0.49647 0.86473 0.36466 0.0
C538 C 0.4778 0.93604 0.28668 0.0
C539 C 0.52477 0.9486 0.27422 0.0
C540 C 0.47565 0.93798 0.31506 0.0
C541 C 0.52168 0.95322 0.33135 0.0
C542 C 0.56878 0.96427 0.31893 0.0
C543 C 0.56973 0.96173 0.29047 0.0
C544 C 0.42467 0.92574 0.32761 0.0
C545 C 0.61862 0.98055 0.33569 0.0
H546 H 0.54443 0.05527 0.41199 0.0
H547 H 0.50341 0.89418 0.41813 0.0
H548 H 0.58091 0.06567 0.34565 0.0
H549 H 0.51273 0.0454 0.34261 0.0
H550 H 0.5535 0.09169 0.37036 0.0
H551 H 0.48684 0.83559 0.37999 0.0
H552 H 0.46248 0.84968 0.34979 0.0
H553 H 0.53004 0.86787 0.35331 0.0
H554 H 0.44311 0.92673 0.27427 0.0
H555 H 0.60596 0.97098 0.28091 0.0
H556 H 0.42899 0.96192 0.33855 0.0
H557 H 0.41467 0.89629 0.34276 0.0
H558 H 0.39149 0.91039 0.31215 0.0
H559 H 0.63122 0.01856 0.34764 0.0
H560 H 0.65118 0.9851 0.3229 0.0
H561 H 0.61158 0.95102 0.3504 0.0
C562 C 0.58066 0.49036 0.74035 0.0
C563 C 0.54141 0.50157 0.74815 0.0
C564 C 0.59806 0.49656 0.71386 0.0
C565 C 0.57598 0.5148 0.69475 0.0
C566 C 0.53574 0.52535 0.70229 0.0
C567 C 0.51871 0.51835 0.72892 0.0
C568 C 0.64063 0.48435 0.70645 0.0
C569 C 0.51157 0.54519 0.68241 0.0
C570 C 0.65649 0.58057 0.63503 0.0
C571 C 0.63231 0.54027 0.61401 0.0
C572 C 0.63848 0.57284 0.66144 0.0
C573 C 0.59559 0.5235 0.66695 0.0
C574 C 0.57159 0.48239 0.64597 0.0
C575 C 0.59003 0.49136 0.61972 0.0
C576 C 0.66498 0.61761 0.68337 0.0
C577 C 0.52599 0.42914 0.65117 0.0
H578 H 0.59824 0.47711 0.75506 0.0
H579 H 0.48866 0.52743 0.73487 0.0
H580 H 0.627 0.45487 0.68863 0.0
H581 H 0.67574 0.52043 0.70057 0.0
H582 H 0.6525 0.46892 0.72348 0.0
H583 H 0.47997 0.55054 0.69132 0.0
H584 H 0.54227 0.58345 0.67574 0.0
H585 H 0.49497 0.51725 0.66399 0.0
H586 H 0.68939 0.61829 0.63077 0.0
H587 H 0.57036 0.46037 0.60347 0.0
H588 H 0.68079 0.60567 0.70032 0.0
H589 H 0.63593 0.62736 0.69187 0.0
H590 H 0.69764 0.65361 0.67568 0.0
H591 H 0.53719 0.41227 0.66772 0.0
H592 H 0.5127 0.4009 0.63279 0.0
H593 H 0.49245 0.43333 0.65798 0.0
C594 C 0.50312 0.02418 0.58665 0.0
C595 C 0.53297 0.00645 0.57241 0.0
C596 C 0.5009 0.02353 0.61508 0.0
C597 C 0.52962 0.00524 0.62958 0.0
C598 C 0.55916 0.9866 0.61527 0.0
C599 C 0.56022 0.98714 0.58689 0.0
C600 C 0.46837 0.04301 0.62965 0.0
C601 C 0.59066 0.96716 0.62999 0.0
C602 C 0.57096 0.05326 0.7039 0.0
C603 C 0.53575 0.00911 0.71705 0.0
C604 C 0.56897 0.05272 0.67545 0.0
C605 C 0.5304 0.00712 0.6598 0.0
C606 C 0.49413 0.96272 0.67301 0.0
C607 C 0.49749 0.96411 0.7015 0.0
C608 C 0.60881 0.10057 0.66211 0.0
C609 C 0.45205 0.91365 0.65703 0.0
H610 H 0.48166 0.0388 0.57562 0.0
H611 H 0.58333 0.97326 0.5761 0.0
H612 H 0.44007 0.01244 0.64232 0.0
H613 H 0.49419 0.07826 0.64355 0.0
H614 H 0.44625 0.05344 0.61532 0.0
H615 H 0.61067 0.95291 0.61579 0.0
H616 H 0.62081 0.99937 0.64415 0.0
H617 H 0.56475 0.93463 0.64238 0.0
H618 H 0.60085 0.08792 0.7159 0.0
H619 H 0.46987 0.93016 0.71169 0.0
H620 H 0.58859 0.11488 0.64894 0.0
H621 H 0.6328 0.08994 0.64887 0.0
H622 H 0.63554 0.13325 0.67721 0.0
H623 H 0.42831 0.92367 0.64364 0.0
H624 H 0.42541 0.88347 0.67042 0.0
H625 H 0.47041 0.89627 0.64369 0.0
C626 C 0.52816 0.53603 0.91755 0.0
C627 C 0.49072 0.50264 0.89702 0.0
C628 C 0.51424 0.53691 0.94455 0.0
C629 C 0.46168 0.5034 0.95118 0.0
C630 C 0.42334 0.47077 0.93045 0.0
C631 C 0.43833 0.47077 0.90359 0.0
C632 C 0.55614 0.57267 0.9661 0.0
C633 C 0.36693 0.43453 0.93677 0.0
C634 C 0.44855 0.46661 0.02387 0.0
C635 C 0.43489 0.50176 0.0365 0.0
C636 C 0.45502 0.46512 0.99583 0.0
C637 C 0.44807 0.49997 0.98012 0.0
C638 C 0.43198 0.53394 0.99256 0.0
C639 C 0.42535 0.53428 0.02069 0.0
C640 C 0.47142 0.42776 0.98323 0.0
C641 C 0.42433 0.57171 0.97643 0.0
H642 H 0.56859 0.56113 0.91257 0.0
H643 H 0.40913 0.4449 0.88782 0.0
H644 H 0.54351 0.59743 0.97789 0.0
H645 H 0.56219 0.54866 0.98061 0.0
H646 H 0.59429 0.59884 0.95731 0.0
H647 H 0.3411 0.41526 0.91806 0.0
H648 H 0.3646 0.4035 0.94928 0.0
H649 H 0.35161 0.45658 0.94884 0.0
H650 H 0.45528 0.44102 0.03611 0.0
H651 H 0.41505 0.56165 0.03053 0.0
H652 H 0.51166 0.45052 0.97594 0.0
H653 H 0.4449 0.40421 0.96533 0.0
H654 H 0.47109 0.40042 0.99784 0.0
H655 H 0.46282 0.60217 0.96969 0.0
H656 H 0.4068 0.59166 0.98852 0.0
H657 H 0.3987 0.55081 0.95787 0.0
C658 C 0.9258 0.51969 0.26416 0.0
C659 C 0.97115 0.54452 0.24938 0.0
C660 C 0.92928 0.51585 0.29226 0.0
C661 C 0.97924 0.53642 0.30575 0.0
C662 C 0.02512 0.56161 0.29096 0.0
C663 C 0.02054 0.5658 0.26301 0.0
C664 C 0.87953 0.48956 0.30747 0.0
C665 C 0.07906 0.58325 0.30453 0.0
C666 C 0.99721 0.56736 0.38237 0.0
C667 C 0.99632 0.52261 0.39114 0.0
C668 C 0.99045 0.57184 0.35465 0.0
C669 C 0.98369 0.53102 0.33529 0.0
C670 C 0.9827 0.48569 0.34409 0.0
C671 C 0.98855 0.48182 0.37198 0.0
C672 C 0.99077 0.62032 0.34609 0.0
C673 C 0.97654 0.44179 0.32401 0.0
H674 H 0.88752 0.50335 0.25377 0.0
H675 H 0.05577 0.58463 0.25171 0.0
H676 H 0.87581 0.45423 0.31632 0.0
H677 H 0.8811 0.51671 0.32462 0.0
H678 H 0.84389 0.47738 0.29419 0.0
H679 H 0.11081 0.60153 0.29011 0.0
H680 H 0.08578 0.61321 0.32132 0.0
H681 H 0.08192 0.55121 0.31363 0.0
H682 H 0.00275 0.59866 0.39728 0.0
H683 H 0.98824 0.4474 0.37882 0.0
H684 H 0.95427 0.60882 0.33377 0.0
H685 H 0.02422 0.64207 0.33309 0.0
H686 H 0.99404 0.64732 0.36378 0.0
H687 H 0.93948 0.42582 0.3114 0.0
H688 H 0.9762 0.40906 0.3342 0.0
H689 H 0.00923 0.45728 0.31001 0.0
loop_
_geom_bond_atom_site_label_1
_geom_bond_atom_site_label_2
_geom_bond_distance
_geom_bond_site_symmetry_2
_ccdc_geom_bond_type
Zn0 O6 1.969 . S
Zn0 O7 1.965 . S
Zn0 O11 2.024 . S
Zn0 O16 1.969 . S
Zn1 O8 1.969 . S
Zn1 O14 1.969 . S
Zn1 O15 1.965 . S
Zn1 O17 2.024 . S
C2 O3 1.229 . S
C2 O11 1.058 . S
O3 C2 1.229 . S
C4 O5 1.229 . S
C4 O17 1.058 . S
O5 C4 1.229 . S
O6 Zn0 1.969 . S
O6 C9 1.267 . S
O7 Zn0 1.965 . S
O7 C18 1.260 1_455 S
O8 Zn1 1.969 . S
O8 C18 1.258 . S
C9 O6 1.267 . S
C9 O10 1.228 . S
O10 C9 1.228 . S
O11 Zn0 2.024 . S
O11 C2 1.058 . S
C12 O13 1.228 . S
C12 O14 1.267 . S
O13 C12 1.228 . S
O14 Zn1 1.969 . S
O14 C12 1.267 . S
O15 Zn1 1.965 . S
O15 C19 1.260 1_655 S
O16 Zn0 1.969 . S
O16 C19 1.258 . S
O17 Zn1 2.024 . S
O17 C4 1.058 . S
C18 O7 1.260 1_655 S
C18 O8 1.258 . S
C19 O15 1.260 1_455 S
C19 O16 1.258 . S
Zn20 O26 1.969 . S
Zn20 O27 1.965 . S
Zn20 O31 2.024 . S
Zn20 O36 1.969 . S
Zn21 O28 1.969 . S
Zn21 O34 1.969 . S
Zn21 O35 1.965 . S
Zn21 O37 2.024 . S
C22 O23 1.229 . S
C22 O31 1.058 . S
O23 C22 1.229 . S
C24 O25 1.229 . S
C24 O37 1.058 . S
O25 C24 1.229 . S
O26 Zn20 1.969 . S
O26 C29 1.267 . S
O27 Zn20 1.965 . S
O27 C38 1.260 . S
O28 Zn21 1.969 . S
O28 C38 1.258 1_565 S
C29 O26 1.267 . S
C29 O30 1.228 . S
O30 C29 1.228 . S
O31 Zn20 2.024 . S
O31 C22 1.058 . S
C32 O33 1.228 . S
C32 O34 1.267 . S
O33 C32 1.228 . S
O34 Zn21 1.969 . S
O34 C32 1.267 . S
O35 Zn21 1.965 . S
O35 C39 1.260 1_565 S
O36 Zn20 1.969 . S
O36 C39 1.258 . S
O37 Zn21 2.024 . S
O37 C24 1.058 . S
C38 O27 1.260 . S
C38 O28 1.258 1_545 S
C39 O35 1.260 1_545 S
C39 O36 1.258 . S
Zn40 O46 1.969 . S
Zn40 O47 1.965 . S
Zn40 O51 2.024 . S
Zn40 O56 1.969 . S
Zn41 O48 1.969 . S
Zn41 O54 1.969 . S
Zn41 O55 1.965 . S
Zn41 O57 2.024 . S
C42 O43 1.229 . S
C42 O51 1.058 . S
O43 C42 1.229 . S
C44 O45 1.229 . S
C44 O57 1.058 . S
O45 C44 1.229 . S
O46 Zn40 1.969 . S
O46 C49 1.267 . S
O47 Zn40 1.965 . S
O47 C58 1.260 . S
O48 Zn41 1.969 . S
O48 C58 1.258 . S
C49 O46 1.267 . S
C49 O50 1.228 . S
O50 C49 1.228 . S
O51 Zn40 2.024 . S
O51 C42 1.058 . S
C52 O53 1.228 . S
C52 O54 1.267 . S
O53 C52 1.228 . S
O54 Zn41 1.969 . S
O54 C52 1.267 . S
O55 Zn41 1.965 . S
O55 C59 1.260 . S
O56 Zn40 1.969 . S
O56 C59 1.258 . S
O57 Zn41 2.024 . S
O57 C44 1.058 . S
C58 O47 1.260 . S
C58 O48 1.258 . S
C59 O55 1.260 . S
C59 O56 1.258 . S
H60 C63 0.931 . S
H61 C66 0.928 . S
H62 C68 0.930 . S
C63 H60 0.931 . S
C63 C64 1.413 . S
C63 C65 1.360 1_565 S
C64 C63 1.413 . S
C64 C68 1.429 1_565 S
C65 C63 1.360 1_545 S
C65 C66 1.372 . S
C66 H61 0.928 . S
C66 C65 1.372 . S
C66 C67 1.404 . S
C67 C66 1.404 . S
C67 C68 1.391 . S
C68 H62 0.930 . S
C68 C64 1.429 1_545 S
C68 C67 1.391 . S
H69 C72 0.931 . S
H70 C75 0.928 . S
H71 C77 0.930 . S
C72 H69 0.931 . S
C72 C73 1.413 . S
C72 C74 1.360 . S
C73 C72 1.413 . S
C73 C77 1.429 . S
C74 C72 1.360 . S
C74 C75 1.372 . S
C75 H70 0.928 . S
C75 C74 1.372 . S
C75 C76 1.404 . S
C76 C75 1.404 . S
C76 C77 1.391 . S
C77 H71 0.930 . S
C77 C73 1.429 . S
C77 C76 1.391 . S
H78 C81 0.931 . S
H79 C84 0.928 . S
H80 C86 0.930 . S
C81 H78 0.931 . S
C81 C82 1.413 . S
C81 C83 1.360 1_655 S
C82 C81 1.413 . S
C82 C86 1.429 1_655 S
C83 C81 1.360 1_455 S
C83 C84 1.372 . S
C84 H79 0.928 . S
C84 C83 1.372 . S
C84 C85 1.404 . S
C85 C84 1.404 . S
C85 C86 1.391 . S
C86 H80 0.930 . S
C86 C82 1.429 1_455 S
C86 C85 1.391 . S
H87 C90 0.931 . S
H88 C93 0.928 . S
H89 C95 0.930 . S
C90 H87 0.931 . S
C90 C91 1.413 . S
C90 C92 1.360 1_655 S
C91 C90 1.413 . S
C91 C95 1.429 1_655 S
C92 C90 1.360 1_455 S
C92 C93 1.372 . S
C93 H88 0.928 . S
C93 C92 1.372 . S
C93 C94 1.404 . S
C94 C93 1.404 . S
C94 C95 1.391 . S
C95 H89 0.930 . S
C95 C91 1.429 1_455 S
C95 C94 1.391 . S
H96 C99 0.931 . S
H97 C102 0.928 . S
H98 C104 0.930 . S
C99 H96 0.931 . S
C99 C100 1.413 . S
C99 C101 1.360 . S
C100 C99 1.413 . S
C100 C104 1.429 . S
C101 C99 1.360 . S
C101 C102 1.372 1_545 S
C102 H97 0.928 . S
C102 C101 1.372 1_565 S
C102 C103 1.404 . S
C103 C102 1.404 . S
C103 C104 1.391 1_565 S
C104 H98 0.930 . S
C104 C100 1.429 . S
C104 C103 1.391 1_545 S
H105 C108 0.931 . S
H106 C111 0.928 . S
H107 C113 0.930 . S
C108 H105 0.931 . S
C108 C109 1.413 . S
C108 C110 1.360 . S
C109 C108 1.413 . S
C109 C113 1.429 . S
C110 C108 1.360 . S
C110 C111 1.372 . S
C111 H106 0.928 . S
C111 C110 1.372 . S
C111 C112 1.404 . S
C112 C111 1.404 . S
C112 C113 1.391 . S
C113 H107 0.930 . S
C113 C109 1.429 . S
C113 C112 1.391 . S
C114 C115 1.391 . S
C114 C116 1.394 . S
C114 H130 0.931 . S
C115 C114 1.391 . S
C115 C119 1.376 . S
C116 C114 1.394 . S
C116 C117 1.369 . S
C116 C120 1.531 . S
C117 C116 1.369 . S
C117 C118 1.410 . S
C117 C125 1.503 . S
C118 C117 1.410 . S
C118 C119 1.392 . S
C118 C121 1.511 . S
C119 C115 1.376 . S
C119 C118 1.392 . S
C119 H131 0.929 . S
C120 C116 1.531 . S
C120 H132 0.960 . S
C120 H133 0.962 . S
C120 H134 0.960 . S
C121 C118 1.511 . S
C121 H135 0.961 . S
C121 H136 0.961 . S
C121 H137 0.961 . S
C122 C123 1.370 . S
C122 C124 1.363 . S
C122 H138 0.931 . S
C123 C122 1.370 . S
C123 C127 1.408 . S
C124 C122 1.363 . S
C124 C125 1.370 . S
C124 C128 1.524 . S
C125 C117 1.503 . S
C125 C124 1.370 . S
C125 C126 1.403 . S
C126 C125 1.403 . S
C126 C127 1.404 . S
C126 C129 1.539 . S
C127 C123 1.408 . S
C127 C126 1.404 . S
C127 H139 0.930 . S
C128 C124 1.524 . S
C128 H140 0.956 . S
C128 H141 0.961 . S
C128 H142 0.961 . S
C129 C126 1.539 . S
C129 H143 0.958 . S
C129 H144 0.961 . S
C129 H145 0.960 . S
H130 C114 0.931 . S
H131 C119 0.929 . S
H132 C120 0.960 . S
H133 C120 0.962 . S
H134 C120 0.960 . S
H135 C121 0.961 . S
H136 C121 0.961 . S
H137 C121 0.961 . S
H138 C122 0.931 . S
H139 C127 0.930 . S
H140 C128 0.956 . S
H141 C128 0.961 . S
H142 C128 0.961 . S
H143 C129 0.958 . S
H144 C129 0.961 . S
H145 C129 0.960 . S
C146 C147 1.391 . S
C146 C148 1.394 . S
C146 H162 0.931 . S
C147 C146 1.391 . S
C147 C151 1.376 . S
C148 C146 1.394 . S
C148 C149 1.369 . S
C148 C152 1.531 . S
C149 C148 1.369 . S
C149 C150 1.410 . S
C149 C157 1.503 . S
C150 C149 1.410 . S
C150 C151 1.392 . S
C150 C153 1.511 . S
C151 C147 1.376 . S
C151 C150 1.392 . S
C151 H163 0.929 . S
C152 C148 1.531 . S
C152 H164 0.960 . S
C152 H165 0.962 . S
C152 H166 0.960 . S
C153 C150 1.511 . S
C153 H167 0.961 . S
C153 H168 0.961 . S
C153 H169 0.961 . S
C154 C155 1.370 . S
C154 C156 1.363 . S
C154 H170 0.931 . S
C155 C154 1.370 . S
C155 C159 1.408 . S
C156 C154 1.363 . S
C156 C157 1.370 . S
C156 C160 1.524 . S
C157 C149 1.503 . S
C157 C156 1.370 . S
C157 C158 1.403 . S
C158 C157 1.403 . S
C158 C159 1.404 . S
C158 C161 1.539 . S
C159 C155 1.408 . S
C159 C158 1.404 . S
C159 H171 0.930 . S
C160 C156 1.524 . S
C160 H172 0.956 . S
C160 H173 0.961 . S
C160 H174 0.961 . S
C161 C158 1.539 . S
C161 H175 0.958 . S
C161 H176 0.961 . S
C161 H177 0.960 . S
H162 C146 0.931 . S
H163 C151 0.929 . S
H164 C152 0.960 . S
H165 C152 0.962 . S
H166 C152 0.960 . S
H167 C153 0.961 . S
H168 C153 0.961 . S
H169 C153 0.961 . S
H170 C154 0.931 . S
H171 C159 0.930 . S
H172 C160 0.956 . S
H173 C160 0.961 . S
H174 C160 0.961 . S
H175 C161 0.958 . S
H176 C161 0.961 . S
H177 C161 0.960 . S
C178 C179 1.391 . S
C178 C180 1.394 . S
C178 H194 0.931 . S
C179 C178 1.391 . S
C179 C183 1.376 . S
C180 C178 1.394 . S
C180 C181 1.369 . S
C180 C184 1.531 . S
C181 C180 1.369 . S
C181 C182 1.410 . S
C181 C189 1.503 . S
C182 C181 1.410 . S
C182 C183 1.392 . S
C182 C185 1.511 . S
C183 C179 1.376 . S
C183 C182 1.392 . S
C183 H195 0.929 . S
C184 C180 1.531 . S
C184 H196 0.960 . S
C184 H197 0.962 . S
C184 H198 0.960 . S
C185 C182 1.511 . S
C185 H199 0.961 . S
C185 H200 0.961 . S
C185 H201 0.961 . S
C186 C187 1.370 . S
C186 C188 1.363 . S
C186 H202 0.931 . S
C187 C186 1.370 . S
C187 C191 1.408 . S
C188 C186 1.363 . S
C188 C189 1.370 . S
C188 C192 1.524 . S
C189 C181 1.503 . S
C189 C188 1.370 . S
C189 C190 1.403 . S
C190 C189 1.403 . S
C190 C191 1.404 . S
C190 C193 1.539 . S
C191 C187 1.408 . S
C191 C190 1.404 . S
C191 H203 0.930 . S
C192 C188 1.524 . S
C192 H204 0.956 . S
C192 H205 0.961 . S
C192 H206 0.961 . S
C193 C190 1.539 . S
C193 H207 0.958 . S
C193 H208 0.961 . S
C193 H209 0.960 . S
H194 C178 0.931 . S
H195 C183 0.929 . S
H196 C184 0.960 . S
H197 C184 0.962 . S
H198 C184 0.960 . S
H199 C185 0.961 . S
H200 C185 0.961 . S
H201 C185 0.961 . S
H202 C186 0.931 . S
H203 C191 0.930 . S
H204 C192 0.956 . S
H205 C192 0.961 . S
H206 C192 0.961 . S
H207 C193 0.958 . S
H208 C193 0.961 . S
H209 C193 0.960 . S
C210 C211 1.391 . S
C210 C212 1.394 . S
C210 H226 0.931 . S
C211 C210 1.391 . S
C211 C215 1.376 . S
C212 C210 1.394 . S
C212 C213 1.369 . S
C212 C216 1.531 . S
C213 C212 1.369 . S
C213 C214 1.410 . S
C213 C221 1.503 . S
C214 C213 1.410 . S
C214 C215 1.392 . S
C214 C217 1.511 . S
C215 C211 1.376 . S
C215 C214 1.392 . S
C215 H227 0.929 . S
C216 C212 1.531 . S
C216 H228 0.960 . S
C216 H229 0.962 . S
C216 H230 0.960 . S
C217 C214 1.511 . S
C217 H231 0.961 . S
C217 H232 0.961 . S
C217 H233 0.961 . S
C218 C219 1.370 . S
C218 C220 1.363 . S
C218 H234 0.931 . S
C219 C218 1.370 . S
C219 C223 1.408 . S
C220 C218 1.363 . S
C220 C221 1.370 . S
C220 C224 1.524 . S
C221 C213 1.503 . S
C221 C220 1.370 . S
C221 C222 1.403 . S
C222 C221 1.403 . S
C222 C223 1.404 . S
C222 C225 1.539 . S
C223 C219 1.408 . S
C223 C222 1.404 . S
C223 H235 0.930 . S
C224 C220 1.524 . S
C224 H236 0.956 . S
C224 H237 0.961 . S
C224 H238 0.961 . S
C225 C222 1.539 . S
C225 H239 0.958 . S
C225 H240 0.961 . S
C225 H241 0.960 . S
H226 C210 0.931 . S
H227 C215 0.929 . S
H228 C216 0.960 . S
H229 C216 0.962 . S
H230 C216 0.960 . S
H231 C217 0.961 . S
H232 C217 0.961 . S
H233 C217 0.961 . S
H234 C218 0.931 . S
H235 C223 0.930 . S
H236 C224 0.956 . S
H237 C224 0.961 . S
H238 C224 0.961 . S
H239 C225 0.958 . S
H240 C225 0.961 . S
H241 C225 0.960 . S
C242 C243 1.391 . S
C242 C244 1.394 . S
C242 H258 0.931 . S
C243 C242 1.391 . S
C243 C247 1.376 . S
C244 C242 1.394 . S
C244 C245 1.369 . S
C244 C248 1.531 . S
C245 C244 1.369 . S
C245 C246 1.410 . S
C245 C253 1.503 . S
C246 C245 1.410 . S
C246 C247 1.392 . S
C246 C249 1.511 . S
C247 C243 1.376 . S
C247 C246 1.392 . S
C247 H259 0.929 . S
C248 C244 1.531 . S
C248 H260 0.960 . S
C248 H261 0.962 . S
C248 H262 0.960 . S
C249 C246 1.511 . S
C249 H263 0.961 . S
C249 H264 0.961 . S
C249 H265 0.961 . S
C250 C251 1.370 . S
C250 C252 1.363 . S
C250 H266 0.931 . S
C251 C250 1.370 . S
C251 C255 1.408 . S
C252 C250 1.363 . S
C252 C253 1.370 . S
C252 C256 1.524 . S
C253 C245 1.503 . S
C253 C252 1.370 . S
C253 C254 1.403 . S
C254 C253 1.403 . S
C254 C255 1.404 . S
C254 C257 1.539 . S
C255 C251 1.408 . S
C255 C254 1.404 . S
C255 H267 0.930 . S
C256 C252 1.524 . S
C256 H268 0.956 . S
C256 H269 0.961 . S
C256 H270 0.961 . S
C257 C254 1.539 . S
C257 H271 0.958 . S
C257 H272 0.961 . S
C257 H273 0.960 . S
H258 C242 0.931 . S
H259 C247 0.929 . S
H260 C248 0.960 . S
H261 C248 0.962 . S
H262 C248 0.960 . S
H263 C249 0.961 . S
H264 C249 0.961 . S
H265 C249 0.961 . S
H266 C250 0.931 . S
H267 C255 0.930 . S
H268 C256 0.956 . S
H269 C256 0.961 . S
H270 C256 0.961 . S
H271 C257 0.958 . S
H272 C257 0.961 . S
H273 C257 0.960 . S
C274 C275 1.391 . S
C274 C276 1.394 . S
C274 H290 0.931 . S
C275 C274 1.391 . S
C275 C279 1.376 . S
C276 C274 1.394 . S
C276 C277 1.369 . S
C276 C280 1.531 . S
C277 C276 1.369 . S
C277 C278 1.410 . S
C277 C285 1.503 . S
C278 C277 1.410 . S
C278 C279 1.392 . S
C278 C281 1.511 . S
C279 C275 1.376 . S
C279 C278 1.392 . S
C279 H291 0.929 . S
C280 C276 1.531 . S
C280 H292 0.960 . S
C280 H293 0.962 . S
C280 H294 0.960 . S
C281 C278 1.511 . S
C281 H295 0.961 . S
C281 H296 0.961 . S
C281 H297 0.961 . S
C282 C283 1.370 . S
C282 C284 1.363 . S
C282 H298 0.931 . S
C283 C282 1.370 . S
C283 C287 1.408 . S
C284 C282 1.363 . S
C284 C285 1.370 . S
C284 C288 1.524 . S
C285 C277 1.503 . S
C285 C284 1.370 . S
C285 C286 1.403 . S
C286 C285 1.403 . S
C286 C287 1.404 . S
C286 C289 1.539 . S
C287 C283 1.408 . S
C287 C286 1.404 . S
C287 H299 0.930 . S
C288 C284 1.524 . S
C288 H300 0.956 . S
C288 H301 0.961 . S
C288 H302 0.961 . S
C289 C286 1.539 . S
C289 H303 0.958 . S
C289 H304 0.961 . S
C289 H305 0.960 . S
H290 C274 0.931 . S
H291 C279 0.929 . S
H292 C280 0.960 . S
H293 C280 0.962 . S
H294 C280 0.960 . S
H295 C281 0.961 . S
H296 C281 0.961 . S
H297 C281 0.961 . S
H298 C282 0.931 . S
H299 C287 0.930 . S
H300 C288 0.956 . S
H301 C288 0.961 . S
H302 C288 0.961 . S
H303 C289 0.958 . S
H304 C289 0.961 . S
H305 C289 0.960 . S
C306 C307 1.391 . S
C306 C308 1.394 . S
C306 H322 0.931 . S
C307 C306 1.391 . S
C307 C311 1.376 . S
C308 C306 1.394 . S
C308 C309 1.369 . S
C308 C312 1.531 . S
C309 C308 1.369 . S
C309 C310 1.410 . S
C309 C317 1.503 . S
C310 C309 1.410 . S
C310 C311 1.392 . S
C310 C313 1.511 . S
C311 C307 1.376 . S
C311 C310 1.392 . S
C311 H323 0.929 . S
C312 C308 1.531 . S
C312 H324 0.960 . S
C312 H325 0.962 . S
C312 H326 0.960 . S
C313 C310 1.511 . S
C313 H327 0.961 . S
C313 H328 0.961 . S
C313 H329 0.961 . S
C314 C315 1.370 . S
C314 C316 1.363 . S
C314 H330 0.931 . S
C315 C314 1.370 . S
C315 C319 1.408 . S
C316 C314 1.363 . S
C316 C317 1.370 . S
C316 C320 1.524 . S
C317 C309 1.503 . S
C317 C316 1.370 . S
C317 C318 1.403 . S
C318 C317 1.403 . S
C318 C319 1.404 . S
C318 C321 1.539 . S
C319 C315 1.408 . S
C319 C318 1.404 . S
C319 H331 0.930 . S
C320 C316 1.524 . S
C320 H332 0.956 . S
C320 H333 0.961 . S
C320 H334 0.961 . S
C321 C318 1.539 . S
C321 H335 0.958 . S
C321 H336 0.961 . S
C321 H337 0.960 . S
H322 C306 0.931 . S
H323 C311 0.929 . S
H324 C312 0.960 . S
H325 C312 0.962 . S
H326 C312 0.960 . S
H327 C313 0.961 . S
H328 C313 0.961 . S
H329 C313 0.961 . S
H330 C314 0.931 . S
H331 C319 0.930 . S
H332 C320 0.956 . S
H333 C320 0.961 . S
H334 C320 0.961 . S
H335 C321 0.958 . S
H336 C321 0.961 . S
H337 C321 0.960 . S
C338 C339 1.391 . S
C338 C340 1.394 . S
C338 H354 0.931 . S
C339 C338 1.391 . S
C339 C343 1.376 . S
C340 C338 1.394 . S
C340 C341 1.369 . S
C340 C344 1.531 . S
C341 C340 1.369 . S
C341 C342 1.410 . S
C341 C349 1.503 . S
C342 C341 1.410 . S
C342 C343 1.392 . S
C342 C345 1.511 . S
C343 C339 1.376 . S
C343 C342 1.392 . S
C343 H355 0.929 . S
C344 C340 1.531 . S
C344 H356 0.960 . S
C344 H357 0.962 . S
C344 H358 0.960 . S
C345 C342 1.511 . S
C345 H359 0.961 . S
C345 H360 0.961 . S
C345 H361 0.961 . S
C346 C347 1.370 . S
C346 C348 1.363 . S
C346 H362 0.931 . S
C347 C346 1.370 . S
C347 C351 1.408 . S
C348 C346 1.363 . S
C348 C349 1.370 . S
C348 C352 1.524 . S
C349 C341 1.503 . S
C349 C348 1.370 . S
C349 C350 1.403 . S
C350 C349 1.403 . S
C350 C351 1.404 . S
C350 C353 1.539 . S
C351 C347 1.408 . S
C351 C350 1.404 . S
C351 H363 0.930 . S
C352 C348 1.524 . S
C352 H364 0.956 . S
C352 H365 0.961 . S
C352 H366 0.961 . S
C353 C350 1.539 . S
C353 H367 0.958 . S
C353 H368 0.961 . S
C353 H369 0.960 . S
H354 C338 0.931 . S
H355 C343 0.929 . S
H356 C344 0.960 . S
H357 C344 0.962 . S
H358 C344 0.960 . S
H359 C345 0.961 . S
H360 C345 0.961 . S
H361 C345 0.961 . S
H362 C346 0.931 . S
H363 C351 0.930 . S
H364 C352 0.956 . S
H365 C352 0.961 . S
H366 C352 0.961 . S
H367 C353 0.958 . S
H368 C353 0.961 . S
H369 C353 0.960 . S
C370 C371 1.391 . S
C370 C372 1.394 . S
C370 H386 0.931 . S
C371 C370 1.391 . S
C371 C375 1.376 . S
C372 C370 1.394 . S
C372 C373 1.369 . S
C372 C376 1.531 . S
C373 C372 1.369 . S
C373 C374 1.410 . S
C373 C381 1.503 . S
C374 C373 1.410 . S
C374 C375 1.392 . S
C374 C377 1.511 . S
C375 C371 1.376 . S
C375 C374 1.392 . S
C375 H387 0.929 . S
C376 C372 1.531 . S
C376 H388 0.960 . S
C376 H389 0.962 . S
C376 H390 0.960 . S
C377 C374 1.511 . S
C377 H391 0.961 . S
C377 H392 0.961 . S
C377 H393 0.961 . S
C378 C379 1.370 . S
C378 C380 1.363 . S
C378 H394 0.931 . S
C379 C378 1.370 . S
C379 C383 1.408 . S
C380 C378 1.363 . S
C380 C381 1.370 . S
C380 C384 1.524 . S
C381 C373 1.503 . S
C381 C380 1.370 . S
C381 C382 1.403 . S
C382 C381 1.403 . S
C382 C383 1.404 . S
C382 C385 1.539 . S
C383 C379 1.408 . S
C383 C382 1.404 . S
C383 H395 0.930 . S
C384 C380 1.524 . S
C384 H396 0.956 . S
C384 H397 0.961 . S
C384 H398 0.961 . S
C385 C382 1.539 . S
C385 H399 0.958 . S
C385 H400 0.961 . S
C385 H401 0.960 . S
H386 C370 0.931 . S
H387 C375 0.929 . S
H388 C376 0.960 . S
H389 C376 0.962 . S
H390 C376 0.960 . S
H391 C377 0.961 . S
H392 C377 0.961 . S
H393 C377 0.961 . S
H394 C378 0.931 . S
H395 C383 0.930 . S
H396 C384 0.956 . S
H397 C384 0.961 . S
H398 C384 0.961 . S
H399 C385 0.958 . S
H400 C385 0.961 . S
H401 C385 0.960 . S
C402 C403 1.391 . S
C402 C404 1.394 . S
C402 H418 0.931 . S
C403 C402 1.391 . S
C403 C407 1.376 . S
C404 C402 1.394 . S
C404 C405 1.369 . S
C404 C408 1.531 . S
C405 C404 1.369 . S
C405 C406 1.410 . S
C405 C413 1.503 . S
C406 C405 1.410 . S
C406 C407 1.392 . S
C406 C409 1.511 . S
C407 C403 1.376 . S
C407 C406 1.392 . S
C407 H419 0.929 . S
C408 C404 1.531 . S
C408 H420 0.960 . S
C408 H421 0.962 . S
C408 H422 0.960 . S
C409 C406 1.511 . S
C409 H423 0.961 . S
C409 H424 0.961 . S
C409 H425 0.961 . S
C410 C411 1.370 . S
C410 C412 1.363 . S
C410 H426 0.931 . S
C411 C410 1.370 . S
C411 C415 1.408 . S
C412 C410 1.363 . S
C412 C413 1.370 . S
C412 C416 1.524 . S
C413 C405 1.503 . S
C413 C412 1.370 . S
C413 C414 1.403 . S
C414 C413 1.403 . S
C414 C415 1.404 . S
C414 C417 1.539 . S
C415 C411 1.408 . S
C415 C414 1.404 . S
C415 H427 0.930 . S
C416 C412 1.524 . S
C416 H428 0.956 . S
C416 H429 0.961 . S
C416 H430 0.961 . S
C417 C414 1.539 . S
C417 H431 0.958 . S
C417 H432 0.961 . S
C417 H433 0.960 . S
H418 C402 0.931 . S
H419 C407 0.929 . S
H420 C408 0.960 . S
H421 C408 0.962 . S
H422 C408 0.960 . S
H423 C409 0.961 . S
H424 C409 0.961 . S
H425 C409 0.961 . S
H426 C410 0.931 . S
H427 C415 0.930 . S
H428 C416 0.956 . S
H429 C416 0.961 . S
H430 C416 0.961 . S
H431 C417 0.958 . S
H432 C417 0.961 . S
H433 C417 0.960 . S
C434 C435 1.391 . S
C434 C436 1.394 . S
C434 H450 0.931 . S
C435 C434 1.391 . S
C435 C439 1.376 . S
C436 C434 1.394 . S
C436 C437 1.369 . S
C436 C440 1.531 . S
C437 C436 1.369 . S
C437 C438 1.410 . S
C437 C445 1.503 . S
C438 C437 1.410 . S
C438 C439 1.392 . S
C438 C441 1.511 . S
C439 C435 1.376 . S
C439 C438 1.392 . S
C439 H451 0.929 . S
C440 C436 1.531 . S
C440 H452 0.960 . S
C440 H453 0.962 . S
C440 H454 0.960 . S
C441 C438 1.511 . S
C441 H455 0.961 . S
C441 H456 0.961 . S
C441 H457 0.961 . S
C442 C443 1.370 . S
C442 C444 1.363 . S
C442 H458 0.931 . S
C443 C442 1.370 . S
C443 C447 1.408 . S
C444 C442 1.363 . S
C444 C445 1.370 . S
C444 C448 1.524 . S
C445 C437 1.503 . S
C445 C444 1.370 . S
C445 C446 1.403 . S
C446 C445 1.403 . S
C446 C447 1.404 . S
C446 C449 1.539 . S
C447 C443 1.408 . S
C447 C446 1.404 . S
C447 H459 0.930 . S
C448 C444 1.524 . S
C448 H460 0.956 . S
C448 H461 0.961 . S
C448 H462 0.961 . S
C449 C446 1.539 . S
C449 H463 0.958 . S
C449 H464 0.961 . S
C449 H465 0.960 . S
H450 C434 0.931 . S
H451 C439 0.929 . S
H452 C440 0.960 . S
H453 C440 0.962 . S
H454 C440 0.960 . S
H455 C441 0.961 . S
H456 C441 0.961 . S
H457 C441 0.961 . S
H458 C442 0.931 . S
H459 C447 0.930 . S
H460 C448 0.956 . S
H461 C448 0.961 . S
H462 C448 0.961 . S
H463 C449 0.958 . S
H464 C449 0.961 . S
H465 C449 0.960 . S
C466 C467 1.391 . S
C466 C468 1.394 . S
C466 H482 0.931 . S
C467 C466 1.391 . S
C467 C471 1.376 . S
C468 C466 1.394 . S
C468 C469 1.369 . S
C468 C472 1.531 . S
C469 C468 1.369 . S
C469 C470 1.410 . S
C469 C477 1.503 . S
C470 C469 1.410 . S
C470 C471 1.392 . S
C470 C473 1.511 . S
C471 C467 1.376 . S
C471 C470 1.392 . S
C471 H483 0.929 . S
C472 C468 1.531 . S
C472 H484 0.960 . S
C472 H485 0.962 . S
C472 H486 0.960 . S
C473 C470 1.511 . S
C473 H487 0.961 . S
C473 H488 0.961 . S
C473 H489 0.961 . S
C474 C475 1.370 . S
C474 C476 1.363 . S
C474 H490 0.931 . S
C475 C474 1.370 . S
C475 C479 1.408 . S
C476 C474 1.363 . S
C476 C477 1.370 . S
C476 C480 1.524 . S
C477 C469 1.503 . S
C477 C476 1.370 . S
C477 C478 1.403 . S
C478 C477 1.403 . S
C478 C479 1.404 . S
C478 C481 1.539 . S
C479 C475 1.408 . S
C479 C478 1.404 . S
C479 H491 0.930 . S
C480 C476 1.524 . S
C480 H492 0.956 . S
C480 H493 0.961 . S
C480 H494 0.961 . S
C481 C478 1.539 . S
C481 H495 0.958 . S
C481 H496 0.961 . S
C481 H497 0.960 . S
H482 C466 0.931 . S
H483 C471 0.929 . S
H484 C472 0.960 . S
H485 C472 0.962 . S
H486 C472 0.960 . S
H487 C473 0.961 . S
H488 C473 0.961 . S
H489 C473 0.961 . S
H490 C474 0.931 . S
H491 C479 0.930 . S
H492 C480 0.956 . S
H493 C480 0.961 . S
H494 C480 0.961 . S
H495 C481 0.958 . S
H496 C481 0.961 . S
H497 C481 0.960 . S
C498 C499 1.379 1_655 S
C498 C500 1.392 1_655 S
C498 H514 0.944 . S
C499 C498 1.379 1_455 S
C499 C503 1.376 . S
C500 C498 1.392 1_455 S
C500 C501 1.369 . S
C500 C504 1.531 1_455 S
C501 C500 1.369 . S
C501 C502 1.410 . S
C501 C509 1.503 . S
C502 C501 1.410 . S
C502 C503 1.392 . S
C502 C505 1.511 . S
C503 C499 1.376 . S
C503 C502 1.392 . S
C503 H515 0.929 . S
C504 C500 1.531 1_655 S
C504 H516 0.960 1_655 S
C504 H517 0.962 . S
C504 H518 0.960 . S
C505 C502 1.511 . S
C505 H519 0.961 . S
C505 H520 0.961 . S
C505 H521 0.961 . S
C506 C507 1.370 1_655 S
C506 C508 1.363 . S
C506 H522 0.931 . S
C507 C506 1.370 1_455 S
C507 C511 1.408 . S
C508 C506 1.363 . S
C508 C509 1.370 1_656 S
C508 C512 1.524 1_556 S
C509 C501 1.503 . S
C509 C508 1.370 1_454 S
C509 C510 1.392 1_554 S
C510 C509 1.392 1_556 S
C510 C511 1.426 . S
C510 C513 1.528 1_556 S
C511 C507 1.408 . S
C511 C510 1.426 . S
C511 H523 0.930 . S
C512 C508 1.524 1_554 S
C512 H524 0.956 . S
C512 H525 0.961 . S
C512 H526 0.961 1_554 S
C513 C510 1.528 1_554 S
C513 H527 0.958 . S
C513 H528 0.961 . S
C513 H529 0.960 . S
H514 C498 0.944 . S
H515 C503 0.929 . S
H516 C504 0.960 1_455 S
H517 C504 0.962 . S
H518 C504 0.960 . S
H519 C505 0.961 . S
H520 C505 0.961 . S
H521 C505 0.961 . S
H522 C506 0.931 . S
H523 C511 0.930 . S
H524 C512 0.956 . S
H525 C512 0.961 . S
H526 C512 0.961 1_556 S
H527 C513 0.958 . S
H528 C513 0.961 . S
H529 C513 0.960 . S
C530 C531 1.391 . S
C530 C532 1.394 . S
C530 H546 0.931 . S
C531 C530 1.391 . S
C531 C535 1.376 . S
C532 C530 1.394 . S
C532 C533 1.369 . S
C532 C536 1.531 . S
C533 C532 1.369 . S
C533 C534 1.410 . S
C533 C541 1.503 . S
C534 C533 1.410 . S
C534 C535 1.392 . S
C534 C537 1.511 1_545 S
C535 C531 1.376 . S
C535 C534 1.392 . S
C535 H547 0.929 1_545 S
C536 C532 1.531 . S
C536 H548 0.960 . S
C536 H549 0.962 . S
C536 H550 0.960 . S
C537 C534 1.511 1_565 S
C537 H551 0.961 . S
C537 H552 0.961 . S
C537 H553 0.961 1_565 S
C538 C539 1.370 1_565 S
C538 C540 1.363 . S
C538 H554 0.931 . S
C539 C538 1.370 1_545 S
C539 C543 1.408 . S
C540 C538 1.363 . S
C540 C541 1.370 1_565 S
C540 C544 1.524 . S
C541 C533 1.503 . S
C541 C540 1.370 1_545 S
C541 C542 1.403 . S
C542 C541 1.403 . S
C542 C543 1.404 . S
C542 C545 1.539 . S
C543 C539 1.408 . S
C543 C542 1.404 . S
C543 H555 0.930 . S
C544 C540 1.524 . S
C544 H556 0.956 . S
C544 H557 0.961 . S
C544 H558 0.961 . S
C545 C542 1.539 . S
C545 H559 0.958 . S
C545 H560 0.961 . S
C545 H561 0.960 . S
H546 C530 0.931 . S
H547 C535 0.929 1_565 S
H548 C536 0.960 . S
H549 C536 0.962 . S
H550 C536 0.960 . S
H551 C537 0.961 . S
H552 C537 0.961 . S
H553 C537 0.961 1_545 S
H554 C538 0.931 . S
H555 C543 0.930 . S
H556 C544 0.956 . S
H557 C544 0.961 . S
H558 C544 0.961 . S
H559 C545 0.958 . S
H560 C545 0.961 . S
H561 C545 0.960 . S
C562 C563 1.391 . S
C562 C564 1.394 . S
C562 H578 0.931 . S
C563 C562 1.391 . S
C563 C567 1.376 . S
C564 C562 1.394 . S
C564 C565 1.369 . S
C564 C568 1.531 . S
C565 C564 1.369 . S
C565 C566 1.410 . S
C565 C573 1.503 . S
C566 C565 1.410 . S
C566 C567 1.392 . S
C566 C569 1.511 . S
C567 C563 1.376 . S
C567 C566 1.392 . S
C567 H579 0.929 . S
C568 C564 1.531 . S
C568 H580 0.960 . S
C568 H581 0.962 . S
C568 H582 0.960 . S
C569 C566 1.511 . S
C569 H583 0.961 . S
C569 H584 0.961 . S
C569 H585 0.961 . S
C570 C571 1.370 . S
C570 C572 1.363 . S
C570 H586 0.931 . S
C571 C570 1.370 . S
C571 C575 1.408 . S
C572 C570 1.363 . S
C572 C573 1.370 . S
C572 C576 1.524 . S
C573 C565 1.503 . S
C573 C572 1.370 . S
C573 C574 1.403 . S
C574 C573 1.403 . S
C574 C575 1.404 . S
C574 C577 1.539 . S
C575 C571 1.408 . S
C575 C574 1.404 . S
C575 H587 0.930 . S
C576 C572 1.524 . S
C576 H588 0.956 . S
C576 H589 0.961 . S
C576 H590 0.961 . S
C577 C574 1.539 . S
C577 H591 0.958 . S
C577 H592 0.961 . S
C577 H593 0.960 . S
H578 C562 0.931 . S
H579 C567 0.929 . S
H580 C568 0.960 . S
H581 C568 0.962 . S
H582 C568 0.960 . S
H583 C569 0.961 . S
H584 C569 0.961 . S
H585 C569 0.961 . S
H586 C570 0.931 . S
H587 C575 0.930 . S
H588 C576 0.956 . S
H589 C576 0.961 . S
H590 C576 0.961 . S
H591 C577 0.958 . S
H592 C577 0.961 . S
H593 C577 0.960 . S
C594 C595 1.391 . S
C594 C596 1.394 . S
C594 H610 0.931 . S
C595 C594 1.391 . S
C595 C599 1.376 1_545 S
C596 C594 1.394 . S
C596 C597 1.369 . S
C596 C600 1.531 . S
C597 C596 1.369 . S
C597 C598 1.410 1_545 S
C597 C605 1.503 . S
C598 C597 1.410 1_565 S
C598 C599 1.392 . S
C598 C601 1.511 . S
C599 C595 1.376 1_565 S
C599 C598 1.392 . S
C599 H611 0.929 . S
C600 C596 1.531 . S
C600 H612 0.960 . S
C600 H613 0.962 . S
C600 H614 0.960 . S
C601 C598 1.511 . S
C601 H615 0.961 . S
C601 H616 0.961 . S
C601 H617 0.961 . S
C602 C603 1.370 . S
C602 C604 1.363 . S
C602 H618 0.931 . S
C603 C602 1.370 . S
C603 C607 1.408 1_545 S
C604 C602 1.363 . S
C604 C605 1.370 . S
C604 C608 1.524 . S
C605 C597 1.503 . S
C605 C604 1.370 . S
C605 C606 1.403 1_545 S
C606 C605 1.403 1_565 S
C606 C607 1.404 . S
C606 C609 1.539 . S
C607 C603 1.408 1_565 S
C607 C606 1.404 . S
C607 H619 0.930 . S
C608 C604 1.524 . S
C608 H620 0.956 . S
C608 H621 0.961 . S
C608 H622 0.961 . S
C609 C606 1.539 . S
C609 H623 0.958 . S
C609 H624 0.961 . S
C609 H625 0.960 . S
H610 C594 0.931 . S
H611 C599 0.929 . S
H612 C600 0.960 . S
H613 C600 0.962 . S
H614 C600 0.960 . S
H615 C601 0.961 . S
H616 C601 0.961 . S
H617 C601 0.961 . S
H618 C602 0.931 . S
H619 C607 0.930 . S
H620 C608 0.956 . S
H621 C608 0.961 . S
H622 C608 0.961 . S
H623 C609 0.958 . S
H624 C609 0.961 . S
H625 C609 0.960 . S
C626 C627 1.391 . S
C626 C628 1.394 . S
C626 H642 0.931 . S
C627 C626 1.391 . S
C627 C631 1.376 . S
C628 C626 1.394 . S
C628 C629 1.369 . S
C628 C632 1.531 . S
C629 C628 1.369 . S
C629 C630 1.410 . S
C629 C637 1.503 . S
C630 C629 1.410 . S
C630 C631 1.392 . S
C630 C633 1.511 . S
C631 C627 1.376 . S
C631 C630 1.392 . S
C631 H643 0.929 . S
C632 C628 1.531 . S
C632 H644 0.960 . S
C632 H645 0.962 . S
C632 H646 0.960 . S
C633 C630 1.511 . S
C633 H647 0.961 . S
C633 H648 0.961 . S
C633 H649 0.961 . S
C634 C635 1.370 . S
C634 C636 1.359 . S
C634 H650 0.931 . S
C635 C634 1.370 . S
C635 C639 1.408 . S
C636 C634 1.359 . S
C636 C637 1.372 1_554 S
C636 C640 1.526 1_554 S
C637 C629 1.503 . S
C637 C636 1.372 1_556 S
C637 C638 1.403 1_556 S
C638 C637 1.403 1_554 S
C638 C639 1.404 . S
C638 C641 1.539 1_554 S
C639 C635 1.408 . S
C639 C638 1.404 . S
C639 H651 0.930 . S
C640 C636 1.526 1_556 S
C640 H652 0.956 . S
C640 H653 0.961 . S
C640 H654 0.961 . S
C641 C638 1.539 1_556 S
C641 H655 0.958 . S
C641 H656 0.961 1_556 S
C641 H657 0.960 . S
H642 C626 0.931 . S
H643 C631 0.929 . S
H644 C632 0.960 . S
H645 C632 0.962 . S
H646 C632 0.960 . S
H647 C633 0.961 . S
H648 C633 0.961 . S
H649 C633 0.961 . S
H650 C634 0.931 . S
H651 C639 0.930 . S
H652 C640 0.956 . S
H653 C640 0.961 . S
H654 C640 0.961 . S
H655 C641 0.958 . S
H656 C641 0.961 1_554 S
H657 C641 0.960 . S
C658 C659 1.391 . S
C658 C660 1.394 . S
C658 H674 0.931 . S
C659 C658 1.391 . S
C659 C663 1.376 1_655 S
C660 C658 1.394 . S
C660 C661 1.369 1_655 S
C660 C664 1.531 . S
C661 C660 1.369 1_455 S
C661 C662 1.410 . S
C661 C669 1.503 . S
C662 C661 1.410 . S
C662 C663 1.392 . S
C662 C665 1.511 . S
C663 C659 1.376 1_455 S
C663 C662 1.392 . S
C663 H675 0.929 . S
C664 C660 1.531 . S
C664 H676 0.960 . S
C664 H677 0.962 . S
C664 H678 0.960 . S
C665 C662 1.511 . S
C665 H679 0.961 . S
C665 H680 0.961 . S
C665 H681 0.961 . S
C666 C667 1.370 . S
C666 C668 1.363 . S
C666 H682 0.931 . S
C667 C666 1.370 . S
C667 C671 1.408 . S
C668 C666 1.363 . S
C668 C669 1.370 . S
C668 C672 1.524 . S
C669 C661 1.503 . S
C669 C668 1.370 . S
C669 C670 1.402 . S
C670 C669 1.402 . S
C670 C671 1.404 . S
C670 C673 1.540 1_455 S
C671 C667 1.408 . S
C671 C670 1.404 . S
C671 H683 0.922 . S
C672 C668 1.524 . S
C672 H684 0.956 1_455 S
C672 H685 0.961 . S
C672 H686 0.961 . S
C673 C670 1.540 1_655 S
C673 H687 0.958 . S
C673 H688 0.961 1_655 S
C673 H689 0.960 1_655 S
H674 C658 0.931 . S
H675 C663 0.929 . S
H676 C664 0.960 . S
H677 C664 0.962 . S
H678 C664 0.960 . S
H679 C665 0.961 . S
H680 C665 0.961 . S
H681 C665 0.961 . S
H682 C666 0.931 . S
H683 C671 0.922 . S
H684 C672 0.956 1_655 S
H685 C672 0.961 . S
H686 C672 0.961 . S
H687 C673 0.958 . S
H688 C673 0.961 1_455 S
H689 C673 0.960 1_455 S
C115 C2 1.382 . S
C123 C109 1.428 . S
C147 C22 1.328 . S
C155 C91 1.447 . S
C179 C44 1.380 . S
C187 C103 1.436 . S
C211 C4 1.409 . S
C219 C112 1.539 . S
C251 C94 1.540 . S
C243 C24 1.474 . S
C283 C100 1.516 . S
C275 C42 1.429 . S
C307 C32 1.203 . S
C315 C73 1.273 . S
C339 C49 1.214 . S
C347 C82 1.270 . S
C371 C9 1.226 . S
C379 C64 1.266 . S
C411 C76 1.249 . S
C403 C29 1.161 . S
C443 C85 1.248 . S
C435 C52 1.225 . S
C467 C12 1.192 . S
C475 C67 1.238 . S
C507 C83 1.440 . S
C499 C18 1.431 1_455 S
C531 C38 1.436 . S
C539 C65 1.440 . S
C563 C58 1.436 . S
C571 C74 1.440 . S
C603 C101 1.510 . S
C595 C39 1.504 . S
C635 C110 1.500 . S
C627 C59 1.489 . S
C659 C19 1.461 1_655 S
C667 C92 1.501 . S
