# Generated by pormake.
# Topology ant, (3,6)-cn, num edge types: 1
# Building blocks:
#     Node 0, Type 0, BuildingBlock: QEWDON_clean_linker_0, # of connection points: 3
#     Node 1, Type 0, BuildingBlock: QEWDON_clean_linker_0, # of connection points: 3
#     Node 2, Type 0, BuildingBlock: QEWDON_clean_linker_0, # of connection points: 3
#     Node 3, Type 0, BuildingBlock: QEWDON_clean_linker_0, # of connection points: 3
#     Node 4, Type 0, BuildingBlock: QEWDON_clean_linker_0, # of connection points: 3
#     Node 5, Type 0, BuildingBlock: QEWDON_clean_linker_0, # of connection points: 3
#     Node 6, Type 0, BuildingBlock: QEWDON_clean_linker_0, # of connection points: 3
#     Node 7, Type 0, BuildingBlock: QEWDON_clean_linker_0, # of connection points: 3
#     Node 8, Type 1, BuildingBlock: MIDCAF_clean_sbu_0, # of connection points: 6
#     Node 9, Type 1, BuildingBlock: MIDCAF_clean_sbu_0, # of connection points: 6
#     Node 10, Type 1, BuildingBlock: MIDCAF_clean_sbu_0, # of connection points: 6
#     Node 11, Type 1, BuildingBlock: MIDCAF_clean_sbu_0, # of connection points: 6
#     Edge 12, Type (0, 1), BuildingBlock: KIFKEQ_clean_linker_1, # of connection points: 2
#     Edge 13, Type (0, 1), BuildingBlock: KIFKEQ_clean_linker_1, # of connection points: 2
#     Edge 14, Type (0, 1), BuildingBlock: KIFKEQ_clean_linker_1, # of connection points: 2
#     Edge 15, Type (0, 1), BuildingBlock: KIFKEQ_clean_linker_1, # of connection points: 2
#     Edge 16, Type (0, 1), BuildingBlock: KIFKEQ_clean_linker_1, # of connection points: 2
#     Edge 17, Type (0, 1), BuildingBlock: KIFKEQ_clean_linker_1, # of connection points: 2
#     Edge 18, Type (0, 1), BuildingBlock: KIFKEQ_clean_linker_1, # of connection points: 2
#     Edge 19, Type (0, 1), BuildingBlock: KIFKEQ_clean_linker_1, # of connection points: 2
#     Edge 20, Type (0, 1), BuildingBlock: KIFKEQ_clean_linker_1, # of connection points: 2
#     Edge 21, Type (0, 1), BuildingBlock: KIFKEQ_clean_linker_1, # of connection points: 2
#     Edge 22, Type (0, 1), BuildingBlock: KIFKEQ_clean_linker_1, # of connection points: 2
#     Edge 23, Type (0, 1), BuildingBlock: KIFKEQ_clean_linker_1, # of connection points: 2
#     Edge 24, Type (0, 1), BuildingBlock: KIFKEQ_clean_linker_1, # of connection points: 2
#     Edge 25, Type (0, 1), BuildingBlock: KIFKEQ_clean_linker_1, # of connection points: 2
#     Edge 26, Type (0, 1), BuildingBlock: KIFKEQ_clean_linker_1, # of connection points: 2
#     Edge 27, Type (0, 1), BuildingBlock: KIFKEQ_clean_linker_1, # of connection points: 2
#     Edge 28, Type (0, 1), BuildingBlock: KIFKEQ_clean_linker_1, # of connection points: 2
#     Edge 29, Type (0, 1), BuildingBlock: KIFKEQ_clean_linker_1, # of connection points: 2
#     Edge 30, Type (0, 1), BuildingBlock: KIFKEQ_clean_linker_1, # of connection points: 2
#     Edge 31, Type (0, 1), BuildingBlock: KIFKEQ_clean_linker_1, # of connection points: 2
#     Edge 32, Type (0, 1), BuildingBlock: KIFKEQ_clean_linker_1, # of connection points: 2
#     Edge 33, Type (0, 1), BuildingBlock: KIFKEQ_clean_linker_1, # of connection points: 2
#     Edge 34, Type (0, 1), BuildingBlock: KIFKEQ_clean_linker_1, # of connection points: 2
#     Edge 35, Type (0, 1), BuildingBlock: KIFKEQ_clean_linker_1, # of connection points: 2
# Relax obj value: 0.063
# Max RMSD: 0.161
# Mean RMSD: 0.129
data_MOF--net-ant--node1-MIDCAF_clean_sbu_0--node2-QEWDON_clean_linker_0--edge1-KIFKEQ_clean_linker_1
_symmetry_space_group_name_H-M    P1
_symmetry_Int_Tables_number       1
_symmetry_cell_setting            triclinic
loop_
_symmetry_equiv_pos_as_xyz
'x, y, z'
_cell_length_a     30.721378
_cell_length_b     30.360923
_cell_length_c     70.729076
_cell_angle_alpha  95.775852
_cell_angle_beta   101.22337
_cell_angle_gamma 89.581784
loop_
_atom_site_label
_atom_site_type_symbol
_atom_site_fract_x
_atom_site_fract_y
_atom_site_fract_z
_atom_type_partial_charge
H0 H 0.17543 0.19055 0.0642 0.0
C1 C 0.17617 0.22631 0.06659 0.0
C2 C 0.17319 0.25076 0.0505 0.0
C3 C 0.18022 0.2479 0.0855 0.0
H4 H 0.16801 0.31621 0.04075 0.0
C5 C 0.1721 0.2973 0.05318 0.0
C6 C 0.17432 0.31945 0.07169 0.0
C7 C 0.17999 0.29469 0.08771 0.0
C8 C 0.18403 0.22241 0.10295 0.0
H9 H 0.18454 0.31264 0.10198 0.0
C10 C 0.20186 0.17917 0.10333 0.0
C11 C 0.20553 0.15616 0.12002 0.0
C12 C 0.16943 0.24154 0.11962 0.0
H13 H 0.15321 0.27325 0.1199 0.0
C14 C 0.17504 0.21999 0.13635 0.0
H15 H 0.21238 0.16311 0.09066 0.0
C16 C 0.19338 0.17805 0.13668 0.0
H17 H 0.1974 0.16255 0.15003 0.0
H18 H 0.16456 0.23575 0.14912 0.0
H19 H 0.0533 0.84073 0.30457 0.0
C20 C 0.08865 0.83643 0.30924 0.0
C21 C 0.11565 0.83316 0.29528 0.0
C22 C 0.10724 0.83481 0.32904 0.0
H23 H 0.18244 0.82521 0.29038 0.0
C24 C 0.16159 0.82848 0.30117 0.0
C25 C 0.18091 0.82638 0.32069 0.0
C26 C 0.15368 0.82967 0.33456 0.0
C27 C 0.07844 0.8378 0.34393 0.0
H28 H 0.1687 0.82644 0.34952 0.0
C29 C 0.03442 0.82081 0.33957 0.0
C30 C 0.00827 0.82289 0.35391 0.0
C31 C 0.09505 0.85764 0.36283 0.0
H32 H 0.12792 0.87246 0.36668 0.0
C33 C 0.06927 0.85924 0.37707 0.0
H34 H 0.02059 0.8051 0.32525 0.0
C35 C 0.02627 0.84178 0.37271 0.0
H36 H 1.00661 0.84393 0.38393 0.0
H37 H 0.08257 0.87446 0.39154 0.0
H38 H 0.66906 0.6939 0.56377 0.0
C39 C 0.67237 0.72957 0.56536 0.0
C40 C 0.66089 0.7521 0.54865 0.0
C41 C 0.68688 0.75288 0.58383 0.0
H42 H 0.65356 0.81653 0.53781 0.0
C43 C 0.6623 0.79867 0.55052 0.0
C44 C 0.67624 0.82251 0.56864 0.0
C45 C 0.68952 0.79967 0.58503 0.0
C46 C 0.69848 0.72906 0.60186 0.0
H47 H 0.70217 0.81902 0.59867 0.0
C48 C 0.71173 0.68406 0.60125 0.0
C49 C 0.72145 0.6622 0.61832 0.0
C50 C 0.69543 0.7513 0.62005 0.0
H51 H 0.68335 0.78475 0.62147 0.0
C52 C 0.70718 0.73061 0.63697 0.0
H53 H 0.71383 0.66564 0.58758 0.0
C54 C 0.72036 0.68668 0.63618 0.0
H55 H 0.72914 0.67173 0.64966 0.0
H56 H 0.70534 0.7486 0.6508 0.0
H57 H 0.55157 0.32767 0.80231 0.0
C58 C 0.58579 0.32071 0.80843 0.0
C59 C 0.6145 0.30647 0.79598 0.0
C60 C 0.6018 0.32846 0.82856 0.0
H61 H 0.68113 0.28755 0.79392 0.0
C62 C 0.65906 0.29858 0.80366 0.0
C63 C 0.67566 0.30523 0.82365 0.0
C64 C 0.64703 0.32067 0.83606 0.0
C65 C 0.57196 0.34743 0.84147 0.0
H66 H 0.65984 0.32594 0.85151 0.0
C67 C 0.52714 0.3335 0.83865 0.0
C68 C 0.49842 0.35437 0.84994 0.0
C69 C 0.5877 0.3816 0.85611 0.0
H70 H 0.62165 0.39357 0.85847 0.0
C71 C 0.55943 0.40184 0.86749 0.0
H72 H 0.51439 0.30707 0.82752 0.0
C73 C 0.51504 0.38861 0.86436 0.0
H74 H 0.49364 0.40496 0.87332 0.0
H75 H 0.57186 0.42829 0.87863 0.0
H76 H 0.0346 0.74643 0.93858 0.0
C77 C 0.02841 0.7148 0.92988 0.0
C78 C 0.03936 0.67539 0.93859 0.0
C79 C 1.00758 0.71334 0.91023 0.0
H80 H 0.03653 0.60411 0.93422 0.0
C81 C 0.02952 0.6346 0.92747 0.0
C82 C 0.00875 0.63243 0.90796 0.0
C83 C 0.99841 0.67172 0.89927 0.0
C84 C 0.99121 0.7547 0.90164 0.0
H85 H 0.98201 0.66982 0.88418 0.0
C86 C 0.01789 0.79353 0.90423 0.0
C87 C 1.00139 0.83163 0.89545 0.0
C88 C 0.94773 0.75532 0.89076 0.0
H89 H 0.92613 0.72651 0.88886 0.0
C90 C 0.93127 0.79321 0.88239 0.0
H91 H 0.0516 0.79363 0.91242 0.0
C92 C 0.95793 0.83098 0.88459 0.0
H93 H 0.94466 0.85986 0.87771 0.0
H94 H 0.89775 0.7932 0.87406 0.0
H95 H 0.71141 0.83263 0.1999 0.0
C96 C 0.67644 0.8317 0.19333 0.0
C97 C 0.64554 0.81988 0.20423 0.0
C98 C 0.66211 0.84528 0.17466 0.0
H99 H 0.57619 0.81209 0.20477 0.0
C100 C 0.60005 0.82122 0.19633 0.0
C101 C 0.58491 0.83377 0.17765 0.0
C102 C 0.61609 0.84487 0.16673 0.0
C103 C 0.69456 0.86434 0.16437 0.0
H104 H 0.60432 0.85468 0.15233 0.0
C105 C 0.73821 0.84796 0.16564 0.0
C106 C 0.76938 0.86934 0.15733 0.0
C107 C 0.68267 0.90159 0.1542 0.0
H108 H 0.65005 0.91593 0.15331 0.0
C109 C 0.71317 0.92204 0.14561 0.0
H110 H 0.74825 0.81933 0.17335 0.0
C111 C 0.75626 0.90628 0.14724 0.0
H112 H 0.77947 0.92299 0.14055 0.0
H113 H 0.70356 0.95072 0.1379 0.0
H114 H 0.53533 0.25115 0.43803 0.0
C115 C 0.53058 0.21974 0.4291 0.0
C116 C 0.54316 0.18041 0.43758 0.0
C117 C 0.50955 0.21843 0.40947 0.0
H118 H 0.54282 0.10917 0.4328 0.0
C119 C 0.53488 0.13975 0.42623 0.0
C120 C 0.51395 0.13772 0.40673 0.0
C121 C 0.50209 0.17698 0.39826 0.0
C122 C 0.49039 0.25949 0.40143 0.0
H123 H 0.4855 0.17505 0.3832 0.0
C124 C 0.5133 0.30068 0.40579 0.0
C125 C 0.49268 0.33954 0.39926 0.0
C126 C 0.44715 0.25793 0.39018 0.0
H127 H 0.42823 0.22722 0.38691 0.0
C128 C 0.42704 0.29621 0.38354 0.0
H129 H 0.54664 0.30266 0.4144 0.0
C130 C 0.44945 0.33673 0.38811 0.0
H131 H 0.43306 0.36603 0.38277 0.0
H132 H 0.39369 0.29453 0.37498 0.0
H133 H 0.21089 0.33873 0.70004 0.0
C134 C 0.17576 0.33874 0.69388 0.0
C135 C 0.14529 0.33399 0.70603 0.0
C136 C 0.16103 0.34485 0.67415 0.0
H137 H 0.07605 0.33165 0.70766 0.0
C138 C 0.09966 0.3362 0.69842 0.0
C139 C 0.08396 0.34218 0.67887 0.0
C140 C 0.11479 0.34551 0.66676 0.0
C141 C 0.19358 0.35203 0.66142 0.0
H142 H 0.10249 0.34905 0.65158 0.0
C143 C 0.23626 0.33279 0.66441 0.0
C144 C 0.26636 0.34071 0.65241 0.0
C145 C 0.18235 0.37944 0.64628 0.0
H146 H 0.15092 0.39631 0.64385 0.0
C147 C 0.21196 0.3865 0.63421 0.0
H148 H 0.2462 0.31151 0.67586 0.0
C149 C 0.25366 0.36723 0.63721 0.0
H150 H 0.27648 0.37372 0.62788 0.0
H151 H 0.20274 0.40755 0.62263 0.0
Zn152 Zn 0.20032 0.70567 0.15022 0.0
Zn153 Zn 0.11456 0.79646 0.09801 0.0
Zn154 Zn 0.15963 0.74952 0.12282 0.0
C155 C 0.11802 0.71258 0.07892 0.0
C156 C 0.19628 0.83814 0.10831 0.0
O157 O 0.1243 0.75547 0.14778 0.0
O158 O 0.16292 0.71624 0.1698 0.0
C159 C 0.17708 0.64358 0.11791 0.0
O160 O 0.14281 0.70529 0.0952 0.0
O161 O 0.10004 0.74963 0.07674 0.0
O162 O 0.16051 0.83964 0.09614 0.0
O163 O 0.20212 0.80712 0.11975 0.0
O164 O 0.19505 0.64697 0.13562 0.0
O165 O 0.16277 0.6786 0.10979 0.0
O166 O 0.2279 0.7792 0.13218 0.0
O167 O 0.25785 0.73763 0.15511 0.0
C168 C 0.2613 0.76902 0.14505 0.0
O169 O 0.09695 0.7737 0.13242 0.0
O170 O 0.06554 0.81755 0.1107 0.0
C171 C 0.13059 0.741 0.16464 0.0
C172 C 0.0651 0.79964 0.12599 0.0
Zn173 Zn 0.56245 0.67904 0.34008 0.0
Zn174 Zn 0.65036 0.79096 0.3957 0.0
Zn175 Zn 0.60324 0.73556 0.36915 0.0
C176 C 0.56855 0.83055 0.38462 0.0
C177 C 0.70016 0.77968 0.36772 0.0
O178 O 0.59398 0.6719 0.3813 0.0
O179 O 0.56059 0.62844 0.3556 0.0
C180 C 0.5043 0.7503 0.34552 0.0
O181 O 0.56242 0.79527 0.37264 0.0
O182 O 0.60396 0.83607 0.39713 0.0
O183 O 0.69997 0.80444 0.38312 0.0
O184 O 0.66758 0.75234 0.36081 0.0
O185 O 0.50758 0.71512 0.33473 0.0
O186 O 0.53686 0.76368 0.35929 0.0
O187 O 0.63888 0.73044 0.34444 0.0
O188 O 0.60413 0.68007 0.32193 0.0
C189 C 0.63462 0.70883 0.32748 0.0
O190 O 0.61658 0.7023 0.39632 0.0
O191 O 0.66202 0.7503 0.41614 0.0
C192 C 0.57643 0.63428 0.37354 0.0
C193 C 0.64129 0.71375 0.41301 0.0
Zn194 Zn 0.61104 0.29507 0.59968 0.0
Zn195 Zn 0.70874 0.20067 0.64742 0.0
Zn196 Zn 0.66233 0.24798 0.62212 0.0
C197 C 0.76199 0.27387 0.64464 0.0
C198 C 0.69162 0.14546 0.61282 0.0
O199 O 0.59996 0.2658 0.63343 0.0
O200 O 0.56507 0.31403 0.6146 0.0
C201 C 0.69124 0.34016 0.60794 0.0
O202 O 0.72825 0.28208 0.63153 0.0
O203 O 0.76102 0.24113 0.65425 0.0
O204 O 0.713 0.14648 0.63002 0.0
O205 O 0.66997 0.1799 0.60708 0.0
O206 O 0.65423 0.33997 0.59648 0.0
O207 O 0.70037 0.30913 0.61927 0.0
O208 O 0.64512 0.20702 0.59384 0.0
O209 O 0.59375 0.24869 0.57816 0.0
C210 C 0.61588 0.21357 0.57869 0.0
O211 O 0.62997 0.24553 0.64756 0.0
O212 O 0.66931 0.19987 0.66644 0.0
C213 C 0.56708 0.29207 0.62893 0.0
C214 C 0.63683 0.22551 0.66311 0.0
Zn215 Zn 0.06965 0.17656 0.84137 0.0
Zn216 Zn 0.14269 0.28958 0.89842 0.0
Zn217 Zn 0.10286 0.23384 0.87062 0.0
C218 C 0.13962 0.21055 0.91449 0.0
C219 C 0.05985 0.32504 0.88608 0.0
O220 O 0.13911 0.23756 0.84628 0.0
O221 O 0.10494 0.19041 0.8222 0.0
C222 C 0.09463 0.12721 0.87258 0.0
O223 O 0.119 0.19782 0.89713 0.0
O224 O 0.15435 0.24964 0.91883 0.0
O225 O 0.09434 0.33236 0.89897 0.0
O226 O 0.05644 0.28968 0.87411 0.0
O227 O 0.08332 0.12201 0.85436 0.0
O228 O 0.10133 0.16658 0.88149 0.0
O229 O 0.03361 0.25523 0.86134 0.0
O230 O 0.00833 0.20105 0.83865 0.0
C231 C 1.00147 0.23624 0.84878 0.0
O232 O 0.16564 0.25886 0.86308 0.0
O233 O 0.1939 0.3071 0.88785 0.0
C234 C 0.13421 0.21999 0.82857 0.0
C235 C 0.19644 0.28689 0.87164 0.0
H236 H 0.11736 0.36362 0.09138 0.0
H237 H 0.21764 0.38538 0.05817 0.0
H238 H 0.11132 0.44313 0.09889 0.0
H239 H 0.21268 0.46575 0.06623 0.0
H240 H 0.17342 0.61392 0.07899 0.0
H241 H 0.16745 0.5362 0.06448 0.0
H242 H 0.16185 0.49374 0.12046 0.0
H243 H 0.1665 0.56962 0.13445 0.0
C244 C 0.13813 0.38555 0.08567 0.0
C245 C 0.16861 0.36827 0.07453 0.0
C246 C 0.13469 0.43117 0.08996 0.0
C247 C 0.16213 0.46093 0.08348 0.0
C248 C 0.19096 0.44382 0.0714 0.0
C249 C 0.19403 0.39785 0.06689 0.0
C250 C 0.16997 0.58786 0.08797 0.0
C251 C 0.17027 0.59805 0.10784 0.0
C252 C 0.16706 0.54339 0.07976 0.0
C253 C 0.16378 0.50863 0.09127 0.0
C254 C 0.16341 0.51938 0.11101 0.0
C255 C 0.16653 0.56317 0.1191 0.0
H256 H 0.97144 0.7592 0.37049 0.0
H257 H 0.9398 0.85275 0.32798 0.0
H258 H 0.89231 0.74313 0.36767 0.0
H259 H 0.86035 0.83748 0.32546 0.0
H260 H 0.74456 0.85327 0.36315 0.0
H261 H 0.8168 0.85724 0.35387 0.0
H262 H 0.81771 0.71476 0.34332 0.0
H263 H 0.74425 0.71091 0.3521 0.0
C264 C 0.94748 0.77544 0.36019 0.0
C265 C 0.96151 0.80717 0.34945 0.0
C266 C 0.90228 0.76613 0.3585 0.0
C267 C 0.87025 0.78908 0.34635 0.0
C268 C 0.88441 0.81927 0.33489 0.0
C269 C 0.92972 0.8279 0.33628 0.0
C270 C 0.75964 0.82289 0.35832 0.0
C271 C 0.73909 0.78179 0.35843 0.0
C272 C 0.80085 0.82516 0.35292 0.0
C273 C 0.8229 0.7863 0.34796 0.0
C274 C 0.80136 0.74519 0.3471 0.0
C275 C 0.75941 0.743 0.35205 0.0
H276 H 0.6943 0.60323 0.6406 0.0
H277 H 0.76742 0.60993 0.59453 0.0
H278 H 0.70526 0.52416 0.63943 0.0
H279 H 0.77715 0.52956 0.593 0.0
H280 H 0.7046 0.38758 0.57911 0.0
H281 H 0.72518 0.46562 0.58266 0.0
H282 H 0.75928 0.46337 0.64474 0.0
H283 H 0.73832 0.38481 0.64109 0.0
C284 C 0.71365 0.58813 0.63047 0.0
C285 C 0.73015 0.6135 0.61773 0.0
C286 C 0.72001 0.54249 0.62985 0.0
C287 C 0.74256 0.52043 0.61629 0.0
C288 C 0.75965 0.54557 0.60365 0.0
C289 C 0.7537 0.59161 0.60442 0.0
C290 C 0.7183 0.40329 0.59346 0.0
C291 C 0.71938 0.38029 0.60984 0.0
C292 C 0.73012 0.44812 0.5955 0.0
C293 C 0.7429 0.47105 0.61401 0.0
C294 C 0.74877 0.44677 0.63029 0.0
C295 C 0.73733 0.40163 0.62821 0.0
H296 H 0.71911 0.22928 0.81669 0.0
H297 H 0.7392 0.36041 0.84686 0.0
H298 H 0.79855 0.21637 0.8243 0.0
H299 H 0.81968 0.34803 0.85419 0.0
H300 H 0.96126 0.28651 0.87517 0.0
H301 H 0.88226 0.30512 0.87129 0.0
H302 H 0.86008 0.24372 0.81236 0.0
H303 H 0.93787 0.2247 0.81633 0.0
C304 C 0.74068 0.25524 0.8251 0.0
C305 C 0.72311 0.29594 0.83103 0.0
C306 C 0.78626 0.24806 0.82934 0.0
C307 C 0.81571 0.28159 0.83944 0.0
C308 C 0.79796 0.32156 0.84635 0.0
C309 C 0.75196 0.32864 0.8422 0.0
C310 C 0.93953 0.27777 0.86131 0.0
C311 C 0.95571 0.25375 0.84612 0.0
C312 C 0.89427 0.28827 0.85911 0.0
C313 C 0.86456 0.27491 0.84167 0.0
C314 C 0.8816 0.25325 0.8262 0.0
C315 C 0.92638 0.24261 0.82843 0.0
H316 H 0.04439 0.58909 0.87898 0.0
H317 H 0.9465 0.57609 0.91427 0.0
H318 H 0.03815 0.5096 0.86862 0.0
H319 H 0.9391 0.49694 0.90362 0.0
H320 H 0.02294 0.36778 0.91417 0.0
H321 H 0.99379 0.44227 0.91412 0.0
H322 H 0.99785 0.44047 0.85332 0.0
H323 H 0.02704 0.36497 0.8535 0.0
C324 C 0.02018 0.56944 0.88384 0.0
C325 C 0.99612 0.58836 0.89746 0.0
C326 C 0.01642 0.52393 0.87789 0.0
C327 C 0.98852 0.49671 0.88551 0.0
C328 C 0.96137 0.51677 0.89771 0.0
C329 C 0.96539 0.56207 0.90373 0.0
C330 C 0.01555 0.38251 0.90058 0.0
C331 C 0.02718 0.3608 0.88387 0.0
C332 C 0.99886 0.42535 0.90051 0.0
C333 C 0.99406 0.44774 0.88376 0.0
C334 C 1.00165 0.4243 0.8665 0.0
C335 C 0.01778 0.38092 0.86652 0.0
H336 H 0.84403 0.91857 0.17146 0.0
H337 H 0.7997 0.78701 0.14685 0.0
H338 H 0.92 0.89954 0.16883 0.0
H339 H 0.87592 0.76798 0.14369 0.0
H340 H 0.02449 0.74378 0.1458 0.0
H341 H 0.95587 0.75762 0.15836 0.0
H342 H 0.95131 0.88928 0.13992 0.0
H343 H 0.01936 0.87571 0.12785 0.0
C344 C 0.85079 0.88529 0.16576 0.0
C345 C 0.816 0.85442 0.15912 0.0
C346 C 0.89425 0.8744 0.16417 0.0
C347 C 0.90396 0.83252 0.15568 0.0
C348 C 0.86965 0.80049 0.15036 0.0
C349 C 0.826 0.81135 0.15212 0.0
C350 C 0.0092 0.77595 0.1449 0.0
C351 C 0.02731 0.80875 0.13593 0.0
C352 C 0.96976 0.78374 0.15191 0.0
C353 C 0.94806 0.8246 0.15019 0.0
C354 C 0.96734 0.8577 0.14181 0.0
C355 C 1.00626 0.84982 0.13473 0.0
H356 H 0.46333 0.41425 0.41696 0.0
H357 H 0.57171 0.36424 0.39076 0.0
H358 H 0.49022 0.48985 0.41744 0.0
H359 H 0.59828 0.4402 0.39072 0.0
H360 H 0.63984 0.58502 0.39478 0.0
H361 H 0.62681 0.51426 0.40723 0.0
H362 H 0.48541 0.53135 0.38966 0.0
H363 H 0.49867 0.60087 0.37738 0.0
C364 C 0.49355 0.4195 0.4117 0.0
C365 C 0.51519 0.38353 0.40363 0.0
C366 C 0.50888 0.46278 0.41189 0.0
C367 C 0.54592 0.47123 0.40376 0.0
C368 C 0.56978 0.43494 0.39717 0.0
C369 C 0.55457 0.39142 0.39715 0.0
C370 C 0.60611 0.57402 0.39423 0.0
C371 C 0.57017 0.59825 0.38528 0.0
C372 C 0.59861 0.53344 0.40115 0.0
C373 C 0.55505 0.51701 0.39943 0.0
C374 C 0.51935 0.54307 0.39154 0.0
C375 C 0.52686 0.58295 0.38444 0.0
H376 H 0.03523 0.3007 0.64506 0.0
H377 H 0.02226 0.38828 0.69561 0.0
H378 H 0.95436 0.29667 0.63514 0.0
H379 H 0.94169 0.38442 0.68569 0.0
H380 H 0.8145 0.29686 0.67939 0.0
H381 H 0.89081 0.32335 0.68577 0.0
H382 H 0.88183 0.33475 0.62474 0.0
H383 H 0.80439 0.308 0.61838 0.0
C384 C 0.01518 0.31988 0.65382 0.0
C385 C 0.03519 0.34418 0.67131 0.0
C386 C 0.9688 0.31772 0.6481 0.0
C387 C 0.94148 0.33986 0.65973 0.0
C388 C 0.96169 0.36635 0.67657 0.0
C389 C 1.00788 0.36844 0.68229 0.0
C390 C 0.82837 0.30623 0.66738 0.0
C391 C 0.80361 0.30027 0.6484 0.0
C392 C 0.87217 0.32155 0.67103 0.0
C393 C 0.89268 0.33089 0.65575 0.0
C394 C 0.86709 0.32744 0.6368 0.0
C395 C 0.82269 0.31263 0.63317 0.0
H396 H 0.29833 0.26943 0.63321 0.0
H397 H 0.33733 0.37593 0.67832 0.0
H398 H 0.37657 0.25269 0.63331 0.0
H399 H 0.41569 0.35974 0.67835 0.0
H400 H 0.52488 0.36664 0.63904 0.0
H401 H 0.45493 0.37211 0.65046 0.0
H402 H 0.45352 0.23064 0.65294 0.0
H403 H 0.52466 0.22539 0.64184 0.0
C404 C 0.32377 0.28813 0.64362 0.0
C405 C 0.3121 0.32364 0.65587 0.0
C406 C 0.36849 0.2786 0.64371 0.0
C407 C 0.40226 0.30502 0.6558 0.0
C408 C 0.39038 0.33888 0.66887 0.0
C409 C 0.34567 0.348 0.66895 0.0
C410 C 0.51026 0.33688 0.64255 0.0
C411 C 0.53002 0.29561 0.63953 0.0
C412 C 0.47029 0.34001 0.64917 0.0
C413 C 0.44863 0.30178 0.65253 0.0
C414 C 0.46947 0.26062 0.65042 0.0
C415 C 0.51018 0.25763 0.64418 0.0
H416 H 0.53629 0.79771 0.14279 0.0
H417 H 0.52391 0.8763 0.19574 0.0
H418 H 0.45513 0.79309 0.1332 0.0
H419 H 0.44333 0.87265 0.18609 0.0
H420 H 0.31777 0.78536 0.17925 0.0
H421 H 0.39428 0.81039 0.18509 0.0
H422 H 0.3811 0.82981 0.12456 0.0
H423 H 0.30328 0.8041 0.11868 0.0
C424 C 0.51621 0.81487 0.15213 0.0
C425 C 0.53633 0.83658 0.17018 0.0
C426 C 0.46975 0.81244 0.14662 0.0
C427 C 0.44267 0.83194 0.15902 0.0
C428 C 0.46312 0.85644 0.17638 0.0
C429 C 0.50928 0.85853 0.18193 0.0
C430 C 0.33081 0.7958 0.16722 0.0
C431 C 0.30459 0.79258 0.1485 0.0
C432 C 0.37476 0.81044 0.17058 0.0
C433 C 0.39405 0.82207 0.15529 0.0
C434 C 0.36729 0.82078 0.13662 0.0
C435 C 0.32271 0.80652 0.13328 0.0
H436 H 0.42698 0.40735 0.84233 0.0
H437 H 0.46307 0.27231 0.85095 0.0
H438 H 0.3497 0.38958 0.84227 0.0
H439 H 0.38577 0.25453 0.85172 0.0
H440 H 0.23717 0.23191 0.84697 0.0
H441 H 0.30712 0.2464 0.83662 0.0
H442 H 0.31428 0.37664 0.86807 0.0
H443 H 0.24473 0.36273 0.87769 0.0
C444 C 0.41813 0.37369 0.84402 0.0
C445 C 0.45094 0.34132 0.84689 0.0
C446 C 0.37392 0.36348 0.84408 0.0
C447 C 0.36151 0.32082 0.84741 0.0
C448 C 0.39398 0.28766 0.84903 0.0
C449 C 0.43829 0.29781 0.84868 0.0
C450 C 0.25331 0.26395 0.85121 0.0
C451 C 0.23542 0.29619 0.86312 0.0
C452 C 0.29357 0.27211 0.84546 0.0
C453 C 0.31649 0.31274 0.85148 0.0
C454 C 0.29745 0.34529 0.86282 0.0
C455 C 0.2576 0.33714 0.86852 0.0
H456 H 0.24306 0.87228 0.34893 0.0
H457 H 0.22779 0.76185 0.30466 0.0
H458 H 0.32378 0.86168 0.35551 0.0
H459 H 0.30731 0.75026 0.31147 0.0
H460 H 0.44922 0.75964 0.31143 0.0
H461 H 0.37252 0.78339 0.30636 0.0
H462 H 0.38397 0.814 0.36817 0.0
H463 H 0.46201 0.79191 0.37307 0.0
C464 C 0.25697 0.84547 0.34079 0.0
C465 C 0.22931 0.81825 0.32611 0.0
C466 C 0.30314 0.83937 0.34453 0.0
C467 C 0.32236 0.80571 0.33374 0.0
C468 C 0.29412 0.77753 0.31963 0.0
C469 C 0.24838 0.78388 0.3158 0.0
C470 C 0.43562 0.77236 0.3239 0.0
C471 C 0.46137 0.7735 0.34264 0.0
C472 C 0.39145 0.78552 0.32104 0.0
C473 C 0.37142 0.79923 0.33689 0.0
C474 C 0.39815 0.80345 0.35561 0.0
C475 C 0.44289 0.79089 0.35845 0.0
H476 H 0.61072 0.87783 0.57651 0.0
H477 H 0.74358 0.87715 0.56528 0.0
H478 H 0.61393 0.95877 0.58254 0.0
H479 H 0.74695 0.95815 0.57092 0.0
H480 H 0.75756 0.08603 0.61357 0.0
H481 H 0.75276 1.00981 0.59928 0.0
H482 H 0.6183 0.03082 0.56995 0.0
H483 H 0.6231 0.10784 0.58476 0.0
C484 C 0.64034 0.89528 0.57506 0.0
C485 C 0.67701 0.87157 0.57057 0.0
C486 C 0.64212 0.94161 0.57834 0.0
C487 C 0.68075 0.96519 0.57728 0.0
C488 C 0.71685 0.94118 0.57208 0.0
C489 C 0.71499 0.89486 0.56879 0.0
C490 C 0.72725 0.07477 0.60371 0.0
C491 C 0.69068 0.103 0.60034 0.0
C492 C 0.72455 0.03094 0.59541 0.0
C493 C 0.68503 0.01381 0.58353 0.0
C494 C 0.6491 0.04276 0.57922 0.0
C495 C 0.65198 0.08706 0.58747 0.0
H496 H 0.17491 0.09174 0.13873 0.0
H497 H 0.26662 0.11178 0.10097 0.0
H498 H 0.19424 0.01456 0.13835 0.0
H499 H 0.28416 0.03275 0.09984 0.0
H500 H 0.21758 0.88553 0.08082 0.0
H501 H 0.23586 0.9643 0.0856 0.0
H502 H 0.2564 0.96028 0.14753 0.0
H503 H 0.23824 0.88109 0.14268 0.0
C504 C 0.20007 0.08017 0.13069 0.0
C505 C 0.2194 0.10872 0.12002 0.0
C506 C 0.21117 0.03556 0.13049 0.0
C507 C 0.24128 0.01759 0.11932 0.0
C508 C 0.26106 0.04579 0.10871 0.0
C509 C 0.25054 0.09097 0.10919 0.0
C510 C 0.22827 0.90099 0.09548 0.0
C511 C 0.22583 0.87743 0.11138 0.0
C512 C 0.2387 0.94621 0.09822 0.0
C513 C 0.24643 0.96869 0.11692 0.0
C514 C 0.24987 0.94385 0.13292 0.0
C515 C 0.23995 0.89839 0.13017 0.0
H516 H 0.54955 0.09544 0.37751 0.0
H517 H 0.4527 0.08062 0.41314 0.0
H518 H 0.54442 0.01583 0.36718 0.0
H519 H 0.44675 1.00134 0.40265 0.0
H520 H 0.53246 0.86989 0.35225 0.0
H521 H 0.50231 0.94511 0.35209 0.0
H522 H 0.50673 0.94985 0.4137 0.0
H523 H 0.53725 0.87583 0.41378 0.0
C524 C 0.5258 0.07536 0.38243 0.0
C525 C 0.50176 0.09373 0.39617 0.0
C526 C 0.52268 0.02985 0.37651 0.0
C527 C 0.49555 1.00221 0.38431 0.0
C528 C 0.46829 0.02167 0.39657 0.0
C529 C 0.47155 0.06697 0.40252 0.0
C530 C 0.52513 0.88654 0.36553 0.0
C531 C 0.5372 0.86744 0.38306 0.0
C532 C 0.50831 0.92962 0.36549 0.0
C533 C 0.50251 0.95358 0.3829 0.0
C534 C 0.51037 0.93231 0.4 0.0
C535 C 0.52791 0.88987 0.40009 0.0
H536 H 0.03024 0.86239 0.8656 0.0
H537 H 0.03235 0.89239 0.92661 0.0
H538 H 0.0635 0.93423 0.86452 0.0
H539 H 0.06647 0.96519 0.92576 0.0
H540 H 0.05579 0.10959 0.9029 0.0
H541 H 0.04306 0.03554 0.91206 0.0
H542 H 0.12843 0.97994 0.87418 0.0
H543 H 0.13932 0.0532 0.86457 0.0
C544 C 0.03908 0.88411 0.87892 0.0
C545 C 0.02921 0.87176 0.8962 0.0
C546 C 0.0583 0.92536 0.87837 0.0
C547 C 0.06801 0.95572 0.8951 0.0
C548 C 0.05935 0.94276 0.91261 0.0
C549 C 0.04029 0.901 0.91317 0.0
C550 C 0.07296 0.08164 0.89711 0.0
C551 C 0.09822 0.08694 0.88292 0.0
C552 C 0.06563 0.03915 0.9023 0.0
C553 C 0.08379 1.00147 0.89347 0.0
C554 C 0.11285 1.00789 0.88086 0.0
C555 C 0.11953 0.04996 0.87549 0.0
H556 H 0.22361 0.26822 0.02462 0.0
H557 H 0.11792 0.18248 0.03183 0.0
H558 H 0.21646 0.23686 0.99116 0.0
H559 H 0.11069 0.15046 0.99803 0.0
H560 H 0.21419 0.17771 0.93471 0.0
H561 H 0.22503 0.17069 0.96935 0.0
H562 H 0.08365 0.18134 0.96635 0.0
H563 H 0.07305 0.18692 0.93156 0.0
C564 C 0.19919 0.24217 0.01905 0.0
C565 C 0.1711 0.22806 0.03074 0.0
C566 C 0.19543 0.22369 -6e-05 0.0
C567 C 0.16321 0.19077 0.99192 0.0
C568 C 0.13588 0.17564 0.00379 0.0
C569 C 0.14007 0.19387 0.02311 0.0
C570 C 0.18527 0.17555 0.94125 0.0
C571 C 0.14284 0.18292 0.93056 0.0
C572 C 0.19148 0.17232 0.96115 0.0
C573 C 0.15536 0.17707 0.9707 0.0
C574 C 0.11222 0.17776 0.95947 0.0
C575 C 0.10602 0.18056 0.93946 0.0
H576 H 0.04821 0.77961 0.2747 0.0
H577 H 0.14106 0.88057 0.26849 0.0
H578 H 0.03089 0.76208 0.23949 0.0
H579 H 0.12456 0.86279 0.23351 0.0
H580 H 0.09971 0.82441 0.17169 0.0
H581 H 0.07581 0.85456 0.20139 0.0
H582 H 0.08118 0.7236 0.22061 0.0
H583 H 0.1042 0.69381 0.19096 0.0
C584 C 0.06371 0.79908 0.26576 0.0
C585 C 0.09649 0.83093 0.27428 0.0
C586 C 0.05403 0.78889 0.24562 0.0
C587 C 0.07681 0.81056 0.2337 0.0
C588 C 0.10615 0.84558 0.24218 0.0
C589 C 0.11596 0.85556 0.26226 0.0
C590 C 0.09381 0.80192 0.1819 0.0
C591 C 0.10402 0.75687 0.17915 0.0
C592 C 0.0805 0.8192 0.19897 0.0
C593 C 0.07723 0.79162 0.21351 0.0
C594 C 0.08302 0.74582 0.20972 0.0
C595 C 0.09654 0.72869 0.19277 0.0
H596 H 0.59324 0.76779 0.51877 0.0
H597 H 0.7034 0.68074 0.53412 0.0
H598 H 0.58373 0.73688 0.48507 0.0
H599 H 0.6933 0.64897 0.50038 0.0
H600 H 0.7122 0.69351 0.43962 0.0
H601 H 0.71069 0.6851 0.47326 0.0
H602 H 0.56762 0.67463 0.45916 0.0
H603 H 0.56949 0.68289 0.42521 0.0
C604 C 0.6148 0.74133 0.51499 0.0
C605 C 0.64958 0.72731 0.52904 0.0
C606 C 0.60898 0.72311 0.4957 0.0
C607 C 0.63796 0.69057 0.48997 0.0
C608 C 0.67063 0.6742 0.50429 0.0
C609 C 0.6763 0.69229 0.52364 0.0
C610 C 0.68062 0.68701 0.44352 0.0
C611 C 0.64098 0.68922 0.42992 0.0
C612 C 0.67966 0.68228 0.46286 0.0
C613 C 0.63893 0.68025 0.46901 0.0
C614 C 0.59948 0.67687 0.4549 0.0
C615 C 0.60053 0.68099 0.43542 0.0
H616 H 0.55372 0.24698 0.77448 0.0
H617 H 0.64252 0.35303 0.76997 0.0
H618 H 0.54062 0.2289 0.73915 0.0
H619 H 0.62964 0.33549 0.73495 0.0
H620 H 0.60184 0.30542 0.67278 0.0
H621 H 0.57798 0.32905 0.70313 0.0
H622 H 0.59449 0.19579 0.71953 0.0
H623 H 0.61713 0.17205 0.68897 0.0
C624 C 0.56929 0.26716 0.76582 0.0
C625 C 0.59925 0.30115 0.77476 0.0
C626 C 0.56198 0.2568 0.74568 0.0
C627 C 0.58414 0.28071 0.73427 0.0
C628 C 0.61154 0.3168 0.74324 0.0
C629 C 0.61923 0.32671 0.76329 0.0
C630 C 0.59824 0.28076 0.68243 0.0
C631 C 0.6113 0.23689 0.67853 0.0
C632 C 0.58507 0.2944 0.69992 0.0
C633 C 0.58496 0.26443 0.71383 0.0
C634 C 0.59393 0.21965 0.70908 0.0
C635 C 0.60721 0.20607 0.69163 0.0
H636 H 1.00771 0.7218 0.96788 0.0
H637 H 0.10876 0.62847 0.95688 0.0
H638 H 0.02959 0.71553 0.00254 0.0
H639 H 0.13063 0.62198 0.99174 0.0
H640 H 0.04251 0.672 0.05966 0.0
H641 H 0.02563 0.65528 0.02452 0.0
H642 H 0.16415 0.67202 0.02277 0.0
H643 H 0.18089 0.68834 0.05805 0.0
C644 C 0.03503 0.70045 0.97291 0.0
C645 C 0.05661 0.67578 0.95971 0.0
C646 C 0.04707 0.69622 0.99271 0.0
C647 C 0.08119 0.66748 -0.00022 0.0
C648 C 0.10398 0.64402 0.98667 0.0
C649 C 0.09154 0.64785 0.96678 0.0
C650 C 0.06965 0.66942 0.05186 0.0
C651 C 0.11296 0.68117 0.06148 0.0
C652 C 0.05992 0.66073 0.03173 0.0
C653 C 0.09339 0.66377 0.02091 0.0
C654 C 0.13768 0.66968 0.03075 0.0
C655 C 0.14739 0.67843 0.05097 0.0
H656 H 0.70398 0.75565 0.21692 0.0
H657 H 0.61873 0.85656 0.23652 0.0
H658 H 0.71862 0.72924 0.24927 0.0
H659 H 0.63298 0.83052 0.26855 0.0
H660 H 0.66856 0.79104 0.32625 0.0
H661 H 0.6876 0.82044 0.29814 0.0
H662 H 0.66914 0.69041 0.26663 0.0
H663 H 0.65176 0.6606 0.29508 0.0
C664 C 0.68921 0.7727 0.22828 0.0
C665 C 0.65992 0.80781 0.22426 0.0
C666 C 0.69741 0.75755 0.24672 0.0
C667 C 0.67701 0.77778 0.26149 0.0
C668 C 0.64979 0.81454 0.25764 0.0
C669 C 0.64122 0.82923 0.23924 0.0
C670 C 0.67092 0.76818 0.31374 0.0
C671 C 0.65874 0.7234 0.31295 0.0
C672 C 0.68114 0.78523 0.29748 0.0
C673 C 0.67901 0.75795 0.28003 0.0
C674 C 0.67121 0.71233 0.27985 0.0
C675 C 0.66105 0.69525 0.29614 0.0
H676 H 0.61234 0.13361 0.45631 0.0
H677 H 0.51022 0.22637 0.46661 0.0
H678 H 0.63271 0.12677 0.49119 0.0
H679 H 0.5309 0.22012 0.50123 0.0
H680 H 0.53997 0.17662 0.55784 0.0
H681 H 0.52509 0.16063 0.5227 0.0
H682 H 0.66488 0.1745 0.52272 0.0
H683 H 0.67972 0.18953 0.5581 0.0
C684 C 0.59458 0.15281 0.46605 0.0
C685 C 0.55971 0.1806 0.45875 0.0
C686 C 0.60621 0.14884 0.48595 0.0
C687 C 0.58276 0.17212 0.49886 0.0
C688 C 0.54887 0.20089 0.49158 0.0
C689 C 0.53753 0.20513 0.47178 0.0
C690 C 0.56772 0.17384 0.55041 0.0
C691 C 0.61088 0.18444 0.56054 0.0
C692 C 0.55918 0.16545 0.53029 0.0
C693 C 0.59365 0.16795 0.51997 0.0
C694 C 0.63764 0.17273 0.53031 0.0
C695 C 0.64623 0.18085 0.55057 0.0
H696 H 0.11699 0.37275 0.73795 0.0
H697 H 0.20709 0.27422 0.72035 0.0
H698 H 0.13074 0.34839 0.7703 0.0
H699 H 0.22185 0.25036 0.75299 0.0
H700 H 0.16183 0.30542 0.82851 0.0
H701 H 0.1805 0.33858 0.80098 0.0
H702 H 0.17383 0.20923 0.76884 0.0
H703 H 0.15631 0.17626 0.79643 0.0
C704 C 0.1405 0.34647 0.74115 0.0
C705 C 0.16038 0.3249 0.72653 0.0
C706 C 0.14884 0.33282 0.75978 0.0
C707 C 0.17719 0.29715 0.76424 0.0
C708 C 0.19949 0.27763 0.74997 0.0
C709 C 0.19127 0.29147 0.73131 0.0
C710 C 0.16626 0.28392 0.81587 0.0
C711 C 0.15743 0.23826 0.81458 0.0
C712 C 0.17643 0.30297 0.8 0.0
C713 C 0.17794 0.27668 0.78257 0.0
C714 C 0.17321 0.23051 0.78202 0.0
C715 C 0.16291 0.21156 0.79782 0.0
loop_
_geom_bond_atom_site_label_1
_geom_bond_atom_site_label_2
_geom_bond_distance
_geom_bond_site_symmetry_2
_ccdc_geom_bond_type
H0 C1 0.949 . S
C1 H0 0.949 . S
C1 C2 1.395 . S
C1 C3 1.391 . S
C2 C1 1.395 . S
C2 C5 1.390 . S
C3 C1 1.391 . S
C3 C7 1.387 . S
C3 C8 1.491 . S
H4 C5 0.950 . S
C5 C2 1.390 . S
C5 H4 0.950 . S
C5 C6 1.378 . S
C6 C5 1.378 . S
C6 C7 1.409 . S
C7 C3 1.387 . S
C7 C6 1.409 . S
C7 H9 0.951 . S
C8 C3 1.491 . S
C8 C10 1.382 . S
C8 C12 1.404 . S
H9 C7 0.951 . S
C10 C8 1.382 . S
C10 C11 1.390 . S
C10 H15 0.949 . S
C11 C10 1.390 . S
C11 C16 1.399 . S
C12 C8 1.404 . S
C12 H13 0.950 . S
C12 C14 1.375 . S
H13 C12 0.950 . S
C14 C12 1.375 . S
C14 C16 1.382 . S
C14 H18 0.950 . S
H15 C10 0.949 . S
C16 C11 1.399 . S
C16 C14 1.382 . S
C16 H17 0.952 . S
H17 C16 0.952 . S
H18 C14 0.950 . S
H19 C20 0.949 . S
C20 H19 0.949 . S
C20 C21 1.395 . S
C20 C22 1.391 . S
C21 C20 1.395 . S
C21 C24 1.390 . S
C22 C20 1.391 . S
C22 C26 1.387 . S
C22 C27 1.491 . S
H23 C24 0.950 . S
C24 C21 1.390 . S
C24 H23 0.950 . S
C24 C25 1.378 . S
C25 C24 1.378 . S
C25 C26 1.409 . S
C26 C22 1.387 . S
C26 C25 1.409 . S
C26 H28 0.951 . S
C27 C22 1.491 . S
C27 C29 1.382 . S
C27 C31 1.404 . S
H28 C26 0.951 . S
C29 C27 1.382 . S
C29 C30 1.390 1_455 S
C29 H34 0.949 . S
C30 C29 1.390 1_655 S
C30 C35 1.399 . S
C31 C27 1.404 . S
C31 H32 0.950 . S
C31 C33 1.375 . S
H32 C31 0.950 . S
C33 C31 1.375 . S
C33 C35 1.382 1_455 S
C33 H37 0.950 . S
H34 C29 0.949 . S
C35 C30 1.399 . S
C35 C33 1.382 1_655 S
C35 H36 0.952 . S
H36 C35 0.952 . S
H37 C33 0.950 . S
H38 C39 0.949 . S
C39 H38 0.949 . S
C39 C40 1.395 . S
C39 C41 1.391 . S
C40 C39 1.395 . S
C40 C43 1.390 . S
C41 C39 1.391 . S
C41 C45 1.387 . S
C41 C46 1.491 . S
H42 C43 0.950 . S
C43 C40 1.390 . S
C43 H42 0.950 . S
C43 C44 1.378 . S
C44 C43 1.378 . S
C44 C45 1.409 . S
C45 C41 1.387 . S
C45 C44 1.409 . S
C45 H47 0.951 . S
C46 C41 1.491 . S
C46 C48 1.382 . S
C46 C50 1.404 . S
H47 C45 0.951 . S
C48 C46 1.382 . S
C48 C49 1.390 . S
C48 H53 0.949 . S
C49 C48 1.390 . S
C49 C54 1.399 . S
C50 C46 1.404 . S
C50 H51 0.950 . S
C50 C52 1.375 . S
H51 C50 0.950 . S
C52 C50 1.375 . S
C52 C54 1.382 . S
C52 H56 0.950 . S
H53 C48 0.949 . S
C54 C49 1.399 . S
C54 C52 1.382 . S
C54 H55 0.952 . S
H55 C54 0.952 . S
H56 C52 0.950 . S
H57 C58 0.949 . S
C58 H57 0.949 . S
C58 C59 1.395 . S
C58 C60 1.391 . S
C59 C58 1.395 . S
C59 C62 1.390 . S
C60 C58 1.391 . S
C60 C64 1.387 . S
C60 C65 1.491 . S
H61 C62 0.950 . S
C62 C59 1.390 . S
C62 H61 0.950 . S
C62 C63 1.378 . S
C63 C62 1.378 . S
C63 C64 1.409 . S
C64 C60 1.387 . S
C64 C63 1.409 . S
C64 H66 0.951 . S
C65 C60 1.491 . S
C65 C67 1.382 . S
C65 C69 1.404 . S
H66 C64 0.951 . S
C67 C65 1.382 . S
C67 C68 1.390 . S
C67 H72 0.949 . S
C68 C67 1.390 . S
C68 C73 1.399 . S
C69 C65 1.404 . S
C69 H70 0.950 . S
C69 C71 1.375 . S
H70 C69 0.950 . S
C71 C69 1.375 . S
C71 C73 1.382 . S
C71 H75 0.950 . S
H72 C67 0.949 . S
C73 C68 1.399 . S
C73 C71 1.382 . S
C73 H74 0.952 . S
H74 C73 0.952 . S
H75 C71 0.950 . S
H76 C77 0.949 . S
C77 H76 0.949 . S
C77 C78 1.395 . S
C77 C79 1.391 . S
C78 C77 1.395 . S
C78 C81 1.390 . S
C79 C77 1.391 . S
C79 C83 1.387 . S
C79 C84 1.491 1_455 S
H80 C81 0.950 . S
C81 C78 1.390 . S
C81 H80 0.950 . S
C81 C82 1.378 . S
C82 C81 1.378 . S
C82 C83 1.409 . S
C83 C79 1.387 . S
C83 C82 1.409 . S
C83 H85 0.951 . S
C84 C79 1.491 1_655 S
C84 C86 1.382 1_655 S
C84 C88 1.404 . S
H85 C83 0.951 . S
C86 C84 1.382 1_455 S
C86 C87 1.390 . S
C86 H91 0.949 . S
C87 C86 1.390 . S
C87 C92 1.399 1_455 S
C88 C84 1.404 . S
C88 H89 0.950 . S
C88 C90 1.375 . S
H89 C88 0.950 . S
C90 C88 1.375 . S
C90 C92 1.382 . S
C90 H94 0.950 . S
H91 C86 0.949 . S
C92 C87 1.399 1_655 S
C92 C90 1.382 . S
C92 H93 0.952 . S
H93 C92 0.952 . S
H94 C90 0.950 . S
H95 C96 0.949 . S
C96 H95 0.949 . S
C96 C97 1.395 . S
C96 C98 1.391 . S
C97 C96 1.395 . S
C97 C100 1.390 . S
C98 C96 1.391 . S
C98 C102 1.387 . S
C98 C103 1.491 . S
H99 C100 0.950 . S
C100 C97 1.390 . S
C100 H99 0.950 . S
C100 C101 1.378 . S
C101 C100 1.378 . S
C101 C102 1.409 . S
C102 C98 1.387 . S
C102 C101 1.409 . S
C102 H104 0.951 . S
C103 C98 1.491 . S
C103 C105 1.382 . S
C103 C107 1.404 . S
H104 C102 0.951 . S
C105 C103 1.382 . S
C105 C106 1.390 . S
C105 H110 0.949 . S
C106 C105 1.390 . S
C106 C111 1.399 . S
C107 C103 1.404 . S
C107 H108 0.950 . S
C107 C109 1.375 . S
H108 C107 0.950 . S
C109 C107 1.375 . S
C109 C111 1.382 . S
C109 H113 0.950 . S
H110 C105 0.949 . S
C111 C106 1.399 . S
C111 C109 1.382 . S
C111 H112 0.952 . S
H112 C111 0.952 . S
H113 C109 0.950 . S
H114 C115 0.949 . S
C115 H114 0.949 . S
C115 C116 1.395 . S
C115 C117 1.391 . S
C116 C115 1.395 . S
C116 C119 1.390 . S
C117 C115 1.391 . S
C117 C121 1.387 . S
C117 C122 1.491 . S
H118 C119 0.950 . S
C119 C116 1.390 . S
C119 H118 0.950 . S
C119 C120 1.378 . S
C120 C119 1.378 . S
C120 C121 1.409 . S
C121 C117 1.387 . S
C121 C120 1.409 . S
C121 H123 0.951 . S
C122 C117 1.491 . S
C122 C124 1.382 . S
C122 C126 1.404 . S
H123 C121 0.951 . S
C124 C122 1.382 . S
C124 C125 1.390 . S
C124 H129 0.949 . S
C125 C124 1.390 . S
C125 C130 1.399 . S
C126 C122 1.404 . S
C126 H127 0.950 . S
C126 C128 1.375 . S
H127 C126 0.950 . S
C128 C126 1.375 . S
C128 C130 1.382 . S
C128 H132 0.950 . S
H129 C124 0.949 . S
C130 C125 1.399 . S
C130 C128 1.382 . S
C130 H131 0.952 . S
H131 C130 0.952 . S
H132 C128 0.950 . S
H133 C134 0.949 . S
C134 H133 0.949 . S
C134 C135 1.395 . S
C134 C136 1.391 . S
C135 C134 1.395 . S
C135 C138 1.390 . S
C136 C134 1.391 . S
C136 C140 1.387 . S
C136 C141 1.491 . S
H137 C138 0.950 . S
C138 C135 1.390 . S
C138 H137 0.950 . S
C138 C139 1.378 . S
C139 C138 1.378 . S
C139 C140 1.409 . S
C140 C136 1.387 . S
C140 C139 1.409 . S
C140 H142 0.951 . S
C141 C136 1.491 . S
C141 C143 1.382 . S
C141 C145 1.404 . S
H142 C140 0.951 . S
C143 C141 1.382 . S
C143 C144 1.390 . S
C143 H148 0.949 . S
C144 C143 1.390 . S
C144 C149 1.399 . S
C145 C141 1.404 . S
C145 H146 0.950 . S
C145 C147 1.375 . S
H146 C145 0.950 . S
C147 C145 1.375 . S
C147 C149 1.382 . S
C147 H151 0.950 . S
H148 C143 0.949 . S
C149 C144 1.399 . S
C149 C147 1.382 . S
C149 H150 0.952 . S
H150 C149 0.952 . S
H151 C147 0.950 . S
Zn152 O158 1.920 . S
Zn152 O164 1.898 . S
Zn152 O167 1.905 . S
Zn153 O161 1.905 . S
Zn153 O162 1.898 . S
Zn153 O170 1.920 . S
Zn154 O157 2.080 . S
Zn154 O160 2.114 . S
Zn154 O163 2.120 . S
Zn154 O165 2.120 . S
Zn154 O166 2.114 . S
Zn154 O169 2.080 . S
C155 O160 1.166 . S
C155 O161 1.182 . S
C156 O162 1.167 . S
C156 O163 1.299 . S
O157 Zn154 2.080 . S
O157 C171 1.305 . S
O158 Zn152 1.920 . S
O158 C171 1.234 . S
C159 O164 1.167 . S
C159 O165 1.299 . S
O160 Zn154 2.114 . S
O160 C155 1.166 . S
O161 Zn153 1.905 . S
O161 C155 1.182 . S
O162 Zn153 1.898 . S
O162 C156 1.167 . S
O163 Zn154 2.120 . S
O163 C156 1.299 . S
O164 Zn152 1.898 . S
O164 C159 1.167 . S
O165 Zn154 2.120 . S
O165 C159 1.299 . S
O166 Zn154 2.114 . S
O166 C168 1.166 . S
O167 Zn152 1.905 . S
O167 C168 1.182 . S
C168 O166 1.166 . S
C168 O167 1.182 . S
O169 Zn154 2.080 . S
O169 C172 1.305 . S
O170 Zn153 1.920 . S
O170 C172 1.234 . S
C171 O157 1.305 . S
C171 O158 1.234 . S
C172 O169 1.305 . S
C172 O170 1.234 . S
Zn173 O179 1.920 . S
Zn173 O185 1.898 . S
Zn173 O188 1.905 . S
Zn174 O182 1.905 . S
Zn174 O183 1.898 . S
Zn174 O191 1.920 . S
Zn175 O178 2.080 . S
Zn175 O181 2.114 . S
Zn175 O184 2.120 . S
Zn175 O186 2.120 . S
Zn175 O187 2.114 . S
Zn175 O190 2.080 . S
C176 O181 1.166 . S
C176 O182 1.182 . S
C177 O183 1.167 . S
C177 O184 1.299 . S
O178 Zn175 2.080 . S
O178 C192 1.305 . S
O179 Zn173 1.920 . S
O179 C192 1.234 . S
C180 O185 1.167 . S
C180 O186 1.299 . S
O181 Zn175 2.114 . S
O181 C176 1.166 . S
O182 Zn174 1.905 . S
O182 C176 1.182 . S
O183 Zn174 1.898 . S
O183 C177 1.167 . S
O184 Zn175 2.120 . S
O184 C177 1.299 . S
O185 Zn173 1.898 . S
O185 C180 1.167 . S
O186 Zn175 2.120 . S
O186 C180 1.299 . S
O187 Zn175 2.114 . S
O187 C189 1.166 . S
O188 Zn173 1.905 . S
O188 C189 1.182 . S
C189 O187 1.166 . S
C189 O188 1.182 . S
O190 Zn175 2.080 . S
O190 C193 1.305 . S
O191 Zn174 1.920 . S
O191 C193 1.234 . S
C192 O178 1.305 . S
C192 O179 1.234 . S
C193 O190 1.305 . S
C193 O191 1.234 . S
Zn194 O200 1.920 . S
Zn194 O206 1.898 . S
Zn194 O209 1.905 . S
Zn195 O203 1.905 . S
Zn195 O204 1.898 . S
Zn195 O212 1.920 . S
Zn196 O199 2.080 . S
Zn196 O202 2.114 . S
Zn196 O205 2.120 . S
Zn196 O207 2.120 . S
Zn196 O208 2.114 . S
Zn196 O211 2.080 . S
C197 O202 1.166 . S
C197 O203 1.182 . S
C198 O204 1.167 . S
C198 O205 1.299 . S
O199 Zn196 2.080 . S
O199 C213 1.305 . S
O200 Zn194 1.920 . S
O200 C213 1.234 . S
C201 O206 1.167 . S
C201 O207 1.299 . S
O202 Zn196 2.114 . S
O202 C197 1.166 . S
O203 Zn195 1.905 . S
O203 C197 1.182 . S
O204 Zn195 1.898 . S
O204 C198 1.167 . S
O205 Zn196 2.120 . S
O205 C198 1.299 . S
O206 Zn194 1.898 . S
O206 C201 1.167 . S
O207 Zn196 2.120 . S
O207 C201 1.299 . S
O208 Zn196 2.114 . S
O208 C210 1.166 . S
O209 Zn194 1.905 . S
O209 C210 1.182 . S
C210 O208 1.166 . S
C210 O209 1.182 . S
O211 Zn196 2.080 . S
O211 C214 1.305 . S
O212 Zn195 1.920 . S
O212 C214 1.234 . S
C213 O199 1.305 . S
C213 O200 1.234 . S
C214 O211 1.305 . S
C214 O212 1.234 . S
Zn215 O221 1.920 . S
Zn215 O227 1.898 . S
Zn215 O230 1.905 1_455 S
Zn216 O224 1.905 . S
Zn216 O225 1.898 . S
Zn216 O233 1.920 . S
Zn217 O220 2.080 . S
Zn217 O223 2.114 . S
Zn217 O226 2.120 . S
Zn217 O228 2.120 . S
Zn217 O229 2.114 . S
Zn217 O232 2.080 . S
C218 O223 1.166 . S
C218 O224 1.182 . S
C219 O225 1.167 . S
C219 O226 1.299 . S
O220 Zn217 2.080 . S
O220 C234 1.305 . S
O221 Zn215 1.920 . S
O221 C234 1.234 . S
C222 O227 1.167 . S
C222 O228 1.299 . S
O223 Zn217 2.114 . S
O223 C218 1.166 . S
O224 Zn216 1.905 . S
O224 C218 1.182 . S
O225 Zn216 1.898 . S
O225 C219 1.167 . S
O226 Zn217 2.120 . S
O226 C219 1.299 . S
O227 Zn215 1.898 . S
O227 C222 1.167 . S
O228 Zn217 2.120 . S
O228 C222 1.299 . S
O229 Zn217 2.114 . S
O229 C231 1.166 1_455 S
O230 Zn215 1.905 1_655 S
O230 C231 1.182 . S
C231 O229 1.166 1_655 S
C231 O230 1.182 . S
O232 Zn217 2.080 . S
O232 C235 1.305 . S
O233 Zn216 1.920 . S
O233 C235 1.234 . S
C234 O220 1.305 . S
C234 O221 1.234 . S
C235 O232 1.305 . S
C235 O233 1.234 . S
H236 C244 0.950 . S
H237 C249 0.950 . S
H238 C246 0.950 . S
H239 C248 0.950 . S
H240 C250 0.950 . S
H241 C252 0.950 . S
H242 C254 0.950 . S
H243 C255 0.950 . S
C244 H236 0.950 . S
C244 C245 1.386 . S
C244 C246 1.391 . S
C245 C244 1.386 . S
C245 C249 1.393 . S
C246 H238 0.950 . S
C246 C244 1.391 . S
C246 C247 1.400 . S
C247 C246 1.400 . S
C247 C248 1.398 . S
C247 C253 1.491 . S
C248 H239 0.950 . S
C248 C247 1.398 . S
C248 C249 1.391 . S
C249 H237 0.950 . S
C249 C245 1.393 . S
C249 C248 1.391 . S
C250 H240 0.950 . S
C250 C251 1.386 . S
C250 C252 1.391 . S
C251 C250 1.386 . S
C251 C255 1.393 . S
C252 H241 0.950 . S
C252 C250 1.391 . S
C252 C253 1.400 . S
C253 C247 1.491 . S
C253 C252 1.400 . S
C253 C254 1.398 . S
C254 H242 0.950 . S
C254 C253 1.398 . S
C254 C255 1.391 . S
C255 H243 0.950 . S
C255 C251 1.393 . S
C255 C254 1.391 . S
H256 C264 0.950 . S
H257 C269 0.950 . S
H258 C266 0.950 . S
H259 C268 0.950 . S
H260 C270 0.950 . S
H261 C272 0.950 . S
H262 C274 0.950 . S
H263 C275 0.950 . S
C264 H256 0.950 . S
C264 C265 1.386 . S
C264 C266 1.391 . S
C265 C264 1.386 . S
C265 C269 1.393 . S
C266 H258 0.950 . S
C266 C264 1.391 . S
C266 C267 1.400 . S
C267 C266 1.400 . S
C267 C268 1.398 . S
C267 C273 1.491 . S
C268 H259 0.950 . S
C268 C267 1.398 . S
C268 C269 1.391 . S
C269 H257 0.950 . S
C269 C265 1.393 . S
C269 C268 1.391 . S
C270 H260 0.950 . S
C270 C271 1.386 . S
C270 C272 1.391 . S
C271 C270 1.386 . S
C271 C275 1.393 . S
C272 H261 0.950 . S
C272 C270 1.391 . S
C272 C273 1.400 . S
C273 C267 1.491 . S
C273 C272 1.400 . S
C273 C274 1.398 . S
C274 H262 0.950 . S
C274 C273 1.398 . S
C274 C275 1.391 . S
C275 H263 0.950 . S
C275 C271 1.393 . S
C275 C274 1.391 . S
H276 C284 0.950 . S
H277 C289 0.950 . S
H278 C286 0.950 . S
H279 C288 0.950 . S
H280 C290 0.950 . S
H281 C292 0.950 . S
H282 C294 0.950 . S
H283 C295 0.950 . S
C284 H276 0.950 . S
C284 C285 1.386 . S
C284 C286 1.391 . S
C285 C284 1.386 . S
C285 C289 1.393 . S
C286 H278 0.950 . S
C286 C284 1.391 . S
C286 C287 1.400 . S
C287 C286 1.400 . S
C287 C288 1.398 . S
C287 C293 1.491 . S
C288 H279 0.950 . S
C288 C287 1.398 . S
C288 C289 1.391 . S
C289 H277 0.950 . S
C289 C285 1.393 . S
C289 C288 1.391 . S
C290 H280 0.950 . S
C290 C291 1.386 . S
C290 C292 1.391 . S
C291 C290 1.386 . S
C291 C295 1.393 . S
C292 H281 0.950 . S
C292 C290 1.391 . S
C292 C293 1.400 . S
C293 C287 1.491 . S
C293 C292 1.400 . S
C293 C294 1.398 . S
C294 H282 0.950 . S
C294 C293 1.398 . S
C294 C295 1.391 . S
C295 H283 0.950 . S
C295 C291 1.393 . S
C295 C294 1.391 . S
H296 C304 0.950 . S
H297 C309 0.950 . S
H298 C306 0.950 . S
H299 C308 0.950 . S
H300 C310 0.950 . S
H301 C312 0.950 . S
H302 C314 0.950 . S
H303 C315 0.950 . S
C304 H296 0.950 . S
C304 C305 1.386 . S
C304 C306 1.391 . S
C305 C304 1.386 . S
C305 C309 1.393 . S
C306 H298 0.950 . S
C306 C304 1.391 . S
C306 C307 1.400 . S
C307 C306 1.400 . S
C307 C308 1.398 . S
C307 C313 1.491 . S
C308 H299 0.950 . S
C308 C307 1.398 . S
C308 C309 1.391 . S
C309 H297 0.950 . S
C309 C305 1.393 . S
C309 C308 1.391 . S
C310 H300 0.950 . S
C310 C311 1.386 . S
C310 C312 1.391 . S
C311 C310 1.386 . S
C311 C315 1.393 . S
C312 H301 0.950 . S
C312 C310 1.391 . S
C312 C313 1.400 . S
C313 C307 1.491 . S
C313 C312 1.400 . S
C313 C314 1.398 . S
C314 H302 0.950 . S
C314 C313 1.398 . S
C314 C315 1.391 . S
C315 H303 0.950 . S
C315 C311 1.393 . S
C315 C314 1.391 . S
H316 C324 0.950 . S
H317 C329 0.950 . S
H318 C326 0.950 . S
H319 C328 0.950 . S
H320 C330 0.950 1_655 S
H321 C332 0.950 1_655 S
H322 C334 0.950 . S
H323 C335 0.950 . S
C324 H316 0.950 . S
C324 C325 1.386 . S
C324 C326 1.391 . S
C325 C324 1.386 . S
C325 C329 1.393 1_455 S
C326 H318 0.950 . S
C326 C324 1.391 . S
C326 C327 1.400 . S
C327 C326 1.400 . S
C327 C328 1.398 1_455 S
C327 C333 1.491 . S
C328 H319 0.950 . S
C328 C327 1.398 1_655 S
C328 C329 1.391 . S
C329 H317 0.950 . S
C329 C325 1.393 1_655 S
C329 C328 1.391 . S
C330 H320 0.950 1_455 S
C330 C331 1.386 . S
C330 C332 1.391 . S
C331 C330 1.386 . S
C331 C335 1.393 . S
C332 H321 0.950 1_455 S
C332 C330 1.391 . S
C332 C333 1.400 . S
C333 C327 1.491 . S
C333 C332 1.400 . S
C333 C334 1.398 . S
C334 H322 0.950 . S
C334 C333 1.398 . S
C334 C335 1.391 . S
C335 H323 0.950 . S
C335 C331 1.393 . S
C335 C334 1.391 . S
H336 C344 0.950 . S
H337 C349 0.950 . S
H338 C346 0.950 . S
H339 C348 0.950 . S
H340 C350 0.950 1_455 S
H341 C352 0.950 . S
H342 C354 0.950 . S
H343 C355 0.950 1_455 S
C344 H336 0.950 . S
C344 C345 1.386 . S
C344 C346 1.391 . S
C345 C344 1.386 . S
C345 C349 1.393 . S
C346 H338 0.950 . S
C346 C344 1.391 . S
C346 C347 1.400 . S
C347 C346 1.400 . S
C347 C348 1.398 . S
C347 C353 1.491 . S
C348 H339 0.950 . S
C348 C347 1.398 . S
C348 C349 1.391 . S
C349 H337 0.950 . S
C349 C345 1.393 . S
C349 C348 1.391 . S
C350 H340 0.950 1_655 S
C350 C351 1.386 1_655 S
C350 C352 1.391 . S
C351 C350 1.386 1_455 S
C351 C355 1.393 1_455 S
C352 H341 0.950 . S
C352 C350 1.391 . S
C352 C353 1.400 . S
C353 C347 1.491 . S
C353 C352 1.400 . S
C353 C354 1.398 . S
C354 H342 0.950 . S
C354 C353 1.398 . S
C354 C355 1.391 . S
C355 H343 0.950 1_655 S
C355 C351 1.393 1_655 S
C355 C354 1.391 . S
H356 C364 0.950 . S
H357 C369 0.950 . S
H358 C366 0.950 . S
H359 C368 0.950 . S
H360 C370 0.950 . S
H361 C372 0.950 . S
H362 C374 0.950 . S
H363 C375 0.950 . S
C364 H356 0.950 . S
C364 C365 1.386 . S
C364 C366 1.391 . S
C365 C364 1.386 . S
C365 C369 1.393 . S
C366 H358 0.950 . S
C366 C364 1.391 . S
C366 C367 1.400 . S
C367 C366 1.400 . S
C367 C368 1.398 . S
C367 C373 1.491 . S
C368 H359 0.950 . S
C368 C367 1.398 . S
C368 C369 1.391 . S
C369 H357 0.950 . S
C369 C365 1.393 . S
C369 C368 1.391 . S
C370 H360 0.950 . S
C370 C371 1.386 . S
C370 C372 1.391 . S
C371 C370 1.386 . S
C371 C375 1.393 . S
C372 H361 0.950 . S
C372 C370 1.391 . S
C372 C373 1.400 . S
C373 C367 1.491 . S
C373 C372 1.400 . S
C373 C374 1.398 . S
C374 H362 0.950 . S
C374 C373 1.398 . S
C374 C375 1.391 . S
C375 H363 0.950 . S
C375 C371 1.393 . S
C375 C374 1.391 . S
H376 C384 0.950 . S
H377 C389 0.951 . S
H378 C386 0.950 . S
H379 C388 0.950 . S
H380 C390 0.950 . S
H381 C392 0.950 . S
H382 C394 0.950 . S
H383 C395 0.950 . S
C384 H376 0.950 . S
C384 C385 1.386 . S
C384 C386 1.391 1_455 S
C385 C384 1.386 . S
C385 C389 1.395 . S
C386 H378 0.950 . S
C386 C384 1.391 1_655 S
C386 C387 1.400 . S
C387 C386 1.400 . S
C387 C388 1.398 . S
C387 C393 1.491 . S
C388 H379 0.950 . S
C388 C387 1.398 . S
C388 C389 1.387 1_655 S
C389 H377 0.951 . S
C389 C385 1.395 . S
C389 C388 1.387 1_455 S
C390 H380 0.950 . S
C390 C391 1.386 . S
C390 C392 1.391 . S
C391 C390 1.386 . S
C391 C395 1.393 . S
C392 H381 0.950 . S
C392 C390 1.391 . S
C392 C393 1.400 . S
C393 C387 1.491 . S
C393 C392 1.400 . S
C393 C394 1.398 . S
C394 H382 0.950 . S
C394 C393 1.398 . S
C394 C395 1.391 . S
C395 H383 0.950 . S
C395 C391 1.393 . S
C395 C394 1.391 . S
H396 C404 0.950 . S
H397 C409 0.950 . S
H398 C406 0.950 . S
H399 C408 0.950 . S
H400 C410 0.950 . S
H401 C412 0.950 . S
H402 C414 0.950 . S
H403 C415 0.950 . S
C404 H396 0.950 . S
C404 C405 1.386 . S
C404 C406 1.391 . S
C405 C404 1.386 . S
C405 C409 1.393 . S
C406 H398 0.950 . S
C406 C404 1.391 . S
C406 C407 1.400 . S
C407 C406 1.400 . S
C407 C408 1.398 . S
C407 C413 1.491 . S
C408 H399 0.950 . S
C408 C407 1.398 . S
C408 C409 1.391 . S
C409 H397 0.950 . S
C409 C405 1.393 . S
C409 C408 1.391 . S
C410 H400 0.950 . S
C410 C411 1.386 . S
C410 C412 1.391 . S
C411 C410 1.386 . S
C411 C415 1.393 . S
C412 H401 0.950 . S
C412 C410 1.391 . S
C412 C413 1.400 . S
C413 C407 1.491 . S
C413 C412 1.400 . S
C413 C414 1.398 . S
C414 H402 0.950 . S
C414 C413 1.398 . S
C414 C415 1.391 . S
C415 H403 0.950 . S
C415 C411 1.393 . S
C415 C414 1.391 . S
H416 C424 0.950 . S
H417 C429 0.950 . S
H418 C426 0.950 . S
H419 C428 0.950 . S
H420 C430 0.950 . S
H421 C432 0.950 . S
H422 C434 0.950 . S
H423 C435 0.950 . S
C424 H416 0.950 . S
C424 C425 1.386 . S
C424 C426 1.391 . S
C425 C424 1.386 . S
C425 C429 1.393 . S
C426 H418 0.950 . S
C426 C424 1.391 . S
C426 C427 1.400 . S
C427 C426 1.400 . S
C427 C428 1.398 . S
C427 C433 1.491 . S
C428 H419 0.950 . S
C428 C427 1.398 . S
C428 C429 1.391 . S
C429 H417 0.950 . S
C429 C425 1.393 . S
C429 C428 1.391 . S
C430 H420 0.950 . S
C430 C431 1.386 . S
C430 C432 1.391 . S
C431 C430 1.386 . S
C431 C435 1.393 . S
C432 H421 0.950 . S
C432 C430 1.391 . S
C432 C433 1.400 . S
C433 C427 1.491 . S
C433 C432 1.400 . S
C433 C434 1.398 . S
C434 H422 0.950 . S
C434 C433 1.398 . S
C434 C435 1.391 . S
C435 H423 0.950 . S
C435 C431 1.393 . S
C435 C434 1.391 . S
H436 C444 0.950 . S
H437 C449 0.950 . S
H438 C446 0.950 . S
H439 C448 0.950 . S
H440 C450 0.950 . S
H441 C452 0.950 . S
H442 C454 0.950 . S
H443 C455 0.950 . S
C444 H436 0.950 . S
C444 C445 1.386 . S
C444 C446 1.391 . S
C445 C444 1.386 . S
C445 C449 1.393 . S
C446 H438 0.950 . S
C446 C444 1.391 . S
C446 C447 1.400 . S
C447 C446 1.400 . S
C447 C448 1.398 . S
C447 C453 1.491 . S
C448 H439 0.950 . S
C448 C447 1.398 . S
C448 C449 1.391 . S
C449 H437 0.950 . S
C449 C445 1.393 . S
C449 C448 1.391 . S
C450 H440 0.950 . S
C450 C451 1.386 . S
C450 C452 1.391 . S
C451 C450 1.386 . S
C451 C455 1.393 . S
C452 H441 0.950 . S
C452 C450 1.391 . S
C452 C453 1.400 . S
C453 C447 1.491 . S
C453 C452 1.400 . S
C453 C454 1.398 . S
C454 H442 0.950 . S
C454 C453 1.398 . S
C454 C455 1.391 . S
C455 H443 0.950 . S
C455 C451 1.393 . S
C455 C454 1.391 . S
H456 C464 0.950 . S
H457 C469 0.950 . S
H458 C466 0.950 . S
H459 C468 0.950 . S
H460 C470 0.950 . S
H461 C472 0.950 . S
H462 C474 0.950 . S
H463 C475 0.950 . S
C464 H456 0.950 . S
C464 C465 1.386 . S
C464 C466 1.391 . S
C465 C464 1.386 . S
C465 C469 1.393 . S
C466 H458 0.950 . S
C466 C464 1.391 . S
C466 C467 1.400 . S
C467 C466 1.400 . S
C467 C468 1.398 . S
C467 C473 1.491 . S
C468 H459 0.950 . S
C468 C467 1.398 . S
C468 C469 1.391 . S
C469 H457 0.950 . S
C469 C465 1.393 . S
C469 C468 1.391 . S
C470 H460 0.950 . S
C470 C471 1.386 . S
C470 C472 1.391 . S
C471 C470 1.386 . S
C471 C475 1.393 . S
C472 H461 0.950 . S
C472 C470 1.391 . S
C472 C473 1.400 . S
C473 C467 1.491 . S
C473 C472 1.400 . S
C473 C474 1.398 . S
C474 H462 0.950 . S
C474 C473 1.398 . S
C474 C475 1.391 . S
C475 H463 0.950 . S
C475 C471 1.393 . S
C475 C474 1.391 . S
H476 C484 0.950 . S
H477 C489 0.950 . S
H478 C486 0.950 . S
H479 C488 0.950 . S
H480 C490 0.950 . S
H481 C492 0.950 . S
H482 C494 0.944 1_565 S
H483 C495 0.950 . S
C484 H476 0.950 . S
C484 C485 1.386 . S
C484 C486 1.391 . S
C485 C484 1.386 . S
C485 C489 1.393 . S
C486 H478 0.950 . S
C486 C484 1.391 . S
C486 C487 1.400 . S
C487 C486 1.400 . S
C487 C488 1.398 . S
C487 C493 1.491 . S
C488 H479 0.950 . S
C488 C487 1.398 . S
C488 C489 1.391 . S
C489 H477 0.950 . S
C489 C485 1.393 . S
C489 C488 1.391 . S
C490 H480 0.950 . S
C490 C491 1.386 . S
C490 C492 1.391 1_545 S
C491 C490 1.386 . S
C491 C495 1.393 . S
C492 H481 0.950 . S
C492 C490 1.391 1_565 S
C492 C493 1.400 . S
C493 C487 1.491 . S
C493 C492 1.400 . S
C493 C494 1.386 1_565 S
C494 H482 0.944 1_545 S
C494 C493 1.386 1_545 S
C494 C495 1.410 . S
C495 H483 0.950 . S
C495 C491 1.393 . S
C495 C494 1.410 . S
H496 C504 0.950 . S
H497 C509 0.950 . S
H498 C506 0.950 . S
H499 C508 0.950 . S
H500 C510 0.950 . S
H501 C512 0.950 . S
H502 C514 0.950 . S
H503 C515 0.950 . S
C504 H496 0.950 . S
C504 C505 1.386 . S
C504 C506 1.391 . S
C505 C504 1.386 . S
C505 C509 1.393 . S
C506 H498 0.950 . S
C506 C504 1.391 . S
C506 C507 1.400 1_545 S
C507 C506 1.400 1_565 S
C507 C508 1.398 . S
C507 C513 1.491 . S
C508 H499 0.950 . S
C508 C507 1.398 . S
C508 C509 1.391 1_565 S
C509 H497 0.950 . S
C509 C505 1.393 . S
C509 C508 1.391 1_545 S
C510 H500 0.950 . S
C510 C511 1.386 . S
C510 C512 1.391 . S
C511 C510 1.386 . S
C511 C515 1.393 . S
C512 H501 0.950 . S
C512 C510 1.391 . S
C512 C513 1.400 . S
C513 C507 1.491 . S
C513 C512 1.400 . S
C513 C514 1.398 . S
C514 H502 0.950 . S
C514 C513 1.398 . S
C514 C515 1.391 . S
C515 H503 0.950 . S
C515 C511 1.393 . S
C515 C514 1.391 . S
H516 C524 0.950 . S
H517 C529 0.950 . S
H518 C526 0.950 . S
H519 C528 0.950 . S
H520 C530 0.950 . S
H521 C532 0.950 . S
H522 C534 0.950 . S
H523 C535 0.950 . S
C524 H516 0.950 . S
C524 C525 1.386 . S
C524 C526 1.391 . S
C525 C524 1.386 . S
C525 C529 1.393 . S
C526 H518 0.950 . S
C526 C524 1.391 . S
C526 C527 1.400 . S
C527 C526 1.400 . S
C527 C528 1.398 . S
C527 C533 1.491 1_545 S
C528 H519 0.950 . S
C528 C527 1.398 . S
C528 C529 1.391 . S
C529 H517 0.950 . S
C529 C525 1.393 . S
C529 C528 1.391 . S
C530 H520 0.950 . S
C530 C531 1.386 . S
C530 C532 1.391 . S
C531 C530 1.386 . S
C531 C535 1.393 . S
C532 H521 0.950 . S
C532 C530 1.391 . S
C532 C533 1.400 . S
C533 C527 1.491 1_565 S
C533 C532 1.400 . S
C533 C534 1.398 . S
C534 H522 0.950 . S
C534 C533 1.398 . S
C534 C535 1.391 . S
C535 H523 0.950 . S
C535 C531 1.393 . S
C535 C534 1.391 . S
H536 C544 0.950 . S
H537 C549 0.955 . S
H538 C546 0.950 . S
H539 C548 0.950 1_645 S
H540 C550 0.950 . S
H541 C552 0.950 . S
H542 C554 0.950 . S
H543 C555 0.950 . S
C544 H536 0.950 . S
C544 C545 1.386 . S
C544 C546 1.391 . S
C545 C544 1.386 . S
C545 C549 1.389 1_455 S
C546 H538 0.950 . S
C546 C544 1.391 . S
C546 C547 1.400 1_565 S
C547 C546 1.400 1_545 S
C547 C548 1.398 1_545 S
C547 C553 1.491 . S
C548 H539 0.950 1_465 S
C548 C547 1.398 1_565 S
C548 C549 1.389 1_455 S
C549 H537 0.955 . S
C549 C545 1.389 1_655 S
C549 C548 1.389 1_655 S
C550 H540 0.950 . S
C550 C551 1.386 . S
C550 C552 1.391 . S
C551 C550 1.386 . S
C551 C555 1.393 . S
C552 H541 0.950 . S
C552 C550 1.391 . S
C552 C553 1.400 . S
C553 C547 1.491 . S
C553 C552 1.400 . S
C553 C554 1.398 . S
C554 H542 0.950 . S
C554 C553 1.398 . S
C554 C555 1.391 . S
C555 H543 0.950 . S
C555 C551 1.393 . S
C555 C554 1.391 . S
H556 C564 0.950 . S
H557 C569 0.950 . S
H558 C566 0.950 . S
H559 C568 0.950 1_556 S
H560 C570 0.950 . S
H561 C572 0.950 . S
H562 C574 0.950 . S
H563 C575 0.950 . S
C564 H556 0.950 . S
C564 C565 1.386 . S
C564 C566 1.391 . S
C565 C564 1.386 . S
C565 C569 1.393 . S
C566 H558 0.950 . S
C566 C564 1.391 . S
C566 C567 1.400 1_554 S
C567 C566 1.400 1_556 S
C567 C568 1.398 1_556 S
C567 C573 1.491 . S
C568 H559 0.950 1_554 S
C568 C567 1.398 1_554 S
C568 C569 1.391 . S
C569 H557 0.950 . S
C569 C565 1.393 . S
C569 C568 1.391 . S
C570 H560 0.950 . S
C570 C571 1.386 . S
C570 C572 1.391 . S
C571 C570 1.386 . S
C571 C575 1.393 . S
C572 H561 0.950 . S
C572 C570 1.391 . S
C572 C573 1.400 . S
C573 C567 1.491 . S
C573 C572 1.400 . S
C573 C574 1.398 . S
C574 H562 0.950 . S
C574 C573 1.398 . S
C574 C575 1.391 . S
C575 H563 0.950 . S
C575 C571 1.393 . S
C575 C574 1.391 . S
H576 C584 0.950 . S
H577 C589 0.950 . S
H578 C586 0.950 . S
H579 C588 0.950 . S
H580 C590 0.950 . S
H581 C592 0.950 . S
H582 C594 0.950 . S
H583 C595 0.950 . S
C584 H576 0.950 . S
C584 C585 1.386 . S
C584 C586 1.391 . S
C585 C584 1.386 . S
C585 C589 1.393 . S
C586 H578 0.950 . S
C586 C584 1.391 . S
C586 C587 1.400 . S
C587 C586 1.400 . S
C587 C588 1.398 . S
C587 C593 1.491 . S
C588 H579 0.950 . S
C588 C587 1.398 . S
C588 C589 1.391 . S
C589 H577 0.950 . S
C589 C585 1.393 . S
C589 C588 1.391 . S
C590 H580 0.950 . S
C590 C591 1.386 . S
C590 C592 1.391 . S
C591 C590 1.386 . S
C591 C595 1.393 . S
C592 H581 0.950 . S
C592 C590 1.391 . S
C592 C593 1.400 . S
C593 C587 1.491 . S
C593 C592 1.400 . S
C593 C594 1.398 . S
C594 H582 0.950 . S
C594 C593 1.398 . S
C594 C595 1.391 . S
C595 H583 0.950 . S
C595 C591 1.393 . S
C595 C594 1.391 . S
H596 C604 0.950 . S
H597 C609 0.950 . S
H598 C606 0.950 . S
H599 C608 0.950 . S
H600 C610 0.950 . S
H601 C612 0.950 . S
H602 C614 0.950 . S
H603 C615 0.950 . S
C604 H596 0.950 . S
C604 C605 1.386 . S
C604 C606 1.391 . S
C605 C604 1.386 . S
C605 C609 1.393 . S
C606 H598 0.950 . S
C606 C604 1.391 . S
C606 C607 1.400 . S
C607 C606 1.400 . S
C607 C608 1.398 . S
C607 C613 1.491 . S
C608 H599 0.950 . S
C608 C607 1.398 . S
C608 C609 1.391 . S
C609 H597 0.950 . S
C609 C605 1.393 . S
C609 C608 1.391 . S
C610 H600 0.950 . S
C610 C611 1.386 . S
C610 C612 1.391 . S
C611 C610 1.386 . S
C611 C615 1.393 . S
C612 H601 0.950 . S
C612 C610 1.391 . S
C612 C613 1.400 . S
C613 C607 1.491 . S
C613 C612 1.400 . S
C613 C614 1.398 . S
C614 H602 0.950 . S
C614 C613 1.398 . S
C614 C615 1.391 . S
C615 H603 0.950 . S
C615 C611 1.393 . S
C615 C614 1.391 . S
H616 C624 0.950 . S
H617 C629 0.950 . S
H618 C626 0.950 . S
H619 C628 0.950 . S
H620 C630 0.950 . S
H621 C632 0.950 . S
H622 C634 0.950 . S
H623 C635 0.950 . S
C624 H616 0.950 . S
C624 C625 1.386 . S
C624 C626 1.391 . S
C625 C624 1.386 . S
C625 C629 1.393 . S
C626 H618 0.950 . S
C626 C624 1.391 . S
C626 C627 1.400 . S
C627 C626 1.400 . S
C627 C628 1.398 . S
C627 C633 1.491 . S
C628 H619 0.950 . S
C628 C627 1.398 . S
C628 C629 1.391 . S
C629 H617 0.950 . S
C629 C625 1.393 . S
C629 C628 1.391 . S
C630 H620 0.950 . S
C630 C631 1.386 . S
C630 C632 1.391 . S
C631 C630 1.386 . S
C631 C635 1.393 . S
C632 H621 0.950 . S
C632 C630 1.391 . S
C632 C633 1.400 . S
C633 C627 1.491 . S
C633 C632 1.400 . S
C633 C634 1.398 . S
C634 H622 0.950 . S
C634 C633 1.398 . S
C634 C635 1.391 . S
C635 H623 0.950 . S
C635 C631 1.393 . S
C635 C634 1.391 . S
H636 C644 0.950 . S
H637 C649 0.950 . S
H638 C646 0.950 1_554 S
H639 C648 0.950 . S
H640 C650 0.950 . S
H641 C652 0.950 . S
H642 C654 0.950 . S
H643 C655 0.950 . S
C644 H636 0.950 . S
C644 C645 1.386 . S
C644 C646 1.391 . S
C645 C644 1.386 . S
C645 C649 1.393 . S
C646 H638 0.950 1_556 S
C646 C644 1.391 . S
C646 C647 1.400 1_556 S
C647 C646 1.400 1_554 S
C647 C648 1.398 1_554 S
C647 C653 1.491 . S
C648 H639 0.950 . S
C648 C647 1.398 1_556 S
C648 C649 1.391 . S
C649 H637 0.950 . S
C649 C645 1.393 . S
C649 C648 1.391 . S
C650 H640 0.950 . S
C650 C651 1.386 . S
C650 C652 1.391 . S
C651 C650 1.386 . S
C651 C655 1.393 . S
C652 H641 0.950 . S
C652 C650 1.391 . S
C652 C653 1.400 . S
C653 C647 1.491 . S
C653 C652 1.400 . S
C653 C654 1.398 . S
C654 H642 0.950 . S
C654 C653 1.398 . S
C654 C655 1.391 . S
C655 H643 0.950 . S
C655 C651 1.393 . S
C655 C654 1.391 . S
H656 C664 0.950 . S
H657 C669 0.950 . S
H658 C666 0.950 . S
H659 C668 0.950 . S
H660 C670 0.950 . S
H661 C672 0.950 . S
H662 C674 0.950 . S
H663 C675 0.950 . S
C664 H656 0.950 . S
C664 C665 1.386 . S
C664 C666 1.391 . S
C665 C664 1.386 . S
C665 C669 1.393 . S
C666 H658 0.950 . S
C666 C664 1.391 . S
C666 C667 1.400 . S
C667 C666 1.400 . S
C667 C668 1.398 . S
C667 C673 1.491 . S
C668 H659 0.950 . S
C668 C667 1.398 . S
C668 C669 1.391 . S
C669 H657 0.950 . S
C669 C665 1.393 . S
C669 C668 1.391 . S
C670 H660 0.950 . S
C670 C671 1.386 . S
C670 C672 1.391 . S
C671 C670 1.386 . S
C671 C675 1.393 . S
C672 H661 0.950 . S
C672 C670 1.391 . S
C672 C673 1.400 . S
C673 C667 1.491 . S
C673 C672 1.400 . S
C673 C674 1.398 . S
C674 H662 0.950 . S
C674 C673 1.398 . S
C674 C675 1.391 . S
C675 H663 0.950 . S
C675 C671 1.393 . S
C675 C674 1.391 . S
H676 C684 0.950 . S
H677 C689 0.950 . S
H678 C686 0.950 . S
H679 C688 0.950 . S
H680 C690 0.950 . S
H681 C692 0.950 . S
H682 C694 0.950 . S
H683 C695 0.950 . S
C684 H676 0.950 . S
C684 C685 1.386 . S
C684 C686 1.391 . S
C685 C684 1.386 . S
C685 C689 1.393 . S
C686 H678 0.950 . S
C686 C684 1.391 . S
C686 C687 1.400 . S
C687 C686 1.400 . S
C687 C688 1.398 . S
C687 C693 1.491 . S
C688 H679 0.950 . S
C688 C687 1.398 . S
C688 C689 1.391 . S
C689 H677 0.950 . S
C689 C685 1.393 . S
C689 C688 1.391 . S
C690 H680 0.950 . S
C690 C691 1.386 . S
C690 C692 1.391 . S
C691 C690 1.386 . S
C691 C695 1.393 . S
C692 H681 0.950 . S
C692 C690 1.391 . S
C692 C693 1.400 . S
C693 C687 1.491 . S
C693 C692 1.400 . S
C693 C694 1.398 . S
C694 H682 0.950 . S
C694 C693 1.398 . S
C694 C695 1.391 . S
C695 H683 0.950 . S
C695 C691 1.393 . S
C695 C694 1.391 . S
H696 C704 0.950 . S
H697 C709 0.950 . S
H698 C706 0.950 . S
H699 C708 0.950 . S
H700 C710 0.950 . S
H701 C712 0.950 . S
H702 C714 0.950 . S
H703 C715 0.950 . S
C704 H696 0.950 . S
C704 C705 1.386 . S
C704 C706 1.391 . S
C705 C704 1.386 . S
C705 C709 1.393 . S
C706 H698 0.950 . S
C706 C704 1.391 . S
C706 C707 1.400 . S
C707 C706 1.400 . S
C707 C708 1.398 . S
C707 C713 1.491 . S
C708 H699 0.950 . S
C708 C707 1.398 . S
C708 C709 1.391 . S
C709 H697 0.950 . S
C709 C705 1.393 . S
C709 C708 1.391 . S
C710 H700 0.950 . S
C710 C711 1.386 . S
C710 C712 1.391 . S
C711 C710 1.386 . S
C711 C715 1.393 . S
C712 H701 0.950 . S
C712 C710 1.391 . S
C712 C713 1.400 . S
C713 C707 1.491 . S
C713 C712 1.400 . S
C713 C714 1.398 . S
C714 H702 0.950 . S
C714 C713 1.398 . S
C714 C715 1.391 . S
C715 H703 0.950 . S
C715 C711 1.393 . S
C715 C714 1.391 . S
C251 C159 1.455 . S
C245 C6 1.584 . S
C271 C177 1.398 . S
C265 C30 1.417 . S
C285 C49 1.342 . S
C291 C201 1.329 . S
C311 C231 1.271 . S
C305 C63 1.425 . S
C331 C219 1.254 . S
C325 C82 1.347 . S
C345 C106 1.447 . S
C351 C172 1.389 . S
C365 C125 1.629 . S
C371 C192 1.516 . S
C385 C139 1.431 . S
C391 C197 1.337 . S
C405 C144 1.429 . S
C411 C213 1.401 . S
C425 C101 1.429 . S
C431 C168 1.328 . S
C451 C235 1.392 . S
C445 C68 1.432 . S
C471 C180 1.294 . S
C465 C25 1.431 . S
C485 C44 1.570 . S
C491 C198 1.426 . S
C505 C11 1.354 . S
C511 C156 1.335 . S
C531 C176 1.235 . S
C525 C120 1.342 . S
C551 C222 1.540 . S
C545 C87 1.615 . S
C571 C218 1.441 . S
C565 C2 1.565 . S
C591 C171 1.525 . S
C585 C21 1.578 . S
C605 C40 1.544 . S
C611 C193 1.425 . S
C625 C59 1.585 . S
C631 C214 1.552 . S
C651 C155 1.393 . S
C645 C78 1.644 . S
C665 C97 1.543 . S
C671 C189 1.488 . S
C691 C210 1.428 . S
C685 C116 1.666 . S
C711 C234 1.472 . S
C705 C135 1.514 . S
