# Generated by pormake.
# Topology rtl, (3,6)-cn, num edge types: 1
# Building blocks:
#     Node 0, Type 0, BuildingBlock: BELTOD_clean_linker_0, # of connection points: 3
#     Node 1, Type 0, BuildingBlock: BELTOD_clean_linker_0, # of connection points: 3
#     Node 2, Type 0, BuildingBlock: BELTOD_clean_linker_0, # of connection points: 3
#     Node 3, Type 0, BuildingBlock: BELTOD_clean_linker_0, # of connection points: 3
#     Node 4, Type 1, BuildingBlock: LEVNOQ01_clean_sbu_1, # of connection points: 6
#     Node 5, Type 1, BuildingBlock: LEVNOQ01_clean_sbu_1, # of connection points: 6
#     Edge 6, Type (0, 1), BuildingBlock: UVAHIK_clean_linker_0, # of connection points: 2
#     Edge 7, Type (0, 1), BuildingBlock: UVAHIK_clean_linker_0, # of connection points: 2
#     Edge 8, Type (0, 1), BuildingBlock: UVAHIK_clean_linker_0, # of connection points: 2
#     Edge 9, Type (0, 1), BuildingBlock: UVAHIK_clean_linker_0, # of connection points: 2
#     Edge 10, Type (0, 1), BuildingBlock: UVAHIK_clean_linker_0, # of connection points: 2
#     Edge 11, Type (0, 1), BuildingBlock: UVAHIK_clean_linker_0, # of connection points: 2
#     Edge 12, Type (0, 1), BuildingBlock: UVAHIK_clean_linker_0, # of connection points: 2
#     Edge 13, Type (0, 1), BuildingBlock: UVAHIK_clean_linker_0, # of connection points: 2
#     Edge 14, Type (0, 1), BuildingBlock: UVAHIK_clean_linker_0, # of connection points: 2
#     Edge 15, Type (0, 1), BuildingBlock: UVAHIK_clean_linker_0, # of connection points: 2
#     Edge 16, Type (0, 1), BuildingBlock: UVAHIK_clean_linker_0, # of connection points: 2
#     Edge 17, Type (0, 1), BuildingBlock: UVAHIK_clean_linker_0, # of connection points: 2
# Relax obj value: 0.023
# Max RMSD: 0.060
# Mean RMSD: 0.042
data_MOF--net-rtl--node1-LEVNOQ01_clean_sbu_1--node2-BELTOD_clean_linker_0--edge1-UVAHIK_clean_linker_0
_symmetry_space_group_name_H-M    P1
_symmetry_Int_Tables_number       1
_symmetry_cell_setting            triclinic
loop_
_symmetry_equiv_pos_as_xyz
'x, y, z'
_cell_length_a     44.266288
_cell_length_b     49.81192
_cell_length_c     34.734669
_cell_angle_alpha  89.507605
_cell_angle_beta   97.402709
_cell_angle_gamma 90.130866
loop_
_atom_site_label
_atom_site_type_symbol
_atom_site_fract_x
_atom_site_fract_y
_atom_site_fract_z
_atom_type_partial_charge
P0 P 0.29954 0.91363 0.09057 0.0
H1 H 0.31426 0.92716 0.17232 0.0
H2 H 0.28276 0.93508 0.22414 0.0
H3 H 0.20189 0.91913 0.14379 0.0
H4 H 0.23335 0.91169 0.09232 0.0
H5 H 0.35396 0.89092 0.0648 0.0
H6 H 0.37542 0.84565 0.06835 0.0
H7 H 0.30138 0.81812 0.12854 0.0
H8 H 0.28044 0.86352 0.12547 0.0
H9 H 0.28283 0.96002 0.0405 0.0
H10 H 0.26585 0.87471 0.03852 0.0
O11 O 0.3275 0.93636 0.09421 0.0
H12 H 0.25006 0.96513 0.97847 0.0
H13 H 0.23348 0.8796 0.97646 0.0
C14 C 0.27613 0.91948 0.12832 0.0
C15 C 0.28973 0.92555 0.16591 0.0
C16 C 0.27172 0.92982 0.19555 0.0
C17 C 0.23978 0.92795 0.18802 0.0
C18 C 0.22636 0.92126 0.15039 0.0
C19 C 0.24438 0.91696 0.12087 0.0
C20 C 0.31606 0.88067 0.09565 0.0
C21 C 0.34261 0.87518 0.07919 0.0
C22 C 0.35465 0.84924 0.08091 0.0
C23 C 0.34014 0.82827 0.09884 0.0
C24 C 0.3134 0.8339 0.11515 0.0
C25 C 0.30139 0.85987 0.1134 0.0
C26 C 0.27729 0.91694 0.04366 0.0
C27 C 0.27241 0.94236 0.02644 0.0
C28 C 0.2537 0.94523 0.99103 0.0
C29 C 0.23926 0.92273 0.97255 0.0
C30 C 0.24409 0.89732 0.99012 0.0
C31 C 0.26288 0.89447 0.02543 0.0
P32 P 0.77926 0.61168 0.57565 0.0
H33 H 0.79082 0.59506 0.49861 0.0
H34 H 0.75814 0.59062 0.43672 0.0
H35 H 0.68115 0.61775 0.49082 0.0
H36 H 0.71386 0.6214 0.5528 0.0
H37 H 0.83965 0.63238 0.60485 0.0
H38 H 0.86115 0.67753 0.60916 0.0
H39 H 0.77366 0.70998 0.56108 0.0
H40 H 0.75293 0.66463 0.55495 0.0
H41 H 0.77166 0.5627 0.62046 0.0
H42 H 0.74194 0.64511 0.6204 0.0
O43 O 0.80786 0.58981 0.57637 0.0
H44 H 0.74387 0.55286 0.67551 0.0
H45 H 0.71456 0.63554 0.67542 0.0
C46 C 0.75465 0.608 0.53048 0.0
C47 C 0.76684 0.59982 0.4972 0.0
C48 C 0.74817 0.59756 0.46171 0.0
C49 C 0.71695 0.60376 0.45874 0.0
C50 C 0.70495 0.61235 0.49218 0.0
C51 C 0.72366 0.6145 0.52768 0.0
C52 C 0.79487 0.64511 0.57892 0.0
C53 C 0.82519 0.64922 0.59495 0.0
C54 C 0.83735 0.67515 0.59789 0.0
C55 C 0.81921 0.69755 0.58544 0.0
C56 C 0.78853 0.69327 0.57025 0.0
C57 C 0.77656 0.66729 0.56683 0.0
C58 C 0.75925 0.60472 0.61663 0.0
C59 C 0.7594 0.57873 0.63248 0.0
C60 C 0.74362 0.57315 0.66404 0.0
C61 C 0.72708 0.59343 0.67991 0.0
C62 C 0.72687 0.61941 0.66369 0.0
C63 C 0.74275 0.62497 0.63232 0.0
P64 P 0.78457 0.16735 0.99416 0.0
H65 H 0.79516 0.1854 0.9179 0.0
H66 H 0.80449 0.16185 0.85941 0.0
H67 H 0.78939 0.0859 0.91499 0.0
H68 H 0.77921 0.10986 0.97344 0.0
H69 H 0.7646 0.20739 0.04485 0.0
H70 H 0.71974 0.23612 0.04058 0.0
H71 H 0.68296 0.19767 0.93368 0.0
H72 H 0.72789 0.16842 0.93851 0.0
H73 H 0.83568 0.13344 0.02269 0.0
H74 H 0.74944 0.15493 0.05918 0.0
O75 O 0.81248 0.19012 -0.00177 0.0
H76 H 0.85061 0.11113 0.08506 0.0
H77 H 0.76437 0.13288 0.12178 0.0
C78 C 0.78729 0.14933 0.95018 0.0
C79 C 0.79357 0.1637 0.91739 0.0
C80 C 0.79903 0.15019 0.88407 0.0
C81 C 0.79838 0.12198 0.88293 0.0
C82 C 0.79019 0.10763 0.91509 0.0
C83 C 0.78459 0.12128 0.94856 0.0
C84 C 0.74953 0.18578 0.99213 0.0
C85 C 0.74663 0.20477 0.02088 0.0
C86 C 0.72093 0.22108 0.01848 0.0
C87 C 0.69783 0.21899 0.98688 0.0
C88 C 0.70049 0.19964 0.95831 0.0
C89 C 0.72612 0.18295 0.96108 0.0
C90 C 0.79166 0.1461 0.03645 0.0
C91 C 0.8197 0.13286 0.04384 0.0
C92 C 0.82816 0.12005 0.07946 0.0
C93 C 0.80877 0.12051 0.10847 0.0
C94 C 0.77995 0.13256 0.10016 0.0
C95 C 0.7714 0.14517 0.06432 0.0
P96 P 0.25905 0.35827 0.48901 0.0
H97 H 0.2547 0.34198 0.5685 0.0
H98 H 0.26884 0.36461 0.63061 0.0
H99 H 0.286 0.43772 0.56961 0.0
H100 H 0.2705 0.41561 0.50765 0.0
H101 H 0.24187 0.31516 0.43573 0.0
H102 H 0.19774 0.28563 0.42558 0.0
H103 H 0.15534 0.32989 0.51074 0.0
H104 H 0.20002 0.35944 0.52088 0.0
H105 H 0.3122 0.38728 0.47072 0.0
H106 H 0.2195 0.37543 0.41791 0.0
O107 O 0.28754 0.33614 0.49477 0.0
H108 H 0.32245 0.41444 0.41483 0.0
H109 H 0.23 0.40194 0.36129 0.0
C110 C 0.26174 0.37697 0.53342 0.0
C111 C 0.26047 0.36312 0.56848 0.0
C112 C 0.26855 0.37601 0.60386 0.0
C113 C 0.27857 0.40275 0.60454 0.0
C114 C 0.27837 0.41703 0.56956 0.0
C115 C 0.26964 0.4043 0.53418 0.0
C116 C 0.22442 0.33914 0.47945 0.0
C117 C 0.22293 0.3187 0.45191 0.0
C118 C 0.19751 0.30197 0.4459 0.0
C119 C 0.17294 0.30537 0.46735 0.0
C120 C 0.17401 0.32659 0.49403 0.0
C121 C 0.19953 0.34349 0.49986 0.0
C122 C 0.26519 0.37926 0.44835 0.0
C123 C 0.29404 0.39064 0.44715 0.0
C124 C 0.29981 0.40625 0.41538 0.0
C125 C 0.27696 0.41028 0.38392 0.0
C126 C 0.24796 0.39905 0.38525 0.0
C127 C 0.24201 0.38387 0.41751 0.0
O128 O -0.00147 0.05257 0.62197 0.0
Mg129 Mg 0.04205 0.04512 0.60535 0.0
O130 O 0.97509 0.0229 0.58118 0.0
Mg131 Mg 0.00952 0.00588 0.54242 0.0
O132 O 0.03875 0.04462 0.54647 0.0
O133 O 0.06555 0.07547 0.58262 0.0
O134 O 0.04299 0.98858 0.50317 0.0
O135 O 0.986 0.0329 0.4893 0.0
Mg136 Mg 0.97388 0.98703 0.49253 0.0
O137 O 0.979 0.96487 0.54224 0.0
O138 O 0.00748 0.98527 0.45332 0.0
O139 O 0.94032 0.0175 0.48757 0.0
O140 O 0.95022 0.95309 0.48669 0.0
C141 C 0.05896 0.98827 0.62214 0.0
C142 C 0.97461 0.04009 0.60812 0.0
C143 C 0.05516 0.06634 0.54885 0.0
C144 C 0.03537 0.98433 0.46717 0.0
C145 C 0.95772 0.03552 0.47785 0.0
C146 C 0.95958 0.94861 0.52282 0.0
O147 O 0.06675 0.01228 0.62962 0.0
O148 O 0.03773 0.98251 0.59489 0.0
O149 O 0.51989 0.49936 0.12542 0.0
Mg150 Mg 0.50176 0.47216 0.08184 0.0
O151 O 0.52354 0.53118 0.08191 0.0
Mg152 Mg 0.4905 0.51277 0.03095 0.0
O153 O 0.51819 0.47198 0.02925 0.0
O154 O 0.53042 0.44159 0.07727 0.0
O155 O 0.45803 0.4915 0.98049 0.0
O156 O 0.52451 0.52722 0.98835 0.0
Mg157 Mg 0.45711 0.54772 0.97521 0.0
O158 O 0.46516 0.55427 0.03335 0.0
O159 O 0.4226 0.52046 0.95824 0.0
O160 O 0.49496 0.55066 0.94438 0.0
O161 O 0.4402 0.58292 0.98983 0.0
C162 C 0.44238 0.47957 0.0838 0.0
C163 C 0.52892 0.52249 0.11674 0.0
C164 C 0.53183 0.44994 0.04233 0.0
C165 C 0.43251 0.49677 0.96037 0.0
C166 C 0.52079 0.54081 0.95673 0.0
C167 C 0.45011 0.5765 0.02526 0.0
O168 O 0.45729 0.45818 0.08269 0.0
O169 O 0.45345 0.50137 0.07212 0.0
C170 C 0.13726 0.27468 0.49735 0.0
C171 C 0.14785 0.28528 0.46391 0.0
C172 C 0.11813 0.25221 0.49486 0.0
C173 C 0.10604 0.1922 0.4365 0.0
H174 H 0.0439 0.17669 0.50261 0.0
C175 C 0.08828 0.09121 0.50919 0.0
C176 C 0.0588 0.08331 0.51508 0.0
C177 C 0.09287 0.11494 0.48908 0.0
C178 C 0.06073 0.18082 0.48328 0.0
H179 H 0.14416 0.28229 0.40122 0.0
H180 H 0.11107 0.24286 0.397 0.0
H181 H 0.06158 0.22287 0.49621 0.0
H182 H 0.01084 0.09277 0.50266 0.0
H183 H 0.01886 0.1347 0.46779 0.0
H184 H 0.10651 0.14993 0.42547 0.0
C185 C 0.11798 0.25168 0.42517 0.0
C186 C 0.07105 0.2072 0.47996 0.0
C187 C 0.13696 0.27421 0.42763 0.0
C188 C 0.03375 0.09821 0.49767 0.0
C189 C 0.03836 0.12234 0.47823 0.0
C190 C 0.09599 0.1658 0.4402 0.0
C191 C 0.10927 0.23985 0.4589 0.0
C192 C 0.09443 0.21304 0.45738 0.0
C193 C 0.06807 0.1315 0.47536 0.0
C194 C 0.07385 0.15973 0.46448 0.0
H195 H 0.14535 0.28258 0.52578 0.0
H196 H 0.11198 0.24346 0.52144 0.0
H197 H 0.12429 0.19599 0.41917 0.0
H198 H 0.10792 0.0803 0.52314 0.0
H199 H 0.11603 0.12157 0.48764 0.0
C200 C 0.35331 0.78458 0.13374 0.0
C201 C 0.35271 0.8006 0.1001 0.0
C202 C 0.3657 0.75873 0.13504 0.0
C203 C 0.41864 0.71683 0.088 0.0
H204 H 0.3769 0.6567 0.12938 0.0
C205 C 0.46466 0.61129 0.07506 0.0
C206 C 0.44242 0.59447 0.05565 0.0
C207 C 0.45594 0.63459 0.093 0.0
C208 C 0.38898 0.67334 0.1181 0.0
H209 H 0.36364 0.80163 0.041 0.0
H210 H 0.38531 0.75667 0.04333 0.0
H211 H 0.35628 0.70202 0.13252 0.0
H212 H 0.39408 0.58699 0.04238 0.0
H213 H 0.37876 0.62723 0.07393 0.0
H214 H 0.45046 0.68823 0.0718 0.0
C215 C 0.37679 0.76429 0.06898 0.0
C216 C 0.37724 0.69929 0.12002 0.0
C217 C 0.36437 0.79006 0.06764 0.0
C218 C 0.41155 0.59965 0.05764 0.0
C219 C 0.40283 0.62272 0.07574 0.0
C220 C 0.4304 0.69098 0.0862 0.0
C221 C 0.37783 0.74841 0.10279 0.0
C222 C 0.39157 0.72121 0.10411 0.0
C223 C 0.42488 0.64122 0.09169 0.0
C224 C 0.41536 0.66884 0.10043 0.0
H225 H 0.34476 0.79221 0.15936 0.0
H226 H 0.36634 0.74703 0.16157 0.0
H227 H 0.43045 0.73337 0.07601 0.0
H228 H 0.4886 0.60775 0.07335 0.0
H229 H 0.47343 0.64832 0.10555 0.0
C230 C 0.82374 0.74356 0.5566 0.0
C231 C 0.8326 0.72506 0.5867 0.0
C232 C 0.83776 0.76864 0.55603 0.0
C233 C 0.88778 0.81742 0.61445 0.0
H234 H 0.90376 0.84071 0.5122 0.0
C235 C 0.96197 0.91014 0.57117 0.0
C236 C 0.94581 0.92572 0.54149 0.0
C237 C 0.94912 0.88621 0.58359 0.0
C238 C 0.89951 0.83441 0.54097 0.0
H239 H 0.86219 0.71925 0.64103 0.0
H240 H 0.88755 0.7627 0.6391 0.0
H241 H 0.87898 0.79782 0.51971 0.0
H242 H 0.90266 0.93017 0.50451 0.0
H243 H 0.88064 0.88897 0.52603 0.0
H244 H 0.90882 0.85449 0.63529 0.0
C245 C 0.86948 0.75781 0.61615 0.0
C246 C 0.88504 0.80996 0.54526 0.0
C247 C 0.85521 0.73274 0.61694 0.0
C248 C 0.91598 0.91822 0.52673 0.0
C249 C 0.90327 0.89469 0.53911 0.0
C250 C 0.9026 0.84201 0.61012 0.0
C251 C 0.86137 0.77582 0.58521 0.0
C252 C 0.87833 0.80138 0.58185 0.0
C253 C 0.92006 0.87796 0.5665 0.0
C254 C 0.90796 0.85087 0.57314 0.0
H255 H 0.80664 0.73843 0.53263 0.0
H256 H 0.8304 0.78226 0.5322 0.0
H257 H 0.88292 0.81139 0.64305 0.0
H258 H 0.98494 0.91563 0.58314 0.0
H259 H 0.96242 0.87353 0.60487 0.0
C260 C 0.65775 0.24478 0.01501 0.0
C261 C 0.67255 0.23863 0.98283 0.0
C262 C 0.63864 0.26706 0.01405 0.0
C263 C 0.5993 0.32083 0.95188 0.0
H264 H 0.61903 0.3625 0.04555 0.0
C265 C 0.53198 0.41381 0.99403 0.0
C266 C 0.54818 0.4331 0.01758 0.0
C267 C 0.54708 0.39151 0.98144 0.0
C268 C 0.61355 0.35139 0.01889 0.0
H269 H 0.67721 0.24958 0.92339 0.0
H270 H 0.64401 0.28885 0.92181 0.0
H271 H 0.64219 0.31892 0.04081 0.0
H272 H 0.59272 0.44571 0.04412 0.0
H273 H 0.61947 0.40754 0.02069 0.0
H274 H 0.57081 0.35383 0.92996 0.0
C275 C 0.64698 0.27636 0.94768 0.0
C276 C 0.62639 0.32608 0.01649 0.0
C277 C 0.66598 0.25388 0.94857 0.0
C278 C 0.57992 0.43118 0.02552 0.0
C279 C 0.59507 0.40913 0.01258 0.0
C280 C 0.58631 0.34631 0.95432 0.0
C281 C 0.63419 0.28383 0.98102 0.0
C282 C 0.61935 0.3104 0.98312 0.0
C283 C 0.5786 0.38827 0.99236 0.0
C284 C 0.59339 0.3619 0.98788 0.0
H285 H 0.66206 0.23306 0.04156 0.0
H286 H 0.62843 0.27187 0.03986 0.0
H287 H 0.59344 0.3092 0.92577 0.0
H288 H 0.50735 0.41471 0.98834 0.0
H289 H 0.53368 0.3758 0.96607 0.0
C290 C 0.22869 0.92406 0.25716 0.0
C291 C 0.22042 0.93347 0.21897 0.0
C292 C 0.21044 0.92959 0.28617 0.0
C293 C 0.15012 0.97629 0.30891 0.0
H294 H 0.135 0.92206 0.38496 0.0
C295 C 0.05171 0.98335 0.40111 0.0
C296 C 0.05856 0.97873 0.44124 0.0
C297 C 0.07329 0.9782 0.37618 0.0
C298 C 0.13934 0.93746 0.36416 0.0
H299 H 0.18659 0.95621 0.18144 0.0
H300 H 0.15449 0.96522 0.23154 0.0
H301 H 0.16903 0.91201 0.33677 0.0
H302 H 0.09327 0.96478 0.48673 0.0
H303 H 0.13096 0.95512 0.44268 0.0
H304 H 0.1197 0.0014 0.33556 0.0
C305 C 0.17526 0.9539 0.23935 0.0
C306 C 0.15885 0.93176 0.3366 0.0
C307 C 0.19347 0.94841 0.21044 0.0
C308 C 0.08743 0.96863 0.45593 0.0
C309 C 0.10889 0.96299 0.43078 0.0
C310 C 0.13045 0.98186 0.33614 0.0
C311 C 0.18357 0.94471 0.27764 0.0
C312 C 0.16417 0.95102 0.30833 0.0
C313 C 0.10204 0.96791 0.39071 0.0
C314 C 0.12459 0.96242 0.36373 0.0
H315 H 0.24915 0.91224 0.26458 0.0
H316 H 0.21763 0.92234 0.31539 0.0
H317 H 0.15425 0.99182 0.28821 0.0
H318 H 0.0297 0.99122 0.38893 0.0
H319 H 0.06733 0.98197 0.34537 0.0
C320 C 0.72185 0.57151 0.74436 0.0
C321 C 0.70949 0.58752 0.71265 0.0
C322 C 0.70521 0.56641 0.77532 0.0
C323 C 0.6403 0.59286 0.82083 0.0
H324 H 0.63525 0.52101 0.86353 0.0
C325 C 0.54089 0.56058 0.89893 0.0
C326 C 0.54625 0.54548 0.93353 0.0
C327 C 0.56422 0.56561 0.87657 0.0
C328 C 0.63687 0.54126 0.85235 0.0
H329 H 0.66963 0.60999 0.68805 0.0
H330 H 0.64066 0.60106 0.74165 0.0
H331 H 0.66981 0.53005 0.81522 0.0
H332 H 0.58053 0.52341 0.97136 0.0
H333 H 0.62172 0.53228 0.9317 0.0
H334 H 0.60682 0.60395 0.85692 0.0
C335 C 0.66347 0.59294 0.74318 0.0
C336 C 0.65661 0.54645 0.82468 0.0
C337 C 0.68006 0.59805 0.71238 0.0
C338 C 0.57567 0.5352 0.94495 0.0
C339 C 0.59919 0.54018 0.92224 0.0
C340 C 0.62062 0.58768 0.84827 0.0
C341 C 0.67588 0.57724 0.77517 0.0
C342 C 0.65786 0.57216 0.8078 0.0
C343 C 0.59367 0.5557 0.88802 0.0
C344 C 0.61801 0.56167 0.8635 0.0
H345 H 0.7446 0.56331 0.74554 0.0
H346 H 0.71548 0.55438 0.79964 0.0
H347 H 0.64131 0.61304 0.8092 0.0
H348 H 0.51853 0.56865 0.88888 0.0
H349 H 0.55907 0.57711 0.84993 0.0
C350 C 0.83686 0.08692 0.15392 0.0
C351 C 0.8199 0.11074 0.14821 0.0
C352 C 0.85049 0.07952 0.19099 0.0
C353 C 0.8785 0.10946 0.28573 0.0
H354 H 0.88558 0.03516 0.31976 0.0
C355 C 0.92619 0.0712 0.44146 0.0
C356 C 0.94754 0.05042 0.44205 0.0
C357 C 0.91137 0.08083 0.40597 0.0
C358 C 0.88388 0.05598 0.31046 0.0
H359 H 0.8032 0.1451 0.17703 0.0
H360 H 0.82641 0.13189 0.24185 0.0
H361 H 0.85559 0.04632 0.25774 0.0
H362 H 0.97056 0.02345 0.40692 0.0
H363 H 0.94419 0.03977 0.34506 0.0
H364 H 0.90657 0.11898 0.33899 0.0
C365 C 0.82955 0.11911 0.21761 0.0
C366 C 0.86678 0.06237 0.27497 0.0
C367 C 0.81589 0.12648 0.18055 0.0
C368 C 0.95462 0.03994 0.40696 0.0
C369 C 0.93933 0.04902 0.3717 0.0
C370 C 0.89535 0.10306 0.32148 0.0
C371 C 0.8475 0.09583 0.22316 0.0
C372 C 0.86416 0.08916 0.26196 0.0
C373 C 0.91707 0.06909 0.37094 0.0
C374 C 0.89847 0.07624 0.33386 0.0
H375 H 0.84013 0.07429 0.12956 0.0
H376 H 0.86431 0.06153 0.19417 0.0
H377 H 0.87736 0.13025 0.27631 0.0
H378 H 0.9201 0.07915 0.46834 0.0
H379 H 0.89424 0.09632 0.40599 0.0
C380 C 0.32414 0.41996 0.64622 0.0
C381 C 0.29281 0.41435 0.64131 0.0
C382 C 0.3389 0.4274 0.6825 0.0
C383 C 0.3284 0.45697 0.77475 0.0
H384 H 0.39704 0.41309 0.81799 0.0
C385 C 0.38485 0.47658 0.92835 0.0
C386 C 0.41677 0.47715 0.93361 0.0
C387 C 0.36908 0.46476 0.89547 0.0
C388 C 0.37813 0.4257 0.80625 0.0
H389 H 0.25195 0.41302 0.66937 0.0
H390 H 0.27764 0.42717 0.73291 0.0
H391 H 0.37121 0.40377 0.75298 0.0
H392 H 0.45745 0.46433 0.91052 0.0
H393 H 0.43005 0.44438 0.85224 0.0
H394 H 0.33579 0.4797 0.82684 0.0
C395 C 0.29078 0.42541 0.70881 0.0
C396 C 0.36336 0.42034 0.76908 0.0
C397 C 0.27613 0.41737 0.67268 0.0
C398 C 0.43277 0.4638 0.90721 0.0
C399 C 0.41699 0.45246 0.87375 0.0
C400 C 0.34342 0.46263 0.8116 0.0
C401 C 0.3224 0.42983 0.71419 0.0
C402 C 0.33834 0.43589 0.75314 0.0
C403 C 0.38497 0.45397 0.86664 0.0
C404 C 0.36839 0.44698 0.82798 0.0
H405 H 0.33741 0.4175 0.62235 0.0
H406 H 0.36326 0.43093 0.68596 0.0
H407 H 0.30934 0.4694 0.76281 0.0
H408 H 0.3721 0.48674 0.94851 0.0
H409 H 0.34443 0.46542 0.89168 0.0
C410 C 0.66739 0.59043 0.41995 0.0
C411 C 0.69696 0.60098 0.42107 0.0
C412 C 0.64881 0.5872 0.3846 0.0
C413 C 0.65229 0.57962 0.27967 0.0
H414 H 0.56505 0.59056 0.27297 0.0
C415 C 0.56929 0.55628 0.14031 0.0
C416 C 0.54573 0.53882 0.14775 0.0
C417 C 0.58726 0.56902 0.17111 0.0
C418 C 0.5894 0.58753 0.27436 0.0
H419 H 0.72987 0.61702 0.38572 0.0
H420 H 0.69746 0.61129 0.32397 0.0
H421 H 0.59789 0.60286 0.33209 0.0
H422 H 0.5213 0.52216 0.19266 0.0
H423 H 0.552 0.54469 0.24595 0.0
H424 H 0.64357 0.5638 0.22208 0.0
C425 C 0.68879 0.6052 0.35048 0.0
C426 C 0.6082 0.59442 0.30829 0.0
C427 C 0.70739 0.60845 0.3859 0.0
C428 C 0.53946 0.53539 0.18611 0.0
C429 C 0.55691 0.54844 0.21662 0.0
C430 C 0.63346 0.57285 0.24561 0.0
C431 C 0.6593 0.59445 0.34939 0.0
C432 C 0.63979 0.5899 0.31176 0.0
C433 C 0.5814 0.56495 0.20962 0.0
C434 C 0.60174 0.5761 0.24301 0.0
H435 H 0.65878 0.58403 0.44637 0.0
H436 H 0.62647 0.57835 0.38484 0.0
H437 H 0.67647 0.57564 0.28143 0.0
H438 H 0.57463 0.55919 0.11099 0.0
H439 H 0.60596 0.58173 0.16493 0.0
C440 C 0.83394 0.11758 0.83334 0.0
C441 C 0.80832 0.10797 0.84921 0.0
C442 C 0.84287 0.10587 0.80045 0.0
C443 C 0.84892 0.04728 0.74693 0.0
H444 H 0.8577 0.09752 0.66304 0.0
C445 C 0.92354 0.02536 0.62481 0.0
C446 C 0.9461 0.04527 0.62456 0.0
C447 C 0.89823 0.02965 0.64443 0.0
C448 C 0.85496 0.08309 0.68586 0.0
H449 H 0.77283 0.07763 0.84407 0.0
H450 H 0.78919 0.05656 0.7862 0.0
H451 H 0.82852 0.1104 0.71497 0.0
H452 H 0.95914 0.08567 0.64262 0.0
H453 H 0.91506 0.09329 0.67603 0.0
H454 H 0.87754 0.02079 0.71936 0.0
C455 C 0.80181 0.07352 0.79933 0.0
C456 C 0.83822 0.09042 0.71542 0.0
C457 C 0.7926 0.08549 0.83235 0.0
C458 C 0.94221 0.06992 0.64251 0.0
C459 C 0.91681 0.07436 0.66136 0.0
C460 C 0.86584 0.03993 0.71727 0.0
C461 C 0.82666 0.08408 0.78281 0.0
C462 C 0.83635 0.07311 0.74708 0.0
C463 C 0.89484 0.05414 0.66316 0.0
C464 C 0.87028 0.05839 0.68762 0.0
H465 H 0.84713 0.13429 0.84632 0.0
H466 H 0.86256 0.1139 0.78866 0.0
H467 H 0.84785 0.03372 0.77126 0.0
H468 H 0.92607 0.00613 0.61126 0.0
H469 H 0.88161 0.01375 0.6455 0.0
C470 C 0.27899 0.41237 0.31253 0.0
C471 C 0.28426 0.4247 0.34891 0.0
C472 C 0.28966 0.42417 0.28024 0.0
C473 C 0.34893 0.47207 0.25706 0.0
H474 H 0.31299 0.45774 0.15141 0.0
C475 C 0.40863 0.50252 0.12561 0.0
C476 C 0.41544 0.47975 0.10473 0.0
C477 C 0.38693 0.50099 0.15148 0.0
C478 C 0.32306 0.46211 0.18078 0.0
H479 H 0.30296 0.45973 0.37988 0.0
H480 H 0.32048 0.48107 0.32321 0.0
H481 H 0.28472 0.44643 0.2053 0.0
H482 H 0.40341 0.43826 0.09213 0.0
H483 H 0.36486 0.43586 0.13644 0.0
H484 H 0.38729 0.48764 0.2323 0.0
C485 C 0.3091 0.46181 0.31967 0.0
C486 C 0.30706 0.45544 0.21171 0.0
C487 C 0.29891 0.44974 0.35211 0.0
C488 C 0.39863 0.45608 0.10797 0.0
C489 C 0.37651 0.45474 0.13316 0.0
C490 C 0.36463 0.47918 0.22612 0.0
C491 C 0.30543 0.44881 0.28352 0.0
C492 C 0.32019 0.45956 0.25035 0.0
C493 C 0.37122 0.47688 0.15609 0.0
C494 C 0.35221 0.47358 0.18781 0.0
H495 H 0.26803 0.39289 0.30947 0.0
H496 H 0.28679 0.41324 0.25321 0.0
H497 H 0.36014 0.47517 0.28626 0.0
H498 H 0.42137 0.52099 0.1238 0.0
H499 H 0.38318 0.51832 0.16888 0.0
C500 C 0.19116 0.91211 0.92863 0.0
C501 C 0.21919 0.92574 0.93511 0.0
C502 C 0.1723 0.91498 0.89331 0.0
C503 C 0.15911 0.96006 0.80732 0.0
H504 H 0.11441 0.89954 0.75847 0.0
C505 C 0.107 0.96786 0.6514 0.0
C506 C 0.07507 0.96755 0.64705 0.0
C507 C 0.12368 0.95693 0.68453 0.0
C508 C 0.12672 0.91654 0.77199 0.0
H509 H 0.2497 0.9526 0.90939 0.0
H510 H 0.2172 0.95731 0.84769 0.0
H511 H 0.14557 0.8935 0.82174 0.0
H512 H 0.03539 0.95363 0.67184 0.0
H513 H 0.06486 0.93397 0.73017 0.0
H514 H 0.14096 0.98287 0.75727 0.0
C515 C 0.20932 0.94489 0.87013 0.0
C516 C 0.14441 0.9132 0.80822 0.0
C517 C 0.22804 0.94217 0.90549 0.0
C518 C 0.06004 0.9536 0.67432 0.0
C519 C 0.07685 0.94257 0.70772 0.0
C520 C 0.14186 0.96325 0.77112 0.0
C521 C 0.18114 0.93145 0.86362 0.0
C522 C 0.16113 0.93489 0.82606 0.0
C523 C 0.10868 0.94557 0.71393 0.0
C524 C 0.12586 0.9415 0.75291 0.0
H525 H 0.18357 0.89956 0.95114 0.0
H526 H 0.15059 0.90465 0.88954 0.0
H527 H 0.17088 0.97739 0.8206 0.0
H528 H 0.119 0.97878 0.63088 0.0
H529 H 0.14823 0.95926 0.68862 0.0
loop_
_geom_bond_atom_site_label_1
_geom_bond_atom_site_label_2
_geom_bond_distance
_geom_bond_site_symmetry_2
_ccdc_geom_bond_type
P0 O11 1.490 . S
P0 C14 1.812 . S
P0 C20 1.803 . S
P0 C26 1.819 . S
H1 C15 0.941 . S
H2 C16 0.939 . S
H3 C18 0.940 . S
H4 C19 0.940 . S
H5 C21 0.939 . S
H6 C22 0.942 . S
H7 C24 0.940 . S
H8 C25 0.939 . S
H9 C27 0.941 . S
H10 C31 0.939 . S
O11 P0 1.490 . S
H12 C28 0.939 1_556 S
H13 C30 0.940 . S
C14 P0 1.812 . S
C14 C15 1.389 . S
C14 C19 1.391 . S
C15 H1 0.941 . S
C15 C14 1.389 . S
C15 C16 1.397 . S
C16 H2 0.939 . S
C16 C15 1.397 . S
C16 C17 1.378 . S
C17 C16 1.378 . S
C17 C18 1.378 . S
C18 H3 0.940 . S
C18 C17 1.378 . S
C18 C19 1.396 . S
C19 H4 0.940 . S
C19 C14 1.391 . S
C19 C18 1.396 . S
C20 P0 1.803 . S
C20 C21 1.378 . S
C20 C25 1.400 . S
C21 H5 0.939 . S
C21 C20 1.378 . S
C21 C22 1.361 . S
C22 H6 0.942 . S
C22 C21 1.361 . S
C22 C23 1.369 . S
C23 C22 1.369 . S
C23 C24 1.404 . S
C24 H7 0.940 . S
C24 C23 1.404 . S
C24 C25 1.389 . S
C25 H8 0.939 . S
C25 C20 1.400 . S
C25 C24 1.389 . S
C26 P0 1.819 . S
C26 C27 1.391 . S
C26 C31 1.391 . S
C27 H9 0.941 . S
C27 C26 1.391 . S
C27 C28 1.396 . S
C28 H12 0.939 1_554 S
C28 C27 1.396 . S
C28 C29 1.397 1_554 S
C29 C28 1.397 1_556 S
C29 C30 1.385 . S
C30 H13 0.940 . S
C30 C29 1.385 . S
C30 C31 1.388 1_556 S
C31 H10 0.939 . S
C31 C26 1.391 . S
C31 C30 1.388 1_554 S
P32 O43 1.490 . S
P32 C46 1.812 . S
P32 C52 1.803 . S
P32 C58 1.819 . S
H33 C47 0.941 . S
H34 C48 0.939 . S
H35 C50 0.940 . S
H36 C51 0.940 . S
H37 C53 0.939 . S
H38 C54 0.942 . S
H39 C56 0.940 . S
H40 C57 0.939 . S
H41 C59 0.941 . S
H42 C63 0.939 . S
O43 P32 1.490 . S
H44 C60 0.939 . S
H45 C62 0.940 . S
C46 P32 1.812 . S
C46 C47 1.389 . S
C46 C51 1.391 . S
C47 H33 0.941 . S
C47 C46 1.389 . S
C47 C48 1.397 . S
C48 H34 0.939 . S
C48 C47 1.397 . S
C48 C49 1.378 . S
C49 C48 1.378 . S
C49 C50 1.378 . S
C50 H35 0.940 . S
C50 C49 1.378 . S
C50 C51 1.396 . S
C51 H36 0.940 . S
C51 C46 1.391 . S
C51 C50 1.396 . S
C52 P32 1.803 . S
C52 C53 1.378 . S
C52 C57 1.400 . S
C53 H37 0.939 . S
C53 C52 1.378 . S
C53 C54 1.361 . S
C54 H38 0.942 . S
C54 C53 1.361 . S
C54 C55 1.369 . S
C55 C54 1.369 . S
C55 C56 1.404 . S
C56 H39 0.940 . S
C56 C55 1.404 . S
C56 C57 1.389 . S
C57 H40 0.939 . S
C57 C52 1.400 . S
C57 C56 1.389 . S
C58 P32 1.819 . S
C58 C59 1.391 . S
C58 C63 1.391 . S
C59 H41 0.941 . S
C59 C58 1.391 . S
C59 C60 1.396 . S
C60 H44 0.939 . S
C60 C59 1.396 . S
C60 C61 1.397 . S
C61 C60 1.397 . S
C61 C62 1.385 . S
C62 H45 0.940 . S
C62 C61 1.385 . S
C62 C63 1.388 . S
C63 H42 0.939 . S
C63 C58 1.391 . S
C63 C62 1.388 . S
P64 O75 1.490 . S
P64 C78 1.812 1_554 S
P64 C84 1.803 1_554 S
P64 C90 1.819 . S
H65 C79 0.941 . S
H66 C80 0.939 . S
H67 C82 0.940 . S
H68 C83 0.940 . S
H69 C85 0.939 . S
H70 C86 0.942 . S
H71 C88 0.940 . S
H72 C89 0.939 . S
H73 C91 0.941 . S
H74 C95 0.939 . S
O75 P64 1.490 . S
H76 C92 0.939 . S
H77 C94 0.940 . S
C78 P64 1.812 1_556 S
C78 C79 1.389 . S
C78 C83 1.391 . S
C79 H65 0.941 . S
C79 C78 1.389 . S
C79 C80 1.397 . S
C80 H66 0.939 . S
C80 C79 1.397 . S
C80 C81 1.378 . S
C81 C80 1.378 . S
C81 C82 1.378 . S
C82 H67 0.940 . S
C82 C81 1.378 . S
C82 C83 1.396 . S
C83 H68 0.940 . S
C83 C78 1.391 . S
C83 C82 1.396 . S
C84 P64 1.803 1_556 S
C84 C85 1.378 1_556 S
C84 C89 1.400 . S
C85 H69 0.939 . S
C85 C84 1.378 1_554 S
C85 C86 1.361 . S
C86 H70 0.942 . S
C86 C85 1.361 . S
C86 C87 1.369 1_554 S
C87 C86 1.369 1_556 S
C87 C88 1.404 . S
C88 H71 0.940 . S
C88 C87 1.404 . S
C88 C89 1.389 . S
C89 H72 0.939 . S
C89 C84 1.400 . S
C89 C88 1.389 . S
C90 P64 1.819 . S
C90 C91 1.391 . S
C90 C95 1.391 . S
C91 H73 0.941 . S
C91 C90 1.391 . S
C91 C92 1.396 . S
C92 H76 0.939 . S
C92 C91 1.396 . S
C92 C93 1.397 . S
C93 C92 1.397 . S
C93 C94 1.385 . S
C94 H77 0.940 . S
C94 C93 1.385 . S
C94 C95 1.388 . S
C95 H74 0.939 . S
C95 C90 1.391 . S
C95 C94 1.388 . S
P96 O107 1.490 . S
P96 C110 1.812 . S
P96 C116 1.803 . S
P96 C122 1.819 . S
H97 C111 0.941 . S
H98 C112 0.939 . S
H99 C114 0.940 . S
H100 C115 0.940 . S
H101 C117 0.939 . S
H102 C118 0.942 . S
H103 C120 0.940 . S
H104 C121 0.939 . S
H105 C123 0.941 . S
H106 C127 0.939 . S
O107 P96 1.490 . S
H108 C124 0.939 . S
H109 C126 0.940 . S
C110 P96 1.812 . S
C110 C111 1.389 . S
C110 C115 1.391 . S
C111 H97 0.941 . S
C111 C110 1.389 . S
C111 C112 1.397 . S
C112 H98 0.939 . S
C112 C111 1.397 . S
C112 C113 1.378 . S
C113 C112 1.378 . S
C113 C114 1.378 . S
C114 H99 0.940 . S
C114 C113 1.378 . S
C114 C115 1.396 . S
C115 H100 0.940 . S
C115 C110 1.391 . S
C115 C114 1.396 . S
C116 P96 1.803 . S
C116 C117 1.378 . S
C116 C121 1.400 . S
C117 H101 0.939 . S
C117 C116 1.378 . S
C117 C118 1.361 . S
C118 H102 0.942 . S
C118 C117 1.361 . S
C118 C119 1.369 . S
C119 C118 1.369 . S
C119 C120 1.404 . S
C120 H103 0.940 . S
C120 C119 1.404 . S
C120 C121 1.389 . S
C121 H104 0.939 . S
C121 C116 1.400 . S
C121 C120 1.389 . S
C122 P96 1.819 . S
C122 C123 1.391 . S
C122 C127 1.391 . S
C123 H105 0.941 . S
C123 C122 1.391 . S
C123 C124 1.396 . S
C124 H108 0.939 . S
C124 C123 1.396 . S
C124 C125 1.397 . S
C125 C124 1.397 . S
C125 C126 1.385 . S
C126 H109 0.940 . S
C126 C125 1.385 . S
C126 C127 1.388 . S
C127 H106 0.939 . S
C127 C122 1.391 . S
C127 C126 1.388 . S
O128 Mg129 1.990 1_655 S
O128 C142 1.253 . S
Mg129 O128 1.990 1_455 S
Mg129 O132 2.180 . S
Mg129 O133 2.117 . S
Mg129 O147 2.030 . S
O130 Mg131 2.072 1_655 S
O130 C142 1.260 . S
Mg131 O130 2.072 1_455 S
Mg131 O132 2.099 . S
Mg131 O134 2.079 1_545 S
Mg131 O135 2.072 1_455 S
Mg131 O137 2.099 1_445 S
Mg131 O148 2.079 1_545 S
O132 Mg129 2.180 . S
O132 Mg131 2.099 . S
O132 C143 1.279 . S
O133 Mg129 2.117 . S
O133 C143 1.250 . S
O134 Mg131 2.079 1_565 S
O134 C144 1.264 . S
O135 Mg131 2.072 1_655 S
O135 C145 1.260 . S
Mg136 O137 2.180 . S
Mg136 O138 2.030 1_655 S
Mg136 O139 1.990 1_565 S
Mg136 O140 2.117 . S
O137 Mg131 2.099 1_665 S
O137 Mg136 2.180 . S
O137 C146 1.279 . S
O138 Mg136 2.030 1_455 S
O138 C144 1.248 . S
O139 Mg136 1.990 1_545 S
O139 C145 1.253 . S
O140 Mg136 2.117 . S
O140 C146 1.250 . S
C141 O147 1.248 1_565 S
C141 O148 1.264 . S
C142 O128 1.253 . S
C142 O130 1.260 . S
C143 O132 1.279 . S
C143 O133 1.250 . S
C144 O134 1.264 . S
C144 O138 1.248 . S
C145 O135 1.260 . S
C145 O139 1.253 . S
C146 O137 1.279 . S
C146 O140 1.250 . S
O147 Mg129 2.030 . S
O147 C141 1.248 1_545 S
O148 Mg131 2.079 1_565 S
O148 C141 1.264 . S
O149 Mg150 1.990 . S
O149 C163 1.253 . S
Mg150 O149 1.990 . S
Mg150 O153 2.180 . S
Mg150 O154 2.117 . S
Mg150 O168 2.030 . S
O151 Mg152 2.072 . S
O151 C163 1.260 . S
Mg152 O151 2.072 . S
Mg152 O153 2.099 . S
Mg152 O155 2.079 1_554 S
Mg152 O156 2.073 . S
Mg152 O158 2.099 . S
Mg152 O169 2.079 . S
O153 Mg150 2.180 . S
O153 Mg152 2.099 . S
O153 C164 1.279 . S
O154 Mg150 2.117 . S
O154 C164 1.250 . S
O155 Mg152 2.079 1_556 S
O155 C165 1.264 . S
O156 Mg152 2.073 . S
O156 C166 1.260 1_554 S
Mg157 O158 2.180 1_556 S
Mg157 O159 2.030 . S
Mg157 O160 1.990 . S
Mg157 O161 2.117 1_556 S
O158 Mg152 2.099 . S
O158 Mg157 2.180 1_554 S
O158 C167 1.279 . S
O159 Mg157 2.030 . S
O159 C165 1.248 . S
O160 Mg157 1.990 . S
O160 C166 1.253 . S
O161 Mg157 2.117 1_554 S
O161 C167 1.250 . S
C162 O168 1.248 . S
C162 O169 1.264 . S
C163 O149 1.253 . S
C163 O151 1.260 . S
C164 O153 1.279 . S
C164 O154 1.250 . S
C165 O155 1.264 . S
C165 O159 1.248 . S
C166 O156 1.260 1_556 S
C166 O160 1.253 . S
C167 O158 1.279 . S
C167 O161 1.250 . S
O168 Mg150 2.030 . S
O168 C162 1.248 . S
O169 Mg152 2.079 . S
O169 C162 1.264 . S
C170 C171 1.349 . S
C170 C172 1.327 . S
C170 H195 0.950 . S
C171 C170 1.349 . S
C171 C187 1.349 . S
C172 C170 1.327 . S
C172 C191 1.429 . S
C172 H196 0.950 . S
C173 C190 1.574 . S
C173 C192 1.368 . S
C173 H197 0.949 . S
H174 C178 0.949 . S
C175 C176 1.349 . S
C175 C177 1.327 . S
C175 H198 0.950 . S
C176 C175 1.349 . S
C176 C188 1.349 . S
C177 C175 1.327 . S
C177 C193 1.429 . S
C177 H199 0.950 . S
C178 H174 0.949 . S
C178 C186 1.574 . S
C178 C194 1.368 . S
H179 C187 0.950 . S
H180 C185 0.950 . S
H181 C186 0.949 . S
H182 C188 0.950 . S
H183 C189 0.950 . S
H184 C190 0.949 . S
C185 H180 0.950 . S
C185 C187 1.327 . S
C185 C191 1.429 . S
C186 C178 1.574 . S
C186 H181 0.949 . S
C186 C192 1.368 . S
C187 C171 1.349 . S
C187 H179 0.950 . S
C187 C185 1.327 . S
C188 C176 1.349 . S
C188 H182 0.950 . S
C188 C189 1.327 . S
C189 H183 0.950 . S
C189 C188 1.327 . S
C189 C193 1.429 . S
C190 C173 1.574 . S
C190 H184 0.949 . S
C190 C194 1.368 . S
C191 C172 1.429 . S
C191 C185 1.429 . S
C191 C192 1.523 . S
C192 C173 1.368 . S
C192 C186 1.368 . S
C192 C191 1.523 . S
C193 C177 1.429 . S
C193 C189 1.429 . S
C193 C194 1.523 . S
C194 C178 1.368 . S
C194 C190 1.368 . S
C194 C193 1.523 . S
H195 C170 0.950 . S
H196 C172 0.950 . S
H197 C173 0.949 . S
H198 C175 0.950 . S
H199 C177 0.950 . S
C200 C201 1.349 . S
C200 C202 1.327 . S
C200 H225 0.950 . S
C201 C200 1.349 . S
C201 C217 1.349 . S
C202 C200 1.327 . S
C202 C221 1.429 . S
C202 H226 0.950 . S
C203 C220 1.574 . S
C203 C222 1.368 . S
C203 H227 0.949 . S
H204 C208 0.949 . S
C205 C206 1.349 . S
C205 C207 1.327 . S
C205 H228 0.950 . S
C206 C205 1.349 . S
C206 C218 1.349 . S
C207 C205 1.327 . S
C207 C223 1.429 . S
C207 H229 0.950 . S
C208 H204 0.949 . S
C208 C216 1.574 . S
C208 C224 1.368 . S
H209 C217 0.950 . S
H210 C215 0.950 . S
H211 C216 0.949 . S
H212 C218 0.950 . S
H213 C219 0.950 . S
H214 C220 0.949 . S
C215 H210 0.950 . S
C215 C217 1.327 . S
C215 C221 1.429 . S
C216 C208 1.574 . S
C216 H211 0.949 . S
C216 C222 1.368 . S
C217 C201 1.349 . S
C217 H209 0.950 . S
C217 C215 1.327 . S
C218 C206 1.349 . S
C218 H212 0.950 . S
C218 C219 1.327 . S
C219 H213 0.950 . S
C219 C218 1.327 . S
C219 C223 1.429 . S
C220 C203 1.574 . S
C220 H214 0.949 . S
C220 C224 1.368 . S
C221 C202 1.429 . S
C221 C215 1.429 . S
C221 C222 1.523 . S
C222 C203 1.368 . S
C222 C216 1.368 . S
C222 C221 1.523 . S
C223 C207 1.429 . S
C223 C219 1.429 . S
C223 C224 1.523 . S
C224 C208 1.368 . S
C224 C220 1.368 . S
C224 C223 1.523 . S
H225 C200 0.950 . S
H226 C202 0.950 . S
H227 C203 0.949 . S
H228 C205 0.950 . S
H229 C207 0.950 . S
C230 C231 1.349 . S
C230 C232 1.327 . S
C230 H255 0.950 . S
C231 C230 1.349 . S
C231 C247 1.349 . S
C232 C230 1.327 . S
C232 C251 1.429 . S
C232 H256 0.950 . S
C233 C250 1.574 . S
C233 C252 1.368 . S
C233 H257 0.949 . S
H234 C238 0.949 . S
C235 C236 1.349 . S
C235 C237 1.327 . S
C235 H258 0.950 . S
C236 C235 1.349 . S
C236 C248 1.349 . S
C237 C235 1.327 . S
C237 C253 1.429 . S
C237 H259 0.950 . S
C238 H234 0.949 . S
C238 C246 1.574 . S
C238 C254 1.368 . S
H239 C247 0.950 . S
H240 C245 0.950 . S
H241 C246 0.949 . S
H242 C248 0.950 . S
H243 C249 0.950 . S
H244 C250 0.949 . S
C245 H240 0.950 . S
C245 C247 1.327 . S
C245 C251 1.429 . S
C246 C238 1.574 . S
C246 H241 0.949 . S
C246 C252 1.368 . S
C247 C231 1.349 . S
C247 H239 0.950 . S
C247 C245 1.327 . S
C248 C236 1.349 . S
C248 H242 0.950 . S
C248 C249 1.327 . S
C249 H243 0.950 . S
C249 C248 1.327 . S
C249 C253 1.429 . S
C250 C233 1.574 . S
C250 H244 0.949 . S
C250 C254 1.368 . S
C251 C232 1.429 . S
C251 C245 1.429 . S
C251 C252 1.523 . S
C252 C233 1.368 . S
C252 C246 1.368 . S
C252 C251 1.523 . S
C253 C237 1.429 . S
C253 C249 1.429 . S
C253 C254 1.523 . S
C254 C238 1.368 . S
C254 C250 1.368 . S
C254 C253 1.523 . S
H255 C230 0.950 . S
H256 C232 0.950 . S
H257 C233 0.949 . S
H258 C235 0.950 . S
H259 C237 0.950 . S
C260 C261 1.349 1_554 S
C260 C262 1.327 . S
C260 H285 0.950 . S
C261 C260 1.349 1_556 S
C261 C277 1.349 . S
C262 C260 1.327 . S
C262 C281 1.429 . S
C262 H286 0.950 . S
C263 C280 1.574 . S
C263 C282 1.368 1_556 S
C263 H287 0.949 . S
H264 C268 0.949 . S
C265 C266 1.349 1_556 S
C265 C267 1.327 . S
C265 H288 0.950 . S
C266 C265 1.349 1_554 S
C266 C278 1.349 . S
C267 C265 1.327 . S
C267 C283 1.429 1_556 S
C267 H289 0.950 . S
C268 H264 0.949 . S
C268 C276 1.574 . S
C268 C284 1.368 . S
H269 C277 0.950 . S
H270 C275 0.950 . S
H271 C276 0.949 . S
H272 C278 0.950 . S
H273 C279 0.950 . S
H274 C280 0.949 . S
C275 H270 0.950 . S
C275 C277 1.327 . S
C275 C281 1.429 1_556 S
C276 C268 1.574 . S
C276 H271 0.949 . S
C276 C282 1.368 . S
C277 C261 1.349 . S
C277 H269 0.950 . S
C277 C275 1.327 . S
C278 C266 1.349 . S
C278 H272 0.950 . S
C278 C279 1.327 . S
C279 H273 0.950 . S
C279 C278 1.327 . S
C279 C283 1.429 . S
C280 C263 1.574 . S
C280 H274 0.949 . S
C280 C284 1.368 1_556 S
C281 C262 1.429 . S
C281 C275 1.429 1_554 S
C281 C282 1.523 . S
C282 C263 1.368 1_554 S
C282 C276 1.368 . S
C282 C281 1.523 . S
C283 C267 1.429 1_554 S
C283 C279 1.429 . S
C283 C284 1.523 . S
C284 C268 1.368 . S
C284 C280 1.368 1_554 S
C284 C283 1.523 . S
H285 C260 0.950 . S
H286 C262 0.950 . S
H287 C263 0.949 . S
H288 C265 0.950 . S
H289 C267 0.950 . S
C290 C291 1.349 . S
C290 C292 1.327 . S
C290 H315 0.950 . S
C291 C290 1.349 . S
C291 C307 1.349 . S
C292 C290 1.327 . S
C292 C311 1.429 . S
C292 H316 0.950 . S
C293 C310 1.574 . S
C293 C312 1.368 . S
C293 H317 0.949 . S
H294 C298 0.949 . S
C295 C296 1.349 1_545 S
C295 C297 1.327 1_545 S
C295 H318 0.950 . S
C296 C295 1.349 1_565 S
C296 C308 1.349 . S
C297 C295 1.327 1_565 S
C297 C313 1.429 . S
C297 H319 0.950 1_565 S
C298 H294 0.949 . S
C298 C306 1.574 . S
C298 C314 1.368 . S
H299 C307 0.950 . S
H300 C305 0.950 . S
H301 C306 0.949 . S
H302 C308 0.950 . S
H303 C309 0.950 . S
H304 C310 0.967 . S
C305 H300 0.950 . S
C305 C307 1.327 . S
C305 C311 1.429 . S
C306 C298 1.574 . S
C306 H301 0.949 . S
C306 C312 1.368 . S
C307 C291 1.349 . S
C307 H299 0.950 . S
C307 C305 1.327 . S
C308 C296 1.349 . S
C308 H302 0.950 . S
C308 C309 1.327 . S
C309 H303 0.950 . S
C309 C308 1.327 . S
C309 C313 1.429 . S
C310 C293 1.574 . S
C310 H304 0.967 . S
C310 C314 1.368 . S
C311 C292 1.429 . S
C311 C305 1.429 . S
C311 C312 1.523 . S
C312 C293 1.368 . S
C312 C306 1.368 . S
C312 C311 1.523 . S
C313 C297 1.429 . S
C313 C309 1.429 . S
C313 C314 1.523 . S
C314 C298 1.368 . S
C314 C310 1.368 . S
C314 C313 1.523 . S
H315 C290 0.950 . S
H316 C292 0.950 . S
H317 C293 0.949 . S
H318 C295 0.950 . S
H319 C297 0.950 1_545 S
C320 C321 1.349 . S
C320 C322 1.327 . S
C320 H345 0.950 . S
C321 C320 1.349 . S
C321 C337 1.349 . S
C322 C320 1.327 . S
C322 C341 1.429 . S
C322 H346 0.950 . S
C323 C340 1.574 . S
C323 C342 1.368 . S
C323 H347 0.949 . S
H324 C328 0.949 . S
C325 C326 1.349 . S
C325 C327 1.327 . S
C325 H348 0.950 . S
C326 C325 1.349 . S
C326 C338 1.349 . S
C327 C325 1.327 . S
C327 C343 1.429 . S
C327 H349 0.950 . S
C328 H324 0.949 . S
C328 C336 1.574 . S
C328 C344 1.368 . S
H329 C337 0.950 . S
H330 C335 0.950 . S
H331 C336 0.949 . S
H332 C338 0.950 . S
H333 C339 0.950 . S
H334 C340 0.949 . S
C335 H330 0.950 . S
C335 C337 1.327 . S
C335 C341 1.429 . S
C336 C328 1.574 . S
C336 H331 0.949 . S
C336 C342 1.368 . S
C337 C321 1.349 . S
C337 H329 0.950 . S
C337 C335 1.327 . S
C338 C326 1.349 . S
C338 H332 0.950 . S
C338 C339 1.327 . S
C339 H333 0.950 . S
C339 C338 1.327 . S
C339 C343 1.429 . S
C340 C323 1.574 . S
C340 H334 0.949 . S
C340 C344 1.368 . S
C341 C322 1.429 . S
C341 C335 1.429 . S
C341 C342 1.523 . S
C342 C323 1.368 . S
C342 C336 1.368 . S
C342 C341 1.523 . S
C343 C327 1.429 . S
C343 C339 1.429 . S
C343 C344 1.523 . S
C344 C328 1.368 . S
C344 C340 1.368 . S
C344 C343 1.523 . S
H345 C320 0.950 . S
H346 C322 0.950 . S
H347 C323 0.949 . S
H348 C325 0.950 . S
H349 C327 0.950 . S
C350 C351 1.349 . S
C350 C352 1.327 . S
C350 H375 0.950 . S
C351 C350 1.349 . S
C351 C367 1.349 . S
C352 C350 1.327 . S
C352 C371 1.429 . S
C352 H376 0.950 . S
C353 C370 1.574 . S
C353 C372 1.368 . S
C353 H377 0.949 . S
H354 C358 0.949 . S
C355 C356 1.349 . S
C355 C357 1.327 . S
C355 H378 0.950 . S
C356 C355 1.349 . S
C356 C368 1.349 . S
C357 C355 1.327 . S
C357 C373 1.429 . S
C357 H379 0.950 . S
C358 H354 0.949 . S
C358 C366 1.574 . S
C358 C374 1.368 . S
H359 C367 0.950 . S
H360 C365 0.950 . S
H361 C366 0.949 . S
H362 C368 0.950 . S
H363 C369 0.950 . S
H364 C370 0.949 . S
C365 H360 0.950 . S
C365 C367 1.327 . S
C365 C371 1.429 . S
C366 C358 1.574 . S
C366 H361 0.949 . S
C366 C372 1.368 . S
C367 C351 1.349 . S
C367 H359 0.950 . S
C367 C365 1.327 . S
C368 C356 1.349 . S
C368 H362 0.950 . S
C368 C369 1.327 . S
C369 H363 0.950 . S
C369 C368 1.327 . S
C369 C373 1.429 . S
C370 C353 1.574 . S
C370 H364 0.949 . S
C370 C374 1.368 . S
C371 C352 1.429 . S
C371 C365 1.429 . S
C371 C372 1.523 . S
C372 C353 1.368 . S
C372 C366 1.368 . S
C372 C371 1.523 . S
C373 C357 1.429 . S
C373 C369 1.429 . S
C373 C374 1.523 . S
C374 C358 1.368 . S
C374 C370 1.368 . S
C374 C373 1.523 . S
H375 C350 0.950 . S
H376 C352 0.950 . S
H377 C353 0.949 . S
H378 C355 0.950 . S
H379 C357 0.950 . S
C380 C381 1.349 . S
C380 C382 1.327 . S
C380 H405 0.950 . S
C381 C380 1.349 . S
C381 C397 1.349 . S
C382 C380 1.327 . S
C382 C401 1.429 . S
C382 H406 0.950 . S
C383 C400 1.574 . S
C383 C402 1.368 . S
C383 H407 0.949 . S
H384 C388 0.949 . S
C385 C386 1.349 . S
C385 C387 1.327 . S
C385 H408 0.950 . S
C386 C385 1.349 . S
C386 C398 1.349 . S
C387 C385 1.327 . S
C387 C403 1.429 . S
C387 H409 0.950 . S
C388 H384 0.949 . S
C388 C396 1.574 . S
C388 C404 1.368 . S
H389 C397 0.950 . S
H390 C395 0.950 . S
H391 C396 0.949 . S
H392 C398 0.950 . S
H393 C399 0.950 . S
H394 C400 0.949 . S
C395 H390 0.950 . S
C395 C397 1.327 . S
C395 C401 1.429 . S
C396 C388 1.574 . S
C396 H391 0.949 . S
C396 C402 1.368 . S
C397 C381 1.349 . S
C397 H389 0.950 . S
C397 C395 1.327 . S
C398 C386 1.349 . S
C398 H392 0.950 . S
C398 C399 1.327 . S
C399 H393 0.950 . S
C399 C398 1.327 . S
C399 C403 1.429 . S
C400 C383 1.574 . S
C400 H394 0.949 . S
C400 C404 1.368 . S
C401 C382 1.429 . S
C401 C395 1.429 . S
C401 C402 1.523 . S
C402 C383 1.368 . S
C402 C396 1.368 . S
C402 C401 1.523 . S
C403 C387 1.429 . S
C403 C399 1.429 . S
C403 C404 1.523 . S
C404 C388 1.368 . S
C404 C400 1.368 . S
C404 C403 1.523 . S
H405 C380 0.950 . S
H406 C382 0.950 . S
H407 C383 0.949 . S
H408 C385 0.950 . S
H409 C387 0.950 . S
C410 C411 1.349 . S
C410 C412 1.327 . S
C410 H435 0.950 . S
C411 C410 1.349 . S
C411 C427 1.349 . S
C412 C410 1.327 . S
C412 C431 1.429 . S
C412 H436 0.950 . S
C413 C430 1.574 . S
C413 C432 1.368 . S
C413 H437 0.949 . S
H414 C418 0.949 . S
C415 C416 1.349 . S
C415 C417 1.327 . S
C415 H438 0.950 . S
C416 C415 1.349 . S
C416 C428 1.349 . S
C417 C415 1.327 . S
C417 C433 1.429 . S
C417 H439 0.950 . S
C418 H414 0.949 . S
C418 C426 1.574 . S
C418 C434 1.368 . S
H419 C427 0.950 . S
H420 C425 0.950 . S
H421 C426 0.949 . S
H422 C428 0.950 . S
H423 C429 0.950 . S
H424 C430 0.949 . S
C425 H420 0.950 . S
C425 C427 1.327 . S
C425 C431 1.429 . S
C426 C418 1.574 . S
C426 H421 0.949 . S
C426 C432 1.368 . S
C427 C411 1.349 . S
C427 H419 0.950 . S
C427 C425 1.327 . S
C428 C416 1.349 . S
C428 H422 0.950 . S
C428 C429 1.327 . S
C429 H423 0.950 . S
C429 C428 1.327 . S
C429 C433 1.429 . S
C430 C413 1.574 . S
C430 H424 0.949 . S
C430 C434 1.368 . S
C431 C412 1.429 . S
C431 C425 1.429 . S
C431 C432 1.523 . S
C432 C413 1.368 . S
C432 C426 1.368 . S
C432 C431 1.523 . S
C433 C417 1.429 . S
C433 C429 1.429 . S
C433 C434 1.523 . S
C434 C418 1.368 . S
C434 C430 1.368 . S
C434 C433 1.523 . S
H435 C410 0.950 . S
H436 C412 0.950 . S
H437 C413 0.949 . S
H438 C415 0.950 . S
H439 C417 0.950 . S
C440 C441 1.349 . S
C440 C442 1.327 . S
C440 H465 0.950 . S
C441 C440 1.349 . S
C441 C457 1.349 . S
C442 C440 1.327 . S
C442 C461 1.429 . S
C442 H466 0.950 . S
C443 C460 1.574 . S
C443 C462 1.368 . S
C443 H467 0.949 . S
H444 C448 0.949 . S
C445 C446 1.349 . S
C445 C447 1.327 . S
C445 H468 0.950 . S
C446 C445 1.349 . S
C446 C458 1.349 . S
C447 C445 1.327 . S
C447 C463 1.429 . S
C447 H469 0.950 . S
C448 H444 0.949 . S
C448 C456 1.574 . S
C448 C464 1.368 . S
H449 C457 0.950 . S
H450 C455 0.950 . S
H451 C456 0.949 . S
H452 C458 0.950 . S
H453 C459 0.950 . S
H454 C460 0.949 . S
C455 H450 0.950 . S
C455 C457 1.327 . S
C455 C461 1.429 . S
C456 C448 1.574 . S
C456 H451 0.949 . S
C456 C462 1.368 . S
C457 C441 1.349 . S
C457 H449 0.950 . S
C457 C455 1.327 . S
C458 C446 1.349 . S
C458 H452 0.950 . S
C458 C459 1.327 . S
C459 H453 0.950 . S
C459 C458 1.327 . S
C459 C463 1.429 . S
C460 C443 1.574 . S
C460 H454 0.949 . S
C460 C464 1.368 . S
C461 C442 1.429 . S
C461 C455 1.429 . S
C461 C462 1.523 . S
C462 C443 1.368 . S
C462 C456 1.368 . S
C462 C461 1.523 . S
C463 C447 1.429 . S
C463 C459 1.429 . S
C463 C464 1.523 . S
C464 C448 1.368 . S
C464 C460 1.368 . S
C464 C463 1.523 . S
H465 C440 0.950 . S
H466 C442 0.950 . S
H467 C443 0.949 . S
H468 C445 0.950 . S
H469 C447 0.950 . S
C470 C471 1.349 . S
C470 C472 1.327 . S
C470 H495 0.950 . S
C471 C470 1.349 . S
C471 C487 1.349 . S
C472 C470 1.327 . S
C472 C491 1.429 . S
C472 H496 0.950 . S
C473 C490 1.574 . S
C473 C492 1.368 . S
C473 H497 0.949 . S
H474 C478 0.949 . S
C475 C476 1.349 . S
C475 C477 1.327 . S
C475 H498 0.950 . S
C476 C475 1.349 . S
C476 C488 1.349 . S
C477 C475 1.327 . S
C477 C493 1.429 . S
C477 H499 0.950 . S
C478 H474 0.949 . S
C478 C486 1.574 . S
C478 C494 1.368 . S
H479 C487 0.950 . S
H480 C485 0.950 . S
H481 C486 0.949 . S
H482 C488 0.950 . S
H483 C489 0.950 . S
H484 C490 0.949 . S
C485 H480 0.950 . S
C485 C487 1.327 . S
C485 C491 1.429 . S
C486 C478 1.574 . S
C486 H481 0.949 . S
C486 C492 1.368 . S
C487 C471 1.349 . S
C487 H479 0.950 . S
C487 C485 1.327 . S
C488 C476 1.349 . S
C488 H482 0.950 . S
C488 C489 1.327 . S
C489 H483 0.950 . S
C489 C488 1.327 . S
C489 C493 1.429 . S
C490 C473 1.574 . S
C490 H484 0.949 . S
C490 C494 1.368 . S
C491 C472 1.429 . S
C491 C485 1.429 . S
C491 C492 1.523 . S
C492 C473 1.368 . S
C492 C486 1.368 . S
C492 C491 1.523 . S
C493 C477 1.429 . S
C493 C489 1.429 . S
C493 C494 1.523 . S
C494 C478 1.368 . S
C494 C490 1.368 . S
C494 C493 1.523 . S
H495 C470 0.950 . S
H496 C472 0.950 . S
H497 C473 0.949 . S
H498 C475 0.950 . S
H499 C477 0.950 . S
C500 C501 1.349 . S
C500 C502 1.327 . S
C500 H525 0.950 . S
C501 C500 1.349 . S
C501 C517 1.349 . S
C502 C500 1.327 . S
C502 C521 1.429 . S
C502 H526 0.950 . S
C503 C520 1.574 . S
C503 C522 1.368 . S
C503 H527 0.949 . S
H504 C508 0.949 . S
C505 C506 1.349 . S
C505 C507 1.327 . S
C505 H528 0.950 1_565 S
C506 C505 1.349 . S
C506 C518 1.349 . S
C507 C505 1.327 . S
C507 C523 1.429 . S
C507 H529 0.950 1_565 S
C508 H504 0.949 . S
C508 C516 1.574 . S
C508 C524 1.368 . S
H509 C517 0.950 . S
H510 C515 0.950 . S
H511 C516 0.949 . S
H512 C518 0.950 . S
H513 C519 0.950 . S
H514 C520 0.949 . S
C515 H510 0.950 . S
C515 C517 1.327 . S
C515 C521 1.429 . S
C516 C508 1.574 . S
C516 H511 0.949 . S
C516 C522 1.368 . S
C517 C501 1.349 . S
C517 H509 0.950 . S
C517 C515 1.327 . S
C518 C506 1.349 . S
C518 H512 0.950 . S
C518 C519 1.327 . S
C519 H513 0.950 . S
C519 C518 1.327 . S
C519 C523 1.429 . S
C520 C503 1.574 . S
C520 H514 0.949 . S
C520 C524 1.368 . S
C521 C502 1.429 . S
C521 C515 1.429 . S
C521 C522 1.523 . S
C522 C503 1.368 . S
C522 C516 1.368 . S
C522 C521 1.523 . S
C523 C507 1.429 . S
C523 C519 1.429 . S
C523 C524 1.523 . S
C524 C508 1.368 . S
C524 C520 1.368 . S
C524 C523 1.523 . S
H525 C500 0.950 . S
H526 C502 0.950 . S
H527 C503 0.949 . S
H528 C505 0.950 1_545 S
H529 C507 0.950 1_545 S
C176 C143 1.286 . S
C171 C119 1.398 . S
C201 C23 1.475 . S
C206 C167 1.281 . S
C231 C55 1.645 . S
C236 C146 1.432 . S
C261 C87 1.576 . S
C266 C164 1.428 . S
C296 C144 1.532 . S
C291 C17 1.572 . S
C326 C166 1.527 . S
C321 C61 1.577 . S
C351 C93 1.488 . S
C356 C145 1.491 . S
C381 C113 1.485 . S
C386 C165 1.489 . S
C416 C163 1.493 . S
C411 C49 1.562 . S
C446 C142 1.525 . S
C441 C81 1.526 . S
C476 C162 1.536 . S
C471 C125 1.482 . S
C501 C29 1.563 . S
C506 C141 1.489 . S
