# Generated by pormake.
# Topology zzz, (3,6)-cn, num edge types: 1
# Building blocks:
#     Node 0, Type 0, BuildingBlock: KAKCAD_clean_linker_0, # of connection points: 3
#     Node 1, Type 0, BuildingBlock: KAKCAD_clean_linker_0, # of connection points: 3
#     Node 2, Type 0, BuildingBlock: KAKCAD_clean_linker_0, # of connection points: 3
#     Node 3, Type 0, BuildingBlock: KAKCAD_clean_linker_0, # of connection points: 3
#     Node 4, Type 0, BuildingBlock: KAKCAD_clean_linker_0, # of connection points: 3
#     Node 5, Type 0, BuildingBlock: KAKCAD_clean_linker_0, # of connection points: 3
#     Node 6, Type 0, BuildingBlock: KAKCAD_clean_linker_0, # of connection points: 3
#     Node 7, Type 0, BuildingBlock: KAKCAD_clean_linker_0, # of connection points: 3
#     Node 8, Type 1, BuildingBlock: BETGAK_clean_sbu_0, # of connection points: 6
#     Node 9, Type 1, BuildingBlock: BETGAK_clean_sbu_0, # of connection points: 6
#     Node 10, Type 1, BuildingBlock: BETGAK_clean_sbu_0, # of connection points: 6
#     Node 11, Type 1, BuildingBlock: BETGAK_clean_sbu_0, # of connection points: 6
#     Edge 12, Type (0, 1), BuildingBlock: OJICUG_clean_linker_0, # of connection points: 2
#     Edge 13, Type (0, 1), BuildingBlock: OJICUG_clean_linker_0, # of connection points: 2
#     Edge 14, Type (0, 1), BuildingBlock: OJICUG_clean_linker_0, # of connection points: 2
#     Edge 15, Type (0, 1), BuildingBlock: OJICUG_clean_linker_0, # of connection points: 2
#     Edge 16, Type (0, 1), BuildingBlock: OJICUG_clean_linker_0, # of connection points: 2
#     Edge 17, Type (0, 1), BuildingBlock: OJICUG_clean_linker_0, # of connection points: 2
#     Edge 18, Type (0, 1), BuildingBlock: OJICUG_clean_linker_0, # of connection points: 2
#     Edge 19, Type (0, 1), BuildingBlock: OJICUG_clean_linker_0, # of connection points: 2
#     Edge 20, Type (0, 1), BuildingBlock: OJICUG_clean_linker_0, # of connection points: 2
#     Edge 21, Type (0, 1), BuildingBlock: OJICUG_clean_linker_0, # of connection points: 2
#     Edge 22, Type (0, 1), BuildingBlock: OJICUG_clean_linker_0, # of connection points: 2
#     Edge 23, Type (0, 1), BuildingBlock: OJICUG_clean_linker_0, # of connection points: 2
#     Edge 24, Type (0, 1), BuildingBlock: OJICUG_clean_linker_0, # of connection points: 2
#     Edge 25, Type (0, 1), BuildingBlock: OJICUG_clean_linker_0, # of connection points: 2
#     Edge 26, Type (0, 1), BuildingBlock: OJICUG_clean_linker_0, # of connection points: 2
#     Edge 27, Type (0, 1), BuildingBlock: OJICUG_clean_linker_0, # of connection points: 2
#     Edge 28, Type (0, 1), BuildingBlock: OJICUG_clean_linker_0, # of connection points: 2
#     Edge 29, Type (0, 1), BuildingBlock: OJICUG_clean_linker_0, # of connection points: 2
#     Edge 30, Type (0, 1), BuildingBlock: OJICUG_clean_linker_0, # of connection points: 2
#     Edge 31, Type (0, 1), BuildingBlock: OJICUG_clean_linker_0, # of connection points: 2
#     Edge 32, Type (0, 1), BuildingBlock: OJICUG_clean_linker_0, # of connection points: 2
#     Edge 33, Type (0, 1), BuildingBlock: OJICUG_clean_linker_0, # of connection points: 2
#     Edge 34, Type (0, 1), BuildingBlock: OJICUG_clean_linker_0, # of connection points: 2
#     Edge 35, Type (0, 1), BuildingBlock: OJICUG_clean_linker_0, # of connection points: 2
# Relax obj value: 0.507
# Max RMSD: 0.263
# Mean RMSD: 0.254
data_MOF--net-zzz--node1-BETGAK_clean_sbu_0--node2-KAKCAD_clean_linker_0--edge1-OJICUG_clean_linker_0
_symmetry_space_group_name_H-M    P1
_symmetry_Int_Tables_number       1
_symmetry_cell_setting            triclinic
loop_
_symmetry_equiv_pos_as_xyz
'x, y, z'
_cell_length_a     46.618838
_cell_length_b     46.581112
_cell_length_c     14.53722
_cell_angle_alpha  89.789434
_cell_angle_beta   89.892405
_cell_angle_gamma 90.017953
loop_
_atom_site_label
_atom_site_type_symbol
_atom_site_fract_x
_atom_site_fract_y
_atom_site_fract_z
_atom_type_partial_charge
C0 C 0.79011 0.4057 0.08344 0.0
C1 C 0.80652 0.38542 0.13294 0.0
C2 C 0.76929 0.42209 0.12771 0.0
C3 C 0.76464 0.41883 0.22243 0.0
C4 C 0.77741 0.3956 0.26843 0.0
C5 C 0.79776 0.3786 0.22338 0.0
C6 C 0.75323 0.44362 0.27429 0.0
C7 C 0.72847 0.45782 0.24453 0.0
C8 C 0.72208 0.4857 0.27462 0.0
C9 C 0.74122 0.49957 0.33636 0.0
C10 C 0.76585 0.48483 0.36945 0.0
C11 C 0.77109 0.45681 0.33901 0.0
C12 C 0.78911 0.49847 0.42511 0.0
C13 C 0.81361 0.50902 0.37983 0.0
C14 C 0.79074 0.49381 0.52062 0.0
C15 C 0.81643 0.49891 0.56909 0.0
C16 C 0.84152 0.50828 0.52315 0.0
C17 C 0.69706 0.50017 0.2302 0.0
C18 C 0.70081 0.51413 0.14524 0.0
C19 C 0.66896 0.49368 0.25879 0.0
C20 C 0.64525 0.50028 0.20261 0.0
C21 C 0.64897 0.51304 0.11502 0.0
C22 C 0.67722 0.52045 0.08856 0.0
C23 C 0.83932 0.5138 0.42774 0.0
H24 H 0.79544 0.41174 0.01361 0.0
H25 H 0.75962 0.43975 0.09025 0.0
H26 H 0.77364 0.39228 0.34126 0.0
H27 H 0.80857 0.36207 0.26265 0.0
H28 H 0.71502 0.44781 0.19291 0.0
H29 H 0.79082 0.44624 0.35953 0.0
H30 H 0.73741 0.52162 0.35634 0.0
H31 H 0.81343 0.51176 0.30578 0.0
H32 H 0.77253 0.48482 0.55709 0.0
H33 H 0.81671 0.49475 0.64236 0.0
H34 H 0.72225 0.51845 0.11979 0.0
H35 H 0.66542 0.48218 0.32273 0.0
H36 H 0.8579 0.52036 0.38821 0.0
H37 H 0.6815 0.5297 0.02156 0.0
H38 H 0.62406 0.4946 0.22715 0.0
C39 C 0.11999 0.79338 0.07299 0.0
C40 C 0.14178 0.80872 0.11888 0.0
C41 C 0.10354 0.77304 0.11972 0.0
C42 C 0.10826 0.76781 0.21337 0.0
C43 C 0.13251 0.77971 0.25562 0.0
C44 C 0.14956 0.79954 0.208 0.0
C45 C 0.08453 0.75584 0.26904 0.0
C46 C 0.07093 0.73045 0.24292 0.0
C47 C 0.04457 0.72214 0.2819 0.0
C48 C 0.03136 0.7406 0.34774 0.0
C49 C 0.04567 0.76603 0.37722 0.0
C50 C 0.07227 0.77289 0.33756 0.0
C51 C 0.03371 0.7875 0.44418 0.0
C52 C 1.00953 0.80418 0.42207 0.0
C53 C 0.05072 0.79637 0.51896 0.0
C54 C 0.04491 0.82198 0.56639 0.0
C55 C 0.02182 0.83983 0.54081 0.0
C56 C 0.03169 0.69472 0.24664 0.0
C57 C 1.00559 0.6946 0.19837 0.0
C58 C 0.04875 0.66977 0.2433 0.0
C59 C 0.04116 0.64631 0.18809 0.0
C60 C 0.01604 0.64677 0.13421 0.0
C61 C 0.99783 0.67095 0.14322 0.0
C62 C 1.00364 0.82991 0.46973 0.0
H63 H 0.11307 0.79917 1.00446 0.0
H64 H 0.08501 0.76402 0.08538 0.0
H65 H 0.13688 0.77546 0.32756 0.0
H66 H 0.16711 0.80956 0.24441 0.0
H67 H 0.08045 0.71765 0.18864 0.0
H68 H 0.08259 0.793 0.35546 0.0
H69 H 1.01062 0.73507 0.37644 0.0
H70 H 0.99627 0.79839 0.36393 0.0
H71 H 0.06982 0.78436 0.53694 0.0
H72 H 0.05972 0.82856 0.61954 0.0
H73 H 0.99207 0.71351 0.19843 0.0
H74 H 0.06912 0.66915 0.2791 0.0
H75 H 0.98527 0.84249 0.4486 0.0
H76 H 0.97793 0.67213 0.10524 0.0
H77 H 0.05607 0.62857 0.18371 0.0
C78 C 0.73279 0.11914 0.06894 0.0
C79 C 0.71751 0.14139 0.1129 0.0
C80 C 0.7531 0.10309 0.11688 0.0
C81 C 0.75835 0.10865 0.20991 0.0
C82 C 0.74642 0.13325 0.25009 0.0
C83 C 0.72663 0.1499 0.20119 0.0
C84 C 0.77044 0.08545 0.26753 0.0
C85 C 0.7959 0.07182 0.24232 0.0
C86 C 0.80431 0.04579 0.28344 0.0
C87 C 0.7859 0.03295 0.35049 0.0
C88 C 0.76041 0.04733 0.37902 0.0
C89 C 0.75342 0.07361 0.33725 0.0
C90 C 0.73897 0.03562 0.44684 0.0
C91 C 0.72291 1.01085 0.42718 0.0
C92 C 0.72955 0.05317 0.51968 0.0
C93 C 0.70395 0.04728 0.56736 0.0
C94 C 0.68669 0.02357 0.54395 0.0
C95 C 0.83174 0.03275 0.24905 0.0
C96 C 0.83192 1.0064 0.20232 0.0
C97 C 0.85666 0.04985 0.24472 0.0
C98 C 0.88018 0.04199 0.18993 0.0
C99 C 0.87977 0.01659 0.13749 0.0
C100 C 0.85562 0.99838 0.14755 0.0
C101 C 0.69719 1.00488 0.47509 0.0
H102 H 0.72701 0.11163 1.00119 0.0
H103 H 0.76212 0.08426 0.08418 0.0
H104 H 0.75067 0.13825 0.32151 0.0
H105 H 0.71663 0.16778 0.23606 0.0
H106 H 0.80868 0.08099 0.18711 0.0
H107 H 0.73324 0.08393 0.35442 0.0
H108 H 0.79151 1.01244 0.38079 0.0
H109 H 0.72917 0.99712 0.37061 0.0
H110 H 0.74111 0.0727 0.5358 0.0
H111 H 0.69689 0.06247 0.61881 0.0
H112 H 0.81303 0.99286 0.20319 0.0
H113 H 0.8572 0.07041 0.27932 0.0
H114 H 0.68506 0.98603 0.4558 0.0
H115 H 0.85451 0.97829 0.11062 0.0
H116 H 0.89791 0.0569 0.18461 0.0
C117 C 0.47991 0.70378 0.56351 0.0
C118 C 0.50345 0.68656 0.53804 0.0
C119 C 0.47385 0.72954 0.51688 0.0
C120 C 0.49107 0.73913 0.44313 0.0
C121 C 0.51571 0.72311 0.42144 0.0
C122 C 0.52184 0.69724 0.46829 0.0
C123 C 0.47902 0.7606 0.37629 0.0
C124 C 0.49306 0.78633 0.34796 0.0
C125 C 0.48 0.80473 0.28155 0.0
C126 C 0.45409 0.79607 0.24076 0.0
C127 C 0.44075 0.77038 0.26591 0.0
C128 C 0.45282 0.75336 0.33512 0.0
C129 C 0.41771 0.75806 0.20868 0.0
C130 C 0.39333 0.74571 0.24941 0.0
C131 C 0.42334 0.7529 0.11556 0.0
C132 C 0.40764 0.73229 0.06807 0.0
C133 C 0.38568 0.71662 0.11261 0.0
C134 C 0.49278 0.83239 0.24755 0.0
C135 C 0.47533 0.85703 0.24198 0.0
C136 C 0.51959 0.8331 0.20324 0.0
C137 C 0.52774 0.85702 0.14938 0.0
C138 C 0.50923 0.88086 0.1379 0.0
C139 C 0.48333 0.88076 0.18808 0.0
C140 C 0.37703 0.7256 0.20099 0.0
H141 H 0.46496 0.69656 0.61574 0.0
H142 H 0.45442 0.74106 0.53444 0.0
H143 H 0.52915 0.72952 0.36407 0.0
H144 H 0.54055 0.68512 0.44744 0.0
H145 H 0.51351 0.79212 0.3779 0.0
H146 H 0.44277 0.733 0.35226 0.0
H147 H 0.44477 0.80884 0.18585 0.0
H148 H 0.38829 0.74985 0.32092 0.0
H149 H 0.44201 0.76223 0.08249 0.0
H150 H 0.41522 0.7266 1.00023 0.0
H151 H 0.45446 0.85719 0.27496 0.0
H152 H 0.53345 0.81445 0.20529 0.0
H153 H 0.35937 0.71524 0.2363 0.0
H154 H 0.46819 0.89825 0.18159 0.0
H155 H 0.54821 0.85632 0.11423 0.0
C156 C 0.22784 0.64952 0.30569 0.0
C157 C 0.21891 0.64149 0.39493 0.0
C158 C 0.24758 0.63263 0.25758 0.0
C159 C 0.25963 0.60829 0.29944 0.0
C160 C 0.25464 0.60333 0.39316 0.0
C161 C 0.23439 0.61962 0.44039 0.0
C162 C 0.27146 0.58469 0.24335 0.0
C163 C 0.2969 0.57104 0.26882 0.0
C164 C 0.30505 0.54472 0.22962 0.0
C165 C 0.28641 0.5316 0.16435 0.0
C166 C 0.26096 0.54597 0.13555 0.0
C167 C 0.25421 0.57254 0.17526 0.0
C168 C 0.23933 0.534 0.06945 0.0
C169 C 0.23015 0.55108 0.99488 0.0
C170 C 0.22287 0.50969 0.09223 0.0
C171 C 0.19703 0.50372 0.04544 0.0
C172 C 0.18681 0.52197 0.97464 0.0
C173 C 0.33245 0.53165 0.26416 0.0
C174 C 0.3574 0.54869 0.26769 0.0
C175 C 0.33261 0.50526 0.31126 0.0
C176 C 0.35632 0.49716 0.36571 0.0
C177 C 0.3805 0.51533 0.3751 0.0
C178 C 0.38093 0.54076 0.32222 0.0
C179 C 0.20444 0.5452 0.94833 0.0
H180 H 0.21769 0.66713 0.26959 0.0
H181 H 0.25163 0.63718 0.18558 0.0
H182 H 0.26378 0.58473 0.42718 0.0
H183 H 0.22879 0.61252 0.50898 0.0
H184 H 0.30985 0.58045 0.32283 0.0
H185 H 0.23406 0.58287 0.15787 0.0
H186 H 0.29182 0.51088 0.1356 0.0
H187 H 0.24201 0.57027 0.97644 0.0
H188 H 0.22893 0.49637 0.15024 0.0
H189 H 0.1846 0.48526 0.06704 0.0
H190 H 0.35799 0.56925 0.23263 0.0
H191 H 0.3137 0.49174 0.31088 0.0
H192 H 0.1976 0.56005 0.89534 0.0
H193 H 0.39868 0.55565 0.32697 0.0
H194 H 0.3552 0.47703 0.40293 0.0
C195 C 0.87636 0.2277 0.31834 0.0
C196 C 0.88437 0.21848 0.40722 0.0
C197 C 0.89341 0.24736 0.27003 0.0
C198 C 0.91789 0.2591 0.31139 0.0
C199 C 0.92292 0.25383 0.40485 0.0
C200 C 0.90647 0.23363 0.45223 0.0
C201 C 0.94144 0.27103 0.25489 0.0
C202 C 0.95506 0.29647 0.28026 0.0
C203 C 0.98125 0.30482 0.24019 0.0
C204 C 0.99429 0.28632 0.17409 0.0
C205 C 0.97994 0.26082 0.14544 0.0
C206 C 0.9535 0.25392 0.18614 0.0
C207 C 0.99174 0.23932 0.07827 0.0
C208 C 0.97448 0.23029 1.00426 0.0
C209 C 0.0161 0.22279 0.09952 0.0
C210 C 0.02195 0.19707 0.05182 0.0
C211 C 1.00355 0.187 0.98154 0.0
C212 C 0.99415 0.33232 0.27456 0.0
C213 C 0.97703 0.35724 0.27769 0.0
C214 C 0.02031 0.33258 0.32245 0.0
C215 C 0.0281 0.35635 0.37705 0.0
C216 C 1.00985 0.3805 0.38586 0.0
C217 C 0.98466 0.38082 0.33233 0.0
C218 C 0.98026 0.20469 0.95678 0.0
H219 H 0.85859 0.21783 0.28262 0.0
H220 H 0.88881 0.25165 0.19826 0.0
H221 H 0.94163 0.26273 0.43846 0.0
H222 H 0.91358 0.22781 0.52052 0.0
H223 H 0.9457 0.3093 0.33472 0.0
H224 H 0.94317 0.23377 0.16883 0.0
H225 H 0.0149 0.29189 0.14454 0.0
H226 H 0.95525 0.24218 0.98696 0.0
H227 H 0.02956 0.22871 0.15706 0.0
H228 H 0.04047 0.1846 0.07229 0.0
H229 H 0.95661 0.35774 0.24222 0.0
H230 H 0.03387 0.3137 0.32257 0.0
H231 H 0.96528 0.19798 0.90427 0.0
H232 H 0.96972 0.39854 0.33662 0.0
H233 H 0.04805 0.35528 0.4148 0.0
C234 C 0.29836 0.87735 0.32145 0.0
C235 C 0.30757 0.88585 0.40965 0.0
C236 C 0.27861 0.89407 0.27262 0.0
C237 C 0.26682 0.91873 0.31281 0.0
C238 C 0.27214 0.9243 0.4058 0.0
C239 C 0.29241 0.90817 0.45366 0.0
C240 C 0.25478 0.94195 0.2552 0.0
C241 C 0.22933 0.95562 0.28037 0.0
C242 C 0.22095 0.98164 0.23917 0.0
C243 C 0.23937 0.99444 0.17208 0.0
C244 C 0.26485 0.98003 0.14362 0.0
C245 C 0.27182 0.95376 0.18547 0.0
C246 C 0.2863 0.99169 0.0757 0.0
C247 C 0.29566 0.97409 1.00289 0.0
C248 C 0.30243 0.01643 0.09524 0.0
C249 C 0.32815 0.02233 0.04723 0.0
C250 C 0.33859 1.00359 0.97838 0.0
C251 C 0.19352 0.99469 0.2735 0.0
C252 C 0.16858 0.97762 0.2774 0.0
C253 C 0.19337 0.02093 0.32085 0.0
C254 C 0.16968 0.02886 0.37578 0.0
C255 C 0.14551 1.01066 0.38544 0.0
C256 C 0.14506 0.98539 0.33237 0.0
C257 C 0.32126 0.97991 0.95511 0.0
H258 H 0.30827 0.85942 0.28657 0.0
H259 H 0.27431 0.88907 0.20124 0.0
H260 H 0.26321 0.94317 0.43849 0.0
H261 H 0.29826 0.91567 0.52136 0.0
H262 H 0.21653 0.94647 0.33558 0.0
H263 H 0.29199 0.94342 0.16834 0.0
H264 H 0.23378 0.01495 0.1417 0.0
H265 H 0.28405 0.95459 0.98687 0.0
H266 H 0.29622 0.03019 0.15179 0.0
H267 H 0.34033 0.04115 0.06642 0.0
H268 H 0.16802 0.95713 0.24238 0.0
H269 H 0.21229 0.03444 0.32034 0.0
H270 H 0.32827 0.96469 0.90369 0.0
H271 H 0.12732 0.97049 0.33735 0.0
H272 H 0.17083 0.04887 0.41319 0.0
C273 C 0.50346 0.32703 0.03395 0.0
C274 C 0.52246 0.33759 0.96572 0.0
C275 C 0.50926 0.30133 0.0822 0.0
C276 C 0.53421 0.2854 0.06364 0.0
C277 C 0.55207 0.29486 0.99125 0.0
C278 C 0.54634 0.32044 0.94321 0.0
C279 C 0.5453 0.26354 0.13112 0.0
C280 C 0.52933 0.2395 0.16378 0.0
C281 C 0.54099 0.22126 0.233 0.0
C282 C 0.56779 0.22796 0.27105 0.0
C283 C 0.58313 0.25213 0.24195 0.0
C284 C 0.57223 0.26909 0.17039 0.0
C285 C 0.60673 0.26376 0.29863 0.0
C286 C 0.60142 0.26922 0.39184 0.0
C287 C 0.63129 0.27558 0.25727 0.0
C288 C 0.64788 0.2957 0.30468 0.0
C289 C 0.63943 0.30512 0.39277 0.0
C290 C 0.52536 0.19655 0.2755 0.0
C291 C 0.51165 0.20039 0.36068 0.0
C292 C 0.53092 0.16836 0.24618 0.0
C293 C 0.52381 0.14464 0.30221 0.0
C294 C 0.5114 0.14845 0.39013 0.0
C295 C 0.50477 0.1768 0.41702 0.0
C296 C 0.61748 0.28977 0.43837 0.0
H297 H 0.48448 0.33909 0.05243 0.0
H298 H 0.49522 0.29499 0.13813 0.0
H299 H 0.57163 0.2833 0.97553 0.0
H300 H 0.56171 0.32756 0.89211 0.0
H301 H 0.50814 0.23525 0.13657 0.0
H302 H 0.5837 0.28843 0.15065 0.0
H303 H 0.57608 0.2151 0.32744 0.0
H304 H 0.58267 0.26032 0.42568 0.0
H305 H 0.63617 0.27117 0.18581 0.0
H306 H 0.66555 0.3058 0.26868 0.0
H307 H 0.50806 0.22187 0.38669 0.0
H308 H 0.54226 0.16472 0.18217 0.0
H309 H 0.61009 0.29576 0.50617 0.0
H310 H 0.49581 0.18112 0.48426 0.0
H311 H 0.52892 0.12335 0.2775 0.0
La312 La 0.03239 1.00683 0.83117 0.0
La313 La 0.99287 0.01991 0.692 0.0
C314 C 0.06056 0.98772 0.96619 0.0
C315 C 0.0827 0.96603 0.98286 0.0
C316 C 0.10069 0.9563 0.91198 0.0
C317 C 0.12071 0.93456 0.92916 0.0
C318 C 0.12277 0.922 0.01722 0.0
C319 C 0.10522 0.93276 0.08834 0.0
C320 C 0.08551 0.95458 0.07126 0.0
C321 C 0.05869 0.02324 0.67538 0.0
C322 C 0.01342 0.9564 0.69571 0.0
C323 C 0.96448 0.03901 0.55746 0.0
C324 C 0.94234 0.06075 0.54153 0.0
C325 C 0.92478 0.07069 0.61318 0.0
C326 C 0.90484 0.09258 0.59677 0.0
C327 C 0.90245 0.10506 0.5087 0.0
C328 C 0.91954 0.09406 0.4368 0.0
C329 C 0.93916 0.0721 0.45312 0.0
C330 C 0.96671 1.00348 0.84818 0.0
C331 C 1.01194 0.07039 0.82706 0.0
O332 O 0.06834 1.00979 0.91667 0.0
O333 O 0.03523 0.97814 0.94288 0.0
O334 O 0.06634 0.03005 0.75763 0.0
O335 O 0.03699 1.00716 0.68236 0.0
O336 O 0.02292 0.96282 0.77912 0.0
O337 O 1.00461 0.97737 0.64149 0.0
O338 O 0.95677 0.01695 0.60713 0.0
O339 O 0.98987 0.04855 0.58021 0.0
O340 O 0.9591 0.99652 0.76602 0.0
O341 O 0.98828 0.01968 0.84076 0.0
O342 O 1.0024 0.06393 0.74374 0.0
O343 O 0.02075 0.04944 0.88137 0.0
H344 H 0.09887 0.96512 0.84316 0.0
H345 H 0.134 0.92711 0.87296 0.0
H346 H 0.10546 0.92337 0.15655 0.0
H347 H 0.07182 0.96194 0.12671 0.0
H348 H 0.92689 0.06196 0.68202 0.0
H349 H 0.89191 0.10019 0.65357 0.0
H350 H 0.91904 0.10337 0.3685 0.0
H351 H 0.95252 0.06458 0.39708 0.0
La352 La 0.51854 0.0336 0.8294 0.0
La353 La 0.50664 0.99334 0.69196 0.0
C354 C 0.53686 0.06296 0.96251 0.0
C355 C 0.55893 0.08477 0.97828 0.0
C356 C 0.5695 0.102 0.90636 0.0
C357 C 0.59173 0.12152 0.92266 0.0
C358 C 0.60397 0.12381 1.01087 0.0
C359 C 0.59238 0.10707 0.08299 0.0
C360 C 0.57005 0.08789 0.06679 0.0
C361 C 0.50215 0.05867 0.67187 0.0
C362 C 0.56977 0.01463 0.69625 0.0
C363 C 0.48817 0.96429 0.5584 0.0
C364 C 0.46615 0.94242 0.54277 0.0
C365 C 0.45569 0.92517 0.61477 0.0
C366 C 0.43348 0.90561 0.59868 0.0
C367 C 0.42116 0.9033 0.51059 0.0
C368 C 0.43266 0.92006 0.43836 0.0
C369 C 0.45495 0.9393 0.45436 0.0
C370 C 0.52297 0.968 0.84922 0.0
C371 C 0.45548 1.01225 0.82562 0.0
O372 O 0.51552 0.07064 0.91004 0.0
O373 O 0.54604 0.03714 0.94335 0.0
O374 O 0.49429 0.06628 0.75327 0.0
O375 O 0.5189 0.03759 0.68066 0.0
O376 O 0.56284 0.02455 0.7788 0.0
O377 O 0.54922 1.0052 0.64198 0.0
O378 O 0.50968 0.95657 0.61008 0.0
O379 O 0.47892 0.99002 0.57853 0.0
O380 O 0.53045 0.96031 0.7675 0.0
O381 O 0.5064 0.98926 0.84084 0.0
O382 O 0.46236 1.0024 0.74293 0.0
O383 O 0.47606 0.02162 0.87984 0.0
H384 H 0.56098 0.09992 0.8374 0.0
H385 H 0.5998 0.1342 0.86568 0.0
H386 H 0.60147 0.1075 0.15141 0.0
H387 H 0.56206 0.07478 0.12303 0.0
H388 H 0.46428 0.92726 0.68364 0.0
H389 H 0.42549 0.89291 0.65573 0.0
H390 H 0.4235 0.91961 0.37001 0.0
H391 H 0.46285 0.95244 0.39806 0.0
La392 La 0.49337 0.51782 0.81969 0.0
La393 La 0.53308 0.50583 0.67972 0.0
C394 C 0.46513 0.53628 0.95538 0.0
C395 C 0.44341 0.55833 0.97291 0.0
C396 C 0.42573 0.56886 0.90242 0.0
C397 C 0.40624 0.59102 0.92033 0.0
C398 C 0.40444 0.60318 1.00873 0.0
C399 C 0.42166 0.59163 0.07946 0.0
C400 C 0.44082 0.5694 0.06166 0.0
C401 C 0.46733 0.50201 0.6637 0.0
C402 C 0.51227 0.56909 0.68602 0.0
C403 C 0.56175 0.48735 0.54492 0.0
C404 C 0.58301 0.46482 0.52758 0.0
C405 C 0.6009 0.45437 0.59769 0.0
C406 C 0.61995 0.43182 0.58 0.0
C407 C 0.62111 0.41916 0.49222 0.0
C408 C 0.60363 0.43053 0.42188 0.0
C409 C 0.58491 0.45316 0.43942 0.0
C410 C 0.55868 0.52197 0.83618 0.0
C411 C 0.51411 0.45456 0.81354 0.0
O412 O 0.45707 0.51481 0.90424 0.0
O413 O 0.49073 0.54554 0.93329 0.0
O414 O 0.45971 0.49464 0.74577 0.0
O415 O 0.48886 0.51827 0.67094 0.0
O416 O 0.50266 0.56209 0.76906 0.0
O417 O 0.5213 0.54858 0.63082 0.0
O418 O 0.56998 0.50837 0.5977 0.0
O419 O 0.53578 0.47868 0.56472 0.0
O420 O 0.56606 0.52992 0.75444 0.0
O421 O 0.53759 0.50522 0.82819 0.0
O422 O 0.52384 0.46151 0.73058 0.0
O423 O 0.50506 0.4751 0.8685 0.0
H424 H 0.42739 0.56037 0.83332 0.0
H425 H 0.39318 0.59906 0.86441 0.0
H426 H 0.42159 0.60068 0.14792 0.0
H427 H 0.4543 0.56143 0.11681 0.0
H428 H 0.59975 0.46326 0.66638 0.0
H429 H 0.63321 0.4239 0.6356 0.0
H430 H 0.60318 0.42108 0.35399 0.0
H431 H 0.57125 0.46101 0.38457 0.0
La432 La 1.00614 0.49412 0.82882 0.0
La433 La 0.0196 0.53375 0.68897 0.0
C434 C 0.9867 0.46667 0.96531 0.0
C435 C 0.96426 0.44547 0.98528 0.0
C436 C 0.95436 0.42631 0.91809 0.0
C437 C 0.93228 0.40693 0.93893 0.0
C438 C 0.91961 0.40665 0.02699 0.0
C439 C 0.93033 0.42556 0.09426 0.0
C440 C 0.95246 0.44462 0.07361 0.0
C441 C 0.02235 0.46775 0.67375 0.0
C442 C 0.95593 0.51386 0.69266 0.0
C443 C 0.03898 0.56183 0.55366 0.0
C444 C 0.06118 0.58344 0.53624 0.0
C445 C 0.07142 0.6013 0.6065 0.0
C446 C 0.09346 0.62094 0.58841 0.0
C447 C 0.1058 0.62276 0.50004 0.0
C448 C 0.09461 0.60529 0.42961 0.0
C449 C 0.07249 0.58596 0.44759 0.0
C450 C 1.00349 0.55997 0.84482 0.0
C451 C 0.06993 0.51394 0.82361 0.0
O452 O 1.008 0.45791 0.91431 0.0
O453 O 0.97804 0.4924 0.94212 0.0
O454 O 0.02909 0.46001 0.75623 0.0
O455 O 1.00648 0.48964 0.68006 0.0
O456 O 0.96228 0.50308 0.77474 0.0
O457 O 0.97675 0.52345 0.63938 0.0
O458 O 0.01738 0.57008 0.60413 0.0
O459 O 0.04792 0.53615 0.57631 0.0
O460 O 0.99672 0.56779 0.76252 0.0
O461 O 0.01943 0.53819 0.83771 0.0
O462 O 0.06345 0.52391 0.74068 0.0
O463 O 0.04907 0.50497 0.878 0.0
H464 H 0.96338 0.42661 0.84935 0.0
H465 H 0.92482 0.39261 0.8856 0.0
H466 H 0.92081 0.42672 0.16211 0.0
H467 H 0.95991 0.45925 0.12626 0.0
H468 H 0.06272 0.5997 0.67551 0.0
H469 H 0.10126 0.63417 0.64411 0.0
H470 H 0.10382 0.60535 0.36122 0.0
H471 H 0.06475 0.57237 0.3926 0.0
C472 C 0.1285 0.03026 0.53942 0.0
C473 C 0.12213 0.01655 0.45552 0.0
H474 H 0.11377 0.04336 0.67269 0.0
C475 C 0.09366 1.00679 0.44279 0.0
H476 H 0.15001 0.03772 0.55378 0.0
C477 C 0.07282 1.0096 0.51262 0.0
C478 C 0.07965 0.02252 0.59709 0.0
H479 H 0.08742 0.99662 0.37908 0.0
H480 H 0.05148 1.00118 0.50104 0.0
C481 C 0.10762 0.03331 0.6086 0.0
C482 C 0.48518 0.12397 0.52297 0.0
C483 C 0.50719 0.12355 0.45613 0.0
H484 H 0.46641 0.10408 0.6423 0.0
C485 C 0.52617 0.09988 0.45713 0.0
H486 H 0.4696 0.14118 0.52409 0.0
C487 C 0.52381 0.07809 0.52426 0.0
C488 C 0.50264 0.07946 0.5932 0.0
H489 H 0.54368 0.09862 0.40835 0.0
H490 H 0.53934 0.0608 0.52437 0.0
C491 C 0.48312 0.10244 0.59067 0.0
C492 C 0.39756 0.49523 0.52854 0.0
C493 C 0.4039 0.50924 0.44473 0.0
H494 H 0.41233 0.48171 0.66144 0.0
C495 C 0.43234 0.51912 0.43173 0.0
H496 H 0.37608 0.48766 0.5431 0.0
C497 C 0.45318 0.51614 0.50128 0.0
C498 C 0.44638 0.50291 0.58567 0.0
H499 H 0.43857 0.5295 0.36805 0.0
H500 H 0.47451 0.52466 0.48955 0.0
C501 C 0.41845 0.492 0.59739 0.0
C502 C 1.00577 0.43245 0.44198 0.0
C503 C 0.01563 0.404 0.45542 0.0
H504 H 1.0001 0.47473 0.4991 0.0
C505 C 0.02939 0.39777 0.53953 0.0
H506 H 0.99556 0.43861 0.37811 0.0
C507 C 0.03242 0.41874 0.60812 0.0
C508 C 0.02157 0.4467 0.5959 0.0
H509 H 0.03693 0.37629 0.55448 0.0
H510 H 0.04253 0.41268 0.67234 0.0
C511 C 1.00858 0.4534 0.51126 0.0
C512 C 0.89686 0.99665 0.98404 0.0
C513 C 0.90319 1.01056 0.06764 0.0
H514 H 0.91166 0.98326 0.85114 0.0
C515 C 0.93163 0.02038 0.08024 0.0
H516 H 0.87537 0.98912 0.96979 0.0
C517 C 0.9525 0.01743 1.01056 0.0
C518 C 0.94572 1.00431 0.92637 0.0
H519 H 0.93785 0.0307 0.14373 0.0
H520 H 0.97383 0.02591 0.02202 0.0
C521 C 0.91777 0.99346 0.91502 0.0
C522 C 0.53023 0.89837 0.98612 0.0
C523 C 0.51551 0.90443 0.06866 0.0
H524 H 0.54438 0.91343 0.85405 0.0
C525 C 0.5051 0.93271 0.08055 0.0
H526 H 0.53825 0.87701 0.97248 0.0
C527 C 0.50821 0.95364 1.01096 0.0
C528 C 0.52208 0.94709 0.92768 0.0
H529 H 0.49415 0.93871 0.14331 0.0
H530 H 0.49923 0.97482 0.02169 0.0
C531 C 0.53357 0.91935 0.91722 0.0
C532 C 0.6006 0.49773 0.04863 0.0
C533 C 0.62407 0.51698 0.04925 0.0
H534 H 0.56153 0.48434 0.98267 0.0
C535 C 0.62418 0.53913 0.98268 0.0
H536 H 0.59957 0.48008 0.09711 0.0
C537 C 0.60252 0.54113 0.9158 0.0
C538 C 0.57969 0.52141 0.91386 0.0
H539 H 0.6412 0.55492 0.98123 0.0
H540 H 0.60389 0.55799 0.86443 0.0
C541 C 0.57868 0.50004 0.98239 0.0
C542 C 0.99657 0.62977 0.98011 0.0
C543 C 1.0103 0.62339 0.06416 0.0
H544 H 0.98343 0.61507 0.84704 0.0
C545 C 0.02013 0.59491 0.07714 0.0
H546 H 0.98905 0.65128 0.96548 0.0
C547 C 0.01733 0.57408 1.0075 0.0
C548 C 1.00435 0.58091 0.92295 0.0
H549 H 0.03032 0.58863 0.14093 0.0
H550 H 0.02578 0.55272 0.01932 0.0
C551 C 0.99353 0.60891 0.91117 0.0
C552 C 0.87056 0.16704 0.37974 0.0
C553 C 0.8757 0.18948 0.44247 0.0
H554 H 0.87332 0.12209 0.35344 0.0
C555 C 0.87992 0.18209 0.53554 0.0
H556 H 0.8663 0.1712 0.30785 0.0
C557 C 0.88565 0.15367 0.56047 0.0
C558 C 0.88584 0.13198 0.4934 0.0
H559 H 0.88202 0.19849 0.58764 0.0
H560 H 0.89285 0.14948 0.62996 0.0
C561 C 0.87516 0.13855 0.40552 0.0
C562 C 0.35898 0.87194 0.38231 0.0
C563 C 0.33651 0.87734 0.44499 0.0
H564 H 0.40396 0.87424 0.35584 0.0
C565 C 0.34379 0.88182 0.53787 0.0
H566 H 0.35488 0.86755 0.31056 0.0
C567 C 0.37221 0.88735 0.56257 0.0
C568 C 0.394 0.88713 0.49551 0.0
H569 H 0.32734 0.88418 0.58992 0.0
H570 H 0.37636 0.89467 0.63184 0.0
C571 C 0.38745 0.87636 0.40788 0.0
C572 C 0.64342 0.34186 0.51926 0.0
C573 C 0.64742 0.3344 0.42628 0.0
H574 H 0.63086 0.37454 0.61342 0.0
C575 C 0.65183 0.35679 0.36226 0.0
H576 H 0.64169 0.32549 0.572 0.0
C577 C 0.64712 0.38528 0.38729 0.0
C578 C 0.63709 0.39194 0.47588 0.0
H579 H 0.65572 0.35253 0.29025 0.0
H580 H 0.64855 0.4017 0.33451 0.0
C581 C 0.63766 0.37029 0.54357 0.0
C582 C 0.16727 0.65447 0.36773 0.0
C583 C 0.18989 0.64982 0.4303 0.0
H584 H 0.12231 0.65118 0.34252 0.0
C585 C 0.18279 0.64579 0.52372 0.0
H586 H 0.17121 0.65851 0.29554 0.0
C587 C 0.1545 0.63989 0.54955 0.0
C588 C 0.13265 0.63932 0.48299 0.0
H589 H 0.19933 0.64401 0.57556 0.0
H590 H 0.15053 0.63291 0.61952 0.0
C591 C 0.13891 0.64969 0.39433 0.0
C592 C 0.15481 0.86031 0.14728 0.0
C593 C 0.15024 0.83785 0.08418 0.0
H594 H 0.15136 0.90521 0.17374 0.0
C595 C 0.14631 0.84524 0.99097 0.0
H596 H 0.15881 0.85615 0.21932 0.0
C597 C 0.14034 0.87361 0.96596 0.0
C598 C 0.1396 0.89525 0.03315 0.0
H599 H 0.14464 0.82885 0.9387 0.0
H600 H 0.13339 0.87776 0.89618 0.0
C601 C 0.14997 0.88875 0.12148 0.0
C602 C 0.68137 0.14532 0.98439 0.0
C603 C 0.68857 0.14981 0.07733 0.0
H604 H 0.64891 0.13244 0.8901 0.0
C605 C 0.66604 0.15518 0.1398 0.0
H606 H 0.69787 0.14299 0.93247 0.0
C607 C 0.63759 0.15074 0.11395 0.0
C608 C 0.63113 0.13997 0.02625 0.0
H609 H 0.67006 0.15959 0.21158 0.0
H610 H 0.62102 0.15286 0.16581 0.0
C611 C 0.65299 0.13976 0.95941 0.0
C612 C 0.38205 0.68048 0.98425 0.0
C613 C 0.37776 0.68751 0.07744 0.0
H614 H 0.39494 0.64825 0.88902 0.0
C615 C 0.37304 0.66483 0.14018 0.0
H616 H 0.38397 0.69708 0.93233 0.0
C617 C 0.37779 0.63646 0.11396 0.0
C618 C 0.38819 0.63021 0.0255 0.0
H619 H 0.36889 0.66874 0.21224 0.0
H620 H 0.37615 0.61981 0.16589 0.0
C621 C 0.38787 0.65217 0.9588 0.0
C622 C 0.85865 0.3754 0.16353 0.0
C623 C 0.83604 0.37799 0.09969 0.0
H624 H 0.90337 0.38085 0.18923 0.0
C625 C 0.84328 0.38086 1.00592 0.0
H626 H 0.85465 0.37239 0.23619 0.0
C627 C 0.87142 0.38742 0.9798 0.0
C628 C 0.89305 0.38987 0.04662 0.0
H629 H 0.82687 0.38108 0.95341 0.0
H630 H 0.87536 0.39332 0.90883 0.0
C631 C 0.88688 0.38087 0.13685 0.0
C632 C 0.9991 0.15174 0.8472 0.0
C633 C 1.00723 0.15749 0.93904 0.0
H634 H 0.99412 0.12035 0.73988 0.0
C635 C 0.01751 0.13422 0.99178 0.0
H636 H 0.9914 0.16888 0.80328 0.0
C637 C 0.01927 0.10638 0.95491 0.0
C638 C 1.01074 0.10058 0.86382 0.0
H639 H 0.0235 0.1372 0.063 0.0
H640 H 0.02699 0.08925 0.99889 0.0
C641 C 1.0008 0.12378 0.8103 0.0
C642 C 0.39112 0.01811 0.98865 0.0
C643 C 0.36814 1.00733 0.93611 0.0
H644 H 0.43592 0.02804 0.99602 0.0
C645 C 0.37427 0.99872 0.84493 0.0
H646 H 0.38783 0.02447 0.05942 0.0
C647 C 0.40232 1.00046 0.80845 0.0
C648 C 0.42521 1.01092 0.8618 0.0
H649 H 0.35736 0.9906 0.80122 0.0
H650 H 0.40607 0.99342 0.73853 0.0
C651 C 0.41902 0.01991 0.95221 0.0
C652 C 0.50791 0.39005 0.97609 0.0
C653 C 0.51878 0.36713 0.92344 0.0
H654 H 0.49799 0.43485 0.98366 0.0
C655 C 0.52753 0.37331 0.83226 0.0
H656 H 0.50145 0.38669 0.04686 0.0
C657 C 0.52584 0.4014 0.79587 0.0
C658 C 0.51531 0.42424 0.84937 0.0
H659 H 0.53573 0.35642 0.78858 0.0
H660 H 0.53299 0.40522 0.72596 0.0
C661 C 0.50618 0.41799 0.93977 0.0
C662 C 0.15128 0.52614 0.8411 0.0
C663 C 0.15723 0.51824 0.93315 0.0
H664 H 0.11965 0.53107 0.73445 0.0
C665 C 0.13408 0.50823 0.98702 0.0
H666 H 0.16833 0.5336 0.79637 0.0
C667 C 0.10615 0.50656 0.95097 0.0
C668 C 0.10016 0.51492 0.85969 0.0
H669 H 0.13725 0.50243 0.05843 0.0
H670 H 0.08909 0.49908 0.99569 0.0
C671 C 0.12324 0.52455 0.80508 0.0
C672 C 0.02602 0.87501 0.67549 0.0
C673 C 0.01815 0.86933 0.58336 0.0
H674 H 0.0308 0.90633 0.78314 0.0
C675 C 1.00813 0.89269 0.53042 0.0
H676 H 0.03351 0.85781 0.71957 0.0
C677 C 1.00637 0.92051 0.5674 0.0
C678 C 0.01464 0.92623 0.65879 0.0
H679 H 1.00235 0.88977 0.459 0.0
H680 H 0.99885 0.9377 0.52328 0.0
C681 C 0.02434 0.90296 0.71248 0.0
C682 C 0.6342 1.00895 0.53343 0.0
C683 C 0.65713 0.01976 0.58609 0.0
H684 H 0.58942 0.99893 0.52586 0.0
C685 C 0.65095 0.02832 0.6773 0.0
H686 H 0.63752 1.00263 0.46264 0.0
C687 C 0.6229 0.0265 0.71366 0.0
C688 C 0.60004 0.01601 0.66018 0.0
H689 H 0.66783 0.03645 0.72109 0.0
H690 H 0.61911 0.03351 0.78359 0.0
C691 C 0.60628 1.00708 0.56976 0.0
C692 C 0.51764 0.63402 0.52468 0.0
C693 C 0.50734 0.65684 0.57893 0.0
H694 H 0.52721 0.58915 0.51497 0.0
C695 C 0.49929 0.65043 0.67058 0.0
H696 H 0.52356 0.63756 0.45352 0.0
C697 C 0.50106 0.62223 0.70589 0.0
C698 C 0.511 0.59948 0.65087 0.0
H699 H 0.49156 0.66723 0.7155 0.0
H700 H 0.49444 0.61825 0.77624 0.0
C701 C 0.51948 0.60594 0.55998 0.0
C702 C 0.89109 0.53064 0.54156 0.0
C703 C 0.8701 0.51098 0.57238 0.0
H704 H 0.93394 0.54681 0.5543 0.0
C705 C 0.87741 0.49317 0.64791 0.0
H706 H 0.88654 0.5454 0.48583 0.0
C707 C 0.90478 0.49456 0.6892 0.0
C708 C 0.92589 0.51349 0.65547 0.0
H709 H 0.86234 0.47741 0.67376 0.0
H710 H 0.90969 0.48013 0.7456 0.0
C711 C 0.91846 0.53166 0.58165 0.0
loop_
_geom_bond_atom_site_label_1
_geom_bond_atom_site_label_2
_geom_bond_distance
_geom_bond_site_symmetry_2
_ccdc_geom_bond_type
C0 C1 1.386 . S
C0 C2 1.397 . S
C0 H24 0.931 . S
C1 C0 1.386 . S
C1 C5 1.397 . S
C2 C0 1.397 . S
C2 C3 1.384 . S
C2 H25 0.930 . S
C3 C2 1.384 . S
C3 C4 1.377 . S
C3 C6 1.481 . S
C4 C3 1.377 . S
C4 C5 1.389 . S
C4 H26 0.929 . S
C5 C1 1.397 . S
C5 C4 1.389 . S
C5 H27 0.931 . S
C6 C3 1.481 . S
C6 C7 1.387 . S
C6 C11 1.390 . S
C7 C6 1.387 . S
C7 C8 1.401 . S
C7 H28 0.930 . S
C8 C7 1.401 . S
C8 C9 1.376 . S
C8 C17 1.511 . S
C9 C8 1.376 . S
C9 C10 1.392 . S
C9 H30 0.931 . S
C10 C9 1.392 . S
C10 C11 1.361 . S
C10 C12 1.500 . S
C11 C6 1.390 . S
C11 C10 1.361 . S
C11 H29 0.931 . S
C12 C10 1.500 . S
C12 C13 1.371 . S
C12 C14 1.365 . S
C13 C12 1.371 . S
C13 C23 1.386 . S
C13 H31 0.931 . S
C14 C12 1.365 . S
C14 C15 1.409 . S
C14 H32 0.929 . S
C15 C14 1.409 . S
C15 C16 1.380 . S
C15 H33 0.930 . S
C16 C15 1.380 . S
C16 C23 1.357 . S
C17 C8 1.511 . S
C17 C18 1.341 . S
C17 C19 1.371 . S
C18 C17 1.341 . S
C18 C22 1.394 . S
C18 H34 0.930 . S
C19 C17 1.371 . S
C19 C20 1.392 . S
C19 H35 0.931 . S
C20 C19 1.392 . S
C20 C21 1.331 . S
C20 H38 0.932 . S
C21 C20 1.331 . S
C21 C22 1.336 . S
C22 C18 1.394 . S
C22 C21 1.336 . S
C22 H37 0.929 . S
C23 C13 1.386 . S
C23 C16 1.357 . S
C23 H36 0.928 . S
H24 C0 0.931 . S
H25 C2 0.930 . S
H26 C4 0.929 . S
H27 C5 0.931 . S
H28 C7 0.930 . S
H29 C11 0.931 . S
H30 C9 0.931 . S
H31 C13 0.931 . S
H32 C14 0.929 . S
H33 C15 0.930 . S
H34 C18 0.930 . S
H35 C19 0.931 . S
H36 C23 0.928 . S
H37 C22 0.929 . S
H38 C20 0.932 . S
C39 C40 1.394 . S
C39 C41 1.397 . S
C39 H63 0.931 . S
C40 C39 1.394 . S
C40 C44 1.389 1_655 S
C41 C39 1.397 . S
C41 C42 1.389 . S
C41 H64 0.930 . S
C42 C41 1.389 . S
C42 C43 1.372 1_655 S
C42 C45 1.480 . S
C43 C42 1.372 1_455 S
C43 C44 1.389 . S
C43 H65 0.929 . S
C44 C40 1.389 1_455 S
C44 C43 1.389 . S
C44 H66 0.931 . S
C45 C42 1.480 . S
C45 C46 1.388 . S
C45 C50 1.390 . S
C46 C45 1.388 . S
C46 C47 1.402 . S
C46 H67 0.930 . S
C47 C46 1.402 . S
C47 C48 1.377 . S
C47 C56 1.513 . S
C48 C47 1.377 . S
C48 C49 1.392 . S
C48 H69 0.931 . S
C49 C48 1.392 . S
C49 C50 1.361 . S
C49 C51 1.499 1_655 S
C50 C45 1.390 . S
C50 C49 1.361 . S
C50 H68 0.931 . S
C51 C49 1.499 1_455 S
C51 C52 1.361 1_455 S
C51 C53 1.376 . S
C52 C51 1.361 1_655 S
C52 C62 1.386 . S
C52 H70 0.931 . S
C53 C51 1.376 . S
C53 C54 1.409 . S
C53 H71 0.929 . S
C54 C53 1.409 . S
C54 C55 1.380 . S
C54 H72 0.930 . S
C55 C54 1.380 . S
C55 C62 1.357 1_455 S
C56 C47 1.513 . S
C56 C57 1.341 . S
C56 C58 1.371 1_655 S
C57 C56 1.341 . S
C57 C61 1.394 . S
C57 H73 0.930 . S
C58 C56 1.371 1_455 S
C58 C59 1.392 . S
C58 H74 0.931 . S
C59 C58 1.392 . S
C59 C60 1.322 1_455 S
C59 H77 0.932 . S
C60 C59 1.322 1_655 S
C60 C61 1.345 . S
C61 C57 1.394 . S
C61 C60 1.345 . S
C61 H76 0.929 . S
C62 C52 1.386 . S
C62 C55 1.357 1_655 S
C62 H75 0.928 . S
H63 C39 0.931 . S
H64 C41 0.930 . S
H65 C43 0.929 . S
H66 C44 0.931 . S
H67 C46 0.930 . S
H68 C50 0.931 . S
H69 C48 0.931 . S
H70 C52 0.931 . S
H71 C53 0.929 . S
H72 C54 0.930 . S
H73 C57 0.930 . S
H74 C58 0.931 . S
H75 C62 0.928 . S
H76 C61 0.929 . S
H77 C59 0.932 . S
C78 C79 1.394 . S
C78 C80 1.397 . S
C78 H102 0.931 . S
C79 C78 1.394 . S
C79 C83 1.388 1_565 S
C80 C78 1.397 . S
C80 C81 1.389 . S
C80 H103 0.930 . S
C81 C80 1.389 . S
C81 C82 1.372 1_565 S
C81 C84 1.481 . S
C82 C81 1.372 1_545 S
C82 C83 1.389 . S
C82 H104 0.929 . S
C83 C79 1.388 1_545 S
C83 C82 1.389 . S
C83 H105 0.931 . S
C84 C81 1.481 . S
C84 C85 1.389 . S
C84 C89 1.390 . S
C85 C84 1.389 . S
C85 C86 1.402 . S
C85 H106 0.930 . S
C86 C85 1.402 . S
C86 C87 1.377 . S
C86 C95 1.513 . S
C87 C86 1.377 . S
C87 C88 1.392 . S
C87 H108 0.931 . S
C88 C87 1.392 . S
C88 C89 1.361 . S
C88 C90 1.499 1_565 S
C89 C84 1.390 . S
C89 C88 1.361 . S
C89 H107 0.931 . S
C90 C88 1.499 1_545 S
C90 C91 1.361 1_545 S
C90 C92 1.376 . S
C91 C90 1.361 1_565 S
C91 C101 1.386 . S
C91 H109 0.931 . S
C92 C90 1.376 . S
C92 C93 1.409 . S
C92 H110 0.929 . S
C93 C92 1.409 . S
C93 C94 1.380 . S
C93 H111 0.930 . S
C94 C93 1.380 . S
C94 C101 1.357 1_545 S
C95 C86 1.513 . S
C95 C96 1.341 . S
C95 C97 1.371 1_565 S
C96 C95 1.341 . S
C96 C100 1.394 . S
C96 H112 0.930 . S
C97 C95 1.371 1_545 S
C97 C98 1.392 . S
C97 H113 0.931 . S
C98 C97 1.392 . S
C98 C99 1.322 1_545 S
C98 H116 0.932 . S
C99 C98 1.322 1_565 S
C99 C100 1.345 . S
C100 C96 1.394 . S
C100 C99 1.345 . S
C100 H115 0.929 . S
C101 C91 1.386 . S
C101 C94 1.357 1_565 S
C101 H114 0.928 . S
H102 C78 0.931 . S
H103 C80 0.930 . S
H104 C82 0.929 . S
H105 C83 0.931 . S
H106 C85 0.930 . S
H107 C89 0.931 . S
H108 C87 0.931 . S
H109 C91 0.931 . S
H110 C92 0.929 . S
H111 C93 0.930 . S
H112 C96 0.930 . S
H113 C97 0.931 . S
H114 C101 0.928 . S
H115 C100 0.929 . S
H116 C98 0.932 . S
C117 C118 1.386 . S
C117 C119 1.397 . S
C117 H141 0.931 . S
C118 C117 1.386 . S
C118 C122 1.397 . S
C119 C117 1.397 . S
C119 C120 1.384 . S
C119 H142 0.930 . S
C120 C119 1.384 . S
C120 C121 1.377 . S
C120 C123 1.481 . S
C121 C120 1.377 . S
C121 C122 1.389 . S
C121 H143 0.929 . S
C122 C118 1.397 . S
C122 C121 1.389 . S
C122 H144 0.931 . S
C123 C120 1.481 . S
C123 C124 1.387 . S
C123 C128 1.390 . S
C124 C123 1.387 . S
C124 C125 1.401 . S
C124 H145 0.930 . S
C125 C124 1.401 . S
C125 C126 1.376 . S
C125 C134 1.511 . S
C126 C125 1.376 . S
C126 C127 1.392 . S
C126 H147 0.931 . S
C127 C126 1.392 . S
C127 C128 1.361 . S
C127 C129 1.500 . S
C128 C123 1.390 . S
C128 C127 1.361 . S
C128 H146 0.931 . S
C129 C127 1.500 . S
C129 C130 1.371 . S
C129 C131 1.365 . S
C130 C129 1.371 . S
C130 C140 1.386 . S
C130 H148 0.931 . S
C131 C129 1.365 . S
C131 C132 1.409 . S
C131 H149 0.929 . S
C132 C131 1.409 . S
C132 C133 1.380 . S
C132 H150 0.930 . S
C133 C132 1.380 . S
C133 C140 1.357 . S
C134 C125 1.511 . S
C134 C135 1.341 . S
C134 C136 1.371 . S
C135 C134 1.341 . S
C135 C139 1.394 . S
C135 H151 0.930 . S
C136 C134 1.371 . S
C136 C137 1.392 . S
C136 H152 0.931 . S
C137 C136 1.392 . S
C137 C138 1.331 . S
C137 H155 0.932 . S
C138 C137 1.331 . S
C138 C139 1.336 . S
C139 C135 1.394 . S
C139 C138 1.336 . S
C139 H154 0.929 . S
C140 C130 1.386 . S
C140 C133 1.357 . S
C140 H153 0.928 . S
H141 C117 0.931 . S
H142 C119 0.930 . S
H143 C121 0.929 . S
H144 C122 0.931 . S
H145 C124 0.930 . S
H146 C128 0.931 . S
H147 C126 0.931 . S
H148 C130 0.931 . S
H149 C131 0.929 . S
H150 C132 0.930 . S
H151 C135 0.930 . S
H152 C136 0.931 . S
H153 C140 0.928 . S
H154 C139 0.929 . S
H155 C137 0.932 . S
C156 C157 1.386 . S
C156 C158 1.397 . S
C156 H180 0.931 . S
C157 C156 1.386 . S
C157 C161 1.397 . S
C158 C156 1.397 . S
C158 C159 1.384 . S
C158 H181 0.930 . S
C159 C158 1.384 . S
C159 C160 1.377 . S
C159 C162 1.481 . S
C160 C159 1.377 . S
C160 C161 1.389 . S
C160 H182 0.929 . S
C161 C157 1.397 . S
C161 C160 1.389 . S
C161 H183 0.931 . S
C162 C159 1.481 . S
C162 C163 1.387 . S
C162 C167 1.390 . S
C163 C162 1.387 . S
C163 C164 1.401 . S
C163 H184 0.930 . S
C164 C163 1.401 . S
C164 C165 1.376 1_554 S
C164 C173 1.511 . S
C165 C164 1.376 1_556 S
C165 C166 1.392 . S
C165 H186 0.931 . S
C166 C165 1.392 . S
C166 C167 1.361 1_556 S
C166 C168 1.500 . S
C167 C162 1.390 . S
C167 C166 1.361 1_554 S
C167 H185 0.931 . S
C168 C166 1.500 . S
C168 C169 1.371 . S
C168 C170 1.365 . S
C169 C168 1.371 . S
C169 C179 1.386 . S
C169 H187 0.931 . S
C170 C168 1.365 . S
C170 C171 1.409 . S
C170 H188 0.929 . S
C171 C170 1.409 . S
C171 C172 1.380 . S
C171 H189 0.930 . S
C172 C171 1.380 . S
C172 C179 1.357 . S
C173 C164 1.511 . S
C173 C174 1.341 . S
C173 C175 1.371 . S
C174 C173 1.341 . S
C174 C178 1.394 . S
C174 H190 0.930 . S
C175 C173 1.371 . S
C175 C176 1.392 . S
C175 H191 0.931 1_554 S
C176 C175 1.392 . S
C176 C177 1.331 . S
C176 H194 0.932 . S
C177 C176 1.331 . S
C177 C178 1.336 . S
C178 C174 1.394 . S
C178 C177 1.336 . S
C178 H193 0.929 . S
C179 C169 1.386 . S
C179 C172 1.357 . S
C179 H192 0.928 . S
H180 C156 0.931 . S
H181 C158 0.930 . S
H182 C160 0.929 . S
H183 C161 0.931 . S
H184 C163 0.930 . S
H185 C167 0.931 . S
H186 C165 0.931 . S
H187 C169 0.931 . S
H188 C170 0.929 . S
H189 C171 0.930 . S
H190 C174 0.930 . S
H191 C175 0.931 1_556 S
H192 C179 0.928 . S
H193 C178 0.929 . S
H194 C176 0.932 . S
C195 C196 1.389 . S
C195 C197 1.397 . S
C195 H219 0.931 . S
C196 C195 1.389 . S
C196 C200 1.394 1_655 S
C197 C195 1.397 . S
C197 C198 1.383 . S
C197 H220 0.930 . S
C198 C197 1.383 . S
C198 C199 1.378 1_655 S
C198 C201 1.480 . S
C199 C198 1.378 1_455 S
C199 C200 1.389 . S
C199 H221 0.929 . S
C200 C196 1.394 1_455 S
C200 C199 1.389 . S
C200 H222 0.931 . S
C201 C198 1.480 . S
C201 C202 1.388 . S
C201 C206 1.390 . S
C202 C201 1.388 . S
C202 C203 1.402 . S
C202 H223 0.930 . S
C203 C202 1.402 . S
C203 C204 1.376 1_554 S
C203 C212 1.512 . S
C204 C203 1.376 1_556 S
C204 C205 1.392 1_655 S
C204 H225 0.933 . S
C205 C204 1.392 1_455 S
C205 C206 1.361 1_456 S
C205 C207 1.499 . S
C206 C201 1.390 . S
C206 C205 1.361 1_654 S
C206 H224 0.931 . S
C207 C205 1.499 . S
C207 C208 1.357 1_455 S
C207 C209 1.380 . S
C208 C207 1.357 1_655 S
C208 C218 1.386 . S
C208 H226 0.931 . S
C209 C207 1.380 . S
C209 C210 1.409 . S
C209 H227 0.929 . S
C210 C209 1.409 . S
C210 C211 1.384 . S
C210 H228 0.930 . S
C211 C210 1.384 . S
C211 C218 1.353 1_455 S
C212 C203 1.512 . S
C212 C213 1.341 . S
C212 C214 1.371 1_655 S
C213 C212 1.341 . S
C213 C217 1.394 . S
C213 H229 0.930 . S
C214 C212 1.371 1_455 S
C214 C215 1.392 . S
C214 H230 0.931 1_554 S
C215 C214 1.392 . S
C215 C216 1.325 1_455 S
C215 H233 0.932 . S
C216 C215 1.325 1_655 S
C216 C217 1.342 . S
C217 C213 1.394 . S
C217 C216 1.342 . S
C217 H232 0.929 . S
C218 C208 1.386 . S
C218 C211 1.353 1_655 S
C218 H231 0.928 . S
H219 C195 0.931 . S
H220 C197 0.930 . S
H221 C199 0.929 . S
H222 C200 0.931 . S
H223 C202 0.930 . S
H224 C206 0.931 . S
H225 C204 0.933 . S
H226 C208 0.931 . S
H227 C209 0.929 . S
H228 C210 0.930 . S
H229 C213 0.930 . S
H230 C214 0.931 1_556 S
H231 C218 0.928 . S
H232 C217 0.929 . S
H233 C215 0.932 . S
C234 C235 1.389 . S
C234 C236 1.397 . S
C234 H258 0.931 . S
C235 C234 1.389 . S
C235 C239 1.394 1_565 S
C236 C234 1.397 . S
C236 C237 1.383 . S
C236 H259 0.930 . S
C237 C236 1.383 . S
C237 C238 1.378 1_565 S
C237 C240 1.480 . S
C238 C237 1.378 1_545 S
C238 C239 1.389 . S
C238 H260 0.929 . S
C239 C235 1.394 1_545 S
C239 C238 1.389 . S
C239 H261 0.931 . S
C240 C237 1.480 . S
C240 C241 1.388 . S
C240 C245 1.390 . S
C241 C240 1.388 . S
C241 C242 1.402 . S
C241 H262 0.930 . S
C242 C241 1.402 . S
C242 C243 1.376 1_554 S
C242 C251 1.512 . S
C243 C242 1.376 1_556 S
C243 C244 1.392 1_565 S
C243 H264 0.934 . S
C244 C243 1.392 1_545 S
C244 C245 1.361 1_546 S
C244 C246 1.499 . S
C245 C240 1.390 . S
C245 C244 1.361 1_564 S
C245 H263 0.931 . S
C246 C244 1.499 . S
C246 C247 1.357 1_545 S
C246 C248 1.380 . S
C247 C246 1.357 1_565 S
C247 C257 1.386 . S
C247 H265 0.931 . S
C248 C246 1.380 . S
C248 C249 1.409 . S
C248 H266 0.929 . S
C249 C248 1.409 . S
C249 C250 1.384 . S
C249 H267 0.930 . S
C250 C249 1.384 . S
C250 C257 1.353 1_545 S
C251 C242 1.512 . S
C251 C252 1.341 . S
C251 C253 1.371 1_565 S
C252 C251 1.341 . S
C252 C256 1.394 . S
C252 H268 0.930 . S
C253 C251 1.371 1_545 S
C253 C254 1.392 . S
C253 H269 0.931 1_554 S
C254 C253 1.392 . S
C254 C255 1.325 1_545 S
C254 H272 0.932 . S
C255 C254 1.325 1_565 S
C255 C256 1.342 . S
C256 C252 1.394 . S
C256 C255 1.342 . S
C256 H271 0.929 . S
C257 C247 1.386 . S
C257 C250 1.353 1_565 S
C257 H270 0.928 . S
H258 C234 0.931 . S
H259 C236 0.930 . S
H260 C238 0.929 . S
H261 C239 0.931 . S
H262 C241 0.930 . S
H263 C245 0.931 . S
H264 C243 0.934 . S
H265 C247 0.931 . S
H266 C248 0.929 . S
H267 C249 0.930 . S
H268 C252 0.930 . S
H269 C253 0.931 1_556 S
H270 C257 0.928 . S
H271 C256 0.929 . S
H272 C254 0.932 . S
C273 C274 1.386 . S
C273 C275 1.397 . S
C273 H297 0.931 . S
C274 C273 1.386 . S
C274 C278 1.397 . S
C275 C273 1.397 . S
C275 C276 1.384 . S
C275 H298 0.930 . S
C276 C275 1.384 . S
C276 C277 1.377 . S
C276 C279 1.481 . S
C277 C276 1.377 . S
C277 C278 1.389 . S
C277 H299 0.929 . S
C278 C274 1.397 . S
C278 C277 1.389 . S
C278 H300 0.931 . S
C279 C276 1.481 . S
C279 C280 1.387 . S
C279 C284 1.390 1_556 S
C280 C279 1.387 . S
C280 C281 1.401 1_556 S
C280 H301 0.930 . S
C281 C280 1.401 1_554 S
C281 C282 1.376 . S
C281 C290 1.511 . S
C282 C281 1.376 . S
C282 C283 1.392 . S
C282 H303 0.931 . S
C283 C282 1.392 . S
C283 C284 1.361 . S
C283 C285 1.500 . S
C284 C279 1.390 1_554 S
C284 C283 1.361 . S
C284 H302 0.931 . S
C285 C283 1.500 . S
C285 C286 1.371 . S
C285 C287 1.365 . S
C286 C285 1.371 . S
C286 C296 1.386 . S
C286 H304 0.931 . S
C287 C285 1.365 . S
C287 C288 1.409 . S
C287 H305 0.929 . S
C288 C287 1.409 . S
C288 C289 1.380 . S
C288 H306 0.930 . S
C289 C288 1.380 . S
C289 C296 1.357 . S
C290 C281 1.511 . S
C290 C291 1.341 . S
C290 C292 1.371 . S
C291 C290 1.341 . S
C291 C295 1.394 . S
C291 H307 0.930 1_554 S
C292 C290 1.371 . S
C292 C293 1.392 . S
C292 H308 0.931 . S
C293 C292 1.392 . S
C293 C294 1.331 . S
C293 H311 0.932 . S
C294 C293 1.331 . S
C294 C295 1.336 . S
C295 C291 1.394 . S
C295 C294 1.336 . S
C295 H310 0.929 . S
C296 C286 1.386 . S
C296 C289 1.357 . S
C296 H309 0.928 . S
H297 C273 0.931 . S
H298 C275 0.930 . S
H299 C277 0.929 . S
H300 C278 0.931 . S
H301 C280 0.930 . S
H302 C284 0.931 . S
H303 C282 0.931 . S
H304 C286 0.931 . S
H305 C287 0.929 . S
H306 C288 0.930 . S
H307 C291 0.930 1_556 S
H308 C292 0.931 . S
H309 C296 0.928 . S
H310 C295 0.929 . S
H311 C293 0.932 . S
La312 C314 2.928 . S
La312 O332 2.521 . S
La312 O333 2.628 . S
La312 O334 2.554 . S
La312 O335 2.757 1_565 S
La312 O336 2.470 . S
La312 O341 2.482 1_455 S
La312 O343 2.503 1_565 S
La313 C323 2.928 . S
La313 O335 2.482 1_655 S
La313 O337 2.503 1_545 S
La313 O338 2.521 . S
La313 O339 2.628 . S
La313 O340 2.554 . S
La313 O341 2.757 1_545 S
La313 O342 2.470 . S
C314 La312 2.928 . S
C314 C315 1.503 . S
C314 O332 1.261 . S
C314 O333 1.243 . S
C315 C314 1.503 . S
C315 C316 1.394 . S
C315 C320 1.373 1_556 S
C316 C315 1.394 . S
C316 C317 1.380 1_556 S
C316 H344 0.930 . S
C317 C316 1.380 1_554 S
C317 C318 1.376 . S
C317 H345 0.930 . S
C318 C317 1.376 . S
C318 C319 1.370 . S
C319 C318 1.370 . S
C319 C320 1.396 . S
C319 H346 0.929 . S
C320 C315 1.373 1_554 S
C320 C319 1.396 . S
C320 H347 0.929 1_455 S
C321 O334 1.240 . S
C321 O335 1.289 1_565 S
C322 O336 1.258 1_655 S
C322 O337 1.256 . S
C323 La313 2.928 . S
C323 C324 1.503 . S
C323 O338 1.261 . S
C323 O339 1.243 . S
C324 C323 1.503 . S
C324 C325 1.394 . S
C324 C329 1.373 . S
C325 C324 1.394 . S
C325 C326 1.380 . S
C325 H348 0.930 . S
C326 C325 1.380 . S
C326 C327 1.376 . S
C326 H349 0.930 . S
C327 C326 1.376 . S
C327 C328 1.370 . S
C328 C327 1.370 . S
C328 C329 1.396 . S
C328 H350 0.929 . S
C329 C324 1.373 . S
C329 C328 1.396 . S
C329 H351 0.929 1_655 S
C330 O340 1.240 . S
C330 O341 1.289 1_545 S
C331 O342 1.258 1_455 S
C331 O343 1.256 . S
O332 La312 2.521 . S
O332 C314 1.261 . S
O333 La312 2.628 . S
O333 C314 1.243 . S
O334 La312 2.554 . S
O334 C321 1.240 . S
O335 La312 2.757 1_545 S
O335 La313 2.482 1_455 S
O335 C321 1.289 1_545 S
O336 La312 2.470 . S
O336 C322 1.258 1_455 S
O337 La313 2.503 1_565 S
O337 C322 1.256 . S
O338 La313 2.521 . S
O338 C323 1.261 . S
O339 La313 2.628 . S
O339 C323 1.243 . S
O340 La313 2.554 . S
O340 C330 1.240 . S
O341 La312 2.482 1_655 S
O341 La313 2.757 1_565 S
O341 C330 1.289 1_565 S
O342 La313 2.470 . S
O342 C331 1.258 1_655 S
O343 La312 2.503 1_545 S
O343 C331 1.256 . S
H344 C316 0.930 . S
H345 C317 0.930 . S
H346 C319 0.929 . S
H347 C320 0.929 1_655 S
H348 C325 0.930 . S
H349 C326 0.930 . S
H350 C328 0.929 . S
H351 C329 0.929 1_455 S
La352 C354 2.928 . S
La352 O372 2.521 . S
La352 O373 2.628 . S
La352 O374 2.554 . S
La352 O375 2.757 . S
La352 O376 2.470 . S
La352 O381 2.482 1_545 S
La352 O383 2.503 . S
La353 C363 2.928 . S
La353 O375 2.482 1_565 S
La353 O377 2.503 . S
La353 O378 2.521 . S
La353 O379 2.628 . S
La353 O380 2.554 . S
La353 O381 2.757 . S
La353 O382 2.470 . S
C354 La352 2.928 . S
C354 C355 1.503 . S
C354 O372 1.261 . S
C354 O373 1.243 . S
C355 C354 1.503 . S
C355 C356 1.394 . S
C355 C360 1.373 1_556 S
C356 C355 1.394 . S
C356 C357 1.380 1_556 S
C356 H384 0.930 . S
C357 C356 1.380 1_554 S
C357 C358 1.376 . S
C357 H385 0.930 . S
C358 C357 1.376 . S
C358 C359 1.370 . S
C359 C358 1.370 . S
C359 C360 1.396 . S
C359 H386 0.929 . S
C360 C355 1.373 1_554 S
C360 C359 1.396 . S
C360 H387 0.929 1_545 S
C361 O374 1.240 . S
C361 O375 1.289 . S
C362 O376 1.258 1_565 S
C362 O377 1.256 . S
C363 La353 2.928 . S
C363 C364 1.503 . S
C363 O378 1.261 . S
C363 O379 1.243 . S
C364 C363 1.503 . S
C364 C365 1.394 . S
C364 C369 1.373 . S
C365 C364 1.394 . S
C365 C366 1.380 . S
C365 H388 0.930 . S
C366 C365 1.380 . S
C366 C367 1.376 . S
C366 H389 0.930 . S
C367 C366 1.376 . S
C367 C368 1.370 . S
C368 C367 1.370 . S
C368 C369 1.396 . S
C368 H390 0.929 . S
C369 C364 1.373 . S
C369 C368 1.396 . S
C369 H391 0.929 1_565 S
C370 O380 1.240 . S
C370 O381 1.289 . S
C371 O382 1.258 1_545 S
C371 O383 1.256 . S
O372 La352 2.521 . S
O372 C354 1.261 . S
O373 La352 2.628 . S
O373 C354 1.243 . S
O374 La352 2.554 . S
O374 C361 1.240 . S
O375 La352 2.757 . S
O375 La353 2.482 1_545 S
O375 C361 1.289 . S
O376 La352 2.470 . S
O376 C362 1.258 1_545 S
O377 La353 2.503 . S
O377 C362 1.256 . S
O378 La353 2.521 . S
O378 C363 1.261 . S
O379 La353 2.628 . S
O379 C363 1.243 . S
O380 La353 2.554 . S
O380 C370 1.240 . S
O381 La352 2.482 1_565 S
O381 La353 2.757 . S
O381 C370 1.289 . S
O382 La353 2.470 . S
O382 C371 1.258 1_565 S
O383 La352 2.503 . S
O383 C371 1.256 . S
H384 C356 0.930 . S
H385 C357 0.930 . S
H386 C359 0.929 . S
H387 C360 0.929 1_565 S
H388 C365 0.930 . S
H389 C366 0.930 . S
H390 C368 0.929 . S
H391 C369 0.929 1_545 S
La392 C394 2.928 . S
La392 O412 2.521 . S
La392 O413 2.628 . S
La392 O414 2.554 . S
La392 O415 2.757 . S
La392 O416 2.470 . S
La392 O421 2.482 . S
La392 O423 2.503 . S
La393 C403 2.928 . S
La393 O415 2.482 . S
La393 O417 2.503 . S
La393 O418 2.521 . S
La393 O419 2.628 . S
La393 O420 2.554 . S
La393 O421 2.757 . S
La393 O422 2.470 . S
C394 La392 2.928 . S
C394 C395 1.503 . S
C394 O412 1.261 . S
C394 O413 1.243 . S
C395 C394 1.503 . S
C395 C396 1.394 . S
C395 C400 1.373 1_556 S
C396 C395 1.394 . S
C396 C397 1.380 1_556 S
C396 H424 0.930 . S
C397 C396 1.380 1_554 S
C397 C398 1.376 . S
C397 H425 0.930 . S
C398 C397 1.376 . S
C398 C399 1.370 . S
C399 C398 1.370 . S
C399 C400 1.396 . S
C399 H426 0.929 . S
C400 C395 1.373 1_554 S
C400 C399 1.396 . S
C400 H427 0.929 . S
C401 O414 1.240 . S
C401 O415 1.289 . S
C402 O416 1.258 . S
C402 O417 1.256 . S
C403 La393 2.928 . S
C403 C404 1.503 . S
C403 O418 1.261 . S
C403 O419 1.243 . S
C404 C403 1.503 . S
C404 C405 1.394 . S
C404 C409 1.373 . S
C405 C404 1.394 . S
C405 C406 1.380 . S
C405 H428 0.930 . S
C406 C405 1.380 . S
C406 C407 1.376 . S
C406 H429 0.930 . S
C407 C406 1.376 . S
C407 C408 1.370 . S
C408 C407 1.370 . S
C408 C409 1.396 . S
C408 H430 0.929 . S
C409 C404 1.373 . S
C409 C408 1.396 . S
C409 H431 0.929 . S
C410 O420 1.240 . S
C410 O421 1.289 . S
C411 O422 1.258 . S
C411 O423 1.256 . S
O412 La392 2.521 . S
O412 C394 1.261 . S
O413 La392 2.628 . S
O413 C394 1.243 . S
O414 La392 2.554 . S
O414 C401 1.240 . S
O415 La392 2.757 . S
O415 La393 2.482 . S
O415 C401 1.289 . S
O416 La392 2.470 . S
O416 C402 1.258 . S
O417 La393 2.503 . S
O417 C402 1.256 . S
O418 La393 2.521 . S
O418 C403 1.261 . S
O419 La393 2.628 . S
O419 C403 1.243 . S
O420 La393 2.554 . S
O420 C410 1.240 . S
O421 La392 2.482 . S
O421 La393 2.757 . S
O421 C410 1.289 . S
O422 La393 2.470 . S
O422 C411 1.258 . S
O423 La392 2.503 . S
O423 C411 1.256 . S
H424 C396 0.930 . S
H425 C397 0.930 . S
H426 C399 0.929 . S
H427 C400 0.929 . S
H428 C405 0.930 . S
H429 C406 0.930 . S
H430 C408 0.929 . S
H431 C409 0.929 . S
La432 C434 2.928 . S
La432 O452 2.521 . S
La432 O453 2.628 . S
La432 O454 2.554 . S
La432 O455 2.757 1_655 S
La432 O456 2.470 . S
La432 O461 2.482 . S
La432 O463 2.503 1_655 S
La433 C443 2.928 . S
La433 O455 2.482 . S
La433 O457 2.503 1_455 S
La433 O458 2.521 . S
La433 O459 2.628 . S
La433 O460 2.554 . S
La433 O461 2.757 1_455 S
La433 O462 2.470 . S
C434 La432 2.928 . S
C434 C435 1.503 . S
C434 O452 1.261 . S
C434 O453 1.243 . S
C435 C434 1.503 . S
C435 C436 1.394 . S
C435 C440 1.373 1_556 S
C436 C435 1.394 . S
C436 C437 1.380 1_556 S
C436 H464 0.930 . S
C437 C436 1.380 1_554 S
C437 C438 1.376 . S
C437 H465 0.930 . S
C438 C437 1.376 . S
C438 C439 1.370 . S
C439 C438 1.370 . S
C439 C440 1.396 . S
C439 H466 0.929 . S
C440 C435 1.373 1_554 S
C440 C439 1.396 . S
C440 H467 0.929 . S
C441 O454 1.245 . S
C441 O455 1.286 1_655 S
C442 O456 1.258 . S
C442 O457 1.256 . S
C443 La433 2.928 . S
C443 C444 1.503 . S
C443 O458 1.261 . S
C443 O459 1.243 . S
C444 C443 1.503 . S
C444 C445 1.394 . S
C444 C449 1.373 . S
C445 C444 1.394 . S
C445 C446 1.380 . S
C445 H468 0.930 . S
C446 C445 1.380 . S
C446 C447 1.376 . S
C446 H469 0.930 . S
C447 C446 1.376 . S
C447 C448 1.370 . S
C448 C447 1.370 . S
C448 C449 1.396 . S
C448 H470 0.929 . S
C449 C444 1.373 . S
C449 C448 1.396 . S
C449 H471 0.929 . S
C450 O460 1.250 . S
C450 O461 1.283 1_455 S
C451 O462 1.258 . S
C451 O463 1.256 . S
O452 La432 2.521 . S
O452 C434 1.261 . S
O453 La432 2.628 . S
O453 C434 1.243 . S
O454 La432 2.554 . S
O454 C441 1.245 . S
O455 La432 2.757 1_455 S
O455 La433 2.482 . S
O455 C441 1.286 1_455 S
O456 La432 2.470 . S
O456 C442 1.258 . S
O457 La433 2.503 1_655 S
O457 C442 1.256 . S
O458 La433 2.521 . S
O458 C443 1.261 . S
O459 La433 2.628 . S
O459 C443 1.243 . S
O460 La433 2.554 . S
O460 C450 1.250 . S
O461 La432 2.482 . S
O461 La433 2.757 1_655 S
O461 C450 1.283 1_655 S
O462 La433 2.470 . S
O462 C451 1.258 . S
O463 La432 2.503 1_455 S
O463 C451 1.256 . S
H464 C436 0.930 . S
H465 C437 0.930 . S
H466 C439 0.929 . S
H467 C440 0.929 . S
H468 C445 0.930 . S
H469 C446 0.930 . S
H470 C448 0.929 . S
H471 C449 0.929 . S
C472 C473 1.402 . S
C472 H476 0.950 . S
C472 C481 1.390 . S
C473 C472 1.402 . S
C473 C475 1.373 1_545 S
H474 C481 0.950 . S
C475 C473 1.373 1_565 S
C475 C477 1.390 . S
C475 H479 0.950 . S
H476 C472 0.950 . S
C477 C475 1.390 . S
C477 C478 1.354 1_565 S
C477 H480 0.950 . S
C478 C477 1.354 1_545 S
C478 C481 1.421 . S
H479 C475 0.950 . S
H480 C477 0.950 . S
C481 C472 1.390 . S
C481 H474 0.950 . S
C481 C478 1.421 . S
C482 C483 1.387 . S
C482 H486 0.950 . S
C482 C491 1.390 . S
C483 C482 1.387 . S
C483 C485 1.387 . S
H484 C491 0.950 . S
C485 C483 1.387 . S
C485 C487 1.390 . S
C485 H489 0.950 . S
H486 C482 0.950 . S
C487 C485 1.390 . S
C487 C488 1.387 . S
C487 H490 0.950 . S
C488 C487 1.387 . S
C488 C491 1.387 . S
H489 C485 0.950 . S
H490 C487 0.950 . S
C491 C482 1.390 . S
C491 H484 0.950 . S
C491 C488 1.387 . S
C492 C493 1.387 . S
C492 H496 0.950 . S
C492 C501 1.390 . S
C493 C492 1.387 . S
C493 C495 1.387 . S
H494 C501 0.950 . S
C495 C493 1.387 . S
C495 C497 1.390 . S
C495 H499 0.950 . S
H496 C492 0.950 . S
C497 C495 1.390 . S
C497 C498 1.387 . S
C497 H500 0.950 . S
C498 C497 1.387 . S
C498 C501 1.387 . S
H499 C495 0.950 . S
H500 C497 0.950 . S
C501 C492 1.390 . S
C501 H494 0.950 . S
C501 C498 1.387 . S
C502 C503 1.365 1_655 S
C502 H506 0.950 . S
C502 C511 1.390 . S
C503 C502 1.365 1_455 S
C503 C505 1.411 . S
H504 C511 0.950 . S
C505 C503 1.411 . S
C505 C507 1.390 . S
C505 H509 0.950 . S
H506 C502 0.950 . S
C507 C505 1.390 . S
C507 C508 1.387 . S
C507 H510 0.950 . S
C508 C507 1.387 . S
C508 C511 1.387 1_455 S
H509 C505 0.950 . S
H510 C507 0.950 . S
C511 C502 1.390 . S
C511 H504 0.950 . S
C511 C508 1.387 1_655 S
C512 C513 1.394 . S
C512 H516 0.950 . S
C512 C521 1.390 . S
C513 C512 1.394 . S
C513 C515 1.381 1_565 S
H514 C521 0.950 . S
C515 C513 1.381 1_545 S
C515 C517 1.390 . S
C515 H519 0.950 . S
H516 C512 0.950 . S
C517 C515 1.390 . S
C517 C518 1.364 1_545 S
C517 H520 0.950 . S
C518 C517 1.364 1_565 S
C518 C521 1.411 . S
H519 C515 0.950 . S
H520 C517 0.950 . S
C521 C512 1.390 . S
C521 H514 0.950 . S
C521 C518 1.411 . S
C522 C523 1.387 . S
C522 H526 0.950 . S
C522 C531 1.390 . S
C523 C522 1.387 . S
C523 C525 1.387 . S
H524 C531 0.950 . S
C525 C523 1.387 . S
C525 C527 1.390 . S
C525 H529 0.950 . S
H526 C522 0.950 . S
C527 C525 1.390 . S
C527 C528 1.387 . S
C527 H530 0.950 . S
C528 C527 1.387 . S
C528 C531 1.387 . S
H529 C525 0.950 . S
H530 C527 0.950 . S
C531 C522 1.390 . S
C531 H524 0.950 . S
C531 C528 1.387 . S
C532 C533 1.387 . S
C532 H536 0.950 . S
C532 C541 1.390 . S
C533 C532 1.387 . S
C533 C535 1.387 . S
H534 C541 0.950 . S
C535 C533 1.387 . S
C535 C537 1.390 . S
C535 H539 0.950 . S
H536 C532 0.950 . S
C537 C535 1.390 . S
C537 C538 1.387 . S
C537 H540 0.950 . S
C538 C537 1.387 . S
C538 C541 1.387 . S
H539 C535 0.950 . S
H540 C537 0.950 . S
C541 C532 1.390 . S
C541 H534 0.950 . S
C541 C538 1.387 . S
C542 C543 1.419 . S
C542 H546 0.950 . S
C542 C551 1.390 . S
C543 C542 1.419 . S
C543 C545 1.357 1_655 S
H544 C551 0.950 . S
C545 C543 1.357 1_455 S
C545 C547 1.390 . S
C545 H549 0.950 . S
H546 C542 0.950 . S
C547 C545 1.390 . S
C547 C548 1.387 1_455 S
C547 H550 0.950 . S
C548 C547 1.387 1_655 S
C548 C551 1.387 . S
H549 C545 0.950 . S
H550 C547 0.950 . S
C551 C542 1.390 . S
C551 H544 0.950 . S
C551 C548 1.387 . S
C552 C553 1.387 . S
C552 H556 0.950 . S
C552 C561 1.390 . S
C553 C552 1.387 . S
C553 C555 1.387 . S
H554 C561 0.950 . S
C555 C553 1.387 . S
C555 C557 1.390 . S
C555 H559 0.950 . S
H556 C552 0.950 . S
C557 C555 1.390 . S
C557 C558 1.387 . S
C557 H560 0.950 . S
C558 C557 1.387 . S
C558 C561 1.387 . S
H559 C555 0.950 . S
H560 C557 0.950 . S
C561 C552 1.390 . S
C561 H554 0.950 . S
C561 C558 1.387 . S
C562 C563 1.387 . S
C562 H566 0.950 . S
C562 C571 1.390 . S
C563 C562 1.387 . S
C563 C565 1.387 . S
H564 C571 0.950 . S
C565 C563 1.387 . S
C565 C567 1.390 . S
C565 H569 0.950 1_565 S
H566 C562 0.950 . S
C567 C565 1.390 . S
C567 C568 1.387 . S
C567 H570 0.950 . S
C568 C567 1.387 . S
C568 C571 1.387 . S
H569 C565 0.950 1_545 S
H570 C567 0.950 . S
C571 C562 1.390 . S
C571 H564 0.950 . S
C571 C568 1.387 . S
C572 C573 1.387 . S
C572 H576 0.950 . S
C572 C581 1.390 . S
C573 C572 1.387 . S
C573 C575 1.387 . S
H574 C581 0.950 . S
C575 C573 1.387 . S
C575 C577 1.390 . S
C575 H579 0.950 . S
H576 C572 0.950 . S
C577 C575 1.390 . S
C577 C578 1.387 . S
C577 H580 0.950 . S
C578 C577 1.387 . S
C578 C581 1.387 . S
H579 C575 0.950 . S
H580 C577 0.950 . S
C581 C572 1.390 . S
C581 H574 0.950 . S
C581 C578 1.387 . S
C582 C583 1.387 . S
C582 H586 0.950 . S
C582 C591 1.390 . S
C583 C582 1.387 . S
C583 C585 1.387 . S
H584 C591 0.950 . S
C585 C583 1.387 . S
C585 C587 1.390 . S
C585 H589 0.950 . S
H586 C582 0.950 . S
C587 C585 1.390 . S
C587 C588 1.387 . S
C587 H590 0.950 . S
C588 C587 1.387 . S
C588 C591 1.387 . S
H589 C585 0.950 . S
H590 C587 0.950 . S
C591 C582 1.390 . S
C591 H584 0.950 . S
C591 C588 1.387 . S
C592 C593 1.387 . S
C592 H596 0.950 . S
C592 C601 1.390 . S
C593 C592 1.387 . S
C593 C595 1.387 . S
H594 C601 0.950 . S
C595 C593 1.387 . S
C595 C597 1.390 . S
C595 H599 0.950 1_554 S
H596 C592 0.950 . S
C597 C595 1.390 . S
C597 C598 1.387 . S
C597 H600 0.950 1_554 S
C598 C597 1.387 . S
C598 C601 1.387 . S
H599 C595 0.950 1_556 S
H600 C597 0.950 1_556 S
C601 C592 1.390 . S
C601 H594 0.950 . S
C601 C598 1.387 . S
C602 C603 1.387 . S
C602 H606 0.950 1_544 S
C602 C611 1.390 . S
C603 C602 1.387 . S
C603 C605 1.387 . S
H604 C611 0.950 1_556 S
C605 C603 1.387 . S
C605 C607 1.390 . S
C605 H609 0.950 . S
H606 C602 0.950 1_566 S
C607 C605 1.390 . S
C607 C608 1.387 . S
C607 H610 0.950 . S
C608 C607 1.387 . S
C608 C611 1.387 . S
H609 C605 0.950 . S
H610 C607 0.950 . S
C611 C602 1.390 . S
C611 H604 0.950 1_554 S
C611 C608 1.387 . S
C612 C613 1.387 . S
C612 H616 0.950 . S
C612 C621 1.390 . S
C613 C612 1.387 . S
C613 C615 1.387 . S
H614 C621 0.950 1_556 S
C615 C613 1.387 . S
C615 C617 1.390 . S
C615 H619 0.950 . S
H616 C612 0.950 . S
C617 C615 1.390 . S
C617 C618 1.387 . S
C617 H620 0.950 . S
C618 C617 1.387 . S
C618 C621 1.387 . S
H619 C615 0.950 . S
H620 C617 0.950 . S
C621 C612 1.390 . S
C621 H614 0.950 1_554 S
C621 C618 1.387 . S
C622 C623 1.387 . S
C622 H626 0.950 . S
C622 C631 1.390 . S
C623 C622 1.387 . S
C623 C625 1.387 . S
H624 C631 0.950 . S
C625 C623 1.387 . S
C625 C627 1.390 . S
C625 H629 0.950 1_554 S
H626 C622 0.950 . S
C627 C625 1.390 . S
C627 C628 1.387 . S
C627 H630 0.950 1_554 S
C628 C627 1.387 . S
C628 C631 1.387 . S
H629 C625 0.950 1_556 S
H630 C627 0.950 1_556 S
C631 C622 1.390 . S
C631 H624 0.950 . S
C631 C628 1.387 . S
C632 C633 1.387 1_655 S
C632 H636 0.950 . S
C632 C641 1.390 . S
C633 C632 1.387 1_455 S
C633 C635 1.387 . S
H634 C641 0.950 . S
C635 C633 1.387 . S
C635 C637 1.390 . S
C635 H639 0.950 . S
H636 C632 0.950 . S
C637 C635 1.390 . S
C637 C638 1.387 . S
C637 H640 0.950 . S
C638 C637 1.387 . S
C638 C641 1.387 1_455 S
H639 C635 0.950 . S
H640 C637 0.950 . S
C641 C632 1.390 . S
C641 H634 0.950 . S
C641 C638 1.387 1_655 S
C642 C643 1.387 . S
C642 H646 0.950 . S
C642 C651 1.390 . S
C643 C642 1.387 . S
C643 C645 1.387 1_545 S
H644 C651 0.950 . S
C645 C643 1.387 1_565 S
C645 C647 1.390 . S
C645 H649 0.950 . S
H646 C642 0.950 . S
C647 C645 1.390 . S
C647 C648 1.387 1_565 S
C647 H650 0.950 . S
C648 C647 1.387 1_545 S
C648 C651 1.387 . S
H649 C645 0.950 . S
H650 C647 0.950 . S
C651 C642 1.390 . S
C651 H644 0.950 . S
C651 C648 1.387 . S
C652 C653 1.387 . S
C652 H656 0.950 . S
C652 C661 1.390 . S
C653 C652 1.387 . S
C653 C655 1.387 . S
H654 C661 0.950 . S
C655 C653 1.387 . S
C655 C657 1.390 . S
C655 H659 0.950 . S
H656 C652 0.950 . S
C657 C655 1.390 . S
C657 C658 1.387 . S
C657 H660 0.950 . S
C658 C657 1.387 . S
C658 C661 1.387 . S
H659 C655 0.950 . S
H660 C657 0.950 . S
C661 C652 1.390 . S
C661 H654 0.950 . S
C661 C658 1.387 . S
C662 C663 1.387 . S
C662 H666 0.950 . S
C662 C671 1.390 . S
C663 C662 1.387 . S
C663 C665 1.387 . S
H664 C671 0.950 . S
C665 C663 1.387 . S
C665 C667 1.390 . S
C665 H669 0.950 . S
H666 C662 0.950 . S
C667 C665 1.390 . S
C667 C668 1.387 . S
C667 H670 0.950 . S
C668 C667 1.387 . S
C668 C671 1.387 . S
H669 C665 0.950 . S
H670 C667 0.950 . S
C671 C662 1.390 . S
C671 H664 0.950 . S
C671 C668 1.387 . S
C672 C673 1.387 1_455 S
C672 H676 0.950 . S
C672 C681 1.390 . S
C673 C672 1.387 1_655 S
C673 C675 1.387 . S
H674 C681 0.950 . S
C675 C673 1.387 . S
C675 C677 1.390 . S
C675 H679 0.950 . S
H676 C672 0.950 . S
C677 C675 1.390 . S
C677 C678 1.387 . S
C677 H680 0.950 . S
C678 C677 1.387 . S
C678 C681 1.387 1_655 S
H679 C675 0.950 . S
H680 C677 0.950 . S
C681 C672 1.390 . S
C681 H674 0.950 . S
C681 C678 1.387 1_455 S
C682 C683 1.387 . S
C682 H686 0.950 . S
C682 C691 1.390 . S
C683 C682 1.387 . S
C683 C685 1.387 1_565 S
H684 C691 0.950 . S
C685 C683 1.387 1_545 S
C685 C687 1.390 . S
C685 H689 0.950 . S
H686 C682 0.950 . S
C687 C685 1.390 . S
C687 C688 1.387 1_545 S
C687 H690 0.950 . S
C688 C687 1.387 1_565 S
C688 C691 1.387 . S
H689 C685 0.950 . S
H690 C687 0.950 . S
C691 C682 1.390 . S
C691 H684 0.950 . S
C691 C688 1.387 . S
C692 C693 1.387 . S
C692 H696 0.950 . S
C692 C701 1.390 . S
C693 C692 1.387 . S
C693 C695 1.387 . S
H694 C701 0.950 . S
C695 C693 1.387 . S
C695 C697 1.390 . S
C695 H699 0.950 . S
H696 C692 0.950 . S
C697 C695 1.390 . S
C697 C698 1.387 . S
C697 H700 0.950 . S
C698 C697 1.387 . S
C698 C701 1.387 . S
H699 C695 0.950 . S
H700 C697 0.950 . S
C701 C692 1.390 . S
C701 H694 0.950 . S
C701 C698 1.387 . S
C702 C703 1.387 . S
C702 H706 0.950 . S
C702 C711 1.390 . S
C703 C702 1.387 . S
C703 C705 1.387 . S
H704 C711 0.950 . S
C705 C703 1.387 . S
C705 C707 1.390 . S
C705 H709 0.950 . S
H706 C702 0.950 . S
C707 C705 1.390 . S
C707 C708 1.387 . S
C707 H710 0.950 . S
C708 C707 1.387 . S
C708 C711 1.387 . S
H709 C705 0.950 . S
H710 C707 0.950 . S
C711 C702 1.390 . S
C711 H704 0.950 . S
C711 C708 1.387 . S
C473 C255 2.541 1_545 S
C478 C321 2.877 1_545 S
C488 C361 2.910 . S
C483 C294 2.535 . S
C498 C401 2.902 . S
C493 C177 2.573 . S
C508 C441 2.891 1_455 S
C503 C216 2.558 1_455 S
C518 C330 2.881 1_564 S
C513 C99 2.547 . S
C523 C138 2.543 . S
C528 C370 2.913 1_554 S
C533 C21 2.568 . S
C538 C410 2.901 1_554 S
C543 C60 2.555 . S
C548 C450 2.888 1_654 S
C558 C327 0.806 . S
C553 C196 0.817 . S
C568 C367 0.804 . S
C563 C235 0.815 . S
C578 C407 0.778 . S
C573 C289 0.781 . S
C583 C157 0.783 . S
C588 C447 0.774 . S
C593 C40 0.828 1_455 S
C598 C318 0.818 . S
C608 C358 0.804 . S
C603 C79 0.817 1_545 S
C618 C398 0.769 . S
C613 C133 0.774 . S
C623 C1 0.793 . S
C628 C438 0.788 . S
C633 C211 3.249 . S
C638 C331 3.772 . S
C643 C250 3.213 . S
C648 C371 3.739 . S
C658 C411 3.736 . S
C653 C274 3.217 . S
C668 C451 3.762 . S
C663 C172 3.232 . S
C673 C55 3.251 1_655 S
C678 C322 3.779 . S
C688 C362 3.739 . S
C683 C94 3.211 1_565 S
C698 C402 3.737 . S
C693 C118 3.219 . S
C703 C16 3.236 . S
C708 C442 3.764 . S
