# Generated by pormake.
# Topology eea, (3,6)-cn, num edge types: 1
# Building blocks:
#     Node 0, Type 0, BuildingBlock: KAKCAD_clean_linker_0, # of connection points: 3
#     Node 1, Type 0, BuildingBlock: KAKCAD_clean_linker_0, # of connection points: 3
#     Node 2, Type 0, BuildingBlock: KAKCAD_clean_linker_0, # of connection points: 3
#     Node 3, Type 0, BuildingBlock: KAKCAD_clean_linker_0, # of connection points: 3
#     Node 4, Type 0, BuildingBlock: KAKCAD_clean_linker_0, # of connection points: 3
#     Node 5, Type 0, BuildingBlock: KAKCAD_clean_linker_0, # of connection points: 3
#     Node 6, Type 0, BuildingBlock: KAKCAD_clean_linker_0, # of connection points: 3
#     Node 7, Type 0, BuildingBlock: KAKCAD_clean_linker_0, # of connection points: 3
#     Node 8, Type 0, BuildingBlock: KAKCAD_clean_linker_0, # of connection points: 3
#     Node 9, Type 0, BuildingBlock: KAKCAD_clean_linker_0, # of connection points: 3
#     Node 10, Type 0, BuildingBlock: KAKCAD_clean_linker_0, # of connection points: 3
#     Node 11, Type 0, BuildingBlock: KAKCAD_clean_linker_0, # of connection points: 3
#     Node 12, Type 0, BuildingBlock: KAKCAD_clean_linker_0, # of connection points: 3
#     Node 13, Type 0, BuildingBlock: KAKCAD_clean_linker_0, # of connection points: 3
#     Node 14, Type 0, BuildingBlock: KAKCAD_clean_linker_0, # of connection points: 3
#     Node 15, Type 0, BuildingBlock: KAKCAD_clean_linker_0, # of connection points: 3
#     Node 16, Type 0, BuildingBlock: KAKCAD_clean_linker_0, # of connection points: 3
#     Node 17, Type 0, BuildingBlock: KAKCAD_clean_linker_0, # of connection points: 3
#     Node 18, Type 1, BuildingBlock: KUMBUR_clean_sbu_0, # of connection points: 6
#     Node 19, Type 1, BuildingBlock: KUMBUR_clean_sbu_0, # of connection points: 6
#     Node 20, Type 1, BuildingBlock: KUMBUR_clean_sbu_0, # of connection points: 6
#     Node 21, Type 1, BuildingBlock: KUMBUR_clean_sbu_0, # of connection points: 6
#     Node 22, Type 1, BuildingBlock: KUMBUR_clean_sbu_0, # of connection points: 6
#     Node 23, Type 1, BuildingBlock: KUMBUR_clean_sbu_0, # of connection points: 6
#     Node 24, Type 1, BuildingBlock: KUMBUR_clean_sbu_0, # of connection points: 6
#     Node 25, Type 1, BuildingBlock: KUMBUR_clean_sbu_0, # of connection points: 6
#     Node 26, Type 1, BuildingBlock: KUMBUR_clean_sbu_0, # of connection points: 6
#     Edge 27, Type (0, 1), BuildingBlock: XUDNAN_clean_linker_2, # of connection points: 2
#     Edge 28, Type (0, 1), BuildingBlock: XUDNAN_clean_linker_2, # of connection points: 2
#     Edge 29, Type (0, 1), BuildingBlock: XUDNAN_clean_linker_2, # of connection points: 2
#     Edge 30, Type (0, 1), BuildingBlock: XUDNAN_clean_linker_2, # of connection points: 2
#     Edge 31, Type (0, 1), BuildingBlock: XUDNAN_clean_linker_2, # of connection points: 2
#     Edge 32, Type (0, 1), BuildingBlock: XUDNAN_clean_linker_2, # of connection points: 2
#     Edge 33, Type (0, 1), BuildingBlock: XUDNAN_clean_linker_2, # of connection points: 2
#     Edge 34, Type (0, 1), BuildingBlock: XUDNAN_clean_linker_2, # of connection points: 2
#     Edge 35, Type (0, 1), BuildingBlock: XUDNAN_clean_linker_2, # of connection points: 2
#     Edge 36, Type (0, 1), BuildingBlock: XUDNAN_clean_linker_2, # of connection points: 2
#     Edge 37, Type (0, 1), BuildingBlock: XUDNAN_clean_linker_2, # of connection points: 2
#     Edge 38, Type (0, 1), BuildingBlock: XUDNAN_clean_linker_2, # of connection points: 2
#     Edge 39, Type (0, 1), BuildingBlock: XUDNAN_clean_linker_2, # of connection points: 2
#     Edge 40, Type (0, 1), BuildingBlock: XUDNAN_clean_linker_2, # of connection points: 2
#     Edge 41, Type (0, 1), BuildingBlock: XUDNAN_clean_linker_2, # of connection points: 2
#     Edge 42, Type (0, 1), BuildingBlock: XUDNAN_clean_linker_2, # of connection points: 2
#     Edge 43, Type (0, 1), BuildingBlock: XUDNAN_clean_linker_2, # of connection points: 2
#     Edge 44, Type (0, 1), BuildingBlock: XUDNAN_clean_linker_2, # of connection points: 2
#     Edge 45, Type (0, 1), BuildingBlock: XUDNAN_clean_linker_2, # of connection points: 2
#     Edge 46, Type (0, 1), BuildingBlock: XUDNAN_clean_linker_2, # of connection points: 2
#     Edge 47, Type (0, 1), BuildingBlock: XUDNAN_clean_linker_2, # of connection points: 2
#     Edge 48, Type (0, 1), BuildingBlock: XUDNAN_clean_linker_2, # of connection points: 2
#     Edge 49, Type (0, 1), BuildingBlock: XUDNAN_clean_linker_2, # of connection points: 2
#     Edge 50, Type (0, 1), BuildingBlock: XUDNAN_clean_linker_2, # of connection points: 2
#     Edge 51, Type (0, 1), BuildingBlock: XUDNAN_clean_linker_2, # of connection points: 2
#     Edge 52, Type (0, 1), BuildingBlock: XUDNAN_clean_linker_2, # of connection points: 2
#     Edge 53, Type (0, 1), BuildingBlock: XUDNAN_clean_linker_2, # of connection points: 2
#     Edge 54, Type (0, 1), BuildingBlock: XUDNAN_clean_linker_2, # of connection points: 2
#     Edge 55, Type (0, 1), BuildingBlock: XUDNAN_clean_linker_2, # of connection points: 2
#     Edge 56, Type (0, 1), BuildingBlock: XUDNAN_clean_linker_2, # of connection points: 2
#     Edge 57, Type (0, 1), BuildingBlock: XUDNAN_clean_linker_2, # of connection points: 2
#     Edge 58, Type (0, 1), BuildingBlock: XUDNAN_clean_linker_2, # of connection points: 2
#     Edge 59, Type (0, 1), BuildingBlock: XUDNAN_clean_linker_2, # of connection points: 2
#     Edge 60, Type (0, 1), BuildingBlock: XUDNAN_clean_linker_2, # of connection points: 2
#     Edge 61, Type (0, 1), BuildingBlock: XUDNAN_clean_linker_2, # of connection points: 2
#     Edge 62, Type (0, 1), BuildingBlock: XUDNAN_clean_linker_2, # of connection points: 2
#     Edge 63, Type (0, 1), BuildingBlock: XUDNAN_clean_linker_2, # of connection points: 2
#     Edge 64, Type (0, 1), BuildingBlock: XUDNAN_clean_linker_2, # of connection points: 2
#     Edge 65, Type (0, 1), BuildingBlock: XUDNAN_clean_linker_2, # of connection points: 2
#     Edge 66, Type (0, 1), BuildingBlock: XUDNAN_clean_linker_2, # of connection points: 2
#     Edge 67, Type (0, 1), BuildingBlock: XUDNAN_clean_linker_2, # of connection points: 2
#     Edge 68, Type (0, 1), BuildingBlock: XUDNAN_clean_linker_2, # of connection points: 2
#     Edge 69, Type (0, 1), BuildingBlock: XUDNAN_clean_linker_2, # of connection points: 2
#     Edge 70, Type (0, 1), BuildingBlock: XUDNAN_clean_linker_2, # of connection points: 2
#     Edge 71, Type (0, 1), BuildingBlock: XUDNAN_clean_linker_2, # of connection points: 2
#     Edge 72, Type (0, 1), BuildingBlock: XUDNAN_clean_linker_2, # of connection points: 2
#     Edge 73, Type (0, 1), BuildingBlock: XUDNAN_clean_linker_2, # of connection points: 2
#     Edge 74, Type (0, 1), BuildingBlock: XUDNAN_clean_linker_2, # of connection points: 2
#     Edge 75, Type (0, 1), BuildingBlock: XUDNAN_clean_linker_2, # of connection points: 2
#     Edge 76, Type (0, 1), BuildingBlock: XUDNAN_clean_linker_2, # of connection points: 2
#     Edge 77, Type (0, 1), BuildingBlock: XUDNAN_clean_linker_2, # of connection points: 2
#     Edge 78, Type (0, 1), BuildingBlock: XUDNAN_clean_linker_2, # of connection points: 2
#     Edge 79, Type (0, 1), BuildingBlock: XUDNAN_clean_linker_2, # of connection points: 2
#     Edge 80, Type (0, 1), BuildingBlock: XUDNAN_clean_linker_2, # of connection points: 2
# Relax obj value: 0.009
# Max RMSD: 0.094
# Mean RMSD: 0.062
data_MOF--net-eea--node1-KUMBUR_clean_sbu_0--node2-KAKCAD_clean_linker_0--edge1-XUDNAN_clean_linker_2
_symmetry_space_group_name_H-M    P1
_symmetry_Int_Tables_number       1
_symmetry_cell_setting            triclinic
loop_
_symmetry_equiv_pos_as_xyz
'x, y, z'
_cell_length_a     62.408613
_cell_length_b     63.79013
_cell_length_c     87.948265
_cell_angle_alpha  90.228911
_cell_angle_beta   90.138254
_cell_angle_gamma 119.90076
loop_
_atom_site_label
_atom_site_type_symbol
_atom_site_fract_x
_atom_site_fract_y
_atom_site_fract_z
_atom_type_partial_charge
C0 C 0.25529 0.14342 0.49148 0.0
C1 C 0.27697 0.14262 0.49477 0.0
C2 C 0.24386 0.13621 0.47724 0.0
C3 C 0.25353 0.12762 0.466 0.0
C4 C 0.2748 0.1262 0.46933 0.0
C5 C 0.28648 0.13376 0.48352 0.0
C6 C 0.24172 0.12072 0.45074 0.0
C7 C 0.23572 0.13636 0.44293 0.0
C8 C 0.22489 0.1303 0.42839 0.0
C9 C 0.21926 0.10797 0.42193 0.0
C10 C 0.22494 0.09206 0.42957 0.0
C11 C 0.23657 0.0987 0.44388 0.0
C12 C 0.21867 0.06866 0.42232 0.0
C13 C 0.1949 0.05386 0.4163 0.0
C14 C 0.23668 0.06182 0.42033 0.0
C15 C 0.23132 0.04117 0.41177 0.0
C16 C 0.20778 0.02693 0.40514 0.0
C17 C 0.22061 0.14768 0.41953 0.0
C18 C 0.21001 0.16038 0.42627 0.0
C19 C 0.22759 0.15194 0.40417 0.0
C20 C 0.22448 0.16878 0.39582 0.0
C21 C 0.2142 0.18173 0.40258 0.0
C22 C 0.20667 0.17714 0.41784 0.0
C23 C 0.18947 0.03318 0.40791 0.0
H24 H 0.24699 0.14952 0.49992 0.0
H25 H 0.22728 0.13717 0.47504 0.0
H26 H 0.28277 0.11984 0.46081 0.0
H27 H 0.30329 0.13315 0.4855 0.0
H28 H 0.24038 0.15368 0.44795 0.0
H29 H 0.24096 0.08646 0.44984 0.0
H30 H 0.21065 0.10304 0.41078 0.0
H31 H 0.18057 0.05854 0.41788 0.0
H32 H 0.2552 0.07301 0.42482 0.0
H33 H 0.24589 0.03697 0.40982 0.0
H34 H 0.20431 0.15735 0.43806 0.0
H35 H 0.23602 0.14262 0.39868 0.0
H36 H 0.17095 0.02228 0.40337 0.0
H37 H 0.19885 0.187 0.42335 0.0
H38 H 0.2303 0.17183 0.38405 0.0
C39 C 0.86565 0.12556 0.47997 0.0
C40 C 0.88345 0.13083 0.49139 0.0
C41 C 0.87097 0.12364 0.46475 0.0
C42 C 0.89431 0.12725 0.4606 0.0
C43 C 0.9123 0.13307 0.47197 0.0
C44 C 0.90687 0.13467 0.48722 0.0
C45 C 0.89965 0.12435 0.44451 0.0
C46 C 0.92147 0.14194 0.43754 0.0
C47 C 0.92651 0.13939 0.42226 0.0
C48 C 0.9097 0.11849 0.41416 0.0
C49 C 0.88771 0.10062 0.42092 0.0
C50 C 0.88281 0.10393 0.43608 0.0
C51 C 0.86993 0.07859 0.41213 0.0
C52 C 0.86641 0.07989 0.3964 0.0
C53 C 0.85659 0.05596 0.41931 0.0
C54 C 0.84046 0.03525 0.41097 0.0
C55 C 0.83765 0.0366 0.39524 0.0
C56 C 0.94849 0.15912 0.41445 0.0
C57 C 0.95515 0.18341 0.41692 0.0
C58 C 0.9621 0.1539 0.40384 0.0
C59 C 0.9813 0.17246 0.39555 0.0
C60 C 0.98729 0.19664 0.39765 0.0
C61 C 0.9743 0.20189 0.40867 0.0
C62 C 0.85068 0.0591 0.38804 0.0
H63 H 0.84739 0.12235 0.48284 0.0
H64 H 0.85681 0.11932 0.45621 0.0
H65 H 0.9304 0.13583 0.46911 0.0
H66 H 0.92101 0.13892 0.49577 0.0
H67 H 0.93437 0.1578 0.44399 0.0
H68 H 0.86584 0.09058 0.44142 0.0
H69 H 0.91366 0.11631 0.40247 0.0
H70 H 0.87576 0.09698 0.39049 0.0
H71 H 0.85903 0.05404 0.43131 0.0
H72 H 0.83077 0.01802 0.41674 0.0
H73 H 0.94501 0.18815 0.42487 0.0
H74 H 0.95772 0.13543 0.4018 0.0
H75 H 0.84862 0.0606 0.37592 0.0
H76 H 0.97873 0.22036 0.41081 0.0
H77 H 0.9909 0.16777 0.38716 0.0
C78 C 0.89676 0.75729 0.48888 0.0
C79 C 0.87623 0.73512 0.49331 0.0
C80 C 0.89941 0.76534 0.47384 0.0
C81 C 0.88136 0.75181 0.46283 0.0
C82 C 0.86039 0.73018 0.46724 0.0
C83 C 0.85795 0.72182 0.48224 0.0
C84 C 0.885 0.75974 0.44665 0.0
C85 C 0.9069 0.76477 0.43912 0.0
C86 C 0.91037 0.77142 0.42374 0.0
C87 C 0.89182 0.77346 0.41593 0.0
C88 C 0.87029 0.77003 0.42343 0.0
C89 C 0.86691 0.76259 0.4388 0.0
C90 C 0.85233 0.77567 0.41547 0.0
C91 C 0.86064 0.79366 0.40421 0.0
C92 C 0.82703 0.76395 0.41929 0.0
C93 C 0.81087 0.77052 0.4124 0.0
C94 C 0.81939 0.78876 0.40128 0.0
C95 C 0.93392 0.77739 0.41598 0.0
C96 C 0.95662 0.79546 0.42195 0.0
C97 C 0.93388 0.76573 0.40236 0.0
C98 C 0.95612 0.77201 0.39488 0.0
C99 C 0.97874 0.79051 0.40067 0.0
C100 C 0.97875 0.80214 0.41429 0.0
C101 C 0.84445 0.79977 0.3971 0.0
H102 H 0.91093 0.76857 0.49701 0.0
H103 H 0.91563 0.78223 0.4708 0.0
H104 H 0.84626 0.7193 0.45895 0.0
H105 H 0.84203 0.70455 0.48497 0.0
H106 H 0.92108 0.76299 0.44515 0.0
H107 H 0.85075 0.75993 0.44495 0.0
H108 H 0.89465 0.77837 0.40404 0.0
H109 H 0.8799 0.80365 0.401 0.0
H110 H 0.81957 0.74971 0.42767 0.0
H111 H 0.79182 0.76159 0.41608 0.0
H112 H 0.95717 0.80483 0.43237 0.0
H113 H 0.91663 0.75172 0.39753 0.0
H114 H 0.85185 0.81338 0.38832 0.0
H115 H 0.99594 0.81642 0.41901 0.0
H116 H 0.95561 0.76284 0.38438 0.0
C117 C 0.13764 0.24348 0.53493 0.0
C118 C 0.13875 0.26536 0.53107 0.0
C119 C 0.13429 0.2357 0.55006 0.0
C120 C 0.13142 0.24937 0.56163 0.0
C121 C 0.13249 0.27125 0.55778 0.0
C122 C 0.13642 0.27931 0.54268 0.0
C123 C 0.1269 0.24054 0.5776 0.0
C124 C 0.14256 0.23341 0.58463 0.0
C125 C 0.13816 0.22458 0.59961 0.0
C126 C 0.1173 0.22203 0.60732 0.0
C127 C 0.1012 0.22858 0.60038 0.0
C128 C 0.10641 0.23836 0.58566 0.0
C129 C 0.07794 0.22326 0.60814 0.0
C130 C 0.06019 0.19922 0.61122 0.0
C131 C 0.07347 0.24182 0.61276 0.0
C132 C 0.05188 0.2364 0.62079 0.0
C133 C 0.03409 0.21224 0.62411 0.0
C134 C 0.15505 0.21764 0.6072 0.0
C135 C 0.16124 0.20159 0.60013 0.0
C136 C 0.16471 0.2267 0.62175 0.0
C137 C 0.1803 0.21993 0.62905 0.0
C138 C 0.18613 0.20353 0.62211 0.0
C139 C 0.17641 0.19441 0.60757 0.0
C140 C 0.03846 0.19375 0.61891 0.0
H141 H 0.13944 0.2324 0.52623 0.0
H142 H 0.13342 0.21872 0.55269 0.0
H143 H 0.13042 0.28218 0.56647 0.0
H144 H 0.13706 0.29618 0.54 0.0
H145 H 0.15847 0.2352 0.57854 0.0
H146 H 0.09385 0.24316 0.58022 0.0
H147 H 0.11329 0.21449 0.61867 0.0
H148 H 0.0631 0.18458 0.60759 0.0
H149 H 0.08697 0.26053 0.61051 0.0
H150 H 0.04946 0.25121 0.62466 0.0
H151 H 0.15396 0.19424 0.58896 0.0
H152 H 0.16032 0.23917 0.62744 0.0
H153 H 0.02504 0.17489 0.62069 0.0
H154 H 0.18072 0.18186 0.60191 0.0
H155 H 0.18745 0.22717 0.64027 0.0
C156 C 0.71492 0.84292 0.54624 0.0
C157 C 0.72429 0.86151 0.53542 0.0
C158 C 0.72461 0.84721 0.56099 0.0
C159 C 0.74406 0.87016 0.56526 0.0
C160 C 0.75307 0.8889 0.55451 0.0
C161 C 0.74324 0.88464 0.53977 0.0
C162 C 0.75549 0.87424 0.58067 0.0
C163 C 0.75913 0.85631 0.58743 0.0
C164 C 0.7704 0.86006 0.60176 0.0
C165 C 0.77837 0.88209 0.60936 0.0
C166 C 0.77443 0.90012 0.60303 0.0
C167 C 0.763 0.89601 0.58863 0.0
C168 C 0.78191 0.92297 0.6116 0.0
C169 C 0.77961 0.92269 0.62753 0.0
C170 C 0.7916 0.94526 0.60402 0.0
C171 C 0.79902 0.96668 0.61219 0.0
C172 C 0.79723 0.9663 0.62811 0.0
C173 C 0.77321 0.84061 0.60895 0.0
C174 C 0.75275 0.81724 0.61007 0.0
C175 C 0.79615 0.84519 0.61474 0.0
C176 C 0.79871 0.8265 0.62117 0.0
C177 C 0.77827 0.80294 0.62212 0.0
C178 C 0.75519 0.79869 0.6167 0.0
C179 C 0.78738 0.94411 0.63569 0.0
H180 H 0.70002 0.82502 0.5433 0.0
H181 H 0.71683 0.83249 0.56904 0.0
H182 H 0.76823 0.90672 0.55734 0.0
H183 H 0.75098 0.89927 0.53164 0.0
H184 H 0.75371 0.83952 0.58141 0.0
H185 H 0.75935 0.9095 0.58378 0.0
H186 H 0.78739 0.88498 0.62033 0.0
H187 H 0.77165 0.90586 0.63375 0.0
H188 H 0.79395 0.94627 0.5918 0.0
H189 H 0.80672 0.98362 0.60611 0.0
H190 H 0.73477 0.81337 0.60593 0.0
H191 H 0.81223 0.86309 0.61396 0.0
H192 H 0.78547 0.94332 0.64795 0.0
H193 H 0.73887 0.781 0.61758 0.0
H194 H 0.81683 0.83043 0.62504 0.0
C195 C 0.10727 0.87104 0.5384 0.0
C196 C 0.12951 0.87248 0.53374 0.0
C197 C 0.1032 0.87368 0.55377 0.0
C198 C 0.12145 0.87811 0.56472 0.0
C199 C 0.1435 0.87919 0.56006 0.0
C200 C 0.14746 0.87634 0.54477 0.0
C201 C 0.11801 0.88226 0.58094 0.0
C202 C 0.09594 0.86683 0.58855 0.0
C203 C 0.09349 0.87008 0.60414 0.0
C204 C 0.11327 0.88908 0.61205 0.0
C205 C 0.13523 0.90518 0.60453 0.0
C206 C 0.13729 0.90159 0.58893 0.0
C207 C 0.15594 0.92576 0.61287 0.0
C208 C 0.15125 0.93783 0.6247 0.0
C209 C 0.18065 0.93378 0.60891 0.0
C210 C 0.20003 0.95365 0.61626 0.0
C211 C 0.19538 0.96576 0.62808 0.0
C212 C 0.07034 0.85365 0.61228 0.0
C213 C 0.04728 0.84818 0.60621 0.0
C214 C 0.07123 0.84382 0.62638 0.0
C215 C 0.0495 0.82883 0.63427 0.0
C216 C 0.02644 0.82359 0.62829 0.0
C217 C 0.02554 0.83341 0.61418 0.0
C218 C 0.17069 0.95737 0.63231 0.0
H219 H 0.09303 0.8679 0.53016 0.0
H220 H 0.08607 0.87283 0.55704 0.0
H221 H 0.15779 0.88234 0.56828 0.0
H222 H 0.16488 0.87778 0.54153 0.0
H223 H 0.08099 0.85182 0.58248 0.0
H224 H 0.15379 0.91411 0.58282 0.0
H225 H 0.11143 0.89129 0.6241 0.0
H226 H 0.13252 0.93251 0.62799 0.0
H227 H 0.18517 0.92475 0.6001 0.0
H228 H 0.21866 0.95969 0.61241 0.0
H229 H 0.04609 0.85565 0.59541 0.0
H230 H 0.08876 0.8476 0.63128 0.0
H231 H 0.16624 0.96585 0.6415 0.0
H232 H 0.008 0.82943 0.60923 0.0
H233 H 0.05074 0.82157 0.64514 0.0
C234 C 0.94481 0.47281 0.82193 0.0
C235 C 0.95917 0.462 0.82505 0.0
C236 C 0.93347 0.46969 0.80773 0.0
C237 C 0.93654 0.45601 0.79621 0.0
C238 C 0.95138 0.44562 0.79932 0.0
C239 C 0.96238 0.44841 0.81361 0.0
C240 C 0.92385 0.4522 0.78119 0.0
C241 C 0.92056 0.47055 0.77471 0.0
C242 C 0.90749 0.46675 0.76096 0.0
C243 C 0.89804 0.4443 0.75352 0.0
C244 C 0.90187 0.42609 0.75952 0.0
C245 C 0.91458 0.43005 0.77336 0.0
C246 C 0.89286 0.40298 0.75118 0.0
C247 C 0.86813 0.38952 0.74641 0.0
C248 C 0.90918 0.39455 0.74765 0.0
C249 C 0.90102 0.37323 0.73927 0.0
C250 C 0.87621 0.35959 0.73445 0.0
C251 C 0.90396 0.48632 0.75434 0.0
C252 C 0.89978 0.50169 0.76385 0.0
C253 C 0.90507 0.49003 0.73852 0.0
C254 C 0.90242 0.50883 0.73241 0.0
C255 C 0.89894 0.52452 0.74199 0.0
C256 C 0.89746 0.52065 0.75775 0.0
C257 C 0.85983 0.36794 0.73827 0.0
H258 H 0.94182 0.48315 0.83062 0.0
H259 H 0.92182 0.47759 0.80593 0.0
H260 H 0.95464 0.43539 0.79069 0.0
H261 H 0.97359 0.44011 0.8157 0.0
H262 H 0.92865 0.48807 0.78025 0.0
H263 H 0.91663 0.41553 0.77817 0.0
H264 H 0.88782 0.44097 0.74296 0.0
H265 H 0.85516 0.39558 0.74913 0.0
H266 H 0.92842 0.4048 0.75107 0.0
H267 H 0.91436 0.36776 0.73632 0.0
H268 H 0.89823 0.49908 0.77604 0.0
H269 H 0.90861 0.4788 0.73084 0.0
H270 H 0.8405 0.35776 0.73509 0.0
H271 H 0.89444 0.5323 0.76538 0.0
H272 H 0.90384 0.51157 0.72022 0.0
C273 C 0.56485 0.49241 0.81581 0.0
C274 C 0.55114 0.47407 0.82635 0.0
C275 C 0.56865 0.48664 0.80109 0.0
C276 C 0.55902 0.46238 0.79657 0.0
C277 C 0.5457 0.44406 0.80725 0.0
C278 C 0.5417 0.44984 0.82193 0.0
C279 C 0.5621 0.45623 0.78065 0.0
C280 C 0.5842 0.47066 0.77268 0.0
C281 C 0.58672 0.46563 0.75738 0.0
C282 C 0.56678 0.44587 0.7501 0.0
C283 C 0.54494 0.43103 0.75799 0.0
C284 C 0.54265 0.43621 0.77319 0.0
C285 C 0.52437 0.41011 0.75027 0.0
C286 C 0.51197 0.4136 0.73807 0.0
C287 C 0.51711 0.38656 0.75506 0.0
C288 C 0.49779 0.36669 0.74766 0.0
C289 C 0.48511 0.37015 0.7356 0.0
C290 C 0.61003 0.48102 0.74896 0.0
C291 C 0.62289 0.50626 0.75091 0.0
C292 C 0.61947 0.4706 0.73877 0.0
C293 C 0.64112 0.48507 0.73066 0.0
C294 C 0.65394 0.51032 0.73258 0.0
C295 C 0.6446 0.52072 0.74286 0.0
C296 C 0.49225 0.39373 0.73089 0.0
H297 H 0.57211 0.51124 0.81884 0.0
H298 H 0.57862 0.50122 0.79313 0.0
H299 H 0.53839 0.4252 0.80429 0.0
H300 H 0.53136 0.43533 0.82988 0.0
H301 H 0.59963 0.48558 0.77847 0.0
H302 H 0.52535 0.42499 0.77901 0.0
H303 H 0.56815 0.44194 0.73825 0.0
H304 H 0.51735 0.43168 0.73425 0.0
H305 H 0.52655 0.38359 0.76444 0.0
H306 H 0.49243 0.34862 0.7515 0.0
H307 H 0.61603 0.51493 0.75854 0.0
H308 H 0.61022 0.45119 0.73713 0.0
H309 H 0.4827 0.39674 0.7216 0.0
H310 H 0.65419 0.54007 0.74482 0.0
H311 H 0.64767 0.47646 0.72276 0.0
C312 C 0.57012 0.10404 0.8215 0.0
C313 C 0.54605 0.08581 0.82542 0.0
C314 C 0.57604 0.1119 0.80639 0.0
C315 C 0.55799 0.10196 0.79486 0.0
C316 C 0.53413 0.0835 0.7987 0.0
C317 C 0.5283 0.07544 0.8137 0.0
C318 C 0.56351 0.11099 0.7789 0.0
C319 C 0.58458 0.11372 0.77127 0.0
C320 C 0.58853 0.12051 0.75585 0.0
C321 C 0.57155 0.12527 0.74825 0.0
C322 C 0.55081 0.12344 0.75578 0.0
C323 C 0.54697 0.11616 0.77109 0.0
C324 C 0.53319 0.12913 0.74769 0.0
C325 C 0.54184 0.1483 0.73726 0.0
C326 C 0.5076 0.11568 0.75046 0.0
C327 C 0.49123 0.12148 0.74323 0.0
C328 C 0.49992 0.14082 0.73292 0.0
C329 C 0.60966 0.12153 0.74733 0.0
C330 C 0.63402 0.13478 0.75291 0.0
C331 C 0.60544 0.10916 0.73339 0.0
C332 C 0.625 0.10956 0.72539 0.0
C333 C 0.64934 0.12272 0.73097 0.0
C334 C 0.65373 0.13559 0.74472 0.0
C335 C 0.52545 0.15399 0.72995 0.0
H336 H 0.5843 0.11269 0.83014 0.0
H337 H 0.59456 0.12623 0.8038 0.0
H338 H 0.51991 0.07515 0.79004 0.0
H339 H 0.50979 0.06089 0.81604 0.0
H340 H 0.59727 0.1095 0.7771 0.0
H341 H 0.53124 0.11488 0.77712 0.0
H342 H 0.57447 0.13025 0.73635 0.0
H343 H 0.56139 0.15926 0.73491 0.0
H344 H 0.50013 0.10055 0.75822 0.0
H345 H 0.47178 0.11105 0.74597 0.0
H346 H 0.63783 0.14459 0.76357 0.0
H347 H 0.58687 0.0987 0.72883 0.0
H348 H 0.53288 0.16877 0.72193 0.0
H349 H 0.67228 0.14567 0.74935 0.0
H350 H 0.62108 0.09943 0.71485 0.0
C351 C 0.81336 0.59364 0.87298 0.0
C352 C 0.80465 0.60977 0.86992 0.0
C353 C 0.80783 0.58094 0.8868 0.0
C354 C 0.79364 0.58419 0.89806 0.0
C355 C 0.78469 0.60007 0.89481 0.0
C356 C 0.78973 0.61225 0.88096 0.0
C357 C 0.78862 0.5719 0.9133 0.0
C358 C 0.80588 0.56676 0.92026 0.0
C359 C 0.80208 0.55727 0.9351 0.0
C360 C 0.78088 0.55322 0.94315 0.0
C361 C 0.76315 0.55785 0.93643 0.0
C362 C 0.76696 0.56646 0.92139 0.0
C363 C 0.74132 0.55502 0.94526 0.0
C364 C 0.72856 0.53594 0.9556 0.0
C365 C 0.73327 0.57193 0.9435 0.0
C366 C 0.7133 0.56996 0.95181 0.0
C367 C 0.70078 0.5512 0.96234 0.0
C368 C 0.82039 0.55173 0.94225 0.0
C369 C 0.82807 0.53726 0.93456 0.0
C370 C 0.8299 0.56035 0.95691 0.0
C371 C 0.84661 0.55451 0.96374 0.0
C372 C 0.85372 0.53949 0.9562 0.0
C373 C 0.84432 0.53101 0.94151 0.0
C374 C 0.70849 0.53401 0.96401 0.0
H375 H 0.82496 0.59119 0.86487 0.0
H376 H 0.81482 0.56866 0.88863 0.0
H377 H 0.77415 0.6037 0.90309 0.0
H378 H 0.78198 0.62388 0.87903 0.0
H379 H 0.82281 0.57093 0.91444 0.0
H380 H 0.75284 0.569 0.91596 0.0
H381 H 0.77832 0.54662 0.95471 0.0
H382 H 0.73401 0.52241 0.95718 0.0
H383 H 0.7427 0.58709 0.93586 0.0
H384 H 0.70769 0.58331 0.94993 0.0
H385 H 0.821 0.53029 0.92329 0.0
H386 H 0.82444 0.57166 0.96308 0.0
H387 H 0.69936 0.51935 0.97203 0.0
H388 H 0.84956 0.51949 0.93539 0.0
H389 H 0.85346 0.56122 0.97509 0.0
C390 C 0.38949 0.1874 0.87817 0.0
C391 C 0.40258 0.20523 0.86713 0.0
C392 C 0.39919 0.18948 0.89284 0.0
C393 C 0.42196 0.20962 0.89689 0.0
C394 C 0.43532 0.22713 0.88587 0.0
C395 C 0.42592 0.22483 0.87114 0.0
C396 C 0.43116 0.21322 0.91277 0.0
C397 C 0.43466 0.19559 0.92015 0.0
C398 C 0.44377 0.19945 0.93517 0.0
C399 C 0.44822 0.22056 0.94291 0.0
C400 C 0.44439 0.23806 0.93581 0.0
C401 C 0.43631 0.23449 0.92062 0.0
C402 C 0.44806 0.25957 0.94454 0.0
C403 C 0.43813 0.25673 0.9592 0.0
C404 C 0.46149 0.28293 0.93843 0.0
C405 C 0.46492 0.30307 0.94686 0.0
C406 C 0.45467 0.30012 0.96144 0.0
C407 C 0.44895 0.18186 0.94303 0.0
C408 C 0.43172 0.15696 0.94292 0.0
C409 C 0.47078 0.19031 0.95162 0.0
C410 C 0.47478 0.1745 0.96047 0.0
C411 C 0.45709 0.14977 0.96097 0.0
C412 C 0.43576 0.14104 0.95182 0.0
C413 C 0.44131 0.27676 0.96753 0.0
H414 H 0.37137 0.17219 0.87567 0.0
H415 H 0.38847 0.17583 0.90121 0.0
H416 H 0.45305 0.24271 0.88869 0.0
H417 H 0.43698 0.23859 0.86293 0.0
H418 H 0.43104 0.17933 0.91407 0.0
H419 H 0.43314 0.24785 0.91507 0.0
H420 H 0.45465 0.2234 0.9546 0.0
H421 H 0.42753 0.23893 0.96416 0.0
H422 H 0.46948 0.28563 0.92719 0.0
H423 H 0.47512 0.32087 0.94185 0.0
H424 H 0.4147 0.14995 0.93645 0.0
H425 H 0.48466 0.20932 0.95167 0.0
H426 H 0.43332 0.27397 0.97878 0.0
H427 H 0.42178 0.12207 0.95198 0.0
H428 H 0.49171 0.18171 0.96706 0.0
C429 C 0.7702 0.18247 0.87255 0.0
C430 C 0.79341 0.18597 0.86807 0.0
C431 C 0.76625 0.1872 0.88753 0.0
C432 C 0.78546 0.19575 0.89832 0.0
C433 C 0.80851 0.19892 0.89392 0.0
C434 C 0.81241 0.194 0.87901 0.0
C435 C 0.78182 0.20206 0.91401 0.0
C436 C 0.76081 0.1863 0.92243 0.0
C437 C 0.75768 0.19213 0.93744 0.0
C438 C 0.77563 0.21436 0.94378 0.0
C439 C 0.79678 0.23013 0.93552 0.0
C440 C 0.79973 0.22385 0.92069 0.0
C441 C 0.81633 0.25295 0.94241 0.0
C442 C 0.81076 0.2699 0.94875 0.0
C443 C 0.841 0.25825 0.9421 0.0
C444 C 0.85985 0.28033 0.94764 0.0
C445 C 0.85458 0.29788 0.95337 0.0
C446 C 0.73637 0.17448 0.9467 0.0
C447 C 0.71276 0.16058 0.94016 0.0
C448 C 0.73972 0.17077 0.96208 0.0
C449 C 0.72008 0.15339 0.97062 0.0
C450 C 0.69658 0.13917 0.96401 0.0
C451 C 0.69311 0.14313 0.9487 0.0
C452 C 0.82972 0.29224 0.95411 0.0
H453 H 0.75522 0.17659 0.86441 0.0
H454 H 0.74835 0.1848 0.89057 0.0
H455 H 0.82355 0.20512 0.90205 0.0
H456 H 0.83033 0.19636 0.87611 0.0
H457 H 0.74743 0.16907 0.91749 0.0
H458 H 0.81592 0.2362 0.91424 0.0
H459 H 0.77343 0.21925 0.95525 0.0
H460 H 0.79183 0.26621 0.94906 0.0
H461 H 0.84572 0.24529 0.9375 0.0
H462 H 0.87864 0.28367 0.9473 0.0
H463 H 0.70945 0.16312 0.92839 0.0
H464 H 0.7577 0.18092 0.96746 0.0
H465 H 0.82495 0.30534 0.95835 0.0
H466 H 0.67534 0.13237 0.94318 0.0
H467 H 0.72335 0.15107 0.98243 0.0
C468 C 0.60762 0.81479 0.15062 0.0
C469 C 0.62635 0.81034 0.15573 0.0
C470 C 0.60013 0.81096 0.1354 0.0
C471 C 0.61109 0.80245 0.12496 0.0
C472 C 0.62945 0.79753 0.1301 0.0
C473 C 0.63706 0.80151 0.1453 0.0
C474 C 0.60382 0.79925 0.10868 0.0
C475 C 0.60096 0.81704 0.10111 0.0
C476 C 0.59444 0.81433 0.08569 0.0
C477 C 0.59114 0.79384 0.07775 0.0
C478 C 0.59223 0.77496 0.0853 0.0
C479 C 0.59906 0.77812 0.10079 0.0
C480 C 0.58399 0.7513 0.07738 0.0
C481 C 0.56585 0.7434 0.06588 0.0
C482 C 0.59301 0.73583 0.08164 0.0
C483 C 0.58342 0.71283 0.07503 0.0
C484 C 0.56499 0.70493 0.0637 0.0
C485 C 0.58803 0.83123 0.07823 0.0
C486 C 0.56987 0.83532 0.08468 0.0
C487 C 0.59783 0.84115 0.06395 0.0
C488 C 0.58909 0.85444 0.05608 0.0
C489 C 0.57014 0.8575 0.06228 0.0
C490 C 0.56083 0.84817 0.07669 0.0
C491 C 0.55698 0.72092 0.05893 0.0
H492 H 0.59862 0.82113 0.1584 0.0
H493 H 0.58564 0.81452 0.13181 0.0
H494 H 0.63837 0.79118 0.12226 0.0
H495 H 0.65176 0.7982 0.14879 0.0
H496 H 0.60384 0.83308 0.10718 0.0
H497 H 0.59959 0.76378 0.10701 0.0
H498 H 0.58646 0.79224 0.06578 0.0
H499 H 0.55775 0.75416 0.06237 0.0
H500 H 0.60731 0.74127 0.09021 0.0
H501 H 0.5901 0.70113 0.0791 0.0
H502 H 0.56181 0.82757 0.09558 0.0
H503 H 0.61179 0.83814 0.05875 0.0
H504 H 0.5435 0.71608 0.0499 0.0
H505 H 0.54617 0.85039 0.08162 0.0
H506 H 0.59642 0.86151 0.04493 0.0
C507 C 0.22195 0.82778 0.14682 0.0
C508 C 0.21207 0.80984 0.15806 0.0
C509 C 0.22494 0.82193 0.13192 0.0
C510 C 0.21834 0.79805 0.12795 0.0
C511 C 0.209 0.78027 0.13935 0.0
C512 C 0.20574 0.78607 0.15418 0.0
C513 C 0.2207 0.79151 0.11198 0.0
C514 C 0.24081 0.80732 0.1029 0.0
C515 C 0.24286 0.80117 0.08781 0.0
C516 C 0.22479 0.77876 0.08184 0.0
C517 C 0.20491 0.76243 0.09086 0.0
C518 C 0.2028 0.76921 0.10576 0.0
C519 C 0.18706 0.73775 0.08514 0.0
C520 C 0.17769 0.7339 0.0702 0.0
C521 C 0.17966 0.71767 0.09467 0.0
C522 C 0.16355 0.69433 0.08937 0.0
C523 C 0.15443 0.69038 0.07439 0.0
C524 C 0.26421 0.81804 0.07841 0.0
C525 C 0.26048 0.82499 0.06395 0.0
C526 C 0.28845 0.82769 0.08399 0.0
C527 C 0.30857 0.84414 0.07533 0.0
C528 C 0.30483 0.85158 0.06104 0.0
C529 C 0.2806 0.84181 0.0554 0.0
C530 C 0.16143 0.71044 0.0649 0.0
H531 H 0.22679 0.84623 0.14948 0.0
H532 H 0.23187 0.83604 0.12344 0.0
H533 H 0.20427 0.76182 0.13685 0.0
H534 H 0.19844 0.77195 0.16266 0.0
H535 H 0.25498 0.82445 0.10754 0.0
H536 H 0.18694 0.75705 0.11251 0.0
H537 H 0.22681 0.77368 0.07038 0.0
H538 H 0.18291 0.74902 0.06262 0.0
H539 H 0.18673 0.71993 0.10618 0.0
H540 H 0.15829 0.67929 0.09703 0.0
H541 H 0.24196 0.81785 0.05942 0.0
H542 H 0.29181 0.8225 0.09507 0.0
H543 H 0.15481 0.70795 0.05327 0.0
H544 H 0.27723 0.84722 0.0444 0.0
H545 H 0.32705 0.85155 0.08 0.0
C546 C 0.22787 0.42348 0.15042 0.0
C547 C 0.20668 0.4017 0.15458 0.0
C548 C 0.23093 0.43217 0.13554 0.0
C549 C 0.21272 0.41959 0.1244 0.0
C550 C 0.19114 0.39831 0.12859 0.0
C551 C 0.18821 0.38939 0.14346 0.0
C552 C 0.21676 0.42818 0.10836 0.0
C553 C 0.2393 0.43463 0.10115 0.0
C554 C 0.24322 0.44203 0.0859 0.0
C555 C 0.22454 0.4436 0.0779 0.0
C556 C 0.20204 0.43785 0.08498 0.0
C557 C 0.19821 0.42979 0.10017 0.0
C558 C 0.18261 0.44027 0.07648 0.0
C559 C 0.18894 0.46031 0.06704 0.0
C560 C 0.15756 0.42246 0.07765 0.0
C561 C 0.13939 0.42442 0.06944 0.0
C562 C 0.14572 0.44427 0.05985 0.0
C563 C 0.26693 0.44819 0.07836 0.0
C564 C 0.28953 0.46533 0.08494 0.0
C565 C 0.26716 0.43695 0.06462 0.0
C566 C 0.28961 0.44268 0.05764 0.0
C567 C 0.31217 0.46017 0.06409 0.0
C568 C 0.3119 0.47145 0.07779 0.0
C569 C 0.17071 0.46234 0.05888 0.0
H570 H 0.24224 0.43393 0.15867 0.0
H571 H 0.2476 0.44883 0.13272 0.0
H572 H 0.17685 0.38811 0.12023 0.0
H573 H 0.17176 0.37244 0.14607 0.0
H574 H 0.2536 0.43319 0.10728 0.0
H575 H 0.18106 0.42539 0.1058 0.0
H576 H 0.22759 0.44936 0.06614 0.0
H577 H 0.20801 0.47453 0.06601 0.0
H578 H 0.15199 0.40673 0.08473 0.0
H579 H 0.1203 0.41032 0.07064 0.0
H580 H 0.28986 0.47429 0.0955 0.0
H581 H 0.24999 0.42356 0.05937 0.0
H582 H 0.17626 0.47781 0.05157 0.0
H583 H 0.32905 0.48495 0.08302 0.0
H584 H 0.28933 0.43382 0.04705 0.0
C585 C 0.47614 0.9176 0.20411 0.0
C586 C 0.46649 0.93263 0.2001 0.0
C587 C 0.47372 0.90874 0.21901 0.0
C588 C 0.46171 0.91478 0.23032 0.0
C589 C 0.4526 0.93027 0.2263 0.0
C590 C 0.45487 0.93896 0.21146 0.0
C591 C 0.45852 0.90516 0.24623 0.0
C592 C 0.4772 0.90246 0.25349 0.0
C593 C 0.47477 0.89506 0.26878 0.0
C594 C 0.45333 0.89028 0.27682 0.0
C595 C 0.43393 0.89193 0.26974 0.0
C596 C 0.43678 0.89921 0.2544 0.0
C597 C 0.41073 0.88599 0.2783 0.0
C598 C 0.40157 0.86816 0.28967 0.0
C599 C 0.39735 0.89792 0.27514 0.0
C600 C 0.37535 0.89186 0.28283 0.0
C601 C 0.36614 0.87394 0.29416 0.0
C602 C 0.49486 0.89296 0.27662 0.0
C603 C 0.50418 0.87873 0.27044 0.0
C604 C 0.50464 0.905 0.29051 0.0
C605 C 0.52365 0.90331 0.29789 0.0
C606 C 0.53298 0.88909 0.29174 0.0
C607 C 0.52286 0.87659 0.27802 0.0
C608 C 0.37986 0.86244 0.29756 0.0
H609 H 0.48507 0.91222 0.19565 0.0
H610 H 0.48083 0.89675 0.22156 0.0
H611 H 0.44385 0.93596 0.2347 0.0
H612 H 0.4477 0.95092 0.20892 0.0
H613 H 0.4941 0.90701 0.24749 0.0
H614 H 0.42179 0.89988 0.24864 0.0
H615 H 0.4519 0.88524 0.28867 0.0
H616 H 0.41092 0.85821 0.29241 0.0
H617 H 0.40384 0.9121 0.26673 0.0
H618 H 0.36539 0.90103 0.27964 0.0
H619 H 0.49688 0.86912 0.25981 0.0
H620 H 0.49789 0.91614 0.29553 0.0
H621 H 0.37393 0.84892 0.30638 0.0
H622 H 0.52988 0.86572 0.27295 0.0
H623 H 0.53116 0.91322 0.30841 0.0
C624 C 0.05104 0.52206 0.20969 0.0
C625 C 0.06244 0.54053 0.1988 0.0
C626 C 0.06134 0.52473 0.22422 0.0
C627 C 0.08294 0.54611 0.22831 0.0
C628 C 0.09439 0.56457 0.21755 0.0
C629 C 0.08445 0.56172 0.20292 0.0
C630 C 0.09339 0.54932 0.24384 0.0
C631 C 0.09976 0.53269 0.24968 0.0
C632 C 0.11 0.53574 0.26437 0.0
C633 C 0.11338 0.55562 0.2732 0.0
C634 C 0.10714 0.57249 0.26752 0.0
C635 C 0.09723 0.56919 0.25276 0.0
C636 C 0.11144 0.59373 0.27695 0.0
C637 C 0.10746 0.59142 0.29276 0.0
C638 C 0.12031 0.61663 0.27034 0.0
C639 C 0.12558 0.63678 0.27934 0.0
C640 C 0.12234 0.63452 0.29517 0.0
C641 C 0.11765 0.51855 0.27037 0.0
C642 C 0.10418 0.4938 0.26659 0.0
C643 C 0.13871 0.52679 0.27977 0.0
C644 C 0.14612 0.51076 0.28515 0.0
C645 C 0.13297 0.48626 0.281 0.0
C646 C 0.1119 0.4779 0.27173 0.0
C647 C 0.11301 0.61161 0.30176 0.0
H648 H 0.03388 0.50566 0.20715 0.0
H649 H 0.0521 0.51031 0.23239 0.0
H650 H 0.11124 0.58113 0.22042 0.0
H651 H 0.09422 0.57614 0.19484 0.0
H652 H 0.09742 0.51783 0.24252 0.0
H653 H 0.09197 0.58179 0.24827 0.0
H654 H 0.12111 0.55812 0.28453 0.0
H655 H 0.1001 0.574 0.29821 0.0
H656 H 0.12391 0.61919 0.25826 0.0
H657 H 0.13297 0.65429 0.27399 0.0
H658 H 0.0876 0.4866 0.25968 0.0
H659 H 0.14991 0.54575 0.28271 0.0
H660 H 0.11002 0.60931 0.31391 0.0
H661 H 0.10135 0.459 0.26848 0.0
H662 H 0.16259 0.51766 0.29216 0.0
C663 C 0.44446 0.53472 0.20419 0.0
C664 C 0.4679 0.53845 0.2002 0.0
C665 C 0.43912 0.5373 0.2193 0.0
C666 C 0.45727 0.54413 0.23068 0.0
C667 C 0.48065 0.54765 0.22672 0.0
C668 C 0.48584 0.54461 0.21165 0.0
C669 C 0.45206 0.54831 0.24655 0.0
C670 C 0.43065 0.5309 0.25404 0.0
C671 C 0.42572 0.53482 0.26907 0.0
C672 C 0.44189 0.55684 0.27631 0.0
C673 C 0.46313 0.57448 0.26893 0.0
C674 C 0.46839 0.56995 0.25417 0.0
C675 C 0.47939 0.59786 0.27663 0.0
C676 C 0.46966 0.61232 0.28156 0.0
C677 C 0.50437 0.60554 0.27947 0.0
C678 C 0.5192 0.62703 0.28755 0.0
C679 C 0.50945 0.64152 0.2927 0.0
C680 C 0.40444 0.51562 0.27754 0.0
C681 C 0.38061 0.50336 0.27108 0.0
C682 C 0.40806 0.5092 0.29219 0.0
C683 C 0.38848 0.49055 0.30008 0.0
C684 C 0.36472 0.47811 0.29359 0.0
C685 C 0.36086 0.4849 0.27911 0.0
C686 C 0.48455 0.63401 0.28932 0.0
H687 H 0.43026 0.52986 0.19559 0.0
H688 H 0.42099 0.53459 0.22203 0.0
H689 H 0.49493 0.5528 0.23529 0.0
H690 H 0.5041 0.54773 0.20888 0.0
H691 H 0.4183 0.51395 0.24835 0.0
H692 H 0.48474 0.58363 0.24843 0.0
H693 H 0.43801 0.56023 0.28779 0.0
H694 H 0.45049 0.60687 0.27933 0.0
H695 H 0.51221 0.59456 0.27582 0.0
H696 H 0.53812 0.6319 0.29005 0.0
H697 H 0.37729 0.50804 0.25984 0.0
H698 H 0.42624 0.51822 0.29742 0.0
H699 H 0.47643 0.64488 0.29263 0.0
H700 H 0.34275 0.47545 0.27381 0.0
H701 H 0.39194 0.48569 0.31123 0.0
Tb702 Tb 0.49201 0.98603 0.99584 0.0
C703 C 0.57003 0.03939 0.04107 0.0
C704 C 0.57958 0.01638 0.0589 0.0
C705 C 0.61198 0.05592 0.05073 0.0
C706 C 0.56272 0.01858 0.04927 0.0
C707 C 0.5947 0.05852 0.04187 0.0
C708 C 0.6044 0.03491 0.05929 0.0
C709 C 0.58286 0.08207 0.02623 0.0
N710 N 0.55264 0.04136 0.03291 0.0
C711 C 0.55862 0.06264 0.02582 0.0
C712 C 0.60106 0.07992 0.03412 0.0
Tb713 Tb 0.51324 0.00887 0.03359 0.0
N714 N 0.5386 0.00114 0.04859 0.0
C715 C 0.52959 0.9821 0.0585 0.0
C716 C 0.57075 0.99614 0.0683 0.0
C717 C 0.54558 0.97906 0.06823 0.0
H718 H 0.54503 0.06477 0.01951 0.0
H719 H 0.53844 0.96365 0.07574 0.0
H720 H 0.61772 0.03346 0.06648 0.0
H721 H 0.58745 0.09872 0.02045 0.0
H722 H 0.51008 0.969 0.05868 0.0
H723 H 0.39483 0.9592 0.99082 0.0
H724 H 0.58307 0.99385 0.07593 0.0
H725 H 0.51988 0.95635 0.98151 0.0
H726 H 0.43907 0.98816 0.99157 0.0
H727 H 0.50817 0.91436 0.97556 0.0
H728 H 0.63106 0.07033 0.05139 0.0
H729 H 0.3798 0.91529 0.99083 0.0
H730 H 0.38973 0.88185 0.98868 0.0
H731 H 0.61981 0.09502 0.03442 0.0
H732 H 0.42081 0.86956 0.98425 0.0
N733 N 0.44994 0.96125 0.99341 0.0
C734 C 0.43329 0.96921 0.99207 0.0
C735 C 0.39948 0.92799 0.99138 0.0
C736 C 0.41662 0.91998 0.99102 0.0
C737 C 0.40789 0.95275 0.99137 0.0
C738 C 0.44205 0.93729 0.99175 0.0
H739 H 0.46493 0.88166 0.97879 0.0
N740 N 0.48361 0.94792 0.98837 0.0
C741 C 0.4943 0.9186 0.97943 0.0
C742 C 0.45948 0.93038 0.98908 0.0
C743 C 0.50079 0.94253 0.98264 0.0
C744 C 0.46992 0.90017 0.98136 0.0
C745 C 0.45202 0.906 0.98583 0.0
O746 O 0.50903 0.01611 0.98108 0.0
O747 O 0.52211 0.0129 1.00961 0.0
O748 O 0.50382 0.03365 0.02186 0.0
O749 O 0.47753 0.00969 1.00252 0.0
O750 O 0.53025 0.99497 0.99308 0.0
O751 O 0.4819 0.98185 0.97259 0.0
O752 O 0.51628 0.03711 0.04764 0.0
O753 O 0.48123 0.98808 0.01879 0.0
O754 O 0.4991 0.96047 1.00889 0.0
O755 O 0.52605 0.98338 0.02858 0.0
O756 O 0.48211 0.97337 0.03929 0.0
O757 O 0.49171 1.0003 0.05356 0.0
C758 C 0.53961 0.01123 1.00354 0.0
C759 C 0.51373 0.00701 0.95565 0.0
C760 C 0.52741 0.02161 0.92962 0.0
C761 C 0.51279 0.01929 0.94254 0.0
C762 C 0.5429 0.01141 0.93025 0.0
C763 C 0.52961 0.99741 0.95582 0.0
C764 C 0.54409 0.99965 0.94326 0.0
C765 C 0.48819 0.02995 0.01059 0.0
C766 C 0.49793 0.00387 0.96899 0.0
C767 C 0.42686 0.88844 0.98645 0.0
C768 C 0.40917 0.89543 0.989 0.0
C769 C 0.46925 0.96998 0.02719 0.0
C770 C 0.51489 0.02645 0.07377 0.0
C771 C 0.50225 0.01079 0.08603 0.0
C772 C 0.51402 0.01366 0.10031 0.0
C773 C 0.53856 0.0326 0.10208 0.0
C774 C 0.53939 0.04512 0.07606 0.0
C775 C 0.55104 0.04808 0.09007 0.0
C776 C 0.51506 0.96377 0.01993 0.0
C777 C 0.50318 0.02245 0.05844 0.0
H778 H 0.50076 0.02699 0.94247 0.0
H779 H 0.55379 0.01194 0.92055 0.0
H780 H 0.53072 0.98792 0.96559 0.0
H781 H 0.55607 0.9919 0.94352 0.0
H782 H 0.48349 0.99614 0.08432 0.0
H783 H 0.54808 0.03579 0.11288 0.0
H784 H 0.54977 0.05739 0.06697 0.0
H785 H 0.56991 0.06254 0.09165 0.0
Tb786 Tb 0.02348 0.50883 0.9959 0.0
C787 C 0.92442 0.45763 0.0301 0.0
C788 C 0.90989 0.48626 0.02839 0.0
C789 C 0.8803 0.44323 0.02994 0.0
C790 C 0.92933 0.48104 0.02881 0.0
C791 C 0.89989 0.43841 0.03113 0.0
C792 C 0.8853 0.46716 0.02854 0.0
C793 C 0.91615 0.41172 0.03596 0.0
N794 N 0.94388 0.4539 0.03128 0.0
C795 C 0.94014 0.43141 0.03475 0.0
C796 C 0.8959 0.41514 0.03385 0.0
Tb797 Tb 0.98253 0.48699 0.02872 0.0
N798 N 0.95329 0.49882 0.02887 0.0
C799 C 0.95911 0.5225 0.02984 0.0
C800 C 0.91579 0.51048 0.02833 0.0
C801 C 0.94051 0.52868 0.02936 0.0
H802 H 0.95562 0.42849 0.03624 0.0
H803 H 0.94529 0.54748 0.02966 0.0
H804 H 0.87007 0.47074 0.02804 0.0
H805 H 0.9133 0.39391 0.03843 0.0
H806 H 0.97813 0.53681 0.03049 0.0
H807 H 0.06613 0.45418 0.98613 0.0
H808 H 0.90143 0.5153 0.02794 0.0
H809 H 0.04732 0.56855 0.99699 0.0
H810 H 0.03143 0.46188 0.98887 0.0
H811 H 0.08864 0.60489 0.99759 0.0
H812 H 0.86129 0.4287 0.03052 0.0
H813 H 0.10918 0.48795 0.98827 0.0
H814 H 0.13834 0.53263 0.99147 0.0
H815 H 0.87734 0.39985 0.03475 0.0
H816 H 0.14449 0.57369 0.99452 0.0
N817 N 0.05437 0.49961 0.99317 0.0
C818 C 0.05006 0.47684 0.98992 0.0
C819 C 0.09398 0.49146 0.98954 0.0
C820 C 0.09833 0.51493 0.99202 0.0
C821 C 0.06972 0.47237 0.98831 0.0
C822 C 0.07787 0.51845 0.99366 0.0
H823 H 0.12604 0.60084 0.99672 0.0
N824 N 0.06101 0.54391 0.99609 0.0
C825 C 0.08685 0.58714 0.9969 0.0
C826 C 0.08135 0.54145 0.99514 0.0
C827 C 0.06342 0.56645 0.99648 0.0
C828 C 0.10792 0.58478 0.99645 0.0
C829 C 0.10534 0.56174 0.99537 0.0
O830 O 0.02092 0.52513 0.97583 0.0
O831 O 0.98945 0.50223 1.00628 0.0
O832 O 0.96385 0.46041 0.01039 0.0
O833 O 0.99725 0.46967 0.99413 0.0
O834 O 0.00704 0.53237 0.99366 0.0
O835 O 0.01784 0.48985 0.97528 0.0
O836 O 0.98866 0.47448 0.04942 0.0
O837 O 0.01462 0.49074 0.01735 0.0
O838 O 0.0437 0.52823 0.01623 0.0
O839 O 0.01067 0.52605 0.02962 0.0
O840 O 0.99767 0.46271 0.03217 0.0
O841 O 0.98784 0.50779 0.04853 0.0
C842 C 0.9872 0.51944 1.00123 0.0
C843 C 0.03405 0.51426 0.9535 0.0
C844 C 0.03654 0.50984 0.92611 0.0
C845 C 0.02315 0.50251 0.93975 0.0
C846 C 0.06115 0.52884 0.92642 0.0
C847 C 0.05875 0.53302 0.95367 0.0
C848 C 0.07223 0.54019 0.94017 0.0
C849 C 0.97406 0.4554 0.99867 0.0
C850 C 0.01882 0.50744 0.96728 0.0
C851 C 0.12587 0.55835 0.99429 0.0
C852 C 0.12237 0.53498 0.99257 0.0
C853 C 0.01598 0.47331 0.02303 0.0
C854 C 0.97663 0.48633 0.07172 0.0
C855 C 0.98961 0.498 0.08504 0.0
C856 C 0.97808 0.49118 0.0993 0.0
C857 C 0.95328 0.47269 0.10008 0.0
C858 C 0.95173 0.46819 0.07264 0.0
C859 C 0.94015 0.46145 0.08678 0.0
C860 C 0.0347 0.53604 0.02701 0.0
C861 C 0.98996 0.49244 0.05722 0.0
H862 H 1.00399 0.48815 0.93958 0.0
H863 H 0.07182 0.53477 0.91604 0.0
H864 H 0.06748 0.54235 0.96415 0.0
H865 H 0.09124 0.55476 0.94034 0.0
H866 H 0.00889 0.51195 0.08436 0.0
H867 H 0.94403 0.46716 0.11094 0.0
H868 H 0.9414 0.45904 0.0625 0.0
H869 H 0.92099 0.44733 0.08745 0.0
Tb870 Tb 0.51761 0.49697 0.03035 0.0
C871 C 0.46134 0.52918 0.98768 0.0
C872 C 0.41838 0.49936 0.99129 0.0
C873 C 0.42979 0.54063 0.98481 0.0
C874 C 0.44359 0.50601 0.99124 0.0
C875 C 0.45474 0.54675 0.98413 0.0
C876 C 0.41162 0.51694 0.9884 0.0
C877 C 0.49764 0.57441 0.9785 0.0
N878 N 0.48513 0.53424 0.98715 0.0
C879 C 0.5032 0.55629 0.98207 0.0
C880 C 0.47333 0.56972 0.9797 0.0
Tb881 Tb 0.49291 0.50406 0.99427 0.0
N882 N 0.45099 0.48968 0.9939 0.0
C883 C 0.43371 0.46574 0.99551 0.0
C884 C 0.40077 0.47516 0.99384 0.0
C885 C 0.40847 0.45821 0.99568 0.0
H886 H 0.5221 0.56025 0.98123 0.0
H887 H 0.39499 0.43933 0.99732 0.0
H888 H 0.39238 0.51227 0.98855 0.0
H889 H 0.51211 0.59199 0.97485 0.0
H890 H 0.43913 0.45229 0.99706 0.0
H891 H 0.61541 0.56178 0.03373 0.0
H892 H 0.38122 0.46929 0.99403 0.0
H893 H 0.48684 0.43938 0.04069 0.0
H894 H 0.5712 0.5488 0.03199 0.0
H895 H 0.496 0.40669 0.046 0.0
H896 H 0.42433 0.55391 0.98226 0.0
H897 H 0.62883 0.53135 0.03565 0.0
H898 H 0.61707 0.48767 0.03866 0.0
H899 H 0.46906 0.58376 0.9769 0.0
H900 H 0.58445 0.44529 0.04214 0.0
N901 N 0.5593 0.51114 0.03231 0.0
C902 C 0.5766 0.5352 0.0328 0.0
C903 C 0.60931 0.5255 0.03485 0.0
C904 C 0.59147 0.50098 0.03552 0.0
C905 C 0.6018 0.54271 0.03382 0.0
C906 C 0.56634 0.49438 0.03437 0.0
H907 H 0.53916 0.41492 0.04513 0.0
N908 N 0.52438 0.46579 0.03643 0.0
C909 C 0.51087 0.42464 0.04332 0.0
C910 C 0.54818 0.47079 0.03656 0.0
C911 C 0.50577 0.44326 0.04038 0.0
C912 C 0.53524 0.42933 0.04276 0.0
C913 C 0.55433 0.45276 0.03964 0.0
O914 O 0.50118 0.48684 0.05195 0.0
O915 O 0.48755 0.49674 0.01819 0.0
O916 O 0.49863 0.53379 1.00901 0.0
O917 O 0.52816 0.53529 0.02618 0.0
O918 O 0.47796 0.47269 0.03522 0.0
O919 O 0.53071 0.52317 0.04777 0.0
O920 O 0.50934 0.51171 0.97262 0.0
O921 O 0.52361 0.50547 1.00655 0.0
O922 O 0.51376 0.46858 0.01456 0.0
O923 O 0.48209 0.46637 0.99939 0.0
O924 O 0.53188 0.52916 0.98905 0.0
O925 O 0.47777 0.4769 0.97748 0.0
C926 C 0.46906 0.48097 0.02528 0.0
C927 C 0.52603 0.50873 0.07296 0.0
C928 C 0.52546 0.51507 0.10043 0.0
C929 C 0.51558 0.51343 0.08573 0.0
C930 C 0.54589 0.51151 0.10202 0.0
C931 C 0.54625 0.50512 0.07483 0.0
C932 C 0.55606 0.50646 0.08933 0.0
C933 C 0.51573 0.54487 0.01968 0.0
C934 C 0.51566 0.50811 0.05783 0.0
C935 C 0.57929 0.4589 0.03993 0.0
C936 C 0.59786 0.48301 0.03793 0.0
C937 C 0.54138 0.52212 0.99937 0.0
C938 C 0.48262 0.49097 0.95217 0.0
C939 C 0.49591 0.49209 0.93908 0.0
C940 C 0.48639 0.49187 0.92453 0.0
C941 C 0.46326 0.4905 0.92328 0.0
C942 C 0.4597 0.48991 0.95075 0.0
C943 C 0.45009 0.48965 0.93633 0.0
C944 C 0.49497 0.45686 1.00506 0.0
C945 C 0.4931 0.49076 0.96711 0.0
H946 H 0.49962 0.51569 0.08415 0.0
H947 H 0.55436 0.51304 0.11303 0.0
H948 H 0.55449 0.50141 0.06513 0.0
H949 H 0.57179 0.50382 0.09072 0.0
H950 H 0.51356 0.49277 0.94022 0.0
H951 H 0.45554 0.49045 0.91223 0.0
H952 H 0.44921 0.48917 0.96072 0.0
H953 H 0.43238 0.48878 0.93527 0.0
Tb954 Tb 0.16267 0.31617 0.32527 0.0
C955 C 0.21879 0.40942 0.36461 0.0
C956 C 0.26116 0.41821 0.36524 0.0
C957 C 0.25207 0.45094 0.3677 0.0
C958 C 0.23566 0.40162 0.36371 0.0
C959 C 0.22667 0.43411 0.36692 0.0
C960 C 0.26931 0.44298 0.36692 0.0
C961 C 0.18384 0.42327 0.36909 0.0
N962 N 0.19449 0.3925 0.36407 0.0
C963 C 0.17698 0.39897 0.36688 0.0
C964 C 0.20879 0.44097 0.36888 0.0
Tb965 Tb 0.18484 0.3532 0.35975 0.0
N966 N 0.22692 0.37753 0.36241 0.0
C967 C 0.2428 0.36869 0.36387 0.0
C968 C 0.27758 0.40932 0.3656 0.0
C969 C 0.2683 0.3844 0.3652 0.0
H970 H 0.15761 0.38561 0.36704 0.0
H971 H 0.28077 0.37725 0.36588 0.0
H972 H 0.28883 0.45604 0.36798 0.0
H973 H 0.16985 0.42831 0.37091 0.0
H974 H 0.23612 0.34952 0.36361 0.0
H975 H 0.06814 0.29579 0.31799 0.0
H976 H 0.29732 0.42145 0.36668 0.0
H977 H 0.18796 0.28159 0.32066 0.0
H978 H 0.1131 0.32224 0.32053 0.0
H979 H 0.17402 0.23809 0.31833 0.0
H980 H 0.25854 0.47002 0.36935 0.0
H981 H 0.04987 0.25133 0.31814 0.0
H982 H 0.05649 0.21549 0.31827 0.0
H983 H 0.21405 0.45976 0.37066 0.0
H984 H 0.08537 0.19972 0.31835 0.0
N985 N 0.12055 0.29318 0.32268 0.0
C986 C 0.10556 0.30291 0.32062 0.0
C987 C 0.06969 0.26288 0.31931 0.0
C988 C 0.08526 0.25303 0.32038 0.0
C989 C 0.07995 0.28795 0.31917 0.0
C990 C 0.1109 0.26889 0.32196 0.0
H991 H 0.12931 0.20804 0.31822 0.0
N992 N 0.15153 0.27626 0.32236 0.0
C993 C 0.16058 0.24402 0.31933 0.0
C994 C 0.12701 0.26009 0.32179 0.0
C995 C 0.16841 0.26868 0.32059 0.0
C996 C 0.13534 0.22711 0.31933 0.0
C997 C 0.11817 0.23509 0.3203 0.0
O998 O 0.1799 0.31635 0.30457 0.0
O999 O 0.19288 0.34563 0.33719 0.0
O1000 O 0.1851 0.37711 0.34179 0.0
O1001 O 0.15726 0.34785 0.32462 0.0
O1002 O 0.20142 0.3253 0.32323 0.0
O1003 O 0.15339 0.32858 0.3057 0.0
O1004 O 0.16383 0.34687 0.37965 0.0
O1005 O 0.15465 0.32363 0.3477 0.0
O1006 O 0.16265 0.29332 0.34382 0.0
O1007 O 0.19301 0.32333 0.35923 0.0
O1008 O 0.14626 0.34484 0.36078 0.0
O1009 O 0.19611 0.34308 0.37975 0.0
C1010 C 0.21074 0.34381 0.3321 0.0
C1011 C 0.15817 0.31447 0.28188 0.0
C1012 C 0.15932 0.31965 0.25423 0.0
C1013 C 0.16929 0.32836 0.26883 0.0
C1014 C 0.13803 0.2967 0.25295 0.0
C1015 C 0.13708 0.2916 0.28032 0.0
C1016 C 0.12711 0.28279 0.2659 0.0
C1017 C 0.1707 0.37057 0.32951 0.0
C1018 C 0.16805 0.32494 0.29696 0.0
C1019 C 0.09258 0.21902 0.3194 0.0
C1020 C 0.07615 0.228 0.31937 0.0
C1021 C 0.13689 0.32615 0.35207 0.0
C1022 C 0.18406 0.35238 0.40325 0.0
C1023 C 0.17626 0.33688 0.4159 0.0
C1024 C 0.1797 0.34617 0.4309 0.0
C1025 C 0.19162 0.3715 0.43282 0.0
C1026 C 0.19612 0.37744 0.40553 0.0
C1027 C 0.19993 0.3869 0.42026 0.0
C1028 C 0.17967 0.30052 0.35465 0.0
C1029 C 0.1781 0.3419 0.38781 0.0
H1030 H 0.18539 0.3462 0.2701 0.0
H1031 H 0.13003 0.28935 0.24191 0.0
H1032 H 0.1282 0.28073 0.29023 0.0
H1033 H 0.11079 0.26513 0.26476 0.0
H1034 H 0.16743 0.31757 0.41392 0.0
H1035 H 0.19414 0.37959 0.44398 0.0
H1036 H 0.20225 0.38964 0.39595 0.0
H1037 H 0.20899 0.40628 0.42195 0.0
Tb1038 Tb 0.68871 0.83602 0.32792 0.0
C1039 C 0.60404 0.81928 0.37075 0.0
C1040 C 0.5956 0.85184 0.36629 0.0
C1041 C 0.56275 0.8129 0.37502 0.0
C1042 C 0.61193 0.84259 0.36609 0.0
C1043 C 0.57949 0.80424 0.37554 0.0
C1044 C 0.57081 0.83669 0.37043 0.0
C1045 C 0.59044 0.774 0.38204 0.0
N1046 N 0.62083 0.8117 0.37117 0.0
C1047 C 0.61461 0.78963 0.37719 0.0
C1048 C 0.57272 0.78122 0.38106 0.0
Tb1049 Tb 0.65995 0.83865 0.36313 0.0
N1050 N 0.63611 0.85672 0.36248 0.0
C1051 C 0.64562 0.88099 0.36034 0.0
C1052 C 0.60491 0.87627 0.36292 0.0
C1053 C 0.63013 0.891 0.36023 0.0
H1054 H 0.62809 0.78378 0.37792 0.0
H1055 H 0.63769 0.91009 0.35806 0.0
H1056 H 0.55791 0.8434 0.3705 0.0
H1057 H 0.5855 0.75638 0.38651 0.0
H1058 H 0.6651 0.8927 0.35832 0.0
H1059 H 0.70728 0.76312 0.33888 0.0
H1060 H 0.59297 0.88408 0.36289 0.0
H1061 H 0.72184 0.88716 0.30926 0.0
H1062 H 0.68128 0.78174 0.33617 0.0
H1063 H 0.76475 0.91217 0.30041 0.0
H1064 H 0.54374 0.80157 0.37853 0.0
H1065 H 0.75231 0.78727 0.33439 0.0
H1066 H 0.78866 0.82644 0.32574 0.0
H1067 H 0.55403 0.7691 0.38486 0.0
H1068 H 0.80436 0.86714 0.31505 0.0
N1069 N 0.7112 0.81661 0.33049 0.0
C1070 C 0.70083 0.79264 0.33408 0.0
C1071 C 0.74095 0.79561 0.33316 0.0
C1072 C 0.7512 0.81963 0.3285 0.0
C1073 C 0.71555 0.78192 0.33566 0.0
C1074 C 0.73557 0.82959 0.32711 0.0
H1075 H 0.7954 0.89906 0.30518 0.0
N1076 N 0.72812 0.86029 0.31922 0.0
C1077 C 0.75931 0.89542 0.30633 0.0
C1078 C 0.74436 0.85229 0.32118 0.0
C1079 C 0.73496 0.88115 0.31135 0.0
C1080 C 0.77657 0.888 0.30908 0.0
C1081 C 0.76909 0.86598 0.31637 0.0
O1082 O 0.68139 0.84142 0.30531 0.0
O1083 O 0.66197 0.84313 0.33879 0.0
O1084 O 0.63145 0.80976 0.3491 0.0
O1085 O 0.6566 0.80082 0.33417 0.0
O1086 O 0.68008 0.86372 0.3204 0.0
O1087 O 0.67355 0.80627 0.313 0.0
O1088 O 0.66574 0.83185 0.38576 0.0
O1089 O 0.68748 0.83304 0.35222 0.0
O1090 O 0.71644 0.8679 0.34026 0.0
O1091 O 0.69152 0.87456 0.35729 0.0
O1092 O 0.6709 0.81212 0.37036 0.0
O1093 O 0.67504 0.86775 0.37856 0.0
C1094 C 0.66371 0.85998 0.33045 0.0
C1095 C 0.68589 0.81636 0.28744 0.0
C1096 C 0.68768 0.81672 0.25974 0.0
C1097 C 0.67755 0.81959 0.27331 0.0
C1098 C 0.70636 0.81055 0.26049 0.0
C1099 C 0.70468 0.81035 0.28801 0.0
C1100 C 0.71483 0.80747 0.27457 0.0
C1101 C 0.63463 0.79531 0.33967 0.0
C1102 C 0.67462 0.8193 0.30136 0.0
C1103 C 0.7852 0.85681 0.3185 0.0
C1104 C 0.77626 0.83364 0.32459 0.0
C1105 C 0.68799 0.81732 0.36055 0.0
C1106 C 0.66252 0.85719 0.40413 0.0
C1107 C 0.671 0.85359 0.41814 0.0
C1108 C 0.66171 0.85708 0.43191 0.0
C1109 C 0.64367 0.86413 0.43145 0.0
C1110 C 0.64441 0.86412 0.40392 0.0
C1111 C 0.63504 0.86752 0.41753 0.0
C1112 C 0.71296 0.88148 0.35035 0.0
C1113 C 0.67326 0.85405 0.39001 0.0
H1114 H 0.66288 0.82401 0.27291 0.0
H1115 H 0.71463 0.8084 0.25022 0.0
H1116 H 0.71143 0.80776 0.29877 0.0
H1117 H 0.72931 0.80284 0.27506 0.0
H1118 H 0.68518 0.84849 0.41831 0.0
H1119 H 0.63602 0.86674 0.44186 0.0
H1120 H 0.63762 0.8671 0.3933 0.0
H1121 H 0.62108 0.87287 0.41728 0.0
Tb1122 Tb 0.18486 0.8343 0.36541 0.0
C1123 C 0.1283 0.85916 0.31865 0.0
C1124 C 0.08554 0.82925 0.32301 0.0
C1125 C 0.09598 0.86878 0.31319 0.0
C1126 C 0.11089 0.83651 0.32352 0.0
C1127 C 0.1211 0.87541 0.31307 0.0
C1128 C 0.07822 0.84572 0.31819 0.0
C1129 C 0.16378 0.90261 0.30656 0.0
N1130 N 0.15229 0.86481 0.31871 0.0
C1131 C 0.16998 0.88586 0.31226 0.0
C1132 C 0.13927 0.89751 0.30716 0.0
Tb1133 Tb 0.16075 0.83639 0.3283 0.0
N1134 N 0.11875 0.82108 0.32784 0.0
C1135 C 0.1019 0.79734 0.33059 0.0
C1136 C 0.06833 0.80543 0.32686 0.0
C1137 C 0.07654 0.78929 0.33039 0.0
H1138 H 0.18899 0.89002 0.31186 0.0
H1139 H 0.06337 0.77066 0.33304 0.0
H1140 H 0.05885 0.84058 0.31786 0.0
H1141 H 0.17791 0.91946 0.30177 0.0
H1142 H 0.1078 0.78456 0.33342 0.0
H1143 H 0.28235 0.89925 0.35986 0.0
H1144 H 0.04868 0.79914 0.32669 0.0
H1145 H 0.15677 0.78163 0.38306 0.0
H1146 H 0.238 0.88574 0.3598 0.0
H1147 H 0.16769 0.75231 0.39351 0.0
H1148 H 0.09006 0.88109 0.3091 0.0
H1149 H 0.29682 0.87068 0.36643 0.0
H1150 H 0.28646 0.82941 0.37574 0.0
H1151 H 0.13451 0.9105 0.30273 0.0
H1152 H 0.25519 0.78936 0.38514 0.0
N1153 N 0.22685 0.84933 0.3658 0.0
C1154 C 0.2438 0.87293 0.36275 0.0
C1155 C 0.27721 0.86456 0.36641 0.0
C1156 C 0.25992 0.84093 0.37058 0.0
C1157 C 0.26912 0.88075 0.36275 0.0
C1158 C 0.23462 0.83389 0.37025 0.0
H1159 H 0.21084 0.76062 0.39215 0.0
N1160 N 0.1933 0.80618 0.37559 0.0
C1161 C 0.18179 0.76884 0.38838 0.0
C1162 C 0.2172 0.8115 0.37544 0.0
C1163 C 0.17569 0.78555 0.38247 0.0
C1164 C 0.20615 0.77357 0.38755 0.0
C1165 C 0.22431 0.79529 0.38122 0.0
O1166 O 0.16812 0.82925 0.38688 0.0
O1167 O 0.15463 0.83236 0.35242 0.0
O1168 O 0.16548 0.86792 0.34097 0.0
O1169 O 0.19455 0.87151 0.35905 0.0
O1170 O 0.14554 0.80957 0.37027 0.0
O1171 O 0.20048 0.86297 0.38114 0.0
O1172 O 0.17673 0.84252 0.30652 0.0
O1173 O 0.19079 0.83798 0.34126 0.0
O1174 O 0.17913 0.802 0.35329 0.0
O1175 O 0.15137 0.79915 0.33436 0.0
O1176 O 0.20018 0.86072 0.3234 0.0
O1177 O 0.14552 0.80795 0.3124 0.0
C1178 C 0.13635 0.81658 0.3597 0.0
C1179 C 0.19479 0.85173 0.40699 0.0
C1180 C 0.19236 0.85691 0.43437 0.0
C1181 C 0.18296 0.85506 0.41954 0.0
C1182 C 0.21377 0.8551 0.43637 0.0
C1183 C 0.21603 0.84988 0.40923 0.0
C1184 C 0.22542 0.85152 0.42388 0.0
C1185 C 0.18197 0.88015 0.35175 0.0
C1186 C 0.1847 0.85056 0.39172 0.0
C1187 C 0.24934 0.80165 0.3809 0.0
C1188 C 0.26713 0.82445 0.37555 0.0
C1189 C 0.20919 0.85344 0.33393 0.0
C1190 C 0.14877 0.8204 0.28679 0.0
C1191 C 0.16209 0.82294 0.27341 0.0
C1192 C 0.15135 0.82145 0.25907 0.0
C1193 C 0.12714 0.8176 0.2583 0.0
C1194 C 0.12467 0.81671 0.28578 0.0
C1195 C 0.11398 0.81537 0.27159 0.0
C1196 C 0.16289 0.79 0.34233 0.0
C1197 C 0.16024 0.8212 0.30159 0.0
H1198 H 0.1663 0.85604 0.4177 0.0
H1199 H 0.22181 0.85683 0.44756 0.0
H1200 H 0.22543 0.84736 0.39969 0.0
H1201 H 0.24191 0.85023 0.42556 0.0
H1202 H 0.18063 0.82559 0.27417 0.0
H1203 H 0.1185 0.81657 0.24741 0.0
H1204 H 0.11402 0.81465 0.2959 0.0
H1205 H 0.09539 0.81251 0.27088 0.0
Tb1206 Tb 0.83538 0.64834 0.6645 0.0
C1207 C 0.86863 0.73978 0.70322 0.0
C1208 C 0.91321 0.76049 0.70201 0.0
C1209 C 0.89212 0.78365 0.70475 0.0
C1210 C 0.89011 0.73899 0.70164 0.0
C1211 C 0.86929 0.76204 0.70515 0.0
C1212 C 0.91407 0.78288 0.70318 0.0
C1213 C 0.8251 0.7397 0.70892 0.0
N1214 N 0.84709 0.71851 0.70361 0.0
C1215 C 0.82547 0.7181 0.70699 0.0
C1216 C 0.84708 0.7618 0.70782 0.0
Tb1217 Tb 0.84915 0.68404 0.69951 0.0
N1218 N 0.88837 0.71698 0.7007 0.0
C1219 C 0.90931 0.7152 0.70141 0.0
C1220 C 0.93467 0.75877 0.70168 0.0
C1221 C 0.9327 0.73599 0.70167 0.0
H1222 H 0.80836 0.70111 0.7077 0.0
H1223 H 0.94918 0.73441 0.70176 0.0
H1224 H 0.93162 0.79962 0.7033 0.0
H1225 H 0.80787 0.7393 0.7112 0.0
H1226 H 0.90833 0.69786 0.70129 0.0
H1227 H 0.73545 0.59686 0.66078 0.0
H1228 H 0.95279 0.77483 0.70188 0.0
H1229 H 0.8773 0.63238 0.65692 0.0
H1230 H 0.77589 0.63366 0.66243 0.0
H1231 H 0.87856 0.59479 0.65266 0.0
H1232 H 0.89304 0.80098 0.70605 0.0
H1233 H 0.73253 0.5568 0.6593 0.0
H1234 H 0.75436 0.53271 0.65723 0.0
H1235 H 0.84677 0.77851 0.70935 0.0
H1236 H 0.7934 0.53214 0.65488 0.0
N1237 N 0.79644 0.6151 0.66231 0.0
C1238 C 0.77528 0.61653 0.66171 0.0
C1239 C 0.75051 0.573 0.66 0.0
C1240 C 0.77221 0.57169 0.65966 0.0
C1241 C 0.75209 0.59557 0.6608 0.0
C1242 C 0.79511 0.59334 0.66071 0.0
H1243 H 0.83983 0.55527 0.65286 0.0
N1244 N 0.83823 0.61441 0.65982 0.0
C1245 C 0.86105 0.59401 0.65457 0.0
C1246 C 0.81684 0.59299 0.65937 0.0
C1247 C 0.86024 0.61531 0.65695 0.0
C1248 C 0.83917 0.57174 0.65473 0.0
C1249 C 0.81664 0.57103 0.65698 0.0
O1250 O 0.85419 0.6569 0.64348 0.0
O1251 O 0.8589 0.68171 0.67637 0.0
O1252 O 0.83787 0.70132 0.6822 0.0
O1253 O 0.8151 0.66832 0.66606 0.0
O1254 O 0.87567 0.66957 0.6619 0.0
O1255 O 0.81926 0.65561 0.64574 0.0
O1256 O 0.83137 0.67742 0.72083 0.0
O1257 O 0.82558 0.65076 0.68763 0.0
O1258 O 0.84569 0.63043 0.68186 0.0
O1259 O 0.86855 0.6631 0.69827 0.0
O1260 O 0.80894 0.66247 0.70257 0.0
O1261 O 0.86551 0.67729 0.71837 0.0
C1262 C 0.87956 0.68705 0.67087 0.0
C1263 C 0.82967 0.64852 0.62116 0.0
C1264 C 0.83238 0.65401 0.59349 0.0
C1265 C 0.84034 0.66324 0.60832 0.0
C1266 C 0.81369 0.62973 0.59176 0.0
C1267 C 0.81125 0.62431 0.61912 0.0
C1268 C 0.80336 0.61501 0.60448 0.0
C1269 C 0.82169 0.69041 0.67102 0.0
C1270 C 0.83704 0.65917 0.63652 0.0
C1271 C 0.79397 0.54924 0.65656 0.0
C1272 C 0.77176 0.54957 0.65791 0.0
C1273 C 0.80502 0.64526 0.69336 0.0
C1274 C 0.85806 0.68934 0.74227 0.0
C1275 C 0.84784 0.67834 0.75638 0.0
C1276 C 0.85704 0.69144 0.77013 0.0
C1277 C 0.87692 0.71537 0.76947 0.0
C1278 C 0.87759 0.71331 0.74205 0.0
C1279 C 0.887 0.72615 0.75556 0.0
C1280 C 0.86177 0.64102 0.69313 0.0
C1281 C 0.84878 0.67567 0.72787 0.0
H1282 H 0.85444 0.68201 0.6099 0.0
H1283 H 0.80733 0.622 0.58054 0.0
H1284 H 0.80281 0.61272 0.62883 0.0
H1285 H 0.78908 0.59632 0.60298 0.0
H1286 H 0.83259 0.6599 0.75661 0.0
H1287 H 0.8848 0.72582 0.77977 0.0
H1288 H 0.88578 0.72207 0.73144 0.0
H1289 H 0.90222 0.74458 0.75527 0.0
Tb1290 Tb 0.35892 0.17884 0.66357 0.0
C1291 C 0.26301 0.12416 0.69974 0.0
C1292 C 0.24215 0.1472 0.69664 0.0
C1293 C 0.21813 0.10359 0.69975 0.0
C1294 C 0.26405 0.14597 0.69746 0.0
C1295 C 0.2401 0.10272 0.7012 0.0
C1296 C 0.21915 0.12582 0.69748 0.0
C1297 C 0.26242 0.08163 0.70649 0.0
N1298 N 0.28466 0.12417 0.70105 0.0
C1299 C 0.28469 0.10344 0.70502 0.0
C1300 C 0.24001 0.08121 0.70439 0.0
Tb1301 Tb 0.32017 0.16044 0.69728 0.0
N1302 N 0.28663 0.16612 0.6967 0.0
C1303 C 0.28855 0.18844 0.69632 0.0
C1304 C 0.24405 0.16992 0.69538 0.0
C1305 C 0.26736 0.19065 0.69548 0.0
H1306 H 0.30186 0.10347 0.70654 0.0
H1307 H 0.26907 0.20835 0.69481 0.0
H1308 H 0.2021 0.12635 0.69672 0.0
H1309 H 0.26255 0.06517 0.7092 0.0
H1310 H 0.30636 0.20467 0.69623 0.0
H1311 H 0.40794 0.12879 0.66485 0.0
H1312 H 0.22768 0.17168 0.69468 0.0
H1313 H 0.37847 0.23615 0.65485 0.0
H1314 H 0.37138 0.1336 0.66418 0.0
H1315 H 0.41825 0.27392 0.65196 0.0
H1316 H 0.2003 0.08728 0.70069 0.0
H1317 H 0.44982 0.16477 0.66455 0.0
H1318 H 0.47632 0.21001 0.6625 0.0
H1319 H 0.22279 0.0643 0.70555 0.0
H1320 H 0.47914 0.24961 0.65894 0.0
N1321 N 0.39188 0.17216 0.66369 0.0
C1322 C 0.38935 0.14958 0.66391 0.0
C1323 C 0.43374 0.16704 0.66416 0.0
C1324 C 0.43626 0.19002 0.66307 0.0
C1325 C 0.41015 0.14671 0.66432 0.0
C1326 C 0.4147 0.19192 0.66267 0.0
H1327 H 0.45754 0.27361 0.6548 0.0
N1328 N 0.39496 0.21457 0.65962 0.0
C1329 C 0.41797 0.25718 0.65441 0.0
C1330 C 0.4163 0.21398 0.66057 0.0
C1331 C 0.39544 0.23567 0.65599 0.0
C1332 C 0.44011 0.25694 0.65606 0.0
C1333 C 0.43947 0.23509 0.65896 0.0
O1334 O 0.35307 0.18839 0.64166 0.0
O1335 O 0.32445 0.17113 0.6738 0.0
O1336 O 0.30213 0.13205 0.68022 0.0
O1337 O 0.33647 0.13905 0.66586 0.0
O1338 O 0.33894 0.19829 0.65844 0.0
O1339 O 0.35247 0.15471 0.64555 0.0
O1340 O 0.32949 0.15281 0.71869 0.0
O1341 O 0.3548 0.16866 0.68705 0.0
O1342 O 0.37677 0.20725 0.68072 0.0
O1343 O 0.34251 0.20022 0.69519 0.0
O1344 O 0.34064 0.14135 0.70234 0.0
O1345 O 0.32182 0.18197 0.71602 0.0
C1346 C 0.32033 0.18622 0.66715 0.0
C1347 C 0.36411 0.17185 0.62106 0.0
C1348 C 0.3634 0.17314 0.59333 0.0
C1349 C 0.35243 0.1721 0.60746 0.0
C1350 C 0.38639 0.17414 0.59297 0.0
C1351 C 0.38725 0.17324 0.62054 0.0
C1352 C 0.39831 0.17439 0.60653 0.0
C1353 C 0.31337 0.12496 0.67047 0.0
C1354 C 0.35107 0.16892 0.63548 0.0
C1355 C 0.46113 0.23357 0.66 0.0
C1356 C 0.45952 0.21104 0.66204 0.0
C1357 C 0.35924 0.15376 0.69366 0.0
C1358 C 0.31434 0.1631 0.74014 0.0
C1359 C 0.32788 0.17326 0.75357 0.0
C1360 C 0.31665 0.16563 0.76787 0.0
C1361 C 0.29155 0.1478 0.76855 0.0
C1362 C 0.28924 0.14554 0.741 0.0
C1363 C 0.27792 0.13799 0.75518 0.0
C1364 C 0.3656 0.21432 0.69057 0.0
C1365 C 0.32737 0.16978 0.72553 0.0
H1366 H 0.33446 0.17085 0.60786 0.0
H1367 H 0.39525 0.175 0.58223 0.0
H1368 H 0.3966 0.17313 0.6309 0.0
H1369 H 0.4161 0.17533 0.60616 0.0
H1370 H 0.34736 0.18663 0.75289 0.0
H1371 H 0.28245 0.14167 0.77942 0.0
H1372 H 0.27854 0.13746 0.73079 0.0
H1373 H 0.25858 0.12435 0.7558 0.0
Tb1374 Tb 0.8534 0.16502 0.69782 0.0
C1375 C 0.79178 0.1856 0.65239 0.0
C1376 C 0.74986 0.15268 0.65507 0.0
C1377 C 0.75739 0.19237 0.64744 0.0
C1378 C 0.77558 0.16191 0.65609 0.0
C1379 C 0.78296 0.20104 0.64771 0.0
C1380 C 0.74085 0.1682 0.65112 0.0
C1381 C 0.82523 0.23171 0.64278 0.0
N1382 N 0.81629 0.19318 0.65273 0.0
C1383 C 0.83304 0.21567 0.64751 0.0
C1384 C 0.80009 0.22448 0.64305 0.0
Tb1385 Tb 0.82736 0.16584 0.661 0.0
N1386 N 0.78509 0.14747 0.65954 0.0
C1387 C 0.76976 0.12305 0.66075 0.0
C1388 C 0.73405 0.12797 0.65745 0.0
C1389 C 0.74408 0.11301 0.65998 0.0
H1390 H 0.85252 0.22153 0.64739 0.0
H1391 H 0.73205 0.09375 0.66141 0.0
H1392 H 0.72114 0.16152 0.65045 0.0
H1393 H 0.83859 0.24967 0.63898 0.0
H1394 H 0.77713 0.11118 0.66276 0.0
H1395 H 0.94764 0.23837 0.69204 0.0
H1396 H 0.71417 0.12015 0.65683 0.0
H1397 H 0.83114 0.11168 0.71432 0.0
H1398 H 0.90251 0.21968 0.69182 0.0
H1399 H 0.84697 0.08598 0.72443 0.0
H1400 H 0.75021 0.20401 0.64403 0.0
H1401 H 0.96725 0.21432 0.69915 0.0
H1402 H 0.96229 0.17492 0.70853 0.0
H1403 H 0.79409 0.23692 0.63936 0.0
H1404 H 0.93484 0.13335 0.71741 0.0
N1405 N 0.89592 0.18469 0.6982 0.0
C1406 C 0.9105 0.20874 0.69495 0.0
C1407 C 0.94728 0.20591 0.69904 0.0
C1408 C 0.93236 0.18175 0.70326 0.0
C1409 C 0.93628 0.21953 0.69506 0.0
C1410 C 0.90648 0.17166 0.7028 0.0
H1411 H 0.89177 0.10011 0.7236 0.0
N1412 N 0.86654 0.13998 0.70747 0.0
C1413 C 0.85963 0.10347 0.71965 0.0
C1414 C 0.89119 0.14841 0.70764 0.0
C1415 C 0.85073 0.11814 0.71392 0.0
C1416 C 0.88491 0.11148 0.71914 0.0
C1417 C 0.90111 0.13437 0.71328 0.0
O1418 O 0.83633 0.15741 0.71931 0.0
O1419 O 0.82137 0.15936 0.68504 0.0
O1420 O 0.82684 0.19382 0.67515 0.0
O1421 O 0.85873 0.20088 0.69184 0.0
O1422 O 0.81554 0.13653 0.70268 0.0
O1423 O 0.8656 0.19318 0.71386 0.0
O1424 O 0.84382 0.17485 0.63936 0.0
O1425 O 0.85881 0.17004 0.67367 0.0
O1426 O 0.85038 0.1342 0.68506 0.0
O1427 O 0.82151 0.12949 0.66628 0.0
O1428 O 0.86608 0.19312 0.65625 0.0
O1429 O 0.81518 0.13846 0.64438 0.0
C1430 C 0.80465 0.1416 0.69213 0.0
C1431 C 0.86211 0.18088 0.73948 0.0
C1432 C 0.8584 0.18027 0.76715 0.0
C1433 C 0.84817 0.1783 0.75257 0.0
C1434 C 0.8828 0.18474 0.76842 0.0
C1435 C 0.88639 0.18525 0.741 0.0
C1436 C 0.89663 0.18714 0.75541 0.0
C1437 C 0.84346 0.20721 0.68557 0.0
C1438 C 0.85099 0.17914 0.72443 0.0
C1439 C 0.92684 0.14391 0.71326 0.0
C1440 C 0.94246 0.16758 0.70822 0.0
C1441 C 0.8764 0.18657 0.66636 0.0
C1442 C 0.81908 0.15119 0.61882 0.0
C1443 C 0.8308 0.14805 0.60612 0.0
C1444 C 0.82078 0.14555 0.59138 0.0
C1445 C 0.79886 0.14654 0.58966 0.0
C1446 C 0.79734 0.15221 0.61683 0.0
C1447 C 0.78734 0.14994 0.60229 0.0
C1448 C 0.83464 0.12174 0.67393 0.0
C1449 C 0.82982 0.15309 0.63401 0.0
H1450 H 0.82949 0.17514 0.75138 0.0
H1451 H 0.89109 0.18607 0.77948 0.0
H1452 H 0.89749 0.18735 0.73109 0.0
H1453 H 0.91536 0.19049 0.75651 0.0
H1454 H 0.84784 0.14771 0.60776 0.0
H1455 H 0.79031 0.14427 0.5786 0.0
H1456 H 0.78804 0.1546 0.62646 0.0
H1457 H 0.77046 0.1506 0.60082 0.0
H1458 H 0.34836 0.85291 0.05423 0.0
H1459 H 0.30949 0.89292 0.04888 0.0
H1460 H 0.34644 0.92634 0.0368 0.0
H1461 H 0.40575 0.90131 0.06407 0.0
H1462 H 0.42375 0.89116 0.05364 0.0
H1463 H 0.39351 0.86952 0.06039 0.0
H1464 H 0.38069 0.85304 0.03303 0.0
H1465 H 0.41058 0.87507 0.02585 0.0
H1466 H 0.38293 0.87314 0.01802 0.0
H1467 H 0.38939 0.95768 0.02917 0.0
H1468 H 0.43426 0.98324 0.02439 0.0
H1469 H 0.44444 0.92198 0.03283 0.0
C1470 C 0.34756 0.86857 0.05028 0.0
C1471 C 0.32612 0.8704 0.05244 0.0
C1472 C 0.32567 0.89111 0.04716 0.0
C1473 C 0.34656 0.91017 0.04032 0.0
C1474 C 0.36758 0.908 0.03858 0.0
C1475 C 0.3681 0.88756 0.04318 0.0
C1476 C 0.39331 0.89017 0.04056 0.0
C1477 C 0.40475 0.88792 0.05556 0.0
C1478 C 0.39179 0.87176 0.02866 0.0
C1479 C 0.40718 0.91567 0.03442 0.0
C1480 C 0.39199 0.92563 0.0333 0.0
C1481 C 0.40125 0.94983 0.02947 0.0
C1482 C 0.42667 0.96417 0.02669 0.0
C1483 C 0.44233 0.95411 0.02746 0.0
C1484 C 0.43249 0.92965 0.03145 0.0
H1485 H 0.13989 0.48401 0.05474 0.0
H1486 H 0.10733 0.40755 0.04427 0.0
H1487 H 0.07347 0.40853 0.03045 0.0
H1488 H 0.08432 0.4833 0.06184 0.0
H1489 H 0.0935 0.51225 0.05339 0.0
H1490 H 0.11653 0.50616 0.06113 0.0
H1491 H 0.13896 0.5173 0.03535 0.0
H1492 H 0.11554 0.52254 0.02713 0.0
H1493 H 0.1228 0.5012 0.0184 0.0
H1494 H 0.04052 0.41602 0.02095 0.0
H1495 H 0.01063 0.42994 0.01609 0.0
H1496 H 0.06486 0.50217 0.03069 0.0
C1497 C 0.12593 0.46761 0.04924 0.0
C1498 C 0.12628 0.44564 0.05067 0.0
C1499 C 0.10735 0.4245 0.04355 0.0
C1500 C 0.08814 0.42493 0.03552 0.0
C1501 C 0.08811 0.4467 0.03454 0.0
C1502 C 0.10653 0.46773 0.04113 0.0
C1503 C 0.10101 0.48827 0.03926 0.0
C1504 C 0.09869 0.49806 0.05483 0.0
C1505 C 0.12075 0.50853 0.02944 0.0
C1506 C 0.07627 0.47527 0.03103 0.0
C1507 C 0.06931 0.45132 0.02835 0.0
C1508 C 0.04604 0.43488 0.02255 0.0
C1509 C 0.02921 0.44292 0.01979 0.0
C1510 C 0.03586 0.4673 0.02243 0.0
C1511 C 0.05981 0.48376 0.0279 0.0
H1512 H 0.58602 0.67579 0.05912 0.0
H1513 H 0.51709 0.67663 0.05378 0.0
H1514 H 0.49849 0.63715 0.04117 0.0
H1515 H 0.58389 0.64521 0.02482 0.0
H1516 H 0.59487 0.62648 0.0331 0.0
H1517 H 0.60383 0.65565 0.0413 0.0
H1518 H 0.58669 0.63574 0.06742 0.0
H1519 H 0.57789 0.60653 0.05932 0.0
H1520 H 0.55515 0.61146 0.06875 0.0
H1521 H 0.48797 0.59941 0.02759 0.0
H1522 H 0.48352 0.56169 0.01728 0.0
H1523 H 0.55669 0.58142 0.0343 0.0
C1524 C 0.56694 0.66766 0.0555 0.0
C1525 C 0.55344 0.68002 0.05708 0.0
C1526 C 0.52841 0.66836 0.05214 0.0
C1527 C 0.51747 0.64569 0.04508 0.0
C1528 C 0.53145 0.6344 0.0434 0.0
C1529 C 0.55539 0.64459 0.04878 0.0
C1530 C 0.56568 0.62776 0.04613 0.0
C1531 C 0.58841 0.63948 0.03572 0.0
C1532 C 0.5717 0.6199 0.06131 0.0
C1533 C 0.54384 0.60676 0.03823 0.0
C1534 C 0.5245 0.61128 0.03661 0.0
C1535 C 0.50277 0.5954 0.02903 0.0
C1536 C 0.50049 0.574 0.02317 0.0
C1537 C 0.5196 0.56838 0.02521 0.0
C1538 C 0.54163 0.58507 0.03279 0.0
H1539 H 0.85613 0.32714 0.97727 0.0
H1540 H 0.89954 0.32413 0.93962 0.0
H1541 H 0.93435 0.36347 0.94743 0.0
H1542 H 0.87858 0.39194 0.97442 0.0
H1543 H 0.87877 0.39621 0.99471 0.0
H1544 H 0.85698 0.36756 0.98627 0.0
H1545 H 0.87297 0.34577 1.00396 0.0
H1546 H 0.89451 0.37443 0.01241 0.0
H1547 H 0.90553 0.35558 1.00431 0.0
H1548 H 0.96481 0.40211 0.95942 0.0
H1549 H 0.98889 0.43936 0.97421 0.0
H1550 H 0.92546 0.41956 1.00331 0.0
C1551 C 0.87284 0.33484 0.97056 0.0
C1552 C 0.87512 0.3222 0.95795 0.0
C1553 C 0.89745 0.33299 0.94957 0.0
C1554 C 0.91732 0.35548 0.95382 0.0
C1555 C 0.91457 0.36723 0.96638 0.0
C1556 C 0.89286 0.35751 0.97455 0.0
C1557 C 0.89492 0.37418 0.98754 0.0
C1558 C 0.8762 0.38299 0.98561 0.0
C1559 C 0.89181 0.36174 1.00297 0.0
C1560 C 0.92122 0.39467 0.98539 0.0
C1561 C 0.93215 0.39013 0.97315 0.0
C1562 C 0.95644 0.40598 0.96899 0.0
C1563 C 0.96999 0.42716 0.97753 0.0
C1564 C 0.95922 0.43251 0.99007 0.0
C1565 C 0.9344 0.41598 0.99396 0.0
H1566 H 0.65608 0.51114 0.97077 0.0
H1567 H 0.69888 0.58935 0.97514 0.0
H1568 H 0.66398 0.58936 0.98797 0.0
H1569 H 0.59911 0.50626 0.9628 0.0
H1570 H 0.58064 0.47955 0.97393 0.0
H1571 H 0.60977 0.48515 0.96636 0.0
H1572 H 0.62389 0.48182 0.99337 0.0
H1573 H 0.59522 0.47708 1.00137 0.0
H1574 H 0.62429 0.50149 1.00825 0.0
H1575 H 0.62313 0.5822 0.99609 0.0
H1576 H 0.5791 0.56755 1.00139 0.0
H1577 H 0.56255 0.49363 0.99489 0.0
C1578 C 0.65832 0.5282 0.97476 0.0
C1579 C 0.68026 0.55031 0.97166 0.0
C1580 C 0.6822 0.57222 0.97697 0.0
C1581 C 0.66251 0.57242 0.98444 0.0
C1582 C 0.64099 0.55051 0.9869 0.0
C1583 C 0.6388 0.52872 0.98247 0.0
C1584 C 0.61301 0.50793 0.98596 0.0
C1585 C 0.59986 0.49391 0.97139 0.0
C1586 C 0.61416 0.49107 0.99795 0.0
C1587 C 0.60084 0.52162 0.99235 0.0
C1588 C 0.61748 0.54619 0.99281 0.0
C1589 C 0.61013 0.56298 0.99635 0.0
C1590 C 0.58513 0.55453 0.99935 0.0
C1591 C 0.56781 0.52949 0.99932 0.0
C1592 C 0.57576 0.51277 0.99587 0.0
H1593 H 0.44901 0.10386 0.95521 0.0
H1594 H 0.4736 0.15911 0.99037 0.0
H1595 H 0.48209 0.13352 1.00745 0.0
H1596 H 0.41929 0.05175 0.98078 0.0
H1597 H 0.42899 0.03407 0.96978 0.0
H1598 H 0.42355 0.05616 0.96054 0.0
H1599 H 0.46786 0.07683 0.94946 0.0
H1600 H 0.47341 0.05482 0.95867 0.0
H1601 H 0.49389 0.0866 0.96216 0.0
H1602 H 0.49051 0.1032 0.02014 0.0
H1603 H 0.49758 0.06981 0.02762 0.0
H1604 H 0.46648 0.03385 0.98451 0.0
C1605 C 0.45579 0.11038 0.96658 0.0
C1606 C 0.46077 0.13356 0.97142 0.0
C1607 C 0.47 0.14158 0.98633 0.0
C1608 C 0.47471 0.12711 0.99616 0.0
C1609 C 0.46997 0.10455 0.99098 0.0
C1610 C 0.46061 0.09614 0.97657 0.0
C1611 C 0.45806 0.07158 0.97363 0.0
C1612 C 0.43085 0.05225 0.97103 0.0
C1613 C 0.47427 0.07253 0.96019 0.0
C1614 C 0.46774 0.06768 0.98854 0.0
C1615 C 0.47445 0.08687 0.99842 0.0
C1616 C 0.48503 0.08791 0.01258 0.0
C1617 C 0.48901 0.06889 0.01672 0.0
C1618 C 0.48232 0.04908 1.00675 0.0
C1619 C 0.47134 0.04848 0.99254 0.0
H1620 H 0.64742 0.12643 0.96365 0.0
H1621 H 0.69896 0.10787 0.98437 0.0
H1622 H 0.66471 0.07513 0.99863 0.0
H1623 H 0.60827 0.11448 0.99604 0.0
H1624 H 0.57969 0.10096 0.9854 0.0
H1625 H 0.60788 0.12377 0.97679 0.0
H1626 H 0.60327 0.09545 0.9545 0.0
H1627 H 0.57439 0.07263 0.96233 0.0
H1628 H 0.5985 0.0657 0.95839 0.0
H1629 H 0.62421 0.04197 1.00887 0.0
H1630 H 0.58057 0.0118 0.01462 0.0
H1631 H 0.55598 0.0527 0.98783 0.0
C1632 C 0.65155 0.1155 0.97118 0.0
C1633 C 0.67598 0.11987 0.97293 0.0
C1634 C 0.68052 0.10521 0.98302 0.0
C1635 C 0.66115 0.08647 0.99112 0.0
C1636 C 0.63732 0.08261 0.98906 0.0
C1637 C 0.63246 0.09672 0.97933 0.0
C1638 C 0.60509 0.08827 0.9787 0.0
C1639 C 0.59992 0.10804 0.98459 0.0
C1640 C 0.59471 0.08002 0.96252 0.0
C1641 C 0.59531 0.06709 0.98949 0.0
C1642 C 0.61415 0.06404 0.99534 0.0
C1643 C 0.60936 0.04449 1.00463 0.0
C1644 C 0.58465 0.02754 1.00788 0.0
C1645 C 0.56529 0.0307 1.00219 0.0
C1646 C 0.57067 0.05059 0.99284 0.0
H1647 H 0.89922 0.5681 0.96984 0.0
H1648 H 0.84522 0.49349 0.95948 0.0
H1649 H 0.87224 0.48014 0.97148 0.0
H1650 H 0.95211 0.56303 0.96133 0.0
H1651 H 0.97117 0.58306 0.97632 0.0
H1652 H 0.94673 0.58669 0.96817 0.0
H1653 H 0.92804 0.58309 0.99495 0.0
H1654 H 0.95233 0.57926 1.00321 0.0
H1655 H 0.92045 0.5569 1.00637 0.0
H1656 H 0.90544 0.47485 0.98398 0.0
H1657 H 0.94366 0.47815 0.99433 0.0
H1658 H 0.97756 0.55622 0.99574 0.0
C1659 C 0.89302 0.54895 0.97028 0.0
C1660 C 0.87005 0.53179 0.96379 0.0
C1661 C 0.86274 0.50692 0.96434 0.0
C1662 C 0.87791 0.49917 0.97121 0.0
C1663 C 0.90049 0.51651 0.97741 0.0
C1664 C 0.90816 0.5409 0.97692 0.0
C1665 C 0.93401 0.55583 0.98356 0.0
C1666 C 0.95207 0.57317 0.97163 0.0
C1667 C 0.93368 0.56958 0.99787 0.0
C1668 C 0.93984 0.53607 0.98756 0.0
C1669 C 0.92003 0.5135 0.9842 0.0
C1670 C 0.92099 0.49244 0.98675 0.0
C1671 C 0.94281 0.49448 0.99276 0.0
C1672 C 0.96347 0.5174 0.99618 0.0
C1673 C 0.96193 0.53845 0.99342 0.0
H1674 H 0.49641 0.34434 0.9665 0.0
H1675 H 0.41775 0.30328 0.97574 0.0
H1676 H 0.42057 0.33811 0.98979 0.0
H1677 H 0.51441 0.37641 1.00333 0.0
H1678 H 0.53806 0.40421 0.99514 0.0
H1679 H 0.53037 0.37564 0.98646 0.0
H1680 H 0.52173 0.39007 0.96084 0.0
H1681 H 0.52952 0.41867 0.96944 0.0
H1682 H 0.49994 0.40082 0.96024 0.0
H1683 H 0.43078 0.37785 1.00074 0.0
H1684 H 0.44826 0.42052 1.00863 0.0
H1685 H 0.52083 0.43596 0.99374 0.0
C1686 C 0.47984 0.34272 0.97156 0.0
C1687 C 0.45686 0.32111 0.9701 0.0
C1688 C 0.43558 0.31957 0.97689 0.0
C1689 C 0.43699 0.33925 0.98487 0.0
C1690 C 0.45987 0.36026 0.98612 0.0
C1691 C 0.48099 0.36215 0.97976 0.0
C1692 C 0.50311 0.38713 0.98249 0.0
C1693 C 0.52264 0.38575 0.99245 0.0
C1694 C 0.51422 0.39992 0.96735 0.0
C1695 C 0.49094 0.39913 0.99098 0.0
C1696 C 0.46599 0.38321 0.99296 0.0
C1697 C 0.45035 0.39039 0.99948 0.0
C1698 C 0.46038 0.4146 1.00388 0.0
C1699 C 0.4858 0.4312 1.00188 0.0
C1700 C 0.50141 0.42334 0.99564 0.0
H1701 H 0.11194 0.67246 0.05695 0.0
H1702 H 0.16093 0.65163 0.07881 0.0
H1703 H 0.13431 0.60965 0.07004 0.0
H1704 H 0.05487 0.61796 0.06521 0.0
H1705 H 0.04066 0.61688 0.04714 0.0
H1706 H 0.06344 0.64554 0.0551 0.0
H1707 H 0.08952 0.65509 0.03055 0.0
H1708 H 0.06674 0.62653 0.02248 0.0
H1709 H 0.09857 0.6339 0.02383 0.0
H1710 H 0.10375 0.57055 0.05833 0.0
H1711 H 0.07034 0.53614 0.04432 0.0
H1712 H 0.03994 0.58112 0.03045 0.0
C1713 C 0.11709 0.65906 0.05981 0.0
C1714 C 0.13843 0.66529 0.06868 0.0
C1715 C 0.14448 0.64722 0.07226 0.0
C1716 C 0.12954 0.62334 0.06728 0.0
C1717 C 0.10855 0.61775 0.05873 0.0
C1718 C 0.10226 0.63501 0.05498 0.0
C1719 C 0.07872 0.62405 0.04552 0.0
C1720 C 0.05821 0.62624 0.05374 0.0
C1721 C 0.08369 0.63558 0.02965 0.0
C1722 C 0.07277 0.59794 0.0446 0.0
C1723 C 0.09037 0.59482 0.05224 0.0
C1724 C 0.08971 0.57269 0.05245 0.0
C1725 C 0.07072 0.55327 0.04448 0.0
C1726 C 0.05253 0.55603 0.03661 0.0
C1727 C 0.05336 0.57853 0.03677 0.0
H1728 H 0.33091 0.43103 0.05523 0.0
H1729 H 0.34728 0.50553 0.05594 0.0
H1730 H 0.38779 0.51832 0.04405 0.0
H1731 H 0.39099 0.44363 0.06564 0.0
H1732 H 0.39106 0.42059 0.05374 0.0
H1733 H 0.36229 0.41683 0.06077 0.0
H1734 H 0.34558 0.41104 0.03322 0.0
H1735 H 0.37441 0.4151 0.02597 0.0
H1736 H 0.36253 0.43402 0.01926 0.0
H1737 H 0.4271 0.52342 0.03347 0.0
H1738 H 0.4637 0.52091 0.02627 0.0
H1739 H 0.4234 0.44343 0.03286 0.0
C1740 C 0.34292 0.44996 0.05263 0.0
C1741 C 0.33597 0.46733 0.05638 0.0
C1742 C 0.35231 0.492 0.05314 0.0
C1743 C 0.37527 0.49939 0.04633 0.0
C1744 C 0.38173 0.4819 0.04291 0.0
C1745 C 0.36615 0.45771 0.04603 0.0
C1746 C 0.37846 0.44294 0.04223 0.0
C1747 C 0.38084 0.43026 0.05644 0.0
C1748 C 0.36441 0.42469 0.02941 0.0
C1749 C 0.40355 0.46269 0.03685 0.0
C1750 C 0.40478 0.48493 0.03706 0.0
C1751 C 0.42618 0.50603 0.03302 0.0
C1752 C 0.44692 0.50442 0.02874 0.0
C1753 C 0.44623 0.48193 0.02841 0.0
C1754 C 0.42427 0.46081 0.03269 0.0
H1755 H 0.59082 0.90521 0.05493 0.0
H1756 H 0.52399 0.83572 0.05025 0.0
H1757 H 0.50376 0.85509 0.03654 0.0
H1758 H 0.56133 0.93888 0.06316 0.0
H1759 H 0.58353 0.96522 0.05287 0.0
H1760 H 0.5926 0.94491 0.06081 0.0
H1761 H 0.60735 0.94087 0.03382 0.0
H1762 H 0.59708 0.96053 0.02611 0.0
H1763 H 0.5857 0.93073 0.01817 0.0
H1764 H 0.49033 0.88215 0.02444 0.0
H1765 H 0.48327 0.91545 0.01677 0.0
H1766 H 0.55796 0.96775 0.03085 0.0
C1767 C 0.57209 0.89415 0.05074 0.0
C1768 C 0.55889 0.86906 0.0534 0.0
C1769 C 0.53428 0.855 0.04815 0.0
C1770 C 0.52275 0.86581 0.04033 0.0
C1771 C 0.53611 0.8907 0.03799 0.0
C1772 C 0.56019 0.90474 0.04311 0.0
C1773 C 0.56968 0.93131 0.04024 0.0
C1774 C 0.57719 0.94591 0.05518 0.0
C1775 C 0.59123 0.94145 0.02891 0.0
C1776 C 0.54689 0.93009 0.03325 0.0
C1777 C 0.52797 0.90645 0.03166 0.0
C1778 C 0.50504 0.90073 0.02556 0.0
C1779 C 0.50122 0.91972 0.02119 0.0
C1780 C 0.52008 0.94405 0.02322 0.0
C1781 C 0.54324 0.94925 0.02921 0.0
H1782 H 0.03289 0.20374 0.38848 0.0
H1783 H 0.98441 0.23415 0.38496 0.0
H1784 H 0.01612 0.26825 0.37032 0.0
H1785 H 0.08839 0.25845 0.3937 0.0
H1786 H 0.10713 0.25024 0.38235 0.0
H1787 H 0.07987 0.22712 0.39153 0.0
H1788 H 0.06403 0.20602 0.3656 0.0
H1789 H 0.09046 0.22957 0.35588 0.0
H1790 H 0.05961 0.22201 0.3502 0.0
H1791 H 0.0542 0.30131 0.35915 0.0
H1792 H 0.09657 0.33102 0.35116 0.0
H1793 H 0.12014 0.27876 0.35986 0.0
C1794 C 0.02878 0.21734 0.38437 0.0
C1795 C 0.00618 0.21633 0.38803 0.0
C1796 C 1.00171 0.2347 0.38259 0.0
C1797 C 0.01952 0.25405 0.37411 0.0
C1798 C 0.04168 0.25472 0.37094 0.0
C1799 C 0.0464 0.23683 0.37579 0.0
C1800 C 0.07237 0.24273 0.37143 0.0
C1801 C 0.08785 0.24477 0.3856 0.0
C1802 C 0.07159 0.22397 0.3601 0.0
C1803 C 0.0817 0.26713 0.3639 0.0
C1804 C 0.06357 0.27355 0.36368 0.0
C1805 C 0.06836 0.29625 0.35885 0.0
C1806 C 0.09241 0.31299 0.35435 0.0
C1807 C 0.11122 0.3068 0.35437 0.0
C1808 C 0.10576 0.28349 0.35906 0.0
H1809 H 0.76848 0.76224 0.39554 0.0
H1810 H 0.83211 0.83459 0.39174 0.0
H1811 H 0.80599 0.84842 0.37967 0.0
H1812 H 0.73793 0.76213 0.36078 0.0
H1813 H 0.70718 0.74697 0.36858 0.0
H1814 H 0.73065 0.74146 0.37638 0.0
H1815 H 0.72405 0.75385 0.40319 0.0
H1816 H 0.7001 0.75888 0.39571 0.0
H1817 H 0.72586 0.78272 0.40593 0.0
H1818 H 0.77347 0.85508 0.36808 0.0
H1819 H 0.73581 0.85476 0.35967 0.0
H1820 H 0.6918 0.7794 0.37232 0.0
C1821 C 0.77701 0.78104 0.39229 0.0
C1822 C 0.80278 0.79703 0.39438 0.0
C1823 C 0.81281 0.82151 0.38985 0.0
C1824 C 0.79802 0.82972 0.38305 0.0
C1825 C 0.77295 0.81347 0.38103 0.0
C1826 C 0.76237 0.78974 0.38569 0.0
C1827 C 0.73461 0.77644 0.38281 0.0
C1828 C 0.72715 0.75551 0.37146 0.0
C1829 C 0.72032 0.76745 0.3978 0.0
C1830 C 0.73134 0.79649 0.37592 0.0
C1831 C 0.75382 0.81758 0.37481 0.0
C1832 C 0.75577 0.83862 0.36882 0.0
C1833 C 0.73419 0.83821 0.3639 0.0
C1834 C 0.71084 0.81691 0.36491 0.0
C1835 C 0.70944 0.79586 0.37122 0.0
H1836 H 0.22313 0.99315 0.40773 0.0
H1837 H 0.18081 0.01443 0.37876 0.0
H1838 H 0.17087 0.98011 0.36168 0.0
H1839 H 0.24906 0.97455 0.37687 0.0
H1840 H 0.24731 0.94943 0.38725 0.0
H1841 H 0.25138 0.97583 0.39733 0.0
H1842 H 0.21249 0.94895 0.41341 0.0
H1843 H 0.20832 0.9225 0.40338 0.0
H1844 H 0.18358 0.92933 0.40394 0.0
H1845 H 0.16346 0.94248 0.34849 0.0
H1846 H 0.16026 0.90451 0.33953 0.0
H1847 H 0.20992 0.90894 0.37569 0.0
C1848 C 0.212 0.99076 0.39771 0.0
C1849 C 0.20251 0.0064 0.39474 0.0
C1850 C 0.18783 0.00243 0.38154 0.0
C1851 C 0.18224 0.98309 0.37166 0.0
C1852 C 0.19167 0.96794 0.375 0.0
C1853 C 0.20635 0.97157 0.38763 0.0
C1854 C 0.21388 0.95237 0.38859 0.0
C1855 C 0.24209 0.96373 0.38744 0.0
C1856 C 0.20397 0.93741 0.40319 0.0
C1857 C 0.20098 0.93737 0.37458 0.0
C1858 C 0.18821 0.94666 0.36696 0.0
C1859 C 0.17376 0.93527 0.35419 0.0
C1860 C 0.1722 0.91372 0.34911 0.0
C1861 C 0.18528 0.90388 0.35661 0.0
C1862 C 0.2 0.91609 0.36948 0.0
H1863 H 0.55982 0.67391 0.29058 0.0
H1864 H 0.49432 0.66034 0.31581 0.0
H1865 H 0.519 0.69811 0.33015 0.0
H1866 H 0.60143 0.6971 0.32311 0.0
H1867 H 0.62702 0.71917 0.31209 0.0
H1868 H 0.60407 0.69134 0.30331 0.0
H1869 H 0.59628 0.71574 0.2827 0.0
H1870 H 0.61912 0.74361 0.29145 0.0
H1871 H 0.58814 0.73804 0.28841 0.0
H1872 H 0.55019 0.73848 0.34088 0.0
H1873 H 0.58652 0.77679 0.34877 0.0
H1874 H 0.63273 0.76191 0.31891 0.0
C1875 C 0.5506 0.6786 0.29923 0.0
C1876 C 0.52485 0.66408 0.30177 0.0
C1877 C 0.51376 0.67132 0.31319 0.0
C1878 C 0.52769 0.6927 0.32155 0.0
C1879 C 0.55286 0.70659 0.31863 0.0
C1880 C 0.56432 0.6997 0.30791 0.0
C1881 C 0.59182 0.71766 0.30729 0.0
C1882 C 0.60697 0.70559 0.31172 0.0
C1883 C 0.59927 0.72946 0.29153 0.0
C1884 C 0.59393 0.73575 0.31928 0.0
C1885 C 0.57119 0.72913 0.32556 0.0
C1886 C 0.5682 0.74359 0.33628 0.0
C1887 C 0.58905 0.7653 0.34079 0.0
C1888 C 0.61274 0.77218 0.33487 0.0
C1889 C 0.61505 0.7571 0.32392 0.0
H1890 H 0.3451 0.90241 0.3011 0.0
H1891 H 0.33184 0.82895 0.30499 0.0
H1892 H 0.29247 0.81698 0.31777 0.0
H1893 H 0.31585 0.90407 0.33664 0.0
H1894 H 0.30236 0.92078 0.32857 0.0
H1895 H 0.33098 0.9246 0.32115 0.0
H1896 H 0.31173 0.91339 0.29412 0.0
H1897 H 0.28316 0.90974 0.30143 0.0
H1898 H 0.28331 0.88528 0.29119 0.0
H1899 H 0.25335 0.81221 0.32929 0.0
H1900 H 0.21653 0.81452 0.33667 0.0
H1901 H 0.25329 0.88999 0.32375 0.0
C1902 C 0.33402 0.88376 0.30456 0.0
C1903 C 0.34216 0.86683 0.30211 0.0
C1904 C 0.32676 0.84264 0.30704 0.0
C1905 C 0.30413 0.83553 0.31426 0.0
C1906 C 0.29677 0.85266 0.31643 0.0
C1907 C 0.31114 0.87622 0.3116 0.0
C1908 C 0.29816 0.89066 0.3144 0.0
C1909 C 0.31271 0.91125 0.32587 0.0
C1910 C 0.29383 0.90033 0.29939 0.0
C1911 C 0.27401 0.87136 0.32118 0.0
C1912 C 0.27381 0.8497 0.32256 0.0
C1913 C 0.25341 0.82914 0.32836 0.0
C1914 C 0.23256 0.83066 0.33263 0.0
C1915 C 0.23218 0.85257 0.3311 0.0
C1916 C 0.25322 0.87311 0.32525 0.0
H1917 H 0.14264 0.47691 0.30995 0.0
H1918 H 0.14277 0.45791 0.26257 0.0
H1919 H 0.15648 0.42913 0.27 0.0
H1920 H 0.19603 0.47114 0.32245 0.0
H1921 H 0.18218 0.45771 0.34039 0.0
H1922 H 0.1748 0.47872 0.33142 0.0
H1923 H 0.12817 0.44677 0.3323 0.0
H1924 H 0.13548 0.42581 0.34133 0.0
H1925 H 0.11757 0.4173 0.32399 0.0
H1926 H 0.16806 0.40138 0.2823 0.0
H1927 H 0.17425 0.37391 0.29892 0.0
H1928 H 0.16502 0.409 0.33864 0.0
C1929 C 0.14595 0.46691 0.30119 0.0
C1930 C 0.14181 0.46961 0.28568 0.0
C1931 C 0.14581 0.45597 0.27449 0.0
C1932 C 0.15375 0.43975 0.2786 0.0
C1933 C 0.15748 0.43731 0.29396 0.0
C1934 C 0.15359 0.45035 0.30512 0.0
C1935 C 0.15711 0.44276 0.32087 0.0
C1936 C 0.17883 0.46384 0.32927 0.0
C1937 C 0.13315 0.43255 0.33016 0.0
C1938 C 0.16313 0.42315 0.31676 0.0
C1939 C 0.16358 0.42063 0.30116 0.0
C1940 C 0.16778 0.40319 0.29453 0.0
C1941 C 0.17106 0.38753 0.30407 0.0
C1942 C 0.16993 0.38922 0.32006 0.0
C1943 C 0.16641 0.40758 0.32649 0.0
H1944 H 0.31753 0.46905 0.29991 0.0
H1945 H 0.36654 0.4396 0.30507 0.0
H1946 H 0.33326 0.40365 0.3177 0.0
H1947 H 0.28713 0.44775 0.33648 0.0
H1948 H 0.25663 0.44009 0.32996 0.0
H1949 H 0.28361 0.46441 0.32115 0.0
H1950 H 0.27046 0.44489 0.29463 0.0
H1951 H 0.24249 0.42104 0.30277 0.0
H1952 H 0.26245 0.41378 0.29194 0.0
H1953 H 0.29388 0.36908 0.32661 0.0
H1954 H 0.25102 0.33882 0.33325 0.0
H1955 H 0.22784 0.3915 0.32506 0.0
C1956 C 0.32119 0.45504 0.30379 0.0
C1957 C 0.34459 0.45705 0.30155 0.0
C1958 C 0.34882 0.43847 0.30681 0.0
C1959 C 0.33003 0.418 0.31397 0.0
C1960 C 0.30721 0.41653 0.31603 0.0
C1961 C 0.30271 0.4346 0.31126 0.0
C1962 C 0.27631 0.4282 0.31478 0.0
C1963 C 0.27587 0.44617 0.32628 0.0
C1964 C 0.26209 0.42689 0.30016 0.0
C1965 C 0.26653 0.40339 0.32178 0.0
C1966 C 0.28472 0.39705 0.32233 0.0
C1967 C 0.27965 0.37407 0.3267 0.0
C1968 C 0.25531 0.35702 0.33046 0.0
C1969 C 0.23651 0.36322 0.33032 0.0
C1970 C 0.24219 0.38674 0.32601 0.0
H1971 H 0.53692 0.84991 0.30169 0.0
H1972 H 0.57759 0.92809 0.29828 0.0
H1973 H 0.61425 0.92901 0.30971 0.0
H1974 H 0.56366 0.84798 0.33846 0.0
H1975 H 0.56541 0.82116 0.33428 0.0
H1976 H 0.54148 0.82532 0.32574 0.0
H1977 H 0.55469 0.82086 0.29876 0.0
H1978 H 0.57798 0.81546 0.3069 0.0
H1979 H 0.58654 0.83925 0.2932 0.0
H1980 H 0.64761 0.92142 0.3185 0.0
H1981 H 0.67515 0.906 0.32644 0.0
H1982 H 0.6128 0.83301 0.32722 0.0
C1983 C 0.55356 0.86717 0.30345 0.0
C1984 C 0.55449 0.88899 0.29907 0.0
C1985 C 0.57648 0.91124 0.30161 0.0
C1986 C 0.59737 0.91193 0.30808 0.0
C1987 C 0.59593 0.89021 0.31227 0.0
C1988 C 0.57454 0.86823 0.31027 0.0
C1989 C 0.57818 0.84764 0.31587 0.0
C1990 C 0.56118 0.83475 0.3294 0.0
C1991 C 0.57411 0.82975 0.30291 0.0
C1992 C 0.60516 0.86145 0.32084 0.0
C1993 C 0.61496 0.886 0.31857 0.0
C1994 C 0.64001 0.90236 0.32076 0.0
C1995 C 0.6555 0.89347 0.32528 0.0
C1996 C 0.64591 0.86855 0.32808 0.0
C1997 C 0.62035 0.8523 0.32589 0.0
H1998 H 0.11097 0.67056 0.29113 0.0
H1999 H 0.15048 0.64729 0.32097 0.0
H2000 H 0.16408 0.68391 0.33679 0.0
H2001 H 0.15512 0.73367 0.29213 0.0
H2002 H 0.13237 0.74322 0.29223 0.0
H2003 H 0.12527 0.71493 0.28343 0.0
H2004 H 0.08661 0.69245 0.30051 0.0
H2005 H 0.09362 0.7207 0.30936 0.0
H2006 H 0.09003 0.69585 0.32088 0.0
H2007 H 0.17574 0.72426 0.34826 0.0
H2008 H 0.18266 0.76445 0.35552 0.0
H2009 H 0.13333 0.76035 0.31925 0.0
C2010 C 0.12245 0.67321 0.30101 0.0
C2011 C 0.12968 0.65613 0.30486 0.0
C2012 C 0.14455 0.66006 0.31793 0.0
C2013 C 0.15244 0.68082 0.32694 0.0
C2014 C 0.14507 0.69734 0.32281 0.0
C2015 C 0.13023 0.69369 0.31025 0.0
C2016 C 0.12494 0.71428 0.30835 0.0
C2017 C 0.13503 0.72729 0.29313 0.0
C2018 C 0.09715 0.70528 0.30987 0.0
C2019 C 0.13938 0.7302 0.32169 0.0
C2020 C 0.15095 0.72015 0.32984 0.0
C2021 C 0.16638 0.7321 0.34215 0.0
C2022 C 0.17007 0.75492 0.34627 0.0
C2023 C 0.15808 0.76544 0.33826 0.0
C2024 C 0.14248 0.75275 0.32582 0.0
H2025 H 0.78884 0.00277 0.39966 0.0
H2026 H 0.85154 0.0206 0.37053 0.0
H2027 H 0.82631 0.98311 0.35566 0.0
H2028 H 0.76418 0.93858 0.40044 0.0
H2029 H 0.73232 0.93123 0.39968 0.0
H2030 H 0.75528 0.95937 0.40811 0.0
H2031 H 0.74248 0.98292 0.38973 0.0
H2032 H 0.71948 0.95484 0.38126 0.0
H2033 H 0.74261 0.97822 0.36951 0.0
H2034 H 0.79532 0.94257 0.34519 0.0
H2035 H 0.7596 0.9033 0.33826 0.0
H2036 H 0.71553 0.91332 0.37257 0.0
C2037 C 0.79716 0.9987 0.39014 0.0
C2038 C 0.8221 0.01443 0.38621 0.0
C2039 C 0.83241 0.00876 0.37363 0.0
C2040 C 0.81827 0.98752 0.36517 0.0
C2041 C 0.79374 0.97234 0.36933 0.0
C2042 C 0.78314 0.97777 0.38138 0.0
C2043 C 0.75621 0.95857 0.38321 0.0
C2044 C 0.75175 0.94621 0.39878 0.0
C2045 C 0.73919 0.96928 0.38078 0.0
C2046 C 0.75346 0.9414 0.37041 0.0
C2047 C 0.7754 0.9496 0.36265 0.0
C2048 C 0.77787 0.93623 0.35095 0.0
C2049 C 0.75732 0.91394 0.34699 0.0
C2050 C 0.73437 0.90539 0.35446 0.0
C2051 C 0.73257 0.91944 0.36636 0.0
H2052 H 0.99977 0.76308 0.39261 0.0
H2053 H 0.01096 0.8357 0.3904 0.0
H2054 H 0.05087 0.84953 0.37734 0.0
H2055 H 0.06166 0.78076 0.40173 0.0
H2056 H 0.06254 0.75723 0.39081 0.0
H2057 H 0.03365 0.75246 0.39831 0.0
H2058 H 0.01461 0.74248 0.3712 0.0
H2059 H 0.04355 0.74739 0.36359 0.0
H2060 H 0.02951 0.764 0.35614 0.0
H2061 H 0.09036 0.85578 0.36536 0.0
H2062 H 0.12787 0.85488 0.3577 0.0
H2063 H 0.09248 0.77881 0.36898 0.0
C2064 C 0.0105 0.78178 0.38913 0.0
C2065 C 1.00224 0.79832 0.39236 0.0
C2066 C 0.01698 0.82278 0.38798 0.0
C2067 C 0.03958 0.83074 0.38049 0.0
C2068 C 0.04735 0.81406 0.37758 0.0
C2069 C 0.03337 0.79013 0.38188 0.0
C2070 C 0.04692 0.7764 0.37855 0.0
C2071 C 0.05146 0.76611 0.39322 0.0
C2072 C 0.0328 0.75638 0.36667 0.0
C2073 C 0.07089 0.79644 0.37206 0.0
C2074 C 0.07053 0.81789 0.37125 0.0
C2075 C 0.09073 0.83902 0.36584 0.0
C2076 C 0.11197 0.83831 0.3614 0.0
C2077 C 0.11294 0.81665 0.36243 0.0
C2078 C 0.09209 0.79551 0.36786 0.0
H2079 H 0.17469 0.18966 0.39996 0.0
H2080 H 0.25053 0.21707 0.38566 0.0
H2081 H 0.24896 0.2492 0.37108 0.0
H2082 H 0.15268 0.20103 0.3642 0.0
H2083 H 0.13253 0.20998 0.37319 0.0
H2084 H 0.13922 0.18871 0.38243 0.0
H2085 H 0.15455 0.21626 0.40637 0.0
H2086 H 0.14781 0.23751 0.39718 0.0
H2087 H 0.17842 0.24742 0.40447 0.0
H2088 H 0.24047 0.27954 0.35943 0.0
H2089 H 0.22463 0.30584 0.35028 0.0
H2090 H 0.15343 0.2582 0.37053 0.0
C2091 C 0.19092 0.20247 0.39375 0.0
C2092 C 0.21273 0.20086 0.39388 0.0
C2093 C 0.23357 0.21782 0.38557 0.0
C2094 C 0.23288 0.23617 0.3773 0.0
C2095 C 0.21114 0.23722 0.37734 0.0
C2096 C 0.19045 0.22081 0.38525 0.0
C2097 C 0.1695 0.22624 0.38335 0.0
C2098 C 0.14716 0.20523 0.37531 0.0
C2099 C 0.16214 0.23221 0.39876 0.0
C2100 C 0.1818 0.24838 0.37327 0.0
C2101 C 0.20588 0.25441 0.37005 0.0
C2102 C 0.22157 0.27486 0.3617 0.0
C2103 C 0.21248 0.28968 0.35658 0.0
C2104 C 0.18789 0.28377 0.35962 0.0
C2105 C 0.17221 0.26275 0.3679 0.0
H2106 H 0.66903 0.55485 0.72 0.0
H2107 H 0.6916 0.50112 0.72616 0.0
H2108 H 0.73116 0.52805 0.71346 0.0
H2109 H 0.70026 0.57864 0.68318 0.0
H2110 H 0.70894 0.6093 0.68819 0.0
H2111 H 0.68094 0.58447 0.69568 0.0
H2112 H 0.69589 0.59978 0.72316 0.0
H2113 H 0.72376 0.6247 0.71579 0.0
H2114 H 0.72555 0.60456 0.72939 0.0
H2115 H 0.77012 0.56268 0.70268 0.0
H2116 H 0.80525 0.60242 0.69556 0.0
H2117 H 0.75756 0.63365 0.6971 0.0
C2118 C 0.68218 0.54862 0.7186 0.0
C2119 C 0.67711 0.5258 0.72406 0.0
C2120 C 0.69482 0.51833 0.72186 0.0
C2121 C 0.71739 0.53353 0.71468 0.0
C2122 C 0.72194 0.55608 0.70968 0.0
C2123 C 0.70478 0.56356 0.71153 0.0
C2124 C 0.71489 0.58938 0.70636 0.0
C2125 C 0.70039 0.5905 0.69253 0.0
C2126 C 0.71504 0.60555 0.71945 0.0
C2127 C 0.74079 0.59563 0.70195 0.0
C2128 C 0.74439 0.57606 0.70361 0.0
C2129 C 0.76735 0.57798 0.70106 0.0
C2130 C 0.78719 0.60058 0.69693 0.0
C2131 C 0.78382 0.62082 0.69537 0.0
C2132 C 0.76035 0.61823 0.69788 0.0
H2133 H 0.45199 0.11066 0.72287 0.0
H2134 H 0.50816 0.18648 0.72661 0.0
H2135 H 0.47936 0.19789 0.71518 0.0
H2136 H 0.42486 0.11508 0.6873 0.0
H2137 H 0.39359 0.094 0.69286 0.0
H2138 H 0.41889 0.09116 0.70041 0.0
H2139 H 0.40551 0.09327 0.72791 0.0
H2140 H 0.3798 0.09557 0.72061 0.0
H2141 H 0.40149 0.1183 0.73354 0.0
H2142 H 0.44354 0.20133 0.70476 0.0
H2143 H 0.40337 0.19627 0.69661 0.0
H2144 H 0.37015 0.1185 0.70011 0.0
C2145 C 0.45831 0.12968 0.72133 0.0
C2146 C 0.48256 0.14761 0.7256 0.0
C2147 C 0.48996 0.17229 0.72318 0.0
C2148 C 0.47365 0.17901 0.71676 0.0
C2149 C 0.44991 0.16088 0.71279 0.0
C2150 C 0.44223 0.13673 0.715 0.0
C2151 C 0.41539 0.12085 0.71034 0.0
C2152 C 0.41305 0.10429 0.69693 0.0
C2153 C 0.39962 0.10614 0.72391 0.0
C2154 C 0.40902 0.13988 0.70552 0.0
C2155 C 0.42926 0.16286 0.70683 0.0
C2156 C 0.42767 0.18339 0.70349 0.0
C2157 C 0.40479 0.18035 0.69874 0.0
C2158 C 0.38386 0.15697 0.69725 0.0
C2159 C 0.38604 0.13655 0.70083 0.0
H2160 H 0.89155 0.32589 0.73665 0.0
H2161 H 0.84145 0.34187 0.71143 0.0
H2162 H 0.82707 0.30438 0.69656 0.0
H2163 H 0.90979 0.30373 0.70434 0.0
H2164 H 0.91203 0.28087 0.71507 0.0
H2165 H 0.91749 0.30836 0.72431 0.0
H2166 H 0.88381 0.28328 0.74419 0.0
H2167 H 0.87822 0.25572 0.73498 0.0
H2168 H 0.85308 0.26158 0.73781 0.0
H2169 H 0.81738 0.26444 0.68479 0.0
H2170 H 0.81497 0.22653 0.67611 0.0
H2171 H 0.87445 0.23915 0.70721 0.0
C2172 C 0.87774 0.32177 0.72791 0.0
C2173 C 0.86756 0.33694 0.72538 0.0
C2174 C 0.84921 0.33041 0.71392 0.0
C2175 C 0.84103 0.3092 0.70529 0.0
C2176 C 0.85154 0.29479 0.7081 0.0
C2177 C 0.86965 0.3009 0.71904 0.0
C2178 C 0.87847 0.28269 0.71952 0.0
C2179 C 0.90608 0.29463 0.71557 0.0
C2180 C 0.87306 0.27008 0.73505 0.0
C2181 C 0.86249 0.26539 0.70712 0.0
C2182 C 0.8469 0.27253 0.70077 0.0
C2183 C 0.82978 0.25888 0.68951 0.0
C2184 C 0.82869 0.23743 0.68457 0.0
C2185 C 0.84491 0.23005 0.69067 0.0
C2186 C 0.86198 0.24433 0.70212 0.0
H2187 H 0.1954 0.00609 0.63976 0.0
H2188 H 0.24272 0.97467 0.63372 0.0
H2189 H 0.27786 0.01178 0.64412 0.0
H2190 H 0.2382 0.06573 0.63064 0.0
H2191 H 0.2287 0.07942 0.64513 0.0
H2192 H 0.20685 0.05018 0.63749 0.0
H2193 H 0.19797 0.0319 0.66464 0.0
H2194 H 0.21943 0.06134 0.67225 0.0
H2195 H 0.22339 0.03584 0.67645 0.0
H2196 H 0.30868 0.05361 0.65311 0.0
H2197 H 0.33198 0.09572 0.66264 0.0
H2198 H 0.26375 0.09795 0.66539 0.0
C2199 C 0.21292 0.00661 0.64092 0.0
C2200 C 0.21615 0.98735 0.63564 0.0
C2201 C 0.23973 0.9893 0.63721 0.0
C2202 C 0.25983 0.01025 0.64327 0.0
C2203 C 0.25601 0.02893 0.64807 0.0
C2204 C 0.23305 0.02713 0.64727 0.0
C2205 C 0.23391 0.04983 0.65329 0.0
C2206 C 0.22648 0.062 0.64089 0.0
C2207 C 0.21771 0.04439 0.6675 0.0
C2208 C 0.26106 0.06485 0.65725 0.0
C2209 C 0.27354 0.05255 0.65406 0.0
C2210 C 0.29907 0.0633 0.65588 0.0
C2211 C 0.31216 0.08724 0.66118 0.0
C2212 C 0.29961 0.09993 0.66478 0.0
C2213 C 0.27374 0.08851 0.66288 0.0
H2214 H 0.0068 0.23602 0.62497 0.0
H2215 H 0.00948 0.17461 0.64411 0.0
H2216 H 0.97046 0.16227 0.65738 0.0
H2217 H 0.98204 0.24872 0.65992 0.0
H2218 H 0.96335 0.25795 0.6494 0.0
H2219 H 0.99195 0.26244 0.64149 0.0
H2220 H 0.96837 0.2384 0.61737 0.0
H2221 H 0.93974 0.23372 0.62528 0.0
H2222 H 0.94259 0.20815 0.61934 0.0
H2223 H 0.92898 0.15385 0.66629 0.0
H2224 H 0.89016 0.15259 0.67265 0.0
H2225 H 0.91598 0.22196 0.65102 0.0
C2226 C 0.99953 0.22022 0.63214 0.0
C2227 C 0.01127 0.20607 0.63309 0.0
C2228 C 1.00068 0.18541 0.64262 0.0
C2229 C 0.97856 0.17833 0.6504 0.0
C2230 C 0.96732 0.19235 0.64893 0.0
C2231 C 0.97762 0.21312 0.6403 0.0
C2232 C 0.96164 0.22492 0.64076 0.0
C2233 C 0.97558 0.25 0.64834 0.0
C2234 C 0.95255 0.22637 0.62473 0.0
C2235 C 0.94046 0.20714 0.65064 0.0
C2236 C 0.94413 0.18845 0.65516 0.0
C2237 C 0.92628 0.1688 0.66324 0.0
C2238 C 0.90422 0.16832 0.66694 0.0
C2239 C 0.90037 0.18773 0.66309 0.0
C2240 C 0.91875 0.20727 0.65465 0.0
H2241 H 0.80805 0.80381 0.64586 0.0
H2242 H 0.75517 0.75601 0.612 0.0
H2243 H 0.75881 0.72207 0.62207 0.0
H2244 H 0.84798 0.77826 0.64341 0.0
H2245 H 0.85533 0.78163 0.66342 0.0
H2246 H 0.84763 0.80219 0.65419 0.0
H2247 H 0.81275 0.79152 0.67382 0.0
H2248 H 0.82048 0.77098 0.68302 0.0
H2249 H 0.78936 0.76033 0.67643 0.0
H2250 H 0.76823 0.69347 0.63519 0.0
H2251 H 0.78481 0.67197 0.64971 0.0
H2252 H 0.83366 0.73819 0.67439 0.0
C2253 C 0.79731 0.78626 0.6405 0.0
C2254 C 0.78099 0.78263 0.62825 0.0
C2255 C 0.76725 0.75925 0.62165 0.0
C2256 C 0.7693 0.73982 0.62723 0.0
C2257 C 0.78535 0.744 0.63933 0.0
C2258 C 0.79932 0.76662 0.64583 0.0
C2259 C 0.8159 0.7662 0.65835 0.0
C2260 C 0.84333 0.78307 0.65461 0.0
C2261 C 0.80921 0.77263 0.67382 0.0
C2262 C 0.80918 0.73985 0.65771 0.0
C2263 C 0.79133 0.72741 0.64675 0.0
C2264 C 0.78222 0.70298 0.64382 0.0
C2265 C 0.79183 0.69093 0.65217 0.0
C2266 C 0.81056 0.7033 0.66328 0.0
C2267 C 0.81917 0.7281 0.66614 0.0
H2268 H 0.01341 0.78007 0.64139 0.0
H2269 H 0.98723 0.83064 0.63363 0.0
H2270 H 0.94792 0.8028 0.64642 0.0
H2271 H 0.95795 0.72793 0.63326 0.0
H2272 H 0.9612 0.70949 0.64754 0.0
H2273 H 0.98825 0.73464 0.63955 0.0
H2274 H 1.00329 0.75236 0.6666 0.0
H2275 H 0.97614 0.72728 0.6747 0.0
H2276 H 0.98333 0.75782 0.67875 0.0
H2277 H 0.91035 0.76807 0.65834 0.0
H2278 H 0.8769 0.72838 0.66695 0.0
H2279 H 0.92748 0.70041 0.66653 0.0
C2280 C 0.99961 0.78552 0.64269 0.0
C2281 C 1.00337 0.80755 0.63662 0.0
C2282 C 0.98464 0.81378 0.63817 0.0
C2283 C 0.96237 0.79819 0.64552 0.0
C2284 C 0.95916 0.77647 0.65125 0.0
C2285 C 0.97726 0.77012 0.64989 0.0
C2286 C 0.96848 0.74492 0.65584 0.0
C2287 C 0.96899 0.72827 0.6433 0.0
C2288 C 0.98372 0.74565 0.6698 0.0
C2289 C 0.94232 0.73773 0.66027 0.0
C2290 C 0.93743 0.75635 0.65787 0.0
C2291 C 0.91411 0.75351 0.66049 0.0
C2292 C 0.89524 0.73095 0.66548 0.0
C2293 C 0.89989 0.71163 0.6678 0.0
C2294 C 0.9237 0.71513 0.66515 0.0
H2295 H 0.23173 0.23234 0.63511 0.0
H2296 H 0.17683 0.15735 0.62674 0.0
H2297 H 0.20365 0.14439 0.63958 0.0
H2298 H 0.28367 0.22586 0.62723 0.0
H2299 H 0.3032 0.2471 0.64159 0.0
H2300 H 0.27867 0.2502 0.63309 0.0
H2301 H 0.26094 0.24916 0.65982 0.0
H2302 H 0.28512 0.24559 0.6685 0.0
H2303 H 0.25318 0.22386 0.67213 0.0
H2304 H 0.23732 0.13973 0.65272 0.0
H2305 H 0.27636 0.14398 0.66276 0.0
H2306 H 0.30994 0.22195 0.66149 0.0
C2307 C 0.22524 0.21319 0.63618 0.0
C2308 C 0.20213 0.19581 0.63004 0.0
C2309 C 0.19449 0.17093 0.63136 0.0
C2310 C 0.20952 0.16342 0.63872 0.0
C2311 C 0.23227 0.18101 0.64461 0.0
C2312 C 0.24019 0.2054 0.64328 0.0
C2313 C 0.26616 0.2207 0.64955 0.0
C2314 C 0.28397 0.23691 0.63712 0.0
C2315 C 0.26635 0.23572 0.66332 0.0
C2316 C 0.27183 0.20117 0.65432 0.0
C2317 C 0.25187 0.17837 0.65169 0.0
C2318 C 0.25297 0.15751 0.65493 0.0
C2319 C 0.27516 0.16007 0.66075 0.0
C2320 C 0.29593 0.18328 0.66323 0.0
C2321 C 0.29415 0.20401 0.65994 0.0
H2322 H 0.78567 0.00197 0.6234 0.0
H2323 H 0.82822 0.98155 0.65265 0.0
H2324 H 0.84258 0.01918 0.6676 0.0
H2325 H 0.82897 0.06625 0.62304 0.0
H2326 H 0.80528 0.07455 0.62355 0.0
H2327 H 0.79894 0.04637 0.6149 0.0
H2328 H 0.76132 0.02319 0.6327 0.0
H2329 H 0.7676 0.0513 0.64142 0.0
H2330 H 0.76568 0.02717 0.653 0.0
H2331 H 0.85325 0.05953 0.67882 0.0
H2332 H 0.85774 0.09873 0.68641 0.0
H2333 H 0.80596 0.09146 0.65088 0.0
C2334 C 0.79816 0.00557 0.63289 0.0
C2335 C 0.80596 0.98899 0.63688 0.0
C2336 C 0.82199 0.99404 0.64949 0.0
C2337 C 0.83029 0.01536 0.65799 0.0
C2338 C 0.82218 0.03129 0.65381 0.0
C2339 C 0.80635 0.02661 0.64163 0.0
C2340 C 0.79986 0.0464 0.63981 0.0
C2341 C 0.8088 0.05914 0.62441 0.0
C2342 C 0.77196 0.03641 0.64186 0.0
C2343 C 0.81454 0.06293 0.65287 0.0
C2344 C 0.82745 0.05401 0.66071 0.0
C2345 C 0.84294 0.06654 0.6729 0.0
C2346 C 0.84524 0.08875 0.67721 0.0
C2347 C 0.83178 0.09804 0.66952 0.0
C2348 C 0.81627 0.08483 0.65717 0.0
H2349 H 0.48528 0.33193 0.72162 0.0
H2350 H 0.43783 0.36119 0.73308 0.0
H2351 H 0.40191 0.32485 0.72201 0.0
H2352 H 0.45485 0.3047 0.68509 0.0
H2353 H 0.45928 0.27906 0.68744 0.0
H2354 H 0.48103 0.30783 0.69574 0.0
H2355 H 0.47391 0.28715 0.72209 0.0
H2356 H 0.45184 0.25856 0.71375 0.0
H2357 H 0.44298 0.27061 0.72956 0.0
H2358 H 0.37084 0.28391 0.71175 0.0
H2359 H 0.34723 0.24266 0.70089 0.0
H2360 H 0.41556 0.24154 0.6944 0.0
C2361 C 0.46732 0.33066 0.72167 0.0
C2362 C 0.4641 0.34914 0.72819 0.0
C2363 C 0.4405 0.34714 0.72804 0.0
C2364 C 0.42007 0.32661 0.72183 0.0
C2365 C 0.42376 0.30855 0.71558 0.0
C2366 C 0.44686 0.31054 0.71522 0.0
C2367 C 0.44581 0.28857 0.70782 0.0
C2368 C 0.46115 0.29547 0.69315 0.0
C2369 C 0.45412 0.27545 0.71898 0.0
C2370 C 0.41845 0.2737 0.70438 0.0
C2371 C 0.40603 0.28546 0.70902 0.0
C2372 C 0.3804 0.27466 0.70786 0.0
C2373 C 0.36715 0.25123 0.70176 0.0
C2374 C 0.37961 0.23906 0.69674 0.0
C2375 C 0.40559 0.25057 0.69796 0.0
H2376 H 0.69412 0.16019 0.72085 0.0
H2377 H 0.65029 0.08201 0.72326 0.0
H2378 H 0.68393 0.07856 0.71099 0.0
H2379 H 0.72172 0.16109 0.68328 0.0
H2380 H 0.75149 0.18665 0.68795 0.0
H2381 H 0.72386 0.18388 0.69636 0.0
H2382 H 0.74138 0.1865 0.7234 0.0
H2383 H 0.76941 0.19007 0.71523 0.0
H2384 H 0.75237 0.16619 0.72864 0.0
H2385 H 0.72368 0.08342 0.70188 0.0
H2386 H 0.76668 0.09634 0.6946 0.0
H2387 H 0.78439 0.17119 0.69522 0.0
C2388 C 0.69163 0.14239 0.71865 0.0
C2389 C 0.66961 0.12131 0.72301 0.0
C2390 C 0.66692 0.09833 0.71992 0.0
C2391 C 0.68592 0.0962 0.71295 0.0
C2392 C 0.70738 0.11723 0.70881 0.0
C2393 C 0.7103 0.13992 0.71132 0.0
C2394 C 0.73557 0.15953 0.70593 0.0
C2395 C 0.73301 0.17363 0.69259 0.0
C2396 C 0.75056 0.17657 0.71908 0.0
C2397 C 0.74672 0.14432 0.70069 0.0
C2398 C 0.73002 0.11995 0.70244 0.0
C2399 C 0.73668 0.10237 0.7 0.0
C2400 C 0.76109 0.10984 0.69587 0.0
C2401 C 0.77841 0.13458 0.69372 0.0
C2402 C 0.7711 0.15207 0.69603 0.0
H2403 H 0.87047 0.52491 0.71816 0.0
H2404 H 0.92474 0.57125 0.75173 0.0
H2405 H 0.92273 0.60636 0.74178 0.0
H2406 H 0.89141 0.56907 0.68729 0.0
H2407 H 0.86048 0.55934 0.68069 0.0
H2408 H 0.86731 0.53813 0.68984 0.0
H2409 H 0.83251 0.52839 0.70937 0.0
H2410 H 0.82584 0.54973 0.70024 0.0
H2411 H 0.83307 0.55268 0.72026 0.0
H2412 H 0.91431 0.63601 0.72886 0.0
H2413 H 0.89861 0.65851 0.71451 0.0
H2414 H 0.84873 0.59307 0.68947 0.0
C2415 C 0.8821 0.54253 0.72328 0.0
C2416 C 0.8978 0.54545 0.7357 0.0
C2417 C 0.91248 0.56865 0.74228 0.0
C2418 C 0.91158 0.58869 0.73665 0.0
C2419 C 0.89583 0.58522 0.72446 0.0
C2420 C 0.88124 0.56274 0.71788 0.0
C2421 C 0.86508 0.5639 0.70536 0.0
C2422 C 0.87147 0.55722 0.68988 0.0
C2423 C 0.83749 0.54772 0.70904 0.0
C2424 C 0.8727 0.59047 0.70609 0.0
C2425 C 0.89065 0.60241 0.71709 0.0
C2426 C 0.90031 0.6269 0.72018 0.0
C2427 C 0.89119 0.63952 0.71194 0.0
C2428 C 0.87242 0.62763 0.70079 0.0
C2429 C 0.86326 0.60279 0.69777 0.0
H2430 H 0.50616 0.95021 0.18031 0.0
H2431 H 0.43056 0.93552 0.18375 0.0
H2432 H 0.43351 0.95215 0.15805 0.0
H2433 H 0.52989 0.00622 0.16136 0.0
H2434 H 0.5506 0.0018 0.14928 0.0
H2435 H 0.54207 0.98728 0.16752 0.0
H2436 H 0.52659 0.94559 0.15458 0.0
H2437 H 0.53511 0.96001 0.13628 0.0
H2438 H 0.5039 0.93605 0.13954 0.0
H2439 H 0.44533 0.97229 0.13226 0.0
H2440 H 0.46554 0.9953 0.10902 0.0
H2441 H 0.53308 0.99606 0.122 0.0
C2442 C 0.49008 0.95012 0.17557 0.0
C2443 C 0.46812 0.94156 0.18416 0.0
C2444 C 0.4477 0.94221 0.17755 0.0
C2445 C 0.44912 0.95147 0.16288 0.0
C2446 C 0.4711 0.96004 0.15482 0.0
C2447 C 0.49121 0.95941 0.16092 0.0
C2448 C 0.51302 0.97073 0.15013 0.0
C2449 C 0.5352 0.99282 0.15752 0.0
C2450 C 0.52006 0.95197 0.14482 0.0
C2451 C 0.50217 0.97817 0.13716 0.0
C2452 C 0.47789 0.97165 0.14001 0.0
C2453 C 0.46429 0.97729 0.12986 0.0
C2454 C 0.47589 0.99026 0.1166 0.0
C2455 C 0.50097 0.99763 0.11357 0.0
C2456 C 0.51399 0.99101 0.12396 0.0
H2457 H 0.03586 0.49878 0.18159 0.0
H2458 H 0.06327 0.57621 0.18075 0.0
H2459 H 0.04578 0.57209 0.1551 0.0
H2460 H 0.04465 0.49077 0.14233 0.0
H2461 H 0.01631 0.46228 0.14053 0.0
H2462 H 0.032 0.47136 0.15861 0.0
H2463 H 0.9922 0.46634 0.17116 0.0
H2464 H 0.97635 0.45718 0.15313 0.0
H2465 H 0.97757 0.48224 0.16343 0.0
H2466 H 0.02605 0.55977 0.12916 0.0
H2467 H 1.00283 0.53948 0.10567 0.0
H2468 H 0.98503 0.46991 0.12437 0.0
C2469 C 0.03803 0.51491 0.17618 0.0
C2470 C 0.05135 0.5379 0.18331 0.0
C2471 C 0.05384 0.55845 0.17551 0.0
C2472 C 0.04375 0.5563 0.16094 0.0
C2473 C 0.03084 0.53342 0.1543 0.0
C2474 C 0.02769 0.51305 0.16173 0.0
C2475 C 0.01229 0.49045 0.15228 0.0
C2476 C 0.02721 0.47799 0.1482 0.0
C2477 C 0.98817 0.47303 0.16049 0.0
C2478 C 0.0073 0.50132 0.13837 0.0
C2479 C 0.01841 0.52618 0.13969 0.0
C2480 C 0.0171 0.5403 0.12806 0.0
C2481 C 1.00396 0.52868 0.11477 0.0
C2482 C 0.99204 0.50321 0.11334 0.0
C2483 C 0.99373 0.4894 0.12531 0.0
H2484 H 0.48903 0.51318 0.18816 0.0
H2485 H 0.46058 0.56051 0.17585 0.0
H2486 H 0.47182 0.55944 0.14903 0.0
H2487 H 0.54062 0.53757 0.16296 0.0
H2488 H 0.53764 0.50873 0.15814 0.0
H2489 H 0.52718 0.51302 0.17635 0.0
H2490 H 0.48363 0.47646 0.17099 0.0
H2491 H 0.49399 0.472 0.15279 0.0
H2492 H 0.46737 0.47593 0.15389 0.0
H2493 H 0.48811 0.55491 0.12384 0.0
H2494 H 0.50591 0.54537 0.10174 0.0
H2495 H 0.52119 0.49854 0.12998 0.0
C2496 C 0.48519 0.52329 0.17978 0.0
C2497 C 0.47397 0.53697 0.18405 0.0
C2498 C 0.46899 0.54979 0.17278 0.0
C2499 C 0.47539 0.54936 0.15755 0.0
C2500 C 0.4865 0.53578 0.15371 0.0
C2501 C 0.49111 0.52275 0.16446 0.0
C2502 C 0.50285 0.50928 0.15726 0.0
C2503 C 0.5286 0.51766 0.16409 0.0
C2504 C 0.48595 0.48179 0.15882 0.0
C2505 C 0.50454 0.51714 0.14085 0.0
C2506 C 0.49507 0.53246 0.13907 0.0
C2507 C 0.49525 0.54263 0.12505 0.0
C2508 C 0.50526 0.53691 0.1125 0.0
C2509 C 0.5148 0.52093 0.11393 0.0
C2510 C 0.51431 0.51096 0.1284 0.0
H2511 H 0.98671 0.50357 0.84158 0.0
H2512 H 0.95646 0.42591 0.84297 0.0
H2513 H 0.97357 0.42964 0.8689 0.0
H2514 H 0.04376 0.51923 0.86157 0.0
H2515 H 0.0447 0.54443 0.87152 0.0
H2516 H 0.03017 0.53558 0.85308 0.0
H2517 H 0.98974 0.53116 0.86425 0.0
H2518 H 1.00413 0.53998 0.88272 0.0
H2519 H 0.97566 0.51174 0.88037 0.0
H2520 H 0.99189 0.44171 0.89523 0.0
H2521 H 0.01273 0.4616 0.91941 0.0
H2522 H 0.03291 0.53153 0.90027 0.0
C2523 C 0.98374 0.48738 0.84736 0.0
C2524 C 0.97025 0.46444 0.84034 0.0
C2525 C 0.9669 0.44366 0.84816 0.0
C2526 C 0.97645 0.4456 0.86288 0.0
C2527 C 0.98957 0.46849 0.86953 0.0
C2528 C 0.99346 0.48905 0.86196 0.0
C2529 C 0.00843 0.51152 0.87158 0.0
C2530 C 0.03324 0.5287 0.86398 0.0
C2531 C 0.9936 0.52434 0.87493 0.0
C2532 C 0.01212 0.50038 0.88581 0.0
C2533 C 1.00095 0.47552 0.88444 0.0
C2534 C 1.00094 0.46118 0.89637 0.0
C2535 C 0.01273 0.47257 0.91004 0.0
C2536 C 0.02457 0.49803 0.91156 0.0
C2537 C 0.02432 0.51206 0.89926 0.0
H2538 H 0.5072 0.45317 0.84175 0.0
H2539 H 0.58422 0.50895 0.84576 0.0
H2540 H 0.5761 0.51961 0.87135 0.0
H2541 H 0.48211 0.48631 0.86014 0.0
H2542 H 0.45779 0.46026 0.86954 0.0
H2543 H 0.46979 0.45668 0.85171 0.0
H2544 H 0.4797 0.42562 0.86402 0.0
H2545 H 0.46764 0.42903 0.88187 0.0
H2546 H 0.49867 0.43396 0.88092 0.0
H2547 H 0.55959 0.52387 0.89658 0.0
H2548 H 0.53565 0.5222 0.91935 0.0
H2549 H 0.46928 0.46404 0.89865 0.0
C2550 C 0.5224 0.46747 0.84808 0.0
C2551 C 0.54637 0.4802 0.84181 0.0
C2552 C 0.56569 0.49909 0.85033 0.0
C2553 C 0.56127 0.50519 0.86487 0.0
C2554 C 0.5374 0.49233 0.87069 0.0
C2555 C 0.51827 0.47392 0.86255 0.0
C2556 C 0.49422 0.46323 0.87127 0.0
C2557 C 0.47484 0.46685 0.86265 0.0
C2558 C 0.4845 0.43637 0.87473 0.0
C2559 C 0.50281 0.4785 0.88561 0.0
C2560 C 0.52781 0.49509 0.88508 0.0
C2561 C 0.54 0.51096 0.89711 0.0
C2562 C 0.52629 0.50983 0.91 0.0
C2563 C 0.50062 0.49303 0.91075 0.0
C2564 C 0.48881 0.47725 0.89833 0.0
H2565 H 0.57498 0.08191 0.84805 0.0
H2566 H 0.50157 0.07129 0.83971 0.0
H2567 H 0.48937 0.0557 0.86568 0.0
H2568 H 0.55727 0.03006 0.87024 0.0
H2569 H 0.58284 0.0444 0.88339 0.0
H2570 H 0.58614 0.05547 0.86425 0.0
H2571 H 0.59906 0.09827 0.87459 0.0
H2572 H 0.59587 0.08733 0.89378 0.0
H2573 H 0.57912 0.10211 0.88772 0.0
H2574 H 0.4842 0.03855 0.89227 0.0
H2575 H 0.487 0.02225 0.91712 0.0
H2576 H 0.56484 0.04783 0.90904 0.0
C2577 C 0.55646 0.07675 0.8517 0.0
C2578 C 0.53924 0.07767 0.84157 0.0
C2579 C 0.51506 0.07029 0.84696 0.0
C2580 C 0.50796 0.0616 0.86181 0.0
C2581 C 0.52529 0.06067 0.87137 0.0
C2582 C 0.54912 0.0683 0.86658 0.0
C2583 C 0.56409 0.06511 0.87904 0.0
C2584 C 0.57311 0.04772 0.87392 0.0
C2585 C 0.58582 0.08967 0.88408 0.0
C2586 C 0.5448 0.05403 0.89145 0.0
C2587 C 0.52254 0.05163 0.88683 0.0
C2588 C 0.50168 0.04068 0.89608 0.0
C2589 C 0.50351 0.03161 0.9103 0.0
C2590 C 0.52611 0.03358 0.91524 0.0
C2591 C 0.54709 0.04553 0.90568 0.0
H2592 H 0.17317 0.30896 0.51884 0.0
H2593 H 0.11053 0.23921 0.50687 0.0
H2594 H 0.11423 0.25195 0.48 0.0
H2595 H 0.16028 0.34509 0.49334 0.0
H2596 H 0.19218 0.36507 0.48848 0.0
H2597 H 0.18444 0.35058 0.50676 0.0
H2598 H 0.21287 0.33255 0.50159 0.0
H2599 H 0.22075 0.34705 0.48331 0.0
H2600 H 0.20823 0.31483 0.48461 0.0
H2601 H 0.12349 0.27324 0.45465 0.0
H2602 H 0.13903 0.30006 0.43252 0.0
H2603 H 0.19845 0.35466 0.46045 0.0
C2604 C 0.16024 0.29644 0.51054 0.0
C2605 C 0.14147 0.27313 0.51492 0.0
C2606 C 0.12507 0.2571 0.50372 0.0
C2607 C 0.12699 0.26422 0.48846 0.0
C2608 C 0.14567 0.28731 0.48449 0.0
C2609 C 0.16221 0.30308 0.49518 0.0
C2610 C 0.181 0.32663 0.48783 0.0
C2611 C 0.17936 0.34811 0.4945 0.0
C2612 C 0.20727 0.33048 0.48943 0.0
C2613 C 0.17223 0.32178 0.47141 0.0
C2614 C 0.15175 0.29907 0.46975 0.0
C2615 C 0.1398 0.29092 0.45578 0.0
C2616 C 0.14901 0.30632 0.44317 0.0
C2617 C 0.17031 0.32966 0.44443 0.0
C2618 C 0.18202 0.33721 0.45887 0.0
H2619 H 0.71195 0.88911 0.51744 0.0
H2620 H 0.71524 0.82275 0.51755 0.0
H2621 H 0.69958 0.81435 0.49112 0.0
H2622 H 0.65582 0.866 0.4956 0.0
H2623 H 0.66578 0.89369 0.4853 0.0
H2624 H 0.67745 0.8946 0.50419 0.0
H2625 H 0.72236 0.91815 0.49414 0.0
H2626 H 0.71083 0.91735 0.47523 0.0
H2627 H 0.7314 0.90567 0.47866 0.0
H2628 H 0.68424 0.81351 0.46454 0.0
H2629 H 0.66893 0.81964 0.43995 0.0
H2630 H 0.67529 0.88634 0.45722 0.0
C2631 C 0.7095 0.87289 0.51186 0.0
C2632 C 0.71477 0.85655 0.51955 0.0
C2633 C 0.71105 0.83536 0.51193 0.0
C2634 C 0.70229 0.83051 0.4969 0.0
C2635 C 0.69724 0.84696 0.48966 0.0
C2636 C 0.70061 0.86767 0.49689 0.0
C2637 C 0.69348 0.88223 0.4866 0.0
C2638 C 0.67184 0.88424 0.49332 0.0
C2639 C 0.71585 0.90733 0.48347 0.0
C2640 C 0.68563 0.86649 0.47245 0.0
C2641 C 0.68806 0.84629 0.47442 0.0
C2642 C 0.68224 0.82925 0.46287 0.0
C2643 C 0.67367 0.83293 0.44893 0.0
C2644 C 0.67088 0.85342 0.44669 0.0
C2645 C 0.67695 0.87036 0.45866 0.0
H2646 H 0.14976 0.84706 0.52093 0.0
H2647 H 0.12117 0.89472 0.50973 0.0
H2648 H 0.13264 0.89473 0.48284 0.0
H2649 H 0.20197 0.87415 0.49709 0.0
H2650 H 0.20043 0.84618 0.49158 0.0
H2651 H 0.18846 0.84859 0.5097 0.0
H2652 H 0.14586 0.81156 0.50295 0.0
H2653 H 0.15776 0.80893 0.48484 0.0
H2654 H 0.13041 0.81169 0.48564 0.0
H2655 H 0.1503 0.89209 0.45763 0.0
H2656 H 0.17069 0.88533 0.4357 0.0
H2657 H 0.18637 0.8381 0.46323 0.0
C2658 C 0.14578 0.85738 0.5128 0.0
C2659 C 0.13456 0.87089 0.51741 0.0
C2660 C 0.12948 0.88402 0.50641 0.0
C2661 C 0.13605 0.88423 0.49114 0.0
C2662 C 0.14748 0.87105 0.48703 0.0
C2663 C 0.15207 0.85766 0.49751 0.0
C2664 C 0.16499 0.84544 0.49024 0.0
C2665 C 0.19047 0.85412 0.49759 0.0
C2666 C 0.14878 0.81776 0.49096 0.0
C2667 C 0.16742 0.85443 0.47408 0.0
C2668 C 0.15719 0.86915 0.47246 0.0
C2669 C 0.15803 0.88029 0.45871 0.0
C2670 C 0.16955 0.87621 0.44628 0.0
C2671 C 0.18001 0.86099 0.44763 0.0
C2672 C 0.17878 0.84997 0.46177 0.0
H2673 H 0.63921 0.78353 0.17414 0.0
H2674 H 0.63328 0.84853 0.17368 0.0
H2675 H 0.64785 0.85697 0.20029 0.0
H2676 H 0.61973 0.76647 0.21271 0.0
H2677 H 0.64129 0.75601 0.21627 0.0
H2678 H 0.62977 0.75475 0.1973 0.0
H2679 H 0.67469 0.77983 0.18745 0.0
H2680 H 0.68635 0.7812 0.2064 0.0
H2681 H 0.69533 0.80871 0.1961 0.0
H2682 H 0.66331 0.85851 0.22688 0.0
H2683 H 0.679 0.85317 0.25155 0.0
H2684 H 0.67587 0.78782 0.23439 0.0
C2685 C 0.64113 0.79965 0.17957 0.0
C2686 C 0.63498 0.8153 0.1718 0.0
C2687 C 0.63746 0.83602 0.17945 0.0
C2688 C 0.64588 0.84107 0.19453 0.0
C2689 C 0.65185 0.82529 0.20181 0.0
C2690 C 0.64962 0.80503 0.19459 0.0
C2691 C 0.65748 0.79111 0.20493 0.0
C2692 C 0.63577 0.76558 0.20798 0.0
C2693 C 0.67979 0.79017 0.19832 0.0
C2694 C 0.66457 0.80679 0.21907 0.0
C2695 C 0.66108 0.82636 0.21707 0.0
C2696 C 0.66611 0.84325 0.2286 0.0
C2697 C 0.67491 0.84002 0.24257 0.0
C2698 C 0.67866 0.82011 0.24485 0.0
C2699 C 0.67346 0.80336 0.2329 0.0
H2700 H 0.1704 0.78525 0.17526 0.0
H2701 H 0.24417 0.84781 0.1761 0.0
H2702 H 0.23706 0.85743 0.20227 0.0
H2703 H 0.14099 0.81292 0.19536 0.0
H2704 H 0.12013 0.78583 0.20549 0.0
H2705 H 0.13138 0.78365 0.18706 0.0
H2706 H 0.1479 0.75691 0.19834 0.0
H2707 H 0.13668 0.759 0.21681 0.0
H2708 H 0.16877 0.76789 0.21438 0.0
H2709 H 0.22189 0.85963 0.2286 0.0
H2710 H 0.19906 0.85559 0.25241 0.0
H2711 H 0.13493 0.7922 0.23386 0.0
C2712 C 0.18512 0.80086 0.18101 0.0
C2713 C 0.20789 0.81574 0.17372 0.0
C2714 C 0.22656 0.83626 0.18148 0.0
C2715 C 0.22272 0.84178 0.19635 0.0
C2716 C 0.20004 0.8267 0.20322 0.0
C2717 C 0.1815 0.80675 0.19575 0.0
C2718 C 0.15858 0.79383 0.20546 0.0
C2719 C 0.13647 0.79409 0.19789 0.0
C2720 C 0.15265 0.76787 0.20896 0.0
C2721 C 0.16708 0.80958 0.21959 0.0
C2722 C 0.19111 0.82834 0.21814 0.0
C2723 C 0.20304 0.84504 0.22984 0.0
C2724 C 0.18999 0.84256 0.24332 0.0
C2725 C 0.16523 0.82367 0.24492 0.0
C2726 C 0.15374 0.80699 0.23288 0.0
H2727 H 0.16432 0.37576 0.17192 0.0
H2728 H 0.24371 0.40409 0.17287 0.0
H2729 H 0.24034 0.38777 0.19859 0.0
H2730 H 0.15712 0.38567 0.21156 0.0
H2731 H 0.12821 0.35783 0.21349 0.0
H2732 H 0.13686 0.37277 0.19536 0.0
H2733 H 0.13174 0.33367 0.18287 0.0
H2734 H 0.12304 0.3186 0.20095 0.0
H2735 H 0.14848 0.31981 0.19055 0.0
H2736 H 0.22851 0.36808 0.22429 0.0
H2737 H 0.20868 0.34481 0.2475 0.0
H2738 H 0.13684 0.32748 0.22956 0.0
C2739 C 0.18104 0.37847 0.17744 0.0
C2740 C 0.20436 0.39161 0.17026 0.0
C2741 C 0.22568 0.39474 0.17812 0.0
C2742 C 0.22395 0.38534 0.19276 0.0
C2743 C 0.20075 0.37258 0.19946 0.0
C2744 C 0.17964 0.36898 0.19203 0.0
C2745 C 0.15687 0.35395 0.20163 0.0
C2746 C 0.14401 0.36842 0.20576 0.0
C2747 C 0.13898 0.33009 0.19352 0.0
C2748 C 0.16848 0.34953 0.21555 0.0
C2749 C 0.19385 0.36064 0.21411 0.0
C2750 C 0.20865 0.3593 0.22554 0.0
C2751 C 0.19723 0.34614 0.23872 0.0
C2752 C 0.17121 0.33427 0.24038 0.0
C2753 C 0.15674 0.33613 0.22859 0.0
H2754 H 0.81327 0.59845 0.84055 0.0
H2755 H 0.81322 0.65615 0.86704 0.0
H2756 H 0.82299 0.68086 0.84413 0.0
H2757 H 0.866 0.63862 0.81763 0.0
H2758 H 0.85444 0.62069 0.80053 0.0
H2759 H 0.84574 0.60638 0.81885 0.0
H2760 H 0.79957 0.58795 0.81158 0.0
H2761 H 0.80815 0.6024 0.79328 0.0
H2762 H 0.78816 0.6076 0.80557 0.0
H2763 H 0.83261 0.69977 0.8188 0.0
H2764 H 0.84591 0.71368 0.79269 0.0
H2765 H 0.84331 0.64594 0.78197 0.0
C2766 C 0.81538 0.61629 0.84159 0.0
C2767 C 0.81169 0.62486 0.85575 0.0
C2768 C 0.81487 0.64851 0.8564 0.0
C2769 C 0.82066 0.6629 0.8434 0.0
C2770 C 0.8237 0.65377 0.8297 0.0
C2771 C 0.82155 0.6312 0.82866 0.0
C2772 C 0.82713 0.62652 0.81254 0.0
C2773 C 0.84967 0.62284 0.81238 0.0
C2774 C 0.80439 0.60483 0.80532 0.0
C2775 C 0.83284 0.65006 0.80479 0.0
C2776 C 0.83042 0.6653 0.81496 0.0
C2777 C 0.83475 0.68809 0.81075 0.0
C2778 C 0.8424 0.69586 0.79587 0.0
C2779 C 0.846 0.6811 0.78526 0.0
C2780 C 0.84062 0.65762 0.78975 0.0
H2781 H 0.37207 0.16455 0.84981 0.0
H2782 H 0.40781 0.24302 0.84947 0.0
H2783 H 0.39058 0.24131 0.82405 0.0
H2784 H 0.37879 0.15577 0.81023 0.0
H2785 H 0.34869 0.12921 0.80837 0.0
H2786 H 0.36466 0.13647 0.82638 0.0
H2787 H 0.32708 0.13581 0.83933 0.0
H2788 H 0.31098 0.12852 0.82136 0.0
H2789 H 0.31548 0.15463 0.832 0.0
H2790 H 0.37011 0.23135 0.79838 0.0
H2791 H 0.34567 0.21346 0.7749 0.0
H2792 H 0.32061 0.14158 0.79259 0.0
C2793 C 0.37617 0.18142 0.84451 0.0
C2794 C 0.39174 0.20395 0.85173 0.0
C2795 C 0.39663 0.22551 0.84415 0.0
C2796 C 0.38671 0.22475 0.8297 0.0
C2797 C 0.37158 0.2023 0.82296 0.0
C2798 C 0.36611 0.18101 0.83016 0.0
C2799 C 0.34874 0.15924 0.82056 0.0
C2800 C 0.36096 0.1443 0.81612 0.0
C2801 C 0.32411 0.14364 0.82881 0.0
C2802 C 0.34536 0.17167 0.80685 0.0
C2803 C 0.35889 0.19652 0.80842 0.0
C2804 C 0.35931 0.21191 0.79706 0.0
C2805 C 0.34547 0.20162 0.78377 0.0
C2806 C 0.33118 0.1762 0.78201 0.0
C2807 C 0.33113 0.16108 0.79374 0.0
H2808 H 0.83561 0.21211 0.85122 0.0
H2809 H 0.76165 0.14977 0.84857 0.0
H2810 H 0.76957 0.1424 0.82214 0.0
H2811 H 0.83907 0.23214 0.81261 0.0
H2812 H 0.8712 0.2409 0.81057 0.0
H2813 H 0.85923 0.24192 0.829 0.0
H2814 H 0.87487 0.21416 0.83978 0.0
H2815 H 0.8869 0.21307 0.82138 0.0
H2816 H 0.8654 0.1854 0.83075 0.0
H2817 H 0.78605 0.14137 0.79603 0.0
H2818 H 0.81012 0.14623 0.7727 0.0
H2819 H 0.87354 0.20843 0.79292 0.0
C2820 C 0.82108 0.19678 0.84517 0.0
C2821 C 0.79796 0.18155 0.85205 0.0
C2822 C 0.77938 0.16194 0.84353 0.0
C2823 C 0.78375 0.15752 0.82852 0.0
C2824 C 0.8068 0.17281 0.82217 0.0
C2825 C 0.82516 0.19201 0.83025 0.0
C2826 C 0.84855 0.20541 0.82099 0.0
C2827 C 0.85487 0.23164 0.81812 0.0
C2828 C 0.8702 0.20444 0.82868 0.0
C2829 C 0.84059 0.1906 0.80647 0.0
C2830 C 0.81638 0.17199 0.80731 0.0
C2831 C 0.805 0.15591 0.79524 0.0
C2832 C 0.81877 0.15887 0.78202 0.0
C2833 C 0.84371 0.17766 0.781 0.0
C2834 C 0.85461 0.19373 0.79341 0.0
H2835 H 0.30163 0.12455 0.51163 0.0
H2836 H 0.28155 0.18073 0.51201 0.0
H2837 H 0.30139 0.19449 0.5371 0.0
H2838 H 0.29321 0.11072 0.5511 0.0
H2839 H 0.31962 0.10653 0.55284 0.0
H2840 H 0.30358 0.10079 0.53492 0.0
H2841 H 0.34451 0.13095 0.52169 0.0
H2842 H 0.36071 0.13676 0.53957 0.0
H2843 H 0.36219 0.16148 0.52886 0.0
H2844 H 0.32216 0.2014 0.56257 0.0
H2845 H 0.34432 0.20213 0.58612 0.0
H2846 H 0.35336 0.14343 0.56851 0.0
C2847 C 0.30162 0.13994 0.51685 0.0
C2848 C 0.28968 0.15132 0.50979 0.0
C2849 C 0.28996 0.17124 0.51724 0.0
C2850 C 0.3014 0.17937 0.53147 0.0
C2851 C 0.3128 0.16765 0.5381 0.0
C2852 C 0.31322 0.14851 0.53099 0.0
C2853 C 0.32697 0.13922 0.54053 0.0
C2854 C 0.30982 0.11275 0.54512 0.0
C2855 C 0.34996 0.1423 0.53216 0.0
C2856 C 0.33408 0.15605 0.55416 0.0
C2857 C 0.32559 0.17222 0.55256 0.0
C2858 C 0.32908 0.18897 0.5639 0.0
C2859 C 0.34159 0.18921 0.57723 0.0
C2860 C 0.35066 0.17297 0.57904 0.0
C2861 C 0.34693 0.15628 0.5673 0.0
H2862 H 0.86013 0.15362 0.50399 0.0
H2863 H 0.89266 0.10939 0.51545 0.0
H2864 H 0.88107 0.10907 0.54235 0.0
H2865 H 0.87924 0.18988 0.5387 0.0
H2866 H 0.85127 0.1915 0.53985 0.0
H2867 H 0.86265 0.18868 0.5216 0.0
H2868 H 0.82055 0.15043 0.51574 0.0
H2869 H 0.80907 0.15308 0.53399 0.0
H2870 H 0.80842 0.12541 0.52878 0.0
H2871 H 0.8639 0.11174 0.56772 0.0
H2872 H 0.84413 0.11865 0.58991 0.0
H2873 H 0.82458 0.1629 0.56218 0.0
C2874 C 0.86482 0.14389 0.51217 0.0
C2875 C 0.8773 0.13152 0.50764 0.0
C2876 C 0.88333 0.11919 0.51871 0.0
C2877 C 0.87672 0.11881 0.53399 0.0
C2878 C 0.8643 0.13106 0.53806 0.0
C2879 C 0.8586 0.14355 0.52751 0.0
C2880 C 0.84521 0.15527 0.53487 0.0
C2881 C 0.86051 0.18298 0.53368 0.0
C2882 C 0.81927 0.14545 0.52793 0.0
C2883 C 0.84386 0.14704 0.55115 0.0
C2884 C 0.85497 0.1331 0.55275 0.0
C2885 C 0.85543 0.12291 0.56664 0.0
C2886 C 0.84427 0.12709 0.57924 0.0
C2887 C 0.83289 0.14151 0.57794 0.0
C2888 C 0.83286 0.15162 0.56363 0.0
H2889 H 0.83406 0.70639 0.51041 0.0
H2890 H 0.91425 0.74174 0.51249 0.0
H2891 H 0.91168 0.72686 0.5385 0.0
H2892 H 0.82353 0.71528 0.54958 0.0
H2893 H 0.79648 0.68582 0.5514 0.0
H2894 H 0.80445 0.70051 0.53317 0.0
H2895 H 0.8046 0.6633 0.52138 0.0
H2896 H 0.79655 0.64847 0.53955 0.0
H2897 H 0.82371 0.65256 0.52977 0.0
H2898 H 0.9006 0.70797 0.56456 0.0
H2899 H 0.88157 0.68408 0.58774 0.0
H2900 H 0.80875 0.65857 0.56822 0.0
C2901 C 0.85116 0.71096 0.5162 0.0
C2902 C 0.87441 0.72574 0.50921 0.0
C2903 C 0.89617 0.7312 0.51752 0.0
C2904 C 0.89493 0.72261 0.53236 0.0
C2905 C 0.8718 0.70822 0.53884 0.0
C2906 C 0.85028 0.70222 0.53098 0.0
C2907 C 0.82774 0.68556 0.54033 0.0
C2908 C 0.81213 0.69751 0.54382 0.0
C2909 C 0.81224 0.66102 0.53228 0.0
C2910 C 0.83996 0.68307 0.55463 0.0
C2911 C 0.8654 0.69653 0.55361 0.0
C2912 C 0.88069 0.69732 0.56546 0.0
C2913 C 0.86972 0.68379 0.57863 0.0
C2914 C 0.84369 0.6694 0.57982 0.0
C2915 C 0.82871 0.66921 0.56762 0.0
loop_
_geom_bond_atom_site_label_1
_geom_bond_atom_site_label_2
_geom_bond_distance
_geom_bond_site_symmetry_2
_ccdc_geom_bond_type
C0 C1 1.386 . S
C0 C2 1.397 . S
C0 H24 0.931 . S
C1 C0 1.386 . S
C1 C5 1.397 . S
C2 C0 1.397 . S
C2 C3 1.384 . S
C2 H25 0.930 . S
C3 C2 1.384 . S
C3 C4 1.377 . S
C3 C6 1.481 . S
C4 C3 1.377 . S
C4 C5 1.389 . S
C4 H26 0.929 . S
C5 C1 1.397 . S
C5 C4 1.389 . S
C5 H27 0.931 . S
C6 C3 1.481 . S
C6 C7 1.387 . S
C6 C11 1.390 . S
C7 C6 1.387 . S
C7 C8 1.401 . S
C7 H28 0.930 . S
C8 C7 1.401 . S
C8 C9 1.376 . S
C8 C17 1.511 . S
C9 C8 1.376 . S
C9 C10 1.392 . S
C9 H30 0.931 . S
C10 C9 1.392 . S
C10 C11 1.361 . S
C10 C12 1.500 . S
C11 C6 1.390 . S
C11 C10 1.361 . S
C11 H29 0.931 . S
C12 C10 1.500 . S
C12 C13 1.371 . S
C12 C14 1.365 . S
C13 C12 1.371 . S
C13 C23 1.386 . S
C13 H31 0.931 . S
C14 C12 1.365 . S
C14 C15 1.409 . S
C14 H32 0.929 . S
C15 C14 1.409 . S
C15 C16 1.380 . S
C15 H33 0.930 . S
C16 C15 1.380 . S
C16 C23 1.357 . S
C17 C8 1.511 . S
C17 C18 1.341 . S
C17 C19 1.371 . S
C18 C17 1.341 . S
C18 C22 1.394 . S
C18 H34 0.930 . S
C19 C17 1.371 . S
C19 C20 1.392 . S
C19 H35 0.931 . S
C20 C19 1.392 . S
C20 C21 1.331 . S
C20 H38 0.932 . S
C21 C20 1.331 . S
C21 C22 1.336 . S
C22 C18 1.394 . S
C22 C21 1.336 . S
C22 H37 0.929 . S
C23 C13 1.386 . S
C23 C16 1.357 . S
C23 H36 0.928 . S
H24 C0 0.931 . S
H25 C2 0.930 . S
H26 C4 0.929 . S
H27 C5 0.931 . S
H28 C7 0.930 . S
H29 C11 0.931 . S
H30 C9 0.931 . S
H31 C13 0.931 . S
H32 C14 0.929 . S
H33 C15 0.930 . S
H34 C18 0.930 . S
H35 C19 0.931 . S
H36 C23 0.928 . S
H37 C22 0.929 . S
H38 C20 0.932 . S
C39 C40 1.386 . S
C39 C41 1.397 . S
C39 H63 0.931 . S
C40 C39 1.386 . S
C40 C44 1.397 . S
C41 C39 1.397 . S
C41 C42 1.384 . S
C41 H64 0.930 . S
C42 C41 1.384 . S
C42 C43 1.377 . S
C42 C45 1.481 . S
C43 C42 1.377 . S
C43 C44 1.389 . S
C43 H65 0.929 . S
C44 C40 1.397 . S
C44 C43 1.389 . S
C44 H66 0.931 . S
C45 C42 1.481 . S
C45 C46 1.387 . S
C45 C50 1.390 . S
C46 C45 1.387 . S
C46 C47 1.401 . S
C46 H67 0.930 . S
C47 C46 1.401 . S
C47 C48 1.376 . S
C47 C56 1.511 . S
C48 C47 1.376 . S
C48 C49 1.392 . S
C48 H69 0.931 . S
C49 C48 1.392 . S
C49 C50 1.361 . S
C49 C51 1.500 . S
C50 C45 1.390 . S
C50 C49 1.361 . S
C50 H68 0.931 . S
C51 C49 1.500 . S
C51 C52 1.371 . S
C51 C53 1.365 . S
C52 C51 1.371 . S
C52 C62 1.386 . S
C52 H70 0.931 . S
C53 C51 1.365 . S
C53 C54 1.409 . S
C53 H71 0.929 . S
C54 C53 1.409 . S
C54 C55 1.380 . S
C54 H72 0.930 . S
C55 C54 1.380 . S
C55 C62 1.357 . S
C56 C47 1.511 . S
C56 C57 1.341 . S
C56 C58 1.371 . S
C57 C56 1.341 . S
C57 C61 1.394 . S
C57 H73 0.930 . S
C58 C56 1.371 . S
C58 C59 1.392 . S
C58 H74 0.931 . S
C59 C58 1.392 . S
C59 C60 1.331 . S
C59 H77 0.932 . S
C60 C59 1.331 . S
C60 C61 1.336 . S
C61 C57 1.394 . S
C61 C60 1.336 . S
C61 H76 0.929 . S
C62 C52 1.386 . S
C62 C55 1.357 . S
C62 H75 0.928 . S
H63 C39 0.931 . S
H64 C41 0.930 . S
H65 C43 0.929 . S
H66 C44 0.931 . S
H67 C46 0.930 . S
H68 C50 0.931 . S
H69 C48 0.931 . S
H70 C52 0.931 . S
H71 C53 0.929 . S
H72 C54 0.930 . S
H73 C57 0.930 . S
H74 C58 0.931 . S
H75 C62 0.928 . S
H76 C61 0.929 . S
H77 C59 0.932 . S
C78 C79 1.386 . S
C78 C80 1.397 . S
C78 H102 0.931 . S
C79 C78 1.386 . S
C79 C83 1.397 . S
C80 C78 1.397 . S
C80 C81 1.384 . S
C80 H103 0.930 . S
C81 C80 1.384 . S
C81 C82 1.377 . S
C81 C84 1.481 . S
C82 C81 1.377 . S
C82 C83 1.389 . S
C82 H104 0.929 . S
C83 C79 1.397 . S
C83 C82 1.389 . S
C83 H105 0.931 . S
C84 C81 1.481 . S
C84 C85 1.387 . S
C84 C89 1.390 . S
C85 C84 1.387 . S
C85 C86 1.401 . S
C85 H106 0.930 . S
C86 C85 1.401 . S
C86 C87 1.376 . S
C86 C95 1.511 . S
C87 C86 1.376 . S
C87 C88 1.392 . S
C87 H108 0.931 . S
C88 C87 1.392 . S
C88 C89 1.361 . S
C88 C90 1.500 . S
C89 C84 1.390 . S
C89 C88 1.361 . S
C89 H107 0.931 . S
C90 C88 1.500 . S
C90 C91 1.371 . S
C90 C92 1.365 . S
C91 C90 1.371 . S
C91 C101 1.386 . S
C91 H109 0.931 . S
C92 C90 1.365 . S
C92 C93 1.409 . S
C92 H110 0.929 . S
C93 C92 1.409 . S
C93 C94 1.380 . S
C93 H111 0.930 . S
C94 C93 1.380 . S
C94 C101 1.357 . S
C95 C86 1.511 . S
C95 C96 1.341 . S
C95 C97 1.371 . S
C96 C95 1.341 . S
C96 C100 1.394 . S
C96 H112 0.930 . S
C97 C95 1.371 . S
C97 C98 1.392 . S
C97 H113 0.931 . S
C98 C97 1.392 . S
C98 C99 1.331 . S
C98 H116 0.932 . S
C99 C98 1.331 . S
C99 C100 1.336 . S
C100 C96 1.394 . S
C100 C99 1.336 . S
C100 H115 0.929 . S
C101 C91 1.386 . S
C101 C94 1.357 . S
C101 H114 0.928 . S
H102 C78 0.931 . S
H103 C80 0.930 . S
H104 C82 0.929 . S
H105 C83 0.931 . S
H106 C85 0.930 . S
H107 C89 0.931 . S
H108 C87 0.931 . S
H109 C91 0.931 . S
H110 C92 0.929 . S
H111 C93 0.930 . S
H112 C96 0.930 . S
H113 C97 0.931 . S
H114 C101 0.928 . S
H115 C100 0.929 . S
H116 C98 0.932 . S
C117 C118 1.386 . S
C117 C119 1.397 . S
C117 H141 0.931 . S
C118 C117 1.386 . S
C118 C122 1.397 . S
C119 C117 1.397 . S
C119 C120 1.384 . S
C119 H142 0.930 . S
C120 C119 1.384 . S
C120 C121 1.377 . S
C120 C123 1.481 . S
C121 C120 1.377 . S
C121 C122 1.389 . S
C121 H143 0.929 . S
C122 C118 1.397 . S
C122 C121 1.389 . S
C122 H144 0.931 . S
C123 C120 1.481 . S
C123 C124 1.387 . S
C123 C128 1.390 . S
C124 C123 1.387 . S
C124 C125 1.401 . S
C124 H145 0.930 . S
C125 C124 1.401 . S
C125 C126 1.376 . S
C125 C134 1.511 . S
C126 C125 1.376 . S
C126 C127 1.392 . S
C126 H147 0.931 . S
C127 C126 1.392 . S
C127 C128 1.361 . S
C127 C129 1.500 . S
C128 C123 1.390 . S
C128 C127 1.361 . S
C128 H146 0.931 . S
C129 C127 1.500 . S
C129 C130 1.371 . S
C129 C131 1.365 . S
C130 C129 1.371 . S
C130 C140 1.386 . S
C130 H148 0.931 . S
C131 C129 1.365 . S
C131 C132 1.409 . S
C131 H149 0.929 . S
C132 C131 1.409 . S
C132 C133 1.380 . S
C132 H150 0.930 . S
C133 C132 1.380 . S
C133 C140 1.357 . S
C134 C125 1.511 . S
C134 C135 1.341 . S
C134 C136 1.371 . S
C135 C134 1.341 . S
C135 C139 1.394 . S
C135 H151 0.930 . S
C136 C134 1.371 . S
C136 C137 1.392 . S
C136 H152 0.931 . S
C137 C136 1.392 . S
C137 C138 1.331 . S
C137 H155 0.932 . S
C138 C137 1.331 . S
C138 C139 1.336 . S
C139 C135 1.394 . S
C139 C138 1.336 . S
C139 H154 0.929 . S
C140 C130 1.386 . S
C140 C133 1.357 . S
C140 H153 0.928 . S
H141 C117 0.931 . S
H142 C119 0.930 . S
H143 C121 0.929 . S
H144 C122 0.931 . S
H145 C124 0.930 . S
H146 C128 0.931 . S
H147 C126 0.931 . S
H148 C130 0.931 . S
H149 C131 0.929 . S
H150 C132 0.930 . S
H151 C135 0.930 . S
H152 C136 0.931 . S
H153 C140 0.928 . S
H154 C139 0.929 . S
H155 C137 0.932 . S
C156 C157 1.386 . S
C156 C158 1.397 . S
C156 H180 0.931 . S
C157 C156 1.386 . S
C157 C161 1.397 . S
C158 C156 1.397 . S
C158 C159 1.384 . S
C158 H181 0.930 . S
C159 C158 1.384 . S
C159 C160 1.377 . S
C159 C162 1.481 . S
C160 C159 1.377 . S
C160 C161 1.389 . S
C160 H182 0.929 . S
C161 C157 1.397 . S
C161 C160 1.389 . S
C161 H183 0.931 . S
C162 C159 1.481 . S
C162 C163 1.387 . S
C162 C167 1.390 . S
C163 C162 1.387 . S
C163 C164 1.401 . S
C163 H184 0.930 . S
C164 C163 1.401 . S
C164 C165 1.376 . S
C164 C173 1.511 . S
C165 C164 1.376 . S
C165 C166 1.392 . S
C165 H186 0.931 . S
C166 C165 1.392 . S
C166 C167 1.361 . S
C166 C168 1.500 . S
C167 C162 1.390 . S
C167 C166 1.361 . S
C167 H185 0.931 . S
C168 C166 1.500 . S
C168 C169 1.371 . S
C168 C170 1.365 . S
C169 C168 1.371 . S
C169 C179 1.386 . S
C169 H187 0.931 . S
C170 C168 1.365 . S
C170 C171 1.409 . S
C170 H188 0.929 . S
C171 C170 1.409 . S
C171 C172 1.380 . S
C171 H189 0.930 . S
C172 C171 1.380 . S
C172 C179 1.357 . S
C173 C164 1.511 . S
C173 C174 1.341 . S
C173 C175 1.371 . S
C174 C173 1.341 . S
C174 C178 1.394 . S
C174 H190 0.930 . S
C175 C173 1.371 . S
C175 C176 1.392 . S
C175 H191 0.931 . S
C176 C175 1.392 . S
C176 C177 1.331 . S
C176 H194 0.932 . S
C177 C176 1.331 . S
C177 C178 1.336 . S
C178 C174 1.394 . S
C178 C177 1.336 . S
C178 H193 0.929 . S
C179 C169 1.386 . S
C179 C172 1.357 . S
C179 H192 0.928 . S
H180 C156 0.931 . S
H181 C158 0.930 . S
H182 C160 0.929 . S
H183 C161 0.931 . S
H184 C163 0.930 . S
H185 C167 0.931 . S
H186 C165 0.931 . S
H187 C169 0.931 . S
H188 C170 0.929 . S
H189 C171 0.930 . S
H190 C174 0.930 . S
H191 C175 0.931 . S
H192 C179 0.928 . S
H193 C178 0.929 . S
H194 C176 0.932 . S
C195 C196 1.386 . S
C195 C197 1.397 . S
C195 H219 0.931 . S
C196 C195 1.386 . S
C196 C200 1.397 . S
C197 C195 1.397 . S
C197 C198 1.384 . S
C197 H220 0.930 . S
C198 C197 1.384 . S
C198 C199 1.377 . S
C198 C201 1.481 . S
C199 C198 1.377 . S
C199 C200 1.389 . S
C199 H221 0.929 . S
C200 C196 1.397 . S
C200 C199 1.389 . S
C200 H222 0.931 . S
C201 C198 1.481 . S
C201 C202 1.387 . S
C201 C206 1.390 . S
C202 C201 1.387 . S
C202 C203 1.401 . S
C202 H223 0.930 . S
C203 C202 1.401 . S
C203 C204 1.376 . S
C203 C212 1.511 . S
C204 C203 1.376 . S
C204 C205 1.392 . S
C204 H225 0.931 . S
C205 C204 1.392 . S
C205 C206 1.361 . S
C205 C207 1.500 . S
C206 C201 1.390 . S
C206 C205 1.361 . S
C206 H224 0.931 . S
C207 C205 1.500 . S
C207 C208 1.371 . S
C207 C209 1.365 . S
C208 C207 1.371 . S
C208 C218 1.386 . S
C208 H226 0.931 . S
C209 C207 1.365 . S
C209 C210 1.409 . S
C209 H227 0.929 . S
C210 C209 1.409 . S
C210 C211 1.380 . S
C210 H228 0.930 . S
C211 C210 1.380 . S
C211 C218 1.357 . S
C212 C203 1.511 . S
C212 C213 1.341 . S
C212 C214 1.371 . S
C213 C212 1.341 . S
C213 C217 1.394 . S
C213 H229 0.930 . S
C214 C212 1.371 . S
C214 C215 1.392 . S
C214 H230 0.931 . S
C215 C214 1.392 . S
C215 C216 1.331 . S
C215 H233 0.932 . S
C216 C215 1.331 . S
C216 C217 1.336 . S
C217 C213 1.394 . S
C217 C216 1.336 . S
C217 H232 0.929 . S
C218 C208 1.386 . S
C218 C211 1.357 . S
C218 H231 0.928 . S
H219 C195 0.931 . S
H220 C197 0.930 . S
H221 C199 0.929 . S
H222 C200 0.931 . S
H223 C202 0.930 . S
H224 C206 0.931 . S
H225 C204 0.931 . S
H226 C208 0.931 . S
H227 C209 0.929 . S
H228 C210 0.930 . S
H229 C213 0.930 . S
H230 C214 0.931 . S
H231 C218 0.928 . S
H232 C217 0.929 . S
H233 C215 0.932 . S
C234 C235 1.386 . S
C234 C236 1.397 . S
C234 H258 0.931 . S
C235 C234 1.386 . S
C235 C239 1.397 . S
C236 C234 1.397 . S
C236 C237 1.384 . S
C236 H259 0.930 . S
C237 C236 1.384 . S
C237 C238 1.377 . S
C237 C240 1.481 . S
C238 C237 1.377 . S
C238 C239 1.389 . S
C238 H260 0.929 . S
C239 C235 1.397 . S
C239 C238 1.389 . S
C239 H261 0.931 . S
C240 C237 1.481 . S
C240 C241 1.387 . S
C240 C245 1.390 . S
C241 C240 1.387 . S
C241 C242 1.401 . S
C241 H262 0.930 . S
C242 C241 1.401 . S
C242 C243 1.376 . S
C242 C251 1.511 . S
C243 C242 1.376 . S
C243 C244 1.392 . S
C243 H264 0.931 . S
C244 C243 1.392 . S
C244 C245 1.361 . S
C244 C246 1.500 . S
C245 C240 1.390 . S
C245 C244 1.361 . S
C245 H263 0.931 . S
C246 C244 1.500 . S
C246 C247 1.371 . S
C246 C248 1.365 . S
C247 C246 1.371 . S
C247 C257 1.386 . S
C247 H265 0.931 . S
C248 C246 1.365 . S
C248 C249 1.409 . S
C248 H266 0.929 . S
C249 C248 1.409 . S
C249 C250 1.380 . S
C249 H267 0.930 . S
C250 C249 1.380 . S
C250 C257 1.357 . S
C251 C242 1.511 . S
C251 C252 1.341 . S
C251 C253 1.371 . S
C252 C251 1.341 . S
C252 C256 1.394 . S
C252 H268 0.930 . S
C253 C251 1.371 . S
C253 C254 1.392 . S
C253 H269 0.931 . S
C254 C253 1.392 . S
C254 C255 1.331 . S
C254 H272 0.932 . S
C255 C254 1.331 . S
C255 C256 1.336 . S
C256 C252 1.394 . S
C256 C255 1.336 . S
C256 H271 0.929 . S
C257 C247 1.386 . S
C257 C250 1.357 . S
C257 H270 0.928 . S
H258 C234 0.931 . S
H259 C236 0.930 . S
H260 C238 0.929 . S
H261 C239 0.931 . S
H262 C241 0.930 . S
H263 C245 0.931 . S
H264 C243 0.931 . S
H265 C247 0.931 . S
H266 C248 0.929 . S
H267 C249 0.930 . S
H268 C252 0.930 . S
H269 C253 0.931 . S
H270 C257 0.928 . S
H271 C256 0.929 . S
H272 C254 0.932 . S
C273 C274 1.386 . S
C273 C275 1.397 . S
C273 H297 0.931 . S
C274 C273 1.386 . S
C274 C278 1.397 . S
C275 C273 1.397 . S
C275 C276 1.384 . S
C275 H298 0.930 . S
C276 C275 1.384 . S
C276 C277 1.377 . S
C276 C279 1.481 . S
C277 C276 1.377 . S
C277 C278 1.389 . S
C277 H299 0.929 . S
C278 C274 1.397 . S
C278 C277 1.389 . S
C278 H300 0.931 . S
C279 C276 1.481 . S
C279 C280 1.387 . S
C279 C284 1.390 . S
C280 C279 1.387 . S
C280 C281 1.401 . S
C280 H301 0.930 . S
C281 C280 1.401 . S
C281 C282 1.376 . S
C281 C290 1.511 . S
C282 C281 1.376 . S
C282 C283 1.392 . S
C282 H303 0.931 . S
C283 C282 1.392 . S
C283 C284 1.361 . S
C283 C285 1.500 . S
C284 C279 1.390 . S
C284 C283 1.361 . S
C284 H302 0.931 . S
C285 C283 1.500 . S
C285 C286 1.371 . S
C285 C287 1.365 . S
C286 C285 1.371 . S
C286 C296 1.386 . S
C286 H304 0.931 . S
C287 C285 1.365 . S
C287 C288 1.409 . S
C287 H305 0.929 . S
C288 C287 1.409 . S
C288 C289 1.380 . S
C288 H306 0.930 . S
C289 C288 1.380 . S
C289 C296 1.357 . S
C290 C281 1.511 . S
C290 C291 1.341 . S
C290 C292 1.371 . S
C291 C290 1.341 . S
C291 C295 1.394 . S
C291 H307 0.930 . S
C292 C290 1.371 . S
C292 C293 1.392 . S
C292 H308 0.931 . S
C293 C292 1.392 . S
C293 C294 1.331 . S
C293 H311 0.932 . S
C294 C293 1.331 . S
C294 C295 1.336 . S
C295 C291 1.394 . S
C295 C294 1.336 . S
C295 H310 0.929 . S
C296 C286 1.386 . S
C296 C289 1.357 . S
C296 H309 0.928 . S
H297 C273 0.931 . S
H298 C275 0.930 . S
H299 C277 0.929 . S
H300 C278 0.931 . S
H301 C280 0.930 . S
H302 C284 0.931 . S
H303 C282 0.931 . S
H304 C286 0.931 . S
H305 C287 0.929 . S
H306 C288 0.930 . S
H307 C291 0.930 . S
H308 C292 0.931 . S
H309 C296 0.928 . S
H310 C295 0.929 . S
H311 C293 0.932 . S
C312 C313 1.386 . S
C312 C314 1.397 . S
C312 H336 0.931 . S
C313 C312 1.386 . S
C313 C317 1.397 . S
C314 C312 1.397 . S
C314 C315 1.384 . S
C314 H337 0.930 . S
C315 C314 1.384 . S
C315 C316 1.377 . S
C315 C318 1.481 . S
C316 C315 1.377 . S
C316 C317 1.389 . S
C316 H338 0.929 . S
C317 C313 1.397 . S
C317 C316 1.389 . S
C317 H339 0.931 . S
C318 C315 1.481 . S
C318 C319 1.387 . S
C318 C323 1.390 . S
C319 C318 1.387 . S
C319 C320 1.401 . S
C319 H340 0.930 . S
C320 C319 1.401 . S
C320 C321 1.376 . S
C320 C329 1.511 . S
C321 C320 1.376 . S
C321 C322 1.392 . S
C321 H342 0.931 . S
C322 C321 1.392 . S
C322 C323 1.361 . S
C322 C324 1.500 . S
C323 C318 1.390 . S
C323 C322 1.361 . S
C323 H341 0.931 . S
C324 C322 1.500 . S
C324 C325 1.371 . S
C324 C326 1.365 . S
C325 C324 1.371 . S
C325 C335 1.386 . S
C325 H343 0.931 . S
C326 C324 1.365 . S
C326 C327 1.409 . S
C326 H344 0.929 . S
C327 C326 1.409 . S
C327 C328 1.380 . S
C327 H345 0.930 . S
C328 C327 1.380 . S
C328 C335 1.357 . S
C329 C320 1.511 . S
C329 C330 1.341 . S
C329 C331 1.371 . S
C330 C329 1.341 . S
C330 C334 1.394 . S
C330 H346 0.930 . S
C331 C329 1.371 . S
C331 C332 1.392 . S
C331 H347 0.931 . S
C332 C331 1.392 . S
C332 C333 1.331 . S
C332 H350 0.932 . S
C333 C332 1.331 . S
C333 C334 1.336 . S
C334 C330 1.394 . S
C334 C333 1.336 . S
C334 H349 0.929 . S
C335 C325 1.386 . S
C335 C328 1.357 . S
C335 H348 0.928 . S
H336 C312 0.931 . S
H337 C314 0.930 . S
H338 C316 0.929 . S
H339 C317 0.931 . S
H340 C319 0.930 . S
H341 C323 0.931 . S
H342 C321 0.931 . S
H343 C325 0.931 . S
H344 C326 0.929 . S
H345 C327 0.930 . S
H346 C330 0.930 . S
H347 C331 0.931 . S
H348 C335 0.928 . S
H349 C334 0.929 . S
H350 C332 0.932 . S
C351 C352 1.386 . S
C351 C353 1.397 . S
C351 H375 0.931 . S
C352 C351 1.386 . S
C352 C356 1.397 . S
C353 C351 1.397 . S
C353 C354 1.384 . S
C353 H376 0.930 . S
C354 C353 1.384 . S
C354 C355 1.377 . S
C354 C357 1.481 . S
C355 C354 1.377 . S
C355 C356 1.389 . S
C355 H377 0.929 . S
C356 C352 1.397 . S
C356 C355 1.389 . S
C356 H378 0.931 . S
C357 C354 1.481 . S
C357 C358 1.387 . S
C357 C362 1.390 . S
C358 C357 1.387 . S
C358 C359 1.401 . S
C358 H379 0.930 . S
C359 C358 1.401 . S
C359 C360 1.376 . S
C359 C368 1.511 . S
C360 C359 1.376 . S
C360 C361 1.392 . S
C360 H381 0.931 . S
C361 C360 1.392 . S
C361 C362 1.361 . S
C361 C363 1.500 . S
C362 C357 1.390 . S
C362 C361 1.361 . S
C362 H380 0.931 . S
C363 C361 1.500 . S
C363 C364 1.371 . S
C363 C365 1.365 . S
C364 C363 1.371 . S
C364 C374 1.386 . S
C364 H382 0.931 . S
C365 C363 1.365 . S
C365 C366 1.409 . S
C365 H383 0.929 . S
C366 C365 1.409 . S
C366 C367 1.380 . S
C366 H384 0.930 . S
C367 C366 1.380 . S
C367 C374 1.357 . S
C368 C359 1.511 . S
C368 C369 1.341 . S
C368 C370 1.371 . S
C369 C368 1.341 . S
C369 C373 1.394 . S
C369 H385 0.930 . S
C370 C368 1.371 . S
C370 C371 1.392 . S
C370 H386 0.931 . S
C371 C370 1.392 . S
C371 C372 1.331 . S
C371 H389 0.932 . S
C372 C371 1.331 . S
C372 C373 1.336 . S
C373 C369 1.394 . S
C373 C372 1.336 . S
C373 H388 0.929 . S
C374 C364 1.386 . S
C374 C367 1.357 . S
C374 H387 0.928 . S
H375 C351 0.931 . S
H376 C353 0.930 . S
H377 C355 0.929 . S
H378 C356 0.931 . S
H379 C358 0.930 . S
H380 C362 0.931 . S
H381 C360 0.931 . S
H382 C364 0.931 . S
H383 C365 0.929 . S
H384 C366 0.930 . S
H385 C369 0.930 . S
H386 C370 0.931 . S
H387 C374 0.928 . S
H388 C373 0.929 . S
H389 C371 0.932 . S
C390 C391 1.386 . S
C390 C392 1.397 . S
C390 H414 0.931 . S
C391 C390 1.386 . S
C391 C395 1.397 . S
C392 C390 1.397 . S
C392 C393 1.384 . S
C392 H415 0.930 . S
C393 C392 1.384 . S
C393 C394 1.377 . S
C393 C396 1.481 . S
C394 C393 1.377 . S
C394 C395 1.389 . S
C394 H416 0.929 . S
C395 C391 1.397 . S
C395 C394 1.389 . S
C395 H417 0.931 . S
C396 C393 1.481 . S
C396 C397 1.387 . S
C396 C401 1.390 . S
C397 C396 1.387 . S
C397 C398 1.401 . S
C397 H418 0.930 . S
C398 C397 1.401 . S
C398 C399 1.376 . S
C398 C407 1.511 . S
C399 C398 1.376 . S
C399 C400 1.392 . S
C399 H420 0.931 . S
C400 C399 1.392 . S
C400 C401 1.361 . S
C400 C402 1.500 . S
C401 C396 1.390 . S
C401 C400 1.361 . S
C401 H419 0.931 . S
C402 C400 1.500 . S
C402 C403 1.371 . S
C402 C404 1.365 . S
C403 C402 1.371 . S
C403 C413 1.386 . S
C403 H421 0.931 . S
C404 C402 1.365 . S
C404 C405 1.409 . S
C404 H422 0.929 . S
C405 C404 1.409 . S
C405 C406 1.380 . S
C405 H423 0.930 . S
C406 C405 1.380 . S
C406 C413 1.357 . S
C407 C398 1.511 . S
C407 C408 1.341 . S
C407 C409 1.371 . S
C408 C407 1.341 . S
C408 C412 1.394 . S
C408 H424 0.930 . S
C409 C407 1.371 . S
C409 C410 1.392 . S
C409 H425 0.931 . S
C410 C409 1.392 . S
C410 C411 1.331 . S
C410 H428 0.932 . S
C411 C410 1.331 . S
C411 C412 1.336 . S
C412 C408 1.394 . S
C412 C411 1.336 . S
C412 H427 0.929 . S
C413 C403 1.386 . S
C413 C406 1.357 . S
C413 H426 0.928 . S
H414 C390 0.931 . S
H415 C392 0.930 . S
H416 C394 0.929 . S
H417 C395 0.931 . S
H418 C397 0.930 . S
H419 C401 0.931 . S
H420 C399 0.931 . S
H421 C403 0.931 . S
H422 C404 0.929 . S
H423 C405 0.930 . S
H424 C408 0.930 . S
H425 C409 0.931 . S
H426 C413 0.928 . S
H427 C412 0.929 . S
H428 C410 0.932 . S
C429 C430 1.386 . S
C429 C431 1.397 . S
C429 H453 0.931 . S
C430 C429 1.386 . S
C430 C434 1.397 . S
C431 C429 1.397 . S
C431 C432 1.384 . S
C431 H454 0.930 . S
C432 C431 1.384 . S
C432 C433 1.377 . S
C432 C435 1.481 . S
C433 C432 1.377 . S
C433 C434 1.389 . S
C433 H455 0.929 . S
C434 C430 1.397 . S
C434 C433 1.389 . S
C434 H456 0.931 . S
C435 C432 1.481 . S
C435 C436 1.387 . S
C435 C440 1.390 . S
C436 C435 1.387 . S
C436 C437 1.401 . S
C436 H457 0.930 . S
C437 C436 1.401 . S
C437 C438 1.376 . S
C437 C446 1.511 . S
C438 C437 1.376 . S
C438 C439 1.392 . S
C438 H459 0.931 . S
C439 C438 1.392 . S
C439 C440 1.361 . S
C439 C441 1.500 . S
C440 C435 1.390 . S
C440 C439 1.361 . S
C440 H458 0.931 . S
C441 C439 1.500 . S
C441 C442 1.371 . S
C441 C443 1.365 . S
C442 C441 1.371 . S
C442 C452 1.386 . S
C442 H460 0.931 . S
C443 C441 1.365 . S
C443 C444 1.409 . S
C443 H461 0.929 . S
C444 C443 1.409 . S
C444 C445 1.380 . S
C444 H462 0.930 . S
C445 C444 1.380 . S
C445 C452 1.357 . S
C446 C437 1.511 . S
C446 C447 1.341 . S
C446 C448 1.371 . S
C447 C446 1.341 . S
C447 C451 1.394 . S
C447 H463 0.930 . S
C448 C446 1.371 . S
C448 C449 1.392 . S
C448 H464 0.931 . S
C449 C448 1.392 . S
C449 C450 1.331 . S
C449 H467 0.932 . S
C450 C449 1.331 . S
C450 C451 1.336 . S
C451 C447 1.394 . S
C451 C450 1.336 . S
C451 H466 0.929 . S
C452 C442 1.386 . S
C452 C445 1.357 . S
C452 H465 0.928 . S
H453 C429 0.931 . S
H454 C431 0.930 . S
H455 C433 0.929 . S
H456 C434 0.931 . S
H457 C436 0.930 . S
H458 C440 0.931 . S
H459 C438 0.931 . S
H460 C442 0.931 . S
H461 C443 0.929 . S
H462 C444 0.930 . S
H463 C447 0.930 . S
H464 C448 0.931 . S
H465 C452 0.928 . S
H466 C451 0.929 . S
H467 C449 0.932 . S
C468 C469 1.386 . S
C468 C470 1.397 . S
C468 H492 0.931 . S
C469 C468 1.386 . S
C469 C473 1.397 . S
C470 C468 1.397 . S
C470 C471 1.384 . S
C470 H493 0.930 . S
C471 C470 1.384 . S
C471 C472 1.377 . S
C471 C474 1.481 . S
C472 C471 1.377 . S
C472 C473 1.389 . S
C472 H494 0.929 . S
C473 C469 1.397 . S
C473 C472 1.389 . S
C473 H495 0.931 . S
C474 C471 1.481 . S
C474 C475 1.387 . S
C474 C479 1.390 . S
C475 C474 1.387 . S
C475 C476 1.401 . S
C475 H496 0.930 . S
C476 C475 1.401 . S
C476 C477 1.376 . S
C476 C485 1.511 . S
C477 C476 1.376 . S
C477 C478 1.392 . S
C477 H498 0.931 . S
C478 C477 1.392 . S
C478 C479 1.361 . S
C478 C480 1.500 . S
C479 C474 1.390 . S
C479 C478 1.361 . S
C479 H497 0.931 . S
C480 C478 1.500 . S
C480 C481 1.371 . S
C480 C482 1.365 . S
C481 C480 1.371 . S
C481 C491 1.386 . S
C481 H499 0.931 . S
C482 C480 1.365 . S
C482 C483 1.409 . S
C482 H500 0.929 . S
C483 C482 1.409 . S
C483 C484 1.380 . S
C483 H501 0.930 . S
C484 C483 1.380 . S
C484 C491 1.357 . S
C485 C476 1.511 . S
C485 C486 1.341 . S
C485 C487 1.371 . S
C486 C485 1.341 . S
C486 C490 1.394 . S
C486 H502 0.930 . S
C487 C485 1.371 . S
C487 C488 1.392 . S
C487 H503 0.931 . S
C488 C487 1.392 . S
C488 C489 1.331 . S
C488 H506 0.932 . S
C489 C488 1.331 . S
C489 C490 1.336 . S
C490 C486 1.394 . S
C490 C489 1.336 . S
C490 H505 0.929 . S
C491 C481 1.386 . S
C491 C484 1.357 . S
C491 H504 0.928 . S
H492 C468 0.931 . S
H493 C470 0.930 . S
H494 C472 0.929 . S
H495 C473 0.931 . S
H496 C475 0.930 . S
H497 C479 0.931 . S
H498 C477 0.931 . S
H499 C481 0.931 . S
H500 C482 0.929 . S
H501 C483 0.930 . S
H502 C486 0.930 . S
H503 C487 0.931 . S
H504 C491 0.928 . S
H505 C490 0.929 . S
H506 C488 0.932 . S
C507 C508 1.386 . S
C507 C509 1.397 . S
C507 H531 0.931 . S
C508 C507 1.386 . S
C508 C512 1.397 . S
C509 C507 1.397 . S
C509 C510 1.384 . S
C509 H532 0.930 . S
C510 C509 1.384 . S
C510 C511 1.377 . S
C510 C513 1.481 . S
C511 C510 1.377 . S
C511 C512 1.389 . S
C511 H533 0.929 . S
C512 C508 1.397 . S
C512 C511 1.389 . S
C512 H534 0.931 . S
C513 C510 1.481 . S
C513 C514 1.387 . S
C513 C518 1.390 . S
C514 C513 1.387 . S
C514 C515 1.401 . S
C514 H535 0.930 . S
C515 C514 1.401 . S
C515 C516 1.376 . S
C515 C524 1.511 . S
C516 C515 1.376 . S
C516 C517 1.392 . S
C516 H537 0.931 . S
C517 C516 1.392 . S
C517 C518 1.361 . S
C517 C519 1.500 . S
C518 C513 1.390 . S
C518 C517 1.361 . S
C518 H536 0.931 . S
C519 C517 1.500 . S
C519 C520 1.371 . S
C519 C521 1.365 . S
C520 C519 1.371 . S
C520 C530 1.386 . S
C520 H538 0.931 . S
C521 C519 1.365 . S
C521 C522 1.409 . S
C521 H539 0.929 . S
C522 C521 1.409 . S
C522 C523 1.380 . S
C522 H540 0.930 . S
C523 C522 1.380 . S
C523 C530 1.357 . S
C524 C515 1.511 . S
C524 C525 1.341 . S
C524 C526 1.371 . S
C525 C524 1.341 . S
C525 C529 1.394 . S
C525 H541 0.930 . S
C526 C524 1.371 . S
C526 C527 1.392 . S
C526 H542 0.931 . S
C527 C526 1.392 . S
C527 C528 1.331 . S
C527 H545 0.932 . S
C528 C527 1.331 . S
C528 C529 1.336 . S
C529 C525 1.394 . S
C529 C528 1.336 . S
C529 H544 0.929 . S
C530 C520 1.386 . S
C530 C523 1.357 . S
C530 H543 0.928 . S
H531 C507 0.931 . S
H532 C509 0.930 . S
H533 C511 0.929 . S
H534 C512 0.931 . S
H535 C514 0.930 . S
H536 C518 0.931 . S
H537 C516 0.931 . S
H538 C520 0.931 . S
H539 C521 0.929 . S
H540 C522 0.930 . S
H541 C525 0.930 . S
H542 C526 0.931 . S
H543 C530 0.928 . S
H544 C529 0.929 . S
H545 C527 0.932 . S
C546 C547 1.386 . S
C546 C548 1.397 . S
C546 H570 0.931 . S
C547 C546 1.386 . S
C547 C551 1.397 . S
C548 C546 1.397 . S
C548 C549 1.384 . S
C548 H571 0.930 . S
C549 C548 1.384 . S
C549 C550 1.377 . S
C549 C552 1.481 . S
C550 C549 1.377 . S
C550 C551 1.389 . S
C550 H572 0.929 . S
C551 C547 1.397 . S
C551 C550 1.389 . S
C551 H573 0.931 . S
C552 C549 1.481 . S
C552 C553 1.387 . S
C552 C557 1.390 . S
C553 C552 1.387 . S
C553 C554 1.401 . S
C553 H574 0.930 . S
C554 C553 1.401 . S
C554 C555 1.376 . S
C554 C563 1.511 . S
C555 C554 1.376 . S
C555 C556 1.392 . S
C555 H576 0.931 . S
C556 C555 1.392 . S
C556 C557 1.361 . S
C556 C558 1.500 . S
C557 C552 1.390 . S
C557 C556 1.361 . S
C557 H575 0.931 . S
C558 C556 1.500 . S
C558 C559 1.371 . S
C558 C560 1.365 . S
C559 C558 1.371 . S
C559 C569 1.386 . S
C559 H577 0.931 . S
C560 C558 1.365 . S
C560 C561 1.409 . S
C560 H578 0.929 . S
C561 C560 1.409 . S
C561 C562 1.380 . S
C561 H579 0.930 . S
C562 C561 1.380 . S
C562 C569 1.357 . S
C563 C554 1.511 . S
C563 C564 1.341 . S
C563 C565 1.371 . S
C564 C563 1.341 . S
C564 C568 1.394 . S
C564 H580 0.930 . S
C565 C563 1.371 . S
C565 C566 1.392 . S
C565 H581 0.931 . S
C566 C565 1.392 . S
C566 C567 1.331 . S
C566 H584 0.932 . S
C567 C566 1.331 . S
C567 C568 1.336 . S
C568 C564 1.394 . S
C568 C567 1.336 . S
C568 H583 0.929 . S
C569 C559 1.386 . S
C569 C562 1.357 . S
C569 H582 0.928 . S
H570 C546 0.931 . S
H571 C548 0.930 . S
H572 C550 0.929 . S
H573 C551 0.931 . S
H574 C553 0.930 . S
H575 C557 0.931 . S
H576 C555 0.931 . S
H577 C559 0.931 . S
H578 C560 0.929 . S
H579 C561 0.930 . S
H580 C564 0.930 . S
H581 C565 0.931 . S
H582 C569 0.928 . S
H583 C568 0.929 . S
H584 C566 0.932 . S
C585 C586 1.386 . S
C585 C587 1.397 . S
C585 H609 0.931 . S
C586 C585 1.386 . S
C586 C590 1.397 . S
C587 C585 1.397 . S
C587 C588 1.384 . S
C587 H610 0.930 . S
C588 C587 1.384 . S
C588 C589 1.377 . S
C588 C591 1.481 . S
C589 C588 1.377 . S
C589 C590 1.389 . S
C589 H611 0.929 . S
C590 C586 1.397 . S
C590 C589 1.389 . S
C590 H612 0.931 . S
C591 C588 1.481 . S
C591 C592 1.387 . S
C591 C596 1.390 . S
C592 C591 1.387 . S
C592 C593 1.401 . S
C592 H613 0.930 . S
C593 C592 1.401 . S
C593 C594 1.376 . S
C593 C602 1.511 . S
C594 C593 1.376 . S
C594 C595 1.392 . S
C594 H615 0.931 . S
C595 C594 1.392 . S
C595 C596 1.361 . S
C595 C597 1.500 . S
C596 C591 1.390 . S
C596 C595 1.361 . S
C596 H614 0.931 . S
C597 C595 1.500 . S
C597 C598 1.371 . S
C597 C599 1.365 . S
C598 C597 1.371 . S
C598 C608 1.386 . S
C598 H616 0.931 . S
C599 C597 1.365 . S
C599 C600 1.409 . S
C599 H617 0.929 . S
C600 C599 1.409 . S
C600 C601 1.380 . S
C600 H618 0.930 . S
C601 C600 1.380 . S
C601 C608 1.357 . S
C602 C593 1.511 . S
C602 C603 1.341 . S
C602 C604 1.371 . S
C603 C602 1.341 . S
C603 C607 1.394 . S
C603 H619 0.930 . S
C604 C602 1.371 . S
C604 C605 1.392 . S
C604 H620 0.931 . S
C605 C604 1.392 . S
C605 C606 1.331 . S
C605 H623 0.932 . S
C606 C605 1.331 . S
C606 C607 1.336 . S
C607 C603 1.394 . S
C607 C606 1.336 . S
C607 H622 0.929 . S
C608 C598 1.386 . S
C608 C601 1.357 . S
C608 H621 0.928 . S
H609 C585 0.931 . S
H610 C587 0.930 . S
H611 C589 0.929 . S
H612 C590 0.931 . S
H613 C592 0.930 . S
H614 C596 0.931 . S
H615 C594 0.931 . S
H616 C598 0.931 . S
H617 C599 0.929 . S
H618 C600 0.930 . S
H619 C603 0.930 . S
H620 C604 0.931 . S
H621 C608 0.928 . S
H622 C607 0.929 . S
H623 C605 0.932 . S
C624 C625 1.386 . S
C624 C626 1.397 . S
C624 H648 0.931 . S
C625 C624 1.386 . S
C625 C629 1.397 . S
C626 C624 1.397 . S
C626 C627 1.384 . S
C626 H649 0.930 . S
C627 C626 1.384 . S
C627 C628 1.377 . S
C627 C630 1.481 . S
C628 C627 1.377 . S
C628 C629 1.389 . S
C628 H650 0.929 . S
C629 C625 1.397 . S
C629 C628 1.389 . S
C629 H651 0.931 . S
C630 C627 1.481 . S
C630 C631 1.387 . S
C630 C635 1.390 . S
C631 C630 1.387 . S
C631 C632 1.401 . S
C631 H652 0.930 . S
C632 C631 1.401 . S
C632 C633 1.376 . S
C632 C641 1.511 . S
C633 C632 1.376 . S
C633 C634 1.392 . S
C633 H654 0.931 . S
C634 C633 1.392 . S
C634 C635 1.361 . S
C634 C636 1.500 . S
C635 C630 1.390 . S
C635 C634 1.361 . S
C635 H653 0.931 . S
C636 C634 1.500 . S
C636 C637 1.371 . S
C636 C638 1.365 . S
C637 C636 1.371 . S
C637 C647 1.386 . S
C637 H655 0.931 . S
C638 C636 1.365 . S
C638 C639 1.409 . S
C638 H656 0.929 . S
C639 C638 1.409 . S
C639 C640 1.380 . S
C639 H657 0.930 . S
C640 C639 1.380 . S
C640 C647 1.357 . S
C641 C632 1.511 . S
C641 C642 1.341 . S
C641 C643 1.371 . S
C642 C641 1.341 . S
C642 C646 1.394 . S
C642 H658 0.930 . S
C643 C641 1.371 . S
C643 C644 1.392 . S
C643 H659 0.931 . S
C644 C643 1.392 . S
C644 C645 1.331 . S
C644 H662 0.932 . S
C645 C644 1.331 . S
C645 C646 1.336 . S
C646 C642 1.394 . S
C646 C645 1.336 . S
C646 H661 0.929 . S
C647 C637 1.386 . S
C647 C640 1.357 . S
C647 H660 0.928 . S
H648 C624 0.931 . S
H649 C626 0.930 . S
H650 C628 0.929 . S
H651 C629 0.931 . S
H652 C631 0.930 . S
H653 C635 0.931 . S
H654 C633 0.931 . S
H655 C637 0.931 . S
H656 C638 0.929 . S
H657 C639 0.930 . S
H658 C642 0.930 . S
H659 C643 0.931 . S
H660 C647 0.928 . S
H661 C646 0.929 . S
H662 C644 0.932 . S
C663 C664 1.386 . S
C663 C665 1.397 . S
C663 H687 0.931 . S
C664 C663 1.386 . S
C664 C668 1.397 . S
C665 C663 1.397 . S
C665 C666 1.384 . S
C665 H688 0.930 . S
C666 C665 1.384 . S
C666 C667 1.377 . S
C666 C669 1.481 . S
C667 C666 1.377 . S
C667 C668 1.389 . S
C667 H689 0.929 . S
C668 C664 1.397 . S
C668 C667 1.389 . S
C668 H690 0.931 . S
C669 C666 1.481 . S
C669 C670 1.387 . S
C669 C674 1.390 . S
C670 C669 1.387 . S
C670 C671 1.401 . S
C670 H691 0.930 . S
C671 C670 1.401 . S
C671 C672 1.376 . S
C671 C680 1.511 . S
C672 C671 1.376 . S
C672 C673 1.392 . S
C672 H693 0.931 . S
C673 C672 1.392 . S
C673 C674 1.361 . S
C673 C675 1.500 . S
C674 C669 1.390 . S
C674 C673 1.361 . S
C674 H692 0.931 . S
C675 C673 1.500 . S
C675 C676 1.371 . S
C675 C677 1.365 . S
C676 C675 1.371 . S
C676 C686 1.386 . S
C676 H694 0.931 . S
C677 C675 1.365 . S
C677 C678 1.409 . S
C677 H695 0.929 . S
C678 C677 1.409 . S
C678 C679 1.380 . S
C678 H696 0.930 . S
C679 C678 1.380 . S
C679 C686 1.357 . S
C680 C671 1.511 . S
C680 C681 1.341 . S
C680 C682 1.371 . S
C681 C680 1.341 . S
C681 C685 1.394 . S
C681 H697 0.930 . S
C682 C680 1.371 . S
C682 C683 1.392 . S
C682 H698 0.931 . S
C683 C682 1.392 . S
C683 C684 1.331 . S
C683 H701 0.932 . S
C684 C683 1.331 . S
C684 C685 1.336 . S
C685 C681 1.394 . S
C685 C684 1.336 . S
C685 H700 0.929 . S
C686 C676 1.386 . S
C686 C679 1.357 . S
C686 H699 0.928 . S
H687 C663 0.931 . S
H688 C665 0.930 . S
H689 C667 0.929 . S
H690 C668 0.931 . S
H691 C670 0.930 . S
H692 C674 0.931 . S
H693 C672 0.931 . S
H694 C676 0.931 . S
H695 C677 0.929 . S
H696 C678 0.930 . S
H697 C681 0.930 . S
H698 C682 0.931 . S
H699 C686 0.928 . S
H700 C685 0.929 . S
H701 C683 0.932 . S
Tb702 N733 2.660 . S
Tb702 N740 2.600 . S
Tb702 O746 2.546 . S
Tb702 O747 2.642 1_565 S
Tb702 O749 2.320 1_565 S
Tb702 O750 2.552 1_565 S
Tb702 O751 2.413 . S
Tb702 O753 2.362 1_556 S
Tb702 O754 2.421 . S
Tb702 C766 2.833 . S
C703 C706 1.432 . S
C703 C707 1.414 . S
C703 N710 1.359 . S
C704 C706 1.417 . S
C704 C708 1.432 . S
C704 C716 1.410 . S
C705 C707 1.444 . S
C705 C708 1.317 . S
C705 H728 0.929 . S
C706 C703 1.432 . S
C706 C704 1.417 . S
C706 N714 1.360 . S
C707 C703 1.414 . S
C707 C705 1.444 . S
C707 C712 1.385 . S
C708 C704 1.432 . S
C708 C705 1.317 . S
C708 H720 0.930 . S
C709 C711 1.392 . S
C709 C712 1.370 . S
C709 H721 0.931 . S
N710 C703 1.359 . S
N710 C711 1.327 . S
N710 Tb713 2.600 . S
C711 C709 1.392 . S
C711 N710 1.327 . S
C711 H718 0.930 . S
C712 C707 1.385 . S
C712 C709 1.370 . S
C712 H731 0.930 . S
Tb713 N710 2.600 . S
Tb713 N714 2.660 . S
Tb713 O747 2.308 1_554 S
Tb713 O748 2.421 . S
Tb713 O752 2.546 . S
Tb713 O753 2.610 1_545 S
Tb713 O755 2.320 1_545 S
Tb713 O756 2.552 1_545 S
Tb713 O757 2.413 . S
Tb713 C777 2.833 . S
N714 C706 1.360 . S
N714 Tb713 2.660 . S
N714 C715 1.305 . S
C715 N714 1.305 . S
C715 C717 1.407 . S
C715 H722 0.930 . S
C716 C704 1.410 . S
C716 C717 1.345 . S
C716 H724 0.930 . S
C717 C715 1.407 . S
C717 C716 1.345 . S
C717 H719 0.930 . S
H718 C711 0.930 . S
H719 C717 0.930 . S
H720 C708 0.930 . S
H721 C709 0.931 . S
H722 C715 0.930 . S
H723 C737 0.930 . S
H724 C716 0.930 . S
H725 C743 0.930 . S
H726 C734 0.930 . S
H727 C741 0.931 . S
H728 C705 0.929 . S
H729 C735 0.930 . S
H730 C768 0.930 . S
H731 C712 0.930 . S
H732 C767 0.929 . S
N733 Tb702 2.660 . S
N733 C734 1.305 . S
N733 C738 1.360 . S
C734 H726 0.930 . S
C734 N733 1.305 . S
C734 C737 1.407 . S
C735 H729 0.930 . S
C735 C736 1.410 . S
C735 C737 1.345 . S
C736 C735 1.410 . S
C736 C738 1.417 . S
C736 C768 1.432 . S
C737 H723 0.930 . S
C737 C734 1.407 . S
C737 C735 1.345 . S
C738 N733 1.360 . S
C738 C736 1.417 . S
C738 C742 1.432 . S
H739 C744 0.930 . S
N740 Tb702 2.600 . S
N740 C742 1.359 . S
N740 C743 1.327 . S
C741 H727 0.931 . S
C741 C743 1.392 . S
C741 C744 1.370 . S
C742 C738 1.432 . S
C742 N740 1.359 . S
C742 C745 1.414 . S
C743 H725 0.930 . S
C743 N740 1.327 . S
C743 C741 1.392 . S
C744 H739 0.930 . S
C744 C741 1.370 . S
C744 C745 1.385 . S
C745 C742 1.414 . S
C745 C744 1.385 . S
C745 C767 1.444 . S
O746 Tb702 2.546 . S
O746 C766 1.251 . S
O747 Tb702 2.642 1_545 S
O747 Tb713 2.308 1_556 S
O747 C758 1.328 . S
O748 Tb713 2.421 . S
O748 C765 1.262 1_554 S
O749 Tb702 2.320 1_545 S
O749 C765 1.260 . S
O750 Tb702 2.552 1_545 S
O750 C758 1.243 . S
O751 Tb702 2.413 . S
O751 C766 1.256 . S
O752 Tb713 2.546 . S
O752 C777 1.251 . S
O753 Tb702 2.362 1_554 S
O753 Tb713 2.610 1_565 S
O753 C769 1.283 . S
O754 Tb702 2.421 . S
O754 C776 1.262 1_556 S
O755 Tb713 2.320 1_565 S
O755 C776 1.260 . S
O756 Tb713 2.552 1_565 S
O756 C769 1.243 . S
O757 Tb713 2.413 . S
O757 C777 1.256 . S
C758 O747 1.328 . S
C758 O750 1.243 . S
C759 C761 1.382 1_565 S
C759 C763 1.393 . S
C759 C766 1.500 . S
C760 C761 1.400 . S
C760 C762 1.384 1_545 S
C761 C759 1.382 1_545 S
C761 C760 1.400 . S
C761 H778 0.930 . S
C762 C760 1.384 1_565 S
C762 C764 1.392 . S
C762 H779 0.931 . S
C763 C759 1.393 . S
C763 C764 1.401 . S
C763 H780 0.930 . S
C764 C762 1.392 . S
C764 C763 1.401 . S
C764 H781 0.930 . S
C765 O748 1.262 1_556 S
C765 O749 1.260 . S
C766 Tb702 2.833 . S
C766 O746 1.251 . S
C766 O751 1.256 . S
C766 C759 1.500 . S
C767 H732 0.929 . S
C767 C745 1.444 . S
C767 C768 1.317 . S
C768 H730 0.930 . S
C768 C736 1.432 . S
C768 C767 1.317 . S
C769 O753 1.283 . S
C769 O756 1.243 . S
C770 C771 1.382 1_545 S
C770 C774 1.393 . S
C770 C777 1.500 . S
C771 C770 1.382 1_565 S
C771 C772 1.400 . S
C771 H782 0.930 . S
C772 C771 1.400 . S
C772 C773 1.384 1_565 S
C773 C772 1.384 1_545 S
C773 C775 1.392 . S
C773 H783 0.931 . S
C774 C770 1.393 . S
C774 C775 1.401 . S
C774 H784 0.930 . S
C775 C773 1.392 . S
C775 C774 1.401 . S
C775 H785 0.930 . S
C776 O754 1.262 1_554 S
C776 O755 1.260 . S
C777 Tb713 2.833 . S
C777 O752 1.251 . S
C777 O757 1.256 . S
C777 C770 1.500 . S
H778 C761 0.930 . S
H779 C762 0.931 . S
H780 C763 0.930 . S
H781 C764 0.930 . S
H782 C771 0.930 . S
H783 C773 0.931 . S
H784 C774 0.930 . S
H785 C775 0.930 . S
Tb786 N817 2.660 . S
Tb786 N824 2.600 . S
Tb786 O830 2.546 . S
Tb786 O831 2.610 1_455 S
Tb786 O833 2.320 1_455 S
Tb786 O834 2.552 1_455 S
Tb786 O835 2.413 . S
Tb786 O837 2.362 1_556 S
Tb786 O838 2.463 . S
Tb786 C850 2.833 . S
C787 C790 1.432 . S
C787 C791 1.414 . S
C787 N794 1.359 . S
C788 C790 1.417 . S
C788 C792 1.432 . S
C788 C800 1.410 . S
C789 C791 1.444 . S
C789 C792 1.317 . S
C789 H812 0.929 . S
C790 C787 1.432 . S
C790 C788 1.417 . S
C790 N798 1.360 . S
C791 C787 1.414 . S
C791 C789 1.444 . S
C791 C796 1.385 . S
C792 C788 1.432 . S
C792 C789 1.317 . S
C792 H804 0.930 . S
C793 C795 1.392 . S
C793 C796 1.370 . S
C793 H805 0.931 . S
N794 C787 1.359 . S
N794 C795 1.327 . S
N794 Tb797 2.600 . S
C795 C793 1.392 . S
C795 N794 1.327 . S
C795 H802 0.930 . S
C796 C791 1.385 . S
C796 C793 1.370 . S
C796 H815 0.930 . S
Tb797 N794 2.600 . S
Tb797 N798 2.660 . S
Tb797 O831 2.362 1_554 S
Tb797 O832 2.421 . S
Tb797 O836 2.546 . S
Tb797 O837 2.610 1_655 S
Tb797 O839 2.320 1_655 S
Tb797 O840 2.552 1_655 S
Tb797 O841 2.413 . S
Tb797 C861 2.833 . S
N798 C790 1.360 . S
N798 Tb797 2.660 . S
N798 C799 1.305 . S
C799 N798 1.305 . S
C799 C801 1.407 . S
C799 H806 0.930 . S
C800 C788 1.410 . S
C800 C801 1.345 . S
C800 H808 0.930 . S
C801 C799 1.407 . S
C801 C800 1.345 . S
C801 H803 0.930 . S
H802 C795 0.930 . S
H803 C801 0.930 . S
H804 C792 0.930 . S
H805 C793 0.931 . S
H806 C799 0.930 . S
H807 C821 0.930 . S
H808 C800 0.930 . S
H809 C827 0.930 . S
H810 C818 0.930 . S
H811 C825 0.931 . S
H812 C789 0.929 . S
H813 C819 0.930 . S
H814 C852 0.930 . S
H815 C796 0.930 . S
H816 C851 0.929 . S
N817 Tb786 2.660 . S
N817 C818 1.305 . S
N817 C822 1.360 . S
C818 H810 0.930 . S
C818 N817 1.305 . S
C818 C821 1.407 . S
C819 H813 0.930 . S
C819 C820 1.410 . S
C819 C821 1.345 . S
C820 C819 1.410 . S
C820 C822 1.417 . S
C820 C852 1.432 . S
C821 H807 0.930 . S
C821 C818 1.407 . S
C821 C819 1.345 . S
C822 N817 1.360 . S
C822 C820 1.417 . S
C822 C826 1.432 . S
H823 C828 0.930 . S
N824 Tb786 2.600 . S
N824 C826 1.359 . S
N824 C827 1.327 . S
C825 H811 0.931 . S
C825 C827 1.392 . S
C825 C828 1.370 . S
C826 C822 1.432 . S
C826 N824 1.359 . S
C826 C829 1.414 . S
C827 H809 0.930 . S
C827 N824 1.327 . S
C827 C825 1.392 . S
C828 H823 0.930 . S
C828 C825 1.370 . S
C828 C829 1.385 . S
C829 C826 1.414 . S
C829 C828 1.385 . S
C829 C851 1.444 . S
O830 Tb786 2.546 . S
O830 C850 1.251 . S
O831 Tb786 2.610 1_655 S
O831 Tb797 2.362 1_556 S
O831 C842 1.283 . S
O832 Tb797 2.421 . S
O832 C849 1.262 1_554 S
O833 Tb786 2.320 1_655 S
O833 C849 1.260 . S
O834 Tb786 2.552 1_655 S
O834 C842 1.243 . S
O835 Tb786 2.413 . S
O835 C850 1.256 . S
O836 Tb797 2.546 . S
O836 C861 1.251 . S
O837 Tb786 2.362 1_554 S
O837 Tb797 2.610 1_455 S
O837 C853 1.283 . S
O838 Tb786 2.463 . S
O838 C860 1.188 1_556 S
O839 Tb797 2.320 1_455 S
O839 C860 1.260 . S
O840 Tb797 2.552 1_455 S
O840 C853 1.243 . S
O841 Tb797 2.413 . S
O841 C861 1.256 . S
C842 O831 1.283 . S
C842 O834 1.243 . S
C843 C845 1.382 1_455 S
C843 C847 1.393 . S
C843 C850 1.500 . S
C844 C845 1.400 . S
C844 C846 1.384 1_655 S
C845 C843 1.382 1_655 S
C845 C844 1.400 . S
C845 H862 0.930 . S
C846 C844 1.384 1_455 S
C846 C848 1.392 . S
C846 H863 0.931 . S
C847 C843 1.393 . S
C847 C848 1.401 . S
C847 H864 0.930 . S
C848 C846 1.392 . S
C848 C847 1.401 . S
C848 H865 0.930 . S
C849 O832 1.262 1_556 S
C849 O833 1.260 . S
C850 Tb786 2.833 . S
C850 O830 1.251 . S
C850 O835 1.256 . S
C850 C843 1.500 . S
C851 H816 0.929 . S
C851 C829 1.444 . S
C851 C852 1.317 . S
C852 H814 0.930 . S
C852 C820 1.432 . S
C852 C851 1.317 . S
C853 O837 1.283 . S
C853 O840 1.243 . S
C854 C855 1.382 1_655 S
C854 C858 1.393 . S
C854 C861 1.500 . S
C855 C854 1.382 1_455 S
C855 C856 1.400 . S
C855 H866 0.930 . S
C856 C855 1.400 . S
C856 C857 1.384 1_455 S
C857 C856 1.384 1_655 S
C857 C859 1.392 . S
C857 H867 0.931 . S
C858 C854 1.393 . S
C858 C859 1.401 . S
C858 H868 0.930 . S
C859 C857 1.392 . S
C859 C858 1.401 . S
C859 H869 0.930 . S
C860 O838 1.188 1_554 S
C860 O839 1.260 . S
C861 Tb797 2.833 . S
C861 O836 1.251 . S
C861 O841 1.256 . S
C861 C854 1.500 . S
H862 C845 0.930 . S
H863 C846 0.931 . S
H864 C847 0.930 . S
H865 C848 0.930 . S
H866 C855 0.930 . S
H867 C857 0.931 . S
H868 C858 0.930 . S
H869 C859 0.930 . S
Tb870 N901 2.660 . S
Tb870 N908 2.600 . S
Tb870 O914 2.546 . S
Tb870 O915 2.610 . S
Tb870 O917 2.320 . S
Tb870 O918 2.552 . S
Tb870 O919 2.413 . S
Tb870 O921 2.362 1_554 S
Tb870 O922 2.421 . S
Tb870 C934 2.833 . S
C871 C874 1.432 . S
C871 C875 1.414 . S
C871 N878 1.359 . S
C872 C874 1.417 . S
C872 C876 1.432 . S
C872 C884 1.410 . S
C873 C875 1.444 . S
C873 C876 1.317 . S
C873 H896 0.929 . S
C874 C871 1.432 . S
C874 C872 1.417 . S
C874 N882 1.360 . S
C875 C871 1.414 . S
C875 C873 1.444 . S
C875 C880 1.385 . S
C876 C872 1.432 . S
C876 C873 1.317 . S
C876 H888 0.930 . S
C877 C879 1.392 . S
C877 C880 1.370 . S
C877 H889 0.931 . S
N878 C871 1.359 . S
N878 C879 1.327 . S
N878 Tb881 2.600 . S
C879 C877 1.392 . S
C879 N878 1.327 . S
C879 H886 0.930 . S
C880 C875 1.385 . S
C880 C877 1.370 . S
C880 H899 0.930 . S
Tb881 N878 2.600 . S
Tb881 N882 2.660 . S
Tb881 O915 2.362 1_556 S
Tb881 O916 2.421 . S
Tb881 O920 2.546 . S
Tb881 O921 2.610 . S
Tb881 O923 2.320 . S
Tb881 O924 2.552 . S
Tb881 O925 2.413 . S
Tb881 C945 2.833 . S
N882 C874 1.360 . S
N882 Tb881 2.660 . S
N882 C883 1.305 . S
C883 N882 1.305 . S
C883 C885 1.407 . S
C883 H890 0.930 . S
C884 C872 1.410 . S
C884 C885 1.345 . S
C884 H892 0.930 . S
C885 C883 1.407 . S
C885 C884 1.345 . S
C885 H887 0.930 . S
H886 C879 0.930 . S
H887 C885 0.930 . S
H888 C876 0.930 . S
H889 C877 0.931 . S
H890 C883 0.930 . S
H891 C905 0.930 . S
H892 C884 0.930 . S
H893 C911 0.930 . S
H894 C902 0.930 . S
H895 C909 0.931 . S
H896 C873 0.929 . S
H897 C903 0.930 . S
H898 C936 0.930 . S
H899 C880 0.930 . S
H900 C935 0.929 . S
N901 Tb870 2.660 . S
N901 C902 1.305 . S
N901 C906 1.360 . S
C902 H894 0.930 . S
C902 N901 1.305 . S
C902 C905 1.407 . S
C903 H897 0.930 . S
C903 C904 1.410 . S
C903 C905 1.345 . S
C904 C903 1.410 . S
C904 C906 1.417 . S
C904 C936 1.432 . S
C905 H891 0.930 . S
C905 C902 1.407 . S
C905 C903 1.345 . S
C906 N901 1.360 . S
C906 C904 1.417 . S
C906 C910 1.432 . S
H907 C912 0.930 . S
N908 Tb870 2.600 . S
N908 C910 1.359 . S
N908 C911 1.327 . S
C909 H895 0.931 . S
C909 C911 1.392 . S
C909 C912 1.370 . S
C910 C906 1.432 . S
C910 N908 1.359 . S
C910 C913 1.414 . S
C911 H893 0.930 . S
C911 N908 1.327 . S
C911 C909 1.392 . S
C912 H907 0.930 . S
C912 C909 1.370 . S
C912 C913 1.385 . S
C913 C910 1.414 . S
C913 C912 1.385 . S
C913 C935 1.444 . S
O914 Tb870 2.546 . S
O914 C934 1.251 . S
O915 Tb870 2.610 . S
O915 Tb881 2.362 1_554 S
O915 C926 1.283 . S
O916 Tb881 2.421 . S
O916 C933 1.262 1_556 S
O917 Tb870 2.320 . S
O917 C933 1.260 . S
O918 Tb870 2.552 . S
O918 C926 1.243 . S
O919 Tb870 2.413 . S
O919 C934 1.256 . S
O920 Tb881 2.546 . S
O920 C945 1.251 . S
O921 Tb870 2.362 1_556 S
O921 Tb881 2.610 . S
O921 C937 1.283 . S
O922 Tb870 2.421 . S
O922 C944 1.262 1_554 S
O923 Tb881 2.320 . S
O923 C944 1.260 . S
O924 Tb881 2.552 . S
O924 C937 1.243 . S
O925 Tb881 2.413 . S
O925 C945 1.256 . S
C926 O915 1.283 . S
C926 O918 1.243 . S
C927 C929 1.382 . S
C927 C931 1.393 . S
C927 C934 1.500 . S
C928 C929 1.400 . S
C928 C930 1.384 . S
C929 C927 1.382 . S
C929 C928 1.400 . S
C929 H946 0.930 . S
C930 C928 1.384 . S
C930 C932 1.392 . S
C930 H947 0.931 . S
C931 C927 1.393 . S
C931 C932 1.401 . S
C931 H948 0.930 . S
C932 C930 1.392 . S
C932 C931 1.401 . S
C932 H949 0.930 . S
C933 O916 1.262 1_554 S
C933 O917 1.260 . S
C934 Tb870 2.833 . S
C934 O914 1.251 . S
C934 O919 1.256 . S
C934 C927 1.500 . S
C935 H900 0.929 . S
C935 C913 1.444 . S
C935 C936 1.317 . S
C936 H898 0.930 . S
C936 C904 1.432 . S
C936 C935 1.317 . S
C937 O921 1.283 . S
C937 O924 1.243 . S
C938 C939 1.382 . S
C938 C942 1.393 . S
C938 C945 1.500 . S
C939 C938 1.382 . S
C939 C940 1.400 . S
C939 H950 0.930 . S
C940 C939 1.400 . S
C940 C941 1.384 . S
C941 C940 1.384 . S
C941 C943 1.392 . S
C941 H951 0.931 . S
C942 C938 1.393 . S
C942 C943 1.401 . S
C942 H952 0.930 . S
C943 C941 1.392 . S
C943 C942 1.401 . S
C943 H953 0.930 . S
C944 O922 1.262 1_556 S
C944 O923 1.260 . S
C945 Tb881 2.833 . S
C945 O920 1.251 . S
C945 O925 1.256 . S
C945 C938 1.500 . S
H946 C929 0.930 . S
H947 C930 0.931 . S
H948 C931 0.930 . S
H949 C932 0.930 . S
H950 C939 0.930 . S
H951 C941 0.931 . S
H952 C942 0.930 . S
H953 C943 0.930 . S
Tb954 N985 2.660 . S
Tb954 N992 2.600 . S
Tb954 O998 2.546 . S
Tb954 O999 2.610 . S
Tb954 O1001 2.320 . S
Tb954 O1002 2.552 . S
Tb954 O1003 2.413 . S
Tb954 O1005 2.362 . S
Tb954 O1006 2.421 . S
Tb954 C1018 2.833 . S
C955 C958 1.432 . S
C955 C959 1.414 . S
C955 N962 1.359 . S
C956 C958 1.417 . S
C956 C960 1.432 . S
C956 C968 1.410 . S
C957 C959 1.444 . S
C957 C960 1.317 . S
C957 H980 0.929 . S
C958 C955 1.432 . S
C958 C956 1.417 . S
C958 N966 1.360 . S
C959 C955 1.414 . S
C959 C957 1.444 . S
C959 C964 1.385 . S
C960 C956 1.432 . S
C960 C957 1.317 . S
C960 H972 0.930 . S
C961 C963 1.392 . S
C961 C964 1.370 . S
C961 H973 0.931 . S
N962 C955 1.359 . S
N962 C963 1.327 . S
N962 Tb965 2.600 . S
C963 C961 1.392 . S
C963 N962 1.327 . S
C963 H970 0.930 . S
C964 C959 1.385 . S
C964 C961 1.370 . S
C964 H983 0.930 . S
Tb965 N962 2.600 . S
Tb965 N966 2.660 . S
Tb965 O999 2.362 . S
Tb965 O1000 2.421 . S
Tb965 O1004 2.546 . S
Tb965 O1005 2.610 . S
Tb965 O1007 2.320 . S
Tb965 O1008 2.552 . S
Tb965 O1009 2.413 . S
Tb965 C1029 2.833 . S
N966 C958 1.360 . S
N966 Tb965 2.660 . S
N966 C967 1.305 . S
C967 N966 1.305 . S
C967 C969 1.407 . S
C967 H974 0.930 . S
C968 C956 1.410 . S
C968 C969 1.345 . S
C968 H976 0.930 . S
C969 C967 1.407 . S
C969 C968 1.345 . S
C969 H971 0.930 . S
H970 C963 0.930 . S
H971 C969 0.930 . S
H972 C960 0.930 . S
H973 C961 0.931 . S
H974 C967 0.930 . S
H975 C989 0.930 . S
H976 C968 0.930 . S
H977 C995 0.930 . S
H978 C986 0.930 . S
H979 C993 0.931 . S
H980 C957 0.929 . S
H981 C987 0.930 . S
H982 C1020 0.930 . S
H983 C964 0.930 . S
H984 C1019 0.929 . S
N985 Tb954 2.660 . S
N985 C986 1.305 . S
N985 C990 1.360 . S
C986 H978 0.930 . S
C986 N985 1.305 . S
C986 C989 1.407 . S
C987 H981 0.930 . S
C987 C988 1.410 . S
C987 C989 1.345 . S
C988 C987 1.410 . S
C988 C990 1.417 . S
C988 C1020 1.432 . S
C989 H975 0.930 . S
C989 C986 1.407 . S
C989 C987 1.345 . S
C990 N985 1.360 . S
C990 C988 1.417 . S
C990 C994 1.432 . S
H991 C996 0.930 . S
N992 Tb954 2.600 . S
N992 C994 1.359 . S
N992 C995 1.327 . S
C993 H979 0.931 . S
C993 C995 1.392 . S
C993 C996 1.370 . S
C994 C990 1.432 . S
C994 N992 1.359 . S
C994 C997 1.414 . S
C995 H977 0.930 . S
C995 N992 1.327 . S
C995 C993 1.392 . S
C996 H991 0.930 . S
C996 C993 1.370 . S
C996 C997 1.385 . S
C997 C994 1.414 . S
C997 C996 1.385 . S
C997 C1019 1.444 . S
O998 Tb954 2.546 . S
O998 C1018 1.251 . S
O999 Tb954 2.610 . S
O999 Tb965 2.362 . S
O999 C1010 1.283 . S
O1000 Tb965 2.421 . S
O1000 C1017 1.262 . S
O1001 Tb954 2.320 . S
O1001 C1017 1.260 . S
O1002 Tb954 2.552 . S
O1002 C1010 1.243 . S
O1003 Tb954 2.413 . S
O1003 C1018 1.256 . S
O1004 Tb965 2.546 . S
O1004 C1029 1.251 . S
O1005 Tb954 2.362 . S
O1005 Tb965 2.610 . S
O1005 C1021 1.283 . S
O1006 Tb954 2.421 . S
O1006 C1028 1.262 . S
O1007 Tb965 2.320 . S
O1007 C1028 1.260 . S
O1008 Tb965 2.552 . S
O1008 C1021 1.243 . S
O1009 Tb965 2.413 . S
O1009 C1029 1.256 . S
C1010 O999 1.283 . S
C1010 O1002 1.243 . S
C1011 C1013 1.382 . S
C1011 C1015 1.393 . S
C1011 C1018 1.500 . S
C1012 C1013 1.400 . S
C1012 C1014 1.384 . S
C1013 C1011 1.382 . S
C1013 C1012 1.400 . S
C1013 H1030 0.930 . S
C1014 C1012 1.384 . S
C1014 C1016 1.392 . S
C1014 H1031 0.931 . S
C1015 C1011 1.393 . S
C1015 C1016 1.401 . S
C1015 H1032 0.930 . S
C1016 C1014 1.392 . S
C1016 C1015 1.401 . S
C1016 H1033 0.930 . S
C1017 O1000 1.262 . S
C1017 O1001 1.260 . S
C1018 Tb954 2.833 . S
C1018 O998 1.251 . S
C1018 O1003 1.256 . S
C1018 C1011 1.500 . S
C1019 H984 0.929 . S
C1019 C997 1.444 . S
C1019 C1020 1.317 . S
C1020 H982 0.930 . S
C1020 C988 1.432 . S
C1020 C1019 1.317 . S
C1021 O1005 1.283 . S
C1021 O1008 1.243 . S
C1022 C1023 1.382 . S
C1022 C1026 1.393 . S
C1022 C1029 1.500 . S
C1023 C1022 1.382 . S
C1023 C1024 1.400 . S
C1023 H1034 0.930 . S
C1024 C1023 1.400 . S
C1024 C1025 1.384 . S
C1025 C1024 1.384 . S
C1025 C1027 1.392 . S
C1025 H1035 0.931 . S
C1026 C1022 1.393 . S
C1026 C1027 1.401 . S
C1026 H1036 0.930 . S
C1027 C1025 1.392 . S
C1027 C1026 1.401 . S
C1027 H1037 0.930 . S
C1028 O1006 1.262 . S
C1028 O1007 1.260 . S
C1029 Tb965 2.833 . S
C1029 O1004 1.251 . S
C1029 O1009 1.256 . S
C1029 C1022 1.500 . S
H1030 C1013 0.930 . S
H1031 C1014 0.931 . S
H1032 C1015 0.930 . S
H1033 C1016 0.930 . S
H1034 C1023 0.930 . S
H1035 C1025 0.931 . S
H1036 C1026 0.930 . S
H1037 C1027 0.930 . S
Tb1038 N1069 2.660 . S
Tb1038 N1076 2.600 . S
Tb1038 O1082 2.546 . S
Tb1038 O1083 2.610 . S
Tb1038 O1085 2.320 . S
Tb1038 O1086 2.552 . S
Tb1038 O1087 2.413 . S
Tb1038 O1089 2.362 . S
Tb1038 O1090 2.421 . S
Tb1038 C1102 2.833 . S
C1039 C1042 1.432 . S
C1039 C1043 1.414 . S
C1039 N1046 1.359 . S
C1040 C1042 1.417 . S
C1040 C1044 1.432 . S
C1040 C1052 1.410 . S
C1041 C1043 1.444 . S
C1041 C1044 1.317 . S
C1041 H1064 0.929 . S
C1042 C1039 1.432 . S
C1042 C1040 1.417 . S
C1042 N1050 1.360 . S
C1043 C1039 1.414 . S
C1043 C1041 1.444 . S
C1043 C1048 1.385 . S
C1044 C1040 1.432 . S
C1044 C1041 1.317 . S
C1044 H1056 0.930 . S
C1045 C1047 1.392 . S
C1045 C1048 1.370 . S
C1045 H1057 0.931 . S
N1046 C1039 1.359 . S
N1046 C1047 1.327 . S
N1046 Tb1049 2.600 . S
C1047 C1045 1.392 . S
C1047 N1046 1.327 . S
C1047 H1054 0.930 . S
C1048 C1043 1.385 . S
C1048 C1045 1.370 . S
C1048 H1067 0.930 . S
Tb1049 N1046 2.600 . S
Tb1049 N1050 2.660 . S
Tb1049 O1083 2.362 . S
Tb1049 O1084 2.421 . S
Tb1049 O1088 2.546 . S
Tb1049 O1089 2.610 . S
Tb1049 O1091 2.320 . S
Tb1049 O1092 2.552 . S
Tb1049 O1093 2.413 . S
Tb1049 C1113 2.833 . S
N1050 C1042 1.360 . S
N1050 Tb1049 2.660 . S
N1050 C1051 1.305 . S
C1051 N1050 1.305 . S
C1051 C1053 1.407 . S
C1051 H1058 0.930 . S
C1052 C1040 1.410 . S
C1052 C1053 1.345 . S
C1052 H1060 0.930 . S
C1053 C1051 1.407 . S
C1053 C1052 1.345 . S
C1053 H1055 0.930 . S
H1054 C1047 0.930 . S
H1055 C1053 0.930 . S
H1056 C1044 0.930 . S
H1057 C1045 0.931 . S
H1058 C1051 0.930 . S
H1059 C1073 0.930 . S
H1060 C1052 0.930 . S
H1061 C1079 0.930 . S
H1062 C1070 0.930 . S
H1063 C1077 0.931 . S
H1064 C1041 0.929 . S
H1065 C1071 0.930 . S
H1066 C1104 0.930 . S
H1067 C1048 0.930 . S
H1068 C1103 0.929 . S
N1069 Tb1038 2.660 . S
N1069 C1070 1.305 . S
N1069 C1074 1.360 . S
C1070 H1062 0.930 . S
C1070 N1069 1.305 . S
C1070 C1073 1.407 . S
C1071 H1065 0.930 . S
C1071 C1072 1.410 . S
C1071 C1073 1.345 . S
C1072 C1071 1.410 . S
C1072 C1074 1.417 . S
C1072 C1104 1.432 . S
C1073 H1059 0.930 . S
C1073 C1070 1.407 . S
C1073 C1071 1.345 . S
C1074 N1069 1.360 . S
C1074 C1072 1.417 . S
C1074 C1078 1.432 . S
H1075 C1080 0.930 . S
N1076 Tb1038 2.600 . S
N1076 C1078 1.359 . S
N1076 C1079 1.327 . S
C1077 H1063 0.931 . S
C1077 C1079 1.392 . S
C1077 C1080 1.370 . S
C1078 C1074 1.432 . S
C1078 N1076 1.359 . S
C1078 C1081 1.414 . S
C1079 H1061 0.930 . S
C1079 N1076 1.327 . S
C1079 C1077 1.392 . S
C1080 H1075 0.930 . S
C1080 C1077 1.370 . S
C1080 C1081 1.385 . S
C1081 C1078 1.414 . S
C1081 C1080 1.385 . S
C1081 C1103 1.444 . S
O1082 Tb1038 2.546 . S
O1082 C1102 1.251 . S
O1083 Tb1038 2.610 . S
O1083 Tb1049 2.362 . S
O1083 C1094 1.283 . S
O1084 Tb1049 2.421 . S
O1084 C1101 1.262 . S
O1085 Tb1038 2.320 . S
O1085 C1101 1.260 . S
O1086 Tb1038 2.552 . S
O1086 C1094 1.243 . S
O1087 Tb1038 2.413 . S
O1087 C1102 1.256 . S
O1088 Tb1049 2.546 . S
O1088 C1113 1.251 . S
O1089 Tb1038 2.362 . S
O1089 Tb1049 2.610 . S
O1089 C1105 1.283 . S
O1090 Tb1038 2.421 . S
O1090 C1112 1.262 . S
O1091 Tb1049 2.320 . S
O1091 C1112 1.260 . S
O1092 Tb1049 2.552 . S
O1092 C1105 1.243 . S
O1093 Tb1049 2.413 . S
O1093 C1113 1.256 . S
C1094 O1083 1.283 . S
C1094 O1086 1.243 . S
C1095 C1097 1.382 . S
C1095 C1099 1.393 . S
C1095 C1102 1.500 . S
C1096 C1097 1.400 . S
C1096 C1098 1.384 . S
C1097 C1095 1.382 . S
C1097 C1096 1.400 . S
C1097 H1114 0.930 . S
C1098 C1096 1.384 . S
C1098 C1100 1.392 . S
C1098 H1115 0.931 . S
C1099 C1095 1.393 . S
C1099 C1100 1.401 . S
C1099 H1116 0.930 . S
C1100 C1098 1.392 . S
C1100 C1099 1.401 . S
C1100 H1117 0.930 . S
C1101 O1084 1.262 . S
C1101 O1085 1.260 . S
C1102 Tb1038 2.833 . S
C1102 O1082 1.251 . S
C1102 O1087 1.256 . S
C1102 C1095 1.500 . S
C1103 H1068 0.929 . S
C1103 C1081 1.444 . S
C1103 C1104 1.317 . S
C1104 H1066 0.930 . S
C1104 C1072 1.432 . S
C1104 C1103 1.317 . S
C1105 O1089 1.283 . S
C1105 O1092 1.243 . S
C1106 C1107 1.382 . S
C1106 C1110 1.393 . S
C1106 C1113 1.500 . S
C1107 C1106 1.382 . S
C1107 C1108 1.400 . S
C1107 H1118 0.930 . S
C1108 C1107 1.400 . S
C1108 C1109 1.384 . S
C1109 C1108 1.384 . S
C1109 C1111 1.392 . S
C1109 H1119 0.931 . S
C1110 C1106 1.393 . S
C1110 C1111 1.401 . S
C1110 H1120 0.930 . S
C1111 C1109 1.392 . S
C1111 C1110 1.401 . S
C1111 H1121 0.930 . S
C1112 O1090 1.262 . S
C1112 O1091 1.260 . S
C1113 Tb1049 2.833 . S
C1113 O1088 1.251 . S
C1113 O1093 1.256 . S
C1113 C1106 1.500 . S
H1114 C1097 0.930 . S
H1115 C1098 0.931 . S
H1116 C1099 0.930 . S
H1117 C1100 0.930 . S
H1118 C1107 0.930 . S
H1119 C1109 0.931 . S
H1120 C1110 0.930 . S
H1121 C1111 0.930 . S
Tb1122 N1153 2.660 . S
Tb1122 N1160 2.600 . S
Tb1122 O1166 2.546 . S
Tb1122 O1167 2.610 . S
Tb1122 O1169 2.320 . S
Tb1122 O1170 2.552 . S
Tb1122 O1171 2.413 . S
Tb1122 O1173 2.362 . S
Tb1122 O1174 2.421 . S
Tb1122 C1186 2.833 . S
C1123 C1126 1.432 . S
C1123 C1127 1.414 . S
C1123 N1130 1.359 . S
C1124 C1126 1.417 . S
C1124 C1128 1.432 . S
C1124 C1136 1.410 . S
C1125 C1127 1.444 . S
C1125 C1128 1.317 . S
C1125 H1148 0.929 . S
C1126 C1123 1.432 . S
C1126 C1124 1.417 . S
C1126 N1134 1.360 . S
C1127 C1123 1.414 . S
C1127 C1125 1.444 . S
C1127 C1132 1.385 . S
C1128 C1124 1.432 . S
C1128 C1125 1.317 . S
C1128 H1140 0.930 . S
C1129 C1131 1.392 . S
C1129 C1132 1.370 . S
C1129 H1141 0.931 . S
N1130 C1123 1.359 . S
N1130 C1131 1.327 . S
N1130 Tb1133 2.600 . S
C1131 C1129 1.392 . S
C1131 N1130 1.327 . S
C1131 H1138 0.930 . S
C1132 C1127 1.385 . S
C1132 C1129 1.370 . S
C1132 H1151 0.930 . S
Tb1133 N1130 2.600 . S
Tb1133 N1134 2.660 . S
Tb1133 O1167 2.362 . S
Tb1133 O1168 2.421 . S
Tb1133 O1172 2.546 . S
Tb1133 O1173 2.610 . S
Tb1133 O1175 2.320 . S
Tb1133 O1176 2.552 . S
Tb1133 O1177 2.413 . S
Tb1133 C1197 2.833 . S
N1134 C1126 1.360 . S
N1134 Tb1133 2.660 . S
N1134 C1135 1.305 . S
C1135 N1134 1.305 . S
C1135 C1137 1.407 . S
C1135 H1142 0.930 . S
C1136 C1124 1.410 . S
C1136 C1137 1.345 . S
C1136 H1144 0.930 . S
C1137 C1135 1.407 . S
C1137 C1136 1.345 . S
C1137 H1139 0.930 . S
H1138 C1131 0.930 . S
H1139 C1137 0.930 . S
H1140 C1128 0.930 . S
H1141 C1129 0.931 . S
H1142 C1135 0.930 . S
H1143 C1157 0.930 . S
H1144 C1136 0.930 . S
H1145 C1163 0.930 . S
H1146 C1154 0.930 . S
H1147 C1161 0.931 . S
H1148 C1125 0.929 . S
H1149 C1155 0.930 . S
H1150 C1188 0.930 . S
H1151 C1132 0.930 . S
H1152 C1187 0.929 . S
N1153 Tb1122 2.660 . S
N1153 C1154 1.305 . S
N1153 C1158 1.360 . S
C1154 H1146 0.930 . S
C1154 N1153 1.305 . S
C1154 C1157 1.407 . S
C1155 H1149 0.930 . S
C1155 C1156 1.410 . S
C1155 C1157 1.345 . S
C1156 C1155 1.410 . S
C1156 C1158 1.417 . S
C1156 C1188 1.432 . S
C1157 H1143 0.930 . S
C1157 C1154 1.407 . S
C1157 C1155 1.345 . S
C1158 N1153 1.360 . S
C1158 C1156 1.417 . S
C1158 C1162 1.432 . S
H1159 C1164 0.930 . S
N1160 Tb1122 2.600 . S
N1160 C1162 1.359 . S
N1160 C1163 1.327 . S
C1161 H1147 0.931 . S
C1161 C1163 1.392 . S
C1161 C1164 1.370 . S
C1162 C1158 1.432 . S
C1162 N1160 1.359 . S
C1162 C1165 1.414 . S
C1163 H1145 0.930 . S
C1163 N1160 1.327 . S
C1163 C1161 1.392 . S
C1164 H1159 0.930 . S
C1164 C1161 1.370 . S
C1164 C1165 1.385 . S
C1165 C1162 1.414 . S
C1165 C1164 1.385 . S
C1165 C1187 1.444 . S
O1166 Tb1122 2.546 . S
O1166 C1186 1.251 . S
O1167 Tb1122 2.610 . S
O1167 Tb1133 2.362 . S
O1167 C1178 1.283 . S
O1168 Tb1133 2.421 . S
O1168 C1185 1.262 . S
O1169 Tb1122 2.320 . S
O1169 C1185 1.260 . S
O1170 Tb1122 2.552 . S
O1170 C1178 1.243 . S
O1171 Tb1122 2.413 . S
O1171 C1186 1.256 . S
O1172 Tb1133 2.546 . S
O1172 C1197 1.251 . S
O1173 Tb1122 2.362 . S
O1173 Tb1133 2.610 . S
O1173 C1189 1.283 . S
O1174 Tb1122 2.421 . S
O1174 C1196 1.262 . S
O1175 Tb1133 2.320 . S
O1175 C1196 1.260 . S
O1176 Tb1133 2.552 . S
O1176 C1189 1.243 . S
O1177 Tb1133 2.413 . S
O1177 C1197 1.256 . S
C1178 O1167 1.283 . S
C1178 O1170 1.243 . S
C1179 C1181 1.382 . S
C1179 C1183 1.393 . S
C1179 C1186 1.500 . S
C1180 C1181 1.400 . S
C1180 C1182 1.384 . S
C1181 C1179 1.382 . S
C1181 C1180 1.400 . S
C1181 H1198 0.930 . S
C1182 C1180 1.384 . S
C1182 C1184 1.392 . S
C1182 H1199 0.931 . S
C1183 C1179 1.393 . S
C1183 C1184 1.401 . S
C1183 H1200 0.930 . S
C1184 C1182 1.392 . S
C1184 C1183 1.401 . S
C1184 H1201 0.930 . S
C1185 O1168 1.262 . S
C1185 O1169 1.260 . S
C1186 Tb1122 2.833 . S
C1186 O1166 1.251 . S
C1186 O1171 1.256 . S
C1186 C1179 1.500 . S
C1187 H1152 0.929 . S
C1187 C1165 1.444 . S
C1187 C1188 1.317 . S
C1188 H1150 0.930 . S
C1188 C1156 1.432 . S
C1188 C1187 1.317 . S
C1189 O1173 1.283 . S
C1189 O1176 1.243 . S
C1190 C1191 1.382 . S
C1190 C1194 1.393 . S
C1190 C1197 1.500 . S
C1191 C1190 1.382 . S
C1191 C1192 1.400 . S
C1191 H1202 0.930 . S
C1192 C1191 1.400 . S
C1192 C1193 1.384 . S
C1193 C1192 1.384 . S
C1193 C1195 1.392 . S
C1193 H1203 0.931 . S
C1194 C1190 1.393 . S
C1194 C1195 1.401 . S
C1194 H1204 0.930 . S
C1195 C1193 1.392 . S
C1195 C1194 1.401 . S
C1195 H1205 0.930 . S
C1196 O1174 1.262 . S
C1196 O1175 1.260 . S
C1197 Tb1133 2.833 . S
C1197 O1172 1.251 . S
C1197 O1177 1.256 . S
C1197 C1190 1.500 . S
H1198 C1181 0.930 . S
H1199 C1182 0.931 . S
H1200 C1183 0.930 . S
H1201 C1184 0.930 . S
H1202 C1191 0.930 . S
H1203 C1193 0.931 . S
H1204 C1194 0.930 . S
H1205 C1195 0.930 . S
Tb1206 N1237 2.660 . S
Tb1206 N1244 2.600 . S
Tb1206 O1250 2.546 . S
Tb1206 O1251 2.610 . S
Tb1206 O1253 2.320 . S
Tb1206 O1254 2.552 . S
Tb1206 O1255 2.413 . S
Tb1206 O1257 2.362 . S
Tb1206 O1258 2.421 . S
Tb1206 C1270 2.833 . S
C1207 C1210 1.432 . S
C1207 C1211 1.414 . S
C1207 N1214 1.359 . S
C1208 C1210 1.417 . S
C1208 C1212 1.432 . S
C1208 C1220 1.410 . S
C1209 C1211 1.444 . S
C1209 C1212 1.317 . S
C1209 H1232 0.929 . S
C1210 C1207 1.432 . S
C1210 C1208 1.417 . S
C1210 N1218 1.360 . S
C1211 C1207 1.414 . S
C1211 C1209 1.444 . S
C1211 C1216 1.385 . S
C1212 C1208 1.432 . S
C1212 C1209 1.317 . S
C1212 H1224 0.930 . S
C1213 C1215 1.392 . S
C1213 C1216 1.370 . S
C1213 H1225 0.931 . S
N1214 C1207 1.359 . S
N1214 C1215 1.327 . S
N1214 Tb1217 2.600 . S
C1215 C1213 1.392 . S
C1215 N1214 1.327 . S
C1215 H1222 0.930 . S
C1216 C1211 1.385 . S
C1216 C1213 1.370 . S
C1216 H1235 0.930 . S
Tb1217 N1214 2.600 . S
Tb1217 N1218 2.660 . S
Tb1217 O1251 2.362 . S
Tb1217 O1252 2.421 . S
Tb1217 O1256 2.546 . S
Tb1217 O1257 2.610 . S
Tb1217 O1259 2.320 . S
Tb1217 O1260 2.552 . S
Tb1217 O1261 2.413 . S
Tb1217 C1281 2.833 . S
N1218 C1210 1.360 . S
N1218 Tb1217 2.660 . S
N1218 C1219 1.305 . S
C1219 N1218 1.305 . S
C1219 C1221 1.407 . S
C1219 H1226 0.930 . S
C1220 C1208 1.410 . S
C1220 C1221 1.345 . S
C1220 H1228 0.930 . S
C1221 C1219 1.407 . S
C1221 C1220 1.345 . S
C1221 H1223 0.930 . S
H1222 C1215 0.930 . S
H1223 C1221 0.930 . S
H1224 C1212 0.930 . S
H1225 C1213 0.931 . S
H1226 C1219 0.930 . S
H1227 C1241 0.930 . S
H1228 C1220 0.930 . S
H1229 C1247 0.930 . S
H1230 C1238 0.930 . S
H1231 C1245 0.931 . S
H1232 C1209 0.929 . S
H1233 C1239 0.930 . S
H1234 C1272 0.930 . S
H1235 C1216 0.930 . S
H1236 C1271 0.929 . S
N1237 Tb1206 2.660 . S
N1237 C1238 1.305 . S
N1237 C1242 1.360 . S
C1238 H1230 0.930 . S
C1238 N1237 1.305 . S
C1238 C1241 1.407 . S
C1239 H1233 0.930 . S
C1239 C1240 1.410 . S
C1239 C1241 1.345 . S
C1240 C1239 1.410 . S
C1240 C1242 1.417 . S
C1240 C1272 1.432 . S
C1241 H1227 0.930 . S
C1241 C1238 1.407 . S
C1241 C1239 1.345 . S
C1242 N1237 1.360 . S
C1242 C1240 1.417 . S
C1242 C1246 1.432 . S
H1243 C1248 0.930 . S
N1244 Tb1206 2.600 . S
N1244 C1246 1.359 . S
N1244 C1247 1.327 . S
C1245 H1231 0.931 . S
C1245 C1247 1.392 . S
C1245 C1248 1.370 . S
C1246 C1242 1.432 . S
C1246 N1244 1.359 . S
C1246 C1249 1.414 . S
C1247 H1229 0.930 . S
C1247 N1244 1.327 . S
C1247 C1245 1.392 . S
C1248 H1243 0.930 . S
C1248 C1245 1.370 . S
C1248 C1249 1.385 . S
C1249 C1246 1.414 . S
C1249 C1248 1.385 . S
C1249 C1271 1.444 . S
O1250 Tb1206 2.546 . S
O1250 C1270 1.251 . S
O1251 Tb1206 2.610 . S
O1251 Tb1217 2.362 . S
O1251 C1262 1.283 . S
O1252 Tb1217 2.421 . S
O1252 C1269 1.262 . S
O1253 Tb1206 2.320 . S
O1253 C1269 1.260 . S
O1254 Tb1206 2.552 . S
O1254 C1262 1.243 . S
O1255 Tb1206 2.413 . S
O1255 C1270 1.256 . S
O1256 Tb1217 2.546 . S
O1256 C1281 1.251 . S
O1257 Tb1206 2.362 . S
O1257 Tb1217 2.610 . S
O1257 C1273 1.283 . S
O1258 Tb1206 2.421 . S
O1258 C1280 1.262 . S
O1259 Tb1217 2.320 . S
O1259 C1280 1.260 . S
O1260 Tb1217 2.552 . S
O1260 C1273 1.243 . S
O1261 Tb1217 2.413 . S
O1261 C1281 1.256 . S
C1262 O1251 1.283 . S
C1262 O1254 1.243 . S
C1263 C1265 1.382 . S
C1263 C1267 1.393 . S
C1263 C1270 1.500 . S
C1264 C1265 1.400 . S
C1264 C1266 1.384 . S
C1265 C1263 1.382 . S
C1265 C1264 1.400 . S
C1265 H1282 0.930 . S
C1266 C1264 1.384 . S
C1266 C1268 1.392 . S
C1266 H1283 0.931 . S
C1267 C1263 1.393 . S
C1267 C1268 1.401 . S
C1267 H1284 0.930 . S
C1268 C1266 1.392 . S
C1268 C1267 1.401 . S
C1268 H1285 0.930 . S
C1269 O1252 1.262 . S
C1269 O1253 1.260 . S
C1270 Tb1206 2.833 . S
C1270 O1250 1.251 . S
C1270 O1255 1.256 . S
C1270 C1263 1.500 . S
C1271 H1236 0.929 . S
C1271 C1249 1.444 . S
C1271 C1272 1.317 . S
C1272 H1234 0.930 . S
C1272 C1240 1.432 . S
C1272 C1271 1.317 . S
C1273 O1257 1.283 . S
C1273 O1260 1.243 . S
C1274 C1275 1.382 . S
C1274 C1278 1.393 . S
C1274 C1281 1.500 . S
C1275 C1274 1.382 . S
C1275 C1276 1.400 . S
C1275 H1286 0.930 . S
C1276 C1275 1.400 . S
C1276 C1277 1.384 . S
C1277 C1276 1.384 . S
C1277 C1279 1.392 . S
C1277 H1287 0.931 . S
C1278 C1274 1.393 . S
C1278 C1279 1.401 . S
C1278 H1288 0.930 . S
C1279 C1277 1.392 . S
C1279 C1278 1.401 . S
C1279 H1289 0.930 . S
C1280 O1258 1.262 . S
C1280 O1259 1.260 . S
C1281 Tb1217 2.833 . S
C1281 O1256 1.251 . S
C1281 O1261 1.256 . S
C1281 C1274 1.500 . S
H1282 C1265 0.930 . S
H1283 C1266 0.931 . S
H1284 C1267 0.930 . S
H1285 C1268 0.930 . S
H1286 C1275 0.930 . S
H1287 C1277 0.931 . S
H1288 C1278 0.930 . S
H1289 C1279 0.930 . S
Tb1290 N1321 2.660 . S
Tb1290 N1328 2.600 . S
Tb1290 O1334 2.546 . S
Tb1290 O1335 2.610 . S
Tb1290 O1337 2.320 . S
Tb1290 O1338 2.552 . S
Tb1290 O1339 2.413 . S
Tb1290 O1341 2.362 . S
Tb1290 O1342 2.421 . S
Tb1290 C1354 2.833 . S
C1291 C1294 1.432 . S
C1291 C1295 1.414 . S
C1291 N1298 1.359 . S
C1292 C1294 1.417 . S
C1292 C1296 1.432 . S
C1292 C1304 1.410 . S
C1293 C1295 1.444 . S
C1293 C1296 1.317 . S
C1293 H1316 0.929 . S
C1294 C1291 1.432 . S
C1294 C1292 1.417 . S
C1294 N1302 1.360 . S
C1295 C1291 1.414 . S
C1295 C1293 1.444 . S
C1295 C1300 1.385 . S
C1296 C1292 1.432 . S
C1296 C1293 1.317 . S
C1296 H1308 0.930 . S
C1297 C1299 1.392 . S
C1297 C1300 1.370 . S
C1297 H1309 0.931 . S
N1298 C1291 1.359 . S
N1298 C1299 1.327 . S
N1298 Tb1301 2.600 . S
C1299 C1297 1.392 . S
C1299 N1298 1.327 . S
C1299 H1306 0.930 . S
C1300 C1295 1.385 . S
C1300 C1297 1.370 . S
C1300 H1319 0.930 . S
Tb1301 N1298 2.600 . S
Tb1301 N1302 2.660 . S
Tb1301 O1335 2.362 . S
Tb1301 O1336 2.421 . S
Tb1301 O1340 2.546 . S
Tb1301 O1341 2.610 . S
Tb1301 O1343 2.320 . S
Tb1301 O1344 2.552 . S
Tb1301 O1345 2.413 . S
Tb1301 C1365 2.833 . S
N1302 C1294 1.360 . S
N1302 Tb1301 2.660 . S
N1302 C1303 1.305 . S
C1303 N1302 1.305 . S
C1303 C1305 1.407 . S
C1303 H1310 0.930 . S
C1304 C1292 1.410 . S
C1304 C1305 1.345 . S
C1304 H1312 0.930 . S
C1305 C1303 1.407 . S
C1305 C1304 1.345 . S
C1305 H1307 0.930 . S
H1306 C1299 0.930 . S
H1307 C1305 0.930 . S
H1308 C1296 0.930 . S
H1309 C1297 0.931 . S
H1310 C1303 0.930 . S
H1311 C1325 0.930 . S
H1312 C1304 0.930 . S
H1313 C1331 0.930 . S
H1314 C1322 0.930 . S
H1315 C1329 0.931 . S
H1316 C1293 0.929 . S
H1317 C1323 0.930 . S
H1318 C1356 0.930 . S
H1319 C1300 0.930 . S
H1320 C1355 0.929 . S
N1321 Tb1290 2.660 . S
N1321 C1322 1.305 . S
N1321 C1326 1.360 . S
C1322 H1314 0.930 . S
C1322 N1321 1.305 . S
C1322 C1325 1.407 . S
C1323 H1317 0.930 . S
C1323 C1324 1.410 . S
C1323 C1325 1.345 . S
C1324 C1323 1.410 . S
C1324 C1326 1.417 . S
C1324 C1356 1.432 . S
C1325 H1311 0.930 . S
C1325 C1322 1.407 . S
C1325 C1323 1.345 . S
C1326 N1321 1.360 . S
C1326 C1324 1.417 . S
C1326 C1330 1.432 . S
H1327 C1332 0.930 . S
N1328 Tb1290 2.600 . S
N1328 C1330 1.359 . S
N1328 C1331 1.327 . S
C1329 H1315 0.931 . S
C1329 C1331 1.392 . S
C1329 C1332 1.370 . S
C1330 C1326 1.432 . S
C1330 N1328 1.359 . S
C1330 C1333 1.414 . S
C1331 H1313 0.930 . S
C1331 N1328 1.327 . S
C1331 C1329 1.392 . S
C1332 H1327 0.930 . S
C1332 C1329 1.370 . S
C1332 C1333 1.385 . S
C1333 C1330 1.414 . S
C1333 C1332 1.385 . S
C1333 C1355 1.444 . S
O1334 Tb1290 2.546 . S
O1334 C1354 1.251 . S
O1335 Tb1290 2.610 . S
O1335 Tb1301 2.362 . S
O1335 C1346 1.283 . S
O1336 Tb1301 2.421 . S
O1336 C1353 1.262 . S
O1337 Tb1290 2.320 . S
O1337 C1353 1.260 . S
O1338 Tb1290 2.552 . S
O1338 C1346 1.243 . S
O1339 Tb1290 2.413 . S
O1339 C1354 1.256 . S
O1340 Tb1301 2.546 . S
O1340 C1365 1.251 . S
O1341 Tb1290 2.362 . S
O1341 Tb1301 2.610 . S
O1341 C1357 1.283 . S
O1342 Tb1290 2.421 . S
O1342 C1364 1.262 . S
O1343 Tb1301 2.320 . S
O1343 C1364 1.260 . S
O1344 Tb1301 2.552 . S
O1344 C1357 1.243 . S
O1345 Tb1301 2.413 . S
O1345 C1365 1.256 . S
C1346 O1335 1.283 . S
C1346 O1338 1.243 . S
C1347 C1349 1.382 . S
C1347 C1351 1.393 . S
C1347 C1354 1.500 . S
C1348 C1349 1.400 . S
C1348 C1350 1.384 . S
C1349 C1347 1.382 . S
C1349 C1348 1.400 . S
C1349 H1366 0.930 . S
C1350 C1348 1.384 . S
C1350 C1352 1.392 . S
C1350 H1367 0.931 . S
C1351 C1347 1.393 . S
C1351 C1352 1.401 . S
C1351 H1368 0.930 . S
C1352 C1350 1.392 . S
C1352 C1351 1.401 . S
C1352 H1369 0.930 . S
C1353 O1336 1.262 . S
C1353 O1337 1.260 . S
C1354 Tb1290 2.833 . S
C1354 O1334 1.251 . S
C1354 O1339 1.256 . S
C1354 C1347 1.500 . S
C1355 H1320 0.929 . S
C1355 C1333 1.444 . S
C1355 C1356 1.317 . S
C1356 H1318 0.930 . S
C1356 C1324 1.432 . S
C1356 C1355 1.317 . S
C1357 O1341 1.283 . S
C1357 O1344 1.243 . S
C1358 C1359 1.382 . S
C1358 C1362 1.393 . S
C1358 C1365 1.500 . S
C1359 C1358 1.382 . S
C1359 C1360 1.400 . S
C1359 H1370 0.930 . S
C1360 C1359 1.400 . S
C1360 C1361 1.384 . S
C1361 C1360 1.384 . S
C1361 C1363 1.392 . S
C1361 H1371 0.931 . S
C1362 C1358 1.393 . S
C1362 C1363 1.401 . S
C1362 H1372 0.930 . S
C1363 C1361 1.392 . S
C1363 C1362 1.401 . S
C1363 H1373 0.930 . S
C1364 O1342 1.262 . S
C1364 O1343 1.260 . S
C1365 Tb1301 2.833 . S
C1365 O1340 1.251 . S
C1365 O1345 1.256 . S
C1365 C1358 1.500 . S
H1366 C1349 0.930 . S
H1367 C1350 0.931 . S
H1368 C1351 0.930 . S
H1369 C1352 0.930 . S
H1370 C1359 0.930 . S
H1371 C1361 0.931 . S
H1372 C1362 0.930 . S
H1373 C1363 0.930 . S
Tb1374 N1405 2.660 . S
Tb1374 N1412 2.600 . S
Tb1374 O1418 2.546 . S
Tb1374 O1419 2.610 . S
Tb1374 O1421 2.320 . S
Tb1374 O1422 2.552 . S
Tb1374 O1423 2.413 . S
Tb1374 O1425 2.362 . S
Tb1374 O1426 2.421 . S
Tb1374 C1438 2.833 . S
C1375 C1378 1.432 . S
C1375 C1379 1.414 . S
C1375 N1382 1.359 . S
C1376 C1378 1.417 . S
C1376 C1380 1.432 . S
C1376 C1388 1.410 . S
C1377 C1379 1.444 . S
C1377 C1380 1.317 . S
C1377 H1400 0.929 . S
C1378 C1375 1.432 . S
C1378 C1376 1.417 . S
C1378 N1386 1.360 . S
C1379 C1375 1.414 . S
C1379 C1377 1.444 . S
C1379 C1384 1.385 . S
C1380 C1376 1.432 . S
C1380 C1377 1.317 . S
C1380 H1392 0.930 . S
C1381 C1383 1.392 . S
C1381 C1384 1.370 . S
C1381 H1393 0.931 . S
N1382 C1375 1.359 . S
N1382 C1383 1.327 . S
N1382 Tb1385 2.600 . S
C1383 C1381 1.392 . S
C1383 N1382 1.327 . S
C1383 H1390 0.930 . S
C1384 C1379 1.385 . S
C1384 C1381 1.370 . S
C1384 H1403 0.930 . S
Tb1385 N1382 2.600 . S
Tb1385 N1386 2.660 . S
Tb1385 O1419 2.362 . S
Tb1385 O1420 2.421 . S
Tb1385 O1424 2.546 . S
Tb1385 O1425 2.610 . S
Tb1385 O1427 2.320 . S
Tb1385 O1428 2.552 . S
Tb1385 O1429 2.413 . S
Tb1385 C1449 2.833 . S
N1386 C1378 1.360 . S
N1386 Tb1385 2.660 . S
N1386 C1387 1.305 . S
C1387 N1386 1.305 . S
C1387 C1389 1.407 . S
C1387 H1394 0.930 . S
C1388 C1376 1.410 . S
C1388 C1389 1.345 . S
C1388 H1396 0.930 . S
C1389 C1387 1.407 . S
C1389 C1388 1.345 . S
C1389 H1391 0.930 . S
H1390 C1383 0.930 . S
H1391 C1389 0.930 . S
H1392 C1380 0.930 . S
H1393 C1381 0.931 . S
H1394 C1387 0.930 . S
H1395 C1409 0.930 . S
H1396 C1388 0.930 . S
H1397 C1415 0.930 . S
H1398 C1406 0.930 . S
H1399 C1413 0.931 . S
H1400 C1377 0.929 . S
H1401 C1407 0.930 . S
H1402 C1440 0.930 . S
H1403 C1384 0.930 . S
H1404 C1439 0.929 . S
N1405 Tb1374 2.660 . S
N1405 C1406 1.305 . S
N1405 C1410 1.360 . S
C1406 H1398 0.930 . S
C1406 N1405 1.305 . S
C1406 C1409 1.407 . S
C1407 H1401 0.930 . S
C1407 C1408 1.410 . S
C1407 C1409 1.345 . S
C1408 C1407 1.410 . S
C1408 C1410 1.417 . S
C1408 C1440 1.432 . S
C1409 H1395 0.930 . S
C1409 C1406 1.407 . S
C1409 C1407 1.345 . S
C1410 N1405 1.360 . S
C1410 C1408 1.417 . S
C1410 C1414 1.432 . S
H1411 C1416 0.930 . S
N1412 Tb1374 2.600 . S
N1412 C1414 1.359 . S
N1412 C1415 1.327 . S
C1413 H1399 0.931 . S
C1413 C1415 1.392 . S
C1413 C1416 1.370 . S
C1414 C1410 1.432 . S
C1414 N1412 1.359 . S
C1414 C1417 1.414 . S
C1415 H1397 0.930 . S
C1415 N1412 1.327 . S
C1415 C1413 1.392 . S
C1416 H1411 0.930 . S
C1416 C1413 1.370 . S
C1416 C1417 1.385 . S
C1417 C1414 1.414 . S
C1417 C1416 1.385 . S
C1417 C1439 1.444 . S
O1418 Tb1374 2.546 . S
O1418 C1438 1.251 . S
O1419 Tb1374 2.610 . S
O1419 Tb1385 2.362 . S
O1419 C1430 1.283 . S
O1420 Tb1385 2.421 . S
O1420 C1437 1.262 . S
O1421 Tb1374 2.320 . S
O1421 C1437 1.260 . S
O1422 Tb1374 2.552 . S
O1422 C1430 1.243 . S
O1423 Tb1374 2.413 . S
O1423 C1438 1.256 . S
O1424 Tb1385 2.546 . S
O1424 C1449 1.251 . S
O1425 Tb1374 2.362 . S
O1425 Tb1385 2.610 . S
O1425 C1441 1.283 . S
O1426 Tb1374 2.421 . S
O1426 C1448 1.262 . S
O1427 Tb1385 2.320 . S
O1427 C1448 1.260 . S
O1428 Tb1385 2.552 . S
O1428 C1441 1.243 . S
O1429 Tb1385 2.413 . S
O1429 C1449 1.256 . S
C1430 O1419 1.283 . S
C1430 O1422 1.243 . S
C1431 C1433 1.382 . S
C1431 C1435 1.393 . S
C1431 C1438 1.500 . S
C1432 C1433 1.400 . S
C1432 C1434 1.384 . S
C1433 C1431 1.382 . S
C1433 C1432 1.400 . S
C1433 H1450 0.930 . S
C1434 C1432 1.384 . S
C1434 C1436 1.392 . S
C1434 H1451 0.931 . S
C1435 C1431 1.393 . S
C1435 C1436 1.401 . S
C1435 H1452 0.930 . S
C1436 C1434 1.392 . S
C1436 C1435 1.401 . S
C1436 H1453 0.930 . S
C1437 O1420 1.262 . S
C1437 O1421 1.260 . S
C1438 Tb1374 2.833 . S
C1438 O1418 1.251 . S
C1438 O1423 1.256 . S
C1438 C1431 1.500 . S
C1439 H1404 0.929 . S
C1439 C1417 1.444 . S
C1439 C1440 1.317 . S
C1440 H1402 0.930 . S
C1440 C1408 1.432 . S
C1440 C1439 1.317 . S
C1441 O1425 1.283 . S
C1441 O1428 1.243 . S
C1442 C1443 1.382 . S
C1442 C1446 1.393 . S
C1442 C1449 1.500 . S
C1443 C1442 1.382 . S
C1443 C1444 1.400 . S
C1443 H1454 0.930 . S
C1444 C1443 1.400 . S
C1444 C1445 1.384 . S
C1445 C1444 1.384 . S
C1445 C1447 1.392 . S
C1445 H1455 0.931 . S
C1446 C1442 1.393 . S
C1446 C1447 1.401 . S
C1446 H1456 0.930 . S
C1447 C1445 1.392 . S
C1447 C1446 1.401 . S
C1447 H1457 0.930 . S
C1448 O1426 1.262 . S
C1448 O1427 1.260 . S
C1449 Tb1385 2.833 . S
C1449 O1424 1.251 . S
C1449 O1429 1.256 . S
C1449 C1442 1.500 . S
H1450 C1433 0.930 . S
H1451 C1434 0.931 . S
H1452 C1435 0.930 . S
H1453 C1436 0.930 . S
H1454 C1443 0.930 . S
H1455 C1445 0.931 . S
H1456 C1446 0.930 . S
H1457 C1447 0.930 . S
H1458 C1470 0.930 . S
H1459 C1472 0.930 . S
H1460 C1473 0.930 . S
H1461 C1477 0.959 . S
H1462 C1477 0.959 . S
H1463 C1477 0.961 . S
H1464 C1478 0.960 . S
H1465 C1478 0.961 1_556 S
H1466 C1478 0.959 . S
H1467 C1481 0.929 . S
H1468 C1482 0.931 . S
H1469 C1484 0.930 . S
C1470 H1458 0.930 . S
C1470 C1471 1.399 . S
C1470 C1475 1.399 . S
C1471 C1470 1.399 . S
C1471 C1472 1.376 . S
C1472 H1459 0.930 . S
C1472 C1471 1.376 . S
C1472 C1473 1.388 . S
C1473 H1460 0.930 . S
C1473 C1472 1.388 . S
C1473 C1474 1.390 . S
C1474 C1473 1.390 . S
C1474 C1475 1.394 . S
C1474 C1480 1.465 . S
C1475 C1470 1.399 . S
C1475 C1474 1.394 . S
C1475 C1476 1.516 . S
C1476 C1475 1.516 . S
C1476 C1477 1.502 . S
C1476 C1478 1.561 . S
C1476 C1479 1.526 . S
C1477 H1461 0.959 . S
C1477 H1462 0.959 . S
C1477 H1463 0.961 . S
C1477 C1476 1.502 . S
C1478 H1464 0.960 . S
C1478 H1465 0.961 1_554 S
C1478 H1466 0.959 . S
C1478 C1476 1.561 . S
C1479 C1476 1.526 . S
C1479 C1480 1.396 . S
C1479 C1484 1.390 . S
C1480 C1474 1.465 . S
C1480 C1479 1.396 . S
C1480 C1481 1.399 . S
C1481 H1467 0.929 . S
C1481 C1480 1.399 . S
C1481 C1482 1.385 . S
C1482 H1468 0.931 . S
C1482 C1481 1.385 . S
C1482 C1483 1.389 . S
C1483 C1482 1.389 . S
C1483 C1484 1.387 . S
C1484 H1469 0.930 . S
C1484 C1479 1.390 . S
C1484 C1483 1.387 . S
H1485 C1497 0.930 . S
H1486 C1499 0.930 . S
H1487 C1500 0.930 . S
H1488 C1504 0.959 . S
H1489 C1504 0.959 . S
H1490 C1504 0.961 . S
H1491 C1505 0.960 . S
H1492 C1505 0.961 . S
H1493 C1505 0.959 . S
H1494 C1508 0.929 . S
H1495 C1509 0.882 1_556 S
H1496 C1511 0.930 . S
C1497 H1485 0.930 . S
C1497 C1498 1.399 . S
C1497 C1502 1.399 . S
C1498 C1497 1.399 . S
C1498 C1499 1.376 . S
C1499 H1486 0.930 . S
C1499 C1498 1.376 . S
C1499 C1500 1.388 . S
C1500 H1487 0.930 . S
C1500 C1499 1.388 . S
C1500 C1501 1.390 . S
C1501 C1500 1.390 . S
C1501 C1502 1.394 . S
C1501 C1507 1.465 . S
C1502 C1497 1.399 . S
C1502 C1501 1.394 . S
C1502 C1503 1.516 . S
C1503 C1502 1.516 . S
C1503 C1504 1.502 . S
C1503 C1505 1.561 . S
C1503 C1506 1.526 . S
C1504 H1488 0.959 . S
C1504 H1489 0.959 . S
C1504 H1490 0.961 . S
C1504 C1503 1.502 . S
C1505 H1491 0.960 . S
C1505 H1492 0.961 . S
C1505 H1493 0.959 . S
C1505 C1503 1.561 . S
C1506 C1503 1.526 . S
C1506 C1507 1.396 . S
C1506 C1511 1.390 . S
C1507 C1501 1.465 . S
C1507 C1506 1.396 . S
C1507 C1508 1.399 . S
C1508 H1494 0.929 . S
C1508 C1507 1.399 . S
C1508 C1509 1.385 . S
C1509 H1495 0.882 1_554 S
C1509 C1508 1.385 . S
C1509 C1510 1.389 . S
C1510 C1509 1.389 . S
C1510 C1511 1.387 . S
C1511 H1496 0.930 . S
C1511 C1506 1.390 . S
C1511 C1510 1.387 . S
H1512 C1524 0.930 . S
H1513 C1526 0.930 . S
H1514 C1527 0.930 . S
H1515 C1531 0.959 . S
H1516 C1531 0.959 . S
H1517 C1531 0.961 . S
H1518 C1532 0.960 . S
H1519 C1532 0.961 . S
H1520 C1532 0.959 . S
H1521 C1535 0.929 . S
H1522 C1536 0.931 . S
H1523 C1538 0.930 . S
C1524 H1512 0.930 . S
C1524 C1525 1.399 . S
C1524 C1529 1.399 . S
C1525 C1524 1.399 . S
C1525 C1526 1.376 . S
C1526 H1513 0.930 . S
C1526 C1525 1.376 . S
C1526 C1527 1.388 . S
C1527 H1514 0.930 . S
C1527 C1526 1.388 . S
C1527 C1528 1.390 . S
C1528 C1527 1.390 . S
C1528 C1529 1.394 . S
C1528 C1534 1.465 . S
C1529 C1524 1.399 . S
C1529 C1528 1.394 . S
C1529 C1530 1.516 . S
C1530 C1529 1.516 . S
C1530 C1531 1.502 . S
C1530 C1532 1.561 . S
C1530 C1533 1.526 . S
C1531 H1515 0.959 . S
C1531 H1516 0.959 . S
C1531 H1517 0.961 . S
C1531 C1530 1.502 . S
C1532 H1518 0.960 . S
C1532 H1519 0.961 . S
C1532 H1520 0.959 . S
C1532 C1530 1.561 . S
C1533 C1530 1.526 . S
C1533 C1534 1.396 . S
C1533 C1538 1.390 . S
C1534 C1528 1.465 . S
C1534 C1533 1.396 . S
C1534 C1535 1.399 . S
C1535 H1521 0.929 . S
C1535 C1534 1.399 . S
C1535 C1536 1.385 . S
C1536 H1522 0.931 . S
C1536 C1535 1.385 . S
C1536 C1537 1.389 . S
C1537 C1536 1.389 . S
C1537 C1538 1.387 . S
C1538 H1523 0.930 . S
C1538 C1533 1.390 . S
C1538 C1537 1.387 . S
H1539 C1551 0.930 . S
H1540 C1553 0.930 . S
H1541 C1554 0.930 . S
H1542 C1558 0.959 . S
H1543 C1558 0.959 1_554 S
H1544 C1558 0.961 . S
H1545 C1559 0.978 . S
H1546 C1559 1.027 . S
H1547 C1559 0.938 1_556 S
H1548 C1562 0.929 . S
H1549 C1563 0.931 . S
H1550 C1565 0.930 1_554 S
C1551 H1539 0.930 . S
C1551 C1552 1.399 . S
C1551 C1556 1.399 . S
C1552 C1551 1.399 . S
C1552 C1553 1.376 . S
C1553 H1540 0.930 . S
C1553 C1552 1.376 . S
C1553 C1554 1.388 . S
C1554 H1541 0.930 . S
C1554 C1553 1.388 . S
C1554 C1555 1.390 . S
C1555 C1554 1.390 . S
C1555 C1556 1.394 . S
C1555 C1561 1.465 . S
C1556 C1551 1.399 . S
C1556 C1555 1.394 . S
C1556 C1557 1.516 . S
C1557 C1556 1.516 . S
C1557 C1558 1.502 . S
C1557 C1559 1.507 1_556 S
C1557 C1560 1.526 . S
C1558 H1542 0.959 . S
C1558 H1543 0.959 1_556 S
C1558 H1544 0.961 . S
C1558 C1557 1.502 . S
C1559 H1545 0.978 . S
C1559 H1546 1.027 . S
C1559 H1547 0.938 1_554 S
C1559 C1557 1.507 1_554 S
C1560 C1557 1.526 . S
C1560 C1561 1.396 . S
C1560 C1565 1.390 . S
C1561 C1555 1.465 . S
C1561 C1560 1.396 . S
C1561 C1562 1.399 . S
C1562 H1548 0.929 . S
C1562 C1561 1.399 . S
C1562 C1563 1.385 . S
C1563 H1549 0.931 . S
C1563 C1562 1.385 . S
C1563 C1564 1.389 . S
C1564 C1563 1.389 . S
C1564 C1565 1.387 . S
C1565 H1550 0.930 1_556 S
C1565 C1560 1.390 . S
C1565 C1564 1.387 . S
H1566 C1578 0.930 . S
H1567 C1580 0.930 . S
H1568 C1581 0.930 . S
H1569 C1585 0.959 . S
H1570 C1585 0.959 . S
H1571 C1585 0.961 . S
H1572 C1586 0.960 . S
H1573 C1586 0.961 1_554 S
H1574 C1586 0.962 . S
H1575 C1589 0.929 . S
H1576 C1590 0.931 . S
H1577 C1592 0.930 . S
C1578 H1566 0.930 . S
C1578 C1579 1.399 . S
C1578 C1583 1.399 . S
C1579 C1578 1.399 . S
C1579 C1580 1.376 . S
C1580 H1567 0.930 . S
C1580 C1579 1.376 . S
C1580 C1581 1.388 . S
C1581 H1568 0.930 . S
C1581 C1580 1.388 . S
C1581 C1582 1.390 . S
C1582 C1581 1.390 . S
C1582 C1583 1.394 . S
C1582 C1588 1.465 . S
C1583 C1578 1.399 . S
C1583 C1582 1.394 . S
C1583 C1584 1.516 . S
C1584 C1583 1.516 . S
C1584 C1585 1.502 . S
C1584 C1586 1.561 . S
C1584 C1587 1.526 . S
C1585 H1569 0.959 . S
C1585 H1570 0.959 . S
C1585 H1571 0.961 . S
C1585 C1584 1.502 . S
C1586 H1572 0.960 . S
C1586 H1573 0.961 1_556 S
C1586 H1574 0.962 . S
C1586 C1584 1.561 . S
C1587 C1584 1.526 . S
C1587 C1588 1.396 . S
C1587 C1592 1.390 . S
C1588 C1582 1.465 . S
C1588 C1587 1.396 . S
C1588 C1589 1.399 . S
C1589 H1575 0.929 . S
C1589 C1588 1.399 . S
C1589 C1590 1.385 . S
C1590 H1576 0.931 . S
C1590 C1589 1.385 . S
C1590 C1591 1.389 . S
C1591 C1590 1.389 . S
C1591 C1592 1.387 . S
C1592 H1577 0.930 . S
C1592 C1587 1.390 . S
C1592 C1591 1.387 . S
H1593 C1605 0.930 . S
H1594 C1607 0.930 . S
H1595 C1608 0.930 . S
H1596 C1612 0.959 . S
H1597 C1612 0.959 . S
H1598 C1612 0.961 . S
H1599 C1613 0.960 . S
H1600 C1613 0.961 . S
H1601 C1613 0.959 . S
H1602 C1616 0.929 1_554 S
H1603 C1617 0.931 1_554 S
H1604 C1619 0.930 . S
C1605 H1593 0.930 . S
C1605 C1606 1.399 . S
C1605 C1610 1.399 . S
C1606 C1605 1.399 . S
C1606 C1607 1.376 . S
C1607 H1594 0.930 . S
C1607 C1606 1.376 . S
C1607 C1608 1.388 . S
C1608 H1595 0.930 . S
C1608 C1607 1.388 . S
C1608 C1609 1.390 . S
C1609 C1608 1.390 . S
C1609 C1610 1.394 . S
C1609 C1615 1.465 . S
C1610 C1605 1.399 . S
C1610 C1609 1.394 . S
C1610 C1611 1.516 . S
C1611 C1610 1.516 . S
C1611 C1612 1.502 . S
C1611 C1613 1.561 . S
C1611 C1614 1.526 . S
C1612 H1596 0.959 . S
C1612 H1597 0.959 . S
C1612 H1598 0.961 . S
C1612 C1611 1.502 . S
C1613 H1599 0.960 . S
C1613 H1600 0.961 . S
C1613 H1601 0.959 . S
C1613 C1611 1.561 . S
C1614 C1611 1.526 . S
C1614 C1615 1.396 . S
C1614 C1619 1.390 . S
C1615 C1609 1.465 . S
C1615 C1614 1.396 . S
C1615 C1616 1.399 . S
C1616 H1602 0.929 1_556 S
C1616 C1615 1.399 . S
C1616 C1617 1.385 . S
C1617 H1603 0.931 1_556 S
C1617 C1616 1.385 . S
C1617 C1618 1.389 . S
C1618 C1617 1.389 . S
C1618 C1619 1.387 . S
C1619 H1604 0.930 . S
C1619 C1614 1.390 . S
C1619 C1618 1.387 . S
H1620 C1632 0.930 . S
H1621 C1634 0.930 . S
H1622 C1635 0.930 . S
H1623 C1639 0.959 . S
H1624 C1639 0.959 . S
H1625 C1639 0.961 . S
H1626 C1640 0.960 . S
H1627 C1640 0.961 . S
H1628 C1640 0.959 . S
H1629 C1643 0.929 1_554 S
H1630 C1644 0.888 1_554 S
H1631 C1646 0.930 . S
C1632 H1620 0.930 . S
C1632 C1633 1.399 . S
C1632 C1637 1.399 . S
C1633 C1632 1.399 . S
C1633 C1634 1.376 . S
C1634 H1621 0.930 . S
C1634 C1633 1.376 . S
C1634 C1635 1.388 . S
C1635 H1622 0.930 . S
C1635 C1634 1.388 . S
C1635 C1636 1.390 . S
C1636 C1635 1.390 . S
C1636 C1637 1.394 . S
C1636 C1642 1.465 . S
C1637 C1632 1.399 . S
C1637 C1636 1.394 . S
C1637 C1638 1.516 . S
C1638 C1637 1.516 . S
C1638 C1639 1.502 . S
C1638 C1640 1.561 . S
C1638 C1641 1.526 . S
C1639 H1623 0.959 . S
C1639 H1624 0.959 . S
C1639 H1625 0.961 . S
C1639 C1638 1.502 . S
C1640 H1626 0.960 . S
C1640 H1627 0.961 . S
C1640 H1628 0.959 . S
C1640 C1638 1.561 . S
C1641 C1638 1.526 . S
C1641 C1642 1.396 . S
C1641 C1646 1.390 . S
C1642 C1636 1.465 . S
C1642 C1641 1.396 . S
C1642 C1643 1.399 . S
C1643 H1629 0.929 1_556 S
C1643 C1642 1.399 . S
C1643 C1644 1.395 . S
C1644 H1630 0.888 1_556 S
C1644 C1643 1.395 . S
C1644 C1645 1.423 . S
C1645 C1644 1.423 . S
C1645 C1646 1.387 . S
C1646 H1631 0.930 . S
C1646 C1641 1.390 . S
C1646 C1645 1.387 . S
H1647 C1659 0.930 . S
H1648 C1661 0.930 . S
H1649 C1662 0.930 . S
H1650 C1666 0.959 . S
H1651 C1666 0.959 . S
H1652 C1666 0.961 . S
H1653 C1667 0.960 . S
H1654 C1667 0.961 . S
H1655 C1667 0.959 . S
H1656 C1670 0.929 1_554 S
H1657 C1671 0.931 1_554 S
H1658 C1673 0.930 . S
C1659 H1647 0.930 . S
C1659 C1660 1.399 . S
C1659 C1664 1.399 . S
C1660 C1659 1.399 . S
C1660 C1661 1.376 . S
C1661 H1648 0.930 . S
C1661 C1660 1.376 . S
C1661 C1662 1.388 . S
C1662 H1649 0.930 . S
C1662 C1661 1.388 . S
C1662 C1663 1.390 . S
C1663 C1662 1.390 . S
C1663 C1664 1.394 . S
C1663 C1669 1.465 . S
C1664 C1659 1.399 . S
C1664 C1663 1.394 . S
C1664 C1665 1.516 . S
C1665 C1664 1.516 . S
C1665 C1666 1.502 . S
C1665 C1667 1.561 . S
C1665 C1668 1.526 . S
C1666 H1650 0.959 . S
C1666 H1651 0.959 . S
C1666 H1652 0.961 . S
C1666 C1665 1.502 . S
C1667 H1653 0.960 . S
C1667 H1654 0.961 . S
C1667 H1655 0.959 . S
C1667 C1665 1.561 . S
C1668 C1665 1.526 . S
C1668 C1669 1.396 . S
C1668 C1673 1.390 . S
C1669 C1663 1.465 . S
C1669 C1668 1.396 . S
C1669 C1670 1.399 . S
C1670 H1656 0.929 1_556 S
C1670 C1669 1.399 . S
C1670 C1671 1.385 . S
C1671 H1657 0.931 1_556 S
C1671 C1670 1.385 . S
C1671 C1672 1.389 . S
C1672 C1671 1.389 . S
C1672 C1673 1.387 . S
C1673 H1658 0.930 . S
C1673 C1668 1.390 . S
C1673 C1672 1.387 . S
H1674 C1686 0.930 . S
H1675 C1688 0.930 . S
H1676 C1689 0.930 . S
H1677 C1693 0.959 . S
H1678 C1693 0.959 . S
H1679 C1693 0.961 . S
H1680 C1694 0.960 . S
H1681 C1694 0.961 . S
H1682 C1694 0.959 . S
H1683 C1697 0.955 . S
H1684 C1698 0.931 1_554 S
H1685 C1700 0.930 . S
C1686 H1674 0.930 . S
C1686 C1687 1.399 . S
C1686 C1691 1.399 . S
C1687 C1686 1.399 . S
C1687 C1688 1.376 . S
C1688 H1675 0.930 . S
C1688 C1687 1.376 . S
C1688 C1689 1.388 . S
C1689 H1676 0.930 . S
C1689 C1688 1.388 . S
C1689 C1690 1.390 . S
C1690 C1689 1.390 . S
C1690 C1691 1.394 . S
C1690 C1696 1.465 . S
C1691 C1686 1.399 . S
C1691 C1690 1.394 . S
C1691 C1692 1.516 . S
C1692 C1691 1.516 . S
C1692 C1693 1.502 . S
C1692 C1694 1.561 . S
C1692 C1695 1.526 . S
C1693 H1677 0.959 . S
C1693 H1678 0.959 . S
C1693 H1679 0.961 . S
C1693 C1692 1.502 . S
C1694 H1680 0.960 . S
C1694 H1681 0.961 . S
C1694 H1682 0.959 . S
C1694 C1692 1.561 . S
C1695 C1692 1.526 . S
C1695 C1696 1.396 . S
C1695 C1700 1.390 . S
C1696 C1690 1.465 . S
C1696 C1695 1.396 . S
C1696 C1697 1.399 . S
C1697 H1683 0.955 . S
C1697 C1696 1.399 . S
C1697 C1698 1.385 . S
C1698 H1684 0.931 1_556 S
C1698 C1697 1.385 . S
C1698 C1699 1.389 . S
C1699 C1698 1.389 . S
C1699 C1700 1.387 . S
C1700 H1685 0.930 . S
C1700 C1695 1.390 . S
C1700 C1699 1.387 . S
H1701 C1713 0.930 . S
H1702 C1715 0.930 . S
H1703 C1716 0.930 . S
H1704 C1720 0.959 . S
H1705 C1720 0.959 . S
H1706 C1720 0.961 . S
H1707 C1721 0.960 . S
H1708 C1721 0.961 1_556 S
H1709 C1721 0.959 . S
H1710 C1724 0.929 . S
H1711 C1725 0.931 . S
H1712 C1727 0.930 . S
C1713 H1701 0.930 . S
C1713 C1714 1.399 . S
C1713 C1718 1.399 . S
C1714 C1713 1.399 . S
C1714 C1715 1.376 . S
C1715 H1702 0.930 . S
C1715 C1714 1.376 . S
C1715 C1716 1.388 . S
C1716 H1703 0.930 . S
C1716 C1715 1.388 . S
C1716 C1717 1.390 . S
C1717 C1716 1.390 . S
C1717 C1718 1.394 . S
C1717 C1723 1.465 . S
C1718 C1713 1.399 . S
C1718 C1717 1.394 . S
C1718 C1719 1.516 . S
C1719 C1718 1.516 . S
C1719 C1720 1.502 . S
C1719 C1721 1.561 . S
C1719 C1722 1.526 . S
C1720 H1704 0.959 . S
C1720 H1705 0.959 . S
C1720 H1706 0.961 . S
C1720 C1719 1.502 . S
C1721 H1707 0.960 . S
C1721 H1708 0.961 1_554 S
C1721 H1709 0.959 . S
C1721 C1719 1.561 . S
C1722 C1719 1.526 . S
C1722 C1723 1.396 . S
C1722 C1727 1.390 . S
C1723 C1717 1.465 . S
C1723 C1722 1.396 . S
C1723 C1724 1.399 . S
C1724 H1710 0.929 . S
C1724 C1723 1.399 . S
C1724 C1725 1.385 . S
C1725 H1711 0.931 . S
C1725 C1724 1.385 . S
C1725 C1726 1.389 . S
C1726 C1725 1.389 . S
C1726 C1727 1.387 . S
C1727 H1712 0.930 . S
C1727 C1722 1.390 . S
C1727 C1726 1.387 . S
H1728 C1740 0.930 . S
H1729 C1742 0.930 . S
H1730 C1743 0.930 . S
H1731 C1747 0.959 . S
H1732 C1747 0.959 . S
H1733 C1747 0.961 . S
H1734 C1748 0.960 . S
H1735 C1748 0.961 . S
H1736 C1748 0.959 . S
H1737 C1751 0.929 . S
H1738 C1752 0.931 . S
H1739 C1754 0.930 . S
C1740 H1728 0.930 . S
C1740 C1741 1.399 . S
C1740 C1745 1.399 . S
C1741 C1740 1.399 . S
C1741 C1742 1.376 . S
C1742 H1729 0.930 . S
C1742 C1741 1.376 . S
C1742 C1743 1.388 . S
C1743 H1730 0.930 . S
C1743 C1742 1.388 . S
C1743 C1744 1.390 . S
C1744 C1743 1.390 . S
C1744 C1745 1.394 . S
C1744 C1750 1.465 . S
C1745 C1740 1.399 . S
C1745 C1744 1.394 . S
C1745 C1746 1.516 . S
C1746 C1745 1.516 . S
C1746 C1747 1.502 . S
C1746 C1748 1.561 . S
C1746 C1749 1.526 . S
C1747 H1731 0.959 . S
C1747 H1732 0.959 . S
C1747 H1733 0.961 . S
C1747 C1746 1.502 . S
C1748 H1734 0.960 . S
C1748 H1735 0.961 . S
C1748 H1736 0.959 . S
C1748 C1746 1.561 . S
C1749 C1746 1.526 . S
C1749 C1750 1.396 . S
C1749 C1754 1.390 . S
C1750 C1744 1.465 . S
C1750 C1749 1.396 . S
C1750 C1751 1.399 . S
C1751 H1737 0.929 . S
C1751 C1750 1.399 . S
C1751 C1752 1.385 . S
C1752 H1738 0.931 . S
C1752 C1751 1.385 . S
C1752 C1753 1.389 . S
C1753 C1752 1.389 . S
C1753 C1754 1.387 . S
C1754 H1739 0.930 . S
C1754 C1749 1.390 . S
C1754 C1753 1.387 . S
H1755 C1767 0.930 . S
H1756 C1769 0.930 . S
H1757 C1770 0.930 . S
H1758 C1774 0.959 . S
H1759 C1774 0.959 . S
H1760 C1774 0.961 . S
H1761 C1775 0.960 . S
H1762 C1775 0.961 1_556 S
H1763 C1775 0.959 . S
H1764 C1778 0.929 . S
H1765 C1779 0.931 . S
H1766 C1781 0.930 . S
C1767 H1755 0.930 . S
C1767 C1768 1.399 . S
C1767 C1772 1.399 . S
C1768 C1767 1.399 . S
C1768 C1769 1.376 . S
C1769 H1756 0.930 . S
C1769 C1768 1.376 . S
C1769 C1770 1.388 . S
C1770 H1757 0.930 . S
C1770 C1769 1.388 . S
C1770 C1771 1.390 . S
C1771 C1770 1.390 . S
C1771 C1772 1.394 . S
C1771 C1777 1.465 . S
C1772 C1767 1.399 . S
C1772 C1771 1.394 . S
C1772 C1773 1.516 . S
C1773 C1772 1.516 . S
C1773 C1774 1.502 . S
C1773 C1775 1.561 . S
C1773 C1776 1.526 . S
C1774 H1758 0.959 . S
C1774 H1759 0.959 . S
C1774 H1760 0.961 . S
C1774 C1773 1.502 . S
C1775 H1761 0.960 . S
C1775 H1762 0.961 1_554 S
C1775 H1763 0.959 . S
C1775 C1773 1.561 . S
C1776 C1773 1.526 . S
C1776 C1777 1.396 . S
C1776 C1781 1.390 . S
C1777 C1771 1.465 . S
C1777 C1776 1.396 . S
C1777 C1778 1.399 . S
C1778 H1764 0.929 . S
C1778 C1777 1.399 . S
C1778 C1779 1.385 . S
C1779 H1765 0.931 . S
C1779 C1778 1.385 . S
C1779 C1780 1.389 . S
C1780 C1779 1.389 . S
C1780 C1781 1.387 . S
C1781 H1766 0.930 . S
C1781 C1776 1.390 . S
C1781 C1780 1.387 . S
H1782 C1794 0.930 . S
H1783 C1796 0.930 . S
H1784 C1797 0.930 . S
H1785 C1801 0.959 . S
H1786 C1801 0.959 . S
H1787 C1801 0.961 . S
H1788 C1802 0.960 . S
H1789 C1802 0.961 . S
H1790 C1802 0.959 . S
H1791 C1805 0.929 . S
H1792 C1806 0.931 . S
H1793 C1808 0.930 . S
C1794 H1782 0.930 . S
C1794 C1795 1.399 1_455 S
C1794 C1799 1.399 . S
C1795 C1794 1.399 1_655 S
C1795 C1796 1.376 . S
C1796 H1783 0.930 . S
C1796 C1795 1.376 . S
C1796 C1797 1.388 1_655 S
C1797 H1784 0.930 . S
C1797 C1796 1.388 1_455 S
C1797 C1798 1.390 . S
C1798 C1797 1.390 . S
C1798 C1799 1.394 . S
C1798 C1804 1.465 . S
C1799 C1794 1.399 . S
C1799 C1798 1.394 . S
C1799 C1800 1.516 . S
C1800 C1799 1.516 . S
C1800 C1801 1.502 . S
C1800 C1802 1.561 . S
C1800 C1803 1.526 . S
C1801 H1785 0.959 . S
C1801 H1786 0.959 . S
C1801 H1787 0.961 . S
C1801 C1800 1.502 . S
C1802 H1788 0.960 . S
C1802 H1789 0.961 . S
C1802 H1790 0.959 . S
C1802 C1800 1.561 . S
C1803 C1800 1.526 . S
C1803 C1804 1.396 . S
C1803 C1808 1.390 . S
C1804 C1798 1.465 . S
C1804 C1803 1.396 . S
C1804 C1805 1.399 . S
C1805 H1791 0.929 . S
C1805 C1804 1.399 . S
C1805 C1806 1.385 . S
C1806 H1792 0.931 . S
C1806 C1805 1.385 . S
C1806 C1807 1.389 . S
C1807 C1806 1.389 . S
C1807 C1808 1.387 . S
C1808 H1793 0.930 . S
C1808 C1803 1.390 . S
C1808 C1807 1.387 . S
H1809 C1821 0.930 . S
H1810 C1823 0.930 . S
H1811 C1824 0.930 . S
H1812 C1828 0.959 . S
H1813 C1828 0.959 . S
H1814 C1828 0.961 . S
H1815 C1829 0.960 . S
H1816 C1829 0.961 . S
H1817 C1829 0.959 . S
H1818 C1832 0.929 . S
H1819 C1833 0.931 . S
H1820 C1835 0.930 . S
C1821 H1809 0.930 . S
C1821 C1822 1.399 . S
C1821 C1826 1.399 . S
C1822 C1821 1.399 . S
C1822 C1823 1.376 . S
C1823 H1810 0.930 . S
C1823 C1822 1.376 . S
C1823 C1824 1.388 . S
C1824 H1811 0.930 . S
C1824 C1823 1.388 . S
C1824 C1825 1.390 . S
C1825 C1824 1.390 . S
C1825 C1826 1.394 . S
C1825 C1831 1.465 . S
C1826 C1821 1.399 . S
C1826 C1825 1.394 . S
C1826 C1827 1.516 . S
C1827 C1826 1.516 . S
C1827 C1828 1.502 . S
C1827 C1829 1.561 . S
C1827 C1830 1.526 . S
C1828 H1812 0.959 . S
C1828 H1813 0.959 . S
C1828 H1814 0.961 . S
C1828 C1827 1.502 . S
C1829 H1815 0.960 . S
C1829 H1816 0.961 . S
C1829 H1817 0.959 . S
C1829 C1827 1.561 . S
C1830 C1827 1.526 . S
C1830 C1831 1.396 . S
C1830 C1835 1.390 . S
C1831 C1825 1.465 . S
C1831 C1830 1.396 . S
C1831 C1832 1.399 . S
C1832 H1818 0.929 . S
C1832 C1831 1.399 . S
C1832 C1833 1.385 . S
C1833 H1819 0.931 . S
C1833 C1832 1.385 . S
C1833 C1834 1.389 . S
C1834 C1833 1.389 . S
C1834 C1835 1.387 . S
C1835 H1820 0.930 . S
C1835 C1830 1.390 . S
C1835 C1834 1.387 . S
H1836 C1848 0.930 . S
H1837 C1850 0.930 . S
H1838 C1851 0.930 . S
H1839 C1855 0.959 . S
H1840 C1855 0.959 . S
H1841 C1855 0.961 . S
H1842 C1856 0.960 . S
H1843 C1856 0.961 . S
H1844 C1856 0.959 . S
H1845 C1859 0.929 . S
H1846 C1860 0.931 . S
H1847 C1862 0.930 . S
C1848 H1836 0.930 . S
C1848 C1849 1.399 1_565 S
C1848 C1853 1.399 . S
C1849 C1848 1.399 1_545 S
C1849 C1850 1.376 . S
C1850 H1837 0.930 . S
C1850 C1849 1.376 . S
C1850 C1851 1.388 1_545 S
C1851 H1838 0.930 . S
C1851 C1850 1.388 1_565 S
C1851 C1852 1.390 . S
C1852 C1851 1.390 . S
C1852 C1853 1.394 . S
C1852 C1858 1.465 . S
C1853 C1848 1.399 . S
C1853 C1852 1.394 . S
C1853 C1854 1.516 . S
C1854 C1853 1.516 . S
C1854 C1855 1.502 . S
C1854 C1856 1.561 . S
C1854 C1857 1.526 . S
C1855 H1839 0.959 . S
C1855 H1840 0.959 . S
C1855 H1841 0.961 . S
C1855 C1854 1.502 . S
C1856 H1842 0.960 . S
C1856 H1843 0.961 . S
C1856 H1844 0.959 . S
C1856 C1854 1.561 . S
C1857 C1854 1.526 . S
C1857 C1858 1.396 . S
C1857 C1862 1.390 . S
C1858 C1852 1.465 . S
C1858 C1857 1.396 . S
C1858 C1859 1.399 . S
C1859 H1845 0.929 . S
C1859 C1858 1.399 . S
C1859 C1860 1.385 . S
C1860 H1846 0.931 . S
C1860 C1859 1.385 . S
C1860 C1861 1.389 . S
C1861 C1860 1.389 . S
C1861 C1862 1.387 . S
C1862 H1847 0.930 . S
C1862 C1857 1.390 . S
C1862 C1861 1.387 . S
H1863 C1875 0.930 . S
H1864 C1877 0.930 . S
H1865 C1878 0.930 . S
H1866 C1882 0.959 . S
H1867 C1882 0.959 . S
H1868 C1882 0.961 . S
H1869 C1883 0.960 . S
H1870 C1883 0.961 . S
H1871 C1883 0.959 . S
H1872 C1886 0.929 . S
H1873 C1887 0.931 . S
H1874 C1889 0.930 . S
C1875 H1863 0.930 . S
C1875 C1876 1.399 . S
C1875 C1880 1.399 . S
C1876 C1875 1.399 . S
C1876 C1877 1.376 . S
C1877 H1864 0.930 . S
C1877 C1876 1.376 . S
C1877 C1878 1.388 . S
C1878 H1865 0.930 . S
C1878 C1877 1.388 . S
C1878 C1879 1.390 . S
C1879 C1878 1.390 . S
C1879 C1880 1.394 . S
C1879 C1885 1.465 . S
C1880 C1875 1.399 . S
C1880 C1879 1.394 . S
C1880 C1881 1.516 . S
C1881 C1880 1.516 . S
C1881 C1882 1.502 . S
C1881 C1883 1.561 . S
C1881 C1884 1.526 . S
C1882 H1866 0.959 . S
C1882 H1867 0.959 . S
C1882 H1868 0.961 . S
C1882 C1881 1.502 . S
C1883 H1869 0.960 . S
C1883 H1870 0.961 . S
C1883 H1871 0.959 . S
C1883 C1881 1.561 . S
C1884 C1881 1.526 . S
C1884 C1885 1.396 . S
C1884 C1889 1.390 . S
C1885 C1879 1.465 . S
C1885 C1884 1.396 . S
C1885 C1886 1.399 . S
C1886 H1872 0.929 . S
C1886 C1885 1.399 . S
C1886 C1887 1.385 . S
C1887 H1873 0.931 . S
C1887 C1886 1.385 . S
C1887 C1888 1.389 . S
C1888 C1887 1.389 . S
C1888 C1889 1.387 . S
C1889 H1874 0.930 . S
C1889 C1884 1.390 . S
C1889 C1888 1.387 . S
H1890 C1902 0.930 . S
H1891 C1904 0.930 . S
H1892 C1905 0.930 . S
H1893 C1909 0.959 . S
H1894 C1909 0.959 . S
H1895 C1909 0.961 . S
H1896 C1910 0.960 . S
H1897 C1910 0.961 . S
H1898 C1910 0.959 . S
H1899 C1913 0.929 . S
H1900 C1914 0.931 . S
H1901 C1916 0.930 . S
C1902 H1890 0.930 . S
C1902 C1903 1.399 . S
C1902 C1907 1.399 . S
C1903 C1902 1.399 . S
C1903 C1904 1.376 . S
C1904 H1891 0.930 . S
C1904 C1903 1.376 . S
C1904 C1905 1.388 . S
C1905 H1892 0.930 . S
C1905 C1904 1.388 . S
C1905 C1906 1.390 . S
C1906 C1905 1.390 . S
C1906 C1907 1.394 . S
C1906 C1912 1.465 . S
C1907 C1902 1.399 . S
C1907 C1906 1.394 . S
C1907 C1908 1.516 . S
C1908 C1907 1.516 . S
C1908 C1909 1.502 . S
C1908 C1910 1.561 . S
C1908 C1911 1.526 . S
C1909 H1893 0.959 . S
C1909 H1894 0.959 . S
C1909 H1895 0.961 . S
C1909 C1908 1.502 . S
C1910 H1896 0.960 . S
C1910 H1897 0.961 . S
C1910 H1898 0.959 . S
C1910 C1908 1.561 . S
C1911 C1908 1.526 . S
C1911 C1912 1.396 . S
C1911 C1916 1.390 . S
C1912 C1906 1.465 . S
C1912 C1911 1.396 . S
C1912 C1913 1.399 . S
C1913 H1899 0.929 . S
C1913 C1912 1.399 . S
C1913 C1914 1.385 . S
C1914 H1900 0.931 . S
C1914 C1913 1.385 . S
C1914 C1915 1.389 . S
C1915 C1914 1.389 . S
C1915 C1916 1.387 . S
C1916 H1901 0.930 . S
C1916 C1911 1.390 . S
C1916 C1915 1.387 . S
H1917 C1929 0.930 . S
H1918 C1931 0.930 . S
H1919 C1932 0.930 . S
H1920 C1936 0.959 . S
H1921 C1936 0.959 . S
H1922 C1936 0.961 . S
H1923 C1937 0.960 . S
H1924 C1937 0.961 . S
H1925 C1937 0.959 . S
H1926 C1940 0.929 . S
H1927 C1941 0.931 . S
H1928 C1943 0.930 . S
C1929 H1917 0.930 . S
C1929 C1930 1.399 . S
C1929 C1934 1.399 . S
C1930 C1929 1.399 . S
C1930 C1931 1.376 . S
C1931 H1918 0.930 . S
C1931 C1930 1.376 . S
C1931 C1932 1.388 . S
C1932 H1919 0.930 . S
C1932 C1931 1.388 . S
C1932 C1933 1.390 . S
C1933 C1932 1.390 . S
C1933 C1934 1.394 . S
C1933 C1939 1.465 . S
C1934 C1929 1.399 . S
C1934 C1933 1.394 . S
C1934 C1935 1.516 . S
C1935 C1934 1.516 . S
C1935 C1936 1.502 . S
C1935 C1937 1.561 . S
C1935 C1938 1.526 . S
C1936 H1920 0.959 . S
C1936 H1921 0.959 . S
C1936 H1922 0.961 . S
C1936 C1935 1.502 . S
C1937 H1923 0.960 . S
C1937 H1924 0.961 . S
C1937 H1925 0.959 . S
C1937 C1935 1.561 . S
C1938 C1935 1.526 . S
C1938 C1939 1.396 . S
C1938 C1943 1.390 . S
C1939 C1933 1.465 . S
C1939 C1938 1.396 . S
C1939 C1940 1.399 . S
C1940 H1926 0.929 . S
C1940 C1939 1.399 . S
C1940 C1941 1.385 . S
C1941 H1927 0.931 . S
C1941 C1940 1.385 . S
C1941 C1942 1.389 . S
C1942 C1941 1.389 . S
C1942 C1943 1.387 . S
C1943 H1928 0.930 . S
C1943 C1938 1.390 . S
C1943 C1942 1.387 . S
H1944 C1956 0.930 . S
H1945 C1958 0.930 . S
H1946 C1959 0.930 . S
H1947 C1963 0.959 . S
H1948 C1963 0.959 . S
H1949 C1963 0.961 . S
H1950 C1964 0.960 . S
H1951 C1964 0.961 . S
H1952 C1964 0.959 . S
H1953 C1967 0.929 . S
H1954 C1968 0.931 . S
H1955 C1970 0.930 . S
C1956 H1944 0.930 . S
C1956 C1957 1.399 . S
C1956 C1961 1.399 . S
C1957 C1956 1.399 . S
C1957 C1958 1.376 . S
C1958 H1945 0.930 . S
C1958 C1957 1.376 . S
C1958 C1959 1.388 . S
C1959 H1946 0.930 . S
C1959 C1958 1.388 . S
C1959 C1960 1.390 . S
C1960 C1959 1.390 . S
C1960 C1961 1.394 . S
C1960 C1966 1.465 . S
C1961 C1956 1.399 . S
C1961 C1960 1.394 . S
C1961 C1962 1.516 . S
C1962 C1961 1.516 . S
C1962 C1963 1.502 . S
C1962 C1964 1.561 . S
C1962 C1965 1.526 . S
C1963 H1947 0.959 . S
C1963 H1948 0.959 . S
C1963 H1949 0.961 . S
C1963 C1962 1.502 . S
C1964 H1950 0.960 . S
C1964 H1951 0.961 . S
C1964 H1952 0.959 . S
C1964 C1962 1.561 . S
C1965 C1962 1.526 . S
C1965 C1966 1.396 . S
C1965 C1970 1.390 . S
C1966 C1960 1.465 . S
C1966 C1965 1.396 . S
C1966 C1967 1.399 . S
C1967 H1953 0.929 . S
C1967 C1966 1.399 . S
C1967 C1968 1.385 . S
C1968 H1954 0.931 . S
C1968 C1967 1.385 . S
C1968 C1969 1.389 . S
C1969 C1968 1.389 . S
C1969 C1970 1.387 . S
C1970 H1955 0.930 . S
C1970 C1965 1.390 . S
C1970 C1969 1.387 . S
H1971 C1983 0.930 . S
H1972 C1985 0.930 . S
H1973 C1986 0.930 . S
H1974 C1990 0.959 . S
H1975 C1990 0.959 . S
H1976 C1990 0.961 . S
H1977 C1991 0.960 . S
H1978 C1991 0.961 . S
H1979 C1991 0.959 . S
H1980 C1994 0.929 . S
H1981 C1995 0.931 . S
H1982 C1997 0.930 . S
C1983 H1971 0.930 . S
C1983 C1984 1.399 . S
C1983 C1988 1.399 . S
C1984 C1983 1.399 . S
C1984 C1985 1.376 . S
C1985 H1972 0.930 . S
C1985 C1984 1.376 . S
C1985 C1986 1.388 . S
C1986 H1973 0.930 . S
C1986 C1985 1.388 . S
C1986 C1987 1.390 . S
C1987 C1986 1.390 . S
C1987 C1988 1.394 . S
C1987 C1993 1.465 . S
C1988 C1983 1.399 . S
C1988 C1987 1.394 . S
C1988 C1989 1.516 . S
C1989 C1988 1.516 . S
C1989 C1990 1.502 . S
C1989 C1991 1.561 . S
C1989 C1992 1.526 . S
C1990 H1974 0.959 . S
C1990 H1975 0.959 . S
C1990 H1976 0.961 . S
C1990 C1989 1.502 . S
C1991 H1977 0.960 . S
C1991 H1978 0.961 . S
C1991 H1979 0.959 . S
C1991 C1989 1.561 . S
C1992 C1989 1.526 . S
C1992 C1993 1.396 . S
C1992 C1997 1.390 . S
C1993 C1987 1.465 . S
C1993 C1992 1.396 . S
C1993 C1994 1.399 . S
C1994 H1980 0.929 . S
C1994 C1993 1.399 . S
C1994 C1995 1.385 . S
C1995 H1981 0.931 . S
C1995 C1994 1.385 . S
C1995 C1996 1.389 . S
C1996 C1995 1.389 . S
C1996 C1997 1.387 . S
C1997 H1982 0.930 . S
C1997 C1992 1.390 . S
C1997 C1996 1.387 . S
H1998 C2010 0.930 . S
H1999 C2012 0.930 . S
H2000 C2013 0.930 . S
H2001 C2017 0.959 . S
H2002 C2017 0.959 . S
H2003 C2017 0.961 . S
H2004 C2018 0.960 . S
H2005 C2018 0.961 . S
H2006 C2018 0.959 . S
H2007 C2021 0.929 . S
H2008 C2022 0.931 . S
H2009 C2024 0.930 . S
C2010 H1998 0.930 . S
C2010 C2011 1.399 . S
C2010 C2015 1.399 . S
C2011 C2010 1.399 . S
C2011 C2012 1.376 . S
C2012 H1999 0.930 . S
C2012 C2011 1.376 . S
C2012 C2013 1.388 . S
C2013 H2000 0.930 . S
C2013 C2012 1.388 . S
C2013 C2014 1.390 . S
C2014 C2013 1.390 . S
C2014 C2015 1.394 . S
C2014 C2020 1.465 . S
C2015 C2010 1.399 . S
C2015 C2014 1.394 . S
C2015 C2016 1.516 . S
C2016 C2015 1.516 . S
C2016 C2017 1.502 . S
C2016 C2018 1.561 . S
C2016 C2019 1.526 . S
C2017 H2001 0.959 . S
C2017 H2002 0.959 . S
C2017 H2003 0.961 . S
C2017 C2016 1.502 . S
C2018 H2004 0.960 . S
C2018 H2005 0.961 . S
C2018 H2006 0.959 . S
C2018 C2016 1.561 . S
C2019 C2016 1.526 . S
C2019 C2020 1.396 . S
C2019 C2024 1.390 . S
C2020 C2014 1.465 . S
C2020 C2019 1.396 . S
C2020 C2021 1.399 . S
C2021 H2007 0.929 . S
C2021 C2020 1.399 . S
C2021 C2022 1.385 . S
C2022 H2008 0.931 . S
C2022 C2021 1.385 . S
C2022 C2023 1.389 . S
C2023 C2022 1.389 . S
C2023 C2024 1.387 . S
C2024 H2009 0.930 . S
C2024 C2019 1.390 . S
C2024 C2023 1.387 . S
H2025 C2037 0.930 . S
H2026 C2039 0.930 1_545 S
H2027 C2040 0.930 . S
H2028 C2044 0.959 . S
H2029 C2044 0.959 . S
H2030 C2044 0.961 . S
H2031 C2045 0.960 . S
H2032 C2045 0.961 . S
H2033 C2045 0.959 . S
H2034 C2048 0.929 . S
H2035 C2049 0.931 . S
H2036 C2051 0.930 . S
C2037 H2025 0.930 . S
C2037 C2038 1.399 . S
C2037 C2042 1.399 1_545 S
C2038 C2037 1.399 . S
C2038 C2039 1.376 1_545 S
C2039 H2026 0.930 1_565 S
C2039 C2038 1.376 1_565 S
C2039 C2040 1.388 . S
C2040 H2027 0.930 . S
C2040 C2039 1.388 . S
C2040 C2041 1.390 . S
C2041 C2040 1.390 . S
C2041 C2042 1.394 . S
C2041 C2047 1.465 . S
C2042 C2037 1.399 1_565 S
C2042 C2041 1.394 . S
C2042 C2043 1.516 . S
C2043 C2042 1.516 . S
C2043 C2044 1.502 . S
C2043 C2045 1.561 . S
C2043 C2046 1.526 . S
C2044 H2028 0.959 . S
C2044 H2029 0.959 . S
C2044 H2030 0.961 . S
C2044 C2043 1.502 . S
C2045 H2031 0.960 . S
C2045 H2032 0.961 . S
C2045 H2033 0.959 . S
C2045 C2043 1.561 . S
C2046 C2043 1.526 . S
C2046 C2047 1.396 . S
C2046 C2051 1.390 . S
C2047 C2041 1.465 . S
C2047 C2046 1.396 . S
C2047 C2048 1.399 . S
C2048 H2034 0.929 . S
C2048 C2047 1.399 . S
C2048 C2049 1.385 . S
C2049 H2035 0.931 . S
C2049 C2048 1.385 . S
C2049 C2050 1.389 . S
C2050 C2049 1.389 . S
C2050 C2051 1.387 . S
C2051 H2036 0.930 . S
C2051 C2046 1.390 . S
C2051 C2050 1.387 . S
H2052 C2064 0.930 1_655 S
H2053 C2066 0.930 . S
H2054 C2067 0.930 . S
H2055 C2071 0.959 . S
H2056 C2071 0.959 . S
H2057 C2071 0.961 . S
H2058 C2072 0.960 . S
H2059 C2072 0.961 . S
H2060 C2072 0.959 . S
H2061 C2075 0.929 . S
H2062 C2076 0.931 . S
H2063 C2078 0.930 . S
C2064 H2052 0.930 1_455 S
C2064 C2065 1.399 1_455 S
C2064 C2069 1.399 . S
C2065 C2064 1.399 1_655 S
C2065 C2066 1.376 1_655 S
C2066 H2053 0.930 . S
C2066 C2065 1.376 1_455 S
C2066 C2067 1.388 . S
C2067 H2054 0.930 . S
C2067 C2066 1.388 . S
C2067 C2068 1.390 . S
C2068 C2067 1.390 . S
C2068 C2069 1.394 . S
C2068 C2074 1.465 . S
C2069 C2064 1.399 . S
C2069 C2068 1.394 . S
C2069 C2070 1.516 . S
C2070 C2069 1.516 . S
C2070 C2071 1.502 . S
C2070 C2072 1.561 . S
C2070 C2073 1.526 . S
C2071 H2055 0.959 . S
C2071 H2056 0.959 . S
C2071 H2057 0.961 . S
C2071 C2070 1.502 . S
C2072 H2058 0.960 . S
C2072 H2059 0.961 . S
C2072 H2060 0.959 . S
C2072 C2070 1.561 . S
C2073 C2070 1.526 . S
C2073 C2074 1.396 . S
C2073 C2078 1.390 . S
C2074 C2068 1.465 . S
C2074 C2073 1.396 . S
C2074 C2075 1.399 . S
C2075 H2061 0.929 . S
C2075 C2074 1.399 . S
C2075 C2076 1.385 . S
C2076 H2062 0.931 . S
C2076 C2075 1.385 . S
C2076 C2077 1.389 . S
C2077 C2076 1.389 . S
C2077 C2078 1.387 . S
C2078 H2063 0.930 . S
C2078 C2073 1.390 . S
C2078 C2077 1.387 . S
H2079 C2091 0.930 . S
H2080 C2093 0.930 . S
H2081 C2094 0.930 . S
H2082 C2098 0.959 . S
H2083 C2098 0.959 . S
H2084 C2098 0.961 . S
H2085 C2099 0.960 . S
H2086 C2099 0.961 . S
H2087 C2099 0.959 . S
H2088 C2102 0.929 . S
H2089 C2103 0.931 . S
H2090 C2105 0.930 . S
C2091 H2079 0.930 . S
C2091 C2092 1.399 . S
C2091 C2096 1.399 . S
C2092 C2091 1.399 . S
C2092 C2093 1.376 . S
C2093 H2080 0.930 . S
C2093 C2092 1.376 . S
C2093 C2094 1.388 . S
C2094 H2081 0.930 . S
C2094 C2093 1.388 . S
C2094 C2095 1.390 . S
C2095 C2094 1.390 . S
C2095 C2096 1.394 . S
C2095 C2101 1.465 . S
C2096 C2091 1.399 . S
C2096 C2095 1.394 . S
C2096 C2097 1.516 . S
C2097 C2096 1.516 . S
C2097 C2098 1.502 . S
C2097 C2099 1.561 . S
C2097 C2100 1.526 . S
C2098 H2082 0.959 . S
C2098 H2083 0.959 . S
C2098 H2084 0.961 . S
C2098 C2097 1.502 . S
C2099 H2085 0.960 . S
C2099 H2086 0.961 . S
C2099 H2087 0.959 . S
C2099 C2097 1.561 . S
C2100 C2097 1.526 . S
C2100 C2101 1.396 . S
C2100 C2105 1.390 . S
C2101 C2095 1.465 . S
C2101 C2100 1.396 . S
C2101 C2102 1.399 . S
C2102 H2088 0.929 . S
C2102 C2101 1.399 . S
C2102 C2103 1.385 . S
C2103 H2089 0.931 . S
C2103 C2102 1.385 . S
C2103 C2104 1.389 . S
C2104 C2103 1.389 . S
C2104 C2105 1.387 . S
C2105 H2090 0.930 . S
C2105 C2100 1.390 . S
C2105 C2104 1.387 . S
H2106 C2118 0.930 . S
H2107 C2120 0.930 . S
H2108 C2121 0.930 . S
H2109 C2125 0.959 . S
H2110 C2125 0.959 . S
H2111 C2125 0.961 . S
H2112 C2126 0.960 . S
H2113 C2126 0.961 . S
H2114 C2126 0.959 . S
H2115 C2129 0.929 . S
H2116 C2130 0.931 . S
H2117 C2132 0.930 . S
C2118 H2106 0.930 . S
C2118 C2119 1.399 . S
C2118 C2123 1.399 . S
C2119 C2118 1.399 . S
C2119 C2120 1.376 . S
C2120 H2107 0.930 . S
C2120 C2119 1.376 . S
C2120 C2121 1.388 . S
C2121 H2108 0.930 . S
C2121 C2120 1.388 . S
C2121 C2122 1.390 . S
C2122 C2121 1.390 . S
C2122 C2123 1.394 . S
C2122 C2128 1.465 . S
C2123 C2118 1.399 . S
C2123 C2122 1.394 . S
C2123 C2124 1.516 . S
C2124 C2123 1.516 . S
C2124 C2125 1.502 . S
C2124 C2126 1.561 . S
C2124 C2127 1.526 . S
C2125 H2109 0.959 . S
C2125 H2110 0.959 . S
C2125 H2111 0.961 . S
C2125 C2124 1.502 . S
C2126 H2112 0.960 . S
C2126 H2113 0.961 . S
C2126 H2114 0.959 . S
C2126 C2124 1.561 . S
C2127 C2124 1.526 . S
C2127 C2128 1.396 . S
C2127 C2132 1.390 . S
C2128 C2122 1.465 . S
C2128 C2127 1.396 . S
C2128 C2129 1.399 . S
C2129 H2115 0.929 . S
C2129 C2128 1.399 . S
C2129 C2130 1.385 . S
C2130 H2116 0.931 . S
C2130 C2129 1.385 . S
C2130 C2131 1.389 . S
C2131 C2130 1.389 . S
C2131 C2132 1.387 . S
C2132 H2117 0.930 . S
C2132 C2127 1.390 . S
C2132 C2131 1.387 . S
H2133 C2145 0.930 . S
H2134 C2147 0.930 . S
H2135 C2148 0.930 . S
H2136 C2152 0.959 . S
H2137 C2152 0.959 . S
H2138 C2152 0.961 . S
H2139 C2153 0.960 . S
H2140 C2153 0.961 . S
H2141 C2153 0.959 . S
H2142 C2156 0.929 . S
H2143 C2157 0.931 . S
H2144 C2159 0.930 . S
C2145 H2133 0.930 . S
C2145 C2146 1.399 . S
C2145 C2150 1.399 . S
C2146 C2145 1.399 . S
C2146 C2147 1.376 . S
C2147 H2134 0.930 . S
C2147 C2146 1.376 . S
C2147 C2148 1.388 . S
C2148 H2135 0.930 . S
C2148 C2147 1.388 . S
C2148 C2149 1.390 . S
C2149 C2148 1.390 . S
C2149 C2150 1.394 . S
C2149 C2155 1.465 . S
C2150 C2145 1.399 . S
C2150 C2149 1.394 . S
C2150 C2151 1.516 . S
C2151 C2150 1.516 . S
C2151 C2152 1.502 . S
C2151 C2153 1.561 . S
C2151 C2154 1.526 . S
C2152 H2136 0.959 . S
C2152 H2137 0.959 . S
C2152 H2138 0.961 . S
C2152 C2151 1.502 . S
C2153 H2139 0.960 . S
C2153 H2140 0.961 . S
C2153 H2141 0.959 . S
C2153 C2151 1.561 . S
C2154 C2151 1.526 . S
C2154 C2155 1.396 . S
C2154 C2159 1.390 . S
C2155 C2149 1.465 . S
C2155 C2154 1.396 . S
C2155 C2156 1.399 . S
C2156 H2142 0.929 . S
C2156 C2155 1.399 . S
C2156 C2157 1.385 . S
C2157 H2143 0.931 . S
C2157 C2156 1.385 . S
C2157 C2158 1.389 . S
C2158 C2157 1.389 . S
C2158 C2159 1.387 . S
C2159 H2144 0.930 . S
C2159 C2154 1.390 . S
C2159 C2158 1.387 . S
H2160 C2172 0.930 . S
H2161 C2174 0.930 . S
H2162 C2175 0.930 . S
H2163 C2179 0.959 . S
H2164 C2179 0.959 . S
H2165 C2179 0.961 . S
H2166 C2180 0.960 . S
H2167 C2180 0.961 . S
H2168 C2180 0.959 . S
H2169 C2183 0.929 . S
H2170 C2184 0.931 . S
H2171 C2186 0.930 . S
C2172 H2160 0.930 . S
C2172 C2173 1.399 . S
C2172 C2177 1.399 . S
C2173 C2172 1.399 . S
C2173 C2174 1.376 . S
C2174 H2161 0.930 . S
C2174 C2173 1.376 . S
C2174 C2175 1.388 . S
C2175 H2162 0.930 . S
C2175 C2174 1.388 . S
C2175 C2176 1.390 . S
C2176 C2175 1.390 . S
C2176 C2177 1.394 . S
C2176 C2182 1.465 . S
C2177 C2172 1.399 . S
C2177 C2176 1.394 . S
C2177 C2178 1.516 . S
C2178 C2177 1.516 . S
C2178 C2179 1.502 . S
C2178 C2180 1.561 . S
C2178 C2181 1.526 . S
C2179 H2163 0.959 . S
C2179 H2164 0.959 . S
C2179 H2165 0.961 . S
C2179 C2178 1.502 . S
C2180 H2166 0.960 . S
C2180 H2167 0.961 . S
C2180 H2168 0.959 . S
C2180 C2178 1.561 . S
C2181 C2178 1.526 . S
C2181 C2182 1.396 . S
C2181 C2186 1.390 . S
C2182 C2176 1.465 . S
C2182 C2181 1.396 . S
C2182 C2183 1.399 . S
C2183 H2169 0.929 . S
C2183 C2182 1.399 . S
C2183 C2184 1.385 . S
C2184 H2170 0.931 . S
C2184 C2183 1.385 . S
C2184 C2185 1.389 . S
C2185 C2184 1.389 . S
C2185 C2186 1.387 . S
C2186 H2171 0.930 . S
C2186 C2181 1.390 . S
C2186 C2185 1.387 . S
H2187 C2199 0.930 . S
H2188 C2201 0.930 . S
H2189 C2202 0.930 . S
H2190 C2206 0.959 . S
H2191 C2206 0.959 . S
H2192 C2206 0.961 . S
H2193 C2207 0.960 . S
H2194 C2207 0.961 . S
H2195 C2207 0.959 . S
H2196 C2210 0.929 . S
H2197 C2211 0.931 . S
H2198 C2213 0.930 . S
C2199 H2187 0.930 . S
C2199 C2200 1.399 1_545 S
C2199 C2204 1.399 . S
C2200 C2199 1.399 1_565 S
C2200 C2201 1.376 . S
C2201 H2188 0.930 . S
C2201 C2200 1.376 . S
C2201 C2202 1.388 1_565 S
C2202 H2189 0.930 . S
C2202 C2201 1.388 1_545 S
C2202 C2203 1.390 . S
C2203 C2202 1.390 . S
C2203 C2204 1.394 . S
C2203 C2209 1.465 . S
C2204 C2199 1.399 . S
C2204 C2203 1.394 . S
C2204 C2205 1.516 . S
C2205 C2204 1.516 . S
C2205 C2206 1.502 . S
C2205 C2207 1.561 . S
C2205 C2208 1.526 . S
C2206 H2190 0.959 . S
C2206 H2191 0.959 . S
C2206 H2192 0.961 . S
C2206 C2205 1.502 . S
C2207 H2193 0.960 . S
C2207 H2194 0.961 . S
C2207 H2195 0.959 . S
C2207 C2205 1.561 . S
C2208 C2205 1.526 . S
C2208 C2209 1.396 . S
C2208 C2213 1.390 . S
C2209 C2203 1.465 . S
C2209 C2208 1.396 . S
C2209 C2210 1.399 . S
C2210 H2196 0.929 . S
C2210 C2209 1.399 . S
C2210 C2211 1.385 . S
C2211 H2197 0.931 . S
C2211 C2210 1.385 . S
C2211 C2212 1.389 . S
C2212 C2211 1.389 . S
C2212 C2213 1.387 . S
C2213 H2198 0.930 . S
C2213 C2208 1.390 . S
C2213 C2212 1.387 . S
H2214 C2226 0.930 . S
H2215 C2228 0.930 . S
H2216 C2229 0.930 . S
H2217 C2233 0.959 . S
H2218 C2233 0.959 . S
H2219 C2233 0.961 . S
H2220 C2234 0.960 . S
H2221 C2234 0.961 . S
H2222 C2234 0.959 . S
H2223 C2237 0.929 . S
H2224 C2238 0.931 . S
H2225 C2240 0.930 . S
C2226 H2214 0.930 . S
C2226 C2227 1.399 1_655 S
C2226 C2231 1.399 . S
C2227 C2226 1.399 1_455 S
C2227 C2228 1.376 . S
C2228 H2215 0.930 . S
C2228 C2227 1.376 . S
C2228 C2229 1.388 1_455 S
C2229 H2216 0.930 . S
C2229 C2228 1.388 1_655 S
C2229 C2230 1.390 . S
C2230 C2229 1.390 . S
C2230 C2231 1.394 . S
C2230 C2236 1.465 . S
C2231 C2226 1.399 . S
C2231 C2230 1.394 . S
C2231 C2232 1.516 . S
C2232 C2231 1.516 . S
C2232 C2233 1.502 . S
C2232 C2234 1.561 . S
C2232 C2235 1.526 . S
C2233 H2217 0.959 . S
C2233 H2218 0.959 . S
C2233 H2219 0.961 . S
C2233 C2232 1.502 . S
C2234 H2220 0.960 . S
C2234 H2221 0.961 . S
C2234 H2222 0.959 . S
C2234 C2232 1.561 . S
C2235 C2232 1.526 . S
C2235 C2236 1.396 . S
C2235 C2240 1.390 . S
C2236 C2230 1.465 . S
C2236 C2235 1.396 . S
C2236 C2237 1.399 . S
C2237 H2223 0.929 . S
C2237 C2236 1.399 . S
C2237 C2238 1.385 . S
C2238 H2224 0.931 . S
C2238 C2237 1.385 . S
C2238 C2239 1.389 . S
C2239 C2238 1.389 . S
C2239 C2240 1.387 . S
C2240 H2225 0.930 . S
C2240 C2235 1.390 . S
C2240 C2239 1.387 . S
H2241 C2253 0.930 . S
H2242 C2255 0.930 . S
H2243 C2256 0.930 . S
H2244 C2260 0.959 . S
H2245 C2260 0.959 . S
H2246 C2260 0.961 . S
H2247 C2261 0.960 . S
H2248 C2261 0.961 . S
H2249 C2261 0.959 . S
H2250 C2264 0.929 . S
H2251 C2265 0.931 . S
H2252 C2267 0.930 . S
C2253 H2241 0.930 . S
C2253 C2254 1.399 . S
C2253 C2258 1.399 . S
C2254 C2253 1.399 . S
C2254 C2255 1.376 . S
C2255 H2242 0.930 . S
C2255 C2254 1.376 . S
C2255 C2256 1.388 . S
C2256 H2243 0.930 . S
C2256 C2255 1.388 . S
C2256 C2257 1.390 . S
C2257 C2256 1.390 . S
C2257 C2258 1.394 . S
C2257 C2263 1.465 . S
C2258 C2253 1.399 . S
C2258 C2257 1.394 . S
C2258 C2259 1.516 . S
C2259 C2258 1.516 . S
C2259 C2260 1.502 . S
C2259 C2261 1.561 . S
C2259 C2262 1.526 . S
C2260 H2244 0.959 . S
C2260 H2245 0.959 . S
C2260 H2246 0.961 . S
C2260 C2259 1.502 . S
C2261 H2247 0.960 . S
C2261 H2248 0.961 . S
C2261 H2249 0.959 . S
C2261 C2259 1.561 . S
C2262 C2259 1.526 . S
C2262 C2263 1.396 . S
C2262 C2267 1.390 . S
C2263 C2257 1.465 . S
C2263 C2262 1.396 . S
C2263 C2264 1.399 . S
C2264 H2250 0.929 . S
C2264 C2263 1.399 . S
C2264 C2265 1.385 . S
C2265 H2251 0.931 . S
C2265 C2264 1.385 . S
C2265 C2266 1.389 . S
C2266 C2265 1.389 . S
C2266 C2267 1.387 . S
C2267 H2252 0.930 . S
C2267 C2262 1.390 . S
C2267 C2266 1.387 . S
H2268 C2280 0.930 . S
H2269 C2282 0.930 . S
H2270 C2283 0.930 . S
H2271 C2287 0.959 . S
H2272 C2287 0.959 . S
H2273 C2287 0.961 . S
H2274 C2288 0.960 . S
H2275 C2288 0.961 . S
H2276 C2288 0.959 . S
H2277 C2291 0.929 . S
H2278 C2292 0.931 . S
H2279 C2294 0.930 . S
C2280 H2268 0.930 . S
C2280 C2281 1.399 1_655 S
C2280 C2285 1.399 . S
C2281 C2280 1.399 1_455 S
C2281 C2282 1.376 . S
C2282 H2269 0.930 . S
C2282 C2281 1.376 . S
C2282 C2283 1.388 1_455 S
C2283 H2270 0.930 . S
C2283 C2282 1.388 1_655 S
C2283 C2284 1.390 . S
C2284 C2283 1.390 . S
C2284 C2285 1.394 . S
C2284 C2290 1.465 . S
C2285 C2280 1.399 . S
C2285 C2284 1.394 . S
C2285 C2286 1.516 . S
C2286 C2285 1.516 . S
C2286 C2287 1.502 . S
C2286 C2288 1.561 . S
C2286 C2289 1.526 . S
C2287 H2271 0.959 . S
C2287 H2272 0.959 . S
C2287 H2273 0.961 . S
C2287 C2286 1.502 . S
C2288 H2274 0.960 . S
C2288 H2275 0.961 . S
C2288 H2276 0.959 . S
C2288 C2286 1.561 . S
C2289 C2286 1.526 . S
C2289 C2290 1.396 . S
C2289 C2294 1.390 . S
C2290 C2284 1.465 . S
C2290 C2289 1.396 . S
C2290 C2291 1.399 . S
C2291 H2277 0.929 . S
C2291 C2290 1.399 . S
C2291 C2292 1.385 . S
C2292 H2278 0.931 . S
C2292 C2291 1.385 . S
C2292 C2293 1.389 . S
C2293 C2292 1.389 . S
C2293 C2294 1.387 . S
C2294 H2279 0.930 . S
C2294 C2289 1.390 . S
C2294 C2293 1.387 . S
H2295 C2307 0.930 . S
H2296 C2309 0.930 . S
H2297 C2310 0.930 . S
H2298 C2314 0.959 . S
H2299 C2314 0.959 . S
H2300 C2314 0.961 . S
H2301 C2315 0.960 . S
H2302 C2315 0.961 . S
H2303 C2315 0.959 . S
H2304 C2318 0.929 . S
H2305 C2319 0.931 . S
H2306 C2321 0.930 . S
C2307 H2295 0.930 . S
C2307 C2308 1.399 . S
C2307 C2312 1.399 . S
C2308 C2307 1.399 . S
C2308 C2309 1.376 . S
C2309 H2296 0.930 . S
C2309 C2308 1.376 . S
C2309 C2310 1.388 . S
C2310 H2297 0.930 . S
C2310 C2309 1.388 . S
C2310 C2311 1.390 . S
C2311 C2310 1.390 . S
C2311 C2312 1.394 . S
C2311 C2317 1.465 . S
C2312 C2307 1.399 . S
C2312 C2311 1.394 . S
C2312 C2313 1.516 . S
C2313 C2312 1.516 . S
C2313 C2314 1.502 . S
C2313 C2315 1.561 . S
C2313 C2316 1.526 . S
C2314 H2298 0.959 . S
C2314 H2299 0.959 . S
C2314 H2300 0.961 . S
C2314 C2313 1.502 . S
C2315 H2301 0.960 . S
C2315 H2302 0.961 . S
C2315 H2303 0.959 . S
C2315 C2313 1.561 . S
C2316 C2313 1.526 . S
C2316 C2317 1.396 . S
C2316 C2321 1.390 . S
C2317 C2311 1.465 . S
C2317 C2316 1.396 . S
C2317 C2318 1.399 . S
C2318 H2304 0.929 . S
C2318 C2317 1.399 . S
C2318 C2319 1.385 . S
C2319 H2305 0.931 . S
C2319 C2318 1.385 . S
C2319 C2320 1.389 . S
C2320 C2319 1.389 . S
C2320 C2321 1.387 . S
C2321 H2306 0.930 . S
C2321 C2316 1.390 . S
C2321 C2320 1.387 . S
H2322 C2334 0.930 . S
H2323 C2336 0.930 . S
H2324 C2337 0.930 . S
H2325 C2341 0.959 . S
H2326 C2341 0.959 . S
H2327 C2341 0.961 . S
H2328 C2342 0.960 . S
H2329 C2342 0.961 . S
H2330 C2342 0.959 . S
H2331 C2345 0.929 . S
H2332 C2346 0.931 . S
H2333 C2348 0.930 . S
C2334 H2322 0.930 . S
C2334 C2335 1.399 1_545 S
C2334 C2339 1.399 . S
C2335 C2334 1.399 1_565 S
C2335 C2336 1.376 . S
C2336 H2323 0.930 . S
C2336 C2335 1.376 . S
C2336 C2337 1.388 1_565 S
C2337 H2324 0.930 . S
C2337 C2336 1.388 1_545 S
C2337 C2338 1.390 . S
C2338 C2337 1.390 . S
C2338 C2339 1.394 . S
C2338 C2344 1.465 . S
C2339 C2334 1.399 . S
C2339 C2338 1.394 . S
C2339 C2340 1.516 . S
C2340 C2339 1.516 . S
C2340 C2341 1.502 . S
C2340 C2342 1.561 . S
C2340 C2343 1.526 . S
C2341 H2325 0.959 . S
C2341 H2326 0.959 . S
C2341 H2327 0.961 . S
C2341 C2340 1.502 . S
C2342 H2328 0.960 . S
C2342 H2329 0.961 . S
C2342 H2330 0.959 . S
C2342 C2340 1.561 . S
C2343 C2340 1.526 . S
C2343 C2344 1.396 . S
C2343 C2348 1.390 . S
C2344 C2338 1.465 . S
C2344 C2343 1.396 . S
C2344 C2345 1.399 . S
C2345 H2331 0.929 . S
C2345 C2344 1.399 . S
C2345 C2346 1.385 . S
C2346 H2332 0.931 . S
C2346 C2345 1.385 . S
C2346 C2347 1.389 . S
C2347 C2346 1.389 . S
C2347 C2348 1.387 . S
C2348 H2333 0.930 . S
C2348 C2343 1.390 . S
C2348 C2347 1.387 . S
H2349 C2361 0.930 . S
H2350 C2363 0.930 . S
H2351 C2364 0.930 . S
H2352 C2368 0.959 . S
H2353 C2368 0.959 . S
H2354 C2368 0.961 . S
H2355 C2369 0.960 . S
H2356 C2369 0.961 . S
H2357 C2369 0.959 . S
H2358 C2372 0.929 . S
H2359 C2373 0.931 . S
H2360 C2375 0.930 . S
C2361 H2349 0.930 . S
C2361 C2362 1.399 . S
C2361 C2366 1.399 . S
C2362 C2361 1.399 . S
C2362 C2363 1.376 . S
C2363 H2350 0.930 . S
C2363 C2362 1.376 . S
C2363 C2364 1.388 . S
C2364 H2351 0.930 . S
C2364 C2363 1.388 . S
C2364 C2365 1.390 . S
C2365 C2364 1.390 . S
C2365 C2366 1.394 . S
C2365 C2371 1.465 . S
C2366 C2361 1.399 . S
C2366 C2365 1.394 . S
C2366 C2367 1.516 . S
C2367 C2366 1.516 . S
C2367 C2368 1.502 . S
C2367 C2369 1.561 . S
C2367 C2370 1.526 . S
C2368 H2352 0.959 . S
C2368 H2353 0.959 . S
C2368 H2354 0.961 . S
C2368 C2367 1.502 . S
C2369 H2355 0.960 . S
C2369 H2356 0.961 . S
C2369 H2357 0.959 . S
C2369 C2367 1.561 . S
C2370 C2367 1.526 . S
C2370 C2371 1.396 . S
C2370 C2375 1.390 . S
C2371 C2365 1.465 . S
C2371 C2370 1.396 . S
C2371 C2372 1.399 . S
C2372 H2358 0.929 . S
C2372 C2371 1.399 . S
C2372 C2373 1.385 . S
C2373 H2359 0.931 . S
C2373 C2372 1.385 . S
C2373 C2374 1.389 . S
C2374 C2373 1.389 . S
C2374 C2375 1.387 . S
C2375 H2360 0.930 . S
C2375 C2370 1.390 . S
C2375 C2374 1.387 . S
H2376 C2388 0.930 . S
H2377 C2390 0.930 . S
H2378 C2391 0.930 . S
H2379 C2395 0.959 . S
H2380 C2395 0.959 . S
H2381 C2395 0.961 . S
H2382 C2396 0.960 . S
H2383 C2396 0.961 . S
H2384 C2396 0.959 . S
H2385 C2399 0.929 . S
H2386 C2400 0.931 . S
H2387 C2402 0.930 . S
C2388 H2376 0.930 . S
C2388 C2389 1.399 . S
C2388 C2393 1.399 . S
C2389 C2388 1.399 . S
C2389 C2390 1.376 . S
C2390 H2377 0.930 . S
C2390 C2389 1.376 . S
C2390 C2391 1.388 . S
C2391 H2378 0.930 . S
C2391 C2390 1.388 . S
C2391 C2392 1.390 . S
C2392 C2391 1.390 . S
C2392 C2393 1.394 . S
C2392 C2398 1.465 . S
C2393 C2388 1.399 . S
C2393 C2392 1.394 . S
C2393 C2394 1.516 . S
C2394 C2393 1.516 . S
C2394 C2395 1.502 . S
C2394 C2396 1.561 . S
C2394 C2397 1.526 . S
C2395 H2379 0.959 . S
C2395 H2380 0.959 . S
C2395 H2381 0.961 . S
C2395 C2394 1.502 . S
C2396 H2382 0.960 . S
C2396 H2383 0.961 . S
C2396 H2384 0.959 . S
C2396 C2394 1.561 . S
C2397 C2394 1.526 . S
C2397 C2398 1.396 . S
C2397 C2402 1.390 . S
C2398 C2392 1.465 . S
C2398 C2397 1.396 . S
C2398 C2399 1.399 . S
C2399 H2385 0.929 . S
C2399 C2398 1.399 . S
C2399 C2400 1.385 . S
C2400 H2386 0.931 . S
C2400 C2399 1.385 . S
C2400 C2401 1.389 . S
C2401 C2400 1.389 . S
C2401 C2402 1.387 . S
C2402 H2387 0.930 . S
C2402 C2397 1.390 . S
C2402 C2401 1.387 . S
H2403 C2415 0.930 . S
H2404 C2417 0.930 . S
H2405 C2418 0.930 . S
H2406 C2422 0.959 . S
H2407 C2422 0.959 . S
H2408 C2422 0.961 . S
H2409 C2423 0.960 . S
H2410 C2423 0.961 . S
H2411 C2423 0.959 . S
H2412 C2426 0.929 . S
H2413 C2427 0.931 . S
H2414 C2429 0.930 . S
C2415 H2403 0.930 . S
C2415 C2416 1.399 . S
C2415 C2420 1.399 . S
C2416 C2415 1.399 . S
C2416 C2417 1.376 . S
C2417 H2404 0.930 . S
C2417 C2416 1.376 . S
C2417 C2418 1.388 . S
C2418 H2405 0.930 . S
C2418 C2417 1.388 . S
C2418 C2419 1.390 . S
C2419 C2418 1.390 . S
C2419 C2420 1.394 . S
C2419 C2425 1.465 . S
C2420 C2415 1.399 . S
C2420 C2419 1.394 . S
C2420 C2421 1.516 . S
C2421 C2420 1.516 . S
C2421 C2422 1.502 . S
C2421 C2423 1.561 . S
C2421 C2424 1.526 . S
C2422 H2406 0.959 . S
C2422 H2407 0.959 . S
C2422 H2408 0.961 . S
C2422 C2421 1.502 . S
C2423 H2409 0.960 . S
C2423 H2410 0.961 . S
C2423 H2411 0.959 . S
C2423 C2421 1.561 . S
C2424 C2421 1.526 . S
C2424 C2425 1.396 . S
C2424 C2429 1.390 . S
C2425 C2419 1.465 . S
C2425 C2424 1.396 . S
C2425 C2426 1.399 . S
C2426 H2412 0.929 . S
C2426 C2425 1.399 . S
C2426 C2427 1.385 . S
C2427 H2413 0.931 . S
C2427 C2426 1.385 . S
C2427 C2428 1.389 . S
C2428 C2427 1.389 . S
C2428 C2429 1.387 . S
C2429 H2414 0.930 . S
C2429 C2424 1.390 . S
C2429 C2428 1.387 . S
H2430 C2442 0.930 . S
H2431 C2444 0.930 . S
H2432 C2445 0.930 . S
H2433 C2449 0.959 . S
H2434 C2449 0.959 . S
H2435 C2449 0.961 . S
H2436 C2450 0.960 . S
H2437 C2450 0.961 . S
H2438 C2450 0.959 . S
H2439 C2453 0.929 . S
H2440 C2454 0.931 . S
H2441 C2456 0.930 . S
C2442 H2430 0.930 . S
C2442 C2443 1.399 . S
C2442 C2447 1.399 . S
C2443 C2442 1.399 . S
C2443 C2444 1.376 . S
C2444 H2431 0.930 . S
C2444 C2443 1.376 . S
C2444 C2445 1.388 . S
C2445 H2432 0.930 . S
C2445 C2444 1.388 . S
C2445 C2446 1.390 . S
C2446 C2445 1.390 . S
C2446 C2447 1.394 . S
C2446 C2452 1.465 . S
C2447 C2442 1.399 . S
C2447 C2446 1.394 . S
C2447 C2448 1.516 . S
C2448 C2447 1.516 . S
C2448 C2449 1.502 . S
C2448 C2450 1.561 . S
C2448 C2451 1.526 . S
C2449 H2433 0.959 . S
C2449 H2434 0.959 . S
C2449 H2435 0.961 . S
C2449 C2448 1.502 . S
C2450 H2436 0.960 . S
C2450 H2437 0.961 . S
C2450 H2438 0.959 . S
C2450 C2448 1.561 . S
C2451 C2448 1.526 . S
C2451 C2452 1.396 . S
C2451 C2456 1.390 . S
C2452 C2446 1.465 . S
C2452 C2451 1.396 . S
C2452 C2453 1.399 . S
C2453 H2439 0.929 . S
C2453 C2452 1.399 . S
C2453 C2454 1.385 . S
C2454 H2440 0.931 . S
C2454 C2453 1.385 . S
C2454 C2455 1.389 . S
C2455 C2454 1.389 . S
C2455 C2456 1.387 . S
C2456 H2441 0.930 . S
C2456 C2451 1.390 . S
C2456 C2455 1.387 . S
H2457 C2469 0.930 . S
H2458 C2471 0.930 . S
H2459 C2472 0.930 . S
H2460 C2476 0.959 . S
H2461 C2476 0.959 . S
H2462 C2476 0.961 . S
H2463 C2477 0.960 . S
H2464 C2477 0.961 . S
H2465 C2477 0.959 . S
H2466 C2480 0.929 . S
H2467 C2481 0.931 . S
H2468 C2483 0.930 . S
C2469 H2457 0.930 . S
C2469 C2470 1.399 . S
C2469 C2474 1.399 . S
C2470 C2469 1.399 . S
C2470 C2471 1.376 . S
C2471 H2458 0.930 . S
C2471 C2470 1.376 . S
C2471 C2472 1.388 . S
C2472 H2459 0.930 . S
C2472 C2471 1.388 . S
C2472 C2473 1.390 . S
C2473 C2472 1.390 . S
C2473 C2474 1.394 . S
C2473 C2479 1.465 . S
C2474 C2469 1.399 . S
C2474 C2473 1.394 . S
C2474 C2475 1.516 . S
C2475 C2474 1.516 . S
C2475 C2476 1.502 . S
C2475 C2477 1.561 1_455 S
C2475 C2478 1.526 . S
C2476 H2460 0.959 . S
C2476 H2461 0.959 . S
C2476 H2462 0.961 . S
C2476 C2475 1.502 . S
C2477 H2463 0.960 . S
C2477 H2464 0.961 . S
C2477 H2465 0.959 . S
C2477 C2475 1.561 1_655 S
C2478 C2475 1.526 . S
C2478 C2479 1.396 . S
C2478 C2483 1.390 . S
C2479 C2473 1.465 . S
C2479 C2478 1.396 . S
C2479 C2480 1.399 . S
C2480 H2466 0.929 . S
C2480 C2479 1.399 . S
C2480 C2481 1.385 . S
C2481 H2467 0.931 . S
C2481 C2480 1.385 . S
C2481 C2482 1.389 . S
C2482 C2481 1.389 . S
C2482 C2483 1.387 . S
C2483 H2468 0.930 . S
C2483 C2478 1.390 . S
C2483 C2482 1.387 . S
H2484 C2496 0.930 . S
H2485 C2498 0.930 . S
H2486 C2499 0.930 . S
H2487 C2503 0.959 . S
H2488 C2503 0.959 . S
H2489 C2503 0.961 . S
H2490 C2504 0.960 . S
H2491 C2504 0.961 . S
H2492 C2504 0.959 . S
H2493 C2507 0.929 . S
H2494 C2508 0.931 . S
H2495 C2510 0.930 . S
C2496 H2484 0.930 . S
C2496 C2497 1.399 . S
C2496 C2501 1.399 . S
C2497 C2496 1.399 . S
C2497 C2498 1.376 . S
C2498 H2485 0.930 . S
C2498 C2497 1.376 . S
C2498 C2499 1.388 . S
C2499 H2486 0.930 . S
C2499 C2498 1.388 . S
C2499 C2500 1.390 . S
C2500 C2499 1.390 . S
C2500 C2501 1.394 . S
C2500 C2506 1.465 . S
C2501 C2496 1.399 . S
C2501 C2500 1.394 . S
C2501 C2502 1.516 . S
C2502 C2501 1.516 . S
C2502 C2503 1.502 . S
C2502 C2504 1.561 . S
C2502 C2505 1.526 . S
C2503 H2487 0.959 . S
C2503 H2488 0.959 . S
C2503 H2489 0.961 . S
C2503 C2502 1.502 . S
C2504 H2490 0.960 . S
C2504 H2491 0.961 . S
C2504 H2492 0.959 . S
C2504 C2502 1.561 . S
C2505 C2502 1.526 . S
C2505 C2506 1.396 . S
C2505 C2510 1.390 . S
C2506 C2500 1.465 . S
C2506 C2505 1.396 . S
C2506 C2507 1.399 . S
C2507 H2493 0.929 . S
C2507 C2506 1.399 . S
C2507 C2508 1.385 . S
C2508 H2494 0.931 . S
C2508 C2507 1.385 . S
C2508 C2509 1.389 . S
C2509 C2508 1.389 . S
C2509 C2510 1.387 . S
C2510 H2495 0.930 . S
C2510 C2505 1.390 . S
C2510 C2509 1.387 . S
H2511 C2523 0.930 . S
H2512 C2525 0.930 . S
H2513 C2526 0.930 . S
H2514 C2530 0.959 . S
H2515 C2530 0.959 . S
H2516 C2530 0.961 . S
H2517 C2531 0.960 . S
H2518 C2531 0.961 . S
H2519 C2531 0.959 . S
H2520 C2534 0.929 . S
H2521 C2535 0.931 . S
H2522 C2537 0.930 1_455 S
C2523 H2511 0.930 . S
C2523 C2524 1.399 . S
C2523 C2528 1.399 . S
C2524 C2523 1.399 . S
C2524 C2525 1.376 . S
C2525 H2512 0.930 . S
C2525 C2524 1.376 . S
C2525 C2526 1.388 . S
C2526 H2513 0.930 . S
C2526 C2525 1.388 . S
C2526 C2527 1.390 . S
C2527 C2526 1.390 . S
C2527 C2528 1.394 . S
C2527 C2533 1.465 . S
C2528 C2523 1.399 . S
C2528 C2527 1.394 . S
C2528 C2529 1.516 . S
C2529 C2528 1.516 . S
C2529 C2530 1.502 1_655 S
C2529 C2531 1.561 . S
C2529 C2532 1.526 . S
C2530 H2514 0.959 . S
C2530 H2515 0.959 . S
C2530 H2516 0.961 . S
C2530 C2529 1.502 1_455 S
C2531 H2517 0.960 . S
C2531 H2518 0.961 . S
C2531 H2519 0.959 . S
C2531 C2529 1.561 . S
C2532 C2529 1.526 . S
C2532 C2533 1.396 . S
C2532 C2537 1.390 . S
C2533 C2527 1.465 . S
C2533 C2532 1.396 . S
C2533 C2534 1.399 . S
C2534 H2520 0.929 . S
C2534 C2533 1.399 . S
C2534 C2535 1.385 . S
C2535 H2521 0.931 . S
C2535 C2534 1.385 . S
C2535 C2536 1.389 . S
C2536 C2535 1.389 . S
C2536 C2537 1.387 . S
C2537 H2522 0.930 1_655 S
C2537 C2532 1.390 . S
C2537 C2536 1.387 . S
H2538 C2550 0.930 . S
H2539 C2552 0.930 . S
H2540 C2553 0.930 . S
H2541 C2557 0.959 . S
H2542 C2557 0.959 . S
H2543 C2557 0.961 . S
H2544 C2558 0.960 . S
H2545 C2558 0.961 . S
H2546 C2558 0.959 . S
H2547 C2561 0.929 . S
H2548 C2562 0.931 . S
H2549 C2564 0.930 . S
C2550 H2538 0.930 . S
C2550 C2551 1.399 . S
C2550 C2555 1.399 . S
C2551 C2550 1.399 . S
C2551 C2552 1.376 . S
C2552 H2539 0.930 . S
C2552 C2551 1.376 . S
C2552 C2553 1.388 . S
C2553 H2540 0.930 . S
C2553 C2552 1.388 . S
C2553 C2554 1.390 . S
C2554 C2553 1.390 . S
C2554 C2555 1.394 . S
C2554 C2560 1.465 . S
C2555 C2550 1.399 . S
C2555 C2554 1.394 . S
C2555 C2556 1.516 . S
C2556 C2555 1.516 . S
C2556 C2557 1.502 . S
C2556 C2558 1.561 . S
C2556 C2559 1.526 . S
C2557 H2541 0.959 . S
C2557 H2542 0.959 . S
C2557 H2543 0.961 . S
C2557 C2556 1.502 . S
C2558 H2544 0.960 . S
C2558 H2545 0.961 . S
C2558 H2546 0.959 . S
C2558 C2556 1.561 . S
C2559 C2556 1.526 . S
C2559 C2560 1.396 . S
C2559 C2564 1.390 . S
C2560 C2554 1.465 . S
C2560 C2559 1.396 . S
C2560 C2561 1.399 . S
C2561 H2547 0.929 . S
C2561 C2560 1.399 . S
C2561 C2562 1.385 . S
C2562 H2548 0.931 . S
C2562 C2561 1.385 . S
C2562 C2563 1.389 . S
C2563 C2562 1.389 . S
C2563 C2564 1.387 . S
C2564 H2549 0.930 . S
C2564 C2559 1.390 . S
C2564 C2563 1.387 . S
H2565 C2577 0.930 . S
H2566 C2579 0.930 . S
H2567 C2580 0.930 . S
H2568 C2584 0.959 . S
H2569 C2584 0.959 . S
H2570 C2584 0.961 . S
H2571 C2585 0.960 . S
H2572 C2585 0.961 . S
H2573 C2585 0.959 . S
H2574 C2588 0.929 . S
H2575 C2589 0.931 . S
H2576 C2591 0.930 . S
C2577 H2565 0.930 . S
C2577 C2578 1.399 . S
C2577 C2582 1.399 . S
C2578 C2577 1.399 . S
C2578 C2579 1.376 . S
C2579 H2566 0.930 . S
C2579 C2578 1.376 . S
C2579 C2580 1.388 . S
C2580 H2567 0.930 . S
C2580 C2579 1.388 . S
C2580 C2581 1.390 . S
C2581 C2580 1.390 . S
C2581 C2582 1.394 . S
C2581 C2587 1.465 . S
C2582 C2577 1.399 . S
C2582 C2581 1.394 . S
C2582 C2583 1.516 . S
C2583 C2582 1.516 . S
C2583 C2584 1.502 . S
C2583 C2585 1.561 . S
C2583 C2586 1.526 . S
C2584 H2568 0.959 . S
C2584 H2569 0.959 . S
C2584 H2570 0.961 . S
C2584 C2583 1.502 . S
C2585 H2571 0.960 . S
C2585 H2572 0.961 . S
C2585 H2573 0.959 . S
C2585 C2583 1.561 . S
C2586 C2583 1.526 . S
C2586 C2587 1.396 . S
C2586 C2591 1.390 . S
C2587 C2581 1.465 . S
C2587 C2586 1.396 . S
C2587 C2588 1.399 . S
C2588 H2574 0.929 . S
C2588 C2587 1.399 . S
C2588 C2589 1.385 . S
C2589 H2575 0.931 . S
C2589 C2588 1.385 . S
C2589 C2590 1.389 . S
C2590 C2589 1.389 . S
C2590 C2591 1.387 . S
C2591 H2576 0.930 . S
C2591 C2586 1.390 . S
C2591 C2590 1.387 . S
H2592 C2604 0.930 . S
H2593 C2606 0.930 . S
H2594 C2607 0.930 . S
H2595 C2611 0.959 . S
H2596 C2611 0.959 . S
H2597 C2611 0.961 . S
H2598 C2612 0.960 . S
H2599 C2612 0.961 . S
H2600 C2612 0.959 . S
H2601 C2615 0.929 . S
H2602 C2616 0.931 . S
H2603 C2618 0.930 . S
C2604 H2592 0.930 . S
C2604 C2605 1.399 . S
C2604 C2609 1.399 . S
C2605 C2604 1.399 . S
C2605 C2606 1.376 . S
C2606 H2593 0.930 . S
C2606 C2605 1.376 . S
C2606 C2607 1.388 . S
C2607 H2594 0.930 . S
C2607 C2606 1.388 . S
C2607 C2608 1.390 . S
C2608 C2607 1.390 . S
C2608 C2609 1.394 . S
C2608 C2614 1.465 . S
C2609 C2604 1.399 . S
C2609 C2608 1.394 . S
C2609 C2610 1.516 . S
C2610 C2609 1.516 . S
C2610 C2611 1.502 . S
C2610 C2612 1.561 . S
C2610 C2613 1.526 . S
C2611 H2595 0.959 . S
C2611 H2596 0.959 . S
C2611 H2597 0.961 . S
C2611 C2610 1.502 . S
C2612 H2598 0.960 . S
C2612 H2599 0.961 . S
C2612 H2600 0.959 . S
C2612 C2610 1.561 . S
C2613 C2610 1.526 . S
C2613 C2614 1.396 . S
C2613 C2618 1.390 . S
C2614 C2608 1.465 . S
C2614 C2613 1.396 . S
C2614 C2615 1.399 . S
C2615 H2601 0.929 . S
C2615 C2614 1.399 . S
C2615 C2616 1.385 . S
C2616 H2602 0.931 . S
C2616 C2615 1.385 . S
C2616 C2617 1.389 . S
C2617 C2616 1.389 . S
C2617 C2618 1.387 . S
C2618 H2603 0.930 . S
C2618 C2613 1.390 . S
C2618 C2617 1.387 . S
H2619 C2631 0.930 . S
H2620 C2633 0.930 . S
H2621 C2634 0.930 . S
H2622 C2638 0.959 . S
H2623 C2638 0.959 . S
H2624 C2638 0.961 . S
H2625 C2639 0.960 . S
H2626 C2639 0.961 . S
H2627 C2639 0.959 . S
H2628 C2642 0.929 . S
H2629 C2643 0.931 . S
H2630 C2645 0.930 . S
C2631 H2619 0.930 . S
C2631 C2632 1.399 . S
C2631 C2636 1.399 . S
C2632 C2631 1.399 . S
C2632 C2633 1.376 . S
C2633 H2620 0.930 . S
C2633 C2632 1.376 . S
C2633 C2634 1.388 . S
C2634 H2621 0.930 . S
C2634 C2633 1.388 . S
C2634 C2635 1.390 . S
C2635 C2634 1.390 . S
C2635 C2636 1.394 . S
C2635 C2641 1.465 . S
C2636 C2631 1.399 . S
C2636 C2635 1.394 . S
C2636 C2637 1.516 . S
C2637 C2636 1.516 . S
C2637 C2638 1.502 . S
C2637 C2639 1.561 . S
C2637 C2640 1.526 . S
C2638 H2622 0.959 . S
C2638 H2623 0.959 . S
C2638 H2624 0.961 . S
C2638 C2637 1.502 . S
C2639 H2625 0.960 . S
C2639 H2626 0.961 . S
C2639 H2627 0.959 . S
C2639 C2637 1.561 . S
C2640 C2637 1.526 . S
C2640 C2641 1.396 . S
C2640 C2645 1.390 . S
C2641 C2635 1.465 . S
C2641 C2640 1.396 . S
C2641 C2642 1.399 . S
C2642 H2628 0.929 . S
C2642 C2641 1.399 . S
C2642 C2643 1.385 . S
C2643 H2629 0.931 . S
C2643 C2642 1.385 . S
C2643 C2644 1.389 . S
C2644 C2643 1.389 . S
C2644 C2645 1.387 . S
C2645 H2630 0.930 . S
C2645 C2640 1.390 . S
C2645 C2644 1.387 . S
H2646 C2658 0.930 . S
H2647 C2660 0.930 . S
H2648 C2661 0.930 . S
H2649 C2665 0.959 . S
H2650 C2665 0.959 . S
H2651 C2665 0.961 . S
H2652 C2666 0.960 . S
H2653 C2666 0.961 . S
H2654 C2666 0.959 . S
H2655 C2669 0.929 . S
H2656 C2670 0.931 . S
H2657 C2672 0.930 . S
C2658 H2646 0.930 . S
C2658 C2659 1.399 . S
C2658 C2663 1.399 . S
C2659 C2658 1.399 . S
C2659 C2660 1.376 . S
C2660 H2647 0.930 . S
C2660 C2659 1.376 . S
C2660 C2661 1.388 . S
C2661 H2648 0.930 . S
C2661 C2660 1.388 . S
C2661 C2662 1.390 . S
C2662 C2661 1.390 . S
C2662 C2663 1.394 . S
C2662 C2668 1.465 . S
C2663 C2658 1.399 . S
C2663 C2662 1.394 . S
C2663 C2664 1.516 . S
C2664 C2663 1.516 . S
C2664 C2665 1.502 . S
C2664 C2666 1.561 . S
C2664 C2667 1.526 . S
C2665 H2649 0.959 . S
C2665 H2650 0.959 . S
C2665 H2651 0.961 . S
C2665 C2664 1.502 . S
C2666 H2652 0.960 . S
C2666 H2653 0.961 . S
C2666 H2654 0.959 . S
C2666 C2664 1.561 . S
C2667 C2664 1.526 . S
C2667 C2668 1.396 . S
C2667 C2672 1.390 . S
C2668 C2662 1.465 . S
C2668 C2667 1.396 . S
C2668 C2669 1.399 . S
C2669 H2655 0.929 . S
C2669 C2668 1.399 . S
C2669 C2670 1.385 . S
C2670 H2656 0.931 . S
C2670 C2669 1.385 . S
C2670 C2671 1.389 . S
C2671 C2670 1.389 . S
C2671 C2672 1.387 . S
C2672 H2657 0.930 . S
C2672 C2667 1.390 . S
C2672 C2671 1.387 . S
H2673 C2685 0.930 . S
H2674 C2687 0.930 . S
H2675 C2688 0.930 . S
H2676 C2692 0.959 . S
H2677 C2692 0.959 . S
H2678 C2692 0.961 . S
H2679 C2693 0.960 . S
H2680 C2693 0.961 . S
H2681 C2693 0.959 . S
H2682 C2696 0.929 . S
H2683 C2697 0.931 . S
H2684 C2699 0.930 . S
C2685 H2673 0.930 . S
C2685 C2686 1.399 . S
C2685 C2690 1.399 . S
C2686 C2685 1.399 . S
C2686 C2687 1.376 . S
C2687 H2674 0.930 . S
C2687 C2686 1.376 . S
C2687 C2688 1.388 . S
C2688 H2675 0.930 . S
C2688 C2687 1.388 . S
C2688 C2689 1.390 . S
C2689 C2688 1.390 . S
C2689 C2690 1.394 . S
C2689 C2695 1.465 . S
C2690 C2685 1.399 . S
C2690 C2689 1.394 . S
C2690 C2691 1.516 . S
C2691 C2690 1.516 . S
C2691 C2692 1.502 . S
C2691 C2693 1.561 . S
C2691 C2694 1.526 . S
C2692 H2676 0.959 . S
C2692 H2677 0.959 . S
C2692 H2678 0.961 . S
C2692 C2691 1.502 . S
C2693 H2679 0.960 . S
C2693 H2680 0.961 . S
C2693 H2681 0.959 . S
C2693 C2691 1.561 . S
C2694 C2691 1.526 . S
C2694 C2695 1.396 . S
C2694 C2699 1.390 . S
C2695 C2689 1.465 . S
C2695 C2694 1.396 . S
C2695 C2696 1.399 . S
C2696 H2682 0.929 . S
C2696 C2695 1.399 . S
C2696 C2697 1.385 . S
C2697 H2683 0.931 . S
C2697 C2696 1.385 . S
C2697 C2698 1.389 . S
C2698 C2697 1.389 . S
C2698 C2699 1.387 . S
C2699 H2684 0.930 . S
C2699 C2694 1.390 . S
C2699 C2698 1.387 . S
H2700 C2712 0.930 . S
H2701 C2714 0.930 . S
H2702 C2715 0.930 . S
H2703 C2719 0.959 . S
H2704 C2719 0.959 . S
H2705 C2719 0.961 . S
H2706 C2720 0.960 . S
H2707 C2720 0.961 . S
H2708 C2720 0.959 . S
H2709 C2723 0.929 . S
H2710 C2724 0.931 . S
H2711 C2726 0.930 . S
C2712 H2700 0.930 . S
C2712 C2713 1.399 . S
C2712 C2717 1.399 . S
C2713 C2712 1.399 . S
C2713 C2714 1.376 . S
C2714 H2701 0.930 . S
C2714 C2713 1.376 . S
C2714 C2715 1.388 . S
C2715 H2702 0.930 . S
C2715 C2714 1.388 . S
C2715 C2716 1.390 . S
C2716 C2715 1.390 . S
C2716 C2717 1.394 . S
C2716 C2722 1.465 . S
C2717 C2712 1.399 . S
C2717 C2716 1.394 . S
C2717 C2718 1.516 . S
C2718 C2717 1.516 . S
C2718 C2719 1.502 . S
C2718 C2720 1.561 . S
C2718 C2721 1.526 . S
C2719 H2703 0.959 . S
C2719 H2704 0.959 . S
C2719 H2705 0.961 . S
C2719 C2718 1.502 . S
C2720 H2706 0.960 . S
C2720 H2707 0.961 . S
C2720 H2708 0.959 . S
C2720 C2718 1.561 . S
C2721 C2718 1.526 . S
C2721 C2722 1.396 . S
C2721 C2726 1.390 . S
C2722 C2716 1.465 . S
C2722 C2721 1.396 . S
C2722 C2723 1.399 . S
C2723 H2709 0.929 . S
C2723 C2722 1.399 . S
C2723 C2724 1.385 . S
C2724 H2710 0.931 . S
C2724 C2723 1.385 . S
C2724 C2725 1.389 . S
C2725 C2724 1.389 . S
C2725 C2726 1.387 . S
C2726 H2711 0.930 . S
C2726 C2721 1.390 . S
C2726 C2725 1.387 . S
H2727 C2739 0.930 . S
H2728 C2741 0.930 . S
H2729 C2742 0.930 . S
H2730 C2746 0.959 . S
H2731 C2746 0.959 . S
H2732 C2746 0.961 . S
H2733 C2747 0.960 . S
H2734 C2747 0.961 . S
H2735 C2747 0.959 . S
H2736 C2750 0.929 . S
H2737 C2751 0.931 . S
H2738 C2753 0.930 . S
C2739 H2727 0.930 . S
C2739 C2740 1.399 . S
C2739 C2744 1.399 . S
C2740 C2739 1.399 . S
C2740 C2741 1.376 . S
C2741 H2728 0.930 . S
C2741 C2740 1.376 . S
C2741 C2742 1.388 . S
C2742 H2729 0.930 . S
C2742 C2741 1.388 . S
C2742 C2743 1.390 . S
C2743 C2742 1.390 . S
C2743 C2744 1.394 . S
C2743 C2749 1.465 . S
C2744 C2739 1.399 . S
C2744 C2743 1.394 . S
C2744 C2745 1.516 . S
C2745 C2744 1.516 . S
C2745 C2746 1.502 . S
C2745 C2747 1.561 . S
C2745 C2748 1.526 . S
C2746 H2730 0.959 . S
C2746 H2731 0.959 . S
C2746 H2732 0.961 . S
C2746 C2745 1.502 . S
C2747 H2733 0.960 . S
C2747 H2734 0.961 . S
C2747 H2735 0.959 . S
C2747 C2745 1.561 . S
C2748 C2745 1.526 . S
C2748 C2749 1.396 . S
C2748 C2753 1.390 . S
C2749 C2743 1.465 . S
C2749 C2748 1.396 . S
C2749 C2750 1.399 . S
C2750 H2736 0.929 . S
C2750 C2749 1.399 . S
C2750 C2751 1.385 . S
C2751 H2737 0.931 . S
C2751 C2750 1.385 . S
C2751 C2752 1.389 . S
C2752 C2751 1.389 . S
C2752 C2753 1.387 . S
C2753 H2738 0.930 . S
C2753 C2748 1.390 . S
C2753 C2752 1.387 . S
H2754 C2766 0.930 . S
H2755 C2768 0.930 . S
H2756 C2769 0.930 . S
H2757 C2773 0.959 . S
H2758 C2773 0.959 . S
H2759 C2773 0.961 . S
H2760 C2774 0.960 . S
H2761 C2774 0.961 . S
H2762 C2774 0.959 . S
H2763 C2777 0.929 . S
H2764 C2778 0.931 . S
H2765 C2780 0.930 . S
C2766 H2754 0.930 . S
C2766 C2767 1.399 . S
C2766 C2771 1.399 . S
C2767 C2766 1.399 . S
C2767 C2768 1.376 . S
C2768 H2755 0.930 . S
C2768 C2767 1.376 . S
C2768 C2769 1.388 . S
C2769 H2756 0.930 . S
C2769 C2768 1.388 . S
C2769 C2770 1.390 . S
C2770 C2769 1.390 . S
C2770 C2771 1.394 . S
C2770 C2776 1.465 . S
C2771 C2766 1.399 . S
C2771 C2770 1.394 . S
C2771 C2772 1.516 . S
C2772 C2771 1.516 . S
C2772 C2773 1.502 . S
C2772 C2774 1.561 . S
C2772 C2775 1.526 . S
C2773 H2757 0.959 . S
C2773 H2758 0.959 . S
C2773 H2759 0.961 . S
C2773 C2772 1.502 . S
C2774 H2760 0.960 . S
C2774 H2761 0.961 . S
C2774 H2762 0.959 . S
C2774 C2772 1.561 . S
C2775 C2772 1.526 . S
C2775 C2776 1.396 . S
C2775 C2780 1.390 . S
C2776 C2770 1.465 . S
C2776 C2775 1.396 . S
C2776 C2777 1.399 . S
C2777 H2763 0.929 . S
C2777 C2776 1.399 . S
C2777 C2778 1.385 . S
C2778 H2764 0.931 . S
C2778 C2777 1.385 . S
C2778 C2779 1.389 . S
C2779 C2778 1.389 . S
C2779 C2780 1.387 . S
C2780 H2765 0.930 . S
C2780 C2775 1.390 . S
C2780 C2779 1.387 . S
H2781 C2793 0.930 . S
H2782 C2795 0.930 . S
H2783 C2796 0.930 . S
H2784 C2800 0.959 . S
H2785 C2800 0.959 . S
H2786 C2800 0.961 . S
H2787 C2801 0.960 . S
H2788 C2801 0.961 . S
H2789 C2801 0.959 . S
H2790 C2804 0.929 . S
H2791 C2805 0.931 . S
H2792 C2807 0.930 . S
C2793 H2781 0.930 . S
C2793 C2794 1.399 . S
C2793 C2798 1.399 . S
C2794 C2793 1.399 . S
C2794 C2795 1.376 . S
C2795 H2782 0.930 . S
C2795 C2794 1.376 . S
C2795 C2796 1.388 . S
C2796 H2783 0.930 . S
C2796 C2795 1.388 . S
C2796 C2797 1.390 . S
C2797 C2796 1.390 . S
C2797 C2798 1.394 . S
C2797 C2803 1.465 . S
C2798 C2793 1.399 . S
C2798 C2797 1.394 . S
C2798 C2799 1.516 . S
C2799 C2798 1.516 . S
C2799 C2800 1.502 . S
C2799 C2801 1.561 . S
C2799 C2802 1.526 . S
C2800 H2784 0.959 . S
C2800 H2785 0.959 . S
C2800 H2786 0.961 . S
C2800 C2799 1.502 . S
C2801 H2787 0.960 . S
C2801 H2788 0.961 . S
C2801 H2789 0.959 . S
C2801 C2799 1.561 . S
C2802 C2799 1.526 . S
C2802 C2803 1.396 . S
C2802 C2807 1.390 . S
C2803 C2797 1.465 . S
C2803 C2802 1.396 . S
C2803 C2804 1.399 . S
C2804 H2790 0.929 . S
C2804 C2803 1.399 . S
C2804 C2805 1.385 . S
C2805 H2791 0.931 . S
C2805 C2804 1.385 . S
C2805 C2806 1.389 . S
C2806 C2805 1.389 . S
C2806 C2807 1.387 . S
C2807 H2792 0.930 . S
C2807 C2802 1.390 . S
C2807 C2806 1.387 . S
H2808 C2820 0.930 . S
H2809 C2822 0.930 . S
H2810 C2823 0.930 . S
H2811 C2827 0.959 . S
H2812 C2827 0.959 . S
H2813 C2827 0.961 . S
H2814 C2828 0.960 . S
H2815 C2828 0.961 . S
H2816 C2828 0.959 . S
H2817 C2831 0.929 . S
H2818 C2832 0.931 . S
H2819 C2834 0.930 . S
C2820 H2808 0.930 . S
C2820 C2821 1.399 . S
C2820 C2825 1.399 . S
C2821 C2820 1.399 . S
C2821 C2822 1.376 . S
C2822 H2809 0.930 . S
C2822 C2821 1.376 . S
C2822 C2823 1.388 . S
C2823 H2810 0.930 . S
C2823 C2822 1.388 . S
C2823 C2824 1.390 . S
C2824 C2823 1.390 . S
C2824 C2825 1.394 . S
C2824 C2830 1.465 . S
C2825 C2820 1.399 . S
C2825 C2824 1.394 . S
C2825 C2826 1.516 . S
C2826 C2825 1.516 . S
C2826 C2827 1.502 . S
C2826 C2828 1.561 . S
C2826 C2829 1.526 . S
C2827 H2811 0.959 . S
C2827 H2812 0.959 . S
C2827 H2813 0.961 . S
C2827 C2826 1.502 . S
C2828 H2814 0.960 . S
C2828 H2815 0.961 . S
C2828 H2816 0.959 . S
C2828 C2826 1.561 . S
C2829 C2826 1.526 . S
C2829 C2830 1.396 . S
C2829 C2834 1.390 . S
C2830 C2824 1.465 . S
C2830 C2829 1.396 . S
C2830 C2831 1.399 . S
C2831 H2817 0.929 . S
C2831 C2830 1.399 . S
C2831 C2832 1.385 . S
C2832 H2818 0.931 . S
C2832 C2831 1.385 . S
C2832 C2833 1.389 . S
C2833 C2832 1.389 . S
C2833 C2834 1.387 . S
C2834 H2819 0.930 . S
C2834 C2829 1.390 . S
C2834 C2833 1.387 . S
H2835 C2847 0.930 . S
H2836 C2849 0.930 . S
H2837 C2850 0.930 . S
H2838 C2854 0.959 . S
H2839 C2854 0.959 . S
H2840 C2854 0.961 . S
H2841 C2855 0.960 . S
H2842 C2855 0.961 . S
H2843 C2855 0.959 . S
H2844 C2858 0.929 . S
H2845 C2859 0.931 . S
H2846 C2861 0.930 . S
C2847 H2835 0.930 . S
C2847 C2848 1.399 . S
C2847 C2852 1.399 . S
C2848 C2847 1.399 . S
C2848 C2849 1.376 . S
C2849 H2836 0.930 . S
C2849 C2848 1.376 . S
C2849 C2850 1.388 . S
C2850 H2837 0.930 . S
C2850 C2849 1.388 . S
C2850 C2851 1.390 . S
C2851 C2850 1.390 . S
C2851 C2852 1.394 . S
C2851 C2857 1.465 . S
C2852 C2847 1.399 . S
C2852 C2851 1.394 . S
C2852 C2853 1.516 . S
C2853 C2852 1.516 . S
C2853 C2854 1.502 . S
C2853 C2855 1.561 . S
C2853 C2856 1.526 . S
C2854 H2838 0.959 . S
C2854 H2839 0.959 . S
C2854 H2840 0.961 . S
C2854 C2853 1.502 . S
C2855 H2841 0.960 . S
C2855 H2842 0.961 . S
C2855 H2843 0.959 . S
C2855 C2853 1.561 . S
C2856 C2853 1.526 . S
C2856 C2857 1.396 . S
C2856 C2861 1.390 . S
C2857 C2851 1.465 . S
C2857 C2856 1.396 . S
C2857 C2858 1.399 . S
C2858 H2844 0.929 . S
C2858 C2857 1.399 . S
C2858 C2859 1.385 . S
C2859 H2845 0.931 . S
C2859 C2858 1.385 . S
C2859 C2860 1.389 . S
C2860 C2859 1.389 . S
C2860 C2861 1.387 . S
C2861 H2846 0.930 . S
C2861 C2856 1.390 . S
C2861 C2860 1.387 . S
H2862 C2874 0.930 . S
H2863 C2876 0.930 . S
H2864 C2877 0.930 . S
H2865 C2881 0.959 . S
H2866 C2881 0.959 . S
H2867 C2881 0.961 . S
H2868 C2882 0.960 . S
H2869 C2882 0.961 . S
H2870 C2882 0.959 . S
H2871 C2885 0.929 . S
H2872 C2886 0.931 . S
H2873 C2888 0.930 . S
C2874 H2862 0.930 . S
C2874 C2875 1.399 . S
C2874 C2879 1.399 . S
C2875 C2874 1.399 . S
C2875 C2876 1.376 . S
C2876 H2863 0.930 . S
C2876 C2875 1.376 . S
C2876 C2877 1.388 . S
C2877 H2864 0.930 . S
C2877 C2876 1.388 . S
C2877 C2878 1.390 . S
C2878 C2877 1.390 . S
C2878 C2879 1.394 . S
C2878 C2884 1.465 . S
C2879 C2874 1.399 . S
C2879 C2878 1.394 . S
C2879 C2880 1.516 . S
C2880 C2879 1.516 . S
C2880 C2881 1.502 . S
C2880 C2882 1.561 . S
C2880 C2883 1.526 . S
C2881 H2865 0.959 . S
C2881 H2866 0.959 . S
C2881 H2867 0.961 . S
C2881 C2880 1.502 . S
C2882 H2868 0.960 . S
C2882 H2869 0.961 . S
C2882 H2870 0.959 . S
C2882 C2880 1.561 . S
C2883 C2880 1.526 . S
C2883 C2884 1.396 . S
C2883 C2888 1.390 . S
C2884 C2878 1.465 . S
C2884 C2883 1.396 . S
C2884 C2885 1.399 . S
C2885 H2871 0.929 . S
C2885 C2884 1.399 . S
C2885 C2886 1.385 . S
C2886 H2872 0.931 . S
C2886 C2885 1.385 . S
C2886 C2887 1.389 . S
C2887 C2886 1.389 . S
C2887 C2888 1.387 . S
C2888 H2873 0.930 . S
C2888 C2883 1.390 . S
C2888 C2887 1.387 . S
H2889 C2901 0.930 . S
H2890 C2903 0.930 . S
H2891 C2904 0.930 . S
H2892 C2908 0.959 . S
H2893 C2908 0.959 . S
H2894 C2908 0.961 . S
H2895 C2909 0.960 . S
H2896 C2909 0.961 . S
H2897 C2909 0.959 . S
H2898 C2912 0.929 . S
H2899 C2913 0.931 . S
H2900 C2915 0.930 . S
C2901 H2889 0.930 . S
C2901 C2902 1.399 . S
C2901 C2906 1.399 . S
C2902 C2901 1.399 . S
C2902 C2903 1.376 . S
C2903 H2890 0.930 . S
C2903 C2902 1.376 . S
C2903 C2904 1.388 . S
C2904 H2891 0.930 . S
C2904 C2903 1.388 . S
C2904 C2905 1.390 . S
C2905 C2904 1.390 . S
C2905 C2906 1.394 . S
C2905 C2911 1.465 . S
C2906 C2901 1.399 . S
C2906 C2905 1.394 . S
C2906 C2907 1.516 . S
C2907 C2906 1.516 . S
C2907 C2908 1.502 . S
C2907 C2909 1.561 . S
C2907 C2910 1.526 . S
C2908 H2892 0.959 . S
C2908 H2893 0.959 . S
C2908 H2894 0.961 . S
C2908 C2907 1.502 . S
C2909 H2895 0.960 . S
C2909 H2896 0.961 . S
C2909 H2897 0.959 . S
C2909 C2907 1.561 . S
C2910 C2907 1.526 . S
C2910 C2911 1.396 . S
C2910 C2915 1.390 . S
C2911 C2905 1.465 . S
C2911 C2910 1.396 . S
C2911 C2912 1.399 . S
C2912 H2898 0.929 . S
C2912 C2911 1.399 . S
C2912 C2913 1.385 . S
C2913 H2899 0.931 . S
C2913 C2912 1.385 . S
C2913 C2914 1.389 . S
C2914 C2913 1.389 . S
C2914 C2915 1.387 . S
C2915 H2900 0.930 . S
C2915 C2910 1.390 . S
C2915 C2914 1.387 . S
C1471 C528 1.422 . S
C1483 C769 1.291 . S
C1498 C562 1.488 . S
C1510 C853 1.439 . S
C1525 C484 1.452 . S
C1537 C933 1.464 . S
C1552 C445 1.426 . S
C1564 C849 1.382 . S
C1591 C937 1.299 . S
C1579 C367 1.428 . S
C1606 C411 1.383 . S
C1618 C765 1.359 . S
C1645 C758 1.380 . S
C1633 C450 1.446 . S
C1672 C842 1.440 . S
C1660 C372 1.470 . S
C1687 C406 1.485 . S
C1699 C944 1.388 . S
C1714 C523 1.407 . S
C1726 C860 1.418 . S
C1741 C567 1.399 . S
C1753 C926 1.378 . S
C1780 C776 1.403 . S
C1768 C489 1.382 . S
C1807 C1021 1.349 . S
C1795 C60 1.425 . S
C1822 C94 1.480 . S
C1834 C1105 1.373 . S
C1849 C16 1.468 . S
C1861 C1185 1.425 . S
C1876 C679 1.422 . S
C1888 C1101 1.390 . S
C1903 C601 1.413 . S
C1915 C1189 1.389 . S
C1930 C645 1.395 . S
C1942 C1017 1.335 . S
C1957 C684 1.447 . S
C1969 C1010 1.380 . S
C1984 C606 1.474 . S
C1996 C1094 1.370 . S
C2023 C1196 1.403 . S
C2011 C640 1.484 . S
C2038 C55 1.407 . S
C2050 C1112 1.413 . S
C2077 C1178 1.359 . S
C2065 C99 1.390 . S
C2092 C21 1.423 . S
C2104 C1028 1.325 . S
C2131 C1273 1.353 . S
C2119 C294 1.405 . S
C2146 C328 1.474 . S
C2158 C1357 1.409 . S
C2185 C1437 1.430 . S
C2173 C250 1.466 . S
C2212 C1353 1.347 . S
C2200 C211 1.437 . S
C2239 C1441 1.387 . S
C2227 C133 1.422 . S
C2254 C177 1.390 . S
C2266 C1269 1.348 . S
C2281 C216 1.442 . S
C2293 C1262 1.397 . S
C2308 C138 1.453 . S
C2320 C1346 1.414 . S
C2347 C1448 1.423 . S
C2335 C172 1.477 . S
C2362 C289 1.437 . S
C2374 C1364 1.356 . S
C2389 C333 1.413 . S
C2401 C1430 1.304 . S
C2416 C255 1.399 . S
C2428 C1280 1.354 . S
C2443 C586 1.457 . S
C2455 C772 1.304 . S
C2482 C856 1.376 . S
C2470 C625 1.494 . S
C2497 C664 1.468 . S
C2509 C928 1.393 . S
C2524 C235 1.496 . S
C2536 C844 1.418 . S
C2551 C274 1.455 . S
C2563 C940 1.299 . S
C2590 C760 1.329 . S
C2578 C313 1.458 . S
C2605 C118 1.454 . S
C2617 C1024 1.394 . S
C2632 C157 1.485 . S
C2644 C1108 1.357 . S
C2659 C196 1.467 . S
C2671 C1180 1.397 . S
C2686 C469 1.509 . S
C2698 C1096 1.303 . S
C2725 C1192 1.301 . S
C2713 C508 1.455 . S
C2740 C547 1.452 . S
C2752 C1012 1.333 . S
C2767 C352 1.457 . S
C2779 C1276 1.283 . S
C2794 C391 1.494 . S
C2806 C1360 1.386 . S
C2833 C1432 1.274 . S
C2821 C430 1.474 . S
C2848 C1 1.511 . S
C2860 C1348 1.294 . S
C2875 C40 1.459 . S
C2887 C1444 1.343 . S
C2902 C79 1.453 . S
C2914 C1264 1.290 . S
