# Generated by pormake.
# Topology pto, (3,4)-cn, num edge types: 1
# Building blocks:
#     Node 0, Type 0, BuildingBlock: BELTOD_clean_linker_0, # of connection points: 3
#     Node 1, Type 0, BuildingBlock: BELTOD_clean_linker_0, # of connection points: 3
#     Node 2, Type 0, BuildingBlock: BELTOD_clean_linker_0, # of connection points: 3
#     Node 3, Type 0, BuildingBlock: BELTOD_clean_linker_0, # of connection points: 3
#     Node 4, Type 0, BuildingBlock: BELTOD_clean_linker_0, # of connection points: 3
#     Node 5, Type 0, BuildingBlock: BELTOD_clean_linker_0, # of connection points: 3
#     Node 6, Type 0, BuildingBlock: BELTOD_clean_linker_0, # of connection points: 3
#     Node 7, Type 0, BuildingBlock: BELTOD_clean_linker_0, # of connection points: 3
#     Node 8, Type 1, BuildingBlock: NAWXER_clean_sbu_0, # of connection points: 4
#     Node 9, Type 1, BuildingBlock: NAWXER_clean_sbu_0, # of connection points: 4
#     Node 10, Type 1, BuildingBlock: NAWXER_clean_sbu_0, # of connection points: 4
#     Node 11, Type 1, BuildingBlock: NAWXER_clean_sbu_0, # of connection points: 4
#     Node 12, Type 1, BuildingBlock: NAWXER_clean_sbu_0, # of connection points: 4
#     Node 13, Type 1, BuildingBlock: NAWXER_clean_sbu_0, # of connection points: 4
#     Edge 14, Type (0, 1), BuildingBlock: AJUNOK_clean_linker_0, # of connection points: 2
#     Edge 15, Type (0, 1), BuildingBlock: AJUNOK_clean_linker_0, # of connection points: 2
#     Edge 16, Type (0, 1), BuildingBlock: AJUNOK_clean_linker_0, # of connection points: 2
#     Edge 17, Type (0, 1), BuildingBlock: AJUNOK_clean_linker_0, # of connection points: 2
#     Edge 18, Type (0, 1), BuildingBlock: AJUNOK_clean_linker_0, # of connection points: 2
#     Edge 19, Type (0, 1), BuildingBlock: AJUNOK_clean_linker_0, # of connection points: 2
#     Edge 20, Type (0, 1), BuildingBlock: AJUNOK_clean_linker_0, # of connection points: 2
#     Edge 21, Type (0, 1), BuildingBlock: AJUNOK_clean_linker_0, # of connection points: 2
#     Edge 22, Type (0, 1), BuildingBlock: AJUNOK_clean_linker_0, # of connection points: 2
#     Edge 23, Type (0, 1), BuildingBlock: AJUNOK_clean_linker_0, # of connection points: 2
#     Edge 24, Type (0, 1), BuildingBlock: AJUNOK_clean_linker_0, # of connection points: 2
#     Edge 25, Type (0, 1), BuildingBlock: AJUNOK_clean_linker_0, # of connection points: 2
#     Edge 26, Type (0, 1), BuildingBlock: AJUNOK_clean_linker_0, # of connection points: 2
#     Edge 27, Type (0, 1), BuildingBlock: AJUNOK_clean_linker_0, # of connection points: 2
#     Edge 28, Type (0, 1), BuildingBlock: AJUNOK_clean_linker_0, # of connection points: 2
#     Edge 29, Type (0, 1), BuildingBlock: AJUNOK_clean_linker_0, # of connection points: 2
#     Edge 30, Type (0, 1), BuildingBlock: AJUNOK_clean_linker_0, # of connection points: 2
#     Edge 31, Type (0, 1), BuildingBlock: AJUNOK_clean_linker_0, # of connection points: 2
#     Edge 32, Type (0, 1), BuildingBlock: AJUNOK_clean_linker_0, # of connection points: 2
#     Edge 33, Type (0, 1), BuildingBlock: AJUNOK_clean_linker_0, # of connection points: 2
#     Edge 34, Type (0, 1), BuildingBlock: AJUNOK_clean_linker_0, # of connection points: 2
#     Edge 35, Type (0, 1), BuildingBlock: AJUNOK_clean_linker_0, # of connection points: 2
#     Edge 36, Type (0, 1), BuildingBlock: AJUNOK_clean_linker_0, # of connection points: 2
#     Edge 37, Type (0, 1), BuildingBlock: AJUNOK_clean_linker_0, # of connection points: 2
# Relax obj value: 0.000
# Max RMSD: 0.007
# Mean RMSD: 0.005
data_MOF--net-pto--node1-NAWXER_clean_sbu_0--node2-BELTOD_clean_linker_0--edge1-AJUNOK_clean_linker_0
_symmetry_space_group_name_H-M    P1
_symmetry_Int_Tables_number       1
_symmetry_cell_setting            triclinic
loop_
_symmetry_equiv_pos_as_xyz
'x, y, z'
_cell_length_a     37.488871
_cell_length_b     35.506926
_cell_length_c     33.171138
_cell_angle_alpha  89.188562
_cell_angle_beta   91.560748
_cell_angle_gamma 92.037473
loop_
_atom_site_label
_atom_site_type_symbol
_atom_site_fract_x
_atom_site_fract_y
_atom_site_fract_z
_atom_type_partial_charge
P0 P 0.28936 0.33791 0.33304 0.0
H1 H 0.36633 0.35368 0.32767 0.0
H2 H 0.40729 0.35395 0.27156 0.0
H3 H 0.31919 0.32596 0.18971 0.0
H4 H 0.27797 0.32618 0.24613 0.0
H5 H 0.2824 0.4193 0.33135 0.0
H6 H 0.23072 0.45953 0.32326 0.0
H7 H 0.16182 0.36083 0.3058 0.0
H8 H 0.21339 0.32076 0.31327 0.0
H9 H 0.29431 0.26383 0.29349 0.0
H10 H 0.24992 0.3081 0.4009 0.0
O11 O 0.3114 0.35506 0.37355 0.0
H12 H 0.2736 0.20027 0.31326 0.0
H13 H 0.22988 0.24459 0.42123 0.0
C14 C 0.31905 0.33996 0.29105 0.0
C15 C 0.35563 0.34808 0.29763 0.0
C16 C 0.37906 0.34847 0.26551 0.0
C17 C 0.36635 0.34037 0.22626 0.0
C18 C 0.32962 0.33247 0.21967 0.0
C19 C 0.30611 0.33257 0.2518 0.0
C20 C 0.2517 0.36708 0.32345 0.0
C21 C 0.2562 0.40636 0.32553 0.0
C22 C 0.22675 0.42926 0.32096 0.0
C23 C 0.19237 0.41313 0.31428 0.0
C24 C 0.18802 0.37382 0.3115 0.0
C25 C 0.21753 0.35097 0.31564 0.0
C26 C 0.2739 0.29071 0.34594 0.0
C27 C 0.27994 0.26003 0.32116 0.0
C28 C 0.268 0.22367 0.33243 0.0
C29 C 0.24967 0.21747 0.36853 0.0
C30 C 0.24307 0.24849 0.39275 0.0
C31 C 0.255 0.28473 0.38147 0.0
P32 P 0.2809 0.70777 0.66718 0.0
H33 H 0.23246 0.67164 0.60889 0.0
H34 H 0.17556 0.63672 0.61479 0.0
H35 H 0.18377 0.64668 0.7445 0.0
H36 H 0.23913 0.68431 0.73793 0.0
H37 H 0.26879 0.74088 0.58746 0.0
H38 H 0.24632 0.80133 0.5642 0.0
H39 H 0.23517 0.83483 0.6877 0.0
H40 H 0.25771 0.77378 0.71098 0.0
H41 H 0.29845 0.65118 0.72936 0.0
H42 H 0.33076 0.76578 0.69995 0.0
O43 O 0.30403 0.6896 0.63031 0.0
H44 H 0.34081 0.65151 0.78673 0.0
H45 H 0.3743 0.76578 0.75607 0.0
C46 C 0.24077 0.67918 0.67308 0.0
C47 C 0.22218 0.66588 0.63863 0.0
C48 C 0.18972 0.64568 0.64207 0.0
C49 C 0.17547 0.63792 0.68019 0.0
C50 C 0.194 0.65197 0.71465 0.0
C51 C 0.22603 0.67298 0.71104 0.0
C52 C 0.26606 0.75339 0.65094 0.0
C53 C 0.26172 0.76124 0.60962 0.0
C54 C 0.24828 0.79556 0.59632 0.0
C55 C 0.23858 0.82259 0.62415 0.0
C56 C 0.24237 0.81442 0.66564 0.0
C57 C 0.25555 0.77981 0.67893 0.0
C58 C 0.31018 0.70906 0.71142 0.0
C59 C 0.31428 0.67664 0.73558 0.0
C60 C 0.33907 0.67659 0.76794 0.0
C61 C 0.36114 0.70862 0.77598 0.0
C62 C 0.35738 0.74081 0.75115 0.0
C63 C 0.33234 0.74092 0.71909 0.0
P64 P 0.7562 0.76641 0.23023 0.0
H65 H 0.7943 0.83428 0.25655 0.0
H66 H 0.78889 0.87544 0.31398 0.0
H67 H 0.70317 0.80341 0.35873 0.0
H68 H 0.70877 0.76178 0.30054 0.0
H69 H 0.81683 0.74213 0.18552 0.0
H70 H 0.86259 0.69654 0.19985 0.0
H71 H 0.81332 0.66704 0.31273 0.0
H72 H 0.76757 0.71378 0.29848 0.0
H73 H 0.6813 0.78732 0.23298 0.0
H74 H 0.74204 0.70191 0.17794 0.0
O75 O 0.77184 0.79473 0.19368 0.0
H76 H 0.62942 0.76909 0.19097 0.0
H77 H 0.69077 0.68498 0.13414 0.0
C78 C 0.75125 0.79558 0.27364 0.0
C79 C 0.77412 0.82734 0.27845 0.0
C80 C 0.77115 0.85077 0.31144 0.0
C81 C 0.74536 0.84285 0.34056 0.0
C82 C 0.72284 0.81051 0.33629 0.0
C83 C 0.72605 0.78676 0.30318 0.0
C84 C 0.78911 0.73173 0.24121 0.0
C85 C 0.81586 0.72612 0.2135 0.0
C86 C 0.84195 0.69986 0.22163 0.0
C87 C 0.84172 0.6784 0.25755 0.0
C88 C 0.81455 0.68367 0.28516 0.0
C89 C 0.78832 0.71014 0.27694 0.0
C90 C 0.7154 0.74534 0.20952 0.0
C91 C 0.68314 0.7636 0.21311 0.0
C92 C 0.65354 0.75343 0.18861 0.0
C93 C 0.65592 0.7256 0.15909 0.0
C94 C 0.68769 0.70591 0.15708 0.0
C95 C 0.71714 0.71572 0.18212 0.0
P96 P 0.74379 0.25665 0.78598 0.0
H97 H 0.66954 0.22812 0.78668 0.0
H98 H 0.61905 0.24593 0.82629 0.0
H99 H 0.68093 0.34193 0.8716 0.0
H100 H 0.73061 0.32507 0.83028 0.0
H101 H 0.78733 0.1982 0.75693 0.0
H102 H 0.78368 0.1582 0.69768 0.0
H103 H 0.68651 0.2107 0.65813 0.0
H104 H 0.69064 0.25167 0.71767 0.0
H105 H 0.81098 0.27895 0.82704 0.0
H106 H 0.74971 0.3145 0.72224 0.0
O107 O 0.75943 0.22945 0.82343 0.0
H108 H 0.85717 0.32677 0.81241 0.0
H109 H 0.79589 0.3634 0.7078 0.0
C110 C 0.70357 0.27583 0.80445 0.0
C111 C 0.67165 0.25407 0.80345 0.0
C112 C 0.64292 0.26406 0.82658 0.0
C113 C 0.64589 0.2954 0.85215 0.0
C114 C 0.67732 0.31818 0.8516 0.0
C115 C 0.70589 0.30843 0.82797 0.0
C116 C 0.73878 0.22719 0.74227 0.0
C117 C 0.76505 0.20104 0.73575 0.0
C118 C 0.76308 0.17834 0.70181 0.0
C119 C 0.73481 0.18143 0.67348 0.0
C120 C 0.7084 0.20769 0.67979 0.0
C121 C 0.71068 0.23093 0.71377 0.0
C122 C 0.77703 0.29305 0.77555 0.0
C123 C 0.80739 0.29711 0.80087 0.0
C124 C 0.83378 0.32458 0.79256 0.0
C125 C 0.8303 0.34865 0.75879 0.0
C126 C 0.79961 0.34479 0.73361 0.0
C127 C 0.77313 0.31714 0.74198 0.0
P128 P 0.82354 0.80461 0.8236 0.0
H129 H 0.78753 0.81551 0.89966 0.0
H130 H 0.72481 0.81063 0.91807 0.0
H131 H 0.69566 0.77461 0.79744 0.0
H132 H 0.75873 0.77893 0.77935 0.0
H133 H 0.89153 0.78956 0.7882 0.0
H134 H 0.92455 0.7321 0.77991 0.0
H135 H 0.84018 0.66712 0.83718 0.0
H136 H 0.80695 0.7249 0.84527 0.0
H137 H 0.81355 0.88476 0.81178 0.0
H138 H 0.83027 0.78896 0.73692 0.0
O139 O 0.84614 0.8281 0.85989 0.0
H140 H 0.80989 0.92536 0.75151 0.0
H141 H 0.82748 0.82971 0.67668 0.0
C142 C 0.77777 0.79753 0.83814 0.0
C143 C 0.76774 0.80626 0.87723 0.0
C144 C 0.73184 0.80376 0.88764 0.0
C145 C 0.7053 0.7923 0.85921 0.0
C146 C 0.71553 0.7831 0.82015 0.0
C147 C 0.75151 0.7856 0.80976 0.0
C148 C 0.8463 0.76138 0.8162 0.0
C149 C 0.87985 0.76291 0.79848 0.0
C150 C 0.89873 0.7301 0.79383 0.0
C151 C 0.88466 0.69512 0.8074 0.0
C152 C 0.85149 0.69372 0.82627 0.0
C153 C 0.83241 0.72665 0.83061 0.0
C154 C 0.82323 0.8341 0.77894 0.0
C155 C 0.81704 0.87259 0.78245 0.0
C156 C 0.81482 0.89571 0.74809 0.0
C157 C 0.81897 0.88068 0.70964 0.0
C158 C 0.82496 0.84205 0.70611 0.0
C159 C 0.82664 0.81881 0.74051 0.0
P160 P 0.82085 0.2296 0.19076 0.0
H161 H 0.88795 0.24812 0.23335 0.0
H162 H 0.92439 0.30632 0.23992 0.0
H163 H 0.84631 0.36585 0.16808 0.0
H164 H 0.80994 0.30727 0.16129 0.0
H165 H 0.81317 0.14857 0.20279 0.0
H166 H 0.80792 0.10841 0.26314 0.0
H167 H 0.8196 0.20664 0.33812 0.0
H168 H 0.82427 0.24692 0.27753 0.0
H169 H 0.77776 0.19957 0.12291 0.0
H170 H 0.76259 0.27065 0.22491 0.0
O171 O 0.84159 0.20649 0.15529 0.0
H172 H 0.71472 0.20375 0.10362 0.0
H173 H 0.69895 0.27449 0.206 0.0
C174 C 0.84558 0.27362 0.19814 0.0
C175 C 0.8783 0.27381 0.21963 0.0
C176 C 0.89915 0.30707 0.22329 0.0
C177 C 0.88788 0.34077 0.20508 0.0
C178 C 0.85551 0.34033 0.18263 0.0
C179 C 0.83455 0.30697 0.17911 0.0
C180 C 0.82006 0.20059 0.23572 0.0
C181 C 0.81504 0.16146 0.2322 0.0
C182 C 0.81182 0.13859 0.26661 0.0
C183 C 0.81343 0.15452 0.30515 0.0
C184 C 0.81863 0.19373 0.30869 0.0
C185 C 0.82141 0.21668 0.27415 0.0
C186 C 0.77496 0.2353 0.175 0.0
C187 C 0.76089 0.21623 0.14111 0.0
C188 C 0.72469 0.21818 0.1304 0.0
C189 C 0.70176 0.23894 0.15367 0.0
C190 C 0.716 0.25823 0.18755 0.0
C191 C 0.75229 0.2562 0.19828 0.0
P192 P 0.27327 0.29237 0.76041 0.0
H193 H 0.24509 0.28088 0.67868 0.0
H194 H 0.24519 0.22683 0.63347 0.0
H195 H 0.28765 0.15811 0.73051 0.0
H196 H 0.28719 0.21183 0.77565 0.0
H197 H 0.26227 0.36687 0.79116 0.0
H198 H 0.20882 0.40342 0.80004 0.0
H199 H 0.1424 0.3076 0.76369 0.0
H200 H 0.1961 0.27084 0.75466 0.0
H201 H 0.34778 0.27537 0.77245 0.0
H202 H 0.25582 0.28461 0.84657 0.0
O203 O 0.29796 0.32257 0.73294 0.0
H204 H 0.38476 0.26193 0.83246 0.0
H205 H 0.2929 0.27125 0.90694 0.0
C206 C 0.26635 0.2506 0.73043 0.0
C207 C 0.25381 0.254 0.69041 0.0
C208 C 0.25404 0.2232 0.6646 0.0
C209 C 0.26717 0.18855 0.67833 0.0
C210 C 0.27821 0.18474 0.71893 0.0
C211 C 0.27767 0.21547 0.74481 0.0
C212 C 0.23315 0.31633 0.7718 0.0
C213 C 0.23622 0.35347 0.78569 0.0
C214 C 0.20577 0.37426 0.79098 0.0
C215 C 0.17172 0.3581 0.78286 0.0
C216 C 0.16848 0.32039 0.77056 0.0
C217 C 0.19908 0.29953 0.76518 0.0
C218 C 0.29934 0.28186 0.80524 0.0
C219 C 0.33559 0.27453 0.8017 0.0
C220 C 0.35658 0.26648 0.83589 0.0
C221 C 0.34168 0.26578 0.87427 0.0
C222 C 0.30506 0.27205 0.87768 0.0
C223 C 0.28394 0.27981 0.84329 0.0
P224 P 0.29023 0.75233 0.2552 0.0
H225 H 0.3664 0.7447 0.24545 0.0
H226 H 0.40525 0.75371 0.18788 0.0
H227 H 0.31589 0.79081 0.11473 0.0
H228 H 0.27675 0.78146 0.17273 0.0
H229 H 0.28912 0.76205 0.34237 0.0
H230 H 0.29149 0.81773 0.38509 0.0
H231 H 0.29264 0.88941 0.27887 0.0
H232 H 0.28977 0.83353 0.23616 0.0
H233 H 0.26827 0.69057 0.20293 0.0
H234 H 0.21663 0.77284 0.27332 0.0
O235 O 0.30842 0.71808 0.283 0.0
H236 H 0.21084 0.65802 0.18956 0.0
H237 H 0.15867 0.74108 0.25892 0.0
C238 C 0.31858 0.76149 0.21299 0.0
C239 C 0.35509 0.7548 0.2171 0.0
C240 C 0.37729 0.76011 0.1843 0.0
C241 C 0.36347 0.77283 0.14696 0.0
C242 C 0.32716 0.7812 0.14331 0.0
C243 C 0.30481 0.77555 0.17622 0.0
C244 C 0.28959 0.79365 0.2861 0.0
C245 C 0.28983 0.78972 0.32822 0.0
C246 C 0.29145 0.82154 0.35263 0.0
C247 C 0.29244 0.85789 0.33533 0.0
C248 C 0.29168 0.86174 0.29303 0.0
C249 C 0.2901 0.82984 0.26861 0.0
C250 C 0.24672 0.73427 0.23883 0.0
C251 C 0.24435 0.70232 0.21442 0.0
C252 C 0.21138 0.68386 0.20653 0.0
C253 C 0.17998 0.69713 0.22278 0.0
C254 C 0.18234 0.73013 0.24596 0.0
C255 C 0.21545 0.74845 0.25406 0.0
C256 C 0.97719 0.47838 0.22182 0.0
C257 C 0.05717 0.59166 0.22193 0.0
O258 O 0.98357 0.49233 0.25679 0.0
Zn259 Zn 0.0127 0.53859 0.28398 0.0
O260 O 0.99069 0.49477 0.19114 0.0
Zn261 Zn 0.01594 0.53604 0.21955 0.0
O262 O 0.05655 0.50765 0.25316 0.0
O263 O 0.047 0.51245 0.31833 0.0
O264 O 0.04525 0.57382 0.19106 0.0
O265 O 0.04657 0.58126 0.25693 0.0
O266 O 0.97541 0.5675 0.30727 0.0
O267 O 0.97318 0.56778 0.24077 0.0
C268 C 0.06579 0.50089 0.28993 0.0
C269 C 0.96039 0.57775 0.27428 0.0
C270 C 0.94785 0.45807 0.73627 0.0
C271 C 0.04656 0.54757 0.70944 0.0
O272 O 0.96371 0.47032 0.76847 0.0
Zn273 Zn 1.00748 0.50752 0.78507 0.0
O274 O 0.95902 0.46924 0.70217 0.0
Zn275 Zn 0.99745 0.50286 0.72154 0.0
O276 O 0.0365 0.46597 0.74587 0.0
O277 O 0.04179 0.47401 0.81151 0.0
O278 O 0.02655 0.53067 0.68334 0.0
O279 O 0.0418 0.54163 0.74717 0.0
O280 O 0.98408 0.54598 0.81515 0.0
O281 O 0.97048 0.54732 0.75008 0.0
C282 C 0.05152 0.45781 0.77984 0.0
C283 C 0.96756 0.56104 0.78535 0.0
C284 C 0.22302 0.96664 0.54612 0.0
C285 C 0.23108 0.0738 0.45084 0.0
O286 O 0.19671 0.98101 0.52714 0.0
Zn287 Zn 0.22415 0.0204 0.49818 0.0
O288 O 0.25463 0.98022 0.54088 0.0
Zn289 Zn 0.28177 0.02253 0.50702 0.0
O290 O 0.30267 0.05495 0.54916 0.0
O291 O 0.24397 0.05675 0.54481 0.0
O292 O 0.26096 0.06301 0.46571 0.0
O293 O 0.20214 0.05699 0.46142 0.0
O294 O 0.25257 0.98767 0.45755 0.0
O295 O 0.31036 0.99208 0.47217 0.0
C296 C 0.27368 0.06799 0.56132 0.0
C297 C 0.28455 0.97886 0.45027 0.0
C298 C 0.55219 0.72022 0.0245 0.0
C299 C 0.46695 0.71755 0.90862 0.0
O300 O 0.53999 0.69053 0.007 0.0
Zn301 Zn 0.51068 0.7165 0.966 0.0
O302 O 0.54258 0.75248 0.01129 0.0
Zn303 Zn 0.50961 0.77718 0.96537 0.0
O304 O 0.47555 0.80235 0.99824 0.0
O305 O 0.47218 0.74033 1.00364 0.0
O306 O 0.47566 0.75076 0.92088 0.0
O307 O 0.48122 0.68928 0.92567 0.0
O308 O 0.55126 0.74416 0.93148 0.0
O309 O 0.54533 0.80557 0.93456 0.0
C310 C 0.46142 0.77263 0.01384 0.0
C311 C 0.56207 0.77766 0.92197 0.0
C312 C 0.80101 0.97649 0.5672 0.0
C313 C 0.797 0.05847 0.4477 0.0
O314 O 0.76899 0.98271 0.55486 0.0
Zn315 Zn 0.74278 0.01334 0.50671 0.0
O316 O 0.82712 0.99135 0.54835 0.0
Zn317 Zn 0.79959 0.01778 0.50759 0.0
O318 O 0.77404 0.05964 0.54123 0.0
O319 O 0.71575 0.04938 0.53618 0.0
O320 O 0.82442 0.04809 0.4677 0.0
O321 O 0.76583 0.04758 0.45918 0.0
O322 O 0.71794 0.97334 0.47629 0.0
O323 O 0.7765 0.97248 0.47257 0.0
C324 C 0.74241 0.06895 0.5497 0.0
C325 C 0.74553 0.9584 0.46291 0.0
C326 C 0.55726 0.2556 0.0887 0.0
C327 C 0.45017 0.26028 1.00096 0.0
O328 O 0.53655 0.22811 0.07822 0.0
Zn329 Zn 0.50233 0.25637 0.04613 0.0
O330 O 0.5494 0.28911 0.07763 0.0
Zn331 Zn 0.50917 0.31667 0.04238 0.0
O332 O 0.48541 0.34713 0.08148 0.0
O333 O 0.47345 0.28626 0.08927 0.0
O334 O 0.4646 0.29271 0.00879 0.0
O335 O 0.46398 0.23066 0.01563 0.0
O336 O 0.53471 0.27739 0.99849 0.0
O337 O 0.5377 0.33947 0.99898 0.0
C338 C 0.46881 0.32032 0.09971 0.0
C339 C 0.54636 0.30866 0.98329 0.0
C340 C 0.13133 0.43137 0.33413 0.0
C341 C 0.16106 0.43722 0.30943 0.0
C342 C 0.1009 0.4531 0.32891 0.0
C343 C 0.099 0.4807 0.29822 0.0
H344 H 0.13161 0.40977 0.35752 0.0
H345 H 0.07832 0.44742 0.34805 0.0
S346 S 0.17012 0.5077 0.22655 0.0
N347 N 0.18711 0.47336 0.25422 0.0
N348 N 0.1299 0.51375 0.24393 0.0
C349 C 0.1288 0.48717 0.27383 0.0
C350 C 0.15985 0.46554 0.27956 0.0
C351 C 0.11605 0.62711 0.71215 0.0
C352 C 0.14117 0.61586 0.6843 0.0
C353 C 0.08475 0.60552 0.7189 0.0
C354 C 0.07689 0.57234 0.69739 0.0
H355 H 0.12081 0.65257 0.72937 0.0
H356 H 0.06676 0.6146 0.74158 0.0
S357 S 0.13332 0.53001 0.62141 0.0
N358 N 0.15598 0.56854 0.63554 0.0
N359 N 0.09617 0.52908 0.64708 0.0
C360 C 0.10093 0.56128 0.66852 0.0
C361 C 0.13329 0.58279 0.66221 0.0
C362 C 0.878 0.62585 0.23396 0.0
C363 C 0.8697 0.6503 0.26504 0.0
C364 C 0.9067 0.60189 0.23795 0.0
C365 C 0.92833 0.60112 0.2733 0.0
H366 H 0.86251 0.62572 0.2059 0.0
H367 H 0.91224 0.58416 0.21271 0.0
S368 S 0.9171 0.65861 0.36434 0.0
N369 N 0.88477 0.67167 0.33291 0.0
N370 N 0.93861 0.626 0.34073 0.0
C371 C 0.91953 0.62432 0.30535 0.0
C372 C 0.89025 0.64903 0.30116 0.0
C373 C 0.87194 0.40056 0.78275 0.0
C374 C 0.85863 0.37797 0.75089 0.0
C375 C 0.90034 0.4266 0.77735 0.0
C376 C 0.91667 0.43133 0.73979 0.0
H377 H 0.86043 0.39791 0.81231 0.0
H378 H 0.90963 0.44303 0.80308 0.0
S379 S 0.89173 0.37903 0.64648 0.0
N380 N 0.8638 0.36191 0.68035 0.0
N381 N 0.91702 0.41136 0.66991 0.0
C382 C 0.90315 0.40948 0.70734 0.0
C383 C 0.87417 0.38274 0.71294 0.0
C384 C 0.26825 0.15206 0.38424 0.0
C385 C 0.24127 0.17853 0.38339 0.0
C386 C 0.26358 0.11727 0.40402 0.0
C387 C 0.23169 0.10734 0.42369 0.0
H388 H 0.29399 0.15904 0.37149 0.0
H389 H 0.28585 0.0986 0.40529 0.0
S390 S 0.15091 0.16455 0.42531 0.0
N391 N 0.18004 0.19094 0.40001 0.0
N392 N 0.17133 0.12536 0.43758 0.0
C393 C 0.20352 0.1324 0.42067 0.0
C394 C 0.20835 0.16809 0.40057 0.0
C395 C 0.3909 0.74065 0.83545 0.0
C396 C 0.38776 0.70905 0.81033 0.0
C397 C 0.41632 0.74272 0.86714 0.0
C398 C 0.43966 0.71319 0.87545 0.0
H399 H 0.37345 0.76406 0.83068 0.0
H400 H 0.41754 0.76782 0.88541 0.0
S401 S 0.44326 0.62451 0.81815 0.0
N402 N 0.41093 0.64778 0.79534 0.0
N403 N 0.45818 0.65137 0.85566 0.0
C404 C 0.43663 0.68116 0.85095 0.0
C405 C 0.41084 0.67917 0.81828 0.0
C406 C 0.77426 0.879 0.39725 0.0
C407 C 0.74299 0.86855 0.37527 0.0
C408 C 0.77425 0.90698 0.4265 0.0
C409 C 0.74297 0.92588 0.43507 0.0
H410 H 0.79924 0.86605 0.39104 0.0
H411 H 0.79935 0.91442 0.44181 0.0
S412 S 0.65345 0.90741 0.38728 0.0
N413 N 0.6795 0.87789 0.36505 0.0
N414 N 0.67929 0.93058 0.42034 0.0
C415 C 0.71107 0.91452 0.41454 0.0
C416 C 0.71112 0.88583 0.3846 0.0
C417 C 0.60723 0.26887 0.9063 0.0
C418 C 0.61887 0.30046 0.88361 0.0
C419 C 0.58374 0.27219 0.93789 0.0
C420 C 0.57073 0.30733 0.94865 0.0
H421 H 0.61709 0.24123 0.90034 0.0
H422 H 0.57623 0.24673 0.95442 0.0
S423 S 0.59165 0.39883 0.89758 0.0
N424 N 0.61464 0.36809 0.87299 0.0
N425 N 0.57056 0.37448 0.93305 0.0
C426 C 0.5818 0.33928 0.92601 0.0
C427 C 0.60584 0.33583 0.89345 0.0
C428 C 0.24711 0.89258 0.62354 0.0
C429 C 0.22794 0.86043 0.60955 0.0
C430 C 0.243 0.92776 0.6047 0.0
C431 C 0.2192 0.93228 0.57156 0.0
H432 H 0.26723 0.89009 0.64741 0.0
H433 H 0.26007 0.95124 0.61479 0.0
S434 S 0.159 0.85799 0.52715 0.0
N435 N 0.18144 0.83603 0.56345 0.0
N436 N 0.17358 0.90244 0.52816 0.0
C437 C 0.19771 0.90107 0.5594 0.0
C438 C 0.20221 0.86503 0.5783 0.0
C439 C 0.6155 0.75511 0.10796 0.0
C440 C 0.6279 0.72207 0.12649 0.0
C441 C 0.59103 0.75373 0.07553 0.0
C442 C 0.5777 0.71923 0.0597 0.0
H443 H 0.62548 0.78252 0.1179 0.0
H444 H 0.58292 0.78037 0.06249 0.0
S445 S 0.60062 0.62423 0.09833 0.0
N446 N 0.62431 0.65355 0.12759 0.0
N447 N 0.57823 0.65088 0.06596 0.0
C448 C 0.58953 0.68576 0.07813 0.0
C449 C 0.61466 0.68721 0.11154 0.0
C450 C 0.70568 0.13049 0.63088 0.0
C451 C 0.73385 0.15712 0.63748 0.0
C452 C 0.70763 0.103 0.60092 0.0
C453 C 0.73787 0.10129 0.57677 0.0
H454 H 0.68288 0.12973 0.65029 0.0
H455 H 0.68616 0.08191 0.59806 0.0
S456 S 0.81591 0.16878 0.57814 0.0
N457 N 0.79067 0.18294 0.61461 0.0
N458 N 0.79448 0.13172 0.55842 0.0
C459 C 0.76502 0.12945 0.58148 0.0
C460 C 0.76298 0.15725 0.61182 0.0
C461 C 0.39196 0.30382 0.17089 0.0
C462 C 0.39176 0.33728 0.19293 0.0
C463 C 0.41699 0.2989 0.141 0.0
C464 C 0.44267 0.32739 0.13145 0.0
H465 H 0.3731 0.28087 0.17744 0.0
H466 H 0.41606 0.27237 0.12518 0.0
S467 S 0.45222 0.4212 0.17927 0.0
N468 N 0.4186 0.3999 0.20263 0.0
N469 N 0.46549 0.39089 0.14593 0.0
C470 C 0.44225 0.3614 0.1527 0.0
C471 C 0.41693 0.36623 0.1836 0.0
C472 C 0.91369 0.63665 0.83416 0.0
C473 C 0.90461 0.66028 0.80131 0.0
C474 C 0.93414 0.60468 0.82893 0.0
C475 C 0.94575 0.59482 0.79054 0.0
H476 H 0.90552 0.64337 0.86422 0.0
H477 H 0.94078 0.58752 0.85515 0.0
S478 S 0.92768 0.64708 0.69459 0.0
N479 N 0.90788 0.6713 0.72913 0.0
N480 N 0.94595 0.61149 0.719 0.0
C481 C 0.93623 0.61807 0.75739 0.0
C482 C 0.91579 0.65069 0.76285 0.0
C483 C 0.91997 0.3979 0.17578 0.0
C484 C 0.90995 0.37619 0.20974 0.0
C485 C 0.94187 0.43074 0.17977 0.0
C486 C 0.95424 0.44334 0.21792 0.0
H487 H 0.91129 0.38911 0.14584 0.0
H488 H 0.94902 0.44637 0.15273 0.0
S489 S 0.93406 0.39701 0.31646 0.0
N490 N 0.91299 0.37008 0.28269 0.0
N491 N 0.954 0.4313 0.29051 0.0
C492 C 0.94392 0.42193 0.25215 0.0
C493 C 0.92186 0.38852 0.24798 0.0
C494 C 0.11884 0.38534 0.81581 0.0
C495 C 0.14033 0.38227 0.78198 0.0
C496 C 0.0901 0.40994 0.81528 0.0
C497 C 0.0818 0.43183 0.78072 0.0
H498 H 0.12452 0.36896 0.84287 0.0
H499 H 0.07417 0.41162 0.8419 0.0
S500 S 0.13175 0.43498 0.68534 0.0
N501 N 0.15251 0.4038 0.71397 0.0
N502 N 0.09878 0.4496 0.71246 0.0
C503 C 0.10347 0.4289 0.74688 0.0
C504 C 0.13267 0.40423 0.74765 0.0
C505 C 0.12649 0.66644 0.25477 0.0
C506 C 0.14593 0.67408 0.21976 0.0
C507 C 0.09699 0.64111 0.25446 0.0
C508 C 0.08549 0.6221 0.21914 0.0
H509 H 0.13504 0.67885 0.28322 0.0
H510 H 0.08385 0.63555 0.28272 0.0
S511 S 0.12474 0.63546 0.11813 0.0
N512 N 0.14965 0.66328 0.14779 0.0
N513 N 0.09443 0.61513 0.14727 0.0
C514 C 0.10361 0.63084 0.18336 0.0
C515 C 0.13377 0.65682 0.18369 0.0
C516 C 0.78417 0.92514 0.66638 0.0
C517 C 0.81546 0.90512 0.67326 0.0
C518 C 0.77984 0.94804 0.63197 0.0
C519 C 0.8069 0.95234 0.60346 0.0
H520 H 0.76266 0.92267 0.68753 0.0
H521 H 0.75512 0.96271 0.62787 0.0
S522 S 0.89433 0.90636 0.60823 0.0
N523 N 0.87406 0.89108 0.64924 0.0
N524 N 0.8663 0.93467 0.58475 0.0
C525 C 0.83855 0.93278 0.6103 0.0
C526 C 0.8427 0.90897 0.6451 0.0
C527 C 0.64831 0.27729 0.13776 0.0
C528 C 0.66345 0.24174 0.14143 0.0
C529 C 0.61343 0.28115 0.12234 0.0
C530 C 0.5921 0.24963 0.11006 0.0
H531 H 0.664 0.3025 0.14538 0.0
H532 H 0.60356 0.30939 0.11895 0.0
S533 S 0.61803 0.14976 0.11811 0.0
N534 N 0.65358 0.17405 0.13505 0.0
N535 N 0.58806 0.18121 0.1058 0.0
C536 C 0.60636 0.21368 0.11551 0.0
C537 C 0.64201 0.20979 0.13114 0.0
C538 C 0.23953 0.14539 0.62653 0.0
C539 C 0.26958 0.15673 0.65005 0.0
C540 C 0.24123 0.11632 0.59864 0.0
C541 C 0.27319 0.09755 0.59267 0.0
H542 H 0.21442 0.15911 0.62973 0.0
H543 H 0.21721 0.10899 0.58118 0.0
S544 S 0.3597 0.1171 0.64676 0.0
N545 N 0.33235 0.14726 0.66578 0.0
N546 N 0.33569 0.09261 0.61311 0.0
C547 C 0.30349 0.10856 0.61619 0.0
C548 C 0.30163 0.13807 0.64495 0.0
C549 C 0.404 0.74128 0.1012 0.0
C550 C 0.38662 0.77401 0.11145 0.0
C551 C 0.42732 0.74125 0.06909 0.0
C552 C 0.43467 0.77411 0.04598 0.0
H553 H 0.39961 0.71538 0.11833 0.0
H554 H 0.44024 0.71521 0.06298 0.0
S555 S 0.39516 0.86723 0.06029 0.0
N556 N 0.37737 0.84001 0.09581 0.0
N557 N 0.42179 0.84029 0.03534 0.0
C558 C 0.41705 0.80707 0.05561 0.0
C559 C 0.39283 0.80691 0.08828 0.0
C560 C 0.83523 0.12981 0.37224 0.0
C561 C 0.80869 0.13025 0.34148 0.0
C562 C 0.83148 0.10621 0.40633 0.0
C563 C 0.80073 0.0828 0.4112 0.0
H564 H 0.85926 0.14744 0.36964 0.0
H565 H 0.85265 0.10665 0.42922 0.0
S566 S 0.72325 0.07438 0.33926 0.0
N567 N 0.75064 0.10573 0.31801 0.0
N568 N 0.74322 0.06177 0.38207 0.0
C569 C 0.77385 0.08337 0.3807 0.0
C570 C 0.77794 0.10697 0.34584 0.0
C571 C 0.38875 0.2312 0.91343 0.0
C572 C 0.36525 0.26127 0.91049 0.0
C573 C 0.41485 0.22953 0.94454 0.0
C574 C 0.4187 0.25828 0.97319 0.0
H575 H 0.38763 0.20947 0.89079 0.0
H576 H 0.43334 0.20676 0.9448 0.0
S577 S 0.36214 0.34147 0.98052 0.0
N578 N 0.34612 0.31904 0.94031 0.0
N579 N 0.39519 0.3161 0.9985 0.0
C580 C 0.39429 0.2875 0.97163 0.0
C581 C 0.36754 0.28894 0.94035 0.0
C582 C 0.31762 0.89481 0.39436 0.0
C583 C 0.29295 0.89148 0.36165 0.0
C584 C 0.31636 0.92459 0.42174 0.0
C585 C 0.29 0.95168 0.41768 0.0
H586 H 0.33761 0.87382 0.39925 0.0
H587 H 0.335 0.92533 0.44727 0.0
S588 S 0.22058 0.95691 0.33595 0.0
N589 N 0.24254 0.91884 0.32585 0.0
N590 N 0.24012 0.97463 0.37701 0.0
C591 C 0.26609 0.94943 0.38423 0.0
C592 C 0.26758 0.9194 0.35628 0.0
C593 C 0.65205 0.81957 0.89097 0.0
C594 C 0.66721 0.78962 0.87082 0.0
C595 C 0.61713 0.81644 0.90532 0.0
C596 C 0.5962 0.78304 0.90049 0.0
H597 H 0.66757 0.84542 0.89634 0.0
H598 H 0.60714 0.83975 0.92189 0.0
S599 S 0.62268 0.69722 0.84761 0.0
N600 N 0.65801 0.72618 0.84516 0.0
N601 N 0.5925 0.72025 0.87176 0.0
C602 C 0.61058 0.75345 0.87893 0.0
C603 C 0.64602 0.75675 0.86418 0.0
loop_
_geom_bond_atom_site_label_1
_geom_bond_atom_site_label_2
_geom_bond_distance
_geom_bond_site_symmetry_2
_ccdc_geom_bond_type
P0 O11 1.490 . S
P0 C14 1.812 . S
P0 C20 1.803 . S
P0 C26 1.819 . S
H1 C15 0.941 . S
H2 C16 0.939 . S
H3 C18 0.940 . S
H4 C19 0.940 . S
H5 C21 0.939 . S
H6 C22 0.942 . S
H7 C24 0.940 . S
H8 C25 0.939 . S
H9 C27 0.941 . S
H10 C31 0.939 . S
O11 P0 1.490 . S
H12 C28 0.939 . S
H13 C30 0.940 . S
C14 P0 1.812 . S
C14 C15 1.389 . S
C14 C19 1.391 . S
C15 H1 0.941 . S
C15 C14 1.389 . S
C15 C16 1.397 . S
C16 H2 0.939 . S
C16 C15 1.397 . S
C16 C17 1.378 . S
C17 C16 1.378 . S
C17 C18 1.378 . S
C18 H3 0.940 . S
C18 C17 1.378 . S
C18 C19 1.396 . S
C19 H4 0.940 . S
C19 C14 1.391 . S
C19 C18 1.396 . S
C20 P0 1.803 . S
C20 C21 1.378 . S
C20 C25 1.400 . S
C21 H5 0.939 . S
C21 C20 1.378 . S
C21 C22 1.361 . S
C22 H6 0.942 . S
C22 C21 1.361 . S
C22 C23 1.369 . S
C23 C22 1.369 . S
C23 C24 1.404 . S
C24 H7 0.940 . S
C24 C23 1.404 . S
C24 C25 1.389 . S
C25 H8 0.939 . S
C25 C20 1.400 . S
C25 C24 1.389 . S
C26 P0 1.819 . S
C26 C27 1.391 . S
C26 C31 1.391 . S
C27 H9 0.941 . S
C27 C26 1.391 . S
C27 C28 1.396 . S
C28 H12 0.939 . S
C28 C27 1.396 . S
C28 C29 1.397 . S
C29 C28 1.397 . S
C29 C30 1.385 . S
C30 H13 0.940 . S
C30 C29 1.385 . S
C30 C31 1.388 . S
C31 H10 0.939 . S
C31 C26 1.391 . S
C31 C30 1.388 . S
P32 O43 1.490 . S
P32 C46 1.812 . S
P32 C52 1.803 . S
P32 C58 1.819 . S
H33 C47 0.941 . S
H34 C48 0.939 . S
H35 C50 0.940 . S
H36 C51 0.940 . S
H37 C53 0.939 . S
H38 C54 0.942 . S
H39 C56 0.940 . S
H40 C57 0.939 . S
H41 C59 0.941 . S
H42 C63 0.939 . S
O43 P32 1.490 . S
H44 C60 0.939 . S
H45 C62 0.940 . S
C46 P32 1.812 . S
C46 C47 1.389 . S
C46 C51 1.391 . S
C47 H33 0.941 . S
C47 C46 1.389 . S
C47 C48 1.397 . S
C48 H34 0.939 . S
C48 C47 1.397 . S
C48 C49 1.378 . S
C49 C48 1.378 . S
C49 C50 1.378 . S
C50 H35 0.940 . S
C50 C49 1.378 . S
C50 C51 1.396 . S
C51 H36 0.940 . S
C51 C46 1.391 . S
C51 C50 1.396 . S
C52 P32 1.803 . S
C52 C53 1.378 . S
C52 C57 1.400 . S
C53 H37 0.939 . S
C53 C52 1.378 . S
C53 C54 1.361 . S
C54 H38 0.942 . S
C54 C53 1.361 . S
C54 C55 1.369 . S
C55 C54 1.369 . S
C55 C56 1.404 . S
C56 H39 0.940 . S
C56 C55 1.404 . S
C56 C57 1.389 . S
C57 H40 0.939 . S
C57 C52 1.400 . S
C57 C56 1.389 . S
C58 P32 1.819 . S
C58 C59 1.391 . S
C58 C63 1.391 . S
C59 H41 0.941 . S
C59 C58 1.391 . S
C59 C60 1.396 . S
C60 H44 0.939 . S
C60 C59 1.396 . S
C60 C61 1.397 . S
C61 C60 1.397 . S
C61 C62 1.385 . S
C62 H45 0.940 . S
C62 C61 1.385 . S
C62 C63 1.388 . S
C63 H42 0.939 . S
C63 C58 1.391 . S
C63 C62 1.388 . S
P64 O75 1.490 . S
P64 C78 1.812 . S
P64 C84 1.803 . S
P64 C90 1.819 . S
H65 C79 0.941 . S
H66 C80 0.939 . S
H67 C82 0.940 . S
H68 C83 0.940 . S
H69 C85 0.939 . S
H70 C86 0.942 . S
H71 C88 0.940 . S
H72 C89 0.939 . S
H73 C91 0.941 . S
H74 C95 0.939 . S
O75 P64 1.490 . S
H76 C92 0.939 . S
H77 C94 0.940 . S
C78 P64 1.812 . S
C78 C79 1.389 . S
C78 C83 1.391 . S
C79 H65 0.941 . S
C79 C78 1.389 . S
C79 C80 1.397 . S
C80 H66 0.939 . S
C80 C79 1.397 . S
C80 C81 1.378 . S
C81 C80 1.378 . S
C81 C82 1.378 . S
C82 H67 0.940 . S
C82 C81 1.378 . S
C82 C83 1.396 . S
C83 H68 0.940 . S
C83 C78 1.391 . S
C83 C82 1.396 . S
C84 P64 1.803 . S
C84 C85 1.378 . S
C84 C89 1.400 . S
C85 H69 0.939 . S
C85 C84 1.378 . S
C85 C86 1.361 . S
C86 H70 0.942 . S
C86 C85 1.361 . S
C86 C87 1.369 . S
C87 C86 1.369 . S
C87 C88 1.404 . S
C88 H71 0.940 . S
C88 C87 1.404 . S
C88 C89 1.389 . S
C89 H72 0.939 . S
C89 C84 1.400 . S
C89 C88 1.389 . S
C90 P64 1.819 . S
C90 C91 1.391 . S
C90 C95 1.391 . S
C91 H73 0.941 . S
C91 C90 1.391 . S
C91 C92 1.396 . S
C92 H76 0.939 . S
C92 C91 1.396 . S
C92 C93 1.397 . S
C93 C92 1.397 . S
C93 C94 1.385 . S
C94 H77 0.940 . S
C94 C93 1.385 . S
C94 C95 1.388 . S
C95 H74 0.939 . S
C95 C90 1.391 . S
C95 C94 1.388 . S
P96 O107 1.490 . S
P96 C110 1.812 . S
P96 C116 1.803 . S
P96 C122 1.819 . S
H97 C111 0.941 . S
H98 C112 0.939 . S
H99 C114 0.940 . S
H100 C115 0.940 . S
H101 C117 0.939 . S
H102 C118 0.942 . S
H103 C120 0.940 . S
H104 C121 0.939 . S
H105 C123 0.941 . S
H106 C127 0.939 . S
O107 P96 1.490 . S
H108 C124 0.939 . S
H109 C126 0.940 . S
C110 P96 1.812 . S
C110 C111 1.389 . S
C110 C115 1.391 . S
C111 H97 0.941 . S
C111 C110 1.389 . S
C111 C112 1.397 . S
C112 H98 0.939 . S
C112 C111 1.397 . S
C112 C113 1.378 . S
C113 C112 1.378 . S
C113 C114 1.378 . S
C114 H99 0.940 . S
C114 C113 1.378 . S
C114 C115 1.396 . S
C115 H100 0.940 . S
C115 C110 1.391 . S
C115 C114 1.396 . S
C116 P96 1.803 . S
C116 C117 1.378 . S
C116 C121 1.400 . S
C117 H101 0.939 . S
C117 C116 1.378 . S
C117 C118 1.361 . S
C118 H102 0.942 . S
C118 C117 1.361 . S
C118 C119 1.369 . S
C119 C118 1.369 . S
C119 C120 1.404 . S
C120 H103 0.940 . S
C120 C119 1.404 . S
C120 C121 1.389 . S
C121 H104 0.939 . S
C121 C116 1.400 . S
C121 C120 1.389 . S
C122 P96 1.819 . S
C122 C123 1.391 . S
C122 C127 1.391 . S
C123 H105 0.941 . S
C123 C122 1.391 . S
C123 C124 1.396 . S
C124 H108 0.939 . S
C124 C123 1.396 . S
C124 C125 1.397 . S
C125 C124 1.397 . S
C125 C126 1.385 . S
C126 H109 0.940 . S
C126 C125 1.385 . S
C126 C127 1.388 . S
C127 H106 0.939 . S
C127 C122 1.391 . S
C127 C126 1.388 . S
P128 O139 1.490 . S
P128 C142 1.812 . S
P128 C148 1.803 . S
P128 C154 1.819 . S
H129 C143 0.941 . S
H130 C144 0.939 . S
H131 C146 0.940 . S
H132 C147 0.940 . S
H133 C149 0.939 . S
H134 C150 0.942 . S
H135 C152 0.940 . S
H136 C153 0.939 . S
H137 C155 0.941 . S
H138 C159 0.939 . S
O139 P128 1.490 . S
H140 C156 0.939 . S
H141 C158 0.940 . S
C142 P128 1.812 . S
C142 C143 1.389 . S
C142 C147 1.391 . S
C143 H129 0.941 . S
C143 C142 1.389 . S
C143 C144 1.397 . S
C144 H130 0.939 . S
C144 C143 1.397 . S
C144 C145 1.378 . S
C145 C144 1.378 . S
C145 C146 1.378 . S
C146 H131 0.940 . S
C146 C145 1.378 . S
C146 C147 1.396 . S
C147 H132 0.940 . S
C147 C142 1.391 . S
C147 C146 1.396 . S
C148 P128 1.803 . S
C148 C149 1.378 . S
C148 C153 1.400 . S
C149 H133 0.939 . S
C149 C148 1.378 . S
C149 C150 1.361 . S
C150 H134 0.942 . S
C150 C149 1.361 . S
C150 C151 1.369 . S
C151 C150 1.369 . S
C151 C152 1.404 . S
C152 H135 0.940 . S
C152 C151 1.404 . S
C152 C153 1.389 . S
C153 H136 0.939 . S
C153 C148 1.400 . S
C153 C152 1.389 . S
C154 P128 1.819 . S
C154 C155 1.391 . S
C154 C159 1.391 . S
C155 H137 0.941 . S
C155 C154 1.391 . S
C155 C156 1.396 . S
C156 H140 0.939 . S
C156 C155 1.396 . S
C156 C157 1.397 . S
C157 C156 1.397 . S
C157 C158 1.385 . S
C158 H141 0.940 . S
C158 C157 1.385 . S
C158 C159 1.388 . S
C159 H138 0.939 . S
C159 C154 1.391 . S
C159 C158 1.388 . S
P160 O171 1.490 . S
P160 C174 1.812 . S
P160 C180 1.803 . S
P160 C186 1.819 . S
H161 C175 0.941 . S
H162 C176 0.939 . S
H163 C178 0.940 . S
H164 C179 0.940 . S
H165 C181 0.939 . S
H166 C182 0.942 . S
H167 C184 0.940 . S
H168 C185 0.939 . S
H169 C187 0.941 . S
H170 C191 0.939 . S
O171 P160 1.490 . S
H172 C188 0.939 . S
H173 C190 0.940 . S
C174 P160 1.812 . S
C174 C175 1.389 . S
C174 C179 1.391 . S
C175 H161 0.941 . S
C175 C174 1.389 . S
C175 C176 1.397 . S
C176 H162 0.939 . S
C176 C175 1.397 . S
C176 C177 1.378 . S
C177 C176 1.378 . S
C177 C178 1.378 . S
C178 H163 0.940 . S
C178 C177 1.378 . S
C178 C179 1.396 . S
C179 H164 0.940 . S
C179 C174 1.391 . S
C179 C178 1.396 . S
C180 P160 1.803 . S
C180 C181 1.378 . S
C180 C185 1.400 . S
C181 H165 0.939 . S
C181 C180 1.378 . S
C181 C182 1.361 . S
C182 H166 0.942 . S
C182 C181 1.361 . S
C182 C183 1.369 . S
C183 C182 1.369 . S
C183 C184 1.404 . S
C184 H167 0.940 . S
C184 C183 1.404 . S
C184 C185 1.389 . S
C185 H168 0.939 . S
C185 C180 1.400 . S
C185 C184 1.389 . S
C186 P160 1.819 . S
C186 C187 1.391 . S
C186 C191 1.391 . S
C187 H169 0.941 . S
C187 C186 1.391 . S
C187 C188 1.396 . S
C188 H172 0.939 . S
C188 C187 1.396 . S
C188 C189 1.397 . S
C189 C188 1.397 . S
C189 C190 1.385 . S
C190 H173 0.940 . S
C190 C189 1.385 . S
C190 C191 1.388 . S
C191 H170 0.939 . S
C191 C186 1.391 . S
C191 C190 1.388 . S
P192 O203 1.490 . S
P192 C206 1.812 . S
P192 C212 1.803 . S
P192 C218 1.819 . S
H193 C207 0.941 . S
H194 C208 0.939 . S
H195 C210 0.940 . S
H196 C211 0.940 . S
H197 C213 0.939 . S
H198 C214 0.942 . S
H199 C216 0.940 . S
H200 C217 0.939 . S
H201 C219 0.941 . S
H202 C223 0.939 . S
O203 P192 1.490 . S
H204 C220 0.939 . S
H205 C222 0.940 . S
C206 P192 1.812 . S
C206 C207 1.389 . S
C206 C211 1.391 . S
C207 H193 0.941 . S
C207 C206 1.389 . S
C207 C208 1.397 . S
C208 H194 0.939 . S
C208 C207 1.397 . S
C208 C209 1.378 . S
C209 C208 1.378 . S
C209 C210 1.378 . S
C210 H195 0.940 . S
C210 C209 1.378 . S
C210 C211 1.396 . S
C211 H196 0.940 . S
C211 C206 1.391 . S
C211 C210 1.396 . S
C212 P192 1.803 . S
C212 C213 1.378 . S
C212 C217 1.400 . S
C213 H197 0.939 . S
C213 C212 1.378 . S
C213 C214 1.361 . S
C214 H198 0.942 . S
C214 C213 1.361 . S
C214 C215 1.369 . S
C215 C214 1.369 . S
C215 C216 1.404 . S
C216 H199 0.940 . S
C216 C215 1.404 . S
C216 C217 1.389 . S
C217 H200 0.939 . S
C217 C212 1.400 . S
C217 C216 1.389 . S
C218 P192 1.819 . S
C218 C219 1.391 . S
C218 C223 1.391 . S
C219 H201 0.941 . S
C219 C218 1.391 . S
C219 C220 1.396 . S
C220 H204 0.939 . S
C220 C219 1.396 . S
C220 C221 1.397 . S
C221 C220 1.397 . S
C221 C222 1.385 . S
C222 H205 0.940 . S
C222 C221 1.385 . S
C222 C223 1.388 . S
C223 H202 0.939 . S
C223 C218 1.391 . S
C223 C222 1.388 . S
P224 O235 1.490 . S
P224 C238 1.812 . S
P224 C244 1.803 . S
P224 C250 1.819 . S
H225 C239 0.941 . S
H226 C240 0.939 . S
H227 C242 0.940 . S
H228 C243 0.940 . S
H229 C245 0.939 . S
H230 C246 0.942 . S
H231 C248 0.940 . S
H232 C249 0.939 . S
H233 C251 0.941 . S
H234 C255 0.939 . S
O235 P224 1.490 . S
H236 C252 0.939 . S
H237 C254 0.940 . S
C238 P224 1.812 . S
C238 C239 1.389 . S
C238 C243 1.391 . S
C239 H225 0.941 . S
C239 C238 1.389 . S
C239 C240 1.397 . S
C240 H226 0.939 . S
C240 C239 1.397 . S
C240 C241 1.378 . S
C241 C240 1.378 . S
C241 C242 1.378 . S
C242 H227 0.940 . S
C242 C241 1.378 . S
C242 C243 1.396 . S
C243 H228 0.940 . S
C243 C238 1.391 . S
C243 C242 1.396 . S
C244 P224 1.803 . S
C244 C245 1.378 . S
C244 C249 1.400 . S
C245 H229 0.939 . S
C245 C244 1.378 . S
C245 C246 1.361 . S
C246 H230 0.942 . S
C246 C245 1.361 . S
C246 C247 1.369 . S
C247 C246 1.369 . S
C247 C248 1.404 . S
C248 H231 0.940 . S
C248 C247 1.404 . S
C248 C249 1.389 . S
C249 H232 0.939 . S
C249 C244 1.400 . S
C249 C248 1.389 . S
C250 P224 1.819 . S
C250 C251 1.391 . S
C250 C255 1.391 . S
C251 H233 0.941 . S
C251 C250 1.391 . S
C251 C252 1.396 . S
C252 H236 0.939 . S
C252 C251 1.396 . S
C252 C253 1.397 . S
C253 C252 1.397 . S
C253 C254 1.385 . S
C254 H237 0.940 . S
C254 C253 1.385 . S
C254 C255 1.388 . S
C255 H234 0.939 . S
C255 C250 1.391 . S
C255 C254 1.388 . S
C256 O258 1.247 . S
C256 O260 1.258 . S
C257 O264 1.247 . S
C257 O265 1.258 . S
O258 C256 1.247 . S
O258 Zn259 2.028 1_655 S
Zn259 O258 2.028 1_455 S
Zn259 O263 2.035 . S
Zn259 O265 2.035 . S
Zn259 O266 2.028 1_455 S
O260 C256 1.258 . S
O260 Zn261 2.035 1_655 S
Zn261 O260 2.035 1_455 S
Zn261 O262 2.028 . S
Zn261 O264 2.028 . S
Zn261 O267 2.035 1_455 S
O262 Zn261 2.028 . S
O262 C268 1.247 . S
O263 Zn259 2.035 . S
O263 C268 1.258 . S
O264 C257 1.247 . S
O264 Zn261 2.028 . S
O265 C257 1.258 . S
O265 Zn259 2.035 . S
O266 Zn259 2.028 1_655 S
O266 C269 1.247 . S
O267 Zn261 2.035 1_655 S
O267 C269 1.258 . S
C268 O262 1.247 . S
C268 O263 1.258 . S
C269 O266 1.247 . S
C269 O267 1.258 . S
C270 O272 1.247 . S
C270 O274 1.258 . S
C271 O278 1.247 . S
C271 O279 1.258 . S
O272 C270 1.247 . S
O272 Zn273 2.028 1_655 S
Zn273 O272 2.028 1_455 S
Zn273 O277 2.035 . S
Zn273 O279 2.035 . S
Zn273 O280 2.028 1_455 S
O274 C270 1.258 . S
O274 Zn275 2.035 . S
Zn275 O274 2.035 . S
Zn275 O276 2.028 1_655 S
Zn275 O278 2.028 1_655 S
Zn275 O281 2.035 . S
O276 Zn275 2.028 1_455 S
O276 C282 1.247 . S
O277 Zn273 2.035 . S
O277 C282 1.258 . S
O278 C271 1.247 . S
O278 Zn275 2.028 1_455 S
O279 C271 1.258 . S
O279 Zn273 2.035 . S
O280 Zn273 2.028 1_655 S
O280 C283 1.247 . S
O281 Zn275 2.035 . S
O281 C283 1.258 . S
C282 O276 1.247 . S
C282 O277 1.258 . S
C283 O280 1.247 . S
C283 O281 1.258 . S
C284 O286 1.247 . S
C284 O288 1.258 . S
C285 O292 1.247 . S
C285 O293 1.258 . S
O286 C284 1.247 . S
O286 Zn287 2.028 1_565 S
Zn287 O286 2.028 1_545 S
Zn287 O291 2.035 . S
Zn287 O293 2.035 . S
Zn287 O294 2.028 1_545 S
O288 C284 1.258 . S
O288 Zn289 2.035 1_565 S
Zn289 O288 2.035 1_545 S
Zn289 O290 2.028 . S
Zn289 O292 2.028 . S
Zn289 O295 2.035 1_545 S
O290 Zn289 2.028 . S
O290 C296 1.247 . S
O291 Zn287 2.035 . S
O291 C296 1.258 . S
O292 C285 1.247 . S
O292 Zn289 2.028 . S
O293 C285 1.258 . S
O293 Zn287 2.035 . S
O294 Zn287 2.028 1_565 S
O294 C297 1.247 . S
O295 Zn289 2.035 1_565 S
O295 C297 1.258 . S
C296 O290 1.247 . S
C296 O291 1.258 . S
C297 O294 1.247 . S
C297 O295 1.258 . S
C298 O300 1.247 . S
C298 O302 1.258 . S
C299 O306 1.247 . S
C299 O307 1.258 . S
O300 C298 1.247 . S
O300 Zn301 2.028 . S
Zn301 O300 2.028 . S
Zn301 O305 2.035 . S
Zn301 O307 2.035 1_554 S
Zn301 O308 2.028 1_554 S
O302 C298 1.258 . S
O302 Zn303 2.052 . S
Zn303 O302 2.052 . S
Zn303 O304 2.046 . S
Zn303 O306 2.011 1_554 S
Zn303 O309 2.018 1_554 S
O304 Zn303 2.046 . S
O304 C310 1.247 . S
O305 Zn301 2.035 . S
O305 C310 1.258 . S
O306 C299 1.247 . S
O306 Zn303 2.011 1_556 S
O307 C299 1.258 . S
O307 Zn301 2.035 1_556 S
O308 Zn301 2.028 1_556 S
O308 C311 1.247 . S
O309 Zn303 2.018 1_556 S
O309 C311 1.258 . S
C310 O304 1.247 . S
C310 O305 1.258 . S
C311 O308 1.247 . S
C311 O309 1.258 . S
C312 O314 1.247 . S
C312 O316 1.258 . S
C313 O320 1.247 . S
C313 O321 1.258 . S
O314 C312 1.247 . S
O314 Zn315 2.015 1_565 S
Zn315 O314 2.015 1_545 S
Zn315 O319 2.048 . S
Zn315 O321 2.048 . S
Zn315 O322 2.015 1_545 S
O316 C312 1.258 . S
O316 Zn317 2.035 1_565 S
Zn317 O316 2.035 1_545 S
Zn317 O318 2.028 . S
Zn317 O320 2.028 . S
Zn317 O323 2.035 1_545 S
O318 Zn317 2.028 . S
O318 C324 1.247 . S
O319 Zn315 2.048 . S
O319 C324 1.258 . S
O320 C313 1.247 . S
O320 Zn317 2.028 . S
O321 C313 1.258 . S
O321 Zn315 2.048 . S
O322 Zn315 2.015 1_565 S
O322 C325 1.247 . S
O323 Zn317 2.035 1_565 S
O323 C325 1.258 . S
C324 O318 1.247 . S
C324 O319 1.258 . S
C325 O322 1.247 . S
C325 O323 1.258 . S
C326 O328 1.247 . S
C326 O330 1.258 . S
C327 O334 1.247 . S
C327 O335 1.258 . S
O328 C326 1.247 . S
O328 Zn329 2.028 . S
Zn329 O328 2.028 . S
Zn329 O333 2.035 . S
Zn329 O335 2.035 1_554 S
Zn329 O336 2.028 1_554 S
O330 C326 1.258 . S
O330 Zn331 2.029 1_554 S
Zn331 O330 2.029 1_556 S
Zn331 O332 2.021 1_556 S
Zn331 O334 2.034 . S
Zn331 O337 2.042 . S
O332 Zn331 2.021 1_554 S
O332 C338 1.247 . S
O333 Zn329 2.035 . S
O333 C338 1.258 . S
O334 C327 1.247 . S
O334 Zn331 2.034 . S
O335 C327 1.258 . S
O335 Zn329 2.035 1_556 S
O336 Zn329 2.028 1_556 S
O336 C339 1.247 . S
O337 Zn331 2.042 . S
O337 C339 1.258 . S
C338 O332 1.247 . S
C338 O333 1.258 . S
C339 O336 1.247 . S
C339 O337 1.258 . S
C340 C341 1.369 . S
C340 C342 1.419 . S
C340 H344 0.930 . S
C341 C340 1.369 . S
C341 C350 1.429 . S
C342 C340 1.419 . S
C342 C343 1.363 . S
C342 H345 0.929 . S
C343 C342 1.363 . S
C343 C349 1.428 . S
H344 C340 0.930 . S
H345 C342 0.929 . S
S346 N347 1.613 . S
S346 N348 1.610 . S
N347 S346 1.613 . S
N347 C350 1.350 . S
N348 S346 1.610 . S
N348 C349 1.351 . S
C349 C343 1.428 . S
C349 N348 1.351 . S
C349 C350 1.434 . S
C350 C341 1.429 . S
C350 N347 1.350 . S
C350 C349 1.434 . S
C351 C352 1.369 . S
C351 C353 1.419 . S
C351 H355 0.930 . S
C352 C351 1.369 . S
C352 C361 1.429 . S
C353 C351 1.419 . S
C353 C354 1.363 . S
C353 H356 0.929 . S
C354 C353 1.363 . S
C354 C360 1.428 . S
H355 C351 0.930 . S
H356 C353 0.929 . S
S357 N358 1.613 . S
S357 N359 1.610 . S
N358 S357 1.613 . S
N358 C361 1.350 . S
N359 S357 1.610 . S
N359 C360 1.351 . S
C360 C354 1.428 . S
C360 N359 1.351 . S
C360 C361 1.434 . S
C361 C352 1.429 . S
C361 N358 1.350 . S
C361 C360 1.434 . S
C362 C363 1.369 . S
C362 C364 1.419 . S
C362 H366 0.930 . S
C363 C362 1.369 . S
C363 C372 1.429 . S
C364 C362 1.419 . S
C364 C365 1.363 . S
C364 H367 0.929 . S
C365 C364 1.363 . S
C365 C371 1.428 . S
H366 C362 0.930 . S
H367 C364 0.929 . S
S368 N369 1.613 . S
S368 N370 1.610 . S
N369 S368 1.613 . S
N369 C372 1.350 . S
N370 S368 1.610 . S
N370 C371 1.351 . S
C371 C365 1.428 . S
C371 N370 1.351 . S
C371 C372 1.434 . S
C372 C363 1.429 . S
C372 N369 1.350 . S
C372 C371 1.434 . S
C373 C374 1.369 . S
C373 C375 1.419 . S
C373 H377 0.930 . S
C374 C373 1.369 . S
C374 C383 1.429 . S
C375 C373 1.419 . S
C375 C376 1.363 . S
C375 H378 0.929 . S
C376 C375 1.363 . S
C376 C382 1.428 . S
H377 C373 0.930 . S
H378 C375 0.929 . S
S379 N380 1.613 . S
S379 N381 1.610 . S
N380 S379 1.613 . S
N380 C383 1.350 . S
N381 S379 1.610 . S
N381 C382 1.351 . S
C382 C376 1.428 . S
C382 N381 1.351 . S
C382 C383 1.434 . S
C383 C374 1.429 . S
C383 N380 1.350 . S
C383 C382 1.434 . S
C384 C385 1.369 . S
C384 C386 1.419 . S
C384 H388 0.930 . S
C385 C384 1.369 . S
C385 C394 1.429 . S
C386 C384 1.419 . S
C386 C387 1.363 . S
C386 H389 0.929 . S
C387 C386 1.363 . S
C387 C393 1.428 . S
H388 C384 0.930 . S
H389 C386 0.929 . S
S390 N391 1.613 . S
S390 N392 1.610 . S
N391 S390 1.613 . S
N391 C394 1.350 . S
N392 S390 1.610 . S
N392 C393 1.351 . S
C393 C387 1.428 . S
C393 N392 1.351 . S
C393 C394 1.434 . S
C394 C385 1.429 . S
C394 N391 1.350 . S
C394 C393 1.434 . S
C395 C396 1.369 . S
C395 C397 1.419 . S
C395 H399 0.930 . S
C396 C395 1.369 . S
C396 C405 1.429 . S
C397 C395 1.419 . S
C397 C398 1.363 . S
C397 H400 0.929 . S
C398 C397 1.363 . S
C398 C404 1.428 . S
H399 C395 0.930 . S
H400 C397 0.929 . S
S401 N402 1.613 . S
S401 N403 1.610 . S
N402 S401 1.613 . S
N402 C405 1.350 . S
N403 S401 1.610 . S
N403 C404 1.351 . S
C404 C398 1.428 . S
C404 N403 1.351 . S
C404 C405 1.434 . S
C405 C396 1.429 . S
C405 N402 1.350 . S
C405 C404 1.434 . S
C406 C407 1.369 . S
C406 C408 1.419 . S
C406 H410 0.930 . S
C407 C406 1.369 . S
C407 C416 1.429 . S
C408 C406 1.419 . S
C408 C409 1.363 . S
C408 H411 0.929 . S
C409 C408 1.363 . S
C409 C415 1.428 . S
H410 C406 0.930 . S
H411 C408 0.929 . S
S412 N413 1.613 . S
S412 N414 1.610 . S
N413 S412 1.613 . S
N413 C416 1.350 . S
N414 S412 1.610 . S
N414 C415 1.351 . S
C415 C409 1.428 . S
C415 N414 1.351 . S
C415 C416 1.434 . S
C416 C407 1.429 . S
C416 N413 1.350 . S
C416 C415 1.434 . S
C417 C418 1.369 . S
C417 C419 1.419 . S
C417 H421 0.930 . S
C418 C417 1.369 . S
C418 C427 1.429 . S
C419 C417 1.419 . S
C419 C420 1.363 . S
C419 H422 0.929 . S
C420 C419 1.363 . S
C420 C426 1.428 . S
H421 C417 0.930 . S
H422 C419 0.929 . S
S423 N424 1.613 . S
S423 N425 1.610 . S
N424 S423 1.613 . S
N424 C427 1.350 . S
N425 S423 1.610 . S
N425 C426 1.351 . S
C426 C420 1.428 . S
C426 N425 1.351 . S
C426 C427 1.434 . S
C427 C418 1.429 . S
C427 N424 1.350 . S
C427 C426 1.434 . S
C428 C429 1.369 . S
C428 C430 1.419 . S
C428 H432 0.930 . S
C429 C428 1.369 . S
C429 C438 1.429 . S
C430 C428 1.419 . S
C430 C431 1.363 . S
C430 H433 0.929 . S
C431 C430 1.363 . S
C431 C437 1.428 . S
H432 C428 0.930 . S
H433 C430 0.929 . S
S434 N435 1.613 . S
S434 N436 1.610 . S
N435 S434 1.613 . S
N435 C438 1.350 . S
N436 S434 1.610 . S
N436 C437 1.351 . S
C437 C431 1.428 . S
C437 N436 1.351 . S
C437 C438 1.434 . S
C438 C429 1.429 . S
C438 N435 1.350 . S
C438 C437 1.434 . S
C439 C440 1.369 . S
C439 C441 1.419 . S
C439 H443 0.930 . S
C440 C439 1.369 . S
C440 C449 1.429 . S
C441 C439 1.419 . S
C441 C442 1.363 . S
C441 H444 0.929 . S
C442 C441 1.363 . S
C442 C448 1.428 . S
H443 C439 0.930 . S
H444 C441 0.929 . S
S445 N446 1.613 . S
S445 N447 1.610 . S
N446 S445 1.613 . S
N446 C449 1.350 . S
N447 S445 1.610 . S
N447 C448 1.351 . S
C448 C442 1.428 . S
C448 N447 1.351 . S
C448 C449 1.434 . S
C449 C440 1.429 . S
C449 N446 1.350 . S
C449 C448 1.434 . S
C450 C451 1.369 . S
C450 C452 1.419 . S
C450 H454 0.930 . S
C451 C450 1.369 . S
C451 C460 1.429 . S
C452 C450 1.419 . S
C452 C453 1.363 . S
C452 H455 0.929 . S
C453 C452 1.363 . S
C453 C459 1.428 . S
H454 C450 0.930 . S
H455 C452 0.929 . S
S456 N457 1.613 . S
S456 N458 1.610 . S
N457 S456 1.613 . S
N457 C460 1.350 . S
N458 S456 1.610 . S
N458 C459 1.351 . S
C459 C453 1.428 . S
C459 N458 1.351 . S
C459 C460 1.434 . S
C460 C451 1.429 . S
C460 N457 1.350 . S
C460 C459 1.434 . S
C461 C462 1.369 . S
C461 C463 1.419 . S
C461 H465 0.930 . S
C462 C461 1.369 . S
C462 C471 1.429 . S
C463 C461 1.419 . S
C463 C464 1.363 . S
C463 H466 0.929 . S
C464 C463 1.363 . S
C464 C470 1.428 . S
H465 C461 0.930 . S
H466 C463 0.929 . S
S467 N468 1.613 . S
S467 N469 1.610 . S
N468 S467 1.613 . S
N468 C471 1.350 . S
N469 S467 1.610 . S
N469 C470 1.351 . S
C470 C464 1.428 . S
C470 N469 1.351 . S
C470 C471 1.434 . S
C471 C462 1.429 . S
C471 N468 1.350 . S
C471 C470 1.434 . S
C472 C473 1.369 . S
C472 C474 1.419 . S
C472 H476 0.930 . S
C473 C472 1.369 . S
C473 C482 1.429 . S
C474 C472 1.419 . S
C474 C475 1.363 . S
C474 H477 0.929 . S
C475 C474 1.363 . S
C475 C481 1.428 . S
H476 C472 0.930 . S
H477 C474 0.929 . S
S478 N479 1.613 . S
S478 N480 1.610 . S
N479 S478 1.613 . S
N479 C482 1.350 . S
N480 S478 1.610 . S
N480 C481 1.351 . S
C481 C475 1.428 . S
C481 N480 1.351 . S
C481 C482 1.434 . S
C482 C473 1.429 . S
C482 N479 1.350 . S
C482 C481 1.434 . S
C483 C484 1.369 . S
C483 C485 1.419 . S
C483 H487 0.930 . S
C484 C483 1.369 . S
C484 C493 1.429 . S
C485 C483 1.419 . S
C485 C486 1.363 . S
C485 H488 0.929 . S
C486 C485 1.363 . S
C486 C492 1.428 . S
H487 C483 0.930 . S
H488 C485 0.929 . S
S489 N490 1.613 . S
S489 N491 1.610 . S
N490 S489 1.613 . S
N490 C493 1.350 . S
N491 S489 1.610 . S
N491 C492 1.351 . S
C492 C486 1.428 . S
C492 N491 1.351 . S
C492 C493 1.434 . S
C493 C484 1.429 . S
C493 N490 1.350 . S
C493 C492 1.434 . S
C494 C495 1.369 . S
C494 C496 1.419 . S
C494 H498 0.930 . S
C495 C494 1.369 . S
C495 C504 1.429 . S
C496 C494 1.419 . S
C496 C497 1.363 . S
C496 H499 0.929 . S
C497 C496 1.363 . S
C497 C503 1.428 . S
H498 C494 0.930 . S
H499 C496 0.929 . S
S500 N501 1.613 . S
S500 N502 1.610 . S
N501 S500 1.613 . S
N501 C504 1.350 . S
N502 S500 1.610 . S
N502 C503 1.351 . S
C503 C497 1.428 . S
C503 N502 1.351 . S
C503 C504 1.434 . S
C504 C495 1.429 . S
C504 N501 1.350 . S
C504 C503 1.434 . S
C505 C506 1.369 . S
C505 C507 1.419 . S
C505 H509 0.930 . S
C506 C505 1.369 . S
C506 C515 1.429 . S
C507 C505 1.419 . S
C507 C508 1.363 . S
C507 H510 0.929 . S
C508 C507 1.363 . S
C508 C514 1.428 . S
H509 C505 0.930 . S
H510 C507 0.929 . S
S511 N512 1.613 . S
S511 N513 1.610 . S
N512 S511 1.613 . S
N512 C515 1.350 . S
N513 S511 1.610 . S
N513 C514 1.351 . S
C514 C508 1.428 . S
C514 N513 1.351 . S
C514 C515 1.434 . S
C515 C506 1.429 . S
C515 N512 1.350 . S
C515 C514 1.434 . S
C516 C517 1.369 . S
C516 C518 1.419 . S
C516 H520 0.930 . S
C517 C516 1.369 . S
C517 C526 1.429 . S
C518 C516 1.419 . S
C518 C519 1.363 . S
C518 H521 0.929 . S
C519 C518 1.363 . S
C519 C525 1.428 . S
H520 C516 0.930 . S
H521 C518 0.929 . S
S522 N523 1.613 . S
S522 N524 1.610 . S
N523 S522 1.613 . S
N523 C526 1.350 . S
N524 S522 1.610 . S
N524 C525 1.351 . S
C525 C519 1.428 . S
C525 N524 1.351 . S
C525 C526 1.434 . S
C526 C517 1.429 . S
C526 N523 1.350 . S
C526 C525 1.434 . S
C527 C528 1.369 . S
C527 C529 1.419 . S
C527 H531 0.930 . S
C528 C527 1.369 . S
C528 C537 1.429 . S
C529 C527 1.419 . S
C529 C530 1.363 . S
C529 H532 0.929 . S
C530 C529 1.363 . S
C530 C536 1.428 . S
H531 C527 0.930 . S
H532 C529 0.929 . S
S533 N534 1.613 . S
S533 N535 1.610 . S
N534 S533 1.613 . S
N534 C537 1.350 . S
N535 S533 1.610 . S
N535 C536 1.351 . S
C536 C530 1.428 . S
C536 N535 1.351 . S
C536 C537 1.434 . S
C537 C528 1.429 . S
C537 N534 1.350 . S
C537 C536 1.434 . S
C538 C539 1.369 . S
C538 C540 1.419 . S
C538 H542 0.930 . S
C539 C538 1.369 . S
C539 C548 1.429 . S
C540 C538 1.419 . S
C540 C541 1.363 . S
C540 H543 0.929 . S
C541 C540 1.363 . S
C541 C547 1.428 . S
H542 C538 0.930 . S
H543 C540 0.929 . S
S544 N545 1.613 . S
S544 N546 1.610 . S
N545 S544 1.613 . S
N545 C548 1.350 . S
N546 S544 1.610 . S
N546 C547 1.351 . S
C547 C541 1.428 . S
C547 N546 1.351 . S
C547 C548 1.434 . S
C548 C539 1.429 . S
C548 N545 1.350 . S
C548 C547 1.434 . S
C549 C550 1.369 . S
C549 C551 1.419 . S
C549 H553 0.930 . S
C550 C549 1.369 . S
C550 C559 1.429 . S
C551 C549 1.419 . S
C551 C552 1.363 . S
C551 H554 0.929 . S
C552 C551 1.363 . S
C552 C558 1.428 . S
H553 C549 0.930 . S
H554 C551 0.929 . S
S555 N556 1.613 . S
S555 N557 1.610 . S
N556 S555 1.613 . S
N556 C559 1.350 . S
N557 S555 1.610 . S
N557 C558 1.351 . S
C558 C552 1.428 . S
C558 N557 1.351 . S
C558 C559 1.434 . S
C559 C550 1.429 . S
C559 N556 1.350 . S
C559 C558 1.434 . S
C560 C561 1.369 . S
C560 C562 1.419 . S
C560 H564 0.930 . S
C561 C560 1.369 . S
C561 C570 1.429 . S
C562 C560 1.419 . S
C562 C563 1.363 . S
C562 H565 0.929 . S
C563 C562 1.363 . S
C563 C569 1.428 . S
H564 C560 0.930 . S
H565 C562 0.929 . S
S566 N567 1.613 . S
S566 N568 1.610 . S
N567 S566 1.613 . S
N567 C570 1.350 . S
N568 S566 1.610 . S
N568 C569 1.351 . S
C569 C563 1.428 . S
C569 N568 1.351 . S
C569 C570 1.434 . S
C570 C561 1.429 . S
C570 N567 1.350 . S
C570 C569 1.434 . S
C571 C572 1.369 . S
C571 C573 1.419 . S
C571 H575 0.930 . S
C572 C571 1.369 . S
C572 C581 1.429 . S
C573 C571 1.419 . S
C573 C574 1.363 . S
C573 H576 0.929 . S
C574 C573 1.363 . S
C574 C580 1.428 . S
H575 C571 0.930 . S
H576 C573 0.929 . S
S577 N578 1.613 . S
S577 N579 1.610 . S
N578 S577 1.613 . S
N578 C581 1.350 . S
N579 S577 1.610 . S
N579 C580 1.351 . S
C580 C574 1.428 . S
C580 N579 1.351 . S
C580 C581 1.434 . S
C581 C572 1.429 . S
C581 N578 1.350 . S
C581 C580 1.434 . S
C582 C583 1.369 . S
C582 C584 1.419 . S
C582 H586 0.930 . S
C583 C582 1.369 . S
C583 C592 1.429 . S
C584 C582 1.419 . S
C584 C585 1.363 . S
C584 H587 0.929 . S
C585 C584 1.363 . S
C585 C591 1.428 . S
H586 C582 0.930 . S
H587 C584 0.929 . S
S588 N589 1.613 . S
S588 N590 1.610 . S
N589 S588 1.613 . S
N589 C592 1.350 . S
N590 S588 1.610 . S
N590 C591 1.351 . S
C591 C585 1.428 . S
C591 N590 1.351 . S
C591 C592 1.434 . S
C592 C583 1.429 . S
C592 N589 1.350 . S
C592 C591 1.434 . S
C593 C594 1.369 . S
C593 C595 1.419 . S
C593 H597 0.930 . S
C594 C593 1.369 . S
C594 C603 1.429 . S
C595 C593 1.419 . S
C595 C596 1.363 . S
C595 H598 0.929 . S
C596 C595 1.363 . S
C596 C602 1.428 . S
H597 C593 0.930 . S
H598 C595 0.929 . S
S599 N600 1.613 . S
S599 N601 1.610 . S
N600 S599 1.613 . S
N600 C603 1.350 . S
N601 S599 1.610 . S
N601 C602 1.351 . S
C602 C596 1.428 . S
C602 N601 1.351 . S
C602 C603 1.434 . S
C603 C594 1.429 . S
C603 N600 1.350 . S
C603 C602 1.434 . S
C343 C268 1.513 . S
C341 C23 1.498 . S
C354 C271 1.500 . S
C352 C49 1.485 . S
C365 C269 1.507 . S
C363 C87 1.471 . S
C376 C270 1.510 . S
C374 C125 1.474 . S
C387 C285 1.511 . S
C385 C29 1.493 . S
C398 C299 1.499 . S
C396 C61 1.470 . S
C407 C81 1.469 . S
C409 C325 1.502 . S
C420 C339 1.502 . S
C418 C113 1.487 . S
C431 C284 1.494 . S
C429 C55 1.471 . S
C440 C93 1.480 . S
C442 C298 1.512 . S
C453 C324 1.499 . S
C451 C119 1.469 . S
C464 C338 1.510 . S
C462 C17 1.493 . S
C473 C151 1.473 . S
C475 C283 1.512 . S
C486 C256 1.499 . S
C484 C177 1.471 . S
C495 C215 1.494 . S
C497 C282 1.508 . S
C506 C253 1.488 . S
C508 C257 1.512 . S
C519 C312 1.512 . S
C517 C157 1.463 . S
C530 C326 1.499 . S
C528 C189 1.466 . S
C541 C296 1.503 . S
C539 C209 1.487 . S
C550 C241 1.485 . S
C552 C310 1.503 . S
C563 C313 1.493 . S
C561 C183 1.464 . S
C574 C327 1.513 . S
C572 C221 1.485 . S
C585 C297 1.498 . S
C583 C247 1.480 . S
C594 C145 1.483 . S
C596 C311 1.508 . S
