# Generated by pormake.
# Topology ftw, (4,12)-cn, num edge types: 1
# Building blocks:
#     Node 0, Type 0, BuildingBlock: NAWXER_clean_linker_0, # of connection points: 4
#     Node 1, Type 0, BuildingBlock: NAWXER_clean_linker_0, # of connection points: 4
#     Node 2, Type 0, BuildingBlock: NAWXER_clean_linker_0, # of connection points: 4
#     Node 3, Type 1, BuildingBlock: QEWDON_clean_sbu_0, # of connection points: 12
#     Edge 4, Type (0, 1), BuildingBlock: XIVTED_clean_linker_0, # of connection points: 2
#     Edge 5, Type (0, 1), BuildingBlock: XIVTED_clean_linker_0, # of connection points: 2
#     Edge 6, Type (0, 1), BuildingBlock: XIVTED_clean_linker_0, # of connection points: 2
#     Edge 7, Type (0, 1), BuildingBlock: XIVTED_clean_linker_0, # of connection points: 2
#     Edge 8, Type (0, 1), BuildingBlock: XIVTED_clean_linker_0, # of connection points: 2
#     Edge 9, Type (0, 1), BuildingBlock: XIVTED_clean_linker_0, # of connection points: 2
#     Edge 10, Type (0, 1), BuildingBlock: XIVTED_clean_linker_0, # of connection points: 2
#     Edge 11, Type (0, 1), BuildingBlock: XIVTED_clean_linker_0, # of connection points: 2
#     Edge 12, Type (0, 1), BuildingBlock: XIVTED_clean_linker_0, # of connection points: 2
#     Edge 13, Type (0, 1), BuildingBlock: XIVTED_clean_linker_0, # of connection points: 2
#     Edge 14, Type (0, 1), BuildingBlock: XIVTED_clean_linker_0, # of connection points: 2
#     Edge 15, Type (0, 1), BuildingBlock: XIVTED_clean_linker_0, # of connection points: 2
# Relax obj value: 0.055
# Max RMSD: 0.158
# Mean RMSD: 0.118
data_MOF--net-ftw--node1-QEWDON_clean_sbu_0--node2-NAWXER_clean_linker_0--edge1-XIVTED_clean_linker_0
_symmetry_space_group_name_H-M    P1
_symmetry_Int_Tables_number       1
_symmetry_cell_setting            triclinic
loop_
_symmetry_equiv_pos_as_xyz
'x, y, z'
_cell_length_a     27.230927
_cell_length_b     29.842548
_cell_length_c     29.232876
_cell_angle_alpha  90.123193
_cell_angle_beta   89.859972
_cell_angle_gamma 89.811262
loop_
_atom_site_label
_atom_site_type_symbol
_atom_site_fract_x
_atom_site_fract_y
_atom_site_fract_z
_atom_type_partial_charge
C0 C 0.03971 0.62459 0.61054 0.0
C1 C 0.0028 0.63051 0.64395 0.0
C2 C 0.03601 0.59051 0.57745 0.0
C3 C -0.00457 0.56149 0.57719 0.0
C4 C 0.96178 0.602 0.64282 0.0
C5 C 0.9584 0.56776 0.61017 0.0
C6 C -0.00628 0.5213 0.5469 0.0
C7 C 0.98076 0.63846 0.4485 0.0
C8 C 0.00921 0.63599 0.40844 0.0
C9 C 0.97886 0.60206 0.47881 0.0
C10 C 0.00684 0.563 0.47049 0.0
C11 C 0.03706 0.59723 0.4 0.0
C12 C 0.03617 0.56138 0.43075 0.0
C13 C 0.00167 0.52164 0.49893 0.0
C14 C 0.95236 0.33263 0.43983 0.0
C15 C 0.98526 0.32906 0.4026 0.0
C16 C 0.95586 0.36799 0.47141 0.0
C17 C -0.00697 0.40037 0.46731 0.0
C18 C 0.0228 0.36121 0.39898 0.0
C19 C 0.02649 0.39633 0.43076 0.0
C20 C -0.00563 0.44111 0.49722 0.0
C21 C 0.00446 0.32778 0.60258 0.0
C22 C 0.9674 0.32873 0.63635 0.0
C23 C 0.00957 0.36326 0.5714 0.0
C24 C 0.97759 0.40032 0.57326 0.0
C25 C 0.93514 0.36563 0.63747 0.0
C26 C 0.9403 0.40091 0.60652 0.0
C27 C 0.98563 0.44109 0.54504 0.0
H28 H 0.07169 0.64605 0.61024 0.0
H29 H 0.06561 0.58592 0.55306 0.0
H30 H 0.93298 0.60507 0.66826 0.0
H31 H 0.92703 0.54553 0.6112 0.0
H32 H 0.95842 0.66782 0.45537 0.0
H33 H 0.95389 0.60403 0.50756 0.0
H34 H 0.05928 0.59454 0.36931 0.0
H35 H 0.05777 0.53179 0.42285 0.0
H36 H 0.92325 0.30842 0.44435 0.0
H37 H 0.92834 0.37068 0.49804 0.0
H38 H 0.04842 0.36032 0.37062 0.0
H39 H 0.05515 0.42102 0.42616 0.0
H40 H 0.02983 0.29984 0.60048 0.0
H41 H 0.03943 0.36234 0.54688 0.0
H42 H 0.90676 0.36815 0.66337 0.0
H43 H 0.91555 0.42931 0.60919 0.0
N44 N 0.98571 0.48112 0.56749 0.0
N45 N 0.00197 0.48143 0.47654 0.0
C46 C 0.57756 0.03716 0.67682 0.0
C47 C 0.60978 0.0019 0.68769 0.0
C48 C 0.5456 0.03347 0.63954 0.0
C49 C 0.54591 -0.00525 0.6121 0.0
C50 C 0.60945 0.96293 0.66059 0.0
C51 C 0.57827 0.95966 0.62277 0.0
C52 C 0.51496 -0.00806 0.57063 0.0
C53 C 0.40757 0.97367 0.68789 0.0
C54 C 0.36945 0.00559 0.68954 0.0
C55 C 0.43962 0.97195 0.65039 0.0
C56 C 0.43437 0.00239 0.6141 0.0
C57 C 0.36523 0.03668 0.65368 0.0
C58 C 0.39712 0.03489 0.61629 0.0
C59 C 0.46349 -0.00226 0.57152 0.0
C60 C 0.40094 0.95374 0.37935 0.0
C61 C 0.36563 0.98762 0.37288 0.0
C62 C 0.43287 0.95532 0.41687 0.0
C63 C 0.42981 0.99069 0.44866 0.0
C64 C 0.36263 0.02276 0.40491 0.0
C65 C 0.39409 0.02406 0.44252 0.0
C66 C 0.46117 -0.00814 0.49003 0.0
C67 C 0.5647 0.01502 0.37213 0.0
C68 C 0.60024 0.9812 0.36643 0.0
C69 C 0.53556 0.01645 0.41161 0.0
C70 C 0.54143 0.98409 0.44607 0.0
C71 C 0.60615 0.94903 0.40112 0.0
C72 C 0.57729 0.95068 0.44066 0.0
C73 C 0.51271 0.98655 0.48905 0.0
H74 H 0.5771 0.06753 0.69719 0.0
H75 H 0.52143 0.06125 0.6315 0.0
H76 H 0.63426 0.93544 0.66799 0.0
H77 H 0.5794 0.92969 0.60181 0.0
H78 H 0.41148 0.94892 0.71468 0.0
H79 H 0.46711 0.94569 0.64896 0.0
H80 H 0.3369 0.06223 0.65424 0.0
H81 H 0.39222 0.05861 0.58864 0.0
H82 H 0.40411 0.92628 0.35522 0.0
H83 H 0.45936 0.92856 0.42145 0.0
H84 H 0.33533 0.04899 0.4013 0.0
H85 H 0.39058 0.05133 0.46686 0.0
H86 H 0.55928 0.04022 0.34601 0.0
H87 H 0.50901 0.0433 0.41553 0.0
H88 H 0.63379 0.923 0.39811 0.0
H89 H 0.58295 0.92579 0.46707 0.0
N90 N 0.53757 0.98642 0.52943 0.0
N91 N 0.43874 -0.00244 0.5312 0.0
C92 C 0.34757 0.39014 0.99593 0.0
C93 C 0.3184 0.39688 0.0351 0.0
C94 C 0.39178 0.41301 0.99066 0.0
C95 C 0.40787 0.44273 0.02464 0.0
C96 C 0.33473 0.42641 0.06927 0.0
C97 C 0.37895 0.44941 0.06389 0.0
C98 C 0.45208 0.47021 0.01735 0.0
C99 C 0.53047 0.33643 0.04382 0.0
C100 C 0.53745 0.31299 1.00236 0.0
C101 C 0.5151 0.38113 0.04384 0.0
C102 C 0.50728 0.40366 1.00253 0.0
C103 C 0.52692 0.33543 0.96104 0.0
C104 C 0.51297 0.38057 0.96114 0.0
C105 C 0.49744 0.45219 1.00305 0.0
C106 C 0.63659 0.60145 0.03185 0.0
C107 C 0.662 0.6047 0.98997 0.0
C108 C 0.59402 0.57599 0.03534 0.0
C109 C 0.57627 0.5527 0.99724 0.0
C110 C 0.6445 0.58051 0.952 0.0
C111 C 0.6022 0.55431 0.95579 0.0
C112 C 0.53156 0.52552 1.0014 0.0
C113 C 0.47784 0.66939 0.99724 0.0
C114 C 0.44743 0.68258 0.03395 0.0
C115 C 0.49215 0.62458 0.99199 0.0
C116 C 0.4772 0.59215 0.02388 0.0
C117 C 0.43395 0.6502 0.06653 0.0
C118 C 0.44867 0.60563 0.06153 0.0
C119 C 0.48623 0.54364 0.01625 0.0
H120 H 0.33617 0.36723 0.96923 0.0
H121 H 0.41253 0.40846 0.95937 0.0
H122 H 0.3128 0.43251 0.09963 0.0
H123 H 0.39039 0.47275 0.0902 0.0
H124 H 0.53898 0.32117 0.07639 0.0
H125 H 0.51137 0.39874 0.07613 0.0
H126 H 0.5304 0.31855 0.9284 0.0
H127 H 0.50699 0.39759 0.92892 0.0
H128 H 0.64971 0.61833 0.06225 0.0
H129 H 0.5751 0.57416 0.06793 0.0
H130 H 0.66286 0.58242 0.91917 0.0
H131 H 0.5891 0.53609 0.92617 0.0
H132 H 0.48932 0.69338 0.97167 0.0
H133 H 0.513 0.61513 0.9619 0.0
H134 H 0.40981 0.65861 0.09477 0.0
H135 H 0.43634 0.5813 0.08647 0.0
N136 N 0.44825 0.51515 0.02356 0.0
N137 N 0.53559 0.48046 0.99555 0.0
Zn138 Zn 0.04045 0.08508 0.9877 0.0
Zn139 Zn 0.03231 0.08214 0.09815 0.0
O140 O 0.03101 0.04394 0.04177 0.0
H141 H 0.03927 0.0125 0.04006 0.0
C142 C 0.93921 0.11197 0.89926 0.0
O143 O 0.97623 0.08733 0.91333 0.0
Zn144 Zn 0.93877 0.89945 0.08997 0.0
Zn145 Zn 0.93204 0.92982 0.98522 0.0
O146 O 0.95823 0.94955 0.04815 0.0
H147 H 0.96324 0.98008 0.05797 0.0
Zn148 Zn 0.87848 0.0694 0.97655 0.0
O149 O 0.91738 0.06889 0.03646 0.0
Zn150 Zn 0.86952 0.05358 0.08718 0.0
H151 H 0.90289 0.06995 1.00637 0.0
Zn152 Zn 0.08824 0.89341 0.98754 0.0
O153 O 0.04543 0.90375 0.04454 0.0
H154 H 0.06227 0.89821 0.01597 0.0
Zn155 Zn 0.08921 0.9206 0.09774 0.0
C156 C 0.03487 0.84928 0.90688 0.0
O157 O 0.00329 0.88245 0.91077 0.0
O158 O 0.05737 0.14946 0.00693 0.0
O159 O 0.05601 0.14464 0.08288 0.0
O160 O 0.92145 0.86149 0.97945 0.0
O161 O 0.92052 0.84487 0.0534 0.0
O162 O 0.8046 0.07368 0.9905 0.0
O163 O 0.79942 0.06851 0.0664 0.0
C164 C 0.09845 0.01549 0.14088 0.0
O165 O 0.1613 0.89364 1.00582 0.0
O166 O 0.16105 0.90791 0.08082 0.0
O167 O 0.87336 0.96347 0.95454 0.0
C168 C 0.06347 0.16691 0.04632 0.0
O169 O 0.08264 0.0604 0.93405 0.0
C170 C 0.8588 0.95674 0.1251 0.0
O171 O 0.89827 0.1097 0.92022 0.0
C172 C 0.91588 0.83331 0.01165 0.0
O173 O 0.07067 0.84697 0.93479 0.0
C174 C 0.93117 0.10153 0.15025 0.0
O175 O 0.08166 0.0554 0.14132 0.0
O176 O 0.0784 0.98647 0.11477 0.0
C177 C 0.77946 0.07474 0.02732 0.0
O178 O 0.87832 0.91791 0.1252 0.0
O179 O 0.87905 0.98745 0.10149 0.0
C180 C 0.02739 0.86788 0.1605 0.0
O181 O 0.88658 0.09118 0.14309 0.0
O182 O 0.9629 0.08599 0.12229 0.0
C183 C 0.1839 0.8985 0.04367 0.0
O184 O 0.07047 0.88174 0.15154 0.0
O185 O -0.00828 0.87882 0.13461 0.0
C186 C 0.87749 0.987 0.91853 0.0
O187 O 0.92149 -0.00515 0.90191 0.0
C188 C 0.12409 0.04267 0.94271 0.0
O189 O 0.13806 0.03887 0.98553 0.0
H190 H 0.89914 0.29401 0.36914 0.0
H191 H 0.02157 0.13711 0.176 0.0
H192 H 0.05633 0.28328 0.35236 0.0
H193 H 0.86769 0.13835 0.21174 0.0
H194 H 0.03676 0.19143 0.23813 0.0
H195 H 0.88849 0.23786 0.30973 0.0
C196 C 0.93161 0.27957 0.35348 0.0
C197 C 0.97879 0.29358 0.36651 0.0
C198 C -0.00024 0.17959 0.2323 0.0
C199 C 0.96661 0.22912 0.29669 0.0
C200 C -0.00892 0.14859 0.19683 0.0
C201 C 0.94323 0.1331 0.1883 0.0
C202 C 0.96028 0.19527 0.25928 0.0
C203 C 0.9052 0.14923 0.21661 0.0
C204 C 0.92543 0.24755 0.31904 0.0
C205 C 0.01916 0.27409 0.34343 0.0
N206 N 0.91453 0.17928 0.25041 0.0
N207 N 0.01217 0.243 0.3097 0.0
H208 H 0.62501 0.90778 0.31547 0.0
H209 H 0.81668 0.03663 0.15483 0.0
H210 H 0.64709 0.0507 0.32279 0.0
H211 H 0.79862 0.89319 0.15984 0.0
H212 H 0.748 0.04486 0.20881 0.0
H213 H 0.6819 0.90404 0.25116 0.0
C214 C 0.64186 0.93842 0.30347 0.0
C215 C 0.63176 0.9795 0.32491 0.0
C216 C 0.75898 0.01166 0.19772 0.0
C217 C 0.69716 0.9756 0.25094 0.0
C218 C 0.79815 0.00699 0.1668 0.0
C219 C 0.81414 0.96421 0.15328 0.0
C220 C 0.73558 0.9732 0.21482 0.0
C221 C 0.78829 0.9269 0.16979 0.0
C222 C 0.67425 0.93635 0.26657 0.0
C223 C 0.65384 0.01832 0.3072 0.0
N224 N 0.75069 0.93227 0.19975 0.0
N225 N 0.68593 0.01539 0.27149 0.0
H226 H 0.03994 0.72273 0.41895 0.0
H227 H 0.95552 0.80442 0.17117 0.0
H228 H 0.97669 0.63238 0.3204 0.0
H229 H 0.08245 0.86001 0.23833 0.0
H230 H 0.94814 0.74933 0.23317 0.0
H231 H 0.04154 0.78181 0.36015 0.0
C232 C 0.02604 0.71556 0.38504 0.0
C233 C 0.00836 0.67274 0.37428 0.0
C234 C 0.97737 0.77383 0.23437 0.0
C235 C 0.00924 0.73996 0.30745 0.0
C236 C 0.98144 0.80541 0.19921 0.0
C237 C 0.0198 0.83675 0.19947 0.0
C238 C 0.01116 0.77424 0.27063 0.0
C239 C 0.05253 0.83627 0.2366 0.0
C240 C 0.02711 0.74909 0.35156 0.0
C241 C -0.00916 0.66497 0.32985 0.0
N242 N 0.04734 0.80567 0.27076 0.0
N243 N -0.00856 0.6983 0.29812 0.0
H244 H 0.31242 0.91672 0.3384 0.0
H245 H 0.16954 0.07445 0.16193 0.0
H246 H 0.34164 0.05705 0.31676 0.0
H247 H 0.12932 0.93647 0.1828 0.0
H248 H 0.23879 0.06453 0.21272 0.0
H249 H 0.25145 0.91919 0.27642 0.0
C250 C 0.30643 0.94787 0.32027 0.0
C251 C 0.33173 0.9869 0.33309 0.0
C252 C 0.21516 0.03612 0.20622 0.0
C253 C 0.26223 0.98995 0.2625 0.0
C254 C 0.17537 0.04178 0.17713 0.0
C255 C 0.14304 0.00627 0.16837 0.0
C256 C 0.22292 -0.00535 0.22752 0.0
C257 C 0.1532 0.96461 0.18849 0.0
C258 C 0.27152 0.94928 0.28509 0.0
C259 C 0.32241 0.02636 0.30864 0.0
N260 N 0.19201 0.96 0.21766 0.0
N261 N 0.2884 0.02687 0.27481 0.0
H262 H 0.93169 0.68676 0.67894 0.0
H263 H 0.10165 0.78546 0.87888 0.0
H264 H 0.08469 0.65226 0.69435 0.0
H265 H 0.95773 0.83774 0.84754 0.0
H266 H 0.09448 0.73345 0.81435 0.0
H267 H 0.93911 0.73947 0.74283 0.0
C268 C 0.96689 0.69025 0.69572 0.0
C269 C 0.00761 0.66486 0.68108 0.0
C270 C 0.06446 0.7563 0.82156 0.0
C271 C 0.01635 0.72534 0.75471 0.0
C272 C 0.06842 0.78593 0.8586 0.0
C273 C 0.03028 0.81622 0.86878 0.0
C274 C 0.02183 0.7565 0.79452 0.0
C275 C -0.01181 0.8152 0.84101 0.0
C276 C 0.97114 0.72052 0.73216 0.0
C277 C 0.0524 0.67135 0.70399 0.0
N278 N 0.98508 0.78586 0.80534 0.0
N279 N 0.05547 0.70065 0.73972 0.0
H280 H 0.3855 -0.00745 0.78153 0.0
H281 H 0.10703 0.04665 0.85057 0.0
H282 H 0.27007 0.01836 0.68402 0.0
H283 H 0.21851 0.01103 0.94891 0.0
H284 H 0.16574 0.03267 0.78899 0.0
H285 H 0.32459 -0.00449 0.84324 0.0
C286 C 0.34735 -0.00146 0.77304 0.0
C287 C 0.33303 0.00575 0.72752 0.0
C288 C 0.17735 0.02763 0.82401 0.0
C289 C 0.2632 0.00949 0.79798 0.0
C290 C 0.14377 0.03558 0.85923 0.0
C291 C 0.15798 0.03042 0.90503 0.0
C292 C 0.22565 0.01464 0.83455 0.0
C293 C 0.20605 0.01576 0.91412 0.0
C294 C 0.31261 0.00037 0.8083 0.0
C295 C 0.28307 0.01364 0.71864 0.0
N296 N 0.23828 0.00873 0.87921 0.0
N297 N 0.2501 0.0155 0.7535 0.0
H298 H 0.88353 0.29189 0.67268 0.0
H299 H 0.02329 0.13291 0.85153 0.0
H300 H 0.0415 0.28325 0.68105 0.0
H301 H 0.86731 0.15893 0.85448 0.0
H302 H 0.03078 0.18281 0.78534 0.0
H303 H 0.87707 0.23802 0.73503 0.0
C304 C 0.91695 0.27872 0.68758 0.0
C305 C 0.96318 0.29267 0.67163 0.0
C306 C -0.00507 0.17755 0.80048 0.0
C307 C 0.95593 0.23021 0.74325 0.0
C308 C -0.0094 0.14903 0.83828 0.0
C309 C 0.94461 0.14181 0.85886 0.0
C310 C 0.95293 0.19883 0.78283 0.0
C311 C 0.90357 0.16362 0.84005 0.0
C312 C 0.91319 0.24776 0.72319 0.0
C313 C 0.00506 0.27339 0.69182 0.0
N314 N 0.90872 0.19102 0.80322 0.0
N315 N 0.00045 0.24338 0.72665 0.0
H316 H 0.67487 0.06961 0.70462 0.0
H317 H 0.78358 0.95668 0.93082 0.0
H318 H 0.62445 0.94332 0.75812 0.0
H319 H 0.87039 0.04245 0.84386 0.0
H320 H 0.71436 0.96558 0.87848 0.0
H321 H 0.7367 0.07284 0.76574 0.0
C322 C 0.67646 0.04289 0.72961 0.0
C323 C 0.64478 0.00601 0.72629 0.0
C324 C 0.74843 0.98279 0.87117 0.0
C325 C 0.71473 0.00974 0.79624 0.0
C326 C 0.78793 0.97799 0.90114 0.0
C327 C 0.83321 -0.0017 0.89137 0.0
C328 C 0.75389 0.00861 0.83143 0.0
C329 C 0.8364 0.02571 0.85244 0.0
C330 C 0.71178 0.04467 0.76424 0.0
C331 C 0.6485 0.97212 0.75929 0.0
N332 N 0.79735 0.02988 0.82373 0.0
N333 N 0.68279 0.97482 0.79293 0.0
H334 H 0.24782 0.38417 0.97011 0.0
H335 H 0.10012 0.20902 0.12239 0.0
H336 H 0.2813 0.35554 0.1113 0.0
H337 H 0.07967 0.22657 0.97702 0.0
H338 H 0.15332 0.27474 0.12319 0.0
H339 H 0.17432 0.33801 0.97632 0.0
C340 C 0.23955 0.36827 1.00249 0.0
C341 C 0.27116 0.37295 0.04 0.0
C342 C 0.13655 0.26459 0.09128 0.0
C343 C 0.18694 0.32036 0.04748 0.0
C344 C 0.10596 0.22718 0.09079 0.0
C345 C 0.0863 0.21165 0.04934 0.0
C346 C 0.14742 0.28655 0.05006 0.0
C347 C 0.0948 0.2368 0.00961 0.0
C348 C 0.19743 0.34217 1.00611 0.0
C349 C 0.258 0.35267 0.0815 0.0
N350 N 0.1253 0.27261 0.01084 0.0
N351 N 0.21717 0.32674 0.08397 0.0
H352 H 0.41682 0.73473 0.96209 0.0
H353 H 0.24028 0.87777 0.11873 0.0
H354 H 0.42565 0.73463 0.10962 0.0
H355 H 0.24714 0.88878 0.97162 0.0
H356 H 0.31851 0.83727 0.11746 0.0
H357 H 0.3665 0.8019 0.9658 0.0
C358 C 0.40928 0.7493 0.99533 0.0
C359 C 0.42492 0.72817 0.03566 0.0
C360 C 0.30342 0.8494 0.08554 0.0
C361 C 0.36547 0.80486 0.04015 0.0
C362 C 0.25881 0.87275 0.08627 0.0
C363 C 0.23643 0.8856 0.04509 0.0
C364 C 0.32552 0.83874 0.04335 0.0
C365 C 0.26239 0.87849 1.00413 0.0
C366 C 0.38004 0.78769 0.99742 0.0
C367 C 0.4132 0.74882 0.07763 0.0
N368 N 0.30501 0.8548 1.00423 0.0
N369 N 0.3834 0.78547 0.07882 0.0
H370 H 0.59731 0.27461 0.93685 0.0
H371 H 0.71837 0.10219 0.09739 0.0
H372 H 0.53013 0.24593 0.06777 0.0
H373 H 0.7247 0.08844 0.95037 0.0
H374 H 0.64639 0.15095 0.08907 0.0
H375 H 0.64165 0.20441 0.94127 0.0
C376 C 0.59076 0.25339 0.96616 0.0
C377 C 0.55987 0.26713 1.00222 0.0
C378 C 0.66287 0.13627 0.05878 0.0
C379 C 0.61283 0.1866 0.00812 0.0
C380 C 0.70391 0.10831 0.06348 0.0
C381 C 0.72854 0.0922 0.02445 0.0
C382 C 0.64702 0.14849 0.01482 0.0
C383 C 0.70776 0.10102 0.98141 0.0
C384 C 0.61658 0.21313 0.96873 0.0
C385 C 0.55454 0.23784 0.03969 0.0
N386 N 0.66902 0.12945 0.9777 0.0
N387 N 0.58155 0.19946 0.04212 0.0
H388 H 0.74663 0.59137 0.93882 0.0
H389 H 0.90008 0.76508 0.07175 0.0
H390 H 0.67788 0.6851 0.03228 0.0
H391 H 0.88361 0.7998 0.92912 0.0
H392 H 0.84472 0.70199 0.06021 0.0
H393 H 0.81986 0.63964 0.93719 0.0
C394 C 0.74663 0.62198 0.95875 0.0
C395 C 0.70608 0.63376 0.98634 0.0
C396 C 0.85465 0.72274 0.03127 0.0
C397 C 0.78965 0.68751 0.9854 0.0
C398 C 0.8861 0.75876 0.03769 0.0
C399 C 0.89537 0.78857 1.00161 0.0
C400 C 0.833 0.71612 0.98849 0.0
C401 C 0.87671 0.77811 0.95805 0.0
C402 C 0.78845 0.64913 0.95789 0.0
C403 C 0.70856 0.6737 0.0117 0.0
N404 N 0.84529 0.74311 0.95283 0.0
N405 N 0.74985 0.6988 0.01103 0.0
loop_
_geom_bond_atom_site_label_1
_geom_bond_atom_site_label_2
_geom_bond_distance
_geom_bond_site_symmetry_2
_ccdc_geom_bond_type
C0 C1 1.384 1_455 S
C0 C2 1.384 . S
C0 H28 0.931 . S
C1 C0 1.384 1_655 S
C1 C4 1.382 . S
C2 C0 1.384 . S
C2 C3 1.381 1_455 S
C2 H29 0.930 . S
C3 C2 1.381 1_655 S
C3 C5 1.381 . S
C3 C6 1.487 . S
C4 C1 1.382 . S
C4 C5 1.387 . S
C4 H30 0.930 . S
C5 C3 1.381 . S
C5 C4 1.387 . S
C5 H31 0.931 . S
C6 C3 1.487 . S
C6 C13 1.399 1_655 S
C6 N44 1.343 . S
C7 C8 1.384 1_655 S
C7 C9 1.384 . S
C7 H32 0.931 . S
C8 C7 1.384 1_455 S
C8 C11 1.382 . S
C9 C7 1.384 . S
C9 C10 1.381 1_655 S
C9 H33 0.930 . S
C10 C9 1.381 1_455 S
C10 C12 1.381 . S
C10 C13 1.487 . S
C11 C8 1.382 . S
C11 C12 1.387 . S
C11 H34 0.930 . S
C12 C10 1.381 . S
C12 C11 1.387 . S
C12 H35 0.931 . S
C13 C6 1.399 1_455 S
C13 C10 1.487 . S
C13 N45 1.343 . S
C14 C15 1.384 1_655 S
C14 C16 1.384 . S
C14 H36 0.931 . S
C15 C14 1.384 1_455 S
C15 C18 1.382 . S
C16 C14 1.384 . S
C16 C17 1.381 1_655 S
C16 H37 0.930 . S
C17 C16 1.381 1_455 S
C17 C19 1.381 . S
C17 C20 1.487 . S
C18 C15 1.382 . S
C18 C19 1.387 . S
C18 H38 0.930 . S
C19 C17 1.381 . S
C19 C18 1.387 . S
C19 H39 0.931 . S
C20 C17 1.487 . S
C20 C27 1.399 1_455 S
C20 N45 1.343 . S
C21 C22 1.384 1_455 S
C21 C23 1.384 . S
C21 H40 0.931 . S
C22 C21 1.384 1_655 S
C22 C25 1.382 . S
C23 C21 1.384 . S
C23 C24 1.381 1_455 S
C23 H41 0.930 . S
C24 C23 1.381 1_655 S
C24 C26 1.381 . S
C24 C27 1.487 . S
C25 C22 1.382 . S
C25 C26 1.387 . S
C25 H42 0.930 . S
C26 C24 1.381 . S
C26 C25 1.387 . S
C26 H43 0.931 . S
C27 C20 1.399 1_655 S
C27 C24 1.487 . S
C27 N44 1.343 . S
H28 C0 0.931 . S
H29 C2 0.930 . S
H30 C4 0.930 . S
H31 C5 0.931 . S
H32 C7 0.931 . S
H33 C9 0.930 . S
H34 C11 0.930 . S
H35 C12 0.931 . S
H36 C14 0.931 . S
H37 C16 0.930 . S
H38 C18 0.930 . S
H39 C19 0.931 . S
H40 C21 0.931 . S
H41 C23 0.930 . S
H42 C25 0.930 . S
H43 C26 0.931 . S
N44 C6 1.343 . S
N44 C27 1.343 . S
N45 C13 1.343 . S
N45 C20 1.343 . S
C46 C47 1.384 1_545 S
C46 C48 1.384 . S
C46 H74 0.931 . S
C47 C46 1.384 1_565 S
C47 C50 1.382 . S
C48 C46 1.384 . S
C48 C49 1.381 1_545 S
C48 H75 0.930 . S
C49 C48 1.381 1_565 S
C49 C51 1.381 . S
C49 C52 1.487 . S
C50 C47 1.382 . S
C50 C51 1.387 . S
C50 H76 0.930 . S
C51 C49 1.381 . S
C51 C50 1.387 . S
C51 H77 0.931 . S
C52 C49 1.487 . S
C52 C59 1.399 1_565 S
C52 N90 1.343 . S
C53 C54 1.384 1_565 S
C53 C55 1.384 . S
C53 H78 0.931 . S
C54 C53 1.384 1_545 S
C54 C57 1.382 . S
C55 C53 1.384 . S
C55 C56 1.381 1_565 S
C55 H79 0.930 . S
C56 C55 1.381 1_545 S
C56 C58 1.381 . S
C56 C59 1.487 . S
C57 C54 1.382 . S
C57 C58 1.387 . S
C57 H80 0.930 . S
C58 C56 1.381 . S
C58 C57 1.387 . S
C58 H81 0.931 . S
C59 C52 1.399 1_545 S
C59 C56 1.487 . S
C59 N91 1.343 . S
C60 C61 1.384 1_565 S
C60 C62 1.384 . S
C60 H82 0.931 . S
C61 C60 1.384 1_545 S
C61 C64 1.382 . S
C62 C60 1.384 . S
C62 C63 1.381 1_565 S
C62 H83 0.930 . S
C63 C62 1.381 1_545 S
C63 C65 1.381 . S
C63 C66 1.487 . S
C64 C61 1.382 . S
C64 C65 1.387 . S
C64 H84 0.930 . S
C65 C63 1.381 . S
C65 C64 1.387 . S
C65 H85 0.931 . S
C66 C63 1.487 . S
C66 C73 1.399 1_545 S
C66 N91 1.343 . S
C67 C68 1.384 1_545 S
C67 C69 1.384 . S
C67 H86 0.931 . S
C68 C67 1.384 1_565 S
C68 C71 1.382 . S
C69 C67 1.384 . S
C69 C70 1.381 1_545 S
C69 H87 0.930 . S
C70 C69 1.381 1_565 S
C70 C72 1.381 . S
C70 C73 1.487 . S
C71 C68 1.382 . S
C71 C72 1.387 . S
C71 H88 0.930 . S
C72 C70 1.381 . S
C72 C71 1.387 . S
C72 H89 0.931 . S
C73 C66 1.399 1_565 S
C73 C70 1.487 . S
C73 N90 1.343 . S
H74 C46 0.931 . S
H75 C48 0.930 . S
H76 C50 0.930 . S
H77 C51 0.931 . S
H78 C53 0.931 . S
H79 C55 0.930 . S
H80 C57 0.930 . S
H81 C58 0.931 . S
H82 C60 0.931 . S
H83 C62 0.930 . S
H84 C64 0.930 . S
H85 C65 0.931 . S
H86 C67 0.931 . S
H87 C69 0.930 . S
H88 C71 0.930 . S
H89 C72 0.931 . S
N90 C52 1.343 . S
N90 C73 1.343 . S
N91 C59 1.343 . S
N91 C66 1.343 . S
C92 C93 1.384 1_556 S
C92 C94 1.384 . S
C92 H120 0.931 . S
C93 C92 1.384 1_554 S
C93 C96 1.382 . S
C94 C92 1.384 . S
C94 C95 1.381 1_556 S
C94 H121 0.930 . S
C95 C94 1.381 1_554 S
C95 C97 1.381 . S
C95 C98 1.487 . S
C96 C93 1.382 . S
C96 C97 1.387 . S
C96 H122 0.930 . S
C97 C95 1.381 . S
C97 C96 1.387 . S
C97 H123 0.931 . S
C98 C95 1.487 . S
C98 C105 1.399 . S
C98 N136 1.343 . S
C99 C100 1.384 . S
C99 C101 1.384 . S
C99 H124 0.931 . S
C100 C99 1.384 . S
C100 C103 1.382 1_554 S
C101 C99 1.384 . S
C101 C102 1.381 . S
C101 H125 0.930 . S
C102 C101 1.381 . S
C102 C104 1.381 1_554 S
C102 C105 1.487 . S
C103 C100 1.382 1_556 S
C103 C104 1.387 . S
C103 H126 0.930 . S
C104 C102 1.381 1_556 S
C104 C103 1.387 . S
C104 H127 0.931 . S
C105 C98 1.399 . S
C105 C102 1.487 . S
C105 N137 1.343 . S
C106 C107 1.384 . S
C106 C108 1.384 . S
C106 H128 0.931 . S
C107 C106 1.384 . S
C107 C110 1.382 1_554 S
C108 C106 1.384 . S
C108 C109 1.381 . S
C108 H129 0.930 . S
C109 C108 1.381 . S
C109 C111 1.381 1_554 S
C109 C112 1.487 . S
C110 C107 1.382 1_556 S
C110 C111 1.387 . S
C110 H130 0.930 . S
C111 C109 1.381 1_556 S
C111 C110 1.387 . S
C111 H131 0.931 . S
C112 C109 1.487 . S
C112 C119 1.399 . S
C112 N137 1.343 . S
C113 C114 1.384 1_556 S
C113 C115 1.384 . S
C113 H132 0.931 . S
C114 C113 1.384 1_554 S
C114 C117 1.382 . S
C115 C113 1.384 . S
C115 C116 1.381 1_556 S
C115 H133 0.930 . S
C116 C115 1.381 1_554 S
C116 C118 1.381 . S
C116 C119 1.487 . S
C117 C114 1.382 . S
C117 C118 1.387 . S
C117 H134 0.930 . S
C118 C116 1.381 . S
C118 C117 1.387 . S
C118 H135 0.931 . S
C119 C112 1.399 . S
C119 C116 1.487 . S
C119 N136 1.343 . S
H120 C92 0.931 . S
H121 C94 0.930 . S
H122 C96 0.930 . S
H123 C97 0.931 . S
H124 C99 0.931 . S
H125 C101 0.930 . S
H126 C103 0.930 . S
H127 C104 0.931 . S
H128 C106 0.931 . S
H129 C108 0.930 . S
H130 C110 0.930 . S
H131 C111 0.931 . S
H132 C113 0.931 . S
H133 C115 0.930 . S
H134 C117 0.930 . S
H135 C118 0.931 . S
N136 C98 1.343 . S
N136 C119 1.343 . S
N137 C105 1.343 . S
N137 C112 1.343 . S
Zn138 O140 1.933 1_556 S
Zn138 O158 1.985 . S
Zn138 O169 1.955 . S
Zn139 O140 1.911 . S
Zn139 O159 1.970 . S
Zn139 O175 1.945 . S
Zn139 O182 1.981 . S
O140 Zn138 1.933 1_554 S
O140 Zn139 1.911 . S
O140 H141 0.841 . S
H141 O140 0.841 . S
C142 O143 1.246 . S
C142 O171 1.276 1_455 S
O143 C142 1.246 . S
Zn144 O146 1.911 . S
Zn144 O161 1.970 . S
Zn144 O178 1.945 . S
Zn144 O185 1.981 . S
Zn145 O146 1.933 1_556 S
Zn145 O160 1.985 . S
Zn145 O167 1.955 . S
O146 Zn144 1.911 . S
O146 Zn145 1.933 1_554 S
O146 H147 0.841 . S
H147 O146 0.841 . S
Zn148 O149 1.933 1_556 S
Zn148 O162 1.985 . S
Zn148 O171 1.955 . S
O149 Zn148 1.933 1_554 S
O149 Zn150 1.911 . S
O149 H151 0.841 . S
Zn150 O149 1.911 . S
Zn150 O163 1.970 . S
Zn150 O179 1.981 . S
Zn150 O181 1.945 . S
H151 O149 0.841 . S
Zn152 O153 1.933 1_556 S
Zn152 O165 1.985 . S
Zn152 O173 1.955 . S
O153 Zn152 1.933 1_554 S
O153 H154 0.841 . S
O153 Zn155 1.911 . S
H154 O153 0.841 . S
Zn155 O153 1.911 . S
Zn155 O166 1.970 . S
Zn155 O176 1.981 . S
Zn155 O184 1.945 . S
C156 O157 1.246 . S
C156 O173 1.276 1_655 S
O157 C156 1.246 . S
O158 Zn138 1.985 . S
O158 C168 1.245 1_556 S
O159 Zn139 1.970 . S
O159 C168 1.263 . S
O160 Zn145 1.985 . S
O160 C172 1.245 1_556 S
O161 Zn144 1.970 . S
O161 C172 1.263 . S
O162 Zn148 1.985 . S
O162 C177 1.245 1_556 S
O163 Zn150 1.970 . S
O163 C177 1.263 . S
C164 O175 1.262 . S
C164 O176 1.245 1_545 S
O165 Zn152 1.985 . S
O165 C183 1.245 1_556 S
O166 Zn155 1.970 . S
O166 C183 1.263 . S
O167 Zn145 1.955 . S
O167 C186 1.276 1_565 S
C168 O158 1.245 1_554 S
C168 O159 1.263 . S
O169 Zn138 1.955 . S
O169 C188 1.276 1_545 S
C170 O178 1.262 1_545 S
C170 O179 1.245 . S
O171 C142 1.276 1_655 S
O171 Zn148 1.955 . S
C172 O160 1.245 1_554 S
C172 O161 1.263 . S
O173 Zn152 1.955 . S
O173 C156 1.276 1_455 S
C174 O181 1.262 1_455 S
C174 O182 1.245 . S
O175 Zn139 1.945 . S
O175 C164 1.262 . S
O176 Zn155 1.981 . S
O176 C164 1.245 1_565 S
C177 O162 1.245 1_554 S
C177 O163 1.263 . S
O178 Zn144 1.945 . S
O178 C170 1.262 1_565 S
O179 Zn150 1.981 . S
O179 C170 1.245 . S
C180 O184 1.262 . S
C180 O185 1.245 1_455 S
O181 Zn150 1.945 . S
O181 C174 1.262 1_655 S
O182 Zn139 1.981 . S
O182 C174 1.245 . S
C183 O165 1.245 1_554 S
C183 O166 1.263 . S
O184 Zn155 1.945 . S
O184 C180 1.262 . S
O185 Zn144 1.981 . S
O185 C180 1.245 1_655 S
C186 O167 1.276 1_545 S
C186 O187 1.246 . S
O187 C186 1.246 . S
C188 O169 1.276 1_565 S
C188 O189 1.246 . S
O189 C188 1.246 . S
H190 C196 0.930 . S
H191 C200 0.930 . S
H192 C205 0.929 . S
H193 C203 0.929 . S
H194 C198 0.929 . S
H195 C204 0.929 . S
C196 H190 0.930 . S
C196 C197 1.354 1_655 S
C196 C204 1.378 . S
C197 C196 1.354 1_455 S
C197 C205 1.447 . S
C198 H194 0.929 . S
C198 C200 1.378 . S
C198 C202 1.350 . S
C199 C202 1.463 . S
C199 C204 1.350 1_455 S
C199 N207 1.427 . S
C200 H191 0.930 . S
C200 C198 1.378 . S
C200 C201 1.367 . S
C201 C200 1.367 . S
C201 C203 1.433 1_455 S
C202 C198 1.350 . S
C202 C199 1.463 . S
C202 N206 1.427 1_455 S
C203 H193 0.929 . S
C203 C201 1.433 1_655 S
C203 N206 1.384 . S
C204 H195 0.929 . S
C204 C196 1.378 . S
C204 C199 1.350 1_655 S
C205 H192 0.929 . S
C205 C197 1.447 . S
C205 N207 1.384 . S
N206 C202 1.427 1_655 S
N206 C203 1.384 . S
N207 C199 1.427 . S
N207 C205 1.384 . S
H208 C214 0.930 . S
H209 C218 0.930 . S
H210 C223 0.929 . S
H211 C221 0.929 . S
H212 C216 0.929 . S
H213 C222 0.929 . S
C214 H208 0.930 . S
C214 C215 1.365 1_565 S
C214 C222 1.378 . S
C215 C214 1.365 1_545 S
C215 C223 1.435 . S
C216 H212 0.929 . S
C216 C218 1.378 . S
C216 C220 1.350 . S
C217 C220 1.463 . S
C217 C222 1.350 1_545 S
C217 N225 1.427 . S
C218 H209 0.930 . S
C218 C216 1.378 . S
C218 C219 1.367 . S
C219 C218 1.367 . S
C219 C221 1.433 1_545 S
C220 C216 1.350 . S
C220 C217 1.463 . S
C220 N224 1.427 1_545 S
C221 H211 0.929 . S
C221 C219 1.433 1_565 S
C221 N224 1.384 . S
C222 H213 0.929 . S
C222 C214 1.378 . S
C222 C217 1.350 1_565 S
C223 H210 0.929 . S
C223 C215 1.435 . S
C223 N225 1.384 . S
N224 C220 1.427 1_565 S
N224 C221 1.384 . S
N225 C217 1.427 . S
N225 C223 1.384 . S
H226 C232 0.930 . S
H227 C236 0.928 1_455 S
H228 C241 0.929 . S
H229 C239 0.929 . S
H230 C234 0.929 . S
H231 C240 0.929 . S
C232 H226 0.930 . S
C232 C233 1.367 . S
C232 C240 1.378 . S
C233 C232 1.367 . S
C233 C241 1.433 1_655 S
C234 H230 0.929 . S
C234 C236 1.377 1_455 S
C234 C238 1.350 1_455 S
C235 C238 1.463 . S
C235 C240 1.350 . S
C235 N243 1.427 1_655 S
C236 H227 0.928 1_655 S
C236 C234 1.377 1_655 S
C236 C237 1.369 . S
C237 C236 1.369 . S
C237 C239 1.433 . S
C238 C234 1.350 1_655 S
C238 C235 1.463 . S
C238 N242 1.427 . S
C239 H229 0.929 . S
C239 C237 1.433 . S
C239 N242 1.384 . S
C240 H231 0.929 . S
C240 C232 1.378 . S
C240 C235 1.350 . S
C241 H228 0.929 . S
C241 C233 1.433 1_455 S
C241 N243 1.384 . S
N242 C238 1.427 . S
N242 C239 1.384 . S
N243 C235 1.427 1_455 S
N243 C241 1.384 . S
H244 C250 0.930 . S
H245 C254 0.930 . S
H246 C259 0.929 . S
H247 C257 0.929 . S
H248 C252 0.929 . S
H249 C258 0.929 . S
C250 H244 0.930 . S
C250 C251 1.367 . S
C250 C258 1.378 . S
C251 C250 1.367 . S
C251 C259 1.433 1_565 S
C252 H248 0.929 . S
C252 C254 1.378 . S
C252 C256 1.350 1_545 S
C253 C256 1.463 . S
C253 C258 1.350 . S
C253 N261 1.427 1_565 S
C254 H245 0.930 . S
C254 C252 1.378 . S
C254 C255 1.367 1_545 S
C255 C254 1.367 1_565 S
C255 C257 1.433 . S
C256 C252 1.350 1_565 S
C256 C253 1.463 . S
C256 N260 1.427 . S
C257 H247 0.929 . S
C257 C255 1.433 . S
C257 N260 1.384 . S
C258 H249 0.929 . S
C258 C250 1.378 . S
C258 C253 1.350 . S
C259 H246 0.929 . S
C259 C251 1.433 1_545 S
C259 N261 1.384 . S
N260 C256 1.427 . S
N260 C257 1.384 . S
N261 C253 1.427 1_545 S
N261 C259 1.384 . S
H262 C268 0.930 . S
H263 C272 0.930 . S
H264 C277 0.929 . S
H265 C275 0.929 . S
H266 C270 0.929 . S
H267 C276 0.929 . S
C268 H262 0.930 . S
C268 C269 1.367 . S
C268 C276 1.378 . S
C269 C268 1.367 . S
C269 C277 1.433 1_655 S
C270 H266 0.929 . S
C270 C272 1.378 . S
C270 C274 1.350 1_455 S
C271 C274 1.463 . S
C271 C276 1.350 . S
C271 N279 1.427 1_655 S
C272 H263 0.930 . S
C272 C270 1.378 . S
C272 C273 1.367 1_455 S
C273 C272 1.367 1_655 S
C273 C275 1.433 . S
C274 C270 1.350 1_655 S
C274 C271 1.463 . S
C274 N278 1.427 . S
C275 H265 0.929 . S
C275 C273 1.433 . S
C275 N278 1.384 . S
C276 H267 0.929 . S
C276 C268 1.378 . S
C276 C271 1.350 . S
C277 H264 0.929 . S
C277 C269 1.433 1_455 S
C277 N279 1.384 . S
N278 C274 1.427 . S
N278 C275 1.384 . S
N279 C271 1.427 1_455 S
N279 C277 1.384 . S
H280 C286 0.930 . S
H281 C290 0.930 . S
H282 C295 0.929 . S
H283 C293 0.929 . S
H284 C288 0.929 . S
H285 C294 0.929 . S
C286 H280 0.930 . S
C286 C287 1.367 . S
C286 C294 1.378 . S
C287 C286 1.367 . S
C287 C295 1.433 1_565 S
C288 H284 0.929 . S
C288 C290 1.378 . S
C288 C292 1.350 1_545 S
C289 C292 1.463 . S
C289 C294 1.350 . S
C289 N297 1.427 1_565 S
C290 H281 0.930 . S
C290 C288 1.378 . S
C290 C291 1.367 1_545 S
C291 C290 1.367 1_565 S
C291 C293 1.433 . S
C292 C288 1.350 1_565 S
C292 C289 1.463 . S
C292 N296 1.427 . S
C293 H283 0.929 . S
C293 C291 1.433 . S
C293 N296 1.384 . S
C294 H285 0.929 . S
C294 C286 1.378 . S
C294 C289 1.350 . S
C295 H282 0.929 . S
C295 C287 1.433 1_545 S
C295 N297 1.384 . S
N296 C292 1.427 . S
N296 C293 1.384 . S
N297 C289 1.427 1_545 S
N297 C295 1.384 . S
H298 C304 0.930 . S
H299 C308 0.930 . S
H300 C313 0.929 . S
H301 C311 0.929 . S
H302 C306 0.929 . S
H303 C312 0.929 . S
C304 H298 0.930 . S
C304 C305 1.367 1_655 S
C304 C312 1.378 . S
C305 C304 1.367 1_455 S
C305 C313 1.433 . S
C306 H302 0.929 . S
C306 C308 1.378 . S
C306 C310 1.350 . S
C307 C310 1.463 . S
C307 C312 1.350 1_455 S
C307 N315 1.427 . S
C308 H299 0.930 . S
C308 C306 1.378 . S
C308 C309 1.367 . S
C309 C308 1.367 . S
C309 C311 1.433 1_455 S
C310 C306 1.350 . S
C310 C307 1.463 . S
C310 N314 1.427 1_455 S
C311 H301 0.929 . S
C311 C309 1.433 1_655 S
C311 N314 1.384 . S
C312 H303 0.929 . S
C312 C304 1.378 . S
C312 C307 1.350 1_655 S
C313 H300 0.929 . S
C313 C305 1.433 . S
C313 N315 1.384 . S
N314 C310 1.427 1_655 S
N314 C311 1.384 . S
N315 C307 1.427 . S
N315 C313 1.384 . S
H316 C322 0.930 . S
H317 C326 0.930 . S
H318 C331 0.929 . S
H319 C329 0.929 . S
H320 C324 0.929 . S
H321 C330 0.929 . S
C322 H316 0.930 . S
C322 C323 1.367 . S
C322 C330 1.378 . S
C323 C322 1.367 . S
C323 C331 1.433 1_545 S
C324 H320 0.929 . S
C324 C326 1.378 . S
C324 C328 1.350 1_565 S
C325 C328 1.463 . S
C325 C330 1.350 . S
C325 N333 1.427 1_545 S
C326 H317 0.930 . S
C326 C324 1.378 . S
C326 C327 1.367 1_565 S
C327 C326 1.367 1_545 S
C327 C329 1.433 . S
C328 C324 1.350 1_545 S
C328 C325 1.463 . S
C328 N332 1.427 . S
C329 H319 0.929 . S
C329 C327 1.433 . S
C329 N332 1.384 . S
C330 H321 0.929 . S
C330 C322 1.378 . S
C330 C325 1.350 . S
C331 H318 0.929 . S
C331 C323 1.433 1_565 S
C331 N333 1.384 . S
N332 C328 1.427 . S
N332 C329 1.384 . S
N333 C325 1.427 1_565 S
N333 C331 1.384 . S
H334 C340 0.930 . S
H335 C344 0.930 . S
H336 C349 0.929 . S
H337 C347 0.929 . S
H338 C342 0.929 . S
H339 C348 0.929 . S
C340 H334 0.930 . S
C340 C341 1.367 1_556 S
C340 C348 1.378 . S
C341 C340 1.367 1_554 S
C341 C349 1.433 . S
C342 H338 0.929 . S
C342 C344 1.378 . S
C342 C346 1.350 . S
C343 C346 1.463 . S
C343 C348 1.350 1_554 S
C343 N351 1.427 . S
C344 H335 0.930 . S
C344 C342 1.378 . S
C344 C345 1.367 . S
C345 C344 1.367 . S
C345 C347 1.433 1_554 S
C346 C342 1.350 . S
C346 C343 1.463 . S
C346 N350 1.427 1_554 S
C347 H337 0.929 . S
C347 C345 1.433 1_556 S
C347 N350 1.384 . S
C348 H339 0.929 . S
C348 C340 1.378 . S
C348 C343 1.350 1_556 S
C349 H336 0.929 . S
C349 C341 1.433 . S
C349 N351 1.384 . S
N350 C346 1.427 1_556 S
N350 C347 1.384 . S
N351 C343 1.427 . S
N351 C349 1.384 . S
H352 C358 0.930 . S
H353 C362 0.930 . S
H354 C367 0.929 . S
H355 C365 0.929 . S
H356 C360 0.929 . S
H357 C366 0.929 . S
C358 H352 0.930 . S
C358 C359 1.367 1_556 S
C358 C366 1.378 . S
C359 C358 1.367 1_554 S
C359 C367 1.433 . S
C360 H356 0.929 . S
C360 C362 1.378 . S
C360 C364 1.350 . S
C361 C364 1.463 . S
C361 C366 1.350 1_554 S
C361 N369 1.427 . S
C362 H353 0.930 . S
C362 C360 1.378 . S
C362 C363 1.367 . S
C363 C362 1.367 . S
C363 C365 1.433 1_554 S
C364 C360 1.350 . S
C364 C361 1.463 . S
C364 N368 1.427 1_554 S
C365 H355 0.929 . S
C365 C363 1.433 1_556 S
C365 N368 1.384 . S
C366 H357 0.929 . S
C366 C358 1.378 . S
C366 C361 1.350 1_556 S
C367 H354 0.929 . S
C367 C359 1.433 . S
C367 N369 1.384 . S
N368 C364 1.427 1_556 S
N368 C365 1.384 . S
N369 C361 1.427 . S
N369 C367 1.384 . S
H370 C376 0.930 . S
H371 C380 0.930 . S
H372 C385 0.929 . S
H373 C383 0.929 . S
H374 C378 0.929 . S
H375 C384 0.929 . S
C376 H370 0.930 . S
C376 C377 1.367 1_556 S
C376 C384 1.378 . S
C377 C376 1.367 1_554 S
C377 C385 1.433 . S
C378 H374 0.929 . S
C378 C380 1.378 . S
C378 C382 1.350 . S
C379 C382 1.463 . S
C379 C384 1.350 1_554 S
C379 N387 1.427 . S
C380 H371 0.930 . S
C380 C378 1.378 . S
C380 C381 1.367 . S
C381 C380 1.367 . S
C381 C383 1.433 1_554 S
C382 C378 1.350 . S
C382 C379 1.463 . S
C382 N386 1.427 1_554 S
C383 H373 0.929 . S
C383 C381 1.433 1_556 S
C383 N386 1.384 . S
C384 H375 0.929 . S
C384 C376 1.378 . S
C384 C379 1.350 1_556 S
C385 H372 0.929 . S
C385 C377 1.433 . S
C385 N387 1.384 . S
N386 C382 1.427 1_556 S
N386 C383 1.384 . S
N387 C379 1.427 . S
N387 C385 1.384 . S
H388 C394 0.930 . S
H389 C398 0.930 . S
H390 C403 0.929 . S
H391 C401 0.929 . S
H392 C396 0.929 . S
H393 C402 0.929 . S
C394 H388 0.930 . S
C394 C395 1.367 1_556 S
C394 C402 1.378 . S
C395 C394 1.367 1_554 S
C395 C403 1.433 . S
C396 H392 0.929 . S
C396 C398 1.378 . S
C396 C400 1.350 . S
C397 C400 1.463 . S
C397 C402 1.350 1_554 S
C397 N405 1.427 . S
C398 H389 0.930 . S
C398 C396 1.378 . S
C398 C399 1.367 . S
C399 C398 1.367 . S
C399 C401 1.433 1_554 S
C400 C396 1.350 . S
C400 C397 1.463 . S
C400 N404 1.427 1_554 S
C401 H391 0.929 . S
C401 C399 1.433 1_556 S
C401 N404 1.384 . S
C402 H393 0.929 . S
C402 C394 1.378 . S
C402 C397 1.350 1_556 S
C403 H390 0.929 . S
C403 C395 1.433 . S
C403 N405 1.384 . S
N404 C400 1.427 1_556 S
N404 C401 1.384 . S
N405 C397 1.427 . S
N405 C403 1.384 . S
C201 C174 1.889 . S
C197 C15 1.967 . S
C219 C170 1.400 . S
C215 C68 1.478 1_545 S
C237 C180 1.882 1_655 S
C233 C8 1.972 1_655 S
C255 C164 1.382 1_565 S
C251 C61 1.473 1_565 S
C269 C1 2.086 . S
C273 C156 1.980 . S
C291 C188 1.492 . S
C287 C54 1.597 1_565 S
C305 C22 2.088 1_455 S
C309 C142 1.990 . S
C323 C47 1.597 1_545 S
C327 C186 1.484 . S
C341 C93 1.015 . S
C345 C168 0.993 . S
C359 C114 1.018 . S
C363 C183 1.000 . S
C381 C177 1.002 . S
C377 C100 1.016 . S
C399 C172 0.989 . S
C395 C107 1.014 . S
