# Generated by pormake.
# Topology zzz, (3,6)-cn, num edge types: 1
# Building blocks:
#     Node 0, Type 0, BuildingBlock: BETDIP_clean_linker_0, # of connection points: 3
#     Node 1, Type 0, BuildingBlock: BETDIP_clean_linker_0, # of connection points: 3
#     Node 2, Type 0, BuildingBlock: BETDIP_clean_linker_0, # of connection points: 3
#     Node 3, Type 0, BuildingBlock: BETDIP_clean_linker_0, # of connection points: 3
#     Node 4, Type 0, BuildingBlock: BETDIP_clean_linker_0, # of connection points: 3
#     Node 5, Type 0, BuildingBlock: BETDIP_clean_linker_0, # of connection points: 3
#     Node 6, Type 0, BuildingBlock: BETDIP_clean_linker_0, # of connection points: 3
#     Node 7, Type 0, BuildingBlock: BETDIP_clean_linker_0, # of connection points: 3
#     Node 8, Type 1, BuildingBlock: NUHQIS_clean_sbu_0, # of connection points: 6
#     Node 9, Type 1, BuildingBlock: NUHQIS_clean_sbu_0, # of connection points: 6
#     Node 10, Type 1, BuildingBlock: NUHQIS_clean_sbu_0, # of connection points: 6
#     Node 11, Type 1, BuildingBlock: NUHQIS_clean_sbu_0, # of connection points: 6
#     Edge 12, Type (0, 1), None
#     Edge 13, Type (0, 1), None
#     Edge 14, Type (0, 1), None
#     Edge 15, Type (0, 1), None
#     Edge 16, Type (0, 1), None
#     Edge 17, Type (0, 1), None
#     Edge 18, Type (0, 1), None
#     Edge 19, Type (0, 1), None
#     Edge 20, Type (0, 1), None
#     Edge 21, Type (0, 1), None
#     Edge 22, Type (0, 1), None
#     Edge 23, Type (0, 1), None
#     Edge 24, Type (0, 1), None
#     Edge 25, Type (0, 1), None
#     Edge 26, Type (0, 1), None
#     Edge 27, Type (0, 1), None
#     Edge 28, Type (0, 1), None
#     Edge 29, Type (0, 1), None
#     Edge 30, Type (0, 1), None
#     Edge 31, Type (0, 1), None
#     Edge 32, Type (0, 1), None
#     Edge 33, Type (0, 1), None
#     Edge 34, Type (0, 1), None
#     Edge 35, Type (0, 1), None
# Relax obj value: 0.631
# Max RMSD: 0.221
# Mean RMSD: 0.129
data_MOF--net-zzz--node1-NUHQIS_clean_sbu_0--node2-BETDIP_clean_linker_0--edge1-none
_symmetry_space_group_name_H-M    P1
_symmetry_Int_Tables_number       1
_symmetry_cell_setting            triclinic
loop_
_symmetry_equiv_pos_as_xyz
'x, y, z'
_cell_length_a     23.165766
_cell_length_b     22.981126
_cell_length_c     6.587351
_cell_angle_alpha  90.221487
_cell_angle_beta   89.189237
_cell_angle_gamma 89.880701
loop_
_atom_site_label
_atom_site_type_symbol
_atom_site_fract_x
_atom_site_fract_y
_atom_site_fract_z
_atom_type_partial_charge
H0 H 0.81775 0.62383 0.76613 0.0
H1 H 0.74773 0.5257 0.2592 0.0
H2 H 0.88433 0.53401 0.5378 0.0
H3 H 0.68513 0.59016 0.26488 0.0
C4 C 0.67278 0.61144 0.40115 0.0
C5 C 0.82215 0.592 0.64541 0.0
C6 C 0.87847 0.556 0.61938 0.0
C7 C 0.77566 0.58218 0.50368 0.0
C8 C 0.78173 0.53767 0.35712 0.0
C9 C 0.82948 0.50223 0.33572 0.0
C10 C 0.88012 0.5123 0.43965 0.0
N11 N 0.72105 0.61312 0.52193 0.0
H12 H 0.96481 0.81033 0.73355 0.0
H13 H 0.06628 0.74559 0.21799 0.0
H14 H 0.05598 0.87985 0.5283 0.0
H15 H 0.96471 0.71882 0.15461 0.0
C16 C 0.97446 0.68732 0.27265 0.0
C17 C 0.99795 0.81634 0.61827 0.0
C18 C 1.03309 0.87493 0.60379 0.0
C19 C 1.01064 0.77088 0.46639 0.0
C20 C 0.05554 0.77982 0.3241 0.0
C21 C 0.09169 0.82724 0.32244 0.0
C22 C 0.08001 0.87686 0.43553 0.0
N23 N 0.98604 0.71235 0.45798 0.0
H24 H 0.77952 0.96968 0.73749 0.0
H25 H 0.84015 0.07291 0.22494 0.0
H26 H 0.70392 0.05345 0.52462 0.0
H27 H 0.87007 0.96603 0.16239 0.0
C28 C 0.90045 0.9801 0.27744 0.0
C29 C 0.77142 1.00098 0.61901 0.0
C30 C 0.71096 1.03149 0.60173 0.0
C31 C 0.8162 1.01544 0.46822 0.0
C32 C 0.80524 0.05903 0.32469 0.0
C33 C 0.75463 0.09057 0.31491 0.0
C34 C 0.7056 0.07685 0.42905 0.0
N35 N 0.87566 0.99418 0.46185 0.0
H36 H 0.6361 0.78439 0.72747 0.0
H37 H 0.51802 0.83956 0.25328 0.0
H38 H 0.52963 0.72031 0.62578 0.0
H39 H 0.61064 0.87562 0.1501 0.0
C40 C 0.60798 0.90646 0.27589 0.0
C41 C 0.59736 0.77819 0.64034 0.0
C42 C 0.55724 0.72363 0.67652 0.0
C43 C 0.57984 0.82059 0.48596 0.0
C44 C 0.5303 0.80921 0.36999 0.0
C45 C 0.49008 0.76657 0.41797 0.0
C46 C 0.50064 0.72343 0.55813 0.0
N47 N 0.6032 0.87935 0.46186 0.0
H48 H 0.23843 0.45591 0.36763 0.0
H49 H 0.30856 0.60621 0.62782 0.0
H50 H 0.23677 0.61445 1.03299 0.0
H51 H 0.38644 0.56929 0.70497 0.0
C52 C 0.3909 0.52371 0.67031 0.0
C53 C 0.25022 0.50126 0.35342 0.0
C54 C 0.22083 0.53866 0.21076 0.0
C55 C 0.29601 0.5257 0.47509 0.0
C56 C 0.29536 0.58618 0.48883 0.0
C57 C 0.27568 0.62032 0.32805 0.0
C58 C 0.24866 0.59099 0.16805 0.0
N59 N 0.34255 0.49368 0.57401 0.0
H60 H 0.12916 0.26979 0.19637 0.0
H61 H 1.00505 0.34562 0.61914 0.0
H62 H 0.96136 0.19498 0.27106 0.0
H63 H 0.11956 0.36438 0.75664 0.0
C64 C 0.10689 0.39526 0.64052 0.0
C65 C 0.08698 0.26972 0.26902 0.0
C66 C 0.04705 0.2225 0.2296 0.0
C67 C 0.07058 0.31674 0.40756 0.0
C68 C 1.01744 0.31281 0.50825 0.0
C69 C 0.97675 0.27256 0.44845 0.0
C70 C 0.9921 0.22818 0.31094 0.0
N71 N 0.10221 0.37048 0.43866 0.0
H72 H 0.31199 0.14079 0.17029 0.0
H73 H 0.23876 1.01278 0.58337 0.0
H74 H 0.39447 0.97655 0.25576 0.0
H75 H 0.21732 0.12205 0.73624 0.0
C76 C 0.18602 0.11241 0.61901 0.0
C77 C 0.31382 0.0989 0.24432 0.0
C78 C 0.36358 0.0607 0.20906 0.0
C79 C 0.26642 0.08068 0.38051 0.0
C80 C 0.27176 1.02713 0.4769 0.0
C81 C 0.31414 0.98822 0.41858 0.0
C82 C 0.35967 1.006 0.29189 0.0
N83 N 0.21132 0.11039 0.41527 0.0
H84 H 0.44549 0.32751 0.24107 0.0
H85 H 0.57821 0.25286 0.61486 0.0
H86 H 0.61831 0.39017 0.20055 0.0
H87 H 0.50083 0.2065 0.77722 0.0
C88 C 0.48991 0.18763 0.6326 0.0
C89 C 0.48999 0.32536 0.28823 0.0
C90 C 0.53091 0.36809 0.21546 0.0
C91 C 0.50856 0.27928 0.42277 0.0
C92 C 0.56467 0.28226 0.49727 0.0
C93 C 0.60541 0.31959 0.41214 0.0
C94 C 0.58798 0.35975 0.26502 0.0
N95 N 0.47459 0.22805 0.47216 0.0
Tb96 Tb 0.08026 1.02941 0.08518 0.0
Eu97 Eu 0.99919 0.07101 0.77915 0.0
C98 C 0.13276 0.09379 0.69472 0.0
C99 C 0.05536 0.16499 0.11372 0.0
C100 C 0.19224 0.93033 0.2203 0.0
C101 C 0.15937 0.84467 1.04743 0.0
C102 C 0.18131 0.90096 1.0362 0.0
C103 C 0.20165 0.89742 0.39501 0.0
C104 C 0.19123 0.83814 0.38858 0.0
C105 C 0.15094 0.82188 0.24148 0.0
C106 C 0.16826 0.98822 0.24637 0.0
O107 O 0.99979 1.02082 0.27602 0.0
O108 O 0.95279 1.00655 0.98738 0.0
O109 O 1.0013 0.97947 0.65599 0.0
O110 O 0.05788 0.94629 0.90688 0.0
C111 C 0.95251 1.00355 0.18538 0.0
O112 O 0.90739 0.08633 0.80594 0.0
O113 O 0.95274 0.10741 0.524 0.0
O114 O 0.08598 0.07964 0.59318 0.0
O115 O 0.1285 0.09116 0.8928 0.0
O116 O 0.07228 0.11842 0.21317 0.0
O117 O 1.02605 0.15655 0.94477 0.0
C118 C 1.0233 0.93479 0.75022 0.0
O119 O 0.16976 1.01931 0.08263 0.0
O120 O 0.11805 0.99092 0.33896 0.0
C121 C 0.87791 0.16852 0.63721 0.0
C122 C 0.91839 0.27323 0.53983 0.0
C123 C 0.87529 0.25078 0.41591 0.0
C124 C 0.86301 0.19288 0.45129 0.0
C125 C 0.89325 0.20583 0.79777 0.0
C126 C 0.91518 0.26019 0.74675 0.0
C127 C 0.90444 0.11151 0.63008 0.0
H128 H 0.13618 0.82721 0.91931 0.0
H129 H 0.17673 0.9245 0.89539 0.0
H130 H 0.20486 0.91794 0.54248 0.0
H131 H 0.19074 0.81654 0.53431 0.0
H132 H 0.87241 0.2657 0.26028 0.0
H133 H 0.8582 0.16586 0.31925 0.0
H134 H 0.902 0.18898 0.94748 0.0
H135 H 0.9422 0.28253 0.85487 0.0
Tb136 Tb 0.55821 0.08749 1.04053 0.0
Eu137 Eu 0.51523 0.99526 0.80034 0.0
C138 C 0.49313 0.12869 0.60431 0.0
C139 C 0.42041 0.06673 0.08412 0.0
C140 C 0.65561 0.20275 0.14305 0.0
C141 C 0.74236 0.15528 1.024 0.0
C142 C 0.6924 0.18628 0.97915 0.0
C143 C 0.67963 0.20823 0.33524 0.0
C144 C 0.73565 0.19133 0.3652 0.0
C145 C 0.75587 0.14905 0.22836 0.0
C146 C 0.59502 0.18601 0.13536 0.0
O147 O 0.59564 1.01092 0.21328 0.0
O148 O 0.53262 0.94586 0.08853 0.0
O149 O 0.60908 0.99466 0.68259 0.0
O150 O 0.64396 0.05911 0.9079 0.0
C151 C 0.5749 0.95681 0.21253 0.0
O152 O 0.50576 0.90438 0.7267 0.0
O153 O 0.4761 0.97077 0.51556 0.0
O154 O 0.51547 0.0942 0.74308 0.0
O155 O 0.51448 0.09041 0.73759 0.0
O156 O 0.46794 0.08638 0.17283 0.0
O157 O 0.42803 1.02938 0.9314 0.0
C158 C 0.65423 1.02072 0.76063 0.0
O159 O 0.57805 0.17232 0.95489 0.0
O160 O 0.57875 0.14716 0.26982 0.0
C161 C 0.41934 0.88916 0.56985 0.0
C162 C 0.31374 0.92843 0.49601 0.0
C163 C 0.33619 0.88731 0.35905 0.0
C164 C 0.39436 0.87664 0.38279 0.0
C165 C 0.38343 0.90193 0.73842 0.0
C166 C 0.32835 0.92277 0.69994 0.0
C167 C 0.47552 0.91561 0.56649 0.0
H168 H 0.7618 0.1273 0.90921 0.0
H169 H 0.67662 0.18384 0.82553 0.0
H170 H 0.65309 0.21172 0.4697 0.0
H171 H 0.74902 0.18984 0.52235 0.0
H172 H 0.31994 0.88574 0.20548 0.0
H173 H 0.42064 0.87153 0.24652 0.0
H174 H 0.40138 0.90963 0.88704 0.0
H175 H 0.30622 0.94803 0.81657 0.0
Tb176 Tb 0.50992 0.5607 0.07238 0.0
Eu177 Eu 0.58233 0.52676 0.84495 0.0
C178 C 0.44533 0.50263 0.70279 0.0
C179 C 0.52156 0.42533 0.10363 0.0
C180 C 0.40156 0.65396 0.26241 0.0
C181 C 0.4326 0.7449 0.12209 0.0
C182 C 0.41446 0.6879 0.08978 0.0
C183 C 0.38791 0.68199 0.44573 0.0
C184 C 0.39065 0.74198 0.45397 0.0
C185 C 0.43315 0.76424 0.32326 0.0
C186 C 0.42567 0.59642 0.27187 0.0
O187 O 0.60301 0.56899 0.15299 0.0
O188 O 0.60352 0.56912 0.15392 0.0
O189 O 0.59312 0.61958 0.72682 0.0
O190 O 0.53356 0.6516 0.969 0.0
C191 C 0.65784 0.57743 0.21896 0.0
O192 O 0.67437 0.50962 0.8255 0.0
O193 O 0.61989 0.49686 0.5598 0.0
O194 O 0.48731 0.54082 0.74073 0.0
O195 O 0.48759 0.53892 0.75018 0.0
O196 O 0.50837 0.47237 0.20754 0.0
O197 O 0.5511 0.43498 0.93509 0.0
C198 C 0.57083 0.66478 0.82083 0.0
O199 O 0.42017 0.56567 0.10633 0.0
O200 O 0.47822 0.59571 0.34355 0.0
C201 C 0.69407 0.43077 0.61281 0.0
C202 C 0.66491 0.32288 0.49385 0.0
C203 C 0.70438 0.35275 0.37114 0.0
C204 C 0.70726 0.41173 0.41554 0.0
C205 C 0.68353 0.38901 0.76416 0.0
C206 C 0.66846 0.33302 0.70323 0.0
C207 C 0.6708 0.48879 0.64103 0.0
H208 H 0.45824 0.76637 1.00592 0.0
H209 H 0.42307 0.66788 0.94341 0.0
H210 H 0.38408 0.65896 0.58697 0.0
H211 H 0.38421 0.76173 0.60254 0.0
H212 H 0.70981 0.3398 0.21351 0.0
H213 H 0.70985 0.44143 0.28987 0.0
H214 H 0.67582 0.40192 0.91988 0.0
H215 H 0.6464 0.30526 0.8115 0.0
Tb216 Tb 1.02748 0.50295 0.09496 0.0
Eu217 Eu 0.06913 0.58453 0.76805 0.0
C218 C 0.08979 0.44925 0.71319 0.0
C219 C 0.16067 0.5337 0.11725 0.0
C220 C 0.92646 0.39248 0.23094 0.0
C221 C 0.84404 0.43223 0.06316 0.0
C222 C 0.89757 0.4047 1.04863 0.0
C223 C 0.8938 0.3866 0.40948 0.0
C224 C 0.83617 0.40187 0.40837 0.0
C225 C 0.82219 0.44265 0.25827 0.0
C226 C 0.98504 0.41367 0.25076 0.0
O227 O 1.00575 0.58428 0.27085 0.0
O228 O 1.01885 0.64151 0.99393 0.0
O229 O 0.97603 0.59473 0.69582 0.0
O230 O 0.94929 0.52083 0.89907 0.0
C231 C 1.00147 0.63594 0.18381 0.0
O232 O 0.08724 0.67449 0.7016 0.0
O233 O 0.10258 0.60885 0.47037 0.0
O234 O 0.07035 0.49361 0.60847 0.0
O235 O 0.09255 0.45723 0.90891 0.0
O236 O 0.11601 0.51186 0.21786 0.0
O237 O 0.15123 0.56289 0.94708 0.0
C238 C 0.93487 0.56337 0.77208 0.0
O239 O 1.01471 0.41315 0.08243 0.0
O240 O 0.99045 0.46272 0.34992 0.0
C241 C 0.159 0.69198 0.46409 0.0
C242 C 0.26958 0.68548 0.3503 0.0
C243 C 0.23206 0.70975 0.2103 0.0
C244 C 0.17409 0.69984 0.25824 0.0
C245 C 0.20062 0.70142 0.61335 0.0
C246 C 0.25799 0.70395 0.55111 0.0
C247 C 0.1059 0.66377 0.51825 0.0
H248 H 0.82858 0.45685 0.93493 0.0
H249 H 0.92073 0.40637 0.9051 0.0
H250 H 0.91426 0.38337 0.55538 0.0
H251 H 0.81562 0.40487 0.55702 0.0
H252 H 0.24542 0.71331 1.05305 0.0
H253 H 0.14346 0.69411 0.13743 0.0
H254 H 0.18987 0.6998 0.77331 0.0
H255 H 0.29031 0.70248 0.66772 0.0
loop_
_geom_bond_atom_site_label_1
_geom_bond_atom_site_label_2
_geom_bond_distance
_geom_bond_site_symmetry_2
_ccdc_geom_bond_type
H0 C5 0.930 . S
H1 C8 0.930 . S
H2 C10 0.930 . S
H3 C4 1.016 . S
C4 H3 1.016 . S
C4 N11 1.286 . S
C5 H0 0.930 . S
C5 C6 1.397 . S
C5 C7 1.361 . S
C6 C5 1.397 . S
C6 C10 1.390 . S
C7 C5 1.361 . S
C7 C8 1.393 . S
C7 N11 1.413 . S
C8 H1 0.930 . S
C8 C7 1.393 . S
C8 C9 1.399 . S
C9 C8 1.399 . S
C9 C10 1.381 . S
C10 H2 0.930 . S
C10 C6 1.390 . S
C10 C9 1.381 . S
N11 C4 1.286 . S
N11 C7 1.413 . S
H12 C17 0.930 . S
H13 C20 0.930 . S
H14 C22 0.930 . S
H15 C16 1.016 . S
C16 H15 1.016 . S
C16 N23 1.286 1_655 S
C17 H12 0.930 . S
C17 C18 1.397 . S
C17 C19 1.361 . S
C18 C17 1.397 . S
C18 C22 1.390 1_455 S
C19 C17 1.361 . S
C19 C20 1.393 . S
C19 N23 1.413 . S
C20 H13 0.930 . S
C20 C19 1.393 . S
C20 C21 1.399 . S
C21 C20 1.399 . S
C21 C22 1.381 1_455 S
C22 H14 0.930 . S
C22 C18 1.390 1_655 S
C22 C21 1.381 1_655 S
N23 C16 1.286 1_455 S
N23 C19 1.413 . S
H24 C29 0.930 . S
H25 C32 0.930 . S
H26 C34 0.930 . S
H27 C28 1.016 . S
C28 H27 1.016 . S
C28 N35 1.286 1_565 S
C29 H24 0.930 . S
C29 C30 1.397 . S
C29 C31 1.361 . S
C30 C29 1.397 . S
C30 C34 1.390 1_545 S
C31 C29 1.361 . S
C31 C32 1.393 . S
C31 N35 1.413 . S
C32 H25 0.930 . S
C32 C31 1.393 . S
C32 C33 1.399 . S
C33 C32 1.399 . S
C33 C34 1.381 1_545 S
C34 H26 0.930 . S
C34 C30 1.390 1_565 S
C34 C33 1.381 1_565 S
N35 C28 1.286 1_545 S
N35 C31 1.413 . S
H36 C41 0.930 . S
H37 C44 0.930 . S
H38 C46 0.930 . S
H39 C40 1.016 . S
C40 H39 1.016 . S
C40 N47 1.286 . S
C41 H36 0.930 . S
C41 C42 1.397 . S
C41 C43 1.361 . S
C42 C41 1.397 . S
C42 C46 1.390 . S
C43 C41 1.361 . S
C43 C44 1.393 . S
C43 N47 1.413 . S
C44 H37 0.930 . S
C44 C43 1.393 . S
C44 C45 1.399 . S
C45 C44 1.399 . S
C45 C46 1.381 . S
C46 H38 0.930 . S
C46 C42 1.390 . S
C46 C45 1.381 . S
N47 C40 1.286 . S
N47 C43 1.413 . S
H48 C53 0.930 . S
H49 C56 0.930 . S
H50 C58 0.930 . S
H51 C52 1.016 . S
C52 H51 1.016 . S
C52 N59 1.286 . S
C53 H48 0.930 . S
C53 C54 1.397 . S
C53 C55 1.361 1_556 S
C54 C53 1.397 . S
C54 C58 1.390 . S
C55 C53 1.361 1_554 S
C55 C56 1.393 . S
C55 N59 1.413 . S
C56 H49 0.930 . S
C56 C55 1.393 . S
C56 C57 1.399 . S
C57 C56 1.399 . S
C57 C58 1.381 1_554 S
C58 H50 0.930 . S
C58 C54 1.390 . S
C58 C57 1.381 1_556 S
N59 C52 1.286 . S
N59 C55 1.413 . S
H60 C65 0.930 . S
H61 C68 0.930 . S
H62 C70 0.930 1_556 S
H63 C64 1.016 . S
C64 H63 1.016 . S
C64 N71 1.286 1_655 S
C65 H60 0.930 . S
C65 C66 1.397 . S
C65 C67 1.361 1_556 S
C66 C65 1.397 . S
C66 C70 1.390 1_456 S
C67 C65 1.361 1_554 S
C67 C68 1.393 . S
C67 N71 1.413 . S
C68 H61 0.930 . S
C68 C67 1.393 . S
C68 C69 1.399 . S
C69 C68 1.399 . S
C69 C70 1.381 1_455 S
C70 H62 0.930 1_554 S
C70 C66 1.390 1_654 S
C70 C69 1.381 1_655 S
N71 C64 1.286 1_455 S
N71 C67 1.413 . S
H72 C77 0.930 . S
H73 C80 0.930 . S
H74 C82 0.930 . S
H75 C76 1.016 . S
C76 H75 1.016 . S
C76 N83 1.286 1_565 S
C77 H72 0.930 . S
C77 C78 1.397 . S
C77 C79 1.361 1_556 S
C78 C77 1.397 . S
C78 C82 1.390 1_545 S
C79 C77 1.361 1_554 S
C79 C80 1.393 . S
C79 N83 1.413 . S
C80 H73 0.930 . S
C80 C79 1.393 . S
C80 C81 1.399 . S
C81 C80 1.399 . S
C81 C82 1.381 1_544 S
C82 H74 0.930 . S
C82 C78 1.390 1_565 S
C82 C81 1.381 1_566 S
N83 C76 1.286 1_545 S
N83 C79 1.413 . S
H84 C89 0.930 . S
H85 C92 0.930 . S
H86 C94 0.930 . S
H87 C88 1.016 . S
C88 H87 1.016 . S
C88 N95 1.286 . S
C89 H84 0.930 . S
C89 C90 1.397 . S
C89 C91 1.361 1_556 S
C90 C89 1.397 . S
C90 C94 1.390 . S
C91 C89 1.361 1_554 S
C91 C92 1.393 . S
C91 N95 1.413 . S
C92 H85 0.930 . S
C92 C91 1.393 . S
C92 C93 1.399 . S
C93 C92 1.399 . S
C93 C94 1.381 1_554 S
C94 H86 0.930 . S
C94 C90 1.390 . S
C94 C93 1.381 1_556 S
N95 C88 1.286 . S
N95 C91 1.413 . S
Tb96 C106 2.825 . S
Tb96 O107 2.347 1_455 S
Tb96 O110 2.366 1_554 S
Tb96 O115 2.418 1_554 S
Tb96 O116 2.384 1_565 S
Tb96 O119 2.479 . S
Tb96 O120 2.471 . S
Eu97 O108 2.418 . S
Eu97 O109 2.384 1_545 S
Eu97 O112 2.479 . S
Eu97 O113 2.471 . S
Eu97 O114 2.347 1_655 S
Eu97 O117 2.366 . S
Eu97 C127 2.825 . S
C98 O114 1.259 1_565 S
C98 O115 1.265 . S
C99 O116 1.255 1_556 S
C99 O117 1.265 1_455 S
C100 C102 1.380 . S
C100 C103 1.374 . S
C100 C106 1.507 . S
C101 C102 1.384 . S
C101 C105 1.387 . S
C101 H128 0.930 . S
C102 C100 1.380 . S
C102 C101 1.384 . S
C102 H129 0.931 . S
C103 C100 1.374 . S
C103 C104 1.390 . S
C103 H130 0.944 . S
C104 C103 1.390 . S
C104 C105 1.391 . S
C104 H131 0.930 . S
C105 C101 1.387 . S
C105 C104 1.391 . S
C106 Tb96 2.825 . S
C106 C100 1.507 . S
C106 O119 1.238 . S
C106 O120 1.247 . S
O107 Tb96 2.347 1_655 S
O107 C111 1.259 1_565 S
O108 Eu97 2.418 . S
O108 C111 1.265 1_556 S
O109 Eu97 2.384 1_565 S
O109 C118 1.255 . S
O110 Tb96 2.366 1_556 S
O110 C118 1.265 1_455 S
C111 O107 1.259 1_545 S
C111 O108 1.265 1_554 S
O112 Eu97 2.479 . S
O112 C127 1.238 . S
O113 Eu97 2.471 . S
O113 C127 1.247 . S
O114 Eu97 2.347 1_455 S
O114 C98 1.259 1_545 S
O115 Tb96 2.418 1_556 S
O115 C98 1.265 . S
O116 Tb96 2.384 1_545 S
O116 C99 1.255 1_554 S
O117 Eu97 2.366 . S
O117 C99 1.265 1_655 S
C118 O109 1.255 . S
C118 O110 1.265 1_655 S
O119 Tb96 2.479 . S
O119 C106 1.238 . S
O120 Tb96 2.471 . S
O120 C106 1.247 . S
C121 C124 1.380 . S
C121 C125 1.374 . S
C121 C127 1.507 . S
C122 C123 1.387 . S
C122 C126 1.391 . S
C123 C122 1.387 . S
C123 C124 1.384 . S
C123 H132 0.930 . S
C124 C121 1.380 . S
C124 C123 1.384 . S
C124 H133 0.931 . S
C125 C121 1.374 . S
C125 C126 1.390 . S
C125 H134 0.939 . S
C126 C122 1.391 . S
C126 C125 1.390 . S
C126 H135 0.930 . S
C127 Eu97 2.825 . S
C127 O112 1.238 . S
C127 O113 1.247 . S
C127 C121 1.507 . S
H128 C101 0.930 . S
H129 C102 0.931 . S
H130 C103 0.944 . S
H131 C104 0.930 . S
H132 C123 0.930 . S
H133 C124 0.931 . S
H134 C125 0.939 . S
H135 C126 0.930 . S
Tb136 C146 2.825 . S
Tb136 O147 2.347 1_545 S
Tb136 O150 2.366 1_554 S
Tb136 O155 2.418 1_554 S
Tb136 O156 2.384 . S
Tb136 O159 2.479 . S
Tb136 O160 2.471 . S
Eu137 O148 2.418 . S
Eu137 O149 2.384 . S
Eu137 O152 2.479 . S
Eu137 O153 2.471 . S
Eu137 O154 2.347 1_565 S
Eu137 O157 2.366 . S
Eu137 C167 2.825 . S
C138 O154 1.259 . S
C138 O155 1.265 . S
C139 O156 1.255 1_556 S
C139 O157 1.265 1_545 S
C140 C142 1.380 . S
C140 C143 1.374 . S
C140 C146 1.507 . S
C141 C142 1.384 . S
C141 C145 1.387 . S
C141 H168 0.930 . S
C142 C140 1.380 . S
C142 C141 1.384 . S
C142 H169 0.931 . S
C143 C140 1.374 . S
C143 C144 1.390 . S
C143 H170 0.930 1_545 S
C144 C143 1.390 . S
C144 C145 1.391 . S
C144 H171 0.930 . S
C145 C141 1.387 . S
C145 C144 1.391 . S
C146 Tb136 2.825 . S
C146 C140 1.507 . S
C146 O159 1.238 . S
C146 O160 1.247 . S
O147 Tb136 2.347 1_565 S
O147 C151 1.259 . S
O148 Eu137 2.418 . S
O148 C151 1.265 1_556 S
O149 Eu137 2.384 . S
O149 C158 1.255 . S
O150 Tb136 2.366 1_556 S
O150 C158 1.265 1_545 S
C151 O147 1.259 . S
C151 O148 1.265 1_554 S
O152 Eu137 2.479 . S
O152 C167 1.238 . S
O153 Eu137 2.471 . S
O153 C167 1.247 . S
O154 Eu137 2.347 1_545 S
O154 C138 1.259 . S
O155 Tb136 2.418 1_556 S
O155 C138 1.265 . S
O156 Tb136 2.384 . S
O156 C139 1.255 1_554 S
O157 Eu137 2.366 . S
O157 C139 1.265 1_565 S
C158 O149 1.255 . S
C158 O150 1.265 1_565 S
O159 Tb136 2.479 . S
O159 C146 1.238 . S
O160 Tb136 2.471 . S
O160 C146 1.247 . S
C161 C164 1.380 . S
C161 C165 1.374 . S
C161 C167 1.507 . S
C162 C163 1.387 . S
C162 C166 1.391 . S
C163 C162 1.387 . S
C163 C164 1.384 . S
C163 H172 0.930 . S
C164 C161 1.380 . S
C164 C163 1.384 . S
C164 H173 0.931 . S
C165 C161 1.374 . S
C165 C166 1.390 . S
C165 H174 0.930 1_565 S
C166 C162 1.391 . S
C166 C165 1.390 . S
C166 H175 0.930 . S
C167 Eu137 2.825 . S
C167 O152 1.238 . S
C167 O153 1.247 . S
C167 C161 1.507 . S
H168 C141 0.930 . S
H169 C142 0.931 . S
H170 C143 0.930 1_565 S
H171 C144 0.930 . S
H172 C163 0.930 . S
H173 C164 0.931 . S
H174 C165 0.930 1_545 S
H175 C166 0.930 . S
Tb176 C186 2.825 . S
Tb176 O187 2.347 . S
Tb176 O190 2.366 1_554 S
Tb176 O195 2.418 1_554 S
Tb176 O196 2.384 . S
Tb176 O199 2.479 . S
Tb176 O200 2.471 . S
Eu177 O188 2.418 . S
Eu177 O189 2.384 . S
Eu177 O192 2.479 . S
Eu177 O193 2.471 . S
Eu177 O194 2.347 . S
Eu177 O197 2.366 . S
Eu177 C207 2.825 . S
C178 O194 1.259 . S
C178 O195 1.265 . S
C179 O196 1.255 1_556 S
C179 O197 1.265 . S
C180 C182 1.380 . S
C180 C183 1.374 . S
C180 C186 1.507 . S
C181 C182 1.384 . S
C181 C185 1.387 . S
C181 H208 0.930 . S
C182 C180 1.380 . S
C182 C181 1.384 . S
C182 H209 0.931 . S
C183 C180 1.374 . S
C183 C184 1.390 . S
C183 H210 0.930 . S
C184 C183 1.390 . S
C184 C185 1.391 . S
C184 H211 0.930 . S
C185 C181 1.387 . S
C185 C184 1.391 . S
C186 Tb176 2.825 . S
C186 C180 1.507 . S
C186 O199 1.238 . S
C186 O200 1.247 . S
O187 Tb176 2.347 . S
O187 C191 1.259 . S
O188 Eu177 2.418 . S
O188 C191 1.265 1_556 S
O189 Eu177 2.384 . S
O189 C198 1.255 . S
O190 Tb176 2.366 1_556 S
O190 C198 1.265 . S
C191 O187 1.259 . S
C191 O188 1.265 1_554 S
O192 Eu177 2.479 . S
O192 C207 1.238 . S
O193 Eu177 2.471 . S
O193 C207 1.247 . S
O194 Eu177 2.347 . S
O194 C178 1.259 . S
O195 Tb176 2.418 1_556 S
O195 C178 1.265 . S
O196 Tb176 2.384 . S
O196 C179 1.255 1_554 S
O197 Eu177 2.366 . S
O197 C179 1.265 . S
C198 O189 1.255 . S
C198 O190 1.265 . S
O199 Tb176 2.479 . S
O199 C186 1.238 . S
O200 Tb176 2.471 . S
O200 C186 1.247 . S
C201 C204 1.380 . S
C201 C205 1.374 . S
C201 C207 1.507 . S
C202 C203 1.387 . S
C202 C206 1.391 . S
C203 C202 1.387 . S
C203 C204 1.384 . S
C203 H212 0.930 . S
C204 C201 1.380 . S
C204 C203 1.384 . S
C204 H213 0.931 . S
C205 C201 1.374 . S
C205 C206 1.390 . S
C205 H214 0.930 . S
C206 C202 1.391 . S
C206 C205 1.390 . S
C206 H215 0.930 . S
C207 Eu177 2.825 . S
C207 O192 1.238 . S
C207 O193 1.247 . S
C207 C201 1.507 . S
H208 C181 0.930 . S
H209 C182 0.931 . S
H210 C183 0.930 . S
H211 C184 0.930 . S
H212 C203 0.930 . S
H213 C204 0.931 . S
H214 C205 0.930 . S
H215 C206 0.930 . S
Tb216 C226 2.825 . S
Tb216 O227 2.347 . S
Tb216 O230 2.366 1_554 S
Tb216 O235 2.418 1_554 S
Tb216 O236 2.384 1_655 S
Tb216 O239 2.479 . S
Tb216 O240 2.471 . S
Eu217 O228 2.418 . S
Eu217 O229 2.384 1_455 S
Eu217 O232 2.479 . S
Eu217 O233 2.471 . S
Eu217 O234 2.347 . S
Eu217 O237 2.366 . S
Eu217 C247 2.825 . S
C218 O234 1.259 1_655 S
C218 O235 1.265 . S
C219 O236 1.255 1_556 S
C219 O237 1.265 . S
C220 C222 1.380 . S
C220 C223 1.374 . S
C220 C226 1.507 . S
C221 C222 1.384 . S
C221 C225 1.387 . S
C221 H248 0.930 . S
C222 C220 1.380 . S
C222 C221 1.384 . S
C222 H249 0.931 . S
C223 C220 1.374 . S
C223 C224 1.390 . S
C223 H250 0.930 . S
C224 C223 1.390 . S
C224 C225 1.391 . S
C224 H251 0.930 . S
C225 C221 1.387 . S
C225 C224 1.391 . S
C226 Tb216 2.825 . S
C226 C220 1.507 . S
C226 O239 1.238 . S
C226 O240 1.247 . S
O227 Tb216 2.347 . S
O227 C231 1.259 1_655 S
O228 Eu217 2.418 . S
O228 C231 1.265 1_556 S
O229 Eu217 2.384 1_655 S
O229 C238 1.255 . S
O230 Tb216 2.366 1_556 S
O230 C238 1.265 . S
C231 O227 1.259 1_455 S
C231 O228 1.265 1_554 S
O232 Eu217 2.479 . S
O232 C247 1.238 . S
O233 Eu217 2.471 . S
O233 C247 1.247 . S
O234 Eu217 2.347 . S
O234 C218 1.259 1_455 S
O235 Tb216 2.418 1_556 S
O235 C218 1.265 . S
O236 Tb216 2.384 1_455 S
O236 C219 1.255 1_554 S
O237 Eu217 2.366 . S
O237 C219 1.265 . S
C238 O229 1.255 . S
C238 O230 1.265 . S
O239 Tb216 2.479 . S
O239 C226 1.238 . S
O240 Tb216 2.471 . S
O240 C226 1.247 . S
C241 C244 1.380 . S
C241 C245 1.374 . S
C241 C247 1.507 . S
C242 C243 1.387 . S
C242 C246 1.391 . S
C243 C242 1.387 . S
C243 C244 1.384 . S
C243 H252 0.930 . S
C244 C241 1.380 . S
C244 C243 1.384 . S
C244 H253 0.931 . S
C245 C241 1.374 . S
C245 C246 1.390 . S
C245 H254 0.930 . S
C246 C242 1.391 . S
C246 C245 1.390 . S
C246 H255 0.930 . S
C247 Eu217 2.825 . S
C247 O232 1.238 . S
C247 O233 1.247 . S
C247 C241 1.507 . S
H248 C221 0.930 . S
H249 C222 0.931 . S
H250 C223 0.930 . S
H251 C224 0.930 . S
H252 C243 0.930 . S
H253 C244 0.931 . S
H254 C245 0.930 . S
H255 C246 0.930 . S
C76 C98 3.570 . S
C138 C88 3.603 . S
C178 C52 3.632 . S
C218 C64 3.590 . S
C111 C28 3.575 1_545 S
C40 C151 3.595 . S
C4 C191 3.622 . S
C16 C231 3.591 1_655 S
C122 C69 2.368 1_655 S
C162 C81 2.208 1_565 S
C202 C93 2.065 . S
C57 C242 2.198 . S
C21 C105 2.309 . S
C145 C33 2.149 . S
C185 C45 2.000 . S
C9 C225 2.134 . S
C66 C99 3.985 . S
C78 C139 3.905 . S
C179 C90 3.903 . S
C219 C54 3.979 . S
C18 C118 4.005 1_455 S
C158 C30 3.923 1_565 S
C198 C42 3.937 . S
C6 C238 4.015 . S
