# Generated by pormake.
# Topology pts, (4,4)-cn, num edge types: 1
# Building blocks:
#     Node 0, Type 0, BuildingBlock: AZAVOO_clean_linker_0, # of connection points: 4
#     Node 1, Type 0, BuildingBlock: AZAVOO_clean_linker_0, # of connection points: 4
#     Node 2, Type 1, BuildingBlock: QUQFOY_clean_sbu_1, # of connection points: 4
#     Node 3, Type 1, BuildingBlock: QUQFOY_clean_sbu_1, # of connection points: 4
#     Edge 4, Type (0, 1), BuildingBlock: EZIPEK_clean_linker_0, # of connection points: 2
#     Edge 5, Type (0, 1), BuildingBlock: EZIPEK_clean_linker_0, # of connection points: 2
#     Edge 6, Type (0, 1), BuildingBlock: EZIPEK_clean_linker_0, # of connection points: 2
#     Edge 7, Type (0, 1), BuildingBlock: EZIPEK_clean_linker_0, # of connection points: 2
#     Edge 8, Type (0, 1), BuildingBlock: EZIPEK_clean_linker_0, # of connection points: 2
#     Edge 9, Type (0, 1), BuildingBlock: EZIPEK_clean_linker_0, # of connection points: 2
#     Edge 10, Type (0, 1), BuildingBlock: EZIPEK_clean_linker_0, # of connection points: 2
#     Edge 11, Type (0, 1), BuildingBlock: EZIPEK_clean_linker_0, # of connection points: 2
# Relax obj value: 0.212
# Max RMSD: 0.244
# Mean RMSD: 0.235
data_MOF--net-pts--node1-QUQFOY_clean_sbu_1--node2-AZAVOO_clean_linker_0--edge1-EZIPEK_clean_linker_0
_symmetry_space_group_name_H-M    P1
_symmetry_Int_Tables_number       1
_symmetry_cell_setting            triclinic
loop_
_symmetry_equiv_pos_as_xyz
'x, y, z'
_cell_length_a     19.273359
_cell_length_b     21.836961
_cell_length_c     37.868492
_cell_angle_alpha  90.819682
_cell_angle_beta   93.440381
_cell_angle_gamma 90.380214
loop_
_atom_site_label
_atom_site_type_symbol
_atom_site_fract_x
_atom_site_fract_y
_atom_site_fract_z
_atom_type_partial_charge
H0 H 0.46784 0.11763 0.74748 0.0
H1 H 0.96997 0.0058 0.07598 0.0
H2 H 0.41894 0.20373 0.9433 0.0
H3 H 0.32404 0.20355 0.89734 0.0
H4 H 0.27766 0.01521 0.92001 0.0
H5 H 0.37791 0.01336 0.96301 0.0
H6 H 0.50872 0.18444 0.8974 0.0
H7 H 0.48952 0.17491 0.83312 0.0
H8 H 0.49903 0.97777 0.84117 0.0
H9 H 0.51394 0.98796 0.90564 0.0
H10 H 0.66015 0.18058 0.9218 0.0
H11 H 0.73115 0.17185 0.87021 0.0
H12 H 0.72099 0.97487 0.8761 0.0
H13 H 0.65187 0.98373 0.92856 0.0
H14 H 0.73073 0.16821 0.98435 0.0
H15 H 0.85115 0.15547 0.00708 0.0
H16 H 0.79643 0.98099 0.05073 0.0
H17 H 0.67629 0.99399 0.02752 0.0
H18 H 0.65422 0.19131 0.04597 0.0
H19 H 0.72751 0.1842 0.10028 0.0
H20 H 0.60866 0.02758 0.13119 0.0
H21 H 0.5415 0.02955 0.07392 0.0
H22 H 0.47512 0.20719 0.04661 0.0
H23 H 0.39286 0.21669 0.09378 0.0
H24 H 0.32351 0.03089 0.07278 0.0
H25 H 0.4065 0.02092 0.0264 0.0
O26 O 0.47446 0.12036 0.77299 0.0
O27 O 0.48134 0.01929 0.77851 0.0
O28 O 0.94977 0.09924 0.04091 0.0
O29 O 0.92322 0.01108 0.06571 0.0
C30 C 0.47889 0.10142 0.96974 0.0
C31 C 0.52978 0.09272 0.94479 0.0
C32 C 0.60032 0.08844 0.95611 0.0
C33 C 0.62071 0.09136 0.99231 0.0
C34 C 0.57023 0.1017 0.01751 0.0
C35 C 0.49894 0.10577 0.00626 0.0
C36 C 0.40579 0.10843 0.95621 0.0
C37 C 0.38672 0.16308 0.93934 0.0
C38 C 0.33294 0.16288 0.91298 0.0
C39 C 0.29536 0.10882 0.90468 0.0
C40 C 0.30689 0.05706 0.9258 0.0
C41 C 0.3634 0.05625 0.95072 0.0
C42 C 0.51035 0.08686 0.90625 0.0
C43 C 0.50431 0.13922 0.88532 0.0
C44 C 0.49438 0.13364 0.84856 0.0
C45 C 0.49236 0.07556 0.832 0.0
C46 C 0.49996 0.02318 0.85307 0.0
C47 C 0.50781 0.02882 0.8899 0.0
C48 C 0.65232 0.08277 0.92915 0.0
C49 C 0.67483 0.13563 0.91248 0.0
C50 C 0.71412 0.13068 0.88288 0.0
C51 C 0.7303 0.07279 0.86937 0.0
C52 C 0.70833 0.01983 0.88621 0.0
C53 C 0.6701 0.02484 0.91626 0.0
C54 C 0.69489 0.08177 0.00398 0.0
C55 C 0.7451 0.12676 0.99824 0.0
C56 C 0.81374 0.11959 0.01153 0.0
C57 C 0.83335 0.06729 0.03087 0.0
C58 C 0.78306 0.02189 0.03606 0.0
C59 C 0.71446 0.02908 0.02272 0.0
C60 C 0.5943 0.10968 0.05534 0.0
C61 C 0.64327 0.1558 0.06459 0.0
C62 C 0.68501 0.15179 0.0957 0.0
C63 C 0.67539 0.10387 0.11932 0.0
C64 C 0.61851 0.06369 0.11279 0.0
C65 C 0.57947 0.06536 0.08039 0.0
C66 C 0.44591 0.11367 0.0327 0.0
C67 C 0.44164 0.16881 0.05198 0.0
C68 C 0.39508 0.17419 0.07881 0.0
C69 C 0.35226 0.1245 0.08651 0.0
C70 C 0.35595 0.06973 0.06696 0.0
C71 C 0.4027 0.06426 0.04035 0.0
C72 C 0.48244 0.06978 0.79292 0.0
C73 C 0.90568 0.06034 0.046 0.0
H74 H 0.01583 0.56983 0.25384 0.0
H75 H 0.16847 0.94779 0.60329 0.0
H76 H 0.96897 0.48079 0.43402 0.0
H77 H 0.97662 0.38783 0.39731 0.0
H78 H 0.18532 0.35826 0.44099 0.0
H79 H 0.17823 0.45222 0.47725 0.0
H80 H 0.9698 0.6119 0.4035 0.0
H81 H 0.96912 0.60026 0.3391 0.0
H82 H 0.17977 0.53283 0.34891 0.0
H83 H 0.17978 0.54484 0.41327 0.0
H84 H 0.97537 0.72974 0.45311 0.0
H85 H 0.97282 0.81047 0.40842 0.0
H86 H 0.1806 0.76273 0.38226 0.0
H87 H 0.18381 0.68316 0.42755 0.0
H88 H 0.97378 0.72165 0.52871 0.0
H89 H 0.9825 0.8177 0.56284 0.0
H90 H 0.2037 0.82368 0.54944 0.0
H91 H 0.19417 0.72733 0.51552 0.0
H92 H 0.97398 0.61477 0.56991 0.0
H93 H 0.97898 0.67314 0.62411 0.0
H94 H 0.2038 0.68291 0.62055 0.0
H95 H 0.19593 0.62516 0.56698 0.0
H96 H 0.96451 0.46776 0.51729 0.0
H97 H 0.96045 0.37268 0.5486 0.0
H98 H 0.17163 0.40454 0.59038 0.0
H99 H 0.17475 0.49878 0.55827 0.0
O100 O 0.01724 0.57413 0.27934 0.0
O101 O 0.12471 0.53784 0.28592 0.0
O102 O 0.04903 0.90646 0.59422 0.0
O103 O 0.16307 0.91137 0.58848 0.0
C104 C 0.07385 0.53572 0.47421 0.0
C105 C 0.07537 0.58728 0.45204 0.0
C106 C 0.07794 0.64693 0.46692 0.0
C107 C 0.07953 0.65502 0.50387 0.0
C108 C 0.07922 0.60343 0.52618 0.0
C109 C 0.07512 0.54366 0.5114 0.0
C110 C 0.07329 0.47346 0.45796 0.0
C111 C 0.01577 0.45356 0.43625 0.0
C112 C 0.02009 0.40069 0.41542 0.0
C113 C 0.08174 0.36686 0.41631 0.0
C114 C 0.13746 0.38407 0.44002 0.0
C115 C 0.13333 0.43735 0.46068 0.0
C116 C 0.07472 0.57897 0.41299 0.0
C117 C 0.01568 0.59454 0.39165 0.0
C118 C 0.01545 0.58782 0.3549 0.0
C119 C 0.07433 0.56541 0.33886 0.0
C120 C 0.13348 0.55002 0.36041 0.0
C121 C 0.1336 0.55667 0.39716 0.0
C122 C 0.07975 0.70069 0.44348 0.0
C123 C 0.02091 0.73772 0.43833 0.0
C124 C 0.01932 0.78336 0.41282 0.0
C125 C 0.07637 0.79204 0.39202 0.0
C126 C 0.13616 0.75653 0.39809 0.0
C127 C 0.13798 0.71135 0.42382 0.0
C128 C 0.08335 0.71765 0.51974 0.0
C129 C 0.02385 0.74434 0.53272 0.0
C130 C 0.02906 0.799 0.55235 0.0
C131 C 0.09395 0.82811 0.55913 0.0
C132 C 0.15303 0.80234 0.54485 0.0
C133 C 0.1477 0.74759 0.52524 0.0
C134 C 0.08466 0.61437 0.56493 0.0
C135 C 0.02449 0.62595 0.58256 0.0
C136 C 0.02811 0.65978 0.61423 0.0
C137 C 0.09247 0.68145 0.63009 0.0
C138 C 0.15294 0.66579 0.61252 0.0
C139 C 0.14901 0.63191 0.58093 0.0
C140 C 0.07096 0.48902 0.53414 0.0
C141 C 0.01069 0.45285 0.53243 0.0
C142 C 0.00966 0.39661 0.54955 0.0
C143 C 0.07011 0.37299 0.56751 0.0
C144 C 0.12722 0.4142 0.57276 0.0
C145 C 0.12837 0.47041 0.55549 0.0
C146 C 0.07389 0.55822 0.29982 0.0
C147 C 0.10034 0.8844 0.58158 0.0
O148 O 0.96519 0.04172 0.20041 0.0
Cd149 Cd 0.05895 0.02481 0.2271 0.0
Cd150 Cd 0.05063 0.13936 0.24766 0.0
O151 O 0.94656 0.12265 0.23329 0.0
O152 O 0.06565 0.93824 0.24267 0.0
O153 O 0.06056 0.01801 0.2795 0.0
C154 C 0.06449 0.95949 0.27467 0.0
C155 C 0.07232 0.19535 0.30003 0.0
C156 C 0.92469 0.08364 0.21 0.0
C157 C 0.15703 0.10597 0.19509 0.0
O158 O 0.12184 0.14859 0.20851 0.0
O159 O 0.14536 0.05039 0.20213 0.0
O160 O 0.04973 0.22131 0.27131 0.0
O161 O 0.08436 0.13735 0.2991 0.0
O162 O 0.92879 0.11588 0.74198 0.0
Cd163 Cd 0.02142 0.1311 0.71902 0.0
Cd164 Cd 0.03472 0.00461 0.72783 0.0
O165 O 0.93597 0.01488 0.74421 0.0
O166 O 0.01831 0.21346 0.69689 0.0
O167 O 0.03724 0.1275 0.66708 0.0
C168 C 0.03197 0.18648 0.66765 0.0
C169 C 0.05643 0.90848 0.70212 0.0
C170 C 0.90501 0.06439 0.75108 0.0
C171 C 0.12781 0.09151 0.77317 0.0
O172 O 0.1097 0.03688 0.76481 0.0
O173 O 0.10254 0.13674 0.75631 0.0
O174 O 0.04539 0.91462 0.73505 0.0
O175 O 0.05594 0.95707 0.68315 0.0
C176 C 0.32776 0.11188 0.15038 0.0
C177 C 0.30422 0.1286 0.11563 0.0
C178 C 0.18462 0.13601 0.13384 0.0
C179 C 0.20826 0.1201 0.16874 0.0
N180 N 0.30241 0.10477 0.21229 0.0
N181 N 0.21439 0.16834 0.07553 0.0
C182 C 0.28003 0.11173 0.17764 0.0
C183 C 0.23387 0.14462 0.10782 0.0
N184 N 0.39516 0.0941 0.15697 0.0
N185 N 0.11486 0.1396 0.1251 0.0
H186 H 0.24898 0.17413 0.05565 0.0
H187 H 0.16562 0.1869 0.06935 0.0
H188 H 0.07708 0.13449 0.14346 0.0
H189 H 0.09392 0.14351 0.09926 0.0
H190 H 0.41372 0.0745 0.18055 0.0
H191 H 0.43215 0.09564 0.13797 0.0
H192 H 0.35457 0.10435 0.22116 0.0
H193 H 0.26852 0.10457 0.23278 0.0
C194 C 0.01195 0.26936 0.57989 0.0
C195 C 0.07031 0.30945 0.58393 0.0
C196 C 0.1141 0.25054 0.63482 0.0
C197 C 0.04743 0.22318 0.63654 0.0
N198 N 0.93381 0.20154 0.6087 0.0
N199 N 0.19323 0.29553 0.59539 0.0
C200 C -0.00319 0.23032 0.6082 0.0
C201 C 0.12721 0.28837 0.60578 0.0
N202 N 0.97789 0.26197 0.54749 0.0
N203 N 0.16478 0.24108 0.66089 0.0
H204 H 0.20268 0.31304 0.57059 0.0
H205 H 0.23649 0.27625 0.6087 0.0
H206 H 0.15835 0.21156 0.6819 0.0
H207 H 0.21167 0.26536 0.66243 0.0
H208 H 0.93881 0.22936 0.54212 0.0
H209 H -0.00415 0.28288 0.52509 0.0
H210 H 0.89268 0.21061 0.59043 0.0
H211 H 0.92163 0.17146 0.62862 0.0
C212 C 0.76578 0.03824 0.15224 0.0
C213 C 0.72902 0.09431 0.14879 0.0
C214 C 0.81916 0.14497 0.18699 0.0
C215 C 0.85299 0.08771 0.19284 0.0
N216 N 0.83813 0.97745 0.19208 0.0
N217 N 0.70853 0.19402 0.17408 0.0
C218 C 0.81957 0.03345 0.17919 0.0
C219 C 0.7513 0.14509 0.17033 0.0
N220 N 0.75387 0.99093 0.12863 0.0
N221 N 0.85263 0.19955 0.19401 0.0
H222 H 0.65788 0.19461 0.16263 0.0
H223 H 0.72091 0.23029 0.1916 0.0
H224 H 0.90501 0.20371 0.20195 0.0
H225 H 0.83031 0.24147 0.18723 0.0
H226 H 0.78469 0.95183 0.12892 0.0
H227 H 0.71921 0.99311 0.10656 0.0
H228 H 0.81165 0.93731 0.18411 0.0
H229 H 0.87328 0.97234 0.21387 0.0
C230 C 0.03257 0.73946 0.67858 0.0
C231 C 0.09343 0.72807 0.66049 0.0
C232 C 0.13595 0.83115 0.67648 0.0
C233 C 0.06897 0.84673 0.68722 0.0
N234 N 0.95225 0.81491 0.69897 0.0
N235 N 0.2153 0.74706 0.67308 0.0
C236 C 0.01719 0.80037 0.68905 0.0
C237 C 0.14977 0.76931 0.6675 0.0
N238 N 0.99357 0.69114 0.68868 0.0
N239 N 0.18707 0.87456 0.6756 0.0
H240 H 0.22386 0.70009 0.67555 0.0
H241 H 0.25797 0.77447 0.6812 0.0
H242 H 0.18049 0.91994 0.68358 0.0
H243 H 0.23447 0.86576 0.66466 0.0
H244 H 0.95205 0.69563 0.7049 0.0
H245 H 0.00857 0.64603 0.68389 0.0
H246 H 0.91079 0.78393 0.69722 0.0
H247 H 0.9382 0.85928 0.70602 0.0
C248 C 0.18774 0.13689 0.86772 0.0
C249 C 0.25131 0.10458 0.87111 0.0
C250 C 0.23926 0.07502 0.80819 0.0
C251 C 0.17282 0.102 0.80568 0.0
N252 N 0.07909 0.15305 0.83376 0.0
N253 N 0.3335 0.03579 0.84576 0.0
C254 C 0.14593 0.13206 0.83551 0.0
C255 C 0.27584 0.07156 0.84169 0.0
N256 N 0.16715 0.17196 0.89536 0.0
N257 N 0.26858 0.0548 0.77818 0.0
H258 H 0.36453 0.03414 0.86909 0.0
H259 H 0.34788 0.00422 0.82671 0.0
H260 H 0.24346 0.05764 0.75307 0.0
H261 H 0.3201 0.04093 0.7776 0.0
H262 H 0.12641 0.20299 0.89314 0.0
H263 H 0.19329 0.17264 0.92029 0.0
H264 H 0.05358 0.16792 0.85573 0.0
H265 H 0.04662 0.1517 0.81077 0.0
C266 C 0.12705 0.32951 0.35922 0.0
C267 C 0.08962 0.31752 0.38958 0.0
C268 C 0.04625 0.22067 0.36297 0.0
C269 C 0.08461 0.23236 0.33286 0.0
N270 N 0.176 0.28828 0.30654 0.0
N271 N 0.02745 0.24649 0.42426 0.0
C272 C 0.12968 0.2838 0.33238 0.0
C273 C 0.05386 0.26116 0.39274 0.0
N274 N 0.1571 0.38566 0.35513 0.0
N275 N -0.00057 0.17331 0.36234 0.0
H276 H 0.03216 0.27553 0.44643 0.0
H277 H 0.00666 0.20362 0.42941 0.0
H278 H 0.99192 0.14272 0.34106 0.0
H279 H 0.96428 0.16687 0.38181 0.0
H280 H 0.17727 0.39956 0.3316 0.0
H281 H 0.15747 0.4203 0.37434 0.0
H282 H 0.21486 0.32167 0.30672 0.0
H283 H 0.18016 0.25481 0.28684 0.0
C284 C 0.8449 0.05423 0.84427 0.0
C285 C 0.77349 0.06801 0.83848 0.0
C286 C 0.78631 0.07619 0.77448 0.0
C287 C 0.85799 0.06354 0.78044 0.0
N288 N 0.95857 0.04851 0.8208 0.0
N289 N 0.67296 0.08579 0.79915 0.0
C290 C 0.88797 0.05398 0.81524 0.0
C291 C 0.74321 0.07749 0.80382 0.0
N292 N 0.87137 0.04082 0.87763 0.0
N293 N 0.76032 0.08803 0.74089 0.0
H294 H 0.64035 0.08671 0.82014 0.0
H295 H 0.64582 0.089 0.77471 0.0
H296 H 0.79062 0.08545 0.71899 0.0
H297 H 0.70985 0.10228 0.73444 0.0
H298 H 0.92001 0.02164 0.88314 0.0
H299 H 0.84329 0.04552 0.90019 0.0
H300 H 0.98481 0.04908 0.84561 0.0
H301 H 0.99284 0.04785 0.8006 0.0
C302 C 0.02812 0.82268 0.3319 0.0
C303 C 0.0722 0.83593 0.36244 0.0
C304 C 0.11616 0.92729 0.33409 0.0
C305 C 0.06674 0.91752 0.30514 0.0
N306 N 0.96457 0.86358 0.28065 0.0
N307 N 0.1486 0.90658 0.39556 0.0
C308 C 0.01956 0.8673 0.30515 0.0
C309 C 0.11337 0.89005 0.36444 0.0
N310 N -0.00384 0.76672 0.32782 0.0
N311 N 0.16796 0.96991 0.33197 0.0
H312 H 0.14757 0.88046 0.41838 0.0
H313 H 0.17351 0.9488 0.39962 0.0
H314 H 0.17376 0.99655 0.3097 0.0
H315 H 0.20935 0.97451 0.35083 0.0
H316 H 0.96956 0.75239 0.30435 0.0
H317 H 0.00166 0.73233 0.34659 0.0
H318 H 0.92485 0.83118 0.28172 0.0
H319 H 0.95443 0.89668 0.26149 0.0
loop_
_geom_bond_atom_site_label_1
_geom_bond_atom_site_label_2
_geom_bond_distance
_geom_bond_site_symmetry_2
_ccdc_geom_bond_type
H0 O26 0.856 . S
H1 O29 0.854 1_455 S
H2 C37 0.930 . S
H3 C38 0.930 . S
H4 C40 0.930 . S
H5 C41 0.930 . S
H6 C43 0.931 . S
H7 C44 0.930 . S
H8 C46 0.930 1_565 S
H9 C47 0.929 1_565 S
H10 C49 0.930 . S
H11 C50 0.931 . S
H12 C52 0.930 1_565 S
H13 C53 0.929 1_565 S
H14 C55 0.931 . S
H15 C56 0.930 . S
H16 C58 0.933 1_565 S
H17 C59 0.932 1_565 S
H18 C61 0.930 . S
H19 C62 0.929 . S
H20 C64 0.931 . S
H21 C65 0.930 . S
H22 C67 0.929 . S
H23 C68 0.931 . S
H24 C70 0.916 1_565 S
H25 C71 0.929 . S
O26 H0 0.856 . S
O26 C72 1.300 . S
O27 C72 1.209 . S
O28 C73 1.199 . S
O29 H1 0.854 1_655 S
O29 C73 1.297 . S
C30 C31 1.404 . S
C30 C35 1.397 1_556 S
C30 C36 1.492 . S
C31 C30 1.404 . S
C31 C32 1.396 . S
C31 C42 1.492 . S
C32 C31 1.396 . S
C32 C33 1.397 . S
C32 C48 1.509 . S
C33 C32 1.397 . S
C33 C34 1.412 1_556 S
C33 C54 1.485 . S
C34 C33 1.412 1_554 S
C34 C35 1.388 . S
C34 C60 1.490 . S
C35 C30 1.397 1_554 S
C35 C34 1.388 . S
C35 C66 1.519 . S
C36 C30 1.492 . S
C36 C37 1.363 . S
C36 C41 1.390 . S
C37 H2 0.930 . S
C37 C36 1.363 . S
C37 C38 1.372 . S
C38 H3 0.930 . S
C38 C37 1.372 . S
C38 C39 1.383 . S
C39 C38 1.383 . S
C39 C40 1.395 . S
C40 H4 0.930 . S
C40 C39 1.395 . S
C40 C41 1.362 . S
C41 H5 0.930 . S
C41 C36 1.390 . S
C41 C40 1.362 . S
C42 C31 1.492 . S
C42 C43 1.377 . S
C42 C47 1.397 . S
C43 H6 0.931 . S
C43 C42 1.377 . S
C43 C44 1.376 . S
C44 H7 0.930 . S
C44 C43 1.376 . S
C44 C45 1.376 . S
C45 C44 1.376 . S
C45 C46 1.378 . S
C45 C72 1.486 . S
C46 H8 0.930 1_545 S
C46 C45 1.378 . S
C46 C47 1.376 . S
C47 H9 0.929 1_545 S
C47 C42 1.397 . S
C47 C46 1.376 . S
C48 C32 1.509 . S
C48 C49 1.391 . S
C48 C53 1.386 . S
C49 H10 0.930 . S
C49 C48 1.391 . S
C49 C50 1.375 . S
C50 H11 0.931 . S
C50 C49 1.375 . S
C50 C51 1.375 . S
C51 C50 1.375 . S
C51 C52 1.361 . S
C52 H12 0.930 1_545 S
C52 C51 1.361 . S
C52 C53 1.399 . S
C53 H13 0.929 1_545 S
C53 C48 1.386 . S
C53 C52 1.399 . S
C54 C33 1.485 . S
C54 C55 1.394 1_556 S
C54 C59 1.360 . S
C55 H14 0.931 . S
C55 C54 1.394 1_554 S
C55 C56 1.372 . S
C56 H15 0.930 . S
C56 C55 1.372 . S
C56 C57 1.397 . S
C57 C56 1.397 . S
C57 C58 1.390 . S
C57 C73 1.476 . S
C58 H16 0.933 1_545 S
C58 C57 1.390 . S
C58 C59 1.366 1_554 S
C59 H17 0.932 1_545 S
C59 C54 1.360 . S
C59 C58 1.366 1_556 S
C60 C34 1.490 . S
C60 C61 1.380 . S
C60 C65 1.386 . S
C61 H18 0.930 . S
C61 C60 1.380 . S
C61 C62 1.381 . S
C62 H19 0.929 . S
C62 C61 1.381 . S
C62 C63 1.371 . S
C63 C62 1.371 . S
C63 C64 1.380 . S
C64 H20 0.931 . S
C64 C63 1.380 . S
C64 C65 1.387 . S
C65 H21 0.930 . S
C65 C60 1.386 . S
C65 C64 1.387 . S
C66 C35 1.519 . S
C66 C67 1.377 . S
C66 C71 1.361 . S
C67 H22 0.929 . S
C67 C66 1.377 . S
C67 C68 1.386 . S
C68 H23 0.931 . S
C68 C67 1.386 . S
C68 C69 1.363 . S
C69 C68 1.363 . S
C69 C70 1.385 . S
C70 H24 0.916 1_545 S
C70 C69 1.385 . S
C70 C71 1.396 . S
C71 H25 0.929 . S
C71 C66 1.361 . S
C71 C70 1.396 . S
C72 O26 1.300 . S
C72 O27 1.209 . S
C72 C45 1.486 . S
C73 O28 1.199 . S
C73 O29 1.297 . S
C73 C57 1.476 . S
H74 O100 0.856 . S
H75 O103 0.854 . S
H76 C111 0.930 . S
H77 C112 0.930 . S
H78 C114 0.930 . S
H79 C115 0.930 . S
H80 C117 0.931 1_655 S
H81 C118 0.930 1_655 S
H82 C120 0.930 . S
H83 C121 0.929 . S
H84 C123 0.930 1_655 S
H85 C124 0.931 1_655 S
H86 C126 0.930 . S
H87 C127 0.929 . S
H88 C129 0.931 1_655 S
H89 C130 0.930 1_655 S
H90 C132 0.930 . S
H91 C133 0.932 . S
H92 C135 0.930 . S
H93 C136 0.929 . S
H94 C138 0.931 . S
H95 C139 0.930 . S
H96 C141 0.929 1_655 S
H97 C142 0.931 1_655 S
H98 C144 0.930 . S
H99 C145 0.929 . S
O100 H74 0.856 . S
O100 C146 1.300 . S
O101 C146 1.209 . S
O102 C147 1.199 . S
O103 H75 0.854 . S
O103 C147 1.297 . S
C104 C105 1.404 . S
C104 C109 1.397 . S
C104 C110 1.492 . S
C105 C104 1.404 . S
C105 C106 1.396 . S
C105 C116 1.492 . S
C106 C105 1.396 . S
C106 C107 1.397 . S
C106 C122 1.509 . S
C107 C106 1.397 . S
C107 C108 1.412 . S
C107 C128 1.485 . S
C108 C107 1.412 . S
C108 C109 1.388 . S
C108 C134 1.490 . S
C109 C104 1.397 . S
C109 C108 1.388 . S
C109 C140 1.519 . S
C110 C104 1.492 . S
C110 C111 1.363 1_455 S
C110 C115 1.390 . S
C111 H76 0.930 . S
C111 C110 1.363 1_655 S
C111 C112 1.372 . S
C112 H77 0.930 . S
C112 C111 1.372 . S
C112 C113 1.383 1_655 S
C113 C112 1.383 1_455 S
C113 C114 1.395 . S
C114 H78 0.930 . S
C114 C113 1.395 . S
C114 C115 1.362 . S
C115 H79 0.930 . S
C115 C110 1.390 . S
C115 C114 1.362 . S
C116 C105 1.492 . S
C116 C117 1.377 . S
C116 C121 1.397 . S
C117 H80 0.931 1_455 S
C117 C116 1.377 . S
C117 C118 1.376 . S
C118 H81 0.930 1_455 S
C118 C117 1.376 . S
C118 C119 1.376 . S
C119 C118 1.376 . S
C119 C120 1.378 . S
C119 C146 1.486 . S
C120 H82 0.930 . S
C120 C119 1.378 . S
C120 C121 1.376 . S
C121 H83 0.929 . S
C121 C116 1.397 . S
C121 C120 1.376 . S
C122 C106 1.509 . S
C122 C123 1.391 . S
C122 C127 1.386 . S
C123 H84 0.930 1_455 S
C123 C122 1.391 . S
C123 C124 1.375 . S
C124 H85 0.931 1_455 S
C124 C123 1.375 . S
C124 C125 1.375 . S
C125 C124 1.375 . S
C125 C126 1.361 . S
C126 H86 0.930 . S
C126 C125 1.361 . S
C126 C127 1.399 . S
C127 H87 0.929 . S
C127 C122 1.386 . S
C127 C126 1.399 . S
C128 C107 1.485 . S
C128 C129 1.394 . S
C128 C133 1.360 . S
C129 H88 0.931 1_455 S
C129 C128 1.394 . S
C129 C130 1.372 . S
C130 H89 0.930 1_455 S
C130 C129 1.372 . S
C130 C131 1.397 . S
C131 C130 1.397 . S
C131 C132 1.390 . S
C131 C147 1.476 . S
C132 H90 0.930 . S
C132 C131 1.390 . S
C132 C133 1.366 . S
C133 H91 0.932 . S
C133 C128 1.360 . S
C133 C132 1.366 . S
C134 C108 1.490 . S
C134 C135 1.380 1_455 S
C134 C139 1.386 . S
C135 H92 0.930 . S
C135 C134 1.380 1_655 S
C135 C136 1.381 . S
C136 H93 0.929 . S
C136 C135 1.381 . S
C136 C137 1.371 1_655 S
C137 C136 1.371 1_455 S
C137 C138 1.380 . S
C138 H94 0.931 . S
C138 C137 1.380 . S
C138 C139 1.387 . S
C139 H95 0.930 . S
C139 C134 1.386 . S
C139 C138 1.387 . S
C140 C109 1.519 . S
C140 C141 1.377 . S
C140 C145 1.361 . S
C141 H96 0.929 1_455 S
C141 C140 1.377 . S
C141 C142 1.386 . S
C142 H97 0.931 1_455 S
C142 C141 1.386 . S
C142 C143 1.363 . S
C143 C142 1.363 . S
C143 C144 1.385 . S
C144 H98 0.930 . S
C144 C143 1.385 . S
C144 C145 1.396 . S
C145 H99 0.929 . S
C145 C140 1.361 . S
C145 C144 1.396 . S
C146 O100 1.300 . S
C146 O101 1.209 . S
C146 C119 1.486 . S
C147 O102 1.199 . S
C147 O103 1.297 . S
C147 C131 1.476 . S
O148 Cd149 2.223 . S
O148 C156 1.315 1_455 S
Cd149 O148 2.223 . S
Cd149 O152 2.297 1_545 S
Cd149 O153 2.439 . S
Cd149 O159 2.240 . S
Cd150 O151 2.240 1_455 S
Cd150 O158 2.223 . S
Cd150 O160 2.297 . S
Cd150 O161 2.439 . S
O151 Cd150 2.240 1_655 S
O151 C156 1.279 . S
O152 Cd149 2.297 1_565 S
O152 C154 1.247 . S
O153 Cd149 2.439 . S
O153 C154 1.208 1_545 S
C154 O152 1.247 . S
C154 O153 1.208 1_565 S
C155 O160 1.247 . S
C155 O161 1.208 . S
C156 O148 1.315 1_655 S
C156 O151 1.279 . S
C157 O158 1.315 . S
C157 O159 1.279 . S
O158 Cd150 2.223 . S
O158 C157 1.315 . S
O159 Cd149 2.240 . S
O159 C157 1.279 . S
O160 Cd150 2.297 . S
O160 C155 1.247 . S
O161 Cd150 2.439 . S
O161 C155 1.208 . S
O162 Cd163 2.223 . S
O162 C170 1.315 1_455 S
Cd163 O162 2.223 . S
Cd163 O166 2.297 . S
Cd163 O167 2.439 . S
Cd163 O173 2.240 . S
Cd164 O165 2.240 1_465 S
Cd164 O172 2.223 . S
Cd164 O174 2.297 . S
Cd164 O175 2.439 . S
O165 Cd164 2.240 1_645 S
O165 C170 1.279 . S
O166 Cd163 2.297 . S
O166 C168 1.247 . S
O167 Cd163 2.439 . S
O167 C168 1.208 . S
C168 O166 1.247 . S
C168 O167 1.208 . S
C169 O174 1.247 . S
C169 O175 1.208 . S
C170 O162 1.315 1_655 S
C170 O165 1.279 . S
C171 O172 1.315 1_545 S
C171 O173 1.279 . S
O172 Cd164 2.223 . S
O172 C171 1.315 1_565 S
O173 Cd163 2.240 . S
O173 C171 1.279 . S
O174 Cd164 2.297 . S
O174 C169 1.247 . S
O175 Cd164 2.439 . S
O175 C169 1.208 . S
C176 C177 1.363 . S
C176 C182 1.379 . S
C176 N184 1.356 . S
C177 C176 1.363 . S
C177 C183 1.363 . S
C178 C179 1.363 . S
C178 C183 1.379 . S
C178 N185 1.356 . S
C179 C178 1.363 . S
C179 C182 1.363 . S
N180 C182 1.356 . S
N180 H192 0.984 . S
N180 H193 0.985 . S
N181 C183 1.356 . S
N181 H186 0.984 . S
N181 H187 0.985 . S
C182 C176 1.379 . S
C182 C179 1.363 . S
C182 N180 1.356 . S
C183 C177 1.363 . S
C183 C178 1.379 . S
C183 N181 1.356 . S
N184 C176 1.356 . S
N184 H190 0.984 . S
N184 H191 0.984 . S
N185 C178 1.356 . S
N185 H188 0.984 . S
N185 H189 0.985 . S
H186 N181 0.984 . S
H187 N181 0.985 . S
H188 N185 0.984 . S
H189 N185 0.985 . S
H190 N184 0.984 . S
H191 N184 0.984 . S
H192 N180 0.984 . S
H193 N180 0.985 . S
C194 C195 1.355 1_655 S
C194 C200 1.382 . S
C194 N202 1.360 . S
C195 C194 1.355 1_455 S
C195 C201 1.363 . S
C196 C197 1.363 . S
C196 C201 1.379 . S
C196 N203 1.356 . S
C197 C196 1.363 . S
C197 C200 1.363 1_455 S
N198 C200 1.356 . S
N198 H210 0.984 . S
N198 H211 0.985 . S
N199 C201 1.356 . S
N199 H204 0.984 . S
N199 H205 0.985 . S
C200 C194 1.382 . S
C200 C197 1.363 1_655 S
C200 N198 1.356 . S
C201 C195 1.363 . S
C201 C196 1.379 . S
C201 N199 1.356 . S
N202 C194 1.360 . S
N202 H208 0.984 . S
N202 H209 0.984 . S
N203 C196 1.356 . S
N203 H206 0.984 . S
N203 H207 0.985 . S
H204 N199 0.984 . S
H205 N199 0.985 . S
H206 N203 0.984 . S
H207 N203 0.985 . S
H208 N202 0.984 . S
H209 N202 0.984 . S
H210 N198 0.984 . S
H211 N198 0.985 . S
C212 C213 1.363 . S
C212 C218 1.379 . S
C212 N220 1.356 . S
C213 C212 1.363 . S
C213 C219 1.363 . S
C214 C215 1.363 . S
C214 C219 1.379 . S
C214 N221 1.356 . S
C215 C214 1.363 . S
C215 C218 1.363 . S
N216 C218 1.356 . S
N216 H228 0.984 1_545 S
N216 H229 0.985 . S
N217 C219 1.356 . S
N217 H222 0.984 . S
N217 H223 0.985 . S
C218 C212 1.379 . S
C218 C215 1.363 . S
C218 N216 1.356 . S
C219 C213 1.363 . S
C219 C214 1.379 . S
C219 N217 1.356 . S
N220 C212 1.356 . S
N220 H226 0.984 . S
N220 H227 0.984 . S
N221 C214 1.356 . S
N221 H224 0.984 . S
N221 H225 0.985 . S
H222 N217 0.984 . S
H223 N217 0.985 . S
H224 N221 0.984 . S
H225 N221 0.985 . S
H226 N220 0.984 . S
H227 N220 0.984 . S
H228 N216 0.984 1_565 S
H229 N216 0.985 . S
C230 C231 1.363 . S
C230 C236 1.379 . S
C230 N238 1.356 1_455 S
C231 C230 1.363 . S
C231 C237 1.363 . S
C232 C233 1.363 . S
C232 C237 1.379 . S
C232 N239 1.356 . S
C233 C232 1.363 . S
C233 C236 1.363 . S
N234 C236 1.356 1_655 S
N234 H246 0.984 . S
N234 H247 0.985 1_655 S
N235 C237 1.356 . S
N235 H240 0.984 . S
N235 H241 0.985 . S
C236 C230 1.379 . S
C236 C233 1.363 . S
C236 N234 1.356 1_455 S
C237 C231 1.363 . S
C237 C232 1.379 . S
C237 N235 1.356 . S
N238 C230 1.356 1_655 S
N238 H244 0.984 . S
N238 H245 0.984 . S
N239 C232 1.356 . S
N239 H242 0.984 . S
N239 H243 0.985 . S
H240 N235 0.984 . S
H241 N235 0.985 . S
H242 N239 0.984 . S
H243 N239 0.985 . S
H244 N238 0.984 . S
H245 N238 0.984 . S
H246 N234 0.984 . S
H247 N234 0.985 1_455 S
C248 C249 1.363 . S
C248 C254 1.379 . S
C248 N256 1.356 . S
C249 C248 1.363 . S
C249 C255 1.363 . S
C250 C251 1.363 . S
C250 C255 1.379 . S
C250 N257 1.356 1_545 S
C251 C250 1.363 . S
C251 C254 1.363 . S
N252 C254 1.356 . S
N252 H264 0.984 . S
N252 H265 0.985 . S
N253 C255 1.356 . S
N253 H258 0.984 . S
N253 H259 0.981 1_545 S
C254 C248 1.379 . S
C254 C251 1.363 . S
C254 N252 1.356 . S
C255 C249 1.363 . S
C255 C250 1.379 . S
C255 N253 1.356 . S
N256 C248 1.356 . S
N256 H262 0.984 . S
N256 H263 0.984 . S
N257 C250 1.356 1_565 S
N257 H260 0.984 . S
N257 H261 0.985 . S
H258 N253 0.984 . S
H259 N253 0.981 1_565 S
H260 N257 0.984 . S
H261 N257 0.985 . S
H262 N256 0.984 . S
H263 N256 0.984 . S
H264 N252 0.984 . S
H265 N252 0.985 . S
C266 C267 1.363 . S
C266 C272 1.379 . S
C266 N274 1.356 . S
C267 C266 1.363 . S
C267 C273 1.363 . S
C268 C269 1.363 . S
C268 C273 1.379 . S
C268 N275 1.356 . S
C269 C268 1.363 . S
C269 C272 1.363 . S
N270 C272 1.356 . S
N270 H282 0.984 . S
N270 H283 0.985 . S
N271 C273 1.356 . S
N271 H276 0.984 . S
N271 H277 0.985 . S
C272 C266 1.379 . S
C272 C269 1.363 . S
C272 N270 1.356 . S
C273 C267 1.363 . S
C273 C268 1.379 . S
C273 N271 1.356 . S
N274 C266 1.356 . S
N274 H280 0.984 . S
N274 H281 0.984 . S
N275 C268 1.356 . S
N275 H278 0.984 . S
N275 H279 0.985 . S
H276 N271 0.984 . S
H277 N271 0.985 . S
H278 N275 0.984 . S
H279 N275 0.985 . S
H280 N274 0.984 . S
H281 N274 0.984 . S
H282 N270 0.984 . S
H283 N270 0.985 . S
C284 C285 1.363 . S
C284 C290 1.379 . S
C284 N292 1.356 1_545 S
C285 C284 1.363 . S
C285 C291 1.363 . S
C286 C287 1.363 . S
C286 C291 1.379 . S
C286 N293 1.356 . S
C287 C286 1.363 . S
C287 C290 1.363 . S
N288 C290 1.356 . S
N288 H300 0.984 1_645 S
N288 H301 0.985 1_655 S
N289 C291 1.356 . S
N289 H294 0.984 . S
N289 H295 0.985 . S
C290 C284 1.379 . S
C290 C287 1.363 . S
C290 N288 1.356 . S
C291 C285 1.363 . S
C291 C286 1.379 . S
C291 N289 1.356 . S
N292 C284 1.356 1_565 S
N292 H298 0.984 . S
N292 H299 0.984 . S
N293 C286 1.356 . S
N293 H296 0.984 . S
N293 H297 0.985 . S
H294 N289 0.984 . S
H295 N289 0.985 . S
H296 N293 0.984 . S
H297 N293 0.985 . S
H298 N292 0.984 . S
H299 N292 0.984 . S
H300 N288 0.984 1_465 S
H301 N288 0.985 1_455 S
C302 C303 1.363 . S
C302 C308 1.379 . S
C302 N310 1.356 . S
C303 C302 1.363 . S
C303 C309 1.363 . S
C304 C305 1.363 . S
C304 C309 1.379 . S
C304 N311 1.356 1_455 S
C305 C304 1.363 . S
C305 C308 1.363 . S
N306 C308 1.356 . S
N306 H318 0.984 . S
N306 H319 0.985 1_455 S
N307 C309 1.356 . S
N307 H312 0.984 . S
N307 H313 0.985 . S
C308 C302 1.379 . S
C308 C305 1.363 . S
C308 N306 1.356 . S
C309 C303 1.363 . S
C309 C304 1.379 . S
C309 N307 1.356 . S
N310 C302 1.356 . S
N310 H316 0.984 . S
N310 H317 0.984 . S
N311 C304 1.356 1_655 S
N311 H314 0.984 . S
N311 H315 0.985 . S
H312 N307 0.984 . S
H313 N307 0.985 . S
H314 N311 0.984 . S
H315 N311 0.985 . S
H316 N310 0.984 . S
H317 N310 0.984 . S
H318 N306 0.984 . S
H319 N306 0.985 1_655 S
C179 C157 2.130 . S
C177 C69 2.115 . S
C197 C168 2.146 . S
C195 C143 2.236 . S
C215 C156 1.888 . S
C213 C63 1.675 . S
C233 C169 1.710 . S
C231 C137 1.647 . S
C251 C171 1.853 . S
C249 C39 1.654 . S
C269 C155 1.664 . S
C267 C113 1.571 . S
C287 C170 1.049 . S
C285 C51 1.035 . S
C303 C125 1.149 . S
C305 C154 1.089 . S
