# Generated by pormake.
# Topology tsx, (6,3)-cn, num edge types: 1
# Building blocks:
#     Node 0, Type 0, BuildingBlock: FUNLAD_clean_sbu_0, # of connection points: 6
#     Node 1, Type 0, BuildingBlock: FUNLAD_clean_sbu_0, # of connection points: 6
#     Node 2, Type 1, BuildingBlock: MIDCAF_clean_linker_0, # of connection points: 3
#     Node 3, Type 1, BuildingBlock: MIDCAF_clean_linker_0, # of connection points: 3
#     Node 4, Type 1, BuildingBlock: MIDCAF_clean_linker_0, # of connection points: 3
#     Node 5, Type 1, BuildingBlock: MIDCAF_clean_linker_0, # of connection points: 3
#     Edge 6, Type (0, 1), BuildingBlock: AJUNOK_clean_linker_0, # of connection points: 2
#     Edge 7, Type (0, 1), BuildingBlock: AJUNOK_clean_linker_0, # of connection points: 2
#     Edge 8, Type (0, 1), BuildingBlock: AJUNOK_clean_linker_0, # of connection points: 2
#     Edge 9, Type (0, 1), BuildingBlock: AJUNOK_clean_linker_0, # of connection points: 2
#     Edge 10, Type (0, 1), BuildingBlock: AJUNOK_clean_linker_0, # of connection points: 2
#     Edge 11, Type (0, 1), BuildingBlock: AJUNOK_clean_linker_0, # of connection points: 2
#     Edge 12, Type (0, 1), BuildingBlock: AJUNOK_clean_linker_0, # of connection points: 2
#     Edge 13, Type (0, 1), BuildingBlock: AJUNOK_clean_linker_0, # of connection points: 2
#     Edge 14, Type (0, 1), BuildingBlock: AJUNOK_clean_linker_0, # of connection points: 2
#     Edge 15, Type (0, 1), BuildingBlock: AJUNOK_clean_linker_0, # of connection points: 2
#     Edge 16, Type (0, 1), BuildingBlock: AJUNOK_clean_linker_0, # of connection points: 2
#     Edge 17, Type (0, 1), BuildingBlock: AJUNOK_clean_linker_0, # of connection points: 2
# Relax obj value: 0.165
# Max RMSD: 0.154
# Mean RMSD: 0.081
data_MOF--net-tsx--node1-FUNLAD_clean_sbu_0--node2-MIDCAF_clean_linker_0--edge1-AJUNOK_clean_linker_0
_symmetry_space_group_name_H-M    P1
_symmetry_Int_Tables_number       1
_symmetry_cell_setting            triclinic
loop_
_symmetry_equiv_pos_as_xyz
'x, y, z'
_cell_length_a     18.020606
_cell_length_b     20.035239
_cell_length_c     40.75229
_cell_angle_alpha  91.068592
_cell_angle_beta   92.155768
_cell_angle_gamma 90.093054
loop_
_atom_site_label
_atom_site_type_symbol
_atom_site_fract_x
_atom_site_fract_y
_atom_site_fract_z
_atom_type_partial_charge
C0 C 0.91146 0.87257 -0.00209 0.0
N1 N 0.01952 0.97391 0.07665 0.0
C2 C 0.9566 0.96657 0.09366 0.0
C3 C 0.95981 0.96907 0.12791 0.0
C4 C 0.02832 0.97977 0.14476 0.0
C5 C 0.09231 0.98718 0.12655 0.0
C6 C 0.08674 0.98329 0.09237 0.0
Zn7 Zn 0.01251 0.97671 0.02678 0.0
C8 C 0.12642 0.89233 0.99557 0.0
N9 N -0.00251 0.98762 0.92243 0.0
C10 C 0.93015 0.98164 0.90636 0.0
C11 C 0.05987 0.0018 0.90604 0.0
C12 C 0.05556 0.01273 0.8723 0.0
C13 C 0.98656 0.00832 0.85533 0.0
C14 C 0.92351 0.99136 0.87254 0.0
Zn15 Zn 0.00427 0.98181 0.9724 0.0
O16 O 0.93836 0.89594 0.02499 0.0
C17 C 0.89096 0.06662 0.00315 0.0
O18 O 0.92898 0.89891 0.97111 0.0
H19 H 0.11289 0.006 0.91925 0.0
H20 H 0.90368 0.9596 0.08063 0.0
H21 H 0.88121 0.97078 0.91989 0.0
O22 O 0.92233 0.04588 0.02948 0.0
O23 O 0.91426 0.04686 0.97564 0.0
H24 H 0.13603 0.98902 0.07836 0.0
O25 O 0.07912 0.06555 0.97457 0.0
O26 O 0.08707 0.05665 0.02802 0.0
O27 O 0.09496 0.91598 0.96989 0.0
O28 O 0.10246 0.90864 0.02355 0.0
C29 C 0.1065 0.08535 0.00226 0.0
H30 H 0.90924 0.96282 0.14108 0.0
H31 H 0.14595 -0.00281 0.13851 0.0
H32 H 0.10547 0.02479 0.85962 0.0
H33 H 0.86942 0.98754 0.86011 0.0
C34 C 0.42143 0.37364 0.50245 0.0
N35 N 0.5317 0.47605 0.58058 0.0
C36 C 0.46838 0.48171 0.59761 0.0
C37 C 0.47218 0.48933 0.63173 0.0
C38 C 0.54166 0.48991 0.64832 0.0
C39 C 0.60594 0.48153 0.63044 0.0
C40 C 0.59972 0.47522 0.59629 0.0
Zn41 Zn 0.52493 0.47637 0.53053 0.0
C42 C 0.63719 0.38835 0.50047 0.0
N43 N 0.51148 0.48279 0.42581 0.0
C44 C 0.44433 0.47489 0.40975 0.0
C45 C 0.57388 0.49559 0.40915 0.0
C46 C 0.56996 0.50203 0.37506 0.0
C47 C 0.50141 0.49419 0.35799 0.0
C48 C 0.4381 0.48008 0.37564 0.0
Zn49 Zn 0.51781 0.4796 0.47599 0.0
O50 O 0.44716 0.3982 0.52951 0.0
C51 C 0.40581 0.56754 0.50573 0.0
O52 O 0.44183 0.39758 0.47552 0.0
H53 H 0.62673 0.50155 0.42236 0.0
H54 H 0.4149 0.48189 0.58467 0.0
H55 H 0.39529 0.46544 0.42346 0.0
O56 O 0.43779 0.5485 0.53221 0.0
O57 O 0.4278 0.54555 0.47836 0.0
H58 H 0.64937 0.47136 0.58229 0.0
O59 O 0.59334 0.56248 0.47759 0.0
O60 O 0.60272 0.55357 0.53106 0.0
O61 O 0.60829 0.41274 0.47439 0.0
O62 O 0.61181 0.40537 0.52806 0.0
C63 C 0.62198 0.58182 0.50513 0.0
H64 H 0.42159 0.49524 0.64501 0.0
H65 H 0.66036 0.4819 0.64269 0.0
H66 H 0.61993 0.51272 0.36214 0.0
H67 H 0.38416 0.47447 0.36324 0.0
C68 C 0.85959 0.12884 0.49135 0.0
C69 C 0.87547 0.19625 0.48567 0.0
C70 C 0.941 0.21274 0.47001 0.0
C71 C 0.98734 0.16256 0.45837 0.0
H72 H 0.08618 0.90715 0.50741 0.0
H73 H 0.15501 0.81167 0.53043 0.0
H74 H 0.22311 0.75623 0.4332 0.0
H75 H 0.15483 0.84813 0.41042 0.0
H76 H 0.0463 0.88984 0.35173 0.0
H77 H 0.0438 0.88792 0.29218 0.0
H78 H 0.02217 0.10257 0.29196 0.0
H79 H 0.02165 0.10444 0.35216 0.0
H80 H 0.88998 0.02698 0.48211 0.0
H81 H 0.80872 0.11469 0.50276 0.0
H82 H 0.95444 0.26437 0.4654 0.0
H83 H 0.03565 0.17619 0.4449 0.0
N84 N 0.04098 0.9908 0.45968 0.0
N85 N 0.07163 0.94581 0.4085 0.0
N86 N 0.00753 0.0467 0.41084 0.0
C87 C 0.07409 0.94209 0.44168 0.0
C88 C 0.03854 -0.00269 0.39287 0.0
C89 C 0.00826 0.04347 0.44414 0.0
C90 C 0.11427 0.88536 0.45701 0.0
C91 C 0.11558 0.87422 0.49105 0.0
C92 C 0.15513 0.81985 0.50424 0.0
C93 C 0.1938 0.7762 0.48352 0.0
C94 C 0.19263 0.78803 0.44973 0.0
C95 C 0.15344 0.84139 0.43669 0.0
C96 C 0.0351 -0.00255 0.35664 0.0
C97 C 0.0413 0.9368 0.33909 0.0
C98 C 0.04043 0.93567 0.30494 0.0
C99 C 0.03495 0.99525 0.28747 0.0
C100 C 0.02694 0.05593 0.30489 0.0
C101 C 0.0267 0.05701 0.33925 0.0
C102 C 0.96916 0.09528 0.46248 0.0
C103 C 0.906 0.07868 0.47963 0.0
C104 C 0.77215 0.85927 0.55073 0.0
C105 C 0.79692 0.82183 0.52395 0.0
C106 C 0.85836 0.84415 0.507 0.0
C107 C 0.89735 0.90134 0.51818 0.0
H108 H 0.12054 0.02889 0.5204 0.0
H109 H 0.22158 0.09515 0.4982 0.0
H110 H 0.1212 0.27538 0.53514 0.0
H111 H 0.02154 0.20933 0.55794 0.0
H112 H 0.06772 0.09998 0.65156 0.0
H113 H 0.07291 0.09493 0.71132 0.0
H114 H 0.84894 0.01732 0.70918 0.0
H115 H 0.84484 0.01971 0.64936 0.0
H116 H 0.79131 0.94242 0.58327 0.0
H117 H 0.72433 0.8431 0.56388 0.0
H118 H 0.87816 0.81571 0.48624 0.0
H119 H 0.94654 0.91616 0.5057 0.0
N120 N 0.97058 0.02531 0.54436 0.0
N121 N 0.00524 0.08781 0.59199 0.0
N122 N 0.91496 0.00433 0.59425 0.0
C123 C 0.01151 0.07501 0.55934 0.0
C124 C 0.95732 0.05213 0.60964 0.0
C125 C 0.92087 0.99068 0.56172 0.0
C126 C 0.06406 0.11434 0.54093 0.0
C127 C 0.11926 0.08277 0.5229 0.0
C128 C 0.17673 0.12043 0.51026 0.0
C129 C 0.17836 0.19 0.51498 0.0
C130 C 0.12036 0.22178 0.53104 0.0
C131 C 0.06394 0.18413 0.54422 0.0
C132 C 0.95602 0.05991 0.64575 0.0
C133 C 0.01905 0.08313 0.66388 0.0
C134 C 0.0219 0.0805 0.69816 0.0
C135 C 0.96124 0.05582 0.71501 0.0
C136 C 0.89688 0.03582 0.69688 0.0
C137 C 0.89443 0.03751 0.66264 0.0
C138 C 0.87515 0.93642 0.5464 0.0
C139 C 0.81078 0.9159 0.56185 0.0
C140 C 0.35703 0.63685 0.98978 0.0
C141 C 0.37094 0.70488 0.98474 0.0
C142 C 0.43928 0.72415 0.97239 0.0
C143 C 0.48941 0.67602 0.962 0.0
H144 H 0.57459 0.40939 0.00475 0.0
H145 H 0.63538 0.30846 0.0264 0.0
H146 H 0.75261 0.28557 0.9365 0.0
H147 H 0.69362 0.38436 0.91506 0.0
H148 H 0.67092 0.4809 0.8557 0.0
H149 H 0.66964 0.48 0.79584 0.0
H150 H 0.45387 0.57402 0.79381 0.0
H151 H 0.45713 0.57821 0.85367 0.0
H152 H 0.39355 0.5362 0.98125 0.0
H153 H 0.3047 0.62085 -0.00071 0.0
H154 H 0.45188 0.77638 0.96893 0.0
H155 H 0.53961 0.69187 0.95051 0.0
N156 N 0.54915 0.5061 0.96099 0.0
N157 N 0.59585 0.47229 0.91034 0.0
N158 N 0.52216 0.56767 0.91331 0.0
C159 C 0.59018 0.46274 0.94305 0.0
C160 C 0.56176 0.52404 0.89527 0.0
C161 C 0.51618 0.55927 0.9461 0.0
C162 C 0.62845 0.40471 0.958 0.0
C163 C 0.6137 0.38292 0.98978 0.0
C164 C 0.64832 0.32535 0.00218 0.0
C165 C 0.69768 0.289 0.98284 0.0
C166 C 0.71365 0.31199 0.95163 0.0
C167 C 0.6797 0.36891 0.9394 0.0
C168 C 0.56417 0.52972 0.85929 0.0
C169 C 0.62383 0.50242 0.84242 0.0
C170 C 0.62293 0.50162 0.80816 0.0
C171 C 0.56179 0.52709 0.79002 0.0
C172 C 0.50272 0.55559 0.80698 0.0
C173 C 0.50434 0.55764 0.84129 0.0
C174 C 0.47275 0.608 0.9645 0.0
C175 C 0.40773 0.58854 0.97959 0.0
C176 C 0.26313 0.36009 0.05037 0.0
C177 C 0.2839 0.32419 0.02236 0.0
C178 C 0.34428 0.34639 0.00467 0.0
C179 C 0.38657 0.40134 0.01634 0.0
H180 H 0.62991 0.51897 0.02513 0.0
H181 H 0.72723 0.58694 0.00124 0.0
H182 H 0.61427 0.76611 0.03172 0.0
H183 H 0.51782 0.69817 0.05589 0.0
H184 H 0.57983 0.57739 0.15273 0.0
H185 H 0.58792 0.56824 0.21249 0.0
H186 H 0.36203 0.49569 0.21135 0.0
H187 H 0.35476 0.50236 0.15172 0.0
H188 H 0.28911 0.43927 0.08449 0.0
H189 H 0.21615 0.3441 0.06412 0.0
H190 H 0.361 0.31919 0.98296 0.0
H191 H 0.43509 0.41575 0.00327 0.0
N192 N 0.46891 0.51899 0.04471 0.0
N193 N 0.51317 0.57225 0.09364 0.0
N194 N 0.41798 0.49307 0.09504 0.0
C195 C 0.51485 0.56404 0.06049 0.0
C196 C 0.46498 0.53638 0.11112 0.0
C197 C 0.41926 0.48411 0.06197 0.0
C198 C 0.567 0.60377 0.04217 0.0
C199 C 0.62526 0.57283 0.0259 0.0
C200 C 0.68064 0.6115 0.01235 0.0
C201 C 0.67769 0.68146 0.01468 0.0
C202 C 0.61714 0.71222 0.02942 0.0
C203 C 0.56254 0.67359 0.04339 0.0
C204 C 0.46697 0.53981 0.14745 0.0
C205 C 0.53167 0.56012 0.16528 0.0
C206 C 0.53635 0.55482 0.19949 0.0
C207 C 0.47625 0.52963 0.21654 0.0
C208 C 0.41019 0.51302 0.19883 0.0
C209 C 0.40583 0.51745 0.16468 0.0
C210 C 0.36891 0.43408 0.0459 0.0
C211 C 0.30516 0.41434 0.06204 0.0
C212 C 0.15915 0.19197 0.98116 0.0
C213 C 0.15904 0.14219 0.00516 0.0
C214 C 0.20256 0.25006 0.98588 0.0
C215 C 0.24713 0.25961 0.01462 0.0
H216 H 0.12318 0.1874 0.95933 0.0
H217 H 0.19886 0.28879 0.9677 0.0
S218 S 0.2753 0.14042 0.08236 0.0
N219 N 0.21401 0.1036 0.0569 0.0
N220 N 0.29487 0.21234 0.06554 0.0
C221 C 0.25089 0.20859 0.0377 0.0
C222 C 0.207 0.14994 0.03303 0.0
C223 C 0.21317 0.80662 0.01958 0.0
C224 C 0.1902 0.84615 0.9928 0.0
C225 C 0.27205 0.76117 0.01706 0.0
C226 C 0.31074 0.75459 0.98788 0.0
H227 H 0.18476 0.80998 0.0425 0.0
H228 H 0.2875 0.73108 0.03804 0.0
S229 S 0.27304 0.84601 0.91068 0.0
N230 N 0.21156 0.87547 0.93619 0.0
N231 N 0.32158 0.7902 0.93157 0.0
C232 C 0.28878 0.79403 0.96106 0.0
C233 C 0.2287 0.83977 0.96349 0.0
C234 C 0.79191 0.81909 0.97855 0.0
C235 C 0.85756 0.81725 -0.00169 0.0
C236 C 0.73446 0.77293 0.98284 0.0
C237 C 0.74208 0.7226 0.00632 0.0
H238 H 0.78318 0.85864 0.96105 0.0
H239 H 0.68294 0.77782 0.96851 0.0
S240 S 0.90568 0.69305 0.06191 0.0
N241 N 0.92857 0.75898 0.04073 0.0
N242 N 0.82159 0.6713 0.04811 0.0
C243 C 0.80908 0.71807 0.02482 0.0
C244 C 0.86666 0.7657 0.02097 0.0
C245 C 0.77774 0.11632 0.97748 0.0
C246 C 0.8308 0.11639 0.00363 0.0
C247 C 0.72966 0.17018 0.97283 0.0
C248 C 0.73344 0.22652 0.99393 0.0
H249 H 0.77585 0.07579 0.95947 0.0
H250 H 0.69242 0.16967 0.95131 0.0
S251 S 0.8569 0.24817 0.06813 0.0
N252 N 0.87942 0.17426 0.05286 0.0
N253 N 0.78956 0.27673 0.0436 0.0
C254 C 0.78208 0.22508 0.02165 0.0
C255 C 0.8308 0.16963 0.02662 0.0
C256 C 0.67594 0.6869 0.48311 0.0
C257 C 0.67491 0.63838 0.50769 0.0
C258 C 0.7189 0.74527 0.48749 0.0
C259 C 0.76212 0.75637 0.51649 0.0
H260 H 0.64083 0.68127 0.46106 0.0
H261 H 0.71565 0.78316 0.46888 0.0
S262 S 0.78751 0.64097 0.58596 0.0
N263 N 0.72766 0.60256 0.56039 0.0
N264 N 0.80765 0.71201 0.56842 0.0
C265 C 0.76515 0.70657 0.5402 0.0
C266 C 0.72171 0.64756 0.53586 0.0
C267 C 0.73687 0.33402 0.46866 0.0
C268 C 0.70011 0.34104 0.49839 0.0
C269 C 0.7951 0.28867 0.46531 0.0
C270 C 0.8187 0.2481 0.49144 0.0
H271 H 0.72031 0.36345 0.4476 0.0
H272 H 0.82042 0.28396 0.44168 0.0
S273 S 0.74374 0.24847 0.57487 0.0
N274 N 0.69357 0.30475 0.55497 0.0
N275 N 0.80319 0.21908 0.54836 0.0
C276 C 0.78362 0.25514 0.52149 0.0
C277 C 0.72444 0.30182 0.52506 0.0
C278 C 0.30438 0.31999 0.47997 0.0
C279 C 0.36516 0.32012 0.50272 0.0
C280 C 0.24478 0.27551 0.48301 0.0
C281 C 0.24548 0.22878 0.50829 0.0
H282 H 0.301 0.35677 0.46081 0.0
H283 H 0.19695 0.27901 0.46622 0.0
S284 S 0.39422 0.20488 0.57216 0.0
N285 N 0.42406 0.26714 0.55012 0.0
N286 N 0.31304 0.18257 0.55519 0.0
C287 C 0.30753 0.22611 0.53003 0.0
C288 C 0.36725 0.27206 0.5274 0.0
C289 C 0.28446 0.60704 0.48333 0.0
C290 C 0.3443 0.61574 0.50604 0.0
C291 C 0.23153 0.65714 0.47866 0.0
C292 C 0.23756 0.71862 0.49589 0.0
H293 H 0.28011 0.56213 0.46813 0.0
H294 H 0.18801 0.64931 0.4599 0.0
S295 S 0.38066 0.76343 0.56035 0.0
N296 N 0.40312 0.68714 0.54829 0.0
N297 N 0.30501 0.78313 0.53849 0.0
C298 C 0.29432 0.72616 0.52033 0.0
C299 C 0.3476 0.67427 0.52557 0.0
C300 C 0.98053 0.02324 0.19794 0.0
C301 C 0.03248 0.98434 0.18115 0.0
C302 C 0.98263 0.02774 0.2323 0.0
C303 C 0.03669 0.99343 0.25113 0.0
H304 H 0.93794 0.05055 0.1844 0.0
H305 H 0.94066 0.05716 0.24422 0.0
S306 S 0.18678 0.88656 0.21913 0.0
N307 N 0.13966 0.91103 0.186 0.0
N308 N 0.14553 0.92177 0.25051 0.0
C309 C 0.0899 0.95548 0.23465 0.0
C310 C 0.08739 0.95045 0.1997 0.0
C311 C 0.94891 0.97381 0.79795 0.0
C312 C 0.98009 0.02199 0.81982 0.0
C313 C 0.94272 0.98548 0.76418 0.0
C314 C 0.96669 0.0461 0.75109 0.0
H315 H 0.93028 0.92633 0.80696 0.0
H316 H 0.92006 0.94617 0.74815 0.0
S317 S 0.0463 0.19053 0.79875 0.0
N318 N 0.03201 0.13353 0.8266 0.0
N319 N 0.01876 0.15637 0.76315 0.0
C320 C 0.99661 0.09523 0.77291 0.0
C321 C 0.00362 0.08298 0.80726 0.0
C322 C 0.57367 0.44975 0.70452 0.0
C323 C 0.54717 0.50079 0.68417 0.0
C324 C 0.57843 0.45892 0.73869 0.0
C325 C 0.55789 0.51984 0.75363 0.0
H326 H 0.58967 0.4021 0.69397 0.0
H327 H 0.59724 0.41749 0.75352 0.0
S328 S 0.49116 0.67085 0.71018 0.0
N329 N 0.50304 0.61483 0.6806 0.0
N330 N 0.51447 0.63339 0.74482 0.0
C331 C 0.5329 0.57181 0.73324 0.0
C332 C 0.52705 0.56197 0.69849 0.0
C333 C 0.5207 0.56059 0.30761 0.0
C334 C 0.4957 0.50173 0.32192 0.0
C335 C 0.51423 0.56932 0.27354 0.0
C336 C 0.48299 0.51928 0.25257 0.0
H337 H 0.54431 0.6006 0.32294 0.0
H338 H 0.53292 0.61595 0.26362 0.0
S339 S 0.41631 0.35314 0.27787 0.0
N340 N 0.44257 0.3913 0.31266 0.0
N341 N 0.43193 0.4067 0.24859 0.0
C342 C 0.45951 0.45949 0.26663 0.0
C343 C 0.4655 0.45096 0.3013 0.0
loop_
_geom_bond_atom_site_label_1
_geom_bond_atom_site_label_2
_geom_bond_distance
_geom_bond_site_symmetry_2
_ccdc_geom_bond_type
C0 O16 1.251 . S
C0 O18 1.254 1_554 S
N1 C2 1.333 1_445 S
N1 C6 1.307 . S
N1 Zn7 2.020 . S
C2 N1 1.333 1_665 S
C2 C3 1.379 . S
C2 H20 0.952 . S
C3 C2 1.379 . S
C3 C4 1.390 1_665 S
C3 H30 0.949 . S
C4 C3 1.390 1_445 S
C4 C5 1.357 . S
C5 C4 1.357 . S
C5 C6 1.370 . S
C5 H31 0.950 . S
C6 N1 1.307 . S
C6 C5 1.370 . S
C6 H24 0.948 . S
Zn7 N1 2.020 . S
Zn7 O16 2.039 1_445 S
Zn7 O22 2.034 1_455 S
Zn7 O26 2.025 . S
Zn7 O28 2.024 1_545 S
C8 O27 1.246 1_554 S
C8 O28 1.249 . S
N9 C10 1.307 1_445 S
N9 C11 1.333 . S
N9 Zn15 2.020 . S
C10 N9 1.307 1_665 S
C10 C14 1.370 . S
C10 H21 0.948 . S
C11 N9 1.333 . S
C11 C12 1.379 . S
C11 H19 0.952 . S
C12 C11 1.379 . S
C12 C13 1.390 . S
C12 H32 0.949 . S
C13 C12 1.390 . S
C13 C14 1.357 1_445 S
C14 C10 1.370 . S
C14 C13 1.357 1_665 S
C14 H33 0.950 . S
Zn15 N9 2.020 . S
Zn15 O18 2.025 1_445 S
Zn15 O23 2.024 1_455 S
Zn15 O25 2.039 . S
Zn15 O27 2.034 1_545 S
O16 C0 1.251 . S
O16 Zn7 2.039 1_665 S
C17 O22 1.246 . S
C17 O23 1.249 1_554 S
O18 C0 1.254 1_556 S
O18 Zn15 2.025 1_665 S
H19 C11 0.952 . S
H20 C2 0.952 . S
H21 C10 0.948 . S
O22 Zn7 2.034 1_655 S
O22 C17 1.246 . S
O23 Zn15 2.024 1_655 S
O23 C17 1.249 1_556 S
H24 C6 0.948 . S
O25 Zn15 2.039 . S
O25 C29 1.251 1_556 S
O26 Zn7 2.025 . S
O26 C29 1.254 . S
O27 C8 1.246 1_556 S
O27 Zn15 2.034 1_565 S
O28 Zn7 2.024 1_565 S
O28 C8 1.249 . S
C29 O25 1.251 1_554 S
C29 O26 1.254 . S
H30 C3 0.949 . S
H31 C5 0.950 . S
H32 C12 0.949 . S
H33 C14 0.950 . S
C34 O50 1.251 . S
C34 O52 1.254 . S
N35 C36 1.333 . S
N35 C40 1.307 . S
N35 Zn41 2.020 . S
C36 N35 1.333 . S
C36 C37 1.379 . S
C36 H54 0.952 . S
C37 C36 1.379 . S
C37 C38 1.390 . S
C37 H64 0.949 . S
C38 C37 1.390 . S
C38 C39 1.357 . S
C39 C38 1.357 . S
C39 C40 1.370 . S
C39 H65 0.950 . S
C40 N35 1.307 . S
C40 C39 1.370 . S
C40 H58 0.948 . S
Zn41 N35 2.020 . S
Zn41 O50 2.039 . S
Zn41 O56 2.034 . S
Zn41 O60 2.025 . S
Zn41 O62 2.024 . S
C42 O61 1.246 . S
C42 O62 1.249 . S
N43 C44 1.307 . S
N43 C45 1.333 . S
N43 Zn49 2.020 . S
C44 N43 1.307 . S
C44 C48 1.370 . S
C44 H55 0.948 . S
C45 N43 1.333 . S
C45 C46 1.379 . S
C45 H53 0.952 . S
C46 C45 1.379 . S
C46 C47 1.390 . S
C46 H66 0.949 . S
C47 C46 1.390 . S
C47 C48 1.357 . S
C48 C44 1.370 . S
C48 C47 1.357 . S
C48 H67 0.950 . S
Zn49 N43 2.020 . S
Zn49 O52 2.025 . S
Zn49 O57 2.024 . S
Zn49 O59 2.039 . S
Zn49 O61 2.034 . S
O50 C34 1.251 . S
O50 Zn41 2.039 . S
C51 O56 1.246 . S
C51 O57 1.249 . S
O52 C34 1.254 . S
O52 Zn49 2.025 . S
H53 C45 0.952 . S
H54 C36 0.952 . S
H55 C44 0.948 . S
O56 Zn41 2.034 . S
O56 C51 1.246 . S
O57 Zn49 2.024 . S
O57 C51 1.249 . S
H58 C40 0.948 . S
O59 Zn49 2.039 . S
O59 C63 1.251 . S
O60 Zn41 2.025 . S
O60 C63 1.254 . S
O61 C42 1.246 . S
O61 Zn49 2.034 . S
O62 Zn41 2.024 . S
O62 C42 1.249 . S
C63 O59 1.251 . S
C63 O60 1.254 . S
H64 C37 0.949 . S
H65 C39 0.950 . S
H66 C46 0.949 . S
H67 C48 0.950 . S
C68 C69 1.384 . S
C68 H81 0.947 . S
C68 C103 1.382 . S
C69 C68 1.384 . S
C69 C70 1.378 . S
C70 C69 1.378 . S
C70 C71 1.378 . S
C70 H82 0.952 . S
C71 C70 1.378 . S
C71 H83 0.950 . S
C71 C102 1.383 . S
H72 C91 0.947 . S
H73 C92 0.946 . S
H74 C94 0.953 . S
H75 C95 0.945 . S
H76 C97 0.952 . S
H77 C98 0.949 . S
H78 C100 0.950 . S
H79 C101 0.948 . S
H80 C103 0.951 . S
H81 C68 0.947 . S
H82 C70 0.952 . S
H83 C71 0.950 . S
N84 C87 1.382 1_545 S
N84 C89 1.363 1_455 S
N85 C87 1.371 . S
N85 C88 1.372 1_565 S
N86 C88 1.361 1_655 S
N86 C89 1.377 . S
C87 N84 1.382 1_565 S
C87 N85 1.371 . S
C87 C90 1.480 . S
C88 N85 1.372 1_545 S
C88 N86 1.361 1_455 S
C88 C96 1.457 . S
C89 N84 1.363 1_655 S
C89 N86 1.377 . S
C89 C102 1.479 . S
C90 C87 1.480 . S
C90 C91 1.383 . S
C90 C95 1.385 . S
C91 H72 0.947 . S
C91 C90 1.383 . S
C91 C92 1.388 . S
C92 H73 0.946 . S
C92 C91 1.388 . S
C92 C93 1.384 . S
C93 C92 1.384 . S
C93 C94 1.377 . S
C94 H74 0.953 . S
C94 C93 1.377 . S
C94 C95 1.369 . S
C95 H75 0.945 . S
C95 C90 1.385 . S
C95 C94 1.369 . S
C96 C88 1.457 . S
C96 C97 1.372 1_545 S
C96 C101 1.364 1_455 S
C97 H76 0.952 . S
C97 C96 1.372 1_565 S
C97 C98 1.389 . S
C98 H77 0.949 . S
C98 C97 1.389 . S
C98 C99 1.387 1_565 S
C99 C98 1.387 1_545 S
C99 C100 1.372 1_455 S
C100 H78 0.950 . S
C100 C99 1.372 1_655 S
C100 C101 1.379 . S
C101 H79 0.948 . S
C101 C96 1.364 1_655 S
C101 C100 1.379 . S
C102 C71 1.383 . S
C102 C89 1.479 . S
C102 C103 1.398 . S
C103 C68 1.382 . S
C103 H80 0.951 . S
C103 C102 1.398 . S
C104 C105 1.384 . S
C104 H117 0.947 . S
C104 C139 1.382 . S
C105 C104 1.384 . S
C105 C106 1.378 . S
C106 C105 1.378 . S
C106 C107 1.378 . S
C106 H118 0.952 . S
C107 C106 1.378 . S
C107 H119 0.950 . S
C107 C138 1.383 . S
H108 C127 0.947 . S
H109 C128 0.946 . S
H110 C130 0.953 . S
H111 C131 0.945 . S
H112 C133 0.952 . S
H113 C134 0.949 . S
H114 C136 0.950 . S
H115 C137 0.948 . S
H116 C139 0.951 . S
H117 C104 0.947 . S
H118 C106 0.952 . S
H119 C107 0.950 . S
N120 C123 1.382 1_565 S
N120 C125 1.363 1_455 S
N121 C123 1.371 . S
N121 C124 1.372 1_545 S
N122 C124 1.361 1_655 S
N122 C125 1.377 . S
C123 N120 1.382 1_545 S
C123 N121 1.371 . S
C123 C126 1.480 . S
C124 N121 1.372 1_565 S
C124 N122 1.361 1_455 S
C124 C132 1.457 . S
C125 N120 1.363 1_655 S
C125 N122 1.377 . S
C125 C138 1.479 . S
C126 C123 1.480 . S
C126 C127 1.383 . S
C126 C131 1.385 . S
C127 H108 0.947 . S
C127 C126 1.383 . S
C127 C128 1.388 . S
C128 H109 0.946 . S
C128 C127 1.388 . S
C128 C129 1.384 . S
C129 C128 1.384 . S
C129 C130 1.377 . S
C130 H110 0.953 . S
C130 C129 1.377 . S
C130 C131 1.369 . S
C131 H111 0.945 . S
C131 C126 1.385 . S
C131 C130 1.369 . S
C132 C124 1.457 . S
C132 C133 1.372 1_565 S
C132 C137 1.364 1_455 S
C133 H112 0.952 . S
C133 C132 1.372 1_545 S
C133 C134 1.389 . S
C134 H113 0.949 . S
C134 C133 1.389 . S
C134 C135 1.387 . S
C135 C134 1.387 . S
C135 C136 1.372 1_445 S
C136 H114 0.950 . S
C136 C135 1.372 1_665 S
C136 C137 1.379 . S
C137 H115 0.948 . S
C137 C132 1.364 1_655 S
C137 C136 1.379 . S
C138 C107 1.383 . S
C138 C125 1.479 . S
C138 C139 1.398 . S
C139 C104 1.382 . S
C139 H116 0.951 . S
C139 C138 1.398 . S
C140 C141 1.384 1_556 S
C140 H153 0.947 . S
C140 C175 1.382 . S
C141 C140 1.384 1_554 S
C141 C142 1.378 . S
C142 C141 1.378 . S
C142 C143 1.378 . S
C142 H154 0.952 . S
C143 C142 1.378 . S
C143 H155 0.950 . S
C143 C174 1.383 1_554 S
H144 C163 0.947 . S
H145 C164 0.946 . S
H146 C166 0.953 . S
H147 C167 0.945 . S
H148 C169 0.952 . S
H149 C170 0.949 . S
H150 C172 0.950 . S
H151 C173 0.948 . S
H152 C175 0.951 . S
H153 C140 0.947 . S
H154 C142 0.952 . S
H155 C143 0.950 . S
N156 C159 1.382 . S
N156 C161 1.363 . S
N157 C159 1.371 . S
N157 C160 1.372 . S
N158 C160 1.361 . S
N158 C161 1.377 . S
C159 N156 1.382 . S
C159 N157 1.371 . S
C159 C162 1.480 . S
C160 N157 1.372 . S
C160 N158 1.361 . S
C160 C168 1.457 . S
C161 N156 1.363 . S
C161 N158 1.377 . S
C161 C174 1.479 . S
C162 C159 1.480 . S
C162 C163 1.383 1_556 S
C162 C167 1.385 . S
C163 H144 0.947 . S
C163 C162 1.383 1_554 S
C163 C164 1.388 . S
C164 H145 0.946 . S
C164 C163 1.388 . S
C164 C165 1.384 . S
C165 C164 1.384 . S
C165 C166 1.377 1_554 S
C166 H146 0.953 . S
C166 C165 1.377 1_556 S
C166 C167 1.369 . S
C167 H147 0.945 . S
C167 C162 1.385 . S
C167 C166 1.369 . S
C168 C160 1.457 . S
C168 C169 1.372 . S
C168 C173 1.364 . S
C169 H148 0.952 . S
C169 C168 1.372 . S
C169 C170 1.389 . S
C170 H149 0.949 . S
C170 C169 1.389 . S
C170 C171 1.387 . S
C171 C170 1.387 . S
C171 C172 1.372 . S
C172 H150 0.950 . S
C172 C171 1.372 . S
C172 C173 1.379 . S
C173 H151 0.948 . S
C173 C168 1.364 . S
C173 C172 1.379 . S
C174 C143 1.383 1_556 S
C174 C161 1.479 . S
C174 C175 1.398 . S
C175 C140 1.382 . S
C175 H152 0.951 . S
C175 C174 1.398 . S
C176 C177 1.384 1_554 S
C176 H189 0.947 . S
C176 C211 1.382 . S
C177 C176 1.384 1_556 S
C177 C178 1.378 . S
C178 C177 1.378 . S
C178 C179 1.378 . S
C178 H190 0.952 . S
C179 C178 1.378 . S
C179 H191 0.950 . S
C179 C210 1.383 1_556 S
H180 C199 0.947 1_556 S
H181 C200 0.946 . S
H182 C202 0.953 . S
H183 C203 0.945 . S
H184 C205 0.952 . S
H185 C206 0.949 . S
H186 C208 0.950 . S
H187 C209 0.948 . S
H188 C211 0.951 . S
H189 C176 0.947 . S
H190 C178 0.952 . S
H191 C179 0.950 . S
N192 C195 1.382 . S
N192 C197 1.363 . S
N193 C195 1.371 . S
N193 C196 1.372 . S
N194 C196 1.361 . S
N194 C197 1.377 . S
C195 N192 1.382 . S
C195 N193 1.371 . S
C195 C198 1.480 . S
C196 N193 1.372 . S
C196 N194 1.361 . S
C196 C204 1.457 . S
C197 N192 1.363 . S
C197 N194 1.377 . S
C197 C210 1.479 . S
C198 C195 1.480 . S
C198 C199 1.383 . S
C198 C203 1.385 . S
C199 H180 0.947 1_554 S
C199 C198 1.383 . S
C199 C200 1.388 1_554 S
C200 H181 0.946 . S
C200 C199 1.388 1_556 S
C200 C201 1.384 1_556 S
C201 C200 1.384 1_554 S
C201 C202 1.377 . S
C202 H182 0.953 . S
C202 C201 1.377 . S
C202 C203 1.369 . S
C203 H183 0.945 . S
C203 C198 1.385 . S
C203 C202 1.369 . S
C204 C196 1.457 . S
C204 C205 1.372 . S
C204 C209 1.364 . S
C205 H184 0.952 . S
C205 C204 1.372 . S
C205 C206 1.389 . S
C206 H185 0.949 . S
C206 C205 1.389 . S
C206 C207 1.387 . S
C207 C206 1.387 . S
C207 C208 1.372 . S
C208 H186 0.950 . S
C208 C207 1.372 . S
C208 C209 1.379 . S
C209 H187 0.948 . S
C209 C204 1.364 . S
C209 C208 1.379 . S
C210 C179 1.383 1_554 S
C210 C197 1.479 . S
C210 C211 1.398 . S
C211 C176 1.382 . S
C211 H188 0.951 . S
C211 C210 1.398 . S
C212 C213 1.369 1_556 S
C212 C214 1.419 . S
C212 H216 0.930 . S
C213 C212 1.369 1_554 S
C213 C222 1.429 . S
C214 C212 1.419 . S
C214 C215 1.363 . S
C214 H217 0.929 . S
C215 C214 1.363 . S
C215 C221 1.428 1_556 S
H216 C212 0.930 . S
H217 C214 0.929 . S
S218 N219 1.613 . S
S218 N220 1.610 . S
N219 S218 1.613 . S
N219 C222 1.350 . S
N220 S218 1.610 . S
N220 C221 1.351 . S
C221 C215 1.428 1_554 S
C221 N220 1.351 . S
C221 C222 1.434 . S
C222 C213 1.429 . S
C222 N219 1.350 . S
C222 C221 1.434 . S
C223 C224 1.369 . S
C223 C225 1.419 . S
C223 H227 0.930 . S
C224 C223 1.369 . S
C224 C233 1.429 1_554 S
C225 C223 1.419 . S
C225 C226 1.363 . S
C225 H228 0.929 . S
C226 C225 1.363 . S
C226 C232 1.428 1_554 S
H227 C223 0.930 . S
H228 C225 0.929 . S
S229 N230 1.613 . S
S229 N231 1.610 . S
N230 S229 1.613 . S
N230 C233 1.350 . S
N231 S229 1.610 . S
N231 C232 1.351 . S
C232 C226 1.428 1_556 S
C232 N231 1.351 . S
C232 C233 1.434 . S
C233 C224 1.429 1_556 S
C233 N230 1.350 . S
C233 C232 1.434 . S
C234 C235 1.369 1_556 S
C234 C236 1.419 . S
C234 H238 0.930 . S
C235 C234 1.369 1_554 S
C235 C244 1.429 . S
C236 C234 1.419 . S
C236 C237 1.363 . S
C236 H239 0.929 . S
C237 C236 1.363 . S
C237 C243 1.428 1_556 S
H238 C234 0.930 . S
H239 C236 0.929 . S
S240 N241 1.613 . S
S240 N242 1.610 . S
N241 S240 1.613 . S
N241 C244 1.350 . S
N242 S240 1.610 . S
N242 C243 1.351 . S
C243 C237 1.428 1_554 S
C243 N242 1.351 . S
C243 C244 1.434 . S
C244 C235 1.429 . S
C244 N241 1.350 . S
C244 C243 1.434 . S
C245 C246 1.369 1_556 S
C245 C247 1.419 . S
C245 H249 0.930 . S
C246 C245 1.369 1_554 S
C246 C255 1.429 . S
C247 C245 1.419 . S
C247 C248 1.363 1_556 S
C247 H250 0.929 . S
C248 C247 1.363 1_554 S
C248 C254 1.428 . S
H249 C245 0.930 . S
H250 C247 0.929 . S
S251 N252 1.613 . S
S251 N253 1.610 . S
N252 S251 1.613 . S
N252 C255 1.350 . S
N253 S251 1.610 . S
N253 C254 1.351 . S
C254 C248 1.428 . S
C254 N253 1.351 . S
C254 C255 1.434 . S
C255 C246 1.429 . S
C255 N252 1.350 . S
C255 C254 1.434 . S
C256 C257 1.369 . S
C256 C258 1.419 . S
C256 H260 0.930 . S
C257 C256 1.369 . S
C257 C266 1.429 . S
C258 C256 1.419 . S
C258 C259 1.363 . S
C258 H261 0.929 . S
C259 C258 1.363 . S
C259 C265 1.428 . S
H260 C256 0.930 . S
H261 C258 0.929 . S
S262 N263 1.613 . S
S262 N264 1.610 . S
N263 S262 1.613 . S
N263 C266 1.350 . S
N264 S262 1.610 . S
N264 C265 1.351 . S
C265 C259 1.428 . S
C265 N264 1.351 . S
C265 C266 1.434 . S
C266 C257 1.429 . S
C266 N263 1.350 . S
C266 C265 1.434 . S
C267 C268 1.369 . S
C267 C269 1.419 . S
C267 H271 0.930 . S
C268 C267 1.369 . S
C268 C277 1.429 . S
C269 C267 1.419 . S
C269 C270 1.363 . S
C269 H272 0.929 . S
C270 C269 1.363 . S
C270 C276 1.428 . S
H271 C267 0.930 . S
H272 C269 0.929 . S
S273 N274 1.613 . S
S273 N275 1.610 . S
N274 S273 1.613 . S
N274 C277 1.350 . S
N275 S273 1.610 . S
N275 C276 1.351 . S
C276 C270 1.428 . S
C276 N275 1.351 . S
C276 C277 1.434 . S
C277 C268 1.429 . S
C277 N274 1.350 . S
C277 C276 1.434 . S
C278 C279 1.369 . S
C278 C280 1.419 . S
C278 H282 0.930 . S
C279 C278 1.369 . S
C279 C288 1.429 . S
C280 C278 1.419 . S
C280 C281 1.363 . S
C280 H283 0.929 . S
C281 C280 1.363 . S
C281 C287 1.428 . S
H282 C278 0.930 . S
H283 C280 0.929 . S
S284 N285 1.613 . S
S284 N286 1.610 . S
N285 S284 1.613 . S
N285 C288 1.350 . S
N286 S284 1.610 . S
N286 C287 1.351 . S
C287 C281 1.428 . S
C287 N286 1.351 . S
C287 C288 1.434 . S
C288 C279 1.429 . S
C288 N285 1.350 . S
C288 C287 1.434 . S
C289 C290 1.369 . S
C289 C291 1.419 . S
C289 H293 0.930 . S
C290 C289 1.369 . S
C290 C299 1.429 . S
C291 C289 1.419 . S
C291 C292 1.363 . S
C291 H294 0.929 . S
C292 C291 1.363 . S
C292 C298 1.428 . S
H293 C289 0.930 . S
H294 C291 0.929 . S
S295 N296 1.613 . S
S295 N297 1.610 . S
N296 S295 1.613 . S
N296 C299 1.350 . S
N297 S295 1.610 . S
N297 C298 1.351 . S
C298 C292 1.428 . S
C298 N297 1.351 . S
C298 C299 1.434 . S
C299 C290 1.429 . S
C299 N296 1.350 . S
C299 C298 1.434 . S
C300 C301 1.369 1_655 S
C300 C302 1.419 . S
C300 H304 0.930 . S
C301 C300 1.369 1_455 S
C301 C310 1.429 1_545 S
C302 C300 1.419 . S
C302 C303 1.362 . S
C302 H305 0.929 . S
C303 C302 1.362 . S
C303 C309 1.429 1_645 S
H304 C300 0.930 . S
H305 C302 0.929 . S
S306 N307 1.613 . S
S306 N308 1.610 . S
N307 S306 1.613 . S
N307 C310 1.350 . S
N308 S306 1.610 . S
N308 C309 1.351 . S
C309 C303 1.429 1_465 S
C309 N308 1.351 . S
C309 C310 1.434 . S
C310 C301 1.429 1_565 S
C310 N307 1.350 . S
C310 C309 1.434 . S
C311 C312 1.369 1_565 S
C311 C313 1.419 . S
C311 H315 0.930 . S
C312 C311 1.369 1_545 S
C312 C321 1.429 . S
C313 C311 1.419 . S
C313 C314 1.363 1_565 S
C313 H316 0.929 . S
C314 C313 1.363 1_545 S
C314 C320 1.428 . S
H315 C311 0.930 . S
H316 C313 0.929 . S
S317 N318 1.613 . S
S317 N319 1.610 . S
N318 S317 1.613 . S
N318 C321 1.350 . S
N319 S317 1.610 . S
N319 C320 1.351 . S
C320 C314 1.428 . S
C320 N319 1.351 . S
C320 C321 1.434 . S
C321 C312 1.429 . S
C321 N318 1.350 . S
C321 C320 1.434 . S
C322 C323 1.369 . S
C322 C324 1.419 . S
C322 H326 0.930 . S
C323 C322 1.369 . S
C323 C332 1.429 . S
C324 C322 1.419 . S
C324 C325 1.363 . S
C324 H327 0.929 . S
C325 C324 1.363 . S
C325 C331 1.428 . S
H326 C322 0.930 . S
H327 C324 0.929 . S
S328 N329 1.613 . S
S328 N330 1.610 . S
N329 S328 1.613 . S
N329 C332 1.350 . S
N330 S328 1.610 . S
N330 C331 1.351 . S
C331 C325 1.428 . S
C331 N330 1.351 . S
C331 C332 1.434 . S
C332 C323 1.429 . S
C332 N329 1.350 . S
C332 C331 1.434 . S
C333 C334 1.369 . S
C333 C335 1.419 . S
C333 H337 0.930 . S
C334 C333 1.369 . S
C334 C343 1.429 . S
C335 C333 1.419 . S
C335 C336 1.363 . S
C335 H338 0.929 . S
C336 C335 1.363 . S
C336 C342 1.428 . S
H337 C333 0.930 . S
H338 C335 0.929 . S
S339 N340 1.613 . S
S339 N341 1.610 . S
N340 S339 1.613 . S
N340 C343 1.350 . S
N341 S339 1.610 . S
N341 C342 1.351 . S
C342 C336 1.428 . S
C342 N341 1.351 . S
C342 C343 1.434 . S
C343 C334 1.429 . S
C343 N340 1.350 . S
C343 C342 1.434 . S
C215 C177 1.545 . S
C213 C29 1.619 . S
C224 C8 1.591 . S
C226 C141 1.524 . S
C235 C0 1.577 . S
C237 C201 1.483 1_556 S
C246 C17 1.604 . S
C248 C165 1.504 . S
C257 C63 1.620 . S
C259 C105 1.545 . S
C268 C42 1.590 . S
C270 C69 1.529 . S
C281 C129 1.482 . S
C279 C34 1.577 . S
C292 C93 1.502 . S
C290 C51 1.606 . S
C301 C4 1.491 . S
C303 C99 1.487 1_655 S
C312 C13 1.490 . S
C314 C135 1.488 . S
C325 C171 1.486 . S
C323 C38 1.490 . S
C334 C47 1.489 . S
C336 C207 1.486 . S
