# Generated by pormake.
# Topology anh, (6,3)-cn, num edge types: 1
# Building blocks:
#     Node 0, Type 0, BuildingBlock: NUHQIS_clean_sbu_0, # of connection points: 6
#     Node 1, Type 0, BuildingBlock: NUHQIS_clean_sbu_0, # of connection points: 6
#     Node 2, Type 0, BuildingBlock: NUHQIS_clean_sbu_0, # of connection points: 6
#     Node 3, Type 1, BuildingBlock: BETDAH_clean_linker_0, # of connection points: 3
#     Node 4, Type 1, BuildingBlock: BETDAH_clean_linker_0, # of connection points: 3
#     Node 5, Type 1, BuildingBlock: BETDAH_clean_linker_0, # of connection points: 3
#     Node 6, Type 1, BuildingBlock: BETDAH_clean_linker_0, # of connection points: 3
#     Node 7, Type 1, BuildingBlock: BETDAH_clean_linker_0, # of connection points: 3
#     Node 8, Type 1, BuildingBlock: BETDAH_clean_linker_0, # of connection points: 3
#     Edge 9, Type (0, 1), BuildingBlock: XUDNAN_clean_linker_2, # of connection points: 2
#     Edge 10, Type (0, 1), BuildingBlock: XUDNAN_clean_linker_2, # of connection points: 2
#     Edge 11, Type (0, 1), BuildingBlock: XUDNAN_clean_linker_2, # of connection points: 2
#     Edge 12, Type (0, 1), BuildingBlock: XUDNAN_clean_linker_2, # of connection points: 2
#     Edge 13, Type (0, 1), BuildingBlock: XUDNAN_clean_linker_2, # of connection points: 2
#     Edge 14, Type (0, 1), BuildingBlock: XUDNAN_clean_linker_2, # of connection points: 2
#     Edge 15, Type (0, 1), BuildingBlock: XUDNAN_clean_linker_2, # of connection points: 2
#     Edge 16, Type (0, 1), BuildingBlock: XUDNAN_clean_linker_2, # of connection points: 2
#     Edge 17, Type (0, 1), BuildingBlock: XUDNAN_clean_linker_2, # of connection points: 2
#     Edge 18, Type (0, 1), BuildingBlock: XUDNAN_clean_linker_2, # of connection points: 2
#     Edge 19, Type (0, 1), BuildingBlock: XUDNAN_clean_linker_2, # of connection points: 2
#     Edge 20, Type (0, 1), BuildingBlock: XUDNAN_clean_linker_2, # of connection points: 2
#     Edge 21, Type (0, 1), BuildingBlock: XUDNAN_clean_linker_2, # of connection points: 2
#     Edge 22, Type (0, 1), BuildingBlock: XUDNAN_clean_linker_2, # of connection points: 2
#     Edge 23, Type (0, 1), BuildingBlock: XUDNAN_clean_linker_2, # of connection points: 2
#     Edge 24, Type (0, 1), BuildingBlock: XUDNAN_clean_linker_2, # of connection points: 2
#     Edge 25, Type (0, 1), BuildingBlock: XUDNAN_clean_linker_2, # of connection points: 2
#     Edge 26, Type (0, 1), BuildingBlock: XUDNAN_clean_linker_2, # of connection points: 2
# Relax obj value: 0.239
# Max RMSD: 0.146
# Mean RMSD: 0.106
data_MOF--net-anh--node1-NUHQIS_clean_sbu_0--node2-BETDAH_clean_linker_0--edge1-XUDNAN_clean_linker_2
_symmetry_space_group_name_H-M    P1
_symmetry_Int_Tables_number       1
_symmetry_cell_setting            triclinic
loop_
_symmetry_equiv_pos_as_xyz
'x, y, z'
_cell_length_a     30.740866
_cell_length_b     31.167691
_cell_length_c     49.682031
_cell_angle_alpha  92.167812
_cell_angle_beta   94.482843
_cell_angle_gamma 119.71118
loop_
_atom_site_label
_atom_site_type_symbol
_atom_site_fract_x
_atom_site_fract_y
_atom_site_fract_z
_atom_type_partial_charge
Tb0 Tb 0.19757 0.62746 0.14744 0.0
Eu1 Eu 0.13586 0.6846 0.15762 0.0
C2 C 0.17242 0.64117 0.20564 0.0
C3 C 1.07584 0.56222 0.15362 0.0
C4 C 0.27843 0.57613 0.12311 0.0
C5 C 0.34249 0.55287 0.12056 0.0
C6 C 0.31782 0.57107 0.13568 0.0
C7 C 0.26717 0.56713 0.09476 0.0
C8 C 0.29158 0.54849 0.07964 0.0
C9 C 0.32765 0.5388 0.09266 0.0
C10 C 0.24379 0.58078 0.14022 0.0
O11 O 0.19077 0.6499 0.1072 0.0
O12 O 0.13123 0.6729 0.1119 0.0
O13 O 0.21433 0.74708 0.15065 0.0
O14 O 0.25889 0.70697 0.15878 0.0
C15 C 0.15905 0.66299 0.09682 0.0
O16 O 1.0804 0.70545 0.14393 0.0
O17 O 0.12224 0.73399 0.1836 0.0
O18 O 0.1688 0.67956 0.19893 0.0
O19 O 0.17494 0.61143 0.18749 0.0
O20 O 0.11731 0.56584 0.1449 0.0
O21 O 1.07528 0.60301 0.16136 0.0
C22 C 0.25807 0.74879 0.15551 0.0
O23 O 0.26129 0.61964 0.15757 0.0
O24 O 0.19916 0.56772 0.12847 0.0
C25 C 1.03608 0.71172 0.17845 0.0
C26 C 0.9354 0.65842 0.19018 0.0
C27 C 0.94908 0.69151 0.16974 0.0
C28 C 0.99896 0.71804 0.16406 0.0
C29 C 1.02366 0.68234 0.20046 0.0
C30 C 0.97381 0.65639 0.20648 0.0
C31 C 1.08421 0.7284 0.1672 0.0
H32 H 0.37117 0.54707 0.13101 0.0
H33 H 0.32719 0.57792 0.15748 0.0
H34 H 0.23707 0.57104 0.0845 0.0
H35 H 0.27945 0.5382 0.05817 0.0
H36 H 0.9209 0.69387 0.15641 0.0
H37 H 1.00779 0.74038 0.14695 0.0
H38 H 1.05171 0.67683 0.2119 0.0
H39 H 0.96491 0.63217 0.22273 0.0
Tb40 Tb 0.69808 0.19573 0.48999 0.0
Eu41 Eu 0.57836 0.1314 0.47625 0.0
C42 C 0.63168 0.15557 0.53794 0.0
C43 C 0.64064 0.07248 0.48652 0.0
C44 C 0.83675 0.27395 0.51814 0.0
C45 C 0.91782 0.29183 0.54021 0.0
C46 C 0.86976 0.25787 0.52789 0.0
C47 C 0.85041 0.32386 0.52356 0.0
C48 C 0.89859 0.35798 0.53616 0.0
C49 C 0.93396 0.34279 0.54301 0.0
C50 C 0.79293 0.23958 0.49893 0.0
O51 O 0.68437 0.19806 0.44626 0.0
O52 O 0.60603 0.13015 0.43574 0.0
O53 O 0.60124 0.2143 0.47396 0.0
O54 O 0.67788 0.25393 0.49934 0.0
C55 C 0.64834 0.165 0.42833 0.0
O56 O 0.50739 0.07712 0.453 0.0
O57 O 0.50765 0.12546 0.48567 0.0
O58 O 0.59222 0.12653 0.52072 0.0
O59 O 0.67405 0.18965 0.53011 0.0
O60 O 0.68133 0.11673 0.48544 0.0
O61 O 0.59572 1.06876 0.48489 0.0
C62 C 0.6385 0.25529 0.48755 0.0
O63 O 0.76304 0.19615 0.50674 0.0
O64 O 0.76847 0.25689 0.48478 0.0
C65 C 0.44041 1.04271 0.47969 0.0
C66 C 0.37536 0.95001 0.49787 0.0
C67 C 0.36928 0.9594 0.4707 0.0
C68 C 0.40142 1.0054 0.46177 0.0
C69 C 0.44426 1.03497 0.50726 0.0
C70 C 0.41166 0.98911 0.51632 0.0
C71 C 0.48028 0.08628 0.46869 0.0
H72 H 0.9437 0.27839 0.54494 0.0
H73 H 0.85993 0.21949 0.52397 0.0
H74 H 0.8253 0.33712 0.51654 0.0
H75 H 0.90941 0.39681 0.53857 0.0
H76 H 0.34243 0.93018 0.45572 0.0
H77 H 0.39796 1.01068 0.44043 0.0
H78 H 0.47411 1.06331 0.52155 0.0
H79 H 0.41688 0.98338 0.53742 0.0
Tb80 Tb 0.69389 0.69147 0.81905 0.0
Eu81 Eu 0.62863 0.5726 0.81257 0.0
C82 C 0.67591 0.62876 0.86836 0.0
C83 C 0.75316 0.62957 0.81445 0.0
C84 C 0.72388 0.81328 0.84583 0.0
C85 C 0.69796 0.87499 0.84515 0.0
C86 C 0.72609 0.85516 0.83525 0.0
C87 C 0.69709 0.7944 0.86826 0.0
C88 C 0.66928 0.81451 0.87837 0.0
C89 C 0.6672 0.85331 0.86596 0.0
C90 C 0.73999 0.7838 0.83008 0.0
O91 O 0.68782 0.67313 0.77506 0.0
O92 O 0.61749 0.59595 0.77173 0.0
O93 O 0.57237 0.59665 0.82492 0.0
O94 O 0.61568 0.67788 0.81574 0.0
C95 C 0.64947 0.63507 0.76042 0.0
O96 O 0.6035 0.49904 0.79304 0.0
O97 O 0.57235 0.50733 0.82949 0.0
O98 O 0.67725 0.59674 0.85159 0.0
O99 O 0.67021 0.66433 0.85861 0.0
O100 O 0.75437 0.67251 0.81774 0.0
O101 O 0.70969 0.58716 0.8109 0.0
C102 C 0.5738 0.63926 0.82186 0.0
O103 O 0.75024 0.75404 0.84342 0.0
O104 O 0.71168 0.76181 0.80732 0.0
C105 C 0.58583 0.44027 0.8249 0.0
C106 C 0.60528 0.36918 0.84723 0.0
C107 C 0.5602 0.35467 0.83044 0.0
C108 C 0.55055 0.38995 0.81948 0.0
C109 C 0.63022 0.45534 0.8422 0.0
C110 C 0.63987 0.41999 0.85337 0.0
C111 C 0.57613 0.4768 0.81241 0.0
H112 H 0.69693 0.90439 0.83472 0.0
H113 H 0.74611 0.86993 0.8178 0.0
H114 H 0.69459 0.76188 0.87678 0.0
H115 H 0.64667 0.79742 0.89463 0.0
H116 H 0.53327 0.31592 0.8246 0.0
H117 H 0.51611 0.37789 0.8062 0.0
H118 H 0.65778 0.49434 0.84661 0.0
H119 H 0.67485 0.43232 0.86617 0.0
H120 H 0.57182 1.06898 0.22918 0.0
H121 H 0.71173 0.20194 0.21925 0.0
H122 H 0.61499 0.1073 0.14943 0.0
C123 C 0.59912 0.09277 0.21627 0.0
C124 C 0.58799 0.07997 0.18802 0.0
C125 C 0.64282 0.13683 0.228 0.0
C126 C 0.67739 0.16904 0.21074 0.0
C127 C 0.66799 0.15984 0.18239 0.0
C128 C 0.62276 0.115 0.17124 0.0
N129 N 0.70187 0.19489 0.16469 0.0
C130 C 0.75002 0.23951 0.17046 0.0
H131 H 0.64432 0.56544 0.56221 0.0
H132 H 0.64133 0.70094 0.55406 0.0
H133 H 0.64005 0.61594 0.48286 0.0
C134 C 0.64528 0.59291 0.54915 0.0
C135 C 0.64419 0.58462 0.52095 0.0
C136 C 0.64413 0.63421 0.56102 0.0
C137 C 0.64325 0.67004 0.54471 0.0
C138 C 0.64195 0.66462 0.51634 0.0
C139 C 0.64184 0.62113 0.50467 0.0
N140 N 0.63843 0.70008 0.49904 0.0
C141 C 0.64134 0.74703 0.50527 0.0
H142 H 1.06379 0.64087 0.89432 0.0
H143 H 0.20445 0.64208 0.892 0.0
H144 H 1.10819 0.6168 0.81787 0.0
C145 C 1.09022 0.63692 0.88271 0.0
C146 C 1.07929 0.62793 0.85443 0.0
C147 C 0.13529 0.64312 0.89644 0.0
C148 C 0.17007 0.63772 0.88152 0.0
C149 C 0.16078 0.62778 0.853 0.0
C150 C 1.11541 0.62366 0.83973 0.0
N151 N 0.19483 0.62108 0.83688 0.0
C152 C 0.24454 0.62935 0.84365 0.0
H153 H 0.24523 0.65421 0.40584 0.0
H154 H 0.23356 0.51245 0.38708 0.0
H155 H 0.27308 0.57778 0.4691 0.0
C156 C 0.248 0.62275 0.41225 0.0
C157 C 0.26145 0.62123 0.43976 0.0
C158 C 0.23741 0.58362 0.393 0.0
C159 C 0.24166 0.5431 0.40151 0.0
C160 C 0.25392 0.5407 0.42893 0.0
C161 C 0.26404 0.57996 0.44786 0.0
N162 N 0.25159 0.49692 0.43773 0.0
C163 C 0.23027 0.47932 0.4614 0.0
H164 H 0.60469 0.13493 0.74315 0.0
H165 H 0.49234 0.98957 0.70718 0.0
H166 H 0.49928 1.02974 0.79171 0.0
C167 C 0.57384 0.09803 0.74512 0.0
C168 C 0.55596 0.08581 0.77043 0.0
C169 C 0.55128 1.06388 0.72208 0.0
C170 C 0.50942 1.01694 0.72451 0.0
C171 C 0.49135 1.00412 0.74974 0.0
C172 C 0.51397 1.03923 0.77237 0.0
N173 N 0.45305 0.95491 0.75273 0.0
C174 C 0.45454 0.93363 0.77662 0.0
H175 H 0.67846 0.52413 0.06756 0.0
H176 H 0.55375 0.41029 0.01471 0.0
H177 H 0.585 0.37988 0.09521 0.0
C178 C 0.64648 0.48678 0.06412 0.0
C179 C 0.63532 0.45413 0.08469 0.0
C180 C 0.61771 0.47112 0.03874 0.0
C181 C 0.57718 0.42243 0.034 0.0
C182 C 0.56546 0.38954 0.05431 0.0
C183 C 0.59507 0.40514 0.07941 0.0
N184 N 0.52025 0.34318 0.05073 0.0
C185 C 0.47577 0.34339 0.04404 0.0
H186 H 0.33767 0.46304 0.11162 0.0
H187 H 0.35551 0.54531 0.04084 0.0
H188 H 0.38247 0.49254 0.01709 0.0
H189 H 0.44631 0.45435 0.10904 0.0
H190 H 0.41892 0.3933 0.12088 0.0
H191 H 0.39609 0.43412 0.13041 0.0
H192 H 0.30557 0.36654 0.11085 0.0
H193 H 0.3285 0.32589 0.10072 0.0
H194 H 0.29375 0.34164 0.07602 0.0
H195 H 0.41581 0.43637 0.00319 0.0
H196 H 0.45804 0.38628 0.00171 0.0
H197 H 0.41735 0.34137 0.08153 0.0
C198 C 0.34741 0.47022 0.09114 0.0
C199 C 0.34492 0.50855 0.07813 0.0
C200 C 0.35701 0.51599 0.05114 0.0
C201 C 0.37212 0.4861 0.03749 0.0
C202 C 0.37429 0.44868 0.05105 0.0
C203 C 0.36239 0.44088 0.07733 0.0
C204 C 0.37144 0.40113 0.08833 0.0
C205 C 0.41052 0.42199 0.11364 0.0
C206 C 0.32185 0.35613 0.09433 0.0
C207 C 0.39196 0.3887 0.06445 0.0
C208 C 0.39255 0.41585 0.04291 0.0
C209 C 0.41439 0.41405 0.01962 0.0
C210 C 0.43788 0.38529 0.01883 0.0
C211 C 0.43912 0.35907 0.04116 0.0
C212 C 0.41479 0.35961 0.06382 0.0
H213 H 0.98309 0.42591 0.51669 0.0
H214 H 1.00955 0.33974 0.5755 0.0
H215 H 1.09847 0.37956 0.56659 0.0
H216 H 1.03955 0.41006 0.46998 0.0
H217 H 1.06865 0.47065 0.45752 0.0
H218 H 1.01338 0.45005 0.47459 0.0
H219 H 1.05945 0.52649 0.50976 0.0
H220 H 1.11495 0.54878 0.49224 0.0
H221 H 0.1189 0.54114 0.52797 0.0
H222 H 0.17427 0.40789 0.54126 0.0
H223 H 0.23366 0.43185 0.50609 0.0
H224 H 0.15824 0.5013 0.46546 0.0
C225 C 1.00808 0.41764 0.52909 0.0
C226 C 0.989 0.37915 0.54651 0.0
C227 C 1.02307 0.36859 0.56169 0.0
C228 C 1.07381 0.39125 0.55686 0.0
C229 C 1.0902 0.42551 0.53746 0.0
C230 C 1.05868 0.44008 0.52454 0.0
C231 C 1.08245 0.47152 0.50168 0.0
C232 C 1.04902 0.44917 0.47437 0.0
C233 C 1.09468 0.52517 0.50832 0.0
C234 C 0.12999 0.46849 0.50212 0.0
C235 C 0.13466 0.44285 0.52325 0.0
C236 C 0.17206 0.42961 0.52529 0.0
C237 C 0.20526 0.44285 0.50521 0.0
C238 C 0.20011 0.4685 0.48354 0.0
C239 C 0.16298 0.48231 0.4823 0.0
H240 H 0.67214 0.9434 0.86622 0.0
H241 H 0.5695 0.78789 0.874 0.0
H242 H 0.49764 0.80078 0.86457 0.0
H243 H 0.58025 0.99225 0.88415 0.0
H244 H 0.60339 1.03479 0.85831 0.0
H245 H 0.64547 1.02036 0.87813 0.0
H246 H 0.66918 0.99472 0.83385 0.0
H247 H 0.6271 1.00828 0.81409 0.0
H248 H 0.62004 0.94733 0.80989 0.0
H249 H 0.43969 0.82083 0.83822 0.0
H250 H 0.40344 0.84782 0.80074 0.0
H251 H 0.54255 0.98837 0.80679 0.0
C252 C 0.6345 0.91264 0.86709 0.0
C253 C 0.62662 0.8647 0.87051 0.0
C254 C 0.5769 0.82525 0.87172 0.0
C255 C 0.53552 0.83218 0.86622 0.0
C256 C 0.54439 0.8787 0.85964 0.0
C257 C 0.59291 0.91879 0.86076 0.0
C258 C 0.59329 0.96158 0.84715 0.0
C259 C 0.60635 1.00479 0.8682 0.0
C260 C 0.62945 0.97885 0.82493 0.0
C261 C 0.53872 0.93713 0.83532 0.0
C262 C 0.51043 0.89023 0.84377 0.0
C263 C 0.461 0.85797 0.83214 0.0
C264 C 0.44069 0.87339 0.81084 0.0
C265 C 0.47008 0.92041 0.80151 0.0
C266 C 0.5188 0.95297 0.81437 0.0
H267 H 0.85143 0.66793 0.17976 0.0
H268 H 0.8974 0.56095 0.19961 0.0
H269 H 0.81161 0.49317 0.18561 0.0
H270 H 0.70882 0.58484 0.18989 0.0
H271 H 0.69185 0.60844 0.16077 0.0
H272 H 0.749 0.64815 0.18276 0.0
H273 H 0.79973 0.66666 0.14132 0.0
H274 H 0.74341 0.62659 0.11938 0.0
H275 H 0.79597 0.61583 0.12066 0.0
H276 H 0.73453 0.43914 0.15539 0.0
H277 H 0.67056 0.40436 0.11558 0.0
H278 H 0.67211 0.54404 0.11337 0.0
C279 C 0.84292 0.63027 0.18212 0.0
C280 C 0.88152 0.62001 0.1906 0.0
C281 C 0.86871 0.57019 0.19359 0.0
C282 C 0.81983 0.53115 0.18546 0.0
C283 C 0.78398 0.54235 0.17444 0.0
C284 C 0.79451 0.59087 0.17337 0.0
C285 C 0.75326 0.59335 0.15595 0.0
C286 C 0.72398 0.60965 0.17339 0.0
C287 C 0.77438 0.62757 0.13298 0.0
C288 C 0.72099 0.53952 0.14507 0.0
C289 C 0.73822 0.51034 0.15672 0.0
C290 C 0.71938 0.46109 0.14687 0.0
C291 C 0.68309 0.44162 0.12417 0.0
C292 C 0.66647 0.47156 0.11137 0.0
C293 C 0.68422 0.52035 0.12275 0.0
H294 H 0.27995 0.87382 0.48033 0.0
H295 H 0.41725 0.90805 0.53033 0.0
H296 H 0.38893 0.8196 0.5301 0.0
H297 H 0.19504 0.74133 0.50378 0.0
H298 H 0.16546 0.71946 0.46949 0.0
H299 H 0.18527 0.78202 0.48246 0.0
H300 H 0.23748 0.81493 0.44199 0.0
H301 H 0.21913 0.75307 0.42926 0.0
H302 H 0.28506 0.79877 0.43639 0.0
H303 H 0.36254 0.73537 0.51262 0.0
H304 H 0.33614 0.66063 0.48229 0.0
H305 H 0.21521 0.67725 0.44245 0.0
C306 C 0.30293 0.86245 0.4922 0.0
C307 C 0.35085 0.89801 0.50523 0.0
C308 C 0.37998 0.8818 0.52055 0.0
C309 C 0.36423 0.83132 0.52046 0.0
C310 C 0.31907 0.79743 0.50519 0.0
C311 C 0.28807 0.81213 0.49181 0.0
C312 C 0.24688 0.77017 0.47263 0.0
C313 C 0.19509 0.75217 0.48271 0.0
C314 C 0.24725 0.78516 0.44336 0.0
C315 C 0.26285 0.73161 0.4752 0.0
C316 C 0.30345 0.74739 0.49477 0.0
C317 C 0.32949 0.7216 0.49803 0.0
C318 C 0.31424 0.67913 0.4806 0.0
C319 C 0.27342 0.66287 0.46002 0.0
C320 C 0.24659 0.68876 0.45795 0.0
H321 H 0.54322 0.27783 0.8632 0.0
H322 H 0.69627 0.37375 0.84573 0.0
H323 H 0.70769 0.3018 0.83948 0.0
H324 H 0.56157 0.16502 0.88578 0.0
H325 H 0.50026 0.12281 0.86814 0.0
H326 H 0.5117 0.17958 0.886 0.0
H327 H 0.48019 0.20258 0.84206 0.0
H328 H 0.46952 0.14697 0.82412 0.0
H329 H 0.51027 0.20607 0.81179 0.0
H330 H 0.69368 0.22427 0.81785 0.0
H331 H 0.65682 0.15145 0.78456 0.0
H332 H 0.50925 0.10449 0.81002 0.0
C333 C 0.57984 0.28356 0.8594 0.0
C334 C 0.61845 0.331 0.85453 0.0
C335 C 0.66613 0.33778 0.84978 0.0
C336 C 0.67292 0.29681 0.84614 0.0
C337 C 0.63179 0.24948 0.84738 0.0
C338 C 0.58622 0.24266 0.85458 0.0
C339 C 0.54435 0.18948 0.84757 0.0
C340 C 0.52856 0.16264 0.87341 0.0
C341 C 0.49853 0.18619 0.83034 0.0
C342 C 0.5716 0.16976 0.83161 0.0
C343 C 0.62264 0.20372 0.83327 0.0
C344 C 0.6541 0.1969 0.81702 0.0
C345 C 0.63264 0.1558 0.7978 0.0
C346 C 0.57996 0.12269 0.79444 0.0
C347 C 0.54971 0.1286 0.81248 0.0
H348 H 0.5687 0.96717 0.48291 0.0
H349 H 0.72898 0.07179 0.4993 0.0
H350 H 0.74467 1.00282 0.50685 0.0
H351 H 0.5632 0.88012 0.53218 0.0
H352 H 0.51907 0.82493 0.51082 0.0
H353 H 0.51903 0.88217 0.5069 0.0
H354 H 0.5307 0.87625 0.45629 0.0
H355 H 0.53057 0.81888 0.46004 0.0
H356 H 0.58272 0.86983 0.44675 0.0
H357 H 0.74472 0.92086 0.51353 0.0
H358 H 0.72895 0.83521 0.51604 0.0
H359 H 0.56948 0.77836 0.49422 0.0
C360 C 0.6072 0.97579 0.48807 0.0
C361 C 0.64752 1.0267 0.49037 0.0
C362 C 0.69696 1.03448 0.49714 0.0
C363 C 0.70643 0.99495 0.50163 0.0
C364 C 0.66641 0.94593 0.49925 0.0
C365 C 0.61761 0.936 0.49239 0.0
C366 C 0.58177 0.87926 0.49056 0.0
C367 C 0.54348 0.86583 0.51135 0.0
C368 C 0.55483 0.85991 0.46169 0.0
C369 C 0.61783 0.8591 0.49757 0.0
C370 C 0.66653 0.89859 0.50264 0.0
C371 C 0.70657 0.89 0.50955 0.0
C372 C 0.6972 0.84068 0.51107 0.0
C373 C 0.64802 0.79879 0.50574 0.0
C374 C 0.60771 0.80883 0.49884 0.0
H375 H 0.79087 0.57908 0.84585 0.0
H376 H 0.83092 0.68359 0.7846 0.0
H377 H 0.91444 0.68955 0.78547 0.0
H378 H 0.91384 0.64311 0.88475 0.0
H379 H 0.91274 0.58756 0.89462 0.0
H380 H 0.85454 0.58787 0.88747 0.0
H381 H 0.82229 0.5129 0.85191 0.0
H382 H 0.8805 0.51246 0.85892 0.0
H383 H 0.85938 0.51674 0.82477 0.0
H384 H 0.99625 0.68386 0.79303 0.0
H385 H 1.06917 0.67513 0.81018 0.0
H386 H 0.98067 0.58003 0.86945 0.0
C387 C 0.81691 0.60259 0.83228 0.0
C388 C 0.80313 0.63009 0.81461 0.0
C389 C 0.8396 0.6616 0.79802 0.0
C390 C 0.88747 0.66519 0.79838 0.0
C391 C 0.89997 0.63791 0.81598 0.0
C392 C 0.86587 0.60771 0.83295 0.0
C393 C 0.89027 0.58533 0.85142 0.0
C394 C 0.893 0.60196 0.88134 0.0
C395 C 0.86138 0.52847 0.84646 0.0
C396 C 0.94312 0.60741 0.84221 0.0
C397 C 0.94766 0.63701 0.8214 0.0
C398 C 0.99276 0.66081 0.8094 0.0
C399 C 1.03424 0.65529 0.81917 0.0
C400 C 1.03174 0.62681 0.84125 0.0
C401 C 0.9847 0.60223 0.85259 0.0
H402 H 0.35227 0.79291 0.18969 0.0
H403 H 0.27556 0.8226 0.12238 0.0
H404 H 0.35015 0.90573 0.12169 0.0
H405 H 0.41139 0.91813 0.22359 0.0
H406 H 0.46925 0.92026 0.23582 0.0
H407 H 0.41133 0.86159 0.23009 0.0
H408 H 0.45258 0.82844 0.19821 0.0
H409 H 0.5106 0.88707 0.20382 0.0
H410 H 0.48087 0.86219 0.16981 0.0
H411 H 0.43672 0.9888 0.12779 0.0
H412 H 0.5197 1.06298 0.14288 0.0
H413 H 0.54092 0.98517 0.20857 0.0
C414 C 0.35129 0.81658 0.17456 0.0
C415 C 0.30691 0.7995 0.1557 0.0
C416 C 0.30811 0.83338 0.13695 0.0
C417 C 0.35086 0.88124 0.13637 0.0
C418 C 0.39351 0.89692 0.1551 0.0
C419 C 0.3938 0.86572 0.17415 0.0
C420 C 0.4436 0.89321 0.19302 0.0
C421 C 0.43327 0.8986 0.22237 0.0
C422 C 0.47369 0.8661 0.1911 0.0
C423 C 0.47118 0.94421 0.1816 0.0
C424 C 0.44179 0.94527 0.15945 0.0
C425 C 0.45958 0.98794 0.14524 0.0
C426 C 0.50752 1.03035 0.15391 0.0
C427 C 0.53844 1.03158 0.17711 0.0
C428 C 0.51914 0.98687 0.19088 0.0
H429 H 0.68941 0.34402 0.52406 0.0
H430 H 0.58077 0.27867 0.45255 0.0
H431 H 0.57356 0.35406 0.45182 0.0
H432 H 0.62642 0.40331 0.55545 0.0
H433 H 0.6839 0.45798 0.56956 0.0
H434 H 0.68267 0.39991 0.56393 0.0
H435 H 0.75655 0.44131 0.53479 0.0
H436 H 0.7579 0.49949 0.54029 0.0
H437 H 0.75098 0.473 0.50626 0.0
H438 H 0.57884 0.44089 0.45838 0.0
H439 H 0.5902 0.5227 0.47386 0.0
H440 H 0.69177 0.53285 0.54264 0.0
C441 C 0.66425 0.34549 0.5081 0.0
C442 C 0.63593 0.3039 0.48814 0.0
C443 C 0.60317 0.30871 0.46812 0.0
C444 C 0.59884 0.35206 0.46749 0.0
C445 C 0.62692 0.39191 0.48728 0.0
C446 C 0.65867 0.38875 0.50746 0.0
C447 C 0.68295 0.43624 0.527 0.0
C448 C 0.66811 0.4236 0.55569 0.0
C449 C 0.74052 0.46416 0.52709 0.0
C450 C 0.66016 0.46645 0.51475 0.0
C451 C 0.62834 0.44039 0.4916 0.0
C452 C 0.60366 0.46109 0.4766 0.0
C453 C 0.61071 0.50842 0.48552 0.0
C454 C 0.64186 0.53599 0.5097 0.0
C455 C 0.66713 0.5138 0.52419 0.0
H456 H 0.47238 0.5676 0.82903 0.0
H457 H 0.56961 0.72538 0.82369 0.0
H458 H 0.49841 0.73877 0.82967 0.0
H459 H 0.36006 0.55973 0.79254 0.0
H460 H 0.31642 0.51515 0.81312 0.0
H461 H 0.37498 0.51706 0.80869 0.0
H462 H 0.39718 0.52796 0.86065 0.0
H463 H 0.33877 0.52628 0.86523 0.0
H464 H 0.39777 0.57825 0.88015 0.0
H465 H 0.41605 0.73668 0.83725 0.0
H466 H 0.32926 0.71851 0.84263 0.0
H467 H 0.2807 0.56212 0.8424 0.0
C468 C 0.4789 0.60508 0.82926 0.0
C469 C 0.52795 0.64538 0.82581 0.0
C470 C 0.53346 0.69351 0.82615 0.0
C471 C 0.49285 0.7017 0.82975 0.0
C472 C 0.44559 0.66165 0.83322 0.0
C473 C 0.43816 0.61409 0.83281 0.0
C474 C 0.38271 0.57757 0.83626 0.0
C475 C 0.35702 0.54015 0.81116 0.0
C476 C 0.37889 0.55093 0.86211 0.0
C477 C 0.36039 0.61195 0.83881 0.0
C478 C 0.39769 0.66038 0.83711 0.0
C479 C 0.3868 0.69896 0.83875 0.0
C480 C 0.33708 0.68823 0.84194 0.0
C481 C 0.29749 0.63906 0.84345 0.0
C482 C 0.30981 0.60036 0.84183 0.0
H483 H 0.97538 0.53116 0.16724 0.0
H484 H 1.06966 0.47167 0.14423 0.0
H485 H 0.99987 0.38707 0.14729 0.0
H486 H 0.90701 0.43719 0.21508 0.0
H487 H 0.84815 0.43513 0.20559 0.0
H488 H 0.90712 0.49069 0.2027 0.0
H489 H 0.8753 0.48701 0.15206 0.0
H490 H 0.81799 0.42971 0.15495 0.0
H491 H 0.85833 0.43272 0.12981 0.0
H492 H 0.91866 0.30567 0.15337 0.0
H493 H 0.83379 0.23702 0.15952 0.0
H494 H 0.78614 0.34355 0.17746 0.0
C495 C 0.98153 0.50044 0.16278 0.0
C496 C 1.0297 0.50985 0.15535 0.0
C497 C 1.03442 0.46725 0.14984 0.0
C498 C 0.99445 0.41828 0.15161 0.0
C499 C 0.94812 0.41044 0.1589 0.0
C500 C 0.9412 0.45037 0.16428 0.0
C501 C 0.88679 0.43076 0.17128 0.0
C502 C 0.88724 0.44957 0.20038 0.0
C503 C 0.85789 0.44599 0.15082 0.0
C504 C 0.86433 0.37396 0.16885 0.0
C505 C 0.90091 0.36337 0.16191 0.0
C506 C 0.89006 0.31401 0.15878 0.0
C507 C 0.8413 0.27479 0.16248 0.0
C508 C 0.80225 0.28358 0.16932 0.0
C509 C 0.81457 0.3346 0.17253 0.0
H510 H 0.17845 0.61451 0.05566 0.0
H511 H 0.13183 0.72305 0.07064 0.0
H512 H 0.12793 0.73389 0.0217 0.0
H513 H 0.2541 0.67139 0.00075 0.0
H514 H 0.2335 0.61332 0.98127 0.0
H515 H 0.23568 0.61572 0.01769 0.0
H516 H 0.14158 0.54788 0.01372 0.0
H517 H 0.13919 0.54495 0.97733 0.0
H518 H 1.09556 0.55684 -0.00618 0.0
H519 H 0.12957 0.73388 0.97158 0.0
H520 H 0.12633 0.7161 0.92257 0.0
H521 H 0.16646 0.60333 0.93819 0.0
C522 C 0.16773 0.64079 0.04863 0.0
C523 C 0.15575 0.66825 0.06712 0.0
C524 C 0.14108 0.70158 0.05699 0.0
C525 C 0.13908 0.70821 0.0292 0.0
C526 C 0.15122 0.68079 0.01157 0.0
C527 C 0.16456 0.64718 0.02075 0.0
C528 C 0.17255 0.62017 -0.00289 0.0
C529 C 0.22722 0.63079 -0.00066 0.0
C530 C 0.13497 0.56414 -0.0046 0.0
C531 C 0.1615 0.64381 0.97321 0.0
C532 C 0.15003 0.67919 0.98223 0.0
C533 C 0.13812 0.70603 0.9643 0.0
C534 C 0.1363 0.69553 0.93643 0.0
C535 C 0.14552 0.65789 0.92635 0.0
C536 C 0.1595 0.63249 0.94516 0.0
H537 H 0.60791 0.09096 0.38597 0.0
H538 H 0.70304 0.25 0.40416 0.0
H539 H 0.7122 0.25989 0.35549 0.0
H540 H 0.68022 0.08134 0.33345 0.0
H541 H 0.62548 1.03348 0.31264 0.0
H542 H 0.62537 1.03879 0.34887 0.0
H543 H 0.54448 1.04527 0.34234 0.0
H544 H 0.54451 1.04021 0.3061 0.0
H545 H 0.54411 0.09249 0.32261 0.0
H546 H 0.70613 0.25324 0.3045 0.0
H547 H 0.69257 0.23058 0.25559 0.0
H548 H 0.61053 0.07446 0.27023 0.0
C549 C 0.63063 0.12783 0.37966 0.0
C550 C 0.65452 0.1698 0.39894 0.0
C551 C 0.68447 0.21732 0.38987 0.0
C552 C 0.68976 0.22333 0.36221 0.0
C553 C 0.6657 0.18136 0.34374 0.0
C554 C 0.63739 0.13441 0.35208 0.0
C555 C 0.61706 0.09544 0.32803 0.0
C556 C 0.63831 1.06018 0.33092 0.0
C557 C 0.5591 1.06666 0.32457 0.0
C558 C 0.63767 0.12792 0.30488 0.0
C559 C 0.66514 0.17734 0.31442 0.0
C560 C 0.68564 0.21452 0.29686 0.0
C561 C 0.67812 0.20099 0.26887 0.0
C562 C 0.65117 0.15039 0.25828 0.0
C563 C 0.63099 0.11355 0.27697 0.0
H564 H 0.71694 0.68902 0.72343 0.0
H565 H 0.56048 0.57956 0.72905 0.0
H566 H 0.54256 0.5724 0.67961 0.0
H567 H 0.69191 0.74828 0.66554 0.0
H568 H 0.74621 0.75706 0.64972 0.0
H569 H 0.74719 0.75699 0.68605 0.0
H570 H 0.76947 0.68706 0.68491 0.0
H571 H 0.76856 0.68693 0.64861 0.0
H572 H 0.72934 0.63041 0.66365 0.0
H573 H 0.54085 0.57244 0.62984 0.0
H574 H 0.55649 0.57961 0.58175 0.0
H575 H 0.71344 0.68831 0.60586 0.0
C576 C 0.67882 0.66417 0.71423 0.0
C577 C 0.64015 0.6349 0.73039 0.0
C578 C 0.59093 0.60227 0.71738 0.0
C579 C 0.58019 0.598 0.68917 0.0
C580 C 0.61895 0.62654 0.67384 0.0
C581 C 0.66732 0.65907 0.68574 0.0
C582 C 0.70214 0.68349 0.66399 0.0
C583 C 0.72311 0.73981 0.66648 0.0
C584 C 0.74491 0.67123 0.66538 0.0
C585 C 0.66586 0.65889 0.63821 0.0
C586 C 0.61797 0.6265 0.64457 0.0
C587 C 0.57805 0.59806 0.62458 0.0
C588 C 0.5872 0.60239 0.59733 0.0
C589 C 0.63581 0.63489 0.59013 0.0
C590 C 0.67569 0.66381 0.61085 0.0
H591 H 0.54745 0.10025 0.56358 0.0
H592 H 0.71041 0.19251 0.57807 0.0
H593 H 0.70723 0.17524 0.62609 0.0
H594 H 0.52172 0.1382 0.62688 0.0
H595 H 0.46962 0.07764 0.6309 0.0
H596 H 0.48478 0.09641 0.59747 0.0
H597 H 0.49222 1.01859 0.58647 0.0
H598 H 0.47761 0.99974 0.61997 0.0
H599 H 0.53479 1.00743 0.60812 0.0
H600 H 0.68718 0.14645 0.67183 0.0
H601 H 0.65087 0.11489 0.71407 0.0
H602 H 0.50032 1.04453 0.67083 0.0
C603 C 0.58248 0.11693 0.57685 0.0
C604 C 0.62921 0.1477 0.56704 0.0
C605 C 0.67414 0.16902 0.58512 0.0
C606 C 0.67278 0.15917 0.6124 0.0
C607 C 0.62621 0.12823 0.62131 0.0
C608 C 0.58179 0.10788 0.60422 0.0
C609 C 0.53666 0.07716 0.61924 0.0
C610 C 0.50111 0.09866 0.61858 0.0
C611 C 0.50869 1.02249 0.60776 0.0
C612 C 0.56273 0.08369 0.64751 0.0
C613 C 0.61441 0.11278 0.64808 0.0
C614 C 0.64675 0.12405 0.67173 0.0
C615 C 0.62567 0.10614 0.69565 0.0
C616 C 0.57267 0.07789 0.69589 0.0
C617 C 0.54092 1.0658 0.67131 0.0
H618 H 0.66339 0.54472 0.88886 0.0
H619 H 0.67818 0.68721 0.91265 0.0
H620 H 0.66766 0.66403 0.9601 0.0
H621 H 0.56645 0.47459 0.92873 0.0
H622 H 0.5889 0.43224 0.93598 0.0
H623 H 0.60098 0.46205 0.90493 0.0
H624 H 0.69669 0.49666 0.91663 0.0
H625 H 0.68517 0.46693 0.94773 0.0
H626 H 0.72787 0.53275 0.94851 0.0
H627 H 0.65453 0.62272 0.00518 0.0
H628 H 0.63621 0.56706 0.04229 0.0
H629 H 0.62699 0.45203 0.9863 0.0
C630 C 0.66508 0.57165 0.90393 0.0
C631 C 0.67212 0.61809 0.89709 0.0
C632 C 0.67313 0.65156 0.91753 0.0
C633 C 0.6672 0.63866 0.94445 0.0
C634 C 0.6599 0.59213 0.9503 0.0
C635 C 0.65858 0.55921 0.93043 0.0
C636 C 0.64785 0.51059 0.94106 0.0
C637 C 0.59809 0.46734 0.92683 0.0
C638 C 0.69205 0.50122 0.93833 0.0
C639 C 0.64342 0.52096 0.97028 0.0
C640 C 0.65081 0.5682 0.97544 0.0
C641 C 0.64866 0.58573 0.00128 0.0
C642 C 0.63844 0.55401 0.02221 0.0
C643 C 0.62998 0.50528 0.01702 0.0
C644 C 0.63274 0.4889 0.99074 0.0
H645 H 0.22759 0.69884 0.25252 0.0
H646 H 1.1107 0.55076 0.22107 0.0
H647 H 1.11123 0.52117 0.26638 0.0
H648 H 0.29803 0.66099 0.29315 0.0
H649 H 0.317 0.70778 0.32092 0.0
H650 H 0.30275 0.71978 0.28717 0.0
H651 H 0.23637 0.73962 0.30387 0.0
H652 H 0.25082 0.72822 0.3378 0.0
H653 H 0.18686 0.69488 0.32174 0.0
H654 H 0.12897 0.50569 0.3134 0.0
H655 H 0.16155 0.50552 0.36028 0.0
H656 H 0.27061 0.66248 0.36127 0.0
C657 C 0.20116 0.66066 0.25553 0.0
C658 C 0.16863 0.62706 0.2336 0.0
C659 C 0.13561 0.57694 0.23783 0.0
C660 C 0.13561 0.55984 0.26344 0.0
C661 C 0.16918 0.59331 0.28456 0.0
C662 C 0.20124 0.64271 0.28102 0.0
C663 C 0.23635 0.66966 0.30668 0.0
C664 C 0.29181 0.69078 0.30167 0.0
C665 C 0.22702 0.71051 0.3182 0.0
C666 C 0.21967 0.62745 0.32484 0.0
C667 C 0.18053 0.58393 0.31172 0.0
C668 C 0.1595 0.53958 0.32398 0.0
C669 C 0.1787 0.53973 0.35051 0.0
C670 C 0.21889 0.58385 0.36447 0.0
C671 C 0.23953 0.62823 0.35131 0.0
loop_
_geom_bond_atom_site_label_1
_geom_bond_atom_site_label_2
_geom_bond_distance
_geom_bond_site_symmetry_2
_ccdc_geom_bond_type
Tb0 C10 2.825 . S
Tb0 O11 2.347 . S
Tb0 O14 2.366 . S
Tb0 O19 2.418 . S
Tb0 O20 2.384 1_455 S
Tb0 O23 2.479 . S
Tb0 O24 2.471 . S
Eu1 O12 2.418 . S
Eu1 O13 2.384 . S
Eu1 O16 2.479 1_455 S
Eu1 O17 2.471 1_455 S
Eu1 O18 2.347 . S
Eu1 O21 2.366 1_455 S
Eu1 C31 2.825 1_455 S
C2 O18 1.259 . S
C2 O19 1.265 . S
C3 O20 1.255 . S
C3 O21 1.265 . S
C4 C6 1.380 . S
C4 C7 1.374 . S
C4 C10 1.507 . S
C5 C6 1.384 . S
C5 C9 1.387 . S
C5 H32 0.930 . S
C6 C4 1.380 . S
C6 C5 1.384 . S
C6 H33 0.931 . S
C7 C4 1.374 . S
C7 C8 1.390 . S
C7 H34 0.930 . S
C8 C7 1.390 . S
C8 C9 1.391 . S
C8 H35 0.930 . S
C9 C5 1.387 . S
C9 C8 1.391 . S
C10 Tb0 2.825 . S
C10 C4 1.507 . S
C10 O23 1.238 . S
C10 O24 1.247 . S
O11 Tb0 2.347 . S
O11 C15 1.259 . S
O12 Eu1 2.418 . S
O12 C15 1.265 . S
O13 Eu1 2.384 . S
O13 C22 1.255 . S
O14 Tb0 2.366 . S
O14 C22 1.265 . S
C15 O11 1.259 . S
C15 O12 1.265 . S
O16 Eu1 2.479 1_655 S
O16 C31 1.238 . S
O17 Eu1 2.471 1_655 S
O17 C31 1.247 . S
O18 Eu1 2.347 . S
O18 C2 1.259 . S
O19 Tb0 2.418 . S
O19 C2 1.265 . S
O20 Tb0 2.384 1_655 S
O20 C3 1.255 . S
O21 Eu1 2.366 1_655 S
O21 C3 1.265 . S
C22 O13 1.255 . S
C22 O14 1.265 . S
O23 Tb0 2.479 . S
O23 C10 1.238 . S
O24 Tb0 2.471 . S
O24 C10 1.247 . S
C25 C28 1.380 . S
C25 C29 1.374 . S
C25 C31 1.507 . S
C26 C27 1.387 . S
C26 C30 1.391 . S
C27 C26 1.387 . S
C27 C28 1.384 . S
C27 H36 0.930 . S
C28 C25 1.380 . S
C28 C27 1.384 . S
C28 H37 0.931 . S
C29 C25 1.374 . S
C29 C30 1.390 . S
C29 H38 0.930 . S
C30 C26 1.391 . S
C30 C29 1.390 . S
C30 H39 0.930 . S
C31 Eu1 2.825 1_655 S
C31 O16 1.238 . S
C31 O17 1.247 . S
C31 C25 1.507 . S
H32 C5 0.930 . S
H33 C6 0.931 . S
H34 C7 0.930 . S
H35 C8 0.930 . S
H36 C27 0.930 . S
H37 C28 0.931 . S
H38 C29 0.930 . S
H39 C30 0.930 . S
Tb40 C50 2.825 . S
Tb40 O51 2.347 . S
Tb40 O54 2.366 . S
Tb40 O59 2.418 . S
Tb40 O60 2.384 . S
Tb40 O63 2.479 . S
Tb40 O64 2.471 . S
Eu41 O52 2.418 . S
Eu41 O53 2.384 . S
Eu41 O56 2.479 1_545 S
Eu41 O57 2.471 1_545 S
Eu41 O58 2.347 . S
Eu41 O61 2.366 1_545 S
Eu41 C71 2.825 1_545 S
C42 O58 1.259 . S
C42 O59 1.265 . S
C43 O60 1.255 1_565 S
C43 O61 1.265 . S
C44 C46 1.380 . S
C44 C47 1.374 . S
C44 C50 1.507 . S
C45 C46 1.384 . S
C45 C49 1.387 . S
C45 H72 0.930 . S
C46 C44 1.380 . S
C46 C45 1.384 . S
C46 H73 0.931 . S
C47 C44 1.374 . S
C47 C48 1.390 . S
C47 H74 0.930 . S
C48 C47 1.390 . S
C48 C49 1.391 . S
C48 H75 0.930 . S
C49 C45 1.387 . S
C49 C48 1.391 . S
C50 Tb40 2.825 . S
C50 C44 1.507 . S
C50 O63 1.238 . S
C50 O64 1.247 . S
O51 Tb40 2.347 . S
O51 C55 1.259 . S
O52 Eu41 2.418 . S
O52 C55 1.265 . S
O53 Eu41 2.384 . S
O53 C62 1.255 . S
O54 Tb40 2.366 . S
O54 C62 1.265 . S
C55 O51 1.259 . S
C55 O52 1.265 . S
O56 Eu41 2.479 1_565 S
O56 C71 1.238 . S
O57 Eu41 2.471 1_565 S
O57 C71 1.247 . S
O58 Eu41 2.347 . S
O58 C42 1.259 . S
O59 Tb40 2.418 . S
O59 C42 1.265 . S
O60 Tb40 2.384 . S
O60 C43 1.255 1_545 S
O61 Eu41 2.366 1_565 S
O61 C43 1.265 . S
C62 O53 1.255 . S
C62 O54 1.265 . S
O63 Tb40 2.479 . S
O63 C50 1.238 . S
O64 Tb40 2.471 . S
O64 C50 1.247 . S
C65 C68 1.380 . S
C65 C69 1.374 . S
C65 C71 1.507 . S
C66 C67 1.387 . S
C66 C70 1.391 . S
C67 C66 1.387 . S
C67 C68 1.384 . S
C67 H76 0.930 . S
C68 C65 1.380 . S
C68 C67 1.384 . S
C68 H77 0.931 . S
C69 C65 1.374 . S
C69 C70 1.390 . S
C69 H78 0.930 . S
C70 C66 1.391 . S
C70 C69 1.390 . S
C70 H79 0.930 . S
C71 Eu41 2.825 1_565 S
C71 O56 1.238 . S
C71 O57 1.247 . S
C71 C65 1.507 . S
H72 C45 0.930 . S
H73 C46 0.931 . S
H74 C47 0.930 . S
H75 C48 0.930 . S
H76 C67 0.930 . S
H77 C68 0.931 . S
H78 C69 0.930 . S
H79 C70 0.930 . S
Tb80 C90 2.825 . S
Tb80 O91 2.347 . S
Tb80 O94 2.366 . S
Tb80 O99 2.418 . S
Tb80 O100 2.384 . S
Tb80 O103 2.479 . S
Tb80 O104 2.471 . S
Eu81 O92 2.418 . S
Eu81 O93 2.384 . S
Eu81 O96 2.479 . S
Eu81 O97 2.471 . S
Eu81 O98 2.347 . S
Eu81 O101 2.366 . S
Eu81 C111 2.825 . S
C82 O98 1.259 . S
C82 O99 1.265 . S
C83 O100 1.255 . S
C83 O101 1.265 . S
C84 C86 1.380 . S
C84 C87 1.374 . S
C84 C90 1.507 . S
C85 C86 1.384 . S
C85 C89 1.387 . S
C85 H112 0.930 . S
C86 C84 1.380 . S
C86 C85 1.384 . S
C86 H113 0.931 . S
C87 C84 1.374 . S
C87 C88 1.390 . S
C87 H114 0.930 . S
C88 C87 1.390 . S
C88 C89 1.391 . S
C88 H115 0.930 . S
C89 C85 1.387 . S
C89 C88 1.391 . S
C90 Tb80 2.825 . S
C90 C84 1.507 . S
C90 O103 1.238 . S
C90 O104 1.247 . S
O91 Tb80 2.347 . S
O91 C95 1.259 . S
O92 Eu81 2.418 . S
O92 C95 1.265 . S
O93 Eu81 2.384 . S
O93 C102 1.255 . S
O94 Tb80 2.366 . S
O94 C102 1.265 . S
C95 O91 1.259 . S
C95 O92 1.265 . S
O96 Eu81 2.479 . S
O96 C111 1.238 . S
O97 Eu81 2.471 . S
O97 C111 1.247 . S
O98 Eu81 2.347 . S
O98 C82 1.259 . S
O99 Tb80 2.418 . S
O99 C82 1.265 . S
O100 Tb80 2.384 . S
O100 C83 1.255 . S
O101 Eu81 2.366 . S
O101 C83 1.265 . S
C102 O93 1.255 . S
C102 O94 1.265 . S
O103 Tb80 2.479 . S
O103 C90 1.238 . S
O104 Tb80 2.471 . S
O104 C90 1.247 . S
C105 C108 1.380 . S
C105 C109 1.374 . S
C105 C111 1.507 . S
C106 C107 1.387 . S
C106 C110 1.391 . S
C107 C106 1.387 . S
C107 C108 1.384 . S
C107 H116 0.930 . S
C108 C105 1.380 . S
C108 C107 1.384 . S
C108 H117 0.931 . S
C109 C105 1.374 . S
C109 C110 1.390 . S
C109 H118 0.930 . S
C110 C106 1.391 . S
C110 C109 1.390 . S
C110 H119 0.930 . S
C111 Eu81 2.825 . S
C111 O96 1.238 . S
C111 O97 1.247 . S
C111 C105 1.507 . S
H112 C85 0.930 . S
H113 C86 0.931 . S
H114 C87 0.930 . S
H115 C88 0.930 . S
H116 C107 0.930 . S
H117 C108 0.931 . S
H118 C109 0.930 . S
H119 C110 0.930 . S
H120 C123 0.929 1_565 S
H121 C126 0.929 . S
H122 C128 0.930 . S
C123 H120 0.929 1_545 S
C123 C124 1.398 . S
C123 C125 1.396 . S
C124 C123 1.398 . S
C124 C128 1.407 . S
C125 C123 1.396 . S
C125 C126 1.394 . S
C126 H121 0.929 . S
C126 C125 1.394 . S
C126 C127 1.382 . S
C127 C126 1.382 . S
C127 C128 1.392 . S
C127 N129 1.420 . S
C128 H122 0.930 . S
C128 C124 1.407 . S
C128 C127 1.392 . S
N129 C127 1.420 . S
N129 C130 1.244 . S
C130 N129 1.244 . S
H131 C134 0.929 . S
H132 C137 0.929 . S
H133 C139 0.930 . S
C134 H131 0.929 . S
C134 C135 1.398 . S
C134 C136 1.396 . S
C135 C134 1.398 . S
C135 C139 1.407 . S
C136 C134 1.396 . S
C136 C137 1.394 . S
C137 H132 0.929 . S
C137 C136 1.394 . S
C137 C138 1.382 . S
C138 C137 1.382 . S
C138 C139 1.392 . S
C138 N140 1.420 . S
C139 H133 0.930 . S
C139 C135 1.407 . S
C139 C138 1.392 . S
N140 C138 1.420 . S
N140 C141 1.244 . S
C141 N140 1.244 . S
H142 C145 0.929 . S
H143 C148 0.929 . S
H144 C150 0.930 1_655 S
C145 H142 0.929 . S
C145 C146 1.398 . S
C145 C147 1.396 1_655 S
C146 C145 1.398 . S
C146 C150 1.407 1_655 S
C147 C145 1.396 1_455 S
C147 C148 1.394 . S
C148 H143 0.929 . S
C148 C147 1.394 . S
C148 C149 1.382 . S
C149 C148 1.382 . S
C149 C150 1.392 . S
C149 N151 1.420 . S
C150 H144 0.930 1_455 S
C150 C146 1.407 1_455 S
C150 C149 1.392 . S
N151 C149 1.420 . S
N151 C152 1.244 . S
C152 N151 1.244 . S
H153 C156 0.929 . S
H154 C159 0.927 1_655 S
H155 C161 0.930 . S
C156 H153 0.929 . S
C156 C157 1.398 . S
C156 C158 1.396 . S
C157 C156 1.398 . S
C157 C161 1.407 . S
C158 C156 1.396 . S
C158 C159 1.396 . S
C159 H154 0.927 1_455 S
C159 C158 1.396 . S
C159 C160 1.382 . S
C160 C159 1.382 . S
C160 C161 1.392 . S
C160 N162 1.420 1_455 S
C161 H155 0.930 . S
C161 C157 1.407 . S
C161 C160 1.392 . S
N162 C160 1.420 1_655 S
N162 C163 1.244 . S
C163 N162 1.244 . S
H164 C167 0.929 . S
H165 C170 0.929 1_565 S
H166 C172 0.930 . S
C167 H164 0.929 . S
C167 C168 1.398 . S
C167 C169 1.396 . S
C168 C167 1.398 . S
C168 C172 1.407 . S
C169 C167 1.396 . S
C169 C170 1.394 . S
C170 H165 0.929 1_545 S
C170 C169 1.394 . S
C170 C171 1.382 . S
C171 C170 1.382 . S
C171 C172 1.392 . S
C171 N173 1.420 1_545 S
C172 H166 0.930 . S
C172 C168 1.407 . S
C172 C171 1.392 . S
N173 C171 1.420 1_565 S
N173 C174 1.244 . S
C174 N173 1.244 . S
H175 C178 0.929 . S
H176 C181 0.929 . S
H177 C183 0.930 . S
C178 H175 0.929 . S
C178 C179 1.398 . S
C178 C180 1.396 . S
C179 C178 1.398 . S
C179 C183 1.407 . S
C180 C178 1.396 . S
C180 C181 1.394 . S
C181 H176 0.929 . S
C181 C180 1.394 . S
C181 C182 1.382 . S
C182 C181 1.382 . S
C182 C183 1.392 . S
C182 N184 1.420 . S
C183 H177 0.930 . S
C183 C179 1.407 . S
C183 C182 1.392 . S
N184 C182 1.420 . S
N184 C185 1.244 . S
C185 N184 1.244 . S
H186 C198 0.930 . S
H187 C200 0.930 . S
H188 C201 0.930 . S
H189 C205 0.959 . S
H190 C205 0.959 . S
H191 C205 0.961 . S
H192 C206 0.960 . S
H193 C206 0.961 . S
H194 C206 0.959 . S
H195 C209 0.929 . S
H196 C210 0.931 . S
H197 C212 0.930 . S
C198 H186 0.930 . S
C198 C199 1.399 . S
C198 C203 1.399 . S
C199 C198 1.399 . S
C199 C200 1.376 . S
C200 H187 0.930 . S
C200 C199 1.376 . S
C200 C201 1.388 . S
C201 H188 0.930 . S
C201 C200 1.388 . S
C201 C202 1.390 . S
C202 C201 1.390 . S
C202 C203 1.394 . S
C202 C208 1.465 . S
C203 C198 1.399 . S
C203 C202 1.394 . S
C203 C204 1.516 . S
C204 C203 1.516 . S
C204 C205 1.502 . S
C204 C206 1.561 . S
C204 C207 1.526 . S
C205 H189 0.959 . S
C205 H190 0.959 . S
C205 H191 0.961 . S
C205 C204 1.502 . S
C206 H192 0.960 . S
C206 H193 0.961 . S
C206 H194 0.959 . S
C206 C204 1.561 . S
C207 C204 1.526 . S
C207 C208 1.396 . S
C207 C212 1.390 . S
C208 C202 1.465 . S
C208 C207 1.396 . S
C208 C209 1.399 . S
C209 H195 0.929 . S
C209 C208 1.399 . S
C209 C210 1.385 . S
C210 H196 0.931 . S
C210 C209 1.385 . S
C210 C211 1.389 . S
C211 C210 1.389 . S
C211 C212 1.387 . S
C212 H197 0.930 . S
C212 C207 1.390 . S
C212 C211 1.387 . S
H213 C225 0.930 . S
H214 C227 0.930 . S
H215 C228 0.930 . S
H216 C232 0.959 . S
H217 C232 0.959 . S
H218 C232 0.961 . S
H219 C233 0.960 . S
H220 C233 0.961 . S
H221 C233 0.959 . S
H222 C236 0.929 . S
H223 C237 0.931 . S
H224 C239 0.930 . S
C225 H213 0.930 . S
C225 C226 1.399 . S
C225 C230 1.399 . S
C226 C225 1.399 . S
C226 C227 1.376 . S
C227 H214 0.930 . S
C227 C226 1.376 . S
C227 C228 1.388 . S
C228 H215 0.930 . S
C228 C227 1.388 . S
C228 C229 1.390 . S
C229 C228 1.390 . S
C229 C230 1.394 . S
C229 C235 1.465 . S
C230 C225 1.399 . S
C230 C229 1.394 . S
C230 C231 1.516 . S
C231 C230 1.516 . S
C231 C232 1.502 . S
C231 C233 1.561 . S
C231 C234 1.526 . S
C232 H216 0.959 . S
C232 H217 0.959 . S
C232 H218 0.961 . S
C232 C231 1.502 . S
C233 H219 0.960 . S
C233 H220 0.961 . S
C233 H221 0.959 . S
C233 C231 1.561 . S
C234 C231 1.526 . S
C234 C235 1.396 . S
C234 C239 1.390 . S
C235 C229 1.465 . S
C235 C234 1.396 . S
C235 C236 1.399 . S
C236 H222 0.929 . S
C236 C235 1.399 . S
C236 C237 1.385 . S
C237 H223 0.931 . S
C237 C236 1.385 . S
C237 C238 1.389 . S
C238 C237 1.389 . S
C238 C239 1.387 . S
C239 H224 0.930 . S
C239 C234 1.390 . S
C239 C238 1.387 . S
H240 C252 0.930 . S
H241 C254 0.930 . S
H242 C255 0.930 . S
H243 C259 0.959 . S
H244 C259 0.959 . S
H245 C259 0.961 . S
H246 C260 0.960 . S
H247 C260 0.961 . S
H248 C260 0.959 . S
H249 C263 0.929 . S
H250 C264 0.931 . S
H251 C266 0.930 . S
C252 H240 0.930 . S
C252 C253 1.399 . S
C252 C257 1.399 . S
C253 C252 1.399 . S
C253 C254 1.376 . S
C254 H241 0.930 . S
C254 C253 1.376 . S
C254 C255 1.388 . S
C255 H242 0.930 . S
C255 C254 1.388 . S
C255 C256 1.390 . S
C256 C255 1.390 . S
C256 C257 1.394 . S
C256 C262 1.465 . S
C257 C252 1.399 . S
C257 C256 1.394 . S
C257 C258 1.516 . S
C258 C257 1.516 . S
C258 C259 1.502 . S
C258 C260 1.561 . S
C258 C261 1.526 . S
C259 H243 0.959 . S
C259 H244 0.959 . S
C259 H245 0.961 . S
C259 C258 1.502 . S
C260 H246 0.960 . S
C260 H247 0.961 . S
C260 H248 0.959 . S
C260 C258 1.561 . S
C261 C258 1.526 . S
C261 C262 1.396 . S
C261 C266 1.390 . S
C262 C256 1.465 . S
C262 C261 1.396 . S
C262 C263 1.399 . S
C263 H249 0.929 . S
C263 C262 1.399 . S
C263 C264 1.385 . S
C264 H250 0.931 . S
C264 C263 1.385 . S
C264 C265 1.389 . S
C265 C264 1.389 . S
C265 C266 1.387 . S
C266 H251 0.930 . S
C266 C261 1.390 . S
C266 C265 1.387 . S
H267 C279 0.930 . S
H268 C281 0.930 . S
H269 C282 0.930 . S
H270 C286 0.959 . S
H271 C286 0.959 . S
H272 C286 0.961 . S
H273 C287 0.960 . S
H274 C287 0.961 . S
H275 C287 0.959 . S
H276 C290 0.929 . S
H277 C291 0.931 . S
H278 C293 0.930 . S
C279 H267 0.930 . S
C279 C280 1.399 . S
C279 C284 1.399 . S
C280 C279 1.399 . S
C280 C281 1.376 . S
C281 H268 0.930 . S
C281 C280 1.376 . S
C281 C282 1.388 . S
C282 H269 0.930 . S
C282 C281 1.388 . S
C282 C283 1.390 . S
C283 C282 1.390 . S
C283 C284 1.394 . S
C283 C289 1.465 . S
C284 C279 1.399 . S
C284 C283 1.394 . S
C284 C285 1.516 . S
C285 C284 1.516 . S
C285 C286 1.502 . S
C285 C287 1.561 . S
C285 C288 1.526 . S
C286 H270 0.959 . S
C286 H271 0.959 . S
C286 H272 0.961 . S
C286 C285 1.502 . S
C287 H273 0.960 . S
C287 H274 0.961 . S
C287 H275 0.959 . S
C287 C285 1.561 . S
C288 C285 1.526 . S
C288 C289 1.396 . S
C288 C293 1.390 . S
C289 C283 1.465 . S
C289 C288 1.396 . S
C289 C290 1.399 . S
C290 H276 0.929 . S
C290 C289 1.399 . S
C290 C291 1.385 . S
C291 H277 0.931 . S
C291 C290 1.385 . S
C291 C292 1.389 . S
C292 C291 1.389 . S
C292 C293 1.387 . S
C293 H278 0.930 . S
C293 C288 1.390 . S
C293 C292 1.387 . S
H294 C306 0.930 . S
H295 C308 0.930 . S
H296 C309 0.930 . S
H297 C313 0.959 . S
H298 C313 0.959 . S
H299 C313 0.961 . S
H300 C314 0.960 . S
H301 C314 0.961 . S
H302 C314 0.959 . S
H303 C317 0.929 . S
H304 C318 0.931 . S
H305 C320 0.930 . S
C306 H294 0.930 . S
C306 C307 1.399 . S
C306 C311 1.399 . S
C307 C306 1.399 . S
C307 C308 1.376 . S
C308 H295 0.930 . S
C308 C307 1.376 . S
C308 C309 1.388 . S
C309 H296 0.930 . S
C309 C308 1.388 . S
C309 C310 1.390 . S
C310 C309 1.390 . S
C310 C311 1.394 . S
C310 C316 1.465 . S
C311 C306 1.399 . S
C311 C310 1.394 . S
C311 C312 1.516 . S
C312 C311 1.516 . S
C312 C313 1.502 . S
C312 C314 1.561 . S
C312 C315 1.526 . S
C313 H297 0.959 . S
C313 H298 0.959 . S
C313 H299 0.961 . S
C313 C312 1.502 . S
C314 H300 0.960 . S
C314 H301 0.961 . S
C314 H302 0.959 . S
C314 C312 1.561 . S
C315 C312 1.526 . S
C315 C316 1.396 . S
C315 C320 1.390 . S
C316 C310 1.465 . S
C316 C315 1.396 . S
C316 C317 1.399 . S
C317 H303 0.929 . S
C317 C316 1.399 . S
C317 C318 1.385 . S
C318 H304 0.931 . S
C318 C317 1.385 . S
C318 C319 1.389 . S
C319 C318 1.389 . S
C319 C320 1.387 . S
C320 H305 0.930 . S
C320 C315 1.390 . S
C320 C319 1.387 . S
H321 C333 0.930 . S
H322 C335 0.930 . S
H323 C336 0.930 . S
H324 C340 0.959 . S
H325 C340 0.959 . S
H326 C340 0.961 . S
H327 C341 0.960 . S
H328 C341 0.961 . S
H329 C341 0.959 . S
H330 C344 0.929 . S
H331 C345 0.931 . S
H332 C347 0.930 . S
C333 H321 0.930 . S
C333 C334 1.399 . S
C333 C338 1.399 . S
C334 C333 1.399 . S
C334 C335 1.376 . S
C335 H322 0.930 . S
C335 C334 1.376 . S
C335 C336 1.388 . S
C336 H323 0.930 . S
C336 C335 1.388 . S
C336 C337 1.390 . S
C337 C336 1.390 . S
C337 C338 1.394 . S
C337 C343 1.465 . S
C338 C333 1.399 . S
C338 C337 1.394 . S
C338 C339 1.516 . S
C339 C338 1.516 . S
C339 C340 1.502 . S
C339 C341 1.561 . S
C339 C342 1.526 . S
C340 H324 0.959 . S
C340 H325 0.959 . S
C340 H326 0.961 . S
C340 C339 1.502 . S
C341 H327 0.960 . S
C341 H328 0.961 . S
C341 H329 0.959 . S
C341 C339 1.561 . S
C342 C339 1.526 . S
C342 C343 1.396 . S
C342 C347 1.390 . S
C343 C337 1.465 . S
C343 C342 1.396 . S
C343 C344 1.399 . S
C344 H330 0.929 . S
C344 C343 1.399 . S
C344 C345 1.385 . S
C345 H331 0.931 . S
C345 C344 1.385 . S
C345 C346 1.389 . S
C346 C345 1.389 . S
C346 C347 1.387 . S
C347 H332 0.930 . S
C347 C342 1.390 . S
C347 C346 1.387 . S
H348 C360 0.930 . S
H349 C362 0.930 . S
H350 C363 0.930 . S
H351 C367 0.959 . S
H352 C367 0.959 . S
H353 C367 0.961 . S
H354 C368 0.960 . S
H355 C368 0.961 . S
H356 C368 0.959 . S
H357 C371 0.929 . S
H358 C372 0.931 . S
H359 C374 0.930 . S
C360 H348 0.930 . S
C360 C361 1.399 . S
C360 C365 1.399 . S
C361 C360 1.399 . S
C361 C362 1.376 . S
C362 H349 0.930 . S
C362 C361 1.376 . S
C362 C363 1.388 . S
C363 H350 0.930 . S
C363 C362 1.388 . S
C363 C364 1.390 . S
C364 C363 1.390 . S
C364 C365 1.394 . S
C364 C370 1.465 . S
C365 C360 1.399 . S
C365 C364 1.394 . S
C365 C366 1.516 . S
C366 C365 1.516 . S
C366 C367 1.502 . S
C366 C368 1.561 . S
C366 C369 1.526 . S
C367 H351 0.959 . S
C367 H352 0.959 . S
C367 H353 0.961 . S
C367 C366 1.502 . S
C368 H354 0.960 . S
C368 H355 0.961 . S
C368 H356 0.959 . S
C368 C366 1.561 . S
C369 C366 1.526 . S
C369 C370 1.396 . S
C369 C374 1.390 . S
C370 C364 1.465 . S
C370 C369 1.396 . S
C370 C371 1.399 . S
C371 H357 0.929 . S
C371 C370 1.399 . S
C371 C372 1.385 . S
C372 H358 0.931 . S
C372 C371 1.385 . S
C372 C373 1.389 . S
C373 C372 1.389 . S
C373 C374 1.387 . S
C374 H359 0.930 . S
C374 C369 1.390 . S
C374 C373 1.387 . S
H375 C387 0.930 . S
H376 C389 0.930 . S
H377 C390 0.930 . S
H378 C394 0.959 . S
H379 C394 0.959 . S
H380 C394 0.961 . S
H381 C395 0.960 . S
H382 C395 0.961 . S
H383 C395 0.959 . S
H384 C398 0.929 . S
H385 C399 0.931 . S
H386 C401 0.930 . S
C387 H375 0.930 . S
C387 C388 1.399 . S
C387 C392 1.399 . S
C388 C387 1.399 . S
C388 C389 1.376 . S
C389 H376 0.930 . S
C389 C388 1.376 . S
C389 C390 1.388 . S
C390 H377 0.930 . S
C390 C389 1.388 . S
C390 C391 1.390 . S
C391 C390 1.390 . S
C391 C392 1.394 . S
C391 C397 1.465 . S
C392 C387 1.399 . S
C392 C391 1.394 . S
C392 C393 1.516 . S
C393 C392 1.516 . S
C393 C394 1.502 . S
C393 C395 1.561 . S
C393 C396 1.526 . S
C394 H378 0.959 . S
C394 H379 0.959 . S
C394 H380 0.961 . S
C394 C393 1.502 . S
C395 H381 0.960 . S
C395 H382 0.961 . S
C395 H383 0.959 . S
C395 C393 1.561 . S
C396 C393 1.526 . S
C396 C397 1.396 . S
C396 C401 1.390 . S
C397 C391 1.465 . S
C397 C396 1.396 . S
C397 C398 1.399 . S
C398 H384 0.929 . S
C398 C397 1.399 . S
C398 C399 1.385 . S
C399 H385 0.931 . S
C399 C398 1.385 . S
C399 C400 1.389 . S
C400 C399 1.389 . S
C400 C401 1.387 . S
C401 H386 0.930 . S
C401 C396 1.390 . S
C401 C400 1.387 . S
H402 C414 0.930 . S
H403 C416 0.930 . S
H404 C417 0.930 . S
H405 C421 0.959 . S
H406 C421 0.959 . S
H407 C421 0.961 . S
H408 C422 0.960 . S
H409 C422 0.961 . S
H410 C422 0.959 . S
H411 C425 0.929 . S
H412 C426 0.931 . S
H413 C428 0.930 . S
C414 H402 0.930 . S
C414 C415 1.399 . S
C414 C419 1.399 . S
C415 C414 1.399 . S
C415 C416 1.376 . S
C416 H403 0.930 . S
C416 C415 1.376 . S
C416 C417 1.388 . S
C417 H404 0.930 . S
C417 C416 1.388 . S
C417 C418 1.390 . S
C418 C417 1.390 . S
C418 C419 1.394 . S
C418 C424 1.465 . S
C419 C414 1.399 . S
C419 C418 1.394 . S
C419 C420 1.516 . S
C420 C419 1.516 . S
C420 C421 1.502 . S
C420 C422 1.561 . S
C420 C423 1.526 . S
C421 H405 0.959 . S
C421 H406 0.959 . S
C421 H407 0.961 . S
C421 C420 1.502 . S
C422 H408 0.960 . S
C422 H409 0.961 . S
C422 H410 0.959 . S
C422 C420 1.561 . S
C423 C420 1.526 . S
C423 C424 1.396 . S
C423 C428 1.390 . S
C424 C418 1.465 . S
C424 C423 1.396 . S
C424 C425 1.399 . S
C425 H411 0.929 . S
C425 C424 1.399 . S
C425 C426 1.385 . S
C426 H412 0.931 . S
C426 C425 1.385 . S
C426 C427 1.389 . S
C427 C426 1.389 . S
C427 C428 1.387 . S
C428 H413 0.930 . S
C428 C423 1.390 . S
C428 C427 1.387 . S
H429 C441 0.930 . S
H430 C443 0.930 . S
H431 C444 0.930 . S
H432 C448 0.959 . S
H433 C448 0.959 . S
H434 C448 0.961 . S
H435 C449 0.960 . S
H436 C449 0.961 . S
H437 C449 0.959 . S
H438 C452 0.929 . S
H439 C453 0.931 . S
H440 C455 0.930 . S
C441 H429 0.930 . S
C441 C442 1.399 . S
C441 C446 1.399 . S
C442 C441 1.399 . S
C442 C443 1.376 . S
C443 H430 0.930 . S
C443 C442 1.376 . S
C443 C444 1.388 . S
C444 H431 0.930 . S
C444 C443 1.388 . S
C444 C445 1.390 . S
C445 C444 1.390 . S
C445 C446 1.394 . S
C445 C451 1.465 . S
C446 C441 1.399 . S
C446 C445 1.394 . S
C446 C447 1.516 . S
C447 C446 1.516 . S
C447 C448 1.502 . S
C447 C449 1.561 . S
C447 C450 1.526 . S
C448 H432 0.959 . S
C448 H433 0.959 . S
C448 H434 0.961 . S
C448 C447 1.502 . S
C449 H435 0.960 . S
C449 H436 0.961 . S
C449 H437 0.959 . S
C449 C447 1.561 . S
C450 C447 1.526 . S
C450 C451 1.396 . S
C450 C455 1.390 . S
C451 C445 1.465 . S
C451 C450 1.396 . S
C451 C452 1.399 . S
C452 H438 0.929 . S
C452 C451 1.399 . S
C452 C453 1.385 . S
C453 H439 0.931 . S
C453 C452 1.385 . S
C453 C454 1.389 . S
C454 C453 1.389 . S
C454 C455 1.387 . S
C455 H440 0.930 . S
C455 C450 1.390 . S
C455 C454 1.387 . S
H456 C468 0.930 . S
H457 C470 0.930 . S
H458 C471 0.930 . S
H459 C475 0.959 . S
H460 C475 0.959 . S
H461 C475 0.961 . S
H462 C476 0.960 . S
H463 C476 0.961 . S
H464 C476 0.959 . S
H465 C479 0.929 . S
H466 C480 0.931 . S
H467 C482 0.930 . S
C468 H456 0.930 . S
C468 C469 1.399 . S
C468 C473 1.399 . S
C469 C468 1.399 . S
C469 C470 1.376 . S
C470 H457 0.930 . S
C470 C469 1.376 . S
C470 C471 1.388 . S
C471 H458 0.930 . S
C471 C470 1.388 . S
C471 C472 1.390 . S
C472 C471 1.390 . S
C472 C473 1.394 . S
C472 C478 1.465 . S
C473 C468 1.399 . S
C473 C472 1.394 . S
C473 C474 1.516 . S
C474 C473 1.516 . S
C474 C475 1.502 . S
C474 C476 1.561 . S
C474 C477 1.526 . S
C475 H459 0.959 . S
C475 H460 0.959 . S
C475 H461 0.961 . S
C475 C474 1.502 . S
C476 H462 0.960 . S
C476 H463 0.961 . S
C476 H464 0.959 . S
C476 C474 1.561 . S
C477 C474 1.526 . S
C477 C478 1.396 . S
C477 C482 1.390 . S
C478 C472 1.465 . S
C478 C477 1.396 . S
C478 C479 1.399 . S
C479 H465 0.929 . S
C479 C478 1.399 . S
C479 C480 1.385 . S
C480 H466 0.931 . S
C480 C479 1.385 . S
C480 C481 1.389 . S
C481 C480 1.389 . S
C481 C482 1.387 . S
C482 H467 0.930 . S
C482 C477 1.390 . S
C482 C481 1.387 . S
H483 C495 0.930 . S
H484 C497 0.930 . S
H485 C498 0.930 . S
H486 C502 0.959 . S
H487 C502 0.959 . S
H488 C502 0.961 . S
H489 C503 0.960 . S
H490 C503 0.961 . S
H491 C503 0.959 . S
H492 C506 0.929 . S
H493 C507 0.931 . S
H494 C509 0.930 . S
C495 H483 0.930 . S
C495 C496 1.399 . S
C495 C500 1.399 . S
C496 C495 1.399 . S
C496 C497 1.376 . S
C497 H484 0.930 . S
C497 C496 1.376 . S
C497 C498 1.388 . S
C498 H485 0.930 . S
C498 C497 1.388 . S
C498 C499 1.390 . S
C499 C498 1.390 . S
C499 C500 1.394 . S
C499 C505 1.465 . S
C500 C495 1.399 . S
C500 C499 1.394 . S
C500 C501 1.516 . S
C501 C500 1.516 . S
C501 C502 1.502 . S
C501 C503 1.561 . S
C501 C504 1.526 . S
C502 H486 0.959 . S
C502 H487 0.959 . S
C502 H488 0.961 . S
C502 C501 1.502 . S
C503 H489 0.960 . S
C503 H490 0.961 . S
C503 H491 0.959 . S
C503 C501 1.561 . S
C504 C501 1.526 . S
C504 C505 1.396 . S
C504 C509 1.390 . S
C505 C499 1.465 . S
C505 C504 1.396 . S
C505 C506 1.399 . S
C506 H492 0.929 . S
C506 C505 1.399 . S
C506 C507 1.385 . S
C507 H493 0.931 . S
C507 C506 1.385 . S
C507 C508 1.389 . S
C508 C507 1.389 . S
C508 C509 1.387 . S
C509 H494 0.930 . S
C509 C504 1.390 . S
C509 C508 1.387 . S
H510 C522 0.930 . S
H511 C524 0.930 . S
H512 C525 0.930 . S
H513 C529 0.959 . S
H514 C529 0.952 1_556 S
H515 C529 0.961 . S
H516 C530 0.960 . S
H517 C530 0.961 1_556 S
H518 C530 0.959 . S
H519 C533 0.929 . S
H520 C534 0.931 . S
H521 C536 0.930 . S
C522 H510 0.930 . S
C522 C523 1.399 . S
C522 C527 1.399 . S
C523 C522 1.399 . S
C523 C524 1.376 . S
C524 H511 0.930 . S
C524 C523 1.376 . S
C524 C525 1.388 . S
C525 H512 0.930 . S
C525 C524 1.388 . S
C525 C526 1.390 . S
C526 C525 1.390 . S
C526 C527 1.394 . S
C526 C532 1.465 1_554 S
C527 C522 1.399 . S
C527 C526 1.394 . S
C527 C528 1.516 . S
C528 C527 1.516 . S
C528 C529 1.502 . S
C528 C530 1.561 1_455 S
C528 C531 1.526 1_554 S
C529 H513 0.959 . S
C529 H514 0.952 1_554 S
C529 H515 0.961 . S
C529 C528 1.502 . S
C530 H516 0.960 . S
C530 H517 0.961 1_554 S
C530 H518 0.959 . S
C530 C528 1.561 1_655 S
C531 C528 1.526 1_556 S
C531 C532 1.396 . S
C531 C536 1.390 . S
C532 C526 1.465 1_556 S
C532 C531 1.396 . S
C532 C533 1.399 . S
C533 H519 0.929 . S
C533 C532 1.399 . S
C533 C534 1.385 . S
C534 H520 0.931 . S
C534 C533 1.385 . S
C534 C535 1.389 . S
C535 C534 1.389 . S
C535 C536 1.387 . S
C536 H521 0.930 . S
C536 C531 1.390 . S
C536 C535 1.387 . S
H537 C549 0.930 . S
H538 C551 0.930 . S
H539 C552 0.930 . S
H540 C556 0.964 . S
H541 C556 0.959 . S
H542 C556 0.961 . S
H543 C557 0.960 . S
H544 C557 0.961 . S
H545 C557 0.959 . S
H546 C560 0.929 . S
H547 C561 0.931 . S
H548 C563 0.930 1_565 S
C549 H537 0.930 . S
C549 C550 1.399 . S
C549 C554 1.399 . S
C550 C549 1.399 . S
C550 C551 1.376 . S
C551 H538 0.930 . S
C551 C550 1.376 . S
C551 C552 1.388 . S
C552 H539 0.930 . S
C552 C551 1.388 . S
C552 C553 1.390 . S
C553 C552 1.390 . S
C553 C554 1.394 . S
C553 C559 1.465 . S
C554 C549 1.399 . S
C554 C553 1.394 . S
C554 C555 1.516 . S
C555 C554 1.516 . S
C555 C556 1.502 1_545 S
C555 C557 1.561 1_545 S
C555 C558 1.526 . S
C556 H540 0.964 . S
C556 H541 0.959 . S
C556 H542 0.961 . S
C556 C555 1.502 1_565 S
C557 H543 0.960 . S
C557 H544 0.961 . S
C557 H545 0.959 . S
C557 C555 1.561 1_565 S
C558 C555 1.526 . S
C558 C559 1.396 . S
C558 C563 1.390 . S
C559 C553 1.465 . S
C559 C558 1.396 . S
C559 C560 1.399 . S
C560 H546 0.929 . S
C560 C559 1.399 . S
C560 C561 1.385 . S
C561 H547 0.931 . S
C561 C560 1.385 . S
C561 C562 1.389 . S
C562 C561 1.389 . S
C562 C563 1.387 . S
C563 H548 0.930 1_545 S
C563 C558 1.390 . S
C563 C562 1.387 . S
H564 C576 0.930 . S
H565 C578 0.930 . S
H566 C579 0.930 . S
H567 C583 0.959 . S
H568 C583 0.959 . S
H569 C583 0.961 . S
H570 C584 0.960 . S
H571 C584 0.961 . S
H572 C584 0.959 . S
H573 C587 0.929 . S
H574 C588 0.931 . S
H575 C590 0.930 . S
C576 H564 0.930 . S
C576 C577 1.399 . S
C576 C581 1.399 . S
C577 C576 1.399 . S
C577 C578 1.376 . S
C578 H565 0.930 . S
C578 C577 1.376 . S
C578 C579 1.388 . S
C579 H566 0.930 . S
C579 C578 1.388 . S
C579 C580 1.390 . S
C580 C579 1.390 . S
C580 C581 1.394 . S
C580 C586 1.465 . S
C581 C576 1.399 . S
C581 C580 1.394 . S
C581 C582 1.516 . S
C582 C581 1.516 . S
C582 C583 1.502 . S
C582 C584 1.561 . S
C582 C585 1.526 . S
C583 H567 0.959 . S
C583 H568 0.959 . S
C583 H569 0.961 . S
C583 C582 1.502 . S
C584 H570 0.960 . S
C584 H571 0.961 . S
C584 H572 0.959 . S
C584 C582 1.561 . S
C585 C582 1.526 . S
C585 C586 1.396 . S
C585 C590 1.390 . S
C586 C580 1.465 . S
C586 C585 1.396 . S
C586 C587 1.399 . S
C587 H573 0.929 . S
C587 C586 1.399 . S
C587 C588 1.385 . S
C588 H574 0.931 . S
C588 C587 1.385 . S
C588 C589 1.389 . S
C589 C588 1.389 . S
C589 C590 1.387 . S
C590 H575 0.930 . S
C590 C585 1.390 . S
C590 C589 1.387 . S
H591 C603 0.930 . S
H592 C605 0.930 . S
H593 C606 0.930 . S
H594 C610 0.959 . S
H595 C610 0.959 . S
H596 C610 0.961 . S
H597 C611 0.960 . S
H598 C611 0.961 . S
H599 C611 0.959 . S
H600 C614 0.929 . S
H601 C615 0.931 . S
H602 C617 0.930 1_565 S
C603 H591 0.930 . S
C603 C604 1.399 . S
C603 C608 1.399 . S
C604 C603 1.399 . S
C604 C605 1.376 . S
C605 H592 0.930 . S
C605 C604 1.376 . S
C605 C606 1.388 . S
C606 H593 0.930 . S
C606 C605 1.388 . S
C606 C607 1.390 . S
C607 C606 1.390 . S
C607 C608 1.394 . S
C607 C613 1.465 . S
C608 C603 1.399 . S
C608 C607 1.394 . S
C608 C609 1.516 1_545 S
C609 C608 1.516 1_565 S
C609 C610 1.502 . S
C609 C611 1.561 . S
C609 C612 1.526 1_565 S
C610 H594 0.959 . S
C610 H595 0.959 . S
C610 H596 0.961 . S
C610 C609 1.502 . S
C611 H597 0.960 . S
C611 H598 0.961 . S
C611 H599 0.959 . S
C611 C609 1.561 . S
C612 C609 1.526 1_545 S
C612 C613 1.396 . S
C612 C617 1.390 . S
C613 C607 1.465 . S
C613 C612 1.396 . S
C613 C614 1.399 . S
C614 H600 0.929 . S
C614 C613 1.399 . S
C614 C615 1.385 . S
C615 H601 0.931 . S
C615 C614 1.385 . S
C615 C616 1.389 . S
C616 C615 1.389 . S
C616 C617 1.387 . S
C617 H602 0.930 1_545 S
C617 C612 1.390 . S
C617 C616 1.387 . S
H618 C630 0.930 . S
H619 C632 0.930 . S
H620 C633 0.930 . S
H621 C637 0.959 . S
H622 C637 0.959 . S
H623 C637 0.961 . S
H624 C638 0.960 . S
H625 C638 0.961 . S
H626 C638 0.959 . S
H627 C641 0.929 . S
H628 C642 0.931 . S
H629 C644 0.930 . S
C630 H618 0.930 . S
C630 C631 1.399 . S
C630 C635 1.399 . S
C631 C630 1.399 . S
C631 C632 1.376 . S
C632 H619 0.930 . S
C632 C631 1.376 . S
C632 C633 1.388 . S
C633 H620 0.930 . S
C633 C632 1.388 . S
C633 C634 1.390 . S
C634 C633 1.390 . S
C634 C635 1.394 . S
C634 C640 1.465 . S
C635 C630 1.399 . S
C635 C634 1.394 . S
C635 C636 1.516 . S
C636 C635 1.516 . S
C636 C637 1.502 . S
C636 C638 1.561 . S
C636 C639 1.552 . S
C637 H621 0.959 . S
C637 H622 0.959 . S
C637 H623 0.961 . S
C637 C636 1.502 . S
C638 H624 0.960 . S
C638 H625 0.961 . S
C638 H626 0.959 . S
C638 C636 1.561 . S
C639 C636 1.552 . S
C639 C640 1.404 . S
C639 C644 1.359 1_556 S
C640 C634 1.465 . S
C640 C639 1.404 . S
C640 C641 1.399 1_556 S
C641 H627 0.929 . S
C641 C640 1.399 1_554 S
C641 C642 1.385 . S
C642 H628 0.931 . S
C642 C641 1.385 . S
C642 C643 1.389 . S
C643 C642 1.389 . S
C643 C644 1.387 . S
C644 H629 0.930 . S
C644 C639 1.359 1_554 S
C644 C643 1.387 . S
H645 C657 0.930 . S
H646 C659 0.930 1_655 S
H647 C660 0.930 . S
H648 C664 0.959 . S
H649 C664 0.959 . S
H650 C664 0.961 . S
H651 C665 0.960 . S
H652 C665 0.961 . S
H653 C665 0.959 . S
H654 C668 0.929 . S
H655 C669 0.931 . S
H656 C671 0.930 . S
C657 H645 0.930 . S
C657 C658 1.399 . S
C657 C662 1.399 . S
C658 C657 1.399 . S
C658 C659 1.376 . S
C659 H646 0.930 1_455 S
C659 C658 1.376 . S
C659 C660 1.388 1_455 S
C660 H647 0.930 . S
C660 C659 1.388 1_655 S
C660 C661 1.390 1_655 S
C661 C660 1.390 1_455 S
C661 C662 1.394 . S
C661 C667 1.465 . S
C662 C657 1.399 . S
C662 C661 1.394 . S
C662 C663 1.516 . S
C663 C662 1.516 . S
C663 C664 1.502 . S
C663 C665 1.561 . S
C663 C666 1.526 . S
C664 H648 0.959 . S
C664 H649 0.959 . S
C664 H650 0.961 . S
C664 C663 1.502 . S
C665 H651 0.960 . S
C665 H652 0.961 . S
C665 H653 0.959 . S
C665 C663 1.561 . S
C666 C663 1.526 . S
C666 C667 1.396 . S
C666 C671 1.390 . S
C667 C661 1.465 . S
C667 C666 1.396 . S
C667 C668 1.399 1_455 S
C668 H654 0.929 . S
C668 C667 1.399 1_655 S
C668 C669 1.385 . S
C669 H655 0.931 . S
C669 C668 1.385 . S
C669 C670 1.389 1_655 S
C670 C669 1.389 1_455 S
C670 C671 1.387 . S
C671 H656 0.930 . S
C671 C666 1.390 . S
C671 C670 1.387 . S
C199 C9 0.626 . S
C211 C185 0.529 . S
C226 C49 0.524 . S
C238 C163 0.453 . S
C253 C89 0.272 . S
C265 C174 0.262 . S
C280 C26 0.311 . S
C292 C179 0.337 . S
C319 C157 0.261 . S
C307 C66 0.486 . S
C346 C168 0.214 . S
C334 C106 0.388 . S
C361 C43 3.027 . S
C373 C141 2.955 . S
C388 C83 2.990 . S
C400 C146 2.943 . S
C415 C22 3.028 . S
C427 C124 2.961 1_565 S
C454 C135 2.966 . S
C442 C62 3.023 . S
C481 C152 2.971 . S
C469 C102 3.052 . S
C496 C3 3.025 . S
C508 C130 2.967 . S
C535 C147 1.722 . S
C523 C15 1.676 . S
C550 C55 1.734 . S
C562 C125 1.757 . S
C577 C95 1.696 . S
C589 C136 1.734 . S
C616 C169 1.196 . S
C604 C42 1.153 . S
C643 C180 1.206 . S
C631 C82 1.194 . S
C658 C2 1.173 . S
C670 C158 1.219 . S
