# Generated by pormake.
# Topology ssb, (4,4)-cn, num edge types: 1
# Building blocks:
#     Node 0, Type 0, BuildingBlock: NAHDIM_clean_linker_0, # of connection points: 4
#     Node 1, Type 0, BuildingBlock: NAHDIM_clean_linker_0, # of connection points: 4
#     Node 2, Type 0, BuildingBlock: NAHDIM_clean_linker_0, # of connection points: 4
#     Node 3, Type 0, BuildingBlock: NAHDIM_clean_linker_0, # of connection points: 4
#     Node 4, Type 0, BuildingBlock: NAHDIM_clean_linker_0, # of connection points: 4
#     Node 5, Type 0, BuildingBlock: NAHDIM_clean_linker_0, # of connection points: 4
#     Node 6, Type 0, BuildingBlock: NAHDIM_clean_linker_0, # of connection points: 4
#     Node 7, Type 0, BuildingBlock: NAHDIM_clean_linker_0, # of connection points: 4
#     Node 8, Type 1, BuildingBlock: KOZSID_clean_sbu_0, # of connection points: 4
#     Node 9, Type 1, BuildingBlock: KOZSID_clean_sbu_0, # of connection points: 4
#     Node 10, Type 1, BuildingBlock: KOZSID_clean_sbu_0, # of connection points: 4
#     Node 11, Type 1, BuildingBlock: KOZSID_clean_sbu_0, # of connection points: 4
#     Node 12, Type 1, BuildingBlock: KOZSID_clean_sbu_0, # of connection points: 4
#     Node 13, Type 1, BuildingBlock: KOZSID_clean_sbu_0, # of connection points: 4
#     Node 14, Type 1, BuildingBlock: KOZSID_clean_sbu_0, # of connection points: 4
#     Node 15, Type 1, BuildingBlock: KOZSID_clean_sbu_0, # of connection points: 4
#     Edge 16, Type (0, 1), BuildingBlock: AJUNOK_clean_linker_0, # of connection points: 2
#     Edge 17, Type (0, 1), BuildingBlock: AJUNOK_clean_linker_0, # of connection points: 2
#     Edge 18, Type (0, 1), BuildingBlock: AJUNOK_clean_linker_0, # of connection points: 2
#     Edge 19, Type (0, 1), BuildingBlock: AJUNOK_clean_linker_0, # of connection points: 2
#     Edge 20, Type (0, 1), BuildingBlock: AJUNOK_clean_linker_0, # of connection points: 2
#     Edge 21, Type (0, 1), BuildingBlock: AJUNOK_clean_linker_0, # of connection points: 2
#     Edge 22, Type (0, 1), BuildingBlock: AJUNOK_clean_linker_0, # of connection points: 2
#     Edge 23, Type (0, 1), BuildingBlock: AJUNOK_clean_linker_0, # of connection points: 2
#     Edge 24, Type (0, 1), BuildingBlock: AJUNOK_clean_linker_0, # of connection points: 2
#     Edge 25, Type (0, 1), BuildingBlock: AJUNOK_clean_linker_0, # of connection points: 2
#     Edge 26, Type (0, 1), BuildingBlock: AJUNOK_clean_linker_0, # of connection points: 2
#     Edge 27, Type (0, 1), BuildingBlock: AJUNOK_clean_linker_0, # of connection points: 2
#     Edge 28, Type (0, 1), BuildingBlock: AJUNOK_clean_linker_0, # of connection points: 2
#     Edge 29, Type (0, 1), BuildingBlock: AJUNOK_clean_linker_0, # of connection points: 2
#     Edge 30, Type (0, 1), BuildingBlock: AJUNOK_clean_linker_0, # of connection points: 2
#     Edge 31, Type (0, 1), BuildingBlock: AJUNOK_clean_linker_0, # of connection points: 2
#     Edge 32, Type (0, 1), BuildingBlock: AJUNOK_clean_linker_0, # of connection points: 2
#     Edge 33, Type (0, 1), BuildingBlock: AJUNOK_clean_linker_0, # of connection points: 2
#     Edge 34, Type (0, 1), BuildingBlock: AJUNOK_clean_linker_0, # of connection points: 2
#     Edge 35, Type (0, 1), BuildingBlock: AJUNOK_clean_linker_0, # of connection points: 2
#     Edge 36, Type (0, 1), BuildingBlock: AJUNOK_clean_linker_0, # of connection points: 2
#     Edge 37, Type (0, 1), BuildingBlock: AJUNOK_clean_linker_0, # of connection points: 2
#     Edge 38, Type (0, 1), BuildingBlock: AJUNOK_clean_linker_0, # of connection points: 2
#     Edge 39, Type (0, 1), BuildingBlock: AJUNOK_clean_linker_0, # of connection points: 2
#     Edge 40, Type (0, 1), BuildingBlock: AJUNOK_clean_linker_0, # of connection points: 2
#     Edge 41, Type (0, 1), BuildingBlock: AJUNOK_clean_linker_0, # of connection points: 2
#     Edge 42, Type (0, 1), BuildingBlock: AJUNOK_clean_linker_0, # of connection points: 2
#     Edge 43, Type (0, 1), BuildingBlock: AJUNOK_clean_linker_0, # of connection points: 2
#     Edge 44, Type (0, 1), BuildingBlock: AJUNOK_clean_linker_0, # of connection points: 2
#     Edge 45, Type (0, 1), BuildingBlock: AJUNOK_clean_linker_0, # of connection points: 2
#     Edge 46, Type (0, 1), BuildingBlock: AJUNOK_clean_linker_0, # of connection points: 2
#     Edge 47, Type (0, 1), BuildingBlock: AJUNOK_clean_linker_0, # of connection points: 2
# Relax obj value: 0.005
# Max RMSD: 0.054
# Mean RMSD: 0.033
data_MOF--net-ssb--node1-KOZSID_clean_sbu_0--node2-NAHDIM_clean_linker_0--edge1-AJUNOK_clean_linker_0
_symmetry_space_group_name_H-M    P1
_symmetry_Int_Tables_number       1
_symmetry_cell_setting            triclinic
loop_
_symmetry_equiv_pos_as_xyz
'x, y, z'
_cell_length_a     59.443922
_cell_length_b     59.445128
_cell_length_c     43.446277
_cell_angle_alpha  92.418335
_cell_angle_beta   94.851805
_cell_angle_gamma 89.999222
loop_
_atom_site_label
_atom_site_type_symbol
_atom_site_fract_x
_atom_site_fract_y
_atom_site_fract_z
_atom_type_partial_charge
C0 C 0.33861 0.13612 0.40702 0.0
C1 C 0.31406 0.13757 0.41548 0.0
C2 C 0.29784 0.15961 0.37221 0.0
C3 C 0.30741 0.18048 0.38273 0.0
C4 C 0.30631 0.199 0.36365 0.0
C5 C 0.29544 0.19669 0.33344 0.0
C6 C 0.28522 0.17594 0.32307 0.0
C7 C 0.28642 0.15772 0.34274 0.0
C8 C 0.31722 0.22097 0.37556 0.0
C9 C 0.27348 0.17289 0.291 0.0
C10 C 0.41777 0.19273 0.22151 0.0
C11 C 0.40247 0.20644 0.19921 0.0
C12 C 0.37711 0.23016 0.22743 0.0
C13 C 0.35619 0.2228 0.21313 0.0
C14 C 0.33647 0.22519 0.22852 0.0
C15 C 0.33769 0.23552 0.25856 0.0
C16 C 0.3585 0.24425 0.27218 0.0
C17 C 0.37799 0.24157 0.25627 0.0
C18 C 0.31443 0.21616 0.21304 0.0
C19 C 0.36026 0.25577 0.30389 0.0
C20 C 0.25407 0.36402 0.21871 0.0
C21 C 0.2487 0.34369 0.20232 0.0
C22 C 0.24748 0.32353 0.21788 0.0
C23 C 0.25234 0.32379 0.2504 0.0
C24 C 0.25794 0.34439 0.26686 0.0
C25 C 0.25836 0.36434 0.25079 0.0
C26 C 0.24057 0.3021 0.19969 0.0
C27 C 0.26323 0.34539 0.30149 0.0
C28 C 0.13795 0.23257 0.37027 0.0
C29 C 0.14479 0.25653 0.3816 0.0
C30 C 0.16566 0.27336 0.34296 0.0
C31 C 0.16645 0.26801 0.31151 0.0
C32 C 0.18647 0.27066 0.29715 0.0
C33 C 0.20587 0.27952 0.31468 0.0
C34 C 0.20476 0.28605 0.34623 0.0
C35 C 0.18464 0.2827 0.36014 0.0
C36 C 0.18703 0.26363 0.26344 0.0
C37 C 0.22487 0.29634 0.36525 0.0
C38 C 0.29606 0.21562 0.31221 0.0
C39 C 0.31501 0.21748 0.29554 0.0
C40 C 0.31757 0.23554 0.27654 0.0
C41 C 0.30101 0.25259 0.27442 0.0
C42 C 0.3036 0.27157 0.25676 0.0
C43 C 0.28714 0.28826 0.25484 0.0
C44 C 0.26723 0.2863 0.26986 0.0
C45 C 0.25015 0.3029 0.26758 0.0
C46 C 0.23046 0.30017 0.28249 0.0
C47 C 0.22739 0.28147 0.30009 0.0
C48 C 0.24442 0.26493 0.3032 0.0
C49 C 0.24202 0.24609 0.32124 0.0
C50 C 0.25901 0.23007 0.32455 0.0
C51 C 0.27878 0.23192 0.30924 0.0
C52 C 0.28138 0.25058 0.29049 0.0
C53 C 0.26433 0.26728 0.28783 0.0
C54 C 0.29109 0.39899 0.20022 0.0
C55 C 0.26998 0.38829 0.18292 0.0
O56 O 0.2995 0.1409 0.38936 0.0
O57 O 0.14629 0.26961 0.35621 0.0
O58 O 0.25455 0.38362 0.20398 0.0
O59 O 0.39668 0.22646 0.21407 0.0
H60 H 0.31247 0.15186 0.4325 0.0
H61 H 0.34398 0.15218 0.39775 0.0
H62 H 0.34051 0.12243 0.38922 0.0
H63 H 0.3501 0.13279 0.42784 0.0
H64 H 0.31599 0.18247 0.40563 0.0
H65 H 0.27891 0.14165 0.33484 0.0
H66 H 0.33167 0.22463 0.36194 0.0
H67 H 0.32348 0.22062 0.40037 0.0
H68 H 0.30497 0.23496 0.37252 0.0
H69 H 0.26625 0.15572 0.28646 0.0
H70 H 0.28562 0.17603 0.27357 0.0
H71 H 0.25969 0.18539 0.28786 0.0
H72 H 0.38738 0.1957 0.19281 0.0
H73 H 0.42339 0.17708 0.20955 0.0
H74 H 0.40829 0.1879 0.2412 0.0
H75 H 0.43283 0.20262 0.23097 0.0
H76 H 0.35523 0.21507 0.19004 0.0
H77 H 0.39415 0.24764 0.26679 0.0
H78 H 0.30169 0.22983 0.21169 0.0
H79 H 0.30786 0.20282 0.22708 0.0
H80 H 0.31622 0.209 0.18934 0.0
H81 H 0.37718 0.26342 0.31009 0.0
H82 H 0.35697 0.24334 0.32135 0.0
H83 H 0.34725 0.26912 0.30503 0.0
H84 H 0.27502 0.37237 0.17091 0.0
H85 H 0.24497 0.34375 0.17748 0.0
H86 H 0.26233 0.38025 0.26314 0.0
H87 H 0.25489 0.2901 0.20071 0.0
H88 H 0.23541 0.30512 0.17504 0.0
H89 H 0.22633 0.29398 0.21003 0.0
H90 H 0.27026 0.362 0.31018 0.0
H91 H 0.27551 0.33205 0.30837 0.0
H92 H 0.24755 0.34229 0.31286 0.0
H93 H 0.16147 0.25569 0.39527 0.0
H94 H 0.13701 0.22149 0.39009 0.0
H95 H 0.1507 0.22545 0.35533 0.0
H96 H 0.12127 0.23259 0.35664 0.0
H97 H 0.1515 0.26109 0.29848 0.0
H98 H 0.18363 0.28748 0.38433 0.0
H99 H 0.20083 0.25133 0.26057 0.0
H100 H 0.19061 0.27853 0.25006 0.0
H101 H 0.17084 0.25594 0.25353 0.0
H102 H 0.22057 0.30264 0.38846 0.0
H103 H 0.23176 0.31051 0.35302 0.0
H104 H 0.2384 0.28356 0.3683 0.0
H105 H 0.32803 0.20469 0.29746 0.0
H106 H 0.31848 0.27381 0.24444 0.0
H107 H 0.29012 0.30261 0.24117 0.0
H108 H 0.21734 0.31285 0.28046 0.0
H109 H 0.22704 0.2436 0.33325 0.0
H110 H 0.25636 0.21606 0.33897 0.0
H111 H 0.2867 0.41492 0.21264 0.0
H112 H 0.30391 0.40264 0.18392 0.0
H113 H 0.2987 0.38726 0.21737 0.0
C114 C 0.64516 0.16487 0.11455 0.0
C115 C 0.63841 0.18724 0.12986 0.0
C116 C 0.6688 0.21048 0.15324 0.0
C117 C 0.65996 0.22395 0.17645 0.0
C118 C 0.67358 0.23085 0.20317 0.0
C119 C 0.69632 0.22363 0.20684 0.0
C120 C 0.70523 0.21004 0.18317 0.0
C121 C 0.69139 0.20402 0.15632 0.0
C122 C 0.66358 0.24559 0.2276 0.0
C123 C 0.72916 0.20137 0.18648 0.0
C124 C 0.73848 0.17467 0.44315 0.0
C125 C 0.73156 0.16176 0.41257 0.0
C126 C 0.71376 0.18239 0.36981 0.0
C127 C 0.72589 0.17326 0.34591 0.0
C128 C 0.72773 0.18499 0.31889 0.0
C129 C 0.71699 0.2061 0.31567 0.0
C130 C 0.70349 0.21456 0.33879 0.0
C131 C 0.70194 0.20247 0.36558 0.0
C132 C 0.7417 0.1752 0.2942 0.0
C133 C 0.69141 0.23677 0.33568 0.0
C134 C 0.85121 0.27775 0.36387 0.0
C135 C 0.8491 0.26084 0.34007 0.0
C136 C 0.83131 0.26107 0.31679 0.0
C137 C 0.81503 0.27839 0.31733 0.0
C138 C 0.81687 0.29532 0.34128 0.0
C139 C 0.83499 0.29478 0.36424 0.0
C140 C 0.82996 0.24276 0.29149 0.0
C141 C 0.79968 0.31391 0.34258 0.0
C142 C 0.77078 0.33162 0.08096 0.0
C143 C 0.77516 0.34287 0.11327 0.0
C144 C 0.79314 0.324 0.15728 0.0
C145 C 0.8043 0.30376 0.16296 0.0
C146 C 0.80233 0.29287 0.19063 0.0
C147 C 0.7892 0.30283 0.21322 0.0
C148 C 0.77929 0.32416 0.20853 0.0
C149 C 0.78138 0.33456 0.18055 0.0
C150 C 0.81347 0.27031 0.19519 0.0
C151 C 0.76579 0.33553 0.23259 0.0
C152 C 0.71054 0.22934 0.23593 0.0
C153 C 0.70712 0.21705 0.2619 0.0
C154 C 0.72118 0.22001 0.28919 0.0
C155 C 0.73947 0.23536 0.2907 0.0
C156 C 0.75454 0.23803 0.31739 0.0
C157 C 0.77304 0.25244 0.31814 0.0
C158 C 0.77704 0.26492 0.29238 0.0
C159 C 0.79639 0.27878 0.29236 0.0
C160 C 0.79959 0.29139 0.26663 0.0
C161 C 0.78424 0.29007 0.24043 0.0
C162 C 0.76513 0.2758 0.23964 0.0
C163 C 0.7497 0.2736 0.21326 0.0
C164 C 0.73156 0.25872 0.21218 0.0
C165 C 0.72816 0.24544 0.23741 0.0
C166 C 0.74294 0.24812 0.26469 0.0
C167 C 0.76158 0.26314 0.2657 0.0
C168 C 0.87893 0.24172 0.40475 0.0
C169 C 0.88625 0.26322 0.38988 0.0
O170 O 0.65542 0.20295 0.1282 0.0
O171 O 0.79339 0.33256 0.12886 0.0
O172 O 0.86843 0.27825 0.38674 0.0
O173 O 0.71339 0.17243 0.39731 0.0
H174 H 0.63618 0.18388 0.15451 0.0
H175 H 0.66085 0.15852 0.12694 0.0
H176 H 0.64836 0.16695 0.09 0.0
H177 H 0.63162 0.15211 0.11558 0.0
H178 H 0.64239 0.22892 0.17361 0.0
H179 H 0.69791 0.19354 0.1381 0.0
H180 H 0.66158 0.23565 0.24826 0.0
H181 H 0.6468 0.25232 0.21937 0.0
H182 H 0.67509 0.25992 0.23487 0.0
H183 H 0.73228 0.18829 0.16832 0.0
H184 H 0.73295 0.19415 0.2095 0.0
H185 H 0.74109 0.2155 0.18466 0.0
H186 H 0.74668 0.16223 0.39913 0.0
H187 H 0.75268 0.166 0.45601 0.0
H188 H 0.72418 0.17626 0.45794 0.0
H189 H 0.74417 0.19189 0.43841 0.0
H190 H 0.73412 0.15712 0.34846 0.0
H191 H 0.69222 0.2091 0.38391 0.0
H192 H 0.73142 0.1741 0.27162 0.0
H193 H 0.74822 0.15818 0.29961 0.0
H194 H 0.75625 0.18649 0.29164 0.0
H195 H 0.6804 0.24032 0.35473 0.0
H196 H 0.68093 0.23682 0.31327 0.0
H197 H 0.70401 0.25056 0.33573 0.0
H198 H 0.89183 0.2585 0.3667 0.0
H199 H 0.86119 0.24731 0.33928 0.0
H200 H 0.83659 0.30771 0.38264 0.0
H201 H 0.81448 0.23253 0.2928 0.0
H202 H 0.84479 0.23137 0.29316 0.0
H203 H 0.8288 0.25034 0.26849 0.0
H204 H 0.80284 0.32521 0.36353 0.0
H205 H 0.78248 0.30656 0.34233 0.0
H206 H 0.80002 0.32409 0.32178 0.0
H207 H 0.75945 0.33997 0.12482 0.0
H208 H 0.75665 0.34012 0.0677 0.0
H209 H 0.76605 0.31369 0.08297 0.0
H210 H 0.78605 0.33214 0.06794 0.0
H211 H 0.81368 0.29599 0.14502 0.0
H212 H 0.77354 0.35073 0.17668 0.0
H213 H 0.80043 0.25732 0.19784 0.0
H214 H 0.82493 0.27109 0.21674 0.0
H215 H 0.82334 0.26498 0.17556 0.0
H216 H 0.76083 0.35293 0.22662 0.0
H217 H 0.77573 0.33613 0.25544 0.0
H218 H 0.75025 0.32558 0.23487 0.0
H219 H 0.69362 0.20467 0.26065 0.0
H220 H 0.75242 0.22875 0.33786 0.0
H221 H 0.78424 0.25361 0.33915 0.0
H222 H 0.8146 0.30177 0.26658 0.0
H223 H 0.75161 0.28314 0.19296 0.0
H224 H 0.72035 0.25758 0.1912 0.0
H225 H 0.8934 0.22995 0.40777 0.0
H226 H 0.87253 0.24564 0.42764 0.0
H227 H 0.86527 0.23297 0.38987 0.0
C228 C 0.76414 0.89419 0.3589 0.0
C229 C 0.73857 0.89825 0.35749 0.0
C230 C 0.72413 0.85962 0.34561 0.0
C231 C 0.71485 0.84094 0.35847 0.0
C232 C 0.71175 0.82038 0.34152 0.0
C233 C 0.71816 0.81853 0.31092 0.0
C234 C 0.72717 0.83746 0.29751 0.0
C235 C 0.72996 0.85786 0.31491 0.0
C236 C 0.70187 0.80058 0.35638 0.0
C237 C 0.73397 0.83609 0.26479 0.0
C238 C 0.58324 0.80718 0.21415 0.0
C239 C 0.59659 0.79945 0.18693 0.0
C240 C 0.62716 0.77506 0.20497 0.0
C241 C 0.64576 0.78491 0.1929 0.0
C242 C 0.66751 0.78317 0.20786 0.0
C243 C 0.67065 0.77142 0.23556 0.0
C244 C 0.65211 0.76024 0.24665 0.0
C245 C 0.63057 0.76199 0.23091 0.0
C246 C 0.68696 0.79475 0.19482 0.0
C247 C 0.65485 0.74744 0.27597 0.0
C248 C 0.76544 0.6546 0.18447 0.0
C249 C 0.76907 0.67676 0.17581 0.0
C250 C 0.76832 0.695 0.19732 0.0
C251 C 0.76337 0.69111 0.22797 0.0
C252 C 0.75948 0.66887 0.23667 0.0
C253 C 0.76078 0.65091 0.21485 0.0
C254 C 0.77317 0.71842 0.18735 0.0
C255 C 0.75409 0.66405 0.26907 0.0
C256 C 0.85856 0.76627 0.41701 0.0
C257 C 0.86654 0.74286 0.40661 0.0
C258 C 0.84522 0.73801 0.35553 0.0
C259 C 0.84597 0.74278 0.32441 0.0
C260 C 0.82658 0.74102 0.30359 0.0
C261 C 0.80602 0.73364 0.31405 0.0
C262 C 0.80528 0.72805 0.3453 0.0
C263 C 0.82475 0.73063 0.36583 0.0
C264 C 0.82801 0.74732 0.27053 0.0
C265 C 0.78388 0.71935 0.3571 0.0
C266 C 0.71555 0.79679 0.29284 0.0
C267 C 0.6955 0.79297 0.27422 0.0
C268 C 0.6924 0.77357 0.25499 0.0
C269 C 0.70987 0.75742 0.25415 0.0
C270 C 0.7077 0.73804 0.23442 0.0
C271 C 0.72521 0.72248 0.23348 0.0
C272 C 0.74548 0.72565 0.25237 0.0
C273 C 0.76356 0.7102 0.25123 0.0
C274 C 0.78295 0.71329 0.27157 0.0
C275 C 0.78524 0.73186 0.29243 0.0
C276 C 0.76792 0.74816 0.29263 0.0
C277 C 0.77026 0.76778 0.3119 0.0
C278 C 0.75316 0.78373 0.31198 0.0
C279 C 0.73295 0.7806 0.293 0.0
C280 C 0.73016 0.76091 0.27344 0.0
C281 C 0.74783 0.74485 0.27289 0.0
C282 C 0.74387 0.6425 0.11732 0.0
C283 C 0.76709 0.63621 0.1327 0.0
O284 O 0.72725 0.87877 0.36376 0.0
O285 O 0.86456 0.74069 0.37454 0.0
O286 O 0.76632 0.63636 0.16456 0.0
O287 O 0.60578 0.77839 0.1924 0.0
H288 H 0.73252 0.90368 0.33404 0.0
H289 H 0.76834 0.88142 0.34096 0.0
H290 H 0.77052 0.88812 0.38185 0.0
H291 H 0.77311 0.91003 0.35474 0.0
H292 H 0.71025 0.84248 0.38208 0.0
H293 H 0.73679 0.87221 0.30434 0.0
H294 H 0.68652 0.79444 0.34216 0.0
H295 H 0.69734 0.80487 0.38021 0.0
H296 H 0.71422 0.78656 0.35729 0.0
H297 H 0.74114 0.85219 0.25787 0.0
H298 H 0.71905 0.83159 0.24861 0.0
H299 H 0.7467 0.8226 0.26236 0.0
H300 H 0.61008 0.81235 0.18619 0.0
H301 H 0.57388 0.82292 0.20886 0.0
H302 H 0.59509 0.81062 0.23499 0.0
H303 H 0.57122 0.79398 0.2198 0.0
H304 H 0.64323 0.7943 0.1721 0.0
H305 H 0.61611 0.75412 0.23971 0.0
H306 H 0.7019 0.78352 0.19513 0.0
H307 H 0.69176 0.81004 0.20944 0.0
H308 H 0.68258 0.79989 0.17076 0.0
H309 H 0.63903 0.73878 0.28073 0.0
H310 H 0.66002 0.75923 0.29581 0.0
H311 H 0.66842 0.73472 0.27434 0.0
H312 H 0.78002 0.64844 0.12678 0.0
H313 H 0.77273 0.68005 0.15248 0.0
H314 H 0.758 0.63379 0.22138 0.0
H315 H 0.75761 0.72872 0.18751 0.0
H316 H 0.77908 0.71835 0.16376 0.0
H317 H 0.78622 0.72673 0.20381 0.0
H318 H 0.74874 0.64631 0.27111 0.0
H319 H 0.74047 0.67539 0.2763 0.0
H320 H 0.76926 0.66739 0.28532 0.0
H321 H 0.85613 0.72979 0.41621 0.0
H322 H 0.86008 0.76827 0.44264 0.0
H323 H 0.84056 0.76866 0.40876 0.0
H324 H 0.86877 0.77956 0.40747 0.0
H325 H 0.86179 0.74837 0.31658 0.0
H326 H 0.82374 0.72662 0.38968 0.0
H327 H 0.8144 0.75939 0.26372 0.0
H328 H 0.82551 0.73205 0.25502 0.0
H329 H 0.84457 0.75499 0.26686 0.0
H330 H 0.78689 0.71269 0.3806 0.0
H331 H 0.7763 0.70578 0.34115 0.0
H332 H 0.77141 0.73319 0.35805 0.0
H333 H 0.68222 0.8055 0.27433 0.0
H334 H 0.69248 0.7348 0.21936 0.0
H335 H 0.72266 0.70788 0.2178 0.0
H336 H 0.79656 0.70116 0.27095 0.0
H337 H 0.78544 0.77112 0.32699 0.0
H338 H 0.75595 0.79853 0.32721 0.0
H339 H 0.74423 0.64252 0.0918 0.0
H340 H 0.73892 0.6596 0.12543 0.0
H341 H 0.73083 0.63032 0.12304 0.0
C342 C 0.38571 0.82311 0.14883 0.0
C343 C 0.38485 0.79845 0.13694 0.0
C344 C 0.3466 0.78736 0.14472 0.0
C345 C 0.35025 0.77144 0.16753 0.0
C346 C 0.33389 0.76756 0.18817 0.0
C347 C 0.31346 0.77981 0.18583 0.0
C348 C 0.30932 0.79513 0.16194 0.0
C349 C 0.32591 0.79851 0.1414 0.0
C350 C 0.33864 0.75075 0.21296 0.0
C351 C 0.28768 0.80841 0.15874 0.0
C352 C 0.26258 0.84718 0.4054 0.0
C353 C 0.27304 0.85771 0.37831 0.0
C354 C 0.2917 0.83279 0.34242 0.0
C355 C 0.28144 0.84065 0.31462 0.0
C356 C 0.28042 0.82707 0.28738 0.0
C357 C 0.29033 0.80545 0.28787 0.0
C358 C 0.30233 0.79828 0.31521 0.0
C359 C 0.30287 0.81213 0.34223 0.0
C360 C 0.2681 0.83552 0.25833 0.0
C361 C 0.31375 0.77563 0.31617 0.0
C362 C 0.16399 0.72511 0.31468 0.0
C363 C 0.16278 0.74222 0.29325 0.0
C364 C 0.17861 0.74344 0.27118 0.0
C365 C 0.19615 0.72737 0.27069 0.0
C366 C 0.19728 0.70998 0.292 0.0
C367 C 0.18097 0.70892 0.31348 0.0
C368 C 0.17647 0.76184 0.2482 0.0
C369 C 0.21581 0.69263 0.29219 0.0
C370 C 0.20452 0.66677 0.03277 0.0
C371 C 0.21168 0.65695 0.06423 0.0
C372 C 0.20461 0.67854 0.11146 0.0
C373 C 0.19174 0.69702 0.11997 0.0
C374 C 0.19787 0.71005 0.14702 0.0
C375 C 0.21678 0.70367 0.16677 0.0
C376 C 0.22935 0.68433 0.15887 0.0
C377 C 0.22346 0.6723 0.13086 0.0
C378 C 0.184 0.73054 0.15445 0.0
C379 C 0.24881 0.67617 0.18008 0.0
C380 C 0.29718 0.77765 0.20964 0.0
C381 C 0.30077 0.79112 0.23677 0.0
C382 C 0.28649 0.78975 0.26053 0.0
C383 C 0.2683 0.77427 0.25762 0.0
C384 C 0.25382 0.77226 0.28137 0.0
C385 C 0.23589 0.75709 0.27824 0.0
C386 C 0.23152 0.74359 0.25106 0.0
C387 C 0.21295 0.72857 0.24735 0.0
C388 C 0.20915 0.71532 0.22009 0.0
C389 C 0.22302 0.71705 0.19586 0.0
C390 C 0.2416 0.73211 0.19903 0.0
C391 C 0.25576 0.73458 0.17499 0.0
C392 C 0.27416 0.74922 0.17854 0.0
C393 C 0.27873 0.76246 0.20591 0.0
C394 C 0.26437 0.76063 0.23016 0.0
C395 C 0.24591 0.74532 0.22683 0.0
C396 C 0.15676 0.75198 0.37641 0.0
C397 C 0.13931 0.7413 0.35214 0.0
O398 O 0.36292 0.79258 0.12613 0.0
O399 O 0.19772 0.6664 0.08519 0.0
O400 O 0.14895 0.72345 0.33641 0.0
O401 O 0.29089 0.84451 0.3698 0.0
H402 H 0.39069 0.78807 0.15675 0.0
H403 H 0.37517 0.82539 0.16865 0.0
H404 H 0.37923 0.83445 0.13045 0.0
H405 H 0.40332 0.82808 0.1569 0.0
H406 H 0.3659 0.76209 0.16931 0.0
H407 H 0.32317 0.81055 0.12342 0.0
H408 H 0.33999 0.75968 0.23602 0.0
H409 H 0.35454 0.74132 0.21023 0.0
H410 H 0.32445 0.73856 0.21247 0.0
H411 H 0.28692 0.81947 0.1387 0.0
H412 H 0.28608 0.81899 0.18012 0.0
H413 H 0.27301 0.79673 0.15593 0.0
H414 H 0.2591 0.85786 0.35959 0.0
H415 H 0.24904 0.85818 0.41371 0.0
H416 H 0.27547 0.84441 0.42488 0.0
H417 H 0.255 0.8306 0.39768 0.0
H418 H 0.27397 0.85724 0.31417 0.0
H419 H 0.31126 0.80648 0.36364 0.0
H420 H 0.27967 0.83551 0.23957 0.0
H421 H 0.2614 0.85281 0.26175 0.0
H422 H 0.25381 0.82404 0.25056 0.0
H423 H 0.32449 0.77362 0.33807 0.0
H424 H 0.32435 0.77331 0.29642 0.0
H425 H 0.30073 0.76214 0.31388 0.0
H426 H 0.13355 0.75441 0.33585 0.0
H427 H 0.14929 0.7544 0.29303 0.0
H428 H 0.18166 0.69566 0.32991 0.0
H429 H 0.19124 0.77333 0.25216 0.0
H430 H 0.16086 0.77193 0.25004 0.0
H431 H 0.1764 0.75446 0.22429 0.0
H432 H 0.21524 0.68109 0.31158 0.0
H433 H 0.23253 0.70114 0.29405 0.0
H434 H 0.21424 0.68249 0.27006 0.0
H435 H 0.22955 0.66213 0.07039 0.0
H436 H 0.21758 0.6639 0.01626 0.0
H437 H 0.20241 0.6853 0.0356 0.0
H438 H 0.1882 0.65935 0.02284 0.0
H439 H 0.17705 0.70147 0.10498 0.0
H440 H 0.23311 0.65758 0.12467 0.0
H441 H 0.19513 0.74507 0.16217 0.0
H442 H 0.17351 0.72688 0.17361 0.0
H443 H 0.17257 0.73542 0.13429 0.0
H444 H 0.25368 0.65864 0.17374 0.0
H445 H 0.24445 0.67688 0.20445 0.0
H446 H 0.26369 0.68721 0.17866 0.0
H447 H 0.31477 0.80295 0.23933 0.0
H448 H 0.25618 0.78235 0.30273 0.0
H449 H 0.2254 0.75618 0.29736 0.0
H450 H 0.19477 0.70395 0.21734 0.0
H451 H 0.25285 0.72514 0.15317 0.0
H452 H 0.28461 0.75023 0.15941 0.0
H453 H 0.16337 0.73931 0.39293 0.0
H454 H 0.14907 0.76606 0.38945 0.0
H455 H 0.17113 0.75883 0.36493 0.0
C456 C 0.13436 0.67255 0.64534 0.0
C457 C 0.12962 0.69787 0.64659 0.0
C458 C 0.16542 0.71709 0.65963 0.0
C459 C 0.16104 0.73062 0.6856 0.0
C460 C 0.17858 0.73727 0.70775 0.0
C461 C 0.20091 0.73006 0.70385 0.0
C462 C 0.20549 0.71728 0.67686 0.0
C463 C 0.18764 0.71126 0.65478 0.0
C464 C 0.17314 0.75135 0.73585 0.0
C465 C 0.22902 0.70912 0.67203 0.0
C466 C 0.17896 0.65114 0.86656 0.0
C467 C 0.2023 0.64107 0.86248 0.0
C468 C 0.22404 0.67274 0.84861 0.0
C469 C 0.23497 0.66602 0.82248 0.0
C470 C 0.23949 0.68161 0.80036 0.0
C471 C 0.23253 0.70427 0.80433 0.0
C472 C 0.22179 0.7111 0.83109 0.0
C473 C 0.21808 0.69527 0.85323 0.0
C474 C 0.25123 0.67373 0.77241 0.0
C475 C 0.21348 0.73489 0.83577 0.0
C476 C 0.35308 0.79389 0.8604 0.0
C477 C 0.35502 0.77861 0.83523 0.0
C478 C 0.33832 0.77729 0.8104 0.0
C479 C 0.31912 0.79134 0.81095 0.0
C480 C 0.31743 0.8072 0.83587 0.0
C481 C 0.33465 0.80847 0.8601 0.0
C482 C 0.34116 0.76083 0.7836 0.0
C483 C 0.2973 0.82258 0.8371 0.0
C484 C 0.26468 0.86139 0.60697 0.0
C485 C 0.27067 0.87992 0.63206 0.0
C486 C 0.28693 0.8562 0.67233 0.0
C487 C 0.30233 0.83847 0.67233 0.0
C488 C 0.30102 0.82076 0.69252 0.0
C489 C 0.28432 0.82127 0.71396 0.0
C490 C 0.26907 0.83958 0.7146 0.0
C491 C 0.27038 0.85672 0.69351 0.0
C492 C 0.31756 0.80157 0.69101 0.0
C493 C 0.25167 0.84129 0.73795 0.0
C494 C 0.21873 0.73339 0.72973 0.0
C495 C 0.21873 0.71848 0.75375 0.0
C496 C 0.23462 0.72027 0.77929 0.0
C497 C 0.25134 0.7373 0.78087 0.0
C498 C 0.26792 0.73931 0.80587 0.0
C499 C 0.28406 0.75636 0.80751 0.0
C500 C 0.28436 0.77197 0.78408 0.0
C501 C 0.30078 0.78929 0.78554 0.0
C502 C 0.30022 0.80489 0.76233 0.0
C503 C 0.2839 0.80357 0.73716 0.0
C504 C 0.2677 0.78595 0.73483 0.0
C505 C 0.2514 0.7836 0.70946 0.0
C506 C 0.2353 0.76643 0.70771 0.0
C507 C 0.23502 0.75084 0.73114 0.0
C508 C 0.25142 0.75275 0.75681 0.0
C509 C 0.26785 0.77023 0.75856 0.0
C510 C 0.36429 0.77145 0.92656 0.0
C511 C 0.37848 0.77705 0.89997 0.0
O512 O 0.1485 0.70945 0.63896 0.0
O513 O 0.2885 0.87266 0.65182 0.0
O514 O 0.36888 0.79527 0.88492 0.0
O515 O 0.21873 0.65753 0.86922 0.0
H516 H 0.12573 0.70267 0.6706 0.0
H517 H 0.14876 0.66873 0.66229 0.0
H518 H 0.13872 0.66677 0.62193 0.0
H519 H 0.11936 0.66302 0.6513 0.0
H520 H 0.14388 0.73585 0.68865 0.0
H521 H 0.19082 0.7011 0.63431 0.0
H522 H 0.17436 0.74073 0.75634 0.0
H523 H 0.15587 0.75852 0.73313 0.0
H524 H 0.18553 0.76532 0.74048 0.0
H525 H 0.22972 0.6992 0.64989 0.0
H526 H 0.23522 0.69848 0.69135 0.0
H527 H 0.24067 0.72372 0.67213 0.0
H528 H 0.20271 0.63485 0.83798 0.0
H529 H 0.16558 0.63817 0.8613 0.0
H530 H 0.17557 0.66501 0.85047 0.0
H531 H 0.17808 0.65798 0.89063 0.0
H532 H 0.23977 0.64854 0.81937 0.0
H533 H 0.20968 0.70019 0.87364 0.0
H534 H 0.26487 0.68571 0.76821 0.0
H535 H 0.23891 0.67321 0.75171 0.0
H536 H 0.2586 0.65668 0.77505 0.0
H537 H 0.2037 0.73695 0.85639 0.0
H538 H 0.20262 0.73983 0.81509 0.0
H539 H 0.22807 0.74664 0.83872 0.0
H540 H 0.37801 0.76166 0.88446 0.0
H541 H 0.36969 0.76789 0.83462 0.0
H542 H 0.3335 0.82047 0.87939 0.0
H543 H 0.32846 0.74714 0.78352 0.0
H544 H 0.35823 0.75314 0.78486 0.0
H545 H 0.33823 0.76936 0.76137 0.0
H546 H 0.2977 0.83278 0.85916 0.0
H547 H 0.28145 0.81253 0.83427 0.0
H548 H 0.29691 0.83417 0.81769 0.0
H549 H 0.25564 0.88318 0.64514 0.0
H550 H 0.25011 0.86644 0.59108 0.0
H551 H 0.25991 0.84564 0.6177 0.0
H552 H 0.27937 0.85783 0.59333 0.0
H553 H 0.31513 0.83832 0.65598 0.0
H554 H 0.25886 0.8708 0.69415 0.0
H555 H 0.30859 0.78517 0.69093 0.0
H556 H 0.32979 0.80264 0.7118 0.0
H557 H 0.32715 0.80192 0.67016 0.0
H558 H 0.2428 0.85775 0.73766 0.0
H559 H 0.25978 0.83899 0.76158 0.0
H560 H 0.23891 0.82772 0.73288 0.0
H561 H 0.20596 0.70535 0.75268 0.0
H562 H 0.26856 0.72773 0.8245 0.0
H563 H 0.29628 0.75718 0.82747 0.0
H564 H 0.31274 0.81827 0.76386 0.0
H565 H 0.25088 0.79507 0.69071 0.0
H566 H 0.22305 0.76551 0.68778 0.0
H567 H 0.36257 0.78643 0.94234 0.0
H568 H 0.37195 0.75734 0.93972 0.0
H569 H 0.34707 0.76616 0.91704 0.0
C570 C 0.26239 0.40056 0.85895 0.0
C571 C 0.23678 0.40215 0.86091 0.0
C572 C 0.22477 0.36234 0.85424 0.0
C573 C 0.21686 0.34414 0.86962 0.0
C574 C 0.2131 0.32303 0.85442 0.0
C575 C 0.21768 0.32007 0.82312 0.0
C576 C 0.2255 0.33844 0.80727 0.0
C577 C 0.22878 0.35947 0.8229 0.0
C578 C 0.20434 0.30388 0.8718 0.0
C579 C 0.2304 0.33584 0.77377 0.0
C580 C 0.08628 0.32352 0.73759 0.0
C581 C 0.09696 0.31076 0.71114 0.0
C582 C 0.12317 0.28165 0.72846 0.0
C583 C 0.14185 0.28703 0.71244 0.0
C584 C 0.16387 0.2824 0.72477 0.0
C585 C 0.16717 0.27212 0.75358 0.0
C586 C 0.14826 0.26458 0.76806 0.0
C587 C 0.1264 0.2693 0.7551 0.0
C588 C 0.18362 0.28996 0.70812 0.0
C589 C 0.15115 0.2531 0.79842 0.0
C590 C 0.25698 0.14973 0.70766 0.0
C591 C 0.26501 0.17053 0.69874 0.0
C592 C 0.26499 0.18971 0.71865 0.0
C593 C 0.25706 0.18807 0.74825 0.0
C594 C 0.24933 0.16713 0.75757 0.0
C595 C 0.24952 0.14817 0.73716 0.0
C596 C 0.27392 0.21168 0.70829 0.0
C597 C 0.24102 0.1648 0.78914 0.0
C598 C 0.35998 0.27251 0.92255 0.0
C599 C 0.36625 0.24795 0.91548 0.0
C600 C 0.3437 0.23961 0.86619 0.0
C601 C 0.34257 0.24539 0.83526 0.0
C602 C 0.32252 0.2426 0.81593 0.0
C603 C 0.30331 0.23324 0.82774 0.0
C604 C 0.30454 0.22661 0.85871 0.0
C605 C 0.32466 0.22998 0.8777 0.0
C606 C 0.32176 0.24994 0.78304 0.0
C607 C 0.28452 0.21601 0.87175 0.0
C608 C 0.21412 0.29782 0.80673 0.0
C609 C 0.19364 0.29401 0.78924 0.0
C610 C 0.1895 0.27402 0.77157 0.0
C611 C 0.20637 0.25724 0.77119 0.0
C612 C 0.20317 0.23721 0.75297 0.0
C613 C 0.22016 0.22103 0.75247 0.0
C614 C 0.24082 0.22417 0.77052 0.0
C615 C 0.25832 0.20803 0.77 0.0
C616 C 0.27833 0.2114 0.78898 0.0
C617 C 0.28174 0.23083 0.80798 0.0
C618 C 0.26485 0.24756 0.80796 0.0
C619 C 0.26816 0.26775 0.82583 0.0
C620 C 0.25161 0.28427 0.82536 0.0
C621 C 0.23097 0.28108 0.80741 0.0
C622 C 0.22713 0.26076 0.78943 0.0
C623 C 0.24423 0.2441 0.78941 0.0
C624 C 0.22753 0.12934 0.64766 0.0
C625 C 0.25297 0.12966 0.65698 0.0
O626 O 0.22842 0.38213 0.87071 0.0
O627 O 0.36351 0.24328 0.88381 0.0
O628 O 0.25673 0.13075 0.68897 0.0
O629 O 0.10208 0.28892 0.71941 0.0
H630 H 0.22831 0.40583 0.83787 0.0
H631 H 0.26658 0.38716 0.84186 0.0
H632 H 0.27104 0.39664 0.88177 0.0
H633 H 0.26909 0.41675 0.85157 0.0
H634 H 0.21368 0.34656 0.89373 0.0
H635 H 0.23459 0.37342 0.81047 0.0
H636 H 0.18869 0.29685 0.8592 0.0
H637 H 0.20064 0.3092 0.89566 0.0
H638 H 0.21702 0.29016 0.8731 0.0
H639 H 0.23781 0.35134 0.76531 0.0
H640 H 0.21451 0.33178 0.75931 0.0
H641 H 0.24224 0.32165 0.7706 0.0
H642 H 0.11262 0.32037 0.70789 0.0
H643 H 0.09903 0.32584 0.75769 0.0
H644 H 0.08053 0.34042 0.73031 0.0
H645 H 0.0718 0.31417 0.74537 0.0
H646 H 0.13927 0.29557 0.6909 0.0
H647 H 0.11181 0.26469 0.76686 0.0
H648 H 0.19673 0.27664 0.70811 0.0
H649 H 0.19135 0.30516 0.72043 0.0
H650 H 0.17846 0.29415 0.68387 0.0
H651 H 0.13513 0.24546 0.80447 0.0
H652 H 0.15703 0.2656 0.81708 0.0
H653 H 0.1642 0.23977 0.79751 0.0
H654 H 0.25987 0.14469 0.64691 0.0
H655 H 0.27196 0.17195 0.67674 0.0
H656 H 0.24365 0.13203 0.74407 0.0
H657 H 0.261 0.22505 0.71014 0.0
H658 H 0.27866 0.21043 0.68408 0.0
H659 H 0.28902 0.21699 0.72367 0.0
H660 H 0.23479 0.14753 0.79252 0.0
H661 H 0.22715 0.17696 0.79247 0.0
H662 H 0.25491 0.16896 0.8072 0.0
H663 H 0.3552 0.23688 0.92755 0.0
H664 H 0.36231 0.27651 0.94784 0.0
H665 H 0.342 0.27541 0.91464 0.0
H666 H 0.37064 0.28408 0.9105 0.0
H667 H 0.35737 0.2526 0.82647 0.0
H668 H 0.32533 0.22466 0.90121 0.0
H669 H 0.30802 0.26239 0.77888 0.0
H670 H 0.3179 0.23521 0.76689 0.0
H671 H 0.33794 0.25758 0.77764 0.0
H672 H 0.28848 0.21074 0.89583 0.0
H673 H 0.27868 0.20105 0.85706 0.0
H674 H 0.27034 0.22818 0.87148 0.0
H675 H 0.18078 0.30699 0.78903 0.0
H676 H 0.18756 0.23397 0.73875 0.0
H677 H 0.2169 0.20598 0.73786 0.0
H678 H 0.2916 0.19888 0.78858 0.0
H679 H 0.28368 0.27111 0.84017 0.0
H680 H 0.25519 0.29954 0.83937 0.0
H681 H 0.2243 0.12783 0.62209 0.0
H682 H 0.21983 0.14527 0.65592 0.0
H683 H 0.21921 0.11507 0.65797 0.0
C684 C 0.8474 0.3258 0.60962 0.0
C685 C 0.8625 0.31248 0.63267 0.0
C686 C 0.83951 0.2895 0.6621 0.0
C687 C 0.8484 0.2785 0.68816 0.0
C688 C 0.8353 0.27541 0.71309 0.0
C689 C 0.81286 0.2835 0.71159 0.0
C690 C 0.80377 0.29436 0.68494 0.0
C691 C 0.81719 0.29701 0.66032 0.0
C692 C 0.84533 0.26345 0.74092 0.0
C693 C 0.77988 0.30312 0.68244 0.0
C694 C 0.7525 0.38795 0.8704 0.0
C695 C 0.77776 0.39197 0.86782 0.0
C696 C 0.78825 0.35405 0.84983 0.0
C697 C 0.77409 0.35394 0.82215 0.0
C698 C 0.773 0.3352 0.8014 0.0
C699 C 0.78654 0.31618 0.80811 0.0
C700 C 0.80092 0.31618 0.83576 0.0
C701 C 0.8015 0.33512 0.85635 0.0
C702 C 0.75742 0.3358 0.77212 0.0
C703 C 0.81562 0.29619 0.84347 0.0
C704 C 0.67142 0.22011 0.8504 0.0
C705 C 0.66739 0.23619 0.82808 0.0
C706 C 0.68299 0.23972 0.80621 0.0
C707 C 0.70301 0.22678 0.80689 0.0
C708 C 0.70718 0.21063 0.82969 0.0
C709 C 0.6911 0.2072 0.85085 0.0
C710 C 0.6778 0.25678 0.78188 0.0
C711 C 0.72825 0.19643 0.83107 0.0
C712 C 0.67507 0.15265 0.61021 0.0
C713 C 0.70018 0.1464 0.61066 0.0
C714 C 0.71618 0.16251 0.66133 0.0
C715 C 0.71226 0.18532 0.65547 0.0
C716 C 0.71712 0.20214 0.67881 0.0
C717 C 0.7273 0.19613 0.70801 0.0
C718 C 0.7325 0.17329 0.71321 0.0
C719 C 0.7265 0.1568 0.68996 0.0
C720 C 0.71079 0.2262 0.67241 0.0
C721 C 0.74377 0.16604 0.74361 0.0
C722 C 0.79875 0.2806 0.73772 0.0
C723 C 0.80023 0.29703 0.76179 0.0
C724 C 0.78587 0.29662 0.78562 0.0
C725 C 0.76969 0.27918 0.78576 0.0
C726 C 0.75496 0.27822 0.80937 0.0
C727 C 0.7385 0.2615 0.80862 0.0
C728 C 0.73592 0.24533 0.78399 0.0
C729 C 0.71875 0.22879 0.78239 0.0
C730 C 0.71637 0.21328 0.75725 0.0
C731 C 0.73108 0.21334 0.73379 0.0
C732 C 0.74873 0.22941 0.73536 0.0
C733 C 0.7643 0.22957 0.71276 0.0
C734 C 0.78092 0.24613 0.71371 0.0
C735 C 0.78272 0.26302 0.73746 0.0
C736 C 0.76792 0.26252 0.76133 0.0
C737 C 0.75088 0.2457 0.76027 0.0
C738 C 0.66935 0.20337 0.91921 0.0
C739 C 0.65603 0.22101 0.90048 0.0
O740 O 0.85241 0.29224 0.63834 0.0
O741 O 0.70985 0.14537 0.64072 0.0
O742 O 0.65507 0.21552 0.86908 0.0
O743 O 0.78947 0.37188 0.87075 0.0
H744 H 0.86513 0.32291 0.65465 0.0
H745 H 0.83227 0.3321 0.62051 0.0
H746 H 0.84187 0.31513 0.58875 0.0
H747 H 0.85661 0.34072 0.60244 0.0
H748 H 0.86563 0.27247 0.68896 0.0
H749 H 0.8102 0.30479 0.63957 0.0
H750 H 0.84577 0.27504 0.76169 0.0
H751 H 0.86272 0.25737 0.73801 0.0
H752 H 0.83453 0.24885 0.74521 0.0
H753 H 0.77586 0.31241 0.66101 0.0
H754 H 0.7772 0.31451 0.70268 0.0
H755 H 0.76785 0.28885 0.68256 0.0
H756 H 0.78014 0.39848 0.84468 0.0
H757 H 0.74273 0.40363 0.86628 0.0
H758 H 0.74273 0.40363 0.86628 0.0
H759 H 0.74932 0.3815 0.89328 0.0
H760 H 0.76376 0.36838 0.81642 0.0
H761 H 0.8124 0.33525 0.87766 0.0
H762 H 0.74571 0.32117 0.77057 0.0
H763 H 0.76751 0.33451 0.75177 0.0
H764 H 0.74729 0.35148 0.77087 0.0
H765 H 0.82574 0.29868 0.86605 0.0
H766 H 0.82728 0.29305 0.82509 0.0
H767 H 0.80494 0.28092 0.84414 0.0
H768 H 0.66459 0.23765 0.90508 0.0
H769 H 0.65179 0.24565 0.82751 0.0
H770 H 0.69358 0.19389 0.867 0.0
H771 H 0.6912 0.26989 0.78374 0.0
H772 H 0.66125 0.2651 0.7841 0.0
H773 H 0.67769 0.24844 0.75851 0.0
H774 H 0.73056 0.1871 0.85274 0.0
H775 H 0.74338 0.20711 0.8293 0.0
H776 H 0.72714 0.18403 0.81119 0.0
H777 H 0.70917 0.15927 0.59841 0.0
H778 H 0.66729 0.15223 0.58601 0.0
H779 H 0.67282 0.16983 0.62032 0.0
H780 H 0.66582 0.14074 0.62366 0.0
H781 H 0.70494 0.19013 0.63309 0.0
H782 H 0.72969 0.13919 0.69418 0.0
H783 H 0.72628 0.2361 0.66982 0.0
H784 H 0.70228 0.23405 0.69194 0.0
H785 H 0.69943 0.22742 0.65088 0.0
H786 H 0.75175 0.14922 0.74125 0.0
H787 H 0.73085 0.16497 0.76049 0.0
H788 H 0.75684 0.17839 0.75309 0.0
H789 H 0.81217 0.31081 0.76135 0.0
H790 H 0.75597 0.29044 0.82864 0.0
H791 H 0.72759 0.26161 0.82735 0.0
H792 H 0.70293 0.20083 0.75605 0.0
H793 H 0.76365 0.21705 0.69387 0.0
H794 H 0.79223 0.24563 0.69543 0.0
H795 H 0.66352 0.1861 0.91162 0.0
H796 H 0.66724 0.20602 0.94429 0.0
H797 H 0.68765 0.20495 0.91647 0.0
C798 C 0.75546 0.61979 0.84069 0.0
C799 C 0.78062 0.62139 0.85226 0.0
C800 C 0.7892 0.66113 0.84347 0.0
C801 C 0.79471 0.68191 0.85833 0.0
C802 C 0.79662 0.70134 0.84153 0.0
C803 C 0.79205 0.70003 0.80897 0.0
C804 C 0.78704 0.6789 0.79363 0.0
C805 C 0.78617 0.65958 0.811 0.0
C806 C 0.80318 0.72326 0.85876 0.0
C807 C 0.78219 0.67672 0.75895 0.0
C808 C 0.86625 0.7683 0.62643 0.0
C809 C 0.87507 0.74572 0.63826 0.0
C810 C 0.86139 0.74583 0.69023 0.0
C811 C 0.83875 0.74053 0.68042 0.0
C812 C 0.82233 0.73958 0.70169 0.0
C813 C 0.82839 0.74467 0.73342 0.0
C814 C 0.85107 0.75015 0.74344 0.0
C815 C 0.86731 0.75043 0.72171 0.0
C816 C 0.79845 0.73296 0.69013 0.0
C817 C 0.85813 0.75578 0.77704 0.0
C818 C 0.75307 0.87025 0.71575 0.0
C819 C 0.73846 0.85315 0.70281 0.0
C820 C 0.73447 0.83401 0.71932 0.0
C821 C 0.74488 0.83226 0.74961 0.0
C822 C 0.75802 0.85034 0.76364 0.0
C823 C 0.76191 0.86921 0.74646 0.0
C824 C 0.71989 0.81526 0.704 0.0
C825 C 0.76878 0.84926 0.79625 0.0
C826 C 0.63125 0.74049 0.89753 0.0
C827 C 0.65239 0.75647 0.89376 0.0
C828 C 0.66697 0.77497 0.85092 0.0
C829 C 0.66389 0.77424 0.81867 0.0
C830 C 0.68203 0.7782 0.80082 0.0
C831 C 0.70353 0.78382 0.81575 0.0
C832 C 0.70631 0.7861 0.84841 0.0
C833 C 0.68813 0.78128 0.86562 0.0
C834 C 0.67833 0.77582 0.76605 0.0
C835 C 0.72861 0.79323 0.86523 0.0
C836 C 0.79198 0.72082 0.79115 0.0
C837 C 0.80986 0.72435 0.77295 0.0
C838 C 0.81093 0.7437 0.75592 0.0
C839 C 0.7944 0.76066 0.75846 0.0
C840 C 0.79575 0.78097 0.74331 0.0
C841 C 0.77924 0.79741 0.74558 0.0
C842 C 0.76066 0.79412 0.76297 0.0
C843 C 0.74377 0.81072 0.76538 0.0
C844 C 0.72542 0.80688 0.78258 0.0
C845 C 0.72328 0.78666 0.79741 0.0
C846 C 0.74002 0.76983 0.79526 0.0
C847 C 0.73833 0.74916 0.80951 0.0
C848 C 0.75524 0.73304 0.8081 0.0
C849 C 0.77441 0.73685 0.79211 0.0
C850 C 0.77596 0.7571 0.77637 0.0
C851 C 0.75888 0.77371 0.77825 0.0
C852 C 0.7896 0.88777 0.66627 0.0
C853 C 0.76406 0.8859 0.66836 0.0
O854 O 0.78668 0.6433 0.86149 0.0
O855 O 0.64958 0.76881 0.86726 0.0
O856 O 0.7593 0.88765 0.69906 0.0
O857 O 0.87793 0.74668 0.67034 0.0
H858 H 0.79095 0.61549 0.83332 0.0
H859 H 0.75173 0.62942 0.81959 0.0
H860 H 0.74465 0.62655 0.85853 0.0
H861 H 0.75068 0.60196 0.83481 0.0
H862 H 0.7974 0.68289 0.88334 0.0
H863 H 0.78275 0.64349 0.79899 0.0
H864 H 0.81516 0.73291 0.84606 0.0
H865 H 0.81105 0.7205 0.88241 0.0
H866 H 0.78788 0.73371 0.86094 0.0
H867 H 0.77527 0.65988 0.75113 0.0
H868 H 0.79804 0.67935 0.74777 0.0
H869 H 0.76998 0.68978 0.75084 0.0
H870 H 0.86267 0.7323 0.63025 0.0
H871 H 0.86423 0.76764 0.60074 0.0
H872 H 0.87807 0.7822 0.63455 0.0
H873 H 0.84953 0.77214 0.63496 0.0
H874 H 0.83359 0.73697 0.65629 0.0
H875 H 0.88474 0.75451 0.7292 0.0
H876 H 0.78727 0.74782 0.6919 0.0
H877 H 0.79207 0.71978 0.70458 0.0
H878 H 0.79716 0.72653 0.66566 0.0
H879 H 0.87585 0.7619 0.78067 0.0
H880 H 0.85649 0.74055 0.79063 0.0
H881 H 0.84682 0.76886 0.78619 0.0
H882 H 0.75943 0.86899 0.65779 0.0
H883 H 0.73046 0.85453 0.67964 0.0
H884 H 0.7727 0.88278 0.75648 0.0
H885 H 0.73006 0.79967 0.70207 0.0
H886 H 0.71261 0.81942 0.68053 0.0
H887 H 0.70588 0.81165 0.71843 0.0
H888 H 0.77643 0.86561 0.80496 0.0
H889 H 0.78219 0.83624 0.79701 0.0
H890 H 0.75604 0.84425 0.81198 0.0
H891 H 0.66761 0.74552 0.89231 0.0
H892 H 0.62628 0.73487 0.95676 0.0
H893 H 0.63487 0.72605 0.88105 0.0
H894 H 0.61684 0.748 0.88289 0.0
H895 H 0.64746 0.76957 0.80751 0.0
H896 H 0.69057 0.78239 0.89059 0.0
H897 H 0.69117 0.76438 0.75684 0.0
H898 H 0.68037 0.79252 0.75609 0.0
H899 H 0.66125 0.7692 0.75813 0.0
H900 H 0.72686 0.79823 0.88984 0.0
H901 H 0.73595 0.80757 0.85384 0.0
H902 H 0.74068 0.77902 0.86451 0.0
H903 H 0.82286 0.71163 0.77145 0.0
H904 H 0.80969 0.78444 0.72969 0.0
H905 H 0.78124 0.81271 0.73343 0.0
H906 H 0.71264 0.81979 0.78442 0.0
H907 H 0.72397 0.74523 0.8221 0.0
H908 H 0.75303 0.71751 0.81964 0.0
H909 H 0.79349 0.88805 0.64171 0.0
H910 H 0.79809 0.87293 0.67673 0.0
H911 H 0.79678 0.90307 0.67892 0.0
C912 C 0.03722 0.32617 0.57314 0.0
C913 C 0.04405 0.34819 0.58087 0.0
C914 C 0.0386 0.36048 0.55527 0.0
C915 C 0.02853 0.34546 0.53348 0.0
N916 N 0.02712 0.32457 0.544 0.0
Co917 Co 0.01279 0.29813 0.5209 0.0
N918 N 0.99613 0.31743 0.49079 0.0
C919 C 0.00119 0.33885 0.48522 0.0
C920 C 0.98629 0.34782 0.46312 0.0
C921 C 0.97102 0.33092 0.45431 0.0
C922 C 0.97748 0.31258 0.47165 0.0
N923 N 0.99846 0.27172 0.4979 0.0
C924 C 0.97946 0.2707 0.4785 0.0
C925 C 0.97493 0.24868 0.46777 0.0
C926 C 0.99201 0.23566 0.48063 0.0
C927 C 0.00587 0.25035 0.4986 0.0
N928 N 0.02962 0.27864 0.55054 0.0
C929 C 0.03426 0.25668 0.54551 0.0
C930 C 0.0475 0.24784 0.5694 0.0
C931 C 0.05156 0.26538 0.59063 0.0
C932 C 0.04039 0.28401 0.57851 0.0
N933 N 0.98768 0.2999 0.54693 0.0
C934 C 0.94893 0.30196 0.57898 0.0
C935 C 0.96005 0.28147 0.57451 0.0
C936 C 0.97945 0.28082 0.55849 0.0
C937 C 0.95811 0.32151 0.5682 0.0
C938 C 0.97746 0.32012 0.55224 0.0
N939 N 0.03789 0.29628 0.49471 0.0
C940 C 0.05169 0.28663 0.44547 0.0
C941 C 0.07403 0.2882 0.4586 0.0
C942 C 0.07785 0.29537 0.48973 0.0
C943 C 0.0596 0.29904 0.50744 0.0
C944 C 0.03391 0.291 0.4638 0.0
H945 H 0.06312 0.30352 0.53165 0.0
H946 H 0.0169 0.2893 0.45318 0.0
H947 H 0.98751 0.26479 0.55479 0.0
H948 H 0.98381 0.33535 0.54348 0.0
C949 C 0.01684 0.35102 0.50541 0.0
C950 C 0.04207 0.30686 0.59278 0.0
C951 C 0.96648 0.29045 0.46837 0.0
C952 C 0.02323 0.24434 0.52049 0.0
H953 H 0.05217 0.35475 0.60261 0.0
H954 H 0.04086 0.37842 0.55329 0.0
H955 H 0.98587 0.36491 0.45545 0.0
H956 H 0.95674 0.33198 0.43724 0.0
H957 H 0.96083 0.24259 0.45229 0.0
H958 H 0.99353 0.21754 0.47826 0.0
H959 H 0.05307 0.23059 0.57152 0.0
H960 H 0.0619 0.26457 0.61228 0.0
H961 H 0.95368 0.26606 0.58305 0.0
H962 H 0.94997 0.33767 0.5712 0.0
H963 H 0.0479 0.28128 0.42145 0.0
H964 H 0.09481 0.29771 0.50057 0.0
C965 C 0.68797 0.04249 0.54327 0.0
C966 C 0.666 0.0477 0.54945 0.0
C967 C 0.65274 0.02996 0.53752 0.0
C968 C 0.66728 0.01503 0.52462 0.0
N969 N 0.68879 0.02234 0.52778 0.0
Co970 Co 0.71509 0.00714 0.51114 0.0
N971 N 0.69537 0.98851 0.48107 0.0
C972 C 0.67315 0.98474 0.48262 0.0
C973 C 0.664 0.97053 0.45915 0.0
C974 C 0.68162 0.96477 0.44203 0.0
C975 C 0.70063 0.97583 0.45609 0.0
N976 N 0.74161 0.9921 0.49469 0.0
C977 C 0.74303 0.97935 0.46838 0.0
C978 C 0.76494 0.97161 0.46624 0.0
C979 C 0.77741 0.97937 0.49252 0.0
C980 C 0.76257 0.99148 0.50915 0.0
N981 N 0.73463 0.02562 0.54149 0.0
C982 C 0.75607 0.02115 0.55171 0.0
C983 C 0.76517 0.03741 0.57254 0.0
C984 C 0.74834 0.05302 0.57544 0.0
C985 C 0.72993 0.04534 0.55609 0.0
N986 N 0.71396 0.9839 0.54143 0.0
C987 C 0.72173 0.95211 0.58668 0.0
C988 C 0.72264 0.94604 0.55529 0.0
C989 C 0.71833 0.96204 0.53309 0.0
C990 C 0.71464 0.97395 0.59457 0.0
C991 C 0.71111 0.98967 0.57165 0.0
N992 N 0.71652 0.03054 0.48128 0.0
C993 C 0.73775 0.06053 0.46226 0.0
C994 C 0.71798 0.06962 0.44801 0.0
C995 C 0.69769 0.05769 0.44874 0.0
C996 C 0.69731 0.03819 0.46561 0.0
C997 C 0.73668 0.04093 0.47846 0.0
H998 H 0.68134 0.02989 0.46712 0.0
H999 H 0.75205 0.0349 0.49019 0.0
H1000 H 0.71986 0.95697 0.50933 0.0
H1001 H 0.70713 0.00675 0.57859 0.0
C1002 C 0.66101 0.99699 0.50393 0.0
C1003 C 0.70791 0.05639 0.553 0.0
C1004 C 0.72364 0.9717 0.4473 0.0
C1005 C 0.76822 0.00462 0.53629 0.0
H1006 H 0.66007 0.0628 0.5609 0.0
H1007 H 0.63453 0.02877 0.53669 0.0
H1008 H 0.64655 0.9653 0.45467 0.0
H1009 H 0.68069 0.95331 0.42193 0.0
H1010 H 0.7711 0.96089 0.44805 0.0
H1011 H 0.79524 0.97677 0.49853 0.0
H1012 H 0.78233 0.03849 0.58303 0.0
H1013 H 0.74952 0.06833 0.58989 0.0
H1014 H 0.72785 0.92936 0.54785 0.0
H1015 H 0.71259 0.97916 0.61834 0.0
H1016 H 0.75382 0.06913 0.46235 0.0
H1017 H 0.68213 0.0637 0.43718 0.0
C1018 C 0.04608 0.73682 0.55042 0.0
C1019 C 0.05907 0.7555 0.56077 0.0
C1020 C 0.05346 0.77225 0.54085 0.0
C1021 C 0.03737 0.76296 0.51957 0.0
N1022 N 0.03224 0.7415 0.52514 0.0
Co1023 Co 0.01061 0.72177 0.49918 0.0
N1024 N 0.99656 0.74793 0.47817 0.0
C1025 C 0.00564 0.76858 0.4772 0.0
C1026 C 0.9915 0.7833 0.46157 0.0
C1027 C 0.97237 0.77109 0.45213 0.0
C1028 C 0.97602 0.74952 0.46245 0.0
N1029 N 0.98905 0.70225 0.47304 0.0
C1030 C 0.96918 0.70772 0.45778 0.0
C1031 C 0.95898 0.68899 0.44238 0.0
C1032 C 0.97308 0.67114 0.44845 0.0
C1033 C 0.99104 0.67999 0.46708 0.0
N1034 N 0.02462 0.69546 0.51992 0.0
C1035 C 0.02257 0.67381 0.50952 0.0
C1036 C 0.03459 0.65924 0.52823 0.0
C1037 C 0.04516 0.67257 0.55158 0.0
C1038 C 0.039 0.69464 0.54576 0.0
N1039 N 0.98903 0.72461 0.53064 0.0
C1040 C 0.9559 0.72923 0.57266 0.0
C1041 C 0.96155 0.70797 0.56042 0.0
C1042 C 0.9781 0.70603 0.53947 0.0
C1043 C 0.96759 0.74806 0.56385 0.0
C1044 C 0.98418 0.74537 0.54309 0.0
N1045 N 0.03225 0.71905 0.46771 0.0
C1046 C 0.07082 0.71566 0.45541 0.0
C1047 C 0.06447 0.7194 0.42434 0.0
C1048 C 0.0415 0.72225 0.41517 0.0
C1049 C 0.02562 0.72185 0.43719 0.0
C1050 C 0.05452 0.71545 0.47655 0.0
H1051 H 0.00808 0.72442 0.42968 0.0
H1052 H 0.06011 0.71313 0.50029 0.0
H1053 H 0.98171 0.68953 0.52993 0.0
H1054 H 0.99265 0.7602 0.53647 0.0
C1055 C 0.02501 0.77451 0.49636 0.0
C1056 C 0.04961 0.71433 0.56268 0.0
C1057 C 0.96024 0.73062 0.45632 0.0
C1058 C 0.00732 0.66761 0.48422 0.0
H1059 H 0.07178 0.75668 0.58015 0.0
H1060 H 0.06013 0.78923 0.54199 0.0
H1061 H 0.99422 0.80108 0.45883 0.0
H1062 H 0.95744 0.77746 0.43945 0.0
H1063 H 0.94301 0.68832 0.42841 0.0
H1064 H 0.97002 0.65365 0.44141 0.0
H1065 H 0.03538 0.64109 0.52546 0.0
H1066 H 0.05664 0.66679 0.57024 0.0
H1067 H 0.95297 0.69294 0.5666 0.0
H1068 H 0.96343 0.76489 0.57198 0.0
H1069 H 0.08841 0.7139 0.46372 0.0
H1070 H 0.03591 0.72519 0.3913 0.0
C1071 C 0.31144 0.95857 0.54095 0.0
C1072 C 0.33086 0.9457 0.54458 0.0
C1073 C 0.34849 0.95945 0.53952 0.0
C1074 C 0.3387 0.97938 0.53102 0.0
N1075 N 0.31593 0.97874 0.52919 0.0
Co1076 Co 0.2947 0.0006 0.5081 0.0
N1077 N 0.32008 0.02126 0.50048 0.0
C1078 C 0.34239 0.01745 0.50675 0.0
C1079 C 0.35587 0.03454 0.49859 0.0
C1080 C 0.34129 0.05019 0.48633 0.0
C1081 C 0.31965 0.04172 0.48781 0.0
N1082 N 0.27319 0.02276 0.48835 0.0
C1083 C 0.27707 0.04346 0.47793 0.0
C1084 C 0.2571 0.05396 0.46778 0.0
C1085 C 0.24001 0.03927 0.47168 0.0
C1086 C 0.25044 0.0208 0.4842 0.0
N1087 N 0.26956 0.97943 0.51449 0.0
C1088 C 0.24819 0.9805 0.50146 0.0
C1089 C 0.23654 0.96066 0.50201 0.0
C1090 C 0.25127 0.94637 0.51711 0.0
C1091 C 0.27055 0.95884 0.52671 0.0
N1092 N 0.29125 0.01635 0.54823 0.0
C1093 C 0.28457 0.04812 0.59583 0.0
C1094 C 0.26643 0.03576 0.58137 0.0
C1095 C 0.27012 0.01996 0.55774 0.0
C1096 C 0.3064 0.04249 0.58863 0.0
C1097 C 0.30938 0.02618 0.56518 0.0
N1098 N 0.29782 0.98461 0.46739 0.0
C1099 C 0.27808 0.96327 0.42502 0.0
C1100 C 0.29666 0.94909 0.42273 0.0
C1101 C 0.31695 0.95548 0.43939 0.0
C1102 C 0.31723 0.9735 0.46112 0.0
C1103 C 0.27938 0.98137 0.44654 0.0
H1104 H 0.33308 0.97746 0.47327 0.0
H1105 H 0.26475 0.9916 0.447 0.0
H1106 H 0.25552 0.01182 0.54621 0.0
H1107 H 0.32633 0.02253 0.55998 0.0
C1108 C 0.35009 0.9979 0.52094 0.0
C1109 C 0.28897 0.95162 0.54889 0.0
C1110 C 0.29929 0.05358 0.47643 0.0
C1111 C 0.23967 0.00052 0.48937 0.0
H1112 H 0.33218 0.92824 0.5506 0.0
H1113 H 0.36623 0.95514 0.5407 0.0
H1114 H 0.37412 0.03553 0.50131 0.0
H1115 H 0.34607 0.06601 0.47724 0.0
H1116 H 0.25514 0.0704 0.4581 0.0
H1117 H 0.22217 0.04158 0.46548 0.0
H1118 H 0.21945 0.95699 0.49249 0.0
H1119 H 0.24789 0.92894 0.52134 0.0
H1120 H 0.24928 0.03944 0.58663 0.0
H1121 H 0.32093 0.05134 0.60001 0.0
H1122 H 0.26202 0.95961 0.41215 0.0
H1123 H 0.33222 0.94584 0.43702 0.0
C1124 C 0.53732 0.81736 0.05137 0.0
C1125 C 0.54332 0.83878 0.06334 0.0
C1126 C 0.53966 0.85318 0.03956 0.0
C1127 C 0.53147 0.8399 0.01449 0.0
N1128 N 0.52946 0.81811 0.02126 0.0
Co1129 Co 0.51793 0.79343 0.99217 0.0
N1130 N 0.50397 0.81497 0.96295 0.0
C1131 C 0.50913 0.83688 0.96147 0.0
C1132 C 0.49511 0.84746 0.93975 0.0
C1133 C 0.48024 0.83113 0.92716 0.0
C1134 C 0.48611 0.81156 0.94198 0.0
N1135 N 0.50604 0.769 0.96312 0.0
C1136 C 0.488 0.76955 0.94216 0.0
C1137 C 0.48416 0.7487 0.92718 0.0
C1138 C 0.50061 0.73461 0.93958 0.0
C1139 C 0.51343 0.74768 0.96136 0.0
N1140 N 0.53212 0.77158 0.02088 0.0
C1141 C 0.537 0.74998 0.01341 0.0
C1142 C 0.54782 0.73911 0.03764 0.0
C1143 C 0.55011 0.75492 0.06162 0.0
C1144 C 0.54049 0.77468 0.05068 0.0
N1145 N 0.4902 0.7926 0.01318 0.0
C1146 C 0.45224 0.79167 0.04686 0.0
C1147 C 0.46329 0.77173 0.03905 0.0
C1148 C 0.48211 0.77253 0.02196 0.0
C1149 C 0.46016 0.81203 0.03678 0.0
C1150 C 0.4792 0.81214 0.02007 0.0
N1151 N 0.54596 0.79414 0.97151 0.0
C1152 C 0.56651 0.78763 0.92641 0.0
C1153 C 0.58693 0.7894 0.94491 0.0
C1154 C 0.58651 0.79459 0.97643 0.0
C1155 C 0.56598 0.7967 0.98926 0.0
C1156 C 0.54608 0.79047 0.94017 0.0
H1157 H 0.5665 0.79939 0.0139 0.0
H1158 H 0.5304 0.78883 0.92575 0.0
H1159 H 0.4904 0.75694 0.01636 0.0
H1160 H 0.48531 0.8281 0.01331 0.0
C1161 C 0.52254 0.84764 0.98586 0.0
C1162 C 0.54202 0.79652 0.06792 0.0
C1163 C 0.47483 0.78983 0.93603 0.0
C1164 C 0.52853 0.73978 0.98501 0.0
H1165 H 0.55018 0.84344 0.0866 0.0
H1166 H 0.54217 0.87124 0.04067 0.0
H1167 H 0.4946 0.86523 0.93527 0.0
H1168 H 0.46641 0.83341 0.90972 0.0
H1169 H 0.47076 0.74416 0.90959 0.0
H1170 H 0.50208 0.71669 0.9347 0.0
H1171 H 0.55303 0.72167 0.03806 0.0
H1172 H 0.55841 0.75231 0.08433 0.0
H1173 H 0.45759 0.75567 0.04648 0.0
H1174 H 0.45221 0.82783 0.04276 0.0
H1175 H 0.56633 0.78348 0.90188 0.0
H1176 H 0.60203 0.79583 0.99143 0.0
C1177 C 0.19506 0.54335 0.05442 0.0
C1178 C 0.17384 0.54804 0.06405 0.0
C1179 C 0.16067 0.52939 0.0557 0.0
C1180 C 0.17447 0.51453 0.04119 0.0
N1181 N 0.19544 0.52275 0.04013 0.0
Co1182 Co 0.22018 0.50869 0.01855 0.0
N1183 N 0.19874 0.4892 0.99225 0.0
C1184 C 0.17742 0.48433 0.99809 0.0
C1185 C 0.16673 0.47001 0.97589 0.0
C1186 C 0.18242 0.4654 0.9551 0.0
C1187 C 0.2019 0.47721 0.96582 0.0
N1188 N 0.24514 0.49472 0.99739 0.0
C1189 C 0.24447 0.48225 0.9706 0.0
C1190 C 0.26603 0.47536 0.96439 0.0
C1191 C 0.28052 0.48349 0.98854 0.0
C1192 C 0.26712 0.49495 0.00806 0.0
N1193 N 0.2414 0.5282 0.04495 0.0
C1194 C 0.26363 0.52486 0.05133 0.0
C1195 C 0.27368 0.54204 0.06982 0.0
C1196 C 0.25662 0.55699 0.07516 0.0
C1197 C 0.23718 0.54799 0.05954 0.0
N1198 N 0.22333 0.48546 0.0492 0.0
C1199 C 0.23447 0.45276 0.09241 0.0
C1200 C 0.23075 0.47517 0.10208 0.0
C1201 C 0.22495 0.49121 0.08012 0.0
C1202 C 0.23077 0.44684 0.06086 0.0
C1203 C 0.22554 0.46341 0.03969 0.0
N1204 N 0.21727 0.53186 0.9879 0.0
C1205 C 0.23434 0.56014 0.95927 0.0
C1206 C 0.21312 0.56628 0.94593 0.0
C1207 C 0.19402 0.55478 0.95378 0.0
C1208 C 0.19645 0.53767 0.97486 0.0
C1209 C 0.23607 0.54277 0.97999 0.0
H1210 H 0.18145 0.5293 0.98089 0.0
H1211 H 0.25262 0.53835 0.98993 0.0
H1212 H 0.22268 0.50844 0.08808 0.0
H1213 H 0.22406 0.45837 0.01552 0.0
C1214 C 0.16712 0.49607 0.02181 0.0
C1215 C 0.21483 0.55821 0.05911 0.0
C1216 C 0.22369 0.47449 0.95253 0.0
C1217 C 0.27481 0.50863 0.03398 0.0
H1218 H 0.16819 0.56339 0.07511 0.0
H1219 H 0.14275 0.52766 0.05782 0.0
H1220 H 0.14945 0.46408 0.97453 0.0
H1221 H 0.17996 0.45427 0.93472 0.0
H1222 H 0.27075 0.46512 0.94478 0.0
H1223 H 0.29869 0.48172 0.99113 0.0
H1224 H 0.29147 0.54418 0.07696 0.0
H1225 H 0.25827 0.57278 0.0885 0.0
H1226 H 0.23316 0.48048 0.12628 0.0
H1227 H 0.23247 0.42958 0.05238 0.0
H1228 H 0.24948 0.56865 0.95364 0.0
H1229 H 0.1773 0.55924 0.94409 0.0
C1230 C 0.47324 0.25273 0.97698 0.0
C1231 C 0.46747 0.27506 0.97266 0.0
C1232 C 0.48244 0.28777 0.99158 0.0
C1233 C 0.49636 0.27251 0.00637 0.0
N1234 N 0.49152 0.25083 0.99754 0.0
Co1235 Co 0.50607 0.22315 0.01507 0.0
N1236 N 0.52664 0.24169 0.04509 0.0
C1237 C 0.52782 0.26442 0.04797 0.0
C1238 C 0.54453 0.27228 0.0694 0.0
C1239 C 0.55495 0.25346 0.08046 0.0
C1240 C 0.54393 0.23517 0.06504 0.0
N1241 N 0.52001 0.19541 0.03327 0.0
C1242 C 0.53741 0.19336 0.05517 0.0
C1243 C 0.54208 0.17094 0.06079 0.0
C1244 C 0.52728 0.15837 0.04146 0.0
C1245 C 0.51446 0.17374 0.02521 0.0
N1246 N 0.48603 0.20462 0.9844 0.0
C1247 C 0.48605 0.18198 0.97981 0.0
C1248 C 0.46997 0.17416 0.95741 0.0
C1249 C 0.45879 0.19291 0.94743 0.0
C1250 C 0.46873 0.21109 0.96448 0.0
N1251 N 0.52956 0.22367 0.98517 0.0
C1252 C 0.56765 0.22396 0.95069 0.0
C1253 C 0.55749 0.20375 0.95732 0.0
C1254 C 0.53837 0.20402 0.97383 0.0
C1255 C 0.55778 0.24407 0.96043 0.0
C1256 C 0.53891 0.24355 0.97752 0.0
N1257 N 0.48289 0.22255 0.04526 0.0
C1258 C 0.45627 0.20174 0.07215 0.0
C1259 C 0.45247 0.22054 0.09134 0.0
C1260 C 0.46361 0.24059 0.08642 0.0
C1261 C 0.47858 0.24124 0.06336 0.0
C1262 C 0.47123 0.20317 0.04926 0.0
H1263 H 0.48671 0.25695 0.0609 0.0
H1264 H 0.4734 0.18822 0.03549 0.0
H1265 H 0.53151 0.18802 0.97796 0.0
H1266 H 0.5326 0.25945 0.9849 0.0
C1267 C 0.51342 0.27791 0.02962 0.0
C1268 C 0.46 0.23389 0.96271 0.0
C1269 C 0.55111 0.212 0.06922 0.0
C1270 C 0.49911 0.1684 -0.00022 0.0
H1271 H 0.4535 0.28146 0.958 0.0
H1272 H 0.48269 0.30592 0.9949 0.0
H1273 H 0.54893 0.28963 0.07572 0.0
H1274 H 0.56934 0.25318 0.09748 0.0
H1275 H 0.55537 0.1643 0.07639 0.0
H1276 H 0.52665 0.1402 0.03857 0.0
H1277 H 0.46607 0.15683 0.95033 0.0
H1278 H 0.44441 0.19316 0.93042 0.0
H1279 H 0.56466 0.18767 0.95087 0.0
H1280 H 0.56485 0.26018 0.95546 0.0
H1281 H 0.44833 0.1857 0.07537 0.0
H1282 H 0.461 0.25566 0.10057 0.0
C1283 C 0.76329 0.53471 0.06654 0.0
C1284 C 0.7417 0.54143 0.07286 0.0
C1285 C 0.72697 0.52796 0.05477 0.0
C1286 C 0.74029 0.5139 0.03843 0.0
N1287 N 0.76271 0.51732 0.04531 0.0
Co1288 Co 0.78812 0.50138 0.0259 0.0
N1289 N 0.76638 0.48384 0.99619 0.0
C1290 C 0.74356 0.48512 0.99395 0.0
C1291 C 0.73319 0.47096 0.97143 0.0
C1292 C 0.75036 0.45993 0.95846 0.0
C1293 C 0.77034 0.46806 0.97391 0.0
N1294 N 0.81349 0.48514 0.00682 0.0
C1295 C 0.81294 0.46899 0.98377 0.0
C1296 C 0.83445 0.46178 0.97803 0.0
C1297 C 0.84916 0.47371 0.99833 0.0
C1298 C 0.83585 0.48745 0.01522 0.0
N1299 N 0.80977 0.51932 0.05519 0.0
C1300 C 0.83256 0.51789 0.05778 0.0
C1301 C 0.84288 0.53326 0.0788 0.0
C1302 C 0.82569 0.54552 0.08992 0.0
C1303 C 0.80582 0.53687 0.07494 0.0
N1304 N 0.78717 0.47717 0.05594 0.0
C1305 C 0.78614 0.43745 0.08886 0.0
C1306 C 0.8064 0.44903 0.08702 0.0
C1307 C 0.8065 0.46886 0.07078 0.0
C1308 C 0.7663 0.44696 0.07585 0.0
C1309 C 0.76716 0.46678 0.06009 0.0
N1310 N 0.78908 0.5253 0.99566 0.0
C1311 C 0.81001 0.54964 0.96505 0.0
C1312 C 0.78996 0.55863 0.9519 0.0
C1313 C 0.76954 0.5508 0.96089 0.0
C1314 C 0.76948 0.53418 0.98251 0.0
C1315 C 0.8092 0.53323 0.98707 0.0
H1316 H 0.75334 0.52871 0.98805 0.0
H1317 H 0.825 0.52717 0.99679 0.0
H1318 H 0.82248 0.47671 0.06974 0.0
H1319 H 0.75145 0.47275 0.05038 0.0
C1320 C 0.73229 0.4991 0.01416 0.0
C1321 C 0.78371 0.54645 0.0794 0.0
C1322 C 0.79254 0.45994 0.96679 0.0
C1323 C 0.84379 0.50289 0.03879 0.0
H1324 H 0.73698 0.55517 0.08808 0.0
H1325 H 0.70873 0.52899 0.05271 0.0
H1326 H 0.71526 0.4687 0.96544 0.0
H1327 H 0.74838 0.44717 0.9399 0.0
H1328 H 0.83898 0.44915 0.96098 0.0
H1329 H 0.86739 0.47251 0.00054 0.0
H1330 H 0.86081 0.53571 0.08464 0.0
H1331 H 0.82752 0.55956 0.10664 0.0
H1332 H 0.82219 0.44245 0.09721 0.0
H1333 H 0.75017 0.43854 0.0762 0.0
H1334 H 0.82618 0.5554 0.95859 0.0
H1335 H 0.75363 0.55724 0.95089 0.0
C1336 C 0.10983 0.27991 0.39057 0.0
C1337 C 0.12764 0.26625 0.40238 0.0
C1338 C 0.09303 0.28753 0.40918 0.0
C1339 C 0.09304 0.2814 0.44012 0.0
H1340 H 0.10863 0.28458 0.36667 0.0
H1341 H 0.07976 0.2981 0.39909 0.0
S1342 S 0.13511 0.24475 0.48147 0.0
N1343 N 0.14406 0.24664 0.44673 0.0
N1344 N 0.11191 0.26 0.4813 0.0
C1345 C 0.11066 0.26764 0.45215 0.0
C1346 C 0.12799 0.26023 0.43335 0.0
C1347 C 0.74025 0.12018 0.40959 0.0
C1348 C 0.7256 0.13754 0.41799 0.0
C1349 C 0.73682 0.09798 0.4177 0.0
C1350 C 0.71873 0.09225 0.4348 0.0
H1351 H 0.75492 0.1239 0.39747 0.0
H1352 H 0.74891 0.08531 0.4114 0.0
S1353 S 0.67464 0.13128 0.46069 0.0
N1354 N 0.69134 0.14726 0.44229 0.0
N1355 N 0.68534 0.10568 0.45864 0.0
C1356 C 0.70331 0.10925 0.44206 0.0
C1357 C 0.70668 0.13185 0.43348 0.0
C1358 C 0.90907 0.74416 0.40176 0.0
C1359 C 0.89086 0.73936 0.41929 0.0
C1360 C 0.9315 0.74133 0.41381 0.0
C1361 C 0.93652 0.73423 0.44405 0.0
H1362 H 0.90601 0.75004 0.37853 0.0
H1363 H 0.94503 0.7447 0.39941 0.0
S1364 S 0.89547 0.72074 0.50003 0.0
N1365 N 0.87968 0.72781 0.46884 0.0
N1366 N 0.92191 0.72293 0.49147 0.0
C1367 C 0.91867 0.72973 0.46196 0.0
C1368 C 0.89586 0.73235 0.44967 0.0
C1369 C 0.29694 0.88561 0.41247 0.0
C1370 C 0.28131 0.88148 0.38669 0.0
C1371 C 0.30287 0.90758 0.4228 0.0
C1372 C 0.29386 0.92633 0.40731 0.0
H1373 H 0.30397 0.87179 0.42555 0.0
H1374 H 0.31367 0.90982 0.44407 0.0
S1375 S 0.25646 0.92441 0.3344 0.0
N1376 N 0.25953 0.89778 0.34325 0.0
N1377 N 0.27158 0.93912 0.36185 0.0
C1378 C 0.27992 0.92236 0.37981 0.0
C1379 C 0.27351 0.89994 0.36962 0.0
C1380 C 0.08785 0.70566 0.63578 0.0
C1381 C 0.10932 0.70311 0.62453 0.0
C1382 C 0.06855 0.70944 0.61576 0.0
C1383 C 0.0701 0.71065 0.58387 0.0
H1384 H 0.08595 0.70456 0.66025 0.0
H1385 H 0.05233 0.71129 0.62521 0.0
S1386 S 0.12178 0.70414 0.54229 0.0
N1387 N 0.13059 0.70131 0.57899 0.0
N1388 N 0.09434 0.70862 0.54164 0.0
C1389 C 0.09129 0.70795 0.57222 0.0
C1390 C 0.11089 0.70407 0.59246 0.0
C1391 C 0.25906 0.08737 0.65432 0.0
C1392 C 0.26407 0.10878 0.64384 0.0
C1393 C 0.26677 0.06766 0.63977 0.0
C1394 C 0.2801 0.06869 0.61465 0.0
H1395 H 0.24837 0.08585 0.67312 0.0
H1396 H 0.26169 0.0515 0.64756 0.0
S1397 S 0.29887 0.12032 0.57913 0.0
N1398 N 0.28391 0.12966 0.60732 0.0
N1399 N 0.29859 0.09262 0.58045 0.0
C1400 C 0.28609 0.08991 0.60485 0.0
C1401 C 0.27802 0.10995 0.61932 0.0
C1402 C 0.90382 0.32174 0.63053 0.0
C1403 C 0.88517 0.30805 0.62009 0.0
C1404 C 0.92454 0.31929 0.61765 0.0
C1405 C 0.9274 0.30306 0.59382 0.0
H1406 H 0.90227 0.33473 0.64847 0.0
H1407 H 0.93839 0.33033 0.6262 0.0
S1408 S 0.88374 0.26355 0.55737 0.0
N1409 N 0.87083 0.27798 0.58397 0.0
N1410 N 0.90984 0.27339 0.5598 0.0
C1411 C 0.90899 0.28916 0.58326 0.0
C1412 C 0.88786 0.2917 0.59628 0.0
C1413 C 0.73587 0.89704 0.62492 0.0
C1414 C 0.75118 0.90367 0.65013 0.0
C1415 C 0.72535 0.91292 0.60569 0.0
C1416 C 0.72993 0.9361 0.61058 0.0
H1417 H 0.7324 0.87936 0.61951 0.0
H1418 H 0.71402 0.90689 0.58626 0.0
S1419 S 0.76696 0.96234 0.67555 0.0
N1420 N 0.76837 0.93508 0.68122 0.0
N1421 N 0.74996 0.96492 0.64386 0.0
C1422 C 0.74435 0.94304 0.6367 0.0
C1423 C 0.75464 0.92684 0.65673 0.0
C1424 C 0.89679 0.7247 0.59871 0.0
C1425 C 0.89711 0.73988 0.62451 0.0
C1426 C 0.91613 0.72066 0.58309 0.0
C1427 C 0.93656 0.73195 0.59216 0.0
H1428 H 0.88126 0.71625 0.58998 0.0
H1429 H 0.91479 0.70919 0.56301 0.0
S1430 S 0.94698 0.77207 0.65969 0.0
N1431 N 0.92 0.76538 0.65949 0.0
N1432 N 0.95646 0.75772 0.6301 0.0
C1433 C 0.93739 0.74663 0.61854 0.0
C1434 C 0.91767 0.75065 0.63464 0.0
C1435 C 0.25846 0.91299 0.60059 0.0
C1436 C 0.27616 0.9017 0.6168 0.0
C1437 C 0.26258 0.93094 0.58203 0.0
C1438 C 0.28473 0.93755 0.5767 0.0
H1439 H 0.24117 0.90754 0.60175 0.0
H1440 H 0.24791 0.93939 0.572 0.0
S1441 S 0.33467 0.92381 0.63061 0.0
N1442 N 0.31549 0.90496 0.63713 0.0
N1443 N 0.32246 0.9399 0.6041 0.0
C1444 C 0.30188 0.92996 0.59858 0.0
C1445 C 0.29784 0.9114 0.61757 0.0
C1446 C 0.0897 0.31967 0.65482 0.0
C1447 C 0.0818 0.31039 0.68122 0.0
C1448 C 0.07649 0.31915 0.62654 0.0
C1449 C 0.05464 0.30988 0.62375 0.0
H1450 H 0.10644 0.32699 0.65584 0.0
H1451 H 0.08367 0.32554 0.60652 0.0
S1452 S 0.02639 0.28219 0.68488 0.0
N1453 N 0.05113 0.29028 0.70193 0.0
N1454 N 0.02587 0.29056 0.64906 0.0
C1455 C 0.04646 0.30058 0.64979 0.0
C1456 C 0.06012 0.30054 0.67843 0.0
C1457 C 0.69533 0.10412 0.60938 0.0
C1458 C 0.7024 0.12335 0.59484 0.0
C1459 C 0.69698 0.08256 0.59559 0.0
C1460 C 0.70553 0.07943 0.56662 0.0
H1461 H 0.68856 0.10577 0.63174 0.0
H1462 H 0.69166 0.06819 0.60774 0.0
S1463 S 0.72716 0.12364 0.51923 0.0
N1464 N 0.71879 0.13756 0.54994 0.0
N1465 N 0.72188 0.09679 0.52414 0.0
C1466 C 0.71288 0.09828 0.55188 0.0
C1467 C 0.71122 0.12032 0.56588 0.0
C1468 C 0.92789 0.27221 0.39823 0.0
C1469 C 0.90625 0.27397 0.40907 0.0
C1470 C 0.94722 0.27885 0.417 0.0
C1471 C 0.94566 0.28709 0.44747 0.0
H1472 H 0.93 0.26489 0.3754 0.0
H1473 H 0.96362 0.27653 0.40818 0.0
S1474 S 0.89331 0.2974 0.48614 0.0
N1475 N 0.88446 0.2867 0.4515 0.0
N1476 N 0.92114 0.29851 0.48708 0.0
C1477 C 0.92427 0.29011 0.4582 0.0
C1478 C 0.90446 0.28365 0.43895 0.0
C1479 C 0.73021 0.93908 0.37151 0.0
C1480 C 0.73365 0.91684 0.38098 0.0
C1481 C 0.72685 0.95682 0.39299 0.0
C1482 C 0.72705 0.95291 0.4246 0.0
H1483 H 0.73028 0.9428 0.34733 0.0
H1484 H 0.72425 0.97369 0.3849 0.0
S1485 S 0.7357 0.89828 0.46173 0.0
N1486 N 0.7374 0.89224 0.42455 0.0
N1487 N 0.73082 0.92559 0.46461 0.0
C1488 C 0.73042 0.93091 0.43446 0.0
C1489 C 0.73388 0.91289 0.41275 0.0
C1490 C 0.0999 0.74744 0.36838 0.0
C1491 C 0.11895 0.7334 0.36765 0.0
C1492 C 0.08178 0.7421 0.38539 0.0
C1493 C 0.08208 0.72261 0.40264 0.0
H1494 H 0.0993 0.7631 0.35646 0.0
H1495 H 0.06794 0.75391 0.38624 0.0
S1496 S 0.1272 0.67947 0.40712 0.0
N1497 N 0.13655 0.69863 0.38484 0.0
N1498 N 0.10228 0.68844 0.41646 0.0
C1499 C 0.10062 0.70799 0.40131 0.0
C1500 C 0.11911 0.71344 0.384 0.0
C1501 C 0.30977 0.11526 0.46302 0.0
C1502 C 0.30797 0.116 0.4305 0.0
C1503 C 0.30647 0.09512 0.47778 0.0
C1504 C 0.30141 0.07501 0.46053 0.0
H1505 H 0.31421 0.13029 0.47718 0.0
H1506 H 0.30827 0.09517 0.50281 0.0
S1507 S 0.29528 0.06739 0.37524 0.0
N1508 N 0.30106 0.09444 0.38169 0.0
N1509 N 0.2948 0.0567 0.40966 0.0
C1510 C 0.29941 0.0754 0.42818 0.0
C1511 C 0.30277 0.09585 0.4131 0.0
C1512 C 0.64757 0.79331 0.92261 0.0
C1513 C 0.65556 0.77083 0.92323 0.0
C1514 C 0.62525 0.79936 0.92884 0.0
C1515 C 0.60877 0.78315 0.93349 0.0
H1516 H 0.65824 0.80608 0.91431 0.0
H1517 H 0.62051 0.81694 0.92831 0.0
S1518 S 0.62285 0.70879 0.92668 0.0
N1519 N 0.65257 0.72874 0.93856 0.0
N1520 N 0.60204 0.73788 0.9274 0.0
C1521 C 0.61644 0.76147 0.93686 0.0
C1522 C 0.64666 0.75647 0.94292 0.0
C1523 C 0.21675 0.62441 0.9136 0.0
C1524 C 0.20633 0.62132 0.88333 0.0
C1525 C 0.21926 0.60643 0.93352 0.0
C1526 C 0.21092 0.58485 0.92421 0.0
H1527 H 0.22285 0.64088 0.92211 0.0
H1528 H 0.22732 0.60953 0.95663 0.0
S1529 S 0.18177 0.5679 0.848 0.0
N1530 N 0.18737 0.59494 0.84539 0.0
N1531 N 0.19181 0.5613 0.88306 0.0
C1532 C 0.20028 0.58154 0.89427 0.0
C1533 C 0.198 0.59973 0.87385 0.0
C1534 C 0.40851 0.24862 0.90974 0.0
C1535 C 0.39051 0.24375 0.92761 0.0
C1536 C 0.43102 0.24532 0.9211 0.0
C1537 C 0.43624 0.23741 0.95082 0.0
H1538 H 0.40519 0.25504 0.88685 0.0
H1539 H 0.44443 0.24904 0.90667 0.0
S1540 S 0.39594 0.22375 0.00774 0.0
N1541 N 0.37984 0.23163 0.97723 0.0
N1542 N 0.4222 0.22558 0.99836 0.0
C1543 C 0.41863 0.2329 0.96914 0.0
C1544 C 0.39576 0.23615 0.95765 0.0
C1545 C 0.79005 0.40326 0.92375 0.0
C1546 C 0.78657 0.40926 0.89265 0.0
C1547 C 0.79366 0.41975 0.94775 0.0
C1548 C 0.79392 0.44269 0.94139 0.0
H1549 H 0.78872 0.38582 0.92965 0.0
H1550 H 0.795 0.41463 0.97148 0.0
S1551 S 0.7871 0.46734 0.86445 0.0
N1552 N 0.78475 0.43991 0.85709 0.0
N1553 N 0.79171 0.4707 0.90238 0.0
C1554 C 0.79167 0.44889 0.91057 0.0
C1555 C 0.78791 0.43222 0.88615 0.0
C1556 C 0.59633 0.19336 0.12944 0.0
C1557 C 0.61631 0.19562 0.11453 0.0
C1558 C 0.57532 0.19925 0.115 0.0
C1559 C 0.57357 0.20737 0.08507 0.0
H1560 H 0.59689 0.18662 0.15227 0.0
H1561 H 0.56028 0.19699 0.127 0.0
S1562 S 0.62032 0.21676 0.03594 0.0
N1563 N 0.6328 0.20703 0.06812 0.0
N1564 N 0.5931 0.21779 0.04097 0.0
C1565 C 0.59326 0.21008 0.07 0.0
C1566 C 0.61469 0.20422 0.0847 0.0
C1567 C 0.76945 0.59349 0.13625 0.0
C1568 C 0.77377 0.61306 0.12037 0.0
C1569 C 0.77372 0.57199 0.12354 0.0
C1570 C 0.78187 0.56926 0.09422 0.0
H1571 H 0.76229 0.59469 0.15836 0.0
H1572 H 0.76987 0.55734 0.13618 0.0
S1573 S 0.79563 0.61452 0.0429 0.0
N1574 N 0.78695 0.62798 0.07376 0.0
N1575 N 0.79423 0.58744 0.04965 0.0
C1576 C 0.78651 0.58847 0.07824 0.0
C1577 C 0.78252 0.61037 0.0913 0.0
C1578 C 0.42165 0.78414 0.11863 0.0
C1579 C 0.40075 0.79472 0.11167 0.0
C1580 C 0.43781 0.78244 0.09701 0.0
C1581 C 0.43383 0.79155 0.06775 0.0
H1582 H 0.4258 0.77759 0.1413 0.0
H1583 H 0.45389 0.7747 0.10369 0.0
S1584 S 0.38151 0.81966 0.03709 0.0
N1585 N 0.37658 0.81343 0.07263 0.0
N1586 N 0.40721 0.81043 0.0321 0.0
C1587 C 0.41287 0.80165 0.06007 0.0
C1588 C 0.39627 0.8032 0.08199 0.0
C1589 C 0.24254 0.41925 0.16543 0.0
C1590 C 0.25989 0.40405 0.15883 0.0
C1591 C 0.23419 0.4347 0.14375 0.0
C1592 C 0.2431 0.43586 0.11484 0.0
H1593 H 0.23542 0.41934 0.18755 0.0
H1594 H 0.22065 0.44583 0.1497 0.0
S1595 S 0.29025 0.4014 0.08763 0.0
N1596 N 0.28638 0.39193 0.12196 0.0
N1597 N 0.27142 0.42151 0.0818 0.0
C1598 C 0.2608 0.42113 0.10829 0.0
C1599 C 0.26905 0.4052 0.13015 0.0
C1600 C 0.43444 0.22381 0.17313 0.0
C1601 C 0.41409 0.21148 0.1705 0.0
C1602 C 0.44638 0.22723 0.14727 0.0
C1603 C 0.43828 0.21874 0.11768 0.0
H1604 H 0.44149 0.23041 0.1955 0.0
H1605 H 0.46244 0.23597 0.15068 0.0
S1606 S 0.38409 0.18852 0.09749 0.0
N1607 N 0.38525 0.19274 0.1354 0.0
N1608 N 0.40742 0.19975 0.08667 0.0
C1609 C 0.41733 0.20754 0.11442 0.0
C1610 C 0.40527 0.20385 0.14081 0.0
C1611 C 0.79808 0.37529 0.09609 0.0
C1612 C 0.77971 0.36785 0.11145 0.0
C1613 C 0.80091 0.39812 0.09057 0.0
C1614 C 0.78571 0.41441 0.10073 0.0
H1615 H 0.8098 0.36326 0.08706 0.0
H1616 H 0.81438 0.40283 0.07678 0.0
S1617 S 0.7377 0.40426 0.1477 0.0
N1618 N 0.74781 0.37894 0.14019 0.0
N1619 N 0.75385 0.42197 0.13116 0.0
C1620 C 0.76851 0.40743 0.11855 0.0
C1621 C 0.76536 0.38414 0.12363 0.0
C1622 C 0.55986 0.79074 0.15327 0.0
C1623 C 0.58237 0.79872 0.15607 0.0
C1624 C 0.54671 0.79053 0.12485 0.0
C1625 C 0.55574 0.79777 0.09815 0.0
H1626 H 0.5522 0.78467 0.17306 0.0
H1627 H 0.52945 0.78449 0.12365 0.0
S1628 S 0.61442 0.81671 0.09153 0.0
N1629 N 0.61347 0.81203 0.12859 0.0
N1630 N 0.58894 0.81073 0.07517 0.0
C1631 C 0.57841 0.8046 0.10012 0.0
C1632 C 0.59169 0.80519 0.12903 0.0
C1633 C 0.21928 0.61893 0.03814 0.0
C1634 C 0.21069 0.63115 0.06317 0.0
C1635 C 0.21996 0.59541 0.03684 0.0
C1636 C 0.21275 0.583 0.06088 0.0
H1637 H 0.22586 0.62746 0.01932 0.0
H1638 H 0.22653 0.58684 0.01702 0.0
S1639 S 0.19225 0.6057 0.13397 0.0
N1640 N 0.19632 0.62813 0.11399 0.0
N1641 N 0.19929 0.58397 0.11197 0.0
C1642 C 0.20518 0.59458 0.08671 0.0
C1643 C 0.20385 0.61861 0.08783 0.0
C1644 C 0.41178 0.78563 0.94089 0.0
C1645 C 0.40332 0.782 0.90965 0.0
C1646 C 0.43495 0.78855 0.94907 0.0
C1647 C 0.45044 0.78833 0.92646 0.0
H1648 H 0.40076 0.78581 0.95945 0.0
H1649 H 0.44084 0.79064 0.97331 0.0
S1650 S 0.43737 0.78206 0.84183 0.0
N1651 N 0.4126 0.78012 0.85614 0.0
N1652 N 0.45611 0.78588 0.8719 0.0
C1653 C 0.44238 0.78579 0.89534 0.0
C1654 C 0.41884 0.78266 0.8869 0.0
C1655 C 0.23327 0.417 0.91575 0.0
C1656 C 0.23184 0.42101 0.88389 0.0
C1657 C 0.23006 0.43436 0.93762 0.0
C1658 C 0.22573 0.45641 0.92851 0.0
H1659 H 0.23717 0.40036 0.92391 0.0
H1660 H 0.23138 0.43065 0.96192 0.0
S1661 S 0.22116 0.47624 0.84872 0.0
N1662 N 0.22622 0.44898 0.84465 0.0
N1663 N 0.22041 0.4817 0.88624 0.0
C1664 C 0.22434 0.46083 0.89705 0.0
C1665 C 0.22746 0.44312 0.87463 0.0
C1666 C 0.62801 0.23774 0.93544 0.0
C1667 C 0.63229 0.22265 0.91082 0.0
C1668 C 0.60692 0.23844 0.94758 0.0
C1669 C 0.5892 0.22406 0.93559 0.0
H1670 H 0.6413 0.24875 0.94591 0.0
H1671 H 0.60475 0.24986 0.9672 0.0
S1672 S 0.59135 0.18176 0.87057 0.0
N1673 N 0.61696 0.19276 0.875 0.0
N1674 N 0.57699 0.19497 0.89671 0.0
C1675 C 0.59307 0.20916 0.91056 0.0
C1676 C 0.61467 0.20819 0.89852 0.0
C1677 C 0.79606 0.5856 0.87567 0.0
C1678 C 0.78518 0.60646 0.87954 0.0
C1679 C 0.79857 0.57058 0.89976 0.0
C1680 C 0.78997 0.57579 0.92833 0.0
H1681 H 0.8022 0.58063 0.85362 0.0
H1682 H 0.80647 0.55443 0.89563 0.0
S1683 S 0.76137 0.62849 0.95115 0.0
N1684 N 0.76683 0.63189 0.91499 0.0
N1685 N 0.77127 0.6034 0.95993 0.0
C1686 C 0.77966 0.59673 0.93287 0.0
C1687 C 0.77731 0.61212 0.90856 0.0
loop_
_geom_bond_atom_site_label_1
_geom_bond_atom_site_label_2
_geom_bond_distance
_geom_bond_site_symmetry_2
_ccdc_geom_bond_type
C0 C1 1.560 . S
C0 H61 0.959 . S
C0 H62 0.959 . S
C0 H63 0.960 . S
C1 C0 1.560 . S
C1 O56 1.426 . S
C1 H60 0.980 . S
C2 C3 1.407 . S
C2 C7 1.418 . S
C2 O56 1.334 . S
C3 C2 1.407 . S
C3 C4 1.360 . S
C3 H64 0.929 . S
C4 C3 1.360 . S
C4 C5 1.401 . S
C4 C8 1.527 . S
C5 C4 1.401 . S
C5 C6 1.405 . S
C5 C38 1.587 . S
C6 C5 1.405 . S
C6 C7 1.332 . S
C6 C9 1.496 . S
C7 C2 1.418 . S
C7 C6 1.332 . S
C7 H65 0.929 . S
C8 C4 1.527 . S
C8 H66 0.959 . S
C8 H67 0.961 . S
C8 H68 0.961 . S
C9 C6 1.496 . S
C9 H69 0.960 . S
C9 H70 0.960 . S
C9 H71 0.961 . S
C10 C11 1.517 . S
C10 H73 0.961 . S
C10 H74 0.960 . S
C10 H75 0.959 . S
C11 C10 1.517 . S
C11 O59 1.468 . S
C11 H72 0.980 . S
C12 C13 1.349 . S
C12 C17 1.367 . S
C12 O59 1.408 . S
C13 C12 1.349 . S
C13 C14 1.407 . S
C13 H76 0.930 . S
C14 C13 1.407 . S
C14 C15 1.449 . S
C14 C18 1.535 . S
C15 C14 1.449 . S
C15 C16 1.384 . S
C15 C40 1.553 . S
C16 C15 1.384 . S
C16 C17 1.364 . S
C16 C19 1.450 . S
C17 C12 1.367 . S
C17 C16 1.364 . S
C17 H77 0.931 . S
C18 C14 1.535 . S
C18 H78 0.959 . S
C18 H79 0.961 . S
C18 H80 0.959 . S
C19 C16 1.450 . S
C19 H81 0.960 . S
C19 H82 0.960 . S
C19 H83 0.960 . S
C20 C21 1.309 . S
C20 C25 1.304 . S
C20 O58 1.435 . S
C21 C20 1.309 . S
C21 C22 1.476 . S
C21 H85 0.930 . S
C22 C21 1.476 . S
C22 C23 1.400 . S
C22 C26 1.567 . S
C23 C22 1.400 . S
C23 C24 1.373 . S
C23 C45 1.432 . S
C24 C23 1.373 . S
C24 C25 1.339 . S
C24 C27 1.530 . S
C25 C20 1.304 . S
C25 C24 1.339 . S
C25 H86 0.930 . S
C26 C22 1.567 . S
C26 H87 0.961 . S
C26 H88 0.960 . S
C26 H89 0.958 . S
C27 C24 1.530 . S
C27 H90 0.961 . S
C27 H91 0.960 . S
C27 H92 0.960 . S
C28 C29 1.530 . S
C28 H94 0.961 . S
C28 H95 0.961 . S
C28 H96 0.959 . S
C29 C28 1.530 . S
C29 O57 1.412 . S
C29 H93 0.980 . S
C30 C31 1.288 . S
C30 C35 1.377 . S
C30 O57 1.393 . S
C31 C30 1.288 . S
C31 C32 1.369 . S
C31 H97 0.932 . S
C32 C31 1.369 . S
C32 C33 1.398 . S
C32 C36 1.527 . S
C33 C32 1.398 . S
C33 C34 1.380 . S
C33 C47 1.497 . S
C34 C33 1.380 . S
C34 C35 1.383 . S
C34 C37 1.603 . S
C35 C30 1.377 . S
C35 C34 1.383 . S
C35 H98 0.929 . S
C36 C32 1.527 . S
C36 H99 0.961 . S
C36 H100 0.959 . S
C36 H101 0.959 . S
C37 C34 1.603 . S
C37 H102 0.960 . S
C37 H103 0.962 . S
C37 H104 0.961 . S
C38 C5 1.587 . S
C38 C39 1.360 . S
C38 C51 1.412 . S
C39 C38 1.360 . S
C39 C40 1.365 . S
C39 H105 0.929 . S
C40 C15 1.553 . S
C40 C39 1.365 . S
C40 C41 1.404 . S
C41 C40 1.404 . S
C41 C42 1.395 . S
C41 C52 1.451 . S
C42 C41 1.395 . S
C42 C43 1.322 . S
C42 H106 0.930 . S
C43 C42 1.322 . S
C43 C44 1.459 . S
C43 H107 0.929 . S
C44 C43 1.459 . S
C44 C45 1.445 . S
C44 C53 1.395 . S
C45 C23 1.432 . S
C45 C44 1.445 . S
C45 C46 1.370 . S
C46 C45 1.370 . S
C46 C47 1.438 . S
C46 H108 0.930 . S
C47 C33 1.497 . S
C47 C46 1.438 . S
C47 C48 1.360 . S
C48 C47 1.360 . S
C48 C49 1.401 . S
C48 C53 1.446 . S
C49 C48 1.401 . S
C49 C50 1.347 . S
C49 H109 0.929 . S
C50 C49 1.347 . S
C50 C51 1.455 . S
C50 H110 0.930 . S
C51 C38 1.412 . S
C51 C50 1.455 . S
C51 C52 1.331 . S
C52 C41 1.451 . S
C52 C51 1.331 . S
C52 C53 1.497 . S
C53 C44 1.395 . S
C53 C48 1.446 . S
C53 C52 1.497 . S
C54 C55 1.582 . S
C54 H111 0.962 . S
C54 H112 0.959 . S
C54 H113 0.958 . S
C55 C54 1.582 . S
C55 O58 1.458 . S
C55 H84 0.980 . S
O56 C1 1.426 . S
O56 C2 1.334 . S
O57 C29 1.412 . S
O57 C30 1.393 . S
O58 C20 1.435 . S
O58 C55 1.458 . S
O59 C11 1.468 . S
O59 C12 1.408 . S
H60 C1 0.980 . S
H61 C0 0.959 . S
H62 C0 0.959 . S
H63 C0 0.960 . S
H64 C3 0.929 . S
H65 C7 0.929 . S
H66 C8 0.959 . S
H67 C8 0.961 . S
H68 C8 0.961 . S
H69 C9 0.960 . S
H70 C9 0.960 . S
H71 C9 0.961 . S
H72 C11 0.980 . S
H73 C10 0.961 . S
H74 C10 0.960 . S
H75 C10 0.959 . S
H76 C13 0.930 . S
H77 C17 0.931 . S
H78 C18 0.959 . S
H79 C18 0.961 . S
H80 C18 0.959 . S
H81 C19 0.960 . S
H82 C19 0.960 . S
H83 C19 0.960 . S
H84 C55 0.980 . S
H85 C21 0.930 . S
H86 C25 0.930 . S
H87 C26 0.961 . S
H88 C26 0.960 . S
H89 C26 0.958 . S
H90 C27 0.961 . S
H91 C27 0.960 . S
H92 C27 0.960 . S
H93 C29 0.980 . S
H94 C28 0.961 . S
H95 C28 0.961 . S
H96 C28 0.959 . S
H97 C31 0.932 . S
H98 C35 0.929 . S
H99 C36 0.961 . S
H100 C36 0.959 . S
H101 C36 0.959 . S
H102 C37 0.960 . S
H103 C37 0.962 . S
H104 C37 0.961 . S
H105 C39 0.929 . S
H106 C42 0.930 . S
H107 C43 0.929 . S
H108 C46 0.930 . S
H109 C49 0.929 . S
H110 C50 0.930 . S
H111 C54 0.962 . S
H112 C54 0.959 . S
H113 C54 0.958 . S
C114 C115 1.560 . S
C114 H175 0.959 . S
C114 H176 0.959 . S
C114 H177 0.960 . S
C115 C114 1.560 . S
C115 O170 1.426 . S
C115 H174 0.980 . S
C116 C117 1.407 . S
C116 C121 1.418 . S
C116 O170 1.334 . S
C117 C116 1.407 . S
C117 C118 1.360 . S
C117 H178 0.929 . S
C118 C117 1.360 . S
C118 C119 1.401 . S
C118 C122 1.527 . S
C119 C118 1.401 . S
C119 C120 1.405 . S
C119 C152 1.587 . S
C120 C119 1.405 . S
C120 C121 1.332 . S
C120 C123 1.496 . S
C121 C116 1.418 . S
C121 C120 1.332 . S
C121 H179 0.929 . S
C122 C118 1.527 . S
C122 H180 0.959 . S
C122 H181 0.961 . S
C122 H182 0.961 . S
C123 C120 1.496 . S
C123 H183 0.960 . S
C123 H184 0.960 . S
C123 H185 0.961 . S
C124 C125 1.517 . S
C124 H187 0.961 . S
C124 H188 0.960 . S
C124 H189 0.959 . S
C125 C124 1.517 . S
C125 O173 1.468 . S
C125 H186 0.980 . S
C126 C127 1.349 . S
C126 C131 1.367 . S
C126 O173 1.408 . S
C127 C126 1.349 . S
C127 C128 1.407 . S
C127 H190 0.930 . S
C128 C127 1.407 . S
C128 C129 1.449 . S
C128 C132 1.535 . S
C129 C128 1.449 . S
C129 C130 1.384 . S
C129 C154 1.553 . S
C130 C129 1.384 . S
C130 C131 1.364 . S
C130 C133 1.450 . S
C131 C126 1.367 . S
C131 C130 1.364 . S
C131 H191 0.931 . S
C132 C128 1.535 . S
C132 H192 0.959 . S
C132 H193 0.961 . S
C132 H194 0.959 . S
C133 C130 1.450 . S
C133 H195 0.960 . S
C133 H196 0.960 . S
C133 H197 0.960 . S
C134 C135 1.309 . S
C134 C139 1.304 . S
C134 O172 1.435 . S
C135 C134 1.309 . S
C135 C136 1.476 . S
C135 H199 0.930 . S
C136 C135 1.476 . S
C136 C137 1.400 . S
C136 C140 1.567 . S
C137 C136 1.400 . S
C137 C138 1.373 . S
C137 C159 1.432 . S
C138 C137 1.373 . S
C138 C139 1.339 . S
C138 C141 1.530 . S
C139 C134 1.304 . S
C139 C138 1.339 . S
C139 H200 0.930 . S
C140 C136 1.567 . S
C140 H201 0.961 . S
C140 H202 0.960 . S
C140 H203 0.958 . S
C141 C138 1.530 . S
C141 H204 0.961 . S
C141 H205 0.960 . S
C141 H206 0.960 . S
C142 C143 1.530 . S
C142 H208 0.961 . S
C142 H209 0.961 . S
C142 H210 0.959 . S
C143 C142 1.530 . S
C143 O171 1.412 . S
C143 H207 0.980 . S
C144 C145 1.288 . S
C144 C149 1.377 . S
C144 O171 1.393 . S
C145 C144 1.288 . S
C145 C146 1.369 . S
C145 H211 0.932 . S
C146 C145 1.369 . S
C146 C147 1.398 . S
C146 C150 1.527 . S
C147 C146 1.398 . S
C147 C148 1.380 . S
C147 C161 1.497 . S
C148 C147 1.380 . S
C148 C149 1.383 . S
C148 C151 1.603 . S
C149 C144 1.377 . S
C149 C148 1.383 . S
C149 H212 0.929 . S
C150 C146 1.527 . S
C150 H213 0.961 . S
C150 H214 0.959 . S
C150 H215 0.959 . S
C151 C148 1.603 . S
C151 H216 0.960 . S
C151 H217 0.962 . S
C151 H218 0.961 . S
C152 C119 1.587 . S
C152 C153 1.360 . S
C152 C165 1.412 . S
C153 C152 1.360 . S
C153 C154 1.365 . S
C153 H219 0.929 . S
C154 C129 1.553 . S
C154 C153 1.365 . S
C154 C155 1.404 . S
C155 C154 1.404 . S
C155 C156 1.395 . S
C155 C166 1.451 . S
C156 C155 1.395 . S
C156 C157 1.322 . S
C156 H220 0.930 . S
C157 C156 1.322 . S
C157 C158 1.459 . S
C157 H221 0.929 . S
C158 C157 1.459 . S
C158 C159 1.445 . S
C158 C167 1.395 . S
C159 C137 1.432 . S
C159 C158 1.445 . S
C159 C160 1.370 . S
C160 C159 1.370 . S
C160 C161 1.438 . S
C160 H222 0.930 . S
C161 C147 1.497 . S
C161 C160 1.438 . S
C161 C162 1.360 . S
C162 C161 1.360 . S
C162 C163 1.401 . S
C162 C167 1.446 . S
C163 C162 1.401 . S
C163 C164 1.347 . S
C163 H223 0.929 . S
C164 C163 1.347 . S
C164 C165 1.455 . S
C164 H224 0.930 . S
C165 C152 1.412 . S
C165 C164 1.455 . S
C165 C166 1.331 . S
C166 C155 1.451 . S
C166 C165 1.331 . S
C166 C167 1.497 . S
C167 C158 1.395 . S
C167 C162 1.446 . S
C167 C166 1.497 . S
C168 C169 1.582 . S
C168 H225 0.962 . S
C168 H226 0.959 . S
C168 H227 0.958 . S
C169 C168 1.582 . S
C169 O172 1.458 . S
C169 H198 0.980 . S
O170 C115 1.426 . S
O170 C116 1.334 . S
O171 C143 1.412 . S
O171 C144 1.393 . S
O172 C134 1.435 . S
O172 C169 1.458 . S
O173 C125 1.468 . S
O173 C126 1.408 . S
H174 C115 0.980 . S
H175 C114 0.959 . S
H176 C114 0.959 . S
H177 C114 0.960 . S
H178 C117 0.929 . S
H179 C121 0.929 . S
H180 C122 0.959 . S
H181 C122 0.961 . S
H182 C122 0.961 . S
H183 C123 0.960 . S
H184 C123 0.960 . S
H185 C123 0.961 . S
H186 C125 0.980 . S
H187 C124 0.961 . S
H188 C124 0.960 . S
H189 C124 0.959 . S
H190 C127 0.930 . S
H191 C131 0.931 . S
H192 C132 0.959 . S
H193 C132 0.961 . S
H194 C132 0.959 . S
H195 C133 0.960 . S
H196 C133 0.960 . S
H197 C133 0.960 . S
H198 C169 0.980 . S
H199 C135 0.930 . S
H200 C139 0.930 . S
H201 C140 0.961 . S
H202 C140 0.960 . S
H203 C140 0.958 . S
H204 C141 0.961 . S
H205 C141 0.960 . S
H206 C141 0.960 . S
H207 C143 0.980 . S
H208 C142 0.961 . S
H209 C142 0.961 . S
H210 C142 0.959 . S
H211 C145 0.932 . S
H212 C149 0.929 . S
H213 C150 0.961 . S
H214 C150 0.959 . S
H215 C150 0.959 . S
H216 C151 0.960 . S
H217 C151 0.962 . S
H218 C151 0.961 . S
H219 C153 0.929 . S
H220 C156 0.930 . S
H221 C157 0.929 . S
H222 C160 0.930 . S
H223 C163 0.929 . S
H224 C164 0.930 . S
H225 C168 0.962 . S
H226 C168 0.959 . S
H227 C168 0.958 . S
C228 C229 1.560 . S
C228 H289 0.959 . S
C228 H290 0.959 . S
C228 H291 0.960 . S
C229 C228 1.560 . S
C229 O284 1.426 . S
C229 H288 0.980 . S
C230 C231 1.407 . S
C230 C235 1.418 . S
C230 O284 1.334 . S
C231 C230 1.407 . S
C231 C232 1.360 . S
C231 H292 0.929 . S
C232 C231 1.360 . S
C232 C233 1.401 . S
C232 C236 1.527 . S
C233 C232 1.401 . S
C233 C234 1.405 . S
C233 C266 1.587 . S
C234 C233 1.405 . S
C234 C235 1.332 . S
C234 C237 1.496 . S
C235 C230 1.418 . S
C235 C234 1.332 . S
C235 H293 0.929 . S
C236 C232 1.527 . S
C236 H294 0.959 . S
C236 H295 0.961 . S
C236 H296 0.961 . S
C237 C234 1.496 . S
C237 H297 0.960 . S
C237 H298 0.960 . S
C237 H299 0.961 . S
C238 C239 1.517 . S
C238 H301 0.961 . S
C238 H302 0.960 . S
C238 H303 0.959 . S
C239 C238 1.517 . S
C239 O287 1.468 . S
C239 H300 0.980 . S
C240 C241 1.349 . S
C240 C245 1.367 . S
C240 O287 1.408 . S
C241 C240 1.349 . S
C241 C242 1.407 . S
C241 H304 0.930 . S
C242 C241 1.407 . S
C242 C243 1.449 . S
C242 C246 1.535 . S
C243 C242 1.449 . S
C243 C244 1.384 . S
C243 C268 1.553 . S
C244 C243 1.384 . S
C244 C245 1.364 . S
C244 C247 1.450 . S
C245 C240 1.367 . S
C245 C244 1.364 . S
C245 H305 0.931 . S
C246 C242 1.535 . S
C246 H306 0.959 . S
C246 H307 0.961 . S
C246 H308 0.959 . S
C247 C244 1.450 . S
C247 H309 0.960 . S
C247 H310 0.960 . S
C247 H311 0.960 . S
C248 C249 1.309 . S
C248 C253 1.304 . S
C248 O286 1.435 . S
C249 C248 1.309 . S
C249 C250 1.476 . S
C249 H313 0.930 . S
C250 C249 1.476 . S
C250 C251 1.400 . S
C250 C254 1.567 . S
C251 C250 1.400 . S
C251 C252 1.373 . S
C251 C273 1.432 . S
C252 C251 1.373 . S
C252 C253 1.339 . S
C252 C255 1.530 . S
C253 C248 1.304 . S
C253 C252 1.339 . S
C253 H314 0.930 . S
C254 C250 1.567 . S
C254 H315 0.961 . S
C254 H316 0.960 . S
C254 H317 0.958 . S
C255 C252 1.530 . S
C255 H318 0.961 . S
C255 H319 0.960 . S
C255 H320 0.960 . S
C256 C257 1.530 . S
C256 H322 0.961 . S
C256 H323 0.961 . S
C256 H324 0.959 . S
C257 C256 1.530 . S
C257 O285 1.412 . S
C257 H321 0.980 . S
C258 C259 1.288 . S
C258 C263 1.377 . S
C258 O285 1.393 . S
C259 C258 1.288 . S
C259 C260 1.369 . S
C259 H325 0.932 . S
C260 C259 1.369 . S
C260 C261 1.398 . S
C260 C264 1.527 . S
C261 C260 1.398 . S
C261 C262 1.380 . S
C261 C275 1.497 . S
C262 C261 1.380 . S
C262 C263 1.383 . S
C262 C265 1.603 . S
C263 C258 1.377 . S
C263 C262 1.383 . S
C263 H326 0.929 . S
C264 C260 1.527 . S
C264 H327 0.961 . S
C264 H328 0.959 . S
C264 H329 0.959 . S
C265 C262 1.603 . S
C265 H330 0.960 . S
C265 H331 0.962 . S
C265 H332 0.961 . S
C266 C233 1.587 . S
C266 C267 1.360 . S
C266 C279 1.412 . S
C267 C266 1.360 . S
C267 C268 1.365 . S
C267 H333 0.929 . S
C268 C243 1.553 . S
C268 C267 1.365 . S
C268 C269 1.404 . S
C269 C268 1.404 . S
C269 C270 1.395 . S
C269 C280 1.451 . S
C270 C269 1.395 . S
C270 C271 1.322 . S
C270 H334 0.930 . S
C271 C270 1.322 . S
C271 C272 1.459 . S
C271 H335 0.929 . S
C272 C271 1.459 . S
C272 C273 1.445 . S
C272 C281 1.395 . S
C273 C251 1.432 . S
C273 C272 1.445 . S
C273 C274 1.370 . S
C274 C273 1.370 . S
C274 C275 1.438 . S
C274 H336 0.930 . S
C275 C261 1.497 . S
C275 C274 1.438 . S
C275 C276 1.360 . S
C276 C275 1.360 . S
C276 C277 1.401 . S
C276 C281 1.446 . S
C277 C276 1.401 . S
C277 C278 1.347 . S
C277 H337 0.929 . S
C278 C277 1.347 . S
C278 C279 1.455 . S
C278 H338 0.930 . S
C279 C266 1.412 . S
C279 C278 1.455 . S
C279 C280 1.331 . S
C280 C269 1.451 . S
C280 C279 1.331 . S
C280 C281 1.497 . S
C281 C272 1.395 . S
C281 C276 1.446 . S
C281 C280 1.497 . S
C282 C283 1.582 . S
C282 H339 0.962 . S
C282 H340 0.959 . S
C282 H341 0.958 . S
C283 C282 1.582 . S
C283 O286 1.458 . S
C283 H312 0.980 . S
O284 C229 1.426 . S
O284 C230 1.334 . S
O285 C257 1.412 . S
O285 C258 1.393 . S
O286 C248 1.435 . S
O286 C283 1.458 . S
O287 C239 1.468 . S
O287 C240 1.408 . S
H288 C229 0.980 . S
H289 C228 0.959 . S
H290 C228 0.959 . S
H291 C228 0.960 . S
H292 C231 0.929 . S
H293 C235 0.929 . S
H294 C236 0.959 . S
H295 C236 0.961 . S
H296 C236 0.961 . S
H297 C237 0.960 . S
H298 C237 0.960 . S
H299 C237 0.961 . S
H300 C239 0.980 . S
H301 C238 0.961 . S
H302 C238 0.960 . S
H303 C238 0.959 . S
H304 C241 0.930 . S
H305 C245 0.931 . S
H306 C246 0.959 . S
H307 C246 0.961 . S
H308 C246 0.959 . S
H309 C247 0.960 . S
H310 C247 0.960 . S
H311 C247 0.960 . S
H312 C283 0.980 . S
H313 C249 0.930 . S
H314 C253 0.930 . S
H315 C254 0.961 . S
H316 C254 0.960 . S
H317 C254 0.958 . S
H318 C255 0.961 . S
H319 C255 0.960 . S
H320 C255 0.960 . S
H321 C257 0.980 . S
H322 C256 0.961 . S
H323 C256 0.961 . S
H324 C256 0.959 . S
H325 C259 0.932 . S
H326 C263 0.929 . S
H327 C264 0.961 . S
H328 C264 0.959 . S
H329 C264 0.959 . S
H330 C265 0.960 . S
H331 C265 0.962 . S
H332 C265 0.961 . S
H333 C267 0.929 . S
H334 C270 0.930 . S
H335 C271 0.929 . S
H336 C274 0.930 . S
H337 C277 0.929 . S
H338 C278 0.930 . S
H339 C282 0.962 . S
H340 C282 0.959 . S
H341 C282 0.958 . S
C342 C343 1.560 . S
C342 H403 0.959 . S
C342 H404 0.959 . S
C342 H405 0.960 . S
C343 C342 1.560 . S
C343 O398 1.426 . S
C343 H402 0.980 . S
C344 C345 1.407 . S
C344 C349 1.418 . S
C344 O398 1.334 . S
C345 C344 1.407 . S
C345 C346 1.360 . S
C345 H406 0.929 . S
C346 C345 1.360 . S
C346 C347 1.401 . S
C346 C350 1.527 . S
C347 C346 1.401 . S
C347 C348 1.405 . S
C347 C380 1.587 . S
C348 C347 1.405 . S
C348 C349 1.332 . S
C348 C351 1.496 . S
C349 C344 1.418 . S
C349 C348 1.332 . S
C349 H407 0.929 . S
C350 C346 1.527 . S
C350 H408 0.959 . S
C350 H409 0.961 . S
C350 H410 0.961 . S
C351 C348 1.496 . S
C351 H411 0.960 . S
C351 H412 0.960 . S
C351 H413 0.961 . S
C352 C353 1.517 . S
C352 H415 0.961 . S
C352 H416 0.960 . S
C352 H417 0.959 . S
C353 C352 1.517 . S
C353 O401 1.468 . S
C353 H414 0.980 . S
C354 C355 1.349 . S
C354 C359 1.367 . S
C354 O401 1.408 . S
C355 C354 1.349 . S
C355 C356 1.407 . S
C355 H418 0.930 . S
C356 C355 1.407 . S
C356 C357 1.449 . S
C356 C360 1.535 . S
C357 C356 1.449 . S
C357 C358 1.384 . S
C357 C382 1.553 . S
C358 C357 1.384 . S
C358 C359 1.364 . S
C358 C361 1.450 . S
C359 C354 1.367 . S
C359 C358 1.364 . S
C359 H419 0.931 . S
C360 C356 1.535 . S
C360 H420 0.959 . S
C360 H421 0.961 . S
C360 H422 0.959 . S
C361 C358 1.450 . S
C361 H423 0.960 . S
C361 H424 0.960 . S
C361 H425 0.960 . S
C362 C363 1.309 . S
C362 C367 1.304 . S
C362 O400 1.435 . S
C363 C362 1.309 . S
C363 C364 1.476 . S
C363 H427 0.930 . S
C364 C363 1.476 . S
C364 C365 1.400 . S
C364 C368 1.567 . S
C365 C364 1.400 . S
C365 C366 1.373 . S
C365 C387 1.432 . S
C366 C365 1.373 . S
C366 C367 1.339 . S
C366 C369 1.530 . S
C367 C362 1.304 . S
C367 C366 1.339 . S
C367 H428 0.930 . S
C368 C364 1.567 . S
C368 H429 0.961 . S
C368 H430 0.960 . S
C368 H431 0.958 . S
C369 C366 1.530 . S
C369 H432 0.961 . S
C369 H433 0.960 . S
C369 H434 0.960 . S
C370 C371 1.530 . S
C370 H436 0.961 . S
C370 H437 0.961 . S
C370 H438 0.959 . S
C371 C370 1.530 . S
C371 O399 1.412 . S
C371 H435 0.980 . S
C372 C373 1.288 . S
C372 C377 1.377 . S
C372 O399 1.393 . S
C373 C372 1.288 . S
C373 C374 1.369 . S
C373 H439 0.932 . S
C374 C373 1.369 . S
C374 C375 1.398 . S
C374 C378 1.527 . S
C375 C374 1.398 . S
C375 C376 1.380 . S
C375 C389 1.497 . S
C376 C375 1.380 . S
C376 C377 1.383 . S
C376 C379 1.603 . S
C377 C372 1.377 . S
C377 C376 1.383 . S
C377 H440 0.929 . S
C378 C374 1.527 . S
C378 H441 0.961 . S
C378 H442 0.959 . S
C378 H443 0.959 . S
C379 C376 1.603 . S
C379 H444 0.960 . S
C379 H445 0.962 . S
C379 H446 0.961 . S
C380 C347 1.587 . S
C380 C381 1.360 . S
C380 C393 1.412 . S
C381 C380 1.360 . S
C381 C382 1.365 . S
C381 H447 0.929 . S
C382 C357 1.553 . S
C382 C381 1.365 . S
C382 C383 1.404 . S
C383 C382 1.404 . S
C383 C384 1.395 . S
C383 C394 1.451 . S
C384 C383 1.395 . S
C384 C385 1.322 . S
C384 H448 0.930 . S
C385 C384 1.322 . S
C385 C386 1.459 . S
C385 H449 0.929 . S
C386 C385 1.459 . S
C386 C387 1.445 . S
C386 C395 1.395 . S
C387 C365 1.432 . S
C387 C386 1.445 . S
C387 C388 1.370 . S
C388 C387 1.370 . S
C388 C389 1.438 . S
C388 H450 0.930 . S
C389 C375 1.497 . S
C389 C388 1.438 . S
C389 C390 1.360 . S
C390 C389 1.360 . S
C390 C391 1.401 . S
C390 C395 1.446 . S
C391 C390 1.401 . S
C391 C392 1.347 . S
C391 H451 0.929 . S
C392 C391 1.347 . S
C392 C393 1.455 . S
C392 H452 0.930 . S
C393 C380 1.412 . S
C393 C392 1.455 . S
C393 C394 1.331 . S
C394 C383 1.451 . S
C394 C393 1.331 . S
C394 C395 1.497 . S
C395 C386 1.395 . S
C395 C390 1.446 . S
C395 C394 1.497 . S
C396 C397 1.582 . S
C396 H453 0.962 . S
C396 H454 0.959 . S
C396 H455 0.958 . S
C397 C396 1.582 . S
C397 O400 1.458 . S
C397 H426 0.980 . S
O398 C343 1.426 . S
O398 C344 1.334 . S
O399 C371 1.412 . S
O399 C372 1.393 . S
O400 C362 1.435 . S
O400 C397 1.458 . S
O401 C353 1.468 . S
O401 C354 1.408 . S
H402 C343 0.980 . S
H403 C342 0.959 . S
H404 C342 0.959 . S
H405 C342 0.960 . S
H406 C345 0.929 . S
H407 C349 0.929 . S
H408 C350 0.959 . S
H409 C350 0.961 . S
H410 C350 0.961 . S
H411 C351 0.960 . S
H412 C351 0.960 . S
H413 C351 0.961 . S
H414 C353 0.980 . S
H415 C352 0.961 . S
H416 C352 0.960 . S
H417 C352 0.959 . S
H418 C355 0.930 . S
H419 C359 0.931 . S
H420 C360 0.959 . S
H421 C360 0.961 . S
H422 C360 0.959 . S
H423 C361 0.960 . S
H424 C361 0.960 . S
H425 C361 0.960 . S
H426 C397 0.980 . S
H427 C363 0.930 . S
H428 C367 0.930 . S
H429 C368 0.961 . S
H430 C368 0.960 . S
H431 C368 0.958 . S
H432 C369 0.961 . S
H433 C369 0.960 . S
H434 C369 0.960 . S
H435 C371 0.980 . S
H436 C370 0.961 . S
H437 C370 0.961 . S
H438 C370 0.959 . S
H439 C373 0.932 . S
H440 C377 0.929 . S
H441 C378 0.961 . S
H442 C378 0.959 . S
H443 C378 0.959 . S
H444 C379 0.960 . S
H445 C379 0.962 . S
H446 C379 0.961 . S
H447 C381 0.929 . S
H448 C384 0.930 . S
H449 C385 0.929 . S
H450 C388 0.930 . S
H451 C391 0.929 . S
H452 C392 0.930 . S
H453 C396 0.962 . S
H454 C396 0.959 . S
H455 C396 0.958 . S
C456 C457 1.560 . S
C456 H517 0.959 . S
C456 H518 0.959 . S
C456 H519 0.960 . S
C457 C456 1.560 . S
C457 O512 1.426 . S
C457 H516 0.980 . S
C458 C459 1.407 . S
C458 C463 1.418 . S
C458 O512 1.334 . S
C459 C458 1.407 . S
C459 C460 1.360 . S
C459 H520 0.929 . S
C460 C459 1.360 . S
C460 C461 1.401 . S
C460 C464 1.527 . S
C461 C460 1.401 . S
C461 C462 1.405 . S
C461 C494 1.587 . S
C462 C461 1.405 . S
C462 C463 1.332 . S
C462 C465 1.496 . S
C463 C458 1.418 . S
C463 C462 1.332 . S
C463 H521 0.929 . S
C464 C460 1.527 . S
C464 H522 0.959 . S
C464 H523 0.961 . S
C464 H524 0.961 . S
C465 C462 1.496 . S
C465 H525 0.960 . S
C465 H526 0.960 . S
C465 H527 0.961 . S
C466 C467 1.517 . S
C466 H529 0.961 . S
C466 H530 0.960 . S
C466 H531 0.959 . S
C467 C466 1.517 . S
C467 O515 1.468 . S
C467 H528 0.980 . S
C468 C469 1.349 . S
C468 C473 1.367 . S
C468 O515 1.408 . S
C469 C468 1.349 . S
C469 C470 1.407 . S
C469 H532 0.930 . S
C470 C469 1.407 . S
C470 C471 1.449 . S
C470 C474 1.535 . S
C471 C470 1.449 . S
C471 C472 1.384 . S
C471 C496 1.553 . S
C472 C471 1.384 . S
C472 C473 1.364 . S
C472 C475 1.450 . S
C473 C468 1.367 . S
C473 C472 1.364 . S
C473 H533 0.931 . S
C474 C470 1.535 . S
C474 H534 0.959 . S
C474 H535 0.961 . S
C474 H536 0.959 . S
C475 C472 1.450 . S
C475 H537 0.960 . S
C475 H538 0.960 . S
C475 H539 0.960 . S
C476 C477 1.309 . S
C476 C481 1.304 . S
C476 O514 1.435 . S
C477 C476 1.309 . S
C477 C478 1.476 . S
C477 H541 0.930 . S
C478 C477 1.476 . S
C478 C479 1.400 . S
C478 C482 1.567 . S
C479 C478 1.400 . S
C479 C480 1.373 . S
C479 C501 1.432 . S
C480 C479 1.373 . S
C480 C481 1.339 . S
C480 C483 1.530 . S
C481 C476 1.304 . S
C481 C480 1.339 . S
C481 H542 0.930 . S
C482 C478 1.567 . S
C482 H543 0.961 . S
C482 H544 0.960 . S
C482 H545 0.958 . S
C483 C480 1.530 . S
C483 H546 0.961 . S
C483 H547 0.960 . S
C483 H548 0.960 . S
C484 C485 1.530 . S
C484 H550 0.961 . S
C484 H551 0.961 . S
C484 H552 0.959 . S
C485 C484 1.530 . S
C485 O513 1.412 . S
C485 H549 0.980 . S
C486 C487 1.288 . S
C486 C491 1.377 . S
C486 O513 1.393 . S
C487 C486 1.288 . S
C487 C488 1.369 . S
C487 H553 0.932 . S
C488 C487 1.369 . S
C488 C489 1.398 . S
C488 C492 1.527 . S
C489 C488 1.398 . S
C489 C490 1.380 . S
C489 C503 1.497 . S
C490 C489 1.380 . S
C490 C491 1.383 . S
C490 C493 1.603 . S
C491 C486 1.377 . S
C491 C490 1.383 . S
C491 H554 0.929 . S
C492 C488 1.527 . S
C492 H555 0.961 . S
C492 H556 0.959 . S
C492 H557 0.959 . S
C493 C490 1.603 . S
C493 H558 0.960 . S
C493 H559 0.962 . S
C493 H560 0.961 . S
C494 C461 1.587 . S
C494 C495 1.360 . S
C494 C507 1.412 . S
C495 C494 1.360 . S
C495 C496 1.365 . S
C495 H561 0.929 . S
C496 C471 1.553 . S
C496 C495 1.365 . S
C496 C497 1.404 . S
C497 C496 1.404 . S
C497 C498 1.395 . S
C497 C508 1.451 . S
C498 C497 1.395 . S
C498 C499 1.322 . S
C498 H562 0.930 . S
C499 C498 1.322 . S
C499 C500 1.459 . S
C499 H563 0.929 . S
C500 C499 1.459 . S
C500 C501 1.445 . S
C500 C509 1.395 . S
C501 C479 1.432 . S
C501 C500 1.445 . S
C501 C502 1.370 . S
C502 C501 1.370 . S
C502 C503 1.438 . S
C502 H564 0.930 . S
C503 C489 1.497 . S
C503 C502 1.438 . S
C503 C504 1.360 . S
C504 C503 1.360 . S
C504 C505 1.401 . S
C504 C509 1.446 . S
C505 C504 1.401 . S
C505 C506 1.347 . S
C505 H565 0.929 . S
C506 C505 1.347 . S
C506 C507 1.455 . S
C506 H566 0.930 . S
C507 C494 1.412 . S
C507 C506 1.455 . S
C507 C508 1.331 . S
C508 C497 1.451 . S
C508 C507 1.331 . S
C508 C509 1.497 . S
C509 C500 1.395 . S
C509 C504 1.446 . S
C509 C508 1.497 . S
C510 C511 1.582 . S
C510 H567 0.962 . S
C510 H568 0.959 . S
C510 H569 0.958 . S
C511 C510 1.582 . S
C511 O514 1.458 . S
C511 H540 0.980 . S
O512 C457 1.426 . S
O512 C458 1.334 . S
O513 C485 1.412 . S
O513 C486 1.393 . S
O514 C476 1.435 . S
O514 C511 1.458 . S
O515 C467 1.468 . S
O515 C468 1.408 . S
H516 C457 0.980 . S
H517 C456 0.959 . S
H518 C456 0.959 . S
H519 C456 0.960 . S
H520 C459 0.929 . S
H521 C463 0.929 . S
H522 C464 0.959 . S
H523 C464 0.961 . S
H524 C464 0.961 . S
H525 C465 0.960 . S
H526 C465 0.960 . S
H527 C465 0.961 . S
H528 C467 0.980 . S
H529 C466 0.961 . S
H530 C466 0.960 . S
H531 C466 0.959 . S
H532 C469 0.930 . S
H533 C473 0.931 . S
H534 C474 0.959 . S
H535 C474 0.961 . S
H536 C474 0.959 . S
H537 C475 0.960 . S
H538 C475 0.960 . S
H539 C475 0.960 . S
H540 C511 0.980 . S
H541 C477 0.930 . S
H542 C481 0.930 . S
H543 C482 0.961 . S
H544 C482 0.960 . S
H545 C482 0.958 . S
H546 C483 0.961 . S
H547 C483 0.960 . S
H548 C483 0.960 . S
H549 C485 0.980 . S
H550 C484 0.961 . S
H551 C484 0.961 . S
H552 C484 0.959 . S
H553 C487 0.932 . S
H554 C491 0.929 . S
H555 C492 0.961 . S
H556 C492 0.959 . S
H557 C492 0.959 . S
H558 C493 0.960 . S
H559 C493 0.962 . S
H560 C493 0.961 . S
H561 C495 0.929 . S
H562 C498 0.930 . S
H563 C499 0.929 . S
H564 C502 0.930 . S
H565 C505 0.929 . S
H566 C506 0.930 . S
H567 C510 0.962 . S
H568 C510 0.959 . S
H569 C510 0.958 . S
C570 C571 1.560 . S
C570 H631 0.959 . S
C570 H632 0.959 . S
C570 H633 0.960 . S
C571 C570 1.560 . S
C571 O626 1.426 . S
C571 H630 0.980 . S
C572 C573 1.407 . S
C572 C577 1.418 . S
C572 O626 1.334 . S
C573 C572 1.407 . S
C573 C574 1.360 . S
C573 H634 0.929 . S
C574 C573 1.360 . S
C574 C575 1.401 . S
C574 C578 1.527 . S
C575 C574 1.401 . S
C575 C576 1.405 . S
C575 C608 1.587 . S
C576 C575 1.405 . S
C576 C577 1.332 . S
C576 C579 1.496 . S
C577 C572 1.418 . S
C577 C576 1.332 . S
C577 H635 0.929 . S
C578 C574 1.527 . S
C578 H636 0.959 . S
C578 H637 0.961 . S
C578 H638 0.961 . S
C579 C576 1.496 . S
C579 H639 0.960 . S
C579 H640 0.960 . S
C579 H641 0.961 . S
C580 C581 1.517 . S
C580 H643 0.961 . S
C580 H644 0.960 . S
C580 H645 0.959 . S
C581 C580 1.517 . S
C581 O629 1.468 . S
C581 H642 0.980 . S
C582 C583 1.349 . S
C582 C587 1.367 . S
C582 O629 1.408 . S
C583 C582 1.349 . S
C583 C584 1.407 . S
C583 H646 0.930 . S
C584 C583 1.407 . S
C584 C585 1.449 . S
C584 C588 1.535 . S
C585 C584 1.449 . S
C585 C586 1.384 . S
C585 C610 1.553 . S
C586 C585 1.384 . S
C586 C587 1.364 . S
C586 C589 1.450 . S
C587 C582 1.367 . S
C587 C586 1.364 . S
C587 H647 0.931 . S
C588 C584 1.535 . S
C588 H648 0.959 . S
C588 H649 0.961 . S
C588 H650 0.959 . S
C589 C586 1.450 . S
C589 H651 0.960 . S
C589 H652 0.960 . S
C589 H653 0.960 . S
C590 C591 1.309 . S
C590 C595 1.304 . S
C590 O628 1.435 . S
C591 C590 1.309 . S
C591 C592 1.476 . S
C591 H655 0.930 . S
C592 C591 1.476 . S
C592 C593 1.400 . S
C592 C596 1.567 . S
C593 C592 1.400 . S
C593 C594 1.373 . S
C593 C615 1.432 . S
C594 C593 1.373 . S
C594 C595 1.339 . S
C594 C597 1.530 . S
C595 C590 1.304 . S
C595 C594 1.339 . S
C595 H656 0.930 . S
C596 C592 1.567 . S
C596 H657 0.961 . S
C596 H658 0.960 . S
C596 H659 0.958 . S
C597 C594 1.530 . S
C597 H660 0.961 . S
C597 H661 0.960 . S
C597 H662 0.960 . S
C598 C599 1.530 . S
C598 H664 0.961 . S
C598 H665 0.961 . S
C598 H666 0.959 . S
C599 C598 1.530 . S
C599 O627 1.412 . S
C599 H663 0.980 . S
C600 C601 1.288 . S
C600 C605 1.377 . S
C600 O627 1.393 . S
C601 C600 1.288 . S
C601 C602 1.369 . S
C601 H667 0.932 . S
C602 C601 1.369 . S
C602 C603 1.398 . S
C602 C606 1.527 . S
C603 C602 1.398 . S
C603 C604 1.380 . S
C603 C617 1.497 . S
C604 C603 1.380 . S
C604 C605 1.383 . S
C604 C607 1.603 . S
C605 C600 1.377 . S
C605 C604 1.383 . S
C605 H668 0.929 . S
C606 C602 1.527 . S
C606 H669 0.961 . S
C606 H670 0.959 . S
C606 H671 0.959 . S
C607 C604 1.603 . S
C607 H672 0.960 . S
C607 H673 0.962 . S
C607 H674 0.961 . S
C608 C575 1.587 . S
C608 C609 1.360 . S
C608 C621 1.412 . S
C609 C608 1.360 . S
C609 C610 1.365 . S
C609 H675 0.929 . S
C610 C585 1.553 . S
C610 C609 1.365 . S
C610 C611 1.404 . S
C611 C610 1.404 . S
C611 C612 1.395 . S
C611 C622 1.451 . S
C612 C611 1.395 . S
C612 C613 1.322 . S
C612 H676 0.930 . S
C613 C612 1.322 . S
C613 C614 1.459 . S
C613 H677 0.929 . S
C614 C613 1.459 . S
C614 C615 1.445 . S
C614 C623 1.395 . S
C615 C593 1.432 . S
C615 C614 1.445 . S
C615 C616 1.370 . S
C616 C615 1.370 . S
C616 C617 1.438 . S
C616 H678 0.930 . S
C617 C603 1.497 . S
C617 C616 1.438 . S
C617 C618 1.360 . S
C618 C617 1.360 . S
C618 C619 1.401 . S
C618 C623 1.446 . S
C619 C618 1.401 . S
C619 C620 1.347 . S
C619 H679 0.929 . S
C620 C619 1.347 . S
C620 C621 1.455 . S
C620 H680 0.930 . S
C621 C608 1.412 . S
C621 C620 1.455 . S
C621 C622 1.331 . S
C622 C611 1.451 . S
C622 C621 1.331 . S
C622 C623 1.497 . S
C623 C614 1.395 . S
C623 C618 1.446 . S
C623 C622 1.497 . S
C624 C625 1.582 . S
C624 H681 0.962 . S
C624 H682 0.959 . S
C624 H683 0.958 . S
C625 C624 1.582 . S
C625 O628 1.458 . S
C625 H654 0.980 . S
O626 C571 1.426 . S
O626 C572 1.334 . S
O627 C599 1.412 . S
O627 C600 1.393 . S
O628 C590 1.435 . S
O628 C625 1.458 . S
O629 C581 1.468 . S
O629 C582 1.408 . S
H630 C571 0.980 . S
H631 C570 0.959 . S
H632 C570 0.959 . S
H633 C570 0.960 . S
H634 C573 0.929 . S
H635 C577 0.929 . S
H636 C578 0.959 . S
H637 C578 0.961 . S
H638 C578 0.961 . S
H639 C579 0.960 . S
H640 C579 0.960 . S
H641 C579 0.961 . S
H642 C581 0.980 . S
H643 C580 0.961 . S
H644 C580 0.960 . S
H645 C580 0.959 . S
H646 C583 0.930 . S
H647 C587 0.931 . S
H648 C588 0.959 . S
H649 C588 0.961 . S
H650 C588 0.959 . S
H651 C589 0.960 . S
H652 C589 0.960 . S
H653 C589 0.960 . S
H654 C625 0.980 . S
H655 C591 0.930 . S
H656 C595 0.930 . S
H657 C596 0.961 . S
H658 C596 0.960 . S
H659 C596 0.958 . S
H660 C597 0.961 . S
H661 C597 0.960 . S
H662 C597 0.960 . S
H663 C599 0.980 . S
H664 C598 0.961 . S
H665 C598 0.961 . S
H666 C598 0.959 . S
H667 C601 0.932 . S
H668 C605 0.929 . S
H669 C606 0.961 . S
H670 C606 0.959 . S
H671 C606 0.959 . S
H672 C607 0.960 . S
H673 C607 0.962 . S
H674 C607 0.961 . S
H675 C609 0.929 . S
H676 C612 0.930 . S
H677 C613 0.929 . S
H678 C616 0.930 . S
H679 C619 0.929 . S
H680 C620 0.930 . S
H681 C624 0.962 . S
H682 C624 0.959 . S
H683 C624 0.958 . S
C684 C685 1.560 . S
C684 H745 0.959 . S
C684 H746 0.959 . S
C684 H747 0.960 . S
C685 C684 1.560 . S
C685 O740 1.426 . S
C685 H744 0.980 . S
C686 C687 1.407 . S
C686 C691 1.418 . S
C686 O740 1.334 . S
C687 C686 1.407 . S
C687 C688 1.360 . S
C687 H748 0.929 . S
C688 C687 1.360 . S
C688 C689 1.401 . S
C688 C692 1.527 . S
C689 C688 1.401 . S
C689 C690 1.405 . S
C689 C722 1.587 . S
C690 C689 1.405 . S
C690 C691 1.332 . S
C690 C693 1.496 . S
C691 C686 1.418 . S
C691 C690 1.332 . S
C691 H749 0.929 . S
C692 C688 1.527 . S
C692 H750 0.959 . S
C692 H751 0.961 . S
C692 H752 0.961 . S
C693 C690 1.496 . S
C693 H753 0.960 . S
C693 H754 0.960 . S
C693 H755 0.961 . S
C694 C695 1.517 . S
C694 H757 0.961 . S
C694 H758 0.960 . S
C694 H759 0.959 . S
C695 C694 1.517 . S
C695 O743 1.468 . S
C695 H756 0.980 . S
C696 C697 1.349 . S
C696 C701 1.367 . S
C696 O743 1.408 . S
C697 C696 1.349 . S
C697 C698 1.407 . S
C697 H760 0.930 . S
C698 C697 1.407 . S
C698 C699 1.449 . S
C698 C702 1.535 . S
C699 C698 1.449 . S
C699 C700 1.384 . S
C699 C724 1.553 . S
C700 C699 1.384 . S
C700 C701 1.364 . S
C700 C703 1.450 . S
C701 C696 1.367 . S
C701 C700 1.364 . S
C701 H761 0.931 . S
C702 C698 1.535 . S
C702 H762 0.959 . S
C702 H763 0.961 . S
C702 H764 0.959 . S
C703 C700 1.450 . S
C703 H765 0.960 . S
C703 H766 0.960 . S
C703 H767 0.960 . S
C704 C705 1.309 . S
C704 C709 1.304 . S
C704 O742 1.435 . S
C705 C704 1.309 . S
C705 C706 1.476 . S
C705 H769 0.930 . S
C706 C705 1.476 . S
C706 C707 1.400 . S
C706 C710 1.567 . S
C707 C706 1.400 . S
C707 C708 1.373 . S
C707 C729 1.432 . S
C708 C707 1.373 . S
C708 C709 1.339 . S
C708 C711 1.530 . S
C709 C704 1.304 . S
C709 C708 1.339 . S
C709 H770 0.930 . S
C710 C706 1.567 . S
C710 H771 0.961 . S
C710 H772 0.960 . S
C710 H773 0.958 . S
C711 C708 1.530 . S
C711 H774 0.961 . S
C711 H775 0.960 . S
C711 H776 0.960 . S
C712 C713 1.530 . S
C712 H778 0.961 . S
C712 H779 0.961 . S
C712 H780 0.959 . S
C713 C712 1.530 . S
C713 O741 1.412 . S
C713 H777 0.980 . S
C714 C715 1.288 . S
C714 C719 1.377 . S
C714 O741 1.393 . S
C715 C714 1.288 . S
C715 C716 1.369 . S
C715 H781 0.932 . S
C716 C715 1.369 . S
C716 C717 1.398 . S
C716 C720 1.527 . S
C717 C716 1.398 . S
C717 C718 1.380 . S
C717 C731 1.497 . S
C718 C717 1.380 . S
C718 C719 1.383 . S
C718 C721 1.603 . S
C719 C714 1.377 . S
C719 C718 1.383 . S
C719 H782 0.929 . S
C720 C716 1.527 . S
C720 H783 0.961 . S
C720 H784 0.959 . S
C720 H785 0.959 . S
C721 C718 1.603 . S
C721 H786 0.960 . S
C721 H787 0.962 . S
C721 H788 0.961 . S
C722 C689 1.587 . S
C722 C723 1.360 . S
C722 C735 1.412 . S
C723 C722 1.360 . S
C723 C724 1.365 . S
C723 H789 0.929 . S
C724 C699 1.553 . S
C724 C723 1.365 . S
C724 C725 1.404 . S
C725 C724 1.404 . S
C725 C726 1.395 . S
C725 C736 1.451 . S
C726 C725 1.395 . S
C726 C727 1.322 . S
C726 H790 0.930 . S
C727 C726 1.322 . S
C727 C728 1.459 . S
C727 H791 0.929 . S
C728 C727 1.459 . S
C728 C729 1.445 . S
C728 C737 1.395 . S
C729 C707 1.432 . S
C729 C728 1.445 . S
C729 C730 1.370 . S
C730 C729 1.370 . S
C730 C731 1.438 . S
C730 H792 0.930 . S
C731 C717 1.497 . S
C731 C730 1.438 . S
C731 C732 1.360 . S
C732 C731 1.360 . S
C732 C733 1.401 . S
C732 C737 1.446 . S
C733 C732 1.401 . S
C733 C734 1.347 . S
C733 H793 0.929 . S
C734 C733 1.347 . S
C734 C735 1.455 . S
C734 H794 0.930 . S
C735 C722 1.412 . S
C735 C734 1.455 . S
C735 C736 1.331 . S
C736 C725 1.451 . S
C736 C735 1.331 . S
C736 C737 1.497 . S
C737 C728 1.395 . S
C737 C732 1.446 . S
C737 C736 1.497 . S
C738 C739 1.582 . S
C738 H795 0.962 . S
C738 H796 0.959 . S
C738 H797 0.958 . S
C739 C738 1.582 . S
C739 O742 1.458 . S
C739 H768 0.980 . S
O740 C685 1.426 . S
O740 C686 1.334 . S
O741 C713 1.412 . S
O741 C714 1.393 . S
O742 C704 1.435 . S
O742 C739 1.458 . S
O743 C695 1.468 . S
O743 C696 1.408 . S
H744 C685 0.980 . S
H745 C684 0.959 . S
H746 C684 0.959 . S
H747 C684 0.960 . S
H748 C687 0.929 . S
H749 C691 0.929 . S
H750 C692 0.959 . S
H751 C692 0.961 . S
H752 C692 0.961 . S
H753 C693 0.960 . S
H754 C693 0.960 . S
H755 C693 0.961 . S
H756 C695 0.980 . S
H757 C694 0.961 . S
H758 C694 0.960 . S
H759 C694 0.959 . S
H760 C697 0.930 . S
H761 C701 0.931 . S
H762 C702 0.959 . S
H763 C702 0.961 . S
H764 C702 0.959 . S
H765 C703 0.960 . S
H766 C703 0.960 . S
H767 C703 0.960 . S
H768 C739 0.980 . S
H769 C705 0.930 . S
H770 C709 0.930 . S
H771 C710 0.961 . S
H772 C710 0.960 . S
H773 C710 0.958 . S
H774 C711 0.961 . S
H775 C711 0.960 . S
H776 C711 0.960 . S
H777 C713 0.980 . S
H778 C712 0.961 . S
H779 C712 0.961 . S
H780 C712 0.959 . S
H781 C715 0.932 . S
H782 C719 0.929 . S
H783 C720 0.961 . S
H784 C720 0.959 . S
H785 C720 0.959 . S
H786 C721 0.960 . S
H787 C721 0.962 . S
H788 C721 0.961 . S
H789 C723 0.929 . S
H790 C726 0.930 . S
H791 C727 0.929 . S
H792 C730 0.930 . S
H793 C733 0.929 . S
H794 C734 0.930 . S
H795 C738 0.962 . S
H796 C738 0.959 . S
H797 C738 0.958 . S
C798 C799 1.560 . S
C798 H859 0.959 . S
C798 H860 0.959 . S
C798 H861 0.960 . S
C799 C798 1.560 . S
C799 O854 1.426 . S
C799 H858 0.980 . S
C800 C801 1.407 . S
C800 C805 1.418 . S
C800 O854 1.334 . S
C801 C800 1.407 . S
C801 C802 1.360 . S
C801 H862 0.929 . S
C802 C801 1.360 . S
C802 C803 1.401 . S
C802 C806 1.527 . S
C803 C802 1.401 . S
C803 C804 1.405 . S
C803 C836 1.587 . S
C804 C803 1.405 . S
C804 C805 1.332 . S
C804 C807 1.496 . S
C805 C800 1.418 . S
C805 C804 1.332 . S
C805 H863 0.929 . S
C806 C802 1.527 . S
C806 H864 0.959 . S
C806 H865 0.961 . S
C806 H866 0.961 . S
C807 C804 1.496 . S
C807 H867 0.960 . S
C807 H868 0.960 . S
C807 H869 0.961 . S
C808 C809 1.517 . S
C808 H871 0.961 . S
C808 H872 0.960 . S
C808 H873 0.959 . S
C809 C808 1.517 . S
C809 O857 1.468 . S
C809 H870 0.980 . S
C810 C811 1.349 . S
C810 C815 1.367 . S
C810 O857 1.408 . S
C811 C810 1.349 . S
C811 C812 1.407 . S
C811 H874 0.930 . S
C812 C811 1.407 . S
C812 C813 1.449 . S
C812 C816 1.535 . S
C813 C812 1.449 . S
C813 C814 1.384 . S
C813 C838 1.553 . S
C814 C813 1.384 . S
C814 C815 1.364 . S
C814 C817 1.450 . S
C815 C810 1.367 . S
C815 C814 1.364 . S
C815 H875 0.931 . S
C816 C812 1.535 . S
C816 H876 0.959 . S
C816 H877 0.961 . S
C816 H878 0.959 . S
C817 C814 1.450 . S
C817 H879 0.960 . S
C817 H880 0.960 . S
C817 H881 0.960 . S
C818 C819 1.309 . S
C818 C823 1.304 . S
C818 O856 1.435 . S
C819 C818 1.309 . S
C819 C820 1.476 . S
C819 H883 0.930 . S
C820 C819 1.476 . S
C820 C821 1.400 . S
C820 C824 1.567 . S
C821 C820 1.400 . S
C821 C822 1.373 . S
C821 C843 1.432 . S
C822 C821 1.373 . S
C822 C823 1.339 . S
C822 C825 1.530 . S
C823 C818 1.304 . S
C823 C822 1.339 . S
C823 H884 0.930 . S
C824 C820 1.567 . S
C824 H885 0.961 . S
C824 H886 0.960 . S
C824 H887 0.958 . S
C825 C822 1.530 . S
C825 H888 0.961 . S
C825 H889 0.960 . S
C825 H890 0.960 . S
C826 C827 1.530 . S
C826 H892 0.961 . S
C826 H893 0.961 . S
C826 H894 0.959 . S
C827 C826 1.530 . S
C827 O855 1.412 . S
C827 H891 0.980 . S
C828 C829 1.288 . S
C828 C833 1.377 . S
C828 O855 1.393 . S
C829 C828 1.288 . S
C829 C830 1.369 . S
C829 H895 0.932 . S
C830 C829 1.369 . S
C830 C831 1.398 . S
C830 C834 1.527 . S
C831 C830 1.398 . S
C831 C832 1.380 . S
C831 C845 1.497 . S
C832 C831 1.380 . S
C832 C833 1.383 . S
C832 C835 1.603 . S
C833 C828 1.377 . S
C833 C832 1.383 . S
C833 H896 0.929 . S
C834 C830 1.527 . S
C834 H897 0.961 . S
C834 H898 0.959 . S
C834 H899 0.959 . S
C835 C832 1.603 . S
C835 H900 0.960 . S
C835 H901 0.962 . S
C835 H902 0.961 . S
C836 C803 1.587 . S
C836 C837 1.360 . S
C836 C849 1.412 . S
C837 C836 1.360 . S
C837 C838 1.365 . S
C837 H903 0.929 . S
C838 C813 1.553 . S
C838 C837 1.365 . S
C838 C839 1.404 . S
C839 C838 1.404 . S
C839 C840 1.395 . S
C839 C850 1.451 . S
C840 C839 1.395 . S
C840 C841 1.322 . S
C840 H904 0.930 . S
C841 C840 1.322 . S
C841 C842 1.459 . S
C841 H905 0.929 . S
C842 C841 1.459 . S
C842 C843 1.445 . S
C842 C851 1.395 . S
C843 C821 1.432 . S
C843 C842 1.445 . S
C843 C844 1.370 . S
C844 C843 1.370 . S
C844 C845 1.438 . S
C844 H906 0.930 . S
C845 C831 1.497 . S
C845 C844 1.438 . S
C845 C846 1.360 . S
C846 C845 1.360 . S
C846 C847 1.401 . S
C846 C851 1.446 . S
C847 C846 1.401 . S
C847 C848 1.347 . S
C847 H907 0.929 . S
C848 C847 1.347 . S
C848 C849 1.455 . S
C848 H908 0.930 . S
C849 C836 1.412 . S
C849 C848 1.455 . S
C849 C850 1.331 . S
C850 C839 1.451 . S
C850 C849 1.331 . S
C850 C851 1.497 . S
C851 C842 1.395 . S
C851 C846 1.446 . S
C851 C850 1.497 . S
C852 C853 1.582 . S
C852 H909 0.962 . S
C852 H910 0.959 . S
C852 H911 0.958 . S
C853 C852 1.582 . S
C853 O856 1.458 . S
C853 H882 0.980 . S
O854 C799 1.426 . S
O854 C800 1.334 . S
O855 C827 1.412 . S
O855 C828 1.393 . S
O856 C818 1.435 . S
O856 C853 1.458 . S
O857 C809 1.468 . S
O857 C810 1.408 . S
H858 C799 0.980 . S
H859 C798 0.959 . S
H860 C798 0.959 . S
H861 C798 0.960 . S
H862 C801 0.929 . S
H863 C805 0.929 . S
H864 C806 0.959 . S
H865 C806 0.961 . S
H866 C806 0.961 . S
H867 C807 0.960 . S
H868 C807 0.960 . S
H869 C807 0.961 . S
H870 C809 0.980 . S
H871 C808 0.961 . S
H872 C808 0.960 . S
H873 C808 0.959 . S
H874 C811 0.930 . S
H875 C815 0.931 . S
H876 C816 0.959 . S
H877 C816 0.961 . S
H878 C816 0.959 . S
H879 C817 0.960 . S
H880 C817 0.960 . S
H881 C817 0.960 . S
H882 C853 0.980 . S
H883 C819 0.930 . S
H884 C823 0.930 . S
H885 C824 0.961 . S
H886 C824 0.960 . S
H887 C824 0.958 . S
H888 C825 0.961 . S
H889 C825 0.960 . S
H890 C825 0.960 . S
H891 C827 0.980 . S
H892 C826 0.961 . S
H893 C826 0.961 . S
H894 C826 0.959 . S
H895 C829 0.932 . S
H896 C833 0.929 . S
H897 C834 0.961 . S
H898 C834 0.959 . S
H899 C834 0.959 . S
H900 C835 0.960 . S
H901 C835 0.962 . S
H902 C835 0.961 . S
H903 C837 0.929 . S
H904 C840 0.930 . S
H905 C841 0.929 . S
H906 C844 0.930 . S
H907 C847 0.929 . S
H908 C848 0.930 . S
H909 C852 0.962 . S
H910 C852 0.959 . S
H911 C852 0.958 . S
C912 C913 1.443 . S
C912 N916 1.376 . S
C912 C950 1.389 . S
C913 C912 1.443 . S
C913 C914 1.340 . S
C913 H953 0.951 . S
C914 C913 1.340 . S
C914 C915 1.439 . S
C914 H954 0.950 . S
C915 C914 1.439 . S
C915 N916 1.374 . S
C915 C949 1.395 . S
N916 C912 1.376 . S
N916 C915 1.374 . S
N916 Co917 2.008 . S
Co917 N916 2.008 . S
Co917 N918 1.995 1_455 S
Co917 N923 2.008 1_455 S
Co917 N928 1.995 . S
Co917 N933 2.282 1_455 S
Co917 N939 2.282 . S
N918 Co917 1.995 1_655 S
N918 C919 1.376 . S
N918 C922 1.383 . S
C919 N918 1.376 . S
C919 C920 1.446 . S
C919 C949 1.391 1_655 S
C920 C919 1.446 . S
C920 C921 1.339 . S
C920 H955 0.949 . S
C921 C920 1.339 . S
C921 C922 1.439 . S
C921 H956 0.950 . S
C922 N918 1.383 . S
C922 C921 1.439 . S
C922 C951 1.392 . S
N923 Co917 2.008 1_655 S
N923 C924 1.376 . S
N923 C927 1.374 . S
C924 N923 1.376 . S
C924 C925 1.443 . S
C924 C951 1.389 . S
C925 C924 1.443 . S
C925 C926 1.340 . S
C925 H957 0.951 . S
C926 C925 1.340 . S
C926 C927 1.439 . S
C926 H958 0.950 . S
C927 N923 1.374 . S
C927 C926 1.439 . S
C927 C952 1.395 1_655 S
N928 Co917 1.995 . S
N928 C929 1.376 . S
N928 C932 1.383 . S
C929 N928 1.376 . S
C929 C930 1.446 . S
C929 C952 1.391 . S
C930 C929 1.446 . S
C930 C931 1.339 . S
C930 H959 0.949 . S
C931 C930 1.339 . S
C931 C932 1.439 . S
C931 H960 0.950 . S
C932 N928 1.383 . S
C932 C931 1.439 . S
C932 C950 1.392 . S
N933 Co917 2.282 1_655 S
N933 C936 1.332 . S
N933 C938 1.332 . S
C934 C935 1.386 . S
C934 C937 1.388 . S
C935 C934 1.386 . S
C935 C936 1.382 . S
C935 H961 0.950 . S
C936 N933 1.332 . S
C936 C935 1.382 . S
C936 H947 0.952 . S
C937 C934 1.388 . S
C937 C938 1.382 . S
C937 H962 0.950 . S
C938 N933 1.332 . S
C938 C937 1.382 . S
C938 H948 0.948 . S
N939 Co917 2.282 . S
N939 C943 1.332 . S
N939 C944 1.332 . S
C940 C941 1.388 . S
C940 C944 1.382 . S
C940 H963 0.950 . S
C941 C940 1.388 . S
C941 C942 1.386 . S
C942 C941 1.386 . S
C942 C943 1.382 . S
C942 H964 0.950 . S
C943 N939 1.332 . S
C943 C942 1.382 . S
C943 H945 0.952 . S
C944 N939 1.332 . S
C944 C940 1.382 . S
C944 H946 0.948 . S
H945 C943 0.952 . S
H946 C944 0.948 . S
H947 C936 0.952 . S
H948 C938 0.948 . S
C949 C915 1.395 . S
C949 C919 1.391 1_455 S
C950 C912 1.389 . S
C950 C932 1.392 . S
C951 C922 1.392 . S
C951 C924 1.389 . S
C952 C927 1.395 1_455 S
C952 C929 1.391 . S
H953 C913 0.951 . S
H954 C914 0.950 . S
H955 C920 0.949 . S
H956 C921 0.950 . S
H957 C925 0.951 . S
H958 C926 0.950 . S
H959 C930 0.949 . S
H960 C931 0.950 . S
H961 C935 0.950 . S
H962 C937 0.950 . S
H963 C940 0.950 . S
H964 C942 0.950 . S
C965 C966 1.443 . S
C965 N969 1.376 . S
C965 C1003 1.389 . S
C966 C965 1.443 . S
C966 C967 1.340 . S
C966 H1006 0.951 . S
C967 C966 1.340 . S
C967 C968 1.439 . S
C967 H1007 0.950 . S
C968 C967 1.439 . S
C968 N969 1.374 . S
C968 C1002 1.395 . S
N969 C965 1.376 . S
N969 C968 1.374 . S
N969 Co970 2.008 . S
Co970 N969 2.008 . S
Co970 N971 1.995 1_545 S
Co970 N976 2.008 1_545 S
Co970 N981 1.995 . S
Co970 N986 2.282 1_545 S
Co970 N992 2.282 . S
N971 Co970 1.995 1_565 S
N971 C972 1.376 . S
N971 C975 1.383 . S
C972 N971 1.376 . S
C972 C973 1.446 . S
C972 C1002 1.391 1_565 S
C973 C972 1.446 . S
C973 C974 1.339 . S
C973 H1008 0.949 . S
C974 C973 1.339 . S
C974 C975 1.439 . S
C974 H1009 0.950 . S
C975 N971 1.383 . S
C975 C974 1.439 . S
C975 C1004 1.392 . S
N976 Co970 2.008 1_565 S
N976 C977 1.376 . S
N976 C980 1.374 . S
C977 N976 1.376 . S
C977 C978 1.443 . S
C977 C1004 1.389 . S
C978 C977 1.443 . S
C978 C979 1.340 . S
C978 H1010 0.951 . S
C979 C978 1.340 . S
C979 C980 1.439 . S
C979 H1011 0.950 . S
C980 N976 1.374 . S
C980 C979 1.439 . S
C980 C1005 1.395 1_565 S
N981 Co970 1.995 . S
N981 C982 1.376 . S
N981 C985 1.383 . S
C982 N981 1.376 . S
C982 C983 1.446 . S
C982 C1005 1.391 . S
C983 C982 1.446 . S
C983 C984 1.339 . S
C983 H1012 0.949 . S
C984 C983 1.339 . S
C984 C985 1.439 . S
C984 H1013 0.950 . S
C985 N981 1.383 . S
C985 C984 1.439 . S
C985 C1003 1.392 . S
N986 Co970 2.282 1_565 S
N986 C989 1.332 . S
N986 C991 1.332 . S
C987 C988 1.386 . S
C987 C990 1.388 . S
C988 C987 1.386 . S
C988 C989 1.382 . S
C988 H1014 0.950 . S
C989 N986 1.332 . S
C989 C988 1.382 . S
C989 H1000 0.952 . S
C990 C987 1.388 . S
C990 C991 1.382 . S
C990 H1015 0.950 . S
C991 N986 1.332 . S
C991 C990 1.382 . S
C991 H1001 0.948 . S
N992 Co970 2.282 . S
N992 C996 1.332 . S
N992 C997 1.332 . S
C993 C994 1.388 . S
C993 C997 1.382 . S
C993 H1016 0.950 . S
C994 C993 1.388 . S
C994 C995 1.386 . S
C995 C994 1.386 . S
C995 C996 1.382 . S
C995 H1017 0.950 . S
C996 N992 1.332 . S
C996 C995 1.382 . S
C996 H998 0.952 . S
C997 N992 1.332 . S
C997 C993 1.382 . S
C997 H999 0.948 . S
H998 C996 0.952 . S
H999 C997 0.948 . S
H1000 C989 0.952 . S
H1001 C991 0.948 . S
C1002 C968 1.395 . S
C1002 C972 1.391 1_545 S
C1003 C965 1.389 . S
C1003 C985 1.392 . S
C1004 C975 1.392 . S
C1004 C977 1.389 . S
C1005 C980 1.395 1_545 S
C1005 C982 1.391 . S
H1006 C966 0.951 . S
H1007 C967 0.950 . S
H1008 C973 0.949 . S
H1009 C974 0.950 . S
H1010 C978 0.951 . S
H1011 C979 0.950 . S
H1012 C983 0.949 . S
H1013 C984 0.950 . S
H1014 C988 0.950 . S
H1015 C990 0.950 . S
H1016 C993 0.950 . S
H1017 C995 0.950 . S
C1018 C1019 1.443 . S
C1018 N1022 1.376 . S
C1018 C1056 1.389 . S
C1019 C1018 1.443 . S
C1019 C1020 1.340 . S
C1019 H1059 0.951 . S
C1020 C1019 1.340 . S
C1020 C1021 1.439 . S
C1020 H1060 0.950 . S
C1021 C1020 1.439 . S
C1021 N1022 1.374 . S
C1021 C1055 1.395 . S
N1022 C1018 1.376 . S
N1022 C1021 1.374 . S
N1022 Co1023 2.008 . S
Co1023 N1022 2.008 . S
Co1023 N1024 1.995 1_455 S
Co1023 N1029 2.008 1_455 S
Co1023 N1034 1.995 . S
Co1023 N1039 2.282 1_455 S
Co1023 N1045 2.282 . S
N1024 Co1023 1.995 1_655 S
N1024 C1025 1.376 . S
N1024 C1028 1.383 . S
C1025 N1024 1.376 . S
C1025 C1026 1.446 . S
C1025 C1055 1.391 1_655 S
C1026 C1025 1.446 . S
C1026 C1027 1.339 . S
C1026 H1061 0.949 . S
C1027 C1026 1.339 . S
C1027 C1028 1.439 . S
C1027 H1062 0.950 . S
C1028 N1024 1.383 . S
C1028 C1027 1.439 . S
C1028 C1057 1.392 . S
N1029 Co1023 2.008 1_655 S
N1029 C1030 1.376 . S
N1029 C1033 1.374 . S
C1030 N1029 1.376 . S
C1030 C1031 1.443 . S
C1030 C1057 1.389 . S
C1031 C1030 1.443 . S
C1031 C1032 1.340 . S
C1031 H1063 0.951 . S
C1032 C1031 1.340 . S
C1032 C1033 1.439 . S
C1032 H1064 0.950 . S
C1033 N1029 1.374 . S
C1033 C1032 1.439 . S
C1033 C1058 1.397 1_655 S
N1034 Co1023 1.995 . S
N1034 C1035 1.376 . S
N1034 C1038 1.383 . S
C1035 N1034 1.376 . S
C1035 C1036 1.446 . S
C1035 C1058 1.389 . S
C1036 C1035 1.446 . S
C1036 C1037 1.339 . S
C1036 H1065 0.949 . S
C1037 C1036 1.339 . S
C1037 C1038 1.439 . S
C1037 H1066 0.950 . S
C1038 N1034 1.383 . S
C1038 C1037 1.439 . S
C1038 C1056 1.392 . S
N1039 Co1023 2.282 1_655 S
N1039 C1042 1.332 . S
N1039 C1044 1.332 . S
C1040 C1041 1.386 . S
C1040 C1043 1.388 . S
C1041 C1040 1.386 . S
C1041 C1042 1.382 . S
C1041 H1067 0.950 . S
C1042 N1039 1.332 . S
C1042 C1041 1.382 . S
C1042 H1053 0.952 . S
C1043 C1040 1.388 . S
C1043 C1044 1.382 . S
C1043 H1068 0.950 . S
C1044 N1039 1.332 . S
C1044 C1043 1.382 . S
C1044 H1054 0.948 . S
N1045 Co1023 2.282 . S
N1045 C1049 1.332 . S
N1045 C1050 1.332 . S
C1046 C1047 1.388 . S
C1046 C1050 1.382 . S
C1046 H1069 0.950 . S
C1047 C1046 1.388 . S
C1047 C1048 1.386 . S
C1048 C1047 1.386 . S
C1048 C1049 1.382 . S
C1048 H1070 0.950 . S
C1049 N1045 1.332 . S
C1049 C1048 1.382 . S
C1049 H1051 0.952 . S
C1050 N1045 1.332 . S
C1050 C1046 1.382 . S
C1050 H1052 0.948 . S
H1051 C1049 0.952 . S
H1052 C1050 0.948 . S
H1053 C1042 0.952 . S
H1054 C1044 0.948 . S
C1055 C1021 1.395 . S
C1055 C1025 1.391 1_455 S
C1056 C1018 1.389 . S
C1056 C1038 1.392 . S
C1057 C1028 1.392 . S
C1057 C1030 1.389 . S
C1058 C1033 1.397 1_455 S
C1058 C1035 1.389 . S
H1059 C1019 0.951 . S
H1060 C1020 0.950 . S
H1061 C1026 0.949 . S
H1062 C1027 0.950 . S
H1063 C1031 0.951 . S
H1064 C1032 0.950 . S
H1065 C1036 0.949 . S
H1066 C1037 0.950 . S
H1067 C1041 0.950 . S
H1068 C1043 0.950 . S
H1069 C1046 0.950 . S
H1070 C1048 0.950 . S
C1071 C1072 1.443 . S
C1071 N1075 1.376 . S
C1071 C1109 1.389 . S
C1072 C1071 1.443 . S
C1072 C1073 1.340 . S
C1072 H1112 0.951 . S
C1073 C1072 1.340 . S
C1073 C1074 1.439 . S
C1073 H1113 0.950 . S
C1074 C1073 1.439 . S
C1074 N1075 1.374 . S
C1074 C1108 1.395 1_565 S
N1075 C1071 1.376 . S
N1075 C1074 1.374 . S
N1075 Co1076 2.008 1_565 S
Co1076 N1075 2.008 1_545 S
Co1076 N1077 1.995 . S
Co1076 N1082 2.008 . S
Co1076 N1087 1.995 1_545 S
Co1076 N1092 2.282 . S
Co1076 N1098 2.282 1_545 S
N1077 Co1076 1.995 . S
N1077 C1078 1.376 . S
N1077 C1081 1.383 . S
C1078 N1077 1.376 . S
C1078 C1079 1.446 . S
C1078 C1108 1.391 . S
C1079 C1078 1.446 . S
C1079 C1080 1.339 . S
C1079 H1114 0.949 . S
C1080 C1079 1.339 . S
C1080 C1081 1.439 . S
C1080 H1115 0.950 . S
C1081 N1077 1.383 . S
C1081 C1080 1.439 . S
C1081 C1110 1.392 . S
N1082 Co1076 2.008 . S
N1082 C1083 1.376 . S
N1082 C1086 1.374 . S
C1083 N1082 1.376 . S
C1083 C1084 1.443 . S
C1083 C1110 1.389 . S
C1084 C1083 1.443 . S
C1084 C1085 1.340 . S
C1084 H1116 0.951 . S
C1085 C1084 1.340 . S
C1085 C1086 1.439 . S
C1085 H1117 0.950 . S
C1086 N1082 1.374 . S
C1086 C1085 1.439 . S
C1086 C1111 1.395 . S
N1087 Co1076 1.995 1_565 S
N1087 C1088 1.376 . S
N1087 C1091 1.383 . S
C1088 N1087 1.376 . S
C1088 C1089 1.446 . S
C1088 C1111 1.391 1_565 S
C1089 C1088 1.446 . S
C1089 C1090 1.339 . S
C1089 H1118 0.949 . S
C1090 C1089 1.339 . S
C1090 C1091 1.439 . S
C1090 H1119 0.950 . S
C1091 N1087 1.383 . S
C1091 C1090 1.439 . S
C1091 C1109 1.392 . S
N1092 Co1076 2.282 . S
N1092 C1095 1.332 . S
N1092 C1097 1.332 . S
C1093 C1094 1.386 . S
C1093 C1096 1.388 . S
C1094 C1093 1.386 . S
C1094 C1095 1.382 . S
C1094 H1120 0.950 . S
C1095 N1092 1.332 . S
C1095 C1094 1.382 . S
C1095 H1106 0.952 . S
C1096 C1093 1.388 . S
C1096 C1097 1.382 . S
C1096 H1121 0.950 . S
C1097 N1092 1.332 . S
C1097 C1096 1.382 . S
C1097 H1107 0.948 . S
N1098 Co1076 2.282 1_565 S
N1098 C1102 1.332 . S
N1098 C1103 1.332 . S
C1099 C1100 1.388 . S
C1099 C1103 1.382 . S
C1099 H1122 0.950 . S
C1100 C1099 1.388 . S
C1100 C1101 1.386 . S
C1101 C1100 1.386 . S
C1101 C1102 1.382 . S
C1101 H1123 0.950 . S
C1102 N1098 1.332 . S
C1102 C1101 1.382 . S
C1102 H1104 0.952 . S
C1103 N1098 1.332 . S
C1103 C1099 1.382 . S
C1103 H1105 0.948 . S
H1104 C1102 0.952 . S
H1105 C1103 0.948 . S
H1106 C1095 0.952 . S
H1107 C1097 0.948 . S
C1108 C1074 1.395 1_545 S
C1108 C1078 1.391 . S
C1109 C1071 1.389 . S
C1109 C1091 1.392 . S
C1110 C1081 1.392 . S
C1110 C1083 1.389 . S
C1111 C1086 1.395 . S
C1111 C1088 1.391 1_545 S
H1112 C1072 0.951 . S
H1113 C1073 0.950 . S
H1114 C1079 0.949 . S
H1115 C1080 0.950 . S
H1116 C1084 0.951 . S
H1117 C1085 0.950 . S
H1118 C1089 0.949 . S
H1119 C1090 0.950 . S
H1120 C1094 0.950 . S
H1121 C1096 0.950 . S
H1122 C1099 0.950 . S
H1123 C1101 0.950 . S
C1124 C1125 1.443 . S
C1124 N1128 1.376 . S
C1124 C1162 1.389 . S
C1125 C1124 1.443 . S
C1125 C1126 1.340 . S
C1125 H1165 0.951 . S
C1126 C1125 1.340 . S
C1126 C1127 1.439 . S
C1126 H1166 0.950 . S
C1127 C1126 1.439 . S
C1127 N1128 1.374 . S
C1127 C1161 1.382 1_554 S
N1128 C1124 1.376 . S
N1128 C1127 1.374 . S
N1128 Co1129 2.013 . S
Co1129 N1128 2.013 . S
Co1129 N1130 1.990 1_554 S
Co1129 N1135 2.004 1_554 S
Co1129 N1140 2.000 . S
Co1129 N1145 2.290 . S
Co1129 N1151 2.275 1_554 S
N1130 Co1129 1.990 1_556 S
N1130 C1131 1.376 . S
N1130 C1134 1.383 . S
C1131 N1130 1.376 . S
C1131 C1132 1.446 . S
C1131 C1161 1.403 . S
C1132 C1131 1.446 . S
C1132 C1133 1.339 . S
C1132 H1167 0.949 . S
C1133 C1132 1.339 . S
C1133 C1134 1.439 . S
C1133 H1168 0.950 . S
C1134 N1130 1.383 . S
C1134 C1133 1.439 . S
C1134 C1163 1.392 . S
N1135 Co1129 2.004 1_556 S
N1135 C1136 1.376 . S
N1135 C1139 1.374 . S
C1136 N1135 1.376 . S
C1136 C1137 1.443 . S
C1136 C1163 1.389 . S
C1137 C1136 1.443 . S
C1137 C1138 1.340 . S
C1137 H1169 0.951 . S
C1138 C1137 1.340 . S
C1138 C1139 1.439 . S
C1138 H1170 0.950 . S
C1139 N1135 1.374 . S
C1139 C1138 1.439 . S
C1139 C1164 1.395 1_556 S
N1140 Co1129 2.000 . S
N1140 C1141 1.376 . S
N1140 C1144 1.383 . S
C1141 N1140 1.376 . S
C1141 C1142 1.446 . S
C1141 C1164 1.391 . S
C1142 C1141 1.446 . S
C1142 C1143 1.339 . S
C1142 H1171 0.949 . S
C1143 C1142 1.339 . S
C1143 C1144 1.439 . S
C1143 H1172 0.950 . S
C1144 N1140 1.383 . S
C1144 C1143 1.439 . S
C1144 C1162 1.392 . S
N1145 Co1129 2.290 . S
N1145 C1148 1.332 . S
N1145 C1150 1.332 . S
C1146 C1147 1.386 . S
C1146 C1149 1.388 . S
C1147 C1146 1.386 . S
C1147 C1148 1.382 . S
C1147 H1173 0.950 . S
C1148 N1145 1.332 . S
C1148 C1147 1.382 . S
C1148 H1159 0.952 . S
C1149 C1146 1.388 . S
C1149 C1150 1.382 . S
C1149 H1174 0.950 . S
C1150 N1145 1.332 . S
C1150 C1149 1.382 . S
C1150 H1160 0.948 . S
N1151 Co1129 2.275 1_556 S
N1151 C1155 1.332 . S
N1151 C1156 1.332 . S
C1152 C1153 1.388 . S
C1152 C1156 1.382 . S
C1152 H1175 0.950 . S
C1153 C1152 1.388 . S
C1153 C1154 1.386 . S
C1154 C1153 1.386 . S
C1154 C1155 1.382 . S
C1154 H1176 0.950 . S
C1155 N1151 1.332 . S
C1155 C1154 1.382 . S
C1155 H1157 0.952 . S
C1156 N1151 1.332 . S
C1156 C1152 1.382 . S
C1156 H1158 0.948 . S
H1157 C1155 0.952 . S
H1158 C1156 0.948 . S
H1159 C1148 0.952 . S
H1160 C1150 0.948 . S
C1161 C1127 1.382 1_556 S
C1161 C1131 1.403 . S
C1162 C1124 1.389 . S
C1162 C1144 1.392 . S
C1163 C1134 1.392 . S
C1163 C1136 1.389 . S
C1164 C1139 1.395 1_554 S
C1164 C1141 1.391 . S
H1165 C1125 0.951 . S
H1166 C1126 0.950 . S
H1167 C1132 0.949 . S
H1168 C1133 0.950 . S
H1169 C1137 0.951 . S
H1170 C1138 0.950 . S
H1171 C1142 0.949 . S
H1172 C1143 0.950 . S
H1173 C1147 0.950 . S
H1174 C1149 0.950 . S
H1175 C1152 0.950 . S
H1176 C1154 0.950 . S
C1177 C1178 1.443 . S
C1177 N1181 1.376 . S
C1177 C1215 1.389 . S
C1178 C1177 1.443 . S
C1178 C1179 1.340 . S
C1178 H1218 0.951 . S
C1179 C1178 1.340 . S
C1179 C1180 1.439 . S
C1179 H1219 0.950 . S
C1180 C1179 1.439 . S
C1180 N1181 1.374 . S
C1180 C1214 1.395 . S
N1181 C1177 1.376 . S
N1181 C1180 1.374 . S
N1181 Co1182 2.008 . S
Co1182 N1181 2.008 . S
Co1182 N1183 1.995 1_554 S
Co1182 N1188 2.007 . S
Co1182 N1193 1.995 . S
Co1182 N1198 2.282 . S
Co1182 N1204 2.282 1_554 S
N1183 Co1182 1.995 1_556 S
N1183 C1184 1.376 . S
N1183 C1187 1.383 . S
C1184 N1183 1.376 . S
C1184 C1185 1.446 . S
C1184 C1214 1.391 1_556 S
C1185 C1184 1.446 . S
C1185 C1186 1.339 . S
C1185 H1220 0.949 . S
C1186 C1185 1.339 . S
C1186 C1187 1.439 . S
C1186 H1221 0.950 . S
C1187 N1183 1.383 . S
C1187 C1186 1.439 . S
C1187 C1216 1.392 . S
N1188 Co1182 2.007 . S
N1188 C1189 1.378 1_554 S
N1188 C1192 1.373 . S
C1189 N1188 1.378 1_556 S
C1189 C1190 1.443 . S
C1189 C1216 1.389 . S
C1190 C1189 1.443 . S
C1190 C1191 1.340 . S
C1190 H1222 0.951 . S
C1191 C1190 1.340 . S
C1191 C1192 1.439 1_556 S
C1191 H1223 0.950 . S
C1192 N1188 1.373 . S
C1192 C1191 1.439 1_554 S
C1192 C1217 1.395 . S
N1193 Co1182 1.995 . S
N1193 C1194 1.376 . S
N1193 C1197 1.383 . S
C1194 N1193 1.376 . S
C1194 C1195 1.446 . S
C1194 C1217 1.391 . S
C1195 C1194 1.446 . S
C1195 C1196 1.339 . S
C1195 H1224 0.949 . S
C1196 C1195 1.339 . S
C1196 C1197 1.439 . S
C1196 H1225 0.950 . S
C1197 N1193 1.383 . S
C1197 C1196 1.439 . S
C1197 C1215 1.392 . S
N1198 Co1182 2.282 . S
N1198 C1201 1.332 . S
N1198 C1203 1.332 . S
C1199 C1200 1.386 . S
C1199 C1202 1.388 . S
C1200 C1199 1.386 . S
C1200 C1201 1.382 . S
C1200 H1226 0.950 . S
C1201 N1198 1.332 . S
C1201 C1200 1.382 . S
C1201 H1212 0.952 . S
C1202 C1199 1.388 . S
C1202 C1203 1.382 . S
C1202 H1227 0.950 . S
C1203 N1198 1.332 . S
C1203 C1202 1.382 . S
C1203 H1213 0.948 . S
N1204 Co1182 2.282 1_556 S
N1204 C1208 1.332 . S
N1204 C1209 1.332 . S
C1205 C1206 1.388 . S
C1205 C1209 1.382 . S
C1205 H1228 0.950 . S
C1206 C1205 1.388 . S
C1206 C1207 1.386 . S
C1207 C1206 1.386 . S
C1207 C1208 1.382 . S
C1207 H1229 0.950 . S
C1208 N1204 1.332 . S
C1208 C1207 1.382 . S
C1208 H1210 0.952 . S
C1209 N1204 1.332 . S
C1209 C1205 1.382 . S
C1209 H1211 0.948 . S
H1210 C1208 0.952 . S
H1211 C1209 0.948 . S
H1212 C1201 0.952 . S
H1213 C1203 0.948 . S
C1214 C1180 1.395 . S
C1214 C1184 1.391 1_554 S
C1215 C1177 1.389 . S
C1215 C1197 1.392 . S
C1216 C1187 1.392 . S
C1216 C1189 1.389 . S
C1217 C1192 1.395 . S
C1217 C1194 1.391 . S
H1218 C1178 0.951 . S
H1219 C1179 0.950 . S
H1220 C1185 0.949 . S
H1221 C1186 0.950 . S
H1222 C1190 0.951 . S
H1223 C1191 0.950 . S
H1224 C1195 0.949 . S
H1225 C1196 0.950 . S
H1226 C1200 0.950 . S
H1227 C1202 0.950 . S
H1228 C1205 0.950 . S
H1229 C1207 0.950 . S
C1230 C1231 1.443 . S
C1230 N1234 1.374 1_556 S
C1230 C1268 1.389 . S
C1231 C1230 1.443 . S
C1231 C1232 1.340 . S
C1231 H1271 0.951 . S
C1232 C1231 1.340 . S
C1232 C1233 1.439 1_556 S
C1232 H1272 0.950 . S
C1233 C1232 1.439 1_554 S
C1233 N1234 1.375 . S
C1233 C1267 1.395 . S
N1234 C1230 1.374 1_554 S
N1234 C1233 1.375 . S
N1234 Co1235 2.010 . S
Co1235 N1234 2.010 . S
Co1235 N1236 1.995 . S
Co1235 N1241 2.008 . S
Co1235 N1246 1.995 1_554 S
Co1235 N1251 2.282 1_554 S
Co1235 N1257 2.282 . S
N1236 Co1235 1.995 . S
N1236 C1237 1.376 . S
N1236 C1240 1.383 . S
C1237 N1236 1.376 . S
C1237 C1238 1.446 . S
C1237 C1267 1.391 . S
C1238 C1237 1.446 . S
C1238 C1239 1.339 . S
C1238 H1273 0.949 . S
C1239 C1238 1.339 . S
C1239 C1240 1.439 . S
C1239 H1274 0.950 . S
C1240 N1236 1.383 . S
C1240 C1239 1.439 . S
C1240 C1269 1.392 . S
N1241 Co1235 2.008 . S
N1241 C1242 1.376 . S
N1241 C1245 1.374 . S
C1242 N1241 1.376 . S
C1242 C1243 1.443 . S
C1242 C1269 1.389 . S
C1243 C1242 1.443 . S
C1243 C1244 1.340 . S
C1243 H1275 0.951 . S
C1244 C1243 1.340 . S
C1244 C1245 1.439 . S
C1244 H1276 0.950 . S
C1245 N1241 1.374 . S
C1245 C1244 1.439 . S
C1245 C1270 1.395 . S
N1246 Co1235 1.995 1_556 S
N1246 C1247 1.376 . S
N1246 C1250 1.383 . S
C1247 N1246 1.376 . S
C1247 C1248 1.446 . S
C1247 C1270 1.391 1_556 S
C1248 C1247 1.446 . S
C1248 C1249 1.339 . S
C1248 H1277 0.949 . S
C1249 C1248 1.339 . S
C1249 C1250 1.439 . S
C1249 H1278 0.950 . S
C1250 N1246 1.383 . S
C1250 C1249 1.439 . S
C1250 C1268 1.392 . S
N1251 Co1235 2.282 1_556 S
N1251 C1254 1.332 . S
N1251 C1256 1.332 . S
C1252 C1253 1.386 . S
C1252 C1255 1.388 . S
C1253 C1252 1.386 . S
C1253 C1254 1.382 . S
C1253 H1279 0.950 . S
C1254 N1251 1.332 . S
C1254 C1253 1.382 . S
C1254 H1265 0.952 . S
C1255 C1252 1.388 . S
C1255 C1256 1.382 . S
C1255 H1280 0.950 . S
C1256 N1251 1.332 . S
C1256 C1255 1.382 . S
C1256 H1266 0.948 . S
N1257 Co1235 2.282 . S
N1257 C1261 1.332 . S
N1257 C1262 1.332 . S
C1258 C1259 1.388 . S
C1258 C1262 1.382 . S
C1258 H1281 0.950 . S
C1259 C1258 1.388 . S
C1259 C1260 1.386 . S
C1260 C1259 1.386 . S
C1260 C1261 1.382 . S
C1260 H1282 0.950 . S
C1261 N1257 1.332 . S
C1261 C1260 1.382 . S
C1261 H1263 0.952 . S
C1262 N1257 1.332 . S
C1262 C1258 1.382 . S
C1262 H1264 0.948 . S
H1263 C1261 0.952 . S
H1264 C1262 0.948 . S
H1265 C1254 0.952 . S
H1266 C1256 0.948 . S
C1267 C1233 1.395 . S
C1267 C1237 1.391 . S
C1268 C1230 1.389 . S
C1268 C1250 1.392 . S
C1269 C1240 1.392 . S
C1269 C1242 1.389 . S
C1270 C1245 1.395 . S
C1270 C1247 1.391 1_554 S
H1271 C1231 0.951 . S
H1272 C1232 0.950 . S
H1273 C1238 0.949 . S
H1274 C1239 0.950 . S
H1275 C1243 0.951 . S
H1276 C1244 0.950 . S
H1277 C1248 0.949 . S
H1278 C1249 0.950 . S
H1279 C1253 0.950 . S
H1280 C1255 0.950 . S
H1281 C1258 0.950 . S
H1282 C1260 0.950 . S
C1283 C1284 1.443 . S
C1283 N1287 1.376 . S
C1283 C1321 1.389 . S
C1284 C1283 1.443 . S
C1284 C1285 1.340 . S
C1284 H1324 0.951 . S
C1285 C1284 1.340 . S
C1285 C1286 1.439 . S
C1285 H1325 0.950 . S
C1286 C1285 1.439 . S
C1286 N1287 1.374 . S
C1286 C1320 1.395 . S
N1287 C1283 1.376 . S
N1287 C1286 1.374 . S
N1287 Co1288 2.008 . S
Co1288 N1287 2.008 . S
Co1288 N1289 1.995 1_554 S
Co1288 N1294 2.008 . S
Co1288 N1299 1.995 . S
Co1288 N1304 2.282 . S
Co1288 N1310 2.282 1_554 S
N1289 Co1288 1.995 1_556 S
N1289 C1290 1.376 . S
N1289 C1293 1.383 . S
C1290 N1289 1.376 . S
C1290 C1291 1.446 . S
C1290 C1320 1.391 1_556 S
C1291 C1290 1.446 . S
C1291 C1292 1.339 . S
C1291 H1326 0.949 . S
C1292 C1291 1.339 . S
C1292 C1293 1.439 . S
C1292 H1327 0.950 . S
C1293 N1289 1.383 . S
C1293 C1292 1.439 . S
C1293 C1322 1.392 . S
N1294 Co1288 2.008 . S
N1294 C1295 1.376 1_554 S
N1294 C1298 1.374 . S
C1295 N1294 1.376 1_556 S
C1295 C1296 1.443 . S
C1295 C1322 1.389 . S
C1296 C1295 1.443 . S
C1296 C1297 1.340 . S
C1296 H1328 0.951 . S
C1297 C1296 1.340 . S
C1297 C1298 1.439 1_556 S
C1297 H1329 0.950 . S
C1298 N1294 1.374 . S
C1298 C1297 1.439 1_554 S
C1298 C1323 1.395 . S
N1299 Co1288 1.995 . S
N1299 C1300 1.376 . S
N1299 C1303 1.383 . S
C1300 N1299 1.376 . S
C1300 C1301 1.446 . S
C1300 C1323 1.391 . S
C1301 C1300 1.446 . S
C1301 C1302 1.339 . S
C1301 H1330 0.949 . S
C1302 C1301 1.339 . S
C1302 C1303 1.439 . S
C1302 H1331 0.950 . S
C1303 N1299 1.383 . S
C1303 C1302 1.439 . S
C1303 C1321 1.392 . S
N1304 Co1288 2.282 . S
N1304 C1307 1.332 . S
N1304 C1309 1.332 . S
C1305 C1306 1.386 . S
C1305 C1308 1.388 . S
C1306 C1305 1.386 . S
C1306 C1307 1.382 . S
C1306 H1332 0.950 . S
C1307 N1304 1.332 . S
C1307 C1306 1.382 . S
C1307 H1318 0.952 . S
C1308 C1305 1.388 . S
C1308 C1309 1.382 . S
C1308 H1333 0.950 . S
C1309 N1304 1.332 . S
C1309 C1308 1.382 . S
C1309 H1319 0.948 . S
N1310 Co1288 2.282 1_556 S
N1310 C1314 1.332 . S
N1310 C1315 1.332 . S
C1311 C1312 1.388 . S
C1311 C1315 1.382 . S
C1311 H1334 0.950 . S
C1312 C1311 1.388 . S
C1312 C1313 1.386 . S
C1313 C1312 1.386 . S
C1313 C1314 1.382 . S
C1313 H1335 0.950 . S
C1314 N1310 1.332 . S
C1314 C1313 1.382 . S
C1314 H1316 0.952 . S
C1315 N1310 1.332 . S
C1315 C1311 1.382 . S
C1315 H1317 0.948 . S
H1316 C1314 0.952 . S
H1317 C1315 0.948 . S
H1318 C1307 0.952 . S
H1319 C1309 0.948 . S
C1320 C1286 1.395 . S
C1320 C1290 1.391 1_554 S
C1321 C1283 1.389 . S
C1321 C1303 1.392 . S
C1322 C1293 1.392 . S
C1322 C1295 1.389 . S
C1323 C1298 1.395 . S
C1323 C1300 1.391 . S
H1324 C1284 0.951 . S
H1325 C1285 0.950 . S
H1326 C1291 0.949 . S
H1327 C1292 0.950 . S
H1328 C1296 0.951 . S
H1329 C1297 0.950 . S
H1330 C1301 0.949 . S
H1331 C1302 0.950 . S
H1332 C1306 0.950 . S
H1333 C1308 0.950 . S
H1334 C1311 0.950 . S
H1335 C1313 0.950 . S
C1336 C1337 1.369 . S
C1336 C1338 1.419 . S
C1336 H1340 0.930 . S
C1337 C1336 1.369 . S
C1337 C1346 1.429 . S
C1338 C1336 1.419 . S
C1338 C1339 1.363 . S
C1338 H1341 0.929 . S
C1339 C1338 1.363 . S
C1339 C1345 1.428 . S
H1340 C1336 0.930 . S
H1341 C1338 0.929 . S
S1342 N1343 1.613 . S
S1342 N1344 1.610 . S
N1343 S1342 1.613 . S
N1343 C1346 1.350 . S
N1344 S1342 1.610 . S
N1344 C1345 1.351 . S
C1345 C1339 1.428 . S
C1345 N1344 1.351 . S
C1345 C1346 1.434 . S
C1346 C1337 1.429 . S
C1346 N1343 1.350 . S
C1346 C1345 1.434 . S
C1347 C1348 1.369 . S
C1347 C1349 1.419 . S
C1347 H1351 0.930 . S
C1348 C1347 1.369 . S
C1348 C1357 1.429 . S
C1349 C1347 1.419 . S
C1349 C1350 1.363 . S
C1349 H1352 0.929 . S
C1350 C1349 1.363 . S
C1350 C1356 1.428 . S
H1351 C1347 0.930 . S
H1352 C1349 0.929 . S
S1353 N1354 1.613 . S
S1353 N1355 1.610 . S
N1354 S1353 1.613 . S
N1354 C1357 1.350 . S
N1355 S1353 1.610 . S
N1355 C1356 1.351 . S
C1356 C1350 1.428 . S
C1356 N1355 1.351 . S
C1356 C1357 1.434 . S
C1357 C1348 1.429 . S
C1357 N1354 1.350 . S
C1357 C1356 1.434 . S
C1358 C1359 1.369 . S
C1358 C1360 1.419 . S
C1358 H1362 0.930 . S
C1359 C1358 1.369 . S
C1359 C1368 1.429 . S
C1360 C1358 1.419 . S
C1360 C1361 1.363 . S
C1360 H1363 0.929 . S
C1361 C1360 1.363 . S
C1361 C1367 1.428 . S
H1362 C1358 0.930 . S
H1363 C1360 0.929 . S
S1364 N1365 1.613 . S
S1364 N1366 1.610 . S
N1365 S1364 1.613 . S
N1365 C1368 1.350 . S
N1366 S1364 1.610 . S
N1366 C1367 1.351 . S
C1367 C1361 1.428 . S
C1367 N1366 1.351 . S
C1367 C1368 1.434 . S
C1368 C1359 1.429 . S
C1368 N1365 1.350 . S
C1368 C1367 1.434 . S
C1369 C1370 1.369 . S
C1369 C1371 1.419 . S
C1369 H1373 0.930 . S
C1370 C1369 1.369 . S
C1370 C1379 1.429 . S
C1371 C1369 1.419 . S
C1371 C1372 1.363 . S
C1371 H1374 0.929 . S
C1372 C1371 1.363 . S
C1372 C1378 1.428 . S
H1373 C1369 0.930 . S
H1374 C1371 0.929 . S
S1375 N1376 1.613 . S
S1375 N1377 1.610 . S
N1376 S1375 1.613 . S
N1376 C1379 1.350 . S
N1377 S1375 1.610 . S
N1377 C1378 1.351 . S
C1378 C1372 1.428 . S
C1378 N1377 1.351 . S
C1378 C1379 1.434 . S
C1379 C1370 1.429 . S
C1379 N1376 1.350 . S
C1379 C1378 1.434 . S
C1380 C1381 1.369 . S
C1380 C1382 1.419 . S
C1380 H1384 0.930 . S
C1381 C1380 1.369 . S
C1381 C1390 1.429 . S
C1382 C1380 1.419 . S
C1382 C1383 1.363 . S
C1382 H1385 0.929 . S
C1383 C1382 1.363 . S
C1383 C1389 1.428 . S
H1384 C1380 0.930 . S
H1385 C1382 0.929 . S
S1386 N1387 1.613 . S
S1386 N1388 1.610 . S
N1387 S1386 1.613 . S
N1387 C1390 1.350 . S
N1388 S1386 1.610 . S
N1388 C1389 1.351 . S
C1389 C1383 1.428 . S
C1389 N1388 1.351 . S
C1389 C1390 1.434 . S
C1390 C1381 1.429 . S
C1390 N1387 1.350 . S
C1390 C1389 1.434 . S
C1391 C1392 1.369 . S
C1391 C1393 1.419 . S
C1391 H1395 0.930 . S
C1392 C1391 1.369 . S
C1392 C1401 1.429 . S
C1393 C1391 1.419 . S
C1393 C1394 1.363 . S
C1393 H1396 0.929 . S
C1394 C1393 1.363 . S
C1394 C1400 1.428 . S
H1395 C1391 0.930 . S
H1396 C1393 0.929 . S
S1397 N1398 1.613 . S
S1397 N1399 1.610 . S
N1398 S1397 1.613 . S
N1398 C1401 1.350 . S
N1399 S1397 1.610 . S
N1399 C1400 1.351 . S
C1400 C1394 1.428 . S
C1400 N1399 1.351 . S
C1400 C1401 1.434 . S
C1401 C1392 1.429 . S
C1401 N1398 1.350 . S
C1401 C1400 1.434 . S
C1402 C1403 1.369 . S
C1402 C1404 1.419 . S
C1402 H1406 0.930 . S
C1403 C1402 1.369 . S
C1403 C1412 1.429 . S
C1404 C1402 1.419 . S
C1404 C1405 1.363 . S
C1404 H1407 0.929 . S
C1405 C1404 1.363 . S
C1405 C1411 1.428 . S
H1406 C1402 0.930 . S
H1407 C1404 0.929 . S
S1408 N1409 1.613 . S
S1408 N1410 1.610 . S
N1409 S1408 1.613 . S
N1409 C1412 1.350 . S
N1410 S1408 1.610 . S
N1410 C1411 1.351 . S
C1411 C1405 1.428 . S
C1411 N1410 1.351 . S
C1411 C1412 1.434 . S
C1412 C1403 1.429 . S
C1412 N1409 1.350 . S
C1412 C1411 1.434 . S
C1413 C1414 1.369 . S
C1413 C1415 1.419 . S
C1413 H1417 0.930 . S
C1414 C1413 1.369 . S
C1414 C1423 1.429 . S
C1415 C1413 1.419 . S
C1415 C1416 1.363 . S
C1415 H1418 0.929 . S
C1416 C1415 1.363 . S
C1416 C1422 1.428 . S
H1417 C1413 0.930 . S
H1418 C1415 0.929 . S
S1419 N1420 1.613 . S
S1419 N1421 1.610 . S
N1420 S1419 1.613 . S
N1420 C1423 1.350 . S
N1421 S1419 1.610 . S
N1421 C1422 1.351 . S
C1422 C1416 1.428 . S
C1422 N1421 1.351 . S
C1422 C1423 1.434 . S
C1423 C1414 1.429 . S
C1423 N1420 1.350 . S
C1423 C1422 1.434 . S
C1424 C1425 1.369 . S
C1424 C1426 1.419 . S
C1424 H1428 0.930 . S
C1425 C1424 1.369 . S
C1425 C1434 1.429 . S
C1426 C1424 1.419 . S
C1426 C1427 1.363 . S
C1426 H1429 0.929 . S
C1427 C1426 1.363 . S
C1427 C1433 1.428 . S
H1428 C1424 0.930 . S
H1429 C1426 0.929 . S
S1430 N1431 1.613 . S
S1430 N1432 1.610 . S
N1431 S1430 1.613 . S
N1431 C1434 1.350 . S
N1432 S1430 1.610 . S
N1432 C1433 1.351 . S
C1433 C1427 1.428 . S
C1433 N1432 1.351 . S
C1433 C1434 1.434 . S
C1434 C1425 1.429 . S
C1434 N1431 1.350 . S
C1434 C1433 1.434 . S
C1435 C1436 1.369 . S
C1435 C1437 1.419 . S
C1435 H1439 0.930 . S
C1436 C1435 1.369 . S
C1436 C1445 1.429 . S
C1437 C1435 1.419 . S
C1437 C1438 1.363 . S
C1437 H1440 0.929 . S
C1438 C1437 1.363 . S
C1438 C1444 1.428 . S
H1439 C1435 0.930 . S
H1440 C1437 0.929 . S
S1441 N1442 1.613 . S
S1441 N1443 1.610 . S
N1442 S1441 1.613 . S
N1442 C1445 1.350 . S
N1443 S1441 1.610 . S
N1443 C1444 1.351 . S
C1444 C1438 1.428 . S
C1444 N1443 1.351 . S
C1444 C1445 1.434 . S
C1445 C1436 1.429 . S
C1445 N1442 1.350 . S
C1445 C1444 1.434 . S
C1446 C1447 1.369 . S
C1446 C1448 1.419 . S
C1446 H1450 0.930 . S
C1447 C1446 1.369 . S
C1447 C1456 1.429 . S
C1448 C1446 1.419 . S
C1448 C1449 1.363 . S
C1448 H1451 0.929 . S
C1449 C1448 1.363 . S
C1449 C1455 1.428 . S
H1450 C1446 0.930 . S
H1451 C1448 0.929 . S
S1452 N1453 1.613 . S
S1452 N1454 1.610 . S
N1453 S1452 1.613 . S
N1453 C1456 1.350 . S
N1454 S1452 1.610 . S
N1454 C1455 1.351 . S
C1455 C1449 1.428 . S
C1455 N1454 1.351 . S
C1455 C1456 1.434 . S
C1456 C1447 1.429 . S
C1456 N1453 1.350 . S
C1456 C1455 1.434 . S
C1457 C1458 1.369 . S
C1457 C1459 1.419 . S
C1457 H1461 0.930 . S
C1458 C1457 1.369 . S
C1458 C1467 1.429 . S
C1459 C1457 1.419 . S
C1459 C1460 1.363 . S
C1459 H1462 0.929 . S
C1460 C1459 1.363 . S
C1460 C1466 1.428 . S
H1461 C1457 0.930 . S
H1462 C1459 0.929 . S
S1463 N1464 1.613 . S
S1463 N1465 1.610 . S
N1464 S1463 1.613 . S
N1464 C1467 1.350 . S
N1465 S1463 1.610 . S
N1465 C1466 1.351 . S
C1466 C1460 1.428 . S
C1466 N1465 1.351 . S
C1466 C1467 1.434 . S
C1467 C1458 1.429 . S
C1467 N1464 1.350 . S
C1467 C1466 1.434 . S
C1468 C1469 1.369 . S
C1468 C1470 1.419 . S
C1468 H1472 0.930 . S
C1469 C1468 1.369 . S
C1469 C1478 1.429 . S
C1470 C1468 1.419 . S
C1470 C1471 1.363 . S
C1470 H1473 0.929 . S
C1471 C1470 1.363 . S
C1471 C1477 1.428 . S
H1472 C1468 0.930 . S
H1473 C1470 0.929 . S
S1474 N1475 1.613 . S
S1474 N1476 1.610 . S
N1475 S1474 1.613 . S
N1475 C1478 1.350 . S
N1476 S1474 1.610 . S
N1476 C1477 1.351 . S
C1477 C1471 1.428 . S
C1477 N1476 1.351 . S
C1477 C1478 1.434 . S
C1478 C1469 1.429 . S
C1478 N1475 1.350 . S
C1478 C1477 1.434 . S
C1479 C1480 1.369 . S
C1479 C1481 1.419 . S
C1479 H1483 0.930 . S
C1480 C1479 1.369 . S
C1480 C1489 1.429 . S
C1481 C1479 1.419 . S
C1481 C1482 1.363 . S
C1481 H1484 0.929 . S
C1482 C1481 1.363 . S
C1482 C1488 1.428 . S
H1483 C1479 0.930 . S
H1484 C1481 0.929 . S
S1485 N1486 1.613 . S
S1485 N1487 1.610 . S
N1486 S1485 1.613 . S
N1486 C1489 1.350 . S
N1487 S1485 1.610 . S
N1487 C1488 1.351 . S
C1488 C1482 1.428 . S
C1488 N1487 1.351 . S
C1488 C1489 1.434 . S
C1489 C1480 1.429 . S
C1489 N1486 1.350 . S
C1489 C1488 1.434 . S
C1490 C1491 1.369 . S
C1490 C1492 1.419 . S
C1490 H1494 0.930 . S
C1491 C1490 1.369 . S
C1491 C1500 1.429 . S
C1492 C1490 1.419 . S
C1492 C1493 1.363 . S
C1492 H1495 0.929 . S
C1493 C1492 1.363 . S
C1493 C1499 1.428 . S
H1494 C1490 0.930 . S
H1495 C1492 0.929 . S
S1496 N1497 1.613 . S
S1496 N1498 1.610 . S
N1497 S1496 1.613 . S
N1497 C1500 1.350 . S
N1498 S1496 1.610 . S
N1498 C1499 1.351 . S
C1499 C1493 1.428 . S
C1499 N1498 1.351 . S
C1499 C1500 1.434 . S
C1500 C1491 1.429 . S
C1500 N1497 1.350 . S
C1500 C1499 1.434 . S
C1501 C1502 1.369 . S
C1501 C1503 1.419 . S
C1501 H1505 0.930 . S
C1502 C1501 1.369 . S
C1502 C1511 1.429 . S
C1503 C1501 1.419 . S
C1503 C1504 1.363 . S
C1503 H1506 0.929 . S
C1504 C1503 1.363 . S
C1504 C1510 1.428 . S
H1505 C1501 0.930 . S
H1506 C1503 0.929 . S
S1507 N1508 1.613 . S
S1507 N1509 1.610 . S
N1508 S1507 1.613 . S
N1508 C1511 1.350 . S
N1509 S1507 1.610 . S
N1509 C1510 1.351 . S
C1510 C1504 1.428 . S
C1510 N1509 1.351 . S
C1510 C1511 1.434 . S
C1511 C1502 1.429 . S
C1511 N1508 1.350 . S
C1511 C1510 1.434 . S
C1512 C1513 1.369 . S
C1512 C1514 1.419 . S
C1512 H1516 0.930 . S
C1513 C1512 1.369 . S
C1513 C1522 1.429 . S
C1514 C1512 1.419 . S
C1514 C1515 1.363 . S
C1514 H1517 0.929 . S
C1515 C1514 1.363 . S
C1515 C1521 1.428 . S
H1516 C1512 0.930 . S
H1517 C1514 0.929 . S
S1518 N1519 1.613 . S
S1518 N1520 1.610 . S
N1519 S1518 1.613 . S
N1519 C1522 1.350 . S
N1520 S1518 1.610 . S
N1520 C1521 1.351 . S
C1521 C1515 1.428 . S
C1521 N1520 1.351 . S
C1521 C1522 1.434 . S
C1522 C1513 1.429 . S
C1522 N1519 1.350 . S
C1522 C1521 1.434 . S
C1523 C1524 1.369 . S
C1523 C1525 1.419 . S
C1523 H1527 0.930 . S
C1524 C1523 1.369 . S
C1524 C1533 1.429 . S
C1525 C1523 1.419 . S
C1525 C1526 1.363 . S
C1525 H1528 0.929 . S
C1526 C1525 1.363 . S
C1526 C1532 1.428 . S
H1527 C1523 0.930 . S
H1528 C1525 0.929 . S
S1529 N1530 1.613 . S
S1529 N1531 1.610 . S
N1530 S1529 1.613 . S
N1530 C1533 1.350 . S
N1531 S1529 1.610 . S
N1531 C1532 1.351 . S
C1532 C1526 1.428 . S
C1532 N1531 1.351 . S
C1532 C1533 1.434 . S
C1533 C1524 1.429 . S
C1533 N1530 1.350 . S
C1533 C1532 1.434 . S
C1534 C1535 1.369 . S
C1534 C1536 1.419 . S
C1534 H1538 0.930 . S
C1535 C1534 1.369 . S
C1535 C1544 1.429 . S
C1536 C1534 1.419 . S
C1536 C1537 1.363 . S
C1536 H1539 0.929 . S
C1537 C1536 1.363 . S
C1537 C1543 1.428 . S
H1538 C1534 0.930 . S
H1539 C1536 0.929 . S
S1540 N1541 1.613 . S
S1540 N1542 1.610 . S
N1541 S1540 1.613 . S
N1541 C1544 1.350 . S
N1542 S1540 1.610 . S
N1542 C1543 1.351 . S
C1543 C1537 1.428 . S
C1543 N1542 1.351 . S
C1543 C1544 1.434 . S
C1544 C1535 1.429 . S
C1544 N1541 1.350 . S
C1544 C1543 1.434 . S
C1545 C1546 1.369 . S
C1545 C1547 1.419 . S
C1545 H1549 0.930 . S
C1546 C1545 1.369 . S
C1546 C1555 1.429 . S
C1547 C1545 1.419 . S
C1547 C1548 1.363 . S
C1547 H1550 0.929 . S
C1548 C1547 1.363 . S
C1548 C1554 1.428 . S
H1549 C1545 0.930 . S
H1550 C1547 0.929 . S
S1551 N1552 1.613 . S
S1551 N1553 1.610 . S
N1552 S1551 1.613 . S
N1552 C1555 1.350 . S
N1553 S1551 1.610 . S
N1553 C1554 1.351 . S
C1554 C1548 1.428 . S
C1554 N1553 1.351 . S
C1554 C1555 1.434 . S
C1555 C1546 1.429 . S
C1555 N1552 1.350 . S
C1555 C1554 1.434 . S
C1556 C1557 1.369 . S
C1556 C1558 1.419 . S
C1556 H1560 0.930 . S
C1557 C1556 1.369 . S
C1557 C1566 1.429 . S
C1558 C1556 1.419 . S
C1558 C1559 1.363 . S
C1558 H1561 0.929 . S
C1559 C1558 1.363 . S
C1559 C1565 1.428 . S
H1560 C1556 0.930 . S
H1561 C1558 0.929 . S
S1562 N1563 1.613 . S
S1562 N1564 1.610 . S
N1563 S1562 1.613 . S
N1563 C1566 1.350 . S
N1564 S1562 1.610 . S
N1564 C1565 1.351 . S
C1565 C1559 1.428 . S
C1565 N1564 1.351 . S
C1565 C1566 1.434 . S
C1566 C1557 1.429 . S
C1566 N1563 1.350 . S
C1566 C1565 1.434 . S
C1567 C1568 1.369 . S
C1567 C1569 1.419 . S
C1567 H1571 0.930 . S
C1568 C1567 1.369 . S
C1568 C1577 1.429 . S
C1569 C1567 1.419 . S
C1569 C1570 1.363 . S
C1569 H1572 0.929 . S
C1570 C1569 1.363 . S
C1570 C1576 1.428 . S
H1571 C1567 0.930 . S
H1572 C1569 0.929 . S
S1573 N1574 1.613 . S
S1573 N1575 1.610 . S
N1574 S1573 1.613 . S
N1574 C1577 1.350 . S
N1575 S1573 1.610 . S
N1575 C1576 1.351 . S
C1576 C1570 1.428 . S
C1576 N1575 1.351 . S
C1576 C1577 1.434 . S
C1577 C1568 1.429 . S
C1577 N1574 1.350 . S
C1577 C1576 1.434 . S
C1578 C1579 1.369 . S
C1578 C1580 1.419 . S
C1578 H1582 0.930 . S
C1579 C1578 1.369 . S
C1579 C1588 1.429 . S
C1580 C1578 1.419 . S
C1580 C1581 1.363 . S
C1580 H1583 0.929 . S
C1581 C1580 1.363 . S
C1581 C1587 1.428 . S
H1582 C1578 0.930 . S
H1583 C1580 0.929 . S
S1584 N1585 1.613 . S
S1584 N1586 1.610 . S
N1585 S1584 1.613 . S
N1585 C1588 1.350 . S
N1586 S1584 1.610 . S
N1586 C1587 1.351 . S
C1587 C1581 1.428 . S
C1587 N1586 1.351 . S
C1587 C1588 1.434 . S
C1588 C1579 1.429 . S
C1588 N1585 1.350 . S
C1588 C1587 1.434 . S
C1589 C1590 1.369 . S
C1589 C1591 1.419 . S
C1589 H1593 0.930 . S
C1590 C1589 1.369 . S
C1590 C1599 1.429 . S
C1591 C1589 1.419 . S
C1591 C1592 1.363 . S
C1591 H1594 0.929 . S
C1592 C1591 1.363 . S
C1592 C1598 1.428 . S
H1593 C1589 0.930 . S
H1594 C1591 0.929 . S
S1595 N1596 1.613 . S
S1595 N1597 1.610 . S
N1596 S1595 1.613 . S
N1596 C1599 1.350 . S
N1597 S1595 1.610 . S
N1597 C1598 1.351 . S
C1598 C1592 1.428 . S
C1598 N1597 1.351 . S
C1598 C1599 1.434 . S
C1599 C1590 1.429 . S
C1599 N1596 1.350 . S
C1599 C1598 1.434 . S
C1600 C1601 1.369 . S
C1600 C1602 1.419 . S
C1600 H1604 0.930 . S
C1601 C1600 1.369 . S
C1601 C1610 1.429 . S
C1602 C1600 1.419 . S
C1602 C1603 1.363 . S
C1602 H1605 0.929 . S
C1603 C1602 1.363 . S
C1603 C1609 1.428 . S
H1604 C1600 0.930 . S
H1605 C1602 0.929 . S
S1606 N1607 1.613 . S
S1606 N1608 1.610 . S
N1607 S1606 1.613 . S
N1607 C1610 1.350 . S
N1608 S1606 1.610 . S
N1608 C1609 1.351 . S
C1609 C1603 1.428 . S
C1609 N1608 1.351 . S
C1609 C1610 1.434 . S
C1610 C1601 1.429 . S
C1610 N1607 1.350 . S
C1610 C1609 1.434 . S
C1611 C1612 1.369 . S
C1611 C1613 1.419 . S
C1611 H1615 0.930 . S
C1612 C1611 1.369 . S
C1612 C1621 1.429 . S
C1613 C1611 1.419 . S
C1613 C1614 1.363 . S
C1613 H1616 0.929 . S
C1614 C1613 1.363 . S
C1614 C1620 1.428 . S
H1615 C1611 0.930 . S
H1616 C1613 0.929 . S
S1617 N1618 1.613 . S
S1617 N1619 1.610 . S
N1618 S1617 1.613 . S
N1618 C1621 1.350 . S
N1619 S1617 1.610 . S
N1619 C1620 1.351 . S
C1620 C1614 1.428 . S
C1620 N1619 1.351 . S
C1620 C1621 1.434 . S
C1621 C1612 1.429 . S
C1621 N1618 1.350 . S
C1621 C1620 1.434 . S
C1622 C1623 1.369 . S
C1622 C1624 1.419 . S
C1622 H1626 0.930 . S
C1623 C1622 1.369 . S
C1623 C1632 1.429 . S
C1624 C1622 1.419 . S
C1624 C1625 1.363 . S
C1624 H1627 0.929 . S
C1625 C1624 1.363 . S
C1625 C1631 1.428 . S
H1626 C1622 0.930 . S
H1627 C1624 0.929 . S
S1628 N1629 1.613 . S
S1628 N1630 1.610 . S
N1629 S1628 1.613 . S
N1629 C1632 1.350 . S
N1630 S1628 1.610 . S
N1630 C1631 1.351 . S
C1631 C1625 1.428 . S
C1631 N1630 1.351 . S
C1631 C1632 1.434 . S
C1632 C1623 1.429 . S
C1632 N1629 1.350 . S
C1632 C1631 1.434 . S
C1633 C1634 1.369 . S
C1633 C1635 1.419 . S
C1633 H1637 0.930 . S
C1634 C1633 1.369 . S
C1634 C1643 1.429 . S
C1635 C1633 1.419 . S
C1635 C1636 1.363 . S
C1635 H1638 0.929 . S
C1636 C1635 1.363 . S
C1636 C1642 1.428 . S
H1637 C1633 0.930 . S
H1638 C1635 0.929 . S
S1639 N1640 1.613 . S
S1639 N1641 1.610 . S
N1640 S1639 1.613 . S
N1640 C1643 1.350 . S
N1641 S1639 1.610 . S
N1641 C1642 1.351 . S
C1642 C1636 1.428 . S
C1642 N1641 1.351 . S
C1642 C1643 1.434 . S
C1643 C1634 1.429 . S
C1643 N1640 1.350 . S
C1643 C1642 1.434 . S
C1644 C1645 1.369 . S
C1644 C1646 1.419 . S
C1644 H1648 0.930 . S
C1645 C1644 1.369 . S
C1645 C1654 1.429 . S
C1646 C1644 1.419 . S
C1646 C1647 1.363 . S
C1646 H1649 0.929 . S
C1647 C1646 1.363 . S
C1647 C1653 1.428 . S
H1648 C1644 0.930 . S
H1649 C1646 0.929 . S
S1650 N1651 1.613 . S
S1650 N1652 1.610 . S
N1651 S1650 1.613 . S
N1651 C1654 1.350 . S
N1652 S1650 1.610 . S
N1652 C1653 1.351 . S
C1653 C1647 1.428 . S
C1653 N1652 1.351 . S
C1653 C1654 1.434 . S
C1654 C1645 1.429 . S
C1654 N1651 1.350 . S
C1654 C1653 1.434 . S
C1655 C1656 1.369 . S
C1655 C1657 1.419 . S
C1655 H1659 0.930 . S
C1656 C1655 1.369 . S
C1656 C1665 1.429 . S
C1657 C1655 1.419 . S
C1657 C1658 1.363 . S
C1657 H1660 0.929 . S
C1658 C1657 1.363 . S
C1658 C1664 1.428 . S
H1659 C1655 0.930 . S
H1660 C1657 0.929 . S
S1661 N1662 1.613 . S
S1661 N1663 1.610 . S
N1662 S1661 1.613 . S
N1662 C1665 1.350 . S
N1663 S1661 1.610 . S
N1663 C1664 1.351 . S
C1664 C1658 1.428 . S
C1664 N1663 1.351 . S
C1664 C1665 1.434 . S
C1665 C1656 1.429 . S
C1665 N1662 1.350 . S
C1665 C1664 1.434 . S
C1666 C1667 1.369 . S
C1666 C1668 1.419 . S
C1666 H1670 0.930 . S
C1667 C1666 1.369 . S
C1667 C1676 1.429 . S
C1668 C1666 1.419 . S
C1668 C1669 1.363 . S
C1668 H1671 0.929 . S
C1669 C1668 1.363 . S
C1669 C1675 1.428 . S
H1670 C1666 0.930 . S
H1671 C1668 0.929 . S
S1672 N1673 1.613 . S
S1672 N1674 1.610 . S
N1673 S1672 1.613 . S
N1673 C1676 1.350 . S
N1674 S1672 1.610 . S
N1674 C1675 1.351 . S
C1675 C1669 1.428 . S
C1675 N1674 1.351 . S
C1675 C1676 1.434 . S
C1676 C1667 1.429 . S
C1676 N1673 1.350 . S
C1676 C1675 1.434 . S
C1677 C1678 1.369 . S
C1677 C1679 1.419 . S
C1677 H1681 0.930 . S
C1678 C1677 1.369 . S
C1678 C1687 1.429 . S
C1679 C1677 1.419 . S
C1679 C1680 1.363 . S
C1679 H1682 0.929 . S
C1680 C1679 1.363 . S
C1680 C1686 1.428 . S
H1681 C1677 0.930 . S
H1682 C1679 0.929 . S
S1683 N1684 1.613 . S
S1683 N1685 1.610 . S
N1684 S1683 1.613 . S
N1684 C1687 1.350 . S
N1685 S1683 1.610 . S
N1685 C1686 1.351 . S
C1686 C1680 1.428 . S
C1686 N1685 1.351 . S
C1686 C1687 1.434 . S
C1687 C1678 1.429 . S
C1687 N1684 1.350 . S
C1687 C1686 1.434 . S
C1339 C941 1.467 . S
C1337 C29 1.194 . S
C1350 C994 1.518 . S
C1348 C125 0.709 . S
C1361 C1057 1.571 . S
C1359 C257 1.274 . S
C1372 C1100 1.438 . S
C1370 C353 0.710 . S
C1381 C457 1.163 . S
C1383 C1056 1.522 . S
C1394 C1093 1.525 . S
C1392 C625 1.315 . S
C1405 C934 1.447 . S
C1403 C685 1.128 . S
C1416 C987 1.384 . S
C1414 C853 1.165 . S
C1427 C1040 1.659 . S
C1425 C809 1.120 . S
C1438 C1109 1.777 . S
C1436 C485 1.498 . S
C1449 C950 1.752 . S
C1447 C581 1.144 . S
C1460 C1003 1.694 . S
C1458 C713 1.372 . S
C1471 C951 1.718 . S
C1469 C169 1.250 . S
C1482 C1004 1.745 . S
C1480 C229 1.364 . S
C1493 C1047 1.634 . S
C1491 C397 1.173 . S
C1504 C1110 1.655 . S
C1502 C1 1.291 . S
C1515 C1153 1.438 . S
C1513 C827 1.130 . S
C1524 C467 0.989 . S
C1526 C1206 1.857 . S
C1535 C599 1.337 . S
C1537 C1268 1.601 . S
C1546 C695 1.009 . S
C1548 C1322 1.829 . S
C1557 C115 1.165 . S
C1559 C1269 1.490 . S
C1568 C283 1.607 . S
C1570 C1321 1.919 . S
C1579 C343 1.117 . S
C1581 C1146 1.478 . S
C1592 C1199 1.738 . S
C1590 C55 1.423 . S
C1603 C1259 1.613 . S
C1601 C11 1.089 . S
C1612 C143 1.099 . S
C1614 C1305 1.319 . S
C1623 C239 1.186 . S
C1625 C1162 1.816 . S
C1634 C371 1.101 . S
C1636 C1215 1.298 . S
C1647 C1163 1.652 . S
C1645 C511 1.210 . S
C1658 C1216 1.370 . S
C1656 C571 1.010 . S
C1667 C739 1.225 . S
C1669 C1252 1.671 . S
C1680 C1312 1.221 . S
C1678 C799 1.000 . S
