# Generated by pormake.
# Topology apo, (3,6)-cn, num edge types: 1
# Building blocks:
#     Node 0, Type 0, BuildingBlock: PAMTOO_clean_linker_0, # of connection points: 3
#     Node 1, Type 0, BuildingBlock: PAMTOO_clean_linker_0, # of connection points: 3
#     Node 2, Type 0, BuildingBlock: PAMTOO_clean_linker_0, # of connection points: 3
#     Node 3, Type 0, BuildingBlock: PAMTOO_clean_linker_0, # of connection points: 3
#     Node 4, Type 0, BuildingBlock: PAMTOO_clean_linker_0, # of connection points: 3
#     Node 5, Type 0, BuildingBlock: PAMTOO_clean_linker_0, # of connection points: 3
#     Node 6, Type 0, BuildingBlock: PAMTOO_clean_linker_0, # of connection points: 3
#     Node 7, Type 0, BuildingBlock: PAMTOO_clean_linker_0, # of connection points: 3
#     Node 8, Type 1, BuildingBlock: MIDCAF_clean_sbu_0, # of connection points: 6
#     Node 9, Type 1, BuildingBlock: MIDCAF_clean_sbu_0, # of connection points: 6
#     Node 10, Type 1, BuildingBlock: MIDCAF_clean_sbu_0, # of connection points: 6
#     Node 11, Type 1, BuildingBlock: MIDCAF_clean_sbu_0, # of connection points: 6
#     Edge 12, Type (0, 1), BuildingBlock: EYOCIG_clean_linker_4, # of connection points: 2
#     Edge 13, Type (0, 1), BuildingBlock: EYOCIG_clean_linker_4, # of connection points: 2
#     Edge 14, Type (0, 1), BuildingBlock: EYOCIG_clean_linker_4, # of connection points: 2
#     Edge 15, Type (0, 1), BuildingBlock: EYOCIG_clean_linker_4, # of connection points: 2
#     Edge 16, Type (0, 1), BuildingBlock: EYOCIG_clean_linker_4, # of connection points: 2
#     Edge 17, Type (0, 1), BuildingBlock: EYOCIG_clean_linker_4, # of connection points: 2
#     Edge 18, Type (0, 1), BuildingBlock: EYOCIG_clean_linker_4, # of connection points: 2
#     Edge 19, Type (0, 1), BuildingBlock: EYOCIG_clean_linker_4, # of connection points: 2
#     Edge 20, Type (0, 1), BuildingBlock: EYOCIG_clean_linker_4, # of connection points: 2
#     Edge 21, Type (0, 1), BuildingBlock: EYOCIG_clean_linker_4, # of connection points: 2
#     Edge 22, Type (0, 1), BuildingBlock: EYOCIG_clean_linker_4, # of connection points: 2
#     Edge 23, Type (0, 1), BuildingBlock: EYOCIG_clean_linker_4, # of connection points: 2
#     Edge 24, Type (0, 1), BuildingBlock: EYOCIG_clean_linker_4, # of connection points: 2
#     Edge 25, Type (0, 1), BuildingBlock: EYOCIG_clean_linker_4, # of connection points: 2
#     Edge 26, Type (0, 1), BuildingBlock: EYOCIG_clean_linker_4, # of connection points: 2
#     Edge 27, Type (0, 1), BuildingBlock: EYOCIG_clean_linker_4, # of connection points: 2
#     Edge 28, Type (0, 1), BuildingBlock: EYOCIG_clean_linker_4, # of connection points: 2
#     Edge 29, Type (0, 1), BuildingBlock: EYOCIG_clean_linker_4, # of connection points: 2
#     Edge 30, Type (0, 1), BuildingBlock: EYOCIG_clean_linker_4, # of connection points: 2
#     Edge 31, Type (0, 1), BuildingBlock: EYOCIG_clean_linker_4, # of connection points: 2
#     Edge 32, Type (0, 1), BuildingBlock: EYOCIG_clean_linker_4, # of connection points: 2
#     Edge 33, Type (0, 1), BuildingBlock: EYOCIG_clean_linker_4, # of connection points: 2
#     Edge 34, Type (0, 1), BuildingBlock: EYOCIG_clean_linker_4, # of connection points: 2
#     Edge 35, Type (0, 1), BuildingBlock: EYOCIG_clean_linker_4, # of connection points: 2
# Relax obj value: 0.013
# Max RMSD: 0.059
# Mean RMSD: 0.052
data_MOF--net-apo--node1-MIDCAF_clean_sbu_0--node2-PAMTOO_clean_linker_0--edge1-EYOCIG_clean_linker_4
_symmetry_space_group_name_H-M    P1
_symmetry_Int_Tables_number       1
_symmetry_cell_setting            triclinic
loop_
_symmetry_equiv_pos_as_xyz
'x, y, z'
_cell_length_a     29.43636
_cell_length_b     33.499551
_cell_length_c     26.961426
_cell_angle_alpha  89.88001
_cell_angle_beta   89.968883
_cell_angle_gamma 90.149915
loop_
_atom_site_label
_atom_site_type_symbol
_atom_site_fract_x
_atom_site_fract_y
_atom_site_fract_z
_atom_type_partial_charge
H0 H 0.40182 0.36786 0.44456 0.0
H1 H 0.32734 0.3436 0.3106 0.0
H2 H 0.30075 0.27456 0.44229 0.0
H3 H 0.30436 0.23007 0.34059 0.0
C4 C 0.28675 0.25364 0.31887 0.0
O5 O 0.27775 0.2861 0.34875 0.0
H6 H 0.30846 0.26291 0.28711 0.0
C7 C 0.3767 0.35038 0.4246 0.0
C8 C 0.35259 0.32014 0.44935 0.0
C9 C 0.36799 0.3588 0.37458 0.0
C10 C 0.33489 0.33679 0.34904 0.0
C11 C 0.31086 0.30615 0.37324 0.0
C12 C 0.31981 0.2978 0.42347 0.0
H13 H 0.09925 0.11223 0.94038 0.0
H14 H 0.19892 0.20666 0.93679 0.0
H15 H 0.16359 0.14456 0.80259 0.0
H16 H 0.25633 0.16168 0.80423 0.0
C17 C 0.25817 0.1873 0.83028 0.0
O18 O 0.21493 0.2008 0.84075 0.0
H19 H 0.27539 0.17768 0.86499 0.0
C20 C 0.12286 0.1309 0.91978 0.0
C21 C 0.12839 0.125 0.86868 0.0
C22 C 0.14797 0.16037 0.9446 0.0
C23 C 0.17914 0.18397 0.91796 0.0
C24 C 0.18473 0.1783 0.86661 0.0
C25 C 0.15892 0.14907 0.84206 0.0
H26 H 0.90162 0.1159 0.56765 0.0
H27 H 0.82809 0.14 0.70227 0.0
H28 H 0.80049 0.20867 0.57065 0.0
H29 H 0.80517 0.25324 0.67213 0.0
C30 C 0.78729 0.22983 0.69401 0.0
O31 O 0.77814 0.19719 0.66442 0.0
H32 H 0.80881 0.22072 0.72591 0.0
C33 C 0.87663 0.13328 0.58781 0.0
C34 C 0.85232 0.16335 0.56322 0.0
C35 C 0.86828 0.12489 0.63794 0.0
C36 C 0.83535 0.14679 0.66374 0.0
C37 C 0.81112 0.17725 0.63969 0.0
C38 C 0.8197 0.18555 0.58935 0.0
H39 H 0.59965 0.37233 0.07173 0.0
H40 H 0.69896 0.27808 0.07565 0.0
H41 H 0.66297 0.33982 0.20984 0.0
H42 H 0.7558 0.32246 0.209 0.0
C43 C 0.7576 0.29707 0.18263 0.0
O44 O 0.71431 0.28368 0.17182 0.0
H45 H 0.77502 0.307 0.14812 0.0
C46 C 0.62307 0.35368 0.09242 0.0
C47 C 0.62827 0.35947 0.14357 0.0
C48 C 0.64824 0.32431 0.06766 0.0
C49 C 0.67916 0.30071 0.09443 0.0
C50 C 0.68443 0.30627 0.14583 0.0
C51 C 0.65857 0.33541 0.17031 0.0
H52 H 0.59628 0.61627 0.56646 0.0
H53 H 0.69736 0.70956 0.56872 0.0
H54 H 0.67075 0.64053 0.70042 0.0
H55 H 0.68968 0.72121 0.72391 0.0
C56 C 0.71136 0.73048 0.69214 0.0
O57 O 0.72036 0.69802 0.66226 0.0
H58 H 0.69374 0.75405 0.67043 0.0
C59 C 0.62139 0.63375 0.58642 0.0
C60 C 0.6301 0.62533 0.63644 0.0
C61 C 0.64552 0.66398 0.56167 0.0
C62 C 0.6783 0.68631 0.58755 0.0
C63 C 0.68724 0.67797 0.63778 0.0
C64 C 0.6632 0.64734 0.66198 0.0
H65 H 0.89882 0.87192 0.07041 0.0
H66 H 0.83448 0.83959 0.2082 0.0
H67 H 0.79919 0.77747 0.07401 0.0
H68 H 0.72268 0.80638 0.14578 0.0
C69 C 0.73991 0.79681 0.1805 0.0
O70 O 0.78317 0.78333 0.17004 0.0
H71 H 0.74173 0.82245 0.20651 0.0
C72 C 0.87522 0.85325 0.09102 0.0
C73 C 0.85013 0.82377 0.0662 0.0
C74 C 0.86968 0.85915 0.14211 0.0
C75 C 0.83915 0.83508 0.16873 0.0
C76 C 0.81336 0.80584 0.14418 0.0
C77 C 0.81895 0.80017 0.09284 0.0
H78 H 0.09648 0.86822 0.44314 0.0
H79 H 0.19762 0.77547 0.44016 0.0
H80 H 0.17001 0.84411 0.30852 0.0
H81 H 0.18932 0.7634 0.28488 0.0
C82 C 0.21082 0.75429 0.3168 0.0
O83 O 0.21996 0.78693 0.34639 0.0
H84 H 0.19293 0.73088 0.33867 0.0
C85 C 0.12147 0.85084 0.42299 0.0
C86 C 0.12981 0.85922 0.37286 0.0
C87 C 0.14579 0.82077 0.44758 0.0
C88 C 0.17841 0.79857 0.42145 0.0
C89 C 0.18699 0.80687 0.37111 0.0
C90 C 0.16274 0.83733 0.34705 0.0
H91 H 0.39843 0.61177 0.93929 0.0
H92 H 0.33511 0.64428 0.80118 0.0
H93 H 0.29916 0.70604 0.93537 0.0
H94 H 0.22306 0.67719 0.86293 0.0
C95 C 0.24049 0.68707 0.82841 0.0
O96 O 0.2838 0.70044 0.8392 0.0
H97 H 0.24227 0.66165 0.80207 0.0
C98 C 0.37501 0.63042 0.9186 0.0
C99 C 0.34985 0.65979 0.94336 0.0
C100 C 0.36981 0.62462 0.86745 0.0
C101 C 0.33951 0.64869 0.84071 0.0
C102 C 0.31366 0.67784 0.86519 0.0
C103 C 0.31894 0.6834 0.91659 0.0
Zn104 Zn 0.04115 0.10884 0.34262 0.0
Zn105 Zn 0.96123 0.1082 0.16916 0.0
Zn106 Zn 0.00172 0.11095 0.25572 0.0
C107 C 0.04878 0.13824 0.15286 0.0
C108 C 0.9602 0.0308 0.2034 0.0
O109 O 0.95487 0.14052 0.30987 0.0
O110 O 0.98837 0.12725 0.38161 0.0
C111 C 0.09556 0.15665 0.28227 0.0
O112 O 0.04959 0.13823 0.20072 0.0
O113 O 0.01497 0.12449 0.12977 0.0
O114 O 0.94272 0.05134 0.16921 0.0
O115 O 0.98519 0.04745 0.23686 0.0
O116 O 0.09012 0.14738 0.32721 0.0
O117 O 0.0675 0.14418 0.24891 0.0
O118 O 0.01554 0.04739 0.27633 0.0
O119 O 0.05742 0.05154 0.34437 0.0
C120 C 0.03976 0.03082 0.3105 0.0
O121 O 0.93821 0.14733 0.26143 0.0
O122 O 0.91456 0.14896 0.18341 0.0
C123 C 0.9553 0.14141 0.35774 0.0
C124 C 0.91054 0.16007 0.22782 0.0
Zn125 Zn 0.54268 0.37505 0.66906 0.0
Zn126 Zn 0.46261 0.3763 0.84255 0.0
Zn127 Zn 0.50313 0.37327 0.756 0.0
C128 C 0.46154 0.45353 0.8077 0.0
C129 C 0.41186 0.32406 0.78419 0.0
O130 O 0.56882 0.34019 0.76302 0.0
O131 O 0.5915 0.33666 0.68474 0.0
C132 C 0.54125 0.45323 0.70061 0.0
O133 O 0.48657 0.43683 0.77437 0.0
O134 O 0.4441 0.43308 0.84209 0.0
O135 O 0.41588 0.33533 0.82855 0.0
O136 O 0.43958 0.33674 0.7505 0.0
O137 O 0.55899 0.4324 0.66695 0.0
O138 O 0.51697 0.43674 0.73491 0.0
O139 O 0.45625 0.34336 0.70204 0.0
O140 O 0.48986 0.35636 0.63019 0.0
C141 C 0.45671 0.34226 0.65417 0.0
O142 O 0.55089 0.34634 0.81118 0.0
O143 O 0.51626 0.36034 0.88206 0.0
C144 C 0.59686 0.32759 0.72974 0.0
C145 C 0.55004 0.34654 0.85905 0.0
Zn146 Zn 0.03691 0.87595 0.84166 0.0
Zn147 Zn 0.95698 0.87526 0.66819 0.0
Zn148 Zn -0.00358 0.87318 0.7551 0.0
C149 C 0.95836 0.95329 0.70028 0.0
C150 C 0.90258 0.82746 0.72857 0.0
O151 O 0.05995 0.83681 0.7494 0.0
O152 O 0.08359 0.8352 0.82743 0.0
C153 C 0.03792 0.95335 0.80739 0.0
O154 O 0.98259 0.93673 0.73446 0.0
O155 O 0.9407 0.93255 0.66642 0.0
O156 O 0.90801 0.83671 0.68362 0.0
O157 O 0.93065 0.83995 0.76192 0.0
O158 O 0.0554 0.93282 0.84158 0.0
O159 O 0.01294 0.93669 0.77393 0.0
O160 O 0.94856 0.8459 0.8101 0.0
O161 O 0.98317 0.85967 0.88106 0.0
C162 C 0.94937 0.84591 0.85797 0.0
O163 O 0.04328 0.8436 0.70096 0.0
O164 O 0.00977 0.85684 0.62921 0.0
C165 C 0.08761 0.82408 0.78302 0.0
C166 C 0.04284 0.8427 0.65309 0.0
Zn167 Zn 0.53553 0.60779 0.16845 0.0
Zn168 Zn 0.45545 0.6091 0.34194 0.0
Zn169 Zn 0.49502 0.61084 0.25501 0.0
C170 C 0.54143 0.64187 0.35682 0.0
C171 C 0.45688 0.53091 0.31043 0.0
O172 O 0.44727 0.63777 0.19981 0.0
O173 O 0.48187 0.62375 0.12894 0.0
C174 C 0.58629 0.66004 0.22678 0.0
O175 O 0.5419 0.64076 0.30895 0.0
O176 O 0.50828 0.62779 0.3808 0.0
O177 O 0.43913 0.55175 0.34407 0.0
O178 O 0.48115 0.54738 0.27612 0.0
O179 O 0.58226 0.64875 0.18243 0.0
O180 O 0.55857 0.64738 0.26048 0.0
O181 O 0.51156 0.54728 0.23666 0.0
O182 O 0.55402 0.551 0.16893 0.0
C183 C 0.53658 0.53057 0.20333 0.0
O184 O 0.42933 0.64393 0.24797 0.0
O185 O 0.40664 0.64748 0.32625 0.0
C186 C 0.44811 0.63757 0.15194 0.0
C187 C 0.40129 0.65654 0.28124 0.0
C188 C 0.08498 0.91955 0.33217 0.0
C189 C 0.10615 0.89184 0.34915 0.0
C190 C 0.06336 0.95534 0.31726 0.0
C191 C 0.04975 0.9888 0.30975 0.0
C192 C 0.41529 0.56477 0.82676 0.0
C193 C 0.39386 0.5924 0.84346 0.0
C194 C 0.43706 0.52891 0.81249 0.0
C195 C 0.45104 0.49545 0.80587 0.0
C196 C 0.58574 0.56475 0.67764 0.0
C197 C 0.60667 0.59257 0.66033 0.0
C198 C 0.56442 0.52885 0.69299 0.0
C199 C 0.55101 0.49532 0.70087 0.0
C200 C 0.91477 0.91925 0.18314 0.0
C201 C 0.89355 0.89153 0.16617 0.0
C202 C 0.93622 0.95524 0.19781 0.0
C203 C 0.94995 0.98878 0.20477 0.0
C204 C 0.91311 0.06455 0.67861 0.0
C205 C 0.89195 0.09227 0.66164 0.0
C206 C 0.93473 0.02876 0.69351 0.0
C207 C 0.94836 -0.0047 0.70102 0.0
C208 C 0.58279 0.41931 0.18427 0.0
C209 C 0.60421 0.39169 0.16757 0.0
C210 C 0.56103 0.45518 0.19855 0.0
C211 C 0.54706 0.48864 0.20517 0.0
C212 C 0.41235 0.41939 0.33339 0.0
C213 C 0.39143 0.39157 0.3507 0.0
C214 C 0.43368 0.45529 0.31805 0.0
C215 C 0.44709 0.48881 0.31017 0.0
C216 C 0.0833 0.06491 0.82764 0.0
C217 C 0.10452 0.09263 0.84462 0.0
C218 C 0.06186 0.02892 0.81297 0.0
C219 C 0.04815 -0.00463 0.80601 0.0
C220 C 0.13003 0.16566 0.04066 0.0
C221 C 0.14084 0.16577 0.99733 0.0
C222 C 0.1102 0.16087 0.0883 0.0
C223 C 0.08634 0.15242 0.12336 0.0
C224 C 0.37401 0.31275 0.5443 0.0
C225 C 0.36153 0.31343 0.50153 0.0
C226 C 0.39498 0.31765 0.59129 0.0
C227 C 0.41915 0.32694 0.62568 0.0
C228 C 0.63078 0.31918 0.97149 0.0
C229 C 0.64139 0.31899 0.01487 0.0
C230 C 0.61116 0.324 0.92378 0.0
C231 C 0.58745 0.3324 0.88865 0.0
C232 C 0.87312 0.17071 0.46806 0.0
C233 C 0.86091 0.17003 0.51094 0.0
C234 C 0.89383 0.16587 0.42091 0.0
C235 C 0.91786 0.15667 0.38638 0.0
C236 C 0.8681 0.81847 0.97015 0.0
C237 C 0.85727 0.81836 0.01347 0.0
C238 C 0.88794 0.82326 0.92251 0.0
C239 C 0.91181 0.83171 0.88746 0.0
C240 C 0.62411 0.67137 0.46671 0.0
C241 C 0.63658 0.67068 0.50949 0.0
C242 C 0.60316 0.66647 0.41971 0.0
C243 C 0.57899 0.65718 0.38532 0.0
C244 C 0.36734 0.66493 0.03952 0.0
C245 C 0.35672 0.66512 0.99614 0.0
C246 C 0.38698 0.66011 0.08723 0.0
C247 C 0.4107 0.65171 0.12234 0.0
C248 C 0.125 0.81342 0.54275 0.0
C249 C 0.1372 0.8141 0.49986 0.0
C250 C 0.10431 0.81825 0.5899 0.0
C251 C 0.08029 0.82745 0.62444 0.0
C252 C 0.20947 0.22134 0.28483 0.0
C253 C 0.24405 0.23701 0.29938 0.0
C254 C 0.16892 0.20061 0.27264 0.0
C255 C 0.13449 0.18094 0.27032 0.0
C256 C 0.31169 0.24372 0.79071 0.0
C257 C 0.28556 0.21911 0.80722 0.0
C258 C 0.34569 0.27173 0.77699 0.0
C259 C 0.37675 0.29529 0.77374 0.0
C260 C 0.7102 0.26257 0.72756 0.0
C261 C 0.74465 0.24669 0.71321 0.0
C262 C 0.66985 0.28351 0.73959 0.0
C263 C 0.63559 0.30328 0.7418 0.0
C264 C 0.81071 0.24036 0.22167 0.0
C265 C 0.78474 0.26506 0.20536 0.0
C266 C 0.84457 0.21231 0.23524 0.0
C267 C 0.87553 0.18877 0.23841 0.0
C268 C 0.78866 0.76279 0.72611 0.0
C269 C 0.75407 0.74712 0.7116 0.0
C270 C 0.82923 0.78352 0.73826 0.0
C271 C 0.86366 0.80319 0.74054 0.0
C272 C 0.68644 0.74039 0.22015 0.0
C273 C 0.71255 0.765 0.2036 0.0
C274 C 0.65245 0.71238 0.23393 0.0
C275 C 0.62139 0.68882 0.23721 0.0
C276 C 0.28793 0.72154 0.2833 0.0
C277 C 0.25346 0.73743 0.29763 0.0
C278 C 0.32829 0.7006 0.27132 0.0
C279 C 0.36256 0.68084 0.26914 0.0
C280 C 0.18742 0.74378 0.78928 0.0
C281 C 0.21338 0.71908 0.80563 0.0
C282 C 0.15358 0.77183 0.77566 0.0
C283 C 0.12262 0.79537 0.77246 0.0
loop_
_geom_bond_atom_site_label_1
_geom_bond_atom_site_label_2
_geom_bond_distance
_geom_bond_site_symmetry_2
_ccdc_geom_bond_type
H0 C7 0.929 . S
H1 C10 0.930 . S
H2 C12 0.929 . S
H3 C4 0.969 . S
C4 H3 0.969 . S
C4 O5 1.550 . S
C4 H6 0.973 . S
O5 C4 1.550 . S
O5 C11 1.412 . S
H6 C4 0.973 . S
C7 H0 0.929 . S
C7 C8 1.400 . S
C7 C9 1.364 . S
C8 C7 1.400 . S
C8 C12 1.377 . S
C9 C7 1.364 . S
C9 C10 1.374 . S
C10 H1 0.930 . S
C10 C9 1.374 . S
C10 C11 1.383 . S
C11 O5 1.412 . S
C11 C10 1.383 . S
C11 C12 1.394 . S
C12 H2 0.929 . S
C12 C8 1.377 . S
C12 C11 1.394 . S
H13 C20 0.929 . S
H14 C23 0.930 . S
H15 C25 0.929 . S
H16 C17 0.969 . S
C17 H16 0.969 . S
C17 O18 1.550 . S
C17 H19 0.973 . S
O18 C17 1.550 . S
O18 C24 1.412 . S
H19 C17 0.973 . S
C20 H13 0.929 . S
C20 C21 1.400 . S
C20 C22 1.364 . S
C21 C20 1.400 . S
C21 C25 1.377 . S
C22 C20 1.364 . S
C22 C23 1.374 . S
C23 H14 0.930 . S
C23 C22 1.374 . S
C23 C24 1.383 . S
C24 O18 1.412 . S
C24 C23 1.383 . S
C24 C25 1.394 . S
C25 H15 0.929 . S
C25 C21 1.377 . S
C25 C24 1.394 . S
H26 C33 0.929 . S
H27 C36 0.930 . S
H28 C38 0.929 . S
H29 C30 0.969 . S
C30 H29 0.969 . S
C30 O31 1.550 . S
C30 H32 0.973 . S
O31 C30 1.550 . S
O31 C37 1.412 . S
H32 C30 0.973 . S
C33 H26 0.929 . S
C33 C34 1.400 . S
C33 C35 1.364 . S
C34 C33 1.400 . S
C34 C38 1.377 . S
C35 C33 1.364 . S
C35 C36 1.374 . S
C36 H27 0.930 . S
C36 C35 1.374 . S
C36 C37 1.383 . S
C37 O31 1.412 . S
C37 C36 1.383 . S
C37 C38 1.394 . S
C38 H28 0.929 . S
C38 C34 1.377 . S
C38 C37 1.394 . S
H39 C46 0.929 . S
H40 C49 0.930 . S
H41 C51 0.929 . S
H42 C43 0.969 . S
C43 H42 0.969 . S
C43 O44 1.550 . S
C43 H45 0.973 . S
O44 C43 1.550 . S
O44 C50 1.412 . S
H45 C43 0.973 . S
C46 H39 0.929 . S
C46 C47 1.400 . S
C46 C48 1.364 . S
C47 C46 1.400 . S
C47 C51 1.377 . S
C48 C46 1.364 . S
C48 C49 1.374 . S
C49 H40 0.930 . S
C49 C48 1.374 . S
C49 C50 1.383 . S
C50 O44 1.412 . S
C50 C49 1.383 . S
C50 C51 1.394 . S
C51 H41 0.929 . S
C51 C47 1.377 . S
C51 C50 1.394 . S
H52 C59 0.929 . S
H53 C62 0.930 . S
H54 C64 0.929 . S
H55 C56 0.969 . S
C56 H55 0.969 . S
C56 O57 1.550 . S
C56 H58 0.973 . S
O57 C56 1.550 . S
O57 C63 1.412 . S
H58 C56 0.973 . S
C59 H52 0.929 . S
C59 C60 1.400 . S
C59 C61 1.364 . S
C60 C59 1.400 . S
C60 C64 1.377 . S
C61 C59 1.364 . S
C61 C62 1.374 . S
C62 H53 0.930 . S
C62 C61 1.374 . S
C62 C63 1.383 . S
C63 O57 1.412 . S
C63 C62 1.383 . S
C63 C64 1.394 . S
C64 H54 0.929 . S
C64 C60 1.377 . S
C64 C63 1.394 . S
H65 C72 0.929 . S
H66 C75 0.930 . S
H67 C77 0.929 . S
H68 C69 0.969 . S
C69 H68 0.969 . S
C69 O70 1.550 . S
C69 H71 0.973 . S
O70 C69 1.550 . S
O70 C76 1.412 . S
H71 C69 0.973 . S
C72 H65 0.929 . S
C72 C73 1.400 . S
C72 C74 1.364 . S
C73 C72 1.400 . S
C73 C77 1.377 . S
C74 C72 1.364 . S
C74 C75 1.374 . S
C75 H66 0.930 . S
C75 C74 1.374 . S
C75 C76 1.383 . S
C76 O70 1.412 . S
C76 C75 1.383 . S
C76 C77 1.394 . S
C77 H67 0.929 . S
C77 C73 1.377 . S
C77 C76 1.394 . S
H78 C85 0.929 . S
H79 C88 0.930 . S
H80 C90 0.929 . S
H81 C82 0.969 . S
C82 H81 0.969 . S
C82 O83 1.550 . S
C82 H84 0.973 . S
O83 C82 1.550 . S
O83 C89 1.412 . S
H84 C82 0.973 . S
C85 H78 0.929 . S
C85 C86 1.400 . S
C85 C87 1.364 . S
C86 C85 1.400 . S
C86 C90 1.377 . S
C87 C85 1.364 . S
C87 C88 1.374 . S
C88 H79 0.930 . S
C88 C87 1.374 . S
C88 C89 1.383 . S
C89 O83 1.412 . S
C89 C88 1.383 . S
C89 C90 1.394 . S
C90 H80 0.929 . S
C90 C86 1.377 . S
C90 C89 1.394 . S
H91 C98 0.929 . S
H92 C101 0.930 . S
H93 C103 0.929 . S
H94 C95 0.969 . S
C95 H94 0.969 . S
C95 O96 1.550 . S
C95 H97 0.973 . S
O96 C95 1.550 . S
O96 C102 1.412 . S
H97 C95 0.973 . S
C98 H91 0.929 . S
C98 C99 1.400 . S
C98 C100 1.364 . S
C99 C98 1.400 . S
C99 C103 1.377 . S
C100 C98 1.364 . S
C100 C101 1.374 . S
C101 H92 0.930 . S
C101 C100 1.374 . S
C101 C102 1.383 . S
C102 O96 1.412 . S
C102 C101 1.383 . S
C102 C103 1.394 . S
C103 H93 0.929 . S
C103 C99 1.377 . S
C103 C102 1.394 . S
Zn104 O110 1.931 . S
Zn104 O116 1.898 . S
Zn104 O119 1.905 . S
Zn105 O113 1.905 1_655 S
Zn105 O114 1.898 . S
Zn105 O122 1.920 . S
Zn106 O109 2.080 1_455 S
Zn106 O112 2.114 . S
Zn106 O115 2.120 1_455 S
Zn106 O117 2.120 . S
Zn106 O118 2.114 . S
Zn106 O121 2.080 1_455 S
C107 O112 1.166 . S
C107 O113 1.182 . S
C108 O114 1.167 . S
C108 O115 1.299 . S
O109 Zn106 2.080 1_655 S
O109 C123 1.305 . S
O110 Zn104 1.931 . S
O110 C123 1.224 1_455 S
C111 O116 1.167 . S
C111 O117 1.299 . S
O112 Zn106 2.114 . S
O112 C107 1.166 . S
O113 Zn105 1.905 1_455 S
O113 C107 1.182 . S
O114 Zn105 1.898 . S
O114 C108 1.167 . S
O115 Zn106 2.120 1_655 S
O115 C108 1.299 . S
O116 Zn104 1.898 . S
O116 C111 1.167 . S
O117 Zn106 2.120 . S
O117 C111 1.299 . S
O118 Zn106 2.114 . S
O118 C120 1.166 . S
O119 Zn104 1.905 . S
O119 C120 1.182 . S
C120 O118 1.166 . S
C120 O119 1.182 . S
O121 Zn106 2.080 1_655 S
O121 C124 1.305 . S
O122 Zn105 1.920 . S
O122 C124 1.234 . S
C123 O109 1.305 . S
C123 O110 1.224 1_655 S
C124 O121 1.305 . S
C124 O122 1.234 . S
Zn125 O131 1.920 . S
Zn125 O137 1.898 . S
Zn125 O140 1.905 . S
Zn126 O134 1.905 . S
Zn126 O135 1.898 . S
Zn126 O143 1.920 . S
Zn127 O130 2.080 . S
Zn127 O133 2.114 . S
Zn127 O136 2.120 . S
Zn127 O138 2.120 . S
Zn127 O139 2.114 . S
Zn127 O142 2.080 . S
C128 O133 1.166 . S
C128 O134 1.182 . S
C129 O135 1.167 . S
C129 O136 1.299 . S
O130 Zn127 2.080 . S
O130 C144 1.305 . S
O131 Zn125 1.920 . S
O131 C144 1.234 . S
C132 O137 1.167 . S
C132 O138 1.299 . S
O133 Zn127 2.114 . S
O133 C128 1.166 . S
O134 Zn126 1.905 . S
O134 C128 1.182 . S
O135 Zn126 1.898 . S
O135 C129 1.167 . S
O136 Zn127 2.120 . S
O136 C129 1.299 . S
O137 Zn125 1.898 . S
O137 C132 1.167 . S
O138 Zn127 2.120 . S
O138 C132 1.299 . S
O139 Zn127 2.114 . S
O139 C141 1.166 . S
O140 Zn125 1.905 . S
O140 C141 1.182 . S
C141 O139 1.166 . S
C141 O140 1.182 . S
O142 Zn127 2.080 . S
O142 C145 1.305 . S
O143 Zn126 1.920 . S
O143 C145 1.234 . S
C144 O130 1.305 . S
C144 O131 1.234 . S
C145 O142 1.305 . S
C145 O143 1.234 . S
Zn146 O152 1.920 . S
Zn146 O158 1.898 . S
Zn146 O161 1.905 1_455 S
Zn147 O155 1.905 . S
Zn147 O156 1.898 . S
Zn147 O164 1.920 1_655 S
Zn148 O151 2.080 . S
Zn148 O154 2.114 1_455 S
Zn148 O157 2.120 1_455 S
Zn148 O159 2.120 . S
Zn148 O160 2.114 1_455 S
Zn148 O163 2.080 . S
C149 O154 1.166 . S
C149 O155 1.182 . S
C150 O156 1.167 . S
C150 O157 1.299 . S
O151 Zn148 2.080 . S
O151 C165 1.305 . S
O152 Zn146 1.920 . S
O152 C165 1.234 . S
C153 O158 1.167 . S
C153 O159 1.299 . S
O154 Zn148 2.114 1_655 S
O154 C149 1.166 . S
O155 Zn147 1.905 . S
O155 C149 1.182 . S
O156 Zn147 1.898 . S
O156 C150 1.167 . S
O157 Zn148 2.120 1_655 S
O157 C150 1.299 . S
O158 Zn146 1.898 . S
O158 C153 1.167 . S
O159 Zn148 2.120 . S
O159 C153 1.299 . S
O160 Zn148 2.114 1_655 S
O160 C162 1.166 . S
O161 Zn146 1.905 1_655 S
O161 C162 1.182 . S
C162 O160 1.166 . S
C162 O161 1.182 . S
O163 Zn148 2.080 . S
O163 C166 1.305 . S
O164 Zn147 1.920 1_455 S
O164 C166 1.234 . S
C165 O151 1.305 . S
C165 O152 1.234 . S
C166 O163 1.305 . S
C166 O164 1.234 . S
Zn167 O173 1.920 . S
Zn167 O179 1.898 . S
Zn167 O182 1.905 . S
Zn168 O176 1.905 . S
Zn168 O177 1.898 . S
Zn168 O185 1.920 . S
Zn169 O172 2.080 . S
Zn169 O175 2.114 . S
Zn169 O178 2.120 . S
Zn169 O180 2.120 . S
Zn169 O181 2.114 . S
Zn169 O184 2.080 . S
C170 O175 1.166 . S
C170 O176 1.182 . S
C171 O177 1.167 . S
C171 O178 1.299 . S
O172 Zn169 2.080 . S
O172 C186 1.305 . S
O173 Zn167 1.920 . S
O173 C186 1.234 . S
C174 O179 1.167 . S
C174 O180 1.299 . S
O175 Zn169 2.114 . S
O175 C170 1.166 . S
O176 Zn168 1.905 . S
O176 C170 1.182 . S
O177 Zn168 1.898 . S
O177 C171 1.167 . S
O178 Zn169 2.120 . S
O178 C171 1.299 . S
O179 Zn167 1.898 . S
O179 C174 1.167 . S
O180 Zn169 2.120 . S
O180 C174 1.299 . S
O181 Zn169 2.114 . S
O181 C183 1.166 . S
O182 Zn167 1.905 . S
O182 C183 1.182 . S
C183 O181 1.166 . S
C183 O182 1.182 . S
O184 Zn169 2.080 . S
O184 C187 1.305 . S
O185 Zn168 1.920 . S
O185 C187 1.234 . S
C186 O172 1.305 . S
C186 O173 1.234 . S
C187 O184 1.305 . S
C187 O185 1.234 . S
C188 C189 1.170 . S
C188 C190 1.380 . S
C189 C188 1.170 . S
C190 C188 1.380 . S
C190 C191 1.170 1_565 S
C191 C190 1.170 1_545 S
C192 C193 1.170 . S
C192 C194 1.380 . S
C193 C192 1.170 . S
C194 C192 1.380 . S
C194 C195 1.170 . S
C195 C194 1.170 . S
C196 C197 1.170 . S
C196 C198 1.380 . S
C197 C196 1.170 . S
C198 C196 1.380 . S
C198 C199 1.170 . S
C199 C198 1.170 . S
C200 C201 1.170 . S
C200 C202 1.380 . S
C201 C200 1.170 . S
C202 C200 1.380 . S
C202 C203 1.170 1_565 S
C203 C202 1.170 1_545 S
C204 C205 1.170 . S
C204 C206 1.380 . S
C205 C204 1.170 . S
C206 C204 1.380 . S
C206 C207 1.170 1_545 S
C207 C206 1.170 1_565 S
C208 C209 1.170 . S
C208 C210 1.380 . S
C209 C208 1.170 . S
C210 C208 1.380 . S
C210 C211 1.170 . S
C211 C210 1.170 . S
C212 C213 1.170 . S
C212 C214 1.380 . S
C213 C212 1.170 . S
C214 C212 1.380 . S
C214 C215 1.170 . S
C215 C214 1.170 . S
C216 C217 1.170 . S
C216 C218 1.380 . S
C217 C216 1.170 . S
C218 C216 1.380 . S
C218 C219 1.170 1_545 S
C219 C218 1.170 1_565 S
C220 C221 1.170 1_554 S
C220 C222 1.380 . S
C221 C220 1.170 1_556 S
C222 C220 1.380 . S
C222 C223 1.170 . S
C223 C222 1.170 . S
C224 C225 1.170 . S
C224 C226 1.380 . S
C225 C224 1.170 . S
C226 C224 1.380 . S
C226 C227 1.170 . S
C227 C226 1.170 . S
C228 C229 1.170 1_556 S
C228 C230 1.380 . S
C229 C228 1.170 1_554 S
C230 C228 1.380 . S
C230 C231 1.170 . S
C231 C230 1.170 . S
C232 C233 1.170 . S
C232 C234 1.380 . S
C233 C232 1.170 . S
C234 C232 1.380 . S
C234 C235 1.170 . S
C235 C234 1.170 . S
C236 C237 1.170 . S
C236 C238 1.380 . S
C237 C236 1.170 . S
C238 C236 1.380 . S
C238 C239 1.170 . S
C239 C238 1.170 . S
C240 C241 1.170 . S
C240 C242 1.380 . S
C241 C240 1.170 . S
C242 C240 1.380 . S
C242 C243 1.170 . S
C243 C242 1.170 . S
C244 C245 1.152 1_554 S
C244 C246 1.380 . S
C245 C244 1.152 1_556 S
C246 C244 1.380 . S
C246 C247 1.170 . S
C247 C246 1.170 . S
C248 C249 1.170 . S
C248 C250 1.380 . S
C249 C248 1.170 . S
C250 C248 1.380 . S
C250 C251 1.170 . S
C251 C250 1.170 . S
C252 C253 1.170 . S
C252 C254 1.380 . S
C253 C252 1.170 . S
C254 C252 1.380 . S
C254 C255 1.170 . S
C255 C254 1.170 . S
C256 C257 1.170 . S
C256 C258 1.380 . S
C257 C256 1.170 . S
C258 C256 1.380 . S
C258 C259 1.170 . S
C259 C258 1.170 . S
C260 C261 1.170 . S
C260 C262 1.380 . S
C261 C260 1.170 . S
C262 C260 1.380 . S
C262 C263 1.170 . S
C263 C262 1.170 . S
C264 C265 1.170 . S
C264 C266 1.380 . S
C265 C264 1.170 . S
C266 C264 1.380 . S
C266 C267 1.170 . S
C267 C266 1.170 . S
C268 C269 1.170 . S
C268 C270 1.380 . S
C269 C268 1.170 . S
C270 C268 1.380 . S
C270 C271 1.170 . S
C271 C270 1.170 . S
C272 C273 1.170 . S
C272 C274 1.380 . S
C273 C272 1.170 . S
C274 C272 1.380 . S
C274 C275 1.170 . S
C275 C274 1.170 . S
C276 C277 1.170 . S
C276 C278 1.380 . S
C277 C276 1.170 . S
C278 C276 1.380 . S
C278 C279 1.170 . S
C279 C278 1.170 . S
C280 C281 1.170 . S
C280 C282 1.380 . S
C281 C280 1.170 . S
C282 C280 1.380 . S
C282 C283 1.170 . S
C283 C282 1.170 . S
C189 C86 1.373 . S
C191 C120 1.316 . S
C195 C128 1.459 . S
C193 C100 1.473 . S
C199 C132 1.305 . S
C197 C60 1.373 . S
C201 C74 1.473 . S
C203 C108 1.422 . S
C207 C149 1.452 . S
C205 C35 1.486 . S
C211 C183 1.283 . S
C209 C47 1.369 . S
C213 C9 1.497 . S
C215 C171 1.456 . S
C217 C21 1.368 . S
C219 C153 1.266 . S
C223 C107 1.334 . S
C221 C22 1.461 . S
C227 C141 1.292 . S
C225 C8 1.455 . S
C231 C145 1.332 . S
C229 C48 1.462 . S
C235 C123 1.349 . S
C233 C34 1.466 . S
C239 C162 1.346 . S
C237 C73 1.452 1_556 S
C241 C61 1.480 . S
C243 C170 1.334 . S
C247 C186 1.298 . S
C245 C99 1.485 . S
C249 C87 1.467 . S
C251 C166 1.381 . S
C255 C111 1.430 . S
C253 C4 1.514 . S
C259 C129 1.294 . S
C257 C17 1.420 . S
C261 C30 1.514 . S
C263 C144 1.426 . S
C267 C124 1.283 . S
C265 C43 1.403 . S
C271 C150 1.281 . S
C269 C56 1.438 . S
C273 C69 1.511 . S
C275 C174 1.411 . S
C277 C82 1.446 . S
C279 C187 1.326 . S
C281 C95 1.500 . S
C283 C165 1.430 . S
