# Generated by pormake.
# Topology zzz, (3,6)-cn, num edge types: 1
# Building blocks:
#     Node 0, Type 0, BuildingBlock: BELTOD_clean_linker_0, # of connection points: 3
#     Node 1, Type 0, BuildingBlock: BELTOD_clean_linker_0, # of connection points: 3
#     Node 2, Type 0, BuildingBlock: BELTOD_clean_linker_0, # of connection points: 3
#     Node 3, Type 0, BuildingBlock: BELTOD_clean_linker_0, # of connection points: 3
#     Node 4, Type 0, BuildingBlock: BELTOD_clean_linker_0, # of connection points: 3
#     Node 5, Type 0, BuildingBlock: BELTOD_clean_linker_0, # of connection points: 3
#     Node 6, Type 0, BuildingBlock: BELTOD_clean_linker_0, # of connection points: 3
#     Node 7, Type 0, BuildingBlock: BELTOD_clean_linker_0, # of connection points: 3
#     Node 8, Type 1, BuildingBlock: FUNLAD_clean_sbu_0, # of connection points: 6
#     Node 9, Type 1, BuildingBlock: FUNLAD_clean_sbu_0, # of connection points: 6
#     Node 10, Type 1, BuildingBlock: FUNLAD_clean_sbu_0, # of connection points: 6
#     Node 11, Type 1, BuildingBlock: FUNLAD_clean_sbu_0, # of connection points: 6
#     Edge 12, Type (0, 1), BuildingBlock: ZUJKAS_clean_linker_0, # of connection points: 2
#     Edge 13, Type (0, 1), BuildingBlock: ZUJKAS_clean_linker_0, # of connection points: 2
#     Edge 14, Type (0, 1), BuildingBlock: ZUJKAS_clean_linker_0, # of connection points: 2
#     Edge 15, Type (0, 1), BuildingBlock: ZUJKAS_clean_linker_0, # of connection points: 2
#     Edge 16, Type (0, 1), BuildingBlock: ZUJKAS_clean_linker_0, # of connection points: 2
#     Edge 17, Type (0, 1), BuildingBlock: ZUJKAS_clean_linker_0, # of connection points: 2
#     Edge 18, Type (0, 1), BuildingBlock: ZUJKAS_clean_linker_0, # of connection points: 2
#     Edge 19, Type (0, 1), BuildingBlock: ZUJKAS_clean_linker_0, # of connection points: 2
#     Edge 20, Type (0, 1), BuildingBlock: ZUJKAS_clean_linker_0, # of connection points: 2
#     Edge 21, Type (0, 1), BuildingBlock: ZUJKAS_clean_linker_0, # of connection points: 2
#     Edge 22, Type (0, 1), BuildingBlock: ZUJKAS_clean_linker_0, # of connection points: 2
#     Edge 23, Type (0, 1), BuildingBlock: ZUJKAS_clean_linker_0, # of connection points: 2
#     Edge 24, Type (0, 1), BuildingBlock: ZUJKAS_clean_linker_0, # of connection points: 2
#     Edge 25, Type (0, 1), BuildingBlock: ZUJKAS_clean_linker_0, # of connection points: 2
#     Edge 26, Type (0, 1), BuildingBlock: ZUJKAS_clean_linker_0, # of connection points: 2
#     Edge 27, Type (0, 1), BuildingBlock: ZUJKAS_clean_linker_0, # of connection points: 2
#     Edge 28, Type (0, 1), BuildingBlock: ZUJKAS_clean_linker_0, # of connection points: 2
#     Edge 29, Type (0, 1), BuildingBlock: ZUJKAS_clean_linker_0, # of connection points: 2
#     Edge 30, Type (0, 1), BuildingBlock: ZUJKAS_clean_linker_0, # of connection points: 2
#     Edge 31, Type (0, 1), BuildingBlock: ZUJKAS_clean_linker_0, # of connection points: 2
#     Edge 32, Type (0, 1), BuildingBlock: ZUJKAS_clean_linker_0, # of connection points: 2
#     Edge 33, Type (0, 1), BuildingBlock: ZUJKAS_clean_linker_0, # of connection points: 2
#     Edge 34, Type (0, 1), BuildingBlock: ZUJKAS_clean_linker_0, # of connection points: 2
#     Edge 35, Type (0, 1), BuildingBlock: ZUJKAS_clean_linker_0, # of connection points: 2
# Relax obj value: 0.262
# Max RMSD: 0.207
# Mean RMSD: 0.180
data_MOF--net-zzz--node1-FUNLAD_clean_sbu_0--node2-BELTOD_clean_linker_0--edge1-ZUJKAS_clean_linker_0
_symmetry_space_group_name_H-M    P1
_symmetry_Int_Tables_number       1
_symmetry_cell_setting            triclinic
loop_
_symmetry_equiv_pos_as_xyz
'x, y, z'
_cell_length_a     68.194491
_cell_length_b     72.691108
_cell_length_c     26.340323
_cell_angle_alpha  87.224691
_cell_angle_beta   87.836117
_cell_angle_gamma 92.012401
loop_
_atom_site_label
_atom_site_type_symbol
_atom_site_fract_x
_atom_site_fract_y
_atom_site_fract_z
_atom_type_partial_charge
P0 P 0.79729 0.38965 0.22106 0.0
H1 H 0.79311 0.38796 0.33264 0.0
H2 H 0.80718 0.40725 0.39683 0.0
H3 H 0.83283 0.44436 0.27722 0.0
H4 H 0.81843 0.4253 0.21376 0.0
H5 H 0.76703 0.36995 0.1681 0.0
H6 H 0.74001 0.3804 0.11667 0.0
H7 H 0.75324 0.43653 0.15449 0.0
H8 H 0.78014 0.42605 0.20568 0.0
H9 H 0.83921 0.38471 0.23038 0.0
H10 H 0.79936 0.39303 0.10861 0.0
O11 O 0.79314 0.36852 0.24773 0.0
H12 H 0.86703 0.38785 0.16905 0.0
H13 H 0.82691 0.39541 0.04715 0.0
C14 C 0.805 0.40508 0.26854 0.0
C15 C 0.80152 0.4004 0.32039 0.0
C16 C 0.80963 0.4114 0.35699 0.0
C17 C 0.82127 0.42727 0.34218 0.0
C18 C 0.82379 0.43237 0.29009 0.0
C19 C 0.81569 0.42139 0.25367 0.0
C20 C 0.77542 0.39716 0.19134 0.0
C21 C 0.76383 0.38445 0.16621 0.0
C22 C 0.74854 0.39045 0.13646 0.0
C23 C 0.74457 0.40928 0.13151 0.0
C24 C 0.75583 0.42191 0.15807 0.0
C25 C 0.77124 0.41591 0.18739 0.0
C26 C 0.81722 0.38896 0.17435 0.0
C27 C 0.83642 0.38688 0.19036 0.0
C28 C 0.85232 0.38856 0.15516 0.0
C29 C 0.84924 0.39213 0.10315 0.0
C30 C 0.82985 0.39311 0.08703 0.0
C31 C 0.814 0.39161 0.1223 0.0
P32 P 0.98738 0.75938 0.15621 0.0
H33 H 0.99507 0.7648 0.2626 0.0
H34 H 0.9803 0.7849 0.32331 0.0
H35 H 0.93373 0.79587 0.22056 0.0
H36 H 0.9486 0.77543 0.15981 0.0
H37 H 0.99084 0.75055 0.0498 0.0
H38 H 0.97666 0.72602 0.00202 0.0
H39 H 0.94269 0.70558 0.13601 0.0
H40 H 0.95684 0.73071 0.18398 0.0
H41 H 0.02404 0.7819 0.14797 0.0
H42 H 0.96787 0.78084 0.07806 0.0
O43 O 0.00686 0.74921 0.17978 0.0
H44 H 0.03407 0.80975 0.09594 0.0
H45 H 0.97757 0.80871 0.02686 0.0
C46 C 0.9729 0.76858 0.20675 0.0
C47 C 0.98126 0.77091 0.25386 0.0
C48 C 0.97277 0.78244 0.28866 0.0
C49 C 0.95592 0.79209 0.27656 0.0
C50 C 0.9468 0.78872 0.23073 0.0
C51 C 0.95522 0.77698 0.19615 0.0
C52 C 0.97443 0.74282 0.12007 0.0
C53 C 0.97984 0.74124 0.06867 0.0
C54 C 0.97171 0.72715 0.04128 0.0
C55 C 0.95835 0.71401 0.06507 0.0
C56 C 0.95285 0.71561 0.11665 0.0
C57 C 0.96084 0.72997 0.14397 0.0
C58 C 0.9954 0.77908 0.11589 0.0
C59 C 0.01395 0.78755 0.12106 0.0
C60 C 0.0196 0.80354 0.09165 0.0
C61 C 0.00669 0.81132 0.05691 0.0
C62 C 0.98803 0.80284 0.05239 0.0
C63 C 0.98242 0.78694 0.08181 0.0
P64 P 0.76004 0.0527 0.16689 0.0
H65 H 0.75151 0.05886 0.27411 0.0
H66 H 0.72948 0.04283 0.33703 0.0
H67 H 0.72213 0.99792 0.23666 0.0
H68 H 0.74318 0.01482 0.17227 0.0
H69 H 0.79197 0.07341 0.1131 0.0
H70 H 0.82103 0.06464 0.06478 0.0
H71 H 0.80645 0.00726 0.10362 0.0
H72 H 0.77734 0.01618 0.1527 0.0
H73 H 0.72698 0.0767 0.15603 0.0
H74 H 0.75155 0.03159 0.07769 0.0
O75 O 0.76438 0.07367 0.18814 0.0
H76 H 0.69919 0.07651 0.10003 0.0
H77 H 0.72397 0.03145 0.02125 0.0
C78 C 0.74921 0.03803 0.21845 0.0
C79 C 0.74558 0.04536 0.26597 0.0
C80 C 0.73294 0.03604 0.30231 0.0
C81 C 0.72373 0.01904 0.29212 0.0
C82 C 0.72856 0.01113 0.24568 0.0
C83 C 0.74098 0.02064 0.20901 0.0
C84 C 0.78261 0.0455 0.13731 0.0
C85 C 0.7952 0.05894 0.11222 0.0
C86 C 0.81184 0.05391 0.08452 0.0
C87 C 0.8161 0.03526 0.08058 0.0
C88 C 0.8035 0.02175 0.10587 0.0
C89 C 0.7869 0.02684 0.13419 0.0
C90 C 0.74152 0.05442 0.12033 0.0
C91 C 0.72664 0.06706 0.12595 0.0
C92 C 0.71077 0.06694 0.09393 0.0
C93 C 0.70939 0.05396 0.05623 0.0
C94 C 0.72455 0.04152 0.0502 0.0
C95 C 0.74043 0.04171 0.08213 0.0
P96 P 0.53081 0.71915 0.21858 0.0
H97 H 0.53564 0.72304 0.32745 0.0
H98 H 0.5534 0.7048 0.38962 0.0
H99 H 0.5815 0.67654 0.26743 0.0
H100 H 0.56439 0.69548 0.20564 0.0
H101 H 0.5176 0.75692 0.21462 0.0
H102 H 0.52658 0.7837 0.15856 0.0
H103 H 0.5732 0.75369 0.08879 0.0
H104 H 0.56396 0.72669 0.14539 0.0
H105 H 0.52218 0.67983 0.23612 0.0
H106 H 0.52414 0.71932 0.10816 0.0
O107 O 0.51035 0.72374 0.25169 0.0
H108 H 0.5156 0.65497 0.1793 0.0
H109 H 0.51786 0.69448 0.05107 0.0
C110 C 0.54827 0.71019 0.26213 0.0
C111 C 0.54607 0.71331 0.31403 0.0
C112 C 0.55614 0.70275 0.34956 0.0
C113 C 0.56843 0.68877 0.3337 0.0
C114 C 0.57215 0.68711 0.28121 0.0
C115 C 0.56226 0.69788 0.2457 0.0
C116 C 0.54004 0.73979 0.18393 0.0
C117 C 0.53 0.75616 0.18802 0.0
C118 C 0.53523 0.77154 0.156 0.0
C119 C 0.55057 0.77082 0.11904 0.0
C120 C 0.5612 0.75461 0.11657 0.0
C121 C 0.55604 0.73924 0.14907 0.0
C122 C 0.52439 0.70134 0.17621 0.0
C123 C 0.52129 0.68315 0.19576 0.0
C124 C 0.51756 0.66895 0.16326 0.0
C125 C 0.51654 0.67273 0.11061 0.0
C126 C 0.5186 0.69112 0.09145 0.0
C127 C 0.52242 0.70533 0.12406 0.0
P128 P 0.23901 0.51412 0.18991 0.0
H129 H 0.24141 0.48626 0.11405 0.0
H130 H 0.22707 0.48459 0.03097 0.0
H131 H 0.21234 0.54189 0.03603 0.0
H132 H 0.2279 0.54366 0.11763 0.0
H133 H 0.27449 0.49432 0.20932 0.0
H134 H 0.30567 0.50374 0.24364 0.0
H135 H 0.28898 0.5606 0.23363 0.0
H136 H 0.25746 0.5509 0.19949 0.0
H137 H 0.19827 0.52282 0.16922 0.0
H138 H 0.23895 0.53151 0.28811 0.0
O139 O 0.23585 0.49227 0.21207 0.0
H140 H 0.17287 0.53771 0.21808 0.0
H141 H 0.21328 0.54608 0.33779 0.0
C142 C 0.2349 0.51487 0.12278 0.0
C143 C 0.23564 0.49861 0.09652 0.0
C144 C 0.22727 0.49765 0.04913 0.0
C145 C 0.21778 0.51288 0.02767 0.0
C146 C 0.21933 0.52981 0.05138 0.0
C147 C 0.22813 0.53084 0.09834 0.0
C148 C 0.26352 0.52187 0.2032 0.0
C149 C 0.27765 0.50885 0.21359 0.0
C150 C 0.29558 0.5143 0.23294 0.0
C151 C 0.29973 0.53292 0.24202 0.0
C152 C 0.28607 0.54612 0.22788 0.0
C153 C 0.26812 0.54063 0.20816 0.0
C154 C 0.22089 0.52686 0.2237 0.0
C155 C 0.20202 0.52851 0.20493 0.0
C156 C 0.18743 0.53698 0.233 0.0
C157 C 0.19124 0.54335 0.28124 0.0
C158 C 0.21007 0.54151 0.30035 0.0
C159 C 0.22476 0.53328 0.27184 0.0
P160 P 0.15282 0.22519 0.25519 0.0
H161 H 0.17776 0.2174 0.16607 0.0
H162 H 0.17009 0.20211 0.0882 0.0
H163 H 0.10815 0.20444 0.12761 0.0
H164 H 0.11592 0.21989 0.20464 0.0
H165 H 0.1656 0.24725 0.33707 0.0
H166 H 0.15389 0.27563 0.37136 0.0
H167 H 0.11364 0.28089 0.24905 0.0
H168 H 0.12589 0.25277 0.21413 0.0
H169 H 0.15654 0.18578 0.27372 0.0
H170 H 0.1168 0.22733 0.31974 0.0
O171 O 0.17659 0.22224 0.26471 0.0
H172 H 0.13454 0.16183 0.31537 0.0
H173 H 0.09481 0.20355 0.361 0.0
C174 C 0.14741 0.2198 0.19113 0.0
C175 C 0.16253 0.21518 0.15707 0.0
C176 C 0.15812 0.20629 0.11276 0.0
C177 C 0.13852 0.20183 0.10198 0.0
C178 C 0.1234 0.20781 0.13433 0.0
C179 C 0.12783 0.21669 0.17852 0.0
C180 C 0.14679 0.24798 0.2728 0.0
C181 C 0.15462 0.25477 0.31688 0.0
C182 C 0.14773 0.27088 0.33679 0.0
C183 C 0.13267 0.28042 0.31326 0.0
C184 C 0.12537 0.27396 0.26786 0.0
C185 C 0.13234 0.25782 0.24789 0.0
C186 C 0.13855 0.20835 0.29449 0.0
C187 C 0.14332 0.18978 0.29378 0.0
C188 C 0.13063 0.17611 0.31703 0.0
C189 C 0.11292 0.18082 0.34129 0.0
C190 C 0.10846 0.19951 0.34315 0.0
C191 C 0.1211 0.21315 0.31961 0.0
P192 P 0.28526 0.03538 0.22405 0.0
H193 H 0.28261 0.04965 0.11896 0.0
H194 H 0.30133 0.04277 0.0417 0.0
H195 H 0.32438 0.99519 0.12073 0.0
H196 H 0.30492 0.00161 0.1964 0.0
H197 H 0.25793 0.05717 0.27969 0.0
H198 H 0.22616 0.05015 0.32214 0.0
H199 H 0.22602 0.99541 0.26502 0.0
H200 H 0.25794 0.00288 0.22068 0.0
H201 H 0.32388 0.04853 0.25243 0.0
H202 H 0.2835 0.00302 0.29622 0.0
O203 O 0.28874 0.05825 0.21799 0.0
H204 H 0.34809 0.03563 0.30861 0.0
H205 H 0.30764 0.99009 0.3528 0.0
C206 C 0.29271 0.02643 0.16387 0.0
C207 C 0.29115 0.03737 0.11903 0.0
C208 C 0.30211 0.03354 0.07502 0.0
C209 C 0.31492 0.01875 0.07523 0.0
C210 C 0.31478 0.00673 0.11883 0.0
C211 C 0.30366 0.01047 0.16257 0.0
C212 C 0.26021 0.03064 0.24645 0.0
C213 C 0.25093 0.04379 0.27513 0.0
C214 C 0.23281 0.03966 0.30008 0.0
C215 C 0.22366 0.0221 0.29778 0.0
C216 C 0.23264 0.00909 0.2674 0.0
C217 C 0.25084 0.01333 0.242 0.0
C218 C 0.30171 0.027 0.27103 0.0
C219 C 0.32004 0.03599 0.27502 0.0
C220 C 0.33388 0.02858 0.30712 0.0
C221 C 0.32972 0.01189 0.33532 0.0
C222 C 0.31127 0.00294 0.33141 0.0
C223 C 0.29738 0.01044 0.29948 0.0
P224 P 0.42804 0.29249 0.23986 0.0
H225 H 0.40011 0.30452 0.16433 0.0
H226 H 0.40494 0.32253 0.08406 0.0
H227 H 0.46769 0.31696 0.09192 0.0
H228 H 0.46261 0.2984 0.17117 0.0
H229 H 0.4069 0.25708 0.261 0.0
H230 H 0.41761 0.22709 0.2926 0.0
H231 H 0.47801 0.24741 0.27883 0.0
H232 H 0.46717 0.27726 0.24626 0.0
H233 H 0.4412 0.33126 0.2219 0.0
H234 H 0.44407 0.28885 0.34159 0.0
O235 O 0.40444 0.29327 0.25855 0.0
H236 H 0.46115 0.35198 0.26993 0.0
H237 H 0.46352 0.30989 0.39106 0.0
C238 C 0.43102 0.30017 0.17386 0.0
C239 C 0.41486 0.30663 0.14792 0.0
C240 C 0.41767 0.31713 0.1022 0.0
C241 C 0.43673 0.32158 0.08195 0.0
C242 C 0.45278 0.31376 0.10603 0.0
C243 C 0.44992 0.30308 0.1515 0.0
C244 C 0.43623 0.26946 0.25193 0.0
C245 C 0.42247 0.25498 0.26382 0.0
C246 C 0.42861 0.23787 0.28227 0.0
C247 C 0.44865 0.23495 0.28916 0.0
C248 C 0.46248 0.24915 0.27383 0.0
C249 C 0.4563 0.26625 0.25521 0.0
C250 C 0.44176 0.30822 0.2772 0.0
C251 C 0.44619 0.32632 0.25844 0.0
C252 C 0.45745 0.33829 0.28635 0.0
C253 C 0.46414 0.33256 0.33424 0.0
C254 C 0.45902 0.31461 0.3538 0.0
C255 C 0.44783 0.30258 0.32562 0.0
C256 C 0.02273 0.97746 0.74446 0.0
N257 N 0.99215 0.98093 0.61007 0.0
C258 C 0.979 0.96867 0.63429 0.0
C259 C 0.9702 0.95462 0.60795 0.0
C260 C 0.97511 0.95295 0.55617 0.0
C261 C 0.98809 0.96627 0.53153 0.0
C262 C 0.99647 0.98024 0.55935 0.0
Zn263 Zn 0.00709 0.99879 0.65385 0.0
C264 C 0.98115 0.01243 0.73703 0.0
N265 N 0.03841 0.0336 0.75124 0.0
C266 C 0.05677 0.03019 0.76699 0.0
C267 C 0.02944 0.04939 0.76266 0.0
C268 C 0.03895 0.06254 0.7907 0.0
C269 C 0.05796 0.05952 0.80712 0.0
C270 C 0.0669 0.04307 0.79503 0.0
Zn271 Zn 0.02377 0.01581 0.70682 0.0
O272 O 0.01296 0.97635 0.70452 0.0
C273 C 0.04974 0.00246 0.62356 0.0
O274 O 0.0298 0.99305 0.75606 0.0
H275 H 0.01494 0.05196 0.74932 0.0
H276 H 0.97582 0.96935 0.67466 0.0
H277 H 0.06364 0.01757 0.75739 0.0
O278 O 0.03368 0.9947 0.61156 0.0
O279 O 0.04994 0.01207 0.66266 0.0
H280 H 0.00701 0.99009 0.54084 0.0
O281 O 0.01766 0.03823 0.65688 0.0
O282 O 0.00192 0.02148 0.60322 0.0
O283 O 0.99747 0.01934 0.74998 0.0
O284 O 0.98064 0.00332 0.69706 0.0
C285 C 0.0088 0.03706 0.61553 0.0
H286 H 0.96002 0.94487 0.62834 0.0
H287 H 0.99245 0.96544 0.49178 0.0
H288 H 0.03163 0.07515 0.79844 0.0
H289 H 0.08149 0.04015 0.80731 0.0
C290 C 0.49572 0.98808 0.61507 0.0
N291 N 0.51507 0.04235 0.63442 0.0
C292 C 0.51716 0.04368 0.58277 0.0
C293 C 0.51368 0.06016 0.55593 0.0
C294 C 0.5079 0.07552 0.5823 0.0
C295 C 0.5061 0.07388 0.63571 0.0
C296 C 0.50981 0.05709 0.66116 0.0
Zn297 Zn 0.5187 0.01703 0.66974 0.0
C298 C 0.48742 0.00684 0.74839 0.0
N299 N 0.52536 0.96278 0.73507 0.0
C300 C 0.53008 0.94801 0.70782 0.0
C301 C 0.52364 0.96138 0.78675 0.0
C302 C 0.52671 0.9447 0.81307 0.0
C303 C 0.53172 0.92923 0.78611 0.0
C304 C 0.53341 0.93102 0.73274 0.0
Zn305 Zn 0.52165 0.98815 0.70021 0.0
O306 O 0.50057 0.00509 0.61621 0.0
C307 C 0.55279 0.99843 0.62122 0.0
O308 O 0.50254 0.97669 0.64738 0.0
H309 H 0.52009 0.97331 0.80778 0.0
H310 H 0.52114 0.03178 0.5621 0.0
H311 H 0.53141 0.94944 0.66676 0.0
O312 O 0.5439 0.01349 0.62236 0.0
O313 O 0.54646 0.98474 0.64985 0.0
H314 H 0.50821 0.05574 0.7022 0.0
O315 O 0.54062 0.00015 0.7528 0.0
O316 O 0.53688 0.02857 0.72368 0.0
O317 O 0.49671 0.99197 0.74936 0.0
O318 O 0.49349 0.02018 0.71813 0.0
C319 C 0.5446 0.01733 0.7548 0.0
H320 H 0.51494 0.06068 0.51477 0.0
H321 H 0.50182 0.08544 0.65756 0.0
H322 H 0.52556 0.94403 0.85425 0.0
H323 H 0.53711 0.91939 0.7105 0.0
C324 C 0.53377 0.47465 0.62373 0.0
N325 N 0.48873 0.51158 0.63589 0.0
C326 C 0.49153 0.51391 0.58454 0.0
C327 C 0.47605 0.51857 0.55411 0.0
C328 C 0.45731 0.52076 0.5764 0.0
C329 C 0.45479 0.51844 0.62962 0.0
C330 C 0.47081 0.51381 0.65884 0.0
Zn331 Zn 0.51278 0.50464 0.67583 0.0
C332 C 0.5056 0.47471 0.75325 0.0
N333 N 0.56517 0.49044 0.74943 0.0
C334 C 0.58206 0.48593 0.72465 0.0
C335 C 0.56339 0.48934 0.80111 0.0
C336 C 0.57881 0.48324 0.82995 0.0
C337 C 0.59625 0.47796 0.80555 0.0
C338 C 0.59786 0.4796 0.75211 0.0
Zn339 Zn 0.54102 0.49759 0.71037 0.0
O340 O 0.51887 0.48462 0.62324 0.0
C341 C 0.54831 0.52741 0.63291 0.0
O342 O 0.54645 0.47692 0.65725 0.0
H343 H 0.54981 0.49288 0.82014 0.0
H344 H 0.50586 0.51212 0.5669 0.0
H345 H 0.58314 0.48686 0.68353 0.0
O346 O 0.52986 0.52464 0.63107 0.0
O347 O 0.55787 0.51757 0.66385 0.0
H348 H 0.46891 0.5119 0.69974 0.0
O349 O 0.53492 0.51823 0.76288 0.0
O350 O 0.50688 0.52464 0.72904 0.0
O351 O 0.52397 0.47782 0.75613 0.0
O352 O 0.49611 0.48431 0.72157 0.0
C353 C 0.51948 0.52755 0.76234 0.0
H354 H 0.4788 0.52056 0.51342 0.0
H355 H 0.44056 0.51986 0.64837 0.0
H356 H 0.57701 0.48258 0.87102 0.0
H357 H 0.61094 0.47554 0.73161 0.0
C358 C 0.03128 0.51427 0.59986 0.0
N359 N 0.02895 0.45709 0.62531 0.0
C360 C 0.02707 0.45645 0.57417 0.0
C361 C 0.03466 0.44193 0.54781 0.0
C362 C 0.04432 0.4279 0.57422 0.0
C363 C 0.04586 0.42879 0.62712 0.0
C364 C 0.03801 0.44358 0.65204 0.0
Zn365 Zn 0.01874 0.47946 0.66082 0.0
C366 C 0.04757 0.49502 0.72987 0.0
N367 N 0.99788 0.52743 0.72933 0.0
C368 C 0.98875 0.54091 0.70262 0.0
C369 C 0.00033 0.52836 0.78017 0.0
C370 C 0.99365 0.54335 0.80607 0.0
C371 C 0.98426 0.55752 0.77953 0.0
C372 C 0.98173 0.55614 0.72715 0.0
Zn373 Zn 0.00799 0.50501 0.69404 0.0
O374 O 0.03208 0.49682 0.60249 0.0
C375 C 0.97933 0.48949 0.62437 0.0
O376 O 0.02159 0.52222 0.63411 0.0
H377 H 0.00748 0.51743 0.80078 0.0
H378 H 0.01993 0.46738 0.55355 0.0
H379 H 0.98697 0.53988 0.66222 0.0
O380 O 0.99265 0.47779 0.62034 0.0
O381 O 0.98176 0.50281 0.65331 0.0
H382 H 0.03934 0.44436 0.69268 0.0
O383 O 0.99468 0.48742 0.75343 0.0
O384 O 0.00522 0.46236 0.7199 0.0
O385 O 0.03439 0.50685 0.73399 0.0
O386 O 0.0448 0.48154 0.70169 0.0
C387 C 0.99564 0.46996 0.75496 0.0
H388 H 0.03337 0.44195 0.50695 0.0
H389 H 0.05299 0.41816 0.64906 0.0
H390 H 0.99567 0.54376 0.8466 0.0
H391 H 0.97473 0.56687 0.7052 0.0
H392 H 0.21539 0.03109 0.39546 0.0
H393 H 0.1849 0.0253 0.44591 0.0
H394 H 0.15998 0.99639 0.32316 0.0
H395 H 0.19055 0.0024 0.27164 0.0
H396 H 0.14684 0.03703 0.41582 0.0
H397 H 0.14936 0.96105 0.45229 0.0
H398 H 0.17097 0.97513 0.43302 0.0
H399 H 0.15299 0.96984 0.38742 0.0
C400 C 0.20342 0.02357 0.37889 0.0
C401 C 0.20535 0.01741 0.32916 0.0
C402 C 0.18604 0.02018 0.40799 0.0
C403 C 0.17021 0.01038 0.38839 0.0
C404 C 0.17213 0.0038 0.33922 0.0
H405 H 0.05391 0.98504 0.5339 0.0
H406 H 0.08262 0.98634 0.47486 0.0
C407 C 0.18959 0.00724 0.30986 0.0
C408 C 0.15154 0.00787 0.41914 0.0
H409 H 0.12209 0.97581 0.48727 0.0
C410 C 0.14137 0.02364 0.43125 0.0
C411 C 0.14438 0.99038 0.43891 0.0
C412 C 0.15498 0.97308 0.42768 0.0
C413 C 0.12437 0.02242 0.46313 0.0
C414 C 0.11759 0.005 0.48446 0.0
C415 C 0.12741 0.98915 0.47117 0.0
C416 C 0.10065 0.00314 0.52166 0.0
C417 C 0.11374 0.0398 0.47354 0.0
C418 C 0.10148 0.01169 0.56822 0.0
C419 C 0.08515 0.01097 0.60206 0.0
C420 C 0.06766 0.00158 0.59012 0.0
C421 C 0.06713 0.99241 0.54428 0.0
C422 C 0.08351 0.99314 0.51044 0.0
H423 H 0.11748 0.05092 0.44398 0.0
H424 H 0.09757 0.0372 0.47527 0.0
H425 H 0.11809 0.04481 0.51076 0.0
H426 H 0.1147 0.01917 0.57809 0.0
H427 H 0.08612 0.0181 0.63709 0.0
H428 H 0.43087 0.21675 0.37262 0.0
H429 H 0.44195 0.18964 0.42006 0.0
H430 H 0.49181 0.18729 0.31525 0.0
H431 H 0.48075 0.21446 0.26715 0.0
H432 H 0.44859 0.15423 0.38854 0.0
H433 H 0.51697 0.18775 0.45422 0.0
H434 H 0.49754 0.20072 0.42681 0.0
H435 H 0.51435 0.189 0.38654 0.0
C436 C 0.44405 0.21034 0.35912 0.0
C437 C 0.45492 0.21778 0.31599 0.0
C438 C 0.45043 0.19491 0.38653 0.0
C439 C 0.46785 0.18663 0.37166 0.0
C440 C 0.47855 0.19372 0.32802 0.0
H441 H 0.52761 0.09229 0.49908 0.0
H442 H 0.51794 0.11921 0.44776 0.0
C443 C 0.47218 0.20921 0.30053 0.0
C444 C 0.47467 0.17054 0.40201 0.0
H445 H 0.51192 0.15588 0.47531 0.0
C446 C 0.46243 0.15458 0.40756 0.0
C447 C 0.49273 0.17106 0.42676 0.0
C448 C 0.50612 0.18809 0.42378 0.0
C449 C 0.46782 0.13907 0.43688 0.0
C450 C 0.48578 0.13965 0.46202 0.0
C451 C 0.49813 0.15552 0.45608 0.0
C452 C 0.492 0.12387 0.49452 0.0
C453 C 0.45438 0.12207 0.44008 0.0
C454 C 0.48088 0.11786 0.53851 0.0
C455 C 0.48632 0.10246 0.56783 0.0
C456 C 0.50303 0.0928 0.55373 0.0
C457 C 0.51449 0.09925 0.51052 0.0
C458 C 0.50905 0.11467 0.48131 0.0
H459 H 0.4438 0.12222 0.409 0.0
H460 H 0.46293 0.10939 0.4383 0.0
H461 H 0.44584 0.12146 0.47687 0.0
H462 H 0.46785 0.12498 0.54984 0.0
H463 H 0.47711 0.09779 0.60066 0.0
H464 H 0.33697 0.5203 0.23131 0.0
H465 H 0.3637 0.52406 0.28965 0.0
H466 H 0.32908 0.56098 0.3761 0.0
H467 H 0.30197 0.55675 0.31908 0.0
H468 H 0.38559 0.55426 0.32295 0.0
H469 H 0.33951 0.51925 0.48052 0.0
H470 H 0.33252 0.51937 0.41514 0.0
H471 H 0.3296 0.53953 0.45114 0.0
C472 C 0.33509 0.52933 0.26251 0.0
C473 C 0.31723 0.538 0.27097 0.0
C474 C 0.35042 0.53155 0.29564 0.0
C475 C 0.34818 0.54247 0.3378 0.0
C476 C 0.33093 0.55219 0.34434 0.0
H477 H 0.42761 0.54458 0.59403 0.0
H478 H 0.40091 0.5524 0.53776 0.0
C479 C 0.31555 0.54994 0.3113 0.0
C480 C 0.3634 0.54253 0.37645 0.0
H481 H 0.37202 0.52756 0.49827 0.0
C482 C 0.3826 0.54861 0.36145 0.0
C483 C 0.35942 0.53515 0.4267 0.0
C484 C 0.33921 0.52781 0.44446 0.0
C485 C 0.39803 0.54709 0.39498 0.0
C486 C 0.39417 0.53907 0.44449 0.0
C487 C 0.37487 0.53371 0.46025 0.0
C488 C 0.41021 0.53456 0.47874 0.0
C489 C 0.4184 0.55382 0.37695 0.0
C490 C 0.42388 0.5216 0.46467 0.0
C491 C 0.43892 0.51696 0.49678 0.0
C492 C 0.44064 0.5252 0.54373 0.0
C493 C 0.42664 0.53792 0.55827 0.0
C494 C 0.41149 0.5425 0.52606 0.0
H495 H 0.41799 0.56415 0.34453 0.0
H496 H 0.42643 0.56005 0.40817 0.0
H497 H 0.42676 0.54198 0.36391 0.0
H498 H 0.42281 0.51494 0.42891 0.0
H499 H 0.44913 0.50678 0.4849 0.0
H500 H 0.12363 0.28357 0.41424 0.0
H501 H 0.10838 0.30918 0.45512 0.0
H502 H 0.10552 0.33848 0.30945 0.0
H503 H 0.12137 0.31303 0.26815 0.0
H504 H 0.11935 0.36034 0.38761 0.0
H505 H 0.05019 0.32149 0.44748 0.0
H506 H 0.07195 0.31037 0.46715 0.0
H507 H 0.06741 0.31343 0.40052 0.0
C508 C 0.11999 0.29554 0.39086 0.0
C509 C 0.12376 0.29627 0.33789 0.0
C510 C 0.11105 0.31007 0.41425 0.0
C511 C 0.10554 0.32557 0.3852 0.0
C512 C 0.10953 0.32654 0.33245 0.0
H513 H 0.02865 0.40908 0.49684 0.0
H514 H 0.04367 0.38491 0.44877 0.0
C515 C 0.11849 0.31197 0.30892 0.0
C516 C 0.0958 0.34081 0.41023 0.0
H517 H 0.05554 0.35056 0.48372 0.0
C518 C 0.10534 0.35826 0.40836 0.0
C519 C 0.07741 0.33809 0.43671 0.0
C520 C 0.06602 0.31989 0.43779 0.0
C521 C 0.09722 0.37297 0.43353 0.0
C522 C 0.07923 0.37002 0.46183 0.0
C523 C 0.06944 0.35271 0.46248 0.0
C524 C 0.07028 0.38474 0.49094 0.0
C525 C 0.10786 0.39156 0.42927 0.0
C526 C 0.08015 0.39243 0.53111 0.0
C527 C 0.07165 0.40631 0.5585 0.0
C528 C 0.05307 0.41268 0.54638 0.0
C529 C 0.0431 0.40469 0.50665 0.0
C530 C 0.05161 0.39081 0.47931 0.0
H531 H 0.11841 0.39278 0.39598 0.0
H532 H 0.09735 0.40284 0.42587 0.0
H533 H 0.11626 0.39345 0.46403 0.0
H534 H 0.09442 0.38769 0.54133 0.0
H535 H 0.07978 0.41226 0.5886 0.0
H536 H 0.81753 0.00867 0.01044 0.0
H537 H 0.84517 0.0022 0.95237 0.0
H538 H 0.88071 0.0442 0.01896 0.0
H539 H 0.85331 0.05058 0.07733 0.0
H540 H 0.86458 0.02902 0.88115 0.0
H541 H 0.91595 0.99887 0.018 0.0
H542 H 0.88995 0.00021 0.03254 0.0
H543 H 0.90594 0.02025 0.036 0.0
C544 C 0.83136 0.01627 0.01332 0.0
C545 C 0.83326 0.03012 0.04848 0.0
C546 C 0.84707 0.01264 0.97994 0.0
C547 C 0.86502 0.02262 0.98168 0.0
C548 C 0.86707 0.03617 0.01744 0.0
H549 H 0.9768 0.03361 0.81926 0.0
H550 H 0.94787 0.03548 0.87603 0.0
C551 C 0.85136 0.03989 0.05051 0.0
C552 C 0.88131 0.01965 0.94441 0.0
H553 H 0.92923 0.00769 0.93522 0.0
C554 C 0.87867 0.02416 0.89276 0.0
C555 C 0.89966 0.01339 0.95981 0.0
C556 C 0.90307 0.00774 0.01454 0.0
C557 C 0.89414 0.02322 0.85627 0.0
C558 C 0.91262 0.01724 0.8718 0.0
C559 C 0.91509 0.01235 0.92336 0.0
C560 C 0.92979 0.01648 0.83563 0.0
C561 C 0.89077 0.02934 0.80183 0.0
C562 C 0.92927 0.00518 0.79387 0.0
C563 C 0.94579 0.00418 0.761 0.0
C564 C 0.96321 0.0143 0.76965 0.0
C565 C 0.96363 0.02564 0.81142 0.0
C566 C 0.94711 0.0267 0.84402 0.0
H567 H 0.87763 0.03787 0.7987 0.0
H568 H 0.90371 0.0374 0.78472 0.0
H569 H 0.88838 0.01702 0.77926 0.0
H570 H 0.91622 0.99687 0.78722 0.0
H571 H 0.94503 0.99518 0.72949 0.0
H572 H 0.55181 0.80775 0.13529 0.0
H573 H 0.55236 0.83325 0.07103 0.0
H574 H 0.55806 0.79478 0.95225 0.0
H575 H 0.55704 0.76914 0.01623 0.0
H576 H 0.57943 0.84514 0.9886 0.0
H577 H 0.50648 0.82135 0.92367 0.0
H578 H 0.5163 0.81277 0.98255 0.0
H579 H 0.52539 0.80473 0.92304 0.0
C580 C 0.55334 0.80473 0.0955 0.0
C581 C 0.55416 0.78641 0.08084 0.0
C582 C 0.55376 0.81931 0.05887 0.0
C583 C 0.55493 0.81585 0.00694 0.0
C584 C 0.55689 0.7977 0.99217 0.0
H585 H 0.56125 0.90539 0.76843 0.0
H586 H 0.56796 0.87696 0.8178 0.0
C587 C 0.5565 0.78309 0.02881 0.0
C588 C 0.55269 0.83116 0.96862 0.0
H589 H 0.52079 0.84832 0.88298 0.0
C590 C 0.56674 0.84579 0.96506 0.0
C591 C 0.53597 0.832 0.93848 0.0
C592 C 0.52005 0.81698 0.94217 0.0
C593 C 0.56436 0.8614 0.93257 0.0
C594 C 0.54758 0.86227 0.90271 0.0
C595 C 0.53371 0.84751 0.90569 0.0
C596 C 0.54333 0.87898 0.8712 0.0
C597 C 0.5794 0.87714 0.93188 0.0
C598 C 0.52697 0.88921 0.88407 0.0
C599 C 0.52304 0.90533 0.85588 0.0
C600 C 0.53534 0.9115 0.81401 0.0
C601 C 0.55145 0.90095 0.80032 0.0
C602 C 0.55542 0.88482 0.82875 0.0
H603 H 0.58962 0.87566 0.96356 0.0
H604 H 0.58817 0.8776 0.89546 0.0
H605 H 0.57207 0.89049 0.93448 0.0
H606 H 0.51738 0.88486 0.9165 0.0
H607 H 0.51036 0.91299 0.86694 0.0
H608 H 0.73892 0.39934 0.03449 0.0
H609 H 0.71493 0.41108 0.97548 0.0
H610 H 0.69201 0.44559 0.09081 0.0
H611 H 0.71626 0.43413 0.14969 0.0
H612 H 0.67574 0.40927 0.98031 0.0
H613 H 0.70151 0.48248 0.97253 0.0
H614 H 0.71547 0.46431 0.00087 0.0
H615 H 0.69539 0.47373 0.0362 0.0
C616 C 0.72869 0.40937 0.04732 0.0
C617 C 0.72947 0.41587 0.09663 0.0
C618 C 0.71506 0.41612 0.01351 0.0
C619 C 0.70193 0.42948 0.02838 0.0
C620 C 0.70237 0.43568 0.07802 0.0
H621 H 0.59287 0.4549 0.89093 0.0
H622 H 0.61904 0.44318 0.94244 0.0
C623 C 0.71614 0.42906 0.1117 0.0
C624 C 0.68746 0.43655 0.9923 0.0
H625 H 0.67035 0.47606 0.93745 0.0
C626 C 0.67465 0.42386 0.97065 0.0
C627 C 0.6863 0.45557 0.9789 0.0
C628 C 0.70054 0.46979 0.99791 0.0
C629 C 0.66036 0.4297 0.93712 0.0
C630 C 0.65848 0.44879 0.92602 0.0
C631 C 0.67165 0.46144 0.94647 0.0
C632 C 0.64264 0.45594 0.89433 0.0
C633 C 0.64758 0.41532 0.91353 0.0
C634 C 0.64716 0.46753 0.85096 0.0
C635 C 0.63216 0.47464 0.82191 0.0
C636 C 0.61234 0.47034 0.83584 0.0
C637 C 0.60793 0.45872 0.87938 0.0
C638 C 0.62291 0.45175 0.90851 0.0
H639 H 0.65485 0.40189 0.91254 0.0
H640 H 0.63369 0.41311 0.9367 0.0
H641 H 0.64391 0.41972 0.87417 0.0
H642 H 0.66231 0.47107 0.83959 0.0
H643 H 0.63609 0.48374 0.78906 0.0
H644 H 0.94521 0.71369 0.9684 0.0
H645 H 0.94184 0.68693 0.91605 0.0
H646 H 0.95482 0.65112 0.04488 0.0
H647 H 0.95804 0.67778 0.09739 0.0
H648 H 0.97313 0.66629 0.89725 0.0
H649 H 0.91195 0.62115 0.98029 0.0
H650 H 0.91486 0.64515 0.9945 0.0
H651 H 0.9288 0.62799 0.02716 0.0
C652 C 0.94683 0.70005 0.98583 0.0
C653 C 0.95201 0.69781 0.03686 0.0
C654 C 0.94486 0.68479 0.95595 0.0
C655 C 0.94798 0.66701 0.97658 0.0
C656 C 0.95191 0.66464 0.02839 0.0
H657 H 0.00404 0.57691 0.84875 0.0
H658 H 0.99319 0.60371 0.89323 0.0
C659 C 0.9538 0.67991 0.05839 0.0
C660 C 0.95018 0.65149 0.94258 0.0
H661 H 0.9361 0.60657 0.92774 0.0
C662 C 0.96476 0.65335 0.9034 0.0
C663 C 0.93922 0.63464 0.95037 0.0
C664 C 0.92269 0.63215 0.99005 0.0
C665 C 0.96933 0.63857 0.87345 0.0
C666 C 0.95922 0.62141 0.88333 0.0
C667 C 0.94396 0.61973 0.92072 0.0
C668 C 0.96524 0.60484 0.85724 0.0
C669 C 0.98524 0.64129 0.8321 0.0
C670 C 0.95294 0.59648 0.82289 0.0
C671 C 0.9591 0.58112 0.79735 0.0
C672 C 0.97756 0.5738 0.80634 0.0
C673 C 0.98968 0.58212 0.84135 0.0
C674 C 0.98357 0.59749 0.86654 0.0
H675 H 0.9881 0.65611 0.82102 0.0
H676 H 0.99906 0.63563 0.8461 0.0
H677 H 0.98125 0.63389 0.79783 0.0
H678 H 0.93871 0.60197 0.81544 0.0
H679 H 0.94937 0.57487 0.77099 0.0
H680 H 0.10144 0.14893 0.29828 0.0
H681 H 0.07781 0.12508 0.33327 0.0
H682 H 0.06882 0.15598 0.46741 0.0
H683 H 0.09232 0.17993 0.43251 0.0
H684 H 0.08004 0.10391 0.41983 0.0
H685 H 0.01281 0.14423 0.43048 0.0
H686 H 0.03468 0.1524 0.39426 0.0
H687 H 0.0328 0.15488 0.46194 0.0
C688 C 0.09445 0.15061 0.33529 0.0
C689 C 0.09873 0.16629 0.36271 0.0
C690 C 0.08085 0.13705 0.35502 0.0
C691 C 0.07124 0.13894 0.40243 0.0
C692 C 0.0756 0.15451 0.43006 0.0
H693 H 0.01448 0.07304 0.6365 0.0
H694 H 0.02596 0.09803 0.57628 0.0
C695 C 0.08912 0.16812 0.41024 0.0
C696 C 0.05772 0.12404 0.42471 0.0
H697 H 0.01214 0.11568 0.4811 0.0
C698 C 0.06506 0.10637 0.43232 0.0
C699 C 0.03817 0.1273 0.44083 0.0
C700 C 0.02908 0.14569 0.43099 0.0
C701 C 0.05376 0.09213 0.45815 0.0
C702 C 0.03451 0.09562 0.47619 0.0
C703 C 0.02688 0.11307 0.46698 0.0
C704 C 0.0232 0.08192 0.50985 0.0
C705 C 0.06287 0.07373 0.46837 0.0
C706 C 0.01677 0.06495 0.49196 0.0
C707 C 0.01007 0.05062 0.52636 0.0
C708 C 0.00989 0.05312 0.57897 0.0
C709 C 0.01459 0.07068 0.59619 0.0
C710 C 0.02114 0.08498 0.56185 0.0
H711 H 0.07883 0.07413 0.45797 0.0
H712 H 0.06081 0.06926 0.5092 0.0
H713 H 0.05553 0.06319 0.44581 0.0
H714 H 0.0181 0.06244 0.4518 0.0
H715 H 0.00659 0.03722 0.51201 0.0
H716 H 0.35359 0.02935 0.39994 0.0
H717 H 0.3805 0.01641 0.44707 0.0
H718 H 0.36704 0.96288 0.3907 0.0
H719 H 0.34023 0.97584 0.34248 0.0
H720 H 0.37995 0.9857 0.52194 0.0
H721 H 0.42594 0.97479 0.3472 0.0
H722 H 0.40529 0.98966 0.34633 0.0
H723 H 0.40123 0.96512 0.35135 0.0
C724 C 0.35635 0.01482 0.39757 0.0
C725 C 0.34491 0.00364 0.36721 0.0
C726 C 0.37162 0.00743 0.42474 0.0
C727 C 0.37583 0.98875 0.42191 0.0
C728 C 0.3641 0.97737 0.39294 0.0
H729 H 0.47154 0.95698 0.62202 0.0
H730 H 0.44225 0.95138 0.57256 0.0
C731 C 0.34872 0.98476 0.3658 0.0
C732 C 0.39305 0.98166 0.44798 0.0
H733 H 0.44081 0.97088 0.4256 0.0
C734 C 0.39315 0.98202 0.50114 0.0
C735 C 0.41019 0.97694 0.42043 0.0
C736 C 0.41086 0.97664 0.36314 0.0
C737 C 0.41033 0.97886 0.52738 0.0
C738 C 0.42777 0.97507 0.49957 0.0
C739 C 0.42735 0.97363 0.4467 0.0
C740 C 0.44704 0.97598 0.5234 0.0
C741 C 0.41008 0.98096 0.58414 0.0
C742 C 0.45985 0.99111 0.51034 0.0
C743 C 0.47645 0.99432 0.53827 0.0
C744 C 0.48064 0.98238 0.57969 0.0
C745 C 0.46865 0.96641 0.5903 0.0
C746 C 0.45189 0.96326 0.56234 0.0
H747 H 0.39584 0.9859 0.59902 0.0
H748 H 0.4127 0.96746 0.60367 0.0
H749 H 0.42198 0.99081 0.59408 0.0
H750 H 0.45638 0.00106 0.48033 0.0
H751 H 0.4855 0.00665 0.5289 0.0
H752 H 0.45986 0.36953 0.34346 0.0
H753 H 0.48035 0.39079 0.38913 0.0
H754 H 0.516 0.34605 0.43872 0.0
H755 H 0.49586 0.32459 0.3917 0.0
H756 H 0.50195 0.37016 0.51718 0.0
H757 H 0.53822 0.40876 0.35089 0.0
H758 H 0.51209 0.40579 0.34644 0.0
H759 H 0.52711 0.38594 0.34712 0.0
C760 C 0.47224 0.3642 0.36332 0.0
C761 C 0.47631 0.34536 0.36348 0.0
C762 C 0.48391 0.37638 0.38946 0.0
C763 C 0.49987 0.37001 0.41642 0.0
C764 C 0.50383 0.35121 0.41767 0.0
H765 H 0.55647 0.44413 0.62931 0.0
H766 H 0.55375 0.41703 0.57732 0.0
C767 C 0.49221 0.33898 0.39115 0.0
C768 C 0.51168 0.38311 0.44505 0.0
H769 H 0.53753 0.42414 0.42976 0.0
C770 C 0.51019 0.38175 0.49833 0.0
C771 C 0.52246 0.39808 0.42009 0.0
C772 C 0.52526 0.39969 0.36295 0.0
C773 C 0.5178 0.39585 0.52731 0.0
C774 C 0.52744 0.41148 0.5021 0.0
C775 C 0.53014 0.41214 0.44896 0.0
C776 C 0.53173 0.42846 0.52914 0.0
C777 C 0.51415 0.3946 0.58428 0.0
C778 C 0.52097 0.44409 0.5176 0.0
C779 C 0.52255 0.45948 0.5468 0.0
C780 C 0.53498 0.4596 0.58815 0.0
C781 C 0.54674 0.4444 0.59774 0.0
C782 C 0.5451 0.42888 0.56837 0.0
H783 H 0.50427 0.38265 0.59704 0.0
H784 H 0.52832 0.39307 0.60312 0.0
H785 H 0.50753 0.40738 0.59726 0.0
H786 H 0.51062 0.44407 0.48737 0.0
H787 H 0.51342 0.47104 0.53812 0.0
H788 H 0.18108 0.53184 0.37842 0.0
H789 H 0.1512 0.53835 0.42691 0.0
H790 H 0.13474 0.5763 0.3061 0.0
H791 H 0.16445 0.56917 0.25633 0.0
H792 H 0.1342 0.56762 0.46475 0.0
H793 H 0.08899 0.54016 0.31149 0.0
H794 H 0.1153 0.5386 0.31026 0.0
H795 H 0.10439 0.5602 0.2944 0.0
C796 C 0.17129 0.54184 0.36261 0.0
C797 C 0.17494 0.54987 0.3135 0.0
C798 C 0.1542 0.54557 0.39032 0.0
C799 C 0.14049 0.55752 0.36971 0.0
C800 C 0.14482 0.56664 0.32217 0.0
H801 H 0.03809 0.55188 0.58837 0.0
H802 H 0.06146 0.56833 0.52731 0.0
C803 C 0.16181 0.56265 0.29395 0.0
C804 C 0.1211 0.55878 0.39657 0.0
H805 H 0.07307 0.54465 0.38928 0.0
C806 C 0.1207 0.56297 0.44808 0.0
C807 C 0.1035 0.5528 0.37452 0.0
C808 C 0.10296 0.54755 0.31978 0.0
C809 C 0.10369 0.55966 0.47934 0.0
C810 C 0.08646 0.55251 0.45795 0.0
C811 C 0.08634 0.55011 0.40543 0.0
C812 C 0.07012 0.54376 0.49028 0.0
C813 C 0.10484 0.56228 0.53567 0.0
C814 C 0.06651 0.52472 0.4879 0.0
C815 C 0.0531 0.51541 0.52192 0.0
C816 C 0.04303 0.5249 0.55945 0.0
C817 C 0.04576 0.54417 0.56009 0.0
C818 C 0.05919 0.55356 0.52553 0.0
H819 H 0.12004 0.56569 0.54683 0.0
H820 H 0.09541 0.5737 0.54643 0.0
H821 H 0.09943 0.54959 0.55779 0.0
H822 H 0.07472 0.51685 0.46099 0.0
H823 H 0.05124 0.5006 0.51995 0.0
H824 H 0.0002 0.81899 0.95664 0.0
H825 H 0.00656 0.8482 0.90797 0.0
H826 H 0.03217 0.87167 0.03848 0.0
H827 H 0.02562 0.84249 0.08785 0.0
H828 H 0.99058 0.88235 0.93984 0.0
H829 H 0.07219 0.88579 0.917 0.0
H830 H 0.05841 0.86435 0.93115 0.0
H831 H 0.06166 0.88044 0.97991 0.0
C832 C 0.00725 0.83033 0.97498 0.0
C833 C 0.01229 0.82847 0.02618 0.0
C834 C 0.01097 0.84696 0.94705 0.0
C835 C 0.01993 0.86199 0.9696 0.0
C836 C 0.02552 0.8601 0.02023 0.0
H837 H 0.03897 0.9749 0.83831 0.0
H838 H 0.03937 0.94741 0.89623 0.0
C839 C 0.02178 0.84343 0.04831 0.0
C840 C 0.02194 0.87999 0.94098 0.0
H841 H 0.05528 0.91096 0.8823 0.0
C842 C 0.00472 0.88865 0.92743 0.0
C843 C 0.04043 0.88822 0.92547 0.0
C844 C 0.05929 0.87924 0.93874 0.0
C845 C 0.00545 0.9052 0.89784 0.0
C846 C 0.0239 0.91309 0.88057 0.0
C847 C 0.04118 0.90478 0.89551 0.0
C848 C 0.0253 0.92935 0.84457 0.0
C849 C 0.98645 0.91408 0.88506 0.0
C850 C 0.01779 0.92807 0.79604 0.0
C851 C 0.01748 0.94364 0.76311 0.0
C852 C 0.02482 0.9608 0.77797 0.0
C853 C 0.03315 0.96189 0.82586 0.0
C854 C 0.0334 0.94623 0.85894 0.0
H855 H 0.97424 0.90924 0.91208 0.0
H856 H 0.98801 0.92933 0.8855 0.0
H857 H 0.98239 0.91041 0.84633 0.0
H858 H 0.01178 0.91507 0.78401 0.0
H859 H 0.01113 0.94226 0.72635 0.0
H860 H 0.68881 0.02287 0.03297 0.0
H861 H 0.6592 0.02063 0.98385 0.0
H862 H 0.65983 0.07982 0.96208 0.0
H863 H 0.68976 0.0822 0.01062 0.0
H864 H 0.62212 0.03849 0.00669 0.0
H865 H 0.65618 0.05946 0.81607 0.0
H866 H 0.67051 0.05125 0.86824 0.0
H867 H 0.66117 0.07401 0.86781 0.0
C868 C 0.68283 0.03541 0.01713 0.0
C869 C 0.6917 0.05271 0.0253 0.0
C870 C 0.66583 0.03411 0.98947 0.0
C871 C 0.65746 0.05005 0.96915 0.0
C872 C 0.66622 0.06736 0.97713 0.0
H873 H 0.55859 0.05271 0.76558 0.0
H874 H 0.58435 0.06285 0.82149 0.0
C875 C 0.68321 0.06869 0.00506 0.0
C876 C 0.6394 0.04836 0.9402 0.0
H877 H 0.62245 0.05146 0.81999 0.0
C878 C 0.6221 0.04147 0.96593 0.0
C879 C 0.63946 0.05243 0.8872 0.0
C880 C 0.65781 0.05961 0.85786 0.0
C881 C 0.6049 0.03813 0.93978 0.0
C882 C 0.60519 0.04139 0.88638 0.0
C883 C 0.62229 0.04896 0.86094 0.0
C884 C 0.5885 0.03566 0.85566 0.0
C885 C 0.58662 0.03104 0.96956 0.0
C886 C 0.58231 0.01704 0.85641 0.0
C887 C 0.56763 0.01122 0.82473 0.0
C888 C 0.55895 0.02389 0.79122 0.0
C889 C 0.56495 0.04261 0.79106 0.0
C890 C 0.57967 0.04843 0.82289 0.0
H891 H 0.58684 0.03504 0.00973 0.0
H892 H 0.57318 0.03631 0.95233 0.0
H893 H 0.58584 0.01576 0.96979 0.0
H894 H 0.58924 0.00688 0.8805 0.0
H895 H 0.56344 0.99669 0.82569 0.0
H896 H 0.49282 0.67097 0.02902 0.0
H897 H 0.48969 0.64587 0.97061 0.0
H898 H 0.53199 0.61524 0.05442 0.0
H899 H 0.5351 0.64013 0.11288 0.0
H900 H 0.518 0.63207 0.90871 0.0
H901 H 0.48795 0.57694 0.04514 0.0
H902 H 0.48868 0.60094 0.05989 0.0
H903 H 0.51023 0.58751 0.06582 0.0
C904 C 0.50139 0.65885 0.03502 0.0
C905 C 0.51408 0.65745 0.07578 0.0
C906 C 0.49953 0.64451 0.00179 0.0
C907 C 0.5103 0.62853 0.0088 0.0
C908 C 0.52309 0.62719 0.04919 0.0
H909 H 0.54149 0.53471 0.84408 0.0
H910 H 0.53748 0.55938 0.90313 0.0
C911 C 0.52488 0.64145 0.08251 0.0
C912 C 0.50903 0.61363 0.97249 0.0
H913 H 0.50129 0.56716 0.96567 0.0
C914 C 0.51407 0.61792 0.92099 0.0
C915 C 0.50385 0.59518 0.98863 0.0
C916 C 0.49717 0.58988 0.0428 0.0
C917 C 0.51485 0.60412 0.88559 0.0
C918 C 0.51034 0.58563 0.90216 0.0
C919 C 0.50482 0.58138 0.9533 0.0
C920 C 0.51211 0.57041 0.86729 0.0
C921 C 0.52116 0.60926 0.83107 0.0
C922 C 0.49895 0.56835 0.82815 0.0
C923 C 0.50113 0.55422 0.79444 0.0
C924 C 0.51656 0.54198 0.79929 0.0
C925 C 0.52951 0.54395 0.83915 0.0
C926 C 0.52724 0.558 0.87298 0.0
H927 H 0.5269 0.62376 0.82604 0.0
H928 H 0.53267 0.6 0.81772 0.0
H929 H 0.5084 0.60758 0.80656 0.0
H930 H 0.48708 0.57773 0.82357 0.0
H931 H 0.49089 0.55306 0.76419 0.0
H932 H 0.85211 0.41815 0.02466 0.0
H933 H 0.88017 0.42576 0.96658 0.0
H934 H 0.91316 0.38353 0.04117 0.0
H935 H 0.88484 0.3754 0.09912 0.0
H936 H 0.93287 0.41912 0.02802 0.0
H937 H 0.9025 0.39612 0.84852 0.0
H938 H 0.88626 0.4103 0.88333 0.0
H939 H 0.89241 0.38816 0.91045 0.0
C940 C 0.86512 0.41013 0.02811 0.0
C941 C 0.86612 0.39603 0.06636 0.0
C942 C 0.88118 0.41456 0.99492 0.0
C943 C 0.8986 0.40503 0.99918 0.0
C944 C 0.89976 0.39096 0.03717 0.0
H945 H 0.99085 0.43236 0.76377 0.0
H946 H 0.97009 0.41405 0.82669 0.0
C947 C 0.88361 0.38642 0.07035 0.0
C948 C 0.91582 0.41064 0.96547 0.0
H949 H 0.9299 0.41786 0.84029 0.0
C950 C 0.93242 0.41856 0.987 0.0
C951 C 0.91527 0.40965 0.91209 0.0
C952 C 0.89823 0.40043 0.88717 0.0
C953 C 0.948 0.42656 0.95623 0.0
C954 C 0.94677 0.42677 0.90274 0.0
C955 C 0.93073 0.41783 0.88134 0.0
C956 C 0.96105 0.43747 0.86824 0.0
C957 C 0.96544 0.43505 0.98123 0.0
C958 C 0.96289 0.45668 0.87097 0.0
C959 C 0.97465 0.46717 0.8351 0.0
C960 C 0.98474 0.45865 0.79561 0.0
C961 C 0.9833 0.43933 0.79376 0.0
C962 C 0.97145 0.42885 0.82963 0.0
H963 H 0.96709 0.42882 0.02012 0.0
H964 H 0.97923 0.43337 0.95839 0.0
H965 H 0.96327 0.45 0.9846 0.0
H966 H 0.95466 0.46365 0.8998 0.0
H967 H 0.97542 0.48201 0.83758 0.0
H968 H 0.10841 0.20339 0.03563 0.0
H969 H 0.09759 0.17926 0.98007 0.0
H970 H 0.14705 0.14715 0.0212 0.0
H971 H 0.15766 0.17085 0.07781 0.0
H972 H 0.11665 0.16099 0.89696 0.0
H973 H 0.09785 0.11424 0.06656 0.0
H974 H 0.1026 0.13868 0.071 0.0
H975 H 0.12263 0.1236 0.06221 0.0
C976 C 0.11709 0.19127 0.03246 0.0
C977 C 0.13381 0.189 0.0615 0.0
C978 C 0.11094 0.17756 0.00053 0.0
C979 C 0.12136 0.16133 0.99727 0.0
C980 C 0.13868 0.15949 0.02375 0.0
H981 H 0.0964 0.07185 0.79508 0.0
H982 H 0.11292 0.09628 0.84038 0.0
C983 C 0.14484 0.17317 0.05567 0.0
C984 C 0.11334 0.14581 0.96912 0.0
H985 H 0.09345 0.10208 0.98621 0.0
C986 C 0.11165 0.14806 0.9163 0.0
C987 C 0.10663 0.12908 0.99475 0.0
C988 C 0.10732 0.12621 0.0518 0.0
C989 C 0.10343 0.13395 0.8883 0.0
C990 C 0.09693 0.11715 0.9139 0.0
C991 C 0.09863 0.11492 0.96671 0.0
C992 C 0.0873 0.10206 0.88711 0.0
C993 C 0.10125 0.13728 0.83185 0.0
C994 C 0.06763 0.09689 0.89948 0.0
C995 C 0.05824 0.08288 0.87407 0.0
C996 C 0.06837 0.07369 0.83594 0.0
C997 C 0.08824 0.0786 0.82446 0.0
C998 C 0.09763 0.09268 0.84986 0.0
H999 H 0.10329 0.15211 0.81986 0.0
H1000 H 0.11248 0.12956 0.811 0.0
H1001 H 0.08655 0.13228 0.82052 0.0
H1002 H 0.05947 0.10386 0.92844 0.0
H1003 H 0.04301 0.07924 0.8843 0.0
H1004 H 0.3352 0.04673 0.02033 0.0
H1005 H 0.36254 0.04445 0.95915 0.0
H1006 H 0.3578 0.98516 0.97672 0.0
H1007 H 0.32961 0.98726 0.03595 0.0
H1008 H 0.39714 0.03041 0.97932 0.0
H1009 H 0.36439 0.99209 0.8246 0.0
H1010 H 0.34961 0.00221 0.87344 0.0
H1011 H 0.36061 0.98038 0.8859 0.0
C1012 C 0.33944 0.03315 0.01002 0.0
C1013 C 0.33001 0.01717 0.03317 0.0
C1014 C 0.3553 0.03189 0.97533 0.0
C1015 C 0.3622 0.01465 0.9629 0.0
C1016 C 0.35256 0.99864 0.98485 0.0
H1017 H 0.46803 0.97957 0.80779 0.0
H1018 H 0.43766 0.98177 0.85936 0.0
C1019 C 0.33655 -0.00013 0.01931 0.0
C1020 C 0.38037 0.01357 0.93023 0.0
H1021 H 0.3994 0.995 0.82305 0.0
C1022 C 0.39756 0.02279 0.94492 0.0
C1023 C 0.38098 0.00358 0.88539 0.0
C1024 C 0.36287 0.99415 0.86607 0.0
C1025 C 0.41534 0.02207 0.91653 0.0
C1026 C 0.41597 0.01195 0.87209 0.0
C1027 C 0.39885 0.00271 0.85727 0.0
C1028 C 0.43434 0.01075 0.84067 0.0
C1029 C 0.43345 0.03185 0.93472 0.0
C1030 C 0.44248 0.02633 0.81292 0.0
C1031 C 0.4598 0.02513 0.78322 0.0
C1032 C 0.46935 0.00832 0.78089 0.0
C1033 C 0.46113 0.99275 0.8089 0.0
C1034 C 0.44374 0.99395 0.83826 0.0
H1035 H 0.43139 0.03617 0.97441 0.0
H1036 H 0.44625 0.02284 0.93263 0.0
H1037 H 0.43695 0.04436 0.90972 0.0
H1038 H 0.43533 0.03939 0.81396 0.0
H1039 H 0.46568 0.03736 0.76201 0.0
H1040 H 0.46433 0.32287 0.00255 0.0
H1041 H 0.47267 0.34898 0.94238 0.0
H1042 H 0.42486 0.37891 0.00563 0.0
H1043 H 0.41692 0.35336 0.06709 0.0
H1044 H 0.45131 0.36908 0.86834 0.0
H1045 H 0.47361 0.41207 0.02672 0.0
H1046 H 0.4693 0.38746 0.0348 0.0
H1047 H 0.44895 0.4025 0.03307 0.0
C1048 C 0.45553 0.33498 0.00356 0.0
C1049 C 0.44005 0.33602 0.04008 0.0
C1050 C 0.46024 0.34983 0.96889 0.0
C1051 C 0.44958 0.36598 0.97018 0.0
C1052 C 0.43345 0.36667 0.00453 0.0
H1053 H 0.46723 0.46164 0.75266 0.0
H1054 H 0.45206 0.43546 0.8041 0.0
C1055 C 0.42879 0.3519 0.03928 0.0
C1056 C 0.45613 0.38253 0.93803 0.0
H1057 H 0.47461 0.42658 0.94461 0.0
C1058 C 0.45633 0.3817 0.88489 0.0
C1059 C 0.46287 0.39889 0.95986 0.0
C1060 C 0.46387 0.40032 0.01671 0.0
C1061 C 0.46315 0.39682 0.85293 0.0
C1062 C 0.46971 0.41322 0.87484 0.0
C1063 C 0.46938 0.41405 0.92795 0.0
C1064 C 0.47845 0.42919 0.84369 0.0
C1065 C 0.4639 0.39495 0.79611 0.0
C1066 C 0.49811 0.43461 0.84987 0.0
C1067 C 0.50673 0.44954 0.82099 0.0
C1068 C 0.49585 0.45948 0.78532 0.0
C1069 C 0.47601 0.45425 0.77973 0.0
C1070 C 0.46737 0.43922 0.80878 0.0
H1071 H 0.46197 0.38036 0.78587 0.0
H1072 H 0.45196 0.40287 0.7791 0.0
H1073 H 0.47809 0.40065 0.77894 0.0
H1074 H 0.50689 0.42712 0.87676 0.0
H1075 H 0.52202 0.45318 0.82642 0.0
H1076 H 0.19347 0.483 0.01459 0.0
H1077 H 0.16719 0.48026 0.95552 0.0
H1078 H 0.18246 0.53463 0.8902 0.0
H1079 H 0.20964 0.53726 0.94802 0.0
H1080 H 0.13635 0.50371 0.95676 0.0
H1081 H 0.17291 0.50449 0.76441 0.0
H1082 H 0.18581 0.49957 0.82189 0.0
H1083 H 0.18042 0.5229 0.80341 0.0
C1084 C 0.19185 0.49417 0.98653 0.0
C1085 C 0.20383 0.51036 0.98612 0.0
C1086 C 0.17661 0.49262 0.95305 0.0
C1087 C 0.1729 0.5072 0.91841 0.0
C1088 C 0.18524 0.52311 0.91623 0.0
H1089 H 0.05848 0.52278 0.79051 0.0
H1090 H 0.08921 0.52648 0.83437 0.0
C1091 C 0.20064 0.52466 0.94968 0.0
C1092 C 0.15492 0.50627 0.88862 0.0
H1093 H 0.13816 0.50577 0.76814 0.0
C1094 C 0.13675 0.50416 0.9155 0.0
C1095 C 0.15552 0.50677 0.83488 0.0
C1096 C 0.17469 0.5084 0.80427 0.0
C1097 C 0.11913 0.50246 0.89016 0.0
C1098 C 0.11966 0.50323 0.8364 0.0
C1099 C 0.13783 0.50532 0.80939 0.0
C1100 C 0.10147 0.50146 0.80781 0.0
C1101 C 0.10012 0.49942 0.92121 0.0
C1102 C 0.09839 0.48637 0.77746 0.0
C1103 C 0.08085 0.48423 0.75221 0.0
C1104 C 0.06612 0.49719 0.75674 0.0
C1105 C 0.06943 0.51246 0.78656 0.0
C1106 C 0.08697 0.51459 0.81171 0.0
H1107 H 0.10267 0.49478 0.96115 0.0
H1108 H 0.09234 0.51256 0.9219 0.0
H1109 H 0.09038 0.48901 0.90423 0.0
H1110 H 0.10943 0.47611 0.77397 0.0
H1111 H 0.07881 0.47237 0.72933 0.0
H1112 H 0.94678 0.8268 0.24385 0.0
H1113 H 0.94418 0.8538 0.29514 0.0
H1114 H 0.9494 0.81942 0.43164 0.0
H1115 H 0.95211 0.79228 0.3805 0.0
H1116 H 0.92058 0.86463 0.38044 0.0
H1117 H 0.9985 0.85441 0.42612 0.0
H1118 H 0.98654 0.84223 0.37712 0.0
H1119 H 0.98211 0.835 0.4429 0.0
C1120 C 0.94675 0.82487 0.28489 0.0
C1121 C 0.94987 0.80744 0.30815 0.0
C1122 C 0.94534 0.84034 0.31411 0.0
C1123 C 0.94702 0.83863 0.367 0.0
C1124 C 0.94846 0.82105 0.39072 0.0
H1125 H 0.97132 0.91727 0.5937 0.0
H1126 H 0.96185 0.89002 0.54884 0.0
C1127 C 0.94998 0.80558 0.36152 0.0
C1128 C 0.94944 0.85535 0.39644 0.0
H1129 H 0.98281 0.87878 0.46466 0.0
C1130 C 0.93414 0.86774 0.39902 0.0
C1131 C 0.96727 0.85946 0.42002 0.0
C1132 C 0.98463 0.84719 0.41616 0.0
C1133 C 0.93608 0.884 0.42558 0.0
C1134 C 0.95387 0.88799 0.44939 0.0
C1135 C 0.96914 0.87561 0.44662 0.0
C1136 C 0.95722 0.90492 0.4775 0.0
C1137 C 0.91902 0.89661 0.42862 0.0
C1138 C 0.95762 0.9224 0.45232 0.0
C1139 C 0.96291 0.93813 0.47805 0.0
C1140 C 0.96797 0.9366 0.52936 0.0
C1141 C 0.96716 0.91905 0.55455 0.0
C1142 C 0.96187 0.90341 0.52888 0.0
H1143 H 0.90502 0.8895 0.41928 0.0
H1144 H 0.91734 0.90202 0.4672 0.0
H1145 H 0.92178 0.90851 0.40098 0.0
H1146 H 0.95445 0.92384 0.41237 0.0
H1147 H 0.96327 0.95143 0.45763 0.0
H1148 H 0.7205 0.01952 0.39684 0.0
H1149 H 0.69171 0.011 0.45145 0.0
H1150 H 0.66205 0.99023 0.32305 0.0
H1151 H 0.69005 0.00015 0.26737 0.0
H1152 H 0.63931 0.01149 0.36898 0.0
H1153 H 0.66827 0.96496 0.51741 0.0
H1154 H 0.68208 0.98643 0.51326 0.0
H1155 H 0.68234 0.97183 0.4598 0.0
C1156 C 0.7079 0.01311 0.38004 0.0
C1157 C 0.7077 0.01075 0.32728 0.0
C1158 C 0.69151 0.00789 0.41169 0.0
C1159 C 0.67469 -0.00028 0.3917 0.0
C1160 C 0.67484 0.99645 0.33957 0.0
H1161 H 0.57199 0.96745 0.59463 0.0
H1162 H 0.60092 0.96598 0.53675 0.0
C1163 C 0.69106 0.00197 0.30773 0.0
C1164 C 0.65627 0.99656 0.42366 0.0
H1165 H 0.63796 0.9796 0.53988 0.0
C1166 C 0.63901 0.00423 0.40599 0.0
C1167 C 0.65562 0.98685 0.47169 0.0
C1168 C 0.67304 0.97688 0.49132 0.0
C1169 C 0.62146 0.00316 0.43565 0.0
C1170 C 0.62124 0.99479 0.48533 0.0
C1171 C 0.63819 0.98634 0.50219 0.0
C1172 C 0.60385 0.99547 0.52091 0.0
C1173 C 0.60331 0.01103 0.4132 0.0
C1174 C 0.59612 0.01252 0.53206 0.0
C1175 C 0.57953 0.01338 0.56438 0.0
C1176 C 0.57048 0.99721 0.58727 0.0
C1177 C 0.57857 0.98014 0.5774 0.0
C1178 C 0.59511 0.97929 0.54441 0.0
H1179 H 0.60402 0.01083 0.37102 0.0
H1180 H 0.58979 0.00327 0.42777 0.0
H1181 H 0.60225 0.02561 0.42335 0.0
H1182 H 0.60295 0.02525 0.51578 0.0
H1183 H 0.57388 0.02678 0.57173 0.0
H1184 H 0.6035 0.67081 0.33499 0.0
H1185 H 0.61099 0.6436 0.38867 0.0
H1186 H 0.5551 0.64666 0.46935 0.0
H1187 H 0.54741 0.67343 0.41615 0.0
H1188 H 0.58605 0.63739 0.53293 0.0
H1189 H 0.58257 0.59401 0.36436 0.0
H1190 H 0.60011 0.61313 0.36143 0.0
H1191 H 0.57432 0.61732 0.36253 0.0
C1192 C 0.59291 0.66579 0.36455 0.0
C1193 C 0.57481 0.67432 0.371 0.0
C1194 C 0.59723 0.65026 0.39518 0.0
C1195 C 0.58349 0.64298 0.43254 0.0
C1196 C 0.56596 0.65208 0.44088 0.0
H1197 H 0.53263 0.54675 0.55456 0.0
H1198 H 0.54682 0.57365 0.50623 0.0
C1199 C 0.56164 0.66752 0.41047 0.0
C1200 C 0.58612 0.62506 0.46032 0.0
H1201 H 0.58206 0.57876 0.44452 0.0
C1202 C 0.58571 0.62453 0.51371 0.0
C1203 C 0.58556 0.60833 0.43497 0.0
C1204 C 0.58556 0.60806 0.3777 0.0
C1205 C 0.58339 0.60776 0.54248 0.0
C1206 C 0.58165 0.59111 0.51706 0.0
C1207 C 0.58348 0.59157 0.46377 0.0
C1208 C 0.5744 0.57372 0.54419 0.0
C1209 C 0.58125 0.60805 0.59967 0.0
C1210 C 0.5854 0.56455 0.58098 0.0
C1211 C 0.57727 0.54903 0.60898 0.0
C1212 C 0.55802 0.54256 0.60057 0.0
C1213 C 0.54743 0.55143 0.56235 0.0
C1214 C 0.55555 0.56679 0.53447 0.0
H1215 H 0.58101 0.6223 0.61311 0.0
H1216 H 0.56751 0.60048 0.61359 0.0
H1217 H 0.59375 0.60103 0.61696 0.0
H1218 H 0.60008 0.56958 0.58862 0.0
H1219 H 0.5858 0.54245 0.63809 0.0
H1220 H 0.84052 0.41299 0.42323 0.0
H1221 H 0.86273 0.42924 0.47751 0.0
H1222 H 0.85011 0.48089 0.40031 0.0
H1223 H 0.82759 0.46471 0.34591 0.0
H1224 H 0.8894 0.47451 0.40087 0.0
H1225 H 0.85671 0.46296 0.59559 0.0
H1226 H 0.85807 0.44193 0.56291 0.0
H1227 H 0.84274 0.45987 0.53948 0.0
C1228 C 0.84193 0.42787 0.41881 0.0
C1229 C 0.8323 0.43754 0.38011 0.0
C1230 C 0.85465 0.43716 0.44997 0.0
C1231 C 0.85792 0.4563 0.44335 0.0
C1232 C 0.84773 0.46612 0.40618 0.0
H1233 H 0.94555 0.50868 0.63383 0.0
H1234 H 0.91499 0.50376 0.58916 0.0
C1235 C 0.83496 0.45684 0.37499 0.0
C1236 C 0.87375 0.46553 0.47082 0.0
H1237 H 0.89176 0.4697 0.58905 0.0
C1238 C 0.88973 0.4738 0.44206 0.0
C1239 C 0.8741 0.46479 0.52454 0.0
C1240 C 0.85688 0.45708 0.55743 0.0
C1241 C 0.90658 0.48026 0.46549 0.0
C1242 C 0.90752 0.4782 0.51895 0.0
C1243 C 0.89107 0.47106 0.54797 0.0
C1244 C 0.92604 0.4818 0.54482 0.0
C1245 C 0.92346 0.48878 0.43275 0.0
C1246 C 0.94223 0.47098 0.53484 0.0
C1247 C 0.95958 0.47367 0.56029 0.0
C1248 C 0.96109 0.48724 0.59634 0.0
C1249 C 0.94486 0.49817 0.6061 0.0
C1250 C 0.92741 0.49537 0.58075 0.0
H1251 H 0.91848 0.4942 0.39542 0.0
H1252 H 0.93094 0.50017 0.45203 0.0
H1253 H 0.93434 0.47812 0.42545 0.0
H1254 H 0.94133 0.46023 0.50784 0.0
H1255 H 0.97177 0.46499 0.55192 0.0
loop_
_geom_bond_atom_site_label_1
_geom_bond_atom_site_label_2
_geom_bond_distance
_geom_bond_site_symmetry_2
_ccdc_geom_bond_type
P0 O11 1.490 . S
P0 C14 1.812 . S
P0 C20 1.803 . S
P0 C26 1.819 . S
H1 C15 0.941 . S
H2 C16 0.939 . S
H3 C18 0.940 . S
H4 C19 0.940 . S
H5 C21 0.939 . S
H6 C22 0.942 . S
H7 C24 0.940 . S
H8 C25 0.939 . S
H9 C27 0.941 . S
H10 C31 0.939 . S
O11 P0 1.490 . S
H12 C28 0.939 . S
H13 C30 0.940 1_556 S
C14 P0 1.812 . S
C14 C15 1.389 . S
C14 C19 1.391 . S
C15 H1 0.941 . S
C15 C14 1.389 . S
C15 C16 1.397 . S
C16 H2 0.939 . S
C16 C15 1.397 . S
C16 C17 1.378 . S
C17 C16 1.378 . S
C17 C18 1.378 . S
C18 H3 0.940 . S
C18 C17 1.378 . S
C18 C19 1.396 . S
C19 H4 0.940 . S
C19 C14 1.391 . S
C19 C18 1.396 . S
C20 P0 1.803 . S
C20 C21 1.378 . S
C20 C25 1.400 . S
C21 H5 0.939 . S
C21 C20 1.378 . S
C21 C22 1.361 . S
C22 H6 0.942 . S
C22 C21 1.361 . S
C22 C23 1.369 . S
C23 C22 1.369 . S
C23 C24 1.404 . S
C24 H7 0.940 . S
C24 C23 1.404 . S
C24 C25 1.389 . S
C25 H8 0.939 . S
C25 C20 1.400 . S
C25 C24 1.389 . S
C26 P0 1.819 . S
C26 C27 1.391 . S
C26 C31 1.391 . S
C27 H9 0.941 . S
C27 C26 1.391 . S
C27 C28 1.396 . S
C28 H12 0.939 . S
C28 C27 1.396 . S
C28 C29 1.397 . S
C29 C28 1.397 . S
C29 C30 1.385 . S
C30 H13 0.940 1_554 S
C30 C29 1.385 . S
C30 C31 1.388 . S
C31 H10 0.939 . S
C31 C26 1.391 . S
C31 C30 1.388 . S
P32 O43 1.489 . S
P32 C46 1.812 . S
P32 C52 1.803 1_554 S
P32 C58 1.819 1_554 S
H33 C47 0.941 . S
H34 C48 0.939 . S
H35 C50 0.940 . S
H36 C51 0.940 . S
H37 C53 0.939 . S
H38 C54 0.942 . S
H39 C56 0.940 1_554 S
H40 C57 0.939 . S
H41 C59 0.941 . S
H42 C63 0.939 . S
O43 P32 1.489 . S
H44 C60 0.939 . S
H45 C62 0.940 . S
C46 P32 1.812 . S
C46 C47 1.389 . S
C46 C51 1.391 . S
C47 H33 0.941 . S
C47 C46 1.389 . S
C47 C48 1.397 . S
C48 H34 0.939 . S
C48 C47 1.397 . S
C48 C49 1.378 . S
C49 C48 1.378 . S
C49 C50 1.378 . S
C50 H35 0.940 . S
C50 C49 1.378 . S
C50 C51 1.396 . S
C51 H36 0.940 . S
C51 C46 1.391 . S
C51 C50 1.396 . S
C52 P32 1.803 1_556 S
C52 C53 1.378 . S
C52 C57 1.400 1_556 S
C53 H37 0.939 . S
C53 C52 1.378 . S
C53 C54 1.361 . S
C54 H38 0.942 . S
C54 C53 1.361 . S
C54 C55 1.369 . S
C55 C54 1.369 . S
C55 C56 1.404 . S
C56 H39 0.940 1_556 S
C56 C55 1.404 . S
C56 C57 1.389 1_556 S
C57 H40 0.939 . S
C57 C52 1.400 1_554 S
C57 C56 1.389 1_554 S
C58 P32 1.819 1_556 S
C58 C59 1.391 . S
C58 C63 1.391 . S
C59 H41 0.941 . S
C59 C58 1.391 . S
C59 C60 1.396 . S
C60 H44 0.939 . S
C60 C59 1.396 . S
C60 C61 1.397 . S
C61 C60 1.397 . S
C61 C62 1.385 . S
C62 H45 0.940 . S
C62 C61 1.385 . S
C62 C63 1.388 . S
C63 H42 0.939 . S
C63 C58 1.391 . S
C63 C62 1.388 . S
P64 O75 1.490 . S
P64 C78 1.812 . S
P64 C84 1.803 . S
P64 C90 1.819 . S
H65 C79 0.941 . S
H66 C80 0.939 . S
H67 C82 0.940 . S
H68 C83 0.951 . S
H69 C85 0.939 . S
H70 C86 0.942 1_556 S
H71 C88 0.940 . S
H72 C89 0.958 . S
H73 C91 0.941 . S
H74 C95 0.928 1_565 S
O75 P64 1.490 . S
H76 C92 0.939 . S
H77 C94 0.940 . S
C78 P64 1.812 . S
C78 C79 1.389 . S
C78 C83 1.375 1_545 S
C79 H65 0.941 . S
C79 C78 1.389 . S
C79 C80 1.397 . S
C80 H66 0.939 . S
C80 C79 1.397 . S
C80 C81 1.378 . S
C81 C80 1.378 . S
C81 C82 1.378 1_545 S
C82 H67 0.940 . S
C82 C81 1.378 1_565 S
C82 C83 1.402 . S
C83 H68 0.951 . S
C83 C78 1.375 1_565 S
C83 C82 1.402 . S
C84 P64 1.803 . S
C84 C85 1.378 . S
C84 C89 1.368 1_545 S
C85 H69 0.939 . S
C85 C84 1.378 . S
C85 C86 1.361 . S
C86 H70 0.942 1_554 S
C86 C85 1.361 . S
C86 C87 1.369 . S
C87 C86 1.369 . S
C87 C88 1.404 1_545 S
C88 H71 0.940 . S
C88 C87 1.404 1_565 S
C88 C89 1.403 . S
C89 H72 0.958 . S
C89 C84 1.368 1_565 S
C89 C88 1.403 . S
C90 P64 1.819 . S
C90 C91 1.391 . S
C90 C95 1.391 1_554 S
C91 H73 0.941 . S
C91 C90 1.391 . S
C91 C92 1.396 1_554 S
C92 H76 0.939 . S
C92 C91 1.396 1_556 S
C92 C93 1.397 . S
C93 C92 1.397 . S
C93 C94 1.385 1_545 S
C94 H77 0.940 . S
C94 C93 1.385 1_565 S
C94 C95 1.388 1_565 S
C95 H74 0.928 1_545 S
C95 C90 1.391 1_556 S
C95 C94 1.388 1_545 S
P96 O107 1.490 . S
P96 C110 1.812 . S
P96 C116 1.803 . S
P96 C122 1.819 . S
H97 C111 0.941 . S
H98 C112 0.939 . S
H99 C114 0.940 . S
H100 C115 0.940 . S
H101 C117 0.939 . S
H102 C118 0.942 . S
H103 C120 0.940 . S
H104 C121 0.939 . S
H105 C123 0.941 . S
H106 C127 0.941 1_556 S
O107 P96 1.490 . S
H108 C124 0.939 . S
H109 C126 0.940 . S
C110 P96 1.812 . S
C110 C111 1.389 . S
C110 C115 1.391 . S
C111 H97 0.941 . S
C111 C110 1.389 . S
C111 C112 1.397 . S
C112 H98 0.939 . S
C112 C111 1.397 . S
C112 C113 1.378 . S
C113 C112 1.378 . S
C113 C114 1.378 . S
C114 H99 0.940 . S
C114 C113 1.378 . S
C114 C115 1.396 . S
C115 H100 0.940 . S
C115 C110 1.391 . S
C115 C114 1.396 . S
C116 P96 1.803 . S
C116 C117 1.378 . S
C116 C121 1.400 . S
C117 H101 0.939 . S
C117 C116 1.378 . S
C117 C118 1.361 . S
C118 H102 0.942 . S
C118 C117 1.361 . S
C118 C119 1.369 . S
C119 C118 1.369 . S
C119 C120 1.404 . S
C120 H103 0.940 . S
C120 C119 1.404 . S
C120 C121 1.389 . S
C121 H104 0.939 . S
C121 C116 1.400 . S
C121 C120 1.389 . S
C122 P96 1.819 . S
C122 C123 1.391 . S
C122 C127 1.405 . S
C123 H105 0.941 . S
C123 C122 1.391 . S
C123 C124 1.396 . S
C124 H108 0.939 . S
C124 C123 1.396 . S
C124 C125 1.397 1_554 S
C125 C124 1.397 1_556 S
C125 C126 1.385 . S
C126 H109 0.940 . S
C126 C125 1.385 . S
C126 C127 1.375 1_556 S
C127 H106 0.941 1_554 S
C127 C122 1.405 . S
C127 C126 1.375 1_554 S
P128 O139 1.490 . S
P128 C142 1.812 . S
P128 C148 1.803 . S
P128 C154 1.819 . S
H129 C143 0.941 . S
H130 C144 0.939 . S
H131 C146 0.940 . S
H132 C147 0.940 . S
H133 C149 0.939 . S
H134 C150 0.942 . S
H135 C152 0.940 . S
H136 C153 0.939 . S
H137 C155 0.941 . S
H138 C159 0.939 . S
O139 P128 1.490 . S
H140 C156 0.939 . S
H141 C158 0.940 . S
C142 P128 1.812 . S
C142 C143 1.389 . S
C142 C147 1.391 . S
C143 H129 0.941 . S
C143 C142 1.389 . S
C143 C144 1.397 . S
C144 H130 0.939 . S
C144 C143 1.397 . S
C144 C145 1.378 . S
C145 C144 1.378 . S
C145 C146 1.378 . S
C146 H131 0.940 . S
C146 C145 1.378 . S
C146 C147 1.396 . S
C147 H132 0.940 . S
C147 C142 1.391 . S
C147 C146 1.396 . S
C148 P128 1.803 . S
C148 C149 1.378 . S
C148 C153 1.400 . S
C149 H133 0.939 . S
C149 C148 1.378 . S
C149 C150 1.361 . S
C150 H134 0.942 . S
C150 C149 1.361 . S
C150 C151 1.369 . S
C151 C150 1.369 . S
C151 C152 1.404 . S
C152 H135 0.940 . S
C152 C151 1.404 . S
C152 C153 1.389 . S
C153 H136 0.939 . S
C153 C148 1.400 . S
C153 C152 1.389 . S
C154 P128 1.819 . S
C154 C155 1.391 . S
C154 C159 1.391 . S
C155 H137 0.941 . S
C155 C154 1.391 . S
C155 C156 1.396 . S
C156 H140 0.939 . S
C156 C155 1.396 . S
C156 C157 1.397 . S
C157 C156 1.397 . S
C157 C158 1.385 . S
C158 H141 0.940 . S
C158 C157 1.385 . S
C158 C159 1.388 . S
C159 H138 0.939 . S
C159 C154 1.391 . S
C159 C158 1.388 . S
P160 O171 1.490 . S
P160 C174 1.812 . S
P160 C180 1.803 . S
P160 C186 1.819 . S
H161 C175 0.941 . S
H162 C176 0.939 . S
H163 C178 0.940 . S
H164 C179 0.940 . S
H165 C181 0.939 . S
H166 C182 0.942 . S
H167 C184 0.940 . S
H168 C185 0.939 . S
H169 C187 0.941 . S
H170 C191 0.939 . S
O171 P160 1.490 . S
H172 C188 0.939 . S
H173 C190 0.940 . S
C174 P160 1.812 . S
C174 C175 1.389 . S
C174 C179 1.391 . S
C175 H161 0.941 . S
C175 C174 1.389 . S
C175 C176 1.397 . S
C176 H162 0.939 . S
C176 C175 1.397 . S
C176 C177 1.378 . S
C177 C176 1.378 . S
C177 C178 1.378 . S
C178 H163 0.940 . S
C178 C177 1.378 . S
C178 C179 1.396 . S
C179 H164 0.940 . S
C179 C174 1.391 . S
C179 C178 1.396 . S
C180 P160 1.803 . S
C180 C181 1.378 . S
C180 C185 1.400 . S
C181 H165 0.939 . S
C181 C180 1.378 . S
C181 C182 1.361 . S
C182 H166 0.942 . S
C182 C181 1.361 . S
C182 C183 1.369 . S
C183 C182 1.369 . S
C183 C184 1.404 . S
C184 H167 0.940 . S
C184 C183 1.404 . S
C184 C185 1.389 . S
C185 H168 0.939 . S
C185 C180 1.400 . S
C185 C184 1.389 . S
C186 P160 1.819 . S
C186 C187 1.391 . S
C186 C191 1.391 . S
C187 H169 0.941 . S
C187 C186 1.391 . S
C187 C188 1.396 . S
C188 H172 0.939 . S
C188 C187 1.396 . S
C188 C189 1.397 . S
C189 C188 1.397 . S
C189 C190 1.385 . S
C190 H173 0.940 . S
C190 C189 1.385 . S
C190 C191 1.388 . S
C191 H170 0.939 . S
C191 C186 1.391 . S
C191 C190 1.388 . S
P192 O203 1.490 . S
P192 C206 1.812 . S
P192 C212 1.803 . S
P192 C218 1.819 . S
H193 C207 0.941 . S
H194 C208 0.939 . S
H195 C210 0.940 . S
H196 C211 0.942 . S
H197 C213 0.939 . S
H198 C214 0.942 . S
H199 C216 0.940 . S
H200 C217 0.952 . S
H201 C219 0.941 . S
H202 C223 0.934 1_565 S
O203 P192 1.490 . S
H204 C220 0.939 . S
H205 C222 0.940 . S
C206 P192 1.812 . S
C206 C207 1.389 . S
C206 C211 1.388 1_545 S
C207 H193 0.941 . S
C207 C206 1.389 . S
C207 C208 1.397 . S
C208 H194 0.939 . S
C208 C207 1.397 . S
C208 C209 1.378 . S
C209 C208 1.378 . S
C209 C210 1.378 1_545 S
C210 H195 0.940 . S
C210 C209 1.378 1_565 S
C210 C211 1.398 . S
C211 H196 0.942 . S
C211 C206 1.388 1_565 S
C211 C210 1.398 . S
C212 P192 1.803 . S
C212 C213 1.378 . S
C212 C217 1.382 1_545 S
C213 H197 0.939 . S
C213 C212 1.378 . S
C213 C214 1.361 . S
C214 H198 0.942 . S
C214 C213 1.361 . S
C214 C215 1.369 . S
C215 C214 1.369 . S
C215 C216 1.404 1_545 S
C216 H199 0.940 . S
C216 C215 1.404 1_565 S
C216 C217 1.395 . S
C217 H200 0.952 . S
C217 C212 1.382 1_565 S
C217 C216 1.395 . S
C218 P192 1.819 . S
C218 C219 1.391 . S
C218 C223 1.391 . S
C219 H201 0.941 . S
C219 C218 1.391 . S
C219 C220 1.396 . S
C220 H204 0.939 . S
C220 C219 1.396 . S
C220 C221 1.397 . S
C221 C220 1.397 . S
C221 C222 1.385 1_545 S
C222 H205 0.940 . S
C222 C221 1.385 1_565 S
C222 C223 1.388 1_565 S
C223 H202 0.934 1_545 S
C223 C218 1.391 . S
C223 C222 1.388 1_545 S
P224 O235 1.490 . S
P224 C238 1.812 . S
P224 C244 1.803 . S
P224 C250 1.819 . S
H225 C239 0.941 . S
H226 C240 0.939 . S
H227 C242 0.940 . S
H228 C243 0.940 . S
H229 C245 0.939 . S
H230 C246 0.942 . S
H231 C248 0.940 . S
H232 C249 0.939 . S
H233 C251 0.941 . S
H234 C255 0.939 . S
O235 P224 1.490 . S
H236 C252 0.939 . S
H237 C254 0.940 . S
C238 P224 1.812 . S
C238 C239 1.389 . S
C238 C243 1.391 . S
C239 H225 0.941 . S
C239 C238 1.389 . S
C239 C240 1.397 . S
C240 H226 0.939 . S
C240 C239 1.397 . S
C240 C241 1.378 . S
C241 C240 1.378 . S
C241 C242 1.378 . S
C242 H227 0.940 . S
C242 C241 1.378 . S
C242 C243 1.396 . S
C243 H228 0.940 . S
C243 C238 1.391 . S
C243 C242 1.396 . S
C244 P224 1.803 . S
C244 C245 1.378 . S
C244 C249 1.400 . S
C245 H229 0.939 . S
C245 C244 1.378 . S
C245 C246 1.361 . S
C246 H230 0.942 . S
C246 C245 1.361 . S
C246 C247 1.369 . S
C247 C246 1.369 . S
C247 C248 1.404 . S
C248 H231 0.940 . S
C248 C247 1.404 . S
C248 C249 1.389 . S
C249 H232 0.939 . S
C249 C244 1.400 . S
C249 C248 1.389 . S
C250 P224 1.819 . S
C250 C251 1.391 . S
C250 C255 1.391 . S
C251 H233 0.941 . S
C251 C250 1.391 . S
C251 C252 1.396 . S
C252 H236 0.939 . S
C252 C251 1.396 . S
C252 C253 1.397 . S
C253 C252 1.397 . S
C253 C254 1.385 . S
C254 H237 0.940 . S
C254 C253 1.385 . S
C254 C255 1.388 . S
C255 H234 0.939 . S
C255 C250 1.391 . S
C255 C254 1.388 . S
C256 O272 1.251 . S
C256 O274 1.254 . S
N257 C258 1.333 . S
N257 C262 1.307 1_455 S
N257 Zn263 2.020 . S
C258 N257 1.333 . S
C258 C259 1.379 . S
C258 H276 0.952 . S
C259 C258 1.379 . S
C259 C260 1.390 1_455 S
C259 H286 0.949 . S
C260 C259 1.390 1_655 S
C260 C261 1.357 . S
C261 C260 1.357 . S
C261 C262 1.370 . S
C261 H287 0.950 . S
C262 N257 1.307 1_655 S
C262 C261 1.370 . S
C262 H280 0.948 . S
Zn263 N257 2.020 . S
Zn263 O272 2.039 . S
Zn263 O278 2.034 . S
Zn263 O282 2.025 1_565 S
Zn263 O284 2.024 1_455 S
C264 O283 1.246 . S
C264 O284 1.249 1_545 S
N265 C266 1.307 . S
N265 C267 1.333 . S
N265 Zn271 2.020 . S
C266 N265 1.307 . S
C266 C270 1.370 . S
C266 H277 0.948 . S
C267 N265 1.333 . S
C267 C268 1.379 . S
C267 H275 0.952 . S
C268 C267 1.379 . S
C268 C269 1.390 . S
C268 H288 0.949 . S
C269 C268 1.390 . S
C269 C270 1.357 . S
C270 C266 1.370 . S
C270 C269 1.357 . S
C270 H289 0.950 . S
Zn271 N265 2.020 . S
Zn271 O274 2.025 1_545 S
Zn271 O279 2.024 . S
Zn271 O281 2.039 . S
Zn271 O283 2.034 1_455 S
O272 C256 1.251 . S
O272 Zn263 2.039 . S
C273 O278 1.246 . S
C273 O279 1.249 1_565 S
O274 C256 1.254 . S
O274 Zn271 2.025 1_565 S
H275 C267 0.952 . S
H276 C258 0.952 . S
H277 C266 0.948 . S
O278 Zn263 2.034 . S
O278 C273 1.246 . S
O279 Zn271 2.024 . S
O279 C273 1.249 1_545 S
H280 C262 0.948 . S
O281 Zn271 2.039 . S
O281 C285 1.251 . S
O282 Zn263 2.025 1_545 S
O282 C285 1.254 . S
O283 C264 1.246 . S
O283 Zn271 2.034 1_655 S
O284 Zn263 2.024 1_655 S
O284 C264 1.249 1_565 S
C285 O281 1.251 . S
C285 O282 1.254 . S
H286 C259 0.949 . S
H287 C261 0.950 . S
H288 C268 0.949 . S
H289 C270 0.950 . S
C290 O306 1.251 1_565 S
C290 O308 1.254 . S
N291 C292 1.333 . S
N291 C296 1.307 . S
N291 Zn297 2.020 . S
C292 N291 1.333 . S
C292 C293 1.379 . S
C292 H310 0.952 . S
C293 C292 1.379 . S
C293 C294 1.390 . S
C293 H320 0.949 . S
C294 C293 1.390 . S
C294 C295 1.357 . S
C295 C294 1.357 . S
C295 C296 1.370 . S
C295 H321 0.950 . S
C296 N291 1.307 . S
C296 C295 1.370 . S
C296 H314 0.948 . S
Zn297 N291 2.020 . S
Zn297 O306 2.039 . S
Zn297 O312 2.034 . S
Zn297 O316 2.025 . S
Zn297 O318 2.024 . S
C298 O317 1.246 1_545 S
C298 O318 1.249 . S
N299 C300 1.307 . S
N299 C301 1.333 . S
N299 Zn305 2.020 . S
C300 N299 1.307 . S
C300 C304 1.370 . S
C300 H311 0.948 . S
C301 N299 1.333 . S
C301 C302 1.379 . S
C301 H309 0.952 . S
C302 C301 1.379 . S
C302 C303 1.390 . S
C302 H322 0.949 . S
C303 C302 1.390 . S
C303 C304 1.357 . S
C304 C300 1.370 . S
C304 C303 1.357 . S
C304 H323 0.950 . S
Zn305 N299 2.020 . S
Zn305 O308 2.025 . S
Zn305 O313 2.024 . S
Zn305 O315 2.039 . S
Zn305 O317 2.034 . S
O306 C290 1.251 1_545 S
O306 Zn297 2.039 . S
C307 O312 1.246 1_565 S
C307 O313 1.249 . S
O308 C290 1.254 . S
O308 Zn305 2.025 . S
H309 C301 0.952 . S
H310 C292 0.952 . S
H311 C300 0.948 . S
O312 Zn297 2.034 . S
O312 C307 1.246 1_545 S
O313 Zn305 2.024 . S
O313 C307 1.249 . S
H314 C296 0.948 . S
O315 Zn305 2.039 . S
O315 C319 1.251 1_565 S
O316 Zn297 2.025 . S
O316 C319 1.254 . S
O317 C298 1.246 1_565 S
O317 Zn305 2.034 . S
O318 Zn297 2.024 . S
O318 C298 1.249 . S
C319 O315 1.251 1_545 S
C319 O316 1.254 . S
H320 C293 0.949 . S
H321 C295 0.950 . S
H322 C302 0.949 . S
H323 C304 0.950 . S
C324 O340 1.251 . S
C324 O342 1.254 . S
N325 C326 1.333 . S
N325 C330 1.307 . S
N325 Zn331 2.020 . S
C326 N325 1.333 . S
C326 C327 1.379 . S
C326 H344 0.952 . S
C327 C326 1.379 . S
C327 C328 1.390 . S
C327 H354 0.949 . S
C328 C327 1.390 . S
C328 C329 1.357 . S
C329 C328 1.357 . S
C329 C330 1.370 . S
C329 H355 0.950 . S
C330 N325 1.307 . S
C330 C329 1.370 . S
C330 H348 0.948 . S
Zn331 N325 2.020 . S
Zn331 O340 2.039 . S
Zn331 O346 2.034 . S
Zn331 O350 2.025 . S
Zn331 O352 2.024 . S
C332 O351 1.246 . S
C332 O352 1.249 . S
N333 C334 1.307 . S
N333 C335 1.333 . S
N333 Zn339 2.020 . S
C334 N333 1.307 . S
C334 C338 1.370 . S
C334 H345 0.948 . S
C335 N333 1.333 . S
C335 C336 1.379 . S
C335 H343 0.952 . S
C336 C335 1.379 . S
C336 C337 1.390 . S
C336 H356 0.949 . S
C337 C336 1.390 . S
C337 C338 1.357 . S
C338 C334 1.370 . S
C338 C337 1.357 . S
C338 H357 0.950 . S
Zn339 N333 2.020 . S
Zn339 O342 2.025 . S
Zn339 O347 2.024 . S
Zn339 O349 2.039 . S
Zn339 O351 2.034 . S
O340 C324 1.251 . S
O340 Zn331 2.039 . S
C341 O346 1.246 . S
C341 O347 1.249 . S
O342 C324 1.254 . S
O342 Zn339 2.025 . S
H343 C335 0.952 . S
H344 C326 0.952 . S
H345 C334 0.948 . S
O346 Zn331 2.034 . S
O346 C341 1.246 . S
O347 Zn339 2.024 . S
O347 C341 1.249 . S
H348 C330 0.948 . S
O349 Zn339 2.039 . S
O349 C353 1.251 . S
O350 Zn331 2.025 . S
O350 C353 1.254 . S
O351 C332 1.246 . S
O351 Zn339 2.034 . S
O352 Zn331 2.024 . S
O352 C332 1.249 . S
C353 O349 1.251 . S
C353 O350 1.254 . S
H354 C327 0.949 . S
H355 C329 0.950 . S
H356 C336 0.949 . S
H357 C338 0.950 . S
C358 O374 1.251 . S
C358 O376 1.254 . S
N359 C360 1.333 . S
N359 C364 1.307 . S
N359 Zn365 2.020 . S
C360 N359 1.333 . S
C360 C361 1.379 . S
C360 H378 0.952 . S
C361 C360 1.379 . S
C361 C362 1.390 . S
C361 H388 0.949 . S
C362 C361 1.390 . S
C362 C363 1.357 . S
C363 C362 1.357 . S
C363 C364 1.370 . S
C363 H389 0.950 . S
C364 N359 1.307 . S
C364 C363 1.370 . S
C364 H382 0.948 . S
Zn365 N359 2.020 . S
Zn365 O374 2.039 . S
Zn365 O380 2.034 . S
Zn365 O384 2.025 . S
Zn365 O386 2.024 . S
C366 O385 1.246 . S
C366 O386 1.249 . S
N367 C368 1.307 . S
N367 C369 1.351 . S
N367 Zn373 2.020 . S
C368 N367 1.307 . S
C368 C372 1.370 . S
C368 H379 0.948 . S
C369 N367 1.351 . S
C369 C370 1.369 1_455 S
C369 H377 0.945 1_455 S
C370 C369 1.369 1_655 S
C370 C371 1.395 . S
C370 H390 0.949 . S
C371 C370 1.395 . S
C371 C372 1.345 1_655 S
C372 C368 1.370 . S
C372 C371 1.345 1_455 S
C372 H391 0.950 . S
Zn373 N367 2.020 . S
Zn373 O376 2.025 . S
Zn373 O381 2.024 1_455 S
Zn373 O383 2.039 1_455 S
Zn373 O385 2.034 . S
O374 C358 1.251 . S
O374 Zn365 2.039 . S
C375 O380 1.246 1_655 S
C375 O381 1.249 . S
O376 C358 1.254 . S
O376 Zn373 2.025 . S
H377 C369 0.945 1_655 S
H378 C360 0.952 . S
H379 C368 0.948 . S
O380 Zn365 2.034 . S
O380 C375 1.246 1_455 S
O381 Zn373 2.024 1_655 S
O381 C375 1.249 . S
H382 C364 0.948 . S
O383 Zn373 2.039 1_655 S
O383 C387 1.251 . S
O384 Zn365 2.025 . S
O384 C387 1.254 1_455 S
O385 C366 1.246 . S
O385 Zn373 2.034 . S
O386 Zn365 2.024 . S
O386 C366 1.249 . S
C387 O383 1.251 . S
C387 O384 1.254 1_655 S
H388 C361 0.949 . S
H389 C363 0.950 . S
H390 C370 0.949 . S
H391 C372 0.950 . S
H392 C400 0.929 . S
H393 C402 0.930 . S
H394 C404 0.930 . S
H395 C407 0.929 . S
H396 C410 0.930 . S
H397 C412 0.960 . S
H398 C412 0.960 . S
H399 C412 0.960 . S
C400 H392 0.929 . S
C400 C401 1.369 1_545 S
C400 C402 1.384 . S
C401 C400 1.369 1_565 S
C401 C407 1.398 . S
C402 H393 0.930 . S
C402 C400 1.384 . S
C402 C403 1.372 1_545 S
C403 C402 1.372 1_565 S
C403 C404 1.400 . S
C403 C408 1.490 . S
C404 H394 0.930 . S
C404 C403 1.400 . S
C404 C407 1.386 . S
H405 C421 0.930 . S
H406 C422 0.931 . S
C407 H395 0.929 . S
C407 C401 1.398 . S
C407 C404 1.386 . S
C408 C403 1.490 . S
C408 C410 1.395 1_565 S
C408 C411 1.403 . S
H409 C415 0.930 . S
C410 H396 0.930 . S
C410 C408 1.395 1_545 S
C410 C413 1.403 . S
C411 C408 1.403 . S
C411 C412 1.524 . S
C411 C415 1.400 . S
C412 H397 0.960 . S
C412 H398 0.960 . S
C412 H399 0.960 . S
C412 C411 1.524 . S
C413 C410 1.403 . S
C413 C414 1.370 1_545 S
C413 C417 1.495 . S
C414 C413 1.370 1_565 S
C414 C415 1.409 . S
C414 C416 1.477 . S
C415 H409 0.930 . S
C415 C411 1.400 . S
C415 C414 1.409 . S
C416 C414 1.477 . S
C416 C418 1.377 1_565 S
C416 C422 1.383 . S
C417 C413 1.495 . S
C417 H423 0.959 . S
C417 H424 0.961 . S
C417 H425 0.960 . S
C418 C416 1.377 1_545 S
C418 C419 1.393 1_545 S
C418 H426 0.936 . S
C419 C418 1.393 1_565 S
C419 C420 1.383 . S
C419 H427 0.933 . S
C420 C419 1.383 . S
C420 C421 1.377 . S
C421 H405 0.930 . S
C421 C420 1.377 . S
C421 C422 1.379 . S
C422 H406 0.931 . S
C422 C416 1.383 . S
C422 C421 1.379 . S
H423 C417 0.959 . S
H424 C417 0.961 . S
H425 C417 0.960 . S
H426 C418 0.936 . S
H427 C419 0.933 . S
H428 C436 0.929 . S
H429 C438 0.930 . S
H430 C440 0.930 . S
H431 C443 0.929 . S
H432 C446 0.930 . S
H433 C448 0.960 . S
H434 C448 0.960 . S
H435 C448 0.960 . S
C436 H428 0.929 . S
C436 C437 1.377 . S
C436 C438 1.384 . S
C437 C436 1.377 . S
C437 C443 1.390 . S
C438 H429 0.930 . S
C438 C436 1.384 . S
C438 C439 1.372 . S
C439 C438 1.372 . S
C439 C440 1.400 . S
C439 C444 1.490 . S
C440 H430 0.930 . S
C440 C439 1.400 . S
C440 C443 1.386 . S
H441 C457 0.930 . S
H442 C458 0.931 . S
C443 H431 0.929 . S
C443 C437 1.390 . S
C443 C440 1.386 . S
C444 C439 1.490 . S
C444 C446 1.395 . S
C444 C447 1.403 . S
H445 C451 0.930 . S
C446 H432 0.930 . S
C446 C444 1.395 . S
C446 C449 1.403 . S
C447 C444 1.403 . S
C447 C448 1.524 . S
C447 C451 1.400 . S
C448 H433 0.960 . S
C448 H434 0.960 . S
C448 H435 0.960 . S
C448 C447 1.524 . S
C449 C446 1.403 . S
C449 C450 1.392 . S
C449 C453 1.495 . S
C450 C449 1.392 . S
C450 C451 1.385 . S
C450 C452 1.478 . S
C451 H445 0.930 . S
C451 C447 1.400 . S
C451 C450 1.385 . S
C452 C450 1.478 . S
C452 C454 1.381 . S
C452 C458 1.383 . S
C453 C449 1.495 . S
C453 H459 0.959 . S
C453 H460 0.961 . S
C453 H461 0.960 . S
C454 C452 1.381 . S
C454 C455 1.394 . S
C454 H462 0.930 . S
C455 C454 1.394 . S
C455 C456 1.383 . S
C455 H463 0.929 . S
C456 C455 1.383 . S
C456 C457 1.377 . S
C457 H441 0.930 . S
C457 C456 1.377 . S
C457 C458 1.379 . S
C458 H442 0.931 . S
C458 C452 1.383 . S
C458 C457 1.379 . S
H459 C453 0.959 . S
H460 C453 0.961 . S
H461 C453 0.960 . S
H462 C454 0.930 . S
H463 C455 0.929 . S
H464 C472 0.929 . S
H465 C474 0.930 . S
H466 C476 0.930 . S
H467 C479 0.929 . S
H468 C482 0.930 . S
H469 C484 0.960 . S
H470 C484 0.960 . S
H471 C484 0.960 . S
C472 H464 0.929 . S
C472 C473 1.377 . S
C472 C474 1.384 . S
C473 C472 1.377 . S
C473 C479 1.390 . S
C474 H465 0.930 . S
C474 C472 1.384 . S
C474 C475 1.372 . S
C475 C474 1.372 . S
C475 C476 1.400 . S
C475 C480 1.490 . S
C476 H466 0.930 . S
C476 C475 1.400 . S
C476 C479 1.386 . S
H477 C493 0.930 . S
H478 C494 0.931 . S
C479 H467 0.929 . S
C479 C473 1.390 . S
C479 C476 1.386 . S
C480 C475 1.490 . S
C480 C482 1.395 . S
C480 C483 1.403 . S
H481 C487 0.930 . S
C482 H468 0.930 . S
C482 C480 1.395 . S
C482 C485 1.403 . S
C483 C480 1.403 . S
C483 C484 1.524 . S
C483 C487 1.400 . S
C484 H469 0.960 . S
C484 H470 0.960 . S
C484 H471 0.960 . S
C484 C483 1.524 . S
C485 C482 1.403 . S
C485 C486 1.392 . S
C485 C489 1.495 . S
C486 C485 1.392 . S
C486 C487 1.385 . S
C486 C488 1.478 . S
C487 H481 0.930 . S
C487 C483 1.400 . S
C487 C486 1.385 . S
C488 C486 1.478 . S
C488 C490 1.381 . S
C488 C494 1.383 . S
C489 C485 1.495 . S
C489 H495 0.959 . S
C489 H496 0.961 . S
C489 H497 0.960 . S
C490 C488 1.381 . S
C490 C491 1.394 . S
C490 H498 0.930 . S
C491 C490 1.394 . S
C491 C492 1.383 . S
C491 H499 0.929 . S
C492 C491 1.383 . S
C492 C493 1.377 . S
C493 H477 0.930 . S
C493 C492 1.377 . S
C493 C494 1.379 . S
C494 H478 0.931 . S
C494 C488 1.383 . S
C494 C493 1.379 . S
H495 C489 0.959 . S
H496 C489 0.961 . S
H497 C489 0.960 . S
H498 C490 0.930 . S
H499 C491 0.929 . S
H500 C508 0.929 . S
H501 C510 0.930 . S
H502 C512 0.930 . S
H503 C515 0.929 . S
H504 C518 0.930 . S
H505 C520 0.960 . S
H506 C520 0.960 . S
H507 C520 0.960 . S
C508 H500 0.929 . S
C508 C509 1.377 . S
C508 C510 1.384 . S
C509 C508 1.377 . S
C509 C515 1.390 . S
C510 H501 0.930 . S
C510 C508 1.384 . S
C510 C511 1.372 . S
C511 C510 1.372 . S
C511 C512 1.400 . S
C511 C516 1.490 . S
C512 H502 0.930 . S
C512 C511 1.400 . S
C512 C515 1.386 . S
H513 C529 0.930 . S
H514 C530 0.931 . S
C515 H503 0.929 . S
C515 C509 1.390 . S
C515 C512 1.386 . S
C516 C511 1.490 . S
C516 C518 1.395 . S
C516 C519 1.403 . S
H517 C523 0.930 . S
C518 H504 0.930 . S
C518 C516 1.395 . S
C518 C521 1.403 . S
C519 C516 1.403 . S
C519 C520 1.524 . S
C519 C523 1.400 . S
C520 H505 0.960 . S
C520 H506 0.960 . S
C520 H507 0.960 . S
C520 C519 1.524 . S
C521 C518 1.403 . S
C521 C522 1.392 . S
C521 C525 1.495 . S
C522 C521 1.392 . S
C522 C523 1.385 . S
C522 C524 1.478 . S
C523 H517 0.930 . S
C523 C519 1.400 . S
C523 C522 1.385 . S
C524 C522 1.478 . S
C524 C526 1.381 . S
C524 C530 1.383 . S
C525 C521 1.495 . S
C525 H531 0.959 . S
C525 H532 0.961 . S
C525 H533 0.960 . S
C526 C524 1.381 . S
C526 C527 1.394 . S
C526 H534 0.930 . S
C527 C526 1.394 . S
C527 C528 1.383 . S
C527 H535 0.929 . S
C528 C527 1.383 . S
C528 C529 1.377 . S
C529 H513 0.930 . S
C529 C528 1.377 . S
C529 C530 1.379 . S
C530 H514 0.931 . S
C530 C524 1.383 . S
C530 C529 1.379 . S
H531 C525 0.959 . S
H532 C525 0.961 . S
H533 C525 0.960 . S
H534 C526 0.930 . S
H535 C527 0.929 . S
H536 C544 0.929 1_554 S
H537 C546 0.930 . S
H538 C548 0.930 . S
H539 C551 0.929 . S
H540 C554 0.930 . S
H541 C556 0.960 . S
H542 C556 0.960 . S
H543 C556 0.960 . S
C544 H536 0.929 1_556 S
C544 C545 1.359 1_565 S
C544 C546 1.384 . S
C545 C544 1.359 1_545 S
C545 C551 1.418 . S
C546 H537 0.930 . S
C546 C544 1.384 . S
C546 C547 1.372 1_565 S
C547 C546 1.372 1_545 S
C547 C548 1.400 . S
C547 C552 1.490 . S
C548 H538 0.930 . S
C548 C547 1.400 . S
C548 C551 1.386 . S
H549 C565 0.930 . S
H550 C566 0.931 . S
C551 H539 0.929 . S
C551 C545 1.418 . S
C551 C548 1.386 . S
C552 C547 1.490 . S
C552 C554 1.395 1_545 S
C552 C555 1.403 . S
H553 C559 0.930 . S
C554 H540 0.930 . S
C554 C552 1.395 1_565 S
C554 C557 1.403 . S
C555 C552 1.403 . S
C555 C556 1.524 . S
C555 C559 1.400 . S
C556 H541 0.960 . S
C556 H542 0.960 . S
C556 H543 0.960 . S
C556 C555 1.524 . S
C557 C554 1.403 . S
C557 C558 1.392 1_565 S
C557 C561 1.495 . S
C558 C557 1.392 1_545 S
C558 C559 1.385 . S
C558 C560 1.478 . S
C559 H553 0.930 . S
C559 C555 1.400 . S
C559 C558 1.385 . S
C560 C558 1.478 . S
C560 C562 1.381 1_545 S
C560 C566 1.383 . S
C561 C557 1.495 . S
C561 H567 0.959 . S
C561 H568 0.961 . S
C561 H569 0.960 . S
C562 C560 1.381 1_565 S
C562 C563 1.394 . S
C562 H570 0.930 . S
C563 C562 1.394 . S
C563 C564 1.383 1_565 S
C563 H571 0.929 . S
C564 C563 1.383 1_545 S
C564 C565 1.377 . S
C565 H549 0.930 . S
C565 C564 1.377 . S
C565 C566 1.379 . S
C566 H550 0.931 . S
C566 C560 1.383 . S
C566 C565 1.379 . S
H567 C561 0.959 . S
H568 C561 0.961 . S
H569 C561 0.960 . S
H570 C562 0.930 . S
H571 C563 0.929 . S
H572 C580 0.929 . S
H573 C582 0.930 . S
H574 C584 0.930 . S
H575 C587 0.929 . S
H576 C590 0.930 . S
H577 C592 0.960 . S
H578 C592 0.960 . S
H579 C592 0.960 . S
C580 H572 0.929 . S
C580 C581 1.377 . S
C580 C582 1.384 . S
C581 C580 1.377 . S
C581 C587 1.390 1_554 S
C582 H573 0.930 . S
C582 C580 1.384 . S
C582 C583 1.372 1_554 S
C583 C582 1.372 1_556 S
C583 C584 1.400 . S
C583 C588 1.490 . S
C584 H574 0.930 . S
C584 C583 1.400 . S
C584 C587 1.386 . S
H585 C601 0.930 . S
H586 C602 0.931 . S
C587 H575 0.929 . S
C587 C581 1.390 1_556 S
C587 C584 1.386 . S
C588 C583 1.490 . S
C588 C590 1.395 . S
C588 C591 1.403 . S
H589 C595 0.930 . S
C590 H576 0.930 . S
C590 C588 1.395 . S
C590 C593 1.403 . S
C591 C588 1.403 . S
C591 C592 1.524 . S
C591 C595 1.400 . S
C592 H577 0.960 . S
C592 H578 0.960 . S
C592 H579 0.960 . S
C592 C591 1.524 . S
C593 C590 1.403 . S
C593 C594 1.392 . S
C593 C597 1.495 . S
C594 C593 1.392 . S
C594 C595 1.385 . S
C594 C596 1.478 . S
C595 H589 0.930 . S
C595 C591 1.400 . S
C595 C594 1.385 . S
C596 C594 1.478 . S
C596 C598 1.381 . S
C596 C602 1.383 . S
C597 C593 1.495 . S
C597 H603 0.959 . S
C597 H604 0.961 . S
C597 H605 0.960 . S
C598 C596 1.381 . S
C598 C599 1.394 . S
C598 H606 0.930 . S
C599 C598 1.394 . S
C599 C600 1.383 . S
C599 H607 0.929 . S
C600 C599 1.383 . S
C600 C601 1.377 . S
C601 H585 0.930 . S
C601 C600 1.377 . S
C601 C602 1.379 . S
C602 H586 0.931 . S
C602 C596 1.383 . S
C602 C601 1.379 . S
H603 C597 0.959 . S
H604 C597 0.961 . S
H605 C597 0.960 . S
H606 C598 0.930 . S
H607 C599 0.929 . S
H608 C616 0.933 . S
H609 C618 0.930 . S
H610 C620 0.930 . S
H611 C623 0.929 . S
H612 C626 0.930 . S
H613 C628 0.960 . S
H614 C628 0.960 . S
H615 C628 0.960 . S
C616 H608 0.933 . S
C616 C617 1.377 . S
C616 C618 1.384 1_554 S
C617 C616 1.377 . S
C617 C623 1.390 . S
C618 H609 0.930 . S
C618 C616 1.384 1_556 S
C618 C619 1.372 . S
C619 C618 1.372 . S
C619 C620 1.400 1_556 S
C619 C624 1.490 . S
C620 H610 0.930 . S
C620 C619 1.400 1_554 S
C620 C623 1.386 . S
H621 C637 0.930 . S
H622 C638 0.931 . S
C623 H611 0.929 . S
C623 C617 1.390 . S
C623 C620 1.386 . S
C624 C619 1.490 . S
C624 C626 1.395 . S
C624 C627 1.403 . S
H625 C631 0.930 . S
C626 H612 0.930 . S
C626 C624 1.395 . S
C626 C629 1.403 . S
C627 C624 1.403 . S
C627 C628 1.524 . S
C627 C631 1.400 . S
C628 H613 0.960 . S
C628 H614 0.960 . S
C628 H615 0.960 . S
C628 C627 1.524 . S
C629 C626 1.403 . S
C629 C630 1.392 . S
C629 C633 1.495 . S
C630 C629 1.392 . S
C630 C631 1.385 . S
C630 C632 1.478 . S
C631 H625 0.930 . S
C631 C627 1.400 . S
C631 C630 1.385 . S
C632 C630 1.478 . S
C632 C634 1.381 . S
C632 C638 1.383 . S
C633 C629 1.495 . S
C633 H639 0.959 . S
C633 H640 0.961 . S
C633 H641 0.960 . S
C634 C632 1.381 . S
C634 C635 1.394 . S
C634 H642 0.930 . S
C635 C634 1.394 . S
C635 C636 1.383 . S
C635 H643 0.929 . S
C636 C635 1.383 . S
C636 C637 1.377 . S
C637 H621 0.930 . S
C637 C636 1.377 . S
C637 C638 1.379 . S
C638 H622 0.931 . S
C638 C632 1.383 . S
C638 C637 1.379 . S
H639 C633 0.959 . S
H640 C633 0.961 . S
H641 C633 0.960 . S
H642 C634 0.930 . S
H643 C635 0.929 . S
H644 C652 0.929 . S
H645 C654 0.930 . S
H646 C656 0.930 . S
H647 C659 0.929 1_554 S
H648 C662 0.930 . S
H649 C664 0.960 . S
H650 C664 0.960 . S
H651 C664 0.960 . S
C652 H644 0.929 . S
C652 C653 1.377 . S
C652 C654 1.384 . S
C653 C652 1.377 . S
C653 C659 1.390 . S
C654 H645 0.930 . S
C654 C652 1.384 . S
C654 C655 1.372 . S
C655 C654 1.372 . S
C655 C656 1.400 . S
C655 C660 1.490 . S
C656 H646 0.930 . S
C656 C655 1.400 . S
C656 C659 1.386 . S
H657 C673 0.930 . S
H658 C674 0.931 . S
C659 H647 0.929 1_556 S
C659 C653 1.390 . S
C659 C656 1.386 . S
C660 C655 1.490 . S
C660 C662 1.395 . S
C660 C663 1.403 . S
H661 C667 0.930 . S
C662 H648 0.930 . S
C662 C660 1.395 . S
C662 C665 1.403 . S
C663 C660 1.403 . S
C663 C664 1.524 . S
C663 C667 1.400 . S
C664 H649 0.960 . S
C664 H650 0.960 . S
C664 H651 0.960 . S
C664 C663 1.524 . S
C665 C662 1.403 . S
C665 C666 1.392 . S
C665 C669 1.495 1_655 S
C666 C665 1.392 . S
C666 C667 1.385 . S
C666 C668 1.478 . S
C667 H661 0.930 . S
C667 C663 1.400 . S
C667 C666 1.385 . S
C668 C666 1.478 . S
C668 C670 1.381 . S
C668 C674 1.383 . S
C669 C665 1.495 1_455 S
C669 H675 0.959 . S
C669 H676 0.961 . S
C669 H677 0.960 . S
C670 C668 1.381 . S
C670 C671 1.394 . S
C670 H678 0.930 . S
C671 C670 1.394 . S
C671 C672 1.383 . S
C671 H679 0.929 . S
C672 C671 1.383 . S
C672 C673 1.377 . S
C673 H657 0.930 . S
C673 C672 1.377 . S
C673 C674 1.379 . S
C674 H658 0.931 . S
C674 C668 1.383 . S
C674 C673 1.379 . S
H675 C669 0.959 . S
H676 C669 0.961 . S
H677 C669 0.960 . S
H678 C670 0.930 . S
H679 C671 0.929 . S
H680 C688 0.929 . S
H681 C690 0.930 . S
H682 C692 0.930 . S
H683 C695 0.929 . S
H684 C698 0.930 . S
H685 C700 0.960 . S
H686 C700 0.960 . S
H687 C700 0.960 . S
C688 H680 0.929 . S
C688 C689 1.377 . S
C688 C690 1.384 . S
C689 C688 1.377 . S
C689 C695 1.390 . S
C690 H681 0.930 . S
C690 C688 1.384 . S
C690 C691 1.372 . S
C691 C690 1.372 . S
C691 C692 1.400 . S
C691 C696 1.490 . S
C692 H682 0.930 . S
C692 C691 1.400 . S
C692 C695 1.386 . S
H693 C709 0.930 . S
H694 C710 0.931 . S
C695 H683 0.929 . S
C695 C689 1.390 . S
C695 C692 1.386 . S
C696 C691 1.490 . S
C696 C698 1.395 . S
C696 C699 1.403 . S
H697 C703 0.930 . S
C698 H684 0.930 . S
C698 C696 1.395 . S
C698 C701 1.403 . S
C699 C696 1.403 . S
C699 C700 1.524 . S
C699 C703 1.400 . S
C700 H685 0.960 . S
C700 H686 0.960 . S
C700 H687 0.960 . S
C700 C699 1.524 . S
C701 C698 1.403 . S
C701 C702 1.392 . S
C701 C705 1.495 . S
C702 C701 1.392 . S
C702 C703 1.385 . S
C702 C704 1.478 . S
C703 H697 0.930 . S
C703 C699 1.400 . S
C703 C702 1.385 . S
C704 C702 1.478 . S
C704 C706 1.381 . S
C704 C710 1.383 . S
C705 C701 1.495 . S
C705 H711 0.959 . S
C705 H712 0.961 . S
C705 H713 0.960 . S
C706 C704 1.381 . S
C706 C707 1.394 . S
C706 H714 0.930 . S
C707 C706 1.394 . S
C707 C708 1.383 . S
C707 H715 0.929 . S
C708 C707 1.383 . S
C708 C709 1.377 . S
C709 H693 0.930 . S
C709 C708 1.377 . S
C709 C710 1.379 . S
C710 H694 0.931 . S
C710 C704 1.383 . S
C710 C709 1.379 . S
H711 C705 0.959 . S
H712 C705 0.961 . S
H713 C705 0.960 . S
H714 C706 0.930 . S
H715 C707 0.929 . S
H716 C724 0.929 . S
H717 C726 0.930 . S
H718 C728 0.930 . S
H719 C731 0.929 . S
H720 C734 0.930 . S
H721 C736 0.960 . S
H722 C736 0.960 . S
H723 C736 0.960 . S
C724 H716 0.929 . S
C724 C725 1.406 . S
C724 C726 1.384 . S
C725 C724 1.406 . S
C725 C731 1.360 1_545 S
C726 H717 0.930 . S
C726 C724 1.384 . S
C726 C727 1.342 1_545 S
C727 C726 1.342 1_565 S
C727 C728 1.428 . S
C727 C732 1.495 . S
C728 H718 0.930 . S
C728 C727 1.428 . S
C728 C731 1.386 . S
H729 C745 0.930 . S
H730 C746 0.931 . S
C731 H719 0.929 . S
C731 C725 1.360 1_565 S
C731 C728 1.386 . S
C732 C727 1.495 . S
C732 C734 1.395 . S
C732 C735 1.403 1_565 S
H733 C739 0.930 . S
C734 H720 0.930 . S
C734 C732 1.395 . S
C734 C737 1.403 . S
C735 C732 1.403 1_545 S
C735 C736 1.524 . S
C735 C739 1.400 . S
C736 H721 0.960 . S
C736 H722 0.960 . S
C736 H723 0.960 . S
C736 C735 1.524 . S
C737 C734 1.403 . S
C737 C738 1.392 . S
C737 C741 1.495 . S
C738 C737 1.392 . S
C738 C739 1.385 1_565 S
C738 C740 1.478 . S
C739 H733 0.930 . S
C739 C735 1.400 . S
C739 C738 1.385 1_545 S
C740 C738 1.478 . S
C740 C742 1.381 1_565 S
C740 C746 1.383 . S
C741 C737 1.495 . S
C741 H747 0.959 . S
C741 H748 0.961 . S
C741 H749 0.960 . S
C742 C740 1.381 1_545 S
C742 C743 1.394 . S
C742 H750 0.930 . S
C743 C742 1.394 . S
C743 C744 1.383 1_545 S
C743 H751 0.929 . S
C744 C743 1.383 1_565 S
C744 C745 1.377 . S
C745 H729 0.930 . S
C745 C744 1.377 . S
C745 C746 1.379 . S
C746 H730 0.931 . S
C746 C740 1.383 . S
C746 C745 1.379 . S
H747 C741 0.959 . S
H748 C741 0.961 . S
H749 C741 0.960 . S
H750 C742 0.930 . S
H751 C743 0.929 . S
H752 C760 0.929 . S
H753 C762 0.930 . S
H754 C764 0.930 . S
H755 C767 0.929 . S
H756 C770 0.930 . S
H757 C772 0.960 . S
H758 C772 0.960 . S
H759 C772 0.960 . S
C760 H752 0.929 . S
C760 C761 1.377 . S
C760 C762 1.384 . S
C761 C760 1.377 . S
C761 C767 1.390 . S
C762 H753 0.930 . S
C762 C760 1.384 . S
C762 C763 1.372 . S
C763 C762 1.372 . S
C763 C764 1.400 . S
C763 C768 1.490 . S
C764 H754 0.930 . S
C764 C763 1.400 . S
C764 C767 1.386 . S
H765 C781 0.930 . S
H766 C782 0.931 . S
C767 H755 0.929 . S
C767 C761 1.390 . S
C767 C764 1.386 . S
C768 C763 1.490 . S
C768 C770 1.395 . S
C768 C771 1.403 . S
H769 C775 0.930 . S
C770 H756 0.930 . S
C770 C768 1.395 . S
C770 C773 1.403 . S
C771 C768 1.403 . S
C771 C772 1.524 . S
C771 C775 1.400 . S
C772 H757 0.960 . S
C772 H758 0.960 . S
C772 H759 0.960 . S
C772 C771 1.524 . S
C773 C770 1.403 . S
C773 C774 1.392 . S
C773 C777 1.495 . S
C774 C773 1.392 . S
C774 C775 1.385 . S
C774 C776 1.478 . S
C775 H769 0.930 . S
C775 C771 1.400 . S
C775 C774 1.385 . S
C776 C774 1.478 . S
C776 C778 1.381 . S
C776 C782 1.383 . S
C777 C773 1.495 . S
C777 H783 0.959 . S
C777 H784 0.961 . S
C777 H785 0.960 . S
C778 C776 1.381 . S
C778 C779 1.394 . S
C778 H786 0.930 . S
C779 C778 1.394 . S
C779 C780 1.383 . S
C779 H787 0.929 . S
C780 C779 1.383 . S
C780 C781 1.377 . S
C781 H765 0.930 . S
C781 C780 1.377 . S
C781 C782 1.379 . S
C782 H766 0.931 . S
C782 C776 1.383 . S
C782 C781 1.379 . S
H783 C777 0.959 . S
H784 C777 0.961 . S
H785 C777 0.960 . S
H786 C778 0.930 . S
H787 C779 0.929 . S
H788 C796 0.929 . S
H789 C798 0.930 . S
H790 C800 0.930 . S
H791 C803 0.929 . S
H792 C806 0.930 . S
H793 C808 0.960 . S
H794 C808 0.960 . S
H795 C808 0.960 . S
C796 H788 0.929 . S
C796 C797 1.377 . S
C796 C798 1.384 . S
C797 C796 1.377 . S
C797 C803 1.390 . S
C798 H789 0.930 . S
C798 C796 1.384 . S
C798 C799 1.372 . S
C799 C798 1.372 . S
C799 C800 1.400 . S
C799 C804 1.490 . S
C800 H790 0.930 . S
C800 C799 1.400 . S
C800 C803 1.386 . S
H801 C817 0.930 . S
H802 C818 0.931 . S
C803 H791 0.929 . S
C803 C797 1.390 . S
C803 C800 1.386 . S
C804 C799 1.490 . S
C804 C806 1.395 . S
C804 C807 1.403 . S
H805 C811 0.930 . S
C806 H792 0.930 . S
C806 C804 1.395 . S
C806 C809 1.403 . S
C807 C804 1.403 . S
C807 C808 1.524 . S
C807 C811 1.400 . S
C808 H793 0.960 . S
C808 H794 0.960 . S
C808 H795 0.960 . S
C808 C807 1.524 . S
C809 C806 1.403 . S
C809 C810 1.392 . S
C809 C813 1.495 . S
C810 C809 1.392 . S
C810 C811 1.385 . S
C810 C812 1.478 . S
C811 H805 0.930 . S
C811 C807 1.400 . S
C811 C810 1.385 . S
C812 C810 1.478 . S
C812 C814 1.381 . S
C812 C818 1.383 . S
C813 C809 1.495 . S
C813 H819 0.959 . S
C813 H820 0.961 . S
C813 H821 0.960 . S
C814 C812 1.381 . S
C814 C815 1.394 . S
C814 H822 0.930 . S
C815 C814 1.394 . S
C815 C816 1.383 . S
C815 H823 0.929 . S
C816 C815 1.383 . S
C816 C817 1.377 . S
C817 H801 0.930 . S
C817 C816 1.377 . S
C817 C818 1.379 . S
C818 H802 0.931 . S
C818 C812 1.383 . S
C818 C817 1.379 . S
H819 C813 0.959 . S
H820 C813 0.961 . S
H821 C813 0.960 . S
H822 C814 0.930 . S
H823 C815 0.929 . S
H824 C832 0.929 . S
H825 C834 0.930 . S
H826 C836 0.930 . S
H827 C839 0.929 . S
H828 C842 0.930 . S
H829 C844 0.960 . S
H830 C844 0.960 . S
H831 C844 0.960 . S
C832 H824 0.929 . S
C832 C833 1.377 . S
C832 C834 1.384 . S
C833 C832 1.377 . S
C833 C839 1.390 . S
C834 H825 0.930 . S
C834 C832 1.384 . S
C834 C835 1.372 . S
C835 C834 1.372 . S
C835 C836 1.400 . S
C835 C840 1.490 . S
C836 H826 0.930 . S
C836 C835 1.400 . S
C836 C839 1.386 . S
H837 C853 0.930 1_655 S
H838 C854 0.931 . S
C839 H827 0.929 . S
C839 C833 1.390 . S
C839 C836 1.386 . S
C840 C835 1.490 . S
C840 C842 1.395 . S
C840 C843 1.403 . S
H841 C847 0.930 . S
C842 H828 0.930 . S
C842 C840 1.395 . S
C842 C845 1.403 . S
C843 C840 1.403 . S
C843 C844 1.524 . S
C843 C847 1.400 . S
C844 H829 0.960 . S
C844 H830 0.960 . S
C844 H831 0.960 . S
C844 C843 1.524 . S
C845 C842 1.403 . S
C845 C846 1.392 . S
C845 C849 1.495 . S
C846 C845 1.392 . S
C846 C847 1.385 . S
C846 C848 1.478 . S
C847 H841 0.930 . S
C847 C843 1.400 . S
C847 C846 1.385 . S
C848 C846 1.478 . S
C848 C850 1.381 1_655 S
C848 C854 1.383 . S
C849 C845 1.495 . S
C849 H855 0.959 . S
C849 H856 0.961 . S
C849 H857 0.960 . S
C850 C848 1.381 1_455 S
C850 C851 1.394 . S
C850 H858 0.930 . S
C851 C850 1.394 . S
C851 C852 1.383 . S
C851 H859 0.929 . S
C852 C851 1.383 . S
C852 C853 1.377 . S
C853 H837 0.930 1_455 S
C853 C852 1.377 . S
C853 C854 1.379 1_455 S
C854 H838 0.931 . S
C854 C848 1.383 . S
C854 C853 1.379 1_655 S
H855 C849 0.959 . S
H856 C849 0.961 . S
H857 C849 0.960 . S
H858 C850 0.930 . S
H859 C851 0.929 . S
H860 C868 0.929 1_554 S
H861 C870 0.930 . S
H862 C872 0.930 . S
H863 C875 0.929 . S
H864 C878 0.930 . S
H865 C880 0.960 . S
H866 C880 0.960 . S
H867 C880 0.960 . S
C868 H860 0.929 1_556 S
C868 C869 1.395 . S
C868 C870 1.384 . S
C869 C868 1.395 . S
C869 C875 1.371 1_565 S
C870 H861 0.930 . S
C870 C868 1.384 . S
C870 C871 1.372 1_565 S
C871 C870 1.372 1_545 S
C871 C872 1.400 . S
C871 C876 1.490 . S
C872 H862 0.930 . S
C872 C871 1.400 . S
C872 C875 1.386 . S
H873 C889 0.930 . S
H874 C890 0.931 . S
C875 H863 0.929 . S
C875 C869 1.371 1_545 S
C875 C872 1.386 . S
C876 C871 1.490 . S
C876 C878 1.395 . S
C876 C879 1.403 1_545 S
H877 C883 0.930 . S
C878 H864 0.930 . S
C878 C876 1.395 . S
C878 C881 1.403 . S
C879 C876 1.403 1_565 S
C879 C880 1.524 . S
C879 C883 1.400 . S
C880 H865 0.960 . S
C880 H866 0.960 . S
C880 H867 0.960 . S
C880 C879 1.524 . S
C881 C878 1.403 . S
C881 C882 1.392 . S
C881 C885 1.495 . S
C882 C881 1.392 . S
C882 C883 1.385 1_545 S
C882 C884 1.478 . S
C883 H877 0.930 . S
C883 C879 1.400 . S
C883 C882 1.385 1_565 S
C884 C882 1.478 . S
C884 C886 1.381 1_545 S
C884 C890 1.383 . S
C885 C881 1.495 . S
C885 H891 0.959 . S
C885 H892 0.961 . S
C885 H893 0.960 . S
C886 C884 1.381 1_565 S
C886 C887 1.394 . S
C886 H894 0.930 . S
C887 C886 1.394 . S
C887 C888 1.383 1_565 S
C887 H895 0.929 . S
C888 C887 1.383 1_545 S
C888 C889 1.377 . S
C889 H873 0.930 . S
C889 C888 1.377 . S
C889 C890 1.379 . S
C890 H874 0.931 . S
C890 C884 1.383 . S
C890 C889 1.379 . S
H891 C885 0.959 . S
H892 C885 0.961 . S
H893 C885 0.960 . S
H894 C886 0.930 . S
H895 C887 0.929 . S
H896 C904 0.929 . S
H897 C906 0.930 . S
H898 C908 0.930 . S
H899 C911 0.929 . S
H900 C914 0.930 . S
H901 C916 0.960 . S
H902 C916 0.960 . S
H903 C916 0.960 . S
C904 H896 0.929 . S
C904 C905 1.377 . S
C904 C906 1.384 . S
C905 C904 1.377 . S
C905 C911 1.390 . S
C906 H897 0.930 . S
C906 C904 1.384 . S
C906 C907 1.372 . S
C907 C906 1.372 . S
C907 C908 1.400 . S
C907 C912 1.490 . S
C908 H898 0.930 . S
C908 C907 1.400 . S
C908 C911 1.386 . S
H909 C925 0.930 . S
H910 C926 0.931 . S
C911 H899 0.929 . S
C911 C905 1.390 . S
C911 C908 1.386 . S
C912 C907 1.490 . S
C912 C914 1.395 . S
C912 C915 1.403 . S
H913 C919 0.930 . S
C914 H900 0.930 . S
C914 C912 1.395 . S
C914 C917 1.403 . S
C915 C912 1.403 . S
C915 C916 1.524 . S
C915 C919 1.400 . S
C916 H901 0.960 . S
C916 H902 0.960 . S
C916 H903 0.960 . S
C916 C915 1.524 . S
C917 C914 1.403 . S
C917 C918 1.392 . S
C917 C921 1.495 . S
C918 C917 1.392 . S
C918 C919 1.385 . S
C918 C920 1.478 . S
C919 H913 0.930 . S
C919 C915 1.400 . S
C919 C918 1.385 . S
C920 C918 1.478 . S
C920 C922 1.381 . S
C920 C926 1.383 . S
C921 C917 1.495 . S
C921 H927 0.959 . S
C921 H928 0.961 . S
C921 H929 0.960 . S
C922 C920 1.381 . S
C922 C923 1.394 . S
C922 H930 0.930 . S
C923 C922 1.394 . S
C923 C924 1.383 . S
C923 H931 0.929 . S
C924 C923 1.383 . S
C924 C925 1.377 . S
C925 H909 0.930 . S
C925 C924 1.377 . S
C925 C926 1.379 . S
C926 H910 0.931 . S
C926 C920 1.383 . S
C926 C925 1.379 . S
H927 C921 0.959 . S
H928 C921 0.961 . S
H929 C921 0.960 . S
H930 C922 0.930 . S
H931 C923 0.929 . S
H932 C940 0.929 . S
H933 C942 0.930 . S
H934 C944 0.930 . S
H935 C947 0.929 . S
H936 C950 0.930 . S
H937 C952 0.960 . S
H938 C952 0.960 . S
H939 C952 0.960 . S
C940 H932 0.929 . S
C940 C941 1.377 . S
C940 C942 1.384 1_554 S
C941 C940 1.377 . S
C941 C947 1.390 1_554 S
C942 H933 0.930 . S
C942 C940 1.384 1_556 S
C942 C943 1.372 . S
C943 C942 1.372 . S
C943 C944 1.400 . S
C943 C948 1.490 . S
C944 H934 0.930 . S
C944 C943 1.400 . S
C944 C947 1.386 . S
H945 C961 0.930 . S
H946 C962 0.931 . S
C947 H935 0.929 . S
C947 C941 1.390 1_556 S
C947 C944 1.386 . S
C948 C943 1.490 . S
C948 C950 1.395 . S
C948 C951 1.403 . S
H949 C955 0.930 . S
C950 H936 0.930 . S
C950 C948 1.395 . S
C950 C953 1.403 . S
C951 C948 1.403 . S
C951 C952 1.524 . S
C951 C955 1.400 . S
C952 H937 0.960 . S
C952 H938 0.960 . S
C952 H939 0.960 . S
C952 C951 1.524 . S
C953 C950 1.403 . S
C953 C954 1.392 . S
C953 C957 1.495 . S
C954 C953 1.392 . S
C954 C955 1.385 . S
C954 C956 1.478 . S
C955 H949 0.930 . S
C955 C951 1.400 . S
C955 C954 1.385 . S
C956 C954 1.478 . S
C956 C958 1.381 . S
C956 C962 1.383 . S
C957 C953 1.495 . S
C957 H963 0.959 . S
C957 H964 0.961 . S
C957 H965 0.960 . S
C958 C956 1.381 . S
C958 C959 1.394 . S
C958 H966 0.930 . S
C959 C958 1.394 . S
C959 C960 1.383 . S
C959 H967 0.929 . S
C960 C959 1.383 . S
C960 C961 1.377 . S
C961 H945 0.930 . S
C961 C960 1.377 . S
C961 C962 1.379 . S
C962 H946 0.931 . S
C962 C956 1.383 . S
C962 C961 1.379 . S
H963 C957 0.959 . S
H964 C957 0.961 . S
H965 C957 0.960 . S
H966 C958 0.930 . S
H967 C959 0.929 . S
H968 C976 0.929 . S
H969 C978 0.930 . S
H970 C980 0.930 . S
H971 C983 0.929 . S
H972 C986 0.930 . S
H973 C988 0.960 . S
H974 C988 0.960 . S
H975 C988 0.960 . S
C976 H968 0.929 . S
C976 C977 1.377 . S
C976 C978 1.384 . S
C977 C976 1.377 . S
C977 C983 1.390 . S
C978 H969 0.930 . S
C978 C976 1.384 . S
C978 C979 1.372 . S
C979 C978 1.372 . S
C979 C980 1.400 . S
C979 C984 1.490 . S
C980 H970 0.930 . S
C980 C979 1.400 . S
C980 C983 1.386 . S
H981 C997 0.930 . S
H982 C998 0.931 . S
C983 H971 0.929 . S
C983 C977 1.390 . S
C983 C980 1.386 . S
C984 C979 1.490 . S
C984 C986 1.395 . S
C984 C987 1.403 . S
H985 C991 0.930 . S
C986 H972 0.930 . S
C986 C984 1.395 . S
C986 C989 1.403 . S
C987 C984 1.403 . S
C987 C988 1.524 . S
C987 C991 1.400 . S
C988 H973 0.960 . S
C988 H974 0.960 . S
C988 H975 0.960 . S
C988 C987 1.524 . S
C989 C986 1.403 . S
C989 C990 1.392 . S
C989 C993 1.495 1_554 S
C990 C989 1.392 . S
C990 C991 1.385 . S
C990 C992 1.478 1_554 S
C991 H985 0.930 . S
C991 C987 1.400 . S
C991 C990 1.385 . S
C992 C990 1.478 1_556 S
C992 C994 1.381 . S
C992 C998 1.383 . S
C993 C989 1.495 1_556 S
C993 H999 0.959 . S
C993 H1000 0.961 . S
C993 H1001 0.960 . S
C994 C992 1.381 . S
C994 C995 1.394 . S
C994 H1002 0.930 1_556 S
C995 C994 1.394 . S
C995 C996 1.383 . S
C995 H1003 0.929 . S
C996 C995 1.383 . S
C996 C997 1.377 . S
C997 H981 0.930 . S
C997 C996 1.377 . S
C997 C998 1.379 . S
C998 H982 0.931 . S
C998 C992 1.383 . S
C998 C997 1.379 . S
H999 C993 0.959 . S
H1000 C993 0.961 . S
H1001 C993 0.960 . S
H1002 C994 0.930 1_554 S
H1003 C995 0.929 . S
H1004 C1012 0.929 . S
H1005 C1014 0.930 1_556 S
H1006 C1016 0.930 . S
H1007 C1019 0.929 . S
H1008 C1022 0.930 1_554 S
H1009 C1024 0.960 . S
H1010 C1024 0.960 . S
H1011 C1024 0.960 . S
C1012 H1004 0.929 . S
C1012 C1013 1.394 . S
C1012 C1014 1.384 . S
C1013 C1012 1.394 . S
C1013 C1019 1.372 1_545 S
C1014 H1005 0.930 1_554 S
C1014 C1012 1.384 . S
C1014 C1015 1.372 . S
C1015 C1014 1.372 . S
C1015 C1016 1.400 1_545 S
C1015 C1020 1.490 1_554 S
C1016 H1006 0.930 . S
C1016 C1015 1.400 1_565 S
C1016 C1019 1.386 . S
H1017 C1033 0.930 . S
H1018 C1034 0.931 . S
C1019 H1007 0.929 . S
C1019 C1013 1.372 1_565 S
C1019 C1016 1.386 . S
C1020 C1015 1.490 1_556 S
C1020 C1022 1.395 . S
C1020 C1023 1.403 1_545 S
H1021 C1027 0.930 . S
C1022 H1008 0.930 1_556 S
C1022 C1020 1.395 . S
C1022 C1025 1.403 . S
C1023 C1020 1.403 1_565 S
C1023 C1024 1.524 . S
C1023 C1027 1.400 . S
C1024 H1009 0.960 . S
C1024 H1010 0.960 . S
C1024 H1011 0.960 . S
C1024 C1023 1.524 . S
C1025 C1022 1.403 . S
C1025 C1026 1.392 . S
C1025 C1029 1.495 . S
C1026 C1025 1.392 . S
C1026 C1027 1.385 1_545 S
C1026 C1028 1.478 . S
C1027 H1021 0.930 . S
C1027 C1023 1.400 . S
C1027 C1026 1.385 1_565 S
C1028 C1026 1.478 . S
C1028 C1030 1.381 . S
C1028 C1034 1.383 1_545 S
C1029 C1025 1.495 . S
C1029 H1035 0.959 . S
C1029 H1036 0.961 . S
C1029 H1037 0.960 . S
C1030 C1028 1.381 . S
C1030 C1031 1.394 . S
C1030 H1038 0.930 . S
C1031 C1030 1.394 . S
C1031 C1032 1.383 . S
C1031 H1039 0.929 . S
C1032 C1031 1.383 . S
C1032 C1033 1.377 1_545 S
C1033 H1017 0.930 . S
C1033 C1032 1.377 1_565 S
C1033 C1034 1.379 . S
C1034 H1018 0.931 . S
C1034 C1028 1.383 1_565 S
C1034 C1033 1.379 . S
H1035 C1029 0.959 . S
H1036 C1029 0.961 . S
H1037 C1029 0.960 . S
H1038 C1030 0.930 . S
H1039 C1031 0.929 . S
H1040 C1048 0.929 . S
H1041 C1050 0.930 . S
H1042 C1052 0.930 . S
H1043 C1055 0.929 . S
H1044 C1058 0.930 . S
H1045 C1060 0.960 . S
H1046 C1060 0.960 . S
H1047 C1060 0.960 . S
C1048 H1040 0.929 . S
C1048 C1049 1.377 . S
C1048 C1050 1.384 . S
C1049 C1048 1.377 . S
C1049 C1055 1.390 . S
C1050 H1041 0.930 . S
C1050 C1048 1.384 . S
C1050 C1051 1.372 . S
C1051 C1050 1.372 . S
C1051 C1052 1.400 . S
C1051 C1056 1.490 1_554 S
C1052 H1042 0.930 . S
C1052 C1051 1.400 . S
C1052 C1055 1.386 . S
H1053 C1069 0.930 . S
H1054 C1070 0.931 . S
C1055 H1043 0.929 . S
C1055 C1049 1.390 . S
C1055 C1052 1.386 . S
C1056 C1051 1.490 1_556 S
C1056 C1058 1.395 . S
C1056 C1059 1.403 . S
H1057 C1063 0.930 . S
C1058 H1044 0.930 . S
C1058 C1056 1.395 . S
C1058 C1061 1.403 . S
C1059 C1056 1.403 . S
C1059 C1060 1.524 1_556 S
C1059 C1063 1.400 . S
C1060 H1045 0.960 . S
C1060 H1046 0.960 . S
C1060 H1047 0.960 . S
C1060 C1059 1.524 1_554 S
C1061 C1058 1.403 . S
C1061 C1062 1.392 . S
C1061 C1065 1.495 . S
C1062 C1061 1.392 . S
C1062 C1063 1.385 . S
C1062 C1064 1.478 . S
C1063 H1057 0.930 . S
C1063 C1059 1.400 . S
C1063 C1062 1.385 . S
C1064 C1062 1.478 . S
C1064 C1066 1.381 . S
C1064 C1070 1.383 . S
C1065 C1061 1.495 . S
C1065 H1071 0.959 . S
C1065 H1072 0.961 . S
C1065 H1073 0.960 . S
C1066 C1064 1.381 . S
C1066 C1067 1.394 . S
C1066 H1074 0.930 . S
C1067 C1066 1.394 . S
C1067 C1068 1.383 . S
C1067 H1075 0.929 . S
C1068 C1067 1.383 . S
C1068 C1069 1.377 . S
C1069 H1053 0.930 . S
C1069 C1068 1.377 . S
C1069 C1070 1.379 . S
C1070 H1054 0.931 . S
C1070 C1064 1.383 . S
C1070 C1069 1.379 . S
H1071 C1065 0.959 . S
H1072 C1065 0.961 . S
H1073 C1065 0.960 . S
H1074 C1066 0.930 . S
H1075 C1067 0.929 . S
H1076 C1084 0.929 . S
H1077 C1086 0.930 1_556 S
H1078 C1088 0.930 1_556 S
H1079 C1091 0.929 . S
H1080 C1094 0.930 1_554 S
H1081 C1096 0.960 . S
H1082 C1096 0.960 . S
H1083 C1096 0.960 . S
C1084 H1076 0.929 . S
C1084 C1085 1.377 . S
C1084 C1086 1.384 . S
C1085 C1084 1.377 . S
C1085 C1091 1.390 . S
C1086 H1077 0.930 1_554 S
C1086 C1084 1.384 . S
C1086 C1087 1.372 1_554 S
C1087 C1086 1.372 1_556 S
C1087 C1088 1.400 1_556 S
C1087 C1092 1.490 . S
C1088 H1078 0.930 1_554 S
C1088 C1087 1.400 1_554 S
C1088 C1091 1.386 . S
H1089 C1105 0.930 . S
H1090 C1106 0.931 . S
C1091 H1079 0.929 . S
C1091 C1085 1.390 . S
C1091 C1088 1.386 . S
C1092 C1087 1.490 . S
C1092 C1094 1.395 . S
C1092 C1095 1.403 . S
H1093 C1099 0.930 . S
C1094 H1080 0.930 1_556 S
C1094 C1092 1.395 . S
C1094 C1097 1.403 . S
C1095 C1092 1.403 . S
C1095 C1096 1.524 . S
C1095 C1099 1.400 . S
C1096 H1081 0.960 . S
C1096 H1082 0.960 . S
C1096 H1083 0.960 . S
C1096 C1095 1.524 . S
C1097 C1094 1.403 . S
C1097 C1098 1.392 . S
C1097 C1101 1.495 . S
C1098 C1097 1.392 . S
C1098 C1099 1.385 . S
C1098 C1100 1.478 . S
C1099 H1093 0.930 . S
C1099 C1095 1.400 . S
C1099 C1098 1.385 . S
C1100 C1098 1.478 . S
C1100 C1102 1.381 . S
C1100 C1106 1.383 . S
C1101 C1097 1.495 . S
C1101 H1107 0.959 1_556 S
C1101 H1108 0.961 . S
C1101 H1109 0.960 . S
C1102 C1100 1.381 . S
C1102 C1103 1.394 . S
C1102 H1110 0.930 . S
C1103 C1102 1.394 . S
C1103 C1104 1.383 . S
C1103 H1111 0.929 . S
C1104 C1103 1.383 . S
C1104 C1105 1.377 . S
C1105 H1089 0.930 . S
C1105 C1104 1.377 . S
C1105 C1106 1.379 . S
C1106 H1090 0.931 . S
C1106 C1100 1.383 . S
C1106 C1105 1.379 . S
H1107 C1101 0.959 1_554 S
H1108 C1101 0.961 . S
H1109 C1101 0.960 . S
H1110 C1102 0.930 . S
H1111 C1103 0.929 . S
H1112 C1120 0.929 . S
H1113 C1122 0.930 . S
H1114 C1124 0.930 . S
H1115 C1127 0.929 . S
H1116 C1130 0.930 . S
H1117 C1132 0.960 1_455 S
H1118 C1132 0.960 . S
H1119 C1132 0.960 . S
C1120 H1112 0.929 . S
C1120 C1121 1.377 . S
C1120 C1122 1.384 . S
C1121 C1120 1.377 . S
C1121 C1127 1.390 . S
C1122 H1113 0.930 . S
C1122 C1120 1.384 . S
C1122 C1123 1.372 . S
C1123 C1122 1.372 . S
C1123 C1124 1.400 . S
C1123 C1128 1.490 . S
C1124 H1114 0.930 . S
C1124 C1123 1.400 . S
C1124 C1127 1.386 . S
H1125 C1141 0.930 . S
H1126 C1142 0.931 . S
C1127 H1115 0.929 . S
C1127 C1121 1.390 . S
C1127 C1124 1.386 . S
C1128 C1123 1.490 . S
C1128 C1130 1.395 . S
C1128 C1131 1.403 . S
H1129 C1135 0.930 . S
C1130 H1116 0.930 . S
C1130 C1128 1.395 . S
C1130 C1133 1.403 . S
C1131 C1128 1.403 . S
C1131 C1132 1.524 . S
C1131 C1135 1.400 . S
C1132 H1117 0.960 1_655 S
C1132 H1118 0.960 . S
C1132 H1119 0.960 . S
C1132 C1131 1.524 . S
C1133 C1130 1.403 . S
C1133 C1134 1.392 . S
C1133 C1137 1.495 . S
C1134 C1133 1.392 . S
C1134 C1135 1.385 . S
C1134 C1136 1.478 . S
C1135 H1129 0.930 . S
C1135 C1131 1.400 . S
C1135 C1134 1.385 . S
C1136 C1134 1.478 . S
C1136 C1138 1.381 . S
C1136 C1142 1.383 . S
C1137 C1133 1.495 . S
C1137 H1143 0.959 . S
C1137 H1144 0.961 . S
C1137 H1145 0.960 . S
C1138 C1136 1.381 . S
C1138 C1139 1.394 . S
C1138 H1146 0.930 . S
C1139 C1138 1.394 . S
C1139 C1140 1.383 . S
C1139 H1147 0.929 . S
C1140 C1139 1.383 . S
C1140 C1141 1.377 . S
C1141 H1125 0.930 . S
C1141 C1140 1.377 . S
C1141 C1142 1.379 . S
C1142 H1126 0.931 . S
C1142 C1136 1.383 . S
C1142 C1141 1.379 . S
H1143 C1137 0.959 . S
H1144 C1137 0.961 . S
H1145 C1137 0.960 . S
H1146 C1138 0.930 . S
H1147 C1139 0.929 . S
H1148 C1156 0.929 . S
H1149 C1158 0.930 . S
H1150 C1160 0.930 . S
H1151 C1163 0.929 . S
H1152 C1166 0.930 . S
H1153 C1168 0.960 . S
H1154 C1168 0.960 . S
H1155 C1168 0.960 . S
C1156 H1148 0.929 . S
C1156 C1157 1.371 1_545 S
C1156 C1158 1.384 . S
C1157 C1156 1.371 1_565 S
C1157 C1163 1.396 . S
C1158 H1149 0.930 . S
C1158 C1156 1.384 . S
C1158 C1159 1.363 1_545 S
C1159 C1158 1.363 1_565 S
C1159 C1160 1.410 . S
C1159 C1164 1.489 . S
C1160 H1150 0.930 . S
C1160 C1159 1.410 . S
C1160 C1163 1.386 . S
H1161 C1177 0.930 . S
H1162 C1178 0.931 . S
C1163 H1151 0.929 . S
C1163 C1157 1.396 . S
C1163 C1160 1.386 . S
C1164 C1159 1.489 . S
C1164 C1166 1.399 1_565 S
C1164 C1167 1.399 . S
H1165 C1171 0.930 . S
C1166 H1152 0.930 . S
C1166 C1164 1.399 1_545 S
C1166 C1169 1.403 . S
C1167 C1164 1.399 . S
C1167 C1168 1.524 . S
C1167 C1171 1.400 . S
C1168 H1153 0.960 . S
C1168 H1154 0.960 . S
C1168 H1155 0.960 . S
C1168 C1167 1.524 . S
C1169 C1166 1.403 . S
C1169 C1170 1.392 . S
C1169 C1173 1.495 . S
C1170 C1169 1.392 . S
C1170 C1171 1.385 1_545 S
C1170 C1172 1.478 . S
C1171 H1165 0.930 . S
C1171 C1167 1.400 . S
C1171 C1170 1.385 1_565 S
C1172 C1170 1.478 . S
C1172 C1174 1.381 . S
C1172 C1178 1.383 1_545 S
C1173 C1169 1.495 . S
C1173 H1179 0.959 . S
C1173 H1180 0.961 . S
C1173 H1181 0.960 . S
C1174 C1172 1.381 . S
C1174 C1175 1.394 . S
C1174 H1182 0.930 . S
C1175 C1174 1.394 . S
C1175 C1176 1.383 1_545 S
C1175 H1183 0.929 . S
C1176 C1175 1.383 1_565 S
C1176 C1177 1.377 . S
C1177 H1161 0.930 . S
C1177 C1176 1.377 . S
C1177 C1178 1.379 . S
C1178 H1162 0.931 . S
C1178 C1172 1.383 1_565 S
C1178 C1177 1.379 . S
H1179 C1173 0.959 . S
H1180 C1173 0.961 . S
H1181 C1173 0.960 . S
H1182 C1174 0.930 . S
H1183 C1175 0.929 . S
H1184 C1192 0.929 . S
H1185 C1194 0.930 . S
H1186 C1196 0.930 . S
H1187 C1199 0.929 . S
H1188 C1202 0.930 . S
H1189 C1204 0.960 . S
H1190 C1204 0.960 . S
H1191 C1204 0.960 . S
C1192 H1184 0.929 . S
C1192 C1193 1.377 . S
C1192 C1194 1.384 . S
C1193 C1192 1.377 . S
C1193 C1199 1.390 . S
C1194 H1185 0.930 . S
C1194 C1192 1.384 . S
C1194 C1195 1.372 . S
C1195 C1194 1.372 . S
C1195 C1196 1.400 . S
C1195 C1200 1.490 . S
C1196 H1186 0.930 . S
C1196 C1195 1.400 . S
C1196 C1199 1.386 . S
H1197 C1213 0.930 . S
H1198 C1214 0.931 . S
C1199 H1187 0.929 . S
C1199 C1193 1.390 . S
C1199 C1196 1.386 . S
C1200 C1195 1.490 . S
C1200 C1202 1.395 . S
C1200 C1203 1.403 . S
H1201 C1207 0.930 . S
C1202 H1188 0.930 . S
C1202 C1200 1.395 . S
C1202 C1205 1.403 . S
C1203 C1200 1.403 . S
C1203 C1204 1.524 . S
C1203 C1207 1.400 . S
C1204 H1189 0.960 . S
C1204 H1190 0.960 . S
C1204 H1191 0.960 . S
C1204 C1203 1.524 . S
C1205 C1202 1.403 . S
C1205 C1206 1.392 . S
C1205 C1209 1.495 . S
C1206 C1205 1.392 . S
C1206 C1207 1.385 . S
C1206 C1208 1.478 . S
C1207 H1201 0.930 . S
C1207 C1203 1.400 . S
C1207 C1206 1.385 . S
C1208 C1206 1.478 . S
C1208 C1210 1.381 . S
C1208 C1214 1.383 . S
C1209 C1205 1.495 . S
C1209 H1215 0.959 . S
C1209 H1216 0.961 . S
C1209 H1217 0.960 . S
C1210 C1208 1.381 . S
C1210 C1211 1.394 . S
C1210 H1218 0.930 . S
C1211 C1210 1.394 . S
C1211 C1212 1.383 . S
C1211 H1219 0.929 . S
C1212 C1211 1.383 . S
C1212 C1213 1.377 . S
C1213 H1197 0.930 . S
C1213 C1212 1.377 . S
C1213 C1214 1.379 . S
C1214 H1198 0.931 . S
C1214 C1208 1.383 . S
C1214 C1213 1.379 . S
H1215 C1209 0.959 . S
H1216 C1209 0.961 . S
H1217 C1209 0.960 . S
H1218 C1210 0.930 . S
H1219 C1211 0.929 . S
H1220 C1228 0.929 . S
H1221 C1230 0.930 . S
H1222 C1232 0.930 . S
H1223 C1235 0.929 . S
H1224 C1238 0.930 . S
H1225 C1240 0.960 . S
H1226 C1240 0.960 . S
H1227 C1240 0.960 . S
C1228 H1220 0.929 . S
C1228 C1229 1.377 . S
C1228 C1230 1.384 . S
C1229 C1228 1.377 . S
C1229 C1235 1.390 . S
C1230 H1221 0.930 . S
C1230 C1228 1.384 . S
C1230 C1231 1.372 . S
C1231 C1230 1.372 . S
C1231 C1232 1.400 . S
C1231 C1236 1.490 . S
C1232 H1222 0.930 . S
C1232 C1231 1.400 . S
C1232 C1235 1.386 . S
H1233 C1249 0.930 . S
H1234 C1250 0.931 . S
C1235 H1223 0.929 . S
C1235 C1229 1.390 . S
C1235 C1232 1.386 . S
C1236 C1231 1.490 . S
C1236 C1238 1.395 . S
C1236 C1239 1.403 . S
H1237 C1243 0.930 . S
C1238 H1224 0.930 . S
C1238 C1236 1.395 . S
C1238 C1241 1.403 . S
C1239 C1236 1.403 . S
C1239 C1240 1.524 . S
C1239 C1243 1.400 . S
C1240 H1225 0.960 . S
C1240 H1226 0.960 . S
C1240 H1227 0.960 . S
C1240 C1239 1.524 . S
C1241 C1238 1.403 . S
C1241 C1242 1.392 . S
C1241 C1245 1.495 . S
C1242 C1241 1.392 . S
C1242 C1243 1.385 . S
C1242 C1244 1.478 . S
C1243 H1237 0.930 . S
C1243 C1239 1.400 . S
C1243 C1242 1.385 . S
C1244 C1242 1.478 . S
C1244 C1246 1.381 . S
C1244 C1250 1.383 . S
C1245 C1241 1.495 . S
C1245 H1251 0.959 . S
C1245 H1252 0.961 . S
C1245 H1253 0.960 . S
C1246 C1244 1.381 . S
C1246 C1247 1.394 . S
C1246 H1254 0.930 . S
C1247 C1246 1.394 . S
C1247 C1248 1.383 . S
C1247 H1255 0.929 . S
C1248 C1247 1.383 . S
C1248 C1249 1.377 . S
C1249 H1233 0.930 . S
C1249 C1248 1.377 . S
C1249 C1250 1.379 . S
C1250 H1234 0.931 . S
C1250 C1244 1.383 . S
C1250 C1249 1.379 . S
H1251 C1245 0.959 . S
H1252 C1245 0.961 . S
H1253 C1245 0.960 . S
H1254 C1246 0.930 . S
H1255 C1247 0.929 . S
C401 C215 1.767 1_565 S
C420 C273 1.795 . S
C456 C294 1.604 . S
C437 C247 1.606 . S
C492 C328 1.339 . S
C473 C151 1.306 . S
C528 C362 1.602 . S
C509 C183 1.609 . S
C564 C264 1.803 . S
C545 C87 1.758 1_556 S
C581 C119 1.526 . S
C600 C303 1.604 . S
C617 C23 1.352 . S
C636 C337 1.355 . S
C653 C55 1.521 . S
C672 C371 1.618 . S
C708 C285 0.335 . S
C689 C189 0.325 . S
C744 C290 0.247 . S
C725 C221 0.335 . S
C780 C324 0.327 . S
C761 C253 0.265 . S
C797 C157 0.542 . S
C816 C358 0.190 . S
C833 C61 0.822 . S
C852 C256 0.374 . S
C888 C319 0.283 . S
C869 C93 0.335 1_565 S
C924 C353 0.323 . S
C905 C125 0.519 . S
C941 C29 0.223 . S
C960 C387 0.208 . S
C977 C177 1.503 . S
C996 C269 1.518 . S
C1013 C209 1.877 . S
C1032 C298 1.945 . S
C1068 C332 1.681 . S
C1049 C241 1.648 . S
C1104 C366 1.699 . S
C1085 C145 1.588 . S
C1121 C49 1.425 . S
C1140 C260 1.536 . S
C1176 C307 1.943 . S
C1157 C81 1.877 1_565 S
C1212 C341 1.684 . S
C1193 C113 1.584 . S
C1229 C17 1.662 . S
C1248 C375 1.693 . S
