# Generated by pormake.
# Topology pth, (4,4)-cn, num edge types: 1
# Building blocks:
#     Node 0, Type 0, BuildingBlock: QUQFOY_clean_sbu_3, # of connection points: 4
#     Node 1, Type 0, BuildingBlock: QUQFOY_clean_sbu_3, # of connection points: 4
#     Node 2, Type 0, BuildingBlock: QUQFOY_clean_sbu_3, # of connection points: 4
#     Node 3, Type 1, BuildingBlock: MUDLON_clean_linker_0, # of connection points: 4
#     Node 4, Type 1, BuildingBlock: MUDLON_clean_linker_0, # of connection points: 4
#     Node 5, Type 1, BuildingBlock: MUDLON_clean_linker_0, # of connection points: 4
#     Edge 6, Type (0, 1), BuildingBlock: UVAHIK_clean_linker_0, # of connection points: 2
#     Edge 7, Type (0, 1), BuildingBlock: UVAHIK_clean_linker_0, # of connection points: 2
#     Edge 8, Type (0, 1), BuildingBlock: UVAHIK_clean_linker_0, # of connection points: 2
#     Edge 9, Type (0, 1), BuildingBlock: UVAHIK_clean_linker_0, # of connection points: 2
#     Edge 10, Type (0, 1), BuildingBlock: UVAHIK_clean_linker_0, # of connection points: 2
#     Edge 11, Type (0, 1), BuildingBlock: UVAHIK_clean_linker_0, # of connection points: 2
#     Edge 12, Type (0, 1), BuildingBlock: UVAHIK_clean_linker_0, # of connection points: 2
#     Edge 13, Type (0, 1), BuildingBlock: UVAHIK_clean_linker_0, # of connection points: 2
#     Edge 14, Type (0, 1), BuildingBlock: UVAHIK_clean_linker_0, # of connection points: 2
#     Edge 15, Type (0, 1), BuildingBlock: UVAHIK_clean_linker_0, # of connection points: 2
#     Edge 16, Type (0, 1), BuildingBlock: UVAHIK_clean_linker_0, # of connection points: 2
#     Edge 17, Type (0, 1), BuildingBlock: UVAHIK_clean_linker_0, # of connection points: 2
# Relax obj value: 0.036
# Max RMSD: 0.098
# Mean RMSD: 0.090
data_MOF--net-pth--node1-QUQFOY_clean_sbu_3--node2-MUDLON_clean_linker_0--edge1-UVAHIK_clean_linker_0
_symmetry_space_group_name_H-M    P1
_symmetry_Int_Tables_number       1
_symmetry_cell_setting            triclinic
loop_
_symmetry_equiv_pos_as_xyz
'x, y, z'
_cell_length_a     41.237155
_cell_length_b     40.939881
_cell_length_c     85.579853
_cell_angle_alpha  90.033747
_cell_angle_beta   90.599525
_cell_angle_gamma 120.61479
loop_
_atom_site_label
_atom_site_type_symbol
_atom_site_fract_x
_atom_site_fract_y
_atom_site_fract_z
_atom_type_partial_charge
C0 C 0.96948 0.05238 0.04751 0.0
O1 O 0.94773 0.04651 0.03589 0.0
Cd2 Cd 0.94341 0.00733 0.01413 0.0
O3 O 0.98885 0.03616 0.04828 0.0
Cd4 Cd -0.00014 0.99086 0.03342 0.0
C5 C 0.03734 0.0549 0.00437 0.0
O6 O 0.93544 0.94923 0.02424 0.0
O7 O 0.97792 0.94119 0.01339 0.0
O8 O -0.00364 0.96088 0.0582 0.0
C9 C 0.94329 0.92998 0.01505 0.0
O10 O 0.00342 0.04503 0.00092 0.0
C11 C 0.02649 0.96002 0.05669 0.0
O12 O 0.0449 0.04127 0.01631 0.0
O13 O 0.0453 0.97466 0.04437 0.0
C14 C 0.08232 0.01526 0.37582 0.0
O15 O 0.09718 0.03505 0.36371 0.0
Cd16 Cd 0.06221 0.04415 0.34341 0.0
O17 O 0.04702 -0.0 0.37812 0.0
Cd18 Cd 0.99117 -0.00254 0.3654 0.0
C19 C -0.00231 0.95062 0.3343 0.0
O20 O 0.02344 0.06294 0.35633 0.0
O21 O 0.96677 0.02706 0.34754 0.0
O22 O 0.9741 0.00726 0.39124 0.0
C23 C -0.00428 0.05994 0.34858 0.0
O24 O 0.02544 0.98272 0.33043 0.0
C25 C 0.93967 0.98139 0.39027 0.0
O26 O 0.98078 0.94666 0.34715 0.0
O27 O 0.92927 0.96121 0.3779 0.0
C28 C 0.96328 0.04774 0.6848 0.0
O29 O 0.97244 0.07073 0.69622 0.0
Cd30 Cd 0.01122 0.07396 0.7177 0.0
O31 O 0.97654 0.02565 0.68373 0.0
Cd32 Cd 0.0216 0.01251 0.69824 0.0
C33 C 0.96032 0.97951 0.72822 0.0
O34 O 0.06489 0.07768 0.70587 0.0
O35 O 0.07538 0.03671 0.71691 0.0
O36 O 0.04566 0.00984 0.6728 0.0
C37 C 0.08564 0.07127 0.71479 0.0
O38 O 0.97152 0.01422 0.73112 0.0
C39 C 0.04731 0.9802 0.67544 0.0
O40 O 0.97287 0.97026 0.71652 0.0
O41 O 0.03548 0.96441 0.6886 0.0
H42 H 0.01208 0.63035 0.21016 0.0
N43 N 0.0875 0.66329 0.20383 0.0
H44 H 0.98413 0.65396 0.22895 0.0
H45 H 0.12327 0.71672 0.2254 0.0
H46 H 0.09549 0.74058 0.24411 0.0
H47 H 0.14293 0.72833 0.19277 0.0
H48 H 0.13963 0.76547 0.17102 0.0
H49 H 0.02825 0.64022 0.18335 0.0
H50 H 0.02455 0.67721 0.16166 0.0
H51 H 0.05601 0.60537 0.22539 0.0
H52 H 0.10293 0.63261 0.17893 0.0
H53 H 0.04912 0.54321 0.22313 0.0
H54 H 0.09593 0.57024 0.1769 0.0
H55 H 0.01085 0.35516 0.20955 0.0
H56 H -0.00403 0.31807 0.23326 0.0
H57 H 0.10705 0.39698 0.25188 0.0
H58 H 0.12253 0.43249 0.22745 0.0
H59 H 0.12373 0.39399 0.18936 0.0
H60 H 0.10867 0.34943 0.16767 0.0
H61 H -0.00038 0.33956 0.16241 0.0
H62 H 0.01559 0.38517 0.18376 0.0
H63 H 0.01814 0.42235 0.2088 0.0
H64 H 0.01516 0.48061 0.2079 0.0
H65 H 0.12916 0.54191 0.19083 0.0
N66 N 0.0797 0.41622 0.20194 0.0
H67 H 0.13199 0.48368 0.1919 0.0
C68 C 0.06992 0.67189 0.21643 0.0
C69 C 0.03045 0.65394 0.21773 0.0
C70 C 0.01451 0.66729 0.2285 0.0
C71 C 0.03773 0.69917 0.23785 0.0
C72 C 0.07703 0.71605 0.23695 0.0
C73 C 0.09291 0.70239 0.22637 0.0
C74 C 0.08589 0.68184 0.18974 0.0
C75 C 0.11729 0.71681 0.18582 0.0
C76 C 0.11535 0.73785 0.17339 0.0
C77 C 0.08174 0.72432 0.16472 0.0
C78 C 0.05065 0.68854 0.16829 0.0
C79 C 0.05271 0.66738 0.18066 0.0
C80 C 0.07811 0.62402 0.20196 0.0
C81 C 0.06346 0.59795 0.21442 0.0
C82 C 0.05965 0.56211 0.21321 0.0
C83 C 0.07158 0.55174 0.19977 0.0
C84 C 0.08627 0.57741 0.18737 0.0
C85 C 0.08983 0.61309 0.1885 0.0
C86 C 0.06834 0.39615 0.21656 0.0
C87 C 0.03212 0.3645 0.21867 0.0
C88 C 0.02342 0.3435 0.23242 0.0
C89 C 0.05043 0.35414 0.24451 0.0
C90 C 0.08585 0.38725 0.2427 0.0
C91 C 0.09471 0.40781 0.22881 0.0
C92 C 0.07089 0.39276 0.18819 0.0
C93 C 0.09684 0.38256 0.18334 0.0
C94 C 0.08799 0.35685 0.17106 0.0
C95 C 0.05271 0.34049 0.16344 0.0
C96 C 0.02713 0.35179 0.16795 0.0
C97 C 0.03616 0.37778 0.18021 0.0
C98 C 0.07562 0.44897 0.20057 0.0
C99 C 0.0424 0.44827 0.20481 0.0
C100 C 0.04073 0.48154 0.20431 0.0
C101 C 0.07193 0.51575 0.19931 0.0
C102 C 0.10453 0.5159 0.19457 0.0
C103 C 0.1063 0.48282 0.19524 0.0
H104 H 0.709 0.10873 0.54446 0.0
N105 N 0.64654 0.05417 0.53114 0.0
H106 H 0.7425 0.10361 0.56723 0.0
H107 H 0.62156 0.99193 0.54976 0.0
H108 H 0.65517 0.98625 0.57251 0.0
H109 H 0.63328 0.98352 0.52319 0.0
H110 H 0.66282 0.96896 0.50185 0.0
H111 H 0.68626 0.09977 0.50809 0.0
H112 H 0.71582 0.08536 0.48656 0.0
H113 H 0.62938 0.10428 0.54138 0.0
H114 H 0.57913 0.99008 0.52345 0.0
H115 H 0.56719 0.09704 0.54353 0.0
H116 H 0.51689 0.98322 0.52457 0.0
H117 H 0.38986 0.06726 0.56278 0.0
H118 H 0.34342 0.0415 0.58358 0.0
H119 H 0.2973 0.92905 0.56374 0.0
H120 H 0.34305 0.95537 0.54277 0.0
H121 H 0.36408 0.97258 0.51666 0.0
H122 H 0.32388 0.96567 0.49412 0.0
H123 H 0.33993 0.07664 0.50403 0.0
H124 H 0.37828 0.08211 0.52693 0.0
H125 H 0.45861 0.09062 0.53046 0.0
H126 H 0.51951 0.09492 0.52812 0.0
H127 H 0.46818 0.97663 0.5408 0.0
N128 N 0.39335 0.03078 0.53787 0.0
H129 H 0.40702 0.97221 0.54209 0.0
C130 C 0.66315 0.05077 0.54543 0.0
C131 C 0.6969 0.08214 0.55071 0.0
C132 C 0.71585 0.07915 0.56371 0.0
C133 C 0.70145 0.04449 0.57161 0.0
C134 C 0.66704 0.01319 0.56654 0.0
C135 C 0.64784 0.01637 0.55359 0.0
C136 C 0.65765 0.0429 0.51721 0.0
C137 C 0.65044 0.0057 0.51504 0.0
C138 C 0.66733 -0.00263 0.50281 0.0
C139 C 0.69192 0.02612 0.49264 0.0
C140 C 0.69737 0.06275 0.49434 0.0
C141 C 0.68033 0.07098 0.50652 0.0
C142 C 0.60907 0.04814 0.53205 0.0
C143 C 0.60484 0.07778 0.53773 0.0
C144 C 0.56923 0.07362 0.53881 0.0
C145 C 0.53683 0.03973 0.53397 0.0
C146 C 0.54107 0.00965 0.52849 0.0
C147 C 0.57684 0.01367 0.52768 0.0
C148 C 0.37003 0.01342 0.55127 0.0
C149 C 0.37024 0.03696 0.56317 0.0
C150 C 0.34372 0.02208 0.57507 0.0
C151 C 0.31641 0.98315 0.5753 0.0
C152 C 0.31755 0.95923 0.56379 0.0
C153 C 0.344 0.97422 0.55184 0.0
C154 C 0.37353 0.02768 0.52354 0.0
C155 C 0.35882 0.9953 0.51392 0.0
C156 C 0.33615 0.99159 0.50097 0.0
C157 C 0.32818 0.02038 0.49737 0.0
C158 C 0.34461 0.05348 0.50666 0.0
C159 C 0.36684 0.0569 0.51965 0.0
C160 C 0.42846 0.03146 0.53669 0.0
C161 C 0.46062 0.06566 0.53269 0.0
C162 C 0.49545 0.06806 0.53149 0.0
C163 C 0.49909 0.03628 0.53453 0.0
C164 C 0.46653 0.00166 0.53828 0.0
C165 C 0.43144 -0.00084 0.5392 0.0
H166 H 0.61263 0.73344 0.88333 0.0
N167 N 0.58771 0.67236 0.8654 0.0
H168 H 0.65413 0.75092 0.90631 0.0
H169 H 0.61452 0.62966 0.87852 0.0
H170 H 0.65613 0.64686 0.90153 0.0
H171 H 0.63931 0.65634 0.85313 0.0
H172 H 0.68018 0.68796 0.83104 0.0
H173 H 0.58318 0.71963 0.84556 0.0
H174 H 0.62345 0.75088 0.82307 0.0
H175 H 0.52581 0.6558 0.8806 0.0
H176 H 0.57251 0.60651 0.85025 0.0
H177 H 0.46726 0.59489 0.88197 0.0
H178 H 0.5133 0.54622 0.85061 0.0
H179 H 0.27771 0.40558 0.87914 0.0
H180 H 0.24902 0.36558 0.90203 0.0
H181 H 0.34898 0.35825 0.9091 0.0
H182 H 0.37744 0.39826 0.88631 0.0
H183 H 0.35062 0.36262 0.86167 0.0
H184 H 0.33071 0.32248 0.83855 0.0
H185 H 0.30232 0.39911 0.8157 0.0
H186 H 0.31933 0.43731 0.83954 0.0
H187 H 0.3542 0.49433 0.86827 0.0
H188 H 0.41384 0.55442 0.8675 0.0
H189 H 0.47358 0.49298 0.86547 0.0
N190 N 0.34344 0.42506 0.8665 0.0
H191 H 0.41337 0.43317 0.86507 0.0
C192 C 0.61071 0.68053 0.87925 0.0
C193 C 0.62184 0.71436 0.88736 0.0
C194 C 0.64531 0.72411 0.90049 0.0
C195 C 0.65825 0.70015 0.90574 0.0
C196 C 0.64677 0.66595 0.89768 0.0
C197 C 0.62302 0.65609 0.88457 0.0
C198 C 0.60833 0.68596 0.85108 0.0
C199 C 0.63525 0.67651 0.84653 0.0
C200 C 0.65851 0.69448 0.8338 0.0
C201 C 0.65533 0.72224 0.82539 0.0
C202 C 0.62702 0.73009 0.82948 0.0
C203 C 0.60382 0.71212 0.84221 0.0
C204 C 0.55331 0.63605 0.86517 0.0
C205 C 0.52311 0.6319 0.87402 0.0
C206 C 0.48958 0.59707 0.87469 0.0
C207 C 0.4852 0.56552 0.86626 0.0
C208 C 0.51568 0.56967 0.85741 0.0
C209 C 0.54957 0.60446 0.85701 0.0
C210 C 0.3295 0.40483 0.88095 0.0
C211 C 0.2936 0.39583 0.88581 0.0
C212 C 0.27738 0.37314 0.8989 0.0
C213 C 0.29678 0.35874 0.90732 0.0
C214 C 0.33331 0.36874 0.90275 0.0
C215 C 0.34966 0.39179 0.88974 0.0
C216 C 0.33529 0.40245 0.85252 0.0
C217 C 0.33976 0.37065 0.85179 0.0
C218 C 0.32884 0.3479 0.83836 0.0
C219 C 0.3143 0.35706 0.8252 0.0
C220 C 0.31216 0.3903 0.82571 0.0
C221 C 0.32218 0.41244 0.83927 0.0
C222 C 0.37945 0.45953 0.86703 0.0
C223 C 0.38029 0.49404 0.86775 0.0
C224 C 0.41448 0.52831 0.8674 0.0
C225 C 0.44879 0.52876 0.86658 0.0
C226 C 0.44782 0.49388 0.86595 0.0
C227 C 0.41343 0.45955 0.866 0.0
C228 C -0.00489 0.08368 0.07347 0.0
C229 C 0.97389 0.07967 0.0599 0.0
C230 C 0.0016 0.11118 0.08468 0.0
C231 C 0.96903 0.17545 0.09842 0.0
H232 H 0.06949 0.23088 0.1167 0.0
C233 C 0.02173 0.30917 0.13782 0.0
C234 C 0.04222 0.31063 0.15131 0.0
C235 C 0.01214 0.28093 0.12649 0.0
C236 C 0.04122 0.21545 0.11179 0.0
H237 H 0.94207 0.1009 0.04765 0.0
H238 H 0.95393 0.14936 0.06713 0.0
H239 H 0.05453 0.18128 0.09744 0.0
H240 H 0.06748 0.28265 0.1637 0.0
H241 H 0.05126 0.23395 0.14389 0.0
H242 H 0.95602 0.21013 0.11277 0.0
C243 C 0.96516 0.13087 0.06919 0.0
C244 C 0.03258 0.18693 0.10079 0.0
C245 C 0.95848 0.10318 0.05799 0.0
C246 C 0.05251 0.28298 0.15328 0.0
C247 C 0.04312 0.25497 0.14195 0.0
C248 C 0.97776 0.20419 0.10941 0.0
C249 C 0.98724 0.13553 0.08257 0.0
C250 C -0.0037 0.16632 0.09407 0.0
C251 C 0.02301 0.25373 0.1284 0.0
C252 C 0.01386 0.22423 0.1163 0.0
H253 H 0.00712 0.06581 0.07538 0.0
H254 H 0.01805 0.11344 0.09501 0.0
H255 H 0.94072 0.15989 0.09358 0.0
H256 H 0.01364 0.33022 0.13589 0.0
H257 H -0.00312 0.28083 0.11609 0.0
C258 C 0.92488 0.00419 0.41469 0.0
C259 C 0.91251 0.9781 0.40221 0.0
C260 C 0.89898 0.00562 0.42458 0.0
C261 C 0.80242 0.95517 0.43895 0.0
H262 H 0.81797 0.05653 0.44321 0.0
C263 C 0.69828 0.98583 0.47205 0.0
C264 C 0.71458 0.01893 0.4813 0.0
C265 C 0.72048 0.97886 0.46186 0.0
C266 C 0.81341 0.02809 0.44233 0.0
H267 H 0.86336 0.93139 0.39093 0.0
H268 H 0.81793 0.93365 0.40848 0.0
H269 H 0.86076 0.04644 0.4274 0.0
H270 H 0.76697 0.07006 0.4875 0.0
H271 H 0.8056 0.0578 0.47003 0.0
H272 H 0.75553 0.93697 0.45424 0.0
C273 C 0.84775 0.95309 0.41046 0.0
C274 C 0.83791 0.02234 0.43323 0.0
C275 C 0.87374 0.95185 0.40043 0.0
C276 C 0.75343 0.04475 0.48024 0.0
C277 C 0.77558 0.03769 0.4702 0.0
C278 C 0.77803 0.96099 0.44824 0.0
C279 C 0.86015 0.98082 0.4223 0.0
C280 C 0.83297 0.98596 0.4316 0.0
C281 C 0.75944 0.00474 0.46083 0.0
C282 C 0.78357 -0.00233 0.4502 0.0
H283 H 0.95455 0.02466 0.41646 0.0
H284 H 0.90929 0.02686 0.4338 0.0
H285 H 0.79805 0.92683 0.43786 0.0
H286 H 0.66836 0.96548 0.47262 0.0
H287 H 0.70705 0.95341 0.4547 0.0
C288 C 0.91389 0.9603 0.74981 0.0
C289 C 0.93018 0.94983 0.73793 0.0
C290 C 0.88316 0.93279 0.75809 0.0
C291 C 0.83237 0.83311 0.76964 0.0
H292 H 0.74966 0.85135 0.77529 0.0
C293 C 0.69654 0.72829 0.80274 0.0
C294 C 0.68337 0.74511 0.81331 0.0
C295 C 0.72477 0.75061 0.79209 0.0
C296 C 0.7726 0.84593 0.77391 0.0
H297 H 0.92773 0.90197 0.72586 0.0
H298 H 0.87395 0.85367 0.74054 0.0
H299 H 0.80373 0.89534 0.75988 0.0
H300 H 0.68986 0.79858 0.82109 0.0
H301 H 0.73881 0.83729 0.80265 0.0
H302 H 0.80161 0.78419 0.78405 0.0
C303 C 0.88508 0.88336 0.74332 0.0
C304 C 0.80353 0.87111 0.76508 0.0
C305 C 0.9158 0.911 0.73491 0.0
C306 C 0.69872 0.7846 0.81288 0.0
C307 C 0.72687 0.80683 0.8023 0.0
C308 C 0.80142 0.80794 0.77859 0.0
C309 C 0.86804 0.89408 0.75477 0.0
C310 C 0.83406 0.8654 0.7631 0.0
C311 C 0.7404 0.79019 0.79182 0.0
C312 C 0.77152 0.81452 0.78108 0.0
H313 H 0.92428 0.98989 0.75254 0.0
H314 H 0.87104 0.94186 0.76706 0.0
H315 H 0.8556 0.82811 0.76833 0.0
H316 H 0.68505 0.69789 0.8027 0.0
H317 H 0.7343 0.73688 0.78406 0.0
C318 C 0.01472 0.9233 0.08133 0.0
C319 C 0.03774 0.94097 0.06839 0.0
C320 C 0.02343 0.90286 0.09187 0.0
C321 C 0.07573 0.85217 0.09504 0.0
H322 H 0.05456 0.85178 0.13911 0.0
C323 C 0.10741 0.7693 0.14211 0.0
C324 C 0.07836 0.74871 0.1528 0.0
C325 C 0.10504 0.79416 0.13159 0.0
C326 C 0.06041 0.85146 0.12682 0.0
H327 H 0.08854 0.95188 0.05659 0.0
H328 H 0.10419 0.91658 0.07523 0.0
H329 H 0.04759 0.8947 0.12157 0.0
H330 H 0.02409 0.73794 0.16082 0.0
H331 H 0.01989 0.78113 0.14243 0.0
H332 H 0.0886 0.80881 0.10041 0.0
C333 C 0.07903 0.91808 0.07705 0.0
C334 C 0.0564 0.87601 0.11676 0.0
C335 C 0.07022 0.93851 0.06643 0.0
C336 C 0.04672 0.75309 0.15261 0.0
C337 C 0.04452 0.77815 0.14222 0.0
C338 C 0.08002 0.82775 0.10515 0.0
C339 C 0.05551 0.89972 0.08981 0.0
C340 C 0.06331 0.87617 0.1007 0.0
C341 C 0.07379 0.7992 0.1317 0.0
C342 C 0.07172 0.82669 0.12109 0.0
H343 H 0.98939 0.9245 0.08315 0.0
H344 H 0.00432 0.88859 0.1014 0.0
H345 H 0.08089 0.85125 0.08271 0.0
H346 H 0.13203 0.76631 0.14195 0.0
H347 H 0.12804 0.81011 0.12363 0.0
C348 C 0.09034 0.98358 0.3994 0.0
C349 C 0.10641 0.01068 0.3875 0.0
C350 C 0.11318 0.98008 0.41066 0.0
C351 C 0.16486 0.99551 0.43849 0.0
H352 H 0.2646 0.01487 0.42848 0.0
C353 C 0.27633 0.0286 0.48622 0.0
C354 C 0.30168 0.01552 0.48442 0.0
C355 C 0.25156 0.02457 0.47415 0.0
C356 C 0.23664 0.00885 0.43147 0.0
H357 H 0.15913 0.05521 0.37803 0.0
H358 H 0.19877 0.05 0.39788 0.0
H359 H 0.22285 0.01242 0.40762 0.0
H360 H 0.32053 0.98757 0.46846 0.0
H361 H 0.27631 0.97936 0.44752 0.0
H362 H 0.1782 0.99094 0.46228 0.0
C363 C 0.16862 0.0307 0.39834 0.0
C364 C 0.21286 0.008 0.41951 0.0
C365 C 0.14583 0.0339 0.387 0.0
C366 C 0.30122 -0.00225 0.47029 0.0
C367 C 0.27616 0.99344 0.45821 0.0
C368 C 0.18847 0.99599 0.45041 0.0
C369 C 0.15261 0.0039 0.41038 0.0
C370 C 0.17689 0.00194 0.4229 0.0
C371 C 0.25108 0.00691 0.45999 0.0
C372 C 0.22493 0.00337 0.4471 0.0
H373 H 0.06007 0.96501 0.40003 0.0
H374 H 0.09987 0.95867 0.41958 0.0
H375 H 0.13755 0.99113 0.44161 0.0
H376 H 0.27534 0.0418 0.49703 0.0
H377 H 0.23312 0.03584 0.47588 0.0
C378 C 0.12059 0.13813 0.72447 0.0
C379 C 0.11707 0.10222 0.72375 0.0
C380 C 0.14885 0.16704 0.73359 0.0
C381 C 0.21225 0.18201 0.76721 0.0
H382 H 0.252 0.28764 0.75647 0.0
C383 C 0.31534 0.30906 0.80693 0.0
C384 C 0.29952 0.33108 0.81138 0.0
C385 C 0.29934 0.2826 0.79472 0.0
C386 C 0.24135 0.25824 0.75952 0.0
H387 H 0.14121 0.06871 0.73154 0.0
H388 H 0.19156 0.11967 0.74712 0.0
H389 H 0.21349 0.23808 0.73743 0.0
H390 H 0.25436 0.34231 0.80615 0.0
H391 H 0.22798 0.29771 0.78447 0.0
H392 H 0.24048 0.20265 0.78932 0.0
C393 C 0.17182 0.12524 0.74097 0.0
C394 C 0.21902 0.2298 0.74871 0.0
C395 C 0.1431 0.09608 0.73199 0.0
C396 C 0.26806 0.32676 0.80292 0.0
C397 C 0.25268 0.30098 0.79053 0.0
C398 C 0.23519 0.21055 0.7779 0.0
C399 C 0.17475 0.16098 0.74205 0.0
C400 C 0.20309 0.19125 0.7526 0.0
C401 C 0.26782 0.27832 0.78648 0.0
C402 C 0.24895 0.24878 0.7743 0.0
H403 H 0.10081 0.14368 0.71832 0.0
H404 H 0.14953 0.19377 0.73437 0.0
H405 H 0.20023 0.15273 0.77073 0.0
H406 H 0.33996 0.31202 0.81291 0.0
H407 H 0.3115 0.26542 0.79172 0.0
C408 C 0.92102 0.0176 0.66135 0.0
C409 C 0.93632 0.0463 0.67285 0.0
C410 C 0.89462 0.01584 0.65045 0.0
C411 C 0.86117 0.07472 0.63209 0.0
H412 H 0.76993 0.97895 0.62303 0.0
C413 C 0.7408 0.06956 0.59598 0.0
C414 C 0.72357 0.04091 0.58456 0.0
C415 C 0.765 0.06838 0.60719 0.0
C416 C 0.79544 0.00585 0.62531 0.0
H417 H 0.93608 0.09581 0.68181 0.0
H418 H 0.89032 0.09274 0.66283 0.0
H419 H 0.81693 0.98074 0.6412 0.0
H420 H 0.71733 0.98805 0.57614 0.0
H421 H 0.75996 0.98613 0.59564 0.0
H422 H 0.84016 0.0999 0.61616 0.0
C423 C 0.89882 0.07172 0.66218 0.0
C424 C 0.82235 0.00684 0.6357 0.0
C425 C 0.92494 0.07335 0.67312 0.0
C426 C 0.72995 0.01032 0.58491 0.0
C427 C 0.75438 0.00925 0.59608 0.0
C428 C 0.83444 0.07372 0.62167 0.0
C429 C 0.88331 0.04293 0.65076 0.0
C430 C 0.85535 0.04136 0.63928 0.0
C431 C 0.77276 0.03867 0.60716 0.0
C432 C 0.8011 0.03934 0.61824 0.0
H433 H 0.92914 0.99628 0.66084 0.0
H434 H 0.88334 0.99351 0.64169 0.0
H435 H 0.88663 0.10165 0.63443 0.0
H436 H 0.73594 0.09319 0.59611 0.0
H437 H 0.77797 0.09103 0.61579 0.0
C438 C 0.87586 0.88822 0.007 0.0
C439 C 0.9137 0.89804 0.00578 0.0
C440 C 0.84807 0.8593 -0.00231 0.0
C441 C 0.83645 0.81069 0.96027 0.0
H442 H 0.73488 0.74435 0.97503 0.0
C443 C 0.7175 0.70931 0.91832 0.0
C444 C 0.68489 0.71194 0.91917 0.0
C445 C 0.74485 0.72466 0.9302 0.0
C446 C 0.76314 0.76267 0.97075 0.0
H447 H 0.95197 0.88439 0.99425 0.0
H448 H 0.90331 0.83363 0.97805 0.0
H449 H 0.78461 0.78538 0.99356 0.0
H450 H 0.65418 0.73046 0.93352 0.0
H451 H 0.70202 0.75765 0.95414 0.0
H452 H 0.81484 0.78885 0.93742 0.0
C453 C 0.89523 0.84867 0.98605 0.0
C454 C 0.79158 0.78619 0.98135 0.0
C455 C 0.92306 0.87765 -0.00463 0.0
C456 C 0.67926 0.72845 0.93248 0.0
C457 C 0.70649 0.74364 0.94436 0.0
C458 C 0.80805 0.78713 0.94969 0.0
C459 C 0.85749 0.83949 0.98698 0.0
C460 C 0.82835 0.81113 0.97616 0.0
C461 C 0.73998 0.74273 0.94318 0.0
C462 C 0.7709 0.76353 0.95476 0.0
H463 H 0.86775 0.90339 0.01493 0.0
H464 H 0.81937 0.85334 -0.00147 0.0
H465 H 0.86435 0.82988 0.95585 0.0
H466 H 0.72266 0.69688 0.90816 0.0
H467 H 0.77022 0.72322 0.92905 0.0
C468 C 0.96408 0.88016 0.32927 0.0
C469 C 0.98665 0.91756 0.32391 0.0
C470 C 0.95723 0.84933 0.31977 0.0
C471 C 0.96449 0.82355 0.27876 0.0
H472 H 0.98808 0.75188 0.29763 0.0
C473 C 0.03437 0.75589 0.24559 0.0
C474 C 0.02143 0.71714 0.24747 0.0
C475 C 0.01973 0.77363 0.25459 0.0
C476 C 0.9806 0.77113 0.29224 0.0
H477 H 0.01809 0.9518 0.30413 0.0
H478 H 0.0064 0.89855 0.28774 0.0
H479 H 0.97988 0.79566 0.31426 0.0
H480 H 0.98286 0.66628 0.26005 0.0
H481 H 0.95774 0.69786 0.27627 0.0
H482 H 0.96755 0.80061 0.25671 0.0
C483 C 0.99372 0.89276 0.29919 0.0
C484 C 0.97584 0.79616 0.30175 0.0
C485 C 0.00075 0.9234 0.30867 0.0
C486 C 0.99324 0.69624 0.25843 0.0
C487 C 0.97898 0.71424 0.26768 0.0
C488 C 0.9695 0.79877 0.26928 0.0
C489 C 0.97244 0.85539 0.30469 0.0
C490 C 0.96926 0.82368 0.29505 0.0
C491 C 0.99212 0.75311 0.26579 0.0
C492 C 0.97905 0.77337 0.2759 0.0
H493 H 0.95279 0.87474 0.34097 0.0
H494 H 0.94057 0.82083 0.32429 0.0
H495 H 0.9586 0.84385 0.27327 0.0
H496 H 0.05582 0.77251 0.2371 0.0
H497 H 0.03074 0.80373 0.25303 0.0
C498 C 0.07772 0.98522 0.64979 0.0
C499 C 0.06523 0.96692 0.66421 0.0
C500 C 0.09896 0.97635 0.63995 0.0
C501 C 0.1326 0.94374 0.61822 0.0
H502 H 0.21504 0.93952 0.63837 0.0
C503 C 0.24781 0.94259 0.58167 0.0
C504 C 0.28493 0.96852 0.5866 0.0
C505 C 0.2175 0.93283 0.59155 0.0
C506 C 0.19214 0.94058 0.63256 0.0
H507 H 0.06367 0.92365 0.67932 0.0
H508 H 0.10065 0.90789 0.66202 0.0
H509 H 0.16669 0.94024 0.65427 0.0
H510 H 0.31937 0.00244 0.60622 0.0
H511 H 0.26653 0.98642 0.62328 0.0
H512 H 0.15909 0.94638 0.59658 0.0
C513 C 0.09436 0.92946 0.65844 0.0
C514 C 0.16414 0.94051 0.64167 0.0
C515 C 0.07298 0.9383 0.66829 0.0
C516 C 0.29111 0.98286 0.60196 0.0
C517 C 0.26078 0.97325 0.61182 0.0
C518 C 0.1606 0.94392 0.60913 0.0
C519 C 0.10822 0.94894 0.6443 0.0
C520 C 0.13461 0.94314 0.63461 0.0
C521 C 0.22353 0.94892 0.60659 0.0
C522 C 0.19124 0.94332 0.6162 0.0
H523 H 0.07224 0.0074 0.6463 0.0
H524 H 0.10955 0.99228 0.62926 0.0
H525 H 0.10993 0.94523 0.61241 0.0
H526 H 0.24189 0.93118 0.56988 0.0
H527 H 0.18922 0.91353 0.58724 0.0
C528 C 0.05959 0.09552 0.98059 0.0
C529 C 0.06809 0.08441 -0.00514 0.0
C530 C 0.08764 0.12574 0.97222 0.0
C531 C 0.19066 0.18677 0.96768 0.0
H532 H 0.16183 0.25482 0.9491 0.0
C533 C 0.25647 0.33746 0.93117 0.0
C534 C 0.27771 0.33128 0.9201 0.0
C535 C 0.23497 0.30954 0.94208 0.0
C536 C 0.17064 0.23652 0.9544 0.0
H537 H 0.11314 0.09554 0.01124 0.0
H538 H 0.16225 0.14885 -0.00336 0.0
H539 H 0.1165 0.20138 0.96439 0.0
H540 H 0.29412 0.29157 0.91209 0.0
H541 H 0.25614 0.24256 0.93095 0.0
H542 H 0.24511 0.22246 0.95779 0.0
C543 C 0.13382 0.13387 0.9919 0.0
C544 C 0.14439 0.20545 0.96297 0.0
C545 C 0.10567 0.10338 0.00028 0.0
C546 C 0.2783 0.29727 0.92059 0.0
C547 C 0.25657 0.26921 0.93142 0.0
C548 C 0.21707 0.21804 0.95911 0.0
C549 C 0.12492 0.14585 0.97794 0.0
C550 C 0.15384 0.17985 0.96951 0.0
C551 C 0.23395 0.27465 0.94206 0.0
C552 C 0.20721 0.24305 0.95222 0.0
H553 H 0.03103 0.08125 0.97597 0.0
H554 H 0.08 0.13358 0.9613 0.0
H555 H 0.19881 0.16754 0.97254 0.0
H556 H 0.25595 0.36365 0.9312 0.0
H557 H 0.21854 0.31502 0.95033 0.0
C558 C 0.03325 0.12572 0.33815 0.0
C559 C -0.00185 0.09266 0.34024 0.0
C560 C 0.03591 0.15627 0.32982 0.0
C561 C 0.98362 0.17938 0.30069 0.0
H562 H 0.06231 0.28258 0.3104 0.0
C563 C 0.00594 0.30822 0.26446 0.0
C564 C 0.04256 0.32936 0.2584 0.0
C565 C -0.00205 0.28187 0.27635 0.0
C566 C 0.0401 0.2539 0.30763 0.0
H567 H 0.93812 0.06599 0.33571 0.0
H568 H 0.94252 0.11981 0.32158 0.0
H569 H 0.05215 0.23121 0.32787 0.0
H570 H 0.09965 0.33976 0.26057 0.0
H571 H 0.08586 0.295 0.28165 0.0
H572 H 0.97167 0.20239 0.28045 0.0
C573 C 0.96819 0.12183 0.32599 0.0
C574 C 0.03442 0.2244 0.31755 0.0
C575 C 0.96561 0.09103 0.33414 0.0
C576 C 0.07129 0.32469 0.26507 0.0
C577 C 0.06341 0.29886 0.27712 0.0
C578 C 0.98896 0.20898 0.29091 0.0
C579 C 0.00344 0.15471 0.32357 0.0
C580 C 0.00673 0.18661 0.31399 0.0
C581 C 0.02656 0.27667 0.28264 0.0
C582 C 0.0178 0.24635 0.2941 0.0
H583 H 0.05886 0.12772 0.34265 0.0
H584 H 0.06362 0.1807 0.32794 0.0
H585 H 0.96239 0.15068 0.29742 0.0
H586 H 0.98324 0.31157 0.25987 0.0
H587 H 0.96935 0.26526 0.28053 0.0
loop_
_geom_bond_atom_site_label_1
_geom_bond_atom_site_label_2
_geom_bond_distance
_geom_bond_site_symmetry_2
_ccdc_geom_bond_type
C0 O1 1.306 1_455 S
C0 O3 1.160 . S
O1 C0 1.306 1_655 S
O1 Cd2 2.228 . S
Cd2 O1 2.228 . S
Cd2 O6 2.273 1_545 S
Cd2 O10 2.277 1_655 S
O3 C0 1.160 . S
O3 Cd4 2.203 . S
Cd4 O3 2.203 . S
Cd4 O6 2.411 1_445 S
Cd4 O7 2.333 1_445 S
Cd4 O8 2.355 1_545 S
Cd4 O12 2.277 . S
Cd4 O13 2.356 1_545 S
C5 O10 1.209 . S
C5 O12 1.226 . S
O6 Cd2 2.273 1_565 S
O6 Cd4 2.411 1_665 S
O6 C9 1.320 . S
O7 Cd4 2.333 1_665 S
O7 C9 1.214 . S
O8 Cd4 2.355 1_565 S
O8 C11 1.290 . S
C9 O6 1.320 . S
C9 O7 1.214 . S
O10 Cd2 2.277 1_455 S
O10 C5 1.209 . S
C11 O8 1.290 . S
C11 O13 1.282 . S
O12 Cd4 2.277 . S
O12 C5 1.226 . S
O13 Cd4 2.356 1_565 S
O13 C11 1.282 . S
C14 O15 1.306 . S
C14 O17 1.160 1_545 S
O15 C14 1.306 . S
O15 Cd16 2.228 . S
Cd16 O15 2.228 . S
Cd16 O20 2.273 . S
Cd16 O24 2.277 1_545 S
O17 C14 1.160 1_565 S
O17 Cd18 2.222 1_565 S
Cd18 O17 2.222 1_545 S
Cd18 O20 2.417 . S
Cd18 O21 2.319 1_455 S
Cd18 O22 2.338 1_455 S
Cd18 O26 2.283 1_445 S
Cd18 O27 2.334 1_445 S
C19 O24 1.209 . S
C19 O26 1.226 1_455 S
O20 Cd16 2.273 . S
O20 Cd18 2.417 . S
O20 C23 1.320 . S
O21 Cd18 2.319 1_655 S
O21 C23 1.214 1_655 S
O22 Cd18 2.338 1_655 S
O22 C25 1.258 . S
C23 O20 1.320 . S
C23 O21 1.214 1_455 S
O24 Cd16 2.277 1_565 S
O24 C19 1.209 . S
C25 O22 1.258 . S
C25 O27 1.282 1_545 S
O26 Cd18 2.283 1_665 S
O26 C19 1.226 1_655 S
O27 Cd18 2.334 1_665 S
O27 C25 1.282 1_565 S
C28 O29 1.306 . S
C28 O31 1.192 . S
O29 C28 1.306 . S
O29 Cd30 2.228 . S
Cd30 O29 2.228 . S
Cd30 O34 2.273 1_655 S
Cd30 O38 2.277 1_545 S
O31 C28 1.192 . S
O31 Cd32 2.195 1_655 S
Cd32 O31 2.195 1_455 S
Cd32 O34 2.411 . S
Cd32 O35 2.333 . S
Cd32 O36 2.352 . S
Cd32 O40 2.277 1_445 S
Cd32 O41 2.356 1_545 S
C33 O38 1.209 . S
C33 O40 1.226 . S
O34 Cd30 2.273 1_455 S
O34 Cd32 2.411 . S
O34 C37 1.320 . S
O35 Cd32 2.333 . S
O35 C37 1.214 . S
O36 Cd32 2.352 . S
O36 C39 1.258 . S
C37 O34 1.320 . S
C37 O35 1.214 . S
O38 Cd30 2.277 1_565 S
O38 C33 1.209 . S
C39 O36 1.258 . S
C39 O41 1.282 1_545 S
O40 Cd32 2.277 1_665 S
O40 C33 1.226 . S
O41 Cd32 2.356 1_565 S
O41 C39 1.282 1_565 S
H42 C69 0.929 1_655 S
N43 C68 1.433 . S
N43 C74 1.435 . S
N43 C80 1.423 . S
H44 C70 0.930 1_655 S
H45 C73 0.931 . S
H46 C72 0.929 . S
H47 C75 0.930 . S
H48 C76 0.932 . S
H49 C79 0.929 1_655 S
H50 C78 0.931 1_655 S
H51 C81 0.929 . S
H52 C85 0.932 . S
H53 C82 0.931 . S
H54 C84 0.929 . S
H55 C87 0.929 1_655 S
H56 C88 0.930 1_655 S
H57 C90 0.929 . S
H58 C91 0.931 . S
H59 C93 0.930 . S
H60 C94 0.932 . S
H61 C96 0.931 1_655 S
H62 C97 0.929 1_655 S
H63 C99 0.929 . S
H64 C100 0.931 . S
H65 C102 0.929 . S
N66 C86 1.433 . S
N66 C92 1.435 . S
N66 C98 1.423 . S
H67 C103 0.932 . S
C68 N43 1.433 . S
C68 C69 1.363 . S
C68 C73 1.370 . S
C69 H42 0.929 1_455 S
C69 C68 1.363 . S
C69 C70 1.385 . S
C70 H44 0.930 1_455 S
C70 C69 1.385 . S
C70 C71 1.357 . S
C71 C70 1.357 . S
C71 C72 1.406 . S
C72 H46 0.929 . S
C72 C71 1.406 . S
C72 C73 1.391 . S
C73 H45 0.931 . S
C73 C68 1.370 . S
C73 C72 1.391 . S
C74 N43 1.435 . S
C74 C75 1.358 . S
C74 C79 1.371 . S
C75 H47 0.930 . S
C75 C74 1.358 . S
C75 C76 1.405 . S
C76 H48 0.932 . S
C76 C75 1.405 . S
C76 C77 1.383 . S
C77 C76 1.383 . S
C77 C78 1.393 . S
C78 H50 0.931 1_455 S
C78 C77 1.393 . S
C78 C79 1.382 . S
C79 H49 0.929 1_455 S
C79 C74 1.371 . S
C79 C78 1.382 . S
C80 N43 1.423 . S
C80 C81 1.362 1_455 S
C80 C85 1.388 . S
C81 H51 0.929 . S
C81 C80 1.362 1_655 S
C81 C82 1.376 . S
C82 H53 0.931 . S
C82 C81 1.376 . S
C82 C83 1.396 1_655 S
C83 C82 1.396 1_455 S
C83 C84 1.348 . S
C83 C101 1.472 . S
C84 H54 0.929 . S
C84 C83 1.348 . S
C84 C85 1.443 . S
C85 H52 0.932 . S
C85 C80 1.388 . S
C85 C84 1.443 . S
C86 N66 1.433 . S
C86 C87 1.363 . S
C86 C91 1.370 . S
C87 H55 0.929 1_455 S
C87 C86 1.363 . S
C87 C88 1.385 . S
C88 H56 0.930 1_455 S
C88 C87 1.385 . S
C88 C89 1.357 . S
C89 C88 1.357 . S
C89 C90 1.406 . S
C90 H57 0.929 . S
C90 C89 1.406 . S
C90 C91 1.391 . S
C91 H58 0.931 . S
C91 C86 1.370 . S
C91 C90 1.391 . S
C92 N66 1.435 . S
C92 C93 1.358 . S
C92 C97 1.371 . S
C93 H59 0.930 . S
C93 C92 1.358 . S
C93 C94 1.405 . S
C94 H60 0.932 . S
C94 C93 1.405 . S
C94 C95 1.383 . S
C95 C94 1.383 . S
C95 C96 1.393 . S
C96 H61 0.931 1_455 S
C96 C95 1.393 . S
C96 C97 1.382 . S
C97 H62 0.929 1_455 S
C97 C92 1.371 . S
C97 C96 1.382 . S
C98 N66 1.423 . S
C98 C99 1.362 1_455 S
C98 C103 1.388 . S
C99 H63 0.929 . S
C99 C98 1.362 1_655 S
C99 C100 1.376 . S
C100 H64 0.931 . S
C100 C99 1.376 . S
C100 C101 1.396 1_655 S
C101 C83 1.472 . S
C101 C100 1.396 1_455 S
C101 C102 1.348 . S
C102 H65 0.929 . S
C102 C101 1.348 . S
C102 C103 1.443 . S
C103 H67 0.932 . S
C103 C98 1.388 . S
C103 C102 1.443 . S
H104 C131 0.929 . S
N105 C130 1.433 . S
N105 C136 1.435 . S
N105 C142 1.423 . S
H106 C132 0.930 . S
H107 C135 0.931 1_565 S
H108 C134 0.931 . S
H109 C137 0.930 . S
H110 C138 0.932 . S
H111 C141 0.929 . S
H112 C140 0.931 . S
H113 C143 0.929 . S
H114 C147 0.932 1_565 S
H115 C144 0.931 . S
H116 C146 0.929 . S
H117 C149 0.929 . S
H118 C150 0.930 . S
H119 C152 0.936 . S
H120 C153 0.931 1_565 S
H121 C155 0.930 . S
H122 C156 0.932 . S
H123 C158 0.931 . S
H124 C159 0.929 . S
H125 C161 0.929 . S
H126 C162 0.931 . S
H127 C164 0.929 . S
N128 C148 1.433 . S
N128 C154 1.435 . S
N128 C160 1.423 . S
H129 C165 0.932 1_565 S
C130 N105 1.433 . S
C130 C131 1.363 . S
C130 C135 1.370 . S
C131 H104 0.929 . S
C131 C130 1.363 . S
C131 C132 1.385 . S
C132 H106 0.930 . S
C132 C131 1.385 . S
C132 C133 1.357 . S
C133 C132 1.357 . S
C133 C134 1.407 1_545 S
C134 H108 0.931 . S
C134 C133 1.407 1_565 S
C134 C135 1.389 1_565 S
C135 H107 0.931 1_545 S
C135 C130 1.370 . S
C135 C134 1.389 1_545 S
C136 N105 1.435 . S
C136 C137 1.358 1_545 S
C136 C141 1.371 . S
C137 H109 0.930 . S
C137 C136 1.358 1_565 S
C137 C138 1.405 . S
C138 H110 0.932 . S
C138 C137 1.405 . S
C138 C139 1.383 1_565 S
C139 C138 1.383 1_545 S
C139 C140 1.393 . S
C140 H112 0.931 . S
C140 C139 1.393 . S
C140 C141 1.382 . S
C141 H111 0.929 . S
C141 C136 1.371 . S
C141 C140 1.382 . S
C142 N105 1.423 . S
C142 C143 1.362 . S
C142 C147 1.388 . S
C143 H113 0.929 . S
C143 C142 1.362 . S
C143 C144 1.376 . S
C144 H115 0.931 . S
C144 C143 1.376 . S
C144 C145 1.396 . S
C145 C144 1.396 . S
C145 C146 1.348 . S
C145 C163 1.472 . S
C146 H116 0.929 . S
C146 C145 1.348 . S
C146 C147 1.443 . S
C147 H114 0.932 1_545 S
C147 C142 1.388 . S
C147 C146 1.443 . S
C148 N128 1.433 . S
C148 C149 1.363 . S
C148 C153 1.370 . S
C149 H117 0.929 . S
C149 C148 1.363 . S
C149 C150 1.385 . S
C150 H118 0.930 . S
C150 C149 1.385 . S
C150 C151 1.357 . S
C151 C150 1.357 . S
C151 C152 1.399 1_545 S
C152 H119 0.936 . S
C152 C151 1.399 1_565 S
C152 C153 1.392 1_565 S
C153 H120 0.931 1_545 S
C153 C148 1.370 . S
C153 C152 1.392 1_545 S
C154 N128 1.435 . S
C154 C155 1.358 1_545 S
C154 C159 1.371 . S
C155 H121 0.930 . S
C155 C154 1.358 1_565 S
C155 C156 1.405 . S
C156 H122 0.932 . S
C156 C155 1.405 . S
C156 C157 1.383 1_565 S
C157 C156 1.383 1_545 S
C157 C158 1.393 . S
C158 H123 0.931 . S
C158 C157 1.393 . S
C158 C159 1.382 . S
C159 H124 0.929 . S
C159 C154 1.371 . S
C159 C158 1.382 . S
C160 N128 1.423 . S
C160 C161 1.362 . S
C160 C165 1.388 . S
C161 H125 0.929 . S
C161 C160 1.362 . S
C161 C162 1.376 . S
C162 H126 0.931 . S
C162 C161 1.376 . S
C162 C163 1.396 . S
C163 C145 1.472 . S
C163 C162 1.396 . S
C163 C164 1.348 . S
C164 H127 0.929 . S
C164 C163 1.348 . S
C164 C165 1.443 . S
C165 H129 0.932 1_545 S
C165 C160 1.388 . S
C165 C164 1.443 . S
H166 C193 0.929 . S
N167 C192 1.433 . S
N167 C198 1.435 . S
N167 C204 1.423 . S
H168 C194 0.930 . S
H169 C197 0.931 . S
H170 C196 0.929 . S
H171 C199 0.930 . S
H172 C200 0.932 . S
H173 C203 0.929 . S
H174 C202 0.931 . S
H175 C205 0.929 . S
H176 C209 0.932 . S
H177 C206 0.931 . S
H178 C208 0.929 . S
H179 C211 0.929 . S
H180 C212 0.930 . S
H181 C214 0.929 . S
H182 C215 0.931 . S
H183 C217 0.930 . S
H184 C218 0.932 . S
H185 C220 0.931 . S
H186 C221 0.929 . S
H187 C223 0.929 . S
H188 C224 0.931 . S
H189 C226 0.929 . S
N190 C210 1.433 . S
N190 C216 1.435 . S
N190 C222 1.423 . S
H191 C227 0.932 . S
C192 N167 1.433 . S
C192 C193 1.363 . S
C192 C197 1.370 . S
C193 H166 0.929 . S
C193 C192 1.363 . S
C193 C194 1.385 . S
C194 H168 0.930 . S
C194 C193 1.385 . S
C194 C195 1.357 . S
C195 C194 1.357 . S
C195 C196 1.406 . S
C196 H170 0.929 . S
C196 C195 1.406 . S
C196 C197 1.391 . S
C197 H169 0.931 . S
C197 C192 1.370 . S
C197 C196 1.391 . S
C198 N167 1.435 . S
C198 C199 1.358 . S
C198 C203 1.371 . S
C199 H171 0.930 . S
C199 C198 1.358 . S
C199 C200 1.405 . S
C200 H172 0.932 . S
C200 C199 1.405 . S
C200 C201 1.383 . S
C201 C200 1.383 . S
C201 C202 1.393 . S
C202 H174 0.931 . S
C202 C201 1.393 . S
C202 C203 1.382 . S
C203 H173 0.929 . S
C203 C198 1.371 . S
C203 C202 1.382 . S
C204 N167 1.423 . S
C204 C205 1.362 . S
C204 C209 1.388 . S
C205 H175 0.929 . S
C205 C204 1.362 . S
C205 C206 1.376 . S
C206 H177 0.931 . S
C206 C205 1.376 . S
C206 C207 1.396 . S
C207 C206 1.396 . S
C207 C208 1.348 . S
C207 C225 1.472 . S
C208 H178 0.929 . S
C208 C207 1.348 . S
C208 C209 1.443 . S
C209 H176 0.932 . S
C209 C204 1.388 . S
C209 C208 1.443 . S
C210 N190 1.433 . S
C210 C211 1.363 . S
C210 C215 1.370 . S
C211 H179 0.929 . S
C211 C210 1.363 . S
C211 C212 1.385 . S
C212 H180 0.930 . S
C212 C211 1.385 . S
C212 C213 1.357 . S
C213 C212 1.357 . S
C213 C214 1.406 . S
C214 H181 0.929 . S
C214 C213 1.406 . S
C214 C215 1.391 . S
C215 H182 0.931 . S
C215 C210 1.370 . S
C215 C214 1.391 . S
C216 N190 1.435 . S
C216 C217 1.358 . S
C216 C221 1.371 . S
C217 H183 0.930 . S
C217 C216 1.358 . S
C217 C218 1.405 . S
C218 H184 0.932 . S
C218 C217 1.405 . S
C218 C219 1.383 . S
C219 C218 1.383 . S
C219 C220 1.393 . S
C220 H185 0.931 . S
C220 C219 1.393 . S
C220 C221 1.382 . S
C221 H186 0.929 . S
C221 C216 1.371 . S
C221 C220 1.382 . S
C222 N190 1.423 . S
C222 C223 1.362 . S
C222 C227 1.388 . S
C223 H187 0.929 . S
C223 C222 1.362 . S
C223 C224 1.376 . S
C224 H188 0.931 . S
C224 C223 1.376 . S
C224 C225 1.396 . S
C225 C207 1.472 . S
C225 C224 1.396 . S
C225 C226 1.348 . S
C226 H189 0.929 . S
C226 C225 1.348 . S
C226 C227 1.443 . S
C227 H191 0.932 . S
C227 C222 1.388 . S
C227 C226 1.443 . S
C228 C229 1.349 . S
C228 C230 1.327 . S
C228 H253 0.950 . S
C229 C228 1.349 . S
C229 C245 1.349 . S
C230 C228 1.327 . S
C230 C249 1.429 . S
C230 H254 0.950 . S
C231 C248 1.574 . S
C231 C250 1.368 . S
C231 H255 0.949 1_455 S
H232 C236 0.949 . S
C233 C234 1.349 . S
C233 C235 1.327 . S
C233 H256 0.919 1_455 S
C234 C233 1.349 . S
C234 C246 1.349 . S
C235 C233 1.327 . S
C235 C251 1.429 . S
C235 H257 0.950 1_455 S
C236 H232 0.949 . S
C236 C244 1.574 . S
C236 C252 1.368 . S
H237 C245 0.950 1_655 S
H238 C243 0.950 1_655 S
H239 C244 0.949 . S
H240 C246 0.950 . S
H241 C247 0.950 . S
H242 C248 0.949 1_655 S
C243 H238 0.950 1_455 S
C243 C245 1.327 . S
C243 C249 1.429 . S
C244 C236 1.574 . S
C244 H239 0.949 . S
C244 C250 1.368 . S
C245 C229 1.349 . S
C245 H237 0.950 1_455 S
C245 C243 1.327 . S
C246 C234 1.349 . S
C246 H240 0.950 . S
C246 C247 1.327 . S
C247 H241 0.950 . S
C247 C246 1.327 . S
C247 C251 1.429 . S
C248 C231 1.574 . S
C248 H242 0.949 1_455 S
C248 C252 1.368 . S
C249 C230 1.429 . S
C249 C243 1.429 . S
C249 C250 1.523 . S
C250 C231 1.368 . S
C250 C244 1.368 . S
C250 C249 1.523 . S
C251 C235 1.429 . S
C251 C247 1.429 . S
C251 C252 1.523 . S
C252 C236 1.368 . S
C252 C248 1.368 . S
C252 C251 1.523 . S
H253 C228 0.950 . S
H254 C230 0.950 . S
H255 C231 0.949 1_655 S
H256 C233 0.919 1_655 S
H257 C235 0.950 1_655 S
C258 C259 1.349 . S
C258 C260 1.327 . S
C258 H283 0.950 . S
C259 C258 1.349 . S
C259 C275 1.349 1_545 S
C260 C258 1.327 . S
C260 C279 1.429 . S
C260 H284 0.950 . S
C261 C278 1.574 . S
C261 C280 1.368 1_565 S
C261 H285 0.949 . S
H262 C266 0.949 . S
C263 C264 1.349 1_565 S
C263 C265 1.327 . S
C263 H286 0.950 . S
C264 C263 1.349 1_545 S
C264 C276 1.349 . S
C265 C263 1.327 . S
C265 C281 1.429 1_565 S
C265 H287 0.950 . S
C266 H262 0.949 . S
C266 C274 1.574 . S
C266 C282 1.368 . S
H267 C275 0.950 . S
H268 C273 0.950 . S
H269 C274 0.949 . S
H270 C276 0.950 . S
H271 C277 0.950 . S
H272 C278 0.949 . S
C273 H268 0.950 . S
C273 C275 1.327 . S
C273 C279 1.429 1_565 S
C274 C266 1.574 . S
C274 H269 0.949 . S
C274 C280 1.368 . S
C275 C259 1.349 1_565 S
C275 H267 0.950 . S
C275 C273 1.327 . S
C276 C264 1.349 . S
C276 H270 0.950 . S
C276 C277 1.327 . S
C277 H271 0.950 . S
C277 C276 1.327 . S
C277 C281 1.429 . S
C278 C261 1.574 . S
C278 H272 0.949 . S
C278 C282 1.368 1_565 S
C279 C260 1.429 . S
C279 C273 1.429 1_545 S
C279 C280 1.523 . S
C280 C261 1.368 1_545 S
C280 C274 1.368 . S
C280 C279 1.523 . S
C281 C265 1.429 1_545 S
C281 C277 1.429 . S
C281 C282 1.523 . S
C282 C266 1.368 . S
C282 C278 1.368 1_545 S
C282 C281 1.523 . S
H283 C258 0.950 . S
H284 C260 0.950 . S
H285 C261 0.949 . S
H286 C263 0.950 . S
H287 C265 0.950 . S
C288 C289 1.349 . S
C288 C290 1.327 . S
C288 H313 0.950 . S
C289 C288 1.349 . S
C289 C305 1.349 . S
C290 C288 1.327 . S
C290 C309 1.429 . S
C290 H314 0.950 . S
C291 C308 1.574 . S
C291 C310 1.368 . S
C291 H315 0.949 . S
H292 C296 0.949 . S
C293 C294 1.349 . S
C293 C295 1.327 . S
C293 H316 0.950 . S
C294 C293 1.349 . S
C294 C306 1.349 . S
C295 C293 1.327 . S
C295 C311 1.429 . S
C295 H317 0.950 . S
C296 H292 0.949 . S
C296 C304 1.574 . S
C296 C312 1.368 . S
H297 C305 0.950 . S
H298 C303 0.950 . S
H299 C304 0.949 . S
H300 C306 0.950 . S
H301 C307 0.950 . S
H302 C308 0.949 . S
C303 H298 0.950 . S
C303 C305 1.327 . S
C303 C309 1.429 . S
C304 C296 1.574 . S
C304 H299 0.949 . S
C304 C310 1.368 . S
C305 C289 1.349 . S
C305 H297 0.950 . S
C305 C303 1.327 . S
C306 C294 1.349 . S
C306 H300 0.950 . S
C306 C307 1.327 . S
C307 H301 0.950 . S
C307 C306 1.327 . S
C307 C311 1.429 . S
C308 C291 1.574 . S
C308 H302 0.949 . S
C308 C312 1.368 . S
C309 C290 1.429 . S
C309 C303 1.429 . S
C309 C310 1.523 . S
C310 C291 1.368 . S
C310 C304 1.368 . S
C310 C309 1.523 . S
C311 C295 1.429 . S
C311 C307 1.429 . S
C311 C312 1.523 . S
C312 C296 1.368 . S
C312 C308 1.368 . S
C312 C311 1.523 . S
H313 C288 0.950 . S
H314 C290 0.950 . S
H315 C291 0.949 . S
H316 C293 0.950 . S
H317 C295 0.950 . S
C318 C319 1.349 . S
C318 C320 1.327 . S
C318 H343 0.950 . S
C319 C318 1.349 . S
C319 C335 1.349 . S
C320 C318 1.327 . S
C320 C339 1.429 . S
C320 H344 0.950 . S
C321 C338 1.574 . S
C321 C340 1.368 . S
C321 H345 0.949 . S
H322 C326 0.949 . S
C323 C324 1.349 . S
C323 C325 1.327 . S
C323 H346 0.950 . S
C324 C323 1.349 . S
C324 C336 1.349 . S
C325 C323 1.327 . S
C325 C341 1.429 . S
C325 H347 0.950 . S
C326 H322 0.949 . S
C326 C334 1.574 . S
C326 C342 1.368 . S
H327 C335 0.950 . S
H328 C333 0.950 . S
H329 C334 0.949 . S
H330 C336 0.950 . S
H331 C337 0.950 . S
H332 C338 0.949 . S
C333 H328 0.950 . S
C333 C335 1.327 . S
C333 C339 1.429 . S
C334 C326 1.574 . S
C334 H329 0.949 . S
C334 C340 1.368 . S
C335 C319 1.349 . S
C335 H327 0.950 . S
C335 C333 1.327 . S
C336 C324 1.349 . S
C336 H330 0.950 . S
C336 C337 1.327 . S
C337 H331 0.950 . S
C337 C336 1.327 . S
C337 C341 1.429 . S
C338 C321 1.574 . S
C338 H332 0.949 . S
C338 C342 1.368 . S
C339 C320 1.429 . S
C339 C333 1.429 . S
C339 C340 1.523 . S
C340 C321 1.368 . S
C340 C334 1.368 . S
C340 C339 1.523 . S
C341 C325 1.429 . S
C341 C337 1.429 . S
C341 C342 1.523 . S
C342 C326 1.368 . S
C342 C338 1.368 . S
C342 C341 1.523 . S
H343 C318 0.950 . S
H344 C320 0.950 . S
H345 C321 0.949 . S
H346 C323 0.950 . S
H347 C325 0.950 . S
C348 C349 1.349 1_565 S
C348 C350 1.327 . S
C348 H373 0.950 . S
C349 C348 1.349 1_545 S
C349 C365 1.349 . S
C350 C348 1.327 . S
C350 C369 1.429 1_565 S
C350 H374 0.950 . S
C351 C368 1.574 . S
C351 C370 1.368 . S
C351 H375 0.949 . S
H352 C356 0.949 . S
C353 C354 1.349 . S
C353 C355 1.327 . S
C353 H376 0.950 . S
C354 C353 1.349 . S
C354 C366 1.349 1_545 S
C355 C353 1.327 . S
C355 C371 1.429 . S
C355 H377 0.950 . S
C356 H352 0.949 . S
C356 C364 1.574 . S
C356 C372 1.368 1_565 S
H357 C365 0.950 . S
H358 C363 0.950 . S
H359 C364 0.949 . S
H360 C366 0.950 . S
H361 C367 0.950 . S
H362 C368 0.949 . S
C363 H358 0.950 . S
C363 C365 1.327 . S
C363 C369 1.429 . S
C364 C356 1.574 . S
C364 H359 0.949 . S
C364 C370 1.368 1_565 S
C365 C349 1.349 . S
C365 H357 0.950 . S
C365 C363 1.327 . S
C366 C354 1.349 1_565 S
C366 H360 0.950 . S
C366 C367 1.327 . S
C367 H361 0.950 . S
C367 C366 1.327 . S
C367 C371 1.429 1_565 S
C368 C351 1.574 . S
C368 H362 0.949 . S
C368 C372 1.368 . S
C369 C350 1.429 1_545 S
C369 C363 1.429 . S
C369 C370 1.523 . S
C370 C351 1.368 . S
C370 C364 1.368 1_545 S
C370 C369 1.523 . S
C371 C355 1.429 . S
C371 C367 1.429 1_545 S
C371 C372 1.523 . S
C372 C356 1.368 1_545 S
C372 C368 1.368 . S
C372 C371 1.523 . S
H373 C348 0.950 . S
H374 C350 0.950 . S
H375 C351 0.949 . S
H376 C353 0.950 . S
H377 C355 0.950 . S
C378 C379 1.349 . S
C378 C380 1.327 . S
C378 H403 0.950 . S
C379 C378 1.349 . S
C379 C395 1.349 . S
C380 C378 1.327 . S
C380 C399 1.429 . S
C380 H404 0.950 . S
C381 C398 1.574 . S
C381 C400 1.368 . S
C381 H405 0.949 . S
H382 C386 0.949 . S
C383 C384 1.349 . S
C383 C385 1.327 . S
C383 H406 0.950 . S
C384 C383 1.349 . S
C384 C396 1.349 . S
C385 C383 1.327 . S
C385 C401 1.429 . S
C385 H407 0.950 . S
C386 H382 0.949 . S
C386 C394 1.574 . S
C386 C402 1.368 . S
H387 C395 0.950 . S
H388 C393 0.950 . S
H389 C394 0.949 . S
H390 C396 0.950 . S
H391 C397 0.950 . S
H392 C398 0.949 . S
C393 H388 0.950 . S
C393 C395 1.327 . S
C393 C399 1.429 . S
C394 C386 1.574 . S
C394 H389 0.949 . S
C394 C400 1.368 . S
C395 C379 1.349 . S
C395 H387 0.950 . S
C395 C393 1.327 . S
C396 C384 1.349 . S
C396 H390 0.950 . S
C396 C397 1.327 . S
C397 H391 0.950 . S
C397 C396 1.327 . S
C397 C401 1.429 . S
C398 C381 1.574 . S
C398 H392 0.949 . S
C398 C402 1.368 . S
C399 C380 1.429 . S
C399 C393 1.429 . S
C399 C400 1.523 . S
C400 C381 1.368 . S
C400 C394 1.368 . S
C400 C399 1.523 . S
C401 C385 1.429 . S
C401 C397 1.429 . S
C401 C402 1.523 . S
C402 C386 1.368 . S
C402 C398 1.368 . S
C402 C401 1.523 . S
H403 C378 0.950 . S
H404 C380 0.950 . S
H405 C381 0.949 . S
H406 C383 0.950 . S
H407 C385 0.950 . S
C408 C409 1.349 1_565 S
C408 C410 1.327 . S
C408 H433 0.950 . S
C409 C408 1.349 1_545 S
C409 C425 1.349 . S
C410 C408 1.327 . S
C410 C429 1.429 1_565 S
C410 H434 0.950 . S
C411 C428 1.574 . S
C411 C430 1.368 . S
C411 H435 0.949 . S
H412 C416 0.949 . S
C413 C414 1.349 . S
C413 C415 1.327 . S
C413 H436 0.950 . S
C414 C413 1.349 . S
C414 C426 1.349 1_545 S
C415 C413 1.327 . S
C415 C431 1.429 . S
C415 H437 0.950 . S
C416 H412 0.949 . S
C416 C424 1.574 . S
C416 C432 1.368 1_565 S
H417 C425 0.950 . S
H418 C423 0.950 . S
H419 C424 0.949 . S
H420 C426 0.950 . S
H421 C427 0.950 . S
H422 C428 0.949 . S
C423 H418 0.950 . S
C423 C425 1.327 . S
C423 C429 1.429 . S
C424 C416 1.574 . S
C424 H419 0.949 . S
C424 C430 1.368 1_565 S
C425 C409 1.349 . S
C425 H417 0.950 . S
C425 C423 1.327 . S
C426 C414 1.349 1_565 S
C426 H420 0.950 . S
C426 C427 1.327 . S
C427 H421 0.950 . S
C427 C426 1.327 . S
C427 C431 1.429 1_565 S
C428 C411 1.574 . S
C428 H422 0.949 . S
C428 C432 1.368 . S
C429 C410 1.429 1_545 S
C429 C423 1.429 . S
C429 C430 1.523 . S
C430 C411 1.368 . S
C430 C424 1.368 1_545 S
C430 C429 1.523 . S
C431 C415 1.429 . S
C431 C427 1.429 1_545 S
C431 C432 1.523 . S
C432 C416 1.368 1_545 S
C432 C428 1.368 . S
C432 C431 1.523 . S
H433 C408 0.950 . S
H434 C410 0.950 . S
H435 C411 0.949 . S
H436 C413 0.950 . S
H437 C415 0.950 . S
C438 C439 1.349 . S
C438 C440 1.327 . S
C438 H463 0.950 . S
C439 C438 1.349 . S
C439 C455 1.349 1_554 S
C440 C438 1.327 . S
C440 C459 1.429 1_554 S
C440 H464 0.950 . S
C441 C458 1.574 . S
C441 C460 1.368 . S
C441 H465 0.949 . S
H442 C446 0.949 . S
C443 C444 1.349 . S
C443 C445 1.327 . S
C443 H466 0.950 . S
C444 C443 1.349 . S
C444 C456 1.349 . S
C445 C443 1.327 . S
C445 C461 1.429 . S
C445 H467 0.950 . S
C446 H442 0.949 . S
C446 C454 1.574 . S
C446 C462 1.368 . S
H447 C455 0.950 . S
H448 C453 0.950 . S
H449 C454 0.949 . S
H450 C456 0.950 . S
H451 C457 0.950 . S
H452 C458 0.949 . S
C453 H448 0.950 . S
C453 C455 1.327 . S
C453 C459 1.429 . S
C454 C446 1.574 . S
C454 H449 0.949 . S
C454 C460 1.368 . S
C455 C439 1.349 1_556 S
C455 H447 0.950 . S
C455 C453 1.327 . S
C456 C444 1.349 . S
C456 H450 0.950 . S
C456 C457 1.327 . S
C457 H451 0.950 . S
C457 C456 1.327 . S
C457 C461 1.429 . S
C458 C441 1.574 . S
C458 H452 0.949 . S
C458 C462 1.368 . S
C459 C440 1.429 1_556 S
C459 C453 1.429 . S
C459 C460 1.523 . S
C460 C441 1.368 . S
C460 C454 1.368 . S
C460 C459 1.523 . S
C461 C445 1.429 . S
C461 C457 1.429 . S
C461 C462 1.523 . S
C462 C446 1.368 . S
C462 C458 1.368 . S
C462 C461 1.523 . S
H463 C438 0.950 . S
H464 C440 0.950 . S
H465 C441 0.949 . S
H466 C443 0.950 . S
H467 C445 0.950 . S
C468 C469 1.349 . S
C468 C470 1.327 . S
C468 H493 0.950 . S
C469 C468 1.349 . S
C469 C485 1.349 . S
C470 C468 1.327 . S
C470 C489 1.429 . S
C470 H494 0.950 . S
C471 C488 1.574 . S
C471 C490 1.368 . S
C471 H495 0.949 . S
H472 C476 0.949 . S
C473 C474 1.349 . S
C473 C475 1.327 . S
C473 H496 0.950 . S
C474 C473 1.349 . S
C474 C486 1.349 . S
C475 C473 1.327 . S
C475 C491 1.429 . S
C475 H497 0.950 . S
C476 H472 0.949 . S
C476 C484 1.574 . S
C476 C492 1.368 . S
H477 C485 0.950 . S
H478 C483 0.950 . S
H479 C484 0.949 . S
H480 C486 0.950 . S
H481 C487 0.950 . S
H482 C488 0.949 . S
C483 H478 0.950 . S
C483 C485 1.327 . S
C483 C489 1.429 . S
C484 C476 1.574 . S
C484 H479 0.949 . S
C484 C490 1.368 . S
C485 C469 1.349 . S
C485 H477 0.950 . S
C485 C483 1.327 . S
C486 C474 1.349 . S
C486 H480 0.950 . S
C486 C487 1.327 . S
C487 H481 0.950 . S
C487 C486 1.327 . S
C487 C491 1.429 . S
C488 C471 1.574 . S
C488 H482 0.949 . S
C488 C492 1.368 . S
C489 C470 1.429 . S
C489 C483 1.429 . S
C489 C490 1.523 . S
C490 C471 1.368 . S
C490 C484 1.368 . S
C490 C489 1.523 . S
C491 C475 1.429 . S
C491 C487 1.429 . S
C491 C492 1.523 . S
C492 C476 1.368 . S
C492 C488 1.368 . S
C492 C491 1.523 . S
H493 C468 0.950 . S
H494 C470 0.950 . S
H495 C471 0.949 . S
H496 C473 0.950 . S
H497 C475 0.950 . S
C498 C499 1.349 . S
C498 C500 1.327 . S
C498 H523 0.950 . S
C499 C498 1.349 . S
C499 C515 1.349 1_545 S
C500 C498 1.327 . S
C500 C519 1.429 . S
C500 H524 0.950 . S
C501 C518 1.574 . S
C501 C520 1.368 1_565 S
C501 H525 0.949 . S
H502 C506 0.949 . S
C503 C504 1.349 1_565 S
C503 C505 1.327 . S
C503 H526 0.950 . S
C504 C503 1.349 1_545 S
C504 C516 1.349 . S
C505 C503 1.327 . S
C505 C521 1.429 1_565 S
C505 H527 0.950 . S
C506 H502 0.949 . S
C506 C514 1.574 . S
C506 C522 1.368 . S
H507 C515 0.950 . S
H508 C513 0.950 . S
H509 C514 0.949 . S
H510 C516 0.950 . S
H511 C517 0.950 . S
H512 C518 0.949 . S
C513 H508 0.950 . S
C513 C515 1.327 . S
C513 C519 1.429 1_565 S
C514 C506 1.574 . S
C514 H509 0.949 . S
C514 C520 1.368 . S
C515 C499 1.349 1_565 S
C515 H507 0.950 . S
C515 C513 1.327 . S
C516 C504 1.349 . S
C516 H510 0.950 . S
C516 C517 1.327 . S
C517 H511 0.950 . S
C517 C516 1.327 . S
C517 C521 1.429 . S
C518 C501 1.574 . S
C518 H512 0.949 . S
C518 C522 1.368 1_565 S
C519 C500 1.429 . S
C519 C513 1.429 1_545 S
C519 C520 1.523 . S
C520 C501 1.368 1_545 S
C520 C514 1.368 . S
C520 C519 1.523 . S
C521 C505 1.429 1_545 S
C521 C517 1.429 . S
C521 C522 1.523 . S
C522 C506 1.368 . S
C522 C518 1.368 1_545 S
C522 C521 1.523 . S
H523 C498 0.950 . S
H524 C500 0.950 . S
H525 C501 0.949 . S
H526 C503 0.950 . S
H527 C505 0.950 . S
C528 C529 1.349 1_556 S
C528 C530 1.327 . S
C528 H553 0.950 . S
C529 C528 1.349 1_554 S
C529 C545 1.349 . S
C530 C528 1.327 . S
C530 C549 1.429 . S
C530 H554 0.950 . S
C531 C548 1.574 . S
C531 C550 1.368 . S
C531 H555 0.949 . S
H532 C536 0.949 . S
C533 C534 1.349 . S
C533 C535 1.327 . S
C533 H556 0.950 . S
C534 C533 1.349 . S
C534 C546 1.349 . S
C535 C533 1.327 . S
C535 C551 1.429 . S
C535 H557 0.950 . S
C536 H532 0.949 . S
C536 C544 1.574 . S
C536 C552 1.368 . S
H537 C545 0.950 . S
H538 C543 0.950 . S
H539 C544 0.949 . S
H540 C546 0.950 . S
H541 C547 0.950 . S
H542 C548 0.949 . S
C543 H538 0.950 . S
C543 C545 1.327 . S
C543 C549 1.429 1_554 S
C544 C536 1.574 . S
C544 H539 0.949 . S
C544 C550 1.368 . S
C545 C529 1.349 . S
C545 H537 0.950 . S
C545 C543 1.327 . S
C546 C534 1.349 . S
C546 H540 0.950 . S
C546 C547 1.327 . S
C547 H541 0.950 . S
C547 C546 1.327 . S
C547 C551 1.429 . S
C548 C531 1.574 . S
C548 H542 0.949 . S
C548 C552 1.368 . S
C549 C530 1.429 . S
C549 C543 1.429 1_556 S
C549 C550 1.523 . S
C550 C531 1.368 . S
C550 C544 1.368 . S
C550 C549 1.523 . S
C551 C535 1.429 . S
C551 C547 1.429 . S
C551 C552 1.523 . S
C552 C536 1.368 . S
C552 C548 1.368 . S
C552 C551 1.523 . S
H553 C528 0.950 . S
H554 C530 0.950 . S
H555 C531 0.949 . S
H556 C533 0.950 . S
H557 C535 0.950 . S
C558 C559 1.349 . S
C558 C560 1.327 . S
C558 H583 0.950 . S
C559 C558 1.349 . S
C559 C575 1.349 1_455 S
C560 C558 1.327 . S
C560 C579 1.429 . S
C560 H584 0.950 . S
C561 C578 1.569 . S
C561 C580 1.375 . S
C561 H585 0.947 1_455 S
H562 C566 0.949 . S
C563 C564 1.349 . S
C563 C565 1.327 . S
C563 H586 0.950 1_455 S
C564 C563 1.349 . S
C564 C576 1.349 . S
C565 C563 1.327 . S
C565 C581 1.429 . S
C565 H587 0.950 1_455 S
C566 H562 0.949 . S
C566 C574 1.574 . S
C566 C582 1.368 . S
H567 C575 0.950 . S
H568 C573 0.950 . S
H569 C574 0.949 . S
H570 C576 0.950 . S
H571 C577 0.950 . S
H572 C578 0.949 1_655 S
C573 H568 0.950 . S
C573 C575 1.327 . S
C573 C579 1.429 1_655 S
C574 C566 1.574 . S
C574 H569 0.949 . S
C574 C580 1.368 . S
C575 C559 1.349 1_655 S
C575 H567 0.950 . S
C575 C573 1.327 . S
C576 C564 1.349 . S
C576 H570 0.950 . S
C576 C577 1.327 . S
C577 H571 0.950 . S
C577 C576 1.327 . S
C577 C581 1.429 . S
C578 C561 1.569 . S
C578 H572 0.949 1_455 S
C578 C582 1.368 . S
C579 C560 1.429 . S
C579 C573 1.429 1_455 S
C579 C580 1.523 . S
C580 C561 1.375 . S
C580 C574 1.368 . S
C580 C579 1.523 . S
C581 C565 1.429 . S
C581 C577 1.429 . S
C581 C582 1.523 . S
C582 C566 1.368 . S
C582 C578 1.368 . S
C582 C581 1.523 . S
H583 C558 0.950 . S
H584 C560 0.950 . S
H585 C561 0.947 1_655 S
H586 C563 0.950 1_655 S
H587 C565 0.950 1_655 S
C234 C95 1.314 . S
C229 C0 1.323 . S
C259 C25 1.385 . S
C264 C139 1.373 . S
C289 C33 1.417 . S
C294 C201 1.408 . S
C319 C11 1.342 . S
C324 C77 1.329 . S
C354 C157 1.356 . S
C349 C14 1.364 . S
C379 C37 1.424 . S
C384 C219 1.418 . S
C414 C133 1.616 . S
C409 C28 1.705 . S
C439 C9 1.757 . S
C444 C195 1.670 . S
C474 C71 1.691 . S
C469 C19 1.797 . S
C504 C151 1.634 . S
C499 C39 1.731 . S
C534 C213 1.658 . S
C529 C5 1.750 . S
C559 C23 1.799 . S
C564 C89 1.705 . S
