# Generated by pormake.
# Topology pto, (3,4)-cn, num edge types: 1
# Building blocks:
#     Node 0, Type 0, BuildingBlock: OLANEW_clean_sbu_2, # of connection points: 3
#     Node 1, Type 0, BuildingBlock: OLANEW_clean_sbu_2, # of connection points: 3
#     Node 2, Type 0, BuildingBlock: OLANEW_clean_sbu_2, # of connection points: 3
#     Node 3, Type 0, BuildingBlock: OLANEW_clean_sbu_2, # of connection points: 3
#     Node 4, Type 0, BuildingBlock: OLANEW_clean_sbu_2, # of connection points: 3
#     Node 5, Type 0, BuildingBlock: OLANEW_clean_sbu_2, # of connection points: 3
#     Node 6, Type 0, BuildingBlock: OLANEW_clean_sbu_2, # of connection points: 3
#     Node 7, Type 0, BuildingBlock: OLANEW_clean_sbu_2, # of connection points: 3
#     Node 8, Type 1, BuildingBlock: NAWXER_clean_linker_0, # of connection points: 4
#     Node 9, Type 1, BuildingBlock: NAWXER_clean_linker_0, # of connection points: 4
#     Node 10, Type 1, BuildingBlock: NAWXER_clean_linker_0, # of connection points: 4
#     Node 11, Type 1, BuildingBlock: NAWXER_clean_linker_0, # of connection points: 4
#     Node 12, Type 1, BuildingBlock: NAWXER_clean_linker_0, # of connection points: 4
#     Node 13, Type 1, BuildingBlock: NAWXER_clean_linker_0, # of connection points: 4
#     Edge 14, Type (0, 1), BuildingBlock: AJUNOK_clean_linker_0, # of connection points: 2
#     Edge 15, Type (0, 1), BuildingBlock: AJUNOK_clean_linker_0, # of connection points: 2
#     Edge 16, Type (0, 1), BuildingBlock: AJUNOK_clean_linker_0, # of connection points: 2
#     Edge 17, Type (0, 1), BuildingBlock: AJUNOK_clean_linker_0, # of connection points: 2
#     Edge 18, Type (0, 1), BuildingBlock: AJUNOK_clean_linker_0, # of connection points: 2
#     Edge 19, Type (0, 1), BuildingBlock: AJUNOK_clean_linker_0, # of connection points: 2
#     Edge 20, Type (0, 1), BuildingBlock: AJUNOK_clean_linker_0, # of connection points: 2
#     Edge 21, Type (0, 1), BuildingBlock: AJUNOK_clean_linker_0, # of connection points: 2
#     Edge 22, Type (0, 1), BuildingBlock: AJUNOK_clean_linker_0, # of connection points: 2
#     Edge 23, Type (0, 1), BuildingBlock: AJUNOK_clean_linker_0, # of connection points: 2
#     Edge 24, Type (0, 1), BuildingBlock: AJUNOK_clean_linker_0, # of connection points: 2
#     Edge 25, Type (0, 1), BuildingBlock: AJUNOK_clean_linker_0, # of connection points: 2
#     Edge 26, Type (0, 1), BuildingBlock: AJUNOK_clean_linker_0, # of connection points: 2
#     Edge 27, Type (0, 1), BuildingBlock: AJUNOK_clean_linker_0, # of connection points: 2
#     Edge 28, Type (0, 1), BuildingBlock: AJUNOK_clean_linker_0, # of connection points: 2
#     Edge 29, Type (0, 1), BuildingBlock: AJUNOK_clean_linker_0, # of connection points: 2
#     Edge 30, Type (0, 1), BuildingBlock: AJUNOK_clean_linker_0, # of connection points: 2
#     Edge 31, Type (0, 1), BuildingBlock: AJUNOK_clean_linker_0, # of connection points: 2
#     Edge 32, Type (0, 1), BuildingBlock: AJUNOK_clean_linker_0, # of connection points: 2
#     Edge 33, Type (0, 1), BuildingBlock: AJUNOK_clean_linker_0, # of connection points: 2
#     Edge 34, Type (0, 1), BuildingBlock: AJUNOK_clean_linker_0, # of connection points: 2
#     Edge 35, Type (0, 1), BuildingBlock: AJUNOK_clean_linker_0, # of connection points: 2
#     Edge 36, Type (0, 1), BuildingBlock: AJUNOK_clean_linker_0, # of connection points: 2
#     Edge 37, Type (0, 1), BuildingBlock: AJUNOK_clean_linker_0, # of connection points: 2
# Relax obj value: 0.009
# Max RMSD: 0.122
# Mean RMSD: 0.052
data_MOF--net-pto--node1-OLANEW_clean_sbu_2--node2-NAWXER_clean_linker_0--edge1-AJUNOK_clean_linker_0
_symmetry_space_group_name_H-M    P1
_symmetry_Int_Tables_number       1
_symmetry_cell_setting            triclinic
loop_
_symmetry_equiv_pos_as_xyz
'x, y, z'
_cell_length_a     33.224188
_cell_length_b     47.680387
_cell_length_c     41.142189
_cell_angle_alpha  92.364629
_cell_angle_beta   89.926505
_cell_angle_gamma 105.27121
loop_
_atom_site_label
_atom_site_type_symbol
_atom_site_fract_x
_atom_site_fract_y
_atom_site_fract_z
_atom_type_partial_charge
O0 O 0.27337 0.3084 0.2423 0.0
Cd1 Cd 0.23967 0.31232 0.29438 0.0
O2 O 0.32755 0.34495 0.25544 0.0
Cd3 Cd 0.29447 0.35968 0.29601 0.0
O4 O 0.25543 0.38435 0.32075 0.0
C5 C 0.21624 0.37739 0.31557 0.0
O6 O 0.1997 0.35465 0.29628 0.0
C7 C 0.30952 0.32411 0.23584 0.0
C8 C 0.25754 0.27395 0.33811 0.0
O9 O 0.22491 0.26661 0.31985 0.0
O10 O 0.28171 0.29961 0.33574 0.0
O11 O 0.36466 0.86513 0.73996 0.0
Cd12 Cd 0.31733 0.85949 0.69308 0.0
O13 O 0.38283 0.82505 0.72677 0.0
Cd14 Cd 0.33853 0.81094 0.68648 0.0
O15 O 0.28985 0.77548 0.66404 0.0
C16 C 0.25148 0.77439 0.66763 0.0
O17 O 0.2414 0.7962 0.68306 0.0
C18 C 0.38627 0.84741 0.74556 0.0
C19 C 0.33046 0.90887 0.65589 0.0
O20 O 0.30792 0.90622 0.68146 0.0
O21 O 0.34746 0.88835 0.64815 0.0
O22 O 0.81654 0.79761 0.31958 0.0
Cd23 Cd 0.81126 0.75797 0.27873 0.0
O24 O 0.74919 0.79382 0.31843 0.0
Cd25 Cd 0.73525 0.76436 0.27562 0.0
O26 O 0.70791 0.76672 0.22795 0.0
C27 C 0.70669 0.7924 0.22181 0.0
O28 O 0.7221 0.81341 0.24361 0.0
C29 C 0.78526 0.80563 0.33034 0.0
C30 C 0.8558 0.71868 0.29673 0.0
O31 O 0.87346 0.74165 0.2817 0.0
O32 O 0.81695 0.71428 0.30328 0.0
O33 O 0.79437 0.30291 0.6675 0.0
Cd34 Cd 0.74294 0.25649 0.67471 0.0
O35 O 0.79632 0.31363 0.72006 0.0
Cd36 Cd 0.74389 0.2781 0.73407 0.0
O37 O 0.69307 0.26519 0.76861 0.0
C38 C 0.66071 0.27436 0.76548 0.0
O39 O 0.65746 0.28929 0.73993 0.0
C40 C 0.80992 0.31979 0.69164 0.0
C41 C 0.7572 0.21222 0.63336 0.0
O42 O 0.73149 0.2267 0.62541 0.0
O43 O 0.77632 0.21882 0.66078 0.0
O44 O 0.79928 0.7963 0.62946 0.0
Cd45 Cd 0.78101 0.75363 0.66307 0.0
O46 O 0.804 0.82663 0.67184 0.0
Cd47 Cd 0.78431 0.79429 0.70857 0.0
O48 O 0.74697 0.78724 0.75259 0.0
C49 C 0.71477 0.79688 0.75189 0.0
O50 O 0.70623 0.80817 0.72499 0.0
C51 C 0.80645 0.82222 0.6413 0.0
C52 C 0.83384 0.71685 0.65596 0.0
O53 O 0.80263 0.71423 0.63673 0.0
O54 O 0.84037 0.73713 0.6783 0.0
O55 O 0.82762 0.29483 0.30134 0.0
Cd56 Cd 0.78904 0.24727 0.27813 0.0
O57 O 0.77591 0.31506 0.29547 0.0
Cd58 Cd 0.73282 0.27865 0.2693 0.0
O59 O 0.6863 0.27064 0.23011 0.0
C60 C 0.67682 0.29359 0.22207 0.0
O61 O 0.69465 0.31813 0.23807 0.0
C62 C 0.8129 0.31682 0.30498 0.0
C63 C 0.78915 0.20197 0.3191 0.0
O64 O 0.82005 0.21212 0.30048 0.0
O65 O 0.75828 0.21337 0.31858 0.0
O66 O 0.27944 0.33199 0.75744 0.0
Cd67 Cd 0.24869 0.33349 0.70343 0.0
O68 O 0.33709 0.36598 0.74858 0.0
Cd69 Cd 0.32239 0.36233 0.69675 0.0
O70 O 0.31697 0.32969 0.65706 0.0
C71 C 0.31791 0.3049 0.66677 0.0
O72 O 0.32119 0.30185 0.69818 0.0
C73 C 0.31416 0.34842 0.7677 0.0
C74 C 0.20828 0.37767 0.69676 0.0
O75 O 0.18843 0.35241 0.70584 0.0
O76 O 0.24741 0.38215 0.69134 0.0
O77 O 0.36138 0.86898 0.23688 0.0
Cd78 Cd 0.311 0.86804 0.28064 0.0
O79 O 0.33136 0.82283 0.2251 0.0
Cd80 Cd 0.28496 0.81524 0.26356 0.0
O81 O 0.23844 0.7853 0.29187 0.0
C82 C 0.25175 0.76806 0.30909 0.0
O83 O 0.29218 0.77109 0.31057 0.0
C84 C 0.35919 0.84601 0.21934 0.0
C85 C 0.32871 0.9165 0.32378 0.0
O86 O 0.34043 0.89373 0.33009 0.0
O87 O 0.30933 0.91644 0.29685 0.0
C88 C 0.95789 0.43964 0.3183 0.0
C89 C 0.92432 0.43035 0.33956 0.0
C90 C 0.98435 0.4677 0.32184 0.0
C91 C 0.97818 0.48687 0.34704 0.0
C92 C 0.91826 0.44953 0.36485 0.0
C93 C 0.94479 0.47764 0.36839 0.0
C94 C 0.00507 0.517 0.35006 0.0
C95 C 0.08574 0.45643 0.36836 0.0
C96 C 0.11957 0.45973 0.34701 0.0
C97 C 0.06295 0.47732 0.37037 0.0
C98 C 0.07315 0.50147 0.35052 0.0
C99 C 0.13059 0.48439 0.32813 0.0
C100 C 0.10764 0.50501 0.32986 0.0
C101 C 0.04913 0.52367 0.35106 0.0
C102 C 0.09977 0.65596 0.36162 0.0
C103 C 0.13574 0.65995 0.34256 0.0
C104 C 0.07271 0.62813 0.36413 0.0
C105 C 0.08062 0.60411 0.34676 0.0
C106 C 0.14397 0.63592 0.32571 0.0
C107 C 0.11672 0.60832 0.32779 0.0
C108 C 0.05282 0.57426 0.3487 0.0
C109 C 0.97496 0.62735 0.3063 0.0
C110 C 0.94403 0.63219 0.32749 0.0
C111 C 0.99579 0.60625 0.31264 0.0
C112 C 0.98615 0.58956 0.34031 0.0
C113 C 0.93349 0.61481 0.35464 0.0
C114 C 0.95425 0.59354 0.36089 0.0
C115 C 0.0088 0.56757 0.34718 0.0
H116 H 0.96297 0.42545 0.29836 0.0
H117 H 0.00925 0.47459 0.30454 0.0
H118 H 0.89293 0.44281 0.38182 0.0
H119 H 0.93933 0.49217 0.38784 0.0
H120 H 0.0771 0.43779 0.38354 0.0
H121 H 0.03743 0.47455 0.38736 0.0
H122 H 0.15645 0.48737 0.3114 0.0
H123 H 0.11642 0.52351 0.31447 0.0
H124 H 0.09301 0.67425 0.3749 0.0
H125 H 0.04591 0.62543 0.37983 0.0
H126 H 0.17131 0.63859 0.31055 0.0
H127 H 0.12372 0.59024 0.31423 0.0
H128 H 0.9828 0.63969 0.2846 0.0
H129 H 0.01945 0.60292 0.29588 0.0
H130 H 0.9096 0.61794 0.37127 0.0
H131 H 0.94599 0.5806 0.38212 0.0
N132 N 0.98659 0.53923 0.34831 0.0
N133 N 0.07105 0.55201 0.3504 0.0
C134 C 0.95564 0.43799 0.64805 0.0
C135 C 0.92494 0.43286 0.67219 0.0
C136 C 0.98076 0.46614 0.64389 0.0
C137 C 0.97562 0.48957 0.66388 0.0
C138 C 0.91908 0.45644 0.69149 0.0
C139 C 0.9441 0.48453 0.6873 0.0
C140 C 0.00207 0.5195 0.66009 0.0
C141 C 0.08622 0.46804 0.6969 0.0
C142 C 0.11733 0.46476 0.67502 0.0
C143 C 0.06309 0.48802 0.69144 0.0
C144 C 0.07016 0.50486 0.66373 0.0
C145 C 0.1247 0.48186 0.64747 0.0
C146 C 0.10155 0.5019 0.64204 0.0
C147 C 0.04604 0.52634 0.65809 0.0
C148 C 0.09782 0.65581 0.67294 0.0
C149 C 0.12822 0.66307 0.6487 0.0
C150 C 0.0713 0.62775 0.67356 0.0
C151 C 0.07459 0.60639 0.64992 0.0
C152 C 0.13147 0.64163 0.62506 0.0
C153 C 0.10501 0.61349 0.62579 0.0
C154 C 0.0482 0.57623 0.65163 0.0
C155 C 0.96253 0.63159 0.62695 0.0
C156 C 0.93423 0.6334 0.65185 0.0
C157 C 0.98545 0.61084 0.6276 0.0
C158 C 0.98044 0.59161 0.65319 0.0
C159 C 0.92914 0.61407 0.67731 0.0
C160 C 0.95174 0.59319 0.6778 0.0
C161 C 0.00434 0.56947 0.65435 0.0
H162 H 0.96047 0.42019 0.63268 0.0
H163 H 0.0041 0.46961 0.62502 0.0
H164 H 0.89494 0.45316 0.70974 0.0
H165 H 0.93917 0.50231 0.70267 0.0
H166 H 0.08014 0.45539 0.71849 0.0
H167 H 0.03991 0.49049 0.70908 0.0
H168 H 0.14799 0.47948 0.62989 0.0
H169 H 0.10775 0.51481 0.62064 0.0
H170 H 0.09546 0.67152 0.69213 0.0
H171 H 0.04896 0.62253 0.69304 0.0
H172 H 0.15474 0.64658 0.6062 0.0
H173 H 0.10835 0.59722 0.60755 0.0
H174 H 0.96717 0.64638 0.60717 0.0
H175 H 0.00691 0.60971 0.60805 0.0
H176 H 0.90732 0.61495 0.69668 0.0
H177 H 0.94722 0.57848 0.69767 0.0
N178 N 0.98299 0.54137 0.65851 0.0
N179 N 0.0674 0.55442 0.65355 0.0
C180 C 0.27541 0.18325 0.45297 0.0
C181 C 0.3009 0.19398 0.4266 0.0
C182 C 0.28545 0.16306 0.47296 0.0
C183 C 0.32145 0.15347 0.46717 0.0
C184 C 0.33719 0.1847 0.42105 0.0
C185 C 0.34716 0.16439 0.441 0.0
C186 C 0.33045 0.13044 0.48676 0.0
C187 C 0.34781 0.20875 0.55408 0.0
C188 C 0.31922 0.20562 0.57972 0.0
C189 C 0.35087 0.18453 0.53494 0.0
C190 C 0.3252 0.15673 0.54093 0.0
C191 C 0.29397 0.17775 0.58598 0.0
C192 C 0.29704 0.15352 0.56682 0.0
C193 C 0.32864 0.13087 0.52105 0.0
C194 C 0.37325 0.02105 0.55596 0.0
C195 C 0.34057 0.0096 0.57744 0.0
C196 C 0.37227 0.04474 0.53724 0.0
C197 C 0.33876 0.0575 0.53985 0.0
C198 C 0.30744 0.02277 0.58023 0.0
C199 C 0.30673 0.04659 0.56183 0.0
C200 C 0.33698 0.08261 0.52047 0.0
C201 C 0.31869 0.0066 0.4471 0.0
C202 C 0.34606 0.01137 0.42065 0.0
C203 C 0.31759 0.02945 0.46922 0.0
C204 C 0.34456 0.0573 0.46566 0.0
C205 C 0.37359 0.03902 0.41748 0.0
C206 C 0.37274 0.06178 0.43972 0.0
C207 C 0.34045 0.08264 0.48621 0.0
H208 H 0.24747 0.19028 0.45793 0.0
H209 H 0.2645 0.15444 0.49247 0.0
H210 H 0.35722 0.19258 0.40076 0.0
H211 H 0.37482 0.15705 0.43588 0.0
H212 H 0.36853 0.22983 0.54933 0.0
H213 H 0.37382 0.18748 0.51579 0.0
H214 H 0.2718 0.17472 0.60569 0.0
H215 H 0.27718 0.13227 0.57207 0.0
H216 H 0.39981 0.01197 0.55391 0.0
H217 H 0.39783 0.05326 0.52097 0.0
H218 H 0.2817 0.01442 0.5964 0.0
H219 H 0.28069 0.05621 0.56435 0.0
H220 H 0.29687 0.98552 0.44983 0.0
H221 H 0.29447 0.02556 0.48824 0.0
H222 H 0.39523 0.04314 0.39742 0.0
H223 H 0.39357 0.08311 0.43628 0.0
N224 N 0.33689 0.10654 0.47075 0.0
N225 N 0.33136 0.10678 0.53655 0.0
C226 C 0.51708 0.86564 0.8735 0.0
C227 C 0.47407 0.85402 0.8686 0.0
C228 C 0.53557 0.86265 0.9032 0.0
C229 C 0.51151 0.84702 0.928 0.0
C230 C 0.44955 0.84012 0.89402 0.0
C231 C 0.46814 0.83662 0.9235 0.0
C232 C 0.53119 0.84098 0.95838 0.0
C233 C 0.58406 0.79842 0.87589 0.0
C234 C 0.62706 0.81017 0.8716 0.0
C235 C 0.5649 0.80483 0.90445 0.0
C236 C 0.58827 0.82357 0.92891 0.0
C237 C 0.65075 0.82774 0.89671 0.0
C238 C 0.63151 0.83435 0.92516 0.0
C239 C 0.56808 0.83145 0.95875 0.0
C240 C 0.58425 0.80042 0.09702 0.0
C241 C 0.62646 0.81448 0.10325 0.0
C242 C 0.56452 0.80603 0.06894 0.0
C243 C 0.5867 0.82591 0.04676 0.0
C244 C 0.64884 0.8337 0.08057 0.0
C245 C 0.62915 0.83926 0.05252 0.0
C246 C 0.56667 0.8319 0.01671 0.0
C247 C 0.50281 0.86283 0.10188 0.0
C248 C 0.46068 0.84728 0.10376 0.0
C249 C 0.52515 0.86128 0.07327 0.0
C250 C 0.50564 0.84408 0.04622 0.0
C251 C 0.44082 0.83126 0.07615 0.0
C252 C 0.46305 0.82977 0.04764 0.0
C253 C 0.52902 0.84042 0.01638 0.0
H254 H 0.5364 0.87662 0.85417 0.0
H255 H 0.56882 0.87195 0.90646 0.0
H256 H 0.41626 0.83102 0.89059 0.0
H257 H 0.44882 0.82487 0.94237 0.0
H258 H 0.56531 0.78433 0.85713 0.0
H259 H 0.53174 0.79536 0.90729 0.0
H260 H 0.68399 0.83698 0.89396 0.0
H261 H 0.65024 0.84846 0.94394 0.0
H262 H 0.56642 0.78538 0.11406 0.0
H263 H 0.53204 0.79479 0.0645 0.0
H264 H 0.68165 0.84433 0.08447 0.0
H265 H 0.64701 0.85425 0.03542 0.0
H266 H 0.51867 0.87553 0.12278 0.0
H267 H 0.55775 0.87316 0.07245 0.0
H268 H 0.40811 0.81959 0.07678 0.0
H269 H 0.44721 0.81671 0.02694 0.0
N270 N 0.51274 0.84461 -0.01278 0.0
N271 N 0.58473 0.8278 -0.01211 0.0
C272 C 0.76743 0.10052 0.42998 0.0
C273 C 0.79433 0.10751 0.40338 0.0
C274 C 0.76982 0.07801 0.45 0.0
C275 C 0.80033 0.06277 0.44473 0.0
C276 C 0.82408 0.09169 0.39763 0.0
C277 C 0.82702 0.06959 0.41807 0.0
C278 C 0.80358 0.0388 0.4657 0.0
C279 C 0.82019 0.11814 0.534 0.0
C280 C 0.78538 0.11552 0.55419 0.0
C281 C 0.82587 0.09381 0.51625 0.0
C282 C 0.79704 0.06655 0.51882 0.0
C283 C 0.75692 0.08819 0.55699 0.0
C284 C 0.76295 0.06385 0.5397 0.0
C285 C 0.80196 0.04061 0.50009 0.0
C286 C 0.84554 0.92995 0.53541 0.0
C287 C 0.81748 0.92141 0.56094 0.0
C288 C 0.84337 0.95333 0.5167 0.0
C289 C 0.81265 0.96825 0.52286 0.0
C290 C 0.78785 0.93706 0.56787 0.0
C291 C 0.78552 0.96029 0.54903 0.0
C292 C 0.80852 0.9921 0.50219 0.0
C293 C 0.7751 0.91035 0.43999 0.0
C294 C 0.80296 0.90938 0.41454 0.0
C295 C 0.77677 0.93649 0.45717 0.0
C296 C 0.80674 0.96214 0.44955 0.0
C297 C 0.83244 0.93517 0.4065 0.0
C298 C 0.8342 0.96136 0.42381 0.0
C299 C 0.80854 0.98984 0.46785 0.0
H300 H 0.74465 0.11254 0.43556 0.0
H301 H 0.74754 0.0725 0.46945 0.0
H302 H 0.84496 0.09626 0.37714 0.0
H303 H 0.85036 0.05788 0.41309 0.0
H304 H 0.84259 0.13905 0.53168 0.0
H305 H 0.85266 0.09623 0.50055 0.0
H306 H 0.73017 0.08567 0.57276 0.0
H307 H 0.74054 0.04296 0.54215 0.0
H308 H 0.86927 0.91866 0.53008 0.0
H309 H 0.86559 0.95966 0.49731 0.0
H310 H 0.76592 0.93092 0.58748 0.0
H311 H 0.76183 0.97162 0.55444 0.0
H312 H 0.75186 0.89087 0.44654 0.0
H313 H 0.75443 0.93668 0.47631 0.0
H314 H 0.85355 0.93521 0.38641 0.0
H315 H 0.85713 0.98098 0.4172 0.0
N316 N 0.80677 0.01341 0.45094 0.0
N317 N 0.80453 0.01722 0.51696 0.0
C318 C 0.43437 0.33446 0.88994 0.0
C319 C 0.3907 0.32463 0.88688 0.0
C320 C 0.45512 0.32661 0.91617 0.0
C321 C 0.43293 0.30771 0.93927 0.0
C322 C 0.36841 0.30635 0.91047 0.0
C323 C 0.38929 0.29801 0.93637 0.0
C324 C 0.45442 0.29983 0.9678 0.0
C325 C 0.51422 0.26727 0.88078 0.0
C326 C 0.55735 0.27974 0.87821 0.0
C327 C 0.49324 0.27174 0.90925 0.0
C328 C 0.51495 0.28919 0.93537 0.0
C329 C 0.57908 0.29669 0.90455 0.0
C330 C 0.55811 0.30133 0.93283 0.0
C331 C 0.49381 0.29359 0.96619 0.0
C332 C 0.52975 0.27213 0.10592 0.0
C333 C 0.57 0.29099 0.10924 0.0
C334 C 0.50552 0.27249 0.07821 0.0
C335 C 0.52128 0.2917 0.05342 0.0
C336 C 0.5861 0.30953 0.08398 0.0
C337 C 0.56203 0.30978 0.05629 0.0
C338 C 0.49617 0.29305 0.02414 0.0
C339 C 0.4298 0.32796 0.10673 0.0
C340 C 0.39358 0.30673 0.11524 0.0
C341 C 0.45042 0.3248 0.07773 0.0
C342 C 0.43497 0.3005 0.05662 0.0
C343 C 0.37888 0.28208 0.09424 0.0
C344 C 0.39902 0.27925 0.06493 0.0
C345 C 0.4559 0.29742 0.02562 0.0
H346 H 0.45273 0.34801 0.87188 0.0
H347 H 0.48855 0.33554 0.91839 0.0
H348 H 0.33473 0.29855 0.909 0.0
H349 H 0.37127 0.28389 0.95415 0.0
H350 H 0.49693 0.25369 0.861 0.0
H351 H 0.4602 0.2613 0.91097 0.0
H352 H 0.61232 0.30661 0.90312 0.0
H353 H 0.57566 0.31462 0.95271 0.0
H354 H 0.51683 0.25748 0.12499 0.0
H355 H 0.4746 0.25773 0.07612 0.0
H356 H 0.61737 0.32386 0.0857 0.0
H357 H 0.57501 0.32451 0.0373 0.0
H358 H 0.44185 0.34727 0.12224 0.0
H359 H 0.47811 0.34148 0.07155 0.0
H360 H 0.35195 0.26484 0.1005 0.0
H361 H 0.38693 0.26024 0.04896 0.0
N362 N 0.43667 0.30089 -0.00249 0.0
N363 N 0.51342 0.29108 -0.00551 0.0
C364 C 0.21013 0.42561 0.33823 0.0
C365 C 0.19056 0.39678 0.32758 0.0
C366 C 0.1868 0.44555 0.34569 0.0
C367 C 0.14302 0.43735 0.34329 0.0
H368 H 0.24383 0.43324 0.33955 0.0
H369 H 0.20319 0.46779 0.35265 0.0
S370 S 0.07628 0.36408 0.31933 0.0
N371 N 0.1244 0.36063 0.31711 0.0
N372 N 0.08075 0.39826 0.33128 0.0
C373 C 0.12288 0.40833 0.33427 0.0
C374 C 0.14661 0.38802 0.32636 0.0
C375 C 0.23118 0.72127 0.65179 0.0
C376 C 0.21915 0.74705 0.6589 0.0
C377 C 0.2015 0.69441 0.64738 0.0
C378 C 0.15857 0.69223 0.64973 0.0
H379 H 0.26386 0.72155 0.65085 0.0
H380 H 0.2124 0.67505 0.64341 0.0
S381 S 0.11029 0.75355 0.66315 0.0
N382 N 0.161 0.76896 0.66497 0.0
N383 N 0.10526 0.71844 0.65614 0.0
C384 C 0.14596 0.71797 0.65506 0.0
C385 C 0.17621 0.74536 0.65972 0.0
C386 C 0.85742 0.66937 0.31457 0.0
C387 C 0.8792 0.69748 0.30564 0.0
C388 C 0.87859 0.64853 0.322 0.0
C389 C 0.92238 0.655 0.3209 0.0
H390 H 0.82365 0.66316 0.31529 0.0
H391 H 0.86044 0.62699 0.32799 0.0
S392 S 0.99441 0.72618 0.30216 0.0
N393 N 0.94737 0.73114 0.29804 0.0
N394 N 0.98701 0.69214 0.31256 0.0
C395 C 0.94463 0.68325 0.31292 0.0
C396 C 0.92311 0.70443 0.30518 0.0
C397 C 0.84913 0.35869 0.65548 0.0
C398 C 0.84222 0.34743 0.68673 0.0
C399 C 0.8768 0.38602 0.65077 0.0
C400 C 0.89853 0.40306 0.67712 0.0
H401 H 0.83215 0.34675 0.63459 0.0
H402 H 0.88021 0.39426 0.62649 0.0
S403 S 0.896 0.38216 0.76304 0.0
N404 N 0.86256 0.35458 0.744 0.0
N405 N 0.91452 0.40574 0.73491 0.0
C406 C 0.8934 0.39157 0.70819 0.0
C407 C 0.86529 0.36382 0.71305 0.0
C408 C 0.30697 0.25996 0.37629 0.0
C409 C 0.26749 0.25335 0.36094 0.0
C410 C 0.31761 0.24064 0.39741 0.0
C411 C 0.28902 0.21416 0.40431 0.0
H412 H 0.33008 0.2801 0.37175 0.0
H413 H 0.34834 0.24657 0.40864 0.0
S414 S 0.18188 0.18616 0.37045 0.0
N415 N 0.19979 0.21809 0.35418 0.0
N416 N 0.21997 0.18195 0.3939 0.0
C417 C 0.24947 0.20726 0.3893 0.0
C418 C 0.23868 0.22679 0.36761 0.0
C419 C 0.40636 0.86993 0.80139 0.0
C420 C 0.4125 0.85122 0.77549 0.0
C421 C 0.42701 0.87124 0.83139 0.0
C422 C 0.45508 0.85434 0.83627 0.0
H423 H 0.38428 0.88288 0.79896 0.0
H424 H 0.42053 0.8852 0.85104 0.0
S425 S 0.48371 0.8028 0.7766 0.0
N426 N 0.44996 0.81601 0.75692 0.0
N427 N 0.48897 0.81901 0.81318 0.0
C428 C 0.46266 0.83634 0.8105 0.0
C429 C 0.44135 0.83467 0.78012 0.0
C430 C 0.75587 0.84073 0.36318 0.0
C431 C 0.79066 0.83047 0.35447 0.0
C432 C 0.76014 0.86586 0.38309 0.0
C433 C 0.79936 0.88185 0.39518 0.0
H434 H 0.72502 0.82974 0.35388 0.0
H435 H 0.73258 0.87331 0.38826 0.0
S436 S 0.89984 0.86302 0.38268 0.0
N437 N 0.86551 0.83743 0.36155 0.0
N438 N 0.87325 0.88462 0.39927 0.0
C439 C 0.83425 0.8714 0.38777 0.0
C440 C 0.82996 0.84571 0.36744 0.0
C441 C 0.64128 0.26407 0.82339 0.0
C442 C 0.63076 0.27229 0.7927 0.0
C443 C 0.61663 0.26571 0.85068 0.0
C444 C 0.58022 0.27527 0.84832 0.0
H445 H 0.66964 0.25735 0.82676 0.0
H446 H 0.6266 0.25998 0.874 0.0
S447 S 0.53677 0.29706 0.77338 0.0
N448 N 0.57972 0.28864 0.76132 0.0
N449 N 0.5335 0.29164 0.81278 0.0
C450 C 0.56816 0.28224 0.81763 0.0
C451 C 0.59341 0.28078 0.78979 0.0
C452 C 0.32715 0.96009 0.64907 0.0
C453 C 0.33576 0.93468 0.63571 0.0
C454 C 0.32976 0.98434 0.63026 0.0
C455 C 0.34071 0.98413 0.5972 0.0
H456 H 0.31817 0.96129 0.6743 0.0
H457 H 0.32295 0.00341 0.64175 0.0
S458 S 0.36514 0.92265 0.55016 0.0
N459 N 0.3557 0.91075 0.58726 0.0
N460 N 0.35946 0.95605 0.55171 0.0
C461 C 0.34973 0.95894 0.58355 0.0
C462 C 0.3475 0.9343 0.60283 0.0
C463 C 0.6651 0.77548 0.17047 0.0
C464 C 0.68708 0.79854 0.19141 0.0
C465 C 0.64533 0.78075 0.14211 0.0
C466 C 0.64715 0.80928 0.13347 0.0
H467 H 0.66282 0.75312 0.1761 0.0
H468 H 0.62883 0.76238 0.12666 0.0
S469 S 0.69973 0.87733 0.17991 0.0
N470 N 0.70896 0.85116 0.20136 0.0
N471 N 0.67166 0.86081 0.1482 0.0
C472 C 0.66891 0.83252 0.15407 0.0
C473 C 0.68888 0.82722 0.18299 0.0
C474 C 0.80089 0.17895 0.61572 0.0
C475 C 0.76446 0.18837 0.6118 0.0
C476 C 0.80807 0.15589 0.59632 0.0
C477 C 0.77873 0.14112 0.57273 0.0
H478 H 0.82408 0.18943 0.63394 0.0
H479 H 0.83626 0.14909 0.60032 0.0
S480 S 0.67896 0.15737 0.55211 0.0
N481 N 0.69925 0.18138 0.5817 0.0
N482 N 0.71261 0.13771 0.54577 0.0
C483 C 0.74248 0.15041 0.56826 0.0
C484 C 0.73539 0.17414 0.58764 0.0
C485 C 0.37383 0.32493 0.20384 0.0
C486 C 0.3301 0.31877 0.20516 0.0
C487 C 0.39402 0.32062 0.17483 0.0
C488 C 0.37129 0.31046 0.14589 0.0
H489 H 0.39261 0.33287 0.22547 0.0
H490 H 0.42772 0.32516 0.17516 0.0
S491 S 0.25617 0.29365 0.13597 0.0
N492 N 0.26468 0.30303 0.17493 0.0
N493 N 0.30258 0.29611 0.12012 0.0
C494 C 0.32749 0.30469 0.14684 0.0
C495 C 0.30693 0.30857 0.17652 0.0
C496 C 0.88687 0.69452 0.67965 0.0
C497 C 0.86064 0.69637 0.65341 0.0
C498 C 0.91078 0.67426 0.67882 0.0
C499 C 0.90989 0.65537 0.65153 0.0
H500 H 0.88837 0.70841 0.70137 0.0
H501 H 0.93011 0.67334 0.69974 0.0
S502 S 0.84753 0.65171 0.57608 0.0
N503 N 0.83594 0.6777 0.599 0.0
N504 N 0.88123 0.63985 0.5975 0.0
C505 C 0.88454 0.6573 0.62487 0.0
C506 C 0.85981 0.67771 0.6258 0.0
C507 C 0.88324 0.34904 0.32121 0.0
C508 C 0.83994 0.34524 0.31759 0.0
C509 C 0.91018 0.37645 0.32921 0.0
C510 C 0.89488 0.40112 0.33422 0.0
H511 H 0.89676 0.33091 0.3168 0.0
H512 H 0.94337 0.37846 0.33098 0.0
S513 S 0.78414 0.40296 0.32946 0.0
N514 N 0.78294 0.36857 0.32128 0.0
N515 N 0.83373 0.41999 0.33595 0.0
C516 C 0.85162 0.39753 0.33186 0.0
C517 C 0.82414 0.36965 0.32364 0.0
C518 C 0.14243 0.39379 0.69403 0.0
C519 C 0.18624 0.40062 0.69187 0.0
C520 C 0.12053 0.41464 0.68865 0.0
C521 C 0.14149 0.44321 0.68085 0.0
H522 H 0.12469 0.37203 0.6996 0.0
H523 H 0.08681 0.4082 0.69015 0.0
S524 S 0.25606 0.47302 0.67422 0.0
N525 N 0.24988 0.43857 0.68253 0.0
N526 N 0.20862 0.47773 0.6728 0.0
C527 C 0.18527 0.45053 0.67907 0.0
C528 C 0.20764 0.42928 0.68452 0.0
C529 C 0.17879 0.73756 0.31758 0.0
C530 C 0.22209 0.74236 0.32275 0.0
C531 C 0.15055 0.71139 0.3258 0.0
C532 C 0.16466 0.6891 0.33931 0.0
H533 H 0.16666 0.75361 0.30589 0.0
H534 H 0.11776 0.70802 0.32005 0.0
S535 S 0.2735 0.69193 0.36214 0.0
N536 N 0.27679 0.72346 0.34574 0.0
N537 N 0.22355 0.67432 0.36072 0.0
C538 C 0.2073 0.69419 0.34647 0.0
C539 C 0.23606 0.72083 0.33836 0.0
C540 C 0.81769 0.87551 0.63388 0.0
C541 C 0.81394 0.84743 0.61986 0.0
C542 C 0.81984 0.89936 0.61462 0.0
C543 C 0.81874 0.89625 0.58053 0.0
H544 H 0.81779 0.8791 0.66005 0.0
H545 H 0.82181 0.92038 0.62654 0.0
S546 S 0.81131 0.82812 0.53131 0.0
N547 N 0.81098 0.81834 0.56938 0.0
N548 N 0.81505 0.86338 0.53328 0.0
C549 C 0.81656 0.86867 0.56603 0.0
C550 C 0.81415 0.84423 0.58565 0.0
C551 C 0.62943 0.26681 0.17687 0.0
C552 C 0.64787 0.2931 0.19438 0.0
C553 C 0.60347 0.26611 0.14978 0.0
C554 C 0.59529 0.29169 0.13905 0.0
H555 H 0.63545 0.24663 0.18386 0.0
H556 H 0.59053 0.24553 0.13665 0.0
S557 S 0.63289 0.36573 0.1774 0.0
N558 N 0.6539 0.34519 0.1997 0.0
N559 N 0.6053 0.34361 0.14886 0.0
C560 C 0.61254 0.31793 0.15668 0.0
C561 C 0.63875 0.3187 0.18432 0.0
C562 C 0.31909 0.25322 0.65583 0.0
C563 C 0.31674 0.27993 0.64364 0.0
C564 C 0.31931 0.22931 0.635 0.0
C565 C 0.31729 0.23108 0.60107 0.0
H566 H 0.32119 0.25069 0.68177 0.0
H567 H 0.32191 0.20941 0.64557 0.0
S568 S 0.30831 0.29524 0.55648 0.0
N569 N 0.31082 0.30629 0.59518 0.0
N570 N 0.31097 0.26113 0.55606 0.0
C571 C 0.31426 0.25742 0.58843 0.0
C572 C 0.31397 0.28186 0.60968 0.0
C573 C 0.41054 0.87255 0.17873 0.0
C574 C 0.38773 0.84612 0.19146 0.0
C575 C 0.43503 0.87289 0.15079 0.0
C576 C 0.43745 0.84684 0.1346 0.0
H577 H 0.40862 0.89313 0.18987 0.0
H578 H 0.45117 0.89365 0.14124 0.0
S579 S 0.38853 0.77198 0.16018 0.0
N580 N 0.37254 0.79321 0.18711 0.0
N581 N 0.41847 0.79409 0.13485 0.0
C582 C 0.41636 0.82036 0.14781 0.0
C583 C 0.39155 0.81994 0.17616 0.0
C584 C 0.82755 0.17384 0.35143 0.0
C585 C 0.78939 0.17786 0.34062 0.0
C586 C 0.82877 0.15122 0.3718 0.0
C587 C 0.7919 0.13141 0.38182 0.0
H588 H 0.85677 0.18855 0.34446 0.0
H589 H 0.85892 0.14943 0.38002 0.0
S590 S 0.68399 0.13097 0.35782 0.0
N591 N 0.71385 0.15955 0.34033 0.0
N592 N 0.71611 0.11634 0.37755 0.0
C593 C 0.75351 0.13488 0.37064 0.0
C594 C 0.75227 0.15824 0.35031 0.0
C595 C 0.31846 0.31659 0.81349 0.0
C596 C 0.33032 0.34425 0.80019 0.0
C597 C 0.33742 0.31069 0.84189 0.0
C598 C 0.36865 0.33232 0.85841 0.0
H599 H 0.29569 0.2989 0.80108 0.0
H600 H 0.32857 0.28868 0.85023 0.0
S601 S 0.40627 0.40954 0.83628 0.0
N602 N 0.37253 0.39418 0.80715 0.0
N603 N 0.40702 0.38347 0.8613 0.0
C604 C 0.3791 0.36054 0.84635 0.0
C605 C 0.36021 0.36641 0.8171 0.0
C606 C 0.34397 0.93784 0.3805 0.0
C607 C 0.33564 0.94155 0.34761 0.0
C608 C 0.34769 0.96058 0.40399 0.0
C609 C 0.34398 0.988 0.39535 0.0
H610 H 0.3466 0.91699 0.38836 0.0
H611 H 0.35339 0.95667 0.42912 0.0
S612 S 0.32343 0.00946 0.31266 0.0
N613 N 0.32463 0.97515 0.30767 0.0
N614 N 0.33199 0.01783 0.35183 0.0
C615 C 0.33655 0.99224 0.36255 0.0
C616 C 0.33227 0.96904 0.33868 0.0
C617 C 0.70378 0.79098 0.81181 0.0
C618 C 0.68987 0.79813 0.78168 0.0
C619 C 0.68294 0.79448 0.84074 0.0
C620 C 0.64715 0.80493 0.8406 0.0
H621 H 0.73159 0.78327 0.81326 0.0
H622 H 0.6951 0.78918 0.86345 0.0
S623 S 0.59734 0.82644 0.76856 0.0
N624 N 0.63727 0.81573 0.7537 0.0
N625 N 0.59842 0.82229 0.80815 0.0
C626 C 0.63229 0.81155 0.81072 0.0
C627 C 0.65356 0.80815 0.78126 0.0
loop_
_geom_bond_atom_site_label_1
_geom_bond_atom_site_label_2
_geom_bond_distance
_geom_bond_site_symmetry_2
_ccdc_geom_bond_type
O0 Cd1 2.300 . S
O0 C7 1.275 . S
Cd1 O0 2.300 . S
Cd1 O9 2.381 . S
Cd1 O10 2.378 . S
O2 Cd3 2.385 . S
O2 C7 1.255 . S
Cd3 O2 2.385 . S
Cd3 O4 2.317 . S
O4 Cd3 2.317 . S
O4 C5 1.232 . S
C5 O4 1.232 . S
C5 O6 1.218 . S
O6 C5 1.218 . S
C7 O0 1.275 . S
C7 O2 1.255 . S
C8 O9 1.258 . S
C8 O10 1.256 . S
O9 Cd1 2.381 . S
O9 C8 1.258 . S
O10 Cd1 2.378 . S
O10 C8 1.256 . S
O11 Cd12 2.300 . S
O11 C18 1.275 . S
Cd12 O11 2.300 . S
Cd12 O20 2.381 . S
Cd12 O21 2.378 . S
O13 Cd14 2.385 . S
O13 C18 1.255 . S
Cd14 O13 2.385 . S
Cd14 O15 2.317 . S
O15 Cd14 2.317 . S
O15 C16 1.232 . S
C16 O15 1.232 . S
C16 O17 1.218 . S
O17 C16 1.218 . S
C18 O11 1.275 . S
C18 O13 1.255 . S
C19 O20 1.258 . S
C19 O21 1.256 . S
O20 Cd12 2.381 . S
O20 C19 1.258 . S
O21 Cd12 2.378 . S
O21 C19 1.256 . S
O22 Cd23 2.300 . S
O22 C29 1.275 . S
Cd23 O22 2.300 . S
Cd23 O31 2.381 . S
Cd23 O32 2.378 . S
O24 Cd25 2.385 . S
O24 C29 1.255 . S
Cd25 O24 2.385 . S
Cd25 O26 2.317 . S
O26 Cd25 2.317 . S
O26 C27 1.232 . S
C27 O26 1.232 . S
C27 O28 1.218 . S
O28 C27 1.218 . S
C29 O22 1.275 . S
C29 O24 1.255 . S
C30 O31 1.258 . S
C30 O32 1.256 . S
O31 Cd23 2.381 . S
O31 C30 1.258 . S
O32 Cd23 2.378 . S
O32 C30 1.256 . S
O33 Cd34 2.300 . S
O33 C40 1.275 . S
Cd34 O33 2.300 . S
Cd34 O42 2.381 . S
Cd34 O43 2.378 . S
O35 Cd36 2.385 . S
O35 C40 1.255 . S
Cd36 O35 2.385 . S
Cd36 O37 2.317 . S
O37 Cd36 2.317 . S
O37 C38 1.232 . S
C38 O37 1.232 . S
C38 O39 1.218 . S
O39 C38 1.218 . S
C40 O33 1.275 . S
C40 O35 1.255 . S
C41 O42 1.258 . S
C41 O43 1.256 . S
O42 Cd34 2.381 . S
O42 C41 1.258 . S
O43 Cd34 2.378 . S
O43 C41 1.256 . S
O44 Cd45 2.300 . S
O44 C51 1.275 . S
Cd45 O44 2.300 . S
Cd45 O53 2.381 . S
Cd45 O54 2.378 . S
O46 Cd47 2.385 . S
O46 C51 1.255 . S
Cd47 O46 2.385 . S
Cd47 O48 2.317 . S
O48 Cd47 2.317 . S
O48 C49 1.232 . S
C49 O48 1.232 . S
C49 O50 1.218 . S
O50 C49 1.218 . S
C51 O44 1.275 . S
C51 O46 1.255 . S
C52 O53 1.258 . S
C52 O54 1.256 . S
O53 Cd45 2.381 . S
O53 C52 1.258 . S
O54 Cd45 2.378 . S
O54 C52 1.256 . S
O55 Cd56 2.300 . S
O55 C62 1.275 . S
Cd56 O55 2.300 . S
Cd56 O64 2.381 . S
Cd56 O65 2.378 . S
O57 Cd58 2.385 . S
O57 C62 1.255 . S
Cd58 O57 2.385 . S
Cd58 O59 2.317 . S
O59 Cd58 2.317 . S
O59 C60 1.232 . S
C60 O59 1.232 . S
C60 O61 1.218 . S
O61 C60 1.218 . S
C62 O55 1.275 . S
C62 O57 1.255 . S
C63 O64 1.258 . S
C63 O65 1.256 . S
O64 Cd56 2.381 . S
O64 C63 1.258 . S
O65 Cd56 2.378 . S
O65 C63 1.256 . S
O66 Cd67 2.300 . S
O66 C73 1.275 . S
Cd67 O66 2.300 . S
Cd67 O75 2.381 . S
Cd67 O76 2.378 . S
O68 Cd69 2.385 . S
O68 C73 1.255 . S
Cd69 O68 2.385 . S
Cd69 O70 2.317 . S
O70 Cd69 2.317 . S
O70 C71 1.232 . S
C71 O70 1.232 . S
C71 O72 1.218 . S
O72 C71 1.218 . S
C73 O66 1.275 . S
C73 O68 1.255 . S
C74 O75 1.258 . S
C74 O76 1.256 . S
O75 Cd67 2.381 . S
O75 C74 1.258 . S
O76 Cd67 2.378 . S
O76 C74 1.256 . S
O77 Cd78 2.300 . S
O77 C84 1.275 . S
Cd78 O77 2.300 . S
Cd78 O86 2.381 . S
Cd78 O87 2.378 . S
O79 Cd80 2.385 . S
O79 C84 1.255 . S
Cd80 O79 2.385 . S
Cd80 O81 2.317 . S
O81 Cd80 2.317 . S
O81 C82 1.232 . S
C82 O81 1.232 . S
C82 O83 1.218 . S
O83 C82 1.218 . S
C84 O77 1.275 . S
C84 O79 1.255 . S
C85 O86 1.258 . S
C85 O87 1.256 . S
O86 Cd78 2.381 . S
O86 C85 1.258 . S
O87 Cd78 2.378 . S
O87 C85 1.256 . S
C88 C89 1.384 . S
C88 C90 1.384 1_655 S
C88 H116 0.931 . S
C89 C88 1.384 . S
C89 C92 1.382 . S
C90 C88 1.384 1_455 S
C90 C91 1.381 1_455 S
C90 H117 0.930 . S
C91 C90 1.381 1_655 S
C91 C93 1.381 . S
C91 C94 1.487 1_655 S
C92 C89 1.382 . S
C92 C93 1.387 . S
C92 H118 0.930 . S
C93 C91 1.381 . S
C93 C92 1.387 . S
C93 H119 0.931 . S
C94 C91 1.487 1_455 S
C94 C101 1.399 . S
C94 N132 1.343 . S
C95 C96 1.384 . S
C95 C97 1.384 . S
C95 H120 0.931 . S
C96 C95 1.384 . S
C96 C99 1.382 . S
C97 C95 1.384 . S
C97 C98 1.381 . S
C97 H121 0.930 . S
C98 C97 1.381 . S
C98 C100 1.381 . S
C98 C101 1.487 . S
C99 C96 1.382 . S
C99 C100 1.387 . S
C99 H122 0.930 . S
C100 C98 1.381 . S
C100 C99 1.387 . S
C100 H123 0.931 . S
C101 C94 1.399 . S
C101 C98 1.487 . S
C101 N133 1.343 . S
C102 C103 1.384 . S
C102 C104 1.384 . S
C102 H124 0.931 . S
C103 C102 1.384 . S
C103 C106 1.382 . S
C104 C102 1.384 . S
C104 C105 1.381 . S
C104 H125 0.930 . S
C105 C104 1.381 . S
C105 C107 1.381 . S
C105 C108 1.487 . S
C106 C103 1.382 . S
C106 C107 1.387 . S
C106 H126 0.930 . S
C107 C105 1.381 . S
C107 C106 1.387 . S
C107 H127 0.931 . S
C108 C105 1.487 . S
C108 C115 1.399 . S
C108 N133 1.343 . S
C109 C110 1.384 . S
C109 C111 1.384 1_655 S
C109 H128 0.931 . S
C110 C109 1.384 . S
C110 C113 1.382 . S
C111 C109 1.384 1_455 S
C111 C112 1.381 1_455 S
C111 H129 0.930 . S
C112 C111 1.381 1_655 S
C112 C114 1.381 . S
C112 C115 1.487 1_655 S
C113 C110 1.382 . S
C113 C114 1.387 . S
C113 H130 0.930 . S
C114 C112 1.381 . S
C114 C113 1.387 . S
C114 H131 0.931 . S
C115 C108 1.399 . S
C115 C112 1.487 1_455 S
C115 N132 1.343 . S
H116 C88 0.931 . S
H117 C90 0.930 . S
H118 C92 0.930 . S
H119 C93 0.931 . S
H120 C95 0.931 . S
H121 C97 0.930 . S
H122 C99 0.930 . S
H123 C100 0.931 . S
H124 C102 0.931 . S
H125 C104 0.930 . S
H126 C106 0.930 . S
H127 C107 0.931 . S
H128 C109 0.931 . S
H129 C111 0.930 . S
H130 C113 0.930 . S
H131 C114 0.931 . S
N132 C94 1.343 . S
N132 C115 1.343 . S
N133 C101 1.343 . S
N133 C108 1.343 . S
C134 C135 1.384 . S
C134 C136 1.384 . S
C134 H162 0.931 . S
C135 C134 1.384 . S
C135 C138 1.382 . S
C136 C134 1.384 . S
C136 C137 1.381 . S
C136 H163 0.930 . S
C137 C136 1.381 . S
C137 C139 1.381 . S
C137 C140 1.487 . S
C138 C135 1.382 . S
C138 C139 1.387 . S
C138 H164 0.930 . S
C139 C137 1.381 . S
C139 C138 1.387 . S
C139 H165 0.931 . S
C140 C137 1.487 . S
C140 C147 1.399 1_655 S
C140 N178 1.343 . S
C141 C142 1.384 . S
C141 C143 1.384 . S
C141 H166 0.931 . S
C142 C141 1.384 . S
C142 C145 1.382 . S
C143 C141 1.384 . S
C143 C144 1.381 . S
C143 H167 0.930 . S
C144 C143 1.381 . S
C144 C146 1.381 . S
C144 C147 1.487 . S
C145 C142 1.382 . S
C145 C146 1.387 . S
C145 H168 0.930 . S
C146 C144 1.381 . S
C146 C145 1.387 . S
C146 H169 0.931 . S
C147 C140 1.399 1_455 S
C147 C144 1.487 . S
C147 N179 1.343 . S
C148 C149 1.384 . S
C148 C150 1.384 . S
C148 H170 0.931 . S
C149 C148 1.384 . S
C149 C152 1.382 . S
C150 C148 1.384 . S
C150 C151 1.381 . S
C150 H171 0.930 . S
C151 C150 1.381 . S
C151 C153 1.381 . S
C151 C154 1.487 . S
C152 C149 1.382 . S
C152 C153 1.387 . S
C152 H172 0.930 . S
C153 C151 1.381 . S
C153 C152 1.387 . S
C153 H173 0.931 . S
C154 C151 1.487 . S
C154 C161 1.399 1_455 S
C154 N179 1.343 . S
C155 C156 1.384 . S
C155 C157 1.384 . S
C155 H174 0.931 . S
C156 C155 1.384 . S
C156 C159 1.382 . S
C157 C155 1.384 . S
C157 C158 1.381 . S
C157 H175 0.930 . S
C158 C157 1.381 . S
C158 C160 1.381 . S
C158 C161 1.487 . S
C159 C156 1.382 . S
C159 C160 1.387 . S
C159 H176 0.930 . S
C160 C158 1.381 . S
C160 C159 1.387 . S
C160 H177 0.931 . S
C161 C154 1.399 1_655 S
C161 C158 1.487 . S
C161 N178 1.343 . S
H162 C134 0.931 . S
H163 C136 0.930 . S
H164 C138 0.930 . S
H165 C139 0.931 . S
H166 C141 0.931 . S
H167 C143 0.930 . S
H168 C145 0.930 . S
H169 C146 0.931 . S
H170 C148 0.931 . S
H171 C150 0.930 . S
H172 C152 0.930 . S
H173 C153 0.931 . S
H174 C155 0.931 . S
H175 C157 0.930 . S
H176 C159 0.930 . S
H177 C160 0.931 . S
N178 C140 1.343 . S
N178 C161 1.343 . S
N179 C147 1.343 . S
N179 C154 1.343 . S
C180 C181 1.384 . S
C180 C182 1.384 . S
C180 H208 0.931 . S
C181 C180 1.384 . S
C181 C184 1.382 . S
C182 C180 1.384 . S
C182 C183 1.381 . S
C182 H209 0.930 . S
C183 C182 1.381 . S
C183 C185 1.381 . S
C183 C186 1.487 . S
C184 C181 1.382 . S
C184 C185 1.387 . S
C184 H210 0.930 . S
C185 C183 1.381 . S
C185 C184 1.387 . S
C185 H211 0.931 . S
C186 C183 1.487 . S
C186 C193 1.399 . S
C186 N224 1.343 . S
C187 C188 1.384 . S
C187 C189 1.384 . S
C187 H212 0.931 . S
C188 C187 1.384 . S
C188 C191 1.382 . S
C189 C187 1.384 . S
C189 C190 1.381 . S
C189 H213 0.930 . S
C190 C189 1.381 . S
C190 C192 1.381 . S
C190 C193 1.487 . S
C191 C188 1.382 . S
C191 C192 1.387 . S
C191 H214 0.930 . S
C192 C190 1.381 . S
C192 C191 1.387 . S
C192 H215 0.931 . S
C193 C186 1.399 . S
C193 C190 1.487 . S
C193 N225 1.343 . S
C194 C195 1.384 . S
C194 C196 1.384 . S
C194 H216 0.931 . S
C195 C194 1.384 . S
C195 C198 1.382 . S
C196 C194 1.384 . S
C196 C197 1.381 . S
C196 H217 0.930 . S
C197 C196 1.381 . S
C197 C199 1.381 . S
C197 C200 1.487 . S
C198 C195 1.382 . S
C198 C199 1.387 . S
C198 H218 0.930 . S
C199 C197 1.381 . S
C199 C198 1.387 . S
C199 H219 0.931 . S
C200 C197 1.487 . S
C200 C207 1.399 . S
C200 N225 1.343 . S
C201 C202 1.384 . S
C201 C203 1.384 . S
C201 H220 0.931 1_545 S
C202 C201 1.384 . S
C202 C205 1.382 . S
C203 C201 1.384 . S
C203 C204 1.381 . S
C203 H221 0.930 . S
C204 C203 1.381 . S
C204 C206 1.381 . S
C204 C207 1.487 . S
C205 C202 1.382 . S
C205 C206 1.387 . S
C205 H222 0.930 . S
C206 C204 1.381 . S
C206 C205 1.387 . S
C206 H223 0.931 . S
C207 C200 1.399 . S
C207 C204 1.487 . S
C207 N224 1.343 . S
H208 C180 0.931 . S
H209 C182 0.930 . S
H210 C184 0.930 . S
H211 C185 0.931 . S
H212 C187 0.931 . S
H213 C189 0.930 . S
H214 C191 0.930 . S
H215 C192 0.931 . S
H216 C194 0.931 . S
H217 C196 0.930 . S
H218 C198 0.930 . S
H219 C199 0.931 . S
H220 C201 0.931 1_565 S
H221 C203 0.930 . S
H222 C205 0.930 . S
H223 C206 0.931 . S
N224 C186 1.343 . S
N224 C207 1.343 . S
N225 C193 1.343 . S
N225 C200 1.343 . S
C226 C227 1.384 . S
C226 C228 1.384 . S
C226 H254 0.931 . S
C227 C226 1.384 . S
C227 C230 1.382 . S
C228 C226 1.384 . S
C228 C229 1.381 . S
C228 H255 0.930 . S
C229 C228 1.381 . S
C229 C231 1.381 . S
C229 C232 1.487 . S
C230 C227 1.382 . S
C230 C231 1.387 . S
C230 H256 0.930 . S
C231 C229 1.381 . S
C231 C230 1.387 . S
C231 H257 0.931 . S
C232 C229 1.487 . S
C232 C239 1.399 . S
C232 N270 1.343 1_556 S
C233 C234 1.384 . S
C233 C235 1.384 . S
C233 H258 0.931 . S
C234 C233 1.384 . S
C234 C237 1.382 . S
C235 C233 1.384 . S
C235 C236 1.381 . S
C235 H259 0.930 . S
C236 C235 1.381 . S
C236 C238 1.381 . S
C236 C239 1.487 . S
C237 C234 1.382 . S
C237 C238 1.387 . S
C237 H260 0.930 . S
C238 C236 1.381 . S
C238 C237 1.387 . S
C238 H261 0.931 . S
C239 C232 1.399 . S
C239 C236 1.487 . S
C239 N271 1.343 1_556 S
C240 C241 1.384 . S
C240 C242 1.384 . S
C240 H262 0.931 . S
C241 C240 1.384 . S
C241 C244 1.382 . S
C242 C240 1.384 . S
C242 C243 1.381 . S
C242 H263 0.930 . S
C243 C242 1.381 . S
C243 C245 1.381 . S
C243 C246 1.487 . S
C244 C241 1.382 . S
C244 C245 1.387 . S
C244 H264 0.930 . S
C245 C243 1.381 . S
C245 C244 1.387 . S
C245 H265 0.931 . S
C246 C243 1.487 . S
C246 C253 1.399 . S
C246 N271 1.343 . S
C247 C248 1.384 . S
C247 C249 1.384 . S
C247 H266 0.931 . S
C248 C247 1.384 . S
C248 C251 1.382 . S
C249 C247 1.384 . S
C249 C250 1.381 . S
C249 H267 0.930 . S
C250 C249 1.381 . S
C250 C252 1.381 . S
C250 C253 1.487 . S
C251 C248 1.382 . S
C251 C252 1.387 . S
C251 H268 0.930 . S
C252 C250 1.381 . S
C252 C251 1.387 . S
C252 H269 0.931 . S
C253 C246 1.399 . S
C253 C250 1.487 . S
C253 N270 1.343 . S
H254 C226 0.931 . S
H255 C228 0.930 . S
H256 C230 0.930 . S
H257 C231 0.931 . S
H258 C233 0.931 . S
H259 C235 0.930 . S
H260 C237 0.930 . S
H261 C238 0.931 . S
H262 C240 0.931 . S
H263 C242 0.930 . S
H264 C244 0.930 . S
H265 C245 0.931 . S
H266 C247 0.931 . S
H267 C249 0.930 . S
H268 C251 0.930 . S
H269 C252 0.931 . S
N270 C232 1.343 1_554 S
N270 C253 1.343 . S
N271 C239 1.343 1_554 S
N271 C246 1.343 . S
C272 C273 1.384 . S
C272 C274 1.384 . S
C272 H300 0.931 . S
C273 C272 1.384 . S
C273 C276 1.382 . S
C274 C272 1.384 . S
C274 C275 1.381 . S
C274 H301 0.930 . S
C275 C274 1.381 . S
C275 C277 1.381 . S
C275 C278 1.487 . S
C276 C273 1.382 . S
C276 C277 1.387 . S
C276 H302 0.930 . S
C277 C275 1.381 . S
C277 C276 1.387 . S
C277 H303 0.931 . S
C278 C275 1.487 . S
C278 C285 1.399 . S
C278 N316 1.343 . S
C279 C280 1.384 . S
C279 C281 1.384 . S
C279 H304 0.931 . S
C280 C279 1.384 . S
C280 C283 1.382 . S
C281 C279 1.384 . S
C281 C282 1.381 . S
C281 H305 0.930 . S
C282 C281 1.381 . S
C282 C284 1.381 . S
C282 C285 1.487 . S
C283 C280 1.382 . S
C283 C284 1.387 . S
C283 H306 0.930 . S
C284 C282 1.381 . S
C284 C283 1.387 . S
C284 H307 0.931 . S
C285 C278 1.399 . S
C285 C282 1.487 . S
C285 N317 1.343 . S
C286 C287 1.384 . S
C286 C288 1.384 . S
C286 H308 0.931 . S
C287 C286 1.384 . S
C287 C290 1.382 . S
C288 C286 1.384 . S
C288 C289 1.381 . S
C288 H309 0.930 . S
C289 C288 1.381 . S
C289 C291 1.381 . S
C289 C292 1.487 . S
C290 C287 1.382 . S
C290 C291 1.387 . S
C290 H310 0.930 . S
C291 C289 1.381 . S
C291 C290 1.387 . S
C291 H311 0.931 . S
C292 C289 1.487 . S
C292 C299 1.399 . S
C292 N317 1.343 1_565 S
C293 C294 1.384 . S
C293 C295 1.384 . S
C293 H312 0.931 . S
C294 C293 1.384 . S
C294 C297 1.382 . S
C295 C293 1.384 . S
C295 C296 1.381 . S
C295 H313 0.930 . S
C296 C295 1.381 . S
C296 C298 1.381 . S
C296 C299 1.487 . S
C297 C294 1.382 . S
C297 C298 1.387 . S
C297 H314 0.930 . S
C298 C296 1.381 . S
C298 C297 1.387 . S
C298 H315 0.931 . S
C299 C292 1.399 . S
C299 C296 1.487 . S
C299 N316 1.343 1_565 S
H300 C272 0.931 . S
H301 C274 0.930 . S
H302 C276 0.930 . S
H303 C277 0.931 . S
H304 C279 0.931 . S
H305 C281 0.930 . S
H306 C283 0.930 . S
H307 C284 0.931 . S
H308 C286 0.931 . S
H309 C288 0.930 . S
H310 C290 0.930 . S
H311 C291 0.931 . S
H312 C293 0.931 . S
H313 C295 0.930 . S
H314 C297 0.930 . S
H315 C298 0.931 . S
N316 C278 1.343 . S
N316 C299 1.343 1_545 S
N317 C285 1.343 . S
N317 C292 1.343 1_545 S
C318 C319 1.384 . S
C318 C320 1.384 . S
C318 H346 0.931 . S
C319 C318 1.384 . S
C319 C322 1.382 . S
C320 C318 1.384 . S
C320 C321 1.381 . S
C320 H347 0.930 . S
C321 C320 1.381 . S
C321 C323 1.381 . S
C321 C324 1.487 . S
C322 C319 1.382 . S
C322 C323 1.387 . S
C322 H348 0.930 . S
C323 C321 1.381 . S
C323 C322 1.387 . S
C323 H349 0.931 . S
C324 C321 1.487 . S
C324 C331 1.399 . S
C324 N362 1.343 1_556 S
C325 C326 1.384 . S
C325 C327 1.384 . S
C325 H350 0.931 . S
C326 C325 1.384 . S
C326 C329 1.382 . S
C327 C325 1.384 . S
C327 C328 1.381 . S
C327 H351 0.930 . S
C328 C327 1.381 . S
C328 C330 1.381 . S
C328 C331 1.487 . S
C329 C326 1.382 . S
C329 C330 1.387 . S
C329 H352 0.930 . S
C330 C328 1.381 . S
C330 C329 1.387 . S
C330 H353 0.931 . S
C331 C324 1.399 . S
C331 C328 1.487 . S
C331 N363 1.343 1_556 S
C332 C333 1.384 . S
C332 C334 1.384 . S
C332 H354 0.931 . S
C333 C332 1.384 . S
C333 C336 1.382 . S
C334 C332 1.384 . S
C334 C335 1.381 . S
C334 H355 0.930 . S
C335 C334 1.381 . S
C335 C337 1.381 . S
C335 C338 1.487 . S
C336 C333 1.382 . S
C336 C337 1.387 . S
C336 H356 0.930 . S
C337 C335 1.381 . S
C337 C336 1.387 . S
C337 H357 0.931 . S
C338 C335 1.487 . S
C338 C345 1.399 . S
C338 N363 1.343 . S
C339 C340 1.384 . S
C339 C341 1.384 . S
C339 H358 0.931 . S
C340 C339 1.384 . S
C340 C343 1.382 . S
C341 C339 1.384 . S
C341 C342 1.381 . S
C341 H359 0.930 . S
C342 C341 1.381 . S
C342 C344 1.381 . S
C342 C345 1.487 . S
C343 C340 1.382 . S
C343 C344 1.387 . S
C343 H360 0.930 . S
C344 C342 1.381 . S
C344 C343 1.387 . S
C344 H361 0.931 . S
C345 C338 1.399 . S
C345 C342 1.487 . S
C345 N362 1.343 . S
H346 C318 0.931 . S
H347 C320 0.930 . S
H348 C322 0.930 . S
H349 C323 0.931 . S
H350 C325 0.931 . S
H351 C327 0.930 . S
H352 C329 0.930 . S
H353 C330 0.931 . S
H354 C332 0.931 . S
H355 C334 0.930 . S
H356 C336 0.930 . S
H357 C337 0.931 . S
H358 C339 0.931 . S
H359 C341 0.930 . S
H360 C343 0.930 . S
H361 C344 0.931 . S
N362 C324 1.343 1_554 S
N362 C345 1.343 . S
N363 C331 1.343 1_554 S
N363 C338 1.343 . S
C364 C365 1.369 . S
C364 C366 1.419 . S
C364 H368 0.930 . S
C365 C364 1.369 . S
C365 C374 1.429 . S
C366 C364 1.419 . S
C366 C367 1.363 . S
C366 H369 0.929 . S
C367 C366 1.363 . S
C367 C373 1.428 . S
H368 C364 0.930 . S
H369 C366 0.929 . S
S370 N371 1.613 . S
S370 N372 1.610 . S
N371 S370 1.613 . S
N371 C374 1.350 . S
N372 S370 1.610 . S
N372 C373 1.351 . S
C373 C367 1.428 . S
C373 N372 1.351 . S
C373 C374 1.434 . S
C374 C365 1.429 . S
C374 N371 1.350 . S
C374 C373 1.434 . S
C375 C376 1.369 . S
C375 C377 1.419 . S
C375 H379 0.930 . S
C376 C375 1.369 . S
C376 C385 1.429 . S
C377 C375 1.419 . S
C377 C378 1.363 . S
C377 H380 0.929 . S
C378 C377 1.363 . S
C378 C384 1.428 . S
H379 C375 0.930 . S
H380 C377 0.929 . S
S381 N382 1.613 . S
S381 N383 1.610 . S
N382 S381 1.613 . S
N382 C385 1.350 . S
N383 S381 1.610 . S
N383 C384 1.351 . S
C384 C378 1.428 . S
C384 N383 1.351 . S
C384 C385 1.434 . S
C385 C376 1.429 . S
C385 N382 1.350 . S
C385 C384 1.434 . S
C386 C387 1.369 . S
C386 C388 1.419 . S
C386 H390 0.930 . S
C387 C386 1.369 . S
C387 C396 1.429 . S
C388 C386 1.419 . S
C388 C389 1.363 . S
C388 H391 0.929 . S
C389 C388 1.363 . S
C389 C395 1.428 . S
H390 C386 0.930 . S
H391 C388 0.929 . S
S392 N393 1.613 . S
S392 N394 1.610 . S
N393 S392 1.613 . S
N393 C396 1.350 . S
N394 S392 1.610 . S
N394 C395 1.351 . S
C395 C389 1.428 . S
C395 N394 1.351 . S
C395 C396 1.434 . S
C396 C387 1.429 . S
C396 N393 1.350 . S
C396 C395 1.434 . S
C397 C398 1.369 . S
C397 C399 1.419 . S
C397 H401 0.930 . S
C398 C397 1.369 . S
C398 C407 1.429 . S
C399 C397 1.419 . S
C399 C400 1.363 . S
C399 H402 0.929 . S
C400 C399 1.363 . S
C400 C406 1.428 . S
H401 C397 0.930 . S
H402 C399 0.929 . S
S403 N404 1.613 . S
S403 N405 1.610 . S
N404 S403 1.613 . S
N404 C407 1.350 . S
N405 S403 1.610 . S
N405 C406 1.351 . S
C406 C400 1.428 . S
C406 N405 1.351 . S
C406 C407 1.434 . S
C407 C398 1.429 . S
C407 N404 1.350 . S
C407 C406 1.434 . S
C408 C409 1.369 . S
C408 C410 1.419 . S
C408 H412 0.930 . S
C409 C408 1.369 . S
C409 C418 1.429 . S
C410 C408 1.419 . S
C410 C411 1.363 . S
C410 H413 0.929 . S
C411 C410 1.363 . S
C411 C417 1.428 . S
H412 C408 0.930 . S
H413 C410 0.929 . S
S414 N415 1.613 . S
S414 N416 1.610 . S
N415 S414 1.613 . S
N415 C418 1.350 . S
N416 S414 1.610 . S
N416 C417 1.351 . S
C417 C411 1.428 . S
C417 N416 1.351 . S
C417 C418 1.434 . S
C418 C409 1.429 . S
C418 N415 1.350 . S
C418 C417 1.434 . S
C419 C420 1.369 . S
C419 C421 1.419 . S
C419 H423 0.930 . S
C420 C419 1.369 . S
C420 C429 1.429 . S
C421 C419 1.419 . S
C421 C422 1.363 . S
C421 H424 0.929 . S
C422 C421 1.363 . S
C422 C428 1.428 . S
H423 C419 0.930 . S
H424 C421 0.929 . S
S425 N426 1.613 . S
S425 N427 1.610 . S
N426 S425 1.613 . S
N426 C429 1.350 . S
N427 S425 1.610 . S
N427 C428 1.351 . S
C428 C422 1.428 . S
C428 N427 1.351 . S
C428 C429 1.434 . S
C429 C420 1.429 . S
C429 N426 1.350 . S
C429 C428 1.434 . S
C430 C431 1.369 . S
C430 C432 1.419 . S
C430 H434 0.930 . S
C431 C430 1.369 . S
C431 C440 1.429 . S
C432 C430 1.419 . S
C432 C433 1.363 . S
C432 H435 0.929 . S
C433 C432 1.363 . S
C433 C439 1.428 . S
H434 C430 0.930 . S
H435 C432 0.929 . S
S436 N437 1.613 . S
S436 N438 1.610 . S
N437 S436 1.613 . S
N437 C440 1.350 . S
N438 S436 1.610 . S
N438 C439 1.351 . S
C439 C433 1.428 . S
C439 N438 1.351 . S
C439 C440 1.434 . S
C440 C431 1.429 . S
C440 N437 1.350 . S
C440 C439 1.434 . S
C441 C442 1.369 . S
C441 C443 1.419 . S
C441 H445 0.930 . S
C442 C441 1.369 . S
C442 C451 1.429 . S
C443 C441 1.419 . S
C443 C444 1.363 . S
C443 H446 0.929 . S
C444 C443 1.363 . S
C444 C450 1.428 . S
H445 C441 0.930 . S
H446 C443 0.929 . S
S447 N448 1.613 . S
S447 N449 1.610 . S
N448 S447 1.613 . S
N448 C451 1.350 . S
N449 S447 1.610 . S
N449 C450 1.351 . S
C450 C444 1.428 . S
C450 N449 1.351 . S
C450 C451 1.434 . S
C451 C442 1.429 . S
C451 N448 1.350 . S
C451 C450 1.434 . S
C452 C453 1.369 . S
C452 C454 1.419 . S
C452 H456 0.930 . S
C453 C452 1.369 . S
C453 C462 1.429 . S
C454 C452 1.419 . S
C454 C455 1.363 . S
C454 H457 0.929 1_565 S
C455 C454 1.363 . S
C455 C461 1.428 . S
H456 C452 0.930 . S
H457 C454 0.929 1_545 S
S458 N459 1.613 . S
S458 N460 1.610 . S
N459 S458 1.613 . S
N459 C462 1.350 . S
N460 S458 1.610 . S
N460 C461 1.351 . S
C461 C455 1.428 . S
C461 N460 1.351 . S
C461 C462 1.434 . S
C462 C453 1.429 . S
C462 N459 1.350 . S
C462 C461 1.434 . S
C463 C464 1.369 . S
C463 C465 1.419 . S
C463 H467 0.930 . S
C464 C463 1.369 . S
C464 C473 1.429 . S
C465 C463 1.419 . S
C465 C466 1.363 . S
C465 H468 0.929 . S
C466 C465 1.363 . S
C466 C472 1.428 . S
H467 C463 0.930 . S
H468 C465 0.929 . S
S469 N470 1.613 . S
S469 N471 1.610 . S
N470 S469 1.613 . S
N470 C473 1.350 . S
N471 S469 1.610 . S
N471 C472 1.351 . S
C472 C466 1.428 . S
C472 N471 1.351 . S
C472 C473 1.434 . S
C473 C464 1.429 . S
C473 N470 1.350 . S
C473 C472 1.434 . S
C474 C475 1.369 . S
C474 C476 1.419 . S
C474 H478 0.930 . S
C475 C474 1.369 . S
C475 C484 1.429 . S
C476 C474 1.419 . S
C476 C477 1.363 . S
C476 H479 0.929 . S
C477 C476 1.363 . S
C477 C483 1.428 . S
H478 C474 0.930 . S
H479 C476 0.929 . S
S480 N481 1.613 . S
S480 N482 1.610 . S
N481 S480 1.613 . S
N481 C484 1.350 . S
N482 S480 1.610 . S
N482 C483 1.351 . S
C483 C477 1.428 . S
C483 N482 1.351 . S
C483 C484 1.434 . S
C484 C475 1.429 . S
C484 N481 1.350 . S
C484 C483 1.434 . S
C485 C486 1.369 . S
C485 C487 1.419 . S
C485 H489 0.930 . S
C486 C485 1.369 . S
C486 C495 1.429 . S
C487 C485 1.419 . S
C487 C488 1.363 . S
C487 H490 0.929 . S
C488 C487 1.363 . S
C488 C494 1.428 . S
H489 C485 0.930 . S
H490 C487 0.929 . S
S491 N492 1.613 . S
S491 N493 1.610 . S
N492 S491 1.613 . S
N492 C495 1.350 . S
N493 S491 1.610 . S
N493 C494 1.351 . S
C494 C488 1.428 . S
C494 N493 1.351 . S
C494 C495 1.434 . S
C495 C486 1.429 . S
C495 N492 1.350 . S
C495 C494 1.434 . S
C496 C497 1.369 . S
C496 C498 1.419 . S
C496 H500 0.930 . S
C497 C496 1.369 . S
C497 C506 1.429 . S
C498 C496 1.419 . S
C498 C499 1.363 . S
C498 H501 0.929 . S
C499 C498 1.363 . S
C499 C505 1.428 . S
H500 C496 0.930 . S
H501 C498 0.929 . S
S502 N503 1.613 . S
S502 N504 1.610 . S
N503 S502 1.613 . S
N503 C506 1.350 . S
N504 S502 1.610 . S
N504 C505 1.351 . S
C505 C499 1.428 . S
C505 N504 1.351 . S
C505 C506 1.434 . S
C506 C497 1.429 . S
C506 N503 1.350 . S
C506 C505 1.434 . S
C507 C508 1.369 . S
C507 C509 1.419 . S
C507 H511 0.930 . S
C508 C507 1.369 . S
C508 C517 1.429 . S
C509 C507 1.419 . S
C509 C510 1.363 . S
C509 H512 0.929 . S
C510 C509 1.363 . S
C510 C516 1.428 . S
H511 C507 0.930 . S
H512 C509 0.929 . S
S513 N514 1.613 . S
S513 N515 1.610 . S
N514 S513 1.613 . S
N514 C517 1.350 . S
N515 S513 1.610 . S
N515 C516 1.351 . S
C516 C510 1.428 . S
C516 N515 1.351 . S
C516 C517 1.434 . S
C517 C508 1.429 . S
C517 N514 1.350 . S
C517 C516 1.434 . S
C518 C519 1.369 . S
C518 C520 1.419 . S
C518 H522 0.930 . S
C519 C518 1.369 . S
C519 C528 1.429 . S
C520 C518 1.419 . S
C520 C521 1.363 . S
C520 H523 0.929 . S
C521 C520 1.363 . S
C521 C527 1.428 . S
H522 C518 0.930 . S
H523 C520 0.929 . S
S524 N525 1.613 . S
S524 N526 1.610 . S
N525 S524 1.613 . S
N525 C528 1.350 . S
N526 S524 1.610 . S
N526 C527 1.351 . S
C527 C521 1.428 . S
C527 N526 1.351 . S
C527 C528 1.434 . S
C528 C519 1.429 . S
C528 N525 1.350 . S
C528 C527 1.434 . S
C529 C530 1.369 . S
C529 C531 1.419 . S
C529 H533 0.930 . S
C530 C529 1.369 . S
C530 C539 1.429 . S
C531 C529 1.419 . S
C531 C532 1.363 . S
C531 H534 0.929 . S
C532 C531 1.363 . S
C532 C538 1.428 . S
H533 C529 0.930 . S
H534 C531 0.929 . S
S535 N536 1.613 . S
S535 N537 1.610 . S
N536 S535 1.613 . S
N536 C539 1.350 . S
N537 S535 1.610 . S
N537 C538 1.351 . S
C538 C532 1.428 . S
C538 N537 1.351 . S
C538 C539 1.434 . S
C539 C530 1.429 . S
C539 N536 1.350 . S
C539 C538 1.434 . S
C540 C541 1.369 . S
C540 C542 1.419 . S
C540 H544 0.930 . S
C541 C540 1.369 . S
C541 C550 1.429 . S
C542 C540 1.419 . S
C542 C543 1.363 . S
C542 H545 0.929 . S
C543 C542 1.363 . S
C543 C549 1.428 . S
H544 C540 0.930 . S
H545 C542 0.929 . S
S546 N547 1.613 . S
S546 N548 1.610 . S
N547 S546 1.613 . S
N547 C550 1.350 . S
N548 S546 1.610 . S
N548 C549 1.351 . S
C549 C543 1.428 . S
C549 N548 1.351 . S
C549 C550 1.434 . S
C550 C541 1.429 . S
C550 N547 1.350 . S
C550 C549 1.434 . S
C551 C552 1.369 . S
C551 C553 1.419 . S
C551 H555 0.930 . S
C552 C551 1.369 . S
C552 C561 1.429 . S
C553 C551 1.419 . S
C553 C554 1.363 . S
C553 H556 0.929 . S
C554 C553 1.363 . S
C554 C560 1.428 . S
H555 C551 0.930 . S
H556 C553 0.929 . S
S557 N558 1.613 . S
S557 N559 1.610 . S
N558 S557 1.613 . S
N558 C561 1.350 . S
N559 S557 1.610 . S
N559 C560 1.351 . S
C560 C554 1.428 . S
C560 N559 1.351 . S
C560 C561 1.434 . S
C561 C552 1.429 . S
C561 N558 1.350 . S
C561 C560 1.434 . S
C562 C563 1.369 . S
C562 C564 1.419 . S
C562 H566 0.930 . S
C563 C562 1.369 . S
C563 C572 1.429 . S
C564 C562 1.419 . S
C564 C565 1.363 . S
C564 H567 0.929 . S
C565 C564 1.363 . S
C565 C571 1.428 . S
H566 C562 0.930 . S
H567 C564 0.929 . S
S568 N569 1.613 . S
S568 N570 1.610 . S
N569 S568 1.613 . S
N569 C572 1.350 . S
N570 S568 1.610 . S
N570 C571 1.351 . S
C571 C565 1.428 . S
C571 N570 1.351 . S
C571 C572 1.434 . S
C572 C563 1.429 . S
C572 N569 1.350 . S
C572 C571 1.434 . S
C573 C574 1.369 . S
C573 C575 1.419 . S
C573 H577 0.930 . S
C574 C573 1.369 . S
C574 C583 1.429 . S
C575 C573 1.419 . S
C575 C576 1.363 . S
C575 H578 0.929 . S
C576 C575 1.363 . S
C576 C582 1.428 . S
H577 C573 0.930 . S
H578 C575 0.929 . S
S579 N580 1.613 . S
S579 N581 1.610 . S
N580 S579 1.613 . S
N580 C583 1.350 . S
N581 S579 1.610 . S
N581 C582 1.351 . S
C582 C576 1.428 . S
C582 N581 1.351 . S
C582 C583 1.434 . S
C583 C574 1.429 . S
C583 N580 1.350 . S
C583 C582 1.434 . S
C584 C585 1.369 . S
C584 C586 1.419 . S
C584 H588 0.930 . S
C585 C584 1.369 . S
C585 C594 1.429 . S
C586 C584 1.419 . S
C586 C587 1.363 . S
C586 H589 0.929 . S
C587 C586 1.363 . S
C587 C593 1.428 . S
H588 C584 0.930 . S
H589 C586 0.929 . S
S590 N591 1.613 . S
S590 N592 1.610 . S
N591 S590 1.613 . S
N591 C594 1.350 . S
N592 S590 1.610 . S
N592 C593 1.351 . S
C593 C587 1.428 . S
C593 N592 1.351 . S
C593 C594 1.434 . S
C594 C585 1.429 . S
C594 N591 1.350 . S
C594 C593 1.434 . S
C595 C596 1.369 . S
C595 C597 1.419 . S
C595 H599 0.930 . S
C596 C595 1.369 . S
C596 C605 1.429 . S
C597 C595 1.419 . S
C597 C598 1.363 . S
C597 H600 0.929 . S
C598 C597 1.363 . S
C598 C604 1.428 . S
H599 C595 0.930 . S
H600 C597 0.929 . S
S601 N602 1.613 . S
S601 N603 1.610 . S
N602 S601 1.613 . S
N602 C605 1.350 . S
N603 S601 1.610 . S
N603 C604 1.351 . S
C604 C598 1.428 . S
C604 N603 1.351 . S
C604 C605 1.434 . S
C605 C596 1.429 . S
C605 N602 1.350 . S
C605 C604 1.434 . S
C606 C607 1.369 . S
C606 C608 1.419 . S
C606 H610 0.930 . S
C607 C606 1.369 . S
C607 C616 1.429 . S
C608 C606 1.419 . S
C608 C609 1.363 . S
C608 H611 0.929 . S
C609 C608 1.363 . S
C609 C615 1.428 . S
H610 C606 0.930 . S
H611 C608 0.929 . S
S612 N613 1.613 1_545 S
S612 N614 1.610 . S
N613 S612 1.613 1_565 S
N613 C616 1.350 . S
N614 S612 1.610 . S
N614 C615 1.351 1_545 S
C615 C609 1.428 . S
C615 N614 1.351 1_565 S
C615 C616 1.434 . S
C616 C607 1.429 . S
C616 N613 1.350 . S
C616 C615 1.434 . S
C617 C618 1.369 . S
C617 C619 1.419 . S
C617 H621 0.930 . S
C618 C617 1.369 . S
C618 C627 1.429 . S
C619 C617 1.419 . S
C619 C620 1.363 . S
C619 H622 0.929 . S
C620 C619 1.363 . S
C620 C626 1.428 . S
H621 C617 0.930 . S
H622 C619 0.929 . S
S623 N624 1.613 . S
S623 N625 1.610 . S
N624 S623 1.613 . S
N624 C627 1.350 . S
N625 S623 1.610 . S
N625 C626 1.351 . S
C626 C620 1.428 . S
C626 N625 1.351 . S
C626 C627 1.434 . S
C627 C618 1.429 . S
C627 N624 1.350 . S
C627 C626 1.434 . S
C367 C96 1.540 . S
C365 C5 1.404 . S
C378 C149 1.544 . S
C376 C16 1.291 . S
C389 C110 1.685 . S
C387 C30 1.692 . S
C400 C135 1.617 . S
C398 C40 1.566 . S
C411 C181 1.520 . S
C409 C8 1.520 . S
C422 C227 1.499 . S
C420 C18 1.438 . S
C431 C29 1.731 . S
C433 C294 1.755 . S
C444 C326 1.553 . S
C442 C38 1.303 . S
C455 C195 1.502 1_565 S
C453 C19 1.493 . S
C464 C27 1.516 . S
C466 C241 1.642 . S
C477 C280 1.580 . S
C475 C41 1.561 . S
C488 C340 1.541 . S
C486 C7 1.515 . S
C497 C52 1.561 . S
C499 C156 1.592 . S
C510 C89 1.593 . S
C508 C62 1.558 . S
C519 C74 1.424 . S
C521 C142 1.438 . S
C530 C82 1.227 . S
C532 C103 1.421 . S
C543 C287 1.805 . S
C541 C51 1.684 . S
C554 C333 1.622 . S
C552 C60 1.322 . S
C565 C188 1.550 . S
C563 C71 1.256 . S
C574 C84 1.469 . S
C576 C248 1.522 . S
C587 C273 1.662 . S
C585 C63 1.663 . S
C598 C319 1.500 . S
C596 C73 1.442 . S
C609 C202 1.586 1_565 S
C607 C85 1.605 . S
C618 C49 1.335 . S
C620 C234 1.668 . S
